# Generated by pormake.
# Topology ukd, (4)-cn, num edge types: 1
# Building blocks:
#     Node 0, Type 0, BuildingBlock: UXUYUI_clean_sbu_0, # of connection points: 4
#     Node 1, Type 0, BuildingBlock: UXUYUI_clean_sbu_0, # of connection points: 4
#     Node 2, Type 0, BuildingBlock: UXUYUI_clean_sbu_0, # of connection points: 4
#     Node 3, Type 0, BuildingBlock: UXUYUI_clean_sbu_0, # of connection points: 4
#     Node 4, Type 0, BuildingBlock: UXUYUI_clean_sbu_0, # of connection points: 4
#     Node 5, Type 0, BuildingBlock: UXUYUI_clean_sbu_0, # of connection points: 4
#     Node 6, Type 0, BuildingBlock: UXUYUI_clean_sbu_0, # of connection points: 4
#     Node 7, Type 0, BuildingBlock: UXUYUI_clean_sbu_0, # of connection points: 4
#     Node 8, Type 0, BuildingBlock: UXUYUI_clean_sbu_0, # of connection points: 4
#     Node 9, Type 0, BuildingBlock: UXUYUI_clean_sbu_0, # of connection points: 4
#     Node 10, Type 0, BuildingBlock: UXUYUI_clean_sbu_0, # of connection points: 4
#     Node 11, Type 0, BuildingBlock: UXUYUI_clean_sbu_0, # of connection points: 4
#     Node 12, Type 0, BuildingBlock: UXUYUI_clean_sbu_0, # of connection points: 4
#     Node 13, Type 0, BuildingBlock: UXUYUI_clean_sbu_0, # of connection points: 4
#     Node 14, Type 0, BuildingBlock: UXUYUI_clean_sbu_0, # of connection points: 4
#     Node 15, Type 0, BuildingBlock: UXUYUI_clean_sbu_0, # of connection points: 4
#     Node 16, Type 0, BuildingBlock: UXUYUI_clean_sbu_0, # of connection points: 4
#     Node 17, Type 0, BuildingBlock: UXUYUI_clean_sbu_0, # of connection points: 4
#     Node 18, Type 0, BuildingBlock: UXUYUI_clean_sbu_0, # of connection points: 4
#     Node 19, Type 0, BuildingBlock: UXUYUI_clean_sbu_0, # of connection points: 4
#     Node 20, Type 0, BuildingBlock: UXUYUI_clean_sbu_0, # of connection points: 4
#     Node 21, Type 0, BuildingBlock: UXUYUI_clean_sbu_0, # of connection points: 4
#     Node 22, Type 0, BuildingBlock: UXUYUI_clean_sbu_0, # of connection points: 4
#     Node 23, Type 0, BuildingBlock: UXUYUI_clean_sbu_0, # of connection points: 4
#     Node 24, Type 0, BuildingBlock: UXUYUI_clean_sbu_0, # of connection points: 4
#     Node 25, Type 0, BuildingBlock: UXUYUI_clean_sbu_0, # of connection points: 4
#     Node 26, Type 0, BuildingBlock: UXUYUI_clean_sbu_0, # of connection points: 4
#     Node 27, Type 0, BuildingBlock: UXUYUI_clean_sbu_0, # of connection points: 4
#     Node 28, Type 0, BuildingBlock: UXUYUI_clean_sbu_0, # of connection points: 4
#     Node 29, Type 0, BuildingBlock: UXUYUI_clean_sbu_0, # of connection points: 4
#     Node 30, Type 0, BuildingBlock: UXUYUI_clean_sbu_0, # of connection points: 4
#     Node 31, Type 0, BuildingBlock: UXUYUI_clean_sbu_0, # of connection points: 4
#     Edge 32, Type (0, 0), BuildingBlock: XIVTED_clean_linker_0, # of connection points: 2
#     Edge 33, Type (0, 0), BuildingBlock: XIVTED_clean_linker_0, # of connection points: 2
#     Edge 34, Type (0, 0), BuildingBlock: XIVTED_clean_linker_0, # of connection points: 2
#     Edge 35, Type (0, 0), BuildingBlock: XIVTED_clean_linker_0, # of connection points: 2
#     Edge 36, Type (0, 0), BuildingBlock: XIVTED_clean_linker_0, # of connection points: 2
#     Edge 37, Type (0, 0), BuildingBlock: XIVTED_clean_linker_0, # of connection points: 2
#     Edge 38, Type (0, 0), BuildingBlock: XIVTED_clean_linker_0, # of connection points: 2
#     Edge 39, Type (0, 0), BuildingBlock: XIVTED_clean_linker_0, # of connection points: 2
#     Edge 40, Type (0, 0), BuildingBlock: XIVTED_clean_linker_0, # of connection points: 2
#     Edge 41, Type (0, 0), BuildingBlock: XIVTED_clean_linker_0, # of connection points: 2
#     Edge 42, Type (0, 0), BuildingBlock: XIVTED_clean_linker_0, # of connection points: 2
#     Edge 43, Type (0, 0), BuildingBlock: XIVTED_clean_linker_0, # of connection points: 2
#     Edge 44, Type (0, 0), BuildingBlock: XIVTED_clean_linker_0, # of connection points: 2
#     Edge 45, Type (0, 0), BuildingBlock: XIVTED_clean_linker_0, # of connection points: 2
#     Edge 46, Type (0, 0), BuildingBlock: XIVTED_clean_linker_0, # of connection points: 2
#     Edge 47, Type (0, 0), BuildingBlock: XIVTED_clean_linker_0, # of connection points: 2
#     Edge 48, Type (0, 0), BuildingBlock: XIVTED_clean_linker_0, # of connection points: 2
#     Edge 49, Type (0, 0), BuildingBlock: XIVTED_clean_linker_0, # of connection points: 2
#     Edge 50, Type (0, 0), BuildingBlock: XIVTED_clean_linker_0, # of connection points: 2
#     Edge 51, Type (0, 0), BuildingBlock: XIVTED_clean_linker_0, # of connection points: 2
#     Edge 52, Type (0, 0), BuildingBlock: XIVTED_clean_linker_0, # of connection points: 2
#     Edge 53, Type (0, 0), BuildingBlock: XIVTED_clean_linker_0, # of connection points: 2
#     Edge 54, Type (0, 0), BuildingBlock: XIVTED_clean_linker_0, # of connection points: 2
#     Edge 55, Type (0, 0), BuildingBlock: XIVTED_clean_linker_0, # of connection points: 2
#     Edge 56, Type (0, 0), BuildingBlock: XIVTED_clean_linker_0, # of connection points: 2
#     Edge 57, Type (0, 0), BuildingBlock: XIVTED_clean_linker_0, # of connection points: 2
#     Edge 58, Type (0, 0), BuildingBlock: XIVTED_clean_linker_0, # of connection points: 2
#     Edge 59, Type (0, 0), BuildingBlock: XIVTED_clean_linker_0, # of connection points: 2
#     Edge 60, Type (0, 0), BuildingBlock: XIVTED_clean_linker_0, # of connection points: 2
#     Edge 61, Type (0, 0), BuildingBlock: XIVTED_clean_linker_0, # of connection points: 2
#     Edge 62, Type (0, 0), BuildingBlock: XIVTED_clean_linker_0, # of connection points: 2
#     Edge 63, Type (0, 0), BuildingBlock: XIVTED_clean_linker_0, # of connection points: 2
#     Edge 64, Type (0, 0), BuildingBlock: XIVTED_clean_linker_0, # of connection points: 2
#     Edge 65, Type (0, 0), BuildingBlock: XIVTED_clean_linker_0, # of connection points: 2
#     Edge 66, Type (0, 0), BuildingBlock: XIVTED_clean_linker_0, # of connection points: 2
#     Edge 67, Type (0, 0), BuildingBlock: XIVTED_clean_linker_0, # of connection points: 2
#     Edge 68, Type (0, 0), BuildingBlock: XIVTED_clean_linker_0, # of connection points: 2
#     Edge 69, Type (0, 0), BuildingBlock: XIVTED_clean_linker_0, # of connection points: 2
#     Edge 70, Type (0, 0), BuildingBlock: XIVTED_clean_linker_0, # of connection points: 2
#     Edge 71, Type (0, 0), BuildingBlock: XIVTED_clean_linker_0, # of connection points: 2
#     Edge 72, Type (0, 0), BuildingBlock: XIVTED_clean_linker_0, # of connection points: 2
#     Edge 73, Type (0, 0), BuildingBlock: XIVTED_clean_linker_0, # of connection points: 2
#     Edge 74, Type (0, 0), BuildingBlock: XIVTED_clean_linker_0, # of connection points: 2
#     Edge 75, Type (0, 0), BuildingBlock: XIVTED_clean_linker_0, # of connection points: 2
#     Edge 76, Type (0, 0), BuildingBlock: XIVTED_clean_linker_0, # of connection points: 2
#     Edge 77, Type (0, 0), BuildingBlock: XIVTED_clean_linker_0, # of connection points: 2
#     Edge 78, Type (0, 0), BuildingBlock: XIVTED_clean_linker_0, # of connection points: 2
#     Edge 79, Type (0, 0), BuildingBlock: XIVTED_clean_linker_0, # of connection points: 2
#     Edge 80, Type (0, 0), BuildingBlock: XIVTED_clean_linker_0, # of connection points: 2
#     Edge 81, Type (0, 0), BuildingBlock: XIVTED_clean_linker_0, # of connection points: 2
#     Edge 82, Type (0, 0), BuildingBlock: XIVTED_clean_linker_0, # of connection points: 2
#     Edge 83, Type (0, 0), BuildingBlock: XIVTED_clean_linker_0, # of connection points: 2
#     Edge 84, Type (0, 0), BuildingBlock: XIVTED_clean_linker_0, # of connection points: 2
#     Edge 85, Type (0, 0), BuildingBlock: XIVTED_clean_linker_0, # of connection points: 2
#     Edge 86, Type (0, 0), BuildingBlock: XIVTED_clean_linker_0, # of connection points: 2
#     Edge 87, Type (0, 0), BuildingBlock: XIVTED_clean_linker_0, # of connection points: 2
#     Edge 88, Type (0, 0), BuildingBlock: XIVTED_clean_linker_0, # of connection points: 2
#     Edge 89, Type (0, 0), BuildingBlock: XIVTED_clean_linker_0, # of connection points: 2
#     Edge 90, Type (0, 0), BuildingBlock: XIVTED_clean_linker_0, # of connection points: 2
#     Edge 91, Type (0, 0), BuildingBlock: XIVTED_clean_linker_0, # of connection points: 2
#     Edge 92, Type (0, 0), BuildingBlock: XIVTED_clean_linker_0, # of connection points: 2
#     Edge 93, Type (0, 0), BuildingBlock: XIVTED_clean_linker_0, # of connection points: 2
#     Edge 94, Type (0, 0), BuildingBlock: XIVTED_clean_linker_0, # of connection points: 2
#     Edge 95, Type (0, 0), BuildingBlock: XIVTED_clean_linker_0, # of connection points: 2
# Relax obj value: 0.229
# Max RMSD: 0.213
# Mean RMSD: 0.213
data_MOF--net-ukd--node1-UXUYUI_clean_sbu_0--edge1-XIVTED_clean_linker_0
_symmetry_space_group_name_H-M    P1
_symmetry_Int_Tables_number       1
_symmetry_cell_setting            triclinic
loop_
_symmetry_equiv_pos_as_xyz
'x, y, z'
_cell_length_a     61.772004
_cell_length_b     61.768327
_cell_length_c     115.1339
_cell_angle_alpha  90.000365
_cell_angle_beta   90.00123
_cell_angle_gamma 90.003316
loop_
_atom_site_label
_atom_site_type_symbol
_atom_site_fract_x
_atom_site_fract_y
_atom_site_fract_z
_atom_type_partial_charge
Li0 Li 0.221 0.20627 0.34715 0.0
Li1 Li 0.23177 0.24369 0.35053 0.0
Li2 Li 0.24171 0.22626 0.33198 0.0
Li3 Li 0.25892 0.21678 0.34993 0.0
C4 C 0.1964 0.22773 0.33039 0.0
N5 N 0.16476 0.21827 0.31421 0.0
C6 C 0.17908 0.24193 0.32871 0.0
C7 C 0.19762 0.20869 0.32385 0.0
C8 C 0.16324 0.23687 0.32049 0.0
C9 C 0.18147 0.20421 0.31571 0.0
C10 C 0.23421 0.22775 0.3719 0.0
C11 C 0.24967 0.25153 0.3863 0.0
N12 N 0.23249 0.24762 0.39338 0.0
C13 C 0.21683 0.22378 0.37937 0.0
C14 C 0.25087 0.24156 0.37543 0.0
C15 C 0.21622 0.23404 0.39018 0.0
C16 C 0.19912 0.16587 0.34482 0.0
N17 N 0.19864 0.18586 0.34976 0.0
C18 C 0.16561 0.17757 0.35954 0.0
C19 C 0.18211 0.19209 0.35677 0.0
C20 C 0.16599 0.15657 0.35487 0.0
C21 C 0.18282 0.15087 0.34726 0.0
H22 H 0.21225 0.16151 0.33906 0.0
H23 H 0.18183 0.20833 0.36026 0.0
C24 C 0.23218 0.2885 0.35665 0.0
N25 N 0.22123 0.26946 0.35737 0.0
C26 C 0.22334 0.30732 0.36147 0.0
C27 C 0.19244 0.28635 0.36779 0.0
C28 C 0.2017 0.26808 0.36274 0.0
C29 C 0.20321 0.30633 0.36713 0.0
H30 H 0.2476 0.28912 0.35222 0.0
H31 H 0.19325 0.25275 0.36299 0.0
C32 C 0.25873 0.17862 0.3395 0.0
N33 N 0.28479 0.14299 0.34334 0.0
C34 C 0.25537 0.16553 0.34924 0.0
C35 C 0.2753 0.17357 0.33169 0.0
C36 C 0.26874 0.14761 0.35104 0.0
C37 C 0.28829 0.15546 0.33378 0.0
C38 C 0.28062 0.25135 0.34065 0.0
C39 C 0.29175 0.24619 0.33044 0.0
C40 C 0.29113 0.26309 0.34936 0.0
C41 C 0.31336 0.25249 0.32923 0.0
C42 C 0.31276 0.26906 0.34783 0.0
N43 N 0.32334 0.26366 0.33788 0.0
C44 C 0.24303 0.25091 0.31157 0.0
C45 C 0.24665 0.21308 0.30862 0.0
C46 C 0.24471 0.25468 0.29965 0.0
N47 N 0.24411 0.23039 0.31577 0.0
C48 C 0.24836 0.2161 0.29664 0.0
C49 C 0.24744 0.23714 0.29201 0.0
H50 H 0.24087 0.26431 0.31751 0.0
H51 H 0.24729 0.19693 0.31222 0.0
C52 C 0.28395 0.19709 0.36735 0.0
N53 N 0.28531 0.20593 0.35656 0.0
C54 C 0.30107 0.18495 0.37181 0.0
C55 C 0.32123 0.1921 0.35424 0.0
C56 C 0.3036 0.20391 0.35006 0.0
C57 C 0.31977 0.18193 0.3651 0.0
H58 H 0.26906 0.19822 0.37222 0.0
H59 H 0.30401 0.21004 0.3413 0.0
O60 O 0.212 0.23253 0.33841 0.0
O61 O 0.23491 0.21828 0.36116 0.0
O62 O 0.24625 0.19665 0.33781 0.0
O63 O 0.25936 0.24558 0.34194 0.0
H64 H 0.17791 0.25672 0.33373 0.0
H65 H 0.21086 0.19747 0.32503 0.0
H66 H 0.14974 0.24772 0.31909 0.0
H67 H 0.18222 0.18955 0.31059 0.0
H68 H 0.26239 0.26237 0.3891 0.0
H69 H 0.20394 0.2129 0.37688 0.0
H70 H 0.26454 0.24454 0.36981 0.0
H71 H 0.2028 0.2312 0.39603 0.0
H72 H 0.15266 0.18272 0.36525 0.0
H73 H 0.18367 0.13483 0.34348 0.0
H74 H 0.23213 0.32244 0.36079 0.0
H75 H 0.17671 0.28499 0.37189 0.0
H76 H 0.24284 0.16943 0.35547 0.0
H77 H 0.27829 0.18369 0.32419 0.0
H78 H 0.26644 0.13745 0.35859 0.0
H79 H 0.30124 0.1514 0.32785 0.0
H80 H 0.28397 0.2371 0.3236 0.0
H81 H 0.28267 0.2677 0.3572 0.0
H82 H 0.32221 0.24842 0.32142 0.0
H83 H 0.32111 0.27806 0.35453 0.0
H84 H 0.24359 0.27113 0.29645 0.0
H85 H 0.25065 0.20214 0.29108 0.0
H86 H 0.29935 0.17724 0.38021 0.0
H87 H 0.33521 0.18971 0.34871 0.0
Li88 Li 0.00537 0.98223 0.59886 0.0
Li89 Li 0.04167 0.97038 0.59494 0.0
Li90 Li 0.03482 0.00818 0.59811 0.0
Li91 Li 0.02279 0.99008 0.57991 0.0
C92 C 0.0289 0.96947 0.61814 0.0
N93 N 0.02471 0.93943 0.63579 0.0
C94 C 0.02217 0.94837 0.61565 0.0
C95 C 0.03348 0.97529 0.62961 0.0
C96 C 0.02016 0.93341 0.62469 0.0
C97 C 0.03127 0.95987 0.63841 0.0
C98 C 0.01343 0.94319 0.58052 0.0
C99 C 0.02263 0.92154 0.56379 0.0
N100 N 0.01036 0.90507 0.56805 0.0
C101 C 0.00085 0.92607 0.58471 0.0
C102 C 0.02436 0.94094 0.56995 0.0
C103 C 0.99953 0.90692 0.57829 0.0
C104 C 0.96393 0.96477 0.5985 0.0
N105 N 0.9784 0.9747 0.6056 0.0
C106 C 0.95487 0.97021 0.62189 0.0
C107 C 0.97412 0.97793 0.61705 0.0
C108 C 0.93995 0.95905 0.61486 0.0
C109 C 0.94457 0.95671 0.60296 0.0
H110 H 0.96777 0.96254 0.58941 0.0
H111 H 0.98584 0.98607 0.62249 0.0
C112 C 0.07853 0.95384 0.60591 0.0
N113 N 0.06279 0.94831 0.5982 0.0
C114 C 0.09483 0.93914 0.6088 0.0
C115 C 0.0781 0.913 0.59604 0.0
C116 C 0.06229 0.92829 0.59331 0.0
C117 C 0.09476 0.91833 0.60386 0.0
H118 H 0.07847 0.9698 0.60978 0.0
H119 H 0.04962 0.92395 0.58735 0.0
C120 C 0.99272 0.02478 0.59559 0.0
N121 N 0.96573 0.0542 0.6064 0.0
C122 C 0.97775 0.03662 0.58908 0.0
C123 C 0.99397 0.02788 0.6076 0.0
C124 C 0.96425 0.05143 0.59471 0.0
C125 C 0.98018 0.04283 0.6129 0.0
C126 C 0.07406 0.99054 0.58461 0.0
C127 C 0.08921 0.00123 0.59157 0.0
C128 C 0.08101 0.97459 0.57684 0.0
C129 C 0.11106 0.99558 0.59075 0.0
C130 C 0.10299 0.96938 0.57629 0.0
N131 N 0.11743 0.97988 0.5832 0.0
C132 C 0.05596 0.03463 0.61447 0.0
C133 C 0.04457 0.05252 0.5973 0.0
C134 C 0.06593 0.05348 0.61847 0.0
N135 N 0.04585 0.03447 0.604 0.0
C136 C 0.05429 0.07174 0.60096 0.0
C137 C 0.06548 0.07229 0.61159 0.0
H138 H 0.05691 0.01991 0.61952 0.0
H139 H 0.03641 0.05181 0.589 0.0
C140 C 0.99696 0.9941 0.55999 0.0
N141 N 0.01771 0.99395 0.56389 0.0
C142 C 0.99267 0.99663 0.54816 0.0
C143 C 0.03121 0.9987 0.54464 0.0
C144 C 0.03473 0.99636 0.55654 0.0
C145 C 0.00994 0.99886 0.54028 0.0
H146 H 0.98377 0.99226 0.56609 0.0
H147 H 0.05106 0.99621 0.55991 0.0
O148 O 0.03094 0.9845 0.60947 0.0
O149 O 0.01472 0.96212 0.58666 0.0
O150 O 0.00596 0.01018 0.59018 0.0
O151 O 0.05254 0.99556 0.58547 0.0
H152 H 0.01857 0.94353 0.60686 0.0
H153 H 0.03863 0.99158 0.6317 0.0
H154 H 0.01498 0.91703 0.62287 0.0
H155 H 0.03475 0.96416 0.64732 0.0
H156 H 0.03107 0.91956 0.55562 0.0
H157 H 0.99222 0.92751 0.59285 0.0
H158 H 0.03423 0.95391 0.56658 0.0
H159 H 0.9899 0.89353 0.58145 0.0
H160 H 0.95185 0.9727 0.63105 0.0
H161 H 0.93376 0.94799 0.59723 0.0
H162 H 0.10742 0.94413 0.61476 0.0
H163 H 0.07701 0.89703 0.59221 0.0
H164 H 0.97658 0.03437 0.57977 0.0
H165 H 0.00543 0.01884 0.61278 0.0
H166 H 0.95258 0.06071 0.58978 0.0
H167 H 0.98097 0.04538 0.62219 0.0
H168 H 0.08417 0.01364 0.59761 0.0
H169 H 0.06954 0.96612 0.57141 0.0
H170 H 0.12294 0.00364 0.59613 0.0
H171 H 0.10856 0.95694 0.57039 0.0
H172 H 0.07466 0.05305 0.62662 0.0
H173 H 0.05335 0.08592 0.59545 0.0
H174 H 0.97601 0.99702 0.54525 0.0
H175 H 0.04506 2e-05 0.53891 0.0
Li176 Li 0.28081 0.79737 0.84582 0.0
Li177 Li 0.26852 0.76124 0.84999 0.0
Li178 Li 0.26139 0.77817 0.83076 0.0
Li179 Li 0.24279 0.79092 0.84871 0.0
C180 C 0.30852 0.76795 0.83231 0.0
N181 N 0.3477 0.76319 0.821 0.0
C182 C 0.32484 0.75513 0.83716 0.0
C183 C 0.31212 0.77826 0.82168 0.0
C184 C 0.34454 0.75296 0.83132 0.0
C185 C 0.33203 0.77568 0.8161 0.0
C186 C 0.28061 0.78553 0.86921 0.0
C187 C 0.289 0.7887 0.8896 0.0
N188 N 0.30957 0.782 0.8874 0.0
C189 C 0.30183 0.77868 0.86716 0.0
C190 C 0.27412 0.79059 0.88051 0.0
C191 C 0.31623 0.777 0.87647 0.0
C192 C 0.29712 0.83459 0.85654 0.0
N193 N 0.30294 0.8184 0.84918 0.0
C194 C 0.33847 0.83334 0.84733 0.0
C195 C 0.32323 0.81746 0.84463 0.0
C196 C 0.33283 0.85048 0.85478 0.0
C197 C 0.31179 0.85094 0.85941 0.0
H198 H 0.28094 0.83489 0.86013 0.0
H199 H 0.32778 0.80442 0.83895 0.0
C200 C 0.28514 0.71936 0.85024 0.0
N201 N 0.27561 0.73446 0.85712 0.0
C202 C 0.29303 0.70019 0.85503 0.0
C203 C 0.28014 0.71196 0.87382 0.0
C204 C 0.27253 0.73096 0.86866 0.0
C205 C 0.29097 0.69646 0.86703 0.0
H206 H 0.28726 0.72258 0.84108 0.0
H207 H 0.26463 0.74311 0.87392 0.0
C208 C 0.26128 0.82961 0.83501 0.0
N209 N 0.27242 0.87284 0.83333 0.0
C210 C 0.2497 0.84522 0.84123 0.0
C211 C 0.27838 0.83603 0.82784 0.0
C212 C 0.25561 0.86699 0.84028 0.0
C213 C 0.28381 0.85795 0.82714 0.0
C214 C 0.22592 0.74892 0.84648 0.0
C215 C 0.2137 0.73419 0.84002 0.0
C216 C 0.22284 0.75037 0.85849 0.0
C217 C 0.19856 0.72111 0.84568 0.0
C218 C 0.20755 0.73702 0.86383 0.0
N219 N 0.19583 0.72278 0.85737 0.0
C220 C 0.25337 0.75212 0.8112 0.0
C221 C 0.25988 0.78909 0.80698 0.0
C222 C 0.25084 0.7475 0.79941 0.0
N223 N 0.25789 0.77262 0.81471 0.0
C224 C 0.25794 0.78514 0.7951 0.0
C225 C 0.25331 0.7641 0.79113 0.0
H226 H 0.25168 0.73938 0.81759 0.0
H227 H 0.26331 0.80526 0.81003 0.0
C228 C 0.21708 0.81399 0.86446 0.0
N229 N 0.21653 0.80221 0.85451 0.0
C230 C 0.19826 0.82364 0.86868 0.0
C231 C 0.17856 0.80839 0.85247 0.0
C232 C 0.19782 0.7991 0.84853 0.0
C233 C 0.17866 0.82106 0.86262 0.0
H234 H 0.23229 0.81636 0.86893 0.0
H235 H 0.19794 0.78963 0.84063 0.0
O236 O 0.28905 0.77007 0.83788 0.0
O237 O 0.26612 0.78723 0.86026 0.0
O238 O 0.25596 0.80817 0.83601 0.0
O239 O 0.24083 0.76177 0.84104 0.0
H240 H 0.32238 0.74698 0.84537 0.0
H241 H 0.29981 0.78835 0.81784 0.0
H242 H 0.35732 0.74313 0.83499 0.0
H243 H 0.33505 0.78365 0.8079 0.0
H244 H 0.28419 0.79254 0.89839 0.0
H245 H 0.30716 0.77473 0.8585 0.0
H246 H 0.25773 0.79584 0.88226 0.0
H247 H 0.3327 0.77172 0.87499 0.0
H248 H 0.35462 0.83197 0.84376 0.0
H249 H 0.30658 0.8639 0.86509 0.0
H250 H 0.30148 0.68886 0.84946 0.0
H251 H 0.27787 0.70961 0.88306 0.0
H252 H 0.23636 0.84061 0.84677 0.0
H253 H 0.28766 0.8242 0.82304 0.0
H254 H 0.24684 0.87922 0.84509 0.0
H255 H 0.29715 0.8631 0.82172 0.0
H256 H 0.2159 0.73288 0.83071 0.0
H257 H 0.23212 0.76169 0.86364 0.0
H258 H 0.18899 0.70963 0.84079 0.0
H259 H 0.205 0.73797 0.87311 0.0
H260 H 0.24682 0.73112 0.79685 0.0
H261 H 0.26041 0.79844 0.78913 0.0
H262 H 0.19923 0.83359 0.87641 0.0
H263 H 0.1638 0.80578 0.84759 0.0
Li264 Li 0.45286 0.02784 0.09647 0.0
Li265 Li 0.4906 0.01886 0.10093 0.0
Li266 Li 0.47442 0.00906 0.08232 0.0
Li267 Li 0.46418 0.99041 0.10017 0.0
C268 C 0.48797 0.04889 0.07953 0.0
N269 N 0.50611 0.06811 0.06017 0.0
C270 C 0.51042 0.05133 0.07872 0.0
C271 C 0.47474 0.05635 0.07053 0.0
C272 C 0.51927 0.06109 0.06886 0.0
C273 C 0.48423 0.06596 0.0608 0.0
C274 C 0.47144 0.0228 0.12133 0.0
C275 C 0.49258 0.01884 0.13881 0.0
N276 N 0.48672 0.03917 0.1421 0.0
C277 C 0.46552 0.0436 0.12491 0.0
C278 C 0.48496 0.01025 0.12836 0.0
C279 C 0.47345 0.05159 0.13543 0.0
C280 C 0.41341 0.04261 0.10584 0.0
N281 N 0.43061 0.04844 0.09919 0.0
C282 C 0.41688 0.08441 0.09734 0.0
C283 C 0.43263 0.06885 0.09493 0.0
C284 C 0.39882 0.0789 0.10418 0.0
C285 C 0.39714 0.05756 0.10835 0.0
H286 H 0.41244 0.02635 0.10929 0.0
H287 H 0.44672 0.07316 0.08987 0.0
C288 C 0.53419 0.01756 0.10909 0.0
N289 N 0.51591 0.0297 0.10823 0.0
C290 C 0.55291 0.0264 0.11401 0.0
C291 C 0.53342 0.05984 0.11717 0.0
C292 C 0.51524 0.0505 0.11205 0.0
C293 C 0.55261 0.0478 0.11812 0.0
H294 H 0.53434 0.00117 0.1058 0.0
H295 H 0.50062 0.05991 0.11097 0.0
C296 C 0.42344 0.00374 0.08614 0.0
N297 N 0.37931 0.00976 0.08384 0.0
C298 C 0.40901 0.99119 0.09264 0.0
C299 C 0.41541 0.01927 0.07843 0.0
C300 C 0.38676 0.99449 0.09135 0.0
C301 C 0.39305 0.02211 0.07741 0.0
C302 C 0.49934 0.97013 0.09299 0.0
C303 C 0.49819 0.95723 0.08303 0.0
C304 C 0.50642 0.96111 0.10345 0.0
C305 C 0.50397 0.9354 0.08375 0.0
C306 C 0.51202 0.93921 0.10382 0.0
N307 N 0.51068 0.92692 0.09404 0.0
C308 C 0.50081 0.00561 0.06245 0.0
C309 C 0.46315 0.00303 0.05874 0.0
C310 C 0.50538 0.00358 0.05063 0.0
N311 N 0.47997 0.00553 0.06622 0.0
C312 C 0.46696 0.00088 0.04686 0.0
C313 C 0.48831 0.00124 0.04266 0.0
H314 H 0.51387 0.00732 0.06864 0.0
H315 H 0.44676 0.00277 0.062 0.0
C316 C 0.44731 0.96402 0.11777 0.0
N317 N 0.45411 0.96397 0.10655 0.0
C318 C 0.43588 0.94639 0.1222 0.0
C319 C 0.43974 0.92846 0.10364 0.0
C320 C 0.4508 0.94661 0.0995 0.0
C321 C 0.43157 0.92857 0.11501 0.0
H322 H 0.44968 0.97825 0.12309 0.0
H323 H 0.45564 0.94734 0.09049 0.0
O324 O 0.47902 0.03894 0.08899 0.0
O325 O 0.46417 0.01482 0.11097 0.0
O326 O 0.44529 0.00095 0.08737 0.0
O327 O 0.49361 0.99148 0.09249 0.0
H328 H 0.52091 0.04556 0.08558 0.0
H329 H 0.45735 0.05448 0.07099 0.0
H330 H 0.53662 0.06299 0.06809 0.0
H331 H 0.47419 0.07166 0.05373 0.0
H332 H 0.50316 0.00936 0.1443 0.0
H333 H 0.45511 0.05355 0.11957 0.0
H334 H 0.48965 0.99411 0.12572 0.0
H335 H 0.46911 0.0677 0.13828 0.0
H336 H 0.41919 0.10073 0.09415 0.0
H337 H 0.38345 0.05243 0.11353 0.0
H338 H 0.56744 0.01664 0.11459 0.0
H339 H 0.53266 0.07652 0.12003 0.0
H340 H 0.41488 0.97913 0.09867 0.0
H341 H 0.42633 0.02926 0.0734 0.0
H342 H 0.37542 0.98494 0.09636 0.0
H343 H 0.38663 0.03417 0.07154 0.0
H344 H 0.49271 0.96394 0.07487 0.0
H345 H 0.50741 0.97089 0.11123 0.0
H346 H 0.50307 0.9252 0.07613 0.0
H347 H 0.51741 0.93199 0.11187 0.0
H348 H 0.52209 0.00361 0.04779 0.0
H349 H 0.45333 0.99929 0.04101 0.0
H350 H 0.42969 0.94703 0.131 0.0
H351 H 0.43634 0.91516 0.09779 0.0
Li352 Li 0.25511 0.78756 0.14982 0.0
Li353 Li 0.2356 0.77627 0.16721 0.0
Li354 Li 0.227 0.76085 0.14825 0.0
Li355 Li 0.21733 0.7983 0.15306 0.0
C356 C 0.27532 0.75209 0.15663 0.0
N357 N 0.3186 0.74096 0.1557 0.0
C358 C 0.28808 0.75313 0.16664 0.0
C359 C 0.28452 0.74524 0.14617 0.0
C360 C 0.30994 0.74745 0.16599 0.0
C361 C 0.30645 0.73974 0.14587 0.0
C362 C 0.24065 0.82759 0.16409 0.0
C363 C 0.22125 0.85761 0.17253 0.0
N364 N 0.23438 0.87161 0.16675 0.0
C365 C 0.25399 0.84228 0.15825 0.0
C366 C 0.22419 0.8353 0.17132 0.0
C367 C 0.25056 0.86448 0.15971 0.0
C368 C 0.28217 0.80516 0.13275 0.0
N369 N 0.28178 0.79805 0.14391 0.0
C370 C 0.31729 0.81207 0.14728 0.0
C371 C 0.2989 0.80108 0.15116 0.0
C372 C 0.31768 0.82046 0.13596 0.0
C373 C 0.30005 0.81652 0.12857 0.0
H374 H 0.26814 0.803 0.12726 0.0
H375 H 0.29783 0.796 0.16012 0.0
C376 C 0.24039 0.74889 0.18665 0.0
N377 N 0.2382 0.76986 0.18328 0.0
C378 C 0.24216 0.7437 0.19841 0.0
C379 C 0.23938 0.7818 0.20298 0.0
C380 C 0.23775 0.78624 0.19114 0.0
C381 C 0.24169 0.76029 0.20677 0.0
H382 H 0.24082 0.73621 0.18017 0.0
H383 H 0.2361 0.80276 0.18822 0.0
C384 C 0.22401 0.78097 0.12804 0.0
N385 N 0.20908 0.76668 0.10676 0.0
C386 C 0.20344 0.78701 0.12415 0.0
C387 C 0.23707 0.76785 0.12106 0.0
C388 C 0.19617 0.77958 0.11337 0.0
C389 C 0.2292 0.76073 0.11035 0.0
C390 C 0.19609 0.76215 0.16927 0.0
C391 C 0.19504 0.7396 0.17007 0.0
C392 C 0.18722 0.77492 0.17809 0.0
C393 C 0.1852 0.73017 0.17976 0.0
C394 C 0.17757 0.76487 0.18764 0.0
N395 N 0.17677 0.74289 0.18828 0.0
C396 C 0.22854 0.71749 0.13967 0.0
C397 C 0.19595 0.73686 0.13641 0.0
C398 C 0.21972 0.69897 0.13453 0.0
N399 N 0.21656 0.73588 0.1405 0.0
C400 C 0.18664 0.7189 0.13107 0.0
C401 C 0.19848 0.69959 0.13017 0.0
H402 H 0.24476 0.71707 0.14319 0.0
H403 H 0.18663 0.75153 0.13749 0.0
C404 C 0.20234 0.83827 0.14424 0.0
N405 N 0.19641 0.82018 0.15017 0.0
C406 C 0.18694 0.85392 0.14137 0.0
C407 C 0.15952 0.83171 0.15048 0.0
C408 C 0.17552 0.81667 0.15335 0.0
C409 C 0.16518 0.85054 0.14437 0.0
H410 H 0.21897 0.84032 0.14152 0.0
H411 H 0.17119 0.80194 0.15784 0.0
O412 O 0.25394 0.75773 0.15707 0.0
O413 O 0.24363 0.80579 0.1627 0.0
O414 O 0.23129 0.78777 0.13865 0.0
O415 O 0.2062 0.77168 0.16002 0.0
H416 H 0.28124 0.75849 0.1748 0.0
H417 H 0.27487 0.74432 0.13835 0.0
H418 H 0.32003 0.74828 0.17365 0.0
H419 H 0.31382 0.73452 0.13782 0.0
H420 H 0.20846 0.86379 0.17803 0.0
H421 H 0.26679 0.83667 0.15261 0.0
H422 H 0.21353 0.82418 0.17579 0.0
H423 H 0.26072 0.87602 0.15522 0.0
H424 H 0.33044 0.81517 0.15328 0.0
H425 H 0.29979 0.82287 0.1198 0.0
H426 H 0.24422 0.72692 0.2009 0.0
H427 H 0.23862 0.79509 0.2091 0.0
H428 H 0.1931 0.79713 0.12944 0.0
H429 H 0.25305 0.7631 0.12393 0.0
H430 H 0.18024 0.78401 0.11028 0.0
H431 H 0.23908 0.75046 0.10489 0.0
H432 H 0.20195 0.72947 0.16336 0.0
H433 H 0.18804 0.79239 0.17763 0.0
H434 H 0.18436 0.71274 0.18053 0.0
H435 H 0.17077 0.77454 0.19457 0.0
H436 H 0.22931 0.68432 0.13402 0.0
H437 H 0.17007 0.71989 0.12802 0.0
H438 H 0.19183 0.86808 0.13649 0.0
H439 H 0.14287 0.82857 0.15291 0.0
Li440 Li 0.47212 0.98446 0.41699 0.0
Li441 Li 0.45996 0.00415 0.39983 0.0
Li442 Li 0.44889 0.96661 0.40328 0.0
Li443 Li 0.48605 0.9756 0.39774 0.0
C444 C 0.42061 0.99017 0.41461 0.0
N445 N 0.3766 0.98413 0.41751 0.0
C446 C 0.40587 0.00362 0.40888 0.0
C447 C 0.41293 0.97369 0.42185 0.0
C448 C 0.38369 0.0003 0.41046 0.0
C449 C 0.39063 0.97087 0.42318 0.0
C450 C 0.49604 0.02387 0.40582 0.0
C451 C 0.50797 0.05471 0.39468 0.0
N452 N 0.50744 0.06704 0.40447 0.0
C453 C 0.49568 0.03682 0.41577 0.0
C454 C 0.50232 0.03283 0.39519 0.0
C455 C 0.50148 0.05862 0.41491 0.0
C456 C 0.50088 0.98991 0.4358 0.0
N457 N 0.4798 0.98652 0.43294 0.0
C458 C 0.46995 0.98399 0.45294 0.0
C459 C 0.46435 0.98377 0.44121 0.0
C460 C 0.49159 0.9874 0.45617 0.0
C461 C 0.50716 0.99057 0.44745 0.0
H462 H 0.51283 0.99192 0.42902 0.0
H463 H 0.44773 0.9812 0.43869 0.0
C464 C 0.44173 0.03117 0.38296 0.0
N465 N 0.44943 0.03093 0.39401 0.0
C466 C 0.43028 0.04904 0.37886 0.0
C467 C 0.4358 0.0666 0.39739 0.0
C468 C 0.4469 0.04822 0.40121 0.0
C469 C 0.42681 0.06683 0.3862 0.0
H470 H 0.44348 0.01702 0.37752 0.0
H471 H 0.45246 0.04729 0.41009 0.0
C472 C 0.4861 0.9449 0.41872 0.0
N473 N 0.50713 0.92573 0.43723 0.0
C474 C 0.50871 0.94418 0.41901 0.0
C475 C 0.47418 0.93581 0.42781 0.0
C476 C 0.51904 0.93441 0.42845 0.0
C477 C 0.48512 0.92623 0.43711 0.0
C478 C 0.46474 0.97285 0.37798 0.0
C479 C 0.45852 0.95218 0.37434 0.0
C480 C 0.47741 0.98577 0.37069 0.0
C481 C 0.46527 0.94469 0.36348 0.0
C482 C 0.48386 0.97768 0.3599 0.0
N483 N 0.47772 0.95747 0.35655 0.0
C484 C 0.40899 0.95244 0.39434 0.0
C485 C 0.42847 0.92565 0.40473 0.0
C486 C 0.39265 0.93762 0.39174 0.0
N487 N 0.42638 0.94624 0.40075 0.0
C488 C 0.41258 0.91025 0.40228 0.0
C489 C 0.39441 0.91612 0.39562 0.0
H490 H 0.40796 0.96886 0.39112 0.0
H491 H 0.44273 0.92104 0.40957 0.0
C492 C 0.52843 0.97618 0.38765 0.0
N493 N 0.51011 0.96447 0.38946 0.0
C494 C 0.54624 0.96667 0.38215 0.0
C495 C 0.52573 0.93348 0.38035 0.0
C496 C 0.50849 0.94352 0.38598 0.0
C497 C 0.545 0.945 0.37848 0.0
H498 H 0.52937 0.99272 0.39068 0.0
H499 H 0.49389 0.93448 0.3878 0.0
O500 O 0.4424 0.993 0.41308 0.0
O501 O 0.49029 0.00253 0.40647 0.0
O502 O 0.47569 0.95498 0.40974 0.0
O503 O 0.45864 0.98035 0.38867 0.0
H504 H 0.41143 0.01642 0.40322 0.0
H505 H 0.42406 0.96286 0.42619 0.0
H506 H 0.37211 0.01056 0.40605 0.0
H507 H 0.38449 0.95807 0.42868 0.0
H508 H 0.51276 0.06189 0.38651 0.0
H509 H 0.49073 0.03019 0.42405 0.0
H510 H 0.50268 0.02304 0.38741 0.0
H511 H 0.50118 0.06886 0.42253 0.0
H512 H 0.45744 0.98175 0.45943 0.0
H513 H 0.52403 0.99313 0.44962 0.0
H514 H 0.42352 0.04866 0.37018 0.0
H515 H 0.43311 0.07989 0.40336 0.0
H516 H 0.5182 0.95132 0.41211 0.0
H517 H 0.45668 0.93648 0.4278 0.0
H518 H 0.53652 0.93382 0.42882 0.0
H519 H 0.47611 0.91928 0.44425 0.0
H520 H 0.44879 0.94193 0.37988 0.0
H521 H 0.48233 0.00181 0.37337 0.0
H522 H 0.46068 0.92868 0.36057 0.0
H523 H 0.49377 0.98745 0.3542 0.0
H524 H 0.37886 0.94293 0.38668 0.0
H525 H 0.41486 0.89378 0.40526 0.0
H526 H 0.56085 0.97607 0.38087 0.0
H527 H 0.52427 0.91663 0.37787 0.0
Li528 Li 0.2397 0.21111 0.64962 0.0
Li529 Li 0.26025 0.2197 0.66716 0.0
Li530 Li 0.2683 0.23915 0.64837 0.0
Li531 Li 0.27873 0.20125 0.65146 0.0
C532 C 0.22353 0.25208 0.65717 0.0
N533 N 0.18736 0.27824 0.65574 0.0
C534 C 0.20896 0.25313 0.66644 0.0
C535 C 0.21994 0.26466 0.64727 0.0
C536 C 0.1907 0.26636 0.66552 0.0
C537 C 0.20149 0.27769 0.64669 0.0
C538 C 0.24802 0.17811 0.66984 0.0
C539 C 0.25736 0.1595 0.68756 0.0
N540 N 0.23636 0.15333 0.68882 0.0
C541 C 0.22655 0.17146 0.67126 0.0
C542 C 0.2636 0.17196 0.678 0.0
C543 C 0.22097 0.15897 0.68093 0.0
C544 C 0.21407 0.18642 0.63495 0.0
N545 N 0.21276 0.20064 0.64393 0.0
C546 C 0.17442 0.19578 0.64502 0.0
C547 C 0.19347 0.20548 0.64899 0.0
C548 C 0.17533 0.18098 0.63576 0.0
C549 C 0.19547 0.17651 0.63065 0.0
H550 H 0.2297 0.18244 0.6313 0.0
H551 H 0.1929 0.21628 0.65634 0.0
C552 C 0.27463 0.23436 0.68895 0.0
N553 N 0.2582 0.22383 0.68349 0.0
C554 C 0.27365 0.2382 0.70088 0.0
C555 C 0.23891 0.22016 0.70137 0.0
C556 C 0.24038 0.21705 0.68939 0.0
C557 C 0.25567 0.23092 0.70723 0.0
H558 H 0.28842 0.23996 0.684 0.0
H559 H 0.22721 0.20937 0.6848 0.0
C560 C 0.25965 0.21974 0.62656 0.0
N561 N 0.25188 0.23085 0.60367 0.0
C562 C 0.27558 0.21641 0.61812 0.0
C563 C 0.2397 0.2286 0.62332 0.0
C564 C 0.27137 0.22218 0.60661 0.0
C565 C 0.2361 0.23412 0.61171 0.0
C566 C 0.31036 0.22369 0.66119 0.0
C567 C 0.32464 0.23282 0.65314 0.0
C568 C 0.31846 0.21084 0.67019 0.0
C569 C 0.3468 0.22876 0.65418 0.0
C570 C 0.34073 0.20715 0.67092 0.0
N571 N 0.35432 0.21609 0.66296 0.0
C572 C 0.28981 0.2781 0.65025 0.0
C573 C 0.27618 0.27284 0.63122 0.0
C574 C 0.30079 0.2967 0.64674 0.0
N575 N 0.27833 0.26624 0.64244 0.0
C576 C 0.28672 0.29151 0.62736 0.0
C577 C 0.29971 0.30332 0.6351 0.0
H578 H 0.29117 0.27256 0.65913 0.0
H579 H 0.26691 0.26339 0.62515 0.0
C580 C 0.29929 0.16001 0.65215 0.0
N581 N 0.29996 0.1802 0.64746 0.0
C582 C 0.31464 0.14449 0.64894 0.0
C583 C 0.331 0.17086 0.63615 0.0
C584 C 0.31535 0.18581 0.63959 0.0
C585 C 0.33071 0.14982 0.64079 0.0
H586 H 0.28668 0.15583 0.65824 0.0
H587 H 0.31545 0.20193 0.63595 0.0
O588 O 0.24159 0.23936 0.65798 0.0
O589 O 0.25375 0.19049 0.66048 0.0
O590 O 0.26346 0.21391 0.63785 0.0
O591 O 0.28857 0.22724 0.66024 0.0
H592 H 0.21164 0.24369 0.67423 0.0
H593 H 0.23133 0.26448 0.64015 0.0
H594 H 0.17919 0.26719 0.67259 0.0
H595 H 0.19846 0.28743 0.63905 0.0
H596 H 0.26923 0.15474 0.69399 0.0
H597 H 0.21432 0.17594 0.66499 0.0
H598 H 0.28029 0.17687 0.67701 0.0
H599 H 0.2044 0.15379 0.68216 0.0
H600 H 0.15921 0.1996 0.64922 0.0
H601 H 0.19698 0.16484 0.62367 0.0
H602 H 0.28685 0.2466 0.70513 0.0
H603 H 0.22464 0.21465 0.70597 0.0
H604 H 0.29103 0.20943 0.62042 0.0
H605 H 0.22713 0.23127 0.62967 0.0
H606 H 0.28358 0.21974 0.6 0.0
H607 H 0.22076 0.24103 0.6091 0.0
H608 H 0.31866 0.24264 0.64606 0.0
H609 H 0.30767 0.2038 0.67654 0.0
H610 H 0.35802 0.23559 0.64796 0.0
H611 H 0.3472 0.19717 0.67781 0.0
H612 H 0.31044 0.30554 0.65301 0.0
H613 H 0.28555 0.29605 0.61829 0.0
H614 H 0.31362 0.12838 0.65261 0.0
H615 H 0.34325 0.1758 0.62997 0.0
Li616 Li 0.03894 0.99262 0.89996 0.0
Li617 Li 0.02845 0.01266 0.91731 0.0
Li618 Li 0.01528 0.02314 0.89806 0.0
Li619 Li 0.05305 0.02908 0.90368 0.0
C620 C 0.00147 0.97572 0.90621 0.0
N621 N 0.98678 0.93353 0.90525 0.0
C622 C 0.00094 0.96308 0.91628 0.0
C623 C 0.99435 0.967 0.89569 0.0
C624 C 0.99349 0.94176 0.9156 0.0
C625 C 0.98704 0.9456 0.89537 0.0
C626 C 0.07915 0.0031 0.91505 0.0
C627 C 0.10995 0.01857 0.9249 0.0
N628 N 0.12333 0.0057 0.91855 0.0
C629 C 0.0932 0.98998 0.90864 0.0
C630 C 0.08756 0.01745 0.92328 0.0
C631 C 0.11549 0.99155 0.91053 0.0
C632 C 0.05338 0.96268 0.88314 0.0
N633 N 0.04707 0.96492 0.89438 0.0
C634 C 0.05812 0.92877 0.8987 0.0
C635 C 0.04902 0.94843 0.90212 0.0
C636 C 0.06576 0.92624 0.88728 0.0
C637 C 0.0628 0.94338 0.87938 0.0
H638 H 0.05212 0.97625 0.87726 0.0
H639 H 0.04439 0.95088 0.91107 0.0
C640 C 0.00037 0.01427 0.93667 0.0
N641 N 0.02099 0.01004 0.93323 0.0
C642 C 0.99474 0.0129 0.94838 0.0
C643 C 0.03145 0.00191 0.95271 0.0
C644 C 0.03643 0.00377 0.94093 0.0
C645 C 0.01041 0.00664 0.95655 0.0
H646 H 0.98832 0.01877 0.9303 0.0
H647 H 0.0526 0.00019 0.93793 0.0
C648 C 0.03691 0.02442 0.87823 0.0
N649 N 0.02551 0.04077 0.85675 0.0
C650 C 0.04551 0.04411 0.87442 0.0
C651 C 0.02267 0.01295 0.87108 0.0
C652 C 0.03952 0.05212 0.86354 0.0
C653 C 0.01705 0.02152 0.86027 0.0
C654 C 0.01838 0.054 0.91923 0.0
C655 C 0.99651 0.05977 0.91902 0.0
C656 C 0.03121 0.0599 0.92872 0.0
C657 C 0.98778 0.07125 0.92837 0.0
C658 C 0.02185 0.07132 0.93792 0.0
N659 N 0.00052 0.07671 0.93755 0.0
C660 C 0.97214 0.02645 0.88943 0.0
C661 C 0.99512 0.05649 0.88597 0.0
C662 C 0.95455 0.03753 0.88462 0.0
N663 N 0.99184 0.03617 0.89009 0.0
C664 C 0.97814 0.06801 0.88096 0.0
C665 C 0.95735 0.05877 0.88047 0.0
H666 H 0.96992 0.0104 0.893 0.0
H667 H 0.01085 0.06398 0.88685 0.0
C668 C 0.09454 0.04153 0.89552 0.0
N669 N 0.07693 0.0481 0.90166 0.0
C670 C 0.11155 0.05589 0.8934 0.0
C671 C 0.09183 0.08354 0.90383 0.0
C672 C 0.07531 0.0686 0.90583 0.0
C673 C 0.11023 0.07733 0.89746 0.0
H674 H 0.09519 0.02524 0.89211 0.0
H675 H 0.06091 0.07356 0.91044 0.0
O676 O 0.00893 0.99653 0.90666 0.0
O677 O 0.0573 0.00203 0.91322 0.0
O678 O 0.04235 0.01644 0.88891 0.0
O679 O 0.02717 0.04247 0.91025 0.0
H680 H 0.0064 0.96958 0.92449 0.0
H681 H 0.99459 0.97661 0.88784 0.0
H682 H 0.99309 0.93174 0.92331 0.0
H683 H 0.98159 0.93859 0.88727 0.0
H684 H 0.11668 0.02969 0.93119 0.0
H685 H 0.08702 0.97885 0.9022 0.0
H686 H 0.07693 0.02778 0.92828 0.0
H687 H 0.12656 0.98156 0.90561 0.0
H688 H 0.0598 0.91597 0.90506 0.0
H689 H 0.06878 0.9424 0.87056 0.0
H690 H 0.97827 0.01639 0.95101 0.0
H691 H 0.04399 0.99711 0.95876 0.0
H692 H 0.05653 0.05322 0.87985 0.0
H693 H 0.01591 0.99767 0.8739 0.0
H694 H 0.04595 0.06739 0.8605 0.0
H695 H 0.00595 0.01288 0.85467 0.0
H696 H 0.98631 0.05528 0.91178 0.0
H697 H 0.04814 0.05549 0.92905 0.0
H698 H 0.97085 0.07574 0.92835 0.0
H699 H 0.03155 0.07586 0.94535 0.0
H700 H 0.9388 0.02984 0.88458 0.0
H701 H 0.98123 0.08415 0.8777 0.0
H702 H 0.12546 0.0503 0.88853 0.0
H703 H 0.0898 0.09998 0.9069 0.0
Li704 Li 0.74003 0.78846 0.6495 0.0
Li705 Li 0.77672 0.80327 0.65118 0.0
Li706 Li 0.7704 0.76516 0.64653 0.0
Li707 Li 0.76301 0.77929 0.66605 0.0
C708 C 0.76849 0.78541 0.62642 0.0
N709 N 0.78233 0.77248 0.60469 0.0
C710 C 0.78767 0.79375 0.62178 0.0
C711 C 0.75625 0.77065 0.61998 0.0
C712 C 0.79441 0.78698 0.61078 0.0
C713 C 0.76356 0.76426 0.60902 0.0
C714 C 0.75244 0.82953 0.66356 0.0
C715 C 0.76839 0.86063 0.67289 0.0
N716 N 0.75509 0.8738 0.66667 0.0
C717 C 0.73888 0.84336 0.65728 0.0
C718 C 0.76726 0.8382 0.67147 0.0
C719 C 0.74048 0.8657 0.65898 0.0
C720 C 0.69702 0.79929 0.65424 0.0
N721 N 0.71126 0.79596 0.64543 0.0
C722 C 0.6858 0.80932 0.63157 0.0
C723 C 0.70597 0.80037 0.63423 0.0
C724 C 0.67105 0.81383 0.64056 0.0
C725 C 0.67665 0.80805 0.65198 0.0
H726 H 0.70187 0.79604 0.66309 0.0
H727 H 0.7178 0.79796 0.62743 0.0
C728 C 0.81562 0.82694 0.65194 0.0
N729 N 0.79483 0.8275 0.64812 0.0
C730 C 0.82965 0.84404 0.64955 0.0
C731 C 0.80061 0.86207 0.63932 0.0
C732 C 0.78715 0.84452 0.64187 0.0
C733 C 0.82225 0.86193 0.64313 0.0
H734 H 0.82147 0.813 0.65664 0.0
H735 H 0.77063 0.84435 0.63877 0.0
C736 C 0.72463 0.75159 0.65722 0.0
N737 N 0.68236 0.73724 0.65854 0.0
C738 C 0.71378 0.75157 0.66787 0.0
C739 C 0.71408 0.74413 0.64726 0.0
C740 C 0.69239 0.74428 0.66835 0.0
C741 C 0.69267 0.737 0.6481 0.0
C742 C 0.80514 0.77008 0.66592 0.0
C743 C 0.81233 0.74864 0.66542 0.0
C744 C 0.81194 0.78344 0.67502 0.0
C745 C 0.82612 0.74088 0.67409 0.0
C746 C 0.8257 0.77505 0.68354 0.0
N747 N 0.83245 0.75412 0.6829 0.0
C748 C 0.80186 0.7438 0.63333 0.0
C749 C 0.7719 0.72175 0.63845 0.0
C750 C 0.81221 0.72625 0.62813 0.0
N751 N 0.78213 0.74123 0.63837 0.0
C752 C 0.7818 0.70367 0.63344 0.0
C753 C 0.80232 0.70579 0.62831 0.0
H754 H 0.80985 0.75935 0.6337 0.0
H755 H 0.75637 0.72012 0.64268 0.0
C756 C 0.75437 0.78826 0.68948 0.0
N757 N 0.76276 0.77316 0.6822 0.0
C758 C 0.75359 0.78442 0.70141 0.0
C759 C 0.77019 0.74952 0.69812 0.0
C760 C 0.77023 0.75388 0.68623 0.0
C761 C 0.76174 0.76489 0.70593 0.0
H762 H 0.74799 0.80322 0.68601 0.0
H763 H 0.77629 0.74191 0.68021 0.0
O764 O 0.76178 0.7916 0.63724 0.0
O765 O 0.75139 0.80764 0.66189 0.0
O766 O 0.74546 0.75896 0.65654 0.0
O767 O 0.79152 0.77796 0.65756 0.0
H768 H 0.79735 0.80516 0.62666 0.0
H769 H 0.74138 0.76406 0.62345 0.0
H770 H 0.80927 0.7932 0.6071 0.0
H771 H 0.75433 0.75274 0.60396 0.0
H772 H 0.77987 0.86756 0.67894 0.0
H773 H 0.7274 0.83696 0.65108 0.0
H774 H 0.77788 0.82771 0.67638 0.0
H775 H 0.73015 0.8766 0.65414 0.0
H776 H 0.68236 0.81383 0.62267 0.0
H777 H 0.66573 0.81101 0.65916 0.0
H778 H 0.84631 0.84294 0.65242 0.0
H779 H 0.79416 0.87553 0.6344 0.0
H780 H 0.72172 0.75729 0.67567 0.0
H781 H 0.72227 0.74404 0.63896 0.0
H782 H 0.68375 0.74427 0.67652 0.0
H783 H 0.68425 0.73131 0.64045 0.0
H784 H 0.80718 0.73803 0.65848 0.0
H785 H 0.80646 0.80004 0.67557 0.0
H786 H 0.83174 0.7243 0.67384 0.0
H787 H 0.83098 0.78517 0.69066 0.0
H788 H 0.82819 0.72849 0.62445 0.0
H789 H 0.77365 0.68815 0.63374 0.0
H790 H 0.74633 0.79653 0.70697 0.0
H791 H 0.77686 0.73432 0.70113 0.0
Li792 Li 0.98822 0.02008 0.3943 0.0
Li793 Li 0.9726 0.01235 0.41415 0.0
Li794 Li 0.96342 0.99046 0.39739 0.0
Li795 Li 0.9492 0.02652 0.39864 0.0
C796 C 0.00123 0.97468 0.40288 0.0
N797 N 0.01695 0.93342 0.39917 0.0
C798 C 0.00126 0.95959 0.41191 0.0
C799 C 0.00931 0.96888 0.39198 0.0
C800 C 0.00925 0.93878 0.40986 0.0
C801 C 0.01716 0.94791 0.39027 0.0
C802 C 0.97901 0.05897 0.4114 0.0
C803 C 0.96733 0.08897 0.42326 0.0
N804 N 0.98787 0.09691 0.42321 0.0
C805 C -3e-05 0.06751 0.41139 0.0
C806 C 0.96251 0.06986 0.41732 0.0
C807 C 0.00413 0.08667 0.41744 0.0
C808 C 0.00977 0.04546 0.37771 0.0
N809 N 0.01264 0.03162 0.38675 0.0
C810 C 0.05067 0.03836 0.38687 0.0
C811 C 0.03257 0.02757 0.39123 0.0
C812 C 0.04815 0.05339 0.37781 0.0
C813 C 0.02746 0.05652 0.37303 0.0
H814 H 0.99363 0.04853 0.37446 0.0
H815 H 0.03425 0.01659 0.3985 0.0
C816 C 0.96942 0.99483 0.43636 0.0
N817 N 0.97793 0.01178 0.43039 0.0
C818 C 0.97236 0.99322 0.44835 0.0
C819 C 0.99285 0.02654 0.44781 0.0
C820 C 0.98967 0.02738 0.43582 0.0
C821 C 0.98414 0.00928 0.45426 0.0
H822 H 0.96035 0.98251 0.43178 0.0
H823 H 0.9966 0.0405 0.43089 0.0
C824 C 0.94672 0.00839 0.37663 0.0
N825 N 0.91458 0.00073 0.36045 0.0
C826 C 0.92711 0.99909 0.38006 0.0
C827 C 0.94998 0.01383 0.36498 0.0
C828 C 0.91107 0.99533 0.37175 0.0
C829 C 0.93354 0.00982 0.35693 0.0
C830 C 0.92571 0.00389 0.41591 0.0
C831 C 0.90837 0.98969 0.41422 0.0
C832 C 0.9243 0.01995 0.42442 0.0
C833 C 0.88974 0.99202 0.42098 0.0
C834 C 0.9054 0.02174 0.43101 0.0
N835 N 0.88864 0.00787 0.42916 0.0
C836 C 0.95023 0.94896 0.40277 0.0
C837 C 0.95518 0.95383 0.38253 0.0
C838 C 0.94169 0.92837 0.40098 0.0
N839 N 0.95621 0.9614 0.3936 0.0
C840 C 0.94628 0.93343 0.3803 0.0
C841 C 0.93872 0.92068 0.38959 0.0
H842 H 0.95141 0.9554 0.41148 0.0
H843 H 0.96026 0.964 0.37539 0.0
C844 C 0.93206 0.06651 0.39248 0.0
N845 N 0.9261 0.04606 0.39542 0.0
C846 C 0.91641 0.08221 0.39023 0.0
C847 C 0.88867 0.05532 0.39359 0.0
C848 C 0.9049 0.04017 0.39592 0.0
C849 C 0.89438 0.07671 0.39081 0.0
H850 H 0.94904 0.07064 0.39193 0.0
H851 H 0.90052 0.02374 0.39809 0.0
O852 O 0.99298 0.99494 0.40462 0.0
O853 O 0.97467 0.04025 0.4055 0.0
O854 O 0.96266 0.01239 0.3846 0.0
O855 O 0.94401 0.00181 0.40932 0.0
H856 H 0.995 0.96386 0.42039 0.0
H857 H 0.00929 0.98041 0.38489 0.0
H858 H 0.00928 0.92688 0.41675 0.0
H859 H 0.02336 0.94314 0.38186 0.0
H860 H 0.95472 0.09754 0.42788 0.0
H861 H 0.01292 0.05936 0.40683 0.0
H862 H 0.94611 0.06375 0.41724 0.0
H863 H 0.0203 0.0934 0.41755 0.0
H864 H 0.06638 0.03537 0.39073 0.0
H865 H 0.0248 0.06815 0.36614 0.0
H866 H 0.9657 0.97939 0.45289 0.0
H867 H 0.00184 0.03943 0.45197 0.0
H868 H 0.92432 0.99472 0.38902 0.0
H869 H 0.96507 0.02108 0.3622 0.0
H870 H 0.89583 0.98812 0.37429 0.0
H871 H 0.93584 0.01394 0.34788 0.0
H872 H 0.90927 0.97708 0.40771 0.0
H873 H 0.93769 0.0308 0.42597 0.0
H874 H 0.87615 0.98122 0.41973 0.0
H875 H 0.90408 0.03412 0.43761 0.0
H876 H 0.9367 0.91894 0.40844 0.0
H877 H 0.94425 0.92833 0.37137 0.0
H878 H 0.92149 0.09842 0.3879 0.0
H879 H 0.87185 0.05046 0.39412 0.0
Li880 Li 0.72979 0.23714 0.14601 0.0
Li881 Li 0.73714 0.22317 0.1656 0.0
Li882 Li 0.75955 0.21306 0.14895 0.0
Li883 Li 0.72243 0.19928 0.15091 0.0
C884 C 0.77598 0.24992 0.15642 0.0
N885 N 0.81843 0.26379 0.15746 0.0
C886 C 0.78685 0.25043 0.16706 0.0
C887 C 0.7866 0.25666 0.14633 0.0
C888 C 0.80834 0.25746 0.1674 0.0
C889 C 0.8081 0.26355 0.14703 0.0
C890 C 0.69514 0.23348 0.16556 0.0
C891 C 0.67445 0.2292 0.18318 0.0
N892 N 0.6682 0.25028 0.18247 0.0
C893 C 0.68846 0.25507 0.16498 0.0
C894 C 0.68801 0.22039 0.1747 0.0
C895 C 0.67485 0.26326 0.17362 0.0
C896 C 0.69878 0.2591 0.13279 0.0
N897 N 0.71866 0.26121 0.13772 0.0
C898 C 0.72025 0.29848 0.13226 0.0
C899 C 0.72956 0.28032 0.13749 0.0
C900 C 0.69963 0.29682 0.12719 0.0
C901 C 0.689 0.27673 0.12736 0.0
H902 H 0.69027 0.24384 0.13339 0.0
H903 H 0.74521 0.28159 0.14164 0.0
C904 C 0.74639 0.21415 0.18892 0.0
N905 N 0.73784 0.22935 0.18174 0.0
C906 C 0.7473 0.21778 0.20087 0.0
C907 C 0.73058 0.25269 0.19782 0.0
C908 C 0.73043 0.24856 0.1859 0.0
C909 C 0.7391 0.23718 0.20552 0.0
H910 H 0.75272 0.19926 0.18536 0.0
H911 H 0.72426 0.26062 0.17997 0.0
C912 C 0.73072 0.21634 0.126 0.0
N913 N 0.71684 0.22909 0.10425 0.0
C914 C 0.71119 0.2085 0.12155 0.0
C915 C 0.7433 0.23049 0.11936 0.0
C916 C 0.70444 0.21518 0.11054 0.0
C917 C 0.73597 0.23681 0.1084 0.0
C918 C 0.74643 0.17262 0.16337 0.0
C919 C 0.75976 0.15835 0.15725 0.0
C920 C 0.73149 0.1645 0.17138 0.0
C921 C 0.7578 0.1361 0.15919 0.0
C922 C 0.73 0.14216 0.17306 0.0
N923 N 0.74307 0.12854 0.16698 0.0
C924 C 0.80273 0.20224 0.15341 0.0
C925 C 0.79272 0.19937 0.1336 0.0
C926 C 0.82302 0.19339 0.15106 0.0
N927 N 0.78804 0.20482 0.14475 0.0
C928 C 0.81275 0.19019 0.13087 0.0
C929 C 0.82805 0.1866 0.13972 0.0
H930 H 0.79836 0.20628 0.16224 0.0
H931 H 0.78053 0.20119 0.12693 0.0
C932 C 0.68253 0.17762 0.15172 0.0
N933 N 0.70339 0.17562 0.14816 0.0
C934 C 0.66771 0.16104 0.14966 0.0
C935 C 0.69606 0.14059 0.14024 0.0
C936 C 0.71034 0.15767 0.14243 0.0
C937 C 0.67437 0.14218 0.14385 0.0
H938 H 0.67726 0.19227 0.15596 0.0
H939 H 0.72693 0.1567 0.13948 0.0
O940 O 0.75504 0.24283 0.15588 0.0
O941 O 0.70856 0.22518 0.15722 0.0
O942 O 0.73746 0.21025 0.13683 0.0
O943 O 0.74787 0.19443 0.16149 0.0
H944 H 0.77885 0.2453 0.17495 0.0
H945 H 0.77838 0.25637 0.13803 0.0
H946 H 0.81701 0.25784 0.17556 0.0
H947 H 0.81657 0.26867 0.13928 0.0
H948 H 0.66892 0.2193 0.19034 0.0
H949 H 0.69386 0.26547 0.158 0.0
H950 H 0.69308 0.20367 0.1753 0.0
H951 H 0.66962 0.27997 0.17331 0.0
H952 H 0.72896 0.3137 0.13229 0.0
H953 H 0.67291 0.27488 0.12375 0.0
H954 H 0.75464 0.20557 0.20634 0.0
H955 H 0.72387 0.2678 0.20093 0.0
H956 H 0.70125 0.19754 0.12658 0.0
H957 H 0.75847 0.23668 0.12269 0.0
H958 H 0.6893 0.20934 0.107 0.0
H959 H 0.74546 0.24787 0.10319 0.0
H960 H 0.77135 0.16433 0.15098 0.0
H961 H 0.72107 0.17535 0.17619 0.0
H962 H 0.76795 0.12485 0.15448 0.0
H963 H 0.71843 0.13564 0.17918 0.0
H964 H 0.83436 0.19122 0.15814 0.0
H965 H 0.81569 0.18489 0.12205 0.0
H966 H 0.65105 0.16329 0.15234 0.0
H967 H 0.70195 0.12634 0.13577 0.0
Li968 Li 0.51348 0.97872 0.89791 0.0
Li969 Li 0.5292 0.98579 0.91703 0.0
Li970 Li 0.53826 0.00819 0.90034 0.0
Li971 Li 0.55154 0.9709 0.9019 0.0
C972 C 0.50226 0.0251 0.90839 0.0
N973 N 0.48916 0.06781 0.9094 0.0
C974 C 0.50347 0.0365 0.91886 0.0
C975 C 0.49424 0.03535 0.89846 0.0
C976 C 0.49679 0.0581 0.91918 0.0
C977 C 0.48776 0.05697 0.89914 0.0
C978 C 0.51744 0.94532 0.91772 0.0
C979 C 0.5217 0.92569 0.93569 0.0
N980 N 0.49996 0.92225 0.93601 0.0
C981 C 0.49515 0.94155 0.91822 0.0
C982 C 0.53086 0.93727 0.9265 0.0
C983 C 0.48663 0.92984 0.92754 0.0
C984 C 0.4906 0.94787 0.88518 0.0
N985 N 0.4887 0.96772 0.89016 0.0
C986 C 0.45103 0.969 0.88549 0.0
C987 C 0.46948 0.97844 0.89038 0.0
C988 C 0.45254 0.94847 0.8803 0.0
C989 C 0.47271 0.938 0.88006 0.0
H990 H 0.50595 0.93948 0.88546 0.0
H991 H 0.46836 0.99403 0.8946 0.0
C992 C 0.54054 0.98903 0.94069 0.0
N993 N 0.52369 0.98645 0.93324 0.0
C994 C 0.53689 0.98999 0.95263 0.0
C995 C 0.49856 0.98576 0.949 0.0
C996 C 0.50297 0.9849 0.93712 0.0
C997 C 0.51566 0.98842 0.95693 0.0
H998 H 0.55681 0.99053 0.93737 0.0
H999 H 0.48987 0.98321 0.93095 0.0
C1000 C 0.53263 0.97976 0.87741 0.0
N1001 N 0.518 0.96651 0.85588 0.0
C1002 C 0.5399 0.96025 0.87265 0.0
C1003 C 0.51809 0.99263 0.87118 0.0
C1004 C 0.53228 0.95382 0.86176 0.0
C1005 C 0.51083 0.98561 0.86033 0.0
C1006 C 0.57983 0.99422 0.91336 0.0
C1007 C 0.59345 0.00815 0.90718 0.0
C1008 C 0.58882 0.9781 0.92039 0.0
C1009 C 0.61587 0.00568 0.90811 0.0
C1010 C 0.61132 0.97612 0.92107 0.0
N1011 N 0.62426 0.98983 0.91497 0.0
C1012 C 0.55082 0.05081 0.90472 0.0
C1013 C 0.55068 0.04156 0.88473 0.0
C1014 C 0.56027 0.07078 0.90227 0.0
N1015 N 0.54656 0.03659 0.89601 0.0
C1016 C 0.56029 0.06133 0.88189 0.0
C1017 C 0.56576 0.076 0.89076 0.0
H1018 H 0.54782 0.04619 0.91363 0.0
H1019 H 0.54755 0.02973 0.87802 0.0
C1020 C 0.57383 0.93107 0.90216 0.0
N1021 N 0.57477 0.95185 0.89835 0.0
C1022 C 0.59048 0.91661 0.89955 0.0
C1023 C 0.60877 0.94523 0.88912 0.0
C1024 C 0.59166 0.95908 0.89186 0.0
C1025 C 0.6083 0.9236 0.89294 0.0
H1026 H 0.56 0.92563 0.9071 0.0
H1027 H 0.5918 0.97563 0.88879 0.0
O1028 O 0.50899 0.00404 0.90785 0.0
O1029 O 0.52606 0.95715 0.9088 0.0
O1030 O 0.53964 0.98618 0.88814 0.0
O1031 O 0.55783 0.99618 0.91244 0.0
H1032 H 0.5097 0.02884 0.92661 0.0
H1033 H 0.49319 0.02674 0.8903 0.0
H1034 H 0.49774 0.06717 0.92721 0.0
H1035 H 0.48163 0.06515 0.89151 0.0
H1036 H 0.53187 0.9195 0.94258 0.0
H1037 H 0.4845 0.94776 0.91155 0.0
H1038 H 0.54812 0.94021 0.9263 0.0
H1039 H 0.4694 0.92687 0.92806 0.0
H1040 H 0.43574 0.97754 0.88586 0.0
H1041 H 0.47445 0.92198 0.87635 0.0
H1042 H 0.55057 0.99184 0.95843 0.0
H1043 H 0.48193 0.9848 0.95192 0.0
H1044 H 0.55112 0.95008 0.87736 0.0
H1045 H 0.51234 0.00778 0.87474 0.0
H1046 H 0.53767 0.93871 0.858 0.0
H1047 H 0.49947 0.99534 0.85544 0.0
H1048 H 0.58685 0.02062 0.90163 0.0
H1049 H 0.57855 0.96701 0.92513 0.0
H1050 H 0.62659 0.0163 0.90335 0.0
H1051 H 0.61848 0.96362 0.92641 0.0
H1052 H 0.56397 0.08167 0.90937 0.0
H1053 H 0.56453 0.06451 0.87292 0.0
H1054 H 0.5891 0.9 0.90245 0.0
H1055 H 0.62222 0.95142 0.88409 0.0
Li1056 Li 0.758 0.22108 0.83204 0.0
Li1057 Li 0.76805 0.23827 0.85047 0.0
Li1058 Li 0.7775 0.20056 0.84643 0.0
Li1059 Li 0.74005 0.21155 0.85008 0.0
C1060 C 0.79788 0.2353 0.829 0.0
N1061 N 0.81758 0.25309 0.80968 0.0
C1062 C 0.8012 0.25765 0.82832 0.0
C1063 C 0.80471 0.22198 0.81989 0.0
C1064 C 0.81118 0.26633 0.81847 0.0
C1065 C 0.81457 0.23129 0.81018 0.0
C1066 C 0.71887 0.24496 0.84259 0.0
C1067 C 0.68762 0.25755 0.85316 0.0
N1068 N 0.67488 0.25254 0.8439 0.0
C1069 C 0.7055 0.24001 0.83316 0.0
C1070 C 0.70991 0.25389 0.85265 0.0
C1071 C 0.68329 0.24395 0.834 0.0
C1072 C 0.74939 0.20859 0.80888 0.0
N1073 N 0.75398 0.22569 0.81589 0.0
C1074 C 0.75413 0.24978 0.79968 0.0
C1075 C 0.75591 0.24609 0.81159 0.0
C1076 C 0.74986 0.23235 0.79219 0.0
C1077 C 0.7472 0.21158 0.79693 0.0
H1078 H 0.74755 0.19261 0.81256 0.0
H1079 H 0.75908 0.25944 0.81742 0.0
C1080 C 0.80012 0.26245 0.86122 0.0
N1081 N 0.77935 0.26374 0.85741 0.0
C1082 C 0.81 0.2803 0.86635 0.0
C1083 C 0.77721 0.30085 0.86315 0.0
C1084 C 0.76779 0.28241 0.85823 0.0
C1085 C 0.79856 0.29983 0.86733 0.0
H1086 H 0.80905 0.24752 0.86018 0.0
H1087 H 0.75138 0.28302 0.85497 0.0
C1088 C 0.75445 0.17027 0.83665 0.0
N1089 N 0.7626 0.12639 0.83499 0.0
C1090 C 0.74392 0.15575 0.84405 0.0
C1091 C 0.76908 0.16247 0.82838 0.0
C1092 C 0.74825 0.13362 0.84307 0.0
C1093 C 0.77301 0.14024 0.8277 0.0
C1094 C 0.77271 0.22011 0.87109 0.0
C1095 C 0.79295 0.21317 0.87505 0.0
C1096 C 0.76105 0.23535 0.87753 0.0
C1097 C 0.80126 0.22173 0.88536 0.0
C1098 C 0.76994 0.24356 0.88778 0.0
N1099 N 0.78969 0.23664 0.89145 0.0
C1100 C 0.81913 0.1829 0.84437 0.0
C1101 C 0.79541 0.16204 0.85607 0.0
C1102 C 0.83623 0.16889 0.84679 0.0
N1103 N 0.79927 0.17933 0.84905 0.0
C1104 C 0.81203 0.14746 0.85864 0.0
C1105 C 0.83284 0.15104 0.85412 0.0
H1106 H 0.82188 0.19697 0.83901 0.0
H1107 H 0.77959 0.15993 0.85993 0.0
C1108 C 0.69884 0.19289 0.8489 0.0
N1109 N 0.71319 0.20218 0.85632 0.0
C1110 C 0.67977 0.1837 0.85312 0.0
C1111 C 0.69018 0.1947 0.87248 0.0
C1112 C 0.70914 0.20353 0.86789 0.0
C1113 C 0.67542 0.18414 0.8651 0.0
H1114 H 0.70263 0.19191 0.83974 0.0
H1115 H 0.72087 0.21092 0.8736 0.0
O1116 O 0.78781 0.22651 0.83848 0.0
O1117 O 0.74055 0.2407 0.84205 0.0
O1118 O 0.75066 0.19203 0.83757 0.0
O1119 O 0.76445 0.21217 0.86092 0.0
H1120 H 0.79594 0.26823 0.83525 0.0
H1121 H 0.80218 0.20467 0.82025 0.0
H1122 H 0.81377 0.2836 0.81781 0.0
H1123 H 0.81979 0.2212 0.80303 0.0
H1124 H 0.68043 0.26432 0.86092 0.0
H1125 H 0.71217 0.23299 0.82533 0.0
H1126 H 0.72004 0.2577 0.86004 0.0
H1127 H 0.67272 0.2401 0.8268 0.0
H1128 H 0.75595 0.26609 0.79636 0.0
H1129 H 0.74394 0.19774 0.79143 0.0
H1130 H 0.82663 0.279 0.86926 0.0
H1131 H 0.76793 0.31569 0.86373 0.0
H1132 H 0.73274 0.16148 0.85059 0.0
H1133 H 0.77751 0.17349 0.82265 0.0
H1134 H 0.74029 0.12221 0.84877 0.0
H1135 H 0.78438 0.134 0.82138 0.0
H1136 H 0.80225 0.20145 0.87017 0.0
H1137 H 0.74549 0.24109 0.87453 0.0
H1138 H 0.81694 0.21658 0.8885 0.0
H1139 H 0.76118 0.25549 0.89279 0.0
H1140 H 0.85202 0.17214 0.8431 0.0
H1141 H 0.80887 0.13407 0.86447 0.0
H1142 H 0.6691 0.17547 0.84711 0.0
H1143 H 0.68737 0.19571 0.88175 0.0
Li1144 Li 0.55016 0.02698 0.59678 0.0
Li1145 Li 0.53877 0.98968 0.60039 0.0
Li1146 Li 0.52932 0.00775 0.58148 0.0
Li1147 Li 0.51096 0.01696 0.59976 0.0
C1148 C 0.57735 0.00106 0.58193 0.0
N1149 N 0.61578 0.00183 0.56963 0.0
C1150 C 0.59499 0.98868 0.58564 0.0
C1151 C 0.57917 0.01354 0.57185 0.0
C1152 C 0.61432 0.98938 0.57934 0.0
C1153 C 0.59875 0.01379 0.56579 0.0
C1154 C 0.54105 0.00815 0.62157 0.0
C1155 C 0.5332 0.98712 0.63871 0.0
N1156 N 0.55266 0.99296 0.64326 0.0
C1157 C 0.56087 0.01413 0.62646 0.0
C1158 C 0.52699 0.99472 0.62777 0.0
C1159 C 0.56648 0.00622 0.63742 0.0
C1160 C 0.56454 0.06877 0.60209 0.0
N1161 N 0.57154 0.04833 0.59987 0.0
C1162 C 0.60834 0.05915 0.6026 0.0
C1163 C 0.59294 0.04322 0.60021 0.0
C1164 C 0.60162 0.0805 0.60478 0.0
C1165 C 0.57936 0.0852 0.60453 0.0
H1166 H 0.54739 0.07227 0.60201 0.0
H1167 H 0.59807 0.02675 0.59874 0.0
C1168 C 0.53763 0.94476 0.60656 0.0
N1169 N 0.54875 0.96371 0.60735 0.0
C1170 C 0.5462 0.92583 0.61143 0.0
C1171 C 0.5771 0.94655 0.61797 0.0
C1172 C 0.56817 0.96487 0.61284 0.0
C1173 C 0.56616 0.92669 0.61725 0.0
H1174 H 0.52232 0.94427 0.60201 0.0
H1175 H 0.57689 0.98002 0.61306 0.0
C1176 C 0.52292 0.05477 0.5813 0.0
N1177 N 0.52057 0.09122 0.56741 0.0
C1178 C 0.50323 0.0656 0.57986 0.0
C1179 C 0.54148 0.06269 0.5758 0.0
C1180 C 0.50235 0.08392 0.57276 0.0
C1181 C 0.53995 0.08108 0.56879 0.0
C1182 C 0.49022 0.98183 0.59164 0.0
C1183 C 0.4776 0.98325 0.5816 0.0
C1184 C 0.48119 0.97358 0.60185 0.0
C1185 C 0.45596 0.9767 0.582 0.0
C1186 C 0.45949 0.96724 0.6019 0.0
N1187 N 0.44742 0.96893 0.59206 0.0
C1188 C 0.53553 0.98713 0.55987 0.0
C1189 C 0.51342 0.01847 0.55914 0.0
C1190 C 0.53351 0.98429 0.54788 0.0
N1191 N 0.52571 0.00413 0.5652 0.0
C1192 C 0.51122 0.01643 0.54714 0.0
C1193 C 0.52141 0.99922 0.54137 0.0
H1194 H 0.54506 0.97587 0.56494 0.0
H1195 H 0.5052 0.03142 0.5636 0.0
C1196 C 0.48364 0.03453 0.61704 0.0
N1197 N 0.48441 0.02753 0.60586 0.0
C1198 C 0.46519 0.04505 0.62122 0.0
C1199 C 0.44847 0.04024 0.60242 0.0
C1200 C 0.46726 0.02997 0.59859 0.0
C1201 C 0.44744 0.04844 0.6138 0.0
H1202 H 0.49767 0.03275 0.62257 0.0
H1203 H 0.46849 0.02476 0.58966 0.0
O1204 O 0.5583 0.00047 0.588 0.0
O1205 O 0.5354 0.01553 0.61079 0.0
O1206 O 0.52402 0.03679 0.58823 0.0
O1207 O 0.5114 0.98826 0.59143 0.0
H1208 H 0.59384 0.9787 0.59333 0.0
H1209 H 0.56556 0.02271 0.56864 0.0
H1210 H 0.62813 0.97999 0.58216 0.0
H1211 H 0.60036 0.02342 0.55798 0.0
H1212 H 0.52254 0.9766 0.64357 0.0
H1213 H 0.57189 0.02462 0.6218 0.0
H1214 H 0.5115 0.99014 0.62416 0.0
H1215 H 0.58184 0.01058 0.64128 0.0
H1216 H 0.62532 0.0548 0.60267 0.0
H1217 H 0.5734 0.10131 0.60639 0.0
H1218 H 0.53736 0.91076 0.61067 0.0
H1219 H 0.59275 0.94778 0.62217 0.0
H1220 H 0.48873 0.05986 0.58412 0.0
H1221 H 0.55697 0.05497 0.57706 0.0
H1222 H 0.48718 0.09237 0.57153 0.0
H1223 H 0.55419 0.08736 0.56448 0.0
H1224 H 0.48438 0.98947 0.57361 0.0
H1225 H 0.49083 0.97215 0.60965 0.0
H1226 H 0.44594 0.97783 0.57431 0.0
H1227 H 0.45224 0.96094 0.60976 0.0
H1228 H 0.5416 0.9708 0.54371 0.0
H1229 H 0.50139 0.02802 0.54245 0.0
H1230 H 0.46529 0.05136 0.63 0.0
H1231 H 0.43512 0.04222 0.59642 0.0
Li1232 Li 0.72312 0.79905 0.34783 0.0
Li1233 Li 0.76002 0.79034 0.35132 0.0
Li1234 Li 0.74177 0.77865 0.33269 0.0
Li1235 Li 0.73342 0.7622 0.35209 0.0
C1236 C 0.7435 0.82881 0.33477 0.0
N1237 N 0.73351 0.8703 0.32752 0.0
C1238 C 0.74222 0.8457 0.34283 0.0
C1239 C 0.73969 0.83305 0.32302 0.0
C1240 C 0.73713 0.86654 0.33899 0.0
C1241 C 0.73468 0.85413 0.31952 0.0
C1242 C 0.74564 0.79334 0.37251 0.0
C1243 C 0.77117 0.78554 0.38783 0.0
N1244 N 0.76726 0.80533 0.39255 0.0
C1245 C 0.74193 0.81365 0.37752 0.0
C1246 C 0.7604 0.7792 0.37771 0.0
C1247 C 0.75298 0.81939 0.38765 0.0
C1248 C 0.69182 0.82102 0.36103 0.0
N1249 N 0.70001 0.81945 0.35012 0.0
C1250 C 0.6753 0.84645 0.34331 0.0
C1251 C 0.69166 0.83134 0.34123 0.0
C1252 C 0.66737 0.84918 0.35464 0.0
C1253 C 0.67562 0.83601 0.36354 0.0
H1254 H 0.69781 0.81052 0.36781 0.0
H1255 H 0.69773 0.82919 0.33251 0.0
C1256 C 0.80545 0.78885 0.35643 0.0
N1257 N 0.78697 0.80077 0.35724 0.0
C1258 C 0.82493 0.7969 0.36092 0.0
C1259 C 0.80587 0.82917 0.36695 0.0
C1260 C 0.78701 0.82073 0.36218 0.0
C1261 C 0.82511 0.8172 0.36639 0.0
H1262 H 0.80508 0.77317 0.35227 0.0
H1263 H 0.77232 0.83008 0.36254 0.0
C1264 C 0.69197 0.77522 0.33862 0.0
N1265 N 0.64803 0.78275 0.33689 0.0
C1266 C 0.67833 0.77042 0.34795 0.0
C1267 C 0.6833 0.78374 0.32839 0.0
C1268 C 0.65615 0.77438 0.34691 0.0
C1269 C 0.66103 0.78745 0.32769 0.0
C1270 C 0.76612 0.74021 0.34398 0.0
C1271 C 0.75931 0.72618 0.33518 0.0
C1272 C 0.77715 0.73193 0.3536 0.0
C1273 C 0.76343 0.70403 0.33622 0.0
C1274 C 0.78096 0.70967 0.35432 0.0
N1275 N 0.77406 0.6963 0.3457 0.0
C1276 C 0.76197 0.78163 0.31077 0.0
C1277 C 0.72998 0.7604 0.31128 0.0
C1278 C 0.76435 0.77772 0.29889 0.0
N1279 N 0.74489 0.77311 0.31664 0.0
C1280 C 0.73184 0.7559 0.29945 0.0
C1281 C 0.74916 0.76468 0.2931 0.0
H1282 H 0.77365 0.79154 0.31532 0.0
H1283 H 0.7167 0.75368 0.31622 0.0
C1284 C 0.72472 0.73158 0.37026 0.0
N1285 N 0.72344 0.73576 0.35869 0.0
C1286 C 0.7155 0.71277 0.37483 0.0
C1287 C 0.7038 0.70298 0.35551 0.0
C1288 C 0.71337 0.72187 0.35131 0.0
C1289 C 0.70456 0.6983 0.36745 0.0
H1290 H 0.73235 0.74306 0.37601 0.0
H1291 H 0.71224 0.72581 0.34218 0.0
O1292 O 0.74859 0.80828 0.33831 0.0
O1293 O 0.73515 0.78746 0.3625 0.0
O1294 O 0.71378 0.77198 0.33959 0.0
O1295 O 0.76167 0.76187 0.34326 0.0
H1296 H 0.74449 0.84267 0.35198 0.0
H1297 H 0.74041 0.82021 0.31665 0.0
H1298 H 0.73591 0.87971 0.34516 0.0
H1299 H 0.73166 0.85762 0.31046 0.0
H1300 H 0.7827 0.77476 0.39189 0.0
H1301 H 0.73107 0.82514 0.37351 0.0
H1302 H 0.76379 0.76361 0.37389 0.0
H1303 H 0.75034 0.83509 0.39157 0.0
H1304 H 0.6692 0.85614 0.33619 0.0
H1305 H 0.66945 0.83714 0.37232 0.0
H1306 H 0.83955 0.78731 0.36027 0.0
H1307 H 0.80548 0.84509 0.3709 0.0
H1308 H 0.68485 0.76395 0.35596 0.0
H1309 H 0.69369 0.78775 0.32113 0.0
H1310 H 0.6454 0.77086 0.35408 0.0
H1311 H 0.65409 0.79417 0.31985 0.0
H1312 H 0.75069 0.73228 0.3277 0.0
H1313 H 0.78271 0.74253 0.36044 0.0
H1314 H 0.75811 0.69298 0.32952 0.0
H1315 H 0.7894 0.70304 0.36175 0.0
H1316 H 0.77806 0.78458 0.29433 0.0
H1317 H 0.7197 0.74591 0.29529 0.0
H1318 H 0.71669 0.70978 0.38408 0.0
H1319 H 0.6952 0.6926 0.34949 0.0
Li1320 Li 0.94799 0.97147 0.09751 0.0
Li1321 Li 0.95918 0.00924 0.10063 0.0
Li1322 Li 0.96902 0.98987 0.08205 0.0
Li1323 Li 0.98681 0.98174 0.10031 0.0
C1324 C 0.91982 0.99815 0.08324 0.0
N1325 N 0.87927 -0.00031 0.07308 0.0
C1326 C 0.90317 0.01007 0.08841 0.0
C1327 C 0.91587 0.98727 0.0728 0.0
C1328 C 0.88277 0.01058 0.08317 0.0
C1329 C 0.89527 0.98817 0.06783 0.0
C1330 C 0.95623 0.99065 0.12213 0.0
C1331 C 0.96224 0.01189 0.13942 0.0
N1332 N 0.94328 0.00441 0.14389 0.0
C1333 C 0.93688 0.98305 0.12694 0.0
C1334 C 0.9691 0.00506 0.12845 0.0
C1335 C 0.93059 0.99024 0.13794 0.0
C1336 C 0.93518 0.93183 0.1064 0.0
N1337 N 0.92708 0.94989 0.10126 0.0
C1338 C 0.89106 0.93604 0.10272 0.0
C1339 C 0.90548 0.95229 0.09938 0.0
C1340 C 0.89895 0.9173 0.10817 0.0
C1341 C 0.92134 0.91526 0.10997 0.0
H1342 H 0.95244 0.93042 0.10782 0.0
H1343 H 0.8993 0.96685 0.09545 0.0
C1344 C 0.95967 0.05484 0.10471 0.0
N1345 N 0.9495 0.03583 0.10714 0.0
C1346 C 0.95157 0.07433 0.10913 0.0
C1347 C 0.92304 0.05416 0.1186 0.0
C1348 C 0.93149 0.03522 0.1139 0.0
C1349 C 0.93301 0.07407 0.11618 0.0
H1350 H 0.97383 0.05489 0.09918 0.0
H1351 H 0.92333 0.02003 0.11542 0.0
C1352 C 0.97212 0.94415 0.08134 0.0
N1353 N 0.96806 0.91021 0.06583 0.0
C1354 C 0.99014 0.93158 0.07842 0.0
C1355 C 0.95197 0.93918 0.07652 0.0
C1356 C 0.98778 0.91458 0.07052 0.0
C1357 C 0.95025 0.92204 0.06866 0.0
C1358 C 0.00795 0.01584 0.09313 0.0
C1359 C 0.02301 0.01161 0.08436 0.0
C1360 C 0.01467 0.02594 0.10337 0.0
C1361 C 0.04467 0.01727 0.08607 0.0
C1362 C 0.03648 0.03135 0.10476 0.0
N1363 N 0.05091 0.02691 0.09616 0.0
C1364 C 0.9611 0.00629 0.05943 0.0
C1365 C 0.98945 0.9806 0.06085 0.0
C1366 C 0.96411 0.00788 0.04744 0.0
N1367 N 0.97345 0.99251 0.06581 0.0
C1368 C 0.99317 0.98182 0.04892 0.0
C1369 C 0.98028 0.99544 0.04201 0.0
H1370 H 0.94879 0.01595 0.06365 0.0
H1371 H 0.99952 0.97032 0.06618 0.0
C1372 C 0.01664 0.96979 0.11811 0.0
N1373 N 0.01342 0.97151 0.10647 0.0
C1374 C 0.03503 0.95926 0.12238 0.0
C1375 C 0.04655 0.95299 0.10259 0.0
C1376 C 0.02812 0.96383 0.09872 0.0
C1377 C 0.0499 0.95017 0.11455 0.0
H1378 H 0.00453 0.97573 0.12408 0.0
H1379 H 0.0251 0.96545 0.08952 0.0
O1380 O 0.93993 0.99754 0.08827 0.0
O1381 O 0.96255 0.9839 0.11134 0.0
O1382 O 0.97418 0.96091 0.08907 0.0
O1383 O 0.98675 0.01005 0.09171 0.0
H1384 H 0.90586 0.01877 0.0964 0.0
H1385 H 0.92859 0.97837 0.06848 0.0
H1386 H 0.86973 0.01965 0.08712 0.0
H1387 H 0.89202 0.97978 0.05976 0.0
H1388 H 0.97198 0.02314 0.14437 0.0
H1389 H 0.92672 0.97186 0.1222 0.0
H1390 H 0.98416 0.01102 0.1249 0.0
H1391 H 0.9156 0.98459 0.14173 0.0
H1392 H 0.87388 0.93833 0.10131 0.0
H1393 H 0.9281 0.90098 0.11405 0.0
H1394 H 0.95967 0.08939 0.10705 0.0
H1395 H 0.9084 0.05329 0.12375 0.0
H1396 H 0.00582 0.93492 0.08217 0.0
H1397 H 0.93775 0.94826 0.07889 0.0
H1398 H 0.00163 0.90484 0.06813 0.0
H1399 H 0.93474 0.91808 0.06485 0.0
H1400 H 0.01806 0.00389 0.07637 0.0
H1401 H 0.00317 0.02956 0.11018 0.0
H1402 H 0.05654 0.01396 0.07939 0.0
H1403 H 0.04193 0.03908 0.11266 0.0
H1404 H 0.95368 0.01851 0.04248 0.0
H1405 H 0.00622 0.97238 0.04521 0.0
H1406 H 0.03697 0.95721 0.13166 0.0
H1407 H 0.05776 0.94634 0.0963 0.0
Li1408 Li 0.72943 0.73985 0.85007 0.0
Li1409 Li 0.71618 0.70428 0.84563 0.0
Li1410 Li 0.75421 0.7092 0.84929 0.0
Li1411 Li 0.73732 0.72278 0.83098 0.0
C1412 C 0.71574 0.71592 0.8692 0.0
N1413 N 0.68662 0.72033 0.88725 0.0
C1414 C 0.69469 0.72316 0.86703 0.0
C1415 C 0.72197 0.7109 0.88054 0.0
C1416 C 0.68021 0.72528 0.87627 0.0
C1417 C 0.70702 0.71324 0.88956 0.0
C1418 C 0.69006 0.73425 0.83192 0.0
C1419 C 0.66684 0.7275 0.81546 0.0
N1420 N 0.65102 0.73956 0.82052 0.0
C1421 C 0.6736 0.7467 0.83692 0.0
C1422 C 0.68669 0.72468 0.82107 0.0
C1423 C 0.65397 0.74914 0.83104 0.0
C1424 C 0.7133 0.78174 0.84992 0.0
N1425 N 0.72251 0.76681 0.85703 0.0
C1426 C 0.71723 0.78972 0.8735 0.0
C1427 C 0.72507 0.77059 0.86858 0.0
C1428 C 0.70661 0.80502 0.86646 0.0
C1429 C 0.70511 0.80097 0.85447 0.0
H1430 H 0.71157 0.77829 0.84076 0.0
H1431 H 0.73266 0.75853 0.87402 0.0
C1432 C 0.6987 0.66742 0.8559 0.0
N1433 N 0.69331 0.68393 0.84865 0.0
C1434 C 0.68361 0.65141 0.85866 0.0
C1435 C 0.65741 0.66997 0.84669 0.0
C1436 C 0.67308 0.68549 0.84407 0.0
C1437 C 0.66257 0.65256 0.85405 0.0
H1438 H 0.71486 0.66663 0.85949 0.0
H1439 H 0.66891 0.69873 0.83843 0.0
C1440 C 0.77273 0.75058 0.84757 0.0
N1441 N 0.80282 0.7755 0.85925 0.0
C1442 C 0.78583 0.76509 0.84147 0.0
C1443 C 0.77493 0.74873 0.85962 0.0
C1444 C 0.80096 0.77754 0.84753 0.0
C1445 C 0.79023 0.76147 0.86536 0.0
C1446 C 0.73492 0.67158 0.83466 0.0
C1447 C 0.74573 0.65484 0.84041 0.0
C1448 C 0.71761 0.66667 0.82729 0.0
C1449 C 0.73884 0.6335 0.83884 0.0
C1450 C 0.71117 0.64513 0.82596 0.0
N1451 N 0.72182 0.62913 0.83172 0.0
C1452 C 0.77652 0.68222 0.86455 0.0
C1453 C 0.79892 0.69926 0.85051 0.0
C1454 C 0.7939 0.66987 0.86851 0.0
N1455 N 0.77925 0.69616 0.85554 0.0
C1456 C 0.81684 0.68743 0.85432 0.0
C1457 C 0.81425 0.67211 0.86322 0.0
H1458 H 0.76061 0.68001 0.86828 0.0
H1459 H 0.80049 0.71034 0.84329 0.0
C1460 C 0.748 0.74862 0.81177 0.0
N1461 N 0.74225 0.72831 0.81505 0.0
C1462 C 0.7517 0.75332 0.80007 0.0
C1463 C 0.74325 0.71612 0.79539 0.0
C1464 C 0.74014 0.71207 0.80718 0.0
C1465 C 0.74914 0.737 0.79165 0.0
H1466 H 0.74975 0.76116 0.81827 0.0
H1467 H 0.73572 0.69602 0.81005 0.0
O1468 O 0.73029 0.71381 0.86031 0.0
O1469 O 0.70946 0.73184 0.83752 0.0
O1470 O 0.75781 0.73835 0.84174 0.0
O1471 O 0.74121 0.69263 0.83627 0.0
H1472 H 0.68959 0.72704 0.85832 0.0
H1473 H 0.73824 0.70532 0.88237 0.0
H1474 H 0.66387 0.73087 0.87471 0.0
H1475 H 0.71163 0.70944 0.89839 0.0
H1476 H 0.664 0.72009 0.80708 0.0
H1477 H 0.67591 0.75439 0.84527 0.0
H1478 H 0.69917 0.71505 0.81704 0.0
H1479 H 0.64109 0.75866 0.83483 0.0
H1480 H 0.71911 0.7923 0.88275 0.0
H1481 H 0.69683 0.81206 0.8487 0.0
H1482 H 0.68849 0.6382 0.86425 0.0
H1483 H 0.6413 0.67184 0.84311 0.0
H1484 H 0.78432 0.7667 0.83214 0.0
H1485 H 0.76496 0.73758 0.8645 0.0
H1486 H 0.81121 0.78884 0.84292 0.0
H1487 H 0.7921 0.76021 0.87468 0.0
H1488 H 0.75929 0.65826 0.84605 0.0
H1489 H 0.70893 0.67937 0.82283 0.0
H1490 H 0.74701 0.62042 0.84328 0.0
H1491 H 0.69764 0.64114 0.82039 0.0
H1492 H 0.79134 0.65828 0.87544 0.0
H1493 H 0.83226 0.68943 0.84997 0.0
H1494 H 0.75664 0.76954 0.79771 0.0
H1495 H 0.74068 0.70305 0.78928 0.0
Li1496 Li 0.51153 0.47856 0.10002 0.0
Li1497 Li 0.54886 0.46926 0.09512 0.0
Li1498 Li 0.53732 0.50703 0.09723 0.0
Li1499 Li 0.52604 0.48546 0.0806 0.0
C1500 C 0.53228 0.47827 0.12007 0.0
N1501 N 0.51878 0.46507 0.14182 0.0
C1502 C 0.53922 0.45843 0.12457 0.0
C1503 C 0.51864 0.49148 0.12667 0.0
C1504 C 0.53218 0.45203 0.13558 0.0
C1505 C 0.51193 0.48449 0.13763 0.0
C1506 C 0.51252 0.44551 0.07994 0.0
C1507 C 0.51454 0.42613 0.06178 0.0
N1508 N 0.49268 0.42352 0.06196 0.0
C1509 C 0.49008 0.44259 0.07995 0.0
C1510 C 0.52488 0.43715 0.0708 0.0
C1511 C 0.48036 0.43142 0.07078 0.0
C1512 C 0.46831 0.47998 0.10875 0.0
N1513 N 0.48702 0.46842 0.10831 0.0
C1514 C 0.47083 0.43919 0.11872 0.0
C1515 C 0.48857 0.44839 0.11311 0.0
C1516 C 0.45117 0.45054 0.11916 0.0
C1517 C 0.45001 0.47123 0.11414 0.0
H1518 H 0.46745 0.49572 0.10467 0.0
H1519 H 0.50349 0.43935 0.11233 0.0
C1520 C 0.58908 0.4554 0.10425 0.0
N1521 N 0.57144 0.4491 0.09805 0.0
C1522 C 0.60561 0.44066 0.10666 0.0
C1523 C 0.58525 0.41312 0.0965 0.0
C1524 C 0.56922 0.42844 0.0942 0.0
C1525 C 0.60378 0.41912 0.10283 0.0
H1526 H 0.59024 0.47188 0.10736 0.0
H1527 H 0.55482 0.42376 0.08951 0.0
C1528 C 0.50158 0.52566 0.09004 0.0
N1529 N 0.49054 0.56898 0.08949 0.0
C1530 C 0.50268 0.5372 0.07961 0.0
C1531 C 0.49471 0.53608 0.10016 0.0
C1532 C 0.49705 0.55911 0.07952 0.0
C1533 C 0.48926 0.55801 0.09971 0.0
C1534 C 0.57723 0.49166 0.08322 0.0
C1535 C 0.59189 0.50479 0.08922 0.0
C1536 C 0.58498 0.47537 0.07588 0.0
C1537 C 0.61409 0.50137 0.08779 0.0
C1538 C 0.6073 0.47243 0.07471 0.0
N1539 N 0.62127 0.48538 0.08064 0.0
C1540 C 0.55152 0.53959 0.11288 0.0
C1541 C 0.55135 0.54932 0.09296 0.0
C1542 C 0.56158 0.5591 0.11579 0.0
N1543 N 0.54697 0.535 0.1016 0.0
C1544 C 0.56126 0.56904 0.09548 0.0
C1545 C 0.56706 0.57391 0.10699 0.0
H1546 H 0.54826 0.52771 0.11954 0.0
H1547 H 0.54795 0.54501 0.08404 0.0
C1548 C 0.49843 0.48593 0.06098 0.0
N1549 N 0.5194 0.48681 0.06453 0.0
C1550 C 0.49335 0.48752 0.04919 0.0
C1551 C 0.53154 0.49112 0.04499 0.0
C1552 C 0.53586 0.4894 0.05683 0.0
C1553 C 0.51004 0.49031 0.04103 0.0
H1554 H 0.48565 0.48423 0.06734 0.0
H1555 H 0.55234 0.49038 0.0599 0.0
O1556 O 0.53872 0.48467 0.10924 0.0
O1557 O 0.52231 0.45677 0.08871 0.0
O1558 O 0.50733 0.50429 0.09035 0.0
O1559 O 0.55542 0.49454 0.08463 0.0
H1560 H 0.54974 0.44798 0.11957 0.0
H1561 H 0.51312 0.50687 0.1233 0.0
H1562 H 0.53732 0.43667 0.13915 0.0
H1563 H 0.50126 0.49448 0.1428 0.0
H1564 H 0.52388 0.41971 0.05462 0.0
H1565 H 0.48024 0.44904 0.08691 0.0
H1566 H 0.54224 0.43942 0.07061 0.0
H1567 H 0.463 0.42911 0.07066 0.0
H1568 H 0.47225 0.42302 0.12228 0.0
H1569 H 0.43509 0.48044 0.11429 0.0
H1570 H 0.61964 0.4461 0.11147 0.0
H1571 H 0.58284 0.39662 0.09359 0.0
H1572 H 0.50803 0.5294 0.07171 0.0
H1573 H 0.49378 0.52737 0.10829 0.0
H1574 H 0.49793 0.56828 0.07153 0.0
H1575 H 0.48404 0.56632 0.10749 0.0
H1576 H 0.58624 0.51737 0.095 0.0
H1577 H 0.57388 0.46489 0.07128 0.0
H1578 H 0.62561 0.51136 0.0924 0.0
H1579 H 0.61351 0.45979 0.06912 0.0
H1580 H 0.56605 0.56199 0.12475 0.0
H1581 H 0.56497 0.58005 0.08843 0.0
H1582 H 0.47654 0.48712 0.04653 0.0
H1583 H 0.54491 0.49303 0.03899 0.0
Li1584 Li 0.7792 0.29572 0.34588 0.0
Li1585 Li 0.76795 0.25922 0.35013 0.0
Li1586 Li 0.75929 0.27627 0.33111 0.0
Li1587 Li 0.74151 0.28834 0.3494 0.0
C1588 C 0.80668 0.26671 0.33188 0.0
N1589 N 0.84535 0.26226 0.32003 0.0
C1590 C 0.8232 0.25373 0.33641 0.0
C1591 C 0.80982 0.27734 0.32129 0.0
C1592 C 0.84263 0.25172 0.3303 0.0
C1593 C 0.82949 0.27491 0.31545 0.0
C1594 C 0.78064 0.28387 0.36922 0.0
C1595 C 0.79027 0.288 0.3894 0.0
N1596 N 0.81078 0.28149 0.38691 0.0
C1597 C 0.80183 0.27724 0.36687 0.0
C1598 C 0.7748 0.28932 0.38058 0.0
C1599 C 0.81682 0.27614 0.37592 0.0
C1600 C 0.79519 0.33333 0.35628 0.0
N1601 N 0.80112 0.31703 0.349 0.0
C1602 C 0.8367 0.33188 0.34728 0.0
C1603 C 0.82146 0.31601 0.34454 0.0
C1604 C 0.83099 0.34908 0.35466 0.0
C1605 C 0.80984 0.34968 0.35916 0.0
H1606 H 0.77899 0.33364 0.35983 0.0
H1607 H 0.8261 0.30284 0.33896 0.0
C1608 C 0.78436 0.21728 0.34959 0.0
N1609 N 0.77619 0.23244 0.35693 0.0
C1610 C 0.79327 0.1982 0.35396 0.0
C1611 C 0.78424 0.21022 0.37335 0.0
C1612 C 0.77539 0.22903 0.36859 0.0
C1613 C 0.79376 0.19473 0.36602 0.0
H1614 H 0.78469 0.22043 0.34035 0.0
H1615 H 0.76845 0.24117 0.37423 0.0
C1616 C 0.75829 0.32763 0.33544 0.0
N1617 N 0.76821 0.37111 0.33348 0.0
C1618 C 0.74636 0.34303 0.34162 0.0
C1619 C 0.77511 0.33438 0.32817 0.0
C1620 C 0.75165 0.36493 0.34053 0.0
C1621 C 0.77993 0.35642 0.32733 0.0
C1622 C 0.7254 0.24613 0.34739 0.0
C1623 C 0.71255 0.23163 0.34114 0.0
C1624 C 0.72355 0.24713 0.35949 0.0
C1625 C 0.69802 0.21832 0.34709 0.0
C1626 C 0.70884 0.23355 0.36512 0.0
N1627 N 0.69648 0.21955 0.35886 0.0
C1628 C 0.75013 0.25052 0.31159 0.0
C1629 C 0.75673 0.28748 0.3074 0.0
C1630 C 0.74697 0.24606 0.29982 0.0
N1631 N 0.755 0.27093 0.3151 0.0
C1632 C 0.75415 0.2837 0.29555 0.0
C1633 C 0.74917 0.26275 0.29157 0.0
H1634 H 0.74865 0.23771 0.31796 0.0
H1635 H 0.76044 0.30359 0.31045 0.0
C1636 C 0.71637 0.31156 0.36534 0.0
N1637 N 0.71539 0.29912 0.35564 0.0
C1638 C 0.69768 0.32127 0.36969 0.0
C1639 C 0.67721 0.30457 0.35418 0.0
C1640 C 0.69636 0.29529 0.35009 0.0
C1641 C 0.67776 0.31805 0.36402 0.0
H1642 H 0.73182 0.31451 0.36946 0.0
H1643 H 0.69614 0.28533 0.34236 0.0
O1644 O 0.7875 0.26872 0.33772 0.0
O1645 O 0.76562 0.28512 0.36051 0.0
O1646 O 0.75354 0.30607 0.33656 0.0
O1647 O 0.73971 0.25923 0.34166 0.0
H1648 H 0.82108 0.24534 0.34458 0.0
H1649 H 0.79735 0.28753 0.31769 0.0
H1650 H 0.85556 0.24177 0.33372 0.0
H1651 H 0.83215 0.28312 0.30727 0.0
H1652 H 0.78596 0.29214 0.39823 0.0
H1653 H 0.80667 0.27302 0.35815 0.0
H1654 H 0.75846 0.29444 0.38256 0.0
H1655 H 0.83327 0.27103 0.37421 0.0
H1656 H 0.85292 0.3304 0.34381 0.0
H1657 H 0.80457 0.36268 0.36479 0.0
H1658 H 0.8006 0.18679 0.348 0.0
H1659 H 0.78401 0.20801 0.38268 0.0
H1660 H 0.73319 0.33817 0.34721 0.0
H1661 H 0.78466 0.32272 0.32341 0.0
H1662 H 0.7426 0.37701 0.34529 0.0
H1663 H 0.79306 0.36184 0.32184 0.0
H1664 H 0.7138 0.23068 0.33177 0.0
H1665 H 0.73333 0.25826 0.36448 0.0
H1666 H 0.68796 0.20701 0.34236 0.0
H1667 H 0.70724 0.23415 0.37447 0.0
H1668 H 0.74271 0.22975 0.29726 0.0
H1669 H 0.75643 0.29706 0.28959 0.0
H1670 H 0.69901 0.33184 0.37716 0.0
H1671 H 0.66222 0.30141 0.34962 0.0
Li1672 Li 0.95223 0.5312 0.59657 0.0
Li1673 Li 0.98984 0.52051 0.59995 0.0
Li1674 Li 0.97187 0.51251 0.58152 0.0
Li1675 Li 0.96231 0.49324 0.59918 0.0
C1676 C 0.98776 0.55105 0.57913 0.0
N1677 N 0.00697 0.56867 0.55962 0.0
C1678 C 0.01009 0.54912 0.57745 0.0
C1679 C 0.9752 0.56196 0.57089 0.0
C1680 C 0.01949 0.55815 0.56753 0.0
C1681 C 0.98522 0.57075 0.56109 0.0
C1682 C 0.97239 0.52426 0.62082 0.0
C1683 C 0.99625 0.52024 0.63727 0.0
N1684 N 0.98964 0.53983 0.64134 0.0
C1685 C 0.96578 0.54432 0.62518 0.0
C1686 C 0.98767 0.51206 0.62694 0.0
C1687 C 0.9747 0.55191 0.63557 0.0
C1688 C 0.91394 0.54712 0.60689 0.0
N1689 N 0.93109 0.55262 0.60011 0.0
C1690 C 0.91822 0.58896 0.59854 0.0
C1691 C 0.9336 0.57309 0.59601 0.0
C1692 C 0.90008 0.5837 0.60536 0.0
C1693 C 0.89806 0.56241 0.60954 0.0
H1694 H 0.91258 0.5308 0.6102 0.0
H1695 H 0.94768 0.57715 0.59089 0.0
C1696 C 0.03436 0.51863 0.60707 0.0
N1697 N 0.0159 0.53061 0.60684 0.0
C1698 C 0.05322 0.52718 0.612 0.0
C1699 C 0.03356 0.56006 0.61634 0.0
C1700 C 0.01527 0.55104 0.61118 0.0
C1701 C 0.05286 0.54811 0.61676 0.0
H1702 H 0.03452 0.50259 0.60333 0.0
H1703 H 0.0005 0.56038 0.61058 0.0
C1704 C 0.921 0.50977 0.58635 0.0
N1705 N 0.87724 0.51899 0.58514 0.0
C1706 C 0.90613 0.49756 0.59276 0.0
C1707 C 0.91356 0.52674 0.57937 0.0
C1708 C 0.88409 0.50244 0.592 0.0
C1709 C 0.8914 0.53115 0.57887 0.0
C1710 C 0.99508 0.47183 0.59155 0.0
C1711 C 0.98879 0.45831 0.58242 0.0
C1712 C 0.00479 0.46292 0.60142 0.0
C1713 C 0.99234 0.43604 0.58332 0.0
C1714 C 0.00803 0.44057 0.60199 0.0
N1715 N 0.00179 0.4277 0.59301 0.0
C1716 C 0.99613 0.502 0.56163 0.0
C1717 C 0.9613 0.51619 0.55753 0.0
C1718 C 0.00058 0.50002 0.54979 0.0
N1719 N 0.97672 0.50989 0.56524 0.0
C1720 C 0.96522 0.51493 0.54562 0.0
C1721 C 0.98503 0.50667 0.54166 0.0
H1722 H 0.00819 0.4973 0.56796 0.0
H1723 H 0.94604 0.52239 0.5606 0.0
C1724 C 0.95455 0.46164 0.61657 0.0
N1725 N 0.95253 0.46621 0.60508 0.0
C1726 C 0.94526 0.4429 0.62115 0.0
C1727 C 0.93247 0.43369 0.60193 0.0
C1728 C 0.94226 0.45246 0.59771 0.0
C1729 C 0.93343 0.42895 0.61387 0.0
H1730 H 0.96278 0.47284 0.62224 0.0
H1731 H 0.94081 0.45662 0.58861 0.0
O1732 O 0.97815 0.54167 0.58857 0.0
O1733 O 0.96407 0.51669 0.61057 0.0
O1734 O 0.9427 0.50535 0.58704 0.0
O1735 O 0.99123 0.49361 0.59096 0.0
H1736 H 0.02002 0.54049 0.58364 0.0
H1737 H 0.95785 0.5633 0.57195 0.0
H1738 H 0.03674 0.55669 0.5661 0.0
H1739 H 0.97569 0.5791 0.55461 0.0
H1740 H 0.00822 0.51105 0.64204 0.0
H1741 H 0.95404 0.55404 0.62057 0.0
H1742 H 0.99318 0.49663 0.62363 0.0
H1743 H 0.9698 0.56745 0.63902 0.0
H1744 H 0.92077 0.60525 0.59536 0.0
H1745 H 0.8843 0.55752 0.61474 0.0
H1746 H 0.06787 0.51755 0.61212 0.0
H1747 H 0.03276 0.57642 0.6197 0.0
H1748 H 0.9115 0.48464 0.59838 0.0
H1749 H 0.92481 0.53686 0.57466 0.0
H1750 H 0.87243 0.49314 0.59693 0.0
H1751 H 0.88548 0.54435 0.57358 0.0
H1752 H 0.98095 0.46489 0.57479 0.0
H1753 H 0.00955 0.47312 0.60861 0.0
H1754 H 0.98746 0.42536 0.57634 0.0
H1755 H 0.01544 0.43343 0.6096 0.0
H1756 H 0.01609 0.4937 0.547 0.0
H1757 H 0.95283 0.52009 0.53957 0.0
H1758 H 0.94682 0.43973 0.63036 0.0
H1759 H 0.92332 0.42366 0.59599 0.0
Li1760 Li 0.7562 0.28937 0.65022 0.0
Li1761 Li 0.73768 0.27633 0.66682 0.0
Li1762 Li 0.73118 0.26072 0.64705 0.0
Li1763 Li 0.71913 0.29811 0.65196 0.0
C1764 C 0.77847 0.25424 0.65839 0.0
N1765 N 0.82149 0.2437 0.6616 0.0
C1766 C 0.79101 0.26577 0.66637 0.0
C1767 C 0.78772 0.23728 0.65208 0.0
C1768 C 0.81276 0.26022 0.66785 0.0
C1769 C 0.80953 0.23221 0.65382 0.0
C1770 C 0.73403 0.31997 0.67104 0.0
C1771 C 0.70573 0.32793 0.68486 0.0
N1772 N 0.71662 0.34602 0.6882 0.0
C1773 C 0.74492 0.33865 0.67463 0.0
C1774 C 0.71426 0.31455 0.67621 0.0
C1775 C 0.73586 0.3516 0.68331 0.0
C1776 C 0.78408 0.32372 0.64724 0.0
N1777 N 0.78298 0.30205 0.64538 0.0
C1778 C 0.81871 0.30199 0.63735 0.0
C1779 C 0.79969 0.29109 0.6404 0.0
C1780 C 0.82044 0.32433 0.63947 0.0
C1781 C 0.8027 0.33521 0.64437 0.0
H1782 H 0.77035 0.33215 0.65089 0.0
H1783 H 0.7983 0.27395 0.63873 0.0
C1784 C 0.72949 0.25152 0.68696 0.0
N1785 N 0.73968 0.26944 0.68284 0.0
C1786 C 0.7308 0.24623 0.69874 0.0
C1787 C 0.75313 0.27788 0.70174 0.0
C1788 C 0.75153 0.28244 0.68992 0.0
C1789 C 0.74271 0.25955 0.70632 0.0
H1790 H 0.72048 0.24129 0.68107 0.0
H1791 H 0.75975 0.29642 0.6864 0.0
C1792 C 0.74684 0.29058 0.62831 0.0
N1793 N 0.77426 0.29713 0.60967 0.0
C1794 C 0.74845 0.31104 0.6232 0.0
C1795 C 0.75913 0.27343 0.62391 0.0
C1796 C 0.76244 0.31404 0.6138 0.0
C1797 C 0.77288 0.27707 0.61448 0.0
C1798 C 0.68976 0.26215 0.65599 0.0
C1799 C 0.68172 0.26579 0.64481 0.0
C1800 C 0.67783 0.24961 0.66381 0.0
C1801 C 0.66182 0.25682 0.64163 0.0
C1802 C 0.65798 0.24095 0.66031 0.0
N1803 N 0.65047 0.24469 0.64938 0.0
C1804 C 0.72029 0.21682 0.64578 0.0
C1805 C 0.71561 0.23605 0.62813 0.0
C1806 C 0.71024 0.19858 0.64106 0.0
N1807 N 0.72244 0.23512 0.63934 0.0
C1808 C 0.70559 0.21817 0.62305 0.0
C1809 C 0.70229 0.19927 0.62962 0.0
H1810 H 0.72543 0.21679 0.65476 0.0
H1811 H 0.71705 0.251 0.62331 0.0
C1812 C 0.70499 0.33884 0.64474 0.0
N1813 N 0.69794 0.32012 0.64964 0.0
C1814 C 0.69053 0.35573 0.64256 0.0
C1815 C 0.66193 0.33405 0.65091 0.0
C1816 C 0.67699 0.31767 0.65301 0.0
C1817 C 0.66857 0.35335 0.64549 0.0
H1818 H 0.72191 0.34068 0.64259 0.0
H1819 H 0.67186 0.30304 0.65733 0.0
O1820 O 0.75721 0.25948 0.65674 0.0
O1821 O 0.74284 0.30721 0.66253 0.0
O1822 O 0.73361 0.28737 0.63768 0.0
O1823 O 0.70957 0.27013 0.65915 0.0
H1824 H 0.7841 0.27906 0.67124 0.0
H1825 H 0.77817 0.22822 0.64587 0.0
H1826 H 0.82271 0.26909 0.67394 0.0
H1827 H 0.81695 0.21917 0.64898 0.0
H1828 H 0.69046 0.32391 0.68892 0.0
H1829 H 0.76028 0.34307 0.67078 0.0
H1830 H 0.70555 0.30018 0.67365 0.0
H1831 H 0.74415 0.36609 0.68616 0.0
H1832 H 0.83198 0.29301 0.63354 0.0
H1833 H 0.80309 0.35252 0.64586 0.0
H1834 H 0.72281 0.23173 0.70183 0.0
H1835 H 0.76225 0.2888 0.70724 0.0
H1836 H 0.73908 0.32449 0.62647 0.0
H1837 H 0.75836 0.25756 0.62788 0.0
H1838 H 0.7639 0.32981 0.60979 0.0
H1839 H 0.78258 0.26397 0.61104 0.0
H1840 H 0.69079 0.27537 0.63863 0.0
H1841 H 0.68386 0.24657 0.67248 0.0
H1842 H 0.65544 0.25946 0.633 0.0
H1843 H 0.64858 0.23121 0.66627 0.0
H1844 H 0.70775 0.18452 0.64652 0.0
H1845 H 0.69994 0.21936 0.61417 0.0
H1846 H 0.69655 0.3705 0.63866 0.0
H1847 H 0.6452 0.33139 0.6533 0.0
Li1848 Li 0.97259 0.48616 0.91694 0.0
Li1849 Li 0.96346 0.50527 0.89908 0.0
Li1850 Li 0.95137 0.46801 0.90238 0.0
Li1851 Li 0.98942 0.47646 0.89846 0.0
C1852 C 0.92191 0.49218 0.91251 0.0
N1853 N 0.87764 0.48645 0.91422 0.0
C1854 C 0.90787 0.50477 0.9058 0.0
C1855 C 0.91341 0.47673 0.92013 0.0
C1856 C 0.88555 0.50163 0.90679 0.0
C1857 C 0.89099 0.47405 0.92085 0.0
C1858 C 0.99797 0.52509 0.90681 0.0
C1859 C 0.01097 0.55634 0.89637 0.0
N1860 N 0.00847 0.56854 0.90611 0.0
C1861 C 0.99562 0.5379 0.91674 0.0
C1862 C 0.0058 0.53432 0.89655 0.0
C1863 C 0.001 0.55985 0.9162 0.0
C1864 C 0.99813 0.48891 0.93719 0.0
N1865 N 0.97747 0.48927 0.93314 0.0
C1866 C 0.96362 0.49355 0.95236 0.0
C1867 C 0.96034 0.49177 0.94041 0.0
C1868 C 0.98476 0.4929 0.95685 0.0
C1869 C 0.00217 0.49064 0.94909 0.0
H1870 H 0.01145 0.48711 0.93117 0.0
H1871 H 0.94413 0.49243 0.93694 0.0
C1872 C 0.94937 0.533 0.88128 0.0
N1873 N 0.95399 0.53202 0.89281 0.0
C1874 C 0.93814 0.5507 0.87679 0.0
C1875 C 0.9377 0.56659 0.89598 0.0
C1876 C 0.9488 0.54848 0.90013 0.0
C1877 C 0.93159 0.56745 0.88425 0.0
H1878 H 0.95327 0.51949 0.87571 0.0
H1879 H 0.95205 0.54692 0.90932 0.0
C1880 C 0.98546 0.44611 0.91965 0.0
N1881 N 0.00265 0.42634 0.9391 0.0
C1882 C 0.00784 0.44334 0.92067 0.0
C1883 C 0.97182 0.43871 0.92849 0.0
C1884 C 0.01621 0.43331 0.93057 0.0
C1885 C 0.98083 0.42882 0.93827 0.0
C1886 C 0.9712 0.47304 0.87784 0.0
C1887 C 0.96483 0.45249 0.87407 0.0
C1888 C 0.98562 0.4852 0.87114 0.0
C1889 C 0.9732 0.44436 0.86368 0.0
C1890 C 0.99365 0.47647 0.86081 0.0
N1891 N 0.98733 0.4564 0.85733 0.0
C1892 C 0.91215 0.45421 0.89235 0.0
C1893 C 0.92978 0.42764 0.90379 0.0
C1894 C 0.8954 0.43984 0.88977 0.0
N1895 N 0.92877 0.44795 0.89932 0.0
C1896 C 0.91351 0.41264 0.90132 0.0
C1897 C 0.89598 0.41864 0.89421 0.0
H1898 H 0.91197 0.47039 0.88876 0.0
H1899 H 0.94341 0.42296 0.90911 0.0
C1900 C 0.03328 0.47711 0.8906 0.0
N1901 N 0.01481 0.46523 0.89139 0.0
C1902 C 0.05191 0.46804 0.8857 0.0
C1903 C 0.03197 0.4349 0.88243 0.0
C1904 C 0.01389 0.44447 0.88753 0.0
C1905 C 0.05133 0.44667 0.88153 0.0
H1906 H 0.03362 0.4935 0.89389 0.0
H1907 H 0.9991 0.43528 0.88853 0.0
O1908 O 0.94384 0.49479 0.91156 0.0
O1909 O 0.99255 0.50365 0.90711 0.0
O1910 O 0.97698 0.45633 0.91015 0.0
O1911 O 0.96351 0.48113 0.8881 0.0
H1912 H 0.91409 0.5167 0.8998 0.0
H1913 H 0.92401 0.46666 0.9253 0.0
H1914 H 0.87451 0.51121 0.90161 0.0
H1915 H 0.88421 0.46205 0.92665 0.0
H1916 H 0.01693 0.56373 0.88848 0.0
H1917 H 0.98952 0.53103 0.92473 0.0
H1918 H 0.00769 0.52462 0.8888 0.0
H1919 H 0.99917 0.56999 0.9238 0.0
H1920 H 0.94976 0.49569 0.95801 0.0
H1921 H 0.01872 0.48988 0.95217 0.0
H1922 H 0.93375 0.55083 0.86768 0.0
H1923 H 0.93263 0.579 0.90205 0.0
H1924 H 0.01865 0.44907 0.91395 0.0
H1925 H 0.95447 0.44085 0.92787 0.0
H1926 H 0.0335 0.43114 0.93151 0.0
H1927 H 0.97047 0.42316 0.94521 0.0
H1928 H 0.95373 0.44283 0.87916 0.0
H1929 H 0.99073 0.50111 0.87395 0.0
H1930 H 0.96851 0.42844 0.86068 0.0
H1931 H 0.00494 0.48563 0.85557 0.0
H1932 H 0.88216 0.44533 0.88437 0.0
H1933 H 0.91498 0.39637 0.90473 0.0
H1934 H 0.06657 0.47761 0.88516 0.0
H1935 H 0.03098 0.41826 0.87951 0.0
Li1936 Li 0.76081 0.71901 0.16786 0.0
Li1937 Li 0.74072 0.70818 0.1503 0.0
Li1938 Li 0.77758 0.69779 0.15296 0.0
Li1939 Li 0.76934 0.73459 0.14899 0.0
C1940 C 0.75946 0.67055 0.16739 0.0
N1941 N 0.77489 0.63183 0.17608 0.0
C1942 C 0.75147 0.65093 0.16314 0.0
C1943 C 0.77523 0.6705 0.1761 0.0
C1944 C 0.7595 0.63152 0.16764 0.0
C1945 C 0.78284 0.65075 0.18037 0.0
C1946 C 0.72331 0.74265 0.16363 0.0
C1947 C 0.69705 0.76897 0.17001 0.0
N1948 N 0.68611 0.75309 0.17571 0.0
C1949 C 0.71182 0.72659 0.16956 0.0
C1950 C 0.71591 0.76402 0.16386 0.0
C1951 C 0.69304 0.73219 0.17562 0.0
C1952 C 0.77078 0.74152 0.1883 0.0
N1953 N 0.75916 0.72469 0.18397 0.0
C1954 C 0.7457 0.71602 0.20284 0.0
C1955 C 0.74676 0.71198 0.19093 0.0
C1956 C 0.75765 0.73321 0.20763 0.0
C1957 C 0.7703 0.74607 0.20018 0.0
H1958 H 0.78052 0.7513 0.18252 0.0
H1959 H 0.73771 0.69867 0.18723 0.0
C1960 C 0.71655 0.67829 0.13864 0.0
N1961 N 0.71438 0.69797 0.14376 0.0
C1962 C 0.69882 0.66827 0.13347 0.0
C1963 C 0.67684 0.69915 0.13871 0.0
C1964 C 0.69515 0.70874 0.14368 0.0
C1965 C 0.67859 0.67862 0.13356 0.0
H1966 H 0.73217 0.6704 0.13859 0.0
H1967 H 0.69396 0.72474 0.1474 0.0
C1968 C 0.81041 0.72792 0.15763 0.0
N1969 N 0.85222 0.73766 0.15089 0.0
C1970 C 0.81737 0.7232 0.14636 0.0
C1971 C 0.82471 0.7376 0.16547 0.0
C1972 C 0.83857 0.72825 0.14312 0.0
C1973 C 0.84579 0.74239 0.1619 0.0
C1974 C 0.75584 0.71604 0.12832 0.0
C1975 C 0.76197 0.70579 0.11801 0.0
C1976 C 0.7409 0.73305 0.12797 0.0
C1977 C 0.7531 0.71278 0.1075 0.0
C1978 C 0.7324 0.73955 0.11728 0.0
N1979 N 0.73863 0.72937 0.10735 0.0
C1980 C 0.79195 0.66027 0.14168 0.0
C1981 C 0.81591 0.67278 0.15629 0.0
C1982 C 0.80602 0.64336 0.13891 0.0
N1983 N 0.79723 0.67466 0.15013 0.0
C1984 C 0.83061 0.65634 0.15368 0.0
C1985 C 0.82589 0.64142 0.1448 0.0
H1986 H 0.77681 0.66204 0.13705 0.0
H1987 H 0.81956 0.68425 0.1631 0.0
C1988 C 0.77999 0.77844 0.14872 0.0
N1989 N 0.77994 0.76035 0.14201 0.0
C1990 C 0.7903 0.79722 0.14485 0.0
C1991 C 0.79968 0.77857 0.12709 0.0
C1992 C 0.78933 0.76012 0.13133 0.0
C1993 C 0.80061 0.79731 0.13398 0.0
H1994 H 0.77267 0.77801 0.15725 0.0
H1995 H 0.78965 0.74536 0.1263 0.0
O1996 O 0.75226 0.68974 0.16289 0.0
O1997 O 0.74195 0.73773 0.15778 0.0
O1998 O 0.78965 0.72343 0.16101 0.0
O1999 O 0.76434 0.70916 0.13865 0.0
H2000 H 0.73924 0.65066 0.15642 0.0
H2001 H 0.7818 0.68554 0.17938 0.0
H2002 H 0.75351 0.61621 0.16441 0.0
H2003 H 0.79514 0.65046 0.18706 0.0
H2004 H 0.69113 0.78545 0.17026 0.0
H2005 H 0.71719 0.70994 0.16942 0.0
H2006 H 0.72469 0.77664 0.15935 0.0
H2007 H 0.68397 0.71992 0.18022 0.0
H2008 H 0.73547 0.70588 0.2082 0.0
H2009 H 0.78001 0.7593 0.20349 0.0
H2010 H 0.70084 0.65237 0.12965 0.0
H2011 H 0.66156 0.70776 0.13879 0.0
H2012 H 0.80655 0.71575 0.14015 0.0
H2013 H 0.81955 0.7414 0.17422 0.0
H2014 H 0.84415 0.7247 0.13442 0.0
H2015 H 0.85703 0.74989 0.16787 0.0
H2016 H 0.77346 0.69257 0.11815 0.0
H2017 H 0.73589 0.74118 0.13583 0.0
H2018 H 0.75772 0.705 0.09945 0.0
H2019 H 0.72085 0.75268 0.11688 0.0
H2020 H 0.80137 0.63203 0.13219 0.0
H2021 H 0.84577 0.65577 0.15839 0.0
H2022 H 0.79056 0.81138 0.1504 0.0
H2023 H 0.80774 0.77785 0.11874 0.0
Li2024 Li 0.53885 0.49179 0.40042 0.0
Li2025 Li 0.52942 0.51363 0.41733 0.0
Li2026 Li 0.51334 0.52097 0.39828 0.0
Li2027 Li 0.55142 0.52931 0.40233 0.0
C2028 C 0.50247 0.47434 0.40835 0.0
N2029 N 0.48835 0.43192 0.40897 0.0
C2030 C 0.50343 0.46258 0.4187 0.0
C2031 C 0.49415 0.46462 0.39834 0.0
C2032 C 0.49625 0.44113 0.41884 0.0
C2033 C 0.48716 0.44313 0.39882 0.0
C2034 C 0.5802 0.50597 0.41351 0.0
C2035 C 0.61154 0.52428 0.42125 0.0
N2036 N 0.62458 0.51078 0.41507 0.0
C2037 C 0.59392 0.49224 0.40727 0.0
C2038 C 0.58907 0.52208 0.4206 0.0
C2039 C 0.61631 0.49494 0.40817 0.0
C2040 C 0.55313 0.46043 0.38432 0.0
N2041 N 0.54749 0.46377 0.39558 0.0
C2042 C 0.55971 0.42841 0.40081 0.0
C2043 C 0.5504 0.44822 0.40378 0.0
C2044 C 0.56663 0.42477 0.38934 0.0
C2045 C 0.56277 0.44096 0.38099 0.0
H2046 H 0.55113 0.47328 0.37805 0.0
H2047 H 0.54634 0.45155 0.41273 0.0
C2048 C 0.50311 0.51355 0.43737 0.0
N2049 N 0.52388 0.51245 0.43353 0.0
C2050 C 0.49863 0.51248 0.44924 0.0
C2051 C 0.537 0.5089 0.45294 0.0
C2052 C 0.54072 0.51008 0.44101 0.0
C2053 C 0.51571 0.51007 0.4572 0.0
H2054 H 0.49002 0.51511 0.43119 0.0
H2055 H 0.55704 0.50899 0.43772 0.0
C2056 C 0.53307 0.52025 0.37761 0.0
N2057 N 0.51956 0.53242 0.35569 0.0
C2058 C 0.54062 0.5395 0.37267 0.0
C2059 C 0.51883 0.50708 0.37135 0.0
C2060 C 0.53356 0.54539 0.36159 0.0
C2061 C 0.51213 0.51356 0.3603 0.0
C2062 C 0.51698 0.55392 0.41835 0.0
C2063 C 0.49467 0.55754 0.41888 0.0
C2064 C 0.53036 0.56179 0.42718 0.0
C2065 C 0.48608 0.56888 0.42832 0.0
C2066 C 0.52114 0.57301 0.43649 0.0
N2067 N 0.49938 0.57628 0.43686 0.0
C2068 C 0.46883 0.52114 0.39222 0.0
C2069 C 0.48957 0.5502 0.38464 0.0
C2070 C 0.44987 0.53006 0.38765 0.0
N2071 N 0.48812 0.53136 0.39069 0.0
C2072 C 0.47113 0.55942 0.3797 0.0
C2073 C 0.45095 0.54949 0.38135 0.0
H2074 H 0.46809 0.50644 0.39731 0.0
H2075 H 0.50497 0.55839 0.38393 0.0
C2076 C 0.59126 0.54219 0.39231 0.0
N2077 N 0.57422 0.54892 0.39885 0.0
C2078 C 0.6079 0.55657 0.3895 0.0
C2079 C 0.58889 0.58461 0.40001 0.0
C2080 C 0.57273 0.56965 0.40268 0.0
C2081 C 0.60681 0.57817 0.39331 0.0
H2082 H 0.59185 0.52566 0.38923 0.0
H2083 H 0.55879 0.57468 0.40766 0.0
O2084 O 0.5096 0.49528 0.40801 0.0
O2085 O 0.55822 0.50377 0.41263 0.0
O2086 O 0.53964 0.51429 0.38849 0.0
O2087 O 0.52565 0.54245 0.40932 0.0
H2088 H 0.50986 0.46985 0.42653 0.0
H2089 H 0.49319 0.47355 0.39028 0.0
H2090 H 0.497 0.43178 0.42677 0.0
H2091 H 0.48078 0.43536 0.39113 0.0
H2092 H 0.61861 0.53678 0.42663 0.0
H2093 H 0.58739 0.47973 0.40171 0.0
H2094 H 0.5787 0.53298 0.42541 0.0
H2095 H 0.62711 0.48448 0.40336 0.0
H2096 H 0.56207 0.41637 0.40752 0.0
H2097 H 0.56819 0.43915 0.3721 0.0
H2098 H 0.48196 0.51312 0.45213 0.0
H2099 H 0.55066 0.50726 0.45877 0.0
H2100 H 0.55165 0.54988 0.37739 0.0
H2101 H 0.51294 0.49209 0.37503 0.0
H2102 H 0.53917 0.5603 0.35768 0.0
H2103 H 0.50101 0.50359 0.35539 0.0
H2104 H 0.48406 0.55151 0.41215 0.0
H2105 H 0.54765 0.559 0.42694 0.0
H2106 H 0.46883 0.57172 0.42887 0.0
H2107 H 0.53128 0.57904 0.44343 0.0
H2108 H 0.43452 0.52206 0.38914 0.0
H2109 H 0.4725 0.57465 0.3751 0.0
H2110 H 0.62146 0.55079 0.3844 0.0
H2111 H 0.58705 0.60118 0.40292 0.0
Li2112 Li 0.24327 0.2868 0.14849 0.0
Li2113 Li 0.28026 0.29959 0.15212 0.0
Li2114 Li 0.27276 0.26165 0.14742 0.0
Li2115 Li 0.26258 0.27694 0.16621 0.0
C2116 C 0.27553 0.28141 0.12714 0.0
N2117 N 0.29204 0.26728 0.10617 0.0
C2118 C 0.29591 0.28841 0.12343 0.0
C2119 C 0.26347 0.26739 0.12014 0.0
C2120 C 0.30399 0.28105 0.1128 0.0
C2121 C 0.27213 0.26038 0.10959 0.0
C2122 C 0.25518 0.3278 0.16263 0.0
C2123 C 0.27246 0.35883 0.17136 0.0
N2124 N 0.25955 0.37212 0.16497 0.0
C2125 C 0.24204 0.34177 0.15618 0.0
C2126 C 0.27046 0.33638 0.17032 0.0
C2127 C 0.24451 0.36412 0.15749 0.0
C2128 C 0.19906 0.29881 0.14941 0.0
N2129 N 0.21636 0.29593 0.14226 0.0
C2130 C 0.19799 0.31357 0.12668 0.0
C2131 C 0.21599 0.30262 0.13102 0.0
C2132 C 0.18025 0.31755 0.13399 0.0
C2133 C 0.18057 0.30941 0.14537 0.0
H2134 H 0.20011 0.29405 0.15842 0.0
H2135 H 0.23015 0.3006 0.12563 0.0
C2136 C 0.32039 0.32135 0.1538 0.0
N2137 N 0.29997 0.32268 0.14949 0.0
C2138 C 0.33539 0.33768 0.1515 0.0
C2139 C 0.30797 0.35657 0.14046 0.0
C2140 C 0.29358 0.33974 0.14288 0.0
C2141 C 0.3293 0.3556 0.1447 0.0
H2142 H 0.32517 0.30736 0.15883 0.0
H2143 H 0.27732 0.34017 0.1394 0.0
C2144 C 0.22448 0.25086 0.15557 0.0
N2145 N 0.18162 0.23822 0.15471 0.0
C2146 C 0.21173 0.25157 0.16559 0.0
C2147 C 0.21551 0.24356 0.14514 0.0
C2148 C 0.19007 0.24514 0.16497 0.0
C2149 C 0.19378 0.23731 0.14487 0.0
C2150 C 0.30296 0.26491 0.16871 0.0
C2151 C 0.30636 0.24257 0.1693 0.0
C2152 C 0.30997 0.27816 0.17781 0.0
C2153 C 0.31663 0.23382 0.17903 0.0
C2154 C 0.32013 0.26877 0.18741 0.0
N2155 N 0.32322 0.24698 0.18782 0.0
C2156 C 0.3053 0.23881 0.13596 0.0
C2157 C 0.27331 0.2183 0.13889 0.0
C2158 C 0.31539 0.22122 0.13066 0.0
N2159 N 0.28462 0.23708 0.13987 0.0
C2160 C 0.28292 0.20014 0.1338 0.0
C2161 C 0.30424 0.20152 0.12962 0.0
H2162 H 0.31406 0.25381 0.13712 0.0
H2163 H 0.25699 0.21732 0.14224 0.0
C2164 C 0.25685 0.28767 0.18984 0.0
N2165 N 0.25965 0.27097 0.18232 0.0
C2166 C 0.25545 0.28377 0.20175 0.0
C2167 C 0.25933 0.24548 0.19792 0.0
C2168 C 0.26066 0.25014 0.18607 0.0
C2169 C 0.25684 0.26245 0.20594 0.0
H2170 H 0.25572 0.30403 0.18661 0.0
H2171 H 0.26272 0.23717 0.17986 0.0
O2172 O 0.26749 0.28812 0.1376 0.0
O2173 O 0.25322 0.30585 0.16137 0.0
O2174 O 0.24566 0.25724 0.15597 0.0
O2175 O 0.2925 0.27374 0.15938 0.0
H2176 H 0.30548 0.29922 0.12874 0.0
H2177 H 0.24766 0.26186 0.12289 0.0
H2178 H 0.31978 0.28623 0.10985 0.0
H2179 H 0.26303 0.24942 0.10412 0.0
H2180 H 0.28433 0.36568 0.17721 0.0
H2181 H 0.23018 0.33548 0.15017 0.0
H2182 H 0.28092 0.32583 0.17529 0.0
H2183 H 0.2345 0.37512 0.15252 0.0
H2184 H 0.19829 0.31971 0.11787 0.0
H2185 H 0.16733 0.31256 0.1513 0.0
H2186 H 0.35175 0.33593 0.15473 0.0
H2187 H 0.30243 0.37011 0.13529 0.0
H2188 H 0.21841 0.25722 0.17373 0.0
H2189 H 0.22518 0.24289 0.13731 0.0
H2190 H 0.17998 0.2457 0.17264 0.0
H2191 H 0.18658 0.23174 0.13685 0.0
H2192 H 0.30093 0.23206 0.16237 0.0
H2193 H 0.30734 0.29547 0.17753 0.0
H2194 H 0.31929 0.21654 0.17963 0.0
H2195 H 0.3255 0.27881 0.19455 0.0
H2196 H 0.33199 0.22281 0.12774 0.0
H2197 H 0.27383 0.18519 0.13316 0.0
H2198 H 0.2531 0.2973 0.2076 0.0
H2199 H 0.26063 0.22882 0.20077 0.0
Li2200 Li 0.48229 0.52224 0.89663 0.0
Li2201 Li 0.46779 0.5133 0.91581 0.0
Li2202 Li 0.45787 0.4928 0.89872 0.0
Li2203 Li 0.44486 0.53013 0.90124 0.0
C2204 C 0.49695 0.47636 0.9033 0.0
N2205 N 0.516 0.43705 0.89809 0.0
C2206 C 0.50345 0.46245 0.91222 0.0
C2207 C 0.50046 0.47041 0.89175 0.0
C2208 C 0.51298 0.44262 0.90941 0.0
C2209 C 0.51001 0.45044 0.88928 0.0
C2210 C 0.48801 0.5537 0.91344 0.0
C2211 C 0.50466 0.58702 0.91977 0.0
N2212 N 0.52274 0.57587 0.92285 0.0
C2213 C 0.50682 0.54258 0.91666 0.0
C2214 C 0.48696 0.57612 0.91498 0.0
C2215 C 0.52417 0.55407 0.92141 0.0
C2216 C 0.50476 0.5544 0.88462 0.0
N2217 N 0.50681 0.53394 0.88882 0.0
C2218 C 0.54427 0.53328 0.88363 0.0
C2219 C 0.52606 0.52328 0.88845 0.0
C2220 C 0.54253 0.55436 0.87915 0.0
C2221 C 0.52241 0.56485 0.87959 0.0
H2222 H 0.48955 0.56287 0.88552 0.0
H2223 H 0.52748 0.50732 0.89219 0.0
C2224 C 0.47215 0.49085 0.93681 0.0
N2225 N 0.47224 0.51104 0.93213 0.0
C2226 C 0.47531 0.48799 0.94872 0.0
C2227 C 0.47763 0.52685 0.95084 0.0
C2228 C 0.47439 0.52894 0.93891 0.0
C2229 C 0.47834 0.50615 0.95588 0.0
H2230 H 0.46953 0.47696 0.93127 0.0
H2231 H 0.4734 0.54488 0.93511 0.0
C2232 C 0.46077 0.52452 0.87634 0.0
N2233 N 0.47039 0.54179 0.85479 0.0
C2234 C 0.45465 0.54572 0.87362 0.0
C2235 C 0.47144 0.51199 0.868 0.0
C2236 C 0.45975 0.55419 0.86271 0.0
C2237 C 0.47626 0.52105 0.85719 0.0
C2238 C 0.42384 0.50944 0.91948 0.0
C2239 C 0.40832 0.4943 0.92293 0.0
C2240 C 0.4244 0.52981 0.92477 0.0
C2241 C 0.39356 0.4998 0.93164 0.0
C2242 C 0.40937 0.53468 0.93345 0.0
N2243 N 0.39438 0.51971 0.93667 0.0
C2244 C 0.4503 0.44777 0.90075 0.0
C2245 C 0.44071 0.46335 0.88265 0.0
C2246 C 0.44225 0.42768 0.89724 0.0
N2247 N 0.44927 0.46506 0.89347 0.0
C2248 C 0.4323 0.44366 0.87882 0.0
C2249 C 0.43273 0.42551 0.8862 0.0
H2250 H 0.45694 0.44972 0.90938 0.0
H2251 H 0.43975 0.47749 0.87714 0.0
C2252 C 0.42416 0.57064 0.90056 0.0
N2253 N 0.42118 0.5491 0.89884 0.0
C2254 C 0.40734 0.58516 0.89845 0.0
C2255 C 0.38454 0.55499 0.893 0.0
C2256 C 0.40186 0.54103 0.89522 0.0
C2257 C 0.38722 0.57742 0.89453 0.0
H2258 H 0.43975 0.57655 0.90335 0.0
H2259 H 0.40001 0.52378 0.89396 0.0
O2260 O 0.48726 0.49571 0.90586 0.0
O2261 O 0.47089 0.5429 0.90855 0.0
O2262 O 0.45603 0.51598 0.88701 0.0
O2263 O 0.43845 0.50417 0.91101 0.0
H2264 H 0.5013 0.46693 0.92121 0.0
H2265 H 0.49577 0.4811 0.88477 0.0
H2266 H 0.51801 0.43166 0.91622 0.0
H2267 H 0.51267 0.4456 0.88037 0.0
H2268 H 0.50402 0.60437 0.92101 0.0
H2269 H 0.5081 0.52528 0.91556 0.0
H2270 H 0.47265 0.58507 0.91251 0.0
H2271 H 0.53878 0.54565 0.92394 0.0
H2272 H 0.55958 0.52473 0.8835 0.0
H2273 H 0.52054 0.58131 0.87649 0.0
H2274 H 0.47569 0.47174 0.95224 0.0
H2275 H 0.4793 0.54131 0.95609 0.0
H2276 H 0.44635 0.55567 0.87992 0.0
H2277 H 0.47586 0.49541 0.86981 0.0
H2278 H 0.45529 0.57064 0.86055 0.0
H2279 H 0.48461 0.51155 0.85068 0.0
H2280 H 0.40773 0.47845 0.91892 0.0
H2281 H 0.43634 0.54172 0.92225 0.0
H2282 H 0.38145 0.48824 0.9344 0.0
H2283 H 0.40963 0.55037 0.93762 0.0
H2284 H 0.44316 0.41413 0.90318 0.0
H2285 H 0.42472 0.44298 0.87035 0.0
H2286 H 0.41028 0.60232 0.89955 0.0
H2287 H 0.36926 0.54831 0.8901 0.0
Li2288 Li 0.22624 0.73878 0.64643 0.0
Li2289 Li 0.237 0.7239 0.6653 0.0
Li2290 Li 0.25663 0.71479 0.64748 0.0
Li2291 Li 0.22021 0.70049 0.6511 0.0
C2292 C 0.27414 0.75121 0.65475 0.0
N2293 N 0.31662 0.76509 0.65413 0.0
C2294 C 0.28667 0.75095 0.66485 0.0
C2295 C 0.28311 0.7587 0.64436 0.0
C2296 C 0.30814 0.758 0.66435 0.0
C2297 C 0.30465 0.76558 0.64422 0.0
C2298 C 0.19489 0.73345 0.66741 0.0
C2299 C 0.17708 0.72785 0.68581 0.0
N2300 N 0.17059 0.7489 0.68578 0.0
C2301 C 0.18797 0.75499 0.66753 0.0
C2302 C 0.18931 0.71972 0.67659 0.0
C2303 C 0.17571 0.7625 0.6769 0.0
C2304 C 0.19328 0.76093 0.63471 0.0
N2305 N 0.21363 0.76313 0.63904 0.0
C2306 C 0.21408 0.80067 0.63406 0.0
C2307 C 0.22418 0.78244 0.63878 0.0
C2308 C 0.19307 0.79884 0.6295 0.0
C2309 C 0.18274 0.77861 0.62975 0.0
H2310 H 0.18508 0.74552 0.63534 0.0
H2311 H 0.24023 0.78376 0.64245 0.0
C2312 C 0.24872 0.71434 0.68838 0.0
N2313 N 0.23992 0.72972 0.68141 0.0
C2314 C 0.25074 0.71799 0.70029 0.0
C2315 C 0.23463 0.75329 0.69759 0.0
C2316 C 0.23337 0.74912 0.68571 0.0
C2317 C 0.24339 0.7376 0.70511 0.0
H2318 H 0.2543 0.69926 0.68469 0.0
H2319 H 0.22693 0.76127 0.67991 0.0
C2320 C 0.22418 0.71891 0.62611 0.0
N2321 N 0.20717 0.7323 0.60512 0.0
C2322 C 0.20421 0.71092 0.62235 0.0
C2323 C 0.2356 0.73354 0.61917 0.0
C2324 C 0.19587 0.71792 0.61171 0.0
C2325 C 0.22669 0.74017 0.6086 0.0
C2326 C 0.24641 0.67359 0.66204 0.0
C2327 C 0.25897 0.65966 0.65525 0.0
C2328 C 0.23269 0.66504 0.67054 0.0
C2329 C 0.25744 0.63733 0.65701 0.0
C2330 C 0.23159 0.64262 0.67201 0.0
N2331 N 0.24388 0.62935 0.66528 0.0
C2332 C 0.30102 0.70386 0.64861 0.0
C2333 C 0.28456 0.69969 0.63013 0.0
C2334 C 0.31973 0.69344 0.64472 0.0
N2335 N 0.28385 0.70644 0.64135 0.0
C2336 C 0.30278 0.6889 0.62594 0.0
C2337 C 0.32037 0.68516 0.63338 0.0
H2338 H 0.2997 0.70865 0.65761 0.0
H2339 H 0.27048 0.70146 0.62464 0.0
C2340 C 0.1811 0.67719 0.65304 0.0
N2341 N 0.20148 0.67654 0.64863 0.0
C2342 C 0.16664 0.66034 0.65084 0.0
C2343 C 0.19448 0.64235 0.63968 0.0
C2344 C 0.20834 0.65966 0.64202 0.0
C2345 C 0.1732 0.64261 0.64402 0.0
H2346 H 0.17588 0.69104 0.65803 0.0
H2347 H 0.22452 0.6598 0.63843 0.0
O2348 O 0.25316 0.74418 0.65503 0.0
O2349 O 0.20705 0.72584 0.65836 0.0
O2350 O 0.23249 0.71251 0.63657 0.0
O2351 O 0.24742 0.69549 0.66035 0.0
H2352 H 0.27996 0.74522 0.67297 0.0
H2353 H 0.27358 0.75904 0.63648 0.0
H2354 H 0.31808 0.75781 0.67209 0.0
H2355 H 0.31186 0.77131 0.63622 0.0
H2356 H 0.17277 0.71744 0.693 0.0
H2357 H 0.19216 0.76587 0.66052 0.0
H2358 H 0.19455 0.70301 0.67664 0.0
H2359 H 0.17033 0.77916 0.67714 0.0
H2360 H 0.22254 0.81603 0.63401 0.0
H2361 H 0.16639 0.77666 0.62652 0.0
H2362 H 0.25818 0.70561 0.70561 0.0
H2363 H 0.22848 0.76855 0.70083 0.0
H2364 H 0.19516 0.69961 0.62762 0.0
H2365 H 0.2511 0.73983 0.62196 0.0
H2366 H 0.18038 0.71197 0.60871 0.0
H2367 H 0.23527 0.75159 0.60317 0.0
H2368 H 0.26963 0.66597 0.64862 0.0
H2369 H 0.22289 0.6756 0.67587 0.0
H2370 H 0.26698 0.62635 0.65178 0.0
H2371 H 0.22095 0.63577 0.67851 0.0
H2372 H 0.33285 0.69047 0.65075 0.0
H2373 H 0.30272 0.68261 0.61715 0.0
H2374 H 0.15028 0.66156 0.65415 0.0
H2375 H 0.20034 0.629 0.63447 0.0
Li2376 Li 0.04945 0.47268 0.40185 0.0
Li2377 Li 0.035 0.50935 0.39934 0.0
Li2378 Li 0.02596 0.4879 0.41651 0.0
Li2379 Li 0.01127 0.479 0.39729 0.0
C2380 C 0.07625 0.49767 0.41343 0.0
N2381 N 0.12055 0.49468 0.4163 0.0
C2382 C 0.09009 0.51059 0.40678 0.0
C2383 C 0.08493 0.48334 0.42159 0.0
C2384 C 0.11245 0.50883 0.40835 0.0
C2385 C 0.10737 0.48202 0.42289 0.0
C2386 C 0.0312 0.47924 0.37698 0.0
C2387 C 0.00992 0.48337 0.35956 0.0
N2388 N 0.01789 0.46427 0.35553 0.0
C2389 C 0.03929 0.45971 0.37264 0.0
C2390 C 0.01651 0.49125 0.37037 0.0
C2391 C 0.03232 0.4524 0.36178 0.0
C2392 C 0.07293 0.43369 0.40329 0.0
N2393 N 0.07343 0.45416 0.39899 0.0
C2394 C 0.10749 0.44743 0.38982 0.0
C2395 C 0.09017 0.46121 0.39233 0.0
C2396 C 0.10739 0.42611 0.3941 0.0
C2397 C 0.08981 0.41935 0.40095 0.0
H2398 H 0.0592 0.42834 0.40832 0.0
H2399 H 0.08995 0.47748 0.38886 0.0
C2400 C 0.04586 0.55287 0.40271 0.0
N2401 N 0.04276 0.53755 0.39442 0.0
C2402 C 0.05482 0.57286 0.3998 0.0
C2403 C 0.05691 0.56104 0.37981 0.0
C2404 C 0.04769 0.54133 0.3831 0.0
C2405 C 0.06113 0.57692 0.38827 0.0
H2406 H 0.04226 0.5492 0.41169 0.0
H2407 H 0.0455 0.52865 0.37674 0.0
C2408 C 0.0162 0.44593 0.41747 0.0
N2409 N 0.0001 0.42044 0.43521 0.0
C2410 C 0.99463 0.43907 0.41726 0.0
C2411 C 0.02961 0.43971 0.42666 0.0
C2412 C 0.9868 0.4262 0.42631 0.0
C2413 C 0.02115 0.42687 0.43556 0.0
C2414 C 0.99835 0.52575 0.40694 0.0
C2415 C 0.99852 0.53742 0.41734 0.0
C2416 C 0.99077 0.53555 0.39679 0.0
C2417 C 0.99131 0.55886 0.41737 0.0
C2418 C 0.98374 0.55703 0.39717 0.0
N2419 N 0.98416 0.56815 0.40737 0.0
C2420 C 0.03557 0.49851 0.43966 0.0
C2421 C 0.00088 0.4828 0.437 0.0
C2422 C 0.03194 0.50042 0.45158 0.0
N2423 N 0.02019 0.48965 0.43268 0.0
C2424 C 0.99676 0.48396 0.4489 0.0
C2425 C 0.01241 0.49292 0.45631 0.0
H2426 H 0.05058 0.50425 0.43596 0.0
H2427 H 0.98868 0.47647 0.43119 0.0
C2428 C 0.98951 0.44702 0.38467 0.0
N2429 N 0.98708 0.46696 0.38948 0.0
C2430 C 0.97196 0.43671 0.37945 0.0
C2431 C 0.94958 0.46747 0.38443 0.0
C2432 C 0.96769 0.47735 0.38942 0.0
C2433 C 0.95162 0.44684 0.37942 0.0
H2434 H 0.00499 0.43891 0.38515 0.0
H2435 H 0.96618 0.49306 0.39348 0.0
O2436 O 0.05434 0.49888 0.41189 0.0
O2437 O 0.03758 0.48652 0.38766 0.0
O2438 O 0.02413 0.45867 0.40874 0.0
O2439 O 0.0056 0.50485 0.4067 0.0
H2440 H 0.08367 0.5217 0.40039 0.0
H2441 H 0.07443 0.47322 0.42679 0.0
H2442 H 0.12336 0.51865 0.40323 0.0
H2443 H 0.11431 0.47091 0.42912 0.0
H2444 H 0.99845 0.49242 0.35439 0.0
H2445 H 0.05064 0.45019 0.37765 0.0
H2446 H 0.01012 0.5064 0.37361 0.0
H2447 H 0.03835 0.43726 0.35834 0.0
H2448 H 0.12074 0.45341 0.38457 0.0
H2449 H 0.08873 0.40294 0.40421 0.0
H2450 H 0.05751 0.58469 0.40659 0.0
H2451 H 0.06182 0.56325 0.37086 0.0
H2452 H 0.98399 0.44377 0.41024 0.0
H2453 H 0.04631 0.44494 0.42699 0.0
H2454 H 0.97013 0.42085 0.42628 0.0
H2455 H 0.03131 0.42206 0.44277 0.0
H2456 H 0.00431 0.53008 0.42528 0.0
H2457 H 0.99051 0.52671 0.38868 0.0
H2458 H 0.99145 0.56814 0.42534 0.0
H2459 H 0.97796 0.56487 0.38936 0.0
H2460 H 0.04434 0.50746 0.45706 0.0
H2461 H 0.98139 0.47831 0.45226 0.0
H2462 H 0.97409 0.42064 0.37587 0.0
H2463 H 0.93414 0.47577 0.38457 0.0
Li2464 Li 0.25899 0.71992 0.33259 0.0
Li2465 Li 0.26703 0.73416 0.35206 0.0
Li2466 Li 0.27636 0.69691 0.34816 0.0
Li2467 Li 0.23841 0.70982 0.34955 0.0
C2468 C 0.3031 0.73863 0.33931 0.0
N2469 N 0.33341 0.7715 0.33828 0.0
C2470 C 0.29702 0.75938 0.33571 0.0
C2471 C 0.32468 0.73454 0.34223 0.0
C2472 C 0.31255 0.7758 0.3353 0.0
C2473 C 0.33974 0.75138 0.34168 0.0
C2474 C 0.21974 0.74527 0.3435 0.0
C2475 C 0.19082 0.76228 0.35426 0.0
N2476 N 0.17649 0.75592 0.34597 0.0
C2477 C 0.20472 0.7391 0.33505 0.0
C2478 C 0.21275 0.75712 0.35315 0.0
C2479 C 0.18294 0.74455 0.33647 0.0
C2480 C 0.24059 0.71651 0.31025 0.0
N2481 N 0.25795 0.72433 0.31618 0.0
C2482 C 0.27352 0.73784 0.29863 0.0
C2483 C 0.27449 0.73441 0.31059 0.0
C2484 C 0.2554 0.7307 0.29232 0.0
C2485 C 0.2389 0.71966 0.29828 0.0
H2486 H 0.22806 0.70776 0.31482 0.0
H2487 H 0.28856 0.73965 0.31535 0.0
C2488 C 0.29646 0.75584 0.3667 0.0
N2489 N 0.27843 0.75873 0.3601 0.0
C2490 C 0.30666 0.77354 0.37184 0.0
C2491 C 0.27961 0.79692 0.36329 0.0
C2492 C 0.26984 0.77872 0.35836 0.0
C2493 C 0.29839 0.79445 0.37004 0.0
H2494 H 0.30328 0.73982 0.36767 0.0
H2495 H 0.25589 0.78064 0.35279 0.0
C2496 C 0.25721 0.67543 0.3293 0.0
N2497 N 0.26958 0.64595 0.3125 0.0
C2498 C 0.24362 0.65815 0.32642 0.0
C2499 C 0.27709 0.67773 0.32361 0.0
C2500 C 0.25017 0.64341 0.31792 0.0
C2501 C 0.28304 0.66265 0.31515 0.0
C2502 C 0.26448 0.7143 0.373 0.0
C2503 C 0.27944 0.70286 0.37974 0.0
C2504 C 0.25334 0.73174 0.37792 0.0
C2505 C 0.28341 0.70941 0.39116 0.0
C2506 C 0.25777 0.73782 0.38936 0.0
N2507 N 0.27261 0.72664 0.39569 0.0
C2508 C 0.3144 0.68097 0.35781 0.0
C2509 C 0.29393 0.65357 0.34847 0.0
C2510 C 0.33006 0.66593 0.36111 0.0
N2511 N 0.29678 0.67463 0.35161 0.0
C2512 C 0.30948 0.63804 0.35136 0.0
C2513 C 0.3277 0.6442 0.35783 0.0
H2514 H 0.316 0.69771 0.36042 0.0
H2515 H 0.27955 0.6487 0.34384 0.0
C2516 C 0.19852 0.68856 0.34695 0.0
N2517 N 0.21034 0.70091 0.35438 0.0
C2518 C 0.1788 0.67973 0.35051 0.0
C2519 C 0.18331 0.69743 0.36908 0.0
C2520 C 0.20298 0.7058 0.36518 0.0
C2521 C 0.1712 0.68371 0.36182 0.0
H2522 H 0.20471 0.6851 0.33837 0.0
H2523 H 0.21259 0.71577 0.37088 0.0
O2524 O 0.28794 0.72251 0.3401 0.0
O2525 O 0.24107 0.73955 0.3424 0.0
O2526 O 0.25085 0.69011 0.33753 0.0
O2527 O 0.26055 0.70817 0.36176 0.0
H2528 H 0.28037 0.76283 0.33342 0.0
H2529 H 0.3298 0.71854 0.34483 0.0
H2530 H 0.308 0.79197 0.33265 0.0
H2531 H 0.35648 0.74845 0.34395 0.0
H2532 H 0.18521 0.77135 0.36171 0.0
H2533 H 0.20976 0.72996 0.32754 0.0
H2534 H 0.22405 0.76228 0.35974 0.0
H2535 H 0.17115 0.73969 0.33003 0.0
H2536 H 0.28693 0.74585 0.29436 0.0
H2537 H 0.22463 0.71383 0.29379 0.0
H2538 H 0.32135 0.77095 0.37678 0.0
H2539 H 0.27272 0.81277 0.3617 0.0
H2540 H 0.2282 0.6561 0.33073 0.0
H2541 H 0.28787 0.69096 0.32568 0.0
H2542 H 0.23982 0.62995 0.31562 0.0
H2543 H 0.29837 0.66423 0.31069 0.0
H2544 H 0.28775 0.68892 0.37625 0.0
H2545 H 0.24168 0.74073 0.37289 0.0
H2546 H 0.29502 0.70074 0.39644 0.0
H2547 H 0.24943 0.75145 0.3932 0.0
H2548 H 0.34393 0.67123 0.36612 0.0
H2549 H 0.30707 0.62133 0.3488 0.0
H2550 H 0.17016 0.6691 0.34464 0.0
H2551 H 0.1779 0.70125 0.37779 0.0
Li2552 Li 0.04836 0.5282 0.09674 0.0
Li2553 Li 0.03641 0.49079 0.09998 0.0
Li2554 Li 0.02634 0.51048 0.08241 0.0
Li2555 Li 0.01051 0.51967 0.10124 0.0
C2556 C 0.07729 0.50405 0.08612 0.0
N2557 N 0.12153 0.50939 0.084 0.0
C2558 C 0.09143 0.491 0.09251 0.0
C2559 C 0.08566 0.51974 0.0786 0.0
C2560 C 0.11374 0.49396 0.09132 0.0
C2561 C 0.10807 0.52223 0.07768 0.0
C2562 C 0.03027 0.52209 0.12169 0.0
C2563 C 0.00943 0.51746 0.13922 0.0
N2564 N 0.01619 0.53722 0.14296 0.0
C2565 C 0.03713 0.54229 0.12573 0.0
C2566 C 0.01644 0.50948 0.12851 0.0
C2567 C 0.02979 0.54967 0.1365 0.0
C2568 C 0.06924 0.56878 0.09526 0.0
N2569 N 0.07098 0.54837 0.09954 0.0
C2570 C 0.10486 0.55692 0.10843 0.0
C2571 C 0.08823 0.54226 0.10609 0.0
C2572 C 0.10352 0.57822 0.10417 0.0
C2573 C 0.08537 0.58403 0.09748 0.0
H2574 H 0.05513 0.57332 0.09027 0.0
H2575 H 0.089 0.52599 0.10954 0.0
C2576 C 0.04885 0.44674 0.09873 0.0
N2577 N 0.04595 0.46386 0.10599 0.0
C2578 C 0.05953 0.42819 0.10262 0.0
C2579 C 0.06384 0.44521 0.1214 0.0
C2580 C 0.05277 0.46327 0.11721 0.0
C2581 C 0.06775 0.42763 0.11397 0.0
H2582 H 0.04399 0.44797 0.08973 0.0
H2583 H 0.05073 0.4773 0.1227 0.0
C2584 C 0.01326 0.55058 0.08024 0.0
N2585 N 0.99495 0.57093 0.06126 0.0
C2586 C 0.99085 0.55357 0.07968 0.0
C2587 C 0.02637 0.55806 0.07119 0.0
C2588 C 0.98191 0.56389 0.07 0.0
C2589 C 0.01679 0.56825 0.06165 0.0
C2590 C 0.00069 0.47157 0.09265 0.0
C2591 C 0.0016 0.45905 0.08255 0.0
C2592 C 0.99329 0.46233 0.10299 0.0
C2593 C 0.99528 0.43735 0.083 0.0
C2594 C 0.98714 0.44057 0.10309 0.0
N2595 N 0.98826 0.42863 0.09318 0.0
C2596 C 0.03756 0.50554 0.0588 0.0
C2597 C -0.00011 0.50845 0.06241 0.0
C2598 C 0.03388 0.50418 0.04687 0.0
N2599 N 0.02068 0.50785 0.06626 0.0
C2600 C 0.99545 0.50714 0.05054 0.0
C2601 C 0.0126 0.50508 0.04259 0.0
H2602 H 0.05388 0.50473 0.06211 0.0
H2603 H 0.98678 0.51012 0.06857 0.0
C2604 C 0.98665 0.55057 0.11353 0.0
N2605 N 0.98545 0.53047 0.10878 0.0
C2606 C 0.96855 0.55977 0.1188 0.0
C2607 C 0.94804 0.52772 0.11383 0.0
C2608 C 0.9667 0.51894 0.10884 0.0
C2609 C 0.9489 0.54838 0.11889 0.0
H2610 H 0.00161 0.5596 0.11303 0.0
H2611 H 0.96614 0.50315 0.10481 0.0
O2612 O 0.05537 0.50161 0.08727 0.0
O2613 O 0.03702 0.5147 0.1111 0.0
O2614 O 0.02229 0.5401 0.08951 0.0
O2615 O 0.00694 0.49279 0.0924 0.0
H2616 H 0.0853 0.47881 0.09839 0.0
H2617 H 0.07496 0.53014 0.07368 0.0
H2618 H 0.12487 0.48402 0.09624 0.0
H2619 H 0.11476 0.53441 0.07196 0.0
H2620 H 0.99861 0.50794 0.14456 0.0
H2621 H 0.04782 0.55227 0.12056 0.0
H2622 H 0.01104 0.49378 0.12551 0.0
H2623 H 0.03486 0.56533 0.13971 0.0
H2624 H 0.1186 0.55159 0.11353 0.0
H2625 H 0.08333 0.60035 0.09423 0.0
H2626 H 0.06264 0.41508 0.0966 0.0
H2627 H 0.07008 0.44534 0.13019 0.0
H2628 H 0.98045 0.54781 0.08657 0.0
H2629 H 0.04372 0.55574 0.07145 0.0
H2630 H 0.96459 0.56624 0.06943 0.0
H2631 H 0.02672 0.57396 0.05455 0.0
H2632 H 0.00732 0.46595 0.07447 0.0
H2633 H 0.99243 0.47183 0.11087 0.0
H2634 H 0.99599 0.42743 0.07527 0.0
H2635 H 0.98149 0.43316 0.11105 0.0
H2636 H 0.04755 0.50219 0.04108 0.0
H2637 H 0.97882 0.50806 0.04761 0.0
H2638 H 0.96971 0.57592 0.12242 0.0
H2639 H 0.93311 0.51853 0.11371 0.0
Li2640 Li 0.22334 0.29818 0.84698 0.0
Li2641 Li 0.26069 0.28561 0.84978 0.0
Li2642 Li 0.23994 0.27516 0.83255 0.0
Li2643 Li 0.23145 0.26039 0.8518 0.0
C2644 C 0.24748 0.32599 0.8354 0.0
N2645 N 0.24287 0.3701 0.83231 0.0
C2646 C 0.26014 0.34041 0.84184 0.0
C2647 C 0.23259 0.33399 0.82733 0.0
C2648 C 0.25755 0.36266 0.84015 0.0
C2649 C 0.23045 0.35635 0.82592 0.0
C2650 C 0.23018 0.2807 0.87195 0.0
C2651 C 0.23498 0.26017 0.88958 0.0
N2652 N 0.21524 0.26698 0.89333 0.0
C2653 C 0.21 0.2876 0.876 0.0
C2654 C 0.24285 0.26699 0.87881 0.0
C2655 C 0.20272 0.28045 0.88683 0.0
C2656 C 0.18289 0.31912 0.84575 0.0
N2657 N 0.20352 0.32121 0.84966 0.0
C2658 C 0.19512 0.35537 0.85832 0.0
C2659 C 0.20983 0.3388 0.8559 0.0
C2660 C 0.17359 0.35363 0.85445 0.0
C2661 C 0.16761 0.33518 0.84804 0.0
H2662 H 0.17815 0.30474 0.84106 0.0
H2663 H 0.22625 0.33983 0.85911 0.0
C2664 C 0.30475 0.29664 0.8473 0.0
N2665 N 0.28833 0.29461 0.85507 0.0
C2666 C 0.32447 0.30563 0.8507 0.0
C2667 C 0.30995 0.31039 0.87002 0.0
C2668 C 0.29062 0.30098 0.86629 0.0
C2669 C 0.32713 0.31319 0.86214 0.0
H2670 H 0.30227 0.29194 0.83835 0.0
H2671 H 0.27712 0.29965 0.87221 0.0
C2672 C 0.19852 0.26345 0.83143 0.0
N2673 N 0.1742 0.24606 0.81359 0.0
C2674 C 0.19293 0.24152 0.83158 0.0
C2675 C 0.19162 0.27657 0.82226 0.0
C2676 C 0.18063 0.23304 0.82247 0.0
C2677 C 0.17939 0.26745 0.8133 0.0
C2678 C 0.27881 0.24924 0.84241 0.0
C2679 C 0.29037 0.24898 0.83197 0.0
C2680 C 0.2889 0.24264 0.85268 0.0
C2681 C 0.31198 0.2423 0.83202 0.0
C2682 C 0.31055 0.23612 0.85236 0.0
N2683 N 0.32154 0.23609 0.84213 0.0
C2684 C 0.24934 0.28483 0.80922 0.0
C2685 C 0.23669 0.2491 0.81234 0.0
C2686 C 0.25112 0.281 0.79732 0.0
N2687 N 0.24202 0.26904 0.81642 0.0
C2688 C 0.23782 0.24467 0.80047 0.0
C2689 C 0.24511 0.26075 0.79274 0.0
H2690 H 0.25398 0.30037 0.81273 0.0
H2691 H 0.23141 0.23666 0.81831 0.0
C2692 C 0.20046 0.23692 0.86432 0.0
N2693 N 0.2207 0.23573 0.85975 0.0
C2694 C 0.19132 0.21895 0.86977 0.0
C2695 C 0.22389 0.19871 0.8655 0.0
C2696 C 0.23251 0.2172 0.86025 0.0
C2697 C 0.20299 0.19947 0.8703 0.0
H2698 H 0.19125 0.25173 0.86352 0.0
H2699 H 0.24845 0.21664 0.85639 0.0
O2700 O 0.24954 0.30416 0.83704 0.0
O2701 O 0.23744 0.28723 0.8613 0.0
O2702 O 0.21072 0.27203 0.84021 0.0
O2703 O 0.25771 0.2559 0.84256 0.0
H2704 H 0.27172 0.33451 0.84814 0.0
H2705 H 0.22267 0.32304 0.82229 0.0
H2706 H 0.26717 0.37401 0.84511 0.0
H2707 H 0.2189 0.36277 0.81976 0.0
H2708 H 0.24455 0.24945 0.89494 0.0
H2709 H 0.19997 0.29818 0.8708 0.0
H2710 H 0.25852 0.26153 0.87579 0.0
H2711 H 0.18709 0.28556 0.89006 0.0
H2712 H 0.20055 0.36933 0.8632 0.0
H2713 H 0.15112 0.33281 0.84512 0.0
H2714 H 0.33728 0.30713 0.84433 0.0
H2715 H 0.31095 0.31634 0.87885 0.0
H2716 H 0.19818 0.23112 0.83859 0.0
H2717 H 0.19585 0.29355 0.822 0.0
H2718 H 0.17626 0.21608 0.82244 0.0
H2719 H 0.17405 0.27738 0.80611 0.0
H2720 H 0.2828 0.25401 0.82394 0.0
H2721 H 0.28016 0.24274 0.86082 0.0
H2722 H 0.32117 0.2421 0.82402 0.0
H2723 H 0.31861 0.2311 0.86026 0.0
H2724 H 0.25739 0.29374 0.79181 0.0
H2725 H 0.23278 0.22889 0.79741 0.0
H2726 H 0.17502 0.22007 0.87317 0.0
H2727 H 0.23338 0.18398 0.86575 0.0
Li2728 Li 0.46231 0.50926 0.60012 0.0
Li2729 Li 0.45077 0.4718 0.59664 0.0
Li2730 Li 0.48839 0.48058 0.60135 0.0
Li2731 Li 0.47283 0.49006 0.58251 0.0
C2732 C 0.46868 0.47761 0.62163 0.0
N2733 N 0.48341 0.46203 0.64269 0.0
C2734 C 0.46257 0.457 0.62542 0.0
C2735 C 0.48212 0.49038 0.62859 0.0
C2736 C 0.47022 0.4494 0.63608 0.0
C2737 C 0.48945 0.48218 0.63919 0.0
C2738 C 0.42172 0.49568 0.58609 0.0
C2739 C 0.3913 0.47712 0.57751 0.0
N2740 N 0.37759 0.48967 0.58384 0.0
C2741 C 0.40732 0.50844 0.59248 0.0
C2742 C 0.41366 0.47995 0.5785 0.0
C2743 C 0.38506 0.50514 0.59122 0.0
C2744 C 0.4494 0.55314 0.59892 0.0
N2745 N 0.45242 0.53604 0.60618 0.0
C2746 C 0.43442 0.55455 0.62159 0.0
C2747 C 0.44558 0.53656 0.61739 0.0
C2748 C 0.43041 0.57213 0.61418 0.0
C2749 C 0.43861 0.57162 0.60282 0.0
H2750 H 0.45428 0.55196 0.58993 0.0
H2751 H 0.44771 0.52253 0.62288 0.0
C2752 C 0.43171 0.43043 0.59572 0.0
N2753 N 0.42871 0.45106 0.59948 0.0
C2754 C 0.41689 0.4143 0.59866 0.0
C2755 C 0.39585 0.44107 0.60903 0.0
C2756 C 0.41124 0.45664 0.60601 0.0
C2757 C 0.39881 0.41952 0.6055 0.0
H2758 H 0.44596 0.42636 0.59074 0.0
H2759 H 0.40959 0.47306 0.60914 0.0
C2760 C 0.49793 0.52898 0.59309 0.0
N2761 N 0.5097 0.5721 0.59388 0.0
C2762 C 0.49706 0.54164 0.58304 0.0
C2763 C 0.50495 0.53818 0.60352 0.0
C2764 C 0.50306 0.56343 0.58362 0.0
C2765 C 0.51077 0.56003 0.60375 0.0
C2766 C 0.4862 0.45012 0.58013 0.0
C2767 C 0.50866 0.4476 0.57953 0.0
C2768 C 0.47319 0.44241 0.5711 0.0
C2769 C 0.51776 0.43751 0.56983 0.0
C2770 C 0.48292 0.43245 0.56154 0.0
N2771 N 0.50481 0.43023 0.5611 0.0
C2772 C 0.51154 0.44841 0.61265 0.0
C2773 C 0.53148 0.48098 0.61053 0.0
C2774 C 0.52896 0.43848 0.61817 0.0
N2775 N 0.51305 0.46929 0.60904 0.0
C2776 C 0.5495 0.47155 0.61588 0.0
C2777 C 0.54829 0.45003 0.61978 0.0
H2778 H 0.49681 0.4394 0.6111 0.0
H2779 H 0.5323 0.49748 0.60743 0.0
C2780 C 0.46204 0.49548 0.55886 0.0
N2781 N 0.47875 0.49312 0.56642 0.0
C2782 C 0.46603 0.49744 0.54698 0.0
C2783 C 0.50439 0.49476 0.55092 0.0
C2784 C 0.49965 0.49291 0.56273 0.0
C2785 C 0.48744 0.49703 0.54287 0.0
H2786 H 0.44561 0.49581 0.56204 0.0
H2787 H 0.51261 0.49131 0.56898 0.0
O2788 O 0.46172 0.48519 0.61111 0.0
O2789 O 0.44358 0.49849 0.58729 0.0
O2790 O 0.492 0.50767 0.59271 0.0
O2791 O 0.47701 0.46038 0.58943 0.0
H2792 H 0.45223 0.44687 0.62013 0.0
H2793 H 0.48697 0.50637 0.62579 0.0
H2794 H 0.46572 0.43343 0.6391 0.0
H2795 H 0.49997 0.49182 0.64464 0.0
H2796 H 0.38486 0.4649 0.57173 0.0
H2797 H 0.41321 0.52066 0.59841 0.0
H2798 H 0.42457 0.46981 0.57356 0.0
H2799 H 0.37374 0.51485 0.59614 0.0
H2800 H 0.42821 0.55438 0.63039 0.0
H2801 H 0.43544 0.58472 0.5968 0.0
H2802 H 0.41968 0.39785 0.59576 0.0
H2803 H 0.38229 0.44564 0.61447 0.0
H2804 H 0.49163 0.53479 0.5749 0.0
H2805 H 0.50574 0.52859 0.61136 0.0
H2806 H 0.50237 0.57345 0.57593 0.0
H2807 H 0.51612 0.5674 0.61177 0.0
H2808 H 0.51898 0.45358 0.58641 0.0
H2809 H 0.45579 0.44433 0.57141 0.0
H2810 H 0.53512 0.43554 0.56921 0.0
H2811 H 0.47307 0.42654 0.55445 0.0
H2812 H 0.52753 0.42173 0.62085 0.0
H2813 H 0.56417 0.48094 0.61695 0.0
H2814 H 0.45247 0.49897 0.54107 0.0
H2815 H 0.52114 0.49468 0.54814 0.0
H2816 H 0.12586 0.39476 0.40782 0.0
H2817 H 0.19937 0.34612 0.35685 0.0
H2818 H 0.12884 0.42196 0.3733 0.0
H2819 H 0.1833 0.3113 0.38817 0.0
H2820 H 0.17896 0.37733 0.3641 0.0
H2821 H 0.15202 0.36721 0.40197 0.0
C2822 C 0.13203 0.395 0.39902 0.0
C2823 C 0.12489 0.4106 0.39101 0.0
C2824 C 0.18005 0.36292 0.36942 0.0
C2825 C 0.15511 0.37922 0.38431 0.0
C2826 C 0.19181 0.34518 0.36533 0.0
C2827 C 0.19286 0.32607 0.37189 0.0
C2828 C 0.16943 0.36157 0.38018 0.0
C2829 C 0.18262 0.32563 0.38277 0.0
C2830 C 0.14705 0.37931 0.3957 0.0
C2831 C 0.13393 0.41038 0.37981 0.0
N2832 N 0.17126 0.34309 0.38655 0.0
N2833 N 0.14845 0.39485 0.37677 0.0
H2834 H 0.89919 0.95554 0.6054 0.0
H2835 H 0.85437 0.88001 0.65648 0.0
H2836 H 0.93616 0.93854 0.63591 0.0
H2837 H 0.82477 0.88439 0.62257 0.0
H2838 H 0.88138 0.90658 0.65042 0.0
H2839 H 0.86871 0.93466 0.61299 0.0
C2840 C 0.9009 0.94751 0.61371 0.0
C2841 C 0.92042 0.94864 0.61995 0.0
C2842 C 0.86887 0.90183 0.64434 0.0
C2843 C 0.88545 0.92491 0.62874 0.0
C2844 C 0.85349 0.88658 0.64777 0.0
C2845 C 0.83739 0.8797 0.63998 0.0
C2846 C 0.86814 0.91038 0.63305 0.0
C2847 C 0.83677 0.88925 0.62891 0.0
C2848 C 0.88345 0.93567 0.61805 0.0
C2849 C 0.92144 0.93831 0.63081 0.0
N2850 N 0.85201 0.90398 0.62575 0.0
N2851 N 0.90428 0.92677 0.63481 0.0
H2852 H 0.35911 0.57587 0.87609 0.0
H2853 H 0.31267 0.69443 0.88776 0.0
H2854 H 0.3752 0.61422 0.90623 0.0
H2855 H 0.29346 0.65484 0.85862 0.0
H2856 H 0.33294 0.66389 0.89559 0.0
H2857 H 0.33246 0.60313 0.87048 0.0
C2858 C 0.35683 0.58986 0.88163 0.0
C2859 C 0.36958 0.59283 0.8916 0.0
C2860 C 0.32413 0.6618 0.88754 0.0
C2861 C 0.3393 0.62431 0.88512 0.0
C2862 C 0.31239 0.67922 0.88309 0.0
C2863 C 0.30142 0.6773 0.87246 0.0
C2864 C 0.32506 0.6423 0.88129 0.0
C2865 C 0.30199 0.65722 0.86673 0.0
C2866 C 0.34169 0.6055 0.87838 0.0
C2867 C 0.36606 0.61144 0.89835 0.0
N2868 N 0.31376 0.64057 0.87117 0.0
N2869 N 0.35138 0.62653 0.89494 0.0
H2870 H 0.59369 0.04709 0.10923 0.0
H2871 H 0.64109 0.12734 0.15751 0.0
H2872 H 0.55627 0.07196 0.13791 0.0
H2873 H 0.67119 0.11737 0.12408 0.0
H2874 H 0.61283 0.1016 0.15214 0.0
H2875 H 0.62525 0.06714 0.11638 0.0
C2876 C 0.59223 0.05652 0.11713 0.0
C2877 C 0.57234 0.05802 0.12295 0.0
C2878 C 0.62571 0.10495 0.14601 0.0
C2879 C 0.60823 0.08099 0.13112 0.0
C2880 C 0.64181 0.11973 0.14905 0.0
C2881 C 0.65843 0.12482 0.14118 0.0
C2882 C 0.62624 0.09503 0.13505 0.0
C2883 C 0.6588 0.11392 0.13046 0.0
C2884 C 0.61017 0.06805 0.12115 0.0
C2885 C 0.57125 0.07061 0.13308 0.0
N2886 N 0.64286 0.09966 0.12768 0.0
N2887 N 0.58892 0.08166 0.13683 0.0
H2888 H 0.19823 0.65865 0.1392 0.0
H2889 H 0.11937 0.61097 0.09038 0.0
H2890 H 0.17488 0.6961 0.11017 0.0
H2891 H 0.12639 0.5828 0.12452 0.0
H2892 H 0.14506 0.63924 0.09586 0.0
H2893 H 0.17768 0.62742 0.13208 0.0
C2894 C 0.18904 0.66017 0.13123 0.0
C2895 C 0.18811 0.67998 0.12529 0.0
C2896 C 0.14104 0.62677 0.10211 0.0
C2897 C 0.16455 0.64447 0.11715 0.0
C2898 C 0.12628 0.61068 0.09902 0.0
C2899 C 0.12045 0.59452 0.10703 0.0
C2900 C 0.15024 0.62667 0.11325 0.0
C2901 C 0.13046 0.59473 0.118 0.0
C2902 C 0.17722 0.64243 0.12722 0.0
C2903 C 0.1758 0.68117 0.11507 0.0
N2904 N 0.14478 0.6106 0.12079 0.0
N2905 N 0.16445 0.66367 0.11133 0.0
H2906 H 0.54618 0.91804 0.35961 0.0
H2907 H 0.66625 0.87767 0.37276 0.0
H2908 H 0.58698 0.94628 0.38598 0.0
H2909 H 0.63026 0.85794 0.34244 0.0
H2910 H 0.63753 0.90336 0.37753 0.0
H2911 H 0.57695 0.89654 0.35283 0.0
C2912 C 0.56168 0.91982 0.36391 0.0
C2913 C 0.56402 0.93385 0.37341 0.0
C2914 C 0.63595 0.89354 0.36979 0.0
C2915 C 0.59923 0.90925 0.36576 0.0
C2916 C 0.65227 0.87877 0.36711 0.0
C2917 C 0.65053 0.86555 0.35725 0.0
C2918 C 0.61761 0.89496 0.36262 0.0
C2919 C 0.63226 0.86789 0.35011 0.0
C2920 C 0.57924 0.90761 0.36001 0.0
C2921 C 0.5845 0.93575 0.37858 0.0
N2922 N 0.6164 0.88217 0.353 0.0
N2923 N 0.60126 0.92341 0.37477 0.0
H2924 H 0.28836 0.33699 0.62072 0.0
H2925 H 0.40952 0.3804 0.61479 0.0
H2926 H 0.34237 0.31036 0.6397 0.0
H2927 H 0.35435 0.41965 0.6056 0.0
H2928 H 0.38502 0.35243 0.622 0.0
H2929 H 0.31219 0.36567 0.61329 0.0
C2930 C 0.3052 0.33723 0.62333 0.0
C2931 C 0.3134 0.32138 0.63088 0.0
C2932 C 0.37825 0.36715 0.61841 0.0
C2933 C 0.34067 0.35383 0.62236 0.0
C2934 C 0.39221 0.38303 0.61421 0.0
C2935 C 0.38392 0.40231 0.60956 0.0
C2936 C 0.35578 0.37044 0.61786 0.0
C2937 C 0.36137 0.40504 0.60918 0.0
C2938 C 0.31874 0.3536 0.61913 0.0
C2939 C 0.33532 0.32243 0.63403 0.0
N2940 N 0.34803 0.38921 0.61323 0.0
N2941 N 0.3482 0.33829 0.6297 0.0
H2942 H 0.92194 0.04506 0.8678 0.0
H2943 H 0.87292 0.16398 0.8611 0.0
H2944 H 0.94979 0.10208 0.88359 0.0
H2945 H 0.83462 0.10662 0.85518 0.0
H2946 H 0.90315 0.14123 0.86715 0.0
H2947 H 0.89128 0.06706 0.86122 0.0
C2948 C 0.92164 0.06214 0.86992 0.0
C2949 C 0.93864 0.07171 0.87621 0.0
C2950 C 0.88815 0.13358 0.86453 0.0
C2951 C 0.9038 0.09695 0.86853 0.0
C2952 C 0.87095 0.14655 0.86099 0.0
C2953 C 0.85128 0.13715 0.8576 0.0
C2954 C 0.88579 0.11098 0.86461 0.0
C2955 C 0.8495 0.11449 0.8578 0.0
C2956 C 0.90417 0.07467 0.86611 0.0
C2957 C 0.93742 0.094 0.87854 0.0
N2958 N 0.86659 0.10212 0.86121 0.0
N2959 N 0.92038 0.10582 0.87468 0.0
H2960 H 0.87798 0.58901 0.62588 0.0
H2961 H 0.82526 0.7019 0.60804 0.0
H2962 H 0.88474 0.61678 0.59164 0.0
H2963 H 0.80661 0.6662 0.63866 0.0
H2964 H 0.84749 0.67116 0.60189 0.0
H2965 H 0.85202 0.6173 0.63075 0.0
C2966 C 0.87386 0.60089 0.61932 0.0
C2967 C 0.88368 0.60047 0.60832 0.0
C2968 C 0.83837 0.66997 0.6099 0.0
C2969 C 0.85418 0.63324 0.61397 0.0
C2970 C 0.82575 0.68753 0.61343 0.0
C2971 C 0.81413 0.6866 0.62388 0.0
C2972 C 0.83959 0.65147 0.61696 0.0
C2973 C 0.81517 0.66752 0.63048 0.0
C2974 C 0.85908 0.61712 0.62215 0.0
C2975 C 0.87793 0.61663 0.60029 0.0
N2976 N 0.82785 0.65079 0.62697 0.0
N2977 N 0.86367 0.63242 0.6033 0.0
H2978 H 0.15042 0.14814 0.37656 0.0
H2979 H 0.06003 0.06436 0.35557 0.0
H2980 H 0.14354 0.1286 0.34078 0.0
H2981 H 0.07804 0.07368 0.39144 0.0
H2982 H 0.08937 0.08882 0.34976 0.0
H2983 H 0.12252 0.12207 0.38201 0.0
C2984 C 0.14294 0.1384 0.36984 0.0
C2985 C 0.14921 0.14059 0.3582 0.0
C2986 C 0.08698 0.08536 0.35889 0.0
C2987 C 0.11732 0.1106 0.36437 0.0
C2988 C 0.07021 0.07149 0.36221 0.0
C2989 C 0.06664 0.06695 0.374 0.0
C2990 C 0.10006 0.09495 0.36744 0.0
C2991 C 0.08039 0.0765 0.38224 0.0
C2992 C 0.12713 0.12341 0.37297 0.0
C2993 C 0.13924 0.12732 0.34987 0.0
N2994 N 0.09638 0.09014 0.37881 0.0
N2995 N 0.12367 0.11296 0.3531 0.0
H2996 H 0.62712 0.41529 0.12304 0.0
H2997 H 0.67683 0.30029 0.10687 0.0
H2998 H 0.61877 0.38546 0.0894 0.0
H2999 H 0.69682 0.33718 0.13683 0.0
H3000 H 0.6556 0.33135 0.10021 0.0
H3001 H 0.65304 0.38709 0.12813 0.0
C3002 C 0.63091 0.403 0.11665 0.0
C3003 C 0.62059 0.40276 0.10578 0.0
C3004 C 0.66481 0.33274 0.10818 0.0
C3005 C 0.65001 0.37008 0.11169 0.0
C3006 C 0.67685 0.315 0.112 0.0
C3007 C 0.68852 0.31615 0.12244 0.0
C3008 C 0.6642 0.35168 0.11492 0.0
C3009 C 0.68818 0.33565 0.12869 0.0
C3010 C 0.64566 0.38681 0.1196 0.0
C3011 C 0.62595 0.38611 0.09797 0.0
N3012 N 0.67603 0.35257 0.1249 0.0
N3013 N 0.64016 0.37036 0.10111 0.0
H3014 H 0.41292 0.94446 0.89068 0.0
H3015 H 0.36399 0.8687 0.84081 0.0
H3016 H 0.44807 0.92674 0.85973 0.0
H3017 H 0.33859 0.87107 0.87574 0.0
H3018 H 0.39181 0.89478 0.84638 0.0
H3019 H 0.38216 0.92282 0.88393 0.0
C3020 C 0.41402 0.93627 0.88238 0.0
C3021 C 0.43308 0.93728 0.87577 0.0
C3022 C 0.38007 0.88964 0.8528 0.0
C3023 C 0.3981 0.91243 0.86805 0.0
C3024 C 0.36424 0.87464 0.84965 0.0
C3025 C 0.34899 0.86742 0.85784 0.0
C3026 C 0.38061 0.89767 0.8642 0.0
C3027 C 0.34983 0.87623 0.86909 0.0
C3028 C 0.39656 0.9238 0.87858 0.0
C3029 C 0.43375 0.92617 0.86514 0.0
N3030 N 0.36542 0.89082 0.87194 0.0
N3031 N 0.41653 0.91417 0.86162 0.0
H3032 H 0.87857 0.38646 0.90786 0.0
H3033 H 0.80009 0.34077 0.85832 0.0
H3034 H 0.87424 0.41421 0.87349 0.0
H3035 H 0.82187 0.30257 0.88743 0.0
H3036 H 0.82143 0.3714 0.86559 0.0
H3037 H 0.85238 0.35884 0.90211 0.0
C3038 C 0.87217 0.38679 0.89911 0.0
C3039 C 0.87888 0.40265 0.89113 0.0
C3040 C 0.82138 0.35636 0.87043 0.0
C3041 C 0.84848 0.3713 0.88459 0.0
C3042 C 0.80911 0.33897 0.86634 0.0
C3043 C 0.80938 0.31913 0.87226 0.0
C3044 C 0.83378 0.35392 0.88057 0.0
C3045 C 0.82146 0.31755 0.88254 0.0
C3046 C 0.8571 0.37108 0.89587 0.0
C3047 C 0.86947 0.40252 0.88001 0.0
N3048 N 0.83323 0.33471 0.88637 0.0
N3049 N 0.85482 0.38706 0.87706 0.0
H3050 H 0.35199 0.11938 0.65397 0.0
H3051 H 0.42491 0.07825 0.60101 0.0
H3052 H 0.3462 0.14296 0.61881 0.0
H3053 H 0.42755 0.0497 0.63523 0.0
H3054 H 0.3955 0.10148 0.60745 0.0
H3055 H 0.37916 0.09328 0.64738 0.0
C3056 C 0.3563 0.11898 0.64486 0.0
C3057 C 0.34688 0.13351 0.63695 0.0
C3058 C 0.40239 0.09006 0.61355 0.0
C3059 C 0.37809 0.10382 0.62938 0.0
C3060 C 0.41913 0.07662 0.60985 0.0
C3061 C 0.42873 0.06187 0.61757 0.0
C3062 C 0.39519 0.08895 0.6251 0.0
C3063 C 0.42081 0.06098 0.629 0.0
C3064 C 0.37189 0.10414 0.64112 0.0
C3065 C 0.3533 0.13239 0.62527 0.0
N3066 N 0.40455 0.07438 0.63243 0.0
N3067 N 0.36852 0.11787 0.62186 0.0
H3068 H 0.68202 0.6952 0.38795 0.0
H3069 H 0.6288 0.58149 0.37262 0.0
H3070 H 0.70007 0.65779 0.35777 0.0
H3071 H 0.62352 0.61143 0.40641 0.0
H3072 H 0.65499 0.60913 0.36701 0.0
H3073 H 0.66068 0.66466 0.39489 0.0
C3074 C 0.6818 0.68048 0.38285 0.0
C3075 C 0.69286 0.67918 0.3722 0.0
C3076 C 0.64821 0.60956 0.37568 0.0
C3077 C 0.66793 0.64423 0.38003 0.0
C3078 C 0.63332 0.59368 0.37893 0.0
C3079 C 0.62377 0.59414 0.39 0.0
C3080 C 0.65351 0.62616 0.38351 0.0
C3081 C 0.63007 0.61064 0.3977 0.0
C3082 C 0.66945 0.66306 0.3868 0.0
C3083 C 0.69151 0.65974 0.3659 0.0
N3084 N 0.6444 0.62606 0.39428 0.0
N3085 N 0.67914 0.64311 0.36986 0.0
H3086 H 0.16469 0.89473 0.14661 0.0
H3087 H 0.06047 0.90995 0.10684 0.0
H3088 H 0.12755 0.8412 0.13314 0.0
H3089 H 0.0793 0.95828 0.13193 0.0
H3090 H 0.08872 0.886 0.11428 0.0
H3091 H 0.13683 0.91978 0.1394 0.0
C3092 C 0.15066 0.8883 0.14215 0.0
C3093 C 0.1483 0.86591 0.14049 0.0
C3094 C 0.08671 0.90185 0.11815 0.0
C3095 C 0.11675 0.8943 0.13213 0.0
C3096 C 0.07073 0.91559 0.11385 0.0
C3097 C 0.06765 0.93613 0.11876 0.0
C3098 C 0.09991 0.90879 0.12734 0.0
C3099 C 0.08116 0.94251 0.12795 0.0
C3100 C 0.13479 0.90254 0.13809 0.0
C3101 C 0.12984 0.85834 0.1347 0.0
N3102 N 0.09683 0.92891 0.13192 0.0
N3103 N 0.11485 0.87251 0.13064 0.0
H3104 H 0.68489 0.80781 0.88722 0.0
H3105 H 0.63082 0.92106 0.87239 0.0
H3106 H 0.70316 0.84614 0.85741 0.0
H3107 H 0.62575 0.8908 0.9061 0.0
H3108 H 0.65779 0.89414 0.86686 0.0
H3109 H 0.66384 0.83829 0.8945 0.0
C3110 C 0.68483 0.82273 0.88228 0.0
C3111 C 0.69575 0.82427 0.87161 0.0
C3112 C 0.65091 0.89351 0.8755 0.0
C3113 C 0.67113 0.85914 0.8798 0.0
C3114 C 0.63555 0.90896 0.8787 0.0
C3115 C 0.62581 0.90818 0.88972 0.0
C3116 C 0.65646 0.87697 0.88332 0.0
C3117 C 0.63243 0.89182 0.89743 0.0
C3118 C 0.67264 0.84011 0.88642 0.0
C3119 C 0.69466 0.84399 0.86554 0.0
N3120 N 0.64718 0.87677 0.89405 0.0
N3121 N 0.68238 0.86055 0.86966 0.0
H3122 H 0.44781 0.42856 0.13971 0.0
H3123 H 0.33339 0.37777 0.12411 0.0
H3124 H 0.41051 0.44832 0.10987 0.0
H3125 H 0.36218 0.37219 0.15817 0.0
H3126 H 0.36127 0.40386 0.11881 0.0
H3127 H 0.41664 0.40787 0.14673 0.0
C3128 C 0.43297 0.42867 0.1347 0.0
C3129 C 0.43173 0.44006 0.12418 0.0
C3130 C 0.36137 0.39707 0.12748 0.0
C3131 C 0.39612 0.41633 0.13207 0.0
C3132 C 0.34535 0.38222 0.13055 0.0
C3133 C 0.34541 0.37259 0.14161 0.0
C3134 C 0.37777 0.4022 0.13545 0.0
C3135 C 0.36168 0.37879 0.14947 0.0
C3136 C 0.41518 0.41694 0.13871 0.0
C3137 C 0.41209 0.43985 0.11806 0.0
N3138 N 0.3773 0.39304 0.14621 0.0
N3139 N 0.39513 0.42795 0.12202 0.0
H3140 H 0.89262 0.11824 0.39889 0.0
H3141 H 0.79349 0.15254 0.35846 0.0
H3142 H 0.85803 0.07285 0.37729 0.0
H3143 H 0.82145 0.19424 0.38453 0.0
H3144 H 0.81624 0.12282 0.36545 0.0
H3145 H 0.86612 0.14609 0.39394 0.0
C3146 C 0.8794 0.11415 0.39311 0.0
C3147 C 0.87759 0.09327 0.38842 0.0
C3148 C 0.81723 0.13841 0.36972 0.0
C3149 C 0.84715 0.12505 0.38271 0.0
C3150 C 0.80431 0.15539 0.3657 0.0
C3151 C 0.80563 0.17592 0.37089 0.0
C3152 C 0.83175 0.14205 0.3789 0.0
C3153 C 0.81974 0.17864 0.38033 0.0
C3154 C 0.8642 0.13001 0.39033 0.0
C3155 C 0.85996 0.08873 0.38113 0.0
N3156 N 0.83239 0.16198 0.38396 0.0
N3157 N 0.84552 0.10456 0.3784 0.0
H3158 H 0.14138 0.62484 0.65774 0.0
H3159 H 0.09358 0.54929 0.60743 0.0
H3160 H 0.16918 0.62055 0.62339 0.0
H3161 H 0.05685 0.5697 0.63735 0.0
H3162 H 0.12495 0.56929 0.61487 0.0
H3163 H 0.11363 0.59884 0.65194 0.0
C3164 C 0.14172 0.61843 0.64899 0.0
C3165 C 0.15755 0.62517 0.64101 0.0
C3166 C 0.11007 0.56921 0.61985 0.0
C3167 C 0.12599 0.59508 0.63439 0.0
C3168 C 0.09225 0.5577 0.61565 0.0
C3169 C 0.0726 0.55802 0.62175 0.0
C3170 C 0.10824 0.58092 0.63026 0.0
C3171 C 0.07165 0.56931 0.63231 0.0
C3172 C 0.12592 0.6035 0.64571 0.0
C3173 C 0.15745 0.61579 0.62989 0.0
N3174 N 0.08919 0.58038 0.63622 0.0
N3175 N 0.14184 0.60133 0.62689 0.0
H3176 H 0.60144 0.12278 0.59751 0.0
H3177 H 0.70857 0.15548 0.63255 0.0
H3178 H 0.63835 0.07758 0.61816 0.0
H3179 H 0.66587 0.20157 0.6161 0.0
H3180 H 0.68511 0.12613 0.62582 0.0
H3181 H 0.62699 0.15129 0.60273 0.0
C3182 C 0.61489 0.11884 0.60317 0.0
C3183 C 0.61763 0.09775 0.60747 0.0
C3184 C 0.68097 0.14267 0.62364 0.0
C3185 C 0.64715 0.13033 0.61337 0.0
C3186 C 0.69432 0.15944 0.6275 0.0
C3187 C 0.68922 0.18107 0.6249 0.0
C3188 C 0.66238 0.14754 0.61711 0.0
C3189 C 0.67068 0.18517 0.61818 0.0
C3190 C 0.62954 0.13512 0.6061 0.0
C3191 C 0.63567 0.09354 0.61456 0.0
N3192 N 0.65793 0.16859 0.61456 0.0
N3193 N 0.64968 0.1097 0.61732 0.0
H3194 H 0.13987 0.36866 0.84109 0.0
H3195 H 0.09245 0.44676 0.89038 0.0
H3196 H 0.16971 0.37682 0.87474 0.0
H3197 H 0.05463 0.42272 0.86164 0.0
H3198 H 0.12382 0.42666 0.88303 0.0
H3199 H 0.11127 0.39369 0.84692 0.0
C3200 C 0.14046 0.37569 0.8497 0.0
C3201 C 0.15717 0.37036 0.85747 0.0
C3202 C 0.10869 0.42592 0.8783 0.0
C3203 C 0.1246 0.39936 0.86411 0.0
C3204 C 0.09086 0.43748 0.88244 0.0
C3205 C 0.07092 0.43626 0.87664 0.0
C3206 C 0.1066 0.41324 0.86824 0.0
C3207 C 0.06966 0.42386 0.86645 0.0
C3208 C 0.12416 0.39007 0.85299 0.0
C3209 C 0.15732 0.38051 0.8684 0.0
N3210 N 0.08724 0.41279 0.86258 0.0
N3211 N 0.14123 0.39443 0.87141 0.0
H3212 H 0.89929 0.89575 0.12891 0.0
H3213 H 0.80208 0.81607 0.11239 0.0
H3214 H 0.86433 0.89992 0.09654 0.0
H3215 H 0.82893 0.82132 0.14687 0.0
H3216 H 0.82546 0.84588 0.1061 0.0
H3217 H 0.87453 0.86732 0.13532 0.0
C3218 C 0.88644 0.8906 0.12313 0.0
C3219 C 0.8839 0.90015 0.11216 0.0
C3220 C 0.82611 0.8406 0.11506 0.0
C3221 C 0.8554 0.86771 0.11946 0.0
C3222 C 0.81285 0.82355 0.11864 0.0
C3223 C 0.81355 0.81624 0.13017 0.0
C3224 C 0.84036 0.85023 0.12304 0.0
C3225 C 0.82766 0.82662 0.13793 0.0
C3226 C 0.87222 0.87449 0.12683 0.0
C3227 C 0.86677 0.89309 0.1051 0.0
N3228 N 0.8406 0.84298 0.13421 0.0
N3229 N 0.85323 0.8772 0.10885 0.0
H3230 H 0.44217 0.56487 0.35959 0.0
H3231 H 0.34272 0.63588 0.3796 0.0
H3232 H 0.41489 0.55925 0.39393 0.0
H3233 H 0.35001 0.61616 0.3439 0.0
H3234 H 0.37126 0.61031 0.38514 0.0
H3235 H 0.41041 0.586 0.35356 0.0
C3236 C 0.42937 0.56795 0.3658 0.0
C3237 C 0.43104 0.56035 0.37725 0.0
C3238 C 0.36649 0.61146 0.37611 0.0
C3239 C 0.39509 0.5847 0.37053 0.0
C3240 C 0.35034 0.62609 0.37296 0.0
C3241 C 0.34414 0.62807 0.3613 0.0
C3242 C 0.37681 0.5991 0.36751 0.0
C3243 C 0.35435 0.61498 0.35299 0.0
C3244 C 0.41129 0.5799 0.36237 0.0
C3245 C 0.41408 0.56471 0.385 0.0
N3246 N 0.37042 0.6012 0.35623 0.0
N3247 N 0.39692 0.57687 0.38154 0.0
H3248 H 0.37667 0.08332 0.12476 0.0
H3249 H 0.3284 0.19908 0.10975 0.0
H3250 H 0.38347 0.11266 0.09089 0.0
H3251 H 0.30562 0.16051 0.13849 0.0
H3252 H 0.34944 0.16805 0.10284 0.0
H3253 H 0.35116 0.11169 0.13011 0.0
C3254 C 0.37263 0.09552 0.11837 0.0
C3255 C 0.38238 0.09553 0.10734 0.0
C3256 C 0.33966 0.16631 0.11059 0.0
C3257 C 0.35345 0.12846 0.11357 0.0
C3258 C 0.32774 0.18401 0.11455 0.0
C3259 C 0.31535 0.18233 0.12472 0.0
C3260 C 0.33945 0.1469 0.11694 0.0
C3261 C 0.31488 0.16241 0.13057 0.0
C3262 C 0.35811 0.11181 0.12147 0.0
C3263 C 0.37674 0.11215 0.09956 0.0
N3264 N 0.32696 0.14553 0.12667 0.0
N3265 N 0.3628 0.12803 0.10286 0.0
H3266 H 0.5826 0.55737 0.88909 0.0
H3267 H 0.63058 0.63562 0.84012 0.0
H3268 H 0.546 0.57806 0.85917 0.0
H3269 H 0.65665 0.63154 0.87487 0.0
H3270 H 0.6024 0.60985 0.8456 0.0
H3271 H 0.61316 0.57941 0.88244 0.0
C3272 C 0.58113 0.56632 0.88103 0.0
C3273 C 0.56176 0.56599 0.87468 0.0
C3274 C 0.61437 0.61457 0.852 0.0
C3275 C 0.5965 0.59126 0.86708 0.0
C3276 C 0.6304 0.62939 0.84891 0.0
C3277 C 0.64599 0.63599 0.85706 0.0
C3278 C 0.61399 0.60607 0.8633 0.0
C3279 C 0.64518 0.62683 0.86823 0.0
C3280 C 0.59848 0.579 0.87729 0.0
C3281 C 0.5606 0.57806 0.86437 0.0
N3282 N 0.62943 0.61238 0.87102 0.0
N3283 N 0.57773 0.59024 0.86089 0.0
H3284 H 0.18931 0.83865 0.63967 0.0
H3285 H 0.1136 0.88753 0.58986 0.0
H3286 H 0.17012 0.80256 0.60929 0.0
H3287 H 0.11448 0.91197 0.62502 0.0
H3288 H 0.13943 0.85955 0.59554 0.0
H3289 H 0.16736 0.86923 0.63294 0.0
C3290 C 0.1807 0.8373 0.6315 0.0
C3291 C 0.18142 0.81806 0.62504 0.0
C3292 C 0.134 0.87112 0.60198 0.0
C3293 C 0.15631 0.85284 0.61733 0.0
C3294 C 0.11914 0.88704 0.59878 0.0
C3295 C 0.11158 0.90208 0.60699 0.0
C3296 C 0.1416 0.87032 0.61345 0.0
C3297 C 0.11993 0.90092 0.61834 0.0
C3298 C 0.16808 0.85466 0.62772 0.0
C3299 C 0.1698 0.81705 0.61458 0.0
N3300 N 0.13443 0.88529 0.62124 0.0
N3301 N 0.1577 0.8342 0.61105 0.0
H3302 H 0.94813 0.42474 0.35891 0.0
H3303 H 0.83617 0.36956 0.37569 0.0
H3304 H 0.91181 0.4423 0.38949 0.0
H3305 H 0.86293 0.36695 0.34105 0.0
H3306 H 0.86394 0.3958 0.38103 0.0
H3307 H 0.91747 0.40285 0.35231 0.0
C3308 C 0.93362 0.42407 0.36419 0.0
C3309 C 0.93249 0.43526 0.37477 0.0
C3310 C 0.86362 0.38959 0.37224 0.0
C3311 C 0.89748 0.41017 0.36734 0.0
C3312 C 0.84768 0.37466 0.36915 0.0
C3313 C 0.84719 0.36587 0.35789 0.0
C3314 C 0.87938 0.39565 0.36408 0.0
C3315 C 0.86289 0.37288 0.34989 0.0
C3316 C 0.91612 0.41166 0.36041 0.0
C3317 C 0.91328 0.43403 0.38124 0.0
N3318 N 0.87842 0.38721 0.35316 0.0
N3319 N 0.8966 0.42151 0.37748 0.0
H3320 H 0.31688 0.79971 0.39152 0.0
H3321 H 0.37337 0.91178 0.37478 0.0
H3322 H 0.30687 0.83263 0.35889 0.0
H3323 H 0.37816 0.88272 0.40879 0.0
H3324 H 0.34789 0.88359 0.36911 0.0
H3325 H 0.33853 0.83039 0.39826 0.0
C3326 C 0.31917 0.81344 0.38579 0.0
C3327 C 0.31011 0.81359 0.37462 0.0
C3328 C 0.3544 0.88344 0.37784 0.0
C3329 C 0.33485 0.84875 0.38226 0.0
C3330 C 0.36887 0.89964 0.38112 0.0
C3331 C 0.378 0.89965 0.39229 0.0
C3332 C 0.34905 0.86698 0.38575 0.0
C3333 C 0.37182 0.88319 0.40003 0.0
C3334 C 0.33146 0.83098 0.38966 0.0
C3335 C 0.31337 0.83191 0.36762 0.0
N3336 N 0.35782 0.86747 0.3966 0.0
N3337 N 0.32559 0.84867 0.37153 0.0
H3338 H 0.94406 0.56831 0.13992 0.0
H3339 H 0.83418 0.62537 0.12295 0.0
H3340 H 0.90929 0.55224 0.1086 0.0
H3341 H 0.8547 0.61919 0.15869 0.0
H3342 H 0.86221 0.59974 0.1173 0.0
H3343 H 0.91237 0.58845 0.14682 0.0
C3344 C 0.92965 0.5689 0.13456 0.0
C3345 C 0.92922 0.55869 0.12368 0.0
C3346 C 0.86041 0.60386 0.12639 0.0
C3347 C 0.89316 0.58182 0.13142 0.0
C3348 C 0.8443 0.61844 0.12967 0.0
C3349 C 0.842 0.62465 0.14135 0.0
C3350 C 0.87464 0.59565 0.1348 0.0
C3351 C 0.85608 0.61535 0.14956 0.0
C3352 C 0.91159 0.58029 0.13851 0.0
C3353 C 0.91018 0.55981 0.11707 0.0
N3354 N 0.87193 0.60151 0.14611 0.0
N3355 N 0.89298 0.57143 0.12098 0.0
H3356 H 0.20254 0.15852 0.86127 0.0
H3357 H 0.12589 0.11051 0.91101 0.0
H3358 H 0.18012 0.19583 0.89057 0.0
H3359 H 0.13332 0.08126 0.87716 0.0
H3360 H 0.15107 0.13903 0.90523 0.0
H3361 H 0.18283 0.12707 0.86872 0.0
C3362 C 0.19372 0.15999 0.86936 0.0
C3363 C 0.19283 0.17982 0.87528 0.0
C3364 C 0.14728 0.12627 0.89911 0.0
C3365 C 0.17018 0.14401 0.88381 0.0
C3366 C 0.13282 0.11001 0.90238 0.0
C3367 C 0.12722 0.09352 0.89453 0.0
C3368 C 0.15636 0.12599 0.88794 0.0
C3369 C 0.13723 0.09348 0.88356 0.0
C3370 C 0.18236 0.1421 0.87356 0.0
C3371 C 0.18098 0.1809 0.88567 0.0
N3372 N 0.1512 0.10953 0.88058 0.0
N3373 N 0.17006 0.16326 0.88959 0.0
H3374 H 0.54952 0.42496 0.63933 0.0
H3375 H 0.66731 0.37944 0.62618 0.0
H3376 H 0.59011 0.45001 0.61197 0.0
H3377 H 0.63317 0.36651 0.65818 0.0
H3378 H 0.63963 0.40587 0.62102 0.0
H3379 H 0.58014 0.40379 0.64656 0.0
C3380 C 0.56496 0.4261 0.63491 0.0
C3381 C 0.56729 0.43912 0.625 0.0
C3382 C 0.6383 0.39738 0.62922 0.0
C3383 C 0.60233 0.41487 0.63316 0.0
C3384 C 0.65418 0.38233 0.63222 0.0
C3385 C 0.65257 0.37054 0.64262 0.0
C3386 C 0.6205 0.40057 0.6366 0.0
C3387 C 0.6349 0.37482 0.64996 0.0
C3388 C 0.58244 0.41409 0.63906 0.0
C3389 C 0.58767 0.44024 0.61967 0.0
N3390 N 0.61948 0.38933 0.64677 0.0
N3391 N 0.60436 0.42805 0.62373 0.0
H3392 H 0.23551 0.22946 0.21709 0.0
H3393 H 0.26972 0.26923 0.28072 0.0
H3394 H 0.27563 0.28536 0.22365 0.0
H3395 H 0.22945 0.21335 0.27434 0.0
H3396 H 0.27224 0.2752 0.25981 0.0
H3397 H 0.23363 0.22282 0.238 0.0
C3398 C 0.24403 0.24026 0.22292 0.0
C3399 C 0.2557 0.25803 0.2186 0.0
C3400 C 0.26286 0.26162 0.26297 0.0
C3401 C 0.25345 0.25065 0.24256 0.0
C3402 C 0.26131 0.25827 0.27492 0.0
C3403 C 0.24931 0.24079 0.2793 0.0
C3404 C 0.25232 0.24741 0.25531 0.0
C3405 C 0.23908 0.2269 0.27135 0.0
C3406 C 0.24285 0.23654 0.23486 0.0
C3407 C 0.26618 0.27166 0.22658 0.0
N3408 N 0.24079 0.23053 0.25975 0.0
N3409 N 0.26479 0.26769 0.23816 0.0
H3410 H 0.03215 0.02375 0.52447 0.0
H3411 H 0.95561 0.99486 0.47089 0.0
H3412 H 0.97837 0.9793 0.5271 0.0
H3413 H 0.02015 0.02078 0.46687 0.0
H3414 H 0.96159 0.9925 0.49181 0.0
H3415 H 0.02583 0.02641 0.50361 0.0
C3416 C 0.01909 0.01444 0.52068 0.0
C3417 C 0.00586 0.00117 0.52761 0.0
C3418 C 0.97442 0.99869 0.48633 0.0
C3419 C 0.99829 0.00455 0.5037 0.0
C3420 C 0.97109 -6e-05 0.47436 0.0
C3421 C 0.98742 0.00799 0.46704 0.0
C3422 C 0.99414 0.00572 0.49106 0.0
C3423 C 0.00694 0.01478 0.47214 0.0
C3424 C 0.01543 0.01608 0.50877 0.0
C3425 C 0.98883 0.98995 0.52218 0.0
N3426 N 0.00974 0.01353 0.48383 0.0
N3427 N 0.98553 0.99191 0.51056 0.0
H3428 H 0.25025 0.77632 0.71647 0.0
H3429 H 0.26434 0.72689 0.77925 0.0
H3430 H 0.2399 0.70816 0.72303 0.0
H3431 H 0.23771 0.79087 0.77389 0.0
H3432 H 0.26129 0.72015 0.75842 0.0
H3433 H 0.25172 0.78255 0.73737 0.0
C3434 C 0.24812 0.76265 0.72223 0.0
C3435 C 0.24482 0.74164 0.71786 0.0
C3436 C 0.2561 0.73562 0.76187 0.0
C3437 C 0.24724 0.74873 0.74184 0.0
C3438 C 0.25769 0.73949 0.77378 0.0
C3439 C 0.2513 0.75954 0.77845 0.0
C3440 C 0.24851 0.75203 0.75452 0.0
C3441 C 0.24332 0.77534 0.77075 0.0
C3442 C 0.2491 0.76626 0.73418 0.0
C3443 C 0.24285 0.72458 0.72589 0.0
N3444 N 0.24232 0.77131 0.75917 0.0
N3445 N 0.24422 0.72848 0.73748 0.0
H3446 H 0.51783 0.0238 0.02966 0.0
H3447 H 0.48697 0.96475 0.96997 0.0
H3448 H 0.46881 0.97426 0.0269 0.0
H3449 H 0.53462 0.01562 0.97273 0.0
H3450 H 0.48022 0.96774 0.99083 0.0
H3451 H 0.52469 0.02047 0.00885 0.0
C3452 C 0.5086 0.01212 0.02469 0.0
C3453 C 0.49273 0.99928 0.03004 0.0
C3454 C 0.49216 0.97824 0.98687 0.0
C3455 C 0.50033 0.99554 0.00617 0.0
C3456 C 0.49594 0.97662 0.97495 0.0
C3457 C 0.51141 0.98993 0.96959 0.0
C3458 C 0.50391 0.9933 0.99349 0.0
C3459 C 0.52277 0.0048 0.97652 0.0
C3460 C 0.51243 0.01032 0.01279 0.0
C3461 C 0.48102 0.98467 0.02312 0.0
N3462 N 0.51879 0.00609 0.98809 0.0
N3463 N 0.48507 0.98318 0.01155 0.0
H3464 H 0.26762 0.76717 0.28046 0.0
H3465 H 0.22439 0.72601 0.21886 0.0
H3466 H 0.23912 0.70407 0.27525 0.0
H3467 H 0.26383 0.78312 0.2234 0.0
H3468 H 0.22803 0.71834 0.2396 0.0
H3469 H 0.26471 0.77401 0.25967 0.0
C3470 C 0.26091 0.75466 0.27494 0.0
C3471 C 0.25369 0.73496 0.27964 0.0
C3472 C 0.2359 0.73253 0.23604 0.0
C3473 C 0.24997 0.74288 0.25579 0.0
C3474 C 0.23393 0.73687 0.22418 0.0
C3475 C 0.24379 0.75528 0.21935 0.0
C3476 C 0.24773 0.74673 0.24313 0.0
C3477 C 0.25563 0.76895 0.22674 0.0
C3478 C 0.25914 0.75864 0.26306 0.0
C3479 C 0.24466 0.71959 0.27206 0.0
N3480 N 0.25723 0.76442 0.23825 0.0
N3481 N 0.24304 0.72388 0.26051 0.0
H3482 H 0.48043 0.95859 0.47315 0.0
H3483 H 0.52669 0.03041 0.52483 0.0
H3484 H 0.51661 0.01734 0.46737 0.0
H3485 H 0.5109 0.96284 0.52903 0.0
H3486 H 0.52108 0.02681 0.50387 0.0
H3487 H 0.48938 0.96061 0.49385 0.0
C3488 C 0.49028 0.9719 0.47626 0.0
C3489 C 0.49774 0.98788 0.46859 0.0
C3490 C 0.51899 0.01274 0.50936 0.0
C3491 C 0.50795 0.99033 0.49219 0.0
C3492 C 0.52207 0.01481 0.52131 0.0
C3493 C 0.51917 0.9969 0.52864 0.0
C3494 C 0.51263 0.99269 0.50474 0.0
C3495 C 0.5134 0.977 0.52365 0.0
C3496 C 0.49548 0.97297 0.48804 0.0
C3497 C 0.51064 0.00464 0.47301 0.0
N3498 N 0.51011 0.97547 0.51201 0.0
N3499 N 0.51518 0.00556 0.48455 0.0
H3500 H 0.23819 0.28916 0.77468 0.0
H3501 H 0.24676 0.20169 0.72436 0.0
H3502 H 0.25512 0.22249 0.78161 0.0
H3503 H 0.26111 0.26919 0.7187 0.0
H3504 H 0.24416 0.20877 0.7453 0.0
H3505 H 0.24125 0.28192 0.75392 0.0
C3506 C 0.24271 0.27304 0.7719 0.0
C3507 C 0.24651 0.25646 0.78002 0.0
C3508 C 0.24793 0.22199 0.73946 0.0
C3509 C 0.24938 0.248 0.75618 0.0
C3510 C 0.2493 0.21799 0.72755 0.0
C3511 C 0.2542 0.23489 0.71986 0.0
C3512 C 0.25105 0.24312 0.74364 0.0
C3513 C 0.25747 0.25572 0.72439 0.0
C3514 C 0.24431 0.26893 0.76002 0.0
C3515 C 0.25169 0.23574 0.77576 0.0
N3516 N 0.25568 0.25929 0.73599 0.0
N3517 N 0.25287 0.23209 0.76414 0.0
H3518 H 0.98793 0.03566 0.96986 0.0
H3519 H 0.99126 0.96257 0.02706 0.0
H3520 H 0.02032 0.97386 0.97158 0.0
H3521 H 0.97723 0.03108 0.02774 0.0
H3522 H 0.99804 0.96512 0.00624 0.0
H3523 H 0.97961 0.03282 0.99062 0.0
C3524 C 0.99317 0.02144 0.97461 0.0
C3525 C 0.00487 0.00499 0.96903 0.0
C3526 C 0.99347 0.97959 0.01096 0.0
C3527 C 0.99544 0.00164 0.9927 0.0
C3528 C 0.98971 0.97819 0.02288 0.0
C3529 C 0.9838 0.99668 0.02924 0.0
C3530 C 0.99112 0.99956 0.0053 0.0
C3531 C 0.9815 0.01634 0.02321 0.0
C3532 C 0.98853 0.0199 0.98644 0.0
C3533 C 0.01146 0.98701 0.97559 0.0
N3534 N 0.98517 0.01726 0.01159 0.0
N3535 N 0.0066 0.98578 0.98707 0.0
H3536 H 0.75584 0.72581 0.71707 0.0
H3537 H 0.7403 0.77476 0.77981 0.0
H3538 H 0.76601 0.79386 0.72399 0.0
H3539 H 0.76506 0.71001 0.77459 0.0
H3540 H 0.74485 0.78174 0.7591 0.0
H3541 H 0.75437 0.71918 0.73793 0.0
C3542 C 0.75798 0.73936 0.72291 0.0
C3543 C 0.76107 0.76048 0.71865 0.0
C3544 C 0.74935 0.76606 0.76255 0.0
C3545 C 0.75869 0.75294 0.74259 0.0
C3546 C 0.74689 0.76205 0.7744 0.0
C3547 C 0.75227 0.74171 0.77906 0.0
C3548 C 0.75683 0.74952 0.75524 0.0
C3549 C 0.76023 0.72578 0.77144 0.0
C3550 C 0.757 0.73553 0.73484 0.0
C3551 C 0.76315 0.77738 0.72677 0.0
N3552 N 0.76209 0.72997 0.7599 0.0
N3553 N 0.76175 0.77327 0.73834 0.0
H3554 H 0.74453 0.27599 0.21701 0.0
H3555 H 0.75959 0.22567 0.27946 0.0
H3556 H 0.735 0.20764 0.22333 0.0
H3557 H 0.73291 0.28977 0.27461 0.0
H3558 H 0.75585 0.21923 0.25864 0.0
H3559 H 0.74554 0.28203 0.23794 0.0
C3560 C 0.74245 0.26224 0.22273 0.0
C3561 C 0.73966 0.24122 0.21828 0.0
C3562 C 0.75078 0.23466 0.2622 0.0
C3563 C 0.74152 0.2481 0.24229 0.0
C3564 C 0.75276 0.23835 0.2741 0.0
C3565 C 0.74659 0.25835 0.27891 0.0
C3566 C 0.74299 0.25119 0.25498 0.0
C3567 C 0.73836 0.27427 0.27136 0.0
C3568 C 0.74317 0.26575 0.23469 0.0
C3569 C 0.73765 0.22407 0.22626 0.0
N3570 N 0.73698 0.27041 0.25977 0.0
N3571 N 0.73879 0.22786 0.23786 0.0
H3572 H 0.71944 0.21667 0.77706 0.0
H3573 H 0.77773 0.26465 0.72075 0.0
H3574 H 0.77732 0.25567 0.77845 0.0
H3575 H 0.71128 0.24283 0.72069 0.0
H3576 H 0.77946 0.25782 0.74159 0.0
H3577 H 0.71783 0.22239 0.75602 0.0
C3578 C 0.73183 0.22638 0.77292 0.0
C3579 C 0.7485 0.23578 0.77948 0.0
C3580 C 0.7645 0.25454 0.73701 0.0
C3581 C 0.74681 0.24231 0.75548 0.0
C3582 C 0.76344 0.25853 0.72511 0.0
C3583 C 0.74425 0.2545 0.71892 0.0
C3584 C 0.74632 0.24626 0.7428 0.0
C3585 C 0.72649 0.24599 0.72504 0.0
C3586 C 0.73085 0.22971 0.76094 0.0
C3587 C 0.76406 0.24835 0.77371 0.0
N3588 N 0.72795 0.24217 0.73664 0.0
N3589 N 0.76289 0.25118 0.76203 0.0
H3590 H 0.75906 0.7933 0.27573 0.0
H3591 H 0.7564 0.70384 0.22552 0.0
H3592 H 0.7441 0.72602 0.28182 0.0
H3593 H 0.75748 0.77261 0.21875 0.0
H3594 H 0.75475 0.71141 0.2463 0.0
H3595 H 0.76184 0.78571 0.25492 0.0
C3596 C 0.75649 0.77691 0.27268 0.0
C3597 C 0.75129 0.76027 0.2805 0.0
C3598 C 0.75533 0.72484 0.24026 0.0
C3599 C 0.75435 0.75149 0.25673 0.0
C3600 C 0.75616 0.72054 0.22838 0.0
C3601 C 0.75698 0.73761 0.22032 0.0
C3602 C 0.75547 0.74637 0.24417 0.0
C3603 C 0.75713 0.75892 0.2246 0.0
C3604 C 0.75795 0.77261 0.26081 0.0
C3605 C 0.74789 0.73937 0.27608 0.0
N3606 N 0.75638 0.76268 0.23623 0.0
N3607 N 0.74952 0.73556 0.26449 0.0
H3608 H 0.52844 0.51858 0.02564 0.0
H3609 H 0.45894 0.47796 0.97113 0.0
H3610 H 0.48035 0.46805 0.02788 0.0
H3611 H 0.50712 0.52848 0.9694 0.0
H3612 H 0.46636 0.47395 0.99189 0.0
H3613 H 0.52063 0.52235 0.00499 0.0
C3614 C 0.51632 0.50817 0.02177 0.0
C3615 C 0.50512 0.49288 0.0285 0.0
C3616 C 0.47528 0.48593 0.98697 0.0
C3617 C 0.49588 0.4973 0.00483 0.0
C3618 C 0.47114 0.48814 0.9751 0.0
C3619 C 0.48242 0.50359 0.96851 0.0
C3620 C 0.49086 0.49922 0.99227 0.0
C3621 C 0.49783 0.51656 0.97416 0.0
C3622 C 0.51176 0.51043 0.00998 0.0
C3623 C 0.48925 0.48016 0.02305 0.0
N3624 N 0.5016 0.51406 0.98569 0.0
N3625 N 0.48514 0.48261 0.01152 0.0
H3626 H -0.00011 0.4609 0.47118 0.0
H3627 H 0.98172 0.53845 0.52533 0.0
H3628 H 0.01564 0.52887 0.46994 0.0
H3629 H 0.99803 0.47103 0.52952 0.0
H3630 H 0.98855 0.53518 0.5044 0.0
H3631 H 0.99346 0.46415 0.49216 0.0
C3632 C 0.0019 0.4765 0.47535 0.0
C3633 C 0.00832 0.49465 0.46891 0.0
C3634 C 0.99068 0.52114 0.50992 0.0
C3635 C 0.00084 0.49851 0.49271 0.0
C3636 C 0.98671 0.52297 0.52181 0.0
C3637 C 0.98938 0.50498 0.52908 0.0
C3638 C 0.99691 0.50107 0.50529 0.0
C3639 C 0.99595 0.48529 0.52416 0.0
C3640 C 0.99836 0.47831 0.48728 0.0
C3641 C 0.01084 0.51449 0.47467 0.0
N3642 N 0.99933 0.48378 0.51253 0.0
N3643 N 0.00693 0.51595 0.48625 0.0
H3644 H 0.03526 0.52443 0.02496 0.0
H3645 H 0.96162 0.4741 0.97449 0.0
H3646 H 0.98038 0.48283 0.03133 0.0
H3647 H 0.0166 0.5156 0.96815 0.0
H3648 H 0.96797 0.47742 0.99535 0.0
H3649 H 0.02858 0.52149 0.00412 0.0
C3650 C 0.02185 0.51459 0.02197 0.0
C3651 C 0.0084 0.5038 0.02991 0.0
C3652 C 0.97865 0.4858 0.9894 0.0
C3653 C 0.00053 0.50053 0.00604 0.0
C3654 C 0.97497 0.48401 0.97748 0.0
C3655 C 0.98858 0.49462 0.96955 0.0
C3656 C 0.99608 0.49831 0.99344 0.0
C3657 C 0.00585 0.50693 0.97394 0.0
C3658 C 0.01798 0.51301 0.01007 0.0
C3659 C 0.99103 0.49161 0.02554 0.0
N3660 N 0.00908 0.50846 0.98558 0.0
N3661 N 0.98763 0.49026 0.0139 0.0
H3662 H 0.48658 0.53332 0.47016 0.0
H3663 H 0.51723 0.47456 0.52998 0.0
H3664 H 0.53494 0.48317 0.47308 0.0
H3665 H 0.46808 0.52392 0.52702 0.0
H3666 H 0.52436 0.47791 0.50919 0.0
H3667 H 0.47965 0.53025 0.49099 0.0
C3668 C 0.49567 0.52159 0.47517 0.0
C3669 C 0.51138 0.50849 0.46986 0.0
C3670 C 0.51201 0.48802 0.51308 0.0
C3671 C 0.50367 0.50502 0.49374 0.0
C3672 C 0.50802 0.4862 0.52497 0.0
C3673 C 0.49203 0.49898 0.53025 0.0
C3674 C 0.49995 0.50276 0.50641 0.0
C3675 C 0.48037 0.51355 0.52329 0.0
C3676 C 0.49179 0.51992 0.48708 0.0
C3677 C 0.52289 0.4938 0.47682 0.0
N3678 N 0.48457 0.51505 0.51173 0.0
N3679 N 0.5188 0.49246 0.48839 0.0
H3680 H 0.36395 0.18707 0.36567 0.0
H3681 H 0.3863 0.06232 0.37746 0.0
H3682 H 0.31329 0.14071 0.37247 0.0
H3683 H 0.43311 0.11085 0.3872 0.0
H3684 H 0.36067 0.09097 0.37249 0.0
H3685 H 0.391 0.15938 0.37082 0.0
C3686 C 0.35857 0.17112 0.36831 0.0
C3687 C 0.33642 0.16615 0.36877 0.0
C3688 C 0.37656 0.09537 0.37568 0.0
C3689 C 0.36701 0.13457 0.37439 0.0
C3690 C 0.39123 0.07906 0.37842 0.0
C3691 C 0.41183 0.0843 0.38268 0.0
C3692 C 0.3826 0.11711 0.37706 0.0
C3693 C 0.41732 0.10622 0.38395 0.0
C3694 C 0.37394 0.15542 0.37126 0.0
C3695 C 0.33021 0.14527 0.37218 0.0
N3696 N 0.40279 0.12192 0.38108 0.0
N3697 N 0.34543 0.1302 0.37477 0.0
H3698 H 0.06966 0.09004 0.63337 0.0
H3699 H 0.1626 0.17204 0.61349 0.0
H3700 H 0.09007 0.09874 0.59782 0.0
H3701 H 0.14369 0.1626 0.64921 0.0
H3702 H 0.13291 0.14854 0.60739 0.0
H3703 H 0.09357 0.11969 0.63916 0.0
C3704 C 0.07906 0.09826 0.62677 0.0
C3705 C 0.07797 0.09176 0.6151 0.0
C3706 C 0.1351 0.15177 0.61656 0.0
C3707 C 0.10531 0.12576 0.62166 0.0
C3708 C 0.15209 0.16513 0.62005 0.0
C3709 C 0.15576 0.16909 0.63188 0.0
C3710 C 0.12174 0.14214 0.62498 0.0
C3711 C 0.1414 0.16004 0.64 0.0
C3712 C 0.09264 0.11526 0.63007 0.0
C3713 C 0.09024 0.10327 0.6069 0.0
N3714 N 0.12517 0.14679 0.6364 0.0
N3715 N 0.10353 0.11956 0.61035 0.0
H3716 H 0.16443 0.82746 0.88495 0.0
H3717 H 0.06659 0.90486 0.86626 0.0
H3718 H 0.14765 0.84098 0.84927 0.0
H3719 H 0.09477 0.90359 0.90059 0.0
H3720 H 0.09147 0.87605 0.86038 0.0
H3721 H 0.13408 0.84989 0.89125 0.0
C3722 C 0.15433 0.83507 0.87843 0.0
C3723 C 0.15883 0.83254 0.86656 0.0
C3724 C 0.09199 0.88196 0.86923 0.0
C3725 C 0.12387 0.85805 0.87373 0.0
C3726 C 0.07786 0.89846 0.87259 0.0
C3727 C 0.07865 0.90687 0.88392 0.0
C3728 C 0.10697 0.87372 0.87727 0.0
C3729 C 0.09332 0.89756 0.89181 0.0
C3730 C 0.13694 0.84779 0.88204 0.0
C3731 C 0.1448 0.84235 0.85851 0.0
N3732 N 0.10697 0.88162 0.88831 0.0
N3733 N 0.12806 0.85482 0.86225 0.0
H3734 H 0.31298 0.86083 0.12711 0.0
H3735 H 0.43674 0.88441 0.11435 0.0
H3736 H 0.36169 0.81428 0.13692 0.0
H3737 H 0.39136 0.93441 0.12386 0.0
H3738 H 0.40941 0.85692 0.11948 0.0
H3739 H 0.34155 0.88668 0.12226 0.0
C3740 C 0.32974 0.856 0.1281 0.0
C3741 C 0.33507 0.83543 0.13236 0.0
C3742 C 0.40561 0.87393 0.12052 0.0
C3743 C 0.36774 0.86486 0.12687 0.0
C3744 C 0.42109 0.88953 0.11759 0.0
C3745 C 0.41626 0.91161 0.11879 0.0
C3746 C 0.38509 0.8806 0.12434 0.0
C3747 C 0.39578 0.91753 0.12297 0.0
C3748 C 0.34599 0.87078 0.12544 0.0
C3749 C 0.35701 0.83004 0.13366 0.0
N3750 N 0.38087 0.90212 0.12548 0.0
N3751 N 0.37265 0.84466 0.13085 0.0
H3752 H 0.64327 0.81122 0.62186 0.0
H3753 H 0.5842 0.92165 0.63868 0.0
H3754 H 0.65377 0.84621 0.65384 0.0
H3755 H 0.57163 0.88722 0.6068 0.0
H3756 H 0.60593 0.8912 0.64548 0.0
H3757 H 0.61359 0.83602 0.61717 0.0
C3758 C 0.63922 0.82395 0.62795 0.0
C3759 C 0.65117 0.82668 0.63822 0.0
C3760 C 0.59824 0.89012 0.63705 0.0
C3761 C 0.61722 0.85505 0.63294 0.0
C3762 C 0.58585 0.90752 0.63317 0.0
C3763 C 0.57635 0.907 0.62212 0.0
C3764 C 0.60141 0.87215 0.62977 0.0
C3765 C 0.57871 0.88822 0.61539 0.0
C3766 C 0.62221 0.83804 0.62529 0.0
C3767 C 0.64495 0.84327 0.64587 0.0
N3768 N 0.5913 0.87163 0.61924 0.0
N3769 N 0.62859 0.85691 0.64301 0.0
H3770 H 0.94358 0.88995 0.37228 0.0
H3771 H 0.83067 0.83411 0.38795 0.0
H3772 H 0.90359 0.90623 0.40181 0.0
H3773 H 0.86477 0.82179 0.35596 0.0
H3774 H 0.86147 0.85514 0.3949 0.0
H3775 H 0.9187 0.86023 0.3677 0.0
C3776 C 0.92975 0.88721 0.37787 0.0
C3777 C 0.9257 0.9008 0.38742 0.0
C3778 C 0.8624 0.84767 0.3864 0.0
C3779 C 0.89737 0.86669 0.3823 0.0
C3780 C 0.84483 0.83565 0.38246 0.0
C3781 C 0.84514 0.82652 0.37132 0.0
C3782 C 0.88035 0.85084 0.3791 0.0
C3783 C 0.86395 0.82868 0.3646 0.0
C3784 C 0.91563 0.87016 0.37528 0.0
C3785 C 0.9077 0.89614 0.39446 0.0
N3786 N 0.88073 0.84095 0.36852 0.0
N3787 N 0.89419 0.87964 0.3917 0.0
H3788 H 0.84726 0.1564 0.15376 0.0
H3789 H 0.92552 0.11179 0.10427 0.0
H3790 H 0.85419 0.18718 0.12028 0.0
H3791 H 0.91762 0.0823 0.13797 0.0
H3792 H 0.90389 0.1427 0.11085 0.0
H3793 H 0.87726 0.13262 0.14906 0.0
C3794 C 0.85533 0.1585 0.14549 0.0
C3795 C 0.848 0.17383 0.13738 0.0
C3796 C 0.90714 0.1296 0.11685 0.0
C3797 C 0.88222 0.14599 0.13179 0.0
C3798 C 0.9196 0.11203 0.11312 0.0
C3799 C 0.92309 0.09434 0.12054 0.0
C3800 C 0.89816 0.12942 0.12807 0.0
C3801 C 0.91494 0.09542 0.1319 0.0
C3802 C 0.87242 0.14471 0.14276 0.0
C3803 C 0.85898 0.17535 0.12672 0.0
N3804 N 0.90269 0.11253 0.13527 0.0
N3805 N 0.87539 0.16144 0.12418 0.0
H3806 H 0.59949 0.09208 0.90347 0.0
H3807 H 0.6344 0.1797 0.85595 0.0
H3808 H 0.56306 0.10384 0.87209 0.0
H3809 H 0.67375 0.16047 0.88519 0.0
H3810 H 0.60546 0.15606 0.86303 0.0
H3811 H 0.62375 0.12155 0.89834 0.0
C3812 C 0.59632 0.1011 0.89559 0.0
C3813 C 0.57918 0.09539 0.88819 0.0
C3814 C 0.62037 0.15723 0.86794 0.0
C3815 C 0.60738 0.12898 0.8821 0.0
C3816 C 0.63694 0.17064 0.86389 0.0
C3817 C 0.65667 0.172 0.86993 0.0
C3818 C 0.62353 0.1451 0.87812 0.0
C3819 C 0.65882 0.1602 0.88029 0.0
C3820 C 0.61035 0.11784 0.89261 0.0
C3821 C 0.57624 0.10747 0.87797 0.0
N3822 N 0.64254 0.14717 0.88399 0.0
N3823 N 0.59029 0.12361 0.87519 0.0
H3824 H 0.81233 0.62832 0.86509 0.0
H3825 H 0.93244 0.61141 0.88813 0.0
H3826 H 0.85669 0.68197 0.86809 0.0
H3827 H 0.89511 0.56117 0.87149 0.0
H3828 H 0.90436 0.63779 0.88271 0.0
H3829 H 0.84183 0.60346 0.86964 0.0
C3830 C 0.82829 0.63486 0.8668 0.0
C3831 C 0.8321 0.6572 0.86629 0.0
C3832 C 0.90251 0.62102 0.88016 0.0
C3833 C 0.86597 0.62885 0.87143 0.0
C3834 C 0.91844 0.606 0.88326 0.0
C3835 C 0.91612 0.58413 0.88019 0.0
C3836 C 0.884 0.61394 0.87418 0.0
C3837 C 0.8977 0.57792 0.87389 0.0
C3838 C 0.84515 0.62066 0.86929 0.0
C3839 C 0.85316 0.66481 0.86839 0.0
N3840 N 0.88227 0.5927 0.87119 0.0
N3841 N 0.86934 0.65064 0.87096 0.0
H3842 H 0.63798 0.67451 0.1429 0.0
H3843 H 0.60062 0.59021 0.0942 0.0
H3844 H 0.67591 0.6574 0.11281 0.0
H3845 H 0.56489 0.60121 0.12589 0.0
H3846 H 0.62521 0.61933 0.09949 0.0
H3847 H 0.60818 0.65227 0.13543 0.0
C3848 C 0.63989 0.66635 0.13463 0.0
C3849 C 0.6595 0.66756 0.12852 0.0
C3850 C 0.61188 0.61554 0.10525 0.0
C3851 C 0.62566 0.64204 0.11999 0.0
C3852 C 0.59767 0.599 0.10219 0.0
C3853 C 0.58065 0.59315 0.10963 0.0
C3854 C 0.60922 0.62632 0.11589 0.0
C3855 C 0.57798 0.60493 0.11997 0.0
C3856 C 0.62295 0.65357 0.13041 0.0
C3857 C 0.66119 0.65658 0.11789 0.0
N3858 N 0.59222 0.62086 0.12284 0.0
N3859 N 0.64456 0.64418 0.11401 0.0
H3860 H 0.64577 0.33629 0.35064 0.0
H3861 H 0.59667 0.4038 0.40282 0.0
H3862 H 0.66487 0.3269 0.38638 0.0
H3863 H 0.56674 0.40136 0.36893 0.0
H3864 H 0.62056 0.37441 0.39714 0.0
H3865 H 0.6157 0.35875 0.3572 0.0
C3866 C 0.64347 0.33861 0.35988 0.0
C3867 C 0.65808 0.32981 0.36796 0.0
C3868 C 0.6086 0.38011 0.39098 0.0
C3869 C 0.62385 0.35597 0.3755 0.0
C3870 C 0.59477 0.39685 0.39425 0.0
C3871 C 0.57963 0.40526 0.38634 0.0
C3872 C 0.60757 0.37182 0.37965 0.0
C3873 C 0.57842 0.39576 0.37526 0.0
C3874 C 0.62632 0.35157 0.36361 0.0
C3875 C 0.65435 0.33372 0.37981 0.0
N3876 N 0.59237 0.37972 0.3722 0.0
N3877 N 0.63777 0.34669 0.38321 0.0
H3878 H 0.91166 0.42799 0.63459 0.0
H3879 H 0.84572 0.3208 0.6199 0.0
H3880 H 0.92509 0.38874 0.60438 0.0
H3881 H 0.84054 0.35564 0.65228 0.0
H3882 H 0.87646 0.34376 0.6145 0.0
H3883 H 0.88747 0.40004 0.64171 0.0
C3884 C 0.90989 0.41333 0.62953 0.0
C3885 C 0.92047 0.41085 0.61881 0.0
C3886 C 0.86872 0.34622 0.62283 0.0
C3887 C 0.89206 0.37885 0.62683 0.0
C3888 C 0.85123 0.33307 0.62594 0.0
C3889 C 0.84036 0.33652 0.63649 0.0
C3890 C 0.8753 0.36294 0.63032 0.0
C3891 C 0.84811 0.35273 0.64394 0.0
C3892 C 0.89586 0.39739 0.63358 0.0
C3893 C 0.917 0.39158 0.61257 0.0
N3894 N 0.86495 0.36544 0.64067 0.0
N3895 N 0.90292 0.37642 0.61662 0.0
H3896 H 0.06179 0.38358 0.11291 0.0
H3897 H 0.18532 0.35767 0.12491 0.0
H3898 H 0.10819 0.43248 0.12266 0.0
H3899 H 0.13613 0.31186 0.13505 0.0
H3900 H 0.15705 0.38388 0.12016 0.0
H3901 H 0.08872 0.35545 0.11768 0.0
C3902 C 0.07757 0.38832 0.11613 0.0
C3903 C 0.08281 0.41027 0.11751 0.0
C3904 C 0.15244 0.36805 0.12337 0.0
C3905 C 0.11352 0.37856 0.12263 0.0
C3906 C 0.16852 0.35305 0.12597 0.0
C3907 C 0.16297 0.3326 0.13031 0.0
C3908 C 0.13064 0.36248 0.12496 0.0
C3909 C 0.14097 0.32752 0.13172 0.0
C3910 C 0.09282 0.37236 0.11885 0.0
C3911 C 0.10346 0.41571 0.12163 0.0
N3912 N 0.1255 0.34237 0.12898 0.0
N3913 N 0.11814 0.39997 0.12393 0.0
H3914 H 0.43091 0.40689 0.8645 0.0
H3915 H 0.34788 0.31409 0.88336 0.0
H3916 H 0.40937 0.39743 0.89984 0.0
H3917 H 0.35128 0.34102 0.84876 0.0
H3918 H 0.37713 0.33836 0.8893 0.0
H3919 H 0.40853 0.37626 0.8585 0.0
C3920 C 0.42161 0.39834 0.87102 0.0
C3921 C 0.4218 0.40506 0.88268 0.0
C3922 C 0.37158 0.3387 0.88038 0.0
C3923 C 0.39647 0.36973 0.87586 0.0
C3924 C 0.3548 0.32495 0.87698 0.0
C3925 C 0.3468 0.32561 0.86555 0.0
C3926 C 0.38061 0.35306 0.87228 0.0
C3927 C 0.35692 0.33967 0.85762 0.0
C3928 C 0.40893 0.38079 0.86758 0.0
C3929 C 0.40988 0.39287 0.89077 0.0
N3930 N 0.37318 0.3529 0.86116 0.0
N3931 N 0.39756 0.37591 0.88719 0.0
H3932 H 0.39023 0.56729 0.62324 0.0
H3933 H 0.36445 0.69111 0.63449 0.0
H3934 H 0.43619 0.6162 0.6129 0.0
H3935 H 0.31556 0.64463 0.62483 0.0
H3936 H 0.39256 0.66404 0.62994 0.0
H3937 H 0.36404 0.59572 0.62777 0.0
C3938 C 0.39488 0.58407 0.62209 0.0
C3939 C 0.41537 0.58949 0.61775 0.0
C3940 C 0.37566 0.65995 0.62874 0.0
C3941 C 0.38552 0.62199 0.62286 0.0
C3942 C 0.35971 0.67528 0.63134 0.0
C3943 C 0.33776 0.67006 0.62992 0.0
C3944 C 0.36945 0.63919 0.62505 0.0
C3945 C 0.33233 0.64935 0.62588 0.0
C3946 C 0.3799 0.60023 0.62457 0.0
C3947 C 0.4205 0.61145 0.61622 0.0
N3948 N 0.34806 0.6346 0.6237 0.0
N3949 N 0.40566 0.62701 0.61884 0.0
H3950 H 0.0926 0.59632 0.40137 0.0
H3951 H 0.13306 0.67417 0.35048 0.0
H3952 H 0.05974 0.60181 0.36838 0.0
H3953 H 0.16549 0.66627 0.38344 0.0
H3954 H 0.10359 0.65117 0.35754 0.0
H3955 H 0.11646 0.62573 0.39574 0.0
C3956 C 0.09008 0.60396 0.39301 0.0
C3957 C 0.0741 0.59645 0.38533 0.0
C3958 C 0.11705 0.6547 0.36326 0.0
C3959 C 0.10197 0.62995 0.37867 0.0
C3960 C 0.13393 0.66775 0.35922 0.0
C3961 C 0.1519 0.67207 0.36633 0.0
C3962 C 0.11819 0.64585 0.37448 0.0
C3963 C 0.15193 0.66361 0.37766 0.0
C3964 C 0.10391 0.62069 0.38975 0.0
C3965 C 0.07205 0.6068 0.37451 0.0
N3966 N 0.13546 0.6508 0.38132 0.0
N3967 N 0.08596 0.62291 0.37146 0.0
loop_
_geom_bond_atom_site_label_1
_geom_bond_atom_site_label_2
_geom_bond_distance
_geom_bond_site_symmetry_2
_ccdc_geom_bond_type
Li0 N17 1.990 . S
Li0 O60 1.956 . S
Li0 O61 1.970 . S
Li0 O62 1.961 . S
Li1 N25 1.990 . S
Li1 O60 1.970 . S
Li1 O61 1.956 . S
Li1 O63 1.961 . S
Li2 N47 1.990 . S
Li2 O60 1.961 . S
Li2 O62 1.956 . S
Li2 O63 1.970 . S
Li3 N53 1.990 . S
Li3 O61 1.961 . S
Li3 O62 1.970 . S
Li3 O63 1.956 . S
C4 C6 1.348 . S
C4 C7 1.356 . S
C4 O60 1.325 . S
N5 C8 1.314 . S
N5 C9 1.279 . S
C6 C4 1.348 . S
C6 C8 1.353 . S
C6 H64 0.929 . S
C7 C4 1.356 . S
C7 C9 1.358 . S
C7 H65 0.930 . S
C8 N5 1.314 . S
C8 C6 1.353 . S
C8 H66 0.930 . S
C9 N5 1.279 . S
C9 C7 1.358 . S
C9 H67 0.930 . S
C10 C13 1.348 . S
C10 C14 1.356 . S
C10 O61 1.325 . S
C11 N12 1.279 . S
C11 C14 1.358 . S
C11 H68 0.930 . S
N12 C11 1.279 . S
N12 C15 1.314 . S
C13 C10 1.348 . S
C13 C15 1.353 . S
C13 H69 0.929 . S
C14 C10 1.356 . S
C14 C11 1.358 . S
C14 H70 0.930 . S
C15 N12 1.314 . S
C15 C13 1.353 . S
C15 H71 0.930 . S
C16 N17 1.314 . S
C16 C21 1.353 . S
C16 H22 0.930 . S
N17 Li0 1.990 . S
N17 C16 1.314 . S
N17 C19 1.279 . S
C18 C19 1.358 . S
C18 C20 1.356 . S
C18 H72 0.930 . S
C19 N17 1.279 . S
C19 C18 1.358 . S
C19 H23 0.930 . S
C20 C18 1.356 . S
C20 C21 1.348 . S
C21 C16 1.353 . S
C21 C20 1.348 . S
C21 H73 0.929 . S
H22 C16 0.930 . S
H23 C19 0.930 . S
C24 N25 1.314 . S
C24 C26 1.353 . S
C24 H30 0.930 . S
N25 Li1 1.990 . S
N25 C24 1.314 . S
N25 C28 1.279 . S
C26 C24 1.353 . S
C26 C29 1.348 . S
C26 H74 0.929 . S
C27 C28 1.358 . S
C27 C29 1.356 . S
C27 H75 0.930 . S
C28 N25 1.279 . S
C28 C27 1.358 . S
C28 H31 0.930 . S
C29 C26 1.348 . S
C29 C27 1.356 . S
H30 C24 0.930 . S
H31 C28 0.930 . S
C32 C34 1.348 . S
C32 C35 1.356 . S
C32 O62 1.325 . S
N33 C36 1.314 . S
N33 C37 1.279 . S
C34 C32 1.348 . S
C34 C36 1.353 . S
C34 H76 0.929 . S
C35 C32 1.356 . S
C35 C37 1.358 . S
C35 H77 0.930 . S
C36 N33 1.314 . S
C36 C34 1.353 . S
C36 H78 0.930 . S
C37 N33 1.279 . S
C37 C35 1.358 . S
C37 H79 0.930 . S
C38 C39 1.348 . S
C38 C40 1.356 . S
C38 O63 1.325 . S
C39 C38 1.348 . S
C39 C41 1.353 . S
C39 H80 0.929 . S
C40 C38 1.356 . S
C40 C42 1.358 . S
C40 H81 0.930 . S
C41 C39 1.353 . S
C41 N43 1.314 . S
C41 H82 0.930 . S
C42 C40 1.358 . S
C42 N43 1.279 . S
C42 H83 0.930 . S
N43 C41 1.314 . S
N43 C42 1.279 . S
C44 C46 1.353 . S
C44 N47 1.314 . S
C44 H50 0.930 . S
C45 N47 1.279 . S
C45 C48 1.358 . S
C45 H51 0.930 . S
C46 C44 1.353 . S
C46 C49 1.348 . S
C46 H84 0.929 . S
N47 Li2 1.990 . S
N47 C44 1.314 . S
N47 C45 1.279 . S
C48 C45 1.358 . S
C48 C49 1.356 . S
C48 H85 0.930 . S
C49 C46 1.348 . S
C49 C48 1.356 . S
H50 C44 0.930 . S
H51 C45 0.930 . S
C52 N53 1.314 . S
C52 C54 1.353 . S
C52 H58 0.930 . S
N53 Li3 1.990 . S
N53 C52 1.314 . S
N53 C56 1.279 . S
C54 C52 1.353 . S
C54 C57 1.348 . S
C54 H86 0.929 . S
C55 C56 1.358 . S
C55 C57 1.356 . S
C55 H87 0.930 . S
C56 N53 1.279 . S
C56 C55 1.358 . S
C56 H59 0.930 . S
C57 C54 1.348 . S
C57 C55 1.356 . S
H58 C52 0.930 . S
H59 C56 0.930 . S
O60 Li0 1.956 . S
O60 Li1 1.970 . S
O60 Li2 1.961 . S
O60 C4 1.325 . S
O61 Li0 1.970 . S
O61 Li1 1.956 . S
O61 Li3 1.961 . S
O61 C10 1.325 . S
O62 Li0 1.961 . S
O62 Li2 1.956 . S
O62 Li3 1.970 . S
O62 C32 1.325 . S
O63 Li1 1.961 . S
O63 Li2 1.970 . S
O63 Li3 1.956 . S
O63 C38 1.325 . S
H64 C6 0.929 . S
H65 C7 0.930 . S
H66 C8 0.930 . S
H67 C9 0.930 . S
H68 C11 0.930 . S
H69 C13 0.929 . S
H70 C14 0.930 . S
H71 C15 0.930 . S
H72 C18 0.930 . S
H73 C21 0.929 . S
H74 C26 0.929 . S
H75 C27 0.930 . S
H76 C34 0.929 . S
H77 C35 0.930 . S
H78 C36 0.930 . S
H79 C37 0.930 . S
H80 C39 0.929 . S
H81 C40 0.930 . S
H82 C41 0.930 . S
H83 C42 0.930 . S
H84 C46 0.929 . S
H85 C48 0.930 . S
H86 C54 0.929 . S
H87 C55 0.930 . S
Li88 N105 1.990 1_455 S
Li88 O148 1.956 . S
Li88 O149 1.970 . S
Li88 O150 1.961 1_565 S
Li89 N113 1.990 . S
Li89 O148 1.970 . S
Li89 O149 1.956 . S
Li89 O151 1.961 . S
Li90 N135 1.990 . S
Li90 O148 1.961 1_545 S
Li90 O150 1.956 . S
Li90 O151 1.970 1_545 S
Li91 N141 1.990 . S
Li91 O149 1.961 . S
Li91 O150 1.970 1_565 S
Li91 O151 1.956 . S
C92 C94 1.348 . S
C92 C95 1.356 . S
C92 O148 1.325 . S
N93 C96 1.314 . S
N93 C97 1.279 . S
C94 C92 1.348 . S
C94 C96 1.353 . S
C94 H152 0.929 . S
C95 C92 1.356 . S
C95 C97 1.358 . S
C95 H153 0.930 1_565 S
C96 N93 1.314 . S
C96 C94 1.353 . S
C96 H154 0.930 . S
C97 N93 1.279 . S
C97 C95 1.358 . S
C97 H155 0.930 . S
C98 C101 1.348 . S
C98 C102 1.356 . S
C98 O149 1.325 . S
C99 N100 1.279 . S
C99 C102 1.358 . S
C99 H156 0.930 . S
N100 C99 1.279 . S
N100 C103 1.314 1_455 S
C101 C98 1.348 . S
C101 C103 1.353 1_455 S
C101 H157 0.931 . S
C102 C98 1.356 . S
C102 C99 1.358 . S
C102 H158 0.930 . S
C103 N100 1.314 1_655 S
C103 C101 1.353 1_655 S
C103 H159 0.930 . S
C104 N105 1.314 . S
C104 C109 1.353 . S
C104 H110 0.930 . S
N105 Li88 1.990 1_655 S
N105 C104 1.314 . S
N105 C107 1.279 . S
C106 C107 1.358 . S
C106 C108 1.356 . S
C106 H160 0.930 . S
C107 N105 1.279 . S
C107 C106 1.358 . S
C107 H111 0.930 . S
C108 C106 1.356 . S
C108 C109 1.348 . S
C109 C104 1.353 . S
C109 C108 1.348 . S
C109 H161 0.929 . S
H110 C104 0.930 . S
H111 C107 0.930 . S
C112 N113 1.314 . S
C112 C114 1.353 . S
C112 H118 0.930 . S
N113 Li89 1.990 . S
N113 C112 1.314 . S
N113 C116 1.279 . S
C114 C112 1.353 . S
C114 C117 1.348 . S
C114 H162 0.929 . S
C115 C116 1.358 . S
C115 C117 1.356 . S
C115 H163 0.930 . S
C116 N113 1.279 . S
C116 C115 1.358 . S
C116 H119 0.930 . S
C117 C114 1.348 . S
C117 C115 1.356 . S
H118 C112 0.930 . S
H119 C116 0.930 . S
C120 C122 1.348 . S
C120 C123 1.356 1_455 S
C120 O150 1.325 . S
N121 C124 1.314 . S
N121 C125 1.279 . S
C122 C120 1.348 . S
C122 C124 1.353 1_455 S
C122 H164 0.929 . S
C123 C120 1.356 1_655 S
C123 C125 1.358 . S
C123 H165 0.930 . S
C124 N121 1.314 . S
C124 C122 1.353 1_655 S
C124 H166 0.930 . S
C125 N121 1.279 . S
C125 C123 1.358 . S
C125 H167 0.930 . S
C126 C127 1.348 1_565 S
C126 C128 1.356 . S
C126 O151 1.325 . S
C127 C126 1.348 1_545 S
C127 C129 1.353 . S
C127 H168 0.929 . S
C128 C126 1.356 . S
C128 C130 1.358 . S
C128 H169 0.930 . S
C129 C127 1.353 . S
C129 N131 1.315 1_545 S
C129 H170 0.930 . S
C130 C128 1.358 . S
C130 N131 1.278 . S
C130 H171 0.930 . S
N131 C129 1.315 1_565 S
N131 C130 1.278 . S
C132 C134 1.353 . S
C132 N135 1.314 . S
C132 H138 0.930 . S
C133 N135 1.279 . S
C133 C136 1.358 . S
C133 H139 0.930 . S
C134 C132 1.353 . S
C134 C137 1.348 . S
C134 H172 0.929 . S
N135 Li90 1.990 . S
N135 C132 1.314 . S
N135 C133 1.279 . S
C136 C133 1.358 . S
C136 C137 1.356 . S
C136 H173 0.930 . S
C137 C134 1.348 . S
C137 C136 1.356 . S
H138 C132 0.930 . S
H139 C133 0.930 . S
C140 N141 1.314 . S
C140 C142 1.353 . S
C140 H146 0.930 . S
N141 Li91 1.990 . S
N141 C140 1.314 . S
N141 C144 1.279 . S
C142 C140 1.353 . S
C142 C145 1.348 . S
C142 H174 0.929 1_455 S
C143 C144 1.352 1_545 S
C143 C145 1.346 1_545 S
C143 H175 0.949 . S
C144 N141 1.279 . S
C144 C143 1.352 1_565 S
C144 H147 0.930 1_565 S
C145 C142 1.348 . S
C145 C143 1.346 1_565 S
H146 C140 0.930 . S
H147 C144 0.930 1_545 S
O148 Li88 1.956 . S
O148 Li89 1.970 . S
O148 Li90 1.961 1_565 S
O148 C92 1.325 . S
O149 Li88 1.970 . S
O149 Li89 1.956 . S
O149 Li91 1.961 . S
O149 C98 1.325 . S
O150 Li88 1.961 1_545 S
O150 Li90 1.956 . S
O150 Li91 1.970 1_545 S
O150 C120 1.325 . S
O151 Li89 1.961 . S
O151 Li90 1.970 1_565 S
O151 Li91 1.956 . S
O151 C126 1.325 . S
H152 C94 0.929 . S
H153 C95 0.930 1_545 S
H154 C96 0.930 . S
H155 C97 0.930 . S
H156 C99 0.930 . S
H157 C101 0.931 . S
H158 C102 0.930 . S
H159 C103 0.930 . S
H160 C106 0.930 . S
H161 C109 0.929 . S
H162 C114 0.929 . S
H163 C115 0.930 . S
H164 C122 0.929 . S
H165 C123 0.930 . S
H166 C124 0.930 . S
H167 C125 0.930 . S
H168 C127 0.929 . S
H169 C128 0.930 . S
H170 C129 0.930 . S
H171 C130 0.930 . S
H172 C134 0.929 . S
H173 C136 0.930 . S
H174 C142 0.929 1_655 S
H175 C143 0.949 . S
Li176 N193 1.990 . S
Li176 O236 1.956 . S
Li176 O237 1.970 . S
Li176 O238 1.961 . S
Li177 N201 1.990 . S
Li177 O236 1.970 . S
Li177 O237 1.956 . S
Li177 O239 1.961 . S
Li178 N223 1.990 . S
Li178 O236 1.961 . S
Li178 O238 1.956 . S
Li178 O239 1.970 . S
Li179 N229 1.990 . S
Li179 O237 1.961 . S
Li179 O238 1.970 . S
Li179 O239 1.956 . S
C180 C182 1.348 . S
C180 C183 1.356 . S
C180 O236 1.325 . S
N181 C184 1.314 . S
N181 C185 1.279 . S
C182 C180 1.348 . S
C182 C184 1.353 . S
C182 H240 0.929 . S
C183 C180 1.356 . S
C183 C185 1.358 . S
C183 H241 0.930 . S
C184 N181 1.314 . S
C184 C182 1.353 . S
C184 H242 0.930 . S
C185 N181 1.279 . S
C185 C183 1.358 . S
C185 H243 0.930 . S
C186 C189 1.348 . S
C186 C190 1.356 . S
C186 O237 1.325 . S
C187 N188 1.279 . S
C187 C190 1.358 . S
C187 H244 0.930 . S
N188 C187 1.279 . S
N188 C191 1.314 . S
C189 C186 1.348 . S
C189 C191 1.353 . S
C189 H245 0.929 . S
C190 C186 1.356 . S
C190 C187 1.358 . S
C190 H246 0.930 . S
C191 N188 1.314 . S
C191 C189 1.353 . S
C191 H247 0.930 . S
C192 N193 1.314 . S
C192 C197 1.353 . S
C192 H198 0.930 . S
N193 Li176 1.990 . S
N193 C192 1.314 . S
N193 C195 1.279 . S
C194 C195 1.358 . S
C194 C196 1.356 . S
C194 H248 0.930 . S
C195 N193 1.279 . S
C195 C194 1.358 . S
C195 H199 0.930 . S
C196 C194 1.356 . S
C196 C197 1.348 . S
C197 C192 1.353 . S
C197 C196 1.348 . S
C197 H249 0.929 . S
H198 C192 0.930 . S
H199 C195 0.930 . S
C200 N201 1.314 . S
C200 C202 1.353 . S
C200 H206 0.930 . S
N201 Li177 1.990 . S
N201 C200 1.314 . S
N201 C204 1.279 . S
C202 C200 1.353 . S
C202 C205 1.348 . S
C202 H250 0.929 . S
C203 C204 1.358 . S
C203 C205 1.356 . S
C203 H251 0.930 . S
C204 N201 1.279 . S
C204 C203 1.358 . S
C204 H207 0.930 . S
C205 C202 1.348 . S
C205 C203 1.356 . S
H206 C200 0.930 . S
H207 C204 0.930 . S
C208 C210 1.348 . S
C208 C211 1.356 . S
C208 O238 1.325 . S
N209 C212 1.314 . S
N209 C213 1.279 . S
C210 C208 1.348 . S
C210 C212 1.353 . S
C210 H252 0.929 . S
C211 C208 1.356 . S
C211 C213 1.358 . S
C211 H253 0.930 . S
C212 N209 1.314 . S
C212 C210 1.353 . S
C212 H254 0.930 . S
C213 N209 1.279 . S
C213 C211 1.358 . S
C213 H255 0.930 . S
C214 C215 1.348 . S
C214 C216 1.356 . S
C214 O239 1.325 . S
C215 C214 1.348 . S
C215 C217 1.353 . S
C215 H256 0.929 . S
C216 C214 1.356 . S
C216 C218 1.358 . S
C216 H257 0.930 . S
C217 C215 1.353 . S
C217 N219 1.314 . S
C217 H258 0.930 . S
C218 C216 1.358 . S
C218 N219 1.279 . S
C218 H259 0.930 . S
N219 C217 1.314 . S
N219 C218 1.279 . S
C220 C222 1.353 . S
C220 N223 1.314 . S
C220 H226 0.930 . S
C221 N223 1.279 . S
C221 C224 1.358 . S
C221 H227 0.930 . S
C222 C220 1.353 . S
C222 C225 1.348 . S
C222 H260 0.929 . S
N223 Li178 1.990 . S
N223 C220 1.314 . S
N223 C221 1.279 . S
C224 C221 1.358 . S
C224 C225 1.356 . S
C224 H261 0.930 . S
C225 C222 1.348 . S
C225 C224 1.356 . S
H226 C220 0.930 . S
H227 C221 0.930 . S
C228 N229 1.314 . S
C228 C230 1.353 . S
C228 H234 0.930 . S
N229 Li179 1.990 . S
N229 C228 1.314 . S
N229 C232 1.279 . S
C230 C228 1.353 . S
C230 C233 1.348 . S
C230 H262 0.929 . S
C231 C232 1.358 . S
C231 C233 1.356 . S
C231 H263 0.930 . S
C232 N229 1.279 . S
C232 C231 1.358 . S
C232 H235 0.930 . S
C233 C230 1.348 . S
C233 C231 1.356 . S
H234 C228 0.930 . S
H235 C232 0.930 . S
O236 Li176 1.956 . S
O236 Li177 1.970 . S
O236 Li178 1.961 . S
O236 C180 1.325 . S
O237 Li176 1.970 . S
O237 Li177 1.956 . S
O237 Li179 1.961 . S
O237 C186 1.325 . S
O238 Li176 1.961 . S
O238 Li178 1.956 . S
O238 Li179 1.970 . S
O238 C208 1.325 . S
O239 Li177 1.961 . S
O239 Li178 1.970 . S
O239 Li179 1.956 . S
O239 C214 1.325 . S
H240 C182 0.929 . S
H241 C183 0.930 . S
H242 C184 0.930 . S
H243 C185 0.930 . S
H244 C187 0.930 . S
H245 C189 0.929 . S
H246 C190 0.930 . S
H247 C191 0.930 . S
H248 C194 0.930 . S
H249 C197 0.929 . S
H250 C202 0.929 . S
H251 C203 0.930 . S
H252 C210 0.929 . S
H253 C211 0.930 . S
H254 C212 0.930 . S
H255 C213 0.930 . S
H256 C215 0.929 . S
H257 C216 0.930 . S
H258 C217 0.930 . S
H259 C218 0.930 . S
H260 C222 0.929 . S
H261 C224 0.930 . S
H262 C230 0.929 . S
H263 C231 0.930 . S
Li264 N281 1.990 . S
Li264 O324 1.956 . S
Li264 O325 1.970 . S
Li264 O326 1.961 . S
Li265 N289 1.990 . S
Li265 O324 1.970 . S
Li265 O325 1.956 . S
Li265 O327 1.961 1_545 S
Li266 N311 1.990 . S
Li266 O324 1.961 . S
Li266 O326 1.956 . S
Li266 O327 1.970 1_545 S
Li267 N317 1.990 . S
Li267 O325 1.961 1_565 S
Li267 O326 1.970 1_565 S
Li267 O327 1.956 . S
C268 C270 1.348 . S
C268 C271 1.356 . S
C268 O324 1.325 . S
N269 C272 1.314 . S
N269 C273 1.279 . S
C270 C268 1.348 . S
C270 C272 1.353 . S
C270 H328 0.929 . S
C271 C268 1.356 . S
C271 C273 1.358 . S
C271 H329 0.930 . S
C272 N269 1.314 . S
C272 C270 1.353 . S
C272 H330 0.930 . S
C273 N269 1.279 . S
C273 C271 1.358 . S
C273 H331 0.930 . S
C274 C277 1.348 . S
C274 C278 1.356 . S
C274 O325 1.325 . S
C275 N276 1.279 . S
C275 C278 1.358 . S
C275 H332 0.930 . S
N276 C275 1.279 . S
N276 C279 1.314 . S
C277 C274 1.348 . S
C277 C279 1.353 . S
C277 H333 0.929 . S
C278 C274 1.356 . S
C278 C275 1.358 . S
C278 H334 0.930 1_545 S
C279 N276 1.314 . S
C279 C277 1.353 . S
C279 H335 0.930 . S
C280 N281 1.314 . S
C280 C285 1.353 . S
C280 H286 0.930 . S
N281 Li264 1.990 . S
N281 C280 1.314 . S
N281 C283 1.279 . S
C282 C283 1.358 . S
C282 C284 1.356 . S
C282 H336 0.930 . S
C283 N281 1.279 . S
C283 C282 1.358 . S
C283 H287 0.930 . S
C284 C282 1.356 . S
C284 C285 1.348 . S
C285 C280 1.353 . S
C285 C284 1.348 . S
C285 H337 0.929 . S
H286 C280 0.930 . S
H287 C283 0.930 . S
C288 N289 1.314 . S
C288 C290 1.353 . S
C288 H294 0.930 . S
N289 Li265 1.990 . S
N289 C288 1.314 . S
N289 C292 1.279 . S
C290 C288 1.353 . S
C290 C293 1.348 . S
C290 H338 0.929 . S
C291 C292 1.358 . S
C291 C293 1.356 . S
C291 H339 0.930 . S
C292 N289 1.279 . S
C292 C291 1.358 . S
C292 H295 0.930 . S
C293 C290 1.348 . S
C293 C291 1.356 . S
H294 C288 0.930 . S
H295 C292 0.930 . S
C296 C298 1.348 1_545 S
C296 C299 1.356 . S
C296 O326 1.325 . S
N297 C300 1.315 1_545 S
N297 C301 1.279 . S
C298 C296 1.348 1_565 S
C298 C300 1.353 . S
C298 H340 0.929 . S
C299 C296 1.356 . S
C299 C301 1.358 . S
C299 H341 0.930 . S
C300 N297 1.315 1_565 S
C300 C298 1.353 . S
C300 H342 0.930 . S
C301 N297 1.279 . S
C301 C299 1.358 . S
C301 H343 0.930 . S
C302 C303 1.348 . S
C302 C304 1.356 . S
C302 O327 1.325 . S
C303 C302 1.348 . S
C303 C305 1.353 . S
C303 H344 0.929 . S
C304 C302 1.356 . S
C304 C306 1.358 . S
C304 H345 0.930 . S
C305 C303 1.353 . S
C305 N307 1.314 . S
C305 H346 0.930 . S
C306 C304 1.358 . S
C306 N307 1.279 . S
C306 H347 0.930 . S
N307 C305 1.314 . S
N307 C306 1.279 . S
C308 C310 1.353 . S
C308 N311 1.314 . S
C308 H314 0.930 . S
C309 N311 1.279 . S
C309 C312 1.352 1_545 S
C309 H315 0.930 1_545 S
C310 C308 1.353 . S
C310 C313 1.348 . S
C310 H348 0.929 . S
N311 Li266 1.990 . S
N311 C308 1.314 . S
N311 C309 1.279 . S
C312 C309 1.352 1_565 S
C312 C313 1.346 1_565 S
C312 H349 0.949 . S
C313 C310 1.348 . S
C313 C312 1.346 1_545 S
H314 C308 0.930 . S
H315 C309 0.930 1_565 S
C316 N317 1.314 . S
C316 C318 1.353 . S
C316 H322 0.930 . S
N317 Li267 1.990 . S
N317 C316 1.314 . S
N317 C320 1.279 . S
C318 C316 1.353 . S
C318 C321 1.348 . S
C318 H350 0.929 . S
C319 C320 1.358 . S
C319 C321 1.356 . S
C319 H351 0.930 . S
C320 N317 1.279 . S
C320 C319 1.358 . S
C320 H323 0.930 . S
C321 C318 1.348 . S
C321 C319 1.356 . S
H322 C316 0.930 . S
H323 C320 0.930 . S
O324 Li264 1.956 . S
O324 Li265 1.970 . S
O324 Li266 1.961 . S
O324 C268 1.325 . S
O325 Li264 1.970 . S
O325 Li265 1.956 . S
O325 Li267 1.961 1_545 S
O325 C274 1.325 . S
O326 Li264 1.961 . S
O326 Li266 1.956 . S
O326 Li267 1.970 1_545 S
O326 C296 1.325 . S
O327 Li265 1.961 1_565 S
O327 Li266 1.970 1_565 S
O327 Li267 1.956 . S
O327 C302 1.325 . S
H328 C270 0.929 . S
H329 C271 0.930 . S
H330 C272 0.930 . S
H331 C273 0.930 . S
H332 C275 0.930 . S
H333 C277 0.929 . S
H334 C278 0.930 1_565 S
H335 C279 0.930 . S
H336 C282 0.930 . S
H337 C285 0.929 . S
H338 C290 0.929 . S
H339 C291 0.930 . S
H340 C298 0.929 . S
H341 C299 0.930 . S
H342 C300 0.930 . S
H343 C301 0.930 . S
H344 C303 0.929 . S
H345 C304 0.930 . S
H346 C305 0.930 . S
H347 C306 0.930 . S
H348 C310 0.929 . S
H349 C312 0.949 . S
H350 C318 0.929 . S
H351 C319 0.930 . S
Li352 N369 1.990 . S
Li352 O412 1.956 . S
Li352 O413 1.970 . S
Li352 O414 1.961 . S
Li353 N377 1.990 . S
Li353 O412 1.970 . S
Li353 O413 1.956 . S
Li353 O415 1.961 . S
Li354 N399 1.990 . S
Li354 O412 1.961 . S
Li354 O414 1.956 . S
Li354 O415 1.970 . S
Li355 N405 1.990 . S
Li355 O413 1.961 . S
Li355 O414 1.970 . S
Li355 O415 1.956 . S
C356 C358 1.348 . S
C356 C359 1.356 . S
C356 O412 1.325 . S
N357 C360 1.314 . S
N357 C361 1.279 . S
C358 C356 1.348 . S
C358 C360 1.353 . S
C358 H416 0.929 . S
C359 C356 1.356 . S
C359 C361 1.358 . S
C359 H417 0.930 . S
C360 N357 1.314 . S
C360 C358 1.353 . S
C360 H418 0.930 . S
C361 N357 1.279 . S
C361 C359 1.358 . S
C361 H419 0.930 . S
C362 C365 1.348 . S
C362 C366 1.356 . S
C362 O413 1.325 . S
C363 N364 1.279 . S
C363 C366 1.358 . S
C363 H420 0.930 . S
N364 C363 1.279 . S
N364 C367 1.314 . S
C365 C362 1.348 . S
C365 C367 1.353 . S
C365 H421 0.929 . S
C366 C362 1.356 . S
C366 C363 1.358 . S
C366 H422 0.930 . S
C367 N364 1.314 . S
C367 C365 1.353 . S
C367 H423 0.930 . S
C368 N369 1.314 . S
C368 C373 1.353 . S
C368 H374 0.930 . S
N369 Li352 1.990 . S
N369 C368 1.314 . S
N369 C371 1.279 . S
C370 C371 1.358 . S
C370 C372 1.356 . S
C370 H424 0.930 . S
C371 N369 1.279 . S
C371 C370 1.358 . S
C371 H375 0.930 . S
C372 C370 1.356 . S
C372 C373 1.348 . S
C373 C368 1.353 . S
C373 C372 1.348 . S
C373 H425 0.929 . S
H374 C368 0.930 . S
H375 C371 0.930 . S
C376 N377 1.314 . S
C376 C378 1.353 . S
C376 H382 0.930 . S
N377 Li353 1.990 . S
N377 C376 1.314 . S
N377 C380 1.279 . S
C378 C376 1.353 . S
C378 C381 1.348 . S
C378 H426 0.929 . S
C379 C380 1.358 . S
C379 C381 1.356 . S
C379 H427 0.930 . S
C380 N377 1.279 . S
C380 C379 1.358 . S
C380 H383 0.930 . S
C381 C378 1.348 . S
C381 C379 1.356 . S
H382 C376 0.930 . S
H383 C380 0.930 . S
C384 C386 1.348 . S
C384 C387 1.356 . S
C384 O414 1.325 . S
N385 C388 1.314 . S
N385 C389 1.279 . S
C386 C384 1.348 . S
C386 C388 1.353 . S
C386 H428 0.929 . S
C387 C384 1.356 . S
C387 C389 1.358 . S
C387 H429 0.930 . S
C388 N385 1.314 . S
C388 C386 1.353 . S
C388 H430 0.930 . S
C389 N385 1.279 . S
C389 C387 1.358 . S
C389 H431 0.930 . S
C390 C391 1.348 . S
C390 C392 1.356 . S
C390 O415 1.325 . S
C391 C390 1.348 . S
C391 C393 1.353 . S
C391 H432 0.929 . S
C392 C390 1.356 . S
C392 C394 1.358 . S
C392 H433 0.930 . S
C393 C391 1.353 . S
C393 N395 1.314 . S
C393 H434 0.930 . S
C394 C392 1.358 . S
C394 N395 1.279 . S
C394 H435 0.930 . S
N395 C393 1.314 . S
N395 C394 1.279 . S
C396 C398 1.353 . S
C396 N399 1.314 . S
C396 H402 0.930 . S
C397 N399 1.279 . S
C397 C400 1.358 . S
C397 H403 0.930 . S
C398 C396 1.353 . S
C398 C401 1.348 . S
C398 H436 0.929 . S
N399 Li354 1.990 . S
N399 C396 1.314 . S
N399 C397 1.279 . S
C400 C397 1.358 . S
C400 C401 1.356 . S
C400 H437 0.930 . S
C401 C398 1.348 . S
C401 C400 1.356 . S
H402 C396 0.930 . S
H403 C397 0.930 . S
C404 N405 1.314 . S
C404 C406 1.353 . S
C404 H410 0.930 . S
N405 Li355 1.990 . S
N405 C404 1.314 . S
N405 C408 1.279 . S
C406 C404 1.353 . S
C406 C409 1.348 . S
C406 H438 0.929 . S
C407 C408 1.358 . S
C407 C409 1.356 . S
C407 H439 0.930 . S
C408 N405 1.279 . S
C408 C407 1.358 . S
C408 H411 0.930 . S
C409 C406 1.348 . S
C409 C407 1.356 . S
H410 C404 0.930 . S
H411 C408 0.930 . S
O412 Li352 1.956 . S
O412 Li353 1.970 . S
O412 Li354 1.961 . S
O412 C356 1.325 . S
O413 Li352 1.970 . S
O413 Li353 1.956 . S
O413 Li355 1.961 . S
O413 C362 1.325 . S
O414 Li352 1.961 . S
O414 Li354 1.956 . S
O414 Li355 1.970 . S
O414 C384 1.325 . S
O415 Li353 1.961 . S
O415 Li354 1.970 . S
O415 Li355 1.956 . S
O415 C390 1.325 . S
H416 C358 0.929 . S
H417 C359 0.930 . S
H418 C360 0.930 . S
H419 C361 0.930 . S
H420 C363 0.930 . S
H421 C365 0.929 . S
H422 C366 0.930 . S
H423 C367 0.930 . S
H424 C370 0.930 . S
H425 C373 0.929 . S
H426 C378 0.929 . S
H427 C379 0.930 . S
H428 C386 0.929 . S
H429 C387 0.930 . S
H430 C388 0.930 . S
H431 C389 0.930 . S
H432 C391 0.929 . S
H433 C392 0.930 . S
H434 C393 0.930 . S
H435 C394 0.930 . S
H436 C398 0.929 . S
H437 C400 0.930 . S
H438 C406 0.929 . S
H439 C407 0.930 . S
Li440 N457 1.990 . S
Li440 O500 1.956 . S
Li440 O501 1.970 1_565 S
Li440 O502 1.961 . S
Li441 N465 1.990 . S
Li441 O500 1.970 1_545 S
Li441 O501 1.956 . S
Li441 O503 1.961 1_545 S
Li442 N487 1.990 . S
Li442 O500 1.961 . S
Li442 O502 1.956 . S
Li442 O503 1.970 . S
Li443 N493 1.990 . S
Li443 O501 1.961 1_565 S
Li443 O502 1.970 . S
Li443 O503 1.956 . S
C444 C446 1.348 1_565 S
C444 C447 1.356 . S
C444 O500 1.325 . S
N445 C448 1.315 1_565 S
N445 C449 1.279 . S
C446 C444 1.348 1_545 S
C446 C448 1.353 . S
C446 H504 0.929 . S
C447 C444 1.356 . S
C447 C449 1.358 . S
C447 H505 0.930 . S
C448 N445 1.315 1_545 S
C448 C446 1.353 . S
C448 H506 0.930 . S
C449 N445 1.279 . S
C449 C447 1.358 . S
C449 H507 0.930 . S
C450 C453 1.348 . S
C450 C454 1.356 . S
C450 O501 1.325 . S
C451 N452 1.279 . S
C451 C454 1.358 . S
C451 H508 0.930 . S
N452 C451 1.279 . S
N452 C455 1.314 . S
C453 C450 1.348 . S
C453 C455 1.353 . S
C453 H509 0.929 . S
C454 C450 1.356 . S
C454 C451 1.358 . S
C454 H510 0.930 . S
C455 N452 1.314 . S
C455 C453 1.353 . S
C455 H511 0.930 . S
C456 N457 1.314 . S
C456 C461 1.353 . S
C456 H462 0.930 . S
N457 Li440 1.990 . S
N457 C456 1.314 . S
N457 C459 1.279 . S
C458 C459 1.352 1_545 S
C458 C460 1.346 1_545 S
C458 H512 0.949 . S
C459 N457 1.279 . S
C459 C458 1.352 1_565 S
C459 H463 0.930 1_565 S
C460 C458 1.346 1_565 S
C460 C461 1.348 . S
C461 C456 1.353 . S
C461 C460 1.348 . S
C461 H513 0.929 . S
H462 C456 0.930 . S
H463 C459 0.930 1_545 S
C464 N465 1.314 . S
C464 C466 1.353 . S
C464 H470 0.930 . S
N465 Li441 1.990 . S
N465 C464 1.314 . S
N465 C468 1.279 . S
C466 C464 1.353 . S
C466 C469 1.348 . S
C466 H514 0.929 . S
C467 C468 1.358 . S
C467 C469 1.356 . S
C467 H515 0.930 . S
C468 N465 1.279 . S
C468 C467 1.358 . S
C468 H471 0.930 . S
C469 C466 1.348 . S
C469 C467 1.356 . S
H470 C464 0.930 . S
H471 C468 0.930 . S
C472 C474 1.348 . S
C472 C475 1.356 . S
C472 O502 1.325 . S
N473 C476 1.314 . S
N473 C477 1.279 . S
C474 C472 1.348 . S
C474 C476 1.353 . S
C474 H516 0.929 . S
C475 C472 1.356 . S
C475 C477 1.358 . S
C475 H517 0.930 . S
C476 N473 1.314 . S
C476 C474 1.353 . S
C476 H518 0.930 . S
C477 N473 1.279 . S
C477 C475 1.358 . S
C477 H519 0.930 . S
C478 C479 1.348 . S
C478 C480 1.356 . S
C478 O503 1.325 . S
C479 C478 1.348 . S
C479 C481 1.353 . S
C479 H520 0.929 . S
C480 C478 1.356 . S
C480 C482 1.358 . S
C480 H521 0.930 1_565 S
C481 C479 1.353 . S
C481 N483 1.314 . S
C481 H522 0.930 . S
C482 C480 1.358 . S
C482 N483 1.279 . S
C482 H523 0.930 . S
N483 C481 1.314 . S
N483 C482 1.279 . S
C484 C486 1.353 . S
C484 N487 1.314 . S
C484 H490 0.930 . S
C485 N487 1.279 . S
C485 C488 1.358 . S
C485 H491 0.930 . S
C486 C484 1.353 . S
C486 C489 1.348 . S
C486 H524 0.929 . S
N487 Li442 1.990 . S
N487 C484 1.314 . S
N487 C485 1.279 . S
C488 C485 1.358 . S
C488 C489 1.356 . S
C488 H525 0.930 . S
C489 C486 1.348 . S
C489 C488 1.356 . S
H490 C484 0.930 . S
H491 C485 0.930 . S
C492 N493 1.314 . S
C492 C494 1.353 . S
C492 H498 0.930 . S
N493 Li443 1.990 . S
N493 C492 1.314 . S
N493 C496 1.279 . S
C494 C492 1.353 . S
C494 C497 1.348 . S
C494 H526 0.929 . S
C495 C496 1.358 . S
C495 C497 1.356 . S
C495 H527 0.930 . S
C496 N493 1.279 . S
C496 C495 1.358 . S
C496 H499 0.930 . S
C497 C494 1.348 . S
C497 C495 1.356 . S
H498 C492 0.930 . S
H499 C496 0.930 . S
O500 Li440 1.956 . S
O500 Li441 1.970 1_565 S
O500 Li442 1.961 . S
O500 C444 1.325 . S
O501 Li440 1.970 1_545 S
O501 Li441 1.956 . S
O501 Li443 1.961 1_545 S
O501 C450 1.325 . S
O502 Li440 1.961 . S
O502 Li442 1.956 . S
O502 Li443 1.970 . S
O502 C472 1.325 . S
O503 Li441 1.961 1_565 S
O503 Li442 1.970 . S
O503 Li443 1.956 . S
O503 C478 1.325 . S
H504 C446 0.929 . S
H505 C447 0.930 . S
H506 C448 0.930 . S
H507 C449 0.930 . S
H508 C451 0.930 . S
H509 C453 0.929 . S
H510 C454 0.930 . S
H511 C455 0.930 . S
H512 C458 0.949 . S
H513 C461 0.929 . S
H514 C466 0.929 . S
H515 C467 0.930 . S
H516 C474 0.929 . S
H517 C475 0.930 . S
H518 C476 0.930 . S
H519 C477 0.930 . S
H520 C479 0.929 . S
H521 C480 0.930 1_545 S
H522 C481 0.930 . S
H523 C482 0.930 . S
H524 C486 0.929 . S
H525 C488 0.930 . S
H526 C494 0.929 . S
H527 C495 0.930 . S
Li528 N545 1.990 . S
Li528 O588 1.956 . S
Li528 O589 1.970 . S
Li528 O590 1.961 . S
Li529 N553 1.990 . S
Li529 O588 1.970 . S
Li529 O589 1.956 . S
Li529 O591 1.961 . S
Li530 N575 1.990 . S
Li530 O588 1.961 . S
Li530 O590 1.956 . S
Li530 O591 1.970 . S
Li531 N581 1.990 . S
Li531 O589 1.961 . S
Li531 O590 1.970 . S
Li531 O591 1.956 . S
C532 C534 1.348 . S
C532 C535 1.356 . S
C532 O588 1.325 . S
N533 C536 1.314 . S
N533 C537 1.279 . S
C534 C532 1.348 . S
C534 C536 1.353 . S
C534 H592 0.929 . S
C535 C532 1.356 . S
C535 C537 1.358 . S
C535 H593 0.930 . S
C536 N533 1.314 . S
C536 C534 1.353 . S
C536 H594 0.930 . S
C537 N533 1.279 . S
C537 C535 1.358 . S
C537 H595 0.930 . S
C538 C541 1.348 . S
C538 C542 1.356 . S
C538 O589 1.325 . S
C539 N540 1.279 . S
C539 C542 1.358 . S
C539 H596 0.930 . S
N540 C539 1.279 . S
N540 C543 1.314 . S
C541 C538 1.348 . S
C541 C543 1.353 . S
C541 H597 0.929 . S
C542 C538 1.356 . S
C542 C539 1.358 . S
C542 H598 0.930 . S
C543 N540 1.314 . S
C543 C541 1.353 . S
C543 H599 0.930 . S
C544 N545 1.314 . S
C544 C549 1.353 . S
C544 H550 0.930 . S
N545 Li528 1.990 . S
N545 C544 1.314 . S
N545 C547 1.279 . S
C546 C547 1.358 . S
C546 C548 1.356 . S
C546 H600 0.930 . S
C547 N545 1.279 . S
C547 C546 1.358 . S
C547 H551 0.930 . S
C548 C546 1.356 . S
C548 C549 1.348 . S
C549 C544 1.353 . S
C549 C548 1.348 . S
C549 H601 0.929 . S
H550 C544 0.930 . S
H551 C547 0.930 . S
C552 N553 1.314 . S
C552 C554 1.353 . S
C552 H558 0.930 . S
N553 Li529 1.990 . S
N553 C552 1.314 . S
N553 C556 1.279 . S
C554 C552 1.353 . S
C554 C557 1.348 . S
C554 H602 0.929 . S
C555 C556 1.358 . S
C555 C557 1.356 . S
C555 H603 0.930 . S
C556 N553 1.279 . S
C556 C555 1.358 . S
C556 H559 0.930 . S
C557 C554 1.348 . S
C557 C555 1.356 . S
H558 C552 0.930 . S
H559 C556 0.930 . S
C560 C562 1.348 . S
C560 C563 1.356 . S
C560 O590 1.325 . S
N561 C564 1.314 . S
N561 C565 1.279 . S
C562 C560 1.348 . S
C562 C564 1.353 . S
C562 H604 0.929 . S
C563 C560 1.356 . S
C563 C565 1.358 . S
C563 H605 0.930 . S
C564 N561 1.314 . S
C564 C562 1.353 . S
C564 H606 0.930 . S
C565 N561 1.279 . S
C565 C563 1.358 . S
C565 H607 0.930 . S
C566 C567 1.348 . S
C566 C568 1.356 . S
C566 O591 1.325 . S
C567 C566 1.348 . S
C567 C569 1.353 . S
C567 H608 0.929 . S
C568 C566 1.356 . S
C568 C570 1.358 . S
C568 H609 0.930 . S
C569 C567 1.353 . S
C569 N571 1.314 . S
C569 H610 0.930 . S
C570 C568 1.358 . S
C570 N571 1.279 . S
C570 H611 0.930 . S
N571 C569 1.314 . S
N571 C570 1.279 . S
C572 C574 1.353 . S
C572 N575 1.314 . S
C572 H578 0.930 . S
C573 N575 1.279 . S
C573 C576 1.358 . S
C573 H579 0.930 . S
C574 C572 1.353 . S
C574 C577 1.348 . S
C574 H612 0.929 . S
N575 Li530 1.990 . S
N575 C572 1.314 . S
N575 C573 1.279 . S
C576 C573 1.358 . S
C576 C577 1.356 . S
C576 H613 0.930 . S
C577 C574 1.348 . S
C577 C576 1.356 . S
H578 C572 0.930 . S
H579 C573 0.930 . S
C580 N581 1.314 . S
C580 C582 1.353 . S
C580 H586 0.930 . S
N581 Li531 1.990 . S
N581 C580 1.314 . S
N581 C584 1.279 . S
C582 C580 1.353 . S
C582 C585 1.348 . S
C582 H614 0.929 . S
C583 C584 1.358 . S
C583 C585 1.356 . S
C583 H615 0.930 . S
C584 N581 1.279 . S
C584 C583 1.358 . S
C584 H587 0.930 . S
C585 C582 1.348 . S
C585 C583 1.356 . S
H586 C580 0.930 . S
H587 C584 0.930 . S
O588 Li528 1.956 . S
O588 Li529 1.970 . S
O588 Li530 1.961 . S
O588 C532 1.325 . S
O589 Li528 1.970 . S
O589 Li529 1.956 . S
O589 Li531 1.961 . S
O589 C538 1.325 . S
O590 Li528 1.961 . S
O590 Li530 1.956 . S
O590 Li531 1.970 . S
O590 C560 1.325 . S
O591 Li529 1.961 . S
O591 Li530 1.970 . S
O591 Li531 1.956 . S
O591 C566 1.325 . S
H592 C534 0.929 . S
H593 C535 0.930 . S
H594 C536 0.930 . S
H595 C537 0.930 . S
H596 C539 0.930 . S
H597 C541 0.929 . S
H598 C542 0.930 . S
H599 C543 0.930 . S
H600 C546 0.930 . S
H601 C549 0.929 . S
H602 C554 0.929 . S
H603 C555 0.930 . S
H604 C562 0.929 . S
H605 C563 0.930 . S
H606 C564 0.930 . S
H607 C565 0.930 . S
H608 C567 0.929 . S
H609 C568 0.930 . S
H610 C569 0.930 . S
H611 C570 0.930 . S
H612 C574 0.929 . S
H613 C576 0.930 . S
H614 C582 0.929 . S
H615 C583 0.930 . S
Li616 N633 1.990 . S
Li616 O676 1.956 . S
Li616 O677 1.970 1_565 S
Li616 O678 1.961 1_565 S
Li617 N641 1.990 . S
Li617 O676 1.970 1_545 S
Li617 O677 1.956 . S
Li617 O679 1.961 . S
Li618 N663 1.990 1_455 S
Li618 O676 1.961 1_545 S
Li618 O678 1.956 . S
Li618 O679 1.970 . S
Li619 N669 1.990 . S
Li619 O677 1.961 . S
Li619 O678 1.970 . S
Li619 O679 1.956 . S
C620 C622 1.348 . S
C620 C623 1.356 1_455 S
C620 O676 1.325 . S
N621 C624 1.314 . S
N621 C625 1.279 . S
C622 C620 1.348 . S
C622 C624 1.353 1_455 S
C622 H680 0.929 . S
C623 C620 1.356 1_655 S
C623 C625 1.358 . S
C623 H681 0.930 . S
C624 N621 1.314 . S
C624 C622 1.353 1_655 S
C624 H682 0.930 . S
C625 N621 1.279 . S
C625 C623 1.358 . S
C625 H683 0.930 . S
C626 C629 1.348 1_545 S
C626 C630 1.356 . S
C626 O677 1.325 . S
C627 N628 1.278 . S
C627 C630 1.358 . S
C627 H684 0.930 . S
N628 C627 1.278 . S
N628 C631 1.315 1_545 S
C629 C626 1.348 1_565 S
C629 C631 1.353 . S
C629 H685 0.929 . S
C630 C626 1.356 . S
C630 C627 1.358 . S
C630 H686 0.930 . S
C631 N628 1.315 1_565 S
C631 C629 1.353 . S
C631 H687 0.930 . S
C632 N633 1.314 . S
C632 C637 1.353 . S
C632 H638 0.930 . S
N633 Li616 1.990 . S
N633 C632 1.314 . S
N633 C635 1.279 . S
C634 C635 1.358 . S
C634 C636 1.356 . S
C634 H688 0.930 . S
C635 N633 1.279 . S
C635 C634 1.358 . S
C635 H639 0.930 . S
C636 C634 1.356 . S
C636 C637 1.348 . S
C637 C632 1.353 . S
C637 C636 1.348 . S
C637 H689 0.929 . S
H638 C632 0.930 . S
H639 C635 0.930 . S
C640 N641 1.314 . S
C640 C642 1.353 . S
C640 H646 0.930 . S
N641 Li617 1.990 . S
N641 C640 1.314 . S
N641 C644 1.279 . S
C642 C640 1.353 . S
C642 C645 1.348 . S
C642 H690 0.929 1_455 S
C643 C644 1.352 1_565 S
C643 C645 1.346 1_565 S
C643 H691 0.949 . S
C644 N641 1.279 . S
C644 C643 1.352 1_545 S
C644 H647 0.930 1_545 S
C645 C642 1.348 . S
C645 C643 1.346 1_545 S
H646 C640 0.930 . S
H647 C644 0.930 1_565 S
C648 C650 1.348 . S
C648 C651 1.356 . S
C648 O678 1.325 . S
N649 C652 1.314 . S
N649 C653 1.279 . S
C650 C648 1.348 . S
C650 C652 1.353 . S
C650 H692 0.929 . S
C651 C648 1.356 . S
C651 C653 1.358 . S
C651 H693 0.930 1_545 S
C652 N649 1.314 . S
C652 C650 1.353 . S
C652 H694 0.930 . S
C653 N649 1.279 . S
C653 C651 1.358 . S
C653 H695 0.930 . S
C654 C655 1.348 . S
C654 C656 1.356 . S
C654 O679 1.325 . S
C655 C654 1.348 . S
C655 C657 1.353 1_455 S
C655 H696 0.931 . S
C656 C654 1.356 . S
C656 C658 1.358 . S
C656 H697 0.930 . S
C657 C655 1.353 1_655 S
C657 N659 1.314 1_655 S
C657 H698 0.930 . S
C658 C656 1.358 . S
C658 N659 1.279 . S
C658 H699 0.930 . S
N659 C657 1.314 1_455 S
N659 C658 1.279 . S
C660 C662 1.353 . S
C660 N663 1.314 . S
C660 H666 0.930 . S
C661 N663 1.279 . S
C661 C664 1.358 . S
C661 H667 0.930 . S
C662 C660 1.353 . S
C662 C665 1.348 . S
C662 H700 0.929 . S
N663 Li618 1.990 1_655 S
N663 C660 1.314 . S
N663 C661 1.279 . S
C664 C661 1.358 . S
C664 C665 1.356 . S
C664 H701 0.930 . S
C665 C662 1.348 . S
C665 C664 1.356 . S
H666 C660 0.930 . S
H667 C661 0.930 . S
C668 N669 1.314 . S
C668 C670 1.353 . S
C668 H674 0.930 . S
N669 Li619 1.990 . S
N669 C668 1.314 . S
N669 C672 1.279 . S
C670 C668 1.353 . S
C670 C673 1.348 . S
C670 H702 0.929 . S
C671 C672 1.358 . S
C671 C673 1.356 . S
C671 H703 0.930 . S
C672 N669 1.279 . S
C672 C671 1.358 . S
C672 H675 0.930 . S
C673 C670 1.348 . S
C673 C671 1.356 . S
H674 C668 0.930 . S
H675 C672 0.930 . S
O676 Li616 1.956 . S
O676 Li617 1.970 1_565 S
O676 Li618 1.961 1_565 S
O676 C620 1.325 . S
O677 Li616 1.970 1_545 S
O677 Li617 1.956 . S
O677 Li619 1.961 . S
O677 C626 1.325 . S
O678 Li616 1.961 1_545 S
O678 Li618 1.956 . S
O678 Li619 1.970 . S
O678 C648 1.325 . S
O679 Li617 1.961 . S
O679 Li618 1.970 . S
O679 Li619 1.956 . S
O679 C654 1.325 . S
H680 C622 0.929 . S
H681 C623 0.930 . S
H682 C624 0.930 . S
H683 C625 0.930 . S
H684 C627 0.930 . S
H685 C629 0.929 . S
H686 C630 0.930 . S
H687 C631 0.930 . S
H688 C634 0.930 . S
H689 C637 0.929 . S
H690 C642 0.929 1_655 S
H691 C643 0.949 . S
H692 C650 0.929 . S
H693 C651 0.930 1_565 S
H694 C652 0.930 . S
H695 C653 0.930 . S
H696 C655 0.931 . S
H697 C656 0.930 . S
H698 C657 0.930 . S
H699 C658 0.930 . S
H700 C662 0.929 . S
H701 C664 0.930 . S
H702 C670 0.929 . S
H703 C671 0.930 . S
Li704 N721 1.990 . S
Li704 O764 1.956 . S
Li704 O765 1.970 . S
Li704 O766 1.961 . S
Li705 N729 1.990 . S
Li705 O764 1.970 . S
Li705 O765 1.956 . S
Li705 O767 1.961 . S
Li706 N751 1.990 . S
Li706 O764 1.961 . S
Li706 O766 1.956 . S
Li706 O767 1.970 . S
Li707 N757 1.990 . S
Li707 O765 1.961 . S
Li707 O766 1.970 . S
Li707 O767 1.956 . S
C708 C710 1.348 . S
C708 C711 1.356 . S
C708 O764 1.325 . S
N709 C712 1.314 . S
N709 C713 1.279 . S
C710 C708 1.348 . S
C710 C712 1.353 . S
C710 H768 0.929 . S
C711 C708 1.356 . S
C711 C713 1.358 . S
C711 H769 0.930 . S
C712 N709 1.314 . S
C712 C710 1.353 . S
C712 H770 0.930 . S
C713 N709 1.279 . S
C713 C711 1.358 . S
C713 H771 0.930 . S
C714 C717 1.348 . S
C714 C718 1.356 . S
C714 O765 1.325 . S
C715 N716 1.279 . S
C715 C718 1.358 . S
C715 H772 0.930 . S
N716 C715 1.279 . S
N716 C719 1.314 . S
C717 C714 1.348 . S
C717 C719 1.353 . S
C717 H773 0.929 . S
C718 C714 1.356 . S
C718 C715 1.358 . S
C718 H774 0.930 . S
C719 N716 1.314 . S
C719 C717 1.353 . S
C719 H775 0.930 . S
C720 N721 1.314 . S
C720 C725 1.353 . S
C720 H726 0.930 . S
N721 Li704 1.990 . S
N721 C720 1.314 . S
N721 C723 1.279 . S
C722 C723 1.358 . S
C722 C724 1.356 . S
C722 H776 0.930 . S
C723 N721 1.279 . S
C723 C722 1.358 . S
C723 H727 0.930 . S
C724 C722 1.356 . S
C724 C725 1.348 . S
C725 C720 1.353 . S
C725 C724 1.348 . S
C725 H777 0.929 . S
H726 C720 0.930 . S
H727 C723 0.930 . S
C728 N729 1.314 . S
C728 C730 1.353 . S
C728 H734 0.930 . S
N729 Li705 1.990 . S
N729 C728 1.314 . S
N729 C732 1.279 . S
C730 C728 1.353 . S
C730 C733 1.348 . S
C730 H778 0.929 . S
C731 C732 1.358 . S
C731 C733 1.356 . S
C731 H779 0.930 . S
C732 N729 1.279 . S
C732 C731 1.358 . S
C732 H735 0.930 . S
C733 C730 1.348 . S
C733 C731 1.356 . S
H734 C728 0.930 . S
H735 C732 0.930 . S
C736 C738 1.348 . S
C736 C739 1.356 . S
C736 O766 1.325 . S
N737 C740 1.314 . S
N737 C741 1.279 . S
C738 C736 1.348 . S
C738 C740 1.353 . S
C738 H780 0.929 . S
C739 C736 1.356 . S
C739 C741 1.358 . S
C739 H781 0.930 . S
C740 N737 1.314 . S
C740 C738 1.353 . S
C740 H782 0.930 . S
C741 N737 1.279 . S
C741 C739 1.358 . S
C741 H783 0.930 . S
C742 C743 1.348 . S
C742 C744 1.356 . S
C742 O767 1.325 . S
C743 C742 1.348 . S
C743 C745 1.353 . S
C743 H784 0.929 . S
C744 C742 1.356 . S
C744 C746 1.358 . S
C744 H785 0.930 . S
C745 C743 1.353 . S
C745 N747 1.314 . S
C745 H786 0.930 . S
C746 C744 1.358 . S
C746 N747 1.279 . S
C746 H787 0.930 . S
N747 C745 1.314 . S
N747 C746 1.279 . S
C748 C750 1.353 . S
C748 N751 1.314 . S
C748 H754 0.930 . S
C749 N751 1.279 . S
C749 C752 1.358 . S
C749 H755 0.930 . S
C750 C748 1.353 . S
C750 C753 1.348 . S
C750 H788 0.929 . S
N751 Li706 1.990 . S
N751 C748 1.314 . S
N751 C749 1.279 . S
C752 C749 1.358 . S
C752 C753 1.356 . S
C752 H789 0.930 . S
C753 C750 1.348 . S
C753 C752 1.356 . S
H754 C748 0.930 . S
H755 C749 0.930 . S
C756 N757 1.314 . S
C756 C758 1.353 . S
C756 H762 0.930 . S
N757 Li707 1.990 . S
N757 C756 1.314 . S
N757 C760 1.279 . S
C758 C756 1.353 . S
C758 C761 1.348 . S
C758 H790 0.929 . S
C759 C760 1.358 . S
C759 C761 1.356 . S
C759 H791 0.930 . S
C760 N757 1.279 . S
C760 C759 1.358 . S
C760 H763 0.930 . S
C761 C758 1.348 . S
C761 C759 1.356 . S
H762 C756 0.930 . S
H763 C760 0.930 . S
O764 Li704 1.956 . S
O764 Li705 1.970 . S
O764 Li706 1.961 . S
O764 C708 1.325 . S
O765 Li704 1.970 . S
O765 Li705 1.956 . S
O765 Li707 1.961 . S
O765 C714 1.325 . S
O766 Li704 1.961 . S
O766 Li706 1.956 . S
O766 Li707 1.970 . S
O766 C736 1.325 . S
O767 Li705 1.961 . S
O767 Li706 1.970 . S
O767 Li707 1.956 . S
O767 C742 1.325 . S
H768 C710 0.929 . S
H769 C711 0.930 . S
H770 C712 0.930 . S
H771 C713 0.930 . S
H772 C715 0.930 . S
H773 C717 0.929 . S
H774 C718 0.930 . S
H775 C719 0.930 . S
H776 C722 0.930 . S
H777 C725 0.929 . S
H778 C730 0.929 . S
H779 C731 0.930 . S
H780 C738 0.929 . S
H781 C739 0.930 . S
H782 C740 0.930 . S
H783 C741 0.930 . S
H784 C743 0.929 . S
H785 C744 0.930 . S
H786 C745 0.930 . S
H787 C746 0.930 . S
H788 C750 0.929 . S
H789 C752 0.930 . S
H790 C758 0.929 . S
H791 C759 0.930 . S
Li792 N809 1.990 1_655 S
Li792 O852 1.956 1_545 S
Li792 O853 1.970 . S
Li792 O854 1.961 . S
Li793 N817 1.990 . S
Li793 O852 1.970 1_545 S
Li793 O853 1.956 . S
Li793 O855 1.961 . S
Li794 N839 1.990 . S
Li794 O852 1.961 . S
Li794 O854 1.956 1_565 S
Li794 O855 1.970 1_565 S
Li795 N845 1.990 . S
Li795 O853 1.961 . S
Li795 O854 1.970 . S
Li795 O855 1.956 . S
C796 C798 1.348 1_655 S
C796 C799 1.356 . S
C796 O852 1.325 . S
N797 C800 1.314 . S
N797 C801 1.279 . S
C798 C796 1.348 1_455 S
C798 C800 1.353 . S
C798 H856 0.932 . S
C799 C796 1.356 . S
C799 C801 1.358 1_655 S
C799 H857 0.930 . S
C800 N797 1.314 . S
C800 C798 1.353 . S
C800 H858 0.930 . S
C801 N797 1.279 . S
C801 C799 1.358 1_455 S
C801 H859 0.930 . S
C802 C805 1.333 1_655 S
C802 C806 1.356 . S
C802 O853 1.325 . S
C803 N804 1.279 . S
C803 C806 1.358 . S
C803 H860 0.930 . S
N804 C803 1.279 . S
N804 C807 1.314 1_655 S
C805 C802 1.333 1_455 S
C805 C807 1.358 . S
C805 H861 0.939 . S
C806 C802 1.356 . S
C806 C803 1.358 . S
C806 H862 0.930 . S
C807 N804 1.314 1_455 S
C807 C805 1.358 . S
C807 H863 0.930 . S
C808 N809 1.314 . S
C808 C813 1.353 . S
C808 H814 0.930 . S
N809 Li792 1.990 1_455 S
N809 C808 1.314 . S
N809 C811 1.279 . S
C810 C811 1.358 . S
C810 C812 1.356 . S
C810 H864 0.930 . S
C811 N809 1.279 . S
C811 C810 1.358 . S
C811 H815 0.930 . S
C812 C810 1.356 . S
C812 C813 1.348 . S
C813 C808 1.353 . S
C813 C812 1.348 . S
C813 H865 0.929 . S
H814 C808 0.930 . S
H815 C811 0.930 . S
C816 N817 1.314 1_565 S
C816 C818 1.353 . S
C816 H822 0.930 . S
N817 Li793 1.990 . S
N817 C816 1.314 1_545 S
N817 C820 1.279 . S
C818 C816 1.353 . S
C818 C821 1.348 1_565 S
C818 H866 0.929 . S
C819 C820 1.358 . S
C819 C821 1.356 . S
C819 H867 0.930 . S
C820 N817 1.279 . S
C820 C819 1.358 . S
C820 H823 0.930 . S
C821 C818 1.348 1_545 S
C821 C819 1.356 . S
H822 C816 0.930 . S
H823 C820 0.930 . S
C824 C826 1.348 . S
C824 C827 1.356 . S
C824 O854 1.325 . S
N825 C828 1.314 . S
N825 C829 1.279 . S
C826 C824 1.348 . S
C826 C828 1.353 . S
C826 H868 0.929 . S
C827 C824 1.356 . S
C827 C829 1.358 . S
C827 H869 0.930 . S
C828 N825 1.314 . S
C828 C826 1.353 . S
C828 H870 0.930 . S
C829 N825 1.279 . S
C829 C827 1.358 . S
C829 H871 0.930 . S
C830 C831 1.348 1_545 S
C830 C832 1.356 . S
C830 O855 1.325 . S
C831 C830 1.348 1_565 S
C831 C833 1.353 . S
C831 H872 0.929 . S
C832 C830 1.356 . S
C832 C834 1.358 . S
C832 H873 0.930 . S
C833 C831 1.353 . S
C833 N835 1.314 1_565 S
C833 H874 0.930 . S
C834 C832 1.358 . S
C834 N835 1.279 . S
C834 H875 0.930 . S
N835 C833 1.314 1_545 S
N835 C834 1.279 . S
C836 C838 1.353 . S
C836 N839 1.314 . S
C836 H842 0.930 . S
C837 N839 1.279 . S
C837 C840 1.358 . S
C837 H843 0.930 . S
C838 C836 1.353 . S
C838 C841 1.348 . S
C838 H876 0.929 . S
N839 Li794 1.990 . S
N839 C836 1.314 . S
N839 C837 1.279 . S
C840 C837 1.358 . S
C840 C841 1.356 . S
C840 H877 0.930 . S
C841 C838 1.348 . S
C841 C840 1.356 . S
H842 C836 0.930 . S
H843 C837 0.930 . S
C844 N845 1.314 . S
C844 C846 1.353 . S
C844 H850 0.930 . S
N845 Li795 1.990 . S
N845 C844 1.314 . S
N845 C848 1.279 . S
C846 C844 1.353 . S
C846 C849 1.348 . S
C846 H878 0.929 . S
C847 C848 1.358 . S
C847 C849 1.356 . S
C847 H879 0.930 . S
C848 N845 1.279 . S
C848 C847 1.358 . S
C848 H851 0.930 . S
C849 C846 1.348 . S
C849 C847 1.356 . S
H850 C844 0.930 . S
H851 C848 0.930 . S
O852 Li792 1.956 1_565 S
O852 Li793 1.970 1_565 S
O852 Li794 1.961 . S
O852 C796 1.325 . S
O853 Li792 1.970 . S
O853 Li793 1.956 . S
O853 Li795 1.961 . S
O853 C802 1.325 . S
O854 Li792 1.961 . S
O854 Li794 1.956 1_545 S
O854 Li795 1.970 . S
O854 C824 1.325 . S
O855 Li793 1.961 . S
O855 Li794 1.970 1_545 S
O855 Li795 1.956 . S
O855 C830 1.325 . S
H856 C798 0.932 . S
H857 C799 0.930 . S
H858 C800 0.930 . S
H859 C801 0.930 . S
H860 C803 0.930 . S
H861 C805 0.939 . S
H862 C806 0.930 . S
H863 C807 0.930 . S
H864 C810 0.930 . S
H865 C813 0.929 . S
H866 C818 0.929 . S
H867 C819 0.930 . S
H868 C826 0.929 . S
H869 C827 0.930 . S
H870 C828 0.930 . S
H871 C829 0.930 . S
H872 C831 0.929 . S
H873 C832 0.930 . S
H874 C833 0.930 . S
H875 C834 0.930 . S
H876 C838 0.929 . S
H877 C840 0.930 . S
H878 C846 0.929 . S
H879 C847 0.930 . S
Li880 N897 1.990 . S
Li880 O940 1.956 . S
Li880 O941 1.970 . S
Li880 O942 1.961 . S
Li881 N905 1.990 . S
Li881 O940 1.970 . S
Li881 O941 1.956 . S
Li881 O943 1.961 . S
Li882 N927 1.990 . S
Li882 O940 1.961 . S
Li882 O942 1.956 . S
Li882 O943 1.970 . S
Li883 N933 1.990 . S
Li883 O941 1.961 . S
Li883 O942 1.970 . S
Li883 O943 1.956 . S
C884 C886 1.348 . S
C884 C887 1.356 . S
C884 O940 1.325 . S
N885 C888 1.314 . S
N885 C889 1.279 . S
C886 C884 1.348 . S
C886 C888 1.353 . S
C886 H944 0.929 . S
C887 C884 1.356 . S
C887 C889 1.358 . S
C887 H945 0.930 . S
C888 N885 1.314 . S
C888 C886 1.353 . S
C888 H946 0.930 . S
C889 N885 1.279 . S
C889 C887 1.358 . S
C889 H947 0.930 . S
C890 C893 1.348 . S
C890 C894 1.356 . S
C890 O941 1.325 . S
C891 N892 1.279 . S
C891 C894 1.358 . S
C891 H948 0.930 . S
N892 C891 1.279 . S
N892 C895 1.314 . S
C893 C890 1.348 . S
C893 C895 1.353 . S
C893 H949 0.929 . S
C894 C890 1.356 . S
C894 C891 1.358 . S
C894 H950 0.930 . S
C895 N892 1.314 . S
C895 C893 1.353 . S
C895 H951 0.930 . S
C896 N897 1.314 . S
C896 C901 1.353 . S
C896 H902 0.930 . S
N897 Li880 1.990 . S
N897 C896 1.314 . S
N897 C899 1.279 . S
C898 C899 1.358 . S
C898 C900 1.356 . S
C898 H952 0.930 . S
C899 N897 1.279 . S
C899 C898 1.358 . S
C899 H903 0.930 . S
C900 C898 1.356 . S
C900 C901 1.348 . S
C901 C896 1.353 . S
C901 C900 1.348 . S
C901 H953 0.929 . S
H902 C896 0.930 . S
H903 C899 0.930 . S
C904 N905 1.314 . S
C904 C906 1.353 . S
C904 H910 0.930 . S
N905 Li881 1.990 . S
N905 C904 1.314 . S
N905 C908 1.279 . S
C906 C904 1.353 . S
C906 C909 1.348 . S
C906 H954 0.929 . S
C907 C908 1.358 . S
C907 C909 1.356 . S
C907 H955 0.930 . S
C908 N905 1.279 . S
C908 C907 1.358 . S
C908 H911 0.930 . S
C909 C906 1.348 . S
C909 C907 1.356 . S
H910 C904 0.930 . S
H911 C908 0.930 . S
C912 C914 1.348 . S
C912 C915 1.356 . S
C912 O942 1.325 . S
N913 C916 1.314 . S
N913 C917 1.279 . S
C914 C912 1.348 . S
C914 C916 1.353 . S
C914 H956 0.929 . S
C915 C912 1.356 . S
C915 C917 1.358 . S
C915 H957 0.930 . S
C916 N913 1.314 . S
C916 C914 1.353 . S
C916 H958 0.930 . S
C917 N913 1.279 . S
C917 C915 1.358 . S
C917 H959 0.930 . S
C918 C919 1.348 . S
C918 C920 1.356 . S
C918 O943 1.325 . S
C919 C918 1.348 . S
C919 C921 1.353 . S
C919 H960 0.929 . S
C920 C918 1.356 . S
C920 C922 1.358 . S
C920 H961 0.930 . S
C921 C919 1.353 . S
C921 N923 1.314 . S
C921 H962 0.930 . S
C922 C920 1.358 . S
C922 N923 1.279 . S
C922 H963 0.930 . S
N923 C921 1.314 . S
N923 C922 1.279 . S
C924 C926 1.353 . S
C924 N927 1.314 . S
C924 H930 0.930 . S
C925 N927 1.279 . S
C925 C928 1.358 . S
C925 H931 0.930 . S
C926 C924 1.353 . S
C926 C929 1.348 . S
C926 H964 0.929 . S
N927 Li882 1.990 . S
N927 C924 1.314 . S
N927 C925 1.279 . S
C928 C925 1.358 . S
C928 C929 1.356 . S
C928 H965 0.930 . S
C929 C926 1.348 . S
C929 C928 1.356 . S
H930 C924 0.930 . S
H931 C925 0.930 . S
C932 N933 1.314 . S
C932 C934 1.353 . S
C932 H938 0.930 . S
N933 Li883 1.990 . S
N933 C932 1.314 . S
N933 C936 1.279 . S
C934 C932 1.353 . S
C934 C937 1.348 . S
C934 H966 0.929 . S
C935 C936 1.358 . S
C935 C937 1.356 . S
C935 H967 0.930 . S
C936 N933 1.279 . S
C936 C935 1.358 . S
C936 H939 0.930 . S
C937 C934 1.348 . S
C937 C935 1.356 . S
H938 C932 0.930 . S
H939 C936 0.930 . S
O940 Li880 1.956 . S
O940 Li881 1.970 . S
O940 Li882 1.961 . S
O940 C884 1.325 . S
O941 Li880 1.970 . S
O941 Li881 1.956 . S
O941 Li883 1.961 . S
O941 C890 1.325 . S
O942 Li880 1.961 . S
O942 Li882 1.956 . S
O942 Li883 1.970 . S
O942 C912 1.325 . S
O943 Li881 1.961 . S
O943 Li882 1.970 . S
O943 Li883 1.956 . S
O943 C918 1.325 . S
H944 C886 0.929 . S
H945 C887 0.930 . S
H946 C888 0.930 . S
H947 C889 0.930 . S
H948 C891 0.930 . S
H949 C893 0.929 . S
H950 C894 0.930 . S
H951 C895 0.930 . S
H952 C898 0.930 . S
H953 C901 0.929 . S
H954 C906 0.929 . S
H955 C907 0.930 . S
H956 C914 0.929 . S
H957 C915 0.930 . S
H958 C916 0.930 . S
H959 C917 0.930 . S
H960 C919 0.929 . S
H961 C920 0.930 . S
H962 C921 0.930 . S
H963 C922 0.930 . S
H964 C926 0.929 . S
H965 C928 0.930 . S
H966 C934 0.929 . S
H967 C935 0.930 . S
Li968 N985 1.990 . S
Li968 O1028 1.956 1_565 S
Li968 O1029 1.970 . S
Li968 O1030 1.961 . S
Li969 N993 1.990 . S
Li969 O1028 1.970 1_565 S
Li969 O1029 1.956 . S
Li969 O1031 1.961 . S
Li970 N1015 1.990 . S
Li970 O1028 1.961 . S
Li970 O1030 1.956 1_545 S
Li970 O1031 1.970 1_545 S
Li971 N1021 1.990 . S
Li971 O1029 1.961 . S
Li971 O1030 1.970 . S
Li971 O1031 1.956 . S
C972 C974 1.348 . S
C972 C975 1.356 . S
C972 O1028 1.325 . S
N973 C976 1.314 . S
N973 C977 1.279 . S
C974 C972 1.348 . S
C974 C976 1.353 . S
C974 H1032 0.929 . S
C975 C972 1.356 . S
C975 C977 1.358 . S
C975 H1033 0.930 . S
C976 N973 1.314 . S
C976 C974 1.353 . S
C976 H1034 0.930 . S
C977 N973 1.279 . S
C977 C975 1.358 . S
C977 H1035 0.930 . S
C978 C981 1.348 . S
C978 C982 1.356 . S
C978 O1029 1.325 . S
C979 N980 1.279 . S
C979 C982 1.358 . S
C979 H1036 0.930 . S
N980 C979 1.279 . S
N980 C983 1.314 . S
C981 C978 1.348 . S
C981 C983 1.353 . S
C981 H1037 0.929 . S
C982 C978 1.356 . S
C982 C979 1.358 . S
C982 H1038 0.930 . S
C983 N980 1.314 . S
C983 C981 1.353 . S
C983 H1039 0.930 . S
C984 N985 1.314 . S
C984 C989 1.353 . S
C984 H990 0.930 . S
N985 Li968 1.990 . S
N985 C984 1.314 . S
N985 C987 1.279 . S
C986 C987 1.358 . S
C986 C988 1.356 . S
C986 H1040 0.930 . S
C987 N985 1.279 . S
C987 C986 1.358 . S
C987 H991 0.930 . S
C988 C986 1.356 . S
C988 C989 1.348 . S
C989 C984 1.353 . S
C989 C988 1.348 . S
C989 H1041 0.929 . S
H990 C984 0.930 . S
H991 C987 0.930 . S
C992 N993 1.314 1_545 S
C992 C994 1.353 . S
C992 H998 0.930 . S
N993 Li969 1.990 . S
N993 C992 1.314 1_565 S
N993 C996 1.279 . S
C994 C992 1.353 . S
C994 C997 1.348 1_545 S
C994 H1042 0.929 . S
C995 C996 1.358 . S
C995 C997 1.356 . S
C995 H1043 0.930 . S
C996 N993 1.279 . S
C996 C995 1.358 . S
C996 H999 0.930 . S
C997 C994 1.348 1_565 S
C997 C995 1.356 . S
H998 C992 0.930 . S
H999 C996 0.930 . S
C1000 C1002 1.348 . S
C1000 C1003 1.356 . S
C1000 O1030 1.325 . S
N1001 C1004 1.314 . S
N1001 C1005 1.279 . S
C1002 C1000 1.348 . S
C1002 C1004 1.353 . S
C1002 H1044 0.929 . S
C1003 C1000 1.356 . S
C1003 C1005 1.358 . S
C1003 H1045 0.930 . S
C1004 N1001 1.314 . S
C1004 C1002 1.353 . S
C1004 H1046 0.930 . S
C1005 N1001 1.279 . S
C1005 C1003 1.358 . S
C1005 H1047 0.930 . S
C1006 C1007 1.348 1_565 S
C1006 C1008 1.356 . S
C1006 O1031 1.325 . S
C1007 C1006 1.348 1_545 S
C1007 C1009 1.353 . S
C1007 H1048 0.929 . S
C1008 C1006 1.356 . S
C1008 C1010 1.358 . S
C1008 H1049 0.930 . S
C1009 C1007 1.353 . S
C1009 N1011 1.314 1_545 S
C1009 H1050 0.930 . S
C1010 C1008 1.358 . S
C1010 N1011 1.279 . S
C1010 H1051 0.930 . S
N1011 C1009 1.314 1_565 S
N1011 C1010 1.279 . S
C1012 C1014 1.353 . S
C1012 N1015 1.314 . S
C1012 H1018 0.930 . S
C1013 N1015 1.279 . S
C1013 C1016 1.358 . S
C1013 H1019 0.930 . S
C1014 C1012 1.353 . S
C1014 C1017 1.348 . S
C1014 H1052 0.929 . S
N1015 Li970 1.990 . S
N1015 C1012 1.314 . S
N1015 C1013 1.279 . S
C1016 C1013 1.358 . S
C1016 C1017 1.356 . S
C1016 H1053 0.930 . S
C1017 C1014 1.348 . S
C1017 C1016 1.356 . S
H1018 C1012 0.930 . S
H1019 C1013 0.930 . S
C1020 N1021 1.314 . S
C1020 C1022 1.353 . S
C1020 H1026 0.930 . S
N1021 Li971 1.990 . S
N1021 C1020 1.314 . S
N1021 C1024 1.279 . S
C1022 C1020 1.353 . S
C1022 C1025 1.348 . S
C1022 H1054 0.929 . S
C1023 C1024 1.358 . S
C1023 C1025 1.356 . S
C1023 H1055 0.930 . S
C1024 N1021 1.279 . S
C1024 C1023 1.358 . S
C1024 H1027 0.930 . S
C1025 C1022 1.348 . S
C1025 C1023 1.356 . S
H1026 C1020 0.930 . S
H1027 C1024 0.930 . S
O1028 Li968 1.956 1_545 S
O1028 Li969 1.970 1_545 S
O1028 Li970 1.961 . S
O1028 C972 1.325 . S
O1029 Li968 1.970 . S
O1029 Li969 1.956 . S
O1029 Li971 1.961 . S
O1029 C978 1.325 . S
O1030 Li968 1.961 . S
O1030 Li970 1.956 1_565 S
O1030 Li971 1.970 . S
O1030 C1000 1.325 . S
O1031 Li969 1.961 . S
O1031 Li970 1.970 1_565 S
O1031 Li971 1.956 . S
O1031 C1006 1.325 . S
H1032 C974 0.929 . S
H1033 C975 0.930 . S
H1034 C976 0.930 . S
H1035 C977 0.930 . S
H1036 C979 0.930 . S
H1037 C981 0.929 . S
H1038 C982 0.930 . S
H1039 C983 0.930 . S
H1040 C986 0.930 . S
H1041 C989 0.929 . S
H1042 C994 0.929 . S
H1043 C995 0.930 . S
H1044 C1002 0.929 . S
H1045 C1003 0.930 . S
H1046 C1004 0.930 . S
H1047 C1005 0.930 . S
H1048 C1007 0.929 . S
H1049 C1008 0.930 . S
H1050 C1009 0.930 . S
H1051 C1010 0.930 . S
H1052 C1014 0.929 . S
H1053 C1016 0.930 . S
H1054 C1022 0.929 . S
H1055 C1023 0.930 . S
Li1056 N1073 1.990 . S
Li1056 O1116 1.956 . S
Li1056 O1117 1.970 . S
Li1056 O1118 1.961 . S
Li1057 N1081 1.990 . S
Li1057 O1116 1.970 . S
Li1057 O1117 1.956 . S
Li1057 O1119 1.961 . S
Li1058 N1103 1.990 . S
Li1058 O1116 1.961 . S
Li1058 O1118 1.956 . S
Li1058 O1119 1.970 . S
Li1059 N1109 1.990 . S
Li1059 O1117 1.961 . S
Li1059 O1118 1.970 . S
Li1059 O1119 1.956 . S
C1060 C1062 1.348 . S
C1060 C1063 1.356 . S
C1060 O1116 1.325 . S
N1061 C1064 1.314 . S
N1061 C1065 1.279 . S
C1062 C1060 1.348 . S
C1062 C1064 1.353 . S
C1062 H1120 0.929 . S
C1063 C1060 1.356 . S
C1063 C1065 1.358 . S
C1063 H1121 0.930 . S
C1064 N1061 1.314 . S
C1064 C1062 1.353 . S
C1064 H1122 0.930 . S
C1065 N1061 1.279 . S
C1065 C1063 1.358 . S
C1065 H1123 0.930 . S
C1066 C1069 1.348 . S
C1066 C1070 1.356 . S
C1066 O1117 1.325 . S
C1067 N1068 1.279 . S
C1067 C1070 1.358 . S
C1067 H1124 0.930 . S
N1068 C1067 1.279 . S
N1068 C1071 1.314 . S
C1069 C1066 1.348 . S
C1069 C1071 1.353 . S
C1069 H1125 0.929 . S
C1070 C1066 1.356 . S
C1070 C1067 1.358 . S
C1070 H1126 0.930 . S
C1071 N1068 1.314 . S
C1071 C1069 1.353 . S
C1071 H1127 0.930 . S
C1072 N1073 1.314 . S
C1072 C1077 1.353 . S
C1072 H1078 0.930 . S
N1073 Li1056 1.990 . S
N1073 C1072 1.314 . S
N1073 C1075 1.279 . S
C1074 C1075 1.358 . S
C1074 C1076 1.356 . S
C1074 H1128 0.930 . S
C1075 N1073 1.279 . S
C1075 C1074 1.358 . S
C1075 H1079 0.930 . S
C1076 C1074 1.356 . S
C1076 C1077 1.348 . S
C1077 C1072 1.353 . S
C1077 C1076 1.348 . S
C1077 H1129 0.929 . S
H1078 C1072 0.930 . S
H1079 C1075 0.930 . S
C1080 N1081 1.314 . S
C1080 C1082 1.353 . S
C1080 H1086 0.930 . S
N1081 Li1057 1.990 . S
N1081 C1080 1.314 . S
N1081 C1084 1.279 . S
C1082 C1080 1.353 . S
C1082 C1085 1.348 . S
C1082 H1130 0.929 . S
C1083 C1084 1.358 . S
C1083 C1085 1.356 . S
C1083 H1131 0.930 . S
C1084 N1081 1.279 . S
C1084 C1083 1.358 . S
C1084 H1087 0.930 . S
C1085 C1082 1.348 . S
C1085 C1083 1.356 . S
H1086 C1080 0.930 . S
H1087 C1084 0.930 . S
C1088 C1090 1.348 . S
C1088 C1091 1.356 . S
C1088 O1118 1.325 . S
N1089 C1092 1.314 . S
N1089 C1093 1.279 . S
C1090 C1088 1.348 . S
C1090 C1092 1.353 . S
C1090 H1132 0.929 . S
C1091 C1088 1.356 . S
C1091 C1093 1.358 . S
C1091 H1133 0.930 . S
C1092 N1089 1.314 . S
C1092 C1090 1.353 . S
C1092 H1134 0.930 . S
C1093 N1089 1.279 . S
C1093 C1091 1.358 . S
C1093 H1135 0.930 . S
C1094 C1095 1.348 . S
C1094 C1096 1.356 . S
C1094 O1119 1.325 . S
C1095 C1094 1.348 . S
C1095 C1097 1.353 . S
C1095 H1136 0.929 . S
C1096 C1094 1.356 . S
C1096 C1098 1.358 . S
C1096 H1137 0.930 . S
C1097 C1095 1.353 . S
C1097 N1099 1.314 . S
C1097 H1138 0.930 . S
C1098 C1096 1.358 . S
C1098 N1099 1.279 . S
C1098 H1139 0.930 . S
N1099 C1097 1.314 . S
N1099 C1098 1.279 . S
C1100 C1102 1.353 . S
C1100 N1103 1.314 . S
C1100 H1106 0.930 . S
C1101 N1103 1.279 . S
C1101 C1104 1.358 . S
C1101 H1107 0.930 . S
C1102 C1100 1.353 . S
C1102 C1105 1.348 . S
C1102 H1140 0.929 . S
N1103 Li1058 1.990 . S
N1103 C1100 1.314 . S
N1103 C1101 1.279 . S
C1104 C1101 1.358 . S
C1104 C1105 1.356 . S
C1104 H1141 0.930 . S
C1105 C1102 1.348 . S
C1105 C1104 1.356 . S
H1106 C1100 0.930 . S
H1107 C1101 0.930 . S
C1108 N1109 1.314 . S
C1108 C1110 1.353 . S
C1108 H1114 0.930 . S
N1109 Li1059 1.990 . S
N1109 C1108 1.314 . S
N1109 C1112 1.279 . S
C1110 C1108 1.353 . S
C1110 C1113 1.348 . S
C1110 H1142 0.929 . S
C1111 C1112 1.358 . S
C1111 C1113 1.356 . S
C1111 H1143 0.930 . S
C1112 N1109 1.279 . S
C1112 C1111 1.358 . S
C1112 H1115 0.930 . S
C1113 C1110 1.348 . S
C1113 C1111 1.356 . S
H1114 C1108 0.930 . S
H1115 C1112 0.930 . S
O1116 Li1056 1.956 . S
O1116 Li1057 1.970 . S
O1116 Li1058 1.961 . S
O1116 C1060 1.325 . S
O1117 Li1056 1.970 . S
O1117 Li1057 1.956 . S
O1117 Li1059 1.961 . S
O1117 C1066 1.325 . S
O1118 Li1056 1.961 . S
O1118 Li1058 1.956 . S
O1118 Li1059 1.970 . S
O1118 C1088 1.325 . S
O1119 Li1057 1.961 . S
O1119 Li1058 1.970 . S
O1119 Li1059 1.956 . S
O1119 C1094 1.325 . S
H1120 C1062 0.929 . S
H1121 C1063 0.930 . S
H1122 C1064 0.930 . S
H1123 C1065 0.930 . S
H1124 C1067 0.930 . S
H1125 C1069 0.929 . S
H1126 C1070 0.930 . S
H1127 C1071 0.930 . S
H1128 C1074 0.930 . S
H1129 C1077 0.929 . S
H1130 C1082 0.929 . S
H1131 C1083 0.930 . S
H1132 C1090 0.929 . S
H1133 C1091 0.930 . S
H1134 C1092 0.930 . S
H1135 C1093 0.930 . S
H1136 C1095 0.929 . S
H1137 C1096 0.930 . S
H1138 C1097 0.930 . S
H1139 C1098 0.930 . S
H1140 C1102 0.929 . S
H1141 C1104 0.930 . S
H1142 C1110 0.929 . S
H1143 C1111 0.930 . S
Li1144 N1161 1.990 . S
Li1144 O1204 1.956 . S
Li1144 O1205 1.970 . S
Li1144 O1206 1.961 . S
Li1145 N1169 1.990 . S
Li1145 O1204 1.970 1_565 S
Li1145 O1205 1.956 1_565 S
Li1145 O1207 1.961 . S
Li1146 N1191 1.990 . S
Li1146 O1204 1.961 . S
Li1146 O1206 1.956 . S
Li1146 O1207 1.970 1_545 S
Li1147 N1197 1.990 . S
Li1147 O1205 1.961 . S
Li1147 O1206 1.970 . S
Li1147 O1207 1.956 1_545 S
C1148 C1150 1.348 1_545 S
C1148 C1151 1.356 . S
C1148 O1204 1.325 . S
N1149 C1152 1.314 1_545 S
N1149 C1153 1.279 . S
C1150 C1148 1.348 1_565 S
C1150 C1152 1.353 . S
C1150 H1208 0.929 . S
C1151 C1148 1.356 . S
C1151 C1153 1.358 . S
C1151 H1209 0.930 . S
C1152 N1149 1.314 1_565 S
C1152 C1150 1.353 . S
C1152 H1210 0.930 . S
C1153 N1149 1.279 . S
C1153 C1151 1.358 . S
C1153 H1211 0.930 . S
C1154 C1157 1.348 . S
C1154 C1158 1.356 . S
C1154 O1205 1.325 . S
C1155 N1156 1.279 . S
C1155 C1158 1.358 . S
C1155 H1212 0.930 . S
N1156 C1155 1.279 . S
N1156 C1159 1.314 . S
C1157 C1154 1.348 . S
C1157 C1159 1.353 . S
C1157 H1213 0.929 . S
C1158 C1154 1.356 . S
C1158 C1155 1.358 . S
C1158 H1214 0.930 . S
C1159 N1156 1.314 . S
C1159 C1157 1.353 . S
C1159 H1215 0.930 . S
C1160 N1161 1.314 . S
C1160 C1165 1.353 . S
C1160 H1166 0.930 . S
N1161 Li1144 1.990 . S
N1161 C1160 1.314 . S
N1161 C1163 1.279 . S
C1162 C1163 1.358 . S
C1162 C1164 1.356 . S
C1162 H1216 0.930 . S
C1163 N1161 1.279 . S
C1163 C1162 1.358 . S
C1163 H1167 0.930 . S
C1164 C1162 1.356 . S
C1164 C1165 1.348 . S
C1165 C1160 1.353 . S
C1165 C1164 1.348 . S
C1165 H1217 0.929 . S
H1166 C1160 0.930 . S
H1167 C1163 0.930 . S
C1168 N1169 1.314 . S
C1168 C1170 1.353 . S
C1168 H1174 0.930 . S
N1169 Li1145 1.990 . S
N1169 C1168 1.314 . S
N1169 C1172 1.279 . S
C1170 C1168 1.353 . S
C1170 C1173 1.348 . S
C1170 H1218 0.929 . S
C1171 C1172 1.358 . S
C1171 C1173 1.356 . S
C1171 H1219 0.930 . S
C1172 N1169 1.279 . S
C1172 C1171 1.358 . S
C1172 H1175 0.930 . S
C1173 C1170 1.348 . S
C1173 C1171 1.356 . S
H1174 C1168 0.930 . S
H1175 C1172 0.930 . S
C1176 C1178 1.348 . S
C1176 C1179 1.356 . S
C1176 O1206 1.325 . S
N1177 C1180 1.314 . S
N1177 C1181 1.279 . S
C1178 C1176 1.348 . S
C1178 C1180 1.353 . S
C1178 H1220 0.929 . S
C1179 C1176 1.356 . S
C1179 C1181 1.358 . S
C1179 H1221 0.930 . S
C1180 N1177 1.314 . S
C1180 C1178 1.353 . S
C1180 H1222 0.930 . S
C1181 N1177 1.279 . S
C1181 C1179 1.358 . S
C1181 H1223 0.930 . S
C1182 C1183 1.348 . S
C1182 C1184 1.356 . S
C1182 O1207 1.325 . S
C1183 C1182 1.348 . S
C1183 C1185 1.353 . S
C1183 H1224 0.929 . S
C1184 C1182 1.356 . S
C1184 C1186 1.358 . S
C1184 H1225 0.930 . S
C1185 C1183 1.353 . S
C1185 N1187 1.314 . S
C1185 H1226 0.930 . S
C1186 C1184 1.358 . S
C1186 N1187 1.279 . S
C1186 H1227 0.930 . S
N1187 C1185 1.314 . S
N1187 C1186 1.279 . S
C1188 C1190 1.353 . S
C1188 N1191 1.314 1_565 S
C1188 H1194 0.930 . S
C1189 N1191 1.279 . S
C1189 C1192 1.358 . S
C1189 H1195 0.930 . S
C1190 C1188 1.353 . S
C1190 C1193 1.348 1_565 S
C1190 H1228 0.929 . S
N1191 Li1146 1.990 . S
N1191 C1188 1.314 1_545 S
N1191 C1189 1.279 . S
C1192 C1189 1.358 . S
C1192 C1193 1.356 . S
C1192 H1229 0.930 . S
C1193 C1190 1.348 1_545 S
C1193 C1192 1.356 . S
H1194 C1188 0.930 . S
H1195 C1189 0.930 . S
C1196 N1197 1.314 . S
C1196 C1198 1.353 . S
C1196 H1202 0.930 . S
N1197 Li1147 1.990 . S
N1197 C1196 1.314 . S
N1197 C1200 1.279 . S
C1198 C1196 1.353 . S
C1198 C1201 1.348 . S
C1198 H1230 0.929 . S
C1199 C1200 1.358 . S
C1199 C1201 1.356 . S
C1199 H1231 0.930 . S
C1200 N1197 1.279 . S
C1200 C1199 1.358 . S
C1200 H1203 0.930 . S
C1201 C1198 1.348 . S
C1201 C1199 1.356 . S
H1202 C1196 0.930 . S
H1203 C1200 0.930 . S
O1204 Li1144 1.956 . S
O1204 Li1145 1.970 1_545 S
O1204 Li1146 1.961 . S
O1204 C1148 1.325 . S
O1205 Li1144 1.970 . S
O1205 Li1145 1.956 1_545 S
O1205 Li1147 1.961 . S
O1205 C1154 1.325 . S
O1206 Li1144 1.961 . S
O1206 Li1146 1.956 . S
O1206 Li1147 1.970 . S
O1206 C1176 1.325 . S
O1207 Li1145 1.961 . S
O1207 Li1146 1.970 1_565 S
O1207 Li1147 1.956 1_565 S
O1207 C1182 1.325 . S
H1208 C1150 0.929 . S
H1209 C1151 0.930 . S
H1210 C1152 0.930 . S
H1211 C1153 0.930 . S
H1212 C1155 0.930 . S
H1213 C1157 0.929 . S
H1214 C1158 0.930 . S
H1215 C1159 0.930 . S
H1216 C1162 0.930 . S
H1217 C1165 0.929 . S
H1218 C1170 0.929 . S
H1219 C1171 0.930 . S
H1220 C1178 0.929 . S
H1221 C1179 0.930 . S
H1222 C1180 0.930 . S
H1223 C1181 0.930 . S
H1224 C1183 0.929 . S
H1225 C1184 0.930 . S
H1226 C1185 0.930 . S
H1227 C1186 0.930 . S
H1228 C1190 0.929 . S
H1229 C1192 0.930 . S
H1230 C1198 0.929 . S
H1231 C1199 0.930 . S
Li1232 N1249 1.990 . S
Li1232 O1292 1.956 . S
Li1232 O1293 1.970 . S
Li1232 O1294 1.961 . S
Li1233 N1257 1.990 . S
Li1233 O1292 1.970 . S
Li1233 O1293 1.956 . S
Li1233 O1295 1.961 . S
Li1234 N1279 1.990 . S
Li1234 O1292 1.961 . S
Li1234 O1294 1.956 . S
Li1234 O1295 1.970 . S
Li1235 N1285 1.990 . S
Li1235 O1293 1.961 . S
Li1235 O1294 1.970 . S
Li1235 O1295 1.956 . S
C1236 C1238 1.348 . S
C1236 C1239 1.356 . S
C1236 O1292 1.325 . S
N1237 C1240 1.314 . S
N1237 C1241 1.279 . S
C1238 C1236 1.348 . S
C1238 C1240 1.353 . S
C1238 H1296 0.929 . S
C1239 C1236 1.356 . S
C1239 C1241 1.358 . S
C1239 H1297 0.930 . S
C1240 N1237 1.314 . S
C1240 C1238 1.353 . S
C1240 H1298 0.930 . S
C1241 N1237 1.279 . S
C1241 C1239 1.358 . S
C1241 H1299 0.930 . S
C1242 C1245 1.348 . S
C1242 C1246 1.356 . S
C1242 O1293 1.325 . S
C1243 N1244 1.279 . S
C1243 C1246 1.358 . S
C1243 H1300 0.930 . S
N1244 C1243 1.279 . S
N1244 C1247 1.314 . S
C1245 C1242 1.348 . S
C1245 C1247 1.353 . S
C1245 H1301 0.929 . S
C1246 C1242 1.356 . S
C1246 C1243 1.358 . S
C1246 H1302 0.930 . S
C1247 N1244 1.314 . S
C1247 C1245 1.353 . S
C1247 H1303 0.930 . S
C1248 N1249 1.314 . S
C1248 C1253 1.353 . S
C1248 H1254 0.930 . S
N1249 Li1232 1.990 . S
N1249 C1248 1.314 . S
N1249 C1251 1.279 . S
C1250 C1251 1.358 . S
C1250 C1252 1.356 . S
C1250 H1304 0.930 . S
C1251 N1249 1.279 . S
C1251 C1250 1.358 . S
C1251 H1255 0.930 . S
C1252 C1250 1.356 . S
C1252 C1253 1.348 . S
C1253 C1248 1.353 . S
C1253 C1252 1.348 . S
C1253 H1305 0.929 . S
H1254 C1248 0.930 . S
H1255 C1251 0.930 . S
C1256 N1257 1.314 . S
C1256 C1258 1.353 . S
C1256 H1262 0.930 . S
N1257 Li1233 1.990 . S
N1257 C1256 1.314 . S
N1257 C1260 1.279 . S
C1258 C1256 1.353 . S
C1258 C1261 1.348 . S
C1258 H1306 0.929 . S
C1259 C1260 1.358 . S
C1259 C1261 1.356 . S
C1259 H1307 0.930 . S
C1260 N1257 1.279 . S
C1260 C1259 1.358 . S
C1260 H1263 0.930 . S
C1261 C1258 1.348 . S
C1261 C1259 1.356 . S
H1262 C1256 0.930 . S
H1263 C1260 0.930 . S
C1264 C1266 1.348 . S
C1264 C1267 1.356 . S
C1264 O1294 1.325 . S
N1265 C1268 1.314 . S
N1265 C1269 1.279 . S
C1266 C1264 1.348 . S
C1266 C1268 1.353 . S
C1266 H1308 0.929 . S
C1267 C1264 1.356 . S
C1267 C1269 1.358 . S
C1267 H1309 0.930 . S
C1268 N1265 1.314 . S
C1268 C1266 1.353 . S
C1268 H1310 0.930 . S
C1269 N1265 1.279 . S
C1269 C1267 1.358 . S
C1269 H1311 0.930 . S
C1270 C1271 1.348 . S
C1270 C1272 1.356 . S
C1270 O1295 1.325 . S
C1271 C1270 1.348 . S
C1271 C1273 1.353 . S
C1271 H1312 0.929 . S
C1272 C1270 1.356 . S
C1272 C1274 1.358 . S
C1272 H1313 0.930 . S
C1273 C1271 1.353 . S
C1273 N1275 1.314 . S
C1273 H1314 0.930 . S
C1274 C1272 1.358 . S
C1274 N1275 1.279 . S
C1274 H1315 0.930 . S
N1275 C1273 1.314 . S
N1275 C1274 1.279 . S
C1276 C1278 1.353 . S
C1276 N1279 1.314 . S
C1276 H1282 0.930 . S
C1277 N1279 1.279 . S
C1277 C1280 1.358 . S
C1277 H1283 0.930 . S
C1278 C1276 1.353 . S
C1278 C1281 1.348 . S
C1278 H1316 0.929 . S
N1279 Li1234 1.990 . S
N1279 C1276 1.314 . S
N1279 C1277 1.279 . S
C1280 C1277 1.358 . S
C1280 C1281 1.356 . S
C1280 H1317 0.930 . S
C1281 C1278 1.348 . S
C1281 C1280 1.356 . S
H1282 C1276 0.930 . S
H1283 C1277 0.930 . S
C1284 N1285 1.314 . S
C1284 C1286 1.353 . S
C1284 H1290 0.930 . S
N1285 Li1235 1.990 . S
N1285 C1284 1.314 . S
N1285 C1288 1.279 . S
C1286 C1284 1.353 . S
C1286 C1289 1.348 . S
C1286 H1318 0.929 . S
C1287 C1288 1.358 . S
C1287 C1289 1.356 . S
C1287 H1319 0.930 . S
C1288 N1285 1.279 . S
C1288 C1287 1.358 . S
C1288 H1291 0.930 . S
C1289 C1286 1.348 . S
C1289 C1287 1.356 . S
H1290 C1284 0.930 . S
H1291 C1288 0.930 . S
O1292 Li1232 1.956 . S
O1292 Li1233 1.970 . S
O1292 Li1234 1.961 . S
O1292 C1236 1.325 . S
O1293 Li1232 1.970 . S
O1293 Li1233 1.956 . S
O1293 Li1235 1.961 . S
O1293 C1242 1.325 . S
O1294 Li1232 1.961 . S
O1294 Li1234 1.956 . S
O1294 Li1235 1.970 . S
O1294 C1264 1.325 . S
O1295 Li1233 1.961 . S
O1295 Li1234 1.970 . S
O1295 Li1235 1.956 . S
O1295 C1270 1.325 . S
H1296 C1238 0.929 . S
H1297 C1239 0.930 . S
H1298 C1240 0.930 . S
H1299 C1241 0.930 . S
H1300 C1243 0.930 . S
H1301 C1245 0.929 . S
H1302 C1246 0.930 . S
H1303 C1247 0.930 . S
H1304 C1250 0.930 . S
H1305 C1253 0.929 . S
H1306 C1258 0.929 . S
H1307 C1259 0.930 . S
H1308 C1266 0.929 . S
H1309 C1267 0.930 . S
H1310 C1268 0.930 . S
H1311 C1269 0.930 . S
H1312 C1271 0.929 . S
H1313 C1272 0.930 . S
H1314 C1273 0.930 . S
H1315 C1274 0.930 . S
H1316 C1278 0.929 . S
H1317 C1280 0.930 . S
H1318 C1286 0.929 . S
H1319 C1287 0.930 . S
Li1320 N1337 1.990 . S
Li1320 O1380 1.956 . S
Li1320 O1381 1.970 . S
Li1320 O1382 1.961 . S
Li1321 N1345 1.990 . S
Li1321 O1380 1.970 1_545 S
Li1321 O1381 1.956 1_545 S
Li1321 O1383 1.961 . S
Li1322 N1367 1.990 . S
Li1322 O1380 1.961 . S
Li1322 O1382 1.956 . S
Li1322 O1383 1.970 1_565 S
Li1323 N1373 1.990 1_655 S
Li1323 O1381 1.961 . S
Li1323 O1382 1.970 . S
Li1323 O1383 1.956 1_565 S
C1324 C1326 1.348 1_565 S
C1324 C1327 1.356 . S
C1324 O1380 1.325 . S
N1325 C1328 1.314 1_565 S
N1325 C1329 1.279 . S
C1326 C1324 1.348 1_545 S
C1326 C1328 1.353 . S
C1326 H1384 0.929 . S
C1327 C1324 1.356 . S
C1327 C1329 1.358 . S
C1327 H1385 0.930 . S
C1328 N1325 1.314 1_545 S
C1328 C1326 1.353 . S
C1328 H1386 0.930 . S
C1329 N1325 1.279 . S
C1329 C1327 1.358 . S
C1329 H1387 0.930 . S
C1330 C1333 1.348 . S
C1330 C1334 1.356 . S
C1330 O1381 1.325 . S
C1331 N1332 1.279 . S
C1331 C1334 1.358 . S
C1331 H1388 0.930 . S
N1332 C1331 1.279 . S
N1332 C1335 1.314 . S
C1333 C1330 1.348 . S
C1333 C1335 1.353 . S
C1333 H1389 0.929 . S
C1334 C1330 1.356 . S
C1334 C1331 1.358 . S
C1334 H1390 0.930 . S
C1335 N1332 1.314 . S
C1335 C1333 1.353 . S
C1335 H1391 0.930 . S
C1336 N1337 1.314 . S
C1336 C1341 1.353 . S
C1336 H1342 0.930 . S
N1337 Li1320 1.990 . S
N1337 C1336 1.314 . S
N1337 C1339 1.279 . S
C1338 C1339 1.358 . S
C1338 C1340 1.356 . S
C1338 H1392 0.930 . S
C1339 N1337 1.279 . S
C1339 C1338 1.358 . S
C1339 H1343 0.930 . S
C1340 C1338 1.356 . S
C1340 C1341 1.348 . S
C1341 C1336 1.353 . S
C1341 C1340 1.348 . S
C1341 H1393 0.929 . S
H1342 C1336 0.930 . S
H1343 C1339 0.930 . S
C1344 N1345 1.314 . S
C1344 C1346 1.353 . S
C1344 H1350 0.930 . S
N1345 Li1321 1.990 . S
N1345 C1344 1.314 . S
N1345 C1348 1.279 . S
C1346 C1344 1.353 . S
C1346 C1349 1.348 . S
C1346 H1394 0.929 . S
C1347 C1348 1.358 . S
C1347 C1349 1.356 . S
C1347 H1395 0.930 . S
C1348 N1345 1.279 . S
C1348 C1347 1.358 . S
C1348 H1351 0.930 . S
C1349 C1346 1.348 . S
C1349 C1347 1.356 . S
H1350 C1344 0.930 . S
H1351 C1348 0.930 . S
C1352 C1354 1.333 1_655 S
C1352 C1355 1.356 . S
C1352 O1382 1.325 . S
N1353 C1356 1.314 1_655 S
N1353 C1357 1.279 . S
C1354 C1352 1.333 1_455 S
C1354 C1356 1.358 . S
C1354 H1396 0.939 . S
C1355 C1352 1.356 . S
C1355 C1357 1.358 . S
C1355 H1397 0.930 . S
C1356 N1353 1.314 1_455 S
C1356 C1354 1.358 . S
C1356 H1398 0.930 . S
C1357 N1353 1.279 . S
C1357 C1355 1.358 . S
C1357 H1399 0.930 . S
C1358 C1359 1.348 1_655 S
C1358 C1360 1.356 . S
C1358 O1383 1.325 . S
C1359 C1358 1.348 1_455 S
C1359 C1361 1.353 . S
C1359 H1400 0.932 . S
C1360 C1358 1.356 . S
C1360 C1362 1.358 1_655 S
C1360 H1401 0.930 . S
C1361 C1359 1.353 . S
C1361 N1363 1.314 . S
C1361 H1402 0.930 . S
C1362 C1360 1.358 1_455 S
C1362 N1363 1.279 . S
C1362 H1403 0.930 . S
N1363 C1361 1.314 . S
N1363 C1362 1.279 . S
C1364 C1366 1.353 . S
C1364 N1367 1.314 1_545 S
C1364 H1370 0.930 . S
C1365 N1367 1.279 . S
C1365 C1368 1.358 . S
C1365 H1371 0.930 . S
C1366 C1364 1.353 . S
C1366 C1369 1.348 1_545 S
C1366 H1404 0.929 . S
N1367 Li1322 1.990 . S
N1367 C1364 1.314 1_565 S
N1367 C1365 1.279 . S
C1368 C1365 1.358 . S
C1368 C1369 1.356 . S
C1368 H1405 0.930 . S
C1369 C1366 1.348 1_565 S
C1369 C1368 1.356 . S
H1370 C1364 0.930 . S
H1371 C1365 0.930 . S
C1372 N1373 1.314 . S
C1372 C1374 1.353 . S
C1372 H1378 0.930 . S
N1373 Li1323 1.990 1_455 S
N1373 C1372 1.314 . S
N1373 C1376 1.279 . S
C1374 C1372 1.353 . S
C1374 C1377 1.348 . S
C1374 H1406 0.929 . S
C1375 C1376 1.358 . S
C1375 C1377 1.356 . S
C1375 H1407 0.930 . S
C1376 N1373 1.279 . S
C1376 C1375 1.358 . S
C1376 H1379 0.930 . S
C1377 C1374 1.348 . S
C1377 C1375 1.356 . S
H1378 C1372 0.930 . S
H1379 C1376 0.930 . S
O1380 Li1320 1.956 . S
O1380 Li1321 1.970 1_565 S
O1380 Li1322 1.961 . S
O1380 C1324 1.325 . S
O1381 Li1320 1.970 . S
O1381 Li1321 1.956 1_565 S
O1381 Li1323 1.961 . S
O1381 C1330 1.325 . S
O1382 Li1320 1.961 . S
O1382 Li1322 1.956 . S
O1382 Li1323 1.970 . S
O1382 C1352 1.325 . S
O1383 Li1321 1.961 . S
O1383 Li1322 1.970 1_545 S
O1383 Li1323 1.956 1_545 S
O1383 C1358 1.325 . S
H1384 C1326 0.929 . S
H1385 C1327 0.930 . S
H1386 C1328 0.930 . S
H1387 C1329 0.930 . S
H1388 C1331 0.930 . S
H1389 C1333 0.929 . S
H1390 C1334 0.930 . S
H1391 C1335 0.930 . S
H1392 C1338 0.930 . S
H1393 C1341 0.929 . S
H1394 C1346 0.929 . S
H1395 C1347 0.930 . S
H1396 C1354 0.939 . S
H1397 C1355 0.930 . S
H1398 C1356 0.930 . S
H1399 C1357 0.930 . S
H1400 C1359 0.932 . S
H1401 C1360 0.930 . S
H1402 C1361 0.930 . S
H1403 C1362 0.930 . S
H1404 C1366 0.929 . S
H1405 C1368 0.930 . S
H1406 C1374 0.929 . S
H1407 C1375 0.930 . S
Li1408 N1425 1.990 . S
Li1408 O1468 1.956 . S
Li1408 O1469 1.970 . S
Li1408 O1470 1.961 . S
Li1409 N1433 1.990 . S
Li1409 O1468 1.970 . S
Li1409 O1469 1.956 . S
Li1409 O1471 1.961 . S
Li1410 N1455 1.990 . S
Li1410 O1468 1.961 . S
Li1410 O1470 1.956 . S
Li1410 O1471 1.970 . S
Li1411 N1461 1.990 . S
Li1411 O1469 1.961 . S
Li1411 O1470 1.970 . S
Li1411 O1471 1.956 . S
C1412 C1414 1.348 . S
C1412 C1415 1.356 . S
C1412 O1468 1.325 . S
N1413 C1416 1.314 . S
N1413 C1417 1.279 . S
C1414 C1412 1.348 . S
C1414 C1416 1.353 . S
C1414 H1472 0.929 . S
C1415 C1412 1.356 . S
C1415 C1417 1.358 . S
C1415 H1473 0.930 . S
C1416 N1413 1.314 . S
C1416 C1414 1.353 . S
C1416 H1474 0.930 . S
C1417 N1413 1.279 . S
C1417 C1415 1.358 . S
C1417 H1475 0.930 . S
C1418 C1421 1.348 . S
C1418 C1422 1.356 . S
C1418 O1469 1.325 . S
C1419 N1420 1.279 . S
C1419 C1422 1.358 . S
C1419 H1476 0.930 . S
N1420 C1419 1.279 . S
N1420 C1423 1.314 . S
C1421 C1418 1.348 . S
C1421 C1423 1.353 . S
C1421 H1477 0.929 . S
C1422 C1418 1.356 . S
C1422 C1419 1.358 . S
C1422 H1478 0.930 . S
C1423 N1420 1.314 . S
C1423 C1421 1.353 . S
C1423 H1479 0.930 . S
C1424 N1425 1.314 . S
C1424 C1429 1.353 . S
C1424 H1430 0.930 . S
N1425 Li1408 1.990 . S
N1425 C1424 1.314 . S
N1425 C1427 1.279 . S
C1426 C1427 1.358 . S
C1426 C1428 1.356 . S
C1426 H1480 0.930 . S
C1427 N1425 1.279 . S
C1427 C1426 1.358 . S
C1427 H1431 0.930 . S
C1428 C1426 1.356 . S
C1428 C1429 1.348 . S
C1429 C1424 1.353 . S
C1429 C1428 1.348 . S
C1429 H1481 0.929 . S
H1430 C1424 0.930 . S
H1431 C1427 0.930 . S
C1432 N1433 1.314 . S
C1432 C1434 1.353 . S
C1432 H1438 0.930 . S
N1433 Li1409 1.990 . S
N1433 C1432 1.314 . S
N1433 C1436 1.279 . S
C1434 C1432 1.353 . S
C1434 C1437 1.348 . S
C1434 H1482 0.929 . S
C1435 C1436 1.358 . S
C1435 C1437 1.356 . S
C1435 H1483 0.930 . S
C1436 N1433 1.279 . S
C1436 C1435 1.358 . S
C1436 H1439 0.930 . S
C1437 C1434 1.348 . S
C1437 C1435 1.356 . S
H1438 C1432 0.930 . S
H1439 C1436 0.930 . S
C1440 C1442 1.348 . S
C1440 C1443 1.356 . S
C1440 O1470 1.325 . S
N1441 C1444 1.314 . S
N1441 C1445 1.279 . S
C1442 C1440 1.348 . S
C1442 C1444 1.353 . S
C1442 H1484 0.929 . S
C1443 C1440 1.356 . S
C1443 C1445 1.358 . S
C1443 H1485 0.930 . S
C1444 N1441 1.314 . S
C1444 C1442 1.353 . S
C1444 H1486 0.930 . S
C1445 N1441 1.279 . S
C1445 C1443 1.358 . S
C1445 H1487 0.930 . S
C1446 C1447 1.348 . S
C1446 C1448 1.356 . S
C1446 O1471 1.325 . S
C1447 C1446 1.348 . S
C1447 C1449 1.353 . S
C1447 H1488 0.929 . S
C1448 C1446 1.356 . S
C1448 C1450 1.358 . S
C1448 H1489 0.930 . S
C1449 C1447 1.353 . S
C1449 N1451 1.314 . S
C1449 H1490 0.930 . S
C1450 C1448 1.358 . S
C1450 N1451 1.279 . S
C1450 H1491 0.930 . S
N1451 C1449 1.314 . S
N1451 C1450 1.279 . S
C1452 C1454 1.353 . S
C1452 N1455 1.314 . S
C1452 H1458 0.930 . S
C1453 N1455 1.279 . S
C1453 C1456 1.358 . S
C1453 H1459 0.930 . S
C1454 C1452 1.353 . S
C1454 C1457 1.348 . S
C1454 H1492 0.929 . S
N1455 Li1410 1.990 . S
N1455 C1452 1.314 . S
N1455 C1453 1.279 . S
C1456 C1453 1.358 . S
C1456 C1457 1.356 . S
C1456 H1493 0.930 . S
C1457 C1454 1.348 . S
C1457 C1456 1.356 . S
H1458 C1452 0.930 . S
H1459 C1453 0.930 . S
C1460 N1461 1.314 . S
C1460 C1462 1.353 . S
C1460 H1466 0.930 . S
N1461 Li1411 1.990 . S
N1461 C1460 1.314 . S
N1461 C1464 1.279 . S
C1462 C1460 1.353 . S
C1462 C1465 1.348 . S
C1462 H1494 0.929 . S
C1463 C1464 1.358 . S
C1463 C1465 1.356 . S
C1463 H1495 0.930 . S
C1464 N1461 1.279 . S
C1464 C1463 1.358 . S
C1464 H1467 0.930 . S
C1465 C1462 1.348 . S
C1465 C1463 1.356 . S
H1466 C1460 0.930 . S
H1467 C1464 0.930 . S
O1468 Li1408 1.956 . S
O1468 Li1409 1.970 . S
O1468 Li1410 1.961 . S
O1468 C1412 1.325 . S
O1469 Li1408 1.970 . S
O1469 Li1409 1.956 . S
O1469 Li1411 1.961 . S
O1469 C1418 1.325 . S
O1470 Li1408 1.961 . S
O1470 Li1410 1.956 . S
O1470 Li1411 1.970 . S
O1470 C1440 1.325 . S
O1471 Li1409 1.961 . S
O1471 Li1410 1.970 . S
O1471 Li1411 1.956 . S
O1471 C1446 1.325 . S
H1472 C1414 0.929 . S
H1473 C1415 0.930 . S
H1474 C1416 0.930 . S
H1475 C1417 0.930 . S
H1476 C1419 0.930 . S
H1477 C1421 0.929 . S
H1478 C1422 0.930 . S
H1479 C1423 0.930 . S
H1480 C1426 0.930 . S
H1481 C1429 0.929 . S
H1482 C1434 0.929 . S
H1483 C1435 0.930 . S
H1484 C1442 0.929 . S
H1485 C1443 0.930 . S
H1486 C1444 0.930 . S
H1487 C1445 0.930 . S
H1488 C1447 0.929 . S
H1489 C1448 0.930 . S
H1490 C1449 0.930 . S
H1491 C1450 0.930 . S
H1492 C1454 0.929 . S
H1493 C1456 0.930 . S
H1494 C1462 0.929 . S
H1495 C1463 0.930 . S
Li1496 N1513 1.990 . S
Li1496 O1556 1.956 . S
Li1496 O1557 1.970 . S
Li1496 O1558 1.961 . S
Li1497 N1521 1.990 . S
Li1497 O1556 1.970 . S
Li1497 O1557 1.956 . S
Li1497 O1559 1.961 . S
Li1498 N1543 1.990 . S
Li1498 O1556 1.961 . S
Li1498 O1558 1.956 . S
Li1498 O1559 1.970 . S
Li1499 N1549 1.990 . S
Li1499 O1557 1.961 . S
Li1499 O1558 1.970 . S
Li1499 O1559 1.956 . S
C1500 C1502 1.348 . S
C1500 C1503 1.356 . S
C1500 O1556 1.325 . S
N1501 C1504 1.314 . S
N1501 C1505 1.279 . S
C1502 C1500 1.348 . S
C1502 C1504 1.353 . S
C1502 H1560 0.929 . S
C1503 C1500 1.356 . S
C1503 C1505 1.358 . S
C1503 H1561 0.930 . S
C1504 N1501 1.314 . S
C1504 C1502 1.353 . S
C1504 H1562 0.930 . S
C1505 N1501 1.279 . S
C1505 C1503 1.358 . S
C1505 H1563 0.930 . S
C1506 C1509 1.348 . S
C1506 C1510 1.356 . S
C1506 O1557 1.325 . S
C1507 N1508 1.279 . S
C1507 C1510 1.358 . S
C1507 H1564 0.930 . S
N1508 C1507 1.279 . S
N1508 C1511 1.314 . S
C1509 C1506 1.348 . S
C1509 C1511 1.353 . S
C1509 H1565 0.929 . S
C1510 C1506 1.356 . S
C1510 C1507 1.358 . S
C1510 H1566 0.930 . S
C1511 N1508 1.314 . S
C1511 C1509 1.353 . S
C1511 H1567 0.930 . S
C1512 N1513 1.314 . S
C1512 C1517 1.353 . S
C1512 H1518 0.930 . S
N1513 Li1496 1.990 . S
N1513 C1512 1.314 . S
N1513 C1515 1.279 . S
C1514 C1515 1.358 . S
C1514 C1516 1.356 . S
C1514 H1568 0.930 . S
C1515 N1513 1.279 . S
C1515 C1514 1.358 . S
C1515 H1519 0.930 . S
C1516 C1514 1.356 . S
C1516 C1517 1.348 . S
C1517 C1512 1.353 . S
C1517 C1516 1.348 . S
C1517 H1569 0.929 . S
H1518 C1512 0.930 . S
H1519 C1515 0.930 . S
C1520 N1521 1.314 . S
C1520 C1522 1.353 . S
C1520 H1526 0.930 . S
N1521 Li1497 1.990 . S
N1521 C1520 1.314 . S
N1521 C1524 1.279 . S
C1522 C1520 1.353 . S
C1522 C1525 1.348 . S
C1522 H1570 0.929 . S
C1523 C1524 1.358 . S
C1523 C1525 1.356 . S
C1523 H1571 0.930 . S
C1524 N1521 1.279 . S
C1524 C1523 1.358 . S
C1524 H1527 0.930 . S
C1525 C1522 1.348 . S
C1525 C1523 1.356 . S
H1526 C1520 0.930 . S
H1527 C1524 0.930 . S
C1528 C1530 1.348 . S
C1528 C1531 1.356 . S
C1528 O1558 1.325 . S
N1529 C1532 1.314 . S
N1529 C1533 1.279 . S
C1530 C1528 1.348 . S
C1530 C1532 1.353 . S
C1530 H1572 0.929 . S
C1531 C1528 1.356 . S
C1531 C1533 1.358 . S
C1531 H1573 0.930 . S
C1532 N1529 1.314 . S
C1532 C1530 1.353 . S
C1532 H1574 0.930 . S
C1533 N1529 1.279 . S
C1533 C1531 1.358 . S
C1533 H1575 0.930 . S
C1534 C1535 1.348 . S
C1534 C1536 1.356 . S
C1534 O1559 1.325 . S
C1535 C1534 1.348 . S
C1535 C1537 1.353 . S
C1535 H1576 0.929 . S
C1536 C1534 1.356 . S
C1536 C1538 1.358 . S
C1536 H1577 0.930 . S
C1537 C1535 1.353 . S
C1537 N1539 1.314 . S
C1537 H1578 0.930 . S
C1538 C1536 1.358 . S
C1538 N1539 1.279 . S
C1538 H1579 0.930 . S
N1539 C1537 1.314 . S
N1539 C1538 1.279 . S
C1540 C1542 1.353 . S
C1540 N1543 1.314 . S
C1540 H1546 0.930 . S
C1541 N1543 1.279 . S
C1541 C1544 1.358 . S
C1541 H1547 0.930 . S
C1542 C1540 1.353 . S
C1542 C1545 1.348 . S
C1542 H1580 0.929 . S
N1543 Li1498 1.990 . S
N1543 C1540 1.314 . S
N1543 C1541 1.279 . S
C1544 C1541 1.358 . S
C1544 C1545 1.356 . S
C1544 H1581 0.930 . S
C1545 C1542 1.348 . S
C1545 C1544 1.356 . S
H1546 C1540 0.930 . S
H1547 C1541 0.930 . S
C1548 N1549 1.314 . S
C1548 C1550 1.353 . S
C1548 H1554 0.930 . S
N1549 Li1499 1.990 . S
N1549 C1548 1.314 . S
N1549 C1552 1.279 . S
C1550 C1548 1.353 . S
C1550 C1553 1.348 . S
C1550 H1582 0.929 . S
C1551 C1552 1.358 . S
C1551 C1553 1.356 . S
C1551 H1583 0.930 . S
C1552 N1549 1.279 . S
C1552 C1551 1.358 . S
C1552 H1555 0.930 . S
C1553 C1550 1.348 . S
C1553 C1551 1.356 . S
H1554 C1548 0.930 . S
H1555 C1552 0.930 . S
O1556 Li1496 1.956 . S
O1556 Li1497 1.970 . S
O1556 Li1498 1.961 . S
O1556 C1500 1.325 . S
O1557 Li1496 1.970 . S
O1557 Li1497 1.956 . S
O1557 Li1499 1.961 . S
O1557 C1506 1.325 . S
O1558 Li1496 1.961 . S
O1558 Li1498 1.956 . S
O1558 Li1499 1.970 . S
O1558 C1528 1.325 . S
O1559 Li1497 1.961 . S
O1559 Li1498 1.970 . S
O1559 Li1499 1.956 . S
O1559 C1534 1.325 . S
H1560 C1502 0.929 . S
H1561 C1503 0.930 . S
H1562 C1504 0.930 . S
H1563 C1505 0.930 . S
H1564 C1507 0.930 . S
H1565 C1509 0.929 . S
H1566 C1510 0.930 . S
H1567 C1511 0.930 . S
H1568 C1514 0.930 . S
H1569 C1517 0.929 . S
H1570 C1522 0.929 . S
H1571 C1523 0.930 . S
H1572 C1530 0.929 . S
H1573 C1531 0.930 . S
H1574 C1532 0.930 . S
H1575 C1533 0.930 . S
H1576 C1535 0.929 . S
H1577 C1536 0.930 . S
H1578 C1537 0.930 . S
H1579 C1538 0.930 . S
H1580 C1542 0.929 . S
H1581 C1544 0.930 . S
H1582 C1550 0.929 . S
H1583 C1551 0.930 . S
Li1584 N1601 1.990 . S
Li1584 O1644 1.956 . S
Li1584 O1645 1.970 . S
Li1584 O1646 1.961 . S
Li1585 N1609 1.990 . S
Li1585 O1644 1.970 . S
Li1585 O1645 1.956 . S
Li1585 O1647 1.961 . S
Li1586 N1631 1.990 . S
Li1586 O1644 1.961 . S
Li1586 O1646 1.956 . S
Li1586 O1647 1.970 . S
Li1587 N1637 1.990 . S
Li1587 O1645 1.961 . S
Li1587 O1646 1.970 . S
Li1587 O1647 1.956 . S
C1588 C1590 1.348 . S
C1588 C1591 1.356 . S
C1588 O1644 1.325 . S
N1589 C1592 1.314 . S
N1589 C1593 1.279 . S
C1590 C1588 1.348 . S
C1590 C1592 1.353 . S
C1590 H1648 0.929 . S
C1591 C1588 1.356 . S
C1591 C1593 1.358 . S
C1591 H1649 0.930 . S
C1592 N1589 1.314 . S
C1592 C1590 1.353 . S
C1592 H1650 0.930 . S
C1593 N1589 1.279 . S
C1593 C1591 1.358 . S
C1593 H1651 0.930 . S
C1594 C1597 1.348 . S
C1594 C1598 1.356 . S
C1594 O1645 1.325 . S
C1595 N1596 1.279 . S
C1595 C1598 1.358 . S
C1595 H1652 0.930 . S
N1596 C1595 1.279 . S
N1596 C1599 1.314 . S
C1597 C1594 1.348 . S
C1597 C1599 1.353 . S
C1597 H1653 0.929 . S
C1598 C1594 1.356 . S
C1598 C1595 1.358 . S
C1598 H1654 0.930 . S
C1599 N1596 1.314 . S
C1599 C1597 1.353 . S
C1599 H1655 0.930 . S
C1600 N1601 1.314 . S
C1600 C1605 1.353 . S
C1600 H1606 0.930 . S
N1601 Li1584 1.990 . S
N1601 C1600 1.314 . S
N1601 C1603 1.279 . S
C1602 C1603 1.358 . S
C1602 C1604 1.356 . S
C1602 H1656 0.930 . S
C1603 N1601 1.279 . S
C1603 C1602 1.358 . S
C1603 H1607 0.930 . S
C1604 C1602 1.356 . S
C1604 C1605 1.348 . S
C1605 C1600 1.353 . S
C1605 C1604 1.348 . S
C1605 H1657 0.929 . S
H1606 C1600 0.930 . S
H1607 C1603 0.930 . S
C1608 N1609 1.314 . S
C1608 C1610 1.353 . S
C1608 H1614 0.930 . S
N1609 Li1585 1.990 . S
N1609 C1608 1.314 . S
N1609 C1612 1.279 . S
C1610 C1608 1.353 . S
C1610 C1613 1.348 . S
C1610 H1658 0.929 . S
C1611 C1612 1.358 . S
C1611 C1613 1.356 . S
C1611 H1659 0.930 . S
C1612 N1609 1.279 . S
C1612 C1611 1.358 . S
C1612 H1615 0.930 . S
C1613 C1610 1.348 . S
C1613 C1611 1.356 . S
H1614 C1608 0.930 . S
H1615 C1612 0.930 . S
C1616 C1618 1.348 . S
C1616 C1619 1.356 . S
C1616 O1646 1.325 . S
N1617 C1620 1.314 . S
N1617 C1621 1.279 . S
C1618 C1616 1.348 . S
C1618 C1620 1.353 . S
C1618 H1660 0.929 . S
C1619 C1616 1.356 . S
C1619 C1621 1.358 . S
C1619 H1661 0.930 . S
C1620 N1617 1.314 . S
C1620 C1618 1.353 . S
C1620 H1662 0.930 . S
C1621 N1617 1.279 . S
C1621 C1619 1.358 . S
C1621 H1663 0.930 . S
C1622 C1623 1.348 . S
C1622 C1624 1.356 . S
C1622 O1647 1.325 . S
C1623 C1622 1.348 . S
C1623 C1625 1.353 . S
C1623 H1664 0.929 . S
C1624 C1622 1.356 . S
C1624 C1626 1.358 . S
C1624 H1665 0.930 . S
C1625 C1623 1.353 . S
C1625 N1627 1.314 . S
C1625 H1666 0.930 . S
C1626 C1624 1.358 . S
C1626 N1627 1.279 . S
C1626 H1667 0.930 . S
N1627 C1625 1.314 . S
N1627 C1626 1.279 . S
C1628 C1630 1.353 . S
C1628 N1631 1.314 . S
C1628 H1634 0.930 . S
C1629 N1631 1.279 . S
C1629 C1632 1.358 . S
C1629 H1635 0.930 . S
C1630 C1628 1.353 . S
C1630 C1633 1.348 . S
C1630 H1668 0.929 . S
N1631 Li1586 1.990 . S
N1631 C1628 1.314 . S
N1631 C1629 1.279 . S
C1632 C1629 1.358 . S
C1632 C1633 1.356 . S
C1632 H1669 0.930 . S
C1633 C1630 1.348 . S
C1633 C1632 1.356 . S
H1634 C1628 0.930 . S
H1635 C1629 0.930 . S
C1636 N1637 1.314 . S
C1636 C1638 1.353 . S
C1636 H1642 0.930 . S
N1637 Li1587 1.990 . S
N1637 C1636 1.314 . S
N1637 C1640 1.279 . S
C1638 C1636 1.353 . S
C1638 C1641 1.348 . S
C1638 H1670 0.929 . S
C1639 C1640 1.358 . S
C1639 C1641 1.356 . S
C1639 H1671 0.930 . S
C1640 N1637 1.279 . S
C1640 C1639 1.358 . S
C1640 H1643 0.930 . S
C1641 C1638 1.348 . S
C1641 C1639 1.356 . S
H1642 C1636 0.930 . S
H1643 C1640 0.930 . S
O1644 Li1584 1.956 . S
O1644 Li1585 1.970 . S
O1644 Li1586 1.961 . S
O1644 C1588 1.325 . S
O1645 Li1584 1.970 . S
O1645 Li1585 1.956 . S
O1645 Li1587 1.961 . S
O1645 C1594 1.325 . S
O1646 Li1584 1.961 . S
O1646 Li1586 1.956 . S
O1646 Li1587 1.970 . S
O1646 C1616 1.325 . S
O1647 Li1585 1.961 . S
O1647 Li1586 1.970 . S
O1647 Li1587 1.956 . S
O1647 C1622 1.325 . S
H1648 C1590 0.929 . S
H1649 C1591 0.930 . S
H1650 C1592 0.930 . S
H1651 C1593 0.930 . S
H1652 C1595 0.930 . S
H1653 C1597 0.929 . S
H1654 C1598 0.930 . S
H1655 C1599 0.930 . S
H1656 C1602 0.930 . S
H1657 C1605 0.929 . S
H1658 C1610 0.929 . S
H1659 C1611 0.930 . S
H1660 C1618 0.929 . S
H1661 C1619 0.930 . S
H1662 C1620 0.930 . S
H1663 C1621 0.930 . S
H1664 C1623 0.929 . S
H1665 C1624 0.930 . S
H1666 C1625 0.930 . S
H1667 C1626 0.930 . S
H1668 C1630 0.929 . S
H1669 C1632 0.930 . S
H1670 C1638 0.929 . S
H1671 C1639 0.930 . S
Li1672 N1689 1.990 . S
Li1672 O1732 1.956 . S
Li1672 O1733 1.970 . S
Li1672 O1734 1.961 . S
Li1673 N1697 1.990 1_655 S
Li1673 O1732 1.970 . S
Li1673 O1733 1.956 . S
Li1673 O1735 1.961 . S
Li1674 N1719 1.990 . S
Li1674 O1732 1.961 . S
Li1674 O1734 1.956 . S
Li1674 O1735 1.970 . S
Li1675 N1725 1.990 . S
Li1675 O1733 1.961 . S
Li1675 O1734 1.970 . S
Li1675 O1735 1.956 . S
C1676 C1678 1.348 . S
C1676 C1679 1.356 . S
C1676 O1732 1.325 . S
N1677 C1680 1.314 1_655 S
N1677 C1681 1.279 . S
C1678 C1676 1.348 . S
C1678 C1680 1.353 1_655 S
C1678 H1736 0.930 . S
C1679 C1676 1.356 . S
C1679 C1681 1.358 . S
C1679 H1737 0.930 . S
C1680 N1677 1.314 1_455 S
C1680 C1678 1.353 1_455 S
C1680 H1738 0.930 . S
C1681 N1677 1.279 . S
C1681 C1679 1.358 . S
C1681 H1739 0.930 . S
C1682 C1685 1.348 . S
C1682 C1686 1.356 . S
C1682 O1733 1.325 . S
C1683 N1684 1.279 . S
C1683 C1686 1.358 . S
C1683 H1740 0.930 . S
N1684 C1683 1.279 . S
N1684 C1687 1.314 . S
C1685 C1682 1.348 . S
C1685 C1687 1.353 . S
C1685 H1741 0.929 . S
C1686 C1682 1.356 . S
C1686 C1683 1.358 . S
C1686 H1742 0.930 . S
C1687 N1684 1.314 . S
C1687 C1685 1.353 . S
C1687 H1743 0.930 . S
C1688 N1689 1.314 . S
C1688 C1693 1.353 . S
C1688 H1694 0.930 . S
N1689 Li1672 1.990 . S
N1689 C1688 1.314 . S
N1689 C1691 1.279 . S
C1690 C1691 1.358 . S
C1690 C1692 1.356 . S
C1690 H1744 0.930 . S
C1691 N1689 1.279 . S
C1691 C1690 1.358 . S
C1691 H1695 0.930 . S
C1692 C1690 1.356 . S
C1692 C1693 1.348 . S
C1693 C1688 1.353 . S
C1693 C1692 1.348 . S
C1693 H1745 0.929 . S
H1694 C1688 0.930 . S
H1695 C1691 0.930 . S
C1696 N1697 1.314 . S
C1696 C1698 1.353 . S
C1696 H1702 0.930 . S
N1697 Li1673 1.990 1_455 S
N1697 C1696 1.314 . S
N1697 C1700 1.279 . S
C1698 C1696 1.353 . S
C1698 C1701 1.348 . S
C1698 H1746 0.929 . S
C1699 C1700 1.358 . S
C1699 C1701 1.356 . S
C1699 H1747 0.930 . S
C1700 N1697 1.279 . S
C1700 C1699 1.358 . S
C1700 H1703 0.933 . S
C1701 C1698 1.348 . S
C1701 C1699 1.356 . S
H1702 C1696 0.930 . S
H1703 C1700 0.933 . S
C1704 C1706 1.348 . S
C1704 C1707 1.356 . S
C1704 O1734 1.325 . S
N1705 C1708 1.314 . S
N1705 C1709 1.279 . S
C1706 C1704 1.348 . S
C1706 C1708 1.353 . S
C1706 H1748 0.929 . S
C1707 C1704 1.356 . S
C1707 C1709 1.358 . S
C1707 H1749 0.930 . S
C1708 N1705 1.314 . S
C1708 C1706 1.353 . S
C1708 H1750 0.930 . S
C1709 N1705 1.279 . S
C1709 C1707 1.358 . S
C1709 H1751 0.930 . S
C1710 C1711 1.348 . S
C1710 C1712 1.356 1_655 S
C1710 O1735 1.325 . S
C1711 C1710 1.348 . S
C1711 C1713 1.353 1_655 S
C1711 H1752 0.929 . S
C1712 C1710 1.356 1_455 S
C1712 C1714 1.358 . S
C1712 H1753 0.930 . S
C1713 C1711 1.353 1_455 S
C1713 N1715 1.314 . S
C1713 H1754 0.930 . S
C1714 C1712 1.358 . S
C1714 N1715 1.279 . S
C1714 H1755 0.930 . S
N1715 C1713 1.314 . S
N1715 C1714 1.279 . S
C1716 C1718 1.353 . S
C1716 N1719 1.314 . S
C1716 H1722 0.930 . S
C1717 N1719 1.279 . S
C1717 C1720 1.358 . S
C1717 H1723 0.930 . S
C1718 C1716 1.353 . S
C1718 C1721 1.348 . S
C1718 H1756 0.929 1_655 S
N1719 Li1674 1.990 . S
N1719 C1716 1.314 . S
N1719 C1717 1.279 . S
C1720 C1717 1.358 . S
C1720 C1721 1.356 . S
C1720 H1757 0.930 . S
C1721 C1718 1.348 . S
C1721 C1720 1.356 . S
H1722 C1716 0.930 . S
H1723 C1717 0.930 . S
C1724 N1725 1.314 . S
C1724 C1726 1.353 . S
C1724 H1730 0.930 . S
N1725 Li1675 1.990 . S
N1725 C1724 1.314 . S
N1725 C1728 1.279 . S
C1726 C1724 1.353 . S
C1726 C1729 1.348 . S
C1726 H1758 0.929 . S
C1727 C1728 1.358 . S
C1727 C1729 1.356 . S
C1727 H1759 0.930 . S
C1728 N1725 1.279 . S
C1728 C1727 1.358 . S
C1728 H1731 0.930 . S
C1729 C1726 1.348 . S
C1729 C1727 1.356 . S
H1730 C1724 0.930 . S
H1731 C1728 0.930 . S
O1732 Li1672 1.956 . S
O1732 Li1673 1.970 . S
O1732 Li1674 1.961 . S
O1732 C1676 1.325 . S
O1733 Li1672 1.970 . S
O1733 Li1673 1.956 . S
O1733 Li1675 1.961 . S
O1733 C1682 1.325 . S
O1734 Li1672 1.961 . S
O1734 Li1674 1.956 . S
O1734 Li1675 1.970 . S
O1734 C1704 1.325 . S
O1735 Li1673 1.961 . S
O1735 Li1674 1.970 . S
O1735 Li1675 1.956 . S
O1735 C1710 1.325 . S
H1736 C1678 0.930 . S
H1737 C1679 0.930 . S
H1738 C1680 0.930 . S
H1739 C1681 0.930 . S
H1740 C1683 0.930 . S
H1741 C1685 0.929 . S
H1742 C1686 0.930 . S
H1743 C1687 0.930 . S
H1744 C1690 0.930 . S
H1745 C1693 0.929 . S
H1746 C1698 0.929 . S
H1747 C1699 0.930 . S
H1748 C1706 0.929 . S
H1749 C1707 0.930 . S
H1750 C1708 0.930 . S
H1751 C1709 0.930 . S
H1752 C1711 0.929 . S
H1753 C1712 0.930 . S
H1754 C1713 0.930 . S
H1755 C1714 0.930 . S
H1756 C1718 0.929 1_455 S
H1757 C1720 0.930 . S
H1758 C1726 0.929 . S
H1759 C1727 0.930 . S
Li1760 N1777 1.990 . S
Li1760 O1820 1.956 . S
Li1760 O1821 1.970 . S
Li1760 O1822 1.961 . S
Li1761 N1785 1.990 . S
Li1761 O1820 1.970 . S
Li1761 O1821 1.956 . S
Li1761 O1823 1.961 . S
Li1762 N1807 1.990 . S
Li1762 O1820 1.961 . S
Li1762 O1822 1.956 . S
Li1762 O1823 1.970 . S
Li1763 N1813 1.990 . S
Li1763 O1821 1.961 . S
Li1763 O1822 1.970 . S
Li1763 O1823 1.956 . S
C1764 C1766 1.348 . S
C1764 C1767 1.356 . S
C1764 O1820 1.325 . S
N1765 C1768 1.314 . S
N1765 C1769 1.279 . S
C1766 C1764 1.348 . S
C1766 C1768 1.353 . S
C1766 H1824 0.929 . S
C1767 C1764 1.356 . S
C1767 C1769 1.358 . S
C1767 H1825 0.930 . S
C1768 N1765 1.314 . S
C1768 C1766 1.353 . S
C1768 H1826 0.930 . S
C1769 N1765 1.279 . S
C1769 C1767 1.358 . S
C1769 H1827 0.930 . S
C1770 C1773 1.348 . S
C1770 C1774 1.356 . S
C1770 O1821 1.325 . S
C1771 N1772 1.279 . S
C1771 C1774 1.358 . S
C1771 H1828 0.930 . S
N1772 C1771 1.279 . S
N1772 C1775 1.314 . S
C1773 C1770 1.348 . S
C1773 C1775 1.353 . S
C1773 H1829 0.929 . S
C1774 C1770 1.356 . S
C1774 C1771 1.358 . S
C1774 H1830 0.930 . S
C1775 N1772 1.314 . S
C1775 C1773 1.353 . S
C1775 H1831 0.930 . S
C1776 N1777 1.314 . S
C1776 C1781 1.353 . S
C1776 H1782 0.930 . S
N1777 Li1760 1.990 . S
N1777 C1776 1.314 . S
N1777 C1779 1.279 . S
C1778 C1779 1.358 . S
C1778 C1780 1.356 . S
C1778 H1832 0.930 . S
C1779 N1777 1.279 . S
C1779 C1778 1.358 . S
C1779 H1783 0.930 . S
C1780 C1778 1.356 . S
C1780 C1781 1.348 . S
C1781 C1776 1.353 . S
C1781 C1780 1.348 . S
C1781 H1833 0.929 . S
H1782 C1776 0.930 . S
H1783 C1779 0.930 . S
C1784 N1785 1.314 . S
C1784 C1786 1.353 . S
C1784 H1790 0.930 . S
N1785 Li1761 1.990 . S
N1785 C1784 1.314 . S
N1785 C1788 1.279 . S
C1786 C1784 1.353 . S
C1786 C1789 1.348 . S
C1786 H1834 0.929 . S
C1787 C1788 1.358 . S
C1787 C1789 1.356 . S
C1787 H1835 0.930 . S
C1788 N1785 1.279 . S
C1788 C1787 1.358 . S
C1788 H1791 0.930 . S
C1789 C1786 1.348 . S
C1789 C1787 1.356 . S
H1790 C1784 0.930 . S
H1791 C1788 0.930 . S
C1792 C1794 1.348 . S
C1792 C1795 1.356 . S
C1792 O1822 1.325 . S
N1793 C1796 1.314 . S
N1793 C1797 1.279 . S
C1794 C1792 1.348 . S
C1794 C1796 1.353 . S
C1794 H1836 0.929 . S
C1795 C1792 1.356 . S
C1795 C1797 1.358 . S
C1795 H1837 0.930 . S
C1796 N1793 1.314 . S
C1796 C1794 1.353 . S
C1796 H1838 0.930 . S
C1797 N1793 1.279 . S
C1797 C1795 1.358 . S
C1797 H1839 0.930 . S
C1798 C1799 1.348 . S
C1798 C1800 1.356 . S
C1798 O1823 1.325 . S
C1799 C1798 1.348 . S
C1799 C1801 1.353 . S
C1799 H1840 0.929 . S
C1800 C1798 1.356 . S
C1800 C1802 1.358 . S
C1800 H1841 0.930 . S
C1801 C1799 1.353 . S
C1801 N1803 1.314 . S
C1801 H1842 0.930 . S
C1802 C1800 1.358 . S
C1802 N1803 1.279 . S
C1802 H1843 0.930 . S
N1803 C1801 1.314 . S
N1803 C1802 1.279 . S
C1804 C1806 1.353 . S
C1804 N1807 1.314 . S
C1804 H1810 0.930 . S
C1805 N1807 1.279 . S
C1805 C1808 1.358 . S
C1805 H1811 0.930 . S
C1806 C1804 1.353 . S
C1806 C1809 1.348 . S
C1806 H1844 0.929 . S
N1807 Li1762 1.990 . S
N1807 C1804 1.314 . S
N1807 C1805 1.279 . S
C1808 C1805 1.358 . S
C1808 C1809 1.356 . S
C1808 H1845 0.930 . S
C1809 C1806 1.348 . S
C1809 C1808 1.356 . S
H1810 C1804 0.930 . S
H1811 C1805 0.930 . S
C1812 N1813 1.314 . S
C1812 C1814 1.353 . S
C1812 H1818 0.930 . S
N1813 Li1763 1.990 . S
N1813 C1812 1.314 . S
N1813 C1816 1.279 . S
C1814 C1812 1.353 . S
C1814 C1817 1.348 . S
C1814 H1846 0.929 . S
C1815 C1816 1.358 . S
C1815 C1817 1.356 . S
C1815 H1847 0.930 . S
C1816 N1813 1.279 . S
C1816 C1815 1.358 . S
C1816 H1819 0.930 . S
C1817 C1814 1.348 . S
C1817 C1815 1.356 . S
H1818 C1812 0.930 . S
H1819 C1816 0.930 . S
O1820 Li1760 1.956 . S
O1820 Li1761 1.970 . S
O1820 Li1762 1.961 . S
O1820 C1764 1.325 . S
O1821 Li1760 1.970 . S
O1821 Li1761 1.956 . S
O1821 Li1763 1.961 . S
O1821 C1770 1.325 . S
O1822 Li1760 1.961 . S
O1822 Li1762 1.956 . S
O1822 Li1763 1.970 . S
O1822 C1792 1.325 . S
O1823 Li1761 1.961 . S
O1823 Li1762 1.970 . S
O1823 Li1763 1.956 . S
O1823 C1798 1.325 . S
H1824 C1766 0.929 . S
H1825 C1767 0.930 . S
H1826 C1768 0.930 . S
H1827 C1769 0.930 . S
H1828 C1771 0.930 . S
H1829 C1773 0.929 . S
H1830 C1774 0.930 . S
H1831 C1775 0.930 . S
H1832 C1778 0.930 . S
H1833 C1781 0.929 . S
H1834 C1786 0.929 . S
H1835 C1787 0.930 . S
H1836 C1794 0.929 . S
H1837 C1795 0.930 . S
H1838 C1796 0.930 . S
H1839 C1797 0.930 . S
H1840 C1799 0.929 . S
H1841 C1800 0.930 . S
H1842 C1801 0.930 . S
H1843 C1802 0.930 . S
H1844 C1806 0.929 . S
H1845 C1808 0.930 . S
H1846 C1814 0.929 . S
H1847 C1815 0.930 . S
Li1848 N1865 1.990 . S
Li1848 O1908 1.956 . S
Li1848 O1909 1.970 . S
Li1848 O1910 1.961 . S
Li1849 N1873 1.990 . S
Li1849 O1908 1.970 . S
Li1849 O1909 1.956 . S
Li1849 O1911 1.961 . S
Li1850 N1895 1.990 . S
Li1850 O1908 1.961 . S
Li1850 O1910 1.956 . S
Li1850 O1911 1.970 . S
Li1851 N1901 1.990 1_655 S
Li1851 O1909 1.961 . S
Li1851 O1910 1.970 . S
Li1851 O1911 1.956 . S
C1852 C1854 1.348 . S
C1852 C1855 1.356 . S
C1852 O1908 1.325 . S
N1853 C1856 1.314 . S
N1853 C1857 1.279 . S
C1854 C1852 1.348 . S
C1854 C1856 1.353 . S
C1854 H1912 0.929 . S
C1855 C1852 1.356 . S
C1855 C1857 1.358 . S
C1855 H1913 0.930 . S
C1856 N1853 1.314 . S
C1856 C1854 1.353 . S
C1856 H1914 0.930 . S
C1857 N1853 1.279 . S
C1857 C1855 1.358 . S
C1857 H1915 0.930 . S
C1858 C1861 1.348 . S
C1858 C1862 1.356 1_655 S
C1858 O1909 1.325 . S
C1859 N1860 1.279 . S
C1859 C1862 1.358 . S
C1859 H1916 0.930 . S
N1860 C1859 1.279 . S
N1860 C1863 1.314 . S
C1861 C1858 1.348 . S
C1861 C1863 1.353 1_655 S
C1861 H1917 0.929 . S
C1862 C1858 1.356 1_455 S
C1862 C1859 1.358 . S
C1862 H1918 0.930 . S
C1863 N1860 1.314 . S
C1863 C1861 1.353 1_455 S
C1863 H1919 0.930 . S
C1864 N1865 1.314 . S
C1864 C1869 1.353 . S
C1864 H1870 0.930 . S
N1865 Li1848 1.990 . S
N1865 C1864 1.314 . S
N1865 C1867 1.279 . S
C1866 C1867 1.358 . S
C1866 C1868 1.356 . S
C1866 H1920 0.930 . S
C1867 N1865 1.279 . S
C1867 C1866 1.358 . S
C1867 H1871 0.930 . S
C1868 C1866 1.356 . S
C1868 C1869 1.348 . S
C1869 C1864 1.353 . S
C1869 C1868 1.348 . S
C1869 H1921 0.929 1_655 S
H1870 C1864 0.930 . S
H1871 C1867 0.930 . S
C1872 N1873 1.314 . S
C1872 C1874 1.353 . S
C1872 H1878 0.930 . S
N1873 Li1849 1.990 . S
N1873 C1872 1.314 . S
N1873 C1876 1.279 . S
C1874 C1872 1.353 . S
C1874 C1877 1.348 . S
C1874 H1922 0.929 . S
C1875 C1876 1.358 . S
C1875 C1877 1.356 . S
C1875 H1923 0.930 . S
C1876 N1873 1.279 . S
C1876 C1875 1.358 . S
C1876 H1879 0.930 . S
C1877 C1874 1.348 . S
C1877 C1875 1.356 . S
H1878 C1872 0.930 . S
H1879 C1876 0.930 . S
C1880 C1882 1.348 . S
C1880 C1883 1.356 . S
C1880 O1910 1.325 . S
N1881 C1884 1.314 1_655 S
N1881 C1885 1.279 . S
C1882 C1880 1.348 . S
C1882 C1884 1.353 1_655 S
C1882 H1924 0.930 . S
C1883 C1880 1.356 . S
C1883 C1885 1.358 . S
C1883 H1925 0.930 . S
C1884 N1881 1.314 1_455 S
C1884 C1882 1.353 1_455 S
C1884 H1926 0.930 . S
C1885 N1881 1.279 . S
C1885 C1883 1.358 . S
C1885 H1927 0.930 . S
C1886 C1887 1.348 . S
C1886 C1888 1.356 . S
C1886 O1911 1.325 . S
C1887 C1886 1.348 . S
C1887 C1889 1.353 . S
C1887 H1928 0.929 . S
C1888 C1886 1.356 . S
C1888 C1890 1.358 . S
C1888 H1929 0.930 . S
C1889 C1887 1.353 . S
C1889 N1891 1.314 . S
C1889 H1930 0.930 . S
C1890 C1888 1.358 . S
C1890 N1891 1.279 . S
C1890 H1931 0.930 . S
N1891 C1889 1.314 . S
N1891 C1890 1.279 . S
C1892 C1894 1.353 . S
C1892 N1895 1.314 . S
C1892 H1898 0.930 . S
C1893 N1895 1.279 . S
C1893 C1896 1.358 . S
C1893 H1899 0.930 . S
C1894 C1892 1.353 . S
C1894 C1897 1.348 . S
C1894 H1932 0.929 . S
N1895 Li1850 1.990 . S
N1895 C1892 1.314 . S
N1895 C1893 1.279 . S
C1896 C1893 1.358 . S
C1896 C1897 1.356 . S
C1896 H1933 0.930 . S
C1897 C1894 1.348 . S
C1897 C1896 1.356 . S
H1898 C1892 0.930 . S
H1899 C1893 0.930 . S
C1900 N1901 1.314 . S
C1900 C1902 1.353 . S
C1900 H1906 0.930 . S
N1901 Li1851 1.990 1_455 S
N1901 C1900 1.314 . S
N1901 C1904 1.279 . S
C1902 C1900 1.353 . S
C1902 C1905 1.348 . S
C1902 H1934 0.929 . S
C1903 C1904 1.358 . S
C1903 C1905 1.356 . S
C1903 H1935 0.930 . S
C1904 N1901 1.279 . S
C1904 C1903 1.358 . S
C1904 H1907 0.933 . S
C1905 C1902 1.348 . S
C1905 C1903 1.356 . S
H1906 C1900 0.930 . S
H1907 C1904 0.933 . S
O1908 Li1848 1.956 . S
O1908 Li1849 1.970 . S
O1908 Li1850 1.961 . S
O1908 C1852 1.325 . S
O1909 Li1848 1.970 . S
O1909 Li1849 1.956 . S
O1909 Li1851 1.961 . S
O1909 C1858 1.325 . S
O1910 Li1848 1.961 . S
O1910 Li1850 1.956 . S
O1910 Li1851 1.970 . S
O1910 C1880 1.325 . S
O1911 Li1849 1.961 . S
O1911 Li1850 1.970 . S
O1911 Li1851 1.956 . S
O1911 C1886 1.325 . S
H1912 C1854 0.929 . S
H1913 C1855 0.930 . S
H1914 C1856 0.930 . S
H1915 C1857 0.930 . S
H1916 C1859 0.930 . S
H1917 C1861 0.929 . S
H1918 C1862 0.930 . S
H1919 C1863 0.930 . S
H1920 C1866 0.930 . S
H1921 C1869 0.929 1_455 S
H1922 C1874 0.929 . S
H1923 C1875 0.930 . S
H1924 C1882 0.930 . S
H1925 C1883 0.930 . S
H1926 C1884 0.930 . S
H1927 C1885 0.930 . S
H1928 C1887 0.929 . S
H1929 C1888 0.930 . S
H1930 C1889 0.930 . S
H1931 C1890 0.930 . S
H1932 C1894 0.929 . S
H1933 C1896 0.930 . S
H1934 C1902 0.929 . S
H1935 C1903 0.930 . S
Li1936 N1953 1.990 . S
Li1936 O1996 1.956 . S
Li1936 O1997 1.970 . S
Li1936 O1998 1.961 . S
Li1937 N1961 1.990 . S
Li1937 O1996 1.970 . S
Li1937 O1997 1.956 . S
Li1937 O1999 1.961 . S
Li1938 N1983 1.990 . S
Li1938 O1996 1.961 . S
Li1938 O1998 1.956 . S
Li1938 O1999 1.970 . S
Li1939 N1989 1.990 . S
Li1939 O1997 1.961 . S
Li1939 O1998 1.970 . S
Li1939 O1999 1.956 . S
C1940 C1942 1.348 . S
C1940 C1943 1.356 . S
C1940 O1996 1.325 . S
N1941 C1944 1.314 . S
N1941 C1945 1.279 . S
C1942 C1940 1.348 . S
C1942 C1944 1.353 . S
C1942 H2000 0.929 . S
C1943 C1940 1.356 . S
C1943 C1945 1.358 . S
C1943 H2001 0.930 . S
C1944 N1941 1.314 . S
C1944 C1942 1.353 . S
C1944 H2002 0.930 . S
C1945 N1941 1.279 . S
C1945 C1943 1.358 . S
C1945 H2003 0.930 . S
C1946 C1949 1.348 . S
C1946 C1950 1.356 . S
C1946 O1997 1.325 . S
C1947 N1948 1.279 . S
C1947 C1950 1.358 . S
C1947 H2004 0.930 . S
N1948 C1947 1.279 . S
N1948 C1951 1.314 . S
C1949 C1946 1.348 . S
C1949 C1951 1.353 . S
C1949 H2005 0.929 . S
C1950 C1946 1.356 . S
C1950 C1947 1.358 . S
C1950 H2006 0.930 . S
C1951 N1948 1.314 . S
C1951 C1949 1.353 . S
C1951 H2007 0.930 . S
C1952 N1953 1.314 . S
C1952 C1957 1.353 . S
C1952 H1958 0.930 . S
N1953 Li1936 1.990 . S
N1953 C1952 1.314 . S
N1953 C1955 1.279 . S
C1954 C1955 1.358 . S
C1954 C1956 1.356 . S
C1954 H2008 0.930 . S
C1955 N1953 1.279 . S
C1955 C1954 1.358 . S
C1955 H1959 0.930 . S
C1956 C1954 1.356 . S
C1956 C1957 1.348 . S
C1957 C1952 1.353 . S
C1957 C1956 1.348 . S
C1957 H2009 0.929 . S
H1958 C1952 0.930 . S
H1959 C1955 0.930 . S
C1960 N1961 1.314 . S
C1960 C1962 1.353 . S
C1960 H1966 0.930 . S
N1961 Li1937 1.990 . S
N1961 C1960 1.314 . S
N1961 C1964 1.279 . S
C1962 C1960 1.353 . S
C1962 C1965 1.348 . S
C1962 H2010 0.929 . S
C1963 C1964 1.358 . S
C1963 C1965 1.356 . S
C1963 H2011 0.930 . S
C1964 N1961 1.279 . S
C1964 C1963 1.358 . S
C1964 H1967 0.930 . S
C1965 C1962 1.348 . S
C1965 C1963 1.356 . S
H1966 C1960 0.930 . S
H1967 C1964 0.930 . S
C1968 C1970 1.348 . S
C1968 C1971 1.356 . S
C1968 O1998 1.325 . S
N1969 C1972 1.314 . S
N1969 C1973 1.279 . S
C1970 C1968 1.348 . S
C1970 C1972 1.353 . S
C1970 H2012 0.929 . S
C1971 C1968 1.356 . S
C1971 C1973 1.358 . S
C1971 H2013 0.930 . S
C1972 N1969 1.314 . S
C1972 C1970 1.353 . S
C1972 H2014 0.930 . S
C1973 N1969 1.279 . S
C1973 C1971 1.358 . S
C1973 H2015 0.930 . S
C1974 C1975 1.348 . S
C1974 C1976 1.356 . S
C1974 O1999 1.325 . S
C1975 C1974 1.348 . S
C1975 C1977 1.353 . S
C1975 H2016 0.929 . S
C1976 C1974 1.356 . S
C1976 C1978 1.358 . S
C1976 H2017 0.930 . S
C1977 C1975 1.353 . S
C1977 N1979 1.314 . S
C1977 H2018 0.930 . S
C1978 C1976 1.358 . S
C1978 N1979 1.279 . S
C1978 H2019 0.930 . S
N1979 C1977 1.314 . S
N1979 C1978 1.279 . S
C1980 C1982 1.353 . S
C1980 N1983 1.314 . S
C1980 H1986 0.930 . S
C1981 N1983 1.279 . S
C1981 C1984 1.358 . S
C1981 H1987 0.930 . S
C1982 C1980 1.353 . S
C1982 C1985 1.348 . S
C1982 H2020 0.929 . S
N1983 Li1938 1.990 . S
N1983 C1980 1.314 . S
N1983 C1981 1.279 . S
C1984 C1981 1.358 . S
C1984 C1985 1.356 . S
C1984 H2021 0.930 . S
C1985 C1982 1.348 . S
C1985 C1984 1.356 . S
H1986 C1980 0.930 . S
H1987 C1981 0.930 . S
C1988 N1989 1.314 . S
C1988 C1990 1.353 . S
C1988 H1994 0.930 . S
N1989 Li1939 1.990 . S
N1989 C1988 1.314 . S
N1989 C1992 1.279 . S
C1990 C1988 1.353 . S
C1990 C1993 1.348 . S
C1990 H2022 0.929 . S
C1991 C1992 1.358 . S
C1991 C1993 1.356 . S
C1991 H2023 0.930 . S
C1992 N1989 1.279 . S
C1992 C1991 1.358 . S
C1992 H1995 0.930 . S
C1993 C1990 1.348 . S
C1993 C1991 1.356 . S
H1994 C1988 0.930 . S
H1995 C1992 0.930 . S
O1996 Li1936 1.956 . S
O1996 Li1937 1.970 . S
O1996 Li1938 1.961 . S
O1996 C1940 1.325 . S
O1997 Li1936 1.970 . S
O1997 Li1937 1.956 . S
O1997 Li1939 1.961 . S
O1997 C1946 1.325 . S
O1998 Li1936 1.961 . S
O1998 Li1938 1.956 . S
O1998 Li1939 1.970 . S
O1998 C1968 1.325 . S
O1999 Li1937 1.961 . S
O1999 Li1938 1.970 . S
O1999 Li1939 1.956 . S
O1999 C1974 1.325 . S
H2000 C1942 0.929 . S
H2001 C1943 0.930 . S
H2002 C1944 0.930 . S
H2003 C1945 0.930 . S
H2004 C1947 0.930 . S
H2005 C1949 0.929 . S
H2006 C1950 0.930 . S
H2007 C1951 0.930 . S
H2008 C1954 0.930 . S
H2009 C1957 0.929 . S
H2010 C1962 0.929 . S
H2011 C1963 0.930 . S
H2012 C1970 0.929 . S
H2013 C1971 0.930 . S
H2014 C1972 0.930 . S
H2015 C1973 0.930 . S
H2016 C1975 0.929 . S
H2017 C1976 0.930 . S
H2018 C1977 0.930 . S
H2019 C1978 0.930 . S
H2020 C1982 0.929 . S
H2021 C1984 0.930 . S
H2022 C1990 0.929 . S
H2023 C1991 0.930 . S
Li2024 N2041 1.990 . S
Li2024 O2084 1.956 . S
Li2024 O2085 1.970 . S
Li2024 O2086 1.961 . S
Li2025 N2049 1.990 . S
Li2025 O2084 1.970 . S
Li2025 O2085 1.956 . S
Li2025 O2087 1.961 . S
Li2026 N2071 1.990 . S
Li2026 O2084 1.961 . S
Li2026 O2086 1.956 . S
Li2026 O2087 1.970 . S
Li2027 N2077 1.990 . S
Li2027 O2085 1.961 . S
Li2027 O2086 1.970 . S
Li2027 O2087 1.956 . S
C2028 C2030 1.348 . S
C2028 C2031 1.356 . S
C2028 O2084 1.325 . S
N2029 C2032 1.314 . S
N2029 C2033 1.279 . S
C2030 C2028 1.348 . S
C2030 C2032 1.353 . S
C2030 H2088 0.929 . S
C2031 C2028 1.356 . S
C2031 C2033 1.358 . S
C2031 H2089 0.930 . S
C2032 N2029 1.314 . S
C2032 C2030 1.353 . S
C2032 H2090 0.930 . S
C2033 N2029 1.279 . S
C2033 C2031 1.358 . S
C2033 H2091 0.930 . S
C2034 C2037 1.348 . S
C2034 C2038 1.356 . S
C2034 O2085 1.325 . S
C2035 N2036 1.279 . S
C2035 C2038 1.358 . S
C2035 H2092 0.930 . S
N2036 C2035 1.279 . S
N2036 C2039 1.314 . S
C2037 C2034 1.348 . S
C2037 C2039 1.353 . S
C2037 H2093 0.929 . S
C2038 C2034 1.356 . S
C2038 C2035 1.358 . S
C2038 H2094 0.930 . S
C2039 N2036 1.314 . S
C2039 C2037 1.353 . S
C2039 H2095 0.930 . S
C2040 N2041 1.314 . S
C2040 C2045 1.353 . S
C2040 H2046 0.930 . S
N2041 Li2024 1.990 . S
N2041 C2040 1.314 . S
N2041 C2043 1.279 . S
C2042 C2043 1.358 . S
C2042 C2044 1.356 . S
C2042 H2096 0.930 . S
C2043 N2041 1.279 . S
C2043 C2042 1.358 . S
C2043 H2047 0.930 . S
C2044 C2042 1.356 . S
C2044 C2045 1.348 . S
C2045 C2040 1.353 . S
C2045 C2044 1.348 . S
C2045 H2097 0.929 . S
H2046 C2040 0.930 . S
H2047 C2043 0.930 . S
C2048 N2049 1.314 . S
C2048 C2050 1.353 . S
C2048 H2054 0.930 . S
N2049 Li2025 1.990 . S
N2049 C2048 1.314 . S
N2049 C2052 1.279 . S
C2050 C2048 1.353 . S
C2050 C2053 1.348 . S
C2050 H2098 0.929 . S
C2051 C2052 1.358 . S
C2051 C2053 1.356 . S
C2051 H2099 0.930 . S
C2052 N2049 1.279 . S
C2052 C2051 1.358 . S
C2052 H2055 0.930 . S
C2053 C2050 1.348 . S
C2053 C2051 1.356 . S
H2054 C2048 0.930 . S
H2055 C2052 0.930 . S
C2056 C2058 1.348 . S
C2056 C2059 1.356 . S
C2056 O2086 1.325 . S
N2057 C2060 1.314 . S
N2057 C2061 1.279 . S
C2058 C2056 1.348 . S
C2058 C2060 1.353 . S
C2058 H2100 0.929 . S
C2059 C2056 1.356 . S
C2059 C2061 1.358 . S
C2059 H2101 0.930 . S
C2060 N2057 1.314 . S
C2060 C2058 1.353 . S
C2060 H2102 0.930 . S
C2061 N2057 1.279 . S
C2061 C2059 1.358 . S
C2061 H2103 0.930 . S
C2062 C2063 1.348 . S
C2062 C2064 1.356 . S
C2062 O2087 1.325 . S
C2063 C2062 1.348 . S
C2063 C2065 1.353 . S
C2063 H2104 0.929 . S
C2064 C2062 1.356 . S
C2064 C2066 1.358 . S
C2064 H2105 0.930 . S
C2065 C2063 1.353 . S
C2065 N2067 1.314 . S
C2065 H2106 0.930 . S
C2066 C2064 1.358 . S
C2066 N2067 1.279 . S
C2066 H2107 0.930 . S
N2067 C2065 1.314 . S
N2067 C2066 1.279 . S
C2068 C2070 1.353 . S
C2068 N2071 1.314 . S
C2068 H2074 0.930 . S
C2069 N2071 1.279 . S
C2069 C2072 1.358 . S
C2069 H2075 0.930 . S
C2070 C2068 1.353 . S
C2070 C2073 1.348 . S
C2070 H2108 0.929 . S
N2071 Li2026 1.990 . S
N2071 C2068 1.314 . S
N2071 C2069 1.279 . S
C2072 C2069 1.358 . S
C2072 C2073 1.356 . S
C2072 H2109 0.930 . S
C2073 C2070 1.348 . S
C2073 C2072 1.356 . S
H2074 C2068 0.930 . S
H2075 C2069 0.930 . S
C2076 N2077 1.314 . S
C2076 C2078 1.353 . S
C2076 H2082 0.930 . S
N2077 Li2027 1.990 . S
N2077 C2076 1.314 . S
N2077 C2080 1.279 . S
C2078 C2076 1.353 . S
C2078 C2081 1.348 . S
C2078 H2110 0.929 . S
C2079 C2080 1.358 . S
C2079 C2081 1.356 . S
C2079 H2111 0.930 . S
C2080 N2077 1.279 . S
C2080 C2079 1.358 . S
C2080 H2083 0.930 . S
C2081 C2078 1.348 . S
C2081 C2079 1.356 . S
H2082 C2076 0.930 . S
H2083 C2080 0.930 . S
O2084 Li2024 1.956 . S
O2084 Li2025 1.970 . S
O2084 Li2026 1.961 . S
O2084 C2028 1.325 . S
O2085 Li2024 1.970 . S
O2085 Li2025 1.956 . S
O2085 Li2027 1.961 . S
O2085 C2034 1.325 . S
O2086 Li2024 1.961 . S
O2086 Li2026 1.956 . S
O2086 Li2027 1.970 . S
O2086 C2056 1.325 . S
O2087 Li2025 1.961 . S
O2087 Li2026 1.970 . S
O2087 Li2027 1.956 . S
O2087 C2062 1.325 . S
H2088 C2030 0.929 . S
H2089 C2031 0.930 . S
H2090 C2032 0.930 . S
H2091 C2033 0.930 . S
H2092 C2035 0.930 . S
H2093 C2037 0.929 . S
H2094 C2038 0.930 . S
H2095 C2039 0.930 . S
H2096 C2042 0.930 . S
H2097 C2045 0.929 . S
H2098 C2050 0.929 . S
H2099 C2051 0.930 . S
H2100 C2058 0.929 . S
H2101 C2059 0.930 . S
H2102 C2060 0.930 . S
H2103 C2061 0.930 . S
H2104 C2063 0.929 . S
H2105 C2064 0.930 . S
H2106 C2065 0.930 . S
H2107 C2066 0.930 . S
H2108 C2070 0.929 . S
H2109 C2072 0.930 . S
H2110 C2078 0.929 . S
H2111 C2079 0.930 . S
Li2112 N2129 1.990 . S
Li2112 O2172 1.956 . S
Li2112 O2173 1.970 . S
Li2112 O2174 1.961 . S
Li2113 N2137 1.990 . S
Li2113 O2172 1.970 . S
Li2113 O2173 1.956 . S
Li2113 O2175 1.961 . S
Li2114 N2159 1.990 . S
Li2114 O2172 1.961 . S
Li2114 O2174 1.956 . S
Li2114 O2175 1.970 . S
Li2115 N2165 1.990 . S
Li2115 O2173 1.961 . S
Li2115 O2174 1.970 . S
Li2115 O2175 1.956 . S
C2116 C2118 1.348 . S
C2116 C2119 1.356 . S
C2116 O2172 1.325 . S
N2117 C2120 1.314 . S
N2117 C2121 1.279 . S
C2118 C2116 1.348 . S
C2118 C2120 1.353 . S
C2118 H2176 0.929 . S
C2119 C2116 1.356 . S
C2119 C2121 1.358 . S
C2119 H2177 0.930 . S
C2120 N2117 1.314 . S
C2120 C2118 1.353 . S
C2120 H2178 0.930 . S
C2121 N2117 1.279 . S
C2121 C2119 1.358 . S
C2121 H2179 0.930 . S
C2122 C2125 1.348 . S
C2122 C2126 1.356 . S
C2122 O2173 1.325 . S
C2123 N2124 1.279 . S
C2123 C2126 1.358 . S
C2123 H2180 0.930 . S
N2124 C2123 1.279 . S
N2124 C2127 1.314 . S
C2125 C2122 1.348 . S
C2125 C2127 1.353 . S
C2125 H2181 0.929 . S
C2126 C2122 1.356 . S
C2126 C2123 1.358 . S
C2126 H2182 0.930 . S
C2127 N2124 1.314 . S
C2127 C2125 1.353 . S
C2127 H2183 0.930 . S
C2128 N2129 1.314 . S
C2128 C2133 1.353 . S
C2128 H2134 0.930 . S
N2129 Li2112 1.990 . S
N2129 C2128 1.314 . S
N2129 C2131 1.279 . S
C2130 C2131 1.358 . S
C2130 C2132 1.356 . S
C2130 H2184 0.930 . S
C2131 N2129 1.279 . S
C2131 C2130 1.358 . S
C2131 H2135 0.930 . S
C2132 C2130 1.356 . S
C2132 C2133 1.348 . S
C2133 C2128 1.353 . S
C2133 C2132 1.348 . S
C2133 H2185 0.929 . S
H2134 C2128 0.930 . S
H2135 C2131 0.930 . S
C2136 N2137 1.314 . S
C2136 C2138 1.353 . S
C2136 H2142 0.930 . S
N2137 Li2113 1.990 . S
N2137 C2136 1.314 . S
N2137 C2140 1.279 . S
C2138 C2136 1.353 . S
C2138 C2141 1.348 . S
C2138 H2186 0.929 . S
C2139 C2140 1.358 . S
C2139 C2141 1.356 . S
C2139 H2187 0.930 . S
C2140 N2137 1.279 . S
C2140 C2139 1.358 . S
C2140 H2143 0.930 . S
C2141 C2138 1.348 . S
C2141 C2139 1.356 . S
H2142 C2136 0.930 . S
H2143 C2140 0.930 . S
C2144 C2146 1.348 . S
C2144 C2147 1.356 . S
C2144 O2174 1.325 . S
N2145 C2148 1.314 . S
N2145 C2149 1.279 . S
C2146 C2144 1.348 . S
C2146 C2148 1.353 . S
C2146 H2188 0.929 . S
C2147 C2144 1.356 . S
C2147 C2149 1.358 . S
C2147 H2189 0.930 . S
C2148 N2145 1.314 . S
C2148 C2146 1.353 . S
C2148 H2190 0.930 . S
C2149 N2145 1.279 . S
C2149 C2147 1.358 . S
C2149 H2191 0.930 . S
C2150 C2151 1.348 . S
C2150 C2152 1.356 . S
C2150 O2175 1.325 . S
C2151 C2150 1.348 . S
C2151 C2153 1.353 . S
C2151 H2192 0.929 . S
C2152 C2150 1.356 . S
C2152 C2154 1.358 . S
C2152 H2193 0.930 . S
C2153 C2151 1.353 . S
C2153 N2155 1.314 . S
C2153 H2194 0.930 . S
C2154 C2152 1.358 . S
C2154 N2155 1.279 . S
C2154 H2195 0.930 . S
N2155 C2153 1.314 . S
N2155 C2154 1.279 . S
C2156 C2158 1.353 . S
C2156 N2159 1.314 . S
C2156 H2162 0.930 . S
C2157 N2159 1.279 . S
C2157 C2160 1.358 . S
C2157 H2163 0.930 . S
C2158 C2156 1.353 . S
C2158 C2161 1.348 . S
C2158 H2196 0.929 . S
N2159 Li2114 1.990 . S
N2159 C2156 1.314 . S
N2159 C2157 1.279 . S
C2160 C2157 1.358 . S
C2160 C2161 1.356 . S
C2160 H2197 0.930 . S
C2161 C2158 1.348 . S
C2161 C2160 1.356 . S
H2162 C2156 0.930 . S
H2163 C2157 0.930 . S
C2164 N2165 1.314 . S
C2164 C2166 1.353 . S
C2164 H2170 0.930 . S
N2165 Li2115 1.990 . S
N2165 C2164 1.314 . S
N2165 C2168 1.279 . S
C2166 C2164 1.353 . S
C2166 C2169 1.348 . S
C2166 H2198 0.929 . S
C2167 C2168 1.358 . S
C2167 C2169 1.356 . S
C2167 H2199 0.930 . S
C2168 N2165 1.279 . S
C2168 C2167 1.358 . S
C2168 H2171 0.930 . S
C2169 C2166 1.348 . S
C2169 C2167 1.356 . S
H2170 C2164 0.930 . S
H2171 C2168 0.930 . S
O2172 Li2112 1.956 . S
O2172 Li2113 1.970 . S
O2172 Li2114 1.961 . S
O2172 C2116 1.325 . S
O2173 Li2112 1.970 . S
O2173 Li2113 1.956 . S
O2173 Li2115 1.961 . S
O2173 C2122 1.325 . S
O2174 Li2112 1.961 . S
O2174 Li2114 1.956 . S
O2174 Li2115 1.970 . S
O2174 C2144 1.325 . S
O2175 Li2113 1.961 . S
O2175 Li2114 1.970 . S
O2175 Li2115 1.956 . S
O2175 C2150 1.325 . S
H2176 C2118 0.929 . S
H2177 C2119 0.930 . S
H2178 C2120 0.930 . S
H2179 C2121 0.930 . S
H2180 C2123 0.930 . S
H2181 C2125 0.929 . S
H2182 C2126 0.930 . S
H2183 C2127 0.930 . S
H2184 C2130 0.930 . S
H2185 C2133 0.929 . S
H2186 C2138 0.929 . S
H2187 C2139 0.930 . S
H2188 C2146 0.929 . S
H2189 C2147 0.930 . S
H2190 C2148 0.930 . S
H2191 C2149 0.930 . S
H2192 C2151 0.929 . S
H2193 C2152 0.930 . S
H2194 C2153 0.930 . S
H2195 C2154 0.930 . S
H2196 C2158 0.929 . S
H2197 C2160 0.930 . S
H2198 C2166 0.929 . S
H2199 C2167 0.930 . S
Li2200 N2217 1.990 . S
Li2200 O2260 1.956 . S
Li2200 O2261 1.970 . S
Li2200 O2262 1.961 . S
Li2201 N2225 1.990 . S
Li2201 O2260 1.970 . S
Li2201 O2261 1.956 . S
Li2201 O2263 1.961 . S
Li2202 N2247 1.990 . S
Li2202 O2260 1.961 . S
Li2202 O2262 1.956 . S
Li2202 O2263 1.970 . S
Li2203 N2253 1.990 . S
Li2203 O2261 1.961 . S
Li2203 O2262 1.970 . S
Li2203 O2263 1.956 . S
C2204 C2206 1.348 . S
C2204 C2207 1.356 . S
C2204 O2260 1.325 . S
N2205 C2208 1.314 . S
N2205 C2209 1.279 . S
C2206 C2204 1.348 . S
C2206 C2208 1.353 . S
C2206 H2264 0.929 . S
C2207 C2204 1.356 . S
C2207 C2209 1.358 . S
C2207 H2265 0.930 . S
C2208 N2205 1.314 . S
C2208 C2206 1.353 . S
C2208 H2266 0.930 . S
C2209 N2205 1.279 . S
C2209 C2207 1.358 . S
C2209 H2267 0.930 . S
C2210 C2213 1.348 . S
C2210 C2214 1.356 . S
C2210 O2261 1.325 . S
C2211 N2212 1.279 . S
C2211 C2214 1.358 . S
C2211 H2268 0.930 . S
N2212 C2211 1.279 . S
N2212 C2215 1.314 . S
C2213 C2210 1.348 . S
C2213 C2215 1.353 . S
C2213 H2269 0.929 . S
C2214 C2210 1.356 . S
C2214 C2211 1.358 . S
C2214 H2270 0.930 . S
C2215 N2212 1.314 . S
C2215 C2213 1.353 . S
C2215 H2271 0.930 . S
C2216 N2217 1.314 . S
C2216 C2221 1.353 . S
C2216 H2222 0.930 . S
N2217 Li2200 1.990 . S
N2217 C2216 1.314 . S
N2217 C2219 1.279 . S
C2218 C2219 1.358 . S
C2218 C2220 1.356 . S
C2218 H2272 0.930 . S
C2219 N2217 1.279 . S
C2219 C2218 1.358 . S
C2219 H2223 0.930 . S
C2220 C2218 1.356 . S
C2220 C2221 1.348 . S
C2221 C2216 1.353 . S
C2221 C2220 1.348 . S
C2221 H2273 0.929 . S
H2222 C2216 0.930 . S
H2223 C2219 0.930 . S
C2224 N2225 1.314 . S
C2224 C2226 1.353 . S
C2224 H2230 0.930 . S
N2225 Li2201 1.990 . S
N2225 C2224 1.314 . S
N2225 C2228 1.279 . S
C2226 C2224 1.353 . S
C2226 C2229 1.348 . S
C2226 H2274 0.929 . S
C2227 C2228 1.358 . S
C2227 C2229 1.356 . S
C2227 H2275 0.930 . S
C2228 N2225 1.279 . S
C2228 C2227 1.358 . S
C2228 H2231 0.930 . S
C2229 C2226 1.348 . S
C2229 C2227 1.356 . S
H2230 C2224 0.930 . S
H2231 C2228 0.930 . S
C2232 C2234 1.348 . S
C2232 C2235 1.356 . S
C2232 O2262 1.325 . S
N2233 C2236 1.314 . S
N2233 C2237 1.279 . S
C2234 C2232 1.348 . S
C2234 C2236 1.353 . S
C2234 H2276 0.929 . S
C2235 C2232 1.356 . S
C2235 C2237 1.358 . S
C2235 H2277 0.930 . S
C2236 N2233 1.314 . S
C2236 C2234 1.353 . S
C2236 H2278 0.930 . S
C2237 N2233 1.279 . S
C2237 C2235 1.358 . S
C2237 H2279 0.930 . S
C2238 C2239 1.348 . S
C2238 C2240 1.356 . S
C2238 O2263 1.325 . S
C2239 C2238 1.348 . S
C2239 C2241 1.353 . S
C2239 H2280 0.929 . S
C2240 C2238 1.356 . S
C2240 C2242 1.358 . S
C2240 H2281 0.930 . S
C2241 C2239 1.353 . S
C2241 N2243 1.314 . S
C2241 H2282 0.930 . S
C2242 C2240 1.358 . S
C2242 N2243 1.279 . S
C2242 H2283 0.930 . S
N2243 C2241 1.314 . S
N2243 C2242 1.279 . S
C2244 C2246 1.353 . S
C2244 N2247 1.314 . S
C2244 H2250 0.930 . S
C2245 N2247 1.279 . S
C2245 C2248 1.358 . S
C2245 H2251 0.930 . S
C2246 C2244 1.353 . S
C2246 C2249 1.348 . S
C2246 H2284 0.929 . S
N2247 Li2202 1.990 . S
N2247 C2244 1.314 . S
N2247 C2245 1.279 . S
C2248 C2245 1.358 . S
C2248 C2249 1.356 . S
C2248 H2285 0.930 . S
C2249 C2246 1.348 . S
C2249 C2248 1.356 . S
H2250 C2244 0.930 . S
H2251 C2245 0.930 . S
C2252 N2253 1.314 . S
C2252 C2254 1.353 . S
C2252 H2258 0.930 . S
N2253 Li2203 1.990 . S
N2253 C2252 1.314 . S
N2253 C2256 1.279 . S
C2254 C2252 1.353 . S
C2254 C2257 1.348 . S
C2254 H2286 0.929 . S
C2255 C2256 1.358 . S
C2255 C2257 1.356 . S
C2255 H2287 0.930 . S
C2256 N2253 1.279 . S
C2256 C2255 1.358 . S
C2256 H2259 0.930 . S
C2257 C2254 1.348 . S
C2257 C2255 1.356 . S
H2258 C2252 0.930 . S
H2259 C2256 0.930 . S
O2260 Li2200 1.956 . S
O2260 Li2201 1.970 . S
O2260 Li2202 1.961 . S
O2260 C2204 1.325 . S
O2261 Li2200 1.970 . S
O2261 Li2201 1.956 . S
O2261 Li2203 1.961 . S
O2261 C2210 1.325 . S
O2262 Li2200 1.961 . S
O2262 Li2202 1.956 . S
O2262 Li2203 1.970 . S
O2262 C2232 1.325 . S
O2263 Li2201 1.961 . S
O2263 Li2202 1.970 . S
O2263 Li2203 1.956 . S
O2263 C2238 1.325 . S
H2264 C2206 0.929 . S
H2265 C2207 0.930 . S
H2266 C2208 0.930 . S
H2267 C2209 0.930 . S
H2268 C2211 0.930 . S
H2269 C2213 0.929 . S
H2270 C2214 0.930 . S
H2271 C2215 0.930 . S
H2272 C2218 0.930 . S
H2273 C2221 0.929 . S
H2274 C2226 0.929 . S
H2275 C2227 0.930 . S
H2276 C2234 0.929 . S
H2277 C2235 0.930 . S
H2278 C2236 0.930 . S
H2279 C2237 0.930 . S
H2280 C2239 0.929 . S
H2281 C2240 0.930 . S
H2282 C2241 0.930 . S
H2283 C2242 0.930 . S
H2284 C2246 0.929 . S
H2285 C2248 0.930 . S
H2286 C2254 0.929 . S
H2287 C2255 0.930 . S
Li2288 N2305 1.990 . S
Li2288 O2348 1.956 . S
Li2288 O2349 1.970 . S
Li2288 O2350 1.961 . S
Li2289 N2313 1.990 . S
Li2289 O2348 1.970 . S
Li2289 O2349 1.956 . S
Li2289 O2351 1.961 . S
Li2290 N2335 1.990 . S
Li2290 O2348 1.961 . S
Li2290 O2350 1.956 . S
Li2290 O2351 1.970 . S
Li2291 N2341 1.990 . S
Li2291 O2349 1.961 . S
Li2291 O2350 1.970 . S
Li2291 O2351 1.956 . S
C2292 C2294 1.348 . S
C2292 C2295 1.356 . S
C2292 O2348 1.325 . S
N2293 C2296 1.314 . S
N2293 C2297 1.279 . S
C2294 C2292 1.348 . S
C2294 C2296 1.353 . S
C2294 H2352 0.929 . S
C2295 C2292 1.356 . S
C2295 C2297 1.358 . S
C2295 H2353 0.930 . S
C2296 N2293 1.314 . S
C2296 C2294 1.353 . S
C2296 H2354 0.930 . S
C2297 N2293 1.279 . S
C2297 C2295 1.358 . S
C2297 H2355 0.930 . S
C2298 C2301 1.348 . S
C2298 C2302 1.356 . S
C2298 O2349 1.325 . S
C2299 N2300 1.279 . S
C2299 C2302 1.358 . S
C2299 H2356 0.930 . S
N2300 C2299 1.279 . S
N2300 C2303 1.314 . S
C2301 C2298 1.348 . S
C2301 C2303 1.353 . S
C2301 H2357 0.929 . S
C2302 C2298 1.356 . S
C2302 C2299 1.358 . S
C2302 H2358 0.930 . S
C2303 N2300 1.314 . S
C2303 C2301 1.353 . S
C2303 H2359 0.930 . S
C2304 N2305 1.314 . S
C2304 C2309 1.353 . S
C2304 H2310 0.930 . S
N2305 Li2288 1.990 . S
N2305 C2304 1.314 . S
N2305 C2307 1.279 . S
C2306 C2307 1.358 . S
C2306 C2308 1.356 . S
C2306 H2360 0.930 . S
C2307 N2305 1.279 . S
C2307 C2306 1.358 . S
C2307 H2311 0.930 . S
C2308 C2306 1.356 . S
C2308 C2309 1.348 . S
C2309 C2304 1.353 . S
C2309 C2308 1.348 . S
C2309 H2361 0.929 . S
H2310 C2304 0.930 . S
H2311 C2307 0.930 . S
C2312 N2313 1.314 . S
C2312 C2314 1.353 . S
C2312 H2318 0.930 . S
N2313 Li2289 1.990 . S
N2313 C2312 1.314 . S
N2313 C2316 1.279 . S
C2314 C2312 1.353 . S
C2314 C2317 1.348 . S
C2314 H2362 0.929 . S
C2315 C2316 1.358 . S
C2315 C2317 1.356 . S
C2315 H2363 0.930 . S
C2316 N2313 1.279 . S
C2316 C2315 1.358 . S
C2316 H2319 0.930 . S
C2317 C2314 1.348 . S
C2317 C2315 1.356 . S
H2318 C2312 0.930 . S
H2319 C2316 0.930 . S
C2320 C2322 1.348 . S
C2320 C2323 1.356 . S
C2320 O2350 1.325 . S
N2321 C2324 1.314 . S
N2321 C2325 1.279 . S
C2322 C2320 1.348 . S
C2322 C2324 1.353 . S
C2322 H2364 0.929 . S
C2323 C2320 1.356 . S
C2323 C2325 1.358 . S
C2323 H2365 0.930 . S
C2324 N2321 1.314 . S
C2324 C2322 1.353 . S
C2324 H2366 0.930 . S
C2325 N2321 1.279 . S
C2325 C2323 1.358 . S
C2325 H2367 0.930 . S
C2326 C2327 1.348 . S
C2326 C2328 1.356 . S
C2326 O2351 1.325 . S
C2327 C2326 1.348 . S
C2327 C2329 1.353 . S
C2327 H2368 0.929 . S
C2328 C2326 1.356 . S
C2328 C2330 1.358 . S
C2328 H2369 0.930 . S
C2329 C2327 1.353 . S
C2329 N2331 1.314 . S
C2329 H2370 0.930 . S
C2330 C2328 1.358 . S
C2330 N2331 1.279 . S
C2330 H2371 0.930 . S
N2331 C2329 1.314 . S
N2331 C2330 1.279 . S
C2332 C2334 1.353 . S
C2332 N2335 1.314 . S
C2332 H2338 0.930 . S
C2333 N2335 1.279 . S
C2333 C2336 1.358 . S
C2333 H2339 0.930 . S
C2334 C2332 1.353 . S
C2334 C2337 1.348 . S
C2334 H2372 0.929 . S
N2335 Li2290 1.990 . S
N2335 C2332 1.314 . S
N2335 C2333 1.279 . S
C2336 C2333 1.358 . S
C2336 C2337 1.356 . S
C2336 H2373 0.930 . S
C2337 C2334 1.348 . S
C2337 C2336 1.356 . S
H2338 C2332 0.930 . S
H2339 C2333 0.930 . S
C2340 N2341 1.314 . S
C2340 C2342 1.353 . S
C2340 H2346 0.930 . S
N2341 Li2291 1.990 . S
N2341 C2340 1.314 . S
N2341 C2344 1.279 . S
C2342 C2340 1.353 . S
C2342 C2345 1.348 . S
C2342 H2374 0.929 . S
C2343 C2344 1.358 . S
C2343 C2345 1.356 . S
C2343 H2375 0.930 . S
C2344 N2341 1.279 . S
C2344 C2343 1.358 . S
C2344 H2347 0.930 . S
C2345 C2342 1.348 . S
C2345 C2343 1.356 . S
H2346 C2340 0.930 . S
H2347 C2344 0.930 . S
O2348 Li2288 1.956 . S
O2348 Li2289 1.970 . S
O2348 Li2290 1.961 . S
O2348 C2292 1.325 . S
O2349 Li2288 1.970 . S
O2349 Li2289 1.956 . S
O2349 Li2291 1.961 . S
O2349 C2298 1.325 . S
O2350 Li2288 1.961 . S
O2350 Li2290 1.956 . S
O2350 Li2291 1.970 . S
O2350 C2320 1.325 . S
O2351 Li2289 1.961 . S
O2351 Li2290 1.970 . S
O2351 Li2291 1.956 . S
O2351 C2326 1.325 . S
H2352 C2294 0.929 . S
H2353 C2295 0.930 . S
H2354 C2296 0.930 . S
H2355 C2297 0.930 . S
H2356 C2299 0.930 . S
H2357 C2301 0.929 . S
H2358 C2302 0.930 . S
H2359 C2303 0.930 . S
H2360 C2306 0.930 . S
H2361 C2309 0.929 . S
H2362 C2314 0.929 . S
H2363 C2315 0.930 . S
H2364 C2322 0.929 . S
H2365 C2323 0.930 . S
H2366 C2324 0.930 . S
H2367 C2325 0.930 . S
H2368 C2327 0.929 . S
H2369 C2328 0.930 . S
H2370 C2329 0.930 . S
H2371 C2330 0.930 . S
H2372 C2334 0.929 . S
H2373 C2336 0.930 . S
H2374 C2342 0.929 . S
H2375 C2343 0.930 . S
Li2376 N2393 1.990 . S
Li2376 O2436 1.956 . S
Li2376 O2437 1.970 . S
Li2376 O2438 1.961 . S
Li2377 N2401 1.990 . S
Li2377 O2436 1.970 . S
Li2377 O2437 1.956 . S
Li2377 O2439 1.961 . S
Li2378 N2423 1.990 . S
Li2378 O2436 1.961 . S
Li2378 O2438 1.956 . S
Li2378 O2439 1.970 . S
Li2379 N2429 1.990 1_455 S
Li2379 O2437 1.961 . S
Li2379 O2438 1.970 . S
Li2379 O2439 1.956 . S
C2380 C2382 1.348 . S
C2380 C2383 1.356 . S
C2380 O2436 1.325 . S
N2381 C2384 1.314 . S
N2381 C2385 1.279 . S
C2382 C2380 1.348 . S
C2382 C2384 1.353 . S
C2382 H2440 0.929 . S
C2383 C2380 1.356 . S
C2383 C2385 1.358 . S
C2383 H2441 0.930 . S
C2384 N2381 1.314 . S
C2384 C2382 1.353 . S
C2384 H2442 0.930 . S
C2385 N2381 1.279 . S
C2385 C2383 1.358 . S
C2385 H2443 0.930 . S
C2386 C2389 1.348 . S
C2386 C2390 1.356 . S
C2386 O2437 1.325 . S
C2387 N2388 1.279 . S
C2387 C2390 1.358 . S
C2387 H2444 0.930 . S
N2388 C2387 1.279 . S
N2388 C2391 1.314 . S
C2389 C2386 1.348 . S
C2389 C2391 1.353 . S
C2389 H2445 0.929 . S
C2390 C2386 1.356 . S
C2390 C2387 1.358 . S
C2390 H2446 0.930 . S
C2391 N2388 1.314 . S
C2391 C2389 1.353 . S
C2391 H2447 0.930 . S
C2392 N2393 1.314 . S
C2392 C2397 1.353 . S
C2392 H2398 0.930 . S
N2393 Li2376 1.990 . S
N2393 C2392 1.314 . S
N2393 C2395 1.279 . S
C2394 C2395 1.358 . S
C2394 C2396 1.356 . S
C2394 H2448 0.930 . S
C2395 N2393 1.279 . S
C2395 C2394 1.358 . S
C2395 H2399 0.930 . S
C2396 C2394 1.356 . S
C2396 C2397 1.348 . S
C2397 C2392 1.353 . S
C2397 C2396 1.348 . S
C2397 H2449 0.929 . S
H2398 C2392 0.930 . S
H2399 C2395 0.930 . S
C2400 N2401 1.314 . S
C2400 C2402 1.353 . S
C2400 H2406 0.930 . S
N2401 Li2377 1.990 . S
N2401 C2400 1.314 . S
N2401 C2404 1.279 . S
C2402 C2400 1.353 . S
C2402 C2405 1.348 . S
C2402 H2450 0.929 . S
C2403 C2404 1.358 . S
C2403 C2405 1.356 . S
C2403 H2451 0.930 . S
C2404 N2401 1.279 . S
C2404 C2403 1.358 . S
C2404 H2407 0.930 . S
C2405 C2402 1.348 . S
C2405 C2403 1.356 . S
H2406 C2400 0.930 . S
H2407 C2404 0.930 . S
C2408 C2410 1.337 1_455 S
C2408 C2411 1.356 . S
C2408 O2438 1.325 . S
N2409 C2412 1.314 1_455 S
N2409 C2413 1.279 . S
C2410 C2408 1.337 1_655 S
C2410 C2412 1.357 . S
C2410 H2452 0.936 . S
C2411 C2408 1.356 . S
C2411 C2413 1.358 . S
C2411 H2453 0.930 . S
C2412 N2409 1.314 1_655 S
C2412 C2410 1.357 . S
C2412 H2454 0.930 . S
C2413 N2409 1.279 . S
C2413 C2411 1.358 . S
C2413 H2455 0.930 . S
C2414 C2415 1.348 1_455 S
C2414 C2416 1.356 . S
C2414 O2439 1.325 . S
C2415 C2414 1.348 1_655 S
C2415 C2417 1.353 . S
C2415 H2456 0.932 . S
C2416 C2414 1.356 . S
C2416 C2418 1.358 1_455 S
C2416 H2457 0.930 . S
C2417 C2415 1.353 . S
C2417 N2419 1.314 . S
C2417 H2458 0.930 . S
C2418 C2416 1.358 1_655 S
C2418 N2419 1.279 . S
C2418 H2459 0.930 . S
N2419 C2417 1.314 . S
N2419 C2418 1.279 . S
C2420 C2422 1.353 . S
C2420 N2423 1.314 . S
C2420 H2426 0.930 . S
C2421 N2423 1.279 . S
C2421 C2424 1.358 . S
C2421 H2427 0.930 . S
C2422 C2420 1.353 . S
C2422 C2425 1.348 . S
C2422 H2460 0.929 . S
N2423 Li2378 1.990 . S
N2423 C2420 1.314 . S
N2423 C2421 1.279 . S
C2424 C2421 1.358 . S
C2424 C2425 1.356 . S
C2424 H2461 0.930 . S
C2425 C2422 1.348 . S
C2425 C2424 1.356 . S
H2426 C2420 0.930 . S
H2427 C2421 0.930 . S
C2428 N2429 1.314 . S
C2428 C2430 1.353 . S
C2428 H2434 0.930 . S
N2429 Li2379 1.990 1_655 S
N2429 C2428 1.314 . S
N2429 C2432 1.279 . S
C2430 C2428 1.353 . S
C2430 C2433 1.348 . S
C2430 H2462 0.929 . S
C2431 C2432 1.358 . S
C2431 C2433 1.356 . S
C2431 H2463 0.930 . S
C2432 N2429 1.279 . S
C2432 C2431 1.358 . S
C2432 H2435 0.930 . S
C2433 C2430 1.348 . S
C2433 C2431 1.356 . S
H2434 C2428 0.930 . S
H2435 C2432 0.930 . S
O2436 Li2376 1.956 . S
O2436 Li2377 1.970 . S
O2436 Li2378 1.961 . S
O2436 C2380 1.325 . S
O2437 Li2376 1.970 . S
O2437 Li2377 1.956 . S
O2437 Li2379 1.961 . S
O2437 C2386 1.325 . S
O2438 Li2376 1.961 . S
O2438 Li2378 1.956 . S
O2438 Li2379 1.970 . S
O2438 C2408 1.325 . S
O2439 Li2377 1.961 . S
O2439 Li2378 1.970 . S
O2439 Li2379 1.956 . S
O2439 C2414 1.325 . S
H2440 C2382 0.929 . S
H2441 C2383 0.930 . S
H2442 C2384 0.930 . S
H2443 C2385 0.930 . S
H2444 C2387 0.930 . S
H2445 C2389 0.929 . S
H2446 C2390 0.930 . S
H2447 C2391 0.930 . S
H2448 C2394 0.930 . S
H2449 C2397 0.929 . S
H2450 C2402 0.929 . S
H2451 C2403 0.930 . S
H2452 C2410 0.936 . S
H2453 C2411 0.930 . S
H2454 C2412 0.930 . S
H2455 C2413 0.930 . S
H2456 C2415 0.932 . S
H2457 C2416 0.930 . S
H2458 C2417 0.930 . S
H2459 C2418 0.930 . S
H2460 C2422 0.929 . S
H2461 C2424 0.930 . S
H2462 C2430 0.929 . S
H2463 C2431 0.930 . S
Li2464 N2481 1.990 . S
Li2464 O2524 1.956 . S
Li2464 O2525 1.970 . S
Li2464 O2526 1.961 . S
Li2465 N2489 1.990 . S
Li2465 O2524 1.970 . S
Li2465 O2525 1.956 . S
Li2465 O2527 1.961 . S
Li2466 N2511 1.990 . S
Li2466 O2524 1.961 . S
Li2466 O2526 1.956 . S
Li2466 O2527 1.970 . S
Li2467 N2517 1.990 . S
Li2467 O2525 1.961 . S
Li2467 O2526 1.970 . S
Li2467 O2527 1.956 . S
C2468 C2470 1.348 . S
C2468 C2471 1.356 . S
C2468 O2524 1.325 . S
N2469 C2472 1.314 . S
N2469 C2473 1.279 . S
C2470 C2468 1.348 . S
C2470 C2472 1.353 . S
C2470 H2528 0.929 . S
C2471 C2468 1.356 . S
C2471 C2473 1.358 . S
C2471 H2529 0.930 . S
C2472 N2469 1.314 . S
C2472 C2470 1.353 . S
C2472 H2530 0.930 . S
C2473 N2469 1.279 . S
C2473 C2471 1.358 . S
C2473 H2531 0.930 . S
C2474 C2477 1.348 . S
C2474 C2478 1.356 . S
C2474 O2525 1.325 . S
C2475 N2476 1.279 . S
C2475 C2478 1.358 . S
C2475 H2532 0.930 . S
N2476 C2475 1.279 . S
N2476 C2479 1.314 . S
C2477 C2474 1.348 . S
C2477 C2479 1.353 . S
C2477 H2533 0.929 . S
C2478 C2474 1.356 . S
C2478 C2475 1.358 . S
C2478 H2534 0.930 . S
C2479 N2476 1.314 . S
C2479 C2477 1.353 . S
C2479 H2535 0.930 . S
C2480 N2481 1.314 . S
C2480 C2485 1.353 . S
C2480 H2486 0.930 . S
N2481 Li2464 1.990 . S
N2481 C2480 1.314 . S
N2481 C2483 1.279 . S
C2482 C2483 1.358 . S
C2482 C2484 1.356 . S
C2482 H2536 0.930 . S
C2483 N2481 1.279 . S
C2483 C2482 1.358 . S
C2483 H2487 0.930 . S
C2484 C2482 1.356 . S
C2484 C2485 1.348 . S
C2485 C2480 1.353 . S
C2485 C2484 1.348 . S
C2485 H2537 0.929 . S
H2486 C2480 0.930 . S
H2487 C2483 0.930 . S
C2488 N2489 1.314 . S
C2488 C2490 1.353 . S
C2488 H2494 0.930 . S
N2489 Li2465 1.990 . S
N2489 C2488 1.314 . S
N2489 C2492 1.279 . S
C2490 C2488 1.353 . S
C2490 C2493 1.348 . S
C2490 H2538 0.929 . S
C2491 C2492 1.358 . S
C2491 C2493 1.356 . S
C2491 H2539 0.930 . S
C2492 N2489 1.279 . S
C2492 C2491 1.358 . S
C2492 H2495 0.930 . S
C2493 C2490 1.348 . S
C2493 C2491 1.356 . S
H2494 C2488 0.930 . S
H2495 C2492 0.930 . S
C2496 C2498 1.348 . S
C2496 C2499 1.356 . S
C2496 O2526 1.325 . S
N2497 C2500 1.314 . S
N2497 C2501 1.279 . S
C2498 C2496 1.348 . S
C2498 C2500 1.353 . S
C2498 H2540 0.929 . S
C2499 C2496 1.356 . S
C2499 C2501 1.358 . S
C2499 H2541 0.930 . S
C2500 N2497 1.314 . S
C2500 C2498 1.353 . S
C2500 H2542 0.930 . S
C2501 N2497 1.279 . S
C2501 C2499 1.358 . S
C2501 H2543 0.930 . S
C2502 C2503 1.348 . S
C2502 C2504 1.356 . S
C2502 O2527 1.325 . S
C2503 C2502 1.348 . S
C2503 C2505 1.353 . S
C2503 H2544 0.929 . S
C2504 C2502 1.356 . S
C2504 C2506 1.358 . S
C2504 H2545 0.930 . S
C2505 C2503 1.353 . S
C2505 N2507 1.314 . S
C2505 H2546 0.930 . S
C2506 C2504 1.358 . S
C2506 N2507 1.279 . S
C2506 H2547 0.930 . S
N2507 C2505 1.314 . S
N2507 C2506 1.279 . S
C2508 C2510 1.353 . S
C2508 N2511 1.314 . S
C2508 H2514 0.930 . S
C2509 N2511 1.279 . S
C2509 C2512 1.358 . S
C2509 H2515 0.930 . S
C2510 C2508 1.353 . S
C2510 C2513 1.348 . S
C2510 H2548 0.929 . S
N2511 Li2466 1.990 . S
N2511 C2508 1.314 . S
N2511 C2509 1.279 . S
C2512 C2509 1.358 . S
C2512 C2513 1.356 . S
C2512 H2549 0.930 . S
C2513 C2510 1.348 . S
C2513 C2512 1.356 . S
H2514 C2508 0.930 . S
H2515 C2509 0.930 . S
C2516 N2517 1.314 . S
C2516 C2518 1.353 . S
C2516 H2522 0.930 . S
N2517 Li2467 1.990 . S
N2517 C2516 1.314 . S
N2517 C2520 1.279 . S
C2518 C2516 1.353 . S
C2518 C2521 1.348 . S
C2518 H2550 0.929 . S
C2519 C2520 1.358 . S
C2519 C2521 1.356 . S
C2519 H2551 0.930 . S
C2520 N2517 1.279 . S
C2520 C2519 1.358 . S
C2520 H2523 0.930 . S
C2521 C2518 1.348 . S
C2521 C2519 1.356 . S
H2522 C2516 0.930 . S
H2523 C2520 0.930 . S
O2524 Li2464 1.956 . S
O2524 Li2465 1.970 . S
O2524 Li2466 1.961 . S
O2524 C2468 1.325 . S
O2525 Li2464 1.970 . S
O2525 Li2465 1.956 . S
O2525 Li2467 1.961 . S
O2525 C2474 1.325 . S
O2526 Li2464 1.961 . S
O2526 Li2466 1.956 . S
O2526 Li2467 1.970 . S
O2526 C2496 1.325 . S
O2527 Li2465 1.961 . S
O2527 Li2466 1.970 . S
O2527 Li2467 1.956 . S
O2527 C2502 1.325 . S
H2528 C2470 0.929 . S
H2529 C2471 0.930 . S
H2530 C2472 0.930 . S
H2531 C2473 0.930 . S
H2532 C2475 0.930 . S
H2533 C2477 0.929 . S
H2534 C2478 0.930 . S
H2535 C2479 0.930 . S
H2536 C2482 0.930 . S
H2537 C2485 0.929 . S
H2538 C2490 0.929 . S
H2539 C2491 0.930 . S
H2540 C2498 0.929 . S
H2541 C2499 0.930 . S
H2542 C2500 0.930 . S
H2543 C2501 0.930 . S
H2544 C2503 0.929 . S
H2545 C2504 0.930 . S
H2546 C2505 0.930 . S
H2547 C2506 0.930 . S
H2548 C2510 0.929 . S
H2549 C2512 0.930 . S
H2550 C2518 0.929 . S
H2551 C2519 0.930 . S
Li2552 N2569 1.990 . S
Li2552 O2612 1.956 . S
Li2552 O2613 1.970 . S
Li2552 O2614 1.961 . S
Li2553 N2577 1.990 . S
Li2553 O2612 1.970 . S
Li2553 O2613 1.956 . S
Li2553 O2615 1.961 . S
Li2554 N2599 1.990 . S
Li2554 O2612 1.961 . S
Li2554 O2614 1.956 . S
Li2554 O2615 1.970 . S
Li2555 N2605 1.990 1_455 S
Li2555 O2613 1.961 . S
Li2555 O2614 1.970 . S
Li2555 O2615 1.956 . S
C2556 C2558 1.348 . S
C2556 C2559 1.356 . S
C2556 O2612 1.325 . S
N2557 C2560 1.314 . S
N2557 C2561 1.279 . S
C2558 C2556 1.348 . S
C2558 C2560 1.353 . S
C2558 H2616 0.929 . S
C2559 C2556 1.356 . S
C2559 C2561 1.358 . S
C2559 H2617 0.930 . S
C2560 N2557 1.314 . S
C2560 C2558 1.353 . S
C2560 H2618 0.930 . S
C2561 N2557 1.279 . S
C2561 C2559 1.358 . S
C2561 H2619 0.930 . S
C2562 C2565 1.348 . S
C2562 C2566 1.356 . S
C2562 O2613 1.325 . S
C2563 N2564 1.279 . S
C2563 C2566 1.358 . S
C2563 H2620 0.930 . S
N2564 C2563 1.279 . S
N2564 C2567 1.314 . S
C2565 C2562 1.348 . S
C2565 C2567 1.353 . S
C2565 H2621 0.929 . S
C2566 C2562 1.356 . S
C2566 C2563 1.358 . S
C2566 H2622 0.930 . S
C2567 N2564 1.314 . S
C2567 C2565 1.353 . S
C2567 H2623 0.930 . S
C2568 N2569 1.314 . S
C2568 C2573 1.353 . S
C2568 H2574 0.930 . S
N2569 Li2552 1.990 . S
N2569 C2568 1.314 . S
N2569 C2571 1.279 . S
C2570 C2571 1.358 . S
C2570 C2572 1.356 . S
C2570 H2624 0.930 . S
C2571 N2569 1.279 . S
C2571 C2570 1.358 . S
C2571 H2575 0.930 . S
C2572 C2570 1.356 . S
C2572 C2573 1.348 . S
C2573 C2568 1.353 . S
C2573 C2572 1.348 . S
C2573 H2625 0.929 . S
H2574 C2568 0.930 . S
H2575 C2571 0.930 . S
C2576 N2577 1.314 . S
C2576 C2578 1.353 . S
C2576 H2582 0.930 . S
N2577 Li2553 1.990 . S
N2577 C2576 1.314 . S
N2577 C2580 1.279 . S
C2578 C2576 1.353 . S
C2578 C2581 1.348 . S
C2578 H2626 0.929 . S
C2579 C2580 1.358 . S
C2579 C2581 1.356 . S
C2579 H2627 0.930 . S
C2580 N2577 1.279 . S
C2580 C2579 1.358 . S
C2580 H2583 0.930 . S
C2581 C2578 1.348 . S
C2581 C2579 1.356 . S
H2582 C2576 0.930 . S
H2583 C2580 0.930 . S
C2584 C2586 1.337 1_455 S
C2584 C2587 1.356 . S
C2584 O2614 1.325 . S
N2585 C2588 1.314 1_455 S
N2585 C2589 1.279 . S
C2586 C2584 1.337 1_655 S
C2586 C2588 1.357 . S
C2586 H2628 0.936 . S
C2587 C2584 1.356 . S
C2587 C2589 1.358 . S
C2587 H2629 0.930 . S
C2588 N2585 1.314 1_655 S
C2588 C2586 1.357 . S
C2588 H2630 0.930 . S
C2589 N2585 1.279 . S
C2589 C2587 1.358 . S
C2589 H2631 0.930 . S
C2590 C2591 1.348 1_455 S
C2590 C2592 1.356 . S
C2590 O2615 1.325 . S
C2591 C2590 1.348 1_655 S
C2591 C2593 1.353 . S
C2591 H2632 0.932 . S
C2592 C2590 1.356 . S
C2592 C2594 1.358 1_455 S
C2592 H2633 0.930 . S
C2593 C2591 1.353 . S
C2593 N2595 1.314 . S
C2593 H2634 0.930 . S
C2594 C2592 1.358 1_655 S
C2594 N2595 1.279 . S
C2594 H2635 0.930 . S
N2595 C2593 1.314 . S
N2595 C2594 1.279 . S
C2596 C2598 1.353 . S
C2596 N2599 1.314 . S
C2596 H2602 0.930 . S
C2597 N2599 1.279 . S
C2597 C2600 1.358 . S
C2597 H2603 0.930 . S
C2598 C2596 1.353 . S
C2598 C2601 1.348 . S
C2598 H2636 0.929 . S
N2599 Li2554 1.990 . S
N2599 C2596 1.314 . S
N2599 C2597 1.279 . S
C2600 C2597 1.358 . S
C2600 C2601 1.356 . S
C2600 H2637 0.930 . S
C2601 C2598 1.348 . S
C2601 C2600 1.356 . S
H2602 C2596 0.930 . S
H2603 C2597 0.930 . S
C2604 N2605 1.314 . S
C2604 C2606 1.353 . S
C2604 H2610 0.930 . S
N2605 Li2555 1.990 1_655 S
N2605 C2604 1.314 . S
N2605 C2608 1.279 . S
C2606 C2604 1.353 . S
C2606 C2609 1.348 . S
C2606 H2638 0.929 . S
C2607 C2608 1.358 . S
C2607 C2609 1.356 . S
C2607 H2639 0.930 . S
C2608 N2605 1.279 . S
C2608 C2607 1.358 . S
C2608 H2611 0.930 . S
C2609 C2606 1.348 . S
C2609 C2607 1.356 . S
H2610 C2604 0.930 . S
H2611 C2608 0.930 . S
O2612 Li2552 1.956 . S
O2612 Li2553 1.970 . S
O2612 Li2554 1.961 . S
O2612 C2556 1.325 . S
O2613 Li2552 1.970 . S
O2613 Li2553 1.956 . S
O2613 Li2555 1.961 . S
O2613 C2562 1.325 . S
O2614 Li2552 1.961 . S
O2614 Li2554 1.956 . S
O2614 Li2555 1.970 . S
O2614 C2584 1.325 . S
O2615 Li2553 1.961 . S
O2615 Li2554 1.970 . S
O2615 Li2555 1.956 . S
O2615 C2590 1.325 . S
H2616 C2558 0.929 . S
H2617 C2559 0.930 . S
H2618 C2560 0.930 . S
H2619 C2561 0.930 . S
H2620 C2563 0.930 . S
H2621 C2565 0.929 . S
H2622 C2566 0.930 . S
H2623 C2567 0.930 . S
H2624 C2570 0.930 . S
H2625 C2573 0.929 . S
H2626 C2578 0.929 . S
H2627 C2579 0.930 . S
H2628 C2586 0.936 . S
H2629 C2587 0.930 . S
H2630 C2588 0.930 . S
H2631 C2589 0.930 . S
H2632 C2591 0.932 . S
H2633 C2592 0.930 . S
H2634 C2593 0.930 . S
H2635 C2594 0.930 . S
H2636 C2598 0.929 . S
H2637 C2600 0.930 . S
H2638 C2606 0.929 . S
H2639 C2607 0.930 . S
Li2640 N2657 1.990 . S
Li2640 O2700 1.956 . S
Li2640 O2701 1.970 . S
Li2640 O2702 1.961 . S
Li2641 N2665 1.990 . S
Li2641 O2700 1.970 . S
Li2641 O2701 1.956 . S
Li2641 O2703 1.961 . S
Li2642 N2687 1.990 . S
Li2642 O2700 1.961 . S
Li2642 O2702 1.956 . S
Li2642 O2703 1.970 . S
Li2643 N2693 1.990 . S
Li2643 O2701 1.961 . S
Li2643 O2702 1.970 . S
Li2643 O2703 1.956 . S
C2644 C2646 1.348 . S
C2644 C2647 1.356 . S
C2644 O2700 1.325 . S
N2645 C2648 1.314 . S
N2645 C2649 1.279 . S
C2646 C2644 1.348 . S
C2646 C2648 1.353 . S
C2646 H2704 0.929 . S
C2647 C2644 1.356 . S
C2647 C2649 1.358 . S
C2647 H2705 0.930 . S
C2648 N2645 1.314 . S
C2648 C2646 1.353 . S
C2648 H2706 0.930 . S
C2649 N2645 1.279 . S
C2649 C2647 1.358 . S
C2649 H2707 0.930 . S
C2650 C2653 1.348 . S
C2650 C2654 1.356 . S
C2650 O2701 1.325 . S
C2651 N2652 1.279 . S
C2651 C2654 1.358 . S
C2651 H2708 0.930 . S
N2652 C2651 1.279 . S
N2652 C2655 1.314 . S
C2653 C2650 1.348 . S
C2653 C2655 1.353 . S
C2653 H2709 0.929 . S
C2654 C2650 1.356 . S
C2654 C2651 1.358 . S
C2654 H2710 0.930 . S
C2655 N2652 1.314 . S
C2655 C2653 1.353 . S
C2655 H2711 0.930 . S
C2656 N2657 1.314 . S
C2656 C2661 1.353 . S
C2656 H2662 0.930 . S
N2657 Li2640 1.990 . S
N2657 C2656 1.314 . S
N2657 C2659 1.279 . S
C2658 C2659 1.358 . S
C2658 C2660 1.356 . S
C2658 H2712 0.930 . S
C2659 N2657 1.279 . S
C2659 C2658 1.358 . S
C2659 H2663 0.930 . S
C2660 C2658 1.356 . S
C2660 C2661 1.348 . S
C2661 C2656 1.353 . S
C2661 C2660 1.348 . S
C2661 H2713 0.929 . S
H2662 C2656 0.930 . S
H2663 C2659 0.930 . S
C2664 N2665 1.314 . S
C2664 C2666 1.353 . S
C2664 H2670 0.930 . S
N2665 Li2641 1.990 . S
N2665 C2664 1.314 . S
N2665 C2668 1.279 . S
C2666 C2664 1.353 . S
C2666 C2669 1.348 . S
C2666 H2714 0.929 . S
C2667 C2668 1.358 . S
C2667 C2669 1.356 . S
C2667 H2715 0.930 . S
C2668 N2665 1.279 . S
C2668 C2667 1.358 . S
C2668 H2671 0.930 . S
C2669 C2666 1.348 . S
C2669 C2667 1.356 . S
H2670 C2664 0.930 . S
H2671 C2668 0.930 . S
C2672 C2674 1.348 . S
C2672 C2675 1.356 . S
C2672 O2702 1.325 . S
N2673 C2676 1.314 . S
N2673 C2677 1.279 . S
C2674 C2672 1.348 . S
C2674 C2676 1.353 . S
C2674 H2716 0.929 . S
C2675 C2672 1.356 . S
C2675 C2677 1.358 . S
C2675 H2717 0.930 . S
C2676 N2673 1.314 . S
C2676 C2674 1.353 . S
C2676 H2718 0.930 . S
C2677 N2673 1.279 . S
C2677 C2675 1.358 . S
C2677 H2719 0.930 . S
C2678 C2679 1.348 . S
C2678 C2680 1.356 . S
C2678 O2703 1.325 . S
C2679 C2678 1.348 . S
C2679 C2681 1.353 . S
C2679 H2720 0.929 . S
C2680 C2678 1.356 . S
C2680 C2682 1.358 . S
C2680 H2721 0.930 . S
C2681 C2679 1.353 . S
C2681 N2683 1.314 . S
C2681 H2722 0.930 . S
C2682 C2680 1.358 . S
C2682 N2683 1.279 . S
C2682 H2723 0.930 . S
N2683 C2681 1.314 . S
N2683 C2682 1.279 . S
C2684 C2686 1.353 . S
C2684 N2687 1.314 . S
C2684 H2690 0.930 . S
C2685 N2687 1.279 . S
C2685 C2688 1.358 . S
C2685 H2691 0.930 . S
C2686 C2684 1.353 . S
C2686 C2689 1.348 . S
C2686 H2724 0.929 . S
N2687 Li2642 1.990 . S
N2687 C2684 1.314 . S
N2687 C2685 1.279 . S
C2688 C2685 1.358 . S
C2688 C2689 1.356 . S
C2688 H2725 0.930 . S
C2689 C2686 1.348 . S
C2689 C2688 1.356 . S
H2690 C2684 0.930 . S
H2691 C2685 0.930 . S
C2692 N2693 1.314 . S
C2692 C2694 1.353 . S
C2692 H2698 0.930 . S
N2693 Li2643 1.990 . S
N2693 C2692 1.314 . S
N2693 C2696 1.279 . S
C2694 C2692 1.353 . S
C2694 C2697 1.348 . S
C2694 H2726 0.929 . S
C2695 C2696 1.358 . S
C2695 C2697 1.356 . S
C2695 H2727 0.930 . S
C2696 N2693 1.279 . S
C2696 C2695 1.358 . S
C2696 H2699 0.930 . S
C2697 C2694 1.348 . S
C2697 C2695 1.356 . S
H2698 C2692 0.930 . S
H2699 C2696 0.930 . S
O2700 Li2640 1.956 . S
O2700 Li2641 1.970 . S
O2700 Li2642 1.961 . S
O2700 C2644 1.325 . S
O2701 Li2640 1.970 . S
O2701 Li2641 1.956 . S
O2701 Li2643 1.961 . S
O2701 C2650 1.325 . S
O2702 Li2640 1.961 . S
O2702 Li2642 1.956 . S
O2702 Li2643 1.970 . S
O2702 C2672 1.325 . S
O2703 Li2641 1.961 . S
O2703 Li2642 1.970 . S
O2703 Li2643 1.956 . S
O2703 C2678 1.325 . S
H2704 C2646 0.929 . S
H2705 C2647 0.930 . S
H2706 C2648 0.930 . S
H2707 C2649 0.930 . S
H2708 C2651 0.930 . S
H2709 C2653 0.929 . S
H2710 C2654 0.930 . S
H2711 C2655 0.930 . S
H2712 C2658 0.930 . S
H2713 C2661 0.929 . S
H2714 C2666 0.929 . S
H2715 C2667 0.930 . S
H2716 C2674 0.929 . S
H2717 C2675 0.930 . S
H2718 C2676 0.930 . S
H2719 C2677 0.930 . S
H2720 C2679 0.929 . S
H2721 C2680 0.930 . S
H2722 C2681 0.930 . S
H2723 C2682 0.930 . S
H2724 C2686 0.929 . S
H2725 C2688 0.930 . S
H2726 C2694 0.929 . S
H2727 C2695 0.930 . S
Li2728 N2745 1.990 . S
Li2728 O2788 1.956 . S
Li2728 O2789 1.970 . S
Li2728 O2790 1.961 . S
Li2729 N2753 1.990 . S
Li2729 O2788 1.970 . S
Li2729 O2789 1.956 . S
Li2729 O2791 1.961 . S
Li2730 N2775 1.990 . S
Li2730 O2788 1.961 . S
Li2730 O2790 1.956 . S
Li2730 O2791 1.970 . S
Li2731 N2781 1.990 . S
Li2731 O2789 1.961 . S
Li2731 O2790 1.970 . S
Li2731 O2791 1.956 . S
C2732 C2734 1.348 . S
C2732 C2735 1.356 . S
C2732 O2788 1.325 . S
N2733 C2736 1.314 . S
N2733 C2737 1.279 . S
C2734 C2732 1.348 . S
C2734 C2736 1.353 . S
C2734 H2792 0.929 . S
C2735 C2732 1.356 . S
C2735 C2737 1.358 . S
C2735 H2793 0.930 . S
C2736 N2733 1.314 . S
C2736 C2734 1.353 . S
C2736 H2794 0.930 . S
C2737 N2733 1.279 . S
C2737 C2735 1.358 . S
C2737 H2795 0.930 . S
C2738 C2741 1.348 . S
C2738 C2742 1.356 . S
C2738 O2789 1.325 . S
C2739 N2740 1.279 . S
C2739 C2742 1.358 . S
C2739 H2796 0.930 . S
N2740 C2739 1.279 . S
N2740 C2743 1.314 . S
C2741 C2738 1.348 . S
C2741 C2743 1.353 . S
C2741 H2797 0.929 . S
C2742 C2738 1.356 . S
C2742 C2739 1.358 . S
C2742 H2798 0.930 . S
C2743 N2740 1.314 . S
C2743 C2741 1.353 . S
C2743 H2799 0.930 . S
C2744 N2745 1.314 . S
C2744 C2749 1.353 . S
C2744 H2750 0.930 . S
N2745 Li2728 1.990 . S
N2745 C2744 1.314 . S
N2745 C2747 1.279 . S
C2746 C2747 1.358 . S
C2746 C2748 1.356 . S
C2746 H2800 0.930 . S
C2747 N2745 1.279 . S
C2747 C2746 1.358 . S
C2747 H2751 0.930 . S
C2748 C2746 1.356 . S
C2748 C2749 1.348 . S
C2749 C2744 1.353 . S
C2749 C2748 1.348 . S
C2749 H2801 0.929 . S
H2750 C2744 0.930 . S
H2751 C2747 0.930 . S
C2752 N2753 1.314 . S
C2752 C2754 1.353 . S
C2752 H2758 0.930 . S
N2753 Li2729 1.990 . S
N2753 C2752 1.314 . S
N2753 C2756 1.279 . S
C2754 C2752 1.353 . S
C2754 C2757 1.348 . S
C2754 H2802 0.929 . S
C2755 C2756 1.358 . S
C2755 C2757 1.356 . S
C2755 H2803 0.930 . S
C2756 N2753 1.279 . S
C2756 C2755 1.358 . S
C2756 H2759 0.930 . S
C2757 C2754 1.348 . S
C2757 C2755 1.356 . S
H2758 C2752 0.930 . S
H2759 C2756 0.930 . S
C2760 C2762 1.348 . S
C2760 C2763 1.356 . S
C2760 O2790 1.325 . S
N2761 C2764 1.314 . S
N2761 C2765 1.279 . S
C2762 C2760 1.348 . S
C2762 C2764 1.353 . S
C2762 H2804 0.929 . S
C2763 C2760 1.356 . S
C2763 C2765 1.358 . S
C2763 H2805 0.930 . S
C2764 N2761 1.314 . S
C2764 C2762 1.353 . S
C2764 H2806 0.930 . S
C2765 N2761 1.279 . S
C2765 C2763 1.358 . S
C2765 H2807 0.930 . S
C2766 C2767 1.348 . S
C2766 C2768 1.356 . S
C2766 O2791 1.325 . S
C2767 C2766 1.348 . S
C2767 C2769 1.353 . S
C2767 H2808 0.929 . S
C2768 C2766 1.356 . S
C2768 C2770 1.358 . S
C2768 H2809 0.930 . S
C2769 C2767 1.353 . S
C2769 N2771 1.314 . S
C2769 H2810 0.930 . S
C2770 C2768 1.358 . S
C2770 N2771 1.279 . S
C2770 H2811 0.930 . S
N2771 C2769 1.314 . S
N2771 C2770 1.279 . S
C2772 C2774 1.353 . S
C2772 N2775 1.314 . S
C2772 H2778 0.930 . S
C2773 N2775 1.279 . S
C2773 C2776 1.358 . S
C2773 H2779 0.930 . S
C2774 C2772 1.353 . S
C2774 C2777 1.348 . S
C2774 H2812 0.929 . S
N2775 Li2730 1.990 . S
N2775 C2772 1.314 . S
N2775 C2773 1.279 . S
C2776 C2773 1.358 . S
C2776 C2777 1.356 . S
C2776 H2813 0.930 . S
C2777 C2774 1.348 . S
C2777 C2776 1.356 . S
H2778 C2772 0.930 . S
H2779 C2773 0.930 . S
C2780 N2781 1.314 . S
C2780 C2782 1.353 . S
C2780 H2786 0.930 . S
N2781 Li2731 1.990 . S
N2781 C2780 1.314 . S
N2781 C2784 1.279 . S
C2782 C2780 1.353 . S
C2782 C2785 1.348 . S
C2782 H2814 0.929 . S
C2783 C2784 1.358 . S
C2783 C2785 1.356 . S
C2783 H2815 0.930 . S
C2784 N2781 1.279 . S
C2784 C2783 1.358 . S
C2784 H2787 0.930 . S
C2785 C2782 1.348 . S
C2785 C2783 1.356 . S
H2786 C2780 0.930 . S
H2787 C2784 0.930 . S
O2788 Li2728 1.956 . S
O2788 Li2729 1.970 . S
O2788 Li2730 1.961 . S
O2788 C2732 1.325 . S
O2789 Li2728 1.970 . S
O2789 Li2729 1.956 . S
O2789 Li2731 1.961 . S
O2789 C2738 1.325 . S
O2790 Li2728 1.961 . S
O2790 Li2730 1.956 . S
O2790 Li2731 1.970 . S
O2790 C2760 1.325 . S
O2791 Li2729 1.961 . S
O2791 Li2730 1.970 . S
O2791 Li2731 1.956 . S
O2791 C2766 1.325 . S
H2792 C2734 0.929 . S
H2793 C2735 0.930 . S
H2794 C2736 0.930 . S
H2795 C2737 0.930 . S
H2796 C2739 0.930 . S
H2797 C2741 0.929 . S
H2798 C2742 0.930 . S
H2799 C2743 0.930 . S
H2800 C2746 0.930 . S
H2801 C2749 0.929 . S
H2802 C2754 0.929 . S
H2803 C2755 0.930 . S
H2804 C2762 0.929 . S
H2805 C2763 0.930 . S
H2806 C2764 0.930 . S
H2807 C2765 0.930 . S
H2808 C2767 0.929 . S
H2809 C2768 0.930 . S
H2810 C2769 0.930 . S
H2811 C2770 0.930 . S
H2812 C2774 0.929 . S
H2813 C2776 0.930 . S
H2814 C2782 0.929 . S
H2815 C2783 0.930 . S
H2816 C2822 0.930 . S
H2817 C2826 0.930 . S
H2818 C2831 0.929 . S
H2819 C2829 0.929 . S
H2820 C2824 0.929 . S
H2821 C2830 0.929 . S
C2822 H2816 0.930 . S
C2822 C2823 1.367 . S
C2822 C2830 1.378 . S
C2823 C2822 1.367 . S
C2823 C2831 1.433 . S
C2824 H2820 0.929 . S
C2824 C2826 1.378 . S
C2824 C2828 1.350 . S
C2825 C2828 1.463 . S
C2825 C2830 1.350 . S
C2825 N2833 1.427 . S
C2826 H2817 0.930 . S
C2826 C2824 1.378 . S
C2826 C2827 1.367 . S
C2827 C2826 1.367 . S
C2827 C2829 1.433 . S
C2828 C2824 1.350 . S
C2828 C2825 1.463 . S
C2828 N2832 1.427 . S
C2829 H2819 0.929 . S
C2829 C2827 1.433 . S
C2829 N2832 1.384 . S
C2830 H2821 0.929 . S
C2830 C2822 1.378 . S
C2830 C2825 1.350 . S
C2831 H2818 0.929 . S
C2831 C2823 1.433 . S
C2831 N2833 1.384 . S
N2832 C2828 1.427 . S
N2832 C2829 1.384 . S
N2833 C2825 1.427 . S
N2833 C2831 1.384 . S
H2834 C2840 0.930 . S
H2835 C2844 0.930 . S
H2836 C2849 0.929 . S
H2837 C2847 0.929 . S
H2838 C2842 0.929 . S
H2839 C2848 0.929 . S
C2840 H2834 0.930 . S
C2840 C2841 1.367 . S
C2840 C2848 1.378 . S
C2841 C2840 1.367 . S
C2841 C2849 1.433 . S
C2842 H2838 0.929 . S
C2842 C2844 1.378 . S
C2842 C2846 1.350 . S
C2843 C2846 1.463 . S
C2843 C2848 1.350 . S
C2843 N2851 1.427 . S
C2844 H2835 0.930 . S
C2844 C2842 1.378 . S
C2844 C2845 1.367 . S
C2845 C2844 1.367 . S
C2845 C2847 1.433 . S
C2846 C2842 1.350 . S
C2846 C2843 1.463 . S
C2846 N2850 1.427 . S
C2847 H2837 0.929 . S
C2847 C2845 1.433 . S
C2847 N2850 1.384 . S
C2848 H2839 0.929 . S
C2848 C2840 1.378 . S
C2848 C2843 1.350 . S
C2849 H2836 0.929 . S
C2849 C2841 1.433 . S
C2849 N2851 1.384 . S
N2850 C2846 1.427 . S
N2850 C2847 1.384 . S
N2851 C2843 1.427 . S
N2851 C2849 1.384 . S
H2852 C2858 0.930 . S
H2853 C2862 0.930 . S
H2854 C2867 0.929 . S
H2855 C2865 0.929 . S
H2856 C2860 0.929 . S
H2857 C2866 0.929 . S
C2858 H2852 0.930 . S
C2858 C2859 1.367 . S
C2858 C2866 1.378 . S
C2859 C2858 1.367 . S
C2859 C2867 1.433 . S
C2860 H2856 0.929 . S
C2860 C2862 1.378 . S
C2860 C2864 1.350 . S
C2861 C2864 1.463 . S
C2861 C2866 1.350 . S
C2861 N2869 1.427 . S
C2862 H2853 0.930 . S
C2862 C2860 1.378 . S
C2862 C2863 1.367 . S
C2863 C2862 1.367 . S
C2863 C2865 1.433 . S
C2864 C2860 1.350 . S
C2864 C2861 1.463 . S
C2864 N2868 1.427 . S
C2865 H2855 0.929 . S
C2865 C2863 1.433 . S
C2865 N2868 1.384 . S
C2866 H2857 0.929 . S
C2866 C2858 1.378 . S
C2866 C2861 1.350 . S
C2867 H2854 0.929 . S
C2867 C2859 1.433 . S
C2867 N2869 1.384 . S
N2868 C2864 1.427 . S
N2868 C2865 1.384 . S
N2869 C2861 1.427 . S
N2869 C2867 1.384 . S
H2870 C2876 0.930 . S
H2871 C2880 0.930 . S
H2872 C2885 0.929 . S
H2873 C2883 0.929 . S
H2874 C2878 0.929 . S
H2875 C2884 0.929 . S
C2876 H2870 0.930 . S
C2876 C2877 1.367 . S
C2876 C2884 1.378 . S
C2877 C2876 1.367 . S
C2877 C2885 1.433 . S
C2878 H2874 0.929 . S
C2878 C2880 1.378 . S
C2878 C2882 1.350 . S
C2879 C2882 1.463 . S
C2879 C2884 1.350 . S
C2879 N2887 1.427 . S
C2880 H2871 0.930 . S
C2880 C2878 1.378 . S
C2880 C2881 1.367 . S
C2881 C2880 1.367 . S
C2881 C2883 1.433 . S
C2882 C2878 1.350 . S
C2882 C2879 1.463 . S
C2882 N2886 1.427 . S
C2883 H2873 0.929 . S
C2883 C2881 1.433 . S
C2883 N2886 1.384 . S
C2884 H2875 0.929 . S
C2884 C2876 1.378 . S
C2884 C2879 1.350 . S
C2885 H2872 0.929 . S
C2885 C2877 1.433 . S
C2885 N2887 1.384 . S
N2886 C2882 1.427 . S
N2886 C2883 1.384 . S
N2887 C2879 1.427 . S
N2887 C2885 1.384 . S
H2888 C2894 0.930 . S
H2889 C2898 0.930 . S
H2890 C2903 0.929 . S
H2891 C2901 0.929 . S
H2892 C2896 0.929 . S
H2893 C2902 0.929 . S
C2894 H2888 0.930 . S
C2894 C2895 1.367 . S
C2894 C2902 1.378 . S
C2895 C2894 1.367 . S
C2895 C2903 1.433 . S
C2896 H2892 0.929 . S
C2896 C2898 1.378 . S
C2896 C2900 1.350 . S
C2897 C2900 1.463 . S
C2897 C2902 1.350 . S
C2897 N2905 1.427 . S
C2898 H2889 0.930 . S
C2898 C2896 1.378 . S
C2898 C2899 1.367 . S
C2899 C2898 1.367 . S
C2899 C2901 1.433 . S
C2900 C2896 1.350 . S
C2900 C2897 1.463 . S
C2900 N2904 1.427 . S
C2901 H2891 0.929 . S
C2901 C2899 1.433 . S
C2901 N2904 1.384 . S
C2902 H2893 0.929 . S
C2902 C2894 1.378 . S
C2902 C2897 1.350 . S
C2903 H2890 0.929 . S
C2903 C2895 1.433 . S
C2903 N2905 1.384 . S
N2904 C2900 1.427 . S
N2904 C2901 1.384 . S
N2905 C2897 1.427 . S
N2905 C2903 1.384 . S
H2906 C2912 0.930 . S
H2907 C2916 0.930 . S
H2908 C2921 0.929 . S
H2909 C2919 0.929 . S
H2910 C2914 0.929 . S
H2911 C2920 0.929 . S
C2912 H2906 0.930 . S
C2912 C2913 1.367 . S
C2912 C2920 1.378 . S
C2913 C2912 1.367 . S
C2913 C2921 1.433 . S
C2914 H2910 0.929 . S
C2914 C2916 1.378 . S
C2914 C2918 1.350 . S
C2915 C2918 1.463 . S
C2915 C2920 1.350 . S
C2915 N2923 1.427 . S
C2916 H2907 0.930 . S
C2916 C2914 1.378 . S
C2916 C2917 1.367 . S
C2917 C2916 1.367 . S
C2917 C2919 1.433 . S
C2918 C2914 1.350 . S
C2918 C2915 1.463 . S
C2918 N2922 1.427 . S
C2919 H2909 0.929 . S
C2919 C2917 1.433 . S
C2919 N2922 1.384 . S
C2920 H2911 0.929 . S
C2920 C2912 1.378 . S
C2920 C2915 1.350 . S
C2921 H2908 0.929 . S
C2921 C2913 1.433 . S
C2921 N2923 1.384 . S
N2922 C2918 1.427 . S
N2922 C2919 1.384 . S
N2923 C2915 1.427 . S
N2923 C2921 1.384 . S
H2924 C2930 0.930 . S
H2925 C2934 0.930 . S
H2926 C2939 0.929 . S
H2927 C2937 0.929 . S
H2928 C2932 0.929 . S
H2929 C2938 0.929 . S
C2930 H2924 0.930 . S
C2930 C2931 1.367 . S
C2930 C2938 1.378 . S
C2931 C2930 1.367 . S
C2931 C2939 1.433 . S
C2932 H2928 0.929 . S
C2932 C2934 1.378 . S
C2932 C2936 1.350 . S
C2933 C2936 1.463 . S
C2933 C2938 1.350 . S
C2933 N2941 1.427 . S
C2934 H2925 0.930 . S
C2934 C2932 1.378 . S
C2934 C2935 1.367 . S
C2935 C2934 1.367 . S
C2935 C2937 1.433 . S
C2936 C2932 1.350 . S
C2936 C2933 1.463 . S
C2936 N2940 1.427 . S
C2937 H2927 0.929 . S
C2937 C2935 1.433 . S
C2937 N2940 1.384 . S
C2938 H2929 0.929 . S
C2938 C2930 1.378 . S
C2938 C2933 1.350 . S
C2939 H2926 0.929 . S
C2939 C2931 1.433 . S
C2939 N2941 1.384 . S
N2940 C2936 1.427 . S
N2940 C2937 1.384 . S
N2941 C2933 1.427 . S
N2941 C2939 1.384 . S
H2942 C2948 0.930 . S
H2943 C2952 0.930 . S
H2944 C2957 0.929 . S
H2945 C2955 0.929 . S
H2946 C2950 0.929 . S
H2947 C2956 0.929 . S
C2948 H2942 0.930 . S
C2948 C2949 1.367 . S
C2948 C2956 1.378 . S
C2949 C2948 1.367 . S
C2949 C2957 1.433 . S
C2950 H2946 0.929 . S
C2950 C2952 1.378 . S
C2950 C2954 1.350 . S
C2951 C2954 1.463 . S
C2951 C2956 1.350 . S
C2951 N2959 1.427 . S
C2952 H2943 0.930 . S
C2952 C2950 1.378 . S
C2952 C2953 1.367 . S
C2953 C2952 1.367 . S
C2953 C2955 1.433 . S
C2954 C2950 1.350 . S
C2954 C2951 1.463 . S
C2954 N2958 1.427 . S
C2955 H2945 0.929 . S
C2955 C2953 1.433 . S
C2955 N2958 1.384 . S
C2956 H2947 0.929 . S
C2956 C2948 1.378 . S
C2956 C2951 1.350 . S
C2957 H2944 0.929 . S
C2957 C2949 1.433 . S
C2957 N2959 1.384 . S
N2958 C2954 1.427 . S
N2958 C2955 1.384 . S
N2959 C2951 1.427 . S
N2959 C2957 1.384 . S
H2960 C2966 0.930 . S
H2961 C2970 0.930 . S
H2962 C2975 0.929 . S
H2963 C2973 0.929 . S
H2964 C2968 0.929 . S
H2965 C2974 0.929 . S
C2966 H2960 0.930 . S
C2966 C2967 1.367 . S
C2966 C2974 1.378 . S
C2967 C2966 1.367 . S
C2967 C2975 1.433 . S
C2968 H2964 0.929 . S
C2968 C2970 1.378 . S
C2968 C2972 1.350 . S
C2969 C2972 1.463 . S
C2969 C2974 1.350 . S
C2969 N2977 1.427 . S
C2970 H2961 0.930 . S
C2970 C2968 1.378 . S
C2970 C2971 1.367 . S
C2971 C2970 1.367 . S
C2971 C2973 1.433 . S
C2972 C2968 1.350 . S
C2972 C2969 1.463 . S
C2972 N2976 1.427 . S
C2973 H2963 0.929 . S
C2973 C2971 1.433 . S
C2973 N2976 1.384 . S
C2974 H2965 0.929 . S
C2974 C2966 1.378 . S
C2974 C2969 1.350 . S
C2975 H2962 0.929 . S
C2975 C2967 1.433 . S
C2975 N2977 1.384 . S
N2976 C2972 1.427 . S
N2976 C2973 1.384 . S
N2977 C2969 1.427 . S
N2977 C2975 1.384 . S
H2978 C2984 0.930 . S
H2979 C2988 0.930 . S
H2980 C2993 0.929 . S
H2981 C2991 0.929 . S
H2982 C2986 0.929 . S
H2983 C2992 0.929 . S
C2984 H2978 0.930 . S
C2984 C2985 1.367 . S
C2984 C2992 1.378 . S
C2985 C2984 1.367 . S
C2985 C2993 1.433 . S
C2986 H2982 0.929 . S
C2986 C2988 1.378 . S
C2986 C2990 1.350 . S
C2987 C2990 1.463 . S
C2987 C2992 1.350 . S
C2987 N2995 1.427 . S
C2988 H2979 0.930 . S
C2988 C2986 1.378 . S
C2988 C2989 1.367 . S
C2989 C2988 1.367 . S
C2989 C2991 1.433 . S
C2990 C2986 1.350 . S
C2990 C2987 1.463 . S
C2990 N2994 1.427 . S
C2991 H2981 0.929 . S
C2991 C2989 1.433 . S
C2991 N2994 1.384 . S
C2992 H2983 0.929 . S
C2992 C2984 1.378 . S
C2992 C2987 1.350 . S
C2993 H2980 0.929 . S
C2993 C2985 1.433 . S
C2993 N2995 1.384 . S
N2994 C2990 1.427 . S
N2994 C2991 1.384 . S
N2995 C2987 1.427 . S
N2995 C2993 1.384 . S
H2996 C3002 0.930 . S
H2997 C3006 0.930 . S
H2998 C3011 0.929 . S
H2999 C3009 0.929 . S
H3000 C3004 0.929 . S
H3001 C3010 0.929 . S
C3002 H2996 0.930 . S
C3002 C3003 1.367 . S
C3002 C3010 1.378 . S
C3003 C3002 1.367 . S
C3003 C3011 1.433 . S
C3004 H3000 0.929 . S
C3004 C3006 1.378 . S
C3004 C3008 1.350 . S
C3005 C3008 1.463 . S
C3005 C3010 1.350 . S
C3005 N3013 1.427 . S
C3006 H2997 0.930 . S
C3006 C3004 1.378 . S
C3006 C3007 1.367 . S
C3007 C3006 1.367 . S
C3007 C3009 1.433 . S
C3008 C3004 1.350 . S
C3008 C3005 1.463 . S
C3008 N3012 1.427 . S
C3009 H2999 0.929 . S
C3009 C3007 1.433 . S
C3009 N3012 1.384 . S
C3010 H3001 0.929 . S
C3010 C3002 1.378 . S
C3010 C3005 1.350 . S
C3011 H2998 0.929 . S
C3011 C3003 1.433 . S
C3011 N3013 1.384 . S
N3012 C3008 1.427 . S
N3012 C3009 1.384 . S
N3013 C3005 1.427 . S
N3013 C3011 1.384 . S
H3014 C3020 0.930 . S
H3015 C3024 0.930 . S
H3016 C3029 0.929 . S
H3017 C3027 0.929 . S
H3018 C3022 0.929 . S
H3019 C3028 0.929 . S
C3020 H3014 0.930 . S
C3020 C3021 1.367 . S
C3020 C3028 1.378 . S
C3021 C3020 1.367 . S
C3021 C3029 1.433 . S
C3022 H3018 0.929 . S
C3022 C3024 1.378 . S
C3022 C3026 1.350 . S
C3023 C3026 1.463 . S
C3023 C3028 1.350 . S
C3023 N3031 1.427 . S
C3024 H3015 0.930 . S
C3024 C3022 1.378 . S
C3024 C3025 1.367 . S
C3025 C3024 1.367 . S
C3025 C3027 1.433 . S
C3026 C3022 1.350 . S
C3026 C3023 1.463 . S
C3026 N3030 1.427 . S
C3027 H3017 0.929 . S
C3027 C3025 1.433 . S
C3027 N3030 1.384 . S
C3028 H3019 0.929 . S
C3028 C3020 1.378 . S
C3028 C3023 1.350 . S
C3029 H3016 0.929 . S
C3029 C3021 1.433 . S
C3029 N3031 1.384 . S
N3030 C3026 1.427 . S
N3030 C3027 1.384 . S
N3031 C3023 1.427 . S
N3031 C3029 1.384 . S
H3032 C3038 0.930 . S
H3033 C3042 0.930 . S
H3034 C3047 0.929 . S
H3035 C3045 0.929 . S
H3036 C3040 0.929 . S
H3037 C3046 0.929 . S
C3038 H3032 0.930 . S
C3038 C3039 1.367 . S
C3038 C3046 1.378 . S
C3039 C3038 1.367 . S
C3039 C3047 1.433 . S
C3040 H3036 0.929 . S
C3040 C3042 1.378 . S
C3040 C3044 1.350 . S
C3041 C3044 1.463 . S
C3041 C3046 1.350 . S
C3041 N3049 1.427 . S
C3042 H3033 0.930 . S
C3042 C3040 1.378 . S
C3042 C3043 1.367 . S
C3043 C3042 1.367 . S
C3043 C3045 1.433 . S
C3044 C3040 1.350 . S
C3044 C3041 1.463 . S
C3044 N3048 1.427 . S
C3045 H3035 0.929 . S
C3045 C3043 1.433 . S
C3045 N3048 1.384 . S
C3046 H3037 0.929 . S
C3046 C3038 1.378 . S
C3046 C3041 1.350 . S
C3047 H3034 0.929 . S
C3047 C3039 1.433 . S
C3047 N3049 1.384 . S
N3048 C3044 1.427 . S
N3048 C3045 1.384 . S
N3049 C3041 1.427 . S
N3049 C3047 1.384 . S
H3050 C3056 0.930 . S
H3051 C3060 0.930 . S
H3052 C3065 0.929 . S
H3053 C3063 0.929 . S
H3054 C3058 0.929 . S
H3055 C3064 0.929 . S
C3056 H3050 0.930 . S
C3056 C3057 1.367 . S
C3056 C3064 1.378 . S
C3057 C3056 1.367 . S
C3057 C3065 1.433 . S
C3058 H3054 0.929 . S
C3058 C3060 1.378 . S
C3058 C3062 1.350 . S
C3059 C3062 1.463 . S
C3059 C3064 1.350 . S
C3059 N3067 1.427 . S
C3060 H3051 0.930 . S
C3060 C3058 1.378 . S
C3060 C3061 1.367 . S
C3061 C3060 1.367 . S
C3061 C3063 1.433 . S
C3062 C3058 1.350 . S
C3062 C3059 1.463 . S
C3062 N3066 1.427 . S
C3063 H3053 0.929 . S
C3063 C3061 1.433 . S
C3063 N3066 1.384 . S
C3064 H3055 0.929 . S
C3064 C3056 1.378 . S
C3064 C3059 1.350 . S
C3065 H3052 0.929 . S
C3065 C3057 1.433 . S
C3065 N3067 1.384 . S
N3066 C3062 1.427 . S
N3066 C3063 1.384 . S
N3067 C3059 1.427 . S
N3067 C3065 1.384 . S
H3068 C3074 0.930 . S
H3069 C3078 0.930 . S
H3070 C3083 0.929 . S
H3071 C3081 0.929 . S
H3072 C3076 0.929 . S
H3073 C3082 0.929 . S
C3074 H3068 0.930 . S
C3074 C3075 1.367 . S
C3074 C3082 1.378 . S
C3075 C3074 1.367 . S
C3075 C3083 1.433 . S
C3076 H3072 0.929 . S
C3076 C3078 1.378 . S
C3076 C3080 1.350 . S
C3077 C3080 1.463 . S
C3077 C3082 1.350 . S
C3077 N3085 1.427 . S
C3078 H3069 0.930 . S
C3078 C3076 1.378 . S
C3078 C3079 1.367 . S
C3079 C3078 1.367 . S
C3079 C3081 1.433 . S
C3080 C3076 1.350 . S
C3080 C3077 1.463 . S
C3080 N3084 1.427 . S
C3081 H3071 0.929 . S
C3081 C3079 1.433 . S
C3081 N3084 1.384 . S
C3082 H3073 0.929 . S
C3082 C3074 1.378 . S
C3082 C3077 1.350 . S
C3083 H3070 0.929 . S
C3083 C3075 1.433 . S
C3083 N3085 1.384 . S
N3084 C3080 1.427 . S
N3084 C3081 1.384 . S
N3085 C3077 1.427 . S
N3085 C3083 1.384 . S
H3086 C3092 0.930 . S
H3087 C3096 0.930 . S
H3088 C3101 0.929 . S
H3089 C3099 0.929 . S
H3090 C3094 0.929 . S
H3091 C3100 0.929 . S
C3092 H3086 0.930 . S
C3092 C3093 1.367 . S
C3092 C3100 1.378 . S
C3093 C3092 1.367 . S
C3093 C3101 1.433 . S
C3094 H3090 0.929 . S
C3094 C3096 1.378 . S
C3094 C3098 1.350 . S
C3095 C3098 1.463 . S
C3095 C3100 1.350 . S
C3095 N3103 1.427 . S
C3096 H3087 0.930 . S
C3096 C3094 1.378 . S
C3096 C3097 1.367 . S
C3097 C3096 1.367 . S
C3097 C3099 1.433 . S
C3098 C3094 1.350 . S
C3098 C3095 1.463 . S
C3098 N3102 1.427 . S
C3099 H3089 0.929 . S
C3099 C3097 1.433 . S
C3099 N3102 1.384 . S
C3100 H3091 0.929 . S
C3100 C3092 1.378 . S
C3100 C3095 1.350 . S
C3101 H3088 0.929 . S
C3101 C3093 1.433 . S
C3101 N3103 1.384 . S
N3102 C3098 1.427 . S
N3102 C3099 1.384 . S
N3103 C3095 1.427 . S
N3103 C3101 1.384 . S
H3104 C3110 0.930 . S
H3105 C3114 0.930 . S
H3106 C3119 0.929 . S
H3107 C3117 0.929 . S
H3108 C3112 0.929 . S
H3109 C3118 0.929 . S
C3110 H3104 0.930 . S
C3110 C3111 1.367 . S
C3110 C3118 1.378 . S
C3111 C3110 1.367 . S
C3111 C3119 1.433 . S
C3112 H3108 0.929 . S
C3112 C3114 1.378 . S
C3112 C3116 1.350 . S
C3113 C3116 1.463 . S
C3113 C3118 1.350 . S
C3113 N3121 1.427 . S
C3114 H3105 0.930 . S
C3114 C3112 1.378 . S
C3114 C3115 1.367 . S
C3115 C3114 1.367 . S
C3115 C3117 1.433 . S
C3116 C3112 1.350 . S
C3116 C3113 1.463 . S
C3116 N3120 1.427 . S
C3117 H3107 0.929 . S
C3117 C3115 1.433 . S
C3117 N3120 1.384 . S
C3118 H3109 0.929 . S
C3118 C3110 1.378 . S
C3118 C3113 1.350 . S
C3119 H3106 0.929 . S
C3119 C3111 1.433 . S
C3119 N3121 1.384 . S
N3120 C3116 1.427 . S
N3120 C3117 1.384 . S
N3121 C3113 1.427 . S
N3121 C3119 1.384 . S
H3122 C3128 0.930 . S
H3123 C3132 0.930 . S
H3124 C3137 0.929 . S
H3125 C3135 0.929 . S
H3126 C3130 0.929 . S
H3127 C3136 0.929 . S
C3128 H3122 0.930 . S
C3128 C3129 1.367 . S
C3128 C3136 1.378 . S
C3129 C3128 1.367 . S
C3129 C3137 1.433 . S
C3130 H3126 0.929 . S
C3130 C3132 1.378 . S
C3130 C3134 1.350 . S
C3131 C3134 1.463 . S
C3131 C3136 1.350 . S
C3131 N3139 1.427 . S
C3132 H3123 0.930 . S
C3132 C3130 1.378 . S
C3132 C3133 1.367 . S
C3133 C3132 1.367 . S
C3133 C3135 1.433 . S
C3134 C3130 1.350 . S
C3134 C3131 1.463 . S
C3134 N3138 1.427 . S
C3135 H3125 0.929 . S
C3135 C3133 1.433 . S
C3135 N3138 1.384 . S
C3136 H3127 0.929 . S
C3136 C3128 1.378 . S
C3136 C3131 1.350 . S
C3137 H3124 0.929 . S
C3137 C3129 1.433 . S
C3137 N3139 1.384 . S
N3138 C3134 1.427 . S
N3138 C3135 1.384 . S
N3139 C3131 1.427 . S
N3139 C3137 1.384 . S
H3140 C3146 0.930 . S
H3141 C3150 0.930 . S
H3142 C3155 0.929 . S
H3143 C3153 0.929 . S
H3144 C3148 0.929 . S
H3145 C3154 0.929 . S
C3146 H3140 0.930 . S
C3146 C3147 1.367 . S
C3146 C3154 1.378 . S
C3147 C3146 1.367 . S
C3147 C3155 1.433 . S
C3148 H3144 0.929 . S
C3148 C3150 1.378 . S
C3148 C3152 1.350 . S
C3149 C3152 1.463 . S
C3149 C3154 1.350 . S
C3149 N3157 1.427 . S
C3150 H3141 0.930 . S
C3150 C3148 1.378 . S
C3150 C3151 1.367 . S
C3151 C3150 1.367 . S
C3151 C3153 1.433 . S
C3152 C3148 1.350 . S
C3152 C3149 1.463 . S
C3152 N3156 1.427 . S
C3153 H3143 0.929 . S
C3153 C3151 1.433 . S
C3153 N3156 1.384 . S
C3154 H3145 0.929 . S
C3154 C3146 1.378 . S
C3154 C3149 1.350 . S
C3155 H3142 0.929 . S
C3155 C3147 1.433 . S
C3155 N3157 1.384 . S
N3156 C3152 1.427 . S
N3156 C3153 1.384 . S
N3157 C3149 1.427 . S
N3157 C3155 1.384 . S
H3158 C3164 0.930 . S
H3159 C3168 0.930 . S
H3160 C3173 0.929 . S
H3161 C3171 0.929 . S
H3162 C3166 0.929 . S
H3163 C3172 0.929 . S
C3164 H3158 0.930 . S
C3164 C3165 1.367 . S
C3164 C3172 1.378 . S
C3165 C3164 1.367 . S
C3165 C3173 1.433 . S
C3166 H3162 0.929 . S
C3166 C3168 1.378 . S
C3166 C3170 1.350 . S
C3167 C3170 1.463 . S
C3167 C3172 1.350 . S
C3167 N3175 1.427 . S
C3168 H3159 0.930 . S
C3168 C3166 1.378 . S
C3168 C3169 1.367 . S
C3169 C3168 1.367 . S
C3169 C3171 1.433 . S
C3170 C3166 1.350 . S
C3170 C3167 1.463 . S
C3170 N3174 1.427 . S
C3171 H3161 0.929 . S
C3171 C3169 1.433 . S
C3171 N3174 1.384 . S
C3172 H3163 0.929 . S
C3172 C3164 1.378 . S
C3172 C3167 1.350 . S
C3173 H3160 0.929 . S
C3173 C3165 1.433 . S
C3173 N3175 1.384 . S
N3174 C3170 1.427 . S
N3174 C3171 1.384 . S
N3175 C3167 1.427 . S
N3175 C3173 1.384 . S
H3176 C3182 0.930 . S
H3177 C3186 0.930 . S
H3178 C3191 0.929 . S
H3179 C3189 0.929 . S
H3180 C3184 0.929 . S
H3181 C3190 0.929 . S
C3182 H3176 0.930 . S
C3182 C3183 1.367 . S
C3182 C3190 1.378 . S
C3183 C3182 1.367 . S
C3183 C3191 1.433 . S
C3184 H3180 0.929 . S
C3184 C3186 1.378 . S
C3184 C3188 1.350 . S
C3185 C3188 1.463 . S
C3185 C3190 1.350 . S
C3185 N3193 1.427 . S
C3186 H3177 0.930 . S
C3186 C3184 1.378 . S
C3186 C3187 1.367 . S
C3187 C3186 1.367 . S
C3187 C3189 1.433 . S
C3188 C3184 1.350 . S
C3188 C3185 1.463 . S
C3188 N3192 1.427 . S
C3189 H3179 0.929 . S
C3189 C3187 1.433 . S
C3189 N3192 1.384 . S
C3190 H3181 0.929 . S
C3190 C3182 1.378 . S
C3190 C3185 1.350 . S
C3191 H3178 0.929 . S
C3191 C3183 1.433 . S
C3191 N3193 1.384 . S
N3192 C3188 1.427 . S
N3192 C3189 1.384 . S
N3193 C3185 1.427 . S
N3193 C3191 1.384 . S
H3194 C3200 0.930 . S
H3195 C3204 0.930 . S
H3196 C3209 0.929 . S
H3197 C3207 0.929 . S
H3198 C3202 0.929 . S
H3199 C3208 0.929 . S
C3200 H3194 0.930 . S
C3200 C3201 1.367 . S
C3200 C3208 1.378 . S
C3201 C3200 1.367 . S
C3201 C3209 1.433 . S
C3202 H3198 0.929 . S
C3202 C3204 1.378 . S
C3202 C3206 1.350 . S
C3203 C3206 1.463 . S
C3203 C3208 1.350 . S
C3203 N3211 1.427 . S
C3204 H3195 0.930 . S
C3204 C3202 1.378 . S
C3204 C3205 1.367 . S
C3205 C3204 1.367 . S
C3205 C3207 1.433 . S
C3206 C3202 1.350 . S
C3206 C3203 1.463 . S
C3206 N3210 1.427 . S
C3207 H3197 0.929 . S
C3207 C3205 1.433 . S
C3207 N3210 1.384 . S
C3208 H3199 0.929 . S
C3208 C3200 1.378 . S
C3208 C3203 1.350 . S
C3209 H3196 0.929 . S
C3209 C3201 1.433 . S
C3209 N3211 1.384 . S
N3210 C3206 1.427 . S
N3210 C3207 1.384 . S
N3211 C3203 1.427 . S
N3211 C3209 1.384 . S
H3212 C3218 0.930 . S
H3213 C3222 0.930 . S
H3214 C3227 0.929 . S
H3215 C3225 0.929 . S
H3216 C3220 0.929 . S
H3217 C3226 0.929 . S
C3218 H3212 0.930 . S
C3218 C3219 1.367 . S
C3218 C3226 1.378 . S
C3219 C3218 1.367 . S
C3219 C3227 1.433 . S
C3220 H3216 0.929 . S
C3220 C3222 1.378 . S
C3220 C3224 1.350 . S
C3221 C3224 1.463 . S
C3221 C3226 1.350 . S
C3221 N3229 1.427 . S
C3222 H3213 0.930 . S
C3222 C3220 1.378 . S
C3222 C3223 1.367 . S
C3223 C3222 1.367 . S
C3223 C3225 1.433 . S
C3224 C3220 1.350 . S
C3224 C3221 1.463 . S
C3224 N3228 1.427 . S
C3225 H3215 0.929 . S
C3225 C3223 1.433 . S
C3225 N3228 1.384 . S
C3226 H3217 0.929 . S
C3226 C3218 1.378 . S
C3226 C3221 1.350 . S
C3227 H3214 0.929 . S
C3227 C3219 1.433 . S
C3227 N3229 1.384 . S
N3228 C3224 1.427 . S
N3228 C3225 1.384 . S
N3229 C3221 1.427 . S
N3229 C3227 1.384 . S
H3230 C3236 0.930 . S
H3231 C3240 0.930 . S
H3232 C3245 0.929 . S
H3233 C3243 0.929 . S
H3234 C3238 0.929 . S
H3235 C3244 0.929 . S
C3236 H3230 0.930 . S
C3236 C3237 1.367 . S
C3236 C3244 1.378 . S
C3237 C3236 1.367 . S
C3237 C3245 1.433 . S
C3238 H3234 0.929 . S
C3238 C3240 1.378 . S
C3238 C3242 1.350 . S
C3239 C3242 1.463 . S
C3239 C3244 1.350 . S
C3239 N3247 1.427 . S
C3240 H3231 0.930 . S
C3240 C3238 1.378 . S
C3240 C3241 1.367 . S
C3241 C3240 1.367 . S
C3241 C3243 1.433 . S
C3242 C3238 1.350 . S
C3242 C3239 1.463 . S
C3242 N3246 1.427 . S
C3243 H3233 0.929 . S
C3243 C3241 1.433 . S
C3243 N3246 1.384 . S
C3244 H3235 0.929 . S
C3244 C3236 1.378 . S
C3244 C3239 1.350 . S
C3245 H3232 0.929 . S
C3245 C3237 1.433 . S
C3245 N3247 1.384 . S
N3246 C3242 1.427 . S
N3246 C3243 1.384 . S
N3247 C3239 1.427 . S
N3247 C3245 1.384 . S
H3248 C3254 0.930 . S
H3249 C3258 0.930 . S
H3250 C3263 0.929 . S
H3251 C3261 0.929 . S
H3252 C3256 0.929 . S
H3253 C3262 0.929 . S
C3254 H3248 0.930 . S
C3254 C3255 1.367 . S
C3254 C3262 1.378 . S
C3255 C3254 1.367 . S
C3255 C3263 1.433 . S
C3256 H3252 0.929 . S
C3256 C3258 1.378 . S
C3256 C3260 1.350 . S
C3257 C3260 1.463 . S
C3257 C3262 1.350 . S
C3257 N3265 1.427 . S
C3258 H3249 0.930 . S
C3258 C3256 1.378 . S
C3258 C3259 1.367 . S
C3259 C3258 1.367 . S
C3259 C3261 1.433 . S
C3260 C3256 1.350 . S
C3260 C3257 1.463 . S
C3260 N3264 1.427 . S
C3261 H3251 0.929 . S
C3261 C3259 1.433 . S
C3261 N3264 1.384 . S
C3262 H3253 0.929 . S
C3262 C3254 1.378 . S
C3262 C3257 1.350 . S
C3263 H3250 0.929 . S
C3263 C3255 1.433 . S
C3263 N3265 1.384 . S
N3264 C3260 1.427 . S
N3264 C3261 1.384 . S
N3265 C3257 1.427 . S
N3265 C3263 1.384 . S
H3266 C3272 0.930 . S
H3267 C3276 0.930 . S
H3268 C3281 0.929 . S
H3269 C3279 0.929 . S
H3270 C3274 0.929 . S
H3271 C3280 0.929 . S
C3272 H3266 0.930 . S
C3272 C3273 1.367 . S
C3272 C3280 1.378 . S
C3273 C3272 1.367 . S
C3273 C3281 1.433 . S
C3274 H3270 0.929 . S
C3274 C3276 1.378 . S
C3274 C3278 1.350 . S
C3275 C3278 1.463 . S
C3275 C3280 1.350 . S
C3275 N3283 1.427 . S
C3276 H3267 0.930 . S
C3276 C3274 1.378 . S
C3276 C3277 1.367 . S
C3277 C3276 1.367 . S
C3277 C3279 1.433 . S
C3278 C3274 1.350 . S
C3278 C3275 1.463 . S
C3278 N3282 1.427 . S
C3279 H3269 0.929 . S
C3279 C3277 1.433 . S
C3279 N3282 1.384 . S
C3280 H3271 0.929 . S
C3280 C3272 1.378 . S
C3280 C3275 1.350 . S
C3281 H3268 0.929 . S
C3281 C3273 1.433 . S
C3281 N3283 1.384 . S
N3282 C3278 1.427 . S
N3282 C3279 1.384 . S
N3283 C3275 1.427 . S
N3283 C3281 1.384 . S
H3284 C3290 0.930 . S
H3285 C3294 0.930 . S
H3286 C3299 0.929 . S
H3287 C3297 0.929 . S
H3288 C3292 0.929 . S
H3289 C3298 0.929 . S
C3290 H3284 0.930 . S
C3290 C3291 1.367 . S
C3290 C3298 1.378 . S
C3291 C3290 1.367 . S
C3291 C3299 1.433 . S
C3292 H3288 0.929 . S
C3292 C3294 1.378 . S
C3292 C3296 1.350 . S
C3293 C3296 1.463 . S
C3293 C3298 1.350 . S
C3293 N3301 1.427 . S
C3294 H3285 0.930 . S
C3294 C3292 1.378 . S
C3294 C3295 1.367 . S
C3295 C3294 1.367 . S
C3295 C3297 1.433 . S
C3296 C3292 1.350 . S
C3296 C3293 1.463 . S
C3296 N3300 1.427 . S
C3297 H3287 0.929 . S
C3297 C3295 1.433 . S
C3297 N3300 1.384 . S
C3298 H3289 0.929 . S
C3298 C3290 1.378 . S
C3298 C3293 1.350 . S
C3299 H3286 0.929 . S
C3299 C3291 1.433 . S
C3299 N3301 1.384 . S
N3300 C3296 1.427 . S
N3300 C3297 1.384 . S
N3301 C3293 1.427 . S
N3301 C3299 1.384 . S
H3302 C3308 0.930 . S
H3303 C3312 0.930 . S
H3304 C3317 0.929 . S
H3305 C3315 0.929 . S
H3306 C3310 0.929 . S
H3307 C3316 0.929 . S
C3308 H3302 0.930 . S
C3308 C3309 1.367 . S
C3308 C3316 1.378 . S
C3309 C3308 1.367 . S
C3309 C3317 1.433 . S
C3310 H3306 0.929 . S
C3310 C3312 1.378 . S
C3310 C3314 1.350 . S
C3311 C3314 1.463 . S
C3311 C3316 1.350 . S
C3311 N3319 1.427 . S
C3312 H3303 0.930 . S
C3312 C3310 1.378 . S
C3312 C3313 1.367 . S
C3313 C3312 1.367 . S
C3313 C3315 1.433 . S
C3314 C3310 1.350 . S
C3314 C3311 1.463 . S
C3314 N3318 1.427 . S
C3315 H3305 0.929 . S
C3315 C3313 1.433 . S
C3315 N3318 1.384 . S
C3316 H3307 0.929 . S
C3316 C3308 1.378 . S
C3316 C3311 1.350 . S
C3317 H3304 0.929 . S
C3317 C3309 1.433 . S
C3317 N3319 1.384 . S
N3318 C3314 1.427 . S
N3318 C3315 1.384 . S
N3319 C3311 1.427 . S
N3319 C3317 1.384 . S
H3320 C3326 0.930 . S
H3321 C3330 0.930 . S
H3322 C3335 0.929 . S
H3323 C3333 0.929 . S
H3324 C3328 0.929 . S
H3325 C3334 0.929 . S
C3326 H3320 0.930 . S
C3326 C3327 1.367 . S
C3326 C3334 1.378 . S
C3327 C3326 1.367 . S
C3327 C3335 1.433 . S
C3328 H3324 0.929 . S
C3328 C3330 1.378 . S
C3328 C3332 1.350 . S
C3329 C3332 1.463 . S
C3329 C3334 1.350 . S
C3329 N3337 1.427 . S
C3330 H3321 0.930 . S
C3330 C3328 1.378 . S
C3330 C3331 1.367 . S
C3331 C3330 1.367 . S
C3331 C3333 1.433 . S
C3332 C3328 1.350 . S
C3332 C3329 1.463 . S
C3332 N3336 1.427 . S
C3333 H3323 0.929 . S
C3333 C3331 1.433 . S
C3333 N3336 1.384 . S
C3334 H3325 0.929 . S
C3334 C3326 1.378 . S
C3334 C3329 1.350 . S
C3335 H3322 0.929 . S
C3335 C3327 1.433 . S
C3335 N3337 1.384 . S
N3336 C3332 1.427 . S
N3336 C3333 1.384 . S
N3337 C3329 1.427 . S
N3337 C3335 1.384 . S
H3338 C3344 0.930 . S
H3339 C3348 0.930 . S
H3340 C3353 0.929 . S
H3341 C3351 0.929 . S
H3342 C3346 0.929 . S
H3343 C3352 0.929 . S
C3344 H3338 0.930 . S
C3344 C3345 1.367 . S
C3344 C3352 1.378 . S
C3345 C3344 1.367 . S
C3345 C3353 1.433 . S
C3346 H3342 0.929 . S
C3346 C3348 1.378 . S
C3346 C3350 1.350 . S
C3347 C3350 1.463 . S
C3347 C3352 1.350 . S
C3347 N3355 1.427 . S
C3348 H3339 0.930 . S
C3348 C3346 1.378 . S
C3348 C3349 1.367 . S
C3349 C3348 1.367 . S
C3349 C3351 1.433 . S
C3350 C3346 1.350 . S
C3350 C3347 1.463 . S
C3350 N3354 1.427 . S
C3351 H3341 0.929 . S
C3351 C3349 1.433 . S
C3351 N3354 1.384 . S
C3352 H3343 0.929 . S
C3352 C3344 1.378 . S
C3352 C3347 1.350 . S
C3353 H3340 0.929 . S
C3353 C3345 1.433 . S
C3353 N3355 1.384 . S
N3354 C3350 1.427 . S
N3354 C3351 1.384 . S
N3355 C3347 1.427 . S
N3355 C3353 1.384 . S
H3356 C3362 0.930 . S
H3357 C3366 0.930 . S
H3358 C3371 0.929 . S
H3359 C3369 0.929 . S
H3360 C3364 0.929 . S
H3361 C3370 0.929 . S
C3362 H3356 0.930 . S
C3362 C3363 1.367 . S
C3362 C3370 1.378 . S
C3363 C3362 1.367 . S
C3363 C3371 1.433 . S
C3364 H3360 0.929 . S
C3364 C3366 1.378 . S
C3364 C3368 1.350 . S
C3365 C3368 1.463 . S
C3365 C3370 1.350 . S
C3365 N3373 1.427 . S
C3366 H3357 0.930 . S
C3366 C3364 1.378 . S
C3366 C3367 1.367 . S
C3367 C3366 1.367 . S
C3367 C3369 1.433 . S
C3368 C3364 1.350 . S
C3368 C3365 1.463 . S
C3368 N3372 1.427 . S
C3369 H3359 0.929 . S
C3369 C3367 1.433 . S
C3369 N3372 1.384 . S
C3370 H3361 0.929 . S
C3370 C3362 1.378 . S
C3370 C3365 1.350 . S
C3371 H3358 0.929 . S
C3371 C3363 1.433 . S
C3371 N3373 1.384 . S
N3372 C3368 1.427 . S
N3372 C3369 1.384 . S
N3373 C3365 1.427 . S
N3373 C3371 1.384 . S
H3374 C3380 0.930 . S
H3375 C3384 0.930 . S
H3376 C3389 0.929 . S
H3377 C3387 0.929 . S
H3378 C3382 0.929 . S
H3379 C3388 0.929 . S
C3380 H3374 0.930 . S
C3380 C3381 1.367 . S
C3380 C3388 1.378 . S
C3381 C3380 1.367 . S
C3381 C3389 1.433 . S
C3382 H3378 0.929 . S
C3382 C3384 1.378 . S
C3382 C3386 1.350 . S
C3383 C3386 1.463 . S
C3383 C3388 1.350 . S
C3383 N3391 1.427 . S
C3384 H3375 0.930 . S
C3384 C3382 1.378 . S
C3384 C3385 1.367 . S
C3385 C3384 1.367 . S
C3385 C3387 1.433 . S
C3386 C3382 1.350 . S
C3386 C3383 1.463 . S
C3386 N3390 1.427 . S
C3387 H3377 0.929 . S
C3387 C3385 1.433 . S
C3387 N3390 1.384 . S
C3388 H3379 0.929 . S
C3388 C3380 1.378 . S
C3388 C3383 1.350 . S
C3389 H3376 0.929 . S
C3389 C3381 1.433 . S
C3389 N3391 1.384 . S
N3390 C3386 1.427 . S
N3390 C3387 1.384 . S
N3391 C3383 1.427 . S
N3391 C3389 1.384 . S
H3392 C3398 0.930 . S
H3393 C3402 0.930 . S
H3394 C3407 0.929 . S
H3395 C3405 0.929 . S
H3396 C3400 0.929 . S
H3397 C3406 0.929 . S
C3398 H3392 0.930 . S
C3398 C3399 1.367 . S
C3398 C3406 1.378 . S
C3399 C3398 1.367 . S
C3399 C3407 1.433 . S
C3400 H3396 0.929 . S
C3400 C3402 1.378 . S
C3400 C3404 1.350 . S
C3401 C3404 1.463 . S
C3401 C3406 1.350 . S
C3401 N3409 1.427 . S
C3402 H3393 0.930 . S
C3402 C3400 1.378 . S
C3402 C3403 1.367 . S
C3403 C3402 1.367 . S
C3403 C3405 1.433 . S
C3404 C3400 1.350 . S
C3404 C3401 1.463 . S
C3404 N3408 1.427 . S
C3405 H3395 0.929 . S
C3405 C3403 1.433 . S
C3405 N3408 1.384 . S
C3406 H3397 0.929 . S
C3406 C3398 1.378 . S
C3406 C3401 1.350 . S
C3407 H3394 0.929 . S
C3407 C3399 1.433 . S
C3407 N3409 1.384 . S
N3408 C3404 1.427 . S
N3408 C3405 1.384 . S
N3409 C3401 1.427 . S
N3409 C3407 1.384 . S
H3410 C3416 0.930 . S
H3411 C3420 0.930 . S
H3412 C3425 0.929 1_655 S
H3413 C3423 0.929 1_455 S
H3414 C3418 0.929 . S
H3415 C3424 0.929 . S
C3416 H3410 0.930 . S
C3416 C3417 1.367 1_545 S
C3416 C3424 1.378 . S
C3417 C3416 1.367 1_565 S
C3417 C3425 1.433 . S
C3418 H3414 0.929 . S
C3418 C3420 1.378 . S
C3418 C3422 1.357 . S
C3419 C3422 1.462 1_455 S
C3419 C3424 1.352 1_565 S
C3419 N3427 1.425 1_455 S
C3420 H3411 0.930 . S
C3420 C3418 1.378 . S
C3420 C3421 1.367 1_565 S
C3421 C3420 1.367 1_545 S
C3421 C3423 1.433 . S
C3422 C3418 1.357 . S
C3422 C3419 1.462 1_655 S
C3422 N3426 1.420 1_665 S
C3423 H3413 0.929 1_655 S
C3423 C3421 1.433 . S
C3423 N3426 1.384 1_655 S
C3424 H3415 0.929 . S
C3424 C3416 1.378 . S
C3424 C3419 1.352 1_545 S
C3425 H3412 0.929 1_455 S
C3425 C3417 1.433 . S
C3425 N3427 1.384 1_455 S
N3426 C3422 1.420 1_445 S
N3426 C3423 1.384 1_455 S
N3427 C3419 1.425 1_655 S
N3427 C3425 1.384 1_655 S
H3428 C3434 0.930 . S
H3429 C3438 0.930 . S
H3430 C3443 0.929 . S
H3431 C3441 0.929 . S
H3432 C3436 0.929 . S
H3433 C3442 0.929 . S
C3434 H3428 0.930 . S
C3434 C3435 1.367 . S
C3434 C3442 1.378 . S
C3435 C3434 1.367 . S
C3435 C3443 1.433 . S
C3436 H3432 0.929 . S
C3436 C3438 1.378 . S
C3436 C3440 1.350 . S
C3437 C3440 1.463 . S
C3437 C3442 1.350 . S
C3437 N3445 1.427 . S
C3438 H3429 0.930 . S
C3438 C3436 1.378 . S
C3438 C3439 1.367 . S
C3439 C3438 1.367 . S
C3439 C3441 1.433 . S
C3440 C3436 1.350 . S
C3440 C3437 1.463 . S
C3440 N3444 1.427 . S
C3441 H3431 0.929 . S
C3441 C3439 1.433 . S
C3441 N3444 1.384 . S
C3442 H3433 0.929 . S
C3442 C3434 1.378 . S
C3442 C3437 1.350 . S
C3443 H3430 0.929 . S
C3443 C3435 1.433 . S
C3443 N3445 1.384 . S
N3444 C3440 1.427 . S
N3444 C3441 1.384 . S
N3445 C3437 1.427 . S
N3445 C3443 1.384 . S
H3446 C3452 0.930 . S
H3447 C3456 0.930 . S
H3448 C3461 0.929 . S
H3449 C3459 0.929 . S
H3450 C3454 0.929 . S
H3451 C3460 0.929 . S
C3452 H3446 0.930 . S
C3452 C3453 1.367 . S
C3452 C3460 1.378 . S
C3453 C3452 1.367 . S
C3453 C3461 1.433 1_545 S
C3454 H3450 0.929 . S
C3454 C3456 1.378 . S
C3454 C3458 1.382 . S
C3455 C3458 1.460 1_544 S
C3455 C3460 1.350 . S
C3455 N3463 1.427 1_545 S
C3456 H3447 0.930 . S
C3456 C3454 1.378 . S
C3456 C3457 1.367 . S
C3457 C3456 1.367 . S
C3457 C3459 1.433 1_565 S
C3458 C3454 1.382 . S
C3458 C3455 1.460 1_566 S
C3458 N3462 1.396 1_565 S
C3459 H3449 0.929 . S
C3459 C3457 1.433 1_545 S
C3459 N3462 1.384 . S
C3460 H3451 0.929 . S
C3460 C3452 1.378 . S
C3460 C3455 1.350 . S
C3461 H3448 0.929 . S
C3461 C3453 1.433 1_565 S
C3461 N3463 1.384 . S
N3462 C3458 1.396 1_545 S
N3462 C3459 1.384 . S
N3463 C3455 1.427 1_565 S
N3463 C3461 1.384 . S
H3464 C3470 0.930 . S
H3465 C3474 0.930 . S
H3466 C3479 0.929 . S
H3467 C3477 0.929 . S
H3468 C3472 0.929 . S
H3469 C3478 0.929 . S
C3470 H3464 0.930 . S
C3470 C3471 1.367 . S
C3470 C3478 1.378 . S
C3471 C3470 1.367 . S
C3471 C3479 1.433 . S
C3472 H3468 0.929 . S
C3472 C3474 1.378 . S
C3472 C3476 1.350 . S
C3473 C3476 1.463 . S
C3473 C3478 1.350 . S
C3473 N3481 1.427 . S
C3474 H3465 0.930 . S
C3474 C3472 1.378 . S
C3474 C3475 1.367 . S
C3475 C3474 1.367 . S
C3475 C3477 1.433 . S
C3476 C3472 1.350 . S
C3476 C3473 1.463 . S
C3476 N3480 1.427 . S
C3477 H3467 0.929 . S
C3477 C3475 1.433 . S
C3477 N3480 1.384 . S
C3478 H3469 0.929 . S
C3478 C3470 1.378 . S
C3478 C3473 1.350 . S
C3479 H3466 0.929 . S
C3479 C3471 1.433 . S
C3479 N3481 1.384 . S
N3480 C3476 1.427 . S
N3480 C3477 1.384 . S
N3481 C3473 1.427 . S
N3481 C3479 1.384 . S
H3482 C3488 0.930 . S
H3483 C3492 0.930 . S
H3484 C3497 0.929 . S
H3485 C3495 0.929 . S
H3486 C3490 0.929 . S
H3487 C3496 0.929 . S
C3488 H3482 0.930 . S
C3488 C3489 1.367 . S
C3488 C3496 1.378 . S
C3489 C3488 1.367 . S
C3489 C3497 1.433 1_565 S
C3490 H3486 0.929 . S
C3490 C3492 1.378 . S
C3490 C3494 1.377 . S
C3491 C3494 1.460 1_565 S
C3491 C3496 1.350 . S
C3491 N3499 1.427 1_565 S
C3492 H3483 0.930 . S
C3492 C3490 1.378 . S
C3492 C3493 1.367 . S
C3493 C3492 1.367 . S
C3493 C3495 1.433 1_545 S
C3494 C3490 1.377 . S
C3494 C3491 1.460 1_545 S
C3494 N3498 1.402 1_545 S
C3495 H3485 0.929 . S
C3495 C3493 1.433 1_565 S
C3495 N3498 1.384 . S
C3496 H3487 0.929 . S
C3496 C3488 1.378 . S
C3496 C3491 1.350 . S
C3497 H3484 0.929 . S
C3497 C3489 1.433 1_545 S
C3497 N3499 1.384 . S
N3498 C3494 1.402 1_565 S
N3498 C3495 1.384 . S
N3499 C3491 1.427 1_545 S
N3499 C3497 1.384 . S
H3500 C3506 0.930 . S
H3501 C3510 0.930 . S
H3502 C3515 0.929 . S
H3503 C3513 0.929 . S
H3504 C3508 0.929 . S
H3505 C3514 0.929 . S
C3506 H3500 0.930 . S
C3506 C3507 1.367 . S
C3506 C3514 1.378 . S
C3507 C3506 1.367 . S
C3507 C3515 1.433 . S
C3508 H3504 0.929 . S
C3508 C3510 1.378 . S
C3508 C3512 1.350 . S
C3509 C3512 1.463 . S
C3509 C3514 1.350 . S
C3509 N3517 1.427 . S
C3510 H3501 0.930 . S
C3510 C3508 1.378 . S
C3510 C3511 1.367 . S
C3511 C3510 1.367 . S
C3511 C3513 1.433 . S
C3512 C3508 1.350 . S
C3512 C3509 1.463 . S
C3512 N3516 1.427 . S
C3513 H3503 0.929 . S
C3513 C3511 1.433 . S
C3513 N3516 1.384 . S
C3514 H3505 0.929 . S
C3514 C3506 1.378 . S
C3514 C3509 1.350 . S
C3515 H3502 0.929 . S
C3515 C3507 1.433 . S
C3515 N3517 1.384 . S
N3516 C3512 1.427 . S
N3516 C3513 1.384 . S
N3517 C3509 1.427 . S
N3517 C3515 1.384 . S
H3518 C3524 0.930 . S
H3519 C3528 0.930 . S
H3520 C3533 0.929 . S
H3521 C3531 0.929 . S
H3522 C3526 0.929 1_455 S
H3523 C3532 0.929 1_655 S
C3524 H3518 0.930 . S
C3524 C3525 1.367 . S
C3524 C3532 1.378 . S
C3525 C3524 1.367 . S
C3525 C3533 1.433 1_545 S
C3526 H3522 0.929 1_655 S
C3526 C3528 1.378 . S
C3526 C3530 1.392 . S
C3527 C3530 1.459 1_446 S
C3527 C3532 1.350 . S
C3527 N3535 1.427 1_545 S
C3528 H3519 0.930 . S
C3528 C3526 1.378 . S
C3528 C3529 1.367 . S
C3529 C3528 1.367 . S
C3529 C3531 1.433 1_565 S
C3530 C3526 1.392 . S
C3530 C3527 1.459 1_664 S
C3530 N3534 1.387 1_565 S
C3531 H3521 0.929 . S
C3531 C3529 1.433 1_545 S
C3531 N3534 1.384 . S
C3532 H3523 0.929 1_455 S
C3532 C3524 1.378 . S
C3532 C3527 1.350 . S
C3533 H3520 0.929 . S
C3533 C3525 1.433 1_565 S
C3533 N3535 1.384 . S
N3534 C3530 1.387 1_545 S
N3534 C3531 1.384 . S
N3535 C3527 1.427 1_565 S
N3535 C3533 1.384 . S
H3536 C3542 0.930 . S
H3537 C3546 0.930 . S
H3538 C3551 0.929 . S
H3539 C3549 0.929 . S
H3540 C3544 0.929 . S
H3541 C3550 0.929 . S
C3542 H3536 0.930 . S
C3542 C3543 1.367 . S
C3542 C3550 1.378 . S
C3543 C3542 1.367 . S
C3543 C3551 1.433 . S
C3544 H3540 0.929 . S
C3544 C3546 1.378 . S
C3544 C3548 1.350 . S
C3545 C3548 1.463 . S
C3545 C3550 1.350 . S
C3545 N3553 1.427 . S
C3546 H3537 0.930 . S
C3546 C3544 1.378 . S
C3546 C3547 1.367 . S
C3547 C3546 1.367 . S
C3547 C3549 1.433 . S
C3548 C3544 1.350 . S
C3548 C3545 1.463 . S
C3548 N3552 1.427 . S
C3549 H3539 0.929 . S
C3549 C3547 1.433 . S
C3549 N3552 1.384 . S
C3550 H3541 0.929 . S
C3550 C3542 1.378 . S
C3550 C3545 1.350 . S
C3551 H3538 0.929 . S
C3551 C3543 1.433 . S
C3551 N3553 1.384 . S
N3552 C3548 1.427 . S
N3552 C3549 1.384 . S
N3553 C3545 1.427 . S
N3553 C3551 1.384 . S
H3554 C3560 0.930 . S
H3555 C3564 0.930 . S
H3556 C3569 0.929 . S
H3557 C3567 0.929 . S
H3558 C3562 0.929 . S
H3559 C3568 0.929 . S
C3560 H3554 0.930 . S
C3560 C3561 1.367 . S
C3560 C3568 1.378 . S
C3561 C3560 1.367 . S
C3561 C3569 1.433 . S
C3562 H3558 0.929 . S
C3562 C3564 1.378 . S
C3562 C3566 1.350 . S
C3563 C3566 1.463 . S
C3563 C3568 1.350 . S
C3563 N3571 1.427 . S
C3564 H3555 0.930 . S
C3564 C3562 1.378 . S
C3564 C3565 1.367 . S
C3565 C3564 1.367 . S
C3565 C3567 1.433 . S
C3566 C3562 1.350 . S
C3566 C3563 1.463 . S
C3566 N3570 1.427 . S
C3567 H3557 0.929 . S
C3567 C3565 1.433 . S
C3567 N3570 1.384 . S
C3568 H3559 0.929 . S
C3568 C3560 1.378 . S
C3568 C3563 1.350 . S
C3569 H3556 0.929 . S
C3569 C3561 1.433 . S
C3569 N3571 1.384 . S
N3570 C3566 1.427 . S
N3570 C3567 1.384 . S
N3571 C3563 1.427 . S
N3571 C3569 1.384 . S
H3572 C3578 0.930 . S
H3573 C3582 0.930 . S
H3574 C3587 0.929 . S
H3575 C3585 0.929 . S
H3576 C3580 0.929 . S
H3577 C3586 0.929 . S
C3578 H3572 0.930 . S
C3578 C3579 1.367 . S
C3578 C3586 1.378 . S
C3579 C3578 1.367 . S
C3579 C3587 1.433 . S
C3580 H3576 0.929 . S
C3580 C3582 1.378 . S
C3580 C3584 1.350 . S
C3581 C3584 1.463 . S
C3581 C3586 1.350 . S
C3581 N3589 1.427 . S
C3582 H3573 0.930 . S
C3582 C3580 1.378 . S
C3582 C3583 1.367 . S
C3583 C3582 1.367 . S
C3583 C3585 1.433 . S
C3584 C3580 1.350 . S
C3584 C3581 1.463 . S
C3584 N3588 1.427 . S
C3585 H3575 0.929 . S
C3585 C3583 1.433 . S
C3585 N3588 1.384 . S
C3586 H3577 0.929 . S
C3586 C3578 1.378 . S
C3586 C3581 1.350 . S
C3587 H3574 0.929 . S
C3587 C3579 1.433 . S
C3587 N3589 1.384 . S
N3588 C3584 1.427 . S
N3588 C3585 1.384 . S
N3589 C3581 1.427 . S
N3589 C3587 1.384 . S
H3590 C3596 0.930 . S
H3591 C3600 0.930 . S
H3592 C3605 0.929 . S
H3593 C3603 0.929 . S
H3594 C3598 0.929 . S
H3595 C3604 0.929 . S
C3596 H3590 0.930 . S
C3596 C3597 1.367 . S
C3596 C3604 1.378 . S
C3597 C3596 1.367 . S
C3597 C3605 1.433 . S
C3598 H3594 0.929 . S
C3598 C3600 1.378 . S
C3598 C3602 1.350 . S
C3599 C3602 1.463 . S
C3599 C3604 1.350 . S
C3599 N3607 1.427 . S
C3600 H3591 0.930 . S
C3600 C3598 1.378 . S
C3600 C3601 1.367 . S
C3601 C3600 1.367 . S
C3601 C3603 1.433 . S
C3602 C3598 1.350 . S
C3602 C3599 1.463 . S
C3602 N3606 1.427 . S
C3603 H3593 0.929 . S
C3603 C3601 1.433 . S
C3603 N3606 1.384 . S
C3604 H3595 0.929 . S
C3604 C3596 1.378 . S
C3604 C3599 1.350 . S
C3605 H3592 0.929 . S
C3605 C3597 1.433 . S
C3605 N3607 1.384 . S
N3606 C3602 1.427 . S
N3606 C3603 1.384 . S
N3607 C3599 1.427 . S
N3607 C3605 1.384 . S
H3608 C3614 0.930 . S
H3609 C3618 0.930 . S
H3610 C3623 0.929 . S
H3611 C3621 0.929 . S
H3612 C3616 0.929 . S
H3613 C3622 0.929 . S
C3614 H3608 0.930 . S
C3614 C3615 1.367 . S
C3614 C3622 1.378 . S
C3615 C3614 1.367 . S
C3615 C3623 1.433 . S
C3616 H3612 0.929 . S
C3616 C3618 1.378 . S
C3616 C3620 1.350 . S
C3617 C3620 1.463 1_554 S
C3617 C3622 1.350 . S
C3617 N3625 1.427 . S
C3618 H3609 0.930 . S
C3618 C3616 1.378 . S
C3618 C3619 1.367 . S
C3619 C3618 1.367 . S
C3619 C3621 1.433 . S
C3620 C3616 1.350 . S
C3620 C3617 1.463 1_556 S
C3620 N3624 1.427 . S
C3621 H3611 0.929 . S
C3621 C3619 1.433 . S
C3621 N3624 1.384 . S
C3622 H3613 0.929 . S
C3622 C3614 1.378 . S
C3622 C3617 1.350 . S
C3623 H3610 0.929 . S
C3623 C3615 1.433 . S
C3623 N3625 1.384 . S
N3624 C3620 1.427 . S
N3624 C3621 1.384 . S
N3625 C3617 1.427 . S
N3625 C3623 1.384 . S
H3626 C3632 0.930 . S
H3627 C3636 0.930 . S
H3628 C3641 0.929 1_655 S
H3629 C3639 0.929 1_455 S
H3630 C3634 0.929 . S
H3631 C3640 0.929 . S
C3632 H3626 0.930 . S
C3632 C3633 1.367 . S
C3632 C3640 1.378 . S
C3633 C3632 1.367 . S
C3633 C3641 1.433 . S
C3634 H3630 0.929 . S
C3634 C3636 1.378 . S
C3634 C3638 1.350 . S
C3635 C3638 1.463 1_455 S
C3635 C3640 1.350 . S
C3635 N3643 1.427 1_455 S
C3636 H3627 0.930 . S
C3636 C3634 1.378 . S
C3636 C3637 1.367 . S
C3637 C3636 1.367 . S
C3637 C3639 1.433 . S
C3638 C3634 1.350 . S
C3638 C3635 1.463 1_655 S
C3638 N3642 1.427 1_655 S
C3639 H3629 0.929 1_655 S
C3639 C3637 1.433 . S
C3639 N3642 1.384 1_655 S
C3640 H3631 0.929 . S
C3640 C3632 1.378 . S
C3640 C3635 1.350 . S
C3641 H3628 0.929 1_455 S
C3641 C3633 1.433 . S
C3641 N3643 1.384 1_455 S
N3642 C3638 1.427 1_455 S
N3642 C3639 1.384 1_455 S
N3643 C3635 1.427 1_655 S
N3643 C3641 1.384 1_655 S
H3644 C3650 0.930 . S
H3645 C3654 0.930 . S
H3646 C3659 0.929 . S
H3647 C3657 0.929 . S
H3648 C3652 0.929 . S
H3649 C3658 0.929 . S
C3650 H3644 0.930 . S
C3650 C3651 1.367 . S
C3650 C3658 1.378 . S
C3651 C3650 1.367 . S
C3651 C3659 1.433 1_455 S
C3652 H3648 0.929 . S
C3652 C3654 1.378 . S
C3652 C3656 1.350 . S
C3653 C3656 1.463 1_454 S
C3653 C3658 1.350 . S
C3653 N3661 1.427 1_455 S
C3654 H3645 0.930 . S
C3654 C3652 1.378 . S
C3654 C3655 1.367 . S
C3655 C3654 1.367 . S
C3655 C3657 1.433 1_655 S
C3656 C3652 1.350 . S
C3656 C3653 1.463 1_656 S
C3656 N3660 1.427 1_655 S
C3657 H3647 0.929 . S
C3657 C3655 1.433 1_455 S
C3657 N3660 1.384 . S
C3658 H3649 0.929 . S
C3658 C3650 1.378 . S
C3658 C3653 1.350 . S
C3659 H3646 0.929 . S
C3659 C3651 1.433 1_655 S
C3659 N3661 1.384 . S
N3660 C3656 1.427 1_455 S
N3660 C3657 1.384 . S
N3661 C3653 1.427 1_655 S
N3661 C3659 1.384 . S
H3662 C3668 0.930 . S
H3663 C3672 0.930 . S
H3664 C3677 0.929 . S
H3665 C3675 0.929 . S
H3666 C3670 0.929 . S
H3667 C3676 0.929 . S
C3668 H3662 0.930 . S
C3668 C3669 1.367 . S
C3668 C3676 1.378 . S
C3669 C3668 1.367 . S
C3669 C3677 1.433 . S
C3670 H3666 0.929 . S
C3670 C3672 1.378 . S
C3670 C3674 1.350 . S
C3671 C3674 1.463 . S
C3671 C3676 1.350 . S
C3671 N3679 1.427 . S
C3672 H3663 0.930 . S
C3672 C3670 1.378 . S
C3672 C3673 1.367 . S
C3673 C3672 1.367 . S
C3673 C3675 1.433 . S
C3674 C3670 1.350 . S
C3674 C3671 1.463 . S
C3674 N3678 1.427 . S
C3675 H3665 0.929 . S
C3675 C3673 1.433 . S
C3675 N3678 1.384 . S
C3676 H3667 0.929 . S
C3676 C3668 1.378 . S
C3676 C3671 1.350 . S
C3677 H3664 0.929 . S
C3677 C3669 1.433 . S
C3677 N3679 1.384 . S
N3678 C3674 1.427 . S
N3678 C3675 1.384 . S
N3679 C3671 1.427 . S
N3679 C3677 1.384 . S
H3680 C3686 0.930 . S
H3681 C3690 0.930 . S
H3682 C3695 0.929 . S
H3683 C3693 0.929 . S
H3684 C3688 0.929 . S
H3685 C3694 0.929 . S
C3686 H3680 0.930 . S
C3686 C3687 1.367 . S
C3686 C3694 1.378 . S
C3687 C3686 1.367 . S
C3687 C3695 1.433 . S
C3688 H3684 0.929 . S
C3688 C3690 1.378 . S
C3688 C3692 1.350 . S
C3689 C3692 1.463 . S
C3689 C3694 1.350 . S
C3689 N3697 1.427 . S
C3690 H3681 0.930 . S
C3690 C3688 1.378 . S
C3690 C3691 1.367 . S
C3691 C3690 1.367 . S
C3691 C3693 1.433 . S
C3692 C3688 1.350 . S
C3692 C3689 1.463 . S
C3692 N3696 1.427 . S
C3693 H3683 0.929 . S
C3693 C3691 1.433 . S
C3693 N3696 1.384 . S
C3694 H3685 0.929 . S
C3694 C3686 1.378 . S
C3694 C3689 1.350 . S
C3695 H3682 0.929 . S
C3695 C3687 1.433 . S
C3695 N3697 1.384 . S
N3696 C3692 1.427 . S
N3696 C3693 1.384 . S
N3697 C3689 1.427 . S
N3697 C3695 1.384 . S
H3698 C3704 0.930 . S
H3699 C3708 0.930 . S
H3700 C3713 0.929 . S
H3701 C3711 0.929 . S
H3702 C3706 0.929 . S
H3703 C3712 0.929 . S
C3704 H3698 0.930 . S
C3704 C3705 1.367 . S
C3704 C3712 1.378 . S
C3705 C3704 1.367 . S
C3705 C3713 1.433 . S
C3706 H3702 0.929 . S
C3706 C3708 1.378 . S
C3706 C3710 1.350 . S
C3707 C3710 1.463 . S
C3707 C3712 1.350 . S
C3707 N3715 1.427 . S
C3708 H3699 0.930 . S
C3708 C3706 1.378 . S
C3708 C3709 1.367 . S
C3709 C3708 1.367 . S
C3709 C3711 1.433 . S
C3710 C3706 1.350 . S
C3710 C3707 1.463 . S
C3710 N3714 1.427 . S
C3711 H3701 0.929 . S
C3711 C3709 1.433 . S
C3711 N3714 1.384 . S
C3712 H3703 0.929 . S
C3712 C3704 1.378 . S
C3712 C3707 1.350 . S
C3713 H3700 0.929 . S
C3713 C3705 1.433 . S
C3713 N3715 1.384 . S
N3714 C3710 1.427 . S
N3714 C3711 1.384 . S
N3715 C3707 1.427 . S
N3715 C3713 1.384 . S
H3716 C3722 0.930 . S
H3717 C3726 0.930 . S
H3718 C3731 0.929 . S
H3719 C3729 0.929 . S
H3720 C3724 0.929 . S
H3721 C3730 0.929 . S
C3722 H3716 0.930 . S
C3722 C3723 1.367 . S
C3722 C3730 1.378 . S
C3723 C3722 1.367 . S
C3723 C3731 1.433 . S
C3724 H3720 0.929 . S
C3724 C3726 1.378 . S
C3724 C3728 1.350 . S
C3725 C3728 1.463 . S
C3725 C3730 1.350 . S
C3725 N3733 1.427 . S
C3726 H3717 0.930 . S
C3726 C3724 1.378 . S
C3726 C3727 1.367 . S
C3727 C3726 1.367 . S
C3727 C3729 1.433 . S
C3728 C3724 1.350 . S
C3728 C3725 1.463 . S
C3728 N3732 1.427 . S
C3729 H3719 0.929 . S
C3729 C3727 1.433 . S
C3729 N3732 1.384 . S
C3730 H3721 0.929 . S
C3730 C3722 1.378 . S
C3730 C3725 1.350 . S
C3731 H3718 0.929 . S
C3731 C3723 1.433 . S
C3731 N3733 1.384 . S
N3732 C3728 1.427 . S
N3732 C3729 1.384 . S
N3733 C3725 1.427 . S
N3733 C3731 1.384 . S
H3734 C3740 0.930 . S
H3735 C3744 0.930 . S
H3736 C3749 0.929 . S
H3737 C3747 0.929 . S
H3738 C3742 0.929 . S
H3739 C3748 0.929 . S
C3740 H3734 0.930 . S
C3740 C3741 1.367 . S
C3740 C3748 1.378 . S
C3741 C3740 1.367 . S
C3741 C3749 1.433 . S
C3742 H3738 0.929 . S
C3742 C3744 1.378 . S
C3742 C3746 1.350 . S
C3743 C3746 1.463 . S
C3743 C3748 1.350 . S
C3743 N3751 1.427 . S
C3744 H3735 0.930 . S
C3744 C3742 1.378 . S
C3744 C3745 1.367 . S
C3745 C3744 1.367 . S
C3745 C3747 1.433 . S
C3746 C3742 1.350 . S
C3746 C3743 1.463 . S
C3746 N3750 1.427 . S
C3747 H3737 0.929 . S
C3747 C3745 1.433 . S
C3747 N3750 1.384 . S
C3748 H3739 0.929 . S
C3748 C3740 1.378 . S
C3748 C3743 1.350 . S
C3749 H3736 0.929 . S
C3749 C3741 1.433 . S
C3749 N3751 1.384 . S
N3750 C3746 1.427 . S
N3750 C3747 1.384 . S
N3751 C3743 1.427 . S
N3751 C3749 1.384 . S
H3752 C3758 0.930 . S
H3753 C3762 0.930 . S
H3754 C3767 0.929 . S
H3755 C3765 0.929 . S
H3756 C3760 0.929 . S
H3757 C3766 0.929 . S
C3758 H3752 0.930 . S
C3758 C3759 1.367 . S
C3758 C3766 1.378 . S
C3759 C3758 1.367 . S
C3759 C3767 1.433 . S
C3760 H3756 0.929 . S
C3760 C3762 1.378 . S
C3760 C3764 1.350 . S
C3761 C3764 1.463 . S
C3761 C3766 1.350 . S
C3761 N3769 1.427 . S
C3762 H3753 0.930 . S
C3762 C3760 1.378 . S
C3762 C3763 1.367 . S
C3763 C3762 1.367 . S
C3763 C3765 1.433 . S
C3764 C3760 1.350 . S
C3764 C3761 1.463 . S
C3764 N3768 1.427 . S
C3765 H3755 0.929 . S
C3765 C3763 1.433 . S
C3765 N3768 1.384 . S
C3766 H3757 0.929 . S
C3766 C3758 1.378 . S
C3766 C3761 1.350 . S
C3767 H3754 0.929 . S
C3767 C3759 1.433 . S
C3767 N3769 1.384 . S
N3768 C3764 1.427 . S
N3768 C3765 1.384 . S
N3769 C3761 1.427 . S
N3769 C3767 1.384 . S
H3770 C3776 0.930 . S
H3771 C3780 0.930 . S
H3772 C3785 0.929 . S
H3773 C3783 0.929 . S
H3774 C3778 0.929 . S
H3775 C3784 0.929 . S
C3776 H3770 0.930 . S
C3776 C3777 1.367 . S
C3776 C3784 1.378 . S
C3777 C3776 1.367 . S
C3777 C3785 1.433 . S
C3778 H3774 0.929 . S
C3778 C3780 1.378 . S
C3778 C3782 1.350 . S
C3779 C3782 1.463 . S
C3779 C3784 1.350 . S
C3779 N3787 1.427 . S
C3780 H3771 0.930 . S
C3780 C3778 1.378 . S
C3780 C3781 1.367 . S
C3781 C3780 1.367 . S
C3781 C3783 1.433 . S
C3782 C3778 1.350 . S
C3782 C3779 1.463 . S
C3782 N3786 1.427 . S
C3783 H3773 0.929 . S
C3783 C3781 1.433 . S
C3783 N3786 1.384 . S
C3784 H3775 0.929 . S
C3784 C3776 1.378 . S
C3784 C3779 1.350 . S
C3785 H3772 0.929 . S
C3785 C3777 1.433 . S
C3785 N3787 1.384 . S
N3786 C3782 1.427 . S
N3786 C3783 1.384 . S
N3787 C3779 1.427 . S
N3787 C3785 1.384 . S
H3788 C3794 0.930 . S
H3789 C3798 0.930 . S
H3790 C3803 0.929 . S
H3791 C3801 0.929 . S
H3792 C3796 0.929 . S
H3793 C3802 0.929 . S
C3794 H3788 0.930 . S
C3794 C3795 1.367 . S
C3794 C3802 1.378 . S
C3795 C3794 1.367 . S
C3795 C3803 1.433 . S
C3796 H3792 0.929 . S
C3796 C3798 1.378 . S
C3796 C3800 1.350 . S
C3797 C3800 1.463 . S
C3797 C3802 1.350 . S
C3797 N3805 1.427 . S
C3798 H3789 0.930 . S
C3798 C3796 1.378 . S
C3798 C3799 1.367 . S
C3799 C3798 1.367 . S
C3799 C3801 1.433 . S
C3800 C3796 1.350 . S
C3800 C3797 1.463 . S
C3800 N3804 1.427 . S
C3801 H3791 0.929 . S
C3801 C3799 1.433 . S
C3801 N3804 1.384 . S
C3802 H3793 0.929 . S
C3802 C3794 1.378 . S
C3802 C3797 1.350 . S
C3803 H3790 0.929 . S
C3803 C3795 1.433 . S
C3803 N3805 1.384 . S
N3804 C3800 1.427 . S
N3804 C3801 1.384 . S
N3805 C3797 1.427 . S
N3805 C3803 1.384 . S
H3806 C3812 0.930 . S
H3807 C3816 0.930 . S
H3808 C3821 0.929 . S
H3809 C3819 0.929 . S
H3810 C3814 0.929 . S
H3811 C3820 0.929 . S
C3812 H3806 0.930 . S
C3812 C3813 1.367 . S
C3812 C3820 1.378 . S
C3813 C3812 1.367 . S
C3813 C3821 1.433 . S
C3814 H3810 0.929 . S
C3814 C3816 1.378 . S
C3814 C3818 1.350 . S
C3815 C3818 1.463 . S
C3815 C3820 1.350 . S
C3815 N3823 1.427 . S
C3816 H3807 0.930 . S
C3816 C3814 1.378 . S
C3816 C3817 1.367 . S
C3817 C3816 1.367 . S
C3817 C3819 1.433 . S
C3818 C3814 1.350 . S
C3818 C3815 1.463 . S
C3818 N3822 1.427 . S
C3819 H3809 0.929 . S
C3819 C3817 1.433 . S
C3819 N3822 1.384 . S
C3820 H3811 0.929 . S
C3820 C3812 1.378 . S
C3820 C3815 1.350 . S
C3821 H3808 0.929 . S
C3821 C3813 1.433 . S
C3821 N3823 1.384 . S
N3822 C3818 1.427 . S
N3822 C3819 1.384 . S
N3823 C3815 1.427 . S
N3823 C3821 1.384 . S
H3824 C3830 0.930 . S
H3825 C3834 0.930 . S
H3826 C3839 0.929 . S
H3827 C3837 0.929 . S
H3828 C3832 0.929 . S
H3829 C3838 0.929 . S
C3830 H3824 0.930 . S
C3830 C3831 1.367 . S
C3830 C3838 1.378 . S
C3831 C3830 1.367 . S
C3831 C3839 1.433 . S
C3832 H3828 0.929 . S
C3832 C3834 1.378 . S
C3832 C3836 1.350 . S
C3833 C3836 1.463 . S
C3833 C3838 1.350 . S
C3833 N3841 1.427 . S
C3834 H3825 0.930 . S
C3834 C3832 1.378 . S
C3834 C3835 1.367 . S
C3835 C3834 1.367 . S
C3835 C3837 1.433 . S
C3836 C3832 1.350 . S
C3836 C3833 1.463 . S
C3836 N3840 1.427 . S
C3837 H3827 0.929 . S
C3837 C3835 1.433 . S
C3837 N3840 1.384 . S
C3838 H3829 0.929 . S
C3838 C3830 1.378 . S
C3838 C3833 1.350 . S
C3839 H3826 0.929 . S
C3839 C3831 1.433 . S
C3839 N3841 1.384 . S
N3840 C3836 1.427 . S
N3840 C3837 1.384 . S
N3841 C3833 1.427 . S
N3841 C3839 1.384 . S
H3842 C3848 0.930 . S
H3843 C3852 0.930 . S
H3844 C3857 0.929 . S
H3845 C3855 0.929 . S
H3846 C3850 0.929 . S
H3847 C3856 0.929 . S
C3848 H3842 0.930 . S
C3848 C3849 1.367 . S
C3848 C3856 1.378 . S
C3849 C3848 1.367 . S
C3849 C3857 1.433 . S
C3850 H3846 0.929 . S
C3850 C3852 1.378 . S
C3850 C3854 1.350 . S
C3851 C3854 1.463 . S
C3851 C3856 1.350 . S
C3851 N3859 1.427 . S
C3852 H3843 0.930 . S
C3852 C3850 1.378 . S
C3852 C3853 1.367 . S
C3853 C3852 1.367 . S
C3853 C3855 1.433 . S
C3854 C3850 1.350 . S
C3854 C3851 1.463 . S
C3854 N3858 1.427 . S
C3855 H3845 0.929 . S
C3855 C3853 1.433 . S
C3855 N3858 1.384 . S
C3856 H3847 0.929 . S
C3856 C3848 1.378 . S
C3856 C3851 1.350 . S
C3857 H3844 0.929 . S
C3857 C3849 1.433 . S
C3857 N3859 1.384 . S
N3858 C3854 1.427 . S
N3858 C3855 1.384 . S
N3859 C3851 1.427 . S
N3859 C3857 1.384 . S
H3860 C3866 0.930 . S
H3861 C3870 0.930 . S
H3862 C3875 0.929 . S
H3863 C3873 0.929 . S
H3864 C3868 0.929 . S
H3865 C3874 0.929 . S
C3866 H3860 0.930 . S
C3866 C3867 1.367 . S
C3866 C3874 1.378 . S
C3867 C3866 1.367 . S
C3867 C3875 1.433 . S
C3868 H3864 0.929 . S
C3868 C3870 1.378 . S
C3868 C3872 1.350 . S
C3869 C3872 1.463 . S
C3869 C3874 1.350 . S
C3869 N3877 1.427 . S
C3870 H3861 0.930 . S
C3870 C3868 1.378 . S
C3870 C3871 1.367 . S
C3871 C3870 1.367 . S
C3871 C3873 1.433 . S
C3872 C3868 1.350 . S
C3872 C3869 1.463 . S
C3872 N3876 1.427 . S
C3873 H3863 0.929 . S
C3873 C3871 1.433 . S
C3873 N3876 1.384 . S
C3874 H3865 0.929 . S
C3874 C3866 1.378 . S
C3874 C3869 1.350 . S
C3875 H3862 0.929 . S
C3875 C3867 1.433 . S
C3875 N3877 1.384 . S
N3876 C3872 1.427 . S
N3876 C3873 1.384 . S
N3877 C3869 1.427 . S
N3877 C3875 1.384 . S
H3878 C3884 0.930 . S
H3879 C3888 0.930 . S
H3880 C3893 0.929 . S
H3881 C3891 0.929 . S
H3882 C3886 0.929 . S
H3883 C3892 0.929 . S
C3884 H3878 0.930 . S
C3884 C3885 1.367 . S
C3884 C3892 1.378 . S
C3885 C3884 1.367 . S
C3885 C3893 1.433 . S
C3886 H3882 0.929 . S
C3886 C3888 1.378 . S
C3886 C3890 1.350 . S
C3887 C3890 1.463 . S
C3887 C3892 1.350 . S
C3887 N3895 1.427 . S
C3888 H3879 0.930 . S
C3888 C3886 1.378 . S
C3888 C3889 1.367 . S
C3889 C3888 1.367 . S
C3889 C3891 1.433 . S
C3890 C3886 1.350 . S
C3890 C3887 1.463 . S
C3890 N3894 1.427 . S
C3891 H3881 0.929 . S
C3891 C3889 1.433 . S
C3891 N3894 1.384 . S
C3892 H3883 0.929 . S
C3892 C3884 1.378 . S
C3892 C3887 1.350 . S
C3893 H3880 0.929 . S
C3893 C3885 1.433 . S
C3893 N3895 1.384 . S
N3894 C3890 1.427 . S
N3894 C3891 1.384 . S
N3895 C3887 1.427 . S
N3895 C3893 1.384 . S
H3896 C3902 0.930 . S
H3897 C3906 0.930 . S
H3898 C3911 0.929 . S
H3899 C3909 0.929 . S
H3900 C3904 0.929 . S
H3901 C3910 0.929 . S
C3902 H3896 0.930 . S
C3902 C3903 1.367 . S
C3902 C3910 1.378 . S
C3903 C3902 1.367 . S
C3903 C3911 1.433 . S
C3904 H3900 0.929 . S
C3904 C3906 1.378 . S
C3904 C3908 1.350 . S
C3905 C3908 1.463 . S
C3905 C3910 1.350 . S
C3905 N3913 1.427 . S
C3906 H3897 0.930 . S
C3906 C3904 1.378 . S
C3906 C3907 1.367 . S
C3907 C3906 1.367 . S
C3907 C3909 1.433 . S
C3908 C3904 1.350 . S
C3908 C3905 1.463 . S
C3908 N3912 1.427 . S
C3909 H3899 0.929 . S
C3909 C3907 1.433 . S
C3909 N3912 1.384 . S
C3910 H3901 0.929 . S
C3910 C3902 1.378 . S
C3910 C3905 1.350 . S
C3911 H3898 0.929 . S
C3911 C3903 1.433 . S
C3911 N3913 1.384 . S
N3912 C3908 1.427 . S
N3912 C3909 1.384 . S
N3913 C3905 1.427 . S
N3913 C3911 1.384 . S
H3914 C3920 0.930 . S
H3915 C3924 0.930 . S
H3916 C3929 0.929 . S
H3917 C3927 0.929 . S
H3918 C3922 0.929 . S
H3919 C3928 0.929 . S
C3920 H3914 0.930 . S
C3920 C3921 1.367 . S
C3920 C3928 1.378 . S
C3921 C3920 1.367 . S
C3921 C3929 1.433 . S
C3922 H3918 0.929 . S
C3922 C3924 1.378 . S
C3922 C3926 1.350 . S
C3923 C3926 1.463 . S
C3923 C3928 1.350 . S
C3923 N3931 1.427 . S
C3924 H3915 0.930 . S
C3924 C3922 1.378 . S
C3924 C3925 1.367 . S
C3925 C3924 1.367 . S
C3925 C3927 1.433 . S
C3926 C3922 1.350 . S
C3926 C3923 1.463 . S
C3926 N3930 1.427 . S
C3927 H3917 0.929 . S
C3927 C3925 1.433 . S
C3927 N3930 1.384 . S
C3928 H3919 0.929 . S
C3928 C3920 1.378 . S
C3928 C3923 1.350 . S
C3929 H3916 0.929 . S
C3929 C3921 1.433 . S
C3929 N3931 1.384 . S
N3930 C3926 1.427 . S
N3930 C3927 1.384 . S
N3931 C3923 1.427 . S
N3931 C3929 1.384 . S
H3932 C3938 0.930 . S
H3933 C3942 0.930 . S
H3934 C3947 0.929 . S
H3935 C3945 0.929 . S
H3936 C3940 0.929 . S
H3937 C3946 0.929 . S
C3938 H3932 0.930 . S
C3938 C3939 1.367 . S
C3938 C3946 1.378 . S
C3939 C3938 1.367 . S
C3939 C3947 1.433 . S
C3940 H3936 0.929 . S
C3940 C3942 1.378 . S
C3940 C3944 1.350 . S
C3941 C3944 1.463 . S
C3941 C3946 1.350 . S
C3941 N3949 1.427 . S
C3942 H3933 0.930 . S
C3942 C3940 1.378 . S
C3942 C3943 1.367 . S
C3943 C3942 1.367 . S
C3943 C3945 1.433 . S
C3944 C3940 1.350 . S
C3944 C3941 1.463 . S
C3944 N3948 1.427 . S
C3945 H3935 0.929 . S
C3945 C3943 1.433 . S
C3945 N3948 1.384 . S
C3946 H3937 0.929 . S
C3946 C3938 1.378 . S
C3946 C3941 1.350 . S
C3947 H3934 0.929 . S
C3947 C3939 1.433 . S
C3947 N3949 1.384 . S
N3948 C3944 1.427 . S
N3948 C3945 1.384 . S
N3949 C3941 1.427 . S
N3949 C3947 1.384 . S
H3950 C3956 0.930 . S
H3951 C3960 0.930 . S
H3952 C3965 0.929 . S
H3953 C3963 0.929 . S
H3954 C3958 0.929 . S
H3955 C3964 0.929 . S
C3956 H3950 0.930 . S
C3956 C3957 1.367 . S
C3956 C3964 1.378 . S
C3957 C3956 1.367 . S
C3957 C3965 1.433 . S
C3958 H3954 0.929 . S
C3958 C3960 1.378 . S
C3958 C3962 1.350 . S
C3959 C3962 1.463 . S
C3959 C3964 1.350 . S
C3959 N3967 1.427 . S
C3960 H3951 0.930 . S
C3960 C3958 1.378 . S
C3960 C3961 1.367 . S
C3961 C3960 1.367 . S
C3961 C3963 1.433 . S
C3962 C3958 1.350 . S
C3962 C3959 1.463 . S
C3962 N3966 1.427 . S
C3963 H3953 0.929 . S
C3963 C3961 1.433 . S
C3963 N3966 1.384 . S
C3964 H3955 0.929 . S
C3964 C3956 1.378 . S
C3964 C3959 1.350 . S
C3965 H3952 0.929 . S
C3965 C3957 1.433 . S
C3965 N3967 1.384 . S
N3966 C3962 1.427 . S
N3966 C3963 1.384 . S
N3967 C3959 1.427 . S
N3967 C3965 1.384 . S
C2823 C2396 1.359 . S
C2827 C29 1.308 . S
C2841 C108 1.312 . S
C2845 C733 1.360 . S
C2859 C2257 1.353 . S
C2863 C205 1.300 . S
C2877 C293 1.306 . S
C2881 C937 1.359 . S
C2895 C401 1.307 . S
C2899 C2572 1.359 . S
C2913 C497 1.311 . S
C2917 C1252 1.355 . S
C2931 C577 1.313 . S
C2935 C2757 1.357 . S
C2949 C665 1.315 . S
C2953 C1105 1.359 . S
C2967 C1692 1.350 . S
C2971 C753 1.309 . S
C2985 C20 1.351 . S
C2989 C812 1.309 . S
C3003 C1525 1.347 . S
C3007 C900 1.300 . S
C3021 C988 1.298 . S
C3025 C196 1.352 . S
C3039 C1897 1.352 . S
C3043 C1085 1.298 . S
C3057 C585 1.350 . S
C3061 C1201 1.295 . S
C3075 C1289 1.295 . S
C3079 C2081 1.347 . S
C3093 C409 1.350 . S
C3097 C1377 1.294 . S
C3111 C1428 1.299 . S
C3115 C1025 1.353 . S
C3129 C1516 1.302 . S
C3133 C2141 1.353 . S
C3147 C849 1.360 . S
C3151 C1613 1.311 . S
C3165 C2345 1.359 . S
C3169 C1701 1.306 . S
C3183 C1164 1.360 . S
C3187 C1809 1.312 . S
C3201 C2660 1.359 . S
C3205 C1905 1.305 . S
C3219 C1340 1.355 . S
C3223 C1993 1.311 . S
C3237 C2073 1.314 . S
C3241 C2513 1.358 . S
C3255 C284 1.349 . S
C3259 C2161 1.305 . S
C3273 C2220 1.300 . S
C3277 C1437 1.352 . S
C3291 C2308 1.299 . S
C3295 C117 1.352 . S
C3309 C2433 1.304 . S
C3313 C1604 1.348 . S
C3327 C2493 1.301 . S
C3331 C489 1.348 . S
C3345 C2609 1.298 . S
C3349 C1985 1.347 . S
C3363 C2697 1.305 . S
C3367 C673 1.353 . S
C3381 C2777 1.298 . S
C3385 C1817 1.347 . S
C3399 C2169 1.554 . S
C3403 C49 1.557 . S
C3417 C145 1.562 . S
C3421 C821 1.560 . S
C3435 C2317 1.554 . S
C3439 C225 1.557 . S
C3453 C313 1.557 . S
C3457 C997 1.554 . S
C3471 C2484 1.554 . S
C3475 C381 1.557 . S
C3489 C460 1.560 . S
C3493 C1193 1.557 . S
C3507 C2689 1.560 . S
C3511 C557 1.562 . S
C3525 C645 1.557 . S
C3529 C1369 1.554 . S
C3543 C761 1.554 . S
C3547 C1465 1.556 . S
C3561 C909 1.554 . S
C3565 C1633 1.556 . S
C3579 C1076 1.557 . S
C3583 C1789 1.559 . S
C3597 C1281 1.560 . S
C3601 C1956 1.562 . S
C3615 C1553 1.562 . S
C3619 C2229 1.560 . S
C3633 C2425 1.557 . S
C3637 C1721 1.560 . S
C3651 C2601 1.559 . S
C3655 C1868 1.561 . S
C3669 C2053 1.557 . S
C3673 C2785 1.555 . S
C3687 C57 1.036 . S
C3691 C469 1.026 . S
C3705 C137 1.034 . S
C3709 C548 1.040 . S
C3723 C233 1.039 . S
C3727 C636 1.037 . S
C3741 C372 1.030 . S
C3745 C321 1.040 . S
C3759 C724 1.028 . S
C3763 C1173 1.024 . S
C3777 C841 1.028 . S
C3781 C1261 1.024 . S
C3795 C929 1.016 . S
C3799 C1349 1.017 . S
C3813 C1017 1.013 . S
C3817 C1113 1.023 . S
C3831 C1457 1.030 . S
C3835 C1877 1.040 . S
C3849 C1965 1.033 . S
C3853 C1545 1.025 . S
C3867 C1641 1.027 . S
C3871 C2044 1.028 . S
C3885 C1729 1.030 . S
C3889 C1780 1.040 . S
C3903 C2581 1.026 . S
C3907 C2132 1.014 . S
C3921 C2249 1.026 . S
C3925 C2669 1.027 . S
C3939 C2748 1.014 . S
C3943 C2337 1.026 . S
C3957 C2405 1.014 . S
C3961 C2521 1.023 . S
