# Generated by pormake.
# Topology unh, (4)-cn, num edge types: 1
# Building blocks:
#     Node 0, Type 0, BuildingBlock: NAWXER_clean_sbu_0, # of connection points: 4
#     Node 1, Type 0, BuildingBlock: NAWXER_clean_sbu_0, # of connection points: 4
#     Node 2, Type 0, BuildingBlock: NAWXER_clean_sbu_0, # of connection points: 4
#     Node 3, Type 0, BuildingBlock: NAWXER_clean_sbu_0, # of connection points: 4
#     Node 4, Type 0, BuildingBlock: NAWXER_clean_sbu_0, # of connection points: 4
#     Node 5, Type 0, BuildingBlock: NAWXER_clean_sbu_0, # of connection points: 4
#     Edge 6, Type (0, 0), BuildingBlock: EZIPEK_clean_linker_0, # of connection points: 2
#     Edge 7, Type (0, 0), BuildingBlock: EZIPEK_clean_linker_0, # of connection points: 2
#     Edge 8, Type (0, 0), BuildingBlock: EZIPEK_clean_linker_0, # of connection points: 2
#     Edge 9, Type (0, 0), BuildingBlock: EZIPEK_clean_linker_0, # of connection points: 2
#     Edge 10, Type (0, 0), BuildingBlock: EZIPEK_clean_linker_0, # of connection points: 2
#     Edge 11, Type (0, 0), BuildingBlock: EZIPEK_clean_linker_0, # of connection points: 2
#     Edge 12, Type (0, 0), BuildingBlock: EZIPEK_clean_linker_0, # of connection points: 2
#     Edge 13, Type (0, 0), BuildingBlock: EZIPEK_clean_linker_0, # of connection points: 2
#     Edge 14, Type (0, 0), BuildingBlock: EZIPEK_clean_linker_0, # of connection points: 2
#     Edge 15, Type (0, 0), BuildingBlock: EZIPEK_clean_linker_0, # of connection points: 2
#     Edge 16, Type (0, 0), BuildingBlock: EZIPEK_clean_linker_0, # of connection points: 2
#     Edge 17, Type (0, 0), BuildingBlock: EZIPEK_clean_linker_0, # of connection points: 2
# Relax obj value: 0.020
# Max RMSD: 0.247
# Mean RMSD: 0.247
data_MOF--net-unh--node1-NAWXER_clean_sbu_0--edge1-EZIPEK_clean_linker_0
_symmetry_space_group_name_H-M    P1
_symmetry_Int_Tables_number       1
_symmetry_cell_setting            triclinic
loop_
_symmetry_equiv_pos_as_xyz
'x, y, z'
_cell_length_a     32.650908
_cell_length_b     32.777923
_cell_length_c     15.695411
_cell_angle_alpha  90.161422
_cell_angle_beta   89.90084
_cell_angle_gamma 119.75463
loop_
_atom_site_label
_atom_site_type_symbol
_atom_site_fract_x
_atom_site_fract_y
_atom_site_fract_z
_atom_type_partial_charge
C0 C 0.08642 0.5493 0.21113 0.0
C1 C 0.21062 0.65534 0.0212 0.0
O2 O 0.11131 0.59374 0.21126 0.0
Zn3 Zn 0.14845 0.60018 0.11473 0.0
O4 O 0.09573 0.5256 0.15651 0.0
Zn5 Zn 0.14974 0.54459 0.05573 0.0
O6 O 0.18934 0.52037 0.09421 0.0
O7 O 0.19737 0.58081 0.16917 0.0
O8 O 0.20034 0.6128 0.00676 0.0
O9 O 0.18789 0.66387 0.07718 0.0
O10 O 0.09589 0.56589 0.01289 0.0
O11 O 0.11415 0.51557 0.95631 0.0
C12 C 0.20916 0.54948 0.15442 0.0
C13 C 0.08813 0.53416 0.95682 0.0
C14 C 0.55714 0.20158 0.18173 0.0
C15 C 0.53284 0.07676 0.37523 0.0
O16 O 0.52546 0.18077 0.23776 0.0
Zn17 Zn 0.54776 0.14071 0.27859 0.0
O18 O 0.58927 0.19014 0.17122 0.0
Zn19 Zn 0.60672 0.14015 0.23072 0.0
O20 O 0.60478 0.10185 0.13771 0.0
O21 O 0.53515 0.09332 0.17063 0.0
O22 O 0.56893 0.08777 0.32795 0.0
O23 O 0.51113 0.09964 0.36919 0.0
O24 O 0.61394 0.19122 0.33772 0.0
O25 O 0.66818 0.17917 0.27816 0.0
C26 C 0.56074 0.08222 0.12429 0.0
C27 C 0.65722 0.20158 0.33072 0.0
C28 C 0.48005 0.54991 0.29828 0.0
C29 C 0.45975 0.65551 0.48969 0.0
O30 O 0.50372 0.59446 0.30157 0.0
Zn31 Zn 0.47044 0.60192 0.39528 0.0
O32 O 0.4456 0.52706 0.34996 0.0
Zn33 Zn 0.4129 0.54472 0.45368 0.0
O34 O 0.34926 0.52068 0.41539 0.0
O35 O 0.4018 0.58071 0.33979 0.0
O36 O 0.42846 0.61247 0.50255 0.0
O37 O 0.49183 0.66514 0.43477 0.0
O38 O 0.48939 0.57032 0.49703 0.0
O39 O 0.42237 0.51374 0.54907 0.0
C40 C 0.35869 0.54951 0.35463 0.0
C41 C 0.46709 0.53684 0.55025 0.0
C42 C 0.81109 0.45853 0.65421 0.0
C43 C 0.93223 0.47323 0.45733 0.0
O44 O 0.83208 0.48841 0.59583 0.0
Zn45 Zn 0.87093 0.46336 0.55655 0.0
O46 O 0.82194 0.42647 0.66798 0.0
Zn47 Zn 0.87129 0.40725 0.61462 0.0
O48 O 0.9081 0.41349 0.71171 0.0
O49 O 0.92469 0.48176 0.65703 0.0
O50 O 0.92412 0.44129 0.51289 0.0
O51 O 0.90659 0.49222 0.45744 0.0
O52 O 0.82 0.39532 0.50638 0.0
O53 O 0.83156 0.34369 0.57641 0.0
C54 C 0.93349 0.45788 0.71166 0.0
C55 C 0.80926 0.35263 0.52041 0.0
C56 C 0.3611 0.8073 0.83177 0.0
C57 C 0.4553 0.92684 0.62385 0.0
O58 O 0.34889 0.82886 0.7798 0.0
Zn59 Zn 0.40971 0.86868 0.73041 0.0
O60 O 0.40461 0.81832 0.83691 0.0
Zn61 Zn 0.46971 0.86872 0.77557 0.0
O62 O 0.50683 0.91017 0.86593 0.0
O63 O 0.4479 0.92086 0.82778 0.0
O64 O 0.48109 0.91578 0.66918 0.0
O65 O 0.41128 0.90715 0.63795 0.0
O66 O 0.42619 0.81864 0.66931 0.0
O67 O 0.49141 0.8286 0.73111 0.0
C68 C 0.48446 0.93237 0.87389 0.0
C69 C 0.45862 0.80755 0.67703 0.0
C70 C 0.54079 0.45987 0.7961 0.0
C71 C 0.55786 0.35358 0.99019 0.0
O72 O 0.51479 0.41572 0.80424 0.0
Zn73 Zn 0.54913 0.4074 0.89454 0.0
O74 O 0.57677 0.48211 0.84494 0.0
Zn75 Zn 0.60674 0.46427 0.95246 0.0
O76 O 0.67034 0.48436 0.917 0.0
O77 O 0.61677 0.428 0.83663 0.0
O78 O 0.58695 0.39674 0.00785 0.0
O79 O 0.52957 0.34399 0.92823 0.0
O80 O 0.53127 0.43756 1.00162 0.0
O81 O 0.59838 0.49809 0.04417 0.0
C82 C 0.66021 0.45695 0.85347 0.0
C83 C 0.5539 0.47312 0.05102 0.0
C84 C 0.03129 0.54585 0.86084 0.0
C85 C 0.04753 0.51637 0.89602 0.0
C86 C 0.99743 0.45509 0.79524 0.0
C87 C 0.97451 0.4805 0.77144 0.0
N88 N 0.96393 0.54742 0.80066 0.0
N89 N 0.02986 0.43572 0.91513 0.0
C90 C 0.98971 0.52526 0.80952 0.0
C91 C 0.02576 0.46877 0.86896 0.0
N92 N 0.05603 0.59338 0.87254 0.0
N93 N 0.99409 0.41904 0.74628 0.0
H94 H 0.04524 0.44246 0.97544 0.0
H95 H 0.01187 0.40017 0.89865 0.0
H96 H 0.97832 0.41104 0.68625 0.0
H97 H 0.01288 0.40181 0.76033 0.0
H98 H 0.04714 0.61607 0.84179 0.0
H99 H 0.08827 0.6106 0.90412 0.0
H100 H 0.97204 0.57822 0.83354 0.0
H101 H 0.93165 0.53253 0.76915 0.0
C102 C 0.47579 0.96872 0.00901 0.0
C103 C 0.50177 0.97251 0.93413 0.0
C104 C 0.56088 0.05247 0.97631 0.0
C105 C 0.5391 0.04529 0.05744 0.0
N106 N 0.48239 0.99018 0.15744 0.0
N107 N 0.57371 0.01606 0.85275 0.0
C108 C 0.49806 1.00178 0.07562 0.0
C109 C 0.54584 0.01375 0.91967 0.0
N110 N 0.43015 0.93356 0.0174 0.0
N111 N 0.59459 0.09649 0.95176 0.0
H112 H 0.56394 0.98896 0.80866 0.0
H113 H 0.6082 0.04349 0.84502 0.0
H114 H 0.60476 0.12621 0.98957 0.0
H115 H 0.60841 0.10422 0.89025 0.0
H116 H 0.40883 0.93178 0.06841 0.0
H117 H 0.41216 0.90946 0.96909 0.0
H118 H 0.45494 0.95712 0.17462 0.0
H119 H 0.50075 0.01119 0.20926 0.0
C120 C 0.47219 0.51061 0.15755 0.0
C121 C 0.49419 0.52431 0.2383 0.0
C122 C 0.54532 0.49178 0.20239 0.0
C123 C 0.52886 0.48516 0.11704 0.0
N124 N 0.47707 0.4894 0.01157 0.0
N125 N 0.55224 0.52941 0.33899 0.0
C126 C 0.49184 0.49413 0.09428 0.0
C127 C 0.53077 0.51508 0.26133 0.0
N128 N 0.43231 0.51309 0.14165 0.0
N129 N 0.57344 0.47405 0.22775 0.0
H130 H 0.54108 0.54457 0.38545 0.0
H131 H 0.58282 0.52888 0.35565 0.0
H132 H 0.58321 0.45517 0.18692 0.0
H133 H 0.58304 0.47369 0.29084 0.0
H134 H 0.41149 0.49886 0.08762 0.0
H135 H 0.4177 0.526 0.18601 0.0
H136 H 0.4551 0.50157 0.98907 0.0
H137 H 0.48875 0.47576 0.96351 0.0
C138 C 0.9944 0.53833 0.36918 0.0
C139 C 0.9728 0.49084 0.39638 0.0
C140 C 0.03049 0.48187 0.30901 0.0
C141 C 0.04538 0.52646 0.27085 0.0
N142 N 0.02513 0.58739 0.2459 0.0
N143 N 0.96452 0.41384 0.37272 0.0
C144 C 0.02229 0.55172 0.29495 0.0
C145 C 0.98906 0.46133 0.36085 0.0
N146 N 0.99057 0.57157 0.41566 0.0
N147 N 0.05638 0.45983 0.29973 0.0
H148 H 0.93242 0.39661 0.40476 0.0
H149 H 0.97343 0.39113 0.34175 0.0
H150 H 0.08853 0.47468 0.26772 0.0
H151 H 0.0485 0.42919 0.33264 0.0
H152 H 1.0084 0.60703 0.39885 0.0
H153 H 0.97567 0.56512 0.4764 0.0
H154 H 1.00624 0.60451 0.26035 0.0
H155 H 0.04055 0.59511 0.18555 0.0
C156 C 0.47098 0.99552 0.41991 0.0
C157 C 0.51523 0.0365 0.43476 0.0
C158 C 0.51817 0.0072 0.57618 0.0
C159 C 0.47693 0.96387 0.55755 0.0
N160 N 0.42156 0.91287 0.45133 0.0
N161 N 0.58652 0.07522 0.51873 0.0
C162 C 0.45544 0.95679 0.47627 0.0
C163 C 0.54086 0.04018 0.50987 0.0
N164 N 0.44334 0.99357 0.35302 0.0
N165 N 0.53368 0.01868 0.65814 0.0
H166 H 0.60469 0.09933 0.47065 0.0
H167 H 0.60766 0.07694 0.56988 0.0
H168 H 0.51508 0.99773 0.70976 0.0
H169 H 0.56128 0.05161 0.67567 0.0
H170 H 0.40879 0.9663 0.34493 0.0
H171 H 0.45336 0.02085 0.30951 0.0
H172 H 0.40797 0.90524 0.38966 0.0
H173 H 0.411 0.88312 0.48899 0.0
C174 C 0.5285 0.52687 0.74701 0.0
C175 C 0.5297 0.48485 0.72875 0.0
C176 C 0.49436 0.48008 0.5886 0.0
C177 C 0.49328 0.52187 0.60714 0.0
N178 N 0.52367 0.59295 0.68981 0.0
N179 N 0.52914 0.4317 0.62137 0.0
C180 C 0.51511 0.5479 0.68174 0.0
C181 C 0.51717 0.46444 0.64617 0.0
N182 N 0.53747 0.54555 0.8273 0.0
N183 N 0.47349 0.45521 0.51612 0.0
H184 H 0.5485 0.42155 0.66 0.0
H185 H 0.52479 0.41868 0.55945 0.0
H186 H 0.45922 0.46714 0.46952 0.0
H187 H 0.46811 0.4216 0.50441 0.0
H188 H 0.53093 0.57233 0.84587 0.0
H189 H 0.54791 0.53234 0.87771 0.0
H190 H 0.5434 0.61523 0.73939 0.0
H191 H 0.51581 0.60975 0.64165 0.0
C192 C 0.24233 0.50577 0.23558 0.0
C193 C 0.24729 0.54877 0.20503 0.0
C194 C 0.32127 0.59168 0.2839 0.0
C195 C 0.32002 0.54883 0.30352 0.0
N196 N 0.2836 0.46508 0.27862 0.0
N197 N 0.29974 0.63164 0.17998 0.0
C198 C 0.28175 0.50574 0.27386 0.0
C199 C 0.28917 0.59153 0.22329 0.0
N200 N 0.19974 0.4653 0.23161 0.0
N201 N 0.35135 0.63225 0.32574 0.0
H202 H 0.2794 0.6321 0.12931 0.0
H203 H 0.3318 0.66273 0.18708 0.0
H204 H 0.37253 0.63327 0.37619 0.0
H205 H 0.35061 0.66345 0.31755 0.0
H206 H 0.19367 0.4341 0.26013 0.0
H207 H 0.16924 0.46412 0.20861 0.0
H208 H 0.25826 0.43373 0.25075 0.0
H209 H 0.31291 0.46383 0.30151 0.0
C210 C 0.69308 0.24165 0.47052 0.0
C211 C 0.69492 0.2412 0.38003 0.0
C212 C 0.77342 0.31176 0.3827 0.0
C213 C 0.77023 0.3139 0.4725 0.0
N214 N 0.72462 0.28529 0.60174 0.0
N215 N 0.73232 0.2813 0.24927 0.0
C216 C 0.72943 0.28 0.51644 0.0
C217 C 0.73387 0.27778 0.3359 0.0
N218 N 0.65757 0.20461 0.513 0.0
N219 N 0.81499 0.34099 0.3423 0.0
H220 H 0.70391 0.25763 0.21218 0.0
H221 H 0.75708 0.3102 0.21482 0.0
H222 H 0.84489 0.36623 0.3743 0.0
H223 H 0.82126 0.33746 0.27836 0.0
H224 H 0.65768 0.19969 0.57849 0.0
H225 H 0.62918 0.17686 0.48235 0.0
H226 H 0.69334 0.26537 0.63521 0.0
H227 H 0.75074 0.31214 0.63837 0.0
C228 C 0.46355 0.77163 0.53851 0.0
C229 C 0.45608 0.76784 0.62774 0.0
C230 C 0.45285 0.69156 0.6275 0.0
C231 C 0.45758 0.6938 0.53722 0.0
N232 N 0.45602 0.73108 0.40534 0.0
N233 N 0.43248 0.72 0.75423 0.0
C234 C 0.45979 0.73252 0.49218 0.0
C235 C 0.44742 0.72654 0.67135 0.0
N236 N 0.47564 0.81305 0.49831 0.0
N237 N 0.45567 0.65734 0.67223 0.0
H238 H 0.42767 0.74465 0.78841 0.0
H239 H 0.42045 0.68833 0.78646 0.0
H240 H 0.45951 0.63082 0.64353 0.0
H241 H 0.45834 0.65753 0.73837 0.0
H242 H 0.48691 0.81977 0.43519 0.0
H243 H 0.47798 0.84219 0.52988 0.0
H244 H 0.4522 0.75587 0.37011 0.0
H245 H 0.45187 0.70273 0.36868 0.0
C246 C 0.73911 0.50108 0.77921 0.0
C247 C 0.69833 0.45764 0.79997 0.0
C248 C 0.72839 0.41682 0.7108 0.0
C249 C 0.77228 0.45885 0.70304 0.0
N250 N 0.82225 0.53987 0.74492 0.0
N251 N 0.66038 0.37235 0.79958 0.0
C252 C 0.77855 0.50077 0.74152 0.0
C253 C 0.69459 0.41491 0.76975 0.0
N254 N 0.73956 0.54261 0.79113 0.0
N255 N 0.71784 0.37927 0.65915 0.0
H256 H 0.63604 0.36843 0.8462 0.0
H257 H 0.65967 0.34097 0.78479 0.0
H258 H 0.74033 0.3804 0.61084 0.0
H259 H 0.68452 0.34935 0.6574 0.0
H260 H 0.76707 0.57471 0.77001 0.0
H261 H 0.71025 0.54448 0.81219 0.0
H262 H 0.82916 0.5698 0.77959 0.0
H263 H 0.85243 0.54071 0.72083 0.0
C264 C 0.32556 0.76786 0.97188 0.0
C265 C 0.32448 0.76723 0.88139 0.0
C266 C 0.24736 0.69516 0.88334 0.0
C267 C 0.24948 0.69433 0.97352 0.0
N268 N 0.29348 0.72558 0.10384 0.0
N269 N 0.29049 0.72435 0.75127 0.0
C270 C 0.28933 0.72957 0.01796 0.0
C271 C 0.28708 0.72918 0.83717 0.0
N272 N 0.36044 0.80565 0.01399 0.0
N273 N 0.20665 0.66468 0.84183 0.0
H274 H 0.31977 0.74764 0.71549 0.0
H275 H 0.26671 0.69473 0.71703 0.0
H276 H 0.17645 0.63963 0.87332 0.0
H277 H 0.20127 0.66709 0.77708 0.0
H278 H 0.35967 0.8115 0.07906 0.0
H279 H 0.38925 0.83278 0.98315 0.0
H280 H 0.3242 0.74664 0.13805 0.0
H281 H 0.26747 0.69882 0.14059 0.0
C282 C 0.51468 0.27394 0.06043 0.0
C283 C 0.55797 0.31509 0.0406 0.0
C284 C 0.59991 0.28407 0.12396 0.0
C285 C 0.55776 0.24021 0.13136 0.0
N286 N 0.47664 0.19057 0.08828 0.0
N287 N 0.6436 0.3532 0.03791 0.0
C288 C 0.51556 0.23424 0.09411 0.0
C289 C 0.6012 0.31852 0.06779 0.0
N290 N 0.47273 0.27328 0.05168 0.0
N291 N 0.6381 0.29408 0.17364 0.0
H292 H 0.64703 0.37817 0.99348 0.0
H293 H 0.67529 0.35384 0.0502 0.0
H294 H 0.63755 0.27125 0.22025 0.0
H295 H 0.66813 0.32727 0.17575 0.0
H296 H 0.44076 0.24528 0.07236 0.0
H297 H 0.47042 0.30271 0.0341 0.0
H298 H 0.44647 0.18412 0.05469 0.0
H299 H 0.47639 0.16016 0.10847 0.0
loop_
_geom_bond_atom_site_label_1
_geom_bond_atom_site_label_2
_geom_bond_distance
_geom_bond_site_symmetry_2
_ccdc_geom_bond_type
C0 O2 1.247 . S
C0 O4 1.258 . S
C1 O8 1.247 . S
C1 O9 1.258 1_556 S
O2 C0 1.247 . S
O2 Zn3 2.028 . S
Zn3 O2 2.028 . S
Zn3 O7 2.035 . S
Zn3 O9 2.035 . S
Zn3 O10 2.028 . S
O4 C0 1.258 . S
O4 Zn5 2.035 . S
Zn5 O4 2.035 . S
Zn5 O6 2.028 . S
Zn5 O8 2.028 1_554 S
Zn5 O11 2.035 1_554 S
O6 Zn5 2.028 . S
O6 C12 1.247 . S
O7 Zn3 2.035 . S
O7 C12 1.258 . S
O8 C1 1.247 . S
O8 Zn5 2.028 1_556 S
O9 C1 1.258 1_554 S
O9 Zn3 2.035 . S
O10 Zn3 2.028 . S
O10 C13 1.247 1_554 S
O11 Zn5 2.035 1_556 S
O11 C13 1.258 . S
C12 O6 1.247 . S
C12 O7 1.258 . S
C13 O10 1.247 1_556 S
C13 O11 1.258 . S
C14 O16 1.247 . S
C14 O18 1.258 . S
C15 O22 1.247 . S
C15 O23 1.258 . S
O16 C14 1.247 . S
O16 Zn17 2.028 . S
Zn17 O16 2.028 . S
Zn17 O21 2.035 . S
Zn17 O23 2.035 . S
Zn17 O24 2.028 . S
O18 C14 1.258 . S
O18 Zn19 2.035 . S
Zn19 O18 2.035 . S
Zn19 O20 2.028 . S
Zn19 O22 2.028 . S
Zn19 O25 2.035 . S
O20 Zn19 2.028 . S
O20 C26 1.247 . S
O21 Zn17 2.035 . S
O21 C26 1.258 . S
O22 C15 1.247 . S
O22 Zn19 2.028 . S
O23 C15 1.258 . S
O23 Zn17 2.035 . S
O24 Zn17 2.028 . S
O24 C27 1.247 . S
O25 Zn19 2.035 . S
O25 C27 1.258 . S
C26 O20 1.247 . S
C26 O21 1.258 . S
C27 O24 1.247 . S
C27 O25 1.258 . S
C28 O30 1.247 . S
C28 O32 1.258 . S
C29 O36 1.247 . S
C29 O37 1.258 . S
O30 C28 1.247 . S
O30 Zn31 2.028 . S
Zn31 O30 2.028 . S
Zn31 O35 2.035 . S
Zn31 O37 2.035 . S
Zn31 O38 2.028 . S
O32 C28 1.258 . S
O32 Zn33 2.035 . S
Zn33 O32 2.035 . S
Zn33 O34 2.028 . S
Zn33 O36 2.028 . S
Zn33 O39 2.035 . S
O34 Zn33 2.028 . S
O34 C40 1.247 . S
O35 Zn31 2.035 . S
O35 C40 1.258 . S
O36 C29 1.247 . S
O36 Zn33 2.028 . S
O37 C29 1.258 . S
O37 Zn31 2.035 . S
O38 Zn31 2.028 . S
O38 C41 1.247 . S
O39 Zn33 2.035 . S
O39 C41 1.258 . S
C40 O34 1.247 . S
C40 O35 1.258 . S
C41 O38 1.247 . S
C41 O39 1.258 . S
C42 O44 1.247 . S
C42 O46 1.258 . S
C43 O50 1.247 . S
C43 O51 1.258 . S
O44 C42 1.247 . S
O44 Zn45 2.028 . S
Zn45 O44 2.028 . S
Zn45 O49 2.035 . S
Zn45 O51 2.035 . S
Zn45 O52 2.028 . S
O46 C42 1.258 . S
O46 Zn47 2.035 . S
Zn47 O46 2.035 . S
Zn47 O48 2.028 . S
Zn47 O50 2.028 . S
Zn47 O53 2.035 . S
O48 Zn47 2.028 . S
O48 C54 1.247 . S
O49 Zn45 2.035 . S
O49 C54 1.258 . S
O50 C43 1.247 . S
O50 Zn47 2.028 . S
O51 C43 1.258 . S
O51 Zn45 2.035 . S
O52 Zn45 2.028 . S
O52 C55 1.247 . S
O53 Zn47 2.035 . S
O53 C55 1.258 . S
C54 O48 1.247 . S
C54 O49 1.258 . S
C55 O52 1.247 . S
C55 O53 1.258 . S
C56 O58 1.247 . S
C56 O60 1.258 . S
C57 O64 1.247 . S
C57 O65 1.258 . S
O58 C56 1.247 . S
O58 Zn59 2.028 . S
Zn59 O58 2.028 . S
Zn59 O63 2.035 . S
Zn59 O65 2.035 . S
Zn59 O66 2.028 . S
O60 C56 1.258 . S
O60 Zn61 2.035 . S
Zn61 O60 2.035 . S
Zn61 O62 2.028 . S
Zn61 O64 2.028 . S
Zn61 O67 2.035 . S
O62 Zn61 2.028 . S
O62 C68 1.247 . S
O63 Zn59 2.035 . S
O63 C68 1.258 . S
O64 C57 1.247 . S
O64 Zn61 2.028 . S
O65 C57 1.258 . S
O65 Zn59 2.035 . S
O66 Zn59 2.028 . S
O66 C69 1.247 . S
O67 Zn61 2.035 . S
O67 C69 1.258 . S
C68 O62 1.247 . S
C68 O63 1.258 . S
C69 O66 1.247 . S
C69 O67 1.258 . S
C70 O72 1.247 . S
C70 O74 1.258 . S
C71 O78 1.247 . S
C71 O79 1.258 1_554 S
O72 C70 1.247 . S
O72 Zn73 2.028 . S
Zn73 O72 2.028 . S
Zn73 O77 2.035 . S
Zn73 O79 2.035 . S
Zn73 O80 2.028 . S
O74 C70 1.258 . S
O74 Zn75 2.035 . S
Zn75 O74 2.035 . S
Zn75 O76 2.028 . S
Zn75 O78 2.028 1_556 S
Zn75 O81 2.035 1_556 S
O76 Zn75 2.028 . S
O76 C82 1.247 . S
O77 Zn73 2.035 . S
O77 C82 1.258 . S
O78 C71 1.247 . S
O78 Zn75 2.028 1_554 S
O79 C71 1.258 1_556 S
O79 Zn73 2.035 . S
O80 Zn73 2.028 . S
O80 C83 1.247 1_556 S
O81 Zn75 2.035 1_554 S
O81 C83 1.258 . S
C82 O76 1.247 . S
C82 O77 1.258 . S
C83 O80 1.247 1_554 S
C83 O81 1.258 . S
C84 C85 1.363 . S
C84 C90 1.379 1_455 S
C84 N92 1.356 . S
C85 C84 1.363 . S
C85 C91 1.363 . S
C86 C87 1.363 . S
C86 C91 1.379 1_655 S
C86 N93 1.356 . S
C87 C86 1.363 . S
C87 C90 1.363 . S
N88 C90 1.356 . S
N88 H100 0.984 . S
N88 H101 0.985 . S
N89 C91 1.356 . S
N89 H94 0.984 . S
N89 H95 0.985 . S
C90 C84 1.379 1_655 S
C90 C87 1.363 . S
C90 N88 1.356 . S
C91 C85 1.363 . S
C91 C86 1.379 1_455 S
C91 N89 1.356 . S
N92 C84 1.356 . S
N92 H98 0.984 . S
N92 H99 0.984 . S
N93 C86 1.356 . S
N93 H96 0.984 . S
N93 H97 0.985 . S
H94 N89 0.984 . S
H95 N89 0.985 . S
H96 N93 0.984 . S
H97 N93 0.985 . S
H98 N92 0.984 . S
H99 N92 0.984 . S
H100 N88 0.984 . S
H101 N88 0.985 . S
C102 C103 1.363 . S
C102 C108 1.370 1_566 S
C102 N110 1.356 . S
C103 C102 1.363 . S
C103 C109 1.366 . S
C104 C105 1.363 . S
C104 C109 1.370 1_544 S
C104 N111 1.356 . S
C105 C104 1.363 . S
C105 C108 1.366 . S
N106 C108 1.364 . S
N106 H118 0.984 1_545 S
N106 H119 0.985 . S
N107 C109 1.364 . S
N107 H112 0.984 . S
N107 H113 0.985 1_565 S
C108 C102 1.370 1_544 S
C108 C105 1.366 . S
C108 N106 1.364 . S
C109 C103 1.366 . S
C109 C104 1.370 1_566 S
C109 N107 1.364 . S
N110 C102 1.356 . S
N110 H116 0.984 . S
N110 H117 0.984 . S
N111 C104 1.356 . S
N111 H114 0.984 . S
N111 H115 0.985 . S
H112 N107 0.984 . S
H113 N107 0.985 1_545 S
H114 N111 0.984 . S
H115 N111 0.985 . S
H116 N110 0.984 . S
H117 N110 0.984 . S
H118 N106 0.984 1_565 S
H119 N106 0.985 . S
C120 C121 1.363 . S
C120 C126 1.379 . S
C120 N128 1.356 . S
C121 C120 1.363 . S
C121 C127 1.363 . S
C122 C123 1.363 . S
C122 C127 1.379 . S
C122 N129 1.356 . S
C123 C122 1.363 . S
C123 C126 1.363 . S
N124 C126 1.356 . S
N124 H136 0.984 1_554 S
N124 H137 0.985 1_554 S
N125 C127 1.356 . S
N125 H130 0.984 . S
N125 H131 0.985 . S
C126 C120 1.379 . S
C126 C123 1.363 . S
C126 N124 1.356 . S
C127 C121 1.363 . S
C127 C122 1.379 . S
C127 N125 1.356 . S
N128 C120 1.356 . S
N128 H134 0.984 . S
N128 H135 0.984 . S
N129 C122 1.356 . S
N129 H132 0.984 . S
N129 H133 0.985 . S
H130 N125 0.984 . S
H131 N125 0.985 . S
H132 N129 0.984 . S
H133 N129 0.985 . S
H134 N128 0.984 . S
H135 N128 0.984 . S
H136 N124 0.984 1_556 S
H137 N124 0.985 1_556 S
C138 C139 1.363 . S
C138 C144 1.379 1_655 S
C138 N146 1.356 . S
C139 C138 1.363 . S
C139 C145 1.363 . S
C140 C141 1.363 . S
C140 C145 1.379 1_455 S
C140 N147 1.356 . S
C141 C140 1.363 . S
C141 C144 1.363 . S
N142 C144 1.356 . S
N142 H154 0.984 . S
N142 H155 0.985 . S
N143 C145 1.356 . S
N143 H148 0.984 . S
N143 H149 0.985 . S
C144 C138 1.379 1_455 S
C144 C141 1.363 . S
C144 N142 1.356 . S
C145 C139 1.363 . S
C145 C140 1.379 1_655 S
C145 N143 1.356 . S
N146 C138 1.356 . S
N146 H152 0.984 . S
N146 H153 0.984 . S
N147 C140 1.356 . S
N147 H150 0.984 . S
N147 H151 0.985 . S
H148 N143 0.984 . S
H149 N143 0.985 . S
H150 N147 0.984 . S
H151 N147 0.985 . S
H152 N146 0.984 . S
H153 N146 0.984 . S
H154 N142 0.984 . S
H155 N142 0.985 . S
C156 C157 1.363 1_565 S
C156 C162 1.379 . S
C156 N164 1.356 . S
C157 C156 1.363 1_545 S
C157 C163 1.363 . S
C158 C159 1.363 1_545 S
C158 C163 1.379 . S
C158 N165 1.356 . S
C159 C158 1.363 1_565 S
C159 C162 1.363 . S
N160 C162 1.356 . S
N160 H172 0.984 . S
N160 H173 0.985 . S
N161 C163 1.356 . S
N161 H166 0.984 . S
N161 H167 0.985 . S
C162 C156 1.379 . S
C162 C159 1.363 . S
C162 N160 1.356 . S
C163 C157 1.363 . S
C163 C158 1.379 . S
C163 N161 1.356 . S
N164 C156 1.356 . S
N164 H170 0.984 . S
N164 H171 0.984 1_565 S
N165 C158 1.356 . S
N165 H168 0.984 1_545 S
N165 H169 0.985 . S
H166 N161 0.984 . S
H167 N161 0.985 . S
H168 N165 0.984 1_565 S
H169 N165 0.985 . S
H170 N164 0.984 . S
H171 N164 0.984 1_545 S
H172 N160 0.984 . S
H173 N160 0.985 . S
C174 C175 1.363 . S
C174 C180 1.379 . S
C174 N182 1.356 . S
C175 C174 1.363 . S
C175 C181 1.363 . S
C176 C177 1.363 . S
C176 C181 1.379 . S
C176 N183 1.356 . S
C177 C176 1.363 . S
C177 C180 1.363 . S
N178 C180 1.356 . S
N178 H190 0.984 . S
N178 H191 0.985 . S
N179 C181 1.356 . S
N179 H184 0.984 . S
N179 H185 0.985 . S
C180 C174 1.379 . S
C180 C177 1.363 . S
C180 N178 1.356 . S
C181 C175 1.363 . S
C181 C176 1.379 . S
C181 N179 1.356 . S
N182 C174 1.356 . S
N182 H188 0.984 . S
N182 H189 0.984 . S
N183 C176 1.356 . S
N183 H186 0.984 . S
N183 H187 0.985 . S
H184 N179 0.984 . S
H185 N179 0.985 . S
H186 N183 0.984 . S
H187 N183 0.985 . S
H188 N182 0.984 . S
H189 N182 0.984 . S
H190 N178 0.984 . S
H191 N178 0.985 . S
C192 C193 1.363 . S
C192 C198 1.379 . S
C192 N200 1.356 . S
C193 C192 1.363 . S
C193 C199 1.363 . S
C194 C195 1.363 . S
C194 C199 1.379 . S
C194 N201 1.356 . S
C195 C194 1.363 . S
C195 C198 1.363 . S
N196 C198 1.356 . S
N196 H208 0.984 . S
N196 H209 0.985 . S
N197 C199 1.356 . S
N197 H202 0.984 . S
N197 H203 0.985 . S
C198 C192 1.379 . S
C198 C195 1.363 . S
C198 N196 1.356 . S
C199 C193 1.363 . S
C199 C194 1.379 . S
C199 N197 1.356 . S
N200 C192 1.356 . S
N200 H206 0.984 . S
N200 H207 0.984 . S
N201 C194 1.356 . S
N201 H204 0.984 . S
N201 H205 0.985 . S
H202 N197 0.984 . S
H203 N197 0.985 . S
H204 N201 0.984 . S
H205 N201 0.985 . S
H206 N200 0.984 . S
H207 N200 0.984 . S
H208 N196 0.984 . S
H209 N196 0.985 . S
C210 C211 1.363 . S
C210 C216 1.379 . S
C210 N218 1.356 . S
C211 C210 1.363 . S
C211 C217 1.363 . S
C212 C213 1.363 . S
C212 C217 1.379 . S
C212 N219 1.356 . S
C213 C212 1.363 . S
C213 C216 1.363 . S
N214 C216 1.356 . S
N214 H226 0.984 . S
N214 H227 0.985 . S
N215 C217 1.356 . S
N215 H220 0.984 . S
N215 H221 0.985 . S
C216 C210 1.379 . S
C216 C213 1.363 . S
C216 N214 1.356 . S
C217 C211 1.363 . S
C217 C212 1.379 . S
C217 N215 1.356 . S
N218 C210 1.356 . S
N218 H224 0.984 . S
N218 H225 0.984 . S
N219 C212 1.356 . S
N219 H222 0.984 . S
N219 H223 0.985 . S
H220 N215 0.984 . S
H221 N215 0.985 . S
H222 N219 0.984 . S
H223 N219 0.985 . S
H224 N218 0.984 . S
H225 N218 0.984 . S
H226 N214 0.984 . S
H227 N214 0.985 . S
C228 C229 1.363 . S
C228 C234 1.379 . S
C228 N236 1.356 . S
C229 C228 1.363 . S
C229 C235 1.363 . S
C230 C231 1.363 . S
C230 C235 1.379 . S
C230 N237 1.356 . S
C231 C230 1.363 . S
C231 C234 1.363 . S
N232 C234 1.356 . S
N232 H244 0.984 . S
N232 H245 0.985 . S
N233 C235 1.356 . S
N233 H238 0.984 . S
N233 H239 0.985 . S
C234 C228 1.379 . S
C234 C231 1.363 . S
C234 N232 1.356 . S
C235 C229 1.363 . S
C235 C230 1.379 . S
C235 N233 1.356 . S
N236 C228 1.356 . S
N236 H242 0.984 . S
N236 H243 0.984 . S
N237 C230 1.356 . S
N237 H240 0.984 . S
N237 H241 0.985 . S
H238 N233 0.984 . S
H239 N233 0.985 . S
H240 N237 0.984 . S
H241 N237 0.985 . S
H242 N236 0.984 . S
H243 N236 0.984 . S
H244 N232 0.984 . S
H245 N232 0.985 . S
C246 C247 1.363 . S
C246 C252 1.379 . S
C246 N254 1.356 . S
C247 C246 1.363 . S
C247 C253 1.363 . S
C248 C249 1.363 . S
C248 C253 1.379 . S
C248 N255 1.356 . S
C249 C248 1.363 . S
C249 C252 1.363 . S
N250 C252 1.356 . S
N250 H262 0.984 . S
N250 H263 0.985 . S
N251 C253 1.356 . S
N251 H256 0.984 . S
N251 H257 0.985 . S
C252 C246 1.379 . S
C252 C249 1.363 . S
C252 N250 1.356 . S
C253 C247 1.363 . S
C253 C248 1.379 . S
C253 N251 1.356 . S
N254 C246 1.356 . S
N254 H260 0.984 . S
N254 H261 0.984 . S
N255 C248 1.356 . S
N255 H258 0.984 . S
N255 H259 0.985 . S
H256 N251 0.984 . S
H257 N251 0.985 . S
H258 N255 0.984 . S
H259 N255 0.985 . S
H260 N254 0.984 . S
H261 N254 0.984 . S
H262 N250 0.984 . S
H263 N250 0.985 . S
C264 C265 1.363 . S
C264 C270 1.379 . S
C264 N272 1.356 1_556 S
C265 C264 1.363 . S
C265 C271 1.363 . S
C266 C267 1.363 . S
C266 C271 1.379 . S
C266 N273 1.356 . S
C267 C266 1.363 . S
C267 C270 1.363 . S
N268 C270 1.356 1_554 S
N268 H280 0.984 . S
N268 H281 0.985 . S
N269 C271 1.356 . S
N269 H274 0.984 . S
N269 H275 0.985 . S
C270 C264 1.379 . S
C270 C267 1.363 . S
C270 N268 1.356 1_556 S
C271 C265 1.363 . S
C271 C266 1.379 . S
C271 N269 1.356 . S
N272 C264 1.356 1_554 S
N272 H278 0.984 . S
N272 H279 0.984 1_554 S
N273 C266 1.356 . S
N273 H276 0.984 . S
N273 H277 0.985 . S
H274 N269 0.984 . S
H275 N269 0.985 . S
H276 N273 0.984 . S
H277 N273 0.985 . S
H278 N272 0.984 . S
H279 N272 0.984 1_556 S
H280 N268 0.984 . S
H281 N268 0.985 . S
C282 C283 1.363 . S
C282 C288 1.379 . S
C282 N290 1.356 . S
C283 C282 1.363 . S
C283 C289 1.363 . S
C284 C285 1.363 . S
C284 C289 1.379 . S
C284 N291 1.356 . S
C285 C284 1.363 . S
C285 C288 1.363 . S
N286 C288 1.356 . S
N286 H298 0.984 . S
N286 H299 0.985 . S
N287 C289 1.356 . S
N287 H292 0.984 . S
N287 H293 0.985 . S
C288 C282 1.379 . S
C288 C285 1.363 . S
C288 N286 1.356 . S
C289 C283 1.363 . S
C289 C284 1.379 . S
C289 N287 1.356 . S
N290 C282 1.356 . S
N290 H296 0.984 . S
N290 H297 0.984 . S
N291 C284 1.356 . S
N291 H294 0.984 . S
N291 H295 0.985 . S
H292 N287 0.984 . S
H293 N287 0.985 . S
H294 N291 0.984 . S
H295 N291 0.985 . S
H296 N290 0.984 . S
H297 N290 0.984 . S
H298 N286 0.984 . S
H299 N286 0.985 . S
C85 C13 1.762 . S
C87 C54 1.761 . S
C103 C68 1.761 . S
C105 C26 1.761 . S
C121 C28 1.761 . S
C123 C83 1.762 . S
C139 C43 1.762 . S
C141 C0 1.761 . S
C157 C15 1.762 . S
C159 C57 1.762 . S
C175 C70 1.761 . S
C177 C41 1.762 . S
C193 C12 1.637 . S
C195 C40 1.637 . S
C211 C27 1.639 . S
C213 C55 1.639 . S
C229 C69 1.639 . S
C231 C29 1.639 . S
C247 C82 1.637 . S
C249 C42 1.637 . S
C265 C56 1.637 . S
C267 C1 1.639 . S
C283 C71 1.639 . S
C285 C14 1.637 . S
