# Generated by pormake.
# Topology unv, (4)-cn, num edge types: 1
# Building blocks:
#     Node 0, Type 0, BuildingBlock: AZAVOO_clean_sbu_0, # of connection points: 4
#     Node 1, Type 0, BuildingBlock: AZAVOO_clean_sbu_0, # of connection points: 4
#     Node 2, Type 0, BuildingBlock: AZAVOO_clean_sbu_0, # of connection points: 4
#     Node 3, Type 0, BuildingBlock: AZAVOO_clean_sbu_0, # of connection points: 4
#     Node 4, Type 0, BuildingBlock: AZAVOO_clean_sbu_0, # of connection points: 4
#     Node 5, Type 0, BuildingBlock: AZAVOO_clean_sbu_0, # of connection points: 4
#     Node 6, Type 0, BuildingBlock: AZAVOO_clean_sbu_0, # of connection points: 4
#     Node 7, Type 0, BuildingBlock: AZAVOO_clean_sbu_0, # of connection points: 4
#     Node 8, Type 0, BuildingBlock: AZAVOO_clean_sbu_0, # of connection points: 4
#     Node 9, Type 0, BuildingBlock: AZAVOO_clean_sbu_0, # of connection points: 4
#     Node 10, Type 0, BuildingBlock: AZAVOO_clean_sbu_0, # of connection points: 4
#     Node 11, Type 0, BuildingBlock: AZAVOO_clean_sbu_0, # of connection points: 4
#     Node 12, Type 0, BuildingBlock: AZAVOO_clean_sbu_0, # of connection points: 4
#     Node 13, Type 0, BuildingBlock: AZAVOO_clean_sbu_0, # of connection points: 4
#     Node 14, Type 0, BuildingBlock: AZAVOO_clean_sbu_0, # of connection points: 4
#     Node 15, Type 0, BuildingBlock: AZAVOO_clean_sbu_0, # of connection points: 4
#     Node 16, Type 0, BuildingBlock: AZAVOO_clean_sbu_0, # of connection points: 4
#     Node 17, Type 0, BuildingBlock: AZAVOO_clean_sbu_0, # of connection points: 4
#     Node 18, Type 0, BuildingBlock: AZAVOO_clean_sbu_0, # of connection points: 4
#     Node 19, Type 0, BuildingBlock: AZAVOO_clean_sbu_0, # of connection points: 4
#     Node 20, Type 0, BuildingBlock: AZAVOO_clean_sbu_0, # of connection points: 4
#     Node 21, Type 0, BuildingBlock: AZAVOO_clean_sbu_0, # of connection points: 4
#     Node 22, Type 0, BuildingBlock: AZAVOO_clean_sbu_0, # of connection points: 4
#     Node 23, Type 0, BuildingBlock: AZAVOO_clean_sbu_0, # of connection points: 4
#     Edge 24, Type (0, 0), BuildingBlock: XIVTED_clean_linker_0, # of connection points: 2
#     Edge 25, Type (0, 0), BuildingBlock: XIVTED_clean_linker_0, # of connection points: 2
#     Edge 26, Type (0, 0), BuildingBlock: XIVTED_clean_linker_0, # of connection points: 2
#     Edge 27, Type (0, 0), BuildingBlock: XIVTED_clean_linker_0, # of connection points: 2
#     Edge 28, Type (0, 0), BuildingBlock: XIVTED_clean_linker_0, # of connection points: 2
#     Edge 29, Type (0, 0), BuildingBlock: XIVTED_clean_linker_0, # of connection points: 2
#     Edge 30, Type (0, 0), BuildingBlock: XIVTED_clean_linker_0, # of connection points: 2
#     Edge 31, Type (0, 0), BuildingBlock: XIVTED_clean_linker_0, # of connection points: 2
#     Edge 32, Type (0, 0), BuildingBlock: XIVTED_clean_linker_0, # of connection points: 2
#     Edge 33, Type (0, 0), BuildingBlock: XIVTED_clean_linker_0, # of connection points: 2
#     Edge 34, Type (0, 0), BuildingBlock: XIVTED_clean_linker_0, # of connection points: 2
#     Edge 35, Type (0, 0), BuildingBlock: XIVTED_clean_linker_0, # of connection points: 2
#     Edge 36, Type (0, 0), BuildingBlock: XIVTED_clean_linker_0, # of connection points: 2
#     Edge 37, Type (0, 0), BuildingBlock: XIVTED_clean_linker_0, # of connection points: 2
#     Edge 38, Type (0, 0), BuildingBlock: XIVTED_clean_linker_0, # of connection points: 2
#     Edge 39, Type (0, 0), BuildingBlock: XIVTED_clean_linker_0, # of connection points: 2
#     Edge 40, Type (0, 0), BuildingBlock: XIVTED_clean_linker_0, # of connection points: 2
#     Edge 41, Type (0, 0), BuildingBlock: XIVTED_clean_linker_0, # of connection points: 2
#     Edge 42, Type (0, 0), BuildingBlock: XIVTED_clean_linker_0, # of connection points: 2
#     Edge 43, Type (0, 0), BuildingBlock: XIVTED_clean_linker_0, # of connection points: 2
#     Edge 44, Type (0, 0), BuildingBlock: XIVTED_clean_linker_0, # of connection points: 2
#     Edge 45, Type (0, 0), BuildingBlock: XIVTED_clean_linker_0, # of connection points: 2
#     Edge 46, Type (0, 0), BuildingBlock: XIVTED_clean_linker_0, # of connection points: 2
#     Edge 47, Type (0, 0), BuildingBlock: XIVTED_clean_linker_0, # of connection points: 2
#     Edge 48, Type (0, 0), BuildingBlock: XIVTED_clean_linker_0, # of connection points: 2
#     Edge 49, Type (0, 0), BuildingBlock: XIVTED_clean_linker_0, # of connection points: 2
#     Edge 50, Type (0, 0), BuildingBlock: XIVTED_clean_linker_0, # of connection points: 2
#     Edge 51, Type (0, 0), BuildingBlock: XIVTED_clean_linker_0, # of connection points: 2
#     Edge 52, Type (0, 0), BuildingBlock: XIVTED_clean_linker_0, # of connection points: 2
#     Edge 53, Type (0, 0), BuildingBlock: XIVTED_clean_linker_0, # of connection points: 2
#     Edge 54, Type (0, 0), BuildingBlock: XIVTED_clean_linker_0, # of connection points: 2
#     Edge 55, Type (0, 0), BuildingBlock: XIVTED_clean_linker_0, # of connection points: 2
#     Edge 56, Type (0, 0), BuildingBlock: XIVTED_clean_linker_0, # of connection points: 2
#     Edge 57, Type (0, 0), BuildingBlock: XIVTED_clean_linker_0, # of connection points: 2
#     Edge 58, Type (0, 0), BuildingBlock: XIVTED_clean_linker_0, # of connection points: 2
#     Edge 59, Type (0, 0), BuildingBlock: XIVTED_clean_linker_0, # of connection points: 2
#     Edge 60, Type (0, 0), BuildingBlock: XIVTED_clean_linker_0, # of connection points: 2
#     Edge 61, Type (0, 0), BuildingBlock: XIVTED_clean_linker_0, # of connection points: 2
#     Edge 62, Type (0, 0), BuildingBlock: XIVTED_clean_linker_0, # of connection points: 2
#     Edge 63, Type (0, 0), BuildingBlock: XIVTED_clean_linker_0, # of connection points: 2
#     Edge 64, Type (0, 0), BuildingBlock: XIVTED_clean_linker_0, # of connection points: 2
#     Edge 65, Type (0, 0), BuildingBlock: XIVTED_clean_linker_0, # of connection points: 2
#     Edge 66, Type (0, 0), BuildingBlock: XIVTED_clean_linker_0, # of connection points: 2
#     Edge 67, Type (0, 0), BuildingBlock: XIVTED_clean_linker_0, # of connection points: 2
#     Edge 68, Type (0, 0), BuildingBlock: XIVTED_clean_linker_0, # of connection points: 2
#     Edge 69, Type (0, 0), BuildingBlock: XIVTED_clean_linker_0, # of connection points: 2
#     Edge 70, Type (0, 0), BuildingBlock: XIVTED_clean_linker_0, # of connection points: 2
#     Edge 71, Type (0, 0), BuildingBlock: XIVTED_clean_linker_0, # of connection points: 2
# Relax obj value: 0.362
# Max RMSD: 0.351
# Mean RMSD: 0.318
data_MOF--net-unv--node1-AZAVOO_clean_sbu_0--edge1-XIVTED_clean_linker_0
_symmetry_space_group_name_H-M    P1
_symmetry_Int_Tables_number       1
_symmetry_cell_setting            triclinic
loop_
_symmetry_equiv_pos_as_xyz
'x, y, z'
_cell_length_a     48.591046
_cell_length_b     47.305447
_cell_length_c     48.080042
_cell_angle_alpha  89.86808
_cell_angle_beta   89.957698
_cell_angle_gamma 89.843202
loop_
_atom_site_label
_atom_site_type_symbol
_atom_site_fract_x
_atom_site_fract_y
_atom_site_fract_z
_atom_type_partial_charge
Mg0 Mg 0.01266 0.09769 0.35311 0.0
O1 O 0.98481 0.06493 0.37665 0.0
O2 O 0.96657 0.0851 0.41484 0.0
Mg3 Mg 0.9709 0.13182 0.407 0.0
C4 C 0.97133 0.06352 0.39962 0.0
C5 C 0.03001 0.07425 0.29559 0.0
O6 O 0.03363 0.10152 0.29192 0.0
O7 O 0.97873 0.11977 0.32711 0.0
O8 O 0.95627 0.11695 0.36524 0.0
O9 O 0.04431 0.08916 0.38497 0.0
O10 O 0.01313 0.12295 0.39026 0.0
C11 C 0.96173 0.13114 0.34367 0.0
C12 C 0.0332 0.10837 0.40054 0.0
O13 O 0.02097 0.06552 0.31886 0.0
Mg14 Mg 0.93856 0.39564 0.38762 0.0
O15 O 0.98019 0.41597 0.39577 0.0
O16 O 0.99708 0.40157 0.43654 0.0
Mg17 Mg 0.96549 0.37061 0.45458 0.0
C18 C 0.99888 0.41631 0.41436 0.0
C19 C 0.91965 0.42698 0.33578 0.0
O20 O 0.89766 0.42665 0.35171 0.0
O21 O 0.9589 0.35377 0.37636 0.0
O22 O 0.97136 0.33901 0.41869 0.0
O23 O 0.91793 0.43068 0.40973 0.0
O24 O 0.93244 0.39189 0.43093 0.0
C25 C 0.96893 0.33494 0.39252 0.0
C26 C 0.9218 0.41684 0.43261 0.0
O27 O 0.94073 0.41307 0.34348 0.0
Mg28 Mg 0.10742 0.88886 0.11109 0.0
O29 O 0.07686 0.9137 0.08369 0.0
O30 O 0.07662 0.89577 0.0408 0.0
Mg31 Mg 0.10672 0.85863 0.04067 0.0
C32 C 0.06821 0.91376 0.05863 0.0
C33 C 0.09057 0.93896 0.14681 0.0
O34 O 0.10108 0.95013 0.12415 0.0
O35 O 0.07734 0.85156 0.11543 0.0
O36 O 0.0801 0.83497 0.07206 0.0
O37 O 0.14094 0.9174 0.09645 0.0
O38 O 0.1299 0.87781 0.07512 0.0
C39 C 0.0708 0.83349 0.09686 0.0
C40 C 0.14384 0.90092 0.07523 0.0
O41 O 0.0898 0.91214 0.14898 0.0
Mg42 Mg 0.94608 0.59183 0.12669 0.0
O43 O 0.98195 0.56256 0.1144 0.0
O44 O 0.992 0.56916 0.06955 0.0
Mg45 Mg 0.96353 0.60392 0.0534 0.0
C46 C 0.99603 0.55663 0.09273 0.0
C47 C 0.93036 0.57249 0.18429 0.0
O48 O 0.9069 0.57877 0.17213 0.0
O49 O 0.97482 0.63026 0.12908 0.0
O50 O 0.98235 0.63572 0.08357 0.0
O51 O 0.91679 0.55891 0.11277 0.0
O52 O 0.93271 0.59227 0.08496 0.0
C53 C 0.98569 0.64361 0.10872 0.0
C54 C 0.91876 0.5693 0.08797 0.0
O55 O 0.95262 0.57855 0.17174 0.0
Mg56 Mg 0.37055 0.05541 0.11225 0.0
O57 O 0.41077 0.0307 0.11959 0.0
O58 O 0.4453 0.06164 0.12283 0.0
Mg59 Mg 0.42633 0.10569 0.12367 0.0
C60 C 0.43644 0.03631 0.12128 0.0
C61 C 0.32955 0.00393 0.10375 0.0
O62 O 0.31948 0.9788 0.10934 0.0
O63 O 0.3669 0.06666 0.15787 0.0
O64 O 0.40181 0.09656 0.16344 0.0
O65 O 0.38202 0.05353 0.06787 0.0
O66 O 0.39414 0.08854 0.09588 0.0
C67 C 0.38131 0.08289 0.17311 0.0
C68 C 0.39799 0.07479 0.07298 0.0
O69 O 0.34705 0.01464 0.12022 0.0
Mg70 Mg 0.58527 0.47075 0.10453 0.0
O71 O 0.57647 0.51482 0.0875 0.0
O72 O 0.5439 0.53517 0.11336 0.0
Mg73 Mg 0.53453 0.50476 0.14942 0.0
C74 C 0.56024 0.53538 0.09259 0.0
C75 C 0.62297 0.44339 0.06237 0.0
O76 O 0.60424 0.42421 0.06799 0.0
O77 O 0.6111 0.48765 0.13993 0.0
O78 O 0.57863 0.50589 0.16757 0.0
O79 O 0.55081 0.45471 0.07935 0.0
O80 O 0.5462 0.46837 0.12316 0.0
C81 C 0.60375 0.49943 0.16262 0.0
C82 C 0.53508 0.45906 0.10066 0.0
O83 O 0.62193 0.46687 0.07515 0.0
Mg84 Mg 0.357 0.04477 0.41503 0.0
O85 O 0.37704 0.07718 0.44502 0.0
O86 O 0.41754 0.09163 0.42759 0.0
Mg87 Mg 0.41204 0.08418 0.38136 0.0
C88 C 0.40031 0.08965 0.44762 0.0
C89 C 0.32469 0.03158 0.46976 0.0
O90 O 0.34986 0.02643 0.47837 0.0
O91 O 0.33283 0.07668 0.38838 0.0
O92 O 0.36991 0.10109 0.39169 0.0
O93 O 0.38873 0.01502 0.43012 0.0
O94 O 0.39508 0.04175 0.39267 0.0
C95 C 0.34867 0.09502 0.37778 0.0
C96 C 0.40487 0.02407 0.41062 0.0
O97 O 0.3209 0.03975 0.44484 0.0
Mg98 Mg 0.64908 0.4828 0.38879 0.0
O99 O 0.64287 0.43882 0.40926 0.0
O100 O 0.61162 0.41513 0.38407 0.0
Mg101 Mg 0.61917 0.43222 0.34045 0.0
C102 C 0.6251 0.41905 0.40656 0.0
C103 C 0.66885 0.51883 0.43783 0.0
O104 O 0.64847 0.53403 0.42775 0.0
O105 O 0.68704 0.4707 0.36313 0.0
O106 O 0.66368 0.43348 0.35379 0.0
O107 O 0.60695 0.49213 0.40241 0.0
O108 O 0.61558 0.47472 0.3604 0.0
C109 C 0.67978 0.45261 0.3452 0.0
C110 C 0.5979 0.48206 0.37915 0.0
O111 O 0.67524 0.49581 0.42584 0.0
Mg112 Mg 0.08498 0.30704 0.03909 0.0
O113 O 0.08002 0.35192 0.05853 0.0
O114 O 0.03969 0.35152 0.0817 0.0
Mg115 Mg 0.01843 0.30885 0.0792 0.0
C116 C 0.0616 0.36402 0.07358 0.0
C117 C 0.1397 0.32913 0.01071 0.0
O118 O 0.1221 0.34603 -0.00178 0.0
O119 O 0.09364 0.28746 0.08162 0.0
O120 O 0.0557 0.2924 0.10375 0.0
O121 O 0.06252 0.32096 0.00108 0.0
O122 O 0.04135 0.30509 0.03856 0.0
C123 C 0.07114 0.27636 0.08953 0.0
C124 C 0.03965 0.31534 0.01379 0.0
O125 O 0.13098 0.31213 0.02926 0.0
Mg126 Mg 0.09217 0.66285 0.45396 0.0
O127 O 0.08514 0.61862 0.43412 0.0
O128 O 0.04174 0.61587 0.41817 0.0
Mg129 Mg 0.02229 0.65917 0.42141 0.0
C130 C 0.06537 0.60496 0.42285 0.0
C131 C 0.14762 0.63112 0.46673 0.0
O132 O 0.12993 0.61247 0.47619 0.0
O133 O 0.09653 0.68547 0.41206 0.0
O134 O 0.0587 0.67152 0.394 0.0
O135 O 0.07362 0.64694 0.49337 0.0
O136 O 0.04881 0.66577 0.45954 0.0
C137 C 0.07244 0.69185 0.40386 0.0
C138 C 0.04965 0.65382 0.48363 0.0
O139 O 0.13862 0.65425 0.45661 0.0
Mg140 Mg 0.89423 0.84419 0.54318 0.0
O141 O 0.91165 0.87941 0.5151 0.0
O142 O 0.95272 0.8917 0.53234 0.0
Mg143 Mg 0.96203 0.8643 0.57035 0.0
C144 C 0.93352 0.89439 0.51438 0.0
C145 C 0.83669 0.82897 0.5262 0.0
O146 O 0.83845 0.8243 0.5531 0.0
O147 O 0.92391 0.81265 0.52174 0.0
O148 O 0.96348 0.82671 0.54096 0.0
O149 O 0.87707 0.87831 0.57028 0.0
O150 O 0.91792 0.85863 0.57634 0.0
C151 C 0.95003 0.81038 0.52487 0.0
C152 C 0.90075 0.87836 0.58252 0.0
O153 O 0.85834 0.83654 0.51326 0.0
Mg154 Mg 0.40536 0.58953 0.41581 0.0
O155 O 0.41909 0.56003 0.45172 0.0
O156 O 0.46354 0.54985 0.444 0.0
Mg157 Mg 0.478 0.57139 0.40421 0.0
C158 C 0.44159 0.54767 0.45842 0.0
C159 C 0.34728 0.58252 0.44389 0.0
O160 O 0.35315 0.5558 0.43931 0.0
O161 O 0.42917 0.62688 0.43521 0.0
O162 O 0.47246 0.61365 0.42598 0.0
O163 O 0.39552 0.5503 0.39117 0.0
O164 O 0.43531 0.57276 0.39002 0.0
C165 C 0.45519 0.63115 0.4362 0.0
C166 C 0.42083 0.55136 0.38286 0.0
O167 O 0.36521 0.60119 0.43813 0.0
Mg168 Mg 0.47542 0.61379 0.87033 0.0
O169 O 0.45649 0.5738 0.89039 0.0
O170 O 0.43915 0.5835 0.93264 0.0
Mg171 Mg 0.44121 0.63112 0.93787 0.0
C172 C 0.44492 0.56616 0.91313 0.0
C173 C 0.50429 0.58561 0.81981 0.0
O174 O 0.52546 0.59752 0.83202 0.0
O175 O 0.43326 0.63038 0.85727 0.0
O176 O 0.41567 0.6314 0.89809 0.0
O177 O 0.51368 0.60489 0.89337 0.0
O178 O 0.47988 0.63007 0.91176 0.0
C179 C 0.42532 0.64523 0.87769 0.0
C180 C 0.50329 0.61741 0.91487 0.0
O181 O 0.48038 0.58954 0.82979 0.0
Mg182 Mg 0.50054 0.89077 0.93364 0.0
O183 O 0.54605 0.89778 0.92751 0.0
O184 O 0.57043 0.88138 0.96329 0.0
Mg185 Mg 0.53842 0.86025 0.99199 0.0
C186 C 0.56894 0.89377 0.93973 0.0
C187 C 0.47581 0.92325 0.8842 0.0
O188 O 0.45891 0.93009 0.90445 0.0
O189 O 0.50518 0.84496 0.9214 0.0
O190 O 0.52596 0.82701 0.95903 0.0
O191 O 0.49837 0.93074 0.95707 0.0
O192 O 0.50546 0.88918 0.9772 0.0
C193 C 0.51483 0.82405 0.9351 0.0
C194 C 0.50343 0.91628 0.97938 0.0
O195 O 0.49471 0.90528 0.88895 0.0
Mg196 Mg 0.53295 0.38199 0.64155 0.0
O197 O 0.49724 0.3986 0.61364 0.0
O198 O 0.4954 0.37313 0.57432 0.0
Mg199 Mg 0.51659 0.33202 0.58651 0.0
C200 C 0.48859 0.39475 0.58873 0.0
C201 C 0.54111 0.43321 0.67996 0.0
O202 O 0.56548 0.43059 0.66838 0.0
O203 O 0.50894 0.34758 0.66523 0.0
O204 O 0.49106 0.33817 0.62524 0.0
O205 O 0.55981 0.40384 0.61152 0.0
O206 O 0.54868 0.35857 0.60698 0.0
C207 C 0.49756 0.32969 0.64936 0.0
C208 C 0.56018 0.38091 0.5969 0.0
O209 O 0.5224 0.41562 0.67368 0.0
Mg210 Mg 0.51088 0.09491 0.67729 0.0
O211 O 0.5312 0.06135 0.64805 0.0
O212 O 0.54198 0.08132 0.60699 0.0
Mg213 Mg 0.53895 0.12851 0.6138 0.0
C214 C 0.53982 0.05974 0.62287 0.0
C215 C 0.48681 0.05903 0.72485 0.0
O216 O 0.46552 0.07445 0.71739 0.0
O217 O 0.55138 0.11402 0.6932 0.0
O218 O 0.56501 0.11704 0.65097 0.0
O219 O 0.47219 0.08789 0.65447 0.0
O220 O 0.50247 0.12018 0.6413 0.0
C221 C 0.56077 0.1295 0.67385 0.0
C222 C 0.48 0.10655 0.6364 0.0
O223 O 0.50965 0.06271 0.71248 0.0
Mg224 Mg 0.84389 0.58799 0.62106 0.0
O225 O 0.86348 0.55007 0.59956 0.0
O226 O 0.90788 0.54625 0.61077 0.0
Mg227 Mg 0.91634 0.58218 0.64144 0.0
C228 C 0.88675 0.53773 0.59749 0.0
C229 C 0.78683 0.58774 0.59307 0.0
O230 O 0.79317 0.61469 0.5916 0.0
O231 O 0.84179 0.56338 0.66201 0.0
O232 O 0.88643 0.56284 0.6731 0.0
O233 O 0.8572 0.61433 0.58527 0.0
O234 O 0.88283 0.6073 0.62261 0.0
C235 C 0.86135 0.55698 0.67862 0.0
C236 C 0.88076 0.61683 0.59753 0.0
O237 O 0.80261 0.57117 0.60647 0.0
Mg238 Mg 0.10311 0.01205 0.61854 0.0
O239 O 0.09093 0.05138 0.59483 0.0
O240 O 0.05721 0.07483 0.61616 0.0
Mg241 Mg 0.05011 0.05029 0.657 0.0
C242 C 0.07388 0.07181 0.59586 0.0
C243 C 0.16471 0.00386 0.59912 0.0
O244 O 0.16833 -0.00198 0.62559 0.0
O245 O 0.12667 0.03773 0.64965 0.0
O246 O 0.09392 0.05958 0.67416 0.0
O247 O 0.07026 0.98927 0.59642 0.0
O248 O 0.06415 0.01023 0.63724 0.0
C249 C 0.11927 0.05387 0.66948 0.0
C250 C 0.05388 0.99676 0.61639 0.0
O251 O 0.14063 0.00933 0.59028 0.0
Mg252 Mg 0.8284 0.39824 0.89918 0.0
O253 O 0.84953 0.43063 0.92724 0.0
O254 O 0.89436 0.43286 0.91694 0.0
Mg255 Mg 0.90156 0.40274 0.88069 0.0
C256 C 0.87356 0.44063 0.93126 0.0
C257 C 0.77018 0.39578 0.92416 0.0
O258 O 0.77575 0.3689 0.92011 0.0
O259 O 0.82851 0.43025 0.86309 0.0
O260 O 0.87379 0.43141 0.85472 0.0
O261 O 0.84036 0.36498 0.92989 0.0
O262 O 0.86607 0.37736 0.89397 0.0
C263 C 0.84929 0.43978 0.84975 0.0
C264 C 0.86366 0.36348 0.91691 0.0
O265 O 0.78737 0.41417 0.91592 0.0
Mg266 Mg 0.20847 0.06229 0.8803 0.0
O267 O 0.20861 0.01822 0.90041 0.0
O268 O 0.18121 0.98782 0.87818 0.0
Mg269 Mg 0.17966 0.00786 0.83497 0.0
C270 C 0.19593 0.99464 0.89914 0.0
C271 C 0.23193 0.07936 0.93913 0.0
O272 O 0.20577 0.08334 0.94488 0.0
O273 O 0.24423 0.0544 0.85022 0.0
O274 O 0.22507 0.01443 0.84262 0.0
O275 O 0.16628 0.06667 0.89783 0.0
O276 O 0.1736 0.05041 0.85528 0.0
C277 C 0.23643 0.03623 0.83263 0.0
C278 C 0.15657 0.05597 0.8751 0.0
O279 O 0.239 0.07369 0.91431 0.0
Mg280 Mg 0.58452 0.86554 0.44359 0.0
O281 O 0.57177 0.88863 0.48384 0.0
O282 O 0.52753 0.90112 0.47944 0.0
Mg283 Mg 0.51168 0.88568 0.43754 0.0
C284 C 0.54998 0.90049 0.4932 0.0
C285 C 0.64652 0.85373 0.44838 0.0
O286 O 0.64364 0.8633 0.42286 0.0
O287 O 0.56123 0.82528 0.45705 0.0
O288 O 0.51781 0.84013 0.45173 0.0
O289 O 0.59396 0.90832 0.42576 0.0
O290 O 0.55389 0.88668 0.42155 0.0
C291 C 0.53523 0.82096 0.45812 0.0
C292 C 0.56847 0.90899 0.41801 0.0
O293 O 0.62517 0.85137 0.46358 0.0
Mg294 Mg 0.61449 0.12892 0.96104 0.0
O295 O 0.62238 0.089 0.93533 0.0
O296 O 0.58213 0.07393 0.9188 0.0
Mg297 Mg 0.54753 0.10057 0.93713 0.0
C298 C 0.60822 0.07181 0.92088 0.0
C299 C 0.67718 0.11917 0.96841 0.0
O300 O 0.66635 0.09639 0.97959 0.0
O301 O 0.60281 0.15719 0.92322 0.0
O302 O 0.56084 0.14006 0.91451 0.0
O303 O 0.60767 0.10176 0.00016 0.0
O304 O 0.57518 0.11434 0.97043 0.0
C305 C 0.57965 0.15834 0.9104 0.0
C306 C 0.5822 0.10108 0.99249 0.0
O307 O 0.66109 0.13813 0.95875 0.0
Mg308 Mg 0.395 0.30922 0.99769 0.0
O309 O 0.40721 0.35298 0.98014 0.0
O310 O 0.44778 0.36424 -0.00113 0.0
Mg311 Mg 0.46239 0.32832 0.02651 0.0
C312 C 0.42727 0.37016 0.98307 0.0
C313 C 0.34094 0.32853 0.97056 0.0
O314 O 0.35107 0.35225 0.98024 0.0
O315 O 0.4258 0.28868 0.9664 0.0
O316 O 0.46467 0.30317 0.98676 0.0
O317 O 0.37647 0.33049 0.03411 0.0
O318 O 0.41964 0.31585 0.0326 0.0
C319 C 0.45217 0.29036 0.96717 0.0
C320 C 0.40081 0.33041 0.04483 0.0
O321 O 0.35626 0.3066 0.9704 0.0
Mg322 Mg 0.93937 0.11072 0.91988 0.0
O323 O 0.96123 0.08097 0.95125 0.0
O324 O 0.00639 0.0846 0.94195 0.0
Mg325 Mg 0.01368 0.1148 0.9056 0.0
C326 C 0.98639 0.07445 0.95603 0.0
C327 C 0.88155 0.1289 0.93622 0.0
O328 O 0.89104 0.1491 0.92006 0.0
O329 O 0.95371 0.14899 0.94607 0.0
O330 O 0.99807 0.14964 0.93357 0.0
O331 O 0.93963 0.07379 0.88999 0.0
O332 O 0.97191 0.10635 0.89219 0.0
C333 C 0.97776 0.15997 0.94694 0.0
C334 C 0.96374 0.08259 0.88259 0.0
O335 O 0.89758 0.10846 0.94241 0.0
H336 H 0.02864 0.10187 0.57797 0.0
H337 H 0.0813 0.0907 0.42347 0.0
H338 H 0.11218 0.08069 0.5555 0.0
H339 H 0.00528 0.13305 0.4442 0.0
H340 H 0.09417 0.09124 0.47234 0.0
H341 H 0.02085 0.11891 0.53042 0.0
C342 C 0.04557 0.10158 0.56331 0.0
C343 C 0.07093 0.08931 0.57052 0.0
C344 C 0.07477 0.10073 0.46626 0.0
C345 C 0.06203 0.1082 0.51615 0.0
C346 C 0.06735 0.10027 0.43832 0.0
C347 C 0.04196 0.1114 0.42979 0.0
C348 C 0.05645 0.11189 0.48604 0.0
C349 C 0.02489 0.12392 0.4499 0.0
C350 C 0.04107 0.11115 0.53612 0.0
C351 C 0.09213 0.08945 0.55068 0.0
N352 N 0.03222 0.12339 0.47722 0.0
N353 N 0.08705 0.09822 0.52432 0.0
H354 H 0.94669 0.40868 0.4835 0.0
H355 H 0.84854 0.5195 0.55996 0.0
H356 H 0.88206 0.45563 0.44262 0.0
H357 H 0.93166 0.50344 0.58784 0.0
H358 H 0.85551 0.48608 0.52215 0.0
H359 H 0.93651 0.43416 0.52681 0.0
C360 C 0.93015 0.42401 0.48372 0.0
C361 C 0.91523 0.43017 0.45947 0.0
C362 C 0.87212 0.4897 0.53671 0.0
C363 C 0.90339 0.45896 0.50869 0.0
C364 C 0.86817 0.50871 0.55841 0.0
C365 C 0.8897 0.51464 0.57695 0.0
C366 C 0.89769 0.47628 0.53358 0.0
C367 C 0.9146 0.49976 0.57386 0.0
C368 C 0.92447 0.43861 0.50835 0.0
C369 C 0.89419 0.45044 0.46082 0.0
N370 N 0.91799 0.48134 0.55243 0.0
N371 N 0.88885 0.46406 0.48502 0.0
H372 H 0.15247 0.87225 0.0263 0.0
H373 H 0.21886 0.00623 0.94981 0.0
H374 H 0.16963 0.95157 0.06688 0.0
H375 H 0.1722 0.94234 0.90651 0.0
H376 H 0.21218 0.98034 0.99312 0.0
H377 H 0.17059 0.89243 0.98285 0.0
C378 C 0.16007 0.8937 0.02616 0.0
C379 C 0.15869 0.91061 0.05009 0.0
C380 C 0.20369 0.97184 0.97407 0.0
C381 C 0.18018 0.9326 0.00067 0.0
C382 C 0.20755 0.98653 0.94924 0.0
C383 C 0.19569 0.97668 0.92443 0.0
C384 C 0.18808 0.94698 0.97415 0.0
C385 C 0.18145 0.9509 0.92514 0.0
C386 C 0.17055 0.9047 0.00137 0.0
C387 C 0.16987 0.93791 0.04886 0.0
N388 N 0.17783 0.93703 0.94969 0.0
N389 N 0.17996 0.94813 0.02449 0.0
H390 H 0.9255 0.58096 0.03227 0.0
H391 H 0.84257 0.44795 0.97818 0.0
H392 H 0.88794 0.52111 0.08849 0.0
H393 H 0.91348 0.48101 0.93497 0.0
H394 H 0.85073 0.48102 0.01586 0.0
H395 H 0.91262 0.5516 0.9932 0.0
C396 C 0.9146 0.56156 0.03649 0.0
C397 C 0.90848 0.5532 0.06382 0.0
C398 C 0.86436 0.48088 -0.00197 0.0
C399 C 0.89296 0.5192 0.01913 0.0
C400 C 0.85971 0.46246 0.97653 0.0
C401 C 0.87752 0.46159 0.95355 0.0
C402 C 0.8866 0.50037 0.99619 0.0
C403 C 0.89944 0.48081 0.95246 0.0
C404 C 0.90718 0.54446 0.01414 0.0
C405 C 0.89345 0.52819 0.06781 0.0
N406 N 0.90332 0.49953 0.97347 0.0
N407 N 0.88623 0.51202 0.04569 0.0
H408 H 0.42225 0.03616 0.0382 0.0
H409 H 0.56844 0.11171 0.04591 0.0
H410 H 0.43521 0.11808 0.07526 0.0
H411 H 0.54564 0.06137 0.97557 0.0
H412 H 0.52294 0.10304 0.06646 0.0
H413 H 0.47011 0.03631 0.02204 0.0
C414 C 0.43497 0.05437 0.04261 0.0
C415 C 0.42472 0.07709 0.05837 0.0
C416 C 0.52821 0.09318 0.04684 0.0
C417 C 0.47961 0.07673 0.04089 0.0
C418 C 0.55427 0.09767 0.03542 0.0
C419 C 0.5606 0.08682 0.00912 0.0
C420 C 0.50867 0.0775 0.03191 0.0
C421 C 0.54135 0.07009 0.99593 0.0
C422 C 0.46234 0.05421 0.03368 0.0
C423 C 0.44233 0.09989 0.0637 0.0
N424 N 0.51606 0.06538 0.00736 0.0
N425 N 0.469 0.099 0.05526 0.0
H426 H 0.50496 0.43752 0.14353 0.0
H427 H 0.43424 0.3252 0.08981 0.0
H428 H 0.50025 0.45862 0.05634 0.0
H429 H 0.38802 0.38608 0.04196 0.0
H430 H 0.45874 0.36403 0.11244 0.0
H431 H 0.46238 0.41004 0.13892 0.0
C432 C 0.49444 0.43718 0.12368 0.0
C433 C 0.50626 0.44978 0.1001 0.0
C434 C 0.44239 0.36894 0.09789 0.0
C435 C 0.45797 0.41883 0.09486 0.0
C436 C 0.42851 0.34681 0.08498 0.0
C437 C 0.40908 0.35262 0.06427 0.0
C438 C 0.43745 0.39684 0.08912 0.0
C439 C 0.40269 0.38089 0.05816 0.0
C440 C 0.47033 0.42142 0.12108 0.0
C441 C 0.49194 0.44874 0.07486 0.0
N442 N 0.41759 0.40202 0.06983 0.0
N443 N 0.46861 0.4332 0.07281 0.0
H444 H 0.56352 0.95436 0.45193 0.0
H445 H 0.43821 0.01929 0.36511 0.0
H446 H 0.5389 0.92213 0.37203 0.0
H447 H 0.43747 0.00889 0.45425 0.0
H448 H 0.48486 -0.00102 0.36386 0.0
H449 H 0.52727 0.99056 0.44855 0.0
C450 C 0.55132 0.95582 0.43311 0.0
C451 C 0.55417 0.9356 0.41207 0.0
C452 C 0.47458 0.00169 0.38368 0.0
C453 C 0.51287 0.97634 0.40823 0.0
C454 C 0.44808 0.01321 0.38442 0.0
C455 C 0.43394 0.01523 0.40977 0.0
C456 C 0.48711 0.99289 0.40853 0.0
C457 C 0.44757 0.00717 0.43424 0.0
C458 C 0.53051 0.97616 0.43136 0.0
C459 C 0.53736 0.93764 0.3885 0.0
N460 N 0.47341 0.99625 0.43302 0.0
N461 N 0.51722 0.95757 0.38725 0.0
H462 H 0.44863 0.54722 0.33435 0.0
H463 H 0.55901 0.47122 0.41834 0.0
H464 H 0.42881 0.50128 0.40907 0.0
H465 H 0.56917 0.48526 0.33031 0.0
H466 H 0.50923 0.47466 0.41265 0.0
H467 H 0.48902 0.51716 0.32783 0.0
C468 C 0.45207 0.52977 0.34858 0.0
C469 C 0.4355 0.52658 0.37222 0.0
C470 C 0.52221 0.47633 0.3944 0.0
C471 C 0.48243 0.49328 0.36594 0.0
C472 C 0.55065 0.4746 0.39771 0.0
C473 C 0.5681 0.47866 0.37485 0.0
C474 C 0.51121 0.48303 0.36818 0.0
C475 C 0.55631 0.48239 0.34849 0.0
C476 C 0.47529 0.51277 0.34506 0.0
C477 C 0.44105 0.50416 0.39045 0.0
N478 N 0.52856 0.48527 0.34597 0.0
N479 N 0.46461 0.48889 0.38744 0.0
H480 H 0.08203 0.40699 0.0412 0.0
H481 H 0.00789 0.52194 0.13697 0.0
H482 H 0.0453 0.38986 0.12113 0.0
H483 H 0.02842 0.53576 0.05058 0.0
H484 H 0.03346 0.47752 0.13575 0.0
H485 H 0.07453 0.45779 0.0489 0.0
C486 C 0.07317 0.41399 0.06069 0.0
C487 C 0.06391 0.39431 0.08041 0.0
C488 C 0.0327 0.49048 0.11716 0.0
C489 C 0.05509 0.45199 0.08924 0.0
C490 C 0.01811 0.51591 0.11784 0.0
C491 C 0.01545 0.53239 0.09367 0.0
C492 C 0.04469 0.48135 0.09213 0.0
C493 C 0.0295 0.52355 0.06961 0.0
C494 C 0.06869 0.44291 0.06499 0.0
C495 C 0.05237 0.4044 0.10524 0.0
N496 N 0.04316 0.49842 0.06933 0.0
N497 N 0.04801 0.43248 0.10881 0.0
H498 H 0.03505 0.4346 0.45444 0.0
H499 H 0.04983 0.57842 0.37569 0.0
H500 H 0.01295 0.44703 0.3683 0.0
H501 H 0.08747 0.56327 0.45548 0.0
H502 H 0.04476 0.52763 0.36929 0.0
H503 H 0.06264 0.47769 0.45248 0.0
C504 C 0.03654 0.44595 0.43491 0.0
C505 C 0.021 0.43761 0.41171 0.0
C506 C 0.0547 0.5352 0.38799 0.0
C507 C 0.05228 0.48707 0.40945 0.0
C508 C 0.05761 0.56421 0.39158 0.0
C509 C 0.06878 0.57485 0.41624 0.0
C510 C 0.06217 0.51672 0.40965 0.0
C511 C 0.07868 0.55573 0.43619 0.0
C512 C 0.05228 0.47062 0.43382 0.0
C513 C 0.02398 0.45303 0.38692 0.0
N514 N 0.07449 0.5275 0.43279 0.0
N515 N 0.03881 0.47727 0.38661 0.0
H516 H 0.89301 0.92071 0.48415 0.0
H517 H 0.92401 0.05241 0.42762 0.0
H518 H 0.98118 0.91749 0.49471 0.0
H519 H 0.99754 0.01233 0.3963 0.0
H520 H 0.91162 0.00839 0.45115 0.0
H521 H 0.89883 0.95949 0.45071 0.0
C522 C 0.91358 0.928 0.47927 0.0
C523 C 0.93663 0.91617 0.49252 0.0
C524 C 0.93008 0.00895 0.43854 0.0
C525 C 0.94337 0.96036 0.45449 0.0
C526 C 0.93726 0.0341 0.42528 0.0
C527 C 0.9618 0.03589 0.41001 0.0
C528 C 0.94789 0.98561 0.43699 0.0
C529 C 0.97834 0.01167 0.40771 0.0
C530 C 0.91685 0.9502 0.46037 0.0
C531 C 0.96282 0.92633 0.48532 0.0
N532 N 0.97138 0.98763 0.42162 0.0
N533 N 0.96548 0.94785 0.46677 0.0
H534 H 0.48 0.54685 0.49924 0.0
H535 H 0.45416 0.39177 0.54363 0.0
H536 H 0.40594 0.50528 0.47213 0.0
H537 H 0.49013 0.45102 0.60115 0.0
H538 H 0.43686 0.43163 0.51589 0.0
H539 H 0.4855 0.51108 0.53574 0.0
C540 C 0.46466 0.53041 0.50136 0.0
C541 C 0.44243 0.52896 0.48289 0.0
C542 C 0.44804 0.43582 0.53492 0.0
C543 C 0.44902 0.48761 0.52385 0.0
C544 C 0.45796 0.41313 0.5507 0.0
C545 C 0.4737 0.41808 0.57468 0.0
C546 C 0.45458 0.46355 0.54277 0.0
C547 C 0.47803 0.4462 0.58287 0.0
C548 C 0.46775 0.51008 0.52216 0.0
C549 C 0.42319 0.50717 0.48625 0.0
N550 N 0.46905 0.46787 0.56662 0.0
N551 N 0.42723 0.4869 0.50601 0.0
H552 H 0.59849 0.5527 0.05455 0.0
H553 H 0.5528 0.59308 0.92603 0.0
H554 H 0.51496 0.56802 0.08107 0.0
H555 H 0.48363 0.63284 0.96663 0.0
H556 H 0.57157 0.58067 0.97093 0.0
H557 H 0.58989 0.58066 0.01288 0.0
C558 C 0.57837 0.56219 0.05167 0.0
C559 C 0.55725 0.55752 0.07102 0.0
C560 C 0.55272 0.59283 0.97039 0.0
C561 C 0.54659 0.58817 0.02238 0.0
C562 C 0.54175 0.59968 0.94449 0.0
C563 C 0.51632 0.61363 0.94246 0.0
C564 C 0.53821 0.59997 0.9947 0.0
C565 C 0.50308 0.62171 0.96717 0.0
C566 C 0.57328 0.57782 0.02759 0.0
C567 C 0.53177 0.57084 0.06655 0.0
N568 N 0.51396 0.61435 0.99227 0.0
N569 N 0.52698 0.58509 0.04242 0.0
H570 H 0.42833 0.97886 0.12056 0.0
H571 H 0.51828 0.97067 0.98992 0.0
H572 H 0.48904 0.04269 0.10201 0.0
H573 H 0.49055 0.89373 0.03045 0.0
H574 H 0.51121 0.99583 0.03322 0.0
H575 H 0.45409 0.94541 0.09185 0.0
C576 C 0.44755 0.98559 0.11127 0.0
C577 C 0.45616 0.01383 0.11326 0.0
C578 C 0.5073 0.9733 0.03291 0.0
C579 C 0.48526 0.97592 0.07979 0.0
C580 C 0.51122 0.95856 0.00815 0.0
C581 C 0.50466 0.92978 0.0066 0.0
C582 C 0.49596 0.95932 0.05603 0.0
C583 C 0.49574 0.91597 0.03082 0.0
C584 C 0.46222 0.96649 0.09479 0.0
C585 C 0.48136 0.02126 0.10087 0.0
N586 N 0.49095 0.93103 0.05442 0.0
N587 N 0.49457 0.00268 0.08398 0.0
H588 H 0.54167 0.41672 0.55723 0.0
H589 H 0.65685 0.40154 0.45037 0.0
H590 H 0.59794 0.34742 0.57067 0.0
H591 H 0.573 0.40476 0.42109 0.0
H592 H 0.63994 0.38639 0.49631 0.0
H593 H 0.5566 0.41915 0.50849 0.0
C594 C 0.55719 0.40206 0.54981 0.0
C595 C 0.56877 0.38192 0.5677 0.0
C596 C 0.62542 0.38978 0.47953 0.0
C597 C 0.58615 0.38494 0.51265 0.0
C598 C 0.63499 0.39838 0.45345 0.0
C599 C 0.61626 0.40423 0.43199 0.0
C600 C 0.597 0.38813 0.48425 0.0
C601 C 0.5881 0.40014 0.43703 0.0
C602 C 0.5655 0.40331 0.52211 0.0
C603 C 0.58866 0.36321 0.55728 0.0
N604 N 0.57924 0.39303 0.46289 0.0
N605 N 0.59722 0.36551 0.5304 0.0
H606 H 0.43144 0.0821 0.62177 0.0
H607 H 0.44628 0.11989 0.46188 0.0
H608 H 0.49435 0.13807 0.59049 0.0
H609 H 0.3738 0.08115 0.49725 0.0
H610 H 0.46314 0.12924 0.50879 0.0
H611 H 0.40896 0.08363 0.57654 0.0
C612 C 0.44049 0.09484 0.60542 0.0
C613 C 0.46513 0.10956 0.60979 0.0
C614 C 0.44337 0.11905 0.50626 0.0
C615 C 0.43951 0.11129 0.55781 0.0
C616 C 0.43372 0.11367 0.47947 0.0
C617 C 0.40874 0.09934 0.47557 0.0
C618 C 0.42809 0.10975 0.5293 0.0
C619 C 0.39328 0.09202 0.49918 0.0
C620 C 0.42757 0.09578 0.57959 0.0
C621 C 0.47568 0.12599 0.58792 0.0
N622 N 0.4034 0.09695 0.52502 0.0
N623 N 0.463 0.12612 0.56273 0.0
H624 H 0.99629 0.66426 0.46812 0.0
H625 H 0.93354 0.62393 0.61656 0.0
H626 H 0.04523 0.6324 0.53629 0.0
H627 H 0.88413 0.63022 0.54221 0.0
H628 H 0.9746 0.63331 0.58877 0.0
H629 H 0.95482 0.6574 0.49616 0.0
C630 C 0.99832 0.65561 0.48888 0.0
C631 C 0.02427 0.64862 0.49977 0.0
C632 C 0.95475 0.63265 0.57856 0.0
C633 C 0.97695 0.64128 0.53214 0.0
C634 C 0.93127 0.62726 0.59442 0.0
C635 C 0.90537 0.62573 0.58165 0.0
C636 C 0.95229 0.63691 0.54976 0.0
C637 C 0.90369 0.631 0.55293 0.0
C638 C 0.97464 0.6518 0.50491 0.0
C639 C 0.02565 0.63788 0.52698 0.0
N640 N 0.92685 0.63626 0.53793 0.0
N641 N 1.00234 0.63463 0.54225 0.0
H642 H 0.89864 0.93172 0.56206 0.0
H643 H 0.02057 0.98363 0.66019 0.0
H644 H 0.9295 0.88234 0.63076 0.0
H645 H 0.02098 0.99184 0.57084 0.0
H646 H 0.97464 0.96207 0.65752 0.0
H647 H 0.93068 0.9697 0.5744 0.0
C648 C 0.91114 0.92951 0.5806 0.0
C649 C 0.91153 0.90404 0.59554 0.0
C650 C 0.98458 0.96934 0.63865 0.0
C651 C 0.94795 0.94701 0.60956 0.0
C652 C 0.01065 0.98161 0.64012 0.0
C653 C 0.02459 0.98903 0.61563 0.0
C654 C 0.97227 0.96526 0.61259 0.0
C655 C 0.01099 0.98596 0.59013 0.0
C656 C 0.92957 0.951 0.5874 0.0
C657 C 0.92864 0.90179 0.61888 0.0
N658 N 0.98558 0.97413 0.58923 0.0
N659 N 0.94645 0.92294 0.62506 0.0
H660 H 0.98776 0.30761 0.03529 0.0
H661 H 0.91336 0.35192 0.89307 0.0
H662 H 0.03051 0.33492 0.96101 0.0
H663 H 0.87008 0.34693 0.97134 0.0
H664 H 0.95576 0.33835 0.91669 0.0
H665 H 0.94382 0.31549 0.01141 0.0
C666 C 0.98793 0.31523 0.01405 0.0
C667 C 0.01285 0.32055 0.00022 0.0
C668 C 0.93698 0.3401 0.92871 0.0
C669 C 0.96279 0.32977 0.9727 0.0
C670 C 0.91274 0.34784 0.91523 0.0
C671 C 0.88825 0.35108 0.93034 0.0
C672 C 0.93678 0.3354 0.95755 0.0
C673 C 0.88856 0.34484 0.95891 0.0
C674 C 0.96286 0.31961 0.00042 0.0
C675 C 0.01183 0.33075 0.97257 0.0
N676 N 0.91253 0.3375 0.97168 0.0
N677 N 0.98724 0.33465 0.95974 0.0
H678 H 0.12684 0.05283 0.82705 0.0
H679 H 0.98365 0.03496 0.90663 0.0
H680 H 0.11894 0.04531 0.91613 0.0
H681 H 0.99403 0.08973 0.83577 0.0
H682 H 0.0316 0.01937 0.90156 0.0
H683 H 0.07666 0.04825 0.82275 0.0
C684 C 0.1146 0.04968 0.84564 0.0
C685 C 0.12692 0.0499 0.87204 0.0
C686 C 0.02297 0.03388 0.88642 0.0
C687 C 0.06992 0.0439 0.86715 0.0
C688 C 0.99552 0.04241 0.889 0.0
C689 C 0.985 0.0636 0.87153 0.0
C690 C 0.0396 0.04622 0.86584 0.0
C691 C 1.00142 0.07319 0.84949 0.0
C692 C 0.08607 0.04704 0.84314 0.0
C693 C 0.11016 0.04571 0.89545 0.0
N694 N 0.0281 0.06473 0.84746 0.0
N695 N 0.08247 0.04298 0.89247 0.0
H696 H 0.58061 0.04695 0.58627 0.0
H697 H 0.50803 0.91301 0.52907 0.0
H698 H 0.5129 0.00962 0.63109 0.0
H699 H 0.59484 0.92654 0.51585 0.0
H700 H 0.50896 0.94756 0.5669 0.0
H701 H 0.58645 0.00287 0.56042 0.0
C702 C 0.56726 0.02925 0.59094 0.0
C703 C 0.54618 0.03187 0.61071 0.0
C704 C 0.52792 0.94251 0.5561 0.0
C705 C 0.55231 0.98169 0.58081 0.0
C706 C 0.52739 0.92288 0.53448 0.0
C707 C 0.55136 0.91706 0.51919 0.0
C708 C 0.55241 0.95696 0.56197 0.0
C709 C 0.5759 0.93038 0.52712 0.0
C710 C 0.57065 0.0041 0.57628 0.0
C711 C 0.52945 0.00835 0.61606 0.0
N712 N 0.57568 0.95018 0.54758 0.0
N713 N 0.53249 0.98437 0.60073 0.0
H714 H 0.65029 0.04272 0.9455 0.0
H715 H 0.57896 0.90807 0.88572 0.0
H716 H 0.5941 0.03939 0.87622 0.0
H717 H 0.6128 0.91575 0.96824 0.0
H718 H 0.6058 0.94898 0.87109 0.0
H719 H 0.65712 0.99161 0.9418 0.0
C720 C 0.64036 0.03147 0.92868 0.0
C721 C 0.6209 0.04506 0.91166 0.0
C722 C 0.60813 0.94113 0.89214 0.0
C723 C 0.6285 0.98681 0.90751 0.0
C724 C 0.59287 0.91771 0.90051 0.0
C725 C 0.59288 0.90924 0.92851 0.0
C726 C 0.62306 0.95637 0.91205 0.0
C727 C 0.6117 0.92205 0.9466 0.0
C728 C 0.64416 0.00225 0.92671 0.0
C729 C 0.60873 0.02952 0.8902 0.0
N730 N 0.6254 0.94564 0.9383 0.0
N731 N 0.61224 0.00107 0.88912 0.0
H732 H 0.4727 0.52067 0.89211 0.0
H733 H 0.38326 0.40444 0.97143 0.0
H734 H 0.4043 0.54305 0.94505 0.0
H735 H 0.47107 0.39702 0.96018 0.0
H736 H 0.38486 0.45153 0.94957 0.0
H737 H 0.46602 0.47085 0.90471 0.0
C738 C 0.45601 0.51504 0.90599 0.0
C739 C 0.4392 0.53594 0.91782 0.0
C740 C 0.40365 0.43933 0.95165 0.0
C741 C 0.43132 0.47932 0.93191 0.0
C742 C 0.40274 0.41255 0.96396 0.0
C743 C 0.42711 0.3971 0.96775 0.0
C744 C 0.42897 0.45019 0.94254 0.0
C745 C 0.45189 0.4085 0.95788 0.0
C746 C 0.45231 0.48672 0.91322 0.0
C747 C 0.41791 0.52756 0.93577 0.0
N748 N 0.4522 0.43437 0.94567 0.0
N749 N 0.41457 0.49984 0.94232 0.0
H750 H 0.02788 0.07626 0.99368 0.0
H751 H 0.05985 0.96527 0.08324 0.0
H752 H 0.96101 0.02386 0.96571 0.0
H753 H 0.03544 0.91558 0.01224 0.0
H754 H 0.03538 0.00593 0.06349 0.0
H755 H 0.04338 0.03716 0.02417 0.0
C756 C 0.01616 0.05682 0.99446 0.0
C757 C 0.99306 0.05318 0.97742 0.0
C758 C 0.03527 0.98604 0.0524 0.0
C759 C 0.01082 0.00841 0.01182 0.0
C760 C 0.04902 0.96275 0.06372 0.0
C761 C 0.05008 0.93708 0.04913 0.0
C762 C 0.02223 0.98353 0.02648 0.0
C763 C 0.03553 0.93509 0.02397 0.0
C764 C 0.02489 0.0343 0.01194 0.0
C765 C 0.97872 0.02752 0.97887 0.0
N766 N 0.02226 0.95806 0.01337 0.0
N767 N 0.98821 0.00616 0.99534 0.0
H768 H 0.93382 0.16253 0.3816 0.0
H769 H 0.96964 0.31644 0.33797 0.0
H770 H 0.98888 0.17112 0.31152 0.0
H771 H 0.97818 0.28708 0.42272 0.0
H772 H 0.96875 0.26682 0.32243 0.0
H773 H 0.93905 0.21277 0.3911 0.0
C774 C 0.94691 0.17498 0.36808 0.0
C775 C 0.96161 0.16236 0.34625 0.0
C776 C 0.97125 0.27152 0.34432 0.0
C777 C 0.96704 0.22006 0.35671 0.0
C778 C 0.97179 0.29971 0.35323 0.0
C779 C 0.97369 0.306 0.38176 0.0
C780 C 0.9719 0.2498 0.36418 0.0
C781 C 0.97649 0.28342 0.40057 0.0
C782 C 0.94987 0.20361 0.37358 0.0
C783 C 0.97756 0.17988 0.32888 0.0
N784 N 0.97493 0.25638 0.3915 0.0
N785 N 0.97997 0.208 0.33454 0.0
H786 H 0.98592 0.67847 0.1551 0.0
H787 H 0.06051 0.80947 0.14854 0.0
H788 H 0.01912 0.67043 0.07213 0.0
H789 H 0.04352 0.79965 0.06096 0.0
H790 H 0.04001 0.76258 0.15701 0.0
H791 H 0.00486 0.72674 0.15735 0.0
C792 C 0.99762 0.68657 0.13765 0.0
C793 C 1.00065 0.67047 0.11325 0.0
C794 C 0.04033 0.77107 0.13609 0.0
C795 C 0.02193 0.72534 0.1156 0.0
C796 C 0.05194 0.79782 0.13124 0.0
C797 C 0.05404 0.80836 0.10394 0.0
C798 C 0.03105 0.75503 0.11339 0.0
C799 C 0.0428 0.79229 0.08228 0.0
C800 C 0.00835 0.71409 0.13895 0.0
C801 C 0.01585 0.68208 0.09121 0.0
N802 N 0.03224 0.76639 0.08745 0.0
N803 N 0.02549 0.70882 0.0928 0.0
H804 H 0.33946 0.05744 0.20233 0.0
H805 H 0.38366 0.12721 0.34682 0.0
H806 H 0.40643 0.11656 0.21161 0.0
H807 H 0.31646 0.06822 0.33886 0.0
H808 H 0.38954 0.12651 0.29648 0.0
H809 H 0.3285 0.0634 0.25161 0.0
C810 C 0.35184 0.0717 0.21467 0.0
C811 C 0.37403 0.08638 0.20279 0.0
C812 C 0.37338 0.11384 0.3057 0.0
C813 C 0.3615 0.09336 0.25916 0.0
C814 C 0.36998 0.11427 0.33446 0.0
C815 C 0.34984 0.09741 0.34714 0.0
C816 C 0.35656 0.09637 0.28942 0.0
C817 C 0.33247 0.08134 0.33003 0.0
C818 C 0.34552 0.07514 0.2428 0.0
C819 C 0.38924 0.10466 0.21982 0.0
N820 N 0.33642 0.08099 0.30204 0.0
N821 N 0.38275 0.10754 0.24711 0.0
H822 H 0.65321 0.4718 0.16697 0.0
H823 H 0.67966 0.42075 0.29845 0.0
H824 H 0.59909 0.52792 0.21211 0.0
H825 H 0.67043 0.50678 0.32656 0.0
H826 H 0.66857 0.4362 0.25112 0.0
H827 H 0.67873 0.46289 0.20988 0.0
C828 C 0.64705 0.4828 0.1857 0.0
C829 C 0.62354 0.50017 0.18604 0.0
C830 C 0.66972 0.45183 0.26749 0.0
C831 C 0.65239 0.48958 0.23522 0.0
C832 C 0.67581 0.44297 0.29449 0.0
C833 C 0.67614 0.46251 0.31631 0.0
C834 C 0.66335 0.48038 0.26242 0.0
C835 C 0.67069 0.49106 0.31023 0.0
C836 C 0.66145 0.47739 0.21025 0.0
C837 C 0.61675 0.51397 0.21098 0.0
N838 N 0.66396 0.49906 0.2839 0.0
N839 N 0.63093 0.50813 0.23468 0.0
H840 H 0.30888 0.28127 0.97738 0.0
H841 H 0.16725 0.36851 0.9786 0.0
H842 H 0.30395 0.37058 0.95967 0.0
H843 H 0.17876 0.28874 0.02212 0.0
H844 H 0.21534 0.36651 0.96341 0.0
H845 H 0.25889 0.28053 0.98436 0.0
C846 C 0.29722 0.30056 0.9742 0.0
C847 C 0.31064 0.32608 0.96805 0.0
C848 C 0.2073 0.34959 0.97624 0.0
C849 C 0.25354 0.32543 0.97638 0.0
C850 C 0.17986 0.35073 0.98497 0.0
C851 C 0.16898 0.32852 0.00187 0.0
C852 C 0.22393 0.3266 0.98412 0.0
C853 C 0.18632 0.30592 0.00935 0.0
C854 C 0.26874 0.30019 0.97853 0.0
C855 C 0.29446 0.35048 0.96452 0.0
N856 N 0.21289 0.30516 0.00039 0.0
N857 N 0.26683 0.3496 0.9689 0.0
H858 H 0.17296 0.58156 0.48154 0.0
H859 H 0.32505 0.63593 0.44583 0.0
H860 H 0.19054 0.66585 0.45202 0.0
H861 H 0.30468 0.54829 0.45992 0.0
H862 H 0.27691 0.64864 0.45421 0.0
H863 H 0.22205 0.57047 0.47955 0.0
C864 C 0.18714 0.59781 0.47477 0.0
C865 C 0.17753 0.62465 0.46678 0.0
C866 C 0.28302 0.62665 0.45564 0.0
C867 C 0.23392 0.61204 0.46451 0.0
C868 C 0.31055 0.61937 0.451 0.0
C869 C 0.31894 0.59094 0.45199 0.0
C870 C 0.26372 0.6054 0.46149 0.0
C871 C 0.29917 0.57045 0.45876 0.0
C872 C 0.21519 0.59143 0.4736 0.0
C873 C 0.19696 0.64483 0.45823 0.0
N874 N 0.2725 0.57806 0.46314 0.0
N875 N 0.2242 0.6381 0.45727 0.0
H876 H 0.66074 0.8332 0.49999 0.0
H877 H 0.82327 0.84381 0.47239 0.0
H878 H 0.69592 0.85897 0.42149 0.0
H879 H 0.7875 0.81367 0.54909 0.0
H880 H 0.77696 0.84735 0.45244 0.0
H881 H 0.70715 0.82411 0.51766 0.0
C882 C 0.67819 0.83685 0.48643 0.0
C883 C 0.67437 0.84698 0.45925 0.0
C884 C 0.77929 0.83977 0.47357 0.0
C885 C 0.72767 0.83669 0.47937 0.0
C886 C 0.80575 0.83766 0.48493 0.0
C887 C 0.80932 0.82858 0.51251 0.0
C888 C 0.75623 0.83282 0.48993 0.0
C889 C 0.7858 0.82094 0.52779 0.0
C890 C 0.70472 0.83164 0.49652 0.0
C891 C 0.69782 0.85125 0.44262 0.0
N892 N 0.76034 0.8234 0.51638 0.0
N893 N 0.72341 0.84622 0.45297 0.0
H894 H 0.5113 0.77557 0.96564 0.0
H895 H 0.4646 0.67205 0.84561 0.0
H896 H 0.5044 0.80706 0.88155 0.0
H897 H 0.42225 0.67778 0.92446 0.0
H898 H 0.49145 0.7141 0.85822 0.0
H899 H 0.49258 0.73031 0.95028 0.0
C900 C 0.50653 0.77278 0.94382 0.0
C901 C 0.50911 0.79523 0.92488 0.0
C902 C 0.47647 0.70574 0.87275 0.0
C903 C 0.48789 0.74356 0.90734 0.0
C904 C 0.46114 0.68184 0.86565 0.0
C905 C 0.44168 0.67076 0.88439 0.0
C906 C 0.47257 0.71823 0.89886 0.0
C907 C 0.43768 0.68483 0.90978 0.0
C908 C 0.49567 0.74704 0.93518 0.0
C909 C 0.50244 0.79037 0.89685 0.0
N910 N 0.45325 0.70756 0.91642 0.0
N911 N 0.49196 0.76501 0.88889 0.0
H912 H 0.49856 0.28696 0.61104 0.0
H913 H 0.53212 0.16023 0.71334 0.0
H914 H 0.50983 0.30307 0.69866 0.0
H915 H 0.56855 0.16739 0.63166 0.0
H916 H 0.51473 0.20887 0.70865 0.0
H917 H 0.51352 0.23822 0.6184 0.0
C918 C 0.50395 0.28025 0.63188 0.0
C919 C 0.5034 0.29932 0.6542 0.0
C920 C 0.52644 0.19956 0.6918 0.0
C921 C 0.52009 0.24337 0.66272 0.0
C922 C 0.53636 0.17187 0.6944 0.0
C923 C 0.55119 0.15932 0.6725 0.0
C924 C 0.53104 0.21454 0.66702 0.0
C925 C 0.55646 0.17573 0.6487 0.0
C926 C 0.51258 0.25245 0.636 0.0
C927 C 0.5103 0.28916 0.68082 0.0
N928 N 0.54607 0.20227 0.64643 0.0
N929 N 0.51838 0.2618 0.68439 0.0
H930 H 0.88364 0.48306 0.83927 0.0
H931 H 0.81465 0.52772 0.69461 0.0
H932 H 0.80776 0.44593 0.81087 0.0
H933 H 0.89451 0.55411 0.72391 0.0
H934 H 0.80751 0.50249 0.73893 0.0
H935 H 0.88303 0.51498 0.79975 0.0
C936 C 0.86667 0.48183 0.82471 0.0
C937 C 0.84593 0.46161 0.82807 0.0
C938 C 0.82646 0.51401 0.73559 0.0
C939 C 0.84532 0.49787 0.78216 0.0
C940 C 0.83055 0.52839 0.71037 0.0
C941 C 0.85536 0.54277 0.70541 0.0
C942 C 0.84724 0.51436 0.75592 0.0
C943 C 0.87522 0.54302 0.72655 0.0
C944 C 0.86633 0.50005 0.80206 0.0
C945 C 0.82418 0.46123 0.80887 0.0
N946 N 0.87074 0.52902 0.7507 0.0
N947 N 0.82464 0.47885 0.78636 0.0
H948 H 0.11263 0.08522 0.71726 0.0
H949 H 0.21221 0.08783 0.82173 0.0
H950 H 0.17412 0.0408 0.66916 0.0
H951 H 0.23374 0.00817 0.78393 0.0
H952 H 0.18677 0.10085 0.77946 0.0
H953 H 0.14542 0.08855 0.75566 0.0
C954 C 0.13321 0.07685 0.71444 0.0
C955 C 0.14039 0.06224 0.69008 0.0
C956 C 0.1973 0.08067 0.78039 0.0
C957 C 0.17794 0.06598 0.73391 0.0
C958 C 0.21204 0.07335 0.80431 0.0
C959 C 0.22491 0.04678 0.80623 0.0
C960 C 0.19584 0.0614 0.75828 0.0
C961 C 0.22393 0.02874 0.78323 0.0
C962 C 0.15198 0.07889 0.73637 0.0
C963 C 0.16743 0.05188 0.68766 0.0
N964 N 0.20959 0.03637 0.76019 0.0
N965 N 0.18496 0.05332 0.70955 0.0
H966 H 0.84348 0.17042 0.92678 0.0
H967 H 0.71624 0.0815 0.98624 0.0
H968 H 0.85206 0.08777 0.96401 0.0
H969 H 0.70768 0.16248 0.94557 0.0
H970 H 0.7661 0.08475 0.98104 0.0
H971 H 0.79426 0.16923 0.93652 0.0
C972 C 0.83507 0.15204 0.93719 0.0
C973 C 0.85204 0.12907 0.94445 0.0
C974 C 0.75337 0.10187 0.97333 0.0
C975 C 0.79529 0.12755 0.95557 0.0
C976 C 0.72481 0.10007 0.97629 0.0
C977 C 0.70761 0.12173 0.96624 0.0
C978 C 0.765 0.12553 0.9602 0.0
C979 C 0.72005 0.14524 0.95359 0.0
C980 C 0.80686 0.15138 0.94271 0.0
C981 C 0.83984 0.10594 0.958 0.0
N982 N 0.74794 0.14646 0.95087 0.0
N983 N 0.81221 0.10571 0.96298 0.0
H984 H 0.06912 0.92452 0.19809 0.0
H985 H 0.04891 0.0863 0.24341 0.0
H986 H 0.08827 0.99643 0.14619 0.0
H987 H 0.02802 0.01615 0.29692 0.0
H988 H 0.06243 0.05302 0.20731 0.0
H989 H 0.05302 0.95704 0.23442 0.0
C990 C 0.0699 0.94708 0.19431 0.0
C991 C 0.08016 0.95774 0.16909 0.0
C992 C 0.05484 0.04482 0.22691 0.0
C993 C 0.06182 0.99497 0.21043 0.0
C994 C 0.04709 0.06387 0.24757 0.0
C995 C 0.03737 0.05404 0.27329 0.0
C996 C 0.05294 0.01561 0.23191 0.0
C997 C 0.03543 0.02468 0.27741 0.0
C998 C 0.06072 0.96562 0.21503 0.0
C999 C 0.08066 0.98718 0.1653 0.0
N1000 N 0.04323 0.00648 0.25695 0.0
N1001 N 0.07169 0.00467 0.18571 0.0
H1002 H 0.87778 0.45803 0.31335 0.0
H1003 H 0.97412 0.5444 0.20807 0.0
H1004 H 0.96489 0.44208 0.30471 0.0
H1005 H 0.8865 0.5572 0.21632 0.0
H1006 H 0.97196 0.50834 0.24467 0.0
H1007 H 0.8811 0.49477 0.27797 0.0
C1008 C 0.8976 0.46207 0.30383 0.0
C1009 C 0.92109 0.44692 0.31205 0.0
C1010 C 0.95326 0.5192 0.23857 0.0
C1011 C 0.92513 0.4894 0.27161 0.0
C1012 C 0.95451 0.53995 0.21784 0.0
C1013 C 0.93043 0.5538 0.20903 0.0
C1014 C 0.92776 0.51229 0.25057 0.0
C1015 C 0.90558 0.54702 0.22232 0.0
C1016 C 0.89951 0.4832 0.28368 0.0
C1017 C 0.94622 0.45315 0.29894 0.0
N1018 N 0.90488 0.52669 0.24228 0.0
N1019 N 0.9476 0.47402 0.27945 0.0
H1020 H 0.27977 0.04913 0.93725 0.0
H1021 H 0.31673 0.05997 0.09804 0.0
H1022 H 0.22901 0.09803 0.99311 0.0
H1023 H 0.32154 0.98176 0.0524 0.0
H1024 H 0.29674 0.08303 0.05665 0.0
H1025 H 0.30805 0.03431 0.97673 0.0
C1026 C 0.27495 0.05733 0.9577 0.0
C1027 C 0.25185 0.07471 0.96194 0.0
C1028 C 0.30258 0.06094 0.05573 0.0
C1029 C 0.2843 0.05721 0.00702 0.0
C1030 C 0.31407 0.04786 0.07914 0.0
C1031 C 0.32066 0.01898 0.07847 0.0
C1032 C 0.29845 0.0451 0.03145 0.0
C1033 C 0.31657 0.00405 0.05369 0.0
C1034 C 0.291 0.0487 0.98018 0.0
C1035 C 0.24651 0.08447 0.98898 0.0
N1036 N 0.30581 0.01731 0.0311 0.0
N1037 N 0.2626 0.07514 0.0106 0.0
H1038 H 0.66334 0.47897 0.04272 0.0
H1039 H 0.72813 0.36224 0.94227 0.0
H1040 H 0.63078 0.39474 0.03308 0.0
H1041 H 0.75791 0.44805 0.94575 0.0
H1042 H 0.69149 0.37483 0.97463 0.0
H1043 H 0.69778 0.46845 0.00688 0.0
C1044 C 0.66344 0.45828 0.03311 0.0
C1045 C 0.6442 0.43767 0.041 0.0
C1046 C 0.7059 0.391 0.96821 0.0
C1047 C 0.68342 0.42554 -2e-05 0.0
C1048 C 0.72683 0.38382 0.94965 0.0
C1049 C 0.74621 0.40408 0.94135 0.0
C1050 C 0.70437 0.41862 0.97878 0.0
C1051 C 0.74342 0.43174 0.95158 0.0
C1052 C 0.68303 0.45232 0.0126 0.0
C1053 C 0.64521 0.41128 0.02776 0.0
N1054 N 0.72302 0.43815 0.96994 0.0
N1055 N 0.6645 0.40598 0.008 0.0
H1056 H 0.26994 0.03878 0.45816 0.0
H1057 H 0.21933 0.99539 0.61099 0.0
H1058 H 0.32532 0.01448 0.52427 0.0
H1059 H 0.16444 0.01779 0.54384 0.0
H1060 H 0.25844 0.00162 0.57955 0.0
H1061 H 0.23107 0.03096 0.48937 0.0
C1062 C 0.27395 0.03182 0.47926 0.0
C1063 C 0.30096 0.02728 0.4886 0.0
C1064 C 0.23783 0.00508 0.57168 0.0
C1065 C 0.25645 0.01822 0.52449 0.0
C1066 C 0.21548 0.00147 0.58962 0.0
C1067 C 0.18854 0.00609 0.58007 0.0
C1068 C 0.23323 0.01342 0.544 0.0
C1069 C 0.18482 0.01399 0.55215 0.0
C1070 C 0.25171 0.02732 0.49707 0.0
C1071 C 0.30486 0.01824 0.51616 0.0
N1072 N 0.2069 0.01748 0.53515 0.0
N1073 N 0.28285 0.01402 0.53314 0.0
H1074 H 0.77708 0.53225 0.58013 0.0
H1075 H 0.66394 0.56944 0.46475 0.0
H1076 H 0.74755 0.61686 0.56393 0.0
H1077 H 0.70759 0.48989 0.46819 0.0
H1078 H 0.68923 0.58521 0.50573 0.0
H1079 H 0.74592 0.51443 0.54437 0.0
C1080 C 0.76372 0.54704 0.5694 0.0
C1081 C 0.76508 0.57615 0.57488 0.0
C1082 C 0.69322 0.56428 0.49756 0.0
C1083 C 0.72957 0.55588 0.53378 0.0
C1084 C 0.6788 0.55524 0.47415 0.0
C1085 C 0.68381 0.52837 0.46287 0.0
C1086 C 0.7127 0.54626 0.50995 0.0
C1087 C 0.70323 0.51087 0.47604 0.0
C1088 C 0.74608 0.53685 0.54884 0.0
C1089 C 0.74733 0.59429 0.56025 0.0
N1090 N 0.717 0.52013 0.49886 0.0
N1091 N 0.73043 0.58388 0.54026 0.0
H1092 H 0.09108 0.25313 0.04095 0.0
H1093 H 0.95594 0.16964 -0.00114 0.0
H1094 H 0.01889 0.2548 0.0934 0.0
H1095 H 0.01616 0.20057 0.93998 0.0
H1096 H 0.97787 0.19858 0.03508 0.0
H1097 H 0.06467 0.22823 0.00563 0.0
C1098 C 0.06969 0.24831 0.04508 0.0
C1099 C 0.05683 0.25739 0.06965 0.0
C1100 C 0.98588 0.1992 0.01407 0.0
C1101 C 0.02661 0.22827 0.02945 0.0
C1102 C 0.97317 0.18375 0.99336 0.0
C1103 C 0.98446 0.1829 0.96651 0.0
C1104 C 0.01006 0.21419 0.00771 0.0
C1105 C 0.00703 0.20035 0.96054 0.0
C1106 C 0.05455 0.23423 0.02481 0.0
C1107 C 0.02934 0.24924 0.07428 0.0
N1108 N 0.01935 0.21524 0.98104 0.0
N1109 N 0.01503 0.23535 0.05425 0.0
H1110 H 0.08726 0.72069 0.45174 0.0
H1111 H 0.93509 0.78242 0.47685 0.0
H1112 H 0.02033 0.7101 0.39373 0.0
H1113 H 1.00273 0.79306 0.53404 0.0
H1114 H 0.96552 0.75478 0.44647 0.0
H1115 H 0.05669 0.74832 0.48168 0.0
C1116 C 0.06625 0.72437 0.44515 0.0
C1117 C 0.05611 0.71229 0.42057 0.0
C1118 C 0.97361 0.7631 0.46576 0.0
C1119 C 0.02098 0.74392 0.45474 0.0
C1120 C 0.95616 0.77864 0.4832 0.0
C1121 C 0.96637 0.79026 0.50794 0.0
C1122 C 1.0014 0.75916 0.47316 0.0
C1123 C 0.99396 0.78479 0.51504 0.0
C1124 C 0.0487 0.73998 0.46236 0.0
C1125 C 0.0288 0.71835 0.41288 0.0
N1126 N 0.01049 0.76981 0.49771 0.0
N1127 N 0.01211 0.73342 0.43003 0.0
H1128 H 0.48226 0.80697 0.47092 0.0
H1129 H 0.50849 0.6421 0.45011 0.0
H1130 H 0.56272 0.76989 0.45916 0.0
H1131 H 0.42784 0.68066 0.44912 0.0
H1132 H 0.52839 0.68733 0.46296 0.0
H1133 H 0.46239 0.75983 0.47274 0.0
C1134 C 0.49587 0.78889 0.46907 0.0
C1135 C 0.52422 0.79246 0.46436 0.0
C1136 C 0.50632 0.68589 0.46022 0.0
C1137 C 0.50137 0.73826 0.46633 0.0
C1138 C 0.49485 0.66004 0.45284 0.0
C1139 C 0.46641 0.65764 0.448 0.0
C1140 C 0.48931 0.70971 0.46275 0.0
C1141 C 0.44985 0.68155 0.45239 0.0
C1142 C 0.48442 0.76195 0.47009 0.0
C1143 C 0.54077 0.76819 0.4626 0.0
N1144 N 0.46161 0.7067 0.45919 0.0
N1145 N 0.52903 0.7421 0.46321 0.0
H1146 H 0.46592 0.55245 0.79383 0.0
H1147 H 0.57725 0.47285 0.69907 0.0
H1148 H 0.55258 0.57238 0.79347 0.0
H1149 H 0.49227 0.44714 0.70529 0.0
H1150 H 0.56783 0.51151 0.73122 0.0
H1151 H 0.47435 0.51626 0.75861 0.0
C1152 C 0.48669 0.5494 0.78619 0.0
C1153 C 0.50861 0.56541 0.79674 0.0
C1154 C 0.55122 0.49744 0.72556 0.0
C1155 C 0.51841 0.52388 0.75652 0.0
C1156 C 0.55658 0.47531 0.70719 0.0
C1157 C 0.53554 0.45663 0.69954 0.0
C1158 C 0.52458 0.50102 0.73635 0.0
C1159 C 0.50915 0.46095 0.7107 0.0
C1160 C 0.4915 0.52864 0.76615 0.0
C1161 C 0.53507 0.56049 0.78604 0.0
N1162 N 0.50443 0.48269 0.72856 0.0
N1163 N 0.53923 0.54011 0.76662 0.0
H1164 H 0.51409 0.92262 0.84224 0.0
H1165 H 0.44206 0.04872 0.75782 0.0
H1166 H 0.43716 0.96132 0.86642 0.0
H1167 H 0.52505 0.02 0.74216 0.0
H1168 H 0.43778 0.01316 0.79443 0.0
H1169 H 0.51592 0.95403 0.80182 0.0
C1170 C 0.4974 0.93745 0.83887 0.0
C1171 C 0.47551 0.93946 0.85785 0.0
C1172 C 0.45691 0.0146 0.78296 0.0
C1173 C 0.47761 0.97559 0.81175 0.0
C1174 C 0.45939 0.03492 0.76204 0.0
C1175 C 0.48402 0.03747 0.74699 0.0
C1176 C 0.47917 0.99656 0.78883 0.0
C1177 C 0.50574 0.01892 0.75335 0.0
C1178 C 0.49855 0.95549 0.81587 0.0
C1179 C 0.45451 0.95914 0.85243 0.0
N1180 N 0.50281 -0.00074 0.77381 0.0
N1181 N 0.45615 0.97652 0.82997 0.0
H1182 H 0.44067 0.24551 0.93212 0.0
H1183 H 0.54046 0.16641 0.87029 0.0
H1184 H 0.50436 0.30506 0.95325 0.0
H1185 H 0.59395 0.21205 0.92565 0.0
H1186 H 0.50705 0.20494 0.87301 0.0
H1187 H 0.47416 0.21927 0.90407 0.0
C1188 C 0.46146 0.25348 0.93024 0.0
C1189 C 0.46983 0.27711 0.94558 0.0
C1190 C 0.52628 0.20682 0.88417 0.0
C1191 C 0.50836 0.24752 0.91324 0.0
C1192 C 0.54575 0.18513 0.88206 0.0
C1193 C 0.56958 0.18545 0.89871 0.0
C1194 C 0.53091 0.22903 0.90288 0.0
C1195 C 0.5756 0.2105 0.913 0.0
C1196 C 0.48066 0.2386 0.91404 0.0
C1197 C 0.4971 0.28652 0.94235 0.0
N1198 N 0.55597 0.23091 0.91549 0.0
N1199 N 0.51543 0.27143 0.92707 0.0
loop_
_geom_bond_atom_site_label_1
_geom_bond_atom_site_label_2
_geom_bond_distance
_geom_bond_site_symmetry_2
_ccdc_geom_bond_type
Mg0 O1 2.028 1_455 S
Mg0 O7 1.986 1_455 S
Mg0 O9 2.114 . S
Mg0 O10 2.251 . S
Mg0 O13 2.010 . S
O1 Mg0 2.028 1_655 S
O1 C4 1.250 . S
O2 Mg3 2.028 . S
O2 C4 1.248 . S
Mg3 O2 2.028 . S
Mg3 O8 2.032 . S
Mg3 O10 2.079 1_655 S
C4 O1 1.250 . S
C4 O2 1.248 . S
C5 O6 1.264 . S
C5 O13 1.249 . S
O6 C5 1.264 . S
O7 Mg0 1.986 1_655 S
O7 C11 1.246 . S
O8 Mg3 2.032 . S
O8 C11 1.259 . S
O9 Mg0 2.114 . S
O9 C12 1.252 . S
O10 Mg0 2.251 . S
O10 Mg3 2.079 1_455 S
O10 C12 1.273 . S
C11 O7 1.246 . S
C11 O8 1.259 . S
C12 O9 1.252 . S
C12 O10 1.273 . S
O13 Mg0 2.010 . S
O13 C5 1.249 . S
Mg14 O15 2.028 1_655 S
Mg14 O21 1.986 1_655 S
Mg14 O23 2.114 . S
Mg14 O24 2.251 . S
Mg14 O27 2.010 . S
O15 Mg14 2.028 1_455 S
O15 C18 1.250 . S
O16 Mg17 2.028 . S
O16 C18 1.248 . S
Mg17 O16 2.028 . S
Mg17 O22 2.032 . S
Mg17 O24 2.079 1_455 S
C18 O15 1.250 . S
C18 O16 1.248 . S
C19 O20 1.264 . S
C19 O27 1.249 . S
O20 C19 1.264 . S
O21 Mg14 1.986 1_455 S
O21 C25 1.246 . S
O22 Mg17 2.032 . S
O22 C25 1.259 . S
O23 Mg14 2.114 . S
O23 C26 1.252 . S
O24 Mg14 2.251 . S
O24 Mg17 2.079 1_655 S
O24 C26 1.273 . S
C25 O21 1.246 . S
C25 O22 1.259 . S
C26 O23 1.252 . S
C26 O24 1.273 . S
O27 Mg14 2.010 . S
O27 C19 1.249 . S
Mg28 O29 2.028 1_455 S
Mg28 O35 1.986 1_455 S
Mg28 O37 2.114 . S
Mg28 O38 2.251 . S
Mg28 O41 2.010 . S
O29 Mg28 2.028 1_655 S
O29 C32 1.250 . S
O30 Mg31 2.028 . S
O30 C32 1.248 . S
Mg31 O30 2.028 . S
Mg31 O36 2.032 . S
Mg31 O38 2.079 1_655 S
C32 O29 1.250 . S
C32 O30 1.248 . S
C33 O34 1.264 . S
C33 O41 1.249 . S
O34 C33 1.264 . S
O35 Mg28 1.986 1_655 S
O35 C39 1.246 . S
O36 Mg31 2.032 . S
O36 C39 1.259 . S
O37 Mg28 2.114 . S
O37 C40 1.252 . S
O38 Mg28 2.251 . S
O38 Mg31 2.079 1_455 S
O38 C40 1.273 . S
C39 O35 1.246 . S
C39 O36 1.259 . S
C40 O37 1.252 . S
C40 O38 1.273 . S
O41 Mg28 2.010 . S
O41 C33 1.249 . S
Mg42 O43 2.028 1_655 S
Mg42 O49 1.986 1_655 S
Mg42 O51 2.114 . S
Mg42 O52 2.251 . S
Mg42 O55 2.010 . S
O43 Mg42 2.028 1_455 S
O43 C46 1.250 . S
O44 Mg45 2.028 . S
O44 C46 1.248 . S
Mg45 O44 2.028 . S
Mg45 O50 2.032 . S
Mg45 O52 2.079 1_455 S
C46 O43 1.250 . S
C46 O44 1.248 . S
C47 O48 1.264 . S
C47 O55 1.249 . S
O48 C47 1.264 . S
O49 Mg42 1.986 1_455 S
O49 C53 1.246 . S
O50 Mg45 2.032 . S
O50 C53 1.259 . S
O51 Mg42 2.114 . S
O51 C54 1.252 . S
O52 Mg42 2.251 . S
O52 Mg45 2.079 1_655 S
O52 C54 1.273 . S
C53 O49 1.246 . S
C53 O50 1.259 . S
C54 O51 1.252 . S
C54 O52 1.273 . S
O55 Mg42 2.010 . S
O55 C47 1.249 . S
Mg56 O57 2.028 1_545 S
Mg56 O63 1.986 1_545 S
Mg56 O65 2.114 . S
Mg56 O66 2.251 . S
Mg56 O69 2.010 . S
O57 Mg56 2.028 1_565 S
O57 C60 1.250 . S
O58 Mg59 2.028 . S
O58 C60 1.248 . S
Mg59 O58 2.028 . S
Mg59 O64 2.032 . S
Mg59 O66 2.079 1_565 S
C60 O57 1.250 . S
C60 O58 1.248 . S
C61 O62 1.264 . S
C61 O69 1.249 . S
O62 C61 1.264 . S
O63 Mg56 1.986 1_565 S
O63 C67 1.246 . S
O64 Mg59 2.032 . S
O64 C67 1.259 . S
O65 Mg56 2.114 . S
O65 C68 1.252 . S
O66 Mg56 2.251 . S
O66 Mg59 2.079 1_545 S
O66 C68 1.273 . S
C67 O63 1.246 . S
C67 O64 1.259 . S
C68 O65 1.252 . S
C68 O66 1.273 . S
O69 Mg56 2.010 . S
O69 C61 1.249 . S
Mg70 O71 2.028 . S
Mg70 O77 1.986 . S
Mg70 O79 2.114 . S
Mg70 O80 2.251 . S
Mg70 O83 2.010 . S
O71 Mg70 2.028 . S
O71 C74 1.250 . S
O72 Mg73 2.028 . S
O72 C74 1.248 . S
Mg73 O72 2.028 . S
Mg73 O78 2.032 . S
Mg73 O80 2.079 . S
C74 O71 1.250 . S
C74 O72 1.248 . S
C75 O76 1.264 . S
C75 O83 1.249 . S
O76 C75 1.264 . S
O77 Mg70 1.986 . S
O77 C81 1.246 . S
O78 Mg73 2.032 . S
O78 C81 1.259 . S
O79 Mg70 2.114 . S
O79 C82 1.252 . S
O80 Mg70 2.251 . S
O80 Mg73 2.079 . S
O80 C82 1.273 . S
C81 O77 1.246 . S
C81 O78 1.259 . S
C82 O79 1.252 . S
C82 O80 1.273 . S
O83 Mg70 2.010 . S
O83 C75 1.249 . S
Mg84 O85 2.028 1_565 S
Mg84 O91 1.986 1_565 S
Mg84 O93 2.114 . S
Mg84 O94 2.251 . S
Mg84 O97 2.010 . S
O85 Mg84 2.028 1_545 S
O85 C88 1.250 . S
O86 Mg87 2.028 . S
O86 C88 1.248 . S
Mg87 O86 2.028 . S
Mg87 O92 2.032 . S
Mg87 O94 2.079 1_545 S
C88 O85 1.250 . S
C88 O86 1.248 . S
C89 O90 1.264 . S
C89 O97 1.249 . S
O90 C89 1.264 . S
O91 Mg84 1.986 1_545 S
O91 C95 1.246 . S
O92 Mg87 2.032 . S
O92 C95 1.259 . S
O93 Mg84 2.114 . S
O93 C96 1.252 . S
O94 Mg84 2.251 . S
O94 Mg87 2.079 1_565 S
O94 C96 1.273 . S
C95 O91 1.246 . S
C95 O92 1.259 . S
C96 O93 1.252 . S
C96 O94 1.273 . S
O97 Mg84 2.010 . S
O97 C89 1.249 . S
Mg98 O99 2.028 . S
Mg98 O105 1.986 . S
Mg98 O107 2.114 . S
Mg98 O108 2.251 . S
Mg98 O111 2.010 . S
O99 Mg98 2.028 . S
O99 C102 1.250 . S
O100 Mg101 2.028 . S
O100 C102 1.248 . S
Mg101 O100 2.028 . S
Mg101 O106 2.032 . S
Mg101 O108 2.079 . S
C102 O99 1.250 . S
C102 O100 1.248 . S
C103 O104 1.264 . S
C103 O111 1.249 . S
O104 C103 1.264 . S
O105 Mg98 1.986 . S
O105 C109 1.246 . S
O106 Mg101 2.032 . S
O106 C109 1.259 . S
O107 Mg98 2.114 . S
O107 C110 1.252 . S
O108 Mg98 2.251 . S
O108 Mg101 2.079 . S
O108 C110 1.273 . S
C109 O105 1.246 . S
C109 O106 1.259 . S
C110 O107 1.252 . S
C110 O108 1.273 . S
O111 Mg98 2.010 . S
O111 C103 1.249 . S
Mg112 O113 2.028 1_556 S
Mg112 O119 1.986 1_556 S
Mg112 O121 2.114 . S
Mg112 O122 2.251 . S
Mg112 O125 2.010 . S
O113 Mg112 2.028 1_554 S
O113 C116 1.250 . S
O114 Mg115 2.028 . S
O114 C116 1.248 . S
Mg115 O114 2.028 . S
Mg115 O120 2.032 . S
Mg115 O122 2.079 1_554 S
C116 O113 1.250 . S
C116 O114 1.248 . S
C117 O118 1.264 . S
C117 O125 1.249 . S
O118 C117 1.264 . S
O119 Mg112 1.986 1_554 S
O119 C123 1.246 . S
O120 Mg115 2.032 . S
O120 C123 1.259 . S
O121 Mg112 2.114 . S
O121 C124 1.252 . S
O122 Mg112 2.251 . S
O122 Mg115 2.079 1_556 S
O122 C124 1.273 . S
C123 O119 1.246 . S
C123 O120 1.259 . S
C124 O121 1.252 . S
C124 O122 1.273 . S
O125 Mg112 2.010 . S
O125 C117 1.249 . S
Mg126 O127 2.028 . S
Mg126 O133 1.986 . S
Mg126 O135 2.114 . S
Mg126 O136 2.251 . S
Mg126 O139 2.010 . S
O127 Mg126 2.028 . S
O127 C130 1.250 . S
O128 Mg129 2.028 . S
O128 C130 1.248 . S
Mg129 O128 2.028 . S
Mg129 O134 2.032 . S
Mg129 O136 2.079 . S
C130 O127 1.250 . S
C130 O128 1.248 . S
C131 O132 1.264 . S
C131 O139 1.249 . S
O132 C131 1.264 . S
O133 Mg126 1.986 . S
O133 C137 1.246 . S
O134 Mg129 2.032 . S
O134 C137 1.259 . S
O135 Mg126 2.114 . S
O135 C138 1.252 . S
O136 Mg126 2.251 . S
O136 Mg129 2.079 . S
O136 C138 1.273 . S
C137 O133 1.246 . S
C137 O134 1.259 . S
C138 O135 1.252 . S
C138 O136 1.273 . S
O139 Mg126 2.010 . S
O139 C131 1.249 . S
Mg140 O141 2.028 . S
Mg140 O147 1.986 . S
Mg140 O149 2.114 . S
Mg140 O150 2.251 . S
Mg140 O153 2.010 . S
O141 Mg140 2.028 . S
O141 C144 1.250 . S
O142 Mg143 2.028 . S
O142 C144 1.248 . S
Mg143 O142 2.028 . S
Mg143 O148 2.032 . S
Mg143 O150 2.079 . S
C144 O141 1.250 . S
C144 O142 1.248 . S
C145 O146 1.264 . S
C145 O153 1.249 . S
O146 C145 1.264 . S
O147 Mg140 1.986 . S
O147 C151 1.246 . S
O148 Mg143 2.032 . S
O148 C151 1.259 . S
O149 Mg140 2.114 . S
O149 C152 1.252 . S
O150 Mg140 2.251 . S
O150 Mg143 2.079 . S
O150 C152 1.273 . S
C151 O147 1.246 . S
C151 O148 1.259 . S
C152 O149 1.252 . S
C152 O150 1.273 . S
O153 Mg140 2.010 . S
O153 C145 1.249 . S
Mg154 O155 2.028 . S
Mg154 O161 1.986 . S
Mg154 O163 2.114 . S
Mg154 O164 2.251 . S
Mg154 O167 2.010 . S
O155 Mg154 2.028 . S
O155 C158 1.250 . S
O156 Mg157 2.028 . S
O156 C158 1.248 . S
Mg157 O156 2.028 . S
Mg157 O162 2.032 . S
Mg157 O164 2.079 . S
C158 O155 1.250 . S
C158 O156 1.248 . S
C159 O160 1.264 . S
C159 O167 1.249 . S
O160 C159 1.264 . S
O161 Mg154 1.986 . S
O161 C165 1.246 . S
O162 Mg157 2.032 . S
O162 C165 1.259 . S
O163 Mg154 2.114 . S
O163 C166 1.252 . S
O164 Mg154 2.251 . S
O164 Mg157 2.079 . S
O164 C166 1.273 . S
C165 O161 1.246 . S
C165 O162 1.259 . S
C166 O163 1.252 . S
C166 O164 1.273 . S
O167 Mg154 2.010 . S
O167 C159 1.249 . S
Mg168 O169 2.028 . S
Mg168 O175 1.986 . S
Mg168 O177 2.114 . S
Mg168 O178 2.251 . S
Mg168 O181 2.010 . S
O169 Mg168 2.028 . S
O169 C172 1.250 . S
O170 Mg171 2.028 . S
O170 C172 1.248 . S
Mg171 O170 2.028 . S
Mg171 O176 2.032 . S
Mg171 O178 2.079 . S
C172 O169 1.250 . S
C172 O170 1.248 . S
C173 O174 1.264 . S
C173 O181 1.249 . S
O174 C173 1.264 . S
O175 Mg168 1.986 . S
O175 C179 1.246 . S
O176 Mg171 2.032 . S
O176 C179 1.259 . S
O177 Mg168 2.114 . S
O177 C180 1.252 . S
O178 Mg168 2.251 . S
O178 Mg171 2.079 . S
O178 C180 1.273 . S
C179 O175 1.246 . S
C179 O176 1.259 . S
C180 O177 1.252 . S
C180 O178 1.273 . S
O181 Mg168 2.010 . S
O181 C173 1.249 . S
Mg182 O183 2.028 . S
Mg182 O189 1.986 . S
Mg182 O191 2.114 . S
Mg182 O192 2.251 . S
Mg182 O195 2.010 . S
O183 Mg182 2.028 . S
O183 C186 1.250 . S
O184 Mg185 2.028 . S
O184 C186 1.248 . S
Mg185 O184 2.028 . S
Mg185 O190 2.032 . S
Mg185 O192 2.079 . S
C186 O183 1.250 . S
C186 O184 1.248 . S
C187 O188 1.264 . S
C187 O195 1.249 . S
O188 C187 1.264 . S
O189 Mg182 1.986 . S
O189 C193 1.246 . S
O190 Mg185 2.032 . S
O190 C193 1.259 . S
O191 Mg182 2.114 . S
O191 C194 1.252 . S
O192 Mg182 2.251 . S
O192 Mg185 2.079 . S
O192 C194 1.273 . S
C193 O189 1.246 . S
C193 O190 1.259 . S
C194 O191 1.252 . S
C194 O192 1.273 . S
O195 Mg182 2.010 . S
O195 C187 1.249 . S
Mg196 O197 2.028 . S
Mg196 O203 1.986 . S
Mg196 O205 2.114 . S
Mg196 O206 2.251 . S
Mg196 O209 2.010 . S
O197 Mg196 2.028 . S
O197 C200 1.250 . S
O198 Mg199 2.028 . S
O198 C200 1.248 . S
Mg199 O198 2.028 . S
Mg199 O204 2.032 . S
Mg199 O206 2.079 . S
C200 O197 1.250 . S
C200 O198 1.248 . S
C201 O202 1.264 . S
C201 O209 1.249 . S
O202 C201 1.264 . S
O203 Mg196 1.986 . S
O203 C207 1.246 . S
O204 Mg199 2.032 . S
O204 C207 1.259 . S
O205 Mg196 2.114 . S
O205 C208 1.252 . S
O206 Mg196 2.251 . S
O206 Mg199 2.079 . S
O206 C208 1.273 . S
C207 O203 1.246 . S
C207 O204 1.259 . S
C208 O205 1.252 . S
C208 O206 1.273 . S
O209 Mg196 2.010 . S
O209 C201 1.249 . S
Mg210 O211 2.028 . S
Mg210 O217 1.986 . S
Mg210 O219 2.114 . S
Mg210 O220 2.251 . S
Mg210 O223 2.010 . S
O211 Mg210 2.028 . S
O211 C214 1.250 . S
O212 Mg213 2.028 . S
O212 C214 1.248 . S
Mg213 O212 2.028 . S
Mg213 O218 2.032 . S
Mg213 O220 2.079 . S
C214 O211 1.250 . S
C214 O212 1.248 . S
C215 O216 1.264 . S
C215 O223 1.249 . S
O216 C215 1.264 . S
O217 Mg210 1.986 . S
O217 C221 1.246 . S
O218 Mg213 2.032 . S
O218 C221 1.259 . S
O219 Mg210 2.114 . S
O219 C222 1.252 . S
O220 Mg210 2.251 . S
O220 Mg213 2.079 . S
O220 C222 1.273 . S
C221 O217 1.246 . S
C221 O218 1.259 . S
C222 O219 1.252 . S
C222 O220 1.273 . S
O223 Mg210 2.010 . S
O223 C215 1.249 . S
Mg224 O225 2.028 . S
Mg224 O231 1.986 . S
Mg224 O233 2.114 . S
Mg224 O234 2.251 . S
Mg224 O237 2.010 . S
O225 Mg224 2.028 . S
O225 C228 1.250 . S
O226 Mg227 2.028 . S
O226 C228 1.248 . S
Mg227 O226 2.028 . S
Mg227 O232 2.032 . S
Mg227 O234 2.079 . S
C228 O225 1.250 . S
C228 O226 1.248 . S
C229 O230 1.264 . S
C229 O237 1.249 . S
O230 C229 1.264 . S
O231 Mg224 1.986 . S
O231 C235 1.246 . S
O232 Mg227 2.032 . S
O232 C235 1.259 . S
O233 Mg224 2.114 . S
O233 C236 1.252 . S
O234 Mg224 2.251 . S
O234 Mg227 2.079 . S
O234 C236 1.273 . S
C235 O231 1.246 . S
C235 O232 1.259 . S
C236 O233 1.252 . S
C236 O234 1.273 . S
O237 Mg224 2.010 . S
O237 C229 1.249 . S
Mg238 O239 2.028 1_565 S
Mg238 O245 1.986 1_565 S
Mg238 O247 2.114 . S
Mg238 O248 2.251 . S
Mg238 O251 2.010 . S
O239 Mg238 2.028 1_545 S
O239 C242 1.250 . S
O240 Mg241 2.028 . S
O240 C242 1.248 . S
Mg241 O240 2.028 . S
Mg241 O246 2.032 . S
Mg241 O248 2.079 1_545 S
C242 O239 1.250 . S
C242 O240 1.248 . S
C243 O244 1.264 . S
C243 O251 1.249 . S
O244 C243 1.264 . S
O245 Mg238 1.986 1_545 S
O245 C249 1.246 . S
O246 Mg241 2.032 . S
O246 C249 1.259 . S
O247 Mg238 2.114 . S
O247 C250 1.252 . S
O248 Mg238 2.251 . S
O248 Mg241 2.079 1_565 S
O248 C250 1.273 . S
C249 O245 1.246 . S
C249 O246 1.259 . S
C250 O247 1.252 . S
C250 O248 1.273 . S
O251 Mg238 2.010 . S
O251 C243 1.249 . S
Mg252 O253 2.028 . S
Mg252 O259 1.986 . S
Mg252 O261 2.114 . S
Mg252 O262 2.251 . S
Mg252 O265 2.010 . S
O253 Mg252 2.028 . S
O253 C256 1.250 . S
O254 Mg255 2.028 . S
O254 C256 1.248 . S
Mg255 O254 2.028 . S
Mg255 O260 2.032 . S
Mg255 O262 2.079 . S
C256 O253 1.250 . S
C256 O254 1.248 . S
C257 O258 1.264 . S
C257 O265 1.249 . S
O258 C257 1.264 . S
O259 Mg252 1.986 . S
O259 C263 1.246 . S
O260 Mg255 2.032 . S
O260 C263 1.259 . S
O261 Mg252 2.114 . S
O261 C264 1.252 . S
O262 Mg252 2.251 . S
O262 Mg255 2.079 . S
O262 C264 1.273 . S
C263 O259 1.246 . S
C263 O260 1.259 . S
C264 O261 1.252 . S
C264 O262 1.273 . S
O265 Mg252 2.010 . S
O265 C257 1.249 . S
Mg266 O267 2.028 1_545 S
Mg266 O273 1.986 1_545 S
Mg266 O275 2.114 . S
Mg266 O276 2.251 . S
Mg266 O279 2.010 . S
O267 Mg266 2.028 1_565 S
O267 C270 1.250 . S
O268 Mg269 2.028 . S
O268 C270 1.248 . S
Mg269 O268 2.028 . S
Mg269 O274 2.032 . S
Mg269 O276 2.079 1_565 S
C270 O267 1.250 . S
C270 O268 1.248 . S
C271 O272 1.264 . S
C271 O279 1.249 . S
O272 C271 1.264 . S
O273 Mg266 1.986 1_565 S
O273 C277 1.246 . S
O274 Mg269 2.032 . S
O274 C277 1.259 . S
O275 Mg266 2.114 . S
O275 C278 1.252 . S
O276 Mg266 2.251 . S
O276 Mg269 2.079 1_545 S
O276 C278 1.273 . S
C277 O273 1.246 . S
C277 O274 1.259 . S
C278 O275 1.252 . S
C278 O276 1.273 . S
O279 Mg266 2.010 . S
O279 C271 1.249 . S
Mg280 O281 2.028 . S
Mg280 O287 1.986 . S
Mg280 O289 2.114 . S
Mg280 O290 2.251 . S
Mg280 O293 2.010 . S
O281 Mg280 2.028 . S
O281 C284 1.250 . S
O282 Mg283 2.028 . S
O282 C284 1.248 . S
Mg283 O282 2.028 . S
Mg283 O288 2.032 . S
Mg283 O290 2.079 . S
C284 O281 1.250 . S
C284 O282 1.248 . S
C285 O286 1.264 . S
C285 O293 1.249 . S
O286 C285 1.264 . S
O287 Mg280 1.986 . S
O287 C291 1.246 . S
O288 Mg283 2.032 . S
O288 C291 1.259 . S
O289 Mg280 2.114 . S
O289 C292 1.252 . S
O290 Mg280 2.251 . S
O290 Mg283 2.079 . S
O290 C292 1.273 . S
C291 O287 1.246 . S
C291 O288 1.259 . S
C292 O289 1.252 . S
C292 O290 1.273 . S
O293 Mg280 2.010 . S
O293 C285 1.249 . S
Mg294 O295 2.028 1_554 S
Mg294 O301 1.986 1_554 S
Mg294 O303 2.114 . S
Mg294 O304 2.251 . S
Mg294 O307 2.010 . S
O295 Mg294 2.028 1_556 S
O295 C298 1.250 . S
O296 Mg297 2.028 . S
O296 C298 1.248 . S
Mg297 O296 2.028 . S
Mg297 O302 2.032 . S
Mg297 O304 2.079 1_556 S
C298 O295 1.250 . S
C298 O296 1.248 . S
C299 O300 1.264 . S
C299 O307 1.249 . S
O300 C299 1.264 . S
O301 Mg294 1.986 1_556 S
O301 C305 1.246 . S
O302 Mg297 2.032 . S
O302 C305 1.259 . S
O303 Mg294 2.114 . S
O303 C306 1.252 . S
O304 Mg294 2.251 . S
O304 Mg297 2.079 1_554 S
O304 C306 1.273 . S
C305 O301 1.246 . S
C305 O302 1.259 . S
C306 O303 1.252 . S
C306 O304 1.273 . S
O307 Mg294 2.010 . S
O307 C299 1.249 . S
Mg308 O309 2.028 1_554 S
Mg308 O315 1.986 1_554 S
Mg308 O317 2.114 . S
Mg308 O318 2.251 . S
Mg308 O321 2.010 . S
O309 Mg308 2.028 1_556 S
O309 C312 1.250 . S
O310 Mg311 2.028 . S
O310 C312 1.248 . S
Mg311 O310 2.028 . S
Mg311 O316 2.032 . S
Mg311 O318 2.079 1_556 S
C312 O309 1.250 . S
C312 O310 1.248 . S
C313 O314 1.264 . S
C313 O321 1.249 . S
O314 C313 1.264 . S
O315 Mg308 1.986 1_556 S
O315 C319 1.246 . S
O316 Mg311 2.032 . S
O316 C319 1.259 . S
O317 Mg308 2.114 . S
O317 C320 1.252 . S
O318 Mg308 2.251 . S
O318 Mg311 2.079 1_554 S
O318 C320 1.273 . S
C319 O315 1.246 . S
C319 O316 1.259 . S
C320 O317 1.252 . S
C320 O318 1.273 . S
O321 Mg308 2.010 . S
O321 C313 1.249 . S
Mg322 O323 2.028 1_556 S
Mg322 O329 1.986 1_556 S
Mg322 O331 2.114 . S
Mg322 O332 2.251 . S
Mg322 O335 2.010 . S
O323 Mg322 2.028 1_554 S
O323 C326 1.250 . S
O324 Mg325 2.028 . S
O324 C326 1.248 . S
Mg325 O324 2.028 . S
Mg325 O330 2.032 . S
Mg325 O332 2.079 1_554 S
C326 O323 1.250 . S
C326 O324 1.248 . S
C327 O328 1.264 . S
C327 O335 1.249 . S
O328 C327 1.264 . S
O329 Mg322 1.986 1_554 S
O329 C333 1.246 . S
O330 Mg325 2.032 . S
O330 C333 1.259 . S
O331 Mg322 2.114 . S
O331 C334 1.252 . S
O332 Mg322 2.251 . S
O332 Mg325 2.079 1_556 S
O332 C334 1.273 . S
C333 O329 1.246 . S
C333 O330 1.259 . S
C334 O331 1.252 . S
C334 O332 1.273 . S
O335 Mg322 2.010 . S
O335 C327 1.249 . S
H336 C342 0.930 . S
H337 C346 0.930 . S
H338 C351 0.929 . S
H339 C349 0.929 . S
H340 C344 0.929 . S
H341 C350 0.929 . S
C342 H336 0.930 . S
C342 C343 1.367 . S
C342 C350 1.378 . S
C343 C342 1.367 . S
C343 C351 1.433 . S
C344 H340 0.929 . S
C344 C346 1.378 . S
C344 C348 1.350 . S
C345 C348 1.463 . S
C345 C350 1.350 . S
C345 N353 1.427 . S
C346 H337 0.930 . S
C346 C344 1.378 . S
C346 C347 1.367 . S
C347 C346 1.367 . S
C347 C349 1.433 . S
C348 C344 1.350 . S
C348 C345 1.463 . S
C348 N352 1.427 . S
C349 H339 0.929 . S
C349 C347 1.433 . S
C349 N352 1.384 . S
C350 H341 0.929 . S
C350 C342 1.378 . S
C350 C345 1.350 . S
C351 H338 0.929 . S
C351 C343 1.433 . S
C351 N353 1.384 . S
N352 C348 1.427 . S
N352 C349 1.384 . S
N353 C345 1.427 . S
N353 C351 1.384 . S
H354 C360 0.930 . S
H355 C364 0.930 . S
H356 C369 0.929 . S
H357 C367 0.929 . S
H358 C362 0.929 . S
H359 C368 0.929 . S
C360 H354 0.930 . S
C360 C361 1.367 . S
C360 C368 1.378 . S
C361 C360 1.367 . S
C361 C369 1.433 . S
C362 H358 0.929 . S
C362 C364 1.378 . S
C362 C366 1.350 . S
C363 C366 1.463 . S
C363 C368 1.350 . S
C363 N371 1.427 . S
C364 H355 0.930 . S
C364 C362 1.378 . S
C364 C365 1.367 . S
C365 C364 1.367 . S
C365 C367 1.433 . S
C366 C362 1.350 . S
C366 C363 1.463 . S
C366 N370 1.427 . S
C367 H357 0.929 . S
C367 C365 1.433 . S
C367 N370 1.384 . S
C368 H359 0.929 . S
C368 C360 1.378 . S
C368 C363 1.350 . S
C369 H356 0.929 . S
C369 C361 1.433 . S
C369 N371 1.384 . S
N370 C366 1.427 . S
N370 C367 1.384 . S
N371 C363 1.427 . S
N371 C369 1.384 . S
H372 C378 0.930 . S
H373 C382 0.930 . S
H374 C387 0.929 . S
H375 C385 0.929 . S
H376 C380 0.929 1_554 S
H377 C386 0.929 . S
C378 H372 0.930 . S
C378 C379 1.367 . S
C378 C386 1.378 . S
C379 C378 1.367 . S
C379 C387 1.433 . S
C380 H376 0.929 1_556 S
C380 C382 1.378 . S
C380 C384 1.350 . S
C381 C384 1.463 1_554 S
C381 C386 1.350 . S
C381 N389 1.427 . S
C382 H373 0.930 . S
C382 C380 1.378 . S
C382 C383 1.367 . S
C383 C382 1.367 . S
C383 C385 1.433 . S
C384 C380 1.350 . S
C384 C381 1.463 1_556 S
C384 N388 1.427 . S
C385 H375 0.929 . S
C385 C383 1.433 . S
C385 N388 1.384 . S
C386 H377 0.929 . S
C386 C378 1.378 . S
C386 C381 1.350 . S
C387 H374 0.929 . S
C387 C379 1.433 . S
C387 N389 1.384 . S
N388 C384 1.427 . S
N388 C385 1.384 . S
N389 C381 1.427 . S
N389 C387 1.384 . S
H390 C396 0.930 . S
H391 C400 0.930 . S
H392 C405 0.929 . S
H393 C403 0.929 . S
H394 C398 0.929 . S
H395 C404 0.929 . S
C396 H390 0.930 . S
C396 C397 1.367 . S
C396 C404 1.378 . S
C397 C396 1.367 . S
C397 C405 1.433 . S
C398 H394 0.929 . S
C398 C400 1.378 . S
C398 C402 1.350 . S
C399 C402 1.463 1_554 S
C399 C404 1.350 . S
C399 N407 1.427 . S
C400 H391 0.930 . S
C400 C398 1.378 . S
C400 C401 1.367 . S
C401 C400 1.367 . S
C401 C403 1.433 . S
C402 C398 1.350 . S
C402 C399 1.463 1_556 S
C402 N406 1.427 . S
C403 H393 0.929 . S
C403 C401 1.433 . S
C403 N406 1.384 . S
C404 H395 0.929 . S
C404 C396 1.378 . S
C404 C399 1.350 . S
C405 H392 0.929 . S
C405 C397 1.433 . S
C405 N407 1.384 . S
N406 C402 1.427 . S
N406 C403 1.384 . S
N407 C399 1.427 . S
N407 C405 1.384 . S
H408 C414 0.930 . S
H409 C418 0.930 . S
H410 C423 0.929 . S
H411 C421 0.929 . S
H412 C416 0.929 . S
H413 C422 0.929 . S
C414 H408 0.930 . S
C414 C415 1.367 . S
C414 C422 1.378 . S
C415 C414 1.367 . S
C415 C423 1.433 . S
C416 H412 0.929 . S
C416 C418 1.378 . S
C416 C420 1.350 . S
C417 C420 1.463 . S
C417 C422 1.350 . S
C417 N425 1.427 . S
C418 H409 0.930 . S
C418 C416 1.378 . S
C418 C419 1.367 . S
C419 C418 1.367 . S
C419 C421 1.433 . S
C420 C416 1.350 . S
C420 C417 1.463 . S
C420 N424 1.427 . S
C421 H411 0.929 . S
C421 C419 1.433 . S
C421 N424 1.384 . S
C422 H413 0.929 . S
C422 C414 1.378 . S
C422 C417 1.350 . S
C423 H410 0.929 . S
C423 C415 1.433 . S
C423 N425 1.384 . S
N424 C420 1.427 . S
N424 C421 1.384 . S
N425 C417 1.427 . S
N425 C423 1.384 . S
H426 C432 0.930 . S
H427 C436 0.930 . S
H428 C441 0.929 . S
H429 C439 0.929 . S
H430 C434 0.929 . S
H431 C440 0.929 . S
C432 H426 0.930 . S
C432 C433 1.367 . S
C432 C440 1.378 . S
C433 C432 1.367 . S
C433 C441 1.433 . S
C434 H430 0.929 . S
C434 C436 1.378 . S
C434 C438 1.350 . S
C435 C438 1.463 . S
C435 C440 1.350 . S
C435 N443 1.427 . S
C436 H427 0.930 . S
C436 C434 1.378 . S
C436 C437 1.367 . S
C437 C436 1.367 . S
C437 C439 1.433 . S
C438 C434 1.350 . S
C438 C435 1.463 . S
C438 N442 1.427 . S
C439 H429 0.929 . S
C439 C437 1.433 . S
C439 N442 1.384 . S
C440 H431 0.929 . S
C440 C432 1.378 . S
C440 C435 1.350 . S
C441 H428 0.929 . S
C441 C433 1.433 . S
C441 N443 1.384 . S
N442 C438 1.427 . S
N442 C439 1.384 . S
N443 C435 1.427 . S
N443 C441 1.384 . S
H444 C450 0.930 . S
H445 C454 0.930 . S
H446 C459 0.929 . S
H447 C457 0.929 . S
H448 C452 0.929 . S
H449 C458 0.929 . S
C450 H444 0.930 . S
C450 C451 1.367 . S
C450 C458 1.378 . S
C451 C450 1.367 . S
C451 C459 1.433 . S
C452 H448 0.929 . S
C452 C454 1.378 . S
C452 C456 1.350 . S
C453 C456 1.463 . S
C453 C458 1.350 . S
C453 N461 1.427 . S
C454 H445 0.930 . S
C454 C452 1.378 . S
C454 C455 1.367 . S
C455 C454 1.367 . S
C455 C457 1.433 . S
C456 C452 1.350 . S
C456 C453 1.463 . S
C456 N460 1.427 . S
C457 H447 0.929 . S
C457 C455 1.433 . S
C457 N460 1.384 . S
C458 H449 0.929 . S
C458 C450 1.378 . S
C458 C453 1.350 . S
C459 H446 0.929 . S
C459 C451 1.433 . S
C459 N461 1.384 . S
N460 C456 1.427 . S
N460 C457 1.384 . S
N461 C453 1.427 . S
N461 C459 1.384 . S
H462 C468 0.930 . S
H463 C472 0.930 . S
H464 C477 0.929 . S
H465 C475 0.929 . S
H466 C470 0.929 . S
H467 C476 0.929 . S
C468 H462 0.930 . S
C468 C469 1.367 . S
C468 C476 1.378 . S
C469 C468 1.367 . S
C469 C477 1.433 . S
C470 H466 0.929 . S
C470 C472 1.378 . S
C470 C474 1.350 . S
C471 C474 1.463 . S
C471 C476 1.350 . S
C471 N479 1.427 . S
C472 H463 0.930 . S
C472 C470 1.378 . S
C472 C473 1.367 . S
C473 C472 1.367 . S
C473 C475 1.433 . S
C474 C470 1.350 . S
C474 C471 1.463 . S
C474 N478 1.427 . S
C475 H465 0.929 . S
C475 C473 1.433 . S
C475 N478 1.384 . S
C476 H467 0.929 . S
C476 C468 1.378 . S
C476 C471 1.350 . S
C477 H464 0.929 . S
C477 C469 1.433 . S
C477 N479 1.384 . S
N478 C474 1.427 . S
N478 C475 1.384 . S
N479 C471 1.427 . S
N479 C477 1.384 . S
H480 C486 0.930 . S
H481 C490 0.930 . S
H482 C495 0.929 . S
H483 C493 0.929 . S
H484 C488 0.929 . S
H485 C494 0.929 . S
C486 H480 0.930 . S
C486 C487 1.367 . S
C486 C494 1.378 . S
C487 C486 1.367 . S
C487 C495 1.433 . S
C488 H484 0.929 . S
C488 C490 1.378 . S
C488 C492 1.350 . S
C489 C492 1.463 . S
C489 C494 1.350 . S
C489 N497 1.427 . S
C490 H481 0.930 . S
C490 C488 1.378 . S
C490 C491 1.367 . S
C491 C490 1.367 . S
C491 C493 1.433 . S
C492 C488 1.350 . S
C492 C489 1.463 . S
C492 N496 1.427 . S
C493 H483 0.929 . S
C493 C491 1.433 . S
C493 N496 1.384 . S
C494 H485 0.929 . S
C494 C486 1.378 . S
C494 C489 1.350 . S
C495 H482 0.929 . S
C495 C487 1.433 . S
C495 N497 1.384 . S
N496 C492 1.427 . S
N496 C493 1.384 . S
N497 C489 1.427 . S
N497 C495 1.384 . S
H498 C504 0.930 . S
H499 C508 0.930 . S
H500 C513 0.929 . S
H501 C511 0.929 . S
H502 C506 0.929 . S
H503 C512 0.929 . S
C504 H498 0.930 . S
C504 C505 1.367 . S
C504 C512 1.378 . S
C505 C504 1.367 . S
C505 C513 1.433 . S
C506 H502 0.929 . S
C506 C508 1.378 . S
C506 C510 1.350 . S
C507 C510 1.463 . S
C507 C512 1.350 . S
C507 N515 1.427 . S
C508 H499 0.930 . S
C508 C506 1.378 . S
C508 C509 1.367 . S
C509 C508 1.367 . S
C509 C511 1.433 . S
C510 C506 1.350 . S
C510 C507 1.463 . S
C510 N514 1.427 . S
C511 H501 0.929 . S
C511 C509 1.433 . S
C511 N514 1.384 . S
C512 H503 0.929 . S
C512 C504 1.378 . S
C512 C507 1.350 . S
C513 H500 0.929 . S
C513 C505 1.433 . S
C513 N515 1.384 . S
N514 C510 1.427 . S
N514 C511 1.384 . S
N515 C507 1.427 . S
N515 C513 1.384 . S
H516 C522 0.930 . S
H517 C526 0.930 . S
H518 C531 0.929 . S
H519 C529 0.929 . S
H520 C524 0.929 . S
H521 C530 0.929 . S
C522 H516 0.930 . S
C522 C523 1.367 . S
C522 C530 1.378 . S
C523 C522 1.367 . S
C523 C531 1.433 . S
C524 H520 0.929 . S
C524 C526 1.378 . S
C524 C528 1.350 1_545 S
C525 C528 1.463 . S
C525 C530 1.350 . S
C525 N533 1.427 . S
C526 H517 0.930 . S
C526 C524 1.378 . S
C526 C527 1.367 . S
C527 C526 1.367 . S
C527 C529 1.433 . S
C528 C524 1.350 1_565 S
C528 C525 1.463 . S
C528 N532 1.427 1_565 S
C529 H519 0.929 . S
C529 C527 1.433 . S
C529 N532 1.384 . S
C530 H521 0.929 . S
C530 C522 1.378 . S
C530 C525 1.350 . S
C531 H518 0.929 . S
C531 C523 1.433 . S
C531 N533 1.384 . S
N532 C528 1.427 1_545 S
N532 C529 1.384 . S
N533 C525 1.427 . S
N533 C531 1.384 . S
H534 C540 0.930 . S
H535 C544 0.930 . S
H536 C549 0.929 . S
H537 C547 0.929 . S
H538 C542 0.929 . S
H539 C548 0.929 . S
C540 H534 0.930 . S
C540 C541 1.367 . S
C540 C548 1.378 . S
C541 C540 1.367 . S
C541 C549 1.433 . S
C542 H538 0.929 . S
C542 C544 1.378 . S
C542 C546 1.350 . S
C543 C546 1.463 . S
C543 C548 1.350 . S
C543 N551 1.427 . S
C544 H535 0.930 . S
C544 C542 1.378 . S
C544 C545 1.367 . S
C545 C544 1.367 . S
C545 C547 1.433 . S
C546 C542 1.350 . S
C546 C543 1.463 . S
C546 N550 1.427 . S
C547 H537 0.929 . S
C547 C545 1.433 . S
C547 N550 1.384 . S
C548 H539 0.929 . S
C548 C540 1.378 . S
C548 C543 1.350 . S
C549 H536 0.929 . S
C549 C541 1.433 . S
C549 N551 1.384 . S
N550 C546 1.427 . S
N550 C547 1.384 . S
N551 C543 1.427 . S
N551 C549 1.384 . S
H552 C558 0.930 . S
H553 C562 0.930 . S
H554 C567 0.929 . S
H555 C565 0.929 . S
H556 C560 0.929 . S
H557 C566 0.929 . S
C558 H552 0.930 . S
C558 C559 1.367 . S
C558 C566 1.378 . S
C559 C558 1.367 . S
C559 C567 1.433 . S
C560 H556 0.929 . S
C560 C562 1.378 . S
C560 C564 1.350 . S
C561 C564 1.463 1_554 S
C561 C566 1.350 . S
C561 N569 1.427 . S
C562 H553 0.930 . S
C562 C560 1.378 . S
C562 C563 1.367 . S
C563 C562 1.367 . S
C563 C565 1.433 . S
C564 C560 1.350 . S
C564 C561 1.463 1_556 S
C564 N568 1.427 . S
C565 H555 0.929 . S
C565 C563 1.433 . S
C565 N568 1.384 . S
C566 H557 0.929 . S
C566 C558 1.378 . S
C566 C561 1.350 . S
C567 H554 0.929 . S
C567 C559 1.433 . S
C567 N569 1.384 . S
N568 C564 1.427 . S
N568 C565 1.384 . S
N569 C561 1.427 . S
N569 C567 1.384 . S
H570 C576 0.930 . S
H571 C580 0.930 . S
H572 C585 0.929 . S
H573 C583 0.929 . S
H574 C578 0.929 . S
H575 C584 0.929 1_556 S
C576 H570 0.930 . S
C576 C577 1.367 . S
C576 C584 1.378 . S
C577 C576 1.367 . S
C577 C585 1.433 . S
C578 H574 0.929 . S
C578 C580 1.378 . S
C578 C582 1.350 . S
C579 C582 1.463 1_554 S
C579 C584 1.350 . S
C579 N587 1.427 . S
C580 H571 0.930 . S
C580 C578 1.378 . S
C580 C581 1.367 . S
C581 C580 1.367 . S
C581 C583 1.433 . S
C582 C578 1.350 . S
C582 C579 1.463 1_556 S
C582 N586 1.427 . S
C583 H573 0.929 . S
C583 C581 1.433 . S
C583 N586 1.384 . S
C584 H575 0.929 1_554 S
C584 C576 1.378 . S
C584 C579 1.350 . S
C585 H572 0.929 . S
C585 C577 1.433 . S
C585 N587 1.384 . S
N586 C582 1.427 . S
N586 C583 1.384 . S
N587 C579 1.427 . S
N587 C585 1.384 . S
H588 C594 0.930 . S
H589 C598 0.930 . S
H590 C603 0.929 . S
H591 C601 0.929 . S
H592 C596 0.929 . S
H593 C602 0.929 . S
C594 H588 0.930 . S
C594 C595 1.367 . S
C594 C602 1.378 . S
C595 C594 1.367 . S
C595 C603 1.433 . S
C596 H592 0.929 . S
C596 C598 1.378 . S
C596 C600 1.350 . S
C597 C600 1.463 . S
C597 C602 1.350 . S
C597 N605 1.427 . S
C598 H589 0.930 . S
C598 C596 1.378 . S
C598 C599 1.367 . S
C599 C598 1.367 . S
C599 C601 1.433 . S
C600 C596 1.350 . S
C600 C597 1.463 . S
C600 N604 1.427 . S
C601 H591 0.929 . S
C601 C599 1.433 . S
C601 N604 1.384 . S
C602 H593 0.929 . S
C602 C594 1.378 . S
C602 C597 1.350 . S
C603 H590 0.929 . S
C603 C595 1.433 . S
C603 N605 1.384 . S
N604 C600 1.427 . S
N604 C601 1.384 . S
N605 C597 1.427 . S
N605 C603 1.384 . S
H606 C612 0.930 . S
H607 C616 0.930 . S
H608 C621 0.929 . S
H609 C619 0.929 . S
H610 C614 0.929 . S
H611 C620 0.929 . S
C612 H606 0.930 . S
C612 C613 1.367 . S
C612 C620 1.378 . S
C613 C612 1.367 . S
C613 C621 1.433 . S
C614 H610 0.929 . S
C614 C616 1.378 . S
C614 C618 1.350 . S
C615 C618 1.463 . S
C615 C620 1.350 . S
C615 N623 1.427 . S
C616 H607 0.930 . S
C616 C614 1.378 . S
C616 C617 1.367 . S
C617 C616 1.367 . S
C617 C619 1.433 . S
C618 C614 1.350 . S
C618 C615 1.463 . S
C618 N622 1.427 . S
C619 H609 0.929 . S
C619 C617 1.433 . S
C619 N622 1.384 . S
C620 H611 0.929 . S
C620 C612 1.378 . S
C620 C615 1.350 . S
C621 H608 0.929 . S
C621 C613 1.433 . S
C621 N623 1.384 . S
N622 C618 1.427 . S
N622 C619 1.384 . S
N623 C615 1.427 . S
N623 C621 1.384 . S
H624 C630 0.930 . S
H625 C634 0.930 . S
H626 C639 0.929 . S
H627 C637 0.929 . S
H628 C632 0.929 . S
H629 C638 0.929 1_655 S
C630 H624 0.930 . S
C630 C631 1.367 . S
C630 C638 1.378 . S
C631 C630 1.367 . S
C631 C639 1.433 . S
C632 H628 0.929 . S
C632 C634 1.378 . S
C632 C636 1.350 . S
C633 C636 1.463 . S
C633 C638 1.350 1_655 S
C633 N641 1.427 1_655 S
C634 H625 0.930 . S
C634 C632 1.378 . S
C634 C635 1.367 . S
C635 C634 1.367 . S
C635 C637 1.433 . S
C636 C632 1.350 . S
C636 C633 1.463 . S
C636 N640 1.427 . S
C637 H627 0.929 . S
C637 C635 1.433 . S
C637 N640 1.384 . S
C638 H629 0.929 1_455 S
C638 C630 1.378 . S
C638 C633 1.350 1_455 S
C639 H626 0.929 . S
C639 C631 1.433 . S
C639 N641 1.384 . S
N640 C636 1.427 . S
N640 C637 1.384 . S
N641 C633 1.427 1_455 S
N641 C639 1.384 . S
H642 C648 0.930 . S
H643 C652 0.930 . S
H644 C657 0.929 . S
H645 C655 0.929 . S
H646 C650 0.929 . S
H647 C656 0.929 . S
C648 H642 0.930 . S
C648 C649 1.367 . S
C648 C656 1.378 . S
C649 C648 1.367 . S
C649 C657 1.433 . S
C650 H646 0.929 . S
C650 C652 1.378 . S
C650 C654 1.350 . S
C651 C654 1.463 1_655 S
C651 C656 1.350 . S
C651 N659 1.427 . S
C652 H643 0.930 . S
C652 C650 1.378 . S
C652 C653 1.367 . S
C653 C652 1.367 . S
C653 C655 1.433 . S
C654 C650 1.350 . S
C654 C651 1.463 1_455 S
C654 N658 1.427 . S
C655 H645 0.929 . S
C655 C653 1.433 . S
C655 N658 1.384 . S
C656 H647 0.929 . S
C656 C648 1.378 . S
C656 C651 1.350 . S
C657 H644 0.929 . S
C657 C649 1.433 . S
C657 N659 1.384 . S
N658 C654 1.427 . S
N658 C655 1.384 . S
N659 C651 1.427 . S
N659 C657 1.384 . S
H660 C666 0.930 . S
H661 C670 0.930 . S
H662 C675 0.929 . S
H663 C673 0.929 . S
H664 C668 0.929 . S
H665 C674 0.910 1_655 S
C666 H660 0.930 . S
C666 C667 1.367 . S
C666 C674 1.400 . S
C667 C666 1.367 . S
C667 C675 1.433 . S
C668 H664 0.929 . S
C668 C670 1.378 . S
C668 C672 1.350 . S
C669 C672 1.463 . S
C669 C674 1.347 1_655 S
C669 N677 1.427 1_655 S
C670 H661 0.930 . S
C670 C668 1.378 . S
C670 C671 1.367 . S
C671 C670 1.367 . S
C671 C673 1.433 . S
C672 C668 1.350 . S
C672 C669 1.463 . S
C672 N676 1.427 . S
C673 H663 0.929 . S
C673 C671 1.433 . S
C673 N676 1.384 . S
C674 H665 0.910 1_455 S
C674 C666 1.400 . S
C674 C669 1.347 1_455 S
C675 H662 0.929 . S
C675 C667 1.433 . S
C675 N677 1.384 . S
N676 C672 1.427 . S
N676 C673 1.384 . S
N677 C669 1.427 1_455 S
N677 C675 1.384 . S
H678 C684 0.930 . S
H679 C688 0.930 . S
H680 C693 0.929 . S
H681 C691 0.929 . S
H682 C686 0.929 1_455 S
H683 C692 0.929 . S
C684 H678 0.930 . S
C684 C685 1.367 . S
C684 C692 1.378 . S
C685 C684 1.367 . S
C685 C693 1.433 . S
C686 H682 0.929 1_655 S
C686 C688 1.378 . S
C686 C690 1.356 . S
C687 C690 1.445 1_455 S
C687 C692 1.350 . S
C687 N695 1.427 . S
C688 H679 0.930 . S
C688 C686 1.378 . S
C688 C689 1.367 . S
C689 C688 1.367 . S
C689 C691 1.433 . S
C690 C686 1.356 . S
C690 C687 1.445 1_655 S
C690 N694 1.438 . S
C691 H681 0.929 . S
C691 C689 1.433 . S
C691 N694 1.384 . S
C692 H683 0.929 . S
C692 C684 1.378 . S
C692 C687 1.350 . S
C693 H680 0.929 . S
C693 C685 1.433 . S
C693 N695 1.384 . S
N694 C690 1.438 . S
N694 C691 1.384 . S
N695 C687 1.427 . S
N695 C693 1.384 . S
H696 C702 0.930 . S
H697 C706 0.930 . S
H698 C711 0.929 . S
H699 C709 0.929 . S
H700 C704 0.929 . S
H701 C710 0.929 . S
C702 H696 0.930 . S
C702 C703 1.367 . S
C702 C710 1.378 . S
C703 C702 1.367 . S
C703 C711 1.433 . S
C704 H700 0.929 . S
C704 C706 1.378 . S
C704 C708 1.350 . S
C705 C708 1.463 . S
C705 C710 1.350 1_565 S
C705 N713 1.427 . S
C706 H697 0.930 . S
C706 C704 1.378 . S
C706 C707 1.367 . S
C707 C706 1.367 . S
C707 C709 1.433 . S
C708 C704 1.350 . S
C708 C705 1.463 . S
C708 N712 1.427 . S
C709 H699 0.929 . S
C709 C707 1.433 . S
C709 N712 1.384 . S
C710 H701 0.929 . S
C710 C702 1.378 . S
C710 C705 1.350 1_545 S
C711 H698 0.929 . S
C711 C703 1.433 . S
C711 N713 1.382 1_545 S
N712 C708 1.427 . S
N712 C709 1.384 . S
N713 C705 1.427 . S
N713 C711 1.382 1_565 S
H714 C720 0.930 . S
H715 C724 0.930 . S
H716 C729 0.929 . S
H717 C727 0.929 . S
H718 C722 0.929 1_545 S
H719 C728 0.929 . S
C720 H714 0.930 . S
C720 C721 1.367 . S
C720 C728 1.378 . S
C721 C720 1.367 . S
C721 C729 1.433 . S
C722 H718 0.929 1_565 S
C722 C724 1.378 . S
C722 C726 1.354 . S
C723 C726 1.451 1_545 S
C723 C728 1.350 . S
C723 N731 1.427 . S
C724 H715 0.930 . S
C724 C722 1.378 . S
C724 C725 1.367 . S
C725 C724 1.367 . S
C725 C727 1.433 . S
C726 C722 1.354 . S
C726 C723 1.451 1_565 S
C726 N730 1.435 . S
C727 H717 0.929 . S
C727 C725 1.433 . S
C727 N730 1.384 . S
C728 H719 0.929 . S
C728 C720 1.378 . S
C728 C723 1.350 . S
C729 H716 0.929 . S
C729 C721 1.433 . S
C729 N731 1.384 . S
N730 C726 1.435 . S
N730 C727 1.384 . S
N731 C723 1.427 . S
N731 C729 1.384 . S
H732 C738 0.930 . S
H733 C742 0.930 . S
H734 C747 0.929 . S
H735 C745 0.929 . S
H736 C740 0.929 . S
H737 C746 0.929 . S
C738 H732 0.930 . S
C738 C739 1.367 . S
C738 C746 1.378 . S
C739 C738 1.367 . S
C739 C747 1.433 . S
C740 H736 0.929 . S
C740 C742 1.378 . S
C740 C744 1.350 . S
C741 C744 1.463 . S
C741 C746 1.350 . S
C741 N749 1.427 . S
C742 H733 0.930 . S
C742 C740 1.378 . S
C742 C743 1.367 . S
C743 C742 1.367 . S
C743 C745 1.433 . S
C744 C740 1.350 . S
C744 C741 1.463 . S
C744 N748 1.427 . S
C745 H735 0.929 . S
C745 C743 1.433 . S
C745 N748 1.384 . S
C746 H737 0.929 . S
C746 C738 1.378 . S
C746 C741 1.350 . S
C747 H734 0.929 . S
C747 C739 1.433 . S
C747 N749 1.384 . S
N748 C744 1.427 . S
N748 C745 1.384 . S
N749 C741 1.427 . S
N749 C747 1.384 . S
H750 C756 0.930 . S
H751 C760 0.930 . S
H752 C765 0.929 . S
H753 C763 0.929 . S
H754 C758 0.929 . S
H755 C764 0.929 . S
C756 H750 0.930 . S
C756 C757 1.367 . S
C756 C764 1.378 . S
C757 C756 1.367 . S
C757 C765 1.433 . S
C758 H754 0.929 . S
C758 C760 1.378 . S
C758 C762 1.339 1_565 S
C759 C762 1.484 . S
C759 C764 1.350 . S
C759 N767 1.427 . S
C760 H751 0.930 . S
C760 C758 1.378 . S
C760 C761 1.367 . S
C761 C760 1.367 . S
C761 C763 1.433 . S
C762 C758 1.339 1_545 S
C762 C759 1.484 . S
C762 N766 1.418 1_545 S
C763 H753 0.929 . S
C763 C761 1.433 . S
C763 N766 1.384 . S
C764 H755 0.929 . S
C764 C756 1.378 . S
C764 C759 1.350 . S
C765 H752 0.929 . S
C765 C757 1.433 . S
C765 N767 1.384 . S
N766 C762 1.418 1_565 S
N766 C763 1.384 . S
N767 C759 1.427 . S
N767 C765 1.384 . S
H768 C774 0.930 . S
H769 C778 0.930 . S
H770 C783 0.929 . S
H771 C781 0.929 . S
H772 C776 0.929 1_655 S
H773 C782 0.922 1_455 S
C774 H768 0.930 . S
C774 C775 1.367 . S
C774 C782 1.384 . S
C775 C774 1.367 . S
C775 C783 1.433 . S
C776 H772 0.929 1_455 S
C776 C778 1.378 . S
C776 C780 1.350 . S
C777 C780 1.463 1_655 S
C777 C782 1.351 . S
C777 N785 1.427 . S
C778 H769 0.930 . S
C778 C776 1.378 . S
C778 C779 1.367 . S
C779 C778 1.367 . S
C779 C781 1.433 . S
C780 C776 1.350 . S
C780 C777 1.463 1_455 S
C780 N784 1.427 . S
C781 H771 0.929 . S
C781 C779 1.433 . S
C781 N784 1.384 . S
C782 H773 0.922 1_655 S
C782 C774 1.384 . S
C782 C777 1.351 . S
C783 H770 0.929 . S
C783 C775 1.433 . S
C783 N785 1.384 . S
N784 C780 1.427 . S
N784 C781 1.384 . S
N785 C777 1.427 . S
N785 C783 1.384 . S
H786 C792 0.930 . S
H787 C796 0.930 . S
H788 C801 0.929 . S
H789 C799 0.929 . S
H790 C794 0.929 . S
H791 C800 0.925 1_655 S
C792 H786 0.930 . S
C792 C793 1.367 . S
C792 C800 1.380 . S
C793 C792 1.367 . S
C793 C801 1.433 . S
C794 H790 0.929 . S
C794 C796 1.378 1_455 S
C794 C798 1.350 1_455 S
C795 C798 1.463 1_455 S
C795 C800 1.351 . S
C795 N803 1.427 . S
C796 H787 0.930 . S
C796 C794 1.378 1_655 S
C796 C797 1.367 . S
C797 C796 1.367 . S
C797 C799 1.433 . S
C798 C794 1.350 1_655 S
C798 C795 1.463 1_655 S
C798 N802 1.427 . S
C799 H789 0.929 . S
C799 C797 1.433 . S
C799 N802 1.384 . S
C800 H791 0.925 1_455 S
C800 C792 1.380 . S
C800 C795 1.351 . S
C801 H788 0.929 . S
C801 C793 1.433 . S
C801 N803 1.384 . S
N802 C798 1.427 . S
N802 C799 1.384 . S
N803 C795 1.427 . S
N803 C801 1.384 . S
H804 C810 0.930 . S
H805 C814 0.930 . S
H806 C819 0.929 . S
H807 C817 0.929 . S
H808 C812 0.929 . S
H809 C818 0.929 . S
C810 H804 0.930 . S
C810 C811 1.367 1_545 S
C810 C818 1.378 . S
C811 C810 1.367 1_565 S
C811 C819 1.433 . S
C812 H808 0.929 . S
C812 C814 1.378 . S
C812 C816 1.350 1_565 S
C813 C816 1.463 1_565 S
C813 C818 1.350 1_565 S
C813 N821 1.427 . S
C814 H805 0.930 . S
C814 C812 1.378 . S
C814 C815 1.367 1_565 S
C815 C814 1.367 1_545 S
C815 C817 1.433 . S
C816 C812 1.350 1_545 S
C816 C813 1.463 1_545 S
C816 N820 1.427 . S
C817 H807 0.929 . S
C817 C815 1.433 . S
C817 N820 1.384 . S
C818 H809 0.929 . S
C818 C810 1.378 . S
C818 C813 1.350 1_545 S
C819 H806 0.929 . S
C819 C811 1.433 . S
C819 N821 1.384 . S
N820 C816 1.427 . S
N820 C817 1.384 . S
N821 C813 1.427 . S
N821 C819 1.384 . S
H822 C828 0.930 . S
H823 C832 0.930 . S
H824 C837 0.929 . S
H825 C835 0.929 . S
H826 C830 0.929 . S
H827 C836 0.929 . S
C828 H822 0.930 . S
C828 C829 1.367 . S
C828 C836 1.378 . S
C829 C828 1.367 . S
C829 C837 1.433 . S
C830 H826 0.929 . S
C830 C832 1.378 . S
C830 C834 1.350 . S
C831 C834 1.463 . S
C831 C836 1.350 . S
C831 N839 1.427 . S
C832 H823 0.930 . S
C832 C830 1.378 . S
C832 C833 1.367 . S
C833 C832 1.367 . S
C833 C835 1.433 . S
C834 C830 1.350 . S
C834 C831 1.463 . S
C834 N838 1.427 . S
C835 H825 0.929 . S
C835 C833 1.433 . S
C835 N838 1.384 . S
C836 H827 0.929 . S
C836 C828 1.378 . S
C836 C831 1.350 . S
C837 H824 0.929 . S
C837 C829 1.433 . S
C837 N839 1.384 . S
N838 C834 1.427 . S
N838 C835 1.384 . S
N839 C831 1.427 . S
N839 C837 1.384 . S
H840 C846 0.930 . S
H841 C850 0.930 . S
H842 C855 0.929 . S
H843 C853 0.930 . S
H844 C848 0.929 . S
H845 C854 0.929 . S
C846 H840 0.930 . S
C846 C847 1.367 . S
C846 C854 1.378 . S
C847 C846 1.367 . S
C847 C855 1.433 . S
C848 H844 0.929 . S
C848 C850 1.378 . S
C848 C852 1.350 . S
C849 C852 1.463 1_554 S
C849 C854 1.350 . S
C849 N857 1.426 1_554 S
C850 H841 0.930 . S
C850 C848 1.378 . S
C850 C851 1.367 . S
C851 C850 1.367 . S
C851 C853 1.433 . S
C852 C848 1.350 . S
C852 C849 1.463 1_556 S
C852 N856 1.427 1_556 S
C853 H843 0.930 . S
C853 C851 1.433 . S
C853 N856 1.384 1_556 S
C854 H845 0.929 . S
C854 C846 1.378 . S
C854 C849 1.350 . S
C855 H842 0.929 . S
C855 C847 1.433 . S
C855 N857 1.382 1_554 S
N856 C852 1.427 1_554 S
N856 C853 1.384 1_554 S
N857 C849 1.426 1_556 S
N857 C855 1.382 1_556 S
H858 C864 0.930 . S
H859 C868 0.930 . S
H860 C873 0.929 . S
H861 C871 0.929 . S
H862 C866 0.929 . S
H863 C872 0.929 . S
C864 H858 0.930 . S
C864 C865 1.367 . S
C864 C872 1.378 . S
C865 C864 1.367 . S
C865 C873 1.433 . S
C866 H862 0.929 . S
C866 C868 1.378 . S
C866 C870 1.350 . S
C867 C870 1.463 . S
C867 C872 1.350 . S
C867 N875 1.427 . S
C868 H859 0.930 . S
C868 C866 1.378 . S
C868 C869 1.367 . S
C869 C868 1.367 . S
C869 C871 1.433 . S
C870 C866 1.350 . S
C870 C867 1.463 . S
C870 N874 1.427 . S
C871 H861 0.929 . S
C871 C869 1.433 . S
C871 N874 1.384 . S
C872 H863 0.929 . S
C872 C864 1.378 . S
C872 C867 1.350 . S
C873 H860 0.929 . S
C873 C865 1.433 . S
C873 N875 1.384 . S
N874 C870 1.427 . S
N874 C871 1.384 . S
N875 C867 1.427 . S
N875 C873 1.384 . S
H876 C882 0.930 . S
H877 C886 0.930 . S
H878 C891 0.929 . S
H879 C889 0.929 . S
H880 C884 0.929 . S
H881 C890 0.929 . S
C882 H876 0.930 . S
C882 C883 1.367 . S
C882 C890 1.378 . S
C883 C882 1.367 . S
C883 C891 1.433 . S
C884 H880 0.929 . S
C884 C886 1.378 . S
C884 C888 1.350 . S
C885 C888 1.463 . S
C885 C890 1.350 . S
C885 N893 1.427 . S
C886 H877 0.930 . S
C886 C884 1.378 . S
C886 C887 1.367 . S
C887 C886 1.367 . S
C887 C889 1.433 . S
C888 C884 1.350 . S
C888 C885 1.463 . S
C888 N892 1.427 . S
C889 H879 0.929 . S
C889 C887 1.433 . S
C889 N892 1.384 . S
C890 H881 0.929 . S
C890 C882 1.378 . S
C890 C885 1.350 . S
C891 H878 0.929 . S
C891 C883 1.433 . S
C891 N893 1.384 . S
N892 C888 1.427 . S
N892 C889 1.384 . S
N893 C885 1.427 . S
N893 C891 1.384 . S
H894 C900 0.930 . S
H895 C904 0.930 . S
H896 C909 0.929 . S
H897 C907 0.929 . S
H898 C902 0.929 . S
H899 C908 0.929 . S
C900 H894 0.930 . S
C900 C901 1.367 . S
C900 C908 1.378 . S
C901 C900 1.367 . S
C901 C909 1.433 . S
C902 H898 0.929 . S
C902 C904 1.378 . S
C902 C906 1.350 . S
C903 C906 1.463 . S
C903 C908 1.350 . S
C903 N911 1.427 . S
C904 H895 0.930 . S
C904 C902 1.378 . S
C904 C905 1.367 . S
C905 C904 1.367 . S
C905 C907 1.433 . S
C906 C902 1.350 . S
C906 C903 1.463 . S
C906 N910 1.427 . S
C907 H897 0.929 . S
C907 C905 1.433 . S
C907 N910 1.384 . S
C908 H899 0.929 . S
C908 C900 1.378 . S
C908 C903 1.350 . S
C909 H896 0.929 . S
C909 C901 1.433 . S
C909 N911 1.384 . S
N910 C906 1.427 . S
N910 C907 1.384 . S
N911 C903 1.427 . S
N911 C909 1.384 . S
H912 C918 0.930 . S
H913 C922 0.930 . S
H914 C927 0.929 . S
H915 C925 0.929 . S
H916 C920 0.929 . S
H917 C926 0.929 . S
C918 H912 0.930 . S
C918 C919 1.367 . S
C918 C926 1.378 . S
C919 C918 1.367 . S
C919 C927 1.433 . S
C920 H916 0.929 . S
C920 C922 1.378 . S
C920 C924 1.350 . S
C921 C924 1.463 . S
C921 C926 1.350 . S
C921 N929 1.427 . S
C922 H913 0.930 . S
C922 C920 1.378 . S
C922 C923 1.367 . S
C923 C922 1.367 . S
C923 C925 1.433 . S
C924 C920 1.350 . S
C924 C921 1.463 . S
C924 N928 1.427 . S
C925 H915 0.929 . S
C925 C923 1.433 . S
C925 N928 1.384 . S
C926 H917 0.929 . S
C926 C918 1.378 . S
C926 C921 1.350 . S
C927 H914 0.929 . S
C927 C919 1.433 . S
C927 N929 1.384 . S
N928 C924 1.427 . S
N928 C925 1.384 . S
N929 C921 1.427 . S
N929 C927 1.384 . S
H930 C936 0.930 . S
H931 C940 0.930 . S
H932 C945 0.929 . S
H933 C943 0.929 . S
H934 C938 0.929 . S
H935 C944 0.929 . S
C936 H930 0.930 . S
C936 C937 1.367 . S
C936 C944 1.378 . S
C937 C936 1.367 . S
C937 C945 1.433 . S
C938 H934 0.929 . S
C938 C940 1.378 . S
C938 C942 1.350 . S
C939 C942 1.463 . S
C939 C944 1.350 . S
C939 N947 1.427 . S
C940 H931 0.930 . S
C940 C938 1.378 . S
C940 C941 1.367 . S
C941 C940 1.367 . S
C941 C943 1.433 . S
C942 C938 1.350 . S
C942 C939 1.463 . S
C942 N946 1.427 . S
C943 H933 0.929 . S
C943 C941 1.433 . S
C943 N946 1.384 . S
C944 H935 0.929 . S
C944 C936 1.378 . S
C944 C939 1.350 . S
C945 H932 0.929 . S
C945 C937 1.433 . S
C945 N947 1.384 . S
N946 C942 1.427 . S
N946 C943 1.384 . S
N947 C939 1.427 . S
N947 C945 1.384 . S
H948 C954 0.930 . S
H949 C958 0.930 . S
H950 C963 0.932 . S
H951 C961 0.924 1_545 S
H952 C956 0.929 . S
H953 C962 0.929 . S
C954 H948 0.930 . S
C954 C955 1.367 . S
C954 C962 1.378 . S
C955 C954 1.367 . S
C955 C963 1.433 . S
C956 H952 0.929 . S
C956 C958 1.378 . S
C956 C960 1.350 . S
C957 C960 1.463 1_545 S
C957 C962 1.350 . S
C957 N965 1.427 1_545 S
C958 H949 0.930 . S
C958 C956 1.378 . S
C958 C959 1.367 . S
C959 C958 1.367 . S
C959 C961 1.433 . S
C960 C956 1.350 . S
C960 C957 1.463 1_565 S
C960 N964 1.427 1_565 S
C961 H951 0.924 1_565 S
C961 C959 1.433 . S
C961 N964 1.384 1_565 S
C962 H953 0.929 . S
C962 C954 1.378 . S
C962 C957 1.350 . S
C963 H950 0.932 . S
C963 C955 1.433 . S
C963 N965 1.384 1_545 S
N964 C960 1.427 1_545 S
N964 C961 1.384 1_545 S
N965 C957 1.427 1_565 S
N965 C963 1.384 1_565 S
H966 C972 0.930 . S
H967 C976 0.930 . S
H968 C981 0.929 . S
H969 C979 0.929 . S
H970 C974 0.929 . S
H971 C980 0.929 . S
C972 H966 0.930 . S
C972 C973 1.367 . S
C972 C980 1.378 . S
C973 C972 1.367 . S
C973 C981 1.433 1_556 S
C974 H970 0.929 . S
C974 C976 1.378 . S
C974 C978 1.350 . S
C975 C978 1.463 1_556 S
C975 C980 1.350 . S
C975 N983 1.427 1_556 S
C976 H967 0.930 . S
C976 C974 1.378 . S
C976 C977 1.367 . S
C977 C976 1.367 . S
C977 C979 1.433 1_554 S
C978 C974 1.350 . S
C978 C975 1.463 1_554 S
C978 N982 1.427 1_554 S
C979 H969 0.929 . S
C979 C977 1.433 1_556 S
C979 N982 1.384 . S
C980 H971 0.929 . S
C980 C972 1.378 . S
C980 C975 1.350 . S
C981 H968 0.929 . S
C981 C973 1.433 1_554 S
C981 N983 1.384 . S
N982 C978 1.427 1_556 S
N982 C979 1.384 . S
N983 C975 1.427 1_554 S
N983 C981 1.384 . S
H984 C990 0.930 . S
H985 C994 0.930 . S
H986 C999 0.929 . S
H987 C997 0.929 . S
H988 C992 0.916 1_565 S
H989 C998 0.929 1_545 S
C990 H984 0.930 . S
C990 C991 1.367 1_655 S
C990 C998 1.378 . S
C991 C990 1.367 1_455 S
C991 C999 1.433 . S
C992 H988 0.916 1_545 S
C992 C994 1.387 . S
C992 C996 1.353 . S
C993 C996 1.463 1_565 S
C993 C998 1.350 1_455 S
C993 N1001 1.427 . S
C994 H985 0.930 . S
C994 C992 1.387 . S
C994 C995 1.367 . S
C995 C994 1.367 . S
C995 C997 1.433 1_455 S
C996 C992 1.353 . S
C996 C993 1.463 1_545 S
C996 N1000 1.427 1_455 S
C997 H987 0.929 . S
C997 C995 1.433 1_655 S
C997 N1000 1.384 . S
C998 H989 0.929 1_565 S
C998 C990 1.378 . S
C998 C993 1.350 1_655 S
C999 H986 0.929 . S
C999 C991 1.433 . S
C999 N1001 1.384 . S
N1000 C996 1.427 1_655 S
N1000 C997 1.384 . S
N1001 C993 1.427 . S
N1001 C999 1.384 . S
H1002 C1008 0.930 . S
H1003 C1012 0.930 . S
H1004 C1017 0.929 . S
H1005 C1015 0.929 . S
H1006 C1010 0.929 . S
H1007 C1016 0.929 . S
C1008 H1002 0.930 . S
C1008 C1009 1.367 . S
C1008 C1016 1.378 . S
C1009 C1008 1.367 . S
C1009 C1017 1.433 1_655 S
C1010 H1006 0.929 . S
C1010 C1012 1.378 . S
C1010 C1014 1.350 1_455 S
C1011 C1014 1.463 . S
C1011 C1016 1.350 . S
C1011 N1019 1.427 1_655 S
C1012 H1003 0.930 . S
C1012 C1010 1.378 . S
C1012 C1013 1.367 1_455 S
C1013 C1012 1.367 1_655 S
C1013 C1015 1.433 . S
C1014 C1010 1.350 1_655 S
C1014 C1011 1.463 . S
C1014 N1018 1.427 . S
C1015 H1005 0.929 . S
C1015 C1013 1.433 . S
C1015 N1018 1.384 . S
C1016 H1007 0.929 . S
C1016 C1008 1.378 . S
C1016 C1011 1.350 . S
C1017 H1004 0.929 . S
C1017 C1009 1.433 1_455 S
C1017 N1019 1.384 . S
N1018 C1014 1.427 . S
N1018 C1015 1.384 . S
N1019 C1011 1.427 1_455 S
N1019 C1017 1.384 . S
H1020 C1026 0.930 . S
H1021 C1030 0.930 . S
H1022 C1035 0.929 . S
H1023 C1033 0.929 . S
H1024 C1028 0.929 . S
H1025 C1034 0.929 . S
C1026 H1020 0.930 . S
C1026 C1027 1.367 1_565 S
C1026 C1034 1.378 . S
C1027 C1026 1.367 1_545 S
C1027 C1035 1.433 . S
C1028 H1024 0.929 . S
C1028 C1030 1.378 . S
C1028 C1032 1.350 . S
C1029 C1032 1.463 1_556 S
C1029 C1034 1.350 1_545 S
C1029 N1037 1.427 . S
C1030 H1021 0.930 . S
C1030 C1028 1.378 . S
C1030 C1031 1.367 . S
C1031 C1030 1.367 . S
C1031 C1033 1.433 1_545 S
C1032 C1028 1.350 . S
C1032 C1029 1.463 1_554 S
C1032 N1036 1.427 1_545 S
C1033 H1023 0.929 . S
C1033 C1031 1.433 1_565 S
C1033 N1036 1.384 . S
C1034 H1025 0.929 . S
C1034 C1026 1.378 . S
C1034 C1029 1.350 1_565 S
C1035 H1022 0.929 . S
C1035 C1027 1.433 . S
C1035 N1037 1.384 . S
N1036 C1032 1.427 1_565 S
N1036 C1033 1.384 . S
N1037 C1029 1.427 . S
N1037 C1035 1.384 . S
H1038 C1044 0.930 . S
H1039 C1048 0.930 . S
H1040 C1053 0.929 . S
H1041 C1051 0.929 . S
H1042 C1046 0.929 1_554 S
H1043 C1052 0.929 1_556 S
C1044 H1038 0.930 . S
C1044 C1045 1.367 . S
C1044 C1052 1.378 . S
C1045 C1044 1.367 . S
C1045 C1053 1.433 . S
C1046 H1042 0.929 1_556 S
C1046 C1048 1.378 . S
C1046 C1050 1.350 . S
C1047 C1050 1.463 1_554 S
C1047 C1052 1.350 . S
C1047 N1055 1.427 . S
C1048 H1039 0.930 . S
C1048 C1046 1.378 . S
C1048 C1049 1.367 . S
C1049 C1048 1.367 . S
C1049 C1051 1.433 . S
C1050 C1046 1.350 . S
C1050 C1047 1.463 1_556 S
C1050 N1054 1.427 . S
C1051 H1041 0.929 . S
C1051 C1049 1.433 . S
C1051 N1054 1.384 . S
C1052 H1043 0.929 1_554 S
C1052 C1044 1.378 . S
C1052 C1047 1.350 . S
C1053 H1040 0.929 . S
C1053 C1045 1.433 . S
C1053 N1055 1.384 . S
N1054 C1050 1.427 . S
N1054 C1051 1.384 . S
N1055 C1047 1.427 . S
N1055 C1053 1.384 . S
H1056 C1062 0.930 . S
H1057 C1066 0.930 . S
H1058 C1071 0.929 . S
H1059 C1069 0.929 . S
H1060 C1064 0.929 . S
H1061 C1070 0.929 . S
C1062 H1056 0.930 . S
C1062 C1063 1.367 1_545 S
C1062 C1070 1.378 . S
C1063 C1062 1.367 1_565 S
C1063 C1071 1.433 . S
C1064 H1060 0.929 . S
C1064 C1066 1.378 . S
C1064 C1068 1.350 . S
C1065 C1068 1.463 . S
C1065 C1070 1.350 1_565 S
C1065 N1073 1.427 . S
C1066 H1057 0.930 . S
C1066 C1064 1.378 . S
C1066 C1067 1.367 . S
C1067 C1066 1.367 . S
C1067 C1069 1.433 1_565 S
C1068 C1064 1.350 . S
C1068 C1065 1.463 . S
C1068 N1072 1.427 1_565 S
C1069 H1059 0.929 . S
C1069 C1067 1.433 1_545 S
C1069 N1072 1.384 . S
C1070 H1061 0.929 . S
C1070 C1062 1.378 . S
C1070 C1065 1.350 1_545 S
C1071 H1058 0.929 . S
C1071 C1063 1.433 . S
C1071 N1073 1.384 . S
N1072 C1068 1.427 1_545 S
N1072 C1069 1.384 . S
N1073 C1065 1.427 . S
N1073 C1071 1.384 . S
H1074 C1080 0.930 . S
H1075 C1084 0.930 . S
H1076 C1089 0.929 . S
H1077 C1087 0.929 . S
H1078 C1082 0.929 . S
H1079 C1088 0.929 . S
C1080 H1074 0.930 . S
C1080 C1081 1.367 . S
C1080 C1088 1.378 . S
C1081 C1080 1.367 . S
C1081 C1089 1.433 . S
C1082 H1078 0.929 . S
C1082 C1084 1.378 . S
C1082 C1086 1.350 . S
C1083 C1086 1.463 . S
C1083 C1088 1.350 . S
C1083 N1091 1.427 . S
C1084 H1075 0.930 . S
C1084 C1082 1.378 . S
C1084 C1085 1.367 . S
C1085 C1084 1.367 . S
C1085 C1087 1.433 . S
C1086 C1082 1.350 . S
C1086 C1083 1.463 . S
C1086 N1090 1.427 . S
C1087 H1077 0.929 . S
C1087 C1085 1.433 . S
C1087 N1090 1.384 . S
C1088 H1079 0.929 . S
C1088 C1080 1.378 . S
C1088 C1083 1.350 . S
C1089 H1076 0.929 . S
C1089 C1081 1.433 . S
C1089 N1091 1.384 . S
N1090 C1086 1.427 . S
N1090 C1087 1.384 . S
N1091 C1083 1.427 . S
N1091 C1089 1.384 . S
H1092 C1098 0.930 . S
H1093 C1102 0.930 . S
H1094 C1107 0.929 . S
H1095 C1105 0.929 . S
H1096 C1100 0.929 1_455 S
H1097 C1106 0.964 . S
C1098 H1092 0.930 . S
C1098 C1099 1.367 . S
C1098 C1106 1.353 1_455 S
C1099 C1098 1.367 . S
C1099 C1107 1.433 . S
C1100 H1096 0.929 1_655 S
C1100 C1102 1.378 . S
C1100 C1104 1.350 . S
C1101 C1104 1.463 1_455 S
C1101 C1106 1.340 1_455 S
C1101 N1109 1.427 . S
C1102 H1093 0.930 . S
C1102 C1100 1.378 . S
C1102 C1103 1.367 . S
C1103 C1102 1.367 . S
C1103 C1105 1.433 . S
C1104 C1100 1.350 . S
C1104 C1101 1.463 1_655 S
C1104 N1108 1.427 . S
C1105 H1095 0.929 . S
C1105 C1103 1.433 . S
C1105 N1108 1.384 . S
C1106 H1097 0.964 . S
C1106 C1098 1.353 1_655 S
C1106 C1101 1.340 1_655 S
C1107 H1094 0.929 . S
C1107 C1099 1.433 . S
C1107 N1109 1.384 . S
N1108 C1104 1.427 . S
N1108 C1105 1.384 . S
N1109 C1101 1.427 . S
N1109 C1107 1.384 . S
H1110 C1116 0.930 . S
H1111 C1120 0.930 . S
H1112 C1125 0.929 . S
H1113 C1123 0.929 . S
H1114 C1118 0.929 1_455 S
H1115 C1124 0.929 1_655 S
C1116 H1110 0.930 . S
C1116 C1117 1.367 . S
C1116 C1124 1.378 . S
C1117 C1116 1.367 . S
C1117 C1125 1.433 . S
C1118 H1114 0.929 1_655 S
C1118 C1120 1.378 . S
C1118 C1122 1.350 . S
C1119 C1122 1.463 1_455 S
C1119 C1124 1.350 . S
C1119 N1127 1.427 . S
C1120 H1111 0.930 . S
C1120 C1118 1.378 . S
C1120 C1121 1.367 . S
C1121 C1120 1.367 . S
C1121 C1123 1.433 . S
C1122 C1118 1.350 . S
C1122 C1119 1.463 1_655 S
C1122 N1126 1.427 . S
C1123 H1113 0.929 . S
C1123 C1121 1.433 . S
C1123 N1126 1.384 . S
C1124 H1115 0.929 1_455 S
C1124 C1116 1.378 . S
C1124 C1119 1.350 . S
C1125 H1112 0.929 . S
C1125 C1117 1.433 . S
C1125 N1127 1.384 . S
N1126 C1122 1.427 . S
N1126 C1123 1.384 . S
N1127 C1119 1.427 . S
N1127 C1125 1.384 . S
H1128 C1134 0.930 . S
H1129 C1138 0.930 . S
H1130 C1143 0.929 . S
H1131 C1141 0.929 . S
H1132 C1136 0.929 . S
H1133 C1142 0.929 . S
C1134 H1128 0.930 . S
C1134 C1135 1.367 . S
C1134 C1142 1.378 . S
C1135 C1134 1.367 . S
C1135 C1143 1.433 . S
C1136 H1132 0.929 . S
C1136 C1138 1.378 . S
C1136 C1140 1.350 . S
C1137 C1140 1.463 . S
C1137 C1142 1.350 . S
C1137 N1145 1.427 . S
C1138 H1129 0.930 . S
C1138 C1136 1.378 . S
C1138 C1139 1.367 . S
C1139 C1138 1.367 . S
C1139 C1141 1.433 . S
C1140 C1136 1.350 . S
C1140 C1137 1.463 . S
C1140 N1144 1.427 . S
C1141 H1131 0.929 . S
C1141 C1139 1.433 . S
C1141 N1144 1.384 . S
C1142 H1133 0.929 . S
C1142 C1134 1.378 . S
C1142 C1137 1.350 . S
C1143 H1130 0.929 . S
C1143 C1135 1.433 . S
C1143 N1145 1.384 . S
N1144 C1140 1.427 . S
N1144 C1141 1.384 . S
N1145 C1137 1.427 . S
N1145 C1143 1.384 . S
H1146 C1152 0.930 . S
H1147 C1156 0.930 . S
H1148 C1161 0.929 . S
H1149 C1159 0.929 . S
H1150 C1154 0.929 . S
H1151 C1160 0.929 . S
C1152 H1146 0.930 . S
C1152 C1153 1.367 . S
C1152 C1160 1.378 . S
C1153 C1152 1.367 . S
C1153 C1161 1.433 . S
C1154 H1150 0.929 . S
C1154 C1156 1.378 . S
C1154 C1158 1.350 . S
C1155 C1158 1.463 . S
C1155 C1160 1.350 . S
C1155 N1163 1.427 . S
C1156 H1147 0.930 . S
C1156 C1154 1.378 . S
C1156 C1157 1.367 . S
C1157 C1156 1.367 . S
C1157 C1159 1.433 . S
C1158 C1154 1.350 . S
C1158 C1155 1.463 . S
C1158 N1162 1.427 . S
C1159 H1149 0.929 . S
C1159 C1157 1.433 . S
C1159 N1162 1.384 . S
C1160 H1151 0.929 . S
C1160 C1152 1.378 . S
C1160 C1155 1.350 . S
C1161 H1148 0.929 . S
C1161 C1153 1.433 . S
C1161 N1163 1.384 . S
N1162 C1158 1.427 . S
N1162 C1159 1.384 . S
N1163 C1155 1.427 . S
N1163 C1161 1.384 . S
H1164 C1170 0.930 . S
H1165 C1174 0.930 . S
H1166 C1179 0.929 . S
H1167 C1177 0.929 . S
H1168 C1172 0.929 . S
H1169 C1178 0.905 1_545 S
C1170 H1164 0.930 . S
C1170 C1171 1.367 . S
C1170 C1178 1.393 . S
C1171 C1170 1.367 . S
C1171 C1179 1.433 . S
C1172 H1168 0.929 . S
C1172 C1174 1.378 1_565 S
C1172 C1176 1.350 1_565 S
C1173 C1176 1.463 1_565 S
C1173 C1178 1.359 . S
C1173 N1181 1.427 . S
C1174 H1165 0.930 . S
C1174 C1172 1.378 1_545 S
C1174 C1175 1.367 . S
C1175 C1174 1.367 . S
C1175 C1177 1.433 . S
C1176 C1172 1.350 1_545 S
C1176 C1173 1.463 1_545 S
C1176 N1180 1.427 . S
C1177 H1167 0.929 . S
C1177 C1175 1.433 . S
C1177 N1180 1.384 . S
C1178 H1169 0.905 1_565 S
C1178 C1170 1.393 . S
C1178 C1173 1.359 . S
C1179 H1166 0.929 . S
C1179 C1171 1.433 . S
C1179 N1181 1.384 . S
N1180 C1176 1.427 . S
N1180 C1177 1.384 . S
N1181 C1173 1.427 . S
N1181 C1179 1.384 . S
H1182 C1188 0.930 . S
H1183 C1192 0.930 . S
H1184 C1197 0.929 . S
H1185 C1195 0.929 . S
H1186 C1190 0.929 . S
H1187 C1196 0.929 . S
C1188 H1182 0.930 . S
C1188 C1189 1.367 1_554 S
C1188 C1196 1.378 . S
C1189 C1188 1.367 1_556 S
C1189 C1197 1.433 . S
C1190 H1186 0.929 . S
C1190 C1192 1.378 . S
C1190 C1194 1.350 . S
C1191 C1194 1.463 . S
C1191 C1196 1.350 1_556 S
C1191 N1199 1.427 . S
C1192 H1183 0.930 . S
C1192 C1190 1.378 . S
C1192 C1193 1.367 . S
C1193 C1192 1.367 . S
C1193 C1195 1.433 1_556 S
C1194 C1190 1.350 . S
C1194 C1191 1.463 . S
C1194 N1198 1.427 1_556 S
C1195 H1185 0.929 . S
C1195 C1193 1.433 1_554 S
C1195 N1198 1.384 . S
C1196 H1187 0.929 . S
C1196 C1188 1.378 . S
C1196 C1191 1.350 1_554 S
C1197 H1184 0.929 . S
C1197 C1189 1.433 . S
C1197 N1199 1.384 . S
N1198 C1194 1.427 1_554 S
N1198 C1195 1.384 . S
N1199 C1191 1.427 . S
N1199 C1197 1.384 . S
C343 C242 0.613 . S
C347 C12 0.606 . S
C361 C26 0.657 . S
C365 C228 0.697 . S
C379 C40 0.658 . S
C383 C270 0.679 . S
C397 C54 0.736 . S
C401 C256 0.725 . S
C415 C68 0.585 . S
C419 C306 0.622 . S
C433 C82 0.625 . S
C437 C320 0.645 . S
C451 C292 0.626 . S
C455 C96 0.611 . S
C469 C166 0.715 . S
C473 C110 0.684 . S
C487 C116 0.661 . S
C491 C46 0.687 . S
C505 C18 0.726 . S
C509 C130 0.728 . S
C523 C144 0.870 . S
C527 C4 0.848 . S
C541 C158 0.751 . S
C545 C200 0.747 . S
C559 C74 0.805 . S
C563 C180 0.796 . S
C577 C60 0.742 . S
C581 C194 0.714 . S
C595 C208 0.724 . S
C599 C102 0.755 . S
C613 C222 0.649 . S
C617 C88 0.677 . S
C631 C138 0.768 . S
C635 C236 0.758 . S
C649 C152 0.691 . S
C653 C250 0.692 . S
C667 C124 0.705 . S
C671 C264 0.710 . S
C685 C278 0.649 . S
C689 C334 0.640 . S
C703 C214 0.869 . S
C707 C284 0.884 . S
C721 C298 0.797 . S
C725 C186 0.825 . S
C739 C172 0.690 . S
C743 C312 0.687 . S
C757 C326 0.777 . S
C761 C32 0.820 . S
C775 C11 1.539 . S
C779 C25 1.533 . S
C793 C53 1.492 . S
C797 C39 1.498 . S
C811 C67 1.466 . S
C815 C95 1.450 . S
C829 C81 1.711 . S
C833 C109 1.689 . S
C847 C313 1.427 . S
C851 C117 1.422 . S
C865 C131 1.590 . S
C869 C159 1.592 . S
C883 C285 1.530 . S
C887 C145 1.524 . S
C901 C193 1.616 . S
C905 C179 1.605 . S
C919 C207 1.631 . S
C923 C221 1.658 . S
C937 C263 1.685 . S
C941 C235 1.678 . S
C955 C249 1.419 . S
C959 C277 1.439 . S
C973 C327 1.352 . S
C977 C299 1.375 . S
C991 C33 1.215 . S
C995 C5 1.190 . S
C1009 C19 1.283 . S
C1013 C47 1.308 . S
C1027 C271 1.222 . S
C1031 C61 1.191 . S
C1045 C75 1.267 . S
C1049 C257 1.262 . S
C1063 C89 1.283 . S
C1067 C243 1.272 . S
C1081 C229 1.350 . S
C1085 C103 1.322 . S
C1099 C123 1.341 . S
C1103 C333 1.336 . S
C1117 C137 1.379 . S
C1121 C151 1.375 . S
C1135 C291 1.445 . S
C1139 C165 1.448 . S
C1153 C173 1.346 . S
C1157 C201 1.322 . S
C1171 C187 1.238 . S
C1175 C215 1.221 . S
C1189 C319 1.415 . S
C1193 C305 1.413 . S
