# Generated by pormake.
# Topology pcl, (4)-cn, num edge types: 1
# Building blocks:
#     Node 0, Type 0, BuildingBlock: KUFVIS_clean_sbu_0, # of connection points: 4
#     Node 1, Type 0, BuildingBlock: KUFVIS_clean_sbu_0, # of connection points: 4
#     Node 2, Type 0, BuildingBlock: KUFVIS_clean_sbu_0, # of connection points: 4
#     Node 3, Type 0, BuildingBlock: KUFVIS_clean_sbu_0, # of connection points: 4
#     Node 4, Type 0, BuildingBlock: KUFVIS_clean_sbu_0, # of connection points: 4
#     Node 5, Type 0, BuildingBlock: KUFVIS_clean_sbu_0, # of connection points: 4
#     Node 6, Type 0, BuildingBlock: KUFVIS_clean_sbu_0, # of connection points: 4
#     Node 7, Type 0, BuildingBlock: KUFVIS_clean_sbu_0, # of connection points: 4
#     Node 8, Type 0, BuildingBlock: KUFVIS_clean_sbu_0, # of connection points: 4
#     Node 9, Type 0, BuildingBlock: KUFVIS_clean_sbu_0, # of connection points: 4
#     Node 10, Type 0, BuildingBlock: KUFVIS_clean_sbu_0, # of connection points: 4
#     Node 11, Type 0, BuildingBlock: KUFVIS_clean_sbu_0, # of connection points: 4
#     Node 12, Type 0, BuildingBlock: KUFVIS_clean_sbu_0, # of connection points: 4
#     Node 13, Type 0, BuildingBlock: KUFVIS_clean_sbu_0, # of connection points: 4
#     Node 14, Type 0, BuildingBlock: KUFVIS_clean_sbu_0, # of connection points: 4
#     Node 15, Type 0, BuildingBlock: KUFVIS_clean_sbu_0, # of connection points: 4
#     Edge 16, Type (0, 0), BuildingBlock: XUDNAN_clean_linker_2, # of connection points: 2
#     Edge 17, Type (0, 0), BuildingBlock: XUDNAN_clean_linker_2, # of connection points: 2
#     Edge 18, Type (0, 0), BuildingBlock: XUDNAN_clean_linker_2, # of connection points: 2
#     Edge 19, Type (0, 0), BuildingBlock: XUDNAN_clean_linker_2, # of connection points: 2
#     Edge 20, Type (0, 0), BuildingBlock: XUDNAN_clean_linker_2, # of connection points: 2
#     Edge 21, Type (0, 0), BuildingBlock: XUDNAN_clean_linker_2, # of connection points: 2
#     Edge 22, Type (0, 0), BuildingBlock: XUDNAN_clean_linker_2, # of connection points: 2
#     Edge 23, Type (0, 0), BuildingBlock: XUDNAN_clean_linker_2, # of connection points: 2
#     Edge 24, Type (0, 0), BuildingBlock: XUDNAN_clean_linker_2, # of connection points: 2
#     Edge 25, Type (0, 0), BuildingBlock: XUDNAN_clean_linker_2, # of connection points: 2
#     Edge 26, Type (0, 0), BuildingBlock: XUDNAN_clean_linker_2, # of connection points: 2
#     Edge 27, Type (0, 0), BuildingBlock: XUDNAN_clean_linker_2, # of connection points: 2
#     Edge 28, Type (0, 0), BuildingBlock: XUDNAN_clean_linker_2, # of connection points: 2
#     Edge 29, Type (0, 0), BuildingBlock: XUDNAN_clean_linker_2, # of connection points: 2
#     Edge 30, Type (0, 0), BuildingBlock: XUDNAN_clean_linker_2, # of connection points: 2
#     Edge 31, Type (0, 0), BuildingBlock: XUDNAN_clean_linker_2, # of connection points: 2
#     Edge 32, Type (0, 0), BuildingBlock: XUDNAN_clean_linker_2, # of connection points: 2
#     Edge 33, Type (0, 0), BuildingBlock: XUDNAN_clean_linker_2, # of connection points: 2
#     Edge 34, Type (0, 0), BuildingBlock: XUDNAN_clean_linker_2, # of connection points: 2
#     Edge 35, Type (0, 0), BuildingBlock: XUDNAN_clean_linker_2, # of connection points: 2
#     Edge 36, Type (0, 0), BuildingBlock: XUDNAN_clean_linker_2, # of connection points: 2
#     Edge 37, Type (0, 0), BuildingBlock: XUDNAN_clean_linker_2, # of connection points: 2
#     Edge 38, Type (0, 0), BuildingBlock: XUDNAN_clean_linker_2, # of connection points: 2
#     Edge 39, Type (0, 0), BuildingBlock: XUDNAN_clean_linker_2, # of connection points: 2
#     Edge 40, Type (0, 0), BuildingBlock: XUDNAN_clean_linker_2, # of connection points: 2
#     Edge 41, Type (0, 0), BuildingBlock: XUDNAN_clean_linker_2, # of connection points: 2
#     Edge 42, Type (0, 0), BuildingBlock: XUDNAN_clean_linker_2, # of connection points: 2
#     Edge 43, Type (0, 0), BuildingBlock: XUDNAN_clean_linker_2, # of connection points: 2
#     Edge 44, Type (0, 0), BuildingBlock: XUDNAN_clean_linker_2, # of connection points: 2
#     Edge 45, Type (0, 0), BuildingBlock: XUDNAN_clean_linker_2, # of connection points: 2
#     Edge 46, Type (0, 0), BuildingBlock: XUDNAN_clean_linker_2, # of connection points: 2
#     Edge 47, Type (0, 0), BuildingBlock: XUDNAN_clean_linker_2, # of connection points: 2
# Relax obj value: 0.079
# Max RMSD: 0.060
# Mean RMSD: 0.059
data_MOF--net-pcl--node1-KUFVIS_clean_sbu_0--edge1-XUDNAN_clean_linker_2
_symmetry_space_group_name_H-M    P1
_symmetry_Int_Tables_number       1
_symmetry_cell_setting            triclinic
loop_
_symmetry_equiv_pos_as_xyz
'x, y, z'
_cell_length_a     52.052305
_cell_length_b     42.164659
_cell_length_c     41.808217
_cell_angle_alpha  90.005227
_cell_angle_beta   90.098149
_cell_angle_gamma 89.981618
loop_
_atom_site_label
_atom_site_type_symbol
_atom_site_fract_x
_atom_site_fract_y
_atom_site_fract_z
_atom_type_partial_charge
Mn0 Mn 0.15859 0.32676 0.08572 0.0
Mn1 Mn 0.21651 0.35511 0.10818 0.0
C2 C 0.17532 0.31127 0.13505 0.0
C3 C 0.11351 0.32872 0.08239 0.0
C4 C 0.21009 0.30237 0.05962 0.0
O5 O 0.16234 0.36581 0.05774 0.0
O6 O 0.20112 0.38268 0.0743 0.0
C7 C 0.20187 0.41696 0.13653 0.0
N8 N 0.21432 0.38864 0.13874 0.0
C9 C 0.23705 0.40548 0.18594 0.0
C10 C 0.2245 0.43489 0.18418 0.0
C11 C 0.20661 0.4405 0.15959 0.0
C12 C 0.23112 0.38276 0.1627 0.0
H13 H 0.18871 0.42167 0.1171 0.0
C14 C 0.18081 0.38564 0.05718 0.0
O15 O 0.12724 0.31299 0.06198 0.0
O16 O 0.12597 0.34406 0.10444 0.0
N17 N 0.23407 0.33213 0.14093 0.0
C18 C 0.24243 0.30153 0.14083 0.0
C19 C 0.25906 0.29114 0.16518 0.0
C20 C 0.2674 0.31255 0.18881 0.0
C21 C 0.25859 0.34399 0.18827 0.0
C22 C 0.24152 0.35269 0.16394 0.0
H23 H 0.23669 0.28535 0.12209 0.0
O24 O 0.15947 0.29369 0.11887 0.0
O25 O 0.1823 0.33776 0.121 0.0
O26 O 0.18564 0.30225 0.05969 0.0
O27 O 0.22315 0.32113 0.07699 0.0
C28 C 0.26598 0.36703 0.21093 0.0
C29 C 0.25503 0.39769 0.20994 0.0
H30 H 0.22828 0.4532 0.20174 0.0
H31 H 0.19682 0.4631 0.15812 0.0
H32 H 0.26581 0.26687 0.16539 0.0
H33 H 0.2805 0.30456 0.20728 0.0
H34 H 0.27942 0.36114 0.22983 0.0
H35 H 0.26024 0.41489 0.22806 0.0
Mn36 Mn 0.85992 0.6972 0.58245 0.0
Mn37 Mn 0.80187 0.67004 0.60525 0.0
C38 C 0.84254 0.71549 0.6302 0.0
C39 C 0.90487 0.69424 0.58098 0.0
C40 C 0.80891 0.71953 0.55335 0.0
O41 O 0.85659 0.65655 0.55705 0.0
O42 O 0.81777 0.64008 0.57386 0.0
C43 C 0.81559 0.61004 0.63805 0.0
N44 N 0.80365 0.63878 0.63824 0.0
C45 C 0.78129 0.62613 0.68694 0.0
C46 C 0.79324 0.59631 0.6872 0.0
C47 C 0.8107 0.58839 0.66285 0.0
C48 C 0.78722 0.64686 0.6619 0.0
H49 H 0.82846 0.60352 0.61892 0.0
C50 C 0.83843 0.63631 0.55763 0.0
O51 O 0.89189 0.70911 0.5591 0.0
O52 O 0.89172 0.68064 0.60347 0.0
N53 N 0.78427 0.69554 0.63597 0.0
C54 C 0.77627 0.7262 0.63356 0.0
C55 C 0.76034 0.73889 0.65744 0.0
C56 C 0.7524 0.71973 0.6831 0.0
C57 C 0.76086 0.6882 0.68497 0.0
C58 C 0.7772 0.67713 0.6609 0.0
H59 H 0.78183 0.74071 0.61344 0.0
O60 O 0.85854 0.73229 0.61346 0.0
O61 O 0.8358 0.68829 0.61745 0.0
O62 O 0.83336 0.72003 0.55408 0.0
O63 O 0.79572 0.7017 0.57151 0.0
C64 C 0.75373 0.66728 0.70972 0.0
C65 C 0.76388 0.63621 0.71065 0.0
H66 H 0.7894 0.57946 0.70616 0.0
H67 H 0.82009 0.56548 0.66296 0.0
H68 H 0.75386 0.76323 0.65581 0.0
H69 H 0.73984 0.72949 0.70125 0.0
H70 H 0.74085 0.67502 0.72848 0.0
H71 H 0.75869 0.62058 0.73015 0.0
Mn72 Mn 0.1748 0.66326 0.94016 0.0
Mn73 Mn 0.22869 0.62914 0.91198 0.0
C74 C 0.1919 0.68208 0.89236 0.0
C75 C 0.12975 0.66501 0.94277 0.0
C76 C 0.22818 0.67511 0.96817 0.0
O77 O 0.17557 0.62097 0.96341 0.0
O78 O 0.21073 0.59903 0.9413 0.0
C79 C 0.20861 0.57504 0.8743 0.0
N80 N 0.22329 0.60169 0.87629 0.0
C81 C 0.24365 0.5903 0.82595 0.0
C82 C 0.22881 0.56265 0.82336 0.0
C83 C 0.211 0.5552 0.84746 0.0
C84 C 0.24012 0.60939 0.85295 0.0
H85 H 0.19548 0.56878 0.89326 0.0
C86 C 0.19106 0.59785 0.95966 0.0
O87 O 0.14391 0.6774 0.96514 0.0
O88 O 0.14175 0.65133 0.91944 0.0
N89 N 0.24808 0.65472 0.88307 0.0
C90 C 0.25898 0.68366 0.88798 0.0
C91 C 0.27573 0.69607 0.86483 0.0
C92 C 0.2815 0.67826 0.83732 0.0
C93 C 0.27005 0.64846 0.8329 0.0
C94 C 0.25302 0.63774 0.85637 0.0
H95 H 0.2551 0.69696 0.90952 0.0
O96 O 0.17804 0.69968 0.91108 0.0
O97 O 0.19668 0.65341 0.90312 0.0
O98 O 0.2042 0.68128 0.96828 0.0
O99 O 0.23836 0.65596 0.94842 0.0
C100 C 0.27486 0.62894 0.80619 0.0
C101 C 0.26168 0.59983 0.80274 0.0
H102 H 0.23073 0.54717 0.80283 0.0
H103 H 0.19942 0.53397 0.84558 0.0
H104 H 0.2845 0.71906 0.86842 0.0
H105 H 0.2947 0.68772 0.81974 0.0
H106 H 0.28821 0.63638 0.78782 0.0
H107 H 0.26508 0.58538 0.78174 0.0
Mn108 Mn 0.85564 0.3636 0.43184 0.0
Mn109 Mn 0.80133 0.40017 0.40668 0.0
C110 C 0.84174 0.35607 0.37947 0.0
C111 C 0.90039 0.36324 0.43887 0.0
C112 C 0.80184 0.345 0.45375 0.0
O113 O 0.85117 0.40027 0.46344 0.0
O114 O 0.81714 0.42566 0.44151 0.0
C115 C 0.81985 0.46089 0.3797 0.0
N116 N 0.80677 0.43314 0.37613 0.0
C117 C 0.79336 0.44755 0.32295 0.0
C118 C 0.80675 0.47625 0.32602 0.0
C119 C 0.82005 0.48293 0.35451 0.0
C120 C 0.79351 0.4267 0.34903 0.0
H121 H 0.8301 0.46612 0.40156 0.0
C122 C 0.83552 0.42369 0.4619 0.0
O123 O 0.88542 0.34578 0.45633 0.0
O124 O 0.88933 0.38139 0.41793 0.0
N125 N 0.78486 0.37783 0.37254 0.0
C126 C 0.77592 0.34748 0.37197 0.0
C127 C 0.76379 0.33602 0.34426 0.0
C128 C 0.76097 0.35587 0.31749 0.0
C129 C 0.77045 0.38698 0.31861 0.0
C130 C 0.78222 0.39715 0.34694 0.0
H131 H 0.77817 0.33212 0.39245 0.0
O132 O 0.85604 0.33499 0.39354 0.0
O133 O 0.83486 0.38013 0.39713 0.0
O134 O 0.82576 0.33857 0.45271 0.0
O135 O 0.79181 0.36761 0.43793 0.0
C136 C 0.76941 0.40794 0.29238 0.0
C137 C 0.78078 0.43824 0.29458 0.0
H138 H 0.80727 0.49311 0.30649 0.0
H139 H 0.8305 0.50498 0.35701 0.0
H140 H 0.7567 0.31191 0.3435 0.0
H141 H 0.75182 0.34684 0.29606 0.0
H142 H 0.76042 0.40074 0.27016 0.0
H143 H 0.78039 0.45384 0.274 0.0
Mn144 Mn 0.8856 0.66097 0.90421 0.0
Mn145 Mn 0.91501 0.61538 0.84875 0.0
C146 C 0.88966 0.67878 0.85175 0.0
C147 C 0.84884 0.67829 0.93172 0.0
C148 C 0.94396 0.65224 0.89973 0.0
O149 O 0.88509 0.61702 0.92501 0.0
O150 O 0.90305 0.58875 0.88502 0.0
C151 C 0.87228 0.57464 0.82647 0.0
N152 N 0.89128 0.59586 0.81999 0.0
C153 C 0.88822 0.58553 0.76353 0.0
C154 C 0.86871 0.56339 0.76957 0.0
C155 C 0.86045 0.55828 0.80115 0.0
C156 C 0.89869 0.60183 0.78962 0.0
H157 H 0.8665 0.5699 0.8508 0.0
C158 C 0.89247 0.5908 0.91262 0.0
O159 O 0.87175 0.68177 0.94353 0.0
O160 O 0.84719 0.66349 0.90458 0.0
N161 N 0.92724 0.63789 0.81213 0.0
C162 C 0.94543 0.66104 0.81042 0.0
C163 C 0.95409 0.67124 0.78033 0.0
C164 C 0.94456 0.65681 0.75242 0.0
C165 C 0.92608 0.63273 0.75485 0.0
C166 C 0.91747 0.62446 0.78542 0.0
H167 H 0.95333 0.6715 0.83188 0.0
O168 O 0.88667 0.69857 0.87522 0.0
O169 O 0.89027 0.64891 0.8595 0.0
O170 O 0.92445 0.66487 0.91306 0.0
O171 O 0.94211 0.63355 0.87594 0.0
C172 C 0.9162 0.6162 0.72824 0.0
C173 C 0.89753 0.59229 0.73262 0.0
H174 H 0.85979 0.55041 0.75015 0.0
H175 H 0.84536 0.54131 0.80601 0.0
H176 H 0.96844 0.68973 0.77866 0.0
H177 H 0.95168 0.66427 0.72928 0.0
H178 H 0.92275 0.62174 0.7043 0.0
H179 H 0.88991 0.57993 0.71197 0.0
Mn180 Mn 0.14572 0.36277 0.41557 0.0
Mn181 Mn 0.11883 0.4137 0.36276 0.0
C182 C 0.14147 0.34832 0.36192 0.0
C183 C 0.18184 0.34299 0.443 0.0
C184 C 0.08791 0.37518 0.41065 0.0
O185 O 0.14681 0.40513 0.43961 0.0
O186 O 0.13214 0.4372 0.40047 0.0
C187 C 0.16393 0.45154 0.34282 0.0
N188 N 0.14342 0.43301 0.33517 0.0
C189 C 0.14619 0.44766 0.2797 0.0
C190 C 0.16726 0.46714 0.28696 0.0
C191 C 0.17641 0.46868 0.31858 0.0
C192 C 0.13518 0.43026 0.30463 0.0
H193 H 0.17046 0.45347 0.36726 0.0
C194 C 0.14146 0.43259 0.42846 0.0
O195 O 0.1587 0.339 0.45381 0.0
O196 O 0.18405 0.35927 0.41682 0.0
N197 N 0.10521 0.39471 0.32486 0.0
C198 C 0.08573 0.37337 0.32177 0.0
C199 C 0.07591 0.36661 0.2912 0.0
C200 C 0.08557 0.38273 0.26437 0.0
C201 C 0.10535 0.40498 0.26828 0.0
C202 C 0.1151 0.40968 0.29911 0.0
H203 H 0.07766 0.36178 0.34249 0.0
O204 O 0.14421 0.32714 0.38417 0.0
O205 O 0.14181 0.37772 0.37145 0.0
O206 O 0.10659 0.35973 0.4229 0.0
O207 O 0.09098 0.39598 0.38891 0.0
C208 C 0.1155 0.42308 0.24293 0.0
C209 C 0.13581 0.44458 0.24868 0.0
H210 H 0.17666 0.48079 0.26842 0.0
H211 H 0.19271 0.48355 0.32436 0.0
H212 H 0.06053 0.34955 0.28842 0.0
H213 H 0.07754 0.378 0.24092 0.0
H214 H 0.10809 0.42035 0.21887 0.0
H215 H 0.14377 0.45794 0.22891 0.0
Mn216 Mn 0.86813 0.34842 0.0919 0.0
Mn217 Mn 0.89501 0.40809 0.13468 0.0
C218 C 0.86446 0.34892 0.14734 0.0
C219 C 0.8332 0.32699 0.06332 0.0
C220 C 0.92603 0.3553 0.10372 0.0
O221 O 0.87387 0.38318 0.0586 0.0
O222 O 0.88819 0.42284 0.09028 0.0
C223 C 0.85248 0.45473 0.13622 0.0
N224 N 0.86992 0.43633 0.15194 0.0
C225 C 0.85801 0.45882 0.20272 0.0
C226 C 0.83995 0.47806 0.18708 0.0
C227 C 0.83712 0.47591 0.15371 0.0
C228 C 0.87283 0.43823 0.18403 0.0
H229 H 0.85037 0.45327 0.11056 0.0
C230 C 0.88094 0.41192 0.06309 0.0
O231 O 0.85659 0.31745 0.05848 0.0
O232 O 0.83018 0.34943 0.08422 0.0
N233 N 0.90223 0.39708 0.17816 0.0
C234 C 0.91828 0.3743 0.1898 0.0
C235 C 0.92192 0.37164 0.22299 0.0
C236 C 0.90928 0.39264 0.24378 0.0
C237 C 0.89291 0.41594 0.23121 0.0
C238 C 0.88989 0.41732 0.19795 0.0
H239 H 0.92813 0.35823 0.17388 0.0
O240 O 0.86217 0.32253 0.13158 0.0
O241 O 0.86933 0.37402 0.13027 0.0
O242 O 0.90708 0.33927 0.09294 0.0
O243 O 0.92327 0.38127 0.11892 0.0
C244 C 0.87893 0.4373 0.25039 0.0
C245 C 0.86144 0.45868 0.23618 0.0
H246 H 0.82798 0.49432 0.20048 0.0
H247 H 0.82317 0.49061 0.14149 0.0
H248 H 0.93447 0.35347 0.23252 0.0
H249 H 0.91203 0.39039 0.26937 0.0
H250 H 0.88102 0.43696 0.27617 0.0
H251 H 0.85031 0.47439 0.25126 0.0
Mn252 Mn 0.14883 0.67352 0.61044 0.0
Mn253 Mn 0.12087 0.61419 0.65218 0.0
C254 C 0.14527 0.67761 0.66557 0.0
C255 C 0.18446 0.6973 0.58587 0.0
C256 C 0.09056 0.66294 0.61457 0.0
O257 O 0.14927 0.63691 0.57901 0.0
O258 O 0.13158 0.59847 0.6091 0.0
C259 C 0.16473 0.57015 0.65987 0.0
N260 N 0.14569 0.58801 0.67302 0.0
C261 C 0.15085 0.56238 0.72403 0.0
C262 C 0.17063 0.5438 0.71112 0.0
C263 C 0.17779 0.54797 0.67899 0.0
C264 C 0.1392 0.58489 0.70415 0.0
H265 H 0.16961 0.57246 0.63487 0.0
C266 C 0.14185 0.60837 0.58309 0.0
O267 O 0.16113 0.70343 0.57684 0.0
O268 O 0.18717 0.67694 0.60894 0.0
N269 N 0.10963 0.62506 0.69426 0.0
C270 C 0.09112 0.64606 0.70333 0.0
C271 C 0.08303 0.64667 0.73535 0.0
C272 C 0.09338 0.62495 0.75739 0.0
C273 C 0.11214 0.60326 0.74733 0.0
C274 C 0.1202 0.60468 0.71546 0.0
H275 H 0.08254 0.66206 0.68619 0.0
O276 O 0.148 0.70253 0.64766 0.0
O277 O 0.14509 0.65031 0.65075 0.0
O278 O 0.10983 0.67853 0.60426 0.0
O279 O 0.09277 0.63873 0.63256 0.0
C280 C 0.12289 0.57998 0.76751 0.0
C281 C 0.14219 0.55948 0.75585 0.0
H282 H 0.18042 0.52627 0.72563 0.0
H283 H 0.19297 0.53363 0.66881 0.0
H284 H 0.06845 0.66337 0.74289 0.0
H285 H 0.08669 0.62503 0.78192 0.0
H286 H 0.11677 0.57796 0.79217 0.0
H287 H 0.15065 0.54207 0.77174 0.0
Mn288 Mn 0.67576 0.8379 0.07854 0.0
Mn289 Mn 0.73465 0.85366 0.10857 0.0
C290 C 0.68873 0.81341 0.12599 0.0
C291 C 0.63118 0.84563 0.07406 0.0
C292 C 0.72595 0.80954 0.05254 0.0
O293 O 0.68412 0.88013 0.05697 0.0
O294 O 0.7235 0.88704 0.07796 0.0
C295 C 0.72511 0.91356 0.14378 0.0
N296 N 0.7343 0.88332 0.14309 0.0
C297 C 0.75674 0.89075 0.19292 0.0
C298 C 0.74758 0.92202 0.19415 0.0
C299 C 0.73143 0.93332 0.16969 0.0
C300 C 0.74935 0.872 0.16689 0.0
H301 H 0.71342 0.92264 0.12449 0.0
C302 C 0.70468 0.89625 0.06048 0.0
O303 O 0.6444 0.83182 0.05178 0.0
O304 O 0.64402 0.85637 0.09839 0.0
N305 N 0.74817 0.82429 0.139 0.0
C306 C 0.75335 0.79284 0.13541 0.0
C307 C 0.7676 0.77701 0.1591 0.0
C308 C 0.77692 0.79391 0.1857 0.0
C309 C 0.77143 0.82634 0.18872 0.0
C310 C 0.75651 0.84057 0.16485 0.0
H311 H 0.74693 0.7801 0.11445 0.0
O312 O 0.67235 0.80039 0.10658 0.0
O313 O 0.69854 0.84034 0.11629 0.0
O314 O 0.70178 0.81371 0.05032 0.0
O315 O 0.73948 0.82313 0.07377 0.0
C316 C 0.7802 0.84518 0.21438 0.0
C317 C 0.7728 0.87736 0.21652 0.0
H318 H 0.75262 0.93745 0.21391 0.0
H319 H 0.72423 0.95739 0.17052 0.0
H320 H 0.77183 0.75201 0.15656 0.0
H321 H 0.78825 0.78174 0.20366 0.0
H322 H 0.79209 0.83497 0.23301 0.0
H323 H 0.77911 0.89139 0.23677 0.0
Mn324 Mn 0.35824 0.17773 0.57681 0.0
Mn325 Mn 0.29984 0.1471 0.59483 0.0
C326 C 0.34267 0.18267 0.62857 0.0
C327 C 0.4031 0.17479 0.57209 0.0
C328 C 0.307 0.20666 0.55497 0.0
O329 O 0.35254 0.14463 0.54191 0.0
O330 O 0.31468 0.12376 0.55775 0.0
C331 C 0.3126 0.08148 0.61462 0.0
N332 N 0.30155 0.11006 0.62108 0.0
C333 C 0.28536 0.09109 0.67147 0.0
C334 C 0.29655 0.06146 0.66534 0.0
C335 C 0.31023 0.05665 0.63681 0.0
C336 C 0.28796 0.1148 0.64823 0.0
H337 H 0.32317 0.07765 0.59276 0.0
C338 C 0.33454 0.12407 0.5396 0.0
O339 O 0.3895 0.19463 0.55549 0.0
O340 O 0.39057 0.15573 0.59083 0.0
N341 N 0.28409 0.16705 0.63089 0.0
C342 C 0.27754 0.19806 0.63498 0.0
C343 C 0.26535 0.20749 0.66336 0.0
C344 C 0.26004 0.18496 0.68721 0.0
C345 C 0.26709 0.1532 0.68252 0.0
C346 C 0.279 0.14515 0.65363 0.0
H347 H 0.28172 0.21548 0.61679 0.0
O348 O 0.35906 0.20299 0.61723 0.0
O349 O 0.33468 0.16098 0.60855 0.0
O350 O 0.33141 0.20764 0.55677 0.0
O351 O 0.29383 0.18475 0.5679 0.0
C352 C 0.26354 0.12945 0.7058 0.0
C353 C 0.27262 0.0984 0.70025 0.0
H354 H 0.29511 0.04238 0.68259 0.0
H355 H 0.31902 0.03388 0.63198 0.0
H356 H 0.26013 0.23209 0.66691 0.0
H357 H 0.25087 0.1924 0.7092 0.0
H358 H 0.25437 0.13498 0.72836 0.0
H359 H 0.27033 0.08055 0.71866 0.0
Mn360 Mn 0.65913 0.15738 0.93036 0.0
Mn361 Mn 0.7178 0.1354 0.90292 0.0
C362 C 0.67032 0.16709 0.87746 0.0
C363 C 0.61491 0.1504 0.93908 0.0
C364 C 0.70992 0.19154 0.94688 0.0
O365 O 0.66969 0.12267 0.96216 0.0
O366 O 0.70873 0.11064 0.94166 0.0
C367 C 0.70745 0.06898 0.88377 0.0
N368 N 0.71603 0.09859 0.87637 0.0
C369 C 0.72866 0.08178 0.82366 0.0
C370 C 0.72003 0.05108 0.83076 0.0
C371 C 0.70934 0.04468 0.86092 0.0
C372 C 0.72663 0.10494 0.84754 0.0
H373 H 0.69921 0.06396 0.90691 0.0
C374 C 0.69062 0.10668 0.96204 0.0
O375 O 0.62852 0.16992 0.95604 0.0
O376 O 0.62724 0.13351 0.91814 0.0
N377 N 0.72852 0.15724 0.86516 0.0
C378 C 0.73253 0.18885 0.86076 0.0
C379 C 0.74135 0.19976 0.831 0.0
C380 C 0.74605 0.17805 0.80619 0.0
C381 C 0.74175 0.14561 0.8113 0.0
C382 C 0.73308 0.13612 0.84151 0.0
H383 H 0.72884 0.2056 0.87976 0.0
O384 O 0.65369 0.18501 0.89191 0.0
O385 O 0.68113 0.14524 0.89495 0.0
O386 O 0.68563 0.18855 0.94958 0.0
O387 O 0.7234 0.17321 0.92953 0.0
C388 C 0.74477 0.12249 0.78725 0.0
C389 C 0.73828 0.09059 0.79345 0.0
H390 H 0.72114 0.03236 0.81307 0.0
H391 H 0.70251 0.02108 0.86651 0.0
H392 H 0.74444 0.22485 0.82716 0.0
H393 H 0.75258 0.1866 0.78317 0.0
H394 H 0.75143 0.12913 0.76365 0.0
H395 H 0.74005 0.07319 0.77451 0.0
Mn396 Mn 0.35817 0.84619 0.43178 0.0
Mn397 Mn 0.30037 0.87035 0.40499 0.0
C398 C 0.34181 0.82325 0.38554 0.0
C399 C 0.40296 0.84951 0.43427 0.0
C400 C 0.30702 0.82598 0.46151 0.0
O401 O 0.35424 0.88901 0.45294 0.0
O402 O 0.31552 0.90345 0.43384 0.0
C403 C 0.31448 0.92692 0.36677 0.0
N404 N 0.30255 0.89828 0.36913 0.0
C405 C 0.28148 0.90564 0.31839 0.0
C406 C 0.29342 0.93531 0.31547 0.0
C407 C 0.31023 0.94582 0.33959 0.0
C408 C 0.28675 0.88768 0.34576 0.0
H409 H 0.32691 0.93543 0.38562 0.0
C410 C 0.33598 0.90891 0.45008 0.0
O411 O 0.3897 0.83683 0.4572 0.0
O412 O 0.39016 0.86081 0.41017 0.0
N413 N 0.28348 0.8418 0.37637 0.0
C414 C 0.27562 0.81144 0.38154 0.0
C415 C 0.26031 0.79625 0.35847 0.0
C416 C 0.25288 0.81267 0.33068 0.0
C417 C 0.26121 0.84395 0.32595 0.0
C418 C 0.27686 0.85757 0.34945 0.0
H419 H 0.28081 0.79904 0.40322 0.0
O420 O 0.35744 0.80828 0.40451 0.0
O421 O 0.33463 0.85149 0.39533 0.0
O422 O 0.33144 0.82589 0.46138 0.0
O423 O 0.29386 0.84187 0.4415 0.0
C424 C 0.25463 0.86215 0.29887 0.0
C425 C 0.26475 0.89302 0.2951 0.0
H426 H 0.29008 0.95004 0.29464 0.0
H427 H 0.31961 0.96862 0.33743 0.0
H428 H 0.25395 0.77212 0.36229 0.0
H429 H 0.24083 0.80099 0.31311 0.0
H430 H 0.24228 0.85241 0.28045 0.0
H431 H 0.26006 0.90649 0.27382 0.0
Mn432 Mn 0.36999 0.15035 0.9133 0.0
Mn433 Mn 0.39526 0.0988 0.85998 0.0
C434 C 0.36848 0.16138 0.85852 0.0
C435 C 0.33474 0.16918 0.94293 0.0
C436 C 0.42763 0.13964 0.90461 0.0
O437 O 0.37238 0.10858 0.93871 0.0
O438 O 0.38429 0.07541 0.89877 0.0
C439 C 0.34965 0.06007 0.84332 0.0
N440 N 0.36961 0.07882 0.83417 0.0
C441 C 0.35971 0.07072 0.7785 0.0
C442 C 0.33935 0.05082 0.78734 0.0
C443 C 0.33417 0.0457 0.8199 0.0
C444 C 0.37448 0.08437 0.80291 0.0
H445 H 0.34542 0.05648 0.86828 0.0
C446 C 0.37699 0.08079 0.92757 0.0
O447 O 0.35823 0.17519 0.9515 0.0
O448 O 0.3318 0.15123 0.91801 0.0
N449 N 0.40607 0.11892 0.82125 0.0
C450 C 0.42451 0.14143 0.81695 0.0
C451 C 0.43072 0.15124 0.78581 0.0
C452 C 0.41807 0.13762 0.75946 0.0
C453 C 0.39903 0.11468 0.76451 0.0
C454 C 0.39364 0.10588 0.79607 0.0
H455 H 0.43444 0.15175 0.83711 0.0
O456 O 0.36699 0.18427 0.87919 0.0
O457 O 0.37167 0.13335 0.8706 0.0
O458 O 0.40924 0.15584 0.91653 0.0
O459 O 0.42403 0.11748 0.88433 0.0
C460 C 0.38497 0.10048 0.73949 0.0
C461 C 0.36539 0.07842 0.74648 0.0
H462 H 0.32726 0.03988 0.76934 0.0
H463 H 0.31824 0.03078 0.82693 0.0
H464 H 0.44531 0.16913 0.7821 0.0
H465 H 0.42299 0.14515 0.73547 0.0
H466 H 0.38875 0.10677 0.71482 0.0
H467 H 0.35437 0.06812 0.72708 0.0
Mn468 Mn 0.64668 0.8607 0.40043 0.0
Mn469 Mn 0.61767 0.90592 0.34409 0.0
C470 C 0.64234 0.84233 0.34826 0.0
C471 C 0.68331 0.84391 0.42867 0.0
C472 C 0.58849 0.86994 0.39529 0.0
O473 O 0.64715 0.90494 0.42061 0.0
O474 O 0.62984 0.93296 0.37992 0.0
C475 C 0.66081 0.94557 0.3213 0.0
N476 N 0.64169 0.92441 0.31512 0.0
C477 C 0.64522 0.93319 0.25843 0.0
C478 C 0.66487 0.95523 0.26417 0.0
C479 C 0.67296 0.96108 0.29572 0.0
C480 C 0.63444 0.91772 0.2848 0.0
H481 H 0.66644 0.95094 0.34557 0.0
C482 C 0.64017 0.93109 0.40771 0.0
O483 O 0.66034 0.84041 0.44019 0.0
O484 O 0.68507 0.85822 0.40127 0.0
N485 N 0.6052 0.88291 0.30783 0.0
C486 C 0.58653 0.86031 0.30645 0.0
C487 C 0.5779 0.84955 0.2765 0.0
C488 C 0.58793 0.86288 0.24837 0.0
C489 C 0.60682 0.88651 0.25045 0.0
C490 C 0.61538 0.89537 0.28092 0.0
H491 H 0.57827 0.85065 0.32803 0.0
O492 O 0.64558 0.82269 0.37182 0.0
O493 O 0.64198 0.87225 0.35573 0.0
O494 O 0.60786 0.8571 0.40878 0.0
O495 O 0.59044 0.88861 0.37149 0.0
C496 C 0.61709 0.90212 0.22356 0.0
C497 C 0.63592 0.92589 0.2276 0.0
H498 H 0.67401 0.96759 0.24454 0.0
H499 H 0.68816 0.97799 0.30034 0.0
H500 H 0.5632 0.83145 0.27511 0.0
H501 H 0.58084 0.855 0.22533 0.0
H502 H 0.61059 0.89613 0.19968 0.0
H503 H 0.64374 0.93767 0.20675 0.0
Mn504 Mn 0.38703 0.83759 0.10545 0.0
Mn505 Mn 0.40924 0.89955 0.14886 0.0
C506 C 0.39072 0.8332 0.16058 0.0
C507 C 0.35493 0.80713 0.08048 0.0
C508 C 0.44407 0.85669 0.11053 0.0
O509 O 0.38251 0.87454 0.07488 0.0
O510 O 0.39779 0.91413 0.1057 0.0
C511 C 0.3617 0.93744 0.1558 0.0
N512 N 0.38196 0.92197 0.1693 0.0
C513 C 0.37388 0.94611 0.22044 0.0
C514 C 0.35282 0.96219 0.20717 0.0
C515 C 0.34653 0.95754 0.17479 0.0
C516 C 0.38768 0.9255 0.20064 0.0
H517 H 0.35742 0.93487 0.13065 0.0
C518 C 0.38795 0.9037 0.0796 0.0
O519 O 0.37876 0.80603 0.07169 0.0
O520 O 0.34924 0.82699 0.10317 0.0
N521 N 0.42073 0.88964 0.19113 0.0
C522 C 0.4408 0.87107 0.20047 0.0
C523 C 0.44842 0.87107 0.23273 0.0
C524 C 0.43591 0.89098 0.25473 0.0
C525 C 0.41553 0.91021 0.24438 0.0
C526 C 0.40812 0.90818 0.21227 0.0
H527 H 0.45098 0.85655 0.18339 0.0
O528 O 0.39106 0.80837 0.14222 0.0
O529 O 0.38818 0.86054 0.14622 0.0
O530 O 0.42622 0.83928 0.09923 0.0
O531 O 0.43979 0.87942 0.1298 0.0
C532 C 0.40252 0.93166 0.26452 0.0
C533 C 0.38174 0.94966 0.25254 0.0
H534 H 0.34136 0.97814 0.2216 0.0
H535 H 0.33037 0.96997 0.16434 0.0
H536 H 0.46424 0.85628 0.24048 0.0
H537 H 0.4422 0.89143 0.27943 0.0
H538 H 0.40806 0.93412 0.28938 0.0
H539 H 0.37158 0.96564 0.2684 0.0
Mn540 Mn 0.64787 0.17378 0.58902 0.0
Mn541 Mn 0.6267 0.10931 0.62968 0.0
C542 C 0.6509 0.17225 0.64445 0.0
C543 C 0.67867 0.20428 0.56206 0.0
C544 C 0.59097 0.15749 0.59938 0.0
O545 O 0.64672 0.1393 0.55458 0.0
O546 O 0.63511 0.09737 0.58499 0.0
C547 C 0.6736 0.06952 0.6303 0.0
N548 N 0.65436 0.0845 0.64634 0.0
C549 C 0.66815 0.06214 0.69649 0.0
C550 C 0.68809 0.04641 0.68049 0.0
C551 C 0.69088 0.05022 0.64728 0.0
C552 C 0.65148 0.08098 0.67829 0.0
H553 H 0.67568 0.07224 0.60474 0.0
C554 C 0.64201 0.10969 0.55831 0.0
O555 O 0.65425 0.20782 0.55741 0.0
O556 O 0.68565 0.18166 0.58135 0.0
N557 N 0.61825 0.11758 0.67339 0.0
C558 C 0.59995 0.13726 0.68555 0.0
C559 C 0.59582 0.13804 0.71873 0.0
C560 C 0.61031 0.11831 0.73898 0.0
C561 C 0.62898 0.09817 0.72586 0.0
C562 C 0.63234 0.09856 0.69265 0.0
H563 H 0.58869 0.15232 0.67004 0.0
O564 O 0.65016 0.19921 0.6295 0.0
O565 O 0.64926 0.14696 0.62668 0.0
O566 O 0.60855 0.17594 0.58937 0.0
O567 O 0.59576 0.13192 0.61445 0.0
C568 C 0.64489 0.07842 0.74451 0.0
C569 C 0.66452 0.06049 0.72986 0.0
H570 H 0.70154 0.03163 0.69352 0.0
H571 H 0.70627 0.03823 0.63479 0.0
H572 H 0.58149 0.15378 0.72869 0.0
H573 H 0.60719 0.11914 0.76457 0.0
H574 H 0.64262 0.07745 0.77024 0.0
H575 H 0.67706 0.04605 0.74456 0.0
H576 H 0.07921 0.36266 0.11917 0.0
H577 H 0.08316 0.29311 0.04281 0.0
H578 H 0.03579 0.29046 0.04136 0.0
H579 H 0.02448 0.32918 0.16003 0.0
H580 H 1.01074 0.36716 0.16998 0.0
H581 H 0.04501 0.36319 0.16551 0.0
H582 H 0.045 0.40787 0.12297 0.0
H583 H 1.01078 0.41212 0.12747 0.0
H584 H 0.02427 0.40455 0.08853 0.0
H585 H 0.98754 0.29522 0.04845 0.0
H586 H 0.94262 0.30967 0.06123 0.0
H587 H 0.97034 0.3767 0.1322 0.0
C588 C 0.07012 0.34686 0.10215 0.0
C589 C 0.08497 0.32805 0.08113 0.0
C590 C 0.07226 0.3078 0.05914 0.0
C591 C 0.04532 0.30603 0.0582 0.0
C592 C 0.03125 0.32475 0.07933 0.0
C593 C 0.04321 0.34494 0.10076 0.0
C594 C 0.02363 0.36315 0.1203 0.0
C595 C 0.02612 0.35518 0.15607 0.0
C596 C 0.02607 0.39905 0.11445 0.0
C597 C 0.99883 0.35017 0.10643 0.0
C598 C 1.00358 0.32784 0.08302 0.0
C599 C 0.9836 0.3127 0.06675 0.0
C600 C 0.95812 0.32097 0.07426 0.0
C601 C 0.9528 0.34438 0.09765 0.0
C602 C 0.9736 0.35879 0.11408 0.0
H603 H 0.93701 0.66121 0.62118 0.0
H604 H 0.93717 0.72578 0.54034 0.0
H605 H 0.98464 0.72582 0.5407 0.0
H606 H 0.99144 0.69451 0.66218 0.0
H607 H 1.00367 0.65668 0.6753 0.0
H608 H 0.96971 0.66188 0.66882 0.0
H609 H 0.96953 0.61453 0.6294 0.0
H610 H 1.00346 0.60905 0.63581 0.0
H611 H 0.99123 0.61461 0.59584 0.0
H612 H 0.03237 0.71934 0.55044 0.0
H613 H 0.07641 0.70472 0.5671 0.0
H614 H 0.04483 0.64358 0.64081 0.0
C615 C 0.94701 0.67535 0.60353 0.0
C616 C 0.93335 0.69354 0.58074 0.0
C617 C 0.9472 0.71163 0.558 0.0
C618 C 0.97418 0.71187 0.55807 0.0
C619 C 0.98707 0.6938 0.58094 0.0
C620 C 0.97394 0.67572 0.60314 0.0
C621 C 0.99234 0.65797 0.62482 0.0
C622 C 0.9891 0.6684 0.65985 0.0
C623 C 0.98894 0.62191 0.62123 0.0
C624 C 0.01787 0.66888 0.61135 0.0
C625 C 0.01445 0.68968 0.58618 0.0
C626 C 0.03527 0.70301 0.57008 0.0
C627 C 0.06024 0.69462 0.57978 0.0
C628 C 0.0642 0.6729 0.60518 0.0
C629 C 0.04258 0.6601 0.62116 0.0
H630 H 0.9897 0.63472 0.87282 0.0
H631 H 0.95808 0.685 0.95441 0.0
H632 H 1.00221 0.69415 0.97479 0.0
H633 H 0.0401 0.59537 0.91439 0.0
H634 H 0.0626 0.5988 0.88185 0.0
H635 H 0.02866 0.59707 0.8737 0.0
H636 H 0.03147 0.65004 0.84241 0.0
H637 H 0.06545 0.65181 0.85033 0.0
H638 H 0.04503 0.68447 0.86163 0.0
H639 H 0.05074 0.69659 0.98652 0.0
H640 H 0.0983 0.69311 0.98763 0.0
H641 H 0.09671 0.64109 0.8981 0.0
C642 C 0.99187 0.64772 0.895 0.0
C643 C 0.97026 0.65905 0.91204 0.0
C644 C 0.97425 0.67609 0.94086 0.0
C645 C 0.99927 0.68136 0.95265 0.0
C646 C 0.0201 0.66954 0.93529 0.0
C647 C 0.01655 0.65319 0.90699 0.0
C648 C 0.04186 0.64272 0.89272 0.0
C649 C 0.04338 0.60633 0.89056 0.0
C650 C 0.0462 0.65819 0.85984 0.0
C651 C 0.06035 0.65555 0.91746 0.0
C652 C 0.04756 0.67098 0.94189 0.0
C653 C 0.06088 0.68459 0.96745 0.0
C654 C 0.08789 0.68246 0.96792 0.0
C655 C 0.10126 0.66681 0.943 0.0
C656 C 0.08714 0.6532 0.91757 0.0
H657 H 0.04389 0.40148 0.38662 0.0
H658 H 0.0708 0.33474 0.45836 0.0
H659 H 0.02569 0.32509 0.47472 0.0
H660 H 0.99273 0.43539 0.43269 0.0
H661 H 0.97167 0.43934 0.39866 0.0
H662 H 1.00596 0.441 0.39327 0.0
H663 H 1.00336 0.39526 0.35195 0.0
H664 H 0.96906 0.39351 0.35712 0.0
H665 H 0.98826 0.35842 0.3631 0.0
H666 H 0.97672 0.32264 0.48241 0.0
H667 H 0.92929 0.32693 0.48013 0.0
H668 H 0.93582 0.39551 0.40321 0.0
C669 C 0.04052 0.38488 0.40592 0.0
C670 C 0.06108 0.36894 0.42125 0.0
C671 C 0.05547 0.34729 0.44623 0.0
C672 C 0.02989 0.3417 0.4557 0.0
C673 C 1.01015 0.35793 0.43998 0.0
C674 C 0.01529 0.37905 0.41558 0.0
C675 C 0.9909 0.39325 0.40199 0.0
C676 C 0.99029 0.42939 0.40696 0.0
C677 C 0.98771 0.38458 0.36644 0.0
C678 C 0.97105 0.3768 0.42246 0.0
C679 C 0.98242 0.35654 0.44431 0.0
C680 C 0.9677 0.33851 0.46543 0.0
C681 C 0.94076 0.34114 0.46399 0.0
C682 C 0.9288 0.36162 0.44156 0.0
C683 C 0.9443 0.37974 0.42075 0.0
H684 H 0.48867 0.87774 0.13919 0.0
H685 H 0.46066 0.82318 0.05823 0.0
H686 H 0.50524 0.8162 0.03938 0.0
H687 H 0.5397 0.91808 0.09833 0.0
H688 H 0.56181 0.91597 0.1315 0.0
H689 H 0.52771 0.9169 0.13875 0.0
H690 H 0.53108 0.86474 0.17123 0.0
H691 H 0.5652 0.86385 0.16425 0.0
H692 H 0.54562 0.83034 0.15314 0.0
H693 H 0.55272 0.81633 0.02842 0.0
H694 H 0.60002 0.81962 0.02846 0.0
H695 H 0.59766 0.87267 0.11741 0.0
C696 C 0.49188 0.86428 0.1175 0.0
C697 C 0.47103 0.8511 0.10013 0.0
C698 C 0.4762 0.83343 0.07203 0.0
C699 C 0.50149 0.82946 0.06104 0.0
C700 C 0.5215 0.84303 0.07853 0.0
C701 C 0.51704 0.85978 0.10637 0.0
C702 C 0.54206 0.8713 0.12107 0.0
C703 C 0.54286 0.90773 0.12248 0.0
C704 C 0.54623 0.85667 0.15439 0.0
C705 C 0.56129 0.8585 0.09706 0.0
C706 C 0.54897 0.8425 0.07259 0.0
C707 C 0.56257 0.82871 0.04752 0.0
C708 C 0.58948 0.83082 0.0477 0.0
C709 C 0.60264 0.84642 0.07289 0.0
C710 C 0.58822 0.86067 0.09774 0.0
H711 H 0.54712 0.12868 0.62252 0.0
H712 H 0.5729 0.20412 0.5595 0.0
H713 H 0.52791 0.21567 0.54515 0.0
H714 H 0.49545 0.10092 0.57312 0.0
H715 H 0.47406 0.09307 0.60604 0.0
H716 H 0.5083 0.09073 0.61185 0.0
H717 H 0.50537 0.13136 0.65817 0.0
H718 H 0.47109 0.13366 0.65267 0.0
H719 H 0.49026 0.16922 0.65122 0.0
H720 H 0.48036 0.21832 0.53641 0.0
H721 H 0.43315 0.21411 0.53633 0.0
H722 H 0.43763 0.13756 0.60558 0.0
C723 C 0.54335 0.1477 0.60576 0.0
C724 C 0.56371 0.16544 0.59212 0.0
C725 C 0.55778 0.19022 0.5704 0.0
C726 C 0.53224 0.19691 0.56198 0.0
C727 C 0.51273 0.17876 0.57557 0.0
C728 C 0.51792 0.15485 0.5972 0.0
C729 C 0.4933 0.13918 0.60856 0.0
C730 C 0.49275 0.10388 0.59933 0.0
C731 C 0.4898 0.14363 0.6448 0.0
C732 C 0.47347 0.15796 0.5898 0.0
C733 C 0.48517 0.18057 0.57083 0.0
C734 C 0.47099 0.20077 0.55124 0.0
C735 C 0.44414 0.19812 0.55131 0.0
C736 C 0.4316 0.1755 0.57092 0.0
C737 C 0.44659 0.15503 0.59025 0.0
H738 H 0.58045 0.11819 0.90099 0.0
H739 H 0.5848 0.1828 0.98161 0.0
H740 H 0.53749 0.18708 0.98199 0.0
H741 H 0.5297 0.15739 0.86056 0.0
H742 H 0.51433 0.12161 0.84677 0.0
H743 H 0.54844 0.12204 0.85395 0.0
H744 H 0.54394 0.07466 0.89301 0.0
H745 H 0.50983 0.07386 0.88568 0.0
H746 H 0.52179 0.0774 0.92601 0.0
H747 H 0.48938 0.18649 0.97167 0.0
H748 H 0.44461 0.17859 0.95333 0.0
H749 H 0.47195 0.11447 0.87954 0.0
C750 C 0.57145 0.13282 0.91907 0.0
C751 C 0.58641 0.15003 0.94138 0.0
C752 C 0.57381 0.16926 0.96436 0.0
C753 C 0.54691 0.17192 0.96472 0.0
C754 C 0.53275 0.15518 0.94198 0.0
C755 C 0.54459 0.13579 0.91975 0.0
C756 C 0.52502 0.12087 0.89747 0.0
C757 C 0.52966 0.1311 0.86263 0.0
C758 C 0.52515 0.08454 0.90075 0.0
C759 C 0.50039 0.13505 0.91048 0.0
C760 C 0.5052 0.15481 0.93613 0.0
C761 C 0.48539 0.17091 0.9517 0.0
C762 C 0.46 0.16638 0.94102 0.0
C763 C 0.45457 0.14585 0.91502 0.0
C764 C 0.47524 0.13022 0.89958 0.0
H765 H 0.43543 0.87483 0.38956 0.0
H766 H 0.43479 0.8252 0.4805 0.0
H767 H 0.48229 0.82453 0.48067 0.0
H768 H 0.48892 0.83364 0.35567 0.0
H769 H 0.50165 0.86816 0.33583 0.0
H770 H 0.46766 0.86505 0.34313 0.0
H771 H 0.4684 0.91874 0.37326 0.0
H772 H 0.50236 0.92213 0.36593 0.0
H773 H 0.49031 0.92417 0.40626 0.0
H774 H 0.53031 0.82857 0.47012 0.0
H775 H 0.57444 0.83856 0.45052 0.0
H776 H 0.54283 0.88577 0.3669 0.0
C777 C 0.44524 0.86392 0.4096 0.0
C778 C 0.43139 0.85008 0.43503 0.0
C779 C 0.445 0.83601 0.46076 0.0
C780 C 0.47199 0.83546 0.46105 0.0
C781 C 0.48507 0.84913 0.43547 0.0
C782 C 0.47211 0.86321 0.41029 0.0
C783 C 0.49058 0.87629 0.38571 0.0
C784 C 0.48698 0.85979 0.35317 0.0
C785 C 0.48774 0.91248 0.38263 0.0
C786 C 0.51596 0.86737 0.40095 0.0
C787 C 0.51247 0.85165 0.42958 0.0
C788 C 0.53326 0.84095 0.44775 0.0
C789 C 0.55826 0.84667 0.43641 0.0
C790 C 0.56222 0.86307 0.40724 0.0
C791 C 0.54063 0.87335 0.3894 0.0
H792 H 0.19156 0.35237 0.18272 0.0
H793 H 0.15504 0.26144 0.16815 0.0
H794 H 0.14177 0.26108 0.22452 0.0
H795 H 0.21413 0.32393 0.27131 0.0
H796 H 0.2149 0.36533 0.28223 0.0
H797 H 0.22398 0.35301 0.24264 0.0
H798 H 0.19126 0.39389 0.22144 0.0
H799 H 0.17995 0.40283 0.26078 0.0
H800 H 0.1579 0.38832 0.2303 0.0
H801 H 0.12675 0.27528 0.28041 0.0
H802 H 0.11862 0.29734 0.33435 0.0
H803 H 0.17026 0.37533 0.31423 0.0
C804 C 0.183 0.3311 0.19167 0.0
C805 C 0.17505 0.30693 0.17055 0.0
C806 C 0.16155 0.28054 0.18348 0.0
C807 C 0.15388 0.27998 0.21565 0.0
C808 C 0.16128 0.30496 0.23535 0.0
C809 C 0.17708 0.32885 0.22438 0.0
C810 C 0.1828 0.35237 0.25085 0.0
C811 C 0.2106 0.34844 0.26252 0.0
C812 C 0.17757 0.38647 0.24026 0.0
C813 C 0.16443 0.34112 0.27647 0.0
C814 C 0.15299 0.31288 0.26758 0.0
C815 C 0.1359 0.29716 0.28772 0.0
C816 C 0.13122 0.30998 0.31817 0.0
C817 C 0.14321 0.33848 0.32803 0.0
C818 C 0.15998 0.35426 0.30681 0.0
H819 H 0.82896 0.67465 0.67868 0.0
H820 H 0.86096 0.76761 0.66155 0.0
H821 H 0.87644 0.76922 0.71717 0.0
H822 H 0.80977 0.70067 0.76951 0.0
H823 H 0.81176 0.65916 0.7797 0.0
H824 H 0.79954 0.67127 0.74131 0.0
H825 H 0.83273 0.63319 0.71646 0.0
H826 H 0.84719 0.62465 0.75432 0.0
H827 H 0.86625 0.64131 0.72201 0.0
H828 H 0.89515 0.75553 0.77177 0.0
H829 H 0.90807 0.73262 0.82402 0.0
H830 H 0.85916 0.65138 0.80644 0.0
C831 C 0.83677 0.6966 0.6871 0.0
C832 C 0.843 0.72101 0.66545 0.0
C833 C 0.85575 0.74838 0.67743 0.0
C834 C 0.86465 0.74962 0.70914 0.0
C835 C 0.8592 0.72424 0.72929 0.0
C836 C 0.84397 0.69931 0.71932 0.0
C837 C 0.84105 0.67496 0.74567 0.0
C838 C 0.81393 0.67659 0.75995 0.0
C839 C 0.84727 0.64145 0.73395 0.0
C840 C 0.86043 0.68717 0.76966 0.0
C841 C 0.86984 0.71643 0.76051 0.0
C842 C 0.88756 0.73285 0.77932 0.0
C843 C 0.895 0.71955 0.80874 0.0
C844 C 0.88519 0.68986 0.81871 0.0
C845 C 0.86776 0.67349 0.7988 0.0
H846 H 0.20126 0.6439 0.83955 0.0
H847 H 0.17602 0.73798 0.86614 0.0
H848 H 0.15958 0.74608 0.81163 0.0
H849 H 0.22227 0.67713 0.75307 0.0
H850 H 0.21784 0.63738 0.73804 0.0
H851 H 0.22971 0.6438 0.77797 0.0
H852 H 0.19277 0.60706 0.79777 0.0
H853 H 0.18038 0.60418 0.75795 0.0
H854 H 0.16016 0.61885 0.79011 0.0
H855 H 0.13937 0.7397 0.75694 0.0
H856 H 0.127 0.72585 0.70158 0.0
H857 H 0.17245 0.63993 0.70762 0.0
C858 C 0.19453 0.66711 0.83356 0.0
C859 C 0.19053 0.69011 0.85756 0.0
C860 C 0.17939 0.71961 0.84853 0.0
C861 C 0.1699 0.72456 0.81749 0.0
C862 C 0.17318 0.70065 0.79496 0.0
C863 C 0.18688 0.67353 0.80197 0.0
C864 C 0.18876 0.65233 0.77278 0.0
C865 C 0.21627 0.65266 0.75961 0.0
C866 C 0.17989 0.61854 0.7801 0.0
C867 C 0.17087 0.66932 0.74989 0.0
C868 C 0.1626 0.69765 0.76292 0.0
C869 C 0.14613 0.71784 0.74632 0.0
C870 C 0.139 0.70961 0.71503 0.0
C871 C 0.14823 0.68144 0.70058 0.0
C872 C 0.16421 0.66091 0.71843 0.0
H873 H 0.87038 0.30623 0.19752 0.0
H874 H 0.83367 0.39456 0.17085 0.0
H875 H 0.82304 0.40486 0.22737 0.0
H876 H 0.81773 0.28918 0.25894 0.0
H877 H 0.83953 0.26835 0.28509 0.0
H878 H 0.84436 0.26733 0.2424 0.0
H879 H 0.89075 0.28856 0.25023 0.0
H880 H 0.88586 0.2897 0.29285 0.0
H881 H 0.89563 0.32503 0.27192 0.0
H882 H 0.83484 0.4137 0.28536 0.0
H883 H 0.8417 0.40898 0.34322 0.0
H884 H 0.85011 0.30788 0.33491 0.0
C885 C 0.86002 0.32762 0.20374 0.0
C886 C 0.85507 0.35138 0.18055 0.0
C887 C 0.83978 0.37775 0.18888 0.0
C888 C 0.83332 0.38354 0.22073 0.0
C889 C 0.8408 0.36146 0.24355 0.0
C890 C 0.85199 0.33293 0.23545 0.0
C891 C 0.85517 0.31218 0.26503 0.0
C892 C 0.83818 0.28249 0.26272 0.0
C893 C 0.88354 0.30335 0.2703 0.0
C894 C 0.84561 0.33461 0.29097 0.0
C895 C 0.83869 0.36338 0.27775 0.0
C896 C 0.83683 0.39057 0.29625 0.0
C897 C 0.83976 0.38766 0.32926 0.0
C898 C 0.84112 0.35767 0.34401 0.0
C899 C 0.84568 0.33074 0.32446 0.0
H900 H 0.67571 0.86665 0.30545 0.0
H901 H 0.61974 0.79184 0.31817 0.0
H902 H 0.63038 0.77061 0.26429 0.0
H903 H 0.67131 0.88287 0.22174 0.0
H904 H 0.70541 0.88676 0.21932 0.0
H905 H 0.68988 0.89435 0.25672 0.0
H906 H 0.72245 0.85282 0.27934 0.0
H907 H 0.73364 0.84146 0.24029 0.0
H908 H 0.72022 0.8121 0.26626 0.0
H909 H 0.6469 0.75928 0.20751 0.0
H910 H 0.66301 0.763 0.1522 0.0
H911 H 0.70518 0.84739 0.1779 0.0
C912 C 0.6653 0.84623 0.29651 0.0
C913 C 0.64639 0.83135 0.31525 0.0
C914 C 0.63401 0.80376 0.30368 0.0
C915 C 0.64009 0.79147 0.27333 0.0
C916 C 0.65921 0.80648 0.25551 0.0
C917 C 0.67152 0.83332 0.26676 0.0
C918 C 0.69214 0.84413 0.24396 0.0
C919 C 0.68944 0.87921 0.23503 0.0
C920 C 0.71868 0.83723 0.25841 0.0
C921 C 0.68685 0.8225 0.2159 0.0
C922 C 0.66905 0.79952 0.22371 0.0
C923 C 0.66091 0.7772 0.20131 0.0
C924 C 0.6702 0.77961 0.16982 0.0
C925 C 0.68632 0.80521 0.16052 0.0
C926 C 0.69487 0.8264 0.18424 0.0
H927 H 0.37718 0.2093 0.8135 0.0
H928 H 0.33289 0.12417 0.83161 0.0
H929 H 0.31934 0.12266 0.77529 0.0
H930 H 0.32432 0.24061 0.75655 0.0
H931 H 0.34725 0.26114 0.73181 0.0
H932 H 0.35304 0.25699 0.77416 0.0
H933 H 0.39719 0.23037 0.76251 0.0
H934 H 0.39125 0.23546 0.72038 0.0
H935 H 0.39826 0.19668 0.736 0.0
H936 H 0.3277 0.11889 0.71691 0.0
H937 H 0.33561 0.12751 0.6599 0.0
H938 H 0.35509 0.22504 0.67739 0.0
C939 C 0.36445 0.19062 0.80548 0.0
C940 C 0.35785 0.16511 0.82597 0.0
C941 C 0.33986 0.14228 0.81548 0.0
C942 C 0.33175 0.14149 0.78373 0.0
C943 C 0.34049 0.165 0.76328 0.0
C944 C 0.35489 0.1904 0.77387 0.0
C945 C 0.3594 0.21364 0.74651 0.0
C946 C 0.34515 0.24496 0.75263 0.0
C947 C 0.38825 0.21936 0.74107 0.0
C948 C 0.34737 0.19554 0.71869 0.0
C949 C 0.33742 0.16706 0.72921 0.0
C950 C 0.33231 0.14236 0.70825 0.0
C951 C 0.33576 0.14767 0.67567 0.0
C952 C 0.34079 0.17825 0.66371 0.0
C953 C 0.34801 0.20235 0.68569 0.0
H954 H 0.65629 0.21303 0.83275 0.0
H955 H 0.67676 0.11436 0.84185 0.0
H956 H 0.68338 0.11053 0.78381 0.0
H957 H 0.61382 0.18933 0.76819 0.0
H958 H 0.6155 0.22645 0.74693 0.0
H959 H 0.61964 0.22567 0.7897 0.0
H960 H 0.66358 0.25374 0.78405 0.0
H961 H 0.65978 0.25465 0.74117 0.0
H962 H 0.6879 0.23664 0.75869 0.0
H963 H 0.69513 0.12167 0.72603 0.0
H964 H 0.68542 0.13125 0.66904 0.0
H965 H 0.63931 0.21286 0.69469 0.0
C966 C 0.66303 0.19101 0.82242 0.0
C967 C 0.6705 0.16521 0.84208 0.0
C968 C 0.67543 0.13562 0.82759 0.0
C969 C 0.67854 0.13307 0.79457 0.0
C970 C 0.6738 0.15967 0.77597 0.0
C971 C 0.66384 0.18713 0.78898 0.0
C972 C 0.65282 0.20819 0.76276 0.0
C973 C 0.62372 0.21267 0.76715 0.0
C974 C 0.66686 0.24021 0.76161 0.0
C975 C 0.65875 0.18831 0.73329 0.0
C976 C 0.67243 0.16157 0.74171 0.0
C977 C 0.68295 0.1413 0.71906 0.0
C978 C 0.67706 0.14665 0.68693 0.0
C979 C 0.65952 0.17064 0.67806 0.0
C980 C 0.65145 0.19304 0.70122 0.0
H981 H 0.35893 0.86614 0.20135 0.0
H982 H 0.41235 0.78741 0.19718 0.0
H983 H 0.40009 0.77168 0.25203 0.0
H984 H 0.36734 0.88872 0.28341 0.0
H985 H 0.33374 0.89602 0.28982 0.0
H986 H 0.34655 0.90007 0.25036 0.0
H987 H 0.31275 0.86144 0.22986 0.0
H988 H 0.30076 0.85426 0.26955 0.0
H989 H 0.31161 0.82164 0.24566 0.0
H990 H 0.37988 0.76275 0.30626 0.0
H991 H 0.36261 0.76929 0.36052 0.0
H992 H 0.32844 0.85849 0.33208 0.0
C993 C 0.36873 0.84634 0.21245 0.0
C994 C 0.38706 0.82841 0.19533 0.0
C995 C 0.39851 0.80167 0.21009 0.0
C996 C 0.39145 0.79235 0.24107 0.0
C997 C 0.37274 0.80992 0.25695 0.0
C998 C 0.36203 0.8368 0.24351 0.0
C999 C 0.34232 0.85123 0.26581 0.0
C1000 C 0.34792 0.88616 0.27276 0.0
C1001 C 0.31526 0.8469 0.25182 0.0
C1002 C 0.34591 0.83071 0.29521 0.0
C1003 C 0.3621 0.80563 0.28874 0.0
C1004 C 0.36752 0.78268 0.31167 0.0
C1005 C 0.35751 0.7867 0.34255 0.0
C1006 C 0.34363 0.81454 0.35099 0.0
C1007 C 0.33741 0.83633 0.32655 0.0
H1008 H 0.33482 0.21459 0.9904 0.0
H1009 H 0.28377 0.15774 0.93159 0.0
H1010 H 0.24632 0.18488 0.95533 0.0
H1011 H 0.29396 0.2171 0.06127 0.0
H1012 H 0.30231 0.25753 0.07065 0.0
H1013 H 0.325 0.23249 0.05016 0.0
H1014 H 0.32823 0.27385 0.0045 0.0
H1015 H 0.30545 0.2989 0.02475 0.0
H1016 H 0.29942 0.28648 0.98417 0.0
H1017 H 0.21419 0.21979 0.98436 0.0
H1018 H 0.19028 0.25877 0.01699 0.0
H1019 H 0.26239 0.29307 0.05635 0.0
C1020 C 0.31576 0.20753 0.98282 0.0
C1021 C 0.31229 0.18385 0.95921 0.0
C1022 C 0.28698 0.17568 0.9497 0.0
C1023 C 0.26554 0.19101 0.96303 0.0
C1024 C 0.26963 0.21455 0.98589 0.0
C1025 C 0.29412 0.22269 0.99581 0.0
C1026 C 0.29329 0.24937 0.02012 0.0
C1027 C 0.30429 0.23846 0.05247 0.0
C1028 C 0.30743 0.27889 0.00762 0.0
C1029 C 0.26457 0.25509 0.02218 0.0
C1030 C 0.25122 0.23474 1.00233 0.0
C1031 C 0.22447 0.23578 1.00006 0.0
C1032 C 0.21103 0.25808 0.01868 0.0
C1033 C 0.22431 0.27918 0.0393 0.0
C1034 C 0.2515 0.27747 0.04085 0.0
H1035 H 0.75705 0.73138 0.55187 0.0
H1036 H 0.82847 0.7571 0.50505 0.0
H1037 H 0.80442 0.79314 0.46908 0.0
H1038 H 0.71753 0.73096 0.48199 0.0
H1039 H 0.68996 0.74732 0.50215 0.0
H1040 H 0.71296 0.72403 0.52415 0.0
H1041 H 0.71926 0.77037 0.56411 0.0
H1042 H 0.69632 0.79387 0.54216 0.0
H1043 H 0.72822 0.80896 0.5493 0.0
H1044 H 0.77185 0.82555 0.43712 0.0
H1045 H 0.734 0.85126 0.41232 0.0
H1046 H 0.6844 0.80487 0.48125 0.0
C1047 C 0.76776 0.74447 0.53404 0.0
C1048 C 0.79476 0.74118 0.53129 0.0
C1049 C 0.80785 0.75909 0.50769 0.0
C1050 C 0.79433 0.77967 0.48715 0.0
C1051 C 0.76773 0.78228 0.4906 0.0
C1052 C 0.75464 0.76518 0.51355 0.0
C1053 C 0.72607 0.77204 0.51242 0.0
C1054 C 0.71073 0.74179 0.50471 0.0
C1055 C 0.71694 0.78722 0.54387 0.0
C1056 C 0.72499 0.79551 0.48503 0.0
C1057 C 0.7492 0.80117 0.47273 0.0
C1058 C 0.75285 0.8214 0.44673 0.0
C1059 C 0.73122 0.83593 0.43281 0.0
C1060 C 0.70622 0.83029 0.44492 0.0
C1061 C 0.70324 0.80999 0.47159 0.0
H1062 H 0.30469 0.8154 0.05848 0.0
H1063 H 0.36404 0.74489 0.07439 0.0
H1064 H 0.33551 0.70332 0.05325 0.0
H1065 H 0.24847 0.76386 0.07495 0.0
H1066 H 0.22943 0.7801 0.04283 0.0
H1067 H 0.25309 0.80443 0.06263 0.0
H1068 H 0.27469 0.81625 0.00819 0.0
H1069 H 0.25103 0.79212 0.98827 0.0
H1070 H 0.28474 0.78372 0.98317 0.0
H1071 H 0.30268 0.66988 0.02869 0.0
H1072 H 0.26823 0.64613 0.99651 0.0
H1073 H 0.2291 0.73698 0.99236 0.0
C1074 C 0.31136 0.79108 0.05792 0.0
C1075 C 0.33649 0.78319 0.06838 0.0
C1076 C 0.34489 0.75135 0.06657 0.0
C1077 C 0.32876 0.72755 0.05478 0.0
C1078 C 0.30426 0.7359 0.04438 0.0
C1079 C 0.29555 0.76686 0.04536 0.0
C1080 C 0.26915 0.76933 0.02965 0.0
C1081 C 0.24883 0.78007 0.05397 0.0
C1082 C 0.26996 0.79168 1.00059 0.0
C1083 C 0.2647 0.73504 0.01942 0.0
C1084 C 0.28517 0.7163 0.0288 0.0
C1085 C 0.28648 0.68422 0.02133 0.0
C1086 C 0.26677 0.67095 1.00299 0.0
C1087 C 0.24589 0.68958 0.99199 0.0
C1088 C 0.24455 0.722 1.00094 0.0
H1089 H 0.7277 0.19709 0.53544 0.0
H1090 H 0.66992 0.26675 0.56124 0.0
H1091 H 0.69752 0.30944 0.54104 0.0
H1092 H 0.78486 0.24706 0.55179 0.0
H1093 H 0.80235 0.2333 0.51729 0.0
H1094 H 0.7795 0.20756 0.53666 0.0
H1095 H 0.75545 0.20003 0.48296 0.0
H1096 H 0.77825 0.22564 0.46345 0.0
H1097 H 0.7444 0.23441 0.46129 0.0
H1098 H 0.729 0.34429 0.51708 0.0
H1099 H 0.76229 0.37074 0.48563 0.0
H1100 H 0.80101 0.28059 0.47112 0.0
C1101 C 0.72117 0.22141 0.53713 0.0
C1102 C 0.6967 0.2287 0.55009 0.0
C1103 C 0.68851 0.26066 0.55136 0.0
C1104 C 0.70413 0.28512 0.54014 0.0
C1105 C 0.72792 0.27738 0.52724 0.0
C1106 C 0.73648 0.24642 0.52523 0.0
C1107 C 0.76214 0.24513 0.50764 0.0
C1108 C 0.78348 0.23251 0.52967 0.0
C1109 C 0.75992 0.22511 0.47701 0.0
C1110 C 0.76627 0.28012 0.49985 0.0
C1111 C 0.7463 0.29803 0.51199 0.0
C1112 C 0.74479 0.3306 0.50748 0.0
C1113 C 0.76383 0.34539 0.48942 0.0
C1114 C 0.78425 0.32781 0.47572 0.0
C1115 C 0.7858 0.2947 0.48156 0.0
H1116 H 0.77666 0.79219 0.05413 0.0
H1117 H 0.70605 0.77606 1.0011 0.0
H1118 H 0.72925 0.73875 0.96554 0.0
H1119 H 0.81908 0.79131 0.9875 0.0
H1120 H 0.84453 0.77156 0.00897 0.0
H1121 H 0.82206 0.79622 0.03019 0.0
H1122 H 0.811 0.74919 0.06763 0.0
H1123 H 0.83337 0.72432 0.04642 0.0
H1124 H 0.80034 0.71219 0.05056 0.0
H1125 H 0.7612 0.70371 0.93496 0.0
H1126 H 0.79854 0.67553 0.91186 0.0
H1127 H 0.84749 0.71491 0.98595 0.0
C1128 C 0.7659 0.78095 0.03505 0.0
C1129 C 0.73941 0.78728 0.03045 0.0
C1130 C 0.7263 0.77174 0.00517 0.0
C1131 C 0.73933 0.75044 0.98488 0.0
C1132 C 0.76545 0.74481 0.99025 0.0
C1133 C 0.77852 0.7597 0.01477 0.0
C1134 C 0.80656 0.75011 0.01549 0.0
C1135 C 0.82408 0.77902 0.01021 0.0
C1136 C 0.8132 0.73293 0.04689 0.0
C1137 C 0.80745 0.72765 0.98729 0.0
C1138 C 0.78356 0.72473 0.97305 0.0
C1139 C 0.77992 0.70576 0.94607 0.0
C1140 C 0.80126 0.68978 0.93315 0.0
C1141 C 0.82597 0.69283 0.94715 0.0
C1142 C 0.82887 0.71181 0.9748 0.0
H1143 H 0.25498 0.21793 0.55422 0.0
H1144 H 0.32687 0.2524 0.51483 0.0
H1145 H 0.30291 0.29255 0.48357 0.0
H1146 H 0.21766 0.22574 0.4836 0.0
H1147 H 0.18899 0.23829 0.50414 0.0
H1148 H 0.21193 0.21326 0.5242 0.0
H1149 H 0.21565 0.25425 0.57015 0.0
H1150 H 0.19269 0.27944 0.55023 0.0
H1151 H 0.22385 0.29477 0.56097 0.0
H1152 H 0.27047 0.3272 0.45421 0.0
H1153 H 0.23273 0.35408 0.43053 0.0
H1154 H 0.18232 0.29772 0.49038 0.0
C1155 C 0.2658 0.23396 0.53915 0.0
C1156 C 0.29292 0.23183 0.537 0.0
C1157 C 0.30617 0.25349 0.51702 0.0
C1158 C 0.29269 0.27639 0.49912 0.0
C1159 C 0.26596 0.27759 0.50164 0.0
C1160 C 0.25271 0.25704 0.52134 0.0
C1161 C 0.22398 0.26286 0.51953 0.0
C1162 C 0.20982 0.23328 0.50712 0.0
C1163 C 0.21343 0.27347 0.55216 0.0
C1164 C 0.22303 0.28965 0.49538 0.0
C1165 C 0.24744 0.29783 0.48533 0.0
C1166 C 0.25132 0.32114 0.46217 0.0
C1167 C 0.22974 0.33628 0.44882 0.0
C1168 C 0.20454 0.32823 0.45873 0.0
C1169 C 0.2013 0.30475 0.48256 0.0
H1170 H 0.83364 0.27933 0.01829 0.0
H1171 H 0.78211 0.3406 0.07146 0.0
H1172 H 0.74482 0.31412 0.04635 0.0
H1173 H 0.79562 0.27653 0.94501 0.0
H1174 H 0.8032 0.23552 0.93733 0.0
H1175 H 0.82574 0.26019 0.95858 0.0
H1176 H 0.82605 0.22016 0.00562 0.0
H1177 H 0.8035 0.19542 0.98454 0.0
H1178 H 0.79613 0.20923 0.02428 0.0
H1179 H 0.7128 0.2788 0.01687 0.0
H1180 H 0.68929 0.23863 0.98505 0.0
H1181 H 0.76203 0.20133 0.95088 0.0
C1182 C 0.81453 0.2874 0.02446 0.0
C1183 C 0.81086 0.31213 0.04686 0.0
C1184 C 0.78547 0.32179 0.05433 0.0
C1185 C 0.76413 0.30686 0.04019 0.0
C1186 C 0.76841 0.28236 0.01843 0.0
C1187 C 0.79302 0.27282 0.0105 0.0
C1188 C 0.79244 0.24551 0.98694 0.0
C1189 C 0.80499 0.25502 0.95508 0.0
C1190 C 0.80529 0.21583 1.00121 0.0
C1191 C 0.76371 0.2409 0.98313 0.0
C1192 C 0.75012 0.26237 1.00141 0.0
C1193 C 0.72329 0.26201 1.0023 0.0
C1194 C 0.71008 0.23906 0.98414 0.0
C1195 C 0.72366 0.21673 0.96526 0.0
C1196 C 0.75088 0.21804 0.96479 0.0
H1197 H 0.18403 0.74034 0.53661 0.0
H1198 H 0.23546 0.69102 0.60154 0.0
H1199 H 0.27248 0.71907 0.5776 0.0
H1200 H 0.22602 0.739 0.46812 0.0
H1201 H 0.21653 0.77785 0.45452 0.0
H1202 H 0.19427 0.75378 0.47677 0.0
H1203 H 0.18873 0.7991 0.51807 0.0
H1204 H 0.21106 0.82327 0.49602 0.0
H1205 H 0.21668 0.81518 0.53778 0.0
H1206 H 0.30404 0.75309 0.54631 0.0
H1207 H 0.32734 0.78901 0.50973 0.0
H1208 H 0.25492 0.81589 0.46563 0.0
C1209 C 0.20307 0.73535 0.54579 0.0
C1210 C 0.20682 0.71344 0.57099 0.0
C1211 C 0.23209 0.70765 0.58224 0.0
C1212 C 0.25324 0.72352 0.56882 0.0
C1213 C 0.24884 0.74511 0.54413 0.0
C1214 C 0.22437 0.75094 0.53266 0.0
C1215 C 0.22477 0.77513 0.50586 0.0
C1216 C 0.21481 0.76056 0.47446 0.0
C1217 C 0.2094 0.80493 0.515 0.0
C1218 C 0.25328 0.7821 0.50405 0.0
C1219 C 0.26688 0.7646 0.52629 0.0
C1220 C 0.29354 0.76693 0.52883 0.0
C1221 C 0.30663 0.78747 0.50794 0.0
C1222 C 0.29307 0.8055 0.48477 0.0
C1223 C 0.26598 0.80272 0.48312 0.0
H1224 H 0.22431 0.55089 0.9795 0.0
H1225 H 0.1434 0.57519 0.97398 0.0
H1226 H 0.1321 0.52239 0.99526 0.0
H1227 H 0.21883 0.46877 0.95828 0.0
H1228 H 0.24264 0.45533 0.98656 0.0
H1229 H 0.24459 0.49479 0.97023 0.0
H1230 H 0.24474 0.51853 0.02741 0.0
H1231 H 0.24311 0.47913 0.04391 0.0
H1232 H 0.21931 0.50825 0.05474 0.0
H1233 H 0.12945 0.46607 0.01465 0.0
H1234 H 0.13564 0.4131 0.0385 0.0
H1235 H 0.21831 0.42642 0.03533 0.0
C1236 C 0.20423 0.5451 0.98291 0.0
C1237 C 0.18472 0.56714 0.97502 0.0
C1238 C 0.15868 0.55879 0.98007 0.0
C1239 C 0.15205 0.52876 0.9919 0.0
C1240 C 0.1717 0.50745 0.99907 0.0
C1241 C 0.19728 0.51543 0.9954 0.0
C1242 C 0.21464 0.48866 0.00647 0.0
C1243 C 0.23115 0.47615 0.97873 0.0
C1244 C 0.23144 0.49928 0.03482 0.0
C1245 C 0.19483 0.46434 0.01673 0.0
C1246 C 0.17018 0.47549 0.01175 0.0
C1247 C 0.14866 0.45716 0.01884 0.0
C1248 C 0.15239 0.42696 0.03217 0.0
C1249 C 0.17745 0.4155 0.03879 0.0
C1250 C 0.19891 0.43445 0.03058 0.0
H1251 H 0.80243 0.59367 0.53538 0.0
H1252 H 0.88458 0.60795 0.54609 0.0
H1253 H 0.89242 0.55353 0.52679 0.0
H1254 H 0.80034 0.51217 0.559 0.0
H1255 H 0.77682 0.50077 0.52948 0.0
H1256 H 0.77733 0.54078 0.54459 0.0
H1257 H 0.78161 0.5627 0.4869 0.0
H1258 H 0.78061 0.5228 0.47162 0.0
H1259 H 0.80714 0.54839 0.46163 0.0
H1260 H 0.89131 0.49652 0.50897 0.0
H1261 H 0.8818 0.44429 0.48486 0.0
H1262 H 0.80071 0.46815 0.4823 0.0
C1263 C 0.82206 0.58542 0.53339 0.0
C1264 C 0.84288 0.60512 0.54223 0.0
C1265 C 0.86832 0.59346 0.53917 0.0
C1266 C 0.87297 0.56244 0.52854 0.0
C1267 C 0.85203 0.54344 0.52062 0.0
C1268 C 0.82711 0.55469 0.52218 0.0
C1269 C 0.80815 0.5299 0.51066 0.0
C1270 C 0.78957 0.52035 0.53754 0.0
C1271 C 0.79352 0.54165 0.48093 0.0
C1272 C 0.8263 0.50298 0.50246 0.0
C1273 C 0.85149 0.51106 0.50896 0.0
C1274 C 0.87167 0.48997 0.50362 0.0
C1275 C 0.86606 0.46023 0.4902 0.0
C1276 C 0.84053 0.45211 0.48177 0.0
C1277 C 0.82041 0.47365 0.48856 0.0
H1278 H 0.88226 0.477 0.06511 0.0
H1279 H 0.87899 0.3976 0.99901 0.0
H1280 H 0.87993 0.43506 0.95357 0.0
H1281 H 0.84151 0.52987 0.0185 0.0
H1282 H 0.85967 0.56474 0.02903 0.0
H1283 H 0.8581 0.53174 0.05634 0.0
H1284 H 0.90781 0.52888 0.05755 0.0
H1285 H 0.90955 0.56182 0.03024 0.0
H1286 H 0.92523 0.52494 0.02052 0.0
H1287 H 0.88405 0.48069 0.91562 0.0
H1288 H 0.88895 0.53141 0.88724 0.0
H1289 H 0.88753 0.58176 0.97785 0.0
C1290 C 0.88168 0.4674 0.0411 0.0
C1291 C 0.88068 0.43425 0.03565 0.0
C1292 C 0.87973 0.42282 1.00382 0.0
C1293 C 0.88028 0.44392 0.97786 0.0
C1294 C 0.88145 0.47638 0.98413 0.0
C1295 C 0.88191 0.4881 0.01495 0.0
C1296 C 0.8833 0.52405 0.01513 0.0
C1297 C 0.85921 0.53844 0.03067 0.0
C1298 C 0.90794 0.53559 0.03184 0.0
C1299 C 0.88403 0.53074 0.97954 0.0
C1300 C 0.88299 0.50286 0.96215 0.0
C1301 C 0.88459 0.50268 0.92895 0.0
C1302 C 0.88744 0.5317 0.91307 0.0
C1303 C 0.88844 0.56069 0.93027 0.0
C1304 C 0.88646 0.5601 0.96399 0.0
H1305 H 0.1374 0.43955 0.4941 0.0
H1306 H 0.15532 0.49081 0.40692 0.0
H1307 H 0.15998 0.54014 0.43766 0.0
H1308 H 0.09842 0.49986 0.52713 0.0
H1309 H 0.10839 0.49384 0.56799 0.0
H1310 H 0.10935 0.46135 0.54007 0.0
H1311 H 0.15764 0.45278 0.55242 0.0
H1312 H 0.15679 0.48517 0.58054 0.0
H1313 H 0.17969 0.48548 0.54825 0.0
H1314 H 0.16053 0.58444 0.47651 0.0
H1315 H 0.15578 0.62169 0.52143 0.0
H1316 H 0.13557 0.54325 0.58397 0.0
C1317 C 0.14287 0.46105 0.48169 0.0
C1318 C 0.14631 0.46121 0.44813 0.0
C1319 C 0.15275 0.49 0.43259 0.0
C1320 C 0.15548 0.51821 0.44985 0.0
C1321 C 0.15148 0.51746 0.48272 0.0
C1322 C 0.14525 0.48974 0.49859 0.0
C1323 C 0.14014 0.49625 0.53374 0.0
C1324 C 0.11243 0.4873 0.54275 0.0
C1325 C 0.15974 0.47889 0.55499 0.0
C1326 C 0.14413 0.53192 0.53488 0.0
C1327 C 0.15097 0.54351 0.50521 0.0
C1328 C 0.1553 0.57568 0.49994 0.0
C1329 C 0.15253 0.59668 0.52567 0.0
C1330 C 0.14523 0.58556 0.55633 0.0
C1331 C 0.1411 0.55262 0.56087 0.0
H1332 H 0.65721 0.05821 0.97673 0.0
H1333 H 0.73352 0.09469 0.99624 0.0
H1334 H 0.74462 0.04512 0.02431 0.0
H1335 H 0.6502 0.01161 0.05286 0.0
H1336 H 0.63379 0.97957 0.0329 0.0
H1337 H 0.63054 0.01957 0.01823 0.0
H1338 H 0.64583 1.0009 0.96243 0.0
H1339 H 0.64971 0.96101 0.97705 0.0
H1340 H 0.67641 0.98118 0.95869 0.0
H1341 H 0.74943 0.99059 0.04431 0.0
H1342 H 0.74661 0.93503 0.06104 0.0
H1343 H 0.66707 0.93169 0.02916 0.0
C1344 C 0.67584 0.05614 0.98811 0.0
C1345 C 0.6944 0.08046 0.98495 0.0
C1346 C 0.71897 0.07649 0.99889 0.0
C1347 C 0.72548 0.04838 0.01471 0.0
C1348 C 0.70722 0.02431 0.01629 0.0
C1349 C 0.68277 0.02791 0.00387 0.0
C1350 C 0.66751 0.99732 0.00729 0.0
C1351 C 0.64412 1.00232 0.02913 0.0
C1352 C 0.65939 0.98435 0.97441 0.0
C1353 C 0.6874 0.97597 0.02303 0.0
C1354 C 0.71011 0.99221 0.02791 0.0
C1355 C 0.73165 0.97769 0.04104 0.0
C1356 C 0.72983 0.94592 0.05031 0.0
C1357 C 0.70657 0.9287 0.04658 0.0
C1358 C 0.68515 0.944 0.03232 0.0
H1359 H 0.29989 0.95231 0.47104 0.0
H1360 H 0.38178 0.93917 0.45673 0.0
H1361 H 0.38949 0.99465 0.47259 0.0
H1362 H 0.29569 0.0336 0.44427 0.0
H1363 H 0.27327 0.04549 0.47483 0.0
H1364 H 0.27366 1.00505 0.46089 0.0
H1365 H 0.28054 0.98497 0.5189 0.0
H1366 H 0.27969 0.02529 0.53301 0.0
H1367 H 0.3069 1.00045 0.54216 0.0
H1368 H 0.38847 0.05179 0.48871 0.0
H1369 H 0.37976 0.10391 0.51304 0.0
H1370 H 0.29889 0.0796 0.52039 0.0
C1371 C 0.31942 0.96115 0.47135 0.0
C1372 C 0.34022 0.94139 0.46263 0.0
C1373 C 0.36554 0.95374 0.46359 0.0
C1374 C 0.37012 0.98535 0.47223 0.0
C1375 C 0.34922 1.00432 0.48031 0.0
C1376 C 0.32443 0.99256 0.48066 0.0
C1377 C 0.30568 0.01744 0.49258 0.0
C1378 C 0.2859 0.02589 0.46658 0.0
C1379 C 0.29243 1.00638 0.5235 0.0
C1380 C 0.32384 0.04491 0.49888 0.0
C1381 C 0.34878 0.037 0.49101 0.0
C1382 C 0.36901 0.05827 0.49502 0.0
C1383 C 0.36381 0.088 0.50865 0.0
C1384 C 0.33862 0.09604 0.51864 0.0
C1385 C 0.31833 0.07435 0.51288 0.0
H1386 H 0.39544 0.96856 0.08025 0.0
H1387 H 0.36786 0.89148 0.02023 0.0
H1388 H 0.35918 0.92955 0.97694 0.0
H1389 H 0.34946 0.02825 0.05246 0.0
H1390 H 0.37259 0.06004 0.05363 0.0
H1391 H 0.37552 0.02711 0.0809 0.0
H1392 H 0.42187 0.01683 0.06095 0.0
H1393 H 0.41911 0.04973 0.03372 0.0
H1394 H 0.42751 0.01098 0.01883 0.0
H1395 H 0.35647 0.97421 0.93911 0.0
H1396 H 0.35943 0.02344 0.90827 0.0
H1397 H 0.38709 0.07341 0.99231 0.0
C1398 C 0.38742 0.95965 0.05809 0.0
C1399 C 0.38239 0.92686 0.05374 0.0
C1400 C 0.37194 0.91635 0.02427 0.0
C1401 C 0.36685 0.93783 0.99952 0.0
C1402 C 0.37215 0.96982 0.00458 0.0
C1403 C 0.38213 0.98081 0.03308 0.0
C1404 C 0.38689 0.01636 0.03167 0.0
C1405 C 0.37011 0.03398 0.05612 0.0
C1406 C 0.41554 0.02391 0.03658 0.0
C1407 C 0.37841 0.02347 0.99766 0.0
C1408 C 0.36993 0.99615 0.98266 0.0
C1409 C 0.36267 0.99585 0.9507 0.0
C1410 C 0.36444 0.02406 0.93335 0.0
C1411 C 0.37312 0.05247 0.94794 0.0
C1412 C 0.37982 0.05225 0.98073 0.0
H1413 H 0.64413 0.04482 0.55991 0.0
H1414 H 0.64593 0.12471 0.49434 0.0
H1415 H 0.64835 0.08738 0.44877 0.0
H1416 H 0.68835 0.9943 0.51528 0.0
H1417 H 0.67104 0.95858 0.52502 0.0
H1418 H 0.67086 0.99162 0.55237 0.0
H1419 H 0.62109 0.99205 0.5514 0.0
H1420 H 0.62109 0.95909 0.52405 0.0
H1421 H 0.60453 0.99519 0.51362 0.0
H1422 H 0.64713 0.04139 0.41052 0.0
H1423 H 0.64381 0.99043 0.38211 0.0
H1424 H 0.64426 0.94037 0.47287 0.0
C1425 C 0.64518 0.05462 0.53601 0.0
C1426 C 0.64471 0.08781 0.53072 0.0
C1427 C 0.64629 0.09945 0.49902 0.0
C1428 C 0.64767 0.07842 0.473 0.0
C1429 C 0.64778 0.04588 0.47915 0.0
C1430 C 0.64678 0.03406 0.50989 0.0
C1431 C 0.64651 0.9981 0.51008 0.0
C1432 C 0.67063 0.98488 0.52667 0.0
C1433 C 0.62184 0.98537 0.52571 0.0
C1434 C 0.64692 0.99144 0.47451 0.0
C1435 C 0.64771 0.01935 0.45713 0.0
C1436 C 0.64682 0.01941 0.42388 0.0
C1437 C 0.64486 0.99027 0.40797 0.0
C1438 C 0.64393 0.96131 0.42524 0.0
C1439 C 0.64533 0.96201 0.45898 0.0
loop_
_geom_bond_atom_site_label_1
_geom_bond_atom_site_label_2
_geom_bond_distance
_geom_bond_site_symmetry_2
_ccdc_geom_bond_type
Mn0 O5 2.095 . S
Mn0 O15 2.162 . S
Mn0 O16 2.297 . S
Mn0 O24 2.385 . S
Mn0 O25 2.209 . S
Mn0 O26 2.094 . S
Mn1 O6 2.121 . S
Mn1 N8 2.257 . S
Mn1 N17 2.282 . S
Mn1 O25 2.215 . S
Mn1 O27 2.117 . S
C2 O24 1.234 . S
C2 O25 1.283 . S
C3 O15 1.281 . S
C3 O16 1.236 . S
C4 O26 1.240 . S
C4 O27 1.264 . S
O5 Mn0 2.095 . S
O5 C14 1.250 . S
O6 Mn1 2.121 . S
O6 C14 1.258 . S
C7 N8 1.326 . S
C7 C11 1.460 . S
C7 H13 0.929 . S
N8 Mn1 2.257 . S
N8 C7 1.326 . S
N8 C12 1.362 . S
C9 C10 1.258 . S
C9 C12 1.431 . S
C9 C29 1.449 . S
C10 C9 1.258 . S
C10 C11 1.477 . S
C10 H30 0.931 . S
C11 C7 1.460 . S
C11 C10 1.477 . S
C11 H31 0.930 . S
C12 N8 1.362 . S
C12 C9 1.431 . S
C12 C22 1.476 . S
H13 C7 0.929 . S
C14 O5 1.250 . S
C14 O6 1.258 . S
O15 Mn0 2.162 . S
O15 C3 1.281 . S
O16 Mn0 2.297 . S
O16 C3 1.236 . S
N17 Mn1 2.282 . S
N17 C18 1.328 . S
N17 C22 1.318 . S
C18 N17 1.328 . S
C18 C19 1.457 . S
C18 H23 0.929 . S
C19 C18 1.457 . S
C19 C20 1.291 . S
C19 H32 0.931 . S
C20 C19 1.291 . S
C20 C21 1.373 . S
C20 H33 0.929 . S
C21 C20 1.373 . S
C21 C22 1.396 . S
C21 C28 1.403 . S
C22 C12 1.476 . S
C22 N17 1.318 . S
C22 C21 1.396 . S
H23 C18 0.929 . S
O24 Mn0 2.385 . S
O24 C2 1.234 . S
O25 Mn0 2.209 . S
O25 Mn1 2.215 . S
O25 C2 1.283 . S
O26 Mn0 2.094 . S
O26 C4 1.240 . S
O27 Mn1 2.117 . S
O27 C4 1.264 . S
C28 C21 1.403 . S
C28 C29 1.399 . S
C28 H34 0.929 . S
C29 C9 1.449 . S
C29 C28 1.399 . S
C29 H35 0.930 . S
H30 C10 0.931 . S
H31 C11 0.930 . S
H32 C19 0.931 . S
H33 C20 0.929 . S
H34 C28 0.929 . S
H35 C29 0.930 . S
Mn36 O41 2.095 . S
Mn36 O51 2.162 . S
Mn36 O52 2.297 . S
Mn36 O60 2.385 . S
Mn36 O61 2.209 . S
Mn36 O62 2.094 . S
Mn37 O42 2.121 . S
Mn37 N44 2.257 . S
Mn37 N53 2.282 . S
Mn37 O61 2.215 . S
Mn37 O63 2.117 . S
C38 O60 1.234 . S
C38 O61 1.283 . S
C39 O51 1.281 . S
C39 O52 1.236 . S
C40 O62 1.240 . S
C40 O63 1.264 . S
O41 Mn36 2.095 . S
O41 C50 1.250 . S
O42 Mn37 2.121 . S
O42 C50 1.258 . S
C43 N44 1.326 . S
C43 C47 1.460 . S
C43 H49 0.929 . S
N44 Mn37 2.257 . S
N44 C43 1.326 . S
N44 C48 1.362 . S
C45 C46 1.258 . S
C45 C48 1.431 . S
C45 C65 1.449 . S
C46 C45 1.258 . S
C46 C47 1.477 . S
C46 H66 0.931 . S
C47 C43 1.460 . S
C47 C46 1.477 . S
C47 H67 0.930 . S
C48 N44 1.362 . S
C48 C45 1.431 . S
C48 C58 1.476 . S
H49 C43 0.929 . S
C50 O41 1.250 . S
C50 O42 1.258 . S
O51 Mn36 2.162 . S
O51 C39 1.281 . S
O52 Mn36 2.297 . S
O52 C39 1.236 . S
N53 Mn37 2.282 . S
N53 C54 1.328 . S
N53 C58 1.318 . S
C54 N53 1.328 . S
C54 C55 1.457 . S
C54 H59 0.929 . S
C55 C54 1.457 . S
C55 C56 1.291 . S
C55 H68 0.931 . S
C56 C55 1.291 . S
C56 C57 1.373 . S
C56 H69 0.929 . S
C57 C56 1.373 . S
C57 C58 1.396 . S
C57 C64 1.403 . S
C58 C48 1.476 . S
C58 N53 1.318 . S
C58 C57 1.396 . S
H59 C54 0.929 . S
O60 Mn36 2.385 . S
O60 C38 1.234 . S
O61 Mn36 2.209 . S
O61 Mn37 2.215 . S
O61 C38 1.283 . S
O62 Mn36 2.094 . S
O62 C40 1.240 . S
O63 Mn37 2.117 . S
O63 C40 1.264 . S
C64 C57 1.403 . S
C64 C65 1.399 . S
C64 H70 0.929 . S
C65 C45 1.449 . S
C65 C64 1.399 . S
C65 H71 0.930 . S
H66 C46 0.931 . S
H67 C47 0.930 . S
H68 C55 0.931 . S
H69 C56 0.929 . S
H70 C64 0.929 . S
H71 C65 0.930 . S
Mn72 O77 2.095 . S
Mn72 O87 2.162 . S
Mn72 O88 2.297 . S
Mn72 O96 2.385 . S
Mn72 O97 2.209 . S
Mn72 O98 2.094 . S
Mn73 O78 2.121 . S
Mn73 N80 2.257 . S
Mn73 N89 2.282 . S
Mn73 O97 2.215 . S
Mn73 O99 2.117 . S
C74 O96 1.234 . S
C74 O97 1.283 . S
C75 O87 1.281 . S
C75 O88 1.236 . S
C76 O98 1.240 . S
C76 O99 1.264 . S
O77 Mn72 2.095 . S
O77 C86 1.250 . S
O78 Mn73 2.121 . S
O78 C86 1.258 . S
C79 N80 1.326 . S
C79 C83 1.460 . S
C79 H85 0.929 . S
N80 Mn73 2.257 . S
N80 C79 1.326 . S
N80 C84 1.362 . S
C81 C82 1.258 . S
C81 C84 1.431 . S
C81 C101 1.449 . S
C82 C81 1.258 . S
C82 C83 1.477 . S
C82 H102 0.931 . S
C83 C79 1.460 . S
C83 C82 1.477 . S
C83 H103 0.930 . S
C84 N80 1.362 . S
C84 C81 1.431 . S
C84 C94 1.476 . S
H85 C79 0.929 . S
C86 O77 1.250 . S
C86 O78 1.258 . S
O87 Mn72 2.162 . S
O87 C75 1.281 . S
O88 Mn72 2.297 . S
O88 C75 1.236 . S
N89 Mn73 2.282 . S
N89 C90 1.328 . S
N89 C94 1.318 . S
C90 N89 1.328 . S
C90 C91 1.457 . S
C90 H95 0.929 . S
C91 C90 1.457 . S
C91 C92 1.291 . S
C91 H104 0.931 . S
C92 C91 1.291 . S
C92 C93 1.373 . S
C92 H105 0.929 . S
C93 C92 1.373 . S
C93 C94 1.396 . S
C93 C100 1.403 . S
C94 C84 1.476 . S
C94 N89 1.318 . S
C94 C93 1.396 . S
H95 C90 0.929 . S
O96 Mn72 2.385 . S
O96 C74 1.234 . S
O97 Mn72 2.209 . S
O97 Mn73 2.215 . S
O97 C74 1.283 . S
O98 Mn72 2.094 . S
O98 C76 1.240 . S
O99 Mn73 2.117 . S
O99 C76 1.264 . S
C100 C93 1.403 . S
C100 C101 1.399 . S
C100 H106 0.929 . S
C101 C81 1.449 . S
C101 C100 1.399 . S
C101 H107 0.930 . S
H102 C82 0.931 . S
H103 C83 0.930 . S
H104 C91 0.931 . S
H105 C92 0.929 . S
H106 C100 0.929 . S
H107 C101 0.930 . S
Mn108 O113 2.095 . S
Mn108 O123 2.162 . S
Mn108 O124 2.297 . S
Mn108 O132 2.385 . S
Mn108 O133 2.209 . S
Mn108 O134 2.094 . S
Mn109 O114 2.121 . S
Mn109 N116 2.257 . S
Mn109 N125 2.282 . S
Mn109 O133 2.215 . S
Mn109 O135 2.117 . S
C110 O132 1.234 . S
C110 O133 1.283 . S
C111 O123 1.281 . S
C111 O124 1.236 . S
C112 O134 1.240 . S
C112 O135 1.264 . S
O113 Mn108 2.095 . S
O113 C122 1.250 . S
O114 Mn109 2.121 . S
O114 C122 1.258 . S
C115 N116 1.326 . S
C115 C119 1.460 . S
C115 H121 0.929 . S
N116 Mn109 2.257 . S
N116 C115 1.326 . S
N116 C120 1.362 . S
C117 C118 1.258 . S
C117 C120 1.431 . S
C117 C137 1.449 . S
C118 C117 1.258 . S
C118 C119 1.477 . S
C118 H138 0.931 . S
C119 C115 1.460 . S
C119 C118 1.477 . S
C119 H139 0.930 . S
C120 N116 1.362 . S
C120 C117 1.431 . S
C120 C130 1.476 . S
H121 C115 0.929 . S
C122 O113 1.250 . S
C122 O114 1.258 . S
O123 Mn108 2.162 . S
O123 C111 1.281 . S
O124 Mn108 2.297 . S
O124 C111 1.236 . S
N125 Mn109 2.282 . S
N125 C126 1.328 . S
N125 C130 1.318 . S
C126 N125 1.328 . S
C126 C127 1.457 . S
C126 H131 0.929 . S
C127 C126 1.457 . S
C127 C128 1.291 . S
C127 H140 0.931 . S
C128 C127 1.291 . S
C128 C129 1.373 . S
C128 H141 0.929 . S
C129 C128 1.373 . S
C129 C130 1.396 . S
C129 C136 1.403 . S
C130 C120 1.476 . S
C130 N125 1.318 . S
C130 C129 1.396 . S
H131 C126 0.929 . S
O132 Mn108 2.385 . S
O132 C110 1.234 . S
O133 Mn108 2.209 . S
O133 Mn109 2.215 . S
O133 C110 1.283 . S
O134 Mn108 2.094 . S
O134 C112 1.240 . S
O135 Mn109 2.117 . S
O135 C112 1.264 . S
C136 C129 1.403 . S
C136 C137 1.399 . S
C136 H142 0.929 . S
C137 C117 1.449 . S
C137 C136 1.399 . S
C137 H143 0.930 . S
H138 C118 0.931 . S
H139 C119 0.930 . S
H140 C127 0.931 . S
H141 C128 0.929 . S
H142 C136 0.929 . S
H143 C137 0.930 . S
Mn144 O149 2.095 . S
Mn144 O159 2.162 . S
Mn144 O160 2.297 . S
Mn144 O168 2.385 . S
Mn144 O169 2.209 . S
Mn144 O170 2.094 . S
Mn145 O150 2.121 . S
Mn145 N152 2.257 . S
Mn145 N161 2.282 . S
Mn145 O169 2.215 . S
Mn145 O171 2.117 . S
C146 O168 1.234 . S
C146 O169 1.283 . S
C147 O159 1.281 . S
C147 O160 1.236 . S
C148 O170 1.240 . S
C148 O171 1.264 . S
O149 Mn144 2.095 . S
O149 C158 1.250 . S
O150 Mn145 2.121 . S
O150 C158 1.258 . S
C151 N152 1.326 . S
C151 C155 1.460 . S
C151 H157 0.929 . S
N152 Mn145 2.257 . S
N152 C151 1.326 . S
N152 C156 1.362 . S
C153 C154 1.258 . S
C153 C156 1.431 . S
C153 C173 1.449 . S
C154 C153 1.258 . S
C154 C155 1.477 . S
C154 H174 0.931 . S
C155 C151 1.460 . S
C155 C154 1.477 . S
C155 H175 0.930 . S
C156 N152 1.362 . S
C156 C153 1.431 . S
C156 C166 1.476 . S
H157 C151 0.929 . S
C158 O149 1.250 . S
C158 O150 1.258 . S
O159 Mn144 2.162 . S
O159 C147 1.281 . S
O160 Mn144 2.297 . S
O160 C147 1.236 . S
N161 Mn145 2.282 . S
N161 C162 1.328 . S
N161 C166 1.318 . S
C162 N161 1.328 . S
C162 C163 1.457 . S
C162 H167 0.929 . S
C163 C162 1.457 . S
C163 C164 1.291 . S
C163 H176 0.931 . S
C164 C163 1.291 . S
C164 C165 1.373 . S
C164 H177 0.929 . S
C165 C164 1.373 . S
C165 C166 1.396 . S
C165 C172 1.403 . S
C166 C156 1.476 . S
C166 N161 1.318 . S
C166 C165 1.396 . S
H167 C162 0.929 . S
O168 Mn144 2.385 . S
O168 C146 1.234 . S
O169 Mn144 2.209 . S
O169 Mn145 2.215 . S
O169 C146 1.283 . S
O170 Mn144 2.094 . S
O170 C148 1.240 . S
O171 Mn145 2.117 . S
O171 C148 1.264 . S
C172 C165 1.403 . S
C172 C173 1.399 . S
C172 H178 0.929 . S
C173 C153 1.449 . S
C173 C172 1.399 . S
C173 H179 0.930 . S
H174 C154 0.931 . S
H175 C155 0.930 . S
H176 C163 0.931 . S
H177 C164 0.929 . S
H178 C172 0.929 . S
H179 C173 0.930 . S
Mn180 O185 2.095 . S
Mn180 O195 2.162 . S
Mn180 O196 2.297 . S
Mn180 O204 2.385 . S
Mn180 O205 2.209 . S
Mn180 O206 2.094 . S
Mn181 O186 2.121 . S
Mn181 N188 2.257 . S
Mn181 N197 2.282 . S
Mn181 O205 2.215 . S
Mn181 O207 2.117 . S
C182 O204 1.234 . S
C182 O205 1.283 . S
C183 O195 1.281 . S
C183 O196 1.236 . S
C184 O206 1.240 . S
C184 O207 1.264 . S
O185 Mn180 2.095 . S
O185 C194 1.250 . S
O186 Mn181 2.121 . S
O186 C194 1.258 . S
C187 N188 1.326 . S
C187 C191 1.460 . S
C187 H193 0.929 . S
N188 Mn181 2.257 . S
N188 C187 1.326 . S
N188 C192 1.362 . S
C189 C190 1.258 . S
C189 C192 1.431 . S
C189 C209 1.449 . S
C190 C189 1.258 . S
C190 C191 1.477 . S
C190 H210 0.931 . S
C191 C187 1.460 . S
C191 C190 1.477 . S
C191 H211 0.930 . S
C192 N188 1.362 . S
C192 C189 1.431 . S
C192 C202 1.476 . S
H193 C187 0.929 . S
C194 O185 1.250 . S
C194 O186 1.258 . S
O195 Mn180 2.162 . S
O195 C183 1.281 . S
O196 Mn180 2.297 . S
O196 C183 1.236 . S
N197 Mn181 2.282 . S
N197 C198 1.328 . S
N197 C202 1.318 . S
C198 N197 1.328 . S
C198 C199 1.457 . S
C198 H203 0.929 . S
C199 C198 1.457 . S
C199 C200 1.291 . S
C199 H212 0.931 . S
C200 C199 1.291 . S
C200 C201 1.373 . S
C200 H213 0.929 . S
C201 C200 1.373 . S
C201 C202 1.396 . S
C201 C208 1.403 . S
C202 C192 1.476 . S
C202 N197 1.318 . S
C202 C201 1.396 . S
H203 C198 0.929 . S
O204 Mn180 2.385 . S
O204 C182 1.234 . S
O205 Mn180 2.209 . S
O205 Mn181 2.215 . S
O205 C182 1.283 . S
O206 Mn180 2.094 . S
O206 C184 1.240 . S
O207 Mn181 2.117 . S
O207 C184 1.264 . S
C208 C201 1.403 . S
C208 C209 1.399 . S
C208 H214 0.929 . S
C209 C189 1.449 . S
C209 C208 1.399 . S
C209 H215 0.930 . S
H210 C190 0.931 . S
H211 C191 0.930 . S
H212 C199 0.931 . S
H213 C200 0.929 . S
H214 C208 0.929 . S
H215 C209 0.930 . S
Mn216 O221 2.095 . S
Mn216 O231 2.162 . S
Mn216 O232 2.297 . S
Mn216 O240 2.385 . S
Mn216 O241 2.209 . S
Mn216 O242 2.094 . S
Mn217 O222 2.121 . S
Mn217 N224 2.257 . S
Mn217 N233 2.282 . S
Mn217 O241 2.215 . S
Mn217 O243 2.117 . S
C218 O240 1.234 . S
C218 O241 1.283 . S
C219 O231 1.281 . S
C219 O232 1.236 . S
C220 O242 1.240 . S
C220 O243 1.264 . S
O221 Mn216 2.095 . S
O221 C230 1.250 . S
O222 Mn217 2.121 . S
O222 C230 1.258 . S
C223 N224 1.326 . S
C223 C227 1.460 . S
C223 H229 0.929 . S
N224 Mn217 2.257 . S
N224 C223 1.326 . S
N224 C228 1.362 . S
C225 C226 1.258 . S
C225 C228 1.431 . S
C225 C245 1.449 . S
C226 C225 1.258 . S
C226 C227 1.477 . S
C226 H246 0.931 . S
C227 C223 1.460 . S
C227 C226 1.477 . S
C227 H247 0.930 . S
C228 N224 1.362 . S
C228 C225 1.431 . S
C228 C238 1.476 . S
H229 C223 0.929 . S
C230 O221 1.250 . S
C230 O222 1.258 . S
O231 Mn216 2.162 . S
O231 C219 1.281 . S
O232 Mn216 2.297 . S
O232 C219 1.236 . S
N233 Mn217 2.282 . S
N233 C234 1.328 . S
N233 C238 1.318 . S
C234 N233 1.328 . S
C234 C235 1.457 . S
C234 H239 0.929 . S
C235 C234 1.457 . S
C235 C236 1.291 . S
C235 H248 0.931 . S
C236 C235 1.291 . S
C236 C237 1.373 . S
C236 H249 0.929 . S
C237 C236 1.373 . S
C237 C238 1.396 . S
C237 C244 1.403 . S
C238 C228 1.476 . S
C238 N233 1.318 . S
C238 C237 1.396 . S
H239 C234 0.929 . S
O240 Mn216 2.385 . S
O240 C218 1.234 . S
O241 Mn216 2.209 . S
O241 Mn217 2.215 . S
O241 C218 1.283 . S
O242 Mn216 2.094 . S
O242 C220 1.240 . S
O243 Mn217 2.117 . S
O243 C220 1.264 . S
C244 C237 1.403 . S
C244 C245 1.399 . S
C244 H250 0.929 . S
C245 C225 1.449 . S
C245 C244 1.399 . S
C245 H251 0.930 . S
H246 C226 0.931 . S
H247 C227 0.930 . S
H248 C235 0.931 . S
H249 C236 0.929 . S
H250 C244 0.929 . S
H251 C245 0.930 . S
Mn252 O257 2.095 . S
Mn252 O267 2.162 . S
Mn252 O268 2.297 . S
Mn252 O276 2.385 . S
Mn252 O277 2.209 . S
Mn252 O278 2.094 . S
Mn253 O258 2.121 . S
Mn253 N260 2.257 . S
Mn253 N269 2.282 . S
Mn253 O277 2.215 . S
Mn253 O279 2.117 . S
C254 O276 1.234 . S
C254 O277 1.283 . S
C255 O267 1.281 . S
C255 O268 1.236 . S
C256 O278 1.240 . S
C256 O279 1.264 . S
O257 Mn252 2.095 . S
O257 C266 1.250 . S
O258 Mn253 2.121 . S
O258 C266 1.258 . S
C259 N260 1.326 . S
C259 C263 1.460 . S
C259 H265 0.929 . S
N260 Mn253 2.257 . S
N260 C259 1.326 . S
N260 C264 1.362 . S
C261 C262 1.258 . S
C261 C264 1.431 . S
C261 C281 1.449 . S
C262 C261 1.258 . S
C262 C263 1.477 . S
C262 H282 0.931 . S
C263 C259 1.460 . S
C263 C262 1.477 . S
C263 H283 0.930 . S
C264 N260 1.362 . S
C264 C261 1.431 . S
C264 C274 1.476 . S
H265 C259 0.929 . S
C266 O257 1.250 . S
C266 O258 1.258 . S
O267 Mn252 2.162 . S
O267 C255 1.281 . S
O268 Mn252 2.297 . S
O268 C255 1.236 . S
N269 Mn253 2.282 . S
N269 C270 1.328 . S
N269 C274 1.318 . S
C270 N269 1.328 . S
C270 C271 1.457 . S
C270 H275 0.929 . S
C271 C270 1.457 . S
C271 C272 1.291 . S
C271 H284 0.931 . S
C272 C271 1.291 . S
C272 C273 1.373 . S
C272 H285 0.929 . S
C273 C272 1.373 . S
C273 C274 1.396 . S
C273 C280 1.403 . S
C274 C264 1.476 . S
C274 N269 1.318 . S
C274 C273 1.396 . S
H275 C270 0.929 . S
O276 Mn252 2.385 . S
O276 C254 1.234 . S
O277 Mn252 2.209 . S
O277 Mn253 2.215 . S
O277 C254 1.283 . S
O278 Mn252 2.094 . S
O278 C256 1.240 . S
O279 Mn253 2.117 . S
O279 C256 1.264 . S
C280 C273 1.403 . S
C280 C281 1.399 . S
C280 H286 0.929 . S
C281 C261 1.449 . S
C281 C280 1.399 . S
C281 H287 0.930 . S
H282 C262 0.931 . S
H283 C263 0.930 . S
H284 C271 0.931 . S
H285 C272 0.929 . S
H286 C280 0.929 . S
H287 C281 0.930 . S
Mn288 O293 2.095 . S
Mn288 O303 2.162 . S
Mn288 O304 2.297 . S
Mn288 O312 2.385 . S
Mn288 O313 2.209 . S
Mn288 O314 2.094 . S
Mn289 O294 2.121 . S
Mn289 N296 2.257 . S
Mn289 N305 2.282 . S
Mn289 O313 2.215 . S
Mn289 O315 2.117 . S
C290 O312 1.234 . S
C290 O313 1.283 . S
C291 O303 1.281 . S
C291 O304 1.236 . S
C292 O314 1.240 . S
C292 O315 1.264 . S
O293 Mn288 2.095 . S
O293 C302 1.250 . S
O294 Mn289 2.121 . S
O294 C302 1.258 . S
C295 N296 1.326 . S
C295 C299 1.460 . S
C295 H301 0.929 . S
N296 Mn289 2.257 . S
N296 C295 1.326 . S
N296 C300 1.362 . S
C297 C298 1.258 . S
C297 C300 1.431 . S
C297 C317 1.449 . S
C298 C297 1.258 . S
C298 C299 1.477 . S
C298 H318 0.931 . S
C299 C295 1.460 . S
C299 C298 1.477 . S
C299 H319 0.930 . S
C300 N296 1.362 . S
C300 C297 1.431 . S
C300 C310 1.476 . S
H301 C295 0.929 . S
C302 O293 1.250 . S
C302 O294 1.258 . S
O303 Mn288 2.162 . S
O303 C291 1.281 . S
O304 Mn288 2.297 . S
O304 C291 1.236 . S
N305 Mn289 2.282 . S
N305 C306 1.328 . S
N305 C310 1.318 . S
C306 N305 1.328 . S
C306 C307 1.457 . S
C306 H311 0.929 . S
C307 C306 1.457 . S
C307 C308 1.291 . S
C307 H320 0.931 . S
C308 C307 1.291 . S
C308 C309 1.373 . S
C308 H321 0.929 . S
C309 C308 1.373 . S
C309 C310 1.396 . S
C309 C316 1.403 . S
C310 C300 1.476 . S
C310 N305 1.318 . S
C310 C309 1.396 . S
H311 C306 0.929 . S
O312 Mn288 2.385 . S
O312 C290 1.234 . S
O313 Mn288 2.209 . S
O313 Mn289 2.215 . S
O313 C290 1.283 . S
O314 Mn288 2.094 . S
O314 C292 1.240 . S
O315 Mn289 2.117 . S
O315 C292 1.264 . S
C316 C309 1.403 . S
C316 C317 1.399 . S
C316 H322 0.929 . S
C317 C297 1.449 . S
C317 C316 1.399 . S
C317 H323 0.930 . S
H318 C298 0.931 . S
H319 C299 0.930 . S
H320 C307 0.931 . S
H321 C308 0.929 . S
H322 C316 0.929 . S
H323 C317 0.930 . S
Mn324 O329 2.095 . S
Mn324 O339 2.162 . S
Mn324 O340 2.297 . S
Mn324 O348 2.385 . S
Mn324 O349 2.209 . S
Mn324 O350 2.094 . S
Mn325 O330 2.121 . S
Mn325 N332 2.257 . S
Mn325 N341 2.282 . S
Mn325 O349 2.215 . S
Mn325 O351 2.117 . S
C326 O348 1.234 . S
C326 O349 1.283 . S
C327 O339 1.281 . S
C327 O340 1.236 . S
C328 O350 1.240 . S
C328 O351 1.264 . S
O329 Mn324 2.095 . S
O329 C338 1.250 . S
O330 Mn325 2.121 . S
O330 C338 1.258 . S
C331 N332 1.326 . S
C331 C335 1.460 . S
C331 H337 0.929 . S
N332 Mn325 2.257 . S
N332 C331 1.326 . S
N332 C336 1.362 . S
C333 C334 1.258 . S
C333 C336 1.431 . S
C333 C353 1.449 . S
C334 C333 1.258 . S
C334 C335 1.477 . S
C334 H354 0.931 . S
C335 C331 1.460 . S
C335 C334 1.477 . S
C335 H355 0.930 . S
C336 N332 1.362 . S
C336 C333 1.431 . S
C336 C346 1.476 . S
H337 C331 0.929 . S
C338 O329 1.250 . S
C338 O330 1.258 . S
O339 Mn324 2.162 . S
O339 C327 1.281 . S
O340 Mn324 2.297 . S
O340 C327 1.236 . S
N341 Mn325 2.282 . S
N341 C342 1.328 . S
N341 C346 1.318 . S
C342 N341 1.328 . S
C342 C343 1.457 . S
C342 H347 0.929 . S
C343 C342 1.457 . S
C343 C344 1.291 . S
C343 H356 0.931 . S
C344 C343 1.291 . S
C344 C345 1.373 . S
C344 H357 0.929 . S
C345 C344 1.373 . S
C345 C346 1.396 . S
C345 C352 1.403 . S
C346 C336 1.476 . S
C346 N341 1.318 . S
C346 C345 1.396 . S
H347 C342 0.929 . S
O348 Mn324 2.385 . S
O348 C326 1.234 . S
O349 Mn324 2.209 . S
O349 Mn325 2.215 . S
O349 C326 1.283 . S
O350 Mn324 2.094 . S
O350 C328 1.240 . S
O351 Mn325 2.117 . S
O351 C328 1.264 . S
C352 C345 1.403 . S
C352 C353 1.399 . S
C352 H358 0.929 . S
C353 C333 1.449 . S
C353 C352 1.399 . S
C353 H359 0.930 . S
H354 C334 0.931 . S
H355 C335 0.930 . S
H356 C343 0.931 . S
H357 C344 0.929 . S
H358 C352 0.929 . S
H359 C353 0.930 . S
Mn360 O365 2.095 . S
Mn360 O375 2.162 . S
Mn360 O376 2.297 . S
Mn360 O384 2.385 . S
Mn360 O385 2.209 . S
Mn360 O386 2.094 . S
Mn361 O366 2.121 . S
Mn361 N368 2.257 . S
Mn361 N377 2.282 . S
Mn361 O385 2.215 . S
Mn361 O387 2.117 . S
C362 O384 1.234 . S
C362 O385 1.283 . S
C363 O375 1.281 . S
C363 O376 1.236 . S
C364 O386 1.240 . S
C364 O387 1.264 . S
O365 Mn360 2.095 . S
O365 C374 1.250 . S
O366 Mn361 2.121 . S
O366 C374 1.258 . S
C367 N368 1.326 . S
C367 C371 1.460 . S
C367 H373 0.929 . S
N368 Mn361 2.257 . S
N368 C367 1.326 . S
N368 C372 1.362 . S
C369 C370 1.258 . S
C369 C372 1.431 . S
C369 C389 1.449 . S
C370 C369 1.258 . S
C370 C371 1.477 . S
C370 H390 0.931 . S
C371 C367 1.460 . S
C371 C370 1.477 . S
C371 H391 0.930 . S
C372 N368 1.362 . S
C372 C369 1.431 . S
C372 C382 1.476 . S
H373 C367 0.929 . S
C374 O365 1.250 . S
C374 O366 1.258 . S
O375 Mn360 2.162 . S
O375 C363 1.281 . S
O376 Mn360 2.297 . S
O376 C363 1.236 . S
N377 Mn361 2.282 . S
N377 C378 1.328 . S
N377 C382 1.318 . S
C378 N377 1.328 . S
C378 C379 1.457 . S
C378 H383 0.929 . S
C379 C378 1.457 . S
C379 C380 1.291 . S
C379 H392 0.931 . S
C380 C379 1.291 . S
C380 C381 1.373 . S
C380 H393 0.929 . S
C381 C380 1.373 . S
C381 C382 1.396 . S
C381 C388 1.403 . S
C382 C372 1.476 . S
C382 N377 1.318 . S
C382 C381 1.396 . S
H383 C378 0.929 . S
O384 Mn360 2.385 . S
O384 C362 1.234 . S
O385 Mn360 2.209 . S
O385 Mn361 2.215 . S
O385 C362 1.283 . S
O386 Mn360 2.094 . S
O386 C364 1.240 . S
O387 Mn361 2.117 . S
O387 C364 1.264 . S
C388 C381 1.403 . S
C388 C389 1.399 . S
C388 H394 0.929 . S
C389 C369 1.449 . S
C389 C388 1.399 . S
C389 H395 0.930 . S
H390 C370 0.931 . S
H391 C371 0.930 . S
H392 C379 0.931 . S
H393 C380 0.929 . S
H394 C388 0.929 . S
H395 C389 0.930 . S
Mn396 O401 2.095 . S
Mn396 O411 2.162 . S
Mn396 O412 2.297 . S
Mn396 O420 2.385 . S
Mn396 O421 2.209 . S
Mn396 O422 2.094 . S
Mn397 O402 2.121 . S
Mn397 N404 2.257 . S
Mn397 N413 2.282 . S
Mn397 O421 2.215 . S
Mn397 O423 2.117 . S
C398 O420 1.234 . S
C398 O421 1.283 . S
C399 O411 1.281 . S
C399 O412 1.236 . S
C400 O422 1.240 . S
C400 O423 1.264 . S
O401 Mn396 2.095 . S
O401 C410 1.250 . S
O402 Mn397 2.121 . S
O402 C410 1.258 . S
C403 N404 1.326 . S
C403 C407 1.460 . S
C403 H409 0.929 . S
N404 Mn397 2.257 . S
N404 C403 1.326 . S
N404 C408 1.362 . S
C405 C406 1.258 . S
C405 C408 1.431 . S
C405 C425 1.449 . S
C406 C405 1.258 . S
C406 C407 1.477 . S
C406 H426 0.931 . S
C407 C403 1.460 . S
C407 C406 1.477 . S
C407 H427 0.930 . S
C408 N404 1.362 . S
C408 C405 1.431 . S
C408 C418 1.476 . S
H409 C403 0.929 . S
C410 O401 1.250 . S
C410 O402 1.258 . S
O411 Mn396 2.162 . S
O411 C399 1.281 . S
O412 Mn396 2.297 . S
O412 C399 1.236 . S
N413 Mn397 2.282 . S
N413 C414 1.328 . S
N413 C418 1.318 . S
C414 N413 1.328 . S
C414 C415 1.457 . S
C414 H419 0.929 . S
C415 C414 1.457 . S
C415 C416 1.291 . S
C415 H428 0.931 . S
C416 C415 1.291 . S
C416 C417 1.373 . S
C416 H429 0.929 . S
C417 C416 1.373 . S
C417 C418 1.396 . S
C417 C424 1.403 . S
C418 C408 1.476 . S
C418 N413 1.318 . S
C418 C417 1.396 . S
H419 C414 0.929 . S
O420 Mn396 2.385 . S
O420 C398 1.234 . S
O421 Mn396 2.209 . S
O421 Mn397 2.215 . S
O421 C398 1.283 . S
O422 Mn396 2.094 . S
O422 C400 1.240 . S
O423 Mn397 2.117 . S
O423 C400 1.264 . S
C424 C417 1.403 . S
C424 C425 1.399 . S
C424 H430 0.929 . S
C425 C405 1.449 . S
C425 C424 1.399 . S
C425 H431 0.930 . S
H426 C406 0.931 . S
H427 C407 0.930 . S
H428 C415 0.931 . S
H429 C416 0.929 . S
H430 C424 0.929 . S
H431 C425 0.930 . S
Mn432 O437 2.095 . S
Mn432 O447 2.162 . S
Mn432 O448 2.297 . S
Mn432 O456 2.385 . S
Mn432 O457 2.209 . S
Mn432 O458 2.094 . S
Mn433 O438 2.121 . S
Mn433 N440 2.257 . S
Mn433 N449 2.282 . S
Mn433 O457 2.215 . S
Mn433 O459 2.117 . S
C434 O456 1.234 . S
C434 O457 1.283 . S
C435 O447 1.281 . S
C435 O448 1.236 . S
C436 O458 1.240 . S
C436 O459 1.264 . S
O437 Mn432 2.095 . S
O437 C446 1.250 . S
O438 Mn433 2.121 . S
O438 C446 1.258 . S
C439 N440 1.326 . S
C439 C443 1.460 . S
C439 H445 0.929 . S
N440 Mn433 2.257 . S
N440 C439 1.326 . S
N440 C444 1.362 . S
C441 C442 1.258 . S
C441 C444 1.431 . S
C441 C461 1.449 . S
C442 C441 1.258 . S
C442 C443 1.477 . S
C442 H462 0.931 . S
C443 C439 1.460 . S
C443 C442 1.477 . S
C443 H463 0.930 . S
C444 N440 1.362 . S
C444 C441 1.431 . S
C444 C454 1.476 . S
H445 C439 0.929 . S
C446 O437 1.250 . S
C446 O438 1.258 . S
O447 Mn432 2.162 . S
O447 C435 1.281 . S
O448 Mn432 2.297 . S
O448 C435 1.236 . S
N449 Mn433 2.282 . S
N449 C450 1.328 . S
N449 C454 1.318 . S
C450 N449 1.328 . S
C450 C451 1.457 . S
C450 H455 0.929 . S
C451 C450 1.457 . S
C451 C452 1.291 . S
C451 H464 0.931 . S
C452 C451 1.291 . S
C452 C453 1.373 . S
C452 H465 0.929 . S
C453 C452 1.373 . S
C453 C454 1.396 . S
C453 C460 1.403 . S
C454 C444 1.476 . S
C454 N449 1.318 . S
C454 C453 1.396 . S
H455 C450 0.929 . S
O456 Mn432 2.385 . S
O456 C434 1.234 . S
O457 Mn432 2.209 . S
O457 Mn433 2.215 . S
O457 C434 1.283 . S
O458 Mn432 2.094 . S
O458 C436 1.240 . S
O459 Mn433 2.117 . S
O459 C436 1.264 . S
C460 C453 1.403 . S
C460 C461 1.399 . S
C460 H466 0.929 . S
C461 C441 1.449 . S
C461 C460 1.399 . S
C461 H467 0.930 . S
H462 C442 0.931 . S
H463 C443 0.930 . S
H464 C451 0.931 . S
H465 C452 0.929 . S
H466 C460 0.929 . S
H467 C461 0.930 . S
Mn468 O473 2.095 . S
Mn468 O483 2.162 . S
Mn468 O484 2.297 . S
Mn468 O492 2.385 . S
Mn468 O493 2.209 . S
Mn468 O494 2.094 . S
Mn469 O474 2.121 . S
Mn469 N476 2.257 . S
Mn469 N485 2.282 . S
Mn469 O493 2.215 . S
Mn469 O495 2.117 . S
C470 O492 1.234 . S
C470 O493 1.283 . S
C471 O483 1.281 . S
C471 O484 1.236 . S
C472 O494 1.240 . S
C472 O495 1.264 . S
O473 Mn468 2.095 . S
O473 C482 1.250 . S
O474 Mn469 2.121 . S
O474 C482 1.258 . S
C475 N476 1.326 . S
C475 C479 1.460 . S
C475 H481 0.929 . S
N476 Mn469 2.257 . S
N476 C475 1.326 . S
N476 C480 1.362 . S
C477 C478 1.258 . S
C477 C480 1.431 . S
C477 C497 1.449 . S
C478 C477 1.258 . S
C478 C479 1.477 . S
C478 H498 0.931 . S
C479 C475 1.460 . S
C479 C478 1.477 . S
C479 H499 0.930 . S
C480 N476 1.362 . S
C480 C477 1.431 . S
C480 C490 1.476 . S
H481 C475 0.929 . S
C482 O473 1.250 . S
C482 O474 1.258 . S
O483 Mn468 2.162 . S
O483 C471 1.281 . S
O484 Mn468 2.297 . S
O484 C471 1.236 . S
N485 Mn469 2.282 . S
N485 C486 1.328 . S
N485 C490 1.318 . S
C486 N485 1.328 . S
C486 C487 1.457 . S
C486 H491 0.929 . S
C487 C486 1.457 . S
C487 C488 1.291 . S
C487 H500 0.931 . S
C488 C487 1.291 . S
C488 C489 1.373 . S
C488 H501 0.929 . S
C489 C488 1.373 . S
C489 C490 1.396 . S
C489 C496 1.403 . S
C490 C480 1.476 . S
C490 N485 1.318 . S
C490 C489 1.396 . S
H491 C486 0.929 . S
O492 Mn468 2.385 . S
O492 C470 1.234 . S
O493 Mn468 2.209 . S
O493 Mn469 2.215 . S
O493 C470 1.283 . S
O494 Mn468 2.094 . S
O494 C472 1.240 . S
O495 Mn469 2.117 . S
O495 C472 1.264 . S
C496 C489 1.403 . S
C496 C497 1.399 . S
C496 H502 0.929 . S
C497 C477 1.449 . S
C497 C496 1.399 . S
C497 H503 0.930 . S
H498 C478 0.931 . S
H499 C479 0.930 . S
H500 C487 0.931 . S
H501 C488 0.929 . S
H502 C496 0.929 . S
H503 C497 0.930 . S
Mn504 O509 2.095 . S
Mn504 O519 2.162 . S
Mn504 O520 2.297 . S
Mn504 O528 2.385 . S
Mn504 O529 2.209 . S
Mn504 O530 2.094 . S
Mn505 O510 2.121 . S
Mn505 N512 2.257 . S
Mn505 N521 2.282 . S
Mn505 O529 2.215 . S
Mn505 O531 2.117 . S
C506 O528 1.234 . S
C506 O529 1.283 . S
C507 O519 1.281 . S
C507 O520 1.236 . S
C508 O530 1.240 . S
C508 O531 1.264 . S
O509 Mn504 2.095 . S
O509 C518 1.250 . S
O510 Mn505 2.121 . S
O510 C518 1.258 . S
C511 N512 1.326 . S
C511 C515 1.460 . S
C511 H517 0.929 . S
N512 Mn505 2.257 . S
N512 C511 1.326 . S
N512 C516 1.362 . S
C513 C514 1.258 . S
C513 C516 1.431 . S
C513 C533 1.449 . S
C514 C513 1.258 . S
C514 C515 1.477 . S
C514 H534 0.931 . S
C515 C511 1.460 . S
C515 C514 1.477 . S
C515 H535 0.930 . S
C516 N512 1.362 . S
C516 C513 1.431 . S
C516 C526 1.476 . S
H517 C511 0.929 . S
C518 O509 1.250 . S
C518 O510 1.258 . S
O519 Mn504 2.162 . S
O519 C507 1.281 . S
O520 Mn504 2.297 . S
O520 C507 1.236 . S
N521 Mn505 2.282 . S
N521 C522 1.328 . S
N521 C526 1.318 . S
C522 N521 1.328 . S
C522 C523 1.457 . S
C522 H527 0.929 . S
C523 C522 1.457 . S
C523 C524 1.291 . S
C523 H536 0.931 . S
C524 C523 1.291 . S
C524 C525 1.373 . S
C524 H537 0.929 . S
C525 C524 1.373 . S
C525 C526 1.396 . S
C525 C532 1.403 . S
C526 C516 1.476 . S
C526 N521 1.318 . S
C526 C525 1.396 . S
H527 C522 0.929 . S
O528 Mn504 2.385 . S
O528 C506 1.234 . S
O529 Mn504 2.209 . S
O529 Mn505 2.215 . S
O529 C506 1.283 . S
O530 Mn504 2.094 . S
O530 C508 1.240 . S
O531 Mn505 2.117 . S
O531 C508 1.264 . S
C532 C525 1.403 . S
C532 C533 1.399 . S
C532 H538 0.929 . S
C533 C513 1.449 . S
C533 C532 1.399 . S
C533 H539 0.930 . S
H534 C514 0.931 . S
H535 C515 0.930 . S
H536 C523 0.931 . S
H537 C524 0.929 . S
H538 C532 0.929 . S
H539 C533 0.930 . S
Mn540 O545 2.095 . S
Mn540 O555 2.162 . S
Mn540 O556 2.297 . S
Mn540 O564 2.385 . S
Mn540 O565 2.209 . S
Mn540 O566 2.094 . S
Mn541 O546 2.121 . S
Mn541 N548 2.257 . S
Mn541 N557 2.282 . S
Mn541 O565 2.215 . S
Mn541 O567 2.117 . S
C542 O564 1.234 . S
C542 O565 1.283 . S
C543 O555 1.281 . S
C543 O556 1.236 . S
C544 O566 1.240 . S
C544 O567 1.264 . S
O545 Mn540 2.095 . S
O545 C554 1.250 . S
O546 Mn541 2.121 . S
O546 C554 1.258 . S
C547 N548 1.326 . S
C547 C551 1.460 . S
C547 H553 0.929 . S
N548 Mn541 2.257 . S
N548 C547 1.326 . S
N548 C552 1.362 . S
C549 C550 1.258 . S
C549 C552 1.431 . S
C549 C569 1.449 . S
C550 C549 1.258 . S
C550 C551 1.477 . S
C550 H570 0.931 . S
C551 C547 1.460 . S
C551 C550 1.477 . S
C551 H571 0.930 . S
C552 N548 1.362 . S
C552 C549 1.431 . S
C552 C562 1.476 . S
H553 C547 0.929 . S
C554 O545 1.250 . S
C554 O546 1.258 . S
O555 Mn540 2.162 . S
O555 C543 1.281 . S
O556 Mn540 2.297 . S
O556 C543 1.236 . S
N557 Mn541 2.282 . S
N557 C558 1.328 . S
N557 C562 1.318 . S
C558 N557 1.328 . S
C558 C559 1.457 . S
C558 H563 0.929 . S
C559 C558 1.457 . S
C559 C560 1.291 . S
C559 H572 0.931 . S
C560 C559 1.291 . S
C560 C561 1.373 . S
C560 H573 0.929 . S
C561 C560 1.373 . S
C561 C562 1.396 . S
C561 C568 1.403 . S
C562 C552 1.476 . S
C562 N557 1.318 . S
C562 C561 1.396 . S
H563 C558 0.929 . S
O564 Mn540 2.385 . S
O564 C542 1.234 . S
O565 Mn540 2.209 . S
O565 Mn541 2.215 . S
O565 C542 1.283 . S
O566 Mn540 2.094 . S
O566 C544 1.240 . S
O567 Mn541 2.117 . S
O567 C544 1.264 . S
C568 C561 1.403 . S
C568 C569 1.399 . S
C568 H574 0.929 . S
C569 C549 1.449 . S
C569 C568 1.399 . S
C569 H575 0.930 . S
H570 C550 0.931 . S
H571 C551 0.930 . S
H572 C559 0.931 . S
H573 C560 0.929 . S
H574 C568 0.929 . S
H575 C569 0.930 . S
H576 C588 0.930 . S
H577 C590 0.930 . S
H578 C591 0.930 . S
H579 C595 0.959 . S
H580 C595 0.959 1_655 S
H581 C595 0.961 . S
H582 C596 0.960 . S
H583 C596 0.961 1_655 S
H584 C596 0.959 . S
H585 C599 0.929 . S
H586 C600 0.931 . S
H587 C602 0.930 . S
C588 H576 0.930 . S
C588 C589 1.399 . S
C588 C593 1.399 . S
C589 C588 1.399 . S
C589 C590 1.376 . S
C590 H577 0.930 . S
C590 C589 1.376 . S
C590 C591 1.388 . S
C591 H578 0.930 . S
C591 C590 1.388 . S
C591 C592 1.390 . S
C592 C591 1.390 . S
C592 C593 1.394 . S
C592 C598 1.465 1_455 S
C593 C588 1.399 . S
C593 C592 1.394 . S
C593 C594 1.516 . S
C594 C593 1.516 . S
C594 C595 1.502 . S
C594 C596 1.561 . S
C594 C597 1.526 1_455 S
C595 H579 0.959 . S
C595 H580 0.959 1_455 S
C595 H581 0.961 . S
C595 C594 1.502 . S
C596 H582 0.960 . S
C596 H583 0.961 1_455 S
C596 H584 0.959 . S
C596 C594 1.561 . S
C597 C594 1.526 1_655 S
C597 C598 1.396 . S
C597 C602 1.390 . S
C598 C592 1.465 1_655 S
C598 C597 1.396 . S
C598 C599 1.399 . S
C599 H585 0.929 . S
C599 C598 1.399 . S
C599 C600 1.385 . S
C600 H586 0.931 . S
C600 C599 1.385 . S
C600 C601 1.389 . S
C601 C600 1.389 . S
C601 C602 1.387 . S
C602 H587 0.930 . S
C602 C597 1.390 . S
C602 C601 1.387 . S
H603 C615 0.930 . S
H604 C617 0.930 . S
H605 C618 0.930 . S
H606 C622 0.959 . S
H607 C622 0.959 1_455 S
H608 C622 0.961 . S
H609 C623 0.960 . S
H610 C623 0.961 1_455 S
H611 C623 0.959 . S
H612 C626 0.929 . S
H613 C627 0.931 . S
H614 C629 0.930 . S
C615 H603 0.930 . S
C615 C616 1.399 . S
C615 C620 1.399 . S
C616 C615 1.399 . S
C616 C617 1.376 . S
C617 H604 0.930 . S
C617 C616 1.376 . S
C617 C618 1.388 . S
C618 H605 0.930 . S
C618 C617 1.388 . S
C618 C619 1.390 . S
C619 C618 1.390 . S
C619 C620 1.394 . S
C619 C625 1.465 1_655 S
C620 C615 1.399 . S
C620 C619 1.394 . S
C620 C621 1.516 . S
C621 C620 1.516 . S
C621 C622 1.502 . S
C621 C623 1.561 . S
C621 C624 1.526 1_655 S
C622 H606 0.959 . S
C622 H607 0.959 1_655 S
C622 H608 0.961 . S
C622 C621 1.502 . S
C623 H609 0.960 . S
C623 H610 0.961 1_655 S
C623 H611 0.959 . S
C623 C621 1.561 . S
C624 C621 1.526 1_455 S
C624 C625 1.396 . S
C624 C629 1.390 . S
C625 C619 1.465 1_455 S
C625 C624 1.396 . S
C625 C626 1.399 . S
C626 H612 0.929 . S
C626 C625 1.399 . S
C626 C627 1.385 . S
C627 H613 0.931 . S
C627 C626 1.385 . S
C627 C628 1.389 . S
C628 C627 1.389 . S
C628 C629 1.387 . S
C629 H614 0.930 . S
C629 C624 1.390 . S
C629 C628 1.387 . S
H630 C642 0.930 . S
H631 C644 0.930 . S
H632 C645 0.930 . S
H633 C649 0.959 . S
H634 C649 0.959 . S
H635 C649 0.961 1_655 S
H636 C650 0.960 1_655 S
H637 C650 0.961 . S
H638 C650 0.959 . S
H639 C653 0.929 . S
H640 C654 0.931 . S
H641 C656 0.930 . S
C642 H630 0.930 . S
C642 C643 1.399 . S
C642 C647 1.399 . S
C643 C642 1.399 . S
C643 C644 1.376 . S
C644 H631 0.930 . S
C644 C643 1.376 . S
C644 C645 1.388 . S
C645 H632 0.930 . S
C645 C644 1.388 . S
C645 C646 1.390 . S
C646 C645 1.390 . S
C646 C647 1.394 . S
C646 C652 1.465 1_655 S
C647 C642 1.399 . S
C647 C646 1.394 . S
C647 C648 1.516 1_655 S
C648 C647 1.516 1_455 S
C648 C649 1.502 . S
C648 C650 1.561 . S
C648 C651 1.526 . S
C649 H633 0.959 . S
C649 H634 0.959 . S
C649 H635 0.961 1_455 S
C649 C648 1.502 . S
C650 H636 0.960 1_455 S
C650 H637 0.961 . S
C650 H638 0.959 . S
C650 C648 1.561 . S
C651 C648 1.526 . S
C651 C652 1.396 . S
C651 C656 1.390 . S
C652 C646 1.465 1_455 S
C652 C651 1.396 . S
C652 C653 1.399 . S
C653 H639 0.929 . S
C653 C652 1.399 . S
C653 C654 1.385 . S
C654 H640 0.931 . S
C654 C653 1.385 . S
C654 C655 1.389 . S
C655 C654 1.389 . S
C655 C656 1.387 . S
C656 H641 0.930 . S
C656 C651 1.390 . S
C656 C655 1.387 . S
H657 C669 0.930 . S
H658 C671 0.930 . S
H659 C672 0.930 . S
H660 C676 0.959 . S
H661 C676 0.959 . S
H662 C676 0.961 1_455 S
H663 C677 0.960 1_455 S
H664 C677 0.961 . S
H665 C677 0.959 . S
H666 C680 0.929 . S
H667 C681 0.931 . S
H668 C683 0.930 . S
C669 H657 0.930 . S
C669 C670 1.399 . S
C669 C674 1.399 . S
C670 C669 1.399 . S
C670 C671 1.376 . S
C671 H658 0.930 . S
C671 C670 1.376 . S
C671 C672 1.388 . S
C672 H659 0.930 . S
C672 C671 1.388 . S
C672 C673 1.390 . S
C673 C672 1.390 . S
C673 C674 1.394 . S
C673 C679 1.465 1_455 S
C674 C669 1.399 . S
C674 C673 1.394 . S
C674 C675 1.516 1_455 S
C675 C674 1.516 1_655 S
C675 C676 1.502 . S
C675 C677 1.561 . S
C675 C678 1.526 . S
C676 H660 0.959 . S
C676 H661 0.959 . S
C676 H662 0.961 1_655 S
C676 C675 1.502 . S
C677 H663 0.960 1_655 S
C677 H664 0.961 . S
C677 H665 0.959 . S
C677 C675 1.561 . S
C678 C675 1.526 . S
C678 C679 1.396 . S
C678 C683 1.390 . S
C679 C673 1.465 1_655 S
C679 C678 1.396 . S
C679 C680 1.399 . S
C680 H666 0.929 . S
C680 C679 1.399 . S
C680 C681 1.385 . S
C681 H667 0.931 . S
C681 C680 1.385 . S
C681 C682 1.389 . S
C682 C681 1.389 . S
C682 C683 1.387 . S
C683 H668 0.930 . S
C683 C678 1.390 . S
C683 C682 1.387 . S
H684 C696 0.930 . S
H685 C698 0.930 . S
H686 C699 0.930 . S
H687 C703 0.959 . S
H688 C703 0.959 . S
H689 C703 0.961 . S
H690 C704 0.960 . S
H691 C704 0.961 . S
H692 C704 0.959 . S
H693 C707 0.929 . S
H694 C708 0.931 . S
H695 C710 0.930 . S
C696 H684 0.930 . S
C696 C697 1.399 . S
C696 C701 1.399 . S
C697 C696 1.399 . S
C697 C698 1.376 . S
C698 H685 0.930 . S
C698 C697 1.376 . S
C698 C699 1.388 . S
C699 H686 0.930 . S
C699 C698 1.388 . S
C699 C700 1.390 . S
C700 C699 1.390 . S
C700 C701 1.394 . S
C700 C706 1.465 . S
C701 C696 1.399 . S
C701 C700 1.394 . S
C701 C702 1.516 . S
C702 C701 1.516 . S
C702 C703 1.502 . S
C702 C704 1.561 . S
C702 C705 1.526 . S
C703 H687 0.959 . S
C703 H688 0.959 . S
C703 H689 0.961 . S
C703 C702 1.502 . S
C704 H690 0.960 . S
C704 H691 0.961 . S
C704 H692 0.959 . S
C704 C702 1.561 . S
C705 C702 1.526 . S
C705 C706 1.396 . S
C705 C710 1.390 . S
C706 C700 1.465 . S
C706 C705 1.396 . S
C706 C707 1.399 . S
C707 H693 0.929 . S
C707 C706 1.399 . S
C707 C708 1.385 . S
C708 H694 0.931 . S
C708 C707 1.385 . S
C708 C709 1.389 . S
C709 C708 1.389 . S
C709 C710 1.387 . S
C710 H695 0.930 . S
C710 C705 1.390 . S
C710 C709 1.387 . S
H711 C723 0.930 . S
H712 C725 0.930 . S
H713 C726 0.930 . S
H714 C730 0.959 . S
H715 C730 0.959 . S
H716 C730 0.961 . S
H717 C731 0.960 . S
H718 C731 0.961 . S
H719 C731 0.959 . S
H720 C734 0.929 . S
H721 C735 0.931 . S
H722 C737 0.930 . S
C723 H711 0.930 . S
C723 C724 1.399 . S
C723 C728 1.399 . S
C724 C723 1.399 . S
C724 C725 1.376 . S
C725 H712 0.930 . S
C725 C724 1.376 . S
C725 C726 1.388 . S
C726 H713 0.930 . S
C726 C725 1.388 . S
C726 C727 1.390 . S
C727 C726 1.390 . S
C727 C728 1.394 . S
C727 C733 1.465 . S
C728 C723 1.399 . S
C728 C727 1.394 . S
C728 C729 1.516 . S
C729 C728 1.516 . S
C729 C730 1.502 . S
C729 C731 1.561 . S
C729 C732 1.526 . S
C730 H714 0.959 . S
C730 H715 0.959 . S
C730 H716 0.961 . S
C730 C729 1.502 . S
C731 H717 0.960 . S
C731 H718 0.961 . S
C731 H719 0.959 . S
C731 C729 1.561 . S
C732 C729 1.526 . S
C732 C733 1.396 . S
C732 C737 1.390 . S
C733 C727 1.465 . S
C733 C732 1.396 . S
C733 C734 1.399 . S
C734 H720 0.929 . S
C734 C733 1.399 . S
C734 C735 1.385 . S
C735 H721 0.931 . S
C735 C734 1.385 . S
C735 C736 1.389 . S
C736 C735 1.389 . S
C736 C737 1.387 . S
C737 H722 0.930 . S
C737 C732 1.390 . S
C737 C736 1.387 . S
H738 C750 0.930 . S
H739 C752 0.930 . S
H740 C753 0.930 . S
H741 C757 0.959 . S
H742 C757 0.959 . S
H743 C757 0.961 . S
H744 C758 0.960 . S
H745 C758 0.961 . S
H746 C758 0.959 . S
H747 C761 0.929 . S
H748 C762 0.931 . S
H749 C764 0.930 . S
C750 H738 0.930 . S
C750 C751 1.399 . S
C750 C755 1.399 . S
C751 C750 1.399 . S
C751 C752 1.376 . S
C752 H739 0.930 . S
C752 C751 1.376 . S
C752 C753 1.388 . S
C753 H740 0.930 . S
C753 C752 1.388 . S
C753 C754 1.390 . S
C754 C753 1.390 . S
C754 C755 1.394 . S
C754 C760 1.465 . S
C755 C750 1.399 . S
C755 C754 1.394 . S
C755 C756 1.516 . S
C756 C755 1.516 . S
C756 C757 1.502 . S
C756 C758 1.561 . S
C756 C759 1.526 . S
C757 H741 0.959 . S
C757 H742 0.959 . S
C757 H743 0.961 . S
C757 C756 1.502 . S
C758 H744 0.960 . S
C758 H745 0.961 . S
C758 H746 0.959 . S
C758 C756 1.561 . S
C759 C756 1.526 . S
C759 C760 1.396 . S
C759 C764 1.390 . S
C760 C754 1.465 . S
C760 C759 1.396 . S
C760 C761 1.399 . S
C761 H747 0.929 . S
C761 C760 1.399 . S
C761 C762 1.385 . S
C762 H748 0.931 . S
C762 C761 1.385 . S
C762 C763 1.389 . S
C763 C762 1.389 . S
C763 C764 1.387 . S
C764 H749 0.930 . S
C764 C759 1.390 . S
C764 C763 1.387 . S
H765 C777 0.930 . S
H766 C779 0.930 . S
H767 C780 0.930 . S
H768 C784 0.959 . S
H769 C784 0.959 . S
H770 C784 0.961 . S
H771 C785 0.960 . S
H772 C785 0.961 . S
H773 C785 0.959 . S
H774 C788 0.929 . S
H775 C789 0.931 . S
H776 C791 0.930 . S
C777 H765 0.930 . S
C777 C778 1.399 . S
C777 C782 1.399 . S
C778 C777 1.399 . S
C778 C779 1.376 . S
C779 H766 0.930 . S
C779 C778 1.376 . S
C779 C780 1.388 . S
C780 H767 0.930 . S
C780 C779 1.388 . S
C780 C781 1.390 . S
C781 C780 1.390 . S
C781 C782 1.394 . S
C781 C787 1.465 . S
C782 C777 1.399 . S
C782 C781 1.394 . S
C782 C783 1.516 . S
C783 C782 1.516 . S
C783 C784 1.502 . S
C783 C785 1.561 . S
C783 C786 1.526 . S
C784 H768 0.959 . S
C784 H769 0.959 . S
C784 H770 0.961 . S
C784 C783 1.502 . S
C785 H771 0.960 . S
C785 H772 0.961 . S
C785 H773 0.959 . S
C785 C783 1.561 . S
C786 C783 1.526 . S
C786 C787 1.396 . S
C786 C791 1.390 . S
C787 C781 1.465 . S
C787 C786 1.396 . S
C787 C788 1.399 . S
C788 H774 0.929 . S
C788 C787 1.399 . S
C788 C789 1.385 . S
C789 H775 0.931 . S
C789 C788 1.385 . S
C789 C790 1.389 . S
C790 C789 1.389 . S
C790 C791 1.387 . S
C791 H776 0.930 . S
C791 C786 1.390 . S
C791 C790 1.387 . S
H792 C804 0.930 . S
H793 C806 0.930 . S
H794 C807 0.930 . S
H795 C811 0.959 . S
H796 C811 0.959 . S
H797 C811 0.961 . S
H798 C812 0.960 . S
H799 C812 0.961 . S
H800 C812 0.959 . S
H801 C815 0.929 . S
H802 C816 0.931 . S
H803 C818 0.930 . S
C804 H792 0.930 . S
C804 C805 1.399 . S
C804 C809 1.399 . S
C805 C804 1.399 . S
C805 C806 1.376 . S
C806 H793 0.930 . S
C806 C805 1.376 . S
C806 C807 1.388 . S
C807 H794 0.930 . S
C807 C806 1.388 . S
C807 C808 1.390 . S
C808 C807 1.390 . S
C808 C809 1.394 . S
C808 C814 1.465 . S
C809 C804 1.399 . S
C809 C808 1.394 . S
C809 C810 1.516 . S
C810 C809 1.516 . S
C810 C811 1.502 . S
C810 C812 1.561 . S
C810 C813 1.526 . S
C811 H795 0.959 . S
C811 H796 0.959 . S
C811 H797 0.961 . S
C811 C810 1.502 . S
C812 H798 0.960 . S
C812 H799 0.961 . S
C812 H800 0.959 . S
C812 C810 1.561 . S
C813 C810 1.526 . S
C813 C814 1.396 . S
C813 C818 1.390 . S
C814 C808 1.465 . S
C814 C813 1.396 . S
C814 C815 1.399 . S
C815 H801 0.929 . S
C815 C814 1.399 . S
C815 C816 1.385 . S
C816 H802 0.931 . S
C816 C815 1.385 . S
C816 C817 1.389 . S
C817 C816 1.389 . S
C817 C818 1.387 . S
C818 H803 0.930 . S
C818 C813 1.390 . S
C818 C817 1.387 . S
H819 C831 0.930 . S
H820 C833 0.930 . S
H821 C834 0.930 . S
H822 C838 0.959 . S
H823 C838 0.959 . S
H824 C838 0.961 . S
H825 C839 0.960 . S
H826 C839 0.961 . S
H827 C839 0.959 . S
H828 C842 0.929 . S
H829 C843 0.931 . S
H830 C845 0.930 . S
C831 H819 0.930 . S
C831 C832 1.399 . S
C831 C836 1.399 . S
C832 C831 1.399 . S
C832 C833 1.376 . S
C833 H820 0.930 . S
C833 C832 1.376 . S
C833 C834 1.388 . S
C834 H821 0.930 . S
C834 C833 1.388 . S
C834 C835 1.390 . S
C835 C834 1.390 . S
C835 C836 1.394 . S
C835 C841 1.465 . S
C836 C831 1.399 . S
C836 C835 1.394 . S
C836 C837 1.516 . S
C837 C836 1.516 . S
C837 C838 1.502 . S
C837 C839 1.561 . S
C837 C840 1.526 . S
C838 H822 0.959 . S
C838 H823 0.959 . S
C838 H824 0.961 . S
C838 C837 1.502 . S
C839 H825 0.960 . S
C839 H826 0.961 . S
C839 H827 0.959 . S
C839 C837 1.561 . S
C840 C837 1.526 . S
C840 C841 1.396 . S
C840 C845 1.390 . S
C841 C835 1.465 . S
C841 C840 1.396 . S
C841 C842 1.399 . S
C842 H828 0.929 . S
C842 C841 1.399 . S
C842 C843 1.385 . S
C843 H829 0.931 . S
C843 C842 1.385 . S
C843 C844 1.389 . S
C844 C843 1.389 . S
C844 C845 1.387 . S
C845 H830 0.930 . S
C845 C840 1.390 . S
C845 C844 1.387 . S
H846 C858 0.930 . S
H847 C860 0.930 . S
H848 C861 0.930 . S
H849 C865 0.959 . S
H850 C865 0.959 . S
H851 C865 0.961 . S
H852 C866 0.960 . S
H853 C866 0.961 . S
H854 C866 0.959 . S
H855 C869 0.929 . S
H856 C870 0.931 . S
H857 C872 0.930 . S
C858 H846 0.930 . S
C858 C859 1.399 . S
C858 C863 1.399 . S
C859 C858 1.399 . S
C859 C860 1.376 . S
C860 H847 0.930 . S
C860 C859 1.376 . S
C860 C861 1.388 . S
C861 H848 0.930 . S
C861 C860 1.388 . S
C861 C862 1.390 . S
C862 C861 1.390 . S
C862 C863 1.394 . S
C862 C868 1.465 . S
C863 C858 1.399 . S
C863 C862 1.394 . S
C863 C864 1.516 . S
C864 C863 1.516 . S
C864 C865 1.502 . S
C864 C866 1.561 . S
C864 C867 1.526 . S
C865 H849 0.959 . S
C865 H850 0.959 . S
C865 H851 0.961 . S
C865 C864 1.502 . S
C866 H852 0.960 . S
C866 H853 0.961 . S
C866 H854 0.959 . S
C866 C864 1.561 . S
C867 C864 1.526 . S
C867 C868 1.396 . S
C867 C872 1.390 . S
C868 C862 1.465 . S
C868 C867 1.396 . S
C868 C869 1.399 . S
C869 H855 0.929 . S
C869 C868 1.399 . S
C869 C870 1.385 . S
C870 H856 0.931 . S
C870 C869 1.385 . S
C870 C871 1.389 . S
C871 C870 1.389 . S
C871 C872 1.387 . S
C872 H857 0.930 . S
C872 C867 1.390 . S
C872 C871 1.387 . S
H873 C885 0.930 . S
H874 C887 0.930 . S
H875 C888 0.930 . S
H876 C892 0.959 . S
H877 C892 0.959 . S
H878 C892 0.961 . S
H879 C893 0.960 . S
H880 C893 0.961 . S
H881 C893 0.959 . S
H882 C896 0.929 . S
H883 C897 0.931 . S
H884 C899 0.930 . S
C885 H873 0.930 . S
C885 C886 1.399 . S
C885 C890 1.399 . S
C886 C885 1.399 . S
C886 C887 1.376 . S
C887 H874 0.930 . S
C887 C886 1.376 . S
C887 C888 1.388 . S
C888 H875 0.930 . S
C888 C887 1.388 . S
C888 C889 1.390 . S
C889 C888 1.390 . S
C889 C890 1.394 . S
C889 C895 1.465 . S
C890 C885 1.399 . S
C890 C889 1.394 . S
C890 C891 1.516 . S
C891 C890 1.516 . S
C891 C892 1.502 . S
C891 C893 1.561 . S
C891 C894 1.526 . S
C892 H876 0.959 . S
C892 H877 0.959 . S
C892 H878 0.961 . S
C892 C891 1.502 . S
C893 H879 0.960 . S
C893 H880 0.961 . S
C893 H881 0.959 . S
C893 C891 1.561 . S
C894 C891 1.526 . S
C894 C895 1.396 . S
C894 C899 1.390 . S
C895 C889 1.465 . S
C895 C894 1.396 . S
C895 C896 1.399 . S
C896 H882 0.929 . S
C896 C895 1.399 . S
C896 C897 1.385 . S
C897 H883 0.931 . S
C897 C896 1.385 . S
C897 C898 1.389 . S
C898 C897 1.389 . S
C898 C899 1.387 . S
C899 H884 0.930 . S
C899 C894 1.390 . S
C899 C898 1.387 . S
H900 C912 0.930 . S
H901 C914 0.930 . S
H902 C915 0.930 . S
H903 C919 0.959 . S
H904 C919 0.959 . S
H905 C919 0.961 . S
H906 C920 0.960 . S
H907 C920 0.961 . S
H908 C920 0.959 . S
H909 C923 0.929 . S
H910 C924 0.931 . S
H911 C926 0.930 . S
C912 H900 0.930 . S
C912 C913 1.399 . S
C912 C917 1.399 . S
C913 C912 1.399 . S
C913 C914 1.376 . S
C914 H901 0.930 . S
C914 C913 1.376 . S
C914 C915 1.388 . S
C915 H902 0.930 . S
C915 C914 1.388 . S
C915 C916 1.390 . S
C916 C915 1.390 . S
C916 C917 1.394 . S
C916 C922 1.465 . S
C917 C912 1.399 . S
C917 C916 1.394 . S
C917 C918 1.516 . S
C918 C917 1.516 . S
C918 C919 1.502 . S
C918 C920 1.561 . S
C918 C921 1.526 . S
C919 H903 0.959 . S
C919 H904 0.959 . S
C919 H905 0.961 . S
C919 C918 1.502 . S
C920 H906 0.960 . S
C920 H907 0.961 . S
C920 H908 0.959 . S
C920 C918 1.561 . S
C921 C918 1.526 . S
C921 C922 1.396 . S
C921 C926 1.390 . S
C922 C916 1.465 . S
C922 C921 1.396 . S
C922 C923 1.399 . S
C923 H909 0.929 . S
C923 C922 1.399 . S
C923 C924 1.385 . S
C924 H910 0.931 . S
C924 C923 1.385 . S
C924 C925 1.389 . S
C925 C924 1.389 . S
C925 C926 1.387 . S
C926 H911 0.930 . S
C926 C921 1.390 . S
C926 C925 1.387 . S
H927 C939 0.930 . S
H928 C941 0.930 . S
H929 C942 0.930 . S
H930 C946 0.959 . S
H931 C946 0.959 . S
H932 C946 0.961 . S
H933 C947 0.960 . S
H934 C947 0.961 . S
H935 C947 0.959 . S
H936 C950 0.929 . S
H937 C951 0.931 . S
H938 C953 0.930 . S
C939 H927 0.930 . S
C939 C940 1.399 . S
C939 C944 1.399 . S
C940 C939 1.399 . S
C940 C941 1.376 . S
C941 H928 0.930 . S
C941 C940 1.376 . S
C941 C942 1.388 . S
C942 H929 0.930 . S
C942 C941 1.388 . S
C942 C943 1.390 . S
C943 C942 1.390 . S
C943 C944 1.394 . S
C943 C949 1.465 . S
C944 C939 1.399 . S
C944 C943 1.394 . S
C944 C945 1.516 . S
C945 C944 1.516 . S
C945 C946 1.502 . S
C945 C947 1.561 . S
C945 C948 1.526 . S
C946 H930 0.959 . S
C946 H931 0.959 . S
C946 H932 0.961 . S
C946 C945 1.502 . S
C947 H933 0.960 . S
C947 H934 0.961 . S
C947 H935 0.959 . S
C947 C945 1.561 . S
C948 C945 1.526 . S
C948 C949 1.396 . S
C948 C953 1.390 . S
C949 C943 1.465 . S
C949 C948 1.396 . S
C949 C950 1.399 . S
C950 H936 0.929 . S
C950 C949 1.399 . S
C950 C951 1.385 . S
C951 H937 0.931 . S
C951 C950 1.385 . S
C951 C952 1.389 . S
C952 C951 1.389 . S
C952 C953 1.387 . S
C953 H938 0.930 . S
C953 C948 1.390 . S
C953 C952 1.387 . S
H954 C966 0.930 . S
H955 C968 0.930 . S
H956 C969 0.930 . S
H957 C973 0.959 . S
H958 C973 0.959 . S
H959 C973 0.961 . S
H960 C974 0.960 . S
H961 C974 0.961 . S
H962 C974 0.959 . S
H963 C977 0.929 . S
H964 C978 0.931 . S
H965 C980 0.930 . S
C966 H954 0.930 . S
C966 C967 1.399 . S
C966 C971 1.399 . S
C967 C966 1.399 . S
C967 C968 1.376 . S
C968 H955 0.930 . S
C968 C967 1.376 . S
C968 C969 1.388 . S
C969 H956 0.930 . S
C969 C968 1.388 . S
C969 C970 1.390 . S
C970 C969 1.390 . S
C970 C971 1.394 . S
C970 C976 1.465 . S
C971 C966 1.399 . S
C971 C970 1.394 . S
C971 C972 1.516 . S
C972 C971 1.516 . S
C972 C973 1.502 . S
C972 C974 1.561 . S
C972 C975 1.526 . S
C973 H957 0.959 . S
C973 H958 0.959 . S
C973 H959 0.961 . S
C973 C972 1.502 . S
C974 H960 0.960 . S
C974 H961 0.961 . S
C974 H962 0.959 . S
C974 C972 1.561 . S
C975 C972 1.526 . S
C975 C976 1.396 . S
C975 C980 1.390 . S
C976 C970 1.465 . S
C976 C975 1.396 . S
C976 C977 1.399 . S
C977 H963 0.929 . S
C977 C976 1.399 . S
C977 C978 1.385 . S
C978 H964 0.931 . S
C978 C977 1.385 . S
C978 C979 1.389 . S
C979 C978 1.389 . S
C979 C980 1.387 . S
C980 H965 0.930 . S
C980 C975 1.390 . S
C980 C979 1.387 . S
H981 C993 0.930 . S
H982 C995 0.930 . S
H983 C996 0.930 . S
H984 C1000 0.959 . S
H985 C1000 0.959 . S
H986 C1000 0.961 . S
H987 C1001 0.960 . S
H988 C1001 0.961 . S
H989 C1001 0.959 . S
H990 C1004 0.929 . S
H991 C1005 0.931 . S
H992 C1007 0.930 . S
C993 H981 0.930 . S
C993 C994 1.399 . S
C993 C998 1.399 . S
C994 C993 1.399 . S
C994 C995 1.376 . S
C995 H982 0.930 . S
C995 C994 1.376 . S
C995 C996 1.388 . S
C996 H983 0.930 . S
C996 C995 1.388 . S
C996 C997 1.390 . S
C997 C996 1.390 . S
C997 C998 1.394 . S
C997 C1003 1.465 . S
C998 C993 1.399 . S
C998 C997 1.394 . S
C998 C999 1.516 . S
C999 C998 1.516 . S
C999 C1000 1.502 . S
C999 C1001 1.561 . S
C999 C1002 1.526 . S
C1000 H984 0.959 . S
C1000 H985 0.959 . S
C1000 H986 0.961 . S
C1000 C999 1.502 . S
C1001 H987 0.960 . S
C1001 H988 0.961 . S
C1001 H989 0.959 . S
C1001 C999 1.561 . S
C1002 C999 1.526 . S
C1002 C1003 1.396 . S
C1002 C1007 1.390 . S
C1003 C997 1.465 . S
C1003 C1002 1.396 . S
C1003 C1004 1.399 . S
C1004 H990 0.929 . S
C1004 C1003 1.399 . S
C1004 C1005 1.385 . S
C1005 H991 0.931 . S
C1005 C1004 1.385 . S
C1005 C1006 1.389 . S
C1006 C1005 1.389 . S
C1006 C1007 1.387 . S
C1007 H992 0.930 . S
C1007 C1002 1.390 . S
C1007 C1006 1.387 . S
H1008 C1020 0.930 . S
H1009 C1022 0.930 . S
H1010 C1023 0.930 . S
H1011 C1027 0.938 1_554 S
H1012 C1027 0.959 . S
H1013 C1027 0.961 . S
H1014 C1028 0.960 . S
H1015 C1028 0.961 . S
H1016 C1028 0.959 . S
H1017 C1031 0.929 . S
H1018 C1032 0.931 . S
H1019 C1034 0.930 . S
C1020 H1008 0.930 . S
C1020 C1021 1.399 . S
C1020 C1025 1.399 . S
C1021 C1020 1.399 . S
C1021 C1022 1.376 . S
C1022 H1009 0.930 . S
C1022 C1021 1.376 . S
C1022 C1023 1.388 1_556 S
C1023 H1010 0.930 . S
C1023 C1022 1.388 1_554 S
C1023 C1024 1.390 1_554 S
C1024 C1023 1.390 1_556 S
C1024 C1025 1.394 . S
C1024 C1030 1.465 1_556 S
C1025 C1020 1.399 . S
C1025 C1024 1.394 . S
C1025 C1026 1.516 . S
C1026 C1025 1.516 . S
C1026 C1027 1.502 . S
C1026 C1028 1.561 . S
C1026 C1029 1.526 1_556 S
C1027 H1011 0.938 1_556 S
C1027 H1012 0.959 . S
C1027 H1013 0.961 . S
C1027 C1026 1.502 . S
C1028 H1014 0.960 . S
C1028 H1015 0.961 . S
C1028 H1016 0.959 . S
C1028 C1026 1.561 . S
C1029 C1026 1.526 1_554 S
C1029 C1030 1.396 . S
C1029 C1034 1.390 . S
C1030 C1024 1.465 1_554 S
C1030 C1029 1.396 . S
C1030 C1031 1.399 . S
C1031 H1017 0.929 . S
C1031 C1030 1.399 . S
C1031 C1032 1.385 . S
C1032 H1018 0.931 . S
C1032 C1031 1.385 . S
C1032 C1033 1.389 . S
C1033 C1032 1.389 . S
C1033 C1034 1.387 . S
C1034 H1019 0.930 . S
C1034 C1029 1.390 . S
C1034 C1033 1.387 . S
H1035 C1047 0.930 . S
H1036 C1049 0.930 . S
H1037 C1050 0.930 . S
H1038 C1054 0.959 . S
H1039 C1054 0.959 . S
H1040 C1054 0.961 . S
H1041 C1055 0.960 . S
H1042 C1055 0.961 . S
H1043 C1055 0.959 . S
H1044 C1058 0.929 . S
H1045 C1059 0.931 . S
H1046 C1061 0.930 . S
C1047 H1035 0.930 . S
C1047 C1048 1.399 . S
C1047 C1052 1.399 . S
C1048 C1047 1.399 . S
C1048 C1049 1.376 . S
C1049 H1036 0.930 . S
C1049 C1048 1.376 . S
C1049 C1050 1.388 . S
C1050 H1037 0.930 . S
C1050 C1049 1.388 . S
C1050 C1051 1.390 . S
C1051 C1050 1.390 . S
C1051 C1052 1.394 . S
C1051 C1057 1.465 . S
C1052 C1047 1.399 . S
C1052 C1051 1.394 . S
C1052 C1053 1.516 . S
C1053 C1052 1.516 . S
C1053 C1054 1.502 . S
C1053 C1055 1.561 . S
C1053 C1056 1.526 . S
C1054 H1038 0.959 . S
C1054 H1039 0.959 . S
C1054 H1040 0.961 . S
C1054 C1053 1.502 . S
C1055 H1041 0.960 . S
C1055 H1042 0.961 . S
C1055 H1043 0.959 . S
C1055 C1053 1.561 . S
C1056 C1053 1.526 . S
C1056 C1057 1.396 . S
C1056 C1061 1.390 . S
C1057 C1051 1.465 . S
C1057 C1056 1.396 . S
C1057 C1058 1.399 . S
C1058 H1044 0.929 . S
C1058 C1057 1.399 . S
C1058 C1059 1.385 . S
C1059 H1045 0.931 . S
C1059 C1058 1.385 . S
C1059 C1060 1.389 . S
C1060 C1059 1.389 . S
C1060 C1061 1.387 . S
C1061 H1046 0.930 . S
C1061 C1056 1.390 . S
C1061 C1060 1.387 . S
H1062 C1074 0.930 . S
H1063 C1076 0.930 . S
H1064 C1077 0.919 1_556 S
H1065 C1081 0.959 . S
H1066 C1081 0.959 . S
H1067 C1081 0.961 . S
H1068 C1082 0.960 1_554 S
H1069 C1082 0.961 . S
H1070 C1082 0.959 . S
H1071 C1085 0.929 . S
H1072 C1086 0.931 . S
H1073 C1088 0.930 . S
C1074 H1062 0.930 . S
C1074 C1075 1.399 . S
C1074 C1079 1.399 . S
C1075 C1074 1.399 . S
C1075 C1076 1.376 . S
C1076 H1063 0.930 . S
C1076 C1075 1.376 . S
C1076 C1077 1.401 . S
C1077 H1064 0.919 1_554 S
C1077 C1076 1.401 . S
C1077 C1078 1.389 1_554 S
C1078 C1077 1.389 1_556 S
C1078 C1079 1.383 1_556 S
C1078 C1084 1.475 . S
C1079 C1074 1.399 . S
C1079 C1078 1.383 1_554 S
C1079 C1080 1.516 . S
C1080 C1079 1.516 . S
C1080 C1081 1.502 . S
C1080 C1082 1.561 1_554 S
C1080 C1083 1.526 1_554 S
C1081 H1065 0.959 . S
C1081 H1066 0.959 . S
C1081 H1067 0.961 . S
C1081 C1080 1.502 . S
C1082 H1068 0.960 1_556 S
C1082 H1069 0.961 . S
C1082 H1070 0.959 . S
C1082 C1080 1.561 1_556 S
C1083 C1080 1.526 1_556 S
C1083 C1084 1.396 . S
C1083 C1088 1.390 . S
C1084 C1078 1.475 . S
C1084 C1083 1.396 . S
C1084 C1085 1.399 . S
C1085 H1071 0.929 . S
C1085 C1084 1.399 . S
C1085 C1086 1.385 . S
C1086 H1072 0.931 . S
C1086 C1085 1.385 . S
C1086 C1087 1.389 . S
C1087 C1086 1.389 . S
C1087 C1088 1.387 . S
C1088 H1073 0.930 . S
C1088 C1083 1.390 . S
C1088 C1087 1.387 . S
H1089 C1101 0.930 . S
H1090 C1103 0.930 . S
H1091 C1104 0.930 . S
H1092 C1108 0.959 . S
H1093 C1108 0.959 . S
H1094 C1108 0.961 . S
H1095 C1109 0.960 . S
H1096 C1109 0.961 . S
H1097 C1109 0.959 . S
H1098 C1112 0.929 . S
H1099 C1113 0.931 . S
H1100 C1115 0.930 . S
C1101 H1089 0.930 . S
C1101 C1102 1.399 . S
C1101 C1106 1.399 . S
C1102 C1101 1.399 . S
C1102 C1103 1.376 . S
C1103 H1090 0.930 . S
C1103 C1102 1.376 . S
C1103 C1104 1.388 . S
C1104 H1091 0.930 . S
C1104 C1103 1.388 . S
C1104 C1105 1.390 . S
C1105 C1104 1.390 . S
C1105 C1106 1.394 . S
C1105 C1111 1.465 . S
C1106 C1101 1.399 . S
C1106 C1105 1.394 . S
C1106 C1107 1.516 . S
C1107 C1106 1.516 . S
C1107 C1108 1.502 . S
C1107 C1109 1.561 . S
C1107 C1110 1.526 . S
C1108 H1092 0.959 . S
C1108 H1093 0.959 . S
C1108 H1094 0.961 . S
C1108 C1107 1.502 . S
C1109 H1095 0.960 . S
C1109 H1096 0.961 . S
C1109 H1097 0.959 . S
C1109 C1107 1.561 . S
C1110 C1107 1.526 . S
C1110 C1111 1.396 . S
C1110 C1115 1.390 . S
C1111 C1105 1.465 . S
C1111 C1110 1.396 . S
C1111 C1112 1.399 . S
C1112 H1098 0.929 . S
C1112 C1111 1.399 . S
C1112 C1113 1.385 . S
C1113 H1099 0.931 . S
C1113 C1112 1.385 . S
C1113 C1114 1.389 . S
C1114 C1113 1.389 . S
C1114 C1115 1.387 . S
C1115 H1100 0.930 . S
C1115 C1110 1.390 . S
C1115 C1114 1.387 . S
H1116 C1128 0.930 . S
H1117 C1130 0.930 1_556 S
H1118 C1131 0.930 . S
H1119 C1135 0.959 . S
H1120 C1135 0.959 . S
H1121 C1135 0.961 . S
H1122 C1136 0.960 . S
H1123 C1136 0.961 . S
H1124 C1136 0.959 . S
H1125 C1139 0.929 . S
H1126 C1140 0.931 . S
H1127 C1142 0.930 1_554 S
C1128 H1116 0.930 . S
C1128 C1129 1.399 . S
C1128 C1133 1.399 . S
C1129 C1128 1.399 . S
C1129 C1130 1.376 . S
C1130 H1117 0.930 1_554 S
C1130 C1129 1.376 . S
C1130 C1131 1.388 1_554 S
C1131 H1118 0.930 . S
C1131 C1130 1.388 1_556 S
C1131 C1132 1.390 . S
C1132 C1131 1.390 . S
C1132 C1133 1.394 1_556 S
C1132 C1138 1.465 . S
C1133 C1128 1.399 . S
C1133 C1132 1.394 1_554 S
C1133 C1134 1.516 . S
C1134 C1133 1.516 . S
C1134 C1135 1.502 . S
C1134 C1136 1.561 . S
C1134 C1137 1.527 . S
C1135 H1119 0.959 . S
C1135 H1120 0.959 . S
C1135 H1121 0.961 . S
C1135 C1134 1.502 . S
C1136 H1122 0.960 . S
C1136 H1123 0.961 . S
C1136 H1124 0.959 . S
C1136 C1134 1.561 . S
C1137 C1134 1.527 . S
C1137 C1138 1.396 1_554 S
C1137 C1142 1.389 1_554 S
C1138 C1132 1.465 . S
C1138 C1137 1.396 1_556 S
C1138 C1139 1.399 . S
C1139 H1125 0.929 . S
C1139 C1138 1.399 . S
C1139 C1140 1.385 . S
C1140 H1126 0.931 . S
C1140 C1139 1.385 . S
C1140 C1141 1.389 . S
C1141 C1140 1.389 . S
C1141 C1142 1.387 . S
C1142 H1127 0.930 1_556 S
C1142 C1137 1.389 1_556 S
C1142 C1141 1.387 . S
H1143 C1155 0.930 . S
H1144 C1157 0.930 . S
H1145 C1158 0.930 . S
H1146 C1162 0.959 . S
H1147 C1162 0.959 . S
H1148 C1162 0.961 . S
H1149 C1163 0.960 . S
H1150 C1163 0.961 . S
H1151 C1163 0.959 . S
H1152 C1166 0.929 . S
H1153 C1167 0.931 . S
H1154 C1169 0.930 . S
C1155 H1143 0.930 . S
C1155 C1156 1.399 . S
C1155 C1160 1.399 . S
C1156 C1155 1.399 . S
C1156 C1157 1.376 . S
C1157 H1144 0.930 . S
C1157 C1156 1.376 . S
C1157 C1158 1.388 . S
C1158 H1145 0.930 . S
C1158 C1157 1.388 . S
C1158 C1159 1.390 . S
C1159 C1158 1.390 . S
C1159 C1160 1.394 . S
C1159 C1165 1.465 . S
C1160 C1155 1.399 . S
C1160 C1159 1.394 . S
C1160 C1161 1.516 . S
C1161 C1160 1.516 . S
C1161 C1162 1.502 . S
C1161 C1163 1.561 . S
C1161 C1164 1.526 . S
C1162 H1146 0.959 . S
C1162 H1147 0.959 . S
C1162 H1148 0.961 . S
C1162 C1161 1.502 . S
C1163 H1149 0.960 . S
C1163 H1150 0.961 . S
C1163 H1151 0.959 . S
C1163 C1161 1.561 . S
C1164 C1161 1.526 . S
C1164 C1165 1.396 . S
C1164 C1169 1.390 . S
C1165 C1159 1.465 . S
C1165 C1164 1.396 . S
C1165 C1166 1.399 . S
C1166 H1152 0.929 . S
C1166 C1165 1.399 . S
C1166 C1167 1.385 . S
C1167 H1153 0.931 . S
C1167 C1166 1.385 . S
C1167 C1168 1.389 . S
C1168 C1167 1.389 . S
C1168 C1169 1.387 . S
C1169 H1154 0.930 . S
C1169 C1164 1.390 . S
C1169 C1168 1.387 . S
H1170 C1182 0.930 . S
H1171 C1184 0.930 . S
H1172 C1185 0.930 . S
H1173 C1189 0.959 . S
H1174 C1189 0.959 . S
H1175 C1189 0.961 . S
H1176 C1190 0.960 . S
H1177 C1190 0.961 . S
H1178 C1190 0.959 . S
H1179 C1193 0.929 . S
H1180 C1194 0.931 . S
H1181 C1196 0.930 . S
C1182 H1170 0.930 . S
C1182 C1183 1.399 . S
C1182 C1187 1.410 . S
C1183 C1182 1.399 . S
C1183 C1184 1.376 . S
C1184 H1171 0.930 . S
C1184 C1183 1.376 . S
C1184 C1185 1.388 . S
C1185 H1172 0.930 . S
C1185 C1184 1.388 . S
C1185 C1186 1.390 . S
C1186 C1185 1.390 . S
C1186 C1187 1.410 . S
C1186 C1192 1.465 . S
C1187 C1182 1.410 . S
C1187 C1186 1.410 . S
C1187 C1188 1.491 1_554 S
C1188 C1187 1.491 1_556 S
C1188 C1189 1.502 . S
C1188 C1190 1.561 . S
C1188 C1191 1.526 . S
C1189 H1173 0.959 . S
C1189 H1174 0.959 . S
C1189 H1175 0.961 . S
C1189 C1188 1.502 . S
C1190 H1176 0.960 . S
C1190 H1177 0.961 . S
C1190 H1178 0.959 . S
C1190 C1188 1.561 . S
C1191 C1188 1.526 . S
C1191 C1192 1.396 1_556 S
C1191 C1196 1.390 . S
C1192 C1186 1.465 . S
C1192 C1191 1.396 1_554 S
C1192 C1193 1.399 . S
C1193 H1179 0.929 . S
C1193 C1192 1.399 . S
C1193 C1194 1.385 1_554 S
C1194 H1180 0.931 . S
C1194 C1193 1.385 1_556 S
C1194 C1195 1.389 . S
C1195 C1194 1.389 . S
C1195 C1196 1.387 . S
C1196 H1181 0.930 . S
C1196 C1191 1.390 . S
C1196 C1195 1.387 . S
H1197 C1209 0.930 . S
H1198 C1211 0.930 . S
H1199 C1212 0.930 . S
H1200 C1216 0.959 . S
H1201 C1216 0.959 . S
H1202 C1216 0.961 . S
H1203 C1217 0.960 . S
H1204 C1217 0.961 . S
H1205 C1217 0.959 . S
H1206 C1220 0.929 . S
H1207 C1221 0.931 . S
H1208 C1223 0.930 . S
C1209 H1197 0.930 . S
C1209 C1210 1.399 . S
C1209 C1214 1.399 . S
C1210 C1209 1.399 . S
C1210 C1211 1.376 . S
C1211 H1198 0.930 . S
C1211 C1210 1.376 . S
C1211 C1212 1.388 . S
C1212 H1199 0.930 . S
C1212 C1211 1.388 . S
C1212 C1213 1.390 . S
C1213 C1212 1.390 . S
C1213 C1214 1.394 . S
C1213 C1219 1.465 . S
C1214 C1209 1.399 . S
C1214 C1213 1.394 . S
C1214 C1215 1.516 . S
C1215 C1214 1.516 . S
C1215 C1216 1.502 . S
C1215 C1217 1.561 . S
C1215 C1218 1.526 . S
C1216 H1200 0.959 . S
C1216 H1201 0.959 . S
C1216 H1202 0.961 . S
C1216 C1215 1.502 . S
C1217 H1203 0.960 . S
C1217 H1204 0.961 . S
C1217 H1205 0.959 . S
C1217 C1215 1.561 . S
C1218 C1215 1.526 . S
C1218 C1219 1.396 . S
C1218 C1223 1.390 . S
C1219 C1213 1.465 . S
C1219 C1218 1.396 . S
C1219 C1220 1.399 . S
C1220 H1206 0.929 . S
C1220 C1219 1.399 . S
C1220 C1221 1.385 . S
C1221 H1207 0.931 . S
C1221 C1220 1.385 . S
C1221 C1222 1.389 . S
C1222 C1221 1.389 . S
C1222 C1223 1.387 . S
C1223 H1208 0.930 . S
C1223 C1218 1.390 . S
C1223 C1222 1.387 . S
H1224 C1236 0.930 . S
H1225 C1238 0.930 1_554 S
H1226 C1239 0.930 . S
H1227 C1243 0.959 . S
H1228 C1243 0.959 . S
H1229 C1243 0.961 . S
H1230 C1244 0.960 . S
H1231 C1244 0.961 . S
H1232 C1244 0.959 . S
H1233 C1247 0.929 . S
H1234 C1248 0.931 . S
H1235 C1250 0.930 1_556 S
C1236 H1224 0.930 . S
C1236 C1237 1.399 . S
C1236 C1241 1.399 . S
C1237 C1236 1.399 . S
C1237 C1238 1.376 . S
C1238 H1225 0.930 1_556 S
C1238 C1237 1.376 . S
C1238 C1239 1.388 1_556 S
C1239 H1226 0.930 . S
C1239 C1238 1.388 1_554 S
C1239 C1240 1.390 . S
C1240 C1239 1.390 . S
C1240 C1241 1.394 1_554 S
C1240 C1246 1.465 . S
C1241 C1236 1.399 . S
C1241 C1240 1.394 1_556 S
C1241 C1242 1.516 . S
C1242 C1241 1.516 . S
C1242 C1243 1.502 . S
C1242 C1244 1.561 . S
C1242 C1245 1.526 . S
C1243 H1227 0.959 . S
C1243 H1228 0.959 . S
C1243 H1229 0.961 . S
C1243 C1242 1.502 . S
C1244 H1230 0.960 . S
C1244 H1231 0.961 . S
C1244 H1232 0.959 . S
C1244 C1242 1.561 . S
C1245 C1242 1.526 . S
C1245 C1246 1.396 1_556 S
C1245 C1250 1.390 1_556 S
C1246 C1240 1.465 . S
C1246 C1245 1.396 1_554 S
C1246 C1247 1.399 . S
C1247 H1233 0.929 . S
C1247 C1246 1.399 . S
C1247 C1248 1.385 . S
C1248 H1234 0.931 . S
C1248 C1247 1.385 . S
C1248 C1249 1.389 . S
C1249 C1248 1.389 . S
C1249 C1250 1.387 . S
C1250 H1235 0.930 1_554 S
C1250 C1245 1.390 1_554 S
C1250 C1249 1.387 . S
H1251 C1263 0.930 . S
H1252 C1265 0.930 . S
H1253 C1266 0.930 . S
H1254 C1270 0.959 . S
H1255 C1270 0.959 . S
H1256 C1270 0.961 . S
H1257 C1271 0.960 . S
H1258 C1271 0.961 . S
H1259 C1271 0.959 . S
H1260 C1274 0.929 . S
H1261 C1275 0.931 . S
H1262 C1277 0.930 . S
C1263 H1251 0.930 . S
C1263 C1264 1.399 . S
C1263 C1268 1.399 . S
C1264 C1263 1.399 . S
C1264 C1265 1.376 . S
C1265 H1252 0.930 . S
C1265 C1264 1.376 . S
C1265 C1266 1.388 . S
C1266 H1253 0.930 . S
C1266 C1265 1.388 . S
C1266 C1267 1.390 . S
C1267 C1266 1.390 . S
C1267 C1268 1.394 . S
C1267 C1273 1.465 . S
C1268 C1263 1.399 . S
C1268 C1267 1.394 . S
C1268 C1269 1.516 . S
C1269 C1268 1.516 . S
C1269 C1270 1.502 . S
C1269 C1271 1.561 . S
C1269 C1272 1.526 . S
C1270 H1254 0.959 . S
C1270 H1255 0.959 . S
C1270 H1256 0.961 . S
C1270 C1269 1.502 . S
C1271 H1257 0.960 . S
C1271 H1258 0.961 . S
C1271 H1259 0.959 . S
C1271 C1269 1.561 . S
C1272 C1269 1.526 . S
C1272 C1273 1.396 . S
C1272 C1277 1.390 . S
C1273 C1267 1.465 . S
C1273 C1272 1.396 . S
C1273 C1274 1.399 . S
C1274 H1260 0.929 . S
C1274 C1273 1.399 . S
C1274 C1275 1.385 . S
C1275 H1261 0.931 . S
C1275 C1274 1.385 . S
C1275 C1276 1.389 . S
C1276 C1275 1.389 . S
C1276 C1277 1.387 . S
C1277 H1262 0.930 . S
C1277 C1272 1.390 . S
C1277 C1276 1.387 . S
H1278 C1290 0.930 . S
H1279 C1292 0.930 . S
H1280 C1293 0.930 . S
H1281 C1297 0.959 . S
H1282 C1297 0.959 . S
H1283 C1297 0.961 . S
H1284 C1298 0.960 . S
H1285 C1298 0.961 . S
H1286 C1298 0.959 . S
H1287 C1301 0.929 . S
H1288 C1302 0.931 . S
H1289 C1304 0.930 1_554 S
C1290 H1278 0.930 . S
C1290 C1291 1.399 . S
C1290 C1295 1.399 . S
C1291 C1290 1.399 . S
C1291 C1292 1.376 1_554 S
C1292 H1279 0.930 . S
C1292 C1291 1.376 1_556 S
C1292 C1293 1.388 . S
C1293 H1280 0.930 . S
C1293 C1292 1.388 . S
C1293 C1294 1.390 . S
C1294 C1293 1.390 . S
C1294 C1295 1.394 1_556 S
C1294 C1300 1.465 . S
C1295 C1290 1.399 . S
C1295 C1294 1.394 1_554 S
C1295 C1296 1.516 . S
C1296 C1295 1.516 . S
C1296 C1297 1.502 . S
C1296 C1298 1.561 . S
C1296 C1299 1.526 . S
C1297 H1281 0.959 . S
C1297 H1282 0.959 . S
C1297 H1283 0.961 . S
C1297 C1296 1.502 . S
C1298 H1284 0.960 . S
C1298 H1285 0.961 . S
C1298 H1286 0.959 . S
C1298 C1296 1.561 . S
C1299 C1296 1.526 . S
C1299 C1300 1.396 1_554 S
C1299 C1304 1.390 1_554 S
C1300 C1294 1.465 . S
C1300 C1299 1.396 1_556 S
C1300 C1301 1.399 . S
C1301 H1287 0.929 . S
C1301 C1300 1.399 . S
C1301 C1302 1.385 . S
C1302 H1288 0.931 . S
C1302 C1301 1.385 . S
C1302 C1303 1.389 . S
C1303 C1302 1.389 . S
C1303 C1304 1.387 . S
C1304 H1289 0.930 1_556 S
C1304 C1299 1.390 1_556 S
C1304 C1303 1.387 . S
H1305 C1317 0.930 . S
H1306 C1319 0.930 . S
H1307 C1320 0.930 . S
H1308 C1324 0.959 . S
H1309 C1324 0.959 . S
H1310 C1324 0.961 . S
H1311 C1325 0.960 . S
H1312 C1325 0.961 . S
H1313 C1325 0.959 . S
H1314 C1328 0.929 . S
H1315 C1329 0.931 . S
H1316 C1331 0.930 . S
C1317 H1305 0.930 . S
C1317 C1318 1.399 . S
C1317 C1322 1.399 . S
C1318 C1317 1.399 . S
C1318 C1319 1.376 . S
C1319 H1306 0.930 . S
C1319 C1318 1.376 . S
C1319 C1320 1.388 . S
C1320 H1307 0.930 . S
C1320 C1319 1.388 . S
C1320 C1321 1.390 . S
C1321 C1320 1.390 . S
C1321 C1322 1.394 . S
C1321 C1327 1.465 . S
C1322 C1317 1.399 . S
C1322 C1321 1.394 . S
C1322 C1323 1.516 . S
C1323 C1322 1.516 . S
C1323 C1324 1.502 . S
C1323 C1325 1.561 . S
C1323 C1326 1.526 . S
C1324 H1308 0.959 . S
C1324 H1309 0.959 . S
C1324 H1310 0.961 . S
C1324 C1323 1.502 . S
C1325 H1311 0.960 . S
C1325 H1312 0.961 . S
C1325 H1313 0.959 . S
C1325 C1323 1.561 . S
C1326 C1323 1.526 . S
C1326 C1327 1.396 . S
C1326 C1331 1.390 . S
C1327 C1321 1.465 . S
C1327 C1326 1.396 . S
C1327 C1328 1.399 . S
C1328 H1314 0.929 . S
C1328 C1327 1.399 . S
C1328 C1329 1.385 . S
C1329 H1315 0.931 . S
C1329 C1328 1.385 . S
C1329 C1330 1.389 . S
C1330 C1329 1.389 . S
C1330 C1331 1.387 . S
C1331 H1316 0.930 . S
C1331 C1326 1.390 . S
C1331 C1330 1.387 . S
H1332 C1344 0.930 1_554 S
H1333 C1346 0.930 . S
H1334 C1347 0.930 . S
H1335 C1351 0.959 . S
H1336 C1351 0.959 . S
H1337 C1351 0.961 . S
H1338 C1352 0.960 . S
H1339 C1352 0.962 1_565 S
H1340 C1352 0.968 . S
H1341 C1355 0.929 . S
H1342 C1356 0.931 1_556 S
H1343 C1358 0.930 . S
C1344 H1332 0.930 1_556 S
C1344 C1345 1.399 . S
C1344 C1349 1.405 . S
C1345 C1344 1.399 . S
C1345 C1346 1.376 . S
C1346 H1333 0.930 . S
C1346 C1345 1.376 . S
C1346 C1347 1.388 . S
C1347 H1334 0.930 . S
C1347 C1346 1.388 . S
C1347 C1348 1.390 . S
C1348 C1347 1.390 . S
C1348 C1349 1.410 . S
C1348 C1354 1.465 1_545 S
C1349 C1344 1.405 . S
C1349 C1348 1.410 . S
C1349 C1350 1.496 1_556 S
C1350 C1349 1.496 1_554 S
C1350 C1351 1.502 . S
C1350 C1352 1.561 . S
C1350 C1353 1.526 1_545 S
C1351 H1335 0.959 . S
C1351 H1336 0.959 . S
C1351 H1337 0.961 . S
C1351 C1350 1.502 . S
C1352 H1338 0.960 . S
C1352 H1339 0.962 1_545 S
C1352 H1340 0.968 . S
C1352 C1350 1.561 . S
C1353 C1350 1.526 1_565 S
C1353 C1354 1.396 1_554 S
C1353 C1358 1.390 . S
C1354 C1348 1.465 1_565 S
C1354 C1353 1.396 1_556 S
C1354 C1355 1.399 . S
C1355 H1341 0.929 . S
C1355 C1354 1.399 . S
C1355 C1356 1.385 1_556 S
C1356 H1342 0.931 1_554 S
C1356 C1355 1.385 1_554 S
C1356 C1357 1.389 . S
C1357 C1356 1.389 . S
C1357 C1358 1.387 . S
C1358 H1343 0.930 . S
C1358 C1353 1.390 . S
C1358 C1357 1.387 . S
H1359 C1371 0.930 . S
H1360 C1373 0.930 . S
H1361 C1374 0.930 . S
H1362 C1378 0.956 1_545 S
H1363 C1378 0.959 1_545 S
H1364 C1378 0.961 . S
H1365 C1379 0.960 . S
H1366 C1379 0.961 . S
H1367 C1379 0.959 . S
H1368 C1382 0.929 . S
H1369 C1383 0.931 . S
H1370 C1385 0.930 . S
C1371 H1359 0.930 . S
C1371 C1372 1.399 . S
C1371 C1376 1.399 . S
C1372 C1371 1.399 . S
C1372 C1373 1.376 . S
C1373 H1360 0.930 . S
C1373 C1372 1.376 . S
C1373 C1374 1.388 . S
C1374 H1361 0.930 . S
C1374 C1373 1.388 . S
C1374 C1375 1.390 . S
C1375 C1374 1.390 . S
C1375 C1376 1.394 . S
C1375 C1381 1.465 1_565 S
C1376 C1371 1.399 . S
C1376 C1375 1.394 . S
C1376 C1377 1.516 . S
C1377 C1376 1.516 . S
C1377 C1378 1.502 . S
C1377 C1379 1.561 . S
C1377 C1380 1.526 1_565 S
C1378 H1362 0.956 1_565 S
C1378 H1363 0.959 1_565 S
C1378 H1364 0.961 . S
C1378 C1377 1.502 . S
C1379 H1365 0.960 . S
C1379 H1366 0.961 . S
C1379 H1367 0.959 . S
C1379 C1377 1.561 . S
C1380 C1377 1.526 1_545 S
C1380 C1381 1.396 . S
C1380 C1385 1.390 . S
C1381 C1375 1.465 1_545 S
C1381 C1380 1.396 . S
C1381 C1382 1.399 . S
C1382 H1368 0.929 . S
C1382 C1381 1.399 . S
C1382 C1383 1.385 . S
C1383 H1369 0.931 . S
C1383 C1382 1.385 . S
C1383 C1384 1.389 . S
C1384 C1383 1.389 . S
C1384 C1385 1.387 . S
C1385 H1370 0.930 . S
C1385 C1380 1.390 . S
C1385 C1384 1.387 . S
H1386 C1398 0.930 . S
H1387 C1400 0.930 . S
H1388 C1401 0.930 . S
H1389 C1405 0.959 . S
H1390 C1405 0.959 . S
H1391 C1405 0.961 . S
H1392 C1406 0.960 . S
H1393 C1406 0.961 . S
H1394 C1406 0.959 . S
H1395 C1409 0.929 . S
H1396 C1410 0.931 . S
H1397 C1412 0.930 1_554 S
C1398 H1386 0.930 . S
C1398 C1399 1.399 . S
C1398 C1403 1.399 . S
C1399 C1398 1.399 . S
C1399 C1400 1.376 1_554 S
C1400 H1387 0.930 . S
C1400 C1399 1.376 1_556 S
C1400 C1401 1.388 . S
C1401 H1388 0.930 . S
C1401 C1400 1.388 . S
C1401 C1402 1.390 . S
C1402 C1401 1.390 . S
C1402 C1403 1.394 1_556 S
C1402 C1408 1.465 1_565 S
C1403 C1398 1.399 . S
C1403 C1402 1.394 1_554 S
C1403 C1404 1.516 1_565 S
C1404 C1403 1.516 1_545 S
C1404 C1405 1.502 . S
C1404 C1406 1.561 . S
C1404 C1407 1.526 . S
C1405 H1389 0.959 . S
C1405 H1390 0.959 . S
C1405 H1391 0.961 . S
C1405 C1404 1.502 . S
C1406 H1392 0.960 . S
C1406 H1393 0.961 . S
C1406 H1394 0.959 . S
C1406 C1404 1.561 . S
C1407 C1404 1.526 . S
C1407 C1408 1.396 1_554 S
C1407 C1412 1.390 1_554 S
C1408 C1402 1.465 1_545 S
C1408 C1407 1.396 1_556 S
C1408 C1409 1.399 . S
C1409 H1395 0.929 . S
C1409 C1408 1.399 . S
C1409 C1410 1.385 . S
C1410 H1396 0.931 . S
C1410 C1409 1.385 . S
C1410 C1411 1.389 . S
C1411 C1410 1.389 . S
C1411 C1412 1.387 . S
C1412 H1397 0.930 1_556 S
C1412 C1407 1.390 1_556 S
C1412 C1411 1.387 . S
H1413 C1425 0.930 . S
H1414 C1427 0.930 . S
H1415 C1428 0.930 . S
H1416 C1432 0.959 . S
H1417 C1432 0.959 . S
H1418 C1432 0.961 . S
H1419 C1433 0.960 . S
H1420 C1433 0.961 . S
H1421 C1433 0.959 . S
H1422 C1436 0.929 . S
H1423 C1437 0.931 . S
H1424 C1439 0.930 . S
C1425 H1413 0.930 . S
C1425 C1426 1.399 . S
C1425 C1430 1.399 . S
C1426 C1425 1.399 . S
C1426 C1427 1.376 . S
C1427 H1414 0.930 . S
C1427 C1426 1.376 . S
C1427 C1428 1.388 . S
C1428 H1415 0.930 . S
C1428 C1427 1.388 . S
C1428 C1429 1.390 . S
C1429 C1428 1.390 . S
C1429 C1430 1.394 . S
C1429 C1435 1.465 1_545 S
C1430 C1425 1.399 . S
C1430 C1429 1.394 . S
C1430 C1431 1.516 1_545 S
C1431 C1430 1.516 1_565 S
C1431 C1432 1.502 . S
C1431 C1433 1.561 . S
C1431 C1434 1.526 . S
C1432 H1416 0.959 . S
C1432 H1417 0.959 . S
C1432 H1418 0.961 . S
C1432 C1431 1.502 . S
C1433 H1419 0.960 . S
C1433 H1420 0.961 . S
C1433 H1421 0.959 . S
C1433 C1431 1.561 . S
C1434 C1431 1.526 . S
C1434 C1435 1.396 . S
C1434 C1439 1.390 . S
C1435 C1429 1.465 1_565 S
C1435 C1434 1.396 . S
C1435 C1436 1.399 . S
C1436 H1422 0.929 . S
C1436 C1435 1.399 . S
C1436 C1437 1.385 . S
C1437 H1423 0.931 . S
C1437 C1436 1.385 . S
C1437 C1438 1.389 . S
C1438 C1437 1.389 . S
C1438 C1439 1.387 . S
C1439 H1424 0.930 . S
C1439 C1434 1.390 . S
C1439 C1438 1.387 . S
C589 C3 1.420 . S
C601 C220 1.395 . S
C616 C39 1.420 . S
C628 C256 1.395 . S
C643 C148 1.413 . S
C655 C75 1.420 . S
C670 C184 1.403 . S
C682 C111 1.436 . S
C697 C508 1.425 . S
C709 C291 1.423 . S
C724 C544 1.402 . S
C736 C327 1.436 . S
C751 C363 1.439 . S
C763 C436 1.422 . S
C778 C399 1.439 . S
C790 C472 1.423 . S
C805 C2 1.439 . S
C817 C182 1.447 . S
C832 C38 1.419 . S
C844 C146 1.426 . S
C859 C74 1.419 . S
C871 C254 1.423 . S
C886 C218 1.425 . S
C898 C110 1.430 . S
C913 C470 1.447 . S
C925 C290 1.438 . S
C940 C434 1.434 . S
C952 C326 1.440 . S
C967 C362 1.455 . S
C979 C542 1.452 . S
C994 C506 1.439 . S
C1006 C398 1.430 . S
C1021 C435 1.314 . S
C1033 C4 1.335 . S
C1048 C40 1.320 . S
C1060 C471 1.306 . S
C1075 C507 1.313 . S
C1087 C76 1.310 . S
C1102 C543 1.323 . S
C1114 C112 1.308 . S
C1129 C292 1.333 . S
C1141 C147 1.337 . S
C1156 C328 1.319 . S
C1168 C183 1.306 . S
C1183 C219 1.334 . S
C1195 C364 1.314 . S
C1210 C255 1.333 . S
C1222 C400 1.336 . S
C1237 C86 1.402 . S
C1249 C14 1.388 . S
C1264 C50 1.414 . S
C1276 C122 1.431 . S
C1291 C230 1.405 . S
C1303 C158 1.358 . S
C1318 C194 1.434 . S
C1330 C266 1.442 . S
C1345 C374 1.395 . S
C1357 C302 1.414 . S
C1372 C410 1.434 . S
C1384 C338 1.441 . S
C1399 C518 1.415 . S
C1411 C446 1.364 . S
C1426 C554 1.396 . S
C1438 C482 1.354 . S
