# Generated by pormake.
# Topology smu, (6)-cn, num edge types: 1
# Building blocks:
#     Node 0, Type 0, BuildingBlock: HISSIN_clean_sbu_0, # of connection points: 6
#     Node 1, Type 0, BuildingBlock: HISSIN_clean_sbu_0, # of connection points: 6
#     Node 2, Type 0, BuildingBlock: HISSIN_clean_sbu_0, # of connection points: 6
#     Node 3, Type 0, BuildingBlock: HISSIN_clean_sbu_0, # of connection points: 6
#     Node 4, Type 0, BuildingBlock: HISSIN_clean_sbu_0, # of connection points: 6
#     Node 5, Type 0, BuildingBlock: HISSIN_clean_sbu_0, # of connection points: 6
#     Edge 6, Type (0, 0), BuildingBlock: AJUNOK_clean_linker_0, # of connection points: 2
#     Edge 7, Type (0, 0), BuildingBlock: AJUNOK_clean_linker_0, # of connection points: 2
#     Edge 8, Type (0, 0), BuildingBlock: AJUNOK_clean_linker_0, # of connection points: 2
#     Edge 9, Type (0, 0), BuildingBlock: AJUNOK_clean_linker_0, # of connection points: 2
#     Edge 10, Type (0, 0), BuildingBlock: AJUNOK_clean_linker_0, # of connection points: 2
#     Edge 11, Type (0, 0), BuildingBlock: AJUNOK_clean_linker_0, # of connection points: 2
#     Edge 12, Type (0, 0), BuildingBlock: AJUNOK_clean_linker_0, # of connection points: 2
#     Edge 13, Type (0, 0), BuildingBlock: AJUNOK_clean_linker_0, # of connection points: 2
#     Edge 14, Type (0, 0), BuildingBlock: AJUNOK_clean_linker_0, # of connection points: 2
#     Edge 15, Type (0, 0), BuildingBlock: AJUNOK_clean_linker_0, # of connection points: 2
#     Edge 16, Type (0, 0), BuildingBlock: AJUNOK_clean_linker_0, # of connection points: 2
#     Edge 17, Type (0, 0), BuildingBlock: AJUNOK_clean_linker_0, # of connection points: 2
#     Edge 18, Type (0, 0), BuildingBlock: AJUNOK_clean_linker_0, # of connection points: 2
#     Edge 19, Type (0, 0), BuildingBlock: AJUNOK_clean_linker_0, # of connection points: 2
#     Edge 20, Type (0, 0), BuildingBlock: AJUNOK_clean_linker_0, # of connection points: 2
#     Edge 21, Type (0, 0), BuildingBlock: AJUNOK_clean_linker_0, # of connection points: 2
#     Edge 22, Type (0, 0), BuildingBlock: AJUNOK_clean_linker_0, # of connection points: 2
#     Edge 23, Type (0, 0), BuildingBlock: AJUNOK_clean_linker_0, # of connection points: 2
# Relax obj value: 0.232
# Max RMSD: 0.335
# Mean RMSD: 0.335
data_MOF--net-smu--node1-HISSIN_clean_sbu_0--edge1-AJUNOK_clean_linker_0
_symmetry_space_group_name_H-M    P1
_symmetry_Int_Tables_number       1
_symmetry_cell_setting            triclinic
loop_
_symmetry_equiv_pos_as_xyz
'x, y, z'
_cell_length_a     32.372494
_cell_length_b     32.370076
_cell_length_c     20.309555
_cell_angle_alpha  90.167684
_cell_angle_beta   89.708073
_cell_angle_gamma 119.95559
loop_
_atom_site_label
_atom_site_type_symbol
_atom_site_fract_x
_atom_site_fract_y
_atom_site_fract_z
_atom_type_partial_charge
Eu0 Eu 0.30949 0.12468 0.26401 0.0
Eu1 Eu 0.38791 0.09109 0.2684 0.0
C2 C 0.32341 0.06475 0.13836 0.0
C3 C 0.20236 0.15288 0.25351 0.0
C4 C 0.18453 0.16047 0.19501 0.0
C5 C 0.15074 0.17224 0.31638 0.0
C6 C 0.15212 0.1767 0.19713 0.0
C7 C 0.18396 0.15683 0.31424 0.0
C8 C 0.13691 0.18518 0.25796 0.0
C9 C 0.24462 0.14802 0.24948 0.0
O10 O 0.42971 0.17297 0.25841 0.0
O11 O 0.37372 0.19559 0.27103 0.0
C12 C 0.41781 0.20621 0.26557 0.0
O13 O 0.30651 0.09774 0.3724 0.0
O14 O 0.44072 0.08172 0.21359 0.0
O15 O 0.43735 0.07407 0.31946 0.0
O16 O 0.36655 0.07895 0.37483 0.0
C17 C 0.3321 0.082 0.40446 0.0
O18 O 0.27457 0.05772 0.31183 0.0
O19 O 0.31035 0.02327 0.2588 0.0
O20 O 0.35655 0.06168 0.17068 0.0
O21 O 0.27601 0.1646 0.29673 0.0
O22 O 0.2472 0.11722 0.21069 0.0
O23 O 0.30431 0.08971 0.16198 0.0
C24 C 0.51443 0.10297 0.26669 0.0
C25 C 0.54106 0.12196 0.32476 0.0
C26 C 0.58902 0.12609 0.20805 0.0
C27 C 0.59105 0.14178 0.32456 0.0
C28 C 0.53935 0.10596 0.20838 0.0
C29 C 0.61571 0.14308 0.26641 0.0
C30 C 0.46098 0.07662 0.26582 0.0
C31 C 0.27111 0.02072 0.28432 0.0
H32 H 0.19822 0.15714 0.14767 0.0
H33 H 0.13744 0.17587 0.3638 0.0
H34 H 0.14152 0.18559 0.15123 0.0
H35 H 0.19682 0.15015 0.35987 0.0
H36 H 0.52325 0.12041 0.37072 0.0
H37 H 0.60645 0.12808 0.1616 0.0
H38 H 0.61018 0.15469 0.37046 0.0
H39 H 0.52024 0.09188 0.16269 0.0
Eu40 Eu 0.83493 0.72014 0.26743 0.0
Eu41 Eu 0.72419 0.63899 0.26615 0.0
C42 C 0.76722 0.70467 0.13608 0.0
C43 C 0.97335 0.82162 0.25577 0.0
C44 C 0.99439 0.84297 0.19519 0.0
C45 C 0.04958 0.86456 0.30876 0.0
C46 C 0.04336 0.87518 0.19163 0.0
C47 C 1.00112 0.8332 0.31245 0.0
C48 C 0.07105 0.88576 0.24853 0.0
C49 C 0.92335 0.78495 0.26007 0.0
O50 O 0.76485 0.59775 0.27612 0.0
O51 O 0.84127 0.6555 0.25568 0.0
C52 C 0.81016 0.61113 0.26711 0.0
O53 O 0.8094 0.71755 0.37623 0.0
O54 O 0.66409 0.58542 0.20951 0.0
O55 O 0.6559 0.59061 0.3143 0.0
O56 O 0.72888 0.66425 0.3698 0.0
C57 C 0.76599 0.69484 0.40387 0.0
O58 O 0.79831 0.75362 0.312 0.0
O59 O 0.73222 0.71508 0.2508 0.0
O60 O 0.73401 0.6643 0.16139 0.0
O61 O 0.90586 0.75605 0.31036 0.0
O62 O 0.89295 0.77895 0.21404 0.0
O63 O 0.80752 0.73152 0.16791 0.0
C64 C 0.60979 0.51295 0.26371 0.0
C65 C 0.60482 0.48741 0.32214 0.0
C66 C 0.5572 0.43733 0.20868 0.0
C67 C 0.5757 0.43742 0.32384 0.0
C68 C 0.58573 0.48711 0.20714 0.0
C69 C 0.55155 0.41192 0.26708 0.0
C70 C 0.63677 0.5662 0.26073 0.0
C71 C 0.76643 0.7554 0.27711 0.0
H72 H 0.97326 0.83432 0.15077 0.0
H73 H 0.07046 0.87274 0.35341 0.0
H74 H 0.05941 0.89211 0.14519 0.0
H75 H 0.98555 0.81745 0.35964 0.0
H76 H 0.62269 0.50601 0.36676 0.0
H77 H 0.53866 0.41868 0.16441 0.0
H78 H 0.57195 0.41864 0.36952 0.0
H79 H 0.58834 0.50562 0.1616 0.0
Eu80 Eu 0.90752 0.18886 0.26462 0.0
Eu81 Eu 0.93553 0.30055 0.2687 0.0
C82 C 0.96026 0.26051 0.13698 0.0
C83 C 0.87495 0.052 0.24939 0.0
C84 C 0.87823 0.03258 0.189 0.0
C85 C 0.84333 0.97474 0.30057 0.0
C86 C 0.86256 0.98411 0.18392 0.0
C87 C 0.85904 0.02323 0.30575 0.0
C88 C 0.84335 0.95496 0.23914 0.0
C89 C 0.88257 0.10036 0.25045 0.0
O90 O 0.85411 0.25896 0.27765 0.0
O91 O 0.83668 0.18343 0.25235 0.0
C92 C 0.82298 0.21422 0.26468 0.0
O93 O 0.93275 0.21183 0.37189 0.0
O94 O 0.94595 0.36376 0.21544 0.0
O95 O 0.94889 0.36526 0.32168 0.0
O96 O 0.95739 0.2924 0.37041 0.0
C97 C 0.95296 0.25451 0.40054 0.0
O98 O 0.97946 0.22129 0.30182 0.0
O99 O 1.00494 0.29547 0.2574 0.0
O100 O 0.95267 0.29336 0.16287 0.0
O101 O 0.8705 0.1165 0.30183 0.0
O102 O 0.90912 0.13249 0.2071 0.0
O103 O 0.94658 0.21962 0.16689 0.0
C104 C 0.92246 0.41485 0.26874 0.0
C105 C 0.88986 0.41015 0.3186 0.0
C106 C 0.91243 0.47811 0.21968 0.0
C107 C 0.86923 0.43967 0.31914 0.0
C108 C 0.93277 0.44873 0.219 0.0
C109 C 0.88105 0.47472 0.27028 0.0
C110 C 0.9487 0.3877 0.26851 0.0
C111 C 1.0131 0.26125 0.27873 0.0
H112 H 0.89077 0.05437 0.14503 0.0
H113 H 0.82967 0.95237 0.3439 0.0
H114 H 0.86381 0.9691 0.1367 0.0
H115 H 0.85674 0.03764 0.35296 0.0
H116 H 0.88099 0.38438 0.35774 0.0
H117 H 0.92178 0.50406 0.18065 0.0
H118 H 0.84521 0.4361 0.35885 0.0
H119 H 0.95759 0.45325 0.17992 0.0
Eu120 Eu 0.09773 0.38343 0.76483 0.0
Eu121 Eu 0.12957 0.30451 0.76553 0.0
C122 C 0.083 0.32779 0.90195 0.0
C123 C 0.10655 0.50846 0.7639 0.0
C124 C 0.14282 0.53666 0.80899 0.0
C125 C 0.11151 0.58095 0.7204 0.0
C126 C 0.16369 0.58679 0.80889 0.0
C127 C 0.09163 0.53137 0.71955 0.0
C128 C 0.14861 0.60993 0.76411 0.0
C129 C 0.08155 0.45532 0.76296 0.0
O130 O 0.06104 0.26914 0.81138 0.0
O131 O 0.03062 0.30581 0.75169 0.0
C132 C 0.02616 0.26615 0.77837 0.0
O133 O 0.07796 0.35729 0.66182 0.0
O134 O 0.16769 0.26954 0.79981 0.0
O135 O 0.12425 0.24421 0.71001 0.0
O136 O 0.09323 0.29549 0.66399 0.0
C137 C 0.07493 0.31918 0.63474 0.0
O138 O 0.17976 0.42574 0.76624 0.0
O139 O 0.20104 0.36851 0.76367 0.0
O140 O 0.10384 0.30495 0.87438 0.0
O141 O 0.08665 0.43521 0.71028 0.0
O142 O 0.08075 0.43269 0.81643 0.0
O143 O 0.07764 0.35924 0.8686 0.0
C144 C 0.15674 0.19697 0.75139 0.0
C145 C 0.15359 0.17312 0.69205 0.0
C146 C 0.18485 0.15018 0.80648 0.0
C147 C 0.16731 0.13863 0.68959 0.0
C148 C 0.1708 0.18411 0.80903 0.0
C149 C 0.1846 0.12827 0.74645 0.0
C150 C 0.15355 0.24021 0.74971 0.0
C151 C 0.2126 0.41303 0.76583 0.0
H152 H 0.15507 0.5201 0.84418 0.0
H153 H 0.0965 0.59615 0.68754 0.0
H154 H 0.19197 0.60737 0.84354 0.0
H155 H 0.06333 0.51058 0.68492 0.0
H156 H 0.14277 0.18282 0.64697 0.0
H157 H 0.19776 0.14241 0.85126 0.0
H158 H 0.1654 0.12098 0.64338 0.0
H159 H 0.17348 0.20201 0.85529 0.0
Eu160 Eu 0.30646 0.93119 0.7685 0.0
Eu161 Eu 0.19545 0.89692 0.76013 0.0
C162 C 0.26069 0.94236 0.90218 0.0
C163 C 0.42087 0.91951 0.76486 0.0
C164 C 0.42726 0.89953 0.82285 0.0
C165 C 0.47186 0.89572 0.7067 0.0
C166 C 0.45672 0.87888 0.82284 0.0
C167 C 0.44316 0.91671 0.70688 0.0
C168 C 0.48043 0.87777 0.76496 0.0
C169 C 0.39389 0.94583 0.76292 0.0
O170 O 0.22478 0.96421 0.80773 0.0
O171 O 0.296 0.99819 0.75586 0.0
C172 C 0.25912 1.00101 0.78012 0.0
O173 O 0.30079 0.94893 0.66359 0.0
O174 O 0.12185 0.85163 0.79006 0.0
O175 O 0.13944 0.90228 0.70842 0.0
O176 O 0.22555 0.93844 0.66304 0.0
C177 C 0.26799 0.95513 0.63553 0.0
O178 O 0.26614 0.85003 0.7854 0.0
O179 O 0.19509 0.82945 0.7384 0.0
O180 O 0.21814 0.92047 0.87141 0.0
O181 O 0.36669 0.93788 0.7119 0.0
O182 O 0.37469 0.95109 0.81674 0.0
O183 O 0.29978 0.9511 0.87117 0.0
C184 C 0.06001 0.86545 0.75122 0.0
C185 C 0.03613 0.86636 0.69415 0.0
C186 C 0.98784 0.83836 0.81419 0.0
C187 C 0.98773 0.85176 0.69666 0.0
C188 C 0.0361 0.8531 0.81173 0.0
C189 C 0.96314 0.83628 0.75636 0.0
C190 C 0.1061 0.86824 0.74371 0.0
C191 C 0.22448 0.81742 0.76286 0.0
H192 H 0.41047 0.9008 0.86846 0.0
H193 H 0.48764 0.89389 0.66045 0.0
H194 H 0.46213 0.86518 0.86859 0.0
H195 H 0.43891 0.93147 0.6613 0.0
H196 H 0.05425 0.87576 0.64693 0.0
H197 H 0.96935 0.82696 0.86102 0.0
H198 H 0.96934 0.85148 0.65208 0.0
H199 H 0.05388 0.85221 0.8563 0.0
Eu200 Eu 0.64535 0.7218 0.76817 0.0
Eu201 Eu 0.72447 0.83273 0.76685 0.0
C202 C 0.69781 0.76436 0.90622 0.0
C203 C 0.5198 0.60609 0.76487 0.0
C204 C 0.49291 0.61058 0.81637 0.0
C205 C 0.44577 0.54314 0.71712 0.0
C206 C 0.44283 0.58147 0.81795 0.0
C207 C 0.49545 0.57241 0.71513 0.0
C208 C 0.41886 0.5472 0.7685 0.0
C209 C 0.57298 0.63405 0.76198 0.0
O210 O 0.75785 0.80001 0.81629 0.0
O211 O 0.72296 0.73101 0.76059 0.0
C212 C 0.76136 0.76618 0.78984 0.0
O213 O 0.66987 0.73084 0.66338 0.0
O214 O 0.75763 0.90576 0.8032 0.0
O215 O 0.78835 0.88752 0.718 0.0
O216 O 0.73787 0.80348 0.6706 0.0
C217 C 0.71073 0.76335 0.6388 0.0
O218 O 0.6045 0.7628 0.78055 0.0
O219 O 0.65972 0.83657 0.74499 0.0
O220 O 0.72018 0.80764 0.87757 0.0
O221 O 0.59202 0.66154 0.71099 0.0
O222 O 0.5969 0.65343 0.81569 0.0
O223 O 0.66796 0.72681 0.87237 0.0
C224 C 0.82923 0.96968 0.75323 0.0
C225 C 0.85296 0.98793 0.69301 0.0
C226 C 0.87427 0.04748 0.80257 0.0
C227 C 0.88627 0.03635 0.68719 0.0
C228 C 0.84083 0.99944 0.80825 0.0
C229 C 0.89594 0.06627 0.74166 0.0
C230 C 0.79132 0.92021 0.75856 0.0
C231 C 0.6162 0.80631 0.76211 0.0
H232 H 0.51049 0.63616 0.85554 0.0
H233 H 0.42827 0.51711 0.6784 0.0
H234 H 0.42289 0.58511 0.85834 0.0
H235 H 0.51512 0.56814 0.6749 0.0
H236 H 0.84486 0.96514 0.65023 0.0
H237 H 0.88273 0.07026 0.84547 0.0
H238 H 0.90413 0.05047 0.64055 0.0
H239 H 0.82363 0.98572 0.85539 0.0
C240 C 0.30551 0.97166 1.00772 0.0
C241 C 0.26875 0.96801 0.96719 0.0
C242 C 0.32231 1.00276 0.06191 0.0
C243 C 0.30424 0.03328 0.07836 0.0
H244 H 0.32244 0.95082 0.99657 0.0
H245 H 0.35048 1.00299 0.09069 0.0
S246 S 0.2083 0.03941 0.98811 0.0
N247 N 0.21439 0.99798 0.94878 0.0
N248 N 0.2471 0.05768 0.04892 0.0
C249 C 0.26722 0.03005 0.03885 0.0
C250 C 0.24937 0.99737 0.98391 0.0
C251 C 0.69354 0.71435 0.53666 0.0
C252 C 0.72751 0.75053 0.57715 0.0
C253 C 0.70684 0.69658 0.4826 0.0
C254 C 0.75509 0.71368 0.46557 0.0
H255 H 0.65583 0.69897 0.54705 0.0
H256 H 0.67833 0.66894 0.45381 0.0
S257 S 0.85885 0.80912 0.55515 0.0
N258 N 0.81217 0.80316 0.59675 0.0
N259 N 0.83732 0.77073 0.49351 0.0
C260 C 0.78977 0.75074 0.50483 0.0
C261 C 0.77603 0.7688 0.56081 0.0
C262 C 0.03389 0.27466 0.0726 0.0
C263 C 0.98915 0.27246 0.07495 0.0
C264 C 0.06363 0.29073 0.01626 0.0
C265 C 0.05052 0.30693 0.96053 0.0
H266 H 0.04767 0.26669 0.11544 0.0
H267 H 0.09793 0.29251 0.01757 0.0
S268 S 0.93478 0.30419 0.93928 0.0
N269 N 0.93231 0.28516 0.01521 0.0
N270 N 0.98674 0.31494 0.90933 0.0
C271 C 1.00496 0.30332 0.9616 0.0
C272 C 0.97495 0.2867 0.01881 0.0
C273 C 0.26565 0.0197 0.4773 0.0
C274 C 0.31413 0.05439 0.46747 0.0
C275 C 0.25035 0.98781 0.53145 0.0
C276 C 0.28317 0.98864 0.57751 0.0
H277 H 0.23948 0.01575 0.44186 0.0
H278 H 0.21284 0.96167 0.53629 0.0
S279 S 0.41352 0.07607 0.57736 0.0
N280 N 0.39386 0.08906 0.51033 0.0
N281 N 0.36636 0.03104 0.61198 0.0
C282 C 0.33155 0.02428 0.56891 0.0
C283 C 0.34666 0.05638 0.51407 0.0
C284 C 0.69453 0.70535 0.98921 0.0
C285 C 0.71631 0.75339 0.96835 0.0
C286 C 0.71254 0.69053 0.04101 0.0
C287 C 0.75362 0.7226 0.07606 0.0
H288 H 0.66296 0.67799 0.96484 0.0
H289 H 0.69339 0.65305 0.05385 0.0
S290 S 0.82406 0.85315 0.0455 0.0
N291 N 0.78179 0.83363 0.98904 0.0
N292 N 0.81488 0.80583 0.08798 0.0
C293 C 0.77593 0.77104 0.05689 0.0
C294 C 0.75758 0.78632 1.00301 0.0
C295 C 1.01568 0.25211 0.47348 0.0
C296 C 0.9791 0.26336 0.46413 0.0
C297 C 0.04635 0.26921 0.52897 0.0
C298 C 0.0419 0.29864 0.57659 0.0
H299 H 0.0219 0.23167 0.43644 0.0
H300 H 0.07452 0.26058 0.53347 0.0
S301 S 0.94726 0.33228 0.57788 0.0
N302 N 0.93813 0.30206 0.50892 0.0
N303 N 0.99338 0.33283 0.61301 0.0
C304 C 1.00373 0.30779 0.56858 0.0
C305 C 0.97319 0.2907 0.51244 0.0
C306 C 0.70079 0.2023 0.30149 0.0
C307 C 0.66864 0.1609 0.26635 0.0
C308 C 0.75055 0.21998 0.30005 0.0
C309 C 0.77039 0.19674 0.26404 0.0
H310 H 0.68751 0.22173 0.32961 0.0
H311 H 0.77356 0.2518 0.32799 0.0
S312 S 0.70208 0.08577 0.166 0.0
N313 N 0.66091 0.09616 0.19681 0.0
N314 N 0.75337 0.12949 0.19299 0.0
C315 C 0.73856 0.15502 0.22942 0.0
C316 C 0.68817 0.13716 0.23081 0.0
C317 C 0.478 0.33866 0.30786 0.0
C318 C 0.51942 0.35907 0.26868 0.0
C319 C 0.44586 0.28921 0.30694 0.0
C320 C 0.45435 0.25793 0.26802 0.0
H321 H 0.46981 0.36121 0.33826 0.0
H322 H 0.41398 0.27537 0.33708 0.0
S323 S 0.55769 0.29364 0.15706 0.0
N324 N 0.56696 0.34441 0.18956 0.0
N325 N 0.50738 0.2514 0.18954 0.0
C326 C 0.49599 0.27788 0.22961 0.0
C327 C 0.52819 0.32839 0.22941 0.0
C328 C 0.81386 0.494 0.27825 0.0
C329 C 0.86294 0.50941 0.27276 0.0
C330 C 0.79681 0.52667 0.27667 0.0
C331 C 0.82814 0.5762 0.27002 0.0
H332 H 0.78833 0.45629 0.28234 0.0
H333 H 0.75875 0.51288 0.28008 0.0
S334 S 0.96076 0.63509 0.2609 0.0
N335 N 0.94274 0.57768 0.26515 0.0
N336 N 0.91172 0.6387 0.26247 0.0
C337 C 0.87757 0.59191 0.26658 0.0
C338 C 0.89463 0.55873 0.26787 0.0
C339 C 0.18523 0.69076 0.82189 0.0
C340 C 0.17079 0.66368 0.76307 0.0
C341 C 0.20455 0.7408 0.82174 0.0
C342 C 0.2096 0.76579 0.76292 0.0
H343 H 0.1806 0.67315 0.8688 0.0
H344 H 0.21406 0.75977 0.86819 0.0
S345 S 0.18024 0.71401 0.59552 0.0
N346 N 0.16692 0.66802 0.64366 0.0
N347 N 0.19937 0.7605 0.64486 0.0
C348 C 0.19553 0.73959 0.70421 0.0
C349 C 0.17721 0.68912 0.70387 0.0
C350 C 0.50521 0.81735 0.79818 0.0
C351 C 0.51521 0.85967 0.76498 0.0
C352 C 0.53723 0.79954 0.79636 0.0
C353 C 0.5808 0.8235 0.76164 0.0
H354 H 0.47204 0.79739 0.82508 0.0
H355 H 0.52794 0.76705 0.82288 0.0
S356 S 0.6253 0.93728 0.66926 0.0
N357 N 0.57336 0.9262 0.69929 0.0
N358 N 0.63217 0.89264 0.69396 0.0
C359 C 0.59128 0.86615 0.72886 0.0
C360 C 0.55897 0.8842 0.731 0.0
C361 C 0.29809 0.43335 0.77929 0.0
C362 C 0.26486 0.44893 0.76835 0.0
C363 C 0.3475 0.46533 0.78007 0.0
C364 C 0.36612 0.51447 0.77071 0.0
H365 H 0.28602 0.39592 0.78708 0.0
H366 H 0.37139 0.45145 0.78796 0.0
S367 S 0.29592 0.5741 0.73826 0.0
N368 N 0.25516 0.5173 0.74667 0.0
N369 N 0.34802 0.57727 0.74879 0.0
C370 C 0.33373 0.53073 0.76013 0.0
C371 C 0.28324 0.49809 0.75888 0.0
C372 C 0.07206 0.19716 0.21476 0.0
C373 C 0.10919 0.21011 0.2596 0.0
C374 C 0.04487 0.21945 0.21594 0.0
C375 C 0.0543 0.2568 0.2603 0.0
H376 H 0.06214 0.16778 0.18085 0.0
H377 H 1.01334 0.20406 0.18553 0.0
S378 S 0.14577 0.30188 0.39026 0.0
N379 N 0.15403 0.26202 0.35054 0.0
N380 N 0.10116 0.30303 0.35296 0.0
C381 C 0.09151 0.27029 0.30488 0.0
C382 C 0.11935 0.24728 0.30434 0.0
C383 C 0.15641 0.91732 0.21413 0.0
C384 C 0.12154 0.92241 0.24916 0.0
C385 C 0.20541 0.94798 0.22632 0.0
C386 C 0.22027 0.98351 0.27492 0.0
H387 H 0.14567 0.88871 0.17875 0.0
H388 H 0.23151 0.94397 0.19772 0.0
S389 S 0.13986 0.01441 0.37202 0.0
N390 N 0.10393 0.96868 0.32602 0.0
N391 N 0.19336 0.02387 0.35362 0.0
C392 C 0.18428 0.98937 0.30805 0.0
C393 C 0.13564 0.95968 0.29361 0.0
C394 C 0.85318 0.88511 0.24595 0.0
C395 C 0.82353 0.90364 0.23362 0.0
C396 C 0.83387 0.83643 0.25383 0.0
C397 C 0.78385 0.80411 0.25097 0.0
H398 H 0.89116 0.90853 0.25306 0.0
H399 H 0.85876 0.82485 0.26683 0.0
S400 S 0.69331 0.83645 0.20698 0.0
N401 N 0.74381 0.88794 0.20908 0.0
N402 N 0.70681 0.79479 0.22485 0.0
C403 C 0.75458 0.82225 0.23256 0.0
C404 C 0.77459 0.87251 0.22414 0.0
C405 C 0.18609 0.06094 0.79626 0.0
C406 C 0.20207 0.09434 0.74607 0.0
C407 C 0.20721 0.03391 0.80697 0.0
C408 C 0.24599 0.03829 0.76873 0.0
H409 H 0.15693 0.05575 0.82827 0.0
H410 H 0.18961 1.00673 0.84352 0.0
S411 S 0.29042 0.11099 0.61733 0.0
N412 N 0.25169 0.12499 0.64825 0.0
N413 N 0.29168 0.072 0.66853 0.0
C414 C 0.25953 0.06877 0.7141 0.0
C415 C 0.23738 0.09703 0.70268 0.0
C416 C 0.87814 0.77944 0.72429 0.0
C417 C 0.9119 0.81924 0.76041 0.0
C418 C 0.82879 0.75985 0.73551 0.0
C419 C 0.81232 0.77891 0.78439 0.0
H420 H 0.89001 0.76315 0.68779 0.0
H421 H 0.80368 0.73054 0.70517 0.0
S422 S 0.88923 0.88799 0.88628 0.0
N423 N 0.92671 0.88089 0.83932 0.0
N424 N 0.83652 0.84271 0.86776 0.0
C425 C 0.84722 0.81952 0.82046 0.0
C426 C 0.89629 0.84025 0.80624 0.0
C427 C 1.00344 0.18078 0.78149 0.0
C428 C 0.99209 0.21589 0.76005 0.0
C429 C 0.9735 0.13268 0.77082 0.0
C430 C 0.93083 0.11693 0.73785 0.0
H431 H 0.03549 0.18963 0.80873 0.0
H432 H 0.98284 0.10747 0.79116 0.0
S433 S 0.88718 0.19097 0.6601 0.0
N434 N 0.93768 0.23021 0.6955 0.0
N435 N 0.87988 0.1377 0.67629 0.0
C436 C 0.91993 0.15038 0.71151 0.0
C437 C 0.95097 0.20035 0.72226 0.0
loop_
_geom_bond_atom_site_label_1
_geom_bond_atom_site_label_2
_geom_bond_distance
_geom_bond_site_symmetry_2
_ccdc_geom_bond_type
Eu0 C9 2.828 . S
Eu0 O11 2.392 . S
Eu0 O13 2.418 . S
Eu0 O18 2.373 . S
Eu0 O21 2.488 . S
Eu0 O22 2.471 . S
Eu0 O23 2.349 . S
Eu1 O10 2.373 . S
Eu1 O14 2.488 . S
Eu1 O15 2.471 . S
Eu1 O16 2.349 . S
Eu1 O19 2.392 . S
Eu1 O20 2.418 . S
Eu1 C30 2.828 . S
C2 O20 1.244 . S
C2 O23 1.265 . S
C3 C4 1.379 . S
C3 C7 1.373 . S
C3 C9 1.505 . S
C4 C3 1.379 . S
C4 C6 1.369 . S
C4 H32 0.930 . S
C5 C7 1.383 . S
C5 C8 1.382 . S
C5 H33 0.930 . S
C6 C4 1.369 . S
C6 C8 1.392 . S
C6 H34 0.930 . S
C7 C3 1.373 . S
C7 C5 1.383 . S
C7 H35 0.931 . S
C8 C5 1.382 . S
C8 C6 1.392 . S
C9 Eu0 2.828 . S
C9 C3 1.505 . S
C9 O21 1.249 . S
C9 O22 1.244 . S
O10 Eu1 2.373 . S
O10 C12 1.258 . S
O11 Eu0 2.392 . S
O11 C12 1.242 . S
C12 O10 1.258 . S
C12 O11 1.242 . S
O13 Eu0 2.418 . S
O13 C17 1.244 . S
O14 Eu1 2.488 . S
O14 C30 1.249 . S
O15 Eu1 2.471 . S
O15 C30 1.244 . S
O16 Eu1 2.349 . S
O16 C17 1.265 . S
C17 O13 1.244 . S
C17 O16 1.265 . S
O18 Eu0 2.373 . S
O18 C31 1.258 . S
O19 Eu1 2.392 . S
O19 C31 1.242 . S
O20 Eu1 2.418 . S
O20 C2 1.244 . S
O21 Eu0 2.488 . S
O21 C9 1.249 . S
O22 Eu0 2.471 . S
O22 C9 1.244 . S
O23 Eu0 2.349 . S
O23 C2 1.265 . S
C24 C25 1.379 . S
C24 C28 1.373 . S
C24 C30 1.505 . S
C25 C24 1.379 . S
C25 C27 1.369 . S
C25 H36 0.930 . S
C26 C28 1.383 . S
C26 C29 1.382 . S
C26 H37 0.930 . S
C27 C25 1.369 . S
C27 C29 1.392 . S
C27 H38 0.930 . S
C28 C24 1.373 . S
C28 C26 1.383 . S
C28 H39 0.931 . S
C29 C26 1.382 . S
C29 C27 1.392 . S
C30 Eu1 2.828 . S
C30 O14 1.249 . S
C30 O15 1.244 . S
C30 C24 1.505 . S
C31 O18 1.258 . S
C31 O19 1.242 . S
H32 C4 0.930 . S
H33 C5 0.930 . S
H34 C6 0.930 . S
H35 C7 0.931 . S
H36 C25 0.930 . S
H37 C26 0.930 . S
H38 C27 0.930 . S
H39 C28 0.931 . S
Eu40 C49 2.828 . S
Eu40 O51 2.392 . S
Eu40 O53 2.418 . S
Eu40 O58 2.373 . S
Eu40 O61 2.488 . S
Eu40 O62 2.471 . S
Eu40 O63 2.349 . S
Eu41 O50 2.373 . S
Eu41 O54 2.488 . S
Eu41 O55 2.471 . S
Eu41 O56 2.349 . S
Eu41 O59 2.392 . S
Eu41 O60 2.418 . S
Eu41 C70 2.828 . S
C42 O60 1.244 . S
C42 O63 1.265 . S
C43 C44 1.379 . S
C43 C47 1.366 1_655 S
C43 C49 1.505 . S
C44 C43 1.379 . S
C44 C46 1.369 1_655 S
C44 H72 0.930 . S
C45 C47 1.387 . S
C45 C48 1.382 . S
C45 H73 0.930 . S
C46 C44 1.369 1_455 S
C46 C48 1.392 . S
C46 H74 0.930 . S
C47 C43 1.366 1_455 S
C47 C45 1.387 . S
C47 H75 0.933 1_455 S
C48 C45 1.382 . S
C48 C46 1.392 . S
C49 Eu40 2.828 . S
C49 C43 1.505 . S
C49 O61 1.249 . S
C49 O62 1.244 . S
O50 Eu41 2.373 . S
O50 C52 1.258 . S
O51 Eu40 2.392 . S
O51 C52 1.242 . S
C52 O50 1.258 . S
C52 O51 1.242 . S
O53 Eu40 2.418 . S
O53 C57 1.244 . S
O54 Eu41 2.488 . S
O54 C70 1.249 . S
O55 Eu41 2.471 . S
O55 C70 1.244 . S
O56 Eu41 2.349 . S
O56 C57 1.265 . S
C57 O53 1.244 . S
C57 O56 1.265 . S
O58 Eu40 2.373 . S
O58 C71 1.258 . S
O59 Eu41 2.392 . S
O59 C71 1.242 . S
O60 Eu41 2.418 . S
O60 C42 1.244 . S
O61 Eu40 2.488 . S
O61 C49 1.249 . S
O62 Eu40 2.471 . S
O62 C49 1.244 . S
O63 Eu40 2.349 . S
O63 C42 1.265 . S
C64 C65 1.379 . S
C64 C68 1.373 . S
C64 C70 1.505 . S
C65 C64 1.379 . S
C65 C67 1.369 . S
C65 H76 0.930 . S
C66 C68 1.383 . S
C66 C69 1.382 . S
C66 H77 0.930 . S
C67 C65 1.369 . S
C67 C69 1.392 . S
C67 H78 0.930 . S
C68 C64 1.373 . S
C68 C66 1.383 . S
C68 H79 0.931 . S
C69 C66 1.382 . S
C69 C67 1.392 . S
C70 Eu41 2.828 . S
C70 O54 1.249 . S
C70 O55 1.244 . S
C70 C64 1.505 . S
C71 O58 1.258 . S
C71 O59 1.242 . S
H72 C44 0.930 . S
H73 C45 0.930 . S
H74 C46 0.930 . S
H75 C47 0.933 1_655 S
H76 C65 0.930 . S
H77 C66 0.930 . S
H78 C67 0.930 . S
H79 C68 0.931 . S
Eu80 C89 2.828 . S
Eu80 O91 2.392 . S
Eu80 O93 2.418 . S
Eu80 O98 2.373 . S
Eu80 O101 2.488 . S
Eu80 O102 2.471 . S
Eu80 O103 2.349 . S
Eu81 O90 2.373 . S
Eu81 O94 2.488 . S
Eu81 O95 2.471 . S
Eu81 O96 2.349 . S
Eu81 O99 2.392 . S
Eu81 O100 2.418 . S
Eu81 C110 2.828 . S
C82 O100 1.244 . S
C82 O103 1.265 . S
C83 C84 1.379 . S
C83 C87 1.365 1_545 S
C83 C89 1.505 . S
C84 C83 1.379 . S
C84 C86 1.369 1_545 S
C84 H112 0.930 . S
C85 C87 1.395 . S
C85 C88 1.382 . S
C85 H113 0.930 . S
C86 C84 1.369 1_565 S
C86 C88 1.392 . S
C86 H114 0.930 . S
C87 C83 1.365 1_565 S
C87 C85 1.395 . S
C87 H115 0.927 1_565 S
C88 C85 1.382 . S
C88 C86 1.392 . S
C89 Eu80 2.828 . S
C89 C83 1.505 . S
C89 O101 1.249 . S
C89 O102 1.244 . S
O90 Eu81 2.373 . S
O90 C92 1.258 . S
O91 Eu80 2.392 . S
O91 C92 1.242 . S
C92 O90 1.258 . S
C92 O91 1.242 . S
O93 Eu80 2.418 . S
O93 C97 1.244 . S
O94 Eu81 2.488 . S
O94 C110 1.249 . S
O95 Eu81 2.471 . S
O95 C110 1.244 . S
O96 Eu81 2.349 . S
O96 C97 1.265 . S
C97 O93 1.244 . S
C97 O96 1.265 . S
O98 Eu80 2.373 . S
O98 C111 1.258 . S
O99 Eu81 2.392 . S
O99 C111 1.242 . S
O100 Eu81 2.418 . S
O100 C82 1.244 . S
O101 Eu80 2.488 . S
O101 C89 1.249 . S
O102 Eu80 2.471 . S
O102 C89 1.244 . S
O103 Eu80 2.349 . S
O103 C82 1.265 . S
C104 C105 1.379 . S
C104 C108 1.373 . S
C104 C110 1.505 . S
C105 C104 1.379 . S
C105 C107 1.369 . S
C105 H116 0.930 . S
C106 C108 1.383 . S
C106 C109 1.382 . S
C106 H117 0.930 . S
C107 C105 1.369 . S
C107 C109 1.392 . S
C107 H118 0.930 . S
C108 C104 1.373 . S
C108 C106 1.383 . S
C108 H119 0.931 . S
C109 C106 1.382 . S
C109 C107 1.392 . S
C110 Eu81 2.828 . S
C110 O94 1.249 . S
C110 O95 1.244 . S
C110 C104 1.505 . S
C111 O98 1.258 . S
C111 O99 1.242 . S
H112 C84 0.930 . S
H113 C85 0.930 . S
H114 C86 0.930 . S
H115 C87 0.927 1_545 S
H116 C105 0.930 . S
H117 C106 0.930 . S
H118 C107 0.930 . S
H119 C108 0.931 . S
Eu120 C129 2.828 . S
Eu120 O131 2.392 . S
Eu120 O133 2.418 . S
Eu120 O138 2.373 . S
Eu120 O141 2.488 . S
Eu120 O142 2.471 . S
Eu120 O143 2.349 . S
Eu121 O130 2.373 . S
Eu121 O134 2.488 . S
Eu121 O135 2.471 . S
Eu121 O136 2.349 . S
Eu121 O139 2.392 . S
Eu121 O140 2.418 . S
Eu121 C150 2.828 . S
C122 O140 1.244 . S
C122 O143 1.265 . S
C123 C124 1.379 . S
C123 C127 1.373 . S
C123 C129 1.505 . S
C124 C123 1.379 . S
C124 C126 1.369 . S
C124 H152 0.930 . S
C125 C127 1.383 . S
C125 C128 1.382 . S
C125 H153 0.930 . S
C126 C124 1.369 . S
C126 C128 1.392 . S
C126 H154 0.930 . S
C127 C123 1.373 . S
C127 C125 1.383 . S
C127 H155 0.931 . S
C128 C125 1.382 . S
C128 C126 1.392 . S
C129 Eu120 2.828 . S
C129 C123 1.505 . S
C129 O141 1.249 . S
C129 O142 1.244 . S
O130 Eu121 2.373 . S
O130 C132 1.258 . S
O131 Eu120 2.392 . S
O131 C132 1.242 . S
C132 O130 1.258 . S
C132 O131 1.242 . S
O133 Eu120 2.418 . S
O133 C137 1.244 . S
O134 Eu121 2.488 . S
O134 C150 1.249 . S
O135 Eu121 2.471 . S
O135 C150 1.244 . S
O136 Eu121 2.349 . S
O136 C137 1.265 . S
C137 O133 1.244 . S
C137 O136 1.265 . S
O138 Eu120 2.373 . S
O138 C151 1.258 . S
O139 Eu121 2.392 . S
O139 C151 1.242 . S
O140 Eu121 2.418 . S
O140 C122 1.244 . S
O141 Eu120 2.488 . S
O141 C129 1.249 . S
O142 Eu120 2.471 . S
O142 C129 1.244 . S
O143 Eu120 2.349 . S
O143 C122 1.265 . S
C144 C145 1.379 . S
C144 C148 1.373 . S
C144 C150 1.505 . S
C145 C144 1.379 . S
C145 C147 1.369 . S
C145 H156 0.930 . S
C146 C148 1.383 . S
C146 C149 1.382 . S
C146 H157 0.930 . S
C147 C145 1.369 . S
C147 C149 1.392 . S
C147 H158 0.930 . S
C148 C144 1.373 . S
C148 C146 1.383 . S
C148 H159 0.931 . S
C149 C146 1.382 . S
C149 C147 1.392 . S
C150 Eu121 2.828 . S
C150 O134 1.249 . S
C150 O135 1.244 . S
C150 C144 1.505 . S
C151 O138 1.258 . S
C151 O139 1.242 . S
H152 C124 0.930 . S
H153 C125 0.930 . S
H154 C126 0.930 . S
H155 C127 0.931 . S
H156 C145 0.930 . S
H157 C146 0.930 . S
H158 C147 0.930 . S
H159 C148 0.931 . S
Eu160 C169 2.828 . S
Eu160 O171 2.392 . S
Eu160 O173 2.418 . S
Eu160 O178 2.373 . S
Eu160 O181 2.488 . S
Eu160 O182 2.471 . S
Eu160 O183 2.349 . S
Eu161 O170 2.373 . S
Eu161 O174 2.488 . S
Eu161 O175 2.471 . S
Eu161 O176 2.349 . S
Eu161 O179 2.392 . S
Eu161 O180 2.418 . S
Eu161 C190 2.828 . S
C162 O180 1.244 . S
C162 O183 1.265 . S
C163 C164 1.379 . S
C163 C167 1.373 . S
C163 C169 1.505 . S
C164 C163 1.379 . S
C164 C166 1.369 . S
C164 H192 0.930 . S
C165 C167 1.383 . S
C165 C168 1.382 . S
C165 H193 0.930 . S
C166 C164 1.369 . S
C166 C168 1.392 . S
C166 H194 0.930 . S
C167 C163 1.373 . S
C167 C165 1.383 . S
C167 H195 0.931 . S
C168 C165 1.382 . S
C168 C166 1.392 . S
C169 Eu160 2.828 . S
C169 C163 1.505 . S
C169 O181 1.249 . S
C169 O182 1.244 . S
O170 Eu161 2.373 . S
O170 C172 1.258 . S
O171 Eu160 2.392 . S
O171 C172 1.242 . S
C172 O170 1.258 . S
C172 O171 1.242 . S
O173 Eu160 2.418 . S
O173 C177 1.244 . S
O174 Eu161 2.488 . S
O174 C190 1.249 . S
O175 Eu161 2.471 . S
O175 C190 1.244 . S
O176 Eu161 2.349 . S
O176 C177 1.265 . S
C177 O173 1.244 . S
C177 O176 1.265 . S
O178 Eu160 2.373 . S
O178 C191 1.258 . S
O179 Eu161 2.392 . S
O179 C191 1.242 . S
O180 Eu161 2.418 . S
O180 C162 1.244 . S
O181 Eu160 2.488 . S
O181 C169 1.249 . S
O182 Eu160 2.471 . S
O182 C169 1.244 . S
O183 Eu160 2.349 . S
O183 C162 1.265 . S
C184 C185 1.379 . S
C184 C188 1.365 1_455 S
C184 C190 1.505 . S
C185 C184 1.379 . S
C185 C187 1.369 1_455 S
C185 H196 0.930 . S
C186 C188 1.395 . S
C186 C189 1.382 . S
C186 H197 0.930 . S
C187 C185 1.369 1_655 S
C187 C189 1.392 . S
C187 H198 0.930 . S
C188 C184 1.365 1_655 S
C188 C186 1.395 . S
C188 H199 0.927 1_655 S
C189 C186 1.382 . S
C189 C187 1.392 . S
C190 Eu161 2.828 . S
C190 O174 1.249 . S
C190 O175 1.244 . S
C190 C184 1.505 . S
C191 O178 1.258 . S
C191 O179 1.242 . S
H192 C164 0.930 . S
H193 C165 0.930 . S
H194 C166 0.930 . S
H195 C167 0.931 . S
H196 C185 0.930 . S
H197 C186 0.930 . S
H198 C187 0.930 . S
H199 C188 0.927 1_455 S
Eu200 C209 2.828 . S
Eu200 O211 2.392 . S
Eu200 O213 2.418 . S
Eu200 O218 2.373 . S
Eu200 O221 2.488 . S
Eu200 O222 2.471 . S
Eu200 O223 2.349 . S
Eu201 O210 2.373 . S
Eu201 O214 2.488 . S
Eu201 O215 2.471 . S
Eu201 O216 2.349 . S
Eu201 O219 2.392 . S
Eu201 O220 2.418 . S
Eu201 C230 2.828 . S
C202 O220 1.244 . S
C202 O223 1.265 . S
C203 C204 1.379 . S
C203 C207 1.373 . S
C203 C209 1.505 . S
C204 C203 1.379 . S
C204 C206 1.369 . S
C204 H232 0.930 . S
C205 C207 1.383 . S
C205 C208 1.382 . S
C205 H233 0.930 . S
C206 C204 1.369 . S
C206 C208 1.392 . S
C206 H234 0.930 . S
C207 C203 1.373 . S
C207 C205 1.383 . S
C207 H235 0.931 . S
C208 C205 1.382 . S
C208 C206 1.392 . S
C209 Eu200 2.828 . S
C209 C203 1.505 . S
C209 O221 1.249 . S
C209 O222 1.244 . S
O210 Eu201 2.373 . S
O210 C212 1.258 . S
O211 Eu200 2.392 . S
O211 C212 1.242 . S
C212 O210 1.258 . S
C212 O211 1.242 . S
O213 Eu200 2.418 . S
O213 C217 1.244 . S
O214 Eu201 2.488 . S
O214 C230 1.249 . S
O215 Eu201 2.471 . S
O215 C230 1.244 . S
O216 Eu201 2.349 . S
O216 C217 1.265 . S
C217 O213 1.244 . S
C217 O216 1.265 . S
O218 Eu200 2.373 . S
O218 C231 1.258 . S
O219 Eu201 2.392 . S
O219 C231 1.242 . S
O220 Eu201 2.418 . S
O220 C202 1.244 . S
O221 Eu200 2.488 . S
O221 C209 1.249 . S
O222 Eu200 2.471 . S
O222 C209 1.244 . S
O223 Eu200 2.349 . S
O223 C202 1.265 . S
C224 C225 1.379 . S
C224 C228 1.366 1_565 S
C224 C230 1.505 . S
C225 C224 1.379 . S
C225 C227 1.369 1_565 S
C225 H236 0.930 . S
C226 C228 1.387 . S
C226 C229 1.382 . S
C226 H237 0.930 . S
C227 C225 1.369 1_545 S
C227 C229 1.392 . S
C227 H238 0.930 . S
C228 C224 1.366 1_545 S
C228 C226 1.387 . S
C228 H239 0.933 1_545 S
C229 C226 1.382 . S
C229 C227 1.392 . S
C230 Eu201 2.828 . S
C230 O214 1.249 . S
C230 O215 1.244 . S
C230 C224 1.505 . S
C231 O218 1.258 . S
C231 O219 1.242 . S
H232 C204 0.930 . S
H233 C205 0.930 . S
H234 C206 0.930 . S
H235 C207 0.931 . S
H236 C225 0.930 . S
H237 C226 0.930 . S
H238 C227 0.930 . S
H239 C228 0.933 1_565 S
C240 C241 1.369 1_554 S
C240 C242 1.419 1_565 S
C240 H244 0.930 . S
C241 C240 1.369 1_556 S
C241 C250 1.429 . S
C242 C240 1.419 1_545 S
C242 C243 1.363 . S
C242 H245 0.929 . S
C243 C242 1.363 . S
C243 C249 1.428 1_554 S
H244 C240 0.930 . S
H245 C242 0.929 . S
S246 N247 1.613 1_545 S
S246 N248 1.610 . S
N247 S246 1.613 1_565 S
N247 C250 1.350 . S
N248 S246 1.610 . S
N248 C249 1.351 . S
C249 C243 1.428 1_556 S
C249 N248 1.351 . S
C249 C250 1.434 1_545 S
C250 C241 1.429 . S
C250 N247 1.350 . S
C250 C249 1.434 1_565 S
C251 C252 1.369 . S
C251 C253 1.419 . S
C251 H255 0.930 . S
C252 C251 1.369 . S
C252 C261 1.429 . S
C253 C251 1.419 . S
C253 C254 1.363 . S
C253 H256 0.929 . S
C254 C253 1.363 . S
C254 C260 1.428 . S
H255 C251 0.930 . S
H256 C253 0.929 . S
S257 N258 1.613 . S
S257 N259 1.610 . S
N258 S257 1.613 . S
N258 C261 1.350 . S
N259 S257 1.610 . S
N259 C260 1.351 . S
C260 C254 1.428 . S
C260 N259 1.351 . S
C260 C261 1.434 . S
C261 C252 1.429 . S
C261 N258 1.350 . S
C261 C260 1.434 . S
C262 C263 1.369 . S
C262 C264 1.419 1_655 S
C262 H266 0.930 . S
C263 C262 1.369 . S
C263 C272 1.429 1_554 S
C264 C262 1.419 1_455 S
C264 C265 1.363 1_554 S
C264 H267 0.929 . S
C265 C264 1.363 1_556 S
C265 C271 1.428 1_455 S
H266 C262 0.930 . S
H267 C264 0.929 . S
S268 N269 1.613 . S
S268 N270 1.610 . S
N269 S268 1.613 . S
N269 C272 1.350 . S
N270 S268 1.610 . S
N270 C271 1.351 . S
C271 C265 1.428 1_655 S
C271 N270 1.351 . S
C271 C272 1.434 . S
C272 C263 1.429 1_556 S
C272 N269 1.350 . S
C272 C271 1.434 . S
C273 C274 1.369 . S
C273 C275 1.419 1_545 S
C273 H277 0.930 . S
C274 C273 1.369 . S
C274 C283 1.429 . S
C275 C273 1.419 1_565 S
C275 C276 1.363 . S
C275 H278 0.929 . S
C276 C275 1.363 . S
C276 C282 1.428 . S
H277 C273 0.930 . S
H278 C275 0.929 . S
S279 N280 1.613 . S
S279 N281 1.610 1_545 S
N280 S279 1.613 . S
N280 C283 1.350 . S
N281 S279 1.610 1_565 S
N281 C282 1.351 . S
C282 C276 1.428 . S
C282 N281 1.351 . S
C282 C283 1.434 1_565 S
C283 C274 1.429 . S
C283 N280 1.350 . S
C283 C282 1.434 1_545 S
C284 C285 1.369 . S
C284 C286 1.419 1_556 S
C284 H288 0.930 . S
C285 C284 1.369 . S
C285 C294 1.429 . S
C286 C284 1.419 1_554 S
C286 C287 1.363 . S
C286 H289 0.929 . S
C287 C286 1.363 . S
C287 C293 1.428 . S
H288 C284 0.930 . S
H289 C286 0.929 . S
S290 N291 1.613 1_554 S
S290 N292 1.610 . S
N291 S290 1.613 1_556 S
N291 C294 1.350 . S
N292 S290 1.610 . S
N292 C293 1.351 . S
C293 C287 1.428 . S
C293 N292 1.351 . S
C293 C294 1.434 1_554 S
C294 C285 1.429 . S
C294 N291 1.350 . S
C294 C293 1.434 1_556 S
C295 C296 1.385 . S
C295 C297 1.407 1_655 S
C295 H299 0.927 . S
C296 C295 1.385 . S
C296 C305 1.429 . S
C297 C295 1.407 1_455 S
C297 C298 1.363 . S
C297 H300 0.929 . S
C298 C297 1.363 . S
C298 C304 1.428 . S
H299 C295 0.927 . S
H300 C297 0.929 . S
S301 N302 1.613 . S
S301 N303 1.610 1_655 S
N302 S301 1.613 . S
N302 C305 1.350 . S
N303 S301 1.610 1_455 S
N303 C304 1.351 . S
C304 C298 1.428 . S
C304 N303 1.351 . S
C304 C305 1.434 1_455 S
C305 C296 1.429 . S
C305 N302 1.350 . S
C305 C304 1.434 1_655 S
C306 C307 1.369 . S
C306 C308 1.419 . S
C306 H310 0.930 . S
C307 C306 1.369 . S
C307 C316 1.429 . S
C308 C306 1.419 . S
C308 C309 1.363 . S
C308 H311 0.929 . S
C309 C308 1.363 . S
C309 C315 1.428 . S
H310 C306 0.930 . S
H311 C308 0.929 . S
S312 N313 1.613 . S
S312 N314 1.610 . S
N313 S312 1.613 . S
N313 C316 1.350 . S
N314 S312 1.610 . S
N314 C315 1.351 . S
C315 C309 1.428 . S
C315 N314 1.351 . S
C315 C316 1.434 . S
C316 C307 1.429 . S
C316 N313 1.350 . S
C316 C315 1.434 . S
C317 C318 1.369 . S
C317 C319 1.419 . S
C317 H321 0.930 . S
C318 C317 1.369 . S
C318 C327 1.429 . S
C319 C317 1.419 . S
C319 C320 1.363 . S
C319 H322 0.929 . S
C320 C319 1.363 . S
C320 C326 1.428 . S
H321 C317 0.930 . S
H322 C319 0.929 . S
S323 N324 1.613 . S
S323 N325 1.610 . S
N324 S323 1.613 . S
N324 C327 1.350 . S
N325 S323 1.610 . S
N325 C326 1.351 . S
C326 C320 1.428 . S
C326 N325 1.351 . S
C326 C327 1.434 . S
C327 C318 1.429 . S
C327 N324 1.350 . S
C327 C326 1.434 . S
C328 C329 1.369 . S
C328 C330 1.419 . S
C328 H332 0.930 . S
C329 C328 1.369 . S
C329 C338 1.429 . S
C330 C328 1.419 . S
C330 C331 1.363 . S
C330 H333 0.929 . S
C331 C330 1.363 . S
C331 C337 1.428 . S
H332 C328 0.930 . S
H333 C330 0.929 . S
S334 N335 1.613 . S
S334 N336 1.610 . S
N335 S334 1.613 . S
N335 C338 1.350 . S
N336 S334 1.610 . S
N336 C337 1.351 . S
C337 C331 1.428 . S
C337 N336 1.351 . S
C337 C338 1.434 . S
C338 C329 1.429 . S
C338 N335 1.350 . S
C338 C337 1.434 . S
C339 C340 1.369 . S
C339 C341 1.419 . S
C339 H343 0.930 . S
C340 C339 1.369 . S
C340 C349 1.429 . S
C341 C339 1.419 . S
C341 C342 1.363 . S
C341 H344 0.929 . S
C342 C341 1.363 . S
C342 C348 1.428 . S
H343 C339 0.930 . S
H344 C341 0.929 . S
S345 N346 1.613 . S
S345 N347 1.610 . S
N346 S345 1.613 . S
N346 C349 1.350 . S
N347 S345 1.610 . S
N347 C348 1.351 . S
C348 C342 1.428 . S
C348 N347 1.351 . S
C348 C349 1.434 . S
C349 C340 1.429 . S
C349 N346 1.350 . S
C349 C348 1.434 . S
C350 C351 1.369 . S
C350 C352 1.419 . S
C350 H354 0.930 . S
C351 C350 1.369 . S
C351 C360 1.429 . S
C352 C350 1.419 . S
C352 C353 1.363 . S
C352 H355 0.929 . S
C353 C352 1.363 . S
C353 C359 1.428 . S
H354 C350 0.930 . S
H355 C352 0.929 . S
S356 N357 1.613 . S
S356 N358 1.610 . S
N357 S356 1.613 . S
N357 C360 1.350 . S
N358 S356 1.610 . S
N358 C359 1.351 . S
C359 C353 1.428 . S
C359 N358 1.351 . S
C359 C360 1.434 . S
C360 C351 1.429 . S
C360 N357 1.350 . S
C360 C359 1.434 . S
C361 C362 1.369 . S
C361 C363 1.419 . S
C361 H365 0.930 . S
C362 C361 1.369 . S
C362 C371 1.429 . S
C363 C361 1.419 . S
C363 C364 1.363 . S
C363 H366 0.929 . S
C364 C363 1.363 . S
C364 C370 1.428 . S
H365 C361 0.930 . S
H366 C363 0.929 . S
S367 N368 1.613 . S
S367 N369 1.610 . S
N368 S367 1.613 . S
N368 C371 1.350 . S
N369 S367 1.610 . S
N369 C370 1.351 . S
C370 C364 1.428 . S
C370 N369 1.351 . S
C370 C371 1.434 . S
C371 C362 1.429 . S
C371 N368 1.350 . S
C371 C370 1.434 . S
C372 C373 1.369 1_655 S
C372 C374 1.419 . S
C372 H376 0.930 . S
C373 C372 1.369 1_455 S
C373 C382 1.429 . S
C374 C372 1.419 . S
C374 C375 1.363 1_655 S
C374 H377 0.929 . S
C375 C374 1.363 1_455 S
C375 C381 1.428 . S
H376 C372 0.930 . S
H377 C374 0.929 . S
S378 N379 1.613 . S
S378 N380 1.610 . S
N379 S378 1.613 . S
N379 C382 1.350 . S
N380 S378 1.610 . S
N380 C381 1.351 . S
C381 C375 1.428 . S
C381 N380 1.351 . S
C381 C382 1.434 . S
C382 C373 1.429 . S
C382 N379 1.350 . S
C382 C381 1.434 . S
C383 C384 1.369 . S
C383 C385 1.419 . S
C383 H387 0.930 . S
C384 C383 1.369 . S
C384 C393 1.429 1_565 S
C385 C383 1.419 . S
C385 C386 1.363 . S
C385 H388 0.929 . S
C386 C385 1.363 . S
C386 C392 1.428 1_565 S
H387 C383 0.930 . S
H388 C385 0.929 . S
S389 N390 1.613 . S
S389 N391 1.610 . S
N390 S389 1.613 . S
N390 C393 1.350 . S
N391 S389 1.610 . S
N391 C392 1.351 . S
C392 C386 1.428 1_545 S
C392 N391 1.351 . S
C392 C393 1.434 . S
C393 C384 1.429 1_545 S
C393 N390 1.350 . S
C393 C392 1.434 . S
C394 C395 1.369 . S
C394 C396 1.419 . S
C394 H398 0.930 . S
C395 C394 1.369 . S
C395 C404 1.429 . S
C396 C394 1.419 . S
C396 C397 1.363 . S
C396 H399 0.929 . S
C397 C396 1.363 . S
C397 C403 1.428 . S
H398 C394 0.930 . S
H399 C396 0.929 . S
S400 N401 1.613 . S
S400 N402 1.610 . S
N401 S400 1.613 . S
N401 C404 1.350 . S
N402 S400 1.610 . S
N402 C403 1.351 . S
C403 C397 1.428 . S
C403 N402 1.351 . S
C403 C404 1.434 . S
C404 C395 1.429 . S
C404 N401 1.350 . S
C404 C403 1.434 . S
C405 C406 1.369 . S
C405 C407 1.419 . S
C405 H409 0.930 . S
C406 C405 1.369 . S
C406 C415 1.429 . S
C407 C405 1.419 . S
C407 C408 1.363 . S
C407 H410 0.929 1_545 S
C408 C407 1.363 . S
C408 C414 1.428 . S
H409 C405 0.930 . S
H410 C407 0.929 1_565 S
S411 N412 1.613 . S
S411 N413 1.610 . S
N412 S411 1.613 . S
N412 C415 1.350 . S
N413 S411 1.610 . S
N413 C414 1.351 . S
C414 C408 1.428 . S
C414 N413 1.351 . S
C414 C415 1.434 . S
C415 C406 1.429 . S
C415 N412 1.350 . S
C415 C414 1.434 . S
C416 C417 1.369 . S
C416 C418 1.419 . S
C416 H420 0.930 . S
C417 C416 1.369 . S
C417 C426 1.429 . S
C418 C416 1.419 . S
C418 C419 1.363 . S
C418 H421 0.929 . S
C419 C418 1.363 . S
C419 C425 1.428 . S
H420 C416 0.930 . S
H421 C418 0.929 . S
S422 N423 1.613 . S
S422 N424 1.610 . S
N423 S422 1.613 . S
N423 C426 1.350 . S
N424 S422 1.610 . S
N424 C425 1.351 . S
C425 C419 1.428 . S
C425 N424 1.351 . S
C425 C426 1.434 . S
C426 C417 1.429 . S
C426 N423 1.350 . S
C426 C425 1.434 . S
C427 C428 1.369 1_455 S
C427 C429 1.419 . S
C427 H431 0.930 . S
C428 C427 1.369 1_655 S
C428 C437 1.429 . S
C429 C427 1.419 . S
C429 C430 1.363 1_455 S
C429 H432 0.929 . S
C430 C429 1.363 1_655 S
C430 C436 1.428 . S
H431 C427 0.930 . S
H432 C429 0.929 . S
S433 N434 1.613 . S
S433 N435 1.610 . S
N434 S433 1.613 . S
N434 C437 1.350 . S
N435 S433 1.610 . S
N435 C436 1.351 . S
C436 C430 1.428 . S
C436 N435 1.351 . S
C436 C437 1.434 . S
C437 C428 1.429 . S
C437 N434 1.350 . S
C437 C436 1.434 . S
C241 C162 2.611 . S
C243 C2 2.384 . S
C252 C217 2.379 . S
C254 C57 2.615 . S
C263 C82 2.384 . S
C265 C122 2.613 . S
C274 C17 2.618 . S
C276 C177 2.376 . S
C285 C202 2.612 . S
C287 C42 2.382 . S
C296 C97 2.619 . S
C298 C137 2.376 . S
C307 C29 1.979 . S
C309 C92 1.904 . S
C318 C69 1.975 . S
C320 C12 1.909 . S
C329 C109 1.981 . S
C331 C52 1.903 . S
C340 C128 1.976 . S
C342 C191 1.908 . S
C351 C168 1.977 . S
C353 C231 1.906 . S
C362 C151 1.911 . S
C364 C208 1.976 . S
C373 C8 1.371 . S
C375 C111 1.497 1_455 S
C384 C48 1.384 . S
C386 C31 1.490 1_565 S
C395 C88 1.367 . S
C397 C71 1.499 . S
C406 C149 1.379 . S
C408 C172 1.493 1_545 S
C417 C189 1.376 . S
C419 C212 1.494 . S
C428 C132 1.500 1_655 S
C430 C229 1.369 . S
