# Generated by pormake.
# Topology bcu-j, (5)-cn, num edge types: 1
# Building blocks:
#     Node 0, Type 0, BuildingBlock: BEQFEK_clean_sbu_0, # of connection points: 5
#     Node 1, Type 0, BuildingBlock: BEQFEK_clean_sbu_0, # of connection points: 5
#     Node 2, Type 0, BuildingBlock: BEQFEK_clean_sbu_0, # of connection points: 5
#     Node 3, Type 0, BuildingBlock: BEQFEK_clean_sbu_0, # of connection points: 5
#     Node 4, Type 0, BuildingBlock: BEQFEK_clean_sbu_0, # of connection points: 5
#     Node 5, Type 0, BuildingBlock: BEQFEK_clean_sbu_0, # of connection points: 5
#     Node 6, Type 0, BuildingBlock: BEQFEK_clean_sbu_0, # of connection points: 5
#     Node 7, Type 0, BuildingBlock: BEQFEK_clean_sbu_0, # of connection points: 5
#     Node 8, Type 0, BuildingBlock: BEQFEK_clean_sbu_0, # of connection points: 5
#     Node 9, Type 0, BuildingBlock: BEQFEK_clean_sbu_0, # of connection points: 5
#     Node 10, Type 0, BuildingBlock: BEQFEK_clean_sbu_0, # of connection points: 5
#     Node 11, Type 0, BuildingBlock: BEQFEK_clean_sbu_0, # of connection points: 5
#     Node 12, Type 0, BuildingBlock: BEQFEK_clean_sbu_0, # of connection points: 5
#     Node 13, Type 0, BuildingBlock: BEQFEK_clean_sbu_0, # of connection points: 5
#     Node 14, Type 0, BuildingBlock: BEQFEK_clean_sbu_0, # of connection points: 5
#     Node 15, Type 0, BuildingBlock: BEQFEK_clean_sbu_0, # of connection points: 5
#     Edge 16, Type (0, 0), BuildingBlock: UVAHIK_clean_linker_0, # of connection points: 2
#     Edge 17, Type (0, 0), BuildingBlock: UVAHIK_clean_linker_0, # of connection points: 2
#     Edge 18, Type (0, 0), BuildingBlock: UVAHIK_clean_linker_0, # of connection points: 2
#     Edge 19, Type (0, 0), BuildingBlock: UVAHIK_clean_linker_0, # of connection points: 2
#     Edge 20, Type (0, 0), BuildingBlock: UVAHIK_clean_linker_0, # of connection points: 2
#     Edge 21, Type (0, 0), BuildingBlock: UVAHIK_clean_linker_0, # of connection points: 2
#     Edge 22, Type (0, 0), BuildingBlock: UVAHIK_clean_linker_0, # of connection points: 2
#     Edge 23, Type (0, 0), BuildingBlock: UVAHIK_clean_linker_0, # of connection points: 2
#     Edge 24, Type (0, 0), BuildingBlock: UVAHIK_clean_linker_0, # of connection points: 2
#     Edge 25, Type (0, 0), BuildingBlock: UVAHIK_clean_linker_0, # of connection points: 2
#     Edge 26, Type (0, 0), BuildingBlock: UVAHIK_clean_linker_0, # of connection points: 2
#     Edge 27, Type (0, 0), BuildingBlock: UVAHIK_clean_linker_0, # of connection points: 2
#     Edge 28, Type (0, 0), BuildingBlock: UVAHIK_clean_linker_0, # of connection points: 2
#     Edge 29, Type (0, 0), BuildingBlock: UVAHIK_clean_linker_0, # of connection points: 2
#     Edge 30, Type (0, 0), BuildingBlock: UVAHIK_clean_linker_0, # of connection points: 2
#     Edge 31, Type (0, 0), BuildingBlock: UVAHIK_clean_linker_0, # of connection points: 2
#     Edge 32, Type (0, 0), BuildingBlock: UVAHIK_clean_linker_0, # of connection points: 2
#     Edge 33, Type (0, 0), BuildingBlock: UVAHIK_clean_linker_0, # of connection points: 2
#     Edge 34, Type (0, 0), BuildingBlock: UVAHIK_clean_linker_0, # of connection points: 2
#     Edge 35, Type (0, 0), BuildingBlock: UVAHIK_clean_linker_0, # of connection points: 2
#     Edge 36, Type (0, 0), BuildingBlock: UVAHIK_clean_linker_0, # of connection points: 2
#     Edge 37, Type (0, 0), BuildingBlock: UVAHIK_clean_linker_0, # of connection points: 2
#     Edge 38, Type (0, 0), BuildingBlock: UVAHIK_clean_linker_0, # of connection points: 2
#     Edge 39, Type (0, 0), BuildingBlock: UVAHIK_clean_linker_0, # of connection points: 2
#     Edge 40, Type (0, 0), BuildingBlock: UVAHIK_clean_linker_0, # of connection points: 2
#     Edge 41, Type (0, 0), BuildingBlock: UVAHIK_clean_linker_0, # of connection points: 2
#     Edge 42, Type (0, 0), BuildingBlock: UVAHIK_clean_linker_0, # of connection points: 2
#     Edge 43, Type (0, 0), BuildingBlock: UVAHIK_clean_linker_0, # of connection points: 2
#     Edge 44, Type (0, 0), BuildingBlock: UVAHIK_clean_linker_0, # of connection points: 2
#     Edge 45, Type (0, 0), BuildingBlock: UVAHIK_clean_linker_0, # of connection points: 2
#     Edge 46, Type (0, 0), BuildingBlock: UVAHIK_clean_linker_0, # of connection points: 2
#     Edge 47, Type (0, 0), BuildingBlock: UVAHIK_clean_linker_0, # of connection points: 2
#     Edge 48, Type (0, 0), BuildingBlock: UVAHIK_clean_linker_0, # of connection points: 2
#     Edge 49, Type (0, 0), BuildingBlock: UVAHIK_clean_linker_0, # of connection points: 2
#     Edge 50, Type (0, 0), BuildingBlock: UVAHIK_clean_linker_0, # of connection points: 2
#     Edge 51, Type (0, 0), BuildingBlock: UVAHIK_clean_linker_0, # of connection points: 2
#     Edge 52, Type (0, 0), BuildingBlock: UVAHIK_clean_linker_0, # of connection points: 2
#     Edge 53, Type (0, 0), BuildingBlock: UVAHIK_clean_linker_0, # of connection points: 2
#     Edge 54, Type (0, 0), BuildingBlock: UVAHIK_clean_linker_0, # of connection points: 2
#     Edge 55, Type (0, 0), BuildingBlock: UVAHIK_clean_linker_0, # of connection points: 2
# Relax obj value: 0.900
# Max RMSD: 0.234
# Mean RMSD: 0.227
data_MOF--net-bcu-j--node1-BEQFEK_clean_sbu_0--edge1-UVAHIK_clean_linker_0
_symmetry_space_group_name_H-M    P1
_symmetry_Int_Tables_number       1
_symmetry_cell_setting            triclinic
loop_
_symmetry_equiv_pos_as_xyz
'x, y, z'
_cell_length_a     53.20883
_cell_length_b     53.212077
_cell_length_c     48.963778
_cell_angle_alpha  89.61768
_cell_angle_beta   90.365596
_cell_angle_gamma 90.219955
loop_
_atom_site_label
_atom_site_type_symbol
_atom_site_fract_x
_atom_site_fract_y
_atom_site_fract_z
_atom_type_partial_charge
Co0 Co 0.98603 0.11612 0.58873 0.0
Co1 Co 0.99416 0.1627 0.55014 0.0
C2 C 0.0364 0.12922 0.56347 0.0
O3 O 0.02133 0.11537 0.57686 0.0
O4 O 0.02905 0.14967 0.55258 0.0
C5 C 0.00244 0.09141 0.6349 0.0
O6 O 0.01932 0.1093 0.63199 0.0
C7 C 0.01461 0.21093 0.53359 0.0
C8 C 0.98428 0.2277 0.50853 0.0
C9 C 0.00796 0.23248 0.51934 0.0
N10 N 0.99589 0.19407 0.53119 0.0
N11 N 0.97793 0.20404 0.51585 0.0
C12 C 0.03691 0.20752 0.55207 0.0
H13 H 0.0524 0.19894 0.54032 0.0
H14 H 0.03214 0.19485 0.56935 0.0
H15 H 0.04355 0.22579 0.56026 0.0
C16 C 0.96687 0.15458 0.62526 0.0
N17 N 0.97653 0.14768 0.60121 0.0
N18 N 0.97991 0.16766 0.58567 0.0
C19 C 0.97276 0.18815 0.59985 0.0
C20 C 0.9645 0.1804 0.62543 0.0
C21 C 0.95965 0.13674 0.64768 0.0
H22 H 0.95156 0.11931 0.63895 0.0
H23 H 0.97661 0.13185 0.65986 0.0
H24 H 0.9457 0.14534 0.66151 0.0
O25 O 0.96557 0.10677 0.55761 0.0
O26 O 0.97523 0.13706 0.52781 0.0
H27 H 0.96617 0.21659 0.56956 0.0
H28 H 0.96653 0.22813 0.60419 0.0
C29 C 0.97524 0.21468 0.5899 0.0
H30 H 0.99541 0.2195 0.58784 0.0
H31 H 0.96092 0.19509 0.51135 0.0
O32 O 0.98411 0.09047 0.61817 0.0
C33 C 0.96471 0.11605 0.5336 0.0
Co34 Co 0.3846 0.97863 0.59172 0.0
Co35 Co 0.34029 0.991 0.55154 0.0
C36 C 0.37555 0.03106 0.571 0.0
O37 O 0.38802 0.01513 0.58499 0.0
O38 O 0.35609 0.02454 0.55749 0.0
C39 C 0.43121 0.97862 0.61904 0.0
O40 O 0.43778 0.99123 0.59704 0.0
C41 C 0.29405 0.01543 0.53457 0.0
C42 C 0.27808 0.98916 0.50428 0.0
C43 C 0.27348 0.01155 0.51765 0.0
N44 N 0.31017 0.99636 0.53126 0.0
N45 N 0.30072 0.98087 0.51283 0.0
C46 C 0.29713 0.03531 0.55585 0.0
H47 H 0.30956 0.02862 0.57263 0.0
H48 H 0.27865 0.0407 0.56438 0.0
H49 H 0.30578 0.05221 0.54637 0.0
C50 C 0.34331 0.96138 0.62619 0.0
N51 N 0.35195 0.97018 0.60225 0.0
N52 N 0.33302 0.97463 0.58554 0.0
C53 C 0.31149 0.96844 0.59845 0.0
C54 C 0.31733 0.95987 0.62461 0.0
C55 C 0.35961 0.95784 0.65099 0.0
H56 H 0.37238 0.94173 0.64765 0.0
H57 H 0.37139 0.97485 0.654 0.0
H58 H 0.34855 0.95444 0.66975 0.0
O59 O 0.39402 0.96129 0.55853 0.0
O60 O 0.3643 0.97187 0.52862 0.0
H61 H 0.28563 0.96492 0.56492 0.0
H62 H 0.27171 0.96018 0.59814 0.0
C63 C 0.28573 0.97127 0.58642 0.0
H64 H 0.28025 0.99134 0.58688 0.0
H65 H 0.30932 0.96421 0.50683 0.0
O66 O 0.40895 0.97008 0.62074 0.0
C67 C 0.38504 0.96109 0.5344 0.0
Co68 Co 0.5224 0.38627 0.58944 0.0
Co69 Co 0.51114 0.3408 0.55076 0.0
C70 C 0.47042 0.37576 0.56881 0.0
O71 O 0.486 0.38889 0.58248 0.0
O72 O 0.47734 0.35613 0.55618 0.0
C73 C 0.5229 0.43382 0.61467 0.0
O74 O 0.50965 0.43984 0.59287 0.0
C75 C 0.48763 0.29294 0.53823 0.0
C76 C 0.51331 0.27623 0.50817 0.0
C77 C 0.49173 0.27145 0.52309 0.0
N78 N 0.50585 0.30966 0.53252 0.0
N79 N 0.52097 0.29974 0.51421 0.0
C80 C 0.46859 0.29647 0.56025 0.0
H81 H 0.4756 0.31005 0.57564 0.0
H82 H 0.46413 0.27833 0.57048 0.0
H83 H 0.45106 0.30401 0.55102 0.0
C84 C 0.54002 0.34622 0.6256 0.0
N85 N 0.53122 0.35414 0.60129 0.0
N86 N 0.52791 0.33487 0.58499 0.0
C87 C 0.5352 0.31386 0.59846 0.0
C88 C 0.54305 0.32037 0.62464 0.0
C89 C 0.54212 0.36288 0.65009 0.0
H90 H 0.55919 0.37478 0.64817 0.0
H91 H 0.52557 0.37545 0.65093 0.0
H92 H 0.54313 0.35204 0.66946 0.0
O93 O 0.53956 0.39506 0.55583 0.0
O94 O 0.52956 0.3649 0.52648 0.0
H95 H 0.54068 0.28852 0.56517 0.0
H96 H 0.54704 0.27509 0.59846 0.0
C97 C 0.53457 0.28796 0.58674 0.0
H98 H 0.51512 0.2805 0.58759 0.0
H99 H 0.53707 0.30861 0.50672 0.0
O100 O 0.53125 0.41159 0.61712 0.0
C101 C 0.53995 0.38597 0.53189 0.0
Co102 Co 0.12091 0.52036 0.58431 0.0
Co103 Co 0.1635 0.50877 0.54225 0.0
C104 C 0.13138 0.46792 0.56661 0.0
O105 O 0.11917 0.48363 0.58073 0.0
O106 O 0.14939 0.47499 0.55134 0.0
C107 C 0.07477 0.52173 0.61149 0.0
O108 O 0.06758 0.51029 0.58903 0.0
C109 C 0.21056 0.48532 0.52818 0.0
C110 C 0.22525 0.50906 0.49471 0.0
C111 C 0.23101 0.48854 0.51116 0.0
N112 N 0.19342 0.50297 0.52205 0.0
N113 N 0.20211 0.51692 0.50173 0.0
C114 C 0.20857 0.46784 0.55218 0.0
H115 H 0.19624 0.47596 0.56801 0.0
H116 H 0.22736 0.46399 0.5612 0.0
H117 H 0.20025 0.44979 0.54532 0.0
C118 C 0.16286 0.54205 0.61479 0.0
N119 N 0.15342 0.53125 0.59223 0.0
N120 N 0.17144 0.52763 0.57446 0.0
C121 C 0.19311 0.53664 0.58514 0.0
C122 C 0.18837 0.54604 0.61104 0.0
C123 C 0.1481 0.54533 0.64049 0.0
H124 H 0.13522 0.56154 0.63789 0.0
H125 H 0.1365 0.52832 0.6443 0.0
H126 H 0.16033 0.5485 0.65854 0.0
O127 O 0.10884 0.53481 0.55011 0.0
O128 O 0.13728 0.52513 0.51883 0.0
H129 H 0.21552 0.54101 0.54917 0.0
H130 H 0.23133 0.54973 0.58048 0.0
C131 C 0.21798 0.53619 0.57107 0.0
H132 H 0.22608 0.51708 0.57273 0.0
H133 H 0.19272 0.53241 0.49346 0.0
O134 O 0.09738 0.52923 0.61357 0.0
C135 C 0.11615 0.53456 0.52543 0.0
Co136 Co 0.98769 0.37465 0.8942 0.0
Co137 Co 0.98886 0.33412 0.9412 0.0
C138 C 0.03581 0.35969 0.92094 0.0
O139 O 0.02367 0.37202 0.90299 0.0
O140 O 0.02467 0.3445 0.93697 0.0
C141 C 0.0029 0.39613 0.8449 0.0
O142 O 0.01986 0.37845 0.84795 0.0
C143 C 0.00485 0.28482 0.95659 0.0
C144 C 0.98662 0.27676 0.99609 0.0
C145 C 0.00261 0.26676 0.97678 0.0
N146 N 0.99069 0.30461 0.96326 0.0
N147 N 0.97985 0.29982 0.98698 0.0
C148 C 0.02142 0.28397 0.93198 0.0
H149 H 0.01672 0.29931 0.91742 0.0
H150 H 0.01956 0.26567 0.92147 0.0
H151 H 0.0413 0.28602 0.93861 0.0
C152 C 0.96132 0.33433 0.86512 0.0
N153 N 0.97291 0.34339 0.88746 0.0
N154 N 0.97249 0.3264 0.90711 0.0
C155 C 0.96029 0.30584 0.89771 0.0
C156 C 0.95291 0.3102 0.87085 0.0
C157 C 0.96042 0.34793 0.83824 0.0
H158 H 0.95226 0.36687 0.84113 0.0
H159 H 0.97983 0.35029 0.83054 0.0
H160 H 0.94934 0.33779 0.82259 0.0
O161 O 0.97135 0.3901 0.92547 0.0
O162 O 0.97216 0.36258 0.96001 0.0
H163 H 0.95161 0.28738 0.93569 0.0
H164 H 0.93853 0.27238 0.90571 0.0
C165 C 0.95509 0.28257 0.91407 0.0
H166 H 0.97152 0.26988 0.91301 0.0
H167 H 0.96794 0.31226 -0.00304 0.0
O168 O 0.98541 0.39777 0.86234 0.0
C169 C 0.96658 0.38415 0.95015 0.0
Co170 Co 0.11914 0.98346 0.90855 0.0
Co171 Co 0.16217 0.99135 0.95173 0.0
C172 C 0.12875 0.03368 0.9336 0.0
O173 O 0.11684 0.01952 0.91712 0.0
O174 O 0.14682 0.02529 0.94813 0.0
C175 C 0.07336 0.98554 0.87921 0.0
O176 O 0.06626 0.99794 0.90094 0.0
C177 C 0.20811 0.0146 0.97167 0.0
C178 C 0.22389 0.98587 -0.00041 0.0
C179 C 0.22858 0.00941 0.98838 0.0
N180 N 0.192 0.99515 0.97304 0.0
N181 N 0.20134 0.97814 0.99004 0.0
C182 C 0.20513 0.03629 0.95227 0.0
H183 H 0.19345 0.03074 0.93444 0.0
H184 H 0.22367 0.04312 0.94502 0.0
H185 H 0.19559 0.05189 0.96293 0.0
C186 C 0.16086 0.96765 0.87485 0.0
N187 N 0.15175 0.97481 0.89903 0.0
N188 N 0.17031 0.97775 0.91662 0.0
C189 C 0.19209 0.97236 0.90383 0.0
C190 C 0.1867 0.96592 0.87697 0.0
C191 C 0.14512 0.96421 0.84967 0.0
H192 H 0.12991 0.95046 0.85398 0.0
H193 H 0.13624 0.98237 0.84404 0.0
H194 H 0.15639 0.95736 0.83226 0.0
O195 O 0.10815 0.96428 0.94009 0.0
O196 O 0.13708 0.97055 0.97228 0.0
H197 H 0.21806 0.96716 0.93698 0.0
H198 H 0.23217 0.96609 0.90348 0.0
C199 C 0.21771 0.97537 0.91613 0.0
H200 H 0.22236 0.99564 0.91751 0.0
H201 H 0.19277 0.96092 0.99436 0.0
O202 O 0.09555 0.97692 0.87826 0.0
C203 C 0.11621 0.96112 0.96434 0.0
Co204 Co 0.5092 0.12067 0.90582 0.0
Co205 Co 0.50756 0.16249 0.95078 0.0
C206 C 0.46263 0.13064 0.93807 0.0
O207 O 0.47493 0.11849 0.92042 0.0
O208 O 0.47258 0.14885 0.95094 0.0
C209 C 0.49078 0.09434 0.86042 0.0
O210 O 0.47085 0.1077 0.86631 0.0
C211 C 0.48855 0.20955 0.97005 0.0
C212 C 0.51774 0.22337 -0.00148 0.0
C213 C 0.49494 0.22968 0.98645 0.0
N214 N 0.50651 0.19204 0.9724 0.0
N215 N 0.52378 0.20017 0.98978 0.0
C216 C 0.46747 0.20826 0.94966 0.0
H217 H 0.47222 0.19529 0.93284 0.0
H218 H 0.46334 0.22714 0.94101 0.0
H219 H 0.45034 0.20114 0.95998 0.0
C220 C 0.52612 0.16298 0.87203 0.0
N221 N 0.51819 0.15345 0.89595 0.0
N222 N 0.51871 0.17105 0.91469 0.0
C223 C 0.52733 0.19252 0.90312 0.0
C224 C 0.53236 0.18804 0.87577 0.0
C225 C 0.52595 0.14853 0.84587 0.0
H226 H 0.53915 0.13251 0.84766 0.0
H227 H 0.50685 0.14084 0.84228 0.0
H228 H 0.53104 0.16027 0.82798 0.0
O229 O 0.53181 0.10846 0.93431 0.0
O230 O 0.52909 0.13602 0.96818 0.0
H231 H 0.54037 0.2126 0.9383 0.0
H232 H 0.54441 0.22932 0.90641 0.0
C233 C 0.53181 0.21657 0.91806 0.0
H234 H 0.51361 0.2262 0.92113 0.0
H235 H 0.54017 0.19039 0.99475 0.0
O236 O 0.51071 0.09733 0.87447 0.0
C237 C 0.53739 0.11548 0.9584 0.0
Co238 Co 0.38644 0.51481 0.89745 0.0
Co239 Co 0.3397 0.50433 0.93466 0.0
C240 C 0.3758 0.46387 0.92266 0.0
O241 O 0.38917 0.47949 0.90943 0.0
O242 O 0.35486 0.47034 0.93271 0.0
C243 C 0.41317 0.50051 0.85232 0.0
O244 O 0.39632 0.48251 0.85457 0.0
C245 C 0.29178 0.48133 0.94566 0.0
C246 C 0.27557 0.50399 0.97877 0.0
C247 C 0.27076 0.48369 0.9619 0.0
N248 N 0.30822 0.49949 0.9523 0.0
N249 N 0.29857 0.51294 0.97225 0.0
C250 C 0.29706 0.46129 0.92513 0.0
H251 H 0.30691 0.44556 0.93558 0.0
H252 H 0.30954 0.4687 0.90887 0.0
H253 H 0.2796 0.45369 0.91587 0.0
C254 C 0.3475 0.53244 0.8596 0.0
N255 N 0.35455 0.52284 0.88387 0.0
N256 N 0.33458 0.51902 0.89911 0.0
C257 C 0.31401 0.5261 0.88461 0.0
C258 C 0.32165 0.53452 0.85907 0.0
C259 C 0.36519 0.53992 0.83729 0.0
H260 H 0.38216 0.54898 0.84609 0.0
H261 H 0.37094 0.52292 0.82598 0.0
H262 H 0.35613 0.55315 0.82267 0.0
O263 O 0.39416 0.5352 0.92912 0.0
O264 O 0.36367 0.52433 0.95792 0.0
H265 H 0.28631 0.5297 0.91597 0.0
H266 H 0.2746 0.53561 0.88182 0.0
C267 C 0.28749 0.52387 0.89434 0.0
H268 H 0.28125 0.50405 0.8927 0.0
H269 H 0.30753 0.52834 0.98121 0.0
O270 O 0.41255 0.51869 0.869 0.0
C271 C 0.38443 0.53558 0.95281 0.0
Co272 Co 0.00338 0.88292 0.39947 0.0
Co273 Co 0.99767 0.8393 0.44244 0.0
C274 C 0.95433 0.87206 0.42692 0.0
O275 O 0.96796 0.88481 0.41065 0.0
O276 O 0.96312 0.85329 0.44005 0.0
C277 C 0.00153 0.92963 0.37186 0.0
O278 O 0.99331 0.93715 0.39569 0.0
C279 C 0.97682 0.79243 0.46287 0.0
C280 C 0.00666 0.77777 0.49009 0.0
C281 C 0.9831 0.77219 0.47945 0.0
N282 N 0.99565 0.80928 0.46379 0.0
N283 N 0.01333 0.80059 0.48036 0.0
C284 C 0.95468 0.7945 0.44395 0.0
H285 H 0.9593 0.80663 0.42616 0.0
H286 H 0.94869 0.7757 0.43662 0.0
H287 H 0.93879 0.80305 0.45507 0.0
C288 C 0.02004 0.8419 0.36518 0.0
N289 N 0.01236 0.85054 0.38937 0.0
N290 N 0.0106 0.83184 0.40696 0.0
C291 C 0.01725 0.81042 0.39421 0.0
C292 C 0.02324 0.8162 0.3673 0.0
C293 C 0.02392 0.85811 0.34043 0.0
H294 H 0.03639 0.87411 0.34578 0.0
H295 H 0.00557 0.86588 0.33365 0.0
H296 H 0.0325 0.84755 0.32343 0.0
O297 O 0.02392 0.89417 0.42983 0.0
O298 O 0.01795 0.86537 0.46228 0.0
H299 H 0.02529 0.78503 0.42721 0.0
H300 H 0.02561 0.77066 0.39384 0.0
C301 C 0.01618 0.78476 0.4068 0.0
H302 H 0.99627 0.77907 0.40935 0.0
H303 H 0.03031 0.80984 0.48429 0.0
O304 O 0.00757 0.90675 0.36888 0.0
C305 C 0.02718 0.88629 0.45415 0.0
Co306 Co 0.61238 0.01968 0.39289 0.0
Co307 Co 0.65484 0.0098 0.43631 0.0
C308 C 0.62223 0.96812 0.41574 0.0
O309 O 0.61014 0.9832 0.4003 0.0
O310 O 0.64049 0.97572 0.43046 0.0
C311 C 0.5661 0.02052 0.36554 0.0
O312 O 0.55881 0.01216 0.38955 0.0
C313 C 0.70059 0.98686 0.45696 0.0
C314 C 0.71473 0.01442 0.48696 0.0
C315 C 0.72023 0.99161 0.47491 0.0
N316 N 0.68411 0.00583 0.45845 0.0
N317 N 0.69247 0.02213 0.47666 0.0
C318 C 0.69883 0.96613 0.43649 0.0
H319 H 0.68749 0.97214 0.41854 0.0
H320 H 0.71779 0.96043 0.4296 0.0
H321 H 0.68959 0.94961 0.4461 0.0
C322 C 0.65463 0.03933 0.36151 0.0
N323 N 0.6451 0.0297 0.38465 0.0
N324 N 0.66331 0.02573 0.40245 0.0
C325 C 0.68525 0.03265 0.39086 0.0
C326 C 0.6804 0.04158 0.36466 0.0
C327 C 0.63951 0.04339 0.33597 0.0
H328 H 0.63034 0.02545 0.33005 0.0
H329 H 0.65119 0.05027 0.31878 0.0
H330 H 0.62444 0.0572 0.34004 0.0
O331 O 0.60041 0.03709 0.42501 0.0
O332 O 0.6289 0.02858 0.45709 0.0
H333 H 0.71014 0.03678 0.42511 0.0
H334 H 0.7252 0.04009 0.39228 0.0
C335 C 0.71058 0.0297 0.4039 0.0
H336 H 0.71562 0.00952 0.40449 0.0
H337 H 0.68339 0.03887 0.48141 0.0
O338 O 0.58908 0.02625 0.3622 0.0
C339 C 0.60805 0.0383 0.44962 0.0
Co340 Co 0.47377 0.60852 0.40579 0.0
Co341 Co 0.49046 0.65446 0.44172 0.0
C342 C 0.5277 0.61672 0.42297 0.0
O343 O 0.51046 0.60403 0.41127 0.0
O344 O 0.5229 0.63744 0.43468 0.0
C345 C 0.47106 0.5609 0.38077 0.0
O346 O 0.48429 0.55438 0.40243 0.0
C347 C 0.51673 0.70132 0.45366 0.0
C348 C 0.48967 0.72164 0.4793 0.0
C349 C 0.51232 0.7244 0.46574 0.0
N350 N 0.49724 0.68597 0.45901 0.0
N351 N 0.48137 0.69803 0.47487 0.0
C352 C 0.53932 0.69347 0.4378 0.0
H353 H 0.54752 0.67663 0.44773 0.0
H354 H 0.5336 0.68827 0.41674 0.0
H355 H 0.55408 0.7082 0.43727 0.0
C356 C 0.45568 0.64861 0.36977 0.0
N357 N 0.46583 0.64082 0.39355 0.0
N358 N 0.47253 0.66037 0.40823 0.0
C359 C 0.46691 0.68141 0.39388 0.0
C360 C 0.45601 0.67459 0.36918 0.0
C361 C 0.44873 0.63134 0.34688 0.0
H362 H 0.46549 0.62035 0.34093 0.0
H363 H 0.44152 0.64172 0.32877 0.0
H364 H 0.43417 0.61788 0.35401 0.0
O365 O 0.45772 0.60127 0.44043 0.0
O366 O 0.4725 0.63132 0.46754 0.0
H367 H 0.4644 0.72175 0.38886 0.0
H368 H 0.49379 0.71026 0.40242 0.0
C369 C 0.47313 0.70759 0.40265 0.0
H370 H 0.46627 0.71063 0.42366 0.0
H371 H 0.46424 0.69061 0.48147 0.0
O372 O 0.46327 0.58336 0.37862 0.0
C373 C 0.46037 0.61081 0.46403 0.0
Co374 Co 0.87798 0.48701 0.40441 0.0
Co375 Co 0.83529 0.49006 0.44843 0.0
C376 C 0.86577 0.53515 0.43309 0.0
O377 O 0.87856 0.52214 0.41661 0.0
O378 O 0.84759 0.52547 0.44626 0.0
C379 C 0.90279 0.50411 0.35778 0.0
O380 O 0.88744 0.52294 0.36204 0.0
C381 C 0.78695 0.50842 0.46468 0.0
C382 C 0.77326 0.48058 0.49477 0.0
C383 C 0.76646 0.50224 0.48068 0.0
N384 N 0.80508 0.49138 0.46911 0.0
N385 N 0.797 0.47493 0.48745 0.0
C386 C 0.78819 0.52819 0.4428 0.0
H387 H 0.80165 0.52271 0.42671 0.0
H388 H 0.76942 0.53131 0.43339 0.0
H389 H 0.79471 0.5461 0.45196 0.0
C390 C 0.83716 0.46546 0.37166 0.0
N391 N 0.84585 0.47584 0.39483 0.0
N392 N 0.82795 0.47607 0.41323 0.0
C393 C 0.8071 0.4656 0.40216 0.0
C394 C 0.81232 0.45853 0.37556 0.0
C395 C 0.85215 0.46375 0.34595 0.0
H396 H 0.86938 0.45262 0.34995 0.0
H397 H 0.85796 0.4829 0.33955 0.0
H398 H 0.8414 0.45519 0.32894 0.0
O399 O 0.89068 0.46694 0.4348 0.0
O400 O 0.86253 0.47105 0.46799 0.0
H401 H 0.78685 0.45418 0.43786 0.0
H402 H 0.77081 0.44755 0.40613 0.0
C403 C 0.78294 0.46131 0.41697 0.0
H404 H 0.77265 0.47932 0.41844 0.0
H405 H 0.80721 0.4593 0.49403 0.0
O406 O 0.90171 0.485 0.37345 0.0
C407 C 0.88359 0.46299 0.45926 0.0
Co408 Co 0.01775 0.61436 0.08936 0.0
Co409 Co 0.00883 0.65858 0.04781 0.0
C410 C 0.9666 0.62526 0.06785 0.0
O411 O 0.98113 0.61292 0.08367 0.0
O412 O 0.97492 0.64313 0.05298 0.0
C413 C 0.01664 0.56775 0.11674 0.0
O414 O 0.00339 0.56162 0.09503 0.0
C415 C 0.98499 0.7056 0.03399 0.0
C416 C 0.01048 0.72292 0.00378 0.0
C417 C 0.98875 0.72712 0.01852 0.0
N418 N 0.0035 0.68934 0.02863 0.0
N419 N 0.01851 0.69959 0.01021 0.0
C420 C 0.96605 0.70172 0.05615 0.0
H421 H 0.97364 0.68897 0.07218 0.0
H422 H 0.96073 0.71984 0.06553 0.0
H423 H 0.94893 0.69296 0.04726 0.0
C424 C 0.03699 0.65509 0.12322 0.0
N425 N 0.02796 0.64653 0.09936 0.0
N426 N 0.0252 0.66529 0.08201 0.0
C427 C 0.03298 0.68659 0.09435 0.0
C428 C 0.04064 0.68082 0.12086 0.0
C429 C 0.03881 0.63924 0.14857 0.0
H430 H 0.05509 0.6264 0.1468 0.0
H431 H 0.0216 0.62756 0.15058 0.0
H432 H 0.04103 0.65068 0.16726 0.0
O433 O 0.03395 0.6041 0.05562 0.0
O434 O 0.02788 0.63455 0.02498 0.0
H435 H 0.04533 0.72528 0.09261 0.0
H436 H 0.0135 0.71968 0.08145 0.0
C437 C 0.03287 0.71211 0.08134 0.0
H438 H 0.0393 0.71085 0.05993 0.0
H439 H 0.03481 0.69113 0.00296 0.0
O440 O 0.02592 0.58973 0.11826 0.0
C441 C 0.03645 0.61298 0.03158 0.0
Co442 Co 0.8785 0.01486 0.08821 0.0
Co443 Co 0.83609 0.00143 0.04587 0.0
C444 C 0.86815 0.96166 0.07157 0.0
O445 O 0.88035 0.97789 0.08532 0.0
O446 O 0.85005 0.96808 0.05595 0.0
C447 C 0.92343 0.01555 0.11881 0.0
O448 O 0.931 0.00179 0.09827 0.0
C449 C 0.78963 0.97712 0.02976 0.0
C450 C 0.77422 0.00236 -0.00211 0.0
C451 C 0.76893 0.98088 0.01301 0.0
N452 N 0.80649 0.99539 0.02476 0.0
N453 N 0.7974 0.0102 0.00532 0.0
C454 C 0.79192 0.95857 0.0528 0.0
H455 H 0.8038 0.96634 0.06943 0.0
H456 H 0.77321 0.95353 0.06113 0.0
H457 H 0.80087 0.94122 0.04511 0.0
C458 C 0.83646 0.03723 0.11692 0.0
N459 N 0.84593 0.0259 0.09487 0.0
N460 N 0.82771 0.02053 0.07757 0.0
C461 C 0.8058 0.02829 0.08845 0.0
C462 C 0.8107 0.03916 0.11363 0.0
C463 C 0.8515 0.04295 0.1421 0.0
H464 H 0.86695 0.05612 0.13678 0.0
H465 H 0.8601 0.02536 0.15001 0.0
H466 H 0.83988 0.05139 0.15833 0.0
O467 O 0.891 0.02888 0.05422 0.0
O468 O 0.86272 0.01763 0.0229 0.0
H469 H 0.78057 0.02895 0.05418 0.0
H470 H 0.76592 0.03551 0.08652 0.0
C471 C 0.78034 0.02401 0.07618 0.0
H472 H 0.77513 0.00394 0.07845 0.0
H473 H 0.80645 0.02638 -0.00185 0.0
O474 O 0.90128 0.02437 0.11832 0.0
C475 C 0.88373 0.02767 0.02946 0.0
Co476 Co 0.48001 0.879 0.09361 0.0
Co477 Co 0.49153 0.83658 0.05133 0.0
C478 C 0.5325 0.86747 0.07754 0.0
O479 O 0.51702 0.87993 0.09169 0.0
O480 O 0.52505 0.85007 0.06172 0.0
C481 C 0.47946 0.92468 0.12128 0.0
O482 O 0.49276 0.93113 0.0998 0.0
C483 C 0.51444 0.7891 0.03994 0.0
C484 C 0.49807 0.7773 0.00047 0.0
C485 C 0.51461 0.76998 0.02098 0.0
N486 N 0.49839 0.80687 0.03133 0.0
N487 N 0.48872 0.79987 0.00761 0.0
C488 C 0.53022 0.79127 0.06529 0.0
H489 H 0.54861 0.79972 0.05979 0.0
H490 H 0.52099 0.80364 0.08034 0.0
H491 H 0.53389 0.77269 0.07478 0.0
C492 C 0.45645 0.83717 0.12275 0.0
N493 N 0.46772 0.84668 0.10048 0.0
N494 N 0.47161 0.82867 0.08274 0.0
C495 C 0.46254 0.80697 0.09331 0.0
C496 C 0.45278 0.81164 0.11901 0.0
C497 C 0.45258 0.85181 0.1484 0.0
H498 H 0.4389 0.86708 0.14428 0.0
H499 H 0.4706 0.86071 0.15464 0.0
H500 H 0.44556 0.83988 0.16537 0.0
O501 O 0.46744 0.89187 0.05879 0.0
O502 O 0.47639 0.86314 0.02754 0.0
H503 H 0.46172 0.78374 0.05759 0.0
H504 H 0.44939 0.76897 0.08811 0.0
C505 C 0.46409 0.78182 0.08 0.0
H506 H 0.48265 0.77333 0.08455 0.0
H507 H 0.47563 0.81036 0.99644 0.0
O508 O 0.47063 0.9025 0.12279 0.0
C509 C 0.46787 0.88466 0.03406 0.0
Co510 Co 0.61312 0.4851 0.09781 0.0
Co511 Co 0.65903 0.48814 0.05767 0.0
C512 C 0.63081 0.53406 0.07408 0.0
O513 O 0.61625 0.52117 0.08914 0.0
O514 O 0.6484 0.52372 0.06087 0.0
C515 C 0.58721 0.50003 0.14419 0.0
O516 O 0.60484 0.51735 0.14304 0.0
C517 C 0.70908 0.50562 0.04659 0.0
C518 C 0.72136 0.48399 0.01078 0.0
C519 C 0.72903 0.50226 0.0291 0.0
N520 N 0.69045 0.48995 0.03929 0.0
N521 N 0.69778 0.47708 0.01776 0.0
C522 C 0.707 0.52452 0.06901 0.0
H523 H 0.70062 0.54265 0.06008 0.0
H524 H 0.69302 0.51827 0.08435 0.0
H525 H 0.72537 0.52781 0.07918 0.0
C526 C 0.65027 0.46057 0.13298 0.0
N527 N 0.64366 0.47119 0.10908 0.0
N528 N 0.66324 0.47207 0.09279 0.0
C529 C 0.68314 0.462 0.10627 0.0
C530 C 0.67553 0.45477 0.13226 0.0
C531 C 0.63279 0.45643 0.15645 0.0
H532 H 0.61449 0.4492 0.14889 0.0
H533 H 0.62965 0.47454 0.16694 0.0
H534 H 0.64071 0.44279 0.17141 0.0
O535 O 0.6013 0.46843 0.06497 0.0
O536 O 0.63234 0.47164 0.03479 0.0
H537 H 0.70886 0.45611 0.07334 0.0
H538 H 0.72054 0.44636 0.10643 0.0
C539 C 0.7093 0.46072 0.09536 0.0
H540 H 0.71869 0.47916 0.09812 0.0
H541 H 0.68676 0.46361 0.00788 0.0
O542 O 0.58712 0.4826 0.12657 0.0
C543 C 0.61003 0.46493 0.04117 0.0
C544 C 0.02754 0.07228 0.67254 0.0
C545 C 0.00507 0.073 0.65739 0.0
C546 C 0.03047 0.05529 0.69401 0.0
C547 C 0.99586 0.02005 0.74516 0.0
H548 H 0.06152 0.99045 0.75703 0.0
C549 C 0.03799 0.00267 0.8511 0.0
C550 C 0.05741 0.98513 0.85446 0.0
C551 C 0.02615 0.00565 0.82575 0.0
C552 C 0.04281 0.99791 0.75395 0.0
H553 H 0.96799 0.05642 0.65281 0.0
H554 H 0.97311 0.0266 0.69092 0.0
H555 H 0.05178 0.01005 0.71349 0.0
H556 H 0.07781 0.95504 0.83497 0.0
H557 H 0.05655 0.95958 0.791 0.0
H558 H 0.98709 0.00834 0.78595 0.0
C559 C 0.98843 0.03925 0.68591 0.0
C560 C 0.03737 0.00947 0.72902 0.0
C561 C 0.98554 0.05623 0.66413 0.0
C562 C 0.06318 0.96903 0.8328 0.0
C563 C 0.05106 0.97172 0.80758 0.0
C564 C 0.00125 0.00831 0.77017 0.0
C565 C 0.011 0.03861 0.70098 0.0
C566 C 0.01431 0.02166 0.72483 0.0
C567 C 0.03329 0.99089 0.80337 0.0
C568 C 0.0252 0.99807 0.77526 0.0
H569 H 0.04296 0.08492 0.66789 0.0
H570 H 0.04789 0.05563 0.70558 0.0
H571 H 0.97788 0.02924 0.74245 0.0
H572 H 0.03307 0.0153 0.86747 0.0
H573 H 0.01273 0.02075 0.82332 0.0
C574 C 0.44173 0.96349 0.66612 0.0
C575 C 0.44731 0.97905 0.64368 0.0
C576 C 0.45324 0.96767 0.6914 0.0
C577 C 0.45869 0.99658 0.74335 0.0
H578 H 0.52137 0.03253 0.75466 0.0
C579 C 0.46744 0.07333 0.82266 0.0
C580 C 0.48977 0.07621 0.83774 0.0
C581 C 0.46599 0.05609 0.80146 0.0
C582 C 0.504 0.02212 0.75204 0.0
H583 H 0.47095 0.00962 0.62936 0.0
H584 H 0.49015 0.01765 0.67348 0.0
H585 H 0.51474 0.00902 0.71256 0.0
H586 H 0.5282 0.06326 0.84237 0.0
H587 H 0.52559 0.03288 0.80507 0.0
H588 H 0.44784 0.0098 0.7826 0.0
C589 C 0.47736 0.00187 0.67172 0.0
C590 C 0.50008 0.00886 0.7278 0.0
C591 C 0.46618 0.99738 0.64634 0.0
C592 C 0.51072 0.06146 0.83108 0.0
C593 C 0.50926 0.04412 0.80973 0.0
C594 C 0.46269 0.0096 0.76757 0.0
C595 C 0.47014 0.98783 0.69486 0.0
C596 C 0.47693 0.99683 0.72267 0.0
C597 C 0.4868 0.04119 0.79482 0.0
C598 C 0.48489 0.02346 0.77165 0.0
H599 H 0.42753 0.94892 0.66452 0.0
H600 H 0.44779 0.956 0.70859 0.0
H601 H 0.44053 0.98778 0.74022 0.0
H602 H 0.45099 0.08446 0.82715 0.0
H603 H 0.44859 0.05474 0.78995 0.0
C604 C 0.44812 0.51972 0.82466 0.0
C605 C 0.43231 0.4992 0.8307 0.0
C606 C 0.46588 0.51801 0.80374 0.0
C607 C 0.49964 0.47117 0.76248 0.0
H608 H 0.49889 0.5214 0.70481 0.0
C609 C 0.5061 0.47001 0.64094 0.0
C610 C 0.52392 0.45081 0.63835 0.0
C611 C 0.50322 0.48232 0.66582 0.0
C612 C 0.49947 0.50727 0.72082 0.0
H613 H 0.42289 0.46081 0.81982 0.0
H614 H 0.45351 0.45791 0.78364 0.0
H615 H 0.47686 0.52946 0.7475 0.0
H616 H 0.55478 0.43156 0.65849 0.0
H617 H 0.55048 0.45374 0.70158 0.0
H618 H 0.52025 0.44803 0.73546 0.0
C619 C 0.45252 0.47521 0.79512 0.0
C620 C 0.48708 0.51203 0.74537 0.0
C621 C 0.43475 0.47697 0.81572 0.0
C622 C 0.54056 0.44599 0.6601 0.0
C623 C 0.538 0.45862 0.68483 0.0
C624 C 0.51182 0.46635 0.738 0.0
C625 C 0.46828 0.49565 0.78888 0.0
C626 C 0.48607 0.49348 0.76588 0.0
C627 C 0.51838 0.47592 0.68847 0.0
C628 C 0.51095 0.48386 0.71636 0.0
H629 H 0.44659 0.53712 0.83587 0.0
H630 H 0.47777 0.53406 0.79926 0.0
H631 H 0.49956 0.45673 0.77819 0.0
H632 H 0.49306 0.47423 0.62447 0.0
H633 H 0.4878 0.49538 0.66776 0.0
C634 C 0.98724 0.43355 0.81823 0.0
C635 C 0.00516 0.41449 0.82228 0.0
C636 C 0.99051 0.45157 0.79755 0.0
C637 C 0.04028 0.48032 0.75589 0.0
H638 H 0.98806 0.49451 0.70248 0.0
C639 C 0.03778 0.50487 0.63694 0.0
C640 C 0.05873 0.52099 0.63598 0.0
C641 C 0.02615 0.49949 0.66179 0.0
C642 C 0.00277 0.4909 0.71736 0.0
H643 H 0.04022 0.39907 0.80749 0.0
H644 H 0.04579 0.43024 0.77166 0.0
H645 H 0.9784 0.46855 0.74256 0.0
H646 H 0.08194 0.54656 0.65959 0.0
H647 H 0.06117 0.53774 0.70285 0.0
H648 H 0.06512 0.50102 0.73026 0.0
C649 C 0.02943 0.43154 0.78463 0.0
C650 C 0.99718 0.47622 0.74038 0.0
C651 C 0.02611 0.41355 0.80504 0.0
C652 C 0.06611 0.53369 0.65979 0.0
C653 C 0.05428 0.52855 0.68459 0.0
C654 C 0.04586 0.49491 0.733 0.0
C655 C 0.01187 0.45091 0.78086 0.0
C656 C 0.01618 0.47 0.75926 0.0
C657 C 0.03508 0.51035 0.68612 0.0
C658 C 0.02743 0.49964 0.71293 0.0
H659 H 0.97087 0.43472 0.83119 0.0
H660 H 0.97666 0.46628 0.79498 0.0
H661 H 0.05517 0.47616 0.77041 0.0
H662 H 0.03153 0.4949 0.6189 0.0
H663 H 0.01151 0.48531 0.66214 0.0
C664 C 0.98951 0.97038 0.34959 0.0
C665 C 0.00112 0.94677 0.34799 0.0
C666 C 0.98627 0.98516 0.32614 0.0
C667 C 0.00521 0.99284 0.2538 0.0
H668 H 0.9355 0.01136 0.24261 0.0
C669 C 0.95962 0.00154 0.1478 0.0
C670 C 0.93867 0.01719 0.14406 0.0
C671 C 0.97142 -0.00023 0.17328 0.0
C672 C 0.95521 0.007 0.2455 0.0
H673 H 0.01992 0.92085 0.32092 0.0
H674 H 0.01423 0.9466 0.28008 0.0
H675 H 0.94916 0.99593 0.28696 0.0
H676 H 0.91505 0.04496 0.16337 0.0
H677 H 0.93608 0.0424 0.20765 0.0
H678 H 0.01108 0.00327 0.21201 0.0
C679 C 0.00768 0.95375 0.29943 0.0
C680 C 0.96302 0.99808 0.271 0.0
C681 C 0.01075 0.9389 0.3228 0.0
C682 C 0.93096 0.03247 0.16572 0.0
C683 C 0.94293 0.0309 0.19115 0.0
C684 C 0.99744 0.00198 0.22829 0.0
C685 C 0.9948 0.9767 0.30071 0.0
C686 C 0.9879 0.99018 0.27518 0.0
C687 C 0.96269 0.01382 0.19552 0.0
C688 C 0.97215 0.00841 0.22359 0.0
H689 H 0.98201 0.97704 0.36873 0.0
H690 H 0.97647 0.00289 0.32775 0.0
H691 H 0.0246 0.98717 0.25658 0.0
H692 H 0.96606 0.98956 0.13149 0.0
H693 H 0.9864 0.98624 0.17588 0.0
C694 C 0.5249 0.00845 0.34442 0.0
C695 C 0.5488 0.01953 0.34183 0.0
C696 C 0.51014 0.00378 0.32131 0.0
C697 C 0.50312 0.01664 0.24715 0.0
H698 H 0.48445 0.94623 0.24382 0.0
C699 C 0.49379 0.96283 0.1465 0.0
C700 C 0.47822 0.9415 0.14512 0.0
C701 C 0.49577 0.97651 0.17065 0.0
C702 C 0.48884 0.96611 0.24447 0.0
H703 H 0.57514 0.03616 0.3132 0.0
H704 H 0.54937 0.02796 0.27289 0.0
H705 H 0.49975 0.9636 0.28645 0.0
H706 H 0.45085 0.91904 0.16715 0.0
H707 H 0.4537 0.94339 0.20907 0.0
H708 H 0.49275 0.01897 0.2049 0.0
C709 C 0.54203 0.02291 0.29277 0.0
C710 C 0.4977 0.97606 0.269 0.0
C711 C 0.55687 0.02745 0.31587 0.0
C712 C 0.46327 0.93521 0.16772 0.0
C713 C 0.46503 0.94909 0.19179 0.0
C714 C 0.494 0.00673 0.22261 0.0
C715 C 0.5189 0.01027 0.29518 0.0
C716 C 0.50563 0.00122 0.2704 0.0
C717 C 0.48199 0.96935 0.19388 0.0
C718 C 0.48749 0.98113 0.22076 0.0
H719 H 0.51805 0.0023 0.36415 0.0
H720 H 0.49226 0.99427 0.32376 0.0
H721 H 0.50885 0.03619 0.24777 0.0
H722 H 0.50553 0.96821 0.12942 0.0
H723 H 0.50924 0.9918 0.17149 0.0
C724 C 0.48754 0.52484 0.35402 0.0
C725 C 0.47017 0.54447 0.35661 0.0
C726 C 0.49118 0.51344 0.32876 0.0
C727 C 0.49679 0.49088 0.27263 0.0
H728 H 0.50144 0.54421 0.21854 0.0
C729 C 0.55098 0.4812 0.17008 0.0
C730 C 0.56789 0.50118 0.16564 0.0
C731 C 0.53287 0.48273 0.19065 0.0
C732 C 0.50006 0.52903 0.23332 0.0
H733 H 0.44069 0.56529 0.33584 0.0
H734 H 0.44639 0.54476 0.29199 0.0
H735 H 0.479 0.55156 0.26057 0.0
H736 H 0.57897 0.53842 0.17909 0.0
H737 H 0.54767 0.54102 0.21469 0.0
H738 H 0.51971 0.46913 0.24583 0.0
C739 C 0.45792 0.53884 0.30914 0.0
C740 C 0.48686 0.53308 0.25735 0.0
C741 C 0.45456 0.55052 0.3343 0.0
C742 C 0.56624 0.52269 0.18195 0.0
C743 C 0.54812 0.52429 0.20221 0.0
C744 C 0.51013 0.48686 0.24852 0.0
C745 C 0.47729 0.52123 0.30568 0.0
C746 C 0.48594 0.51445 0.27785 0.0
C747 C 0.53122 0.50439 0.20679 0.0
C748 C 0.51281 0.50634 0.22923 0.0
H749 H 0.49977 0.51966 0.37089 0.0
H750 H 0.50634 0.50005 0.32695 0.0
H751 H 0.49606 0.47597 0.28777 0.0
H752 H 0.55185 0.46435 0.15784 0.0
H753 H 0.52008 0.46711 0.19382 0.0
C754 C 0.92309 0.52776 0.31982 0.0
C755 C 0.92103 0.50552 0.33522 0.0
C756 C 0.94038 0.52966 0.2987 0.0
C757 C 0.9753 0.49284 0.24944 0.0
H758 H 0.00831 0.55708 0.23795 0.0
C759 C 0.99819 0.5325 0.14395 0.0
C760 C 0.01642 0.55149 0.14128 0.0
C761 C 0.99408 0.52096 0.16923 0.0
C762 C -0.00012 0.53873 0.24097 0.0
H763 H 0.93546 0.4677 0.34048 0.0
H764 H 0.96582 0.47104 0.30315 0.0
H765 H 0.98667 0.54896 0.28045 0.0
H766 H 0.04668 0.57117 0.162 0.0
H767 H 0.04016 0.55038 0.2059 0.0
H768 H 0.98821 0.48279 0.20964 0.0
C769 C 0.95396 0.48698 0.3076 0.0
C770 C 0.98712 0.53424 0.26528 0.0
C771 C 0.93664 0.4851 0.32895 0.0
C772 C 0.03219 0.55689 0.1636 0.0
C773 C 0.02835 0.54506 0.18879 0.0
C774 C 0.98825 0.49727 0.22508 0.0
C775 C 0.95608 0.50937 0.29239 0.0
C776 C 0.97375 0.51174 0.26924 0.0
C777 C 0.00836 0.52796 0.19227 0.0
C778 C -0.00021 0.5207 0.22009 0.0
H779 H 0.91133 0.54383 0.32404 0.0
H780 H 0.94113 0.54698 0.28697 0.0
H781 H 0.96525 0.47525 0.25199 0.0
H782 H 0.9858 0.52784 0.12707 0.0
H783 H 0.97842 0.50803 0.17105 0.0
C784 C 0.04903 0.92593 0.46506 0.0
C785 C 0.03398 0.90579 0.47405 0.0
C786 C 0.04371 0.95035 0.4734 0.0
C787 C 0.00077 0.9889 0.51594 0.0
H788 H 0.99312 0.02705 0.4485 0.0
C789 C 0.94391 0.07717 0.51804 0.0
C790 C 0.95938 0.09786 0.51177 0.0
C791 C 0.95014 0.05333 0.50859 0.0
C792 C 0.99511 0.01659 0.46744 0.0
H793 H 0.00562 0.8945 0.50324 0.0
H794 H 0.99644 0.93685 0.51793 0.0
H795 H 0.01601 0.98743 0.4484 0.0
H796 H 0.98947 0.11103 0.48562 0.0
H797 H 4e-05 0.06959 0.4688 0.0
H798 H 0.97961 0.01794 0.53489 0.0
C799 C 0.01188 0.93416 0.50396 0.0
C800 C 0.00855 0.99409 0.46755 0.0
C801 C 0.01737 0.9097 0.49576 0.0
C802 C 0.97741 0.09536 0.49112 0.0
C803 C 0.9837 0.07147 0.48169 0.0
C804 C 0.98722 0.0113 0.51579 0.0
C805 C 0.02346 0.95479 0.49099 0.0
C806 C 0.01154 0.97996 0.49182 0.0
C807 C 0.97157 0.05011 0.49242 0.0
C808 C 0.98412 0.02532 0.49152 0.0
H809 H 0.06226 0.92332 0.4486 0.0
H810 H 0.05368 0.96586 0.46391 0.0
H811 H 0.00283 0.97859 0.53497 0.0
H812 H 0.92957 0.07871 0.53354 0.0
H813 H 0.9399 0.03719 0.51636 0.0
C814 C 0.58696 0.02673 0.49257 0.0
C815 C 0.58855 0.0432 0.4701 0.0
C816 C 0.56342 0.01905 0.50197 0.0
C817 C 0.49448 0.02575 0.49223 0.0
H818 H 0.49714 0.95327 0.48386 0.0
C819 C 0.40362 0.97265 0.49002 0.0
C820 C 0.40316 0.95607 0.51248 0.0
C821 C 0.42664 0.98021 0.47912 0.0
C822 C 0.4961 0.97347 0.48619 0.0
H823 H 0.56767 0.06937 0.4447 0.0
H824 H 0.52675 0.05639 0.46138 0.0
H825 H 0.53604 0.97756 0.48558 0.0
H826 H 0.42515 0.92939 0.53604 0.0
H827 H 0.46512 0.94227 0.51696 0.0
H828 H 0.45456 0.02168 0.49304 0.0
C829 C 0.54335 0.04857 0.47108 0.0
C830 C 0.51835 0.98737 0.48761 0.0
C831 C 0.56687 0.05619 0.46165 0.0
C832 C 0.42512 0.94274 0.51923 0.0
C833 C 0.44812 0.9503 0.50837 0.0
C834 C 0.47222 0.01185 0.49087 0.0
C835 C 0.54146 0.02825 0.4894 0.0
C836 C 0.51778 0.01364 0.4908 0.0
C837 C 0.44918 0.97083 0.49023 0.0
C838 C 0.47278 0.98554 0.48787 0.0
H839 H 0.6034 0.01675 0.49993 0.0
H840 H 0.56241 0.00396 0.5169 0.0
H841 H 0.49348 0.04595 0.49457 0.0
H842 H 0.38689 0.98281 0.48385 0.0
H843 H 0.42692 0.99539 0.46427 0.0
C844 C 0.55925 0.42551 0.51596 0.0
C845 C 0.54417 0.40449 0.5099 0.0
C846 C 0.5514 0.44949 0.508 0.0
C847 C 0.48958 0.47635 0.50301 0.0
H848 H 0.52444 0.5396 0.49221 0.0
C849 C 0.4429 0.57144 0.48291 0.0
C850 C 0.45785 0.59295 0.48701 0.0
C851 C 0.45164 0.54794 0.49142 0.0
C852 C 0.51455 0.52209 0.4959 0.0
H853 H 0.51336 0.39114 0.48466 0.0
H854 H 0.50012 0.43285 0.47013 0.0
H855 H 0.54691 0.50026 0.48569 0.0
H856 H 0.48954 0.60783 0.5099 0.0
H857 H 0.50423 0.56701 0.52566 0.0
H858 H 0.45729 0.49808 0.51345 0.0
C859 C 0.5171 0.43105 0.4823 0.0
C860 C 0.52736 0.49959 0.49169 0.0
C861 C 0.52503 0.40707 0.4902 0.0
C862 C 0.47798 0.59148 0.50568 0.0
C863 C 0.48674 0.56798 0.51426 0.0
C864 C 0.47681 0.49882 0.50734 0.0
C865 C 0.5288 0.45243 0.49339 0.0
C866 C 0.51495 0.47648 0.49501 0.0
C867 C 0.47499 0.54595 0.50483 0.0
C868 C 0.48912 0.52197 0.50378 0.0
H869 H 0.57445 0.42394 0.5307 0.0
H870 H 0.56115 0.46562 0.51641 0.0
H871 H 0.4797 0.4588 0.50659 0.0
H872 H 0.42688 0.57214 0.46914 0.0
H873 H 0.44176 0.53138 0.48433 0.0
C874 C 0.92422 0.44261 0.46899 0.0
C875 C 0.90386 0.4567 0.47866 0.0
C876 C 0.94871 0.44889 0.47679 0.0
C877 C 0.9781 0.5085 0.48969 0.0
H878 H 0.04022 0.47098 0.49407 0.0
C879 C 0.07483 0.55145 0.51173 0.0
C880 C 0.0961 0.53735 0.50479 0.0
C881 C 0.05096 0.54343 0.50365 0.0
C882 C 0.02303 0.4817 0.4922 0.0
H883 H 0.89252 0.48411 0.50865 0.0
H884 H 0.93522 0.49469 0.52269 0.0
H885 H 0.00016 0.44888 0.49836 0.0
H886 H 0.10971 0.50751 0.47891 0.0
H887 H 0.0681 0.49415 0.46383 0.0
H888 H 0.00077 0.54124 0.48307 0.0
C889 C 0.93239 0.47958 0.50826 0.0
C890 C 0.00013 0.46904 0.49514 0.0
C891 C 0.90788 0.47316 0.50058 0.0
C892 C 0.09362 0.51853 0.48495 0.0
C893 C 0.0697 0.51051 0.47678 0.0
C894 C 0.00095 0.52112 0.48654 0.0
C895 C 0.95294 0.46908 0.49457 0.0
C896 C 0.97745 0.48236 0.49415 0.0
C897 C 0.04815 0.5215 0.48805 0.0
C898 C 0.02371 0.50791 0.48788 0.0
H899 H 0.92154 0.42958 0.45229 0.0
H900 H 0.96419 0.44016 0.46622 0.0
H901 H 0.96086 0.51918 0.48796 0.0
H902 H 0.07629 0.56629 0.52673 0.0
H903 H 0.03481 0.55265 0.51239 0.0
C904 C 0.97721 0.40831 0.99136 0.0
C905 C 0.96155 0.4053 0.96843 0.0
C906 C 0.98414 0.43242 -0.00031 0.0
C907 C 0.97565 0.50067 0.9872 0.0
H908 H 0.04852 0.50058 0.98313 0.0
C909 C 0.02596 0.59346 0.98745 0.0
C910 C 0.04203 0.5945 0.01028 0.0
C911 C 0.01929 0.57018 0.97649 0.0
C912 C 0.0282 0.50092 0.98428 0.0
H913 H 0.93674 0.42445 0.94 0.0
H914 H 0.94824 0.46643 0.95497 0.0
H915 H 0.02561 0.46084 0.98421 0.0
H916 H 0.06829 0.57329 0.03518 0.0
H917 H 0.05701 0.53291 0.01604 0.0
H918 H 0.97819 0.54071 0.98767 0.0
C919 C 0.95583 0.45045 0.96603 0.0
C920 C 0.01508 0.47819 0.98529 0.0
C921 C 0.94906 0.42637 0.95759 0.0
C922 C 0.05548 0.57287 0.01789 0.0
C923 C 0.04883 0.54963 0.00699 0.0
C924 C 0.98878 0.52343 0.98634 0.0
C925 C 0.97505 0.4536 0.9855 0.0
C926 C 0.98869 0.47783 0.98696 0.0
C927 C 0.02897 0.54793 0.98803 0.0
C928 C 0.01522 0.52381 0.98496 0.0
H929 H 0.987 0.39236 0.0002 0.0
H930 H 0.99848 0.43443 0.01534 0.0
H931 H 0.95533 0.50093 0.98834 0.0
H932 H 0.01559 0.60992 0.98084 0.0
H933 H 0.0046 0.56945 0.96109 0.0
C934 C 0.07766 0.93768 0.97568 0.0
C935 C 0.09699 0.95388 0.98435 0.0
C936 C 0.0529 0.94227 0.98337 0.0
C937 C 0.01196 0.98607 0.02228 0.0
H938 H 0.97632 0.99039 0.95293 0.0
C939 C 0.92477 0.04504 0.01557 0.0
C940 C 0.90379 0.03007 0.00903 0.0
C941 C 0.94881 0.03721 0.00841 0.0
C942 C 0.98605 0.98928 0.9724 0.0
H943 H 0.10667 0.98359 0.01256 0.0
H944 H 0.06373 0.99158 0.02604 0.0
H945 H 0.01594 0.96766 0.95583 0.0
H946 H 0.89086 0.99857 0.98479 0.0
H947 H 0.93274 0.98523 0.97181 0.0
H948 H 0.98224 0.00814 0.03866 0.0
C949 C 0.06727 0.97576 0.01285 0.0
C950 C 0.00855 0.97594 0.97424 0.0
C951 C 0.09208 0.97097 0.00535 0.0
C952 C 0.90671 0.01036 0.99037 0.0
C953 C 0.9308 0.00249 0.98319 0.0
C954 C 0.98956 -0.00046 0.02037 0.0
C955 C 0.04734 0.96297 -9e-05 0.0
C956 C 0.02186 0.97427 -0.00081 0.0
C957 C 0.95203 0.01462 0.99422 0.0
C958 C 0.97651 0.0015 0.99535 0.0
H959 H 0.08108 0.92407 0.95978 0.0
H960 H 0.03796 0.93139 0.97397 0.0
H961 H 0.02162 0.98504 0.04179 0.0
H962 H 0.92297 0.0606 0.02959 0.0
H963 H 0.96492 0.04739 0.01635 0.0
C964 C 0.53221 0.0903 0.00019 0.0
C965 C 0.54646 0.09551 0.9768 0.0
C966 C 0.52841 0.06541 0.00846 0.0
C967 C 0.52364 0.00667 0.97068 0.0
H968 H 0.49727 0.98123 0.03905 0.0
C969 C 0.48546 0.90621 0.99364 0.0
C970 C 0.46645 0.90487 0.01343 0.0
C971 C 0.49468 0.92961 0.98516 0.0
C972 C 0.50432 0.98829 0.01974 0.0
H973 H 0.57269 0.07997 0.9479 0.0
H974 H 0.56731 0.0367 0.96335 0.0
H975 H 0.52186 0.01997 0.03874 0.0
H976 H 0.43853 0.92637 0.0351 0.0
H977 H 0.45422 0.96712 0.0198 0.0
H978 H 0.50618 0.9747 0.95184 0.0
C979 C 0.55772 0.05147 0.97421 0.0
C980 C 0.51859 0.01034 0.01962 0.0
C981 C 0.56123 0.07632 0.96571 0.0
C982 C 0.45349 0.92692 0.02019 0.0
C983 C 0.46273 0.95025 0.0118 0.0
C984 C 0.50959 0.98444 0.97087 0.0
C985 C 0.53939 0.04564 0.99383 0.0
C986 C 0.52806 0.02008 0.99501 0.0
C987 C 0.48467 0.95172 0.9961 0.0
C988 C 0.49934 0.97537 0.99531 0.0
H989 H 0.52073 0.10477 0.00927 0.0
H990 H 0.51444 0.06172 0.02398 0.0
H991 H 0.53011 0.01385 0.9512 0.0
H992 H 0.49572 0.88953 0.98789 0.0
H993 H 0.51139 0.93028 0.97265 0.0
C994 C 0.42349 0.55563 0.96942 0.0
C995 C 0.40209 0.54103 0.97534 0.0
C996 C 0.44686 0.54875 0.98013 0.0
C997 C 0.4739 0.48796 0.99584 0.0
H998 H 0.53595 0.52541 0.00449 0.0
C999 C 0.56948 0.4467 0.02689 0.0
C1000 C 0.59102 0.46058 0.0198 0.0
C1001 C 0.54594 0.45401 0.01703 0.0
C1002 C 0.51879 0.51473 0.00151 0.0
H1003 H 0.38711 0.51241 0.00251 0.0
H1004 H 0.42771 0.50102 0.02192 0.0
H1005 H 0.49594 0.54756 0.00541 0.0
H1006 H 0.60569 0.48918 0.9925 0.0
H1007 H 0.56466 0.50147 0.97463 0.0
H1008 H 0.49675 0.45514 0.99195 0.0
C1009 C 0.42675 0.51673 0.00776 0.0
C1010 C 0.49588 0.5274 0.00246 0.0
C1011 C 0.40337 0.52363 -0.00299 0.0
C1012 C 0.58935 0.4783 -0.00149 0.0
C1013 C 0.56578 0.48571 0.9887 0.0
C1014 C 0.4968 0.47529 0.99492 0.0
C1015 C 0.44886 0.52762 -0.00264 0.0
C1016 C 0.47316 0.51416 -0.00033 0.0
C1017 C 0.54381 0.47507 -0.00027 0.0
C1018 C 0.51951 0.48854 -0.00234 0.0
H1019 H 0.4229 0.56956 0.95318 0.0
H1020 H 0.46347 0.55793 0.97211 0.0
H1021 H 0.45676 0.47726 0.99279 0.0
H1022 H 0.57035 0.43279 0.04314 0.0
H1023 H 0.5294 0.44514 0.02563 0.0
C1024 C 0.93815 0.21149 0.65052 0.0
C1025 C 0.95907 0.19557 0.64968 0.0
C1026 C 0.93135 0.2228 0.67513 0.0
C1027 C 0.93866 0.21365 0.74936 0.0
H1028 H 0.92616 0.28511 0.75502 0.0
C1029 C 0.95806 0.27034 0.84559 0.0
C1030 C 0.94369 0.29174 0.85086 0.0
C1031 C 0.95291 0.25577 0.82265 0.0
C1032 C 0.92896 0.265 0.75374 0.0
H1033 H 0.98994 0.17971 0.67296 0.0
H1034 H 0.97832 0.1995 0.71573 0.0
H1035 H 0.93148 0.26635 0.71008 0.0
H1036 H 0.91129 0.31349 0.83834 0.0
H1037 H 0.90218 0.28795 0.79796 0.0
H1038 H 0.9371 0.2124 0.79299 0.0
C1039 C 0.96682 0.20294 0.69776 0.0
C1040 C 0.9321 0.25431 0.728 0.0
C1041 C 0.97362 0.19182 0.67329 0.0
C1042 C 0.92276 0.29715 0.83433 0.0
C1043 C 0.91765 0.28266 0.81126 0.0
C1044 C 0.93548 0.2243 0.77504 0.0
C1045 C 0.94532 0.21807 0.69911 0.0
C1046 C 0.9379 0.22872 0.72568 0.0
C1047 C 0.9333 0.26241 0.80462 0.0
C1048 C 0.93148 0.25023 0.77755 0.0
H1049 H 0.9266 0.21437 0.63248 0.0
H1050 H 0.91475 0.2345 0.67565 0.0
H1051 H 0.94257 0.19373 0.74807 0.0
H1052 H 0.97437 0.26592 0.85806 0.0
H1053 H 0.96547 0.24042 0.81801 0.0
C1054 C 0.30229 0.9342 0.66413 0.0
C1055 C 0.30009 0.95576 0.64767 0.0
C1056 C 0.28887 0.93224 0.68849 0.0
C1057 C 0.23637 0.96028 0.72713 0.0
H1058 H 0.27514 0.93984 0.79085 0.0
C1059 C 0.204 0.98412 0.83451 0.0
C1060 C 0.204 0.96456 0.85378 0.0
C1061 C 0.21644 0.98136 0.80979 0.0
C1062 C 0.26402 0.94531 0.77321 0.0
H1063 H 0.28163 0.9917 0.64285 0.0
H1064 H 0.25807 0.98836 0.68525 0.0
H1065 H 0.29363 0.93671 0.74544 0.0
H1066 H 0.21761 0.92729 0.86338 0.0
H1067 H 0.23984 0.92237 0.81986 0.0
H1068 H 0.207 0.96941 0.75489 0.0
C1069 C 0.26991 0.97281 0.67939 0.0
C1070 C 0.27452 0.94343 0.7472 0.0
C1071 C 0.28334 0.97475 0.65509 0.0
C1072 C 0.21768 0.94265 0.84874 0.0
C1073 C 0.23025 0.93986 0.82391 0.0
C1074 C 0.22594 0.96224 0.75307 0.0
C1075 C 0.27299 0.95181 0.69669 0.0
C1076 C 0.26094 0.9513 0.72393 0.0
C1077 C 0.22906 0.95892 0.80389 0.0
C1078 C 0.23982 0.95523 0.7764 0.0
H1079 H 0.31509 0.91931 0.65863 0.0
H1080 H 0.29133 0.91567 0.70118 0.0
H1081 H 0.22526 0.96605 0.70958 0.0
H1082 H 0.19345 0.00115 0.83813 0.0
H1083 H 0.21565 0.99656 0.79498 0.0
C1084 C 0.56007 0.20007 0.83696 0.0
C1085 C 0.54032 0.20609 0.85454 0.0
C1086 C 0.56435 0.21447 0.81351 0.0
C1087 C 0.52814 0.25446 0.76656 0.0
H1088 H 0.59224 0.26317 0.7304 0.0
C1089 C 0.53111 0.28442 0.65474 0.0
C1090 C 0.54817 0.3036 0.64812 0.0
C1091 C 0.53318 0.27165 0.67962 0.0
C1092 C 0.57422 0.26101 0.74031 0.0
H1093 H 0.51116 0.23305 0.86325 0.0
H1094 H 0.51921 0.25893 0.82282 0.0
H1095 H 0.59104 0.24638 0.77693 0.0
H1096 H 0.58179 0.32334 0.66104 0.0
H1097 H 0.5851 0.30153 0.70498 0.0
H1098 H 0.51128 0.26957 0.73044 0.0
C1099 C 0.53083 0.24258 0.82651 0.0
C1100 C 0.57352 0.25125 0.76689 0.0
C1101 C 0.5264 0.228 0.84981 0.0
C1102 C 0.56832 0.30869 0.6659 0.0
C1103 C 0.57026 0.29611 0.69095 0.0
C1104 C 0.52885 0.2643 0.74016 0.0
C1105 C 0.54911 0.23533 0.80748 0.0
C1106 C 0.55043 0.2477 0.78024 0.0
C1107 C 0.55218 0.27806 0.69847 0.0
C1108 C 0.55184 0.26743 0.72657 0.0
H1109 H 0.57125 0.18339 0.84054 0.0
H1110 H 0.57855 0.20828 0.79933 0.0
H1111 H 0.50998 0.25158 0.77596 0.0
H1112 H 0.51533 0.28023 0.64142 0.0
H1113 H 0.51932 0.25739 0.6845 0.0
C1114 C 0.22681 0.53739 0.63868 0.0
C1115 C 0.20673 0.55338 0.63224 0.0
C1116 C 0.2415 0.54171 0.66186 0.0
C1117 C 0.23497 0.5675 0.72981 0.0
H1118 H 0.30597 0.55202 0.73509 0.0
C1119 C 0.29049 0.56042 0.83274 0.0
C1120 C 0.30633 0.53947 0.83453 0.0
C1121 C 0.27875 0.56651 0.80789 0.0
C1122 C 0.28612 0.5564 0.73392 0.0
H1123 H 0.18721 0.58733 0.64355 0.0
H1124 H 0.21287 0.59487 0.68447 0.0
H1125 H 0.28627 0.55655 0.69023 0.0
H1126 H 0.32181 0.50795 0.81269 0.0
H1127 H 0.30118 0.51825 0.76953 0.0
H1128 H 0.23468 0.56638 0.77357 0.0
C1129 C 0.2171 0.57891 0.67171 0.0
C1130 C 0.2749 0.55906 0.70827 0.0
C1131 C 0.20254 0.57467 0.64834 0.0
C1132 C 0.3097 0.52426 0.81161 0.0
C1133 C 0.29812 0.53032 0.78691 0.0
C1134 C 0.24622 0.56481 0.75553 0.0
C1135 C 0.23627 0.56205 0.6791 0.0
C1136 C 0.24906 0.56385 0.70595 0.0
C1137 C 0.28295 0.55178 0.7846 0.0
C1138 C 0.27172 0.55838 0.75778 0.0
H1139 H 0.23019 0.52066 0.62678 0.0
H1140 H 0.25594 0.52821 0.6672 0.0
H1141 H 0.21495 0.57097 0.72864 0.0
H1142 H 0.28794 0.5725 0.85022 0.0
H1143 H 0.2671 0.58313 0.80664 0.0
C1144 C 0.0285 0.71739 0.14911 0.0
C1145 C 0.04577 0.69835 0.1434 0.0
C1146 C 0.03099 0.73151 0.17285 0.0
C1147 C 0.05576 0.72586 0.24231 0.0
H1148 H 0.03595 0.79579 0.24601 0.0
C1149 C 0.04917 0.78461 0.34264 0.0
C1150 C 0.02726 0.79905 0.34435 0.0
C1151 C 0.0546 0.77175 0.31853 0.0
C1152 C 0.04151 0.77624 0.24527 0.0
H1153 H 0.07987 0.67988 0.15685 0.0
H1154 H 0.08436 0.70473 0.1986 0.0
H1155 H 0.0417 0.77627 0.20162 0.0
H1156 H 0.99318 0.81049 0.32347 0.0
H1157 H 0.00247 0.788 0.28151 0.0
H1158 H 0.05506 0.72587 0.28613 0.0
C1159 C 0.06876 0.70854 0.18489 0.0
C1160 C 0.04482 0.76509 0.21989 0.0
C1161 C 0.06629 0.69446 0.16103 0.0
C1162 C 0.01025 0.79952 0.3224 0.0
C1163 C 0.01568 0.78686 0.2984 0.0
C1164 C 0.05255 0.7371 0.26778 0.0
C1165 C 0.05079 0.72681 0.19133 0.0
C1166 C 0.05125 0.7396 0.21812 0.0
C1167 C 0.03821 0.77345 0.29595 0.0
C1168 C 0.04465 0.76216 0.26941 0.0
H1169 H 0.01231 0.72045 0.136 0.0
H1170 H 0.01661 0.74519 0.1774 0.0
H1171 H 0.06051 0.70611 0.2416 0.0
H1172 H 0.06255 0.78423 0.3594 0.0
H1173 H 0.07205 0.76145 0.31712 0.0
C1174 C 0.79024 0.06707 0.14741 0.0
C1175 C 0.79288 0.04318 0.13591 0.0
C1176 C 0.7775 0.06984 0.17209 0.0
C1177 C 0.76946 0.03707 0.2348 0.0
H1178 H 0.71014 0.07691 0.24868 0.0
C1179 C 0.71214 0.02526 0.33267 0.0
C1180 C 0.69844 0.04564 0.3425 0.0
C1181 C 0.72572 0.0276 0.30853 0.0
C1182 C 0.72706 0.06615 0.24536 0.0
H1183 H 0.78394 0.00364 0.14004 0.0
H1184 H 0.76198 0.00839 0.18354 0.0
H1185 H 0.72801 0.07627 0.20283 0.0
H1186 H 0.68892 0.08471 0.33621 0.0
H1187 H 0.71371 0.08937 0.29453 0.0
H1188 H 0.76918 0.02729 0.27713 0.0
C1189 C 0.76945 0.02493 0.17338 0.0
C1190 C 0.73708 0.06566 0.21905 0.0
C1191 C 0.78176 0.02226 0.14854 0.0
C1192 C 0.69953 0.06882 0.32884 0.0
C1193 C 0.71343 0.07132 0.30486 0.0
C1194 C 0.7598 0.03793 0.26116 0.0
C1195 C 0.76782 0.04863 0.18563 0.0
C1196 C 0.75799 0.05066 0.21354 0.0
C1197 C 0.7261 0.05052 0.29397 0.0
C1198 C 0.73812 0.05201 0.26668 0.0
H1199 H 0.79905 0.08332 0.138 0.0
H1200 H 0.77647 0.08824 0.18135 0.0
H1201 H 0.7859 0.0257 0.23096 0.0
H1202 H 0.71117 0.00712 0.34282 0.0
H1203 H 0.73483 0.01103 0.30064 0.0
C1204 C 0.47345 0.70187 0.33269 0.0
C1205 C 0.45251 0.69056 0.34485 0.0
C1206 C 0.47085 0.71508 0.30818 0.0
C1207 C 0.42808 0.72208 0.24848 0.0
H1208 H 0.47212 0.77855 0.23292 0.0
C1209 C 0.42562 0.7925 0.155 0.0
C1210 C 0.44851 0.79316 0.14095 0.0
C1211 C 0.42338 0.77831 0.17902 0.0
C1212 C 0.45973 0.76279 0.23709 0.0
H1213 H 0.41244 0.6843 0.34181 0.0
H1214 H 0.40747 0.70842 0.29931 0.0
H1215 H 0.47281 0.75934 0.27819 0.0
H1216 H 0.48664 0.77917 0.13993 0.0
H1217 H 0.48286 0.75468 0.18223 0.0
H1218 H 0.41464 0.72636 0.20722 0.0
C1219 C 0.42605 0.70661 0.30823 0.0
C1220 C 0.4602 0.75166 0.26291 0.0
C1221 C 0.42877 0.69305 0.33263 0.0
C1222 C 0.46875 0.77863 0.15037 0.0
C1223 C 0.46665 0.76482 0.17453 0.0
C1224 C 0.42729 0.7336 0.22273 0.0
C1225 C 0.44714 0.71755 0.29553 0.0
C1226 C 0.44479 0.7308 0.2688 0.0
C1227 C 0.44417 0.76507 0.18933 0.0
C1228 C 0.44349 0.75368 0.21678 0.0
H1229 H 0.49199 0.69977 0.34171 0.0
H1230 H 0.48762 0.7227 0.29879 0.0
H1231 H 0.41615 0.70589 0.25214 0.0
H1232 H 0.40993 0.80384 0.14807 0.0
H1233 H 0.40595 0.7788 0.19031 0.0
C1234 C 0.69007 0.46582 0.17864 0.0
C1235 C 0.69127 0.44942 0.15641 0.0
C1236 C 0.70212 0.4599 0.20308 0.0
C1237 C 0.75355 0.42656 0.23401 0.0
H1238 H 0.71456 0.43556 0.29996 0.0
C1239 C 0.80089 0.42719 0.33981 0.0
C1240 C 0.79477 0.44863 0.35487 0.0
C1241 C 0.78624 0.42023 0.31731 0.0
C1242 C 0.72567 0.43284 0.28176 0.0
H1243 H 0.70657 0.41447 0.14163 0.0
H1244 H 0.72869 0.40432 0.18472 0.0
H1245 H 0.69369 0.43712 0.25548 0.0
H1246 H 0.76798 0.47871 0.35969 0.0
H1247 H 0.74229 0.4667 0.32049 0.0
H1248 H 0.78579 0.42379 0.26016 0.0
C1249 C 0.71805 0.42159 0.18311 0.0
C1250 C 0.71374 0.43368 0.25636 0.0
C1251 C 0.70563 0.42743 0.15855 0.0
C1252 C 0.77293 0.46203 0.34837 0.0
C1253 C 0.75824 0.45507 0.32597 0.0
C1254 C 0.76556 0.42586 0.25948 0.0
C1255 C 0.71583 0.43755 0.20573 0.0
C1256 C 0.72772 0.43152 0.23227 0.0
C1257 C 0.76515 0.43453 0.30972 0.0
C1258 C 0.75185 0.42998 0.28353 0.0
H1259 H 0.67929 0.48302 0.17727 0.0
H1260 H 0.70064 0.47281 0.22002 0.0
H1261 H 0.7647 0.42492 0.21568 0.0
H1262 H 0.81755 0.41642 0.34482 0.0
H1263 H 0.79181 0.40413 0.30538 0.0
C1264 C 0.22687 0.01271 0.52058 0.0
C1265 C 0.2497 0.02563 0.51751 0.0
C1266 C 0.20459 0.02598 0.52419 0.0
C1267 C 0.17185 0.08464 0.51341 0.0
H1268 H 0.13761 0.06783 0.58083 0.0
C1269 C 0.08086 0.13555 0.54731 0.0
C1270 C 0.06234 0.12019 0.55928 0.0
C1271 C 0.10496 0.12608 0.54246 0.0
C1272 C 0.1467 0.07258 0.56174 0.0
H1273 H 0.26715 0.06233 0.51377 0.0
H1274 H 0.22783 0.08568 0.5195 0.0
H1275 H 0.17654 0.0466 0.56949 0.0
H1276 H 0.0546 0.08281 0.57532 0.0
H1277 H 0.09583 0.06629 0.56615 0.0
H1278 H 0.14146 0.10989 0.50503 0.0
C1279 C 0.22734 0.06532 0.51955 0.0
C1280 C 0.16904 0.06046 0.55536 0.0
C1281 C 0.24974 0.05202 0.51643 0.0
C1282 C 0.06844 0.09531 0.56635 0.0
C1283 C 0.09226 0.08582 0.56124 0.0
C1284 C 0.14915 0.09651 0.51956 0.0
C1285 C 0.20473 0.05237 0.52421 0.0
C1286 C 0.18161 0.06614 0.53102 0.0
C1287 C 0.11089 0.10104 0.5493 0.0
C1288 C 0.1361 0.0903 0.54363 0.0
H1289 H 0.22643 0.99236 0.5215 0.0
H1290 H 0.18729 0.01564 0.52757 0.0
H1291 H 0.18134 0.08931 0.49453 0.0
H1292 H 0.07674 0.15481 0.54165 0.0
H1293 H 0.11893 0.1384 0.53348 0.0
C1294 C 0.37033 0.07641 0.55751 0.0
C1295 C 0.38526 0.05709 0.56855 0.0
C1296 C 0.38039 0.10048 0.55337 0.0
C1297 C 0.43587 0.1407 0.5713 0.0
H1298 H 0.41581 0.17805 0.50651 0.0
C1299 C 0.49235 0.22495 0.52938 0.0
C1300 C 0.47853 0.24711 0.52556 0.0
C1301 C 0.48001 0.20216 0.53433 0.0
C1302 C 0.42145 0.16784 0.52474 0.0
H1303 H 0.42247 0.04792 0.58395 0.0
H1304 H 0.44015 0.08929 0.5759 0.0
H1305 H 0.39579 0.13772 0.51671 0.0
H1306 H 0.44113 0.26281 0.52238 0.0
H1307 H 0.41944 0.22269 0.5304 0.0
H1308 H 0.46222 0.17048 0.5786 0.0
C1309 C 0.42047 0.08631 0.57118 0.0
C1310 C 0.40989 0.14481 0.53075 0.0
C1311 C 0.41033 0.06244 0.57569 0.0
C1312 C 0.45216 0.24596 0.52557 0.0
C1313 C 0.43979 0.22307 0.53001 0.0
C1314 C 0.4477 0.16345 0.56502 0.0
C1315 C 0.40572 0.10567 0.55981 0.0
C1316 C 0.41705 0.13083 0.55405 0.0
C1317 C 0.45363 0.20107 0.53495 0.0
C1318 C 0.4407 0.17716 0.54162 0.0
H1319 H 0.35092 0.07291 0.55189 0.0
H1320 H 0.36829 0.11498 0.54505 0.0
H1321 H 0.44151 0.13088 0.58977 0.0
H1322 H 0.51271 0.22539 0.52951 0.0
H1323 H 0.49107 0.18538 0.53785 0.0
C1324 C 0.4253 0.3697 0.5546 0.0
C1325 C 0.44442 0.38512 0.56528 0.0
C1326 C 0.40139 0.3795 0.54915 0.0
C1327 C 0.36116 0.43565 0.56239 0.0
H1328 H 0.32502 0.41273 0.49812 0.0
C1329 C 0.27767 0.48981 0.51564 0.0
C1330 C 0.25546 0.47569 0.51328 0.0
C1331 C 0.30052 0.47786 0.52108 0.0
C1332 C 0.33493 0.4192 0.51616 0.0
H1333 H 0.45339 0.42296 0.57859 0.0
H1334 H 0.41238 0.44014 0.56825 0.0
H1335 H 0.36502 0.39324 0.51061 0.0
H1336 H 0.23967 0.43812 0.51311 0.0
H1337 H 0.27991 0.41708 0.52189 0.0
H1338 H 0.33142 0.46226 0.56718 0.0
C1339 C 0.41534 0.42029 0.56487 0.0
C1340 C 0.35774 0.40793 0.5235 0.0
C1341 C 0.43902 0.41042 0.57072 0.0
C1342 C 0.2566 0.44937 0.51505 0.0
C1343 C 0.27954 0.43737 0.51996 0.0
C1344 C 0.33865 0.44719 0.55474 0.0
C1345 C 0.39618 0.40505 0.55385 0.0
C1346 C 0.37125 0.4161 0.54666 0.0
C1347 C 0.30158 0.45157 0.52364 0.0
C1348 C 0.3254 0.43915 0.53152 0.0
H1349 H 0.42887 0.3501 0.55025 0.0
H1350 H 0.38704 0.36704 0.54115 0.0
H1351 H 0.37059 0.44208 0.58072 0.0
H1352 H 0.27719 0.51014 0.51444 0.0
H1353 H 0.31734 0.48917 0.52365 0.0
C1354 C 0.13557 0.42326 0.55089 0.0
C1355 C 0.12224 0.44163 0.56529 0.0
C1356 C 0.12506 0.39945 0.54658 0.0
C1357 C 0.07218 0.35758 0.5685 0.0
H1358 H 0.08137 0.3279 0.49712 0.0
C1359 C 0.00839 0.2785 0.52817 0.0
C1360 C 0.02116 0.25687 0.51991 0.0
C1361 C 0.0216 0.30085 0.5327 0.0
C1362 C 0.07877 0.33597 0.51715 0.0
H1363 H 0.08769 0.44906 0.58714 0.0
H1364 H 0.06923 0.40818 0.57902 0.0
H1365 H 0.1038 0.36656 0.50877 0.0
H1366 H 0.05721 0.24175 0.50819 0.0
H1367 H 0.08031 0.28114 0.51546 0.0
H1368 H 0.04643 0.3274 0.57637 0.0
C1369 C 0.08801 0.41174 0.57154 0.0
C1370 C 0.09175 0.35799 0.52397 0.0
C1371 C 0.09862 0.43535 0.57612 0.0
C1372 C 0.04705 0.25824 0.51472 0.0
C1373 C 0.0602 0.2807 0.5188 0.0
C1374 C 0.05893 0.33585 0.5615 0.0
C1375 C 0.10088 0.39358 0.55633 0.0
C1376 C 0.08848 0.3692 0.54968 0.0
C1377 C 0.04769 0.302 0.52852 0.0
C1378 C 0.06196 0.32496 0.53572 0.0
H1379 H 0.15386 0.42746 0.54237 0.0
H1380 H 0.13575 0.38579 0.53526 0.0
H1381 H 0.06959 0.36527 0.58869 0.0
H1382 H 0.98844 0.27782 0.53238 0.0
H1383 H 0.01152 0.31712 0.53994 0.0
C1384 C 0.23756 0.45628 0.9826 0.0
C1385 C 0.24715 0.46928 0.95992 0.0
C1386 C 0.21597 0.44132 0.9799 0.0
C1387 C 0.17783 0.40902 0.92693 0.0
H1388 H 0.12556 0.4086 0.98173 0.0
C1389 C 0.07605 0.3789 0.90491 0.0
C1390 C 0.06281 0.36539 0.92498 0.0
C1391 C 0.10036 0.38764 0.91008 0.0
C1392 C 0.1402 0.40817 0.96647 0.0
H1393 H 0.24103 0.47856 0.91731 0.0
H1394 H 0.2033 0.45283 0.91254 0.0
H1395 H 0.16408 0.43266 0.98965 0.0
H1396 H 0.06514 0.34953 0.96586 0.0
H1397 H 0.10773 0.36501 0.97494 0.0
H1398 H 0.15362 0.38519 0.9034 0.0
C1399 C 0.21279 0.45328 0.93217 0.0
C1400 C 0.16225 0.42198 0.97099 0.0
C1401 C 0.23431 0.46808 0.93488 0.0
C1402 C 0.07486 0.35984 0.94994 0.0
C1403 C 0.09914 0.36886 0.95524 0.0
C1404 C 0.15578 0.39535 0.92238 0.0
C1405 C 0.20358 0.43935 0.9545 0.0
C1406 C 0.18109 0.42299 0.951 0.0
C1407 C 0.11193 0.38325 0.93553 0.0
C1408 C 0.13652 0.39517 0.94185 0.0
H1409 H 0.24715 0.45715 0.00216 0.0
H1410 H 0.20936 0.43085 -0.0025 0.0
H1411 H 0.19223 0.40888 0.9114 0.0
H1412 H 0.06733 0.38345 0.88545 0.0
H1413 H 0.10964 0.39885 0.89456 0.0
C1414 C 0.10097 0.06961 0.92039 0.0
C1415 C 0.11987 0.05975 0.93749 0.0
C1416 C 0.09054 0.09307 0.92564 0.0
C1417 C 0.07895 0.13694 0.98144 0.0
H1418 H 0.0614 0.18238 0.92217 0.0
C1419 C 0.03247 0.23512 0.99619 0.0
C1420 C 0.01417 0.24171 0.97674 0.0
C1421 C 0.04627 0.21293 0.99321 0.0
C1422 C 0.06597 0.16978 0.93893 0.0
H1423 H 0.14319 0.06724 0.97308 0.0
H1424 H 0.12488 0.1084 0.98219 0.0
H1425 H 0.08553 0.14471 0.91264 0.0
H1426 H 0.99441 0.22992 0.94024 0.0
H1427 H 0.01808 0.19108 0.93517 0.0
H1428 H 0.05902 0.162 0.00767 0.0
C1429 C 0.11806 0.09776 0.96486 0.0
C1430 C 0.07986 0.14825 0.93347 0.0
C1431 C 0.12866 0.07429 0.9595 0.0
C1432 C 0.00875 0.22527 0.95525 0.0
C1433 C 0.02241 0.20319 0.95227 0.0
C1434 C 0.06499 0.15856 0.98692 0.0
C1435 C 0.09867 0.10725 0.94815 0.0
C1436 C 0.08612 0.13135 0.95456 0.0
C1437 C 0.04184 0.19712 0.97073 0.0
C1438 C 0.05793 0.17494 0.96561 0.0
H1439 H 0.09374 0.05894 0.90327 0.0
H1440 H 0.07545 0.09973 0.91254 0.0
H1441 H 0.08332 0.12415 -0.00191 0.0
H1442 H 0.03693 0.24768 0.01287 0.0
H1443 H 0.06111 0.20875 0.00776 0.0
C1444 C 0.42066 0.13662 0.96056 0.0
C1445 C 0.43721 0.12164 0.94544 0.0
C1446 C 0.39737 0.12699 0.96892 0.0
C1447 C 0.36686 0.06864 0.98753 0.0
H1448 H 0.30374 0.0974 0.96309 0.0
C1449 C 0.27531 0.01147 0.9877 0.0
C1450 C 0.25226 0.02381 0.99044 0.0
C1451 C 0.29769 0.02521 0.98655 0.0
C1452 C 0.32111 0.08939 0.9707 0.0
H1453 H 0.44219 0.08492 0.92713 0.0
H1454 H 0.40199 0.06816 0.94226 0.0
H1455 H 0.34316 0.11904 0.95281 0.0
H1456 H 0.23444 0.05988 0.99614 0.0
H1457 H 0.2736 0.08397 0.99503 0.0
H1458 H 0.34521 0.03912 0.0056 0.0
C1459 C 0.40697 0.08732 0.94744 0.0
C1460 C 0.34366 0.10178 0.96467 0.0
C1461 C 0.42989 0.09703 0.93864 0.0
C1462 C 0.25201 0.05001 0.99349 0.0
C1463 C 0.27444 0.06377 0.99272 0.0
C1464 C 0.34437 0.05648 0.99398 0.0
C1465 C 0.39061 0.10211 0.96281 0.0
C1466 C 0.3667 0.09112 0.9724 0.0
C1467 C 0.29754 0.05161 0.98863 0.0
C1468 C 0.32121 0.06628 0.98495 0.0
H1469 H 0.42578 0.15565 0.96608 0.0
H1470 H 0.38492 0.13871 0.98071 0.0
H1471 H 0.38448 0.06024 0.99393 0.0
H1472 H 0.27595 0.99126 0.98518 0.0
H1473 H 0.31496 0.01513 0.98292 0.0
C1474 C 0.41149 0.43361 0.92262 0.0
C1475 C 0.38616 0.43858 0.92843 0.0
C1476 C 0.42232 0.41077 0.93013 0.0
C1477 C 0.41377 0.35619 0.97671 0.0
H1478 H 0.46563 0.32761 0.93122 0.0
C1479 C 0.45641 0.25614 0.98918 0.0
C1480 C 0.48262 0.25444 0.98663 0.0
C1481 C 0.44427 0.27907 0.98486 0.0
C1482 C 0.45135 0.33553 0.94425 0.0
H1483 H 0.35214 0.4231 0.94608 0.0
H1484 H 0.37087 0.38266 0.95835 0.0
H1485 H 0.4439 0.36538 0.9161 0.0
H1486 H 0.51689 0.27531 0.979 0.0
H1487 H 0.49562 0.31548 0.97111 0.0
H1488 H 0.4209 0.32554 0.0044 0.0
C1489 C 0.38252 0.39677 0.94859 0.0
C1490 C 0.43888 0.35721 0.93563 0.0
C1491 C 0.37171 0.41985 0.94134 0.0
C1492 C 0.49666 0.27623 0.98115 0.0
C1493 C 0.4845 0.29909 0.97643 0.0
C1494 C 0.42603 0.33422 0.98513 0.0
C1495 C 0.40806 0.39206 0.94331 0.0
C1496 C 0.42014 0.36804 0.95188 0.0
C1497 C 0.45815 0.30056 0.97759 0.0
C1498 C 0.44512 0.32389 0.96911 0.0
H1499 H 0.4233 0.44766 0.91295 0.0
H1500 H 0.44213 0.40813 0.9262 0.0
H1501 H 0.39969 0.36415 0.98994 0.0
H1502 H 0.44526 0.23955 0.9936 0.0
H1503 H 0.42395 0.27972 0.98584 0.0
C1504 C 0.91119 0.86565 0.44647 0.0
C1505 C 0.92872 0.88107 0.43291 0.0
C1506 C 0.88788 0.87529 0.45429 0.0
C1507 C 0.85839 0.93335 0.47441 0.0
H1508 H 0.79524 0.90558 0.44849 0.0
C1509 C 0.76696 0.99011 0.47571 0.0
C1510 C 0.74388 0.97747 0.47754 0.0
C1511 C 0.78935 0.97659 0.47455 0.0
C1512 C 0.81262 0.91329 0.45651 0.0
H1513 H 0.93542 0.91859 0.41668 0.0
H1514 H 0.89507 0.93535 0.43081 0.0
H1515 H 0.83454 0.8844 0.43781 0.0
H1516 H 0.72596 0.94108 0.48179 0.0
H1517 H 0.76514 0.91735 0.48079 0.0
H1518 H 0.83681 0.96206 0.49336 0.0
C1519 C 0.89933 0.91584 0.43522 0.0
C1520 C 0.8351 0.90118 0.45022 0.0
C1521 C 0.92232 0.90614 0.42695 0.0
C1522 C 0.74359 0.95118 0.47986 0.0
C1523 C 0.76601 0.93763 0.47913 0.0
C1524 C 0.83594 0.94521 0.48112 0.0
C1525 C 0.88205 0.9006 0.44918 0.0
C1526 C 0.85816 0.91151 0.45852 0.0
C1527 C 0.78915 0.95012 0.47573 0.0
C1528 C 0.81278 0.93574 0.47163 0.0
H1529 H 0.9156 0.84627 0.45134 0.0
H1530 H 0.87474 0.86322 0.46499 0.0
H1531 H 0.87602 0.94144 0.48131 0.0
H1532 H 0.7676 0.0104 0.47376 0.0
H1533 H 0.80668 0.98693 0.47152 0.0
C1534 C 0.62745 0.92385 0.43295 0.0
C1535 C 0.6133 0.94183 0.41845 0.0
C1536 C 0.61785 0.89966 0.43742 0.0
C1537 C 0.58704 0.85562 0.45877 0.0
H1538 H 0.54444 0.82417 0.40426 0.0
C1539 C 0.52819 0.76615 0.48191 0.0
C1540 C 0.5256 0.74848 0.46092 0.0
C1541 C 0.53977 0.78939 0.47689 0.0
C1542 C 0.55654 0.83245 0.41964 0.0
H1543 H 0.57801 0.94841 0.39713 0.0
H1544 H 0.5611 0.90672 0.40549 0.0
H1545 H 0.56429 0.86418 0.3941 0.0
H1546 H 0.5315 0.74202 0.41774 0.0
H1547 H 0.553 0.7815 0.40937 0.0
H1548 H 0.57998 0.82333 0.48391 0.0
C1549 C 0.57987 0.91094 0.41287 0.0
C1550 C 0.56766 0.85568 0.41394 0.0
C1551 C 0.58956 0.93497 0.40814 0.0
C1552 C 0.53427 0.7547 0.4347 0.0
C1553 C 0.54609 0.77769 0.42974 0.0
C1554 C 0.57613 0.8322 0.46436 0.0
C1555 C 0.59378 0.893 0.42773 0.0
C1556 C 0.5829 0.86769 0.43348 0.0
C1557 C 0.54888 0.79545 0.45069 0.0
C1558 C 0.56066 0.82034 0.44489 0.0
H1559 H 0.64583 0.92851 0.44111 0.0
H1560 H 0.62929 0.88621 0.44853 0.0
H1561 H 0.59838 0.86443 0.47448 0.0
H1562 H 0.52118 0.76202 0.50218 0.0
H1563 H 0.54111 0.80278 0.49339 0.0
C1564 C 0.71984 0.499 0.47556 0.0
C1565 C 0.74135 0.51389 0.47948 0.0
C1566 C 0.69653 0.51023 0.47047 0.0
C1567 C 0.6697 0.57043 0.44532 0.0
H1568 H 0.60675 0.54113 0.46942 0.0
C1569 C 0.57359 0.62038 0.43462 0.0
C1570 C 0.55311 0.60567 0.42587 0.0
C1571 C 0.59679 0.60928 0.44047 0.0
C1572 C 0.6242 0.54938 0.46235 0.0
H1573 H 0.75526 0.55198 0.48331 0.0
H1574 H 0.71453 0.57167 0.47533 0.0
H1575 H 0.64636 0.52178 0.4833 0.0
H1576 H 0.54119 0.56775 0.41578 0.0
H1577 H 0.58167 0.54844 0.42611 0.0
H1578 H 0.64743 0.59826 0.42476 0.0
C1579 C 0.71566 0.55136 0.47508 0.0
C1580 C 0.64691 0.5383 0.47028 0.0
C1581 C 0.73897 0.54013 0.47985 0.0
C1582 C 0.55658 0.57969 0.42236 0.0
C1583 C 0.57969 0.56856 0.42853 0.0
C1584 C 0.64701 0.58163 0.43763 0.0
C1585 C 0.69425 0.53659 0.46959 0.0
C1586 C 0.66998 0.54865 0.46183 0.0
C1587 C 0.59993 0.58318 0.438 0.0
C1588 C 0.62403 0.57119 0.44598 0.0
H1589 H 0.72128 0.4787 0.47505 0.0
H1590 H 0.68054 0.49822 0.46613 0.0
H1591 H 0.68703 0.57864 0.43789 0.0
H1592 H 0.5716 0.64041 0.43746 0.0
H1593 H 0.61205 0.62101 0.44782 0.0
C1594 C 0.89865 0.56862 0.43167 0.0
C1595 C 0.87429 0.56104 0.43919 0.0
C1596 C 0.9082 0.5918 0.43985 0.0
C1597 C 0.89309 0.65512 0.45749 0.0
H1598 H 0.95698 0.6545 0.49611 0.0
C1599 C 0.94341 0.74757 0.48587 0.0
C1600 C 0.9695 0.74808 0.48193 0.0
C1601 C 0.93023 0.7248 0.48528 0.0
C1602 C 0.93927 0.65508 0.48513 0.0
H1603 H 0.8405 0.57234 0.46033 0.0
H1604 H 0.85713 0.61362 0.47387 0.0
H1605 H 0.93632 0.61492 0.48475 0.0
H1606 H 0.00251 0.72537 0.47531 0.0
H1607 H 0.97964 0.68572 0.47334 0.0
H1608 H 0.89657 0.69512 0.45629 0.0
C1609 C 0.8688 0.60119 0.46199 0.0
C1610 C 0.92738 0.6324 0.47883 0.0
C1611 C 0.85933 0.57766 0.45424 0.0
C1612 C 0.98238 0.72541 0.47852 0.0
C1613 C 0.96921 0.70268 0.47753 0.0
C1614 C 0.90518 0.67785 0.46337 0.0
C1615 C 0.89351 0.60816 0.45531 0.0
C1616 C 0.90443 0.63223 0.46455 0.0
C1617 C 0.94288 0.70209 0.48044 0.0
C1618 C 0.9287 0.67812 0.47681 0.0
H1619 H 0.91076 0.5563 0.42018 0.0
H1620 H 0.92721 0.59693 0.43419 0.0
H1621 H 0.87545 0.65538 0.44631 0.0
H1622 H 0.93315 0.76484 0.48905 0.0
H1623 H 0.91009 0.72507 0.48827 0.0
C1624 C 0.9299 0.59951 0.0835 0.0
C1625 C 0.9401 0.61703 0.06498 0.0
C1626 C 0.90594 0.58948 0.0792 0.0
C1627 C 0.86146 0.57484 0.02452 0.0
H1628 H 0.81461 0.56481 0.08394 0.0
C1629 C 0.76244 0.53009 0.00961 0.0
C1630 C 0.75384 0.51449 0.03078 0.0
C1631 C 0.78485 0.54369 0.01274 0.0
C1632 C 0.82759 0.56718 0.06717 0.0
H1633 H 0.93276 0.63831 0.02783 0.0
H1634 H 0.89085 0.62055 0.02026 0.0
H1635 H 0.85358 0.58781 0.09201 0.0
H1636 H 0.76225 0.49937 0.07089 0.0
H1637 H 0.80163 0.52247 0.07622 0.0
H1638 H 0.83578 0.55363 -0.00018 0.0
C1639 C 0.90154 0.61459 0.03804 0.0
C1640 C 0.84985 0.58049 0.07179 0.0
C1641 C 0.92545 0.62488 0.04251 0.0
C1642 C 0.76842 0.51168 0.05452 0.0
C1643 C 0.79083 0.52506 0.05759 0.0
C1644 C 0.83923 0.56133 0.01991 0.0
C1645 C 0.89169 0.59655 0.05616 0.0
C1646 C 0.86716 0.58421 0.05062 0.0
C1647 C 0.79908 0.54167 0.03702 0.0
C1648 C 0.82219 0.55704 0.0413 0.0
H1649 H 0.94067 0.59306 0.10103 0.0
H1650 H 0.89893 0.57547 0.09341 0.0
H1651 H 0.8746 0.57719 0.00788 0.0
H1652 H 0.75137 0.53246 0.99113 0.0
H1653 H 0.7906 0.55636 0.99653 0.0
C1654 C 0.98846 0.77328 0.02654 0.0
C1655 C 0.97518 0.75107 0.02097 0.0
C1656 C 0.97553 0.79538 0.03241 0.0
C1657 C 0.91662 0.82868 0.02326 0.0
H1658 H 0.93342 0.86085 0.09186 0.0
C1659 C 0.86294 0.91634 0.05879 0.0
C1660 C 0.87736 0.93546 0.07092 0.0
C1661 C 0.8732 0.89251 0.05467 0.0
C1662 C 0.92867 0.85236 0.07246 0.0
H1663 H 0.93823 0.73456 0.01563 0.0
H1664 H 0.91551 0.77355 0.02511 0.0
H1665 H 0.95553 0.82289 0.07847 0.0
H1666 H 0.91365 0.94432 0.08901 0.0
H1667 H 0.93173 0.90335 0.08106 0.0
H1668 H 0.89055 0.85855 0.0165 0.0
C1669 C 0.93587 0.77374 0.02536 0.0
C1670 C 0.94131 0.83057 0.06488 0.0
C1671 C 0.94881 0.75152 0.02001 0.0
C1672 C 0.90191 0.92997 0.0798 0.0
C1673 C 0.91229 0.90633 0.07531 0.0
C1674 C 0.90427 0.85075 0.03058 0.0
C1675 C 0.94913 0.79569 0.03221 0.0
C1676 C 0.93549 0.81863 0.04016 0.0
C1677 C 0.89826 0.88739 0.06221 0.0
C1678 C 0.91024 0.863 0.05522 0.0
H1679 H 0.00881 0.77329 0.02752 0.0
H1680 H 0.98613 0.81217 0.03742 0.0
H1681 H 0.91189 0.8198 0.00404 0.0
H1682 H 0.84391 0.91993 0.05187 0.0
H1683 H 0.8616 0.87826 0.04512 0.0
C1684 C 0.72286 0.98223 0.02115 0.0
C1685 C 0.74441 0.96818 0.01539 0.0
C1686 C 0.7004 0.97007 0.02789 0.0
C1687 C 0.66463 0.91202 0.02215 0.0
H1688 H 0.63609 0.93059 0.09182 0.0
C1689 C 0.57725 0.86083 0.06373 0.0
C1690 C 0.55901 0.87584 0.07621 0.0
C1691 C 0.6012 0.87048 0.05831 0.0
C1692 C 0.64355 0.92536 0.07215 0.0
H1693 H 0.75935 0.9307 0.01059 0.0
H1694 H 0.71969 0.90933 0.02153 0.0
H1695 H 0.67404 0.95159 0.07572 0.0
H1696 H 0.55191 0.91246 0.09372 0.0
H1697 H 0.5931 0.9295 0.08354 0.0
H1698 H 0.63376 0.88656 0.01785 0.0
C1699 C 0.72028 0.92968 0.0212 0.0
C1700 C 0.66533 0.93737 0.06301 0.0
C1701 C 0.74287 0.94184 0.01496 0.0
C1702 C 0.56558 0.90029 0.08429 0.0
C1703 C 0.58934 0.91007 0.07848 0.0
C1704 C 0.64256 0.9003 0.03104 0.0
C1705 C 0.69906 0.9437 0.02842 0.0
C1706 C 0.67598 0.93088 0.03789 0.0
C1707 C 0.60731 0.8955 0.06484 0.0
C1708 C 0.63164 0.90689 0.05614 0.0
H1709 H 0.72372 0.00256 0.02179 0.0
H1710 H 0.68419 0.98124 0.03319 0.0
H1711 H 0.67251 0.90677 0.00266 0.0
H1712 H 0.57281 0.84185 0.05739 0.0
H1713 H 0.61472 0.85846 0.04844 0.0
C1714 C 0.60829 0.57323 0.08704 0.0
C1715 C 0.62539 0.56105 0.0699 0.0
C1716 C 0.60037 0.59762 0.08115 0.0
C1717 C 0.59062 0.64016 0.02341 0.0
H1718 H 0.57807 0.68871 0.08037 0.0
C1719 C 0.54547 0.7385 0.00398 0.0
C1720 C 0.52778 0.74582 0.02346 0.0
C1721 C 0.55973 0.71671 0.00818 0.0
C1722 C 0.58134 0.67529 0.06424 0.0
H1723 H 0.64843 0.56533 0.03374 0.0
H1724 H 0.63445 0.60813 0.02341 0.0
H1725 H 0.60061 0.65015 0.09137 0.0
H1726 H 0.50948 0.73554 0.06127 0.0
H1727 H 0.5341 0.69753 0.06861 0.0
H1728 H 0.57074 0.66513 0.99643 0.0
C1729 C 0.62711 0.59862 0.04131 0.0
C1730 C 0.59432 0.65327 0.07054 0.0
C1731 C 0.63524 0.57422 0.04736 0.0
C1732 C 0.52352 0.73051 0.04636 0.0
C1733 C 0.53768 0.70885 0.05058 0.0
C1734 C 0.57758 0.66225 0.0171 0.0
C1735 C 0.60927 0.61039 0.05791 0.0
C1736 C 0.59858 0.63519 0.05035 0.0
C1737 C 0.55634 0.702 0.03189 0.0
C1738 C 0.57226 0.67974 0.03763 0.0
H1739 H 0.60038 0.56365 0.1046 0.0
H1740 H 0.58642 0.60608 0.09419 0.0
H1741 H 0.59344 0.62645 0.00747 0.0
H1742 H 0.54888 0.75007 0.98609 0.0
H1743 H 0.57392 0.71184 0.99339 0.0
loop_
_geom_bond_atom_site_label_1
_geom_bond_atom_site_label_2
_geom_bond_distance
_geom_bond_site_symmetry_2
_ccdc_geom_bond_type
Co0 O3 1.973 1_655 S
Co0 N17 1.988 . S
Co0 O25 1.965 . S
Co0 O32 1.920 . S
Co1 O4 1.966 1_655 S
Co1 N10 2.022 . S
Co1 N18 1.993 . S
Co1 O26 1.941 . S
C2 O3 1.258 . S
C2 O4 1.263 . S
O3 Co0 1.973 1_455 S
O3 C2 1.258 . S
O4 Co1 1.966 1_455 S
O4 C2 1.263 . S
C5 O6 1.235 . S
C5 O32 1.289 1_455 S
O6 C5 1.235 . S
C7 C9 1.400 . S
C7 N10 1.351 1_455 S
C7 C12 1.501 . S
C8 C9 1.387 1_655 S
C8 N11 1.341 . S
C9 C7 1.400 . S
C9 C8 1.387 1_455 S
N10 Co1 2.022 . S
N10 C7 1.351 1_655 S
N10 N11 1.365 . S
N11 C8 1.341 . S
N11 N10 1.365 . S
N11 H31 0.862 . S
C12 C7 1.501 . S
C12 H13 0.961 . S
C12 H14 0.961 . S
C12 H15 0.960 . S
H13 C12 0.961 . S
H14 C12 0.961 . S
H15 C12 0.960 . S
C16 N17 1.342 . S
C16 C20 1.401 . S
C16 C21 1.499 . S
N17 Co0 1.988 . S
N17 C16 1.342 . S
N17 N18 1.388 . S
N18 Co1 1.993 . S
N18 N17 1.388 . S
N18 C19 1.346 . S
C19 N18 1.346 . S
C19 C20 1.396 . S
C19 C29 1.510 . S
C20 C16 1.401 . S
C20 C19 1.396 . S
C21 C16 1.499 . S
C21 H22 0.959 . S
C21 H23 0.960 . S
C21 H24 0.961 . S
H22 C21 0.959 . S
H23 C21 0.960 . S
H24 C21 0.961 . S
O25 Co0 1.965 . S
O25 C33 1.258 . S
O26 Co1 1.941 . S
O26 C33 1.266 . S
H27 C29 0.959 . S
H28 C29 0.961 . S
C29 C19 1.510 . S
C29 H27 0.959 . S
C29 H28 0.961 . S
C29 H30 0.960 . S
H30 C29 0.960 . S
H31 N11 0.862 . S
O32 Co0 1.920 . S
O32 C5 1.289 1_655 S
C33 O25 1.258 . S
C33 O26 1.266 . S
Co34 O37 1.945 1_565 S
Co34 N51 1.999 . S
Co34 O59 1.980 . S
Co34 O66 1.925 . S
Co35 O38 1.966 1_565 S
Co35 N44 2.022 . S
Co35 N52 1.993 . S
Co35 O60 1.941 . S
C36 O37 1.258 . S
C36 O38 1.263 . S
O37 Co34 1.945 1_545 S
O37 C36 1.258 . S
O38 Co35 1.966 1_545 S
O38 C36 1.263 . S
C39 O40 1.235 . S
C39 O66 1.289 1_545 S
O40 C39 1.235 . S
C41 C43 1.400 . S
C41 N44 1.351 1_545 S
C41 C46 1.501 . S
C42 C43 1.387 1_565 S
C42 N45 1.341 . S
C43 C41 1.400 . S
C43 C42 1.387 1_545 S
N44 Co35 2.022 . S
N44 C41 1.351 1_565 S
N44 N45 1.365 . S
N45 C42 1.341 . S
N45 N44 1.365 . S
N45 H65 0.862 . S
C46 C41 1.501 . S
C46 H47 0.961 . S
C46 H48 0.961 . S
C46 H49 0.960 . S
H47 C46 0.961 . S
H48 C46 0.961 . S
H49 C46 0.960 . S
C50 N51 1.342 . S
C50 C54 1.401 . S
C50 C55 1.499 . S
N51 Co34 1.999 . S
N51 C50 1.342 . S
N51 N52 1.388 . S
N52 Co35 1.993 . S
N52 N51 1.388 . S
N52 C53 1.346 . S
C53 N52 1.346 . S
C53 C54 1.396 . S
C53 C63 1.510 . S
C54 C50 1.401 . S
C54 C53 1.396 . S
C55 C50 1.499 . S
C55 H56 0.959 . S
C55 H57 0.960 . S
C55 H58 0.961 . S
H56 C55 0.959 . S
H57 C55 0.960 . S
H58 C55 0.961 . S
O59 Co34 1.980 . S
O59 C67 1.258 . S
O60 Co35 1.941 . S
O60 C67 1.266 . S
H61 C63 0.959 . S
H62 C63 0.961 . S
C63 C53 1.510 . S
C63 H61 0.959 . S
C63 H62 0.961 . S
C63 H64 0.960 . S
H64 C63 0.960 . S
H65 N45 0.862 . S
O66 Co34 1.925 . S
O66 C39 1.289 1_565 S
C67 O59 1.258 . S
C67 O60 1.266 . S
Co68 O71 1.970 . S
Co68 N85 1.989 . S
Co68 O93 1.967 . S
Co68 O100 1.920 . S
Co69 O72 1.966 . S
Co69 N78 2.022 . S
Co69 N86 1.993 . S
Co69 O94 1.941 . S
C70 O71 1.258 . S
C70 O72 1.263 . S
O71 Co68 1.970 . S
O71 C70 1.258 . S
O72 Co69 1.966 . S
O72 C70 1.263 . S
C73 O74 1.235 . S
C73 O100 1.289 . S
O74 C73 1.235 . S
C75 C77 1.400 . S
C75 N78 1.351 . S
C75 C80 1.501 . S
C76 C77 1.387 . S
C76 N79 1.341 . S
C77 C75 1.400 . S
C77 C76 1.387 . S
N78 Co69 2.022 . S
N78 C75 1.351 . S
N78 N79 1.365 . S
N79 C76 1.341 . S
N79 N78 1.365 . S
N79 H99 0.862 . S
C80 C75 1.501 . S
C80 H81 0.961 . S
C80 H82 0.961 . S
C80 H83 0.960 . S
H81 C80 0.961 . S
H82 C80 0.961 . S
H83 C80 0.960 . S
C84 N85 1.342 . S
C84 C88 1.401 . S
C84 C89 1.499 . S
N85 Co68 1.989 . S
N85 C84 1.342 . S
N85 N86 1.388 . S
N86 Co69 1.993 . S
N86 N85 1.388 . S
N86 C87 1.346 . S
C87 N86 1.346 . S
C87 C88 1.396 . S
C87 C97 1.510 . S
C88 C84 1.401 . S
C88 C87 1.396 . S
C89 C84 1.499 . S
C89 H90 0.959 . S
C89 H91 0.960 . S
C89 H92 0.961 . S
H90 C89 0.959 . S
H91 C89 0.960 . S
H92 C89 0.961 . S
O93 Co68 1.967 . S
O93 C101 1.258 . S
O94 Co69 1.941 . S
O94 C101 1.266 . S
H95 C97 0.959 . S
H96 C97 0.961 . S
C97 C87 1.510 . S
C97 H95 0.959 . S
C97 H96 0.961 . S
C97 H98 0.960 . S
H98 C97 0.960 . S
H99 N79 0.862 . S
O100 Co68 1.920 . S
O100 C73 1.289 . S
C101 O93 1.258 . S
C101 O94 1.266 . S
Co102 O105 1.970 . S
Co102 N119 1.989 . S
Co102 O127 1.967 . S
Co102 O134 1.920 . S
Co103 O106 1.966 . S
Co103 N112 2.022 . S
Co103 N120 1.993 . S
Co103 O128 1.941 . S
C104 O105 1.258 . S
C104 O106 1.263 . S
O105 Co102 1.970 . S
O105 C104 1.258 . S
O106 Co103 1.966 . S
O106 C104 1.263 . S
C107 O108 1.235 . S
C107 O134 1.289 . S
O108 C107 1.235 . S
C109 C111 1.400 . S
C109 N112 1.351 . S
C109 C114 1.501 . S
C110 C111 1.387 . S
C110 N113 1.341 . S
C111 C109 1.400 . S
C111 C110 1.387 . S
N112 Co103 2.022 . S
N112 C109 1.351 . S
N112 N113 1.365 . S
N113 C110 1.341 . S
N113 N112 1.365 . S
N113 H133 0.862 . S
C114 C109 1.501 . S
C114 H115 0.961 . S
C114 H116 0.961 . S
C114 H117 0.960 . S
H115 C114 0.961 . S
H116 C114 0.961 . S
H117 C114 0.960 . S
C118 N119 1.342 . S
C118 C122 1.401 . S
C118 C123 1.499 . S
N119 Co102 1.989 . S
N119 C118 1.342 . S
N119 N120 1.388 . S
N120 Co103 1.993 . S
N120 N119 1.388 . S
N120 C121 1.346 . S
C121 N120 1.346 . S
C121 C122 1.396 . S
C121 C131 1.510 . S
C122 C118 1.401 . S
C122 C121 1.396 . S
C123 C118 1.499 . S
C123 H124 0.959 . S
C123 H125 0.960 . S
C123 H126 0.961 . S
H124 C123 0.959 . S
H125 C123 0.960 . S
H126 C123 0.961 . S
O127 Co102 1.967 . S
O127 C135 1.258 . S
O128 Co103 1.941 . S
O128 C135 1.266 . S
H129 C131 0.959 . S
H130 C131 0.961 . S
C131 C121 1.510 . S
C131 H129 0.959 . S
C131 H130 0.961 . S
C131 H132 0.960 . S
H132 C131 0.960 . S
H133 N113 0.862 . S
O134 Co102 1.920 . S
O134 C107 1.289 . S
C135 O127 1.258 . S
C135 O128 1.266 . S
Co136 O139 1.945 1_655 S
Co136 N153 1.999 . S
Co136 O161 1.980 . S
Co136 O168 1.925 . S
Co137 O140 1.966 1_655 S
Co137 N146 2.022 . S
Co137 N154 1.993 . S
Co137 O162 1.941 . S
C138 O139 1.258 . S
C138 O140 1.263 . S
O139 Co136 1.945 1_455 S
O139 C138 1.258 . S
O140 Co137 1.966 1_455 S
O140 C138 1.263 . S
C141 O142 1.235 . S
C141 O168 1.289 1_455 S
O142 C141 1.235 . S
C143 C145 1.400 . S
C143 N146 1.351 1_455 S
C143 C148 1.501 . S
C144 C145 1.387 1_655 S
C144 N147 1.341 . S
C145 C143 1.400 . S
C145 C144 1.387 1_455 S
N146 Co137 2.022 . S
N146 C143 1.351 1_655 S
N146 N147 1.365 . S
N147 C144 1.341 . S
N147 N146 1.365 . S
N147 H167 0.862 . S
C148 C143 1.501 . S
C148 H149 0.961 . S
C148 H150 0.961 . S
C148 H151 0.960 . S
H149 C148 0.961 . S
H150 C148 0.961 . S
H151 C148 0.960 . S
C152 N153 1.342 . S
C152 C156 1.401 . S
C152 C157 1.499 . S
N153 Co136 1.999 . S
N153 C152 1.342 . S
N153 N154 1.388 . S
N154 Co137 1.993 . S
N154 N153 1.388 . S
N154 C155 1.346 . S
C155 N154 1.346 . S
C155 C156 1.396 . S
C155 C165 1.510 . S
C156 C152 1.401 . S
C156 C155 1.396 . S
C157 C152 1.499 . S
C157 H158 0.959 . S
C157 H159 0.960 . S
C157 H160 0.961 . S
H158 C157 0.959 . S
H159 C157 0.960 . S
H160 C157 0.961 . S
O161 Co136 1.980 . S
O161 C169 1.258 . S
O162 Co137 1.941 . S
O162 C169 1.266 . S
H163 C165 0.959 . S
H164 C165 0.961 . S
C165 C155 1.510 . S
C165 H163 0.959 . S
C165 H164 0.961 . S
C165 H166 0.960 . S
H166 C165 0.960 . S
H167 N147 0.862 . S
O168 Co136 1.925 . S
O168 C141 1.289 1_655 S
C169 O161 1.258 . S
C169 O162 1.266 . S
Co170 O173 1.973 1_565 S
Co170 N187 1.988 . S
Co170 O195 1.965 . S
Co170 O202 1.920 . S
Co171 O174 1.966 1_565 S
Co171 N180 2.022 . S
Co171 N188 1.993 . S
Co171 O196 1.941 . S
C172 O173 1.258 . S
C172 O174 1.263 . S
O173 Co170 1.973 1_545 S
O173 C172 1.258 . S
O174 Co171 1.966 1_545 S
O174 C172 1.263 . S
C175 O176 1.235 . S
C175 O202 1.289 1_545 S
O176 C175 1.235 . S
C177 C179 1.400 . S
C177 N180 1.351 1_545 S
C177 C182 1.501 . S
C178 C179 1.387 1_565 S
C178 N181 1.341 . S
C179 C177 1.400 . S
C179 C178 1.387 1_545 S
N180 Co171 2.022 . S
N180 C177 1.351 1_565 S
N180 N181 1.365 . S
N181 C178 1.341 . S
N181 N180 1.365 . S
N181 H201 0.862 . S
C182 C177 1.501 . S
C182 H183 0.961 . S
C182 H184 0.961 . S
C182 H185 0.960 . S
H183 C182 0.961 . S
H184 C182 0.961 . S
H185 C182 0.960 . S
C186 N187 1.342 . S
C186 C190 1.401 . S
C186 C191 1.499 . S
N187 Co170 1.988 . S
N187 C186 1.342 . S
N187 N188 1.388 . S
N188 Co171 1.993 . S
N188 N187 1.388 . S
N188 C189 1.346 . S
C189 N188 1.346 . S
C189 C190 1.396 . S
C189 C199 1.510 . S
C190 C186 1.401 . S
C190 C189 1.396 . S
C191 C186 1.499 . S
C191 H192 0.959 . S
C191 H193 0.960 . S
C191 H194 0.961 . S
H192 C191 0.959 . S
H193 C191 0.960 . S
H194 C191 0.961 . S
O195 Co170 1.965 . S
O195 C203 1.258 . S
O196 Co171 1.941 . S
O196 C203 1.266 . S
H197 C199 0.959 . S
H198 C199 0.961 . S
C199 C189 1.510 . S
C199 H197 0.959 . S
C199 H198 0.961 . S
C199 H200 0.960 . S
H200 C199 0.960 . S
H201 N181 0.862 . S
O202 Co170 1.920 . S
O202 C175 1.289 1_565 S
C203 O195 1.258 . S
C203 O196 1.266 . S
Co204 O207 1.970 . S
Co204 N221 1.989 . S
Co204 O229 1.967 . S
Co204 O236 1.920 . S
Co205 O208 1.966 . S
Co205 N214 2.022 . S
Co205 N222 1.993 . S
Co205 O230 1.941 . S
C206 O207 1.258 . S
C206 O208 1.263 . S
O207 Co204 1.970 . S
O207 C206 1.258 . S
O208 Co205 1.966 . S
O208 C206 1.263 . S
C209 O210 1.235 . S
C209 O236 1.289 . S
O210 C209 1.235 . S
C211 C213 1.400 . S
C211 N214 1.351 . S
C211 C216 1.501 . S
C212 C213 1.387 . S
C212 N215 1.341 . S
C213 C211 1.400 . S
C213 C212 1.387 . S
N214 Co205 2.022 . S
N214 C211 1.351 . S
N214 N215 1.365 . S
N215 C212 1.341 . S
N215 N214 1.365 . S
N215 H235 0.862 . S
C216 C211 1.501 . S
C216 H217 0.961 . S
C216 H218 0.961 . S
C216 H219 0.960 . S
H217 C216 0.961 . S
H218 C216 0.961 . S
H219 C216 0.960 . S
C220 N221 1.342 . S
C220 C224 1.401 . S
C220 C225 1.499 . S
N221 Co204 1.989 . S
N221 C220 1.342 . S
N221 N222 1.388 . S
N222 Co205 1.993 . S
N222 N221 1.388 . S
N222 C223 1.346 . S
C223 N222 1.346 . S
C223 C224 1.396 . S
C223 C233 1.510 . S
C224 C220 1.401 . S
C224 C223 1.396 . S
C225 C220 1.499 . S
C225 H226 0.959 . S
C225 H227 0.960 . S
C225 H228 0.961 . S
H226 C225 0.959 . S
H227 C225 0.960 . S
H228 C225 0.961 . S
O229 Co204 1.967 . S
O229 C237 1.258 . S
O230 Co205 1.941 . S
O230 C237 1.266 . S
H231 C233 0.959 . S
H232 C233 0.961 . S
C233 C223 1.510 . S
C233 H231 0.959 . S
C233 H232 0.961 . S
C233 H234 0.960 . S
H234 C233 0.960 . S
H235 N215 0.862 . S
O236 Co204 1.920 . S
O236 C209 1.289 . S
C237 O229 1.258 . S
C237 O230 1.266 . S
Co238 O241 1.970 . S
Co238 N255 1.989 . S
Co238 O263 1.967 . S
Co238 O270 1.920 . S
Co239 O242 1.966 . S
Co239 N248 2.022 . S
Co239 N256 1.993 . S
Co239 O264 1.941 . S
C240 O241 1.258 . S
C240 O242 1.263 . S
O241 Co238 1.970 . S
O241 C240 1.258 . S
O242 Co239 1.966 . S
O242 C240 1.263 . S
C243 O244 1.235 . S
C243 O270 1.289 . S
O244 C243 1.235 . S
C245 C247 1.400 . S
C245 N248 1.351 . S
C245 C250 1.501 . S
C246 C247 1.387 . S
C246 N249 1.341 . S
C247 C245 1.400 . S
C247 C246 1.387 . S
N248 Co239 2.022 . S
N248 C245 1.351 . S
N248 N249 1.365 . S
N249 C246 1.341 . S
N249 N248 1.365 . S
N249 H269 0.862 . S
C250 C245 1.501 . S
C250 H251 0.961 . S
C250 H252 0.961 . S
C250 H253 0.960 . S
H251 C250 0.961 . S
H252 C250 0.961 . S
H253 C250 0.960 . S
C254 N255 1.342 . S
C254 C258 1.401 . S
C254 C259 1.499 . S
N255 Co238 1.989 . S
N255 C254 1.342 . S
N255 N256 1.388 . S
N256 Co239 1.993 . S
N256 N255 1.388 . S
N256 C257 1.346 . S
C257 N256 1.346 . S
C257 C258 1.396 . S
C257 C267 1.510 . S
C258 C254 1.401 . S
C258 C257 1.396 . S
C259 C254 1.499 . S
C259 H260 0.959 . S
C259 H261 0.960 . S
C259 H262 0.961 . S
H260 C259 0.959 . S
H261 C259 0.960 . S
H262 C259 0.961 . S
O263 Co238 1.967 . S
O263 C271 1.258 . S
O264 Co239 1.941 . S
O264 C271 1.266 . S
H265 C267 0.959 . S
H266 C267 0.961 . S
C267 C257 1.510 . S
C267 H265 0.959 . S
C267 H266 0.961 . S
C267 H268 0.960 . S
H268 C267 0.960 . S
H269 N249 0.862 . S
O270 Co238 1.920 . S
O270 C243 1.289 . S
C271 O263 1.258 . S
C271 O264 1.266 . S
Co272 O275 1.973 1_455 S
Co272 N289 1.988 . S
Co272 O297 1.965 . S
Co272 O304 1.920 . S
Co273 O276 1.966 1_455 S
Co273 N282 2.022 . S
Co273 N290 1.993 . S
Co273 O298 1.941 . S
C274 O275 1.258 . S
C274 O276 1.263 . S
O275 Co272 1.973 1_655 S
O275 C274 1.258 . S
O276 Co273 1.966 1_655 S
O276 C274 1.263 . S
C277 O278 1.235 . S
C277 O304 1.289 1_655 S
O278 C277 1.235 . S
C279 C281 1.400 . S
C279 N282 1.351 1_655 S
C279 C284 1.501 . S
C280 C281 1.387 1_455 S
C280 N283 1.341 . S
C281 C279 1.400 . S
C281 C280 1.387 1_655 S
N282 Co273 2.022 . S
N282 C279 1.351 1_455 S
N282 N283 1.365 . S
N283 C280 1.341 . S
N283 N282 1.365 . S
N283 H303 0.862 . S
C284 C279 1.501 . S
C284 H285 0.961 . S
C284 H286 0.961 . S
C284 H287 0.960 . S
H285 C284 0.961 . S
H286 C284 0.961 . S
H287 C284 0.960 . S
C288 N289 1.342 . S
C288 C292 1.401 . S
C288 C293 1.499 . S
N289 Co272 1.988 . S
N289 C288 1.342 . S
N289 N290 1.388 . S
N290 Co273 1.993 . S
N290 N289 1.388 . S
N290 C291 1.346 . S
C291 N290 1.346 . S
C291 C292 1.396 . S
C291 C301 1.510 . S
C292 C288 1.401 . S
C292 C291 1.396 . S
C293 C288 1.499 . S
C293 H294 0.959 . S
C293 H295 0.960 . S
C293 H296 0.961 . S
H294 C293 0.959 . S
H295 C293 0.960 . S
H296 C293 0.961 . S
O297 Co272 1.965 . S
O297 C305 1.258 . S
O298 Co273 1.941 . S
O298 C305 1.266 . S
H299 C301 0.959 . S
H300 C301 0.961 . S
C301 C291 1.510 . S
C301 H299 0.959 . S
C301 H300 0.961 . S
C301 H302 0.960 . S
H302 C301 0.960 . S
H303 N283 0.862 . S
O304 Co272 1.920 . S
O304 C277 1.289 1_455 S
C305 O297 1.258 . S
C305 O298 1.266 . S
Co306 O309 1.945 1_545 S
Co306 N323 1.999 . S
Co306 O331 1.980 . S
Co306 O338 1.925 . S
Co307 O310 1.966 1_545 S
Co307 N316 2.022 . S
Co307 N324 1.993 . S
Co307 O332 1.941 . S
C308 O309 1.258 . S
C308 O310 1.263 . S
O309 Co306 1.945 1_565 S
O309 C308 1.258 . S
O310 Co307 1.966 1_565 S
O310 C308 1.263 . S
C311 O312 1.235 . S
C311 O338 1.289 1_565 S
O312 C311 1.235 . S
C313 C315 1.400 . S
C313 N316 1.351 1_565 S
C313 C318 1.501 . S
C314 C315 1.387 1_545 S
C314 N317 1.341 . S
C315 C313 1.400 . S
C315 C314 1.387 1_565 S
N316 Co307 2.022 . S
N316 C313 1.351 1_545 S
N316 N317 1.365 . S
N317 C314 1.341 . S
N317 N316 1.365 . S
N317 H337 0.862 . S
C318 C313 1.501 . S
C318 H319 0.961 . S
C318 H320 0.961 . S
C318 H321 0.960 . S
H319 C318 0.961 . S
H320 C318 0.961 . S
H321 C318 0.960 . S
C322 N323 1.342 . S
C322 C326 1.401 . S
C322 C327 1.499 . S
N323 Co306 1.999 . S
N323 C322 1.342 . S
N323 N324 1.388 . S
N324 Co307 1.993 . S
N324 N323 1.388 . S
N324 C325 1.346 . S
C325 N324 1.346 . S
C325 C326 1.396 . S
C325 C335 1.510 . S
C326 C322 1.401 . S
C326 C325 1.396 . S
C327 C322 1.499 . S
C327 H328 0.959 . S
C327 H329 0.960 . S
C327 H330 0.961 . S
H328 C327 0.959 . S
H329 C327 0.960 . S
H330 C327 0.961 . S
O331 Co306 1.980 . S
O331 C339 1.258 . S
O332 Co307 1.941 . S
O332 C339 1.266 . S
H333 C335 0.959 . S
H334 C335 0.961 . S
C335 C325 1.510 . S
C335 H333 0.959 . S
C335 H334 0.961 . S
C335 H336 0.960 . S
H336 C335 0.960 . S
H337 N317 0.862 . S
O338 Co306 1.925 . S
O338 C311 1.289 1_545 S
C339 O331 1.258 . S
C339 O332 1.266 . S
Co340 O343 1.970 . S
Co340 N357 1.989 . S
Co340 O365 1.967 . S
Co340 O372 1.920 . S
Co341 O344 1.966 . S
Co341 N350 2.022 . S
Co341 N358 1.993 . S
Co341 O366 1.941 . S
C342 O343 1.258 . S
C342 O344 1.263 . S
O343 Co340 1.970 . S
O343 C342 1.258 . S
O344 Co341 1.966 . S
O344 C342 1.263 . S
C345 O346 1.235 . S
C345 O372 1.289 . S
O346 C345 1.235 . S
C347 C349 1.400 . S
C347 N350 1.351 . S
C347 C352 1.501 . S
C348 C349 1.387 . S
C348 N351 1.341 . S
C349 C347 1.400 . S
C349 C348 1.387 . S
N350 Co341 2.022 . S
N350 C347 1.351 . S
N350 N351 1.365 . S
N351 C348 1.341 . S
N351 N350 1.365 . S
N351 H371 0.862 . S
C352 C347 1.501 . S
C352 H353 0.961 . S
C352 H354 0.961 . S
C352 H355 0.960 . S
H353 C352 0.961 . S
H354 C352 0.961 . S
H355 C352 0.960 . S
C356 N357 1.342 . S
C356 C360 1.401 . S
C356 C361 1.499 . S
N357 Co340 1.989 . S
N357 C356 1.342 . S
N357 N358 1.388 . S
N358 Co341 1.993 . S
N358 N357 1.388 . S
N358 C359 1.346 . S
C359 N358 1.346 . S
C359 C360 1.396 . S
C359 C369 1.510 . S
C360 C356 1.401 . S
C360 C359 1.396 . S
C361 C356 1.499 . S
C361 H362 0.959 . S
C361 H363 0.960 . S
C361 H364 0.961 . S
H362 C361 0.959 . S
H363 C361 0.960 . S
H364 C361 0.961 . S
O365 Co340 1.967 . S
O365 C373 1.258 . S
O366 Co341 1.941 . S
O366 C373 1.266 . S
H367 C369 0.959 . S
H368 C369 0.961 . S
C369 C359 1.510 . S
C369 H367 0.959 . S
C369 H368 0.961 . S
C369 H370 0.960 . S
H370 C369 0.960 . S
H371 N351 0.862 . S
O372 Co340 1.920 . S
O372 C345 1.289 . S
C373 O365 1.258 . S
C373 O366 1.266 . S
Co374 O377 1.970 . S
Co374 N391 1.989 . S
Co374 O399 1.967 . S
Co374 O406 1.920 . S
Co375 O378 1.966 . S
Co375 N384 2.022 . S
Co375 N392 1.993 . S
Co375 O400 1.941 . S
C376 O377 1.258 . S
C376 O378 1.263 . S
O377 Co374 1.970 . S
O377 C376 1.258 . S
O378 Co375 1.966 . S
O378 C376 1.263 . S
C379 O380 1.235 . S
C379 O406 1.289 . S
O380 C379 1.235 . S
C381 C383 1.400 . S
C381 N384 1.351 . S
C381 C386 1.501 . S
C382 C383 1.387 . S
C382 N385 1.341 . S
C383 C381 1.400 . S
C383 C382 1.387 . S
N384 Co375 2.022 . S
N384 C381 1.351 . S
N384 N385 1.365 . S
N385 C382 1.341 . S
N385 N384 1.365 . S
N385 H405 0.862 . S
C386 C381 1.501 . S
C386 H387 0.961 . S
C386 H388 0.961 . S
C386 H389 0.960 . S
H387 C386 0.961 . S
H388 C386 0.961 . S
H389 C386 0.960 . S
C390 N391 1.342 . S
C390 C394 1.401 . S
C390 C395 1.499 . S
N391 Co374 1.989 . S
N391 C390 1.342 . S
N391 N392 1.388 . S
N392 Co375 1.993 . S
N392 N391 1.388 . S
N392 C393 1.346 . S
C393 N392 1.346 . S
C393 C394 1.396 . S
C393 C403 1.510 . S
C394 C390 1.401 . S
C394 C393 1.396 . S
C395 C390 1.499 . S
C395 H396 0.959 . S
C395 H397 0.960 . S
C395 H398 0.961 . S
H396 C395 0.959 . S
H397 C395 0.960 . S
H398 C395 0.961 . S
O399 Co374 1.967 . S
O399 C407 1.258 . S
O400 Co375 1.941 . S
O400 C407 1.266 . S
H401 C403 0.959 . S
H402 C403 0.961 . S
C403 C393 1.510 . S
C403 H401 0.959 . S
C403 H402 0.961 . S
C403 H404 0.960 . S
H404 C403 0.960 . S
H405 N385 0.862 . S
O406 Co374 1.920 . S
O406 C379 1.289 . S
C407 O399 1.258 . S
C407 O400 1.266 . S
Co408 O411 1.945 1_455 S
Co408 N425 1.999 . S
Co408 O433 1.980 . S
Co408 O440 1.925 . S
Co409 O412 1.966 1_455 S
Co409 N418 2.022 . S
Co409 N426 1.993 . S
Co409 O434 1.941 . S
C410 O411 1.258 . S
C410 O412 1.263 . S
O411 Co408 1.945 1_655 S
O411 C410 1.258 . S
O412 Co409 1.966 1_655 S
O412 C410 1.263 . S
C413 O414 1.235 . S
C413 O440 1.289 1_655 S
O414 C413 1.235 . S
C415 C417 1.400 . S
C415 N418 1.351 1_655 S
C415 C420 1.501 . S
C416 C417 1.387 1_455 S
C416 N419 1.341 . S
C417 C415 1.400 . S
C417 C416 1.387 1_655 S
N418 Co409 2.022 . S
N418 C415 1.351 1_455 S
N418 N419 1.365 . S
N419 C416 1.341 . S
N419 N418 1.365 . S
N419 H439 0.862 . S
C420 C415 1.501 . S
C420 H421 0.961 . S
C420 H422 0.961 . S
C420 H423 0.960 . S
H421 C420 0.961 . S
H422 C420 0.961 . S
H423 C420 0.960 . S
C424 N425 1.342 . S
C424 C428 1.401 . S
C424 C429 1.499 . S
N425 Co408 1.999 . S
N425 C424 1.342 . S
N425 N426 1.388 . S
N426 Co409 1.993 . S
N426 N425 1.388 . S
N426 C427 1.346 . S
C427 N426 1.346 . S
C427 C428 1.396 . S
C427 C437 1.510 . S
C428 C424 1.401 . S
C428 C427 1.396 . S
C429 C424 1.499 . S
C429 H430 0.959 . S
C429 H431 0.960 . S
C429 H432 0.961 . S
H430 C429 0.959 . S
H431 C429 0.960 . S
H432 C429 0.961 . S
O433 Co408 1.980 . S
O433 C441 1.258 . S
O434 Co409 1.941 . S
O434 C441 1.266 . S
H435 C437 0.959 . S
H436 C437 0.961 . S
C437 C427 1.510 . S
C437 H435 0.959 . S
C437 H436 0.961 . S
C437 H438 0.960 . S
H438 C437 0.960 . S
H439 N419 0.862 . S
O440 Co408 1.925 . S
O440 C413 1.289 1_455 S
C441 O433 1.258 . S
C441 O434 1.266 . S
Co442 O445 1.973 1_545 S
Co442 N459 1.988 . S
Co442 O467 1.965 . S
Co442 O474 1.920 . S
Co443 O446 1.966 1_545 S
Co443 N452 2.022 . S
Co443 N460 1.993 . S
Co443 O468 1.941 . S
C444 O445 1.258 . S
C444 O446 1.263 . S
O445 Co442 1.973 1_565 S
O445 C444 1.258 . S
O446 Co443 1.966 1_565 S
O446 C444 1.263 . S
C447 O448 1.235 . S
C447 O474 1.289 1_565 S
O448 C447 1.235 . S
C449 C451 1.400 . S
C449 N452 1.351 1_565 S
C449 C454 1.501 . S
C450 C451 1.387 1_545 S
C450 N453 1.341 . S
C451 C449 1.400 . S
C451 C450 1.387 1_565 S
N452 Co443 2.022 . S
N452 C449 1.351 1_545 S
N452 N453 1.365 . S
N453 C450 1.341 . S
N453 N452 1.365 . S
N453 H473 0.862 . S
C454 C449 1.501 . S
C454 H455 0.961 . S
C454 H456 0.961 . S
C454 H457 0.960 . S
H455 C454 0.961 . S
H456 C454 0.961 . S
H457 C454 0.960 . S
C458 N459 1.342 . S
C458 C462 1.401 . S
C458 C463 1.499 . S
N459 Co442 1.988 . S
N459 C458 1.342 . S
N459 N460 1.388 . S
N460 Co443 1.993 . S
N460 N459 1.388 . S
N460 C461 1.346 . S
C461 N460 1.346 . S
C461 C462 1.396 . S
C461 C471 1.510 . S
C462 C458 1.401 . S
C462 C461 1.396 . S
C463 C458 1.499 . S
C463 H464 0.959 . S
C463 H465 0.960 . S
C463 H466 0.961 . S
H464 C463 0.959 . S
H465 C463 0.960 . S
H466 C463 0.961 . S
O467 Co442 1.965 . S
O467 C475 1.258 . S
O468 Co443 1.941 . S
O468 C475 1.266 . S
H469 C471 0.959 . S
H470 C471 0.961 . S
C471 C461 1.510 . S
C471 H469 0.959 . S
C471 H470 0.961 . S
C471 H472 0.960 . S
H472 C471 0.960 . S
H473 N453 0.862 . S
O474 Co442 1.920 . S
O474 C447 1.289 1_545 S
C475 O467 1.258 . S
C475 O468 1.266 . S
Co476 O479 1.970 . S
Co476 N493 1.989 . S
Co476 O501 1.967 . S
Co476 O508 1.920 . S
Co477 O480 1.966 . S
Co477 N486 2.022 . S
Co477 N494 1.993 . S
Co477 O502 1.941 . S
C478 O479 1.258 . S
C478 O480 1.263 . S
O479 Co476 1.970 . S
O479 C478 1.258 . S
O480 Co477 1.966 . S
O480 C478 1.263 . S
C481 O482 1.235 . S
C481 O508 1.289 . S
O482 C481 1.235 . S
C483 C485 1.400 . S
C483 N486 1.351 . S
C483 C488 1.501 . S
C484 C485 1.387 . S
C484 N487 1.341 . S
C485 C483 1.400 . S
C485 C484 1.387 . S
N486 Co477 2.022 . S
N486 C483 1.351 . S
N486 N487 1.365 . S
N487 C484 1.341 . S
N487 N486 1.365 . S
N487 H507 0.862 . S
C488 C483 1.501 . S
C488 H489 0.961 . S
C488 H490 0.961 . S
C488 H491 0.960 . S
H489 C488 0.961 . S
H490 C488 0.961 . S
H491 C488 0.960 . S
C492 N493 1.342 . S
C492 C496 1.401 . S
C492 C497 1.499 . S
N493 Co476 1.989 . S
N493 C492 1.342 . S
N493 N494 1.388 . S
N494 Co477 1.993 . S
N494 N493 1.388 . S
N494 C495 1.346 . S
C495 N494 1.346 . S
C495 C496 1.396 . S
C495 C505 1.510 . S
C496 C492 1.401 . S
C496 C495 1.396 . S
C497 C492 1.499 . S
C497 H498 0.959 . S
C497 H499 0.960 . S
C497 H500 0.961 . S
H498 C497 0.959 . S
H499 C497 0.960 . S
H500 C497 0.961 . S
O501 Co476 1.967 . S
O501 C509 1.258 . S
O502 Co477 1.941 . S
O502 C509 1.266 . S
H503 C505 0.959 . S
H504 C505 0.961 . S
C505 C495 1.510 . S
C505 H503 0.959 . S
C505 H504 0.961 . S
C505 H506 0.960 . S
H506 C505 0.960 . S
H507 N487 0.862 . S
O508 Co476 1.920 . S
O508 C481 1.289 . S
C509 O501 1.258 . S
C509 O502 1.266 . S
Co510 O513 1.970 . S
Co510 N527 1.989 . S
Co510 O535 1.967 . S
Co510 O542 1.920 . S
Co511 O514 1.966 . S
Co511 N520 2.022 . S
Co511 N528 1.993 . S
Co511 O536 1.941 . S
C512 O513 1.258 . S
C512 O514 1.263 . S
O513 Co510 1.970 . S
O513 C512 1.258 . S
O514 Co511 1.966 . S
O514 C512 1.263 . S
C515 O516 1.235 . S
C515 O542 1.289 . S
O516 C515 1.235 . S
C517 C519 1.400 . S
C517 N520 1.351 . S
C517 C522 1.501 . S
C518 C519 1.387 . S
C518 N521 1.341 . S
C519 C517 1.400 . S
C519 C518 1.387 . S
N520 Co511 2.022 . S
N520 C517 1.351 . S
N520 N521 1.365 . S
N521 C518 1.341 . S
N521 N520 1.365 . S
N521 H541 0.862 . S
C522 C517 1.501 . S
C522 H523 0.961 . S
C522 H524 0.961 . S
C522 H525 0.960 . S
H523 C522 0.961 . S
H524 C522 0.961 . S
H525 C522 0.960 . S
C526 N527 1.342 . S
C526 C530 1.401 . S
C526 C531 1.499 . S
N527 Co510 1.989 . S
N527 C526 1.342 . S
N527 N528 1.388 . S
N528 Co511 1.993 . S
N528 N527 1.388 . S
N528 C529 1.346 . S
C529 N528 1.346 . S
C529 C530 1.396 . S
C529 C539 1.510 . S
C530 C526 1.401 . S
C530 C529 1.396 . S
C531 C526 1.499 . S
C531 H532 0.959 . S
C531 H533 0.960 . S
C531 H534 0.961 . S
H532 C531 0.959 . S
H533 C531 0.960 . S
H534 C531 0.961 . S
O535 Co510 1.967 . S
O535 C543 1.258 . S
O536 Co511 1.941 . S
O536 C543 1.266 . S
H537 C539 0.959 . S
H538 C539 0.961 . S
C539 C529 1.510 . S
C539 H537 0.959 . S
C539 H538 0.961 . S
C539 H540 0.960 . S
H540 C539 0.960 . S
H541 N521 0.862 . S
O542 Co510 1.920 . S
O542 C515 1.289 . S
C543 O535 1.258 . S
C543 O536 1.266 . S
C544 C545 1.349 . S
C544 C546 1.327 . S
C544 H569 0.950 . S
C545 C544 1.349 . S
C545 C561 1.349 1_455 S
C546 C544 1.327 . S
C546 C565 1.429 . S
C546 H570 0.950 . S
C547 C564 1.574 . S
C547 C566 1.368 . S
C547 H571 0.949 . S
H548 C552 0.949 . S
C549 C550 1.349 . S
C549 C551 1.327 . S
C549 H572 0.950 . S
C550 C549 1.349 . S
C550 C562 1.349 1_545 S
C551 C549 1.327 . S
C551 C567 1.429 . S
C551 H573 0.950 . S
C552 H548 0.949 . S
C552 C560 1.574 . S
C552 C568 1.368 . S
H553 C561 0.950 . S
H554 C559 0.950 1_655 S
H555 C560 0.949 . S
H556 C562 0.950 . S
H557 C563 0.950 1_565 S
H558 C564 0.949 . S
C559 H554 0.950 1_455 S
C559 C561 1.327 1_455 S
C559 C565 1.429 . S
C560 C552 1.574 . S
C560 H555 0.949 . S
C560 C566 1.368 . S
C561 C545 1.349 1_655 S
C561 H553 0.950 . S
C561 C559 1.327 1_655 S
C562 C550 1.349 1_565 S
C562 H556 0.950 . S
C562 C563 1.327 1_565 S
C563 H557 0.950 1_545 S
C563 C562 1.327 1_545 S
C563 C567 1.429 . S
C564 C547 1.574 . S
C564 H558 0.949 . S
C564 C568 1.368 . S
C565 C546 1.429 . S
C565 C559 1.429 . S
C565 C566 1.523 . S
C566 C547 1.368 . S
C566 C560 1.368 . S
C566 C565 1.523 . S
C567 C551 1.429 . S
C567 C563 1.429 . S
C567 C568 1.523 . S
C568 C552 1.368 . S
C568 C564 1.368 . S
C568 C567 1.523 . S
H569 C544 0.950 . S
H570 C546 0.950 . S
H571 C547 0.949 . S
H572 C549 0.950 . S
H573 C551 0.950 . S
C574 C575 1.349 1_565 S
C574 C576 1.327 . S
C574 H599 0.950 . S
C575 C574 1.349 1_545 S
C575 C591 1.349 . S
C576 C574 1.327 . S
C576 C595 1.429 1_565 S
C576 H600 0.950 . S
C577 C594 1.574 . S
C577 C596 1.368 . S
C577 H601 0.949 . S
H578 C582 0.949 . S
C579 C580 1.349 . S
C579 C581 1.327 . S
C579 H602 0.950 . S
C580 C579 1.349 . S
C580 C592 1.349 . S
C581 C579 1.327 . S
C581 C597 1.429 . S
C581 H603 0.950 . S
C582 H578 0.949 . S
C582 C590 1.574 . S
C582 C598 1.368 . S
H583 C591 0.950 . S
H584 C589 0.950 . S
H585 C590 0.939 1_565 S
H586 C592 0.950 . S
H587 C593 0.950 . S
H588 C594 0.949 . S
C589 H584 0.950 . S
C589 C591 1.327 . S
C589 C595 1.429 . S
C590 C582 1.574 . S
C590 H585 0.939 1_545 S
C590 C596 1.368 . S
C591 C575 1.349 . S
C591 H583 0.950 . S
C591 C589 1.327 . S
C592 C580 1.349 . S
C592 H586 0.950 . S
C592 C593 1.327 . S
C593 H587 0.950 . S
C593 C592 1.327 . S
C593 C597 1.429 . S
C594 C577 1.574 . S
C594 H588 0.949 . S
C594 C598 1.368 . S
C595 C576 1.429 1_545 S
C595 C589 1.429 . S
C595 C596 1.523 . S
C596 C577 1.368 . S
C596 C590 1.368 . S
C596 C595 1.523 . S
C597 C581 1.429 . S
C597 C593 1.429 . S
C597 C598 1.523 . S
C598 C582 1.368 . S
C598 C594 1.368 . S
C598 C597 1.523 . S
H599 C574 0.950 . S
H600 C576 0.950 . S
H601 C577 0.949 . S
H602 C579 0.950 . S
H603 C581 0.950 . S
C604 C605 1.349 . S
C604 C606 1.327 . S
C604 H629 0.950 . S
C605 C604 1.349 . S
C605 C621 1.349 . S
C606 C604 1.327 . S
C606 C625 1.429 . S
C606 H630 0.950 . S
C607 C624 1.574 . S
C607 C626 1.368 . S
C607 H631 0.949 . S
H608 C612 0.949 . S
C609 C610 1.349 . S
C609 C611 1.327 . S
C609 H632 0.950 . S
C610 C609 1.349 . S
C610 C622 1.349 . S
C611 C609 1.327 . S
C611 C627 1.429 . S
C611 H633 0.950 . S
C612 H608 0.949 . S
C612 C620 1.574 . S
C612 C628 1.368 . S
H613 C621 0.950 . S
H614 C619 0.950 . S
H615 C620 0.949 . S
H616 C622 0.950 . S
H617 C623 0.950 . S
H618 C624 0.949 . S
C619 H614 0.950 . S
C619 C621 1.327 . S
C619 C625 1.429 . S
C620 C612 1.574 . S
C620 H615 0.949 . S
C620 C626 1.368 . S
C621 C605 1.349 . S
C621 H613 0.950 . S
C621 C619 1.327 . S
C622 C610 1.349 . S
C622 H616 0.950 . S
C622 C623 1.327 . S
C623 H617 0.950 . S
C623 C622 1.327 . S
C623 C627 1.429 . S
C624 C607 1.574 . S
C624 H618 0.949 . S
C624 C628 1.368 . S
C625 C606 1.429 . S
C625 C619 1.429 . S
C625 C626 1.523 . S
C626 C607 1.368 . S
C626 C620 1.368 . S
C626 C625 1.523 . S
C627 C611 1.429 . S
C627 C623 1.429 . S
C627 C628 1.523 . S
C628 C612 1.368 . S
C628 C624 1.368 . S
C628 C627 1.523 . S
H629 C604 0.950 . S
H630 C606 0.950 . S
H631 C607 0.949 . S
H632 C609 0.950 . S
H633 C611 0.950 . S
C634 C635 1.349 . S
C634 C636 1.327 . S
C634 H659 0.950 . S
C635 C634 1.349 . S
C635 C651 1.349 . S
C636 C634 1.327 . S
C636 C655 1.429 . S
C636 H660 0.950 . S
C637 C654 1.574 . S
C637 C656 1.368 . S
C637 H661 0.949 . S
H638 C642 0.949 . S
C639 C640 1.349 . S
C639 C641 1.327 . S
C639 H662 0.950 . S
C640 C639 1.349 . S
C640 C652 1.349 . S
C641 C639 1.327 . S
C641 C657 1.429 . S
C641 H663 0.950 . S
C642 H638 0.949 . S
C642 C650 1.574 . S
C642 C658 1.368 . S
H643 C651 0.945 1_655 S
H644 C649 0.950 . S
H645 C650 0.949 . S
H646 C652 0.950 . S
H647 C653 0.950 . S
H648 C654 0.949 . S
C649 H644 0.950 . S
C649 C651 1.327 . S
C649 C655 1.429 . S
C650 C642 1.574 . S
C650 H645 0.949 . S
C650 C656 1.368 . S
C651 C635 1.349 . S
C651 H643 0.945 1_455 S
C651 C649 1.327 . S
C652 C640 1.349 . S
C652 H646 0.950 . S
C652 C653 1.327 . S
C653 H647 0.950 . S
C653 C652 1.327 . S
C653 C657 1.429 . S
C654 C637 1.574 . S
C654 H648 0.949 . S
C654 C658 1.368 . S
C655 C636 1.429 . S
C655 C649 1.429 . S
C655 C656 1.523 . S
C656 C637 1.368 . S
C656 C650 1.368 . S
C656 C655 1.523 . S
C657 C641 1.429 . S
C657 C653 1.429 . S
C657 C658 1.523 . S
C658 C642 1.368 . S
C658 C654 1.368 . S
C658 C657 1.523 . S
H659 C634 0.950 . S
H660 C636 0.950 . S
H661 C637 0.949 . S
H662 C639 0.950 . S
H663 C641 0.950 . S
C664 C665 1.349 . S
C664 C666 1.327 . S
C664 H689 0.950 . S
C665 C664 1.349 . S
C665 C681 1.349 1_655 S
C666 C664 1.327 . S
C666 C685 1.429 . S
C666 H690 0.950 . S
C667 C684 1.574 . S
C667 C686 1.368 . S
C667 H691 0.949 . S
H668 C672 0.949 . S
C669 C670 1.349 1_545 S
C669 C671 1.327 1_545 S
C669 H692 0.950 . S
C670 C669 1.349 1_565 S
C670 C682 1.349 . S
C671 C669 1.327 1_565 S
C671 C687 1.429 . S
C671 H693 0.950 . S
C672 H668 0.949 . S
C672 C680 1.574 . S
C672 C688 1.368 . S
H673 C681 0.950 . S
H674 C679 0.977 . S
H675 C680 0.949 . S
H676 C682 0.950 . S
H677 C683 0.950 . S
H678 C684 0.949 . S
C679 H674 0.977 . S
C679 C681 1.344 . S
C679 C685 1.387 1_455 S
C680 C672 1.574 . S
C680 H675 0.949 . S
C680 C686 1.368 . S
C681 C665 1.349 1_455 S
C681 H673 0.950 . S
C681 C679 1.344 . S
C682 C670 1.349 . S
C682 H676 0.950 . S
C682 C683 1.327 . S
C683 H677 0.950 . S
C683 C682 1.327 . S
C683 C687 1.429 . S
C684 C667 1.574 . S
C684 H678 0.949 . S
C684 C688 1.368 . S
C685 C666 1.429 . S
C685 C679 1.387 1_655 S
C685 C686 1.523 . S
C686 C667 1.368 . S
C686 C680 1.368 . S
C686 C685 1.523 . S
C687 C671 1.429 . S
C687 C683 1.429 . S
C687 C688 1.523 . S
C688 C672 1.368 . S
C688 C684 1.368 . S
C688 C687 1.523 . S
H689 C664 0.950 . S
H690 C666 0.950 . S
H691 C667 0.949 . S
H692 C669 0.950 . S
H693 C671 0.950 . S
C694 C695 1.349 . S
C694 C696 1.327 . S
C694 H719 0.950 . S
C695 C694 1.349 . S
C695 C711 1.349 1_565 S
C696 C694 1.327 . S
C696 C715 1.429 . S
C696 H720 0.950 . S
C697 C714 1.574 . S
C697 C716 1.368 . S
C697 H721 0.949 . S
H698 C702 0.949 . S
C699 C700 1.349 . S
C699 C701 1.327 . S
C699 H722 0.950 . S
C700 C699 1.349 . S
C700 C712 1.349 . S
C701 C699 1.327 . S
C701 C717 1.429 . S
C701 H723 0.950 . S
C702 H698 0.949 . S
C702 C710 1.574 . S
C702 C718 1.368 . S
H703 C711 0.950 . S
H704 C709 0.950 . S
H705 C710 0.949 . S
H706 C712 0.950 . S
H707 C713 0.950 . S
H708 C714 0.949 . S
C709 H704 0.950 . S
C709 C711 1.327 . S
C709 C715 1.429 1_545 S
C710 C702 1.574 . S
C710 H705 0.949 . S
C710 C716 1.368 . S
C711 C695 1.349 1_545 S
C711 H703 0.950 . S
C711 C709 1.327 . S
C712 C700 1.349 . S
C712 H706 0.950 . S
C712 C713 1.327 . S
C713 H707 0.950 . S
C713 C712 1.327 . S
C713 C717 1.429 . S
C714 C697 1.574 . S
C714 H708 0.949 . S
C714 C718 1.368 . S
C715 C696 1.429 . S
C715 C709 1.429 1_565 S
C715 C716 1.523 . S
C716 C697 1.368 . S
C716 C710 1.368 . S
C716 C715 1.523 . S
C717 C701 1.429 . S
C717 C713 1.429 . S
C717 C718 1.523 . S
C718 C702 1.368 . S
C718 C714 1.368 . S
C718 C717 1.523 . S
H719 C694 0.950 . S
H720 C696 0.950 . S
H721 C697 0.949 . S
H722 C699 0.950 . S
H723 C701 0.950 . S
C724 C725 1.349 . S
C724 C726 1.327 . S
C724 H749 0.950 . S
C725 C724 1.349 . S
C725 C741 1.349 . S
C726 C724 1.327 . S
C726 C745 1.429 . S
C726 H750 0.950 . S
C727 C744 1.574 . S
C727 C746 1.368 . S
C727 H751 0.949 . S
H728 C732 0.949 . S
C729 C730 1.349 . S
C729 C731 1.327 . S
C729 H752 0.950 . S
C730 C729 1.349 . S
C730 C742 1.349 . S
C731 C729 1.327 . S
C731 C747 1.429 . S
C731 H753 0.950 . S
C732 H728 0.949 . S
C732 C740 1.574 . S
C732 C748 1.368 . S
H733 C741 0.950 . S
H734 C739 0.950 . S
H735 C740 0.949 . S
H736 C742 0.950 . S
H737 C743 0.950 . S
H738 C744 0.949 . S
C739 H734 0.950 . S
C739 C741 1.327 . S
C739 C745 1.429 . S
C740 C732 1.574 . S
C740 H735 0.949 . S
C740 C746 1.368 . S
C741 C725 1.349 . S
C741 H733 0.950 . S
C741 C739 1.327 . S
C742 C730 1.349 . S
C742 H736 0.950 . S
C742 C743 1.327 . S
C743 H737 0.950 . S
C743 C742 1.327 . S
C743 C747 1.429 . S
C744 C727 1.574 . S
C744 H738 0.949 . S
C744 C748 1.368 . S
C745 C726 1.429 . S
C745 C739 1.429 . S
C745 C746 1.523 . S
C746 C727 1.368 . S
C746 C740 1.368 . S
C746 C745 1.523 . S
C747 C731 1.429 . S
C747 C743 1.429 . S
C747 C748 1.523 . S
C748 C732 1.368 . S
C748 C744 1.368 . S
C748 C747 1.523 . S
H749 C724 0.950 . S
H750 C726 0.950 . S
H751 C727 0.949 . S
H752 C729 0.950 . S
H753 C731 0.950 . S
C754 C755 1.349 . S
C754 C756 1.327 . S
C754 H779 0.950 . S
C755 C754 1.349 . S
C755 C771 1.349 . S
C756 C754 1.327 . S
C756 C775 1.429 . S
C756 H780 0.950 . S
C757 C774 1.574 . S
C757 C776 1.368 . S
C757 H781 0.949 . S
H758 C762 0.949 . S
C759 C760 1.349 . S
C759 C761 1.327 . S
C759 H782 0.950 . S
C760 C759 1.349 . S
C760 C772 1.349 1_655 S
C761 C759 1.327 . S
C761 C777 1.429 . S
C761 H783 0.950 . S
C762 H758 0.949 . S
C762 C770 1.574 . S
C762 C778 1.368 . S
H763 C771 0.950 . S
H764 C769 0.950 . S
H765 C770 0.949 . S
H766 C772 0.950 . S
H767 C773 0.941 1_455 S
H768 C774 0.949 . S
C769 H764 0.950 . S
C769 C771 1.327 . S
C769 C775 1.429 . S
C770 C762 1.574 . S
C770 H765 0.949 . S
C770 C776 1.368 . S
C771 C755 1.349 . S
C771 H763 0.950 . S
C771 C769 1.327 . S
C772 C760 1.349 1_455 S
C772 H766 0.950 . S
C772 C773 1.327 1_455 S
C773 H767 0.941 1_655 S
C773 C772 1.327 1_655 S
C773 C777 1.429 . S
C774 C757 1.574 . S
C774 H768 0.949 . S
C774 C778 1.368 . S
C775 C756 1.429 . S
C775 C769 1.429 . S
C775 C776 1.523 . S
C776 C757 1.368 . S
C776 C770 1.368 . S
C776 C775 1.523 . S
C777 C761 1.429 . S
C777 C773 1.429 . S
C777 C778 1.523 . S
C778 C762 1.368 . S
C778 C774 1.368 . S
C778 C777 1.523 . S
H779 C754 0.950 . S
H780 C756 0.950 . S
H781 C757 0.949 . S
H782 C759 0.950 . S
H783 C761 0.950 . S
C784 C785 1.349 . S
C784 C786 1.327 . S
C784 H809 0.950 . S
C785 C784 1.349 . S
C785 C801 1.349 . S
C786 C784 1.327 . S
C786 C805 1.429 . S
C786 H810 0.941 1_455 S
C787 C804 1.574 1_565 S
C787 C806 1.368 . S
C787 H811 0.949 . S
H788 C792 0.949 . S
C789 C790 1.349 . S
C789 C791 1.327 . S
C789 H812 0.950 . S
C790 C789 1.349 . S
C790 C802 1.349 . S
C791 C789 1.327 . S
C791 C807 1.429 . S
C791 H813 0.947 1_655 S
C792 H788 0.949 . S
C792 C800 1.574 1_545 S
C792 C808 1.368 . S
H793 C801 0.950 . S
H794 C799 0.950 . S
H795 C800 0.949 . S
H796 C802 0.950 . S
H797 C803 0.950 . S
H798 C804 0.949 . S
C799 H794 0.950 . S
C799 C801 1.327 . S
C799 C805 1.429 . S
C800 C792 1.574 1_565 S
C800 H795 0.949 . S
C800 C806 1.368 1_655 S
C801 C785 1.349 . S
C801 H793 0.950 . S
C801 C799 1.327 . S
C802 C790 1.349 . S
C802 H796 0.950 . S
C802 C803 1.327 . S
C803 H797 0.950 . S
C803 C802 1.327 . S
C803 C807 1.429 . S
C804 C787 1.574 1_545 S
C804 H798 0.949 . S
C804 C808 1.368 1_455 S
C805 C786 1.429 . S
C805 C799 1.429 . S
C805 C806 1.523 . S
C806 C787 1.368 . S
C806 C800 1.368 1_455 S
C806 C805 1.523 . S
C807 C791 1.429 . S
C807 C803 1.429 . S
C807 C808 1.523 . S
C808 C792 1.368 . S
C808 C804 1.368 1_655 S
C808 C807 1.523 . S
H809 C784 0.950 . S
H810 C786 0.941 1_655 S
H811 C787 0.949 . S
H812 C789 0.950 . S
H813 C791 0.947 1_455 S
C814 C815 1.349 . S
C814 C816 1.341 . S
C814 H839 0.950 1_545 S
C815 C814 1.349 . S
C815 C831 1.349 . S
C816 C814 1.341 . S
C816 C835 1.452 . S
C816 H840 0.912 1_545 S
C817 C834 1.574 . S
C817 C836 1.368 . S
C817 H841 0.949 . S
H818 C822 0.949 . S
C819 C820 1.349 . S
C819 C821 1.327 . S
C819 H842 0.950 1_565 S
C820 C819 1.349 . S
C820 C832 1.349 . S
C821 C819 1.327 . S
C821 C837 1.429 . S
C821 H843 0.950 1_565 S
C822 H818 0.949 . S
C822 C830 1.574 . S
C822 C838 1.368 . S
H823 C831 0.950 . S
H824 C829 0.950 . S
H825 C830 0.949 . S
H826 C832 0.950 . S
H827 C833 0.950 . S
H828 C834 0.949 . S
C829 H824 0.950 . S
C829 C831 1.327 . S
C829 C835 1.429 . S
C830 C822 1.574 . S
C830 H825 0.949 . S
C830 C836 1.368 1_565 S
C831 C815 1.349 . S
C831 H823 0.950 . S
C831 C829 1.327 . S
C832 C820 1.349 . S
C832 H826 0.950 . S
C832 C833 1.327 . S
C833 H827 0.950 . S
C833 C832 1.327 . S
C833 C837 1.429 . S
C834 C817 1.574 . S
C834 H828 0.949 . S
C834 C838 1.368 1_545 S
C835 C816 1.452 . S
C835 C829 1.429 . S
C835 C836 1.523 . S
C836 C817 1.368 . S
C836 C830 1.368 1_545 S
C836 C835 1.523 . S
C837 C821 1.429 . S
C837 C833 1.429 . S
C837 C838 1.523 . S
C838 C822 1.368 . S
C838 C834 1.368 1_565 S
C838 C837 1.523 . S
H839 C814 0.950 1_565 S
H840 C816 0.912 1_565 S
H841 C817 0.949 . S
H842 C819 0.950 1_545 S
H843 C821 0.950 1_545 S
C844 C845 1.349 . S
C844 C846 1.327 . S
C844 H869 0.950 . S
C845 C844 1.349 . S
C845 C861 1.349 . S
C846 C844 1.327 . S
C846 C865 1.429 . S
C846 H870 0.950 . S
C847 C864 1.574 . S
C847 C866 1.368 . S
C847 H871 0.949 . S
H848 C852 0.949 . S
C849 C850 1.349 . S
C849 C851 1.327 . S
C849 H872 0.950 . S
C850 C849 1.349 . S
C850 C862 1.349 . S
C851 C849 1.327 . S
C851 C867 1.429 . S
C851 H873 0.950 . S
C852 H848 0.949 . S
C852 C860 1.574 . S
C852 C868 1.368 . S
H853 C861 0.950 . S
H854 C859 0.950 . S
H855 C860 0.949 . S
H856 C862 0.950 . S
H857 C863 0.950 . S
H858 C864 0.949 . S
C859 H854 0.950 . S
C859 C861 1.327 . S
C859 C865 1.429 . S
C860 C852 1.574 . S
C860 H855 0.949 . S
C860 C866 1.368 . S
C861 C845 1.349 . S
C861 H853 0.950 . S
C861 C859 1.327 . S
C862 C850 1.349 . S
C862 H856 0.950 . S
C862 C863 1.327 . S
C863 H857 0.950 . S
C863 C862 1.327 . S
C863 C867 1.429 . S
C864 C847 1.574 . S
C864 H858 0.949 . S
C864 C868 1.368 . S
C865 C846 1.429 . S
C865 C859 1.429 . S
C865 C866 1.523 . S
C866 C847 1.368 . S
C866 C860 1.368 . S
C866 C865 1.523 . S
C867 C851 1.429 . S
C867 C863 1.429 . S
C867 C868 1.523 . S
C868 C852 1.368 . S
C868 C864 1.368 . S
C868 C867 1.523 . S
H869 C844 0.950 . S
H870 C846 0.950 . S
H871 C847 0.949 . S
H872 C849 0.950 . S
H873 C851 0.950 . S
C874 C875 1.349 . S
C874 C876 1.327 . S
C874 H899 0.950 . S
C875 C874 1.349 . S
C875 C891 1.349 . S
C876 C874 1.327 . S
C876 C895 1.429 . S
C876 H900 0.950 . S
C877 C894 1.574 1_655 S
C877 C896 1.368 . S
C877 H901 0.949 . S
H878 C882 0.949 . S
C879 C880 1.349 . S
C879 C881 1.327 . S
C879 H902 0.950 . S
C880 C879 1.349 . S
C880 C892 1.349 . S
C881 C879 1.327 . S
C881 C897 1.429 . S
C881 H903 0.950 . S
C882 H878 0.949 . S
C882 C890 1.574 1_455 S
C882 C898 1.368 . S
H883 C891 0.950 . S
H884 C889 0.950 . S
H885 C890 0.949 . S
H886 C892 0.950 . S
H887 C893 0.950 . S
H888 C894 0.949 . S
C889 H884 0.950 . S
C889 C891 1.327 . S
C889 C895 1.429 . S
C890 C882 1.574 1_655 S
C890 H885 0.949 . S
C890 C896 1.368 . S
C891 C875 1.349 . S
C891 H883 0.950 . S
C891 C889 1.327 . S
C892 C880 1.349 . S
C892 H886 0.950 . S
C892 C893 1.327 . S
C893 H887 0.950 . S
C893 C892 1.327 . S
C893 C897 1.429 . S
C894 C877 1.574 1_455 S
C894 H888 0.949 . S
C894 C898 1.368 . S
C895 C876 1.429 . S
C895 C889 1.429 . S
C895 C896 1.523 . S
C896 C877 1.368 . S
C896 C890 1.368 . S
C896 C895 1.523 . S
C897 C881 1.429 . S
C897 C893 1.429 . S
C897 C898 1.523 . S
C898 C882 1.368 . S
C898 C894 1.368 . S
C898 C897 1.523 . S
H899 C874 0.950 . S
H900 C876 0.950 . S
H901 C877 0.949 . S
H902 C879 0.950 . S
H903 C881 0.950 . S
C904 C905 1.349 . S
C904 C906 1.327 . S
C904 H929 0.950 . S
C905 C904 1.349 . S
C905 C921 1.349 . S
C906 C904 1.327 . S
C906 C925 1.429 . S
C906 H930 0.969 1_655 S
C907 C924 1.574 . S
C907 C926 1.368 . S
C907 H931 0.949 . S
H908 C912 0.949 . S
C909 C910 1.349 . S
C909 C911 1.327 . S
C909 H932 0.950 . S
C910 C909 1.349 . S
C910 C922 1.349 . S
C911 C909 1.327 . S
C911 C927 1.429 . S
C911 H933 0.969 1_455 S
C912 H908 0.949 . S
C912 C920 1.574 . S
C912 C928 1.368 . S
H913 C921 0.950 . S
H914 C919 0.950 . S
H915 C920 0.949 . S
H916 C922 0.950 . S
H917 C923 0.950 . S
H918 C924 0.949 . S
C919 H914 0.950 . S
C919 C921 1.327 . S
C919 C925 1.429 . S
C920 C912 1.574 . S
C920 H915 0.949 . S
C920 C926 1.368 1_454 S
C921 C905 1.349 . S
C921 H913 0.950 . S
C921 C919 1.327 . S
C922 C910 1.349 . S
C922 H916 0.950 . S
C922 C923 1.327 . S
C923 H917 0.950 . S
C923 C922 1.327 . S
C923 C927 1.429 . S
C924 C907 1.574 . S
C924 H918 0.949 . S
C924 C928 1.368 1_656 S
C925 C906 1.429 . S
C925 C919 1.429 . S
C925 C926 1.523 . S
C926 C907 1.368 . S
C926 C920 1.368 1_656 S
C926 C925 1.523 . S
C927 C911 1.429 . S
C927 C923 1.429 . S
C927 C928 1.523 . S
C928 C912 1.368 . S
C928 C924 1.368 1_454 S
C928 C927 1.523 . S
H929 C904 0.950 . S
H930 C906 0.969 1_455 S
H931 C907 0.949 . S
H932 C909 0.950 . S
H933 C911 0.969 1_655 S
C934 C935 1.349 . S
C934 C936 1.327 . S
C934 H959 0.950 . S
C935 C934 1.349 . S
C935 C951 1.349 . S
C936 C934 1.327 . S
C936 C955 1.429 . S
C936 H960 0.950 . S
C937 C954 1.574 1_465 S
C937 C956 1.368 1_554 S
C937 H961 0.949 . S
H938 C942 0.949 . S
C939 C940 1.349 . S
C939 C941 1.327 . S
C939 H962 0.950 . S
C940 C939 1.349 . S
C940 C952 1.349 . S
C941 C939 1.327 . S
C941 C957 1.429 . S
C941 H963 0.950 . S
C942 H938 0.949 . S
C942 C950 1.574 1_645 S
C942 C958 1.368 1_556 S
H943 C951 0.950 1_554 S
H944 C949 0.950 . S
H945 C950 0.949 . S
H946 C952 0.950 1_556 S
H947 C953 0.950 . S
H948 C954 0.949 . S
C949 H944 0.950 . S
C949 C951 1.327 1_554 S
C949 C955 1.429 1_554 S
C950 C942 1.574 1_465 S
C950 H945 0.949 . S
C950 C956 1.368 . S
C951 C935 1.349 . S
C951 H943 0.950 1_556 S
C951 C949 1.327 1_556 S
C952 C940 1.349 . S
C952 H946 0.950 1_554 S
C952 C953 1.327 1_554 S
C953 H947 0.950 . S
C953 C952 1.327 1_556 S
C953 C957 1.429 1_556 S
C954 C937 1.574 1_645 S
C954 H948 0.949 . S
C954 C958 1.368 . S
C955 C936 1.429 . S
C955 C949 1.429 1_556 S
C955 C956 1.523 . S
C956 C937 1.368 1_556 S
C956 C950 1.368 . S
C956 C955 1.523 . S
C957 C941 1.429 . S
C957 C953 1.429 1_554 S
C957 C958 1.523 . S
C958 C942 1.368 1_554 S
C958 C954 1.368 . S
C958 C957 1.523 . S
H959 C934 0.950 . S
H960 C936 0.950 . S
H961 C937 0.949 . S
H962 C939 0.950 . S
H963 C941 0.950 . S
C964 C965 1.349 . S
C964 C966 1.327 . S
C964 H989 0.950 1_556 S
C965 C964 1.349 . S
C965 C981 1.349 . S
C966 C964 1.327 . S
C966 C985 1.429 . S
C966 H990 0.950 1_556 S
C967 C984 1.574 1_545 S
C967 C986 1.368 . S
C967 H991 0.949 . S
H968 C972 0.949 . S
C969 C970 1.349 . S
C969 C971 1.327 . S
C969 H992 0.950 1_554 S
C970 C969 1.349 . S
C970 C982 1.349 . S
C971 C969 1.327 . S
C971 C987 1.429 . S
C971 H993 0.950 1_554 S
C972 H968 0.949 . S
C972 C980 1.574 1_565 S
C972 C988 1.368 . S
H973 C981 0.950 . S
H974 C979 0.950 . S
H975 C980 0.949 . S
H976 C982 0.950 . S
H977 C983 0.950 . S
H978 C984 0.949 . S
C979 H974 0.950 . S
C979 C981 1.327 . S
C979 C985 1.429 . S
C980 C972 1.574 1_545 S
C980 H975 0.949 . S
C980 C986 1.368 1_554 S
C981 C965 1.349 . S
C981 H973 0.950 . S
C981 C979 1.327 . S
C982 C970 1.349 . S
C982 H976 0.950 . S
C982 C983 1.327 . S
C983 H977 0.950 . S
C983 C982 1.327 . S
C983 C987 1.429 . S
C984 C967 1.574 1_565 S
C984 H978 0.949 . S
C984 C988 1.368 1_556 S
C985 C966 1.429 . S
C985 C979 1.429 . S
C985 C986 1.523 . S
C986 C967 1.368 . S
C986 C980 1.368 1_556 S
C986 C985 1.523 . S
C987 C971 1.429 . S
C987 C983 1.429 . S
C987 C988 1.523 . S
C988 C972 1.368 . S
C988 C984 1.368 1_554 S
C988 C987 1.523 . S
H989 C964 0.950 1_554 S
H990 C966 0.950 1_554 S
H991 C967 0.949 . S
H992 C969 0.950 1_556 S
H993 C971 0.950 1_556 S
C994 C995 1.349 . S
C994 C996 1.327 . S
C994 H1019 0.950 . S
C995 C994 1.349 . S
C995 C1011 1.349 . S
C996 C994 1.327 . S
C996 C1015 1.429 . S
C996 H1020 0.950 . S
C997 C1014 1.574 . S
C997 C1016 1.368 . S
C997 H1021 0.949 . S
H998 C1002 0.949 . S
C999 C1000 1.349 . S
C999 C1001 1.327 . S
C999 H1022 0.950 . S
C1000 C999 1.349 . S
C1000 C1012 1.349 . S
C1001 C999 1.327 . S
C1001 C1017 1.429 . S
C1001 H1023 0.950 . S
C1002 H998 0.949 . S
C1002 C1010 1.574 . S
C1002 C1018 1.368 . S
H1003 C1011 0.950 . S
H1004 C1009 0.950 . S
H1005 C1010 0.949 . S
H1006 C1012 0.950 . S
H1007 C1013 0.950 . S
H1008 C1014 0.949 . S
C1009 H1004 0.950 . S
C1009 C1011 1.327 . S
C1009 C1015 1.429 . S
C1010 C1002 1.574 . S
C1010 H1005 0.949 . S
C1010 C1016 1.368 1_554 S
C1011 C995 1.349 . S
C1011 H1003 0.950 . S
C1011 C1009 1.327 . S
C1012 C1000 1.349 . S
C1012 H1006 0.950 . S
C1012 C1013 1.327 . S
C1013 H1007 0.950 . S
C1013 C1012 1.327 . S
C1013 C1017 1.429 . S
C1014 C997 1.574 . S
C1014 H1008 0.949 . S
C1014 C1018 1.368 1_556 S
C1015 C996 1.429 . S
C1015 C1009 1.429 . S
C1015 C1016 1.523 . S
C1016 C997 1.368 . S
C1016 C1010 1.368 1_556 S
C1016 C1015 1.523 . S
C1017 C1001 1.429 . S
C1017 C1013 1.429 . S
C1017 C1018 1.523 . S
C1018 C1002 1.368 . S
C1018 C1014 1.368 1_554 S
C1018 C1017 1.523 . S
H1019 C994 0.950 . S
H1020 C996 0.950 . S
H1021 C997 0.949 . S
H1022 C999 0.950 . S
H1023 C1001 0.950 . S
C1024 C1025 1.349 . S
C1024 C1026 1.327 . S
C1024 H1049 0.950 . S
C1025 C1024 1.349 . S
C1025 C1041 1.349 . S
C1026 C1024 1.327 . S
C1026 C1045 1.429 . S
C1026 H1050 0.950 . S
C1027 C1044 1.574 . S
C1027 C1046 1.368 . S
C1027 H1051 0.949 . S
H1028 C1032 0.949 . S
C1029 C1030 1.349 . S
C1029 C1031 1.327 . S
C1029 H1052 0.950 . S
C1030 C1029 1.349 . S
C1030 C1042 1.349 . S
C1031 C1029 1.327 . S
C1031 C1047 1.429 . S
C1031 H1053 0.950 . S
C1032 H1028 0.949 . S
C1032 C1040 1.574 . S
C1032 C1048 1.368 . S
H1033 C1041 0.950 . S
H1034 C1039 0.950 . S
H1035 C1040 0.949 . S
H1036 C1042 0.950 . S
H1037 C1043 0.950 . S
H1038 C1044 0.949 . S
C1039 H1034 0.950 . S
C1039 C1041 1.327 . S
C1039 C1045 1.429 . S
C1040 C1032 1.574 . S
C1040 H1035 0.949 . S
C1040 C1046 1.368 . S
C1041 C1025 1.349 . S
C1041 H1033 0.950 . S
C1041 C1039 1.327 . S
C1042 C1030 1.349 . S
C1042 H1036 0.950 . S
C1042 C1043 1.327 . S
C1043 H1037 0.950 . S
C1043 C1042 1.327 . S
C1043 C1047 1.429 . S
C1044 C1027 1.574 . S
C1044 H1038 0.949 . S
C1044 C1048 1.368 . S
C1045 C1026 1.429 . S
C1045 C1039 1.429 . S
C1045 C1046 1.523 . S
C1046 C1027 1.368 . S
C1046 C1040 1.368 . S
C1046 C1045 1.523 . S
C1047 C1031 1.429 . S
C1047 C1043 1.429 . S
C1047 C1048 1.523 . S
C1048 C1032 1.368 . S
C1048 C1044 1.368 . S
C1048 C1047 1.523 . S
H1049 C1024 0.950 . S
H1050 C1026 0.950 . S
H1051 C1027 0.949 . S
H1052 C1029 0.950 . S
H1053 C1031 0.950 . S
C1054 C1055 1.349 . S
C1054 C1056 1.327 . S
C1054 H1079 0.950 . S
C1055 C1054 1.349 . S
C1055 C1071 1.349 . S
C1056 C1054 1.327 . S
C1056 C1075 1.429 . S
C1056 H1080 0.950 . S
C1057 C1074 1.574 . S
C1057 C1076 1.368 . S
C1057 H1081 0.949 . S
H1058 C1062 0.949 . S
C1059 C1060 1.349 . S
C1059 C1061 1.327 . S
C1059 H1082 0.950 . S
C1060 C1059 1.349 . S
C1060 C1072 1.349 . S
C1061 C1059 1.327 . S
C1061 C1077 1.429 . S
C1061 H1083 0.950 . S
C1062 H1058 0.949 . S
C1062 C1070 1.574 . S
C1062 C1078 1.368 . S
H1063 C1071 0.950 . S
H1064 C1069 0.950 . S
H1065 C1070 0.949 . S
H1066 C1072 0.950 . S
H1067 C1073 0.950 . S
H1068 C1074 0.949 . S
C1069 H1064 0.950 . S
C1069 C1071 1.327 . S
C1069 C1075 1.429 . S
C1070 C1062 1.574 . S
C1070 H1065 0.949 . S
C1070 C1076 1.368 . S
C1071 C1055 1.349 . S
C1071 H1063 0.950 . S
C1071 C1069 1.327 . S
C1072 C1060 1.349 . S
C1072 H1066 0.950 . S
C1072 C1073 1.327 . S
C1073 H1067 0.950 . S
C1073 C1072 1.327 . S
C1073 C1077 1.429 . S
C1074 C1057 1.574 . S
C1074 H1068 0.949 . S
C1074 C1078 1.368 . S
C1075 C1056 1.429 . S
C1075 C1069 1.429 . S
C1075 C1076 1.523 . S
C1076 C1057 1.368 . S
C1076 C1070 1.368 . S
C1076 C1075 1.523 . S
C1077 C1061 1.429 . S
C1077 C1073 1.429 . S
C1077 C1078 1.523 . S
C1078 C1062 1.368 . S
C1078 C1074 1.368 . S
C1078 C1077 1.523 . S
H1079 C1054 0.950 . S
H1080 C1056 0.950 . S
H1081 C1057 0.949 . S
H1082 C1059 0.950 . S
H1083 C1061 0.950 . S
C1084 C1085 1.349 . S
C1084 C1086 1.327 . S
C1084 H1109 0.950 . S
C1085 C1084 1.349 . S
C1085 C1101 1.349 . S
C1086 C1084 1.327 . S
C1086 C1105 1.429 . S
C1086 H1110 0.950 . S
C1087 C1104 1.574 . S
C1087 C1106 1.368 . S
C1087 H1111 0.949 . S
H1088 C1092 0.949 . S
C1089 C1090 1.349 . S
C1089 C1091 1.327 . S
C1089 H1112 0.950 . S
C1090 C1089 1.349 . S
C1090 C1102 1.349 . S
C1091 C1089 1.327 . S
C1091 C1107 1.429 . S
C1091 H1113 0.950 . S
C1092 H1088 0.949 . S
C1092 C1100 1.574 . S
C1092 C1108 1.368 . S
H1093 C1101 0.950 . S
H1094 C1099 0.950 . S
H1095 C1100 0.949 . S
H1096 C1102 0.950 . S
H1097 C1103 0.950 . S
H1098 C1104 0.949 . S
C1099 H1094 0.950 . S
C1099 C1101 1.327 . S
C1099 C1105 1.429 . S
C1100 C1092 1.574 . S
C1100 H1095 0.949 . S
C1100 C1106 1.368 . S
C1101 C1085 1.349 . S
C1101 H1093 0.950 . S
C1101 C1099 1.327 . S
C1102 C1090 1.349 . S
C1102 H1096 0.950 . S
C1102 C1103 1.327 . S
C1103 H1097 0.950 . S
C1103 C1102 1.327 . S
C1103 C1107 1.429 . S
C1104 C1087 1.574 . S
C1104 H1098 0.949 . S
C1104 C1108 1.368 . S
C1105 C1086 1.429 . S
C1105 C1099 1.429 . S
C1105 C1106 1.523 . S
C1106 C1087 1.368 . S
C1106 C1100 1.368 . S
C1106 C1105 1.523 . S
C1107 C1091 1.429 . S
C1107 C1103 1.429 . S
C1107 C1108 1.523 . S
C1108 C1092 1.368 . S
C1108 C1104 1.368 . S
C1108 C1107 1.523 . S
H1109 C1084 0.950 . S
H1110 C1086 0.950 . S
H1111 C1087 0.949 . S
H1112 C1089 0.950 . S
H1113 C1091 0.950 . S
C1114 C1115 1.349 . S
C1114 C1116 1.327 . S
C1114 H1139 0.950 . S
C1115 C1114 1.349 . S
C1115 C1131 1.349 . S
C1116 C1114 1.327 . S
C1116 C1135 1.429 . S
C1116 H1140 0.950 . S
C1117 C1134 1.574 . S
C1117 C1136 1.368 . S
C1117 H1141 0.949 . S
H1118 C1122 0.949 . S
C1119 C1120 1.349 . S
C1119 C1121 1.327 . S
C1119 H1142 0.950 . S
C1120 C1119 1.349 . S
C1120 C1132 1.349 . S
C1121 C1119 1.327 . S
C1121 C1137 1.429 . S
C1121 H1143 0.950 . S
C1122 H1118 0.949 . S
C1122 C1130 1.574 . S
C1122 C1138 1.368 . S
H1123 C1131 0.950 . S
H1124 C1129 0.950 . S
H1125 C1130 0.949 . S
H1126 C1132 0.950 . S
H1127 C1133 0.950 . S
H1128 C1134 0.949 . S
C1129 H1124 0.950 . S
C1129 C1131 1.327 . S
C1129 C1135 1.429 . S
C1130 C1122 1.574 . S
C1130 H1125 0.949 . S
C1130 C1136 1.368 . S
C1131 C1115 1.349 . S
C1131 H1123 0.950 . S
C1131 C1129 1.327 . S
C1132 C1120 1.349 . S
C1132 H1126 0.950 . S
C1132 C1133 1.327 . S
C1133 H1127 0.950 . S
C1133 C1132 1.327 . S
C1133 C1137 1.429 . S
C1134 C1117 1.574 . S
C1134 H1128 0.949 . S
C1134 C1138 1.368 . S
C1135 C1116 1.429 . S
C1135 C1129 1.429 . S
C1135 C1136 1.523 . S
C1136 C1117 1.368 . S
C1136 C1130 1.368 . S
C1136 C1135 1.523 . S
C1137 C1121 1.429 . S
C1137 C1133 1.429 . S
C1137 C1138 1.523 . S
C1138 C1122 1.368 . S
C1138 C1134 1.368 . S
C1138 C1137 1.523 . S
H1139 C1114 0.950 . S
H1140 C1116 0.950 . S
H1141 C1117 0.949 . S
H1142 C1119 0.950 . S
H1143 C1121 0.950 . S
C1144 C1145 1.349 . S
C1144 C1146 1.327 . S
C1144 H1169 0.950 . S
C1145 C1144 1.349 . S
C1145 C1161 1.349 . S
C1146 C1144 1.327 . S
C1146 C1165 1.429 . S
C1146 H1170 0.950 . S
C1147 C1164 1.574 . S
C1147 C1166 1.368 . S
C1147 H1171 0.949 . S
H1148 C1152 0.949 . S
C1149 C1150 1.349 . S
C1149 C1151 1.327 . S
C1149 H1172 0.950 . S
C1150 C1149 1.349 . S
C1150 C1162 1.349 . S
C1151 C1149 1.327 . S
C1151 C1167 1.429 . S
C1151 H1173 0.950 . S
C1152 H1148 0.949 . S
C1152 C1160 1.574 . S
C1152 C1168 1.368 . S
H1153 C1161 0.950 . S
H1154 C1159 0.950 . S
H1155 C1160 0.949 . S
H1156 C1162 0.950 . S
H1157 C1163 0.950 . S
H1158 C1164 0.949 . S
C1159 H1154 0.950 . S
C1159 C1161 1.327 . S
C1159 C1165 1.429 . S
C1160 C1152 1.574 . S
C1160 H1155 0.949 . S
C1160 C1166 1.368 . S
C1161 C1145 1.349 . S
C1161 H1153 0.950 . S
C1161 C1159 1.327 . S
C1162 C1150 1.349 . S
C1162 H1156 0.950 . S
C1162 C1163 1.327 . S
C1163 H1157 0.950 . S
C1163 C1162 1.327 . S
C1163 C1167 1.429 . S
C1164 C1147 1.574 . S
C1164 H1158 0.949 . S
C1164 C1168 1.368 . S
C1165 C1146 1.429 . S
C1165 C1159 1.429 . S
C1165 C1166 1.523 . S
C1166 C1147 1.368 . S
C1166 C1160 1.368 . S
C1166 C1165 1.523 . S
C1167 C1151 1.429 . S
C1167 C1163 1.429 . S
C1167 C1168 1.523 . S
C1168 C1152 1.368 . S
C1168 C1164 1.368 . S
C1168 C1167 1.523 . S
H1169 C1144 0.950 . S
H1170 C1146 0.950 . S
H1171 C1147 0.949 . S
H1172 C1149 0.950 . S
H1173 C1151 0.950 . S
C1174 C1175 1.349 . S
C1174 C1176 1.327 . S
C1174 H1199 0.950 . S
C1175 C1174 1.349 . S
C1175 C1191 1.349 . S
C1176 C1174 1.327 . S
C1176 C1195 1.429 . S
C1176 H1200 0.950 . S
C1177 C1194 1.574 . S
C1177 C1196 1.368 . S
C1177 H1201 0.949 . S
H1178 C1182 0.949 . S
C1179 C1180 1.349 . S
C1179 C1181 1.327 . S
C1179 H1202 0.950 . S
C1180 C1179 1.349 . S
C1180 C1192 1.349 . S
C1181 C1179 1.327 . S
C1181 C1197 1.429 . S
C1181 H1203 0.950 . S
C1182 H1178 0.949 . S
C1182 C1190 1.574 . S
C1182 C1198 1.368 . S
H1183 C1191 0.950 . S
H1184 C1189 0.950 . S
H1185 C1190 0.949 . S
H1186 C1192 0.950 . S
H1187 C1193 0.950 . S
H1188 C1194 0.949 . S
C1189 H1184 0.950 . S
C1189 C1191 1.327 . S
C1189 C1195 1.429 . S
C1190 C1182 1.574 . S
C1190 H1185 0.949 . S
C1190 C1196 1.368 . S
C1191 C1175 1.349 . S
C1191 H1183 0.950 . S
C1191 C1189 1.327 . S
C1192 C1180 1.349 . S
C1192 H1186 0.950 . S
C1192 C1193 1.327 . S
C1193 H1187 0.950 . S
C1193 C1192 1.327 . S
C1193 C1197 1.429 . S
C1194 C1177 1.574 . S
C1194 H1188 0.949 . S
C1194 C1198 1.368 . S
C1195 C1176 1.429 . S
C1195 C1189 1.429 . S
C1195 C1196 1.523 . S
C1196 C1177 1.368 . S
C1196 C1190 1.368 . S
C1196 C1195 1.523 . S
C1197 C1181 1.429 . S
C1197 C1193 1.429 . S
C1197 C1198 1.523 . S
C1198 C1182 1.368 . S
C1198 C1194 1.368 . S
C1198 C1197 1.523 . S
H1199 C1174 0.950 . S
H1200 C1176 0.950 . S
H1201 C1177 0.949 . S
H1202 C1179 0.950 . S
H1203 C1181 0.950 . S
C1204 C1205 1.349 . S
C1204 C1206 1.327 . S
C1204 H1229 0.950 . S
C1205 C1204 1.349 . S
C1205 C1221 1.349 . S
C1206 C1204 1.327 . S
C1206 C1225 1.429 . S
C1206 H1230 0.950 . S
C1207 C1224 1.574 . S
C1207 C1226 1.368 . S
C1207 H1231 0.949 . S
H1208 C1212 0.949 . S
C1209 C1210 1.349 . S
C1209 C1211 1.327 . S
C1209 H1232 0.950 . S
C1210 C1209 1.349 . S
C1210 C1222 1.349 . S
C1211 C1209 1.327 . S
C1211 C1227 1.429 . S
C1211 H1233 0.950 . S
C1212 H1208 0.949 . S
C1212 C1220 1.574 . S
C1212 C1228 1.368 . S
H1213 C1221 0.950 . S
H1214 C1219 0.950 . S
H1215 C1220 0.949 . S
H1216 C1222 0.950 . S
H1217 C1223 0.950 . S
H1218 C1224 0.949 . S
C1219 H1214 0.950 . S
C1219 C1221 1.327 . S
C1219 C1225 1.429 . S
C1220 C1212 1.574 . S
C1220 H1215 0.949 . S
C1220 C1226 1.368 . S
C1221 C1205 1.349 . S
C1221 H1213 0.950 . S
C1221 C1219 1.327 . S
C1222 C1210 1.349 . S
C1222 H1216 0.950 . S
C1222 C1223 1.327 . S
C1223 H1217 0.950 . S
C1223 C1222 1.327 . S
C1223 C1227 1.429 . S
C1224 C1207 1.574 . S
C1224 H1218 0.949 . S
C1224 C1228 1.368 . S
C1225 C1206 1.429 . S
C1225 C1219 1.429 . S
C1225 C1226 1.523 . S
C1226 C1207 1.368 . S
C1226 C1220 1.368 . S
C1226 C1225 1.523 . S
C1227 C1211 1.429 . S
C1227 C1223 1.429 . S
C1227 C1228 1.523 . S
C1228 C1212 1.368 . S
C1228 C1224 1.368 . S
C1228 C1227 1.523 . S
H1229 C1204 0.950 . S
H1230 C1206 0.950 . S
H1231 C1207 0.949 . S
H1232 C1209 0.950 . S
H1233 C1211 0.950 . S
C1234 C1235 1.349 . S
C1234 C1236 1.327 . S
C1234 H1259 0.950 . S
C1235 C1234 1.349 . S
C1235 C1251 1.349 . S
C1236 C1234 1.327 . S
C1236 C1255 1.429 . S
C1236 H1260 0.950 . S
C1237 C1254 1.574 . S
C1237 C1256 1.368 . S
C1237 H1261 0.949 . S
H1238 C1242 0.949 . S
C1239 C1240 1.349 . S
C1239 C1241 1.327 . S
C1239 H1262 0.950 . S
C1240 C1239 1.349 . S
C1240 C1252 1.349 . S
C1241 C1239 1.327 . S
C1241 C1257 1.429 . S
C1241 H1263 0.950 . S
C1242 H1238 0.949 . S
C1242 C1250 1.574 . S
C1242 C1258 1.368 . S
H1243 C1251 0.950 . S
H1244 C1249 0.950 . S
H1245 C1250 0.949 . S
H1246 C1252 0.950 . S
H1247 C1253 0.950 . S
H1248 C1254 0.949 . S
C1249 H1244 0.950 . S
C1249 C1251 1.327 . S
C1249 C1255 1.429 . S
C1250 C1242 1.574 . S
C1250 H1245 0.949 . S
C1250 C1256 1.368 . S
C1251 C1235 1.349 . S
C1251 H1243 0.950 . S
C1251 C1249 1.327 . S
C1252 C1240 1.349 . S
C1252 H1246 0.950 . S
C1252 C1253 1.327 . S
C1253 H1247 0.950 . S
C1253 C1252 1.327 . S
C1253 C1257 1.429 . S
C1254 C1237 1.574 . S
C1254 H1248 0.949 . S
C1254 C1258 1.368 . S
C1255 C1236 1.429 . S
C1255 C1249 1.429 . S
C1255 C1256 1.523 . S
C1256 C1237 1.368 . S
C1256 C1250 1.368 . S
C1256 C1255 1.523 . S
C1257 C1241 1.429 . S
C1257 C1253 1.429 . S
C1257 C1258 1.523 . S
C1258 C1242 1.368 . S
C1258 C1254 1.368 . S
C1258 C1257 1.523 . S
H1259 C1234 0.950 . S
H1260 C1236 0.950 . S
H1261 C1237 0.949 . S
H1262 C1239 0.950 . S
H1263 C1241 0.950 . S
C1264 C1265 1.349 . S
C1264 C1266 1.327 . S
C1264 H1289 0.950 . S
C1265 C1264 1.349 . S
C1265 C1281 1.349 . S
C1266 C1264 1.327 . S
C1266 C1285 1.429 . S
C1266 H1290 0.950 . S
C1267 C1284 1.574 . S
C1267 C1286 1.368 . S
C1267 H1291 0.949 . S
H1268 C1272 0.949 . S
C1269 C1270 1.349 . S
C1269 C1271 1.327 . S
C1269 H1292 0.950 . S
C1270 C1269 1.349 . S
C1270 C1282 1.349 . S
C1271 C1269 1.327 . S
C1271 C1287 1.429 . S
C1271 H1293 0.950 . S
C1272 H1268 0.949 . S
C1272 C1280 1.574 . S
C1272 C1288 1.368 . S
H1273 C1281 0.950 . S
H1274 C1279 0.950 . S
H1275 C1280 0.949 . S
H1276 C1282 0.950 . S
H1277 C1283 0.950 . S
H1278 C1284 0.949 . S
C1279 H1274 0.950 . S
C1279 C1281 1.327 . S
C1279 C1285 1.429 . S
C1280 C1272 1.574 . S
C1280 H1275 0.949 . S
C1280 C1286 1.368 . S
C1281 C1265 1.349 . S
C1281 H1273 0.950 . S
C1281 C1279 1.327 . S
C1282 C1270 1.349 . S
C1282 H1276 0.950 . S
C1282 C1283 1.327 . S
C1283 H1277 0.950 . S
C1283 C1282 1.327 . S
C1283 C1287 1.429 . S
C1284 C1267 1.574 . S
C1284 H1278 0.949 . S
C1284 C1288 1.368 . S
C1285 C1266 1.429 . S
C1285 C1279 1.429 . S
C1285 C1286 1.523 . S
C1286 C1267 1.368 . S
C1286 C1280 1.368 . S
C1286 C1285 1.523 . S
C1287 C1271 1.429 . S
C1287 C1283 1.429 . S
C1287 C1288 1.523 . S
C1288 C1272 1.368 . S
C1288 C1284 1.368 . S
C1288 C1287 1.523 . S
H1289 C1264 0.950 . S
H1290 C1266 0.950 . S
H1291 C1267 0.949 . S
H1292 C1269 0.950 . S
H1293 C1271 0.950 . S
C1294 C1295 1.349 . S
C1294 C1296 1.327 . S
C1294 H1319 0.950 . S
C1295 C1294 1.349 . S
C1295 C1311 1.349 . S
C1296 C1294 1.327 . S
C1296 C1315 1.429 . S
C1296 H1320 0.950 . S
C1297 C1314 1.574 . S
C1297 C1316 1.368 . S
C1297 H1321 0.949 . S
H1298 C1302 0.949 . S
C1299 C1300 1.349 . S
C1299 C1301 1.327 . S
C1299 H1322 0.950 . S
C1300 C1299 1.349 . S
C1300 C1312 1.349 . S
C1301 C1299 1.327 . S
C1301 C1317 1.429 . S
C1301 H1323 0.950 . S
C1302 H1298 0.949 . S
C1302 C1310 1.574 . S
C1302 C1318 1.368 . S
H1303 C1311 0.950 . S
H1304 C1309 0.950 . S
H1305 C1310 0.949 . S
H1306 C1312 0.950 . S
H1307 C1313 0.950 . S
H1308 C1314 0.949 . S
C1309 H1304 0.950 . S
C1309 C1311 1.327 . S
C1309 C1315 1.429 . S
C1310 C1302 1.574 . S
C1310 H1305 0.949 . S
C1310 C1316 1.368 . S
C1311 C1295 1.349 . S
C1311 H1303 0.950 . S
C1311 C1309 1.327 . S
C1312 C1300 1.349 . S
C1312 H1306 0.950 . S
C1312 C1313 1.327 . S
C1313 H1307 0.950 . S
C1313 C1312 1.327 . S
C1313 C1317 1.429 . S
C1314 C1297 1.574 . S
C1314 H1308 0.949 . S
C1314 C1318 1.368 . S
C1315 C1296 1.429 . S
C1315 C1309 1.429 . S
C1315 C1316 1.523 . S
C1316 C1297 1.368 . S
C1316 C1310 1.368 . S
C1316 C1315 1.523 . S
C1317 C1301 1.429 . S
C1317 C1313 1.429 . S
C1317 C1318 1.523 . S
C1318 C1302 1.368 . S
C1318 C1314 1.368 . S
C1318 C1317 1.523 . S
H1319 C1294 0.950 . S
H1320 C1296 0.950 . S
H1321 C1297 0.949 . S
H1322 C1299 0.950 . S
H1323 C1301 0.950 . S
C1324 C1325 1.349 . S
C1324 C1326 1.327 . S
C1324 H1349 0.950 . S
C1325 C1324 1.349 . S
C1325 C1341 1.349 . S
C1326 C1324 1.327 . S
C1326 C1345 1.429 . S
C1326 H1350 0.950 . S
C1327 C1344 1.574 . S
C1327 C1346 1.368 . S
C1327 H1351 0.949 . S
H1328 C1332 0.949 . S
C1329 C1330 1.349 . S
C1329 C1331 1.327 . S
C1329 H1352 0.950 . S
C1330 C1329 1.349 . S
C1330 C1342 1.349 . S
C1331 C1329 1.327 . S
C1331 C1347 1.429 . S
C1331 H1353 0.950 . S
C1332 H1328 0.949 . S
C1332 C1340 1.574 . S
C1332 C1348 1.368 . S
H1333 C1341 0.950 . S
H1334 C1339 0.950 . S
H1335 C1340 0.949 . S
H1336 C1342 0.950 . S
H1337 C1343 0.950 . S
H1338 C1344 0.949 . S
C1339 H1334 0.950 . S
C1339 C1341 1.327 . S
C1339 C1345 1.429 . S
C1340 C1332 1.574 . S
C1340 H1335 0.949 . S
C1340 C1346 1.368 . S
C1341 C1325 1.349 . S
C1341 H1333 0.950 . S
C1341 C1339 1.327 . S
C1342 C1330 1.349 . S
C1342 H1336 0.950 . S
C1342 C1343 1.327 . S
C1343 H1337 0.950 . S
C1343 C1342 1.327 . S
C1343 C1347 1.429 . S
C1344 C1327 1.574 . S
C1344 H1338 0.949 . S
C1344 C1348 1.368 . S
C1345 C1326 1.429 . S
C1345 C1339 1.429 . S
C1345 C1346 1.523 . S
C1346 C1327 1.368 . S
C1346 C1340 1.368 . S
C1346 C1345 1.523 . S
C1347 C1331 1.429 . S
C1347 C1343 1.429 . S
C1347 C1348 1.523 . S
C1348 C1332 1.368 . S
C1348 C1344 1.368 . S
C1348 C1347 1.523 . S
H1349 C1324 0.950 . S
H1350 C1326 0.950 . S
H1351 C1327 0.949 . S
H1352 C1329 0.950 . S
H1353 C1331 0.950 . S
C1354 C1355 1.349 . S
C1354 C1356 1.327 . S
C1354 H1379 0.950 . S
C1355 C1354 1.349 . S
C1355 C1371 1.349 . S
C1356 C1354 1.327 . S
C1356 C1375 1.429 . S
C1356 H1380 0.950 . S
C1357 C1374 1.574 . S
C1357 C1376 1.368 . S
C1357 H1381 0.949 . S
H1358 C1362 0.949 . S
C1359 C1360 1.349 . S
C1359 C1361 1.327 . S
C1359 H1382 0.950 . S
C1360 C1359 1.349 . S
C1360 C1372 1.349 . S
C1361 C1359 1.327 . S
C1361 C1377 1.429 . S
C1361 H1383 0.950 . S
C1362 H1358 0.949 . S
C1362 C1370 1.574 . S
C1362 C1378 1.368 . S
H1363 C1371 0.950 . S
H1364 C1369 0.950 . S
H1365 C1370 0.949 . S
H1366 C1372 0.950 . S
H1367 C1373 0.950 . S
H1368 C1374 0.949 . S
C1369 H1364 0.950 . S
C1369 C1371 1.327 . S
C1369 C1375 1.429 . S
C1370 C1362 1.574 . S
C1370 H1365 0.949 . S
C1370 C1376 1.368 . S
C1371 C1355 1.349 . S
C1371 H1363 0.950 . S
C1371 C1369 1.327 . S
C1372 C1360 1.349 . S
C1372 H1366 0.950 . S
C1372 C1373 1.327 . S
C1373 H1367 0.950 . S
C1373 C1372 1.327 . S
C1373 C1377 1.429 . S
C1374 C1357 1.574 . S
C1374 H1368 0.949 . S
C1374 C1378 1.368 . S
C1375 C1356 1.429 . S
C1375 C1369 1.429 . S
C1375 C1376 1.523 . S
C1376 C1357 1.368 . S
C1376 C1370 1.368 . S
C1376 C1375 1.523 . S
C1377 C1361 1.429 . S
C1377 C1373 1.429 . S
C1377 C1378 1.523 . S
C1378 C1362 1.368 . S
C1378 C1374 1.368 . S
C1378 C1377 1.523 . S
H1379 C1354 0.950 . S
H1380 C1356 0.950 . S
H1381 C1357 0.949 . S
H1382 C1359 0.950 . S
H1383 C1361 0.950 . S
C1384 C1385 1.349 . S
C1384 C1386 1.327 . S
C1384 H1409 0.950 1_556 S
C1385 C1384 1.349 . S
C1385 C1401 1.349 . S
C1386 C1384 1.327 . S
C1386 C1405 1.429 . S
C1386 H1410 0.950 1_556 S
C1387 C1404 1.574 . S
C1387 C1406 1.368 . S
C1387 H1411 0.949 . S
H1388 C1392 0.949 . S
C1389 C1390 1.349 . S
C1389 C1391 1.327 . S
C1389 H1412 0.950 . S
C1390 C1389 1.349 . S
C1390 C1402 1.349 . S
C1391 C1389 1.327 . S
C1391 C1407 1.429 . S
C1391 H1413 0.950 . S
C1392 H1388 0.949 . S
C1392 C1400 1.574 . S
C1392 C1408 1.368 . S
H1393 C1401 0.950 . S
H1394 C1399 0.950 . S
H1395 C1400 0.981 . S
H1396 C1402 0.950 . S
H1397 C1403 0.950 . S
H1398 C1404 0.949 . S
C1399 H1394 0.950 . S
C1399 C1401 1.327 . S
C1399 C1405 1.429 . S
C1400 C1392 1.574 . S
C1400 H1395 0.981 . S
C1400 C1406 1.368 . S
C1401 C1385 1.349 . S
C1401 H1393 0.950 . S
C1401 C1399 1.327 . S
C1402 C1390 1.349 . S
C1402 H1396 0.950 . S
C1402 C1403 1.327 . S
C1403 H1397 0.950 . S
C1403 C1402 1.327 . S
C1403 C1407 1.429 . S
C1404 C1387 1.574 . S
C1404 H1398 0.949 . S
C1404 C1408 1.368 . S
C1405 C1386 1.429 . S
C1405 C1399 1.429 . S
C1405 C1406 1.523 . S
C1406 C1387 1.368 . S
C1406 C1400 1.368 . S
C1406 C1405 1.523 . S
C1407 C1391 1.429 . S
C1407 C1403 1.429 . S
C1407 C1408 1.523 . S
C1408 C1392 1.368 . S
C1408 C1404 1.368 . S
C1408 C1407 1.523 . S
H1409 C1384 0.950 1_554 S
H1410 C1386 0.950 1_554 S
H1411 C1387 0.949 . S
H1412 C1389 0.950 . S
H1413 C1391 0.950 . S
C1414 C1415 1.349 . S
C1414 C1416 1.327 . S
C1414 H1439 0.950 . S
C1415 C1414 1.349 . S
C1415 C1431 1.349 . S
C1416 C1414 1.327 . S
C1416 C1435 1.429 . S
C1416 H1440 0.950 . S
C1417 C1434 1.574 . S
C1417 C1436 1.368 . S
C1417 H1441 0.945 1_556 S
H1418 C1422 0.949 . S
C1419 C1420 1.349 1_554 S
C1419 C1421 1.323 1_554 S
C1419 H1442 0.950 . S
C1420 C1419 1.349 1_556 S
C1420 C1432 1.349 . S
C1421 C1419 1.323 1_556 S
C1421 C1437 1.453 . S
C1421 H1443 0.929 1_556 S
C1422 H1418 0.949 . S
C1422 C1430 1.574 . S
C1422 C1438 1.368 . S
H1423 C1431 0.950 . S
H1424 C1429 0.950 . S
H1425 C1430 0.949 . S
H1426 C1432 0.950 . S
H1427 C1433 0.950 . S
H1428 C1434 0.949 1_554 S
C1429 H1424 0.950 . S
C1429 C1431 1.327 . S
C1429 C1435 1.429 . S
C1430 C1422 1.574 . S
C1430 H1425 0.949 . S
C1430 C1436 1.368 . S
C1431 C1415 1.349 . S
C1431 H1423 0.950 . S
C1431 C1429 1.327 . S
C1432 C1420 1.349 . S
C1432 H1426 0.950 . S
C1432 C1433 1.327 . S
C1433 H1427 0.950 . S
C1433 C1432 1.327 . S
C1433 C1437 1.429 . S
C1434 C1417 1.574 . S
C1434 H1428 0.949 1_556 S
C1434 C1438 1.368 . S
C1435 C1416 1.429 . S
C1435 C1429 1.429 . S
C1435 C1436 1.523 . S
C1436 C1417 1.368 . S
C1436 C1430 1.368 . S
C1436 C1435 1.523 . S
C1437 C1421 1.453 . S
C1437 C1433 1.429 . S
C1437 C1438 1.523 . S
C1438 C1422 1.368 . S
C1438 C1434 1.368 . S
C1438 C1437 1.523 . S
H1439 C1414 0.950 . S
H1440 C1416 0.950 . S
H1441 C1417 0.945 1_554 S
H1442 C1419 0.950 . S
H1443 C1421 0.929 1_554 S
C1444 C1445 1.349 . S
C1444 C1446 1.327 . S
C1444 H1469 0.950 . S
C1445 C1444 1.349 . S
C1445 C1461 1.349 . S
C1446 C1444 1.327 . S
C1446 C1465 1.429 . S
C1446 H1470 0.950 . S
C1447 C1464 1.574 . S
C1447 C1466 1.368 . S
C1447 H1471 0.949 . S
H1448 C1452 0.949 . S
C1449 C1450 1.349 . S
C1449 C1451 1.327 . S
C1449 H1472 0.950 1_545 S
C1450 C1449 1.349 . S
C1450 C1462 1.349 . S
C1451 C1449 1.327 . S
C1451 C1467 1.429 . S
C1451 H1473 0.950 . S
C1452 H1448 0.949 . S
C1452 C1460 1.574 . S
C1452 C1468 1.368 . S
H1453 C1461 0.950 . S
H1454 C1459 0.950 . S
H1455 C1460 0.949 . S
H1456 C1462 0.950 . S
H1457 C1463 0.950 . S
H1458 C1464 0.949 . S
C1459 H1454 0.950 . S
C1459 C1461 1.327 . S
C1459 C1465 1.429 . S
C1460 C1452 1.574 . S
C1460 H1455 0.949 . S
C1460 C1466 1.368 . S
C1461 C1445 1.349 . S
C1461 H1453 0.950 . S
C1461 C1459 1.327 . S
C1462 C1450 1.349 . S
C1462 H1456 0.950 . S
C1462 C1463 1.327 . S
C1463 H1457 0.950 . S
C1463 C1462 1.327 . S
C1463 C1467 1.429 . S
C1464 C1447 1.574 . S
C1464 H1458 0.949 . S
C1464 C1468 1.368 . S
C1465 C1446 1.429 . S
C1465 C1459 1.429 . S
C1465 C1466 1.523 . S
C1466 C1447 1.368 . S
C1466 C1460 1.368 . S
C1466 C1465 1.523 . S
C1467 C1451 1.429 . S
C1467 C1463 1.429 . S
C1467 C1468 1.523 . S
C1468 C1452 1.368 . S
C1468 C1464 1.368 . S
C1468 C1467 1.523 . S
H1469 C1444 0.950 . S
H1470 C1446 0.950 . S
H1471 C1447 0.949 . S
H1472 C1449 0.950 1_565 S
H1473 C1451 0.950 . S
C1474 C1475 1.349 . S
C1474 C1476 1.327 . S
C1474 H1499 0.950 . S
C1475 C1474 1.349 . S
C1475 C1491 1.349 . S
C1476 C1474 1.327 . S
C1476 C1495 1.429 . S
C1476 H1500 0.950 . S
C1477 C1494 1.574 . S
C1477 C1496 1.368 . S
C1477 H1501 0.949 . S
H1478 C1482 0.949 . S
C1479 C1480 1.349 1_554 S
C1479 C1481 1.327 1_554 S
C1479 H1502 0.950 . S
C1480 C1479 1.349 1_556 S
C1480 C1492 1.349 . S
C1481 C1479 1.327 1_556 S
C1481 C1497 1.429 . S
C1481 H1503 0.950 1_556 S
C1482 H1478 0.949 . S
C1482 C1490 1.574 . S
C1482 C1498 1.368 . S
H1483 C1491 0.950 . S
H1484 C1489 0.950 . S
H1485 C1490 0.949 . S
H1486 C1492 0.950 . S
H1487 C1493 0.950 . S
H1488 C1494 0.949 1_554 S
C1489 H1484 0.950 . S
C1489 C1491 1.327 . S
C1489 C1495 1.429 . S
C1490 C1482 1.574 . S
C1490 H1485 0.949 . S
C1490 C1496 1.368 . S
C1491 C1475 1.349 . S
C1491 H1483 0.950 . S
C1491 C1489 1.327 . S
C1492 C1480 1.349 . S
C1492 H1486 0.950 . S
C1492 C1493 1.327 . S
C1493 H1487 0.950 . S
C1493 C1492 1.327 . S
C1493 C1497 1.429 . S
C1494 C1477 1.574 . S
C1494 H1488 0.949 1_556 S
C1494 C1498 1.368 . S
C1495 C1476 1.429 . S
C1495 C1489 1.429 . S
C1495 C1496 1.523 . S
C1496 C1477 1.368 . S
C1496 C1490 1.368 . S
C1496 C1495 1.523 . S
C1497 C1481 1.429 . S
C1497 C1493 1.429 . S
C1497 C1498 1.523 . S
C1498 C1482 1.368 . S
C1498 C1494 1.368 . S
C1498 C1497 1.523 . S
H1499 C1474 0.950 . S
H1500 C1476 0.950 . S
H1501 C1477 0.949 . S
H1502 C1479 0.950 . S
H1503 C1481 0.950 1_554 S
C1504 C1505 1.349 . S
C1504 C1506 1.327 . S
C1504 H1529 0.950 . S
C1505 C1504 1.349 . S
C1505 C1521 1.349 . S
C1506 C1504 1.327 . S
C1506 C1525 1.429 . S
C1506 H1530 0.950 . S
C1507 C1524 1.574 . S
C1507 C1526 1.368 . S
C1507 H1531 0.949 . S
H1508 C1512 0.949 . S
C1509 C1510 1.349 . S
C1509 C1511 1.327 . S
C1509 H1532 0.950 1_565 S
C1510 C1509 1.349 . S
C1510 C1522 1.349 . S
C1511 C1509 1.327 . S
C1511 C1527 1.429 . S
C1511 H1533 0.950 . S
C1512 H1508 0.949 . S
C1512 C1520 1.574 . S
C1512 C1528 1.368 . S
H1513 C1521 0.950 . S
H1514 C1519 0.950 . S
H1515 C1520 0.949 . S
H1516 C1522 0.950 . S
H1517 C1523 0.950 . S
H1518 C1524 0.949 . S
C1519 H1514 0.950 . S
C1519 C1521 1.327 . S
C1519 C1525 1.429 . S
C1520 C1512 1.574 . S
C1520 H1515 0.949 . S
C1520 C1526 1.368 . S
C1521 C1505 1.349 . S
C1521 H1513 0.950 . S
C1521 C1519 1.327 . S
C1522 C1510 1.349 . S
C1522 H1516 0.950 . S
C1522 C1523 1.327 . S
C1523 H1517 0.950 . S
C1523 C1522 1.327 . S
C1523 C1527 1.429 . S
C1524 C1507 1.574 . S
C1524 H1518 0.949 . S
C1524 C1528 1.368 . S
C1525 C1506 1.429 . S
C1525 C1519 1.429 . S
C1525 C1526 1.523 . S
C1526 C1507 1.368 . S
C1526 C1520 1.368 . S
C1526 C1525 1.523 . S
C1527 C1511 1.429 . S
C1527 C1523 1.429 . S
C1527 C1528 1.523 . S
C1528 C1512 1.368 . S
C1528 C1524 1.368 . S
C1528 C1527 1.523 . S
H1529 C1504 0.950 . S
H1530 C1506 0.950 . S
H1531 C1507 0.949 . S
H1532 C1509 0.950 1_545 S
H1533 C1511 0.950 . S
C1534 C1535 1.349 . S
C1534 C1536 1.327 . S
C1534 H1559 0.950 . S
C1535 C1534 1.349 . S
C1535 C1551 1.349 . S
C1536 C1534 1.327 . S
C1536 C1555 1.429 . S
C1536 H1560 0.950 . S
C1537 C1554 1.574 . S
C1537 C1556 1.368 . S
C1537 H1561 0.949 . S
H1538 C1542 0.949 . S
C1539 C1540 1.349 . S
C1539 C1541 1.327 . S
C1539 H1562 0.950 . S
C1540 C1539 1.349 . S
C1540 C1552 1.349 . S
C1541 C1539 1.327 . S
C1541 C1557 1.429 . S
C1541 H1563 0.950 . S
C1542 H1538 0.949 . S
C1542 C1550 1.574 . S
C1542 C1558 1.368 . S
H1543 C1551 0.950 . S
H1544 C1549 0.950 . S
H1545 C1550 0.949 . S
H1546 C1552 0.950 . S
H1547 C1553 0.950 . S
H1548 C1554 0.949 . S
C1549 H1544 0.950 . S
C1549 C1551 1.327 . S
C1549 C1555 1.429 . S
C1550 C1542 1.574 . S
C1550 H1545 0.949 . S
C1550 C1556 1.368 . S
C1551 C1535 1.349 . S
C1551 H1543 0.950 . S
C1551 C1549 1.327 . S
C1552 C1540 1.349 . S
C1552 H1546 0.950 . S
C1552 C1553 1.327 . S
C1553 H1547 0.950 . S
C1553 C1552 1.327 . S
C1553 C1557 1.429 . S
C1554 C1537 1.574 . S
C1554 H1548 0.949 . S
C1554 C1558 1.368 . S
C1555 C1536 1.429 . S
C1555 C1549 1.429 . S
C1555 C1556 1.523 . S
C1556 C1537 1.368 . S
C1556 C1550 1.368 . S
C1556 C1555 1.523 . S
C1557 C1541 1.429 . S
C1557 C1553 1.429 . S
C1557 C1558 1.523 . S
C1558 C1542 1.368 . S
C1558 C1554 1.368 . S
C1558 C1557 1.523 . S
H1559 C1534 0.950 . S
H1560 C1536 0.950 . S
H1561 C1537 0.949 . S
H1562 C1539 0.950 . S
H1563 C1541 0.950 . S
C1564 C1565 1.349 . S
C1564 C1566 1.327 . S
C1564 H1589 0.950 . S
C1565 C1564 1.349 . S
C1565 C1581 1.349 . S
C1566 C1564 1.327 . S
C1566 C1585 1.429 . S
C1566 H1590 0.950 . S
C1567 C1584 1.574 . S
C1567 C1586 1.368 . S
C1567 H1591 0.949 . S
H1568 C1572 0.949 . S
C1569 C1570 1.349 . S
C1569 C1571 1.327 . S
C1569 H1592 0.950 . S
C1570 C1569 1.349 . S
C1570 C1582 1.349 . S
C1571 C1569 1.327 . S
C1571 C1587 1.429 . S
C1571 H1593 0.950 . S
C1572 H1568 0.949 . S
C1572 C1580 1.574 . S
C1572 C1588 1.368 . S
H1573 C1581 0.950 . S
H1574 C1579 0.950 . S
H1575 C1580 0.949 . S
H1576 C1582 0.950 . S
H1577 C1583 0.950 . S
H1578 C1584 0.949 . S
C1579 H1574 0.950 . S
C1579 C1581 1.327 . S
C1579 C1585 1.429 . S
C1580 C1572 1.574 . S
C1580 H1575 0.949 . S
C1580 C1586 1.368 . S
C1581 C1565 1.349 . S
C1581 H1573 0.950 . S
C1581 C1579 1.327 . S
C1582 C1570 1.349 . S
C1582 H1576 0.950 . S
C1582 C1583 1.327 . S
C1583 H1577 0.950 . S
C1583 C1582 1.327 . S
C1583 C1587 1.429 . S
C1584 C1567 1.574 . S
C1584 H1578 0.949 . S
C1584 C1588 1.368 . S
C1585 C1566 1.429 . S
C1585 C1579 1.429 . S
C1585 C1586 1.523 . S
C1586 C1567 1.368 . S
C1586 C1580 1.368 . S
C1586 C1585 1.523 . S
C1587 C1571 1.429 . S
C1587 C1583 1.429 . S
C1587 C1588 1.523 . S
C1588 C1572 1.368 . S
C1588 C1584 1.368 . S
C1588 C1587 1.523 . S
H1589 C1564 0.950 . S
H1590 C1566 0.950 . S
H1591 C1567 0.949 . S
H1592 C1569 0.950 . S
H1593 C1571 0.950 . S
C1594 C1595 1.349 . S
C1594 C1596 1.327 . S
C1594 H1619 0.950 . S
C1595 C1594 1.349 . S
C1595 C1611 1.349 . S
C1596 C1594 1.327 . S
C1596 C1615 1.429 . S
C1596 H1620 0.950 . S
C1597 C1614 1.574 . S
C1597 C1616 1.368 . S
C1597 H1621 0.949 . S
H1598 C1602 0.949 . S
C1599 C1600 1.349 . S
C1599 C1601 1.327 . S
C1599 H1622 0.950 . S
C1600 C1599 1.349 . S
C1600 C1612 1.349 . S
C1601 C1599 1.327 . S
C1601 C1617 1.429 . S
C1601 H1623 0.950 . S
C1602 H1598 0.949 . S
C1602 C1610 1.574 . S
C1602 C1618 1.368 . S
H1603 C1611 0.950 . S
H1604 C1609 0.950 . S
H1605 C1610 0.949 . S
H1606 C1612 0.950 1_455 S
H1607 C1613 0.950 . S
H1608 C1614 0.949 . S
C1609 H1604 0.950 . S
C1609 C1611 1.327 . S
C1609 C1615 1.429 . S
C1610 C1602 1.574 . S
C1610 H1605 0.949 . S
C1610 C1616 1.368 . S
C1611 C1595 1.349 . S
C1611 H1603 0.950 . S
C1611 C1609 1.327 . S
C1612 C1600 1.349 . S
C1612 H1606 0.950 1_655 S
C1612 C1613 1.327 . S
C1613 H1607 0.950 . S
C1613 C1612 1.327 . S
C1613 C1617 1.429 . S
C1614 C1597 1.574 . S
C1614 H1608 0.949 . S
C1614 C1618 1.368 . S
C1615 C1596 1.429 . S
C1615 C1609 1.429 . S
C1615 C1616 1.523 . S
C1616 C1597 1.368 . S
C1616 C1610 1.368 . S
C1616 C1615 1.523 . S
C1617 C1601 1.429 . S
C1617 C1613 1.429 . S
C1617 C1618 1.523 . S
C1618 C1602 1.368 . S
C1618 C1614 1.368 . S
C1618 C1617 1.523 . S
H1619 C1594 0.950 . S
H1620 C1596 0.950 . S
H1621 C1597 0.949 . S
H1622 C1599 0.950 . S
H1623 C1601 0.950 . S
C1624 C1625 1.349 . S
C1624 C1626 1.327 . S
C1624 H1649 0.950 . S
C1625 C1624 1.349 . S
C1625 C1641 1.349 . S
C1626 C1624 1.327 . S
C1626 C1645 1.429 . S
C1626 H1650 0.950 . S
C1627 C1644 1.574 . S
C1627 C1646 1.368 . S
C1627 H1651 0.949 . S
H1628 C1632 0.949 . S
C1629 C1630 1.346 1_556 S
C1629 C1631 1.326 1_556 S
C1629 H1652 0.954 . S
C1630 C1629 1.346 1_554 S
C1630 C1642 1.349 . S
C1631 C1629 1.326 1_554 S
C1631 C1647 1.429 . S
C1631 H1653 0.950 1_554 S
C1632 H1628 0.949 . S
C1632 C1640 1.574 . S
C1632 C1648 1.368 . S
H1633 C1641 0.950 . S
H1634 C1639 0.950 . S
H1635 C1640 0.949 . S
H1636 C1642 0.950 . S
H1637 C1643 0.950 . S
H1638 C1644 0.949 1_556 S
C1639 H1634 0.950 . S
C1639 C1641 1.327 . S
C1639 C1645 1.429 . S
C1640 C1632 1.574 . S
C1640 H1635 0.949 . S
C1640 C1646 1.368 . S
C1641 C1625 1.349 . S
C1641 H1633 0.950 . S
C1641 C1639 1.327 . S
C1642 C1630 1.349 . S
C1642 H1636 0.950 . S
C1642 C1643 1.327 . S
C1643 H1637 0.950 . S
C1643 C1642 1.327 . S
C1643 C1647 1.429 . S
C1644 C1627 1.574 . S
C1644 H1638 0.949 1_554 S
C1644 C1648 1.368 . S
C1645 C1626 1.429 . S
C1645 C1639 1.429 . S
C1645 C1646 1.523 . S
C1646 C1627 1.368 . S
C1646 C1640 1.368 . S
C1646 C1645 1.523 . S
C1647 C1631 1.429 . S
C1647 C1643 1.429 . S
C1647 C1648 1.523 . S
C1648 C1632 1.368 . S
C1648 C1644 1.368 . S
C1648 C1647 1.523 . S
H1649 C1624 0.950 . S
H1650 C1626 0.950 . S
H1651 C1627 0.949 . S
H1652 C1629 0.954 . S
H1653 C1631 0.950 1_556 S
C1654 C1655 1.349 . S
C1654 C1656 1.327 . S
C1654 H1679 0.950 1_655 S
C1655 C1654 1.349 . S
C1655 C1671 1.349 . S
C1656 C1654 1.327 . S
C1656 C1675 1.429 . S
C1656 H1680 0.950 . S
C1657 C1674 1.574 . S
C1657 C1676 1.368 . S
C1657 H1681 0.949 . S
H1658 C1662 0.949 . S
C1659 C1660 1.349 . S
C1659 C1661 1.327 . S
C1659 H1682 0.950 . S
C1660 C1659 1.349 . S
C1660 C1672 1.349 . S
C1661 C1659 1.327 . S
C1661 C1677 1.429 . S
C1661 H1683 0.950 . S
C1662 H1658 0.949 . S
C1662 C1670 1.574 . S
C1662 C1678 1.368 . S
H1663 C1671 0.950 1_556 S
H1664 C1669 0.950 . S
H1665 C1670 0.949 . S
H1666 C1672 0.950 . S
H1667 C1673 0.950 . S
H1668 C1674 0.949 . S
C1669 H1664 0.950 . S
C1669 C1671 1.327 . S
C1669 C1675 1.429 . S
C1670 C1662 1.574 . S
C1670 H1665 0.949 . S
C1670 C1676 1.368 . S
C1671 C1655 1.349 . S
C1671 H1663 0.950 1_554 S
C1671 C1669 1.327 . S
C1672 C1660 1.349 . S
C1672 H1666 0.950 . S
C1672 C1673 1.327 . S
C1673 H1667 0.950 . S
C1673 C1672 1.327 . S
C1673 C1677 1.429 . S
C1674 C1657 1.574 . S
C1674 H1668 0.949 . S
C1674 C1678 1.368 . S
C1675 C1656 1.429 . S
C1675 C1669 1.429 . S
C1675 C1676 1.523 . S
C1676 C1657 1.368 . S
C1676 C1670 1.368 . S
C1676 C1675 1.523 . S
C1677 C1661 1.429 . S
C1677 C1673 1.429 . S
C1677 C1678 1.523 . S
C1678 C1662 1.368 . S
C1678 C1674 1.368 . S
C1678 C1677 1.523 . S
H1679 C1654 0.950 1_455 S
H1680 C1656 0.950 . S
H1681 C1657 0.949 . S
H1682 C1659 0.950 . S
H1683 C1661 0.950 . S
C1684 C1685 1.349 . S
C1684 C1686 1.327 . S
C1684 H1709 0.942 1_565 S
C1685 C1684 1.349 . S
C1685 C1701 1.349 1_554 S
C1686 C1684 1.327 . S
C1686 C1705 1.429 . S
C1686 H1710 0.950 . S
C1687 C1704 1.574 . S
C1687 C1706 1.368 . S
C1687 H1711 0.949 1_554 S
H1688 C1692 0.949 . S
C1689 C1690 1.349 . S
C1689 C1691 1.327 . S
C1689 H1712 0.950 . S
C1690 C1689 1.349 . S
C1690 C1702 1.349 . S
C1691 C1689 1.327 . S
C1691 C1707 1.429 . S
C1691 H1713 0.950 . S
C1692 H1688 0.949 . S
C1692 C1700 1.574 . S
C1692 C1708 1.368 . S
H1693 C1701 0.950 . S
H1694 C1699 0.926 1_556 S
H1695 C1700 0.949 . S
H1696 C1702 0.950 . S
H1697 C1703 0.950 . S
H1698 C1704 0.949 . S
C1699 H1694 0.926 1_554 S
C1699 C1701 1.321 1_554 S
C1699 C1705 1.460 . S
C1700 C1692 1.574 . S
C1700 H1695 0.949 . S
C1700 C1706 1.368 . S
C1701 C1685 1.349 1_556 S
C1701 H1693 0.950 . S
C1701 C1699 1.321 1_556 S
C1702 C1690 1.349 . S
C1702 H1696 0.950 . S
C1702 C1703 1.327 . S
C1703 H1697 0.950 . S
C1703 C1702 1.327 . S
C1703 C1707 1.429 . S
C1704 C1687 1.574 . S
C1704 H1698 0.949 . S
C1704 C1708 1.368 . S
C1705 C1686 1.429 . S
C1705 C1699 1.460 . S
C1705 C1706 1.523 . S
C1706 C1687 1.368 . S
C1706 C1700 1.368 . S
C1706 C1705 1.523 . S
C1707 C1691 1.429 . S
C1707 C1703 1.429 . S
C1707 C1708 1.523 . S
C1708 C1692 1.368 . S
C1708 C1704 1.368 . S
C1708 C1707 1.523 . S
H1709 C1684 0.942 1_545 S
H1710 C1686 0.950 . S
H1711 C1687 0.949 1_556 S
H1712 C1689 0.950 . S
H1713 C1691 0.950 . S
C1714 C1715 1.349 . S
C1714 C1716 1.327 . S
C1714 H1739 0.950 . S
C1715 C1714 1.349 . S
C1715 C1731 1.349 . S
C1716 C1714 1.327 . S
C1716 C1735 1.429 . S
C1716 H1740 0.950 . S
C1717 C1734 1.574 . S
C1717 C1736 1.368 . S
C1717 H1741 0.949 . S
H1718 C1722 0.949 . S
C1719 C1720 1.349 1_556 S
C1719 C1721 1.333 . S
C1719 H1742 0.950 . S
C1720 C1719 1.349 1_554 S
C1720 C1732 1.349 . S
C1721 C1719 1.333 . S
C1721 C1737 1.401 1_556 S
C1721 H1743 0.972 . S
C1722 H1718 0.949 . S
C1722 C1730 1.574 . S
C1722 C1738 1.368 . S
H1723 C1731 0.950 . S
H1724 C1729 0.950 . S
H1725 C1730 0.949 . S
H1726 C1732 0.950 . S
H1727 C1733 0.950 . S
H1728 C1734 0.949 1_556 S
C1729 H1724 0.950 . S
C1729 C1731 1.327 . S
C1729 C1735 1.429 . S
C1730 C1722 1.574 . S
C1730 H1725 0.949 . S
C1730 C1736 1.368 . S
C1731 C1715 1.349 . S
C1731 H1723 0.950 . S
C1731 C1729 1.327 . S
C1732 C1720 1.349 . S
C1732 H1726 0.950 . S
C1732 C1733 1.327 . S
C1733 H1727 0.950 . S
C1733 C1732 1.327 . S
C1733 C1737 1.429 . S
C1734 C1717 1.574 . S
C1734 H1728 0.949 1_554 S
C1734 C1738 1.368 . S
C1735 C1716 1.429 . S
C1735 C1729 1.429 . S
C1735 C1736 1.523 . S
C1736 C1717 1.368 . S
C1736 C1730 1.368 . S
C1736 C1735 1.523 . S
C1737 C1721 1.401 1_554 S
C1737 C1733 1.429 . S
C1737 C1738 1.523 . S
C1738 C1722 1.368 . S
C1738 C1734 1.368 . S
C1738 C1737 1.523 . S
H1739 C1714 0.950 . S
H1740 C1716 0.950 . S
H1741 C1717 0.949 . S
H1742 C1719 0.950 . S
H1743 C1721 0.972 . S
C545 C5 0.615 . S
C550 C175 0.612 . S
C575 C39 0.627 . S
C580 C209 0.623 . S
C605 C243 0.649 . S
C610 C73 0.649 . S
C635 C141 0.627 . S
C640 C107 0.623 . S
C665 C277 0.615 . S
C670 C447 0.612 . S
C695 C311 0.627 . S
C700 C481 0.623 . S
C725 C345 0.649 . S
C730 C515 0.649 . S
C755 C379 0.627 . S
C760 C413 0.629 . S
C785 C305 1.137 . S
C790 C33 1.139 . S
C815 C339 0.860 . S
C820 C67 0.865 . S
C845 C101 0.952 . S
C850 C373 0.952 . S
C875 C407 1.251 . S
C880 C135 1.251 . S
C905 C169 0.860 . S
C910 C441 0.864 . S
C935 C203 1.137 . S
C940 C475 1.139 . S
C965 C237 1.251 . S
C970 C509 1.251 . S
C995 C271 0.953 . S
C1000 C543 0.953 . S
C1025 C20 1.403 . S
C1030 C156 1.404 . S
C1055 C54 1.404 . S
C1060 C190 1.403 . S
C1085 C224 1.471 . S
C1090 C88 1.471 . S
C1115 C122 1.472 . S
C1120 C258 1.471 . S
C1145 C428 1.404 . S
C1150 C292 1.403 . S
C1175 C462 1.403 . S
C1180 C326 1.404 . S
C1205 C360 1.471 . S
C1210 C496 1.471 . S
C1235 C530 1.471 . S
C1240 C394 1.472 . S
C1265 C43 1.540 . S
C1270 C2 1.550 . S
C1295 C36 1.665 . S
C1300 C77 1.645 . S
C1325 C70 1.851 . S
C1330 C111 1.827 . S
C1355 C104 1.722 . S
C1360 C9 1.694 . S
C1385 C247 1.650 . S
C1390 C138 1.660 . S
C1415 C172 1.557 . S
C1420 C145 1.533 . S
C1445 C206 1.722 . S
C1450 C179 1.694 . S
C1475 C240 1.851 . S
C1480 C213 1.827 . S
C1505 C274 1.557 . S
C1510 C315 1.533 . S
C1535 C308 1.665 . S
C1540 C349 1.645 . S
C1565 C383 1.827 . S
C1570 C342 1.851 . S
C1595 C376 1.722 . S
C1600 C281 1.694 . S
C1625 C410 1.665 . S
C1630 C519 1.646 . S
C1655 C417 1.540 . S
C1660 C444 1.550 . S
C1685 C451 1.697 . S
C1690 C478 1.720 . S
C1715 C512 1.851 . S
C1720 C485 1.827 . S
