# Generated by pormake.
# Topology sxe, (6)-cn, num edge types: 1
# Building blocks:
#     Node 0, Type 0, BuildingBlock: OJICUG_clean_sbu_0, # of connection points: 6
#     Node 1, Type 0, BuildingBlock: OJICUG_clean_sbu_0, # of connection points: 6
#     Node 2, Type 0, BuildingBlock: OJICUG_clean_sbu_0, # of connection points: 6
#     Node 3, Type 0, BuildingBlock: OJICUG_clean_sbu_0, # of connection points: 6
#     Node 4, Type 0, BuildingBlock: OJICUG_clean_sbu_0, # of connection points: 6
#     Node 5, Type 0, BuildingBlock: OJICUG_clean_sbu_0, # of connection points: 6
#     Node 6, Type 0, BuildingBlock: OJICUG_clean_sbu_0, # of connection points: 6
#     Node 7, Type 0, BuildingBlock: OJICUG_clean_sbu_0, # of connection points: 6
#     Node 8, Type 0, BuildingBlock: OJICUG_clean_sbu_0, # of connection points: 6
#     Node 9, Type 0, BuildingBlock: OJICUG_clean_sbu_0, # of connection points: 6
#     Node 10, Type 0, BuildingBlock: OJICUG_clean_sbu_0, # of connection points: 6
#     Node 11, Type 0, BuildingBlock: OJICUG_clean_sbu_0, # of connection points: 6
#     Node 12, Type 0, BuildingBlock: OJICUG_clean_sbu_0, # of connection points: 6
#     Node 13, Type 0, BuildingBlock: OJICUG_clean_sbu_0, # of connection points: 6
#     Node 14, Type 0, BuildingBlock: OJICUG_clean_sbu_0, # of connection points: 6
#     Node 15, Type 0, BuildingBlock: OJICUG_clean_sbu_0, # of connection points: 6
#     Node 16, Type 0, BuildingBlock: OJICUG_clean_sbu_0, # of connection points: 6
#     Node 17, Type 0, BuildingBlock: OJICUG_clean_sbu_0, # of connection points: 6
#     Node 18, Type 0, BuildingBlock: OJICUG_clean_sbu_0, # of connection points: 6
#     Node 19, Type 0, BuildingBlock: OJICUG_clean_sbu_0, # of connection points: 6
#     Node 20, Type 0, BuildingBlock: OJICUG_clean_sbu_0, # of connection points: 6
#     Node 21, Type 0, BuildingBlock: OJICUG_clean_sbu_0, # of connection points: 6
#     Node 22, Type 0, BuildingBlock: OJICUG_clean_sbu_0, # of connection points: 6
#     Node 23, Type 0, BuildingBlock: OJICUG_clean_sbu_0, # of connection points: 6
#     Edge 24, Type (0, 0), BuildingBlock: AJUNOK_clean_linker_0, # of connection points: 2
#     Edge 25, Type (0, 0), BuildingBlock: AJUNOK_clean_linker_0, # of connection points: 2
#     Edge 26, Type (0, 0), BuildingBlock: AJUNOK_clean_linker_0, # of connection points: 2
#     Edge 27, Type (0, 0), BuildingBlock: AJUNOK_clean_linker_0, # of connection points: 2
#     Edge 28, Type (0, 0), BuildingBlock: AJUNOK_clean_linker_0, # of connection points: 2
#     Edge 29, Type (0, 0), BuildingBlock: AJUNOK_clean_linker_0, # of connection points: 2
#     Edge 30, Type (0, 0), BuildingBlock: AJUNOK_clean_linker_0, # of connection points: 2
#     Edge 31, Type (0, 0), BuildingBlock: AJUNOK_clean_linker_0, # of connection points: 2
#     Edge 32, Type (0, 0), BuildingBlock: AJUNOK_clean_linker_0, # of connection points: 2
#     Edge 33, Type (0, 0), BuildingBlock: AJUNOK_clean_linker_0, # of connection points: 2
#     Edge 34, Type (0, 0), BuildingBlock: AJUNOK_clean_linker_0, # of connection points: 2
#     Edge 35, Type (0, 0), BuildingBlock: AJUNOK_clean_linker_0, # of connection points: 2
#     Edge 36, Type (0, 0), BuildingBlock: AJUNOK_clean_linker_0, # of connection points: 2
#     Edge 37, Type (0, 0), BuildingBlock: AJUNOK_clean_linker_0, # of connection points: 2
#     Edge 38, Type (0, 0), BuildingBlock: AJUNOK_clean_linker_0, # of connection points: 2
#     Edge 39, Type (0, 0), BuildingBlock: AJUNOK_clean_linker_0, # of connection points: 2
#     Edge 40, Type (0, 0), BuildingBlock: AJUNOK_clean_linker_0, # of connection points: 2
#     Edge 41, Type (0, 0), BuildingBlock: AJUNOK_clean_linker_0, # of connection points: 2
#     Edge 42, Type (0, 0), BuildingBlock: AJUNOK_clean_linker_0, # of connection points: 2
#     Edge 43, Type (0, 0), BuildingBlock: AJUNOK_clean_linker_0, # of connection points: 2
#     Edge 44, Type (0, 0), BuildingBlock: AJUNOK_clean_linker_0, # of connection points: 2
#     Edge 45, Type (0, 0), BuildingBlock: AJUNOK_clean_linker_0, # of connection points: 2
#     Edge 46, Type (0, 0), BuildingBlock: AJUNOK_clean_linker_0, # of connection points: 2
#     Edge 47, Type (0, 0), BuildingBlock: AJUNOK_clean_linker_0, # of connection points: 2
#     Edge 48, Type (0, 0), BuildingBlock: AJUNOK_clean_linker_0, # of connection points: 2
#     Edge 49, Type (0, 0), BuildingBlock: AJUNOK_clean_linker_0, # of connection points: 2
#     Edge 50, Type (0, 0), BuildingBlock: AJUNOK_clean_linker_0, # of connection points: 2
#     Edge 51, Type (0, 0), BuildingBlock: AJUNOK_clean_linker_0, # of connection points: 2
#     Edge 52, Type (0, 0), BuildingBlock: AJUNOK_clean_linker_0, # of connection points: 2
#     Edge 53, Type (0, 0), BuildingBlock: AJUNOK_clean_linker_0, # of connection points: 2
#     Edge 54, Type (0, 0), BuildingBlock: AJUNOK_clean_linker_0, # of connection points: 2
#     Edge 55, Type (0, 0), BuildingBlock: AJUNOK_clean_linker_0, # of connection points: 2
#     Edge 56, Type (0, 0), BuildingBlock: AJUNOK_clean_linker_0, # of connection points: 2
#     Edge 57, Type (0, 0), BuildingBlock: AJUNOK_clean_linker_0, # of connection points: 2
#     Edge 58, Type (0, 0), BuildingBlock: AJUNOK_clean_linker_0, # of connection points: 2
#     Edge 59, Type (0, 0), BuildingBlock: AJUNOK_clean_linker_0, # of connection points: 2
#     Edge 60, Type (0, 0), BuildingBlock: AJUNOK_clean_linker_0, # of connection points: 2
#     Edge 61, Type (0, 0), BuildingBlock: AJUNOK_clean_linker_0, # of connection points: 2
#     Edge 62, Type (0, 0), BuildingBlock: AJUNOK_clean_linker_0, # of connection points: 2
#     Edge 63, Type (0, 0), BuildingBlock: AJUNOK_clean_linker_0, # of connection points: 2
#     Edge 64, Type (0, 0), BuildingBlock: AJUNOK_clean_linker_0, # of connection points: 2
#     Edge 65, Type (0, 0), BuildingBlock: AJUNOK_clean_linker_0, # of connection points: 2
#     Edge 66, Type (0, 0), BuildingBlock: AJUNOK_clean_linker_0, # of connection points: 2
#     Edge 67, Type (0, 0), BuildingBlock: AJUNOK_clean_linker_0, # of connection points: 2
#     Edge 68, Type (0, 0), BuildingBlock: AJUNOK_clean_linker_0, # of connection points: 2
#     Edge 69, Type (0, 0), BuildingBlock: AJUNOK_clean_linker_0, # of connection points: 2
#     Edge 70, Type (0, 0), BuildingBlock: AJUNOK_clean_linker_0, # of connection points: 2
#     Edge 71, Type (0, 0), BuildingBlock: AJUNOK_clean_linker_0, # of connection points: 2
#     Edge 72, Type (0, 0), BuildingBlock: AJUNOK_clean_linker_0, # of connection points: 2
#     Edge 73, Type (0, 0), BuildingBlock: AJUNOK_clean_linker_0, # of connection points: 2
#     Edge 74, Type (0, 0), BuildingBlock: AJUNOK_clean_linker_0, # of connection points: 2
#     Edge 75, Type (0, 0), BuildingBlock: AJUNOK_clean_linker_0, # of connection points: 2
#     Edge 76, Type (0, 0), BuildingBlock: AJUNOK_clean_linker_0, # of connection points: 2
#     Edge 77, Type (0, 0), BuildingBlock: AJUNOK_clean_linker_0, # of connection points: 2
#     Edge 78, Type (0, 0), BuildingBlock: AJUNOK_clean_linker_0, # of connection points: 2
#     Edge 79, Type (0, 0), BuildingBlock: AJUNOK_clean_linker_0, # of connection points: 2
#     Edge 80, Type (0, 0), BuildingBlock: AJUNOK_clean_linker_0, # of connection points: 2
#     Edge 81, Type (0, 0), BuildingBlock: AJUNOK_clean_linker_0, # of connection points: 2
#     Edge 82, Type (0, 0), BuildingBlock: AJUNOK_clean_linker_0, # of connection points: 2
#     Edge 83, Type (0, 0), BuildingBlock: AJUNOK_clean_linker_0, # of connection points: 2
#     Edge 84, Type (0, 0), BuildingBlock: AJUNOK_clean_linker_0, # of connection points: 2
#     Edge 85, Type (0, 0), BuildingBlock: AJUNOK_clean_linker_0, # of connection points: 2
#     Edge 86, Type (0, 0), BuildingBlock: AJUNOK_clean_linker_0, # of connection points: 2
#     Edge 87, Type (0, 0), BuildingBlock: AJUNOK_clean_linker_0, # of connection points: 2
#     Edge 88, Type (0, 0), BuildingBlock: AJUNOK_clean_linker_0, # of connection points: 2
#     Edge 89, Type (0, 0), BuildingBlock: AJUNOK_clean_linker_0, # of connection points: 2
#     Edge 90, Type (0, 0), BuildingBlock: AJUNOK_clean_linker_0, # of connection points: 2
#     Edge 91, Type (0, 0), BuildingBlock: AJUNOK_clean_linker_0, # of connection points: 2
#     Edge 92, Type (0, 0), BuildingBlock: AJUNOK_clean_linker_0, # of connection points: 2
#     Edge 93, Type (0, 0), BuildingBlock: AJUNOK_clean_linker_0, # of connection points: 2
#     Edge 94, Type (0, 0), BuildingBlock: AJUNOK_clean_linker_0, # of connection points: 2
#     Edge 95, Type (0, 0), BuildingBlock: AJUNOK_clean_linker_0, # of connection points: 2
# Relax obj value: 0.419
# Max RMSD: 0.272
# Mean RMSD: 0.272
data_MOF--net-sxe--node1-OJICUG_clean_sbu_0--edge1-AJUNOK_clean_linker_0
_symmetry_space_group_name_H-M    P1
_symmetry_Int_Tables_number       1
_symmetry_cell_setting            triclinic
loop_
_symmetry_equiv_pos_as_xyz
'x, y, z'
_cell_length_a     37.265797
_cell_length_b     37.458346
_cell_length_c     37.26201
_cell_angle_alpha  89.868722
_cell_angle_beta   90.086998
_cell_angle_gamma 89.990562
loop_
_atom_site_label
_atom_site_type_symbol
_atom_site_fract_x
_atom_site_fract_y
_atom_site_fract_z
_atom_type_partial_charge
Sc0 Sc 0.1542 0.35963 0.19805 0.0
Sc1 Sc 0.18718 0.44505 0.18819 0.0
Sc2 Sc 0.12284 0.42641 0.25457 0.0
O3 O 0.15433 0.41071 0.21357 0.0
C4 C 0.07262 0.36794 0.22297 0.0
C5 C 0.15563 0.39604 0.12448 0.0
C6 C 0.11547 0.4894 0.19668 0.0
C7 C 0.23621 0.37959 0.18668 0.0
C8 C 0.16076 0.35522 0.28193 0.0
C9 C 0.19384 0.47056 0.26932 0.0
O10 O 0.09918 0.35024 0.2115 0.0
O11 O 0.17621 0.42042 0.13664 0.0
O12 O 0.10556 0.47342 0.2253 0.0
O13 O 0.20946 0.35932 0.18179 0.0
O14 O 0.13891 0.38094 0.28713 0.0
O15 O 0.20311 0.47214 0.23657 0.0
O16 O 0.17065 0.34494 0.25092 0.0
O17 O 0.23334 0.41194 0.19576 0.0
O18 O 0.16585 0.45442 0.27967 0.0
O19 O 0.13873 0.37467 0.14499 0.0
O20 O 0.07594 0.39934 0.23508 0.0
O21 O 0.14362 0.48095 0.17948 0.0
Sc22 Sc 0.28555 0.59814 0.71078 0.0
Sc23 Sc 0.2677 0.50743 0.69482 0.0
Sc24 Sc 0.33115 0.53348 0.76049 0.0
O25 O 0.29467 0.54628 0.72199 0.0
C26 C 0.37032 0.59752 0.72188 0.0
C27 C 0.28665 0.56263 0.63308 0.0
C28 C 0.34572 0.47318 0.70276 0.0
C29 C 0.20702 0.5659 0.70227 0.0
C30 C 0.29298 0.60085 0.79528 0.0
C31 C 0.26664 0.48027 0.7761 0.0
O32 O 0.34121 0.61214 0.71209 0.0
O33 O 0.27768 0.53156 0.64348 0.0
O34 O 0.35432 0.49149 0.72989 0.0
O35 O 0.22911 0.59094 0.70784 0.0
O36 O 0.31405 0.57436 0.7968 0.0
O37 O 0.25473 0.48025 0.74406 0.0
O38 O 0.27887 0.61203 0.76634 0.0
O39 O 0.2163 0.53376 0.69705 0.0
O40 O 0.29402 0.49802 0.78581 0.0
O41 O 0.29096 0.58887 0.65426 0.0
O42 O 0.37123 0.56785 0.73836 0.0
O43 O 0.31546 0.47614 0.68733 0.0
Sc44 Sc 0.66081 0.09549 0.77579 0.0
Sc45 Sc 0.69788 0.01118 0.77512 0.0
Sc46 Sc 0.62986 0.03423 0.71333 0.0
O47 O 0.66279 0.04675 0.75439 0.0
C48 C 0.5791 0.08819 0.75199 0.0
C49 C 0.66814 0.05235 0.84467 0.0
C50 C 0.62594 0.96688 0.7658 0.0
C51 C 0.74415 0.07721 0.78445 0.0
C52 C 0.66296 0.11016 0.69283 0.0
C53 C 0.70055 -0.0076 0.69167 0.0
O54 O 0.60539 0.10482 0.76531 0.0
O55 O 0.6892 0.03032 0.82934 0.0
O56 O 0.61428 -0.01493 0.73924 0.0
O57 O 0.7162 0.09548 0.79045 0.0
O58 O 0.64402 0.08281 0.68525 0.0
O59 O 0.71204 -0.01085 0.72363 0.0
O60 O 0.67374 0.11754 0.72448 0.0
O61 O 0.74308 0.04642 0.77049 0.0
O62 O 0.6718 0.00881 0.68413 0.0
O63 O 0.64794 0.07342 0.82702 0.0
O64 O 0.58288 0.05861 0.73602 0.0
O65 O 0.65527 0.97374 0.78181 0.0
Sc66 Sc 0.82773 0.93023 0.20116 0.0
Sc67 Sc 0.76637 0.95092 0.27081 0.0
Sc68 Sc 0.78888 0.86201 0.25216 0.0
O69 O 0.79432 0.91447 0.24139 0.0
C70 C 0.7895 0.86271 0.16673 0.0
C71 C 0.76017 -0.01847 0.19145 0.0
C72 C 0.70884 0.88974 0.26309 0.0
C73 C 0.84278 -0.01173 0.26134 0.0
C74 C 0.87233 0.8664 0.2353 0.0
C75 C 0.79165 0.89559 0.33038 0.0
O76 O 0.80779 0.89114 0.16368 0.0
O77 O 0.74921 0.97909 0.22363 0.0
O78 O 0.7322 0.86602 0.25687 0.0
O79 O 0.85188 0.97105 0.23352 0.0
O80 O 0.84501 0.85122 0.24852 0.0
O81 O 0.78033 0.92618 0.32091 0.0
O82 O 0.87042 0.89547 0.2178 0.0
O83 O 0.81276 -0.01605 0.2768 0.0
O84 O 0.79625 0.87002 0.30855 0.0
O85 O 0.78835 0.96623 0.18013 0.0
O86 O 0.78049 0.84945 0.19679 0.0
O87 O 0.71639 0.92213 0.26927 0.0
Sc88 Sc 0.26236 0.13419 0.43464 0.0
Sc89 Sc 0.19467 0.19914 0.44884 0.0
Sc90 Sc 0.21432 0.16923 0.36204 0.0
O91 O 0.22367 0.16746 0.41523 0.0
C92 C 0.2999 0.16826 0.36684 0.0
C93 C 0.27263 0.20497 0.48137 0.0
C94 C 0.20367 0.25086 0.38215 0.0
C95 C 0.20101 0.12554 0.49246 0.0
C96 C 0.23056 0.08648 0.3716 0.0
C97 C 0.13531 0.17129 0.3946 0.0
O98 O 0.30191 0.15261 0.39699 0.0
O99 O 0.24193 0.21843 0.47534 0.0
O100 O 0.21128 0.22573 0.3609 0.0
O101 O 0.22695 0.11283 0.47452 0.0
O102 O 0.21633 0.11271 0.35549 0.0
O103 O 0.14489 0.18319 0.42505 0.0
O104 O 0.24819 0.09006 0.40053 0.0
O105 O 0.18844 0.15663 0.48702 0.0
O106 O 0.15728 0.16495 0.36929 0.0
O107 O 0.28205 0.17433 0.47036 0.0
O108 O 0.27047 0.17513 0.35097 0.0
O109 O 0.19602 0.24595 0.41494 0.0
Sc110 Sc 0.2742 0.79702 0.86462 0.0
Sc111 Sc 0.2785 0.7697 0.95282 0.0
Sc112 Sc 0.21277 0.83116 0.92547 0.0
O113 O 0.25487 0.79952 0.91453 0.0
C114 C 0.24869 0.87815 0.86593 0.0
C115 C 0.34495 0.79684 0.90525 0.0
C116 C 0.26819 0.84486 -0.01026 0.0
C117 C 0.28194 0.71654 0.89082 0.0
C118 C 0.19086 0.78928 0.8543 0.0
C119 C 0.19644 0.76575 0.97641 0.0
O120 O 0.26214 0.85118 0.8506 0.0
O121 O 0.33139 0.77697 0.92951 0.0
O122 O 0.23961 0.85225 0.97232 0.0
O123 O 0.28966 0.74189 0.86955 0.0
O124 O 0.18337 0.81114 0.87945 0.0
O125 O 0.2292 0.75734 0.98038 0.0
O126 O 0.22277 0.78014 0.84631 0.0
O127 O 0.27096 0.72152 0.92258 0.0
O128 O 0.18642 0.79076 0.95584 0.0
O129 O 0.3256 0.81375 0.8829 0.0
O130 O 0.23322 0.8759 0.89607 0.0
O131 O 0.28644 0.81658 -0.01547 0.0
Sc132 Sc 0.75202 0.32699 0.53766 0.0
Sc133 Sc 0.68839 0.26115 0.51605 0.0
Sc134 Sc 0.68525 0.303 0.59749 0.0
O135 O 0.70885 0.29758 0.54987 0.0
C136 C 0.76714 0.29318 0.61497 0.0
C137 C 0.77175 0.25427 0.49853 0.0
C138 C 0.6795 0.22126 0.58691 0.0
C139 C 0.70135 0.33034 0.46829 0.0
C140 C 0.71561 0.38179 0.58911 0.0
C141 C 0.61885 0.29747 0.55217 0.0
O142 O 0.77707 0.31198 0.58804 0.0
O143 O 0.73946 0.24403 0.49499 0.0
O144 O 0.66523 0.24971 0.59807 0.0
O145 O 0.72778 0.34161 0.487 0.0
O146 O 0.7002 0.35712 0.60631 0.0
O147 O 0.63401 0.27299 0.53378 0.0
O148 O 0.73166 0.37602 0.55975 0.0
O149 O 0.68384 0.30195 0.47571 0.0
O150 O 0.63687 0.31907 0.57141 0.0
O151 O 0.77993 0.28305 0.51425 0.0
O152 O 0.73442 0.28573 0.62189 0.0
O153 O 0.69371 0.21944 0.55604 0.0
Sc154 Sc 0.70999 0.62754 0.03393 0.0
Sc155 Sc 0.77504 0.69266 0.01012 0.0
Sc156 Sc 0.76099 0.6695 0.10027 0.0
O157 O 0.74876 0.66319 0.04798 0.0
C158 C 0.67588 0.66501 0.10215 0.0
C159 C 0.69436 0.69357 0.98218 0.0
C160 C 0.76603 0.74963 0.072 0.0
C161 C 0.76876 0.61567 0.97335 0.0
C162 C 0.74855 0.58575 0.09749 0.0
C163 C 0.83779 0.67118 0.06372 0.0
O164 O 0.6727 0.64615 0.07405 0.0
O165 O 0.7258 0.70665 -0.01642 0.0
O166 O 0.76244 0.72596 0.09598 0.0
O167 O 0.74233 0.60512 -0.00795 0.0
O168 O 0.76079 0.61376 0.11191 0.0
O169 O 0.82688 0.6822 0.03332 0.0
O170 O 0.73005 0.58644 0.06885 0.0
O171 O 0.78259 0.64653 0.9766 0.0
O172 O 0.81705 0.6651 0.09002 0.0
O173 O 0.68556 0.66484 -0.00204 0.0
O174 O 0.70589 0.67524 0.11454 0.0
O175 O 0.77116 0.74252 0.03913 0.0
Sc176 Sc 0.36293 0.20518 0.18017 0.0
Sc177 Sc 0.45425 0.19382 0.19907 0.0
Sc178 Sc 0.42535 0.25599 0.13366 0.0
O179 O 0.41433 0.2183 0.1711 0.0
C180 C 0.36294 0.21565 0.09521 0.0
C181 C 0.40081 0.12988 0.18125 0.0
C182 C 0.48836 0.2002 0.12132 0.0
C183 C 0.3958 0.20064 0.25914 0.0
C184 C 0.35558 0.28766 0.17101 0.0
C185 C 0.47762 0.27602 0.19746 0.0
O186 O 0.34797 0.20817 0.12481 0.0
O187 O 0.43062 0.14167 0.19294 0.0
O188 O 0.47088 0.22806 0.11311 0.0
O189 O 0.37052 0.20094 0.23646 0.0
O190 O 0.38056 0.28924 0.14798 0.0
O191 O 0.48097 0.24397 0.20842 0.0
O192 O 0.34788 0.25961 0.18846 0.0
O193 O 0.42871 0.19981 0.25063 0.0
O194 O 0.45751 0.28485 0.17131 0.0
O195 O 0.37452 0.14989 0.17298 0.0
O196 O 0.3938 0.22989 0.09347 0.0
O197 O 0.48431 0.18393 0.15097 0.0
Sc198 Sc 0.93137 0.20318 0.83643 0.0
Sc199 Sc 0.9429 0.26063 0.76386 0.0
Sc200 Sc 0.86065 0.25422 0.80732 0.0
O201 O 0.91163 0.23959 0.8023 0.0
C202 C 0.85888 0.16963 0.8182 0.0
C203 C 0.96854 0.18185 0.76347 0.0
C204 C 0.86762 0.25206 0.72406 0.0
C205 C -0.00788 0.25899 0.83409 0.0
C206 C 0.87607 0.24477 0.88682 0.0
C207 C 0.8999 0.32768 0.78777 0.0
O208 O 0.89258 0.16507 0.81911 0.0
O209 O 0.95724 0.20826 0.74528 0.0
O210 O 0.85056 0.24329 0.75217 0.0
O211 O 0.97051 0.241 0.85339 0.0
O212 O 0.86729 0.26684 0.86264 0.0
O213 O 0.92994 0.31429 0.779 0.0
O214 O 0.89654 0.21844 0.88027 0.0
O215 O -0.01181 0.26276 0.80026 0.0
O216 O 0.87246 0.30904 0.79556 0.0
O217 O 0.96746 0.18106 0.79752 0.0
O218 O 0.84392 0.20023 0.81957 0.0
O219 O 0.90028 0.262 0.7244 0.0
Sc220 Sc 0.53721 0.75437 0.33538 0.0
Sc221 Sc 0.51811 0.68852 0.2699 0.0
Sc222 Sc 0.60695 0.70776 0.294 0.0
O223 O 0.55401 0.71672 0.29984 0.0
C224 C 0.60247 0.79229 0.29634 0.0
C225 C 0.48637 0.76727 0.26759 0.0
C226 C 0.58042 0.69742 0.21336 0.0
C227 C 0.47941 0.69334 0.34644 0.0
C228 C 0.60313 0.7222 0.37813 0.0
C229 C 0.57471 0.62939 0.29422 0.0
O230 O 0.57498 0.79369 0.31637 0.0
O231 O 0.49023 0.73645 0.25386 0.0
O232 O 0.60377 0.70347 0.23723 0.0
O233 O 0.49738 0.7197 0.35795 0.0
O234 O 0.61858 0.71106 0.35007 0.0
O235 O 0.54384 0.63858 0.28272 0.0
O236 O 0.57277 0.73747 0.37732 0.0
O237 O 0.48356 0.68055 0.31518 0.0
O238 O 0.59992 0.65147 0.30026 0.0
O239 O 0.50032 0.77607 0.29737 0.0
O240 O 0.61687 0.76333 0.28614 0.0
O241 O 0.5477 0.69155 0.22034 0.0
Sc242 Sc 0.10975 0.74681 0.66133 0.0
Sc243 Sc 0.02435 0.76441 0.69596 0.0
Sc244 Sc 0.03588 0.70131 0.62619 0.0
O245 O 0.05658 0.73761 0.66111 0.0
C246 C 0.09794 0.73415 0.57804 0.0
C247 C 0.07784 0.825 0.66841 0.0
C248 C 0.97943 0.76429 0.62263 0.0
C249 C 0.09252 0.75234 0.74467 0.0
C250 C 0.10389 0.66193 0.65792 0.0
C251 C -0.00888 0.68676 0.69773 0.0
O252 O 0.115 0.74653 0.60458 0.0
O253 O 0.04868 0.81474 0.68278 0.0
O254 O -0.00387 0.73858 0.60797 0.0
O255 O 0.11288 0.74833 0.71793 0.0
O256 O 0.07366 0.66076 0.64221 0.0
O257 O -0.00239 0.7164 0.71287 0.0
O258 O 0.12019 0.69073 0.66564 0.0
O259 O 0.0592 0.75853 0.74186 0.0
O260 O 0.00106 0.67951 0.66606 0.0
O261 O 0.10227 0.80345 0.65846 0.0
O262 O 0.06873 0.7172 0.58159 0.0
O263 O -0.01432 0.77452 0.65452 0.0
Sc264 Sc 0.83515 0.53321 0.70691 0.0
Sc265 Sc 0.77078 0.50707 0.77074 0.0
Sc266 Sc 0.80042 0.59411 0.7677 0.0
O267 O 0.80225 0.54452 0.74821 0.0
C268 C 0.88253 0.59046 0.74453 0.0
C269 C 0.84469 0.46687 0.76013 0.0
C270 C 0.79958 0.55227 0.83832 0.0
C271 C 0.7674 0.48648 0.68743 0.0
C272 C 0.79712 0.60643 0.68466 0.0
C273 C 0.71885 0.5702 0.77571 0.0
O274 O 0.88044 0.55993 0.73014 0.0
O275 O 0.81634 0.47311 0.77807 0.0
O276 O 0.81586 0.57536 0.8194 0.0
O277 O 0.79399 0.50555 0.67843 0.0
O278 O 0.78511 0.61312 0.71594 0.0
O279 O 0.72305 0.53863 0.76439 0.0
O280 O 0.81877 0.58088 0.67814 0.0
O281 O 0.75781 0.48235 0.71994 0.0
O282 O 0.74487 0.59089 0.78256 0.0
O283 O 0.85358 0.48474 0.73241 0.0
O284 O 0.85516 0.60656 0.75636 0.0
O285 O 0.77921 0.52849 0.82456 0.0
Sc286 Sc 0.67111 0.3608 0.24876 0.0
Sc287 Sc 0.70397 0.4445 0.27082 0.0
Sc288 Sc 0.63737 0.43513 0.20537 0.0
O289 O 0.67046 0.41345 0.24184 0.0
C290 C 0.66364 0.36803 0.16378 0.0
C291 C 0.75099 0.37451 0.26119 0.0
C292 C 0.71121 0.47659 0.19448 0.0
C293 C 0.67757 0.39185 0.32882 0.0
C294 C 0.58903 0.3724 0.23772 0.0
C295 C 0.6329 0.49142 0.26595 0.0
O296 O 0.66649 0.34985 0.19245 0.0
O297 O 0.74572 0.40465 0.27571 0.0
O298 O 0.67768 0.47266 0.18912 0.0
O299 O 0.67643 0.36658 0.306 0.0
O300 O 0.59415 0.39884 0.21687 0.0
O301 O 0.66623 0.48814 0.27259 0.0
O302 O 0.61424 0.35798 0.25553 0.0
O303 O 0.68227 0.42441 0.32014 0.0
O304 O 0.61627 0.47061 0.24488 0.0
O305 O 0.72772 0.35981 0.24137 0.0
O306 O 0.65594 0.40098 0.1631 0.0
O307 O 0.72736 0.46484 0.22221 0.0
Sc308 Sc 0.29766 0.86354 0.19702 0.0
Sc309 Sc 0.26817 0.95102 0.19383 0.0
Sc310 Sc 0.33351 0.92461 0.25701 0.0
O311 O 0.29976 0.9133 0.21623 0.0
C312 C 0.2956 0.85166 0.28014 0.0
C313 C 0.21625 0.88789 0.18696 0.0
C314 C 0.26619 0.97231 0.27686 0.0
C315 C 0.29647 0.90604 0.12633 0.0
C316 C 0.37989 0.86639 0.21952 0.0
C317 C 0.34273 -0.00915 0.20398 0.0
O318 O 0.283 0.84455 0.24913 0.0
O319 O 0.21994 0.91953 0.19838 0.0
O320 O 0.29324 0.95363 0.28547 0.0
O321 O 0.31227 0.88222 0.14493 0.0
O322 O 0.37833 0.89695 0.23393 0.0
O323 O 0.31358 -0.01461 0.18702 0.0
O324 O 0.35228 0.85062 0.20791 0.0
O325 O 0.27707 0.93033 0.14032 0.0
O326 O 0.35239 0.9723 0.23096 0.0
O327 O 0.24243 0.86691 0.18232 0.0
O328 O 0.31696 0.87754 0.28624 0.0
O329 O 0.25528 0.97525 0.24463 0.0
Sc330 Sc 0.1521 0.09941 0.70833 0.0
Sc331 Sc 0.1956 0.0185 0.69319 0.0
Sc332 Sc 0.12634 0.02481 0.75584 0.0
O333 O 0.15815 0.04747 0.71884 0.0
C334 C 0.14649 0.09513 0.79353 0.0
C335 C 0.23586 0.09214 0.708 0.0
C336 C 0.20078 -0.01397 0.76995 0.0
C337 C 0.1685 0.0672 0.6306 0.0
C338 C 0.07289 0.0815 0.71964 0.0
C339 C 0.12623 0.96775 0.69553 0.0
O340 O 0.14299 0.1124 0.76423 0.0
O341 O 0.23537 0.06056 0.69543 0.0
O342 O 0.16715 -0.01113 0.77443 0.0
O343 O 0.16104 0.09261 0.65188 0.0
O344 O 0.08095 0.05912 0.74409 0.0
O345 O 0.15907 0.97403 0.68821 0.0
O346 O 0.09618 0.09334 0.698 0.0
O347 O 0.1781 0.0365 0.64143 0.0
O348 O 0.10801 -0.01315 0.71709 0.0
O349 O 0.20772 0.10878 0.71733 0.0
O350 O 0.14525 0.06138 0.79551 0.0
O351 O 0.21697 -0.00169 0.7427 0.0
Sc352 Sc 0.7128 0.83694 0.53257 0.0
Sc353 Sc 0.77853 0.77007 0.51878 0.0
Sc354 Sc 0.76479 0.80617 0.6043 0.0
O355 O 0.75216 0.80449 0.55177 0.0
C356 C 0.74619 0.88791 0.59201 0.0
C357 C 0.7725 0.84191 0.47234 0.0
C358 C 0.84142 0.80056 0.5684 0.0
C359 C 0.6995 0.76501 0.48837 0.0
C360 C 0.67926 0.80477 0.60351 0.0
C361 C 0.77246 0.72296 0.58856 0.0
O362 O 0.72792 0.88283 0.56375 0.0
O363 O 0.78512 0.81105 0.47898 0.0
O364 O 0.82087 0.81176 0.59321 0.0
O365 O 0.69104 0.7959 0.49933 0.0
O366 O 0.7095 0.79906 0.61832 0.0
O367 O 0.77511 0.72496 0.55471 0.0
O368 O 0.67543 0.81965 0.57307 0.0
O369 O 0.73012 0.75128 0.49389 0.0
O370 O 0.76973 0.75004 0.60852 0.0
O371 O 0.74698 0.85572 0.49024 0.0
O372 O 0.76132 0.86268 0.60876 0.0
O373 O 0.82983 0.78454 0.54069 0.0
Sc374 Sc 0.75341 0.14007 0.04246 0.0
Sc375 Sc 0.68911 0.19981 0.00948 0.0
Sc376 Sc 0.68945 0.17585 0.0988 0.0
O377 O 0.71109 0.17203 0.05008 0.0
C378 C 0.71403 0.09456 0.09953 0.0
C379 C 0.70274 0.12454 0.97493 0.0
C380 C 0.62113 0.17217 0.05399 0.0
C381 C 0.77316 0.20436 -0.00769 0.0
C382 C 0.77086 0.18122 0.11598 0.0
C383 C 0.68153 0.25518 0.06889 0.0
O384 O 0.72889 0.09586 0.06906 0.0
O385 O 0.68282 0.15175 0.97937 0.0
O386 O 0.63987 0.1571 0.07806 0.0
O387 O 0.7821 0.18102 0.01524 0.0
O388 O 0.73942 0.19385 0.11999 0.0
O389 O 0.69445 0.24907 0.03808 0.0
O390 O 0.77867 0.15842 0.09173 0.0
O391 O 0.7405 0.21111 -0.01529 0.0
O392 O 0.67332 0.23063 0.09097 0.0
O393 O 0.7313 0.11908 -0.00696 0.0
O394 O 0.70211 0.12226 0.11491 0.0
O395 O 0.63488 0.19262 0.03024 0.0
Sc396 Sc 0.2676 0.65236 0.35936 0.0
Sc397 Sc 0.27487 0.68784 0.44579 0.0
Sc398 Sc 0.21136 0.621 0.42693 0.0
O399 O 0.25161 0.65358 0.41075 0.0
C400 C 0.18199 0.6522 0.35459 0.0
C401 C 0.27133 0.73523 0.37548 0.0
C402 C 0.19442 0.69213 0.46982 0.0
C403 C 0.34176 0.66056 0.4016 0.0
C404 C 0.24934 0.57166 0.36823 0.0
C405 C 0.26603 0.61484 0.49039 0.0
O406 O 0.21312 0.65328 0.34062 0.0
O407 O 0.27696 0.73218 0.40892 0.0
O408 O 0.18908 0.6595 0.46271 0.0
O409 O 0.32321 0.65302 0.37396 0.0
O410 O 0.22589 0.5778 0.39207 0.0
O411 O 0.27572 0.64724 0.48667 0.0
O412 O 0.27058 0.59552 0.35697 0.0
O413 O 0.32815 0.67202 0.43063 0.0
O414 O 0.24466 0.59925 0.46879 0.0
O415 O 0.26618 0.70888 0.35492 0.0
O416 O 0.17599 0.64221 0.38663 0.0
O417 O 0.22385 0.70782 0.46329 0.0
Sc418 Sc 0.25565 0.32133 0.93411 0.0
Sc419 Sc 0.1882 0.25729 0.94965 0.0
Sc420 Sc 0.21211 0.28172 0.8624 0.0
O421 O 0.2185 0.28667 0.9156 0.0
C422 C 0.22799 0.36524 0.86941 0.0
C423 C 0.19285 0.33109 -0.00892 0.0
C424 C 0.13269 0.28489 0.89003 0.0
C425 C 0.26684 0.25286 -0.01699 0.0
C426 C 0.29528 0.28464 0.86806 0.0
C427 C 0.19479 0.20204 0.88735 0.0
O428 O 0.23559 0.36474 0.90256 0.0
O429 O 0.17683 0.30237 -0.01702 0.0
O430 O 0.15623 0.29397 0.86702 0.0
O431 O 0.27842 0.2804 0.96676 0.0
O432 O 0.26775 0.26852 0.85608 0.0
O433 O 0.19379 0.20797 0.92076 0.0
O434 O 0.2939 0.30776 0.89293 0.0
O435 O 0.23436 0.24242 0.98129 0.0
O436 O 0.19948 0.22629 0.86419 0.0
O437 O 0.2225 0.34008 0.97709 0.0
O438 O 0.22276 0.33692 0.85155 0.0
O439 O 0.14039 0.26972 0.91974 0.0
Sc440 Sc 0.60392 0.7498 0.78844 0.0
Sc441 Sc 0.51576 0.76797 0.76227 0.0
Sc442 Sc 0.53454 0.69991 0.8247 0.0
O443 O 0.55138 0.73927 0.79177 0.0
C444 C 0.60285 0.66449 0.79268 0.0
C445 C 0.5811 0.75947 0.70816 0.0
C446 C 0.48471 0.6908 0.75556 0.0
C447 C 0.5685 0.82759 0.7866 0.0
C448 C 0.59816 0.7345 0.87046 0.0
C449 C 0.47664 0.75884 0.8381 0.0
O450 O 0.6188 0.69433 0.7898 0.0
O451 O 0.5501 0.77139 0.71571 0.0
O452 O 0.49497 0.68239 0.787 0.0
O453 O 0.59507 0.80633 0.78708 0.0
O454 O 0.57297 0.71211 0.86595 0.0
O455 O 0.47772 0.76973 0.80573 0.0
O456 O 0.61 0.75397 0.84525 0.0
O457 O 0.53646 0.81777 0.78082 0.0
O458 O 0.49779 0.73527 0.85041 0.0
O459 O 0.60231 0.74643 0.73139 0.0
O460 O 0.57034 0.66127 0.80205 0.0
O461 O 0.49234 0.72036 0.74072 0.0
Sc462 Sc 0.03381 0.7578 0.1306 0.0
Sc463 Sc 0.01631 0.69473 0.19773 0.0
Sc464 Sc 0.10329 0.70712 0.1652 0.0
O465 O 0.0512 0.71972 0.16464 0.0
C466 C 0.09606 0.72202 0.08388 0.0
C467 C 0.97495 0.69985 0.12257 0.0
C468 C 0.0647 0.63108 0.17316 0.0
C469 C -0.01348 0.77218 0.20009 0.0
C470 C 0.10324 0.79263 0.15982 0.0
C471 C 0.08545 0.70138 0.24739 0.0
O472 O 0.07199 0.7454 0.08922 0.0
O473 O 0.97621 0.69264 0.15599 0.0
O474 O 0.09209 0.65091 0.16885 0.0
O475 O -0.00595 0.7769 0.16721 0.0
O476 O 0.11915 0.76254 0.16148 0.0
O477 O 0.05295 0.69231 0.24262 0.0
O478 O 0.07017 0.79626 0.15252 0.0
O479 O -0.00372 0.74469 0.21751 0.0
O480 O 0.10571 0.71171 0.22208 0.0
O481 O -0.0032 0.72098 0.10726 0.0
O482 O 0.10628 0.70087 0.10835 0.0
O483 O 0.03386 0.64289 0.18138 0.0
Sc484 Sc 0.42394 0.20876 0.63949 0.0
Sc485 Sc 0.45532 0.27177 0.70143 0.0
Sc486 Sc 0.36659 0.27173 0.67601 0.0
O487 O 0.41546 0.25028 0.67227 0.0
C488 C 0.36564 0.24818 0.59417 0.0
C489 C 0.48954 0.26189 0.6247 0.0
C490 C 0.41088 0.33988 0.67436 0.0
C491 C 0.47463 0.18873 0.70416 0.0
C492 C 0.35135 0.18993 0.68189 0.0
C493 C 0.39486 0.27681 0.75623 0.0
O494 O 0.39551 0.23219 0.59553 0.0
O495 O 0.48583 0.27947 0.65363 0.0
O496 O 0.38722 0.32151 0.65837 0.0
O497 O 0.45318 0.17996 0.67934 0.0
O498 O 0.3458 0.22155 0.693 0.0
O499 O 0.42591 0.26449 0.75027 0.0
O500 O 0.37607 0.18201 0.65947 0.0
O501 O 0.48065 0.22107 0.71252 0.0
O502 O 0.37361 0.28655 0.73142 0.0
O503 O 0.47187 0.23351 0.61768 0.0
O504 O 0.35073 0.26069 0.62192 0.0
O505 O 0.4343 0.32567 0.69492 0.0
Sc506 Sc 0.86035 0.19369 0.32017 0.0
Sc507 Sc 0.94204 0.1912 0.27472 0.0
Sc508 Sc 0.92848 0.24973 0.34612 0.0
O509 O 0.91056 0.21099 0.3136 0.0
C510 C 0.85361 0.27741 0.32477 0.0
C511 C 0.86622 0.19902 0.23593 0.0
C512 C 0.96661 0.27078 0.27319 0.0
C513 C 0.90164 0.12202 0.2992 0.0
C514 C 0.87607 0.20653 0.39881 0.0
C515 C -0.00822 0.19572 0.3451 0.0
O516 O 0.84101 0.2466 0.33187 0.0
O517 O 0.89949 0.19126 0.23519 0.0
O518 O 0.96342 0.27327 0.30696 0.0
O519 O 0.87419 0.13942 0.30918 0.0
O520 O 0.89474 0.23377 0.39066 0.0
O521 O -0.01339 0.18925 0.31183 0.0
O522 O 0.86866 0.18279 0.37585 0.0
O523 O 0.93033 0.1368 0.28849 0.0
O524 O 0.97071 0.21499 0.36389 0.0
O525 O 0.84864 0.20341 0.26479 0.0
O526 O 0.88699 0.28419 0.32623 0.0
O527 O 0.95647 0.24347 0.25592 0.0
C528 C 0.23966 0.5165 0.28521 0.0
C529 C 0.215 0.49036 0.29636 0.0
C530 C 0.25461 0.54036 0.30981 0.0
C531 C 0.24516 0.5391 0.34638 0.0
H532 H 0.24562 0.52027 0.25701 0.0
H533 H 0.27099 0.5619 0.29938 0.0
S534 S 0.1904 0.46915 0.39065 0.0
N535 N 0.1883 0.45952 0.34749 0.0
N536 N 0.21602 0.50497 0.39362 0.0
C537 C 0.22428 0.5103 0.35848 0.0
C538 C 0.20918 0.48584 0.33347 0.0
C539 C 0.21866 0.39985 0.81323 0.0
C540 C 0.23024 0.39911 0.8492 0.0
C541 C 0.22842 0.42766 0.7903 0.0
C542 C 0.25015 0.4558 0.80247 0.0
H543 H 0.20373 0.37771 0.80199 0.0
H544 H 0.22073 0.42574 0.76233 0.0
S545 S 0.27999 0.47096 0.89638 0.0
N546 N 0.25912 0.43212 0.89753 0.0
N547 N 0.27724 0.48476 0.85437 0.0
C548 C 0.25851 0.45747 0.83932 0.0
C549 C 0.24852 0.42906 0.86275 0.0
C550 C 0.71302 0.9442 0.60379 0.0
C551 C 0.74291 0.92242 0.61092 0.0
C552 C 0.70116 0.96905 0.62902 0.0
C553 C 0.71879 0.97305 0.66226 0.0
H554 H 0.69658 0.93982 0.58021 0.0
H555 H 0.67639 -0.01686 0.62338 0.0
S556 S 0.80514 0.93091 0.68834 0.0
N557 N 0.79491 0.91265 0.64936 0.0
N558 N 0.77249 0.95941 0.69699 0.0
C559 C 0.75157 0.95515 0.66739 0.0
C560 C 0.76373 0.92988 0.64157 0.0
C561 C 0.72224 0.03507 0.18053 0.0
C562 C 0.74113 0.00572 0.16674 0.0
C563 C 0.71035 0.06238 0.15792 0.0
C564 C 0.71699 0.0613 0.12073 0.0
H565 H 0.71877 0.03829 0.20921 0.0
H566 H 0.69823 0.08563 0.17018 0.0
S567 S 0.75646 -0.01472 0.07059 0.0
N568 N 0.75952 0.97349 0.1132 0.0
N569 N 0.73707 0.02491 0.07047 0.0
C570 C 0.73202 0.03003 0.10622 0.0
C571 C 0.74424 0.00225 0.12932 0.0
C572 C 0.30753 0.25455 0.56161 0.0
C573 C 0.34444 0.24633 0.56066 0.0
C574 C 0.28452 0.24359 0.53413 0.0
C575 C 0.29771 0.22409 0.50489 0.0
H576 H 0.2957 0.26709 0.58494 0.0
H577 H 0.25596 0.24798 0.53726 0.0
S578 S 0.3931 0.20485 0.48449 0.0
N579 N 0.39396 0.22432 0.52419 0.0
N580 N 0.35042 0.20348 0.47265 0.0
C581 C 0.33494 0.21954 0.50143 0.0
C582 C 0.35844 0.23084 0.52928 0.0
C583 C 0.10909 0.75147 0.02549 0.0
C584 C 0.11787 0.72497 0.05081 0.0
C585 C 0.13401 0.76288 7e-05 0.0
C586 C 0.16878 0.74821 -0.00118 0.0
H587 H 0.08364 0.76541 0.02678 0.0
H588 H 0.12647 0.78489 0.98273 0.0
S589 S 0.20186 0.67146 0.05269 0.0
N590 N 0.16126 0.67942 0.06841 0.0
N591 N 0.20826 0.70103 0.02042 0.0
C592 C 0.17651 0.71888 0.02116 0.0
C593 C 0.15097 0.70712 0.04711 0.0
C594 C 0.81805 0.1961 0.43001 0.0
C595 C 0.85361 0.20876 0.43137 0.0
C596 C 0.79205 0.20877 0.45388 0.0
C597 C 0.80076 0.23433 0.4801 0.0
H598 H 0.8093 0.17899 0.40829 0.0
H599 H 0.76449 0.20049 0.44985 0.0
S600 S 0.8924 0.26743 0.50131 0.0
N601 N 0.89779 0.24218 0.46547 0.0
N602 N 0.84923 0.2655 0.51101 0.0
C603 C 0.83723 0.24335 0.48474 0.0
C604 C 0.8636 0.23064 0.46022 0.0
C605 C 0.65507 0.74416 0.90395 0.0
C606 C 0.61912 0.73263 0.90403 0.0
C607 C 0.67887 0.73339 0.93084 0.0
C608 C 0.6675 0.71085 0.95879 0.0
H609 H 0.66579 0.75924 0.88156 0.0
H610 H 0.70685 0.74081 0.92824 0.0
S611 S 0.5739 0.68188 0.97665 0.0
N612 N 0.57164 0.70373 0.93819 0.0
N613 N 0.61641 0.68359 -0.01097 0.0
C614 C 0.63072 0.70275 0.96151 0.0
C615 C 0.60647 0.7137 0.93407 0.0
C616 C 0.50495 0.33668 0.19562 0.0
C617 C 0.50042 0.30398 0.21369 0.0
C618 C 0.53143 0.36081 0.20614 0.0
C619 C 0.55453 0.3531 0.23505 0.0
H620 H 0.48959 0.34283 0.17168 0.0
H621 H 0.53551 0.38428 0.1896 0.0
S622 S 0.54674 0.27612 0.2975 0.0
N623 N 0.51596 0.26872 0.26649 0.0
N624 N 0.56601 0.3142 0.28627 0.0
C625 C 0.54731 0.32267 0.25606 0.0
C626 C 0.52027 0.298 0.24531 0.0
C627 C 0.00989 0.15973 0.71603 0.0
C628 C -0.01255 0.15253 0.74534 0.0
C629 C 0.03504 0.13445 0.70466 0.0
C630 C 0.03858 0.10128 0.7224 0.0
H631 H 0.01021 0.18601 0.70382 0.0
H632 H 0.05388 0.1424 0.68403 0.0
S633 S 0.97783 0.06601 0.79289 0.0
N634 N 0.96425 0.10745 0.7862 0.0
N635 N 0.01151 0.05976 0.76485 0.0
C636 C 0.01272 0.09211 0.74827 0.0
C637 C -0.01279 0.11789 0.75986 0.0
C638 C 0.46247 0.82927 0.26325 0.0
C639 C 0.46389 0.79436 0.24926 0.0
C640 C 0.43756 0.85411 0.25064 0.0
C641 C 0.41295 0.84499 0.22361 0.0
H642 H 0.47951 0.83714 0.28544 0.0
H643 H 0.43587 0.87961 0.2642 0.0
S644 S 0.41138 0.76043 0.17178 0.0
N645 N 0.44289 0.75425 0.20236 0.0
N646 N 0.396 0.8012 0.17845 0.0
C647 C 0.41677 0.81168 0.20654 0.0
C648 C 0.44221 0.78626 0.21945 0.0
C649 C 0.91669 0.647 0.75305 0.0
C650 C 0.91613 0.61128 0.74112 0.0
C651 C 0.94274 0.67096 0.74092 0.0
C652 C 0.96916 0.65998 0.71657 0.0
H653 H 0.89536 0.65739 0.76976 0.0
H654 H 0.94054 0.69874 0.74865 0.0
S655 S -0.01407 0.5674 0.68552 0.0
N656 N 0.94893 0.56458 0.70965 0.0
N657 N -0.00196 0.60976 0.68701 0.0
C658 C 0.97164 0.6235 0.70802 0.0
C659 C 0.94515 0.59904 0.7204 0.0
C660 C 0.7534 0.4352 0.60121 0.0
C661 C 0.72197 0.4157 0.60833 0.0
C662 C 0.76671 0.4598 0.62606 0.0
C663 C 0.74908 0.46583 0.65893 0.0
H664 H 0.76954 0.42933 0.57779 0.0
H665 H 0.79229 0.47232 0.62039 0.0
S666 S 0.66072 0.4288 0.68569 0.0
N667 N 0.66979 0.40934 0.64704 0.0
N668 N 0.69493 0.45559 0.69388 0.0
C669 C 0.71553 0.44959 0.66443 0.0
C670 C 0.70189 0.42463 0.63902 0.0
C671 C 0.71868 0.49678 0.13191 0.0
C672 C 0.73068 0.49777 0.16766 0.0
C673 C 0.72831 0.52339 0.10759 0.0
C674 C 0.74997 0.55215 0.11839 0.0
H675 H 0.6995 0.47675 0.12335 0.0
H676 H 0.71594 0.52297 0.08127 0.0
S677 S 0.7968 0.5608 0.2061 0.0
N678 N 0.7714 0.52495 0.21059 0.0
N679 N 0.79006 0.57526 0.16473 0.0
C680 C 0.76638 0.55047 0.15254 0.0
C681 C 0.75653 0.52316 0.17733 0.0
C682 C 0.21627 0.04964 0.31781 0.0
C683 C 0.23157 0.05189 0.35234 0.0
C684 C 0.22527 0.02197 0.29445 0.0
C685 C 0.24979 -0.0047 0.30472 0.0
H686 H 0.19921 0.07077 0.30757 0.0
H687 H 0.21478 0.02304 0.26734 0.0
S688 S 0.28883 -0.01691 0.3958 0.0
N689 N 0.26625 0.0209 0.39827 0.0
N690 N 0.28293 0.96853 0.35444 0.0
C691 C 0.2615 -0.0054 0.34073 0.0
C692 C 0.2524 0.02296 0.36455 0.0
C693 C 0.2568 0.91218 0.80882 0.0
C694 C 0.24519 0.91157 0.84486 0.0
C695 C 0.24477 0.93848 0.78496 0.0
C696 C 0.22076 0.96487 0.79642 0.0
H697 H 0.2731 0.89076 0.79814 0.0
H698 H 0.25197 0.93639 0.75687 0.0
S699 S 0.19035 -0.01864 0.88951 0.0
N700 N 0.21442 0.94443 0.89218 0.0
N701 N 0.19151 -0.00651 0.84691 0.0
C702 C 0.21243 0.96719 0.83303 0.0
C703 C 0.22486 0.94066 0.85744 0.0
C704 C 0.63719 0.75793 0.46568 0.0
C705 C 0.673 0.746 0.46593 0.0
C706 C 0.61322 0.74689 0.43917 0.0
C707 C 0.62424 0.72365 0.41174 0.0
H708 H 0.62809 0.77771 0.48479 0.0
H709 H 0.58684 0.75904 0.43867 0.0
S710 S 0.71199 0.67695 0.4063 0.0
N711 N 0.71612 0.70404 0.44094 0.0
N712 N 0.67084 0.683 0.39101 0.0
C713 C 0.65848 0.70788 0.41445 0.0
C714 C 0.68297 0.71915 0.44159 0.0
C715 C 0.81857 0.25657 0.91834 0.0
C716 C 0.85399 0.2435 0.91965 0.0
C717 C 0.79302 0.24569 0.9435 0.0
C718 C 0.80202 0.22165 0.97112 0.0
H719 H 0.80954 0.27283 0.896 0.0
H720 H 0.76557 0.2545 0.93982 0.0
S721 S 0.89365 0.18771 -0.00828 0.0
N722 N 0.89849 0.21102 0.9544 0.0
N723 N 0.85081 0.19099 0.00239 0.0
C724 C 0.83846 0.21204 0.97528 0.0
C725 C 0.86437 0.2229 0.94937 0.0
C726 C 0.15157 0.74846 0.54099 0.0
C727 C 0.11702 0.73321 0.54328 0.0
C728 C 0.17591 0.73741 0.51481 0.0
C729 C 0.16634 0.711 0.48998 0.0
H730 H 0.16115 0.76663 0.56145 0.0
H731 H 0.20319 0.74734 0.51611 0.0
S732 S 0.07571 0.67225 0.47657 0.0
N733 N 0.07184 0.69729 0.51276 0.0
N734 N 0.1177 0.67675 0.46328 0.0
C735 C 0.13037 0.69974 0.48849 0.0
C736 C 0.10555 0.71095 0.51516 0.0
C737 C 0.32906 0.24207 0.00433 0.0
C738 C 0.29221 0.2343 0.00707 0.0
C739 C 0.35294 0.23226 0.03141 0.0
C740 C 0.34081 0.21444 0.06232 0.0
H741 H 0.3393 0.25787 0.98222 0.0
H742 H 0.38045 0.24138 0.02929 0.0
S743 S 0.24899 0.17879 0.07736 0.0
N744 N 0.24613 0.20117 0.03926 0.0
N745 N 0.29124 0.18227 0.09024 0.0
C746 C 0.30505 0.20218 0.06301 0.0
C747 C 0.28063 0.21229 0.03535 0.0
C748 C 0.46219 0.62936 0.74695 0.0
C749 C 0.46068 0.6656 0.73728 0.0
C750 C 0.43434 0.60618 0.7382 0.0
C751 C 0.40378 0.61856 0.7198 0.0
H752 H 0.48392 0.61932 0.7635 0.0
H753 H 0.4356 0.57919 0.74863 0.0
S754 S 0.39192 0.70873 0.67974 0.0
N755 N 0.43019 0.71115 0.70198 0.0
N756 N 0.37751 0.6674 0.68519 0.0
C757 C 0.40432 0.65353 0.7057 0.0
C758 C 0.4329 0.67717 0.71459 0.0
C759 C 0.96108 0.83323 0.20176 0.0
C760 C 0.96302 0.7989 0.217 0.0
C761 C 0.93345 0.85663 0.21067 0.0
C762 C 0.90654 0.84644 0.23501 0.0
H763 H 0.97982 0.84136 0.18108 0.0
H764 H 0.93178 0.88168 0.19618 0.0
S765 S 0.90493 0.76315 0.28935 0.0
N766 N 0.93989 0.75845 0.2626 0.0
N767 N 0.88777 0.80268 0.27977 0.0
C768 C 0.91074 0.81398 0.2538 0.0
C769 C 0.93906 0.79009 0.24469 0.0
C770 C 0.49903 0.12668 0.70489 0.0
C771 C 0.49543 0.16004 0.7219 0.0
C772 C 0.52349 0.10125 0.71744 0.0
C773 C 0.54527 0.10829 0.74744 0.0
H774 H 0.48468 0.12098 0.68025 0.0
H775 H 0.52746 0.07735 0.70162 0.0
S776 S 0.53889 0.18718 0.80721 0.0
N777 N 0.5103 0.19565 0.77439 0.0
N778 N 0.55633 0.14771 0.79811 0.0
C779 C 0.53874 0.13962 0.76719 0.0
C780 C 0.51391 0.16562 0.75431 0.0
C781 C 0.03431 0.31448 0.21248 0.0
C782 C 0.03853 0.34835 0.22836 0.0
C783 C 0.00875 0.29025 0.2252 0.0
C784 C -0.01338 0.29906 0.25432 0.0
H785 H 0.05261 0.30554 0.19179 0.0
H786 H 0.00831 0.2636 0.21398 0.0
S787 S 0.98021 0.38722 0.29895 0.0
N788 N 0.01345 0.39173 0.27005 0.0
N789 N 0.9654 0.34601 0.29392 0.0
C790 C -0.01245 0.33417 0.26754 0.0
C791 C 0.01343 0.35896 0.25445 0.0
C792 C 0.1496 0.33973 0.04136 0.0
C793 C 0.17794 0.35318 0.02041 0.0
C794 C 0.13972 0.3562 0.07344 0.0
C795 C 0.15789 0.3867 0.08593 0.0
H796 H 0.13633 0.315 0.03427 0.0
H797 H 0.11947 0.34326 0.08974 0.0
S798 S 0.22721 0.43794 0.03606 0.0
N799 N 0.21901 0.40284 0.01066 0.0
N800 N 0.20049 0.43383 0.0711 0.0
C801 C 0.18318 0.40292 0.06303 0.0
C802 C 0.1933 0.38607 0.03029 0.0
C803 C 0.25646 0.56768 0.53689 0.0
C804 C 0.27718 0.59617 0.52355 0.0
C805 C 0.26168 0.55479 0.57178 0.0
C806 C 0.28766 0.57007 0.59439 0.0
H807 H 0.23449 0.55684 0.52127 0.0
H808 H 0.24349 0.53458 0.58191 0.0
S809 S 0.35407 0.63948 0.56981 0.0
N810 N 0.32879 0.63491 0.53368 0.0
N811 N 0.33793 0.61098 0.59953 0.0
C812 C 0.31069 0.59616 0.58035 0.0
C813 C 0.30564 0.60912 0.5448 0.0
C814 C 0.65751 0.10006 0.93228 0.0
C815 C 0.69265 0.09927 0.9462 0.0
C816 C 0.64851 0.0813 0.90121 0.0
C817 C 0.67429 0.06101 0.88284 0.0
H818 H 0.63712 0.11673 0.94443 0.0
H819 H 0.62182 0.08474 0.89015 0.0
S820 S 0.76859 0.04541 0.91149 0.0
N821 N 0.75214 0.07282 0.94191 0.0
N822 N 0.73526 0.03739 0.88345 0.0
C823 C 0.70855 0.05704 0.89848 0.0
C824 C 0.71776 0.0763 0.93015 0.0
C825 C 0.76648 0.89137 0.42778 0.0
C826 C 0.78482 0.86061 0.43955 0.0
C827 C 0.77131 0.90466 0.39309 0.0
C828 C 0.79455 0.8876 0.36894 0.0
H829 H 0.7464 0.90397 0.4445 0.0
H830 H 0.7546 0.92671 0.38435 0.0
S831 S 0.85591 0.81231 0.38931 0.0
N832 N 0.83255 0.81796 0.42648 0.0
N833 N 0.84113 0.84291 0.36098 0.0
C834 C 0.81603 0.85944 0.38155 0.0
C835 C 0.81133 0.84598 0.41698 0.0
C836 C 0.07314 0.19274 0.40542 0.0
C837 C 0.09661 0.17024 0.38642 0.0
C838 C 0.03831 0.19911 0.39312 0.0
C839 C 0.02565 0.18312 0.36144 0.0
H840 H 0.0824 0.20756 0.42858 0.0
H841 H 0.02208 0.21839 0.40742 0.0
S842 S 0.07367 0.11525 0.307 0.0
N843 N 0.10286 0.12718 0.3381 0.0
N844 N 0.0371 0.13877 0.31503 0.0
C845 C 0.0476 0.15771 0.34431 0.0
C846 C 0.08316 0.15136 0.3568 0.0
C847 C 0.39782 0.81396 0.8685 0.0
C848 C 0.38351 0.7933 0.89664 0.0
C849 C 0.42931 0.80377 0.85114 0.0
C850 C 0.44796 0.7728 0.86151 0.0
H851 H 0.38322 0.83668 0.8579 0.0
H852 H 0.438 0.81933 0.82819 0.0
S853 S 0.42675 0.71459 0.93946 0.0
N854 N 0.39403 0.74425 0.93847 0.0
N855 N 0.45352 0.72522 0.90587 0.0
C856 C 0.43646 0.75443 0.89242 0.0
C857 C 0.4042 0.76475 0.9101 0.0
C858 C 0.53359 0.24975 0.57584 0.0
C859 C 0.51729 0.27417 0.59925 0.0
C860 C 0.56459 0.25902 0.55687 0.0
C861 C 0.58042 0.29298 0.56086 0.0
H862 H 0.52397 0.22252 0.57406 0.0
H863 H 0.57783 0.2383 0.54159 0.0
S864 S 0.542 0.36955 0.61065 0.0
N865 N 0.51456 0.33602 0.61923 0.0
N866 N 0.57314 0.35326 0.58382 0.0
C867 C 0.56176 0.31893 0.58057 0.0
C868 C 0.53017 0.30953 0.59984 0.0
C869 C 0.93168 0.70552 0.07187 0.0
C870 C 0.9443 0.6862 0.10176 0.0
C871 C 0.89818 0.69795 0.0568 0.0
C872 C 0.87642 0.67089 0.07125 0.0
H873 H 0.94639 0.72836 0.06177 0.0
H874 H 0.88804 0.71544 0.03592 0.0
S875 S 0.90136 0.60666 0.14286 0.0
N876 N 0.93571 0.63439 0.14042 0.0
N877 N 0.87249 0.6204 0.11215 0.0
C878 C 0.89055 0.64876 0.09823 0.0
C879 C 0.92461 0.6564 0.11354 0.0
C880 C 0.35304 0.04357 0.16452 0.0
C881 C 0.3643 0.02243 0.19373 0.0
C882 C 0.36751 0.07738 0.15866 0.0
C883 C 0.39401 0.09123 0.18154 0.0
H884 H 0.33133 0.03499 0.14721 0.0
H885 H 0.35629 0.09365 0.13732 0.0
S886 S 0.43816 0.04398 0.25723 0.0
N887 N 0.40769 0.01563 0.24237 0.0
N888 N 0.43488 0.0795 0.23115 0.0
C889 C 0.40835 0.06902 0.2084 0.0
C890 C 0.39346 0.0345 0.21457 0.0
C891 C 0.87104 0.38288 0.80931 0.0
C892 C 0.89457 0.36638 0.78516 0.0
C893 C 0.8573 0.41679 0.80229 0.0
C894 C 0.86615 0.43523 0.77053 0.0
H895 H 0.86153 0.36861 0.83278 0.0
H896 H 0.8379 0.42759 0.82098 0.0
S897 S 0.93134 0.40533 0.70146 0.0
N898 N 0.9299 0.3722 0.73073 0.0
N899 N 0.90386 0.43618 0.71707 0.0
C900 C 0.89236 0.4203 0.7478 0.0
C901 C 0.90663 0.38574 0.75524 0.0
C902 C 0.58203 0.53455 0.26287 0.0
C903 C 0.61388 0.52313 0.2797 0.0
C904 C 0.56733 0.56802 0.27032 0.0
C905 C 0.584 0.5912 0.29482 0.0
H906 H 0.56959 0.51866 0.24203 0.0
H907 H 0.54442 0.57677 0.25467 0.0
S908 S 0.66248 0.5704 0.35255 0.0
N909 N 0.65771 0.53489 0.3268 0.0
N910 N 0.63003 0.59802 0.34065 0.0
C911 C 0.61354 0.57859 0.31462 0.0
C912 C 0.62852 0.54449 0.30708 0.0
C913 C 0.13237 0.90952 0.66408 0.0
C914 C 0.11022 0.93437 0.68164 0.0
C915 C 0.12053 0.8749 0.65722 0.0
C916 C 0.08608 0.86365 0.66763 0.0
H917 H 0.15986 0.91599 0.65741 0.0
H918 H 0.13953 0.85629 0.64563 0.0
S919 S 0.01448 0.92118 0.70585 0.0
N920 N 0.0499 0.94746 0.70305 0.0
N921 N 0.02755 0.88215 0.6901 0.0
C922 C 0.06224 0.88936 0.68151 0.0
C923 C 0.07438 0.92476 0.68855 0.0
C924 C 0.76587 0.55094 0.89588 0.0
C925 C 0.79762 0.55922 0.87727 0.0
C926 C 0.75791 0.56732 0.92863 0.0
C927 C 0.78142 0.59254 0.94385 0.0
H928 H 0.74553 0.53421 0.88369 0.0
H929 H 0.73192 0.5622 0.94057 0.0
S930 S 0.87229 0.61572 0.91059 0.0
N931 N 0.85583 0.58849 0.87992 0.0
N932 N 0.84084 0.61938 0.94153 0.0
C933 C 0.81508 0.59771 0.92765 0.0
C934 C 0.82322 0.58094 0.89438 0.0
C935 C 0.6675 0.33418 0.41067 0.0
C936 C 0.6914 0.35001 0.43523 0.0
C937 C 0.66104 0.34953 0.37716 0.0
C938 C 0.67794 0.38147 0.36692 0.0
H939 H 0.65485 0.3088 0.41653 0.0
H940 H 0.64391 0.33537 0.35846 0.0
S941 S 0.73858 0.43661 0.42306 0.0
N942 N 0.72878 0.40179 0.44846 0.0
N943 N 0.71658 0.43054 0.38508 0.0
C944 C 0.69964 0.39916 0.39209 0.0
C945 C 0.70646 0.3834 0.42631 0.0
C946 C 0.31886 0.87628 0.07133 0.0
C947 C 0.29458 0.90017 0.0872 0.0
C948 C 0.3114 0.86065 0.03822 0.0
C949 C 0.2793 0.86823 0.01974 0.0
H950 H 0.34257 0.86752 0.08575 0.0
H951 H 0.32996 0.84074 0.0283 0.0
S952 S 0.21129 0.93591 0.04564 0.0
N953 N 0.24059 0.93599 0.07888 0.0
N954 N 0.22643 0.90642 0.01652 0.0
C955 C 0.257 0.89544 0.03317 0.0
C956 C 0.26474 0.91155 0.06694 0.0
C957 C 0.15275 0.10642 0.5792 0.0
C958 C 0.17033 0.07572 0.59197 0.0
C959 C 0.16089 0.12078 0.54565 0.0
C960 C 0.18713 0.10513 0.52356 0.0
H961 H 0.13399 0.12072 0.5961 0.0
H962 H 0.14796 0.14558 0.53806 0.0
S963 S 0.23516 0.01995 0.54139 0.0
N964 N 0.21082 0.02675 0.5777 0.0
N965 N 0.22617 0.05373 0.51432 0.0
C966 C 0.20209 0.07225 0.53436 0.0
C967 C 0.19365 0.05752 0.56866 0.0
C968 C 0.9267 0.80513 0.62171 0.0
C969 C 0.94882 0.78075 0.60341 0.0
C970 C 0.8932 0.81473 0.60805 0.0
C971 C 0.88047 0.80029 0.57565 0.0
H972 H 0.93403 0.81504 0.64796 0.0
H973 H 0.87613 0.83143 0.62456 0.0
S974 S 0.93281 0.74446 0.51213 0.0
N975 N 0.95926 0.74906 0.54736 0.0
N976 N 0.89608 0.76716 0.5216 0.0
C977 C 0.90439 0.77998 0.55468 0.0
C978 C 0.93861 0.77012 0.56869 0.0
C979 C 0.53165 0.21291 0.07201 0.0
C980 C 0.51708 0.18846 0.09679 0.0
C981 C 0.56374 0.20552 0.05415 0.0
C982 C 0.58224 0.17345 0.06056 0.0
H983 H 0.51985 0.23911 0.06842 0.0
H984 H 0.57575 0.22651 0.03812 0.0
S985 S 0.54998 0.09661 0.1145 0.0
N986 N 0.51945 0.12794 0.12066 0.0
N987 N 0.57996 0.11409 0.08702 0.0
C988 C 0.56551 0.14698 0.08145 0.0
C989 C 0.5329 0.15452 0.09973 0.0
C990 C 0.39673 0.64069 0.37012 0.0
C991 C 0.38098 0.66179 0.39693 0.0
C992 C 0.4304 0.64919 0.35618 0.0
C993 C 0.44944 0.67929 0.36837 0.0
H994 H 0.38177 0.61909 0.35787 0.0
H995 H 0.44027 0.63348 0.3339 0.0
S996 S 0.42324 0.7382 0.44401 0.0
N997 N 0.3894 0.71014 0.43964 0.0
N998 N 0.45287 0.72627 0.41343 0.0
C999 C 0.43594 0.69791 0.39827 0.0
C1000 C 0.4016 0.68908 0.4126 0.0
C1001 C 0.06932 0.26643 0.89894 0.0
C1002 C 0.09456 0.28651 0.87941 0.0
C1003 C 0.03532 0.25953 0.885 0.0
C1004 C 0.02521 0.27251 0.85103 0.0
H1005 H 0.0765 0.25379 0.92412 0.0
H1006 H 0.01776 0.24209 0.90015 0.0
S1007 S 0.07789 0.33432 0.79359 0.0
N1008 N 0.10471 0.32503 0.82764 0.0
N1009 N 0.04047 0.31206 0.80135 0.0
C1010 C 0.04867 0.29588 0.83302 0.0
C1011 C 0.08342 0.30294 0.84727 0.0
C1012 C 0.57726 0.92219 0.75568 0.0
C1013 C 0.60613 0.93447 0.77675 0.0
C1014 C 0.56258 0.88832 0.76128 0.0
C1015 C 0.57649 0.86572 0.78795 0.0
H1016 H 0.56727 0.93785 0.73332 0.0
H1017 H 0.54224 0.87876 0.74284 0.0
S1018 S 0.64593 0.88763 0.85545 0.0
N1019 N 0.64348 0.92338 0.82958 0.0
N1020 N 0.61627 0.85926 0.83909 0.0
C1021 C 0.6028 0.87873 0.81132 0.0
C1022 C 0.61751 0.91331 0.80601 0.0
C1023 C 0.06992 0.53714 0.20773 0.0
C1024 C 0.0961 0.52201 0.18515 0.0
C1025 C 0.05723 0.5718 0.20177 0.0
C1026 C 0.0705 0.59242 0.17322 0.0
H1027 H 0.06084 0.52315 0.23152 0.0
H1028 H 0.03912 0.58344 0.22123 0.0
S1029 S 0.13258 0.56296 0.10175 0.0
N1030 N 0.12967 0.52844 0.12922 0.0
N1031 N 0.10641 0.59401 0.11904 0.0
C1032 C 0.09386 0.57663 0.14854 0.0
C1033 C 0.10645 0.54123 0.1542 0.0
C1034 C 0.37999 0.39393 0.65129 0.0
C1035 C 0.40473 0.37879 0.67552 0.0
C1036 C 0.36298 0.42619 0.65891 0.0
C1037 C 0.3704 0.44469 0.69083 0.0
H1038 H 0.37133 0.37931 0.62775 0.0
H1039 H 0.34216 0.43537 0.64078 0.0
S1040 S 0.44081 0.42152 0.75774 0.0
N1041 N 0.44149 0.38835 0.72869 0.0
N1042 N 0.40988 0.44944 0.74291 0.0
C1043 C 0.39886 0.43245 0.71263 0.0
C1044 C 0.41608 0.39938 0.70491 0.0
C1045 C 0.87355 0.06534 0.31798 0.0
C1046 C 0.89708 0.08336 0.29483 0.0
C1047 C 0.85854 0.03268 0.30823 0.0
C1048 C 0.86627 0.01708 0.27479 0.0
H1049 H 0.86455 0.07786 0.34257 0.0
H1050 H 0.83881 0.02092 0.32601 0.0
S1051 S 0.93216 0.05041 0.20796 0.0
N1052 N 0.93208 0.0809 0.23987 0.0
N1053 N 0.90372 0.01929 0.22123 0.0
C1054 C 0.89306 0.03281 0.25331 0.0
C1055 C 0.90855 0.0661 0.26345 0.0
C1056 C 0.15355 0.32775 0.34273 0.0
C1057 C 0.17534 0.33574 0.313 0.0
C1058 C 0.16491 0.30296 0.36866 0.0
C1059 C 0.19837 0.2859 0.36546 0.0
H1060 H 0.12658 0.33841 0.34442 0.0
H1061 H 0.14609 0.29458 0.38916 0.0
S1062 S 0.26844 0.30429 0.29754 0.0
N1063 N 0.23426 0.32974 0.28555 0.0
N1064 N 0.2554 0.28323 0.33424 0.0
C1065 C 0.22187 0.29695 0.33829 0.0
C1066 C 0.21035 0.32184 0.31194 0.0
C1067 C 0.31884 0.67049 0.86204 0.0
C1068 C 0.28557 0.68048 0.87649 0.0
C1069 C 0.32132 0.64219 0.83785 0.0
C1070 C 0.29044 0.62377 0.82685 0.0
H1071 H 0.34262 0.68624 0.86753 0.0
H1072 H 0.34704 0.63659 0.82554 0.0
S1073 S 0.19815 0.63612 0.86115 0.0
N1074 N 0.22203 0.66706 0.88189 0.0
N1075 N 0.22653 0.6143 0.83512 0.0
C1076 C 0.2575 0.63171 0.84305 0.0
C1077 C 0.25512 0.66002 0.8684 0.0
C1078 C 0.679 0.19883 0.64883 0.0
C1079 C 0.67896 0.19093 0.61195 0.0
C1080 C 0.67498 0.17227 0.67448 0.0
C1081 C 0.67026 0.13655 0.66445 0.0
H1082 H 0.68175 0.22609 0.65816 0.0
H1083 H 0.67444 0.18016 0.70244 0.0
S1084 S 0.67041 0.10118 0.57144 0.0
N1085 N 0.67583 0.1447 0.56643 0.0
N1086 N 0.66767 0.09398 0.61514 0.0
C1087 C 0.6712 0.12783 0.62767 0.0
C1088 C 0.67583 0.1552 0.60129 0.0
C1089 C 0.74031 0.79676 0.10966 0.0
C1090 C 0.76676 0.78653 0.08492 0.0
C1091 C 0.74669 0.82421 0.13409 0.0
C1092 C 0.77965 0.84237 0.13446 0.0
H1093 H 0.71595 0.78119 0.11244 0.0
H1094 H 0.72679 0.82936 0.15461 0.0
S1095 S 0.85526 0.82927 0.07137 0.0
N1096 N 0.82515 0.79928 0.05911 0.0
N1097 N 0.83712 0.85154 0.10502 0.0
C1098 C 0.80466 0.83519 0.10721 0.0
C1099 C 0.79817 0.807 0.08231 0.0
C1100 C 0.36004 0.22333 0.3089 0.0
C1101 C 0.38462 0.19777 0.29655 0.0
C1102 C 0.3344 0.21432 0.3346 0.0
C1103 C 0.33292 0.17967 0.34891 0.0
H1104 H 0.35791 0.24902 0.29561 0.0
H1105 H 0.31383 0.23367 0.34116 0.0
S1106 S 0.39531 0.10525 0.32994 0.0
N1107 N 0.40916 0.13814 0.30377 0.0
N1108 N 0.36111 0.12134 0.35301 0.0
C1109 C 0.3601 0.1553 0.34019 0.0
C1110 C 0.38614 0.16443 0.31373 0.0
C1111 C 0.12898 0.79344 0.82841 0.0
C1112 C 0.16152 0.77465 0.83218 0.0
C1113 C 0.10376 0.78344 0.80233 0.0
C1114 C 0.11047 0.75436 0.7796 0.0
H1115 H 0.12411 0.81748 0.84376 0.0
H1116 H 0.08068 0.80047 0.7978 0.0
S1117 S 0.18755 0.69202 0.78377 0.0
N1118 N 0.19601 0.72207 0.815 0.0
N1119 N 0.14859 0.70358 0.76619 0.0
C1120 C 0.14083 0.73311 0.7859 0.0
C1121 C 0.16648 0.74325 0.81212 0.0
C1122 C 0.82746 0.29794 0.64377 0.0
C1123 C 0.79499 0.27929 0.63941 0.0
C1124 C 0.85273 0.28704 0.66936 0.0
C1125 C 0.84629 0.25712 0.69128 0.0
H1126 H 0.83263 0.32211 0.6286 0.0
H1127 H 0.87621 0.30356 0.67362 0.0
S1128 S 0.76926 0.19491 0.68509 0.0
N1129 N 0.76053 0.2263 0.65513 0.0
N1130 N 0.80797 0.20608 0.70348 0.0
C1131 C 0.81542 0.2366 0.6851 0.0
C1132 C 0.78972 0.24766 0.65913 0.0
C1133 C 0.61851 0.71871 0.1641 0.0
C1134 C 0.59404 0.69322 0.17678 0.0
C1135 C 0.64302 0.71016 0.13724 0.0
C1136 C 0.6438 0.67581 0.12221 0.0
H1137 H 0.62085 0.74432 0.17729 0.0
H1138 H 0.6632 0.72975 0.13005 0.0
S1139 S 0.582 0.60115 0.14283 0.0
N1140 N 0.56919 0.63368 0.16983 0.0
N1141 N 0.61541 0.61751 0.11874 0.0
C1142 C 0.61703 0.65126 0.13191 0.0
C1143 C 0.59199 0.66004 0.15944 0.0
C1144 C 0.32186 0.33181 0.20725 0.0
C1145 C 0.33066 0.3176 0.17355 0.0
C1146 C 0.29288 0.3553 0.2109 0.0
C1147 C 0.27158 0.36412 0.18112 0.0
H1148 H 0.33642 0.32347 0.23103 0.0
H1149 H 0.28555 0.36452 0.23744 0.0
S1150 S 0.28429 0.33483 0.08719 0.0
N1151 N 0.31722 0.31544 0.1097 0.0
N1152 N 0.26174 0.35849 0.11697 0.0
C1153 C 0.28107 0.35137 0.14713 0.0
C1154 C 0.311 0.32827 0.14323 0.0
C1155 C 0.80544 0.13619 0.83674 0.0
C1156 C 0.83538 0.13876 0.81428 0.0
C1157 C 0.77734 0.11329 0.82827 0.0
C1158 C 0.77806 0.09272 0.79673 0.0
H1159 H 0.80278 0.15356 0.85982 0.0
H1160 H 0.75381 0.11343 0.84537 0.0
S1161 S 0.8528 0.08668 0.73175 0.0
N1162 N 0.86648 0.11623 0.76168 0.0
N1163 N 0.81276 0.07322 0.74521 0.0
C1164 C 0.80926 0.09259 0.77577 0.0
C1165 C 0.83823 0.11579 0.78468 0.0
C1166 C 0.65653 0.87652 0.3013 0.0
C1167 C 0.67207 0.87694 0.26696 0.0
C1168 C 0.63043 0.85098 0.3101 0.0
C1169 C 0.6197 0.82547 0.28468 0.0
H1170 H 0.66746 0.89308 0.32248 0.0
H1171 H 0.6215 0.8489 0.33768 0.0
S1172 S 0.64626 0.82158 0.18903 0.0
N1173 N 0.67031 0.85452 0.20598 0.0
N1174 N 0.62124 0.80655 0.22236 0.0
C1175 C 0.63171 0.82881 0.24918 0.0
C1176 C 0.65796 0.85473 0.24029 0.0
C1177 C 0.15427 0.60098 0.71907 0.0
C1178 C 0.17028 0.5773 0.69476 0.0
C1179 C 0.12959 0.62641 0.70718 0.0
C1180 C 0.12024 0.62877 0.67074 0.0
H1181 H 0.16388 0.60251 0.7465 0.0
H1182 H 0.12005 0.64624 0.72602 0.0
S1183 S 0.15024 0.56922 0.59771 0.0
N1184 N 0.17161 0.55455 0.63374 0.0
N1185 N 0.12474 0.60262 0.61142 0.0
C1186 C 0.13263 0.60262 0.64702 0.0
C1187 C 0.1578 0.57658 0.65915 0.0
C1188 C 0.7598 0.6565 0.66225 0.0
C1189 C 0.78684 0.63123 0.6555 0.0
C1190 C 0.75365 0.68466 0.63871 0.0
C1191 C 0.77358 0.68835 0.60702 0.0
H1192 H 0.74444 0.65584 0.68691 0.0
H1193 H 0.73455 0.70496 0.64655 0.0
S1194 S 0.8436 0.62668 0.57372 0.0
N1195 N 0.83113 0.60949 0.61262 0.0
N1196 N 0.81867 0.6627 0.56781 0.0
C1197 C 0.79838 0.66168 0.59805 0.0
C1198 C 0.80518 0.63298 0.62243 0.0
C1199 C 0.64344 0.30454 0.08991 0.0
C1200 C 0.67788 0.29174 0.0817 0.0
C1201 C 0.63896 0.33298 0.11376 0.0
C1202 C 0.66882 0.34885 0.1302 0.0
H1203 H 0.61987 0.29054 0.08028 0.0
H1204 H 0.61205 0.34028 0.12195 0.0
S1205 S 0.76441 0.32678 0.11526 0.0
N1206 N 0.74218 0.29869 0.0893 0.0
N1207 N 0.73371 0.35186 0.13486 0.0
C1208 C 0.70337 0.33809 0.12009 0.0
C1209 C 0.70794 0.30949 0.0955 0.0
C1210 C 0.24896 0.77821 0.33066 0.0
C1211 C 0.27339 0.77028 0.35823 0.0
C1212 C 0.25528 0.80625 0.30689 0.0
C1213 C 0.28642 0.82721 0.30975 0.0
H1214 H 0.2258 0.76137 0.32622 0.0
H1215 H 0.23645 0.81038 0.28508 0.0
S1216 S 0.35691 0.81923 0.37987 0.0
N1217 N 0.32814 0.78704 0.3893 0.0
N1218 N 0.34039 0.84014 0.34443 0.0
C1219 C 0.30969 0.82131 0.33901 0.0
C1220 C 0.30307 0.79267 0.36337 0.0
C1221 C 0.14503 0.16835 0.86145 0.0
C1222 C 0.18077 0.1684 0.87358 0.0
C1223 C 0.13294 0.14247 0.83739 0.0
C1224 C 0.15609 0.11556 0.82545 0.0
H1225 H 0.12723 0.19023 0.86821 0.0
H1226 H 0.10611 0.1448 0.82634 0.0
S1227 S 0.25113 0.10245 0.85153 0.0
N1228 N 0.23855 0.1386 0.87357 0.0
N1229 N 0.21536 0.08872 0.8292 0.0
C1230 C 0.19101 0.11364 0.83957 0.0
C1231 C 0.20355 0.14049 0.86352 0.0
C1232 C 0.62113 0.8144 0.63476 0.0
C1233 C 0.6476 0.79101 0.62207 0.0
C1234 C 0.59586 0.80264 0.66001 0.0
C1235 C 0.59673 0.76732 0.67299 0.0
H1236 H 0.62181 0.84241 0.62746 0.0
H1237 H 0.57802 0.82211 0.67197 0.0
S1238 S 0.65537 0.69424 0.64127 0.0
N1239 N 0.66923 0.72989 0.61906 0.0
N1240 N 0.62188 0.7079 0.66675 0.0
C1241 C 0.6205 0.74296 0.65734 0.0
C1242 C 0.64606 0.75485 0.6318 0.0
C1243 C 0.85294 0.17407 0.17556 0.0
C1244 C 0.84589 0.19968 0.20209 0.0
C1245 C 0.82955 0.16959 0.14649 0.0
C1246 C 0.79844 0.1907 0.14295 0.0
H1247 H 0.8754 0.1559 0.17841 0.0
H1248 H 0.83497 0.14815 0.1278 0.0
S1249 S 0.77253 0.26652 0.20163 0.0
N1250 N 0.80892 0.24976 0.22057 0.0
N1251 N 0.76515 0.24193 0.16567 0.0
C1252 C 0.79296 0.21851 0.16775 0.0
C1253 C 0.81663 0.22282 0.19744 0.0
C1254 C 0.15912 0.69972 0.31513 0.0
C1255 C 0.15267 0.66756 0.33336 0.0
C1256 C 0.1347 0.71292 0.29012 0.0
C1257 C 0.10317 0.69403 0.28197 0.0
H1258 H 0.18407 0.71397 0.31905 0.0
H1259 H 0.14187 0.7367 0.27513 0.0
S1260 S 0.07176 0.61082 0.32619 0.0
N1261 N 0.11089 0.6193 0.34528 0.0
N1262 N 0.06483 0.6435 0.29713 0.0
C1263 C 0.09482 0.66343 0.30241 0.0
C1264 C 0.11974 0.65022 0.32837 0.0
C1265 C 0.3446 0.31268 0.83412 0.0
C1266 C 0.32861 0.28144 0.84757 0.0
C1267 C 0.36992 0.3109 0.80657 0.0
C1268 C 0.38063 0.27783 0.79262 0.0
H1269 H 0.33504 0.3387 0.84247 0.0
H1270 H 0.37896 0.3355 0.79416 0.0
S1271 S 0.35221 0.1884 0.82399 0.0
N1272 N 0.32867 0.21659 0.84861 0.0
N1273 N 0.3775 0.21325 0.79744 0.0
C1274 C 0.36785 0.2464 0.80858 0.0
C1275 C 0.34138 0.2482 0.83599 0.0
C1276 C 0.6755 0.6 0.81513 0.0
C1277 C 0.68292 0.58459 0.78163 0.0
C1278 C 0.64685 0.62361 0.81923 0.0
C1279 C 0.62502 0.63257 0.7899 0.0
H1280 H 0.69352 0.59576 0.83761 0.0
H1281 H 0.64339 0.63697 0.84478 0.0
S1282 S 0.63154 0.5973 0.6975 0.0
N1283 N 0.66474 0.57764 0.71941 0.0
N1284 N 0.61074 0.62272 0.72714 0.0
C1285 C 0.6305 0.61551 0.75694 0.0
C1286 C 0.65957 0.59115 0.75281 0.0
C1287 C 0.1551 0.86704 0.2031 0.0
C1288 C 0.18106 0.87397 0.17672 0.0
C1289 C 0.12743 0.84244 0.19652 0.0
C1290 C 0.12537 0.82452 0.16349 0.0
H1291 H 0.15805 0.87808 0.22979 0.0
H1292 H 0.10933 0.83542 0.21814 0.0
S1293 S 0.18407 0.83715 0.0845 0.0
N1294 N 0.2007 0.86411 0.11536 0.0
N1295 N 0.14885 0.81789 0.10319 0.0
C1296 C 0.14931 0.83355 0.13608 0.0
C1297 C 0.17718 0.85846 0.14265 0.0
C1298 C 0.29529 0.10571 0.68067 0.0
C1299 C 0.26959 0.11261 0.70734 0.0
C1300 C 0.32308 0.12993 0.67391 0.0
C1301 C 0.32604 0.16183 0.6936 0.0
H1302 H 0.29258 0.08275 0.66324 0.0
H1303 H 0.34103 0.12453 0.65173 0.0
S1304 S 0.26947 0.18838 0.77127 0.0
N1305 N 0.25191 0.15049 0.75719 0.0
N1306 N 0.30387 0.19621 0.74452 0.0
C1307 C 0.30232 0.16732 0.72252 0.0
C1308 C 0.27417 0.14263 0.72939 0.0
C1309 C 0.76996 0.31569 0.28332 0.0
C1310 C 0.77911 0.35129 0.276 0.0
C1311 C 0.79385 0.29283 0.30036 0.0
C1312 C 0.8283 0.30434 0.31058 0.0
H1313 H 0.74367 0.30534 0.27646 0.0
H1314 H 0.78518 0.26558 0.30478 0.0
S1315 S 0.86507 0.3957 0.29827 0.0
N1316 N 0.82418 0.39783 0.28114 0.0
N1317 N 0.87027 0.35423 0.3126 0.0
C1318 C 0.83788 0.34012 0.30373 0.0
C1319 C 0.81298 0.36376 0.28667 0.0
loop_
_geom_bond_atom_site_label_1
_geom_bond_atom_site_label_2
_geom_bond_distance
_geom_bond_site_symmetry_2
_ccdc_geom_bond_type
Sc0 O3 2.025 . S
Sc0 O10 2.105 . S
Sc0 O13 2.105 . S
Sc0 O16 2.105 . S
Sc0 O19 2.105 . S
Sc1 O3 2.025 . S
Sc1 O11 2.105 . S
Sc1 O15 2.105 . S
Sc1 O17 2.105 . S
Sc1 O21 2.105 . S
Sc2 O3 2.025 . S
Sc2 O12 2.105 . S
Sc2 O14 2.105 . S
Sc2 O18 2.105 . S
Sc2 O20 2.105 . S
O3 Sc0 2.025 . S
O3 Sc1 2.025 . S
O3 Sc2 2.025 . S
C4 O10 1.268 . S
C4 O20 1.268 . S
C5 O11 1.268 . S
C5 O19 1.268 . S
C6 O12 1.268 . S
C6 O21 1.268 . S
C7 O13 1.268 . S
C7 O17 1.268 . S
C8 O14 1.268 . S
C8 O16 1.268 . S
C9 O15 1.268 . S
C9 O18 1.268 . S
O10 Sc0 2.105 . S
O10 C4 1.268 . S
O11 Sc1 2.105 . S
O11 C5 1.268 . S
O12 Sc2 2.105 . S
O12 C6 1.268 . S
O13 Sc0 2.105 . S
O13 C7 1.268 . S
O14 Sc2 2.105 . S
O14 C8 1.268 . S
O15 Sc1 2.105 . S
O15 C9 1.268 . S
O16 Sc0 2.105 . S
O16 C8 1.268 . S
O17 Sc1 2.105 . S
O17 C7 1.268 . S
O18 Sc2 2.105 . S
O18 C9 1.268 . S
O19 Sc0 2.105 . S
O19 C5 1.268 . S
O20 Sc2 2.105 . S
O20 C4 1.268 . S
O21 Sc1 2.105 . S
O21 C6 1.268 . S
Sc22 O25 2.025 . S
Sc22 O32 2.105 . S
Sc22 O35 2.105 . S
Sc22 O38 2.105 . S
Sc22 O41 2.105 . S
Sc23 O25 2.025 . S
Sc23 O33 2.105 . S
Sc23 O37 2.105 . S
Sc23 O39 2.105 . S
Sc23 O43 2.105 . S
Sc24 O25 2.025 . S
Sc24 O34 2.105 . S
Sc24 O36 2.105 . S
Sc24 O40 2.105 . S
Sc24 O42 2.105 . S
O25 Sc22 2.025 . S
O25 Sc23 2.025 . S
O25 Sc24 2.025 . S
C26 O32 1.268 . S
C26 O42 1.268 . S
C27 O33 1.268 . S
C27 O41 1.268 . S
C28 O34 1.268 . S
C28 O43 1.268 . S
C29 O35 1.268 . S
C29 O39 1.268 . S
C30 O36 1.268 . S
C30 O38 1.268 . S
C31 O37 1.268 . S
C31 O40 1.268 . S
O32 Sc22 2.105 . S
O32 C26 1.268 . S
O33 Sc23 2.105 . S
O33 C27 1.268 . S
O34 Sc24 2.105 . S
O34 C28 1.268 . S
O35 Sc22 2.105 . S
O35 C29 1.268 . S
O36 Sc24 2.105 . S
O36 C30 1.268 . S
O37 Sc23 2.105 . S
O37 C31 1.268 . S
O38 Sc22 2.105 . S
O38 C30 1.268 . S
O39 Sc23 2.105 . S
O39 C29 1.268 . S
O40 Sc24 2.105 . S
O40 C31 1.268 . S
O41 Sc22 2.105 . S
O41 C27 1.268 . S
O42 Sc24 2.105 . S
O42 C26 1.268 . S
O43 Sc23 2.105 . S
O43 C28 1.268 . S
Sc44 O47 2.025 . S
Sc44 O54 2.105 . S
Sc44 O57 2.105 . S
Sc44 O60 2.105 . S
Sc44 O63 2.105 . S
Sc45 O47 2.025 . S
Sc45 O55 2.105 . S
Sc45 O59 2.105 . S
Sc45 O61 2.105 . S
Sc45 O65 2.105 . S
Sc46 O47 2.025 . S
Sc46 O56 2.105 . S
Sc46 O58 2.105 . S
Sc46 O62 2.105 . S
Sc46 O64 2.105 . S
O47 Sc44 2.025 . S
O47 Sc45 2.025 . S
O47 Sc46 2.025 . S
C48 O54 1.268 . S
C48 O64 1.268 . S
C49 O55 1.268 . S
C49 O63 1.268 . S
C50 O56 1.268 . S
C50 O65 1.268 . S
C51 O57 1.268 . S
C51 O61 1.268 . S
C52 O58 1.268 . S
C52 O60 1.268 . S
C53 O59 1.268 . S
C53 O62 1.268 . S
O54 Sc44 2.105 . S
O54 C48 1.268 . S
O55 Sc45 2.105 . S
O55 C49 1.268 . S
O56 Sc46 2.105 . S
O56 C50 1.268 . S
O57 Sc44 2.105 . S
O57 C51 1.268 . S
O58 Sc46 2.105 . S
O58 C52 1.268 . S
O59 Sc45 2.105 . S
O59 C53 1.268 . S
O60 Sc44 2.105 . S
O60 C52 1.268 . S
O61 Sc45 2.105 . S
O61 C51 1.268 . S
O62 Sc46 2.105 . S
O62 C53 1.268 . S
O63 Sc44 2.105 . S
O63 C49 1.268 . S
O64 Sc46 2.105 . S
O64 C48 1.268 . S
O65 Sc45 2.105 . S
O65 C50 1.268 . S
Sc66 O69 2.025 . S
Sc66 O76 2.105 . S
Sc66 O79 2.105 . S
Sc66 O82 2.105 . S
Sc66 O85 2.105 . S
Sc67 O69 2.025 . S
Sc67 O77 2.105 . S
Sc67 O81 2.105 . S
Sc67 O83 2.105 . S
Sc67 O87 2.105 . S
Sc68 O69 2.025 . S
Sc68 O78 2.105 . S
Sc68 O80 2.105 . S
Sc68 O84 2.105 . S
Sc68 O86 2.105 . S
O69 Sc66 2.025 . S
O69 Sc67 2.025 . S
O69 Sc68 2.025 . S
C70 O76 1.268 . S
C70 O86 1.268 . S
C71 O77 1.268 . S
C71 O85 1.268 . S
C72 O78 1.268 . S
C72 O87 1.268 . S
C73 O79 1.268 . S
C73 O83 1.268 . S
C74 O80 1.268 . S
C74 O82 1.268 . S
C75 O81 1.268 . S
C75 O84 1.268 . S
O76 Sc66 2.105 . S
O76 C70 1.268 . S
O77 Sc67 2.105 . S
O77 C71 1.268 . S
O78 Sc68 2.105 . S
O78 C72 1.268 . S
O79 Sc66 2.105 . S
O79 C73 1.268 . S
O80 Sc68 2.105 . S
O80 C74 1.268 . S
O81 Sc67 2.105 . S
O81 C75 1.268 . S
O82 Sc66 2.105 . S
O82 C74 1.268 . S
O83 Sc67 2.105 . S
O83 C73 1.268 . S
O84 Sc68 2.105 . S
O84 C75 1.268 . S
O85 Sc66 2.105 . S
O85 C71 1.268 . S
O86 Sc68 2.105 . S
O86 C70 1.268 . S
O87 Sc67 2.105 . S
O87 C72 1.268 . S
Sc88 O91 2.025 . S
Sc88 O98 2.105 . S
Sc88 O101 2.105 . S
Sc88 O104 2.105 . S
Sc88 O107 2.105 . S
Sc89 O91 2.025 . S
Sc89 O99 2.105 . S
Sc89 O103 2.105 . S
Sc89 O105 2.105 . S
Sc89 O109 2.105 . S
Sc90 O91 2.025 . S
Sc90 O100 2.105 . S
Sc90 O102 2.105 . S
Sc90 O106 2.105 . S
Sc90 O108 2.105 . S
O91 Sc88 2.025 . S
O91 Sc89 2.025 . S
O91 Sc90 2.025 . S
C92 O98 1.268 . S
C92 O108 1.268 . S
C93 O99 1.268 . S
C93 O107 1.268 . S
C94 O100 1.268 . S
C94 O109 1.268 . S
C95 O101 1.268 . S
C95 O105 1.268 . S
C96 O102 1.268 . S
C96 O104 1.268 . S
C97 O103 1.268 . S
C97 O106 1.268 . S
O98 Sc88 2.105 . S
O98 C92 1.268 . S
O99 Sc89 2.105 . S
O99 C93 1.268 . S
O100 Sc90 2.105 . S
O100 C94 1.268 . S
O101 Sc88 2.105 . S
O101 C95 1.268 . S
O102 Sc90 2.105 . S
O102 C96 1.268 . S
O103 Sc89 2.105 . S
O103 C97 1.268 . S
O104 Sc88 2.105 . S
O104 C96 1.268 . S
O105 Sc89 2.105 . S
O105 C95 1.268 . S
O106 Sc90 2.105 . S
O106 C97 1.268 . S
O107 Sc88 2.105 . S
O107 C93 1.268 . S
O108 Sc90 2.105 . S
O108 C92 1.268 . S
O109 Sc89 2.105 . S
O109 C94 1.268 . S
Sc110 O113 2.025 . S
Sc110 O120 2.105 . S
Sc110 O123 2.105 . S
Sc110 O126 2.105 . S
Sc110 O129 2.105 . S
Sc111 O113 2.025 . S
Sc111 O121 2.105 . S
Sc111 O125 2.105 . S
Sc111 O127 2.105 . S
Sc111 O131 2.105 . S
Sc112 O113 2.025 . S
Sc112 O122 2.105 . S
Sc112 O124 2.105 . S
Sc112 O128 2.105 . S
Sc112 O130 2.105 . S
O113 Sc110 2.025 . S
O113 Sc111 2.025 . S
O113 Sc112 2.025 . S
C114 O120 1.268 . S
C114 O130 1.268 . S
C115 O121 1.268 . S
C115 O129 1.268 . S
C116 O122 1.268 . S
C116 O131 1.268 . S
C117 O123 1.268 . S
C117 O127 1.268 . S
C118 O124 1.268 . S
C118 O126 1.268 . S
C119 O125 1.268 . S
C119 O128 1.268 . S
O120 Sc110 2.105 . S
O120 C114 1.268 . S
O121 Sc111 2.105 . S
O121 C115 1.268 . S
O122 Sc112 2.105 . S
O122 C116 1.268 . S
O123 Sc110 2.105 . S
O123 C117 1.268 . S
O124 Sc112 2.105 . S
O124 C118 1.268 . S
O125 Sc111 2.105 . S
O125 C119 1.268 . S
O126 Sc110 2.105 . S
O126 C118 1.268 . S
O127 Sc111 2.105 . S
O127 C117 1.268 . S
O128 Sc112 2.105 . S
O128 C119 1.268 . S
O129 Sc110 2.105 . S
O129 C115 1.268 . S
O130 Sc112 2.105 . S
O130 C114 1.268 . S
O131 Sc111 2.105 . S
O131 C116 1.268 . S
Sc132 O135 2.025 . S
Sc132 O142 2.105 . S
Sc132 O145 2.105 . S
Sc132 O148 2.105 . S
Sc132 O151 2.105 . S
Sc133 O135 2.025 . S
Sc133 O143 2.105 . S
Sc133 O147 2.105 . S
Sc133 O149 2.105 . S
Sc133 O153 2.105 . S
Sc134 O135 2.025 . S
Sc134 O144 2.105 . S
Sc134 O146 2.105 . S
Sc134 O150 2.105 . S
Sc134 O152 2.105 . S
O135 Sc132 2.025 . S
O135 Sc133 2.025 . S
O135 Sc134 2.025 . S
C136 O142 1.268 . S
C136 O152 1.268 . S
C137 O143 1.268 . S
C137 O151 1.268 . S
C138 O144 1.268 . S
C138 O153 1.268 . S
C139 O145 1.268 . S
C139 O149 1.268 . S
C140 O146 1.268 . S
C140 O148 1.268 . S
C141 O147 1.268 . S
C141 O150 1.268 . S
O142 Sc132 2.105 . S
O142 C136 1.268 . S
O143 Sc133 2.105 . S
O143 C137 1.268 . S
O144 Sc134 2.105 . S
O144 C138 1.268 . S
O145 Sc132 2.105 . S
O145 C139 1.268 . S
O146 Sc134 2.105 . S
O146 C140 1.268 . S
O147 Sc133 2.105 . S
O147 C141 1.268 . S
O148 Sc132 2.105 . S
O148 C140 1.268 . S
O149 Sc133 2.105 . S
O149 C139 1.268 . S
O150 Sc134 2.105 . S
O150 C141 1.268 . S
O151 Sc132 2.105 . S
O151 C137 1.268 . S
O152 Sc134 2.105 . S
O152 C136 1.268 . S
O153 Sc133 2.105 . S
O153 C138 1.268 . S
Sc154 O157 2.025 . S
Sc154 O164 2.105 . S
Sc154 O167 2.105 . S
Sc154 O170 2.105 . S
Sc154 O173 2.105 . S
Sc155 O157 2.025 . S
Sc155 O165 2.105 . S
Sc155 O169 2.105 . S
Sc155 O171 2.105 . S
Sc155 O175 2.105 . S
Sc156 O157 2.025 . S
Sc156 O166 2.105 . S
Sc156 O168 2.105 . S
Sc156 O172 2.105 . S
Sc156 O174 2.105 . S
O157 Sc154 2.025 . S
O157 Sc155 2.025 . S
O157 Sc156 2.025 . S
C158 O164 1.268 . S
C158 O174 1.268 . S
C159 O165 1.268 . S
C159 O173 1.268 . S
C160 O166 1.268 . S
C160 O175 1.268 . S
C161 O167 1.268 . S
C161 O171 1.268 . S
C162 O168 1.268 . S
C162 O170 1.268 . S
C163 O169 1.268 . S
C163 O172 1.268 . S
O164 Sc154 2.105 . S
O164 C158 1.268 . S
O165 Sc155 2.105 . S
O165 C159 1.268 . S
O166 Sc156 2.105 . S
O166 C160 1.268 . S
O167 Sc154 2.105 . S
O167 C161 1.268 . S
O168 Sc156 2.105 . S
O168 C162 1.268 . S
O169 Sc155 2.105 . S
O169 C163 1.268 . S
O170 Sc154 2.105 . S
O170 C162 1.268 . S
O171 Sc155 2.105 . S
O171 C161 1.268 . S
O172 Sc156 2.105 . S
O172 C163 1.268 . S
O173 Sc154 2.105 . S
O173 C159 1.268 . S
O174 Sc156 2.105 . S
O174 C158 1.268 . S
O175 Sc155 2.105 . S
O175 C160 1.268 . S
Sc176 O179 2.025 . S
Sc176 O186 2.105 . S
Sc176 O189 2.105 . S
Sc176 O192 2.105 . S
Sc176 O195 2.105 . S
Sc177 O179 2.025 . S
Sc177 O187 2.105 . S
Sc177 O191 2.105 . S
Sc177 O193 2.105 . S
Sc177 O197 2.105 . S
Sc178 O179 2.025 . S
Sc178 O188 2.105 . S
Sc178 O190 2.105 . S
Sc178 O194 2.105 . S
Sc178 O196 2.105 . S
O179 Sc176 2.025 . S
O179 Sc177 2.025 . S
O179 Sc178 2.025 . S
C180 O186 1.268 . S
C180 O196 1.268 . S
C181 O187 1.268 . S
C181 O195 1.268 . S
C182 O188 1.268 . S
C182 O197 1.268 . S
C183 O189 1.268 . S
C183 O193 1.268 . S
C184 O190 1.268 . S
C184 O192 1.268 . S
C185 O191 1.268 . S
C185 O194 1.268 . S
O186 Sc176 2.105 . S
O186 C180 1.268 . S
O187 Sc177 2.105 . S
O187 C181 1.268 . S
O188 Sc178 2.105 . S
O188 C182 1.268 . S
O189 Sc176 2.105 . S
O189 C183 1.268 . S
O190 Sc178 2.105 . S
O190 C184 1.268 . S
O191 Sc177 2.105 . S
O191 C185 1.268 . S
O192 Sc176 2.105 . S
O192 C184 1.268 . S
O193 Sc177 2.105 . S
O193 C183 1.268 . S
O194 Sc178 2.105 . S
O194 C185 1.268 . S
O195 Sc176 2.105 . S
O195 C181 1.268 . S
O196 Sc178 2.105 . S
O196 C180 1.268 . S
O197 Sc177 2.105 . S
O197 C182 1.268 . S
Sc198 O201 2.025 . S
Sc198 O208 2.105 . S
Sc198 O211 2.105 . S
Sc198 O214 2.105 . S
Sc198 O217 2.105 . S
Sc199 O201 2.025 . S
Sc199 O209 2.105 . S
Sc199 O213 2.105 . S
Sc199 O215 2.105 . S
Sc199 O219 2.105 . S
Sc200 O201 2.025 . S
Sc200 O210 2.105 . S
Sc200 O212 2.105 . S
Sc200 O216 2.105 . S
Sc200 O218 2.105 . S
O201 Sc198 2.025 . S
O201 Sc199 2.025 . S
O201 Sc200 2.025 . S
C202 O208 1.268 . S
C202 O218 1.268 . S
C203 O209 1.268 . S
C203 O217 1.268 . S
C204 O210 1.268 . S
C204 O219 1.268 . S
C205 O211 1.268 . S
C205 O215 1.268 . S
C206 O212 1.268 . S
C206 O214 1.268 . S
C207 O213 1.268 . S
C207 O216 1.268 . S
O208 Sc198 2.105 . S
O208 C202 1.268 . S
O209 Sc199 2.105 . S
O209 C203 1.268 . S
O210 Sc200 2.105 . S
O210 C204 1.268 . S
O211 Sc198 2.105 . S
O211 C205 1.268 . S
O212 Sc200 2.105 . S
O212 C206 1.268 . S
O213 Sc199 2.105 . S
O213 C207 1.268 . S
O214 Sc198 2.105 . S
O214 C206 1.268 . S
O215 Sc199 2.105 . S
O215 C205 1.268 . S
O216 Sc200 2.105 . S
O216 C207 1.268 . S
O217 Sc198 2.105 . S
O217 C203 1.268 . S
O218 Sc200 2.105 . S
O218 C202 1.268 . S
O219 Sc199 2.105 . S
O219 C204 1.268 . S
Sc220 O223 2.025 . S
Sc220 O230 2.105 . S
Sc220 O233 2.105 . S
Sc220 O236 2.105 . S
Sc220 O239 2.105 . S
Sc221 O223 2.025 . S
Sc221 O231 2.105 . S
Sc221 O235 2.105 . S
Sc221 O237 2.105 . S
Sc221 O241 2.105 . S
Sc222 O223 2.025 . S
Sc222 O232 2.105 . S
Sc222 O234 2.105 . S
Sc222 O238 2.105 . S
Sc222 O240 2.105 . S
O223 Sc220 2.025 . S
O223 Sc221 2.025 . S
O223 Sc222 2.025 . S
C224 O230 1.268 . S
C224 O240 1.268 . S
C225 O231 1.268 . S
C225 O239 1.268 . S
C226 O232 1.268 . S
C226 O241 1.268 . S
C227 O233 1.268 . S
C227 O237 1.268 . S
C228 O234 1.268 . S
C228 O236 1.268 . S
C229 O235 1.268 . S
C229 O238 1.268 . S
O230 Sc220 2.105 . S
O230 C224 1.268 . S
O231 Sc221 2.105 . S
O231 C225 1.268 . S
O232 Sc222 2.105 . S
O232 C226 1.268 . S
O233 Sc220 2.105 . S
O233 C227 1.268 . S
O234 Sc222 2.105 . S
O234 C228 1.268 . S
O235 Sc221 2.105 . S
O235 C229 1.268 . S
O236 Sc220 2.105 . S
O236 C228 1.268 . S
O237 Sc221 2.105 . S
O237 C227 1.268 . S
O238 Sc222 2.105 . S
O238 C229 1.268 . S
O239 Sc220 2.105 . S
O239 C225 1.268 . S
O240 Sc222 2.105 . S
O240 C224 1.268 . S
O241 Sc221 2.105 . S
O241 C226 1.268 . S
Sc242 O245 2.025 . S
Sc242 O252 2.105 . S
Sc242 O255 2.105 . S
Sc242 O258 2.105 . S
Sc242 O261 2.105 . S
Sc243 O245 2.025 . S
Sc243 O253 2.105 . S
Sc243 O257 2.105 . S
Sc243 O259 2.105 . S
Sc243 O263 2.105 . S
Sc244 O245 2.025 . S
Sc244 O254 2.105 . S
Sc244 O256 2.105 . S
Sc244 O260 2.105 . S
Sc244 O262 2.105 . S
O245 Sc242 2.025 . S
O245 Sc243 2.025 . S
O245 Sc244 2.025 . S
C246 O252 1.268 . S
C246 O262 1.268 . S
C247 O253 1.268 . S
C247 O261 1.268 . S
C248 O254 1.268 . S
C248 O263 1.268 . S
C249 O255 1.268 . S
C249 O259 1.268 . S
C250 O256 1.268 . S
C250 O258 1.268 . S
C251 O257 1.268 . S
C251 O260 1.268 . S
O252 Sc242 2.105 . S
O252 C246 1.268 . S
O253 Sc243 2.105 . S
O253 C247 1.268 . S
O254 Sc244 2.105 . S
O254 C248 1.268 . S
O255 Sc242 2.105 . S
O255 C249 1.268 . S
O256 Sc244 2.105 . S
O256 C250 1.268 . S
O257 Sc243 2.105 . S
O257 C251 1.268 . S
O258 Sc242 2.105 . S
O258 C250 1.268 . S
O259 Sc243 2.105 . S
O259 C249 1.268 . S
O260 Sc244 2.105 . S
O260 C251 1.268 . S
O261 Sc242 2.105 . S
O261 C247 1.268 . S
O262 Sc244 2.105 . S
O262 C246 1.268 . S
O263 Sc243 2.105 . S
O263 C248 1.268 . S
Sc264 O267 2.025 . S
Sc264 O274 2.105 . S
Sc264 O277 2.105 . S
Sc264 O280 2.105 . S
Sc264 O283 2.105 . S
Sc265 O267 2.025 . S
Sc265 O275 2.105 . S
Sc265 O279 2.105 . S
Sc265 O281 2.105 . S
Sc265 O285 2.105 . S
Sc266 O267 2.025 . S
Sc266 O276 2.105 . S
Sc266 O278 2.105 . S
Sc266 O282 2.105 . S
Sc266 O284 2.105 . S
O267 Sc264 2.025 . S
O267 Sc265 2.025 . S
O267 Sc266 2.025 . S
C268 O274 1.268 . S
C268 O284 1.268 . S
C269 O275 1.268 . S
C269 O283 1.268 . S
C270 O276 1.268 . S
C270 O285 1.268 . S
C271 O277 1.268 . S
C271 O281 1.268 . S
C272 O278 1.268 . S
C272 O280 1.268 . S
C273 O279 1.268 . S
C273 O282 1.268 . S
O274 Sc264 2.105 . S
O274 C268 1.268 . S
O275 Sc265 2.105 . S
O275 C269 1.268 . S
O276 Sc266 2.105 . S
O276 C270 1.268 . S
O277 Sc264 2.105 . S
O277 C271 1.268 . S
O278 Sc266 2.105 . S
O278 C272 1.268 . S
O279 Sc265 2.105 . S
O279 C273 1.268 . S
O280 Sc264 2.105 . S
O280 C272 1.268 . S
O281 Sc265 2.105 . S
O281 C271 1.268 . S
O282 Sc266 2.105 . S
O282 C273 1.268 . S
O283 Sc264 2.105 . S
O283 C269 1.268 . S
O284 Sc266 2.105 . S
O284 C268 1.268 . S
O285 Sc265 2.105 . S
O285 C270 1.268 . S
Sc286 O289 2.025 . S
Sc286 O296 2.105 . S
Sc286 O299 2.105 . S
Sc286 O302 2.105 . S
Sc286 O305 2.105 . S
Sc287 O289 2.025 . S
Sc287 O297 2.105 . S
Sc287 O301 2.105 . S
Sc287 O303 2.105 . S
Sc287 O307 2.105 . S
Sc288 O289 2.025 . S
Sc288 O298 2.105 . S
Sc288 O300 2.105 . S
Sc288 O304 2.105 . S
Sc288 O306 2.105 . S
O289 Sc286 2.025 . S
O289 Sc287 2.025 . S
O289 Sc288 2.025 . S
C290 O296 1.268 . S
C290 O306 1.268 . S
C291 O297 1.268 . S
C291 O305 1.268 . S
C292 O298 1.268 . S
C292 O307 1.268 . S
C293 O299 1.268 . S
C293 O303 1.268 . S
C294 O300 1.268 . S
C294 O302 1.268 . S
C295 O301 1.268 . S
C295 O304 1.268 . S
O296 Sc286 2.105 . S
O296 C290 1.268 . S
O297 Sc287 2.105 . S
O297 C291 1.268 . S
O298 Sc288 2.105 . S
O298 C292 1.268 . S
O299 Sc286 2.105 . S
O299 C293 1.268 . S
O300 Sc288 2.105 . S
O300 C294 1.268 . S
O301 Sc287 2.105 . S
O301 C295 1.268 . S
O302 Sc286 2.105 . S
O302 C294 1.268 . S
O303 Sc287 2.105 . S
O303 C293 1.268 . S
O304 Sc288 2.105 . S
O304 C295 1.268 . S
O305 Sc286 2.105 . S
O305 C291 1.268 . S
O306 Sc288 2.105 . S
O306 C290 1.268 . S
O307 Sc287 2.105 . S
O307 C292 1.268 . S
Sc308 O311 2.025 . S
Sc308 O318 2.105 . S
Sc308 O321 2.105 . S
Sc308 O324 2.105 . S
Sc308 O327 2.105 . S
Sc309 O311 2.025 . S
Sc309 O319 2.105 . S
Sc309 O323 2.105 . S
Sc309 O325 2.105 . S
Sc309 O329 2.105 . S
Sc310 O311 2.025 . S
Sc310 O320 2.105 . S
Sc310 O322 2.105 . S
Sc310 O326 2.105 . S
Sc310 O328 2.105 . S
O311 Sc308 2.025 . S
O311 Sc309 2.025 . S
O311 Sc310 2.025 . S
C312 O318 1.268 . S
C312 O328 1.268 . S
C313 O319 1.268 . S
C313 O327 1.268 . S
C314 O320 1.268 . S
C314 O329 1.268 . S
C315 O321 1.268 . S
C315 O325 1.268 . S
C316 O322 1.268 . S
C316 O324 1.268 . S
C317 O323 1.268 . S
C317 O326 1.268 . S
O318 Sc308 2.105 . S
O318 C312 1.268 . S
O319 Sc309 2.105 . S
O319 C313 1.268 . S
O320 Sc310 2.105 . S
O320 C314 1.268 . S
O321 Sc308 2.105 . S
O321 C315 1.268 . S
O322 Sc310 2.105 . S
O322 C316 1.268 . S
O323 Sc309 2.105 . S
O323 C317 1.268 . S
O324 Sc308 2.105 . S
O324 C316 1.268 . S
O325 Sc309 2.105 . S
O325 C315 1.268 . S
O326 Sc310 2.105 . S
O326 C317 1.268 . S
O327 Sc308 2.105 . S
O327 C313 1.268 . S
O328 Sc310 2.105 . S
O328 C312 1.268 . S
O329 Sc309 2.105 . S
O329 C314 1.268 . S
Sc330 O333 2.025 . S
Sc330 O340 2.105 . S
Sc330 O343 2.105 . S
Sc330 O346 2.105 . S
Sc330 O349 2.105 . S
Sc331 O333 2.025 . S
Sc331 O341 2.105 . S
Sc331 O345 2.105 . S
Sc331 O347 2.105 . S
Sc331 O351 2.105 . S
Sc332 O333 2.025 . S
Sc332 O342 2.105 . S
Sc332 O344 2.105 . S
Sc332 O348 2.105 . S
Sc332 O350 2.105 . S
O333 Sc330 2.025 . S
O333 Sc331 2.025 . S
O333 Sc332 2.025 . S
C334 O340 1.268 . S
C334 O350 1.268 . S
C335 O341 1.268 . S
C335 O349 1.268 . S
C336 O342 1.268 . S
C336 O351 1.268 . S
C337 O343 1.268 . S
C337 O347 1.268 . S
C338 O344 1.268 . S
C338 O346 1.268 . S
C339 O345 1.268 . S
C339 O348 1.268 . S
O340 Sc330 2.105 . S
O340 C334 1.268 . S
O341 Sc331 2.105 . S
O341 C335 1.268 . S
O342 Sc332 2.105 . S
O342 C336 1.268 . S
O343 Sc330 2.105 . S
O343 C337 1.268 . S
O344 Sc332 2.105 . S
O344 C338 1.268 . S
O345 Sc331 2.105 . S
O345 C339 1.268 . S
O346 Sc330 2.105 . S
O346 C338 1.268 . S
O347 Sc331 2.105 . S
O347 C337 1.268 . S
O348 Sc332 2.105 . S
O348 C339 1.268 . S
O349 Sc330 2.105 . S
O349 C335 1.268 . S
O350 Sc332 2.105 . S
O350 C334 1.268 . S
O351 Sc331 2.105 . S
O351 C336 1.268 . S
Sc352 O355 2.025 . S
Sc352 O362 2.105 . S
Sc352 O365 2.105 . S
Sc352 O368 2.105 . S
Sc352 O371 2.105 . S
Sc353 O355 2.025 . S
Sc353 O363 2.105 . S
Sc353 O367 2.105 . S
Sc353 O369 2.105 . S
Sc353 O373 2.105 . S
Sc354 O355 2.025 . S
Sc354 O364 2.105 . S
Sc354 O366 2.105 . S
Sc354 O370 2.105 . S
Sc354 O372 2.105 . S
O355 Sc352 2.025 . S
O355 Sc353 2.025 . S
O355 Sc354 2.025 . S
C356 O362 1.268 . S
C356 O372 1.268 . S
C357 O363 1.268 . S
C357 O371 1.268 . S
C358 O364 1.268 . S
C358 O373 1.268 . S
C359 O365 1.268 . S
C359 O369 1.268 . S
C360 O366 1.268 . S
C360 O368 1.268 . S
C361 O367 1.268 . S
C361 O370 1.268 . S
O362 Sc352 2.105 . S
O362 C356 1.268 . S
O363 Sc353 2.105 . S
O363 C357 1.268 . S
O364 Sc354 2.105 . S
O364 C358 1.268 . S
O365 Sc352 2.105 . S
O365 C359 1.268 . S
O366 Sc354 2.105 . S
O366 C360 1.268 . S
O367 Sc353 2.105 . S
O367 C361 1.268 . S
O368 Sc352 2.105 . S
O368 C360 1.268 . S
O369 Sc353 2.105 . S
O369 C359 1.268 . S
O370 Sc354 2.105 . S
O370 C361 1.268 . S
O371 Sc352 2.105 . S
O371 C357 1.268 . S
O372 Sc354 2.105 . S
O372 C356 1.268 . S
O373 Sc353 2.105 . S
O373 C358 1.268 . S
Sc374 O377 2.025 . S
Sc374 O384 2.105 . S
Sc374 O387 2.105 . S
Sc374 O390 2.105 . S
Sc374 O393 2.105 . S
Sc375 O377 2.025 . S
Sc375 O385 2.105 . S
Sc375 O389 2.105 . S
Sc375 O391 2.105 . S
Sc375 O395 2.105 . S
Sc376 O377 2.025 . S
Sc376 O386 2.105 . S
Sc376 O388 2.105 . S
Sc376 O392 2.105 . S
Sc376 O394 2.105 . S
O377 Sc374 2.025 . S
O377 Sc375 2.025 . S
O377 Sc376 2.025 . S
C378 O384 1.268 . S
C378 O394 1.268 . S
C379 O385 1.268 . S
C379 O393 1.268 . S
C380 O386 1.268 . S
C380 O395 1.268 . S
C381 O387 1.268 . S
C381 O391 1.268 . S
C382 O388 1.268 . S
C382 O390 1.268 . S
C383 O389 1.268 . S
C383 O392 1.268 . S
O384 Sc374 2.105 . S
O384 C378 1.268 . S
O385 Sc375 2.105 . S
O385 C379 1.268 . S
O386 Sc376 2.105 . S
O386 C380 1.268 . S
O387 Sc374 2.105 . S
O387 C381 1.268 . S
O388 Sc376 2.105 . S
O388 C382 1.268 . S
O389 Sc375 2.105 . S
O389 C383 1.268 . S
O390 Sc374 2.105 . S
O390 C382 1.268 . S
O391 Sc375 2.105 . S
O391 C381 1.268 . S
O392 Sc376 2.105 . S
O392 C383 1.268 . S
O393 Sc374 2.105 . S
O393 C379 1.268 . S
O394 Sc376 2.105 . S
O394 C378 1.268 . S
O395 Sc375 2.105 . S
O395 C380 1.268 . S
Sc396 O399 2.025 . S
Sc396 O406 2.105 . S
Sc396 O409 2.105 . S
Sc396 O412 2.105 . S
Sc396 O415 2.105 . S
Sc397 O399 2.025 . S
Sc397 O407 2.105 . S
Sc397 O411 2.105 . S
Sc397 O413 2.105 . S
Sc397 O417 2.105 . S
Sc398 O399 2.025 . S
Sc398 O408 2.105 . S
Sc398 O410 2.105 . S
Sc398 O414 2.105 . S
Sc398 O416 2.105 . S
O399 Sc396 2.025 . S
O399 Sc397 2.025 . S
O399 Sc398 2.025 . S
C400 O406 1.268 . S
C400 O416 1.268 . S
C401 O407 1.268 . S
C401 O415 1.268 . S
C402 O408 1.268 . S
C402 O417 1.268 . S
C403 O409 1.268 . S
C403 O413 1.268 . S
C404 O410 1.268 . S
C404 O412 1.268 . S
C405 O411 1.268 . S
C405 O414 1.268 . S
O406 Sc396 2.105 . S
O406 C400 1.268 . S
O407 Sc397 2.105 . S
O407 C401 1.268 . S
O408 Sc398 2.105 . S
O408 C402 1.268 . S
O409 Sc396 2.105 . S
O409 C403 1.268 . S
O410 Sc398 2.105 . S
O410 C404 1.268 . S
O411 Sc397 2.105 . S
O411 C405 1.268 . S
O412 Sc396 2.105 . S
O412 C404 1.268 . S
O413 Sc397 2.105 . S
O413 C403 1.268 . S
O414 Sc398 2.105 . S
O414 C405 1.268 . S
O415 Sc396 2.105 . S
O415 C401 1.268 . S
O416 Sc398 2.105 . S
O416 C400 1.268 . S
O417 Sc397 2.105 . S
O417 C402 1.268 . S
Sc418 O421 2.025 . S
Sc418 O428 2.105 . S
Sc418 O431 2.105 . S
Sc418 O434 2.105 . S
Sc418 O437 2.105 . S
Sc419 O421 2.025 . S
Sc419 O429 2.105 . S
Sc419 O433 2.105 . S
Sc419 O435 2.105 . S
Sc419 O439 2.105 . S
Sc420 O421 2.025 . S
Sc420 O430 2.105 . S
Sc420 O432 2.105 . S
Sc420 O436 2.105 . S
Sc420 O438 2.105 . S
O421 Sc418 2.025 . S
O421 Sc419 2.025 . S
O421 Sc420 2.025 . S
C422 O428 1.268 . S
C422 O438 1.268 . S
C423 O429 1.268 . S
C423 O437 1.268 . S
C424 O430 1.268 . S
C424 O439 1.268 . S
C425 O431 1.268 . S
C425 O435 1.268 . S
C426 O432 1.268 . S
C426 O434 1.268 . S
C427 O433 1.268 . S
C427 O436 1.268 . S
O428 Sc418 2.105 . S
O428 C422 1.268 . S
O429 Sc419 2.105 . S
O429 C423 1.268 . S
O430 Sc420 2.105 . S
O430 C424 1.268 . S
O431 Sc418 2.105 . S
O431 C425 1.268 . S
O432 Sc420 2.105 . S
O432 C426 1.268 . S
O433 Sc419 2.105 . S
O433 C427 1.268 . S
O434 Sc418 2.105 . S
O434 C426 1.268 . S
O435 Sc419 2.105 . S
O435 C425 1.268 . S
O436 Sc420 2.105 . S
O436 C427 1.268 . S
O437 Sc418 2.105 . S
O437 C423 1.268 . S
O438 Sc420 2.105 . S
O438 C422 1.268 . S
O439 Sc419 2.105 . S
O439 C424 1.268 . S
Sc440 O443 2.025 . S
Sc440 O450 2.105 . S
Sc440 O453 2.105 . S
Sc440 O456 2.105 . S
Sc440 O459 2.105 . S
Sc441 O443 2.025 . S
Sc441 O451 2.105 . S
Sc441 O455 2.105 . S
Sc441 O457 2.105 . S
Sc441 O461 2.105 . S
Sc442 O443 2.025 . S
Sc442 O452 2.105 . S
Sc442 O454 2.105 . S
Sc442 O458 2.105 . S
Sc442 O460 2.105 . S
O443 Sc440 2.025 . S
O443 Sc441 2.025 . S
O443 Sc442 2.025 . S
C444 O450 1.268 . S
C444 O460 1.268 . S
C445 O451 1.268 . S
C445 O459 1.268 . S
C446 O452 1.268 . S
C446 O461 1.268 . S
C447 O453 1.268 . S
C447 O457 1.268 . S
C448 O454 1.268 . S
C448 O456 1.268 . S
C449 O455 1.268 . S
C449 O458 1.268 . S
O450 Sc440 2.105 . S
O450 C444 1.268 . S
O451 Sc441 2.105 . S
O451 C445 1.268 . S
O452 Sc442 2.105 . S
O452 C446 1.268 . S
O453 Sc440 2.105 . S
O453 C447 1.268 . S
O454 Sc442 2.105 . S
O454 C448 1.268 . S
O455 Sc441 2.105 . S
O455 C449 1.268 . S
O456 Sc440 2.105 . S
O456 C448 1.268 . S
O457 Sc441 2.105 . S
O457 C447 1.268 . S
O458 Sc442 2.105 . S
O458 C449 1.268 . S
O459 Sc440 2.105 . S
O459 C445 1.268 . S
O460 Sc442 2.105 . S
O460 C444 1.268 . S
O461 Sc441 2.105 . S
O461 C446 1.268 . S
Sc462 O465 2.025 . S
Sc462 O472 2.105 . S
Sc462 O475 2.105 . S
Sc462 O478 2.105 . S
Sc462 O481 2.105 . S
Sc463 O465 2.025 . S
Sc463 O473 2.105 . S
Sc463 O477 2.105 . S
Sc463 O479 2.105 . S
Sc463 O483 2.105 . S
Sc464 O465 2.025 . S
Sc464 O474 2.105 . S
Sc464 O476 2.105 . S
Sc464 O480 2.105 . S
Sc464 O482 2.105 . S
O465 Sc462 2.025 . S
O465 Sc463 2.025 . S
O465 Sc464 2.025 . S
C466 O472 1.268 . S
C466 O482 1.268 . S
C467 O473 1.268 . S
C467 O481 1.268 . S
C468 O474 1.268 . S
C468 O483 1.268 . S
C469 O475 1.268 . S
C469 O479 1.268 . S
C470 O476 1.268 . S
C470 O478 1.268 . S
C471 O477 1.268 . S
C471 O480 1.268 . S
O472 Sc462 2.105 . S
O472 C466 1.268 . S
O473 Sc463 2.105 . S
O473 C467 1.268 . S
O474 Sc464 2.105 . S
O474 C468 1.268 . S
O475 Sc462 2.105 . S
O475 C469 1.268 . S
O476 Sc464 2.105 . S
O476 C470 1.268 . S
O477 Sc463 2.105 . S
O477 C471 1.268 . S
O478 Sc462 2.105 . S
O478 C470 1.268 . S
O479 Sc463 2.105 . S
O479 C469 1.268 . S
O480 Sc464 2.105 . S
O480 C471 1.268 . S
O481 Sc462 2.105 . S
O481 C467 1.268 . S
O482 Sc464 2.105 . S
O482 C466 1.268 . S
O483 Sc463 2.105 . S
O483 C468 1.268 . S
Sc484 O487 2.025 . S
Sc484 O494 2.105 . S
Sc484 O497 2.105 . S
Sc484 O500 2.105 . S
Sc484 O503 2.105 . S
Sc485 O487 2.025 . S
Sc485 O495 2.105 . S
Sc485 O499 2.105 . S
Sc485 O501 2.105 . S
Sc485 O505 2.105 . S
Sc486 O487 2.025 . S
Sc486 O496 2.105 . S
Sc486 O498 2.105 . S
Sc486 O502 2.105 . S
Sc486 O504 2.105 . S
O487 Sc484 2.025 . S
O487 Sc485 2.025 . S
O487 Sc486 2.025 . S
C488 O494 1.268 . S
C488 O504 1.268 . S
C489 O495 1.268 . S
C489 O503 1.268 . S
C490 O496 1.268 . S
C490 O505 1.268 . S
C491 O497 1.268 . S
C491 O501 1.268 . S
C492 O498 1.268 . S
C492 O500 1.268 . S
C493 O499 1.268 . S
C493 O502 1.268 . S
O494 Sc484 2.105 . S
O494 C488 1.268 . S
O495 Sc485 2.105 . S
O495 C489 1.268 . S
O496 Sc486 2.105 . S
O496 C490 1.268 . S
O497 Sc484 2.105 . S
O497 C491 1.268 . S
O498 Sc486 2.105 . S
O498 C492 1.268 . S
O499 Sc485 2.105 . S
O499 C493 1.268 . S
O500 Sc484 2.105 . S
O500 C492 1.268 . S
O501 Sc485 2.105 . S
O501 C491 1.268 . S
O502 Sc486 2.105 . S
O502 C493 1.268 . S
O503 Sc484 2.105 . S
O503 C489 1.268 . S
O504 Sc486 2.105 . S
O504 C488 1.268 . S
O505 Sc485 2.105 . S
O505 C490 1.268 . S
Sc506 O509 2.025 . S
Sc506 O516 2.105 . S
Sc506 O519 2.105 . S
Sc506 O522 2.105 . S
Sc506 O525 2.105 . S
Sc507 O509 2.025 . S
Sc507 O517 2.105 . S
Sc507 O521 2.105 . S
Sc507 O523 2.105 . S
Sc507 O527 2.105 . S
Sc508 O509 2.025 . S
Sc508 O518 2.105 . S
Sc508 O520 2.105 . S
Sc508 O524 2.105 . S
Sc508 O526 2.105 . S
O509 Sc506 2.025 . S
O509 Sc507 2.025 . S
O509 Sc508 2.025 . S
C510 O516 1.268 . S
C510 O526 1.268 . S
C511 O517 1.268 . S
C511 O525 1.268 . S
C512 O518 1.268 . S
C512 O527 1.268 . S
C513 O519 1.268 . S
C513 O523 1.268 . S
C514 O520 1.268 . S
C514 O522 1.268 . S
C515 O521 1.268 . S
C515 O524 1.268 . S
O516 Sc506 2.105 . S
O516 C510 1.268 . S
O517 Sc507 2.105 . S
O517 C511 1.268 . S
O518 Sc508 2.105 . S
O518 C512 1.268 . S
O519 Sc506 2.105 . S
O519 C513 1.268 . S
O520 Sc508 2.105 . S
O520 C514 1.268 . S
O521 Sc507 2.105 . S
O521 C515 1.268 . S
O522 Sc506 2.105 . S
O522 C514 1.268 . S
O523 Sc507 2.105 . S
O523 C513 1.268 . S
O524 Sc508 2.105 . S
O524 C515 1.268 . S
O525 Sc506 2.105 . S
O525 C511 1.268 . S
O526 Sc508 2.105 . S
O526 C510 1.268 . S
O527 Sc507 2.105 . S
O527 C512 1.268 . S
C528 C529 1.369 . S
C528 C530 1.419 . S
C528 H532 0.930 . S
C529 C528 1.369 . S
C529 C538 1.429 . S
C530 C528 1.419 . S
C530 C531 1.363 . S
C530 H533 0.929 . S
C531 C530 1.363 . S
C531 C537 1.428 . S
H532 C528 0.930 . S
H533 C530 0.929 . S
S534 N535 1.613 . S
S534 N536 1.610 . S
N535 S534 1.613 . S
N535 C538 1.350 . S
N536 S534 1.610 . S
N536 C537 1.351 . S
C537 C531 1.428 . S
C537 N536 1.351 . S
C537 C538 1.434 . S
C538 C529 1.429 . S
C538 N535 1.350 . S
C538 C537 1.434 . S
C539 C540 1.369 . S
C539 C541 1.419 . S
C539 H543 0.930 . S
C540 C539 1.369 . S
C540 C549 1.429 . S
C541 C539 1.419 . S
C541 C542 1.363 . S
C541 H544 0.929 . S
C542 C541 1.363 . S
C542 C548 1.428 . S
H543 C539 0.930 . S
H544 C541 0.929 . S
S545 N546 1.613 . S
S545 N547 1.610 . S
N546 S545 1.613 . S
N546 C549 1.350 . S
N547 S545 1.610 . S
N547 C548 1.351 . S
C548 C542 1.428 . S
C548 N547 1.351 . S
C548 C549 1.434 . S
C549 C540 1.429 . S
C549 N546 1.350 . S
C549 C548 1.434 . S
C550 C551 1.369 . S
C550 C552 1.419 . S
C550 H554 0.930 . S
C551 C550 1.369 . S
C551 C560 1.429 . S
C552 C550 1.419 . S
C552 C553 1.363 . S
C552 H555 0.929 1_565 S
C553 C552 1.363 . S
C553 C559 1.428 . S
H554 C550 0.930 . S
H555 C552 0.929 1_545 S
S556 N557 1.613 . S
S556 N558 1.610 . S
N557 S556 1.613 . S
N557 C560 1.350 . S
N558 S556 1.610 . S
N558 C559 1.351 . S
C559 C553 1.428 . S
C559 N558 1.351 . S
C559 C560 1.434 . S
C560 C551 1.429 . S
C560 N557 1.350 . S
C560 C559 1.434 . S
C561 C562 1.369 . S
C561 C563 1.419 . S
C561 H565 0.930 . S
C562 C561 1.369 . S
C562 C571 1.429 1_545 S
C563 C561 1.419 . S
C563 C564 1.363 . S
C563 H566 0.929 . S
C564 C563 1.363 . S
C564 C570 1.428 . S
H565 C561 0.930 . S
H566 C563 0.929 . S
S567 N568 1.613 . S
S567 N569 1.610 1_565 S
N568 S567 1.613 . S
N568 C571 1.350 . S
N569 S567 1.610 1_545 S
N569 C570 1.351 . S
C570 C564 1.428 . S
C570 N569 1.351 . S
C570 C571 1.434 1_545 S
C571 C562 1.429 1_565 S
C571 N568 1.350 . S
C571 C570 1.434 1_565 S
C572 C573 1.369 . S
C572 C574 1.419 . S
C572 H576 0.930 . S
C573 C572 1.369 . S
C573 C582 1.429 . S
C574 C572 1.419 . S
C574 C575 1.363 . S
C574 H577 0.929 . S
C575 C574 1.363 . S
C575 C581 1.428 . S
H576 C572 0.930 . S
H577 C574 0.929 . S
S578 N579 1.613 . S
S578 N580 1.610 . S
N579 S578 1.613 . S
N579 C582 1.350 . S
N580 S578 1.610 . S
N580 C581 1.351 . S
C581 C575 1.428 . S
C581 N580 1.351 . S
C581 C582 1.434 . S
C582 C573 1.429 . S
C582 N579 1.350 . S
C582 C581 1.434 . S
C583 C584 1.369 . S
C583 C585 1.419 1_554 S
C583 H587 0.930 . S
C584 C583 1.369 . S
C584 C593 1.429 . S
C585 C583 1.419 1_556 S
C585 C586 1.363 1_556 S
C585 H588 0.929 . S
C586 C585 1.363 1_554 S
C586 C592 1.428 . S
H587 C583 0.930 . S
H588 C585 0.929 . S
S589 N590 1.613 . S
S589 N591 1.610 . S
N590 S589 1.613 . S
N590 C593 1.350 . S
N591 S589 1.610 . S
N591 C592 1.351 . S
C592 C586 1.428 . S
C592 N591 1.351 . S
C592 C593 1.434 . S
C593 C584 1.429 . S
C593 N590 1.350 . S
C593 C592 1.434 . S
C594 C595 1.369 . S
C594 C596 1.419 . S
C594 H598 0.930 . S
C595 C594 1.369 . S
C595 C604 1.429 . S
C596 C594 1.419 . S
C596 C597 1.363 . S
C596 H599 0.929 . S
C597 C596 1.363 . S
C597 C603 1.428 . S
H598 C594 0.930 . S
H599 C596 0.929 . S
S600 N601 1.613 . S
S600 N602 1.610 . S
N601 S600 1.613 . S
N601 C604 1.350 . S
N602 S600 1.610 . S
N602 C603 1.351 . S
C603 C597 1.428 . S
C603 N602 1.351 . S
C603 C604 1.434 . S
C604 C595 1.429 . S
C604 N601 1.350 . S
C604 C603 1.434 . S
C605 C606 1.369 . S
C605 C607 1.419 . S
C605 H609 0.930 . S
C606 C605 1.369 . S
C606 C615 1.429 . S
C607 C605 1.419 . S
C607 C608 1.363 . S
C607 H610 0.929 . S
C608 C607 1.363 . S
C608 C614 1.428 . S
H609 C605 0.930 . S
H610 C607 0.929 . S
S611 N612 1.613 . S
S611 N613 1.610 1_556 S
N612 S611 1.613 . S
N612 C615 1.350 . S
N613 S611 1.610 1_554 S
N613 C614 1.351 1_554 S
C614 C608 1.428 . S
C614 N613 1.351 1_556 S
C614 C615 1.434 . S
C615 C606 1.429 . S
C615 N612 1.350 . S
C615 C614 1.434 . S
C616 C617 1.369 . S
C616 C618 1.419 . S
C616 H620 0.930 . S
C617 C616 1.369 . S
C617 C626 1.429 . S
C618 C616 1.419 . S
C618 C619 1.363 . S
C618 H621 0.929 . S
C619 C618 1.363 . S
C619 C625 1.428 . S
H620 C616 0.930 . S
H621 C618 0.929 . S
S622 N623 1.613 . S
S622 N624 1.610 . S
N623 S622 1.613 . S
N623 C626 1.350 . S
N624 S622 1.610 . S
N624 C625 1.351 . S
C625 C619 1.428 . S
C625 N624 1.351 . S
C625 C626 1.434 . S
C626 C617 1.429 . S
C626 N623 1.350 . S
C626 C625 1.434 . S
C627 C628 1.369 . S
C627 C629 1.419 . S
C627 H631 0.930 . S
C628 C627 1.369 . S
C628 C637 1.429 1_455 S
C629 C627 1.419 . S
C629 C630 1.363 . S
C629 H632 0.929 . S
C630 C629 1.363 . S
C630 C636 1.428 . S
H631 C627 0.930 . S
H632 C629 0.929 . S
S633 N634 1.613 . S
S633 N635 1.610 1_655 S
N634 S633 1.613 . S
N634 C637 1.350 . S
N635 S633 1.610 1_455 S
N635 C636 1.351 . S
C636 C630 1.428 . S
C636 N635 1.351 . S
C636 C637 1.434 1_455 S
C637 C628 1.429 1_655 S
C637 N634 1.350 . S
C637 C636 1.434 1_655 S
C638 C639 1.369 . S
C638 C640 1.419 . S
C638 H642 0.930 . S
C639 C638 1.369 . S
C639 C648 1.429 . S
C640 C638 1.419 . S
C640 C641 1.363 . S
C640 H643 0.929 . S
C641 C640 1.363 . S
C641 C647 1.428 . S
H642 C638 0.930 . S
H643 C640 0.929 . S
S644 N645 1.613 . S
S644 N646 1.610 . S
N645 S644 1.613 . S
N645 C648 1.350 . S
N646 S644 1.610 . S
N646 C647 1.351 . S
C647 C641 1.428 . S
C647 N646 1.351 . S
C647 C648 1.434 . S
C648 C639 1.429 . S
C648 N645 1.350 . S
C648 C647 1.434 . S
C649 C650 1.369 . S
C649 C651 1.419 . S
C649 H653 0.930 . S
C650 C649 1.369 . S
C650 C659 1.429 . S
C651 C649 1.419 . S
C651 C652 1.363 . S
C651 H654 0.929 . S
C652 C651 1.363 . S
C652 C658 1.428 . S
H653 C649 0.930 . S
H654 C651 0.929 . S
S655 N656 1.613 . S
S655 N657 1.610 . S
N656 S655 1.613 . S
N656 C659 1.350 . S
N657 S655 1.610 . S
N657 C658 1.351 . S
C658 C652 1.428 . S
C658 N657 1.351 . S
C658 C659 1.434 . S
C659 C650 1.429 . S
C659 N656 1.350 . S
C659 C658 1.434 . S
C660 C661 1.369 . S
C660 C662 1.419 . S
C660 H664 0.930 . S
C661 C660 1.369 . S
C661 C670 1.429 . S
C662 C660 1.419 . S
C662 C663 1.363 . S
C662 H665 0.929 . S
C663 C662 1.363 . S
C663 C669 1.428 . S
H664 C660 0.930 . S
H665 C662 0.929 . S
S666 N667 1.613 . S
S666 N668 1.610 . S
N667 S666 1.613 . S
N667 C670 1.350 . S
N668 S666 1.610 . S
N668 C669 1.351 . S
C669 C663 1.428 . S
C669 N668 1.351 . S
C669 C670 1.434 . S
C670 C661 1.429 . S
C670 N667 1.350 . S
C670 C669 1.434 . S
C671 C672 1.369 . S
C671 C673 1.419 . S
C671 H675 0.930 . S
C672 C671 1.369 . S
C672 C681 1.429 . S
C673 C671 1.419 . S
C673 C674 1.363 . S
C673 H676 0.929 . S
C674 C673 1.363 . S
C674 C680 1.428 . S
H675 C671 0.930 . S
H676 C673 0.929 . S
S677 N678 1.613 . S
S677 N679 1.610 . S
N678 S677 1.613 . S
N678 C681 1.350 . S
N679 S677 1.610 . S
N679 C680 1.351 . S
C680 C674 1.428 . S
C680 N679 1.351 . S
C680 C681 1.434 . S
C681 C672 1.429 . S
C681 N678 1.350 . S
C681 C680 1.434 . S
C682 C683 1.369 . S
C682 C684 1.419 . S
C682 H686 0.930 . S
C683 C682 1.369 . S
C683 C692 1.429 . S
C684 C682 1.419 . S
C684 C685 1.363 . S
C684 H687 0.929 . S
C685 C684 1.363 . S
C685 C691 1.428 . S
H686 C682 0.930 . S
H687 C684 0.929 . S
S688 N689 1.613 . S
S688 N690 1.610 1_545 S
N689 S688 1.613 . S
N689 C692 1.350 . S
N690 S688 1.610 1_565 S
N690 C691 1.351 1_565 S
C691 C685 1.428 . S
C691 N690 1.351 1_545 S
C691 C692 1.434 . S
C692 C683 1.429 . S
C692 N689 1.350 . S
C692 C691 1.434 . S
C693 C694 1.369 . S
C693 C695 1.419 . S
C693 H697 0.930 . S
C694 C693 1.369 . S
C694 C703 1.429 . S
C695 C693 1.419 . S
C695 C696 1.363 . S
C695 H698 0.929 . S
C696 C695 1.363 . S
C696 C702 1.428 1_565 S
H697 C693 0.930 . S
H698 C695 0.929 . S
S699 N700 1.613 1_545 S
S699 N701 1.610 . S
N700 S699 1.613 1_565 S
N700 C703 1.350 . S
N701 S699 1.610 . S
N701 C702 1.351 . S
C702 C696 1.428 1_545 S
C702 N701 1.351 . S
C702 C703 1.434 1_545 S
C703 C694 1.429 . S
C703 N700 1.350 . S
C703 C702 1.434 1_565 S
C704 C705 1.369 . S
C704 C706 1.419 . S
C704 H708 0.930 . S
C705 C704 1.369 . S
C705 C714 1.429 . S
C706 C704 1.419 . S
C706 C707 1.363 . S
C706 H709 0.929 . S
C707 C706 1.363 . S
C707 C713 1.428 . S
H708 C704 0.930 . S
H709 C706 0.929 . S
S710 N711 1.613 . S
S710 N712 1.610 . S
N711 S710 1.613 . S
N711 C714 1.350 . S
N712 S710 1.610 . S
N712 C713 1.351 . S
C713 C707 1.428 . S
C713 N712 1.351 . S
C713 C714 1.434 . S
C714 C705 1.429 . S
C714 N711 1.350 . S
C714 C713 1.434 . S
C715 C716 1.369 . S
C715 C717 1.419 . S
C715 H719 0.930 . S
C716 C715 1.369 . S
C716 C725 1.429 . S
C717 C715 1.419 . S
C717 C718 1.363 . S
C717 H720 0.929 . S
C718 C717 1.363 . S
C718 C724 1.428 . S
H719 C715 0.930 . S
H720 C717 0.929 . S
S721 N722 1.613 . S
S721 N723 1.610 1_556 S
N722 S721 1.613 . S
N722 C725 1.350 . S
N723 S721 1.610 1_554 S
N723 C724 1.351 1_554 S
C724 C718 1.428 . S
C724 N723 1.351 1_556 S
C724 C725 1.434 . S
C725 C716 1.429 . S
C725 N722 1.350 . S
C725 C724 1.434 . S
C726 C727 1.369 . S
C726 C728 1.419 . S
C726 H730 0.930 . S
C727 C726 1.369 . S
C727 C736 1.429 . S
C728 C726 1.419 . S
C728 C729 1.363 . S
C728 H731 0.929 . S
C729 C728 1.363 . S
C729 C735 1.428 . S
H730 C726 0.930 . S
H731 C728 0.929 . S
S732 N733 1.613 . S
S732 N734 1.610 . S
N733 S732 1.613 . S
N733 C736 1.350 . S
N734 S732 1.610 . S
N734 C735 1.351 . S
C735 C729 1.428 . S
C735 N734 1.351 . S
C735 C736 1.434 . S
C736 C727 1.429 . S
C736 N733 1.350 . S
C736 C735 1.434 . S
C737 C738 1.369 . S
C737 C739 1.419 . S
C737 H741 0.930 1_554 S
C738 C737 1.369 . S
C738 C747 1.429 . S
C739 C737 1.419 . S
C739 C740 1.363 . S
C739 H742 0.929 . S
C740 C739 1.363 . S
C740 C746 1.428 . S
H741 C737 0.930 1_556 S
H742 C739 0.929 . S
S743 N744 1.613 . S
S743 N745 1.610 . S
N744 S743 1.613 . S
N744 C747 1.350 . S
N745 S743 1.610 . S
N745 C746 1.351 . S
C746 C740 1.428 . S
C746 N745 1.351 . S
C746 C747 1.434 . S
C747 C738 1.429 . S
C747 N744 1.350 . S
C747 C746 1.434 . S
C748 C749 1.369 . S
C748 C750 1.419 . S
C748 H752 0.930 . S
C749 C748 1.369 . S
C749 C758 1.429 . S
C750 C748 1.419 . S
C750 C751 1.363 . S
C750 H753 0.929 . S
C751 C750 1.363 . S
C751 C757 1.428 . S
H752 C748 0.930 . S
H753 C750 0.929 . S
S754 N755 1.613 . S
S754 N756 1.610 . S
N755 S754 1.613 . S
N755 C758 1.350 . S
N756 S754 1.610 . S
N756 C757 1.351 . S
C757 C751 1.428 . S
C757 N756 1.351 . S
C757 C758 1.434 . S
C758 C749 1.429 . S
C758 N755 1.350 . S
C758 C757 1.434 . S
C759 C760 1.369 . S
C759 C761 1.419 . S
C759 H763 0.930 . S
C760 C759 1.369 . S
C760 C769 1.429 . S
C761 C759 1.419 . S
C761 C762 1.363 . S
C761 H764 0.929 . S
C762 C761 1.363 . S
C762 C768 1.428 . S
H763 C759 0.930 . S
H764 C761 0.929 . S
S765 N766 1.613 . S
S765 N767 1.610 1_455 S
N766 S765 1.613 . S
N766 C769 1.350 1_455 S
N767 S765 1.610 1_655 S
N767 C768 1.351 . S
C768 C762 1.428 . S
C768 N767 1.351 . S
C768 C769 1.434 . S
C769 C760 1.429 . S
C769 N766 1.350 1_655 S
C769 C768 1.434 . S
C770 C771 1.369 . S
C770 C772 1.419 . S
C770 H774 0.930 . S
C771 C770 1.369 . S
C771 C780 1.429 . S
C772 C770 1.419 . S
C772 C773 1.363 . S
C772 H775 0.929 . S
C773 C772 1.363 . S
C773 C779 1.428 . S
H774 C770 0.930 . S
H775 C772 0.929 . S
S776 N777 1.613 . S
S776 N778 1.610 . S
N777 S776 1.613 . S
N777 C780 1.350 . S
N778 S776 1.610 . S
N778 C779 1.351 . S
C779 C773 1.428 . S
C779 N778 1.351 . S
C779 C780 1.434 . S
C780 C771 1.429 . S
C780 N777 1.350 . S
C780 C779 1.434 . S
C781 C782 1.369 . S
C781 C783 1.419 . S
C781 H785 0.930 . S
C782 C781 1.369 . S
C782 C791 1.429 . S
C783 C781 1.419 . S
C783 C784 1.363 . S
C783 H786 0.929 . S
C784 C783 1.363 . S
C784 C790 1.428 . S
H785 C781 0.930 . S
H786 C783 0.929 . S
S787 N788 1.613 1_655 S
S787 N789 1.610 . S
N788 S787 1.613 1_455 S
N788 C791 1.350 . S
N789 S787 1.610 . S
N789 C790 1.351 1_655 S
C790 C784 1.428 . S
C790 N789 1.351 1_455 S
C790 C791 1.434 . S
C791 C782 1.429 . S
C791 N788 1.350 . S
C791 C790 1.434 . S
C792 C793 1.369 . S
C792 C794 1.419 . S
C792 H796 0.930 . S
C793 C792 1.369 . S
C793 C802 1.429 . S
C794 C792 1.419 . S
C794 C795 1.363 . S
C794 H797 0.929 . S
C795 C794 1.363 . S
C795 C801 1.428 . S
H796 C792 0.930 . S
H797 C794 0.929 . S
S798 N799 1.613 . S
S798 N800 1.610 . S
N799 S798 1.613 . S
N799 C802 1.350 . S
N800 S798 1.610 . S
N800 C801 1.351 . S
C801 C795 1.428 . S
C801 N800 1.351 . S
C801 C802 1.434 . S
C802 C793 1.429 . S
C802 N799 1.350 . S
C802 C801 1.434 . S
C803 C804 1.369 . S
C803 C805 1.419 . S
C803 H807 0.930 . S
C804 C803 1.369 . S
C804 C813 1.429 . S
C805 C803 1.419 . S
C805 C806 1.363 . S
C805 H808 0.929 . S
C806 C805 1.363 . S
C806 C812 1.428 . S
H807 C803 0.930 . S
H808 C805 0.929 . S
S809 N810 1.613 . S
S809 N811 1.610 . S
N810 S809 1.613 . S
N810 C813 1.350 . S
N811 S809 1.610 . S
N811 C812 1.351 . S
C812 C806 1.428 . S
C812 N811 1.351 . S
C812 C813 1.434 . S
C813 C804 1.429 . S
C813 N810 1.350 . S
C813 C812 1.434 . S
C814 C815 1.369 . S
C814 C816 1.419 . S
C814 H818 0.930 . S
C815 C814 1.369 . S
C815 C824 1.429 . S
C816 C814 1.419 . S
C816 C817 1.363 . S
C816 H819 0.929 . S
C817 C816 1.363 . S
C817 C823 1.428 . S
H818 C814 0.930 . S
H819 C816 0.929 . S
S820 N821 1.613 . S
S820 N822 1.610 . S
N821 S820 1.613 . S
N821 C824 1.350 . S
N822 S820 1.610 . S
N822 C823 1.351 . S
C823 C817 1.428 . S
C823 N822 1.351 . S
C823 C824 1.434 . S
C824 C815 1.429 . S
C824 N821 1.350 . S
C824 C823 1.434 . S
C825 C826 1.369 . S
C825 C827 1.419 . S
C825 H829 0.930 . S
C826 C825 1.369 . S
C826 C835 1.429 . S
C827 C825 1.419 . S
C827 C828 1.363 . S
C827 H830 0.929 . S
C828 C827 1.363 . S
C828 C834 1.428 . S
H829 C825 0.930 . S
H830 C827 0.929 . S
S831 N832 1.613 . S
S831 N833 1.610 . S
N832 S831 1.613 . S
N832 C835 1.350 . S
N833 S831 1.610 . S
N833 C834 1.351 . S
C834 C828 1.428 . S
C834 N833 1.351 . S
C834 C835 1.434 . S
C835 C826 1.429 . S
C835 N832 1.350 . S
C835 C834 1.434 . S
C836 C837 1.369 . S
C836 C838 1.419 . S
C836 H840 0.930 . S
C837 C836 1.369 . S
C837 C846 1.429 . S
C838 C836 1.419 . S
C838 C839 1.363 . S
C838 H841 0.929 . S
C839 C838 1.363 . S
C839 C845 1.428 . S
H840 C836 0.930 . S
H841 C838 0.929 . S
S842 N843 1.613 . S
S842 N844 1.610 . S
N843 S842 1.613 . S
N843 C846 1.350 . S
N844 S842 1.610 . S
N844 C845 1.351 . S
C845 C839 1.428 . S
C845 N844 1.351 . S
C845 C846 1.434 . S
C846 C837 1.429 . S
C846 N843 1.350 . S
C846 C845 1.434 . S
C847 C848 1.369 . S
C847 C849 1.419 . S
C847 H851 0.930 . S
C848 C847 1.369 . S
C848 C857 1.429 . S
C849 C847 1.419 . S
C849 C850 1.363 . S
C849 H852 0.929 . S
C850 C849 1.363 . S
C850 C856 1.428 . S
H851 C847 0.930 . S
H852 C849 0.929 . S
S853 N854 1.613 . S
S853 N855 1.610 . S
N854 S853 1.613 . S
N854 C857 1.350 . S
N855 S853 1.610 . S
N855 C856 1.351 . S
C856 C850 1.428 . S
C856 N855 1.351 . S
C856 C857 1.434 . S
C857 C848 1.429 . S
C857 N854 1.350 . S
C857 C856 1.434 . S
C858 C859 1.369 . S
C858 C860 1.419 . S
C858 H862 0.930 . S
C859 C858 1.369 . S
C859 C868 1.429 . S
C860 C858 1.419 . S
C860 C861 1.363 . S
C860 H863 0.929 . S
C861 C860 1.363 . S
C861 C867 1.428 . S
H862 C858 0.930 . S
H863 C860 0.929 . S
S864 N865 1.613 . S
S864 N866 1.610 . S
N865 S864 1.613 . S
N865 C868 1.350 . S
N866 S864 1.610 . S
N866 C867 1.351 . S
C867 C861 1.428 . S
C867 N866 1.351 . S
C867 C868 1.434 . S
C868 C859 1.429 . S
C868 N865 1.350 . S
C868 C867 1.434 . S
C869 C870 1.369 . S
C869 C871 1.419 . S
C869 H873 0.930 . S
C870 C869 1.369 . S
C870 C879 1.429 . S
C871 C869 1.419 . S
C871 C872 1.363 . S
C871 H874 0.929 . S
C872 C871 1.363 . S
C872 C878 1.428 . S
H873 C869 0.930 . S
H874 C871 0.929 . S
S875 N876 1.613 . S
S875 N877 1.610 . S
N876 S875 1.613 . S
N876 C879 1.350 . S
N877 S875 1.610 . S
N877 C878 1.351 . S
C878 C872 1.428 . S
C878 N877 1.351 . S
C878 C879 1.434 . S
C879 C870 1.429 . S
C879 N876 1.350 . S
C879 C878 1.434 . S
C880 C881 1.369 . S
C880 C882 1.419 . S
C880 H884 0.930 . S
C881 C880 1.369 . S
C881 C890 1.429 . S
C882 C880 1.419 . S
C882 C883 1.363 . S
C882 H885 0.929 . S
C883 C882 1.363 . S
C883 C889 1.428 . S
H884 C880 0.930 . S
H885 C882 0.929 . S
S886 N887 1.613 . S
S886 N888 1.610 . S
N887 S886 1.613 . S
N887 C890 1.350 . S
N888 S886 1.610 . S
N888 C889 1.351 . S
C889 C883 1.428 . S
C889 N888 1.351 . S
C889 C890 1.434 . S
C890 C881 1.429 . S
C890 N887 1.350 . S
C890 C889 1.434 . S
C891 C892 1.369 . S
C891 C893 1.419 . S
C891 H895 0.930 . S
C892 C891 1.369 . S
C892 C901 1.429 . S
C893 C891 1.419 . S
C893 C894 1.363 . S
C893 H896 0.929 . S
C894 C893 1.363 . S
C894 C900 1.428 . S
H895 C891 0.930 . S
H896 C893 0.929 . S
S897 N898 1.613 . S
S897 N899 1.610 . S
N898 S897 1.613 . S
N898 C901 1.350 . S
N899 S897 1.610 . S
N899 C900 1.351 . S
C900 C894 1.428 . S
C900 N899 1.351 . S
C900 C901 1.434 . S
C901 C892 1.429 . S
C901 N898 1.350 . S
C901 C900 1.434 . S
C902 C903 1.369 . S
C902 C904 1.419 . S
C902 H906 0.930 . S
C903 C902 1.369 . S
C903 C912 1.429 . S
C904 C902 1.419 . S
C904 C905 1.363 . S
C904 H907 0.929 . S
C905 C904 1.363 . S
C905 C911 1.428 . S
H906 C902 0.930 . S
H907 C904 0.929 . S
S908 N909 1.613 . S
S908 N910 1.610 . S
N909 S908 1.613 . S
N909 C912 1.350 . S
N910 S908 1.610 . S
N910 C911 1.351 . S
C911 C905 1.428 . S
C911 N910 1.351 . S
C911 C912 1.434 . S
C912 C903 1.429 . S
C912 N909 1.350 . S
C912 C911 1.434 . S
C913 C914 1.369 . S
C913 C915 1.419 . S
C913 H917 0.930 . S
C914 C913 1.369 . S
C914 C923 1.429 . S
C915 C913 1.419 . S
C915 C916 1.363 . S
C915 H918 0.929 . S
C916 C915 1.363 . S
C916 C922 1.428 . S
H917 C913 0.930 . S
H918 C915 0.929 . S
S919 N920 1.613 . S
S919 N921 1.610 . S
N920 S919 1.613 . S
N920 C923 1.350 . S
N921 S919 1.610 . S
N921 C922 1.351 . S
C922 C916 1.428 . S
C922 N921 1.351 . S
C922 C923 1.434 . S
C923 C914 1.429 . S
C923 N920 1.350 . S
C923 C922 1.434 . S
C924 C925 1.369 . S
C924 C926 1.419 . S
C924 H928 0.930 . S
C925 C924 1.369 . S
C925 C934 1.429 . S
C926 C924 1.419 . S
C926 C927 1.363 . S
C926 H929 0.929 . S
C927 C926 1.363 . S
C927 C933 1.428 . S
H928 C924 0.930 . S
H929 C926 0.929 . S
S930 N931 1.613 . S
S930 N932 1.610 . S
N931 S930 1.613 . S
N931 C934 1.350 . S
N932 S930 1.610 . S
N932 C933 1.351 . S
C933 C927 1.428 . S
C933 N932 1.351 . S
C933 C934 1.434 . S
C934 C925 1.429 . S
C934 N931 1.350 . S
C934 C933 1.434 . S
C935 C936 1.369 . S
C935 C937 1.419 . S
C935 H939 0.930 . S
C936 C935 1.369 . S
C936 C945 1.429 . S
C937 C935 1.419 . S
C937 C938 1.363 . S
C937 H940 0.929 . S
C938 C937 1.363 . S
C938 C944 1.428 . S
H939 C935 0.930 . S
H940 C937 0.929 . S
S941 N942 1.613 . S
S941 N943 1.610 . S
N942 S941 1.613 . S
N942 C945 1.350 . S
N943 S941 1.610 . S
N943 C944 1.351 . S
C944 C938 1.428 . S
C944 N943 1.351 . S
C944 C945 1.434 . S
C945 C936 1.429 . S
C945 N942 1.350 . S
C945 C944 1.434 . S
C946 C947 1.369 . S
C946 C948 1.419 . S
C946 H950 0.930 . S
C947 C946 1.369 . S
C947 C956 1.429 . S
C948 C946 1.419 . S
C948 C949 1.363 . S
C948 H951 0.929 . S
C949 C948 1.363 . S
C949 C955 1.428 . S
H950 C946 0.930 . S
H951 C948 0.929 . S
S952 N953 1.613 . S
S952 N954 1.610 . S
N953 S952 1.613 . S
N953 C956 1.350 . S
N954 S952 1.610 . S
N954 C955 1.351 . S
C955 C949 1.428 . S
C955 N954 1.351 . S
C955 C956 1.434 . S
C956 C947 1.429 . S
C956 N953 1.350 . S
C956 C955 1.434 . S
C957 C958 1.369 . S
C957 C959 1.419 . S
C957 H961 0.930 . S
C958 C957 1.369 . S
C958 C967 1.429 . S
C959 C957 1.419 . S
C959 C960 1.363 . S
C959 H962 0.929 . S
C960 C959 1.363 . S
C960 C966 1.428 . S
H961 C957 0.930 . S
H962 C959 0.929 . S
S963 N964 1.613 . S
S963 N965 1.610 . S
N964 S963 1.613 . S
N964 C967 1.350 . S
N965 S963 1.610 . S
N965 C966 1.351 . S
C966 C960 1.428 . S
C966 N965 1.351 . S
C966 C967 1.434 . S
C967 C958 1.429 . S
C967 N964 1.350 . S
C967 C966 1.434 . S
C968 C969 1.369 . S
C968 C970 1.419 . S
C968 H972 0.930 . S
C969 C968 1.369 . S
C969 C978 1.429 . S
C970 C968 1.419 . S
C970 C971 1.363 . S
C970 H973 0.929 . S
C971 C970 1.363 . S
C971 C977 1.428 . S
H972 C968 0.930 . S
H973 C970 0.929 . S
S974 N975 1.613 . S
S974 N976 1.610 . S
N975 S974 1.613 . S
N975 C978 1.350 . S
N976 S974 1.610 . S
N976 C977 1.351 . S
C977 C971 1.428 . S
C977 N976 1.351 . S
C977 C978 1.434 . S
C978 C969 1.429 . S
C978 N975 1.350 . S
C978 C977 1.434 . S
C979 C980 1.369 . S
C979 C981 1.419 . S
C979 H983 0.930 . S
C980 C979 1.369 . S
C980 C989 1.429 . S
C981 C979 1.419 . S
C981 C982 1.363 . S
C981 H984 0.929 . S
C982 C981 1.363 . S
C982 C988 1.428 . S
H983 C979 0.930 . S
H984 C981 0.929 . S
S985 N986 1.613 . S
S985 N987 1.610 . S
N986 S985 1.613 . S
N986 C989 1.350 . S
N987 S985 1.610 . S
N987 C988 1.351 . S
C988 C982 1.428 . S
C988 N987 1.351 . S
C988 C989 1.434 . S
C989 C980 1.429 . S
C989 N986 1.350 . S
C989 C988 1.434 . S
C990 C991 1.369 . S
C990 C992 1.419 . S
C990 H994 0.930 . S
C991 C990 1.369 . S
C991 C1000 1.429 . S
C992 C990 1.419 . S
C992 C993 1.363 . S
C992 H995 0.929 . S
C993 C992 1.363 . S
C993 C999 1.428 . S
H994 C990 0.930 . S
H995 C992 0.929 . S
S996 N997 1.613 . S
S996 N998 1.610 . S
N997 S996 1.613 . S
N997 C1000 1.350 . S
N998 S996 1.610 . S
N998 C999 1.351 . S
C999 C993 1.428 . S
C999 N998 1.351 . S
C999 C1000 1.434 . S
C1000 C991 1.429 . S
C1000 N997 1.350 . S
C1000 C999 1.434 . S
C1001 C1002 1.369 . S
C1001 C1003 1.419 . S
C1001 H1005 0.930 . S
C1002 C1001 1.369 . S
C1002 C1011 1.429 . S
C1003 C1001 1.419 . S
C1003 C1004 1.363 . S
C1003 H1006 0.929 . S
C1004 C1003 1.363 . S
C1004 C1010 1.428 . S
H1005 C1001 0.930 . S
H1006 C1003 0.929 . S
S1007 N1008 1.613 . S
S1007 N1009 1.610 . S
N1008 S1007 1.613 . S
N1008 C1011 1.350 . S
N1009 S1007 1.610 . S
N1009 C1010 1.351 . S
C1010 C1004 1.428 . S
C1010 N1009 1.351 . S
C1010 C1011 1.434 . S
C1011 C1002 1.429 . S
C1011 N1008 1.350 . S
C1011 C1010 1.434 . S
C1012 C1013 1.369 . S
C1012 C1014 1.419 . S
C1012 H1016 0.930 . S
C1013 C1012 1.369 . S
C1013 C1022 1.429 . S
C1014 C1012 1.419 . S
C1014 C1015 1.363 . S
C1014 H1017 0.929 . S
C1015 C1014 1.363 . S
C1015 C1021 1.428 . S
H1016 C1012 0.930 . S
H1017 C1014 0.929 . S
S1018 N1019 1.613 . S
S1018 N1020 1.610 . S
N1019 S1018 1.613 . S
N1019 C1022 1.350 . S
N1020 S1018 1.610 . S
N1020 C1021 1.351 . S
C1021 C1015 1.428 . S
C1021 N1020 1.351 . S
C1021 C1022 1.434 . S
C1022 C1013 1.429 . S
C1022 N1019 1.350 . S
C1022 C1021 1.434 . S
C1023 C1024 1.369 . S
C1023 C1025 1.419 . S
C1023 H1027 0.930 . S
C1024 C1023 1.369 . S
C1024 C1033 1.429 . S
C1025 C1023 1.419 . S
C1025 C1026 1.363 . S
C1025 H1028 0.929 . S
C1026 C1025 1.363 . S
C1026 C1032 1.428 . S
H1027 C1023 0.930 . S
H1028 C1025 0.929 . S
S1029 N1030 1.613 . S
S1029 N1031 1.610 . S
N1030 S1029 1.613 . S
N1030 C1033 1.350 . S
N1031 S1029 1.610 . S
N1031 C1032 1.351 . S
C1032 C1026 1.428 . S
C1032 N1031 1.351 . S
C1032 C1033 1.434 . S
C1033 C1024 1.429 . S
C1033 N1030 1.350 . S
C1033 C1032 1.434 . S
C1034 C1035 1.369 . S
C1034 C1036 1.419 . S
C1034 H1038 0.930 . S
C1035 C1034 1.369 . S
C1035 C1044 1.429 . S
C1036 C1034 1.419 . S
C1036 C1037 1.363 . S
C1036 H1039 0.929 . S
C1037 C1036 1.363 . S
C1037 C1043 1.428 . S
H1038 C1034 0.930 . S
H1039 C1036 0.929 . S
S1040 N1041 1.613 . S
S1040 N1042 1.610 . S
N1041 S1040 1.613 . S
N1041 C1044 1.350 . S
N1042 S1040 1.610 . S
N1042 C1043 1.351 . S
C1043 C1037 1.428 . S
C1043 N1042 1.351 . S
C1043 C1044 1.434 . S
C1044 C1035 1.429 . S
C1044 N1041 1.350 . S
C1044 C1043 1.434 . S
C1045 C1046 1.369 . S
C1045 C1047 1.419 . S
C1045 H1049 0.930 . S
C1046 C1045 1.369 . S
C1046 C1055 1.429 . S
C1047 C1045 1.419 . S
C1047 C1048 1.363 . S
C1047 H1050 0.929 . S
C1048 C1047 1.363 . S
C1048 C1054 1.428 . S
H1049 C1045 0.930 . S
H1050 C1047 0.929 . S
S1051 N1052 1.613 . S
S1051 N1053 1.610 . S
N1052 S1051 1.613 . S
N1052 C1055 1.350 . S
N1053 S1051 1.610 . S
N1053 C1054 1.351 . S
C1054 C1048 1.428 . S
C1054 N1053 1.351 . S
C1054 C1055 1.434 . S
C1055 C1046 1.429 . S
C1055 N1052 1.350 . S
C1055 C1054 1.434 . S
C1056 C1057 1.369 . S
C1056 C1058 1.419 . S
C1056 H1060 0.930 . S
C1057 C1056 1.369 . S
C1057 C1066 1.429 . S
C1058 C1056 1.419 . S
C1058 C1059 1.363 . S
C1058 H1061 0.929 . S
C1059 C1058 1.363 . S
C1059 C1065 1.428 . S
H1060 C1056 0.930 . S
H1061 C1058 0.929 . S
S1062 N1063 1.613 . S
S1062 N1064 1.610 . S
N1063 S1062 1.613 . S
N1063 C1066 1.350 . S
N1064 S1062 1.610 . S
N1064 C1065 1.351 . S
C1065 C1059 1.428 . S
C1065 N1064 1.351 . S
C1065 C1066 1.434 . S
C1066 C1057 1.429 . S
C1066 N1063 1.350 . S
C1066 C1065 1.434 . S
C1067 C1068 1.369 . S
C1067 C1069 1.419 . S
C1067 H1071 0.930 . S
C1068 C1067 1.369 . S
C1068 C1077 1.429 . S
C1069 C1067 1.419 . S
C1069 C1070 1.363 . S
C1069 H1072 0.929 . S
C1070 C1069 1.363 . S
C1070 C1076 1.428 . S
H1071 C1067 0.930 . S
H1072 C1069 0.929 . S
S1073 N1074 1.613 . S
S1073 N1075 1.610 . S
N1074 S1073 1.613 . S
N1074 C1077 1.350 . S
N1075 S1073 1.610 . S
N1075 C1076 1.351 . S
C1076 C1070 1.428 . S
C1076 N1075 1.351 . S
C1076 C1077 1.434 . S
C1077 C1068 1.429 . S
C1077 N1074 1.350 . S
C1077 C1076 1.434 . S
C1078 C1079 1.369 . S
C1078 C1080 1.419 . S
C1078 H1082 0.930 . S
C1079 C1078 1.369 . S
C1079 C1088 1.429 . S
C1080 C1078 1.419 . S
C1080 C1081 1.363 . S
C1080 H1083 0.929 . S
C1081 C1080 1.363 . S
C1081 C1087 1.428 . S
H1082 C1078 0.930 . S
H1083 C1080 0.929 . S
S1084 N1085 1.613 . S
S1084 N1086 1.610 . S
N1085 S1084 1.613 . S
N1085 C1088 1.350 . S
N1086 S1084 1.610 . S
N1086 C1087 1.351 . S
C1087 C1081 1.428 . S
C1087 N1086 1.351 . S
C1087 C1088 1.434 . S
C1088 C1079 1.429 . S
C1088 N1085 1.350 . S
C1088 C1087 1.434 . S
C1089 C1090 1.369 . S
C1089 C1091 1.419 . S
C1089 H1093 0.930 . S
C1090 C1089 1.369 . S
C1090 C1099 1.429 . S
C1091 C1089 1.419 . S
C1091 C1092 1.363 . S
C1091 H1094 0.929 . S
C1092 C1091 1.363 . S
C1092 C1098 1.428 . S
H1093 C1089 0.930 . S
H1094 C1091 0.929 . S
S1095 N1096 1.613 . S
S1095 N1097 1.610 . S
N1096 S1095 1.613 . S
N1096 C1099 1.350 . S
N1097 S1095 1.610 . S
N1097 C1098 1.351 . S
C1098 C1092 1.428 . S
C1098 N1097 1.351 . S
C1098 C1099 1.434 . S
C1099 C1090 1.429 . S
C1099 N1096 1.350 . S
C1099 C1098 1.434 . S
C1100 C1101 1.369 . S
C1100 C1102 1.419 . S
C1100 H1104 0.930 . S
C1101 C1100 1.369 . S
C1101 C1110 1.429 . S
C1102 C1100 1.419 . S
C1102 C1103 1.363 . S
C1102 H1105 0.929 . S
C1103 C1102 1.363 . S
C1103 C1109 1.428 . S
H1104 C1100 0.930 . S
H1105 C1102 0.929 . S
S1106 N1107 1.613 . S
S1106 N1108 1.610 . S
N1107 S1106 1.613 . S
N1107 C1110 1.350 . S
N1108 S1106 1.610 . S
N1108 C1109 1.351 . S
C1109 C1103 1.428 . S
C1109 N1108 1.351 . S
C1109 C1110 1.434 . S
C1110 C1101 1.429 . S
C1110 N1107 1.350 . S
C1110 C1109 1.434 . S
C1111 C1112 1.369 . S
C1111 C1113 1.419 . S
C1111 H1115 0.930 . S
C1112 C1111 1.369 . S
C1112 C1121 1.429 . S
C1113 C1111 1.419 . S
C1113 C1114 1.363 . S
C1113 H1116 0.929 . S
C1114 C1113 1.363 . S
C1114 C1120 1.428 . S
H1115 C1111 0.930 . S
H1116 C1113 0.929 . S
S1117 N1118 1.613 . S
S1117 N1119 1.610 . S
N1118 S1117 1.613 . S
N1118 C1121 1.350 . S
N1119 S1117 1.610 . S
N1119 C1120 1.351 . S
C1120 C1114 1.428 . S
C1120 N1119 1.351 . S
C1120 C1121 1.434 . S
C1121 C1112 1.429 . S
C1121 N1118 1.350 . S
C1121 C1120 1.434 . S
C1122 C1123 1.369 . S
C1122 C1124 1.419 . S
C1122 H1126 0.930 . S
C1123 C1122 1.369 . S
C1123 C1132 1.429 . S
C1124 C1122 1.419 . S
C1124 C1125 1.363 . S
C1124 H1127 0.929 . S
C1125 C1124 1.363 . S
C1125 C1131 1.428 . S
H1126 C1122 0.930 . S
H1127 C1124 0.929 . S
S1128 N1129 1.613 . S
S1128 N1130 1.610 . S
N1129 S1128 1.613 . S
N1129 C1132 1.350 . S
N1130 S1128 1.610 . S
N1130 C1131 1.351 . S
C1131 C1125 1.428 . S
C1131 N1130 1.351 . S
C1131 C1132 1.434 . S
C1132 C1123 1.429 . S
C1132 N1129 1.350 . S
C1132 C1131 1.434 . S
C1133 C1134 1.369 . S
C1133 C1135 1.419 . S
C1133 H1137 0.930 . S
C1134 C1133 1.369 . S
C1134 C1143 1.429 . S
C1135 C1133 1.419 . S
C1135 C1136 1.363 . S
C1135 H1138 0.929 . S
C1136 C1135 1.363 . S
C1136 C1142 1.428 . S
H1137 C1133 0.930 . S
H1138 C1135 0.929 . S
S1139 N1140 1.613 . S
S1139 N1141 1.610 . S
N1140 S1139 1.613 . S
N1140 C1143 1.350 . S
N1141 S1139 1.610 . S
N1141 C1142 1.351 . S
C1142 C1136 1.428 . S
C1142 N1141 1.351 . S
C1142 C1143 1.434 . S
C1143 C1134 1.429 . S
C1143 N1140 1.350 . S
C1143 C1142 1.434 . S
C1144 C1145 1.369 . S
C1144 C1146 1.419 . S
C1144 H1148 0.930 . S
C1145 C1144 1.369 . S
C1145 C1154 1.429 . S
C1146 C1144 1.419 . S
C1146 C1147 1.363 . S
C1146 H1149 0.929 . S
C1147 C1146 1.363 . S
C1147 C1153 1.428 . S
H1148 C1144 0.930 . S
H1149 C1146 0.929 . S
S1150 N1151 1.613 . S
S1150 N1152 1.610 . S
N1151 S1150 1.613 . S
N1151 C1154 1.350 . S
N1152 S1150 1.610 . S
N1152 C1153 1.351 . S
C1153 C1147 1.428 . S
C1153 N1152 1.351 . S
C1153 C1154 1.434 . S
C1154 C1145 1.429 . S
C1154 N1151 1.350 . S
C1154 C1153 1.434 . S
C1155 C1156 1.369 . S
C1155 C1157 1.419 . S
C1155 H1159 0.930 . S
C1156 C1155 1.369 . S
C1156 C1165 1.429 . S
C1157 C1155 1.419 . S
C1157 C1158 1.363 . S
C1157 H1160 0.929 . S
C1158 C1157 1.363 . S
C1158 C1164 1.428 . S
H1159 C1155 0.930 . S
H1160 C1157 0.929 . S
S1161 N1162 1.613 . S
S1161 N1163 1.610 . S
N1162 S1161 1.613 . S
N1162 C1165 1.350 . S
N1163 S1161 1.610 . S
N1163 C1164 1.351 . S
C1164 C1158 1.428 . S
C1164 N1163 1.351 . S
C1164 C1165 1.434 . S
C1165 C1156 1.429 . S
C1165 N1162 1.350 . S
C1165 C1164 1.434 . S
C1166 C1167 1.369 . S
C1166 C1168 1.419 . S
C1166 H1170 0.930 . S
C1167 C1166 1.369 . S
C1167 C1176 1.429 . S
C1168 C1166 1.419 . S
C1168 C1169 1.363 . S
C1168 H1171 0.929 . S
C1169 C1168 1.363 . S
C1169 C1175 1.428 . S
H1170 C1166 0.930 . S
H1171 C1168 0.929 . S
S1172 N1173 1.613 . S
S1172 N1174 1.610 . S
N1173 S1172 1.613 . S
N1173 C1176 1.350 . S
N1174 S1172 1.610 . S
N1174 C1175 1.351 . S
C1175 C1169 1.428 . S
C1175 N1174 1.351 . S
C1175 C1176 1.434 . S
C1176 C1167 1.429 . S
C1176 N1173 1.350 . S
C1176 C1175 1.434 . S
C1177 C1178 1.369 . S
C1177 C1179 1.419 . S
C1177 H1181 0.930 . S
C1178 C1177 1.369 . S
C1178 C1187 1.429 . S
C1179 C1177 1.419 . S
C1179 C1180 1.363 . S
C1179 H1182 0.929 . S
C1180 C1179 1.363 . S
C1180 C1186 1.428 . S
H1181 C1177 0.930 . S
H1182 C1179 0.929 . S
S1183 N1184 1.613 . S
S1183 N1185 1.610 . S
N1184 S1183 1.613 . S
N1184 C1187 1.350 . S
N1185 S1183 1.610 . S
N1185 C1186 1.351 . S
C1186 C1180 1.428 . S
C1186 N1185 1.351 . S
C1186 C1187 1.434 . S
C1187 C1178 1.429 . S
C1187 N1184 1.350 . S
C1187 C1186 1.434 . S
C1188 C1189 1.369 . S
C1188 C1190 1.419 . S
C1188 H1192 0.930 . S
C1189 C1188 1.369 . S
C1189 C1198 1.429 . S
C1190 C1188 1.419 . S
C1190 C1191 1.363 . S
C1190 H1193 0.929 . S
C1191 C1190 1.363 . S
C1191 C1197 1.428 . S
H1192 C1188 0.930 . S
H1193 C1190 0.929 . S
S1194 N1195 1.613 . S
S1194 N1196 1.610 . S
N1195 S1194 1.613 . S
N1195 C1198 1.350 . S
N1196 S1194 1.610 . S
N1196 C1197 1.351 . S
C1197 C1191 1.428 . S
C1197 N1196 1.351 . S
C1197 C1198 1.434 . S
C1198 C1189 1.429 . S
C1198 N1195 1.350 . S
C1198 C1197 1.434 . S
C1199 C1200 1.369 . S
C1199 C1201 1.419 . S
C1199 H1203 0.930 . S
C1200 C1199 1.369 . S
C1200 C1209 1.429 . S
C1201 C1199 1.419 . S
C1201 C1202 1.363 . S
C1201 H1204 0.929 . S
C1202 C1201 1.363 . S
C1202 C1208 1.428 . S
H1203 C1199 0.930 . S
H1204 C1201 0.929 . S
S1205 N1206 1.613 . S
S1205 N1207 1.610 . S
N1206 S1205 1.613 . S
N1206 C1209 1.350 . S
N1207 S1205 1.610 . S
N1207 C1208 1.351 . S
C1208 C1202 1.428 . S
C1208 N1207 1.351 . S
C1208 C1209 1.434 . S
C1209 C1200 1.429 . S
C1209 N1206 1.350 . S
C1209 C1208 1.434 . S
C1210 C1211 1.369 . S
C1210 C1212 1.419 . S
C1210 H1214 0.930 . S
C1211 C1210 1.369 . S
C1211 C1220 1.429 . S
C1212 C1210 1.419 . S
C1212 C1213 1.363 . S
C1212 H1215 0.929 . S
C1213 C1212 1.363 . S
C1213 C1219 1.428 . S
H1214 C1210 0.930 . S
H1215 C1212 0.929 . S
S1216 N1217 1.613 . S
S1216 N1218 1.610 . S
N1217 S1216 1.613 . S
N1217 C1220 1.350 . S
N1218 S1216 1.610 . S
N1218 C1219 1.351 . S
C1219 C1213 1.428 . S
C1219 N1218 1.351 . S
C1219 C1220 1.434 . S
C1220 C1211 1.429 . S
C1220 N1217 1.350 . S
C1220 C1219 1.434 . S
C1221 C1222 1.369 . S
C1221 C1223 1.419 . S
C1221 H1225 0.930 . S
C1222 C1221 1.369 . S
C1222 C1231 1.429 . S
C1223 C1221 1.419 . S
C1223 C1224 1.363 . S
C1223 H1226 0.929 . S
C1224 C1223 1.363 . S
C1224 C1230 1.428 . S
H1225 C1221 0.930 . S
H1226 C1223 0.929 . S
S1227 N1228 1.613 . S
S1227 N1229 1.610 . S
N1228 S1227 1.613 . S
N1228 C1231 1.350 . S
N1229 S1227 1.610 . S
N1229 C1230 1.351 . S
C1230 C1224 1.428 . S
C1230 N1229 1.351 . S
C1230 C1231 1.434 . S
C1231 C1222 1.429 . S
C1231 N1228 1.350 . S
C1231 C1230 1.434 . S
C1232 C1233 1.369 . S
C1232 C1234 1.419 . S
C1232 H1236 0.930 . S
C1233 C1232 1.369 . S
C1233 C1242 1.429 . S
C1234 C1232 1.419 . S
C1234 C1235 1.363 . S
C1234 H1237 0.929 . S
C1235 C1234 1.363 . S
C1235 C1241 1.428 . S
H1236 C1232 0.930 . S
H1237 C1234 0.929 . S
S1238 N1239 1.613 . S
S1238 N1240 1.610 . S
N1239 S1238 1.613 . S
N1239 C1242 1.350 . S
N1240 S1238 1.610 . S
N1240 C1241 1.351 . S
C1241 C1235 1.428 . S
C1241 N1240 1.351 . S
C1241 C1242 1.434 . S
C1242 C1233 1.429 . S
C1242 N1239 1.350 . S
C1242 C1241 1.434 . S
C1243 C1244 1.369 . S
C1243 C1245 1.419 . S
C1243 H1247 0.930 . S
C1244 C1243 1.369 . S
C1244 C1253 1.429 . S
C1245 C1243 1.419 . S
C1245 C1246 1.363 . S
C1245 H1248 0.929 . S
C1246 C1245 1.363 . S
C1246 C1252 1.428 . S
H1247 C1243 0.930 . S
H1248 C1245 0.929 . S
S1249 N1250 1.613 . S
S1249 N1251 1.610 . S
N1250 S1249 1.613 . S
N1250 C1253 1.350 . S
N1251 S1249 1.610 . S
N1251 C1252 1.351 . S
C1252 C1246 1.428 . S
C1252 N1251 1.351 . S
C1252 C1253 1.434 . S
C1253 C1244 1.429 . S
C1253 N1250 1.350 . S
C1253 C1252 1.434 . S
C1254 C1255 1.369 . S
C1254 C1256 1.419 . S
C1254 H1258 0.930 . S
C1255 C1254 1.369 . S
C1255 C1264 1.429 . S
C1256 C1254 1.419 . S
C1256 C1257 1.363 . S
C1256 H1259 0.929 . S
C1257 C1256 1.363 . S
C1257 C1263 1.428 . S
H1258 C1254 0.930 . S
H1259 C1256 0.929 . S
S1260 N1261 1.613 . S
S1260 N1262 1.610 . S
N1261 S1260 1.613 . S
N1261 C1264 1.350 . S
N1262 S1260 1.610 . S
N1262 C1263 1.351 . S
C1263 C1257 1.428 . S
C1263 N1262 1.351 . S
C1263 C1264 1.434 . S
C1264 C1255 1.429 . S
C1264 N1261 1.350 . S
C1264 C1263 1.434 . S
C1265 C1266 1.369 . S
C1265 C1267 1.419 . S
C1265 H1269 0.930 . S
C1266 C1265 1.369 . S
C1266 C1275 1.429 . S
C1267 C1265 1.419 . S
C1267 C1268 1.363 . S
C1267 H1270 0.929 . S
C1268 C1267 1.363 . S
C1268 C1274 1.428 . S
H1269 C1265 0.930 . S
H1270 C1267 0.929 . S
S1271 N1272 1.613 . S
S1271 N1273 1.610 . S
N1272 S1271 1.613 . S
N1272 C1275 1.350 . S
N1273 S1271 1.610 . S
N1273 C1274 1.351 . S
C1274 C1268 1.428 . S
C1274 N1273 1.351 . S
C1274 C1275 1.434 . S
C1275 C1266 1.429 . S
C1275 N1272 1.350 . S
C1275 C1274 1.434 . S
C1276 C1277 1.369 . S
C1276 C1278 1.419 . S
C1276 H1280 0.930 . S
C1277 C1276 1.369 . S
C1277 C1286 1.429 . S
C1278 C1276 1.419 . S
C1278 C1279 1.363 . S
C1278 H1281 0.929 . S
C1279 C1278 1.363 . S
C1279 C1285 1.428 . S
H1280 C1276 0.930 . S
H1281 C1278 0.929 . S
S1282 N1283 1.613 . S
S1282 N1284 1.610 . S
N1283 S1282 1.613 . S
N1283 C1286 1.350 . S
N1284 S1282 1.610 . S
N1284 C1285 1.351 . S
C1285 C1279 1.428 . S
C1285 N1284 1.351 . S
C1285 C1286 1.434 . S
C1286 C1277 1.429 . S
C1286 N1283 1.350 . S
C1286 C1285 1.434 . S
C1287 C1288 1.369 . S
C1287 C1289 1.419 . S
C1287 H1291 0.930 . S
C1288 C1287 1.369 . S
C1288 C1297 1.429 . S
C1289 C1287 1.419 . S
C1289 C1290 1.363 . S
C1289 H1292 0.929 . S
C1290 C1289 1.363 . S
C1290 C1296 1.428 . S
H1291 C1287 0.930 . S
H1292 C1289 0.929 . S
S1293 N1294 1.613 . S
S1293 N1295 1.610 . S
N1294 S1293 1.613 . S
N1294 C1297 1.350 . S
N1295 S1293 1.610 . S
N1295 C1296 1.351 . S
C1296 C1290 1.428 . S
C1296 N1295 1.351 . S
C1296 C1297 1.434 . S
C1297 C1288 1.429 . S
C1297 N1294 1.350 . S
C1297 C1296 1.434 . S
C1298 C1299 1.369 . S
C1298 C1300 1.419 . S
C1298 H1302 0.930 . S
C1299 C1298 1.369 . S
C1299 C1308 1.429 . S
C1300 C1298 1.419 . S
C1300 C1301 1.363 . S
C1300 H1303 0.929 . S
C1301 C1300 1.363 . S
C1301 C1307 1.428 . S
H1302 C1298 0.930 . S
H1303 C1300 0.929 . S
S1304 N1305 1.613 . S
S1304 N1306 1.610 . S
N1305 S1304 1.613 . S
N1305 C1308 1.350 . S
N1306 S1304 1.610 . S
N1306 C1307 1.351 . S
C1307 C1301 1.428 . S
C1307 N1306 1.351 . S
C1307 C1308 1.434 . S
C1308 C1299 1.429 . S
C1308 N1305 1.350 . S
C1308 C1307 1.434 . S
C1309 C1310 1.369 . S
C1309 C1311 1.419 . S
C1309 H1313 0.930 . S
C1310 C1309 1.369 . S
C1310 C1319 1.429 . S
C1311 C1309 1.419 . S
C1311 C1312 1.363 . S
C1311 H1314 0.929 . S
C1312 C1311 1.363 . S
C1312 C1318 1.428 . S
H1313 C1309 0.930 . S
H1314 C1311 0.929 . S
S1315 N1316 1.613 . S
S1315 N1317 1.610 . S
N1316 S1315 1.613 . S
N1316 C1319 1.350 . S
N1317 S1315 1.610 . S
N1317 C1318 1.351 . S
C1318 C1312 1.428 . S
C1318 N1317 1.351 . S
C1318 C1319 1.434 . S
C1319 C1310 1.429 . S
C1319 N1316 1.350 . S
C1319 C1318 1.434 . S
C529 C9 1.551 . S
C531 C404 1.461 . S
C540 C422 1.458 . S
C542 C31 1.550 . S
C551 C356 1.456 . S
C553 C53 1.552 1_565 S
C562 C71 1.554 1_545 S
C564 C378 1.464 . S
C573 C488 1.464 . S
C575 C93 1.553 . S
C584 C466 1.452 . S
C586 C119 1.549 1_554 S
C595 C514 1.454 . S
C597 C137 1.549 . S
C606 C448 1.461 . S
C608 C159 1.551 1_556 S
C617 C185 1.551 . S
C619 C294 1.456 . S
C628 C203 1.550 1_455 S
C630 C338 1.460 . S
C639 C225 1.551 . S
C641 C316 1.455 . S
C650 C268 1.457 . S
C652 C251 1.549 1_655 S
C661 C140 1.459 . S
C663 C271 1.553 . S
C672 C292 1.553 . S
C674 C162 1.459 . S
C683 C96 1.456 . S
C685 C314 1.549 1_545 S
C694 C114 1.459 . S
C696 C336 1.551 1_565 S
C705 C359 1.554 . S
C707 C228 1.460 . S
C716 C206 1.455 . S
C718 C381 1.549 1_556 S
C727 C246 1.461 . S
C729 C402 1.552 . S
C738 C425 1.549 1_554 S
C740 C180 1.455 . S
C749 C446 1.553 . S
C751 C26 1.459 . S
C760 C469 1.555 1_655 S
C762 C74 1.462 . S
C771 C491 1.549 . S
C773 C48 1.454 . S
C782 C4 1.457 . S
C784 C512 1.550 1_455 S
C793 C423 1.235 1_554 S
C795 C5 1.201 . S
C804 C405 1.238 . S
C806 C27 1.205 . S
C815 C379 1.236 1_556 S
C817 C49 1.202 . S
C826 C357 1.227 . S
C828 C75 1.199 . S
C837 C97 1.195 . S
C839 C515 1.228 1_455 S
C848 C115 1.195 . S
C850 C449 1.230 . S
C859 C489 1.234 . S
C861 C141 1.207 . S
C870 C467 1.237 1_655 S
C872 C163 1.207 . S
C881 C317 1.236 1_545 S
C883 C181 1.201 . S
C892 C207 1.201 . S
C894 C269 1.235 . S
C903 C295 1.232 . S
C905 C229 1.206 . S
C914 C339 1.237 1_565 S
C916 C247 1.204 . S
C925 C270 1.208 . S
C927 C161 1.235 1_556 S
C936 C139 1.238 . S
C938 C293 1.204 . S
C947 C315 1.195 . S
C949 C116 1.228 1_554 S
C958 C337 1.199 . S
C960 C95 1.228 . S
C969 C248 1.237 1_655 S
C971 C358 1.203 . S
C980 C182 1.234 . S
C982 C380 1.207 . S
C991 C403 1.196 . S
C993 C227 1.228 . S
C1002 C424 1.201 . S
C1004 C205 1.227 1_455 S
C1013 C50 1.233 1_565 S
C1015 C447 1.207 . S
C1024 C6 1.234 . S
C1026 C468 1.207 . S
C1035 C490 1.196 . S
C1037 C28 1.232 . S
C1046 C513 1.201 . S
C1048 C73 1.235 1_545 S
C1057 C8 1.076 . S
C1059 C94 1.063 . S
C1068 C117 1.068 . S
C1070 C30 1.081 . S
C1079 C138 1.072 . S
C1081 C52 1.084 . S
C1090 C160 1.072 . S
C1092 C70 1.084 . S
C1101 C183 1.063 . S
C1103 C92 1.079 . S
C1112 C118 1.076 . S
C1114 C249 1.062 . S
C1123 C136 1.078 . S
C1125 C204 1.065 . S
C1134 C226 1.061 . S
C1136 C158 1.077 . S
C1145 C184 1.076 . S
C1147 C7 1.062 . S
C1156 C202 1.083 . S
C1158 C51 1.069 . S
C1167 C72 1.063 . S
C1169 C224 1.078 . S
C1178 C29 1.069 . S
C1180 C250 1.082 . S
C1189 C272 1.076 . S
C1191 C361 1.062 . S
C1200 C383 1.061 . S
C1202 C290 1.077 . S
C1211 C401 1.071 . S
C1213 C312 1.083 . S
C1222 C427 1.071 . S
C1224 C334 1.083 . S
C1233 C360 1.083 . S
C1235 C445 1.069 . S
C1244 C511 1.062 . S
C1246 C382 1.078 . S
C1255 C400 1.079 . S
C1257 C471 1.066 . S
C1266 C426 1.079 . S
C1268 C493 1.065 . S
C1277 C273 1.069 . S
C1279 C444 1.082 . S
C1288 C313 1.061 . S
C1290 C470 1.077 . S
C1299 C335 1.060 . S
C1301 C492 1.077 . S
C1310 C291 1.072 . S
C1312 C510 1.084 . S
