# Generated by pormake.
# Topology uos, (4)-cn, num edge types: 1
# Building blocks:
#     Node 0, Type 0, BuildingBlock: TATPOV_clean_sbu_0, # of connection points: 4
#     Node 1, Type 0, BuildingBlock: TATPOV_clean_sbu_0, # of connection points: 4
#     Node 2, Type 0, BuildingBlock: TATPOV_clean_sbu_0, # of connection points: 4
#     Node 3, Type 0, BuildingBlock: TATPOV_clean_sbu_0, # of connection points: 4
#     Node 4, Type 0, BuildingBlock: TATPOV_clean_sbu_0, # of connection points: 4
#     Node 5, Type 0, BuildingBlock: TATPOV_clean_sbu_0, # of connection points: 4
#     Node 6, Type 0, BuildingBlock: TATPOV_clean_sbu_0, # of connection points: 4
#     Node 7, Type 0, BuildingBlock: TATPOV_clean_sbu_0, # of connection points: 4
#     Node 8, Type 0, BuildingBlock: TATPOV_clean_sbu_0, # of connection points: 4
#     Node 9, Type 0, BuildingBlock: TATPOV_clean_sbu_0, # of connection points: 4
#     Node 10, Type 0, BuildingBlock: TATPOV_clean_sbu_0, # of connection points: 4
#     Node 11, Type 0, BuildingBlock: TATPOV_clean_sbu_0, # of connection points: 4
#     Node 12, Type 0, BuildingBlock: TATPOV_clean_sbu_0, # of connection points: 4
#     Node 13, Type 0, BuildingBlock: TATPOV_clean_sbu_0, # of connection points: 4
#     Node 14, Type 0, BuildingBlock: TATPOV_clean_sbu_0, # of connection points: 4
#     Node 15, Type 0, BuildingBlock: TATPOV_clean_sbu_0, # of connection points: 4
#     Node 16, Type 0, BuildingBlock: TATPOV_clean_sbu_0, # of connection points: 4
#     Node 17, Type 0, BuildingBlock: TATPOV_clean_sbu_0, # of connection points: 4
#     Node 18, Type 0, BuildingBlock: TATPOV_clean_sbu_0, # of connection points: 4
#     Node 19, Type 0, BuildingBlock: TATPOV_clean_sbu_0, # of connection points: 4
#     Node 20, Type 0, BuildingBlock: TATPOV_clean_sbu_0, # of connection points: 4
#     Node 21, Type 0, BuildingBlock: TATPOV_clean_sbu_0, # of connection points: 4
#     Node 22, Type 0, BuildingBlock: TATPOV_clean_sbu_0, # of connection points: 4
#     Node 23, Type 0, BuildingBlock: TATPOV_clean_sbu_0, # of connection points: 4
#     Node 24, Type 0, BuildingBlock: TATPOV_clean_sbu_0, # of connection points: 4
#     Node 25, Type 0, BuildingBlock: TATPOV_clean_sbu_0, # of connection points: 4
#     Node 26, Type 0, BuildingBlock: TATPOV_clean_sbu_0, # of connection points: 4
#     Node 27, Type 0, BuildingBlock: TATPOV_clean_sbu_0, # of connection points: 4
#     Node 28, Type 0, BuildingBlock: TATPOV_clean_sbu_0, # of connection points: 4
#     Node 29, Type 0, BuildingBlock: TATPOV_clean_sbu_0, # of connection points: 4
#     Node 30, Type 0, BuildingBlock: TATPOV_clean_sbu_0, # of connection points: 4
#     Node 31, Type 0, BuildingBlock: TATPOV_clean_sbu_0, # of connection points: 4
#     Edge 32, Type (0, 0), None
#     Edge 33, Type (0, 0), None
#     Edge 34, Type (0, 0), None
#     Edge 35, Type (0, 0), None
#     Edge 36, Type (0, 0), None
#     Edge 37, Type (0, 0), None
#     Edge 38, Type (0, 0), None
#     Edge 39, Type (0, 0), None
#     Edge 40, Type (0, 0), None
#     Edge 41, Type (0, 0), None
#     Edge 42, Type (0, 0), None
#     Edge 43, Type (0, 0), None
#     Edge 44, Type (0, 0), None
#     Edge 45, Type (0, 0), None
#     Edge 46, Type (0, 0), None
#     Edge 47, Type (0, 0), None
#     Edge 48, Type (0, 0), None
#     Edge 49, Type (0, 0), None
#     Edge 50, Type (0, 0), None
#     Edge 51, Type (0, 0), None
#     Edge 52, Type (0, 0), None
#     Edge 53, Type (0, 0), None
#     Edge 54, Type (0, 0), None
#     Edge 55, Type (0, 0), None
#     Edge 56, Type (0, 0), None
#     Edge 57, Type (0, 0), None
#     Edge 58, Type (0, 0), None
#     Edge 59, Type (0, 0), None
#     Edge 60, Type (0, 0), None
#     Edge 61, Type (0, 0), None
#     Edge 62, Type (0, 0), None
#     Edge 63, Type (0, 0), None
#     Edge 64, Type (0, 0), None
#     Edge 65, Type (0, 0), None
#     Edge 66, Type (0, 0), None
#     Edge 67, Type (0, 0), None
#     Edge 68, Type (0, 0), None
#     Edge 69, Type (0, 0), None
#     Edge 70, Type (0, 0), None
#     Edge 71, Type (0, 0), None
#     Edge 72, Type (0, 0), None
#     Edge 73, Type (0, 0), None
#     Edge 74, Type (0, 0), None
#     Edge 75, Type (0, 0), None
#     Edge 76, Type (0, 0), None
#     Edge 77, Type (0, 0), None
#     Edge 78, Type (0, 0), None
#     Edge 79, Type (0, 0), None
#     Edge 80, Type (0, 0), None
#     Edge 81, Type (0, 0), None
#     Edge 82, Type (0, 0), None
#     Edge 83, Type (0, 0), None
#     Edge 84, Type (0, 0), None
#     Edge 85, Type (0, 0), None
#     Edge 86, Type (0, 0), None
#     Edge 87, Type (0, 0), None
#     Edge 88, Type (0, 0), None
#     Edge 89, Type (0, 0), None
#     Edge 90, Type (0, 0), None
#     Edge 91, Type (0, 0), None
#     Edge 92, Type (0, 0), None
#     Edge 93, Type (0, 0), None
#     Edge 94, Type (0, 0), None
#     Edge 95, Type (0, 0), None
# Relax obj value: 0.053
# Max RMSD: 0.087
# Mean RMSD: 0.086
data_MOF--net-uos--node1-TATPOV_clean_sbu_0--edge1-none
_symmetry_space_group_name_H-M    P1
_symmetry_Int_Tables_number       1
_symmetry_cell_setting            triclinic
loop_
_symmetry_equiv_pos_as_xyz
'x, y, z'
_cell_length_a     37.966568
_cell_length_b     38.568078
_cell_length_c     10.541517
_cell_angle_alpha  89.853654
_cell_angle_beta   89.762528
_cell_angle_gamma 92.181455
loop_
_atom_site_label
_atom_site_type_symbol
_atom_site_fract_x
_atom_site_fract_y
_atom_site_fract_z
_atom_type_partial_charge
Zn0 Zn 0.12464 0.19815 0.3924 0.0
Zn1 Zn 0.11269 0.18947 0.13911 0.0
O2 O 0.12878 0.24238 0.14066 0.0
O3 O 0.13996 0.2456 0.34628 0.0
O4 O 0.09659 0.17193 0.95907 0.0
O5 O 0.07587 0.18774 0.44872 0.0
O6 O 0.07107 0.17353 0.24792 0.0
C7 C 0.14033 0.25933 0.23732 0.0
C8 C 0.17231 0.15317 0.28636 0.0
O9 O 0.15624 0.16252 0.18616 0.0
O10 O 0.16195 0.16235 0.39495 0.0
C11 C 0.07471 0.14607 0.94218 0.0
O12 O 0.06155 0.1293 0.04104 0.0
C13 C 0.05854 0.17353 0.3599 0.0
Zn14 Zn 0.09141 0.94201 0.64535 0.0
Zn15 Zn 0.10195 0.9272 0.40389 0.0
O16 O 0.0552 0.89856 0.41926 0.0
O17 O 0.04887 0.90984 0.62279 0.0
O18 O 0.12259 0.91237 0.2312 0.0
O19 O 0.13361 0.92486 0.72748 0.0
O20 O 0.13841 0.90934 0.52783 0.0
C21 C 0.03799 0.89489 0.5225 0.0
C22 C 0.08532 0.00162 0.50041 0.0
O23 O 0.09029 -0.0197 0.40922 0.0
O24 O 0.08719 -0.00824 0.6143 0.0
C25 C 0.14906 0.89289 0.21999 0.0
O26 O 0.16632 0.88343 0.32099 0.0
C27 C 0.14957 0.9091 0.6414 0.0
Zn28 Zn 0.34864 0.75421 0.90637 0.0
Zn29 Zn 0.35867 0.76109 0.65427 0.0
O30 O 0.3418 0.70787 0.66698 0.0
O31 O 0.33145 0.7068 0.87363 0.0
O32 O 0.37368 0.77725 0.47012 0.0
O33 O 0.39816 0.76235 0.95542 0.0
O34 O 0.40149 0.77741 0.75483 0.0
C35 C 0.33076 0.69182 0.76729 0.0
C36 C 0.30277 0.80186 0.80534 0.0
O37 O 0.31705 0.79089 0.70353 0.0
O38 O 0.31327 0.79202 0.91282 0.0
C39 C 0.39236 0.80525 0.44915 0.0
O40 O 0.40226 0.82478 0.54537 0.0
C41 C 0.41472 0.77722 0.86539 0.0
Zn42 Zn 0.37039 0.00891 0.10957 0.0
Zn43 Zn 0.36505 0.02413 0.87176 0.0
O44 O 0.41187 0.05178 0.88973 0.0
O45 O 0.41449 0.03952 0.09388 0.0
O46 O 0.34509 0.03788 0.69664 0.0
O47 O 0.32909 0.02856 0.18888 0.0
O48 O 0.32964 0.04611 0.99032 0.0
C49 C 0.42729 0.05472 0.99627 0.0
C50 C 0.3785 0.94899 0.98065 0.0
O51 O 0.37607 0.97047 0.88773 0.0
O52 O 0.37353 0.95883 0.093 0.0
C53 C 0.32771 0.06557 0.68355 0.0
O54 O 0.32274 0.0856 0.7819 0.0
C55 C 0.31714 0.04725 0.10218 0.0
Zn56 Zn 0.20636 0.82575 0.67635 0.0
Zn57 Zn 0.19604 0.83698 0.91088 0.0
O58 O 0.16625 0.79087 0.90945 0.0
O59 O 0.1756 0.78325 0.70541 0.0
O60 O 0.18531 0.85932 0.08348 0.0
O61 O 0.18804 0.86571 0.5895 0.0
O62 O 0.17658 0.87404 0.79137 0.0
C63 C 0.16198 0.77286 0.80937 0.0
C64 C 0.26922 0.81902 0.79452 0.0
O65 O 0.24965 0.82428 0.89182 0.0
O66 O 0.25697 0.82135 0.68411 0.0
C67 C 0.15855 0.87834 0.09586 0.0
O68 O 0.13773 0.88306 0.99882 0.0
C69 C 0.17466 0.88348 0.67591 0.0
Zn70 Zn 0.44975 0.87672 0.863 0.0
Zn71 Zn 0.4401 0.86161 0.11849 0.0
O72 O 0.49184 0.88262 0.1223 0.0
O73 O 0.49575 0.89612 0.91818 0.0
O74 O 0.42326 0.84316 0.29846 0.0
O75 O 0.44586 0.82776 0.8092 0.0
O76 O 0.43374 0.81854 1.0108 0.0
C77 C 0.50886 0.89618 1.02818 0.0
C78 C 0.39673 0.91635 0.96565 0.0
O79 O 0.40696 0.90082 0.06601 0.0
O80 O 0.40912 0.90878 0.85814 0.0
C81 C 0.40293 0.81619 0.31821 0.0
O82 O 0.39107 0.79802 0.22123 0.0
C83 C 0.43667 0.80733 0.89806 0.0
Zn84 Zn 0.27081 0.13872 0.12934 0.0
Zn85 Zn 0.28123 0.12429 0.37312 0.0
O86 O 0.30979 0.17167 0.35804 0.0
O87 O 0.3025 0.18069 0.15335 0.0
O88 O 0.29609 0.10334 0.54637 0.0
O89 O 0.28711 0.09675 0.04937 0.0
O90 O 0.29572 0.08596 0.25162 0.0
C91 C 0.31514 0.19031 0.2591 0.0
C92 C 0.20761 0.13997 0.27127 0.0
O93 O 0.22731 0.13399 0.36687 0.0
O94 O 0.22025 0.14157 0.16047 0.0
C95 C 0.31485 0.0765 0.55805 0.0
O96 O 0.32453 0.05952 0.45694 0.0
C97 C 0.29679 0.07673 0.13596 0.0
Zn98 Zn 0.01859 0.07568 0.36334 0.0
Zn99 Zn 0.02507 0.09163 0.61673 0.0
O100 O 0.9725 0.07233 0.61413 0.0
O101 O 0.97092 0.0585 0.4104 0.0
O102 O 0.04067 0.11006 0.79609 0.0
O103 O 0.02565 0.12407 0.30544 0.0
O104 O 0.03555 0.13408 0.5075 0.0
C105 C 0.95627 0.05917 0.51821 0.0
C106 C 0.0683 0.03457 0.47869 0.0
O107 O 0.0572 0.05106 0.57537 0.0
O108 O 0.05782 0.04189 0.36845 0.0
C109 C 0.06433 0.13437 0.81277 0.0
O110 O 0.08003 0.14886 0.71383 0.0
C111 C 0.03487 0.14461 0.39324 0.0
Zn112 Zn 0.82969 0.74625 0.64688 0.0
Zn113 Zn 0.84223 0.75633 0.90262 0.0
O114 O 0.81736 0.70687 0.90577 0.0
O115 O 0.80607 0.70196 0.70058 0.0
O116 O 0.85877 0.77195 0.08311 0.0
O117 O 0.8803 0.74943 0.59848 0.0
O118 O 0.88619 0.76515 0.7974 0.0
C119 C 0.80321 0.69035 0.81262 0.0
C120 C 0.7918 0.80148 0.74624 0.0
O121 O 0.80551 0.79057 0.84876 0.0
O122 O 0.79963 0.78847 0.64022 0.0
C123 C 0.88306 0.79547 0.10147 0.0
O124 O 0.89852 0.81073 1.00354 0.0
C125 C 0.89884 0.76278 0.6861 0.0
Zn126 Zn 0.86781 -0.00604 0.40478 0.0
Zn127 Zn 0.85784 0.00875 0.64424 0.0
O128 O 0.90456 0.03733 0.6298 0.0
O129 O 0.91068 0.02592 0.42641 0.0
O130 O 0.83754 0.02323 0.8169 0.0
O131 O 0.82573 0.0115 0.32187 0.0
O132 O 0.82113 0.02719 0.52125 0.0
C133 C 0.92173 0.04087 0.52651 0.0
C134 C 0.87434 0.93424 0.54846 0.0
O135 O 0.86954 0.95559 0.63961 0.0
O136 O 0.8721 0.94408 0.43462 0.0
C137 C 0.81496 0.04695 0.8272 0.0
O138 O 0.80282 0.06185 0.72527 0.0
C139 C 0.80998 0.0276 0.40761 0.0
Zn140 Zn 0.63141 0.20557 0.13322 0.0
Zn141 Zn 0.61853 0.19624 0.388 0.0
O142 O 0.64306 0.24574 0.38716 0.0
O143 O 0.65536 0.24998 0.18222 0.0
O144 O 0.60314 0.18183 0.57044 0.0
O145 O 0.58058 0.20308 0.08897 0.0
O146 O 0.57377 0.18751 0.28822 0.0
C147 C 0.65742 0.26209 0.29342 0.0
C148 C 0.66775 0.14929 0.23299 0.0
O149 O 0.6543 0.1608 0.33519 0.0
O150 O 0.6607 0.16267 0.1268 0.0
C151 C 0.58088 0.15663 0.5915 0.0
O152 O 0.56735 0.13921 0.49539 0.0
C153 C 0.56158 0.18991 0.17655 0.0
Zn154 Zn 0.59912 0.96068 0.9205 0.0
Zn155 Zn 0.60636 0.94525 0.15791 0.0
O156 O 0.55952 0.91744 0.14464 0.0
O157 O 0.55503 0.93011 0.94153 0.0
O158 O 0.62632 0.93095 0.33089 0.0
O159 O 0.64014 0.94154 0.83583 0.0
O160 O 0.64189 0.92462 0.0348 0.0
C161 C 0.54301 0.91485 0.04031 0.0
C162 C 0.5918 0.02019 0.05696 0.0
O163 O 0.59473 -0.00147 0.14875 0.0
O164 O 0.59638 0.01068 0.94394 0.0
C165 C 0.64654 0.90524 0.34132 0.0
O166 O 0.6558 0.88814 0.23994 0.0
C167 C 0.65369 0.9237 0.92174 0.0
Zn168 Zn 0.75814 0.11408 0.37202 0.0
Zn169 Zn 0.77008 0.1038 0.13766 0.0
O170 O 0.80298 0.14748 0.14641 0.0
O171 O 0.79213 0.1549 0.3497 0.0
O172 O 0.78077 0.08229 0.96395 0.0
O173 O 0.77286 0.07231 0.45853 0.0
O174 O 0.78583 0.06475 0.25753 0.0
C175 C 0.80744 0.16477 0.24799 0.0
C176 C 0.69797 0.12717 0.24495 0.0
O177 O 0.71824 0.12149 0.15014 0.0
O178 O 0.70816 0.1217 0.35656 0.0
C179 C 0.80482 0.06006 0.95257 0.0
O180 O 0.82266 0.05073 0.05245 0.0
C181 C 0.78604 0.05433 0.37226 0.0
Zn182 Zn 0.52033 0.09265 0.17667 0.0
Zn183 Zn 0.53036 0.10728 0.92375 0.0
O184 O 0.47867 0.08707 0.91915 0.0
O185 O 0.47392 0.07336 0.12263 0.0
O186 O 0.5464 0.12294 0.74307 0.0
O187 O 0.52546 0.14211 0.22728 0.0
O188 O 0.53928 0.15107 1.02707 0.0
C189 C 0.46125 0.07345 1.0119 0.0
C190 C 0.57336 0.0526 0.07382 0.0
O191 O 0.56315 0.06825 0.97408 0.0
O192 O 0.56083 0.05994 0.18142 0.0
C193 C 0.57035 0.14664 0.72253 0.0
O194 O 0.58598 0.16213 0.81893 0.0
C195 C 0.53668 0.16221 0.14007 0.0
Zn196 Zn 0.69874 0.83306 0.88643 0.0
Zn197 Zn 0.68915 0.84572 0.65043 0.0
O198 O 0.65529 0.8022 0.65768 0.0
O199 O 0.66392 0.79337 0.86136 0.0
O200 O 0.67874 0.86801 0.47735 0.0
O201 O 0.6853 0.87508 0.97291 0.0
O202 O 0.67551 0.88525 0.77122 0.0
C203 C 0.64934 0.78444 0.75791 0.0
C204 C 0.76032 0.82184 0.7579 0.0
O205 O 0.74104 0.82843 0.66174 0.0
O206 O 0.7486 0.82513 0.86901 0.0
C207 C 0.6569 0.8924 0.46681 0.0
O208 O 0.6412 0.90422 0.56801 0.0
C209 C 0.67497 0.89486 0.8867 0.0
Zn210 Zn 0.94102 0.8594 0.68116 0.0
Zn211 Zn 0.93464 0.84446 0.43095 0.0
O212 O -0.01266 0.86337 0.43447 0.0
O213 O -0.01129 0.87715 0.63808 0.0
O214 O 0.9194 0.82806 0.25009 0.0
O215 O 0.93449 0.81063 0.73718 0.0
O216 O 0.92299 0.80111 0.53611 0.0
C217 C 0.00348 0.87652 0.53052 0.0
C218 C 0.89145 0.90125 0.56969 0.0
O219 O 0.90268 0.88503 0.47271 0.0
O220 O 0.90173 0.89347 0.67978 0.0
C221 C 0.89362 0.80616 0.23153 0.0
O222 O 0.87592 0.79334 0.32921 0.0
C223 C 0.92406 0.79034 0.65014 0.0
Zn224 Zn 0.5938 0.70334 0.97129 0.0
Zn225 Zn 0.58833 0.68871 0.68035 0.0
O226 O 0.61705 0.73544 0.6637 0.0
O227 O 0.61823 0.74261 0.87353 0.0
O228 O 0.5735 0.66347 0.51158 0.0
O229 O 0.53937 0.70514 0.98083 0.0
O230 O 0.54573 0.70188 0.77942 0.0
C231 C 0.62611 0.75309 0.76223 0.0
C232 C 0.63396 0.64623 0.87633 0.0
O233 O 0.62131 0.65712 0.77241 0.0
O234 O 0.62448 0.65919 0.98135 0.0
C235 C 0.57708 0.63067 0.50225 0.0
O236 O 0.59064 0.61392 0.59773 0.0
C237 C 0.53407 0.68789 0.88076 0.0
Zn238 Zn 0.61494 0.45663 0.16832 0.0
Zn239 Zn 0.62825 0.44246 0.93096 0.0
O240 O 0.5816 0.41301 0.93894 0.0
O241 O 0.5716 0.42527 0.13939 0.0
O242 O 0.64921 0.4294 0.75952 0.0
O243 O 0.65707 0.4387 0.25266 0.0
O244 O 0.66682 0.42617 0.05288 0.0
C245 C 0.56221 0.41022 0.03732 0.0
C246 C 0.60973 0.51635 1.02266 0.0
O247 O 0.61546 0.4948 0.9332 0.0
O248 O 0.61146 0.5069 0.13718 0.0
C249 C 0.67037 0.4045 0.74947 0.0
O250 O 0.67961 0.3873 0.85077 0.0
C251 C 0.67618 0.42561 0.16871 0.0
Zn252 Zn 0.86014 0.24619 0.46635 0.0
Zn253 Zn 0.86871 0.26045 0.17665 0.0
O254 O 0.83944 0.21453 0.15799 0.0
O255 O 0.83694 0.20656 0.36759 0.0
O256 O 0.88767 0.28344 1.00973 0.0
O257 O 0.9144 0.24429 0.49036 0.0
O258 O 0.90758 0.24635 0.28892 0.0
C259 C 0.82992 0.19646 0.25548 0.0
C260 C 0.82295 0.3052 0.36065 0.0
O261 O 0.83613 0.29455 0.25699 0.0
O262 O 0.83042 0.29097 0.46575 0.0
C263 C 0.86609 0.29856 0.93759 0.0
O264 O 0.83237 0.29656 0.96616 0.0
C265 C 0.91822 0.26144 0.38886 0.0
Zn266 Zn 0.84761 0.50067 0.68725 0.0
Zn267 Zn 0.83347 0.51473 0.44883 0.0
O268 O 0.87996 0.5448 0.45672 0.0
O269 O 0.8892 0.53446 0.65896 0.0
O270 O 0.81256 0.5285 0.27815 0.0
O271 O 0.80402 0.51606 0.77194 0.0
O272 O 0.79449 0.52953 0.57293 0.0
C273 C 0.8986 0.54921 0.55575 0.0
C274 C 0.8535 0.4409 0.53575 0.0
O275 O 0.84606 0.46216 0.44696 0.0
O276 O 0.85387 0.45071 0.65006 0.0
C277 C 0.78879 0.551 0.26873 0.0
O278 O 0.77597 0.56524 0.371 0.0
C279 C 0.78473 0.52909 0.68871 0.0
Zn280 Zn 0.73405 0.34383 0.20536 0.0
Zn281 Zn 0.71828 0.35044 0.43904 0.0
O282 O 0.68469 0.30806 0.41621 0.0
O283 O 0.69758 0.30405 0.21295 0.0
O284 O 0.70533 0.36994 0.61328 0.0
O285 O 0.72053 0.38702 0.12174 0.0
O286 O 0.70186 0.38937 0.31873 0.0
C287 C 0.68021 0.29333 0.30939 0.0
C288 C 0.79244 0.32753 0.34792 0.0
O289 O 0.77055 0.33199 0.4389 0.0
O290 O 0.78386 0.33471 0.23556 0.0
C291 C 0.68212 0.39298 0.62415 0.0
O292 O 0.66664 0.40485 0.52285 0.0
C293 C 0.70308 0.40176 0.20655 0.0
Zn294 Zn 0.917 0.36758 0.36753 0.0
Zn295 Zn 0.91951 0.35271 0.62784 0.0
O296 O 0.96995 0.37355 0.61803 0.0
O297 O 0.96695 0.384 0.41148 0.0
O298 O 0.90854 0.32991 0.8033 0.0
O299 O 0.91063 0.31823 0.30847 0.0
O300 O 0.91753 0.31103 0.51406 0.0
C301 C -0.01588 0.38454 0.51469 0.0
C302 C 0.8704 0.40814 0.50698 0.0
O303 O 0.8846 0.39184 0.59823 0.0
O304 O 0.87761 0.40092 0.39292 0.0
C305 C 0.87741 0.31685 0.81932 0.0
O306 O 0.85406 0.32099 0.72952 0.0
C307 C 0.91446 0.29858 0.40305 0.0
Zn308 Zn 0.72559 0.60971 0.72556 0.0
Zn309 Zn 0.73984 0.60307 0.9583 0.0
O310 O 0.77373 0.64552 0.93708 0.0
O311 O 0.76283 0.64881 0.73256 0.0
O312 O 0.75203 0.58352 0.13256 0.0
O313 O 0.73916 0.56638 0.64319 0.0
O314 O 0.75771 0.5642 0.83982 0.0
C315 C 0.77959 0.65963 0.82951 0.0
C316 C 0.66574 0.6254 0.86454 0.0
O317 O 0.68689 0.62055 0.95702 0.0
O318 O 0.67564 0.61945 0.75245 0.0
C319 C 0.77778 0.56329 0.14367 0.0
O320 O 0.79627 0.55519 0.04339 0.0
C321 C 0.75692 0.55193 0.72763 0.0
Zn322 Zn 0.53609 0.58091 0.86628 0.0
Zn323 Zn 0.53801 0.59806 0.12746 0.0
O324 O 0.48954 0.57209 0.13077 0.0
O325 O 0.48923 0.55886 0.92617 0.0
O326 O 0.54858 0.62285 0.29921 0.0
O327 O 0.53797 0.63035 0.80471 0.0
O328 O 0.53671 0.63914 1.01096 0.0
C329 C 0.47467 0.55766 0.03495 0.0
C330 C 0.59024 0.54766 0.99715 0.0
O331 O 0.57639 0.56295 0.09158 0.0
O332 O 0.57957 0.55293 0.88543 0.0
C333 C 0.56823 0.61086 0.38517 0.0
O334 O 0.58077 0.57986 0.37035 0.0
C335 C 0.5369 0.65072 0.89804 0.0
Zn336 Zn 0.35029 0.29025 0.10948 0.0
Zn337 Zn 0.35915 0.29181 0.3754 0.0
O338 O 0.34097 0.24042 0.36643 0.0
O339 O 0.33512 0.24098 0.15727 0.0
O340 O 0.37471 0.30619 0.56187 0.0
O341 O 0.401 0.30064 0.06586 0.0
O342 O 0.40437 0.29718 0.27419 0.0
C343 C 0.33251 0.22511 0.2628 0.0
C344 C 0.30178 0.33313 0.2209 0.0
O345 O 0.31729 0.32186 0.31997 0.0
O346 O 0.31276 0.32576 0.11118 0.0
C347 C 0.40635 0.31401 0.59813 0.0
O348 O 0.43238 0.31233 0.51639 0.0
C349 C 0.41909 0.30044 0.16597 0.0
Zn350 Zn 0.38665 0.48937 0.93991 0.0
Zn351 Zn 0.37747 0.50619 0.178 0.0
O352 O 0.42362 0.53547 0.14941 0.0
O353 O 0.4306 0.52069 0.94906 0.0
O354 O 0.35781 0.52279 0.35104 0.0
O355 O 0.34422 0.50681 0.85739 0.0
O356 O 0.33909 0.52269 0.05629 0.0
C357 C 0.44118 0.53738 0.04608 0.0
C358 C 0.39517 0.43102 0.09393 0.0
O359 O 0.39157 0.45331 0.18288 0.0
O360 O 0.39002 0.43961 0.97996 0.0
C361 C 0.32841 0.53778 0.36456 0.0
O362 O 0.30726 0.54073 0.26745 0.0
C363 C 0.32782 0.52247 0.94271 0.0
Zn364 Zn 0.128 0.6761 0.65723 0.0
Zn365 Zn 0.11187 0.67099 0.90716 0.0
O366 O 0.13126 0.72286 0.90569 0.0
O367 O 0.14582 0.72282 0.70222 0.0
O368 O 0.09105 0.65535 0.08572 0.0
O369 O 0.07942 0.67186 0.59373 0.0
O370 O 0.06853 0.66381 0.79649 0.0
C371 C 0.14463 0.7382 0.80777 0.0
C372 C 0.17025 0.62748 0.76699 0.0
O373 O 0.15399 0.63889 0.86462 0.0
O374 O 0.16176 0.6371 0.65689 0.0
C375 C 0.06132 0.63875 0.1033 0.0
O376 O 0.04141 0.63073 1.0055 0.0
C377 C 0.0578 0.66537 0.68262 0.0
Zn378 Zn 0.0711 0.44758 0.38606 0.0
Zn379 Zn 0.08493 0.43443 0.62831 0.0
O380 O 0.03811 0.40561 0.61004 0.0
O381 O 0.029 0.4153 0.40654 0.0
O382 O 0.10597 0.41911 0.79981 0.0
O383 O 0.11452 0.43341 0.30344 0.0
O384 O 0.12389 0.42145 0.50427 0.0
C385 C 0.01929 0.40161 0.51091 0.0
C386 C 0.06396 0.50656 0.53874 0.0
O387 O 0.07137 0.48621 0.63024 0.0
O388 O 0.06496 0.49645 0.42507 0.0
C389 C 0.13665 0.40678 0.81285 0.0
O390 O 0.15816 0.40582 0.71539 0.0
C391 C 0.13402 0.42194 0.38909 0.0
Zn392 Zn 0.26746 0.60512 0.90764 0.0
Zn393 Zn 0.27877 0.5927 0.67067 0.0
O394 O 0.30819 0.63903 0.66816 0.0
O395 O 0.29916 0.6473 0.87202 0.0
O396 O 0.28993 0.56956 0.49961 0.0
O397 O 0.28704 0.56452 0.99211 0.0
O398 O 0.29977 0.55657 0.79114 0.0
C399 C 0.31288 0.65726 0.76746 0.0
C400 C 0.20421 0.6108 0.7846 0.0
O401 O 0.22451 0.60474 0.68968 0.0
O402 O 0.21603 0.60985 0.89619 0.0
C403 C 0.31895 0.55394 0.48629 0.0
O404 O 0.34151 0.55378 0.58028 0.0
C405 C 0.30171 0.54729 0.90682 0.0
Zn406 Zn -0.00099 0.58213 0.68599 0.0
Zn407 Zn 0.00331 0.59553 0.43285 0.0
O408 O 0.94918 0.57891 0.45352 0.0
O409 O 0.94986 0.56672 0.65879 0.0
O410 O 0.01895 0.61235 0.2509 0.0
O411 O 0.01011 0.63001 0.74118 0.0
O412 O 0.02329 0.63493 0.53899 0.0
C413 C 0.93364 0.56723 0.55446 0.0
C414 C 0.04597 0.5387 0.56111 0.0
O415 O 0.03348 0.55418 0.46503 0.0
O416 O 0.03715 0.54696 0.67255 0.0
C417 C 0.04935 0.6275 0.23221 0.0
O418 O 0.0707 0.63243 0.32863 0.0
C419 C 0.02538 0.64636 0.65163 0.0
Zn420 Zn 0.20255 0.34831 0.35817 0.0
Zn421 Zn 0.19049 0.35758 0.12109 0.0
O422 O 0.16343 0.31015 0.12619 0.0
O423 O 0.17184 0.30521 0.33184 0.0
O424 O 0.17786 0.37898 0.9487 0.0
O425 O 0.18143 0.38792 0.43983 0.0
O426 O 0.16599 0.39131 0.23958 0.0
C427 C 0.15839 0.29364 0.22966 0.0
C428 C 0.2662 0.34639 0.23599 0.0
O429 O 0.24576 0.35034 0.14032 0.0
O430 O 0.25384 0.34633 0.34713 0.0
C431 C 0.14737 0.39161 0.93478 0.0
O432 O 0.12458 0.38966 1.02874 0.0
C433 C 0.16372 0.40163 0.35369 0.0
Zn434 Zn 0.47303 0.36243 0.23368 0.0
Zn435 Zn 0.46296 0.3521 0.94451 0.0
O436 O 0.5115 0.38012 0.94126 0.0
O437 O 0.5167 0.38353 0.15159 0.0
O438 O 0.44593 0.33352 0.76533 0.0
O439 O 0.47172 0.3098 0.2658 0.0
O440 O 0.47333 0.31297 0.06252 0.0
C441 C 0.52879 0.38951 0.04092 0.0
C442 C 0.41567 0.39962 0.11195 0.0
O443 O 0.42686 0.38536 1.01096 0.0
O444 O 0.42908 0.39292 0.21923 0.0
C445 C 0.41416 0.32594 0.73017 0.0
O446 O 0.38811 0.32962 0.81072 0.0
C447 C 0.45735 0.30204 0.1615 0.0
loop_
_geom_bond_atom_site_label_1
_geom_bond_atom_site_label_2
_geom_bond_distance
_geom_bond_site_symmetry_2
_ccdc_geom_bond_type
Zn0 O3 2.031 . S
Zn0 O5 2.049 . S
Zn0 O10 2.067 . S
Zn1 O2 1.962 . S
Zn1 O4 1.986 . S
Zn1 O6 1.996 . S
Zn1 O9 1.943 . S
O2 Zn1 1.962 . S
O2 C7 1.254 . S
O3 Zn0 2.031 . S
O3 C7 1.269 . S
O4 Zn1 1.986 . S
O4 C11 1.262 1_554 S
O5 Zn0 2.049 . S
O5 C13 1.260 . S
O6 Zn1 1.996 . S
O6 C13 1.257 . S
C7 O2 1.254 . S
C7 O3 1.269 . S
C8 O9 1.249 . S
C8 O10 1.270 . S
O9 Zn1 1.943 . S
O9 C8 1.249 . S
O10 Zn0 2.067 . S
O10 C8 1.270 . S
C11 O4 1.262 1_556 S
C11 O12 1.232 . S
O12 C11 1.232 . S
C13 O5 1.260 . S
C13 O6 1.257 . S
Zn14 O17 2.031 . S
Zn14 O19 2.049 . S
Zn14 O24 2.067 . S
Zn15 O16 1.962 . S
Zn15 O18 1.986 . S
Zn15 O20 1.996 . S
Zn15 O23 1.943 . S
O16 Zn15 1.962 . S
O16 C21 1.254 . S
O17 Zn14 2.031 . S
O17 C21 1.269 . S
O18 Zn15 1.986 . S
O18 C25 1.262 . S
O19 Zn14 2.049 . S
O19 C27 1.260 . S
O20 Zn15 1.996 . S
O20 C27 1.257 . S
C21 O16 1.254 . S
C21 O17 1.269 . S
C22 O23 1.249 . S
C22 O24 1.270 . S
O23 Zn15 1.943 . S
O23 C22 1.249 . S
O24 Zn14 2.067 . S
O24 C22 1.270 . S
C25 O18 1.262 . S
C25 O26 1.232 . S
O26 C25 1.232 . S
C27 O19 1.260 . S
C27 O20 1.257 . S
Zn28 O31 2.031 . S
Zn28 O33 2.049 . S
Zn28 O38 2.067 . S
Zn29 O30 1.962 . S
Zn29 O32 1.986 . S
Zn29 O34 1.996 . S
Zn29 O37 1.943 . S
O30 Zn29 1.962 . S
O30 C35 1.254 . S
O31 Zn28 2.031 . S
O31 C35 1.269 . S
O32 Zn29 1.986 . S
O32 C39 1.262 . S
O33 Zn28 2.049 . S
O33 C41 1.260 . S
O34 Zn29 1.996 . S
O34 C41 1.257 . S
C35 O30 1.254 . S
C35 O31 1.269 . S
C36 O37 1.249 . S
C36 O38 1.270 . S
O37 Zn29 1.943 . S
O37 C36 1.249 . S
O38 Zn28 2.067 . S
O38 C36 1.270 . S
C39 O32 1.262 . S
C39 O40 1.232 . S
O40 C39 1.232 . S
C41 O33 1.260 . S
C41 O34 1.257 . S
Zn42 O45 2.031 1_554 S
Zn42 O47 2.049 . S
Zn42 O52 2.067 . S
Zn43 O44 1.962 . S
Zn43 O46 1.986 . S
Zn43 O48 1.996 1_556 S
Zn43 O51 1.943 . S
O44 Zn43 1.962 . S
O44 C49 1.254 . S
O45 Zn42 2.031 1_556 S
O45 C49 1.269 . S
O46 Zn43 1.986 . S
O46 C53 1.262 . S
O47 Zn42 2.049 . S
O47 C55 1.260 . S
O48 Zn43 1.996 1_554 S
O48 C55 1.257 . S
C49 O44 1.254 . S
C49 O45 1.269 . S
C50 O51 1.249 . S
C50 O52 1.270 1_556 S
O51 Zn43 1.943 . S
O51 C50 1.249 . S
O52 Zn42 2.067 . S
O52 C50 1.270 1_554 S
C53 O46 1.262 . S
C53 O54 1.232 . S
O54 C53 1.232 . S
C55 O47 1.260 . S
C55 O48 1.257 . S
Zn56 O59 2.031 . S
Zn56 O61 2.049 . S
Zn56 O66 2.067 . S
Zn57 O58 1.962 . S
Zn57 O60 1.986 . S
Zn57 O62 1.996 . S
Zn57 O65 1.943 . S
O58 Zn57 1.962 . S
O58 C63 1.254 . S
O59 Zn56 2.031 . S
O59 C63 1.269 . S
O60 Zn57 1.986 . S
O60 C67 1.262 1_556 S
O61 Zn56 2.049 . S
O61 C69 1.260 . S
O62 Zn57 1.996 . S
O62 C69 1.257 . S
C63 O58 1.254 . S
C63 O59 1.269 . S
C64 O65 1.249 . S
C64 O66 1.270 . S
O65 Zn57 1.943 . S
O65 C64 1.249 . S
O66 Zn56 2.067 . S
O66 C64 1.270 . S
C67 O60 1.262 1_554 S
C67 O68 1.232 . S
O68 C67 1.232 . S
C69 O61 1.260 . S
C69 O62 1.257 . S
Zn70 O73 2.031 1_556 S
Zn70 O75 2.049 . S
Zn70 O80 2.067 . S
Zn71 O72 1.962 . S
Zn71 O74 1.986 . S
Zn71 O76 1.996 1_554 S
Zn71 O79 1.943 . S
O72 Zn71 1.962 . S
O72 C77 1.254 . S
O73 Zn70 2.031 1_554 S
O73 C77 1.269 . S
O74 Zn71 1.986 . S
O74 C81 1.262 . S
O75 Zn70 2.049 . S
O75 C83 1.260 . S
O76 Zn71 1.996 1_556 S
O76 C83 1.257 . S
C77 O72 1.254 . S
C77 O73 1.269 . S
C78 O79 1.249 . S
C78 O80 1.270 1_554 S
O79 Zn71 1.943 . S
O79 C78 1.249 . S
O80 Zn70 2.067 . S
O80 C78 1.270 1_556 S
C81 O74 1.262 . S
C81 O82 1.232 . S
O82 C81 1.232 . S
C83 O75 1.260 . S
C83 O76 1.257 . S
Zn84 O87 2.031 . S
Zn84 O89 2.049 . S
Zn84 O94 2.067 . S
Zn85 O86 1.962 . S
Zn85 O88 1.986 . S
Zn85 O90 1.996 . S
Zn85 O93 1.943 . S
O86 Zn85 1.962 . S
O86 C91 1.254 . S
O87 Zn84 2.031 . S
O87 C91 1.269 . S
O88 Zn85 1.986 . S
O88 C95 1.262 . S
O89 Zn84 2.049 . S
O89 C97 1.260 . S
O90 Zn85 1.996 . S
O90 C97 1.257 . S
C91 O86 1.254 . S
C91 O87 1.269 . S
C92 O93 1.249 . S
C92 O94 1.270 . S
O93 Zn85 1.943 . S
O93 C92 1.249 . S
O94 Zn84 2.067 . S
O94 C92 1.270 . S
C95 O88 1.262 . S
C95 O96 1.232 . S
O96 C95 1.232 . S
C97 O89 1.260 . S
C97 O90 1.257 . S
Zn98 O101 2.031 . S
Zn98 O103 2.049 . S
Zn98 O108 2.067 . S
Zn99 O100 1.962 . S
Zn99 O102 1.986 . S
Zn99 O104 1.996 . S
Zn99 O107 1.943 . S
O100 Zn99 1.962 . S
O100 C105 1.254 . S
O101 Zn98 2.031 . S
O101 C105 1.269 . S
O102 Zn99 1.986 . S
O102 C109 1.262 . S
O103 Zn98 2.049 . S
O103 C111 1.260 . S
O104 Zn99 1.996 . S
O104 C111 1.257 . S
C105 O100 1.254 . S
C105 O101 1.269 . S
C106 O107 1.249 . S
C106 O108 1.270 . S
O107 Zn99 1.943 . S
O107 C106 1.249 . S
O108 Zn98 2.067 . S
O108 C106 1.270 . S
C109 O102 1.262 . S
C109 O110 1.232 . S
O110 C109 1.232 . S
C111 O103 1.260 . S
C111 O104 1.257 . S
Zn112 O115 2.031 . S
Zn112 O117 2.049 . S
Zn112 O122 2.067 . S
Zn113 O114 1.962 . S
Zn113 O116 1.986 . S
Zn113 O118 1.996 . S
Zn113 O121 1.943 . S
O114 Zn113 1.962 . S
O114 C119 1.254 . S
O115 Zn112 2.031 . S
O115 C119 1.269 . S
O116 Zn113 1.986 . S
O116 C123 1.262 1_556 S
O117 Zn112 2.049 . S
O117 C125 1.260 . S
O118 Zn113 1.996 . S
O118 C125 1.257 . S
C119 O114 1.254 . S
C119 O115 1.269 . S
C120 O121 1.249 . S
C120 O122 1.270 . S
O121 Zn113 1.943 . S
O121 C120 1.249 . S
O122 Zn112 2.067 . S
O122 C120 1.270 . S
C123 O116 1.262 1_554 S
C123 O124 1.232 . S
O124 C123 1.232 . S
C125 O117 1.260 . S
C125 O118 1.257 . S
Zn126 O129 2.031 . S
Zn126 O131 2.049 . S
Zn126 O136 2.067 . S
Zn127 O128 1.962 . S
Zn127 O130 1.986 . S
Zn127 O132 1.996 . S
Zn127 O135 1.943 . S
O128 Zn127 1.962 . S
O128 C133 1.254 . S
O129 Zn126 2.031 . S
O129 C133 1.269 . S
O130 Zn127 1.986 . S
O130 C137 1.262 . S
O131 Zn126 2.049 . S
O131 C139 1.260 . S
O132 Zn127 1.996 . S
O132 C139 1.257 . S
C133 O128 1.254 . S
C133 O129 1.269 . S
C134 O135 1.249 . S
C134 O136 1.270 . S
O135 Zn127 1.943 . S
O135 C134 1.249 . S
O136 Zn126 2.067 . S
O136 C134 1.270 . S
C137 O130 1.262 . S
C137 O138 1.232 . S
O138 C137 1.232 . S
C139 O131 1.260 . S
C139 O132 1.257 . S
Zn140 O143 2.031 . S
Zn140 O145 2.049 . S
Zn140 O150 2.067 . S
Zn141 O142 1.962 . S
Zn141 O144 1.986 . S
Zn141 O146 1.996 . S
Zn141 O149 1.943 . S
O142 Zn141 1.962 . S
O142 C147 1.254 . S
O143 Zn140 2.031 . S
O143 C147 1.269 . S
O144 Zn141 1.986 . S
O144 C151 1.262 . S
O145 Zn140 2.049 . S
O145 C153 1.260 . S
O146 Zn141 1.996 . S
O146 C153 1.257 . S
C147 O142 1.254 . S
C147 O143 1.269 . S
C148 O149 1.249 . S
C148 O150 1.270 . S
O149 Zn141 1.943 . S
O149 C148 1.249 . S
O150 Zn140 2.067 . S
O150 C148 1.270 . S
C151 O144 1.262 . S
C151 O152 1.232 . S
O152 C151 1.232 . S
C153 O145 1.260 . S
C153 O146 1.257 . S
Zn154 O157 2.031 1_556 S
Zn154 O159 2.049 . S
Zn154 O164 2.067 . S
Zn155 O156 1.962 . S
Zn155 O158 1.986 . S
Zn155 O160 1.996 1_554 S
Zn155 O163 1.943 . S
O156 Zn155 1.962 . S
O156 C161 1.254 . S
O157 Zn154 2.031 1_554 S
O157 C161 1.269 . S
O158 Zn155 1.986 . S
O158 C165 1.262 . S
O159 Zn154 2.049 . S
O159 C167 1.260 . S
O160 Zn155 1.996 1_556 S
O160 C167 1.257 . S
C161 O156 1.254 . S
C161 O157 1.269 . S
C162 O163 1.249 . S
C162 O164 1.270 1_554 S
O163 Zn155 1.943 . S
O163 C162 1.249 . S
O164 Zn154 2.067 . S
O164 C162 1.270 1_556 S
C165 O158 1.262 . S
C165 O166 1.232 . S
O166 C165 1.232 . S
C167 O159 1.260 . S
C167 O160 1.257 . S
Zn168 O171 2.031 . S
Zn168 O173 2.049 . S
Zn168 O178 2.067 . S
Zn169 O170 1.962 . S
Zn169 O172 1.986 . S
Zn169 O174 1.996 . S
Zn169 O177 1.943 . S
O170 Zn169 1.962 . S
O170 C175 1.254 . S
O171 Zn168 2.031 . S
O171 C175 1.269 . S
O172 Zn169 1.986 . S
O172 C179 1.262 1_554 S
O173 Zn168 2.049 . S
O173 C181 1.260 . S
O174 Zn169 1.996 . S
O174 C181 1.257 . S
C175 O170 1.254 . S
C175 O171 1.269 . S
C176 O177 1.249 . S
C176 O178 1.270 . S
O177 Zn169 1.943 . S
O177 C176 1.249 . S
O178 Zn168 2.067 . S
O178 C176 1.270 . S
C179 O172 1.262 1_556 S
C179 O180 1.232 . S
O180 C179 1.232 . S
C181 O173 1.260 . S
C181 O174 1.257 . S
Zn182 O185 2.031 1_554 S
Zn182 O187 2.049 . S
Zn182 O192 2.067 . S
Zn183 O184 1.962 . S
Zn183 O186 1.986 . S
Zn183 O188 1.996 1_556 S
Zn183 O191 1.943 . S
O184 Zn183 1.962 . S
O184 C189 1.254 . S
O185 Zn182 2.031 1_556 S
O185 C189 1.269 . S
O186 Zn183 1.986 . S
O186 C193 1.262 . S
O187 Zn182 2.049 . S
O187 C195 1.260 . S
O188 Zn183 1.996 1_554 S
O188 C195 1.257 . S
C189 O184 1.254 . S
C189 O185 1.269 . S
C190 O191 1.249 . S
C190 O192 1.270 1_556 S
O191 Zn183 1.943 . S
O191 C190 1.249 . S
O192 Zn182 2.067 . S
O192 C190 1.270 1_554 S
C193 O186 1.262 . S
C193 O194 1.232 . S
O194 C193 1.232 . S
C195 O187 1.260 . S
C195 O188 1.257 . S
Zn196 O199 2.031 . S
Zn196 O201 2.049 . S
Zn196 O206 2.067 . S
Zn197 O198 1.962 . S
Zn197 O200 1.986 . S
Zn197 O202 1.996 . S
Zn197 O205 1.943 . S
O198 Zn197 1.962 . S
O198 C203 1.254 . S
O199 Zn196 2.031 . S
O199 C203 1.269 . S
O200 Zn197 1.986 . S
O200 C207 1.262 . S
O201 Zn196 2.049 . S
O201 C209 1.260 . S
O202 Zn197 1.996 . S
O202 C209 1.257 . S
C203 O198 1.254 . S
C203 O199 1.269 . S
C204 O205 1.249 . S
C204 O206 1.270 . S
O205 Zn197 1.943 . S
O205 C204 1.249 . S
O206 Zn196 2.067 . S
O206 C204 1.270 . S
C207 O200 1.262 . S
C207 O208 1.232 . S
O208 C207 1.232 . S
C209 O201 1.260 . S
C209 O202 1.257 . S
Zn210 O213 2.031 . S
Zn210 O215 2.049 . S
Zn210 O220 2.067 . S
Zn211 O212 1.962 . S
Zn211 O214 1.986 . S
Zn211 O216 1.996 . S
Zn211 O219 1.943 . S
O212 Zn211 1.962 . S
O212 C217 1.254 . S
O213 Zn210 2.031 . S
O213 C217 1.269 . S
O214 Zn211 1.986 . S
O214 C221 1.262 . S
O215 Zn210 2.049 . S
O215 C223 1.260 . S
O216 Zn211 1.996 . S
O216 C223 1.257 . S
C217 O212 1.254 . S
C217 O213 1.269 . S
C218 O219 1.249 . S
C218 O220 1.270 . S
O219 Zn211 1.943 . S
O219 C218 1.249 . S
O220 Zn210 2.067 . S
O220 C218 1.270 . S
C221 O214 1.262 . S
C221 O222 1.232 . S
O222 C221 1.232 . S
C223 O215 1.260 . S
C223 O216 1.257 . S
Zn224 O227 2.031 . S
Zn224 O229 2.049 . S
Zn224 O234 2.067 . S
Zn225 O226 1.962 . S
Zn225 O228 1.986 . S
Zn225 O230 1.996 . S
Zn225 O233 1.943 . S
O226 Zn225 1.962 . S
O226 C231 1.254 . S
O227 Zn224 2.031 . S
O227 C231 1.269 . S
O228 Zn225 1.986 . S
O228 C235 1.262 . S
O229 Zn224 2.049 . S
O229 C237 1.260 . S
O230 Zn225 1.996 . S
O230 C237 1.257 . S
C231 O226 1.254 . S
C231 O227 1.269 . S
C232 O233 1.249 . S
C232 O234 1.270 . S
O233 Zn225 1.943 . S
O233 C232 1.249 . S
O234 Zn224 2.067 . S
O234 C232 1.270 . S
C235 O228 1.262 . S
C235 O236 1.232 . S
O236 C235 1.232 . S
C237 O229 1.260 . S
C237 O230 1.257 . S
Zn238 O241 2.031 1_554 S
Zn238 O243 2.049 . S
Zn238 O248 2.067 . S
Zn239 O240 1.962 . S
Zn239 O242 1.986 . S
Zn239 O244 1.996 1_556 S
Zn239 O247 1.943 . S
O240 Zn239 1.962 . S
O240 C245 1.254 . S
O241 Zn238 2.031 1_556 S
O241 C245 1.269 . S
O242 Zn239 1.986 . S
O242 C249 1.262 . S
O243 Zn238 2.049 . S
O243 C251 1.260 . S
O244 Zn239 1.996 1_554 S
O244 C251 1.257 . S
C245 O240 1.254 . S
C245 O241 1.269 . S
C246 O247 1.249 . S
C246 O248 1.270 1_556 S
O247 Zn239 1.943 . S
O247 C246 1.249 . S
O248 Zn238 2.067 . S
O248 C246 1.270 1_554 S
C249 O242 1.262 . S
C249 O250 1.232 . S
O250 C249 1.232 . S
C251 O243 1.260 . S
C251 O244 1.257 . S
Zn252 O255 2.031 . S
Zn252 O257 2.049 . S
Zn252 O262 2.067 . S
Zn253 O254 1.962 . S
Zn253 O256 1.986 . S
Zn253 O258 1.996 . S
Zn253 O261 1.943 . S
O254 Zn253 1.962 . S
O254 C259 1.254 . S
O255 Zn252 2.031 . S
O255 C259 1.269 . S
O256 Zn253 1.986 . S
O256 C263 1.262 1_554 S
O257 Zn252 2.049 . S
O257 C265 1.260 . S
O258 Zn253 1.996 . S
O258 C265 1.257 . S
C259 O254 1.254 . S
C259 O255 1.269 . S
C260 O261 1.249 . S
C260 O262 1.270 . S
O261 Zn253 1.943 . S
O261 C260 1.249 . S
O262 Zn252 2.067 . S
O262 C260 1.270 . S
C263 O256 1.262 1_556 S
C263 O264 1.232 . S
O264 C263 1.232 . S
C265 O257 1.260 . S
C265 O258 1.257 . S
Zn266 O269 2.031 . S
Zn266 O271 2.049 . S
Zn266 O276 2.067 . S
Zn267 O268 1.962 . S
Zn267 O270 1.986 . S
Zn267 O272 1.996 . S
Zn267 O275 1.943 . S
O268 Zn267 1.962 . S
O268 C273 1.254 . S
O269 Zn266 2.031 . S
O269 C273 1.269 . S
O270 Zn267 1.986 . S
O270 C277 1.262 . S
O271 Zn266 2.049 . S
O271 C279 1.260 . S
O272 Zn267 1.996 . S
O272 C279 1.257 . S
C273 O268 1.254 . S
C273 O269 1.269 . S
C274 O275 1.249 . S
C274 O276 1.270 . S
O275 Zn267 1.943 . S
O275 C274 1.249 . S
O276 Zn266 2.067 . S
O276 C274 1.270 . S
C277 O270 1.262 . S
C277 O278 1.232 . S
O278 C277 1.232 . S
C279 O271 1.260 . S
C279 O272 1.257 . S
Zn280 O283 2.031 . S
Zn280 O285 2.049 . S
Zn280 O290 2.067 . S
Zn281 O282 1.962 . S
Zn281 O284 1.986 . S
Zn281 O286 1.996 . S
Zn281 O289 1.943 . S
O282 Zn281 1.962 . S
O282 C287 1.254 . S
O283 Zn280 2.031 . S
O283 C287 1.269 . S
O284 Zn281 1.986 . S
O284 C291 1.262 . S
O285 Zn280 2.049 . S
O285 C293 1.260 . S
O286 Zn281 1.996 . S
O286 C293 1.257 . S
C287 O282 1.254 . S
C287 O283 1.269 . S
C288 O289 1.249 . S
C288 O290 1.270 . S
O289 Zn281 1.943 . S
O289 C288 1.249 . S
O290 Zn280 2.067 . S
O290 C288 1.270 . S
C291 O284 1.262 . S
C291 O292 1.232 . S
O292 C291 1.232 . S
C293 O285 1.260 . S
C293 O286 1.257 . S
Zn294 O297 2.031 . S
Zn294 O299 2.049 . S
Zn294 O304 2.067 . S
Zn295 O296 1.962 . S
Zn295 O298 1.986 . S
Zn295 O300 1.996 . S
Zn295 O303 1.943 . S
O296 Zn295 1.962 . S
O296 C301 1.254 . S
O297 Zn294 2.031 . S
O297 C301 1.269 . S
O298 Zn295 1.986 . S
O298 C305 1.262 . S
O299 Zn294 2.049 . S
O299 C307 1.260 . S
O300 Zn295 1.996 . S
O300 C307 1.257 . S
C301 O296 1.254 . S
C301 O297 1.269 . S
C302 O303 1.249 . S
C302 O304 1.270 . S
O303 Zn295 1.943 . S
O303 C302 1.249 . S
O304 Zn294 2.067 . S
O304 C302 1.270 . S
C305 O298 1.262 . S
C305 O306 1.232 . S
O306 C305 1.232 . S
C307 O299 1.260 . S
C307 O300 1.257 . S
Zn308 O311 2.031 . S
Zn308 O313 2.049 . S
Zn308 O318 2.067 . S
Zn309 O310 1.962 . S
Zn309 O312 1.986 . S
Zn309 O314 1.996 . S
Zn309 O317 1.943 . S
O310 Zn309 1.962 . S
O310 C315 1.254 . S
O311 Zn308 2.031 . S
O311 C315 1.269 . S
O312 Zn309 1.986 . S
O312 C319 1.262 1_556 S
O313 Zn308 2.049 . S
O313 C321 1.260 . S
O314 Zn309 1.996 . S
O314 C321 1.257 . S
C315 O310 1.254 . S
C315 O311 1.269 . S
C316 O317 1.249 . S
C316 O318 1.270 . S
O317 Zn309 1.943 . S
O317 C316 1.249 . S
O318 Zn308 2.067 . S
O318 C316 1.270 . S
C319 O312 1.262 1_554 S
C319 O320 1.232 . S
O320 C319 1.232 . S
C321 O313 1.260 . S
C321 O314 1.257 . S
Zn322 O325 2.031 1_556 S
Zn322 O327 2.049 . S
Zn322 O332 2.067 . S
Zn323 O324 1.962 . S
Zn323 O326 1.986 . S
Zn323 O328 1.996 1_554 S
Zn323 O331 1.943 . S
O324 Zn323 1.962 . S
O324 C329 1.254 . S
O325 Zn322 2.031 1_554 S
O325 C329 1.269 . S
O326 Zn323 1.986 . S
O326 C333 1.262 . S
O327 Zn322 2.049 . S
O327 C335 1.260 . S
O328 Zn323 1.996 1_556 S
O328 C335 1.257 . S
C329 O324 1.254 . S
C329 O325 1.269 . S
C330 O331 1.249 . S
C330 O332 1.270 1_554 S
O331 Zn323 1.943 . S
O331 C330 1.249 . S
O332 Zn322 2.067 . S
O332 C330 1.270 1_556 S
C333 O326 1.262 . S
C333 O334 1.232 . S
O334 C333 1.232 . S
C335 O327 1.260 . S
C335 O328 1.257 . S
Zn336 O339 2.031 . S
Zn336 O341 2.049 . S
Zn336 O346 2.067 . S
Zn337 O338 1.962 . S
Zn337 O340 1.986 . S
Zn337 O342 1.996 . S
Zn337 O345 1.943 . S
O338 Zn337 1.962 . S
O338 C343 1.254 . S
O339 Zn336 2.031 . S
O339 C343 1.269 . S
O340 Zn337 1.986 . S
O340 C347 1.262 . S
O341 Zn336 2.049 . S
O341 C349 1.260 . S
O342 Zn337 1.996 . S
O342 C349 1.257 . S
C343 O338 1.254 . S
C343 O339 1.269 . S
C344 O345 1.249 . S
C344 O346 1.270 . S
O345 Zn337 1.943 . S
O345 C344 1.249 . S
O346 Zn336 2.067 . S
O346 C344 1.270 . S
C347 O340 1.262 . S
C347 O348 1.232 . S
O348 C347 1.232 . S
C349 O341 1.260 . S
C349 O342 1.257 . S
Zn350 O353 2.031 1_556 S
Zn350 O355 2.049 . S
Zn350 O360 2.067 . S
Zn351 O352 1.962 . S
Zn351 O354 1.986 . S
Zn351 O356 1.996 1_554 S
Zn351 O359 1.943 . S
O352 Zn351 1.962 . S
O352 C357 1.254 . S
O353 Zn350 2.031 1_554 S
O353 C357 1.269 . S
O354 Zn351 1.986 . S
O354 C361 1.262 . S
O355 Zn350 2.049 . S
O355 C363 1.260 . S
O356 Zn351 1.996 1_556 S
O356 C363 1.257 . S
C357 O352 1.254 . S
C357 O353 1.269 . S
C358 O359 1.249 . S
C358 O360 1.270 1_554 S
O359 Zn351 1.943 . S
O359 C358 1.249 . S
O360 Zn350 2.067 . S
O360 C358 1.270 1_556 S
C361 O354 1.262 . S
C361 O362 1.232 . S
O362 C361 1.232 . S
C363 O355 1.260 . S
C363 O356 1.257 . S
Zn364 O367 2.031 . S
Zn364 O369 2.049 . S
Zn364 O374 2.067 . S
Zn365 O366 1.962 . S
Zn365 O368 1.986 . S
Zn365 O370 1.996 . S
Zn365 O373 1.943 . S
O366 Zn365 1.962 . S
O366 C371 1.254 . S
O367 Zn364 2.031 . S
O367 C371 1.269 . S
O368 Zn365 1.986 . S
O368 C375 1.262 1_556 S
O369 Zn364 2.049 . S
O369 C377 1.260 . S
O370 Zn365 1.996 . S
O370 C377 1.257 . S
C371 O366 1.254 . S
C371 O367 1.269 . S
C372 O373 1.249 . S
C372 O374 1.270 . S
O373 Zn365 1.943 . S
O373 C372 1.249 . S
O374 Zn364 2.067 . S
O374 C372 1.270 . S
C375 O368 1.262 1_554 S
C375 O376 1.232 . S
O376 C375 1.232 . S
C377 O369 1.260 . S
C377 O370 1.257 . S
Zn378 O381 2.031 . S
Zn378 O383 2.049 . S
Zn378 O388 2.067 . S
Zn379 O380 1.962 . S
Zn379 O382 1.986 . S
Zn379 O384 1.996 . S
Zn379 O387 1.943 . S
O380 Zn379 1.962 . S
O380 C385 1.254 . S
O381 Zn378 2.031 . S
O381 C385 1.269 . S
O382 Zn379 1.986 . S
O382 C389 1.262 . S
O383 Zn378 2.049 . S
O383 C391 1.260 . S
O384 Zn379 1.996 . S
O384 C391 1.257 . S
C385 O380 1.254 . S
C385 O381 1.269 . S
C386 O387 1.249 . S
C386 O388 1.270 . S
O387 Zn379 1.943 . S
O387 C386 1.249 . S
O388 Zn378 2.067 . S
O388 C386 1.270 . S
C389 O382 1.262 . S
C389 O390 1.232 . S
O390 C389 1.232 . S
C391 O383 1.260 . S
C391 O384 1.257 . S
Zn392 O395 2.031 . S
Zn392 O397 2.049 . S
Zn392 O402 2.067 . S
Zn393 O394 1.962 . S
Zn393 O396 1.986 . S
Zn393 O398 1.996 . S
Zn393 O401 1.943 . S
O394 Zn393 1.962 . S
O394 C399 1.254 . S
O395 Zn392 2.031 . S
O395 C399 1.269 . S
O396 Zn393 1.986 . S
O396 C403 1.262 . S
O397 Zn392 2.049 . S
O397 C405 1.260 . S
O398 Zn393 1.996 . S
O398 C405 1.257 . S
C399 O394 1.254 . S
C399 O395 1.269 . S
C400 O401 1.249 . S
C400 O402 1.270 . S
O401 Zn393 1.943 . S
O401 C400 1.249 . S
O402 Zn392 2.067 . S
O402 C400 1.270 . S
C403 O396 1.262 . S
C403 O404 1.232 . S
O404 C403 1.232 . S
C405 O397 1.260 . S
C405 O398 1.257 . S
Zn406 O409 2.031 . S
Zn406 O411 2.049 . S
Zn406 O416 2.067 . S
Zn407 O408 1.962 . S
Zn407 O410 1.986 . S
Zn407 O412 1.996 . S
Zn407 O415 1.943 . S
O408 Zn407 1.962 . S
O408 C413 1.254 . S
O409 Zn406 2.031 . S
O409 C413 1.269 . S
O410 Zn407 1.986 . S
O410 C417 1.262 . S
O411 Zn406 2.049 . S
O411 C419 1.260 . S
O412 Zn407 1.996 . S
O412 C419 1.257 . S
C413 O408 1.254 . S
C413 O409 1.269 . S
C414 O415 1.249 . S
C414 O416 1.270 . S
O415 Zn407 1.943 . S
O415 C414 1.249 . S
O416 Zn406 2.067 . S
O416 C414 1.270 . S
C417 O410 1.262 . S
C417 O418 1.232 . S
O418 C417 1.232 . S
C419 O411 1.260 . S
C419 O412 1.257 . S
Zn420 O423 2.031 . S
Zn420 O425 2.049 . S
Zn420 O430 2.067 . S
Zn421 O422 1.962 . S
Zn421 O424 1.986 . S
Zn421 O426 1.996 . S
Zn421 O429 1.943 . S
O422 Zn421 1.962 . S
O422 C427 1.254 . S
O423 Zn420 2.031 . S
O423 C427 1.269 . S
O424 Zn421 1.986 . S
O424 C431 1.262 1_554 S
O425 Zn420 2.049 . S
O425 C433 1.260 . S
O426 Zn421 1.996 . S
O426 C433 1.257 . S
C427 O422 1.254 . S
C427 O423 1.269 . S
C428 O429 1.249 . S
C428 O430 1.270 . S
O429 Zn421 1.943 . S
O429 C428 1.249 . S
O430 Zn420 2.067 . S
O430 C428 1.270 . S
C431 O424 1.262 1_556 S
C431 O432 1.232 . S
O432 C431 1.232 . S
C433 O425 1.260 . S
C433 O426 1.257 . S
Zn434 O437 2.031 1_554 S
Zn434 O439 2.049 . S
Zn434 O444 2.067 . S
Zn435 O436 1.962 . S
Zn435 O438 1.986 . S
Zn435 O440 1.996 1_556 S
Zn435 O443 1.943 . S
O436 Zn435 1.962 . S
O436 C441 1.254 . S
O437 Zn434 2.031 1_556 S
O437 C441 1.269 . S
O438 Zn435 1.986 . S
O438 C445 1.262 . S
O439 Zn434 2.049 . S
O439 C447 1.260 . S
O440 Zn435 1.996 1_554 S
O440 C447 1.257 . S
C441 O436 1.254 . S
C441 O437 1.269 . S
C442 O443 1.249 . S
C442 O444 1.270 1_556 S
O443 Zn435 1.943 . S
O443 C442 1.249 . S
O444 Zn434 2.067 . S
O444 C442 1.270 1_554 S
C445 O438 1.262 . S
C445 O446 1.232 . S
O446 C445 1.232 . S
C447 O439 1.260 . S
C447 O440 1.257 . S
C92 C8 1.249 . S
C22 C106 1.249 1_565 S
C64 C36 1.249 . S
C50 C78 1.249 1_546 S
C120 C204 1.249 . S
C218 C134 1.249 1_565 S
C148 C176 1.249 . S
C190 C162 1.249 1_546 S
C232 C316 1.249 . S
C246 C330 1.249 1_556 S
C288 C260 1.249 . S
C302 C274 1.249 . S
C344 C428 1.249 . S
C358 C442 1.249 1_554 S
C400 C372 1.249 . S
C386 C414 1.249 . S
C11 C109 1.689 . S
C67 C25 1.689 . S
C81 C39 1.689 . S
C53 C95 1.689 . S
C123 C221 1.689 . S
C179 C137 1.689 . S
C193 C151 1.689 . S
C207 C165 1.689 . S
C235 C333 1.689 . S
C249 C291 1.689 . S
C305 C263 1.689 . S
C277 C319 1.689 . S
C347 C445 1.689 . S
C403 C361 1.689 . S
C375 C417 1.689 . S
C389 C431 1.689 . S
C427 C7 1.460 . S
C217 C21 1.460 1_655 S
C35 C399 1.460 . S
C49 C189 1.460 . S
C63 C371 1.460 . S
C77 C161 1.460 . S
C91 C343 1.460 . S
C133 C105 1.460 1_655 S
C315 C119 1.460 . S
C147 C287 1.460 . S
C259 C175 1.460 . S
C231 C203 1.460 . S
C245 C441 1.460 . S
C273 C413 1.460 1_655 S
C301 C385 1.460 1_655 S
C357 C329 1.460 . S
C13 C111 1.027 . S
C27 C69 1.027 . S
C83 C41 1.027 . S
C55 C97 1.027 . S
C223 C125 1.027 . S
C181 C139 1.027 . S
C153 C195 1.027 . S
C209 C167 1.027 . S
C335 C237 1.027 . S
C293 C251 1.027 . S
C307 C265 1.027 . S
C321 C279 1.027 . S
C349 C447 1.027 . S
C363 C405 1.027 . S
C377 C419 1.027 . S
C433 C391 1.027 . S
