# Generated by pormake.
# Topology smc, (6)-cn, num edge types: 1
# Building blocks:
#     Node 0, Type 0, BuildingBlock: BETFAJ_clean_sbu_0, # of connection points: 6
#     Node 1, Type 0, BuildingBlock: BETFAJ_clean_sbu_0, # of connection points: 6
#     Node 2, Type 0, BuildingBlock: BETFAJ_clean_sbu_0, # of connection points: 6
#     Node 3, Type 0, BuildingBlock: BETFAJ_clean_sbu_0, # of connection points: 6
#     Node 4, Type 0, BuildingBlock: BETFAJ_clean_sbu_0, # of connection points: 6
#     Node 5, Type 0, BuildingBlock: BETFAJ_clean_sbu_0, # of connection points: 6
#     Node 6, Type 0, BuildingBlock: BETFAJ_clean_sbu_0, # of connection points: 6
#     Node 7, Type 0, BuildingBlock: BETFAJ_clean_sbu_0, # of connection points: 6
#     Node 8, Type 0, BuildingBlock: BETFAJ_clean_sbu_0, # of connection points: 6
#     Edge 9, Type (0, 0), BuildingBlock: CIFDUS_clean_linker_0, # of connection points: 2
#     Edge 10, Type (0, 0), BuildingBlock: CIFDUS_clean_linker_0, # of connection points: 2
#     Edge 11, Type (0, 0), BuildingBlock: CIFDUS_clean_linker_0, # of connection points: 2
#     Edge 12, Type (0, 0), BuildingBlock: CIFDUS_clean_linker_0, # of connection points: 2
#     Edge 13, Type (0, 0), BuildingBlock: CIFDUS_clean_linker_0, # of connection points: 2
#     Edge 14, Type (0, 0), BuildingBlock: CIFDUS_clean_linker_0, # of connection points: 2
#     Edge 15, Type (0, 0), BuildingBlock: CIFDUS_clean_linker_0, # of connection points: 2
#     Edge 16, Type (0, 0), BuildingBlock: CIFDUS_clean_linker_0, # of connection points: 2
#     Edge 17, Type (0, 0), BuildingBlock: CIFDUS_clean_linker_0, # of connection points: 2
#     Edge 18, Type (0, 0), BuildingBlock: CIFDUS_clean_linker_0, # of connection points: 2
#     Edge 19, Type (0, 0), BuildingBlock: CIFDUS_clean_linker_0, # of connection points: 2
#     Edge 20, Type (0, 0), BuildingBlock: CIFDUS_clean_linker_0, # of connection points: 2
#     Edge 21, Type (0, 0), BuildingBlock: CIFDUS_clean_linker_0, # of connection points: 2
#     Edge 22, Type (0, 0), BuildingBlock: CIFDUS_clean_linker_0, # of connection points: 2
#     Edge 23, Type (0, 0), BuildingBlock: CIFDUS_clean_linker_0, # of connection points: 2
#     Edge 24, Type (0, 0), BuildingBlock: CIFDUS_clean_linker_0, # of connection points: 2
#     Edge 25, Type (0, 0), BuildingBlock: CIFDUS_clean_linker_0, # of connection points: 2
#     Edge 26, Type (0, 0), BuildingBlock: CIFDUS_clean_linker_0, # of connection points: 2
#     Edge 27, Type (0, 0), BuildingBlock: CIFDUS_clean_linker_0, # of connection points: 2
#     Edge 28, Type (0, 0), BuildingBlock: CIFDUS_clean_linker_0, # of connection points: 2
#     Edge 29, Type (0, 0), BuildingBlock: CIFDUS_clean_linker_0, # of connection points: 2
#     Edge 30, Type (0, 0), BuildingBlock: CIFDUS_clean_linker_0, # of connection points: 2
#     Edge 31, Type (0, 0), BuildingBlock: CIFDUS_clean_linker_0, # of connection points: 2
#     Edge 32, Type (0, 0), BuildingBlock: CIFDUS_clean_linker_0, # of connection points: 2
#     Edge 33, Type (0, 0), BuildingBlock: CIFDUS_clean_linker_0, # of connection points: 2
#     Edge 34, Type (0, 0), BuildingBlock: CIFDUS_clean_linker_0, # of connection points: 2
#     Edge 35, Type (0, 0), BuildingBlock: CIFDUS_clean_linker_0, # of connection points: 2
# Relax obj value: 0.186
# Max RMSD: 0.323
# Mean RMSD: 0.323
data_MOF--net-smc--node1-BETFAJ_clean_sbu_0--edge1-CIFDUS_clean_linker_0
_symmetry_space_group_name_H-M    P1
_symmetry_Int_Tables_number       1
_symmetry_cell_setting            triclinic
loop_
_symmetry_equiv_pos_as_xyz
'x, y, z'
_cell_length_a     35.85943
_cell_length_b     35.879231
_cell_length_c     33.6412
_cell_angle_alpha  90.568336
_cell_angle_beta   89.664568
_cell_angle_gamma 119.95512
loop_
_atom_site_label
_atom_site_type_symbol
_atom_site_fract_x
_atom_site_fract_y
_atom_site_fract_z
_atom_type_partial_charge
Sm0 Sm 0.05661 0.49796 1.02457 0.0
Sm1 Sm 0.99888 0.4089 0.04391 0.0
C2 C 0.09956 0.58243 1.01283 0.0
C3 C 0.13415 0.62697 1.021 0.0
C4 C 0.13962 0.64579 0.05887 0.0
C5 C 0.16869 0.68966 0.06458 0.0
C6 C 0.19296 0.7157 0.03258 0.0
C7 C 0.18779 0.69655 0.99483 0.0
C8 C 0.15865 0.6527 0.98913 0.0
C9 C 1.01856 0.44536 0.9586 0.0
C10 C 0.10264 0.44327 0.03083 0.0
C11 C 0.94223 0.32545 0.04701 0.0
C12 C 0.89448 0.3009 0.04488 0.0
C13 C 0.87201 0.30774 1.01434 0.0
C14 C 0.82693 0.28661 1.01436 0.0
C15 C 0.80302 0.25833 0.04521 0.0
C16 C 0.82575 0.25177 0.07588 0.0
C17 C 0.8708 0.27259 0.07556 0.0
C18 C 0.03902 0.45439 0.11276 0.0
C19 C 0.95978 0.47224 0.04774 0.0
O20 O 0.06857 0.5634 0.0388 0.0
O21 O 0.10826 0.55591 0.99352 0.0
O22 O 0.99963 0.44534 0.9902 0.0
O23 O 0.05878 0.47417 0.96077 0.0
O24 O 0.10744 0.48113 0.04009 0.0
O25 O 0.0633 0.40977 1.02503 0.0
O26 O 0.96351 0.34436 1.01466 0.0
O27 O 0.95822 0.34961 0.0786 0.0
O28 O 0.05693 0.46009 0.07909 0.0
O29 O 0.99796 0.42847 0.10891 0.0
O30 O 0.94965 0.43253 0.03858 0.0
O31 O 1.00028 0.50157 0.05241 0.0
H32 H 0.12077 0.62691 0.08391 0.0
H33 H 0.17151 0.70334 0.09399 0.0
H34 H 0.20641 0.71538 0.96967 0.0
H35 H 0.15457 0.63903 0.95953 0.0
H36 H 0.88916 0.32967 0.9905 0.0
H37 H 0.81092 0.29222 0.9899 0.0
H38 H 0.80887 0.23107 0.10068 0.0
H39 H 0.88725 0.26718 0.09982 0.0
Sm40 Sm 0.56485 0.58231 1.01168 0.0
Sm41 Sm 0.65506 0.61676 0.03408 0.0
C42 C 0.47964 0.53785 1.00409 0.0
C43 C 0.43612 0.53109 1.01222 0.0
C44 C 0.42178 0.53085 0.05119 0.0
C45 C 0.37875 0.51876 0.05848 0.0
C46 C 0.34904 0.50677 1.027 0.0
C47 C 0.36371 0.50761 0.98797 0.0
C48 C 0.40675 0.51957 0.98072 0.0
C49 C 0.61831 0.59124 0.94809 0.0
C50 C 0.62054 0.68367 1.00862 0.0
C51 C 0.73903 0.64757 0.04145 0.0
C52 C 0.76741 0.62871 0.04124 0.0
C53 C 0.75588 0.58975 1.0214 0.0
C54 C 0.78289 0.5719 1.02271 0.0
C55 C 0.8217 0.59244 0.04431 0.0
C56 C 0.83221 0.63078 0.06506 0.0
C57 C 0.80552 0.64875 0.06334 0.0
C58 C 0.6067 0.61626 0.09882 0.0
C59 C 0.59402 0.51478 0.04001 0.0
O60 O 0.50068 0.53314 0.03337 0.0
O61 O 0.50469 0.56709 0.97862 0.0
O62 O 0.61889 0.57649 0.98171 0.0
O63 O 0.5872 0.59956 0.94631 0.0
O64 O 0.58153 0.65171 1.01587 0.0
O65 O 0.65456 0.67814 1.01028 0.0
O66 O 0.72088 0.64767 1.00783 0.0
O67 O 0.71284 0.63714 0.07168 0.0
O68 O 0.60286 0.62641 0.0638 0.0
O69 O 0.63209 0.60022 0.09861 0.0
O70 O 0.6336 0.54448 0.03114 0.0
O71 O 0.56372 0.52503 0.04235 0.0
H72 H 0.44351 0.53904 0.07615 0.0
H73 H 0.3686 0.51804 0.08898 0.0
H74 H 0.34204 0.49929 0.96296 0.0
H75 H 0.41693 0.51897 0.95045 0.0
H76 H 0.72599 0.57305 1.00501 0.0
H77 H 0.7737 0.54246 1.00628 0.0
H78 H 0.8611 0.64697 0.08295 0.0
H79 H 0.81451 0.67825 0.07964 0.0
Sm80 Sm 0.47714 1.00055 1.02923 0.0
Sm81 Sm 0.44865 0.0636 0.03493 0.0
C82 C 0.51902 0.9573 0.03442 0.0
C83 C 0.52909 0.92351 1.02328 0.0
C84 C 0.54292 0.9063 0.0532 0.0
C85 C 0.55633 0.87682 0.04387 0.0
C86 C 0.55611 0.86381 1.0043 0.0
C87 C 0.54175 0.88079 0.97428 0.0
C88 C 0.52849 0.91057 0.98368 0.0
C89 C 0.46247 0.0272 0.95634 0.0
C90 C 0.37658 0.95897 1.02415 0.0
C91 C 0.42219 0.12022 1.02726 0.0
C92 C 0.44213 0.16752 0.03057 0.0
C93 C 0.47691 0.19562 1.0064 0.0
C94 C 0.4949 0.24029 1.01036 0.0
C95 C 0.47853 0.25766 0.03859 0.0
C96 C 0.44459 0.22933 0.0634 0.0
C97 C 0.42651 0.18488 0.05927 0.0
C98 C 0.44818 0.03098 0.10942 0.0
C99 C 0.54742 0.09649 0.0523 0.0
O100 O 0.48416 0.94718 0.05486 0.0
O101 O 0.53022 0.98955 1.01031 0.0
O102 O 0.48245 0.05115 0.98548 0.0
O103 O 0.45105 0.98768 0.96474 0.0
O104 O 0.40732 0.95094 0.03368 0.0
O105 O 0.3847 0.99903 1.01808 0.0
O106 O 0.43289 0.10439 0.99698 0.0
O107 O 0.41921 0.10023 0.06029 0.0
O108 O 0.43659 1.00949 0.07729 0.0
O109 O 0.46654 0.07166 0.10106 0.0
O110 O 0.52291 0.10864 0.034 0.0
O111 O 0.53033 0.05655 0.06379 0.0
H112 H 0.54387 0.91614 0.08392 0.0
H113 H 0.56634 0.86378 0.06777 0.0
H114 H 0.5413 0.87148 0.94349 0.0
H115 H 0.51826 0.92376 0.96007 0.0
H116 H 0.49 0.18318 0.98427 0.0
H117 H 0.52082 0.26113 0.99063 0.0
H118 H 0.43177 0.24152 0.08605 0.0
H119 H 0.40013 0.16395 0.0786 0.0
Sm120 Sm 0.72565 0.83019 0.35227 0.0
Sm121 Sm 0.67059 0.74171 0.3773 0.0
C122 C 0.77678 0.9117 0.33105 0.0
C123 C 0.80989 0.95624 0.34122 0.0
C124 C 0.81578 0.97212 0.38033 0.0
C125 C 0.84422 1.01581 0.38829 0.0
C126 C 0.86714 0.04452 0.35727 0.0
C127 C 0.86123 0.02821 0.31821 0.0
C128 C 0.83295 0.98457 0.31034 0.0
C129 C 0.6817 0.77009 0.29119 0.0
C130 C 0.77461 0.77669 0.36945 0.0
C131 C 0.61372 0.65803 0.3766 0.0
C132 C 0.56659 0.63018 0.38077 0.0
C133 C 0.54626 0.59101 0.35996 0.0
C134 C 0.50151 0.56487 0.36095 0.0
C135 C 0.47575 0.57712 0.38294 0.0
C136 C 0.49612 0.61698 0.40319 0.0
C137 C 0.54119 0.64334 0.40207 0.0
C138 C 0.70656 0.79043 0.44499 0.0
C139 C 0.63576 0.80834 0.38286 0.0
O140 O 0.73879 0.8971 0.34706 0.0
O141 O 0.78776 0.88219 0.32677 0.0
O142 O 0.70219 0.76773 0.31963 0.0
O143 O 0.68175 0.80606 0.29403 0.0
O144 O 0.7789 0.81521 0.36526 0.0
O145 O 0.73594 0.74155 0.37243 0.0
O146 O 0.62605 0.68185 0.34488 0.0
O147 O 0.63627 0.67834 0.40813 0.0
O148 O 0.72541 0.79755 0.41151 0.0
O149 O 0.66597 0.76233 0.44074 0.0
O150 O 0.62517 0.77029 0.3676 0.0
O151 O 0.67622 0.83515 0.39044 0.0
H152 H 0.79786 0.95094 0.40457 0.0
H153 H 0.84772 0.02727 0.41869 0.0
H154 H 0.87881 0.0491 0.2937 0.0
H155 H 0.82851 0.97303 0.27988 0.0
H156 H 0.56506 0.58076 0.34248 0.0
H157 H 0.48701 0.53497 0.34421 0.0
H158 H 0.47733 0.62741 0.42041 0.0
H159 H 0.55615 0.67398 0.41764 0.0
Sm160 Sm 0.23514 0.91103 0.36094 0.0
Sm161 Sm 0.32552 0.94754 0.37516 0.0
C162 C 0.14997 0.8655 0.35357 0.0
C163 C 0.10657 0.85906 0.36092 0.0
C164 C 0.09496 0.86951 0.39749 0.0
C165 C 0.0524 0.85963 0.4043 0.0
C166 C 1.02069 0.83904 0.37471 0.0
C167 C 0.03271 0.82894 0.33809 0.0
C168 C 0.07518 0.83887 0.33133 0.0
C169 C 0.28486 0.92501 0.29272 0.0
C170 C 0.28448 1.01183 0.36397 0.0
C171 C 0.40948 0.97682 0.37455 0.0
C172 C 0.43453 0.9539 0.37197 0.0
C173 C 0.44115 0.9385 0.33548 0.0
C174 C 0.46241 0.91457 0.33404 0.0
C175 C 0.47751 0.90526 0.36905 0.0
C176 C 0.47089 0.92087 0.40544 0.0
C177 C 0.45005 0.94504 0.40683 0.0
C178 C 0.28306 0.94058 0.4461 0.0
C179 C 0.26736 0.84492 0.38101 0.0
O180 O 0.17104 0.86182 0.3834 0.0
O181 O 0.17485 0.89438 0.32785 0.0
O182 O 0.28677 0.90747 0.32409 0.0
O183 O 0.25612 0.93652 0.29655 0.0
O184 O 0.24843 0.97772 0.37478 0.0
O185 O 0.31937 1.00839 0.35711 0.0
O186 O 0.38835 0.9768 0.34291 0.0
O187 O 0.38731 0.9709 0.40716 0.0
O188 O 0.2754 0.95294 0.41362 0.0
O189 O 0.30915 0.92592 0.43987 0.0
O190 O 0.30498 0.87546 0.36825 0.0
O191 O 0.23696 0.85401 0.38857 0.0
H192 H 0.11857 0.88481 0.4209 0.0
H193 H 0.04421 0.86762 0.43295 0.0
H194 H 1.00942 0.81385 0.31441 0.0
H195 H 0.08345 0.83029 0.30298 0.0
H196 H 0.42967 0.94463 0.30798 0.0
H197 H 0.46737 0.90377 0.30536 0.0
H198 H 0.48119 0.91388 0.43319 0.0
H199 H 0.44542 0.95618 0.43548 0.0
Sm200 Sm 0.14722 0.33891 0.35578 0.0
Sm201 Sm 0.11469 0.39657 0.37131 0.0
C202 C 0.19145 0.29792 0.34796 0.0
C203 C 0.19854 0.26108 0.35218 0.0
C204 C 0.18559 0.23548 0.38627 0.0
C205 C 0.19592 0.20293 0.39063 0.0
C206 C 0.21933 0.19527 0.36095 0.0
C207 C 0.23239 0.22121 0.32696 0.0
C208 C 0.22204 0.25376 0.32266 0.0
C209 C 0.13099 0.37255 0.28771 0.0
C210 C 0.04647 0.29144 0.35871 0.0
C211 C 0.08413 0.45046 0.37083 0.0
C212 C 0.1051 0.49777 0.37056 0.0
C213 C 0.15007 0.52325 0.36749 0.0
C214 C 0.17032 0.56803 0.37192 0.0
C215 C 0.14594 0.58825 0.37944 0.0
C216 C 0.10071 0.56249 0.38108 0.0
C217 C 0.08058 0.51774 0.37694 0.0
C218 C 0.11638 0.35805 0.44201 0.0
C219 C 0.21746 0.43748 0.37776 0.0
O220 O 0.19228 0.31941 0.37987 0.0
O221 O 0.16519 0.29689 0.32067 0.0
O222 O 0.15056 0.39343 0.31844 0.0
O223 O 0.11959 0.33252 0.2925 0.0
O224 O 0.07928 0.28665 0.36852 0.0
O225 O 0.05224 0.33074 0.35285 0.0
O226 O 0.0879 0.43182 0.33869 0.0
O227 O 0.09015 0.43443 0.4031 0.0
O228 O 0.10602 0.3396 0.40832 0.0
O229 O 0.13433 0.39925 0.43658 0.0
O230 O 0.18755 0.44708 0.3689 0.0
O231 O 0.20709 0.39715 0.38118 0.0
H232 H 0.16789 0.24087 0.40967 0.0
H233 H 0.18576 0.18388 0.41743 0.0
H234 H 0.24991 0.21588 0.30336 0.0
H235 H 0.23276 0.27356 0.2963 0.0
H236 H 0.16965 0.50846 0.36276 0.0
H237 H 0.20513 0.58656 0.37078 0.0
H238 H 0.08071 0.57685 0.38593 0.0
H239 H 0.04589 0.49865 0.37954 0.0
Sm240 Sm 0.39855 0.15928 0.69128 0.0
Sm241 Sm 0.33859 0.06672 0.70772 0.0
C242 C 0.45461 0.24256 0.68823 0.0
C243 C 0.48606 0.28917 0.68667 0.0
C244 C 0.5138 0.30978 0.71878 0.0
C245 C 0.53958 0.35463 0.71991 0.0
C246 C 0.5375 0.38025 0.6894 0.0
C247 C 0.51034 0.3592 0.65671 0.0
C248 C 0.48519 0.31418 0.65525 0.0
C249 C 0.35055 0.10944 0.62624 0.0
C250 C 0.44088 0.09758 0.69004 0.0
C251 C 0.27887 0.98409 0.70513 0.0
C252 C 0.2309 0.96143 0.70552 0.0
C253 C 0.20778 0.96253 0.67224 0.0
C254 C 0.16278 0.94194 0.67288 0.0
C255 C 0.13942 0.91964 0.70679 0.0
C256 C 0.16258 0.91862 0.74009 0.0
C257 C 0.20768 0.93913 0.73941 0.0
C258 C 0.37624 0.11097 0.77727 0.0
C259 C 0.30417 0.13404 0.71478 0.0
O260 O 0.43781 0.22274 0.72161 0.0
O261 O 0.44318 0.21778 0.6566 0.0
O262 O 0.36962 0.10042 0.65196 0.0
O263 O 0.35553 0.14722 0.63409 0.0
O264 O 0.44734 0.1369 0.68597 0.0
O265 O 0.40242 0.06435 0.69924 0.0
O266 O 0.29774 1.00679 0.67365 0.0
O267 O 0.29894 1.00345 0.7379 0.0
O268 O 0.39518 0.11709 0.744 0.0
O269 O 0.33518 0.08541 0.77236 0.0
O270 O 0.29408 0.09632 0.69907 0.0
O271 O 0.34418 0.16102 0.72405 0.0
H272 H 0.5151 0.29121 0.74339 0.0
H273 H 0.56092 0.36911 0.74502 0.0
H274 H 0.50725 0.37739 0.63277 0.0
H275 H 0.46358 0.29906 0.63037 0.0
H276 H 0.22438 0.97928 0.64548 0.0
H277 H 0.14629 0.94291 0.64639 0.0
H278 H 0.1459 0.90229 0.76696 0.0
H279 H 0.22444 0.93774 0.76554 0.0
Sm280 Sm 0.90439 0.24367 0.69335 0.0
Sm281 Sm 0.99708 0.27806 0.70243 0.0
C282 C 0.81911 0.19977 0.69884 0.0
C283 C 0.77459 0.18994 0.69088 0.0
C284 C 0.74663 0.18161 0.7232 0.0
C285 C 0.70306 0.16769 0.71707 0.0
C286 C 0.68637 0.16172 0.67836 0.0
C287 C 0.71457 0.17047 0.64593 0.0
C288 C 0.75823 0.18435 0.65211 0.0
C289 C 0.94889 0.25 0.62321 0.0
C290 C 0.95965 0.34388 0.67803 0.0
C291 C 0.08013 0.30342 0.69876 0.0
C292 C 0.10385 0.27922 0.69721 0.0
C293 C 0.11165 0.26437 0.66097 0.0
C294 C 0.13228 0.23988 0.66027 0.0
C295 C 0.14563 0.2296 0.6958 0.0
C296 C 0.13768 0.24449 0.73196 0.0
C297 C 0.11745 0.26918 0.73263 0.0
C298 C 0.96024 0.2829 0.77361 0.0
C299 C 0.93535 0.17898 0.7204 0.0
O300 O 0.84341 0.23116 0.7232 0.0
O301 O 0.84071 0.19305 0.67097 0.0
O302 O 0.9525 0.23519 0.65579 0.0
O303 O 0.91964 0.26117 0.62635 0.0
O304 O 0.92088 0.3122 0.68637 0.0
O305 O 0.99407 0.33879 0.67945 0.0
O306 O 0.05777 0.30172 0.66746 0.0
O307 O 0.0599 0.30069 0.73197 0.0
O308 O 0.95147 0.29116 0.73953 0.0
O309 O 0.98382 0.26507 0.76907 0.0
O310 O 0.97113 0.20468 0.70133 0.0
O311 O 0.90939 0.19324 0.73045 0.0
H312 H 0.7584 0.18519 0.75339 0.0
H313 H 0.68254 0.162 0.7427 0.0
H314 H 0.70276 0.16592 0.6157 0.0
H315 H 0.77892 0.19001 0.62662 0.0
H316 H 0.10175 0.27158 0.63311 0.0
H317 H 0.13833 0.22958 0.63179 0.0
H318 H 0.14665 0.23672 0.76004 0.0
H319 H 0.11199 0.27996 0.76113 0.0
Sm320 Sm 0.81243 0.6626 0.6786 0.0
Sm321 Sm 0.78543 0.72649 0.69476 0.0
C322 C 0.84693 0.61255 0.67511 0.0
C323 C 0.86584 0.58407 0.67377 0.0
C324 C 0.85337 0.55118 0.70186 0.0
C325 C 0.86907 0.52256 0.69944 0.0
C326 C 0.89788 0.5265 0.66918 0.0
C327 C 0.91164 0.56017 0.64188 0.0
C328 C 0.89574 0.58878 0.64415 0.0
C329 C 0.80037 0.70032 0.61117 0.0
C330 C 0.71155 0.62422 0.67286 0.0
C331 C 0.76308 0.78657 0.69499 0.0
C332 C 0.78792 0.83439 0.69542 0.0
C333 C 0.80012 0.85779 0.65981 0.0
C334 C 0.82476 0.9028 0.66053 0.0
C335 C 0.83776 0.92552 0.69686 0.0
C336 C 0.82539 0.90201 0.73241 0.0
C337 C 0.80065 0.85713 0.73171 0.0
C338 C 0.78083 0.68196 0.76326 0.0
C339 C 0.88464 0.7562 0.70891 0.0
O340 O 0.81821 0.60792 0.70172 0.0
O341 O 0.85694 0.64358 0.64974 0.0
O342 O 0.81985 0.71956 0.6426 0.0
O343 O 0.78801 0.65976 0.61444 0.0
O344 O 0.74166 0.61405 0.67764 0.0
O345 O 0.72011 0.66492 0.67495 0.0
O346 O 0.7645 0.76691 0.66251 0.0
O347 O 0.7652 0.76758 0.72711 0.0
O348 O 0.77074 0.66622 0.72853 0.0
O349 O 0.80045 0.72358 0.76061 0.0
O350 O 0.8597 0.77027 0.69491 0.0
O351 O 0.8689 0.71483 0.71401 0.0
H352 H 0.83059 0.54681 0.72516 0.0
H353 H 0.85763 0.49641 0.72046 0.0
H354 H 0.93323 0.56321 0.61787 0.0
H355 H 0.90602 0.61388 0.62215 0.0
H356 H 0.79071 0.84135 0.63133 0.0
H357 H 0.83308 0.91981 0.63257 0.0
H358 H 0.83523 0.91824 0.76095 0.0
H359 H 0.79184 0.84026 0.75976 0.0
H360 H 0.27495 0.44351 0.99114 0.0
H361 H 0.32031 0.54408 0.08052 0.0
H362 H 0.24697 0.52749 0.09343 0.0
H363 H 0.1714 0.48907 0.07655 0.0
H364 H 0.12375 0.39243 0.98397 0.0
H365 H 0.1964 0.40201 0.97573 0.0
C366 C 0.26877 0.46183 1.01337 0.0
C367 C 0.30344 0.49501 0.03492 0.0
C368 C 0.22613 0.45263 1.02026 0.0
C369 C 0.29456 0.51796 0.06396 0.0
C370 C 0.25254 0.50867 0.07126 0.0
C371 C 0.17667 0.46966 0.05474 0.0
C372 C 0.14238 0.44033 0.03063 0.0
C373 C 0.21831 0.47657 0.04929 0.0
C374 C 0.14958 0.41499 1.00306 0.0
C375 C 0.19122 0.42093 0.99806 0.0
H376 H 0.6245 0.85865 0.03368 0.0
H377 H 0.51595 0.79499 0.95416 0.0
H378 H 0.53157 0.73689 0.94356 0.0
H379 H 0.57043 0.70017 0.96267 0.0
H380 H 0.67697 0.76066 0.04414 0.0
H381 H 0.66835 0.82444 0.04787 0.0
C382 C 0.60446 0.83217 1.01384 0.0
C383 C 0.56887 0.83108 0.99493 0.0
C384 C 0.61337 0.79846 1.0082 0.0
C385 C 0.54366 0.7969 0.96882 0.0
C386 C 0.55244 0.76351 0.9629 0.0
C387 C 0.59253 0.7279 0.98037 0.0
C388 C 0.62443 0.72609 1.00289 0.0
C389 C 0.58653 0.76352 0.9831 0.0
C390 C 0.65273 0.76182 1.02598 0.0
C391 C 0.64733 0.79792 1.02852 0.0
H392 H 0.3437 0.89966 0.08017 0.0
H393 H 0.31326 0.93283 0.967 0.0
H394 H 0.25084 0.8597 0.96048 0.0
H395 H 0.21063 0.78401 0.98408 0.0
H396 H 0.24706 0.75217 0.09544 0.0
H397 H 0.30151 0.82709 0.10555 0.0
C398 C 0.32271 0.89114 0.05447 0.0
C399 C 0.3328 0.92133 1.02411 0.0
C400 C 0.2885 0.84902 0.05036 0.0
C401 C 0.30565 0.91019 0.99096 0.0
C402 C 0.27046 0.86822 0.98704 0.0
C403 C 0.23047 0.79351 1.01056 0.0
C404 C 0.22461 0.76223 0.03896 0.0
C405 C 0.26254 0.83692 1.01596 0.0
C406 C 0.25026 0.77535 0.07336 0.0
C407 C 0.28163 0.81825 0.07911 0.0
H408 H 0.5622 0.32433 0.03348 0.0
H409 H 0.43128 0.29725 0.04853 0.0
H410 H 0.45614 0.37371 0.05334 0.0
H411 H 0.51383 0.44785 0.05149 0.0
H412 H 0.64507 0.4776 0.03314 0.0
H413 H 0.62124 0.40049 0.03149 0.0
C414 C 0.53914 0.33521 0.03762 0.0
C415 C 0.49488 0.30483 0.04107 0.0
C416 C 0.55366 0.37967 0.0399 0.0
C417 C 0.46554 0.31964 0.04665 0.0
C418 C 0.47969 0.36346 0.04916 0.0
C419 C 0.53752 0.43775 0.04745 0.0
C420 C 0.58128 0.46863 0.0426 0.0
C421 C 0.52356 0.39368 0.04579 0.0
C422 C 0.61122 0.45458 0.03719 0.0
C423 C 0.59756 0.41047 0.03604 0.0
H424 H 0.60026 0.18106 1.02903 0.0
H425 H 0.60199 0.07441 0.08593 0.0
H426 H 0.67968 0.11428 0.08809 0.0
H427 H 0.74762 0.17724 0.07132 0.0
H428 H 0.74891 0.28714 1.01877 0.0
H429 H 0.67027 0.24797 1.01683 0.0
C430 C 0.61766 0.16686 0.04237 0.0
C431 C 0.59482 0.12459 0.05714 0.0
C432 C 0.66319 0.19028 0.04388 0.0
C433 C 0.61819 0.10677 0.07423 0.0
C434 C 0.66294 0.12951 0.07543 0.0
C435 C 0.73101 0.19325 0.06015 0.0
C436 C 0.75473 0.23525 0.04514 0.0
C437 C 0.68581 0.17103 0.05999 0.0
C438 C 0.73192 0.25457 1.02989 0.0
C439 C 0.68674 0.23229 1.02906 0.0
H440 H 0.97513 0.55391 0.04819 0.0
H441 H 0.87107 0.42235 0.0481 0.0
H442 H 0.81872 0.44757 0.047 0.0
H443 H 0.80303 0.50778 0.04618 0.0
H444 H 0.90931 0.63842 0.04193 0.0
H445 H 0.9601 0.61255 0.04497 0.0
C446 C 0.94101 0.53049 0.04826 0.0
C447 C 0.92711 0.48621 0.04871 0.0
C448 C 0.9114 0.54515 0.04686 0.0
C449 C 0.88269 0.45661 0.04807 0.0
C450 C 0.85278 0.47106 0.04733 0.0
C451 C 0.83728 0.53057 0.04557 0.0
C452 C 0.85205 0.57521 0.04452 0.0
C453 C 0.86679 0.51537 0.04661 0.0
C454 C 0.89671 0.60408 0.04387 0.0
C455 C 0.92595 0.58929 0.04529 0.0
H456 H 0.84629 0.83704 0.40464 0.0
H457 H 0.79389 0.71477 0.34398 0.0
H458 H 0.86596 0.72217 0.34204 0.0
H459 H 0.94496 0.76708 0.35284 0.0
H460 H 0.9953 0.89085 0.41098 0.0
H461 H 0.92274 0.87912 0.41868 0.0
C462 C 0.85049 0.81173 0.39125 0.0
C463 C 0.81502 0.77562 0.37406 0.0
C464 C 0.89172 0.81674 0.38955 0.0
C465 C 0.82073 0.74276 0.35752 0.0
C466 C 0.86198 0.74726 0.3561 0.0
C467 C 0.94 0.79145 0.36721 0.0
C468 C 0.97576 0.82991 0.38127 0.0
C469 C 0.89792 0.78471 0.37114 0.0
C470 C 0.96859 0.8608 0.40035 0.0
C471 C 0.92706 0.85424 0.40456 0.0
H472 H 0.29294 0.19212 0.3418 0.0
H473 H 0.16355 0.11528 0.38729 0.0
H474 H 0.17446 0.05424 0.39398 0.0
H475 H 0.21847 0.0222 0.38634 0.0
H476 H 0.34703 0.09356 0.3381 0.0
H477 H 0.33876 0.15772 0.33338 0.0
C478 C 0.26717 0.16193 0.35305 0.0
C479 C 0.22756 0.15862 0.36457 0.0
C480 C 0.27348 0.12622 0.35643 0.0
C481 C 0.19461 0.11927 0.37916 0.0
C482 C 0.2007 0.08415 0.38273 0.0
C483 C 0.24512 0.05154 0.37461 0.0
C484 C 0.28337 0.05274 0.36231 0.0
C485 C 0.23981 0.08731 0.37147 0.0
C486 C 0.31724 0.0916 0.34776 0.0
C487 C 0.31237 0.12816 0.34496 0.0
H488 H 1.0188 0.22646 0.40967 0.0
H489 H 0.97991 0.26669 0.30517 0.0
H490 H 0.91865 0.19326 0.29642 0.0
H491 H 0.8811 0.11586 0.31513 0.0
H492 H 0.92422 0.07746 0.41849 0.0
H493 H 0.97888 0.15194 0.43102 0.0
C494 C 0.99642 0.21936 0.38533 0.0
C495 C 1.00385 0.25179 0.35798 0.0
C496 C 0.96242 0.1772 0.38003 0.0
C497 C 0.97457 0.24235 0.3268 0.0
C498 C 0.93994 0.20024 0.32158 0.0
C499 C 0.90241 0.12384 0.34045 0.0
C500 C 0.89847 0.0908 0.36577 0.0
C501 C 0.93436 0.16707 0.34736 0.0
C502 C 0.92601 0.10197 0.39876 0.0
C503 C 0.95751 0.14463 0.40587 0.0
H504 H 0.2049 0.78128 0.4243 0.0
H505 H 0.30296 0.80567 0.33715 0.0
H506 H 0.27482 0.72809 0.32945 0.0
H507 H 0.21833 0.6532 0.34371 0.0
H508 H 0.1223 0.63037 0.43305 0.0
H509 H 0.15332 0.70742 0.44311 0.0
C510 C 0.22055 0.76966 0.40404 0.0
C511 C 0.2559 0.79914 0.38129 0.0
C512 C 0.20405 0.72522 0.39961 0.0
C513 C 0.27596 0.78364 0.3553 0.0
C514 C 0.25959 0.73925 0.35062 0.0
C515 C 0.20451 0.66498 0.3658 0.0
C516 C 0.16726 0.63566 0.3869 0.0
C517 C 0.22305 0.70968 0.37206 0.0
C518 C 0.14998 0.65189 0.41535 0.0
C519 C 0.16798 0.69607 0.42149 0.0
H520 H 0.2842 0.42373 0.38886 0.0
H521 H 0.25573 0.52626 0.37395 0.0
H522 H 0.33312 0.57915 0.37588 0.0
H523 H 0.40953 0.59559 0.37899 0.0
H524 H 0.43474 0.49068 0.3933 0.0
H525 H 0.358 0.43957 0.39394 0.0
C526 C 0.29457 0.45764 0.38628 0.0
C527 C 0.26388 0.47084 0.38128 0.0
C528 C 0.3388 0.48755 0.38691 0.0
C529 C 0.27848 0.51506 0.37785 0.0
C530 C 0.32279 0.54531 0.37887 0.0
C531 C 0.39816 0.5616 0.38267 0.0
C532 C 0.42821 0.54712 0.3856 0.0
C533 C 0.35339 0.53189 0.38302 0.0
C534 C 0.41269 0.50284 0.39016 0.0
C535 C 0.36867 0.47347 0.39078 0.0
H536 H 0.54502 0.91676 0.41496 0.0
H537 H 0.46238 0.83673 0.32019 0.0
H538 H 0.5015 0.79711 0.31764 0.0
H539 H 0.56154 0.78676 0.34111 0.0
H540 H 0.64211 0.86715 0.43674 0.0
H541 H 0.60051 0.90366 0.44102 0.0
C542 C 0.5348 0.89015 0.39418 0.0
C543 C 0.5006 0.88005 0.36783 0.0
C544 C 0.55699 0.86708 0.39323 0.0
C545 C 0.48894 0.84595 0.3405 0.0
C546 C 0.5111 0.82291 0.33924 0.0
C547 C 0.56926 0.8116 0.36339 0.0
C548 C 0.60488 0.82409 0.38862 0.0
C549 C 0.54543 0.8333 0.36534 0.0
C550 C 0.61493 0.85689 0.41692 0.0
C551 C 0.59126 0.878 0.41931 0.0
H552 H 0.61539 0.10078 0.7188 0.0
H553 H 0.65335 0.19264 0.62353 0.0
H554 H 0.57894 0.17485 0.61487 0.0
H555 H 0.50477 0.13886 0.63805 0.0
H556 H 0.46539 0.04998 0.73546 0.0
H557 H 0.53844 0.06017 0.73914 0.0
C558 C 0.60732 0.11681 0.69608 0.0
C559 C 0.64017 0.14816 0.67189 0.0
C560 C 0.5642 0.10675 0.69151 0.0
C561 C 0.62893 0.1681 0.64224 0.0
C562 C 0.58633 0.1581 0.63738 0.0
C563 C 0.51193 0.12095 0.65956 0.0
C564 C 0.47986 0.09366 0.68641 0.0
C565 C 0.55395 0.1281 0.66223 0.0
C566 C 0.48941 0.07063 0.71409 0.0
C567 C 0.53132 0.07701 0.71652 0.0
H568 H 0.89855 0.35392 0.64366 0.0
H569 H 1.02534 0.42697 0.69453 0.0
H570 H 1.01906 0.49232 0.6934 0.0
H571 H 0.97292 0.52617 0.68488 0.0
H572 H 0.844 0.4484 0.63964 0.0
H573 H 0.85516 0.38696 0.63241 0.0
C574 C 0.92521 0.38425 0.65408 0.0
C575 C 0.96227 0.38557 0.66939 0.0
C576 C 0.92044 0.4206 0.65502 0.0
C577 C 0.99663 0.42519 0.68228 0.0
C578 C 0.99272 0.46236 0.68212 0.0
C579 C 0.94771 0.49581 0.67301 0.0
C580 C 0.90766 0.49148 0.6627 0.0
C581 C 0.95415 0.46012 0.66968 0.0
C582 C 0.87494 0.45217 0.64766 0.0
C583 C 0.88135 0.41716 0.6435 0.0
H584 H 0.65776 0.57766 0.7314 0.0
H585 H 0.6718 0.58502 0.60414 0.0
H586 H 0.61657 0.5095 0.59762 0.0
H587 H 0.57345 0.43892 0.62877 0.0
H588 H 0.55897 0.43129 0.75656 0.0
H589 H 0.60599 0.50872 0.76215 0.0
C590 C 0.64701 0.56318 0.70219 0.0
C591 C 0.66776 0.58736 0.66821 0.0
C592 C 0.61653 0.51905 0.69884 0.0
C593 C 0.65511 0.56775 0.63062 0.0
C594 C 0.62416 0.52415 0.62696 0.0
C595 C 0.57951 0.45403 0.65787 0.0
C596 C 0.56313 0.42848 0.69219 0.0
C597 C 0.60599 0.49904 0.66097 0.0
C598 C 0.57214 0.44938 0.72954 0.0
C599 C 0.59867 0.49398 0.73284 0.0
H600 H 0.8293 0.97981 0.74848 0.0
H601 H 0.90367 0.97949 0.64729 0.0
H602 H 0.9435 0.05814 0.64771 0.0
H603 H 0.95487 0.12736 0.67511 0.0
H604 H 0.87935 0.12628 0.77585 0.0
H605 H 0.84349 0.04802 0.77812 0.0
C606 C 0.85474 0.99679 0.72691 0.0
C607 C 0.86327 0.97352 0.69786 0.0
C608 C 0.87767 0.04196 0.72744 0.0
C609 C 0.89584 0.99641 0.66966 0.0
C610 C 0.91892 0.04146 0.67006 0.0
C611 C 0.9313 0.10997 0.69809 0.0
C612 C 0.91998 0.13261 0.72543 0.0
C613 C 0.90988 0.06464 0.69863 0.0
C614 C 0.88873 0.10961 0.75455 0.0
C615 C 0.86801 0.06482 0.75574 0.0
H616 H 0.93751 0.83917 0.68317 0.0
H617 H 0.93734 0.73786 0.75153 0.0
H618 H 1.01513 0.77961 0.75784 0.0
H619 H 0.0839 0.84229 0.74037 0.0
H620 H 0.08582 0.945 0.67308 0.0
H621 H 1.00727 0.9052 0.66959 0.0
C622 C 0.95446 0.8266 0.69999 0.0
C623 C 0.93135 0.78526 0.71667 0.0
C624 C 0.9998 0.85076 0.70325 0.0
C625 C 0.95406 0.76941 0.73812 0.0
C626 C 0.99874 0.79325 0.74174 0.0
C627 C 0.0673 0.85651 0.72555 0.0
C628 C 0.09118 0.89664 0.70685 0.0
C629 C 1.02205 0.83361 0.72387 0.0
C630 C 0.06862 0.91386 0.68718 0.0
C631 C 1.02353 0.89122 0.68538 0.0
H632 H 0.23118 0.1123 0.67106 0.0
H633 H 0.30841 0.192 0.76863 0.0
H634 H 0.26637 0.22806 0.77136 0.0
H635 H 0.21164 0.24104 0.7435 0.0
H636 H 0.13203 0.1616 0.64697 0.0
H637 H 0.17152 0.12228 0.64584 0.0
C638 C 0.23804 0.13686 0.69343 0.0
C639 C 0.27289 0.14935 0.71961 0.0
C640 C 0.21393 0.15825 0.69455 0.0
C641 C 0.28185 0.18177 0.74804 0.0
C642 C 0.25794 0.20263 0.74957 0.0
C643 C 0.20213 0.21458 0.72266 0.0
C644 C 0.16873 0.20451 0.69541 0.0
C645 C 0.22448 0.19174 0.72254 0.0
C646 C 0.15798 0.17069 0.66798 0.0
C647 C 0.18035 0.14787 0.66753 0.0
H648 H 0.1637 0.44592 0.24206 0.0
H649 H 0.04658 0.3286 0.26942 0.0
H650 H 1.00693 0.34668 0.22216 0.0
H651 H 1.00578 0.39282 0.16987 0.0
H652 H 0.12352 0.50566 0.13484 0.0
H653 H 0.16243 0.49274 0.1879 0.0
C654 C 0.12945 0.42463 0.23778 0.0
C655 C 0.10808 0.38602 0.25951 0.0
C656 C 0.10689 0.43449 0.20902 0.0
C657 C 0.06382 0.35845 0.25322 0.0
C658 C 0.04106 0.3688 0.22613 0.0
C659 C 0.03978 0.41526 0.17427 0.0
C660 C 0.0614 0.45082 0.14874 0.0
C661 C 0.06226 0.40641 0.2035 0.0
C662 C 0.10582 0.47856 0.15442 0.0
C663 C 0.12817 0.47093 0.18461 0.0
H664 H 0.63842 0.76607 0.22074 0.0
H665 H 0.68771 0.69859 0.28884 0.0
H666 H 0.66371 0.64285 0.23859 0.0
H667 H 0.63317 0.61443 0.1736 0.0
H668 H 0.58693 0.68141 0.1014 0.0
H669 H 0.60436 0.73492 0.15451 0.0
C670 C 0.64355 0.73901 0.22456 0.0
C671 C 0.66467 0.73673 0.25897 0.0
C672 C 0.63006 0.70652 0.19467 0.0
C673 C 0.6713 0.7014 0.26309 0.0
C674 C 0.6576 0.66922 0.23422 0.0
C675 C 0.62609 0.64024 0.16964 0.0
C676 C 0.6086 0.64356 0.13347 0.0
C677 C 0.63737 0.67155 0.19975 0.0
C678 C 0.6 0.6776 0.12902 0.0
C679 C 0.6104 0.70858 0.15933 0.0
H680 H 0.43284 0.9685 0.16511 0.0
H681 H 0.39287 0.05819 0.1289 0.0
H682 H 0.33792 0.03212 0.1803 0.0
H683 H 0.30075 0.98434 0.23601 0.0
H684 H 0.34222 0.89745 0.27681 0.0
H685 H 0.39668 0.92178 0.22398 0.0
C686 C 0.41236 0.98253 0.16891 0.0
C687 C 0.41752 1.01577 0.14346 0.0
C688 C 0.38079 0.96772 0.19941 0.0
C689 C 0.39029 0.03322 0.14844 0.0
C690 C 0.35853 1.01812 0.17776 0.0
C691 C 0.32153 0.97052 0.2332 0.0
C692 C 0.31706 0.93878 0.26002 0.0
C693 C 0.35342 0.98544 0.20342 0.0
C694 C 0.34474 0.92171 0.25631 0.0
C695 C 0.376 0.93571 0.22612 0.0
H696 H 0.4926 0.1043 0.91676 0.0
H697 H 0.38385 0.97572 0.92461 0.0
H698 H 0.34627 0.99206 0.87366 0.0
H699 H 0.34474 0.04112 0.82486 0.0
H700 H 0.45543 0.16713 0.80965 0.0
H701 H 0.49163 0.15387 0.86518 0.0
C702 C 0.4607 0.07997 0.90721 0.0
C703 C 0.44115 0.03871 0.92456 0.0
C704 C 0.43951 0.08923 0.87658 0.0
C705 C 0.39986 1.00752 0.91169 0.0
C706 C 0.3782 1.01691 0.88257 0.0
C707 C 0.37649 0.06614 0.83406 0.0
C708 C 0.39686 0.10561 0.81363 0.0
C709 C 0.39773 0.05747 0.86463 0.0
C710 C 0.43866 0.13685 0.82528 0.0
C711 C 0.45945 0.12909 0.85689 0.0
H712 H 0.05922 0.4374 0.89377 0.0
H713 H 0.93451 0.38252 0.94882 0.0
H714 H 0.90409 0.32631 0.89706 0.0
H715 H 0.91407 0.2918 0.8358 0.0
H716 H 0.03939 0.35072 0.78074 0.0
H717 H 0.06822 0.40643 0.83197 0.0
C718 C 1.02531 0.4133 0.89434 0.0
C719 C 0.99925 0.41348 0.92561 0.0
C720 C 1.00815 0.38175 0.86416 0.0
C721 C 0.95533 0.38225 0.92561 0.0
C722 C 0.93795 0.35034 0.89583 0.0
C723 C 0.94757 0.31696 0.83516 0.0
C724 C 0.97477 0.31676 0.80486 0.0
C725 C 0.96416 0.34945 0.86499 0.0
C726 C 1.01803 0.3498 0.8041 0.0
C727 C 0.03457 0.38179 0.83335 0.0
H728 H 0.77982 0.6441 0.83505 0.0
H729 H 0.70469 0.67807 0.75972 0.0
H730 H 0.64745 0.65214 0.80922 0.0
H731 H 0.6195 0.62256 0.87493 0.0
H732 H 0.69122 0.58467 0.95028 0.0
H733 H 0.74868 0.60914 0.90037 0.0
C734 C 0.75077 0.64547 0.82959 0.0
C735 C 0.74652 0.66314 0.79387 0.0
C736 C 0.71741 0.63002 0.85835 0.0
C737 C 0.70865 0.66464 0.78703 0.0
C738 C 0.6759 0.64987 0.81534 0.0
C739 C 0.64756 0.61936 0.88034 0.0
C740 C 0.65139 0.60243 0.91657 0.0
C741 C 0.68003 0.6329 0.85125 0.0
C742 C 0.6878 0.59817 0.92288 0.0
C743 C 0.72065 0.61211 0.89425 0.0
H744 H 0.67402 0.72711 0.50054 0.0
H745 H 0.7912 0.84175 0.46763 0.0
H746 H 0.83078 0.82644 0.51828 0.0
H747 H 0.83286 0.77654 0.56907 0.0
H748 H 0.71608 0.65782 0.59302 0.0
H749 H 0.6759 0.67843 0.54924 0.0
C750 C 0.70804 0.7495 0.50487 0.0
C751 C 0.72923 0.78621 0.48059 0.0
C752 C 0.73096 0.7392 0.53241 0.0
C753 C 0.77372 0.8138 0.4863 0.0
C754 C 0.79649 0.80474 0.51506 0.0
C755 C 0.79859 0.75545 0.56477 0.0
C756 C 0.77747 0.71551 0.58459 0.0
C757 C 0.77564 0.76697 0.53784 0.0
C758 C 0.73316 0.68846 0.57828 0.0
C759 C 0.71007 0.70035 0.55319 0.0
H760 H 0.27653 1.01341 0.46031 0.0
H761 H 0.30009 0.92025 0.51818 0.0
H762 H 0.32237 0.96429 0.57839 0.0
H763 H 0.3427 0.03199 0.61195 0.0
H764 H 0.31632 0.12498 0.5585 0.0
H765 H 0.28899 0.07904 0.49859 0.0
C766 C 0.28546 1.00223 0.48645 0.0
C767 C 0.28667 0.96334 0.48454 0.0
C768 C 0.29877 0.02819 0.52134 0.0
C769 C 0.2988 0.94979 0.51868 0.0
C770 C 0.3119 0.97518 0.55309 0.0
C771 C 0.32966 0.04182 0.5879 0.0
C772 C 0.331 0.08173 0.59022 0.0
C773 C 0.3131 1.01485 0.55438 0.0
C774 C 0.31547 0.09439 0.55778 0.0
C775 C 0.2998 0.06801 0.52353 0.0
H776 H 0.96037 0.30309 0.56123 0.0
H777 H 1.01103 0.22774 0.61193 0.0
H778 H 0.06741 0.25351 0.5609 0.0
H779 H 0.10402 0.29965 0.50175 0.0
H780 H 0.05183 0.37456 0.45292 0.0
H781 H 0.99519 0.34715 0.50264 0.0
C782 C 0.9835 0.29199 0.56095 0.0
C783 C 0.98127 0.26342 0.59042 0.0
C784 C 1.01622 0.30739 0.53178 0.0
C785 C 1.01184 0.24968 0.5896 0.0
C786 C 0.04428 0.26456 0.56043 0.0
C787 C 0.08036 0.31005 0.50227 0.0
C788 C 0.08304 0.34012 0.47404 0.0
C789 C 0.04716 0.29383 0.53142 0.0
C790 C 0.05148 0.35253 0.47478 0.0
C791 C 1.01868 0.33655 0.50315 0.0
loop_
_geom_bond_atom_site_label_1
_geom_bond_atom_site_label_2
_geom_bond_distance
_geom_bond_site_symmetry_2
_ccdc_geom_bond_type
Sm0 C2 2.846 . S
Sm0 O20 2.543 1_556 S
Sm0 O21 2.450 . S
Sm0 O22 2.681 1_455 S
Sm0 O23 2.464 . S
Sm0 O24 2.396 . S
Sm0 O28 2.386 1_556 S
Sm0 O31 2.408 1_456 S
Sm1 C11 2.846 . S
Sm1 O22 2.386 1_554 S
Sm1 O25 2.408 1_654 S
Sm1 O26 2.543 1_554 S
Sm1 O27 2.450 . S
Sm1 O28 2.681 1_655 S
Sm1 O29 2.464 . S
Sm1 O30 2.396 . S
C2 Sm0 2.846 . S
C2 C3 1.506 . S
C2 O20 1.261 1_556 S
C2 O21 1.242 . S
C3 C2 1.506 . S
C3 C4 1.358 1_556 S
C3 C8 1.382 . S
C4 C3 1.358 1_554 S
C4 C5 1.385 . S
C4 H32 0.930 . S
C5 C4 1.385 . S
C5 C6 1.395 1_554 S
C5 H33 0.929 . S
C6 C5 1.395 1_556 S
C6 C7 1.335 . S
C7 C6 1.335 . S
C7 C8 1.398 . S
C7 H34 0.930 . S
C8 C3 1.382 . S
C8 C7 1.398 . S
C8 H35 0.929 . S
C9 O22 1.271 . S
C9 O23 1.251 1_655 S
C10 O24 1.252 . S
C10 O25 1.271 . S
C11 Sm1 2.846 . S
C11 C12 1.506 . S
C11 O26 1.261 1_554 S
C11 O27 1.242 . S
C12 C11 1.506 . S
C12 C13 1.358 1_554 S
C12 C17 1.382 . S
C13 C12 1.358 1_556 S
C13 C14 1.385 . S
C13 H36 0.930 . S
C14 C13 1.385 . S
C14 C15 1.395 1_556 S
C14 H37 0.929 . S
C15 C14 1.395 1_554 S
C15 C16 1.335 . S
C16 C15 1.335 . S
C16 C17 1.398 . S
C16 H38 0.930 . S
C17 C12 1.382 . S
C17 C16 1.398 . S
C17 H39 0.929 . S
C18 O28 1.271 . S
C18 O29 1.251 1_455 S
C19 O30 1.252 . S
C19 O31 1.272 . S
O20 Sm0 2.543 1_554 S
O20 C2 1.261 1_554 S
O21 Sm0 2.450 . S
O21 C2 1.242 . S
O22 Sm0 2.681 1_655 S
O22 Sm1 2.386 1_556 S
O22 C9 1.271 . S
O23 Sm0 2.464 . S
O23 C9 1.251 1_455 S
O24 Sm0 2.396 . S
O24 C10 1.252 . S
O25 Sm1 2.408 1_456 S
O25 C10 1.271 . S
O26 Sm1 2.543 1_556 S
O26 C11 1.261 1_556 S
O27 Sm1 2.450 . S
O27 C11 1.242 . S
O28 Sm0 2.386 1_554 S
O28 Sm1 2.681 1_455 S
O28 C18 1.271 . S
O29 Sm1 2.464 . S
O29 C18 1.251 1_655 S
O30 Sm1 2.396 . S
O30 C19 1.252 . S
O31 Sm0 2.408 1_654 S
O31 C19 1.272 . S
H32 C4 0.930 . S
H33 C5 0.929 . S
H34 C7 0.930 . S
H35 C8 0.929 . S
H36 C13 0.930 . S
H37 C14 0.929 . S
H38 C16 0.930 . S
H39 C17 0.929 . S
Sm40 C42 2.846 . S
Sm40 O60 2.543 1_556 S
Sm40 O61 2.450 . S
Sm40 O62 2.681 . S
Sm40 O63 2.464 . S
Sm40 O64 2.396 . S
Sm40 O68 2.386 1_556 S
Sm40 O71 2.408 1_556 S
Sm41 C51 2.846 . S
Sm41 O62 2.386 1_554 S
Sm41 O65 2.408 1_554 S
Sm41 O66 2.543 1_554 S
Sm41 O67 2.450 . S
Sm41 O68 2.681 . S
Sm41 O69 2.464 . S
Sm41 O70 2.396 . S
C42 Sm40 2.846 . S
C42 C43 1.506 . S
C42 O60 1.261 1_556 S
C42 O61 1.242 . S
C43 C42 1.506 . S
C43 C44 1.358 1_556 S
C43 C48 1.382 . S
C44 C43 1.358 1_554 S
C44 C45 1.385 . S
C44 H72 0.930 . S
C45 C44 1.385 . S
C45 C46 1.395 1_554 S
C45 H73 0.929 . S
C46 C45 1.395 1_556 S
C46 C47 1.335 . S
C47 C46 1.335 . S
C47 C48 1.398 . S
C47 H74 0.930 . S
C48 C43 1.382 . S
C48 C47 1.398 . S
C48 H75 0.929 . S
C49 O62 1.271 . S
C49 O63 1.251 . S
C50 O64 1.252 . S
C50 O65 1.271 . S
C51 Sm41 2.846 . S
C51 C52 1.506 . S
C51 O66 1.261 1_554 S
C51 O67 1.242 . S
C52 C51 1.506 . S
C52 C53 1.358 1_554 S
C52 C57 1.382 . S
C53 C52 1.358 1_556 S
C53 C54 1.385 . S
C53 H76 0.930 . S
C54 C53 1.385 . S
C54 C55 1.395 1_556 S
C54 H77 0.929 . S
C55 C54 1.395 1_554 S
C55 C56 1.335 . S
C56 C55 1.335 . S
C56 C57 1.398 . S
C56 H78 0.930 . S
C57 C52 1.382 . S
C57 C56 1.398 . S
C57 H79 0.929 . S
C58 O68 1.271 . S
C58 O69 1.251 . S
C59 O70 1.252 . S
C59 O71 1.272 . S
O60 Sm40 2.543 1_554 S
O60 C42 1.261 1_554 S
O61 Sm40 2.450 . S
O61 C42 1.242 . S
O62 Sm40 2.681 . S
O62 Sm41 2.386 1_556 S
O62 C49 1.271 . S
O63 Sm40 2.464 . S
O63 C49 1.251 . S
O64 Sm40 2.396 . S
O64 C50 1.252 . S
O65 Sm41 2.408 1_556 S
O65 C50 1.271 . S
O66 Sm41 2.543 1_556 S
O66 C51 1.261 1_556 S
O67 Sm41 2.450 . S
O67 C51 1.242 . S
O68 Sm40 2.386 1_554 S
O68 Sm41 2.681 . S
O68 C58 1.271 . S
O69 Sm41 2.464 . S
O69 C58 1.251 . S
O70 Sm41 2.396 . S
O70 C59 1.252 . S
O71 Sm40 2.408 1_554 S
O71 C59 1.272 . S
H72 C44 0.930 . S
H73 C45 0.929 . S
H74 C47 0.930 . S
H75 C48 0.929 . S
H76 C53 0.930 . S
H77 C54 0.929 . S
H78 C56 0.930 . S
H79 C57 0.929 . S
Sm80 C82 2.846 . S
Sm80 O100 2.543 1_556 S
Sm80 O101 2.450 . S
Sm80 O102 2.681 1_565 S
Sm80 O103 2.464 . S
Sm80 O104 2.396 . S
Sm80 O108 2.386 1_556 S
Sm80 O111 2.408 1_566 S
Sm81 C91 2.846 . S
Sm81 O102 2.386 1_554 S
Sm81 O105 2.408 1_544 S
Sm81 O106 2.543 1_554 S
Sm81 O107 2.450 . S
Sm81 O108 2.681 1_545 S
Sm81 O109 2.464 . S
Sm81 O110 2.396 . S
C82 Sm80 2.846 . S
C82 C83 1.506 . S
C82 O100 1.261 1_556 S
C82 O101 1.242 . S
C83 C82 1.506 . S
C83 C84 1.358 1_556 S
C83 C88 1.382 . S
C84 C83 1.358 1_554 S
C84 C85 1.385 . S
C84 H112 0.930 . S
C85 C84 1.385 . S
C85 C86 1.395 1_554 S
C85 H113 0.929 . S
C86 C85 1.395 1_556 S
C86 C87 1.335 . S
C87 C86 1.335 . S
C87 C88 1.398 . S
C87 H114 0.930 . S
C88 C83 1.382 . S
C88 C87 1.398 . S
C88 H115 0.929 . S
C89 O102 1.271 . S
C89 O103 1.251 1_545 S
C90 O104 1.252 . S
C90 O105 1.271 . S
C91 Sm81 2.846 . S
C91 C92 1.506 . S
C91 O106 1.261 1_554 S
C91 O107 1.242 . S
C92 C91 1.506 . S
C92 C93 1.358 1_554 S
C92 C97 1.382 . S
C93 C92 1.358 1_556 S
C93 C94 1.385 . S
C93 H116 0.930 . S
C94 C93 1.385 . S
C94 C95 1.395 1_556 S
C94 H117 0.929 . S
C95 C94 1.395 1_554 S
C95 C96 1.335 . S
C96 C95 1.335 . S
C96 C97 1.398 . S
C96 H118 0.930 . S
C97 C92 1.382 . S
C97 C96 1.398 . S
C97 H119 0.929 . S
C98 O108 1.271 . S
C98 O109 1.251 1_565 S
C99 O110 1.252 . S
C99 O111 1.272 . S
O100 Sm80 2.543 1_554 S
O100 C82 1.261 1_554 S
O101 Sm80 2.450 . S
O101 C82 1.242 . S
O102 Sm80 2.681 1_545 S
O102 Sm81 2.386 1_556 S
O102 C89 1.271 . S
O103 Sm80 2.464 . S
O103 C89 1.251 1_565 S
O104 Sm80 2.396 . S
O104 C90 1.252 . S
O105 Sm81 2.408 1_566 S
O105 C90 1.271 . S
O106 Sm81 2.543 1_556 S
O106 C91 1.261 1_556 S
O107 Sm81 2.450 . S
O107 C91 1.242 . S
O108 Sm80 2.386 1_554 S
O108 Sm81 2.681 1_565 S
O108 C98 1.271 . S
O109 Sm81 2.464 . S
O109 C98 1.251 1_545 S
O110 Sm81 2.396 . S
O110 C99 1.252 . S
O111 Sm80 2.408 1_544 S
O111 C99 1.272 . S
H112 C84 0.930 . S
H113 C85 0.929 . S
H114 C87 0.930 . S
H115 C88 0.929 . S
H116 C93 0.930 . S
H117 C94 0.929 . S
H118 C96 0.930 . S
H119 C97 0.929 . S
Sm120 C122 2.846 . S
Sm120 O140 2.543 . S
Sm120 O141 2.450 . S
Sm120 O142 2.681 . S
Sm120 O143 2.464 . S
Sm120 O144 2.396 . S
Sm120 O148 2.386 . S
Sm120 O151 2.408 . S
Sm121 C131 2.846 . S
Sm121 O142 2.386 . S
Sm121 O145 2.408 . S
Sm121 O146 2.543 . S
Sm121 O147 2.450 . S
Sm121 O148 2.681 . S
Sm121 O149 2.464 . S
Sm121 O150 2.396 . S
C122 Sm120 2.846 . S
C122 C123 1.506 . S
C122 O140 1.261 . S
C122 O141 1.242 . S
C123 C122 1.506 . S
C123 C124 1.358 . S
C123 C128 1.382 . S
C124 C123 1.358 . S
C124 C125 1.385 . S
C124 H152 0.930 . S
C125 C124 1.385 . S
C125 C126 1.395 1_565 S
C125 H153 0.929 . S
C126 C125 1.395 1_545 S
C126 C127 1.335 . S
C127 C126 1.335 . S
C127 C128 1.398 1_545 S
C127 H154 0.930 . S
C128 C123 1.382 . S
C128 C127 1.398 1_565 S
C128 H155 0.929 . S
C129 O142 1.271 . S
C129 O143 1.251 . S
C130 O144 1.252 . S
C130 O145 1.272 . S
C131 Sm121 2.846 . S
C131 C132 1.506 . S
C131 O146 1.261 . S
C131 O147 1.242 . S
C132 C131 1.506 . S
C132 C133 1.358 . S
C132 C137 1.382 . S
C133 C132 1.358 . S
C133 C134 1.385 . S
C133 H156 0.930 . S
C134 C133 1.385 . S
C134 C135 1.395 . S
C134 H157 0.929 . S
C135 C134 1.395 . S
C135 C136 1.335 . S
C136 C135 1.335 . S
C136 C137 1.398 . S
C136 H158 0.930 . S
C137 C132 1.382 . S
C137 C136 1.398 . S
C137 H159 0.929 . S
C138 O148 1.271 . S
C138 O149 1.251 . S
C139 O150 1.252 . S
C139 O151 1.272 . S
O140 Sm120 2.543 . S
O140 C122 1.261 . S
O141 Sm120 2.450 . S
O141 C122 1.242 . S
O142 Sm120 2.681 . S
O142 Sm121 2.386 . S
O142 C129 1.271 . S
O143 Sm120 2.464 . S
O143 C129 1.251 . S
O144 Sm120 2.396 . S
O144 C130 1.252 . S
O145 Sm121 2.408 . S
O145 C130 1.272 . S
O146 Sm121 2.543 . S
O146 C131 1.261 . S
O147 Sm121 2.450 . S
O147 C131 1.242 . S
O148 Sm120 2.386 . S
O148 Sm121 2.681 . S
O148 C138 1.271 . S
O149 Sm121 2.464 . S
O149 C138 1.251 . S
O150 Sm121 2.396 . S
O150 C139 1.252 . S
O151 Sm120 2.408 . S
O151 C139 1.272 . S
H152 C124 0.930 . S
H153 C125 0.929 . S
H154 C127 0.930 . S
H155 C128 0.929 . S
H156 C133 0.930 . S
H157 C134 0.929 . S
H158 C136 0.930 . S
H159 C137 0.929 . S
Sm160 C162 2.846 . S
Sm160 O180 2.543 . S
Sm160 O181 2.450 . S
Sm160 O182 2.681 . S
Sm160 O183 2.464 . S
Sm160 O184 2.396 . S
Sm160 O188 2.386 . S
Sm160 O191 2.408 . S
Sm161 C171 2.846 . S
Sm161 O182 2.386 . S
Sm161 O185 2.408 . S
Sm161 O186 2.543 . S
Sm161 O187 2.450 . S
Sm161 O188 2.681 . S
Sm161 O189 2.464 . S
Sm161 O190 2.396 . S
C162 Sm160 2.846 . S
C162 C163 1.506 . S
C162 O180 1.261 . S
C162 O181 1.242 . S
C163 C162 1.506 . S
C163 C164 1.358 . S
C163 C168 1.382 . S
C164 C163 1.358 . S
C164 C165 1.385 . S
C164 H192 0.930 . S
C165 C164 1.385 . S
C165 C166 1.395 1_455 S
C165 H193 0.929 . S
C166 C165 1.395 1_655 S
C166 C167 1.335 1_655 S
C167 C166 1.335 1_455 S
C167 C168 1.398 . S
C167 H194 0.930 1_455 S
C168 C163 1.382 . S
C168 C167 1.398 . S
C168 H195 0.929 . S
C169 O182 1.271 . S
C169 O183 1.251 . S
C170 O184 1.252 . S
C170 O185 1.272 . S
C171 Sm161 2.846 . S
C171 C172 1.506 . S
C171 O186 1.261 . S
C171 O187 1.242 . S
C172 C171 1.506 . S
C172 C173 1.358 . S
C172 C177 1.382 . S
C173 C172 1.358 . S
C173 C174 1.385 . S
C173 H196 0.930 . S
C174 C173 1.385 . S
C174 C175 1.395 . S
C174 H197 0.929 . S
C175 C174 1.395 . S
C175 C176 1.335 . S
C176 C175 1.335 . S
C176 C177 1.398 . S
C176 H198 0.930 . S
C177 C172 1.382 . S
C177 C176 1.398 . S
C177 H199 0.929 . S
C178 O188 1.271 . S
C178 O189 1.251 . S
C179 O190 1.252 . S
C179 O191 1.272 . S
O180 Sm160 2.543 . S
O180 C162 1.261 . S
O181 Sm160 2.450 . S
O181 C162 1.242 . S
O182 Sm160 2.681 . S
O182 Sm161 2.386 . S
O182 C169 1.271 . S
O183 Sm160 2.464 . S
O183 C169 1.251 . S
O184 Sm160 2.396 . S
O184 C170 1.252 . S
O185 Sm161 2.408 . S
O185 C170 1.272 . S
O186 Sm161 2.543 . S
O186 C171 1.261 . S
O187 Sm161 2.450 . S
O187 C171 1.242 . S
O188 Sm160 2.386 . S
O188 Sm161 2.681 . S
O188 C178 1.271 . S
O189 Sm161 2.464 . S
O189 C178 1.251 . S
O190 Sm161 2.396 . S
O190 C179 1.252 . S
O191 Sm160 2.408 . S
O191 C179 1.272 . S
H192 C164 0.930 . S
H193 C165 0.929 . S
H194 C167 0.930 1_655 S
H195 C168 0.929 . S
H196 C173 0.930 . S
H197 C174 0.929 . S
H198 C176 0.930 . S
H199 C177 0.929 . S
Sm200 C202 2.846 . S
Sm200 O220 2.543 . S
Sm200 O221 2.450 . S
Sm200 O222 2.681 . S
Sm200 O223 2.464 . S
Sm200 O224 2.396 . S
Sm200 O228 2.386 . S
Sm200 O231 2.408 . S
Sm201 C211 2.846 . S
Sm201 O222 2.386 . S
Sm201 O225 2.408 . S
Sm201 O226 2.543 . S
Sm201 O227 2.450 . S
Sm201 O228 2.681 . S
Sm201 O229 2.464 . S
Sm201 O230 2.396 . S
C202 Sm200 2.846 . S
C202 C203 1.506 . S
C202 O220 1.261 . S
C202 O221 1.242 . S
C203 C202 1.506 . S
C203 C204 1.358 . S
C203 C208 1.382 . S
C204 C203 1.358 . S
C204 C205 1.385 . S
C204 H232 0.930 . S
C205 C204 1.385 . S
C205 C206 1.395 . S
C205 H233 0.929 . S
C206 C205 1.395 . S
C206 C207 1.335 . S
C207 C206 1.335 . S
C207 C208 1.398 . S
C207 H234 0.930 . S
C208 C203 1.382 . S
C208 C207 1.398 . S
C208 H235 0.929 . S
C209 O222 1.271 . S
C209 O223 1.251 . S
C210 O224 1.252 . S
C210 O225 1.272 . S
C211 Sm201 2.846 . S
C211 C212 1.506 . S
C211 O226 1.261 . S
C211 O227 1.242 . S
C212 C211 1.506 . S
C212 C213 1.358 . S
C212 C217 1.382 . S
C213 C212 1.358 . S
C213 C214 1.385 . S
C213 H236 0.930 . S
C214 C213 1.385 . S
C214 C215 1.395 . S
C214 H237 0.929 . S
C215 C214 1.395 . S
C215 C216 1.335 . S
C216 C215 1.335 . S
C216 C217 1.398 . S
C216 H238 0.930 . S
C217 C212 1.382 . S
C217 C216 1.398 . S
C217 H239 0.929 . S
C218 O228 1.271 . S
C218 O229 1.251 . S
C219 O230 1.252 . S
C219 O231 1.272 . S
O220 Sm200 2.543 . S
O220 C202 1.261 . S
O221 Sm200 2.450 . S
O221 C202 1.242 . S
O222 Sm200 2.681 . S
O222 Sm201 2.386 . S
O222 C209 1.271 . S
O223 Sm200 2.464 . S
O223 C209 1.251 . S
O224 Sm200 2.396 . S
O224 C210 1.252 . S
O225 Sm201 2.408 . S
O225 C210 1.272 . S
O226 Sm201 2.543 . S
O226 C211 1.261 . S
O227 Sm201 2.450 . S
O227 C211 1.242 . S
O228 Sm200 2.386 . S
O228 Sm201 2.681 . S
O228 C218 1.271 . S
O229 Sm201 2.464 . S
O229 C218 1.251 . S
O230 Sm201 2.396 . S
O230 C219 1.252 . S
O231 Sm200 2.408 . S
O231 C219 1.272 . S
H232 C204 0.930 . S
H233 C205 0.929 . S
H234 C207 0.930 . S
H235 C208 0.929 . S
H236 C213 0.930 . S
H237 C214 0.929 . S
H238 C216 0.930 . S
H239 C217 0.929 . S
Sm240 C242 2.846 . S
Sm240 O260 2.543 . S
Sm240 O261 2.450 . S
Sm240 O262 2.681 . S
Sm240 O263 2.464 . S
Sm240 O264 2.396 . S
Sm240 O268 2.386 . S
Sm240 O271 2.408 . S
Sm241 C251 2.846 1_545 S
Sm241 O262 2.386 . S
Sm241 O265 2.408 . S
Sm241 O266 2.543 . S
Sm241 O267 2.447 1_545 S
Sm241 O268 2.681 . S
Sm241 O269 2.464 . S
Sm241 O270 2.396 . S
C242 Sm240 2.846 . S
C242 C243 1.506 . S
C242 O260 1.261 . S
C242 O261 1.242 . S
C243 C242 1.506 . S
C243 C244 1.358 . S
C243 C248 1.382 . S
C244 C243 1.358 . S
C244 C245 1.385 . S
C244 H272 0.930 . S
C245 C244 1.385 . S
C245 C246 1.395 . S
C245 H273 0.929 . S
C246 C245 1.395 . S
C246 C247 1.335 . S
C247 C246 1.335 . S
C247 C248 1.398 . S
C247 H274 0.930 . S
C248 C243 1.382 . S
C248 C247 1.398 . S
C248 H275 0.929 . S
C249 O262 1.271 . S
C249 O263 1.251 . S
C250 O264 1.252 . S
C250 O265 1.272 . S
C251 Sm241 2.846 1_565 S
C251 C252 1.506 . S
C251 O266 1.261 1_565 S
C251 O267 1.241 . S
C252 C251 1.506 . S
C252 C253 1.358 . S
C252 C257 1.382 . S
C253 C252 1.358 . S
C253 C254 1.385 . S
C253 H276 0.930 . S
C254 C253 1.385 . S
C254 C255 1.395 . S
C254 H277 0.929 . S
C255 C254 1.395 . S
C255 C256 1.335 . S
C256 C255 1.335 . S
C256 C257 1.398 . S
C256 H278 0.930 . S
C257 C252 1.382 . S
C257 C256 1.398 . S
C257 H279 0.929 . S
C258 O268 1.271 . S
C258 O269 1.251 . S
C259 O270 1.252 . S
C259 O271 1.272 . S
O260 Sm240 2.543 . S
O260 C242 1.261 . S
O261 Sm240 2.450 . S
O261 C242 1.242 . S
O262 Sm240 2.681 . S
O262 Sm241 2.386 . S
O262 C249 1.271 . S
O263 Sm240 2.464 . S
O263 C249 1.251 . S
O264 Sm240 2.396 . S
O264 C250 1.252 . S
O265 Sm241 2.408 . S
O265 C250 1.272 . S
O266 Sm241 2.543 . S
O266 C251 1.261 1_545 S
O267 Sm241 2.447 1_565 S
O267 C251 1.241 . S
O268 Sm240 2.386 . S
O268 Sm241 2.681 . S
O268 C258 1.271 . S
O269 Sm241 2.464 . S
O269 C258 1.251 . S
O270 Sm241 2.396 . S
O270 C259 1.252 . S
O271 Sm240 2.408 . S
O271 C259 1.272 . S
H272 C244 0.930 . S
H273 C245 0.929 . S
H274 C247 0.930 . S
H275 C248 0.929 . S
H276 C253 0.930 . S
H277 C254 0.929 . S
H278 C256 0.930 . S
H279 C257 0.929 . S
Sm280 C282 2.846 . S
Sm280 O300 2.543 . S
Sm280 O301 2.450 . S
Sm280 O302 2.681 . S
Sm280 O303 2.464 . S
Sm280 O304 2.396 . S
Sm280 O308 2.386 . S
Sm280 O311 2.408 . S
Sm281 C291 2.846 1_655 S
Sm281 O302 2.386 . S
Sm281 O305 2.408 . S
Sm281 O306 2.543 . S
Sm281 O307 2.450 1_655 S
Sm281 O308 2.681 . S
Sm281 O309 2.464 . S
Sm281 O310 2.396 . S
C282 Sm280 2.846 . S
C282 C283 1.506 . S
C282 O300 1.261 . S
C282 O301 1.242 . S
C283 C282 1.506 . S
C283 C284 1.358 . S
C283 C288 1.382 . S
C284 C283 1.358 . S
C284 C285 1.385 . S
C284 H312 0.930 . S
C285 C284 1.385 . S
C285 C286 1.395 . S
C285 H313 0.929 . S
C286 C285 1.395 . S
C286 C287 1.335 . S
C287 C286 1.335 . S
C287 C288 1.398 . S
C287 H314 0.930 . S
C288 C283 1.382 . S
C288 C287 1.398 . S
C288 H315 0.929 . S
C289 O302 1.271 . S
C289 O303 1.251 . S
C290 O304 1.252 . S
C290 O305 1.272 . S
C291 Sm281 2.846 1_455 S
C291 C292 1.506 . S
C291 O306 1.261 1_455 S
C291 O307 1.242 . S
C292 C291 1.506 . S
C292 C293 1.358 . S
C292 C297 1.382 . S
C293 C292 1.358 . S
C293 C294 1.385 . S
C293 H316 0.930 . S
C294 C293 1.385 . S
C294 C295 1.395 . S
C294 H317 0.929 . S
C295 C294 1.395 . S
C295 C296 1.335 . S
C296 C295 1.335 . S
C296 C297 1.398 . S
C296 H318 0.930 . S
C297 C292 1.382 . S
C297 C296 1.398 . S
C297 H319 0.929 . S
C298 O308 1.271 . S
C298 O309 1.251 . S
C299 O310 1.252 . S
C299 O311 1.272 . S
O300 Sm280 2.543 . S
O300 C282 1.261 . S
O301 Sm280 2.450 . S
O301 C282 1.242 . S
O302 Sm280 2.681 . S
O302 Sm281 2.386 . S
O302 C289 1.271 . S
O303 Sm280 2.464 . S
O303 C289 1.251 . S
O304 Sm280 2.396 . S
O304 C290 1.252 . S
O305 Sm281 2.408 . S
O305 C290 1.272 . S
O306 Sm281 2.543 . S
O306 C291 1.261 1_655 S
O307 Sm281 2.450 1_455 S
O307 C291 1.242 . S
O308 Sm280 2.386 . S
O308 Sm281 2.681 . S
O308 C298 1.271 . S
O309 Sm281 2.464 . S
O309 C298 1.251 . S
O310 Sm281 2.396 . S
O310 C299 1.252 . S
O311 Sm280 2.408 . S
O311 C299 1.272 . S
H312 C284 0.930 . S
H313 C285 0.929 . S
H314 C287 0.930 . S
H315 C288 0.929 . S
H316 C293 0.930 . S
H317 C294 0.929 . S
H318 C296 0.930 . S
H319 C297 0.929 . S
Sm320 C322 2.846 . S
Sm320 O340 2.543 . S
Sm320 O341 2.450 . S
Sm320 O342 2.681 . S
Sm320 O343 2.464 . S
Sm320 O344 2.396 . S
Sm320 O348 2.386 . S
Sm320 O351 2.408 . S
Sm321 C331 2.846 . S
Sm321 O342 2.386 . S
Sm321 O345 2.408 . S
Sm321 O346 2.543 . S
Sm321 O347 2.450 . S
Sm321 O348 2.681 . S
Sm321 O349 2.464 . S
Sm321 O350 2.396 . S
C322 Sm320 2.846 . S
C322 C323 1.506 . S
C322 O340 1.261 . S
C322 O341 1.242 . S
C323 C322 1.506 . S
C323 C324 1.358 . S
C323 C328 1.382 . S
C324 C323 1.358 . S
C324 C325 1.385 . S
C324 H352 0.930 . S
C325 C324 1.385 . S
C325 C326 1.395 . S
C325 H353 0.929 . S
C326 C325 1.395 . S
C326 C327 1.335 . S
C327 C326 1.335 . S
C327 C328 1.398 . S
C327 H354 0.930 . S
C328 C323 1.382 . S
C328 C327 1.398 . S
C328 H355 0.929 . S
C329 O342 1.271 . S
C329 O343 1.251 . S
C330 O344 1.252 . S
C330 O345 1.272 . S
C331 Sm321 2.846 . S
C331 C332 1.506 . S
C331 O346 1.261 . S
C331 O347 1.242 . S
C332 C331 1.506 . S
C332 C333 1.358 . S
C332 C337 1.382 . S
C333 C332 1.358 . S
C333 C334 1.385 . S
C333 H356 0.930 . S
C334 C333 1.385 . S
C334 C335 1.395 . S
C334 H357 0.929 . S
C335 C334 1.395 . S
C335 C336 1.335 . S
C336 C335 1.335 . S
C336 C337 1.398 . S
C336 H358 0.930 . S
C337 C332 1.382 . S
C337 C336 1.398 . S
C337 H359 0.929 . S
C338 O348 1.271 . S
C338 O349 1.251 . S
C339 O350 1.252 . S
C339 O351 1.272 . S
O340 Sm320 2.543 . S
O340 C322 1.261 . S
O341 Sm320 2.450 . S
O341 C322 1.242 . S
O342 Sm320 2.681 . S
O342 Sm321 2.386 . S
O342 C329 1.271 . S
O343 Sm320 2.464 . S
O343 C329 1.251 . S
O344 Sm320 2.396 . S
O344 C330 1.252 . S
O345 Sm321 2.408 . S
O345 C330 1.272 . S
O346 Sm321 2.543 . S
O346 C331 1.261 . S
O347 Sm321 2.450 . S
O347 C331 1.242 . S
O348 Sm320 2.386 . S
O348 Sm321 2.681 . S
O348 C338 1.271 . S
O349 Sm321 2.464 . S
O349 C338 1.251 . S
O350 Sm321 2.396 . S
O350 C339 1.252 . S
O351 Sm320 2.408 . S
O351 C339 1.272 . S
H352 C324 0.930 . S
H353 C325 0.929 . S
H354 C327 0.930 . S
H355 C328 0.929 . S
H356 C333 0.930 . S
H357 C334 0.929 . S
H358 C336 0.930 . S
H359 C337 0.929 . S
H360 C366 0.930 . S
H361 C369 0.930 . S
H362 C370 0.929 1_554 S
H363 C371 0.930 1_554 S
H364 C374 0.930 . S
H365 C375 0.930 . S
C366 H360 0.930 . S
C366 C367 1.355 . S
C366 C368 1.415 . S
C367 C366 1.355 . S
C367 C369 1.419 . S
C368 C366 1.415 . S
C368 C373 1.425 . S
C368 C375 1.409 . S
C369 H361 0.930 . S
C369 C367 1.419 . S
C369 C370 1.362 . S
C370 H362 0.929 1_556 S
C370 C369 1.362 . S
C370 C373 1.409 . S
C371 H363 0.930 1_556 S
C371 C372 1.355 . S
C371 C373 1.415 . S
C372 C371 1.355 . S
C372 C374 1.419 . S
C373 C368 1.425 . S
C373 C370 1.409 . S
C373 C371 1.415 . S
C374 H364 0.930 . S
C374 C372 1.419 . S
C374 C375 1.362 . S
C375 H365 0.930 . S
C375 C368 1.409 . S
C375 C374 1.362 . S
H376 C382 0.930 . S
H377 C385 0.930 . S
H378 C386 0.930 . S
H379 C387 0.930 . S
H380 C390 0.930 . S
H381 C391 0.930 . S
C382 H376 0.930 . S
C382 C383 1.355 1_554 S
C382 C384 1.415 . S
C383 C382 1.355 1_556 S
C383 C385 1.419 . S
C384 C382 1.415 . S
C384 C389 1.425 1_554 S
C384 C391 1.409 . S
C385 H377 0.930 . S
C385 C383 1.419 . S
C385 C386 1.362 . S
C386 H378 0.930 . S
C386 C385 1.362 . S
C386 C389 1.409 . S
C387 H379 0.930 . S
C387 C388 1.355 . S
C387 C389 1.415 . S
C388 C387 1.355 . S
C388 C390 1.419 1_556 S
C389 C384 1.425 1_556 S
C389 C386 1.409 . S
C389 C387 1.415 . S
C390 H380 0.930 . S
C390 C388 1.419 1_554 S
C390 C391 1.362 . S
C391 H381 0.930 . S
C391 C384 1.409 . S
C391 C390 1.362 . S
H392 C398 0.930 . S
H393 C401 0.930 . S
H394 C402 0.930 . S
H395 C403 0.930 . S
H396 C406 0.930 . S
H397 C407 0.930 . S
C398 H392 0.930 . S
C398 C399 1.355 1_554 S
C398 C400 1.415 1_554 S
C399 C398 1.355 1_556 S
C399 C401 1.419 . S
C400 C398 1.415 1_556 S
C400 C405 1.425 . S
C400 C407 1.409 1_556 S
C401 H393 0.930 . S
C401 C399 1.419 . S
C401 C402 1.362 . S
C402 H394 0.930 . S
C402 C401 1.362 . S
C402 C405 1.409 . S
C403 H395 0.930 . S
C403 C404 1.355 . S
C403 C405 1.415 . S
C404 C403 1.355 . S
C404 C406 1.419 1_556 S
C405 C400 1.425 . S
C405 C402 1.409 . S
C405 C403 1.415 . S
C406 H396 0.930 . S
C406 C404 1.419 1_554 S
C406 C407 1.362 . S
C407 H397 0.930 . S
C407 C400 1.409 1_554 S
C407 C406 1.362 . S
H408 C414 0.930 . S
H409 C417 0.930 . S
H410 C418 0.930 . S
H411 C419 0.930 . S
H412 C422 0.930 1_556 S
H413 C423 0.930 1_556 S
C414 H408 0.930 . S
C414 C415 1.355 . S
C414 C416 1.415 . S
C415 C414 1.355 . S
C415 C417 1.419 . S
C416 C414 1.415 . S
C416 C421 1.425 . S
C416 C423 1.409 . S
C417 H409 0.930 . S
C417 C415 1.419 . S
C417 C418 1.362 . S
C418 H410 0.930 . S
C418 C417 1.362 . S
C418 C421 1.409 . S
C419 H411 0.930 . S
C419 C420 1.355 . S
C419 C421 1.415 . S
C420 C419 1.355 . S
C420 C422 1.419 . S
C421 C416 1.425 . S
C421 C418 1.409 . S
C421 C419 1.415 . S
C422 H412 0.930 1_554 S
C422 C420 1.419 . S
C422 C423 1.362 . S
C423 H413 0.930 1_554 S
C423 C416 1.409 . S
C423 C422 1.362 . S
H424 C430 0.930 . S
H425 C433 0.930 . S
H426 C434 0.930 . S
H427 C435 0.930 . S
H428 C438 0.930 . S
H429 C439 0.930 . S
C430 H424 0.930 . S
C430 C431 1.355 . S
C430 C432 1.415 . S
C431 C430 1.355 . S
C431 C433 1.419 . S
C432 C430 1.415 . S
C432 C437 1.425 . S
C432 C439 1.409 . S
C433 H425 0.930 . S
C433 C431 1.419 . S
C433 C434 1.362 . S
C434 H426 0.930 . S
C434 C433 1.362 . S
C434 C437 1.409 . S
C435 H427 0.930 . S
C435 C436 1.355 . S
C435 C437 1.415 . S
C436 C435 1.355 . S
C436 C438 1.419 . S
C437 C432 1.425 . S
C437 C434 1.409 . S
C437 C435 1.415 . S
C438 H428 0.930 . S
C438 C436 1.419 . S
C438 C439 1.362 . S
C439 H429 0.930 . S
C439 C432 1.409 . S
C439 C438 1.362 . S
H440 C446 0.930 . S
H441 C449 0.930 . S
H442 C450 0.930 . S
H443 C451 0.930 . S
H444 C454 0.930 . S
H445 C455 0.929 1_556 S
C446 H440 0.930 . S
C446 C447 1.355 . S
C446 C448 1.415 . S
C447 C446 1.355 . S
C447 C449 1.419 . S
C448 C446 1.415 . S
C448 C453 1.425 . S
C448 C455 1.409 . S
C449 H441 0.930 . S
C449 C447 1.419 . S
C449 C450 1.362 . S
C450 H442 0.930 . S
C450 C449 1.362 . S
C450 C453 1.409 . S
C451 H443 0.930 . S
C451 C452 1.355 . S
C451 C453 1.415 . S
C452 C451 1.355 . S
C452 C454 1.419 . S
C453 C448 1.425 . S
C453 C450 1.409 . S
C453 C451 1.415 . S
C454 H444 0.930 . S
C454 C452 1.419 . S
C454 C455 1.362 . S
C455 H445 0.929 1_554 S
C455 C448 1.409 . S
C455 C454 1.362 . S
H456 C462 0.930 . S
H457 C465 0.930 . S
H458 C466 0.930 . S
H459 C467 0.930 . S
H460 C470 0.930 . S
H461 C471 0.930 . S
C462 H456 0.930 . S
C462 C463 1.355 . S
C462 C464 1.415 . S
C463 C462 1.355 . S
C463 C465 1.419 . S
C464 C462 1.415 . S
C464 C469 1.425 . S
C464 C471 1.409 . S
C465 H457 0.930 . S
C465 C463 1.419 . S
C465 C466 1.362 . S
C466 H458 0.930 . S
C466 C465 1.362 . S
C466 C469 1.409 . S
C467 H459 0.930 . S
C467 C468 1.355 . S
C467 C469 1.415 . S
C468 C467 1.355 . S
C468 C470 1.419 . S
C469 C464 1.425 . S
C469 C466 1.409 . S
C469 C467 1.415 . S
C470 H460 0.930 . S
C470 C468 1.419 . S
C470 C471 1.362 . S
C471 H461 0.930 . S
C471 C464 1.409 . S
C471 C470 1.362 . S
H472 C478 0.930 . S
H473 C481 0.930 . S
H474 C482 0.930 . S
H475 C483 0.930 . S
H476 C486 0.930 . S
H477 C487 0.930 . S
C478 H472 0.930 . S
C478 C479 1.355 . S
C478 C480 1.415 . S
C479 C478 1.355 . S
C479 C481 1.419 . S
C480 C478 1.415 . S
C480 C485 1.425 . S
C480 C487 1.409 . S
C481 H473 0.930 . S
C481 C479 1.419 . S
C481 C482 1.362 1_545 S
C482 H474 0.930 . S
C482 C481 1.362 1_565 S
C482 C485 1.409 1_565 S
C483 H475 0.930 . S
C483 C484 1.355 . S
C483 C485 1.415 1_565 S
C484 C483 1.355 . S
C484 C486 1.419 1_565 S
C485 C480 1.425 . S
C485 C482 1.409 1_545 S
C485 C483 1.415 1_545 S
C486 H476 0.930 . S
C486 C484 1.419 1_545 S
C486 C487 1.362 . S
C487 H477 0.930 . S
C487 C480 1.409 . S
C487 C486 1.362 . S
H488 C494 0.930 . S
H489 C497 0.930 . S
H490 C498 0.930 . S
H491 C499 0.930 . S
H492 C502 0.930 . S
H493 C503 0.930 1_455 S
C494 H488 0.930 . S
C494 C495 1.355 . S
C494 C496 1.415 1_455 S
C495 C494 1.355 . S
C495 C497 1.419 1_455 S
C496 C494 1.415 1_655 S
C496 C501 1.425 . S
C496 C503 1.409 . S
C497 H489 0.930 . S
C497 C495 1.419 1_655 S
C497 C498 1.362 . S
C498 H490 0.930 . S
C498 C497 1.362 . S
C498 C501 1.409 . S
C499 H491 0.930 . S
C499 C500 1.355 . S
C499 C501 1.415 . S
C500 C499 1.355 . S
C500 C502 1.419 . S
C501 C496 1.425 . S
C501 C498 1.409 . S
C501 C499 1.415 . S
C502 H492 0.930 . S
C502 C500 1.419 . S
C502 C503 1.362 . S
C503 H493 0.930 1_655 S
C503 C496 1.409 . S
C503 C502 1.362 . S
H504 C510 0.930 . S
H505 C513 0.930 . S
H506 C514 0.930 . S
H507 C515 0.930 . S
H508 C518 0.930 . S
H509 C519 0.930 . S
C510 H504 0.930 . S
C510 C511 1.355 . S
C510 C512 1.415 . S
C511 C510 1.355 . S
C511 C513 1.419 . S
C512 C510 1.415 . S
C512 C517 1.425 . S
C512 C519 1.409 . S
C513 H505 0.930 . S
C513 C511 1.419 . S
C513 C514 1.362 . S
C514 H506 0.930 . S
C514 C513 1.362 . S
C514 C517 1.409 . S
C515 H507 0.930 . S
C515 C516 1.355 . S
C515 C517 1.415 . S
C516 C515 1.355 . S
C516 C518 1.419 . S
C517 C512 1.425 . S
C517 C514 1.409 . S
C517 C515 1.415 . S
C518 H508 0.930 . S
C518 C516 1.419 . S
C518 C519 1.362 . S
C519 H509 0.930 . S
C519 C512 1.409 . S
C519 C518 1.362 . S
H520 C526 0.930 . S
H521 C529 0.930 . S
H522 C530 0.930 . S
H523 C531 0.930 . S
H524 C534 0.930 . S
H525 C535 0.930 . S
C526 H520 0.930 . S
C526 C527 1.355 . S
C526 C528 1.415 . S
C527 C526 1.355 . S
C527 C529 1.419 . S
C528 C526 1.415 . S
C528 C533 1.425 . S
C528 C535 1.409 . S
C529 H521 0.930 . S
C529 C527 1.419 . S
C529 C530 1.362 . S
C530 H522 0.930 . S
C530 C529 1.362 . S
C530 C533 1.409 . S
C531 H523 0.930 . S
C531 C532 1.355 . S
C531 C533 1.415 . S
C532 C531 1.355 . S
C532 C534 1.419 . S
C533 C528 1.425 . S
C533 C530 1.409 . S
C533 C531 1.415 . S
C534 H524 0.930 . S
C534 C532 1.419 . S
C534 C535 1.362 . S
C535 H525 0.930 . S
C535 C528 1.409 . S
C535 C534 1.362 . S
H536 C542 0.930 . S
H537 C545 0.930 . S
H538 C546 0.930 . S
H539 C547 0.930 . S
H540 C550 0.930 . S
H541 C551 0.930 . S
C542 H536 0.930 . S
C542 C543 1.355 . S
C542 C544 1.415 . S
C543 C542 1.355 . S
C543 C545 1.419 . S
C544 C542 1.415 . S
C544 C549 1.425 . S
C544 C551 1.409 . S
C545 H537 0.930 . S
C545 C543 1.419 . S
C545 C546 1.362 . S
C546 H538 0.930 . S
C546 C545 1.362 . S
C546 C549 1.409 . S
C547 H539 0.930 . S
C547 C548 1.355 . S
C547 C549 1.415 . S
C548 C547 1.355 . S
C548 C550 1.419 . S
C549 C544 1.425 . S
C549 C546 1.409 . S
C549 C547 1.415 . S
C550 H540 0.930 . S
C550 C548 1.419 . S
C550 C551 1.362 . S
C551 H541 0.930 . S
C551 C544 1.409 . S
C551 C550 1.362 . S
H552 C558 0.930 . S
H553 C561 0.930 . S
H554 C562 0.930 . S
H555 C563 0.930 . S
H556 C566 0.930 . S
H557 C567 0.930 . S
C558 H552 0.930 . S
C558 C559 1.355 . S
C558 C560 1.415 . S
C559 C558 1.355 . S
C559 C561 1.419 . S
C560 C558 1.415 . S
C560 C565 1.425 . S
C560 C567 1.409 . S
C561 H553 0.930 . S
C561 C559 1.419 . S
C561 C562 1.362 . S
C562 H554 0.930 . S
C562 C561 1.362 . S
C562 C565 1.409 . S
C563 H555 0.930 . S
C563 C564 1.355 . S
C563 C565 1.415 . S
C564 C563 1.355 . S
C564 C566 1.419 . S
C565 C560 1.425 . S
C565 C562 1.409 . S
C565 C563 1.415 . S
C566 H556 0.930 . S
C566 C564 1.419 . S
C566 C567 1.362 . S
C567 H557 0.930 . S
C567 C560 1.409 . S
C567 C566 1.362 . S
H568 C574 0.930 . S
H569 C577 0.930 . S
H570 C578 0.930 . S
H571 C579 0.930 . S
H572 C582 0.930 . S
H573 C583 0.930 . S
C574 H568 0.930 . S
C574 C575 1.355 . S
C574 C576 1.415 . S
C575 C574 1.355 . S
C575 C577 1.419 . S
C576 C574 1.415 . S
C576 C581 1.425 . S
C576 C583 1.409 . S
C577 H569 0.930 . S
C577 C575 1.419 . S
C577 C578 1.362 . S
C578 H570 0.930 . S
C578 C577 1.362 . S
C578 C581 1.409 . S
C579 H571 0.930 . S
C579 C580 1.355 . S
C579 C581 1.415 . S
C580 C579 1.355 . S
C580 C582 1.419 . S
C581 C576 1.425 . S
C581 C578 1.409 . S
C581 C579 1.415 . S
C582 H572 0.930 . S
C582 C580 1.419 . S
C582 C583 1.362 . S
C583 H573 0.930 . S
C583 C576 1.409 . S
C583 C582 1.362 . S
H584 C590 0.930 . S
H585 C593 0.930 . S
H586 C594 0.930 . S
H587 C595 0.930 . S
H588 C598 0.930 . S
H589 C599 0.930 . S
C590 H584 0.930 . S
C590 C591 1.355 . S
C590 C592 1.415 . S
C591 C590 1.355 . S
C591 C593 1.419 . S
C592 C590 1.415 . S
C592 C597 1.425 . S
C592 C599 1.409 . S
C593 H585 0.930 . S
C593 C591 1.419 . S
C593 C594 1.362 . S
C594 H586 0.930 . S
C594 C593 1.362 . S
C594 C597 1.409 . S
C595 H587 0.930 . S
C595 C596 1.355 . S
C595 C597 1.415 . S
C596 C595 1.355 . S
C596 C598 1.419 . S
C597 C592 1.425 . S
C597 C594 1.409 . S
C597 C595 1.415 . S
C598 H588 0.930 . S
C598 C596 1.419 . S
C598 C599 1.362 . S
C599 H589 0.930 . S
C599 C592 1.409 . S
C599 C598 1.362 . S
H600 C606 0.930 . S
H601 C609 0.930 . S
H602 C610 0.930 . S
H603 C611 0.930 . S
H604 C614 0.930 . S
H605 C615 0.930 . S
C606 H600 0.930 . S
C606 C607 1.355 . S
C606 C608 1.415 1_565 S
C607 C606 1.355 . S
C607 C609 1.419 . S
C608 C606 1.415 1_545 S
C608 C613 1.425 . S
C608 C615 1.409 . S
C609 H601 0.930 . S
C609 C607 1.419 . S
C609 C610 1.362 1_565 S
C610 H602 0.930 . S
C610 C609 1.362 1_545 S
C610 C613 1.409 . S
C611 H603 0.930 . S
C611 C612 1.355 . S
C611 C613 1.415 . S
C612 C611 1.355 . S
C612 C614 1.419 . S
C613 C608 1.425 . S
C613 C610 1.409 . S
C613 C611 1.415 . S
C614 H604 0.930 . S
C614 C612 1.419 . S
C614 C615 1.362 . S
C615 H605 0.930 . S
C615 C608 1.409 . S
C615 C614 1.362 . S
H616 C622 0.930 . S
H617 C625 0.930 . S
H618 C626 0.930 . S
H619 C627 0.930 . S
H620 C630 0.930 . S
H621 C631 0.930 . S
C622 H616 0.930 . S
C622 C623 1.355 . S
C622 C624 1.415 . S
C623 C622 1.355 . S
C623 C625 1.419 . S
C624 C622 1.415 . S
C624 C629 1.425 . S
C624 C631 1.409 . S
C625 H617 0.930 . S
C625 C623 1.419 . S
C625 C626 1.362 . S
C626 H618 0.930 . S
C626 C625 1.362 . S
C626 C629 1.409 . S
C627 H619 0.930 . S
C627 C628 1.355 . S
C627 C629 1.415 1_455 S
C628 C627 1.355 . S
C628 C630 1.419 . S
C629 C624 1.425 . S
C629 C626 1.409 . S
C629 C627 1.415 1_655 S
C630 H620 0.930 . S
C630 C628 1.419 . S
C630 C631 1.362 1_455 S
C631 H621 0.930 . S
C631 C624 1.409 . S
C631 C630 1.362 1_655 S
H632 C638 0.930 . S
H633 C641 0.930 . S
H634 C642 0.930 . S
H635 C643 0.930 . S
H636 C646 0.930 . S
H637 C647 0.930 . S
C638 H632 0.930 . S
C638 C639 1.355 . S
C638 C640 1.415 . S
C639 C638 1.355 . S
C639 C641 1.419 . S
C640 C638 1.415 . S
C640 C645 1.425 . S
C640 C647 1.409 . S
C641 H633 0.930 . S
C641 C639 1.419 . S
C641 C642 1.362 . S
C642 H634 0.930 . S
C642 C641 1.362 . S
C642 C645 1.409 . S
C643 H635 0.930 . S
C643 C644 1.355 . S
C643 C645 1.415 . S
C644 C643 1.355 . S
C644 C646 1.419 . S
C645 C640 1.425 . S
C645 C642 1.409 . S
C645 C643 1.415 . S
C646 H636 0.930 . S
C646 C644 1.419 . S
C646 C647 1.362 . S
C647 H637 0.930 . S
C647 C640 1.409 . S
C647 C646 1.362 . S
H648 C654 0.930 . S
H649 C657 0.930 . S
H650 C658 0.930 . S
H651 C659 0.930 . S
H652 C662 0.930 . S
H653 C663 0.930 . S
C654 H648 0.930 . S
C654 C655 1.355 . S
C654 C656 1.415 . S
C655 C654 1.355 . S
C655 C657 1.419 . S
C656 C654 1.415 . S
C656 C661 1.425 . S
C656 C663 1.409 . S
C657 H649 0.930 . S
C657 C655 1.419 . S
C657 C658 1.362 . S
C658 H650 0.930 . S
C658 C657 1.362 . S
C658 C661 1.409 . S
C659 H651 0.930 . S
C659 C660 1.355 . S
C659 C661 1.415 . S
C660 C659 1.355 . S
C660 C662 1.419 . S
C661 C656 1.425 . S
C661 C658 1.409 . S
C661 C659 1.415 . S
C662 H652 0.930 . S
C662 C660 1.419 . S
C662 C663 1.362 . S
C663 H653 0.930 . S
C663 C656 1.409 . S
C663 C662 1.362 . S
H664 C670 0.930 . S
H665 C673 0.930 . S
H666 C674 0.930 . S
H667 C675 0.930 . S
H668 C678 0.930 . S
H669 C679 0.930 . S
C670 H664 0.930 . S
C670 C671 1.355 . S
C670 C672 1.415 . S
C671 C670 1.355 . S
C671 C673 1.419 . S
C672 C670 1.415 . S
C672 C677 1.425 . S
C672 C679 1.409 . S
C673 H665 0.930 . S
C673 C671 1.419 . S
C673 C674 1.362 . S
C674 H666 0.930 . S
C674 C673 1.362 . S
C674 C677 1.409 . S
C675 H667 0.930 . S
C675 C676 1.355 . S
C675 C677 1.415 . S
C676 C675 1.355 . S
C676 C678 1.419 . S
C677 C672 1.425 . S
C677 C674 1.409 . S
C677 C675 1.415 . S
C678 H668 0.930 . S
C678 C676 1.419 . S
C678 C679 1.362 . S
C679 H669 0.930 . S
C679 C672 1.409 . S
C679 C678 1.362 . S
H680 C686 0.930 . S
H681 C689 0.930 . S
H682 C690 0.930 . S
H683 C691 0.930 . S
H684 C694 0.930 . S
H685 C695 0.930 . S
C686 H680 0.930 . S
C686 C687 1.355 . S
C686 C688 1.415 . S
C687 C686 1.355 . S
C687 C689 1.419 . S
C688 C686 1.415 . S
C688 C693 1.425 . S
C688 C695 1.409 . S
C689 H681 0.930 . S
C689 C687 1.419 . S
C689 C690 1.362 . S
C690 H682 0.930 . S
C690 C689 1.362 . S
C690 C693 1.409 . S
C691 H683 0.930 . S
C691 C692 1.355 . S
C691 C693 1.415 . S
C692 C691 1.355 . S
C692 C694 1.419 . S
C693 C688 1.425 . S
C693 C690 1.409 . S
C693 C691 1.415 . S
C694 H684 0.930 . S
C694 C692 1.419 . S
C694 C695 1.362 . S
C695 H685 0.930 . S
C695 C688 1.409 . S
C695 C694 1.362 . S
H696 C702 0.930 . S
H697 C705 0.930 1_565 S
H698 C706 0.925 1_565 S
H699 C707 0.930 . S
H700 C710 0.930 . S
H701 C711 0.930 . S
C702 H696 0.930 . S
C702 C703 1.355 . S
C702 C704 1.415 . S
C703 C702 1.355 . S
C703 C705 1.419 . S
C704 C702 1.415 . S
C704 C709 1.425 . S
C704 C711 1.409 . S
C705 H697 0.930 1_545 S
C705 C703 1.419 . S
C705 C706 1.362 . S
C706 H698 0.925 1_545 S
C706 C705 1.362 . S
C706 C709 1.409 . S
C707 H699 0.930 . S
C707 C708 1.355 . S
C707 C709 1.415 . S
C708 C707 1.355 . S
C708 C710 1.419 . S
C709 C704 1.425 . S
C709 C706 1.409 . S
C709 C707 1.415 . S
C710 H700 0.930 . S
C710 C708 1.419 . S
C710 C711 1.362 . S
C711 H701 0.930 . S
C711 C704 1.409 . S
C711 C710 1.362 . S
H712 C718 0.930 . S
H713 C721 0.930 . S
H714 C722 0.930 . S
H715 C723 0.930 . S
H716 C726 0.930 . S
H717 C727 0.930 . S
C718 H712 0.930 . S
C718 C719 1.355 . S
C718 C720 1.415 . S
C719 C718 1.355 . S
C719 C721 1.419 . S
C720 C718 1.415 . S
C720 C725 1.425 . S
C720 C727 1.409 . S
C721 H713 0.930 . S
C721 C719 1.419 . S
C721 C722 1.362 . S
C722 H714 0.930 . S
C722 C721 1.362 . S
C722 C725 1.409 . S
C723 H715 0.930 . S
C723 C724 1.355 . S
C723 C725 1.415 . S
C724 C723 1.355 . S
C724 C726 1.419 . S
C725 C720 1.425 . S
C725 C722 1.409 . S
C725 C723 1.415 . S
C726 H716 0.930 . S
C726 C724 1.419 . S
C726 C727 1.362 . S
C727 H717 0.930 . S
C727 C720 1.409 . S
C727 C726 1.362 . S
H728 C734 0.930 . S
H729 C737 0.930 . S
H730 C738 0.930 . S
H731 C739 0.930 . S
H732 C742 0.930 . S
H733 C743 0.930 . S
C734 H728 0.930 . S
C734 C735 1.355 . S
C734 C736 1.415 . S
C735 C734 1.355 . S
C735 C737 1.419 . S
C736 C734 1.415 . S
C736 C741 1.425 . S
C736 C743 1.409 . S
C737 H729 0.930 . S
C737 C735 1.419 . S
C737 C738 1.362 . S
C738 H730 0.930 . S
C738 C737 1.362 . S
C738 C741 1.409 . S
C739 H731 0.930 . S
C739 C740 1.355 . S
C739 C741 1.415 . S
C740 C739 1.355 . S
C740 C742 1.419 . S
C741 C736 1.425 . S
C741 C738 1.409 . S
C741 C739 1.415 . S
C742 H732 0.930 . S
C742 C740 1.419 . S
C742 C743 1.362 . S
C743 H733 0.930 . S
C743 C736 1.409 . S
C743 C742 1.362 . S
H744 C750 0.930 . S
H745 C753 0.930 . S
H746 C754 0.930 . S
H747 C755 0.930 . S
H748 C758 0.930 . S
H749 C759 0.930 . S
C750 H744 0.930 . S
C750 C751 1.355 . S
C750 C752 1.415 . S
C751 C750 1.355 . S
C751 C753 1.419 . S
C752 C750 1.415 . S
C752 C757 1.425 . S
C752 C759 1.409 . S
C753 H745 0.930 . S
C753 C751 1.419 . S
C753 C754 1.362 . S
C754 H746 0.930 . S
C754 C753 1.362 . S
C754 C757 1.409 . S
C755 H747 0.930 . S
C755 C756 1.355 . S
C755 C757 1.415 . S
C756 C755 1.355 . S
C756 C758 1.419 . S
C757 C752 1.425 . S
C757 C754 1.409 . S
C757 C755 1.415 . S
C758 H748 0.930 . S
C758 C756 1.419 . S
C758 C759 1.362 . S
C759 H749 0.930 . S
C759 C752 1.409 . S
C759 C758 1.362 . S
H760 C766 0.930 . S
H761 C769 0.930 . S
H762 C770 0.930 . S
H763 C771 0.930 . S
H764 C774 0.930 . S
H765 C775 0.930 . S
C766 H760 0.930 . S
C766 C767 1.355 . S
C766 C768 1.415 1_565 S
C767 C766 1.355 . S
C767 C769 1.419 . S
C768 C766 1.415 1_545 S
C768 C773 1.425 . S
C768 C775 1.409 . S
C769 H761 0.930 . S
C769 C767 1.419 . S
C769 C770 1.362 . S
C770 H762 0.930 . S
C770 C769 1.362 . S
C770 C773 1.409 1_565 S
C771 H763 0.930 . S
C771 C772 1.355 . S
C771 C773 1.415 . S
C772 C771 1.355 . S
C772 C774 1.419 . S
C773 C768 1.425 . S
C773 C770 1.409 1_545 S
C773 C771 1.415 . S
C774 H764 0.930 . S
C774 C772 1.419 . S
C774 C775 1.362 . S
C775 H765 0.930 . S
C775 C768 1.409 . S
C775 C774 1.362 . S
H776 C782 0.930 . S
H777 C785 0.930 . S
H778 C786 0.930 . S
H779 C787 0.930 . S
H780 C790 0.930 . S
H781 C791 0.930 . S
C782 H776 0.930 . S
C782 C783 1.355 . S
C782 C784 1.415 . S
C783 C782 1.355 . S
C783 C785 1.419 . S
C784 C782 1.415 . S
C784 C789 1.425 1_655 S
C784 C791 1.409 . S
C785 H777 0.930 . S
C785 C783 1.419 . S
C785 C786 1.362 1_655 S
C786 H778 0.930 . S
C786 C785 1.362 1_455 S
C786 C789 1.409 . S
C787 H779 0.930 . S
C787 C788 1.355 . S
C787 C789 1.415 . S
C788 C787 1.355 . S
C788 C790 1.419 . S
C789 C784 1.425 1_455 S
C789 C786 1.409 . S
C789 C787 1.415 . S
C790 H780 0.930 . S
C790 C788 1.419 . S
C790 C791 1.362 1_455 S
C791 H781 0.930 . S
C791 C784 1.409 . S
C791 C790 1.362 1_655 S
C367 C46 1.657 . S
C372 C10 1.699 . S
C383 C86 1.619 . S
C388 C50 1.682 . S
C399 C90 1.683 . S
C404 C6 1.643 . S
C415 C95 1.533 . S
C420 C59 1.496 . S
C431 C99 1.419 . S
C436 C15 1.488 . S
C447 C19 1.485 . S
C452 C55 1.529 . S
C463 C130 1.687 . S
C468 C166 1.647 . S
C479 C206 1.655 . S
C484 C170 1.699 . S
C495 C210 1.671 . S
C500 C126 1.626 . S
C511 C179 1.453 . S
C516 C215 1.507 . S
C527 C219 1.451 . S
C532 C135 1.509 . S
C543 C175 1.489 . S
C548 C139 1.417 . S
C559 C286 1.648 . S
C564 C250 1.698 . S
C575 C290 1.692 . S
C580 C326 1.653 . S
C591 C330 1.648 . S
C596 C246 1.578 . S
C607 C335 1.494 . S
C612 C299 1.425 . S
C623 C339 1.420 . S
C628 C255 1.489 . S
C639 C259 1.420 . S
C644 C295 1.489 . S
C655 C209 2.603 . S
C660 C18 2.258 . S
C671 C129 2.604 . S
C676 C58 2.242 . S
C687 C98 2.239 . S
C692 C169 2.605 . S
C703 C89 2.609 . S
C708 C258 2.292 . S
C719 C9 2.611 . S
C724 C298 2.236 . S
C735 C338 2.239 . S
C740 C49 2.605 . S
C751 C138 2.259 . S
C756 C329 2.604 . S
C767 C178 2.255 . S
C772 C249 2.620 . S
C783 C289 2.613 . S
C788 C218 2.238 . S
