# Generated by pormake.
# Topology upb, (4)-cn, num edge types: 1
# Building blocks:
#     Node 0, Type 0, BuildingBlock: GALJAG_clean_sbu_0, # of connection points: 4
#     Node 1, Type 0, BuildingBlock: GALJAG_clean_sbu_0, # of connection points: 4
#     Node 2, Type 0, BuildingBlock: GALJAG_clean_sbu_0, # of connection points: 4
#     Node 3, Type 0, BuildingBlock: GALJAG_clean_sbu_0, # of connection points: 4
#     Node 4, Type 0, BuildingBlock: GALJAG_clean_sbu_0, # of connection points: 4
#     Node 5, Type 0, BuildingBlock: GALJAG_clean_sbu_0, # of connection points: 4
#     Node 6, Type 0, BuildingBlock: GALJAG_clean_sbu_0, # of connection points: 4
#     Node 7, Type 0, BuildingBlock: GALJAG_clean_sbu_0, # of connection points: 4
#     Node 8, Type 0, BuildingBlock: GALJAG_clean_sbu_0, # of connection points: 4
#     Node 9, Type 0, BuildingBlock: GALJAG_clean_sbu_0, # of connection points: 4
#     Node 10, Type 0, BuildingBlock: GALJAG_clean_sbu_0, # of connection points: 4
#     Node 11, Type 0, BuildingBlock: GALJAG_clean_sbu_0, # of connection points: 4
#     Node 12, Type 0, BuildingBlock: GALJAG_clean_sbu_0, # of connection points: 4
#     Node 13, Type 0, BuildingBlock: GALJAG_clean_sbu_0, # of connection points: 4
#     Node 14, Type 0, BuildingBlock: GALJAG_clean_sbu_0, # of connection points: 4
#     Node 15, Type 0, BuildingBlock: GALJAG_clean_sbu_0, # of connection points: 4
#     Edge 16, Type (0, 0), BuildingBlock: ZUJKAS_clean_linker_0, # of connection points: 2
#     Edge 17, Type (0, 0), BuildingBlock: ZUJKAS_clean_linker_0, # of connection points: 2
#     Edge 18, Type (0, 0), BuildingBlock: ZUJKAS_clean_linker_0, # of connection points: 2
#     Edge 19, Type (0, 0), BuildingBlock: ZUJKAS_clean_linker_0, # of connection points: 2
#     Edge 20, Type (0, 0), BuildingBlock: ZUJKAS_clean_linker_0, # of connection points: 2
#     Edge 21, Type (0, 0), BuildingBlock: ZUJKAS_clean_linker_0, # of connection points: 2
#     Edge 22, Type (0, 0), BuildingBlock: ZUJKAS_clean_linker_0, # of connection points: 2
#     Edge 23, Type (0, 0), BuildingBlock: ZUJKAS_clean_linker_0, # of connection points: 2
#     Edge 24, Type (0, 0), BuildingBlock: ZUJKAS_clean_linker_0, # of connection points: 2
#     Edge 25, Type (0, 0), BuildingBlock: ZUJKAS_clean_linker_0, # of connection points: 2
#     Edge 26, Type (0, 0), BuildingBlock: ZUJKAS_clean_linker_0, # of connection points: 2
#     Edge 27, Type (0, 0), BuildingBlock: ZUJKAS_clean_linker_0, # of connection points: 2
#     Edge 28, Type (0, 0), BuildingBlock: ZUJKAS_clean_linker_0, # of connection points: 2
#     Edge 29, Type (0, 0), BuildingBlock: ZUJKAS_clean_linker_0, # of connection points: 2
#     Edge 30, Type (0, 0), BuildingBlock: ZUJKAS_clean_linker_0, # of connection points: 2
#     Edge 31, Type (0, 0), BuildingBlock: ZUJKAS_clean_linker_0, # of connection points: 2
#     Edge 32, Type (0, 0), BuildingBlock: ZUJKAS_clean_linker_0, # of connection points: 2
#     Edge 33, Type (0, 0), BuildingBlock: ZUJKAS_clean_linker_0, # of connection points: 2
#     Edge 34, Type (0, 0), BuildingBlock: ZUJKAS_clean_linker_0, # of connection points: 2
#     Edge 35, Type (0, 0), BuildingBlock: ZUJKAS_clean_linker_0, # of connection points: 2
#     Edge 36, Type (0, 0), BuildingBlock: ZUJKAS_clean_linker_0, # of connection points: 2
#     Edge 37, Type (0, 0), BuildingBlock: ZUJKAS_clean_linker_0, # of connection points: 2
#     Edge 38, Type (0, 0), BuildingBlock: ZUJKAS_clean_linker_0, # of connection points: 2
#     Edge 39, Type (0, 0), BuildingBlock: ZUJKAS_clean_linker_0, # of connection points: 2
#     Edge 40, Type (0, 0), BuildingBlock: ZUJKAS_clean_linker_0, # of connection points: 2
#     Edge 41, Type (0, 0), BuildingBlock: ZUJKAS_clean_linker_0, # of connection points: 2
#     Edge 42, Type (0, 0), BuildingBlock: ZUJKAS_clean_linker_0, # of connection points: 2
#     Edge 43, Type (0, 0), BuildingBlock: ZUJKAS_clean_linker_0, # of connection points: 2
#     Edge 44, Type (0, 0), BuildingBlock: ZUJKAS_clean_linker_0, # of connection points: 2
#     Edge 45, Type (0, 0), BuildingBlock: ZUJKAS_clean_linker_0, # of connection points: 2
#     Edge 46, Type (0, 0), BuildingBlock: ZUJKAS_clean_linker_0, # of connection points: 2
#     Edge 47, Type (0, 0), BuildingBlock: ZUJKAS_clean_linker_0, # of connection points: 2
# Relax obj value: 0.253
# Max RMSD: 0.089
# Mean RMSD: 0.089
data_MOF--net-upb--node1-GALJAG_clean_sbu_0--edge1-ZUJKAS_clean_linker_0
_symmetry_space_group_name_H-M    P1
_symmetry_Int_Tables_number       1
_symmetry_cell_setting            triclinic
loop_
_symmetry_equiv_pos_as_xyz
'x, y, z'
_cell_length_a     57.177211
_cell_length_b     57.18293
_cell_length_c     47.023737
_cell_angle_alpha  90.01911
_cell_angle_beta   90.017568
_cell_angle_gamma 90.004368
loop_
_atom_site_label
_atom_site_type_symbol
_atom_site_fract_x
_atom_site_fract_y
_atom_site_fract_z
_atom_type_partial_charge
In0 In 0.04401 0.22953 0.29203 0.0
O1 O 0.06724 0.19864 0.30351 0.0
O2 O 0.07283 0.21455 0.26335 0.0
C3 C 0.0328 0.23171 0.34761 0.0
C4 C 0.05968 0.27278 0.27861 0.0
C5 C 0.00471 0.21284 0.26731 0.0
O6 O 0.05357 0.22899 0.33907 0.0
O7 O 0.01772 0.23346 0.3281 0.0
O8 O 0.00871 0.23448 0.26945 0.0
O9 O 0.02071 0.19992 0.27691 0.0
C10 C 0.07865 0.19869 0.28059 0.0
O11 O 0.05443 0.25788 0.25987 0.0
O12 O 0.05676 0.26593 0.30378 0.0
In13 In 0.76928 0.04891 0.3001 0.0
O14 O 0.79881 0.07424 0.30952 0.0
O15 O 0.78409 0.07538 0.2681 0.0
C16 C 0.76412 0.03852 0.35564 0.0
C17 C 0.7266 0.06462 0.28479 0.0
C18 C 0.7895 0.00981 0.27931 0.0
O19 O 0.77183 0.05793 0.34703 0.0
O20 O 0.75883 0.02425 0.33617 0.0
O21 O 0.76779 0.01344 0.27726 0.0
O22 O 0.80075 0.02588 0.29149 0.0
C23 C 0.79911 0.08343 0.28517 0.0
O24 O 0.73927 0.05286 0.26811 0.0
O25 O 0.73545 0.0683 0.3089 0.0
In26 In 0.953 0.77126 0.2989 0.0
O27 O 0.95642 0.7339 0.28089 0.0
O28 O 0.92253 0.7482 0.28662 0.0
C29 C 0.99244 0.79327 0.28221 0.0
C30 C 0.92248 0.80488 0.28413 0.0
C31 C 0.95925 0.76037 0.35426 0.0
O32 O 0.98431 0.77603 0.26858 0.0
O33 O 0.98081 0.79899 0.30385 0.0
O34 O 0.94175 0.77159 0.34536 0.0
O35 O 0.97352 0.75435 0.33517 0.0
C36 C 0.9346 0.73088 0.27911 0.0
O37 O 0.9269 0.79963 0.30966 0.0
O38 O 0.93355 0.79311 0.26577 0.0
In39 In 0.23357 0.95819 0.29125 0.0
O40 O 0.2555 0.92644 0.2802 0.0
O41 O 0.27158 0.95953 0.27507 0.0
C42 C 0.22387 0.00163 0.27132 0.0
C43 C 0.19774 0.92924 0.27852 0.0
C44 C 0.23516 0.96264 0.34825 0.0
O45 O 0.22108 0.9835 0.25643 0.0
O46 O 0.23228 0.99786 0.29561 0.0
O47 O 0.21637 0.96429 0.33426 0.0
O48 O 0.25314 0.95859 0.33349 0.0
C49 C 0.27363 0.93761 0.27357 0.0
O50 O 0.20632 0.93092 0.30314 0.0
O51 O 0.20713 0.94231 0.26015 0.0
In52 In 0.04083 0.76457 0.70094 0.0
O53 O 0.07008 0.78993 0.69014 0.0
O54 O 0.06479 0.782 0.73379 0.0
C55 C 0.02617 0.75944 0.64684 0.0
C56 C 0.05844 0.72217 0.71421 0.0
C57 C 0.00254 0.78588 0.72228 0.0
O58 O 0.04378 0.77156 0.65351 0.0
O59 O 0.01594 0.74976 0.66751 0.0
O60 O 0.00655 0.76443 0.72642 0.0
O61 O 0.01793 0.79634 0.70795 0.0
C62 C 0.0763 0.79337 0.71553 0.0
O63 O 0.04533 0.73332 0.73103 0.0
O64 O 0.06252 0.7324 0.69103 0.0
In65 In 0.22505 0.0375 0.69785 0.0
O66 O 0.19604 0.06326 0.68836 0.0
O67 O 0.20905 0.06261 0.73069 0.0
C68 C 0.23026 0.0233 0.64346 0.0
C69 C 0.267 0.05705 0.70909 0.0
C70 C 0.20572 0.99891 0.72119 0.0
O71 O 0.21847 0.04104 0.65037 0.0
O72 O 0.2396 0.01266 0.66402 0.0
O73 O 0.22698 0.00406 0.72484 0.0
O74 O 0.19441 0.01337 0.70638 0.0
C75 C 0.19484 0.0715 0.71318 0.0
O76 O 0.2585 0.04109 0.72451 0.0
O77 O 0.25433 0.06304 0.68843 0.0
In78 In 0.95786 0.23247 0.69841 0.0
O79 O 0.94969 0.26267 0.72918 0.0
O80 O 0.94214 0.2673 0.68542 0.0
C81 C 0.99625 0.21318 0.7224 0.0
C82 C 0.92228 0.20333 0.71165 0.0
C83 C 0.9704 0.23439 0.64325 0.0
O84 O 0.99318 0.23505 0.72172 0.0
O85 O 0.97987 0.20141 0.71164 0.0
O86 O 0.95018 0.22843 0.65125 0.0
O87 O 0.98435 0.23952 0.66313 0.0
C88 C 0.9416 0.27586 0.71005 0.0
O89 O 0.9322 0.20346 0.68772 0.0
O90 O 0.93014 0.21816 0.72909 0.0
In91 In 0.77098 0.95977 0.70452 0.0
O92 O 0.79806 0.93239 0.69307 0.0
O93 O 0.78858 0.93523 0.73662 0.0
C94 C 0.76758 0.97365 0.64996 0.0
C95 C 0.72921 0.93993 0.71617 0.0
C96 C 0.78898 0.99933 0.72711 0.0
O97 O 0.78011 0.95663 0.65768 0.0
O98 O 0.75667 0.98375 0.66983 0.0
O99 O 0.76736 0.99492 0.72789 0.0
O100 O 0.80124 0.98363 0.71572 0.0
C101 C 0.801 0.92512 0.71812 0.0
O102 O 0.7407 0.95093 0.73479 0.0
O103 O 0.73871 0.93918 0.69206 0.0
In104 In 0.53717 0.72916 0.79681 0.0
O105 O 0.54438 0.75892 0.76533 0.0
O106 O 0.55984 0.76069 0.80634 0.0
C107 C 0.49588 0.71393 0.77555 0.0
C108 C 0.57237 0.69999 0.78275 0.0
C109 C 0.52579 0.73037 0.8524 0.0
O110 O 0.49956 0.73517 0.78119 0.0
O111 O 0.51314 0.70073 0.77978 0.0
O112 O 0.53621 0.71327 0.84116 0.0
O113 O 0.52093 0.74683 0.83554 0.0
C114 C 0.55733 0.77009 0.78232 0.0
O115 O 0.56678 0.70444 0.80813 0.0
O116 O 0.56026 0.71042 0.76421 0.0
In117 In 0.26876 0.53825 0.79602 0.0
O118 O 0.28288 0.57441 0.8069 0.0
O119 O 0.28913 0.56134 0.76524 0.0
C120 C 0.27226 0.52666 0.85145 0.0
C121 C 0.22484 0.55085 0.78112 0.0
C122 C 0.29007 0.50033 0.77353 0.0
O123 O 0.28473 0.54233 0.84019 0.0
O124 O 0.25822 0.51667 0.83468 0.0
O125 O 0.26836 0.50076 0.77834 0.0
O126 O 0.30067 0.51897 0.77955 0.0
C127 C 0.2921 0.57775 0.78285 0.0
O128 O 0.24001 0.5452 0.76292 0.0
O129 O 0.2317 0.54961 0.80648 0.0
In130 In 0.46242 0.26203 0.79098 0.0
O131 O 0.46088 0.22607 0.76882 0.0
O132 O 0.42955 0.24052 0.78526 0.0
C133 C 0.50558 0.2706 0.76967 0.0
C134 C 0.43372 0.29827 0.77988 0.0
C135 C 0.46931 0.26014 0.84767 0.0
O136 O 0.48734 0.27981 0.75963 0.0
O137 O 0.50193 0.25625 0.78949 0.0
O138 O 0.47202 0.27862 0.83341 0.0
O139 O 0.46313 0.24253 0.83333 0.0
C140 C 0.43919 0.22363 0.77277 0.0
O141 O 0.438 0.29115 0.80474 0.0
O142 O 0.44406 0.28714 0.76036 0.0
In143 In 0.72694 0.45681 0.79432 0.0
O144 O 0.75478 0.45051 0.75999 0.0
O145 O 0.76331 0.44263 0.80284 0.0
C146 C 0.7075 0.49677 0.77498 0.0
C147 C 0.701 0.41917 0.77958 0.0
C148 C 0.72727 0.46789 0.85003 0.0
O149 O 0.72895 0.4923 0.77153 0.0
O150 O 0.69613 0.48105 0.78765 0.0
O151 O 0.71313 0.4533 0.83954 0.0
O152 O 0.74123 0.47693 0.8324 0.0
C153 C 0.76982 0.4428 0.77728 0.0
O154 O 0.71324 0.41986 0.80187 0.0
O155 O 0.70207 0.43735 0.76446 0.0
In156 In 0.53485 0.26928 0.20015 0.0
O157 O 0.55913 0.29919 0.18836 0.0
O158 O 0.56396 0.28354 0.22889 0.0
C159 C 0.52222 0.26527 0.1452 0.0
C160 C 0.55169 0.22658 0.21362 0.0
C161 C 0.49645 0.28841 0.22429 0.0
O162 O 0.54202 0.27277 0.15282 0.0
O163 O 0.50872 0.25973 0.16535 0.0
O164 O 0.49972 0.26659 0.22376 0.0
O165 O 0.51267 0.30027 0.21335 0.0
C166 C 0.57046 0.29894 0.21136 0.0
O167 O 0.54397 0.24046 0.23226 0.0
O168 O 0.55061 0.23416 0.18854 0.0
In169 In 0.73161 0.53776 0.20271 0.0
O170 O 0.70916 0.56945 0.1931 0.0
O171 O 0.71453 0.56096 0.23663 0.0
C172 C 0.73094 0.52502 0.14745 0.0
C173 C 0.77425 0.55541 0.21478 0.0
C174 C 0.71339 0.49815 0.225 0.0
O175 O 0.71508 0.53719 0.15871 0.0
O176 O 0.74725 0.51919 0.16407 0.0
O177 O 0.73512 0.50088 0.22176 0.0
O178 O 0.70122 0.51552 0.21785 0.0
C179 C 0.70496 0.57438 0.21874 0.0
O180 O 0.7639 0.54147 0.23139 0.0
O181 O 0.76312 0.56021 0.1924 0.0
In182 In 0.46341 0.729 0.20662 0.0
O183 O 0.43033 0.70796 0.19898 0.0
O184 O 0.44286 0.7098 0.24142 0.0
C185 C 0.47531 0.73028 0.1512 0.0
C186 C 0.44641 0.7719 0.21875 0.0
C187 C 0.5032 0.70967 0.22673 0.0
O188 O 0.46134 0.71538 0.16131 0.0
O189 O 0.48351 0.74453 0.16912 0.0
O190 O 0.49877 0.73117 0.22974 0.0
O191 O 0.48751 0.69819 0.21409 0.0
C192 C 0.42762 0.70191 0.22453 0.0
O193 O 0.46023 0.7614 0.23536 0.0
O194 O 0.44141 0.76079 0.19646 0.0
In195 In 0.26851 0.46611 0.20638 0.0
O196 O 0.29693 0.44028 0.19415 0.0
O197 O 0.28382 0.43856 0.23639 0.0
C198 C 0.27037 0.47833 0.15104 0.0
C199 C 0.22667 0.44636 0.21765 0.0
C200 C 0.28218 0.50596 0.23292 0.0
O201 O 0.28817 0.47188 0.16483 0.0
O202 O 0.25165 0.47885 0.16525 0.0
O203 O 0.26504 0.50528 0.2161 0.0
O204 O 0.2918 0.48648 0.2371 0.0
C205 C 0.29784 0.43046 0.21814 0.0
O206 O 0.2353 0.46207 0.23335 0.0
O207 O 0.23904 0.44092 0.19651 0.0
H208 H 0.1059 0.19493 0.23284 0.0
H209 H 0.13394 0.1637 0.22155 0.0
H210 H 0.11965 0.13112 0.30237 0.0
H211 H 0.09176 0.16206 0.31379 0.0
H212 H 0.17502 0.14753 0.25434 0.0
H213 H 0.10648 0.07984 0.24082 0.0
H214 H 0.10024 0.11079 0.23948 0.0
H215 H 0.1038 0.09636 0.27316 0.0
C216 C 0.10885 0.18115 0.24822 0.0
C217 C 0.09654 0.18084 0.27412 0.0
C218 C 0.12484 0.16338 0.24175 0.0
C219 C 0.12855 0.145 0.26097 0.0
C220 C 0.11674 0.14501 0.2871 0.0
H221 H 0.22756 0.04234 0.30089 0.0
H222 H 0.20703 0.07888 0.29158 0.0
C223 C 0.10088 0.16274 0.29362 0.0
C224 C 0.1445 0.12547 0.25398 0.0
H225 H 0.14553 0.06609 0.24795 0.0
C226 C 0.16863 0.12974 0.25244 0.0
C227 C 0.13604 0.10239 0.25094 0.0
C228 C 0.1102 0.09702 0.2509 0.0
C229 C 0.18465 0.11123 0.2498 0.0
C230 C 0.17624 0.08795 0.24905 0.0
C231 C 0.15202 0.08391 0.24871 0.0
C232 C 0.19194 0.06743 0.25169 0.0
C233 C 0.21041 0.11675 0.2484 0.0
C234 C 0.19046 0.0488 0.23229 0.0
C235 C 0.20207 0.02773 0.23772 0.0
C236 C 0.21518 0.02492 0.26277 0.0
C237 C 0.21764 0.044 0.28137 0.0
C238 C 0.20605 0.06501 0.27594 0.0
H239 H 0.21347 0.13433 0.23905 0.0
H240 H 0.21772 0.11683 0.27026 0.0
H241 H 0.22003 0.10355 0.23563 0.0
H242 H 0.17953 0.05025 0.21354 0.0
H243 H 0.19982 0.0133 0.22304 0.0
H244 H 0.96624 0.23667 0.24786 0.0
H245 H 0.92714 0.22046 0.23897 0.0
H246 H 0.95306 0.15128 0.25757 0.0
H247 H 0.99203 0.16713 0.2655 0.0
H248 H 0.92148 0.15072 0.21434 0.0
H249 H 0.88733 0.20172 0.30637 0.0
H250 H 0.89933 0.21841 0.27751 0.0
H251 H 0.91812 0.20003 0.29845 0.0
C252 C 0.96363 0.21796 0.2495 0.0
C253 C 0.98209 0.20319 0.25773 0.0
C254 C 0.94128 0.20875 0.24461 0.0
C255 C 0.93708 0.18473 0.24824 0.0
C256 C 0.95586 0.16987 0.25473 0.0
H257 H 0.8343 0.10038 0.31793 0.0
H258 H 0.86483 0.1279 0.30436 0.0
C259 C 0.97814 0.17899 0.25936 0.0
C260 C 0.91308 0.17492 0.24786 0.0
H261 H 0.86266 0.17352 0.28669 0.0
C262 C 0.90839 0.15594 0.22978 0.0
C263 C 0.89612 0.18175 0.26817 0.0
C264 C 0.90041 0.20146 0.28891 0.0
C265 C 0.88787 0.14265 0.23265 0.0
C266 C 0.87138 0.14893 0.25374 0.0
C267 C 0.87536 0.16883 0.27052 0.0
C268 C 0.85177 0.13328 0.26164 0.0
C269 C 0.88482 0.1211 0.21449 0.0
C270 C 0.83404 0.12741 0.24224 0.0
C271 C 0.81657 0.11142 0.24992 0.0
C272 C 0.81652 0.10131 0.27718 0.0
C273 C 0.83388 0.10783 0.29676 0.0
C274 C 0.85132 0.12361 0.28905 0.0
H275 H 0.90101 0.11658 0.20264 0.0
H276 H 0.87973 0.10588 0.22777 0.0
H277 H 0.87068 0.12419 0.19877 0.0
H278 H 0.83382 0.135 0.22115 0.0
H279 H 0.8033 0.1068 0.23446 0.0
H280 H 0.83523 0.99811 0.28526 0.0
H281 H 0.85374 0.96093 0.27414 0.0
H282 H 0.78844 0.9348 0.24082 0.0
H283 H 0.76951 0.97208 0.25271 0.0
H284 H 0.8071 0.90469 0.27708 0.0
H285 H 0.87616 0.93119 0.20215 0.0
H286 H 0.87765 0.94901 0.23342 0.0
H287 H 0.85202 0.95019 0.21107 0.0
C288 C 0.82484 0.98461 0.27516 0.0
C289 C 0.80091 0.98799 0.26987 0.0
C290 C 0.83553 0.96341 0.26853 0.0
C291 C 0.82263 0.94522 0.25605 0.0
C292 C 0.79879 0.94869 0.25016 0.0
H293 H 0.9085 0.81878 0.23099 0.0
H294 H 0.88096 0.85029 0.21925 0.0
C295 C 0.788 0.96995 0.25696 0.0
C296 C 0.83367 0.92197 0.25224 0.0
H297 H 0.88454 0.89637 0.23062 0.0
C298 C 0.82377 0.90273 0.26632 0.0
C299 C 0.85514 0.91916 0.23765 0.0
C300 C 0.86568 0.93847 0.21996 0.0
C301 C 0.83571 0.88138 0.26825 0.0
C302 C 0.85838 0.87945 0.25641 0.0
C303 C 0.86737 0.898 0.24023 0.0
C304 C 0.87391 0.85946 0.26308 0.0
C305 C 0.82419 0.86132 0.28366 0.0
C306 C 0.8793 0.85442 0.29154 0.0
C307 C 0.89488 0.83652 0.29826 0.0
C308 C 0.90566 0.82346 0.27663 0.0
C309 C 0.90039 0.82855 0.24809 0.0
C310 C 0.88467 0.84648 0.24136 0.0
H311 H 0.80484 0.86236 0.28194 0.0
H312 H 0.83005 0.84417 0.27517 0.0
H313 H 0.82875 0.86221 0.30658 0.0
H314 H 0.87178 0.86466 0.30863 0.0
H315 H 0.89871 0.83313 0.32044 0.0
H316 H 0.00948 0.83278 0.30634 0.0
H317 H 0.04518 0.85378 0.29447 0.0
H318 H 0.05991 0.80401 0.22792 0.0
H319 H 0.02385 0.78261 0.23983 0.0
H320 H 0.09811 0.81325 0.26496 0.0
H321 H 0.059 0.89544 0.22532 0.0
H322 H 0.04681 0.88669 0.25883 0.0
H323 H 0.04263 0.8685 0.22798 0.0
C324 C 0.02017 0.82633 0.28902 0.0
C325 C 0.01384 0.80606 0.27397 0.0
C326 C 0.0405 0.83848 0.28213 0.0
C327 C 0.05495 0.8307 0.25999 0.0
C328 C 0.04881 0.81041 0.24489 0.0
H329 H 0.17494 0.92357 0.22774 0.0
H330 H 0.14187 0.89746 0.21767 0.0
C331 C 0.02827 0.79823 0.2517 0.0
C332 C 0.0771 0.84324 0.25425 0.0
H333 H 0.09854 0.89818 0.2433 0.0
C334 C 0.09829 0.8317 0.25959 0.0
C335 C 0.07732 0.8672 0.24681 0.0
C336 C 0.05522 0.88013 0.23911 0.0
C337 C 0.11957 0.84395 0.2598 0.0
C338 C 0.11951 0.86837 0.25493 0.0
C339 C 0.09854 0.87952 0.24743 0.0
C340 C 0.14045 0.88301 0.26016 0.0
C341 C 0.14183 0.83075 0.26598 0.0
C342 C 0.1504 0.88371 0.28743 0.0
C343 C 0.16913 0.89859 0.29324 0.0
C344 C 0.17822 0.9132 0.27193 0.0
C345 C 0.16831 0.91247 0.24457 0.0
C346 C 0.14948 0.89756 0.23877 0.0
H347 H 0.14026 0.81206 0.25977 0.0
H348 H 0.15696 0.83855 0.25462 0.0
H349 H 0.14542 0.8314 0.28916 0.0
H350 H 0.14332 0.87309 0.30445 0.0
H351 H 0.17633 0.89883 0.31456 0.0
H352 H 0.10163 0.8205 0.67947 0.0
H353 H 0.12916 0.85141 0.69171 0.0
H354 H 0.12007 0.83611 0.78086 0.0
H355 H 0.09194 0.80526 0.7687 0.0
H356 H 0.11538 0.88186 0.77045 0.0
H357 H 0.19601 0.85129 0.71817 0.0
H358 H 0.17216 0.85082 0.69345 0.0
H359 H 0.17137 0.83219 0.72436 0.0
C360 C 0.10574 0.82344 0.70168 0.0
C361 C 0.09463 0.81046 0.72313 0.0
C362 C 0.12167 0.841 0.70865 0.0
C363 C 0.12706 0.84578 0.73718 0.0
C364 C 0.11634 0.83254 0.75869 0.0
H365 H 0.22699 0.96254 0.74909 0.0
H366 H 0.20963 0.92449 0.76103 0.0
C367 C 0.1003 0.81495 0.75172 0.0
C368 C 0.14203 0.86617 0.74422 0.0
H369 H 0.19223 0.89357 0.72365 0.0
C370 C 0.13245 0.8842 0.76078 0.0
C371 C 0.16454 0.86908 0.73225 0.0
C372 C 0.1767 0.84966 0.71635 0.0
C373 C 0.14388 0.90579 0.7636 0.0
C374 C 0.16515 0.90957 0.74894 0.0
C375 C 0.17571 0.89085 0.73449 0.0
C376 C 0.17516 0.9333 0.74529 0.0
C377 C 0.13266 0.92456 0.78155 0.0
C378 C 0.16154 0.95085 0.73261 0.0
C379 C 0.17135 0.97246 0.72587 0.0
C380 C 0.19508 0.97692 0.73137 0.0
C381 C 0.20863 0.95959 0.74471 0.0
C382 C 0.19875 0.93788 0.75151 0.0
H383 H 0.12239 0.91677 0.79922 0.0
H384 H 0.14591 0.93664 0.79065 0.0
H385 H 0.12039 0.93484 0.7682 0.0
H386 H 0.1435 0.94753 0.72684 0.0
H387 H 0.16047 0.9854 0.71548 0.0
H388 H 0.18931 0.09387 0.76448 0.0
H389 H 0.1598 0.12349 0.77662 0.0
H390 H 0.13204 0.1193 0.69144 0.0
H391 H 0.16156 0.09034 0.67909 0.0
H392 H 0.13672 0.1646 0.7102 0.0
H393 H 0.09061 0.10963 0.7903 0.0
H394 H 0.12122 0.11498 0.79621 0.0
H395 H 0.11213 0.09767 0.76632 0.0
C396 C 0.17693 0.09937 0.74839 0.0
C397 C 0.17765 0.08972 0.72088 0.0
C398 C 0.16004 0.11619 0.75538 0.0
C399 C 0.14356 0.12339 0.73502 0.0
C400 C 0.14459 0.11402 0.70748 0.0
H401 H 0.00629 0.16683 0.72265 0.0
H402 H 0.04383 0.14839 0.73218 0.0
C403 C 0.16144 0.0974 0.70047 0.0
C404 C 0.12474 0.1403 0.74191 0.0
H405 H 0.07306 0.14516 0.77775 0.0
C406 C 0.12297 0.16063 0.72534 0.0
C407 C 0.10687 0.13498 0.76168 0.0
C408 C 0.10758 0.11309 0.77958 0.0
C409 C 0.10308 0.17497 0.72654 0.0
C410 C 0.08472 0.16911 0.74544 0.0
C411 C 0.08721 0.14963 0.76339 0.0
C412 C 0.06149 0.18055 0.74356 0.0
C413 C 0.10119 0.19521 0.70605 0.0
C414 C 0.05868 0.20473 0.74765 0.0
C415 C 0.03714 0.21544 0.74187 0.0
C416 C 0.01811 0.20203 0.73224 0.0
C417 C 0.02065 0.17767 0.72988 0.0
C418 C 0.04211 0.16707 0.73543 0.0
H419 H 0.11513 0.19483 0.68961 0.0
H420 H 0.08395 0.1951 0.69517 0.0
H421 H 0.10279 0.21189 0.71795 0.0
H422 H 0.07328 0.2154 0.7545 0.0
H423 H 0.03562 0.23423 0.74407 0.0
H424 H 0.89821 0.19894 0.76182 0.0
H425 H 0.86939 0.16875 0.77412 0.0
H426 H 0.87652 0.13891 0.6903 0.0
H427 H 0.90477 0.16911 0.67774 0.0
H428 H 0.83053 0.14144 0.70823 0.0
H429 H 0.88751 0.10094 0.79075 0.0
H430 H 0.8804 0.13132 0.79533 0.0
H431 H 0.89836 0.12241 0.76596 0.0
C432 C 0.89346 0.18602 0.74599 0.0
C433 C 0.90384 0.18626 0.71889 0.0
C434 C 0.8771 0.16874 0.75309 0.0
C435 C 0.87107 0.15141 0.73325 0.0
C436 C 0.88093 0.15211 0.70594 0.0
H437 H 0.83477 0.01171 0.72607 0.0
H438 H 0.85135 0.05041 0.7338 0.0
C439 C 0.89713 0.16935 0.69882 0.0
C440 C 0.85523 0.13183 0.74069 0.0
H441 H 0.85305 0.0811 0.77884 0.0
C442 C 0.83516 0.12841 0.72403 0.0
C443 C 0.86143 0.1149 0.76129 0.0
C444 C 0.88316 0.11736 0.77929 0.0
C445 C 0.8219 0.10783 0.72613 0.0
C446 C 0.82865 0.09045 0.74591 0.0
C447 C 0.84788 0.09453 0.76381 0.0
C448 C 0.81844 0.06663 0.74514 0.0
C449 C 0.80182 0.10419 0.70573 0.0
C450 C 0.7945 0.06269 0.74984 0.0
C451 C 0.78488 0.04048 0.74519 0.0
C452 C 0.79914 0.02193 0.736 0.0
C453 C 0.82329 0.02567 0.73299 0.0
C454 C 0.83282 0.04779 0.73749 0.0
H455 H 0.80137 0.11769 0.68875 0.0
H456 H 0.803 0.08671 0.69554 0.0
H457 H 0.78507 0.10506 0.71757 0.0
H458 H 0.78317 0.07691 0.75628 0.0
H459 H 0.76622 0.03804 0.74784 0.0
H460 H 0.81112 0.90623 0.77034 0.0
H461 H 0.84187 0.87768 0.78149 0.0
H462 H 0.86116 0.87513 0.69286 0.0
H463 H 0.83037 0.90308 0.68155 0.0
H464 H 0.85978 0.8314 0.71796 0.0
H465 H 0.9114 0.89447 0.78293 0.0
H466 H 0.88176 0.88919 0.79394 0.0
H467 H 0.88735 0.90365 0.76074 0.0
C468 C 0.82184 0.89942 0.75326 0.0
C469 C 0.81847 0.90699 0.7251 0.0
C470 C 0.83945 0.88322 0.75968 0.0
C471 C 0.85399 0.87454 0.73805 0.0
C472 C 0.85014 0.88161 0.70987 0.0
H473 H 0.99085 0.83133 0.71391 0.0
H474 H 0.95362 0.85024 0.72403 0.0
C475 C 0.83257 0.89765 0.70345 0.0
C476 C 0.87387 0.85875 0.74431 0.0
H477 H 0.92863 0.85819 0.77325 0.0
C478 C 0.87471 0.83702 0.73047 0.0
C479 C 0.8933 0.86624 0.76058 0.0
C480 C 0.89363 0.8897 0.7753 0.0
C481 C 0.89496 0.82316 0.73102 0.0
C482 C 0.91472 0.83108 0.74638 0.0
C483 C 0.91339 0.85216 0.76163 0.0
C484 C 0.93787 0.8197 0.74333 0.0
C485 C 0.89556 0.80101 0.71356 0.0
C486 C 0.9416 0.79636 0.75147 0.0
C487 C 0.96295 0.78538 0.74547 0.0
C488 C 0.98085 0.79769 0.73145 0.0
C489 C 0.97737 0.82134 0.7246 0.0
C490 C 0.95611 0.83221 0.73047 0.0
H491 H 0.88018 0.79947 0.69924 0.0
H492 H 0.91169 0.8003 0.70043 0.0
H493 H 0.89562 0.78567 0.72799 0.0
H494 H 0.92788 0.78652 0.76188 0.0
H495 H 0.96522 0.76717 0.75114 0.0
H496 H 0.59761 0.67329 0.81938 0.0
H497 H 0.62596 0.64296 0.80783 0.0
H498 H 0.61764 0.65779 0.71844 0.0
H499 H 0.58861 0.68796 0.72991 0.0
H500 H 0.6145 0.61224 0.72831 0.0
H501 H 0.69303 0.64489 0.78337 0.0
H502 H 0.6688 0.64431 0.80749 0.0
H503 H 0.66788 0.66323 0.77683 0.0
C504 C 0.60203 0.67035 0.79727 0.0
C505 C 0.5909 0.683 0.77555 0.0
C506 C 0.61843 0.65313 0.7907 0.0
C507 C 0.62434 0.64842 0.76229 0.0
C508 C 0.61352 0.6613 0.74052 0.0
H509 H 0.72824 0.53494 0.7501 0.0
H510 H 0.70994 0.57286 0.73968 0.0
C511 C 0.59695 0.67849 0.74709 0.0
C512 C 0.64006 0.62852 0.75562 0.0
H513 H 0.69073 0.60255 0.7773 0.0
C514 C 0.63142 0.61035 0.73849 0.0
C515 C 0.66241 0.62621 0.76824 0.0
C516 C 0.67365 0.64586 0.78472 0.0
C517 C 0.64364 0.58921 0.73565 0.0
C518 C 0.66473 0.58597 0.75091 0.0
C519 C 0.67434 0.60484 0.76602 0.0
C520 C 0.67554 0.56256 0.75426 0.0
C521 C 0.63347 0.57032 0.71696 0.0
C522 C 0.66231 0.54427 0.76594 0.0
C523 C 0.67264 0.52273 0.7718 0.0
C524 C 0.69653 0.51907 0.76642 0.0
C525 C 0.70977 0.53725 0.75435 0.0
C526 C 0.69935 0.55889 0.74841 0.0
H527 H 0.62324 0.57801 0.69917 0.0
H528 H 0.64732 0.55889 0.70798 0.0
H529 H 0.62135 0.55939 0.72972 0.0
H530 H 0.6441 0.54687 0.77144 0.0
H531 H 0.662 0.50913 0.78126 0.0
H532 H 0.45406 0.73729 0.77445 0.0
H533 H 0.41496 0.7198 0.77044 0.0
H534 H 0.44614 0.65216 0.7563 0.0
H535 H 0.48511 0.66935 0.76037 0.0
H536 H 0.39242 0.6865 0.72581 0.0
H537 H 0.40721 0.65033 0.83406 0.0
H538 H 0.42381 0.67464 0.82013 0.0
H539 H 0.43041 0.64534 0.80896 0.0
C540 C 0.45255 0.71879 0.76983 0.0
C541 C 0.4726 0.70462 0.76805 0.0
C542 C 0.43024 0.70887 0.76753 0.0
C543 C 0.42779 0.68471 0.76338 0.0
C544 C 0.44777 0.67083 0.75968 0.0
H545 H 0.31946 0.58501 0.73617 0.0
H546 H 0.34939 0.61507 0.73013 0.0
C547 C 0.46999 0.68069 0.76203 0.0
C548 C 0.40469 0.67338 0.76603 0.0
H549 H 0.37449 0.63592 0.80872 0.0
C550 C 0.38829 0.67562 0.74401 0.0
C551 C 0.39931 0.65958 0.79006 0.0
C552 C 0.41598 0.6574 0.81481 0.0
C553 C 0.36689 0.6635 0.74493 0.0
C554 C 0.36209 0.64864 0.76829 0.0
C555 C 0.37817 0.64726 0.79078 0.0
C556 C 0.34133 0.63313 0.7694 0.0
C557 C 0.34972 0.66665 0.72089 0.0
C558 C 0.32674 0.6333 0.79342 0.0
C559 C 0.30985 0.61592 0.79713 0.0
C560 C 0.30727 0.59805 0.77687 0.0
C561 C 0.321 0.59862 0.75209 0.0
C562 C 0.338 0.61592 0.74849 0.0
H563 H 0.35224 0.68375 0.7101 0.0
H564 H 0.35254 0.65267 0.70488 0.0
H565 H 0.33139 0.66551 0.72857 0.0
H566 H 0.32908 0.64635 0.80989 0.0
H567 H 0.29947 0.61595 0.8164 0.0
H568 H 0.33363 0.49815 0.75078 0.0
H569 H 0.35719 0.46318 0.74255 0.0
H570 H 0.29932 0.41993 0.76911 0.0
H571 H 0.27538 0.45492 0.77636 0.0
H572 H 0.36985 0.43517 0.78378 0.0
H573 H 0.32327 0.38249 0.70296 0.0
H574 H 0.31651 0.41289 0.70937 0.0
H575 H 0.30455 0.39047 0.73198 0.0
C576 C 0.32575 0.48114 0.75416 0.0
C577 C 0.30273 0.4792 0.76429 0.0
C578 C 0.33922 0.46118 0.74945 0.0
C579 C 0.33002 0.43889 0.75503 0.0
C580 C 0.30666 0.43687 0.76399 0.0
H581 H 0.40735 0.32188 0.81845 0.0
H582 H 0.38228 0.35572 0.81009 0.0
C583 C 0.29302 0.45688 0.76831 0.0
C584 C 0.34576 0.41825 0.75511 0.0
H585 H 0.35155 0.36199 0.73168 0.0
C586 C 0.36596 0.4193 0.77205 0.0
C587 C 0.34085 0.39759 0.73964 0.0
C588 C 0.32024 0.39584 0.71973 0.0
C589 C 0.38098 0.40009 0.77466 0.0
C590 C 0.37534 0.37899 0.76057 0.0
C591 C 0.35563 0.37811 0.74279 0.0
C592 C 0.38938 0.35755 0.76495 0.0
C593 C 0.40277 0.40259 0.79256 0.0
C594 C 0.40102 0.34685 0.74211 0.0
C595 C 0.41527 0.32732 0.7468 0.0
C596 C 0.41801 0.31824 0.77438 0.0
C597 C 0.40579 0.32863 0.79701 0.0
C598 C 0.39151 0.34801 0.7923 0.0
H599 H 0.40808 0.4212 0.79475 0.0
H600 H 0.39928 0.39568 0.81419 0.0
H601 H 0.41759 0.39262 0.78329 0.0
H602 H 0.39947 0.35391 0.72082 0.0
H603 H 0.42441 0.31958 0.72895 0.0
H604 H 0.66688 0.4173 0.73903 0.0
H605 H 0.63768 0.38646 0.73235 0.0
H606 H 0.67078 0.34543 0.79795 0.0
H607 H 0.69961 0.37648 0.80533 0.0
H608 H 0.63889 0.33906 0.71927 0.0
H609 H 0.60495 0.35394 0.82849 0.0
H610 H 0.62551 0.37349 0.81179 0.0
H611 H 0.6354 0.34645 0.8272 0.0
C612 C 0.66807 0.40159 0.75182 0.0
C613 C 0.68529 0.39941 0.77299 0.0
C614 C 0.65142 0.38398 0.74794 0.0
C615 C 0.65179 0.36388 0.76506 0.0
C616 C 0.66986 0.36104 0.78498 0.0
H617 H 0.54703 0.25637 0.79253 0.0
H618 H 0.58497 0.2757 0.78771 0.0
C619 C 0.68636 0.37875 0.78909 0.0
C620 C 0.63239 0.34674 0.76342 0.0
H621 H 0.58786 0.32327 0.80237 0.0
C622 C 0.62777 0.3355 0.73744 0.0
C623 C 0.61781 0.34228 0.78713 0.0
C624 C 0.62097 0.35481 0.81515 0.0
C625 C 0.60896 0.31983 0.73461 0.0
C626 C 0.59441 0.31548 0.75831 0.0
C627 C 0.59924 0.32647 0.78432 0.0
C628 C 0.5731 0.30084 0.75653 0.0
C629 C 0.6048 0.30803 0.70638 0.0
C630 C 0.55405 0.30817 0.73996 0.0
C631 C 0.53232 0.29719 0.74271 0.0
C632 C 0.5293 0.27879 0.76219 0.0
C633 C 0.5488 0.2705 0.77735 0.0
C634 C 0.57049 0.28152 0.77464 0.0
H635 H 0.6207 0.30833 0.69282 0.0
H636 H 0.59919 0.2896 0.7094 0.0
H637 H 0.59065 0.31738 0.6949 0.0
H638 H 0.55557 0.32331 0.72624 0.0
H639 H 0.51759 0.304 0.73081 0.0
H640 H 0.73525 0.45673 0.23778 0.0
H641 H 0.71656 0.41852 0.2449 0.0
H642 H 0.64866 0.45078 0.237 0.0
H643 H 0.66707 0.48884 0.2307 0.0
H644 H 0.64927 0.41671 0.27793 0.0
H645 H 0.68866 0.38462 0.17687 0.0
H646 H 0.70884 0.39372 0.20399 0.0
H647 H 0.69005 0.4149 0.1874 0.0
C648 C 0.71634 0.45568 0.23808 0.0
C649 C 0.70262 0.4757 0.23336 0.0
C650 C 0.7057 0.43384 0.24196 0.0
C651 C 0.68123 0.43175 0.24088 0.0
C652 C 0.66757 0.45196 0.23782 0.0
H653 H 0.58449 0.3351 0.17805 0.0
H654 H 0.61401 0.36461 0.18868 0.0
C655 C 0.67814 0.47372 0.23413 0.0
C656 C 0.66954 0.40861 0.24066 0.0
H657 H 0.66111 0.36046 0.19894 0.0
C658 C 0.65208 0.40417 0.26096 0.0
C659 C 0.67317 0.39242 0.21831 0.0
C660 C 0.69105 0.39661 0.19524 0.0
C661 C 0.63735 0.38461 0.25871 0.0
C662 C 0.64053 0.36882 0.23586 0.0
C663 C 0.65879 0.3726 0.21646 0.0
C664 C 0.62344 0.35003 0.22959 0.0
C665 C 0.61761 0.38183 0.27974 0.0
C666 C 0.61913 0.33182 0.24892 0.0
C667 C 0.60205 0.31495 0.24296 0.0
C668 C 0.58922 0.31597 0.21746 0.0
C669 C 0.59405 0.33387 0.19789 0.0
C670 C 0.61096 0.35072 0.20391 0.0
H671 H 0.615 0.3978 0.29283 0.0
H672 H 0.60097 0.37776 0.26859 0.0
H673 H 0.62161 0.3671 0.2943 0.0
H674 H 0.62887 0.33071 0.26862 0.0
H675 H 0.59879 0.30125 0.25835 0.0
H676 H 0.51606 0.66437 0.2198 0.0
H677 H 0.5537 0.64662 0.23042 0.0
H678 H 0.5785 0.71214 0.26455 0.0
H679 H 0.5407 0.73033 0.25322 0.0
H680 H 0.60932 0.69403 0.22828 0.0
H681 H 0.58334 0.62445 0.30267 0.0
H682 H 0.56556 0.62287 0.27137 0.0
H683 H 0.56412 0.64843 0.29382 0.0
C684 C 0.52937 0.67497 0.22995 0.0
C685 C 0.52542 0.69875 0.23571 0.0
C686 C 0.55085 0.66471 0.23627 0.0
C687 C 0.56879 0.67788 0.24888 0.0
C688 C 0.56481 0.70158 0.25511 0.0
H689 H 0.69278 0.58889 0.27232 0.0
H690 H 0.66321 0.61823 0.28493 0.0
C691 C 0.54324 0.71194 0.24864 0.0
C692 C 0.5922 0.66716 0.25279 0.0
H693 H 0.61812 0.61637 0.274 0.0
C694 C 0.61141 0.67731 0.23889 0.0
C695 C 0.5952 0.64568 0.26726 0.0
C696 C 0.57597 0.63491 0.28489 0.0
C697 C 0.63288 0.66554 0.23691 0.0
C698 C 0.63496 0.64278 0.24847 0.0
C699 C 0.61644 0.6336 0.26459 0.0
C700 C 0.65487 0.62718 0.24136 0.0
C701 C 0.65289 0.67739 0.22176 0.0
C702 C 0.66005 0.6225 0.21274 0.0
C703 C 0.67694 0.60595 0.20554 0.0
C704 C 0.68879 0.59341 0.2268 0.0
C705 C 0.68395 0.59833 0.25549 0.0
C706 C 0.66708 0.61507 0.26271 0.0
H707 H 0.65199 0.69667 0.22449 0.0
H708 H 0.67009 0.67115 0.22967 0.0
H709 H 0.65168 0.67366 0.19865 0.0
H710 H 0.65038 0.631 0.19585 0.0
H711 H 0.68015 0.60243 0.18324 0.0
H712 H 0.42144 0.68134 0.2766 0.0
H713 H 0.39351 0.65021 0.28864 0.0
H714 H 0.36447 0.65399 0.20418 0.0
H715 H 0.3922 0.68492 0.19192 0.0
H716 H 0.33414 0.64885 0.27042 0.0
H717 H 0.39917 0.58446 0.22939 0.0
H718 H 0.40812 0.61121 0.24671 0.0
H719 H 0.39606 0.61221 0.21156 0.0
C720 C 0.40881 0.67582 0.26079 0.0
C721 C 0.4091 0.68541 0.23326 0.0
C722 C 0.39287 0.65813 0.26773 0.0
C723 C 0.37702 0.64996 0.24726 0.0
C724 C 0.37655 0.66024 0.22024 0.0
H725 H 0.26963 0.55049 0.21865 0.0
H726 H 0.29146 0.58627 0.22875 0.0
C727 C 0.39246 0.67782 0.21327 0.0
C728 C 0.36263 0.62904 0.25273 0.0
H729 H 0.36149 0.57046 0.23971 0.0
C730 C 0.34013 0.63161 0.26414 0.0
C731 C 0.37068 0.60669 0.24463 0.0
C732 C 0.39485 0.60324 0.23245 0.0
C733 C 0.32509 0.61228 0.26684 0.0
C734 C 0.33274 0.59005 0.25739 0.0
C735 C 0.35563 0.58748 0.24701 0.0
C736 C 0.31703 0.56945 0.25589 0.0
C737 C 0.30116 0.61586 0.27958 0.0
C738 C 0.32396 0.54811 0.268 0.0
C739 C 0.31168 0.52758 0.26194 0.0
C740 C 0.29227 0.52804 0.24362 0.0
C741 C 0.28447 0.54962 0.23295 0.0
C742 C 0.29685 0.57014 0.23888 0.0
H743 H 0.30092 0.6312 0.29409 0.0
H744 H 0.28842 0.61925 0.26226 0.0
H745 H 0.29533 0.60017 0.29153 0.0
H746 H 0.33953 0.54716 0.28109 0.0
H747 H 0.31808 0.51121 0.27052 0.0
H748 H 0.3026 0.40547 0.26754 0.0
H749 H 0.33196 0.37536 0.27808 0.0
H750 H 0.36048 0.38327 0.1937 0.0
H751 H 0.33105 0.41281 0.18287 0.0
H752 H 0.35632 0.3371 0.20997 0.0
H753 H 0.40069 0.39 0.29357 0.0
H754 H 0.37012 0.38408 0.2988 0.0
H755 H 0.37923 0.4024 0.26984 0.0
C756 C 0.31508 0.40066 0.25123 0.0
C757 C 0.31466 0.41158 0.22444 0.0
C758 C 0.33188 0.38355 0.25732 0.0
C759 C 0.34858 0.37733 0.2368 0.0
C760 C 0.34776 0.38783 0.20985 0.0
H761 H 0.48634 0.33473 0.22555 0.0
H762 H 0.4486 0.3529 0.23472 0.0
C763 C 0.33097 0.40476 0.20372 0.0
C764 C 0.36755 0.36047 0.24313 0.0
H765 H 0.41859 0.35485 0.28018 0.0
C766 C 0.36977 0.3407 0.22566 0.0
C767 C 0.38503 0.36532 0.26361 0.0
C768 C 0.38387 0.38666 0.28246 0.0
C769 C 0.38971 0.32642 0.22683 0.0
C770 C 0.40764 0.33181 0.24653 0.0
C771 C 0.40473 0.35074 0.26522 0.0
C772 C 0.43092 0.3205 0.2449 0.0
C773 C 0.39211 0.30676 0.20559 0.0
C774 C 0.43373 0.29627 0.24849 0.0
C775 C 0.45539 0.28574 0.24298 0.0
C776 C 0.4745 0.29936 0.23407 0.0
C777 C 0.47192 0.32374 0.23222 0.0
C778 C 0.45035 0.33418 0.23755 0.0
H779 H 0.37842 0.30745 0.18884 0.0
H780 H 0.40952 0.30732 0.19516 0.0
H781 H 0.3905 0.28976 0.21679 0.0
H782 H 0.41905 0.28546 0.2547 0.0
H783 H 0.45694 0.26692 0.24475 0.0
H784 H 0.0681 0.30854 0.31536 0.0
H785 H 0.08987 0.3445 0.30598 0.0
H786 H 0.0977 0.32427 0.21809 0.0
H787 H 0.07544 0.28851 0.22721 0.0
H788 H 0.13471 0.34464 0.28954 0.0
H789 H 0.08213 0.39291 0.21012 0.0
H790 H 0.07025 0.36918 0.23093 0.0
H791 H 0.08741 0.36321 0.19965 0.0
C792 C 0.07404 0.312 0.29389 0.0
C793 C 0.07017 0.29571 0.27201 0.0
C794 C 0.08644 0.33255 0.28857 0.0
C795 C 0.0952 0.33721 0.26129 0.0
C796 C 0.09063 0.32134 0.23916 0.0
H797 H 0.20439 0.41426 0.18477 0.0
H798 H 0.17006 0.39099 0.19706 0.0
C799 C 0.07806 0.30082 0.24442 0.0
C800 C 0.11144 0.35705 0.25682 0.0
H801 H 0.12281 0.40368 0.21365 0.0
C802 C 0.1319 0.35783 0.27332 0.0
C803 C 0.10775 0.37419 0.23561 0.0
C804 C 0.08557 0.375 0.21827 0.0
C805 C 0.1493 0.37457 0.26827 0.0
C806 C 0.14599 0.39117 0.24637 0.0
C807 C 0.12523 0.39092 0.23046 0.0
C808 C 0.16491 0.40739 0.23804 0.0
C809 C 0.1716 0.37365 0.28545 0.0
C810 C 0.17299 0.42472 0.25677 0.0
C811 C 0.19269 0.43807 0.24982 0.0
C812 C 0.20453 0.4342 0.22406 0.0
C813 C 0.19573 0.41753 0.20486 0.0
C814 C 0.17606 0.40429 0.21178 0.0
H815 H 0.17295 0.35737 0.29825 0.0
H816 H 0.1871 0.3748 0.27129 0.0
H817 H 0.17214 0.38877 0.30022 0.0
H818 H 0.16441 0.4275 0.27702 0.0
H819 H 0.19904 0.45088 0.26494 0.0
H820 H 0.69618 0.0884 0.31848 0.0
H821 H 0.66068 0.1088 0.30397 0.0
H822 H 0.66995 0.08411 0.21802 0.0
H823 H 0.7058 0.06372 0.23239 0.0
H824 H 0.66554 0.13209 0.22253 0.0
H825 H 0.59453 0.08856 0.28252 0.0
H826 H 0.61888 0.09657 0.30455 0.0
H827 H 0.62277 0.07515 0.27692 0.0
C828 C 0.69046 0.08695 0.29658 0.0
C829 C 0.7038 0.07458 0.2765 0.0
C830 C 0.67003 0.09844 0.28839 0.0
C831 C 0.6625 0.09767 0.26003 0.0
C832 C 0.67538 0.0847 0.24009 0.0
H833 H 0.56399 0.19213 0.1767 0.0
H834 H 0.58806 0.15776 0.18667 0.0
C835 C 0.69584 0.07312 0.2483 0.0
C836 C 0.64301 0.11284 0.25073 0.0
H837 H 0.58628 0.12729 0.26508 0.0
C838 C 0.64807 0.13079 0.23138 0.0
C839 C 0.62034 0.11118 0.26257 0.0
C840 C 0.61371 0.09168 0.28259 0.0
C841 C 0.6314 0.14783 0.22454 0.0
C842 C 0.60888 0.14654 0.23692 0.0
C843 C 0.60357 0.12819 0.25565 0.0
C844 C 0.59119 0.16489 0.2317 0.0
C845 C 0.63844 0.16769 0.20518 0.0
C846 C 0.58395 0.17949 0.25402 0.0
C847 C 0.56997 0.19902 0.24845 0.0
C848 C 0.56316 0.20419 0.22045 0.0
C849 C 0.56923 0.1887 0.19845 0.0
C850 C 0.58301 0.16912 0.20407 0.0
H851 H 0.65772 0.16891 0.20269 0.0
H852 H 0.63073 0.16484 0.1838 0.0
H853 H 0.63187 0.18466 0.21343 0.0
H854 H 0.59003 0.17642 0.27552 0.0
H855 H 0.56547 0.21064 0.2658 0.0
H856 H 0.79738 0.58773 0.18324 0.0
H857 H 0.83264 0.60909 0.19593 0.0
H858 H 0.83822 0.5693 0.2736 0.0
H859 H 0.80226 0.54817 0.26129 0.0
H860 H 0.84084 0.61407 0.28428 0.0
H861 H 0.90123 0.59638 0.19579 0.0
H862 H 0.87368 0.6058 0.18177 0.0
H863 H 0.87536 0.57893 0.20177 0.0
C864 C 0.8063 0.58321 0.20281 0.0
C865 C 0.797 0.56635 0.22136 0.0
C866 C 0.82668 0.59527 0.20988 0.0
C867 C 0.83843 0.59049 0.23543 0.0
C868 C 0.82958 0.57311 0.25362 0.0
H869 H 0.95535 0.68785 0.27243 0.0
H870 H 0.9354 0.65032 0.26398 0.0
C871 C 0.80903 0.56109 0.24662 0.0
C872 C 0.85789 0.60593 0.24459 0.0
H873 H 0.90592 0.6346 0.21912 0.0
C874 C 0.85541 0.61808 0.27034 0.0
C875 C 0.87723 0.61093 0.22679 0.0
C876 C 0.88214 0.59707 0.20016 0.0
C877 C 0.8705 0.63644 0.27752 0.0
C878 C 0.88816 0.64318 0.25814 0.0
C879 C 0.89201 0.62973 0.23364 0.0
C880 C 0.90082 0.66557 0.26154 0.0
C881 C 0.8668 0.64908 0.30534 0.0
C882 C 0.88807 0.6865 0.26187 0.0
C883 C 0.89929 0.70773 0.26668 0.0
C884 C 0.92359 0.70853 0.27094 0.0
C885 C 0.93659 0.6877 0.26924 0.0
C886 C 0.92525 0.6663 0.26452 0.0
H887 H 0.85851 0.63747 0.32138 0.0
H888 H 0.88356 0.65576 0.31408 0.0
H889 H 0.85492 0.66416 0.30183 0.0
H890 H 0.86928 0.68637 0.25884 0.0
H891 H 0.88883 0.72351 0.26756 0.0
H892 H 0.27983 0.89127 0.2642 0.0
H893 H 0.31659 0.87037 0.25798 0.0
H894 H 0.35456 0.93544 0.26255 0.0
H895 H 0.31748 0.95673 0.26841 0.0
H896 H 0.37079 0.90543 0.21982 0.0
H897 H 0.3634 0.85858 0.32204 0.0
H898 H 0.3373 0.85528 0.30126 0.0
H899 H 0.34579 0.88387 0.31363 0.0
C900 C 0.29596 0.9012 0.26373 0.0
C901 C 0.29582 0.92561 0.26701 0.0
C902 C 0.31697 0.88921 0.2604 0.0
C903 C 0.33831 0.9013 0.26062 0.0
C904 C 0.33826 0.92579 0.26271 0.0
H905 H 0.45318 0.79962 0.26571 0.0
H906 H 0.43262 0.83609 0.27733 0.0
C907 C 0.31711 0.9379 0.26594 0.0
C908 C 0.36041 0.88797 0.25839 0.0
H909 H 0.38744 0.84001 0.28611 0.0
C910 C 0.37479 0.89144 0.23462 0.0
C911 C 0.36605 0.87021 0.27816 0.0
C912 C 0.35245 0.86694 0.30537 0.0
C913 C 0.39344 0.87619 0.22877 0.0
C914 C 0.39733 0.85676 0.24684 0.0
C915 C 0.38427 0.85465 0.27196 0.0
C916 C 0.41242 0.83686 0.23837 0.0
C917 C 0.40831 0.8807 0.20287 0.0
C918 C 0.40797 0.82525 0.21265 0.0
C919 C 0.41967 0.80459 0.20599 0.0
C920 C 0.43585 0.79488 0.22511 0.0
C921 C 0.44078 0.80673 0.25059 0.0
C922 C 0.4291 0.82756 0.2572 0.0
H923 H 0.40968 0.89976 0.19854 0.0
H924 H 0.4262 0.87343 0.2054 0.0
H925 H 0.39998 0.87246 0.18405 0.0
H926 H 0.39467 0.83159 0.19818 0.0
H927 H 0.41542 0.79583 0.18623 0.0
H928 H 0.21002 0.56612 0.72909 0.0
H929 H 0.17493 0.58936 0.71921 0.0
H930 H 0.15275 0.58117 0.80629 0.0
H931 H 0.18799 0.55843 0.81649 0.0
H932 H 0.12567 0.5834 0.72589 0.0
H933 H 0.16185 0.65194 0.79752 0.0
H934 H 0.17898 0.62737 0.78554 0.0
H935 H 0.15792 0.62372 0.81355 0.0
C936 C 0.19742 0.56889 0.74596 0.0
C937 C 0.20186 0.56082 0.77365 0.0
C938 C 0.1774 0.58214 0.7403 0.0
C939 C 0.16156 0.58737 0.7622 0.0
C940 C 0.16504 0.57772 0.78928 0.0
H941 H 0.05633 0.6984 0.76467 0.0
H942 H 0.07755 0.66258 0.77729 0.0
C943 C 0.18512 0.56468 0.79502 0.0
C944 C 0.14279 0.60471 0.7574 0.0
H945 H 0.12577 0.65986 0.77585 0.0
C946 C 0.12553 0.60005 0.73694 0.0
C947 C 0.14273 0.62643 0.77187 0.0
C948 C 0.16144 0.63284 0.79318 0.0
C949 C 0.10831 0.61671 0.73035 0.0
C950 C 0.10864 0.63861 0.74433 0.0
C951 C 0.12547 0.64296 0.76535 0.0
C952 C 0.09325 0.65817 0.73575 0.0
C953 C 0.09002 0.61078 0.70839 0.0
C954 C 0.095 0.66744 0.70824 0.0
C955 C 0.08304 0.68786 0.70106 0.0
C956 C 0.06921 0.69947 0.72132 0.0
C957 C 0.06687 0.6898 0.74863 0.0
C958 C 0.07891 0.66935 0.75584 0.0
H959 H 0.08755 0.59157 0.70649 0.0
H960 H 0.07295 0.61897 0.71364 0.0
H961 H 0.09576 0.61744 0.68736 0.0
H962 H 0.1064 0.65943 0.69263 0.0
H963 H 0.0852 0.69491 0.67984 0.0
H964 H 0.39222 0.21787 0.77454 0.0
H965 H 0.36991 0.18256 0.76459 0.0
H966 H 0.43357 0.14585 0.74387 0.0
H967 H 0.45621 0.18161 0.75339 0.0
H968 H 0.39796 0.13687 0.70583 0.0
H969 H 0.36578 0.12545 0.81551 0.0
H970 H 0.3599 0.1545 0.8031 0.0
H971 H 0.38972 0.14479 0.8069 0.0
C972 C 0.40153 0.20232 0.76784 0.0
C973 C 0.42598 0.20243 0.76494 0.0
C974 C 0.38876 0.18209 0.76239 0.0
C975 C 0.40015 0.16142 0.7543 0.0
C976 C 0.42451 0.16157 0.75049 0.0
H977 H 0.29968 0.04523 0.74927 0.0
H978 H 0.33654 0.06555 0.75956 0.0
C979 C 0.43738 0.18197 0.75583 0.0
C980 C 0.38612 0.14007 0.74914 0.0
H981 H 0.34181 0.10826 0.77834 0.0
C982 C 0.38602 0.13023 0.72183 0.0
C983 C 0.37105 0.13092 0.77024 0.0
C984 C 0.37181 0.13931 0.80066 0.0
C985 C 0.36979 0.11284 0.7144 0.0
C986 C 0.35291 0.10565 0.73464 0.0
C987 C 0.35442 0.11405 0.76262 0.0
C988 C 0.3321 0.09163 0.72661 0.0
C989 C 0.37057 0.1028 0.68475 0.0
C990 C 0.31734 0.09958 0.70482 0.0
C991 C 0.29648 0.08798 0.69884 0.0
C992 C 0.2897 0.0684 0.71486 0.0
C993 C 0.30449 0.06029 0.73659 0.0
C994 C 0.32555 0.07184 0.74243 0.0
H995 H 0.38876 0.10266 0.67642 0.0
H996 H 0.36357 0.08469 0.68411 0.0
H997 H 0.35997 0.11393 0.67035 0.0
H998 H 0.32155 0.11526 0.69298 0.0
H999 H 0.28536 0.09474 0.68209 0.0
H1000 H 0.93056 0.2948 0.76181 0.0
H1001 H 0.9063 0.32947 0.77056 0.0
H1002 H 0.90287 0.3426 0.68036 0.0
H1003 H 0.92678 0.30795 0.67142 0.0
H1004 H 0.90947 0.37888 0.7533 0.0
H1005 H 0.83416 0.3312 0.70564 0.0
H1006 H 0.86077 0.31662 0.7162 0.0
H1007 H 0.85986 0.33321 0.68379 0.0
C1008 C 0.92497 0.30533 0.74391 0.0
C1009 C 0.93027 0.29853 0.71593 0.0
C1010 C 0.91116 0.32511 0.74893 0.0
C1011 C 0.90254 0.3383 0.72605 0.0
C1012 C 0.9091 0.33241 0.69825 0.0
H1013 H 0.78655 0.43729 0.72316 0.0
H1014 H 0.82165 0.4157 0.70875 0.0
C1015 C 0.92277 0.31264 0.69321 0.0
C1016 C 0.88502 0.35686 0.73102 0.0
H1017 H 0.82736 0.36967 0.72096 0.0
C1018 C 0.89153 0.37699 0.74614 0.0
C1019 C 0.86168 0.35429 0.72156 0.0
C1020 C 0.85354 0.33261 0.70609 0.0
C1021 C 0.87519 0.39467 0.75213 0.0
C1022 C 0.85172 0.39183 0.7432 0.0
C1023 C 0.8454 0.3719 0.72758 0.0
C1024 C 0.83286 0.40813 0.75175 0.0
C1025 C 0.8832 0.4162 0.7679 0.0
C1026 C 0.82773 0.4113 0.78066 0.0
C1027 C 0.80778 0.42359 0.7889 0.0
C1028 C 0.79244 0.43276 0.76837 0.0
C1029 C 0.79807 0.43042 0.73943 0.0
C1030 C 0.81809 0.41812 0.73119 0.0
H1031 H 0.90221 0.41932 0.76482 0.0
H1032 H 0.87344 0.43196 0.76088 0.0
H1033 H 0.8801 0.41371 0.791 0.0
H1034 H 0.83852 0.40328 0.79689 0.0
H1035 H 0.80388 0.42507 0.81137 0.0
H1036 H 0.70012 0.91956 0.67782 0.0
H1037 H 0.66572 0.89558 0.68752 0.0
H1038 H 0.67436 0.90762 0.77749 0.0
H1039 H 0.70863 0.93212 0.76786 0.0
H1040 H 0.66749 0.85535 0.71786 0.0
H1041 H 0.60419 0.91646 0.76745 0.0
H1042 H 0.62944 0.92642 0.7478 0.0
H1043 H 0.63249 0.91676 0.78401 0.0
C1044 C 0.69446 0.91745 0.69966 0.0
C1045 C 0.70708 0.92762 0.72213 0.0
C1046 C 0.67479 0.90377 0.70514 0.0
C1047 C 0.66734 0.9 0.73318 0.0
C1048 C 0.67949 0.91072 0.75565 0.0
H1049 H 0.58243 0.79849 0.81724 0.0
H1050 H 0.60676 0.83181 0.8037 0.0
C1051 C 0.69915 0.92457 0.75015 0.0
C1052 C 0.64849 0.8829 0.73891 0.0
H1053 H 0.59587 0.87558 0.77208 0.0
C1054 C 0.65168 0.85985 0.72938 0.0
C1055 C 0.62795 0.88882 0.75404 0.0
C1056 C 0.62315 0.91351 0.7637 0.0
C1057 C 0.63521 0.84239 0.73524 0.0
C1058 C 0.61488 0.84821 0.75077 0.0
C1059 C 0.61147 0.87129 0.76005 0.0
C1060 C 0.59783 0.83007 0.75906 0.0
C1061 C 0.64003 0.81765 0.72568 0.0
C1062 C 0.58431 0.81853 0.73848 0.0
C1063 C 0.57035 0.79946 0.74614 0.0
C1064 C 0.56983 0.7917 0.77448 0.0
C1065 C 0.58261 0.80399 0.7952 0.0
C1066 C 0.59643 0.82307 0.78755 0.0
H1067 H 0.6583 0.81537 0.71811 0.0
H1068 H 0.63681 0.80514 0.74331 0.0
H1069 H 0.62804 0.81309 0.70796 0.0
H1070 H 0.58509 0.82385 0.71639 0.0
H1071 H 0.56062 0.79035 0.72977 0.0
H1072 H 0.06248 0.23223 0.39309 0.0
H1073 H 0.05202 0.23332 0.44363 0.0
H1074 H 0.97887 0.23443 0.42138 0.0
H1075 H 0.98913 0.23342 0.37082 0.0
H1076 H 0.02169 0.26894 0.47227 0.0
H1077 H 0.98813 0.1777 0.47785 0.0
H1078 H 0.00769 0.18746 0.45012 0.0
H1079 H 0.97735 0.19547 0.44912 0.0
C1080 C 0.04417 0.23271 0.39897 0.0
C1081 C 0.0266 0.23266 0.37805 0.0
C1082 C 0.03825 0.23337 0.42779 0.0
C1083 C 0.01471 0.23374 0.4361 0.0
C1084 C 0.99714 0.2339 0.41529 0.0
H1085 H 0.94212 0.22844 0.59719 0.0
H1086 H 0.95323 0.22943 0.54699 0.0
C1087 C 0.00303 0.23339 0.38647 0.0
C1088 C 0.00848 0.23402 0.46657 0.0
H1089 H 0.98341 0.20113 0.51879 0.0
C1090 C 0.01339 0.25413 0.48256 0.0
C1091 C 0.99759 0.21467 0.4797 0.0
C1092 C 0.99248 0.19249 0.46347 0.0
C1093 C 0.00726 0.25558 0.51141 0.0
C1094 C 0.99648 0.23614 0.52466 0.0
C1095 C 0.99167 0.216 0.50859 0.0
C1096 C 0.98985 0.2363 0.55512 0.0
C1097 C 0.0118 0.27811 0.52718 0.0
C1098 C 0.00679 0.23968 0.57634 0.0
C1099 C 0.00045 0.23931 0.60505 0.0
C1100 C 0.97712 0.23522 0.61298 0.0
C1101 C 0.96023 0.23165 0.5917 0.0
C1102 C 0.96655 0.23219 0.56303 0.0
H1103 H 0.01388 0.2931 0.51237 0.0
H1104 H 0.99737 0.28211 0.54222 0.0
H1105 H 0.02824 0.27642 0.53956 0.0
H1106 H 0.02497 0.2423 0.57074 0.0
H1107 H 0.01386 0.24193 0.62101 0.0
H1108 H 0.78951 0.95435 0.60424 0.0
H1109 H 0.7871 0.96677 0.55459 0.0
H1110 H 0.73957 0.02203 0.57817 0.0
H1111 H 0.74171 0.00955 0.628 0.0
H1112 H 0.72564 0.99602 0.52948 0.0
H1113 H 0.81768 0.02628 0.52202 0.0
H1114 H 0.81451 0.99689 0.53495 0.0
H1115 H 0.80335 0.02088 0.5556 0.0
C1116 C 0.77856 0.96916 0.59888 0.0
C1117 C 0.76589 0.98108 0.61999 0.0
C1118 C 0.77728 0.97629 0.57054 0.0
C1119 C 0.76343 0.99551 0.56285 0.0
C1120 C 0.75045 0.00722 0.58378 0.0
H1121 H 0.77331 0.06711 0.40059 0.0
H1122 H 0.77126 0.05746 0.45117 0.0
C1123 C 0.75172 0.00011 0.61218 0.0
C1124 C 0.76249 0.00327 0.53289 0.0
H1125 H 0.79657 0.02335 0.47862 0.0
C1126 C 0.74108 0.00213 0.51835 0.0
C1127 C 0.78263 0.01151 0.51862 0.0
C1128 C 0.80581 0.01421 0.53362 0.0
C1129 C 0.73942 0.00848 0.48958 0.0
C1130 C 0.75977 0.01584 0.47502 0.0
C1131 C 0.78104 0.0175 0.48979 0.0
C1132 C 0.75952 0.02192 0.44444 0.0
C1133 C 0.71588 0.00749 0.47512 0.0
C1134 C 0.75361 0.00509 0.42391 0.0
C1135 C 0.75472 0.01057 0.39497 0.0
C1136 C 0.76194 0.0329 0.38614 0.0
C1137 C 0.76768 0.04975 0.40676 0.0
C1138 C 0.76653 0.04428 0.43565 0.0
H1139 H 0.70133 0.00765 0.49077 0.0
H1140 H 0.71359 0.02242 0.46029 0.0
H1141 H 0.71461 0.99106 0.46265 0.0
H1142 H 0.74864 0.98758 0.43025 0.0
H1143 H 0.75031 0.99721 0.37954 0.0
H1144 H 0.04584 0.77845 0.59947 0.0
H1145 H 0.03179 0.77573 0.55048 0.0
H1146 H 0.97408 0.73283 0.57811 0.0
H1147 H 0.98819 0.73525 0.62729 0.0
H1148 H 0.99696 0.71625 0.52845 0.0
H1149 H 0.97369 0.81019 0.52023 0.0
H1150 H 0.00322 0.80513 0.53168 0.0
H1151 H 0.97928 0.796 0.55384 0.0
C1152 C 0.03017 0.76841 0.59513 0.0
C1153 C 0.01801 0.75718 0.6172 0.0
C1154 C 0.02213 0.76696 0.56717 0.0
C1155 C 0.00172 0.7544 0.56081 0.0
C1156 C 0.98981 0.74271 0.58267 0.0
H1157 H 0.93039 0.77089 0.39856 0.0
H1158 H 0.9387 0.76681 0.44935 0.0
C1159 C 0.99786 0.74414 0.6107 0.0
C1160 C 0.99283 0.75361 0.53129 0.0
H1161 H 0.97437 0.78854 0.47699 0.0
C1162 C 0.99183 0.732 0.51721 0.0
C1163 C 0.98581 0.77415 0.51691 0.0
C1164 C 0.98531 0.79767 0.53149 0.0
C1165 C 0.98471 0.7305 0.48868 0.0
C1166 C 0.9788 0.75121 0.47389 0.0
C1167 C 0.97909 0.7727 0.48831 0.0
C1168 C 0.97284 0.75126 0.44326 0.0
C1169 C 0.9835 0.70678 0.4747 0.0
C1170 C 0.98921 0.74369 0.42301 0.0
C1171 C 0.98448 0.74592 0.39399 0.0
C1172 C 0.96338 0.75598 0.38476 0.0
C1173 C 0.9468 0.76307 0.40506 0.0
C1174 C 0.95151 0.76076 0.43405 0.0
H1175 H 0.98176 0.69258 0.49067 0.0
H1176 H 0.96856 0.70573 0.45966 0.0
H1177 H -0.00014 0.7037 0.46258 0.0
H1178 H 0.00599 0.73679 0.42964 0.0
H1179 H 0.99763 0.74042 0.37881 0.0
H1180 H 0.2124 0.04437 0.59635 0.0
H1181 H 0.21562 0.03142 0.54697 0.0
H1182 H 0.25679 0.97216 0.57364 0.0
H1183 H 0.25351 0.98493 0.62328 0.0
H1184 H 0.25705 0.0238 0.51468 0.0
H1185 H 0.20299 0.94337 0.52575 0.0
H1186 H 0.20271 0.96653 0.55186 0.0
H1187 H 0.22682 0.94646 0.55045 0.0
C1188 C 0.22213 0.02857 0.59173 0.0
C1189 C 0.23263 0.0156 0.61366 0.0
C1190 C 0.22397 0.02122 0.56353 0.0
C1191 C 0.23622 0.00072 0.55676 0.0
C1192 C 0.24697 0.98784 0.57853 0.0
H1193 H 0.27379 0.9624 0.38241 0.0
H1194 H 0.2754 0.97021 0.43362 0.0
C1195 C 0.24517 0.99521 0.60681 0.0
C1196 C 0.23774 0.99307 0.52679 0.0
H1197 H 0.21958 0.95068 0.48066 0.0
C1198 C 0.24901 0.00775 0.50722 0.0
C1199 C 0.22702 0.97222 0.51722 0.0
C1200 C 0.21402 0.95626 0.53729 0.0
C1201 C 0.24969 0.00222 0.47817 0.0
C1202 C 0.239 0.98136 0.4686 0.0
C1203 C 0.22789 0.96657 0.4882 0.0
C1204 C 0.23808 0.97528 0.43807 0.0
C1205 C 0.26115 0.0191 0.45782 0.0
C1206 C 0.2165 0.97495 0.4239 0.0
C1207 C 0.21552 0.97048 0.39473 0.0
C1208 C 0.23611 0.96612 0.37932 0.0
C1209 C 0.25765 0.96581 0.39373 0.0
C1210 C 0.25862 0.97034 0.42292 0.0
H1211 H 0.26447 0.0364 0.46782 0.0
H1212 H 0.27817 0.0118 0.45077 0.0
H1213 H 0.25008 0.02171 0.43867 0.0
H1214 H 0.20046 0.97867 0.43531 0.0
H1215 H 0.19867 0.97075 0.38421 0.0
H1216 H 0.50518 0.76606 0.88171 0.0
H1217 H 0.49726 0.7679 0.93286 0.0
H1218 H 0.52572 0.69857 0.94318 0.0
H1219 H 0.53401 0.69672 0.89221 0.0
H1220 H 0.46952 0.73904 0.96609 0.0
H1221 H 0.56183 0.73674 0.0022 0.0
H1222 H 0.55373 0.74256 0.96577 0.0
H1223 H 0.55421 0.71304 0.97893 0.0
C1224 C 0.50978 0.75123 0.89491 0.0
C1225 C 0.52033 0.73129 0.88304 0.0
C1226 C 0.50525 0.75231 0.92408 0.0
C1227 C 0.51129 0.73354 0.94182 0.0
C1228 C 0.52142 0.71345 0.92993 0.0
H1229 H 0.46038 0.70074 0.10955 0.0
H1230 H 0.46911 0.70271 0.05873 0.0
C1231 C 0.526 0.71237 0.9008 0.0
C1232 C 0.50653 0.73473 0.97271 0.0
H1233 H 0.53269 0.73108 0.03781 0.0
C1234 C 0.48333 0.73745 0.98179 0.0
C1235 C 0.52465 0.73302 0.99311 0.0
C1236 C 0.55004 0.73141 0.98457 0.0
C1237 C 0.47765 0.73783 0.0108 0.0
C1238 C 0.49564 0.735 0.03117 0.0
C1239 C 0.51892 0.73298 0.02211 0.0
C1240 C 0.49061 0.73375 0.06199 0.0
C1241 C 0.45247 0.74142 0.01938 0.0
C1242 C 0.5004 0.75014 0.08075 0.0
C1243 C 0.49561 0.74894 0.10986 0.0
C1244 C 0.48103 0.73126 0.12063 0.0
C1245 C 0.47156 0.71465 0.10183 0.0
C1246 C 0.4764 0.71584 0.07278 0.0
H1247 H 0.44217 0.74977 0.0021 0.0
H1248 H 0.44441 0.72419 0.02405 0.0
H1249 H 0.45117 0.75243 0.03876 0.0
H1250 H 0.51156 0.76399 0.07281 0.0
H1251 H 0.50317 0.76194 0.12387 0.0
H1252 H 0.24636 0.49446 0.88041 0.0
H1253 H 0.24684 0.48662 0.93158 0.0
H1254 H 0.30112 0.5382 0.94273 0.0
H1255 H 0.30057 0.54634 0.89162 0.0
H1256 H 0.28379 0.47176 0.96659 0.0
H1257 H 0.25009 0.55889 0.99904 0.0
H1258 H 0.24853 0.54843 0.96286 0.0
H1259 H 0.27556 0.55973 0.9767 0.0
C1260 C 0.25842 0.5041 0.89376 0.0
C1261 C 0.27333 0.52111 0.88207 0.0
C1262 C 0.25868 0.4996 0.92295 0.0
C1263 C 0.27376 0.51209 0.94094 0.0
C1264 C 0.28905 0.5287 0.92925 0.0
H1265 H 0.30841 0.47733 0.11603 0.0
H1266 H 0.30954 0.48564 0.06498 0.0
C1267 C 0.2888 0.53322 0.90006 0.0
C1268 C 0.27345 0.50769 0.97194 0.0
H1269 H 0.26248 0.53357 0.036 0.0
C1270 C 0.27914 0.48524 0.9818 0.0
C1271 C 0.26707 0.52527 0.99163 0.0
C1272 C 0.25975 0.54939 0.98211 0.0
C1273 C 0.27886 0.47996 0.01094 0.0
C1274 C 0.27306 0.49771 0.03066 0.0
C1275 C 0.26712 0.52008 0.02079 0.0
C1276 C 0.27257 0.49326 0.06165 0.0
C1277 C 0.28434 0.45533 0.02033 0.0
C1278 C 0.25153 0.49543 0.07677 0.0
C1279 C 0.25085 0.49081 0.10593 0.0
C1280 C 0.27125 0.48408 0.12046 0.0
C1281 C 0.29239 0.48237 0.10536 0.0
C1282 C 0.29305 0.48698 0.0762 0.0
H1283 H 0.28291 0.44266 0.00249 0.0
H1284 H 0.30252 0.45465 0.02855 0.0
H1285 H 0.27241 0.44973 0.03766 0.0
H1286 H 0.23557 0.50037 0.0659 0.0
H1287 H 0.23432 0.49231 0.11702 0.0
H1288 H 0.48066 0.2498 0.12354 0.0
H1289 H 0.46981 0.24606 0.0733 0.0
H1290 H 0.53762 0.27218 0.04872 0.0
H1291 H 0.54867 0.27574 0.09875 0.0
H1292 H 0.46812 0.28127 0.03201 0.0
H1293 H 0.53116 0.21176 0.00225 0.0
H1294 H 0.52408 0.21853 0.03877 0.0
H1295 H 0.54453 0.23639 0.01948 0.0
C1296 C 0.49328 0.25463 0.1074 0.0
C1297 C 0.51554 0.26297 0.11502 0.0
C1298 C 0.48706 0.25249 0.07877 0.0
C1299 C 0.50306 0.25849 0.05736 0.0
C1300 C 0.52521 0.26699 0.06494 0.0
H1301 H 0.48206 0.29598 0.88256 0.0
H1302 H 0.48863 0.29452 0.93391 0.0
C1303 C 0.53144 0.26915 0.09352 0.0
C1304 C 0.49637 0.25669 0.02706 0.0
H1305 H 0.51257 0.232 0.964 0.0
C1306 C 0.47768 0.27035 0.01716 0.0
C1307 C 0.50868 0.24217 0.00786 0.0
C1308 C 0.52809 0.22619 0.01763 0.0
C1309 C 0.47151 0.27051 0.98829 0.0
C1310 C 0.4846 0.25691 0.96887 0.0
C1311 C 0.50273 0.2426 0.97893 0.0
C1312 C 0.4802 0.25777 0.9379 0.0
C1313 C 0.45103 0.28522 0.97883 0.0
C1314 C 0.4738 0.23746 0.92308 0.0
C1315 C 0.47016 0.23821 0.8937 0.0
C1316 C 0.47303 0.25927 0.8787 0.0
C1317 C 0.4796 0.27954 0.89359 0.0
C1318 C 0.48322 0.27877 0.92293 0.0
H1319 H 0.43908 0.28925 0.9968 0.0
H1320 H 0.45761 0.30204 0.97019 0.0
H1321 H 0.44091 0.27629 0.96185 0.0
H1322 H 0.47156 0.22105 0.93427 0.0
H1323 H 0.46516 0.2223 0.88275 0.0
H1324 H 0.69735 0.45253 0.89113 0.0
H1325 H 0.69777 0.46242 0.94177 0.0
H1326 H 0.75853 0.50582 0.92867 0.0
H1327 H 0.75794 0.49638 0.87791 0.0
H1328 H 0.73206 0.45477 0.98162 0.0
H1329 H 0.71419 0.54968 0.97037 0.0
H1330 H 0.71032 0.52928 0.94146 0.0
H1331 H 0.73904 0.53985 0.95034 0.0
C1332 C 0.71073 0.46427 0.89903 0.0
C1333 C 0.72753 0.4738 0.88057 0.0
C1334 C 0.71097 0.46986 0.92794 0.0
C1335 C 0.72797 0.48511 0.93887 0.0
C1336 C 0.74495 0.49442 0.92055 0.0
H1337 H 0.76469 0.502 0.11733 0.0
H1338 H 0.76403 0.49183 0.06674 0.0
C1339 C 0.74466 0.48892 0.8916 0.0
C1340 C 0.72817 0.49089 0.96956 0.0
H1341 H 0.72504 0.53638 0.01638 0.0
C1342 C 0.73046 0.4726 0.98926 0.0
C1343 C 0.72577 0.51413 0.97943 0.0
C1344 C 0.72196 0.53436 0.95934 0.0
C1345 C 0.73071 0.47695 0.01863 0.0
C1346 C 0.72909 0.50028 0.02845 0.0
C1347 C 0.72651 0.51853 0.00876 0.0
C1348 C 0.72954 0.50615 0.05912 0.0
C1349 C 0.73224 0.45651 0.03884 0.0
C1350 C 0.71062 0.51805 0.07142 0.0
C1351 C 0.71107 0.52409 0.10018 0.0
C1352 C 0.73047 0.51836 0.11714 0.0
C1353 C 0.74944 0.50649 0.10479 0.0
C1354 C 0.74903 0.50055 0.07596 0.0
H1355 H 0.72702 0.43987 0.02841 0.0
H1356 H 0.75057 0.45459 0.04624 0.0
H1357 H 0.72095 0.4593 0.05775 0.0
H1358 H 0.69546 0.52261 0.05875 0.0
H1359 H 0.69621 0.53326 0.10911 0.0
loop_
_geom_bond_atom_site_label_1
_geom_bond_atom_site_label_2
_geom_bond_distance
_geom_bond_site_symmetry_2
_ccdc_geom_bond_type
In0 O1 2.294 . S
In0 O2 2.326 . S
In0 O6 2.266 . S
In0 O7 2.326 . S
In0 O8 2.266 . S
In0 O9 2.326 . S
In0 O11 2.294 . S
In0 O12 2.326 . S
O1 In0 2.294 . S
O1 C10 1.240 . S
O2 In0 2.326 . S
O2 C10 1.252 . S
C3 O6 1.252 . S
C3 O7 1.260 . S
C4 O11 1.240 . S
C4 O12 1.252 . S
C5 O8 1.252 1_655 S
C5 O9 1.260 1_655 S
O6 In0 2.266 . S
O6 C3 1.252 . S
O7 In0 2.326 . S
O7 C3 1.260 . S
O8 In0 2.266 . S
O8 C5 1.252 1_455 S
O9 In0 2.326 . S
O9 C5 1.260 1_455 S
C10 O1 1.240 . S
C10 O2 1.252 . S
O11 In0 2.294 . S
O11 C4 1.240 . S
O12 In0 2.326 . S
O12 C4 1.252 . S
In13 O14 2.294 . S
In13 O15 2.326 . S
In13 O19 2.266 . S
In13 O20 2.326 . S
In13 O21 2.266 . S
In13 O22 2.326 . S
In13 O24 2.294 . S
In13 O25 2.326 . S
O14 In13 2.294 . S
O14 C23 1.240 . S
O15 In13 2.326 . S
O15 C23 1.252 . S
C16 O19 1.252 . S
C16 O20 1.260 . S
C17 O24 1.240 . S
C17 O25 1.252 . S
C18 O21 1.252 1_565 S
C18 O22 1.260 1_565 S
O19 In13 2.266 . S
O19 C16 1.252 . S
O20 In13 2.326 . S
O20 C16 1.260 . S
O21 In13 2.266 . S
O21 C18 1.252 1_545 S
O22 In13 2.326 . S
O22 C18 1.260 1_545 S
C23 O14 1.240 . S
C23 O15 1.252 . S
O24 In13 2.294 . S
O24 C17 1.240 . S
O25 In13 2.326 . S
O25 C17 1.252 . S
In26 O27 2.294 . S
In26 O28 2.326 . S
In26 O32 2.266 . S
In26 O33 2.326 . S
In26 O34 2.266 . S
In26 O35 2.326 . S
In26 O37 2.294 . S
In26 O38 2.326 . S
O27 In26 2.294 . S
O27 C36 1.240 . S
O28 In26 2.326 . S
O28 C36 1.252 . S
C29 O32 1.252 1_455 S
C29 O33 1.260 1_455 S
C30 O37 1.240 . S
C30 O38 1.252 . S
C31 O34 1.252 . S
C31 O35 1.260 . S
O32 In26 2.266 . S
O32 C29 1.252 1_655 S
O33 In26 2.326 . S
O33 C29 1.260 1_655 S
O34 In26 2.266 . S
O34 C31 1.252 . S
O35 In26 2.326 . S
O35 C31 1.260 . S
C36 O27 1.240 . S
C36 O28 1.252 . S
O37 In26 2.294 . S
O37 C30 1.240 . S
O38 In26 2.326 . S
O38 C30 1.252 . S
In39 O40 2.294 . S
In39 O41 2.326 . S
In39 O45 2.266 . S
In39 O46 2.326 . S
In39 O47 2.266 . S
In39 O48 2.326 . S
In39 O50 2.294 . S
In39 O51 2.326 . S
O40 In39 2.294 . S
O40 C49 1.240 . S
O41 In39 2.326 . S
O41 C49 1.252 . S
C42 O45 1.252 1_545 S
C42 O46 1.260 1_545 S
C43 O50 1.240 . S
C43 O51 1.252 . S
C44 O47 1.252 . S
C44 O48 1.260 . S
O45 In39 2.266 . S
O45 C42 1.252 1_565 S
O46 In39 2.326 . S
O46 C42 1.260 1_565 S
O47 In39 2.266 . S
O47 C44 1.252 . S
O48 In39 2.326 . S
O48 C44 1.260 . S
C49 O40 1.240 . S
C49 O41 1.252 . S
O50 In39 2.294 . S
O50 C43 1.240 . S
O51 In39 2.326 . S
O51 C43 1.252 . S
In52 O53 2.294 . S
In52 O54 2.326 . S
In52 O58 2.266 . S
In52 O59 2.326 . S
In52 O60 2.266 . S
In52 O61 2.326 . S
In52 O63 2.294 . S
In52 O64 2.326 . S
O53 In52 2.294 . S
O53 C62 1.240 . S
O54 In52 2.326 . S
O54 C62 1.252 . S
C55 O58 1.252 . S
C55 O59 1.260 . S
C56 O63 1.240 . S
C56 O64 1.252 . S
C57 O60 1.252 1_655 S
C57 O61 1.260 1_655 S
O58 In52 2.266 . S
O58 C55 1.252 . S
O59 In52 2.326 . S
O59 C55 1.260 . S
O60 In52 2.266 . S
O60 C57 1.252 1_455 S
O61 In52 2.326 . S
O61 C57 1.260 1_455 S
C62 O53 1.240 . S
C62 O54 1.252 . S
O63 In52 2.294 . S
O63 C56 1.240 . S
O64 In52 2.326 . S
O64 C56 1.252 . S
In65 O66 2.294 . S
In65 O67 2.326 . S
In65 O71 2.266 . S
In65 O72 2.326 . S
In65 O73 2.266 . S
In65 O74 2.326 . S
In65 O76 2.294 . S
In65 O77 2.326 . S
O66 In65 2.294 . S
O66 C75 1.240 . S
O67 In65 2.326 . S
O67 C75 1.252 . S
C68 O71 1.252 . S
C68 O72 1.260 . S
C69 O76 1.240 . S
C69 O77 1.252 . S
C70 O73 1.252 1_565 S
C70 O74 1.260 1_565 S
O71 In65 2.266 . S
O71 C68 1.252 . S
O72 In65 2.326 . S
O72 C68 1.260 . S
O73 In65 2.266 . S
O73 C70 1.252 1_545 S
O74 In65 2.326 . S
O74 C70 1.260 1_545 S
C75 O66 1.240 . S
C75 O67 1.252 . S
O76 In65 2.294 . S
O76 C69 1.240 . S
O77 In65 2.326 . S
O77 C69 1.252 . S
In78 O79 2.294 . S
In78 O80 2.326 . S
In78 O84 2.266 . S
In78 O85 2.326 . S
In78 O86 2.266 . S
In78 O87 2.326 . S
In78 O89 2.294 . S
In78 O90 2.326 . S
O79 In78 2.294 . S
O79 C88 1.240 . S
O80 In78 2.326 . S
O80 C88 1.252 . S
C81 O84 1.252 1_455 S
C81 O85 1.260 1_455 S
C82 O89 1.240 . S
C82 O90 1.252 . S
C83 O86 1.252 . S
C83 O87 1.260 . S
O84 In78 2.266 . S
O84 C81 1.252 1_655 S
O85 In78 2.326 . S
O85 C81 1.260 1_655 S
O86 In78 2.266 . S
O86 C83 1.252 . S
O87 In78 2.326 . S
O87 C83 1.260 . S
C88 O79 1.240 . S
C88 O80 1.252 . S
O89 In78 2.294 . S
O89 C82 1.240 . S
O90 In78 2.326 . S
O90 C82 1.252 . S
In91 O92 2.294 . S
In91 O93 2.326 . S
In91 O97 2.266 . S
In91 O98 2.326 . S
In91 O99 2.266 . S
In91 O100 2.326 . S
In91 O102 2.294 . S
In91 O103 2.326 . S
O92 In91 2.294 . S
O92 C101 1.240 . S
O93 In91 2.326 . S
O93 C101 1.252 . S
C94 O97 1.252 . S
C94 O98 1.260 . S
C95 O102 1.240 . S
C95 O103 1.252 . S
C96 O99 1.252 1_545 S
C96 O100 1.260 1_545 S
O97 In91 2.266 . S
O97 C94 1.252 . S
O98 In91 2.326 . S
O98 C94 1.260 . S
O99 In91 2.266 . S
O99 C96 1.252 1_565 S
O100 In91 2.326 . S
O100 C96 1.260 1_565 S
C101 O92 1.240 . S
C101 O93 1.252 . S
O102 In91 2.294 . S
O102 C95 1.240 . S
O103 In91 2.326 . S
O103 C95 1.252 . S
In104 O105 2.294 . S
In104 O106 2.326 . S
In104 O110 2.266 . S
In104 O111 2.326 . S
In104 O112 2.266 . S
In104 O113 2.326 . S
In104 O115 2.294 . S
In104 O116 2.326 . S
O105 In104 2.294 . S
O105 C114 1.240 . S
O106 In104 2.326 . S
O106 C114 1.252 . S
C107 O110 1.252 . S
C107 O111 1.260 . S
C108 O115 1.240 . S
C108 O116 1.252 . S
C109 O112 1.252 . S
C109 O113 1.260 . S
O110 In104 2.266 . S
O110 C107 1.252 . S
O111 In104 2.326 . S
O111 C107 1.260 . S
O112 In104 2.266 . S
O112 C109 1.252 . S
O113 In104 2.326 . S
O113 C109 1.260 . S
C114 O105 1.240 . S
C114 O106 1.252 . S
O115 In104 2.294 . S
O115 C108 1.240 . S
O116 In104 2.326 . S
O116 C108 1.252 . S
In117 O118 2.294 . S
In117 O119 2.326 . S
In117 O123 2.266 . S
In117 O124 2.326 . S
In117 O125 2.266 . S
In117 O126 2.326 . S
In117 O128 2.294 . S
In117 O129 2.326 . S
O118 In117 2.294 . S
O118 C127 1.240 . S
O119 In117 2.326 . S
O119 C127 1.252 . S
C120 O123 1.252 . S
C120 O124 1.260 . S
C121 O128 1.240 . S
C121 O129 1.252 . S
C122 O125 1.252 . S
C122 O126 1.260 . S
O123 In117 2.266 . S
O123 C120 1.252 . S
O124 In117 2.326 . S
O124 C120 1.260 . S
O125 In117 2.266 . S
O125 C122 1.252 . S
O126 In117 2.326 . S
O126 C122 1.260 . S
C127 O118 1.240 . S
C127 O119 1.252 . S
O128 In117 2.294 . S
O128 C121 1.240 . S
O129 In117 2.326 . S
O129 C121 1.252 . S
In130 O131 2.294 . S
In130 O132 2.326 . S
In130 O136 2.266 . S
In130 O137 2.326 . S
In130 O138 2.266 . S
In130 O139 2.326 . S
In130 O141 2.294 . S
In130 O142 2.326 . S
O131 In130 2.294 . S
O131 C140 1.240 . S
O132 In130 2.326 . S
O132 C140 1.252 . S
C133 O136 1.252 . S
C133 O137 1.260 . S
C134 O141 1.240 . S
C134 O142 1.252 . S
C135 O138 1.252 . S
C135 O139 1.260 . S
O136 In130 2.266 . S
O136 C133 1.252 . S
O137 In130 2.326 . S
O137 C133 1.260 . S
O138 In130 2.266 . S
O138 C135 1.252 . S
O139 In130 2.326 . S
O139 C135 1.260 . S
C140 O131 1.240 . S
C140 O132 1.252 . S
O141 In130 2.294 . S
O141 C134 1.240 . S
O142 In130 2.326 . S
O142 C134 1.252 . S
In143 O144 2.294 . S
In143 O145 2.326 . S
In143 O149 2.266 . S
In143 O150 2.326 . S
In143 O151 2.266 . S
In143 O152 2.326 . S
In143 O154 2.294 . S
In143 O155 2.326 . S
O144 In143 2.294 . S
O144 C153 1.240 . S
O145 In143 2.326 . S
O145 C153 1.252 . S
C146 O149 1.252 . S
C146 O150 1.260 . S
C147 O154 1.240 . S
C147 O155 1.252 . S
C148 O151 1.252 . S
C148 O152 1.260 . S
O149 In143 2.266 . S
O149 C146 1.252 . S
O150 In143 2.326 . S
O150 C146 1.260 . S
O151 In143 2.266 . S
O151 C148 1.252 . S
O152 In143 2.326 . S
O152 C148 1.260 . S
C153 O144 1.240 . S
C153 O145 1.252 . S
O154 In143 2.294 . S
O154 C147 1.240 . S
O155 In143 2.326 . S
O155 C147 1.252 . S
In156 O157 2.294 . S
In156 O158 2.326 . S
In156 O162 2.266 . S
In156 O163 2.326 . S
In156 O164 2.266 . S
In156 O165 2.326 . S
In156 O167 2.294 . S
In156 O168 2.326 . S
O157 In156 2.294 . S
O157 C166 1.240 . S
O158 In156 2.326 . S
O158 C166 1.252 . S
C159 O162 1.252 . S
C159 O163 1.260 . S
C160 O167 1.240 . S
C160 O168 1.252 . S
C161 O164 1.252 . S
C161 O165 1.260 . S
O162 In156 2.266 . S
O162 C159 1.252 . S
O163 In156 2.326 . S
O163 C159 1.260 . S
O164 In156 2.266 . S
O164 C161 1.252 . S
O165 In156 2.326 . S
O165 C161 1.260 . S
C166 O157 1.240 . S
C166 O158 1.252 . S
O167 In156 2.294 . S
O167 C160 1.240 . S
O168 In156 2.326 . S
O168 C160 1.252 . S
In169 O170 2.294 . S
In169 O171 2.326 . S
In169 O175 2.266 . S
In169 O176 2.326 . S
In169 O177 2.266 . S
In169 O178 2.326 . S
In169 O180 2.294 . S
In169 O181 2.326 . S
O170 In169 2.294 . S
O170 C179 1.240 . S
O171 In169 2.326 . S
O171 C179 1.252 . S
C172 O175 1.252 . S
C172 O176 1.260 . S
C173 O180 1.240 . S
C173 O181 1.252 . S
C174 O177 1.252 . S
C174 O178 1.260 . S
O175 In169 2.266 . S
O175 C172 1.252 . S
O176 In169 2.326 . S
O176 C172 1.260 . S
O177 In169 2.266 . S
O177 C174 1.252 . S
O178 In169 2.326 . S
O178 C174 1.260 . S
C179 O170 1.240 . S
C179 O171 1.252 . S
O180 In169 2.294 . S
O180 C173 1.240 . S
O181 In169 2.326 . S
O181 C173 1.252 . S
In182 O183 2.294 . S
In182 O184 2.326 . S
In182 O188 2.266 . S
In182 O189 2.326 . S
In182 O190 2.266 . S
In182 O191 2.326 . S
In182 O193 2.294 . S
In182 O194 2.326 . S
O183 In182 2.294 . S
O183 C192 1.240 . S
O184 In182 2.326 . S
O184 C192 1.252 . S
C185 O188 1.252 . S
C185 O189 1.260 . S
C186 O193 1.240 . S
C186 O194 1.252 . S
C187 O190 1.252 . S
C187 O191 1.260 . S
O188 In182 2.266 . S
O188 C185 1.252 . S
O189 In182 2.326 . S
O189 C185 1.260 . S
O190 In182 2.266 . S
O190 C187 1.252 . S
O191 In182 2.326 . S
O191 C187 1.260 . S
C192 O183 1.240 . S
C192 O184 1.252 . S
O193 In182 2.294 . S
O193 C186 1.240 . S
O194 In182 2.326 . S
O194 C186 1.252 . S
In195 O196 2.294 . S
In195 O197 2.326 . S
In195 O201 2.266 . S
In195 O202 2.326 . S
In195 O203 2.266 . S
In195 O204 2.326 . S
In195 O206 2.294 . S
In195 O207 2.326 . S
O196 In195 2.294 . S
O196 C205 1.240 . S
O197 In195 2.326 . S
O197 C205 1.252 . S
C198 O201 1.252 . S
C198 O202 1.260 . S
C199 O206 1.240 . S
C199 O207 1.252 . S
C200 O203 1.252 . S
C200 O204 1.260 . S
O201 In195 2.266 . S
O201 C198 1.252 . S
O202 In195 2.326 . S
O202 C198 1.260 . S
O203 In195 2.266 . S
O203 C200 1.252 . S
O204 In195 2.326 . S
O204 C200 1.260 . S
C205 O196 1.240 . S
C205 O197 1.252 . S
O206 In195 2.294 . S
O206 C199 1.240 . S
O207 In195 2.326 . S
O207 C199 1.252 . S
H208 C216 0.929 . S
H209 C218 0.930 . S
H210 C220 0.930 . S
H211 C223 0.929 . S
H212 C226 0.930 . S
H213 C228 0.960 . S
H214 C228 0.960 . S
H215 C228 0.960 . S
C216 H208 0.929 . S
C216 C217 1.377 . S
C216 C218 1.384 . S
C217 C216 1.377 . S
C217 C223 1.390 . S
C218 H209 0.930 . S
C218 C216 1.384 . S
C218 C219 1.372 . S
C219 C218 1.372 . S
C219 C220 1.400 . S
C219 C224 1.490 . S
C220 H210 0.930 . S
C220 C219 1.400 . S
C220 C223 1.386 . S
H221 C237 0.930 . S
H222 C238 0.931 . S
C223 H211 0.929 . S
C223 C217 1.390 . S
C223 C220 1.386 . S
C224 C219 1.490 . S
C224 C226 1.395 . S
C224 C227 1.403 . S
H225 C231 0.930 . S
C226 H212 0.930 . S
C226 C224 1.395 . S
C226 C229 1.403 . S
C227 C224 1.403 . S
C227 C228 1.524 . S
C227 C231 1.400 . S
C228 H213 0.960 . S
C228 H214 0.960 . S
C228 H215 0.960 . S
C228 C227 1.524 . S
C229 C226 1.403 . S
C229 C230 1.392 . S
C229 C233 1.495 . S
C230 C229 1.392 . S
C230 C231 1.385 . S
C230 C232 1.478 . S
C231 H225 0.930 . S
C231 C227 1.400 . S
C231 C230 1.385 . S
C232 C230 1.478 . S
C232 C234 1.381 . S
C232 C238 1.383 . S
C233 C229 1.495 . S
C233 H239 0.959 . S
C233 H240 0.961 . S
C233 H241 0.960 . S
C234 C232 1.381 . S
C234 C235 1.394 . S
C234 H242 0.930 . S
C235 C234 1.394 . S
C235 C236 1.383 . S
C235 H243 0.929 . S
C236 C235 1.383 . S
C236 C237 1.377 . S
C237 H221 0.930 . S
C237 C236 1.377 . S
C237 C238 1.379 . S
C238 H222 0.931 . S
C238 C232 1.383 . S
C238 C237 1.379 . S
H239 C233 0.959 . S
H240 C233 0.961 . S
H241 C233 0.960 . S
H242 C234 0.930 . S
H243 C235 0.929 . S
H244 C252 0.929 . S
H245 C254 0.930 . S
H246 C256 0.930 . S
H247 C259 0.929 . S
H248 C262 0.930 . S
H249 C264 0.960 . S
H250 C264 0.960 . S
H251 C264 0.960 . S
C252 H244 0.929 . S
C252 C253 1.377 . S
C252 C254 1.384 . S
C253 C252 1.377 . S
C253 C259 1.390 . S
C254 H245 0.930 . S
C254 C252 1.384 . S
C254 C255 1.372 . S
C255 C254 1.372 . S
C255 C256 1.400 . S
C255 C260 1.490 . S
C256 H246 0.930 . S
C256 C255 1.400 . S
C256 C259 1.386 . S
H257 C273 0.930 . S
H258 C274 0.931 . S
C259 H247 0.929 . S
C259 C253 1.390 . S
C259 C256 1.386 . S
C260 C255 1.490 . S
C260 C262 1.395 . S
C260 C263 1.403 . S
H261 C267 0.930 . S
C262 H248 0.930 . S
C262 C260 1.395 . S
C262 C265 1.403 . S
C263 C260 1.403 . S
C263 C264 1.524 . S
C263 C267 1.400 . S
C264 H249 0.960 . S
C264 H250 0.960 . S
C264 H251 0.960 . S
C264 C263 1.524 . S
C265 C262 1.403 . S
C265 C266 1.392 . S
C265 C269 1.495 . S
C266 C265 1.392 . S
C266 C267 1.385 . S
C266 C268 1.478 . S
C267 H261 0.930 . S
C267 C263 1.400 . S
C267 C266 1.385 . S
C268 C266 1.478 . S
C268 C270 1.381 . S
C268 C274 1.383 . S
C269 C265 1.495 . S
C269 H275 0.959 . S
C269 H276 0.961 . S
C269 H277 0.960 . S
C270 C268 1.381 . S
C270 C271 1.394 . S
C270 H278 0.930 . S
C271 C270 1.394 . S
C271 C272 1.383 . S
C271 H279 0.929 . S
C272 C271 1.383 . S
C272 C273 1.377 . S
C273 H257 0.930 . S
C273 C272 1.377 . S
C273 C274 1.379 . S
C274 H258 0.931 . S
C274 C268 1.383 . S
C274 C273 1.379 . S
H275 C269 0.959 . S
H276 C269 0.961 . S
H277 C269 0.960 . S
H278 C270 0.930 . S
H279 C271 0.929 . S
H280 C288 0.929 . S
H281 C290 0.930 . S
H282 C292 0.930 . S
H283 C295 0.929 . S
H284 C298 0.930 . S
H285 C300 0.960 . S
H286 C300 0.960 . S
H287 C300 0.960 . S
C288 H280 0.929 . S
C288 C289 1.377 . S
C288 C290 1.384 . S
C289 C288 1.377 . S
C289 C295 1.390 . S
C290 H281 0.930 . S
C290 C288 1.384 . S
C290 C291 1.372 . S
C291 C290 1.372 . S
C291 C292 1.400 . S
C291 C296 1.490 . S
C292 H282 0.930 . S
C292 C291 1.400 . S
C292 C295 1.386 . S
H293 C309 0.930 . S
H294 C310 0.931 . S
C295 H283 0.929 . S
C295 C289 1.390 . S
C295 C292 1.386 . S
C296 C291 1.490 . S
C296 C298 1.395 . S
C296 C299 1.403 . S
H297 C303 0.930 . S
C298 H284 0.930 . S
C298 C296 1.395 . S
C298 C301 1.403 . S
C299 C296 1.403 . S
C299 C300 1.524 . S
C299 C303 1.400 . S
C300 H285 0.960 . S
C300 H286 0.960 . S
C300 H287 0.960 . S
C300 C299 1.524 . S
C301 C298 1.403 . S
C301 C302 1.392 . S
C301 C305 1.495 . S
C302 C301 1.392 . S
C302 C303 1.385 . S
C302 C304 1.478 . S
C303 H297 0.930 . S
C303 C299 1.400 . S
C303 C302 1.385 . S
C304 C302 1.478 . S
C304 C306 1.381 . S
C304 C310 1.383 . S
C305 C301 1.495 . S
C305 H311 0.959 . S
C305 H312 0.961 . S
C305 H313 0.960 . S
C306 C304 1.381 . S
C306 C307 1.394 . S
C306 H314 0.930 . S
C307 C306 1.394 . S
C307 C308 1.383 . S
C307 H315 0.929 . S
C308 C307 1.383 . S
C308 C309 1.377 . S
C309 H293 0.930 . S
C309 C308 1.377 . S
C309 C310 1.379 . S
C310 H294 0.931 . S
C310 C304 1.383 . S
C310 C309 1.379 . S
H311 C305 0.959 . S
H312 C305 0.961 . S
H313 C305 0.960 . S
H314 C306 0.930 . S
H315 C307 0.929 . S
H316 C324 0.929 . S
H317 C326 0.930 . S
H318 C328 0.930 . S
H319 C331 0.929 . S
H320 C334 0.930 . S
H321 C336 0.960 . S
H322 C336 0.960 . S
H323 C336 0.960 . S
C324 H316 0.929 . S
C324 C325 1.377 . S
C324 C326 1.384 . S
C325 C324 1.377 . S
C325 C331 1.390 . S
C326 H317 0.930 . S
C326 C324 1.384 . S
C326 C327 1.372 . S
C327 C326 1.372 . S
C327 C328 1.400 . S
C327 C332 1.490 . S
C328 H318 0.930 . S
C328 C327 1.400 . S
C328 C331 1.386 . S
H329 C345 0.930 . S
H330 C346 0.931 . S
C331 H319 0.929 . S
C331 C325 1.390 . S
C331 C328 1.386 . S
C332 C327 1.490 . S
C332 C334 1.395 . S
C332 C335 1.403 . S
H333 C339 0.930 . S
C334 H320 0.930 . S
C334 C332 1.395 . S
C334 C337 1.403 . S
C335 C332 1.403 . S
C335 C336 1.524 . S
C335 C339 1.400 . S
C336 H321 0.960 . S
C336 H322 0.960 . S
C336 H323 0.960 . S
C336 C335 1.524 . S
C337 C334 1.403 . S
C337 C338 1.392 . S
C337 C341 1.495 . S
C338 C337 1.392 . S
C338 C339 1.385 . S
C338 C340 1.478 . S
C339 H333 0.930 . S
C339 C335 1.400 . S
C339 C338 1.385 . S
C340 C338 1.478 . S
C340 C342 1.381 . S
C340 C346 1.383 . S
C341 C337 1.495 . S
C341 H347 0.959 . S
C341 H348 0.961 . S
C341 H349 0.960 . S
C342 C340 1.381 . S
C342 C343 1.394 . S
C342 H350 0.930 . S
C343 C342 1.394 . S
C343 C344 1.383 . S
C343 H351 0.929 . S
C344 C343 1.383 . S
C344 C345 1.377 . S
C345 H329 0.930 . S
C345 C344 1.377 . S
C345 C346 1.379 . S
C346 H330 0.931 . S
C346 C340 1.383 . S
C346 C345 1.379 . S
H347 C341 0.959 . S
H348 C341 0.961 . S
H349 C341 0.960 . S
H350 C342 0.930 . S
H351 C343 0.929 . S
H352 C360 0.929 . S
H353 C362 0.930 . S
H354 C364 0.930 . S
H355 C367 0.929 . S
H356 C370 0.930 . S
H357 C372 0.960 . S
H358 C372 0.960 . S
H359 C372 0.960 . S
C360 H352 0.929 . S
C360 C361 1.377 . S
C360 C362 1.384 . S
C361 C360 1.377 . S
C361 C367 1.390 . S
C362 H353 0.930 . S
C362 C360 1.384 . S
C362 C363 1.372 . S
C363 C362 1.372 . S
C363 C364 1.400 . S
C363 C368 1.490 . S
C364 H354 0.930 . S
C364 C363 1.400 . S
C364 C367 1.386 . S
H365 C381 0.930 . S
H366 C382 0.931 . S
C367 H355 0.929 . S
C367 C361 1.390 . S
C367 C364 1.386 . S
C368 C363 1.490 . S
C368 C370 1.395 . S
C368 C371 1.403 . S
H369 C375 0.930 . S
C370 H356 0.930 . S
C370 C368 1.395 . S
C370 C373 1.403 . S
C371 C368 1.403 . S
C371 C372 1.524 . S
C371 C375 1.400 . S
C372 H357 0.960 . S
C372 H358 0.960 . S
C372 H359 0.960 . S
C372 C371 1.524 . S
C373 C370 1.403 . S
C373 C374 1.392 . S
C373 C377 1.495 . S
C374 C373 1.392 . S
C374 C375 1.385 . S
C374 C376 1.478 . S
C375 H369 0.930 . S
C375 C371 1.400 . S
C375 C374 1.385 . S
C376 C374 1.478 . S
C376 C378 1.381 . S
C376 C382 1.383 . S
C377 C373 1.495 . S
C377 H383 0.959 . S
C377 H384 0.961 . S
C377 H385 0.960 . S
C378 C376 1.381 . S
C378 C379 1.394 . S
C378 H386 0.930 . S
C379 C378 1.394 . S
C379 C380 1.383 . S
C379 H387 0.929 . S
C380 C379 1.383 . S
C380 C381 1.377 . S
C381 H365 0.930 . S
C381 C380 1.377 . S
C381 C382 1.379 . S
C382 H366 0.931 . S
C382 C376 1.383 . S
C382 C381 1.379 . S
H383 C377 0.959 . S
H384 C377 0.961 . S
H385 C377 0.960 . S
H386 C378 0.930 . S
H387 C379 0.929 . S
H388 C396 0.929 . S
H389 C398 0.930 . S
H390 C400 0.930 . S
H391 C403 0.929 . S
H392 C406 0.930 . S
H393 C408 0.960 . S
H394 C408 0.960 . S
H395 C408 0.960 . S
C396 H388 0.929 . S
C396 C397 1.377 . S
C396 C398 1.384 . S
C397 C396 1.377 . S
C397 C403 1.390 . S
C398 H389 0.930 . S
C398 C396 1.384 . S
C398 C399 1.372 . S
C399 C398 1.372 . S
C399 C400 1.400 . S
C399 C404 1.490 . S
C400 H390 0.930 . S
C400 C399 1.400 . S
C400 C403 1.386 . S
H401 C417 0.930 . S
H402 C418 0.931 . S
C403 H391 0.929 . S
C403 C397 1.390 . S
C403 C400 1.386 . S
C404 C399 1.490 . S
C404 C406 1.395 . S
C404 C407 1.403 . S
H405 C411 0.930 . S
C406 H392 0.930 . S
C406 C404 1.395 . S
C406 C409 1.403 . S
C407 C404 1.403 . S
C407 C408 1.524 . S
C407 C411 1.400 . S
C408 H393 0.960 . S
C408 H394 0.960 . S
C408 H395 0.960 . S
C408 C407 1.524 . S
C409 C406 1.403 . S
C409 C410 1.392 . S
C409 C413 1.495 . S
C410 C409 1.392 . S
C410 C411 1.385 . S
C410 C412 1.478 . S
C411 H405 0.930 . S
C411 C407 1.400 . S
C411 C410 1.385 . S
C412 C410 1.478 . S
C412 C414 1.381 . S
C412 C418 1.383 . S
C413 C409 1.495 . S
C413 H419 0.959 . S
C413 H420 0.961 . S
C413 H421 0.960 . S
C414 C412 1.381 . S
C414 C415 1.394 . S
C414 H422 0.930 . S
C415 C414 1.394 . S
C415 C416 1.383 . S
C415 H423 0.929 . S
C416 C415 1.383 . S
C416 C417 1.377 . S
C417 H401 0.930 . S
C417 C416 1.377 . S
C417 C418 1.379 . S
C418 H402 0.931 . S
C418 C412 1.383 . S
C418 C417 1.379 . S
H419 C413 0.959 . S
H420 C413 0.961 . S
H421 C413 0.960 . S
H422 C414 0.930 . S
H423 C415 0.929 . S
H424 C432 0.929 . S
H425 C434 0.930 . S
H426 C436 0.930 . S
H427 C439 0.929 . S
H428 C442 0.930 . S
H429 C444 0.960 . S
H430 C444 0.960 . S
H431 C444 0.960 . S
C432 H424 0.929 . S
C432 C433 1.377 . S
C432 C434 1.384 . S
C433 C432 1.377 . S
C433 C439 1.390 . S
C434 H425 0.930 . S
C434 C432 1.384 . S
C434 C435 1.372 . S
C435 C434 1.372 . S
C435 C436 1.400 . S
C435 C440 1.490 . S
C436 H426 0.930 . S
C436 C435 1.400 . S
C436 C439 1.386 . S
H437 C453 0.930 . S
H438 C454 0.931 . S
C439 H427 0.929 . S
C439 C433 1.390 . S
C439 C436 1.386 . S
C440 C435 1.490 . S
C440 C442 1.395 . S
C440 C443 1.403 . S
H441 C447 0.930 . S
C442 H428 0.930 . S
C442 C440 1.395 . S
C442 C445 1.403 . S
C443 C440 1.403 . S
C443 C444 1.524 . S
C443 C447 1.400 . S
C444 H429 0.960 . S
C444 H430 0.960 . S
C444 H431 0.960 . S
C444 C443 1.524 . S
C445 C442 1.403 . S
C445 C446 1.392 . S
C445 C449 1.495 . S
C446 C445 1.392 . S
C446 C447 1.385 . S
C446 C448 1.478 . S
C447 H441 0.930 . S
C447 C443 1.400 . S
C447 C446 1.385 . S
C448 C446 1.478 . S
C448 C450 1.381 . S
C448 C454 1.383 . S
C449 C445 1.495 . S
C449 H455 0.959 . S
C449 H456 0.961 . S
C449 H457 0.960 . S
C450 C448 1.381 . S
C450 C451 1.394 . S
C450 H458 0.930 . S
C451 C450 1.394 . S
C451 C452 1.383 . S
C451 H459 0.929 . S
C452 C451 1.383 . S
C452 C453 1.377 . S
C453 H437 0.930 . S
C453 C452 1.377 . S
C453 C454 1.379 . S
C454 H438 0.931 . S
C454 C448 1.383 . S
C454 C453 1.379 . S
H455 C449 0.959 . S
H456 C449 0.961 . S
H457 C449 0.960 . S
H458 C450 0.930 . S
H459 C451 0.929 . S
H460 C468 0.929 . S
H461 C470 0.930 . S
H462 C472 0.930 . S
H463 C475 0.929 . S
H464 C478 0.930 . S
H465 C480 0.960 . S
H466 C480 0.960 . S
H467 C480 0.960 . S
C468 H460 0.929 . S
C468 C469 1.377 . S
C468 C470 1.384 . S
C469 C468 1.377 . S
C469 C475 1.390 . S
C470 H461 0.930 . S
C470 C468 1.384 . S
C470 C471 1.372 . S
C471 C470 1.372 . S
C471 C472 1.400 . S
C471 C476 1.490 . S
C472 H462 0.930 . S
C472 C471 1.400 . S
C472 C475 1.386 . S
H473 C489 0.930 . S
H474 C490 0.931 . S
C475 H463 0.929 . S
C475 C469 1.390 . S
C475 C472 1.386 . S
C476 C471 1.490 . S
C476 C478 1.395 . S
C476 C479 1.403 . S
H477 C483 0.930 . S
C478 H464 0.930 . S
C478 C476 1.395 . S
C478 C481 1.403 . S
C479 C476 1.403 . S
C479 C480 1.524 . S
C479 C483 1.400 . S
C480 H465 0.960 . S
C480 H466 0.960 . S
C480 H467 0.960 . S
C480 C479 1.524 . S
C481 C478 1.403 . S
C481 C482 1.392 . S
C481 C485 1.495 . S
C482 C481 1.392 . S
C482 C483 1.385 . S
C482 C484 1.478 . S
C483 H477 0.930 . S
C483 C479 1.400 . S
C483 C482 1.385 . S
C484 C482 1.478 . S
C484 C486 1.381 . S
C484 C490 1.383 . S
C485 C481 1.495 . S
C485 H491 0.959 . S
C485 H492 0.961 . S
C485 H493 0.960 . S
C486 C484 1.381 . S
C486 C487 1.394 . S
C486 H494 0.930 . S
C487 C486 1.394 . S
C487 C488 1.383 . S
C487 H495 0.929 . S
C488 C487 1.383 . S
C488 C489 1.377 . S
C489 H473 0.930 . S
C489 C488 1.377 . S
C489 C490 1.379 . S
C490 H474 0.931 . S
C490 C484 1.383 . S
C490 C489 1.379 . S
H491 C485 0.959 . S
H492 C485 0.961 . S
H493 C485 0.960 . S
H494 C486 0.930 . S
H495 C487 0.929 . S
H496 C504 0.929 . S
H497 C506 0.930 . S
H498 C508 0.930 . S
H499 C511 0.929 . S
H500 C514 0.930 . S
H501 C516 0.960 . S
H502 C516 0.960 . S
H503 C516 0.960 . S
C504 H496 0.929 . S
C504 C505 1.377 . S
C504 C506 1.384 . S
C505 C504 1.377 . S
C505 C511 1.390 . S
C506 H497 0.930 . S
C506 C504 1.384 . S
C506 C507 1.372 . S
C507 C506 1.372 . S
C507 C508 1.400 . S
C507 C512 1.490 . S
C508 H498 0.930 . S
C508 C507 1.400 . S
C508 C511 1.386 . S
H509 C525 0.930 . S
H510 C526 0.931 . S
C511 H499 0.929 . S
C511 C505 1.390 . S
C511 C508 1.386 . S
C512 C507 1.490 . S
C512 C514 1.395 . S
C512 C515 1.403 . S
H513 C519 0.930 . S
C514 H500 0.930 . S
C514 C512 1.395 . S
C514 C517 1.403 . S
C515 C512 1.403 . S
C515 C516 1.524 . S
C515 C519 1.400 . S
C516 H501 0.960 . S
C516 H502 0.960 . S
C516 H503 0.960 . S
C516 C515 1.524 . S
C517 C514 1.403 . S
C517 C518 1.392 . S
C517 C521 1.495 . S
C518 C517 1.392 . S
C518 C519 1.385 . S
C518 C520 1.478 . S
C519 H513 0.930 . S
C519 C515 1.400 . S
C519 C518 1.385 . S
C520 C518 1.478 . S
C520 C522 1.381 . S
C520 C526 1.383 . S
C521 C517 1.495 . S
C521 H527 0.959 . S
C521 H528 0.961 . S
C521 H529 0.960 . S
C522 C520 1.381 . S
C522 C523 1.394 . S
C522 H530 0.930 . S
C523 C522 1.394 . S
C523 C524 1.383 . S
C523 H531 0.929 . S
C524 C523 1.383 . S
C524 C525 1.377 . S
C525 H509 0.930 . S
C525 C524 1.377 . S
C525 C526 1.379 . S
C526 H510 0.931 . S
C526 C520 1.383 . S
C526 C525 1.379 . S
H527 C521 0.959 . S
H528 C521 0.961 . S
H529 C521 0.960 . S
H530 C522 0.930 . S
H531 C523 0.929 . S
H532 C540 0.929 . S
H533 C542 0.930 . S
H534 C544 0.930 . S
H535 C547 0.929 . S
H536 C550 0.930 . S
H537 C552 0.960 . S
H538 C552 0.960 . S
H539 C552 0.960 . S
C540 H532 0.929 . S
C540 C541 1.377 . S
C540 C542 1.384 . S
C541 C540 1.377 . S
C541 C547 1.390 . S
C542 H533 0.930 . S
C542 C540 1.384 . S
C542 C543 1.372 . S
C543 C542 1.372 . S
C543 C544 1.400 . S
C543 C548 1.490 . S
C544 H534 0.930 . S
C544 C543 1.400 . S
C544 C547 1.386 . S
H545 C561 0.930 . S
H546 C562 0.931 . S
C547 H535 0.929 . S
C547 C541 1.390 . S
C547 C544 1.386 . S
C548 C543 1.490 . S
C548 C550 1.395 . S
C548 C551 1.403 . S
H549 C555 0.930 . S
C550 H536 0.930 . S
C550 C548 1.395 . S
C550 C553 1.403 . S
C551 C548 1.403 . S
C551 C552 1.524 . S
C551 C555 1.400 . S
C552 H537 0.960 . S
C552 H538 0.960 . S
C552 H539 0.960 . S
C552 C551 1.524 . S
C553 C550 1.403 . S
C553 C554 1.392 . S
C553 C557 1.495 . S
C554 C553 1.392 . S
C554 C555 1.385 . S
C554 C556 1.478 . S
C555 H549 0.930 . S
C555 C551 1.400 . S
C555 C554 1.385 . S
C556 C554 1.478 . S
C556 C558 1.381 . S
C556 C562 1.383 . S
C557 C553 1.495 . S
C557 H563 0.959 . S
C557 H564 0.961 . S
C557 H565 0.960 . S
C558 C556 1.381 . S
C558 C559 1.394 . S
C558 H566 0.930 . S
C559 C558 1.394 . S
C559 C560 1.383 . S
C559 H567 0.929 . S
C560 C559 1.383 . S
C560 C561 1.377 . S
C561 H545 0.930 . S
C561 C560 1.377 . S
C561 C562 1.379 . S
C562 H546 0.931 . S
C562 C556 1.383 . S
C562 C561 1.379 . S
H563 C557 0.959 . S
H564 C557 0.961 . S
H565 C557 0.960 . S
H566 C558 0.930 . S
H567 C559 0.929 . S
H568 C576 0.929 . S
H569 C578 0.930 . S
H570 C580 0.930 . S
H571 C583 0.929 . S
H572 C586 0.930 . S
H573 C588 0.960 . S
H574 C588 0.960 . S
H575 C588 0.960 . S
C576 H568 0.929 . S
C576 C577 1.377 . S
C576 C578 1.384 . S
C577 C576 1.377 . S
C577 C583 1.390 . S
C578 H569 0.930 . S
C578 C576 1.384 . S
C578 C579 1.372 . S
C579 C578 1.372 . S
C579 C580 1.400 . S
C579 C584 1.490 . S
C580 H570 0.930 . S
C580 C579 1.400 . S
C580 C583 1.386 . S
H581 C597 0.930 . S
H582 C598 0.931 . S
C583 H571 0.929 . S
C583 C577 1.390 . S
C583 C580 1.386 . S
C584 C579 1.490 . S
C584 C586 1.395 . S
C584 C587 1.403 . S
H585 C591 0.930 . S
C586 H572 0.930 . S
C586 C584 1.395 . S
C586 C589 1.403 . S
C587 C584 1.403 . S
C587 C588 1.524 . S
C587 C591 1.400 . S
C588 H573 0.960 . S
C588 H574 0.960 . S
C588 H575 0.960 . S
C588 C587 1.524 . S
C589 C586 1.403 . S
C589 C590 1.392 . S
C589 C593 1.495 . S
C590 C589 1.392 . S
C590 C591 1.385 . S
C590 C592 1.478 . S
C591 H585 0.930 . S
C591 C587 1.400 . S
C591 C590 1.385 . S
C592 C590 1.478 . S
C592 C594 1.381 . S
C592 C598 1.383 . S
C593 C589 1.495 . S
C593 H599 0.959 . S
C593 H600 0.961 . S
C593 H601 0.960 . S
C594 C592 1.381 . S
C594 C595 1.394 . S
C594 H602 0.930 . S
C595 C594 1.394 . S
C595 C596 1.383 . S
C595 H603 0.929 . S
C596 C595 1.383 . S
C596 C597 1.377 . S
C597 H581 0.930 . S
C597 C596 1.377 . S
C597 C598 1.379 . S
C598 H582 0.931 . S
C598 C592 1.383 . S
C598 C597 1.379 . S
H599 C593 0.959 . S
H600 C593 0.961 . S
H601 C593 0.960 . S
H602 C594 0.930 . S
H603 C595 0.929 . S
H604 C612 0.929 . S
H605 C614 0.930 . S
H606 C616 0.930 . S
H607 C619 0.929 . S
H608 C622 0.930 . S
H609 C624 0.960 . S
H610 C624 0.960 . S
H611 C624 0.960 . S
C612 H604 0.929 . S
C612 C613 1.377 . S
C612 C614 1.384 . S
C613 C612 1.377 . S
C613 C619 1.390 . S
C614 H605 0.930 . S
C614 C612 1.384 . S
C614 C615 1.372 . S
C615 C614 1.372 . S
C615 C616 1.400 . S
C615 C620 1.490 . S
C616 H606 0.930 . S
C616 C615 1.400 . S
C616 C619 1.386 . S
H617 C633 0.930 . S
H618 C634 0.931 . S
C619 H607 0.929 . S
C619 C613 1.390 . S
C619 C616 1.386 . S
C620 C615 1.490 . S
C620 C622 1.395 . S
C620 C623 1.403 . S
H621 C627 0.930 . S
C622 H608 0.930 . S
C622 C620 1.395 . S
C622 C625 1.403 . S
C623 C620 1.403 . S
C623 C624 1.524 . S
C623 C627 1.400 . S
C624 H609 0.960 . S
C624 H610 0.960 . S
C624 H611 0.960 . S
C624 C623 1.524 . S
C625 C622 1.403 . S
C625 C626 1.392 . S
C625 C629 1.495 . S
C626 C625 1.392 . S
C626 C627 1.385 . S
C626 C628 1.478 . S
C627 H621 0.930 . S
C627 C623 1.400 . S
C627 C626 1.385 . S
C628 C626 1.478 . S
C628 C630 1.381 . S
C628 C634 1.383 . S
C629 C625 1.495 . S
C629 H635 0.959 . S
C629 H636 0.961 . S
C629 H637 0.960 . S
C630 C628 1.381 . S
C630 C631 1.394 . S
C630 H638 0.930 . S
C631 C630 1.394 . S
C631 C632 1.383 . S
C631 H639 0.929 . S
C632 C631 1.383 . S
C632 C633 1.377 . S
C633 H617 0.930 . S
C633 C632 1.377 . S
C633 C634 1.379 . S
C634 H618 0.931 . S
C634 C628 1.383 . S
C634 C633 1.379 . S
H635 C629 0.959 . S
H636 C629 0.961 . S
H637 C629 0.960 . S
H638 C630 0.930 . S
H639 C631 0.929 . S
H640 C648 0.929 . S
H641 C650 0.930 . S
H642 C652 0.930 . S
H643 C655 0.929 . S
H644 C658 0.930 . S
H645 C660 0.960 . S
H646 C660 0.960 . S
H647 C660 0.960 . S
C648 H640 0.929 . S
C648 C649 1.377 . S
C648 C650 1.384 . S
C649 C648 1.377 . S
C649 C655 1.390 . S
C650 H641 0.930 . S
C650 C648 1.384 . S
C650 C651 1.372 . S
C651 C650 1.372 . S
C651 C652 1.400 . S
C651 C656 1.490 . S
C652 H642 0.930 . S
C652 C651 1.400 . S
C652 C655 1.386 . S
H653 C669 0.930 . S
H654 C670 0.931 . S
C655 H643 0.929 . S
C655 C649 1.390 . S
C655 C652 1.386 . S
C656 C651 1.490 . S
C656 C658 1.395 . S
C656 C659 1.403 . S
H657 C663 0.930 . S
C658 H644 0.930 . S
C658 C656 1.395 . S
C658 C661 1.403 . S
C659 C656 1.403 . S
C659 C660 1.524 . S
C659 C663 1.400 . S
C660 H645 0.960 . S
C660 H646 0.960 . S
C660 H647 0.960 . S
C660 C659 1.524 . S
C661 C658 1.403 . S
C661 C662 1.392 . S
C661 C665 1.495 . S
C662 C661 1.392 . S
C662 C663 1.385 . S
C662 C664 1.478 . S
C663 H657 0.930 . S
C663 C659 1.400 . S
C663 C662 1.385 . S
C664 C662 1.478 . S
C664 C666 1.381 . S
C664 C670 1.383 . S
C665 C661 1.495 . S
C665 H671 0.959 . S
C665 H672 0.961 . S
C665 H673 0.960 . S
C666 C664 1.381 . S
C666 C667 1.394 . S
C666 H674 0.930 . S
C667 C666 1.394 . S
C667 C668 1.383 . S
C667 H675 0.929 . S
C668 C667 1.383 . S
C668 C669 1.377 . S
C669 H653 0.930 . S
C669 C668 1.377 . S
C669 C670 1.379 . S
C670 H654 0.931 . S
C670 C664 1.383 . S
C670 C669 1.379 . S
H671 C665 0.959 . S
H672 C665 0.961 . S
H673 C665 0.960 . S
H674 C666 0.930 . S
H675 C667 0.929 . S
H676 C684 0.929 . S
H677 C686 0.930 . S
H678 C688 0.930 . S
H679 C691 0.929 . S
H680 C694 0.930 . S
H681 C696 0.960 . S
H682 C696 0.960 . S
H683 C696 0.960 . S
C684 H676 0.929 . S
C684 C685 1.377 . S
C684 C686 1.384 . S
C685 C684 1.377 . S
C685 C691 1.390 . S
C686 H677 0.930 . S
C686 C684 1.384 . S
C686 C687 1.372 . S
C687 C686 1.372 . S
C687 C688 1.400 . S
C687 C692 1.490 . S
C688 H678 0.930 . S
C688 C687 1.400 . S
C688 C691 1.386 . S
H689 C705 0.930 . S
H690 C706 0.931 . S
C691 H679 0.929 . S
C691 C685 1.390 . S
C691 C688 1.386 . S
C692 C687 1.490 . S
C692 C694 1.395 . S
C692 C695 1.403 . S
H693 C699 0.930 . S
C694 H680 0.930 . S
C694 C692 1.395 . S
C694 C697 1.403 . S
C695 C692 1.403 . S
C695 C696 1.524 . S
C695 C699 1.400 . S
C696 H681 0.960 . S
C696 H682 0.960 . S
C696 H683 0.960 . S
C696 C695 1.524 . S
C697 C694 1.403 . S
C697 C698 1.392 . S
C697 C701 1.495 . S
C698 C697 1.392 . S
C698 C699 1.385 . S
C698 C700 1.478 . S
C699 H693 0.930 . S
C699 C695 1.400 . S
C699 C698 1.385 . S
C700 C698 1.478 . S
C700 C702 1.381 . S
C700 C706 1.383 . S
C701 C697 1.495 . S
C701 H707 0.959 . S
C701 H708 0.961 . S
C701 H709 0.960 . S
C702 C700 1.381 . S
C702 C703 1.394 . S
C702 H710 0.930 . S
C703 C702 1.394 . S
C703 C704 1.383 . S
C703 H711 0.929 . S
C704 C703 1.383 . S
C704 C705 1.377 . S
C705 H689 0.930 . S
C705 C704 1.377 . S
C705 C706 1.379 . S
C706 H690 0.931 . S
C706 C700 1.383 . S
C706 C705 1.379 . S
H707 C701 0.959 . S
H708 C701 0.961 . S
H709 C701 0.960 . S
H710 C702 0.930 . S
H711 C703 0.929 . S
H712 C720 0.929 . S
H713 C722 0.930 . S
H714 C724 0.930 . S
H715 C727 0.929 . S
H716 C730 0.930 . S
H717 C732 0.960 . S
H718 C732 0.960 . S
H719 C732 0.960 . S
C720 H712 0.929 . S
C720 C721 1.377 . S
C720 C722 1.384 . S
C721 C720 1.377 . S
C721 C727 1.390 . S
C722 H713 0.930 . S
C722 C720 1.384 . S
C722 C723 1.372 . S
C723 C722 1.372 . S
C723 C724 1.400 . S
C723 C728 1.490 . S
C724 H714 0.930 . S
C724 C723 1.400 . S
C724 C727 1.386 . S
H725 C741 0.930 . S
H726 C742 0.931 . S
C727 H715 0.929 . S
C727 C721 1.390 . S
C727 C724 1.386 . S
C728 C723 1.490 . S
C728 C730 1.395 . S
C728 C731 1.403 . S
H729 C735 0.930 . S
C730 H716 0.930 . S
C730 C728 1.395 . S
C730 C733 1.403 . S
C731 C728 1.403 . S
C731 C732 1.524 . S
C731 C735 1.400 . S
C732 H717 0.960 . S
C732 H718 0.960 . S
C732 H719 0.960 . S
C732 C731 1.524 . S
C733 C730 1.403 . S
C733 C734 1.392 . S
C733 C737 1.495 . S
C734 C733 1.392 . S
C734 C735 1.385 . S
C734 C736 1.478 . S
C735 H729 0.930 . S
C735 C731 1.400 . S
C735 C734 1.385 . S
C736 C734 1.478 . S
C736 C738 1.381 . S
C736 C742 1.383 . S
C737 C733 1.495 . S
C737 H743 0.959 . S
C737 H744 0.961 . S
C737 H745 0.960 . S
C738 C736 1.381 . S
C738 C739 1.394 . S
C738 H746 0.930 . S
C739 C738 1.394 . S
C739 C740 1.383 . S
C739 H747 0.929 . S
C740 C739 1.383 . S
C740 C741 1.377 . S
C741 H725 0.930 . S
C741 C740 1.377 . S
C741 C742 1.379 . S
C742 H726 0.931 . S
C742 C736 1.383 . S
C742 C741 1.379 . S
H743 C737 0.959 . S
H744 C737 0.961 . S
H745 C737 0.960 . S
H746 C738 0.930 . S
H747 C739 0.929 . S
H748 C756 0.929 . S
H749 C758 0.930 . S
H750 C760 0.930 . S
H751 C763 0.929 . S
H752 C766 0.930 . S
H753 C768 0.960 . S
H754 C768 0.960 . S
H755 C768 0.960 . S
C756 H748 0.929 . S
C756 C757 1.377 . S
C756 C758 1.384 . S
C757 C756 1.377 . S
C757 C763 1.390 . S
C758 H749 0.930 . S
C758 C756 1.384 . S
C758 C759 1.372 . S
C759 C758 1.372 . S
C759 C760 1.400 . S
C759 C764 1.490 . S
C760 H750 0.930 . S
C760 C759 1.400 . S
C760 C763 1.386 . S
H761 C777 0.930 . S
H762 C778 0.931 . S
C763 H751 0.929 . S
C763 C757 1.390 . S
C763 C760 1.386 . S
C764 C759 1.490 . S
C764 C766 1.395 . S
C764 C767 1.403 . S
H765 C771 0.930 . S
C766 H752 0.930 . S
C766 C764 1.395 . S
C766 C769 1.403 . S
C767 C764 1.403 . S
C767 C768 1.524 . S
C767 C771 1.400 . S
C768 H753 0.960 . S
C768 H754 0.960 . S
C768 H755 0.960 . S
C768 C767 1.524 . S
C769 C766 1.403 . S
C769 C770 1.392 . S
C769 C773 1.495 . S
C770 C769 1.392 . S
C770 C771 1.385 . S
C770 C772 1.478 . S
C771 H765 0.930 . S
C771 C767 1.400 . S
C771 C770 1.385 . S
C772 C770 1.478 . S
C772 C774 1.381 . S
C772 C778 1.383 . S
C773 C769 1.495 . S
C773 H779 0.959 . S
C773 H780 0.961 . S
C773 H781 0.960 . S
C774 C772 1.381 . S
C774 C775 1.394 . S
C774 H782 0.930 . S
C775 C774 1.394 . S
C775 C776 1.383 . S
C775 H783 0.929 . S
C776 C775 1.383 . S
C776 C777 1.377 . S
C777 H761 0.930 . S
C777 C776 1.377 . S
C777 C778 1.379 . S
C778 H762 0.931 . S
C778 C772 1.383 . S
C778 C777 1.379 . S
H779 C773 0.959 . S
H780 C773 0.961 . S
H781 C773 0.960 . S
H782 C774 0.930 . S
H783 C775 0.929 . S
H784 C792 0.929 . S
H785 C794 0.930 . S
H786 C796 0.930 . S
H787 C799 0.929 . S
H788 C802 0.930 . S
H789 C804 0.960 . S
H790 C804 0.960 . S
H791 C804 0.960 . S
C792 H784 0.929 . S
C792 C793 1.377 . S
C792 C794 1.384 . S
C793 C792 1.377 . S
C793 C799 1.390 . S
C794 H785 0.930 . S
C794 C792 1.384 . S
C794 C795 1.372 . S
C795 C794 1.372 . S
C795 C796 1.400 . S
C795 C800 1.490 . S
C796 H786 0.930 . S
C796 C795 1.400 . S
C796 C799 1.386 . S
H797 C813 0.930 . S
H798 C814 0.931 . S
C799 H787 0.929 . S
C799 C793 1.390 . S
C799 C796 1.386 . S
C800 C795 1.490 . S
C800 C802 1.395 . S
C800 C803 1.403 . S
H801 C807 0.930 . S
C802 H788 0.930 . S
C802 C800 1.395 . S
C802 C805 1.403 . S
C803 C800 1.403 . S
C803 C804 1.524 . S
C803 C807 1.400 . S
C804 H789 0.960 . S
C804 H790 0.960 . S
C804 H791 0.960 . S
C804 C803 1.524 . S
C805 C802 1.403 . S
C805 C806 1.392 . S
C805 C809 1.495 . S
C806 C805 1.392 . S
C806 C807 1.385 . S
C806 C808 1.478 . S
C807 H801 0.930 . S
C807 C803 1.400 . S
C807 C806 1.385 . S
C808 C806 1.478 . S
C808 C810 1.381 . S
C808 C814 1.383 . S
C809 C805 1.495 . S
C809 H815 0.959 . S
C809 H816 0.961 . S
C809 H817 0.960 . S
C810 C808 1.381 . S
C810 C811 1.394 . S
C810 H818 0.930 . S
C811 C810 1.394 . S
C811 C812 1.383 . S
C811 H819 0.929 . S
C812 C811 1.383 . S
C812 C813 1.377 . S
C813 H797 0.930 . S
C813 C812 1.377 . S
C813 C814 1.379 . S
C814 H798 0.931 . S
C814 C808 1.383 . S
C814 C813 1.379 . S
H815 C809 0.959 . S
H816 C809 0.961 . S
H817 C809 0.960 . S
H818 C810 0.930 . S
H819 C811 0.929 . S
H820 C828 0.929 . S
H821 C830 0.930 . S
H822 C832 0.930 . S
H823 C835 0.929 . S
H824 C838 0.930 . S
H825 C840 0.960 . S
H826 C840 0.960 . S
H827 C840 0.960 . S
C828 H820 0.929 . S
C828 C829 1.377 . S
C828 C830 1.384 . S
C829 C828 1.377 . S
C829 C835 1.390 . S
C830 H821 0.930 . S
C830 C828 1.384 . S
C830 C831 1.372 . S
C831 C830 1.372 . S
C831 C832 1.400 . S
C831 C836 1.490 . S
C832 H822 0.930 . S
C832 C831 1.400 . S
C832 C835 1.386 . S
H833 C849 0.930 . S
H834 C850 0.931 . S
C835 H823 0.929 . S
C835 C829 1.390 . S
C835 C832 1.386 . S
C836 C831 1.490 . S
C836 C838 1.395 . S
C836 C839 1.403 . S
H837 C843 0.930 . S
C838 H824 0.930 . S
C838 C836 1.395 . S
C838 C841 1.403 . S
C839 C836 1.403 . S
C839 C840 1.524 . S
C839 C843 1.400 . S
C840 H825 0.960 . S
C840 H826 0.960 . S
C840 H827 0.960 . S
C840 C839 1.524 . S
C841 C838 1.403 . S
C841 C842 1.392 . S
C841 C845 1.495 . S
C842 C841 1.392 . S
C842 C843 1.385 . S
C842 C844 1.478 . S
C843 H837 0.930 . S
C843 C839 1.400 . S
C843 C842 1.385 . S
C844 C842 1.478 . S
C844 C846 1.381 . S
C844 C850 1.383 . S
C845 C841 1.495 . S
C845 H851 0.959 . S
C845 H852 0.961 . S
C845 H853 0.960 . S
C846 C844 1.381 . S
C846 C847 1.394 . S
C846 H854 0.930 . S
C847 C846 1.394 . S
C847 C848 1.383 . S
C847 H855 0.929 . S
C848 C847 1.383 . S
C848 C849 1.377 . S
C849 H833 0.930 . S
C849 C848 1.377 . S
C849 C850 1.379 . S
C850 H834 0.931 . S
C850 C844 1.383 . S
C850 C849 1.379 . S
H851 C845 0.959 . S
H852 C845 0.961 . S
H853 C845 0.960 . S
H854 C846 0.930 . S
H855 C847 0.929 . S
H856 C864 0.929 . S
H857 C866 0.930 . S
H858 C868 0.930 . S
H859 C871 0.929 . S
H860 C874 0.930 . S
H861 C876 0.960 . S
H862 C876 0.960 . S
H863 C876 0.960 . S
C864 H856 0.929 . S
C864 C865 1.377 . S
C864 C866 1.384 . S
C865 C864 1.377 . S
C865 C871 1.390 . S
C866 H857 0.930 . S
C866 C864 1.384 . S
C866 C867 1.372 . S
C867 C866 1.372 . S
C867 C868 1.400 . S
C867 C872 1.490 . S
C868 H858 0.930 . S
C868 C867 1.400 . S
C868 C871 1.386 . S
H869 C885 0.930 . S
H870 C886 0.931 . S
C871 H859 0.929 . S
C871 C865 1.390 . S
C871 C868 1.386 . S
C872 C867 1.490 . S
C872 C874 1.395 . S
C872 C875 1.403 . S
H873 C879 0.930 . S
C874 H860 0.930 . S
C874 C872 1.395 . S
C874 C877 1.403 . S
C875 C872 1.403 . S
C875 C876 1.524 . S
C875 C879 1.400 . S
C876 H861 0.960 . S
C876 H862 0.960 . S
C876 H863 0.960 . S
C876 C875 1.524 . S
C877 C874 1.403 . S
C877 C878 1.392 . S
C877 C881 1.495 . S
C878 C877 1.392 . S
C878 C879 1.385 . S
C878 C880 1.478 . S
C879 H873 0.930 . S
C879 C875 1.400 . S
C879 C878 1.385 . S
C880 C878 1.478 . S
C880 C882 1.381 . S
C880 C886 1.383 . S
C881 C877 1.495 . S
C881 H887 0.959 . S
C881 H888 0.961 . S
C881 H889 0.960 . S
C882 C880 1.381 . S
C882 C883 1.394 . S
C882 H890 0.930 . S
C883 C882 1.394 . S
C883 C884 1.383 . S
C883 H891 0.929 . S
C884 C883 1.383 . S
C884 C885 1.377 . S
C885 H869 0.930 . S
C885 C884 1.377 . S
C885 C886 1.379 . S
C886 H870 0.931 . S
C886 C880 1.383 . S
C886 C885 1.379 . S
H887 C881 0.959 . S
H888 C881 0.961 . S
H889 C881 0.960 . S
H890 C882 0.930 . S
H891 C883 0.929 . S
H892 C900 0.929 . S
H893 C902 0.930 . S
H894 C904 0.930 . S
H895 C907 0.929 . S
H896 C910 0.930 . S
H897 C912 0.960 . S
H898 C912 0.960 . S
H899 C912 0.960 . S
C900 H892 0.929 . S
C900 C901 1.377 . S
C900 C902 1.384 . S
C901 C900 1.377 . S
C901 C907 1.390 . S
C902 H893 0.930 . S
C902 C900 1.384 . S
C902 C903 1.372 . S
C903 C902 1.372 . S
C903 C904 1.400 . S
C903 C908 1.490 . S
C904 H894 0.930 . S
C904 C903 1.400 . S
C904 C907 1.386 . S
H905 C921 0.930 . S
H906 C922 0.931 . S
C907 H895 0.929 . S
C907 C901 1.390 . S
C907 C904 1.386 . S
C908 C903 1.490 . S
C908 C910 1.395 . S
C908 C911 1.403 . S
H909 C915 0.930 . S
C910 H896 0.930 . S
C910 C908 1.395 . S
C910 C913 1.403 . S
C911 C908 1.403 . S
C911 C912 1.524 . S
C911 C915 1.400 . S
C912 H897 0.960 . S
C912 H898 0.960 . S
C912 H899 0.960 . S
C912 C911 1.524 . S
C913 C910 1.403 . S
C913 C914 1.392 . S
C913 C917 1.495 . S
C914 C913 1.392 . S
C914 C915 1.385 . S
C914 C916 1.478 . S
C915 H909 0.930 . S
C915 C911 1.400 . S
C915 C914 1.385 . S
C916 C914 1.478 . S
C916 C918 1.381 . S
C916 C922 1.383 . S
C917 C913 1.495 . S
C917 H923 0.959 . S
C917 H924 0.961 . S
C917 H925 0.960 . S
C918 C916 1.381 . S
C918 C919 1.394 . S
C918 H926 0.930 . S
C919 C918 1.394 . S
C919 C920 1.383 . S
C919 H927 0.929 . S
C920 C919 1.383 . S
C920 C921 1.377 . S
C921 H905 0.930 . S
C921 C920 1.377 . S
C921 C922 1.379 . S
C922 H906 0.931 . S
C922 C916 1.383 . S
C922 C921 1.379 . S
H923 C917 0.959 . S
H924 C917 0.961 . S
H925 C917 0.960 . S
H926 C918 0.930 . S
H927 C919 0.929 . S
H928 C936 0.929 . S
H929 C938 0.930 . S
H930 C940 0.930 . S
H931 C943 0.929 . S
H932 C946 0.930 . S
H933 C948 0.960 . S
H934 C948 0.960 . S
H935 C948 0.960 . S
C936 H928 0.929 . S
C936 C937 1.377 . S
C936 C938 1.384 . S
C937 C936 1.377 . S
C937 C943 1.390 . S
C938 H929 0.930 . S
C938 C936 1.384 . S
C938 C939 1.372 . S
C939 C938 1.372 . S
C939 C940 1.400 . S
C939 C944 1.490 . S
C940 H930 0.930 . S
C940 C939 1.400 . S
C940 C943 1.386 . S
H941 C957 0.930 . S
H942 C958 0.931 . S
C943 H931 0.929 . S
C943 C937 1.390 . S
C943 C940 1.386 . S
C944 C939 1.490 . S
C944 C946 1.395 . S
C944 C947 1.403 . S
H945 C951 0.930 . S
C946 H932 0.930 . S
C946 C944 1.395 . S
C946 C949 1.403 . S
C947 C944 1.403 . S
C947 C948 1.524 . S
C947 C951 1.400 . S
C948 H933 0.960 . S
C948 H934 0.960 . S
C948 H935 0.960 . S
C948 C947 1.524 . S
C949 C946 1.403 . S
C949 C950 1.392 . S
C949 C953 1.495 . S
C950 C949 1.392 . S
C950 C951 1.385 . S
C950 C952 1.478 . S
C951 H945 0.930 . S
C951 C947 1.400 . S
C951 C950 1.385 . S
C952 C950 1.478 . S
C952 C954 1.381 . S
C952 C958 1.383 . S
C953 C949 1.495 . S
C953 H959 0.959 . S
C953 H960 0.961 . S
C953 H961 0.960 . S
C954 C952 1.381 . S
C954 C955 1.394 . S
C954 H962 0.930 . S
C955 C954 1.394 . S
C955 C956 1.383 . S
C955 H963 0.929 . S
C956 C955 1.383 . S
C956 C957 1.377 . S
C957 H941 0.930 . S
C957 C956 1.377 . S
C957 C958 1.379 . S
C958 H942 0.931 . S
C958 C952 1.383 . S
C958 C957 1.379 . S
H959 C953 0.959 . S
H960 C953 0.961 . S
H961 C953 0.960 . S
H962 C954 0.930 . S
H963 C955 0.929 . S
H964 C972 0.929 . S
H965 C974 0.930 . S
H966 C976 0.930 . S
H967 C979 0.929 . S
H968 C982 0.930 . S
H969 C984 0.960 . S
H970 C984 0.960 . S
H971 C984 0.960 . S
C972 H964 0.929 . S
C972 C973 1.377 . S
C972 C974 1.384 . S
C973 C972 1.377 . S
C973 C979 1.390 . S
C974 H965 0.930 . S
C974 C972 1.384 . S
C974 C975 1.372 . S
C975 C974 1.372 . S
C975 C976 1.400 . S
C975 C980 1.490 . S
C976 H966 0.930 . S
C976 C975 1.400 . S
C976 C979 1.386 . S
H977 C993 0.930 . S
H978 C994 0.931 . S
C979 H967 0.929 . S
C979 C973 1.390 . S
C979 C976 1.386 . S
C980 C975 1.490 . S
C980 C982 1.395 . S
C980 C983 1.403 . S
H981 C987 0.930 . S
C982 H968 0.930 . S
C982 C980 1.395 . S
C982 C985 1.403 . S
C983 C980 1.403 . S
C983 C984 1.524 . S
C983 C987 1.400 . S
C984 H969 0.960 . S
C984 H970 0.960 . S
C984 H971 0.960 . S
C984 C983 1.524 . S
C985 C982 1.403 . S
C985 C986 1.392 . S
C985 C989 1.495 . S
C986 C985 1.392 . S
C986 C987 1.385 . S
C986 C988 1.478 . S
C987 H981 0.930 . S
C987 C983 1.400 . S
C987 C986 1.385 . S
C988 C986 1.478 . S
C988 C990 1.381 . S
C988 C994 1.383 . S
C989 C985 1.495 . S
C989 H995 0.959 . S
C989 H996 0.961 . S
C989 H997 0.960 . S
C990 C988 1.381 . S
C990 C991 1.394 . S
C990 H998 0.930 . S
C991 C990 1.394 . S
C991 C992 1.383 . S
C991 H999 0.929 . S
C992 C991 1.383 . S
C992 C993 1.377 . S
C993 H977 0.930 . S
C993 C992 1.377 . S
C993 C994 1.379 . S
C994 H978 0.931 . S
C994 C988 1.383 . S
C994 C993 1.379 . S
H995 C989 0.959 . S
H996 C989 0.961 . S
H997 C989 0.960 . S
H998 C990 0.930 . S
H999 C991 0.929 . S
H1000 C1008 0.929 . S
H1001 C1010 0.930 . S
H1002 C1012 0.930 . S
H1003 C1015 0.929 . S
H1004 C1018 0.930 . S
H1005 C1020 0.960 . S
H1006 C1020 0.960 . S
H1007 C1020 0.960 . S
C1008 H1000 0.929 . S
C1008 C1009 1.377 . S
C1008 C1010 1.384 . S
C1009 C1008 1.377 . S
C1009 C1015 1.390 . S
C1010 H1001 0.930 . S
C1010 C1008 1.384 . S
C1010 C1011 1.372 . S
C1011 C1010 1.372 . S
C1011 C1012 1.400 . S
C1011 C1016 1.490 . S
C1012 H1002 0.930 . S
C1012 C1011 1.400 . S
C1012 C1015 1.386 . S
H1013 C1029 0.930 . S
H1014 C1030 0.931 . S
C1015 H1003 0.929 . S
C1015 C1009 1.390 . S
C1015 C1012 1.386 . S
C1016 C1011 1.490 . S
C1016 C1018 1.395 . S
C1016 C1019 1.403 . S
H1017 C1023 0.930 . S
C1018 H1004 0.930 . S
C1018 C1016 1.395 . S
C1018 C1021 1.403 . S
C1019 C1016 1.403 . S
C1019 C1020 1.524 . S
C1019 C1023 1.400 . S
C1020 H1005 0.960 . S
C1020 H1006 0.960 . S
C1020 H1007 0.960 . S
C1020 C1019 1.524 . S
C1021 C1018 1.403 . S
C1021 C1022 1.392 . S
C1021 C1025 1.495 . S
C1022 C1021 1.392 . S
C1022 C1023 1.385 . S
C1022 C1024 1.478 . S
C1023 H1017 0.930 . S
C1023 C1019 1.400 . S
C1023 C1022 1.385 . S
C1024 C1022 1.478 . S
C1024 C1026 1.381 . S
C1024 C1030 1.383 . S
C1025 C1021 1.495 . S
C1025 H1031 0.959 . S
C1025 H1032 0.961 . S
C1025 H1033 0.960 . S
C1026 C1024 1.381 . S
C1026 C1027 1.394 . S
C1026 H1034 0.930 . S
C1027 C1026 1.394 . S
C1027 C1028 1.383 . S
C1027 H1035 0.929 . S
C1028 C1027 1.383 . S
C1028 C1029 1.377 . S
C1029 H1013 0.930 . S
C1029 C1028 1.377 . S
C1029 C1030 1.379 . S
C1030 H1014 0.931 . S
C1030 C1024 1.383 . S
C1030 C1029 1.379 . S
H1031 C1025 0.959 . S
H1032 C1025 0.961 . S
H1033 C1025 0.960 . S
H1034 C1026 0.930 . S
H1035 C1027 0.929 . S
H1036 C1044 0.929 . S
H1037 C1046 0.930 . S
H1038 C1048 0.930 . S
H1039 C1051 0.929 . S
H1040 C1054 0.930 . S
H1041 C1056 0.960 . S
H1042 C1056 0.960 . S
H1043 C1056 0.960 . S
C1044 H1036 0.929 . S
C1044 C1045 1.377 . S
C1044 C1046 1.384 . S
C1045 C1044 1.377 . S
C1045 C1051 1.390 . S
C1046 H1037 0.930 . S
C1046 C1044 1.384 . S
C1046 C1047 1.372 . S
C1047 C1046 1.372 . S
C1047 C1048 1.400 . S
C1047 C1052 1.490 . S
C1048 H1038 0.930 . S
C1048 C1047 1.400 . S
C1048 C1051 1.386 . S
H1049 C1065 0.930 . S
H1050 C1066 0.931 . S
C1051 H1039 0.929 . S
C1051 C1045 1.390 . S
C1051 C1048 1.386 . S
C1052 C1047 1.490 . S
C1052 C1054 1.395 . S
C1052 C1055 1.403 . S
H1053 C1059 0.930 . S
C1054 H1040 0.930 . S
C1054 C1052 1.395 . S
C1054 C1057 1.403 . S
C1055 C1052 1.403 . S
C1055 C1056 1.524 . S
C1055 C1059 1.400 . S
C1056 H1041 0.960 . S
C1056 H1042 0.960 . S
C1056 H1043 0.960 . S
C1056 C1055 1.524 . S
C1057 C1054 1.403 . S
C1057 C1058 1.392 . S
C1057 C1061 1.495 . S
C1058 C1057 1.392 . S
C1058 C1059 1.385 . S
C1058 C1060 1.478 . S
C1059 H1053 0.930 . S
C1059 C1055 1.400 . S
C1059 C1058 1.385 . S
C1060 C1058 1.478 . S
C1060 C1062 1.381 . S
C1060 C1066 1.383 . S
C1061 C1057 1.495 . S
C1061 H1067 0.959 . S
C1061 H1068 0.961 . S
C1061 H1069 0.960 . S
C1062 C1060 1.381 . S
C1062 C1063 1.394 . S
C1062 H1070 0.930 . S
C1063 C1062 1.394 . S
C1063 C1064 1.383 . S
C1063 H1071 0.929 . S
C1064 C1063 1.383 . S
C1064 C1065 1.377 . S
C1065 H1049 0.930 . S
C1065 C1064 1.377 . S
C1065 C1066 1.379 . S
C1066 H1050 0.931 . S
C1066 C1060 1.383 . S
C1066 C1065 1.379 . S
H1067 C1061 0.959 . S
H1068 C1061 0.961 . S
H1069 C1061 0.960 . S
H1070 C1062 0.930 . S
H1071 C1063 0.929 . S
H1072 C1080 0.929 . S
H1073 C1082 0.930 . S
H1074 C1084 0.930 . S
H1075 C1087 0.929 . S
H1076 C1090 0.930 . S
H1077 C1092 0.960 . S
H1078 C1092 0.960 . S
H1079 C1092 0.960 . S
C1080 H1072 0.929 . S
C1080 C1081 1.377 . S
C1080 C1082 1.384 . S
C1081 C1080 1.377 . S
C1081 C1087 1.390 1_455 S
C1082 H1073 0.930 . S
C1082 C1080 1.384 . S
C1082 C1083 1.372 . S
C1083 C1082 1.372 . S
C1083 C1084 1.400 1_455 S
C1083 C1088 1.490 . S
C1084 H1074 0.930 . S
C1084 C1083 1.400 1_655 S
C1084 C1087 1.386 . S
H1085 C1101 0.930 . S
H1086 C1102 0.931 . S
C1087 H1075 0.929 . S
C1087 C1081 1.390 1_655 S
C1087 C1084 1.386 . S
C1088 C1083 1.490 . S
C1088 C1090 1.395 . S
C1088 C1091 1.403 1_455 S
H1089 C1095 0.930 . S
C1090 H1076 0.930 . S
C1090 C1088 1.395 . S
C1090 C1093 1.403 . S
C1091 C1088 1.403 1_655 S
C1091 C1092 1.524 . S
C1091 C1095 1.400 . S
C1092 H1077 0.960 . S
C1092 H1078 0.960 . S
C1092 H1079 0.960 . S
C1092 C1091 1.524 . S
C1093 C1090 1.403 . S
C1093 C1094 1.399 . S
C1093 C1097 1.495 . S
C1094 C1093 1.399 . S
C1094 C1095 1.379 1_455 S
C1094 C1096 1.476 1_455 S
C1095 H1089 0.930 . S
C1095 C1091 1.400 . S
C1095 C1094 1.379 1_655 S
C1096 C1094 1.476 1_655 S
C1096 C1098 1.381 1_655 S
C1096 C1102 1.383 . S
C1097 C1093 1.495 . S
C1097 H1103 0.959 . S
C1097 H1104 0.961 . S
C1097 H1105 0.960 . S
C1098 C1096 1.381 1_455 S
C1098 C1099 1.394 . S
C1098 H1106 0.930 . S
C1099 C1098 1.394 . S
C1099 C1100 1.383 1_455 S
C1099 H1107 0.929 . S
C1100 C1099 1.383 1_655 S
C1100 C1101 1.377 . S
C1101 H1085 0.930 . S
C1101 C1100 1.377 . S
C1101 C1102 1.379 . S
C1102 H1086 0.931 . S
C1102 C1096 1.383 . S
C1102 C1101 1.379 . S
H1103 C1097 0.959 . S
H1104 C1097 0.961 . S
H1105 C1097 0.960 . S
H1106 C1098 0.930 . S
H1107 C1099 0.929 . S
H1108 C1116 0.929 . S
H1109 C1118 0.930 . S
H1110 C1120 0.930 . S
H1111 C1123 0.929 . S
H1112 C1126 0.930 . S
H1113 C1128 0.960 . S
H1114 C1128 0.960 . S
H1115 C1128 0.960 . S
C1116 H1108 0.929 . S
C1116 C1117 1.377 . S
C1116 C1118 1.384 . S
C1117 C1116 1.377 . S
C1117 C1123 1.390 1_565 S
C1118 H1109 0.930 . S
C1118 C1116 1.384 . S
C1118 C1119 1.372 . S
C1119 C1118 1.372 . S
C1119 C1120 1.400 1_565 S
C1119 C1124 1.490 . S
C1120 H1110 0.930 . S
C1120 C1119 1.400 1_545 S
C1120 C1123 1.386 . S
H1121 C1137 0.930 . S
H1122 C1138 0.931 . S
C1123 H1111 0.929 . S
C1123 C1117 1.390 1_545 S
C1123 C1120 1.386 . S
C1124 C1119 1.490 . S
C1124 C1126 1.395 . S
C1124 C1127 1.403 1_565 S
H1125 C1131 0.930 . S
C1126 H1112 0.930 . S
C1126 C1124 1.395 . S
C1126 C1129 1.403 . S
C1127 C1124 1.403 1_545 S
C1127 C1128 1.524 . S
C1127 C1131 1.400 . S
C1128 H1113 0.960 . S
C1128 H1114 0.960 . S
C1128 H1115 0.960 . S
C1128 C1127 1.524 . S
C1129 C1126 1.403 . S
C1129 C1130 1.408 . S
C1129 C1133 1.495 . S
C1130 C1129 1.408 . S
C1130 C1131 1.372 1_565 S
C1130 C1132 1.474 1_565 S
C1131 H1125 0.930 . S
C1131 C1127 1.400 . S
C1131 C1130 1.372 1_545 S
C1132 C1130 1.474 1_545 S
C1132 C1134 1.381 1_545 S
C1132 C1138 1.383 . S
C1133 C1129 1.495 . S
C1133 H1139 0.959 . S
C1133 H1140 0.961 . S
C1133 H1141 0.960 . S
C1134 C1132 1.381 1_565 S
C1134 C1135 1.394 . S
C1134 H1142 0.930 . S
C1135 C1134 1.394 . S
C1135 C1136 1.383 1_565 S
C1135 H1143 0.929 . S
C1136 C1135 1.383 1_545 S
C1136 C1137 1.377 . S
C1137 H1121 0.930 . S
C1137 C1136 1.377 . S
C1137 C1138 1.379 . S
C1138 H1122 0.931 . S
C1138 C1132 1.383 . S
C1138 C1137 1.379 . S
H1139 C1133 0.959 . S
H1140 C1133 0.961 . S
H1141 C1133 0.960 . S
H1142 C1134 0.930 . S
H1143 C1135 0.929 . S
H1144 C1152 0.929 . S
H1145 C1154 0.930 . S
H1146 C1156 0.930 . S
H1147 C1159 0.929 . S
H1148 C1162 0.930 . S
H1149 C1164 0.960 . S
H1150 C1164 0.960 . S
H1151 C1164 0.994 . S
C1152 H1144 0.929 . S
C1152 C1153 1.377 . S
C1152 C1154 1.384 . S
C1153 C1152 1.377 . S
C1153 C1159 1.390 1_455 S
C1154 H1145 0.930 . S
C1154 C1152 1.384 . S
C1154 C1155 1.372 . S
C1155 C1154 1.372 . S
C1155 C1156 1.400 1_455 S
C1155 C1160 1.490 . S
C1156 H1146 0.930 . S
C1156 C1155 1.400 1_655 S
C1156 C1159 1.386 . S
H1157 C1173 0.930 . S
H1158 C1174 0.931 . S
C1159 H1147 0.929 . S
C1159 C1153 1.390 1_655 S
C1159 C1156 1.386 . S
C1160 C1155 1.490 . S
C1160 C1162 1.396 . S
C1160 C1163 1.403 . S
H1161 C1167 0.932 . S
C1162 H1148 0.930 . S
C1162 C1160 1.396 . S
C1162 C1165 1.402 1_455 S
C1163 C1160 1.403 . S
C1163 C1164 1.524 . S
C1163 C1167 1.410 . S
C1164 H1149 0.960 . S
C1164 H1150 0.960 . S
C1164 H1151 0.994 . S
C1164 C1163 1.524 . S
C1165 C1162 1.402 1_655 S
C1165 C1166 1.392 . S
C1165 C1169 1.495 . S
C1166 C1165 1.392 . S
C1166 C1167 1.377 1_655 S
C1166 C1168 1.478 . S
C1167 H1161 0.932 . S
C1167 C1163 1.410 . S
C1167 C1166 1.377 1_455 S
C1168 C1166 1.478 . S
C1168 C1170 1.381 1_655 S
C1168 C1174 1.383 . S
C1169 C1165 1.495 . S
C1169 H1175 0.959 . S
C1169 H1176 0.961 . S
C1169 H1177 0.960 1_655 S
C1170 C1168 1.381 1_455 S
C1170 C1171 1.394 . S
C1170 H1178 0.930 . S
C1171 C1170 1.394 . S
C1171 C1172 1.383 1_455 S
C1171 H1179 0.929 . S
C1172 C1171 1.383 1_655 S
C1172 C1173 1.377 . S
C1173 H1157 0.930 . S
C1173 C1172 1.377 . S
C1173 C1174 1.379 . S
C1174 H1158 0.931 . S
C1174 C1168 1.383 . S
C1174 C1173 1.379 . S
H1175 C1169 0.959 . S
H1176 C1169 0.961 . S
H1177 C1169 0.960 1_455 S
H1178 C1170 0.930 . S
H1179 C1171 0.929 . S
H1180 C1188 0.929 . S
H1181 C1190 0.930 . S
H1182 C1192 0.929 1_565 S
H1183 C1195 0.929 1_565 S
H1184 C1198 0.930 . S
H1185 C1200 0.960 . S
H1186 C1200 0.960 . S
H1187 C1200 0.960 . S
C1188 H1180 0.929 . S
C1188 C1189 1.377 . S
C1188 C1190 1.384 . S
C1189 C1188 1.377 . S
C1189 C1195 1.390 . S
C1190 H1181 0.930 . S
C1190 C1188 1.384 . S
C1190 C1191 1.372 . S
C1191 C1190 1.372 . S
C1191 C1192 1.400 . S
C1191 C1196 1.490 . S
C1192 H1182 0.929 1_545 S
C1192 C1191 1.400 . S
C1192 C1195 1.386 . S
H1193 C1209 0.930 . S
H1194 C1210 0.931 . S
C1195 H1183 0.929 1_545 S
C1195 C1189 1.390 . S
C1195 C1192 1.386 . S
C1196 C1191 1.490 . S
C1196 C1198 1.395 . S
C1196 C1199 1.403 1_545 S
H1197 C1203 0.930 . S
C1198 H1184 0.930 . S
C1198 C1196 1.395 . S
C1198 C1201 1.403 . S
C1199 C1196 1.403 1_565 S
C1199 C1200 1.524 . S
C1199 C1203 1.400 . S
C1200 H1185 0.960 . S
C1200 H1186 0.960 . S
C1200 H1187 0.960 . S
C1200 C1199 1.524 . S
C1201 C1198 1.403 . S
C1201 C1202 1.423 . S
C1201 C1205 1.495 . S
C1202 C1201 1.423 . S
C1202 C1203 1.358 1_545 S
C1202 C1204 1.473 1_545 S
C1203 H1197 0.930 . S
C1203 C1199 1.400 . S
C1203 C1202 1.358 1_565 S
C1204 C1202 1.473 1_565 S
C1204 C1206 1.381 1_565 S
C1204 C1210 1.383 . S
C1205 C1201 1.495 . S
C1205 H1211 0.959 . S
C1205 H1212 0.961 . S
C1205 H1213 0.960 . S
C1206 C1204 1.381 1_545 S
C1206 C1207 1.394 1_545 S
C1206 H1214 0.930 . S
C1207 C1206 1.394 1_565 S
C1207 C1208 1.383 . S
C1207 H1215 0.936 . S
C1208 C1207 1.383 . S
C1208 C1209 1.377 . S
C1209 H1193 0.930 . S
C1209 C1208 1.377 . S
C1209 C1210 1.379 . S
C1210 H1194 0.931 . S
C1210 C1204 1.383 . S
C1210 C1209 1.379 . S
H1211 C1205 0.959 . S
H1212 C1205 0.961 . S
H1213 C1205 0.960 . S
H1214 C1206 0.930 . S
H1215 C1207 0.936 . S
H1216 C1224 0.929 . S
H1217 C1226 0.930 . S
H1218 C1228 0.930 . S
H1219 C1231 0.929 . S
H1220 C1234 0.930 . S
H1221 C1236 0.960 . S
H1222 C1236 0.960 . S
H1223 C1236 0.960 . S
C1224 H1216 0.929 . S
C1224 C1225 1.377 . S
C1224 C1226 1.384 . S
C1225 C1224 1.377 . S
C1225 C1231 1.390 . S
C1226 H1217 0.930 . S
C1226 C1224 1.384 . S
C1226 C1227 1.372 . S
C1227 C1226 1.372 . S
C1227 C1228 1.400 . S
C1227 C1232 1.490 . S
C1228 H1218 0.930 . S
C1228 C1227 1.400 . S
C1228 C1231 1.386 . S
H1229 C1245 0.930 . S
H1230 C1246 0.931 . S
C1231 H1219 0.929 . S
C1231 C1225 1.390 . S
C1231 C1228 1.386 . S
C1232 C1227 1.490 . S
C1232 C1234 1.395 . S
C1232 C1235 1.403 . S
H1233 C1239 0.930 . S
C1234 H1220 0.930 . S
C1234 C1232 1.395 . S
C1234 C1237 1.403 1_556 S
C1235 C1232 1.403 . S
C1235 C1236 1.524 . S
C1235 C1239 1.400 1_556 S
C1236 H1221 0.960 . S
C1236 H1222 0.960 . S
C1236 H1223 0.960 . S
C1236 C1235 1.524 . S
C1237 C1234 1.403 1_554 S
C1237 C1238 1.392 . S
C1237 C1241 1.495 . S
C1238 C1237 1.392 . S
C1238 C1239 1.385 . S
C1238 C1240 1.478 . S
C1239 H1233 0.930 . S
C1239 C1235 1.400 1_554 S
C1239 C1238 1.385 . S
C1240 C1238 1.478 . S
C1240 C1242 1.381 . S
C1240 C1246 1.383 . S
C1241 C1237 1.495 . S
C1241 H1247 0.959 . S
C1241 H1248 0.961 . S
C1241 H1249 0.960 . S
C1242 C1240 1.381 . S
C1242 C1243 1.394 . S
C1242 H1250 0.930 . S
C1243 C1242 1.394 . S
C1243 C1244 1.383 . S
C1243 H1251 0.929 . S
C1244 C1243 1.383 . S
C1244 C1245 1.377 . S
C1245 H1229 0.930 . S
C1245 C1244 1.377 . S
C1245 C1246 1.379 . S
C1246 H1230 0.931 . S
C1246 C1240 1.383 . S
C1246 C1245 1.379 . S
H1247 C1241 0.959 . S
H1248 C1241 0.961 . S
H1249 C1241 0.960 . S
H1250 C1242 0.930 . S
H1251 C1243 0.929 . S
H1252 C1260 0.929 . S
H1253 C1262 0.930 . S
H1254 C1264 0.930 . S
H1255 C1267 0.929 . S
H1256 C1270 0.930 . S
H1257 C1272 0.978 . S
H1258 C1272 0.960 . S
H1259 C1272 0.960 . S
C1260 H1252 0.929 . S
C1260 C1261 1.377 . S
C1260 C1262 1.384 . S
C1261 C1260 1.377 . S
C1261 C1267 1.390 . S
C1262 H1253 0.930 . S
C1262 C1260 1.384 . S
C1262 C1263 1.372 . S
C1263 C1262 1.372 . S
C1263 C1264 1.400 . S
C1263 C1268 1.490 . S
C1264 H1254 0.930 . S
C1264 C1263 1.400 . S
C1264 C1267 1.386 . S
H1265 C1281 0.930 . S
H1266 C1282 0.931 . S
C1267 H1255 0.929 . S
C1267 C1261 1.390 . S
C1267 C1264 1.386 . S
C1268 C1263 1.490 . S
C1268 C1270 1.395 . S
C1268 C1271 1.403 . S
H1269 C1275 0.930 . S
C1270 H1256 0.930 . S
C1270 C1268 1.395 . S
C1270 C1273 1.403 1_556 S
C1271 C1268 1.403 . S
C1271 C1272 1.524 . S
C1271 C1275 1.400 1_556 S
C1272 H1257 0.978 . S
C1272 H1258 0.960 . S
C1272 H1259 0.960 . S
C1272 C1271 1.524 . S
C1273 C1270 1.403 1_554 S
C1273 C1274 1.392 . S
C1273 C1277 1.495 . S
C1274 C1273 1.392 . S
C1274 C1275 1.385 . S
C1274 C1276 1.478 . S
C1275 H1269 0.930 . S
C1275 C1271 1.400 1_554 S
C1275 C1274 1.385 . S
C1276 C1274 1.478 . S
C1276 C1278 1.381 . S
C1276 C1282 1.383 . S
C1277 C1273 1.495 . S
C1277 H1283 0.959 . S
C1277 H1284 0.961 . S
C1277 H1285 0.960 . S
C1278 C1276 1.381 . S
C1278 C1279 1.394 . S
C1278 H1286 0.930 . S
C1279 C1278 1.394 . S
C1279 C1280 1.383 . S
C1279 H1287 0.929 . S
C1280 C1279 1.383 . S
C1280 C1281 1.377 . S
C1281 H1265 0.930 . S
C1281 C1280 1.377 . S
C1281 C1282 1.379 . S
C1282 H1266 0.931 . S
C1282 C1276 1.383 . S
C1282 C1281 1.379 . S
H1283 C1277 0.959 . S
H1284 C1277 0.961 . S
H1285 C1277 0.960 . S
H1286 C1278 0.930 . S
H1287 C1279 0.929 . S
H1288 C1296 0.929 . S
H1289 C1298 0.930 . S
H1290 C1300 0.930 . S
H1291 C1303 0.929 . S
H1292 C1306 0.930 . S
H1293 C1308 0.960 . S
H1294 C1308 0.960 . S
H1295 C1308 0.960 . S
C1296 H1288 0.929 . S
C1296 C1297 1.377 . S
C1296 C1298 1.384 . S
C1297 C1296 1.377 . S
C1297 C1303 1.390 . S
C1298 H1289 0.930 . S
C1298 C1296 1.384 . S
C1298 C1299 1.372 . S
C1299 C1298 1.372 . S
C1299 C1300 1.400 . S
C1299 C1304 1.490 . S
C1300 H1290 0.930 . S
C1300 C1299 1.400 . S
C1300 C1303 1.386 . S
H1301 C1317 0.930 . S
H1302 C1318 0.931 . S
C1303 H1291 0.929 . S
C1303 C1297 1.390 . S
C1303 C1300 1.386 . S
C1304 C1299 1.490 . S
C1304 C1306 1.395 . S
C1304 C1307 1.403 . S
H1305 C1311 0.930 . S
C1306 H1292 0.930 . S
C1306 C1304 1.395 . S
C1306 C1309 1.403 1_554 S
C1307 C1304 1.403 . S
C1307 C1308 1.524 . S
C1307 C1311 1.400 1_554 S
C1308 H1293 0.960 . S
C1308 H1294 0.960 . S
C1308 H1295 0.960 . S
C1308 C1307 1.524 . S
C1309 C1306 1.403 1_556 S
C1309 C1310 1.392 . S
C1309 C1313 1.495 . S
C1310 C1309 1.392 . S
C1310 C1311 1.385 . S
C1310 C1312 1.478 . S
C1311 H1305 0.930 . S
C1311 C1307 1.400 1_556 S
C1311 C1310 1.385 . S
C1312 C1310 1.478 . S
C1312 C1314 1.381 . S
C1312 C1318 1.383 . S
C1313 C1309 1.495 . S
C1313 H1319 0.959 . S
C1313 H1320 0.961 . S
C1313 H1321 0.960 . S
C1314 C1312 1.381 . S
C1314 C1315 1.394 . S
C1314 H1322 0.930 . S
C1315 C1314 1.394 . S
C1315 C1316 1.383 . S
C1315 H1323 0.929 . S
C1316 C1315 1.383 . S
C1316 C1317 1.377 . S
C1317 H1301 0.930 . S
C1317 C1316 1.377 . S
C1317 C1318 1.379 . S
C1318 H1302 0.931 . S
C1318 C1312 1.383 . S
C1318 C1317 1.379 . S
H1319 C1313 0.959 . S
H1320 C1313 0.961 . S
H1321 C1313 0.960 . S
H1322 C1314 0.930 . S
H1323 C1315 0.929 . S
H1324 C1332 0.929 . S
H1325 C1334 0.930 . S
H1326 C1336 0.930 . S
H1327 C1339 0.929 . S
H1328 C1342 0.930 . S
H1329 C1344 0.960 . S
H1330 C1344 0.960 . S
H1331 C1344 0.960 . S
C1332 H1324 0.929 . S
C1332 C1333 1.377 . S
C1332 C1334 1.384 . S
C1333 C1332 1.377 . S
C1333 C1339 1.390 . S
C1334 H1325 0.930 . S
C1334 C1332 1.384 . S
C1334 C1335 1.372 . S
C1335 C1334 1.372 . S
C1335 C1336 1.400 . S
C1335 C1340 1.490 . S
C1336 H1326 0.930 . S
C1336 C1335 1.400 . S
C1336 C1339 1.386 . S
H1337 C1353 0.930 . S
H1338 C1354 0.931 . S
C1339 H1327 0.929 . S
C1339 C1333 1.390 . S
C1339 C1336 1.386 . S
C1340 C1335 1.490 . S
C1340 C1342 1.395 . S
C1340 C1343 1.403 . S
H1341 C1347 0.930 . S
C1342 H1328 0.930 . S
C1342 C1340 1.395 . S
C1342 C1345 1.403 1_556 S
C1343 C1340 1.403 . S
C1343 C1344 1.524 . S
C1343 C1347 1.400 1_556 S
C1344 H1329 0.960 . S
C1344 H1330 0.960 . S
C1344 H1331 0.960 . S
C1344 C1343 1.524 . S
C1345 C1342 1.403 1_554 S
C1345 C1346 1.392 . S
C1345 C1349 1.495 . S
C1346 C1345 1.392 . S
C1346 C1347 1.385 . S
C1346 C1348 1.478 . S
C1347 H1341 0.930 . S
C1347 C1343 1.400 1_554 S
C1347 C1346 1.385 . S
C1348 C1346 1.478 . S
C1348 C1350 1.381 . S
C1348 C1354 1.383 . S
C1349 C1345 1.495 . S
C1349 H1355 0.959 . S
C1349 H1356 0.961 . S
C1349 H1357 0.960 . S
C1350 C1348 1.381 . S
C1350 C1351 1.394 . S
C1350 H1358 0.930 . S
C1351 C1350 1.394 . S
C1351 C1352 1.383 . S
C1351 H1359 0.929 . S
C1352 C1351 1.383 . S
C1352 C1353 1.377 . S
C1353 H1337 0.930 . S
C1353 C1352 1.377 . S
C1353 C1354 1.379 . S
C1354 H1338 0.931 . S
C1354 C1348 1.383 . S
C1354 C1353 1.379 . S
H1355 C1349 0.959 . S
H1356 C1349 0.961 . S
H1357 C1349 0.960 . S
H1358 C1350 0.930 . S
H1359 C1351 0.929 . S
C217 C10 1.562 . S
C236 C42 1.578 . S
C253 C5 1.566 . S
C272 C23 1.575 . S
C289 C18 1.563 . S
C308 C30 1.555 . S
C325 C29 1.563 . S
C344 C43 1.562 . S
C361 C62 1.559 . S
C380 C70 1.559 . S
C397 C75 1.563 . S
C416 C81 1.577 . S
C433 C82 1.565 . S
C452 C96 1.560 . S
C469 C101 1.564 . S
C488 C57 1.575 . S
C505 C108 1.559 . S
C524 C146 1.560 . S
C541 C107 1.565 . S
C560 C127 1.575 . S
C577 C122 1.568 . S
C596 C134 1.547 . S
C613 C147 1.561 . S
C632 C133 1.577 . S
C649 C174 1.567 . S
C668 C166 1.575 . S
C685 C187 1.563 . S
C704 C179 1.548 . S
C721 C192 1.560 . S
C740 C200 1.573 . S
C757 C205 1.564 . S
C776 C161 1.574 . S
C793 C4 1.001 . S
C812 C199 0.994 . S
C829 C17 0.998 . S
C848 C160 0.981 . S
C865 C173 0.997 . S
C884 C36 0.980 . S
C901 C49 0.998 . S
C920 C186 0.988 . S
C937 C121 0.998 . S
C956 C56 0.990 . S
C973 C140 0.997 . S
C992 C69 0.980 . S
C1009 C88 1.002 . S
C1028 C153 1.010 . S
C1045 C95 0.998 . S
C1064 C114 0.981 . S
C1081 C3 1.654 . S
C1100 C83 1.668 . S
C1117 C94 1.654 . S
C1136 C16 1.667 . S
C1153 C55 1.655 . S
C1172 C31 1.664 . S
C1189 C68 1.655 . S
C1208 C44 1.662 . S
C1225 C109 1.657 . S
C1244 C185 1.651 . S
C1261 C120 1.658 . S
C1280 C198 1.648 . S
C1297 C159 1.660 . S
C1316 C135 1.640 . S
C1333 C148 1.655 . S
C1352 C172 1.665 . S
