# Generated by pormake.
# Topology vbm, (6)-cn, num edge types: 1
# Building blocks:
#     Node 0, Type 0, BuildingBlock: KUMBUR_clean_sbu_0, # of connection points: 6
#     Node 1, Type 0, BuildingBlock: KUMBUR_clean_sbu_0, # of connection points: 6
#     Node 2, Type 0, BuildingBlock: KUMBUR_clean_sbu_0, # of connection points: 6
#     Node 3, Type 0, BuildingBlock: KUMBUR_clean_sbu_0, # of connection points: 6
#     Node 4, Type 0, BuildingBlock: KUMBUR_clean_sbu_0, # of connection points: 6
#     Node 5, Type 0, BuildingBlock: KUMBUR_clean_sbu_0, # of connection points: 6
#     Node 6, Type 0, BuildingBlock: KUMBUR_clean_sbu_0, # of connection points: 6
#     Node 7, Type 0, BuildingBlock: KUMBUR_clean_sbu_0, # of connection points: 6
#     Node 8, Type 0, BuildingBlock: KUMBUR_clean_sbu_0, # of connection points: 6
#     Node 9, Type 0, BuildingBlock: KUMBUR_clean_sbu_0, # of connection points: 6
#     Node 10, Type 0, BuildingBlock: KUMBUR_clean_sbu_0, # of connection points: 6
#     Node 11, Type 0, BuildingBlock: KUMBUR_clean_sbu_0, # of connection points: 6
#     Node 12, Type 0, BuildingBlock: KUMBUR_clean_sbu_0, # of connection points: 6
#     Node 13, Type 0, BuildingBlock: KUMBUR_clean_sbu_0, # of connection points: 6
#     Node 14, Type 0, BuildingBlock: KUMBUR_clean_sbu_0, # of connection points: 6
#     Node 15, Type 0, BuildingBlock: KUMBUR_clean_sbu_0, # of connection points: 6
#     Edge 16, Type (0, 0), BuildingBlock: EZIPEK_clean_linker_0, # of connection points: 2
#     Edge 17, Type (0, 0), BuildingBlock: EZIPEK_clean_linker_0, # of connection points: 2
#     Edge 18, Type (0, 0), BuildingBlock: EZIPEK_clean_linker_0, # of connection points: 2
#     Edge 19, Type (0, 0), BuildingBlock: EZIPEK_clean_linker_0, # of connection points: 2
#     Edge 20, Type (0, 0), BuildingBlock: EZIPEK_clean_linker_0, # of connection points: 2
#     Edge 21, Type (0, 0), BuildingBlock: EZIPEK_clean_linker_0, # of connection points: 2
#     Edge 22, Type (0, 0), BuildingBlock: EZIPEK_clean_linker_0, # of connection points: 2
#     Edge 23, Type (0, 0), BuildingBlock: EZIPEK_clean_linker_0, # of connection points: 2
#     Edge 24, Type (0, 0), BuildingBlock: EZIPEK_clean_linker_0, # of connection points: 2
#     Edge 25, Type (0, 0), BuildingBlock: EZIPEK_clean_linker_0, # of connection points: 2
#     Edge 26, Type (0, 0), BuildingBlock: EZIPEK_clean_linker_0, # of connection points: 2
#     Edge 27, Type (0, 0), BuildingBlock: EZIPEK_clean_linker_0, # of connection points: 2
#     Edge 28, Type (0, 0), BuildingBlock: EZIPEK_clean_linker_0, # of connection points: 2
#     Edge 29, Type (0, 0), BuildingBlock: EZIPEK_clean_linker_0, # of connection points: 2
#     Edge 30, Type (0, 0), BuildingBlock: EZIPEK_clean_linker_0, # of connection points: 2
#     Edge 31, Type (0, 0), BuildingBlock: EZIPEK_clean_linker_0, # of connection points: 2
#     Edge 32, Type (0, 0), BuildingBlock: EZIPEK_clean_linker_0, # of connection points: 2
#     Edge 33, Type (0, 0), BuildingBlock: EZIPEK_clean_linker_0, # of connection points: 2
#     Edge 34, Type (0, 0), BuildingBlock: EZIPEK_clean_linker_0, # of connection points: 2
#     Edge 35, Type (0, 0), BuildingBlock: EZIPEK_clean_linker_0, # of connection points: 2
#     Edge 36, Type (0, 0), BuildingBlock: EZIPEK_clean_linker_0, # of connection points: 2
#     Edge 37, Type (0, 0), BuildingBlock: EZIPEK_clean_linker_0, # of connection points: 2
#     Edge 38, Type (0, 0), BuildingBlock: EZIPEK_clean_linker_0, # of connection points: 2
#     Edge 39, Type (0, 0), BuildingBlock: EZIPEK_clean_linker_0, # of connection points: 2
#     Edge 40, Type (0, 0), BuildingBlock: EZIPEK_clean_linker_0, # of connection points: 2
#     Edge 41, Type (0, 0), BuildingBlock: EZIPEK_clean_linker_0, # of connection points: 2
#     Edge 42, Type (0, 0), BuildingBlock: EZIPEK_clean_linker_0, # of connection points: 2
#     Edge 43, Type (0, 0), BuildingBlock: EZIPEK_clean_linker_0, # of connection points: 2
#     Edge 44, Type (0, 0), BuildingBlock: EZIPEK_clean_linker_0, # of connection points: 2
#     Edge 45, Type (0, 0), BuildingBlock: EZIPEK_clean_linker_0, # of connection points: 2
#     Edge 46, Type (0, 0), BuildingBlock: EZIPEK_clean_linker_0, # of connection points: 2
#     Edge 47, Type (0, 0), BuildingBlock: EZIPEK_clean_linker_0, # of connection points: 2
#     Edge 48, Type (0, 0), BuildingBlock: EZIPEK_clean_linker_0, # of connection points: 2
#     Edge 49, Type (0, 0), BuildingBlock: EZIPEK_clean_linker_0, # of connection points: 2
#     Edge 50, Type (0, 0), BuildingBlock: EZIPEK_clean_linker_0, # of connection points: 2
#     Edge 51, Type (0, 0), BuildingBlock: EZIPEK_clean_linker_0, # of connection points: 2
#     Edge 52, Type (0, 0), BuildingBlock: EZIPEK_clean_linker_0, # of connection points: 2
#     Edge 53, Type (0, 0), BuildingBlock: EZIPEK_clean_linker_0, # of connection points: 2
#     Edge 54, Type (0, 0), BuildingBlock: EZIPEK_clean_linker_0, # of connection points: 2
#     Edge 55, Type (0, 0), BuildingBlock: EZIPEK_clean_linker_0, # of connection points: 2
#     Edge 56, Type (0, 0), BuildingBlock: EZIPEK_clean_linker_0, # of connection points: 2
#     Edge 57, Type (0, 0), BuildingBlock: EZIPEK_clean_linker_0, # of connection points: 2
#     Edge 58, Type (0, 0), BuildingBlock: EZIPEK_clean_linker_0, # of connection points: 2
#     Edge 59, Type (0, 0), BuildingBlock: EZIPEK_clean_linker_0, # of connection points: 2
#     Edge 60, Type (0, 0), BuildingBlock: EZIPEK_clean_linker_0, # of connection points: 2
#     Edge 61, Type (0, 0), BuildingBlock: EZIPEK_clean_linker_0, # of connection points: 2
#     Edge 62, Type (0, 0), BuildingBlock: EZIPEK_clean_linker_0, # of connection points: 2
#     Edge 63, Type (0, 0), BuildingBlock: EZIPEK_clean_linker_0, # of connection points: 2
# Relax obj value: 0.075
# Max RMSD: 0.147
# Mean RMSD: 0.147
data_MOF--net-vbm--node1-KUMBUR_clean_sbu_0--edge1-EZIPEK_clean_linker_0
_symmetry_space_group_name_H-M    P1
_symmetry_Int_Tables_number       1
_symmetry_cell_setting            triclinic
loop_
_symmetry_equiv_pos_as_xyz
'x, y, z'
_cell_length_a     36.550856
_cell_length_b     20.360461
_cell_length_c     43.085248
_cell_angle_alpha  89.840527
_cell_angle_beta   90.02066
_cell_angle_gamma 90.072316
loop_
_atom_site_label
_atom_site_type_symbol
_atom_site_fract_x
_atom_site_fract_y
_atom_site_fract_z
_atom_type_partial_charge
Tb0 Tb 0.16268 0.05563 0.11845 0.0
C1 C 0.04891 0.22514 0.17594 0.0
C2 C 0.99459 0.20245 0.14534 0.0
C3 C 0.98844 0.24517 0.19756 0.0
C4 C 0.03302 0.2049 0.14828 0.0
C5 C 0.02668 0.24748 0.20054 0.0
C6 C 0.97252 0.22149 0.1703 0.0
C7 C 0.08159 0.28031 0.22777 0.0
N8 N 0.08603 0.22809 0.17789 0.0
C9 C 0.10252 0.25758 0.2029 0.0
C10 C 0.04356 0.27526 0.22659 0.0
Tb11 Tb 0.11638 0.20164 0.13345 0.0
N12 N 0.05507 0.18999 0.12394 0.0
C13 C 0.04003 0.1764 0.09552 0.0
C14 C 0.97936 0.18351 0.11699 0.0
C15 C 1.00219 0.17124 0.09185 0.0
H16 H 0.13194 0.26273 0.20378 0.0
H17 H 0.99067 0.15844 0.06952 0.0
H18 H 0.94307 0.22195 0.16793 0.0
H19 H 0.09476 0.30269 0.24761 0.0
H20 H 0.0566 0.16852 0.07543 0.0
H21 H 0.25444 0.11381 0.2152 0.0
H22 H 0.95002 0.18027 0.114 0.0
H23 H 0.1825 0.03241 0.04165 0.0
H24 H 0.1961 0.11018 0.18929 0.0
H25 H 0.23662 0.03794 0.00932 0.0
H26 H 0.97082 0.26355 0.21575 0.0
H27 H 0.31089 0.08747 0.18658 0.0
H28 H 0.34004 0.05865 0.13721 0.0
H29 H 0.0275 0.29509 0.24547 0.0
H30 H 0.33571 0.03792 0.08065 0.0
N31 N 0.21648 0.07586 0.14559 0.0
C32 C 0.21928 0.09555 0.17602 0.0
C33 C 0.28467 0.0845 0.1749 0.0
C34 C 0.28228 0.06893 0.14347 0.0
C35 C 0.25299 0.09904 0.1911 0.0
C36 C 0.24758 0.06576 0.12913 0.0
H37 H 0.298 0.03844 0.03282 0.0
N38 N 0.21126 0.05346 0.08416 0.0
C39 C 0.23948 0.04033 0.03407 0.0
C40 C 0.24493 0.05533 0.09749 0.0
C41 C 0.20851 0.04133 0.05283 0.0
C42 C 0.27397 0.0418 0.04745 0.0
C43 C 0.27701 0.04759 0.07957 0.0
O44 O 0.15225 0.97493 0.0897 0.0
O45 O 0.10831 0.1028 0.11517 0.0
O46 O 0.12263 0.14302 0.17935 0.0
O47 O 0.14666 0.0419 0.16572 0.0
O48 O 0.11109 1.00986 0.13288 0.0
O49 O 0.18089 0.96237 0.13349 0.0
O50 O 0.13797 0.29341 0.14705 0.0
O51 O 0.1707 0.15534 0.13525 0.0
O52 O 0.15148 0.10255 0.07365 0.0
O53 O 0.11716 0.19622 0.08243 0.0
O54 O 0.16624 0.24277 0.11338 0.0
O55 O 0.09311 0.28731 0.11434 0.0
C56 C 0.08856 0.05572 0.12613 0.0
C57 C 0.17937 0.87038 0.09882 0.0
C58 C 0.17258 0.75142 0.09838 0.0
C59 C 0.16309 0.8129 0.11052 0.0
C60 C 0.19838 0.74777 0.07439 0.0
C61 C 0.20581 0.86614 0.0754 0.0
C62 C 0.21522 0.80488 0.06323 0.0
C63 C 0.1322 0.08038 0.18661 0.0
C64 C 0.16554 0.93353 0.10985 0.0
C65 C 0.3112 0.04663 0.0941 0.0
C66 C 0.31373 0.05757 0.126 0.0
C67 C 0.18956 0.19939 0.12108 0.0
C68 C 0.10141 0.38949 0.14067 0.0
C69 C 0.11704 0.44814 0.1296 0.0
C70 C 0.1064 0.50911 0.14175 0.0
C71 C 0.07915 0.51148 0.16459 0.0
C72 C 0.07303 0.39321 0.16244 0.0
C73 C 0.06219 0.45371 0.17453 0.0
C74 C 0.13489 0.15595 0.06375 0.0
C75 C 0.11559 0.32611 0.12914 0.0
H76 H 0.14252 0.81597 0.1286 0.0
H77 H 0.20586 0.70064 0.06466 0.0
H78 H 0.21872 0.90984 0.06625 0.0
H79 H 0.2355 0.80165 0.045 0.0
H80 H 0.13732 0.44701 0.11148 0.0
H81 H 0.07056 0.5581 0.17418 0.0
H82 H 0.05891 0.35002 0.16996 0.0
H83 H 0.0405 0.45577 0.1916 0.0
Tb84 Tb 0.85768 1.00634 0.11519 0.0
C85 C 0.98194 0.854 0.15361 0.0
C86 C 0.01702 0.82582 0.10823 0.0
C87 C 0.0484 0.86164 0.15488 0.0
C88 C 0.98307 0.83561 0.12312 0.0
C89 C 0.01467 0.86421 0.17041 0.0
C90 C 0.04959 0.84219 0.12374 0.0
C91 C 0.97888 0.86562 0.21722 0.0
N92 N 0.94885 0.85447 0.16763 0.0
C93 C 0.94757 0.85326 0.19952 0.0
C94 C 0.01255 0.87317 0.20248 0.0
Tb95 Tb 0.89781 0.85131 0.13529 0.0
N96 N 0.95095 0.81994 0.10929 0.0
C97 C 0.95183 0.78202 0.0829 0.0
C98 C 0.01723 0.79684 0.0789 0.0
C99 C 0.98457 0.77263 0.06668 0.0
H100 H 0.92227 0.84487 0.21174 0.0
H101 H 0.98458 0.74645 0.04485 0.0
H102 H 0.07584 0.83695 0.11235 0.0
H103 H 0.977 0.86884 0.24222 0.0
H104 H 0.92691 0.7616 0.07336 0.0
H105 H 0.73306 0.96316 0.18085 0.0
H106 H 0.04257 0.78959 0.06639 0.0
H107 H 0.87067 0.06479 0.04308 0.0
H108 H 0.79875 0.96809 0.1736 0.0
H109 H 0.8326 0.10376 -0.00018 0.0
H110 H 0.07375 0.87109 0.16714 0.0
H111 H 0.69158 0.98858 0.13765 0.0
H112 H 0.68324 0.02498 0.08234 0.0
H113 H 0.03691 0.88183 0.21623 0.0
H114 H 0.71001 0.0631 0.03353 0.0
N115 N 0.79632 0.99392 0.1253 0.0
C116 C 0.78185 0.97917 0.15388 0.0
C117 C 0.72074 0.98967 0.13371 0.0
C118 C 0.73529 1.00679 0.1048 0.0
C119 C 0.74411 0.97589 0.1583 0.0
C120 C 0.7737 1.00806 0.10111 0.0
H121 H 0.76531 0.09496 0.0031 0.0
N122 N 0.82597 0.03228 0.07067 0.0
C123 C 0.81992 0.08269 0.02026 0.0
C124 C 0.78892 0.02862 0.07315 0.0
C125 C 0.84144 0.06099 0.04496 0.0
C126 C 0.78201 0.07743 0.02217 0.0
C127 C 0.76604 0.05027 0.04875 0.0
O128 O 0.88968 0.08952 0.12402 0.0
O129 O 0.9074 0.95363 0.12904 0.0
O130 O 0.89053 0.91451 0.17766 0.0
O131 O 0.85664 1.00725 0.16487 0.0
O132 O 0.91344 0.02611 0.09758 0.0
O133 O 0.83218 0.09927 0.12311 0.0
O134 O 0.87734 0.79454 0.17242 0.0
O135 O 0.84573 0.90556 0.13227 0.0
O136 O 0.86203 0.95422 0.07126 0.0
O137 O 0.9005 0.86697 0.08373 0.0
O138 O 0.84925 0.81685 0.11073 0.0
O139 O 0.89537 0.74852 0.13041 0.0
C140 C 0.93176 0.98248 0.11283 0.0
C141 C 0.86875 0.19387 0.11091 0.0
C142 C 0.87926 0.31222 0.11425 0.0
C143 C 0.86856 0.25246 0.12824 0.0
C144 C 0.88874 0.31345 0.08274 0.0
C145 C 0.88059 0.19609 0.07996 0.0
C146 C 0.88954 0.25548 0.06574 0.0
C147 C 0.87421 0.97109 0.18508 0.0
C148 C 0.86295 0.13006 0.12663 0.0
C149 C 0.72794 0.04704 0.05209 0.0
C150 C 0.71264 0.0252 0.07997 0.0
C151 C 0.82635 0.8618 0.11811 0.0
C152 C 0.89375 0.68056 0.17532 0.0
C153 C 0.89138 0.61868 0.16088 0.0
C154 C 0.89681 0.56071 0.17798 0.0
C155 C 0.90611 0.56478 0.20949 0.0
C156 C 0.90297 0.6837 0.20694 0.0
C157 C 0.90957 0.62608 0.22374 0.0
C158 C 0.88324 0.90496 0.06319 0.0
C159 C 0.8818 0.73935 0.15788 0.0
H160 H 0.86184 0.2512 0.15274 0.0
H161 H 0.89696 0.35899 0.07169 0.0
H162 H 0.88507 0.15182 0.06727 0.0
H163 H 0.89851 0.25618 0.04181 0.0
H164 H 0.88442 0.61518 0.13649 0.0
H165 H 0.9105 0.52055 0.22301 0.0
H166 H 0.90439 0.73032 0.21886 0.0
H167 H 0.91673 0.62894 0.24807 0.0
Tb168 Tb 0.15032 0.97377 0.37898 0.0
C169 C 0.03842 0.79739 0.31441 0.0
C170 C 0.98386 0.81011 0.34578 0.0
C171 C 0.97854 0.77258 0.29254 0.0
C172 C 0.02223 0.8135 0.34233 0.0
C173 C 0.01668 0.77667 0.28915 0.0
C174 C 0.96218 0.78932 0.32076 0.0
C175 C 0.07185 0.7622 0.25936 0.0
N176 N 0.07546 0.80108 0.31219 0.0
C177 C 0.09228 0.78179 0.28514 0.0
C178 C 0.03388 0.75945 0.26139 0.0
Tb179 Tb 0.10591 0.82454 0.35816 0.0
N180 N 0.04408 0.83261 0.36613 0.0
C181 C 0.02903 0.84919 0.39403 0.0
C182 C 0.96844 0.82726 0.37432 0.0
C183 C 0.99117 0.84724 0.39851 0.0
H184 H 0.12167 0.77884 0.2839 0.0
H185 H 0.97956 0.86197 0.42053 0.0
H186 H 0.93279 0.78551 0.32302 0.0
H187 H 0.08552 0.7474 0.23823 0.0
H188 H 0.04584 0.86855 0.41227 0.0
H189 H 0.22847 0.04826 0.27526 0.0
H190 H 0.93909 0.82568 0.37785 0.0
H191 H 0.19012 0.98163 0.44929 0.0
H192 H 0.17779 0.05858 0.31202 0.0
H193 H 0.2485 0.94504 0.47211 0.0
H194 H 0.96145 0.75629 0.27348 0.0
H195 H 0.28212 0.97995 0.28848 0.0
H196 H 0.31504 0.91219 0.32901 0.0
H197 H 0.01813 0.74293 0.24157 0.0
H198 H 0.32093 0.8817 0.38427 0.0
N199 N 0.19938 0.98801 0.34452 0.0
C200 C 0.20009 0.02596 0.31794 0.0
C201 C 0.25965 0.98363 0.30467 0.0
C202 C 0.26147 0.95461 0.33403 0.0
C203 C 0.22931 1.02176 0.29707 0.0
C204 C 0.23101 0.95968 0.35381 0.0
H205 H 0.29753 0.90119 0.43885 0.0
N206 N 0.20544 0.95588 0.40307 0.0
C207 C 0.24466 0.94348 0.44739 0.0
C208 C 0.23405 0.94247 0.38443 0.0
C209 C 0.21142 0.96351 0.4342 0.0
C210 C 0.27215 0.91794 0.42855 0.0
C211 C 0.26753 0.91968 0.39642 0.0
O212 O 0.13796 0.03268 0.4179 0.0
O213 O 0.09706 0.92272 0.37741 0.0
O214 O 0.10638 0.88631 0.3155 0.0
O215 O 0.13635 0.98215 0.33004 0.0
O216 O 0.09852 1.01961 0.36574 0.0
O217 O 0.16395 0.07474 0.37686 0.0
O218 O 0.13596 0.73643 0.35968 0.0
O219 O 0.15898 0.86752 0.37183 0.0
O220 O 0.14119 0.92087 0.42294 0.0
O221 O 0.10822 0.82662 0.41006 0.0
O222 O 0.15711 0.81138 0.33268 0.0
O223 O 0.08047 0.73502 0.37283 0.0
C224 C 0.07659 0.97059 0.36814 0.0
C225 C 0.15056 0.15025 0.41912 0.0
C226 C 0.14306 0.26935 0.41661 0.0
C227 C 0.14472 0.20798 0.40165 0.0
C228 C 0.14845 0.2728 0.44878 0.0
C229 C 0.15539 0.15474 0.45134 0.0
C230 C 0.15477 0.2158 0.46597 0.0
C231 C 0.12038 0.94503 0.30916 0.0
C232 C 0.15047 0.08513 0.40429 0.0
C233 C 0.29576 0.90351 0.37588 0.0
C234 C 0.2927 0.92147 0.34455 0.0
C235 C 0.17967 0.84013 0.35128 0.0
C236 C 0.10675 0.63534 0.35296 0.0
C237 C 0.11077 0.57617 0.36968 0.0
C238 C 0.11418 0.51592 0.35374 0.0
C239 C 0.11152 0.51461 0.32132 0.0
C240 C 0.10594 0.63235 0.32049 0.0
C241 C 0.10756 0.57278 0.30479 0.0
C242 C 0.12396 0.86598 0.43085 0.0
C243 C 0.10958 0.69967 0.369 0.0
H244 H 0.14048 0.20512 0.37677 0.0
H245 H 0.14755 0.31971 0.46055 0.0
H246 H 0.15995 0.111 0.4652 0.0
H247 H 0.15912 0.21896 0.49074 0.0
H248 H 0.11271 0.5771 0.39477 0.0
H249 H 0.11379 0.46867 0.30884 0.0
H250 H 0.1057 0.6759 0.30707 0.0
H251 H 0.10693 0.57198 0.27967 0.0
Tb252 Tb 0.84647 0.05684 0.37164 0.0
C253 C 0.98296 0.19186 0.34933 0.0
C254 C 0.01312 0.19295 0.39917 0.0
C255 C 0.04887 0.17695 0.35252 0.0
C256 C 0.98114 0.19753 0.38096 0.0
C257 C 0.01721 0.18642 0.33453 0.0
C258 C 0.04653 0.17786 0.38492 0.0
C259 C 0.98662 0.20453 0.28577 0.0
N260 N 0.95171 0.20054 0.33297 0.0
C261 C 0.95351 0.20946 0.30143 0.0
C262 C 0.01869 0.19447 0.30237 0.0
Tb263 Tb 0.89799 0.20493 0.36093 0.0
N264 N 0.9488 0.21604 0.39333 0.0
C265 C 0.94919 0.24568 0.42207 0.0
C266 C 0.01098 0.20873 0.43065 0.0
C267 C 0.97934 0.23858 0.44177 0.0
H268 H 0.9296 0.22178 0.28793 0.0
H269 H 0.97824 0.25669 0.46535 0.0
H270 H 0.07109 0.17189 0.39861 0.0
H271 H 0.98736 0.20985 0.26094 0.0
H272 H 0.92521 0.27069 0.43081 0.0
H273 H 0.72738 0.14569 0.30886 0.0
H274 H 0.03446 0.20351 0.4458 0.0
H275 H 0.84469 0.95585 0.43252 0.0
H276 H 0.7889 0.09975 0.31272 0.0
H277 H 0.8032 0.9342 0.47691 0.0
H278 H 0.07543 0.17145 0.34178 0.0
H279 H 0.69092 0.16393 0.3567 0.0
H280 H 0.68473 0.15012 0.41456 0.0
H281 H 0.04441 0.19732 0.29022 0.0
H282 H 0.70455 0.08868 0.46115 0.0
N283 N 0.78687 0.0865 0.36207 0.0
C284 C 0.7729 0.10341 0.33362 0.0
C285 C 0.71699 0.13955 0.35801 0.0
C286 C 0.73032 0.11753 0.3865 0.0
C287 C 0.73766 0.12973 0.33118 0.0
C288 C 0.76519 0.08889 0.38744 0.0
H289 H 0.74476 0.99753 0.48138 0.0
N290 N 0.81063 0.03012 0.41323 0.0
C291 C 0.79618 0.97126 0.45988 0.0
C292 C 0.77727 0.05865 0.41392 0.0
C293 C 0.81956 0.98333 0.43476 0.0
C294 C 0.7637 1.00737 0.46268 0.0
C295 C 0.75425 0.05255 0.43972 0.0
O296 O 0.86842 0.96114 0.37252 0.0
O297 O 0.90076 0.09995 0.36201 0.0
O298 O 0.89176 0.1502 0.31582 0.0
O299 O 0.84865 0.06753 0.32257 0.0
O300 O 0.8995 1.02235 0.39082 0.0
O301 O 0.82015 0.98152 0.34626 0.0
O302 O 0.88668 0.27532 0.32582 0.0
O303 O 0.84286 0.16223 0.358 0.0
O304 O 0.84767 0.09999 0.41767 0.0
O305 O 0.89322 0.17827 0.41085 0.0
O306 O 0.84992 0.24712 0.38253 0.0
O307 O 0.90046 0.30508 0.37205 0.0
C308 C 0.92183 0.06269 0.37779 0.0
C309 C 0.83007 0.87065 0.36279 0.0
C310 C 0.83914 0.75152 0.3612 0.0
C311 C 0.85132 0.81564 0.35449 0.0
C312 C 0.80569 0.74311 0.37673 0.0
C313 C 0.79682 0.86124 0.37838 0.0
C314 C 0.78479 0.79766 0.38534 0.0
C315 C 0.87168 0.09998 0.30532 0.0
C316 C 0.84347 0.93678 0.35467 0.0
C317 C 0.72177 0.08915 0.4407 0.0
C318 C 0.71026 0.12322 0.41411 0.0
C319 C 0.82531 0.20829 0.37228 0.0
C320 C 0.90989 0.38475 0.33319 0.0
C321 C 0.89385 0.44596 0.33973 0.0
C322 C 0.91106 0.505 0.33076 0.0
C323 C 0.94445 0.50206 0.31482 0.0
C324 C 0.94364 0.38293 0.31779 0.0
C325 C 0.96062 0.44134 0.30845 0.0
C326 C 0.87075 0.1436 0.42862 0.0
C327 C 0.89141 0.32476 0.34448 0.0
H328 H 0.87706 0.82274 0.34252 0.0
H329 H 0.79583 0.69423 0.38225 0.0
H330 H 0.78017 0.90284 0.38507 0.0
H331 H 0.75908 0.7906 0.39736 0.0
H332 H 0.86814 0.44714 0.35205 0.0
H333 H 0.95809 0.54681 0.30758 0.0
H334 H 0.95709 0.33688 0.31327 0.0
H335 H 0.98661 0.43955 0.29645 0.0
Tb336 Tb 0.90137 0.84163 0.85674 0.0
C337 C 0.77374 0.95286 0.89857 0.0
C338 C 0.73575 0.93376 0.85347 0.0
C339 C 0.71182 0.91103 0.90481 0.0
C340 C 0.76931 0.95362 0.8666 0.0
C341 C 0.74436 0.93377 0.91799 0.0
C342 C 0.70783 0.9104 0.87264 0.0
C343 C 0.78034 0.9642 0.96224 0.0
N344 N 0.80619 0.97252 0.9107 0.0
C345 C 0.80806 0.9848 0.94222 0.0
C346 C 0.74847 0.9376 0.9501 0.0
Tb347 Tb 0.85225 0.99141 0.87417 0.0
N348 N 0.79783 0.9722 0.84831 0.0
C349 C 0.79193 0.98124 0.81701 0.0
C350 C 0.73146 0.9361 0.82135 0.0
C351 C 0.75921 0.96198 0.80314 0.0
H352 H 0.83162 1.00868 0.9524 0.0
H353 H 0.75554 0.96676 0.7783 0.0
H354 H 0.68289 0.89246 0.86275 0.0
H355 H 0.78362 0.9686 0.98705 0.0
H356 H 0.81149 1.0036 0.80172 0.0
H357 H 0.99878 0.77157 0.94742 0.0
H358 H 0.7069 0.91845 0.81037 0.0
H359 H 0.92142 0.82571 0.78003 0.0
H360 H 0.93935 0.7687 0.92118 0.0
H361 H 0.97128 0.86332 0.74626 0.0
H362 H 0.68935 0.8945 0.91928 0.0
H363 H 0.05249 0.82031 0.92115 0.0
H364 H 0.0801 0.86211 0.87146 0.0
H365 H 0.72682 0.92207 0.96566 0.0
H366 H 0.07235 0.88467 0.81571 0.0
N367 N 0.95713 0.82498 0.88176 0.0
C368 C 0.96185 0.7933 0.90972 0.0
C369 C 0.02612 0.8205 0.90968 0.0
C370 C 0.02247 0.84278 0.87918 0.0
C371 C 0.99587 0.79332 0.92461 0.0
C372 C 0.98728 0.84347 0.86564 0.0
H373 H 0.03186 0.88954 0.76884 0.0
N374 N 0.9497 0.84826 0.82202 0.0
C375 C 0.97547 0.86028 0.77102 0.0
C376 C 0.98328 0.85624 0.83456 0.0
C377 C 0.94686 0.84087 0.79043 0.0
C378 C 0.00929 0.87608 0.78388 0.0
C379 C 0.01409 0.86979 0.81591 0.0
O380 O 0.87802 0.77755 0.82395 0.0
O381 O 0.84667 0.88889 0.8573 0.0
O382 O 0.86778 0.94909 0.91774 0.0
O383 O 0.89941 0.85277 0.90813 0.0
O384 O 0.8539 0.8015 0.88045 0.0
O385 O 0.90914 0.73916 0.86236 0.0
O386 O 0.84926 0.08482 0.85216 0.0
O387 O 0.90551 0.9436 0.86787 0.0
O388 O 0.89502 0.9055 0.81437 0.0
O389 O 0.86492 1.00223 0.82656 0.0
O390 O 0.908 0.03492 0.8835 0.0
O391 O 0.83544 0.07327 0.89984 0.0
C392 C 0.82936 0.84222 0.87129 0.0
C393 C 0.89686 0.66471 0.82035 0.0
C394 C 0.89509 0.54435 0.81709 0.0
C395 C 0.8927 0.60254 0.83468 0.0
C396 C 0.90219 0.54888 0.78516 0.0
C397 C 0.90398 0.66771 0.78837 0.0
C398 C 0.90681 0.6101 0.77099 0.0
C399 C 0.88469 0.89632 0.92731 0.0
C400 C 0.889 0.72492 0.83842 0.0
C401 C 0.04869 0.87425 0.82968 0.0
C402 C 0.05297 0.86103 0.86135 0.0
C403 C 0.92901 0.98754 0.87499 0.0
C404 C 0.86278 0.17469 0.88618 0.0
C405 C 0.86259 0.23179 0.86731 0.0
C406 C 0.88094 0.28942 0.87716 0.0
C407 C 0.89926 0.28931 0.90574 0.0
C408 C 0.88167 0.17642 0.91467 0.0
C409 C 0.89935 0.23343 0.92439 0.0
C410 C 0.88184 0.96457 0.80686 0.0
C411 C 0.84127 0.11519 0.8777 0.0
H412 H 0.88672 0.59941 0.85928 0.0
H413 H 0.90414 0.50484 0.7712 0.0
H414 H 0.90653 0.7144 0.77658 0.0
H415 H 0.9121 0.61295 0.74631 0.0
H416 H 0.84808 0.23166 0.84537 0.0
H417 H 0.91347 0.33288 0.91366 0.0
H418 H 0.88249 0.13387 0.92978 0.0
H419 H 0.91346 0.23413 0.94649 0.0
Tb420 Tb 0.11597 0.20046 0.86029 0.0
C421 C 0.2324 0.02577 0.91711 0.0
C422 C 0.28663 0.05377 0.88748 0.0
C423 C 0.2927 0.99838 0.93721 0.0
C424 C 0.24827 0.05278 0.89086 0.0
C425 C 0.25444 0.99561 0.93991 0.0
C426 C 0.30876 0.028 0.91118 0.0
C427 C 0.19924 0.9558 0.96457 0.0
N428 N 0.19531 1.02215 0.91847 0.0
C429 C 0.17852 0.98658 0.9415 0.0
C430 C 0.23737 0.95956 0.96351 0.0
Tb431 Tb 0.165 0.05418 0.87465 0.0
N432 N 0.22604 0.07289 0.86752 0.0
C433 C 0.24057 0.09397 0.83994 0.0
C434 C 0.30147 0.07738 0.85968 0.0
C435 C 0.27835 0.09779 0.83587 0.0
H436 H 0.14915 0.9808 0.9416 0.0
H437 H 0.28961 0.11521 0.81411 0.0
H438 H 0.33826 0.02841 0.90906 0.0
H439 H 0.18586 0.92776 0.98269 0.0
H440 H 0.22332 0.10873 0.82089 0.0
H441 H 0.0129 0.21623 0.95232 0.0
H442 H 0.33058 0.07785 0.85576 0.0
H443 H 0.10067 0.24109 0.78511 0.0
H444 H 0.07205 0.24286 0.92919 0.0
H445 H 0.05148 0.22386 0.74766 0.0
H446 H 0.31009 0.97587 0.95461 0.0
H447 H 0.96368 0.16924 0.91994 0.0
H448 H 0.93911 0.15446 0.86596 0.0
H449 H 0.25339 0.93411 0.98096 0.0
H450 H 0.9495 0.16809 0.80985 0.0
N451 N 0.05937 0.20014 0.88475 0.0
C452 C 0.05183 0.2191 0.91474 0.0
C453 C 0.98991 0.18031 0.90967 0.0
C454 C 0.9955 0.17481 0.87777 0.0
C455 C 0.01773 0.20596 0.92803 0.0
C456 C 0.03092 0.18585 0.86581 0.0
H457 H 0.99053 0.18757 0.76537 0.0
N458 N 0.07042 0.20292 0.82355 0.0
C459 C 0.0467 0.21388 0.7718 0.0
C460 C 0.03655 0.18851 0.83414 0.0
C461 C 0.07487 0.22191 0.79316 0.0
C462 C 0.01255 0.19305 0.78194 0.0
C463 C 1.00685 0.18272 0.81362 0.0
O464 O 0.13259 0.28052 0.83219 0.0
O465 O 0.17116 0.15681 0.85826 0.0
O466 O 0.16571 0.1062 0.91925 0.0
O467 O 0.1193 0.18182 0.91053 0.0
O468 O 0.16512 0.24239 0.88152 0.0
O469 O 0.10266 0.29549 0.87485 0.0
O470 O 0.14028 0.96077 0.87292 0.0
O471 O 0.11035 0.09508 0.86433 0.0
O472 O 0.12202 0.14402 0.8156 0.0
O473 O 0.16441 0.06199 0.82473 0.0
O474 O 0.11313 1.0231 0.89576 0.0
O475 O 0.19259 0.97572 0.85236 0.0
C476 C 0.18957 0.20234 0.87209 0.0
C477 C 0.1013 0.38319 0.83898 0.0
C478 C 0.1011 0.50281 0.83684 0.0
C479 C 0.1149 0.44391 0.84904 0.0
C480 C 0.07193 0.50083 0.81575 0.0
C481 C 0.07124 0.38191 0.81877 0.0
C482 C 0.05678 0.44055 0.8071 0.0
C483 C 0.14166 0.14966 0.92922 0.0
C484 C 0.11863 0.32336 0.8513 0.0
C485 C 0.97219 0.16924 0.82539 0.0
C486 C 0.9665 0.163 0.85735 0.0
C487 C 0.08959 0.0594 0.88169 0.0
C488 C 0.17764 0.86801 0.87043 0.0
C489 C 0.15949 0.81164 0.85943 0.0
C490 C 0.16616 0.75008 0.87325 0.0
C491 C 0.18986 0.74569 0.89874 0.0
C492 C 0.20272 0.86176 0.89475 0.0
C493 C 0.20754 0.80171 0.90965 0.0
C494 C 0.14198 0.09307 0.80613 0.0
C495 C 0.16716 0.93316 0.85859 0.0
H496 H 0.13583 0.44517 0.86676 0.0
H497 H 0.06077 0.54587 0.80626 0.0
H498 H 0.05839 0.33643 0.8124 0.0
H499 H 0.03378 0.43924 0.79129 0.0
H500 H 0.13987 0.81565 0.84064 0.0
H501 H 0.1945 0.69899 0.91021 0.0
H502 H 0.21801 0.90332 0.90272 0.0
H503 H 0.22453 0.79925 0.93008 0.0
Tb504 Tb 0.9035 0.20403 0.63014 0.0
C505 C 0.77261 0.04874 0.60556 0.0
C506 C 0.73883 0.06595 0.65328 0.0
C507 C 0.70685 0.03014 0.60707 0.0
C508 C 0.77222 0.06457 0.63685 0.0
C509 C 0.73974 0.03114 0.59044 0.0
C510 C 0.70647 0.04755 0.63842 0.0
C511 C 0.77487 1.00568 0.54496 0.0
N512 N 0.80521 0.04654 0.59043 0.0
C513 C 0.80661 1.02327 0.5606 0.0
C514 C 0.74113 1.01065 0.55959 0.0
Tb515 Tb 0.85572 0.05669 0.62152 0.0
N516 N 0.80442 0.07741 0.65132 0.0
C517 C 0.80417 0.09714 0.68183 0.0
C518 C 0.73882 0.08457 0.68443 0.0
C519 C 0.77162 0.10126 0.6986 0.0
H520 H 0.83243 1.01366 0.54923 0.0
H521 H 0.77194 0.11716 0.72255 0.0
H522 H 0.68118 0.04583 0.65137 0.0
H523 H 0.77714 0.98301 0.52269 0.0
H524 H 0.82842 0.11235 0.69371 0.0
H525 H 0.0248 0.14898 0.56261 0.0
H526 H 0.71362 0.08674 0.69764 0.0
H527 H 0.8927 0.27856 0.69791 0.0
H528 H 0.95957 0.16613 0.57013 0.0
H529 H 0.93291 0.32637 0.73802 0.0
H530 H 0.68172 1.01481 0.59592 0.0
H531 H 0.06767 0.16911 0.60568 0.0
H532 H 0.07875 0.22273 0.65681 0.0
H533 H 0.71664 0.99496 0.54749 0.0
H534 H 0.05418 0.2771 0.70282 0.0
N535 N 0.96395 0.19041 0.61832 0.0
C536 C 0.97724 0.17417 0.58959 0.0
C537 C 0.03878 0.17604 0.60932 0.0
C538 C 0.0256 0.20072 0.63735 0.0
C539 C 0.01463 0.16474 0.58498 0.0
C540 C 0.98746 0.20563 0.64165 0.0
H541 H 0.99992 0.31275 0.73436 0.0
N542 N 0.93653 0.23525 0.67252 0.0
C543 C 0.94462 0.29894 0.71898 0.0
C544 C 0.97345 0.23001 0.66933 0.0
C545 C 0.92195 0.27171 0.69622 0.0
C546 C 0.98244 0.29068 0.71695 0.0
C547 C 0.99738 0.25673 0.69174 0.0
O548 O 0.88249 0.2972 0.64135 0.0
O549 O 0.84932 0.15791 0.63687 0.0
O550 O 0.85963 0.10283 0.57535 0.0
O551 O 0.89947 0.19117 0.57987 0.0
O552 O 0.85164 0.24381 0.61334 0.0
O553 O 0.92628 0.28632 0.60776 0.0
O554 O 0.86701 0.97135 0.59629 0.0
O555 O 0.90955 0.10377 0.61393 0.0
O556 O 0.9041 0.14977 0.67665 0.0
O557 O 0.87418 0.04981 0.66838 0.0
O558 O 0.90859 1.01128 0.63131 0.0
O559 O 0.83835 0.96605 0.6404 0.0
C560 C 0.82914 0.20093 0.62324 0.0
C561 C 0.9206 0.38953 0.63317 0.0
C562 C 0.91513 0.50809 0.6376 0.0
C563 C 0.90151 0.44773 0.62704 0.0
C564 C 0.94754 0.51004 0.65493 0.0
C565 C 0.95406 0.39267 0.649 0.0
C566 C 0.96686 0.4523 0.66067 0.0
C567 C 0.87786 0.15288 0.56336 0.0
C568 C 0.90483 0.32719 0.62239 0.0
C569 C 0.03535 0.25389 0.68687 0.0
C570 C 0.04941 0.22401 0.66028 0.0
C571 C 0.93046 0.05758 0.62408 0.0
C572 C 0.83788 0.87033 0.60825 0.0
C573 C 0.8566 0.8128 0.61646 0.0
C574 C 0.84537 0.75216 0.60448 0.0
C575 C 0.81625 0.74949 0.5834 0.0
C576 C 0.80687 0.86632 0.58929 0.0
C577 C 0.79665 0.80638 0.57627 0.0
C578 C 0.89426 0.0886 0.68564 0.0
C579 C 0.85353 0.93326 0.61783 0.0
H580 H 0.87666 0.44624 0.61335 0.0
H581 H 0.95824 0.55637 0.66329 0.0
H582 H 0.97066 0.34982 0.6519 0.0
H583 H 0.99231 0.45395 0.67349 0.0
H584 H 0.88015 0.81517 0.63176 0.0
H585 H 0.80774 0.70304 0.57356 0.0
H586 H 0.79063 0.90896 0.58454 0.0
H587 H 0.77313 0.80377 0.56105 0.0
Tb588 Tb 0.11487 0.83604 0.63949 0.0
C589 C 0.23586 0.96876 0.58329 0.0
C590 C 0.27911 0.94197 0.62394 0.0
C591 C 0.299 0.94353 0.57033 0.0
C592 C 0.24337 0.959 0.61449 0.0
C593 C 0.26449 0.96691 0.56138 0.0
C594 C 0.30585 0.92904 0.60151 0.0
C595 C 0.22348 1.01548 0.52392 0.0
N596 N 0.20151 0.98675 0.57485 0.0
C597 C 0.19527 1.01181 0.54568 0.0
C598 C 0.25806 0.99132 0.53155 0.0
Tb599 Tb 0.15887 0.98269 0.61389 0.0
N600 N 0.21649 0.97046 0.63562 0.0
C601 C 0.22557 0.97512 0.66654 0.0
C602 C 0.28732 0.94055 0.65556 0.0
C603 C 0.26082 0.95979 0.67683 0.0
H604 H 0.16838 0.02816 0.53902 0.0
H605 H 0.2673 0.96167 0.70133 0.0
H606 H 0.33225 0.91023 0.60822 0.0
H607 H 0.21829 0.03571 0.5011 0.0
H608 H 0.20651 0.9896 0.68414 0.0
H609 H 0.9878 0.845 0.57518 0.0
H610 H 0.31438 0.92727 0.66368 0.0
H611 H 0.13235 0.79331 0.71312 0.0
H612 H 0.05331 0.86025 0.58282 0.0
H613 H 0.09779 0.75627 0.7588 0.0
H614 H 0.32081 0.93823 0.55351 0.0
H615 H 0.94832 0.8149 0.61941 0.0
H616 H 0.94337 0.77963 0.67478 0.0
H617 H 0.27987 0.99325 0.51456 0.0
H618 H 0.97356 0.75151 0.72392 0.0
N619 N 0.05267 0.83887 0.63116 0.0
C620 C 0.0372 0.84584 0.60242 0.0
C621 C 0.97741 0.82172 0.62303 0.0
C622 C 0.99328 0.8114 0.65213 0.0
C623 C 0.99959 0.83831 0.59801 0.0
C624 C 0.03139 0.82095 0.65563 0.0
H625 H 0.03063 0.74489 0.75578 0.0
N626 N 0.08527 0.81277 0.68554 0.0
C627 C 0.08343 0.77093 0.73793 0.0
C628 C 0.04827 0.8069 0.68363 0.0
C629 C 0.10291 0.79353 0.71215 0.0
C630 C 0.04558 0.76451 0.73611 0.0
C631 C 0.02754 0.78182 0.70868 0.0
O632 O 0.14515 0.74852 0.63683 0.0
O633 O 0.16714 0.87732 0.624 0.0
O634 O 0.14606 0.9318 0.57046 0.0
O635 O 0.1162 0.83701 0.58759 0.0
O636 O 0.16684 0.8192 0.66297 0.0
O637 O 0.08852 0.7464 0.6269 0.0
O638 O 0.13645 0.07119 0.63058 0.0
O639 O 0.10711 0.9387 0.62705 0.0
O640 O 0.11957 0.89972 0.68143 0.0
O641 O 0.15013 0.9934 0.66344 0.0
O642 O 0.10614 1.00313 0.59087 0.0
O643 O 0.18335 0.07284 0.60152 0.0
C644 C 0.18857 0.84835 0.6436 0.0
C645 C 0.11611 0.64946 0.64766 0.0
C646 C 0.11802 0.53006 0.64757 0.0
C647 C 0.1134 0.58981 0.63161 0.0
C648 C 0.12299 0.52976 0.67981 0.0
C649 C 0.12404 0.64797 0.67955 0.0
C650 C 0.12618 0.58877 0.69571 0.0
C651 C 0.12985 0.87471 0.56505 0.0
C652 C 0.1179 0.71154 0.63001 0.0
C653 C 0.98974 0.77202 0.70517 0.0
C654 C 0.97254 0.78792 0.67718 0.0
C655 C 0.08508 0.96836 0.60868 0.0
C656 C 0.14212 0.16034 0.59612 0.0
C657 C 0.13963 0.224 0.60817 0.0
C658 C 0.12576 0.27538 0.58975 0.0
C659 C 0.1151 0.2628 0.55904 0.0
C660 C 0.12904 0.14779 0.56606 0.0
C661 C 0.1158 0.19887 0.5476 0.0
C662 C 0.134 0.95938 0.68561 0.0
C663 C 0.15865 0.10799 0.61498 0.0
H664 H 0.10995 0.58982 0.6066 0.0
H665 H 0.12623 0.48388 0.6923 0.0
H666 H 0.13103 0.69189 0.69164 0.0
H667 H 0.13208 0.58865 0.72034 0.0
H668 H 0.14874 0.2338 0.63167 0.0
H669 H 0.10511 0.30219 0.54437 0.0
H670 H 0.12881 0.09875 0.55683 0.0
H671 H 0.106 0.18883 0.5244 0.0
Tb672 Tb 0.65972 0.57648 0.11967 0.0
C673 C 0.54292 0.76172 0.17688 0.0
C674 C 0.4883 0.74528 0.14598 0.0
C675 C 0.48419 0.8019 0.19531 0.0
C676 C 0.52638 0.73833 0.15035 0.0
C677 C 0.52202 0.79403 0.19971 0.0
C678 C 0.46728 0.77675 0.16874 0.0
C679 C 0.57812 0.81882 0.22679 0.0
N680 N 0.57995 0.75958 0.17856 0.0
C681 C 0.59776 0.79006 0.20254 0.0
C682 C 0.54004 0.82102 0.22533 0.0
Tb683 Tb 0.60981 0.72394 0.13494 0.0
N684 N 0.54805 0.71381 0.12768 0.0
C685 C 0.5331 0.69505 0.10005 0.0
C686 C 0.47286 0.72392 0.11806 0.0
C687 C 0.4954 0.69836 0.09504 0.0
H688 H 0.6272 0.79287 0.20295 0.0
H689 H 0.48386 0.68172 0.0733 0.0
H690 H 0.43817 0.78397 0.16555 0.0
H691 H 0.59244 0.84135 0.24602 0.0
H692 H 0.54996 0.67402 0.08231 0.0
H693 H 0.75503 0.61967 0.21574 0.0
H694 H 0.44382 0.72835 0.11371 0.0
H695 H 0.68199 0.51822 0.04994 0.0
H696 H 0.69811 0.58139 0.19352 0.0
H697 H 0.73595 0.51943 0.01673 0.0
H698 H 0.46781 0.82812 0.21218 0.0
H699 H 0.80544 0.6574 0.1819 0.0
H700 H 0.83031 0.67018 0.1279 0.0
H701 H 0.52492 0.84557 0.24355 0.0
H702 H 0.82601 0.64101 0.0728 0.0
N703 N 0.71405 0.59728 0.14595 0.0
C704 C 0.71891 0.5973 0.17761 0.0
C705 C 0.78027 0.63949 0.17165 0.0
C706 C 0.77648 0.63406 0.13954 0.0
C707 C 0.75187 0.61839 0.19077 0.0
C708 C 0.74297 0.61137 0.12736 0.0
H709 H 0.79161 0.57984 0.03125 0.0
N710 N 0.70761 0.57411 0.0857 0.0
C711 C 0.73689 0.54448 0.03821 0.0
C712 C 0.73964 0.59916 0.09613 0.0
C713 C 0.70652 0.54302 0.05767 0.0
C714 C 0.76838 0.57822 0.04686 0.0
C715 C 0.77033 0.60509 0.07651 0.0
O716 O 0.65108 0.48488 0.09892 0.0
O717 O 0.60602 0.62024 0.1262 0.0
O718 O 0.60966 0.66813 0.17969 0.0
O719 O 0.6441 0.57475 0.16789 0.0
O720 O 0.60695 0.52899 0.10892 0.0
O721 O 0.67557 0.49181 0.1446 0.0
O722 O 0.63291 0.81855 0.13707 0.0
O723 O 0.664 0.68516 0.12251 0.0
O724 O 0.65002 0.61817 0.07346 0.0
O725 O 0.61333 0.70948 0.08357 0.0
O726 O 0.66053 0.75117 0.15791 0.0
O727 O 0.58835 0.79885 0.10618 0.0
C728 C 0.58454 0.57292 0.11833 0.0
C729 C 0.68304 0.39166 0.11667 0.0
C730 C 0.68121 0.27221 0.11405 0.0
C731 C 0.66486 0.33196 0.12227 0.0
C732 C 0.71609 0.27246 0.10051 0.0
C733 C 0.71791 0.39148 0.10321 0.0
C734 C 0.7343 0.33188 0.09515 0.0
C735 C 0.62517 0.6108 0.1873 0.0
C736 C 0.66338 0.45276 0.12292 0.0
C737 C 0.8026 0.63348 0.08783 0.0
C738 C 0.80533 0.64909 0.11929 0.0
C739 C 0.68381 0.72108 0.14073 0.0
C740 C 0.59524 0.90758 0.12561 0.0
C741 C 0.61632 0.96417 0.12032 0.0
C742 C 0.60447 0.0256 0.13118 0.0
C743 C 0.57171 0.02962 0.14789 0.0
C744 C 0.56179 0.91305 0.14122 0.0
C745 C 0.55055 0.97353 0.15291 0.0
C746 C 0.63061 0.66948 0.064 0.0
C747 C 0.61045 0.84337 0.11702 0.0
H748 H 0.63771 0.33194 0.13242 0.0
H749 H 0.729 0.22672 0.09389 0.0
H750 H 0.73212 0.43714 0.09858 0.0
H751 H 0.76096 0.33172 0.08428 0.0
H752 H 0.64187 0.96005 0.10789 0.0
H753 H 0.56302 0.07624 0.15734 0.0
H754 H 0.54458 0.87085 0.14474 0.0
H755 H 0.52572 0.97662 0.16638 0.0
Tb756 Tb 0.35654 0.48126 0.12302 0.0
C757 C 0.47296 0.29308 0.17378 0.0
C758 C 0.52851 0.31396 0.14463 0.0
C759 C 0.5315 0.25491 0.19355 0.0
C760 C 0.49016 0.31897 0.14788 0.0
C761 C 0.4934 0.25995 0.19672 0.0
C762 C 0.54914 0.28317 0.16795 0.0
C763 C 0.43674 0.23313 0.22261 0.0
N764 N 0.43584 0.29429 0.17482 0.0
C765 C 0.41755 0.26389 0.19866 0.0
C766 C 0.47482 0.23048 0.22152 0.0
Tb767 Tb 0.40711 0.3334 0.13128 0.0
N768 N 0.46897 0.34121 0.12424 0.0
C769 C 0.48445 0.35585 0.09621 0.0
C770 C 0.54463 0.33487 0.11687 0.0
C771 C 0.52241 0.35508 0.09238 0.0
H772 H 0.38809 0.26357 0.19954 0.0
H773 H 0.53438 0.36816 0.07023 0.0
H774 H 0.57852 0.27793 0.16562 0.0
H775 H 0.42197 0.21026 0.2415 0.0
H776 H 0.4676 0.36667 0.07641 0.0
H777 H 0.2438 0.41796 0.20043 0.0
H778 H 0.57393 0.33198 0.11345 0.0
H779 H 0.34499 0.58403 0.06405 0.0
H780 H 0.30466 0.46119 0.18844 0.0
H781 H 0.29586 0.61115 0.02709 0.0
H782 H 0.54748 0.22783 0.21044 0.0
H783 H 0.2005 0.3925 0.15781 0.0
H784 H 0.18732 0.39553 0.09984 0.0
H785 H 0.4896 0.20504 0.23974 0.0
H786 H 0.20021 0.45512 0.05093 0.0
N787 N 0.29773 0.4576 0.13934 0.0
C788 C 0.28688 0.44938 0.16952 0.0
C789 C 0.22749 0.41148 0.15246 0.0
C790 C 0.23751 0.42646 0.12196 0.0
C791 C 0.25181 0.42584 0.17652 0.0
C792 C 0.27281 0.45146 0.11641 0.0
H793 H 0.23933 0.54277 0.02509 0.0
N794 N 0.31462 0.5075 0.0857 0.0
C795 C 0.29258 0.56992 0.04251 0.0
C796 C 0.28145 0.47864 0.08834 0.0
C797 C 0.31999 0.55568 0.0641 0.0
C798 C 0.26048 0.53229 0.04197 0.0
C799 C 0.25433 0.48644 0.06555 0.0
O800 O 0.37757 0.5769 0.11779 0.0
O801 O 0.41119 0.43938 0.12903 0.0
O802 O 0.4145 0.38735 0.17575 0.0
O803 O 0.36498 0.45803 0.17216 0.0
O804 O 0.4064 0.51678 0.0999 0.0
O805 O 0.33844 0.55629 0.15325 0.0
O806 O 0.38598 0.23709 0.13199 0.0
O807 O 0.35254 0.37347 0.12294 0.0
O808 O 0.35734 0.44262 0.07583 0.0
O809 O 0.40211 0.36087 0.08089 0.0
O810 O 0.35722 0.29972 0.15413 0.0
O811 O 0.42771 0.26379 0.09938 0.0
C812 C 0.43013 0.47704 0.11132 0.0
C813 C 0.34034 0.66459 0.13202 0.0
C814 C 0.3457 0.78315 0.12365 0.0
C815 C 0.36091 0.72314 0.13359 0.0
C816 C 0.30967 0.78412 0.11251 0.0
C817 C 0.30431 0.6667 0.12101 0.0
C818 C 0.28922 0.72621 0.11134 0.0
C819 C 0.39145 0.43023 0.18832 0.0
C820 C 0.35792 0.60159 0.13975 0.0
C821 C 0.22082 0.45324 0.06898 0.0
C822 C 0.21297 0.42111 0.09706 0.0
C823 C 0.33324 0.33474 0.14008 0.0
C824 C 0.42653 0.15317 0.1181 0.0
C825 C 0.40739 0.09381 0.11435 0.0
C826 C 0.42161 0.03432 0.12609 0.0
C827 C 0.45579 0.03476 0.14068 0.0
C828 C 0.46135 0.1517 0.13159 0.0
C829 C 0.47558 0.09312 0.14323 0.0
C830 C 0.37989 0.39863 0.06378 0.0
C831 C 0.40811 0.21597 0.11071 0.0
H832 H 0.3887 0.72183 0.1422 0.0
H833 H 0.29736 0.82977 0.10486 0.0
H834 H 0.288 0.62237 0.11952 0.0
H835 H 0.26162 0.72721 0.10275 0.0
H836 H 0.38144 0.09477 0.10264 0.0
H837 H 0.46672 0.98979 0.15032 0.0
H838 H 0.47751 0.19556 0.13339 0.0
H839 H 0.50168 0.0935 0.15485 0.0
Tb840 Tb 0.65688 0.49623 0.37936 0.0
C841 C 0.53831 0.35546 0.31938 0.0
C842 C 0.48808 0.36969 0.35535 0.0
C843 C 0.4758 0.358 0.30021 0.0
C844 C 0.52584 0.36437 0.34949 0.0
C845 C 0.51338 0.35191 0.2945 0.0
C846 C 0.46321 0.36663 0.33063 0.0
C847 C 0.56381 0.32473 0.26089 0.0
N848 N 0.57468 0.34604 0.31474 0.0
C849 C 0.58681 0.32344 0.2867 0.0
C850 C 0.52699 0.34079 0.2647 0.0
Tb851 Tb 0.6104 0.35387 0.35816 0.0
N852 N 0.55065 0.3678 0.37301 0.0
C853 C 0.53896 0.37631 0.40291 0.0
C854 C 0.47643 0.37975 0.38578 0.0
C855 C 0.50183 0.38195 0.40973 0.0
H856 H 0.61499 0.30938 0.28384 0.0
H857 H 0.49299 0.39116 0.4333 0.0
H858 H 0.43421 0.37271 0.33475 0.0
H859 H 0.57475 0.31389 0.2382 0.0
H860 H 0.5577 0.38481 0.42151 0.0
H861 H 0.75855 0.46657 0.28563 0.0
H862 H 0.44812 0.38833 0.39095 0.0
H863 H 0.66989 0.5283 0.45506 0.0
H864 H 0.69871 0.45805 0.30772 0.0
H865 H 0.72087 0.54024 0.48998 0.0
H866 H 0.45624 0.35599 0.28132 0.0
H867 H 0.81125 0.49754 0.31796 0.0
H868 H 0.83524 0.53017 0.36958 0.0
H869 H 0.50908 0.34277 0.24479 0.0
H870 H 0.8262 0.54499 0.42511 0.0
N871 N 0.71357 0.49013 0.35378 0.0
C872 C 0.71973 0.47531 0.32296 0.0
C873 C 0.78421 0.49561 0.32816 0.0
C874 C 0.77879 0.50789 0.3596 0.0
C875 C 0.75458 0.47843 0.30988 0.0
C876 C 0.74303 0.50363 0.37204 0.0
H877 H 0.7842 0.54526 0.47055 0.0
N878 N 0.70319 0.51053 0.41486 0.0
C879 C 0.7262 0.53534 0.46574 0.0
C880 C 0.73772 0.5132 0.40345 0.0
C881 C 0.69716 0.5261 0.44544 0.0
C882 C 0.76176 0.53648 0.45464 0.0
C883 C 0.76783 0.52728 0.42304 0.0
O884 O 0.63346 0.56118 0.41087 0.0
O885 O 0.60222 0.44888 0.37871 0.0
O886 O 0.61524 0.42199 0.31596 0.0
O887 O 0.65103 0.51129 0.33046 0.0
O888 O 0.60598 0.5418 0.36242 0.0
O889 O 0.67094 0.59709 0.37464 0.0
O890 O 0.63181 0.26379 0.37449 0.0
O891 O 0.66439 0.38984 0.37133 0.0
O892 O 0.65095 0.44036 0.4222 0.0
O893 O 0.61582 0.34945 0.40991 0.0
O894 O 0.661 0.33199 0.3329 0.0
O895 O 0.58114 0.26523 0.35122 0.0
C896 C 0.58296 0.49598 0.36742 0.0
C897 C 0.64353 0.67808 0.40968 0.0
C898 C 0.63296 0.7945 0.40023 0.0
C899 C 0.64579 0.73319 0.38995 0.0
C900 C 0.61943 0.80039 0.43068 0.0
C901 C 0.63059 0.68552 0.44015 0.0
C902 C 0.61885 0.7465 0.4506 0.0
C903 C 0.63162 0.47992 0.30969 0.0
C904 C 0.64889 0.61159 0.39754 0.0
C905 C 0.80296 0.53298 0.41055 0.0
C906 C 0.80823 0.52413 0.37888 0.0
C907 C 0.68441 0.35836 0.35167 0.0
C908 C 0.61653 0.16995 0.34562 0.0
C909 C 0.61071 0.10726 0.35834 0.0
C910 C 0.62701 0.05172 0.34475 0.0
C911 C 0.6459 0.05904 0.31653 0.0
C912 C 0.635 0.17604 0.31722 0.0
C913 C 0.64888 0.12056 0.30243 0.0
C914 C 0.63389 0.3862 0.43047 0.0
C915 C 0.60572 0.22827 0.36344 0.0
H916 H 0.65596 0.728 0.36645 0.0
H917 H 0.60978 0.8473 0.43919 0.0
H918 H 0.62862 0.64373 0.45569 0.0
H919 H 0.60864 0.75176 0.47404 0.0
H920 H 0.59506 0.10219 0.37958 0.0
H921 H 0.6584 1.01697 0.30544 0.0
H922 H 0.64018 0.22355 0.30714 0.0
H923 H 0.66344 0.12566 0.28068 0.0
Tb924 Tb 0.34925 0.55715 0.36526 0.0
C925 C 0.4799 0.69701 0.33112 0.0
C926 C 0.51723 0.69818 0.37723 0.0
C927 C 0.54481 0.67625 0.32725 0.0
C928 C 0.48267 0.70203 0.36286 0.0
C929 C 0.51144 0.68979 0.31279 0.0
C930 C 0.54762 0.67892 0.35966 0.0
C931 C 0.47555 0.72083 0.26824 0.0
N932 N 0.44698 0.70872 0.31815 0.0
C933 C 0.44491 0.72658 0.2874 0.0
C934 C 0.50879 0.70006 0.28077 0.0
Tb935 Tb 0.39815 0.70433 0.35145 0.0
N936 N 0.4523 0.7195 0.37888 0.0
C937 C 0.45663 0.74865 0.40741 0.0
C938 C 0.52048 0.71775 0.40814 0.0
C939 C 0.49034 0.74586 0.42286 0.0
H940 H 0.41905 0.73909 0.27683 0.0
H941 H 0.49304 0.76555 0.44605 0.0
H942 H 0.57394 0.67129 0.37059 0.0
H943 H 0.47278 0.7281 0.24364 0.0
H944 H 0.43415 0.77309 0.41888 0.0
H945 H 0.22812 0.63069 0.30023 0.0
H946 H 0.54656 0.71554 0.42003 0.0
H947 H 0.35418 0.48119 0.43519 0.0
H948 H 0.29156 0.59944 0.30651 0.0
H949 H 0.31249 0.4485 0.4766 0.0
H950 H 0.56879 0.66799 0.31344 0.0
H951 H 0.18686 0.63123 0.34544 0.0
H952 H 0.17634 0.60093 0.40099 0.0
H953 H 0.53236 0.69435 0.26577 0.0
H954 H 0.19835 0.54631 0.44823 0.0
N955 N 0.28868 0.58221 0.3552 0.0
C956 C 0.27479 0.59769 0.32658 0.0
C957 C 0.2151 0.61659 0.34838 0.0
C958 C 0.22812 0.59412 0.37694 0.0
C959 C 0.23822 0.61594 0.32281 0.0
C960 C 0.26544 0.5769 0.37969 0.0
H961 H 0.24799 0.48433 0.47522 0.0
N962 N 0.31425 0.53261 0.40861 0.0
C963 C 0.30249 0.47716 0.45718 0.0
C964 C 0.27839 0.5499 0.40699 0.0
C965 C 0.32611 0.49504 0.43317 0.0
C966 C 0.26621 0.49774 0.4564 0.0
C967 C 0.25383 0.53515 0.43136 0.0
O968 O 0.37182 0.47744 0.34064 0.0
O969 O 0.40324 0.60079 0.3577 0.0
O970 O 0.40355 0.63385 0.3113 0.0
O971 O 0.35114 0.57311 0.31515 0.0
O972 O 0.40138 0.5258 0.38763 0.0
O973 O 0.32133 0.46603 0.36379 0.0
O974 O 0.37352 0.75985 0.31659 0.0
O975 O 0.34294 0.66018 0.3504 0.0
O976 O 0.35661 0.60101 0.41148 0.0
O977 O 0.39328 0.69318 0.40279 0.0
O978 O 0.35019 0.74644 0.37417 0.0
O979 O 0.40916 0.80696 0.3509 0.0
C980 C 0.42386 0.56741 0.37559 0.0
C981 C 0.36048 0.37433 0.36287 0.0
C982 C 0.37319 0.25727 0.35992 0.0
C983 C 0.35856 0.31476 0.34656 0.0
C984 C 0.38836 0.25915 0.3898 0.0
C985 C 0.37657 0.37492 0.39239 0.0
C986 C 0.38963 0.31768 0.40609 0.0
C987 C 0.37989 0.59171 0.29883 0.0
C988 C 0.34703 0.43598 0.34894 0.0
C989 C 0.21728 0.55552 0.42937 0.0
C990 C 0.20464 0.58603 0.40237 0.0
C991 C 0.32555 0.7055 0.36524 0.0
C992 C 0.38205 0.8767 0.31036 0.0
C993 C 0.38965 0.93693 0.32496 0.0
C994 C 0.37661 0.99583 0.31188 0.0
C995 C 0.35884 0.99434 0.28298 0.0
C996 C 0.36458 0.87645 0.28129 0.0
C997 C 0.35332 0.93508 0.26766 0.0
C998 C 0.37572 0.6518 0.42161 0.0
C999 C 0.38848 0.81397 0.32639 0.0
H1000 H 0.3464 0.31318 0.32362 0.0
H1001 H 0.39931 0.21509 0.40047 0.0
H1002 H 0.38084 0.41983 0.40444 0.0
H1003 H 0.40201 0.31929 0.42891 0.0
H1004 H 0.40374 0.93775 0.3471 0.0
H1005 H 0.34886 0.03925 0.27242 0.0
H1006 H 0.3586 0.83078 0.26948 0.0
H1007 H 0.33907 0.9344 0.24569 0.0
Tb1008 Tb 0.40074 0.35475 0.85682 0.0
C1009 C 0.28608 0.51899 0.91594 0.0
C1010 C 0.23258 0.49457 0.88463 0.0
C1011 C 0.22485 0.53707 0.93666 0.0
C1012 C 0.27098 0.49699 0.88829 0.0
C1013 C 0.26296 0.54237 0.93972 0.0
C1014 C 0.20968 0.51278 0.90923 0.0
C1015 C 0.31628 0.58605 0.96552 0.0
N1016 N 0.32301 0.52625 0.91786 0.0
C1017 C 0.33809 0.56121 0.94193 0.0
C1018 C 0.27855 0.57635 0.96451 0.0
Tb1019 Tb 0.35483 0.50071 0.87374 0.0
N1020 N 0.29362 0.48368 0.86412 0.0
C1021 C 0.27907 0.46786 0.83572 0.0
C1022 C 0.21819 0.47738 0.85578 0.0
C1023 C 0.24146 0.46378 0.83128 0.0
H1024 H 0.36717 0.57105 0.94259 0.0
H1025 H 0.23046 0.45029 0.80885 0.0
H1026 H 0.18018 0.51118 0.90672 0.0
H1027 H 0.32877 0.615 0.98363 0.0
H1028 H 0.29587 0.45437 0.81641 0.0
H1029 H 0.5211 0.39067 0.92778 0.0
H1030 H 0.18925 0.47648 0.85173 0.0
H1031 H 0.39298 0.2959 0.78561 0.0
H1032 H 0.45583 0.36916 0.91825 0.0
H1033 H 0.43199 0.28824 0.73899 0.0
H1034 H 0.20681 0.55435 0.95484 0.0
H1035 H 0.56365 0.40004 0.88322 0.0
H1036 H 0.57442 0.39095 0.82568 0.0
H1037 H 0.26132 0.59911 0.98177 0.0
H1038 H 0.55045 0.36047 0.77421 0.0
N1039 N 0.46125 0.36678 0.86908 0.0
C1040 C 0.47404 0.37291 0.89876 0.0
C1041 C 0.53527 0.38872 0.87924 0.0
C1042 C 0.5224 0.37801 0.84915 0.0
C1043 C 0.51121 0.38415 0.9043 0.0
C1044 C 0.48494 0.36527 0.84501 0.0
H1045 H 0.49669 0.32578 0.74171 0.0
N1046 N 0.43538 0.3356 0.81379 0.0
C1047 C 0.44368 0.30426 0.76074 0.0
C1048 C 0.47159 0.34847 0.81638 0.0
C1049 C 0.42159 0.30901 0.78709 0.0
C1050 C 0.48032 0.32388 0.7624 0.0
C1051 C 0.49509 0.34406 0.79067 0.0
O1052 O 0.38186 0.25953 0.84647 0.0
O1053 O 0.34704 0.39346 0.86893 0.0
O1054 O 0.36824 0.45791 0.9192 0.0
O1055 O 0.39146 0.35433 0.90793 0.0
O1056 O 0.35013 0.33091 0.83237 0.0
O1057 O 0.4203 0.27487 0.88325 0.0
O1058 O 0.37561 0.59303 0.88593 0.0
O1059 O 0.40889 0.45334 0.87483 0.0
O1060 O 0.40219 0.42038 0.81418 0.0
O1061 O 0.35464 0.49048 0.82372 0.0
O1062 O 0.40617 0.54495 0.85708 0.0
O1063 O 0.33104 0.58438 0.85307 0.0
C1064 C 0.32697 0.35962 0.85021 0.0
C1065 C 0.42011 0.17098 0.85893 0.0
C1066 C 0.4191 0.05158 0.85735 0.0
C1067 C 0.4043 0.11108 0.86775 0.0
C1068 C 0.45087 0.05227 0.83911 0.0
C1069 C 0.4519 0.17126 0.84073 0.0
C1070 C 0.46728 0.11196 0.83102 0.0
C1071 C 0.37996 0.39922 0.92797 0.0
C1072 C 0.40156 0.23184 0.8678 0.0
C1073 C 0.53207 0.36157 0.79392 0.0
C1074 C 0.54565 0.37905 0.82317 0.0
C1075 C 0.42885 0.49932 0.8633 0.0
C1076 C 0.33918 0.68658 0.87916 0.0
C1077 C 0.35838 0.74464 0.87238 0.0
C1078 C 0.34686 0.80471 0.88495 0.0
C1079 C 0.31687 0.80591 0.90524 0.0
C1080 C 0.3086 0.68893 0.89856 0.0
C1081 C 0.29841 0.74779 0.91242 0.0
C1082 C 0.38013 0.46921 0.80493 0.0
C1083 C 0.35343 0.62422 0.86745 0.0
H1084 H 0.38026 0.11088 0.88243 0.0
H1085 H 0.46266 1.0067 0.83093 0.0
H1086 H 0.46468 0.21693 0.83392 0.0
H1087 H 0.49163 0.11228 0.81678 0.0
H1088 H 0.38217 0.74323 0.85737 0.0
H1089 H 0.30813 0.85155 0.91574 0.0
H1090 H 0.29293 0.64546 0.90346 0.0
H1091 H 0.27654 0.74769 0.92913 0.0
Tb1092 Tb 0.61215 0.70727 0.85502 0.0
C1093 C 0.73535 0.56005 0.91169 0.0
C1094 C 0.7827 0.60525 0.87878 0.0
C1095 C 0.7982 0.56614 0.93019 0.0
C1096 C 0.7459 0.58601 0.88343 0.0
C1097 C 0.76206 0.54454 0.93415 0.0
C1098 C 0.80823 0.59848 0.90287 0.0
C1099 C 0.71566 0.4854 0.96251 0.0
N1100 N 0.69963 0.54403 0.91611 0.0
C1101 C 0.68951 0.50866 0.9418 0.0
C1102 C 0.75212 0.50439 0.959 0.0
Tb1103 Tb 0.66097 0.56492 0.87546 0.0
N1104 N 0.7211 0.58715 0.85986 0.0
C1105 C 0.73365 0.59905 0.83012 0.0
C1106 C 0.79345 0.62682 0.84951 0.0
C1107 C 0.76948 0.61997 0.82476 0.0
H1108 H 0.66126 0.49875 0.94651 0.0
H1109 H 0.77827 0.63273 0.80152 0.0
H1110 H 0.8364 0.61379 0.89974 0.0
H1111 H 0.70738 0.4542 0.98164 0.0
H1112 H 0.71643 0.59877 0.80996 0.0
H1113 H 0.4867 0.6958 0.92111 0.0
H1114 H 0.82093 0.64428 0.8453 0.0
H1115 H 0.62903 0.74252 0.77984 0.0
H1116 H 0.55216 0.68234 0.91301 0.0
H1117 H 0.59434 0.79482 0.73758 0.0
H1118 H 0.81876 0.55653 0.94774 0.0
H1119 H 0.44651 0.72528 0.87732 0.0
H1120 H 0.44112 0.76595 0.82298 0.0
H1121 H 0.77245 0.48758 0.9755 0.0
H1122 H 0.4711 0.80244 0.77522 0.0
N1123 N 0.55047 0.70138 0.86434 0.0
C1124 C 0.53563 0.69504 0.89335 0.0
C1125 C 0.47548 0.71816 0.87329 0.0
C1126 C 0.49088 0.72934 0.84407 0.0
C1127 C 0.49808 0.70203 0.89811 0.0
C1128 C 0.52882 0.71907 0.83993 0.0
H1129 H 0.52816 0.81503 0.74359 0.0
N1130 N 0.58259 0.73054 0.80935 0.0
C1131 C 0.58034 0.77871 0.75839 0.0
C1132 C 0.54555 0.73645 0.81199 0.0
C1133 C 0.59987 0.74905 0.78246 0.0
C1134 C 0.54291 0.78941 0.76176 0.0
C1135 C 0.52485 0.76677 0.78833 0.0
O1136 O 0.63976 0.79417 0.86752 0.0
O1137 O 0.6663 0.67135 0.86764 0.0
O1138 O 0.65196 0.61108 0.92031 0.0
O1139 O 0.61468 0.69921 0.90702 0.0
O1140 O 0.66232 0.73285 0.83015 0.0
O1141 O 0.5823 0.79524 0.86269 0.0
O1142 O 0.63628 0.48266 0.85439 0.0
O1143 O 0.60731 0.60476 0.8648 0.0
O1144 O 0.61132 0.63899 0.81382 0.0
O1145 O 0.6602 0.57354 0.82543 0.0
O1146 O 0.6087 0.5389 0.89936 0.0
O1147 O 0.68618 0.47188 0.8791 0.0
C1148 C 0.68584 0.70467 0.84826 0.0
C1149 C 0.61457 0.88845 0.84568 0.0
C1150 C 0.62042 1.00637 0.84161 0.0
C1151 C 0.60836 0.95079 0.85796 0.0
C1152 C 0.63406 0.99998 0.81132 0.0
C1153 C 0.62977 0.88282 0.81586 0.0
C1154 C 0.63752 0.93825 0.79813 0.0
C1155 C 0.63315 0.66392 0.92803 0.0
C1156 C 0.61118 0.83073 0.86587 0.0
C1157 C 0.48719 0.77703 0.7926 0.0
C1158 C 0.47009 0.7566 0.81996 0.0
C1159 C 0.58624 0.57328 0.88293 0.0
C1160 C 0.64377 0.38539 0.883 0.0
C1161 C 0.64441 0.32297 0.86964 0.0
C1162 C 0.62868 0.26987 0.88555 0.0
C1163 C 0.61283 0.27857 0.91482 0.0
C1164 C 0.62727 0.39345 0.91224 0.0
C1165 C 0.6122 0.34041 0.92813 0.0
C1166 C 0.63416 0.59027 0.80614 0.0
C1167 C 0.65938 0.44137 0.86592 0.0
H1168 H 0.5973 0.95591 0.88119 0.0
H1169 H 0.64266 0.04278 0.7982 0.0
H1170 H 0.63838 0.83635 0.8071 0.0
H1171 H 0.64907 0.93315 0.77512 0.0
H1172 H 0.65659 0.31571 0.84696 0.0
H1173 H 0.60064 0.23753 0.92712 0.0
H1174 H 0.62433 0.44042 0.92262 0.0
H1175 H 0.59934 0.34761 0.95049 0.0
Tb1176 Tb 0.40414 0.71446 0.62571 0.0
C1177 C 0.27771 0.58879 0.58833 0.0
C1178 C 0.23857 0.6097 0.63247 0.0
C1179 C 0.21339 0.61534 0.58048 0.0
C1180 C 0.27314 0.59341 0.62005 0.0
C1181 C 0.24763 0.59896 0.56821 0.0
C1182 C 0.2091 0.62155 0.61249 0.0
C1183 C 0.28717 0.57572 0.52517 0.0
N1184 N 0.3114 0.57421 0.57709 0.0
C1185 C 0.31526 0.56143 0.54596 0.0
C1186 C 0.25306 0.59432 0.53625 0.0
Tb1187 Tb 0.35773 0.56566 0.61347 0.0
N1188 N 0.30265 0.584 0.6387 0.0
C1189 C 0.29788 0.58426 0.67036 0.0
C1190 C 0.23454 0.6142 0.6646 0.0
C1191 C 0.2642 0.60019 0.68362 0.0
H1192 H 0.3404 0.54219 0.53647 0.0
H1193 H 0.26121 0.6016 0.70861 0.0
H1194 H 0.18292 0.63566 0.62161 0.0
H1195 H 0.29214 0.57299 0.50061 0.0
H1196 H 0.31921 0.5721 0.68631 0.0
H1197 H 0.49902 0.71698 0.52746 0.0
H1198 H 0.20851 0.62713 0.67493 0.0
H1199 H 0.42352 0.74579 0.70082 0.0
H1200 H 0.4415 0.7402 0.55269 0.0
H1201 H 0.47567 0.72976 0.73528 0.0
H1202 H 0.19018 0.62434 0.56541 0.0
H1203 H 0.55309 0.68605 0.55851 0.0
H1204 H 0.58143 0.67611 0.61064 0.0
H1205 H 0.2311 0.60431 0.52001 0.0
H1206 H 0.57581 0.68924 0.66733 0.0
N1207 N 0.45874 0.70941 0.59828 0.0
C1208 C 0.46303 0.72116 0.56704 0.0
C1209 C 0.52696 0.69337 0.56987 0.0
C1210 C 0.52391 0.69158 0.60211 0.0
C1211 C 0.49655 0.71046 0.55232 0.0
C1212 C 0.48916 0.70079 0.61582 0.0
H1213 H 0.53675 0.70394 0.7137 0.0
N1214 N 0.45237 0.71576 0.66001 0.0
C1215 C 0.47926 0.72408 0.7107 0.0
C1216 C 0.48595 0.70544 0.64761 0.0
C1217 C 0.44939 0.73097 0.69093 0.0
C1218 C 0.51345 0.70919 0.69848 0.0
C1219 C 0.51738 0.70203 0.66651 0.0
O1220 O 0.38952 0.7951 0.65394 0.0
O1221 O 0.35022 0.66671 0.6309 0.0
O1222 O 0.37748 0.60376 0.56864 0.0
O1223 O 0.38842 0.71418 0.57617 0.0
O1224 O 0.35337 0.75487 0.6079 0.0
O1225 O 0.41913 0.80927 0.61099 0.0
O1226 O 0.36289 0.48113 0.58572 0.0
O1227 O 0.41171 0.61432 0.61012 0.0
O1228 O 0.39643 0.65927 0.67145 0.0
O1229 O 0.37336 0.55512 0.66135 0.0
O1230 O 0.40972 0.52055 0.62582 0.0
O1231 O 0.34244 0.47466 0.63286 0.0
C1232 C 0.33068 0.7122 0.61813 0.0
C1233 C 0.41878 0.89965 0.64588 0.0
C1234 C 0.41634 1.01964 0.64627 0.0
C1235 C 0.40481 0.95915 0.63417 0.0
C1236 C 0.44348 1.02055 0.66926 0.0
C1237 C 0.44644 0.90138 0.66839 0.0
C1238 C 0.45884 0.96169 0.67986 0.0
C1239 C 0.38124 0.66416 0.55767 0.0
C1240 C 0.40307 0.83762 0.63431 0.0
C1241 C 0.55161 0.69089 0.65305 0.0
C1242 C 0.55482 0.68424 0.62093 0.0
C1243 C 0.43186 0.56808 0.62108 0.0
C1244 C 0.33783 0.37801 0.60193 0.0
C1245 C 0.35708 0.32217 0.61205 0.0
C1246 C 0.34368 0.25896 0.60582 0.0
C1247 C 0.31052 0.25219 0.58966 0.0
C1248 C 0.30479 0.37079 0.58588 0.0
C1249 C 0.2912 0.30786 0.57982 0.0
C1250 C 0.38766 0.59797 0.68044 0.0
C1251 C 0.35348 0.44259 0.60853 0.0
H1252 H 0.38455 0.95892 0.61596 0.0
H1253 H 0.45264 0.06674 0.67899 0.0
H1254 H 0.45843 0.85668 0.67713 0.0
H1255 H 0.48008 0.96278 0.69737 0.0
H1256 H 0.38251 0.32779 0.62478 0.0
H1257 H 0.29956 0.20383 0.58483 0.0
H1258 H 0.28968 0.41354 0.57811 0.0
H1259 H 0.26562 0.30217 0.56745 0.0
Tb1260 Tb 0.61267 0.33133 0.63592 0.0
C1261 C 0.7262 0.52463 0.58183 0.0
C1262 C 0.78067 0.49489 0.61049 0.0
C1263 C 0.78605 0.5597 0.56339 0.0
C1264 C 0.74228 0.49344 0.60673 0.0
C1265 C 0.74777 0.56144 0.56094 0.0
C1266 C 0.80252 0.52571 0.58795 0.0
C1267 C 0.69203 0.60387 0.53853 0.0
N1268 N 0.68916 0.52618 0.5805 0.0
C1269 C 0.67186 0.56476 0.55899 0.0
C1270 C 0.73019 0.60267 0.53971 0.0
Tb1271 Tb 0.65821 0.48069 0.62128 0.0
N1272 N 0.72007 0.46991 0.62937 0.0
C1273 C 0.73473 0.45229 0.65742 0.0
C1274 C 0.79568 0.47025 0.63797 0.0
C1275 C 0.77256 0.45005 0.66178 0.0
H1276 H 0.64238 0.56738 0.55828 0.0
H1277 H 0.7838 0.43424 0.68381 0.0
H1278 H 0.832 0.52712 0.59033 0.0
H1279 H 0.67815 0.63515 0.52193 0.0
H1280 H 0.71756 0.43984 0.67679 0.0
H1281 H 0.49097 0.35885 0.56556 0.0
H1282 H 0.82484 0.4705 0.64191 0.0
H1283 H 0.62579 0.26571 0.70491 0.0
H1284 H 0.55643 0.36459 0.57652 0.0
H1285 H 0.58876 0.20982 0.74477 0.0
H1286 H 0.80308 0.58674 0.54721 0.0
H1287 H 0.44799 0.32104 0.606 0.0
H1288 H 0.43918 0.26812 0.65792 0.0
H1289 H 0.74578 0.63342 0.52396 0.0
H1290 H 0.46649 0.22078 0.70502 0.0
N1291 N 0.55139 0.33704 0.62422 0.0
C1292 C 0.53836 0.35019 0.59502 0.0
C1293 C 0.47681 0.32565 0.61143 0.0
C1294 C 0.49047 0.30666 0.64038 0.0
C1295 C 0.50098 0.34664 0.58851 0.0
C1296 C 0.52825 0.31424 0.64639 0.0
H1297 H 0.52188 0.19987 0.73789 0.0
N1298 N 0.57994 0.29496 0.67768 0.0
C1299 C 0.57557 0.23254 0.72498 0.0
C1300 C 0.5432 0.29067 0.67373 0.0
C1301 C 0.5964 0.2653 0.7026 0.0
C1302 C 0.53787 0.22697 0.72097 0.0
C1303 C 0.52122 0.25578 0.69502 0.0
O1304 O 0.63304 0.23477 0.64217 0.0
O1305 O 0.66628 0.37304 0.62491 0.0
O1306 O 0.65973 0.43365 0.57576 0.0
O1307 O 0.61922 0.34763 0.58482 0.0
O1308 O 0.66319 0.30606 0.66002 0.0
O1309 O 0.59507 0.25719 0.60584 0.0
O1310 O 0.63494 0.57556 0.61956 0.0
O1311 O 0.60501 0.43628 0.63103 0.0
O1312 O 0.61001 0.38715 0.68021 0.0
O1313 O 0.65543 0.46484 0.67138 0.0
O1314 O 0.60687 0.50657 0.59779 0.0
O1315 O 0.67578 0.55183 0.65345 0.0
C1316 C 0.68627 0.33859 0.64357 0.0
C1317 C 0.59319 0.14932 0.62644 0.0
C1318 C 0.59462 0.03009 0.63224 0.0
C1319 C 0.61226 0.08978 0.62529 0.0
C1320 C 0.5574 0.03035 0.64001 0.0
C1321 C 0.5556 0.14824 0.633 0.0
C1322 C 0.53799 0.0893 0.64023 0.0
C1323 C 0.64024 0.38286 0.56574 0.0
C1324 C 0.61307 0.21103 0.6199 0.0
C1325 C 0.48363 0.24849 0.68922 0.0
C1326 C 0.46811 0.27525 0.66233 0.0
C1327 C 0.58454 0.46901 0.6125 0.0
C1328 C 0.67412 0.6615 0.63459 0.0
C1329 C 0.6541 0.72041 0.63572 0.0
C1330 C 0.67058 0.78056 0.62793 0.0
C1331 C 0.70752 0.78176 0.61938 0.0
C1332 C 0.71128 0.66397 0.62678 0.0
C1333 C 0.72772 0.72365 0.61926 0.0
C1334 C 0.63072 0.43729 0.68938 0.0
C1335 C 0.65592 0.5983 0.64131 0.0
H1336 H 0.64048 0.09039 0.61825 0.0
H1337 H 0.54334 0.9849 0.64548 0.0
H1338 H 0.53956 0.19226 0.63194 0.0
H1339 H 0.50916 0.08938 0.64575 0.0
H1340 H 0.62595 0.72005 0.64279 0.0
H1341 H 0.72081 0.82774 0.6135 0.0
H1342 H 0.72784 0.62014 0.62688 0.0
H1343 H 0.75634 0.72451 0.61384 0.0
C1344 C 0.25123 0.24001 0.10128 0.0
C1345 C 0.22855 0.22389 0.12708 0.0
C1346 C 0.27484 0.27757 0.16064 0.0
C1347 C 0.29525 0.30221 0.13457 0.0
N1348 N 0.296 0.31338 0.0787 0.0
N1349 N 0.21529 0.24716 0.18073 0.0
C1350 C 0.28151 0.28501 0.10451 0.0
C1351 C 0.23946 0.24804 0.15658 0.0
N1352 N 0.24396 0.21187 0.07324 0.0
N1353 N 0.28871 0.2828 0.18989 0.0
H1354 H 0.18923 0.22684 0.1791 0.0
H1355 H 0.22012 0.27157 0.20158 0.0
H1356 H 0.31299 0.30686 0.19474 0.0
H1357 H 0.27713 0.25908 0.209 0.0
H1358 H 0.26162 0.21485 0.05431 0.0
H1359 H 0.22194 0.18014 0.06991 0.0
H1360 H 0.28458 0.3089 0.05665 0.0
H1361 H 0.31667 0.34772 0.07984 0.0
C1362 C 0.77624 0.81558 0.15517 0.0
C1363 C 0.78686 0.83798 0.125 0.0
C1364 C 0.72848 0.78888 0.10501 0.0
C1365 C 0.72022 0.75879 0.13424 0.0
N1366 N 0.73134 0.7655 0.18946 0.0
N1367 N 0.77324 0.83891 0.07038 0.0
C1368 C 0.74277 0.77881 0.15988 0.0
C1369 C 0.76291 0.82241 0.09985 0.0
N1370 N 0.79914 0.8264 0.17961 0.0
N1371 N 0.7017 0.79316 0.0831 0.0
H1372 H 0.79639 0.86725 0.06563 0.0
H1373 H 0.75992 0.82127 0.05069 0.0
H1374 H 0.67548 0.77485 0.08659 0.0
H1375 H 0.7042 0.82107 0.0629 0.0
H1376 H 0.79749 0.80132 0.20066 0.0
H1377 H 0.82085 0.85918 0.1785 0.0
H1378 H 0.74245 0.78746 0.20912 0.0
H1379 H 0.70936 0.73489 0.19465 0.0
C1380 C 0.27404 0.75781 0.33144 0.0
C1381 C 0.28622 0.73171 0.36051 0.0
C1382 C 0.22679 0.76865 0.38287 0.0
C1383 C 0.21735 0.80536 0.3557 0.0
N1384 N 0.23398 0.83243 0.30311 0.0
N1385 N 0.2742 0.72114 0.41527 0.0
C1386 C 0.24153 0.79835 0.32967 0.0
C1387 C 0.26274 0.74076 0.38656 0.0
N1388 N 0.29288 0.74241 0.3051 0.0
N1389 N 0.20046 0.75337 0.40397 0.0
H1390 H 0.29841 0.69524 0.41883 0.0
H1391 H 0.26026 0.7335 0.43555 0.0
H1392 H 0.17376 0.77017 0.40227 0.0
H1393 H 0.20463 0.72052 0.42222 0.0
H1394 H 0.28412 0.75395 0.28278 0.0
H1395 H 0.31506 0.71058 0.30512 0.0
H1396 H 0.25154 0.83569 0.28418 0.0
H1397 H 0.21215 0.86488 0.30158 0.0
C1398 C 0.76507 0.25782 0.39114 0.0
C1399 C 0.78766 0.2399 0.36562 0.0
C1400 C 0.74474 0.30423 0.33158 0.0
C1401 C 0.72157 0.3215 0.35737 0.0
N1402 N 0.70518 0.28691 0.40916 0.0
N1403 N 0.80142 0.25672 0.31165 0.0
C1404 C 0.73093 0.29173 0.38655 0.0
C1405 C 0.778 0.26613 0.3359 0.0
N1406 N 0.77571 0.24085 0.4205 0.0
N1407 N 0.73381 0.32034 0.30218 0.0
H1408 H 0.82367 0.22505 0.31288 0.0
H1409 H 0.80004 0.28259 0.29082 0.0
H1410 H 0.711 0.34903 0.29733 0.0
H1411 H 0.74571 0.30144 0.28218 0.0
H1412 H 0.76408 0.26111 0.44037 0.0
H1413 H 0.79719 0.20859 0.42499 0.0
H1414 H 0.70836 0.25967 0.42947 0.0
H1415 H 0.67921 0.30532 0.40662 0.0
C1416 C 0.74436 0.76442 0.82878 0.0
C1417 C 0.72293 0.74027 0.85437 0.0
C1418 C 0.77034 0.78723 0.88974 0.0
C1419 C 0.7912 0.81311 0.86453 0.0
N1420 N 0.79968 0.81713 0.80908 0.0
N1421 N 0.7108 0.75705 0.90878 0.0
C1422 C 0.77833 0.79978 0.83379 0.0
C1423 C 0.73492 0.7584 0.88474 0.0
N1424 N 0.73195 0.75438 0.79921 0.0
N1425 N 0.78404 0.79084 0.91922 0.0
H1426 H 0.68347 0.74525 0.90609 0.0
H1427 H 0.71646 0.77672 0.93057 0.0
H1428 H 0.80752 0.81729 0.92494 0.0
H1429 H 0.77292 0.76454 0.93776 0.0
H1430 H 0.7416 0.77971 0.77987 0.0
H1431 H 0.71098 0.72169 0.79378 0.0
H1432 H 0.79579 0.8002 0.78657 0.0
H1433 H 0.82261 0.84692 0.81104 0.0
C1434 C 0.26892 0.29884 0.83016 0.0
C1435 C 0.28983 0.32325 0.85606 0.0
C1436 C 0.25119 0.25053 0.88947 0.0
C1437 C 0.22759 0.2326 0.86452 0.0
N1438 N 0.21269 0.24913 0.81066 0.0
N1439 N 0.29085 0.33323 0.91188 0.0
C1440 C 0.23625 0.25939 0.83475 0.0
C1441 C 0.27804 0.30225 0.88611 0.0
N1442 N 0.28003 0.31343 0.80066 0.0
N1443 N 0.24904 0.21604 0.91655 0.0
H1444 H 0.3079 0.37396 0.91078 0.0
H1445 H 0.28057 0.32393 0.93403 0.0
H1446 H 0.23115 0.17647 0.91923 0.0
H1447 H 0.26763 0.222 0.93469 0.0
H1448 H 0.26971 0.28987 0.78109 0.0
H1449 H 0.30074 0.34698 0.79561 0.0
H1450 H 0.21415 0.27461 0.7897 0.0
H1451 H 0.19039 0.2175 0.81219 0.0
C1452 C 0.74764 0.29095 0.66309 0.0
C1453 C 0.7234 0.30366 0.6375 0.0
C1454 C 0.76487 0.2334 0.60522 0.0
C1455 C 0.79008 0.22474 0.63027 0.0
N1456 N 0.8077 0.25791 0.6817 0.0
N1457 N 0.70424 0.26414 0.58733 0.0
C1458 C 0.78177 0.25647 0.65886 0.0
C1459 C 0.73098 0.26908 0.60929 0.0
N1460 N 0.73738 0.30921 0.69231 0.0
N1461 N 0.77387 0.2088 0.57675 0.0
H1462 H 0.67831 0.2835 0.59038 0.0
H1463 H 0.70594 0.23417 0.56786 0.0
H1464 H 0.79649 0.17862 0.57324 0.0
H1465 H 0.76032 0.22133 0.55632 0.0
H1466 H 0.75076 0.29342 0.71233 0.0
H1467 H 0.71378 0.33586 0.69697 0.0
H1468 H 0.80608 0.28832 0.70105 0.0
H1469 H 0.83227 0.23225 0.68032 0.0
C1470 C 0.23331 0.78435 0.60737 0.0
C1471 C 0.22527 0.8129 0.63681 0.0
C1472 C 0.28312 0.76047 0.65641 0.0
C1473 C 0.29231 0.73782 0.62608 0.0
N1474 N 0.27835 0.74262 0.57147 0.0
N1475 N 0.24011 0.81341 0.69144 0.0
C1476 C 0.26817 0.75485 0.60137 0.0
C1477 C 0.24958 0.79638 0.66186 0.0
N1478 N 0.2062 0.77673 0.58604 0.0
N1479 N 0.3079 0.75219 0.67978 0.0
H1480 H 0.21861 0.84504 0.69645 0.0
H1481 H 0.25252 0.79439 0.71124 0.0
H1482 H 0.33163 0.7249 0.677 0.0
H1483 H 0.30631 0.77514 0.70127 0.0
H1484 H 0.20944 0.75061 0.56546 0.0
H1485 H 0.1793 0.7896 0.5902 0.0
H1486 H 0.26473 0.76258 0.55239 0.0
H1487 H 0.30117 0.7145 0.56586 0.0
C1488 C 0.10147 0.03475 0.27159 0.0
C1489 C 0.11874 0.97355 0.27674 0.0
C1490 C 0.14812 0.98583 0.22548 0.0
C1491 C 0.12901 0.0472 0.21918 0.0
N1492 N 0.07834 0.11485 0.23645 0.0
N1493 N 0.16172 0.8934 0.25922 0.0
C1494 C 0.10355 0.0676 0.2424 0.0
C1495 C 0.14196 0.94899 0.25336 0.0
N1496 N 0.0836 0.06444 0.29528 0.0
N1497 N 0.17268 0.96093 0.20488 0.0
H1498 H 0.15757 0.86476 0.2788 0.0
H1499 H 0.18362 0.877 0.24593 0.0
H1500 H 0.19114 0.99015 0.19303 0.0
H1501 H 0.17646 0.91077 0.20139 0.0
H1502 H 0.07968 0.11477 0.29543 0.0
H1503 H 0.0758 0.04038 0.31531 0.0
H1504 H 0.05534 0.12243 0.25027 0.0
H1505 H 0.07767 0.14119 0.21631 0.0
C1506 C 0.88235 0.99875 0.27301 0.0
C1507 C 0.87885 0.06866 0.27461 0.0
C1508 C 0.88512 0.07158 0.21853 0.0
C1509 C 0.87926 1.00214 0.21649 0.0
N1510 N 0.86619 0.90145 0.2442 0.0
N1511 N 0.87187 0.17092 0.24699 0.0
C1512 C 0.87642 0.96592 0.24441 0.0
C1513 C 0.87879 0.10506 0.24683 0.0
N1514 N 0.89258 0.96357 0.29853 0.0
N1515 N 0.89928 0.10533 0.1941 0.0
H1516 H 0.86658 0.19711 0.26724 0.0
H1517 H 0.86808 0.19801 0.22666 0.0
H1518 H 0.90983 0.08128 0.17499 0.0
H1519 H 0.90571 0.15505 0.19518 0.0
H1520 H 0.89861 0.91354 0.29769 0.0
H1521 H 0.89916 0.98587 0.31949 0.0
H1522 H 0.86072 0.87517 0.2645 0.0
H1523 H 0.85953 0.87634 0.22396 0.0
C1524 C 0.90448 0.09514 0.74436 0.0
C1525 C 0.90272 0.05802 0.71708 0.0
C1526 C 0.8901 0.9585 0.74809 0.0
C1527 C 0.88985 0.99582 0.77572 0.0
N1528 N 0.89624 0.10333 0.7993 0.0
N1529 N 0.91587 0.95035 0.69695 0.0
C1530 C 0.89663 0.0652 0.7735 0.0
C1531 C 0.90205 0.9883 0.72009 0.0
N1532 N 0.91997 0.1556 0.74306 0.0
N1533 N 0.87603 0.89643 0.7476 0.0
H1534 H 0.93081 0.97124 0.67893 0.0
H1535 H 0.91817 0.89942 0.69866 0.0
H1536 H 0.86361 0.87481 0.76685 0.0
H1537 H 0.8729 0.86983 0.72711 0.0
H1538 H 0.92198 0.18772 0.76172 0.0
H1539 H 0.93738 0.16627 0.72469 0.0
H1540 H 0.88936 0.15303 0.79857 0.0
H1541 H 0.90544 0.08624 0.82072 0.0
C1542 C 0.13622 0.99086 0.77307 0.0
C1543 C 0.13582 0.06076 0.77491 0.0
C1544 C 0.12335 0.0612 0.71897 0.0
C1545 C 0.13205 0.99291 0.71672 0.0
N1546 N 0.15888 0.9002 0.74313 0.0
N1547 N 0.13819 0.16201 0.74587 0.0
C1548 C 0.14195 0.95965 0.74421 0.0
C1549 C 0.13173 0.09618 0.7468 0.0
N1550 N 0.12919 0.95358 0.79852 0.0
N1551 N 0.10595 0.09247 0.69524 0.0
H1552 H 0.14857 0.18723 0.76497 0.0
H1553 H 0.1377 0.18895 0.72525 0.0
H1554 H 0.0963 0.06739 0.67589 0.0
H1555 H 0.097 0.14088 0.69702 0.0
H1556 H 0.1292 0.90239 0.7979 0.0
H1557 H 0.11823 0.97418 0.8185 0.0
H1558 H 0.16867 0.87647 0.76295 0.0
H1559 H 0.16747 0.87975 0.7223 0.0
C1560 C 0.63112 0.58577 0.27554 0.0
C1561 C 0.62798 0.5152 0.27834 0.0
C1562 C 0.61443 0.5126 0.22241 0.0
C1563 C 0.62178 0.58115 0.21921 0.0
N1564 N 0.6505 0.67543 0.24237 0.0
N1565 N 0.63523 0.41564 0.2491 0.0
C1566 C 0.63392 0.61567 0.24565 0.0
C1567 C 0.62428 0.47942 0.25034 0.0
N1568 N 0.631 0.62583 0.30084 0.0
N1569 N 0.59924 0.4781 0.19854 0.0
H1570 H 0.64932 0.39385 0.26747 0.0
H1571 H 0.6356 0.38878 0.22852 0.0
H1572 H 0.59147 0.49997 0.17767 0.0
H1573 H 0.59137 0.42904 0.20089 0.0
H1574 H 0.63136 0.67692 0.29918 0.0
H1575 H 0.6248 0.61064 0.32304 0.0
H1576 H 0.66397 0.69911 0.2605 0.0
H1577 H 0.65488 0.69737 0.22086 0.0
C1578 C 0.35669 0.5206 0.25542 0.0
C1579 C 0.38713 0.55319 0.26869 0.0
C1580 C 0.42613 0.48897 0.23178 0.0
C1581 C 0.39477 0.45491 0.22118 0.0
N1582 N 0.33553 0.41692 0.23614 0.0
N1583 N 0.45218 0.57507 0.26325 0.0
C1584 C 0.36187 0.46383 0.23745 0.0
C1585 C 0.42242 0.53908 0.25523 0.0
N1586 N 0.3229 0.54828 0.25666 0.0
N1587 N 0.45975 0.46938 0.22156 0.0
H1588 H 0.45306 0.60243 0.28324 0.0
H1589 H 0.47625 0.57681 0.25037 0.0
H1590 H 0.46308 0.43132 0.20574 0.0
H1591 H 0.4844 0.48588 0.23079 0.0
H1592 H 0.30006 0.52705 0.2461 0.0
H1593 H 0.3199 0.5973 0.26313 0.0
H1594 H 0.31129 0.41993 0.24888 0.0
H1595 H 0.34082 0.37245 0.22522 0.0
C1596 C 0.36141 0.56053 0.76421 0.0
C1597 C 0.38426 0.50544 0.77323 0.0
C1598 C 0.41049 0.51313 0.72059 0.0
C1599 C 0.39201 0.57331 0.71372 0.0
N1600 N 0.35923 0.66399 0.73623 0.0
N1601 N 0.44368 0.45892 0.76061 0.0
C1602 C 0.37125 0.6008 0.73813 0.0
C1603 C 0.41264 0.49019 0.75171 0.0
N1604 N 0.32856 0.57273 0.77797 0.0
N1605 N 0.42659 0.47645 0.69807 0.0
H1606 H 0.44974 0.44898 0.78348 0.0
H1607 H 0.46603 0.45374 0.74572 0.0
H1608 H 0.42723 0.49003 0.67506 0.0
H1609 H 0.4374 0.42988 0.7025 0.0
H1610 H 0.31507 0.53953 0.79194 0.0
H1611 H 0.31116 0.61024 0.77062 0.0
H1612 H 0.34612 0.68732 0.75466 0.0
H1613 H 0.36659 0.69511 0.71813 0.0
C1614 C 0.6042 0.56172 0.7525 0.0
C1615 C 0.63018 0.54752 0.77649 0.0
C1616 C 0.64596 0.44564 0.74626 0.0
C1617 C 0.62576 0.46866 0.72065 0.0
N1618 N 0.59239 0.55805 0.6975 0.0
N1619 N 0.67413 0.46573 0.79539 0.0
C1620 C 0.60695 0.52928 0.72326 0.0
C1621 C 0.65056 0.4866 0.773 0.0
N1622 N 0.57485 0.60163 0.75756 0.0
N1623 N 0.66401 0.38708 0.74368 0.0
H1624 H 0.6948 0.49571 0.80384 0.0
H1625 H 0.67736 0.41641 0.80124 0.0
H1626 H 0.65975 0.35532 0.72511 0.0
H1627 H 0.68342 0.36972 0.75932 0.0
H1628 H 0.55377 0.60685 0.74145 0.0
H1629 H 0.56733 0.61935 0.77908 0.0
H1630 H 0.58087 0.60458 0.69816 0.0
H1631 H 0.59482 0.53837 0.67532 0.0
C1632 C 0.1078 0.12883 0.97928 0.0
C1633 C 0.13715 0.15981 0.96351 0.0
C1634 C 0.15764 0.2063 0.01349 0.0
C1635 C 0.13253 0.16479 0.02935 0.0
N1636 N 0.08421 0.08465 0.02715 0.0
N1637 N 0.18624 0.2382 0.96465 0.0
C1638 C 0.10769 0.12588 0.01213 0.0
C1639 C 0.16112 0.20153 0.98042 0.0
N1640 N 0.07873 0.10524 0.963 0.0
N1641 N 0.17715 0.25153 0.03001 0.0
H1642 H 0.18536 0.24294 0.9406 0.0
H1643 H 0.20759 0.26381 0.97506 0.0
H1644 H 0.17365 0.25768 0.05382 0.0
H1645 H 0.19469 0.28608 0.02023 0.0
H1646 H 0.05432 0.09031 0.97336 0.0
H1647 H 0.07749 0.10717 0.93897 0.0
H1648 H 0.06907 0.04828 0.01599 0.0
H1649 H 0.08153 0.08483 0.05111 0.0
C1650 C 0.87923 0.8353 0.97945 0.0
C1651 C 0.88989 0.89202 0.96201 0.0
C1652 C 0.90467 0.94765 0.01102 0.0
C1653 C 0.88924 0.89561 0.02871 0.0
N1654 N 0.85891 0.79065 0.02911 0.0
N1655 N 0.90731 1.0079 0.9636 0.0
C1656 C 0.87618 0.83912 0.01274 0.0
C1657 C 0.90102 0.94942 0.97847 0.0
N1658 N 0.87105 0.77819 0.9644 0.0
N1659 N 0.92453 0.99565 0.025 0.0
H1660 H 0.91079 1.01359 0.93993 0.0
H1661 H 0.90774 0.0528 0.97522 0.0
H1662 H 0.92643 0.99953 0.04862 0.0
H1663 H 0.94151 0.02829 0.01307 0.0
H1664 H 0.86722 0.73351 0.97575 0.0
H1665 H 0.87034 0.77404 0.94037 0.0
H1666 H 0.84448 0.7523 0.01886 0.0
H1667 H 0.8569 0.79109 0.0532 0.0
C1668 C 0.0944 0.83069 0.48327 0.0
C1669 C 0.12567 0.84715 0.4651 0.0
C1670 C 0.16174 0.85617 0.51328 0.0
C1671 C 0.12939 0.85148 0.53147 0.0
N1672 N 0.07156 0.79452 0.53334 0.0
N1673 N 0.19099 0.83871 0.46393 0.0
C1674 C 0.09728 0.82751 0.51651 0.0
C1675 C 0.15993 0.8488 0.48053 0.0
N1676 N 0.06245 0.81462 0.46904 0.0
N1677 N 0.19466 0.86714 0.52721 0.0
H1678 H 0.191 0.83971 0.43995 0.0
H1679 H 0.21594 0.82531 0.47376 0.0
H1680 H 0.19778 0.86932 0.55107 0.0
H1681 H 0.21877 0.87636 0.51514 0.0
H1682 H 0.03724 0.81457 0.48033 0.0
H1683 H 0.06195 0.79738 0.44642 0.0
H1684 H 0.04822 0.77337 0.52376 0.0
H1685 H 0.07668 0.77821 0.55579 0.0
C1686 C 0.89639 0.10659 0.51247 0.0
C1687 C 0.87913 0.15751 0.52887 0.0
C1688 C 0.86222 0.2077 0.47897 0.0
C1689 C 0.87382 0.14978 0.46316 0.0
N1690 N 0.89596 0.03783 0.4677 0.0
N1691 N 0.84335 0.25649 0.52796 0.0
C1692 C 0.88886 0.09728 0.48076 0.0
C1693 C 0.86143 0.2084 0.5122 0.0
N1694 N 0.9222 0.06944 0.52682 0.0
N1695 N 0.85249 0.26222 0.46251 0.0
H1696 H 0.84379 0.25962 0.55211 0.0
H1697 H 0.82623 0.29056 0.51725 0.0
H1698 H 0.85297 0.26377 0.43843 0.0
H1699 H 0.84704 0.30747 0.47272 0.0
H1700 H 0.93868 0.03592 0.51507 0.0
H1701 H 0.93042 0.08013 0.54931 0.0
H1702 H 0.90302 0.99647 0.48072 0.0
H1703 H 0.89213 0.02842 0.4444 0.0
C1704 C 0.66566 0.67789 0.01339 0.0
C1705 C 0.63194 0.6852 0.02931 0.0
C1706 C 0.60336 0.71027 0.97823 0.0
C1707 C 0.63415 0.68337 0.9624 0.0
N1708 N 0.69845 0.65515 0.96635 0.0
N1709 N 0.56952 0.72359 0.02593 0.0
C1710 C 0.66635 0.67132 0.98047 0.0
C1711 C 0.60098 0.70562 0.01147 0.0
N1712 N 0.6977 0.68282 0.02954 0.0
N1713 N 0.57819 0.74671 0.96234 0.0
H1714 H 0.5695 0.74273 0.04818 0.0
H1715 H 0.54415 0.72401 0.01487 0.0
H1716 H 0.58251 0.76346 0.93987 0.0
H1717 H 0.55615 0.77025 0.97278 0.0
H1718 H 0.72321 0.68847 0.01909 0.0
H1719 H 0.69865 0.68829 0.05347 0.0
H1720 H 0.72071 0.63516 0.97814 0.0
H1721 H 0.70282 0.66086 0.94276 0.0
C1722 C 0.36821 0.33558 0.97936 0.0
C1723 C 0.38428 0.38842 0.96251 0.0
C1724 C 0.39412 0.44742 0.01101 0.0
C1725 C 0.38116 0.39359 0.02888 0.0
N1726 N 0.36155 0.28009 0.02932 0.0
N1727 N 0.42929 0.473 0.96593 0.0
C1728 C 0.37014 0.33533 0.01284 0.0
C1729 C 0.402 0.43808 0.97943 0.0
N1730 N 0.35067 0.28665 0.96374 0.0
N1731 N 0.3991 0.50816 0.02347 0.0
H1732 H 0.43896 0.45942 0.94421 0.0
H1733 H 0.44556 0.50605 0.97825 0.0
H1734 H 0.39378 0.519 0.04643 0.0
H1735 H 0.40574 0.54903 0.0099 0.0
H1736 H 0.33476 0.25094 0.97464 0.0
H1737 H 0.35067 0.28386 0.9396 0.0
H1738 H 0.35643 0.23481 0.01901 0.0
H1739 H 0.36223 0.27838 0.05348 0.0
C1740 C 0.60971 0.33766 0.48238 0.0
C1741 C 0.63838 0.36636 0.4645 0.0
C1742 C 0.67338 0.38353 0.51332 0.0
C1743 C 0.64233 0.36506 0.53122 0.0
N1744 N 0.59247 0.28703 0.53085 0.0
N1745 N 0.70368 0.38622 0.46353 0.0
C1746 C 0.61341 0.33179 0.51537 0.0
C1747 C 0.67204 0.38061 0.48018 0.0
N1748 N 0.57945 0.31271 0.46819 0.0
N1749 N 0.70501 0.40147 0.52795 0.0
H1750 H 0.70453 0.3867 0.43949 0.0
H1751 H 0.72968 0.38619 0.4734 0.0
H1752 H 0.71052 0.38898 0.55097 0.0
H1753 H 0.72601 0.4275 0.51714 0.0
H1754 H 0.55476 0.3052 0.47978 0.0
H1755 H 0.57958 0.2965 0.44538 0.0
H1756 H 0.57165 0.25959 0.52068 0.0
H1757 H 0.60104 0.26681 0.55164 0.0
C1758 C 0.40451 0.62523 0.50641 0.0
C1759 C 0.38392 0.67206 0.52278 0.0
C1760 C 0.3644 0.71706 0.4719 0.0
C1761 C 0.37887 0.66061 0.45648 0.0
N1762 N 0.40743 0.55359 0.46304 0.0
N1763 N 0.34487 0.76731 0.52041 0.0
C1764 C 0.39703 0.61247 0.47492 0.0
C1765 C 0.36419 0.71986 0.50534 0.0
N1766 N 0.43361 0.59596 0.52036 0.0
N1767 N 0.35105 0.76822 0.45482 0.0
H1768 H 0.34702 0.77509 0.54418 0.0
H1769 H 0.32578 0.79751 0.50952 0.0
H1770 H 0.34978 0.7675 0.43074 0.0
H1771 H 0.34371 0.81327 0.46433 0.0
H1772 H 0.45217 0.56652 0.50838 0.0
H1773 H 0.44182 0.60944 0.54254 0.0
H1774 H 0.41676 0.51493 0.47688 0.0
H1775 H 0.40481 0.54195 0.43994 0.0
C1776 C 0.99808 0.98186 0.09325 0.0
C1777 C 0.97312 0.99039 0.11829 0.0
C1778 C 0.02373 0.04216 0.148 0.0
C1779 C 0.04791 0.03851 0.12209 0.0
N1780 N 0.06087 0.97786 0.07546 0.0
N1781 N 0.96732 1.00977 0.17302 0.0
C1782 C 0.03575 1.00118 0.09607 0.0
C1783 C 0.98742 1.01559 0.14662 0.0
N1784 N 0.98639 0.95089 0.06711 0.0
N1785 N 0.03588 0.07029 0.17462 0.0
H1786 H 0.94234 0.98659 0.17306 0.0
H1787 H 0.97661 1.01998 0.1953 0.0
H1788 H 0.0626 0.08571 0.17664 0.0
H1789 H 0.01938 0.0838 0.19319 0.0
H1790 H 1.00039 0.95245 0.04606 0.0
H1791 H 0.96246 0.92315 0.0669 0.0
H1792 H 0.05506 0.94299 0.05853 0.0
H1793 H 0.08847 0.98954 0.07672 0.0
C1794 C 0.98483 0.03728 0.40196 0.0
C1795 C 0.96303 0.0459 0.37466 0.0
C1796 C 0.01249 0.98952 0.34517 0.0
C1797 C 0.0354 0.98476 0.37185 0.0
N1798 N 0.04392 1.01205 0.42561 0.0
N1799 N 0.96305 0.04423 0.31878 0.0
C1800 C 0.0215 1.01073 0.40026 0.0
C1801 C 0.97884 0.02569 0.34595 0.0
N1802 N 0.97075 0.05658 0.42978 0.0
N1803 N 0.02238 0.95798 0.31866 0.0
H1804 H 0.93994 0.07295 0.31832 0.0
H1805 H 0.97525 0.03856 0.2971 0.0
H1806 H 0.04679 0.93269 0.3169 0.0
H1807 H 1.00494 0.95129 0.29979 0.0
H1808 H 0.98194 0.0439 0.45118 0.0
H1809 H 0.94736 0.08557 0.43119 0.0
H1810 H 0.0381 0.03786 0.44582 0.0
H1811 H 0.0694 0.98913 0.42593 0.0
C1812 C 0.02956 0.03259 0.8494 0.0
C1813 C 0.04864 0.03622 0.87857 0.0
C1814 C 0.99195 0.98714 0.9026 0.0
C1815 C 0.97168 0.99172 0.87454 0.0
N1816 N 0.97317 1.01598 0.82022 0.0
N1817 N 0.04928 0.98591 0.93015 0.0
C1818 C 0.99134 1.01335 0.84775 0.0
C1819 C 0.0301 1.0052 0.9044 0.0
N1820 N 0.04866 0.04194 0.82262 0.0
N1821 N 0.97476 0.96302 0.92814 0.0
H1822 H 0.07656 0.99544 0.93449 0.0
H1823 H 0.03899 0.95394 0.9469 0.0
H1824 H 0.95128 0.93494 0.92603 0.0
H1825 H 0.98363 0.97085 0.95083 0.0
H1826 H 0.03868 0.03174 0.80054 0.0
H1827 H 0.07593 0.05472 0.82246 0.0
H1828 H 0.98278 0.03915 0.80027 0.0
H1829 H 0.94755 0.99517 0.8178 0.0
C1830 C 0.98305 1.00849 0.59166 0.0
C1831 C 0.97099 0.04123 0.61902 0.0
C1832 C 0.02923 1.00371 0.64276 0.0
C1833 C 0.04465 0.98773 0.61328 0.0
N1834 N 0.03376 0.98373 0.55778 0.0
N1835 N 0.98672 0.06984 0.67172 0.0
C1836 C 0.02108 0.99482 0.58708 0.0
C1837 C 0.99558 0.03932 0.64472 0.0
N1838 N 0.95823 0.98199 0.57176 0.0
N1839 N 0.04448 0.98017 0.66922 0.0
H1840 H 0.96262 0.09556 0.67425 0.0
H1841 H 1.00515 0.07607 0.68997 0.0
H1842 H 0.06491 0.94577 0.66834 0.0
H1843 H 0.03279 0.98522 0.69114 0.0
H1844 H 0.96579 0.95218 0.55319 0.0
H1845 H 0.93018 0.98447 0.5756 0.0
H1846 H 0.01785 0.99352 0.53818 0.0
H1847 H 0.0602 0.96758 0.553 0.0
C1848 C 0.48252 0.53408 0.14128 0.0
C1849 C 0.46998 0.50082 0.11421 0.0
C1850 C 0.52826 0.53483 0.08824 0.0
C1851 C 0.54284 0.56011 0.11661 0.0
N1852 N 0.53243 0.58026 0.17091 0.0
N1853 N 0.4771 0.4909 0.05886 0.0
C1854 C 0.51941 0.5589 0.14321 0.0
C1855 C 0.49188 0.50766 0.08686 0.0
N1856 N 0.458 0.54888 0.16409 0.0
N1857 N 0.54972 0.53581 0.06223 0.0
H1858 H 0.45219 0.46664 0.0569 0.0
H1859 H 0.48837 0.50352 0.03748 0.0
H1860 H 0.57395 0.56271 0.06075 0.0
H1861 H 0.54424 0.5086 0.04235 0.0
H1862 H 0.46364 0.58146 0.18207 0.0
H1863 H 0.43069 0.53448 0.1633 0.0
H1864 H 0.51942 0.57187 0.19207 0.0
H1865 H 0.55712 0.6044 0.17243 0.0
C1866 C 0.4886 0.55642 0.39991 0.0
C1867 C 0.46537 0.55358 0.37324 0.0
C1868 C 0.5198 0.51877 0.34301 0.0
C1869 C 0.54182 0.51201 0.37014 0.0
N1870 N 0.54552 0.52455 0.42562 0.0
N1871 N 0.45917 0.51101 0.32175 0.0
C1872 C 0.5256 0.53091 0.39897 0.0
C1873 C 0.48121 0.52962 0.34545 0.0
N1874 N 0.47603 0.58756 0.42572 0.0
N1875 N 0.53539 0.51475 0.31437 0.0
H1876 H 0.43095 0.51301 0.323 0.0
H1877 H 0.469 0.48699 0.3022 0.0
H1878 H 0.56291 0.50532 0.31125 0.0
H1879 H 0.52151 0.52664 0.29397 0.0
H1880 H 0.49161 0.59608 0.44552 0.0
H1881 H 0.4513 0.61272 0.42554 0.0
H1882 H 0.53462 0.53057 0.44773 0.0
H1883 H 0.57231 0.50723 0.42577 0.0
C1884 C 0.49273 0.53116 0.8432 0.0
C1885 C 0.46933 0.51719 0.86874 0.0
C1886 C 0.52111 0.54831 0.90341 0.0
C1887 C 0.54581 0.55356 0.87786 0.0
N1888 N 0.55425 0.52915 0.8237 0.0
N1889 N 0.45823 0.5597 0.91962 0.0
C1890 C 0.53121 0.54045 0.84777 0.0
C1891 C 0.48262 0.53803 0.89816 0.0
N1892 N 0.47798 0.5416 0.81458 0.0
N1893 N 0.53388 0.55442 0.93303 0.0
H1894 H 0.43008 0.55709 0.9162 0.0
H1895 H 0.46605 0.58524 0.93949 0.0
H1896 H 0.56098 0.56597 0.93823 0.0
H1897 H 0.51769 0.54408 0.95237 0.0
H1898 H 0.49329 0.55824 0.7957 0.0
H1899 H 0.44984 0.54247 0.8109 0.0
H1900 H 0.54531 0.51399 0.80189 0.0
H1901 H 0.58193 0.52255 0.8274 0.0
C1902 C 0.4862 0.52389 0.5898 0.0
C1903 C 0.47241 0.55194 0.61767 0.0
C1904 C 0.52588 0.50104 0.64373 0.0
C1905 C 0.54407 0.48965 0.615 0.0
N1906 N 0.53932 0.4981 0.55892 0.0
N1907 N 0.48289 0.5663 0.67257 0.0
C1908 C 0.52388 0.50533 0.58754 0.0
C1909 C 0.49379 0.54104 0.64488 0.0
N1910 N 0.46267 0.50559 0.56689 0.0
N1911 N 0.53645 0.46856 0.66972 0.0
H1912 H 0.45902 0.59326 0.67484 0.0
H1913 H 0.49914 0.56506 0.69247 0.0
H1914 H 0.52216 0.46993 0.69064 0.0
H1915 H 0.55574 0.43213 0.66859 0.0
H1916 H 0.47103 0.47828 0.54771 0.0
H1917 H 0.43444 0.51163 0.56867 0.0
H1918 H 0.5262 0.51421 0.53877 0.0
H1919 H 0.56529 0.47844 0.55539 0.0
C1920 C 0.12085 0.67008 0.0978 0.0
C1921 C 0.15491 0.69059 0.1103 0.0
C1922 C 0.15852 0.58988 0.14157 0.0
C1923 C 0.12353 0.57092 0.13034 0.0
N1924 N 0.06962 0.59418 0.09996 0.0
N1925 N 0.20342 0.6769 0.1476 0.0
C1926 C 0.10416 0.61149 0.10909 0.0
C1927 C 0.17306 0.65227 0.13312 0.0
N1928 N 0.10506 0.70568 0.07441 0.0
N1929 N 0.17791 0.54804 0.1602 0.0
H1930 H 0.21421 0.72311 0.14248 0.0
H1931 H 0.21618 0.65449 0.16644 0.0
H1932 H 0.1673 0.50379 0.16848 0.0
H1933 H 0.20529 0.55501 0.16596 0.0
H1934 H 0.08275 0.68949 0.06153 0.0
H1935 H 0.11565 0.75022 0.06642 0.0
H1936 H 0.05207 0.62531 0.08789 0.0
H1937 H 0.0575 0.54947 0.10588 0.0
C1938 C 0.85217 0.41246 0.13918 0.0
C1939 C 0.8833 0.37352 0.13261 0.0
C1940 C 0.92347 0.45867 0.15437 0.0
C1941 C 0.89217 0.49547 0.1629 0.0
N1942 N 0.82674 0.5026 0.16867 0.0
N1943 N 0.94826 0.35504 0.1367 0.0
C1944 C 0.85647 0.47106 0.1567 0.0
C1945 C 0.91886 0.39528 0.14115 0.0
N1946 N 0.8187 0.3944 0.1279 0.0
N1947 N 0.95756 0.48555 0.1577 0.0
H1948 H 0.94621 0.30999 0.12546 0.0
H1949 H 0.97414 0.36402 0.14588 0.0
H1950 H 0.96203 0.5318 0.16735 0.0
H1951 H 0.98129 0.46452 0.14885 0.0
H1952 H 0.79583 0.42481 0.12841 0.0
H1953 H 0.81441 0.35062 0.11594 0.0
H1954 H 0.80008 0.48482 0.16713 0.0
H1955 H 0.82928 0.54357 0.18293 0.0
C1956 C 0.16487 0.36666 0.38588 0.0
C1957 C 0.13538 0.33087 0.39904 0.0
C1958 C 0.09214 0.41718 0.38308 0.0
C1959 C 0.12172 0.45345 0.37042 0.0
N1960 N 0.18486 0.4585 0.35424 0.0
N1961 N 0.07202 0.32452 0.4141 0.0
C1962 C 0.15778 0.42714 0.37042 0.0
C1963 C 0.09923 0.35663 0.39849 0.0
N1964 N 0.19986 0.34387 0.38928 0.0
N1965 N 0.0571 0.43937 0.37907 0.0
H1966 H 0.07639 0.28026 0.42564 0.0
H1967 H 0.04592 0.34337 0.4176 0.0
H1968 H 0.05092 0.48441 0.36874 0.0
H1969 H 0.03387 0.41163 0.38395 0.0
H1970 H 0.22312 0.37131 0.38415 0.0
H1971 H 0.20596 0.29841 0.39922 0.0
H1972 H 0.21085 0.43935 0.35053 0.0
H1973 H 0.18057 0.50227 0.3423 0.0
C1974 C 0.90066 0.59968 0.36751 0.0
C1975 C 0.89444 0.57026 0.33808 0.0
C1976 C 0.85819 0.66628 0.32197 0.0
C1977 C 0.86113 0.69241 0.3524 0.0
N1978 N 0.88402 0.68423 0.4047 0.0
N1979 N 0.86427 0.57137 0.28838 0.0
C1980 C 0.88225 0.65926 0.3753 0.0
C1981 C 0.87258 0.60269 0.31552 0.0
N1982 N 0.92448 0.57079 0.38786 0.0
N1983 N 0.84198 0.70266 0.29908 0.0
H1984 H 0.87463 0.52526 0.28264 0.0
H1985 H 0.845 0.58856 0.27253 0.0
H1986 H 0.83023 0.74851 0.30306 0.0
H1987 H 0.84272 0.69002 0.27569 0.0
H1988 H 0.93331 0.59258 0.40835 0.0
H1989 H 0.93747 0.52625 0.38332 0.0
H1990 H 0.89483 0.65891 0.42358 0.0
H1991 H 0.873 0.72973 0.41065 0.0
C1992 C 0.91541 0.36931 0.8435 0.0
C1993 C 0.88214 0.35103 0.85817 0.0
C1994 C 0.85558 0.45596 0.84181 0.0
C1995 C 0.89052 0.47803 0.83169 0.0
N1996 N 0.9553 0.45774 0.82718 0.0
N1997 N 0.82169 0.38168 0.87522 0.0
C1998 C 0.92092 0.43517 0.8337 0.0
C1999 C 0.85248 0.39578 0.85852 0.0
N2000 N 0.94145 0.32299 0.83826 0.0
N2001 N 0.82508 0.49022 0.83365 0.0
H2002 H 0.81806 0.33733 0.88702 0.0
H2003 H 0.80107 0.41602 0.87914 0.0
H2004 H 0.82648 0.53042 0.81869 0.0
H2005 H 0.79859 0.47414 0.83845 0.0
H2006 H 0.96481 0.33113 0.82492 0.0
H2007 H 0.93709 0.27447 0.84453 0.0
H2008 H 0.97883 0.43025 0.83134 0.0
H2009 H 0.96063 0.50604 0.82041 0.0
C2010 C 0.1022 0.60309 0.87059 0.0
C2011 C 0.11754 0.5668 0.84576 0.0
C2012 C 0.16466 0.65146 0.83843 0.0
C2013 C 0.14783 0.68961 0.86194 0.0
N2014 N 0.0976 0.70782 0.89701 0.0
N2015 N 0.16029 0.5588 0.80331 0.0
C2016 C 0.11564 0.6672 0.87699 0.0
C2017 C 0.14789 0.59176 0.82884 0.0
N2018 N 0.07555 0.57534 0.88865 0.0
N2019 N 0.19728 0.67139 0.826 0.0
H2020 H 0.14964 0.51365 0.7963 0.0
H2021 H 0.17956 0.57781 0.78793 0.0
H2022 H 0.20958 0.71613 0.83151 0.0
H2023 H 0.21335 0.64202 0.81173 0.0
H2024 H 0.06608 0.5961 0.90918 0.0
H2025 H 0.06475 0.52876 0.88441 0.0
H2026 H 0.07197 0.69721 0.90628 0.0
H2027 H 0.10693 0.75486 0.90242 0.0
C2028 C 0.89306 0.6667 0.59539 0.0
C2029 C 0.86409 0.69097 0.61388 0.0
C2030 C 0.86984 0.59699 0.6492 0.0
C2031 C 0.89663 0.57007 0.62913 0.0
N2032 N 0.93004 0.57312 0.58086 0.0
N2033 N 0.82201 0.67792 0.65658 0.0
C2034 C 0.90719 0.60316 0.60155 0.0
C2035 C 0.85166 0.65578 0.64035 0.0
N2036 N 0.90772 0.7052 0.57248 0.0
N2037 N 0.8624 0.56698 0.67693 0.0
H2038 H 0.80912 0.72245 0.6517 0.0
H2039 H 0.80875 0.65054 0.67364 0.0
H2040 H 0.87417 0.52244 0.68357 0.0
H2041 H 0.84629 0.58786 0.69419 0.0
H2042 H 0.93155 0.69331 0.56053 0.0
H2043 H 0.89783 0.75193 0.56714 0.0
H2044 H 0.93535 0.5915 0.55874 0.0
H2045 H 0.94154 0.52697 0.58479 0.0
C2046 C 0.15639 0.37695 0.6094 0.0
C2047 C 0.1235 0.34291 0.60246 0.0
C2048 C 0.087 0.43565 0.62169 0.0
C2049 C 0.1199 0.46731 0.63051 0.0
N2050 N 0.18564 0.46772 0.63583 0.0
N2051 N 0.05749 0.33979 0.59944 0.0
C2052 C 0.15456 0.438 0.62506 0.0
C2053 C 0.08872 0.37246 0.60773 0.0
N2054 N 0.18928 0.35195 0.59985 0.0
N2055 N 0.05422 0.46564 0.62759 0.0
H2056 H 0.05762 0.29377 0.58917 0.0
H2057 H 0.03103 0.3574 0.602 0.0
H2058 H 0.05203 0.5114 0.63823 0.0
H2059 H 0.02877 0.44638 0.62209 0.0
H2060 H 0.21398 0.37722 0.60123 0.0
H2061 H 0.19175 0.30771 0.5879 0.0
H2062 H 0.21142 0.44612 0.63579 0.0
H2063 H 0.18538 0.51294 0.64699 0.0
C2064 C 0.62445 0.11936 0.09717 0.0
C2065 C 0.62642 0.08628 0.12616 0.0
C2066 C 0.66518 0.17444 0.14713 0.0
C2067 C 0.6614 0.20912 0.1187 0.0
N2068 N 0.63329 0.22076 0.06839 0.0
N2069 N 0.64655 0.08224 0.17943 0.0
C2070 C 0.63994 0.18319 0.09415 0.0
C2071 C 0.64625 0.11386 0.15136 0.0
N2072 N 0.6082 0.08932 0.07238 0.0
N2073 N 0.68748 0.19905 0.16982 0.0
H2074 H 0.63556 0.03542 0.1827 0.0
H2075 H 0.6563 0.10298 0.19986 0.0
H2076 H 0.70048 0.24453 0.168 0.0
H2077 H 0.69479 0.17342 0.18979 0.0
H2078 H 0.60976 0.10706 0.04974 0.0
H2079 H 0.59527 0.04376 0.07389 0.0
H2080 H 0.61452 0.20815 0.05124 0.0
H2081 H 0.64448 0.26745 0.0652 0.0
C2082 C 0.38818 0.866 0.09917 0.0
C2083 C 0.36685 0.84585 0.12505 0.0
C2084 C 0.3817 0.94899 0.1518 0.0
C2085 C 0.40061 0.97135 0.12491 0.0
N2086 N 0.41841 0.95523 0.07169 0.0
N2087 N 0.3399 0.86983 0.17473 0.0
C2088 C 0.40282 0.93096 0.09819 0.0
C2089 C 0.36276 0.8878 0.15106 0.0
N2090 N 0.39511 0.82236 0.07585 0.0
N2091 N 0.38221 0.98613 0.1782 0.0
H2092 H 0.32726 0.82393 0.17594 0.0
H2093 H 0.33153 0.90176 0.19214 0.0
H2094 H 0.39349 0.03317 0.17909 0.0
H2095 H 0.37308 0.96926 0.19965 0.0
H2096 H 0.41368 0.83113 0.058 0.0
H2097 H 0.38446 0.77481 0.07564 0.0
H2098 H 0.41746 0.93131 0.05039 0.0
H2099 H 0.43009 1.00192 0.07037 0.0
C2100 C 0.64618 0.97217 0.38655 0.0
C2101 C 0.62534 0.98534 0.3595 0.0
C2102 C 0.61154 0.86744 0.35573 0.0
C2103 C 0.63563 0.85526 0.38103 0.0
N2104 N 0.68505 0.89442 0.41284 0.0
N2105 N 0.58827 0.94467 0.3174 0.0
C2106 C 0.6562 0.90718 0.39358 0.0
C2107 C 0.60816 0.93248 0.34367 0.0
N2108 N 0.65377 1.02017 0.40739 0.0
N2109 N 0.59139 0.81733 0.34376 0.0
H2110 H 0.58208 0.99212 0.30986 0.0
H2111 H 0.57881 0.90806 0.3026 0.0
H2112 H 0.59677 0.76889 0.34955 0.0
H2113 H 0.56951 0.82373 0.32856 0.0
H2114 H 0.66403 1.00935 0.42941 0.0
H2115 H 0.64484 0.06811 0.40485 0.0
H2116 H 0.70261 0.93124 0.42072 0.0
H2117 H 0.69346 0.84662 0.418 0.0
C2118 C 0.40255 0.10933 0.31275 0.0
C2119 C 0.38088 0.06048 0.32738 0.0
C2120 C 0.34892 0.14429 0.35734 0.0
C2121 C 0.37172 0.19292 0.34417 0.0
N2122 N 0.42117 0.22352 0.31029 0.0
N2123 N 0.34377 0.03045 0.37143 0.0
C2124 C 0.39884 0.17594 0.32204 0.0
C2125 C 0.3569 0.07753 0.3519 0.0
N2126 N 0.42647 0.0915 0.28988 0.0
N2127 N 0.31964 0.16217 0.37514 0.0
H2128 H 0.35307 0.98238 0.37053 0.0
H2129 H 0.32825 0.0407 0.3911 0.0
H2130 H 0.31295 0.21121 0.3793 0.0
H2131 H 0.30002 0.12884 0.38297 0.0
H2132 H 0.44091 0.1245 0.27609 0.0
H2133 H 0.4317 0.04249 0.28441 0.0
H2134 H 0.44486 0.21435 0.29765 0.0
H2135 H 0.41577 0.27304 0.31362 0.0
C2136 C 0.36124 0.89689 0.84813 0.0
C2137 C 0.36655 0.86651 0.87745 0.0
C2138 C 0.40563 0.95831 0.89381 0.0
C2139 C 0.40047 0.98852 0.86447 0.0
N2140 N 0.37126 0.98697 0.81375 0.0
N2141 N 0.39629 0.86755 0.92793 0.0
C2142 C 0.37802 0.95804 0.84173 0.0
C2143 C 0.38919 0.8968 0.9001 0.0
N2144 N 0.33954 0.86811 0.82617 0.0
N2145 N 0.42647 0.98808 0.91605 0.0
H2146 H 0.38649 0.82136 0.93445 0.0
H2147 H 0.38649 0.82136 0.93445 0.0
H2148 H 0.43938 0.03325 0.91266 0.0
H2149 H 0.43053 0.96751 0.938 0.0
H2150 H 0.33522 0.889 0.80432 0.0
H2151 H 0.32586 0.82374 0.82972 0.0
H2152 H 0.38141 0.03282 0.80708 0.0
H2153 H 0.38141 0.03282 0.80708 0.0
C2154 C 0.59963 0.18623 0.85135 0.0
C2155 C 0.62816 0.20402 0.87197 0.0
C2156 C 0.64581 0.08993 0.87822 0.0
C2157 C 0.61936 0.07226 0.85552 0.0
N2158 N 0.57125 0.10201 0.81988 0.0
N2159 N 0.68278 0.17667 0.90037 0.0
C2160 C 0.59631 0.12013 0.84186 0.0
C2161 C 0.6527 0.15696 0.8839 0.0
N2162 N 0.57497 0.23232 0.84192 0.0
N2163 N 0.66325 0.04295 0.89526 0.0
H2164 H 0.68855 0.22595 0.90489 0.0
H2165 H 0.70379 0.14505 0.90696 0.0
H2166 H 0.65699 0.99354 0.89338 0.0
H2167 H 0.68042 0.05319 0.91394 0.0
H2168 H 0.55132 0.22224 0.82933 0.0
H2169 H 0.57741 0.28104 0.84851 0.0
H2170 H 0.55748 0.13516 0.80566 0.0
H2171 H 0.56509 0.05303 0.81503 0.0
C2172 C 0.4147 0.12129 0.61262 0.0
C2173 C 0.3984 0.08185 0.63609 0.0
C2174 C 0.34943 0.16325 0.64243 0.0
C2175 C 0.36371 0.19959 0.61702 0.0
N2176 N 0.4082 0.21172 0.57609 0.0
N2177 N 0.34827 0.06075 0.67113 0.0
C2178 C 0.39609 0.17849 0.60175 0.0
C2179 C 0.36516 0.10155 0.65033 0.0
N2180 N 0.44807 0.10409 0.60086 0.0
N2181 N 0.3217 0.18915 0.65983 0.0
H2182 H 0.35965 1.01657 0.67868 0.0
H2183 H 0.32185 0.06838 0.67938 0.0
H2184 H 0.30982 0.23462 0.65501 0.0
H2185 H 0.31263 0.1687 0.68062 0.0
H2186 H 0.46376 0.1346 0.58672 0.0
H2187 H 0.46126 0.06041 0.60677 0.0
H2188 H 0.42928 0.19536 0.56187 0.0
H2189 H 0.39559 0.25412 0.5677 0.0
C2190 C 0.64968 0.87993 0.65749 0.0
C2191 C 0.64962 0.84302 0.62958 0.0
C2192 C 0.61645 0.93131 0.60287 0.0
C2193 C 0.61472 0.96669 0.63116 0.0
N2194 N 0.62594 0.97314 0.6862 0.0
N2195 N 0.62777 0.82717 0.57736 0.0
C2196 C 0.63022 0.94043 0.65875 0.0
C2197 C 0.63148 0.86689 0.60272 0.0
N2198 N 0.66906 0.85766 0.68256 0.0
N2199 N 0.60458 0.96008 0.57598 0.0
H2200 H 0.63872 0.77993 0.57636 0.0
H2201 H 0.61138 0.8387 0.55835 0.0
H2202 H 0.59281 1.00671 0.57525 0.0
H2203 H 0.6089 0.94011 0.55407 0.0
H2204 H 0.67394 0.8854 0.70239 0.0
H2205 H 0.68222 0.81223 0.68296 0.0
H2206 H 0.63273 0.95347 0.70776 0.0
H2207 H 0.61361 1.01921 0.6877 0.0
loop_
_geom_bond_atom_site_label_1
_geom_bond_atom_site_label_2
_geom_bond_distance
_geom_bond_site_symmetry_2
_ccdc_geom_bond_type
Tb0 N31 2.660 . S
Tb0 N38 2.600 . S
Tb0 O44 2.546 1_545 S
Tb0 O45 2.610 . S
Tb0 O47 2.320 . S
Tb0 O48 2.552 1_545 S
Tb0 O49 2.413 1_545 S
Tb0 O51 2.362 . S
Tb0 O52 2.421 . S
Tb0 C64 2.833 1_545 S
C1 C4 1.432 . S
C1 C5 1.414 1_455 S
C1 N8 1.359 . S
C2 C4 1.417 1_655 S
C2 C6 1.432 . S
C2 C14 1.410 . S
C3 C5 1.444 . S
C3 C6 1.317 . S
C3 H26 0.929 . S
C4 C1 1.432 . S
C4 C2 1.417 1_455 S
C4 N12 1.360 . S
C5 C1 1.414 1_655 S
C5 C3 1.444 . S
C5 C10 1.385 . S
C6 C2 1.432 . S
C6 C3 1.317 . S
C6 H18 0.930 . S
C7 C9 1.392 . S
C7 C10 1.370 1_455 S
C7 H19 0.931 . S
N8 C1 1.359 . S
N8 C9 1.327 . S
N8 Tb11 2.600 . S
C9 C7 1.392 . S
C9 N8 1.327 . S
C9 H16 0.930 . S
C10 C5 1.385 . S
C10 C7 1.370 1_655 S
C10 H29 0.930 . S
Tb11 N8 2.600 . S
Tb11 N12 2.660 . S
Tb11 O45 2.362 . S
Tb11 O46 2.421 . S
Tb11 O50 2.546 . S
Tb11 O51 2.610 . S
Tb11 O53 2.320 . S
Tb11 O54 2.552 . S
Tb11 O55 2.413 . S
Tb11 C75 2.833 . S
N12 C4 1.360 . S
N12 Tb11 2.660 . S
N12 C13 1.305 . S
C13 N12 1.305 . S
C13 C15 1.407 1_455 S
C13 H20 0.930 . S
C14 C2 1.410 . S
C14 C15 1.345 . S
C14 H22 0.930 . S
C15 C13 1.407 1_655 S
C15 C14 1.345 . S
C15 H17 0.930 . S
H16 C9 0.930 . S
H17 C15 0.930 . S
H18 C6 0.930 . S
H19 C7 0.931 . S
H20 C13 0.930 . S
H21 C35 0.930 . S
H22 C14 0.930 . S
H23 C41 0.930 . S
H24 C32 0.930 . S
H25 C39 0.931 1_565 S
H26 C3 0.929 . S
H27 C33 0.930 . S
H28 C66 0.930 . S
H29 C10 0.930 . S
H30 C65 0.929 1_565 S
N31 Tb0 2.660 . S
N31 C32 1.305 . S
N31 C36 1.360 . S
C32 H24 0.930 . S
C32 N31 1.305 . S
C32 C35 1.407 . S
C33 H27 0.930 . S
C33 C34 1.410 . S
C33 C35 1.345 . S
C34 C33 1.410 . S
C34 C36 1.417 . S
C34 C66 1.432 . S
C35 H21 0.930 . S
C35 C32 1.407 . S
C35 C33 1.345 . S
C36 N31 1.360 . S
C36 C34 1.417 . S
C36 C40 1.432 . S
H37 C42 0.930 . S
N38 Tb0 2.600 . S
N38 C40 1.359 . S
N38 C41 1.327 . S
C39 H25 0.931 1_545 S
C39 C41 1.392 . S
C39 C42 1.370 1_545 S
C40 C36 1.432 . S
C40 N38 1.359 . S
C40 C43 1.414 . S
C41 H23 0.930 . S
C41 N38 1.327 . S
C41 C39 1.392 . S
C42 H37 0.930 . S
C42 C39 1.370 1_565 S
C42 C43 1.385 1_565 S
C43 C40 1.414 . S
C43 C42 1.385 1_545 S
C43 C65 1.444 . S
O44 Tb0 2.546 1_565 S
O44 C64 1.251 . S
O45 Tb0 2.610 . S
O45 Tb11 2.362 . S
O45 C56 1.283 . S
O46 Tb11 2.421 . S
O46 C63 1.262 . S
O47 Tb0 2.320 . S
O47 C63 1.260 . S
O48 Tb0 2.552 1_565 S
O48 C56 1.243 1_565 S
O49 Tb0 2.413 1_565 S
O49 C64 1.256 . S
O50 Tb11 2.546 . S
O50 C75 1.251 . S
O51 Tb0 2.362 . S
O51 Tb11 2.610 . S
O51 C67 1.283 . S
O52 Tb0 2.421 . S
O52 C74 1.262 . S
O53 Tb11 2.320 . S
O53 C74 1.260 . S
O54 Tb11 2.552 . S
O54 C67 1.243 . S
O55 Tb11 2.413 . S
O55 C75 1.256 . S
C56 O45 1.283 . S
C56 O48 1.243 1_545 S
C57 C59 1.382 . S
C57 C61 1.393 . S
C57 C64 1.500 . S
C58 C59 1.400 . S
C58 C60 1.384 . S
C59 C57 1.382 . S
C59 C58 1.400 . S
C59 H76 0.930 . S
C60 C58 1.384 . S
C60 C62 1.392 . S
C60 H77 0.931 . S
C61 C57 1.393 . S
C61 C62 1.401 . S
C61 H78 0.930 . S
C62 C60 1.392 . S
C62 C61 1.401 . S
C62 H79 0.930 . S
C63 O46 1.262 . S
C63 O47 1.260 . S
C64 Tb0 2.833 1_565 S
C64 O44 1.251 . S
C64 O49 1.256 . S
C64 C57 1.500 . S
C65 H30 0.929 1_545 S
C65 C43 1.444 . S
C65 C66 1.317 . S
C66 H28 0.930 . S
C66 C34 1.432 . S
C66 C65 1.317 . S
C67 O51 1.283 . S
C67 O54 1.243 . S
C68 C69 1.382 . S
C68 C72 1.393 . S
C68 C75 1.500 . S
C69 C68 1.382 . S
C69 C70 1.400 . S
C69 H80 0.930 . S
C70 C69 1.400 . S
C70 C71 1.384 . S
C71 C70 1.384 . S
C71 C73 1.392 . S
C71 H81 0.931 . S
C72 C68 1.393 . S
C72 C73 1.401 . S
C72 H82 0.930 . S
C73 C71 1.392 . S
C73 C72 1.401 . S
C73 H83 0.930 . S
C74 O52 1.262 . S
C74 O53 1.260 . S
C75 Tb11 2.833 . S
C75 O50 1.251 . S
C75 O55 1.256 . S
C75 C68 1.500 . S
H76 C59 0.930 . S
H77 C60 0.931 . S
H78 C61 0.930 . S
H79 C62 0.930 . S
H80 C69 0.930 . S
H81 C71 0.931 . S
H82 C72 0.930 . S
H83 C73 0.930 . S
Tb84 N115 2.660 . S
Tb84 N122 2.600 . S
Tb84 O128 2.546 1_565 S
Tb84 O129 2.610 . S
Tb84 O131 2.320 . S
Tb84 O132 2.552 1_565 S
Tb84 O133 2.413 1_565 S
Tb84 O135 2.362 . S
Tb84 O136 2.421 . S
Tb84 C148 2.833 1_565 S
C85 C88 1.432 . S
C85 C89 1.414 1_655 S
C85 N92 1.359 . S
C86 C88 1.417 1_455 S
C86 C90 1.432 . S
C86 C98 1.410 . S
C87 C89 1.444 . S
C87 C90 1.317 . S
C87 H110 0.929 . S
C88 C85 1.432 . S
C88 C86 1.417 1_655 S
C88 N96 1.360 . S
C89 C85 1.414 1_455 S
C89 C87 1.444 . S
C89 C94 1.385 . S
C90 C86 1.432 . S
C90 C87 1.317 . S
C90 H102 0.930 . S
C91 C93 1.392 . S
C91 C94 1.370 1_655 S
C91 H103 0.931 . S
N92 C85 1.359 . S
N92 C93 1.327 . S
N92 Tb95 2.600 . S
C93 C91 1.392 . S
C93 N92 1.327 . S
C93 H100 0.930 . S
C94 C89 1.385 . S
C94 C91 1.370 1_455 S
C94 H113 0.930 . S
Tb95 N92 2.600 . S
Tb95 N96 2.660 . S
Tb95 O129 2.362 . S
Tb95 O130 2.421 . S
Tb95 O134 2.546 . S
Tb95 O135 2.610 . S
Tb95 O137 2.320 . S
Tb95 O138 2.552 . S
Tb95 O139 2.413 . S
Tb95 C159 2.833 . S
N96 C88 1.360 . S
N96 Tb95 2.660 . S
N96 C97 1.305 . S
C97 N96 1.305 . S
C97 C99 1.407 1_655 S
C97 H104 0.930 . S
C98 C86 1.410 . S
C98 C99 1.345 . S
C98 H106 0.930 . S
C99 C97 1.407 1_455 S
C99 C98 1.345 . S
C99 H101 0.930 . S
H100 C93 0.930 . S
H101 C99 0.930 . S
H102 C90 0.930 . S
H103 C91 0.931 . S
H104 C97 0.930 . S
H105 C119 0.930 . S
H106 C98 0.930 . S
H107 C125 0.930 . S
H108 C116 0.930 . S
H109 C123 0.931 1_545 S
H110 C87 0.929 . S
H111 C117 0.930 . S
H112 C150 0.930 . S
H113 C94 0.930 . S
H114 C149 0.929 1_545 S
N115 Tb84 2.660 . S
N115 C116 1.305 . S
N115 C120 1.360 . S
C116 H108 0.930 . S
C116 N115 1.305 . S
C116 C119 1.407 . S
C117 H111 0.930 . S
C117 C118 1.410 . S
C117 C119 1.345 . S
C118 C117 1.410 . S
C118 C120 1.417 . S
C118 C150 1.432 . S
C119 H105 0.930 . S
C119 C116 1.407 . S
C119 C117 1.345 . S
C120 N115 1.360 . S
C120 C118 1.417 . S
C120 C124 1.432 . S
H121 C126 0.930 . S
N122 Tb84 2.600 . S
N122 C124 1.359 . S
N122 C125 1.327 . S
C123 H109 0.931 1_565 S
C123 C125 1.392 . S
C123 C126 1.370 1_565 S
C124 C120 1.432 . S
C124 N122 1.359 . S
C124 C127 1.414 . S
C125 H107 0.930 . S
C125 N122 1.327 . S
C125 C123 1.392 . S
C126 H121 0.930 . S
C126 C123 1.370 1_545 S
C126 C127 1.385 1_545 S
C127 C124 1.414 . S
C127 C126 1.385 1_565 S
C127 C149 1.444 . S
O128 Tb84 2.546 1_545 S
O128 C148 1.251 . S
O129 Tb84 2.610 . S
O129 Tb95 2.362 . S
O129 C140 1.283 . S
O130 Tb95 2.421 . S
O130 C147 1.262 . S
O131 Tb84 2.320 . S
O131 C147 1.260 . S
O132 Tb84 2.552 1_545 S
O132 C140 1.243 1_545 S
O133 Tb84 2.413 1_545 S
O133 C148 1.256 . S
O134 Tb95 2.546 . S
O134 C159 1.251 . S
O135 Tb84 2.362 . S
O135 Tb95 2.610 . S
O135 C151 1.283 . S
O136 Tb84 2.421 . S
O136 C158 1.262 . S
O137 Tb95 2.320 . S
O137 C158 1.260 . S
O138 Tb95 2.552 . S
O138 C151 1.243 . S
O139 Tb95 2.413 . S
O139 C159 1.256 . S
C140 O129 1.283 . S
C140 O132 1.243 1_565 S
C141 C143 1.382 . S
C141 C145 1.393 . S
C141 C148 1.500 . S
C142 C143 1.400 . S
C142 C144 1.384 . S
C143 C141 1.382 . S
C143 C142 1.400 . S
C143 H160 0.930 . S
C144 C142 1.384 . S
C144 C146 1.392 . S
C144 H161 0.931 . S
C145 C141 1.393 . S
C145 C146 1.401 . S
C145 H162 0.930 . S
C146 C144 1.392 . S
C146 C145 1.401 . S
C146 H163 0.930 . S
C147 O130 1.262 . S
C147 O131 1.260 . S
C148 Tb84 2.833 1_545 S
C148 O128 1.251 . S
C148 O133 1.256 . S
C148 C141 1.500 . S
C149 H114 0.929 1_565 S
C149 C127 1.444 . S
C149 C150 1.317 . S
C150 H112 0.930 . S
C150 C118 1.432 . S
C150 C149 1.317 . S
C151 O135 1.283 . S
C151 O138 1.243 . S
C152 C153 1.382 . S
C152 C156 1.393 . S
C152 C159 1.500 . S
C153 C152 1.382 . S
C153 C154 1.400 . S
C153 H164 0.930 . S
C154 C153 1.400 . S
C154 C155 1.384 . S
C155 C154 1.384 . S
C155 C157 1.392 . S
C155 H165 0.931 . S
C156 C152 1.393 . S
C156 C157 1.401 . S
C156 H166 0.930 . S
C157 C155 1.392 . S
C157 C156 1.401 . S
C157 H167 0.930 . S
C158 O136 1.262 . S
C158 O137 1.260 . S
C159 Tb95 2.833 . S
C159 O134 1.251 . S
C159 O139 1.256 . S
C159 C152 1.500 . S
H160 C143 0.930 . S
H161 C144 0.931 . S
H162 C145 0.930 . S
H163 C146 0.930 . S
H164 C153 0.930 . S
H165 C155 0.931 . S
H166 C156 0.930 . S
H167 C157 0.930 . S
Tb168 N199 2.660 . S
Tb168 N206 2.600 . S
Tb168 O212 2.546 1_565 S
Tb168 O213 2.610 . S
Tb168 O215 2.320 . S
Tb168 O216 2.552 1_565 S
Tb168 O217 2.413 1_565 S
Tb168 O219 2.362 . S
Tb168 O220 2.421 . S
Tb168 C232 2.833 1_565 S
C169 C172 1.432 . S
C169 C173 1.414 1_455 S
C169 N176 1.359 . S
C170 C172 1.417 1_655 S
C170 C174 1.432 . S
C170 C182 1.410 . S
C171 C173 1.444 . S
C171 C174 1.317 . S
C171 H194 0.929 . S
C172 C169 1.432 . S
C172 C170 1.417 1_455 S
C172 N180 1.360 . S
C173 C169 1.414 1_655 S
C173 C171 1.444 . S
C173 C178 1.385 . S
C174 C170 1.432 . S
C174 C171 1.317 . S
C174 H186 0.930 . S
C175 C177 1.392 . S
C175 C178 1.370 1_455 S
C175 H187 0.931 . S
N176 C169 1.359 . S
N176 C177 1.327 . S
N176 Tb179 2.600 . S
C177 C175 1.392 . S
C177 N176 1.327 . S
C177 H184 0.930 . S
C178 C173 1.385 . S
C178 C175 1.370 1_655 S
C178 H197 0.930 . S
Tb179 N176 2.600 . S
Tb179 N180 2.660 . S
Tb179 O213 2.362 . S
Tb179 O214 2.421 . S
Tb179 O218 2.546 . S
Tb179 O219 2.610 . S
Tb179 O221 2.320 . S
Tb179 O222 2.552 . S
Tb179 O223 2.413 . S
Tb179 C243 2.833 . S
N180 C172 1.360 . S
N180 Tb179 2.660 . S
N180 C181 1.305 . S
C181 N180 1.305 . S
C181 C183 1.407 1_455 S
C181 H188 0.930 . S
C182 C170 1.410 . S
C182 C183 1.345 . S
C182 H190 0.930 . S
C183 C181 1.407 1_655 S
C183 C182 1.345 . S
C183 H185 0.930 . S
H184 C177 0.930 . S
H185 C183 0.930 . S
H186 C174 0.930 . S
H187 C175 0.931 . S
H188 C181 0.930 . S
H189 C203 0.930 . S
H190 C182 0.930 . S
H191 C209 0.930 . S
H192 C200 0.930 . S
H193 C207 0.931 1_545 S
H194 C171 0.929 . S
H195 C201 0.930 . S
H196 C234 0.930 . S
H197 C178 0.930 . S
H198 C233 0.929 1_545 S
N199 Tb168 2.660 . S
N199 C200 1.305 . S
N199 C204 1.360 . S
C200 H192 0.930 . S
C200 N199 1.305 . S
C200 C203 1.407 . S
C201 H195 0.930 . S
C201 C202 1.410 . S
C201 C203 1.345 . S
C202 C201 1.410 . S
C202 C204 1.417 . S
C202 C234 1.432 . S
C203 H189 0.930 . S
C203 C200 1.407 . S
C203 C201 1.345 . S
C204 N199 1.360 . S
C204 C202 1.417 . S
C204 C208 1.432 . S
H205 C210 0.930 . S
N206 Tb168 2.600 . S
N206 C208 1.359 . S
N206 C209 1.327 . S
C207 H193 0.931 1_565 S
C207 C209 1.392 . S
C207 C210 1.370 1_565 S
C208 C204 1.432 . S
C208 N206 1.359 . S
C208 C211 1.414 . S
C209 H191 0.930 . S
C209 N206 1.327 . S
C209 C207 1.392 . S
C210 H205 0.930 . S
C210 C207 1.370 1_545 S
C210 C211 1.385 1_545 S
C211 C208 1.414 . S
C211 C210 1.385 1_565 S
C211 C233 1.444 . S
O212 Tb168 2.546 1_545 S
O212 C232 1.251 . S
O213 Tb168 2.610 . S
O213 Tb179 2.362 . S
O213 C224 1.283 . S
O214 Tb179 2.421 . S
O214 C231 1.262 . S
O215 Tb168 2.320 . S
O215 C231 1.260 . S
O216 Tb168 2.552 1_545 S
O216 C224 1.243 1_545 S
O217 Tb168 2.413 1_545 S
O217 C232 1.256 . S
O218 Tb179 2.546 . S
O218 C243 1.251 . S
O219 Tb168 2.362 . S
O219 Tb179 2.610 . S
O219 C235 1.283 . S
O220 Tb168 2.421 . S
O220 C242 1.262 . S
O221 Tb179 2.320 . S
O221 C242 1.260 . S
O222 Tb179 2.552 . S
O222 C235 1.243 . S
O223 Tb179 2.413 . S
O223 C243 1.256 . S
C224 O213 1.283 . S
C224 O216 1.243 1_565 S
C225 C227 1.382 . S
C225 C229 1.393 . S
C225 C232 1.500 . S
C226 C227 1.400 . S
C226 C228 1.384 . S
C227 C225 1.382 . S
C227 C226 1.400 . S
C227 H244 0.930 . S
C228 C226 1.384 . S
C228 C230 1.392 . S
C228 H245 0.931 . S
C229 C225 1.393 . S
C229 C230 1.401 . S
C229 H246 0.930 . S
C230 C228 1.392 . S
C230 C229 1.401 . S
C230 H247 0.930 . S
C231 O214 1.262 . S
C231 O215 1.260 . S
C232 Tb168 2.833 1_545 S
C232 O212 1.251 . S
C232 O217 1.256 . S
C232 C225 1.500 . S
C233 H198 0.929 1_565 S
C233 C211 1.444 . S
C233 C234 1.317 . S
C234 H196 0.930 . S
C234 C202 1.432 . S
C234 C233 1.317 . S
C235 O219 1.283 . S
C235 O222 1.243 . S
C236 C237 1.382 . S
C236 C240 1.393 . S
C236 C243 1.500 . S
C237 C236 1.382 . S
C237 C238 1.400 . S
C237 H248 0.930 . S
C238 C237 1.400 . S
C238 C239 1.384 . S
C239 C238 1.384 . S
C239 C241 1.392 . S
C239 H249 0.931 . S
C240 C236 1.393 . S
C240 C241 1.401 . S
C240 H250 0.930 . S
C241 C239 1.392 . S
C241 C240 1.401 . S
C241 H251 0.930 . S
C242 O220 1.262 . S
C242 O221 1.260 . S
C243 Tb179 2.833 . S
C243 O218 1.251 . S
C243 O223 1.256 . S
C243 C236 1.500 . S
H244 C227 0.930 . S
H245 C228 0.931 . S
H246 C229 0.930 . S
H247 C230 0.930 . S
H248 C237 0.930 . S
H249 C239 0.931 . S
H250 C240 0.930 . S
H251 C241 0.930 . S
Tb252 N283 2.660 . S
Tb252 N290 2.600 . S
Tb252 O296 2.546 1_545 S
Tb252 O297 2.610 . S
Tb252 O299 2.320 . S
Tb252 O300 2.552 1_545 S
Tb252 O301 2.413 1_545 S
Tb252 O303 2.362 . S
Tb252 O304 2.421 . S
Tb252 C316 2.833 1_545 S
C253 C256 1.432 . S
C253 C257 1.414 1_655 S
C253 N260 1.359 . S
C254 C256 1.417 1_455 S
C254 C258 1.432 . S
C254 C266 1.410 . S
C255 C257 1.444 . S
C255 C258 1.317 . S
C255 H278 0.929 . S
C256 C253 1.432 . S
C256 C254 1.417 1_655 S
C256 N264 1.360 . S
C257 C253 1.414 1_455 S
C257 C255 1.444 . S
C257 C262 1.385 . S
C258 C254 1.432 . S
C258 C255 1.317 . S
C258 H270 0.930 . S
C259 C261 1.392 . S
C259 C262 1.370 1_655 S
C259 H271 0.931 . S
N260 C253 1.359 . S
N260 C261 1.327 . S
N260 Tb263 2.600 . S
C261 C259 1.392 . S
C261 N260 1.327 . S
C261 H268 0.930 . S
C262 C257 1.385 . S
C262 C259 1.370 1_455 S
C262 H281 0.930 . S
Tb263 N260 2.600 . S
Tb263 N264 2.660 . S
Tb263 O297 2.362 . S
Tb263 O298 2.421 . S
Tb263 O302 2.546 . S
Tb263 O303 2.610 . S
Tb263 O305 2.320 . S
Tb263 O306 2.552 . S
Tb263 O307 2.413 . S
Tb263 C327 2.833 . S
N264 C256 1.360 . S
N264 Tb263 2.660 . S
N264 C265 1.305 . S
C265 N264 1.305 . S
C265 C267 1.407 1_655 S
C265 H272 0.930 . S
C266 C254 1.410 . S
C266 C267 1.345 . S
C266 H274 0.930 . S
C267 C265 1.407 1_455 S
C267 C266 1.345 . S
C267 H269 0.930 . S
H268 C261 0.930 . S
H269 C267 0.930 . S
H270 C258 0.930 . S
H271 C259 0.931 . S
H272 C265 0.930 . S
H273 C287 0.930 . S
H274 C266 0.930 . S
H275 C293 0.930 . S
H276 C284 0.930 . S
H277 C291 0.931 1_565 S
H278 C255 0.929 . S
H279 C285 0.930 . S
H280 C318 0.930 . S
H281 C262 0.930 . S
H282 C317 0.929 1_565 S
N283 Tb252 2.660 . S
N283 C284 1.305 . S
N283 C288 1.360 . S
C284 H276 0.930 . S
C284 N283 1.305 . S
C284 C287 1.407 . S
C285 H279 0.930 . S
C285 C286 1.410 . S
C285 C287 1.345 . S
C286 C285 1.410 . S
C286 C288 1.417 . S
C286 C318 1.432 . S
C287 H273 0.930 . S
C287 C284 1.407 . S
C287 C285 1.345 . S
C288 N283 1.360 . S
C288 C286 1.417 . S
C288 C292 1.432 . S
H289 C294 0.930 . S
N290 Tb252 2.600 . S
N290 C292 1.359 . S
N290 C293 1.327 . S
C291 H277 0.931 1_545 S
C291 C293 1.392 . S
C291 C294 1.370 1_545 S
C292 C288 1.432 . S
C292 N290 1.359 . S
C292 C295 1.414 . S
C293 H275 0.930 . S
C293 N290 1.327 . S
C293 C291 1.392 . S
C294 H289 0.930 . S
C294 C291 1.370 1_565 S
C294 C295 1.385 1_565 S
C295 C292 1.414 . S
C295 C294 1.385 1_545 S
C295 C317 1.444 . S
O296 Tb252 2.546 1_565 S
O296 C316 1.251 . S
O297 Tb252 2.610 . S
O297 Tb263 2.362 . S
O297 C308 1.283 . S
O298 Tb263 2.421 . S
O298 C315 1.262 . S
O299 Tb252 2.320 . S
O299 C315 1.260 . S
O300 Tb252 2.552 1_565 S
O300 C308 1.243 1_565 S
O301 Tb252 2.413 1_565 S
O301 C316 1.256 . S
O302 Tb263 2.546 . S
O302 C327 1.251 . S
O303 Tb252 2.362 . S
O303 Tb263 2.610 . S
O303 C319 1.283 . S
O304 Tb252 2.421 . S
O304 C326 1.262 . S
O305 Tb263 2.320 . S
O305 C326 1.260 . S
O306 Tb263 2.552 . S
O306 C319 1.243 . S
O307 Tb263 2.413 . S
O307 C327 1.256 . S
C308 O297 1.283 . S
C308 O300 1.243 1_545 S
C309 C311 1.382 . S
C309 C313 1.393 . S
C309 C316 1.500 . S
C310 C311 1.400 . S
C310 C312 1.384 . S
C311 C309 1.382 . S
C311 C310 1.400 . S
C311 H328 0.930 . S
C312 C310 1.384 . S
C312 C314 1.392 . S
C312 H329 0.931 . S
C313 C309 1.393 . S
C313 C314 1.401 . S
C313 H330 0.930 . S
C314 C312 1.392 . S
C314 C313 1.401 . S
C314 H331 0.930 . S
C315 O298 1.262 . S
C315 O299 1.260 . S
C316 Tb252 2.833 1_565 S
C316 O296 1.251 . S
C316 O301 1.256 . S
C316 C309 1.500 . S
C317 H282 0.929 1_545 S
C317 C295 1.444 . S
C317 C318 1.317 . S
C318 H280 0.930 . S
C318 C286 1.432 . S
C318 C317 1.317 . S
C319 O303 1.283 . S
C319 O306 1.243 . S
C320 C321 1.382 . S
C320 C324 1.393 . S
C320 C327 1.500 . S
C321 C320 1.382 . S
C321 C322 1.400 . S
C321 H332 0.930 . S
C322 C321 1.400 . S
C322 C323 1.384 . S
C323 C322 1.384 . S
C323 C325 1.392 . S
C323 H333 0.931 . S
C324 C320 1.393 . S
C324 C325 1.401 . S
C324 H334 0.930 . S
C325 C323 1.392 . S
C325 C324 1.401 . S
C325 H335 0.930 . S
C326 O304 1.262 . S
C326 O305 1.260 . S
C327 Tb263 2.833 . S
C327 O302 1.251 . S
C327 O307 1.256 . S
C327 C320 1.500 . S
H328 C311 0.930 . S
H329 C312 0.931 . S
H330 C313 0.930 . S
H331 C314 0.930 . S
H332 C321 0.930 . S
H333 C323 0.931 . S
H334 C324 0.930 . S
H335 C325 0.930 . S
Tb336 N367 2.660 . S
Tb336 N374 2.600 . S
Tb336 O380 2.546 . S
Tb336 O381 2.610 . S
Tb336 O383 2.320 . S
Tb336 O384 2.552 . S
Tb336 O385 2.413 . S
Tb336 O387 2.362 . S
Tb336 O388 2.421 . S
Tb336 C400 2.833 . S
C337 C340 1.432 . S
C337 C341 1.414 . S
C337 N344 1.359 . S
C338 C340 1.417 . S
C338 C342 1.432 . S
C338 C350 1.410 . S
C339 C341 1.444 . S
C339 C342 1.317 . S
C339 H362 0.929 1_565 S
C340 C337 1.432 . S
C340 C338 1.417 . S
C340 N348 1.360 . S
C341 C337 1.414 . S
C341 C339 1.444 . S
C341 C346 1.385 1_565 S
C342 C338 1.432 . S
C342 C339 1.317 . S
C342 H354 0.930 . S
C343 C345 1.392 . S
C343 C346 1.370 1_565 S
C343 H355 0.931 1_565 S
N344 C337 1.359 . S
N344 C345 1.327 . S
N344 Tb347 2.600 . S
C345 C343 1.392 . S
C345 N344 1.327 . S
C345 H352 0.930 . S
C346 C341 1.385 1_545 S
C346 C343 1.370 1_545 S
C346 H365 0.930 . S
Tb347 N344 2.600 . S
Tb347 N348 2.660 . S
Tb347 O381 2.362 . S
Tb347 O382 2.421 . S
Tb347 O386 2.546 1_565 S
Tb347 O387 2.610 . S
Tb347 O389 2.320 . S
Tb347 O390 2.552 1_565 S
Tb347 O391 2.413 1_565 S
Tb347 C411 2.833 1_565 S
N348 C340 1.360 . S
N348 Tb347 2.660 . S
N348 C349 1.305 . S
C349 N348 1.305 . S
C349 C351 1.407 . S
C349 H356 0.930 . S
C350 C338 1.410 . S
C350 C351 1.345 . S
C350 H358 0.930 . S
C351 C349 1.407 . S
C351 C350 1.345 . S
C351 H353 0.930 . S
H352 C345 0.930 . S
H353 C351 0.930 . S
H354 C342 0.930 . S
H355 C343 0.931 1_545 S
H356 C349 0.930 . S
H357 C371 0.930 . S
H358 C350 0.930 . S
H359 C377 0.930 . S
H360 C368 0.930 . S
H361 C375 0.931 . S
H362 C339 0.929 1_545 S
H363 C369 0.930 . S
H364 C402 0.930 . S
H365 C346 0.930 . S
H366 C401 0.929 . S
N367 Tb336 2.660 . S
N367 C368 1.305 . S
N367 C372 1.360 . S
C368 H360 0.930 . S
C368 N367 1.305 . S
C368 C371 1.407 1_655 S
C369 H363 0.930 . S
C369 C370 1.410 . S
C369 C371 1.345 . S
C370 C369 1.410 . S
C370 C372 1.417 1_455 S
C370 C402 1.432 . S
C371 H357 0.930 . S
C371 C368 1.407 1_455 S
C371 C369 1.345 . S
C372 N367 1.360 . S
C372 C370 1.417 1_655 S
C372 C376 1.432 . S
H373 C378 0.930 . S
N374 Tb336 2.600 . S
N374 C376 1.359 . S
N374 C377 1.327 . S
C375 H361 0.931 . S
C375 C377 1.392 . S
C375 C378 1.370 1_655 S
C376 C372 1.432 . S
C376 N374 1.359 . S
C376 C379 1.414 1_655 S
C377 H359 0.930 . S
C377 N374 1.327 . S
C377 C375 1.392 . S
C378 H373 0.930 . S
C378 C375 1.370 1_455 S
C378 C379 1.385 . S
C379 C376 1.414 1_455 S
C379 C378 1.385 . S
C379 C401 1.444 . S
O380 Tb336 2.546 . S
O380 C400 1.251 . S
O381 Tb336 2.610 . S
O381 Tb347 2.362 . S
O381 C392 1.283 . S
O382 Tb347 2.421 . S
O382 C399 1.262 . S
O383 Tb336 2.320 . S
O383 C399 1.260 . S
O384 Tb336 2.552 . S
O384 C392 1.243 . S
O385 Tb336 2.413 . S
O385 C400 1.256 . S
O386 Tb347 2.546 1_545 S
O386 C411 1.251 . S
O387 Tb336 2.362 . S
O387 Tb347 2.610 . S
O387 C403 1.283 . S
O388 Tb336 2.421 . S
O388 C410 1.262 . S
O389 Tb347 2.320 . S
O389 C410 1.260 . S
O390 Tb347 2.552 1_545 S
O390 C403 1.243 1_545 S
O391 Tb347 2.413 1_545 S
O391 C411 1.256 . S
C392 O381 1.283 . S
C392 O384 1.243 . S
C393 C395 1.382 . S
C393 C397 1.393 . S
C393 C400 1.500 . S
C394 C395 1.400 . S
C394 C396 1.384 . S
C395 C393 1.382 . S
C395 C394 1.400 . S
C395 H412 0.930 . S
C396 C394 1.384 . S
C396 C398 1.392 . S
C396 H413 0.931 . S
C397 C393 1.393 . S
C397 C398 1.401 . S
C397 H414 0.930 . S
C398 C396 1.392 . S
C398 C397 1.401 . S
C398 H415 0.930 . S
C399 O382 1.262 . S
C399 O383 1.260 . S
C400 Tb336 2.833 . S
C400 O380 1.251 . S
C400 O385 1.256 . S
C400 C393 1.500 . S
C401 H366 0.929 . S
C401 C379 1.444 . S
C401 C402 1.317 . S
C402 H364 0.930 . S
C402 C370 1.432 . S
C402 C401 1.317 . S
C403 O387 1.283 . S
C403 O390 1.243 1_565 S
C404 C405 1.382 . S
C404 C408 1.393 . S
C404 C411 1.500 . S
C405 C404 1.382 . S
C405 C406 1.400 . S
C405 H416 0.930 . S
C406 C405 1.400 . S
C406 C407 1.384 . S
C407 C406 1.384 . S
C407 C409 1.392 . S
C407 H417 0.931 . S
C408 C404 1.393 . S
C408 C409 1.401 . S
C408 H418 0.930 . S
C409 C407 1.392 . S
C409 C408 1.401 . S
C409 H419 0.930 . S
C410 O388 1.262 . S
C410 O389 1.260 . S
C411 Tb347 2.833 1_545 S
C411 O386 1.251 . S
C411 O391 1.256 . S
C411 C404 1.500 . S
H412 C395 0.930 . S
H413 C396 0.931 . S
H414 C397 0.930 . S
H415 C398 0.930 . S
H416 C405 0.930 . S
H417 C407 0.931 . S
H418 C408 0.930 . S
H419 C409 0.930 . S
Tb420 N451 2.660 . S
Tb420 N458 2.600 . S
Tb420 O464 2.546 . S
Tb420 O465 2.610 . S
Tb420 O467 2.320 . S
Tb420 O468 2.552 . S
Tb420 O469 2.413 . S
Tb420 O471 2.362 . S
Tb420 O472 2.421 . S
Tb420 C484 2.833 . S
C421 C424 1.432 . S
C421 C425 1.414 . S
C421 N428 1.359 . S
C422 C424 1.417 . S
C422 C426 1.432 . S
C422 C434 1.410 . S
C423 C425 1.444 . S
C423 C426 1.317 . S
C423 H446 0.929 1_545 S
C424 C421 1.432 . S
C424 C422 1.417 . S
C424 N432 1.360 . S
C425 C421 1.414 . S
C425 C423 1.444 . S
C425 C430 1.385 1_545 S
C426 C422 1.432 . S
C426 C423 1.317 . S
C426 H438 0.930 . S
C427 C429 1.392 . S
C427 C430 1.370 1_545 S
C427 H439 0.931 1_545 S
N428 C421 1.359 . S
N428 C429 1.327 . S
N428 Tb431 2.600 . S
C429 C427 1.392 . S
C429 N428 1.327 . S
C429 H436 0.930 . S
C430 C425 1.385 1_565 S
C430 C427 1.370 1_565 S
C430 H449 0.930 . S
Tb431 N428 2.600 . S
Tb431 N432 2.660 . S
Tb431 O465 2.362 . S
Tb431 O466 2.421 . S
Tb431 O470 2.546 1_545 S
Tb431 O471 2.610 . S
Tb431 O473 2.320 . S
Tb431 O474 2.552 1_545 S
Tb431 O475 2.413 1_545 S
Tb431 C495 2.833 1_545 S
N432 C424 1.360 . S
N432 Tb431 2.660 . S
N432 C433 1.305 . S
C433 N432 1.305 . S
C433 C435 1.407 . S
C433 H440 0.930 . S
C434 C422 1.410 . S
C434 C435 1.345 . S
C434 H442 0.930 . S
C435 C433 1.407 . S
C435 C434 1.345 . S
C435 H437 0.930 . S
H436 C429 0.930 . S
H437 C435 0.930 . S
H438 C426 0.930 . S
H439 C427 0.931 1_565 S
H440 C433 0.930 . S
H441 C455 0.930 . S
H442 C434 0.930 . S
H443 C461 0.930 . S
H444 C452 0.930 . S
H445 C459 0.931 . S
H446 C423 0.929 1_565 S
H447 C453 0.930 . S
H448 C486 0.930 . S
H449 C430 0.930 . S
H450 C485 0.929 . S
N451 Tb420 2.660 . S
N451 C452 1.305 . S
N451 C456 1.360 . S
C452 H444 0.930 . S
C452 N451 1.305 . S
C452 C455 1.407 1_455 S
C453 H447 0.930 . S
C453 C454 1.410 . S
C453 C455 1.345 . S
C454 C453 1.410 . S
C454 C456 1.417 1_655 S
C454 C486 1.432 . S
C455 H441 0.930 . S
C455 C452 1.407 1_655 S
C455 C453 1.345 . S
C456 N451 1.360 . S
C456 C454 1.417 1_455 S
C456 C460 1.432 . S
H457 C462 0.930 . S
N458 Tb420 2.600 . S
N458 C460 1.359 . S
N458 C461 1.327 . S
C459 H445 0.931 . S
C459 C461 1.392 . S
C459 C462 1.370 1_455 S
C460 C456 1.432 . S
C460 N458 1.359 . S
C460 C463 1.414 1_455 S
C461 H443 0.930 . S
C461 N458 1.327 . S
C461 C459 1.392 . S
C462 H457 0.930 . S
C462 C459 1.370 1_655 S
C462 C463 1.385 . S
C463 C460 1.414 1_655 S
C463 C462 1.385 . S
C463 C485 1.444 . S
O464 Tb420 2.546 . S
O464 C484 1.251 . S
O465 Tb420 2.610 . S
O465 Tb431 2.362 . S
O465 C476 1.283 . S
O466 Tb431 2.421 . S
O466 C483 1.262 . S
O467 Tb420 2.320 . S
O467 C483 1.260 . S
O468 Tb420 2.552 . S
O468 C476 1.243 . S
O469 Tb420 2.413 . S
O469 C484 1.256 . S
O470 Tb431 2.546 1_565 S
O470 C495 1.251 . S
O471 Tb420 2.362 . S
O471 Tb431 2.610 . S
O471 C487 1.283 . S
O472 Tb420 2.421 . S
O472 C494 1.262 . S
O473 Tb431 2.320 . S
O473 C494 1.260 . S
O474 Tb431 2.552 1_565 S
O474 C487 1.243 1_565 S
O475 Tb431 2.413 1_565 S
O475 C495 1.256 . S
C476 O465 1.283 . S
C476 O468 1.243 . S
C477 C479 1.382 . S
C477 C481 1.393 . S
C477 C484 1.500 . S
C478 C479 1.400 . S
C478 C480 1.384 . S
C479 C477 1.382 . S
C479 C478 1.400 . S
C479 H496 0.930 . S
C480 C478 1.384 . S
C480 C482 1.392 . S
C480 H497 0.931 . S
C481 C477 1.393 . S
C481 C482 1.401 . S
C481 H498 0.930 . S
C482 C480 1.392 . S
C482 C481 1.401 . S
C482 H499 0.930 . S
C483 O466 1.262 . S
C483 O467 1.260 . S
C484 Tb420 2.833 . S
C484 O464 1.251 . S
C484 O469 1.256 . S
C484 C477 1.500 . S
C485 H450 0.929 . S
C485 C463 1.444 . S
C485 C486 1.317 . S
C486 H448 0.930 . S
C486 C454 1.432 . S
C486 C485 1.317 . S
C487 O471 1.283 . S
C487 O474 1.243 1_545 S
C488 C489 1.382 . S
C488 C492 1.393 . S
C488 C495 1.500 . S
C489 C488 1.382 . S
C489 C490 1.400 . S
C489 H500 0.930 . S
C490 C489 1.400 . S
C490 C491 1.384 . S
C491 C490 1.384 . S
C491 C493 1.392 . S
C491 H501 0.931 . S
C492 C488 1.393 . S
C492 C493 1.401 . S
C492 H502 0.930 . S
C493 C491 1.392 . S
C493 C492 1.401 . S
C493 H503 0.930 . S
C494 O472 1.262 . S
C494 O473 1.260 . S
C495 Tb431 2.833 1_565 S
C495 O470 1.251 . S
C495 O475 1.256 . S
C495 C488 1.500 . S
H496 C479 0.930 . S
H497 C480 0.931 . S
H498 C481 0.930 . S
H499 C482 0.930 . S
H500 C489 0.930 . S
H501 C491 0.931 . S
H502 C492 0.930 . S
H503 C493 0.930 . S
Tb504 N535 2.660 . S
Tb504 N542 2.600 . S
Tb504 O548 2.546 . S
Tb504 O549 2.610 . S
Tb504 O551 2.320 . S
Tb504 O552 2.552 . S
Tb504 O553 2.413 . S
Tb504 O555 2.362 . S
Tb504 O556 2.421 . S
Tb504 C568 2.833 . S
C505 C508 1.432 . S
C505 C509 1.414 . S
C505 N512 1.359 . S
C506 C508 1.417 . S
C506 C510 1.432 . S
C506 C518 1.410 . S
C507 C509 1.444 . S
C507 C510 1.317 . S
C507 H530 0.929 1_545 S
C508 C505 1.432 . S
C508 C506 1.417 . S
C508 N516 1.360 . S
C509 C505 1.414 . S
C509 C507 1.444 . S
C509 C514 1.385 1_545 S
C510 C506 1.432 . S
C510 C507 1.317 . S
C510 H522 0.930 . S
C511 C513 1.392 . S
C511 C514 1.370 1_545 S
C511 H523 0.931 1_545 S
N512 C505 1.359 . S
N512 C513 1.327 . S
N512 Tb515 2.600 . S
C513 C511 1.392 . S
C513 N512 1.327 . S
C513 H520 0.930 . S
C514 C509 1.385 1_565 S
C514 C511 1.370 1_565 S
C514 H533 0.930 . S
Tb515 N512 2.600 . S
Tb515 N516 2.660 . S
Tb515 O549 2.362 . S
Tb515 O550 2.421 . S
Tb515 O554 2.546 1_545 S
Tb515 O555 2.610 . S
Tb515 O557 2.320 . S
Tb515 O558 2.552 1_545 S
Tb515 O559 2.413 1_545 S
Tb515 C579 2.833 1_545 S
N516 C508 1.360 . S
N516 Tb515 2.660 . S
N516 C517 1.305 . S
C517 N516 1.305 . S
C517 C519 1.407 . S
C517 H524 0.930 . S
C518 C506 1.410 . S
C518 C519 1.345 . S
C518 H526 0.930 . S
C519 C517 1.407 . S
C519 C518 1.345 . S
C519 H521 0.930 . S
H520 C513 0.930 . S
H521 C519 0.930 . S
H522 C510 0.930 . S
H523 C511 0.931 1_565 S
H524 C517 0.930 . S
H525 C539 0.930 . S
H526 C518 0.930 . S
H527 C545 0.930 . S
H528 C536 0.930 . S
H529 C543 0.931 . S
H530 C507 0.929 1_565 S
H531 C537 0.930 . S
H532 C570 0.930 . S
H533 C514 0.930 . S
H534 C569 0.929 . S
N535 Tb504 2.660 . S
N535 C536 1.305 . S
N535 C540 1.360 . S
C536 H528 0.930 . S
C536 N535 1.305 . S
C536 C539 1.407 1_655 S
C537 H531 0.930 . S
C537 C538 1.410 . S
C537 C539 1.345 . S
C538 C537 1.410 . S
C538 C540 1.417 1_455 S
C538 C570 1.432 . S
C539 H525 0.930 . S
C539 C536 1.407 1_455 S
C539 C537 1.345 . S
C540 N535 1.360 . S
C540 C538 1.417 1_655 S
C540 C544 1.432 . S
H541 C546 0.930 . S
N542 Tb504 2.600 . S
N542 C544 1.359 . S
N542 C545 1.327 . S
C543 H529 0.931 . S
C543 C545 1.392 . S
C543 C546 1.370 1_655 S
C544 C540 1.432 . S
C544 N542 1.359 . S
C544 C547 1.414 1_655 S
C545 H527 0.930 . S
C545 N542 1.327 . S
C545 C543 1.392 . S
C546 H541 0.930 . S
C546 C543 1.370 1_455 S
C546 C547 1.385 . S
C547 C544 1.414 1_455 S
C547 C546 1.385 . S
C547 C569 1.444 . S
O548 Tb504 2.546 . S
O548 C568 1.251 . S
O549 Tb504 2.610 . S
O549 Tb515 2.362 . S
O549 C560 1.283 . S
O550 Tb515 2.421 . S
O550 C567 1.262 . S
O551 Tb504 2.320 . S
O551 C567 1.260 . S
O552 Tb504 2.552 . S
O552 C560 1.243 . S
O553 Tb504 2.413 . S
O553 C568 1.256 . S
O554 Tb515 2.546 1_565 S
O554 C579 1.251 . S
O555 Tb504 2.362 . S
O555 Tb515 2.610 . S
O555 C571 1.283 . S
O556 Tb504 2.421 . S
O556 C578 1.262 . S
O557 Tb515 2.320 . S
O557 C578 1.260 . S
O558 Tb515 2.552 1_565 S
O558 C571 1.243 1_565 S
O559 Tb515 2.413 1_565 S
O559 C579 1.256 . S
C560 O549 1.283 . S
C560 O552 1.243 . S
C561 C563 1.382 . S
C561 C565 1.393 . S
C561 C568 1.500 . S
C562 C563 1.400 . S
C562 C564 1.384 . S
C563 C561 1.382 . S
C563 C562 1.400 . S
C563 H580 0.930 . S
C564 C562 1.384 . S
C564 C566 1.392 . S
C564 H581 0.931 . S
C565 C561 1.393 . S
C565 C566 1.401 . S
C565 H582 0.930 . S
C566 C564 1.392 . S
C566 C565 1.401 . S
C566 H583 0.930 . S
C567 O550 1.262 . S
C567 O551 1.260 . S
C568 Tb504 2.833 . S
C568 O548 1.251 . S
C568 O553 1.256 . S
C568 C561 1.500 . S
C569 H534 0.929 . S
C569 C547 1.444 . S
C569 C570 1.317 . S
C570 H532 0.930 . S
C570 C538 1.432 . S
C570 C569 1.317 . S
C571 O555 1.283 . S
C571 O558 1.243 1_545 S
C572 C573 1.382 . S
C572 C576 1.393 . S
C572 C579 1.500 . S
C573 C572 1.382 . S
C573 C574 1.400 . S
C573 H584 0.930 . S
C574 C573 1.400 . S
C574 C575 1.384 . S
C575 C574 1.384 . S
C575 C577 1.392 . S
C575 H585 0.931 . S
C576 C572 1.393 . S
C576 C577 1.401 . S
C576 H586 0.930 . S
C577 C575 1.392 . S
C577 C576 1.401 . S
C577 H587 0.930 . S
C578 O556 1.262 . S
C578 O557 1.260 . S
C579 Tb515 2.833 1_565 S
C579 O554 1.251 . S
C579 O559 1.256 . S
C579 C572 1.500 . S
H580 C563 0.930 . S
H581 C564 0.931 . S
H582 C565 0.930 . S
H583 C566 0.930 . S
H584 C573 0.930 . S
H585 C575 0.931 . S
H586 C576 0.930 . S
H587 C577 0.930 . S
Tb588 N619 2.660 . S
Tb588 N626 2.600 . S
Tb588 O632 2.546 . S
Tb588 O633 2.610 . S
Tb588 O635 2.320 . S
Tb588 O636 2.552 . S
Tb588 O637 2.413 . S
Tb588 O639 2.362 . S
Tb588 O640 2.421 . S
Tb588 C652 2.833 . S
C589 C592 1.432 . S
C589 C593 1.414 . S
C589 N596 1.359 . S
C590 C592 1.417 . S
C590 C594 1.432 . S
C590 C602 1.410 . S
C591 C593 1.444 . S
C591 C594 1.317 . S
C591 H614 0.929 1_565 S
C592 C589 1.432 . S
C592 C590 1.417 . S
C592 N600 1.360 . S
C593 C589 1.414 . S
C593 C591 1.444 . S
C593 C598 1.385 1_565 S
C594 C590 1.432 . S
C594 C591 1.317 . S
C594 H606 0.930 . S
C595 C597 1.392 . S
C595 C598 1.370 1_565 S
C595 H607 0.931 1_565 S
N596 C589 1.359 . S
N596 C597 1.327 . S
N596 Tb599 2.600 . S
C597 C595 1.392 . S
C597 N596 1.327 . S
C597 H604 0.930 . S
C598 C593 1.385 1_545 S
C598 C595 1.370 1_545 S
C598 H617 0.930 . S
Tb599 N596 2.600 . S
Tb599 N600 2.660 . S
Tb599 O633 2.362 . S
Tb599 O634 2.421 . S
Tb599 O638 2.546 1_565 S
Tb599 O639 2.610 . S
Tb599 O641 2.320 . S
Tb599 O642 2.552 1_565 S
Tb599 O643 2.413 1_565 S
Tb599 C663 2.833 1_565 S
N600 C592 1.360 . S
N600 Tb599 2.660 . S
N600 C601 1.305 . S
C601 N600 1.305 . S
C601 C603 1.407 . S
C601 H608 0.930 . S
C602 C590 1.410 . S
C602 C603 1.345 . S
C602 H610 0.930 . S
C603 C601 1.407 . S
C603 C602 1.345 . S
C603 H605 0.930 . S
H604 C597 0.930 . S
H605 C603 0.930 . S
H606 C594 0.930 . S
H607 C595 0.931 1_545 S
H608 C601 0.930 . S
H609 C623 0.930 . S
H610 C602 0.930 . S
H611 C629 0.930 . S
H612 C620 0.930 . S
H613 C627 0.931 . S
H614 C591 0.929 1_545 S
H615 C621 0.930 . S
H616 C654 0.930 . S
H617 C598 0.930 . S
H618 C653 0.929 . S
N619 Tb588 2.660 . S
N619 C620 1.305 . S
N619 C624 1.360 . S
C620 H612 0.930 . S
C620 N619 1.305 . S
C620 C623 1.407 1_455 S
C621 H615 0.930 . S
C621 C622 1.410 . S
C621 C623 1.345 . S
C622 C621 1.410 . S
C622 C624 1.417 1_655 S
C622 C654 1.432 . S
C623 H609 0.930 . S
C623 C620 1.407 1_655 S
C623 C621 1.345 . S
C624 N619 1.360 . S
C624 C622 1.417 1_455 S
C624 C628 1.432 . S
H625 C630 0.930 . S
N626 Tb588 2.600 . S
N626 C628 1.359 . S
N626 C629 1.327 . S
C627 H613 0.931 . S
C627 C629 1.392 . S
C627 C630 1.370 1_455 S
C628 C624 1.432 . S
C628 N626 1.359 . S
C628 C631 1.414 1_455 S
C629 H611 0.930 . S
C629 N626 1.327 . S
C629 C627 1.392 . S
C630 H625 0.930 . S
C630 C627 1.370 1_655 S
C630 C631 1.385 . S
C631 C628 1.414 1_655 S
C631 C630 1.385 . S
C631 C653 1.444 . S
O632 Tb588 2.546 . S
O632 C652 1.251 . S
O633 Tb588 2.610 . S
O633 Tb599 2.362 . S
O633 C644 1.283 . S
O634 Tb599 2.421 . S
O634 C651 1.262 . S
O635 Tb588 2.320 . S
O635 C651 1.260 . S
O636 Tb588 2.552 . S
O636 C644 1.243 . S
O637 Tb588 2.413 . S
O637 C652 1.256 . S
O638 Tb599 2.546 1_545 S
O638 C663 1.251 . S
O639 Tb588 2.362 . S
O639 Tb599 2.610 . S
O639 C655 1.283 . S
O640 Tb588 2.421 . S
O640 C662 1.262 . S
O641 Tb599 2.320 . S
O641 C662 1.260 . S
O642 Tb599 2.552 1_545 S
O642 C655 1.243 1_545 S
O643 Tb599 2.413 1_545 S
O643 C663 1.256 . S
C644 O633 1.283 . S
C644 O636 1.243 . S
C645 C647 1.382 . S
C645 C649 1.393 . S
C645 C652 1.500 . S
C646 C647 1.400 . S
C646 C648 1.384 . S
C647 C645 1.382 . S
C647 C646 1.400 . S
C647 H664 0.930 . S
C648 C646 1.384 . S
C648 C650 1.392 . S
C648 H665 0.931 . S
C649 C645 1.393 . S
C649 C650 1.401 . S
C649 H666 0.930 . S
C650 C648 1.392 . S
C650 C649 1.401 . S
C650 H667 0.930 . S
C651 O634 1.262 . S
C651 O635 1.260 . S
C652 Tb588 2.833 . S
C652 O632 1.251 . S
C652 O637 1.256 . S
C652 C645 1.500 . S
C653 H618 0.929 . S
C653 C631 1.444 . S
C653 C654 1.317 . S
C654 H616 0.930 . S
C654 C622 1.432 . S
C654 C653 1.317 . S
C655 O639 1.283 . S
C655 O642 1.243 1_565 S
C656 C657 1.382 . S
C656 C660 1.393 . S
C656 C663 1.500 . S
C657 C656 1.382 . S
C657 C658 1.400 . S
C657 H668 0.930 . S
C658 C657 1.400 . S
C658 C659 1.384 . S
C659 C658 1.384 . S
C659 C661 1.392 . S
C659 H669 0.931 . S
C660 C656 1.393 . S
C660 C661 1.401 . S
C660 H670 0.930 . S
C661 C659 1.392 . S
C661 C660 1.401 . S
C661 H671 0.930 . S
C662 O640 1.262 . S
C662 O641 1.260 . S
C663 Tb599 2.833 1_545 S
C663 O638 1.251 . S
C663 O643 1.256 . S
C663 C656 1.500 . S
H664 C647 0.930 . S
H665 C648 0.931 . S
H666 C649 0.930 . S
H667 C650 0.930 . S
H668 C657 0.930 . S
H669 C659 0.931 . S
H670 C660 0.930 . S
H671 C661 0.930 . S
Tb672 N703 2.660 . S
Tb672 N710 2.600 . S
Tb672 O716 2.546 . S
Tb672 O717 2.610 . S
Tb672 O719 2.320 . S
Tb672 O720 2.552 . S
Tb672 O721 2.413 . S
Tb672 O723 2.362 . S
Tb672 O724 2.421 . S
Tb672 C736 2.833 . S
C673 C676 1.432 . S
C673 C677 1.414 . S
C673 N680 1.359 . S
C674 C676 1.417 . S
C674 C678 1.432 . S
C674 C686 1.410 . S
C675 C677 1.444 . S
C675 C678 1.317 . S
C675 H698 0.929 . S
C676 C673 1.432 . S
C676 C674 1.417 . S
C676 N684 1.360 . S
C677 C673 1.414 . S
C677 C675 1.444 . S
C677 C682 1.385 . S
C678 C674 1.432 . S
C678 C675 1.317 . S
C678 H690 0.930 . S
C679 C681 1.392 . S
C679 C682 1.370 . S
C679 H691 0.931 . S
N680 C673 1.359 . S
N680 C681 1.327 . S
N680 Tb683 2.600 . S
C681 C679 1.392 . S
C681 N680 1.327 . S
C681 H688 0.930 . S
C682 C677 1.385 . S
C682 C679 1.370 . S
C682 H701 0.930 . S
Tb683 N680 2.600 . S
Tb683 N684 2.660 . S
Tb683 O717 2.362 . S
Tb683 O718 2.421 . S
Tb683 O722 2.546 . S
Tb683 O723 2.610 . S
Tb683 O725 2.320 . S
Tb683 O726 2.552 . S
Tb683 O727 2.413 . S
Tb683 C747 2.833 . S
N684 C676 1.360 . S
N684 Tb683 2.660 . S
N684 C685 1.305 . S
C685 N684 1.305 . S
C685 C687 1.407 . S
C685 H692 0.930 . S
C686 C674 1.410 . S
C686 C687 1.345 . S
C686 H694 0.930 . S
C687 C685 1.407 . S
C687 C686 1.345 . S
C687 H689 0.930 . S
H688 C681 0.930 . S
H689 C687 0.930 . S
H690 C678 0.930 . S
H691 C679 0.931 . S
H692 C685 0.930 . S
H693 C707 0.930 . S
H694 C686 0.930 . S
H695 C713 0.930 . S
H696 C704 0.930 . S
H697 C711 0.931 . S
H698 C675 0.929 . S
H699 C705 0.930 . S
H700 C738 0.930 . S
H701 C682 0.930 . S
H702 C737 0.929 . S
N703 Tb672 2.660 . S
N703 C704 1.305 . S
N703 C708 1.360 . S
C704 H696 0.930 . S
C704 N703 1.305 . S
C704 C707 1.407 . S
C705 H699 0.930 . S
C705 C706 1.410 . S
C705 C707 1.345 . S
C706 C705 1.410 . S
C706 C708 1.417 . S
C706 C738 1.432 . S
C707 H693 0.930 . S
C707 C704 1.407 . S
C707 C705 1.345 . S
C708 N703 1.360 . S
C708 C706 1.417 . S
C708 C712 1.432 . S
H709 C714 0.930 . S
N710 Tb672 2.600 . S
N710 C712 1.359 . S
N710 C713 1.327 . S
C711 H697 0.931 . S
C711 C713 1.392 . S
C711 C714 1.370 . S
C712 C708 1.432 . S
C712 N710 1.359 . S
C712 C715 1.414 . S
C713 H695 0.930 . S
C713 N710 1.327 . S
C713 C711 1.392 . S
C714 H709 0.930 . S
C714 C711 1.370 . S
C714 C715 1.385 . S
C715 C712 1.414 . S
C715 C714 1.385 . S
C715 C737 1.444 . S
O716 Tb672 2.546 . S
O716 C736 1.251 . S
O717 Tb672 2.610 . S
O717 Tb683 2.362 . S
O717 C728 1.283 . S
O718 Tb683 2.421 . S
O718 C735 1.262 . S
O719 Tb672 2.320 . S
O719 C735 1.260 . S
O720 Tb672 2.552 . S
O720 C728 1.243 . S
O721 Tb672 2.413 . S
O721 C736 1.256 . S
O722 Tb683 2.546 . S
O722 C747 1.251 . S
O723 Tb672 2.362 . S
O723 Tb683 2.610 . S
O723 C739 1.283 . S
O724 Tb672 2.421 . S
O724 C746 1.262 . S
O725 Tb683 2.320 . S
O725 C746 1.260 . S
O726 Tb683 2.552 . S
O726 C739 1.243 . S
O727 Tb683 2.413 . S
O727 C747 1.256 . S
C728 O717 1.283 . S
C728 O720 1.243 . S
C729 C731 1.382 . S
C729 C733 1.393 . S
C729 C736 1.500 . S
C730 C731 1.400 . S
C730 C732 1.384 . S
C731 C729 1.382 . S
C731 C730 1.400 . S
C731 H748 0.930 . S
C732 C730 1.384 . S
C732 C734 1.392 . S
C732 H749 0.931 . S
C733 C729 1.393 . S
C733 C734 1.401 . S
C733 H750 0.930 . S
C734 C732 1.392 . S
C734 C733 1.401 . S
C734 H751 0.930 . S
C735 O718 1.262 . S
C735 O719 1.260 . S
C736 Tb672 2.833 . S
C736 O716 1.251 . S
C736 O721 1.256 . S
C736 C729 1.500 . S
C737 H702 0.929 . S
C737 C715 1.444 . S
C737 C738 1.317 . S
C738 H700 0.930 . S
C738 C706 1.432 . S
C738 C737 1.317 . S
C739 O723 1.283 . S
C739 O726 1.243 . S
C740 C741 1.382 . S
C740 C744 1.393 . S
C740 C747 1.500 . S
C741 C740 1.382 . S
C741 C742 1.400 1_565 S
C741 H752 0.930 . S
C742 C741 1.400 1_545 S
C742 C743 1.384 . S
C743 C742 1.384 . S
C743 C745 1.392 . S
C743 H753 0.931 . S
C744 C740 1.393 . S
C744 C745 1.401 1_565 S
C744 H754 0.930 . S
C745 C743 1.392 . S
C745 C744 1.401 1_545 S
C745 H755 0.930 . S
C746 O724 1.262 . S
C746 O725 1.260 . S
C747 Tb683 2.833 . S
C747 O722 1.251 . S
C747 O727 1.256 . S
C747 C740 1.500 . S
H748 C731 0.930 . S
H749 C732 0.931 . S
H750 C733 0.930 . S
H751 C734 0.930 . S
H752 C741 0.930 . S
H753 C743 0.931 . S
H754 C744 0.930 . S
H755 C745 0.930 . S
Tb756 N787 2.660 . S
Tb756 N794 2.600 . S
Tb756 O800 2.546 . S
Tb756 O801 2.610 . S
Tb756 O803 2.320 . S
Tb756 O804 2.552 . S
Tb756 O805 2.413 . S
Tb756 O807 2.362 . S
Tb756 O808 2.421 . S
Tb756 C820 2.833 . S
C757 C760 1.432 . S
C757 C761 1.414 . S
C757 N764 1.359 . S
C758 C760 1.417 . S
C758 C762 1.432 . S
C758 C770 1.410 . S
C759 C761 1.444 . S
C759 C762 1.317 . S
C759 H782 0.929 . S
C760 C757 1.432 . S
C760 C758 1.417 . S
C760 N768 1.360 . S
C761 C757 1.414 . S
C761 C759 1.444 . S
C761 C766 1.385 . S
C762 C758 1.432 . S
C762 C759 1.317 . S
C762 H774 0.930 . S
C763 C765 1.392 . S
C763 C766 1.370 . S
C763 H775 0.931 . S
N764 C757 1.359 . S
N764 C765 1.327 . S
N764 Tb767 2.600 . S
C765 C763 1.392 . S
C765 N764 1.327 . S
C765 H772 0.930 . S
C766 C761 1.385 . S
C766 C763 1.370 . S
C766 H785 0.930 . S
Tb767 N764 2.600 . S
Tb767 N768 2.660 . S
Tb767 O801 2.362 . S
Tb767 O802 2.421 . S
Tb767 O806 2.546 . S
Tb767 O807 2.610 . S
Tb767 O809 2.320 . S
Tb767 O810 2.552 . S
Tb767 O811 2.413 . S
Tb767 C831 2.833 . S
N768 C760 1.360 . S
N768 Tb767 2.660 . S
N768 C769 1.305 . S
C769 N768 1.305 . S
C769 C771 1.407 . S
C769 H776 0.930 . S
C770 C758 1.410 . S
C770 C771 1.345 . S
C770 H778 0.930 . S
C771 C769 1.407 . S
C771 C770 1.345 . S
C771 H773 0.930 . S
H772 C765 0.930 . S
H773 C771 0.930 . S
H774 C762 0.930 . S
H775 C763 0.931 . S
H776 C769 0.930 . S
H777 C791 0.930 . S
H778 C770 0.930 . S
H779 C797 0.930 . S
H780 C788 0.930 . S
H781 C795 0.931 . S
H782 C759 0.929 . S
H783 C789 0.930 . S
H784 C822 0.930 . S
H785 C766 0.930 . S
H786 C821 0.929 . S
N787 Tb756 2.660 . S
N787 C788 1.305 . S
N787 C792 1.360 . S
C788 H780 0.930 . S
C788 N787 1.305 . S
C788 C791 1.407 . S
C789 H783 0.930 . S
C789 C790 1.410 . S
C789 C791 1.345 . S
C790 C789 1.410 . S
C790 C792 1.417 . S
C790 C822 1.432 . S
C791 H777 0.930 . S
C791 C788 1.407 . S
C791 C789 1.345 . S
C792 N787 1.360 . S
C792 C790 1.417 . S
C792 C796 1.432 . S
H793 C798 0.930 . S
N794 Tb756 2.600 . S
N794 C796 1.359 . S
N794 C797 1.327 . S
C795 H781 0.931 . S
C795 C797 1.392 . S
C795 C798 1.370 . S
C796 C792 1.432 . S
C796 N794 1.359 . S
C796 C799 1.414 . S
C797 H779 0.930 . S
C797 N794 1.327 . S
C797 C795 1.392 . S
C798 H793 0.930 . S
C798 C795 1.370 . S
C798 C799 1.385 . S
C799 C796 1.414 . S
C799 C798 1.385 . S
C799 C821 1.444 . S
O800 Tb756 2.546 . S
O800 C820 1.251 . S
O801 Tb756 2.610 . S
O801 Tb767 2.362 . S
O801 C812 1.283 . S
O802 Tb767 2.421 . S
O802 C819 1.262 . S
O803 Tb756 2.320 . S
O803 C819 1.260 . S
O804 Tb756 2.552 . S
O804 C812 1.243 . S
O805 Tb756 2.413 . S
O805 C820 1.256 . S
O806 Tb767 2.546 . S
O806 C831 1.251 . S
O807 Tb756 2.362 . S
O807 Tb767 2.610 . S
O807 C823 1.283 . S
O808 Tb756 2.421 . S
O808 C830 1.262 . S
O809 Tb767 2.320 . S
O809 C830 1.260 . S
O810 Tb767 2.552 . S
O810 C823 1.243 . S
O811 Tb767 2.413 . S
O811 C831 1.256 . S
C812 O801 1.283 . S
C812 O804 1.243 . S
C813 C815 1.382 . S
C813 C817 1.393 . S
C813 C820 1.500 . S
C814 C815 1.400 . S
C814 C816 1.384 . S
C815 C813 1.382 . S
C815 C814 1.400 . S
C815 H832 0.930 . S
C816 C814 1.384 . S
C816 C818 1.392 . S
C816 H833 0.931 . S
C817 C813 1.393 . S
C817 C818 1.401 . S
C817 H834 0.930 . S
C818 C816 1.392 . S
C818 C817 1.401 . S
C818 H835 0.930 . S
C819 O802 1.262 . S
C819 O803 1.260 . S
C820 Tb756 2.833 . S
C820 O800 1.251 . S
C820 O805 1.256 . S
C820 C813 1.500 . S
C821 H786 0.929 . S
C821 C799 1.444 . S
C821 C822 1.317 . S
C822 H784 0.930 . S
C822 C790 1.432 . S
C822 C821 1.317 . S
C823 O807 1.283 . S
C823 O810 1.243 . S
C824 C825 1.382 . S
C824 C828 1.393 . S
C824 C831 1.500 . S
C825 C824 1.382 . S
C825 C826 1.400 1_545 S
C825 H836 0.930 . S
C826 C825 1.400 1_565 S
C826 C827 1.384 . S
C827 C826 1.384 . S
C827 C829 1.392 . S
C827 H837 0.931 . S
C828 C824 1.393 . S
C828 C829 1.401 1_545 S
C828 H838 0.930 . S
C829 C827 1.392 . S
C829 C828 1.401 1_565 S
C829 H839 0.930 . S
C830 O808 1.262 . S
C830 O809 1.260 . S
C831 Tb767 2.833 . S
C831 O806 1.251 . S
C831 O811 1.256 . S
C831 C824 1.500 . S
H832 C815 0.930 . S
H833 C816 0.931 . S
H834 C817 0.930 . S
H835 C818 0.930 . S
H836 C825 0.930 . S
H837 C827 0.931 . S
H838 C828 0.930 . S
H839 C829 0.930 . S
Tb840 N871 2.660 . S
Tb840 N878 2.600 . S
Tb840 O884 2.546 . S
Tb840 O885 2.610 . S
Tb840 O887 2.320 . S
Tb840 O888 2.552 . S
Tb840 O889 2.413 . S
Tb840 O891 2.362 . S
Tb840 O892 2.421 . S
Tb840 C904 2.833 . S
C841 C844 1.432 . S
C841 C845 1.414 . S
C841 N848 1.359 . S
C842 C844 1.417 . S
C842 C846 1.432 . S
C842 C854 1.410 . S
C843 C845 1.444 . S
C843 C846 1.317 . S
C843 H866 0.929 . S
C844 C841 1.432 . S
C844 C842 1.417 . S
C844 N852 1.360 . S
C845 C841 1.414 . S
C845 C843 1.444 . S
C845 C850 1.385 . S
C846 C842 1.432 . S
C846 C843 1.317 . S
C846 H858 0.930 . S
C847 C849 1.392 . S
C847 C850 1.370 . S
C847 H859 0.931 . S
N848 C841 1.359 . S
N848 C849 1.327 . S
N848 Tb851 2.600 . S
C849 C847 1.392 . S
C849 N848 1.327 . S
C849 H856 0.930 . S
C850 C845 1.385 . S
C850 C847 1.370 . S
C850 H869 0.930 . S
Tb851 N848 2.600 . S
Tb851 N852 2.660 . S
Tb851 O885 2.362 . S
Tb851 O886 2.421 . S
Tb851 O890 2.546 . S
Tb851 O891 2.610 . S
Tb851 O893 2.320 . S
Tb851 O894 2.552 . S
Tb851 O895 2.413 . S
Tb851 C915 2.833 . S
N852 C844 1.360 . S
N852 Tb851 2.660 . S
N852 C853 1.305 . S
C853 N852 1.305 . S
C853 C855 1.407 . S
C853 H860 0.930 . S
C854 C842 1.410 . S
C854 C855 1.345 . S
C854 H862 0.930 . S
C855 C853 1.407 . S
C855 C854 1.345 . S
C855 H857 0.930 . S
H856 C849 0.930 . S
H857 C855 0.930 . S
H858 C846 0.930 . S
H859 C847 0.931 . S
H860 C853 0.930 . S
H861 C875 0.930 . S
H862 C854 0.930 . S
H863 C881 0.930 . S
H864 C872 0.930 . S
H865 C879 0.931 . S
H866 C843 0.929 . S
H867 C873 0.930 . S
H868 C906 0.930 . S
H869 C850 0.930 . S
H870 C905 0.929 . S
N871 Tb840 2.660 . S
N871 C872 1.305 . S
N871 C876 1.360 . S
C872 H864 0.930 . S
C872 N871 1.305 . S
C872 C875 1.407 . S
C873 H867 0.930 . S
C873 C874 1.410 . S
C873 C875 1.345 . S
C874 C873 1.410 . S
C874 C876 1.417 . S
C874 C906 1.432 . S
C875 H861 0.930 . S
C875 C872 1.407 . S
C875 C873 1.345 . S
C876 N871 1.360 . S
C876 C874 1.417 . S
C876 C880 1.432 . S
H877 C882 0.930 . S
N878 Tb840 2.600 . S
N878 C880 1.359 . S
N878 C881 1.327 . S
C879 H865 0.931 . S
C879 C881 1.392 . S
C879 C882 1.370 . S
C880 C876 1.432 . S
C880 N878 1.359 . S
C880 C883 1.414 . S
C881 H863 0.930 . S
C881 N878 1.327 . S
C881 C879 1.392 . S
C882 H877 0.930 . S
C882 C879 1.370 . S
C882 C883 1.385 . S
C883 C880 1.414 . S
C883 C882 1.385 . S
C883 C905 1.444 . S
O884 Tb840 2.546 . S
O884 C904 1.251 . S
O885 Tb840 2.610 . S
O885 Tb851 2.362 . S
O885 C896 1.283 . S
O886 Tb851 2.421 . S
O886 C903 1.262 . S
O887 Tb840 2.320 . S
O887 C903 1.260 . S
O888 Tb840 2.552 . S
O888 C896 1.243 . S
O889 Tb840 2.413 . S
O889 C904 1.256 . S
O890 Tb851 2.546 . S
O890 C915 1.251 . S
O891 Tb840 2.362 . S
O891 Tb851 2.610 . S
O891 C907 1.283 . S
O892 Tb840 2.421 . S
O892 C914 1.262 . S
O893 Tb851 2.320 . S
O893 C914 1.260 . S
O894 Tb851 2.552 . S
O894 C907 1.243 . S
O895 Tb851 2.413 . S
O895 C915 1.256 . S
C896 O885 1.283 . S
C896 O888 1.243 . S
C897 C899 1.382 . S
C897 C901 1.393 . S
C897 C904 1.500 . S
C898 C899 1.400 . S
C898 C900 1.384 . S
C899 C897 1.382 . S
C899 C898 1.400 . S
C899 H916 0.930 . S
C900 C898 1.384 . S
C900 C902 1.392 . S
C900 H917 0.931 . S
C901 C897 1.393 . S
C901 C902 1.401 . S
C901 H918 0.930 . S
C902 C900 1.392 . S
C902 C901 1.401 . S
C902 H919 0.930 . S
C903 O886 1.262 . S
C903 O887 1.260 . S
C904 Tb840 2.833 . S
C904 O884 1.251 . S
C904 O889 1.256 . S
C904 C897 1.500 . S
C905 H870 0.929 . S
C905 C883 1.444 . S
C905 C906 1.317 . S
C906 H868 0.930 . S
C906 C874 1.432 . S
C906 C905 1.317 . S
C907 O891 1.283 . S
C907 O894 1.243 . S
C908 C909 1.382 . S
C908 C912 1.393 . S
C908 C915 1.500 . S
C909 C908 1.382 . S
C909 C910 1.400 1_545 S
C909 H920 0.930 . S
C910 C909 1.400 1_565 S
C910 C911 1.384 . S
C911 C910 1.384 . S
C911 C913 1.392 . S
C911 H921 0.931 . S
C912 C908 1.393 . S
C912 C913 1.401 1_545 S
C912 H922 0.930 . S
C913 C911 1.392 . S
C913 C912 1.401 1_565 S
C913 H923 0.930 . S
C914 O892 1.262 . S
C914 O893 1.260 . S
C915 Tb851 2.833 . S
C915 O890 1.251 . S
C915 O895 1.256 . S
C915 C908 1.500 . S
H916 C899 0.930 . S
H917 C900 0.931 . S
H918 C901 0.930 . S
H919 C902 0.930 . S
H920 C909 0.930 . S
H921 C911 0.931 . S
H922 C912 0.930 . S
H923 C913 0.930 . S
Tb924 N955 2.660 . S
Tb924 N962 2.600 . S
Tb924 O968 2.546 . S
Tb924 O969 2.610 . S
Tb924 O971 2.320 . S
Tb924 O972 2.552 . S
Tb924 O973 2.413 . S
Tb924 O975 2.362 . S
Tb924 O976 2.421 . S
Tb924 C988 2.833 . S
C925 C928 1.432 . S
C925 C929 1.414 . S
C925 N932 1.359 . S
C926 C928 1.417 . S
C926 C930 1.432 . S
C926 C938 1.410 . S
C927 C929 1.444 . S
C927 C930 1.317 . S
C927 H950 0.929 . S
C928 C925 1.432 . S
C928 C926 1.417 . S
C928 N936 1.360 . S
C929 C925 1.414 . S
C929 C927 1.444 . S
C929 C934 1.385 . S
C930 C926 1.432 . S
C930 C927 1.317 . S
C930 H942 0.930 . S
C931 C933 1.392 . S
C931 C934 1.370 . S
C931 H943 0.931 . S
N932 C925 1.359 . S
N932 C933 1.327 . S
N932 Tb935 2.600 . S
C933 C931 1.392 . S
C933 N932 1.327 . S
C933 H940 0.930 . S
C934 C929 1.385 . S
C934 C931 1.370 . S
C934 H953 0.930 . S
Tb935 N932 2.600 . S
Tb935 N936 2.660 . S
Tb935 O969 2.362 . S
Tb935 O970 2.421 . S
Tb935 O974 2.546 . S
Tb935 O975 2.610 . S
Tb935 O977 2.320 . S
Tb935 O978 2.552 . S
Tb935 O979 2.413 . S
Tb935 C999 2.833 . S
N936 C928 1.360 . S
N936 Tb935 2.660 . S
N936 C937 1.305 . S
C937 N936 1.305 . S
C937 C939 1.407 . S
C937 H944 0.930 . S
C938 C926 1.410 . S
C938 C939 1.345 . S
C938 H946 0.930 . S
C939 C937 1.407 . S
C939 C938 1.345 . S
C939 H941 0.930 . S
H940 C933 0.930 . S
H941 C939 0.930 . S
H942 C930 0.930 . S
H943 C931 0.931 . S
H944 C937 0.930 . S
H945 C959 0.930 . S
H946 C938 0.930 . S
H947 C965 0.930 . S
H948 C956 0.930 . S
H949 C963 0.931 . S
H950 C927 0.929 . S
H951 C957 0.930 . S
H952 C990 0.930 . S
H953 C934 0.930 . S
H954 C989 0.929 . S
N955 Tb924 2.660 . S
N955 C956 1.305 . S
N955 C960 1.360 . S
C956 H948 0.930 . S
C956 N955 1.305 . S
C956 C959 1.407 . S
C957 H951 0.930 . S
C957 C958 1.410 . S
C957 C959 1.345 . S
C958 C957 1.410 . S
C958 C960 1.417 . S
C958 C990 1.432 . S
C959 H945 0.930 . S
C959 C956 1.407 . S
C959 C957 1.345 . S
C960 N955 1.360 . S
C960 C958 1.417 . S
C960 C964 1.432 . S
H961 C966 0.930 . S
N962 Tb924 2.600 . S
N962 C964 1.359 . S
N962 C965 1.327 . S
C963 H949 0.931 . S
C963 C965 1.392 . S
C963 C966 1.370 . S
C964 C960 1.432 . S
C964 N962 1.359 . S
C964 C967 1.414 . S
C965 H947 0.930 . S
C965 N962 1.327 . S
C965 C963 1.392 . S
C966 H961 0.930 . S
C966 C963 1.370 . S
C966 C967 1.385 . S
C967 C964 1.414 . S
C967 C966 1.385 . S
C967 C989 1.444 . S
O968 Tb924 2.546 . S
O968 C988 1.251 . S
O969 Tb924 2.610 . S
O969 Tb935 2.362 . S
O969 C980 1.283 . S
O970 Tb935 2.421 . S
O970 C987 1.262 . S
O971 Tb924 2.320 . S
O971 C987 1.260 . S
O972 Tb924 2.552 . S
O972 C980 1.243 . S
O973 Tb924 2.413 . S
O973 C988 1.256 . S
O974 Tb935 2.546 . S
O974 C999 1.251 . S
O975 Tb924 2.362 . S
O975 Tb935 2.610 . S
O975 C991 1.283 . S
O976 Tb924 2.421 . S
O976 C998 1.262 . S
O977 Tb935 2.320 . S
O977 C998 1.260 . S
O978 Tb935 2.552 . S
O978 C991 1.243 . S
O979 Tb935 2.413 . S
O979 C999 1.256 . S
C980 O969 1.283 . S
C980 O972 1.243 . S
C981 C983 1.382 . S
C981 C985 1.393 . S
C981 C988 1.500 . S
C982 C983 1.400 . S
C982 C984 1.384 . S
C983 C981 1.382 . S
C983 C982 1.400 . S
C983 H1000 0.930 . S
C984 C982 1.384 . S
C984 C986 1.392 . S
C984 H1001 0.931 . S
C985 C981 1.393 . S
C985 C986 1.401 . S
C985 H1002 0.930 . S
C986 C984 1.392 . S
C986 C985 1.401 . S
C986 H1003 0.930 . S
C987 O970 1.262 . S
C987 O971 1.260 . S
C988 Tb924 2.833 . S
C988 O968 1.251 . S
C988 O973 1.256 . S
C988 C981 1.500 . S
C989 H954 0.929 . S
C989 C967 1.444 . S
C989 C990 1.317 . S
C990 H952 0.930 . S
C990 C958 1.432 . S
C990 C989 1.317 . S
C991 O975 1.283 . S
C991 O978 1.243 . S
C992 C993 1.382 . S
C992 C996 1.393 . S
C992 C999 1.500 . S
C993 C992 1.382 . S
C993 C994 1.400 1_565 S
C993 H1004 0.930 . S
C994 C993 1.400 1_545 S
C994 C995 1.384 . S
C995 C994 1.384 . S
C995 C997 1.392 . S
C995 H1005 0.931 . S
C996 C992 1.393 . S
C996 C997 1.401 1_565 S
C996 H1006 0.930 . S
C997 C995 1.392 . S
C997 C996 1.401 1_545 S
C997 H1007 0.930 . S
C998 O976 1.262 . S
C998 O977 1.260 . S
C999 Tb935 2.833 . S
C999 O974 1.251 . S
C999 O979 1.256 . S
C999 C992 1.500 . S
H1000 C983 0.930 . S
H1001 C984 0.931 . S
H1002 C985 0.930 . S
H1003 C986 0.930 . S
H1004 C993 0.930 . S
H1005 C995 0.931 . S
H1006 C996 0.930 . S
H1007 C997 0.930 . S
Tb1008 N1039 2.660 . S
Tb1008 N1046 2.600 . S
Tb1008 O1052 2.546 . S
Tb1008 O1053 2.610 . S
Tb1008 O1055 2.320 . S
Tb1008 O1056 2.552 . S
Tb1008 O1057 2.413 . S
Tb1008 O1059 2.362 . S
Tb1008 O1060 2.421 . S
Tb1008 C1072 2.833 . S
C1009 C1012 1.432 . S
C1009 C1013 1.414 . S
C1009 N1016 1.359 . S
C1010 C1012 1.417 . S
C1010 C1014 1.432 . S
C1010 C1022 1.410 . S
C1011 C1013 1.444 . S
C1011 C1014 1.317 . S
C1011 H1034 0.929 . S
C1012 C1009 1.432 . S
C1012 C1010 1.417 . S
C1012 N1020 1.360 . S
C1013 C1009 1.414 . S
C1013 C1011 1.444 . S
C1013 C1018 1.385 . S
C1014 C1010 1.432 . S
C1014 C1011 1.317 . S
C1014 H1026 0.930 . S
C1015 C1017 1.392 . S
C1015 C1018 1.370 . S
C1015 H1027 0.931 . S
N1016 C1009 1.359 . S
N1016 C1017 1.327 . S
N1016 Tb1019 2.600 . S
C1017 C1015 1.392 . S
C1017 N1016 1.327 . S
C1017 H1024 0.930 . S
C1018 C1013 1.385 . S
C1018 C1015 1.370 . S
C1018 H1037 0.930 . S
Tb1019 N1016 2.600 . S
Tb1019 N1020 2.660 . S
Tb1019 O1053 2.362 . S
Tb1019 O1054 2.421 . S
Tb1019 O1058 2.546 . S
Tb1019 O1059 2.610 . S
Tb1019 O1061 2.320 . S
Tb1019 O1062 2.552 . S
Tb1019 O1063 2.413 . S
Tb1019 C1083 2.833 . S
N1020 C1012 1.360 . S
N1020 Tb1019 2.660 . S
N1020 C1021 1.305 . S
C1021 N1020 1.305 . S
C1021 C1023 1.407 . S
C1021 H1028 0.930 . S
C1022 C1010 1.410 . S
C1022 C1023 1.345 . S
C1022 H1030 0.930 . S
C1023 C1021 1.407 . S
C1023 C1022 1.345 . S
C1023 H1025 0.930 . S
H1024 C1017 0.930 . S
H1025 C1023 0.930 . S
H1026 C1014 0.930 . S
H1027 C1015 0.931 . S
H1028 C1021 0.930 . S
H1029 C1043 0.930 . S
H1030 C1022 0.930 . S
H1031 C1049 0.930 . S
H1032 C1040 0.930 . S
H1033 C1047 0.931 . S
H1034 C1011 0.929 . S
H1035 C1041 0.930 . S
H1036 C1074 0.930 . S
H1037 C1018 0.930 . S
H1038 C1073 0.929 . S
N1039 Tb1008 2.660 . S
N1039 C1040 1.305 . S
N1039 C1044 1.360 . S
C1040 H1032 0.930 . S
C1040 N1039 1.305 . S
C1040 C1043 1.407 . S
C1041 H1035 0.930 . S
C1041 C1042 1.410 . S
C1041 C1043 1.345 . S
C1042 C1041 1.410 . S
C1042 C1044 1.417 . S
C1042 C1074 1.432 . S
C1043 H1029 0.930 . S
C1043 C1040 1.407 . S
C1043 C1041 1.345 . S
C1044 N1039 1.360 . S
C1044 C1042 1.417 . S
C1044 C1048 1.432 . S
H1045 C1050 0.930 . S
N1046 Tb1008 2.600 . S
N1046 C1048 1.359 . S
N1046 C1049 1.327 . S
C1047 H1033 0.931 . S
C1047 C1049 1.392 . S
C1047 C1050 1.370 . S
C1048 C1044 1.432 . S
C1048 N1046 1.359 . S
C1048 C1051 1.414 . S
C1049 H1031 0.930 . S
C1049 N1046 1.327 . S
C1049 C1047 1.392 . S
C1050 H1045 0.930 . S
C1050 C1047 1.370 . S
C1050 C1051 1.385 . S
C1051 C1048 1.414 . S
C1051 C1050 1.385 . S
C1051 C1073 1.444 . S
O1052 Tb1008 2.546 . S
O1052 C1072 1.251 . S
O1053 Tb1008 2.610 . S
O1053 Tb1019 2.362 . S
O1053 C1064 1.283 . S
O1054 Tb1019 2.421 . S
O1054 C1071 1.262 . S
O1055 Tb1008 2.320 . S
O1055 C1071 1.260 . S
O1056 Tb1008 2.552 . S
O1056 C1064 1.243 . S
O1057 Tb1008 2.413 . S
O1057 C1072 1.256 . S
O1058 Tb1019 2.546 . S
O1058 C1083 1.251 . S
O1059 Tb1008 2.362 . S
O1059 Tb1019 2.610 . S
O1059 C1075 1.283 . S
O1060 Tb1008 2.421 . S
O1060 C1082 1.262 . S
O1061 Tb1019 2.320 . S
O1061 C1082 1.260 . S
O1062 Tb1019 2.552 . S
O1062 C1075 1.243 . S
O1063 Tb1019 2.413 . S
O1063 C1083 1.256 . S
C1064 O1053 1.283 . S
C1064 O1056 1.243 . S
C1065 C1067 1.382 . S
C1065 C1069 1.393 . S
C1065 C1072 1.500 . S
C1066 C1067 1.400 1_565 S
C1066 C1068 1.384 . S
C1067 C1065 1.382 . S
C1067 C1066 1.400 1_545 S
C1067 H1084 0.930 . S
C1068 C1066 1.384 . S
C1068 C1070 1.392 . S
C1068 H1085 0.931 . S
C1069 C1065 1.393 . S
C1069 C1070 1.401 1_545 S
C1069 H1086 0.930 . S
C1070 C1068 1.392 . S
C1070 C1069 1.401 1_565 S
C1070 H1087 0.930 . S
C1071 O1054 1.262 . S
C1071 O1055 1.260 . S
C1072 Tb1008 2.833 . S
C1072 O1052 1.251 . S
C1072 O1057 1.256 . S
C1072 C1065 1.500 . S
C1073 H1038 0.929 . S
C1073 C1051 1.444 . S
C1073 C1074 1.317 . S
C1074 H1036 0.930 . S
C1074 C1042 1.432 . S
C1074 C1073 1.317 . S
C1075 O1059 1.283 . S
C1075 O1062 1.243 . S
C1076 C1077 1.382 . S
C1076 C1080 1.393 . S
C1076 C1083 1.500 . S
C1077 C1076 1.382 . S
C1077 C1078 1.400 . S
C1077 H1088 0.930 . S
C1078 C1077 1.400 . S
C1078 C1079 1.384 . S
C1079 C1078 1.384 . S
C1079 C1081 1.392 . S
C1079 H1089 0.931 . S
C1080 C1076 1.393 . S
C1080 C1081 1.401 . S
C1080 H1090 0.930 . S
C1081 C1079 1.392 . S
C1081 C1080 1.401 . S
C1081 H1091 0.930 . S
C1082 O1060 1.262 . S
C1082 O1061 1.260 . S
C1083 Tb1019 2.833 . S
C1083 O1058 1.251 . S
C1083 O1063 1.256 . S
C1083 C1076 1.500 . S
H1084 C1067 0.930 . S
H1085 C1068 0.931 . S
H1086 C1069 0.930 . S
H1087 C1070 0.930 . S
H1088 C1077 0.930 . S
H1089 C1079 0.931 . S
H1090 C1080 0.930 . S
H1091 C1081 0.930 . S
Tb1092 N1123 2.660 . S
Tb1092 N1130 2.600 . S
Tb1092 O1136 2.546 . S
Tb1092 O1137 2.610 . S
Tb1092 O1139 2.320 . S
Tb1092 O1140 2.552 . S
Tb1092 O1141 2.413 . S
Tb1092 O1143 2.362 . S
Tb1092 O1144 2.421 . S
Tb1092 C1156 2.833 . S
C1093 C1096 1.432 . S
C1093 C1097 1.414 . S
C1093 N1100 1.359 . S
C1094 C1096 1.417 . S
C1094 C1098 1.432 . S
C1094 C1106 1.410 . S
C1095 C1097 1.444 . S
C1095 C1098 1.317 . S
C1095 H1118 0.929 . S
C1096 C1093 1.432 . S
C1096 C1094 1.417 . S
C1096 N1104 1.360 . S
C1097 C1093 1.414 . S
C1097 C1095 1.444 . S
C1097 C1102 1.385 . S
C1098 C1094 1.432 . S
C1098 C1095 1.317 . S
C1098 H1110 0.930 . S
C1099 C1101 1.392 . S
C1099 C1102 1.370 . S
C1099 H1111 0.931 . S
N1100 C1093 1.359 . S
N1100 C1101 1.327 . S
N1100 Tb1103 2.600 . S
C1101 C1099 1.392 . S
C1101 N1100 1.327 . S
C1101 H1108 0.930 . S
C1102 C1097 1.385 . S
C1102 C1099 1.370 . S
C1102 H1121 0.930 . S
Tb1103 N1100 2.600 . S
Tb1103 N1104 2.660 . S
Tb1103 O1137 2.362 . S
Tb1103 O1138 2.421 . S
Tb1103 O1142 2.546 . S
Tb1103 O1143 2.610 . S
Tb1103 O1145 2.320 . S
Tb1103 O1146 2.552 . S
Tb1103 O1147 2.413 . S
Tb1103 C1167 2.833 . S
N1104 C1096 1.360 . S
N1104 Tb1103 2.660 . S
N1104 C1105 1.305 . S
C1105 N1104 1.305 . S
C1105 C1107 1.407 . S
C1105 H1112 0.930 . S
C1106 C1094 1.410 . S
C1106 C1107 1.345 . S
C1106 H1114 0.930 . S
C1107 C1105 1.407 . S
C1107 C1106 1.345 . S
C1107 H1109 0.930 . S
H1108 C1101 0.930 . S
H1109 C1107 0.930 . S
H1110 C1098 0.930 . S
H1111 C1099 0.931 . S
H1112 C1105 0.930 . S
H1113 C1127 0.930 . S
H1114 C1106 0.930 . S
H1115 C1133 0.930 . S
H1116 C1124 0.930 . S
H1117 C1131 0.931 . S
H1118 C1095 0.929 . S
H1119 C1125 0.930 . S
H1120 C1158 0.930 . S
H1121 C1102 0.930 . S
H1122 C1157 0.929 . S
N1123 Tb1092 2.660 . S
N1123 C1124 1.305 . S
N1123 C1128 1.360 . S
C1124 H1116 0.930 . S
C1124 N1123 1.305 . S
C1124 C1127 1.407 . S
C1125 H1119 0.930 . S
C1125 C1126 1.410 . S
C1125 C1127 1.345 . S
C1126 C1125 1.410 . S
C1126 C1128 1.417 . S
C1126 C1158 1.432 . S
C1127 H1113 0.930 . S
C1127 C1124 1.407 . S
C1127 C1125 1.345 . S
C1128 N1123 1.360 . S
C1128 C1126 1.417 . S
C1128 C1132 1.432 . S
H1129 C1134 0.930 . S
N1130 Tb1092 2.600 . S
N1130 C1132 1.359 . S
N1130 C1133 1.327 . S
C1131 H1117 0.931 . S
C1131 C1133 1.392 . S
C1131 C1134 1.370 . S
C1132 C1128 1.432 . S
C1132 N1130 1.359 . S
C1132 C1135 1.414 . S
C1133 H1115 0.930 . S
C1133 N1130 1.327 . S
C1133 C1131 1.392 . S
C1134 H1129 0.930 . S
C1134 C1131 1.370 . S
C1134 C1135 1.385 . S
C1135 C1132 1.414 . S
C1135 C1134 1.385 . S
C1135 C1157 1.444 . S
O1136 Tb1092 2.546 . S
O1136 C1156 1.251 . S
O1137 Tb1092 2.610 . S
O1137 Tb1103 2.362 . S
O1137 C1148 1.283 . S
O1138 Tb1103 2.421 . S
O1138 C1155 1.262 . S
O1139 Tb1092 2.320 . S
O1139 C1155 1.260 . S
O1140 Tb1092 2.552 . S
O1140 C1148 1.243 . S
O1141 Tb1092 2.413 . S
O1141 C1156 1.256 . S
O1142 Tb1103 2.546 . S
O1142 C1167 1.251 . S
O1143 Tb1092 2.362 . S
O1143 Tb1103 2.610 . S
O1143 C1159 1.283 . S
O1144 Tb1092 2.421 . S
O1144 C1166 1.262 . S
O1145 Tb1103 2.320 . S
O1145 C1166 1.260 . S
O1146 Tb1103 2.552 . S
O1146 C1159 1.243 . S
O1147 Tb1103 2.413 . S
O1147 C1167 1.256 . S
C1148 O1137 1.283 . S
C1148 O1140 1.243 . S
C1149 C1151 1.382 . S
C1149 C1153 1.393 . S
C1149 C1156 1.500 . S
C1150 C1151 1.400 1_545 S
C1150 C1152 1.384 . S
C1151 C1149 1.382 . S
C1151 C1150 1.400 1_565 S
C1151 H1168 0.930 . S
C1152 C1150 1.384 . S
C1152 C1154 1.392 . S
C1152 H1169 0.931 . S
C1153 C1149 1.393 . S
C1153 C1154 1.401 1_565 S
C1153 H1170 0.930 . S
C1154 C1152 1.392 . S
C1154 C1153 1.401 1_545 S
C1154 H1171 0.930 . S
C1155 O1138 1.262 . S
C1155 O1139 1.260 . S
C1156 Tb1092 2.833 . S
C1156 O1136 1.251 . S
C1156 O1141 1.256 . S
C1156 C1149 1.500 . S
C1157 H1122 0.929 . S
C1157 C1135 1.444 . S
C1157 C1158 1.317 . S
C1158 H1120 0.930 . S
C1158 C1126 1.432 . S
C1158 C1157 1.317 . S
C1159 O1143 1.283 . S
C1159 O1146 1.243 . S
C1160 C1161 1.382 . S
C1160 C1164 1.393 . S
C1160 C1167 1.500 . S
C1161 C1160 1.382 . S
C1161 C1162 1.400 . S
C1161 H1172 0.930 . S
C1162 C1161 1.400 . S
C1162 C1163 1.384 . S
C1163 C1162 1.384 . S
C1163 C1165 1.392 . S
C1163 H1173 0.931 . S
C1164 C1160 1.393 . S
C1164 C1165 1.401 . S
C1164 H1174 0.930 . S
C1165 C1163 1.392 . S
C1165 C1164 1.401 . S
C1165 H1175 0.930 . S
C1166 O1144 1.262 . S
C1166 O1145 1.260 . S
C1167 Tb1103 2.833 . S
C1167 O1142 1.251 . S
C1167 O1147 1.256 . S
C1167 C1160 1.500 . S
H1168 C1151 0.930 . S
H1169 C1152 0.931 . S
H1170 C1153 0.930 . S
H1171 C1154 0.930 . S
H1172 C1161 0.930 . S
H1173 C1163 0.931 . S
H1174 C1164 0.930 . S
H1175 C1165 0.930 . S
Tb1176 N1207 2.660 . S
Tb1176 N1214 2.600 . S
Tb1176 O1220 2.546 . S
Tb1176 O1221 2.610 . S
Tb1176 O1223 2.320 . S
Tb1176 O1224 2.552 . S
Tb1176 O1225 2.413 . S
Tb1176 O1227 2.362 . S
Tb1176 O1228 2.421 . S
Tb1176 C1240 2.833 . S
C1177 C1180 1.432 . S
C1177 C1181 1.414 . S
C1177 N1184 1.359 . S
C1178 C1180 1.417 . S
C1178 C1182 1.432 . S
C1178 C1190 1.410 . S
C1179 C1181 1.444 . S
C1179 C1182 1.317 . S
C1179 H1202 0.929 . S
C1180 C1177 1.432 . S
C1180 C1178 1.417 . S
C1180 N1188 1.360 . S
C1181 C1177 1.414 . S
C1181 C1179 1.444 . S
C1181 C1186 1.385 . S
C1182 C1178 1.432 . S
C1182 C1179 1.317 . S
C1182 H1194 0.930 . S
C1183 C1185 1.392 . S
C1183 C1186 1.370 . S
C1183 H1195 0.931 . S
N1184 C1177 1.359 . S
N1184 C1185 1.327 . S
N1184 Tb1187 2.600 . S
C1185 C1183 1.392 . S
C1185 N1184 1.327 . S
C1185 H1192 0.930 . S
C1186 C1181 1.385 . S
C1186 C1183 1.370 . S
C1186 H1205 0.930 . S
Tb1187 N1184 2.600 . S
Tb1187 N1188 2.660 . S
Tb1187 O1221 2.362 . S
Tb1187 O1222 2.421 . S
Tb1187 O1226 2.546 . S
Tb1187 O1227 2.610 . S
Tb1187 O1229 2.320 . S
Tb1187 O1230 2.552 . S
Tb1187 O1231 2.413 . S
Tb1187 C1251 2.833 . S
N1188 C1180 1.360 . S
N1188 Tb1187 2.660 . S
N1188 C1189 1.305 . S
C1189 N1188 1.305 . S
C1189 C1191 1.407 . S
C1189 H1196 0.930 . S
C1190 C1178 1.410 . S
C1190 C1191 1.345 . S
C1190 H1198 0.930 . S
C1191 C1189 1.407 . S
C1191 C1190 1.345 . S
C1191 H1193 0.930 . S
H1192 C1185 0.930 . S
H1193 C1191 0.930 . S
H1194 C1182 0.930 . S
H1195 C1183 0.931 . S
H1196 C1189 0.930 . S
H1197 C1211 0.930 . S
H1198 C1190 0.930 . S
H1199 C1217 0.930 . S
H1200 C1208 0.930 . S
H1201 C1215 0.931 . S
H1202 C1179 0.929 . S
H1203 C1209 0.930 . S
H1204 C1242 0.930 . S
H1205 C1186 0.930 . S
H1206 C1241 0.929 . S
N1207 Tb1176 2.660 . S
N1207 C1208 1.305 . S
N1207 C1212 1.360 . S
C1208 H1200 0.930 . S
C1208 N1207 1.305 . S
C1208 C1211 1.407 . S
C1209 H1203 0.930 . S
C1209 C1210 1.410 . S
C1209 C1211 1.345 . S
C1210 C1209 1.410 . S
C1210 C1212 1.417 . S
C1210 C1242 1.432 . S
C1211 H1197 0.930 . S
C1211 C1208 1.407 . S
C1211 C1209 1.345 . S
C1212 N1207 1.360 . S
C1212 C1210 1.417 . S
C1212 C1216 1.432 . S
H1213 C1218 0.930 . S
N1214 Tb1176 2.600 . S
N1214 C1216 1.359 . S
N1214 C1217 1.327 . S
C1215 H1201 0.931 . S
C1215 C1217 1.392 . S
C1215 C1218 1.370 . S
C1216 C1212 1.432 . S
C1216 N1214 1.359 . S
C1216 C1219 1.414 . S
C1217 H1199 0.930 . S
C1217 N1214 1.327 . S
C1217 C1215 1.392 . S
C1218 H1213 0.930 . S
C1218 C1215 1.370 . S
C1218 C1219 1.385 . S
C1219 C1216 1.414 . S
C1219 C1218 1.385 . S
C1219 C1241 1.444 . S
O1220 Tb1176 2.546 . S
O1220 C1240 1.251 . S
O1221 Tb1176 2.610 . S
O1221 Tb1187 2.362 . S
O1221 C1232 1.283 . S
O1222 Tb1187 2.421 . S
O1222 C1239 1.262 . S
O1223 Tb1176 2.320 . S
O1223 C1239 1.260 . S
O1224 Tb1176 2.552 . S
O1224 C1232 1.243 . S
O1225 Tb1176 2.413 . S
O1225 C1240 1.256 . S
O1226 Tb1187 2.546 . S
O1226 C1251 1.251 . S
O1227 Tb1176 2.362 . S
O1227 Tb1187 2.610 . S
O1227 C1243 1.283 . S
O1228 Tb1176 2.421 . S
O1228 C1250 1.262 . S
O1229 Tb1187 2.320 . S
O1229 C1250 1.260 . S
O1230 Tb1187 2.552 . S
O1230 C1243 1.243 . S
O1231 Tb1187 2.413 . S
O1231 C1251 1.256 . S
C1232 O1221 1.283 . S
C1232 O1224 1.243 . S
C1233 C1235 1.382 . S
C1233 C1237 1.393 . S
C1233 C1240 1.500 . S
C1234 C1235 1.400 1_545 S
C1234 C1236 1.384 . S
C1235 C1233 1.382 . S
C1235 C1234 1.400 1_565 S
C1235 H1252 0.930 . S
C1236 C1234 1.384 . S
C1236 C1238 1.392 . S
C1236 H1253 0.931 . S
C1237 C1233 1.393 . S
C1237 C1238 1.401 1_565 S
C1237 H1254 0.930 . S
C1238 C1236 1.392 . S
C1238 C1237 1.401 1_545 S
C1238 H1255 0.930 . S
C1239 O1222 1.262 . S
C1239 O1223 1.260 . S
C1240 Tb1176 2.833 . S
C1240 O1220 1.251 . S
C1240 O1225 1.256 . S
C1240 C1233 1.500 . S
C1241 H1206 0.929 . S
C1241 C1219 1.444 . S
C1241 C1242 1.317 . S
C1242 H1204 0.930 . S
C1242 C1210 1.432 . S
C1242 C1241 1.317 . S
C1243 O1227 1.283 . S
C1243 O1230 1.243 . S
C1244 C1245 1.382 . S
C1244 C1248 1.393 . S
C1244 C1251 1.500 . S
C1245 C1244 1.382 . S
C1245 C1246 1.400 . S
C1245 H1256 0.930 . S
C1246 C1245 1.400 . S
C1246 C1247 1.384 . S
C1247 C1246 1.384 . S
C1247 C1249 1.392 . S
C1247 H1257 0.931 . S
C1248 C1244 1.393 . S
C1248 C1249 1.401 . S
C1248 H1258 0.930 . S
C1249 C1247 1.392 . S
C1249 C1248 1.401 . S
C1249 H1259 0.930 . S
C1250 O1228 1.262 . S
C1250 O1229 1.260 . S
C1251 Tb1187 2.833 . S
C1251 O1226 1.251 . S
C1251 O1231 1.256 . S
C1251 C1244 1.500 . S
H1252 C1235 0.930 . S
H1253 C1236 0.931 . S
H1254 C1237 0.930 . S
H1255 C1238 0.930 . S
H1256 C1245 0.930 . S
H1257 C1247 0.931 . S
H1258 C1248 0.930 . S
H1259 C1249 0.930 . S
Tb1260 N1291 2.660 . S
Tb1260 N1298 2.600 . S
Tb1260 O1304 2.546 . S
Tb1260 O1305 2.610 . S
Tb1260 O1307 2.320 . S
Tb1260 O1308 2.552 . S
Tb1260 O1309 2.413 . S
Tb1260 O1311 2.362 . S
Tb1260 O1312 2.421 . S
Tb1260 C1324 2.833 . S
C1261 C1264 1.432 . S
C1261 C1265 1.414 . S
C1261 N1268 1.359 . S
C1262 C1264 1.417 . S
C1262 C1266 1.432 . S
C1262 C1274 1.410 . S
C1263 C1265 1.444 . S
C1263 C1266 1.317 . S
C1263 H1286 0.929 . S
C1264 C1261 1.432 . S
C1264 C1262 1.417 . S
C1264 N1272 1.360 . S
C1265 C1261 1.414 . S
C1265 C1263 1.444 . S
C1265 C1270 1.385 . S
C1266 C1262 1.432 . S
C1266 C1263 1.317 . S
C1266 H1278 0.930 . S
C1267 C1269 1.392 . S
C1267 C1270 1.370 . S
C1267 H1279 0.931 . S
N1268 C1261 1.359 . S
N1268 C1269 1.327 . S
N1268 Tb1271 2.600 . S
C1269 C1267 1.392 . S
C1269 N1268 1.327 . S
C1269 H1276 0.930 . S
C1270 C1265 1.385 . S
C1270 C1267 1.370 . S
C1270 H1289 0.930 . S
Tb1271 N1268 2.600 . S
Tb1271 N1272 2.660 . S
Tb1271 O1305 2.362 . S
Tb1271 O1306 2.421 . S
Tb1271 O1310 2.546 . S
Tb1271 O1311 2.610 . S
Tb1271 O1313 2.320 . S
Tb1271 O1314 2.552 . S
Tb1271 O1315 2.413 . S
Tb1271 C1335 2.833 . S
N1272 C1264 1.360 . S
N1272 Tb1271 2.660 . S
N1272 C1273 1.305 . S
C1273 N1272 1.305 . S
C1273 C1275 1.407 . S
C1273 H1280 0.930 . S
C1274 C1262 1.410 . S
C1274 C1275 1.345 . S
C1274 H1282 0.930 . S
C1275 C1273 1.407 . S
C1275 C1274 1.345 . S
C1275 H1277 0.930 . S
H1276 C1269 0.930 . S
H1277 C1275 0.930 . S
H1278 C1266 0.930 . S
H1279 C1267 0.931 . S
H1280 C1273 0.930 . S
H1281 C1295 0.930 . S
H1282 C1274 0.930 . S
H1283 C1301 0.930 . S
H1284 C1292 0.930 . S
H1285 C1299 0.931 . S
H1286 C1263 0.929 . S
H1287 C1293 0.930 . S
H1288 C1326 0.930 . S
H1289 C1270 0.930 . S
H1290 C1325 0.929 . S
N1291 Tb1260 2.660 . S
N1291 C1292 1.305 . S
N1291 C1296 1.360 . S
C1292 H1284 0.930 . S
C1292 N1291 1.305 . S
C1292 C1295 1.407 . S
C1293 H1287 0.930 . S
C1293 C1294 1.410 . S
C1293 C1295 1.345 . S
C1294 C1293 1.410 . S
C1294 C1296 1.417 . S
C1294 C1326 1.432 . S
C1295 H1281 0.930 . S
C1295 C1292 1.407 . S
C1295 C1293 1.345 . S
C1296 N1291 1.360 . S
C1296 C1294 1.417 . S
C1296 C1300 1.432 . S
H1297 C1302 0.930 . S
N1298 Tb1260 2.600 . S
N1298 C1300 1.359 . S
N1298 C1301 1.327 . S
C1299 H1285 0.931 . S
C1299 C1301 1.392 . S
C1299 C1302 1.370 . S
C1300 C1296 1.432 . S
C1300 N1298 1.359 . S
C1300 C1303 1.414 . S
C1301 H1283 0.930 . S
C1301 N1298 1.327 . S
C1301 C1299 1.392 . S
C1302 H1297 0.930 . S
C1302 C1299 1.370 . S
C1302 C1303 1.385 . S
C1303 C1300 1.414 . S
C1303 C1302 1.385 . S
C1303 C1325 1.444 . S
O1304 Tb1260 2.546 . S
O1304 C1324 1.251 . S
O1305 Tb1260 2.610 . S
O1305 Tb1271 2.362 . S
O1305 C1316 1.283 . S
O1306 Tb1271 2.421 . S
O1306 C1323 1.262 . S
O1307 Tb1260 2.320 . S
O1307 C1323 1.260 . S
O1308 Tb1260 2.552 . S
O1308 C1316 1.243 . S
O1309 Tb1260 2.413 . S
O1309 C1324 1.256 . S
O1310 Tb1271 2.546 . S
O1310 C1335 1.251 . S
O1311 Tb1260 2.362 . S
O1311 Tb1271 2.610 . S
O1311 C1327 1.283 . S
O1312 Tb1260 2.421 . S
O1312 C1334 1.262 . S
O1313 Tb1271 2.320 . S
O1313 C1334 1.260 . S
O1314 Tb1271 2.552 . S
O1314 C1327 1.243 . S
O1315 Tb1271 2.413 . S
O1315 C1335 1.256 . S
C1316 O1305 1.283 . S
C1316 O1308 1.243 . S
C1317 C1319 1.382 . S
C1317 C1321 1.393 . S
C1317 C1324 1.500 . S
C1318 C1319 1.400 1_565 S
C1318 C1320 1.384 . S
C1319 C1317 1.382 . S
C1319 C1318 1.400 1_545 S
C1319 H1336 0.930 . S
C1320 C1318 1.384 . S
C1320 C1322 1.392 . S
C1320 H1337 0.931 . S
C1321 C1317 1.393 . S
C1321 C1322 1.401 1_545 S
C1321 H1338 0.930 . S
C1322 C1320 1.392 . S
C1322 C1321 1.401 1_565 S
C1322 H1339 0.930 . S
C1323 O1306 1.262 . S
C1323 O1307 1.260 . S
C1324 Tb1260 2.833 . S
C1324 O1304 1.251 . S
C1324 O1309 1.256 . S
C1324 C1317 1.500 . S
C1325 H1290 0.929 . S
C1325 C1303 1.444 . S
C1325 C1326 1.317 . S
C1326 H1288 0.930 . S
C1326 C1294 1.432 . S
C1326 C1325 1.317 . S
C1327 O1311 1.283 . S
C1327 O1314 1.243 . S
C1328 C1329 1.382 . S
C1328 C1332 1.393 . S
C1328 C1335 1.500 . S
C1329 C1328 1.382 . S
C1329 C1330 1.400 . S
C1329 H1340 0.930 . S
C1330 C1329 1.400 . S
C1330 C1331 1.384 . S
C1331 C1330 1.384 . S
C1331 C1333 1.392 . S
C1331 H1341 0.931 . S
C1332 C1328 1.393 . S
C1332 C1333 1.401 . S
C1332 H1342 0.930 . S
C1333 C1331 1.392 . S
C1333 C1332 1.401 . S
C1333 H1343 0.930 . S
C1334 O1312 1.262 . S
C1334 O1313 1.260 . S
C1335 Tb1271 2.833 . S
C1335 O1310 1.251 . S
C1335 O1315 1.256 . S
C1335 C1328 1.500 . S
H1336 C1319 0.930 . S
H1337 C1320 0.931 . S
H1338 C1321 0.930 . S
H1339 C1322 0.930 . S
H1340 C1329 0.930 . S
H1341 C1331 0.931 . S
H1342 C1332 0.930 . S
H1343 C1333 0.930 . S
C1344 C1345 1.363 . S
C1344 C1350 1.379 . S
C1344 N1352 1.356 . S
C1345 C1344 1.363 . S
C1345 C1351 1.363 . S
C1346 C1347 1.363 . S
C1346 C1351 1.379 . S
C1346 N1353 1.356 . S
C1347 C1346 1.363 . S
C1347 C1350 1.363 . S
N1348 C1350 1.356 . S
N1348 H1360 0.984 . S
N1348 H1361 0.985 . S
N1349 C1351 1.356 . S
N1349 H1354 0.984 . S
N1349 H1355 0.985 . S
C1350 C1344 1.379 . S
C1350 C1347 1.363 . S
C1350 N1348 1.356 . S
C1351 C1345 1.363 . S
C1351 C1346 1.379 . S
C1351 N1349 1.356 . S
N1352 C1344 1.356 . S
N1352 H1358 0.984 . S
N1352 H1359 0.984 . S
N1353 C1346 1.356 . S
N1353 H1356 0.984 . S
N1353 H1357 0.985 . S
H1354 N1349 0.984 . S
H1355 N1349 0.985 . S
H1356 N1353 0.984 . S
H1357 N1353 0.985 . S
H1358 N1352 0.984 . S
H1359 N1352 0.984 . S
H1360 N1348 0.984 . S
H1361 N1348 0.985 . S
C1362 C1363 1.363 . S
C1362 C1368 1.379 . S
C1362 N1370 1.356 . S
C1363 C1362 1.363 . S
C1363 C1369 1.363 . S
C1364 C1365 1.363 . S
C1364 C1369 1.379 . S
C1364 N1371 1.356 . S
C1365 C1364 1.363 . S
C1365 C1368 1.363 . S
N1366 C1368 1.356 . S
N1366 H1378 0.984 . S
N1366 H1379 0.985 . S
N1367 C1369 1.356 . S
N1367 H1372 0.984 . S
N1367 H1373 0.985 . S
C1368 C1362 1.379 . S
C1368 C1365 1.363 . S
C1368 N1366 1.356 . S
C1369 C1363 1.363 . S
C1369 C1364 1.379 . S
C1369 N1367 1.356 . S
N1370 C1362 1.356 . S
N1370 H1376 0.984 . S
N1370 H1377 0.984 . S
N1371 C1364 1.356 . S
N1371 H1374 0.984 . S
N1371 H1375 0.985 . S
H1372 N1367 0.984 . S
H1373 N1367 0.985 . S
H1374 N1371 0.984 . S
H1375 N1371 0.985 . S
H1376 N1370 0.984 . S
H1377 N1370 0.984 . S
H1378 N1366 0.984 . S
H1379 N1366 0.985 . S
C1380 C1381 1.363 . S
C1380 C1386 1.379 . S
C1380 N1388 1.356 . S
C1381 C1380 1.363 . S
C1381 C1387 1.363 . S
C1382 C1383 1.363 . S
C1382 C1387 1.379 . S
C1382 N1389 1.356 . S
C1383 C1382 1.363 . S
C1383 C1386 1.363 . S
N1384 C1386 1.356 . S
N1384 H1396 0.984 . S
N1384 H1397 0.985 . S
N1385 C1387 1.356 . S
N1385 H1390 0.984 . S
N1385 H1391 0.985 . S
C1386 C1380 1.379 . S
C1386 C1383 1.363 . S
C1386 N1384 1.356 . S
C1387 C1381 1.363 . S
C1387 C1382 1.379 . S
C1387 N1385 1.356 . S
N1388 C1380 1.356 . S
N1388 H1394 0.984 . S
N1388 H1395 0.984 . S
N1389 C1382 1.356 . S
N1389 H1392 0.984 . S
N1389 H1393 0.985 . S
H1390 N1385 0.984 . S
H1391 N1385 0.985 . S
H1392 N1389 0.984 . S
H1393 N1389 0.985 . S
H1394 N1388 0.984 . S
H1395 N1388 0.984 . S
H1396 N1384 0.984 . S
H1397 N1384 0.985 . S
C1398 C1399 1.363 . S
C1398 C1404 1.379 . S
C1398 N1406 1.356 . S
C1399 C1398 1.363 . S
C1399 C1405 1.363 . S
C1400 C1401 1.363 . S
C1400 C1405 1.379 . S
C1400 N1407 1.356 . S
C1401 C1400 1.363 . S
C1401 C1404 1.363 . S
N1402 C1404 1.356 . S
N1402 H1414 0.984 . S
N1402 H1415 0.985 . S
N1403 C1405 1.356 . S
N1403 H1408 0.984 . S
N1403 H1409 0.985 . S
C1404 C1398 1.379 . S
C1404 C1401 1.363 . S
C1404 N1402 1.356 . S
C1405 C1399 1.363 . S
C1405 C1400 1.379 . S
C1405 N1403 1.356 . S
N1406 C1398 1.356 . S
N1406 H1412 0.984 . S
N1406 H1413 0.984 . S
N1407 C1400 1.356 . S
N1407 H1410 0.984 . S
N1407 H1411 0.985 . S
H1408 N1403 0.984 . S
H1409 N1403 0.985 . S
H1410 N1407 0.984 . S
H1411 N1407 0.985 . S
H1412 N1406 0.984 . S
H1413 N1406 0.984 . S
H1414 N1402 0.984 . S
H1415 N1402 0.985 . S
C1416 C1417 1.363 . S
C1416 C1422 1.379 . S
C1416 N1424 1.356 . S
C1417 C1416 1.363 . S
C1417 C1423 1.363 . S
C1418 C1419 1.363 . S
C1418 C1423 1.379 . S
C1418 N1425 1.356 . S
C1419 C1418 1.363 . S
C1419 C1422 1.363 . S
N1420 C1422 1.356 . S
N1420 H1432 0.984 . S
N1420 H1433 0.985 . S
N1421 C1423 1.356 . S
N1421 H1426 0.984 . S
N1421 H1427 0.985 . S
C1422 C1416 1.379 . S
C1422 C1419 1.363 . S
C1422 N1420 1.356 . S
C1423 C1417 1.363 . S
C1423 C1418 1.379 . S
C1423 N1421 1.356 . S
N1424 C1416 1.356 . S
N1424 H1430 0.984 . S
N1424 H1431 0.984 . S
N1425 C1418 1.356 . S
N1425 H1428 0.984 . S
N1425 H1429 0.985 . S
H1426 N1421 0.984 . S
H1427 N1421 0.985 . S
H1428 N1425 0.984 . S
H1429 N1425 0.985 . S
H1430 N1424 0.984 . S
H1431 N1424 0.984 . S
H1432 N1420 0.984 . S
H1433 N1420 0.985 . S
C1434 C1435 1.363 . S
C1434 C1440 1.379 . S
C1434 N1442 1.356 . S
C1435 C1434 1.363 . S
C1435 C1441 1.363 . S
C1436 C1437 1.363 . S
C1436 C1441 1.379 . S
C1436 N1443 1.356 . S
C1437 C1436 1.363 . S
C1437 C1440 1.363 . S
N1438 C1440 1.356 . S
N1438 H1450 0.984 . S
N1438 H1451 0.985 . S
N1439 C1441 1.356 . S
N1439 H1444 0.984 . S
N1439 H1445 0.985 . S
C1440 C1434 1.379 . S
C1440 C1437 1.363 . S
C1440 N1438 1.356 . S
C1441 C1435 1.363 . S
C1441 C1436 1.379 . S
C1441 N1439 1.356 . S
N1442 C1434 1.356 . S
N1442 H1448 0.984 . S
N1442 H1449 0.984 . S
N1443 C1436 1.356 . S
N1443 H1446 0.984 . S
N1443 H1447 0.985 . S
H1444 N1439 0.984 . S
H1445 N1439 0.985 . S
H1446 N1443 0.984 . S
H1447 N1443 0.985 . S
H1448 N1442 0.984 . S
H1449 N1442 0.984 . S
H1450 N1438 0.984 . S
H1451 N1438 0.985 . S
C1452 C1453 1.363 . S
C1452 C1458 1.379 . S
C1452 N1460 1.356 . S
C1453 C1452 1.363 . S
C1453 C1459 1.363 . S
C1454 C1455 1.363 . S
C1454 C1459 1.379 . S
C1454 N1461 1.356 . S
C1455 C1454 1.363 . S
C1455 C1458 1.363 . S
N1456 C1458 1.356 . S
N1456 H1468 0.984 . S
N1456 H1469 0.985 . S
N1457 C1459 1.356 . S
N1457 H1462 0.984 . S
N1457 H1463 0.985 . S
C1458 C1452 1.379 . S
C1458 C1455 1.363 . S
C1458 N1456 1.356 . S
C1459 C1453 1.363 . S
C1459 C1454 1.379 . S
C1459 N1457 1.356 . S
N1460 C1452 1.356 . S
N1460 H1466 0.984 . S
N1460 H1467 0.984 . S
N1461 C1454 1.356 . S
N1461 H1464 0.984 . S
N1461 H1465 0.985 . S
H1462 N1457 0.984 . S
H1463 N1457 0.985 . S
H1464 N1461 0.984 . S
H1465 N1461 0.985 . S
H1466 N1460 0.984 . S
H1467 N1460 0.984 . S
H1468 N1456 0.984 . S
H1469 N1456 0.985 . S
C1470 C1471 1.363 . S
C1470 C1476 1.379 . S
C1470 N1478 1.356 . S
C1471 C1470 1.363 . S
C1471 C1477 1.363 . S
C1472 C1473 1.363 . S
C1472 C1477 1.379 . S
C1472 N1479 1.356 . S
C1473 C1472 1.363 . S
C1473 C1476 1.363 . S
N1474 C1476 1.356 . S
N1474 H1486 0.984 . S
N1474 H1487 0.985 . S
N1475 C1477 1.356 . S
N1475 H1480 0.984 . S
N1475 H1481 0.985 . S
C1476 C1470 1.379 . S
C1476 C1473 1.363 . S
C1476 N1474 1.356 . S
C1477 C1471 1.363 . S
C1477 C1472 1.379 . S
C1477 N1475 1.356 . S
N1478 C1470 1.356 . S
N1478 H1484 0.984 . S
N1478 H1485 0.984 . S
N1479 C1472 1.356 . S
N1479 H1482 0.984 . S
N1479 H1483 0.985 . S
H1480 N1475 0.984 . S
H1481 N1475 0.985 . S
H1482 N1479 0.984 . S
H1483 N1479 0.985 . S
H1484 N1478 0.984 . S
H1485 N1478 0.984 . S
H1486 N1474 0.984 . S
H1487 N1474 0.985 . S
C1488 C1489 1.363 1_545 S
C1488 C1494 1.379 . S
C1488 N1496 1.356 . S
C1489 C1488 1.363 1_565 S
C1489 C1495 1.363 . S
C1490 C1491 1.363 1_565 S
C1490 C1495 1.379 . S
C1490 N1497 1.356 . S
C1491 C1490 1.363 1_545 S
C1491 C1494 1.363 . S
N1492 C1494 1.356 . S
N1492 H1504 0.984 . S
N1492 H1505 0.985 . S
N1493 C1495 1.356 . S
N1493 H1498 0.984 . S
N1493 H1499 0.985 . S
C1494 C1488 1.379 . S
C1494 C1491 1.363 . S
C1494 N1492 1.356 . S
C1495 C1489 1.363 . S
C1495 C1490 1.379 . S
C1495 N1493 1.356 . S
N1496 C1488 1.356 . S
N1496 H1502 0.984 . S
N1496 H1503 0.984 1_545 S
N1497 C1490 1.356 . S
N1497 H1500 0.984 1_565 S
N1497 H1501 0.985 . S
H1498 N1493 0.984 . S
H1499 N1493 0.985 . S
H1500 N1497 0.984 1_545 S
H1501 N1497 0.985 . S
H1502 N1496 0.984 . S
H1503 N1496 0.984 1_565 S
H1504 N1492 0.984 . S
H1505 N1492 0.985 . S
C1506 C1507 1.363 1_565 S
C1506 C1512 1.379 . S
C1506 N1514 1.356 . S
C1507 C1506 1.363 1_545 S
C1507 C1513 1.363 . S
C1508 C1509 1.363 1_545 S
C1508 C1513 1.379 . S
C1508 N1515 1.356 . S
C1509 C1508 1.363 1_565 S
C1509 C1512 1.363 . S
N1510 C1512 1.356 . S
N1510 H1522 0.984 . S
N1510 H1523 0.985 . S
N1511 C1513 1.356 . S
N1511 H1516 0.984 . S
N1511 H1517 0.985 . S
C1512 C1506 1.379 . S
C1512 C1509 1.363 . S
C1512 N1510 1.356 . S
C1513 C1507 1.363 . S
C1513 C1508 1.379 . S
C1513 N1511 1.356 . S
N1514 C1506 1.356 . S
N1514 H1520 0.984 . S
N1514 H1521 0.984 1_565 S
N1515 C1508 1.356 . S
N1515 H1518 0.984 1_545 S
N1515 H1519 0.985 . S
H1516 N1511 0.984 . S
H1517 N1511 0.985 . S
H1518 N1515 0.984 1_565 S
H1519 N1515 0.985 . S
H1520 N1514 0.984 . S
H1521 N1514 0.984 1_545 S
H1522 N1510 0.984 . S
H1523 N1510 0.985 . S
C1524 C1525 1.363 . S
C1524 C1530 1.379 . S
C1524 N1532 1.356 . S
C1525 C1524 1.363 . S
C1525 C1531 1.363 1_545 S
C1526 C1527 1.363 . S
C1526 C1531 1.379 . S
C1526 N1533 1.356 . S
C1527 C1526 1.363 . S
C1527 C1530 1.363 1_565 S
N1528 C1530 1.356 . S
N1528 H1540 0.984 . S
N1528 H1541 0.985 1_545 S
N1529 C1531 1.356 . S
N1529 H1534 0.984 1_565 S
N1529 H1535 0.985 . S
C1530 C1524 1.379 . S
C1530 C1527 1.363 1_545 S
C1530 N1528 1.356 . S
C1531 C1525 1.363 1_565 S
C1531 C1526 1.379 . S
C1531 N1529 1.356 . S
N1532 C1524 1.356 . S
N1532 H1538 0.984 . S
N1532 H1539 0.984 . S
N1533 C1526 1.356 . S
N1533 H1536 0.984 . S
N1533 H1537 0.985 . S
H1534 N1529 0.984 1_545 S
H1535 N1529 0.985 . S
H1536 N1533 0.984 . S
H1537 N1533 0.985 . S
H1538 N1532 0.984 . S
H1539 N1532 0.984 . S
H1540 N1528 0.984 . S
H1541 N1528 0.985 1_565 S
C1542 C1543 1.363 1_565 S
C1542 C1548 1.379 . S
C1542 N1550 1.356 . S
C1543 C1542 1.363 1_545 S
C1543 C1549 1.363 . S
C1544 C1545 1.363 1_545 S
C1544 C1549 1.379 . S
C1544 N1551 1.356 . S
C1545 C1544 1.363 1_565 S
C1545 C1548 1.363 . S
N1546 C1548 1.356 . S
N1546 H1558 0.984 . S
N1546 H1559 0.985 . S
N1547 C1549 1.356 . S
N1547 H1552 0.984 . S
N1547 H1553 0.985 . S
C1548 C1542 1.379 . S
C1548 C1545 1.363 . S
C1548 N1546 1.356 . S
C1549 C1543 1.363 . S
C1549 C1544 1.379 . S
C1549 N1547 1.356 . S
N1550 C1542 1.356 . S
N1550 H1556 0.984 . S
N1550 H1557 0.984 1_565 S
N1551 C1544 1.356 . S
N1551 H1554 0.984 1_545 S
N1551 H1555 0.985 . S
H1552 N1547 0.984 . S
H1553 N1547 0.985 . S
H1554 N1551 0.984 1_565 S
H1555 N1551 0.985 . S
H1556 N1550 0.984 . S
H1557 N1550 0.984 1_545 S
H1558 N1546 0.984 . S
H1559 N1546 0.985 . S
C1560 C1561 1.363 . S
C1560 C1566 1.379 . S
C1560 N1568 1.356 . S
C1561 C1560 1.363 . S
C1561 C1567 1.363 . S
C1562 C1563 1.363 . S
C1562 C1567 1.379 . S
C1562 N1569 1.356 . S
C1563 C1562 1.363 . S
C1563 C1566 1.363 . S
N1564 C1566 1.356 . S
N1564 H1576 0.984 . S
N1564 H1577 0.985 . S
N1565 C1567 1.356 . S
N1565 H1570 0.984 . S
N1565 H1571 0.985 . S
C1566 C1560 1.379 . S
C1566 C1563 1.363 . S
C1566 N1564 1.356 . S
C1567 C1561 1.363 . S
C1567 C1562 1.379 . S
C1567 N1565 1.356 . S
N1568 C1560 1.356 . S
N1568 H1574 0.984 . S
N1568 H1575 0.984 . S
N1569 C1562 1.356 . S
N1569 H1572 0.984 . S
N1569 H1573 0.985 . S
H1570 N1565 0.984 . S
H1571 N1565 0.985 . S
H1572 N1569 0.984 . S
H1573 N1569 0.985 . S
H1574 N1568 0.984 . S
H1575 N1568 0.984 . S
H1576 N1564 0.984 . S
H1577 N1564 0.985 . S
C1578 C1579 1.363 . S
C1578 C1584 1.379 . S
C1578 N1586 1.356 . S
C1579 C1578 1.363 . S
C1579 C1585 1.363 . S
C1580 C1581 1.363 . S
C1580 C1585 1.379 . S
C1580 N1587 1.356 . S
C1581 C1580 1.363 . S
C1581 C1584 1.363 . S
N1582 C1584 1.356 . S
N1582 H1594 0.984 . S
N1582 H1595 0.985 . S
N1583 C1585 1.356 . S
N1583 H1588 0.984 . S
N1583 H1589 0.985 . S
C1584 C1578 1.379 . S
C1584 C1581 1.363 . S
C1584 N1582 1.356 . S
C1585 C1579 1.363 . S
C1585 C1580 1.379 . S
C1585 N1583 1.356 . S
N1586 C1578 1.356 . S
N1586 H1592 0.984 . S
N1586 H1593 0.984 . S
N1587 C1580 1.356 . S
N1587 H1590 0.984 . S
N1587 H1591 0.985 . S
H1588 N1583 0.984 . S
H1589 N1583 0.985 . S
H1590 N1587 0.984 . S
H1591 N1587 0.985 . S
H1592 N1586 0.984 . S
H1593 N1586 0.984 . S
H1594 N1582 0.984 . S
H1595 N1582 0.985 . S
C1596 C1597 1.363 . S
C1596 C1602 1.379 . S
C1596 N1604 1.356 . S
C1597 C1596 1.363 . S
C1597 C1603 1.363 . S
C1598 C1599 1.363 . S
C1598 C1603 1.379 . S
C1598 N1605 1.356 . S
C1599 C1598 1.363 . S
C1599 C1602 1.363 . S
N1600 C1602 1.356 . S
N1600 H1612 0.984 . S
N1600 H1613 0.985 . S
N1601 C1603 1.356 . S
N1601 H1606 0.984 . S
N1601 H1607 0.985 . S
C1602 C1596 1.379 . S
C1602 C1599 1.363 . S
C1602 N1600 1.356 . S
C1603 C1597 1.363 . S
C1603 C1598 1.379 . S
C1603 N1601 1.356 . S
N1604 C1596 1.356 . S
N1604 H1610 0.984 . S
N1604 H1611 0.984 . S
N1605 C1598 1.356 . S
N1605 H1608 0.984 . S
N1605 H1609 0.985 . S
H1606 N1601 0.984 . S
H1607 N1601 0.985 . S
H1608 N1605 0.984 . S
H1609 N1605 0.985 . S
H1610 N1604 0.984 . S
H1611 N1604 0.984 . S
H1612 N1600 0.984 . S
H1613 N1600 0.985 . S
C1614 C1615 1.363 . S
C1614 C1620 1.379 . S
C1614 N1622 1.356 . S
C1615 C1614 1.363 . S
C1615 C1621 1.363 . S
C1616 C1617 1.363 . S
C1616 C1621 1.379 . S
C1616 N1623 1.356 . S
C1617 C1616 1.363 . S
C1617 C1620 1.363 . S
N1618 C1620 1.356 . S
N1618 H1630 0.984 . S
N1618 H1631 0.985 . S
N1619 C1621 1.356 . S
N1619 H1624 0.984 . S
N1619 H1625 0.985 . S
C1620 C1614 1.379 . S
C1620 C1617 1.363 . S
C1620 N1618 1.356 . S
C1621 C1615 1.363 . S
C1621 C1616 1.379 . S
C1621 N1619 1.356 . S
N1622 C1614 1.356 . S
N1622 H1628 0.984 . S
N1622 H1629 0.984 . S
N1623 C1616 1.356 . S
N1623 H1626 0.984 . S
N1623 H1627 0.985 . S
H1624 N1619 0.984 . S
H1625 N1619 0.985 . S
H1626 N1623 0.984 . S
H1627 N1623 0.985 . S
H1628 N1622 0.984 . S
H1629 N1622 0.984 . S
H1630 N1618 0.984 . S
H1631 N1618 0.985 . S
C1632 C1633 1.363 . S
C1632 C1638 1.379 1_556 S
C1632 N1640 1.356 . S
C1633 C1632 1.363 . S
C1633 C1639 1.363 . S
C1634 C1635 1.363 . S
C1634 C1639 1.379 1_554 S
C1634 N1641 1.356 . S
C1635 C1634 1.363 . S
C1635 C1638 1.363 . S
N1636 C1638 1.356 . S
N1636 H1648 0.984 . S
N1636 H1649 0.985 . S
N1637 C1639 1.356 . S
N1637 H1642 0.984 . S
N1637 H1643 0.985 . S
C1638 C1632 1.379 1_554 S
C1638 C1635 1.363 . S
C1638 N1636 1.356 . S
C1639 C1633 1.363 . S
C1639 C1634 1.379 1_556 S
C1639 N1637 1.356 . S
N1640 C1632 1.356 . S
N1640 H1646 0.984 . S
N1640 H1647 0.984 . S
N1641 C1634 1.356 . S
N1641 H1644 0.984 . S
N1641 H1645 0.985 . S
H1642 N1637 0.984 . S
H1643 N1637 0.985 . S
H1644 N1641 0.984 . S
H1645 N1641 0.985 . S
H1646 N1640 0.984 . S
H1647 N1640 0.984 . S
H1648 N1636 0.984 . S
H1649 N1636 0.985 . S
C1650 C1651 1.363 . S
C1650 C1656 1.379 1_556 S
C1650 N1658 1.356 . S
C1651 C1650 1.363 . S
C1651 C1657 1.363 . S
C1652 C1653 1.363 . S
C1652 C1657 1.379 1_554 S
C1652 N1659 1.356 . S
C1653 C1652 1.363 . S
C1653 C1656 1.363 . S
N1654 C1656 1.356 . S
N1654 H1666 0.984 . S
N1654 H1667 0.985 . S
N1655 C1657 1.356 . S
N1655 H1660 0.984 . S
N1655 H1661 0.985 . S
C1656 C1650 1.379 1_554 S
C1656 C1653 1.363 . S
C1656 N1654 1.356 . S
C1657 C1651 1.363 . S
C1657 C1652 1.379 1_556 S
C1657 N1655 1.356 . S
N1658 C1650 1.356 . S
N1658 H1664 0.984 . S
N1658 H1665 0.984 . S
N1659 C1652 1.356 . S
N1659 H1662 0.984 . S
N1659 H1663 0.985 . S
H1660 N1655 0.984 . S
H1661 N1655 0.985 . S
H1662 N1659 0.984 . S
H1663 N1659 0.985 . S
H1664 N1658 0.984 . S
H1665 N1658 0.984 . S
H1666 N1654 0.984 . S
H1667 N1654 0.985 . S
C1668 C1669 1.363 . S
C1668 C1674 1.379 . S
C1668 N1676 1.356 . S
C1669 C1668 1.363 . S
C1669 C1675 1.363 . S
C1670 C1671 1.363 . S
C1670 C1675 1.379 . S
C1670 N1677 1.356 . S
C1671 C1670 1.363 . S
C1671 C1674 1.363 . S
N1672 C1674 1.356 . S
N1672 H1684 0.984 . S
N1672 H1685 0.985 . S
N1673 C1675 1.356 . S
N1673 H1678 0.984 . S
N1673 H1679 0.985 . S
C1674 C1668 1.379 . S
C1674 C1671 1.363 . S
C1674 N1672 1.356 . S
C1675 C1669 1.363 . S
C1675 C1670 1.379 . S
C1675 N1673 1.356 . S
N1676 C1668 1.356 . S
N1676 H1682 0.984 . S
N1676 H1683 0.984 . S
N1677 C1670 1.356 . S
N1677 H1680 0.984 . S
N1677 H1681 0.985 . S
H1678 N1673 0.984 . S
H1679 N1673 0.985 . S
H1680 N1677 0.984 . S
H1681 N1677 0.985 . S
H1682 N1676 0.984 . S
H1683 N1676 0.984 . S
H1684 N1672 0.984 . S
H1685 N1672 0.985 . S
C1686 C1687 1.363 . S
C1686 C1692 1.379 . S
C1686 N1694 1.356 . S
C1687 C1686 1.363 . S
C1687 C1693 1.363 . S
C1688 C1689 1.363 . S
C1688 C1693 1.379 . S
C1688 N1695 1.356 . S
C1689 C1688 1.363 . S
C1689 C1692 1.363 . S
N1690 C1692 1.356 . S
N1690 H1702 0.984 . S
N1690 H1703 0.985 . S
N1691 C1693 1.356 . S
N1691 H1696 0.984 . S
N1691 H1697 0.985 . S
C1692 C1686 1.379 . S
C1692 C1689 1.363 . S
C1692 N1690 1.356 . S
C1693 C1687 1.363 . S
C1693 C1688 1.379 . S
C1693 N1691 1.356 . S
N1694 C1686 1.356 . S
N1694 H1700 0.984 . S
N1694 H1701 0.984 . S
N1695 C1688 1.356 . S
N1695 H1698 0.984 . S
N1695 H1699 0.985 . S
H1696 N1691 0.984 . S
H1697 N1691 0.985 . S
H1698 N1695 0.984 . S
H1699 N1695 0.985 . S
H1700 N1694 0.984 . S
H1701 N1694 0.984 . S
H1702 N1690 0.984 . S
H1703 N1690 0.985 . S
C1704 C1705 1.363 . S
C1704 C1710 1.379 1_554 S
C1704 N1712 1.356 . S
C1705 C1704 1.363 . S
C1705 C1711 1.363 . S
C1706 C1707 1.363 . S
C1706 C1711 1.379 1_556 S
C1706 N1713 1.356 . S
C1707 C1706 1.363 . S
C1707 C1710 1.363 . S
N1708 C1710 1.356 . S
N1708 H1720 0.984 . S
N1708 H1721 0.985 . S
N1709 C1711 1.356 . S
N1709 H1714 0.984 . S
N1709 H1715 0.985 . S
C1710 C1704 1.379 1_556 S
C1710 C1707 1.363 . S
C1710 N1708 1.356 . S
C1711 C1705 1.363 . S
C1711 C1706 1.379 1_554 S
C1711 N1709 1.356 . S
N1712 C1704 1.356 . S
N1712 H1718 0.984 . S
N1712 H1719 0.984 . S
N1713 C1706 1.356 . S
N1713 H1716 0.984 . S
N1713 H1717 0.985 . S
H1714 N1709 0.984 . S
H1715 N1709 0.985 . S
H1716 N1713 0.984 . S
H1717 N1713 0.985 . S
H1718 N1712 0.984 . S
H1719 N1712 0.984 . S
H1720 N1708 0.984 . S
H1721 N1708 0.985 . S
C1722 C1723 1.363 . S
C1722 C1728 1.379 1_556 S
C1722 N1730 1.356 . S
C1723 C1722 1.363 . S
C1723 C1729 1.363 . S
C1724 C1725 1.363 . S
C1724 C1729 1.379 1_554 S
C1724 N1731 1.356 . S
C1725 C1724 1.363 . S
C1725 C1728 1.363 . S
N1726 C1728 1.356 . S
N1726 H1738 0.984 . S
N1726 H1739 0.985 . S
N1727 C1729 1.356 . S
N1727 H1732 0.984 . S
N1727 H1733 0.985 . S
C1728 C1722 1.379 1_554 S
C1728 C1725 1.363 . S
C1728 N1726 1.356 . S
C1729 C1723 1.363 . S
C1729 C1724 1.379 1_556 S
C1729 N1727 1.356 . S
N1730 C1722 1.356 . S
N1730 H1736 0.984 . S
N1730 H1737 0.984 . S
N1731 C1724 1.356 . S
N1731 H1734 0.984 . S
N1731 H1735 0.985 . S
H1732 N1727 0.984 . S
H1733 N1727 0.985 . S
H1734 N1731 0.984 . S
H1735 N1731 0.985 . S
H1736 N1730 0.984 . S
H1737 N1730 0.984 . S
H1738 N1726 0.984 . S
H1739 N1726 0.985 . S
C1740 C1741 1.363 . S
C1740 C1746 1.379 . S
C1740 N1748 1.356 . S
C1741 C1740 1.363 . S
C1741 C1747 1.363 . S
C1742 C1743 1.363 . S
C1742 C1747 1.379 . S
C1742 N1749 1.356 . S
C1743 C1742 1.363 . S
C1743 C1746 1.363 . S
N1744 C1746 1.356 . S
N1744 H1756 0.984 . S
N1744 H1757 0.985 . S
N1745 C1747 1.356 . S
N1745 H1750 0.984 . S
N1745 H1751 0.985 . S
C1746 C1740 1.379 . S
C1746 C1743 1.363 . S
C1746 N1744 1.356 . S
C1747 C1741 1.363 . S
C1747 C1742 1.379 . S
C1747 N1745 1.356 . S
N1748 C1740 1.356 . S
N1748 H1754 0.984 . S
N1748 H1755 0.984 . S
N1749 C1742 1.356 . S
N1749 H1752 0.984 . S
N1749 H1753 0.985 . S
H1750 N1745 0.984 . S
H1751 N1745 0.985 . S
H1752 N1749 0.984 . S
H1753 N1749 0.985 . S
H1754 N1748 0.984 . S
H1755 N1748 0.984 . S
H1756 N1744 0.984 . S
H1757 N1744 0.985 . S
C1758 C1759 1.363 . S
C1758 C1764 1.379 . S
C1758 N1766 1.356 . S
C1759 C1758 1.363 . S
C1759 C1765 1.363 . S
C1760 C1761 1.363 . S
C1760 C1765 1.379 . S
C1760 N1767 1.356 . S
C1761 C1760 1.363 . S
C1761 C1764 1.363 . S
N1762 C1764 1.356 . S
N1762 H1774 0.984 . S
N1762 H1775 0.985 . S
N1763 C1765 1.356 . S
N1763 H1768 0.984 . S
N1763 H1769 0.985 . S
C1764 C1758 1.379 . S
C1764 C1761 1.363 . S
C1764 N1762 1.356 . S
C1765 C1759 1.363 . S
C1765 C1760 1.379 . S
C1765 N1763 1.356 . S
N1766 C1758 1.356 . S
N1766 H1772 0.984 . S
N1766 H1773 0.984 . S
N1767 C1760 1.356 . S
N1767 H1770 0.984 . S
N1767 H1771 0.985 . S
H1768 N1763 0.984 . S
H1769 N1763 0.985 . S
H1770 N1767 0.984 . S
H1771 N1767 0.985 . S
H1772 N1766 0.984 . S
H1773 N1766 0.984 . S
H1774 N1762 0.984 . S
H1775 N1762 0.985 . S
C1776 C1777 1.363 . S
C1776 C1782 1.379 1_655 S
C1776 N1784 1.356 . S
C1777 C1776 1.363 . S
C1777 C1783 1.363 1_565 S
C1778 C1779 1.363 . S
C1778 C1783 1.379 1_455 S
C1778 N1785 1.356 . S
C1779 C1778 1.363 . S
C1779 C1782 1.363 1_545 S
N1780 C1782 1.356 . S
N1780 H1792 0.984 . S
N1780 H1793 0.985 1_565 S
N1781 C1783 1.356 . S
N1781 H1786 0.984 1_545 S
N1781 H1787 0.985 . S
C1782 C1776 1.379 1_455 S
C1782 C1779 1.363 1_565 S
C1782 N1780 1.356 . S
C1783 C1777 1.363 1_545 S
C1783 C1778 1.379 1_655 S
C1783 N1781 1.356 . S
N1784 C1776 1.356 . S
N1784 H1790 0.984 . S
N1784 H1791 0.984 . S
N1785 C1778 1.356 . S
N1785 H1788 0.984 . S
N1785 H1789 0.985 . S
H1786 N1781 0.984 1_565 S
H1787 N1781 0.985 . S
H1788 N1785 0.984 . S
H1789 N1785 0.985 . S
H1790 N1784 0.984 . S
H1791 N1784 0.984 . S
H1792 N1780 0.984 . S
H1793 N1780 0.985 1_545 S
C1794 C1795 1.363 . S
C1794 C1800 1.379 1_655 S
C1794 N1802 1.356 . S
C1795 C1794 1.363 . S
C1795 C1801 1.363 1_545 S
C1796 C1797 1.363 . S
C1796 C1801 1.379 1_455 S
C1796 N1803 1.356 . S
C1797 C1796 1.363 . S
C1797 C1800 1.363 1_565 S
N1798 C1800 1.356 . S
N1798 H1810 0.984 . S
N1798 H1811 0.985 1_545 S
N1799 C1801 1.356 . S
N1799 H1804 0.984 1_565 S
N1799 H1805 0.985 . S
C1800 C1794 1.379 1_455 S
C1800 C1797 1.363 1_545 S
C1800 N1798 1.356 . S
C1801 C1795 1.363 1_565 S
C1801 C1796 1.379 1_655 S
C1801 N1799 1.356 . S
N1802 C1794 1.356 . S
N1802 H1808 0.984 . S
N1802 H1809 0.984 . S
N1803 C1796 1.356 . S
N1803 H1806 0.984 . S
N1803 H1807 0.985 . S
H1804 N1799 0.984 1_545 S
H1805 N1799 0.985 . S
H1806 N1803 0.984 . S
H1807 N1803 0.985 . S
H1808 N1802 0.984 . S
H1809 N1802 0.984 . S
H1810 N1798 0.984 . S
H1811 N1798 0.985 1_565 S
C1812 C1813 1.363 . S
C1812 C1818 1.379 1_455 S
C1812 N1820 1.356 . S
C1813 C1812 1.363 . S
C1813 C1819 1.363 1_545 S
C1814 C1815 1.363 . S
C1814 C1819 1.379 1_655 S
C1814 N1821 1.356 . S
C1815 C1814 1.363 . S
C1815 C1818 1.363 1_565 S
N1816 C1818 1.356 . S
N1816 H1828 0.984 . S
N1816 H1829 0.985 1_545 S
N1817 C1819 1.356 . S
N1817 H1822 0.984 1_565 S
N1817 H1823 0.985 . S
C1818 C1812 1.379 1_655 S
C1818 C1815 1.363 1_545 S
C1818 N1816 1.356 . S
C1819 C1813 1.363 1_565 S
C1819 C1814 1.379 1_455 S
C1819 N1817 1.356 . S
N1820 C1812 1.356 . S
N1820 H1826 0.984 . S
N1820 H1827 0.984 . S
N1821 C1814 1.356 . S
N1821 H1824 0.984 . S
N1821 H1825 0.985 . S
H1822 N1817 0.984 1_545 S
H1823 N1817 0.985 . S
H1824 N1821 0.984 . S
H1825 N1821 0.985 . S
H1826 N1820 0.984 . S
H1827 N1820 0.984 . S
H1828 N1816 0.984 . S
H1829 N1816 0.985 1_565 S
C1830 C1831 1.363 1_565 S
C1830 C1836 1.379 1_655 S
C1830 N1838 1.356 . S
C1831 C1830 1.363 1_545 S
C1831 C1837 1.363 . S
C1832 C1833 1.363 1_545 S
C1832 C1837 1.379 1_455 S
C1832 N1839 1.356 . S
C1833 C1832 1.363 1_565 S
C1833 C1836 1.363 . S
N1834 C1836 1.356 . S
N1834 H1846 0.984 . S
N1834 H1847 0.985 . S
N1835 C1837 1.356 . S
N1835 H1840 0.984 . S
N1835 H1841 0.985 . S
C1836 C1830 1.379 1_455 S
C1836 C1833 1.363 . S
C1836 N1834 1.356 . S
C1837 C1831 1.363 . S
C1837 C1832 1.379 1_655 S
C1837 N1835 1.356 . S
N1838 C1830 1.356 . S
N1838 H1844 0.984 . S
N1838 H1845 0.984 1_565 S
N1839 C1832 1.356 . S
N1839 H1842 0.984 1_545 S
N1839 H1843 0.985 . S
H1840 N1835 0.984 . S
H1841 N1835 0.985 . S
H1842 N1839 0.984 1_565 S
H1843 N1839 0.985 . S
H1844 N1838 0.984 . S
H1845 N1838 0.984 1_545 S
H1846 N1834 0.984 . S
H1847 N1834 0.985 . S
C1848 C1849 1.363 . S
C1848 C1854 1.379 . S
C1848 N1856 1.356 . S
C1849 C1848 1.363 . S
C1849 C1855 1.363 . S
C1850 C1851 1.363 . S
C1850 C1855 1.379 . S
C1850 N1857 1.356 . S
C1851 C1850 1.363 . S
C1851 C1854 1.363 . S
N1852 C1854 1.356 . S
N1852 H1864 0.984 . S
N1852 H1865 0.985 . S
N1853 C1855 1.356 . S
N1853 H1858 0.984 . S
N1853 H1859 0.985 . S
C1854 C1848 1.379 . S
C1854 C1851 1.363 . S
C1854 N1852 1.356 . S
C1855 C1849 1.363 . S
C1855 C1850 1.379 . S
C1855 N1853 1.356 . S
N1856 C1848 1.356 . S
N1856 H1862 0.984 . S
N1856 H1863 0.984 . S
N1857 C1850 1.356 . S
N1857 H1860 0.984 . S
N1857 H1861 0.985 . S
H1858 N1853 0.984 . S
H1859 N1853 0.985 . S
H1860 N1857 0.984 . S
H1861 N1857 0.985 . S
H1862 N1856 0.984 . S
H1863 N1856 0.984 . S
H1864 N1852 0.984 . S
H1865 N1852 0.985 . S
C1866 C1867 1.363 . S
C1866 C1872 1.379 . S
C1866 N1874 1.356 . S
C1867 C1866 1.363 . S
C1867 C1873 1.363 . S
C1868 C1869 1.363 . S
C1868 C1873 1.379 . S
C1868 N1875 1.356 . S
C1869 C1868 1.363 . S
C1869 C1872 1.363 . S
N1870 C1872 1.356 . S
N1870 H1882 0.984 . S
N1870 H1883 0.985 . S
N1871 C1873 1.356 . S
N1871 H1876 0.984 . S
N1871 H1877 0.985 . S
C1872 C1866 1.379 . S
C1872 C1869 1.363 . S
C1872 N1870 1.356 . S
C1873 C1867 1.363 . S
C1873 C1868 1.379 . S
C1873 N1871 1.356 . S
N1874 C1866 1.356 . S
N1874 H1880 0.984 . S
N1874 H1881 0.984 . S
N1875 C1868 1.356 . S
N1875 H1878 0.984 . S
N1875 H1879 0.985 . S
H1876 N1871 0.984 . S
H1877 N1871 0.985 . S
H1878 N1875 0.984 . S
H1879 N1875 0.985 . S
H1880 N1874 0.984 . S
H1881 N1874 0.984 . S
H1882 N1870 0.984 . S
H1883 N1870 0.985 . S
C1884 C1885 1.363 . S
C1884 C1890 1.379 . S
C1884 N1892 1.356 . S
C1885 C1884 1.363 . S
C1885 C1891 1.363 . S
C1886 C1887 1.363 . S
C1886 C1891 1.379 . S
C1886 N1893 1.356 . S
C1887 C1886 1.363 . S
C1887 C1890 1.363 . S
N1888 C1890 1.356 . S
N1888 H1900 0.984 . S
N1888 H1901 0.985 . S
N1889 C1891 1.356 . S
N1889 H1894 0.984 . S
N1889 H1895 0.985 . S
C1890 C1884 1.379 . S
C1890 C1887 1.363 . S
C1890 N1888 1.356 . S
C1891 C1885 1.363 . S
C1891 C1886 1.379 . S
C1891 N1889 1.356 . S
N1892 C1884 1.356 . S
N1892 H1898 0.984 . S
N1892 H1899 0.984 . S
N1893 C1886 1.356 . S
N1893 H1896 0.984 . S
N1893 H1897 0.985 . S
H1894 N1889 0.984 . S
H1895 N1889 0.985 . S
H1896 N1893 0.984 . S
H1897 N1893 0.985 . S
H1898 N1892 0.984 . S
H1899 N1892 0.984 . S
H1900 N1888 0.984 . S
H1901 N1888 0.985 . S
C1902 C1903 1.363 . S
C1902 C1908 1.379 . S
C1902 N1910 1.356 . S
C1903 C1902 1.363 . S
C1903 C1909 1.363 . S
C1904 C1905 1.363 . S
C1904 C1909 1.379 . S
C1904 N1911 1.356 . S
C1905 C1904 1.363 . S
C1905 C1908 1.363 . S
N1906 C1908 1.356 . S
N1906 H1918 0.984 . S
N1906 H1919 0.985 . S
N1907 C1909 1.356 . S
N1907 H1912 0.984 . S
N1907 H1913 0.985 . S
C1908 C1902 1.379 . S
C1908 C1905 1.363 . S
C1908 N1906 1.356 . S
C1909 C1903 1.363 . S
C1909 C1904 1.379 . S
C1909 N1907 1.356 . S
N1910 C1902 1.356 . S
N1910 H1916 0.984 . S
N1910 H1917 0.984 . S
N1911 C1904 1.356 . S
N1911 H1914 0.984 . S
N1911 H1915 0.985 . S
H1912 N1907 0.984 . S
H1913 N1907 0.985 . S
H1914 N1911 0.984 . S
H1915 N1911 0.985 . S
H1916 N1910 0.984 . S
H1917 N1910 0.984 . S
H1918 N1906 0.984 . S
H1919 N1906 0.985 . S
C1920 C1921 1.363 . S
C1920 C1926 1.379 . S
C1920 N1928 1.356 . S
C1921 C1920 1.363 . S
C1921 C1927 1.363 . S
C1922 C1923 1.363 . S
C1922 C1927 1.379 . S
C1922 N1929 1.356 . S
C1923 C1922 1.363 . S
C1923 C1926 1.363 . S
N1924 C1926 1.356 . S
N1924 H1936 0.984 . S
N1924 H1937 0.985 . S
N1925 C1927 1.356 . S
N1925 H1930 0.984 . S
N1925 H1931 0.985 . S
C1926 C1920 1.379 . S
C1926 C1923 1.363 . S
C1926 N1924 1.356 . S
C1927 C1921 1.363 . S
C1927 C1922 1.379 . S
C1927 N1925 1.356 . S
N1928 C1920 1.356 . S
N1928 H1934 0.984 . S
N1928 H1935 0.984 . S
N1929 C1922 1.356 . S
N1929 H1932 0.984 . S
N1929 H1933 0.985 . S
H1930 N1925 0.984 . S
H1931 N1925 0.985 . S
H1932 N1929 0.984 . S
H1933 N1929 0.985 . S
H1934 N1928 0.984 . S
H1935 N1928 0.984 . S
H1936 N1924 0.984 . S
H1937 N1924 0.985 . S
C1938 C1939 1.363 . S
C1938 C1944 1.379 . S
C1938 N1946 1.356 . S
C1939 C1938 1.363 . S
C1939 C1945 1.363 . S
C1940 C1941 1.363 . S
C1940 C1945 1.379 . S
C1940 N1947 1.356 . S
C1941 C1940 1.363 . S
C1941 C1944 1.363 . S
N1942 C1944 1.356 . S
N1942 H1954 0.984 . S
N1942 H1955 0.985 . S
N1943 C1945 1.356 . S
N1943 H1948 0.984 . S
N1943 H1949 0.985 . S
C1944 C1938 1.379 . S
C1944 C1941 1.363 . S
C1944 N1942 1.356 . S
C1945 C1939 1.363 . S
C1945 C1940 1.379 . S
C1945 N1943 1.356 . S
N1946 C1938 1.356 . S
N1946 H1952 0.984 . S
N1946 H1953 0.984 . S
N1947 C1940 1.356 . S
N1947 H1950 0.984 . S
N1947 H1951 0.985 . S
H1948 N1943 0.984 . S
H1949 N1943 0.985 . S
H1950 N1947 0.984 . S
H1951 N1947 0.985 . S
H1952 N1946 0.984 . S
H1953 N1946 0.984 . S
H1954 N1942 0.984 . S
H1955 N1942 0.985 . S
C1956 C1957 1.363 . S
C1956 C1962 1.379 . S
C1956 N1964 1.356 . S
C1957 C1956 1.363 . S
C1957 C1963 1.363 . S
C1958 C1959 1.363 . S
C1958 C1963 1.379 . S
C1958 N1965 1.356 . S
C1959 C1958 1.363 . S
C1959 C1962 1.363 . S
N1960 C1962 1.356 . S
N1960 H1972 0.984 . S
N1960 H1973 0.985 . S
N1961 C1963 1.356 . S
N1961 H1966 0.984 . S
N1961 H1967 0.985 . S
C1962 C1956 1.379 . S
C1962 C1959 1.363 . S
C1962 N1960 1.356 . S
C1963 C1957 1.363 . S
C1963 C1958 1.379 . S
C1963 N1961 1.356 . S
N1964 C1956 1.356 . S
N1964 H1970 0.984 . S
N1964 H1971 0.984 . S
N1965 C1958 1.356 . S
N1965 H1968 0.984 . S
N1965 H1969 0.985 . S
H1966 N1961 0.984 . S
H1967 N1961 0.985 . S
H1968 N1965 0.984 . S
H1969 N1965 0.985 . S
H1970 N1964 0.984 . S
H1971 N1964 0.984 . S
H1972 N1960 0.984 . S
H1973 N1960 0.985 . S
C1974 C1975 1.363 . S
C1974 C1980 1.379 . S
C1974 N1982 1.356 . S
C1975 C1974 1.363 . S
C1975 C1981 1.363 . S
C1976 C1977 1.363 . S
C1976 C1981 1.379 . S
C1976 N1983 1.356 . S
C1977 C1976 1.363 . S
C1977 C1980 1.363 . S
N1978 C1980 1.356 . S
N1978 H1990 0.984 . S
N1978 H1991 0.985 . S
N1979 C1981 1.356 . S
N1979 H1984 0.984 . S
N1979 H1985 0.985 . S
C1980 C1974 1.379 . S
C1980 C1977 1.363 . S
C1980 N1978 1.356 . S
C1981 C1975 1.363 . S
C1981 C1976 1.379 . S
C1981 N1979 1.356 . S
N1982 C1974 1.356 . S
N1982 H1988 0.984 . S
N1982 H1989 0.984 . S
N1983 C1976 1.356 . S
N1983 H1986 0.984 . S
N1983 H1987 0.985 . S
H1984 N1979 0.984 . S
H1985 N1979 0.985 . S
H1986 N1983 0.984 . S
H1987 N1983 0.985 . S
H1988 N1982 0.984 . S
H1989 N1982 0.984 . S
H1990 N1978 0.984 . S
H1991 N1978 0.985 . S
C1992 C1993 1.363 . S
C1992 C1998 1.379 . S
C1992 N2000 1.356 . S
C1993 C1992 1.363 . S
C1993 C1999 1.363 . S
C1994 C1995 1.363 . S
C1994 C1999 1.379 . S
C1994 N2001 1.356 . S
C1995 C1994 1.363 . S
C1995 C1998 1.363 . S
N1996 C1998 1.356 . S
N1996 H2008 0.984 . S
N1996 H2009 0.985 . S
N1997 C1999 1.356 . S
N1997 H2002 0.984 . S
N1997 H2003 0.985 . S
C1998 C1992 1.379 . S
C1998 C1995 1.363 . S
C1998 N1996 1.356 . S
C1999 C1993 1.363 . S
C1999 C1994 1.379 . S
C1999 N1997 1.356 . S
N2000 C1992 1.356 . S
N2000 H2006 0.984 . S
N2000 H2007 0.984 . S
N2001 C1994 1.356 . S
N2001 H2004 0.984 . S
N2001 H2005 0.985 . S
H2002 N1997 0.984 . S
H2003 N1997 0.985 . S
H2004 N2001 0.984 . S
H2005 N2001 0.985 . S
H2006 N2000 0.984 . S
H2007 N2000 0.984 . S
H2008 N1996 0.984 . S
H2009 N1996 0.985 . S
C2010 C2011 1.363 . S
C2010 C2016 1.379 . S
C2010 N2018 1.356 . S
C2011 C2010 1.363 . S
C2011 C2017 1.363 . S
C2012 C2013 1.363 . S
C2012 C2017 1.379 . S
C2012 N2019 1.356 . S
C2013 C2012 1.363 . S
C2013 C2016 1.363 . S
N2014 C2016 1.356 . S
N2014 H2026 0.984 . S
N2014 H2027 0.985 . S
N2015 C2017 1.356 . S
N2015 H2020 0.984 . S
N2015 H2021 0.985 . S
C2016 C2010 1.379 . S
C2016 C2013 1.363 . S
C2016 N2014 1.356 . S
C2017 C2011 1.363 . S
C2017 C2012 1.379 . S
C2017 N2015 1.356 . S
N2018 C2010 1.356 . S
N2018 H2024 0.984 . S
N2018 H2025 0.984 . S
N2019 C2012 1.356 . S
N2019 H2022 0.984 . S
N2019 H2023 0.985 . S
H2020 N2015 0.984 . S
H2021 N2015 0.985 . S
H2022 N2019 0.984 . S
H2023 N2019 0.985 . S
H2024 N2018 0.984 . S
H2025 N2018 0.984 . S
H2026 N2014 0.984 . S
H2027 N2014 0.985 . S
C2028 C2029 1.363 . S
C2028 C2034 1.379 . S
C2028 N2036 1.356 . S
C2029 C2028 1.363 . S
C2029 C2035 1.363 . S
C2030 C2031 1.363 . S
C2030 C2035 1.379 . S
C2030 N2037 1.356 . S
C2031 C2030 1.363 . S
C2031 C2034 1.363 . S
N2032 C2034 1.356 . S
N2032 H2044 0.984 . S
N2032 H2045 0.985 . S
N2033 C2035 1.356 . S
N2033 H2038 0.984 . S
N2033 H2039 0.985 . S
C2034 C2028 1.379 . S
C2034 C2031 1.363 . S
C2034 N2032 1.356 . S
C2035 C2029 1.363 . S
C2035 C2030 1.379 . S
C2035 N2033 1.356 . S
N2036 C2028 1.356 . S
N2036 H2042 0.984 . S
N2036 H2043 0.984 . S
N2037 C2030 1.356 . S
N2037 H2040 0.984 . S
N2037 H2041 0.985 . S
H2038 N2033 0.984 . S
H2039 N2033 0.985 . S
H2040 N2037 0.984 . S
H2041 N2037 0.985 . S
H2042 N2036 0.984 . S
H2043 N2036 0.984 . S
H2044 N2032 0.984 . S
H2045 N2032 0.985 . S
C2046 C2047 1.363 . S
C2046 C2052 1.379 . S
C2046 N2054 1.356 . S
C2047 C2046 1.363 . S
C2047 C2053 1.363 . S
C2048 C2049 1.363 . S
C2048 C2053 1.379 . S
C2048 N2055 1.356 . S
C2049 C2048 1.363 . S
C2049 C2052 1.363 . S
N2050 C2052 1.356 . S
N2050 H2062 0.984 . S
N2050 H2063 0.985 . S
N2051 C2053 1.356 . S
N2051 H2056 0.984 . S
N2051 H2057 0.985 . S
C2052 C2046 1.379 . S
C2052 C2049 1.363 . S
C2052 N2050 1.356 . S
C2053 C2047 1.363 . S
C2053 C2048 1.379 . S
C2053 N2051 1.356 . S
N2054 C2046 1.356 . S
N2054 H2060 0.984 . S
N2054 H2061 0.984 . S
N2055 C2048 1.356 . S
N2055 H2058 0.984 . S
N2055 H2059 0.985 . S
H2056 N2051 0.984 . S
H2057 N2051 0.985 . S
H2058 N2055 0.984 . S
H2059 N2055 0.985 . S
H2060 N2054 0.984 . S
H2061 N2054 0.984 . S
H2062 N2050 0.984 . S
H2063 N2050 0.985 . S
C2064 C2065 1.363 . S
C2064 C2070 1.379 . S
C2064 N2072 1.356 . S
C2065 C2064 1.363 . S
C2065 C2071 1.363 . S
C2066 C2067 1.363 . S
C2066 C2071 1.379 . S
C2066 N2073 1.356 . S
C2067 C2066 1.363 . S
C2067 C2070 1.363 . S
N2068 C2070 1.356 . S
N2068 H2080 0.984 . S
N2068 H2081 0.985 . S
N2069 C2071 1.356 . S
N2069 H2074 0.984 1_545 S
N2069 H2075 0.985 . S
C2070 C2064 1.379 . S
C2070 C2067 1.363 . S
C2070 N2068 1.356 . S
C2071 C2065 1.363 . S
C2071 C2066 1.379 . S
C2071 N2069 1.356 . S
N2072 C2064 1.356 . S
N2072 H2078 0.984 . S
N2072 H2079 0.984 . S
N2073 C2066 1.356 . S
N2073 H2076 0.984 . S
N2073 H2077 0.985 . S
H2074 N2069 0.984 1_565 S
H2075 N2069 0.985 . S
H2076 N2073 0.984 . S
H2077 N2073 0.985 . S
H2078 N2072 0.984 . S
H2079 N2072 0.984 . S
H2080 N2068 0.984 . S
H2081 N2068 0.985 . S
C2082 C2083 1.363 . S
C2082 C2088 1.379 . S
C2082 N2090 1.356 . S
C2083 C2082 1.363 . S
C2083 C2089 1.363 . S
C2084 C2085 1.363 . S
C2084 C2089 1.379 . S
C2084 N2091 1.356 . S
C2085 C2084 1.363 . S
C2085 C2088 1.363 . S
N2086 C2088 1.356 . S
N2086 H2098 0.984 . S
N2086 H2099 0.985 . S
N2087 C2089 1.356 . S
N2087 H2092 0.984 . S
N2087 H2093 0.985 . S
C2088 C2082 1.379 . S
C2088 C2085 1.363 . S
C2088 N2086 1.356 . S
C2089 C2083 1.363 . S
C2089 C2084 1.379 . S
C2089 N2087 1.356 . S
N2090 C2082 1.356 . S
N2090 H2096 0.984 . S
N2090 H2097 0.984 . S
N2091 C2084 1.356 . S
N2091 H2094 0.984 1_565 S
N2091 H2095 0.985 . S
H2092 N2087 0.984 . S
H2093 N2087 0.985 . S
H2094 N2091 0.984 1_545 S
H2095 N2091 0.985 . S
H2096 N2090 0.984 . S
H2097 N2090 0.984 . S
H2098 N2086 0.984 . S
H2099 N2086 0.985 . S
C2100 C2101 1.363 . S
C2100 C2106 1.379 . S
C2100 N2108 1.356 . S
C2101 C2100 1.363 . S
C2101 C2107 1.363 . S
C2102 C2103 1.363 . S
C2102 C2107 1.379 . S
C2102 N2109 1.356 . S
C2103 C2102 1.363 . S
C2103 C2106 1.363 . S
N2104 C2106 1.356 . S
N2104 H2116 0.984 . S
N2104 H2117 0.985 . S
N2105 C2107 1.356 . S
N2105 H2110 0.984 1_565 S
N2105 H2111 0.985 . S
C2106 C2100 1.379 . S
C2106 C2103 1.363 . S
C2106 N2104 1.356 . S
C2107 C2101 1.363 . S
C2107 C2102 1.379 . S
C2107 N2105 1.356 . S
N2108 C2100 1.356 . S
N2108 H2114 0.984 . S
N2108 H2115 0.984 . S
N2109 C2102 1.356 . S
N2109 H2112 0.984 . S
N2109 H2113 0.985 . S
H2110 N2105 0.984 1_545 S
H2111 N2105 0.985 . S
H2112 N2109 0.984 . S
H2113 N2109 0.985 . S
H2114 N2108 0.984 . S
H2115 N2108 0.984 . S
H2116 N2104 0.984 . S
H2117 N2104 0.985 . S
C2118 C2119 1.363 . S
C2118 C2124 1.379 . S
C2118 N2126 1.356 . S
C2119 C2118 1.363 . S
C2119 C2125 1.363 . S
C2120 C2121 1.363 . S
C2120 C2125 1.379 . S
C2120 N2127 1.356 . S
C2121 C2120 1.363 . S
C2121 C2124 1.363 . S
N2122 C2124 1.356 . S
N2122 H2134 0.984 . S
N2122 H2135 0.985 . S
N2123 C2125 1.356 . S
N2123 H2128 0.984 . S
N2123 H2129 0.985 . S
C2124 C2118 1.379 . S
C2124 C2121 1.363 . S
C2124 N2122 1.356 . S
C2125 C2119 1.363 . S
C2125 C2120 1.379 . S
C2125 N2123 1.356 . S
N2126 C2118 1.356 . S
N2126 H2132 0.984 . S
N2126 H2133 0.984 1_545 S
N2127 C2120 1.356 . S
N2127 H2130 0.984 . S
N2127 H2131 0.985 . S
H2128 N2123 0.984 . S
H2129 N2123 0.985 . S
H2130 N2127 0.984 . S
H2131 N2127 0.985 . S
H2132 N2126 0.984 . S
H2133 N2126 0.984 1_565 S
H2134 N2122 0.984 . S
H2135 N2122 0.985 . S
C2136 C2137 1.363 . S
C2136 C2142 1.379 . S
C2136 N2144 1.356 . S
C2137 C2136 1.363 . S
C2137 C2143 1.363 . S
C2138 C2139 1.363 . S
C2138 C2143 1.379 . S
C2138 N2145 1.356 . S
C2139 C2138 1.363 . S
C2139 C2142 1.363 . S
N2140 C2142 1.356 . S
N2140 H2152 0.984 . S
N2140 H2153 0.985 1_565 S
N2141 C2143 1.356 . S
N2141 H2146 0.984 . S
N2141 H2147 0.985 . S
C2142 C2136 1.379 . S
C2142 C2139 1.363 . S
C2142 N2140 1.356 . S
C2143 C2137 1.363 . S
C2143 C2138 1.379 . S
C2143 N2141 1.356 . S
N2144 C2136 1.356 . S
N2144 H2150 0.984 . S
N2144 H2151 0.984 . S
N2145 C2138 1.356 . S
N2145 H2148 0.984 . S
N2145 H2149 0.985 . S
H2146 N2141 0.984 . S
H2147 N2141 0.985 . S
H2148 N2145 0.984 . S
H2149 N2145 0.985 . S
H2150 N2144 0.984 . S
H2151 N2144 0.984 . S
H2152 N2140 0.984 . S
H2153 N2140 0.985 1_545 S
C2154 C2155 1.363 . S
C2154 C2160 1.379 . S
C2154 N2162 1.356 . S
C2155 C2154 1.363 . S
C2155 C2161 1.363 . S
C2156 C2157 1.363 . S
C2156 C2161 1.379 . S
C2156 N2163 1.356 . S
C2157 C2156 1.363 . S
C2157 C2160 1.363 . S
N2158 C2160 1.356 . S
N2158 H2170 0.984 . S
N2158 H2171 0.985 1_545 S
N2159 C2161 1.356 . S
N2159 H2164 0.984 . S
N2159 H2165 0.985 . S
C2160 C2154 1.379 . S
C2160 C2157 1.363 . S
C2160 N2158 1.356 . S
C2161 C2155 1.363 . S
C2161 C2156 1.379 . S
C2161 N2159 1.356 . S
N2162 C2154 1.356 . S
N2162 H2168 0.984 . S
N2162 H2169 0.984 . S
N2163 C2156 1.356 . S
N2163 H2166 0.984 . S
N2163 H2167 0.985 . S
H2164 N2159 0.984 . S
H2165 N2159 0.985 . S
H2166 N2163 0.984 . S
H2167 N2163 0.985 . S
H2168 N2162 0.984 . S
H2169 N2162 0.984 . S
H2170 N2158 0.984 . S
H2171 N2158 0.985 1_565 S
C2172 C2173 1.363 . S
C2172 C2178 1.379 . S
C2172 N2180 1.356 . S
C2173 C2172 1.363 . S
C2173 C2179 1.363 . S
C2174 C2175 1.363 . S
C2174 C2179 1.379 . S
C2174 N2181 1.356 . S
C2175 C2174 1.363 . S
C2175 C2178 1.363 . S
N2176 C2178 1.356 . S
N2176 H2188 0.984 . S
N2176 H2189 0.985 . S
N2177 C2179 1.356 . S
N2177 H2182 0.984 1_545 S
N2177 H2183 0.985 . S
C2178 C2172 1.379 . S
C2178 C2175 1.363 . S
C2178 N2176 1.356 . S
C2179 C2173 1.363 . S
C2179 C2174 1.379 . S
C2179 N2177 1.356 . S
N2180 C2172 1.356 . S
N2180 H2186 0.984 . S
N2180 H2187 0.984 . S
N2181 C2174 1.356 . S
N2181 H2184 0.984 . S
N2181 H2185 0.985 . S
H2182 N2177 0.984 1_565 S
H2183 N2177 0.985 . S
H2184 N2181 0.984 . S
H2185 N2181 0.985 . S
H2186 N2180 0.984 . S
H2187 N2180 0.984 . S
H2188 N2176 0.984 . S
H2189 N2176 0.985 . S
C2190 C2191 1.363 . S
C2190 C2196 1.379 . S
C2190 N2198 1.356 . S
C2191 C2190 1.363 . S
C2191 C2197 1.363 . S
C2192 C2193 1.363 . S
C2192 C2197 1.379 . S
C2192 N2199 1.356 . S
C2193 C2192 1.363 . S
C2193 C2196 1.363 . S
N2194 C2196 1.356 . S
N2194 H2206 0.984 . S
N2194 H2207 0.985 1_565 S
N2195 C2197 1.356 . S
N2195 H2200 0.984 . S
N2195 H2201 0.985 . S
C2196 C2190 1.379 . S
C2196 C2193 1.363 . S
C2196 N2194 1.356 . S
C2197 C2191 1.363 . S
C2197 C2192 1.379 . S
C2197 N2195 1.356 . S
N2198 C2190 1.356 . S
N2198 H2204 0.984 . S
N2198 H2205 0.984 . S
N2199 C2192 1.356 . S
N2199 H2202 0.984 . S
N2199 H2203 0.985 . S
H2200 N2195 0.984 . S
H2201 N2195 0.985 . S
H2202 N2199 0.984 . S
H2203 N2199 0.985 . S
H2204 N2198 0.984 . S
H2205 N2198 0.984 . S
H2206 N2194 0.984 . S
H2207 N2194 0.985 1_545 S
C1345 C67 1.429 . S
C1347 C823 1.429 . S
C1363 C151 1.429 . S
C1365 C739 1.429 . S
C1381 C991 1.429 . S
C1383 C235 1.429 . S
C1399 C319 1.429 . S
C1401 C907 1.429 . S
C1417 C1148 1.429 . S
C1419 C392 1.429 . S
C1435 C1064 1.429 . S
C1437 C476 1.429 . S
C1453 C1316 1.429 . S
C1455 C560 1.429 . S
C1471 C644 1.429 . S
C1473 C1232 1.429 . S
C1489 C231 1.649 . S
C1491 C63 1.649 . S
C1507 C315 1.649 . S
C1509 C147 1.649 . S
C1525 C578 1.649 . S
C1527 C410 1.649 . S
C1543 C494 1.649 . S
C1545 C662 1.649 . S
C1561 C903 1.649 . S
C1563 C735 1.649 . S
C1579 C987 1.649 . S
C1581 C819 1.649 . S
C1597 C1082 1.649 . S
C1599 C1250 1.649 . S
C1615 C1166 1.649 . S
C1617 C1334 1.649 . S
C1633 C483 1.711 . S
C1635 C74 1.711 . S
C1651 C399 1.711 . S
C1653 C158 1.711 . S
C1669 C242 1.711 . S
C1671 C651 1.711 . S
C1687 C567 1.711 . S
C1689 C326 1.711 . S
C1705 C746 1.711 . S
C1707 C1155 1.711 . S
C1723 C1071 1.711 . S
C1725 C830 1.711 . S
C1741 C914 1.711 . S
C1743 C1323 1.711 . S
C1759 C1239 1.711 . S
C1761 C998 1.711 . S
C1777 C140 1.447 . S
C1779 C56 1.447 . S
C1795 C308 1.447 . S
C1797 C224 1.447 . S
C1813 C487 1.447 . S
C1815 C403 1.447 . S
C1831 C571 1.447 . S
C1833 C655 1.447 . S
C1849 C812 1.447 . S
C1851 C728 1.447 . S
C1867 C980 1.447 . S
C1869 C896 1.447 . S
C1885 C1075 1.447 . S
C1887 C1159 1.447 . S
C1903 C1243 1.447 . S
C1905 C1327 1.447 . S
C1921 C58 1.288 . S
C1923 C70 1.288 . S
C1939 C142 1.288 . S
C1941 C154 1.288 . S
C1957 C226 1.288 . S
C1959 C238 1.288 . S
C1975 C322 1.288 . S
C1977 C310 1.288 . S
C1993 C406 1.288 . S
C1995 C394 1.288 . S
C2011 C478 1.288 . S
C2013 C490 1.288 . S
C2029 C574 1.288 . S
C2031 C562 1.288 . S
C2047 C658 1.288 . S
C2049 C646 1.288 . S
C2065 C742 1.288 . S
C2067 C730 1.288 . S
C2083 C814 1.288 . S
C2085 C826 1.288 . S
C2101 C910 1.288 . S
C2103 C898 1.288 . S
C2119 C994 1.288 . S
C2121 C982 1.288 . S
C2137 C1078 1.288 . S
C2139 C1066 1.288 . S
C2155 C1162 1.288 . S
C2157 C1150 1.288 . S
C2173 C1234 1.288 . S
C2175 C1246 1.288 . S
C2191 C1330 1.288 . S
C2193 C1318 1.288 . S
