# Generated by pormake.
# Topology snk, (6)-cn, num edge types: 1
# Building blocks:
#     Node 0, Type 0, BuildingBlock: KUMBUR_clean_sbu_0, # of connection points: 6
#     Node 1, Type 0, BuildingBlock: KUMBUR_clean_sbu_0, # of connection points: 6
#     Node 2, Type 0, BuildingBlock: KUMBUR_clean_sbu_0, # of connection points: 6
#     Node 3, Type 0, BuildingBlock: KUMBUR_clean_sbu_0, # of connection points: 6
#     Node 4, Type 0, BuildingBlock: KUMBUR_clean_sbu_0, # of connection points: 6
#     Node 5, Type 0, BuildingBlock: KUMBUR_clean_sbu_0, # of connection points: 6
#     Node 6, Type 0, BuildingBlock: KUMBUR_clean_sbu_0, # of connection points: 6
#     Node 7, Type 0, BuildingBlock: KUMBUR_clean_sbu_0, # of connection points: 6
#     Edge 8, Type (0, 0), BuildingBlock: KIFKEQ_clean_linker_1, # of connection points: 2
#     Edge 9, Type (0, 0), BuildingBlock: KIFKEQ_clean_linker_1, # of connection points: 2
#     Edge 10, Type (0, 0), BuildingBlock: KIFKEQ_clean_linker_1, # of connection points: 2
#     Edge 11, Type (0, 0), BuildingBlock: KIFKEQ_clean_linker_1, # of connection points: 2
#     Edge 12, Type (0, 0), BuildingBlock: KIFKEQ_clean_linker_1, # of connection points: 2
#     Edge 13, Type (0, 0), BuildingBlock: KIFKEQ_clean_linker_1, # of connection points: 2
#     Edge 14, Type (0, 0), BuildingBlock: KIFKEQ_clean_linker_1, # of connection points: 2
#     Edge 15, Type (0, 0), BuildingBlock: KIFKEQ_clean_linker_1, # of connection points: 2
#     Edge 16, Type (0, 0), BuildingBlock: KIFKEQ_clean_linker_1, # of connection points: 2
#     Edge 17, Type (0, 0), BuildingBlock: KIFKEQ_clean_linker_1, # of connection points: 2
#     Edge 18, Type (0, 0), BuildingBlock: KIFKEQ_clean_linker_1, # of connection points: 2
#     Edge 19, Type (0, 0), BuildingBlock: KIFKEQ_clean_linker_1, # of connection points: 2
#     Edge 20, Type (0, 0), BuildingBlock: KIFKEQ_clean_linker_1, # of connection points: 2
#     Edge 21, Type (0, 0), BuildingBlock: KIFKEQ_clean_linker_1, # of connection points: 2
#     Edge 22, Type (0, 0), BuildingBlock: KIFKEQ_clean_linker_1, # of connection points: 2
#     Edge 23, Type (0, 0), BuildingBlock: KIFKEQ_clean_linker_1, # of connection points: 2
#     Edge 24, Type (0, 0), BuildingBlock: KIFKEQ_clean_linker_1, # of connection points: 2
#     Edge 25, Type (0, 0), BuildingBlock: KIFKEQ_clean_linker_1, # of connection points: 2
#     Edge 26, Type (0, 0), BuildingBlock: KIFKEQ_clean_linker_1, # of connection points: 2
#     Edge 27, Type (0, 0), BuildingBlock: KIFKEQ_clean_linker_1, # of connection points: 2
#     Edge 28, Type (0, 0), BuildingBlock: KIFKEQ_clean_linker_1, # of connection points: 2
#     Edge 29, Type (0, 0), BuildingBlock: KIFKEQ_clean_linker_1, # of connection points: 2
#     Edge 30, Type (0, 0), BuildingBlock: KIFKEQ_clean_linker_1, # of connection points: 2
#     Edge 31, Type (0, 0), BuildingBlock: KIFKEQ_clean_linker_1, # of connection points: 2
# Relax obj value: 0.006
# Max RMSD: 0.054
# Mean RMSD: 0.051
data_MOF--net-snk--node1-KUMBUR_clean_sbu_0--edge1-KIFKEQ_clean_linker_1
_symmetry_space_group_name_H-M    P1
_symmetry_Int_Tables_number       1
_symmetry_cell_setting            triclinic
loop_
_symmetry_equiv_pos_as_xyz
'x, y, z'
_cell_length_a     38.526633
_cell_length_b     38.495596
_cell_length_c     24.581393
_cell_angle_alpha  87.949246
_cell_angle_beta   87.960161
_cell_angle_gamma 89.641254
loop_
_atom_site_label
_atom_site_type_symbol
_atom_site_fract_x
_atom_site_fract_y
_atom_site_fract_z
_atom_type_partial_charge
Tb0 Tb 1.00283 0.97785 0.47064 0.0
C1 C 1.00441 0.11574 0.58279 0.0
C2 C 0.06398 0.13476 0.57214 0.0
C3 C 0.01739 0.1775 0.57776 0.0
C4 C 0.03915 0.10794 0.57611 0.0
C5 C 0.99306 0.15056 0.58499 0.0
C6 C 0.05285 0.1696 0.57132 0.0
C7 C 0.93512 0.12933 0.60633 0.0
N8 N 0.98193 0.08893 0.59037 0.0
C9 C 0.94771 0.09522 0.60393 0.0
C10 C 0.95781 0.15715 0.59613 0.0
Tb11 Tb 1.00464 0.03388 0.58356 0.0
N12 N 0.04872 0.07398 0.57841 0.0
C13 C 0.08307 0.06523 0.58195 0.0
C14 C 0.09919 0.12576 0.57167 0.0
C15 C 0.10874 0.09086 0.57776 0.0
H16 H 0.92984 0.07398 0.61141 0.0
H17 H 0.1359 0.08361 0.57895 0.0
H18 H 0.07149 0.19059 0.56763 0.0
H19 H 0.90791 0.13412 0.61588 0.0
H20 H 0.09116 0.03846 0.58628 0.0
H21 H 0.87211 0.9267 0.47617 0.0
H22 H 0.11911 0.14554 0.56857 0.0
H23 H 0.07814 0.93844 0.44281 0.0
H24 H 0.9164 0.97237 0.46858 0.0
H25 H 0.10068 0.87854 0.43882 0.0
H26 H 0.0092 0.20445 0.57875 0.0
H27 H 0.88961 0.86495 0.48625 0.0
H28 H 0.9377 0.82043 0.48718 0.0
H29 H 0.94802 0.18353 0.59819 0.0
H30 H 1.00015 0.80721 0.4763 0.0
N31 N 0.9592 0.93727 0.4758 0.0
C32 C 0.92474 0.94566 0.47272 0.0
C33 C 0.90931 0.88495 0.48298 0.0
C34 C 0.94462 0.87633 0.48233 0.0
C35 C 0.89935 0.91975 0.47707 0.0
C36 C 0.96916 0.90342 0.47817 0.0
H37 H 0.06112 0.82874 0.45693 0.0
N38 N 0.02624 0.92302 0.46439 0.0
C39 C 0.07343 0.88307 0.44846 0.0
C40 C 1.00401 0.89597 0.472 0.0
C41 C 0.06049 0.91706 0.45065 0.0
C42 C 0.05105 0.85503 0.45888 0.0
C43 C 0.01573 0.86127 0.46995 0.0
O44 O 0.02795 0.98125 0.39311 0.0
O45 O 0.02277 0.02634 0.50039 0.0
O46 O 0.97872 0.06293 0.51792 0.0
O47 O 0.96006 0.01674 0.46822 0.0
O48 O 0.056 0.99746 0.45478 0.0
O49 O 0.97237 0.98476 0.40146 0.0
O50 O 0.98008 0.03352 0.66173 0.0
O51 O 0.98442 0.98576 0.55354 0.0
O52 O 0.02841 0.94864 0.53637 0.0
O53 O 0.04729 0.99482 0.58582 0.0
O54 O 0.95151 0.01419 0.60008 0.0
O55 O 0.03483 0.02338 0.65187 0.0
C56 C 0.05343 0.02623 0.47946 0.0
C57 C 0.99602 0.96172 0.32011 0.0
C58 C 0.99552 0.95615 0.22099 0.0
C59 C 0.99701 0.97694 0.26713 0.0
C60 C 0.99302 0.91982 0.22935 0.0
C61 C 0.99296 0.92559 0.32704 0.0
C62 C 0.99152 0.90481 0.28191 0.0
C63 C 0.9586 0.04998 0.48109 0.0
C64 C 0.99903 0.9838 0.36749 0.0
C65 C 0.99167 0.83408 0.47715 0.0
C66 C 0.95613 0.84161 0.48339 0.0
C67 C 0.95388 0.98564 0.57484 0.0
C68 C 0.01567 0.04901 0.73348 0.0
C69 C 0.01077 0.0348 0.78677 0.0
C70 C 0.01915 0.05418 0.83206 0.0
C71 C 0.03196 0.0881 0.82329 0.0
C72 C 0.02825 0.08299 0.72581 0.0
C73 C 0.03624 0.10242 0.7705 0.0
C74 C 0.04855 0.96154 0.57319 0.0
C75 C 0.00892 0.02757 0.68652 0.0
H76 H 0.99872 1.00496 0.26213 0.0
H77 H 0.99277 0.90277 0.1953 0.0
H78 H 0.99189 0.91339 0.36717 0.0
H79 H 0.98953 0.87687 0.28767 0.0
H80 H 1.00132 0.00843 0.7929 0.0
H81 H 0.03839 0.10365 0.85736 0.0
H82 H 0.03227 0.0944 0.68542 0.0
H83 H 0.04603 0.12861 0.76418 0.0
Tb84 Tb 0.28068 0.75058 0.71974 0.0
C85 C 0.14277 0.76878 0.84986 0.0
C86 C 0.12849 0.82948 0.8352 0.0
C87 C 0.08232 0.78726 0.85164 0.0
C88 C 0.15322 0.80238 0.83861 0.0
C89 C 0.10728 0.7608 0.85802 0.0
C90 C 0.09293 0.8216 0.84019 0.0
C91 C 0.12416 0.70219 0.88401 0.0
N92 N 0.16774 0.74425 0.85641 0.0
C93 C 0.15904 0.71156 0.87576 0.0
C94 C 0.0981 0.72678 0.87427 0.0
Tb95 Tb 0.22423 0.76118 0.83998 0.0
N96 N 0.1878 0.80877 0.83499 0.0
C97 C 0.19933 0.84239 0.83249 0.0
C98 C 0.14028 0.86369 0.82888 0.0
C99 C 0.17586 0.87019 0.82849 0.0
H100 H 0.17899 0.69232 0.88321 0.0
H101 H 0.18529 0.89663 0.82488 0.0
H102 H 0.07351 0.84199 0.83702 0.0
H103 H 0.11742 0.67601 0.89787 0.0
H104 H 0.22664 0.84822 0.83181 0.0
H105 H 0.32116 0.61572 0.7325 0.0
H106 H 0.12217 0.88527 0.82588 0.0
H107 H 0.32528 0.82162 0.68358 0.0
H108 H 0.27909 0.66381 0.72686 0.0
H109 H 0.3867 0.83874 0.67057 0.0
H110 H 0.05487 0.78163 0.85713 0.0
H111 H 0.38414 0.6279 0.73116 0.0
H112 H 0.43224 0.67188 0.72134 0.0
H113 H 0.07112 0.71954 0.88099 0.0
H114 H 0.45018 0.73273 0.7043 0.0
N115 N 0.31756 0.70353 0.72385 0.0
C116 C 0.3064 0.66981 0.72604 0.0
C117 C 0.36575 0.64926 0.72868 0.0
C118 C 0.37711 0.68367 0.72321 0.0
C119 C 0.33023 0.64229 0.7293 0.0
C120 C 0.35205 0.71048 0.7205 0.0
H121 H 0.43333 0.79513 0.68431 0.0
N122 N 0.33692 0.76895 0.70593 0.0
C123 C 0.38015 0.81214 0.68226 0.0
C124 C 0.36213 0.74447 0.71115 0.0
C125 C 0.34534 0.80231 0.68955 0.0
C126 C 0.40641 0.78748 0.6902 0.0
C127 C 0.39755 0.753 0.70397 0.0
O128 O 0.2775 0.77428 0.6415 0.0
O129 O 0.23437 0.77453 0.75466 0.0
O130 O 0.19424 0.73314 0.78241 0.0
O131 O 0.23894 0.71181 0.72522 0.0
O132 O 0.264 0.80422 0.70117 0.0
O133 O 0.27201 0.71894 0.65342 0.0
O134 O 0.22595 0.73878 0.91952 0.0
O135 O 0.26974 0.73654 0.80436 0.0
O136 O 0.31082 0.77581 0.78013 0.0
O137 O 0.26555 0.80038 0.83134 0.0
O138 O 0.24117 0.70762 0.85975 0.0
O139 O 0.23725 0.79289 0.90397 0.0
C140 C 0.23568 0.80399 0.73035 0.0
C141 C 0.29529 0.73993 0.56808 0.0
C142 C 0.30136 0.74201 0.4686 0.0
C143 C 0.28062 0.74477 0.51669 0.0
C144 C 0.33685 0.73404 0.47269 0.0
C145 C 0.33065 0.73156 0.57109 0.0
C146 C 0.35128 0.72865 0.52363 0.0
C147 C 0.2063 0.71243 0.74418 0.0
C148 C 0.27368 0.74489 0.61791 0.0
C149 C 0.42278 0.72669 0.70912 0.0
C150 C 0.41257 0.69206 0.7188 0.0
C151 C 0.26888 0.70727 0.82917 0.0
C152 C 0.21231 0.77701 0.99039 0.0
C153 C 0.22519 0.76887 0.04221 0.0
C154 C 0.20659 0.77846 0.09003 0.0
C155 C 0.17468 0.79613 0.08454 0.0
C156 C 0.18035 0.79431 0.98631 0.0
C157 C 0.16166 0.80372 0.03315 0.0
C158 C 0.29877 0.79818 0.81586 0.0
C159 C 0.23296 0.76816 0.94109 0.0
H160 H 0.25331 0.75137 0.51415 0.0
H161 H 0.35335 0.73158 0.4364 0.0
H162 H 0.34237 0.72739 0.60995 0.0
H163 H 0.37858 0.72228 0.52634 0.0
H164 H 0.24966 0.75501 0.04503 0.0
H165 H 0.15993 0.80478 0.11988 0.0
H166 H 0.17001 0.80094 0.94703 0.0
H167 H 0.13716 0.81739 0.02961 0.0
Tb168 Tb 0.50762 0.97499 0.08812 0.0
C169 C 0.4885 0.11288 0.96533 0.0
C170 C 0.42685 0.12391 0.97895 0.0
C171 C 0.4669 0.17235 0.96903 0.0
C172 C 0.45501 0.10037 0.97418 0.0
C173 C 0.49457 0.14902 0.96082 0.0
C174 C 0.43311 0.15981 0.97816 0.0
C175 C 0.55409 0.1366 0.93387 0.0
N176 N 0.51471 0.0897 0.95702 0.0
C177 C 0.54681 0.10108 0.93847 0.0
C178 C 0.52802 0.16069 0.94603 0.0
Tb179 Tb 0.4998 0.03223 0.96896 0.0
N180 N 0.44977 0.06539 0.97447 0.0
C181 C 0.41651 0.05291 0.97316 0.0
C182 C 0.3931 0.11081 0.98243 0.0
C183 C 0.38792 0.07526 0.97827 0.0
H184 H 0.56749 0.08281 0.93053 0.0
H185 H 0.36182 0.06497 0.97906 0.0
H186 H 0.41184 0.17815 0.98263 0.0
H187 H 0.57987 0.14535 0.92123 0.0
H188 H 0.41103 0.02578 0.96954 0.0
H189 H 0.6452 0.94477 0.08142 0.0
H190 H 0.37084 0.128 0.98636 0.0
H191 H 0.44082 0.92403 0.12067 0.0
H192 H 0.59408 0.98288 0.08894 0.0
H193 H 0.42794 0.86107 0.12446 0.0
H194 H 0.47118 0.20017 0.96651 0.0
H195 H 0.63794 0.88144 0.07271 0.0
H196 H 0.59768 0.83022 0.07214 0.0
H197 H 0.5337 0.18822 0.94218 0.0
H198 H 0.5382 0.80728 0.0831 0.0
N199 N 0.55744 0.9419 0.08331 0.0
C200 C 0.59015 0.95536 0.08549 0.0
C201 C 0.61523 0.89808 0.07608 0.0
C202 C 0.58176 0.88416 0.07718 0.0
C203 C 0.61942 0.93378 0.08115 0.0
C204 C 0.55312 0.90703 0.08127 0.0
H205 H 0.47461 0.81859 0.10357 0.0
N206 N 0.49356 0.91719 0.09453 0.0
C207 C 0.45386 0.87004 0.11322 0.0
C208 C 0.51988 0.89419 0.08664 0.0
C209 C 0.4612 0.90563 0.11096 0.0
C210 C 0.48025 0.84615 0.10124 0.0
C211 C 0.51399 0.85807 0.08913 0.0
O212 O 0.48077 0.97265 0.16428 0.0
O213 O 0.48423 0.02198 0.05365 0.0
O214 O 0.53206 0.06014 1.02354 0.0
O215 O 0.54317 0.01877 0.09332 0.0
O216 O 0.45345 0.99106 0.10378 0.0
O217 O 0.53586 0.98146 0.15892 0.0
O218 O 0.50597 0.99963 0.90172 0.0
O219 O 0.52502 0.98746 1.00494 0.0
O220 O 0.48225 0.94646 1.02603 0.0
O221 O 0.45954 0.99239 0.9735 0.0
O222 O 0.55517 0.01988 0.95595 0.0
O223 O 0.48923 0.05208 0.89011 0.0
C224 C 0.4543 0.02012 0.07628 0.0
C225 C 0.51314 0.95246 0.23883 0.0
C226 C 0.51485 0.94254 0.33778 0.0
C227 C 0.51198 0.96532 0.29175 0.0
C228 C 0.51854 0.90665 0.32948 0.0
C229 C 0.51775 0.91675 0.23195 0.0
C230 C 0.52026 0.89401 0.277 0.0
C231 C 0.54752 0.04952 0.06833 0.0
C232 C 0.50879 0.9765 0.19146 0.0
C233 C 0.54218 0.83513 0.08205 0.0
C234 C 0.57605 0.84819 0.07596 0.0
C235 C 0.55538 0.99083 0.98397 0.0
C236 C 0.52207 0.02795 0.81794 0.0
C237 C 0.51099 0.01904 0.7663 0.0
C238 C 0.53294 0.02451 0.7197 0.0
C239 C 0.56602 0.0388 0.72541 0.0
C240 C 0.55556 0.04131 0.82268 0.0
C241 C 0.57729 0.04688 0.77668 0.0
C242 C 0.46113 0.95923 0.98915 0.0
C243 C 0.49836 0.02383 0.86617 0.0
H244 H 0.50925 0.99307 0.29678 0.0
H245 H 0.51984 0.88813 0.36354 0.0
H246 H 0.51925 0.90631 0.19198 0.0
H247 H 0.52338 0.8664 0.27122 0.0
H248 H 0.4853 0.00828 0.76229 0.0
H249 H 0.58348 0.04294 0.69028 0.0
H250 H 0.56504 0.04744 0.86177 0.0
H251 H 0.60303 0.05736 0.78081 0.0
Tb252 Tb 0.28146 0.25695 0.33322 0.0
C253 C 0.14404 0.25244 0.22107 0.0
C254 C 0.12575 0.19267 0.2332 0.0
C255 C 0.0825 0.23871 0.22638 0.0
C256 C 0.15225 0.21783 0.22863 0.0
C257 C 0.10912 0.26334 0.21851 0.0
C258 C 0.09081 0.20338 0.23373 0.0
C259 C 0.12963 0.32136 0.19545 0.0
N260 N 0.17055 0.27522 0.21291 0.0
C261 C 0.16386 0.30922 0.19824 0.0
C262 C 0.10211 0.29841 0.20635 0.0
Tb263 Tb 0.22582 0.25325 0.22035 0.0
N264 N 0.1863 0.20864 0.2266 0.0
C265 C 0.19545 0.17431 0.22397 0.0
C266 C 0.13516 0.15753 0.23454 0.0
C267 C 0.17014 0.14833 0.22873 0.0
H268 H 0.18487 0.3273 0.1902 0.0
H269 H 0.1777 0.12122 0.22823 0.0
H270 H 0.07007 0.18448 0.23788 0.0
H271 H 0.12451 0.34842 0.18506 0.0
H272 H 0.22229 0.16649 0.2199 0.0
H273 H 0.33114 0.38837 0.32352 0.0
H274 H 0.11563 0.13737 0.23811 0.0
H275 H 0.32103 0.18209 0.36362 0.0
H276 H 0.28591 0.34369 0.32962 0.0
H277 H 0.38092 0.16024 0.37133 0.0
H278 H 0.05547 0.24656 0.22514 0.0
H279 H 0.39316 0.37137 0.31985 0.0
H280 H 0.43806 0.32372 0.32379 0.0
H281 H 0.07564 0.30785 0.20399 0.0
H282 H 0.45169 0.26145 0.33676 0.0
N283 N 0.32154 0.30102 0.3278 0.0
C284 C 0.31272 0.33552 0.32813 0.0
C285 C 0.37335 0.35147 0.32243 0.0
C286 C 0.3823 0.31621 0.32519 0.0
C287 C 0.33838 0.36115 0.32465 0.0
C288 C 0.35546 0.29138 0.32829 0.0
H289 H 0.4305 0.20031 0.35554 0.0
N290 N 0.33627 0.23407 0.34194 0.0
C291 C 0.3763 0.1874 0.36097 0.0
C292 C 0.36314 0.25659 0.33552 0.0
C293 C 0.34231 0.19995 0.35663 0.0
C294 C 0.40422 0.21006 0.35186 0.0
C295 C 0.39783 0.24528 0.33989 0.0
O296 O 0.27697 0.2326 0.41128 0.0
O297 O 0.23317 0.23632 0.30398 0.0
O298 O 0.19644 0.27993 0.28498 0.0
O299 O 0.24248 0.2996 0.33383 0.0
O300 O 0.26218 0.20371 0.35042 0.0
O301 O 0.27443 0.2882 0.4015 0.0
O302 O 0.22629 0.27727 0.14178 0.0
O303 O 0.27409 0.2742 0.24933 0.0
O304 O 0.31117 0.23024 0.26913 0.0
O305 O 0.2653 0.21093 0.21933 0.0
O306 O 0.24484 0.30632 0.20256 0.0
O307 O 0.23589 0.22244 0.15258 0.0
C308 C 0.23342 0.20586 0.32571 0.0
C309 C 0.29627 0.26485 0.48403 0.0
C310 C 0.30148 0.26268 0.58298 0.0
C311 C 0.28088 0.26177 0.53679 0.0
C312 C 0.33756 0.26701 0.57566 0.0
C313 C 0.33224 0.26967 0.47782 0.0
C314 C 0.35274 0.27071 0.52338 0.0
C315 C 0.20926 0.30066 0.32112 0.0
C316 C 0.27463 0.26182 0.43614 0.0
C317 C 0.42483 0.26963 0.33407 0.0
C318 C 0.41707 0.30508 0.32671 0.0
C319 C 0.27376 0.30452 0.22686 0.0
C320 C 0.21012 0.2414 0.07085 0.0
C321 C 0.22356 0.24769 1.01743 0.0
C322 C 0.20389 0.23996 0.97197 0.0
C323 C 0.17035 0.2261 0.98141 0.0
C324 C 0.1766 0.22785 0.07888 0.0
C325 C 0.15685 0.22035 0.0344 0.0
C326 C 0.29845 0.20967 0.23269 0.0
C327 C 0.23181 0.24816 0.11752 0.0
H328 H 0.25308 0.25797 0.54189 0.0
H329 H 0.35396 0.26797 0.61046 0.0
H330 H 0.34455 0.27251 0.43794 0.0
H331 H 0.38051 0.27432 0.51815 0.0
H332 H 0.24932 0.25863 1.01154 0.0
H333 H 0.15466 0.21899 0.94793 0.0
H334 H 0.1658 0.22267 0.11939 0.0
H335 H 0.13108 0.20959 0.04101 0.0
Tb336 Tb 0.78209 0.25163 0.21906 0.0
C337 C 0.64288 0.26434 0.34764 0.0
C338 C 0.62624 0.3247 0.33628 0.0
C339 C 0.58176 0.28042 0.34994 0.0
C340 C 0.65201 0.29856 0.33848 0.0
C341 C 0.60771 0.25479 0.35462 0.0
C342 C 0.59102 0.31537 0.34075 0.0
C343 C 0.62671 0.19593 0.3745 0.0
N344 N 0.66876 0.24055 0.35224 0.0
C345 C 0.66122 0.20677 0.36736 0.0
C346 C 0.59979 0.21997 0.36747 0.0
Tb347 Tb 0.72452 0.26037 0.33841 0.0
N348 N 0.6863 0.30639 0.3351 0.0
C349 C 0.69653 0.3404 0.33361 0.0
C350 C 0.63667 0.35943 0.33134 0.0
C351 C 0.67199 0.36731 0.33084 0.0
H352 H 0.68176 0.18788 0.37247 0.0
H353 H 0.68037 0.39411 0.32812 0.0
H354 H 0.57082 0.33502 0.33859 0.0
H355 H 0.6209 0.16903 0.38527 0.0
H356 H 0.72364 0.34716 0.3329 0.0
H357 H 0.8266 0.11798 0.22726 0.0
H358 H 0.61773 0.38031 0.32929 0.0
H359 H 0.82495 0.32468 0.18799 0.0
H360 H 0.78317 0.16484 0.22277 0.0
H361 H 0.88586 0.34381 0.17813 0.0
H362 H 0.55454 0.27362 0.35466 0.0
H363 H 0.88916 0.13197 0.22749 0.0
H364 H 0.93594 0.17745 0.22071 0.0
H365 H 0.57309 0.21154 0.37314 0.0
H366 H 0.95215 0.23905 0.20729 0.0
N367 N 0.8204 0.20569 0.22175 0.0
C368 C 0.81027 0.17166 0.22259 0.0
C369 C 0.87016 0.1528 0.22546 0.0
C370 C 0.8805 0.18759 0.2216 0.0
C371 C 0.83489 0.14482 0.2252 0.0
C372 C 0.85467 0.21366 0.21938 0.0
H373 H 0.93362 0.3013 0.19058 0.0
N374 N 0.83788 0.27185 0.2073 0.0
C375 C 0.88001 0.31679 0.18786 0.0
C376 C 0.86377 0.24805 0.2119 0.0
C377 C 0.84547 0.30579 0.19332 0.0
C378 C 0.9069 0.29274 0.19505 0.0
C379 C 0.89896 0.25775 0.20638 0.0
O380 O 0.77882 0.2756 0.14104 0.0
O381 O 0.73545 0.27496 0.25387 0.0
O382 O 0.69551 0.23485 0.27685 0.0
O383 O 0.74156 0.21151 0.22552 0.0
O384 O 0.76455 0.30512 0.20064 0.0
O385 O 0.7737 0.22023 0.15228 0.0
O386 O 0.72571 0.23752 0.41766 0.0
O387 O 0.77057 0.2366 0.30309 0.0
O388 O 0.81107 0.27619 0.28148 0.0
O389 O 0.76502 0.30055 0.33127 0.0
O390 O 0.74233 0.20702 0.35793 0.0
O391 O 0.73638 0.29193 0.40323 0.0
C392 C 0.7363 0.30454 0.22996 0.0
C393 C 0.79687 0.24175 0.06715 0.0
C394 C 0.80233 0.24173 0.96732 0.0
C395 C 0.78174 0.2444 1.01581 0.0
C396 C 0.83836 0.23633 0.97168 0.0
C397 C 0.83267 0.23588 0.07007 0.0
C398 C 0.85325 0.23321 1.0226 0.0
C399 C 0.7082 0.213 0.2407 0.0
C400 C 0.77518 0.24632 0.11706 0.0
C401 C 0.92492 0.23212 0.2109 0.0
C402 C 0.9157 0.19706 0.21853 0.0
C403 C 0.7701 0.20721 0.32755 0.0
C404 C 0.71165 0.27502 0.48944 0.0
C405 C 0.72548 0.26835 0.54109 0.0
C406 C 0.70682 0.27776 0.58878 0.0
C407 C 0.67394 0.29339 0.58403 0.0
C408 C 0.67869 0.29042 0.48583 0.0
C409 C 0.65995 0.29944 0.5329 0.0
C410 C 0.79845 0.29849 0.31689 0.0
C411 C 0.73234 0.26684 0.43986 0.0
H412 H 0.75394 0.24839 1.01393 0.0
H413 H 0.85534 0.23507 0.93576 0.0
H414 H 0.84478 0.23363 0.1089 0.0
H415 H 0.88096 0.22905 1.02525 0.0
H416 H 0.75105 0.25666 0.54407 0.0
H417 H 0.65891 0.30066 0.61998 0.0
H418 H 0.66758 0.29581 0.44674 0.0
H419 H 0.63456 0.31139 0.52973 0.0
Tb420 Tb 0.78206 0.75699 0.83319 0.0
C421 C 0.64427 0.75603 0.72122 0.0
C422 C 0.62506 0.69651 0.73234 0.0
C423 C 0.58252 0.74326 0.72651 0.0
C424 C 0.65195 0.72126 0.72814 0.0
C425 C 0.60952 0.7675 0.71895 0.0
C426 C 0.59029 0.70777 0.73321 0.0
C427 C 0.63093 0.82529 0.69662 0.0
N428 N 0.67113 0.7784 0.71326 0.0
C429 C 0.66496 0.81258 0.69913 0.0
C430 C 0.60305 0.80274 0.70731 0.0
Tb431 Tb 0.72607 0.75554 0.72028 0.0
N432 N 0.68585 0.71156 0.72574 0.0
C433 C 0.69446 0.67714 0.72226 0.0
C434 C 0.63394 0.66123 0.73291 0.0
C435 C 0.66876 0.65155 0.72666 0.0
H436 H 0.68626 0.83035 0.69129 0.0
H437 H 0.6759 0.62434 0.72553 0.0
H438 H 0.56926 0.68918 0.7371 0.0
H439 H 0.62623 0.85248 0.68663 0.0
H440 H 0.72117 0.66896 0.71781 0.0
H441 H 0.83456 0.88727 0.82775 0.0
H442 H 0.6141 0.64137 0.73618 0.0
H443 H 0.82067 0.68118 0.86104 0.0
H444 H 0.78847 0.84345 0.83524 0.0
H445 H 0.88027 0.65802 0.8652 0.0
H446 H 0.55561 0.75155 0.72549 0.0
H447 H 0.89608 0.86911 0.81786 0.0
H448 H 0.94006 0.82051 0.81711 0.0
H449 H 0.57672 0.81262 0.70517 0.0
H450 H 0.95261 0.75788 0.82804 0.0
N451 N 0.82308 0.80023 0.82811 0.0
C452 C 0.81507 0.83481 0.83116 0.0
C453 C 0.87589 0.84961 0.82107 0.0
C454 C 0.88413 0.81418 0.82177 0.0
C455 C 0.84122 0.85993 0.82688 0.0
C456 C 0.8568 0.78991 0.82585 0.0
H457 H 0.93044 0.6971 0.8473 0.0
N458 N 0.83661 0.73298 0.83957 0.0
C459 C 0.87603 0.68533 0.85557 0.0
C460 C 0.86388 0.75495 0.83205 0.0
C461 C 0.84221 0.69864 0.85328 0.0
C462 C 0.90428 0.70745 0.84527 0.0
C463 C 0.89843 0.74286 0.83421 0.0
O464 O 0.77832 0.73188 0.91072 0.0
O465 O 0.73333 0.73744 0.80362 0.0
O466 O 0.69741 0.78233 0.78544 0.0
O467 O 0.74373 0.80028 0.83549 0.0
O468 O 0.76209 0.70392 0.84895 0.0
O469 O 0.77552 0.78753 0.90237 0.0
O470 O 0.72666 0.78011 0.64209 0.0
O471 O 0.77429 0.77549 0.75028 0.0
O472 O 0.81116 0.73127 0.76744 0.0
O473 O 0.76493 0.71266 0.71795 0.0
O474 O 0.74605 0.80857 0.70361 0.0
O475 O 0.7363 0.72524 0.65199 0.0
C476 C 0.73328 0.70673 0.82452 0.0
C477 C 0.79819 0.76353 0.98379 0.0
C478 C 0.80371 0.76388 0.08294 0.0
C479 C 0.78294 0.76273 0.03674 0.0
C480 C 0.84005 0.76584 0.07467 0.0
C481 C 0.83434 0.76607 0.97696 0.0
C482 C 0.85509 0.76717 1.02214 0.0
C483 C 0.71062 0.80238 0.82217 0.0
C484 C 0.77612 0.76083 0.93635 0.0
C485 C 0.92585 0.76666 0.8271 0.0
C486 C 0.9187 0.8023 0.82083 0.0
C487 C 0.77455 0.80605 0.72892 0.0
C488 C 0.71081 0.74466 0.57039 0.0
C489 C 0.72501 0.74943 0.51709 0.0
C490 C 0.70551 0.74127 0.47183 0.0
C491 C 0.67147 0.72882 0.48066 0.0
C492 C 0.67673 0.73242 0.57813 0.0
C493 C 0.65718 0.72466 0.53347 0.0
C494 C 0.79819 0.71123 0.73053 0.0
C495 C 0.73233 0.7512 0.61732 0.0
H496 H 0.75492 0.76142 0.04167 0.0
H497 H 0.85707 0.76581 0.10876 0.0
H498 H 0.84657 0.76698 0.93686 0.0
H499 H 0.88304 0.76874 1.01645 0.0
H500 H 0.75145 0.75861 0.51092 0.0
H501 H 0.65583 0.72257 0.44662 0.0
H502 H 0.66533 0.7285 0.61854 0.0
H503 H 0.63091 0.71514 0.53983 0.0
Tb504 Tb 0.50227 0.47896 0.9717 0.0
C505 C 0.50626 0.61662 0.08366 0.0
C506 C 0.56595 0.63508 0.07168 0.0
C507 C 0.51983 0.67825 0.0783 0.0
C508 C 0.54087 0.60849 0.07621 0.0
C509 C 0.49528 0.65154 0.08611 0.0
C510 C 0.55515 0.67002 0.07108 0.0
C511 C 0.43733 0.63087 0.10892 0.0
N512 N 0.48357 0.59003 0.09178 0.0
C513 C 0.44955 0.59665 0.10626 0.0
C514 C 0.46019 0.65847 0.0981 0.0
Tb515 Tb 0.50568 0.53477 0.08447 0.0
N516 N 0.55014 0.57444 0.07828 0.0
C517 C 0.58446 0.56537 0.08102 0.0
C518 C 0.60108 0.62574 0.07042 0.0
C519 C 0.61035 0.59076 0.07628 0.0
H520 H 0.43154 0.57557 0.11423 0.0
H521 H 0.63746 0.58326 0.07685 0.0
H522 H 0.57398 0.69082 0.06695 0.0
H523 H 0.41026 0.63593 0.11917 0.0
H524 H 0.59233 0.53852 0.08514 0.0
H525 H 0.37104 0.42902 0.98062 0.0
H526 H 0.62117 0.64534 0.06688 0.0
H527 H 0.57734 0.43936 0.94296 0.0
H528 H 0.4156 0.47435 0.97464 0.0
H529 H 0.59931 0.37942 0.93616 0.0
H530 H 0.5119 0.70528 0.07946 0.0
H531 H 0.38812 0.36698 0.98476 0.0
H532 H 0.43582 0.32211 0.98163 0.0
H533 H 0.45069 0.68494 0.10037 0.0
H534 H 0.49811 0.30853 0.96963 0.0
N535 N 0.4583 0.43877 0.97691 0.0
C536 C 0.42382 0.44754 0.97631 0.0
C537 C 0.40797 0.38684 0.98221 0.0
C538 C 0.44322 0.37793 0.97982 0.0
C539 C 0.39825 0.42182 0.97972 0.0
C540 C 0.46799 0.40483 0.97675 0.0
H541 H 0.55927 0.32977 0.95166 0.0
N542 N 0.52529 0.4241 0.9638 0.0
C543 C 0.57211 0.38404 0.94598 0.0
C544 C 0.50279 0.39719 0.97009 0.0
C545 C 0.55948 0.41805 0.94979 0.0
C546 C 0.54945 0.35608 0.95493 0.0
C547 C 0.51419 0.36246 0.96624 0.0
O548 O 0.52672 0.48282 0.89368 0.0
O549 O 0.52278 0.52739 1.00086 0.0
O550 O 0.479 0.56402 1.01971 0.0
O551 O 0.45957 0.51787 0.97079 0.0
O552 O 0.55546 0.49833 0.95466 0.0
O553 O 0.4712 0.48615 0.90325 0.0
O554 O 0.48179 0.53458 0.16312 0.0
O555 O 0.48482 0.4865 0.05539 0.0
O556 O 0.52843 0.44931 0.03649 0.0
O557 O 0.54801 0.49535 0.08561 0.0
O558 O 0.4527 0.51554 0.10235 0.0
O559 O 0.53645 0.52437 0.15216 0.0
C560 C 0.55325 0.52716 0.97922 0.0
C561 C 0.49426 0.46374 0.82093 0.0
C562 C 0.49398 0.45866 0.72169 0.0
C563 C 0.49574 0.4792 0.76809 0.0
C564 C 0.4908 0.42236 0.72963 0.0
C565 C 0.49047 0.42767 0.82738 0.0
C566 C 0.48882 0.40714 0.78201 0.0
C567 C 0.45835 0.5511 0.98356 0.0
C568 C 0.49758 0.48549 0.86869 0.0
C569 C 0.48987 0.33542 0.97194 0.0
C570 C 0.45441 0.34315 0.97874 0.0
C571 C 0.45455 0.48666 0.07789 0.0
C572 C 0.51797 0.55016 0.23406 0.0
C573 C 0.51247 0.53636 0.28748 0.0
C574 C 0.52112 0.55577 0.33261 0.0
C575 C 0.53479 0.58933 0.32353 0.0
C576 C 0.53144 0.58378 0.22608 0.0
C577 C 0.53968 0.60325 0.2706 0.0
C578 C 0.54897 0.46207 0.07293 0.0
C579 C 0.51084 0.52866 0.18731 0.0
H580 H 0.49803 0.50719 0.76339 0.0
H581 H 0.49035 0.40548 0.69539 0.0
H582 H 0.48898 0.41529 0.86731 0.0
H583 H 0.48629 0.37923 0.78746 0.0
H584 H 0.50233 0.51027 0.29385 0.0
H585 H 0.54145 0.6049 0.35746 0.0
H586 H 0.53595 0.59488 0.18559 0.0
H587 H 0.55014 0.62916 0.26405 0.0
Tb588 Tb 0.00878 0.47843 0.5836 0.0
C589 C 0.9958 0.61752 0.45455 0.0
C590 C 0.93548 0.63416 0.46593 0.0
C591 C 0.97969 0.67869 0.4519 0.0
C592 C 0.96161 0.60838 0.46384 0.0
C593 C 0.00531 0.65272 0.44736 0.0
C594 C 0.94478 0.66941 0.46121 0.0
C595 C 0.06414 0.63371 0.42761 0.0
N596 N 0.0196 0.59164 0.45014 0.0
C597 C 0.05335 0.59917 0.43499 0.0
C598 C 0.0401 0.66065 0.43444 0.0
Tb599 Tb 0.99981 0.53585 0.46415 0.0
N600 N 0.9538 0.57407 0.46746 0.0
C601 C 0.91983 0.5638 0.46907 0.0
C602 C 0.90079 0.62371 0.471 0.0
C603 C 0.89293 0.58835 0.47175 0.0
H604 H 0.07224 0.57862 0.43001 0.0
H605 H 0.86616 0.57996 0.47457 0.0
H606 H 0.92513 0.68962 0.46327 0.0
H607 H 0.09101 0.63953 0.41678 0.0
H608 H 0.91309 0.53666 0.46995 0.0
H609 H 0.14242 0.4342 0.574 0.0
H610 H 0.87992 0.64266 0.47297 0.0
H611 H 0.93605 0.43544 0.61596 0.0
H612 H 0.09552 0.47757 0.57884 0.0
H613 H 0.91712 0.37447 0.62664 0.0
H614 H 0.98646 0.70592 0.447 0.0
H615 H 0.12856 0.37154 0.57439 0.0
H616 H 0.08326 0.32463 0.5822 0.0
H617 H 0.0485 0.68737 0.42859 0.0
H618 H 0.02181 0.30829 0.59666 0.0
N619 N 0.05477 0.4402 0.58059 0.0
C620 C 0.08876 0.45043 0.57926 0.0
C621 C 0.10771 0.39052 0.57655 0.0
C622 C 0.073 0.38009 0.58096 0.0
C623 C 0.11562 0.42584 0.57646 0.0
C624 C 0.04689 0.40589 0.58332 0.0
H625 H 0.95965 0.32673 0.61407 0.0
N626 N 0.98876 0.42258 0.59607 0.0
C627 C 0.94406 0.38036 0.61649 0.0
C628 C 0.01259 0.39671 0.59138 0.0
C629 C 0.95494 0.41494 0.61055 0.0
C630 C 0.96811 0.35348 0.60923 0.0
C631 C 1.003 0.36148 0.59735 0.0
O632 O 0.98501 0.48208 0.6617 0.0
O633 O 0.9853 0.52502 0.54873 0.0
O634 O 0.02522 0.56506 0.52566 0.0
O635 O 0.0488 0.51905 0.57673 0.0
O636 O 0.95531 0.49588 0.60215 0.0
O637 O 0.04035 0.48683 0.65013 0.0
O638 O 0.02253 0.53469 0.38483 0.0
O639 O 0.02356 0.48971 0.49938 0.0
O640 O 0.98393 0.44927 0.52171 0.0
O641 O 0.95971 0.49524 0.47142 0.0
O642 O 0.05309 0.51798 0.44456 0.0
O643 O 0.96816 0.52403 0.39945 0.0
C644 C 0.95575 0.52411 0.57272 0.0
C645 C 0.01888 0.46396 0.73548 0.0
C646 C 0.01697 0.45816 0.83504 0.0
C647 C 0.01478 0.47891 0.78681 0.0
C648 C 0.02372 0.42239 0.8311 0.0
C649 C 0.02595 0.4283 0.73266 0.0
C650 C 0.02838 0.40767 0.78023 0.0
C651 C 0.04704 0.55246 0.56191 0.0
C652 C 0.01435 0.48559 0.68548 0.0
C653 C 0.02864 0.33554 0.5927 0.0
C654 C 0.06362 0.34485 0.58448 0.0
C655 C 0.05289 0.49013 0.47483 0.0
C656 C 0.98496 0.54891 0.31321 0.0
C657 C 0.99277 0.53564 0.2615 0.0
C658 C 0.98381 0.55442 0.21346 0.0
C659 C 0.96707 0.58686 0.21864 0.0
C660 C 0.9686 0.58138 0.31692 0.0
C661 C 0.9598 0.60022 0.26988 0.0
C662 C 0.96166 0.46183 0.48623 0.0
C663 C 0.99318 0.52813 0.36274 0.0
H664 H 0.0091 0.50645 0.7892 0.0
H665 H 0.02576 0.40586 0.86746 0.0
H666 H 0.0294 0.41634 0.69383 0.0
H667 H 0.03376 0.38014 0.77767 0.0
H668 H 0.00589 0.51074 0.25894 0.0
H669 H 0.9589 0.60178 0.18315 0.0
H670 H 0.96226 0.59203 0.35607 0.0
H671 H 0.94686 0.62514 0.27316 0.0
H672 H 0.03803 0.09507 0.44567 0.0
H673 H 0.12342 0.0248 0.47229 0.0
H674 H 0.07862 0.13893 0.40611 0.0
H675 H 0.164 0.06843 0.43784 0.0
H676 H 0.23527 0.13588 0.33572 0.0
H677 H 0.19162 0.09544 0.37049 0.0
H678 H 0.1204 0.18091 0.39771 0.0
H679 H 0.16435 0.2213 0.35789 0.0
C680 C 0.06557 0.08923 0.44427 0.0
C681 C 0.0773 0.0562 0.46273 0.0
C682 C 0.0892 0.11455 0.42135 0.0
C683 C 0.12552 0.10793 0.41652 0.0
C684 C 0.13676 0.07514 0.43748 0.0
C685 C 0.11325 0.04981 0.45865 0.0
C686 C 0.21012 0.1461 0.34848 0.0
C687 C 0.20355 0.182 0.34301 0.0
C688 C 0.18475 0.12268 0.36982 0.0
C689 C 0.15173 0.134 0.38956 0.0
C690 C 0.14497 0.17026 0.38344 0.0
C691 C 0.17034 0.19378 0.36038 0.0
H692 H 0.05513 0.8905 0.56757 0.0
H693 H 0.09943 0.97873 0.64297 0.0
H694 H 0.09865 0.85261 0.60832 0.0
H695 H 0.14178 0.94063 0.68618 0.0
H696 H 0.23856 0.87188 0.69986 0.0
H697 H 0.19262 0.90924 0.66494 0.0
H698 H 0.11975 0.82463 0.68824 0.0
H699 H 0.16658 0.78686 0.72105 0.0
C700 C 0.07415 0.90191 0.59276 0.0
C701 C 0.07408 0.93797 0.60068 0.0
C702 C 0.09892 0.87998 0.61699 0.0
C703 C 0.12421 0.89334 0.65049 0.0
C704 C 0.12338 0.92928 0.65977 0.0
C705 C 0.0988 0.95124 0.63517 0.0
C706 C 0.21261 0.8614 0.69798 0.0
C707 C 0.20604 0.8267 0.7145 0.0
C708 C 0.18609 0.88291 0.67825 0.0
C709 C 0.15208 0.87031 0.6739 0.0
C710 C 0.14554 0.83537 0.69042 0.0
C711 C 0.17226 0.81376 0.71005 0.0
H712 H 0.36969 0.79864 0.80382 0.0
H713 H 0.28327 0.85113 0.88347 0.0
H714 H 0.40986 0.83794 0.84489 0.0
H715 H 0.32352 0.88962 0.92512 0.0
H716 H 0.40901 0.92167 0.0381 0.0
H717 H 0.37058 0.8813 0.99523 0.0
H718 H 0.42234 0.90429 0.83936 0.0
H719 H 0.46118 0.94431 0.88284 0.0
C720 C 0.35921 0.81871 0.82946 0.0
C721 C 0.32325 0.822 0.83981 0.0
C722 C 0.38222 0.84106 0.85307 0.0
C723 C 0.36962 0.8666 0.88809 0.0
C724 C 0.33378 0.86985 0.89859 0.0
C725 C 0.31079 0.84785 0.87454 0.0
C726 C 0.41249 0.9175 0.99498 0.0
C727 C 0.43812 0.93533 0.96366 0.0
C728 C 0.39034 0.89485 0.97038 0.0
C729 C 0.39371 0.88977 0.91415 0.0
C730 C 0.41956 0.9076 0.88288 0.0
C731 C 0.44149 0.93052 0.90751 0.0
H732 H 0.47274 0.08833 0.09033 0.0
H733 H 0.38606 0.01809 0.10562 0.0
H734 H 0.43567 0.13544 0.12401 0.0
H735 H 0.34931 0.06427 0.14147 0.0
H736 H 0.36919 0.2014 0.24157 0.0
H737 H 0.40676 0.15699 0.20238 0.0
H738 H 0.3193 0.11582 0.12077 0.0
H739 H 0.2815 0.15898 0.1624 0.0
C740 C 0.44564 0.08309 0.1004 0.0
C741 C 0.43202 0.04977 0.09376 0.0
C742 C 0.4244 0.10997 0.12051 0.0
C743 C 0.38913 0.10405 0.13544 0.0
C744 C 0.37592 0.0704 0.12935 0.0
C745 C 0.39707 0.04371 0.1091 0.0
C746 C 0.35782 0.18261 0.2159 0.0
C747 C 0.32197 0.18351 0.20641 0.0
C748 C 0.37959 0.1573 0.19259 0.0
C749 C 0.3663 0.13228 0.15846 0.0
C750 C 0.33059 0.13392 0.14774 0.0
C751 C 0.30881 0.15901 0.17143 0.0
H752 H 0.88392 0.98678 0.5824 0.0
H753 H 0.96971 0.91686 0.6083 0.0
H754 H 0.84362 0.94299 0.61752 0.0
H755 H 0.9294 0.87284 0.64831 0.0
H756 H 0.84322 0.79021 0.6952 0.0
H757 H 0.88719 0.83063 0.65531 0.0
H758 H 0.8173 0.91645 0.68725 0.0
H759 H 0.77355 0.87607 0.72222 0.0
C760 C 0.89423 0.96181 0.59595 0.0
C761 C 0.9302 0.95555 0.59155 0.0
C762 C 0.87092 0.93642 0.61748 0.0
C763 C 0.8824 0.90372 0.63839 0.0
C764 C 0.9187 0.89719 0.63312 0.0
C765 C 0.94214 0.92258 0.60994 0.0
C766 C 0.83755 0.81781 0.69385 0.0
C767 C 0.80467 0.82975 0.71249 0.0
C768 C 0.86291 0.84132 0.67073 0.0
C769 C 0.85642 0.87767 0.6658 0.0
C770 C 0.82382 0.88913 0.68701 0.0
C771 C 0.79846 0.86576 0.70847 0.0
H772 H 0.95111 0.12086 0.48797 0.0
H773 H 0.90827 0.03274 0.41035 0.0
H774 H 0.9073 0.1585 0.4476 0.0
H775 H 0.86568 0.07065 0.36733 0.0
H776 H 0.83902 0.2248 0.33771 0.0
H777 H 0.88615 0.18709 0.36898 0.0
H778 H 0.8144 0.10123 0.3874 0.0
H779 H 0.76813 0.13864 0.35363 0.0
C780 C 0.93234 0.10941 0.46236 0.0
C781 C 0.9329 0.07344 0.45374 0.0
C782 C 0.90741 0.13123 0.4383 0.0
C783 C 0.88245 0.11786 0.40419 0.0
C784 C 0.88379 0.08201 0.39422 0.0
C785 C 0.90851 0.06016 0.41871 0.0
C786 C 0.83364 0.19765 0.34703 0.0
C787 C 0.80007 0.18443 0.34154 0.0
C788 C 0.86056 0.17604 0.36593 0.0
C789 C 0.85443 0.14079 0.38088 0.0
C790 C 0.82066 0.12784 0.37532 0.0
C791 C 0.79393 0.14936 0.35621 0.0
H792 H 0.72454 0.16238 0.16907 0.0
H793 H 0.63747 0.21025 0.25432 0.0
H794 H 0.68488 0.12341 0.12676 0.0
H795 H 0.59809 0.17037 0.21298 0.0
H796 H 0.55137 0.06169 0.17551 0.0
H797 H 0.58995 0.1024 0.21775 0.0
H798 H 0.63453 0.13188 0.05921 0.0
H799 H 0.59619 0.09104 1.0172 0.0
C800 C 0.69703 0.16452 0.17911 0.0
C801 C 0.68421 0.18913 0.21575 0.0
C802 C 0.6744 0.14227 0.1547 0.0
C803 C 0.63864 0.14399 0.16693 0.0
C804 C 0.6257 0.16843 0.20352 0.0
C805 C 0.64828 0.19108 0.22733 0.0
C806 C 0.56945 0.07695 0.14989 0.0
C807 C 0.57072 0.07376 0.0932 0.0
C808 C 0.59122 0.10028 0.17389 0.0
C809 C 0.61493 0.12017 0.14152 0.0
C810 C 0.61638 0.11672 0.08485 0.0
C811 C 0.59426 0.09376 0.06081 0.0
H812 H 0.72859 0.85295 0.89222 0.0
H813 H 0.64003 0.81137 0.8143 0.0
H814 H 0.69134 0.89638 0.93456 0.0
H815 H 0.60314 0.85605 0.85368 0.0
H816 H 0.53745 0.92317 0.96593 0.0
H817 H 0.57464 0.8768 0.93127 0.0
H818 H 0.66101 0.94814 0.91762 0.0
H819 H 0.62398 0.9937 0.95522 0.0
C820 C 0.70122 0.85319 0.88358 0.0
C821 C 0.68762 0.82881 0.8488 0.0
C822 C 0.67976 0.87845 0.90763 0.0
C823 C 0.64397 0.88034 0.89745 0.0
C824 C 0.63035 0.85554 0.86326 0.0
C825 C 0.65175 0.83007 0.83973 0.0
C826 C 0.56458 0.92865 0.95668 0.0
C827 C 0.57806 0.96179 0.96513 0.0
C828 C 0.58592 0.90217 0.93583 0.0
C829 C 0.62122 0.9083 0.92151 0.0
C830 C 0.63437 0.94183 0.92921 0.0
C831 C 0.61307 0.96816 0.95047 0.0
H832 H 0.62319 0.52527 0.96943 0.0
H833 H 0.53796 0.59634 0.94679 0.0
H834 H 0.66369 0.56884 0.93451 0.0
H835 H 0.57843 0.64021 0.90686 0.0
H836 H 0.66448 0.72243 0.85835 0.0
H837 H 0.62054 0.68199 0.89817 0.0
H838 H 0.69074 0.59628 0.867 0.0
H839 H 0.73443 0.63669 0.83224 0.0
C840 C 0.61302 0.55044 0.95655 0.0
C841 C 0.57715 0.55705 0.96191 0.0
C842 C 0.63648 0.57576 0.93511 0.0
C843 C 0.62525 0.6088 0.91519 0.0
C844 C 0.58902 0.61563 0.92125 0.0
C845 C 0.56545 0.59029 0.94438 0.0
C846 C 0.67025 0.69485 0.85993 0.0
C847 C 0.70321 0.68299 0.8415 0.0
C848 C 0.64488 0.6713 0.88301 0.0
C849 C 0.65138 0.63494 0.88808 0.0
C850 C 0.68411 0.62357 0.86719 0.0
C851 C 0.70948 0.64698 0.84583 0.0
H852 H 0.66727 0.2871 0.2197 0.0
H853 H 0.73863 0.37283 0.20206 0.0
H854 H 0.62042 0.32477 0.18691 0.0
H855 H 0.69266 0.41012 0.1671 0.0
H856 H 0.59922 0.47899 0.14388 0.0
H857 H 0.64142 0.44093 0.18736 0.0
H858 H 0.59978 0.3532 0.10689 0.0
H859 H 0.55636 0.39109 0.06568 0.0
C860 C 0.67281 0.31413 0.20961 0.0
C861 C 0.70646 0.32725 0.21494 0.0
C862 C 0.64606 0.3357 0.18993 0.0
C863 C 0.65242 0.37081 0.17422 0.0
C864 C 0.68624 0.38364 0.17971 0.0
C865 C 0.71279 0.36217 0.1995 0.0
C866 C 0.59888 0.45157 0.13549 0.0
C867 C 0.57457 0.43841 0.10021 0.0
C868 C 0.62338 0.42964 0.16029 0.0
C869 C 0.62459 0.39378 0.15044 0.0
C870 C 0.59974 0.38049 0.11605 0.0
C871 C 0.57503 0.40243 0.09158 0.0
H872 H 0.90486 0.47808 0.42724 0.0
H873 H 0.96475 0.3909 0.48961 0.0
H874 H 0.86584 0.43816 0.38576 0.0
H875 H 0.92509 0.35099 0.44896 0.0
H876 H 0.86931 0.29515 0.3144 0.0
H877 H 0.90911 0.33477 0.35538 0.0
H878 H 0.82191 0.39432 0.4176 0.0
H879 H 0.78211 0.35534 0.37577 0.0
C880 C 0.90962 0.45043 0.43236 0.0
C881 C 0.93773 0.43763 0.46204 0.0
C882 C 0.88715 0.4276 0.40884 0.0
C883 C 0.89246 0.39157 0.41436 0.0
C884 C 0.92062 0.37871 0.44381 0.0
C885 C 0.94308 0.40155 0.4675 0.0
C886 C 0.85863 0.31687 0.33638 0.0
C887 C 0.82259 0.32233 0.34141 0.0
C888 C 0.88141 0.3393 0.36027 0.0
C889 C 0.8685 0.36755 0.3895 0.0
C890 C 0.8325 0.37294 0.39468 0.0
C891 C 0.80974 0.3505 0.37095 0.0
H892 H 0.78093 0.66076 0.65994 0.0
H893 H 0.86915 0.7042 0.73634 0.0
H894 H 0.81889 0.61856 0.61607 0.0
H895 H 0.9069 0.66083 0.69493 0.0
H896 H 0.88754 0.52155 0.60081 0.0
H897 H 0.8501 0.56746 0.63564 0.0
H898 H 0.93506 0.64011 0.61517 0.0
H899 H 0.97286 0.59333 0.58258 0.0
C900 C 0.80839 0.66123 0.66783 0.0
C901 C 0.82168 0.68569 0.70277 0.0
C902 C 0.83028 0.63673 0.64283 0.0
C903 C 0.8662 0.6357 0.65213 0.0
C904 C 0.87957 0.66071 0.68616 0.0
C905 C 0.8577 0.6854 0.71079 0.0
C906 C 0.89808 0.54746 0.6032 0.0
C907 C 0.93294 0.55392 0.58766 0.0
C908 C 0.87652 0.57398 0.62292 0.0
C909 C 0.8892 0.60791 0.62822 0.0
C910 C 0.92423 0.61439 0.61234 0.0
C911 C 0.94589 0.58767 0.59276 0.0
H912 H 0.26756 0.37114 0.19244 0.0
H913 H 0.34644 0.29283 0.21362 0.0
H914 H 0.30965 0.41091 0.15327 0.0
H915 H 0.39083 0.3345 0.17938 0.0
H916 H 0.46672 0.41403 0.09122 0.0
H917 H 0.42539 0.36931 0.12538 0.0
H918 H 0.3484 0.45 0.15115 0.0
H919 H 0.38787 0.49242 0.11204 0.0
C920 C 0.29444 0.36269 0.19035 0.0
C921 C 0.30323 0.32881 0.20847 0.0
C922 C 0.3194 0.38614 0.16808 0.0
C923 C 0.35521 0.37762 0.16376 0.0
C924 C 0.36411 0.34318 0.18147 0.0
C925 C 0.33854 0.31908 0.20244 0.0
C926 C 0.44042 0.42175 0.10228 0.0
C927 C 0.43044 0.45701 0.09617 0.0
C928 C 0.41651 0.39599 0.12322 0.0
C929 C 0.38202 0.40465 0.14083 0.0
C930 C 0.37324 0.44042 0.13642 0.0
C931 C 0.39651 0.46557 0.11418 0.0
H932 H 0.40722 0.53359 0.91453 0.0
H933 H 0.45088 0.6221 0.99006 0.0
H934 H 0.36424 0.57127 0.8721 0.0
H935 H 0.4067 0.65959 0.95004 0.0
H936 H 0.26675 0.63914 0.8586 0.0
H937 H 0.3131 0.6021 0.89316 0.0
H938 H 0.38507 0.68753 0.87067 0.0
H939 H 0.33792 0.72489 0.83845 0.0
C940 C 0.40756 0.56106 0.92256 0.0
C941 C 0.43233 0.57451 0.95681 0.0
C942 C 0.38261 0.58277 0.89839 0.0
C943 C 0.38141 0.61868 0.90786 0.0
C944 C 0.4067 0.63224 0.9412 0.0
C945 C 0.43185 0.61053 0.96502 0.0
C946 C 0.2926 0.64985 0.86051 0.0
C947 C 0.2988 0.68468 0.84432 0.0
C948 C 0.31937 0.62854 0.88007 0.0
C949 C 0.35325 0.64147 0.88461 0.0
C950 C 0.35941 0.67651 0.86837 0.0
C951 C 0.33246 0.69791 0.84896 0.0
H952 H 0.16195 0.66548 0.79342 0.0
H953 H 0.19669 0.70871 0.63666 0.0
H954 H 0.12181 0.6275 0.74888 0.0
H955 H 0.15664 0.67067 0.59187 0.0
H956 H 0.04995 0.62326 0.54779 0.0
H957 H 0.08819 0.66297 0.592 0.0
H958 H 0.13311 0.57646 0.68177 0.0
H959 H 0.09591 0.53648 0.6366 0.0
C960 C 0.16048 0.66721 0.7496 0.0
C961 C 0.18185 0.69005 0.7183 0.0
C962 C 0.13792 0.64532 0.72415 0.0
C963 C 0.13626 0.64643 0.66715 0.0
C964 C 0.15737 0.66966 0.63592 0.0
C965 C 0.1803 0.69113 0.66137 0.0
C966 C 0.06834 0.61259 0.5762 0.0
C967 C 0.07022 0.57664 0.58799 0.0
C968 C 0.09002 0.63535 0.60167 0.0
C969 C 0.11335 0.62258 0.64015 0.0
C970 C 0.11504 0.58681 0.65246 0.0
C971 C 0.09382 0.56399 0.62637 0.0
H972 H 0.13834 0.3082 0.31412 0.0
H973 H 0.2265 0.35145 0.39096 0.0
H974 H 0.10076 0.35225 0.35431 0.0
H975 H 0.18874 0.39423 0.43364 0.0
H976 H 0.03503 0.42113 0.46499 0.0
H977 H 0.0724 0.37385 0.43316 0.0
H978 H 0.15825 0.44547 0.41316 0.0
H979 H 0.12122 0.49189 0.4474 0.0
C980 C 0.1498 0.32711 0.33948 0.0
C981 C 0.18577 0.32658 0.34797 0.0
C982 C 0.12804 0.35218 0.36341 0.0
C983 C 0.14148 0.37732 0.39719 0.0
C984 C 0.17732 0.37601 0.40699 0.0
C985 C 0.19909 0.35117 0.38267 0.0
C986 C 0.06211 0.42646 0.45517 0.0
C987 C 0.07544 0.46005 0.46037 0.0
C988 C 0.08352 0.39944 0.43596 0.0
C989 C 0.11868 0.40548 0.42046 0.0
C990 C 0.13172 0.43928 0.42567 0.0
C991 C 0.11041 0.46609 0.44506 0.0
H992 H 0.06723 0.05224 0.91074 0.0
H993 H 0.96212 0.02249 0.8806 0.0
H994 H 0.06085 0.02896 1.00393 0.0
H995 H 0.95478 1.00067 0.97476 0.0
H996 H 0.96253 0.93456 0.13069 0.0
H997 H 0.96878 0.95699 0.03754 0.0
H998 H 0.03604 0.03798 0.08953 0.0
H999 H 0.03227 0.01361 0.18198 0.0
C1000 C 0.0426 0.04094 0.92439 0.0
C1001 C 0.01518 0.03915 0.88847 0.0
C1002 C 0.03877 0.02781 0.97805 0.0
C1003 C 0.00716 0.01304 0.99762 0.0
C1004 C 0.97972 0.01126 0.96133 0.0
C1005 C 0.9838 0.02388 0.9073 0.0
C1006 C 0.97914 0.95684 0.12233 0.0
C1007 C 0.99721 0.97188 0.16433 0.0
C1008 C 0.98226 0.97016 0.06867 0.0
C1009 C 1.00306 0.99937 0.05533 0.0
C1010 C 0.02033 0.01504 0.09762 0.0
C1011 C 0.01765 1.00137 0.15118 0.0
H1012 H 0.24367 0.71197 0.42924 0.0
H1013 H 0.32558 0.78449 0.38486 0.0
H1014 H 0.22132 0.71857 0.33774 0.0
H1015 H 0.30252 0.79269 0.29434 0.0
H1016 H 0.27474 0.77814 0.12064 0.0
H1017 H 0.29701 0.7676 0.21087 0.0
H1018 H 0.19217 0.75433 0.27662 0.0
H1019 H 0.17018 0.76179 0.18576 0.0
C1020 C 0.25655 0.72974 0.40002 0.0
C1021 C 0.2864 0.74762 0.41405 0.0
C1022 C 0.24371 0.73368 0.34751 0.0
C1023 C 0.26009 0.7561 0.30797 0.0
C1024 C 0.2896 0.77451 0.3228 0.0
C1025 C 0.30273 0.77008 0.37493 0.0
C1026 C 0.2564 0.77224 0.15403 0.0
C1027 C 0.22052 0.77101 0.14538 0.0
C1028 C 0.2692 0.7668 0.20629 0.0
C1029 C 0.2465 0.76045 0.25174 0.0
C1030 C 0.21066 0.75878 0.24295 0.0
C1031 C 0.19792 0.76368 0.1906 0.0
H1032 H 0.51064 0.96105 0.69032 0.0
H1033 H 0.53293 0.06458 0.626 0.0
H1034 H 0.50254 0.94167 0.59767 0.0
H1035 H 0.5243 0.04537 0.53349 0.0
H1036 H 0.47726 0.99756 0.37937 0.0
H1037 H 0.47676 0.01847 0.47225 0.0
H1038 H 0.54929 0.93766 0.5177 0.0
H1039 H 0.55143 0.9178 0.42492 0.0
C1040 C 0.51296 0.97979 0.65646 0.0
C1041 C 0.52251 0.01423 0.66512 0.0
C1042 C 0.50857 0.96869 0.60355 0.0
C1043 C 0.513 0.99201 0.5585 0.0
C1044 C 0.52059 0.02693 0.56749 0.0
C1045 C 0.52562 0.03786 0.62028 0.0
C1046 C 0.49348 0.98448 0.40884 0.0
C1047 C 0.51424 0.95576 0.39428 0.0
C1048 C 0.49293 0.99632 0.46214 0.0
C1049 C 0.51261 0.97935 0.50222 0.0
C1050 C 0.53328 0.95076 0.48786 0.0
C1051 C 0.53435 0.93933 0.43456 0.0
H1052 H 0.27149 0.23193 0.93387 0.0
H1053 H 0.16921 0.26024 0.87998 0.0
H1054 H 0.29447 0.23909 0.841 0.0
H1055 H 0.19157 0.26439 0.78654 0.0
H1056 H 0.24728 0.29945 0.62749 0.0
H1057 H 0.22435 0.29603 0.72141 0.0
H1058 H 0.29681 0.21277 0.75768 0.0
H1059 H 0.32064 0.21773 0.66467 0.0
C1060 C 0.25382 0.23976 0.90239 0.0
C1061 C 0.21834 0.24534 0.91495 0.0
C1062 C 0.26694 0.24325 0.84863 0.0
C1063 C 0.24493 0.25194 0.80557 0.0
C1064 C 0.20955 0.25799 0.81827 0.0
C1065 C 0.19654 0.25502 0.87211 0.0
C1066 C 0.25808 0.28036 0.65568 0.0
C1067 C 0.28578 0.25895 0.63894 0.0
C1068 C 0.24491 0.27825 0.70958 0.0
C1069 C 0.25874 0.25422 0.74781 0.0
C1070 C 0.28597 0.23224 0.73024 0.0
C1071 C 0.2995 0.23481 0.6767 0.0
H1072 H 0.82169 0.20823 0.87376 0.0
H1073 H 0.74751 0.2832 0.93526 0.0
H1074 H 0.79993 0.21733 0.78308 0.0
H1075 H 0.72365 0.28999 0.8454 0.0
H1076 H 0.71176 0.32446 0.66886 0.0
H1077 H 0.73431 0.3151 0.75949 0.0
H1078 H 0.75578 0.20763 0.72411 0.0
H1079 H 0.73472 0.21786 0.63238 0.0
C1080 C 0.80062 0.2266 0.86819 0.0
C1081 C 0.78679 0.24526 0.91231 0.0
C1082 C 0.78765 0.23139 0.81596 0.0
C1083 C 0.75998 0.25457 0.8062 0.0
C1084 C 0.74544 0.27245 0.85065 0.0
C1085 C 0.75878 0.26806 0.90277 0.0
C1086 C 0.7214 0.29887 0.68056 0.0
C1087 C 0.7215 0.2719 0.64355 0.0
C1088 C 0.73411 0.29334 0.73281 0.0
C1089 C 0.74675 0.26046 0.74993 0.0
C1090 C 0.74687 0.23348 0.71255 0.0
C1091 C 0.73468 0.23923 0.65989 0.0
H1092 H 0.70666 0.69325 0.39301 0.0
H1093 H 0.73795 0.79794 0.42334 0.0
H1094 H 0.72995 0.6994 0.29983 0.0
H1095 H 0.75981 0.80507 0.3292 0.0
H1096 H 0.82575 0.79648 0.17332 0.0
H1097 H 0.80324 0.79047 0.26644 0.0
H1098 H 0.7213 0.72446 0.21424 0.0
H1099 H 0.74572 0.72796 0.12182 0.0
C1100 C 0.71829 0.71774 0.37941 0.0
C1101 C 0.72051 0.74511 0.4154 0.0
C1102 C 0.73144 0.72145 0.32575 0.0
C1103 C 0.74666 0.75287 0.30624 0.0
C1104 C 0.74887 0.78026 0.34258 0.0
C1105 C 0.73622 0.77629 0.39661 0.0
C1106 C 0.80324 0.78019 0.18163 0.0
C1107 C 0.78795 0.76238 0.13958 0.0
C1108 C 0.78988 0.77722 0.23527 0.0
C1109 C 0.76038 0.75683 0.24854 0.0
C1110 C 0.74446 0.73984 0.2062 0.0
C1111 C 0.75817 0.74237 0.15266 0.0
H1112 H 0.4607 0.43804 0.63111 0.0
H1113 H 0.53185 0.51555 0.68322 0.0
H1114 H 0.46771 0.4604 0.53806 0.0
H1115 H 0.53643 0.53994 0.59078 0.0
H1116 H 0.5687 0.55324 0.41207 0.0
H1117 H 0.56137 0.53044 0.5054 0.0
H1118 H 0.45491 0.50424 0.47503 0.0
H1119 H 0.46318 0.52555 0.38076 0.0
C1120 C 0.47778 0.45997 0.62294 0.0
C1121 C 0.49605 0.47456 0.66514 0.0
C1122 C 0.48134 0.47327 0.56933 0.0
C1123 C 0.50279 0.50204 0.55621 0.0
C1124 C 0.52022 0.51733 0.5987 0.0
C1125 C 0.51709 0.50366 0.65225 0.0
C1126 C 0.54378 0.54251 0.42548 0.0
C1127 C 0.51652 0.54113 0.38918 0.0
C1128 C 0.53941 0.52966 0.47923 0.0
C1129 C 0.50742 0.51558 0.49849 0.0
C1130 C 0.48013 0.51427 0.46185 0.0
C1131 C 0.48475 0.5266 0.40775 0.0
H1132 H 0.0487 0.51511 0.87407 0.0
H1133 H 0.97411 0.43521 0.91914 0.0
H1134 H 0.043 0.53771 0.96553 0.0
H1135 H 0.96684 0.45855 1.00961 0.0
H1136 H 0.98228 0.48616 0.18316 0.0
H1137 H 0.99211 0.46348 0.09302 0.0
H1138 H 0.00838 0.5679 1.02682 0.0
H1139 H 1.0016 0.59019 0.11756 0.0
C1140 C 0.03068 0.50273 0.90343 0.0
C1141 C 0.01195 0.47335 0.88957 0.0
C1142 C 0.02725 0.51572 0.95593 0.0
C1143 C 1.00452 0.49998 0.99567 0.0
C1144 C 0.98528 0.47096 0.98102 0.0
C1145 C 0.98918 0.45768 0.9289 0.0
C1146 C 0.98869 0.5043 0.14969 0.0
C1147 C 0.99093 0.54016 0.15819 0.0
C1148 C 0.99372 0.49128 0.09747 0.0
C1149 C 1.00068 0.51375 0.05189 0.0
C1150 C 1.00342 0.54956 0.06056 0.0
C1151 C 0.99891 0.5625 0.11286 0.0
loop_
_geom_bond_atom_site_label_1
_geom_bond_atom_site_label_2
_geom_bond_distance
_geom_bond_site_symmetry_2
_ccdc_geom_bond_type
Tb0 N31 2.652 1_455 S
Tb0 N38 2.600 1_455 S
Tb0 O44 2.550 . S
Tb0 O45 2.612 1_565 S
Tb0 O47 2.314 1_465 S
Tb0 O48 2.557 1_565 S
Tb0 O49 2.412 1_455 S
Tb0 O51 2.359 1_455 S
Tb0 O52 2.427 . S
Tb0 C64 2.834 . S
C1 C4 1.432 . S
C1 C5 1.414 . S
C1 N8 1.359 . S
C2 C4 1.417 . S
C2 C6 1.432 . S
C2 C14 1.410 . S
C3 C5 1.444 . S
C3 C6 1.317 . S
C3 H26 0.929 . S
C4 C1 1.432 . S
C4 C2 1.417 . S
C4 N12 1.360 . S
C5 C1 1.414 . S
C5 C3 1.444 . S
C5 C10 1.385 . S
C6 C2 1.432 . S
C6 C3 1.317 . S
C6 H18 0.930 . S
C7 C9 1.392 . S
C7 C10 1.370 1_655 S
C7 H19 0.931 . S
N8 C1 1.359 . S
N8 C9 1.327 1_455 S
N8 Tb11 2.600 1_455 S
C9 C7 1.392 . S
C9 N8 1.327 1_655 S
C9 H16 0.930 . S
C10 C5 1.385 . S
C10 C7 1.370 1_455 S
C10 H29 0.930 . S
Tb11 N8 2.600 1_655 S
Tb11 N12 2.659 1_655 S
Tb11 O45 2.362 1_655 S
Tb11 O46 2.421 . S
Tb11 O50 2.546 . S
Tb11 O51 2.610 1_545 S
Tb11 O53 2.320 1_645 S
Tb11 O54 2.552 1_545 S
Tb11 O55 2.413 1_655 S
Tb11 C75 2.833 . S
N12 C4 1.360 . S
N12 Tb11 2.659 1_455 S
N12 C13 1.305 . S
C13 N12 1.305 . S
C13 C15 1.407 . S
C13 H20 0.930 . S
C14 C2 1.410 . S
C14 C15 1.345 . S
C14 H22 0.930 . S
C15 C13 1.407 . S
C15 C14 1.345 . S
C15 H17 0.930 . S
H16 C9 0.930 . S
H17 C15 0.930 . S
H18 C6 0.930 . S
H19 C7 0.931 . S
H20 C13 0.930 . S
H21 C35 0.930 . S
H22 C14 0.930 . S
H23 C41 0.930 . S
H24 C32 0.930 . S
H25 C39 0.931 . S
H26 C3 0.929 . S
H27 C33 0.930 . S
H28 C66 0.930 . S
H29 C10 0.930 . S
H30 C65 0.929 . S
N31 Tb0 2.652 1_655 S
N31 C32 1.305 . S
N31 C36 1.360 . S
C32 H24 0.930 . S
C32 N31 1.305 . S
C32 C35 1.407 . S
C33 H27 0.930 . S
C33 C34 1.410 . S
C33 C35 1.345 . S
C34 C33 1.410 . S
C34 C36 1.417 . S
C34 C66 1.432 . S
C35 H21 0.930 . S
C35 C32 1.407 . S
C35 C33 1.345 . S
C36 N31 1.360 . S
C36 C34 1.417 . S
C36 C40 1.432 . S
H37 C42 0.929 . S
N38 Tb0 2.600 1_655 S
N38 C40 1.359 . S
N38 C41 1.327 1_655 S
C39 H25 0.931 . S
C39 C41 1.392 . S
C39 C42 1.343 1_455 S
C40 C36 1.432 . S
C40 N38 1.359 . S
C40 C43 1.414 . S
C41 H23 0.930 . S
C41 N38 1.327 1_455 S
C41 C39 1.392 . S
C42 H37 0.929 . S
C42 C39 1.343 1_655 S
C42 C43 1.412 . S
C43 C40 1.414 . S
C43 C42 1.412 . S
C43 C65 1.444 . S
O44 Tb0 2.550 . S
O44 C64 1.251 . S
O45 Tb0 2.612 1_545 S
O45 Tb11 2.362 1_455 S
O45 C56 1.283 . S
O46 Tb11 2.421 . S
O46 C63 1.262 . S
O47 Tb0 2.314 1_645 S
O47 C63 1.260 . S
O48 Tb0 2.557 1_545 S
O48 C56 1.243 . S
O49 Tb0 2.412 1_655 S
O49 C64 1.256 1_655 S
O50 Tb11 2.546 . S
O50 C75 1.251 . S
O51 Tb0 2.359 1_655 S
O51 Tb11 2.610 1_565 S
O51 C67 1.283 . S
O52 Tb0 2.427 . S
O52 C74 1.262 . S
O53 Tb11 2.320 1_465 S
O53 C74 1.260 . S
O54 Tb11 2.552 1_565 S
O54 C67 1.243 . S
O55 Tb11 2.413 1_455 S
O55 C75 1.256 1_455 S
C56 O45 1.283 . S
C56 O48 1.243 . S
C57 C59 1.382 . S
C57 C61 1.393 . S
C57 C64 1.500 . S
C58 C59 1.400 . S
C58 C60 1.384 . S
C59 C57 1.382 . S
C59 C58 1.400 . S
C59 H76 0.930 1_465 S
C60 C58 1.384 . S
C60 C62 1.392 . S
C60 H77 0.931 . S
C61 C57 1.393 . S
C61 C62 1.401 . S
C61 H78 0.930 . S
C62 C60 1.392 . S
C62 C61 1.401 . S
C62 H79 0.930 . S
C63 O46 1.262 . S
C63 O47 1.260 . S
C64 Tb0 2.834 . S
C64 O44 1.251 . S
C64 O49 1.256 1_455 S
C64 C57 1.500 . S
C65 H30 0.929 . S
C65 C43 1.444 . S
C65 C66 1.317 . S
C66 H28 0.930 . S
C66 C34 1.432 . S
C66 C65 1.317 . S
C67 O51 1.283 . S
C67 O54 1.243 . S
C68 C69 1.382 . S
C68 C72 1.393 . S
C68 C75 1.500 . S
C69 C68 1.382 . S
C69 C70 1.400 . S
C69 H80 0.930 1_645 S
C70 C69 1.400 . S
C70 C71 1.384 . S
C71 C70 1.384 . S
C71 C73 1.392 . S
C71 H81 0.931 . S
C72 C68 1.393 . S
C72 C73 1.401 . S
C72 H82 0.930 . S
C73 C71 1.392 . S
C73 C72 1.401 . S
C73 H83 0.930 . S
C74 O52 1.262 . S
C74 O53 1.260 . S
C75 Tb11 2.833 . S
C75 O50 1.251 . S
C75 O55 1.256 1_655 S
C75 C68 1.500 . S
H76 C59 0.930 1_645 S
H77 C60 0.931 . S
H78 C61 0.930 . S
H79 C62 0.930 . S
H80 C69 0.930 1_465 S
H81 C71 0.931 . S
H82 C72 0.930 . S
H83 C73 0.930 . S
Tb84 N115 2.660 . S
Tb84 N122 2.600 . S
Tb84 O128 2.546 . S
Tb84 O129 2.610 . S
Tb84 O131 2.320 . S
Tb84 O132 2.552 . S
Tb84 O133 2.413 . S
Tb84 O135 2.362 . S
Tb84 O136 2.421 . S
Tb84 C148 2.833 . S
C85 C88 1.432 . S
C85 C89 1.414 . S
C85 N92 1.359 . S
C86 C88 1.417 . S
C86 C90 1.432 . S
C86 C98 1.410 . S
C87 C89 1.444 . S
C87 C90 1.317 . S
C87 H110 0.929 . S
C88 C85 1.432 . S
C88 C86 1.417 . S
C88 N96 1.360 . S
C89 C85 1.414 . S
C89 C87 1.444 . S
C89 C94 1.385 . S
C90 C86 1.432 . S
C90 C87 1.317 . S
C90 H102 0.930 . S
C91 C93 1.392 . S
C91 C94 1.370 . S
C91 H103 0.931 . S
N92 C85 1.359 . S
N92 C93 1.327 . S
N92 Tb95 2.600 . S
C93 C91 1.392 . S
C93 N92 1.327 . S
C93 H100 0.930 . S
C94 C89 1.385 . S
C94 C91 1.370 . S
C94 H113 0.930 . S
Tb95 N92 2.600 . S
Tb95 N96 2.660 . S
Tb95 O129 2.362 . S
Tb95 O130 2.421 . S
Tb95 O134 2.546 . S
Tb95 O135 2.610 . S
Tb95 O137 2.320 . S
Tb95 O138 2.552 . S
Tb95 O139 2.413 . S
Tb95 C159 2.833 . S
N96 C88 1.360 . S
N96 Tb95 2.660 . S
N96 C97 1.305 . S
C97 N96 1.305 . S
C97 C99 1.407 . S
C97 H104 0.930 . S
C98 C86 1.410 . S
C98 C99 1.345 . S
C98 H106 0.930 . S
C99 C97 1.407 . S
C99 C98 1.345 . S
C99 H101 0.930 . S
H100 C93 0.930 . S
H101 C99 0.930 . S
H102 C90 0.930 . S
H103 C91 0.931 . S
H104 C97 0.930 . S
H105 C119 0.930 . S
H106 C98 0.930 . S
H107 C125 0.930 . S
H108 C116 0.930 . S
H109 C123 0.931 . S
H110 C87 0.929 . S
H111 C117 0.930 . S
H112 C150 0.930 . S
H113 C94 0.930 . S
H114 C149 0.929 . S
N115 Tb84 2.660 . S
N115 C116 1.305 . S
N115 C120 1.360 . S
C116 H108 0.930 . S
C116 N115 1.305 . S
C116 C119 1.407 . S
C117 H111 0.930 . S
C117 C118 1.410 . S
C117 C119 1.345 . S
C118 C117 1.410 . S
C118 C120 1.417 . S
C118 C150 1.432 . S
C119 H105 0.930 . S
C119 C116 1.407 . S
C119 C117 1.345 . S
C120 N115 1.360 . S
C120 C118 1.417 . S
C120 C124 1.432 . S
H121 C126 0.930 . S
N122 Tb84 2.600 . S
N122 C124 1.359 . S
N122 C125 1.327 . S
C123 H109 0.931 . S
C123 C125 1.392 . S
C123 C126 1.370 . S
C124 C120 1.432 . S
C124 N122 1.359 . S
C124 C127 1.414 . S
C125 H107 0.930 . S
C125 N122 1.327 . S
C125 C123 1.392 . S
C126 H121 0.930 . S
C126 C123 1.370 . S
C126 C127 1.385 . S
C127 C124 1.414 . S
C127 C126 1.385 . S
C127 C149 1.444 . S
O128 Tb84 2.546 . S
O128 C148 1.251 . S
O129 Tb84 2.610 . S
O129 Tb95 2.362 . S
O129 C140 1.283 . S
O130 Tb95 2.421 . S
O130 C147 1.262 . S
O131 Tb84 2.320 . S
O131 C147 1.260 . S
O132 Tb84 2.552 . S
O132 C140 1.243 . S
O133 Tb84 2.413 . S
O133 C148 1.256 . S
O134 Tb95 2.546 . S
O134 C159 1.251 . S
O135 Tb84 2.362 . S
O135 Tb95 2.610 . S
O135 C151 1.283 . S
O136 Tb84 2.421 . S
O136 C158 1.262 . S
O137 Tb95 2.320 . S
O137 C158 1.260 . S
O138 Tb95 2.552 . S
O138 C151 1.243 . S
O139 Tb95 2.413 . S
O139 C159 1.256 . S
C140 O129 1.283 . S
C140 O132 1.243 . S
C141 C143 1.382 . S
C141 C145 1.393 . S
C141 C148 1.500 . S
C142 C143 1.400 . S
C142 C144 1.384 . S
C143 C141 1.382 . S
C143 C142 1.400 . S
C143 H160 0.930 . S
C144 C142 1.384 . S
C144 C146 1.392 . S
C144 H161 0.931 . S
C145 C141 1.393 . S
C145 C146 1.401 . S
C145 H162 0.930 . S
C146 C144 1.392 . S
C146 C145 1.401 . S
C146 H163 0.930 . S
C147 O130 1.262 . S
C147 O131 1.260 . S
C148 Tb84 2.833 . S
C148 O128 1.251 . S
C148 O133 1.256 . S
C148 C141 1.500 . S
C149 H114 0.929 . S
C149 C127 1.444 . S
C149 C150 1.317 . S
C150 H112 0.930 . S
C150 C118 1.432 . S
C150 C149 1.317 . S
C151 O135 1.283 . S
C151 O138 1.243 . S
C152 C153 1.382 1_556 S
C152 C156 1.393 1_556 S
C152 C159 1.500 . S
C153 C152 1.382 1_554 S
C153 C154 1.400 . S
C153 H164 0.930 1_554 S
C154 C153 1.400 . S
C154 C155 1.384 . S
C155 C154 1.384 . S
C155 C157 1.392 . S
C155 H165 0.931 . S
C156 C152 1.393 1_554 S
C156 C157 1.401 . S
C156 H166 0.930 1_554 S
C157 C155 1.392 . S
C157 C156 1.401 . S
C157 H167 0.930 . S
C158 O136 1.262 . S
C158 O137 1.260 . S
C159 Tb95 2.833 . S
C159 O134 1.251 . S
C159 O139 1.256 . S
C159 C152 1.500 . S
H160 C143 0.930 . S
H161 C144 0.931 . S
H162 C145 0.930 . S
H163 C146 0.930 . S
H164 C153 0.930 1_556 S
H165 C155 0.931 . S
H166 C156 0.930 1_556 S
H167 C157 0.930 . S
Tb168 N199 2.660 . S
Tb168 N206 2.600 . S
Tb168 O212 2.546 . S
Tb168 O213 2.610 1_565 S
Tb168 O215 2.320 1_565 S
Tb168 O216 2.552 1_565 S
Tb168 O217 2.413 . S
Tb168 O219 2.362 1_554 S
Tb168 O220 2.421 . S
Tb168 C232 2.833 . S
C169 C172 1.432 . S
C169 C173 1.414 . S
C169 N176 1.359 . S
C170 C172 1.417 . S
C170 C174 1.432 . S
C170 C182 1.410 . S
C171 C173 1.444 . S
C171 C174 1.317 . S
C171 H194 0.929 . S
C172 C169 1.432 . S
C172 C170 1.417 . S
C172 N180 1.360 . S
C173 C169 1.414 . S
C173 C171 1.444 . S
C173 C178 1.385 . S
C174 C170 1.432 . S
C174 C171 1.317 . S
C174 H186 0.930 . S
C175 C177 1.392 . S
C175 C178 1.370 . S
C175 H187 0.931 . S
N176 C169 1.359 . S
N176 C177 1.327 . S
N176 Tb179 2.600 . S
C177 C175 1.392 . S
C177 N176 1.327 . S
C177 H184 0.930 . S
C178 C173 1.385 . S
C178 C175 1.370 . S
C178 H197 0.930 . S
Tb179 N176 2.600 . S
Tb179 N180 2.660 . S
Tb179 O213 2.362 1_556 S
Tb179 O214 2.421 . S
Tb179 O218 2.546 . S
Tb179 O219 2.610 1_545 S
Tb179 O221 2.320 1_545 S
Tb179 O222 2.552 1_545 S
Tb179 O223 2.413 . S
Tb179 C243 2.833 . S
N180 C172 1.360 . S
N180 Tb179 2.660 . S
N180 C181 1.305 . S
C181 N180 1.305 . S
C181 C183 1.407 . S
C181 H188 0.930 . S
C182 C170 1.410 . S
C182 C183 1.345 . S
C182 H190 0.930 . S
C183 C181 1.407 . S
C183 C182 1.345 . S
C183 H185 0.930 . S
H184 C177 0.930 . S
H185 C183 0.930 . S
H186 C174 0.930 . S
H187 C175 0.931 . S
H188 C181 0.930 . S
H189 C203 0.930 . S
H190 C182 0.930 . S
H191 C209 0.930 . S
H192 C200 0.930 . S
H193 C207 0.931 . S
H194 C171 0.929 . S
H195 C201 0.930 . S
H196 C234 0.930 . S
H197 C178 0.930 . S
H198 C233 0.929 . S
N199 Tb168 2.660 . S
N199 C200 1.305 . S
N199 C204 1.360 . S
C200 H192 0.930 . S
C200 N199 1.305 . S
C200 C203 1.407 . S
C201 H195 0.930 . S
C201 C202 1.410 . S
C201 C203 1.345 . S
C202 C201 1.410 . S
C202 C204 1.417 . S
C202 C234 1.432 . S
C203 H189 0.930 . S
C203 C200 1.407 . S
C203 C201 1.345 . S
C204 N199 1.360 . S
C204 C202 1.417 . S
C204 C208 1.432 . S
H205 C210 0.930 . S
N206 Tb168 2.600 . S
N206 C208 1.359 . S
N206 C209 1.327 . S
C207 H193 0.931 . S
C207 C209 1.392 . S
C207 C210 1.370 . S
C208 C204 1.432 . S
C208 N206 1.359 . S
C208 C211 1.414 . S
C209 H191 0.930 . S
C209 N206 1.327 . S
C209 C207 1.392 . S
C210 H205 0.930 . S
C210 C207 1.370 . S
C210 C211 1.385 . S
C211 C208 1.414 . S
C211 C210 1.385 . S
C211 C233 1.444 . S
O212 Tb168 2.546 . S
O212 C232 1.251 . S
O213 Tb168 2.610 1_545 S
O213 Tb179 2.362 1_554 S
O213 C224 1.283 . S
O214 Tb179 2.421 . S
O214 C231 1.262 1_556 S
O215 Tb168 2.320 1_545 S
O215 C231 1.260 . S
O216 Tb168 2.552 1_545 S
O216 C224 1.243 . S
O217 Tb168 2.413 . S
O217 C232 1.256 . S
O218 Tb179 2.546 . S
O218 C243 1.251 . S
O219 Tb168 2.362 1_556 S
O219 Tb179 2.610 1_565 S
O219 C235 1.283 . S
O220 Tb168 2.421 . S
O220 C242 1.262 1_554 S
O221 Tb179 2.320 1_565 S
O221 C242 1.260 . S
O222 Tb179 2.552 1_565 S
O222 C235 1.243 . S
O223 Tb179 2.413 . S
O223 C243 1.256 . S
C224 O213 1.283 . S
C224 O216 1.243 . S
C225 C227 1.382 . S
C225 C229 1.393 . S
C225 C232 1.500 . S
C226 C227 1.400 . S
C226 C228 1.384 . S
C227 C225 1.382 . S
C227 C226 1.400 . S
C227 H244 0.930 1_565 S
C228 C226 1.384 . S
C228 C230 1.392 . S
C228 H245 0.931 . S
C229 C225 1.393 . S
C229 C230 1.401 . S
C229 H246 0.930 . S
C230 C228 1.392 . S
C230 C229 1.401 . S
C230 H247 0.930 . S
C231 O214 1.262 1_554 S
C231 O215 1.260 . S
C232 Tb168 2.833 . S
C232 O212 1.251 . S
C232 O217 1.256 . S
C232 C225 1.500 . S
C233 H198 0.929 . S
C233 C211 1.444 . S
C233 C234 1.317 . S
C234 H196 0.930 . S
C234 C202 1.432 . S
C234 C233 1.317 . S
C235 O219 1.283 . S
C235 O222 1.243 . S
C236 C237 1.382 . S
C236 C240 1.393 . S
C236 C243 1.500 . S
C237 C236 1.382 . S
C237 C238 1.400 . S
C237 H248 0.930 1_545 S
C238 C237 1.400 . S
C238 C239 1.384 . S
C239 C238 1.384 . S
C239 C241 1.392 . S
C239 H249 0.931 . S
C240 C236 1.393 . S
C240 C241 1.401 . S
C240 H250 0.930 . S
C241 C239 1.392 . S
C241 C240 1.401 . S
C241 H251 0.930 . S
C242 O220 1.262 1_556 S
C242 O221 1.260 . S
C243 Tb179 2.833 . S
C243 O218 1.251 . S
C243 O223 1.256 . S
C243 C236 1.500 . S
H244 C227 0.930 1_545 S
H245 C228 0.931 . S
H246 C229 0.930 . S
H247 C230 0.930 . S
H248 C237 0.930 1_565 S
H249 C239 0.931 . S
H250 C240 0.930 . S
H251 C241 0.930 . S
Tb252 N283 2.660 . S
Tb252 N290 2.600 . S
Tb252 O296 2.546 . S
Tb252 O297 2.610 . S
Tb252 O299 2.320 . S
Tb252 O300 2.552 . S
Tb252 O301 2.413 . S
Tb252 O303 2.362 . S
Tb252 O304 2.421 . S
Tb252 C316 2.833 . S
C253 C256 1.432 . S
C253 C257 1.414 . S
C253 N260 1.359 . S
C254 C256 1.417 . S
C254 C258 1.432 . S
C254 C266 1.410 . S
C255 C257 1.444 . S
C255 C258 1.317 . S
C255 H278 0.929 . S
C256 C253 1.432 . S
C256 C254 1.417 . S
C256 N264 1.360 . S
C257 C253 1.414 . S
C257 C255 1.444 . S
C257 C262 1.385 . S
C258 C254 1.432 . S
C258 C255 1.317 . S
C258 H270 0.930 . S
C259 C261 1.392 . S
C259 C262 1.370 . S
C259 H271 0.931 . S
N260 C253 1.359 . S
N260 C261 1.327 . S
N260 Tb263 2.600 . S
C261 C259 1.392 . S
C261 N260 1.327 . S
C261 H268 0.930 . S
C262 C257 1.385 . S
C262 C259 1.370 . S
C262 H281 0.930 . S
Tb263 N260 2.600 . S
Tb263 N264 2.660 . S
Tb263 O297 2.362 . S
Tb263 O298 2.421 . S
Tb263 O302 2.546 . S
Tb263 O303 2.610 . S
Tb263 O305 2.320 . S
Tb263 O306 2.552 . S
Tb263 O307 2.413 . S
Tb263 C327 2.833 . S
N264 C256 1.360 . S
N264 Tb263 2.660 . S
N264 C265 1.305 . S
C265 N264 1.305 . S
C265 C267 1.407 . S
C265 H272 0.930 . S
C266 C254 1.410 . S
C266 C267 1.345 . S
C266 H274 0.930 . S
C267 C265 1.407 . S
C267 C266 1.345 . S
C267 H269 0.930 . S
H268 C261 0.930 . S
H269 C267 0.930 . S
H270 C258 0.930 . S
H271 C259 0.931 . S
H272 C265 0.930 . S
H273 C287 0.930 . S
H274 C266 0.930 . S
H275 C293 0.930 . S
H276 C284 0.930 . S
H277 C291 0.931 . S
H278 C255 0.929 . S
H279 C285 0.930 . S
H280 C318 0.930 . S
H281 C262 0.930 . S
H282 C317 0.929 . S
N283 Tb252 2.660 . S
N283 C284 1.305 . S
N283 C288 1.360 . S
C284 H276 0.930 . S
C284 N283 1.305 . S
C284 C287 1.407 . S
C285 H279 0.930 . S
C285 C286 1.410 . S
C285 C287 1.345 . S
C286 C285 1.410 . S
C286 C288 1.417 . S
C286 C318 1.432 . S
C287 H273 0.930 . S
C287 C284 1.407 . S
C287 C285 1.345 . S
C288 N283 1.360 . S
C288 C286 1.417 . S
C288 C292 1.432 . S
H289 C294 0.930 . S
N290 Tb252 2.600 . S
N290 C292 1.359 . S
N290 C293 1.327 . S
C291 H277 0.931 . S
C291 C293 1.392 . S
C291 C294 1.370 . S
C292 C288 1.432 . S
C292 N290 1.359 . S
C292 C295 1.414 . S
C293 H275 0.930 . S
C293 N290 1.327 . S
C293 C291 1.392 . S
C294 H289 0.930 . S
C294 C291 1.370 . S
C294 C295 1.385 . S
C295 C292 1.414 . S
C295 C294 1.385 . S
C295 C317 1.444 . S
O296 Tb252 2.546 . S
O296 C316 1.251 . S
O297 Tb252 2.610 . S
O297 Tb263 2.362 . S
O297 C308 1.283 . S
O298 Tb263 2.421 . S
O298 C315 1.262 . S
O299 Tb252 2.320 . S
O299 C315 1.260 . S
O300 Tb252 2.552 . S
O300 C308 1.243 . S
O301 Tb252 2.413 . S
O301 C316 1.256 . S
O302 Tb263 2.546 . S
O302 C327 1.251 . S
O303 Tb252 2.362 . S
O303 Tb263 2.610 . S
O303 C319 1.283 . S
O304 Tb252 2.421 . S
O304 C326 1.262 . S
O305 Tb263 2.320 . S
O305 C326 1.260 . S
O306 Tb263 2.552 . S
O306 C319 1.243 . S
O307 Tb263 2.413 . S
O307 C327 1.256 . S
C308 O297 1.283 . S
C308 O300 1.243 . S
C309 C311 1.382 . S
C309 C313 1.393 . S
C309 C316 1.500 . S
C310 C311 1.400 . S
C310 C312 1.384 . S
C311 C309 1.382 . S
C311 C310 1.400 . S
C311 H328 0.930 . S
C312 C310 1.384 . S
C312 C314 1.392 . S
C312 H329 0.931 . S
C313 C309 1.393 . S
C313 C314 1.401 . S
C313 H330 0.930 . S
C314 C312 1.392 . S
C314 C313 1.401 . S
C314 H331 0.930 . S
C315 O298 1.262 . S
C315 O299 1.260 . S
C316 Tb252 2.833 . S
C316 O296 1.251 . S
C316 O301 1.256 . S
C316 C309 1.500 . S
C317 H282 0.929 . S
C317 C295 1.444 . S
C317 C318 1.317 . S
C318 H280 0.930 . S
C318 C286 1.432 . S
C318 C317 1.317 . S
C319 O303 1.283 . S
C319 O306 1.243 . S
C320 C321 1.382 1_554 S
C320 C324 1.393 1_554 S
C320 C327 1.500 . S
C321 C320 1.382 1_556 S
C321 C322 1.400 . S
C321 H332 0.930 1_556 S
C322 C321 1.400 . S
C322 C323 1.384 . S
C323 C322 1.384 . S
C323 C325 1.392 . S
C323 H333 0.931 . S
C324 C320 1.393 1_556 S
C324 C325 1.401 . S
C324 H334 0.930 1_556 S
C325 C323 1.392 . S
C325 C324 1.401 . S
C325 H335 0.930 . S
C326 O304 1.262 . S
C326 O305 1.260 . S
C327 Tb263 2.833 . S
C327 O302 1.251 . S
C327 O307 1.256 . S
C327 C320 1.500 . S
H328 C311 0.930 . S
H329 C312 0.931 . S
H330 C313 0.930 . S
H331 C314 0.930 . S
H332 C321 0.930 1_554 S
H333 C323 0.931 . S
H334 C324 0.930 1_554 S
H335 C325 0.930 . S
Tb336 N367 2.660 . S
Tb336 N374 2.600 . S
Tb336 O380 2.546 . S
Tb336 O381 2.610 . S
Tb336 O383 2.320 . S
Tb336 O384 2.552 . S
Tb336 O385 2.413 . S
Tb336 O387 2.362 . S
Tb336 O388 2.421 . S
Tb336 C400 2.833 . S
C337 C340 1.432 . S
C337 C341 1.414 . S
C337 N344 1.359 . S
C338 C340 1.417 . S
C338 C342 1.432 . S
C338 C350 1.410 . S
C339 C341 1.444 . S
C339 C342 1.317 . S
C339 H362 0.929 . S
C340 C337 1.432 . S
C340 C338 1.417 . S
C340 N348 1.360 . S
C341 C337 1.414 . S
C341 C339 1.444 . S
C341 C346 1.385 . S
C342 C338 1.432 . S
C342 C339 1.317 . S
C342 H354 0.930 . S
C343 C345 1.392 . S
C343 C346 1.370 . S
C343 H355 0.931 . S
N344 C337 1.359 . S
N344 C345 1.327 . S
N344 Tb347 2.600 . S
C345 C343 1.392 . S
C345 N344 1.327 . S
C345 H352 0.930 . S
C346 C341 1.385 . S
C346 C343 1.370 . S
C346 H365 0.930 . S
Tb347 N344 2.600 . S
Tb347 N348 2.660 . S
Tb347 O381 2.362 . S
Tb347 O382 2.421 . S
Tb347 O386 2.546 . S
Tb347 O387 2.610 . S
Tb347 O389 2.320 . S
Tb347 O390 2.552 . S
Tb347 O391 2.413 . S
Tb347 C411 2.833 . S
N348 C340 1.360 . S
N348 Tb347 2.660 . S
N348 C349 1.305 . S
C349 N348 1.305 . S
C349 C351 1.407 . S
C349 H356 0.930 . S
C350 C338 1.410 . S
C350 C351 1.345 . S
C350 H358 0.930 . S
C351 C349 1.407 . S
C351 C350 1.345 . S
C351 H353 0.930 . S
H352 C345 0.930 . S
H353 C351 0.930 . S
H354 C342 0.930 . S
H355 C343 0.931 . S
H356 C349 0.930 . S
H357 C371 0.930 . S
H358 C350 0.930 . S
H359 C377 0.930 . S
H360 C368 0.930 . S
H361 C375 0.931 . S
H362 C339 0.929 . S
H363 C369 0.930 . S
H364 C402 0.930 . S
H365 C346 0.930 . S
H366 C401 0.929 . S
N367 Tb336 2.660 . S
N367 C368 1.305 . S
N367 C372 1.360 . S
C368 H360 0.930 . S
C368 N367 1.305 . S
C368 C371 1.407 . S
C369 H363 0.930 . S
C369 C370 1.410 . S
C369 C371 1.345 . S
C370 C369 1.410 . S
C370 C372 1.417 . S
C370 C402 1.432 . S
C371 H357 0.930 . S
C371 C368 1.407 . S
C371 C369 1.345 . S
C372 N367 1.360 . S
C372 C370 1.417 . S
C372 C376 1.432 . S
H373 C378 0.930 . S
N374 Tb336 2.600 . S
N374 C376 1.359 . S
N374 C377 1.327 . S
C375 H361 0.931 . S
C375 C377 1.392 . S
C375 C378 1.370 . S
C376 C372 1.432 . S
C376 N374 1.359 . S
C376 C379 1.414 . S
C377 H359 0.930 . S
C377 N374 1.327 . S
C377 C375 1.392 . S
C378 H373 0.930 . S
C378 C375 1.370 . S
C378 C379 1.385 . S
C379 C376 1.414 . S
C379 C378 1.385 . S
C379 C401 1.444 . S
O380 Tb336 2.546 . S
O380 C400 1.251 . S
O381 Tb336 2.610 . S
O381 Tb347 2.362 . S
O381 C392 1.283 . S
O382 Tb347 2.421 . S
O382 C399 1.262 . S
O383 Tb336 2.320 . S
O383 C399 1.260 . S
O384 Tb336 2.552 . S
O384 C392 1.243 . S
O385 Tb336 2.413 . S
O385 C400 1.256 . S
O386 Tb347 2.546 . S
O386 C411 1.251 . S
O387 Tb336 2.362 . S
O387 Tb347 2.610 . S
O387 C403 1.283 . S
O388 Tb336 2.421 . S
O388 C410 1.262 . S
O389 Tb347 2.320 . S
O389 C410 1.260 . S
O390 Tb347 2.552 . S
O390 C403 1.243 . S
O391 Tb347 2.413 . S
O391 C411 1.256 . S
C392 O381 1.283 . S
C392 O384 1.243 . S
C393 C395 1.382 1_554 S
C393 C397 1.393 1_554 S
C393 C400 1.500 . S
C394 C395 1.400 . S
C394 C396 1.384 . S
C395 C393 1.382 1_556 S
C395 C394 1.400 . S
C395 H412 0.930 1_556 S
C396 C394 1.384 . S
C396 C398 1.392 . S
C396 H413 0.931 . S
C397 C393 1.393 1_556 S
C397 C398 1.401 . S
C397 H414 0.930 1_556 S
C398 C396 1.392 . S
C398 C397 1.401 . S
C398 H415 0.930 . S
C399 O382 1.262 . S
C399 O383 1.260 . S
C400 Tb336 2.833 . S
C400 O380 1.251 . S
C400 O385 1.256 . S
C400 C393 1.500 . S
C401 H366 0.929 . S
C401 C379 1.444 . S
C401 C402 1.317 . S
C402 H364 0.930 . S
C402 C370 1.432 . S
C402 C401 1.317 . S
C403 O387 1.283 . S
C403 O390 1.243 . S
C404 C405 1.382 . S
C404 C408 1.393 . S
C404 C411 1.500 . S
C405 C404 1.382 . S
C405 C406 1.400 . S
C405 H416 0.930 . S
C406 C405 1.400 . S
C406 C407 1.384 . S
C407 C406 1.384 . S
C407 C409 1.392 . S
C407 H417 0.931 . S
C408 C404 1.393 . S
C408 C409 1.401 . S
C408 H418 0.930 . S
C409 C407 1.392 . S
C409 C408 1.401 . S
C409 H419 0.930 . S
C410 O388 1.262 . S
C410 O389 1.260 . S
C411 Tb347 2.833 . S
C411 O386 1.251 . S
C411 O391 1.256 . S
C411 C404 1.500 . S
H412 C395 0.930 1_554 S
H413 C396 0.931 . S
H414 C397 0.930 1_554 S
H415 C398 0.930 . S
H416 C405 0.930 . S
H417 C407 0.931 . S
H418 C408 0.930 . S
H419 C409 0.930 . S
Tb420 N451 2.660 . S
Tb420 N458 2.600 . S
Tb420 O464 2.546 . S
Tb420 O465 2.610 . S
Tb420 O467 2.320 . S
Tb420 O468 2.552 . S
Tb420 O469 2.413 . S
Tb420 O471 2.362 . S
Tb420 O472 2.421 . S
Tb420 C484 2.833 . S
C421 C424 1.432 . S
C421 C425 1.414 . S
C421 N428 1.359 . S
C422 C424 1.417 . S
C422 C426 1.432 . S
C422 C434 1.410 . S
C423 C425 1.444 . S
C423 C426 1.317 . S
C423 H446 0.929 . S
C424 C421 1.432 . S
C424 C422 1.417 . S
C424 N432 1.360 . S
C425 C421 1.414 . S
C425 C423 1.444 . S
C425 C430 1.385 . S
C426 C422 1.432 . S
C426 C423 1.317 . S
C426 H438 0.930 . S
C427 C429 1.392 . S
C427 C430 1.370 . S
C427 H439 0.931 . S
N428 C421 1.359 . S
N428 C429 1.327 . S
N428 Tb431 2.600 . S
C429 C427 1.392 . S
C429 N428 1.327 . S
C429 H436 0.930 . S
C430 C425 1.385 . S
C430 C427 1.370 . S
C430 H449 0.930 . S
Tb431 N428 2.600 . S
Tb431 N432 2.660 . S
Tb431 O465 2.362 . S
Tb431 O466 2.421 . S
Tb431 O470 2.546 . S
Tb431 O471 2.610 . S
Tb431 O473 2.320 . S
Tb431 O474 2.552 . S
Tb431 O475 2.413 . S
Tb431 C495 2.833 . S
N432 C424 1.360 . S
N432 Tb431 2.660 . S
N432 C433 1.305 . S
C433 N432 1.305 . S
C433 C435 1.407 . S
C433 H440 0.930 . S
C434 C422 1.410 . S
C434 C435 1.345 . S
C434 H442 0.930 . S
C435 C433 1.407 . S
C435 C434 1.345 . S
C435 H437 0.930 . S
H436 C429 0.930 . S
H437 C435 0.930 . S
H438 C426 0.930 . S
H439 C427 0.931 . S
H440 C433 0.930 . S
H441 C455 0.930 . S
H442 C434 0.930 . S
H443 C461 0.930 . S
H444 C452 0.930 . S
H445 C459 0.931 . S
H446 C423 0.929 . S
H447 C453 0.930 . S
H448 C486 0.930 . S
H449 C430 0.930 . S
H450 C485 0.929 . S
N451 Tb420 2.660 . S
N451 C452 1.305 . S
N451 C456 1.360 . S
C452 H444 0.930 . S
C452 N451 1.305 . S
C452 C455 1.407 . S
C453 H447 0.930 . S
C453 C454 1.410 . S
C453 C455 1.345 . S
C454 C453 1.410 . S
C454 C456 1.417 . S
C454 C486 1.432 . S
C455 H441 0.930 . S
C455 C452 1.407 . S
C455 C453 1.345 . S
C456 N451 1.360 . S
C456 C454 1.417 . S
C456 C460 1.432 . S
H457 C462 0.930 . S
N458 Tb420 2.600 . S
N458 C460 1.359 . S
N458 C461 1.327 . S
C459 H445 0.931 . S
C459 C461 1.392 . S
C459 C462 1.370 . S
C460 C456 1.432 . S
C460 N458 1.359 . S
C460 C463 1.414 . S
C461 H443 0.930 . S
C461 N458 1.327 . S
C461 C459 1.392 . S
C462 H457 0.930 . S
C462 C459 1.370 . S
C462 C463 1.385 . S
C463 C460 1.414 . S
C463 C462 1.385 . S
C463 C485 1.444 . S
O464 Tb420 2.546 . S
O464 C484 1.251 . S
O465 Tb420 2.610 . S
O465 Tb431 2.362 . S
O465 C476 1.283 . S
O466 Tb431 2.421 . S
O466 C483 1.262 . S
O467 Tb420 2.320 . S
O467 C483 1.260 . S
O468 Tb420 2.552 . S
O468 C476 1.243 . S
O469 Tb420 2.413 . S
O469 C484 1.256 . S
O470 Tb431 2.546 . S
O470 C495 1.251 . S
O471 Tb420 2.362 . S
O471 Tb431 2.610 . S
O471 C487 1.283 . S
O472 Tb420 2.421 . S
O472 C494 1.262 . S
O473 Tb431 2.320 . S
O473 C494 1.260 . S
O474 Tb431 2.552 . S
O474 C487 1.243 . S
O475 Tb431 2.413 . S
O475 C495 1.256 . S
C476 O465 1.283 . S
C476 O468 1.243 . S
C477 C479 1.382 1_556 S
C477 C481 1.393 1_556 S
C477 C484 1.500 . S
C478 C479 1.400 . S
C478 C480 1.384 . S
C479 C477 1.382 1_554 S
C479 C478 1.400 . S
C479 H496 0.930 1_554 S
C480 C478 1.384 . S
C480 C482 1.392 . S
C480 H497 0.931 . S
C481 C477 1.393 1_554 S
C481 C482 1.401 . S
C481 H498 0.930 1_554 S
C482 C480 1.392 . S
C482 C481 1.401 . S
C482 H499 0.930 . S
C483 O466 1.262 . S
C483 O467 1.260 . S
C484 Tb420 2.833 . S
C484 O464 1.251 . S
C484 O469 1.256 . S
C484 C477 1.500 . S
C485 H450 0.929 . S
C485 C463 1.444 . S
C485 C486 1.317 . S
C486 H448 0.930 . S
C486 C454 1.432 . S
C486 C485 1.317 . S
C487 O471 1.283 . S
C487 O474 1.243 . S
C488 C489 1.382 . S
C488 C492 1.393 . S
C488 C495 1.500 . S
C489 C488 1.382 . S
C489 C490 1.400 . S
C489 H500 0.930 . S
C490 C489 1.400 . S
C490 C491 1.384 . S
C491 C490 1.384 . S
C491 C493 1.392 . S
C491 H501 0.931 . S
C492 C488 1.393 . S
C492 C493 1.401 . S
C492 H502 0.930 . S
C493 C491 1.392 . S
C493 C492 1.401 . S
C493 H503 0.930 . S
C494 O472 1.262 . S
C494 O473 1.260 . S
C495 Tb431 2.833 . S
C495 O470 1.251 . S
C495 O475 1.256 . S
C495 C488 1.500 . S
H496 C479 0.930 1_556 S
H497 C480 0.931 . S
H498 C481 0.930 1_556 S
H499 C482 0.930 . S
H500 C489 0.930 . S
H501 C491 0.931 . S
H502 C492 0.930 . S
H503 C493 0.930 . S
Tb504 N535 2.660 . S
Tb504 N542 2.600 . S
Tb504 O548 2.546 . S
Tb504 O549 2.610 . S
Tb504 O551 2.320 . S
Tb504 O552 2.552 . S
Tb504 O553 2.413 . S
Tb504 O555 2.362 1_556 S
Tb504 O556 2.421 . S
Tb504 C568 2.833 . S
C505 C508 1.432 . S
C505 C509 1.414 . S
C505 N512 1.359 . S
C506 C508 1.417 . S
C506 C510 1.432 . S
C506 C518 1.410 . S
C507 C509 1.444 . S
C507 C510 1.317 . S
C507 H530 0.929 . S
C508 C505 1.432 . S
C508 C506 1.417 . S
C508 N516 1.360 . S
C509 C505 1.414 . S
C509 C507 1.444 . S
C509 C514 1.385 . S
C510 C506 1.432 . S
C510 C507 1.317 . S
C510 H522 0.930 . S
C511 C513 1.392 . S
C511 C514 1.370 . S
C511 H523 0.931 . S
N512 C505 1.359 . S
N512 C513 1.327 . S
N512 Tb515 2.600 . S
C513 C511 1.392 . S
C513 N512 1.327 . S
C513 H520 0.930 . S
C514 C509 1.385 . S
C514 C511 1.370 . S
C514 H533 0.930 . S
Tb515 N512 2.600 . S
Tb515 N516 2.660 . S
Tb515 O549 2.362 1_554 S
Tb515 O550 2.421 . S
Tb515 O554 2.546 . S
Tb515 O555 2.610 . S
Tb515 O557 2.320 . S
Tb515 O558 2.552 . S
Tb515 O559 2.413 . S
Tb515 C579 2.833 . S
N516 C508 1.360 . S
N516 Tb515 2.660 . S
N516 C517 1.305 . S
C517 N516 1.305 . S
C517 C519 1.407 . S
C517 H524 0.930 . S
C518 C506 1.410 . S
C518 C519 1.345 . S
C518 H526 0.930 . S
C519 C517 1.407 . S
C519 C518 1.345 . S
C519 H521 0.930 . S
H520 C513 0.930 . S
H521 C519 0.930 . S
H522 C510 0.930 . S
H523 C511 0.931 . S
H524 C517 0.930 . S
H525 C539 0.930 . S
H526 C518 0.930 . S
H527 C545 0.930 . S
H528 C536 0.930 . S
H529 C543 0.931 . S
H530 C507 0.929 . S
H531 C537 0.930 . S
H532 C570 0.930 . S
H533 C514 0.930 . S
H534 C569 0.929 . S
N535 Tb504 2.660 . S
N535 C536 1.305 . S
N535 C540 1.360 . S
C536 H528 0.930 . S
C536 N535 1.305 . S
C536 C539 1.407 . S
C537 H531 0.930 . S
C537 C538 1.410 . S
C537 C539 1.345 . S
C538 C537 1.410 . S
C538 C540 1.417 . S
C538 C570 1.432 . S
C539 H525 0.930 . S
C539 C536 1.407 . S
C539 C537 1.345 . S
C540 N535 1.360 . S
C540 C538 1.417 . S
C540 C544 1.432 . S
H541 C546 0.930 . S
N542 Tb504 2.600 . S
N542 C544 1.359 . S
N542 C545 1.327 . S
C543 H529 0.931 . S
C543 C545 1.392 . S
C543 C546 1.370 . S
C544 C540 1.432 . S
C544 N542 1.359 . S
C544 C547 1.414 . S
C545 H527 0.930 . S
C545 N542 1.327 . S
C545 C543 1.392 . S
C546 H541 0.930 . S
C546 C543 1.370 . S
C546 C547 1.385 . S
C547 C544 1.414 . S
C547 C546 1.385 . S
C547 C569 1.444 . S
O548 Tb504 2.546 . S
O548 C568 1.251 . S
O549 Tb504 2.610 . S
O549 Tb515 2.362 1_556 S
O549 C560 1.283 . S
O550 Tb515 2.421 . S
O550 C567 1.262 1_554 S
O551 Tb504 2.320 . S
O551 C567 1.260 . S
O552 Tb504 2.552 . S
O552 C560 1.243 . S
O553 Tb504 2.413 . S
O553 C568 1.256 . S
O554 Tb515 2.546 . S
O554 C579 1.251 . S
O555 Tb504 2.362 1_554 S
O555 Tb515 2.610 . S
O555 C571 1.283 . S
O556 Tb504 2.421 . S
O556 C578 1.262 1_556 S
O557 Tb515 2.320 . S
O557 C578 1.260 . S
O558 Tb515 2.552 . S
O558 C571 1.243 . S
O559 Tb515 2.413 . S
O559 C579 1.256 . S
C560 O549 1.283 . S
C560 O552 1.243 . S
C561 C563 1.382 . S
C561 C565 1.393 . S
C561 C568 1.500 . S
C562 C563 1.400 . S
C562 C564 1.384 . S
C563 C561 1.382 . S
C563 C562 1.400 . S
C563 H580 0.930 . S
C564 C562 1.384 . S
C564 C566 1.392 . S
C564 H581 0.931 . S
C565 C561 1.393 . S
C565 C566 1.401 . S
C565 H582 0.930 . S
C566 C564 1.392 . S
C566 C565 1.401 . S
C566 H583 0.930 . S
C567 O550 1.262 1_556 S
C567 O551 1.260 . S
C568 Tb504 2.833 . S
C568 O548 1.251 . S
C568 O553 1.256 . S
C568 C561 1.500 . S
C569 H534 0.929 . S
C569 C547 1.444 . S
C569 C570 1.317 . S
C570 H532 0.930 . S
C570 C538 1.432 . S
C570 C569 1.317 . S
C571 O555 1.283 . S
C571 O558 1.243 . S
C572 C573 1.382 . S
C572 C576 1.393 . S
C572 C579 1.500 . S
C573 C572 1.382 . S
C573 C574 1.400 . S
C573 H584 0.930 . S
C574 C573 1.400 . S
C574 C575 1.384 . S
C575 C574 1.384 . S
C575 C577 1.392 . S
C575 H585 0.931 . S
C576 C572 1.393 . S
C576 C577 1.401 . S
C576 H586 0.930 . S
C577 C575 1.392 . S
C577 C576 1.401 . S
C577 H587 0.930 . S
C578 O556 1.262 1_554 S
C578 O557 1.260 . S
C579 Tb515 2.833 . S
C579 O554 1.251 . S
C579 O559 1.256 . S
C579 C572 1.500 . S
H580 C563 0.930 . S
H581 C564 0.931 . S
H582 C565 0.930 . S
H583 C566 0.930 . S
H584 C573 0.930 . S
H585 C575 0.931 . S
H586 C576 0.930 . S
H587 C577 0.930 . S
Tb588 N619 2.659 1_655 S
Tb588 N626 2.600 1_655 S
Tb588 O632 2.546 . S
Tb588 O633 2.610 . S
Tb588 O635 2.320 1_655 S
Tb588 O636 2.552 . S
Tb588 O637 2.413 1_655 S
Tb588 O639 2.362 1_655 S
Tb588 O640 2.421 . S
Tb588 C652 2.833 . S
C589 C592 1.432 . S
C589 C593 1.414 . S
C589 N596 1.359 . S
C590 C592 1.417 . S
C590 C594 1.432 . S
C590 C602 1.410 . S
C591 C593 1.444 . S
C591 C594 1.317 . S
C591 H614 0.929 . S
C592 C589 1.432 . S
C592 C590 1.417 . S
C592 N600 1.360 . S
C593 C589 1.414 . S
C593 C591 1.444 . S
C593 C598 1.412 . S
C594 C590 1.432 . S
C594 C591 1.317 . S
C594 H606 0.930 . S
C595 C597 1.392 . S
C595 C598 1.343 1_455 S
C595 H607 0.931 . S
N596 C589 1.359 . S
N596 C597 1.327 1_655 S
N596 Tb599 2.600 1_655 S
C597 C595 1.392 . S
C597 N596 1.327 1_455 S
C597 H604 0.930 . S
C598 C593 1.412 . S
C598 C595 1.343 1_655 S
C598 H617 0.929 . S
Tb599 N596 2.600 1_455 S
Tb599 N600 2.652 1_455 S
Tb599 O633 2.359 1_455 S
Tb599 O634 2.427 . S
Tb599 O638 2.550 . S
Tb599 O639 2.612 . S
Tb599 O641 2.314 1_455 S
Tb599 O642 2.557 . S
Tb599 O643 2.412 1_455 S
Tb599 C663 2.834 . S
N600 C592 1.360 . S
N600 Tb599 2.652 1_655 S
N600 C601 1.305 . S
C601 N600 1.305 . S
C601 C603 1.407 . S
C601 H608 0.930 . S
C602 C590 1.410 . S
C602 C603 1.345 . S
C602 H610 0.930 . S
C603 C601 1.407 . S
C603 C602 1.345 . S
C603 H605 0.930 . S
H604 C597 0.930 . S
H605 C603 0.930 . S
H606 C594 0.930 . S
H607 C595 0.931 . S
H608 C601 0.930 . S
H609 C623 0.930 . S
H610 C602 0.930 . S
H611 C629 0.930 . S
H612 C620 0.930 . S
H613 C627 0.931 . S
H614 C591 0.929 . S
H615 C621 0.930 . S
H616 C654 0.930 . S
H617 C598 0.929 . S
H618 C653 0.929 . S
N619 Tb588 2.659 1_455 S
N619 C620 1.305 . S
N619 C624 1.360 . S
C620 H612 0.930 . S
C620 N619 1.305 . S
C620 C623 1.407 . S
C621 H615 0.930 . S
C621 C622 1.410 . S
C621 C623 1.345 . S
C622 C621 1.410 . S
C622 C624 1.417 . S
C622 C654 1.432 . S
C623 H609 0.930 . S
C623 C620 1.407 . S
C623 C621 1.345 . S
C624 N619 1.360 . S
C624 C622 1.417 . S
C624 C628 1.432 . S
H625 C630 0.930 . S
N626 Tb588 2.600 1_455 S
N626 C628 1.359 . S
N626 C629 1.327 1_455 S
C627 H613 0.931 . S
C627 C629 1.392 . S
C627 C630 1.370 1_655 S
C628 C624 1.432 . S
C628 N626 1.359 . S
C628 C631 1.414 . S
C629 H611 0.930 . S
C629 N626 1.327 1_655 S
C629 C627 1.392 . S
C630 H625 0.930 . S
C630 C627 1.370 1_455 S
C630 C631 1.385 . S
C631 C628 1.414 . S
C631 C630 1.385 . S
C631 C653 1.444 . S
O632 Tb588 2.546 . S
O632 C652 1.251 . S
O633 Tb588 2.610 . S
O633 Tb599 2.359 1_655 S
O633 C644 1.283 . S
O634 Tb599 2.427 . S
O634 C651 1.262 . S
O635 Tb588 2.320 1_455 S
O635 C651 1.260 . S
O636 Tb588 2.552 . S
O636 C644 1.243 . S
O637 Tb588 2.413 1_455 S
O637 C652 1.256 1_455 S
O638 Tb599 2.550 . S
O638 C663 1.251 . S
O639 Tb588 2.362 1_455 S
O639 Tb599 2.612 . S
O639 C655 1.283 . S
O640 Tb588 2.421 . S
O640 C662 1.262 . S
O641 Tb599 2.314 1_655 S
O641 C662 1.260 . S
O642 Tb599 2.557 . S
O642 C655 1.243 . S
O643 Tb599 2.412 1_655 S
O643 C663 1.256 1_655 S
C644 O633 1.283 . S
C644 O636 1.243 . S
C645 C647 1.382 . S
C645 C649 1.393 . S
C645 C652 1.500 . S
C646 C647 1.400 . S
C646 C648 1.384 . S
C647 C645 1.382 . S
C647 C646 1.400 . S
C647 H664 0.930 1_655 S
C648 C646 1.384 . S
C648 C650 1.392 . S
C648 H665 0.931 . S
C649 C645 1.393 . S
C649 C650 1.401 . S
C649 H666 0.930 . S
C650 C648 1.392 . S
C650 C649 1.401 . S
C650 H667 0.930 . S
C651 O634 1.262 . S
C651 O635 1.260 . S
C652 Tb588 2.833 . S
C652 O632 1.251 . S
C652 O637 1.256 1_655 S
C652 C645 1.500 . S
C653 H618 0.929 . S
C653 C631 1.444 . S
C653 C654 1.317 . S
C654 H616 0.930 . S
C654 C622 1.432 . S
C654 C653 1.317 . S
C655 O639 1.283 . S
C655 O642 1.243 . S
C656 C657 1.382 . S
C656 C660 1.393 . S
C656 C663 1.500 . S
C657 C656 1.382 . S
C657 C658 1.400 . S
C657 H668 0.930 1_455 S
C658 C657 1.400 . S
C658 C659 1.384 . S
C659 C658 1.384 . S
C659 C661 1.392 . S
C659 H669 0.931 . S
C660 C656 1.393 . S
C660 C661 1.401 . S
C660 H670 0.930 . S
C661 C659 1.392 . S
C661 C660 1.401 . S
C661 H671 0.930 . S
C662 O640 1.262 . S
C662 O641 1.260 . S
C663 Tb599 2.834 . S
C663 O638 1.251 . S
C663 O643 1.256 1_455 S
C663 C656 1.500 . S
H664 C647 0.930 1_455 S
H665 C648 0.931 . S
H666 C649 0.930 . S
H667 C650 0.930 . S
H668 C657 0.930 1_655 S
H669 C659 0.931 . S
H670 C660 0.930 . S
H671 C661 0.930 . S
H672 C680 0.950 . S
H673 C685 0.950 . S
H674 C682 0.950 . S
H675 C684 0.950 . S
H676 C686 0.950 . S
H677 C688 0.950 . S
H678 C690 0.950 . S
H679 C691 0.950 . S
C680 H672 0.950 . S
C680 C681 1.386 . S
C680 C682 1.391 . S
C681 C680 1.386 . S
C681 C685 1.393 . S
C682 H674 0.950 . S
C682 C680 1.391 . S
C682 C683 1.400 . S
C683 C682 1.400 . S
C683 C684 1.398 . S
C683 C689 1.491 . S
C684 H675 0.950 . S
C684 C683 1.398 . S
C684 C685 1.391 . S
C685 H673 0.950 . S
C685 C681 1.393 . S
C685 C684 1.391 . S
C686 H676 0.950 . S
C686 C687 1.386 . S
C686 C688 1.391 . S
C687 C686 1.386 . S
C687 C691 1.393 . S
C688 H677 0.950 . S
C688 C686 1.391 . S
C688 C689 1.400 . S
C689 C683 1.491 . S
C689 C688 1.400 . S
C689 C690 1.398 . S
C690 H678 0.950 . S
C690 C689 1.398 . S
C690 C691 1.391 . S
C691 H679 0.950 . S
C691 C687 1.393 . S
C691 C690 1.391 . S
H692 C700 0.950 . S
H693 C705 0.950 . S
H694 C702 0.950 . S
H695 C704 0.950 . S
H696 C706 0.950 . S
H697 C708 0.950 . S
H698 C710 0.950 . S
H699 C711 0.950 . S
C700 H692 0.950 . S
C700 C701 1.386 . S
C700 C702 1.391 . S
C701 C700 1.386 . S
C701 C705 1.393 . S
C702 H694 0.950 . S
C702 C700 1.391 . S
C702 C703 1.400 . S
C703 C702 1.400 . S
C703 C704 1.398 . S
C703 C709 1.491 . S
C704 H695 0.950 . S
C704 C703 1.398 . S
C704 C705 1.391 . S
C705 H693 0.950 . S
C705 C701 1.393 . S
C705 C704 1.391 . S
C706 H696 0.950 . S
C706 C707 1.386 . S
C706 C708 1.391 . S
C707 C706 1.386 . S
C707 C711 1.393 . S
C708 H697 0.950 . S
C708 C706 1.391 . S
C708 C709 1.400 . S
C709 C703 1.491 . S
C709 C708 1.400 . S
C709 C710 1.398 . S
C710 H698 0.950 . S
C710 C709 1.398 . S
C710 C711 1.391 . S
C711 H699 0.950 . S
C711 C707 1.393 . S
C711 C710 1.391 . S
H712 C720 0.950 . S
H713 C725 0.950 . S
H714 C722 0.950 . S
H715 C724 0.950 . S
H716 C726 0.950 . S
H717 C728 0.950 . S
H718 C730 0.950 . S
H719 C731 0.950 . S
C720 H712 0.950 . S
C720 C721 1.386 . S
C720 C722 1.391 . S
C721 C720 1.386 . S
C721 C725 1.393 . S
C722 H714 0.950 . S
C722 C720 1.391 . S
C722 C723 1.400 . S
C723 C722 1.400 . S
C723 C724 1.398 . S
C723 C729 1.491 . S
C724 H715 0.950 . S
C724 C723 1.398 . S
C724 C725 1.391 . S
C725 H713 0.950 . S
C725 C721 1.393 . S
C725 C724 1.391 . S
C726 H716 0.950 . S
C726 C727 1.386 . S
C726 C728 1.391 . S
C727 C726 1.386 . S
C727 C731 1.393 . S
C728 H717 0.950 . S
C728 C726 1.391 . S
C728 C729 1.400 . S
C729 C723 1.491 . S
C729 C728 1.400 . S
C729 C730 1.398 . S
C730 H718 0.950 . S
C730 C729 1.398 . S
C730 C731 1.391 . S
C731 H719 0.950 . S
C731 C727 1.393 . S
C731 C730 1.391 . S
H732 C740 0.950 . S
H733 C745 0.950 . S
H734 C742 0.950 . S
H735 C744 0.950 . S
H736 C746 0.950 . S
H737 C748 0.950 . S
H738 C750 0.950 . S
H739 C751 0.950 . S
C740 H732 0.950 . S
C740 C741 1.386 . S
C740 C742 1.391 . S
C741 C740 1.386 . S
C741 C745 1.393 . S
C742 H734 0.950 . S
C742 C740 1.391 . S
C742 C743 1.400 . S
C743 C742 1.400 . S
C743 C744 1.398 . S
C743 C749 1.491 . S
C744 H735 0.950 . S
C744 C743 1.398 . S
C744 C745 1.391 . S
C745 H733 0.950 . S
C745 C741 1.393 . S
C745 C744 1.391 . S
C746 H736 0.950 . S
C746 C747 1.386 . S
C746 C748 1.391 . S
C747 C746 1.386 . S
C747 C751 1.393 . S
C748 H737 0.950 . S
C748 C746 1.391 . S
C748 C749 1.400 . S
C749 C743 1.491 . S
C749 C748 1.400 . S
C749 C750 1.398 . S
C750 H738 0.950 . S
C750 C749 1.398 . S
C750 C751 1.391 . S
C751 H739 0.950 . S
C751 C747 1.393 . S
C751 C750 1.391 . S
H752 C760 0.950 . S
H753 C765 0.950 . S
H754 C762 0.950 . S
H755 C764 0.950 . S
H756 C766 0.950 . S
H757 C768 0.950 . S
H758 C770 0.950 . S
H759 C771 0.950 . S
C760 H752 0.950 . S
C760 C761 1.386 . S
C760 C762 1.391 . S
C761 C760 1.386 . S
C761 C765 1.393 . S
C762 H754 0.950 . S
C762 C760 1.391 . S
C762 C763 1.400 . S
C763 C762 1.400 . S
C763 C764 1.398 . S
C763 C769 1.491 . S
C764 H755 0.950 . S
C764 C763 1.398 . S
C764 C765 1.391 . S
C765 H753 0.950 . S
C765 C761 1.393 . S
C765 C764 1.391 . S
C766 H756 0.950 . S
C766 C767 1.386 . S
C766 C768 1.391 . S
C767 C766 1.386 . S
C767 C771 1.393 . S
C768 H757 0.950 . S
C768 C766 1.391 . S
C768 C769 1.400 . S
C769 C763 1.491 . S
C769 C768 1.400 . S
C769 C770 1.398 . S
C770 H758 0.950 . S
C770 C769 1.398 . S
C770 C771 1.391 . S
C771 H759 0.950 . S
C771 C767 1.393 . S
C771 C770 1.391 . S
H772 C780 0.950 . S
H773 C785 0.950 . S
H774 C782 0.950 . S
H775 C784 0.950 . S
H776 C786 0.950 . S
H777 C788 0.950 . S
H778 C790 0.950 . S
H779 C791 0.950 . S
C780 H772 0.950 . S
C780 C781 1.386 . S
C780 C782 1.391 . S
C781 C780 1.386 . S
C781 C785 1.393 . S
C782 H774 0.950 . S
C782 C780 1.391 . S
C782 C783 1.400 . S
C783 C782 1.400 . S
C783 C784 1.398 . S
C783 C789 1.491 . S
C784 H775 0.950 . S
C784 C783 1.398 . S
C784 C785 1.391 . S
C785 H773 0.950 . S
C785 C781 1.393 . S
C785 C784 1.391 . S
C786 H776 0.950 . S
C786 C787 1.386 . S
C786 C788 1.391 . S
C787 C786 1.386 . S
C787 C791 1.393 . S
C788 H777 0.950 . S
C788 C786 1.391 . S
C788 C789 1.400 . S
C789 C783 1.491 . S
C789 C788 1.400 . S
C789 C790 1.398 . S
C790 H778 0.950 . S
C790 C789 1.398 . S
C790 C791 1.391 . S
C791 H779 0.950 . S
C791 C787 1.393 . S
C791 C790 1.391 . S
H792 C800 0.950 . S
H793 C805 0.950 . S
H794 C802 0.950 . S
H795 C804 0.950 . S
H796 C806 0.950 . S
H797 C808 0.950 . S
H798 C810 0.950 . S
H799 C811 0.950 . S
C800 H792 0.950 . S
C800 C801 1.386 . S
C800 C802 1.391 . S
C801 C800 1.386 . S
C801 C805 1.393 . S
C802 H794 0.950 . S
C802 C800 1.391 . S
C802 C803 1.400 . S
C803 C802 1.400 . S
C803 C804 1.398 . S
C803 C809 1.491 . S
C804 H795 0.950 . S
C804 C803 1.398 . S
C804 C805 1.391 . S
C805 H793 0.950 . S
C805 C801 1.393 . S
C805 C804 1.391 . S
C806 H796 0.950 . S
C806 C807 1.386 . S
C806 C808 1.391 . S
C807 C806 1.386 . S
C807 C811 1.393 . S
C808 H797 0.950 . S
C808 C806 1.391 . S
C808 C809 1.400 . S
C809 C803 1.491 . S
C809 C808 1.400 . S
C809 C810 1.398 . S
C810 H798 0.950 . S
C810 C809 1.398 . S
C810 C811 1.391 . S
C811 H799 0.950 . S
C811 C807 1.393 . S
C811 C810 1.391 . S
H812 C820 0.950 . S
H813 C825 0.950 . S
H814 C822 0.950 . S
H815 C824 0.950 . S
H816 C826 0.950 . S
H817 C828 0.950 . S
H818 C830 0.950 . S
H819 C831 0.950 . S
C820 H812 0.950 . S
C820 C821 1.386 . S
C820 C822 1.391 . S
C821 C820 1.386 . S
C821 C825 1.393 . S
C822 H814 0.950 . S
C822 C820 1.391 . S
C822 C823 1.400 . S
C823 C822 1.400 . S
C823 C824 1.398 . S
C823 C829 1.491 . S
C824 H815 0.950 . S
C824 C823 1.398 . S
C824 C825 1.391 . S
C825 H813 0.950 . S
C825 C821 1.393 . S
C825 C824 1.391 . S
C826 H816 0.950 . S
C826 C827 1.386 . S
C826 C828 1.391 . S
C827 C826 1.386 . S
C827 C831 1.393 . S
C828 H817 0.950 . S
C828 C826 1.391 . S
C828 C829 1.400 . S
C829 C823 1.491 . S
C829 C828 1.400 . S
C829 C830 1.398 . S
C830 H818 0.950 . S
C830 C829 1.398 . S
C830 C831 1.391 . S
C831 H819 0.950 . S
C831 C827 1.393 . S
C831 C830 1.391 . S
H832 C840 0.950 . S
H833 C845 0.950 . S
H834 C842 0.950 . S
H835 C844 0.950 . S
H836 C846 0.950 . S
H837 C848 0.950 . S
H838 C850 0.950 . S
H839 C851 0.950 . S
C840 H832 0.950 . S
C840 C841 1.386 . S
C840 C842 1.391 . S
C841 C840 1.386 . S
C841 C845 1.393 . S
C842 H834 0.950 . S
C842 C840 1.391 . S
C842 C843 1.400 . S
C843 C842 1.400 . S
C843 C844 1.398 . S
C843 C849 1.491 . S
C844 H835 0.950 . S
C844 C843 1.398 . S
C844 C845 1.391 . S
C845 H833 0.950 . S
C845 C841 1.393 . S
C845 C844 1.391 . S
C846 H836 0.950 . S
C846 C847 1.386 . S
C846 C848 1.391 . S
C847 C846 1.386 . S
C847 C851 1.393 . S
C848 H837 0.950 . S
C848 C846 1.391 . S
C848 C849 1.400 . S
C849 C843 1.491 . S
C849 C848 1.400 . S
C849 C850 1.398 . S
C850 H838 0.950 . S
C850 C849 1.398 . S
C850 C851 1.391 . S
C851 H839 0.950 . S
C851 C847 1.393 . S
C851 C850 1.391 . S
H852 C860 0.950 . S
H853 C865 0.950 . S
H854 C862 0.950 . S
H855 C864 0.950 . S
H856 C866 0.950 . S
H857 C868 0.950 . S
H858 C870 0.950 . S
H859 C871 0.950 . S
C860 H852 0.950 . S
C860 C861 1.386 . S
C860 C862 1.391 . S
C861 C860 1.386 . S
C861 C865 1.393 . S
C862 H854 0.950 . S
C862 C860 1.391 . S
C862 C863 1.400 . S
C863 C862 1.400 . S
C863 C864 1.398 . S
C863 C869 1.491 . S
C864 H855 0.950 . S
C864 C863 1.398 . S
C864 C865 1.391 . S
C865 H853 0.950 . S
C865 C861 1.393 . S
C865 C864 1.391 . S
C866 H856 0.950 . S
C866 C867 1.386 . S
C866 C868 1.391 . S
C867 C866 1.386 . S
C867 C871 1.393 . S
C868 H857 0.950 . S
C868 C866 1.391 . S
C868 C869 1.400 . S
C869 C863 1.491 . S
C869 C868 1.400 . S
C869 C870 1.398 . S
C870 H858 0.950 . S
C870 C869 1.398 . S
C870 C871 1.391 . S
C871 H859 0.950 . S
C871 C867 1.393 . S
C871 C870 1.391 . S
H872 C880 0.950 . S
H873 C885 0.950 . S
H874 C882 0.950 . S
H875 C884 0.950 . S
H876 C886 0.950 . S
H877 C888 0.950 . S
H878 C890 0.950 . S
H879 C891 0.950 . S
C880 H872 0.950 . S
C880 C881 1.386 . S
C880 C882 1.391 . S
C881 C880 1.386 . S
C881 C885 1.393 . S
C882 H874 0.950 . S
C882 C880 1.391 . S
C882 C883 1.400 . S
C883 C882 1.400 . S
C883 C884 1.398 . S
C883 C889 1.491 . S
C884 H875 0.950 . S
C884 C883 1.398 . S
C884 C885 1.391 . S
C885 H873 0.950 . S
C885 C881 1.393 . S
C885 C884 1.391 . S
C886 H876 0.950 . S
C886 C887 1.386 . S
C886 C888 1.391 . S
C887 C886 1.386 . S
C887 C891 1.393 . S
C888 H877 0.950 . S
C888 C886 1.391 . S
C888 C889 1.400 . S
C889 C883 1.491 . S
C889 C888 1.400 . S
C889 C890 1.398 . S
C890 H878 0.950 . S
C890 C889 1.398 . S
C890 C891 1.391 . S
C891 H879 0.950 . S
C891 C887 1.393 . S
C891 C890 1.391 . S
H892 C900 0.950 . S
H893 C905 0.950 . S
H894 C902 0.950 . S
H895 C904 0.950 . S
H896 C906 0.950 . S
H897 C908 0.950 . S
H898 C910 0.950 . S
H899 C911 0.950 . S
C900 H892 0.950 . S
C900 C901 1.386 . S
C900 C902 1.391 . S
C901 C900 1.386 . S
C901 C905 1.393 . S
C902 H894 0.950 . S
C902 C900 1.391 . S
C902 C903 1.400 . S
C903 C902 1.400 . S
C903 C904 1.398 . S
C903 C909 1.491 . S
C904 H895 0.950 . S
C904 C903 1.398 . S
C904 C905 1.391 . S
C905 H893 0.950 . S
C905 C901 1.393 . S
C905 C904 1.391 . S
C906 H896 0.950 . S
C906 C907 1.386 . S
C906 C908 1.391 . S
C907 C906 1.386 . S
C907 C911 1.393 . S
C908 H897 0.950 . S
C908 C906 1.391 . S
C908 C909 1.400 . S
C909 C903 1.491 . S
C909 C908 1.400 . S
C909 C910 1.398 . S
C910 H898 0.950 . S
C910 C909 1.398 . S
C910 C911 1.391 . S
C911 H899 0.950 . S
C911 C907 1.393 . S
C911 C910 1.391 . S
H912 C920 0.950 . S
H913 C925 0.950 . S
H914 C922 0.950 . S
H915 C924 0.950 . S
H916 C926 0.950 . S
H917 C928 0.950 . S
H918 C930 0.950 . S
H919 C931 0.950 . S
C920 H912 0.950 . S
C920 C921 1.386 . S
C920 C922 1.391 . S
C921 C920 1.386 . S
C921 C925 1.393 . S
C922 H914 0.950 . S
C922 C920 1.391 . S
C922 C923 1.400 . S
C923 C922 1.400 . S
C923 C924 1.398 . S
C923 C929 1.491 . S
C924 H915 0.950 . S
C924 C923 1.398 . S
C924 C925 1.391 . S
C925 H913 0.950 . S
C925 C921 1.393 . S
C925 C924 1.391 . S
C926 H916 0.950 . S
C926 C927 1.386 . S
C926 C928 1.391 . S
C927 C926 1.386 . S
C927 C931 1.393 . S
C928 H917 0.950 . S
C928 C926 1.391 . S
C928 C929 1.400 . S
C929 C923 1.491 . S
C929 C928 1.400 . S
C929 C930 1.398 . S
C930 H918 0.950 . S
C930 C929 1.398 . S
C930 C931 1.391 . S
C931 H919 0.950 . S
C931 C927 1.393 . S
C931 C930 1.391 . S
H932 C940 0.950 . S
H933 C945 0.950 . S
H934 C942 0.950 . S
H935 C944 0.950 . S
H936 C946 0.950 . S
H937 C948 0.950 . S
H938 C950 0.950 . S
H939 C951 0.950 . S
C940 H932 0.950 . S
C940 C941 1.386 . S
C940 C942 1.391 . S
C941 C940 1.386 . S
C941 C945 1.393 . S
C942 H934 0.950 . S
C942 C940 1.391 . S
C942 C943 1.400 . S
C943 C942 1.400 . S
C943 C944 1.398 . S
C943 C949 1.491 . S
C944 H935 0.950 . S
C944 C943 1.398 . S
C944 C945 1.391 . S
C945 H933 0.950 . S
C945 C941 1.393 . S
C945 C944 1.391 . S
C946 H936 0.950 . S
C946 C947 1.386 . S
C946 C948 1.391 . S
C947 C946 1.386 . S
C947 C951 1.393 . S
C948 H937 0.950 . S
C948 C946 1.391 . S
C948 C949 1.400 . S
C949 C943 1.491 . S
C949 C948 1.400 . S
C949 C950 1.398 . S
C950 H938 0.950 . S
C950 C949 1.398 . S
C950 C951 1.391 . S
C951 H939 0.950 . S
C951 C947 1.393 . S
C951 C950 1.391 . S
H952 C960 0.950 . S
H953 C965 0.950 . S
H954 C962 0.950 . S
H955 C964 0.950 . S
H956 C966 0.950 . S
H957 C968 0.950 . S
H958 C970 0.950 . S
H959 C971 0.950 . S
C960 H952 0.950 . S
C960 C961 1.386 . S
C960 C962 1.391 . S
C961 C960 1.386 . S
C961 C965 1.393 . S
C962 H954 0.950 . S
C962 C960 1.391 . S
C962 C963 1.400 . S
C963 C962 1.400 . S
C963 C964 1.398 . S
C963 C969 1.491 . S
C964 H955 0.950 . S
C964 C963 1.398 . S
C964 C965 1.391 . S
C965 H953 0.950 . S
C965 C961 1.393 . S
C965 C964 1.391 . S
C966 H956 0.950 . S
C966 C967 1.386 . S
C966 C968 1.391 . S
C967 C966 1.386 . S
C967 C971 1.393 . S
C968 H957 0.950 . S
C968 C966 1.391 . S
C968 C969 1.400 . S
C969 C963 1.491 . S
C969 C968 1.400 . S
C969 C970 1.398 . S
C970 H958 0.950 . S
C970 C969 1.398 . S
C970 C971 1.391 . S
C971 H959 0.950 . S
C971 C967 1.393 . S
C971 C970 1.391 . S
H972 C980 0.950 . S
H973 C985 0.950 . S
H974 C982 0.950 . S
H975 C984 0.950 . S
H976 C986 0.950 . S
H977 C988 0.950 . S
H978 C990 0.950 . S
H979 C991 0.950 . S
C980 H972 0.950 . S
C980 C981 1.386 . S
C980 C982 1.391 . S
C981 C980 1.386 . S
C981 C985 1.393 . S
C982 H974 0.950 . S
C982 C980 1.391 . S
C982 C983 1.400 . S
C983 C982 1.400 . S
C983 C984 1.398 . S
C983 C989 1.491 . S
C984 H975 0.950 . S
C984 C983 1.398 . S
C984 C985 1.391 . S
C985 H973 0.950 . S
C985 C981 1.393 . S
C985 C984 1.391 . S
C986 H976 0.950 . S
C986 C987 1.386 . S
C986 C988 1.391 . S
C987 C986 1.386 . S
C987 C991 1.393 . S
C988 H977 0.950 . S
C988 C986 1.391 . S
C988 C989 1.400 . S
C989 C983 1.491 . S
C989 C988 1.400 . S
C989 C990 1.398 . S
C990 H978 0.950 . S
C990 C989 1.398 . S
C990 C991 1.391 . S
C991 H979 0.950 . S
C991 C987 1.393 . S
C991 C990 1.391 . S
H992 C1000 0.950 . S
H993 C1005 0.950 . S
H994 C1002 0.950 . S
H995 C1004 0.950 . S
H996 C1006 0.950 . S
H997 C1008 0.950 . S
H998 C1010 0.950 . S
H999 C1011 0.950 . S
C1000 H992 0.950 . S
C1000 C1001 1.386 1_455 S
C1000 C1002 1.391 . S
C1001 C1000 1.386 1_655 S
C1001 C1005 1.392 1_565 S
C1002 H994 0.950 . S
C1002 C1000 1.391 . S
C1002 C1003 1.379 1_465 S
C1003 C1002 1.379 1_645 S
C1003 C1004 1.421 . S
C1003 C1009 1.490 1_646 S
C1004 H995 0.950 . S
C1004 C1003 1.421 . S
C1004 C1005 1.391 . S
C1005 H993 0.950 . S
C1005 C1001 1.392 1_545 S
C1005 C1004 1.391 . S
C1006 H996 0.950 . S
C1006 C1007 1.386 1_655 S
C1006 C1008 1.391 . S
C1007 C1006 1.386 1_455 S
C1007 C1011 1.393 1_545 S
C1008 H997 0.950 . S
C1008 C1006 1.391 . S
C1008 C1009 1.372 1_645 S
C1009 C1003 1.490 1_464 S
C1009 C1008 1.372 1_465 S
C1009 C1010 1.428 . S
C1010 H998 0.950 . S
C1010 C1009 1.428 . S
C1010 C1011 1.391 . S
C1011 H999 0.950 . S
C1011 C1007 1.393 1_565 S
C1011 C1010 1.391 . S
H1012 C1020 0.950 . S
H1013 C1025 0.950 . S
H1014 C1022 0.950 . S
H1015 C1024 0.950 . S
H1016 C1026 0.950 . S
H1017 C1028 0.950 . S
H1018 C1030 0.950 . S
H1019 C1031 0.950 . S
C1020 H1012 0.950 . S
C1020 C1021 1.386 . S
C1020 C1022 1.391 . S
C1021 C1020 1.386 . S
C1021 C1025 1.393 . S
C1022 H1014 0.950 . S
C1022 C1020 1.391 . S
C1022 C1023 1.400 . S
C1023 C1022 1.400 . S
C1023 C1024 1.398 . S
C1023 C1029 1.491 . S
C1024 H1015 0.950 . S
C1024 C1023 1.398 . S
C1024 C1025 1.391 . S
C1025 H1013 0.950 . S
C1025 C1021 1.393 . S
C1025 C1024 1.391 . S
C1026 H1016 0.950 . S
C1026 C1027 1.386 . S
C1026 C1028 1.391 . S
C1027 C1026 1.386 . S
C1027 C1031 1.393 . S
C1028 H1017 0.950 . S
C1028 C1026 1.391 . S
C1028 C1029 1.400 . S
C1029 C1023 1.491 . S
C1029 C1028 1.400 . S
C1029 C1030 1.398 . S
C1030 H1018 0.950 . S
C1030 C1029 1.398 . S
C1030 C1031 1.391 . S
C1031 H1019 0.950 . S
C1031 C1027 1.393 . S
C1031 C1030 1.391 . S
H1032 C1040 0.950 . S
H1033 C1045 0.950 . S
H1034 C1042 0.950 . S
H1035 C1044 0.950 . S
H1036 C1046 0.950 . S
H1037 C1048 0.950 . S
H1038 C1050 0.950 . S
H1039 C1051 0.950 . S
C1040 H1032 0.950 . S
C1040 C1041 1.386 . S
C1040 C1042 1.391 . S
C1041 C1040 1.386 . S
C1041 C1045 1.393 1_565 S
C1042 H1034 0.950 . S
C1042 C1040 1.391 . S
C1042 C1043 1.409 . S
C1043 C1042 1.409 . S
C1043 C1044 1.390 1_565 S
C1043 C1049 1.490 1_565 S
C1044 H1035 0.950 . S
C1044 C1043 1.390 1_545 S
C1044 C1045 1.391 . S
C1045 H1033 0.950 . S
C1045 C1041 1.393 1_545 S
C1045 C1044 1.391 . S
C1046 H1036 0.950 . S
C1046 C1047 1.386 . S
C1046 C1048 1.391 . S
C1047 C1046 1.386 . S
C1047 C1051 1.393 1_545 S
C1048 H1037 0.950 . S
C1048 C1046 1.391 . S
C1048 C1049 1.416 . S
C1049 C1043 1.490 1_545 S
C1049 C1048 1.416 . S
C1049 C1050 1.384 1_545 S
C1050 H1038 0.950 . S
C1050 C1049 1.384 1_565 S
C1050 C1051 1.391 . S
C1051 H1039 0.950 . S
C1051 C1047 1.393 1_565 S
C1051 C1050 1.391 . S
H1052 C1060 0.950 . S
H1053 C1065 0.950 . S
H1054 C1062 0.950 . S
H1055 C1064 0.950 . S
H1056 C1066 0.950 . S
H1057 C1068 0.950 . S
H1058 C1070 0.950 . S
H1059 C1071 0.950 . S
C1060 H1052 0.950 . S
C1060 C1061 1.386 . S
C1060 C1062 1.391 . S
C1061 C1060 1.386 . S
C1061 C1065 1.393 . S
C1062 H1054 0.950 . S
C1062 C1060 1.391 . S
C1062 C1063 1.400 . S
C1063 C1062 1.400 . S
C1063 C1064 1.398 . S
C1063 C1069 1.491 . S
C1064 H1055 0.950 . S
C1064 C1063 1.398 . S
C1064 C1065 1.391 . S
C1065 H1053 0.950 . S
C1065 C1061 1.393 . S
C1065 C1064 1.391 . S
C1066 H1056 0.950 . S
C1066 C1067 1.386 . S
C1066 C1068 1.391 . S
C1067 C1066 1.386 . S
C1067 C1071 1.393 . S
C1068 H1057 0.950 . S
C1068 C1066 1.391 . S
C1068 C1069 1.400 . S
C1069 C1063 1.491 . S
C1069 C1068 1.400 . S
C1069 C1070 1.398 . S
C1070 H1058 0.950 . S
C1070 C1069 1.398 . S
C1070 C1071 1.391 . S
C1071 H1059 0.950 . S
C1071 C1067 1.393 . S
C1071 C1070 1.391 . S
H1072 C1080 0.950 . S
H1073 C1085 0.950 . S
H1074 C1082 0.950 . S
H1075 C1084 0.950 . S
H1076 C1086 0.950 . S
H1077 C1088 0.950 . S
H1078 C1090 0.950 . S
H1079 C1091 0.950 . S
C1080 H1072 0.950 . S
C1080 C1081 1.386 . S
C1080 C1082 1.391 . S
C1081 C1080 1.386 . S
C1081 C1085 1.393 . S
C1082 H1074 0.950 . S
C1082 C1080 1.391 . S
C1082 C1083 1.400 . S
C1083 C1082 1.400 . S
C1083 C1084 1.398 . S
C1083 C1089 1.491 . S
C1084 H1075 0.950 . S
C1084 C1083 1.398 . S
C1084 C1085 1.391 . S
C1085 H1073 0.950 . S
C1085 C1081 1.393 . S
C1085 C1084 1.391 . S
C1086 H1076 0.950 . S
C1086 C1087 1.386 . S
C1086 C1088 1.391 . S
C1087 C1086 1.386 . S
C1087 C1091 1.393 . S
C1088 H1077 0.950 . S
C1088 C1086 1.391 . S
C1088 C1089 1.400 . S
C1089 C1083 1.491 . S
C1089 C1088 1.400 . S
C1089 C1090 1.398 . S
C1090 H1078 0.950 . S
C1090 C1089 1.398 . S
C1090 C1091 1.391 . S
C1091 H1079 0.950 . S
C1091 C1087 1.393 . S
C1091 C1090 1.391 . S
H1092 C1100 0.950 . S
H1093 C1105 0.950 . S
H1094 C1102 0.950 . S
H1095 C1104 0.950 . S
H1096 C1106 0.950 . S
H1097 C1108 0.950 . S
H1098 C1110 0.950 . S
H1099 C1111 0.950 . S
C1100 H1092 0.950 . S
C1100 C1101 1.386 . S
C1100 C1102 1.391 . S
C1101 C1100 1.386 . S
C1101 C1105 1.393 . S
C1102 H1094 0.950 . S
C1102 C1100 1.391 . S
C1102 C1103 1.400 . S
C1103 C1102 1.400 . S
C1103 C1104 1.398 . S
C1103 C1109 1.491 . S
C1104 H1095 0.950 . S
C1104 C1103 1.398 . S
C1104 C1105 1.391 . S
C1105 H1093 0.950 . S
C1105 C1101 1.393 . S
C1105 C1104 1.391 . S
C1106 H1096 0.950 . S
C1106 C1107 1.386 . S
C1106 C1108 1.391 . S
C1107 C1106 1.386 . S
C1107 C1111 1.393 . S
C1108 H1097 0.950 . S
C1108 C1106 1.391 . S
C1108 C1109 1.400 . S
C1109 C1103 1.491 . S
C1109 C1108 1.400 . S
C1109 C1110 1.398 . S
C1110 H1098 0.950 . S
C1110 C1109 1.398 . S
C1110 C1111 1.391 . S
C1111 H1099 0.950 . S
C1111 C1107 1.393 . S
C1111 C1110 1.391 . S
H1112 C1120 0.950 . S
H1113 C1125 0.950 . S
H1114 C1122 0.950 . S
H1115 C1124 0.950 . S
H1116 C1126 0.950 . S
H1117 C1128 0.950 . S
H1118 C1130 0.950 . S
H1119 C1131 0.950 . S
C1120 H1112 0.950 . S
C1120 C1121 1.386 . S
C1120 C1122 1.391 . S
C1121 C1120 1.386 . S
C1121 C1125 1.393 . S
C1122 H1114 0.950 . S
C1122 C1120 1.391 . S
C1122 C1123 1.400 . S
C1123 C1122 1.400 . S
C1123 C1124 1.398 . S
C1123 C1129 1.491 . S
C1124 H1115 0.950 . S
C1124 C1123 1.398 . S
C1124 C1125 1.391 . S
C1125 H1113 0.950 . S
C1125 C1121 1.393 . S
C1125 C1124 1.391 . S
C1126 H1116 0.950 . S
C1126 C1127 1.386 . S
C1126 C1128 1.391 . S
C1127 C1126 1.386 . S
C1127 C1131 1.393 . S
C1128 H1117 0.950 . S
C1128 C1126 1.391 . S
C1128 C1129 1.400 . S
C1129 C1123 1.491 . S
C1129 C1128 1.400 . S
C1129 C1130 1.398 . S
C1130 H1118 0.950 . S
C1130 C1129 1.398 . S
C1130 C1131 1.391 . S
C1131 H1119 0.950 . S
C1131 C1127 1.393 . S
C1131 C1130 1.391 . S
H1132 C1140 0.950 . S
H1133 C1145 0.950 . S
H1134 C1142 0.950 . S
H1135 C1144 0.950 . S
H1136 C1146 0.950 . S
H1137 C1148 0.950 . S
H1138 C1150 0.950 . S
H1139 C1151 0.950 . S
C1140 H1132 0.950 . S
C1140 C1141 1.386 1_455 S
C1140 C1142 1.391 . S
C1141 C1140 1.386 1_655 S
C1141 C1145 1.393 . S
C1142 H1134 0.950 . S
C1142 C1140 1.391 . S
C1142 C1143 1.400 1_455 S
C1143 C1142 1.400 1_655 S
C1143 C1144 1.398 . S
C1143 C1149 1.491 1_656 S
C1144 H1135 0.950 . S
C1144 C1143 1.398 . S
C1144 C1145 1.391 . S
C1145 H1133 0.950 . S
C1145 C1141 1.393 . S
C1145 C1144 1.391 . S
C1146 H1136 0.950 . S
C1146 C1147 1.386 1_655 S
C1146 C1148 1.391 . S
C1147 C1146 1.386 1_455 S
C1147 C1151 1.393 . S
C1148 H1137 0.950 . S
C1148 C1146 1.391 . S
C1148 C1149 1.400 1_655 S
C1149 C1143 1.491 1_454 S
C1149 C1148 1.400 1_455 S
C1149 C1150 1.398 . S
C1150 H1138 0.950 . S
C1150 C1149 1.398 . S
C1150 C1151 1.391 . S
C1151 H1139 0.950 . S
C1151 C1147 1.393 . S
C1151 C1150 1.391 . S
C681 C56 1.608 . S
C687 C308 1.594 . S
C701 C74 1.460 . S
C707 C140 1.456 . S
C721 C158 1.309 . S
C727 C242 1.329 . S
C741 C224 1.444 . S
C747 C326 1.473 . S
C761 C67 1.593 . S
C767 C487 1.612 . S
C781 C63 1.478 . S
C787 C403 1.440 . S
C801 C399 1.309 . S
C807 C231 1.318 . S
C821 C483 1.459 . S
C827 C235 1.463 . S
C841 C560 1.590 . S
C847 C476 1.585 . S
C861 C392 1.460 . S
C867 C578 1.458 . S
C881 C662 1.329 . S
C887 C410 1.329 . S
C901 C494 1.464 . S
C907 C644 1.460 . S
C921 C319 1.590 . S
C927 C571 1.605 . S
C941 C567 1.471 . S
C947 C151 1.444 . S
C961 C147 1.327 . S
C967 C651 1.307 . S
C981 C315 1.474 . S
C987 C655 1.443 . S
C1001 C70 1.387 1_565 S
C1007 C58 1.398 1_545 S
C1021 C142 1.427 . S
C1027 C154 1.427 . S
C1041 C238 1.406 1_565 S
C1047 C226 1.406 1_545 S
C1061 C322 1.399 . S
C1067 C310 1.399 . S
C1081 C394 1.425 . S
C1087 C406 1.425 . S
C1101 C490 1.418 . S
C1107 C478 1.418 . S
C1121 C562 1.439 . S
C1127 C574 1.439 . S
C1141 C646 1.423 . S
C1147 C658 1.423 . S
