# Generated by pormake.
# Topology sma, (6)-cn, num edge types: 1
# Building blocks:
#     Node 0, Type 0, BuildingBlock: VOLQOD_clean_sbu_1, # of connection points: 6
#     Node 1, Type 0, BuildingBlock: VOLQOD_clean_sbu_1, # of connection points: 6
#     Node 2, Type 0, BuildingBlock: VOLQOD_clean_sbu_1, # of connection points: 6
#     Edge 3, Type (0, 0), BuildingBlock: MIFKUJ_clean_linker_0, # of connection points: 2
#     Edge 4, Type (0, 0), BuildingBlock: MIFKUJ_clean_linker_0, # of connection points: 2
#     Edge 5, Type (0, 0), BuildingBlock: MIFKUJ_clean_linker_0, # of connection points: 2
#     Edge 6, Type (0, 0), BuildingBlock: MIFKUJ_clean_linker_0, # of connection points: 2
#     Edge 7, Type (0, 0), BuildingBlock: MIFKUJ_clean_linker_0, # of connection points: 2
#     Edge 8, Type (0, 0), BuildingBlock: MIFKUJ_clean_linker_0, # of connection points: 2
#     Edge 9, Type (0, 0), BuildingBlock: MIFKUJ_clean_linker_0, # of connection points: 2
#     Edge 10, Type (0, 0), BuildingBlock: MIFKUJ_clean_linker_0, # of connection points: 2
#     Edge 11, Type (0, 0), BuildingBlock: MIFKUJ_clean_linker_0, # of connection points: 2
# Relax obj value: 0.285
# Max RMSD: 0.234
# Mean RMSD: 0.234
data_MOF--net-sma--node1-VOLQOD_clean_sbu_1--edge1-MIFKUJ_clean_linker_0
_symmetry_space_group_name_H-M    P1
_symmetry_Int_Tables_number       1
_symmetry_cell_setting            triclinic
loop_
_symmetry_equiv_pos_as_xyz
'x, y, z'
_cell_length_a     38.79172
_cell_length_b     38.853395
_cell_length_c     20.975523
_cell_angle_alpha  90.666839
_cell_angle_beta   89.86493
_cell_angle_gamma 119.99929
loop_
_atom_site_label
_atom_site_type_symbol
_atom_site_fract_x
_atom_site_fract_y
_atom_site_fract_z
_atom_type_partial_charge
O0 O 0.01911 0.58606 0.01303 0.0
Zn1 Zn 0.01412 0.59362 0.10598 0.0
O2 O 0.00398 0.54588 0.14797 0.0
Zn3 Zn 0.05287 0.55417 0.18506 0.0
Zn4 Zn 0.9843 0.50348 0.08496 0.0
Zn5 Zn 0.96445 0.53317 0.21224 0.0
O6 O 0.04503 0.54019 0.27703 0.0
O7 O 0.98869 0.54011 0.29871 0.0
O8 O 0.06443 0.64103 0.13705 0.0
O9 O 0.09428 0.61196 0.18385 0.0
O10 O 0.07363 0.52316 0.13797 0.0
O11 O 0.02686 0.49023 0.06454 0.0
O12 O 0.93588 0.45357 0.11537 0.0
O13 O 0.96846 0.60298 0.11934 0.0
O14 O 0.92382 0.47572 0.2058 0.0
O15 O 0.93553 0.5636 0.20005 0.0
C16 C -0.00224 0.55569 0.97813 0.0
C17 C 0.01942 0.53881 0.31653 0.0
C18 C 0.06026 0.49976 0.08992 0.0
C19 C 0.09429 0.64312 0.16573 0.0
C20 C 0.91558 0.44769 0.166 0.0
C21 C 0.93992 0.58948 0.15911 0.0
O22 O 0.97435 0.52192 0.00215 0.0
O23 O 0.50909 0.03231 0.33475 0.0
Zn24 Zn 0.49545 0.03956 0.42481 0.0
O25 O 0.52509 0.02622 0.48216 0.0
Zn26 Zn 0.55979 0.07034 0.53384 0.0
Zn27 Zn 0.55718 0.00982 0.43737 0.0
Zn28 Zn 0.48972 0.98556 0.53796 0.0
O29 O 0.55879 0.05146 0.62255 0.0
O30 O 0.49358 0.00887 0.62434 0.0
O31 O 0.50065 0.09259 0.44903 0.0
O32 O 0.53868 0.10758 0.53578 0.0
O33 O 0.61452 0.09936 0.49636 0.0
O34 O 0.61187 0.05627 0.4236 0.0
O35 O 0.55979 0.9663 0.48382 0.0
O36 O 0.43757 -0.00041 0.43077 0.0
O37 O 0.50838 0.94648 0.54938 0.0
O38 O 0.43345 0.95779 0.50551 0.0
C39 C 0.51901 0.00726 0.31467 0.0
C40 C 0.5267 0.02985 0.65288 0.0
C41 C 0.63042 0.09015 0.45105 0.0
C42 C 0.5169 0.11426 0.49841 0.0
C43 C 0.53719 0.94323 0.52703 0.0
C44 C 0.41728 0.96827 0.46299 0.0
O45 O 0.53362 0.992 0.35161 0.0
O46 O 0.46639 0.49684 0.67563 0.0
Zn47 Zn 0.44865 0.47292 0.76136 0.0
O48 O 0.49116 0.50388 0.81959 0.0
Zn49 Zn 0.47683 0.53718 0.86474 0.0
Zn50 Zn 0.53936 0.53657 0.77361 0.0
Zn51 Zn 0.49924 0.47085 0.8777 0.0
O52 O 0.4946 0.54117 0.95279 0.0
O53 O 0.48816 0.48151 0.9673 0.0
O54 O 0.39684 0.46981 0.78658 0.0
O55 O 0.41805 0.51281 0.86774 0.0
O56 O 0.50178 0.59148 0.82786 0.0
O57 O 0.55059 0.59286 0.77063 0.0
O58 O 0.58654 0.53669 0.81267 0.0
O59 O 0.4396 0.41762 0.75958 0.0
O60 O 0.55712 0.48787 0.88211 0.0
O61 O 0.46937 0.41358 0.84758 0.0
C62 C 0.50061 0.51023 0.65049 0.0
C63 C 0.49373 0.51477 -0.01104 0.0
C64 C 0.53221 0.60988 0.7925 0.0
C65 C 0.3901 0.48699 0.83294 0.0
C66 C 0.58842 0.5149 0.85576 0.0
C67 C 0.44837 0.39776 0.79754 0.0
O68 O 0.53156 0.51882 0.6831 0.0
H69 H 0.06657 0.48872 0.96328 0.0
H70 H 0.11666 0.47753 0.91137 0.0
H71 H 0.16103 0.46919 0.09583 0.0
H72 H 0.11252 0.48279 0.14766 0.0
H73 H 0.21888 0.51864 0.02701 0.0
H74 H 0.10717 0.38606 -0.01406 0.0
H75 H 0.03993 0.33912 0.94489 0.0
H76 H 0.07547 0.38645 0.75692 0.0
H77 H 0.14286 0.43388 0.79696 0.0
H78 H 0.35759 0.46601 0.94912 0.0
H79 H 0.29331 0.45634 -0.0161 0.0
H80 H 0.2672 0.47496 0.7916 0.0
H81 H 0.33116 0.4825 0.75589 0.0
H82 H 0.19933 0.42164 0.85499 0.0
H83 H 0.30974 0.5527 0.89347 0.0
H84 H 0.37704 0.60131 0.93213 0.0
H85 H 0.34308 0.5594 0.12323 0.0
H86 H 0.27574 0.51013 0.08557 0.0
C87 C 0.08653 0.48365 -0.00739 0.0
C88 C 0.08588 0.48662 0.05937 0.0
C89 C 0.11501 0.47708 0.96292 0.0
C90 C 0.14239 0.47211 -0.00033 0.0
C91 C 0.14029 0.47306 0.06651 0.0
C92 C 0.11257 0.48071 0.09611 0.0
C93 C 0.17571 0.46986 0.96918 0.0
C94 C 0.2144 0.4969 -0.00978 0.0
C95 C 0.17013 0.44286 0.91889 0.0
C96 C 0.12997 0.41362 0.89452 0.0
C97 C 0.10061 0.3865 0.93589 0.0
C98 C 0.06249 0.3598 0.91279 0.0
C99 C 0.05346 0.3598 0.84834 0.0
C100 C 0.08255 0.38641 0.8068 0.0
C101 C 0.12073 0.41315 0.82963 0.0
C102 C 0.33769 0.46714 0.9141 0.0
C103 C 0.34918 0.47552 0.85021 0.0
C104 C 0.30108 0.46165 0.93391 0.0
C105 C 0.27608 0.46606 0.89062 0.0
C106 C 0.28627 0.47171 0.82573 0.0
C107 C 0.32268 0.47614 0.80546 0.0
C108 C 0.24198 0.46924 0.91505 0.0
C109 C 0.20348 0.44303 0.8922 0.0
C110 C 0.24757 0.49723 0.96353 0.0
C111 C 0.28777 0.52757 -0.01339 0.0
C112 C 0.31668 0.55376 0.9437 0.0
C113 C 0.35484 0.58141 0.96544 0.0
C114 C 0.36436 0.58338 0.03008 0.0
C115 C 0.33568 0.55781 0.07317 0.0
C116 C 0.29749 0.53006 0.05167 0.0
H117 H 0.39393 0.60476 0.04681 0.0
H118 H 0.02391 0.33917 0.83059 0.0
H119 H 0.66768 0.08562 0.34261 0.0
H120 H 0.71892 0.14167 0.28294 0.0
H121 H 0.72805 0.22186 0.43435 0.0
H122 H 0.67706 0.16633 0.49435 0.0
H123 H 0.70728 0.2382 0.31441 0.0
H124 H 0.80326 0.20686 0.40658 0.0
H125 H 0.83058 0.16281 0.42768 0.0
H126 H 0.84135 0.14886 0.22651 0.0
H127 H 0.81358 0.19244 0.2042 0.0
H128 H 0.86622 0.42633 0.26822 0.0
H129 H 0.81794 0.35988 0.30172 0.0
H130 H 0.84307 0.31031 0.13482 0.0
H131 H 0.89279 0.37747 0.10118 0.0
H132 H 0.84177 0.27104 0.24039 0.0
H133 H 0.75452 0.30779 0.14631 0.0
H134 H 0.72626 0.35048 0.12101 0.0
H135 H 0.69588 0.35129 0.31776 0.0
H136 H 0.7245 0.3091 0.3445 0.0
C137 C 0.68139 0.11502 0.36411 0.0
C138 C 0.6678 0.12159 0.42284 0.0
C139 C 0.71063 0.14699 0.32984 0.0
C140 C 0.72675 0.1858 0.35403 0.0
C141 C 0.71559 0.19204 0.41478 0.0
C142 C 0.68652 0.16022 0.44908 0.0
C143 C 0.75168 0.22039 0.31373 0.0
C144 C 0.73684 0.24562 0.29858 0.0
C145 C 0.78915 0.22861 0.29019 0.0
C146 C 0.8059 0.20251 0.30372 0.0
C147 C 0.81109 0.1941 0.36683 0.0
C148 C 0.82674 0.16929 0.37902 0.0
C149 C 0.83757 0.15294 0.32847 0.0
C150 C 0.83288 0.16148 0.26562 0.0
C151 C 0.81722 0.18626 0.25318 0.0
C152 C 0.86136 0.40148 0.23801 0.0
C153 C 0.88344 0.40727 0.18194 0.0
C154 C 0.8335 0.36341 0.25716 0.0
C155 C 0.82652 0.33018 0.22034 0.0
C156 C 0.84795 0.33565 0.16373 0.0
C157 C 0.87615 0.37399 0.14448 0.0
C158 C 0.79815 0.28997 0.24376 0.0
C159 C 0.812 0.26341 0.25527 0.0
C160 C 0.75937 0.2801 0.26325 0.0
C161 C 0.74185 0.30536 0.24744 0.0
C162 C 0.74205 0.31726 0.18428 0.0
C163 C 0.72593 0.34136 0.16967 0.0
C164 C 0.70933 0.35362 0.21775 0.0
C165 C 0.70874 0.34175 0.28055 0.0
C166 C 0.72484 0.31767 0.29545 0.0
H167 H 0.69688 0.37229 0.20634 0.0
H168 H 0.84968 0.13375 0.338 0.0
H169 H 0.49757 0.89236 0.62373 0.0
H170 H 0.51217 0.84446 0.67198 0.0
H171 H 0.61052 0.87864 0.54296 0.0
H172 H 0.59588 0.92674 0.49345 0.0
H173 H 0.56316 0.79848 0.5506 0.0
H174 H 0.62905 0.90688 0.6973 0.0
H175 H 0.63697 0.96096 0.76946 0.0
H176 H 0.54247 0.87653 0.88726 0.0
H177 H 0.53347 0.82198 0.81533 0.0
H178 H 0.59461 0.65815 0.71542 0.0
H179 H 0.6107 0.72318 0.67466 0.0
H180 H 0.51421 0.71891 0.78377 0.0
H181 H 0.49837 0.65446 0.82563 0.0
H182 H 0.57763 0.79255 0.78459 0.0
H183 H 0.50159 0.68876 0.62815 0.0
H184 H 0.48838 0.63328 0.55498 0.0
H185 H 0.59731 0.70797 0.45588 0.0
H186 H 0.6114 0.76381 0.52902 0.0
C187 C 0.52233 0.88981 0.60539 0.0
C188 C 0.54555 0.91337 0.55463 0.0
C189 C 0.53086 0.86265 0.63351 0.0
C190 C 0.5629 0.85865 0.61182 0.0
C191 C 0.5859 0.88167 0.56068 0.0
C192 C 0.57741 0.90899 0.53242 0.0
C193 C 0.57052 0.82862 0.6407 0.0
C194 C 0.56743 0.7977 0.60157 0.0
C195 C 0.57533 0.82742 0.70735 0.0
C196 C 0.58054 0.86028 0.75069 0.0
C197 C 0.60974 0.89984 0.73831 0.0
C198 C 0.61445 0.93059 0.77924 0.0
C199 C 0.59029 0.92216 0.83296 0.0
C200 C 0.56123 0.883 0.84571 0.0
C201 C 0.55636 0.85214 0.80491 0.0
C202 C 0.57716 0.6713 0.73146 0.0
C203 C 0.54488 0.65092 0.77318 0.0
C204 C 0.58639 0.70841 0.70804 0.0
C205 C 0.56329 0.7255 0.72558 0.0
C206 C 0.5324 0.70618 0.76967 0.0
C207 C 0.52326 0.66922 0.79329 0.0
C208 C 0.56892 0.76191 0.6947 0.0
C209 C 0.57452 0.79398 0.73345 0.0
C210 C 0.5659 0.764 0.62779 0.0
C211 C 0.55778 0.7303 0.58447 0.0
C212 C 0.52291 0.69323 0.59114 0.0
C213 C 0.51522 0.66176 0.5496 0.0
C214 C 0.542 0.66713 0.50084 0.0
C215 C 0.57662 0.70389 0.49369 0.0
C216 C 0.58447 0.73546 0.53516 0.0
H217 H 0.5358 0.64289 0.46832 0.0
H218 H 0.59416 0.94594 0.86484 0.0
H219 H 0.6031 0.4788 0.95444 0.0
H220 H 0.66613 0.5017 0.00982 0.0
H221 H 0.72545 0.59605 0.87426 0.0
H222 H 0.66233 0.57339 0.81808 0.0
H223 H 0.76874 0.55842 0.90746 0.0
H224 H 0.70093 0.61825 0.00954 0.0
H225 H 0.64279 0.6176 0.05851 0.0
H226 H 0.64231 0.54261 0.20761 0.0
H227 H 0.70002 0.54209 0.15876 0.0
H228 H 0.94127 0.64772 0.08554 0.0
H229 H 0.88302 0.64763 0.04171 0.0
H230 H 0.80673 0.55024 0.16354 0.0
H231 H 0.86474 0.55048 0.20849 0.0
H232 H 0.77436 0.59804 0.13498 0.0
H233 H 0.83342 0.52948 0.0261 0.0
H234 H 0.88942 0.52589 0.97694 0.0
H235 H 0.90417 0.61401 0.84102 0.0
H236 H 0.8487 0.61864 0.89019 0.0
C237 C 0.62958 0.50405 0.9356 0.0
C238 C 0.62757 0.52453 0.88215 0.0
C239 C 0.66552 0.51721 0.96761 0.0
C240 C 0.70008 0.55103 0.94682 0.0
C241 C 0.69887 0.57009 0.89123 0.0
C242 C 0.66282 0.55704 0.8592 0.0
C243 C 0.73708 0.56706 -0.01533 0.0
C244 C 0.7703 0.56789 0.95677 0.0
C245 C 0.7386 0.57867 0.04935 0.0
C246 C 0.70464 0.57986 0.0801 0.0
C247 C 0.68831 0.6014 0.05255 0.0
C248 C 0.65542 0.60124 0.08027 0.0
C249 C 0.6388 0.57996 0.13597 0.0
C250 C 0.65519 0.559 0.16435 0.0
C251 C 0.68802 0.55895 0.13667 0.0
C252 C 0.91224 0.62724 0.10476 0.0
C253 C 0.90748 0.59831 0.14909 0.0
C254 C 0.879 0.62727 0.07966 0.0
C255 C 0.84066 0.59813 0.0981 0.0
C256 C 0.83613 0.57272 0.14833 0.0
C257 C 0.86939 0.57286 0.17386 0.0
C258 C 0.80592 0.58921 0.05779 0.0
C259 C 0.77305 0.5894 0.08529 0.0
C260 C 0.80449 0.57816 -0.00722 0.0
C261 C 0.83724 0.57475 0.96226 0.0
C262 C 0.84877 0.54826 -0.01403 0.0
C263 C 0.88041 0.54604 0.95813 0.0
C264 C 0.9004 0.56979 0.90601 0.0
C265 C 0.8887 0.5957 0.88149 0.0
C266 C 0.85718 0.59815 0.90933 0.0
H267 H 0.9249 0.56807 0.88454 0.0
H268 H 0.61324 0.57977 0.1571 0.0
H269 H 0.37241 0.8892 0.48793 0.0
H270 H 0.31149 0.84151 0.43242 0.0
H271 H 0.3074 0.93725 0.33768 0.0
H272 H 0.36887 0.98542 0.39218 0.0
H273 H 0.22647 0.85595 0.38551 0.0
H274 H 0.34141 0.91405 0.24393 0.0
H275 H 0.41312 0.94092 0.22595 0.0
H276 H 0.40142 0.82892 0.27739 0.0
H277 H 0.32954 0.80156 0.29655 0.0
H278 H 0.10215 0.71652 0.1478 0.0
H279 H 0.15515 0.78033 0.18923 0.0
H280 H 0.21592 0.72214 0.26477 0.0
H281 H 0.16368 0.65858 0.22307 0.0
H282 H 0.26781 0.79451 0.21478 0.0
H283 H 0.15101 0.73624 0.35233 0.0
H284 H 0.07991 0.71118 0.37385 0.0
H285 H 0.09494 0.82582 0.33239 0.0
H286 H 0.16587 0.85122 0.3083 0.0
C287 C 0.35791 0.90029 0.45699 0.0
C288 C 0.37575 0.94097 0.44352 0.0
C289 C 0.32312 0.87301 0.42541 0.0
C290 C 0.30546 0.8861 0.38086 0.0
C291 C 0.32079 0.92683 0.37211 0.0
C292 C 0.35595 0.95418 0.40301 0.0
C293 C 0.27569 0.85708 0.33624 0.0
C294 C 0.23526 0.84298 0.34719 0.0
C295 C 0.28761 0.84042 0.28672 0.0
C296 C 0.33028 0.85594 0.27228 0.0
C297 C 0.35421 0.89526 0.2518 0.0
C298 C 0.39489 0.91061 0.24154 0.0
C299 C 0.41195 0.88679 0.25111 0.0
C300 C 0.38821 0.84742 0.27034 0.0
C301 C 0.34748 0.83194 0.28078 0.0
C302 C 0.12714 0.71742 0.17229 0.0
C303 C 0.12844 0.68239 0.18291 0.0
C304 C 0.15732 0.75388 0.19596 0.0
C305 C 0.18905 0.75573 0.23075 0.0
C306 C 0.1916 0.72126 0.2381 0.0
C307 C 0.16156 0.6849 0.21449 0.0
C308 C 0.21806 0.79256 0.26432 0.0
C309 C 0.25867 0.80804 0.2517 0.0
C310 C 0.2061 0.81067 0.31184 0.0
C311 C 0.16364 0.79549 0.32766 0.0
C312 C 0.13909 0.75602 0.3472 0.0
C313 C 0.09881 0.74175 0.35987 0.0
C314 C 0.08292 0.76689 0.35456 0.0
C315 C 0.10727 0.80636 0.33641 0.0
C316 C 0.14748 0.82067 0.32303 0.0
H317 H 0.05176 0.7558 0.36457 0.0
H318 H 0.44346 0.89873 0.24301 0.0
H319 H 0.39337 0.34926 0.70919 0.0
H320 H 0.38885 0.29014 0.65882 0.0
H321 H 0.4792 0.29765 0.78732 0.0
H322 H 0.48289 0.35574 0.83904 0.0
H323 H 0.44602 0.29219 0.59351 0.0
H324 H 0.47913 0.21326 0.80093 0.0
H325 H 0.45891 0.19448 0.91243 0.0
H326 H 0.3506 0.19609 0.87876 0.0
H327 H 0.36985 0.21431 0.76679 0.0
H328 H 0.55222 0.17046 0.59163 0.0
H329 H 0.52754 0.21137 0.63916 0.0
H330 H 0.43274 0.16716 0.50008 0.0
H331 H 0.45721 0.12562 0.45186 0.0
H332 H 0.45177 0.18 0.69284 0.0
H333 H 0.41198 0.24598 0.48265 0.0
H334 H 0.43102 0.26466 0.37058 0.0
H335 H 0.54925 0.28771 0.41085 0.0
H336 H 0.53103 0.26967 0.52324 0.0
C337 C 0.41138 0.33754 0.72795 0.0
C338 C 0.43881 0.35737 0.77764 0.0
C339 C 0.40881 0.30382 0.69901 0.0
C340 C 0.43371 0.28946 0.71909 0.0
C341 C 0.45912 0.30764 0.77161 0.0
C342 C 0.46134 0.34105 0.80109 0.0
C343 C 0.43747 0.25943 0.68019 0.0
C344 C 0.44617 0.267 0.61501 0.0
C345 C 0.43812 0.22681 0.70817 0.0
C346 C 0.42608 0.21538 0.77541 0.0
C347 C 0.45088 0.20936 0.81714 0.0
C348 C 0.43961 0.19887 0.88049 0.0
C349 C 0.40354 0.19417 0.90269 0.0
C350 C 0.3786 0.19986 0.86154 0.0
C351 C 0.38971 0.21033 0.79814 0.0
C352 C 0.52646 0.16978 0.57033 0.0
C353 C 0.50644 0.14448 0.51828 0.0
C354 C 0.5123 0.19304 0.59785 0.0
C355 C 0.47808 0.19178 0.57363 0.0
C356 C 0.4592 0.16838 0.51943 0.0
C357 C 0.47335 0.14488 0.49179 0.0
C358 C 0.46168 0.21391 0.60746 0.0
C359 C 0.45054 0.20466 0.67142 0.0
C360 C 0.45846 0.24474 0.57833 0.0
C361 C 0.46994 0.25593 0.51106 0.0
C362 C 0.44204 0.25508 0.46754 0.0
C363 C 0.45269 0.26557 0.404 0.0
C364 C 0.49127 0.27719 0.38355 0.0
C365 C 0.51932 0.27851 0.42667 0.0
C366 C 0.50882 0.26808 0.49027 0.0
H367 H 0.49946 0.28529 0.33434 0.0
H368 H 0.39489 0.18607 0.95177 0.0
H369 H 0.94811 0.50773 0.8843 0.0
H370 H 0.96577 0.50416 0.7736 0.0
H371 H 0.08466 0.6018 0.80873 0.0
H372 H 0.06657 0.60665 0.91855 0.0
H373 H 0.06271 0.61127 0.70098 0.0
H374 H 0.06663 0.50423 0.79321 0.0
H375 H 0.04656 0.44451 0.85772 0.0
H376 H 0.94337 0.37808 0.73936 0.0
H377 H 0.96257 0.43738 0.67427 0.0
H378 H 0.09014 0.56494 0.37817 0.0
H379 H 0.10058 0.5658 0.49365 0.0
H380 H 0.97367 0.50723 0.52297 0.0
H381 H 0.96299 0.50693 0.40822 0.0
H382 H 0.02063 0.47963 0.60098 0.0
H383 H 0.01818 0.60109 0.52933 0.0
H384 H 0.04645 0.66263 0.4667 0.0
H385 H 0.16118 0.70263 0.55151 0.0
H386 H 0.13356 0.64111 0.61423 0.0
C387 C 0.9778 0.52875 0.86799 0.0
C388 C 0.00596 0.55744 0.90968 0.0
C389 C 0.98808 0.52633 0.80518 0.0
C390 C 0.02695 0.55187 0.78366 0.0
C391 C 0.05464 0.58155 0.82461 0.0
C392 C 0.04414 0.58449 0.8871 0.0
C393 C 0.03786 0.54849 0.71744 0.0
C394 C 0.05448 0.58258 0.67967 0.0
C395 C 0.02802 0.51126 0.68971 0.0
C396 C 0.01598 0.4754 0.72896 0.0
C397 C 0.0395 0.47698 0.78115 0.0
C398 C 0.02831 0.44318 0.81779 0.0
C399 C 0.99367 0.4076 0.80277 0.0
C400 C 0.9702 0.40568 0.75093 0.0
C401 C 0.98128 0.43935 0.71401 0.0
C402 C 0.0645 0.55175 0.40932 0.0
C403 C 0.02578 0.53626 0.38474 0.0
C404 C 0.07053 0.55216 0.47491 0.0
C405 C 0.03784 0.53646 0.5161 0.0
C406 C -0.00087 0.51919 0.49141 0.0
C407 C 0.99312 0.51941 0.42615 0.0
C408 C 0.04341 0.54192 0.58527 0.0
C409 C 0.03001 0.5083 0.62337 0.0
C410 C 0.05761 0.57972 0.61377 0.0
C411 C 0.07396 0.61643 0.5758 0.0
C412 C 0.04949 0.62288 0.53415 0.0
C413 C 0.06539 0.65778 0.49874 0.0
C414 C 0.10563 0.68648 0.505 0.0
C415 C 0.13005 0.68035 0.54665 0.0
C416 C 0.1143 0.64551 0.58214 0.0
H417 H 0.11791 0.71356 0.47789 0.0
H418 H 0.98504 0.3815 0.83126 0.0
H419 H 0.47856 0.02282 0.22388 0.0
H420 H 0.47517 0.00796 0.10993 0.0
H421 H 0.54533 0.95142 0.13835 0.0
H422 H 0.54858 0.96565 0.25251 0.0
H423 H 0.57728 0.01553 0.05269 0.0
H424 H 0.45761 0.89165 0.07925 0.0
H425 H 0.39057 0.84582 0.12073 0.0
H426 H 0.34569 0.91549 0.03505 0.0
H427 H 0.41234 0.96138 -0.0079 0.0
H428 H 0.57622 0.0109 0.71293 0.0
H429 H 0.5724 0.99129 0.8242 0.0
H430 H 0.47675 0.01607 0.85594 0.0
H431 H 0.47883 0.03294 0.74348 0.0
H432 H 0.45902 0.95095 0.91061 0.0
H433 H 0.57999 0.08134 0.90325 0.0
H434 H 0.647 0.12938 0.86403 0.0
H435 H 0.68994 0.05141 0.91948 0.0
H436 H 0.62308 0.0028 0.9586 0.0
C437 C 0.49286 0.00682 0.20604 0.0
C438 C 0.51432 0.99594 0.24686 0.0
C439 C 0.49046 -0.0021 0.1412 0.0
C440 C 0.50976 0.97835 0.1164 0.0
C441 C 0.53001 0.96621 0.15715 0.0
C442 C 0.532 0.97463 0.22213 0.0
C443 C 0.51379 0.97651 0.04716 0.0
C444 C 0.55164 0.00055 0.02123 0.0
C445 C 0.48017 0.95742 0.00703 0.0
C446 C 0.43998 0.92998 0.0326 0.0
C447 C 0.43345 0.89723 0.06935 0.0
C448 C 0.39549 0.87115 0.09286 0.0
C449 C 0.36393 0.87782 0.08074 0.0
C450 C 0.37017 0.91035 0.04441 0.0
C451 C 0.40797 0.93624 0.02006 0.0
C452 C 0.55487 0.01265 0.74426 0.0
C453 C 0.52823 0.02395 0.72088 0.0
C454 C 0.55256 0.0013 0.80753 0.0
C455 C 0.52455 0.00257 0.84853 0.0
C456 C 0.49843 0.01463 0.82503 0.0
C457 C 0.49989 0.02473 0.76131 0.0
C458 C 0.52235 0.99179 0.91618 0.0
C459 C 0.48488 0.96517 0.94171 0.0
C460 C 0.55634 0.00898 0.95623 0.0
C461 C 0.59652 0.03831 0.93313 0.0
C462 C 0.6037 0.0744 0.90675 0.0
C463 C 0.64164 0.10172 0.88461 0.0
C464 C 0.67268 0.0934 0.88908 0.0
C465 C 0.66587 0.05779 0.91594 0.0
C466 C 0.62798 0.03037 0.93816 0.0
H467 H 0.70202 0.11458 0.87188 0.0
H468 H 0.33465 0.85779 0.09954 0.0
H469 H 0.54323 0.49583 0.56293 0.0
H470 H 0.55155 0.51423 0.4507 0.0
H471 H 0.48084 0.57085 0.47885 0.0
H472 H 0.47033 0.54992 0.5899 0.0
H473 H 0.45634 0.53034 0.38206 0.0
H474 H 0.58627 0.62419 0.44678 0.0
H475 H 0.65161 0.65226 0.49957 0.0
H476 H 0.67983 0.57788 0.38376 0.0
H477 H 0.61435 0.54883 0.33096 0.0
H478 H 0.48823 0.57277 0.05317 0.0
H479 H 0.50076 0.58955 0.1662 0.0
H480 H 0.5291 0.49638 0.19098 0.0
H481 H 0.51672 0.47922 0.07739 0.0
H482 H 0.58058 0.57405 0.25921 0.0
H483 H 0.43963 0.4721 0.21718 0.0
H484 H 0.3761 0.45066 0.1611 0.0
H485 H 0.37331 0.55283 0.23479 0.0
H486 H 0.43715 0.57511 0.29058 0.0
C487 C 0.52956 0.51217 0.54468 0.0
C488 C 0.50565 0.52097 0.58371 0.0
C489 C 0.53487 0.52333 0.48111 0.0
C490 C 0.51764 0.54484 0.45676 0.0
C491 C 0.49457 0.55449 0.4967 0.0
C492 C 0.48826 0.54225 0.55969 0.0
C493 C 0.51979 0.5529 0.38805 0.0
C494 C 0.48386 0.54106 0.3557 0.0
C495 C 0.55561 0.56692 0.35327 0.0
C496 C 0.59514 0.58415 0.38509 0.0
C497 C 0.60621 0.61356 0.43287 0.0
C498 C 0.64335 0.62969 0.46278 0.0
C499 C 0.66984 0.61682 0.44511 0.0
C500 C 0.65927 0.58783 0.39742 0.0
C501 C 0.62215 0.57155 0.36741 0.0
C502 C 0.4974 0.55598 0.08252 0.0
C503 C 0.50092 0.52425 0.05699 0.0
C504 C 0.50483 0.56588 0.14672 0.0
C505 C 0.51585 0.54419 0.18601 0.0
C506 C 0.5208 0.51344 0.16057 0.0
C507 C 0.51314 0.50332 0.09626 0.0
C508 C 0.51728 0.55007 0.25496 0.0
C509 C 0.55368 0.56459 0.28668 0.0
C510 C 0.48222 0.5396 0.28941 0.0
C511 C 0.44327 0.52544 0.25747 0.0
C512 C 0.42554 0.49006 0.22114 0.0
C513 C 0.38949 0.47777 0.18942 0.0
C514 C 0.37074 0.50044 0.19419 0.0
C515 C 0.3879 0.53534 0.23101 0.0
C516 C 0.42398 0.54779 0.26272 0.0
H517 H 0.34288 0.49093 0.16948 0.0
H518 H 0.69859 0.62936 0.46831 0.0
loop_
_geom_bond_atom_site_label_1
_geom_bond_atom_site_label_2
_geom_bond_distance
_geom_bond_site_symmetry_2
_ccdc_geom_bond_type
O0 Zn1 1.953 . S
O0 C16 1.225 1_554 S
Zn1 O0 1.953 . S
Zn1 O2 1.949 . S
Zn1 O8 1.919 . S
Zn1 O13 1.924 1_455 S
O2 Zn1 1.949 . S
O2 Zn3 1.923 . S
O2 Zn4 1.950 . S
O2 Zn5 1.945 1_455 S
Zn3 O2 1.923 . S
Zn3 O6 1.933 . S
Zn3 O9 1.941 . S
Zn3 O10 1.965 . S
Zn4 O2 1.950 . S
Zn4 O11 1.938 . S
Zn4 O12 1.906 1_455 S
Zn4 O22 1.953 . S
Zn5 O2 1.945 1_655 S
Zn5 O7 1.932 . S
Zn5 O14 1.977 . S
Zn5 O15 1.910 . S
O6 Zn3 1.933 . S
O6 C17 1.226 . S
O7 Zn5 1.932 . S
O7 C17 1.307 1_655 S
O8 Zn1 1.919 . S
O8 C19 1.253 . S
O9 Zn3 1.941 . S
O9 C19 1.283 . S
O10 Zn3 1.965 . S
O10 C18 1.303 . S
O11 Zn4 1.938 . S
O11 C18 1.247 . S
O12 Zn4 1.906 1_655 S
O12 C20 1.304 . S
O13 Zn1 1.924 1_655 S
O13 C21 1.311 . S
O14 Zn5 1.977 . S
O14 C20 1.272 . S
O15 Zn5 1.910 . S
O15 C21 1.231 . S
C16 O0 1.225 1_556 S
C16 O22 1.298 1_556 S
C17 O6 1.226 . S
C17 O7 1.307 1_455 S
C18 O10 1.303 . S
C18 O11 1.247 . S
C19 O8 1.253 . S
C19 O9 1.283 . S
C20 O12 1.304 . S
C20 O14 1.272 . S
C21 O13 1.311 . S
C21 O15 1.231 . S
O22 Zn4 1.953 . S
O22 C16 1.298 1_554 S
O23 Zn24 1.953 . S
O23 C39 1.225 . S
Zn24 O23 1.953 . S
Zn24 O25 1.949 . S
Zn24 O31 1.919 . S
Zn24 O36 1.924 1_545 S
O25 Zn24 1.949 . S
O25 Zn26 1.923 . S
O25 Zn27 1.950 . S
O25 Zn28 1.945 1_545 S
Zn26 O25 1.923 . S
Zn26 O29 1.933 . S
Zn26 O32 1.941 . S
Zn26 O33 1.965 . S
Zn27 O25 1.950 . S
Zn27 O34 1.938 . S
Zn27 O35 1.906 1_545 S
Zn27 O45 1.953 . S
Zn28 O25 1.945 1_565 S
Zn28 O30 1.932 . S
Zn28 O37 1.977 . S
Zn28 O38 1.910 . S
O29 Zn26 1.933 . S
O29 C40 1.226 . S
O30 Zn28 1.932 . S
O30 C40 1.307 1_565 S
O31 Zn24 1.919 . S
O31 C42 1.253 . S
O32 Zn26 1.941 . S
O32 C42 1.283 . S
O33 Zn26 1.965 . S
O33 C41 1.303 . S
O34 Zn27 1.938 . S
O34 C41 1.247 . S
O35 Zn27 1.906 1_565 S
O35 C43 1.304 . S
O36 Zn24 1.924 1_565 S
O36 C44 1.311 . S
O37 Zn28 1.977 . S
O37 C43 1.272 . S
O38 Zn28 1.910 . S
O38 C44 1.231 . S
C39 O23 1.225 . S
C39 O45 1.298 . S
C40 O29 1.226 . S
C40 O30 1.307 1_545 S
C41 O33 1.303 . S
C41 O34 1.247 . S
C42 O31 1.253 . S
C42 O32 1.283 . S
C43 O35 1.304 . S
C43 O37 1.272 . S
C44 O36 1.311 . S
C44 O38 1.231 . S
O45 Zn27 1.953 . S
O45 C39 1.298 . S
O46 Zn47 1.953 . S
O46 C62 1.225 . S
Zn47 O46 1.953 . S
Zn47 O48 1.949 . S
Zn47 O54 1.919 . S
Zn47 O59 1.924 . S
O48 Zn47 1.949 . S
O48 Zn49 1.923 . S
O48 Zn50 1.950 . S
O48 Zn51 1.945 . S
Zn49 O48 1.923 . S
Zn49 O52 1.933 . S
Zn49 O55 1.941 . S
Zn49 O56 1.965 . S
Zn50 O48 1.950 . S
Zn50 O57 1.938 . S
Zn50 O58 1.906 . S
Zn50 O68 1.953 . S
Zn51 O48 1.945 . S
Zn51 O53 1.932 . S
Zn51 O60 1.977 . S
Zn51 O61 1.910 . S
O52 Zn49 1.933 . S
O52 C63 1.226 1_556 S
O53 Zn51 1.932 . S
O53 C63 1.307 1_556 S
O54 Zn47 1.919 . S
O54 C65 1.253 . S
O55 Zn49 1.941 . S
O55 C65 1.283 . S
O56 Zn49 1.965 . S
O56 C64 1.303 . S
O57 Zn50 1.938 . S
O57 C64 1.247 . S
O58 Zn50 1.906 . S
O58 C66 1.304 . S
O59 Zn47 1.924 . S
O59 C67 1.311 . S
O60 Zn51 1.977 . S
O60 C66 1.272 . S
O61 Zn51 1.910 . S
O61 C67 1.231 . S
C62 O46 1.225 . S
C62 O68 1.298 . S
C63 O52 1.226 1_554 S
C63 O53 1.307 1_554 S
C64 O56 1.303 . S
C64 O57 1.247 . S
C65 O54 1.253 . S
C65 O55 1.283 . S
C66 O58 1.304 . S
C66 O60 1.272 . S
C67 O59 1.311 . S
C67 O61 1.231 . S
O68 Zn50 1.953 . S
O68 C62 1.298 . S
H69 C87 0.951 . S
H70 C89 0.951 1_556 S
H71 C91 0.950 . S
H72 C92 0.950 . S
H73 C94 0.950 . S
H74 C97 0.950 . S
H75 C98 0.950 . S
H76 C100 0.950 . S
H77 C101 0.950 . S
H78 C102 0.951 . S
H79 C104 0.951 1_554 S
H80 C106 0.950 . S
H81 C107 0.950 . S
H82 C109 0.950 . S
H83 C112 0.950 1_556 S
H84 C113 0.950 . S
H85 C115 0.950 . S
H86 C116 0.950 . S
C87 H69 0.951 . S
C87 C88 1.366 . S
C87 C89 1.388 . S
C88 C87 1.366 . S
C88 C92 1.385 . S
C89 H70 0.951 1_554 S
C89 C87 1.388 . S
C89 C90 1.366 . S
C90 C89 1.366 . S
C90 C91 1.414 . S
C90 C93 1.499 . S
C91 H71 0.950 . S
C91 C90 1.414 . S
C91 C92 1.374 . S
C92 H72 0.950 . S
C92 C88 1.385 . S
C92 C91 1.374 . S
C93 C90 1.499 . S
C93 C94 1.373 . S
C93 C95 1.389 1_554 S
C94 H73 0.950 . S
C94 C93 1.373 . S
C94 C110 1.377 . S
C95 C93 1.389 1_556 S
C95 C96 1.524 . S
C95 C109 1.377 . S
C96 C95 1.524 . S
C96 C97 1.397 . S
C96 C101 1.363 . S
C97 H74 0.950 . S
C97 C96 1.397 . S
C97 C98 1.334 . S
C98 H75 0.950 . S
C98 C97 1.334 . S
C98 C99 1.287 . S
C99 C98 1.287 . S
C99 C100 1.524 . S
C99 H118 0.913 . S
C100 H76 0.950 . S
C100 C99 1.524 . S
C100 C101 1.415 . S
C101 H77 0.950 . S
C101 C96 1.363 . S
C101 C100 1.415 . S
C102 H78 0.951 . S
C102 C103 1.366 . S
C102 C104 1.388 . S
C103 C102 1.366 . S
C103 C107 1.385 . S
C104 H79 0.951 1_556 S
C104 C102 1.388 . S
C104 C105 1.366 . S
C105 C104 1.366 . S
C105 C106 1.414 . S
C105 C108 1.499 . S
C106 H80 0.950 . S
C106 C105 1.414 . S
C106 C107 1.374 . S
C107 H81 0.950 . S
C107 C103 1.385 . S
C107 C106 1.374 . S
C108 C105 1.499 . S
C108 C109 1.373 . S
C108 C110 1.389 1_556 S
C109 H82 0.950 . S
C109 C95 1.377 . S
C109 C108 1.373 . S
C110 C94 1.377 . S
C110 C108 1.389 1_554 S
C110 C111 1.524 . S
C111 C110 1.524 . S
C111 C112 1.397 . S
C111 C116 1.363 . S
C112 H83 0.950 1_554 S
C112 C111 1.397 . S
C112 C113 1.334 . S
C113 H84 0.950 . S
C113 C112 1.334 . S
C113 C114 1.287 . S
C114 C113 1.287 . S
C114 C115 1.524 . S
C114 H117 0.999 . S
C115 H85 0.950 . S
C115 C114 1.524 . S
C115 C116 1.415 . S
C116 H86 0.950 . S
C116 C111 1.363 . S
C116 C115 1.415 . S
H117 C114 0.999 . S
H118 C99 0.913 . S
H119 C137 0.951 . S
H120 C139 0.951 . S
H121 C141 0.950 . S
H122 C142 0.950 . S
H123 C144 0.950 . S
H124 C147 0.950 . S
H125 C148 0.950 . S
H126 C150 0.950 . S
H127 C151 0.950 . S
H128 C152 0.951 . S
H129 C154 0.951 . S
H130 C156 0.950 . S
H131 C157 0.950 . S
H132 C159 0.950 . S
H133 C162 0.950 . S
H134 C163 0.950 . S
H135 C165 0.950 . S
H136 C166 0.950 . S
C137 H119 0.951 . S
C137 C138 1.366 . S
C137 C139 1.388 . S
C138 C137 1.366 . S
C138 C142 1.385 . S
C139 H120 0.951 . S
C139 C137 1.388 . S
C139 C140 1.366 . S
C140 C139 1.366 . S
C140 C141 1.414 . S
C140 C143 1.499 . S
C141 H121 0.950 . S
C141 C140 1.414 . S
C141 C142 1.374 . S
C142 H122 0.950 . S
C142 C138 1.385 . S
C142 C141 1.374 . S
C143 C140 1.499 . S
C143 C144 1.373 . S
C143 C145 1.389 . S
C144 H123 0.950 . S
C144 C143 1.373 . S
C144 C160 1.377 . S
C145 C143 1.389 . S
C145 C146 1.524 . S
C145 C159 1.377 . S
C146 C145 1.524 . S
C146 C147 1.397 . S
C146 C151 1.363 . S
C147 H124 0.950 . S
C147 C146 1.397 . S
C147 C148 1.334 . S
C148 H125 0.950 . S
C148 C147 1.334 . S
C148 C149 1.287 . S
C149 C148 1.287 . S
C149 C150 1.524 . S
C149 H168 0.913 . S
C150 H126 0.950 . S
C150 C149 1.524 . S
C150 C151 1.415 . S
C151 H127 0.950 . S
C151 C146 1.363 . S
C151 C150 1.415 . S
C152 H128 0.951 . S
C152 C153 1.366 . S
C152 C154 1.388 . S
C153 C152 1.366 . S
C153 C157 1.385 . S
C154 H129 0.951 . S
C154 C152 1.388 . S
C154 C155 1.366 . S
C155 C154 1.366 . S
C155 C156 1.414 . S
C155 C158 1.499 . S
C156 H130 0.950 . S
C156 C155 1.414 . S
C156 C157 1.374 . S
C157 H131 0.950 . S
C157 C153 1.385 . S
C157 C156 1.374 . S
C158 C155 1.499 . S
C158 C159 1.373 . S
C158 C160 1.389 . S
C159 H132 0.950 . S
C159 C145 1.377 . S
C159 C158 1.373 . S
C160 C144 1.377 . S
C160 C158 1.389 . S
C160 C161 1.524 . S
C161 C160 1.524 . S
C161 C162 1.397 . S
C161 C166 1.363 . S
C162 H133 0.950 . S
C162 C161 1.397 . S
C162 C163 1.334 . S
C163 H134 0.950 . S
C163 C162 1.334 . S
C163 C164 1.287 . S
C164 C163 1.287 . S
C164 C165 1.524 . S
C164 H167 0.999 . S
C165 H135 0.950 . S
C165 C164 1.524 . S
C165 C166 1.415 . S
C166 H136 0.950 . S
C166 C161 1.363 . S
C166 C165 1.415 . S
H167 C164 0.999 . S
H168 C149 0.913 . S
H169 C187 0.951 . S
H170 C189 0.951 . S
H171 C191 0.950 . S
H172 C192 0.950 . S
H173 C194 0.950 . S
H174 C197 0.950 . S
H175 C198 0.950 . S
H176 C200 0.950 . S
H177 C201 0.950 . S
H178 C202 0.951 . S
H179 C204 0.951 . S
H180 C206 0.950 . S
H181 C207 0.950 . S
H182 C209 0.950 . S
H183 C212 0.950 . S
H184 C213 0.950 . S
H185 C215 0.950 . S
H186 C216 0.950 . S
C187 H169 0.951 . S
C187 C188 1.366 . S
C187 C189 1.388 . S
C188 C187 1.366 . S
C188 C192 1.385 . S
C189 H170 0.951 . S
C189 C187 1.388 . S
C189 C190 1.366 . S
C190 C189 1.366 . S
C190 C191 1.414 . S
C190 C193 1.499 . S
C191 H171 0.950 . S
C191 C190 1.414 . S
C191 C192 1.374 . S
C192 H172 0.950 . S
C192 C188 1.385 . S
C192 C191 1.374 . S
C193 C190 1.499 . S
C193 C194 1.373 . S
C193 C195 1.389 . S
C194 H173 0.950 . S
C194 C193 1.373 . S
C194 C210 1.377 . S
C195 C193 1.389 . S
C195 C196 1.524 . S
C195 C209 1.377 . S
C196 C195 1.524 . S
C196 C197 1.397 . S
C196 C201 1.363 . S
C197 H174 0.950 . S
C197 C196 1.397 . S
C197 C198 1.334 . S
C198 H175 0.950 . S
C198 C197 1.334 . S
C198 C199 1.287 . S
C199 C198 1.287 . S
C199 C200 1.524 . S
C199 H218 0.913 . S
C200 H176 0.950 . S
C200 C199 1.524 . S
C200 C201 1.415 . S
C201 H177 0.950 . S
C201 C196 1.363 . S
C201 C200 1.415 . S
C202 H178 0.951 . S
C202 C203 1.366 . S
C202 C204 1.388 . S
C203 C202 1.366 . S
C203 C207 1.385 . S
C204 H179 0.951 . S
C204 C202 1.388 . S
C204 C205 1.366 . S
C205 C204 1.366 . S
C205 C206 1.414 . S
C205 C208 1.499 . S
C206 H180 0.950 . S
C206 C205 1.414 . S
C206 C207 1.374 . S
C207 H181 0.950 . S
C207 C203 1.385 . S
C207 C206 1.374 . S
C208 C205 1.499 . S
C208 C209 1.373 . S
C208 C210 1.389 . S
C209 H182 0.950 . S
C209 C195 1.377 . S
C209 C208 1.373 . S
C210 C194 1.377 . S
C210 C208 1.389 . S
C210 C211 1.524 . S
C211 C210 1.524 . S
C211 C212 1.397 . S
C211 C216 1.363 . S
C212 H183 0.950 . S
C212 C211 1.397 . S
C212 C213 1.334 . S
C213 H184 0.950 . S
C213 C212 1.334 . S
C213 C214 1.287 . S
C214 C213 1.287 . S
C214 C215 1.524 . S
C214 H217 0.999 . S
C215 H185 0.950 . S
C215 C214 1.524 . S
C215 C216 1.415 . S
C216 H186 0.950 . S
C216 C211 1.363 . S
C216 C215 1.415 . S
H217 C214 0.999 . S
H218 C199 0.913 . S
H219 C237 0.951 . S
H220 C239 0.951 1_554 S
H221 C241 0.950 . S
H222 C242 0.950 . S
H223 C244 0.950 . S
H224 C247 0.950 . S
H225 C248 0.956 . S
H226 C250 0.950 . S
H227 C251 0.950 . S
H228 C252 0.951 . S
H229 C254 0.951 1_556 S
H230 C256 0.950 . S
H231 C257 0.950 . S
H232 C259 0.950 . S
H233 C262 0.950 . S
H234 C263 0.962 . S
H235 C265 0.950 . S
H236 C266 0.950 . S
C237 H219 0.951 . S
C237 C238 1.366 . S
C237 C239 1.388 . S
C238 C237 1.366 . S
C238 C242 1.385 . S
C239 H220 0.951 1_556 S
C239 C237 1.388 . S
C239 C240 1.366 . S
C240 C239 1.366 . S
C240 C241 1.414 . S
C240 C243 1.499 . S
C241 H221 0.950 . S
C241 C240 1.414 . S
C241 C242 1.374 . S
C242 H222 0.950 . S
C242 C238 1.385 . S
C242 C241 1.374 . S
C243 C240 1.499 . S
C243 C244 1.373 . S
C243 C245 1.389 1_556 S
C244 H223 0.950 . S
C244 C243 1.373 . S
C244 C260 1.377 . S
C245 C243 1.389 1_554 S
C245 C246 1.524 . S
C245 C259 1.377 . S
C246 C245 1.524 . S
C246 C247 1.397 1_554 S
C246 C251 1.363 . S
C247 H224 0.950 . S
C247 C246 1.397 1_556 S
C247 C248 1.336 . S
C248 H225 0.956 . S
C248 C247 1.336 . S
C248 C249 1.279 1_556 S
C249 C248 1.279 1_554 S
C249 C250 1.524 . S
C249 H268 0.913 . S
C250 H226 0.950 . S
C250 C249 1.524 . S
C250 C251 1.415 . S
C251 H227 0.950 . S
C251 C246 1.363 . S
C251 C250 1.415 . S
C252 H228 0.951 . S
C252 C253 1.366 . S
C252 C254 1.388 . S
C253 C252 1.366 . S
C253 C257 1.385 . S
C254 H229 0.951 1_554 S
C254 C252 1.388 . S
C254 C255 1.366 . S
C255 C254 1.366 . S
C255 C256 1.414 . S
C255 C258 1.499 . S
C256 H230 0.950 . S
C256 C255 1.414 . S
C256 C257 1.374 . S
C257 H231 0.950 . S
C257 C253 1.385 . S
C257 C256 1.374 . S
C258 C255 1.499 . S
C258 C259 1.373 . S
C258 C260 1.389 1_554 S
C259 H232 0.950 . S
C259 C245 1.377 . S
C259 C258 1.373 . S
C260 C244 1.377 . S
C260 C258 1.389 1_556 S
C260 C261 1.524 . S
C261 C260 1.524 . S
C261 C262 1.397 1_556 S
C261 C266 1.363 . S
C262 H233 0.950 . S
C262 C261 1.397 1_554 S
C262 C263 1.337 . S
C263 H234 0.962 . S
C263 C262 1.337 . S
C263 C264 1.272 1_554 S
C264 C263 1.272 1_556 S
C264 C265 1.524 . S
C264 H267 0.999 . S
C265 H235 0.950 . S
C265 C264 1.524 . S
C265 C266 1.415 . S
C266 H236 0.950 . S
C266 C261 1.363 . S
C266 C265 1.415 . S
H267 C264 0.999 . S
H268 C249 0.913 . S
H269 C287 0.951 . S
H270 C289 0.951 . S
H271 C291 0.950 . S
H272 C292 0.950 . S
H273 C294 0.950 . S
H274 C297 0.950 . S
H275 C298 0.950 . S
H276 C300 0.950 . S
H277 C301 0.950 . S
H278 C302 0.951 . S
H279 C304 0.951 . S
H280 C306 0.950 . S
H281 C307 0.950 . S
H282 C309 0.950 . S
H283 C312 0.950 . S
H284 C313 0.950 . S
H285 C315 0.950 . S
H286 C316 0.950 . S
C287 H269 0.951 . S
C287 C288 1.366 . S
C287 C289 1.388 . S
C288 C287 1.366 . S
C288 C292 1.385 . S
C289 H270 0.951 . S
C289 C287 1.388 . S
C289 C290 1.366 . S
C290 C289 1.366 . S
C290 C291 1.414 . S
C290 C293 1.499 . S
C291 H271 0.950 . S
C291 C290 1.414 . S
C291 C292 1.374 . S
C292 H272 0.950 . S
C292 C288 1.385 . S
C292 C291 1.374 . S
C293 C290 1.499 . S
C293 C294 1.373 . S
C293 C295 1.389 . S
C294 H273 0.950 . S
C294 C293 1.373 . S
C294 C310 1.377 . S
C295 C293 1.389 . S
C295 C296 1.524 . S
C295 C309 1.377 . S
C296 C295 1.524 . S
C296 C297 1.397 . S
C296 C301 1.363 . S
C297 H274 0.950 . S
C297 C296 1.397 . S
C297 C298 1.334 . S
C298 H275 0.950 . S
C298 C297 1.334 . S
C298 C299 1.287 . S
C299 C298 1.287 . S
C299 C300 1.524 . S
C299 H318 0.913 . S
C300 H276 0.950 . S
C300 C299 1.524 . S
C300 C301 1.415 . S
C301 H277 0.950 . S
C301 C296 1.363 . S
C301 C300 1.415 . S
C302 H278 0.951 . S
C302 C303 1.366 . S
C302 C304 1.388 . S
C303 C302 1.366 . S
C303 C307 1.385 . S
C304 H279 0.951 . S
C304 C302 1.388 . S
C304 C305 1.366 . S
C305 C304 1.366 . S
C305 C306 1.414 . S
C305 C308 1.499 . S
C306 H280 0.950 . S
C306 C305 1.414 . S
C306 C307 1.374 . S
C307 H281 0.950 . S
C307 C303 1.385 . S
C307 C306 1.374 . S
C308 C305 1.499 . S
C308 C309 1.373 . S
C308 C310 1.389 . S
C309 H282 0.950 . S
C309 C295 1.377 . S
C309 C308 1.373 . S
C310 C294 1.377 . S
C310 C308 1.389 . S
C310 C311 1.524 . S
C311 C310 1.524 . S
C311 C312 1.397 . S
C311 C316 1.363 . S
C312 H283 0.950 . S
C312 C311 1.397 . S
C312 C313 1.334 . S
C313 H284 0.950 . S
C313 C312 1.334 . S
C313 C314 1.287 . S
C314 C313 1.287 . S
C314 C315 1.524 . S
C314 H317 0.999 . S
C315 H285 0.950 . S
C315 C314 1.524 . S
C315 C316 1.415 . S
C316 H286 0.950 . S
C316 C311 1.363 . S
C316 C315 1.415 . S
H317 C314 0.999 . S
H318 C299 0.913 . S
H319 C337 0.951 . S
H320 C339 0.951 . S
H321 C341 0.950 . S
H322 C342 0.950 . S
H323 C344 0.950 . S
H324 C347 0.950 . S
H325 C348 0.950 . S
H326 C350 0.950 . S
H327 C351 0.950 . S
H328 C352 0.951 . S
H329 C354 0.951 . S
H330 C356 0.950 . S
H331 C357 0.950 . S
H332 C359 0.950 . S
H333 C362 0.950 . S
H334 C363 0.950 . S
H335 C365 0.950 . S
H336 C366 0.950 . S
C337 H319 0.951 . S
C337 C338 1.366 . S
C337 C339 1.388 . S
C338 C337 1.366 . S
C338 C342 1.385 . S
C339 H320 0.951 . S
C339 C337 1.388 . S
C339 C340 1.366 . S
C340 C339 1.366 . S
C340 C341 1.414 . S
C340 C343 1.499 . S
C341 H321 0.950 . S
C341 C340 1.414 . S
C341 C342 1.374 . S
C342 H322 0.950 . S
C342 C338 1.385 . S
C342 C341 1.374 . S
C343 C340 1.499 . S
C343 C344 1.373 . S
C343 C345 1.389 . S
C344 H323 0.950 . S
C344 C343 1.373 . S
C344 C360 1.377 . S
C345 C343 1.389 . S
C345 C346 1.524 . S
C345 C359 1.377 . S
C346 C345 1.524 . S
C346 C347 1.397 . S
C346 C351 1.363 . S
C347 H324 0.950 . S
C347 C346 1.397 . S
C347 C348 1.334 . S
C348 H325 0.950 . S
C348 C347 1.334 . S
C348 C349 1.287 . S
C349 C348 1.287 . S
C349 C350 1.524 . S
C349 H368 0.913 . S
C350 H326 0.950 . S
C350 C349 1.524 . S
C350 C351 1.415 . S
C351 H327 0.950 . S
C351 C346 1.363 . S
C351 C350 1.415 . S
C352 H328 0.951 . S
C352 C353 1.366 . S
C352 C354 1.388 . S
C353 C352 1.366 . S
C353 C357 1.385 . S
C354 H329 0.951 . S
C354 C352 1.388 . S
C354 C355 1.366 . S
C355 C354 1.366 . S
C355 C356 1.414 . S
C355 C358 1.499 . S
C356 H330 0.950 . S
C356 C355 1.414 . S
C356 C357 1.374 . S
C357 H331 0.950 . S
C357 C353 1.385 . S
C357 C356 1.374 . S
C358 C355 1.499 . S
C358 C359 1.373 . S
C358 C360 1.389 . S
C359 H332 0.950 . S
C359 C345 1.377 . S
C359 C358 1.373 . S
C360 C344 1.377 . S
C360 C358 1.389 . S
C360 C361 1.524 . S
C361 C360 1.524 . S
C361 C362 1.397 . S
C361 C366 1.363 . S
C362 H333 0.950 . S
C362 C361 1.397 . S
C362 C363 1.334 . S
C363 H334 0.950 . S
C363 C362 1.334 . S
C363 C364 1.287 . S
C364 C363 1.287 . S
C364 C365 1.524 . S
C364 H367 0.999 . S
C365 H335 0.950 . S
C365 C364 1.524 . S
C365 C366 1.415 . S
C366 H336 0.950 . S
C366 C361 1.363 . S
C366 C365 1.415 . S
H367 C364 0.999 . S
H368 C349 0.913 . S
H369 C387 0.951 . S
H370 C389 0.951 . S
H371 C391 0.950 . S
H372 C392 0.950 . S
H373 C394 0.950 . S
H374 C397 0.950 . S
H375 C398 0.950 . S
H376 C400 0.950 . S
H377 C401 0.950 . S
H378 C402 0.951 . S
H379 C404 0.951 . S
H380 C406 0.950 . S
H381 C407 0.950 . S
H382 C409 0.950 . S
H383 C412 0.950 . S
H384 C413 0.950 . S
H385 C415 0.950 . S
H386 C416 0.950 . S
C387 H369 0.951 . S
C387 C388 1.366 1_655 S
C387 C389 1.388 . S
C388 C387 1.366 1_455 S
C388 C392 1.385 . S
C389 H370 0.951 . S
C389 C387 1.388 . S
C389 C390 1.366 1_655 S
C390 C389 1.366 1_455 S
C390 C391 1.414 . S
C390 C393 1.499 . S
C391 H371 0.950 . S
C391 C390 1.414 . S
C391 C392 1.374 . S
C392 H372 0.950 . S
C392 C388 1.385 . S
C392 C391 1.374 . S
C393 C390 1.499 . S
C393 C394 1.373 . S
C393 C395 1.389 1_455 S
C394 H373 0.950 . S
C394 C393 1.373 . S
C394 C410 1.377 . S
C395 C393 1.389 1_655 S
C395 C396 1.524 . S
C395 C409 1.377 . S
C396 C395 1.524 . S
C396 C397 1.397 . S
C396 C401 1.363 . S
C397 H374 0.950 . S
C397 C396 1.397 . S
C397 C398 1.334 . S
C398 H375 0.950 . S
C398 C397 1.334 . S
C398 C399 1.287 . S
C399 C398 1.287 . S
C399 C400 1.524 . S
C399 H418 0.913 . S
C400 H376 0.950 . S
C400 C399 1.524 . S
C400 C401 1.415 . S
C401 H377 0.950 . S
C401 C396 1.363 . S
C401 C400 1.415 . S
C402 H378 0.951 . S
C402 C403 1.366 . S
C402 C404 1.388 . S
C403 C402 1.366 . S
C403 C407 1.385 1_455 S
C404 H379 0.951 . S
C404 C402 1.388 . S
C404 C405 1.366 . S
C405 C404 1.366 . S
C405 C406 1.414 1_455 S
C405 C408 1.499 . S
C406 H380 0.950 . S
C406 C405 1.414 1_655 S
C406 C407 1.374 . S
C407 H381 0.950 . S
C407 C403 1.385 1_655 S
C407 C406 1.374 . S
C408 C405 1.499 . S
C408 C409 1.373 1_455 S
C408 C410 1.389 . S
C409 H382 0.950 . S
C409 C395 1.377 . S
C409 C408 1.373 1_655 S
C410 C394 1.377 . S
C410 C408 1.389 . S
C410 C411 1.524 . S
C411 C410 1.524 . S
C411 C412 1.397 . S
C411 C416 1.363 . S
C412 H383 0.950 . S
C412 C411 1.397 . S
C412 C413 1.334 . S
C413 H384 0.950 . S
C413 C412 1.334 . S
C413 C414 1.287 . S
C414 C413 1.287 . S
C414 C415 1.524 . S
C414 H417 0.999 . S
C415 H385 0.950 . S
C415 C414 1.524 . S
C415 C416 1.415 . S
C416 H386 0.950 . S
C416 C411 1.363 . S
C416 C415 1.415 . S
H417 C414 0.999 . S
H418 C399 0.913 . S
H419 C437 0.951 . S
H420 C439 0.951 . S
H421 C441 0.950 1_565 S
H422 C442 0.926 1_565 S
H423 C444 0.950 . S
H424 C447 0.950 . S
H425 C448 0.950 . S
H426 C450 0.950 1_545 S
H427 C451 0.950 . S
H428 C452 0.951 1_565 S
H429 C454 0.956 . S
H430 C456 0.950 . S
H431 C457 0.950 . S
H432 C459 0.950 . S
H433 C462 0.950 . S
H434 C463 0.950 . S
H435 C465 0.950 . S
H436 C466 0.950 . S
C437 H419 0.951 . S
C437 C438 1.366 . S
C437 C439 1.388 . S
C438 C437 1.366 . S
C438 C442 1.385 . S
C439 H420 0.951 . S
C439 C437 1.388 . S
C439 C440 1.366 . S
C440 C439 1.366 . S
C440 C441 1.414 . S
C440 C443 1.499 . S
C441 H421 0.950 1_545 S
C441 C440 1.414 . S
C441 C442 1.374 . S
C442 H422 0.926 1_545 S
C442 C438 1.385 . S
C442 C441 1.374 . S
C443 C440 1.499 . S
C443 C444 1.373 . S
C443 C445 1.389 . S
C444 H423 0.950 . S
C444 C443 1.373 . S
C444 C460 1.377 1_554 S
C445 C443 1.389 . S
C445 C446 1.524 1_545 S
C445 C459 1.377 1_554 S
C446 C445 1.524 1_565 S
C446 C447 1.397 . S
C446 C451 1.363 1_565 S
C447 H424 0.950 . S
C447 C446 1.397 . S
C447 C448 1.334 . S
C448 H425 0.950 . S
C448 C447 1.334 . S
C448 C449 1.287 . S
C449 C448 1.287 . S
C449 C450 1.524 . S
C449 H468 0.913 . S
C450 H426 0.950 1_565 S
C450 C449 1.524 . S
C450 C451 1.415 1_565 S
C451 H427 0.950 . S
C451 C446 1.363 1_545 S
C451 C450 1.415 1_545 S
C452 H428 0.951 1_545 S
C452 C453 1.366 . S
C452 C454 1.388 . S
C453 C452 1.366 . S
C453 C457 1.385 . S
C454 H429 0.956 . S
C454 C452 1.388 . S
C454 C455 1.366 . S
C455 C454 1.366 . S
C455 C456 1.414 . S
C455 C458 1.499 . S
C456 H430 0.950 . S
C456 C455 1.414 . S
C456 C457 1.374 . S
C457 H431 0.950 . S
C457 C453 1.385 . S
C457 C456 1.374 . S
C458 C455 1.499 . S
C458 C459 1.373 . S
C458 C460 1.389 . S
C459 H432 0.950 . S
C459 C445 1.377 1_556 S
C459 C458 1.373 . S
C460 C444 1.377 1_556 S
C460 C458 1.389 . S
C460 C461 1.524 . S
C461 C460 1.524 . S
C461 C462 1.397 . S
C461 C466 1.363 . S
C462 H433 0.950 . S
C462 C461 1.397 . S
C462 C463 1.334 . S
C463 H434 0.950 . S
C463 C462 1.334 . S
C463 C464 1.287 . S
C464 C463 1.287 . S
C464 C465 1.524 . S
C464 H467 0.999 . S
C465 H435 0.950 . S
C465 C464 1.524 . S
C465 C466 1.415 . S
C466 H436 0.950 . S
C466 C461 1.363 . S
C466 C465 1.415 . S
H467 C464 0.999 . S
H468 C449 0.913 . S
H469 C487 0.951 . S
H470 C489 0.951 . S
H471 C491 0.950 . S
H472 C492 0.950 . S
H473 C494 0.950 . S
H474 C497 0.950 . S
H475 C498 0.950 . S
H476 C500 0.950 . S
H477 C501 0.950 . S
H478 C502 0.951 . S
H479 C504 0.951 . S
H480 C506 0.950 . S
H481 C507 0.950 . S
H482 C509 0.950 . S
H483 C512 0.950 . S
H484 C513 0.950 . S
H485 C515 0.950 . S
H486 C516 0.950 . S
C487 H469 0.951 . S
C487 C488 1.366 . S
C487 C489 1.388 . S
C488 C487 1.366 . S
C488 C492 1.385 . S
C489 H470 0.951 . S
C489 C487 1.388 . S
C489 C490 1.366 . S
C490 C489 1.366 . S
C490 C491 1.414 . S
C490 C493 1.499 . S
C491 H471 0.950 . S
C491 C490 1.414 . S
C491 C492 1.374 . S
C492 H472 0.950 . S
C492 C488 1.385 . S
C492 C491 1.374 . S
C493 C490 1.499 . S
C493 C494 1.373 . S
C493 C495 1.389 . S
C494 H473 0.950 . S
C494 C493 1.373 . S
C494 C510 1.377 . S
C495 C493 1.389 . S
C495 C496 1.524 . S
C495 C509 1.377 . S
C496 C495 1.524 . S
C496 C497 1.397 . S
C496 C501 1.363 . S
C497 H474 0.950 . S
C497 C496 1.397 . S
C497 C498 1.334 . S
C498 H475 0.950 . S
C498 C497 1.334 . S
C498 C499 1.287 . S
C499 C498 1.287 . S
C499 C500 1.524 . S
C499 H518 0.913 . S
C500 H476 0.950 . S
C500 C499 1.524 . S
C500 C501 1.415 . S
C501 H477 0.950 . S
C501 C496 1.363 . S
C501 C500 1.415 . S
C502 H478 0.951 . S
C502 C503 1.366 . S
C502 C504 1.388 . S
C503 C502 1.366 . S
C503 C507 1.385 . S
C504 H479 0.951 . S
C504 C502 1.388 . S
C504 C505 1.366 . S
C505 C504 1.366 . S
C505 C506 1.414 . S
C505 C508 1.499 . S
C506 H480 0.950 . S
C506 C505 1.414 . S
C506 C507 1.374 . S
C507 H481 0.950 . S
C507 C503 1.385 . S
C507 C506 1.374 . S
C508 C505 1.499 . S
C508 C509 1.373 . S
C508 C510 1.389 . S
C509 H482 0.950 . S
C509 C495 1.377 . S
C509 C508 1.373 . S
C510 C494 1.377 . S
C510 C508 1.389 . S
C510 C511 1.524 . S
C511 C510 1.524 . S
C511 C512 1.397 . S
C511 C516 1.363 . S
C512 H483 0.950 . S
C512 C511 1.397 . S
C512 C513 1.334 . S
C513 H484 0.950 . S
C513 C512 1.334 . S
C513 C514 1.287 . S
C514 C513 1.287 . S
C514 C515 1.524 . S
C514 H517 0.999 . S
C515 H485 0.950 . S
C515 C514 1.524 . S
C515 C516 1.415 . S
C516 H486 0.950 . S
C516 C511 1.363 . S
C516 C515 1.415 . S
H517 C514 0.999 . S
H518 C499 0.913 . S
C88 C18 1.320 . S
C103 C65 1.299 . S
C138 C41 1.296 . S
C153 C20 1.269 . S
C188 C43 1.231 . S
C203 C64 1.258 . S
C238 C66 1.190 . S
C253 C21 1.216 . S
C288 C44 1.240 . S
C303 C19 1.220 . S
C338 C67 1.278 . S
C353 C42 1.259 . S
C388 C16 0.824 . S
C403 C17 0.824 . S
C438 C39 0.824 . S
C453 C40 0.824 . S
C488 C62 0.824 . S
C503 C63 0.824 . S
