# Generated by pormake.
# Topology umv, (4)-cn, num edge types: 1
# Building blocks:
#     Node 0, Type 0, BuildingBlock: CEKHIL_clean_sbu_0, # of connection points: 4
#     Node 1, Type 0, BuildingBlock: CEKHIL_clean_sbu_0, # of connection points: 4
#     Node 2, Type 0, BuildingBlock: CEKHIL_clean_sbu_0, # of connection points: 4
#     Node 3, Type 0, BuildingBlock: CEKHIL_clean_sbu_0, # of connection points: 4
#     Node 4, Type 0, BuildingBlock: CEKHIL_clean_sbu_0, # of connection points: 4
#     Node 5, Type 0, BuildingBlock: CEKHIL_clean_sbu_0, # of connection points: 4
#     Node 6, Type 0, BuildingBlock: CEKHIL_clean_sbu_0, # of connection points: 4
#     Node 7, Type 0, BuildingBlock: CEKHIL_clean_sbu_0, # of connection points: 4
#     Node 8, Type 0, BuildingBlock: CEKHIL_clean_sbu_0, # of connection points: 4
#     Node 9, Type 0, BuildingBlock: CEKHIL_clean_sbu_0, # of connection points: 4
#     Node 10, Type 0, BuildingBlock: CEKHIL_clean_sbu_0, # of connection points: 4
#     Node 11, Type 0, BuildingBlock: CEKHIL_clean_sbu_0, # of connection points: 4
#     Node 12, Type 0, BuildingBlock: CEKHIL_clean_sbu_0, # of connection points: 4
#     Node 13, Type 0, BuildingBlock: CEKHIL_clean_sbu_0, # of connection points: 4
#     Node 14, Type 0, BuildingBlock: CEKHIL_clean_sbu_0, # of connection points: 4
#     Node 15, Type 0, BuildingBlock: CEKHIL_clean_sbu_0, # of connection points: 4
#     Node 16, Type 0, BuildingBlock: CEKHIL_clean_sbu_0, # of connection points: 4
#     Node 17, Type 0, BuildingBlock: CEKHIL_clean_sbu_0, # of connection points: 4
#     Node 18, Type 0, BuildingBlock: CEKHIL_clean_sbu_0, # of connection points: 4
#     Node 19, Type 0, BuildingBlock: CEKHIL_clean_sbu_0, # of connection points: 4
#     Node 20, Type 0, BuildingBlock: CEKHIL_clean_sbu_0, # of connection points: 4
#     Node 21, Type 0, BuildingBlock: CEKHIL_clean_sbu_0, # of connection points: 4
#     Node 22, Type 0, BuildingBlock: CEKHIL_clean_sbu_0, # of connection points: 4
#     Node 23, Type 0, BuildingBlock: CEKHIL_clean_sbu_0, # of connection points: 4
#     Node 24, Type 0, BuildingBlock: CEKHIL_clean_sbu_0, # of connection points: 4
#     Node 25, Type 0, BuildingBlock: CEKHIL_clean_sbu_0, # of connection points: 4
#     Node 26, Type 0, BuildingBlock: CEKHIL_clean_sbu_0, # of connection points: 4
#     Node 27, Type 0, BuildingBlock: CEKHIL_clean_sbu_0, # of connection points: 4
#     Node 28, Type 0, BuildingBlock: CEKHIL_clean_sbu_0, # of connection points: 4
#     Node 29, Type 0, BuildingBlock: CEKHIL_clean_sbu_0, # of connection points: 4
#     Node 30, Type 0, BuildingBlock: CEKHIL_clean_sbu_0, # of connection points: 4
#     Node 31, Type 0, BuildingBlock: CEKHIL_clean_sbu_0, # of connection points: 4
#     Edge 32, Type (0, 0), BuildingBlock: KIFKEQ_clean_linker_1, # of connection points: 2
#     Edge 33, Type (0, 0), BuildingBlock: KIFKEQ_clean_linker_1, # of connection points: 2
#     Edge 34, Type (0, 0), BuildingBlock: KIFKEQ_clean_linker_1, # of connection points: 2
#     Edge 35, Type (0, 0), BuildingBlock: KIFKEQ_clean_linker_1, # of connection points: 2
#     Edge 36, Type (0, 0), BuildingBlock: KIFKEQ_clean_linker_1, # of connection points: 2
#     Edge 37, Type (0, 0), BuildingBlock: KIFKEQ_clean_linker_1, # of connection points: 2
#     Edge 38, Type (0, 0), BuildingBlock: KIFKEQ_clean_linker_1, # of connection points: 2
#     Edge 39, Type (0, 0), BuildingBlock: KIFKEQ_clean_linker_1, # of connection points: 2
#     Edge 40, Type (0, 0), BuildingBlock: KIFKEQ_clean_linker_1, # of connection points: 2
#     Edge 41, Type (0, 0), BuildingBlock: KIFKEQ_clean_linker_1, # of connection points: 2
#     Edge 42, Type (0, 0), BuildingBlock: KIFKEQ_clean_linker_1, # of connection points: 2
#     Edge 43, Type (0, 0), BuildingBlock: KIFKEQ_clean_linker_1, # of connection points: 2
#     Edge 44, Type (0, 0), BuildingBlock: KIFKEQ_clean_linker_1, # of connection points: 2
#     Edge 45, Type (0, 0), BuildingBlock: KIFKEQ_clean_linker_1, # of connection points: 2
#     Edge 46, Type (0, 0), BuildingBlock: KIFKEQ_clean_linker_1, # of connection points: 2
#     Edge 47, Type (0, 0), BuildingBlock: KIFKEQ_clean_linker_1, # of connection points: 2
#     Edge 48, Type (0, 0), BuildingBlock: KIFKEQ_clean_linker_1, # of connection points: 2
#     Edge 49, Type (0, 0), BuildingBlock: KIFKEQ_clean_linker_1, # of connection points: 2
#     Edge 50, Type (0, 0), BuildingBlock: KIFKEQ_clean_linker_1, # of connection points: 2
#     Edge 51, Type (0, 0), BuildingBlock: KIFKEQ_clean_linker_1, # of connection points: 2
#     Edge 52, Type (0, 0), BuildingBlock: KIFKEQ_clean_linker_1, # of connection points: 2
#     Edge 53, Type (0, 0), BuildingBlock: KIFKEQ_clean_linker_1, # of connection points: 2
#     Edge 54, Type (0, 0), BuildingBlock: KIFKEQ_clean_linker_1, # of connection points: 2
#     Edge 55, Type (0, 0), BuildingBlock: KIFKEQ_clean_linker_1, # of connection points: 2
#     Edge 56, Type (0, 0), BuildingBlock: KIFKEQ_clean_linker_1, # of connection points: 2
#     Edge 57, Type (0, 0), BuildingBlock: KIFKEQ_clean_linker_1, # of connection points: 2
#     Edge 58, Type (0, 0), BuildingBlock: KIFKEQ_clean_linker_1, # of connection points: 2
#     Edge 59, Type (0, 0), BuildingBlock: KIFKEQ_clean_linker_1, # of connection points: 2
#     Edge 60, Type (0, 0), BuildingBlock: KIFKEQ_clean_linker_1, # of connection points: 2
#     Edge 61, Type (0, 0), BuildingBlock: KIFKEQ_clean_linker_1, # of connection points: 2
#     Edge 62, Type (0, 0), BuildingBlock: KIFKEQ_clean_linker_1, # of connection points: 2
#     Edge 63, Type (0, 0), BuildingBlock: KIFKEQ_clean_linker_1, # of connection points: 2
#     Edge 64, Type (0, 0), BuildingBlock: KIFKEQ_clean_linker_1, # of connection points: 2
#     Edge 65, Type (0, 0), BuildingBlock: KIFKEQ_clean_linker_1, # of connection points: 2
#     Edge 66, Type (0, 0), BuildingBlock: KIFKEQ_clean_linker_1, # of connection points: 2
#     Edge 67, Type (0, 0), BuildingBlock: KIFKEQ_clean_linker_1, # of connection points: 2
#     Edge 68, Type (0, 0), BuildingBlock: KIFKEQ_clean_linker_1, # of connection points: 2
#     Edge 69, Type (0, 0), BuildingBlock: KIFKEQ_clean_linker_1, # of connection points: 2
#     Edge 70, Type (0, 0), BuildingBlock: KIFKEQ_clean_linker_1, # of connection points: 2
#     Edge 71, Type (0, 0), BuildingBlock: KIFKEQ_clean_linker_1, # of connection points: 2
#     Edge 72, Type (0, 0), BuildingBlock: KIFKEQ_clean_linker_1, # of connection points: 2
#     Edge 73, Type (0, 0), BuildingBlock: KIFKEQ_clean_linker_1, # of connection points: 2
#     Edge 74, Type (0, 0), BuildingBlock: KIFKEQ_clean_linker_1, # of connection points: 2
#     Edge 75, Type (0, 0), BuildingBlock: KIFKEQ_clean_linker_1, # of connection points: 2
#     Edge 76, Type (0, 0), BuildingBlock: KIFKEQ_clean_linker_1, # of connection points: 2
#     Edge 77, Type (0, 0), BuildingBlock: KIFKEQ_clean_linker_1, # of connection points: 2
#     Edge 78, Type (0, 0), BuildingBlock: KIFKEQ_clean_linker_1, # of connection points: 2
#     Edge 79, Type (0, 0), BuildingBlock: KIFKEQ_clean_linker_1, # of connection points: 2
#     Edge 80, Type (0, 0), BuildingBlock: KIFKEQ_clean_linker_1, # of connection points: 2
#     Edge 81, Type (0, 0), BuildingBlock: KIFKEQ_clean_linker_1, # of connection points: 2
#     Edge 82, Type (0, 0), BuildingBlock: KIFKEQ_clean_linker_1, # of connection points: 2
#     Edge 83, Type (0, 0), BuildingBlock: KIFKEQ_clean_linker_1, # of connection points: 2
#     Edge 84, Type (0, 0), BuildingBlock: KIFKEQ_clean_linker_1, # of connection points: 2
#     Edge 85, Type (0, 0), BuildingBlock: KIFKEQ_clean_linker_1, # of connection points: 2
#     Edge 86, Type (0, 0), BuildingBlock: KIFKEQ_clean_linker_1, # of connection points: 2
#     Edge 87, Type (0, 0), BuildingBlock: KIFKEQ_clean_linker_1, # of connection points: 2
#     Edge 88, Type (0, 0), BuildingBlock: KIFKEQ_clean_linker_1, # of connection points: 2
#     Edge 89, Type (0, 0), BuildingBlock: KIFKEQ_clean_linker_1, # of connection points: 2
#     Edge 90, Type (0, 0), BuildingBlock: KIFKEQ_clean_linker_1, # of connection points: 2
#     Edge 91, Type (0, 0), BuildingBlock: KIFKEQ_clean_linker_1, # of connection points: 2
#     Edge 92, Type (0, 0), BuildingBlock: KIFKEQ_clean_linker_1, # of connection points: 2
#     Edge 93, Type (0, 0), BuildingBlock: KIFKEQ_clean_linker_1, # of connection points: 2
#     Edge 94, Type (0, 0), BuildingBlock: KIFKEQ_clean_linker_1, # of connection points: 2
#     Edge 95, Type (0, 0), BuildingBlock: KIFKEQ_clean_linker_1, # of connection points: 2
# Relax obj value: 0.129
# Max RMSD: 0.111
# Mean RMSD: 0.111
data_MOF--net-umv--node1-CEKHIL_clean_sbu_0--edge1-KIFKEQ_clean_linker_1
_symmetry_space_group_name_H-M    P1
_symmetry_Int_Tables_number       1
_symmetry_cell_setting            triclinic
loop_
_symmetry_equiv_pos_as_xyz
'x, y, z'
_cell_length_a     105.05541
_cell_length_b     26.145033
_cell_length_c     58.033925
_cell_angle_alpha  89.976059
_cell_angle_beta   89.978451
_cell_angle_gamma 89.986215
loop_
_atom_site_label
_atom_site_type_symbol
_atom_site_fract_x
_atom_site_fract_y
_atom_site_fract_z
_atom_type_partial_charge
Co0 Co 0.06811 0.1038 0.31989 0.0
O1 O 0.04992 0.11533 0.31871 0.0
O2 O 0.06345 0.13796 0.29141 0.0
C3 C 0.06721 0.02291 0.33319 0.0
O4 O 0.08745 0.09879 0.31472 0.0
Co5 Co 0.08207 0.07873 0.36629 0.0
O6 O 0.09693 0.06547 0.34616 0.0
C7 C 0.07116 0.18082 0.35753 0.0
C8 C 0.0518 0.13776 0.29902 0.0
C9 C 0.09732 0.08134 0.32541 0.0
O10 O 0.07016 0.17104 0.33589 0.0
O11 O 0.07449 0.1475 0.37254 0.0
O12 O 0.06576 0.03134 0.31121 0.0
O13 O 0.06816 0.06276 0.34591 0.0
Co14 Co 0.21802 0.12216 0.3183 0.0
O15 O 0.23621 0.11327 0.31481 0.0
O16 O 0.22194 0.09334 0.28832 0.0
C17 C 0.21887 0.20042 0.33486 0.0
O18 O 0.19855 0.12595 0.31526 0.0
Co19 Co 0.20538 0.1369 0.36674 0.0
O20 O 0.18981 0.15224 0.34867 0.0
C21 C 0.21735 0.03944 0.35334 0.0
C22 C 0.23381 0.09341 0.29476 0.0
C23 C 0.18891 0.14039 0.32743 0.0
O24 O 0.2169 0.05195 0.33193 0.0
O25 O 0.21456 0.0701 0.36977 0.0
O26 O 0.21952 0.19666 0.31247 0.0
O27 O 0.21859 0.15787 0.34575 0.0
Co28 Co 0.06711 0.12026 0.94284 0.0
O29 O 0.04891 0.1109 0.94565 0.0
O30 O 0.06301 0.08356 0.97106 0.0
C31 C 0.06633 0.2024 0.93144 0.0
O32 O 0.08662 0.12251 0.94597 0.0
Co33 Co 0.07965 0.14805 0.89562 0.0
O34 O 0.09519 0.15884 0.91438 0.0
C35 C 0.06903 0.04512 0.90381 0.0
C36 C 0.05116 0.08581 0.96452 0.0
C37 C 0.09621 0.14056 0.93466 0.0
O38 O 0.06808 0.05437 0.92549 0.0
O39 O 0.07248 0.07851 0.88892 0.0
O40 O 0.0658 0.19175 0.95335 0.0
O41 O 0.06648 0.16409 0.91766 0.0
Co42 Co 0.21723 0.09615 0.9432 0.0
O43 O 0.23525 0.10839 0.94743 0.0
O44 O 0.2202 0.13538 0.97109 0.0
C45 C 0.2194 0.01369 0.93287 0.0
O46 O 0.19775 0.09097 0.94516 0.0
Co47 Co 0.20573 0.06171 0.89615 0.0
O48 O 0.18986 0.0507 0.91406 0.0
C49 C 0.2149 0.16757 0.90282 0.0
C50 C 0.23224 0.13397 0.96581 0.0
C51 C 0.18842 0.07088 0.93387 0.0
O52 O 0.21587 0.16049 0.9247 0.0
O53 O 0.21212 0.13195 0.88855 0.0
O54 O 0.21904 0.02544 0.95469 0.0
O55 O 0.21895 0.05119 0.91869 0.0
Co56 Co 0.96687 0.87075 0.69396 0.0
O57 O 0.985 0.85866 0.69659 0.0
O58 O 0.97088 0.84153 0.72377 0.0
C59 C 0.96854 0.94834 0.67706 0.0
O60 O 0.94753 0.8777 0.69813 0.0
Co61 Co 0.95323 0.88937 0.6467 0.0
O62 O 0.93843 0.90882 0.66596 0.0
C63 C 0.96339 0.78746 0.6594 0.0
C64 C 0.98263 0.83936 0.71677 0.0
C65 C 0.93783 0.89519 0.687 0.0
O66 O 0.96479 0.8008 0.68057 0.0
O67 O 0.96 0.81828 0.64337 0.0
O68 O 0.9693 0.94495 0.69946 0.0
O69 O 0.96741 0.90583 0.66638 0.0
Co70 Co 0.8176 0.85427 0.69333 0.0
O71 O 0.7994 0.86538 0.69461 0.0
O72 O 0.81293 0.88699 0.72209 0.0
C73 C 0.81687 0.7739 0.67931 0.0
O74 O 0.8369 0.84942 0.69848 0.0
Co75 Co 0.83157 0.83214 0.64669 0.0
O76 O 0.84649 0.81862 0.66665 0.0
C77 C 0.82007 0.9325 0.65628 0.0
C78 C 0.80128 0.88697 0.71448 0.0
C79 C 0.84682 0.83311 0.68761 0.0
O80 O 0.8196 0.92236 0.67795 0.0
O81 O 0.8232 0.89969 0.64093 0.0
O82 O 0.81538 0.78135 0.70136 0.0
O83 O 0.81773 0.8144 0.66696 0.0
Co84 Co 0.96677 0.85735 0.07118 0.0
O85 O 0.98484 0.8596 0.06485 0.0
O86 O 0.9699 0.88554 0.04073 0.0
C87 C 0.96616 0.7786 0.08737 0.0
O88 O 0.9472 0.8605 0.07163 0.0
Co89 Co 0.95761 0.85007 0.12242 0.0
O90 O 0.94048 0.8483 0.10813 0.0
C91 C 0.97009 0.9423 0.10532 0.0
C92 C 0.98198 0.88135 0.04541 0.0
C93 C 0.93825 0.85597 0.08678 0.0
O94 O 0.96789 0.92807 0.08451 0.0
O95 O 0.96823 0.91352 0.12282 0.0
O96 O 0.96614 0.78283 0.06498 0.0
O97 O 0.96787 0.82054 0.09836 0.0
Co98 Co 0.81656 0.87393 0.06816 0.0
O99 O 0.79857 0.86079 0.0658 0.0
O100 O 0.81257 0.84099 0.03884 0.0
C101 C 0.81437 0.95333 0.08268 0.0
O102 O 0.83598 0.88206 0.06491 0.0
Co103 Co 0.82848 0.89728 0.11662 0.0
O104 O 0.84362 0.9155 0.09797 0.0
C105 C 0.81842 0.7953 0.10497 0.0
C106 C 0.80082 0.8394 0.04608 0.0
C107 C 0.84509 0.90133 0.0771 0.0
O108 O 0.81871 0.80587 0.08335 0.0
O109 O 0.82063 0.82813 0.12084 0.0
O110 O 0.81402 0.94696 0.06041 0.0
O111 O 0.81533 0.91244 0.09465 0.0
Co112 Co 0.06621 0.59893 0.82088 0.0
O113 O 0.04801 0.60377 0.81677 0.0
O114 O 0.06226 0.63065 0.79147 0.0
C115 C 0.06688 0.51821 0.83483 0.0
O116 O 0.08574 0.60092 0.81919 0.0
Co117 Co 0.07708 0.5832 0.87079 0.0
O118 O 0.09368 0.58564 0.85466 0.0
C119 C 0.06531 0.68047 0.85752 0.0
C120 C 0.05035 0.62719 0.79748 0.0
C121 C 0.09516 0.59572 0.83331 0.0
O122 O 0.06595 0.66787 0.83613 0.0
O123 O 0.06784 0.64954 0.87398 0.0
O124 O 0.06617 0.52534 0.81264 0.0
O125 O 0.06583 0.55865 0.84714 0.0
Co126 Co 0.2154 0.61757 0.8194 0.0
O127 O 0.23346 0.60291 0.81845 0.0
O128 O 0.22019 0.59051 0.78947 0.0
C129 C 0.21723 0.69383 0.83759 0.0
O130 O 0.19627 0.6284 0.81358 0.0
Co131 Co 0.20077 0.63411 0.86589 0.0
O132 O 0.18729 0.66128 0.84552 0.0
C133 C 0.2092 0.53077 0.85145 0.0
C134 C 0.23169 0.58644 0.79759 0.0
C135 C 0.18679 0.64887 0.82432 0.0
O136 O 0.21211 0.54659 0.83113 0.0
O137 O 0.20556 0.56033 0.86776 0.0
O138 O 0.21876 0.69156 0.81531 0.0
O139 O 0.21547 0.65077 0.84762 0.0
Co140 Co 0.06545 0.62454 0.44454 0.0
O141 O 0.04742 0.61 0.44668 0.0
O142 O 0.06147 0.5937 0.47407 0.0
C143 C 0.06291 0.70239 0.42826 0.0
O144 O 0.08471 0.63387 0.44911 0.0
Co145 Co 0.07921 0.64813 0.39784 0.0
O146 O 0.0938 0.66778 0.41751 0.0
C147 C 0.07036 0.54339 0.40944 0.0
C148 C 0.04976 0.59071 0.46686 0.0
C149 C 0.09439 0.65278 0.43837 0.0
O150 O 0.06831 0.55554 0.4306 0.0
O151 O 0.07357 0.57561 0.39386 0.0
O152 O 0.06225 0.69804 0.45063 0.0
O153 O 0.06467 0.66066 0.41723 0.0
Co154 Co 0.21477 0.60364 0.44416 0.0
O155 O 0.23305 0.61229 0.44593 0.0
O156 O 0.21952 0.634 0.4734 0.0
C157 C 0.215 0.52408 0.429 0.0
O158 O 0.19539 0.60106 0.44888 0.0
Co159 Co 0.20091 0.58642 0.39705 0.0
O160 O 0.18574 0.5737 0.41649 0.0
C161 C 0.21368 0.6836 0.40797 0.0
C162 C 0.23121 0.63311 0.46598 0.0
C163 C 0.1854 0.58683 0.43763 0.0
O164 O 0.2135 0.67283 0.42958 0.0
O165 O 0.21041 0.65196 0.39223 0.0
O166 O 0.21634 0.52989 0.45118 0.0
O167 O 0.21452 0.56553 0.41724 0.0
Co168 Co 0.96776 0.37744 0.19478 0.0
O169 O 0.98585 0.36923 0.19982 0.0
O170 O 0.97089 0.34128 0.22346 0.0
C171 C 0.96879 0.45934 0.18292 0.0
O172 O 0.94826 0.37899 0.19597 0.0
Co173 Co 0.95656 0.40399 0.14647 0.0
O174 O 0.94039 0.41436 0.16363 0.0
C175 C 0.96769 0.30243 0.15577 0.0
C176 C 0.98295 0.34429 0.21845 0.0
C177 C 0.93891 0.39648 0.18389 0.0
O178 O 0.9675 0.31113 0.17757 0.0
O179 O 0.9649 0.33619 0.14059 0.0
O180 O 0.96846 0.44947 0.20493 0.0
O181 O 0.96915 0.42049 0.16949 0.0
Co182 Co 0.81776 0.35456 0.19313 0.0
O183 O 0.79962 0.36533 0.19539 0.0
O184 O 0.81338 0.38376 0.22294 0.0
C185 C 0.81639 0.2765 0.17674 0.0
O186 O 0.83717 0.34912 0.1969 0.0
Co187 Co 0.83074 0.33736 0.14503 0.0
O188 O 0.84601 0.32139 0.16377 0.0
C189 C 0.8193 0.43641 0.158 0.0
C190 C 0.80167 0.3849 0.21559 0.0
C191 C 0.84682 0.33382 0.18496 0.0
O192 O 0.8195 0.42429 0.17945 0.0
O193 O 0.82204 0.40521 0.14173 0.0
O194 O 0.81569 0.28043 0.19911 0.0
O195 O 0.81724 0.3188 0.16578 0.0
Co196 Co 0.96575 0.35217 0.57127 0.0
O197 O 0.98392 0.35687 0.5667 0.0
O198 O 0.9695 0.38752 0.54262 0.0
C199 C 0.96517 0.27011 0.58303 0.0
O200 O 0.94618 0.3549 0.57023 0.0
Co201 Co 0.95513 0.3296 0.62089 0.0
O202 O 0.93841 0.33449 0.60531 0.0
C203 C 0.96771 0.42677 0.61028 0.0
C204 C 0.98146 0.38258 0.54807 0.0
C205 C 0.93683 0.34766 0.58433 0.0
O206 O 0.96638 0.41842 0.58857 0.0
O207 O 0.96526 0.39331 0.62575 0.0
O208 O 0.96562 0.27997 0.56102 0.0
O209 O 0.9663 0.30879 0.59638 0.0
Co210 Co 0.81595 0.37484 0.56755 0.0
O211 O 0.79799 0.36082 0.56552 0.0
O212 O 0.81176 0.34632 0.53748 0.0
C213 C 0.81375 0.45192 0.58472 0.0
O214 O 0.83526 0.3846 0.56354 0.0
Co215 Co 0.82873 0.39201 0.61585 0.0
O216 O 0.8435 0.41356 0.59696 0.0
C217 C 0.81854 0.29156 0.6019 0.0
C218 C 0.80011 0.34282 0.54505 0.0
C219 C 0.84457 0.40242 0.57566 0.0
O220 O 0.81859 0.3047 0.58055 0.0
O221 O 0.82089 0.32247 0.61846 0.0
O222 O 0.81295 0.44882 0.56233 0.0
O223 O 0.81509 0.40926 0.59522 0.0
Co224 Co 0.56847 0.10885 0.82234 0.0
O225 O 0.55019 0.11695 0.82 0.0
O226 O 0.56402 0.14447 0.79411 0.0
C227 C 0.56848 0.02701 0.83436 0.0
O228 O 0.58795 0.10795 0.81856 0.0
Co229 Co 0.58161 0.08405 0.8696 0.0
O230 O 0.59703 0.07481 0.85043 0.0
C231 C 0.56914 0.18311 0.86132 0.0
C232 C 0.55224 0.14177 0.80095 0.0
C233 C 0.59773 0.09153 0.82984 0.0
O234 O 0.56918 0.17501 0.83948 0.0
O235 O 0.57264 0.14992 0.87624 0.0
O236 O 0.56731 0.03675 0.81242 0.0
O237 O 0.56854 0.06599 0.84773 0.0
Co238 Co 0.71859 0.12944 0.8204 0.0
O239 O 0.73657 0.11943 0.81505 0.0
O240 O 0.72132 0.09371 0.79151 0.0
C241 C 0.72023 0.2108 0.83261 0.0
O242 O 0.69911 0.13335 0.8196 0.0
Co243 Co 0.70788 0.15615 0.86912 0.0
O244 O 0.6917 0.16861 0.85232 0.0
C245 C 0.7181 0.05345 0.85907 0.0
C246 C 0.73342 0.09539 0.79633 0.0
C247 C 0.68997 0.15155 0.83198 0.0
O248 O 0.71791 0.06278 0.83731 0.0
O249 O 0.71569 0.08714 0.87447 0.0
O250 O 0.71971 0.20156 0.81055 0.0
O251 O 0.72041 0.17157 0.84584 0.0
Co252 Co 0.56346 0.11926 0.4444 0.0
O253 O 0.54518 0.11032 0.44717 0.0
O254 O 0.55919 0.0904 0.47414 0.0
C255 C 0.56277 0.19741 0.42764 0.0
O256 O 0.58286 0.12248 0.44853 0.0
Co257 Co 0.5772 0.13565 0.39697 0.0
O258 O 0.59266 0.14682 0.41578 0.0
C259 C 0.56596 0.03573 0.40959 0.0
C260 C 0.5474 0.09021 0.46726 0.0
C261 C 0.59289 0.13522 0.43708 0.0
O262 O 0.56476 0.04906 0.43082 0.0
O263 O 0.56951 0.06624 0.39358 0.0
O264 O 0.5619 0.19391 0.45003 0.0
O265 O 0.56333 0.15481 0.41689 0.0
Co266 Co 0.71429 0.10498 0.44437 0.0
O267 O 0.73258 0.11508 0.44569 0.0
O268 O 0.71891 0.1412 0.47216 0.0
C269 C 0.71479 0.02318 0.43238 0.0
O270 O 0.69499 0.10211 0.44971 0.0
Co271 Co 0.69999 0.07757 0.39865 0.0
O272 O 0.685 0.0683 0.41894 0.0
C273 C 0.7111 0.17993 0.4057 0.0
C274 C 0.73061 0.13949 0.46488 0.0
C275 C 0.68494 0.08529 0.43949 0.0
O276 O 0.71258 0.17106 0.42733 0.0
O277 O 0.70729 0.14632 0.39123 0.0
O278 O 0.71628 0.03317 0.45422 0.0
O279 O 0.714 0.06202 0.41898 0.0
Co280 Co 0.46858 0.87616 0.19725 0.0
O281 O 0.48659 0.86098 0.19803 0.0
O282 O 0.47306 0.84198 0.22588 0.0
C283 C 0.47098 0.95585 0.18309 0.0
O284 O 0.4494 0.88495 0.20295 0.0
Co285 Co 0.4543 0.90552 0.15182 0.0
O286 O 0.43987 0.9219 0.1725 0.0
C287 C 0.46323 0.79957 0.16034 0.0
C288 C 0.48463 0.8396 0.21791 0.0
C289 C 0.43956 0.90461 0.19302 0.0
O290 O 0.46548 0.80917 0.1817 0.0
O291 O 0.45987 0.83359 0.14567 0.0
O292 O 0.47186 0.94847 0.20526 0.0
O293 O 0.46908 0.91587 0.17085 0.0
Co294 Co 0.32019 0.86 0.19351 0.0
O295 O 0.30206 0.87356 0.19312 0.0
O296 O 0.31466 0.8876 0.22291 0.0
C297 C 0.31911 0.78276 0.17595 0.0
O298 O 0.33924 0.85165 0.20071 0.0
Co299 Co 0.33595 0.84309 0.14836 0.0
O300 O 0.34971 0.82207 0.16962 0.0
C301 C 0.32596 0.94545 0.16077 0.0
C302 C 0.30335 0.891 0.21395 0.0
C303 C 0.3494 0.83465 0.19081 0.0
O304 O 0.32327 0.93061 0.18133 0.0
O305 O 0.32997 0.91536 0.14494 0.0
O306 O 0.31711 0.786 0.19808 0.0
O307 O 0.32092 0.82546 0.1656 0.0
Co308 Co 0.46331 0.85796 0.57429 0.0
O309 O 0.4814 0.85959 0.56833 0.0
O310 O 0.46678 0.89102 0.5449 0.0
C311 C 0.46215 0.77669 0.58735 0.0
O312 O 0.44376 0.86343 0.57476 0.0
Co313 Co 0.45396 0.84207 0.62512 0.0
O314 O 0.43686 0.84772 0.61093 0.0
C315 C 0.4679 0.93402 0.61164 0.0
C316 C 0.4788 0.88494 0.54967 0.0
C317 C 0.43477 0.85873 0.58984 0.0
O318 O 0.46505 0.92536 0.59046 0.0
O319 O 0.46571 0.902 0.62783 0.0
O320 O 0.46223 0.78508 0.5652 0.0
O321 O 0.46404 0.81613 0.59998 0.0
Co322 Co 0.31324 0.88281 0.57106 0.0
O323 O 0.29541 0.86852 0.56616 0.0
O324 O 0.31088 0.84262 0.54316 0.0
C325 C 0.31045 0.96534 0.58081 0.0
O326 O 0.3327 0.89083 0.57014 0.0
Co327 Co 0.32329 0.91909 0.61901 0.0
O328 O 0.33903 0.93476 0.60144 0.0
C329 C 0.31572 0.81153 0.61174 0.0
C330 C 0.29877 0.84298 0.54799 0.0
C331 C 0.34132 0.91442 0.58191 0.0
O332 O 0.31484 0.81882 0.58986 0.0
O333 O 0.31791 0.84739 0.62623 0.0
O334 O 0.31117 0.95302 0.55909 0.0
O335 O 0.31075 0.92815 0.59518 0.0
Co336 Co 0.56847 0.60144 0.32261 0.0
O337 O 0.55042 0.60452 0.31608 0.0
O338 O 0.56543 0.63768 0.29396 0.0
C339 C 0.56917 0.51917 0.33407 0.0
O340 O 0.58804 0.60576 0.32336 0.0
Co341 Co 0.57793 0.5788 0.37289 0.0
O342 O 0.59505 0.58426 0.35879 0.0
C343 C 0.56501 0.67491 0.36177 0.0
C344 C 0.55334 0.63135 0.29798 0.0
C345 C 0.5971 0.5982 0.33804 0.0
O346 O 0.56692 0.66713 0.34016 0.0
O347 O 0.56736 0.64153 0.37731 0.0
O348 O 0.56931 0.52951 0.31208 0.0
O349 O 0.56745 0.55743 0.34746 0.0
Co350 Co 0.71845 0.62618 0.32108 0.0
O351 O 0.7364 0.61245 0.31738 0.0
O352 O 0.72178 0.59604 0.29104 0.0
C353 C 0.72114 0.70389 0.33739 0.0
O354 O 0.69903 0.63562 0.31859 0.0
Co355 Co 0.70667 0.64655 0.36989 0.0
O356 O 0.69163 0.66851 0.35187 0.0
C357 C 0.71534 0.54322 0.35613 0.0
C358 C 0.73366 0.59337 0.29737 0.0
C359 C 0.69002 0.65513 0.33096 0.0
O360 O 0.71615 0.55655 0.33484 0.0
O361 O 0.71292 0.57458 0.3725 0.0
O362 O 0.72123 0.70001 0.31498 0.0
O363 O 0.72004 0.66171 0.34836 0.0
Co364 Co 0.56389 0.62454 0.94298 0.0
O365 O 0.54589 0.61888 0.94932 0.0
O366 O 0.56111 0.59483 0.97328 0.0
C367 C 0.56306 0.70351 0.92711 0.0
O368 O 0.58351 0.62475 0.94251 0.0
Co369 Co 0.57339 0.63872 0.89206 0.0
O370 O 0.59038 0.64301 0.90662 0.0
C371 C 0.56195 0.54203 0.90757 0.0
C372 C 0.54899 0.59718 0.96864 0.0
C373 C 0.59252 0.6328 0.92776 0.0
O374 O 0.56346 0.55468 0.92881 0.0
O375 O 0.56389 0.57272 0.89076 0.0
O376 O 0.56362 0.69916 0.9495 0.0
O377 O 0.56218 0.66135 0.91612 0.0
Co378 Co 0.71456 0.60839 0.94465 0.0
O379 O 0.73279 0.61626 0.94753 0.0
O380 O 0.71889 0.63613 0.97469 0.0
C381 C 0.71499 0.53053 0.92772 0.0
O382 O 0.69506 0.60476 0.948 0.0
Co383 Co 0.70214 0.59744 0.89581 0.0
O384 O 0.6868 0.57953 0.91398 0.0
C385 C 0.71425 0.69331 0.91053 0.0
C386 C 0.73069 0.63566 0.96776 0.0
C387 C 0.68565 0.58985 0.93535 0.0
O388 O 0.71354 0.67936 0.93172 0.0
O389 O 0.71152 0.66394 0.89361 0.0
O390 O 0.71591 0.53378 0.95009 0.0
O391 O 0.71489 0.57337 0.91702 0.0
Co392 Co 0.46824 0.37167 0.69465 0.0
O393 O 0.48629 0.37108 0.70131 0.0
O394 O 0.47132 0.34351 0.72504 0.0
C395 C 0.4672 0.45037 0.67846 0.0
O396 O 0.44873 0.36643 0.69418 0.0
Co397 Co 0.45883 0.37852 0.64365 0.0
O398 O 0.44166 0.37685 0.65781 0.0
C399 C 0.47258 0.2887 0.66021 0.0
C400 C 0.4834 0.34863 0.72059 0.0
C401 C 0.43965 0.36933 0.67924 0.0
O402 O 0.46998 0.30144 0.68107 0.0
O403 O 0.4704 0.3178 0.64294 0.0
O404 O 0.46705 0.44605 0.70086 0.0
O405 O 0.46918 0.40862 0.66748 0.0
Co406 Co 0.31874 0.36106 0.69372 0.0
O407 O 0.3008 0.37725 0.69404 0.0
O408 O 0.31368 0.38757 0.72373 0.0
C409 C 0.31667 0.2852 0.67532 0.0
O410 O 0.33783 0.34862 0.69978 0.0
Co411 Co 0.33333 0.34513 0.6471 0.0
O412 O 0.34669 0.31691 0.66744 0.0
C413 C 0.32511 0.44829 0.66205 0.0
C414 C 0.30232 0.39294 0.71506 0.0
C415 C 0.34724 0.32825 0.68876 0.0
O416 O 0.32239 0.43205 0.68239 0.0
O417 O 0.32857 0.41904 0.6455 0.0
O418 O 0.315 0.28741 0.69755 0.0
O419 O 0.31867 0.32825 0.66539 0.0
Co420 Co 0.46477 0.35637 0.07239 0.0
O421 O 0.48283 0.37039 0.07124 0.0
O422 O 0.46939 0.38681 0.04295 0.0
C423 C 0.46693 0.27833 0.08868 0.0
O424 O 0.4455 0.34805 0.06715 0.0
Co425 Co 0.45061 0.3339 0.11885 0.0
O426 O 0.436 0.3163 0.09886 0.0
C427 C 0.46045 0.43726 0.10757 0.0
C428 C 0.48096 0.38965 0.05091 0.0
C429 C 0.43563 0.33068 0.07789 0.0
O430 O 0.46196 0.42537 0.08625 0.0
O431 O 0.45724 0.40503 0.12315 0.0
O432 O 0.46787 0.28282 0.06636 0.0
O433 O 0.46515 0.32006 0.09971 0.0
Co434 Co 0.31535 0.38125 0.0696 0.0
O435 O 0.29726 0.36928 0.06674 0.0
O436 O 0.31166 0.3435 0.04155 0.0
C437 C 0.31364 0.46352 0.08056 0.0
O438 O 0.33479 0.38591 0.06633 0.0
Co439 Co 0.32785 0.41366 0.11615 0.0
O440 O 0.34339 0.42434 0.0973 0.0
C441 C 0.31841 0.30819 0.10921 0.0
C442 C 0.29978 0.34457 0.04788 0.0
C443 C 0.34439 0.40493 0.07724 0.0
O444 O 0.31702 0.31612 0.08747 0.0
O445 O 0.32151 0.34324 0.12357 0.0
O446 O 0.31344 0.4523 0.05869 0.0
O447 O 0.31425 0.42561 0.09452 0.0
H448 H 0.10696 0.16213 0.30121 0.0
H449 H 0.11678 0.01297 0.32757 0.0
H450 H 0.12957 0.17976 0.29408 0.0
H451 H 0.13925 0.02993 0.31991 0.0
H452 H 0.17926 0.06855 0.29796 0.0
H453 H 0.1567 0.05326 0.28936 0.0
H454 H 0.14664 0.19018 0.32665 0.0
H455 H 0.16905 0.20466 0.33571 0.0
C456 C 0.11389 0.13234 0.30456 0.0
C457 C 0.11013 0.08619 0.31496 0.0
C458 C 0.12683 0.14257 0.30064 0.0
C459 C 0.13618 0.10631 0.30654 0.0
C460 C 0.13228 0.05846 0.31501 0.0
C461 C 0.11941 0.04875 0.31943 0.0
C462 C 0.17225 0.09615 0.3037 0.0
C463 C 0.1759 0.13769 0.31759 0.0
C464 C 0.15935 0.08725 0.29888 0.0
C465 C 0.1499 0.12047 0.30737 0.0
C466 C 0.15369 0.16416 0.31969 0.0
C467 C 0.16652 0.17236 0.32496 0.0
H468 H 0.1682 0.00734 0.92666 0.0
H469 H 0.1786 0.14898 0.95985 0.0
H470 H 0.14575 0.02513 0.93422 0.0
H471 H 0.15605 0.1673 0.967 0.0
H472 H 0.11621 0.20577 0.92957 0.0
H473 H 0.13869 0.18737 0.93649 0.0
H474 H 0.12856 0.04112 0.96568 0.0
H475 H 0.10596 0.06012 0.9592 0.0
C476 C 0.1657 0.04175 0.93603 0.0
C477 C 0.17518 0.07682 0.94256 0.0
C478 C 0.15284 0.05184 0.94046 0.0
C479 C 0.14912 0.09775 0.95111 0.0
C480 C 0.15863 0.13167 0.95871 0.0
C481 C 0.17154 0.12102 0.95473 0.0
C482 C 0.11876 0.17036 0.93812 0.0
C483 C 0.10932 0.13437 0.9438 0.0
C484 C 0.13163 0.15987 0.94214 0.0
C485 C 0.13541 0.11262 0.95147 0.0
C486 C 0.12593 0.07776 0.95838 0.0
C487 C 0.113 0.0888 0.95483 0.0
H488 H 0.92849 0.82145 0.71577 0.0
H489 H 0.918 0.96088 0.68077 0.0
H490 H 0.90601 0.80492 0.72436 0.0
H491 H 0.89564 0.94506 0.68984 0.0
H492 H 0.85595 0.91155 0.71387 0.0
H493 H 0.87842 0.92978 0.722 0.0
H494 H 0.88894 0.78407 0.69272 0.0
H495 H 0.86661 0.76658 0.68407 0.0
C496 C 0.92145 0.84955 0.71072 0.0
C497 C 0.92498 0.89233 0.69748 0.0
C498 C 0.90858 0.83993 0.71552 0.0
C499 C 0.89907 0.87358 0.70768 0.0
C500 C 0.90275 0.91864 0.69627 0.0
C501 C 0.91555 0.92762 0.691 0.0
C502 C 0.86303 0.88271 0.70994 0.0
C503 C 0.85956 0.83771 0.69828 0.0
C504 C 0.87588 0.89329 0.71445 0.0
C505 C 0.88543 0.85844 0.70791 0.0
C506 C 0.8818 0.81147 0.69814 0.0
C507 C 0.86902 0.80148 0.69314 0.0
H508 H 0.92674 0.84647 0.04379 0.0
H509 H 0.91896 0.88428 0.11492 0.0
H510 H 0.90409 0.86154 0.03445 0.0
H511 H 0.89687 0.89964 0.10558 0.0
H512 H 0.86249 0.97623 0.08343 0.0
H513 H 0.88552 0.96804 0.08009 0.0
H514 H 0.881 0.81945 0.04888 0.0
H515 H 0.85773 0.82799 0.05197 0.0
C516 C 0.92027 0.85802 0.05736 0.0
C517 C 0.9247 0.86395 0.08013 0.0
C518 C 0.90734 0.86653 0.05201 0.0
C519 C 0.89876 0.88238 0.06925 0.0
C520 C 0.90326 0.88818 0.09185 0.0
C521 C 0.91596 0.8789 0.09722 0.0
C522 C 0.86637 0.9426 0.07508 0.0
C523 C 0.85832 0.90255 0.06819 0.0
C524 C 0.87956 0.93784 0.07322 0.0
C525 C 0.88506 0.89271 0.06463 0.0
C526 C 0.87702 0.8547 0.05553 0.0
C527 C 0.86371 0.85964 0.05726 0.0
H528 H 0.11381 0.63617 0.85933 0.0
H529 H 0.10637 0.5823 0.79027 0.0
H530 H 0.13553 0.65554 0.84888 0.0
H531 H 0.12869 0.60142 0.77973 0.0
H532 H 0.17484 0.5745 0.7992 0.0
H533 H 0.15169 0.56607 0.79481 0.0
H534 H 0.14678 0.71854 0.82179 0.0
H535 H 0.16975 0.7264 0.82666 0.0
C536 C 0.11683 0.62828 0.84183 0.0
C537 C 0.10835 0.60725 0.82569 0.0
C538 C 0.12929 0.64 0.83577 0.0
C539 C 0.1338 0.63064 0.81341 0.0
C540 C 0.12542 0.60933 0.79707 0.0
C541 C 0.1127 0.59844 0.80308 0.0
C542 C 0.16883 0.60704 0.80314 0.0
C543 C 0.17405 0.65091 0.81352 0.0
C544 C 0.15558 0.60216 0.80066 0.0
C545 C 0.14744 0.64126 0.80841 0.0
C546 C 0.15283 0.6875 0.816 0.0
C547 C 0.16598 0.69211 0.8187 0.0
H548 H 0.11427 0.71868 0.43286 0.0
H549 H 0.10372 0.57744 0.46629 0.0
H550 H 0.13664 0.70172 0.44136 0.0
H551 H 0.12621 0.55982 0.4743 0.0
H552 H 0.16533 0.52198 0.43328 0.0
H553 H 0.14307 0.54024 0.44219 0.0
H554 H 0.15407 0.68386 0.4729 0.0
H555 H 0.17648 0.66478 0.46452 0.0
C556 C 0.11671 0.68478 0.44265 0.0
C557 C 0.10724 0.64934 0.44883 0.0
C558 C 0.12952 0.67512 0.44759 0.0
C559 C 0.13319 0.62925 0.45835 0.0
C560 C 0.12365 0.59543 0.46595 0.0
C561 C 0.11078 0.6057 0.46148 0.0
C562 C 0.16304 0.55658 0.44268 0.0
C563 C 0.17263 0.59193 0.44821 0.0
C564 C 0.15029 0.56701 0.44784 0.0
C565 C 0.14681 0.61362 0.45813 0.0
C566 C 0.15648 0.64766 0.46494 0.0
C567 C 0.1693 0.63659 0.46029 0.0
H568 H 0.91876 0.45989 0.17614 0.0
H569 H 0.92911 0.31931 0.21037 0.0
H570 H 0.89632 0.44311 0.1843 0.0
H571 H 0.90654 0.30182 0.21799 0.0
H572 H 0.86636 0.26674 0.17924 0.0
H573 H 0.88894 0.28295 0.18636 0.0
H574 H 0.87949 0.4277 0.21768 0.0
H575 H 0.85679 0.41071 0.21114 0.0
C576 C 0.91625 0.42591 0.18582 0.0
C577 C 0.92569 0.39084 0.19253 0.0
C578 C 0.90341 0.41643 0.1906 0.0
C579 C 0.89968 0.37109 0.20173 0.0
C580 C 0.90915 0.33708 0.20939 0.0
C581 C 0.92206 0.34721 0.20511 0.0
C582 C 0.86908 0.30113 0.18842 0.0
C583 C 0.85983 0.3374 0.19467 0.0
C584 C 0.882 0.31041 0.19251 0.0
C585 C 0.88597 0.35675 0.20243 0.0
C586 C 0.87668 0.3917 0.20998 0.0
C587 C 0.8637 0.38179 0.2064 0.0
H588 H 0.92542 0.33991 0.54119 0.0
H589 H 0.9182 0.38385 0.61174 0.0
H590 H 0.903 0.3595 0.53158 0.0
H591 H 0.89636 0.40365 0.60222 0.0
H592 H 0.8619 0.47778 0.5816 0.0
H593 H 0.8849 0.46985 0.57735 0.0
H594 H 0.88006 0.32206 0.5455 0.0
H595 H 0.85685 0.3306 0.54934 0.0
C596 C 0.91912 0.35399 0.55453 0.0
C597 C 0.92357 0.3599 0.57726 0.0
C598 C 0.90632 0.36509 0.54905 0.0
C599 C 0.89797 0.38371 0.5661 0.0
C600 C 0.90257 0.39017 0.5886 0.0
C601 C 0.91511 0.37825 0.59411 0.0
C602 C 0.86571 0.44452 0.57284 0.0
C603 C 0.85761 0.40462 0.56601 0.0
C604 C 0.87888 0.43986 0.57048 0.0
C605 C 0.88429 0.39484 0.56155 0.0
C606 C 0.87616 0.35721 0.55241 0.0
C607 C 0.86288 0.36214 0.55458 0.0
H608 H 0.67977 0.07976 0.80301 0.0
H609 H 0.67002 0.21418 0.84243 0.0
H610 H 0.65714 0.065 0.79506 0.0
H611 H 0.6475 0.20001 0.83409 0.0
H612 H 0.60768 0.17449 0.80762 0.0
H613 H 0.63039 0.19232 0.80148 0.0
H614 H 0.63969 0.04033 0.82512 0.0
H615 H 0.61713 0.02315 0.8318 0.0
C616 C 0.67284 0.10696 0.80941 0.0
C617 C 0.67667 0.14794 0.8235 0.0
C618 C 0.65989 0.09838 0.80493 0.0
C619 C 0.65056 0.13132 0.81397 0.0
C620 C 0.65447 0.17423 0.8267 0.0
C621 C 0.66736 0.18217 0.8316 0.0
C622 C 0.61456 0.14439 0.81072 0.0
C623 C 0.61067 0.09744 0.82017 0.0
C624 C 0.62755 0.15472 0.80739 0.0
C625 C 0.63681 0.11779 0.81293 0.0
C626 C 0.63278 0.06939 0.82053 0.0
C627 C 0.61987 0.05955 0.82438 0.0
H628 H 0.66876 0.01321 0.45657 0.0
H629 H 0.67261 0.17498 0.44458 0.0
H630 H 0.64616 0.02468 0.465 0.0
H631 H 0.64993 0.18667 0.45102 0.0
H632 H 0.60827 0.20242 0.46043 0.0
H633 H 0.63078 0.18971 0.46998 0.0
H634 H 0.62855 0.03562 0.44292 0.0
H635 H 0.60613 0.048 0.43498 0.0
C636 C 0.66476 0.05141 0.45624 0.0
C637 C 0.67236 0.09326 0.45011 0.0
C638 C 0.65175 0.05809 0.46068 0.0
C639 C 0.64595 0.1065 0.45809 0.0
C640 C 0.65387 0.14883 0.45345 0.0
C641 C 0.66694 0.14225 0.44967 0.0
C642 C 0.6126 0.16544 0.45735 0.0
C643 C 0.60554 0.12598 0.4472 0.0
C644 C 0.62555 0.15819 0.4625 0.0
C645 C 0.63173 0.1117 0.45704 0.0
C646 C 0.6243 0.07165 0.44789 0.0
C647 C 0.61139 0.07871 0.44315 0.0
H648 H 0.3694 0.76883 0.18764 0.0
H649 H 0.35772 0.91039 0.21943 0.0
H650 H 0.39152 0.78724 0.1974 0.0
H651 H 0.37997 0.9295 0.22878 0.0
H652 H 0.41934 0.96944 0.1892 0.0
H653 H 0.39714 0.95015 0.19804 0.0
H654 H 0.40851 0.80671 0.22854 0.0
H655 H 0.43084 0.82657 0.22012 0.0
C656 C 0.37153 0.80302 0.19745 0.0
C657 C 0.36184 0.83819 0.20273 0.0
C658 C 0.3842 0.81358 0.20308 0.0
C659 C 0.38751 0.86007 0.21366 0.0
C660 C 0.37771 0.89346 0.22054 0.0
C661 C 0.36496 0.88231 0.21536 0.0
C662 C 0.41715 0.93465 0.19855 0.0
C663 C 0.42683 0.89947 0.20388 0.0
C664 C 0.40443 0.92364 0.20368 0.0
C665 C 0.40107 0.87671 0.21383 0.0
C666 C 0.41082 0.8431 0.22065 0.0
C667 C 0.42361 0.85466 0.21596 0.0
H668 H 0.35924 0.98737 0.58925 0.0
H669 H 0.35403 0.83904 0.55805 0.0
H670 H 0.38223 0.97823 0.58568 0.0
H671 H 0.37724 0.82938 0.55488 0.0
H672 H 0.42222 0.84572 0.54803 0.0
H673 H 0.39955 0.86371 0.53994 0.0
H674 H 0.39477 0.917 0.6098 0.0
H675 H 0.4169 0.89899 0.6178 0.0
C676 C 0.36301 0.95323 0.58115 0.0
C677 C 0.35482 0.91361 0.57427 0.0
C678 C 0.37619 0.94793 0.57914 0.0
C679 C 0.38157 0.9026 0.57047 0.0
C680 C 0.37338 0.86478 0.56162 0.0
C681 C 0.3601 0.87031 0.56345 0.0
C682 C 0.41628 0.86156 0.56151 0.0
C683 C 0.42135 0.87059 0.5836 0.0
C684 C 0.40333 0.87167 0.55692 0.0
C685 C 0.39539 0.89228 0.57418 0.0
C686 C 0.40062 0.90191 0.596 0.0
C687 C 0.41333 0.89106 0.60066 0.0
H688 H 0.6722 0.72752 0.33967 0.0
H689 H 0.67768 0.58483 0.30368 0.0
H690 H 0.64922 0.71837 0.33582 0.0
H691 H 0.65447 0.57525 0.3001 0.0
H692 H 0.60896 0.59553 0.29517 0.0
H693 H 0.63152 0.61505 0.28677 0.0
H694 H 0.63771 0.64819 0.35873 0.0
H695 H 0.6157 0.62844 0.36709 0.0
C696 C 0.66849 0.69493 0.3303 0.0
C697 C 0.67674 0.6566 0.32225 0.0
C698 C 0.65533 0.68961 0.32815 0.0
C699 C 0.65004 0.64558 0.31809 0.0
C700 C 0.65828 0.60962 0.30791 0.0
C701 C 0.67156 0.61515 0.30994 0.0
C702 C 0.61519 0.60711 0.30909 0.0
C703 C 0.61053 0.6101 0.33182 0.0
C704 C 0.62807 0.61813 0.3043 0.0
C705 C 0.63634 0.63372 0.32206 0.0
C706 C 0.63156 0.63704 0.3446 0.0
C707 C 0.61892 0.6252 0.34941 0.0
H708 H 0.66842 0.5143 0.92973 0.0
H709 H 0.67314 0.66294 0.96076 0.0
H710 H 0.64541 0.52144 0.93399 0.0
H711 H 0.64988 0.67062 0.96466 0.0
H712 H 0.60417 0.64267 0.97069 0.0
H713 H 0.62689 0.62804 0.97974 0.0
H714 H 0.63381 0.58918 0.90859 0.0
H715 H 0.61168 0.60418 0.89956 0.0
C716 C 0.66454 0.54778 0.9382 0.0
C717 C 0.67254 0.5882 0.94474 0.0
C718 C 0.65136 0.55195 0.94058 0.0
C719 C 0.64584 0.59697 0.94927 0.0
C720 C 0.65388 0.63542 0.95798 0.0
C721 C 0.66718 0.631 0.95578 0.0
C722 C 0.6106 0.63103 0.95707 0.0
C723 C 0.60609 0.62491 0.93437 0.0
C724 C 0.62357 0.62277 0.96225 0.0
C725 C 0.63208 0.60687 0.94491 0.0
C726 C 0.62748 0.60071 0.9224 0.0
C727 C 0.61476 0.60982 0.91719 0.0
H728 H 0.36372 0.249 0.686 0.0
H729 H 0.35987 0.40129 0.71364 0.0
H730 H 0.38679 0.25465 0.6899 0.0
H731 H 0.38312 0.40739 0.71721 0.0
H732 H 0.42824 0.38496 0.72183 0.0
H733 H 0.40574 0.36941 0.73203 0.0
H734 H 0.39869 0.31585 0.66288 0.0
H735 H 0.42068 0.33178 0.65271 0.0
C736 C 0.36779 0.28289 0.69382 0.0
C737 C 0.36002 0.3248 0.69937 0.0
C738 C 0.38101 0.28628 0.69591 0.0
C739 C 0.38677 0.3319 0.70335 0.0
C740 C 0.37895 0.37175 0.71143 0.0
C741 C 0.36563 0.36817 0.70949 0.0
C742 C 0.42185 0.36972 0.70892 0.0
C743 C 0.42625 0.3599 0.68641 0.0
C744 C 0.409 0.36091 0.71475 0.0
C745 C 0.4005 0.34077 0.69834 0.0
C746 C 0.40502 0.33056 0.67604 0.0
C747 C 0.41764 0.34023 0.67014 0.0
H748 H 0.35349 0.3255 0.0513 0.0
H749 H 0.36492 0.46746 0.08307 0.0
H750 H 0.37588 0.30488 0.04374 0.0
H751 H 0.3872 0.44743 0.07506 0.0
H752 H 0.42659 0.40823 0.05091 0.0
H753 H 0.40415 0.42801 0.04342 0.0
H754 H 0.3932 0.2848 0.07462 0.0
H755 H 0.41553 0.26568 0.08257 0.0
C756 C 0.36074 0.35309 0.05595 0.0
C757 C 0.35744 0.39803 0.06788 0.0
C758 C 0.37356 0.34112 0.05174 0.0
C759 C 0.38331 0.37444 0.05886 0.0
C760 C 0.37992 0.42115 0.06918 0.0
C761 C 0.36715 0.43256 0.07386 0.0
C762 C 0.41942 0.38017 0.0554 0.0
C763 C 0.42282 0.33541 0.06737 0.0
C764 C 0.40657 0.39171 0.05129 0.0
C765 C 0.3969 0.35813 0.05858 0.0
C766 C 0.40041 0.3113 0.06866 0.0
C767 C 0.4132 0.30034 0.07324 0.0
H768 H 0.05191 0.17786 0.25534 0.0
H769 H 0.02815 0.16131 0.31554 0.0
H770 H 0.0352 0.22719 0.23645 0.0
H771 H 1.01167 0.21257 0.29725 0.0
H772 H 0.97956 0.26838 0.25043 0.0
H773 H 0.99586 0.21674 0.26924 0.0
H774 H 0.0251 0.30653 0.23586 0.0
H775 H 1.00876 0.35631 0.2163 0.0
C776 C 0.04312 0.18481 0.26456 0.0
C777 C 0.04138 0.16544 0.28693 0.0
C778 C 0.03354 0.21366 0.25383 0.0
C779 C 0.02201 0.22459 0.26528 0.0
C780 C 0.02027 0.2046 0.28761 0.0
C781 C 0.02978 0.17523 0.29821 0.0
C782 C 0.98948 0.27733 0.24729 0.0
C783 C 0.99284 0.31652 0.23187 0.0
C784 C 0.99888 0.24773 0.25813 0.0
C785 C 1.01192 0.25689 0.25408 0.0
C786 C 1.01522 0.2972 0.23909 0.0
C787 C 1.00583 0.32629 0.22803 0.0
H788 H 0.25959 0.09955 0.30057 0.0
H789 H 0.23089 0.02627 0.25893 0.0
H790 H 0.2761 0.05079 0.2809 0.0
H791 H 0.24728 0.97554 0.23994 0.0
H792 H 0.28072 0.92285 0.19565 0.0
H793 H 0.26416 0.97357 0.21401 0.0
H794 H 0.28521 0.96979 0.278 0.0
H795 H 0.30205 0.92107 0.25917 0.0
C796 C 0.25681 0.07304 0.28715 0.0
C797 C 0.24392 0.06705 0.28127 0.0
C798 C 0.26628 0.04448 0.27601 0.0
C799 C 0.26313 0.00844 0.25887 0.0
C800 C 0.2502 0.0032 0.25276 0.0
C801 C 0.24075 0.03231 0.26371 0.0
C802 C 0.28177 0.93256 0.21369 0.0
C803 C 0.29273 0.91783 0.22592 0.0
C804 C 0.27221 0.96163 0.22431 0.0
C805 C 0.27325 0.97639 0.24759 0.0
C806 C 0.28412 0.96043 0.25994 0.0
C807 C 0.29375 0.93189 0.24921 0.0
H808 H 0.05161 0.04195 1.00759 0.0
H809 H 0.02745 0.06357 0.94829 0.0
H810 H 0.03492 -0.00822 0.02617 0.0
H811 H 1.01105 0.01138 0.96611 0.0
H812 H 0.9789 0.95572 0.01268 0.0
H813 H 0.99537 0.00598 0.99375 0.0
H814 H 0.02428 0.91408 0.02694 0.0
H815 H 1.00773 0.86581 0.04675 0.0
C816 C 0.04274 0.03589 0.9985 0.0
C817 C 0.04086 0.05716 0.97653 0.0
C818 C 0.03316 0.00654 0.00904 0.0
C819 C 0.02151 -0.00313 0.99773 0.0
C820 C 0.0197 0.01842 0.97571 0.0
C821 C 0.02918 0.04836 0.96537 0.0
C822 C 0.98878 0.94582 0.01568 0.0
C823 C 0.99197 0.90662 0.0312 0.0
C824 C 0.99829 0.97471 1.00477 0.0
C825 C 1.01131 0.96475 0.00879 0.0
C826 C 1.01444 0.9241 0.02373 0.0
C827 C 1.00492 0.89579 0.0349 0.0
H828 H 0.25809 0.12273 0.96431 0.0
H829 H 0.22849 0.21196 0.99655 0.0
H830 H 0.2742 0.17326 0.98408 0.0
H831 H 0.24454 0.26449 0.01545 0.0
H832 H 0.27585 0.32167 0.06294 0.0
H833 H 0.25976 0.26972 0.04409 0.0
H834 H 0.28458 0.25154 0.98519 0.0
H835 H 0.30094 0.30146 1.00478 0.0
C836 C 0.25502 0.15331 0.97562 0.0
C837 C 0.24199 0.1631 0.97894 0.0
C838 C 0.26428 0.18281 0.98681 0.0
C839 C 0.2608 0.22361 1.00138 0.0
C840 C 0.2477 0.23306 1.00476 0.0
C841 C 0.23844 0.20298 0.99383 0.0
C842 C 0.27785 0.30678 0.04591 0.0
C843 C 0.2897 0.31582 0.03538 0.0
C844 C 0.26856 0.27704 0.03497 0.0
C845 C 0.27074 0.25598 0.01297 0.0
C846 C 0.28255 0.26596 1.00228 0.0
C847 C 0.29193 0.29512 0.01341 0.0
H848 H 0.97911 0.76699 0.75005 0.0
H849 H 1.00853 0.84595 0.71234 0.0
H850 H 0.99506 0.71324 0.76829 0.0
H851 H 0.02469 0.79455 0.73164 0.0
H852 H 0.05081 0.66525 0.75333 0.0
H853 H 0.03445 0.71583 0.73404 0.0
H854 H 1.01085 0.70584 0.79499 0.0
H855 H 0.02683 0.65285 0.81341 0.0
C856 C 0.98904 0.77366 0.74606 0.0
C857 C 0.99254 0.81092 0.72981 0.0
C858 C 0.99827 0.74282 0.75661 0.0
C859 C 1.01132 0.74899 0.75158 0.0
C860 C 1.01479 0.78741 0.73569 0.0
C861 C 1.00552 0.81753 0.72479 0.0
C862 C 0.04203 0.6733 0.7624 0.0
C863 C 0.0401 0.65457 0.78482 0.0
C864 C 0.03266 0.70297 0.75146 0.0
C865 C 0.0212 0.71567 0.76285 0.0
C866 C 0.01933 0.6964 0.78528 0.0
C867 C 0.02856 0.66596 0.79598 0.0
H868 H 0.72952 0.02001 0.7643 0.0
H869 H 0.75924 0.1061 0.79784 0.0
H870 H 0.74552 0.96751 0.74511 0.0
H871 H 0.77527 0.05548 0.77793 0.0
H872 H 0.80148 0.9255 0.75837 0.0
H873 H 0.78492 0.97513 0.77751 0.0
H874 H 0.76129 0.96281 0.71678 0.0
H875 H 0.77763 0.91124 0.69819 0.0
C876 C 0.73948 0.02836 0.76723 0.0
C877 C 0.74309 0.06724 0.78261 0.0
C878 C 0.74871 -0.00173 0.75618 0.0
C879 C 0.7618 0.00665 0.76001 0.0
C880 C 0.76534 0.04673 0.77491 0.0
C881 C 0.75613 0.0763 0.78616 0.0
C882 C 0.79269 0.93298 0.74922 0.0
C883 C 0.79088 0.91427 0.72677 0.0
C884 C 0.78321 0.962 0.7601 0.0
C885 C 0.77171 0.97377 0.74871 0.0
C886 C 0.76988 0.95423 0.72633 0.0
C887 C 0.7793 0.92469 0.71558 0.0
H888 H 0.72841 0.70595 1.00237 0.0
H889 H 0.75641 0.62542 0.96187 0.0
H890 H 0.74519 0.75623 0.02021 0.0
H891 H 0.77336 0.67358 0.98059 0.0
H892 H 0.80053 0.80195 1.00158 0.0
H893 H 0.78367 0.75219 0.98305 0.0
H894 H 0.76167 0.75815 0.046 0.0
H895 H 0.77806 0.80984 0.06373 0.0
C896 C 0.7382 0.69814 0.99767 0.0
C897 C 0.74105 0.66149 0.98076 0.0
C898 C 0.7479 0.72699 0.00796 0.0
C899 C 0.76079 0.71943 1.00196 0.0
C900 C 0.76362 0.68161 0.98542 0.0
C901 C 0.75388 0.65338 0.97485 0.0
C902 C 0.79201 0.79297 0.01129 0.0
C903 C 0.79061 0.8104 0.03405 0.0
C904 C 0.78236 0.76391 1.00078 0.0
C905 C 0.77115 0.75081 0.0129 0.0
C906 C 0.7699 0.76816 0.03575 0.0
C907 C 0.7794 0.79779 0.04604 0.0
H908 H 0.25727 0.58886 0.80635 0.0
H909 H 0.22958 0.5241 0.75991 0.0
H910 H 0.27419 0.54258 0.78659 0.0
H911 H 0.24631 0.47553 0.74085 0.0
H912 H 0.28016 0.4294 0.69708 0.0
H913 H 0.2635 0.4776 0.71625 0.0
H914 H 0.28374 0.46351 0.78082 0.0
H915 H 0.3008 0.41744 0.76111 0.0
C916 C 0.25479 0.56461 0.7919 0.0
C917 C 0.24207 0.56048 0.78463 0.0
C918 C 0.2645 0.53747 0.78067 0.0
C919 C 0.26175 0.50468 0.76205 0.0
C920 C 0.24897 0.50089 0.75477 0.0
C921 C 0.2393 0.5287 0.76578 0.0
C922 C 0.28104 0.43636 0.71541 0.0
C923 C 0.29183 0.41939 0.72755 0.0
C924 C 0.2714 0.46393 0.72652 0.0
C925 C 0.27212 0.4748 0.75025 0.0
C926 C 0.28287 0.457 0.76248 0.0
C927 C 0.29263 0.43004 0.75123 0.0
H928 H 0.02393 0.59891 0.46268 0.0
H929 H 0.05313 0.51748 0.49986 0.0
H930 H 1.00761 0.54881 0.48218 0.0
H931 H 0.03698 0.46487 0.51829 0.0
H932 H 1.00511 0.40662 0.56377 0.0
H933 H 0.02127 0.4585 0.54521 0.0
H934 H 0.99741 0.47131 0.48471 0.0
H935 H 0.98088 0.42197 0.50419 0.0
C936 C 0.02685 0.57013 0.47503 0.0
C937 C 0.03981 0.56246 0.47986 0.0
C938 C 0.01748 0.54078 0.48606 0.0
C939 C 0.02082 0.50204 0.50187 0.0
C940 C 0.03387 0.49473 0.50667 0.0
C941 C 0.0432 0.52487 0.49601 0.0
C942 C 1.00335 0.42019 0.54642 0.0
C943 C 0.99171 0.40996 0.53543 0.0
C944 C 1.01269 0.44996 0.53564 0.0
C945 C 1.01081 0.4696 0.51328 0.0
C946 C 0.99922 0.45814 0.50209 0.0
C947 C 0.98975 0.42922 0.51313 0.0
H948 H 0.23103 0.67021 0.51014 0.0
H949 H 0.25505 0.65626 0.45014 0.0
H950 H 0.2476 0.71901 0.5296 0.0
H951 H 0.27142 0.70701 0.46908 0.0
H952 H 0.303 0.76615 0.5166 0.0
H953 H 0.28716 0.71235 0.49758 0.0
H954 H 0.25711 0.79954 0.52999 0.0
H955 H 0.27294 0.85141 0.54963 0.0
C956 C 0.23987 0.6775 0.50111 0.0
C957 C 0.24169 0.65922 0.47859 0.0
C958 C 0.24937 0.70606 0.51218 0.0
C959 C 0.26091 0.71782 0.50092 0.0
C960 C 0.2628 0.69846 0.47852 0.0
C961 C 0.25335 0.66939 0.46757 0.0
C962 C 0.293 0.77393 0.51951 0.0
C963 C 0.28925 0.81306 0.53466 0.0
C964 C 0.28388 0.74311 0.50856 0.0
C965 C 0.27075 0.75097 0.51229 0.0
C966 C 0.26707 0.79113 0.52704 0.0
C967 C 0.27617 0.82142 0.53816 0.0
H968 H 0.80164 0.41999 0.26027 0.0
H969 H 0.77842 0.41283 0.19904 0.0
H970 H 0.78508 0.46958 0.27959 0.0
H971 H 0.76222 0.46448 0.21767 0.0
H972 H 0.73002 0.52223 0.26334 0.0
H973 H 0.74607 0.46937 0.24453 0.0
H974 H 0.77562 0.54959 0.28174 0.0
H975 H 0.75947 0.60023 0.30132 0.0
C976 C 0.79299 0.429 0.25094 0.0
C977 C 0.79135 0.41216 0.22816 0.0
C978 C 0.78352 0.45802 0.26192 0.0
C979 C 0.77222 0.47176 0.25026 0.0
C980 C 0.7706 0.45426 0.2275 0.0
C981 C 0.77997 0.42464 0.21671 0.0
C982 C 0.73996 0.52883 0.2673 0.0
C983 C 0.74346 0.5655 0.2838 0.0
C984 C 0.74923 0.49851 0.25647 0.0
C985 C 0.76227 0.50459 0.26159 0.0
C986 C 0.76572 0.54253 0.27766 0.0
C987 C 0.75645 0.57218 0.28873 0.0
H988 H 0.77725 0.31168 0.56179 0.0
H989 H 0.80001 0.31004 0.49987 0.0
H990 H 0.76101 0.26134 0.54281 0.0
H991 H 0.78333 0.26147 0.48017 0.0
H992 H 0.75641 0.13236 0.45796 0.0
H993 H 0.77323 0.18161 0.47675 0.0
H994 H 0.74476 0.26282 0.51625 0.0
H995 H 0.72817 0.21185 0.49838 0.0
C996 C 0.77869 0.30134 0.5439 0.0
C997 C 0.78992 0.31523 0.53233 0.0
C998 C 0.76929 0.2725 0.53289 0.0
C999 C 0.77069 0.25726 0.50977 0.0
C1000 C 0.78191 0.27169 0.49806 0.0
C1001 C 0.79145 0.30004 0.50926 0.0
C1002 C 0.7538 0.16043 0.47085 0.0
C1003 C 0.74095 0.16777 0.47684 0.0
C1004 C 0.76344 0.18916 0.48148 0.0
C1005 C 0.76047 0.22649 0.49817 0.0
C1006 C 0.74756 0.23382 0.50395 0.0
C1007 C 0.73798 0.20463 0.49359 0.0
H1008 H 0.48014 0.27439 0.75328 0.0
H1009 H 0.5092 0.36332 0.7193 0.0
H1010 H 0.49646 0.22337 0.77215 0.0
H1011 H 0.52562 0.31418 0.73906 0.0
H1012 H 0.55252 0.18476 0.75781 0.0
H1013 H 0.5359 0.23556 0.73944 0.0
H1014 H 0.51219 0.21716 0.79981 0.0
H1015 H 0.52855 0.16432 0.81749 0.0
C1016 C 0.49004 0.28392 0.75029 0.0
C1017 C 0.49334 0.32308 0.7348 0.0
C1018 C 0.49946 0.25458 0.76117 0.0
C1019 C 0.5125 0.26398 0.75714 0.0
C1020 C 0.51575 0.30461 0.74227 0.0
C1021 C 0.50631 0.33342 0.73112 0.0
C1022 C 0.54369 0.19115 0.76702 0.0
C1023 C 0.54185 0.17012 0.78905 0.0
C1024 C 0.53417 0.22091 0.7566 0.0
C1025 C 0.5226 0.23121 0.76808 0.0
C1026 C 0.5208 0.2097 0.79012 0.0
C1027 C 0.53024 0.17936 0.80036 0.0
H1028 H 0.50271 0.90729 0.56444 0.0
H1029 H 0.4779 0.92499 0.50579 0.0
H1030 H 0.5188 0.95874 0.54558 0.0
H1031 H 0.49439 0.97392 0.48592 0.0
H1032 H 0.52149 0.0999 0.4632 0.0
H1033 H 0.50504 0.05039 0.48277 0.0
H1034 H 0.53426 0.9649 0.51855 0.0
H1035 H 0.55048 0.0168 0.50015 0.0
C1036 C 0.50081 0.92119 0.54719 0.0
C1037 C 0.48902 0.91168 0.53659 0.0
C1038 C 0.51012 0.95076 0.53622 0.0
C1039 C 0.50809 0.97094 0.51399 0.0
C1040 C 0.49634 0.96027 0.50316 0.0
C1041 C 0.48689 0.93155 0.51443 0.0
C1042 C 0.52434 0.07098 0.47553 0.0
C1043 C 0.5373 0.06275 0.48029 0.0
C1044 C 0.5149 0.04193 0.48659 0.0
C1045 C 0.51815 0.00297 0.50238 0.0
C1046 C 0.53119 -0.00498 0.50703 0.0
C1047 C 0.54058 0.02481 0.49637 0.0
H1048 H 0.50807 0.81422 0.20112 0.0
H1049 H 0.48435 0.79811 0.26142 0.0
H1050 H 0.52439 0.76185 0.21915 0.0
H1051 H 0.50093 0.74735 0.28002 0.0
H1052 H 0.52752 0.61768 0.2997 0.0
H1053 H 0.51108 0.66732 0.28023 0.0
H1054 H 0.54019 0.75867 0.24736 0.0
H1055 H 0.55656 0.7075 0.26611 0.0
C1056 C 0.50641 0.80009 0.21841 0.0
C1057 C 0.49488 0.81053 0.22983 0.0
C1058 C 0.51583 0.77008 0.22885 0.0
C1059 C 0.51409 0.74997 0.25115 0.0
C1060 C 0.5026 0.76114 0.26269 0.0
C1061 C 0.4931 0.79077 0.25212 0.0
C1062 C 0.5304 0.64795 0.28807 0.0
C1063 C 0.54338 0.65838 0.2844 0.0
C1064 C 0.52095 0.67694 0.27707 0.0
C1065 C 0.5242 0.71764 0.26226 0.0
C1066 C 0.53722 0.72736 0.25832 0.0
C1067 C 0.54667 0.69799 0.26914 0.0
H1068 H 0.48092 0.42684 1.0066 0.0
H1069 H 0.50428 0.41687 0.06757 0.0
H1070 H 0.49745 0.477 0.98753 0.0
H1071 H 0.52054 0.46879 0.04908 0.0
H1072 H 0.55268 0.52474 1.00216 0.0
H1073 H 0.53657 0.47284 0.02139 0.0
H1074 H 0.507 0.55771 0.98641 0.0
H1075 H 0.52316 0.6078 0.96652 0.0
C1076 C 0.48959 0.43536 0.01594 0.0
C1077 C 0.49127 0.41761 0.03859 0.0
C1078 C 0.49905 0.46468 1.0051 0.0
C1079 C 0.51041 0.47765 0.01672 0.0
C1080 C 0.51209 0.45924 0.03932 0.0
C1081 C 0.5027 0.42948 0.05003 0.0
C1082 C 0.54273 0.53271 0.99882 0.0
C1083 C 0.53923 0.57055 0.98283 0.0
C1084 C 0.53344 0.50289 0.00988 0.0
C1085 C 0.52037 0.51046 1.00543 0.0
C1086 C 0.51691 0.54961 0.98996 0.0
C1087 C 0.5262 0.57894 0.97872 0.0
H1088 H 0.07802 0.50091 0.36909 0.0
H1089 H 0.05922 0.46508 0.4335 0.0
H1090 H 0.07574 0.41303 0.35687 0.0
H1091 H 0.05673 0.37647 0.42086 0.0
H1092 H 0.07384 0.21748 0.40122 0.0
H1093 H 0.07144 0.30513 0.41408 0.0
H1094 H 0.05984 0.34992 0.34552 0.0
H1095 H 0.06253 0.26214 0.33234 0.0
C1096 C 0.07328 0.47437 0.38057 0.0
C1097 C 0.06886 0.48983 0.40233 0.0
C1098 C 0.07186 0.42409 0.37343 0.0
C1099 C 0.06595 0.38819 0.38783 0.0
C1100 C 0.06138 0.40354 0.4095 0.0
C1101 C 0.06284 0.45407 0.41673 0.0
C1102 C 0.07069 0.24584 0.38887 0.0
C1103 C 0.06864 0.23311 0.36562 0.0
C1104 C 0.06918 0.29596 0.39634 0.0
C1105 C 0.06556 0.33421 0.38074 0.0
C1106 C 0.06285 0.3211 0.35779 0.0
C1107 C 0.0644 0.27094 0.35026 0.0
H1108 H 0.21231 0.77212 0.43258 0.0
H1109 H 0.2241 0.71008 0.36693 0.0
H1110 H 0.21649 0.85812 0.41847 0.0
H1111 H 0.22882 0.79583 0.35309 0.0
H1112 H 0.22873 0.00786 0.39271 0.0
H1113 H 0.2315 0.92016 0.40585 0.0
H1114 H 0.21567 0.86534 0.34162 0.0
H1115 H 0.21346 0.95304 0.32816 0.0
C1116 C 0.21605 0.77691 0.41531 0.0
C1117 C 0.21762 0.73483 0.40066 0.0
C1118 C 0.21856 0.82607 0.40726 0.0
C1119 C 0.22287 0.83373 0.38455 0.0
C1120 C 0.22523 0.79118 0.37047 0.0
C1121 C 0.22253 0.74218 0.37839 0.0
C1122 C 0.22605 0.97689 0.3813 0.0
C1123 C 0.22066 0.98688 0.35963 0.0
C1124 C 0.2276 0.9268 0.38883 0.0
C1125 C 0.22359 0.88593 0.37497 0.0
C1126 C 0.21896 0.89598 0.35266 0.0
C1127 C 0.2176 0.94616 0.34497 0.0
H1128 H 0.07642 0.00049 0.86356 0.0
H1129 H 0.0546 0.97336 0.92558 0.0
H1130 H 0.07254 0.91298 0.85132 0.0
H1131 H 0.05032 0.8863 0.91291 0.0
H1132 H 0.0649 0.7224 0.90044 0.0
H1133 H 0.06331 0.81184 0.91033 0.0
H1134 H 0.05735 0.84987 0.83861 0.0
H1135 H 0.05937 0.75969 0.82845 0.0
C1136 C 0.07062 0.97603 0.87438 0.0
C1137 C 0.066 -0.00666 0.89569 0.0
C1138 C 0.06829 0.92606 0.86726 0.0
C1139 C 0.06117 0.89272 0.8812 0.0
C1140 C 0.05603 0.91089 0.902 0.0
C1141 C 0.0585 0.96065 0.90927 0.0
C1142 C 0.06309 0.74958 0.88673 0.0
C1143 C 0.0625 0.73399 0.86358 0.0
C1144 C 0.06206 0.80097 0.89246 0.0
C1145 C 0.06029 0.83795 0.87523 0.0
C1146 C 0.05893 0.82219 0.85221 0.0
C1147 C 0.06004 0.77059 0.84641 0.0
H1148 H 0.22137 0.4563 0.82638 0.0
H1149 H 0.19994 0.48171 0.88908 0.0
H1150 H 0.22476 0.36714 0.83783 0.0
H1151 H 0.20327 0.39356 0.90018 0.0
H1152 H 0.2217 0.2534 0.9266 0.0
H1153 H 0.22178 0.34096 0.91244 0.0
H1154 H 0.21156 0.28769 0.84447 0.0
H1155 H 0.21166 0.19988 0.85839 0.0
C1156 C 0.21731 0.44284 0.84244 0.0
C1157 C 0.21048 0.47608 0.85692 0.0
C1158 C 0.21929 0.39203 0.84898 0.0
C1159 C 0.21449 0.37406 0.87008 0.0
C1160 C 0.20737 0.40692 0.88414 0.0
C1161 C 0.20539 0.45734 0.87765 0.0
C1162 C 0.21961 0.26019 0.90858 0.0
C1163 C 0.21642 0.2198 0.89374 0.0
C1164 C 0.21965 0.31028 0.9005 0.0
C1165 C 0.21647 0.32085 0.87749 0.0
C1166 C 0.21406 0.2804 0.86228 0.0
C1167 C 0.21403 0.23021 0.87034 0.0
H1168 H 0.97694 0.7159 0.68353 0.0
H1169 H 0.9562 0.73982 0.62002 0.0
H1170 H 0.9819 0.62864 0.67138 0.0
H1171 H 0.96086 0.65311 0.60828 0.0
H1172 H 0.97552 0.50752 0.58388 0.0
H1173 H 0.97774 0.59608 0.59627 0.0
H1174 H 0.96959 0.55105 0.66643 0.0
H1175 H 0.96778 0.46279 0.65434 0.0
C1176 C 0.9734 0.70246 0.66708 0.0
C1177 C 0.96614 0.73446 0.65276 0.0
C1178 C 0.97629 0.65276 0.66009 0.0
C1179 C 0.97189 0.63439 0.63878 0.0
C1180 C 0.96469 0.66662 0.62451 0.0
C1181 C 0.96188 0.71614 0.63138 0.0
C1182 C 0.97444 0.51644 0.60201 0.0
C1183 C 0.97113 0.47848 0.61803 0.0
C1184 C 0.9757 0.56706 0.60908 0.0
C1185 C 0.97358 0.58043 0.63222 0.0
C1186 C 0.97132 0.54187 0.64851 0.0
C1187 C 0.97016 0.49128 0.64149 0.0
H1188 H 0.82178 0.02069 0.68102 0.0
H1189 H 0.81173 0.96122 0.61396 0.0
H1190 H 0.81903 0.10739 0.6667 0.0
H1191 H 0.80844 0.04784 0.59985 0.0
H1192 H 0.82393 0.20594 0.57698 0.0
H1193 H 0.82198 0.11763 0.59003 0.0
H1194 H 0.80443 0.16992 0.65325 0.0
H1195 H 0.80695 0.25799 0.64061 0.0
C1196 C 0.81875 0.02622 0.66336 0.0
C1197 C 0.81717 0.98452 0.64848 0.0
C1198 C 0.81707 0.07581 0.65516 0.0
C1199 C 0.81359 0.08439 0.63207 0.0
C1200 C 0.81139 0.04243 0.61757 0.0
C1201 C 0.81324 -0.00708 0.62566 0.0
C1202 C 0.81952 0.19828 0.59351 0.0
C1203 C 0.81583 0.2384 0.60803 0.0
C1204 C 0.81832 0.14782 0.60095 0.0
C1205 C 0.81321 0.13694 0.62284 0.0
C1206 C 0.80872 0.1772 0.63659 0.0
C1207 C 0.81012 0.22751 0.62934 0.0
H1208 H 0.97526 0.27414 0.11266 0.0
H1209 H 0.96768 0.21423 0.18076 0.0
H1210 H 0.97948 0.18793 0.09878 0.0
H1211 H 0.97138 0.12813 0.16674 0.0
H1212 H 0.98361 0.97869 0.14161 0.0
H1213 H 0.98635 0.06785 0.1526 0.0
H1214 H 0.96679 0.11484 0.0905 0.0
H1215 H 0.96462 0.02577 0.07908 0.0
C1216 C 0.9745 0.24254 0.12466 0.0
C1217 C 0.97099 0.25077 0.14774 0.0
C1218 C 0.97691 0.19321 0.1167 0.0
C1219 C 0.97572 0.15118 0.1316 0.0
C1220 C 0.97262 0.15971 0.15487 0.0
C1221 C 0.97036 0.20905 0.16289 0.0
C1222 C 0.98015 0.00824 0.13012 0.0
C1223 C 0.9737 -0.00442 0.10973 0.0
C1224 C 0.98165 0.05921 0.13645 0.0
C1225 C 0.97654 0.09832 0.12269 0.0
C1226 C 0.97092 0.08566 0.10144 0.0
C1227 C 0.9696 0.03463 0.09493 0.0
H1228 H 0.80841 0.46749 0.11811 0.0
H1229 H 0.82265 0.5229 0.18335 0.0
H1230 H 0.80492 0.55502 0.10536 0.0
H1231 H 0.81971 0.61057 0.17028 0.0
H1232 H 0.80855 0.76451 0.14589 0.0
H1233 H 0.80545 0.67713 0.15916 0.0
H1234 H 0.81921 0.62077 0.09363 0.0
H1235 H 0.82179 0.70815 0.08008 0.0
C1236 C 0.81077 0.49853 0.12971 0.0
C1237 C 0.81602 0.48882 0.15151 0.0
C1238 C 0.80879 0.54852 0.12241 0.0
C1239 C 0.81223 0.58958 0.13666 0.0
C1240 C 0.81685 0.5797 0.15897 0.0
C1241 C 0.81863 0.52959 0.16642 0.0
C1242 C 0.81079 0.73334 0.13428 0.0
C1243 C 0.81561 0.7428 0.11211 0.0
C1244 C 0.80903 0.68342 0.14188 0.0
C1245 C 0.81222 0.64218 0.12755 0.0
C1246 C 0.81651 0.65178 0.105 0.0
C1247 C 0.81809 0.70175 0.09727 0.0
H1248 H 0.57471 0.22759 0.9024 0.0
H1249 H 0.55338 0.24992 0.83948 0.0
H1250 H 0.56882 0.31271 0.91515 0.0
H1251 H 0.54698 0.33452 0.8527 0.0
H1252 H 0.56094 0.49974 0.86489 0.0
H1253 H 0.55906 0.41056 0.85534 0.0
H1254 H 0.55321 0.37383 0.92726 0.0
H1255 H 0.55562 0.46411 0.93711 0.0
C1256 C 0.56857 0.25046 0.89149 0.0
C1257 C 0.56478 0.23294 0.86971 0.0
C1258 C 0.56504 0.29895 0.89894 0.0
C1259 C 0.55751 0.33045 0.88485 0.0
C1260 C 0.553 0.31142 0.86372 0.0
C1261 C 0.55671 0.26322 0.8561 0.0
C1262 C 0.55906 0.47297 0.87873 0.0
C1263 C 0.55874 0.48883 0.90184 0.0
C1264 C 0.55781 0.42167 0.87317 0.0
C1265 C 0.55608 0.38507 0.89057 0.0
C1266 C 0.55477 0.40124 0.91355 0.0
C1267 C 0.55614 0.45282 0.91918 0.0
H1268 H 0.72705 0.72532 0.87275 0.0
H1269 H 0.71025 0.77901 0.93624 0.0
H1270 H 0.73138 0.81306 0.86126 0.0
H1271 H 0.71396 0.86713 0.92429 0.0
H1272 H 0.72589 0.02244 0.90164 0.0
H1273 H 0.72826 0.9349 0.91535 0.0
H1274 H 0.71792 0.87889 0.84776 0.0
H1275 H 0.71609 0.96606 0.83389 0.0
C1276 C 0.72431 0.75607 0.88424 0.0
C1277 C 0.71809 0.74579 0.90513 0.0
C1278 C 0.72676 0.80623 0.87766 0.0
C1279 C 0.72279 0.84705 0.89163 0.0
C1280 C 0.71723 0.83654 0.91319 0.0
C1281 C 0.715 0.78617 0.91999 0.0
C1282 C 0.72427 -0.00869 0.88968 0.0
C1283 C 0.72065 0.00092 0.86678 0.0
C1284 C 0.7256 0.94125 0.89755 0.0
C1285 C 0.72318 0.89998 0.88272 0.0
C1286 C 0.72006 0.90977 0.85957 0.0
C1287 C 0.7189 0.95977 0.85163 0.0
H1288 H 0.56443 0.7117 0.40568 0.0
H1289 H 0.55612 0.75324 0.33507 0.0
H1290 H 0.56136 0.79968 0.41744 0.0
H1291 H 0.5526 0.84134 0.3471 0.0
H1292 H 0.57285 0.98867 0.36994 0.0
H1293 H 0.56876 0.90148 0.35858 0.0
H1294 H 0.54829 0.87541 0.42218 0.0
H1295 H 0.5527 0.96347 0.43399 0.0
C1296 C 0.56164 0.73937 0.39274 0.0
C1297 C 0.5609 0.72594 0.36933 0.0
C1298 C 0.55974 0.78976 0.39956 0.0
C1299 C 0.55696 0.82743 0.38311 0.0
C1300 C 0.55503 0.8131 0.36004 0.0
C1301 C 0.55706 0.76276 0.35316 0.0
C1302 C 0.56737 0.96466 0.38148 0.0
C1303 C 0.56316 0.98276 0.40294 0.0
C1304 C 0.56489 0.91476 0.37481 0.0
C1305 C 0.55806 0.88185 0.38936 0.0
C1306 C 0.55361 0.90007 0.41067 0.0
C1307 C 0.55617 0.95023 0.41746 0.0
H1308 H 0.70313 0.22223 0.36534 0.0
H1309 H 0.72556 0.2533 0.42626 0.0
H1310 H 0.70667 0.30916 0.352 0.0
H1311 H 0.72944 0.33991 0.41249 0.0
H1312 H 0.71426 0.50187 0.39905 0.0
H1313 H 0.71554 0.41277 0.40956 0.0
H1314 H 0.72203 0.3722 0.3383 0.0
H1315 H 0.7204 0.46226 0.32746 0.0
C1316 C 0.70897 0.24743 0.37571 0.0
C1317 C 0.71388 0.23143 0.39703 0.0
C1318 C 0.71111 0.29702 0.36794 0.0
C1319 C 0.71828 0.33125 0.38127 0.0
C1320 C 0.7237 0.31445 0.40207 0.0
C1321 C 0.72145 0.26502 0.40997 0.0
C1322 C 0.71604 0.47422 0.38554 0.0
C1323 C 0.71705 0.48912 0.36234 0.0
C1324 C 0.71692 0.42307 0.39165 0.0
C1325 C 0.7189 0.38562 0.37475 0.0
C1326 C 0.72037 0.40043 0.35162 0.0
C1327 C 0.71945 0.45187 0.34545 0.0
H1328 H 0.46817 0.51817 0.08099 0.0
H1329 H 0.45779 0.47634 0.15073 0.0
H1330 H 0.47116 0.60649 0.09344 0.0
H1331 H 0.46052 0.56412 0.16282 0.0
H1332 H 0.47465 0.71921 0.18226 0.0
H1333 H 0.47631 0.63135 0.16847 0.0
H1334 H 0.4564 0.67344 0.1061 0.0
H1335 H 0.45497 0.76104 0.11948 0.0
C1336 C 0.46653 0.52773 0.09891 0.0
C1337 C 0.46259 0.49042 0.11481 0.0
C1338 C 0.46826 0.57816 0.10601 0.0
C1339 C 0.46607 0.59192 0.12907 0.0
C1340 C 0.46246 0.5544 0.14502 0.0
C1341 C 0.46076 0.50416 0.13798 0.0
C1342 C 0.47067 0.70967 0.16558 0.0
C1343 C 0.46456 0.74681 0.15206 0.0
C1344 C 0.47166 0.65953 0.15769 0.0
C1345 C 0.46648 0.6458 0.13626 0.0
C1346 C 0.46066 0.68321 0.12252 0.0
C1347 C 0.45974 0.73327 0.13032 0.0
H1348 H 0.31385 0.0199 0.18587 0.0
H1349 H 0.33344 -0.0071 0.12136 0.0
H1350 H 0.30974 0.10815 0.17402 0.0
H1351 H 0.32946 0.08042 0.10988 0.0
H1352 H 0.3113 0.22295 0.08521 0.0
H1353 H 0.31134 0.13497 0.09892 0.0
H1354 H 0.32254 0.18652 0.16666 0.0
H1355 H 0.32228 0.27455 0.15324 0.0
C1356 C 0.31734 0.03279 0.16929 0.0
C1357 C 0.32396 -0.00057 0.15454 0.0
C1358 C 0.31495 0.08314 0.16252 0.0
C1359 C 0.31914 0.10069 0.14092 0.0
C1360 C 0.32586 0.06749 0.12637 0.0
C1361 C 0.32823 0.01744 0.13309 0.0
C1362 C 0.31363 0.21564 0.10309 0.0
C1363 C 0.31703 0.25564 0.11801 0.0
C1364 C 0.31367 0.1653 0.11091 0.0
C1365 C 0.31712 0.1541 0.13374 0.0
C1366 C 0.31979 0.1942 0.14901 0.0
C1367 C 0.31973 0.24457 0.14122 0.0
H1368 H 0.48559 0.25608 0.62247 0.0
H1369 H 0.46972 0.204 0.68707 0.0
H1370 H 0.48927 0.16779 0.61091 0.0
H1371 H 0.47294 0.11587 0.67523 0.0
H1372 H 0.46798 0.02134 0.58593 0.0
H1373 H 0.4737 0.10655 0.59881 0.0
H1374 H 0.48605 0.04486 0.66426 0.0
H1375 H 0.47991 0.9596 0.65162 0.0
C1376 C 0.48306 0.22571 0.63432 0.0
C1377 C 0.47708 0.23662 0.6554 0.0
C1378 C 0.48515 0.17526 0.62769 0.0
C1379 C 0.48115 0.13494 0.64192 0.0
C1380 C 0.47621 0.14606 0.6639 0.0
C1381 C 0.47427 0.19658 0.67065 0.0
C1382 C 0.47211 0.02583 0.60292 0.0
C1383 C 0.47318 0.98413 0.618 0.0
C1384 C 0.47552 0.07464 0.61025 0.0
C1385 C 0.4802 0.08245 0.63268 0.0
C1386 C 0.48222 0.04007 0.64706 0.0
C1387 C 0.47869 -0.00866 0.63982 0.0
H1388 H 0.31253 0.52111 0.68734 0.0
H1389 H 0.33422 0.49896 0.62471 0.0
H1390 H 0.30843 0.60983 0.67606 0.0
H1391 H 0.33022 0.58687 0.61376 0.0
H1392 H 0.3103 0.72466 0.58752 0.0
H1393 H 0.31143 0.63694 0.60137 0.0
H1394 H 0.32055 0.69126 0.66968 0.0
H1395 H 0.31923 0.77912 0.65609 0.0
C1396 C 0.31653 0.53527 0.67136 0.0
C1397 C 0.32362 0.50302 0.65683 0.0
C1398 C 0.31415 0.58585 0.6649 0.0
C1399 C 0.31881 0.60464 0.64385 0.0
C1400 C 0.32623 0.57285 0.62977 0.0
C1401 C 0.3286 0.52261 0.63617 0.0
C1402 C 0.31241 0.71802 0.60555 0.0
C1403 C 0.31491 0.75883 0.6206 0.0
C1404 C 0.31308 0.66783 0.61345 0.0
C1405 C 0.31628 0.65756 0.63648 0.0
C1406 C 0.31804 0.69825 0.65185 0.0
C1407 C 0.31736 0.74851 0.64398 0.0
H1408 H 0.06523 0.80233 0.44373 0.0
H1409 H 0.0596 0.71096 0.38253 0.0
H1410 H 0.06605 0.8795 0.41954 0.0
H1411 H 0.06085 0.78633 0.35874 0.0
H1412 H 0.05262 0.93906 0.32338 0.0
H1413 H 0.05035 0.86265 0.3475 0.0
H1414 H 0.0804 0.91753 0.39198 0.0
H1415 H 0.08233 -0.00635 0.36837 0.0
C1416 C 0.06408 0.79879 0.42525 0.0
C1417 C 0.06245 0.75066 0.41507 0.0
C1418 C 0.06466 0.84271 0.41135 0.0
C1419 C 0.06358 0.83899 0.38713 0.0
C1420 C 0.06157 0.79087 0.37724 0.0
C1421 C 0.06097 0.74747 0.391 0.0
C1422 C 0.0589 0.93396 0.33801 0.0
C1423 C 0.06764 0.9721 0.34402 0.0
C1424 C 0.05755 0.89055 0.35197 0.0
C1425 C 0.06504 0.88448 0.37199 0.0
C1426 C 0.07421 0.92166 0.37717 0.0
C1427 C 0.07544 0.965 0.36342 0.0
H1428 H 0.22458 0.43098 0.44254 0.0
H1429 H 0.20388 0.50566 0.38779 0.0
H1430 H 0.22578 0.35321 0.41912 0.0
H1431 H 0.20466 0.42846 0.3649 0.0
H1432 H 0.22032 0.30035 0.31925 0.0
H1433 H 0.21921 0.37815 0.34284 0.0
H1434 H 0.21347 0.28568 0.40373 0.0
H1435 H 0.21511 0.20937 0.38073 0.0
C1436 C 0.22006 0.43041 0.42577 0.0
C1437 C 0.21418 0.4744 0.41702 0.0
C1438 C 0.22076 0.38602 0.41227 0.0
C1439 C 0.21546 0.38478 0.38991 0.0
C1440 C 0.20915 0.42836 0.3817 0.0
C1441 C 0.20858 0.47257 0.39502 0.0
C1442 C 0.21882 0.29695 0.33765 0.0
C1443 C 0.21778 0.2487 0.34801 0.0
C1444 C 0.21813 0.34137 0.3512 0.0
C1445 C 0.21631 0.33816 0.37529 0.0
C1446 C 0.21514 0.28978 0.38541 0.0
C1447 C 0.21594 0.24583 0.37202 0.0
H1448 H 0.0562 0.42516 0.82463 0.0
H1449 H 0.08217 0.50005 0.87125 0.0
H1450 H 0.05656 0.34876 0.84931 0.0
H1451 H 0.08239 0.42519 0.89589 0.0
H1452 H 0.08707 0.26268 0.92563 0.0
H1453 H 0.08859 0.33644 0.89972 0.0
H1454 H 0.04803 0.32859 0.8877 0.0
H1455 H 0.0467 0.25429 0.91319 0.0
C1456 C 0.06221 0.42479 0.8398 0.0
C1457 C 0.06909 0.4685 0.84612 0.0
C1458 C 0.06228 0.38151 0.85412 0.0
C1459 C 0.06935 0.38126 0.8748 0.0
C1460 C 0.07686 0.42395 0.88016 0.0
C1461 C 0.07668 0.46704 0.86603 0.0
C1462 C 0.07847 0.27805 0.91803 0.0
C1463 C 0.06672 0.25416 0.92184 0.0
C1464 C 0.07933 0.31979 0.90298 0.0
C1465 C 0.06845 0.33796 0.89137 0.0
C1466 C 0.05663 0.31492 0.89597 0.0
C1467 C 0.0558 0.27322 0.91095 0.0
H1468 H 0.23674 0.98021 0.90281 0.0
H1469 H 0.20331 0.93301 0.94028 0.0
H1470 H 0.23571 0.90311 0.87936 0.0
H1471 H 0.20195 0.85583 0.91632 0.0
H1472 H 0.2117 0.70156 0.88299 0.0
H1473 H 0.21237 0.77624 0.90739 0.0
H1474 H 0.22252 0.86935 0.84865 0.0
H1475 H 0.22204 0.79325 0.82389 0.0
C1476 C 0.22933 0.95244 0.90632 0.0
C1477 C 0.22025 0.9617 0.92357 0.0
C1478 C 0.22858 0.90885 0.8926 0.0
C1479 C 0.21862 0.87377 0.89562 0.0
C1480 C 0.2098 0.882 0.91362 0.0
C1481 C 0.21063 0.92573 0.92753 0.0
C1482 C 0.21398 0.7379 0.87506 0.0
C1483 C 0.21687 0.74139 0.8514 0.0
C1484 C 0.2143 0.7809 0.88917 0.0
C1485 C 0.21755 0.82876 0.88008 0.0
C1486 C 0.22016 0.83274 0.85627 0.0
C1487 C 0.21981 0.78938 0.84203 0.0
H1488 H 0.9501 0.24502 0.61885 0.0
H1489 H 0.9773 0.18163 0.57107 0.0
H1490 H 0.95101 0.16763 0.64199 0.0
H1491 H 0.97853 0.10396 0.59457 0.0
H1492 H 0.96881 0.95577 0.63081 0.0
H1493 H 0.96697 0.03089 0.60704 0.0
H1494 H 0.96571 0.12562 0.66802 0.0
H1495 H 0.96713 0.04876 0.69232 0.0
C1496 C 0.95616 0.21406 0.61315 0.0
C1497 C 0.96361 0.21905 0.59317 0.0
C1498 C 0.95682 0.17 0.6266 0.0
C1499 C 0.96504 0.13003 0.62046 0.0
C1500 C 0.97205 0.13401 0.59977 0.0
C1501 C 0.97129 0.17816 0.58616 0.0
C1502 C 0.96812 -0.0075 0.63935 0.0
C1503 C 0.96805 -0.00375 0.66357 0.0
C1504 C 0.96719 0.03575 0.62557 0.0
C1505 C 0.96623 0.08432 0.63553 0.0
C1506 C 0.96629 0.08852 0.65981 0.0
C1507 C 0.9672 0.04473 0.67375 0.0
H1508 H 0.81367 0.45939 0.63105 0.0
H1509 H 0.81389 0.55213 0.56937 0.0
H1510 H 0.81472 0.53518 0.65468 0.0
H1511 H 0.81456 0.62932 0.59343 0.0
H1512 H 0.83067 0.74935 0.64163 0.0
H1513 H 0.82939 0.67242 0.61859 0.0
H1514 H 0.80281 0.60788 0.66748 0.0
H1515 H 0.80438 0.6855 0.69103 0.0
C1516 C 0.81387 0.49617 0.62246 0.0
C1517 C 0.8138 0.49976 0.59824 0.0
C1518 C 0.81434 0.53975 0.63614 0.0
C1519 C 0.81471 0.58833 0.62603 0.0
C1520 C 0.81444 0.59225 0.60176 0.0
C1521 C 0.81398 0.54824 0.58795 0.0
C1522 C 0.82464 0.71865 0.64765 0.0
C1523 C 0.81758 0.72346 0.66811 0.0
C1524 C 0.8238 0.67468 0.63424 0.0
C1525 C 0.8158 0.63441 0.64087 0.0
C1526 C 0.8091 0.63826 0.66189 0.0
C1527 C 0.81003 0.68243 0.67548 0.0
H1528 H 0.95105 0.53513 0.18844 0.0
H1529 H 0.98568 0.49604 0.15269 0.0
H1530 H 0.94863 0.61085 0.16375 0.0
H1531 H 0.98361 0.57184 0.1286 0.0
H1532 H 0.97075 0.67991 0.07304 0.0
H1533 H 0.97065 0.60288 0.09722 0.0
H1534 H 0.95777 0.69285 0.15517 0.0
H1535 H 0.95762 0.76841 0.13116 0.0
C1536 C 0.95836 0.54389 0.17587 0.0
C1537 C 0.96867 0.51066 0.17267 0.0
C1538 C 0.95693 0.58677 0.16154 0.0
C1539 C 0.96583 0.59697 0.14389 0.0
C1540 C 0.9764 0.5645 0.14152 0.0
C1541 C 0.97773 0.52167 0.15562 0.0
C1542 C 0.96766 0.68277 0.0908 0.0
C1543 C 0.96434 0.7303 0.10022 0.0
C1544 C 0.96773 0.6389 0.10475 0.0
C1545 C 0.96439 0.64185 0.12829 0.0
C1546 C 0.96037 0.68897 0.13719 0.0
C1547 C 0.96037 0.73255 0.12336 0.0
H1548 H 0.81286 0.26716 0.13102 0.0
H1549 H 0.8197 0.1774 0.19233 0.0
H1550 H 0.81249 0.19058 0.10789 0.0
H1551 H 0.81981 0.09957 0.1687 0.0
H1552 H 0.80458 0.97013 0.12459 0.0
H1553 H 0.80555 0.04728 0.1476 0.0
H1554 H 0.82505 0.12459 0.09192 0.0
H1555 H 0.82358 0.04682 0.0684 0.0
C1556 C 0.81443 0.23086 0.13959 0.0
C1557 C 0.8163 0.22825 0.16358 0.0
C1558 C 0.81432 0.18687 0.12617 0.0
C1559 C 0.8162 0.13884 0.1363 0.0
C1560 C 0.81818 0.13602 0.16036 0.0
C1561 C 0.81815 0.18043 0.17393 0.0
C1562 C 0.80898 0.00382 0.11716 0.0
C1563 C 0.81397 0.00278 0.09469 0.0
C1564 C 0.80968 0.04787 0.1305 0.0
C1565 C 0.81554 0.09201 0.12183 0.0
C1566 C 0.82036 0.09132 0.09909 0.0
C1567 C 0.8195 0.04704 0.08554 0.0
H1568 H 0.56684 0.80259 0.94278 0.0
H1569 H 0.56163 0.71278 0.88096 0.0
H1570 H 0.56866 0.87987 0.91888 0.0
H1571 H 0.56399 0.78803 0.85753 0.0
H1572 H 0.55497 0.94131 0.8232 0.0
H1573 H 0.55336 0.86343 0.84643 0.0
H1574 H 0.58271 0.9205 0.8919 0.0
H1575 H 0.58389 -0.00169 0.86924 0.0
C1576 C 0.56614 0.79931 0.92422 0.0
C1577 C 0.56414 0.75159 0.91385 0.0
C1578 C 0.56727 0.84333 0.91049 0.0
C1579 C 0.56645 0.84011 0.88622 0.0
C1580 C 0.56445 0.79226 0.87608 0.0
C1581 C 0.56324 0.74883 0.88966 0.0
C1582 C 0.56127 0.93638 0.83781 0.0
C1583 C 0.56955 0.97562 0.84441 0.0
C1584 C 0.56032 0.89205 0.85126 0.0
C1585 C 0.56777 0.88609 0.87133 0.0
C1586 C 0.57656 0.92438 0.87702 0.0
C1587 C 0.57737 0.96871 0.8638 0.0
H1588 H 0.70952 0.52111 0.88238 0.0
H1589 H 0.71857 0.43134 0.94272 0.0
H1590 H 0.71042 0.44554 0.85862 0.0
H1591 H 0.71917 0.35422 0.91867 0.0
H1592 H 0.73558 0.24361 0.8662 0.0
H1593 H 0.73312 0.31966 0.8899 0.0
H1594 H 0.70093 0.366 0.84839 0.0
H1595 H 0.70381 0.29004 0.82409 0.0
C1596 C 0.71151 0.48497 0.89071 0.0
C1597 C 0.71409 0.48234 0.91449 0.0
C1598 C 0.71194 0.44139 0.87698 0.0
C1599 C 0.71497 0.39379 0.88661 0.0
C1600 C 0.71703 0.39059 0.91062 0.0
C1601 C 0.71659 0.43454 0.92446 0.0
C1602 C 0.72817 0.27081 0.86186 0.0
C1603 C 0.72002 0.26177 0.84314 0.0
C1604 C 0.7266 0.31385 0.87569 0.0
C1605 C 0.71669 0.34853 0.87138 0.0
C1606 C 0.70873 0.34021 0.85213 0.0
C1607 C 0.71042 0.29715 0.83804 0.0
H1608 H 0.58346 0.49415 0.37092 0.0
H1609 H 0.55752 0.43044 0.32103 0.0
H1610 H 0.58207 0.41666 0.39394 0.0
H1611 H 0.55579 0.35276 0.34439 0.0
H1612 H 0.56399 0.20488 0.3814 0.0
H1613 H 0.56683 0.27971 0.35785 0.0
H1614 H 0.56689 0.37449 0.41885 0.0
H1615 H 0.5645 0.29779 0.44302 0.0
C1616 C 0.5776 0.46305 0.36472 0.0
C1617 C 0.57064 0.468 0.34417 0.0
C1618 C 0.57666 0.41895 0.37809 0.0
C1619 C 0.56863 0.37887 0.37132 0.0
C1620 C 0.56213 0.38282 0.35009 0.0
C1621 C 0.56319 0.427 0.33655 0.0
C1622 C 0.56465 0.24151 0.39003 0.0
C1623 C 0.56408 0.24527 0.41423 0.0
C1624 C 0.56617 0.28465 0.37634 0.0
C1625 C 0.56703 0.3332 0.38634 0.0
C1626 C 0.56639 0.33741 0.4106 0.0
C1627 C 0.56493 0.29371 0.42446 0.0
H1628 H 0.73042 0.94233 0.44155 0.0
H1629 H 0.69879 0.98997 0.39935 0.0
H1630 H 0.73302 0.86615 0.41748 0.0
H1631 H 0.70101 0.9137 0.37581 0.0
H1632 H 0.7167 0.80302 0.32248 0.0
H1633 H 0.71511 0.87945 0.34697 0.0
H1634 H 0.72366 0.7874 0.40691 0.0
H1635 H 0.72571 0.71288 0.38274 0.0
C1636 C 0.72377 0.93551 0.42764 0.0
C1637 C 0.71439 0.97169 0.42233 0.0
C1638 C 0.72529 0.89224 0.41368 0.0
C1639 C 0.71736 0.88432 0.39437 0.0
C1640 C 0.70753 0.91932 0.39003 0.0
C1641 C 0.70612 0.96262 0.40377 0.0
C1642 C 0.71843 0.79964 0.34081 0.0
C1643 C 0.72125 0.75204 0.35066 0.0
C1644 C 0.71739 0.8431 0.35491 0.0
C1645 C 0.71917 0.83944 0.37899 0.0
C1646 C 0.72237 0.79194 0.38851 0.0
C1647 C 0.72343 0.74901 0.37456 0.0
H1648 H 0.47162 0.27005 0.13405 0.0
H1649 H 0.46464 0.17844 0.07341 0.0
H1650 H 0.47304 0.19392 0.15741 0.0
H1651 H 0.46562 0.10097 0.09729 0.0
H1652 H 0.48114 0.97269 0.14151 0.0
H1653 H 0.48022 0.04985 0.11838 0.0
H1654 H 0.46083 0.12759 0.17403 0.0
H1655 H 0.46223 0.04986 0.19761 0.0
C1656 C 0.47027 0.23341 0.12569 0.0
C1657 C 0.46798 0.23019 0.10183 0.0
C1658 C 0.47099 0.18966 0.13923 0.0
C1659 C 0.46934 0.14124 0.12939 0.0
C1660 C 0.46708 0.13776 0.10542 0.0
C1661 C 0.46649 0.18194 0.09171 0.0
C1662 C 0.47683 0.00657 0.14893 0.0
C1663 C 0.4718 0.0056 0.17137 0.0
C1664 C 0.47615 0.0506 0.13552 0.0
C1665 C 0.47028 0.09478 0.14411 0.0
C1666 C 0.46552 0.09429 0.16691 0.0
C1667 C 0.46635 0.05003 0.18051 0.0
H1668 H 0.31203 0.68548 0.1894 0.0
H1669 H 0.32671 0.77167 0.13168 0.0
H1670 H 0.31083 0.60926 0.16483 0.0
H1671 H 0.32525 0.69704 0.10735 0.0
H1672 H 0.33145 0.53837 0.07497 0.0
H1673 H 0.3338 0.61454 0.09924 0.0
H1674 H 0.29821 0.57875 0.13306 0.0
H1675 H 0.29623 0.50216 0.10937 0.0
C1676 C 0.3151 0.68804 0.17163 0.0
C1677 C 0.31942 0.73462 0.16254 0.0
C1678 C 0.31431 0.64465 0.15745 0.0
C1679 C 0.31785 0.64715 0.13399 0.0
C1680 C 0.32255 0.69342 0.12529 0.0
C1681 C 0.32332 0.73645 0.13934 0.0
C1682 C 0.32398 0.54803 0.08708 0.0
C1683 C 0.31353 0.51545 0.09003 0.0
C1684 C 0.32535 0.59121 0.10118 0.0
C1685 C 0.31626 0.60242 0.11837 0.0
C1686 C 0.30554 0.57069 0.12044 0.0
C1687 C 0.30426 0.52747 0.10657 0.0
H1688 H 0.46666 0.54978 0.69446 0.0
H1689 H 0.46231 0.459 0.6328 0.0
H1690 H 0.46424 0.62762 0.67132 0.0
H1691 H 0.4593 0.53539 0.61016 0.0
H1692 H 0.47048 0.68316 0.57238 0.0
H1693 H 0.47095 0.60396 0.59483 0.0
H1694 H 0.44997 0.67837 0.6495 0.0
H1695 H 0.44999 0.75728 0.62745 0.0
C1696 C 0.46499 0.5464 0.67611 0.0
C1697 C 0.46473 0.49821 0.66554 0.0
C1698 C 0.46354 0.5909 0.6628 0.0
C1699 C 0.46166 0.58791 0.63873 0.0
C1700 C 0.46102 0.53947 0.62846 0.0
C1701 C 0.46262 0.49541 0.64162 0.0
C1702 C 0.46577 0.68202 0.58898 0.0
C1703 C 0.46028 0.72629 0.59823 0.0
C1704 C 0.46604 0.63676 0.60194 0.0
C1705 C 0.46065 0.63486 0.62424 0.0
C1706 C 0.45454 0.67866 0.63277 0.0
C1707 C 0.45443 0.72383 0.61999 0.0
H1708 H 0.32738 0.04273 0.57284 0.0
H1709 H 0.29354 0.00277 0.6108 0.0
H1710 H 0.32974 0.11999 0.59645 0.0
H1711 H 0.29555 0.08014 0.63387 0.0
H1712 H 0.31065 0.18707 0.68898 0.0
H1713 H 0.30916 0.11122 0.66429 0.0
H1714 H 0.32062 0.20182 0.60553 0.0
H1715 H 0.32235 0.27633 0.62998 0.0
C1716 C 0.32018 0.05172 0.58559 0.0
C1717 C 0.31015 0.01769 0.58981 0.0
C1718 C 0.32158 0.0955 0.59931 0.0
C1719 C 0.31293 0.10579 0.61735 0.0
C1720 C 0.30255 0.07277 0.62058 0.0
C1721 C 0.30125 0.02904 0.60708 0.0
C1722 C 0.31297 0.19043 0.67086 0.0
C1723 C 0.31657 0.23769 0.66149 0.0
C1724 C 0.31202 0.14722 0.65665 0.0
C1725 C 0.31467 0.15059 0.63283 0.0
C1726 C 0.31862 0.19762 0.62375 0.0
C1727 C 0.31954 0.24052 0.63786 0.0
loop_
_geom_bond_atom_site_label_1
_geom_bond_atom_site_label_2
_geom_bond_distance
_geom_bond_site_symmetry_2
_ccdc_geom_bond_type
Co0 O1 2.216 . S
Co0 O2 2.091 . S
Co0 O4 2.004 . S
Co0 O10 2.021 . S
Co0 O12 2.137 . S
Co0 O13 2.244 . S
O1 Co0 2.216 . S
O1 C8 1.247 . S
O2 Co0 2.091 . S
O2 C8 1.261 . S
C3 O12 1.247 . S
C3 O13 1.272 . S
O4 Co0 2.004 . S
O4 C9 1.259 . S
Co5 O6 2.061 . S
Co5 O11 2.052 . S
Co5 O13 2.135 . S
O6 Co5 2.061 . S
O6 C9 1.235 . S
C7 O10 1.238 . S
C7 O11 1.241 . S
C8 O1 1.247 . S
C8 O2 1.261 . S
C9 O4 1.259 . S
C9 O6 1.235 . S
O10 Co0 2.021 . S
O10 C7 1.238 . S
O11 Co5 2.052 . S
O11 C7 1.241 . S
O12 Co0 2.137 . S
O12 C3 1.247 . S
O13 Co0 2.244 . S
O13 C3 1.272 . S
O13 Co5 2.135 . S
Co14 O15 2.216 . S
Co14 O16 2.091 . S
Co14 O18 2.004 . S
Co14 O24 2.021 . S
Co14 O26 2.137 . S
Co14 O27 2.244 . S
O15 Co14 2.216 . S
O15 C22 1.247 . S
O16 Co14 2.091 . S
O16 C22 1.261 . S
C17 O26 1.247 . S
C17 O27 1.272 . S
O18 Co14 2.004 . S
O18 C23 1.259 . S
Co19 O20 2.061 . S
Co19 O25 2.052 . S
Co19 O27 2.135 . S
O20 Co19 2.061 . S
O20 C23 1.235 . S
C21 O24 1.238 . S
C21 O25 1.241 . S
C22 O15 1.247 . S
C22 O16 1.261 . S
C23 O18 1.259 . S
C23 O20 1.235 . S
O24 Co14 2.021 . S
O24 C21 1.238 . S
O25 Co19 2.052 . S
O25 C21 1.241 . S
O26 Co14 2.137 . S
O26 C17 1.247 . S
O27 Co14 2.244 . S
O27 C17 1.272 . S
O27 Co19 2.135 . S
Co28 O29 2.216 . S
Co28 O30 2.091 . S
Co28 O32 2.004 . S
Co28 O38 2.021 . S
Co28 O40 2.137 . S
Co28 O41 2.244 . S
O29 Co28 2.216 . S
O29 C36 1.247 . S
O30 Co28 2.091 . S
O30 C36 1.261 . S
C31 O40 1.247 . S
C31 O41 1.272 . S
O32 Co28 2.004 . S
O32 C37 1.259 . S
Co33 O34 2.061 . S
Co33 O39 2.052 . S
Co33 O41 2.135 . S
O34 Co33 2.061 . S
O34 C37 1.235 . S
C35 O38 1.238 . S
C35 O39 1.241 . S
C36 O29 1.247 . S
C36 O30 1.261 . S
C37 O32 1.259 . S
C37 O34 1.235 . S
O38 Co28 2.021 . S
O38 C35 1.238 . S
O39 Co33 2.052 . S
O39 C35 1.241 . S
O40 Co28 2.137 . S
O40 C31 1.247 . S
O41 Co28 2.244 . S
O41 C31 1.272 . S
O41 Co33 2.135 . S
Co42 O43 2.216 . S
Co42 O44 2.091 . S
Co42 O46 2.004 . S
Co42 O52 2.021 . S
Co42 O54 2.137 . S
Co42 O55 2.244 . S
O43 Co42 2.216 . S
O43 C50 1.247 . S
O44 Co42 2.091 . S
O44 C50 1.261 . S
C45 O54 1.247 . S
C45 O55 1.272 . S
O46 Co42 2.004 . S
O46 C51 1.259 . S
Co47 O48 2.061 . S
Co47 O53 2.052 . S
Co47 O55 2.135 . S
O48 Co47 2.061 . S
O48 C51 1.235 . S
C49 O52 1.238 . S
C49 O53 1.241 . S
C50 O43 1.247 . S
C50 O44 1.261 . S
C51 O46 1.259 . S
C51 O48 1.235 . S
O52 Co42 2.021 . S
O52 C49 1.238 . S
O53 Co47 2.052 . S
O53 C49 1.241 . S
O54 Co42 2.137 . S
O54 C45 1.247 . S
O55 Co42 2.244 . S
O55 C45 1.272 . S
O55 Co47 2.135 . S
Co56 O57 2.216 . S
Co56 O58 2.091 . S
Co56 O60 2.004 . S
Co56 O66 2.021 . S
Co56 O68 2.137 . S
Co56 O69 2.244 . S
O57 Co56 2.216 . S
O57 C64 1.247 . S
O58 Co56 2.091 . S
O58 C64 1.261 . S
C59 O68 1.247 . S
C59 O69 1.272 . S
O60 Co56 2.004 . S
O60 C65 1.259 . S
Co61 O62 2.061 . S
Co61 O67 2.052 . S
Co61 O69 2.135 . S
O62 Co61 2.061 . S
O62 C65 1.235 . S
C63 O66 1.238 . S
C63 O67 1.241 . S
C64 O57 1.247 . S
C64 O58 1.261 . S
C65 O60 1.259 . S
C65 O62 1.235 . S
O66 Co56 2.021 . S
O66 C63 1.238 . S
O67 Co61 2.052 . S
O67 C63 1.241 . S
O68 Co56 2.137 . S
O68 C59 1.247 . S
O69 Co56 2.244 . S
O69 C59 1.272 . S
O69 Co61 2.135 . S
Co70 O71 2.216 . S
Co70 O72 2.091 . S
Co70 O74 2.004 . S
Co70 O80 2.021 . S
Co70 O82 2.137 . S
Co70 O83 2.244 . S
O71 Co70 2.216 . S
O71 C78 1.247 . S
O72 Co70 2.091 . S
O72 C78 1.261 . S
C73 O82 1.247 . S
C73 O83 1.272 . S
O74 Co70 2.004 . S
O74 C79 1.259 . S
Co75 O76 2.061 . S
Co75 O81 2.052 . S
Co75 O83 2.135 . S
O76 Co75 2.061 . S
O76 C79 1.235 . S
C77 O80 1.238 . S
C77 O81 1.241 . S
C78 O71 1.247 . S
C78 O72 1.261 . S
C79 O74 1.259 . S
C79 O76 1.235 . S
O80 Co70 2.021 . S
O80 C77 1.238 . S
O81 Co75 2.052 . S
O81 C77 1.241 . S
O82 Co70 2.137 . S
O82 C73 1.247 . S
O83 Co70 2.244 . S
O83 C73 1.272 . S
O83 Co75 2.135 . S
Co84 O85 2.216 . S
Co84 O86 2.091 . S
Co84 O88 2.004 . S
Co84 O94 2.021 . S
Co84 O96 2.137 . S
Co84 O97 2.244 . S
O85 Co84 2.216 . S
O85 C92 1.247 . S
O86 Co84 2.091 . S
O86 C92 1.261 . S
C87 O96 1.247 . S
C87 O97 1.272 . S
O88 Co84 2.004 . S
O88 C93 1.259 . S
Co89 O90 2.061 . S
Co89 O95 2.052 . S
Co89 O97 2.135 . S
O90 Co89 2.061 . S
O90 C93 1.235 . S
C91 O94 1.238 . S
C91 O95 1.241 . S
C92 O85 1.247 . S
C92 O86 1.261 . S
C93 O88 1.259 . S
C93 O90 1.235 . S
O94 Co84 2.021 . S
O94 C91 1.238 . S
O95 Co89 2.052 . S
O95 C91 1.241 . S
O96 Co84 2.137 . S
O96 C87 1.247 . S
O97 Co84 2.244 . S
O97 C87 1.272 . S
O97 Co89 2.135 . S
Co98 O99 2.216 . S
Co98 O100 2.091 . S
Co98 O102 2.004 . S
Co98 O108 2.021 . S
Co98 O110 2.137 . S
Co98 O111 2.244 . S
O99 Co98 2.216 . S
O99 C106 1.247 . S
O100 Co98 2.091 . S
O100 C106 1.261 . S
C101 O110 1.247 . S
C101 O111 1.272 . S
O102 Co98 2.004 . S
O102 C107 1.259 . S
Co103 O104 2.061 . S
Co103 O109 2.052 . S
Co103 O111 2.135 . S
O104 Co103 2.061 . S
O104 C107 1.235 . S
C105 O108 1.238 . S
C105 O109 1.241 . S
C106 O99 1.247 . S
C106 O100 1.261 . S
C107 O102 1.259 . S
C107 O104 1.235 . S
O108 Co98 2.021 . S
O108 C105 1.238 . S
O109 Co103 2.052 . S
O109 C105 1.241 . S
O110 Co98 2.137 . S
O110 C101 1.247 . S
O111 Co98 2.244 . S
O111 C101 1.272 . S
O111 Co103 2.135 . S
Co112 O113 2.216 . S
Co112 O114 2.091 . S
Co112 O116 2.004 . S
Co112 O122 2.021 . S
Co112 O124 2.137 . S
Co112 O125 2.244 . S
O113 Co112 2.216 . S
O113 C120 1.247 . S
O114 Co112 2.091 . S
O114 C120 1.261 . S
C115 O124 1.247 . S
C115 O125 1.272 . S
O116 Co112 2.004 . S
O116 C121 1.259 . S
Co117 O118 2.061 . S
Co117 O123 2.052 . S
Co117 O125 2.135 . S
O118 Co117 2.061 . S
O118 C121 1.235 . S
C119 O122 1.238 . S
C119 O123 1.241 . S
C120 O113 1.247 . S
C120 O114 1.261 . S
C121 O116 1.259 . S
C121 O118 1.235 . S
O122 Co112 2.021 . S
O122 C119 1.238 . S
O123 Co117 2.052 . S
O123 C119 1.241 . S
O124 Co112 2.137 . S
O124 C115 1.247 . S
O125 Co112 2.244 . S
O125 C115 1.272 . S
O125 Co117 2.135 . S
Co126 O127 2.216 . S
Co126 O128 2.091 . S
Co126 O130 2.004 . S
Co126 O136 2.021 . S
Co126 O138 2.137 . S
Co126 O139 2.244 . S
O127 Co126 2.216 . S
O127 C134 1.247 . S
O128 Co126 2.091 . S
O128 C134 1.261 . S
C129 O138 1.247 . S
C129 O139 1.272 . S
O130 Co126 2.004 . S
O130 C135 1.259 . S
Co131 O132 2.061 . S
Co131 O137 2.052 . S
Co131 O139 2.135 . S
O132 Co131 2.061 . S
O132 C135 1.235 . S
C133 O136 1.238 . S
C133 O137 1.241 . S
C134 O127 1.247 . S
C134 O128 1.261 . S
C135 O130 1.259 . S
C135 O132 1.235 . S
O136 Co126 2.021 . S
O136 C133 1.238 . S
O137 Co131 2.052 . S
O137 C133 1.241 . S
O138 Co126 2.137 . S
O138 C129 1.247 . S
O139 Co126 2.244 . S
O139 C129 1.272 . S
O139 Co131 2.135 . S
Co140 O141 2.216 . S
Co140 O142 2.091 . S
Co140 O144 2.004 . S
Co140 O150 2.021 . S
Co140 O152 2.137 . S
Co140 O153 2.244 . S
O141 Co140 2.216 . S
O141 C148 1.247 . S
O142 Co140 2.091 . S
O142 C148 1.261 . S
C143 O152 1.247 . S
C143 O153 1.272 . S
O144 Co140 2.004 . S
O144 C149 1.259 . S
Co145 O146 2.061 . S
Co145 O151 2.052 . S
Co145 O153 2.135 . S
O146 Co145 2.061 . S
O146 C149 1.235 . S
C147 O150 1.238 . S
C147 O151 1.241 . S
C148 O141 1.247 . S
C148 O142 1.261 . S
C149 O144 1.259 . S
C149 O146 1.235 . S
O150 Co140 2.021 . S
O150 C147 1.238 . S
O151 Co145 2.052 . S
O151 C147 1.241 . S
O152 Co140 2.137 . S
O152 C143 1.247 . S
O153 Co140 2.244 . S
O153 C143 1.272 . S
O153 Co145 2.135 . S
Co154 O155 2.216 . S
Co154 O156 2.091 . S
Co154 O158 2.004 . S
Co154 O164 2.021 . S
Co154 O166 2.137 . S
Co154 O167 2.244 . S
O155 Co154 2.216 . S
O155 C162 1.247 . S
O156 Co154 2.091 . S
O156 C162 1.261 . S
C157 O166 1.247 . S
C157 O167 1.272 . S
O158 Co154 2.004 . S
O158 C163 1.259 . S
Co159 O160 2.061 . S
Co159 O165 2.052 . S
Co159 O167 2.135 . S
O160 Co159 2.061 . S
O160 C163 1.235 . S
C161 O164 1.238 . S
C161 O165 1.241 . S
C162 O155 1.247 . S
C162 O156 1.261 . S
C163 O158 1.259 . S
C163 O160 1.235 . S
O164 Co154 2.021 . S
O164 C161 1.238 . S
O165 Co159 2.052 . S
O165 C161 1.241 . S
O166 Co154 2.137 . S
O166 C157 1.247 . S
O167 Co154 2.244 . S
O167 C157 1.272 . S
O167 Co159 2.135 . S
Co168 O169 2.216 . S
Co168 O170 2.091 . S
Co168 O172 2.004 . S
Co168 O178 2.021 . S
Co168 O180 2.137 . S
Co168 O181 2.244 . S
O169 Co168 2.216 . S
O169 C176 1.247 . S
O170 Co168 2.091 . S
O170 C176 1.261 . S
C171 O180 1.247 . S
C171 O181 1.272 . S
O172 Co168 2.004 . S
O172 C177 1.259 . S
Co173 O174 2.061 . S
Co173 O179 2.052 . S
Co173 O181 2.135 . S
O174 Co173 2.061 . S
O174 C177 1.235 . S
C175 O178 1.238 . S
C175 O179 1.241 . S
C176 O169 1.247 . S
C176 O170 1.261 . S
C177 O172 1.259 . S
C177 O174 1.235 . S
O178 Co168 2.021 . S
O178 C175 1.238 . S
O179 Co173 2.052 . S
O179 C175 1.241 . S
O180 Co168 2.137 . S
O180 C171 1.247 . S
O181 Co168 2.244 . S
O181 C171 1.272 . S
O181 Co173 2.135 . S
Co182 O183 2.216 . S
Co182 O184 2.091 . S
Co182 O186 2.004 . S
Co182 O192 2.021 . S
Co182 O194 2.137 . S
Co182 O195 2.244 . S
O183 Co182 2.216 . S
O183 C190 1.247 . S
O184 Co182 2.091 . S
O184 C190 1.261 . S
C185 O194 1.247 . S
C185 O195 1.272 . S
O186 Co182 2.004 . S
O186 C191 1.259 . S
Co187 O188 2.061 . S
Co187 O193 2.052 . S
Co187 O195 2.135 . S
O188 Co187 2.061 . S
O188 C191 1.235 . S
C189 O192 1.238 . S
C189 O193 1.241 . S
C190 O183 1.247 . S
C190 O184 1.261 . S
C191 O186 1.259 . S
C191 O188 1.235 . S
O192 Co182 2.021 . S
O192 C189 1.238 . S
O193 Co187 2.052 . S
O193 C189 1.241 . S
O194 Co182 2.137 . S
O194 C185 1.247 . S
O195 Co182 2.244 . S
O195 C185 1.272 . S
O195 Co187 2.135 . S
Co196 O197 2.216 . S
Co196 O198 2.091 . S
Co196 O200 2.004 . S
Co196 O206 2.021 . S
Co196 O208 2.137 . S
Co196 O209 2.244 . S
O197 Co196 2.216 . S
O197 C204 1.247 . S
O198 Co196 2.091 . S
O198 C204 1.261 . S
C199 O208 1.247 . S
C199 O209 1.272 . S
O200 Co196 2.004 . S
O200 C205 1.259 . S
Co201 O202 2.061 . S
Co201 O207 2.052 . S
Co201 O209 2.135 . S
O202 Co201 2.061 . S
O202 C205 1.235 . S
C203 O206 1.238 . S
C203 O207 1.241 . S
C204 O197 1.247 . S
C204 O198 1.261 . S
C205 O200 1.259 . S
C205 O202 1.235 . S
O206 Co196 2.021 . S
O206 C203 1.238 . S
O207 Co201 2.052 . S
O207 C203 1.241 . S
O208 Co196 2.137 . S
O208 C199 1.247 . S
O209 Co196 2.244 . S
O209 C199 1.272 . S
O209 Co201 2.135 . S
Co210 O211 2.216 . S
Co210 O212 2.091 . S
Co210 O214 2.004 . S
Co210 O220 2.021 . S
Co210 O222 2.137 . S
Co210 O223 2.244 . S
O211 Co210 2.216 . S
O211 C218 1.247 . S
O212 Co210 2.091 . S
O212 C218 1.261 . S
C213 O222 1.247 . S
C213 O223 1.272 . S
O214 Co210 2.004 . S
O214 C219 1.259 . S
Co215 O216 2.061 . S
Co215 O221 2.052 . S
Co215 O223 2.135 . S
O216 Co215 2.061 . S
O216 C219 1.235 . S
C217 O220 1.238 . S
C217 O221 1.241 . S
C218 O211 1.247 . S
C218 O212 1.261 . S
C219 O214 1.259 . S
C219 O216 1.235 . S
O220 Co210 2.021 . S
O220 C217 1.238 . S
O221 Co215 2.052 . S
O221 C217 1.241 . S
O222 Co210 2.137 . S
O222 C213 1.247 . S
O223 Co210 2.244 . S
O223 C213 1.272 . S
O223 Co215 2.135 . S
Co224 O225 2.216 . S
Co224 O226 2.091 . S
Co224 O228 2.004 . S
Co224 O234 2.021 . S
Co224 O236 2.137 . S
Co224 O237 2.244 . S
O225 Co224 2.216 . S
O225 C232 1.247 . S
O226 Co224 2.091 . S
O226 C232 1.261 . S
C227 O236 1.247 . S
C227 O237 1.272 . S
O228 Co224 2.004 . S
O228 C233 1.259 . S
Co229 O230 2.061 . S
Co229 O235 2.052 . S
Co229 O237 2.135 . S
O230 Co229 2.061 . S
O230 C233 1.235 . S
C231 O234 1.238 . S
C231 O235 1.241 . S
C232 O225 1.247 . S
C232 O226 1.261 . S
C233 O228 1.259 . S
C233 O230 1.235 . S
O234 Co224 2.021 . S
O234 C231 1.238 . S
O235 Co229 2.052 . S
O235 C231 1.241 . S
O236 Co224 2.137 . S
O236 C227 1.247 . S
O237 Co224 2.244 . S
O237 C227 1.272 . S
O237 Co229 2.135 . S
Co238 O239 2.216 . S
Co238 O240 2.091 . S
Co238 O242 2.004 . S
Co238 O248 2.021 . S
Co238 O250 2.137 . S
Co238 O251 2.244 . S
O239 Co238 2.216 . S
O239 C246 1.247 . S
O240 Co238 2.091 . S
O240 C246 1.261 . S
C241 O250 1.247 . S
C241 O251 1.272 . S
O242 Co238 2.004 . S
O242 C247 1.259 . S
Co243 O244 2.061 . S
Co243 O249 2.052 . S
Co243 O251 2.135 . S
O244 Co243 2.061 . S
O244 C247 1.235 . S
C245 O248 1.238 . S
C245 O249 1.241 . S
C246 O239 1.247 . S
C246 O240 1.261 . S
C247 O242 1.259 . S
C247 O244 1.235 . S
O248 Co238 2.021 . S
O248 C245 1.238 . S
O249 Co243 2.052 . S
O249 C245 1.241 . S
O250 Co238 2.137 . S
O250 C241 1.247 . S
O251 Co238 2.244 . S
O251 C241 1.272 . S
O251 Co243 2.135 . S
Co252 O253 2.216 . S
Co252 O254 2.091 . S
Co252 O256 2.004 . S
Co252 O262 2.021 . S
Co252 O264 2.137 . S
Co252 O265 2.244 . S
O253 Co252 2.216 . S
O253 C260 1.247 . S
O254 Co252 2.091 . S
O254 C260 1.261 . S
C255 O264 1.247 . S
C255 O265 1.272 . S
O256 Co252 2.004 . S
O256 C261 1.259 . S
Co257 O258 2.061 . S
Co257 O263 2.052 . S
Co257 O265 2.135 . S
O258 Co257 2.061 . S
O258 C261 1.235 . S
C259 O262 1.238 . S
C259 O263 1.241 . S
C260 O253 1.247 . S
C260 O254 1.261 . S
C261 O256 1.259 . S
C261 O258 1.235 . S
O262 Co252 2.021 . S
O262 C259 1.238 . S
O263 Co257 2.052 . S
O263 C259 1.241 . S
O264 Co252 2.137 . S
O264 C255 1.247 . S
O265 Co252 2.244 . S
O265 C255 1.272 . S
O265 Co257 2.135 . S
Co266 O267 2.216 . S
Co266 O268 2.091 . S
Co266 O270 2.004 . S
Co266 O276 2.021 . S
Co266 O278 2.137 . S
Co266 O279 2.244 . S
O267 Co266 2.216 . S
O267 C274 1.247 . S
O268 Co266 2.091 . S
O268 C274 1.261 . S
C269 O278 1.247 . S
C269 O279 1.272 . S
O270 Co266 2.004 . S
O270 C275 1.259 . S
Co271 O272 2.061 . S
Co271 O277 2.052 . S
Co271 O279 2.135 . S
O272 Co271 2.061 . S
O272 C275 1.235 . S
C273 O276 1.238 . S
C273 O277 1.241 . S
C274 O267 1.247 . S
C274 O268 1.261 . S
C275 O270 1.259 . S
C275 O272 1.235 . S
O276 Co266 2.021 . S
O276 C273 1.238 . S
O277 Co271 2.052 . S
O277 C273 1.241 . S
O278 Co266 2.137 . S
O278 C269 1.247 . S
O279 Co266 2.244 . S
O279 C269 1.272 . S
O279 Co271 2.135 . S
Co280 O281 2.216 . S
Co280 O282 2.091 . S
Co280 O284 2.004 . S
Co280 O290 2.021 . S
Co280 O292 2.137 . S
Co280 O293 2.244 . S
O281 Co280 2.216 . S
O281 C288 1.247 . S
O282 Co280 2.091 . S
O282 C288 1.261 . S
C283 O292 1.247 . S
C283 O293 1.272 . S
O284 Co280 2.004 . S
O284 C289 1.259 . S
Co285 O286 2.061 . S
Co285 O291 2.052 . S
Co285 O293 2.135 . S
O286 Co285 2.061 . S
O286 C289 1.235 . S
C287 O290 1.238 . S
C287 O291 1.241 . S
C288 O281 1.247 . S
C288 O282 1.261 . S
C289 O284 1.259 . S
C289 O286 1.235 . S
O290 Co280 2.021 . S
O290 C287 1.238 . S
O291 Co285 2.052 . S
O291 C287 1.241 . S
O292 Co280 2.137 . S
O292 C283 1.247 . S
O293 Co280 2.244 . S
O293 C283 1.272 . S
O293 Co285 2.135 . S
Co294 O295 2.216 . S
Co294 O296 2.091 . S
Co294 O298 2.004 . S
Co294 O304 2.021 . S
Co294 O306 2.137 . S
Co294 O307 2.244 . S
O295 Co294 2.216 . S
O295 C302 1.247 . S
O296 Co294 2.091 . S
O296 C302 1.261 . S
C297 O306 1.247 . S
C297 O307 1.272 . S
O298 Co294 2.004 . S
O298 C303 1.259 . S
Co299 O300 2.061 . S
Co299 O305 2.052 . S
Co299 O307 2.135 . S
O300 Co299 2.061 . S
O300 C303 1.235 . S
C301 O304 1.238 . S
C301 O305 1.241 . S
C302 O295 1.247 . S
C302 O296 1.261 . S
C303 O298 1.259 . S
C303 O300 1.235 . S
O304 Co294 2.021 . S
O304 C301 1.238 . S
O305 Co299 2.052 . S
O305 C301 1.241 . S
O306 Co294 2.137 . S
O306 C297 1.247 . S
O307 Co294 2.244 . S
O307 C297 1.272 . S
O307 Co299 2.135 . S
Co308 O309 2.216 . S
Co308 O310 2.091 . S
Co308 O312 2.004 . S
Co308 O318 2.021 . S
Co308 O320 2.137 . S
Co308 O321 2.244 . S
O309 Co308 2.216 . S
O309 C316 1.247 . S
O310 Co308 2.091 . S
O310 C316 1.261 . S
C311 O320 1.247 . S
C311 O321 1.272 . S
O312 Co308 2.004 . S
O312 C317 1.259 . S
Co313 O314 2.061 . S
Co313 O319 2.052 . S
Co313 O321 2.135 . S
O314 Co313 2.061 . S
O314 C317 1.235 . S
C315 O318 1.238 . S
C315 O319 1.241 . S
C316 O309 1.247 . S
C316 O310 1.261 . S
C317 O312 1.259 . S
C317 O314 1.235 . S
O318 Co308 2.021 . S
O318 C315 1.238 . S
O319 Co313 2.052 . S
O319 C315 1.241 . S
O320 Co308 2.137 . S
O320 C311 1.247 . S
O321 Co308 2.244 . S
O321 C311 1.272 . S
O321 Co313 2.135 . S
Co322 O323 2.216 . S
Co322 O324 2.091 . S
Co322 O326 2.004 . S
Co322 O332 2.021 . S
Co322 O334 2.137 . S
Co322 O335 2.244 . S
O323 Co322 2.216 . S
O323 C330 1.247 . S
O324 Co322 2.091 . S
O324 C330 1.261 . S
C325 O334 1.247 . S
C325 O335 1.272 . S
O326 Co322 2.004 . S
O326 C331 1.259 . S
Co327 O328 2.061 . S
Co327 O333 2.052 . S
Co327 O335 2.135 . S
O328 Co327 2.061 . S
O328 C331 1.235 . S
C329 O332 1.238 . S
C329 O333 1.241 . S
C330 O323 1.247 . S
C330 O324 1.261 . S
C331 O326 1.259 . S
C331 O328 1.235 . S
O332 Co322 2.021 . S
O332 C329 1.238 . S
O333 Co327 2.052 . S
O333 C329 1.241 . S
O334 Co322 2.137 . S
O334 C325 1.247 . S
O335 Co322 2.244 . S
O335 C325 1.272 . S
O335 Co327 2.135 . S
Co336 O337 2.216 . S
Co336 O338 2.091 . S
Co336 O340 2.004 . S
Co336 O346 2.021 . S
Co336 O348 2.137 . S
Co336 O349 2.244 . S
O337 Co336 2.216 . S
O337 C344 1.247 . S
O338 Co336 2.091 . S
O338 C344 1.261 . S
C339 O348 1.247 . S
C339 O349 1.272 . S
O340 Co336 2.004 . S
O340 C345 1.259 . S
Co341 O342 2.061 . S
Co341 O347 2.052 . S
Co341 O349 2.135 . S
O342 Co341 2.061 . S
O342 C345 1.235 . S
C343 O346 1.238 . S
C343 O347 1.241 . S
C344 O337 1.247 . S
C344 O338 1.261 . S
C345 O340 1.259 . S
C345 O342 1.235 . S
O346 Co336 2.021 . S
O346 C343 1.238 . S
O347 Co341 2.052 . S
O347 C343 1.241 . S
O348 Co336 2.137 . S
O348 C339 1.247 . S
O349 Co336 2.244 . S
O349 C339 1.272 . S
O349 Co341 2.135 . S
Co350 O351 2.216 . S
Co350 O352 2.091 . S
Co350 O354 2.004 . S
Co350 O360 2.021 . S
Co350 O362 2.137 . S
Co350 O363 2.244 . S
O351 Co350 2.216 . S
O351 C358 1.247 . S
O352 Co350 2.091 . S
O352 C358 1.261 . S
C353 O362 1.247 . S
C353 O363 1.272 . S
O354 Co350 2.004 . S
O354 C359 1.259 . S
Co355 O356 2.061 . S
Co355 O361 2.052 . S
Co355 O363 2.135 . S
O356 Co355 2.061 . S
O356 C359 1.235 . S
C357 O360 1.238 . S
C357 O361 1.241 . S
C358 O351 1.247 . S
C358 O352 1.261 . S
C359 O354 1.259 . S
C359 O356 1.235 . S
O360 Co350 2.021 . S
O360 C357 1.238 . S
O361 Co355 2.052 . S
O361 C357 1.241 . S
O362 Co350 2.137 . S
O362 C353 1.247 . S
O363 Co350 2.244 . S
O363 C353 1.272 . S
O363 Co355 2.135 . S
Co364 O365 2.216 . S
Co364 O366 2.091 . S
Co364 O368 2.004 . S
Co364 O374 2.021 . S
Co364 O376 2.137 . S
Co364 O377 2.244 . S
O365 Co364 2.216 . S
O365 C372 1.247 . S
O366 Co364 2.091 . S
O366 C372 1.261 . S
C367 O376 1.247 . S
C367 O377 1.272 . S
O368 Co364 2.004 . S
O368 C373 1.259 . S
Co369 O370 2.061 . S
Co369 O375 2.052 . S
Co369 O377 2.135 . S
O370 Co369 2.061 . S
O370 C373 1.235 . S
C371 O374 1.238 . S
C371 O375 1.241 . S
C372 O365 1.247 . S
C372 O366 1.261 . S
C373 O368 1.259 . S
C373 O370 1.235 . S
O374 Co364 2.021 . S
O374 C371 1.238 . S
O375 Co369 2.052 . S
O375 C371 1.241 . S
O376 Co364 2.137 . S
O376 C367 1.247 . S
O377 Co364 2.244 . S
O377 C367 1.272 . S
O377 Co369 2.135 . S
Co378 O379 2.216 . S
Co378 O380 2.091 . S
Co378 O382 2.004 . S
Co378 O388 2.021 . S
Co378 O390 2.137 . S
Co378 O391 2.244 . S
O379 Co378 2.216 . S
O379 C386 1.247 . S
O380 Co378 2.091 . S
O380 C386 1.261 . S
C381 O390 1.247 . S
C381 O391 1.272 . S
O382 Co378 2.004 . S
O382 C387 1.259 . S
Co383 O384 2.061 . S
Co383 O389 2.052 . S
Co383 O391 2.135 . S
O384 Co383 2.061 . S
O384 C387 1.235 . S
C385 O388 1.238 . S
C385 O389 1.241 . S
C386 O379 1.247 . S
C386 O380 1.261 . S
C387 O382 1.259 . S
C387 O384 1.235 . S
O388 Co378 2.021 . S
O388 C385 1.238 . S
O389 Co383 2.052 . S
O389 C385 1.241 . S
O390 Co378 2.137 . S
O390 C381 1.247 . S
O391 Co378 2.244 . S
O391 C381 1.272 . S
O391 Co383 2.135 . S
Co392 O393 2.216 . S
Co392 O394 2.091 . S
Co392 O396 2.004 . S
Co392 O402 2.021 . S
Co392 O404 2.137 . S
Co392 O405 2.244 . S
O393 Co392 2.216 . S
O393 C400 1.247 . S
O394 Co392 2.091 . S
O394 C400 1.261 . S
C395 O404 1.247 . S
C395 O405 1.272 . S
O396 Co392 2.004 . S
O396 C401 1.259 . S
Co397 O398 2.061 . S
Co397 O403 2.052 . S
Co397 O405 2.135 . S
O398 Co397 2.061 . S
O398 C401 1.235 . S
C399 O402 1.238 . S
C399 O403 1.241 . S
C400 O393 1.247 . S
C400 O394 1.261 . S
C401 O396 1.259 . S
C401 O398 1.235 . S
O402 Co392 2.021 . S
O402 C399 1.238 . S
O403 Co397 2.052 . S
O403 C399 1.241 . S
O404 Co392 2.137 . S
O404 C395 1.247 . S
O405 Co392 2.244 . S
O405 C395 1.272 . S
O405 Co397 2.135 . S
Co406 O407 2.216 . S
Co406 O408 2.091 . S
Co406 O410 2.004 . S
Co406 O416 2.021 . S
Co406 O418 2.137 . S
Co406 O419 2.244 . S
O407 Co406 2.216 . S
O407 C414 1.247 . S
O408 Co406 2.091 . S
O408 C414 1.261 . S
C409 O418 1.247 . S
C409 O419 1.272 . S
O410 Co406 2.004 . S
O410 C415 1.259 . S
Co411 O412 2.061 . S
Co411 O417 2.052 . S
Co411 O419 2.135 . S
O412 Co411 2.061 . S
O412 C415 1.235 . S
C413 O416 1.238 . S
C413 O417 1.241 . S
C414 O407 1.247 . S
C414 O408 1.261 . S
C415 O410 1.259 . S
C415 O412 1.235 . S
O416 Co406 2.021 . S
O416 C413 1.238 . S
O417 Co411 2.052 . S
O417 C413 1.241 . S
O418 Co406 2.137 . S
O418 C409 1.247 . S
O419 Co406 2.244 . S
O419 C409 1.272 . S
O419 Co411 2.135 . S
Co420 O421 2.216 . S
Co420 O422 2.091 . S
Co420 O424 2.004 . S
Co420 O430 2.021 . S
Co420 O432 2.137 . S
Co420 O433 2.244 . S
O421 Co420 2.216 . S
O421 C428 1.247 . S
O422 Co420 2.091 . S
O422 C428 1.261 . S
C423 O432 1.247 . S
C423 O433 1.272 . S
O424 Co420 2.004 . S
O424 C429 1.259 . S
Co425 O426 2.061 . S
Co425 O431 2.052 . S
Co425 O433 2.135 . S
O426 Co425 2.061 . S
O426 C429 1.235 . S
C427 O430 1.238 . S
C427 O431 1.241 . S
C428 O421 1.247 . S
C428 O422 1.261 . S
C429 O424 1.259 . S
C429 O426 1.235 . S
O430 Co420 2.021 . S
O430 C427 1.238 . S
O431 Co425 2.052 . S
O431 C427 1.241 . S
O432 Co420 2.137 . S
O432 C423 1.247 . S
O433 Co420 2.244 . S
O433 C423 1.272 . S
O433 Co425 2.135 . S
Co434 O435 2.216 . S
Co434 O436 2.091 . S
Co434 O438 2.004 . S
Co434 O444 2.021 . S
Co434 O446 2.137 . S
Co434 O447 2.244 . S
O435 Co434 2.216 . S
O435 C442 1.247 . S
O436 Co434 2.091 . S
O436 C442 1.261 . S
C437 O446 1.247 . S
C437 O447 1.272 . S
O438 Co434 2.004 . S
O438 C443 1.259 . S
Co439 O440 2.061 . S
Co439 O445 2.052 . S
Co439 O447 2.135 . S
O440 Co439 2.061 . S
O440 C443 1.235 . S
C441 O444 1.238 . S
C441 O445 1.241 . S
C442 O435 1.247 . S
C442 O436 1.261 . S
C443 O438 1.259 . S
C443 O440 1.235 . S
O444 Co434 2.021 . S
O444 C441 1.238 . S
O445 Co439 2.052 . S
O445 C441 1.241 . S
O446 Co434 2.137 . S
O446 C437 1.247 . S
O447 Co434 2.244 . S
O447 C437 1.272 . S
O447 Co439 2.135 . S
H448 C456 0.950 . S
H449 C461 0.950 . S
H450 C458 0.950 . S
H451 C460 0.950 . S
H452 C462 0.950 . S
H453 C464 0.950 . S
H454 C466 0.950 . S
H455 C467 0.950 . S
C456 H448 0.950 . S
C456 C457 1.386 . S
C456 C458 1.391 . S
C457 C456 1.386 . S
C457 C461 1.393 . S
C458 H450 0.950 . S
C458 C456 1.391 . S
C458 C459 1.400 . S
C459 C458 1.400 . S
C459 C460 1.398 . S
C459 C465 1.491 . S
C460 H451 0.950 . S
C460 C459 1.398 . S
C460 C461 1.391 . S
C461 H449 0.950 . S
C461 C457 1.393 . S
C461 C460 1.391 . S
C462 H452 0.950 . S
C462 C463 1.386 . S
C462 C464 1.391 . S
C463 C462 1.386 . S
C463 C467 1.393 . S
C464 H453 0.950 . S
C464 C462 1.391 . S
C464 C465 1.400 . S
C465 C459 1.491 . S
C465 C464 1.400 . S
C465 C466 1.398 . S
C466 H454 0.950 . S
C466 C465 1.398 . S
C466 C467 1.391 . S
C467 H455 0.950 . S
C467 C463 1.393 . S
C467 C466 1.391 . S
H468 C476 0.950 . S
H469 C481 0.950 . S
H470 C478 0.950 . S
H471 C480 0.950 . S
H472 C482 0.950 . S
H473 C484 0.950 . S
H474 C486 0.950 . S
H475 C487 0.950 . S
C476 H468 0.950 . S
C476 C477 1.386 . S
C476 C478 1.391 . S
C477 C476 1.386 . S
C477 C481 1.393 . S
C478 H470 0.950 . S
C478 C476 1.391 . S
C478 C479 1.400 . S
C479 C478 1.400 . S
C479 C480 1.398 . S
C479 C485 1.491 . S
C480 H471 0.950 . S
C480 C479 1.398 . S
C480 C481 1.391 . S
C481 H469 0.950 . S
C481 C477 1.393 . S
C481 C480 1.391 . S
C482 H472 0.950 . S
C482 C483 1.386 . S
C482 C484 1.391 . S
C483 C482 1.386 . S
C483 C487 1.393 . S
C484 H473 0.950 . S
C484 C482 1.391 . S
C484 C485 1.400 . S
C485 C479 1.491 . S
C485 C484 1.400 . S
C485 C486 1.398 . S
C486 H474 0.950 . S
C486 C485 1.398 . S
C486 C487 1.391 . S
C487 H475 0.950 . S
C487 C483 1.393 . S
C487 C486 1.391 . S
H488 C496 0.950 . S
H489 C501 0.950 . S
H490 C498 0.950 . S
H491 C500 0.950 . S
H492 C502 0.950 . S
H493 C504 0.950 . S
H494 C506 0.950 . S
H495 C507 0.950 . S
C496 H488 0.950 . S
C496 C497 1.386 . S
C496 C498 1.391 . S
C497 C496 1.386 . S
C497 C501 1.393 . S
C498 H490 0.950 . S
C498 C496 1.391 . S
C498 C499 1.400 . S
C499 C498 1.400 . S
C499 C500 1.398 . S
C499 C505 1.491 . S
C500 H491 0.950 . S
C500 C499 1.398 . S
C500 C501 1.391 . S
C501 H489 0.950 . S
C501 C497 1.393 . S
C501 C500 1.391 . S
C502 H492 0.950 . S
C502 C503 1.386 . S
C502 C504 1.391 . S
C503 C502 1.386 . S
C503 C507 1.393 . S
C504 H493 0.950 . S
C504 C502 1.391 . S
C504 C505 1.400 . S
C505 C499 1.491 . S
C505 C504 1.400 . S
C505 C506 1.398 . S
C506 H494 0.950 . S
C506 C505 1.398 . S
C506 C507 1.391 . S
C507 H495 0.950 . S
C507 C503 1.393 . S
C507 C506 1.391 . S
H508 C516 0.950 . S
H509 C521 0.950 . S
H510 C518 0.950 . S
H511 C520 0.950 . S
H512 C522 0.950 . S
H513 C524 0.950 . S
H514 C526 0.950 . S
H515 C527 0.950 . S
C516 H508 0.950 . S
C516 C517 1.386 . S
C516 C518 1.391 . S
C517 C516 1.386 . S
C517 C521 1.393 . S
C518 H510 0.950 . S
C518 C516 1.391 . S
C518 C519 1.400 . S
C519 C518 1.400 . S
C519 C520 1.398 . S
C519 C525 1.491 . S
C520 H511 0.950 . S
C520 C519 1.398 . S
C520 C521 1.391 . S
C521 H509 0.950 . S
C521 C517 1.393 . S
C521 C520 1.391 . S
C522 H512 0.950 . S
C522 C523 1.386 . S
C522 C524 1.391 . S
C523 C522 1.386 . S
C523 C527 1.393 . S
C524 H513 0.950 . S
C524 C522 1.391 . S
C524 C525 1.400 . S
C525 C519 1.491 . S
C525 C524 1.400 . S
C525 C526 1.398 . S
C526 H514 0.950 . S
C526 C525 1.398 . S
C526 C527 1.391 . S
C527 H515 0.950 . S
C527 C523 1.393 . S
C527 C526 1.391 . S
H528 C536 0.950 . S
H529 C541 0.950 . S
H530 C538 0.950 . S
H531 C540 0.950 . S
H532 C542 0.950 . S
H533 C544 0.950 . S
H534 C546 0.950 . S
H535 C547 0.950 . S
C536 H528 0.950 . S
C536 C537 1.386 . S
C536 C538 1.391 . S
C537 C536 1.386 . S
C537 C541 1.393 . S
C538 H530 0.950 . S
C538 C536 1.391 . S
C538 C539 1.400 . S
C539 C538 1.400 . S
C539 C540 1.398 . S
C539 C545 1.491 . S
C540 H531 0.950 . S
C540 C539 1.398 . S
C540 C541 1.391 . S
C541 H529 0.950 . S
C541 C537 1.393 . S
C541 C540 1.391 . S
C542 H532 0.950 . S
C542 C543 1.386 . S
C542 C544 1.391 . S
C543 C542 1.386 . S
C543 C547 1.393 . S
C544 H533 0.950 . S
C544 C542 1.391 . S
C544 C545 1.400 . S
C545 C539 1.491 . S
C545 C544 1.400 . S
C545 C546 1.398 . S
C546 H534 0.950 . S
C546 C545 1.398 . S
C546 C547 1.391 . S
C547 H535 0.950 . S
C547 C543 1.393 . S
C547 C546 1.391 . S
H548 C556 0.950 . S
H549 C561 0.950 . S
H550 C558 0.950 . S
H551 C560 0.950 . S
H552 C562 0.950 . S
H553 C564 0.950 . S
H554 C566 0.950 . S
H555 C567 0.950 . S
C556 H548 0.950 . S
C556 C557 1.386 . S
C556 C558 1.391 . S
C557 C556 1.386 . S
C557 C561 1.393 . S
C558 H550 0.950 . S
C558 C556 1.391 . S
C558 C559 1.400 . S
C559 C558 1.400 . S
C559 C560 1.398 . S
C559 C565 1.491 . S
C560 H551 0.950 . S
C560 C559 1.398 . S
C560 C561 1.391 . S
C561 H549 0.950 . S
C561 C557 1.393 . S
C561 C560 1.391 . S
C562 H552 0.950 . S
C562 C563 1.386 . S
C562 C564 1.391 . S
C563 C562 1.386 . S
C563 C567 1.393 . S
C564 H553 0.950 . S
C564 C562 1.391 . S
C564 C565 1.400 . S
C565 C559 1.491 . S
C565 C564 1.400 . S
C565 C566 1.398 . S
C566 H554 0.950 . S
C566 C565 1.398 . S
C566 C567 1.391 . S
C567 H555 0.950 . S
C567 C563 1.393 . S
C567 C566 1.391 . S
H568 C576 0.950 . S
H569 C581 0.950 . S
H570 C578 0.950 . S
H571 C580 0.950 . S
H572 C582 0.950 . S
H573 C584 0.950 . S
H574 C586 0.950 . S
H575 C587 0.950 . S
C576 H568 0.950 . S
C576 C577 1.386 . S
C576 C578 1.391 . S
C577 C576 1.386 . S
C577 C581 1.393 . S
C578 H570 0.950 . S
C578 C576 1.391 . S
C578 C579 1.400 . S
C579 C578 1.400 . S
C579 C580 1.398 . S
C579 C585 1.491 . S
C580 H571 0.950 . S
C580 C579 1.398 . S
C580 C581 1.391 . S
C581 H569 0.950 . S
C581 C577 1.393 . S
C581 C580 1.391 . S
C582 H572 0.950 . S
C582 C583 1.386 . S
C582 C584 1.391 . S
C583 C582 1.386 . S
C583 C587 1.393 . S
C584 H573 0.950 . S
C584 C582 1.391 . S
C584 C585 1.400 . S
C585 C579 1.491 . S
C585 C584 1.400 . S
C585 C586 1.398 . S
C586 H574 0.950 . S
C586 C585 1.398 . S
C586 C587 1.391 . S
C587 H575 0.950 . S
C587 C583 1.393 . S
C587 C586 1.391 . S
H588 C596 0.950 . S
H589 C601 0.950 . S
H590 C598 0.950 . S
H591 C600 0.950 . S
H592 C602 0.950 . S
H593 C604 0.950 . S
H594 C606 0.950 . S
H595 C607 0.950 . S
C596 H588 0.950 . S
C596 C597 1.386 . S
C596 C598 1.391 . S
C597 C596 1.386 . S
C597 C601 1.393 . S
C598 H590 0.950 . S
C598 C596 1.391 . S
C598 C599 1.400 . S
C599 C598 1.400 . S
C599 C600 1.398 . S
C599 C605 1.491 . S
C600 H591 0.950 . S
C600 C599 1.398 . S
C600 C601 1.391 . S
C601 H589 0.950 . S
C601 C597 1.393 . S
C601 C600 1.391 . S
C602 H592 0.950 . S
C602 C603 1.386 . S
C602 C604 1.391 . S
C603 C602 1.386 . S
C603 C607 1.393 . S
C604 H593 0.950 . S
C604 C602 1.391 . S
C604 C605 1.400 . S
C605 C599 1.491 . S
C605 C604 1.400 . S
C605 C606 1.398 . S
C606 H594 0.950 . S
C606 C605 1.398 . S
C606 C607 1.391 . S
C607 H595 0.950 . S
C607 C603 1.393 . S
C607 C606 1.391 . S
H608 C616 0.950 . S
H609 C621 0.950 . S
H610 C618 0.950 . S
H611 C620 0.950 . S
H612 C622 0.950 . S
H613 C624 0.950 . S
H614 C626 0.950 . S
H615 C627 0.950 . S
C616 H608 0.950 . S
C616 C617 1.386 . S
C616 C618 1.391 . S
C617 C616 1.386 . S
C617 C621 1.393 . S
C618 H610 0.950 . S
C618 C616 1.391 . S
C618 C619 1.400 . S
C619 C618 1.400 . S
C619 C620 1.398 . S
C619 C625 1.491 . S
C620 H611 0.950 . S
C620 C619 1.398 . S
C620 C621 1.391 . S
C621 H609 0.950 . S
C621 C617 1.393 . S
C621 C620 1.391 . S
C622 H612 0.950 . S
C622 C623 1.386 . S
C622 C624 1.391 . S
C623 C622 1.386 . S
C623 C627 1.393 . S
C624 H613 0.950 . S
C624 C622 1.391 . S
C624 C625 1.400 . S
C625 C619 1.491 . S
C625 C624 1.400 . S
C625 C626 1.398 . S
C626 H614 0.950 . S
C626 C625 1.398 . S
C626 C627 1.391 . S
C627 H615 0.950 . S
C627 C623 1.393 . S
C627 C626 1.391 . S
H628 C636 0.950 . S
H629 C641 0.950 . S
H630 C638 0.950 . S
H631 C640 0.950 . S
H632 C642 0.950 . S
H633 C644 0.950 . S
H634 C646 0.950 . S
H635 C647 0.950 . S
C636 H628 0.950 . S
C636 C637 1.386 . S
C636 C638 1.391 . S
C637 C636 1.386 . S
C637 C641 1.393 . S
C638 H630 0.950 . S
C638 C636 1.391 . S
C638 C639 1.400 . S
C639 C638 1.400 . S
C639 C640 1.398 . S
C639 C645 1.491 . S
C640 H631 0.950 . S
C640 C639 1.398 . S
C640 C641 1.391 . S
C641 H629 0.950 . S
C641 C637 1.393 . S
C641 C640 1.391 . S
C642 H632 0.950 . S
C642 C643 1.386 . S
C642 C644 1.391 . S
C643 C642 1.386 . S
C643 C647 1.393 . S
C644 H633 0.950 . S
C644 C642 1.391 . S
C644 C645 1.400 . S
C645 C639 1.491 . S
C645 C644 1.400 . S
C645 C646 1.398 . S
C646 H634 0.950 . S
C646 C645 1.398 . S
C646 C647 1.391 . S
C647 H635 0.950 . S
C647 C643 1.393 . S
C647 C646 1.391 . S
H648 C656 0.950 . S
H649 C661 0.950 . S
H650 C658 0.950 . S
H651 C660 0.950 . S
H652 C662 0.950 . S
H653 C664 0.950 . S
H654 C666 0.950 . S
H655 C667 0.950 . S
C656 H648 0.950 . S
C656 C657 1.386 . S
C656 C658 1.391 . S
C657 C656 1.386 . S
C657 C661 1.393 . S
C658 H650 0.950 . S
C658 C656 1.391 . S
C658 C659 1.400 . S
C659 C658 1.400 . S
C659 C660 1.398 . S
C659 C665 1.491 . S
C660 H651 0.950 . S
C660 C659 1.398 . S
C660 C661 1.391 . S
C661 H649 0.950 . S
C661 C657 1.393 . S
C661 C660 1.391 . S
C662 H652 0.950 . S
C662 C663 1.386 . S
C662 C664 1.391 . S
C663 C662 1.386 . S
C663 C667 1.393 . S
C664 H653 0.950 . S
C664 C662 1.391 . S
C664 C665 1.400 . S
C665 C659 1.491 . S
C665 C664 1.400 . S
C665 C666 1.398 . S
C666 H654 0.950 . S
C666 C665 1.398 . S
C666 C667 1.391 . S
C667 H655 0.950 . S
C667 C663 1.393 . S
C667 C666 1.391 . S
H668 C676 0.950 . S
H669 C681 0.950 . S
H670 C678 0.950 . S
H671 C680 0.950 . S
H672 C682 0.950 . S
H673 C684 0.950 . S
H674 C686 0.950 . S
H675 C687 0.950 . S
C676 H668 0.950 . S
C676 C677 1.386 . S
C676 C678 1.391 . S
C677 C676 1.386 . S
C677 C681 1.393 . S
C678 H670 0.950 . S
C678 C676 1.391 . S
C678 C679 1.400 . S
C679 C678 1.400 . S
C679 C680 1.398 . S
C679 C685 1.491 . S
C680 H671 0.950 . S
C680 C679 1.398 . S
C680 C681 1.391 . S
C681 H669 0.950 . S
C681 C677 1.393 . S
C681 C680 1.391 . S
C682 H672 0.950 . S
C682 C683 1.386 . S
C682 C684 1.391 . S
C683 C682 1.386 . S
C683 C687 1.393 . S
C684 H673 0.950 . S
C684 C682 1.391 . S
C684 C685 1.400 . S
C685 C679 1.491 . S
C685 C684 1.400 . S
C685 C686 1.398 . S
C686 H674 0.950 . S
C686 C685 1.398 . S
C686 C687 1.391 . S
C687 H675 0.950 . S
C687 C683 1.393 . S
C687 C686 1.391 . S
H688 C696 0.950 . S
H689 C701 0.950 . S
H690 C698 0.950 . S
H691 C700 0.950 . S
H692 C702 0.950 . S
H693 C704 0.950 . S
H694 C706 0.950 . S
H695 C707 0.950 . S
C696 H688 0.950 . S
C696 C697 1.386 . S
C696 C698 1.391 . S
C697 C696 1.386 . S
C697 C701 1.393 . S
C698 H690 0.950 . S
C698 C696 1.391 . S
C698 C699 1.400 . S
C699 C698 1.400 . S
C699 C700 1.398 . S
C699 C705 1.491 . S
C700 H691 0.950 . S
C700 C699 1.398 . S
C700 C701 1.391 . S
C701 H689 0.950 . S
C701 C697 1.393 . S
C701 C700 1.391 . S
C702 H692 0.950 . S
C702 C703 1.386 . S
C702 C704 1.391 . S
C703 C702 1.386 . S
C703 C707 1.393 . S
C704 H693 0.950 . S
C704 C702 1.391 . S
C704 C705 1.400 . S
C705 C699 1.491 . S
C705 C704 1.400 . S
C705 C706 1.398 . S
C706 H694 0.950 . S
C706 C705 1.398 . S
C706 C707 1.391 . S
C707 H695 0.950 . S
C707 C703 1.393 . S
C707 C706 1.391 . S
H708 C716 0.950 . S
H709 C721 0.950 . S
H710 C718 0.950 . S
H711 C720 0.950 . S
H712 C722 0.950 . S
H713 C724 0.950 . S
H714 C726 0.950 . S
H715 C727 0.950 . S
C716 H708 0.950 . S
C716 C717 1.386 . S
C716 C718 1.391 . S
C717 C716 1.386 . S
C717 C721 1.393 . S
C718 H710 0.950 . S
C718 C716 1.391 . S
C718 C719 1.400 . S
C719 C718 1.400 . S
C719 C720 1.398 . S
C719 C725 1.491 . S
C720 H711 0.950 . S
C720 C719 1.398 . S
C720 C721 1.391 . S
C721 H709 0.950 . S
C721 C717 1.393 . S
C721 C720 1.391 . S
C722 H712 0.950 . S
C722 C723 1.386 . S
C722 C724 1.391 . S
C723 C722 1.386 . S
C723 C727 1.393 . S
C724 H713 0.950 . S
C724 C722 1.391 . S
C724 C725 1.400 . S
C725 C719 1.491 . S
C725 C724 1.400 . S
C725 C726 1.398 . S
C726 H714 0.950 . S
C726 C725 1.398 . S
C726 C727 1.391 . S
C727 H715 0.950 . S
C727 C723 1.393 . S
C727 C726 1.391 . S
H728 C736 0.950 . S
H729 C741 0.950 . S
H730 C738 0.950 . S
H731 C740 0.950 . S
H732 C742 0.950 . S
H733 C744 0.950 . S
H734 C746 0.950 . S
H735 C747 0.950 . S
C736 H728 0.950 . S
C736 C737 1.386 . S
C736 C738 1.391 . S
C737 C736 1.386 . S
C737 C741 1.393 . S
C738 H730 0.950 . S
C738 C736 1.391 . S
C738 C739 1.400 . S
C739 C738 1.400 . S
C739 C740 1.398 . S
C739 C745 1.491 . S
C740 H731 0.950 . S
C740 C739 1.398 . S
C740 C741 1.391 . S
C741 H729 0.950 . S
C741 C737 1.393 . S
C741 C740 1.391 . S
C742 H732 0.950 . S
C742 C743 1.386 . S
C742 C744 1.391 . S
C743 C742 1.386 . S
C743 C747 1.393 . S
C744 H733 0.950 . S
C744 C742 1.391 . S
C744 C745 1.400 . S
C745 C739 1.491 . S
C745 C744 1.400 . S
C745 C746 1.398 . S
C746 H734 0.950 . S
C746 C745 1.398 . S
C746 C747 1.391 . S
C747 H735 0.950 . S
C747 C743 1.393 . S
C747 C746 1.391 . S
H748 C756 0.950 . S
H749 C761 0.950 . S
H750 C758 0.950 . S
H751 C760 0.950 . S
H752 C762 0.950 . S
H753 C764 0.950 . S
H754 C766 0.950 . S
H755 C767 0.950 . S
C756 H748 0.950 . S
C756 C757 1.386 . S
C756 C758 1.391 . S
C757 C756 1.386 . S
C757 C761 1.393 . S
C758 H750 0.950 . S
C758 C756 1.391 . S
C758 C759 1.400 . S
C759 C758 1.400 . S
C759 C760 1.398 . S
C759 C765 1.491 . S
C760 H751 0.950 . S
C760 C759 1.398 . S
C760 C761 1.391 . S
C761 H749 0.950 . S
C761 C757 1.393 . S
C761 C760 1.391 . S
C762 H752 0.950 . S
C762 C763 1.386 . S
C762 C764 1.391 . S
C763 C762 1.386 . S
C763 C767 1.393 . S
C764 H753 0.950 . S
C764 C762 1.391 . S
C764 C765 1.400 . S
C765 C759 1.491 . S
C765 C764 1.400 . S
C765 C766 1.398 . S
C766 H754 0.950 . S
C766 C765 1.398 . S
C766 C767 1.391 . S
C767 H755 0.950 . S
C767 C763 1.393 . S
C767 C766 1.391 . S
H768 C776 0.950 . S
H769 C781 0.950 . S
H770 C778 0.950 . S
H771 C780 0.950 1_655 S
H772 C782 0.950 . S
H773 C784 0.950 . S
H774 C786 0.950 1_455 S
H775 C787 0.950 . S
C776 H768 0.950 . S
C776 C777 1.386 . S
C776 C778 1.391 . S
C777 C776 1.386 . S
C777 C781 1.393 . S
C778 H770 0.950 . S
C778 C776 1.391 . S
C778 C779 1.400 . S
C779 C778 1.400 . S
C779 C780 1.398 . S
C779 C785 1.491 1_455 S
C780 H771 0.950 1_455 S
C780 C779 1.398 . S
C780 C781 1.391 . S
C781 H769 0.950 . S
C781 C777 1.393 . S
C781 C780 1.391 . S
C782 H772 0.950 . S
C782 C783 1.386 . S
C782 C784 1.391 . S
C783 C782 1.386 . S
C783 C787 1.393 . S
C784 H773 0.950 . S
C784 C782 1.391 . S
C784 C785 1.400 . S
C785 C779 1.491 1_655 S
C785 C784 1.400 . S
C785 C786 1.398 . S
C786 H774 0.950 1_655 S
C786 C785 1.398 . S
C786 C787 1.391 . S
C787 H775 0.950 . S
C787 C783 1.393 . S
C787 C786 1.391 . S
H788 C796 0.950 . S
H789 C801 0.950 . S
H790 C798 0.950 . S
H791 C800 0.950 . S
H792 C802 0.950 . S
H793 C804 0.950 . S
H794 C806 0.950 . S
H795 C807 0.950 . S
C796 H788 0.950 . S
C796 C797 1.386 . S
C796 C798 1.391 1_545 S
C797 C796 1.386 . S
C797 C801 1.393 . S
C798 H790 0.950 . S
C798 C796 1.391 1_565 S
C798 C799 1.400 1_565 S
C799 C798 1.400 1_545 S
C799 C800 1.398 . S
C799 C805 1.491 1_545 S
C800 H791 0.950 . S
C800 C799 1.398 . S
C800 C801 1.391 . S
C801 H789 0.950 . S
C801 C797 1.393 . S
C801 C800 1.391 . S
C802 H792 0.950 . S
C802 C803 1.386 . S
C802 C804 1.391 1_565 S
C803 C802 1.386 . S
C803 C807 1.393 . S
C804 H793 0.950 . S
C804 C802 1.391 1_545 S
C804 C805 1.400 1_545 S
C805 C799 1.491 1_565 S
C805 C804 1.400 1_565 S
C805 C806 1.398 . S
C806 H794 0.950 . S
C806 C805 1.398 . S
C806 C807 1.391 . S
C807 H795 0.950 . S
C807 C803 1.393 . S
C807 C806 1.391 . S
H808 C816 0.971 . S
H809 C821 0.950 . S
H810 C818 0.950 . S
H811 C820 0.950 . S
H812 C822 0.971 . S
H813 C824 0.950 . S
H814 C826 0.950 . S
H815 C827 0.950 . S
C816 H808 0.971 . S
C816 C817 1.386 . S
C816 C818 1.391 1_556 S
C817 C816 1.386 . S
C817 C821 1.393 . S
C818 H810 0.950 . S
C818 C816 1.391 1_554 S
C818 C819 1.400 1_554 S
C819 C818 1.400 1_556 S
C819 C820 1.398 1_545 S
C819 C825 1.491 1_446 S
C820 H811 0.950 . S
C820 C819 1.398 1_565 S
C820 C821 1.391 1_565 S
C821 H809 0.950 . S
C821 C817 1.393 . S
C821 C820 1.391 1_545 S
C822 H812 0.971 . S
C822 C823 1.386 . S
C822 C824 1.391 1_554 S
C823 C822 1.386 . S
C823 C827 1.393 . S
C824 H813 0.950 . S
C824 C822 1.391 1_556 S
C824 C825 1.400 1_556 S
C825 C819 1.491 1_664 S
C825 C824 1.400 1_554 S
C825 C826 1.398 1_565 S
C826 H814 0.950 . S
C826 C825 1.398 1_545 S
C826 C827 1.391 1_545 S
C827 H815 0.950 . S
C827 C823 1.393 . S
C827 C826 1.391 1_565 S
H828 C836 0.950 . S
H829 C841 0.950 1_554 S
H830 C838 0.950 . S
H831 C840 0.950 . S
H832 C842 0.950 . S
H833 C844 0.950 . S
H834 C846 0.950 . S
H835 C847 0.950 1_556 S
C836 H828 0.950 . S
C836 C837 1.386 . S
C836 C838 1.391 . S
C837 C836 1.386 . S
C837 C841 1.393 . S
C838 H830 0.950 . S
C838 C836 1.391 . S
C838 C839 1.400 . S
C839 C838 1.400 . S
C839 C840 1.398 1_556 S
C839 C845 1.491 1_556 S
C840 H831 0.950 . S
C840 C839 1.398 1_554 S
C840 C841 1.391 1_554 S
C841 H829 0.950 1_556 S
C841 C837 1.393 . S
C841 C840 1.391 1_556 S
C842 H832 0.950 . S
C842 C843 1.386 . S
C842 C844 1.391 . S
C843 C842 1.386 . S
C843 C847 1.393 . S
C844 H833 0.950 . S
C844 C842 1.391 . S
C844 C845 1.400 . S
C845 C839 1.491 1_554 S
C845 C844 1.400 . S
C845 C846 1.398 1_554 S
C846 H834 0.950 . S
C846 C845 1.398 1_556 S
C846 C847 1.391 1_556 S
C847 H835 0.950 1_554 S
C847 C843 1.393 . S
C847 C846 1.391 1_554 S
H848 C856 0.950 . S
H849 C861 0.950 . S
H850 C858 0.950 . S
H851 C860 0.950 1_455 S
H852 C862 0.950 . S
H853 C864 0.950 . S
H854 C866 0.950 1_655 S
H855 C867 0.950 . S
C856 H848 0.950 . S
C856 C857 1.386 . S
C856 C858 1.391 . S
C857 C856 1.386 . S
C857 C861 1.393 . S
C858 H850 0.950 . S
C858 C856 1.391 . S
C858 C859 1.400 . S
C859 C858 1.400 . S
C859 C860 1.398 . S
C859 C865 1.491 1_655 S
C860 H851 0.950 1_655 S
C860 C859 1.398 . S
C860 C861 1.391 . S
C861 H849 0.950 . S
C861 C857 1.393 . S
C861 C860 1.391 . S
C862 H852 0.950 . S
C862 C863 1.386 . S
C862 C864 1.391 . S
C863 C862 1.386 . S
C863 C867 1.393 . S
C864 H853 0.950 . S
C864 C862 1.391 . S
C864 C865 1.400 . S
C865 C859 1.491 1_455 S
C865 C864 1.400 . S
C865 C866 1.398 . S
C866 H854 0.950 1_455 S
C866 C865 1.398 . S
C866 C867 1.391 . S
C867 H855 0.950 . S
C867 C863 1.393 . S
C867 C866 1.391 . S
H868 C876 0.950 . S
H869 C881 0.950 . S
H870 C878 0.950 1_565 S
H871 C880 0.950 . S
H872 C882 0.950 . S
H873 C884 0.950 1_545 S
H874 C886 0.950 . S
H875 C887 0.950 . S
C876 H868 0.950 . S
C876 C877 1.386 . S
C876 C878 1.391 . S
C877 C876 1.386 . S
C877 C881 1.393 . S
C878 H870 0.950 1_545 S
C878 C876 1.391 . S
C878 C879 1.400 . S
C879 C878 1.400 . S
C879 C880 1.398 . S
C879 C885 1.491 1_545 S
C880 H871 0.950 . S
C880 C879 1.398 . S
C880 C881 1.391 . S
C881 H869 0.950 . S
C881 C877 1.393 . S
C881 C880 1.391 . S
C882 H872 0.950 . S
C882 C883 1.386 . S
C882 C884 1.391 . S
C883 C882 1.386 . S
C883 C887 1.393 . S
C884 H873 0.950 1_565 S
C884 C882 1.391 . S
C884 C885 1.400 . S
C885 C879 1.491 1_565 S
C885 C884 1.400 . S
C885 C886 1.398 . S
C886 H874 0.950 . S
C886 C885 1.398 . S
C886 C887 1.391 . S
C887 H875 0.950 . S
C887 C883 1.393 . S
C887 C886 1.391 . S
H888 C896 0.950 1_554 S
H889 C901 0.950 . S
H890 C898 0.950 . S
H891 C900 0.950 . S
H892 C902 0.950 1_556 S
H893 C904 0.950 . S
H894 C906 0.950 . S
H895 C907 0.950 . S
C896 H888 0.950 1_556 S
C896 C897 1.386 . S
C896 C898 1.391 1_556 S
C897 C896 1.386 . S
C897 C901 1.393 . S
C898 H890 0.950 . S
C898 C896 1.391 1_554 S
C898 C899 1.400 1_554 S
C899 C898 1.400 1_556 S
C899 C900 1.398 . S
C899 C905 1.491 1_556 S
C900 H891 0.950 . S
C900 C899 1.398 . S
C900 C901 1.391 . S
C901 H889 0.950 . S
C901 C897 1.393 . S
C901 C900 1.391 . S
C902 H892 0.950 1_554 S
C902 C903 1.386 . S
C902 C904 1.391 1_554 S
C903 C902 1.386 . S
C903 C907 1.393 . S
C904 H893 0.950 . S
C904 C902 1.391 1_556 S
C904 C905 1.400 1_556 S
C905 C899 1.491 1_554 S
C905 C904 1.400 1_554 S
C905 C906 1.398 . S
C906 H894 0.950 . S
C906 C905 1.398 . S
C906 C907 1.391 . S
C907 H895 0.950 . S
C907 C903 1.393 . S
C907 C906 1.391 . S
H908 C916 0.950 . S
H909 C921 0.950 . S
H910 C918 0.950 . S
H911 C920 0.950 . S
H912 C922 0.950 . S
H913 C924 0.950 . S
H914 C926 0.950 . S
H915 C927 0.950 . S
C916 H908 0.950 . S
C916 C917 1.386 . S
C916 C918 1.391 . S
C917 C916 1.386 . S
C917 C921 1.393 . S
C918 H910 0.950 . S
C918 C916 1.391 . S
C918 C919 1.400 . S
C919 C918 1.400 . S
C919 C920 1.398 . S
C919 C925 1.491 . S
C920 H911 0.950 . S
C920 C919 1.398 . S
C920 C921 1.391 . S
C921 H909 0.950 . S
C921 C917 1.393 . S
C921 C920 1.391 . S
C922 H912 0.950 . S
C922 C923 1.386 . S
C922 C924 1.391 . S
C923 C922 1.386 . S
C923 C927 1.393 . S
C924 H913 0.950 . S
C924 C922 1.391 . S
C924 C925 1.400 . S
C925 C919 1.491 . S
C925 C924 1.400 . S
C925 C926 1.398 . S
C926 H914 0.950 . S
C926 C925 1.398 . S
C926 C927 1.391 . S
C927 H915 0.950 . S
C927 C923 1.393 . S
C927 C926 1.391 . S
H928 C936 0.950 . S
H929 C941 0.950 . S
H930 C938 0.950 1_655 S
H931 C940 0.950 . S
H932 C942 0.950 . S
H933 C944 0.950 1_455 S
H934 C946 0.950 . S
H935 C947 0.950 . S
C936 H928 0.950 . S
C936 C937 1.386 . S
C936 C938 1.391 . S
C937 C936 1.386 . S
C937 C941 1.393 . S
C938 H930 0.950 1_455 S
C938 C936 1.391 . S
C938 C939 1.400 . S
C939 C938 1.400 . S
C939 C940 1.398 . S
C939 C945 1.491 1_455 S
C940 H931 0.950 . S
C940 C939 1.398 . S
C940 C941 1.391 . S
C941 H929 0.950 . S
C941 C937 1.393 . S
C941 C940 1.391 . S
C942 H932 0.950 . S
C942 C943 1.386 . S
C942 C944 1.391 . S
C943 C942 1.386 . S
C943 C947 1.393 . S
C944 H933 0.950 1_655 S
C944 C942 1.391 . S
C944 C945 1.400 . S
C945 C939 1.491 1_655 S
C945 C944 1.400 . S
C945 C946 1.398 . S
C946 H934 0.950 . S
C946 C945 1.398 . S
C946 C947 1.391 . S
C947 H935 0.950 . S
C947 C943 1.393 . S
C947 C946 1.391 . S
H948 C956 0.950 . S
H949 C961 0.950 . S
H950 C958 0.950 . S
H951 C960 0.950 . S
H952 C962 0.950 . S
H953 C964 0.950 . S
H954 C966 0.950 . S
H955 C967 0.950 . S
C956 H948 0.950 . S
C956 C957 1.386 . S
C956 C958 1.391 . S
C957 C956 1.386 . S
C957 C961 1.393 . S
C958 H950 0.950 . S
C958 C956 1.391 . S
C958 C959 1.400 . S
C959 C958 1.400 . S
C959 C960 1.398 . S
C959 C965 1.491 . S
C960 H951 0.950 . S
C960 C959 1.398 . S
C960 C961 1.391 . S
C961 H949 0.950 . S
C961 C957 1.393 . S
C961 C960 1.391 . S
C962 H952 0.950 . S
C962 C963 1.386 . S
C962 C964 1.391 . S
C963 C962 1.386 . S
C963 C967 1.393 . S
C964 H953 0.950 . S
C964 C962 1.391 . S
C964 C965 1.400 . S
C965 C959 1.491 . S
C965 C964 1.400 . S
C965 C966 1.398 . S
C966 H954 0.950 . S
C966 C965 1.398 . S
C966 C967 1.391 . S
C967 H955 0.950 . S
C967 C963 1.393 . S
C967 C966 1.391 . S
H968 C976 0.950 . S
H969 C981 0.950 . S
H970 C978 0.950 . S
H971 C980 0.950 . S
H972 C982 0.950 . S
H973 C984 0.950 . S
H974 C986 0.950 . S
H975 C987 0.950 . S
C976 H968 0.950 . S
C976 C977 1.386 . S
C976 C978 1.391 . S
C977 C976 1.386 . S
C977 C981 1.393 . S
C978 H970 0.950 . S
C978 C976 1.391 . S
C978 C979 1.400 . S
C979 C978 1.400 . S
C979 C980 1.398 . S
C979 C985 1.491 . S
C980 H971 0.950 . S
C980 C979 1.398 . S
C980 C981 1.391 . S
C981 H969 0.950 . S
C981 C977 1.393 . S
C981 C980 1.391 . S
C982 H972 0.950 . S
C982 C983 1.386 . S
C982 C984 1.391 . S
C983 C982 1.386 . S
C983 C987 1.393 . S
C984 H973 0.950 . S
C984 C982 1.391 . S
C984 C985 1.400 . S
C985 C979 1.491 . S
C985 C984 1.400 . S
C985 C986 1.398 . S
C986 H974 0.950 . S
C986 C985 1.398 . S
C986 C987 1.391 . S
C987 H975 0.950 . S
C987 C983 1.393 . S
C987 C986 1.391 . S
H988 C996 0.950 . S
H989 C1001 0.950 . S
H990 C998 0.950 . S
H991 C1000 0.950 . S
H992 C1002 0.950 . S
H993 C1004 0.950 . S
H994 C1006 0.950 . S
H995 C1007 0.950 . S
C996 H988 0.950 . S
C996 C997 1.386 . S
C996 C998 1.391 . S
C997 C996 1.386 . S
C997 C1001 1.393 . S
C998 H990 0.950 . S
C998 C996 1.391 . S
C998 C999 1.400 . S
C999 C998 1.400 . S
C999 C1000 1.398 . S
C999 C1005 1.491 . S
C1000 H991 0.950 . S
C1000 C999 1.398 . S
C1000 C1001 1.391 . S
C1001 H989 0.950 . S
C1001 C997 1.393 . S
C1001 C1000 1.391 . S
C1002 H992 0.950 . S
C1002 C1003 1.386 . S
C1002 C1004 1.391 . S
C1003 C1002 1.386 . S
C1003 C1007 1.393 . S
C1004 H993 0.950 . S
C1004 C1002 1.391 . S
C1004 C1005 1.400 . S
C1005 C999 1.491 . S
C1005 C1004 1.400 . S
C1005 C1006 1.398 . S
C1006 H994 0.950 . S
C1006 C1005 1.398 . S
C1006 C1007 1.391 . S
C1007 H995 0.950 . S
C1007 C1003 1.393 . S
C1007 C1006 1.391 . S
H1008 C1016 0.950 . S
H1009 C1021 0.950 . S
H1010 C1018 0.950 . S
H1011 C1020 0.950 . S
H1012 C1022 0.950 . S
H1013 C1024 0.950 . S
H1014 C1026 0.950 . S
H1015 C1027 0.950 . S
C1016 H1008 0.950 . S
C1016 C1017 1.386 . S
C1016 C1018 1.391 . S
C1017 C1016 1.386 . S
C1017 C1021 1.393 . S
C1018 H1010 0.950 . S
C1018 C1016 1.391 . S
C1018 C1019 1.400 . S
C1019 C1018 1.400 . S
C1019 C1020 1.398 . S
C1019 C1025 1.491 . S
C1020 H1011 0.950 . S
C1020 C1019 1.398 . S
C1020 C1021 1.391 . S
C1021 H1009 0.950 . S
C1021 C1017 1.393 . S
C1021 C1020 1.391 . S
C1022 H1012 0.950 . S
C1022 C1023 1.386 . S
C1022 C1024 1.391 . S
C1023 C1022 1.386 . S
C1023 C1027 1.393 . S
C1024 H1013 0.950 . S
C1024 C1022 1.391 . S
C1024 C1025 1.400 . S
C1025 C1019 1.491 . S
C1025 C1024 1.400 . S
C1025 C1026 1.398 . S
C1026 H1014 0.950 . S
C1026 C1025 1.398 . S
C1026 C1027 1.391 . S
C1027 H1015 0.950 . S
C1027 C1023 1.393 . S
C1027 C1026 1.391 . S
H1028 C1036 0.950 . S
H1029 C1041 0.950 . S
H1030 C1038 0.950 . S
H1031 C1040 0.950 1_545 S
H1032 C1042 0.950 . S
H1033 C1044 0.950 . S
H1034 C1046 0.950 1_565 S
H1035 C1047 0.950 . S
C1036 H1028 0.950 . S
C1036 C1037 1.386 . S
C1036 C1038 1.391 . S
C1037 C1036 1.386 . S
C1037 C1041 1.393 . S
C1038 H1030 0.950 . S
C1038 C1036 1.391 . S
C1038 C1039 1.400 . S
C1039 C1038 1.400 . S
C1039 C1040 1.398 . S
C1039 C1045 1.491 1_565 S
C1040 H1031 0.950 1_565 S
C1040 C1039 1.398 . S
C1040 C1041 1.391 . S
C1041 H1029 0.950 . S
C1041 C1037 1.393 . S
C1041 C1040 1.391 . S
C1042 H1032 0.950 . S
C1042 C1043 1.386 . S
C1042 C1044 1.391 . S
C1043 C1042 1.386 . S
C1043 C1047 1.393 . S
C1044 H1033 0.950 . S
C1044 C1042 1.391 . S
C1044 C1045 1.400 . S
C1045 C1039 1.491 1_545 S
C1045 C1044 1.400 . S
C1045 C1046 1.398 . S
C1046 H1034 0.950 1_545 S
C1046 C1045 1.398 . S
C1046 C1047 1.391 . S
C1047 H1035 0.950 . S
C1047 C1043 1.393 . S
C1047 C1046 1.391 . S
H1048 C1056 0.950 . S
H1049 C1061 0.950 . S
H1050 C1058 0.950 . S
H1051 C1060 0.950 . S
H1052 C1062 0.950 . S
H1053 C1064 0.950 . S
H1054 C1066 0.950 . S
H1055 C1067 0.950 . S
C1056 H1048 0.950 . S
C1056 C1057 1.386 . S
C1056 C1058 1.391 . S
C1057 C1056 1.386 . S
C1057 C1061 1.393 . S
C1058 H1050 0.950 . S
C1058 C1056 1.391 . S
C1058 C1059 1.400 . S
C1059 C1058 1.400 . S
C1059 C1060 1.398 . S
C1059 C1065 1.491 . S
C1060 H1051 0.950 . S
C1060 C1059 1.398 . S
C1060 C1061 1.391 . S
C1061 H1049 0.950 . S
C1061 C1057 1.393 . S
C1061 C1060 1.391 . S
C1062 H1052 0.950 . S
C1062 C1063 1.386 . S
C1062 C1064 1.391 . S
C1063 C1062 1.386 . S
C1063 C1067 1.393 . S
C1064 H1053 0.950 . S
C1064 C1062 1.391 . S
C1064 C1065 1.400 . S
C1065 C1059 1.491 . S
C1065 C1064 1.400 . S
C1065 C1066 1.398 . S
C1066 H1054 0.950 . S
C1066 C1065 1.398 . S
C1066 C1067 1.391 . S
C1067 H1055 0.950 . S
C1067 C1063 1.393 . S
C1067 C1066 1.391 . S
H1068 C1076 0.950 . S
H1069 C1081 0.950 . S
H1070 C1078 0.950 1_556 S
H1071 C1080 0.950 . S
H1072 C1082 0.950 . S
H1073 C1084 0.950 1_554 S
H1074 C1086 0.950 . S
H1075 C1087 0.950 . S
C1076 H1068 0.950 . S
C1076 C1077 1.386 . S
C1076 C1078 1.391 . S
C1077 C1076 1.386 . S
C1077 C1081 1.393 . S
C1078 H1070 0.950 1_554 S
C1078 C1076 1.391 . S
C1078 C1079 1.400 . S
C1079 C1078 1.400 . S
C1079 C1080 1.398 . S
C1079 C1085 1.491 1_554 S
C1080 H1071 0.950 . S
C1080 C1079 1.398 . S
C1080 C1081 1.391 . S
C1081 H1069 0.950 . S
C1081 C1077 1.393 . S
C1081 C1080 1.391 . S
C1082 H1072 0.950 . S
C1082 C1083 1.386 . S
C1082 C1084 1.391 . S
C1083 C1082 1.386 . S
C1083 C1087 1.393 . S
C1084 H1073 0.950 1_556 S
C1084 C1082 1.391 . S
C1084 C1085 1.400 . S
C1085 C1079 1.491 1_556 S
C1085 C1084 1.400 . S
C1085 C1086 1.398 . S
C1086 H1074 0.950 . S
C1086 C1085 1.398 . S
C1086 C1087 1.391 . S
C1087 H1075 0.950 . S
C1087 C1083 1.393 . S
C1087 C1086 1.391 . S
H1088 C1096 0.950 . S
H1089 C1101 0.950 . S
H1090 C1098 0.950 . S
H1091 C1100 0.950 . S
H1092 C1102 0.950 . S
H1093 C1104 0.950 . S
H1094 C1106 0.950 . S
H1095 C1107 0.950 . S
C1096 H1088 0.950 . S
C1096 C1097 1.386 . S
C1096 C1098 1.391 . S
C1097 C1096 1.386 . S
C1097 C1101 1.393 . S
C1098 H1090 0.950 . S
C1098 C1096 1.391 . S
C1098 C1099 1.400 . S
C1099 C1098 1.400 . S
C1099 C1100 1.398 . S
C1099 C1105 1.491 . S
C1100 H1091 0.950 . S
C1100 C1099 1.398 . S
C1100 C1101 1.391 . S
C1101 H1089 0.950 . S
C1101 C1097 1.393 . S
C1101 C1100 1.391 . S
C1102 H1092 0.950 . S
C1102 C1103 1.386 . S
C1102 C1104 1.391 . S
C1103 C1102 1.386 . S
C1103 C1107 1.393 . S
C1104 H1093 0.950 . S
C1104 C1102 1.391 . S
C1104 C1105 1.400 . S
C1105 C1099 1.491 . S
C1105 C1104 1.400 . S
C1105 C1106 1.398 . S
C1106 H1094 0.950 . S
C1106 C1105 1.398 . S
C1106 C1107 1.391 . S
C1107 H1095 0.950 . S
C1107 C1103 1.393 . S
C1107 C1106 1.391 . S
H1108 C1116 0.950 . S
H1109 C1121 0.950 . S
H1110 C1118 0.950 . S
H1111 C1120 0.950 . S
H1112 C1122 0.950 . S
H1113 C1124 0.950 . S
H1114 C1126 0.950 . S
H1115 C1127 0.950 . S
C1116 H1108 0.950 . S
C1116 C1117 1.386 . S
C1116 C1118 1.391 . S
C1117 C1116 1.386 . S
C1117 C1121 1.393 . S
C1118 H1110 0.950 . S
C1118 C1116 1.391 . S
C1118 C1119 1.400 . S
C1119 C1118 1.400 . S
C1119 C1120 1.398 . S
C1119 C1125 1.491 . S
C1120 H1111 0.950 . S
C1120 C1119 1.398 . S
C1120 C1121 1.391 . S
C1121 H1109 0.950 . S
C1121 C1117 1.393 . S
C1121 C1120 1.391 . S
C1122 H1112 0.950 . S
C1122 C1123 1.386 . S
C1122 C1124 1.391 . S
C1123 C1122 1.386 . S
C1123 C1127 1.393 . S
C1124 H1113 0.950 . S
C1124 C1122 1.391 . S
C1124 C1125 1.400 . S
C1125 C1119 1.491 . S
C1125 C1124 1.400 . S
C1125 C1126 1.398 . S
C1126 H1114 0.950 . S
C1126 C1125 1.398 . S
C1126 C1127 1.391 . S
C1127 H1115 0.950 . S
C1127 C1123 1.393 . S
C1127 C1126 1.391 . S
H1128 C1136 0.949 . S
H1129 C1141 0.950 . S
H1130 C1138 0.950 . S
H1131 C1140 0.950 . S
H1132 C1142 0.950 . S
H1133 C1144 0.950 . S
H1134 C1146 0.950 . S
H1135 C1147 0.950 . S
C1136 H1128 0.949 . S
C1136 C1137 1.386 . S
C1136 C1138 1.391 . S
C1137 C1136 1.386 . S
C1137 C1141 1.393 . S
C1138 H1130 0.950 . S
C1138 C1136 1.391 . S
C1138 C1139 1.400 . S
C1139 C1138 1.400 . S
C1139 C1140 1.398 . S
C1139 C1145 1.491 . S
C1140 H1131 0.950 . S
C1140 C1139 1.398 . S
C1140 C1141 1.391 . S
C1141 H1129 0.950 . S
C1141 C1137 1.393 . S
C1141 C1140 1.391 . S
C1142 H1132 0.950 . S
C1142 C1143 1.386 . S
C1142 C1144 1.391 . S
C1143 C1142 1.386 . S
C1143 C1147 1.393 . S
C1144 H1133 0.950 . S
C1144 C1142 1.391 . S
C1144 C1145 1.400 . S
C1145 C1139 1.491 . S
C1145 C1144 1.400 . S
C1145 C1146 1.398 . S
C1146 H1134 0.950 . S
C1146 C1145 1.398 . S
C1146 C1147 1.391 . S
C1147 H1135 0.950 . S
C1147 C1143 1.393 . S
C1147 C1146 1.391 . S
H1148 C1156 0.950 . S
H1149 C1161 0.950 . S
H1150 C1158 0.950 . S
H1151 C1160 0.950 . S
H1152 C1162 0.950 . S
H1153 C1164 0.950 . S
H1154 C1166 0.950 . S
H1155 C1167 0.950 . S
C1156 H1148 0.950 . S
C1156 C1157 1.386 . S
C1156 C1158 1.391 . S
C1157 C1156 1.386 . S
C1157 C1161 1.393 . S
C1158 H1150 0.950 . S
C1158 C1156 1.391 . S
C1158 C1159 1.400 . S
C1159 C1158 1.400 . S
C1159 C1160 1.398 . S
C1159 C1165 1.491 . S
C1160 H1151 0.950 . S
C1160 C1159 1.398 . S
C1160 C1161 1.391 . S
C1161 H1149 0.950 . S
C1161 C1157 1.393 . S
C1161 C1160 1.391 . S
C1162 H1152 0.950 . S
C1162 C1163 1.386 . S
C1162 C1164 1.391 . S
C1163 C1162 1.386 . S
C1163 C1167 1.393 . S
C1164 H1153 0.950 . S
C1164 C1162 1.391 . S
C1164 C1165 1.400 . S
C1165 C1159 1.491 . S
C1165 C1164 1.400 . S
C1165 C1166 1.398 . S
C1166 H1154 0.950 . S
C1166 C1165 1.398 . S
C1166 C1167 1.391 . S
C1167 H1155 0.950 . S
C1167 C1163 1.393 . S
C1167 C1166 1.391 . S
H1168 C1176 0.950 . S
H1169 C1181 0.950 . S
H1170 C1178 0.950 . S
H1171 C1180 0.950 . S
H1172 C1182 0.950 . S
H1173 C1184 0.950 . S
H1174 C1186 0.950 . S
H1175 C1187 0.950 . S
C1176 H1168 0.950 . S
C1176 C1177 1.386 . S
C1176 C1178 1.391 . S
C1177 C1176 1.386 . S
C1177 C1181 1.393 . S
C1178 H1170 0.950 . S
C1178 C1176 1.391 . S
C1178 C1179 1.400 . S
C1179 C1178 1.400 . S
C1179 C1180 1.398 . S
C1179 C1185 1.491 . S
C1180 H1171 0.950 . S
C1180 C1179 1.398 . S
C1180 C1181 1.391 . S
C1181 H1169 0.950 . S
C1181 C1177 1.393 . S
C1181 C1180 1.391 . S
C1182 H1172 0.950 . S
C1182 C1183 1.386 . S
C1182 C1184 1.391 . S
C1183 C1182 1.386 . S
C1183 C1187 1.393 . S
C1184 H1173 0.950 . S
C1184 C1182 1.391 . S
C1184 C1185 1.400 . S
C1185 C1179 1.491 . S
C1185 C1184 1.400 . S
C1185 C1186 1.398 . S
C1186 H1174 0.950 . S
C1186 C1185 1.398 . S
C1186 C1187 1.391 . S
C1187 H1175 0.950 . S
C1187 C1183 1.393 . S
C1187 C1186 1.391 . S
H1188 C1196 0.950 . S
H1189 C1201 0.950 1_565 S
H1190 C1198 0.950 . S
H1191 C1200 0.950 . S
H1192 C1202 0.950 . S
H1193 C1204 0.950 . S
H1194 C1206 0.950 . S
H1195 C1207 0.950 . S
C1196 H1188 0.950 . S
C1196 C1197 1.398 . S
C1196 C1198 1.391 . S
C1197 C1196 1.398 . S
C1197 C1201 1.396 . S
C1198 H1190 0.950 . S
C1198 C1196 1.391 . S
C1198 C1199 1.400 . S
C1199 C1198 1.400 . S
C1199 C1200 1.398 . S
C1199 C1205 1.491 . S
C1200 H1191 0.950 . S
C1200 C1199 1.398 . S
C1200 C1201 1.391 . S
C1201 H1189 0.950 1_545 S
C1201 C1197 1.396 . S
C1201 C1200 1.391 . S
C1202 H1192 0.950 . S
C1202 C1203 1.386 . S
C1202 C1204 1.391 . S
C1203 C1202 1.386 . S
C1203 C1207 1.393 . S
C1204 H1193 0.950 . S
C1204 C1202 1.391 . S
C1204 C1205 1.400 . S
C1205 C1199 1.491 . S
C1205 C1204 1.400 . S
C1205 C1206 1.398 . S
C1206 H1194 0.950 . S
C1206 C1205 1.398 . S
C1206 C1207 1.391 . S
C1207 H1195 0.950 . S
C1207 C1203 1.393 . S
C1207 C1206 1.391 . S
H1208 C1216 0.950 . S
H1209 C1221 0.950 . S
H1210 C1218 0.950 . S
H1211 C1220 0.950 . S
H1212 C1222 0.950 1_565 S
H1213 C1224 0.950 . S
H1214 C1226 0.950 . S
H1215 C1227 0.950 . S
C1216 H1208 0.950 . S
C1216 C1217 1.386 . S
C1216 C1218 1.391 . S
C1217 C1216 1.386 . S
C1217 C1221 1.393 . S
C1218 H1210 0.950 . S
C1218 C1216 1.391 . S
C1218 C1219 1.400 . S
C1219 C1218 1.400 . S
C1219 C1220 1.398 . S
C1219 C1225 1.491 . S
C1220 H1211 0.950 . S
C1220 C1219 1.398 . S
C1220 C1221 1.391 . S
C1221 H1209 0.950 . S
C1221 C1217 1.393 . S
C1221 C1220 1.391 . S
C1222 H1212 0.950 1_545 S
C1222 C1223 1.386 . S
C1222 C1224 1.391 . S
C1223 C1222 1.386 . S
C1223 C1227 1.393 . S
C1224 H1213 0.950 . S
C1224 C1222 1.391 . S
C1224 C1225 1.400 . S
C1225 C1219 1.491 . S
C1225 C1224 1.400 . S
C1225 C1226 1.398 . S
C1226 H1214 0.950 . S
C1226 C1225 1.398 . S
C1226 C1227 1.391 . S
C1227 H1215 0.950 . S
C1227 C1223 1.393 . S
C1227 C1226 1.391 . S
H1228 C1236 0.950 . S
H1229 C1241 0.950 . S
H1230 C1238 0.950 . S
H1231 C1240 0.950 . S
H1232 C1242 0.950 . S
H1233 C1244 0.950 . S
H1234 C1246 0.950 . S
H1235 C1247 0.950 . S
C1236 H1228 0.950 . S
C1236 C1237 1.386 . S
C1236 C1238 1.391 . S
C1237 C1236 1.386 . S
C1237 C1241 1.393 . S
C1238 H1230 0.950 . S
C1238 C1236 1.391 . S
C1238 C1239 1.400 . S
C1239 C1238 1.400 . S
C1239 C1240 1.398 . S
C1239 C1245 1.491 . S
C1240 H1231 0.950 . S
C1240 C1239 1.398 . S
C1240 C1241 1.391 . S
C1241 H1229 0.950 . S
C1241 C1237 1.393 . S
C1241 C1240 1.391 . S
C1242 H1232 0.950 . S
C1242 C1243 1.386 . S
C1242 C1244 1.391 . S
C1243 C1242 1.386 . S
C1243 C1247 1.393 . S
C1244 H1233 0.950 . S
C1244 C1242 1.391 . S
C1244 C1245 1.400 . S
C1245 C1239 1.491 . S
C1245 C1244 1.400 . S
C1245 C1246 1.398 . S
C1246 H1234 0.950 . S
C1246 C1245 1.398 . S
C1246 C1247 1.391 . S
C1247 H1235 0.950 . S
C1247 C1243 1.393 . S
C1247 C1246 1.391 . S
H1248 C1256 0.950 . S
H1249 C1261 0.950 . S
H1250 C1258 0.950 . S
H1251 C1260 0.950 . S
H1252 C1262 0.950 . S
H1253 C1264 0.950 . S
H1254 C1266 0.950 . S
H1255 C1267 0.950 . S
C1256 H1248 0.950 . S
C1256 C1257 1.386 . S
C1256 C1258 1.391 . S
C1257 C1256 1.386 . S
C1257 C1261 1.393 . S
C1258 H1250 0.950 . S
C1258 C1256 1.391 . S
C1258 C1259 1.400 . S
C1259 C1258 1.400 . S
C1259 C1260 1.398 . S
C1259 C1265 1.491 . S
C1260 H1251 0.950 . S
C1260 C1259 1.398 . S
C1260 C1261 1.391 . S
C1261 H1249 0.950 . S
C1261 C1257 1.393 . S
C1261 C1260 1.391 . S
C1262 H1252 0.950 . S
C1262 C1263 1.386 . S
C1262 C1264 1.391 . S
C1263 C1262 1.386 . S
C1263 C1267 1.393 . S
C1264 H1253 0.950 . S
C1264 C1262 1.391 . S
C1264 C1265 1.400 . S
C1265 C1259 1.491 . S
C1265 C1264 1.400 . S
C1265 C1266 1.398 . S
C1266 H1254 0.950 . S
C1266 C1265 1.398 . S
C1266 C1267 1.391 . S
C1267 H1255 0.950 . S
C1267 C1263 1.393 . S
C1267 C1266 1.391 . S
H1268 C1276 0.950 . S
H1269 C1281 0.950 . S
H1270 C1278 0.950 . S
H1271 C1280 0.950 . S
H1272 C1282 0.950 1_545 S
H1273 C1284 0.950 . S
H1274 C1286 0.950 . S
H1275 C1287 0.950 . S
C1276 H1268 0.950 . S
C1276 C1277 1.386 . S
C1276 C1278 1.391 . S
C1277 C1276 1.386 . S
C1277 C1281 1.393 . S
C1278 H1270 0.950 . S
C1278 C1276 1.391 . S
C1278 C1279 1.400 . S
C1279 C1278 1.400 . S
C1279 C1280 1.398 . S
C1279 C1285 1.491 . S
C1280 H1271 0.950 . S
C1280 C1279 1.398 . S
C1280 C1281 1.391 . S
C1281 H1269 0.950 . S
C1281 C1277 1.393 . S
C1281 C1280 1.391 . S
C1282 H1272 0.950 1_565 S
C1282 C1283 1.386 . S
C1282 C1284 1.391 . S
C1283 C1282 1.386 . S
C1283 C1287 1.393 . S
C1284 H1273 0.950 . S
C1284 C1282 1.391 . S
C1284 C1285 1.400 . S
C1285 C1279 1.491 . S
C1285 C1284 1.400 . S
C1285 C1286 1.398 . S
C1286 H1274 0.950 . S
C1286 C1285 1.398 . S
C1286 C1287 1.391 . S
C1287 H1275 0.950 . S
C1287 C1283 1.393 . S
C1287 C1286 1.391 . S
H1288 C1296 0.950 . S
H1289 C1301 0.950 . S
H1290 C1298 0.950 . S
H1291 C1300 0.950 . S
H1292 C1302 0.950 1_545 S
H1293 C1304 0.950 . S
H1294 C1306 0.950 . S
H1295 C1307 0.950 . S
C1296 H1288 0.950 . S
C1296 C1297 1.386 . S
C1296 C1298 1.391 . S
C1297 C1296 1.386 . S
C1297 C1301 1.393 . S
C1298 H1290 0.950 . S
C1298 C1296 1.391 . S
C1298 C1299 1.400 . S
C1299 C1298 1.400 . S
C1299 C1300 1.398 . S
C1299 C1305 1.491 . S
C1300 H1291 0.950 . S
C1300 C1299 1.398 . S
C1300 C1301 1.391 . S
C1301 H1289 0.950 . S
C1301 C1297 1.393 . S
C1301 C1300 1.391 . S
C1302 H1292 0.950 1_565 S
C1302 C1303 1.391 . S
C1302 C1304 1.391 . S
C1303 C1302 1.391 . S
C1303 C1307 1.402 . S
C1304 H1293 0.950 . S
C1304 C1302 1.391 . S
C1304 C1305 1.400 . S
C1305 C1299 1.491 . S
C1305 C1304 1.400 . S
C1305 C1306 1.398 . S
C1306 H1294 0.950 . S
C1306 C1305 1.398 . S
C1306 C1307 1.391 . S
C1307 H1295 0.950 . S
C1307 C1303 1.402 . S
C1307 C1306 1.391 . S
H1308 C1316 0.950 . S
H1309 C1321 0.950 . S
H1310 C1318 0.950 . S
H1311 C1320 0.950 . S
H1312 C1322 0.950 . S
H1313 C1324 0.950 . S
H1314 C1326 0.950 . S
H1315 C1327 0.950 . S
C1316 H1308 0.950 . S
C1316 C1317 1.386 . S
C1316 C1318 1.391 . S
C1317 C1316 1.386 . S
C1317 C1321 1.393 . S
C1318 H1310 0.950 . S
C1318 C1316 1.391 . S
C1318 C1319 1.400 . S
C1319 C1318 1.400 . S
C1319 C1320 1.398 . S
C1319 C1325 1.491 . S
C1320 H1311 0.950 . S
C1320 C1319 1.398 . S
C1320 C1321 1.391 . S
C1321 H1309 0.950 . S
C1321 C1317 1.393 . S
C1321 C1320 1.391 . S
C1322 H1312 0.950 . S
C1322 C1323 1.386 . S
C1322 C1324 1.391 . S
C1323 C1322 1.386 . S
C1323 C1327 1.393 . S
C1324 H1313 0.950 . S
C1324 C1322 1.391 . S
C1324 C1325 1.400 . S
C1325 C1319 1.491 . S
C1325 C1324 1.400 . S
C1325 C1326 1.398 . S
C1326 H1314 0.950 . S
C1326 C1325 1.398 . S
C1326 C1327 1.391 . S
C1327 H1315 0.950 . S
C1327 C1323 1.393 . S
C1327 C1326 1.391 . S
H1328 C1336 0.950 . S
H1329 C1341 0.950 . S
H1330 C1338 0.950 . S
H1331 C1340 0.950 . S
H1332 C1342 0.950 . S
H1333 C1344 0.950 . S
H1334 C1346 0.950 . S
H1335 C1347 0.950 . S
C1336 H1328 0.950 . S
C1336 C1337 1.386 . S
C1336 C1338 1.391 . S
C1337 C1336 1.386 . S
C1337 C1341 1.393 . S
C1338 H1330 0.950 . S
C1338 C1336 1.391 . S
C1338 C1339 1.400 . S
C1339 C1338 1.400 . S
C1339 C1340 1.398 . S
C1339 C1345 1.491 . S
C1340 H1331 0.950 . S
C1340 C1339 1.398 . S
C1340 C1341 1.391 . S
C1341 H1329 0.950 . S
C1341 C1337 1.393 . S
C1341 C1340 1.391 . S
C1342 H1332 0.950 . S
C1342 C1343 1.386 . S
C1342 C1344 1.391 . S
C1343 C1342 1.386 . S
C1343 C1347 1.393 . S
C1344 H1333 0.950 . S
C1344 C1342 1.391 . S
C1344 C1345 1.400 . S
C1345 C1339 1.491 . S
C1345 C1344 1.400 . S
C1345 C1346 1.398 . S
C1346 H1334 0.950 . S
C1346 C1345 1.398 . S
C1346 C1347 1.391 . S
C1347 H1335 0.950 . S
C1347 C1343 1.393 . S
C1347 C1346 1.391 . S
H1348 C1356 0.950 . S
H1349 C1361 0.950 . S
H1350 C1358 0.950 . S
H1351 C1360 0.950 . S
H1352 C1362 0.950 . S
H1353 C1364 0.950 . S
H1354 C1366 0.950 . S
H1355 C1367 0.950 . S
C1356 H1348 0.950 . S
C1356 C1357 1.386 . S
C1356 C1358 1.391 . S
C1357 C1356 1.386 . S
C1357 C1361 1.393 . S
C1358 H1350 0.950 . S
C1358 C1356 1.391 . S
C1358 C1359 1.400 . S
C1359 C1358 1.400 . S
C1359 C1360 1.398 . S
C1359 C1365 1.491 . S
C1360 H1351 0.950 . S
C1360 C1359 1.398 . S
C1360 C1361 1.391 . S
C1361 H1349 0.950 . S
C1361 C1357 1.393 . S
C1361 C1360 1.391 . S
C1362 H1352 0.950 . S
C1362 C1363 1.386 . S
C1362 C1364 1.391 . S
C1363 C1362 1.386 . S
C1363 C1367 1.393 . S
C1364 H1353 0.950 . S
C1364 C1362 1.391 . S
C1364 C1365 1.400 . S
C1365 C1359 1.491 . S
C1365 C1364 1.400 . S
C1365 C1366 1.398 . S
C1366 H1354 0.950 . S
C1366 C1365 1.398 . S
C1366 C1367 1.391 . S
C1367 H1355 0.950 . S
C1367 C1363 1.393 . S
C1367 C1366 1.391 . S
H1368 C1376 0.950 . S
H1369 C1381 0.950 . S
H1370 C1378 0.950 . S
H1371 C1380 0.950 . S
H1372 C1382 0.950 . S
H1373 C1384 0.950 . S
H1374 C1386 0.950 . S
H1375 C1387 0.950 . S
C1376 H1368 0.950 . S
C1376 C1377 1.386 . S
C1376 C1378 1.391 . S
C1377 C1376 1.386 . S
C1377 C1381 1.393 . S
C1378 H1370 0.950 . S
C1378 C1376 1.391 . S
C1378 C1379 1.400 . S
C1379 C1378 1.400 . S
C1379 C1380 1.398 . S
C1379 C1385 1.491 . S
C1380 H1371 0.950 . S
C1380 C1379 1.398 . S
C1380 C1381 1.391 . S
C1381 H1369 0.950 . S
C1381 C1377 1.393 . S
C1381 C1380 1.391 . S
C1382 H1372 0.950 . S
C1382 C1383 1.386 . S
C1382 C1384 1.391 . S
C1383 C1382 1.386 . S
C1383 C1387 1.393 . S
C1384 H1373 0.950 . S
C1384 C1382 1.391 . S
C1384 C1385 1.400 . S
C1385 C1379 1.491 . S
C1385 C1384 1.400 . S
C1385 C1386 1.398 . S
C1386 H1374 0.950 . S
C1386 C1385 1.398 . S
C1386 C1387 1.391 . S
C1387 H1375 0.950 . S
C1387 C1383 1.393 . S
C1387 C1386 1.391 . S
H1388 C1396 0.950 . S
H1389 C1401 0.950 . S
H1390 C1398 0.950 . S
H1391 C1400 0.950 . S
H1392 C1402 0.950 . S
H1393 C1404 0.950 . S
H1394 C1406 0.950 . S
H1395 C1407 0.950 . S
C1396 H1388 0.950 . S
C1396 C1397 1.386 . S
C1396 C1398 1.391 . S
C1397 C1396 1.386 . S
C1397 C1401 1.393 . S
C1398 H1390 0.950 . S
C1398 C1396 1.391 . S
C1398 C1399 1.400 . S
C1399 C1398 1.400 . S
C1399 C1400 1.398 . S
C1399 C1405 1.491 . S
C1400 H1391 0.950 . S
C1400 C1399 1.398 . S
C1400 C1401 1.391 . S
C1401 H1389 0.950 . S
C1401 C1397 1.393 . S
C1401 C1400 1.391 . S
C1402 H1392 0.950 . S
C1402 C1403 1.386 . S
C1402 C1404 1.391 . S
C1403 C1402 1.386 . S
C1403 C1407 1.393 . S
C1404 H1393 0.950 . S
C1404 C1402 1.391 . S
C1404 C1405 1.400 . S
C1405 C1399 1.491 . S
C1405 C1404 1.400 . S
C1405 C1406 1.398 . S
C1406 H1394 0.950 . S
C1406 C1405 1.398 . S
C1406 C1407 1.391 . S
C1407 H1395 0.950 . S
C1407 C1403 1.393 . S
C1407 C1406 1.391 . S
H1408 C1416 0.950 . S
H1409 C1421 0.950 . S
H1410 C1418 0.950 . S
H1411 C1420 0.950 . S
H1412 C1422 0.950 . S
H1413 C1424 0.950 . S
H1414 C1426 0.950 . S
H1415 C1427 0.950 1_545 S
C1416 H1408 0.950 . S
C1416 C1417 1.386 . S
C1416 C1418 1.391 . S
C1417 C1416 1.386 . S
C1417 C1421 1.393 . S
C1418 H1410 0.950 . S
C1418 C1416 1.391 . S
C1418 C1419 1.400 . S
C1419 C1418 1.400 . S
C1419 C1420 1.398 . S
C1419 C1425 1.491 . S
C1420 H1411 0.950 . S
C1420 C1419 1.398 . S
C1420 C1421 1.391 . S
C1421 H1409 0.950 . S
C1421 C1417 1.393 . S
C1421 C1420 1.391 . S
C1422 H1412 0.950 . S
C1422 C1423 1.386 . S
C1422 C1424 1.391 . S
C1423 C1422 1.386 . S
C1423 C1427 1.393 . S
C1424 H1413 0.950 . S
C1424 C1422 1.391 . S
C1424 C1425 1.400 . S
C1425 C1419 1.491 . S
C1425 C1424 1.400 . S
C1425 C1426 1.398 . S
C1426 H1414 0.950 . S
C1426 C1425 1.398 . S
C1426 C1427 1.391 . S
C1427 H1415 0.950 1_565 S
C1427 C1423 1.393 . S
C1427 C1426 1.391 . S
H1428 C1436 0.950 . S
H1429 C1441 0.950 . S
H1430 C1438 0.950 . S
H1431 C1440 0.950 . S
H1432 C1442 0.950 . S
H1433 C1444 0.950 . S
H1434 C1446 0.950 . S
H1435 C1447 0.950 . S
C1436 H1428 0.950 . S
C1436 C1437 1.386 . S
C1436 C1438 1.391 . S
C1437 C1436 1.386 . S
C1437 C1441 1.393 . S
C1438 H1430 0.950 . S
C1438 C1436 1.391 . S
C1438 C1439 1.400 . S
C1439 C1438 1.400 . S
C1439 C1440 1.398 . S
C1439 C1445 1.491 . S
C1440 H1431 0.950 . S
C1440 C1439 1.398 . S
C1440 C1441 1.391 . S
C1441 H1429 0.950 . S
C1441 C1437 1.393 . S
C1441 C1440 1.391 . S
C1442 H1432 0.950 . S
C1442 C1443 1.386 . S
C1442 C1444 1.391 . S
C1443 C1442 1.386 . S
C1443 C1447 1.393 . S
C1444 H1433 0.950 . S
C1444 C1442 1.391 . S
C1444 C1445 1.400 . S
C1445 C1439 1.491 . S
C1445 C1444 1.400 . S
C1445 C1446 1.398 . S
C1446 H1434 0.950 . S
C1446 C1445 1.398 . S
C1446 C1447 1.391 . S
C1447 H1435 0.950 . S
C1447 C1443 1.393 . S
C1447 C1446 1.391 . S
H1448 C1456 0.950 . S
H1449 C1461 0.950 . S
H1450 C1458 0.950 . S
H1451 C1460 0.950 . S
H1452 C1462 0.950 . S
H1453 C1464 0.950 . S
H1454 C1466 0.950 . S
H1455 C1467 0.950 . S
C1456 H1448 0.950 . S
C1456 C1457 1.386 . S
C1456 C1458 1.391 . S
C1457 C1456 1.386 . S
C1457 C1461 1.393 . S
C1458 H1450 0.950 . S
C1458 C1456 1.391 . S
C1458 C1459 1.400 . S
C1459 C1458 1.400 . S
C1459 C1460 1.398 . S
C1459 C1465 1.491 . S
C1460 H1451 0.950 . S
C1460 C1459 1.398 . S
C1460 C1461 1.391 . S
C1461 H1449 0.950 . S
C1461 C1457 1.393 . S
C1461 C1460 1.391 . S
C1462 H1452 0.950 . S
C1462 C1463 1.386 . S
C1462 C1464 1.391 . S
C1463 C1462 1.386 . S
C1463 C1467 1.393 . S
C1464 H1453 0.950 . S
C1464 C1462 1.391 . S
C1464 C1465 1.400 . S
C1465 C1459 1.491 . S
C1465 C1464 1.400 . S
C1465 C1466 1.398 . S
C1466 H1454 0.950 . S
C1466 C1465 1.398 . S
C1466 C1467 1.391 . S
C1467 H1455 0.950 . S
C1467 C1463 1.393 . S
C1467 C1466 1.391 . S
H1468 C1476 0.950 . S
H1469 C1481 0.950 . S
H1470 C1478 0.950 . S
H1471 C1480 0.950 . S
H1472 C1482 0.950 . S
H1473 C1484 0.950 . S
H1474 C1486 0.950 . S
H1475 C1487 0.950 . S
C1476 H1468 0.950 . S
C1476 C1477 1.386 . S
C1476 C1478 1.391 . S
C1477 C1476 1.386 . S
C1477 C1481 1.393 . S
C1478 H1470 0.950 . S
C1478 C1476 1.391 . S
C1478 C1479 1.400 . S
C1479 C1478 1.400 . S
C1479 C1480 1.398 . S
C1479 C1485 1.491 . S
C1480 H1471 0.950 . S
C1480 C1479 1.398 . S
C1480 C1481 1.391 . S
C1481 H1469 0.950 . S
C1481 C1477 1.393 . S
C1481 C1480 1.391 . S
C1482 H1472 0.950 . S
C1482 C1483 1.386 . S
C1482 C1484 1.391 . S
C1483 C1482 1.386 . S
C1483 C1487 1.393 . S
C1484 H1473 0.950 . S
C1484 C1482 1.391 . S
C1484 C1485 1.400 . S
C1485 C1479 1.491 . S
C1485 C1484 1.400 . S
C1485 C1486 1.398 . S
C1486 H1474 0.950 . S
C1486 C1485 1.398 . S
C1486 C1487 1.391 . S
C1487 H1475 0.950 . S
C1487 C1483 1.393 . S
C1487 C1486 1.391 . S
H1488 C1496 0.950 . S
H1489 C1501 0.950 . S
H1490 C1498 0.950 . S
H1491 C1500 0.950 . S
H1492 C1502 0.950 1_565 S
H1493 C1504 0.950 . S
H1494 C1506 0.950 . S
H1495 C1507 0.950 . S
C1496 H1488 0.950 . S
C1496 C1497 1.386 . S
C1496 C1498 1.391 . S
C1497 C1496 1.386 . S
C1497 C1501 1.393 . S
C1498 H1490 0.950 . S
C1498 C1496 1.391 . S
C1498 C1499 1.400 . S
C1499 C1498 1.400 . S
C1499 C1500 1.398 . S
C1499 C1505 1.491 . S
C1500 H1491 0.950 . S
C1500 C1499 1.398 . S
C1500 C1501 1.391 . S
C1501 H1489 0.950 . S
C1501 C1497 1.393 . S
C1501 C1500 1.391 . S
C1502 H1492 0.950 1_545 S
C1502 C1503 1.386 . S
C1502 C1504 1.391 . S
C1503 C1502 1.386 . S
C1503 C1507 1.393 . S
C1504 H1493 0.950 . S
C1504 C1502 1.391 . S
C1504 C1505 1.400 . S
C1505 C1499 1.491 . S
C1505 C1504 1.400 . S
C1505 C1506 1.398 . S
C1506 H1494 0.950 . S
C1506 C1505 1.398 . S
C1506 C1507 1.391 . S
C1507 H1495 0.950 . S
C1507 C1503 1.393 . S
C1507 C1506 1.391 . S
H1508 C1516 0.950 . S
H1509 C1521 0.950 . S
H1510 C1518 0.950 . S
H1511 C1520 0.950 . S
H1512 C1522 0.950 . S
H1513 C1524 0.950 . S
H1514 C1526 0.950 . S
H1515 C1527 0.950 . S
C1516 H1508 0.950 . S
C1516 C1517 1.386 . S
C1516 C1518 1.391 . S
C1517 C1516 1.386 . S
C1517 C1521 1.393 . S
C1518 H1510 0.950 . S
C1518 C1516 1.391 . S
C1518 C1519 1.400 . S
C1519 C1518 1.400 . S
C1519 C1520 1.398 . S
C1519 C1525 1.491 . S
C1520 H1511 0.950 . S
C1520 C1519 1.398 . S
C1520 C1521 1.391 . S
C1521 H1509 0.950 . S
C1521 C1517 1.393 . S
C1521 C1520 1.391 . S
C1522 H1512 0.950 . S
C1522 C1523 1.386 . S
C1522 C1524 1.391 . S
C1523 C1522 1.386 . S
C1523 C1527 1.393 . S
C1524 H1513 0.950 . S
C1524 C1522 1.391 . S
C1524 C1525 1.400 . S
C1525 C1519 1.491 . S
C1525 C1524 1.400 . S
C1525 C1526 1.398 . S
C1526 H1514 0.950 . S
C1526 C1525 1.398 . S
C1526 C1527 1.391 . S
C1527 H1515 0.950 . S
C1527 C1523 1.393 . S
C1527 C1526 1.391 . S
H1528 C1536 0.950 . S
H1529 C1541 0.950 . S
H1530 C1538 0.950 . S
H1531 C1540 0.950 . S
H1532 C1542 0.950 . S
H1533 C1544 0.950 . S
H1534 C1546 0.950 . S
H1535 C1547 0.950 . S
C1536 H1528 0.950 . S
C1536 C1537 1.386 . S
C1536 C1538 1.391 . S
C1537 C1536 1.386 . S
C1537 C1541 1.393 . S
C1538 H1530 0.950 . S
C1538 C1536 1.391 . S
C1538 C1539 1.400 . S
C1539 C1538 1.400 . S
C1539 C1540 1.398 . S
C1539 C1545 1.491 . S
C1540 H1531 0.950 . S
C1540 C1539 1.398 . S
C1540 C1541 1.391 . S
C1541 H1529 0.950 . S
C1541 C1537 1.393 . S
C1541 C1540 1.391 . S
C1542 H1532 0.950 . S
C1542 C1543 1.386 . S
C1542 C1544 1.391 . S
C1543 C1542 1.386 . S
C1543 C1547 1.393 . S
C1544 H1533 0.950 . S
C1544 C1542 1.391 . S
C1544 C1545 1.400 . S
C1545 C1539 1.491 . S
C1545 C1544 1.400 . S
C1545 C1546 1.398 . S
C1546 H1534 0.950 . S
C1546 C1545 1.398 . S
C1546 C1547 1.391 . S
C1547 H1535 0.950 . S
C1547 C1543 1.393 . S
C1547 C1546 1.391 . S
H1548 C1556 0.950 . S
H1549 C1561 0.950 . S
H1550 C1558 0.950 . S
H1551 C1560 0.950 . S
H1552 C1562 0.950 1_565 S
H1553 C1564 0.950 . S
H1554 C1566 0.950 . S
H1555 C1567 0.950 . S
C1556 H1548 0.950 . S
C1556 C1557 1.386 . S
C1556 C1558 1.391 . S
C1557 C1556 1.386 . S
C1557 C1561 1.393 . S
C1558 H1550 0.950 . S
C1558 C1556 1.391 . S
C1558 C1559 1.400 . S
C1559 C1558 1.400 . S
C1559 C1560 1.398 . S
C1559 C1565 1.491 . S
C1560 H1551 0.950 . S
C1560 C1559 1.398 . S
C1560 C1561 1.391 . S
C1561 H1549 0.950 . S
C1561 C1557 1.393 . S
C1561 C1560 1.391 . S
C1562 H1552 0.950 1_545 S
C1562 C1563 1.386 . S
C1562 C1564 1.391 . S
C1563 C1562 1.386 . S
C1563 C1567 1.393 . S
C1564 H1553 0.950 . S
C1564 C1562 1.391 . S
C1564 C1565 1.400 . S
C1565 C1559 1.491 . S
C1565 C1564 1.400 . S
C1565 C1566 1.398 . S
C1566 H1554 0.950 . S
C1566 C1565 1.398 . S
C1566 C1567 1.391 . S
C1567 H1555 0.950 . S
C1567 C1563 1.393 . S
C1567 C1566 1.391 . S
H1568 C1576 0.950 . S
H1569 C1581 0.950 . S
H1570 C1578 0.950 . S
H1571 C1580 0.950 . S
H1572 C1582 0.950 . S
H1573 C1584 0.950 . S
H1574 C1586 0.950 . S
H1575 C1587 0.950 1_545 S
C1576 H1568 0.950 . S
C1576 C1577 1.386 . S
C1576 C1578 1.391 . S
C1577 C1576 1.386 . S
C1577 C1581 1.393 . S
C1578 H1570 0.950 . S
C1578 C1576 1.391 . S
C1578 C1579 1.400 . S
C1579 C1578 1.400 . S
C1579 C1580 1.398 . S
C1579 C1585 1.491 . S
C1580 H1571 0.950 . S
C1580 C1579 1.398 . S
C1580 C1581 1.391 . S
C1581 H1569 0.950 . S
C1581 C1577 1.393 . S
C1581 C1580 1.391 . S
C1582 H1572 0.950 . S
C1582 C1583 1.386 . S
C1582 C1584 1.391 . S
C1583 C1582 1.386 . S
C1583 C1587 1.393 . S
C1584 H1573 0.950 . S
C1584 C1582 1.391 . S
C1584 C1585 1.400 . S
C1585 C1579 1.491 . S
C1585 C1584 1.400 . S
C1585 C1586 1.398 . S
C1586 H1574 0.950 . S
C1586 C1585 1.398 . S
C1586 C1587 1.391 . S
C1587 H1575 0.950 1_565 S
C1587 C1583 1.393 . S
C1587 C1586 1.391 . S
H1588 C1596 0.950 . S
H1589 C1601 0.950 . S
H1590 C1598 0.950 . S
H1591 C1600 0.950 . S
H1592 C1602 0.950 . S
H1593 C1604 0.950 . S
H1594 C1606 0.950 . S
H1595 C1607 0.950 . S
C1596 H1588 0.950 . S
C1596 C1597 1.386 . S
C1596 C1598 1.391 . S
C1597 C1596 1.386 . S
C1597 C1601 1.393 . S
C1598 H1590 0.950 . S
C1598 C1596 1.391 . S
C1598 C1599 1.400 . S
C1599 C1598 1.400 . S
C1599 C1600 1.398 . S
C1599 C1605 1.491 . S
C1600 H1591 0.950 . S
C1600 C1599 1.398 . S
C1600 C1601 1.391 . S
C1601 H1589 0.950 . S
C1601 C1597 1.393 . S
C1601 C1600 1.391 . S
C1602 H1592 0.950 . S
C1602 C1603 1.386 . S
C1602 C1604 1.391 . S
C1603 C1602 1.386 . S
C1603 C1607 1.393 . S
C1604 H1593 0.950 . S
C1604 C1602 1.391 . S
C1604 C1605 1.400 . S
C1605 C1599 1.491 . S
C1605 C1604 1.400 . S
C1605 C1606 1.398 . S
C1606 H1594 0.950 . S
C1606 C1605 1.398 . S
C1606 C1607 1.391 . S
C1607 H1595 0.950 . S
C1607 C1603 1.393 . S
C1607 C1606 1.391 . S
H1608 C1616 0.950 . S
H1609 C1621 0.950 . S
H1610 C1618 0.950 . S
H1611 C1620 0.950 . S
H1612 C1622 0.950 . S
H1613 C1624 0.950 . S
H1614 C1626 0.950 . S
H1615 C1627 0.950 . S
C1616 H1608 0.950 . S
C1616 C1617 1.386 . S
C1616 C1618 1.391 . S
C1617 C1616 1.386 . S
C1617 C1621 1.393 . S
C1618 H1610 0.950 . S
C1618 C1616 1.391 . S
C1618 C1619 1.400 . S
C1619 C1618 1.400 . S
C1619 C1620 1.398 . S
C1619 C1625 1.491 . S
C1620 H1611 0.950 . S
C1620 C1619 1.398 . S
C1620 C1621 1.391 . S
C1621 H1609 0.950 . S
C1621 C1617 1.393 . S
C1621 C1620 1.391 . S
C1622 H1612 0.950 . S
C1622 C1623 1.386 . S
C1622 C1624 1.391 . S
C1623 C1622 1.386 . S
C1623 C1627 1.393 . S
C1624 H1613 0.950 . S
C1624 C1622 1.391 . S
C1624 C1625 1.400 . S
C1625 C1619 1.491 . S
C1625 C1624 1.400 . S
C1625 C1626 1.398 . S
C1626 H1614 0.950 . S
C1626 C1625 1.398 . S
C1626 C1627 1.391 . S
C1627 H1615 0.950 . S
C1627 C1623 1.393 . S
C1627 C1626 1.391 . S
H1628 C1636 0.950 . S
H1629 C1641 0.950 1_545 S
H1630 C1638 0.950 . S
H1631 C1640 0.950 . S
H1632 C1642 0.950 . S
H1633 C1644 0.950 . S
H1634 C1646 0.950 . S
H1635 C1647 0.950 . S
C1636 H1628 0.950 . S
C1636 C1637 1.386 . S
C1636 C1638 1.391 . S
C1637 C1636 1.386 . S
C1637 C1641 1.393 . S
C1638 H1630 0.950 . S
C1638 C1636 1.391 . S
C1638 C1639 1.400 . S
C1639 C1638 1.400 . S
C1639 C1640 1.398 . S
C1639 C1645 1.491 . S
C1640 H1631 0.950 . S
C1640 C1639 1.398 . S
C1640 C1641 1.391 . S
C1641 H1629 0.950 1_565 S
C1641 C1637 1.393 . S
C1641 C1640 1.391 . S
C1642 H1632 0.950 . S
C1642 C1643 1.386 . S
C1642 C1644 1.391 . S
C1643 C1642 1.386 . S
C1643 C1647 1.393 . S
C1644 H1633 0.950 . S
C1644 C1642 1.391 . S
C1644 C1645 1.400 . S
C1645 C1639 1.491 . S
C1645 C1644 1.400 . S
C1645 C1646 1.398 . S
C1646 H1634 0.950 . S
C1646 C1645 1.398 . S
C1646 C1647 1.391 . S
C1647 H1635 0.950 . S
C1647 C1643 1.393 . S
C1647 C1646 1.391 . S
H1648 C1656 0.950 . S
H1649 C1661 0.950 . S
H1650 C1658 0.950 . S
H1651 C1660 0.950 . S
H1652 C1662 0.950 1_565 S
H1653 C1664 0.950 . S
H1654 C1666 0.950 . S
H1655 C1667 0.950 . S
C1656 H1648 0.950 . S
C1656 C1657 1.386 . S
C1656 C1658 1.391 . S
C1657 C1656 1.386 . S
C1657 C1661 1.393 . S
C1658 H1650 0.950 . S
C1658 C1656 1.391 . S
C1658 C1659 1.400 . S
C1659 C1658 1.400 . S
C1659 C1660 1.398 . S
C1659 C1665 1.491 . S
C1660 H1651 0.950 . S
C1660 C1659 1.398 . S
C1660 C1661 1.391 . S
C1661 H1649 0.950 . S
C1661 C1657 1.393 . S
C1661 C1660 1.391 . S
C1662 H1652 0.950 1_545 S
C1662 C1663 1.386 . S
C1662 C1664 1.391 . S
C1663 C1662 1.386 . S
C1663 C1667 1.393 . S
C1664 H1653 0.950 . S
C1664 C1662 1.391 . S
C1664 C1665 1.400 . S
C1665 C1659 1.491 . S
C1665 C1664 1.400 . S
C1665 C1666 1.398 . S
C1666 H1654 0.950 . S
C1666 C1665 1.398 . S
C1666 C1667 1.391 . S
C1667 H1655 0.950 . S
C1667 C1663 1.393 . S
C1667 C1666 1.391 . S
H1668 C1676 0.950 . S
H1669 C1681 0.950 . S
H1670 C1678 0.950 . S
H1671 C1680 0.950 . S
H1672 C1682 0.950 . S
H1673 C1684 0.950 . S
H1674 C1686 0.950 . S
H1675 C1687 0.950 . S
C1676 H1668 0.950 . S
C1676 C1677 1.386 . S
C1676 C1678 1.391 . S
C1677 C1676 1.386 . S
C1677 C1681 1.393 . S
C1678 H1670 0.950 . S
C1678 C1676 1.391 . S
C1678 C1679 1.400 . S
C1679 C1678 1.400 . S
C1679 C1680 1.398 . S
C1679 C1685 1.491 . S
C1680 H1671 0.950 . S
C1680 C1679 1.398 . S
C1680 C1681 1.391 . S
C1681 H1669 0.950 . S
C1681 C1677 1.393 . S
C1681 C1680 1.391 . S
C1682 H1672 0.950 . S
C1682 C1683 1.386 . S
C1682 C1684 1.391 . S
C1683 C1682 1.386 . S
C1683 C1687 1.393 . S
C1684 H1673 0.950 . S
C1684 C1682 1.391 . S
C1684 C1685 1.400 . S
C1685 C1679 1.491 . S
C1685 C1684 1.400 . S
C1685 C1686 1.398 . S
C1686 H1674 0.950 . S
C1686 C1685 1.398 . S
C1686 C1687 1.391 . S
C1687 H1675 0.950 . S
C1687 C1683 1.393 . S
C1687 C1686 1.391 . S
H1688 C1696 0.950 . S
H1689 C1701 0.950 . S
H1690 C1698 0.950 . S
H1691 C1700 0.950 . S
H1692 C1702 0.950 . S
H1693 C1704 0.950 . S
H1694 C1706 0.950 . S
H1695 C1707 0.950 . S
C1696 H1688 0.950 . S
C1696 C1697 1.386 . S
C1696 C1698 1.391 . S
C1697 C1696 1.386 . S
C1697 C1701 1.393 . S
C1698 H1690 0.950 . S
C1698 C1696 1.391 . S
C1698 C1699 1.400 . S
C1699 C1698 1.400 . S
C1699 C1700 1.398 . S
C1699 C1705 1.491 . S
C1700 H1691 0.950 . S
C1700 C1699 1.398 . S
C1700 C1701 1.391 . S
C1701 H1689 0.950 . S
C1701 C1697 1.393 . S
C1701 C1700 1.391 . S
C1702 H1692 0.950 . S
C1702 C1703 1.386 . S
C1702 C1704 1.391 . S
C1703 C1702 1.386 . S
C1703 C1707 1.393 . S
C1704 H1693 0.950 . S
C1704 C1702 1.391 . S
C1704 C1705 1.400 . S
C1705 C1699 1.491 . S
C1705 C1704 1.400 . S
C1705 C1706 1.398 . S
C1706 H1694 0.950 . S
C1706 C1705 1.398 . S
C1706 C1707 1.391 . S
C1707 H1695 0.950 . S
C1707 C1703 1.393 . S
C1707 C1706 1.391 . S
H1708 C1716 0.950 . S
H1709 C1721 0.950 . S
H1710 C1718 0.950 . S
H1711 C1720 0.950 . S
H1712 C1722 0.950 . S
H1713 C1724 0.950 . S
H1714 C1726 0.950 . S
H1715 C1727 0.950 . S
C1716 H1708 0.950 . S
C1716 C1717 1.386 . S
C1716 C1718 1.391 . S
C1717 C1716 1.386 . S
C1717 C1721 1.393 . S
C1718 H1710 0.950 . S
C1718 C1716 1.391 . S
C1718 C1719 1.400 . S
C1719 C1718 1.400 . S
C1719 C1720 1.398 . S
C1719 C1725 1.491 . S
C1720 H1711 0.950 . S
C1720 C1719 1.398 . S
C1720 C1721 1.391 . S
C1721 H1709 0.950 . S
C1721 C1717 1.393 . S
C1721 C1720 1.391 . S
C1722 H1712 0.950 . S
C1722 C1723 1.386 . S
C1722 C1724 1.391 . S
C1723 C1722 1.386 . S
C1723 C1727 1.393 . S
C1724 H1713 0.950 . S
C1724 C1722 1.391 . S
C1724 C1725 1.400 . S
C1725 C1719 1.491 . S
C1725 C1724 1.400 . S
C1725 C1726 1.398 . S
C1726 H1714 0.950 . S
C1726 C1725 1.398 . S
C1726 C1727 1.391 . S
C1727 H1715 0.950 . S
C1727 C1723 1.393 . S
C1727 C1726 1.391 . S
C457 C9 1.396 . S
C463 C23 1.396 . S
C477 C51 1.403 . S
C483 C37 1.390 . S
C497 C65 1.403 . S
C503 C79 1.391 . S
C517 C93 1.387 . S
C523 C107 1.405 . S
C537 C121 1.391 . S
C543 C135 1.401 . S
C557 C149 1.401 . S
C563 C163 1.393 . S
C577 C177 1.389 . S
C583 C191 1.405 . S
C597 C205 1.386 . S
C603 C219 1.406 . S
C617 C247 1.394 . S
C623 C233 1.400 . S
C637 C275 1.407 . S
C643 C261 1.386 . S
C657 C303 1.394 . S
C663 C289 1.400 . S
C677 C331 1.387 . S
C683 C317 1.406 . S
C697 C359 1.405 . S
C703 C345 1.387 . S
C717 C387 1.404 . S
C723 C373 1.387 . S
C737 C415 1.388 . S
C743 C401 1.405 . S
C757 C443 1.399 . S
C763 C429 1.392 . S
C777 C8 1.480 . S
C783 C176 1.480 . S
C797 C22 1.469 . S
C803 C302 1.469 . S
C817 C36 1.473 . S
C823 C92 1.473 . S
C837 C50 1.464 . S
C843 C442 1.464 . S
C857 C64 1.468 . S
C863 C120 1.468 . S
C877 C246 1.480 . S
C883 C78 1.480 . S
C897 C386 1.479 . S
C903 C106 1.479 . S
C917 C134 1.471 . S
C923 C414 1.471 . S
C937 C148 1.466 . S
C943 C204 1.466 . S
C957 C162 1.479 . S
C963 C330 1.479 . S
C977 C190 1.463 . S
C983 C358 1.463 . S
C997 C218 1.475 . S
C1003 C274 1.475 . S
C1017 C400 1.470 . S
C1023 C232 1.470 . S
C1037 C316 1.479 . S
C1043 C260 1.479 . S
C1057 C288 1.477 . S
C1063 C344 1.477 . S
C1077 C428 1.464 . S
C1083 C372 1.464 . S
C1097 C147 0.790 . S
C1103 C7 0.800 . S
C1117 C161 0.797 . S
C1123 C21 0.795 1_565 S
C1137 C35 0.794 1_565 S
C1143 C119 0.798 . S
C1157 C133 0.775 . S
C1163 C49 0.770 . S
C1177 C63 0.781 . S
C1183 C203 0.801 . S
C1197 C77 0.751 1_545 S
C1203 C217 0.781 . S
C1217 C175 0.794 . S
C1223 C91 0.771 1_545 S
C1237 C189 0.795 . S
C1243 C105 0.772 . S
C1257 C231 0.770 . S
C1263 C371 0.776 . S
C1277 C385 0.774 . S
C1283 C245 0.797 1_565 S
C1297 C343 0.768 . S
C1303 C259 0.763 1_565 S
C1317 C273 0.786 . S
C1323 C357 0.801 . S
C1337 C427 0.768 . S
C1343 C287 0.780 . S
C1357 C301 0.791 1_545 S
C1363 C441 0.800 . S
C1377 C399 0.795 . S
C1383 C315 0.797 1_545 S
C1397 C413 0.786 . S
C1403 C329 0.801 . S
C1417 C143 1.584 . S
C1423 C3 1.590 1_565 S
C1437 C157 1.584 . S
C1443 C17 1.592 . S
C1457 C115 1.588 . S
C1463 C31 1.590 . S
C1477 C45 1.589 1_565 S
C1483 C129 1.589 . S
C1497 C199 1.587 . S
C1503 C59 1.591 1_545 S
C1517 C213 1.584 . S
C1523 C73 1.591 . S
C1537 C171 1.590 . S
C1543 C87 1.589 . S
C1557 C185 1.585 . S
C1563 C101 1.592 1_545 S
C1577 C367 1.584 . S
C1583 C227 1.590 1_565 S
C1597 C381 1.588 . S
C1603 C241 1.586 . S
C1617 C339 1.590 . S
C1623 C255 1.584 . S
C1637 C269 1.585 1_565 S
C1643 C353 1.592 . S
C1657 C423 1.585 . S
C1663 C283 1.592 1_545 S
C1677 C297 1.587 . S
C1683 C437 1.587 . S
C1697 C395 1.592 . S
C1703 C311 1.585 . S
C1717 C325 1.590 1_545 S
C1723 C409 1.588 . S
