# Generated by pormake.
# Topology sne, (6)-cn, num edge types: 1
# Building blocks:
#     Node 0, Type 0, BuildingBlock: IZENUY_clean_sbu_0, # of connection points: 6
#     Node 1, Type 0, BuildingBlock: IZENUY_clean_sbu_0, # of connection points: 6
#     Node 2, Type 0, BuildingBlock: IZENUY_clean_sbu_0, # of connection points: 6
#     Node 3, Type 0, BuildingBlock: IZENUY_clean_sbu_0, # of connection points: 6
#     Node 4, Type 0, BuildingBlock: IZENUY_clean_sbu_0, # of connection points: 6
#     Node 5, Type 0, BuildingBlock: IZENUY_clean_sbu_0, # of connection points: 6
#     Node 6, Type 0, BuildingBlock: IZENUY_clean_sbu_0, # of connection points: 6
#     Node 7, Type 0, BuildingBlock: IZENUY_clean_sbu_0, # of connection points: 6
#     Edge 8, Type (0, 0), BuildingBlock: EZIPEK_clean_linker_0, # of connection points: 2
#     Edge 9, Type (0, 0), BuildingBlock: EZIPEK_clean_linker_0, # of connection points: 2
#     Edge 10, Type (0, 0), BuildingBlock: EZIPEK_clean_linker_0, # of connection points: 2
#     Edge 11, Type (0, 0), BuildingBlock: EZIPEK_clean_linker_0, # of connection points: 2
#     Edge 12, Type (0, 0), BuildingBlock: EZIPEK_clean_linker_0, # of connection points: 2
#     Edge 13, Type (0, 0), BuildingBlock: EZIPEK_clean_linker_0, # of connection points: 2
#     Edge 14, Type (0, 0), BuildingBlock: EZIPEK_clean_linker_0, # of connection points: 2
#     Edge 15, Type (0, 0), BuildingBlock: EZIPEK_clean_linker_0, # of connection points: 2
#     Edge 16, Type (0, 0), BuildingBlock: EZIPEK_clean_linker_0, # of connection points: 2
#     Edge 17, Type (0, 0), BuildingBlock: EZIPEK_clean_linker_0, # of connection points: 2
#     Edge 18, Type (0, 0), BuildingBlock: EZIPEK_clean_linker_0, # of connection points: 2
#     Edge 19, Type (0, 0), BuildingBlock: EZIPEK_clean_linker_0, # of connection points: 2
#     Edge 20, Type (0, 0), BuildingBlock: EZIPEK_clean_linker_0, # of connection points: 2
#     Edge 21, Type (0, 0), BuildingBlock: EZIPEK_clean_linker_0, # of connection points: 2
#     Edge 22, Type (0, 0), BuildingBlock: EZIPEK_clean_linker_0, # of connection points: 2
#     Edge 23, Type (0, 0), BuildingBlock: EZIPEK_clean_linker_0, # of connection points: 2
#     Edge 24, Type (0, 0), BuildingBlock: EZIPEK_clean_linker_0, # of connection points: 2
#     Edge 25, Type (0, 0), BuildingBlock: EZIPEK_clean_linker_0, # of connection points: 2
#     Edge 26, Type (0, 0), BuildingBlock: EZIPEK_clean_linker_0, # of connection points: 2
#     Edge 27, Type (0, 0), BuildingBlock: EZIPEK_clean_linker_0, # of connection points: 2
#     Edge 28, Type (0, 0), BuildingBlock: EZIPEK_clean_linker_0, # of connection points: 2
#     Edge 29, Type (0, 0), BuildingBlock: EZIPEK_clean_linker_0, # of connection points: 2
#     Edge 30, Type (0, 0), BuildingBlock: EZIPEK_clean_linker_0, # of connection points: 2
#     Edge 31, Type (0, 0), BuildingBlock: EZIPEK_clean_linker_0, # of connection points: 2
# Relax obj value: 0.265
# Max RMSD: 0.254
# Mean RMSD: 0.252
data_MOF--net-sne--node1-IZENUY_clean_sbu_0--edge1-EZIPEK_clean_linker_0
_symmetry_space_group_name_H-M    P1
_symmetry_Int_Tables_number       1
_symmetry_cell_setting            triclinic
loop_
_symmetry_equiv_pos_as_xyz
'x, y, z'
_cell_length_a     25.897457
_cell_length_b     25.82138
_cell_length_c     19.628129
_cell_angle_alpha  89.916773
_cell_angle_beta   89.747956
_cell_angle_gamma 90.254889
loop_
_atom_site_label
_atom_site_type_symbol
_atom_site_fract_x
_atom_site_fract_y
_atom_site_fract_z
_atom_type_partial_charge
Fe0 Fe 0.26875 0.22414 0.36751 0.0
Fe1 Fe 0.21916 0.12004 0.33197 0.0
O2 O 0.26987 0.15581 0.37078 0.0
Fe3 Fe 0.32078 0.12246 0.41111 0.0
O4 O 0.33029 0.17032 0.48035 0.0
O5 O 0.2726 0.23028 0.45818 0.0
O6 O 0.19705 0.22669 0.37823 0.0
C7 C 0.16466 0.19305 0.40011 0.0
C8 C 0.37372 0.19888 0.34209 0.0
O9 O 0.17371 0.14532 0.39333 0.0
C10 C 0.30412 0.06864 0.28615 0.0
O11 O 0.26599 0.22443 0.27605 0.0
O12 O 0.20138 0.17089 0.26829 0.0
O13 O 0.36864 0.15209 0.35761 0.0
O14 O 0.33926 0.23203 0.35618 0.0
C15 C 0.24367 0.05673 0.4463 0.0
O16 O 0.26366 0.09308 0.26997 0.0
O17 O 0.32004 0.07019 0.34747 0.0
C18 C 0.22793 0.20795 0.24368 0.0
O19 O 0.2252 0.06181 0.38698 0.0
O20 O 0.2767 0.08853 0.46777 0.0
C21 C 0.3046 0.20995 0.49786 0.0
Fe22 Fe 0.22074 0.76104 0.61577 0.0
Fe23 Fe 0.12125 0.81824 0.65586 0.0
O24 O 0.15233 0.76577 0.61346 0.0
Fe25 Fe 0.11594 0.71734 0.56957 0.0
O26 O 0.15922 0.66366 0.59125 0.0
O27 O 0.21633 0.69873 0.65949 0.0
O28 O 0.22923 0.79127 0.69825 0.0
C29 C 0.19882 0.79775 0.74735 0.0
C30 C 0.19845 0.72685 0.48254 0.0
O31 O 0.15093 0.80233 0.73776 0.0
C32 C 0.06075 0.80966 0.54087 0.0
O33 O 0.22838 0.82381 0.5732 0.0
O34 O 0.17152 0.86562 0.63529 0.0
O35 O 0.15005 0.72964 0.4892 0.0
O36 O 0.22763 0.7294 0.53347 0.0
C37 C 0.05426 0.73342 0.68304 0.0
O38 O 0.08775 0.83872 0.57859 0.0
O39 O 0.06613 0.76126 0.54071 0.0
C40 C 0.20977 0.86617 0.59505 0.0
O41 O 0.06565 0.7808 0.68358 0.0
O42 O 0.078 0.70161 0.64553 0.0
C43 C 0.19092 0.65952 0.63965 0.0
Fe44 Fe 0.76728 0.81166 0.36996 0.0
Fe45 Fe 0.71272 0.91486 0.39288 0.0
O46 O 0.76608 0.8798 0.36055 0.0
Fe47 Fe 0.81653 0.9136 0.31789 0.0
O48 O 0.83 0.86171 0.25461 0.0
O49 O 0.77315 0.80127 0.28093 0.0
O50 O 0.6961 0.80434 0.35697 0.0
C51 C 0.6638 0.83553 0.33015 0.0
C52 C 0.87181 0.84449 0.39429 0.0
O53 O 0.67104 0.88367 0.33296 0.0
C54 C 0.79097 0.97637 0.43414 0.0
O55 O 0.761 0.81538 0.46028 0.0
O56 O 0.69528 0.86808 0.46183 0.0
O57 O 0.86426 0.89029 0.37584 0.0
O58 O 0.8384 0.80886 0.38421 0.0
C59 C 0.73868 0.97265 0.27326 0.0
O60 O 0.75346 0.94826 0.45286 0.0
O61 O 0.81194 0.9708 0.37553 0.0
C62 C 0.72248 0.83356 0.49004 0.0
O63 O 0.7182 0.96897 0.33181 0.0
O64 O 0.77233 0.94051 0.25567 0.0
C65 C 0.80481 0.82084 0.24018 0.0
Fe66 Fe 0.91073 0.31385 0.57939 0.0
Fe67 Fe 0.90928 0.20798 0.65037 0.0
O68 O 0.8758 0.26257 0.61832 0.0
Fe69 Fe 0.80768 0.26509 0.625 0.0
O70 O 0.80024 0.27068 0.53463 0.0
O71 O 0.86018 0.32963 0.51583 0.0
O72 O 0.93777 0.27139 0.51561 0.0
C73 C 0.96782 0.23533 0.53098 0.0
C74 C 0.83992 0.36821 0.65347 0.0
O75 O 0.96329 0.21241 0.58792 0.0
C76 C 0.82795 0.22174 0.74698 0.0
O77 O 0.96745 0.30675 0.6367 0.0
O78 O 0.94378 0.24713 0.71113 0.0
O79 O 0.80486 0.336 0.63747 0.0
O80 O 0.88656 0.36001 0.63978 0.0
C81 C 0.82885 0.16053 0.58861 0.0
O82 O 0.86192 0.19306 0.71964 0.0
O83 O 0.80994 0.25992 0.71582 0.0
C84 C 0.9735 0.28341 0.69329 0.0
O85 O 0.87705 0.16624 0.59106 0.0
O86 O 0.79881 0.19423 0.61408 0.0
C87 C 0.82052 0.30443 0.49676 0.0
Fe88 Fe 0.31496 0.41259 0.83682 0.0
Fe89 Fe 0.26467 0.30887 0.87901 0.0
O90 O 0.26294 0.37745 0.87377 0.0
Fe91 Fe 0.20806 0.41082 0.90448 0.0
O92 O 0.2133 0.46509 0.84293 0.0
O93 O 0.27448 0.44122 0.77254 0.0
O94 O 0.33088 0.36238 0.77193 0.0
C95 C 0.30467 0.32365 0.75126 0.0
C96 C 0.28213 0.47546 0.95058 0.0
O97 O 0.27135 0.30268 0.78892 0.0
C98 C 0.21963 0.32782 0.00042 0.0
O99 O 0.3595 0.38715 0.89795 0.0
O100 O 0.33511 0.30539 0.8928 0.0
O101 O 0.24556 0.44556 0.96696 0.0
O102 O 0.30724 0.46904 0.8952 0.0
C103 C 0.16151 0.331 0.83919 0.0
O104 O 0.25804 0.30961 0.96994 0.0
O105 O 0.19199 0.36253 0.97258 0.0
C106 C 0.36706 0.34017 0.91063 0.0
O107 O 0.19407 0.30051 0.86598 0.0
O108 O 0.16813 0.3791 0.84264 0.0
C109 C 0.23739 0.47028 0.78697 0.0
Fe110 Fe 0.30736 0.77394 0.12338 0.0
Fe111 Fe 0.41028 0.81936 0.0712 0.0
O112 O 0.37516 0.77038 0.11452 0.0
Fe113 Fe 0.40819 0.7165 0.14897 0.0
O114 O 0.37585 0.67411 0.09069 0.0
O115 O 0.29779 0.7022 0.11495 0.0
O116 O 0.29782 0.77643 0.03409 0.0
C117 C 0.31778 0.80753 -0.00703 0.0
C118 C 0.32723 0.73272 0.24574 0.0
O119 O 0.35863 0.83291 0.00738 0.0
C120 C 0.47322 0.79213 0.18732 0.0
O121 O 0.30583 0.84591 0.13216 0.0
O122 O 0.38797 0.86848 0.12788 0.0
O123 O 0.36038 0.70288 0.21868 0.0
O124 O 0.31167 0.77167 0.21408 0.0
C125 C 0.46706 0.73949 0.02844 0.0
O126 O 0.46731 0.81358 0.12913 0.0
O127 O 0.44274 0.75721 0.20785 0.0
C128 C 0.34201 0.87852 0.14252 0.0
O129 O 0.43621 0.77401 0.01028 0.0
O130 O 0.46253 0.71902 0.08691 0.0
C131 C 0.32766 0.66828 0.08862 0.0
Fe132 Fe 0.81603 0.62325 0.90229 0.0
Fe133 Fe 0.7634 0.72621 0.86591 0.0
O134 O 0.7656 0.65772 0.8605 0.0
Fe135 Fe 0.71664 0.62527 0.8135 0.0
O136 O 0.69768 0.58642 0.88773 0.0
O137 O 0.77526 0.56974 0.92854 0.0
O138 O 0.80163 0.65283 0.98486 0.0
C139 C 0.80012 0.70088 -0.00463 0.0
C140 C 0.80504 0.5633 0.7872 0.0
O141 O 0.79574 0.73212 0.94701 0.0
C142 C 0.73097 0.71045 0.73118 0.0
O143 O 0.86554 0.67144 0.882 0.0
O144 O 0.82501 0.73057 0.82117 0.0
O145 O 0.75756 0.5731 0.78415 0.0
O146 O 0.8351 0.58912 0.82481 0.0
C147 C 0.66178 0.69867 0.88892 0.0
O148 O 0.73101 0.73686 0.78494 0.0
O149 O 0.73257 0.66142 0.73475 0.0
C150 C 0.86561 0.7058 0.83614 0.0
O151 O 0.70129 0.72255 0.91142 0.0
O152 O 0.66579 0.67139 0.83591 0.0
C153 C 0.72744 0.56115 0.92641 0.0
Fe154 Fe 0.72569 0.27768 0.12302 0.0
Fe155 Fe 0.62135 0.32672 0.16059 0.0
O156 O 0.65686 0.27586 0.12067 0.0
Fe157 Fe 0.62545 0.22375 0.07785 0.0
O158 O 0.67201 0.17529 0.10696 0.0
O159 O 0.72736 0.21755 0.17269 0.0
O160 O 0.73147 0.31462 0.2014 0.0
C161 C 0.70122 0.31832 0.25109 0.0
C162 C 0.70982 0.23643 -0.00742 0.0
O163 O 0.65311 0.31577 0.24247 0.0
C164 C 0.56106 0.30968 0.04655 0.0
O165 O 0.72545 0.33713 0.0732 0.0
O166 O 0.6671 0.37741 0.1355 0.0
O167 O 0.66113 0.23599 -0.00222 0.0
O168 O 0.73697 0.24164 0.0449 0.0
C169 C 0.56018 0.23768 0.18927 0.0
O170 O 0.585 0.34179 0.08356 0.0
O171 O 0.57328 0.26256 0.04427 0.0
C172 C 0.69948 0.37722 0.08717 0.0
O173 O 0.56975 0.28542 0.1911 0.0
O174 O 0.5856 0.20697 0.15181 0.0
C175 C 0.70448 0.17594 0.15516 0.0
C176 C 0.30579 0.02037 0.172 0.0
C177 C 0.32438 0.02703 0.23963 0.0
C178 C 0.35469 0.93782 0.24087 0.0
C179 C 0.33275 0.92924 0.17585 0.0
N180 N 0.30935 0.96844 0.06905 0.0
N181 N 0.39448 1.00176 0.31314 0.0
C182 C 0.31411 0.9722 0.13809 0.0
C183 C 0.35756 0.98877 0.26667 0.0
N184 N 0.28342 0.0608 0.13868 0.0
N185 N 0.37364 0.89746 0.2778 0.0
H186 H 0.403 0.04024 0.32496 0.0
H187 H 0.4217 0.97555 0.33117 0.0
H188 H 0.37398 0.85968 0.25935 0.0
H189 H 0.38637 0.90135 0.32786 0.0
H190 H 0.26223 0.05649 0.09405 0.0
H191 H 0.28742 0.09895 0.15523 0.0
H192 H 0.29944 0.99928 0.03759 0.0
H193 H 0.32173 0.93591 0.04238 0.0
C194 C 0.96208 0.70277 0.68927 0.0
C195 C 1.00812 0.71773 0.72307 0.0
C196 C 0.95926 0.73056 0.82922 0.0
C197 C 0.91384 0.71303 0.79627 0.0
N198 N 0.87524 0.66928 0.70021 0.0
N199 N 0.05294 0.73473 0.82787 0.0
C200 C 0.91615 0.6953 0.72782 0.0
C201 C 1.00736 0.72819 0.79404 0.0
N202 N 0.96121 0.69813 0.61993 0.0
N203 N 0.95611 0.75085 0.89339 0.0
H204 H 0.08872 0.73153 0.80358 0.0
H205 H 0.05555 0.73801 0.8806 0.0
H206 H 0.92134 0.75361 0.92018 0.0
H207 H 0.98693 0.76894 0.91772 0.0
H208 H 0.92714 0.69457 0.59225 0.0
H209 H 0.99399 0.70147 0.58938 0.0
H210 H 0.87722 0.65012 0.6536 0.0
H211 H 0.84054 0.66332 0.72613 0.0
C212 C 0.68144 0.04407 0.23382 0.0
C213 C 0.73142 0.022 0.23425 0.0
C214 C 0.76493 0.10125 0.17865 0.0
C215 C 0.71646 0.12539 0.18812 0.0
N216 N 0.63344 0.12339 0.24383 0.0
N217 N 0.824 0.03691 0.22056 0.0
C218 C 0.67602 0.09775 0.22102 0.0
C219 C 0.77425 0.05225 0.20983 0.0
N220 N 0.63891 0.01372 0.24523 0.0
N221 N 0.80193 0.12445 0.13915 0.0
H222 H 0.8343 1.00331 0.24611 0.0
H223 H 0.85567 0.06075 0.21024 0.0
H224 H 0.79692 0.16065 0.11655 0.0
H225 H 0.83575 0.10573 0.12439 0.0
H226 H 0.60132 0.02744 0.24016 0.0
H227 H 0.64125 0.9737 0.25201 0.0
H228 H 0.6044 0.10576 0.2727 0.0
H229 H 0.63127 0.16356 0.24225 0.0
C230 C 0.10834 0.26722 0.76848 0.0
C231 C 0.11163 0.3122 0.8101 0.0
C232 C 0.02576 0.33891 0.77196 0.0
C233 C 0.02082 0.29276 0.73393 0.0
N234 N 0.0526 0.20639 0.71052 0.0
N235 N 0.06349 0.37722 0.87197 0.0
C236 C 0.06037 0.25461 0.73721 0.0
C237 C 0.06725 0.34395 0.8181 0.0
N238 N 0.15096 0.23774 0.75553 0.0
N239 N 0.99126 0.37824 0.76412 0.0
H240 H 0.09076 0.37832 0.91092 0.0
H241 H 0.03016 0.39827 0.88262 0.0
H242 H 0.96057 0.3763 0.73015 0.0
H243 H 0.99623 0.41449 0.78656 0.0
H244 H 0.15131 0.20757 0.72044 0.0
H245 H 0.1874 0.24537 0.77494 0.0
H246 H 0.07754 0.17551 0.7189 0.0
H247 H 0.01906 0.19543 0.68551 0.0
C248 C 0.33716 0.57207 0.07778 0.0
C249 C 0.30835 0.61745 0.0624 0.0
C250 C 0.25436 0.56524 0.98621 0.0
C251 C 0.28998 0.52353 0.99112 0.0
N252 N 0.36981 0.49046 0.03587 0.0
N253 N 0.24239 0.65774 -0.00661 0.0
C254 C 0.33279 0.52792 0.03519 0.0
C255 C 0.26737 0.61421 0.01469 0.0
N256 N 0.36749 0.57051 0.13453 0.0
N257 N 0.20769 0.55834 0.95538 0.0
H258 H 0.24956 0.69435 0.01299 0.0
H259 H 0.21719 0.658 0.95214 0.0
H260 H 0.19547 0.52297 0.93609 0.0
H261 H 0.17868 0.58618 0.95617 0.0
H262 H 0.38594 0.53698 0.15098 0.0
H263 H 0.369 0.6008 0.16957 0.0
H264 H 0.40438 0.4943 0.06243 0.0
H265 H 0.368 0.4578 0.00489 0.0
C266 C 0.57269 0.66793 0.93069 0.0
C267 C 0.60894 0.70903 0.91771 0.0
C268 C 0.54881 0.77098 0.96981 0.0
C269 C 0.51425 0.72962 0.98669 0.0
N270 N 0.49413 0.63857 0.98707 0.0
N271 N 0.62114 0.80078 0.90161 0.0
C272 C 0.5265 0.67816 0.96803 0.0
C273 C 0.59419 0.76084 0.9311 0.0
N274 N 0.58 0.61972 0.9037 0.0
N275 N 0.54024 0.81989 -0.0062 0.0
H276 H 0.65218 0.79519 0.86847 0.0
H277 H 0.60895 0.83915 0.90267 0.0
H278 H 0.50684 0.83114 0.01893 0.0
H279 H 0.56822 0.84899 -0.00704 0.0
H280 H 0.5524 0.59035 0.90473 0.0
H281 H 0.61062 0.60954 0.8728 0.0
H282 H 0.50462 0.5997 0.98695 0.0
H283 H 0.45717 0.64447 0.00675 0.0
C284 C 0.72133 0.47156 0.07635 0.0
C285 C 0.70479 0.42482 0.04543 0.0
C286 C 0.69421 0.47001 0.93629 0.0
C287 C 0.70862 0.51715 0.96807 0.0
N288 N 0.72341 0.56542 0.07088 0.0
N289 N 0.66247 0.38253 0.95105 0.0
C290 C 0.71802 0.51866 0.03915 0.0
C291 C 0.68731 0.4249 0.97688 0.0
N292 N 0.74227 0.47057 0.14012 0.0
N293 N 0.68972 0.46743 0.86703 0.0
H294 H 0.65714 0.34843 0.97869 0.0
H295 H 0.64374 0.38267 0.90418 0.0
H296 H 0.69268 0.49974 0.83541 0.0
H297 H 0.6863 0.43261 0.84063 0.0
H298 H 0.75954 0.50262 0.16289 0.0
H299 H 0.7468 0.43637 0.16777 0.0
H300 H 0.72608 0.56959 0.12351 0.0
H301 H 0.71978 0.60043 0.04472 0.0
C302 C 0.50757 0.31022 0.94123 0.0
C303 C 0.51269 0.32406 0.01093 0.0
C304 C 0.4197 0.34285 0.01659 0.0
C305 C 0.41474 0.32694 0.94784 0.0
N306 N 0.45039 0.28405 0.84991 0.0
N307 N 0.4719 0.34651 0.11822 0.0
C308 C 0.45767 0.3072 0.91166 0.0
C309 C 0.46835 0.33887 0.04949 0.0
N310 N 0.55076 0.30083 0.90298 0.0
N311 N 0.37757 0.36185 0.05048 0.0
H312 H 0.50664 0.34834 0.14427 0.0
H313 H 0.44007 0.34883 0.15061 0.0
H314 H 0.34047 0.36134 0.02997 0.0
H315 H 0.37949 0.38058 0.09734 0.0
H316 H 0.55025 0.29588 0.85036 0.0
H317 H 0.58792 0.30255 0.92303 0.0
H318 H 0.4793 0.2647 0.8233 0.0
H319 H 0.41389 0.27925 0.82873 0.0
C320 C 0.83965 0.47223 0.79037 0.0
C321 C 0.8222 0.51555 0.75191 0.0
C322 C 0.8051 0.45858 0.6545 0.0
C323 C 0.82746 0.41671 0.69012 0.0
N324 N 0.86846 0.38307 0.79069 0.0
N325 N 0.79733 0.55164 0.64371 0.0
C326 C 0.84564 0.42351 0.75762 0.0
C327 C 0.80783 0.5091 0.68271 0.0
N328 N 0.84764 0.4765 0.85895 0.0
N329 N 0.77961 0.4498 0.59488 0.0
H330 H 0.79949 0.58927 0.66275 0.0
H331 H 0.79151 0.55001 0.59129 0.0
H332 H 0.7745 0.41275 0.5751 0.0
H333 H 0.75857 0.47806 0.56938 0.0
H334 H 0.85224 0.44479 0.89114 0.0
H335 H 0.84704 0.51142 0.88511 0.0
H336 H 0.88863 0.38696 0.83619 0.0
H337 H 0.86996 0.34582 0.77037 0.0
C338 C 0.51193 0.23354 0.29914 0.0
C339 C 0.51446 0.22022 0.22901 0.0
C340 C 0.42315 0.19459 0.23265 0.0
C341 C 0.41973 0.21278 0.30085 0.0
N342 N 0.4578 0.25872 0.39452 0.0
N343 N 0.46982 0.19622 0.12569 0.0
C344 C 0.46326 0.23507 0.33278 0.0
C345 C 0.46947 0.20253 0.19484 0.0
N346 N 0.55644 0.24376 0.33384 0.0
N347 N 0.38209 0.16943 0.20394 0.0
H348 H 0.50287 0.20014 0.09578 0.0
H349 H 0.43647 0.1905 0.09715 0.0
H350 H 0.34609 0.16646 0.22762 0.0
H351 H 0.38455 0.1491 0.15824 0.0
H352 H 0.55783 0.24913 0.38637 0.0
H353 H 0.59273 0.24163 0.31084 0.0
H354 H 0.48722 0.27956 0.4181 0.0
H355 H 0.42204 0.26222 0.41858 0.0
C356 C 0.16285 0.57085 0.68641 0.0
C357 C 0.20276 0.60704 0.66848 0.0
C358 C 0.26593 0.55231 0.72677 0.0
C359 C 0.2265 0.51558 0.74256 0.0
N360 N 0.14097 0.48315 0.72064 0.0
N361 N 0.2941 0.62031 0.65032 0.0
C362 C 0.17602 0.52288 0.71738 0.0
C363 C 0.25486 0.59418 0.68231 0.0
N364 N 0.11205 0.58227 0.6766 0.0
N365 N 0.3135 0.54895 0.75617 0.0
H366 H 0.28764 0.64856 0.61334 0.0
H367 H 0.33267 0.60933 0.65389 0.0
H368 H 0.32416 0.51926 0.78892 0.0
H369 H 0.34104 0.57842 0.75264 0.0
H370 H 0.082 0.56135 0.69918 0.0
H371 H 0.09928 0.61347 0.64851 0.0
H372 H 0.10532 0.484 0.69628 0.0
H373 H 0.14959 0.44708 0.74155 0.0
C374 C 0.60918 0.77393 0.25833 0.0
C375 C 0.61338 0.81785 0.30152 0.0
C376 C 0.52794 0.8467 0.26428 0.0
C377 C 0.52155 0.80076 0.2263 0.0
N378 N 0.55146 0.71346 0.20376 0.0
N379 N 0.56679 0.88344 0.36456 0.0
C380 C 0.56054 0.76195 0.22873 0.0
C381 C 0.56962 0.85041 0.31038 0.0
N382 N 0.65145 0.74484 0.24238 0.0
N383 N 0.4948 0.88714 0.2562 0.0
H384 H 0.5943 0.88377 0.40325 0.0
H385 H 0.53395 0.90519 0.37551 0.0
H386 H 0.46481 0.88642 0.22104 0.0
H387 H 0.50072 0.92309 0.27908 0.0
H388 H 0.65098 0.71623 0.20499 0.0
H389 H 0.68813 0.75179 0.26148 0.0
H390 H 0.57692 0.68276 0.21067 0.0
H391 H 0.51643 0.70207 0.18308 0.0
C392 C 0.83337 0.06384 0.58005 0.0
C393 C 0.80907 0.11095 0.56066 0.0
C394 C 0.77734 0.07052 0.45714 0.0
C395 C 0.80154 0.02335 0.47536 0.0
N396 N 0.84616 0.97202 0.55855 0.0
N397 N 0.74139 0.15151 0.4957 0.0
C398 C 0.82741 0.01899 0.53856 0.0
C399 C 0.77538 0.11179 0.50435 0.0
N400 N 0.86211 0.0624 0.63825 0.0
N401 N 0.75838 0.07698 0.39318 0.0
H402 H 0.738 0.18234 0.52937 0.0
H403 H 0.71208 0.15064 0.45954 0.0
H404 H 0.76559 0.05064 0.35486 0.0
H405 H 0.74211 0.11103 0.37553 0.0
H406 H 0.88614 0.03188 0.6516 0.0
H407 H 0.86213 0.09268 0.67339 0.0
H408 H 0.86078 0.96433 0.60677 0.0
H409 H 0.84508 0.93967 0.52696 0.0
C410 C 0.10563 0.25352 0.46755 0.0
C411 C 0.11246 0.20875 0.42623 0.0
C412 C 0.02286 0.18236 0.45161 0.0
C413 C 0.0156 0.22814 0.48979 0.0
N414 N 0.04527 0.31553 0.51299 0.0
N415 N 0.0694 0.14345 0.35812 0.0
C416 C 0.05529 0.26643 0.49087 0.0
C417 C 0.06868 0.17674 0.41218 0.0
N418 N 0.14685 0.28281 0.4878 0.0
N419 N 0.98587 0.14448 0.45199 0.0
H420 H 0.09966 0.14244 0.32294 0.0
H421 H 0.03714 0.12227 0.34281 0.0
H422 H 0.95059 0.14841 0.47731 0.0
H423 H 0.99184 0.10799 0.43079 0.0
H424 H 0.14386 0.31199 0.52419 0.0
H425 H 0.18485 0.27538 0.47434 0.0
H426 H 0.07166 0.34591 0.50809 0.0
H427 H 1.00892 0.32798 0.52805 0.0
C428 C 0.20427 0.96503 0.59023 0.0
C429 C 0.22829 0.91812 0.56873 0.0
C430 C 0.26419 0.96311 0.46988 0.0
C431 C 0.23516 1.0081 0.48601 0.0
N432 N 0.17554 0.05172 0.56042 0.0
N433 N 0.30567 0.88693 0.51516 0.0
C434 C 0.20492 1.00917 0.54633 0.0
C435 C 0.26573 0.92118 0.51651 0.0
N436 N 0.18629 0.96918 0.6555 0.0
N437 N 0.28832 0.95895 0.40839 0.0
H438 H 0.31102 0.85936 0.55333 0.0
H439 H 0.33741 0.89145 0.48285 0.0
H440 H 0.28236 0.98545 0.36958 0.0
H441 H 0.30799 0.92589 0.39295 0.0
H442 H 0.17149 1.00315 0.67615 0.0
H443 H 0.19375 0.94107 0.69226 0.0
H444 H 0.14811 0.05286 0.59932 0.0
H445 H 0.1755 0.08463 0.52948 0.0
C446 C 0.96786 0.83384 0.54018 0.0
C447 C 0.01519 0.8297 0.50397 0.0
C448 C 0.96868 0.83592 0.39548 0.0
C449 C 0.92081 0.83453 0.43144 0.0
N450 N 0.87494 0.84256 0.53787 0.0
N451 N 0.06159 0.82332 0.39805 0.0
C452 C 0.92048 0.83576 0.50386 0.0
C453 C 0.01582 0.8301 0.4318 0.0
N454 N 0.96829 0.83397 0.60981 0.0
N455 N 0.96925 0.84541 0.32694 0.0
H456 H 0.09706 0.82249 0.42309 0.0
H457 H 0.06432 0.8161 0.34599 0.0
H458 H 0.93578 0.85078 0.29867 0.0
H459 H 1.00279 0.85246 0.29896 0.0
H460 H 0.93609 0.82703 0.64041 0.0
H461 H 1.00178 0.84086 0.63746 0.0
H462 H 0.87216 0.85141 0.58932 0.0
H463 H 0.83952 0.84386 0.5135 0.0
C464 C 0.18912 0.2489 0.06299 0.0
C465 C 0.20425 0.3018 0.0651 0.0
C466 C 0.21299 0.29481 0.18863 0.0
C467 C 0.21046 0.23963 0.18402 0.0
N468 N 0.19599 0.16388 0.1143 0.0
N469 N 0.23164 0.3756 0.13038 0.0
C470 C 0.19749 0.21651 0.12074 0.0
C471 C 0.21574 0.32513 0.12823 0.0
N472 N 0.16619 0.22992 0.00575 0.0
N473 N 0.21137 0.31841 0.25079 0.0
H474 H 0.23197 0.39948 0.0875 0.0
H475 H 0.24719 0.39273 0.17378 0.0
H476 H 0.20639 0.29788 0.29596 0.0
H477 H 0.20869 0.35839 0.25687 0.0
H478 H 0.1505 0.19279 0.0025 0.0
H479 H 0.15722 0.25376 0.96467 0.0
H480 H 0.19326 0.14517 0.06746 0.0
H481 H 0.2008 0.1386 0.15507 0.0
C482 C 0.2528 0.84889 0.91492 0.0
C483 C 0.2915 0.81094 0.92639 0.0
C484 C 0.25389 0.75828 0.83598 0.0
C485 C 0.22238 0.80024 0.81597 0.0
N486 N 0.19556 0.88868 0.83299 0.0
N487 N 0.33226 0.73128 0.89183 0.0
C488 C 0.22296 0.84669 0.85427 0.0
C489 C 0.29343 0.76646 0.88433 0.0
N490 N 0.2416 0.88445 0.96403 0.0
N491 N 0.24369 0.70982 0.81177 0.0
H492 H 0.3618 0.73597 0.92729 0.0
H493 H 0.3376 0.70021 0.85874 0.0
H494 H 0.21061 0.70215 0.78341 0.0
H495 H 0.26316 0.67678 0.82788 0.0
H496 H 0.21081 0.91016 0.9605 0.0
H497 H 0.25915 0.88385 0.01157 0.0
H498 H 0.19932 0.9251 0.85533 0.0
H499 H 0.17149 0.88773 0.7906 0.0
C500 C 0.85239 0.76494 0.15519 0.0
C501 C 0.80841 0.79473 0.17324 0.0
C502 C 0.75728 0.74805 0.0886 0.0
C503 C 0.80243 0.72358 0.06428 0.0
N504 N 0.89475 0.71316 0.06842 0.0
N505 N 0.72161 0.8219 0.1476 0.0
C506 C 0.85065 0.73328 0.09582 0.0
C507 C 0.7617 0.78863 0.13657 0.0
N508 N 0.89465 0.76468 0.19642 0.0
N509 N 0.71002 0.73132 0.06699 0.0
H510 H 0.72402 0.8528 0.1817 0.0
H511 H 0.68811 0.82186 0.1184 0.0
H512 H 0.70596 0.69876 0.03605 0.0
H513 H 0.67522 0.74552 0.08592 0.0
H514 H 0.92573 0.73973 0.18947 0.0
H515 H 0.89655 0.7865 0.24086 0.0
H516 H 0.93157 0.72376 0.08458 0.0
H517 H 0.89438 0.688 0.02685 0.0
C518 C 0.81882 0.24831 0.86556 0.0
C519 C 0.80644 0.21158 0.81564 0.0
C520 C 0.73066 0.18531 0.88404 0.0
C521 C 0.73809 0.22942 0.9264 0.0
N522 N 0.78138 0.3118 0.93872 0.0
N523 N 0.74908 0.14526 0.77438 0.0
C524 C 0.78044 0.26311 0.91251 0.0
C525 C 0.76198 0.17973 0.82415 0.0
N526 N 0.8665 0.27093 0.86598 0.0
N527 N 0.6953 0.14824 0.9016 0.0
H528 H 0.7729 0.13863 0.73229 0.0
H529 H 0.71414 0.12513 0.77373 0.0
H530 H 0.67212 0.15086 0.94497 0.0
H531 H 0.69189 0.11311 0.87593 0.0
H532 H 0.87847 0.2959 0.9046 0.0
H533 H 0.8953 0.26026 0.83144 0.0
H534 H 0.80996 0.339 0.92695 0.0
H535 H 0.74864 0.32726 0.96096 0.0
C536 C 0.74317 0.82379 0.61047 0.0
C537 C 0.70968 0.81076 0.55719 0.0
C538 C 0.68453 0.73151 0.61955 0.0
C539 C 0.72594 0.74003 0.66568 0.0
N540 N 0.80368 0.78823 0.6893 0.0
N541 N 0.64804 0.75167 0.50861 0.0
C542 C 0.75736 0.78498 0.65729 0.0
C543 C 0.67984 0.76451 0.56122 0.0
N544 N 0.76365 0.8725 0.6138 0.0
N545 N 0.64892 0.69355 0.63224 0.0
H546 H 0.6414 0.77689 0.46803 0.0
H547 H 0.62996 0.71571 0.50434 0.0
H548 H 0.6509 0.66901 0.67432 0.0
H549 H 0.61532 0.68906 0.60384 0.0
H550 H 0.78594 0.88528 0.65461 0.0
H551 H 0.75359 0.90129 0.57895 0.0
H552 H 0.82882 0.81964 0.68496 0.0
H553 H 0.82034 0.75532 0.70947 0.0
C554 C 0.77929 0.36157 0.40515 0.0
C555 C 0.79607 0.31218 0.42869 0.0
C556 C 0.73979 0.26967 0.34584 0.0
C557 C 0.72504 0.31816 0.3195 0.0
N558 N 0.73438 0.41073 0.31757 0.0
N559 N 0.8063 0.22152 0.40335 0.0
C560 C 0.74588 0.36438 0.34735 0.0
C561 C 0.78043 0.26691 0.39348 0.0
N562 N 0.79437 0.40554 0.43811 0.0
N563 N 0.71443 0.22602 0.32558 0.0
H564 H 0.83812 0.2187 0.43563 0.0
H565 H 0.79998 0.18867 0.37372 0.0
H566 H 0.68315 0.2271 0.29249 0.0
H567 H 0.72071 0.18997 0.34728 0.0
H568 H 0.77806 0.44171 0.42944 0.0
H569 H 0.82262 0.40589 0.47555 0.0
H570 H 0.75289 0.44542 0.32936 0.0
H571 H 0.70726 0.4139 0.27861 0.0
C572 C 0.26258 0.28775 0.6486 0.0
C573 C 0.30944 0.30157 0.68108 0.0
C574 C 0.35689 0.25258 0.59308 0.0
C575 C 0.30908 0.23383 0.56691 0.0
N576 N 0.2178 0.22163 0.58509 0.0
N577 N 0.40233 0.29517 0.68564 0.0
C578 C 0.26239 0.24778 0.59962 0.0
C579 C 0.35709 0.28366 0.65358 0.0
N580 N 0.21818 0.31383 0.6637 0.0
N581 N 0.40187 0.24219 0.5594 0.0
H582 H 0.40472 0.3215 0.72553 0.0
H583 H 0.43727 0.27736 0.67406 0.0
H584 H 0.40397 0.21696 0.51825 0.0
H585 H 0.43684 0.26035 0.57038 0.0
H586 H 0.18358 0.30765 0.638 0.0
H587 H 0.21752 0.34548 0.69675 0.0
H588 H 0.18307 0.22827 0.61049 0.0
H589 H 0.21684 0.18988 0.55223 0.0
C590 C 0.26753 0.6789 0.32208 0.0
C591 C 0.30117 0.72209 0.31205 0.0
C592 C 0.2533 0.77019 0.39767 0.0
C593 C 0.22436 0.72589 0.41514 0.0
N594 N 0.20822 0.63475 0.39973 0.0
N595 N 0.33672 0.79975 0.35968 0.0
C596 C 0.23274 0.67896 0.37912 0.0
C597 C 0.29737 0.76479 0.35628 0.0
N598 N 0.26731 0.63909 0.2765 0.0
N599 N 0.23774 0.81784 0.41879 0.0
H600 H 0.37162 0.79342 0.33422 0.0
H601 H 0.33668 0.83041 0.39408 0.0
H602 H 0.20352 0.82317 0.44614 0.0
H603 H 0.25508 0.85162 0.40057 0.0
H604 H 0.23988 0.60946 0.27748 0.0
H605 H 0.29296 0.63724 0.23558 0.0
H606 H 0.21672 0.59838 0.37981 0.0
H607 H 0.18129 0.63449 0.43946 0.0
loop_
_geom_bond_atom_site_label_1
_geom_bond_atom_site_label_2
_geom_bond_distance
_geom_bond_site_symmetry_2
_ccdc_geom_bond_type
Fe0 O2 1.918 . S
Fe0 O5 1.997 . S
Fe0 O6 2.002 . S
Fe0 O11 1.976 . S
Fe0 O14 1.996 . S
Fe1 O2 1.918 . S
Fe1 O9 1.997 . S
Fe1 O12 1.996 . S
Fe1 O16 1.976 . S
Fe1 O19 2.002 . S
O2 Fe0 1.918 . S
O2 Fe1 1.918 . S
O2 Fe3 1.918 . S
Fe3 O2 1.918 . S
Fe3 O4 2.002 . S
Fe3 O13 1.976 . S
Fe3 O17 1.996 . S
Fe3 O20 1.997 . S
O4 Fe3 2.002 . S
O4 C21 1.295 . S
O5 Fe0 1.997 . S
O5 C21 1.235 . S
O6 Fe0 2.002 . S
O6 C7 1.295 . S
C7 O6 1.295 . S
C7 O9 1.235 . S
C8 O13 1.287 . S
C8 O14 1.255 . S
O9 Fe1 1.997 . S
O9 C7 1.235 . S
C10 O16 1.287 . S
C10 O17 1.255 . S
O11 Fe0 1.976 . S
O11 C18 1.287 . S
O12 Fe1 1.996 . S
O12 C18 1.255 . S
O13 Fe3 1.976 . S
O13 C8 1.287 . S
O14 Fe0 1.996 . S
O14 C8 1.255 . S
C15 O19 1.295 . S
C15 O20 1.235 . S
O16 Fe1 1.976 . S
O16 C10 1.287 . S
O17 Fe3 1.996 . S
O17 C10 1.255 . S
C18 O11 1.287 . S
C18 O12 1.255 . S
O19 Fe1 2.002 . S
O19 C15 1.295 . S
O20 Fe3 1.997 . S
O20 C15 1.235 . S
C21 O4 1.295 . S
C21 O5 1.235 . S
Fe22 O24 1.918 . S
Fe22 O27 1.997 . S
Fe22 O28 2.002 . S
Fe22 O33 1.976 . S
Fe22 O36 1.996 . S
Fe23 O24 1.918 . S
Fe23 O31 1.997 . S
Fe23 O34 1.996 . S
Fe23 O38 1.976 . S
Fe23 O41 2.002 . S
O24 Fe22 1.918 . S
O24 Fe23 1.918 . S
O24 Fe25 1.918 . S
Fe25 O24 1.918 . S
Fe25 O26 2.002 . S
Fe25 O35 1.976 . S
Fe25 O39 1.996 . S
Fe25 O42 1.997 . S
O26 Fe25 2.002 . S
O26 C43 1.295 . S
O27 Fe22 1.997 . S
O27 C43 1.235 . S
O28 Fe22 2.002 . S
O28 C29 1.295 . S
C29 O28 1.295 . S
C29 O31 1.235 . S
C30 O35 1.287 . S
C30 O36 1.255 . S
O31 Fe23 1.997 . S
O31 C29 1.235 . S
C32 O38 1.287 . S
C32 O39 1.255 . S
O33 Fe22 1.976 . S
O33 C40 1.287 . S
O34 Fe23 1.996 . S
O34 C40 1.255 . S
O35 Fe25 1.976 . S
O35 C30 1.287 . S
O36 Fe22 1.996 . S
O36 C30 1.255 . S
C37 O41 1.295 . S
C37 O42 1.235 . S
O38 Fe23 1.976 . S
O38 C32 1.287 . S
O39 Fe25 1.996 . S
O39 C32 1.255 . S
C40 O33 1.287 . S
C40 O34 1.255 . S
O41 Fe23 2.002 . S
O41 C37 1.295 . S
O42 Fe25 1.997 . S
O42 C37 1.235 . S
C43 O26 1.295 . S
C43 O27 1.235 . S
Fe44 O46 1.918 . S
Fe44 O49 1.997 . S
Fe44 O50 2.002 . S
Fe44 O55 1.976 . S
Fe44 O58 1.996 . S
Fe45 O46 1.918 . S
Fe45 O53 1.997 . S
Fe45 O56 1.996 . S
Fe45 O60 1.976 . S
Fe45 O63 2.002 . S
O46 Fe44 1.918 . S
O46 Fe45 1.918 . S
O46 Fe47 1.918 . S
Fe47 O46 1.918 . S
Fe47 O48 2.002 . S
Fe47 O57 1.976 . S
Fe47 O61 1.996 . S
Fe47 O64 1.997 . S
O48 Fe47 2.002 . S
O48 C65 1.295 . S
O49 Fe44 1.997 . S
O49 C65 1.235 . S
O50 Fe44 2.002 . S
O50 C51 1.295 . S
C51 O50 1.295 . S
C51 O53 1.235 . S
C52 O57 1.287 . S
C52 O58 1.255 . S
O53 Fe45 1.997 . S
O53 C51 1.235 . S
C54 O60 1.287 . S
C54 O61 1.255 . S
O55 Fe44 1.976 . S
O55 C62 1.287 . S
O56 Fe45 1.996 . S
O56 C62 1.255 . S
O57 Fe47 1.976 . S
O57 C52 1.287 . S
O58 Fe44 1.996 . S
O58 C52 1.255 . S
C59 O63 1.295 . S
C59 O64 1.235 . S
O60 Fe45 1.976 . S
O60 C54 1.287 . S
O61 Fe47 1.996 . S
O61 C54 1.255 . S
C62 O55 1.287 . S
C62 O56 1.255 . S
O63 Fe45 2.002 . S
O63 C59 1.295 . S
O64 Fe47 1.997 . S
O64 C59 1.235 . S
C65 O48 1.295 . S
C65 O49 1.235 . S
Fe66 O68 1.918 . S
Fe66 O71 1.997 . S
Fe66 O72 2.002 . S
Fe66 O77 1.976 . S
Fe66 O80 1.996 . S
Fe67 O68 1.918 . S
Fe67 O75 1.997 . S
Fe67 O78 1.996 . S
Fe67 O82 1.976 . S
Fe67 O85 2.002 . S
O68 Fe66 1.918 . S
O68 Fe67 1.918 . S
O68 Fe69 1.918 . S
Fe69 O68 1.918 . S
Fe69 O70 2.002 . S
Fe69 O79 1.976 . S
Fe69 O83 1.996 . S
Fe69 O86 1.997 . S
O70 Fe69 2.002 . S
O70 C87 1.295 . S
O71 Fe66 1.997 . S
O71 C87 1.235 . S
O72 Fe66 2.002 . S
O72 C73 1.295 . S
C73 O72 1.295 . S
C73 O75 1.235 . S
C74 O79 1.287 . S
C74 O80 1.255 . S
O75 Fe67 1.997 . S
O75 C73 1.235 . S
C76 O82 1.287 . S
C76 O83 1.255 . S
O77 Fe66 1.976 . S
O77 C84 1.287 . S
O78 Fe67 1.996 . S
O78 C84 1.255 . S
O79 Fe69 1.976 . S
O79 C74 1.287 . S
O80 Fe66 1.996 . S
O80 C74 1.255 . S
C81 O85 1.295 . S
C81 O86 1.235 . S
O82 Fe67 1.976 . S
O82 C76 1.287 . S
O83 Fe69 1.996 . S
O83 C76 1.255 . S
C84 O77 1.287 . S
C84 O78 1.255 . S
O85 Fe67 2.002 . S
O85 C81 1.295 . S
O86 Fe69 1.997 . S
O86 C81 1.235 . S
C87 O70 1.295 . S
C87 O71 1.235 . S
Fe88 O90 1.918 . S
Fe88 O93 1.997 . S
Fe88 O94 2.002 . S
Fe88 O99 1.976 . S
Fe88 O102 1.996 . S
Fe89 O90 1.918 . S
Fe89 O97 1.997 . S
Fe89 O100 1.996 . S
Fe89 O104 1.976 . S
Fe89 O107 2.002 . S
O90 Fe88 1.918 . S
O90 Fe89 1.918 . S
O90 Fe91 1.918 . S
Fe91 O90 1.918 . S
Fe91 O92 2.002 . S
Fe91 O101 1.976 . S
Fe91 O105 1.996 1_556 S
Fe91 O108 1.997 . S
O92 Fe91 2.002 . S
O92 C109 1.295 . S
O93 Fe88 1.997 . S
O93 C109 1.235 . S
O94 Fe88 2.002 . S
O94 C95 1.295 . S
C95 O94 1.295 . S
C95 O97 1.235 . S
C96 O101 1.287 . S
C96 O102 1.255 . S
O97 Fe89 1.997 . S
O97 C95 1.235 . S
C98 O104 1.287 1_554 S
C98 O105 1.255 . S
O99 Fe88 1.976 . S
O99 C106 1.287 . S
O100 Fe89 1.996 . S
O100 C106 1.255 . S
O101 Fe91 1.976 . S
O101 C96 1.287 . S
O102 Fe88 1.996 . S
O102 C96 1.255 . S
C103 O107 1.295 . S
C103 O108 1.235 . S
O104 Fe89 1.976 . S
O104 C98 1.287 1_556 S
O105 Fe91 1.996 1_554 S
O105 C98 1.255 . S
C106 O99 1.287 . S
C106 O100 1.255 . S
O107 Fe89 2.002 . S
O107 C103 1.295 . S
O108 Fe91 1.997 . S
O108 C103 1.235 . S
C109 O92 1.295 . S
C109 O93 1.235 . S
Fe110 O112 1.918 . S
Fe110 O115 1.997 . S
Fe110 O116 2.002 . S
Fe110 O121 1.976 . S
Fe110 O124 1.996 . S
Fe111 O112 1.918 . S
Fe111 O119 1.985 1_554 S
Fe111 O122 1.996 . S
Fe111 O126 1.976 . S
Fe111 O129 2.002 . S
O112 Fe110 1.918 . S
O112 Fe111 1.918 . S
O112 Fe113 1.918 . S
Fe113 O112 1.918 . S
Fe113 O114 2.002 . S
Fe113 O123 1.976 . S
Fe113 O127 1.996 . S
Fe113 O130 1.997 . S
O114 Fe113 2.002 . S
O114 C131 1.295 . S
O115 Fe110 1.997 . S
O115 C131 1.235 . S
O116 Fe110 2.002 . S
O116 C117 1.295 1_554 S
C117 O116 1.295 1_556 S
C117 O119 1.239 . S
C118 O123 1.287 . S
C118 O124 1.255 . S
O119 Fe111 1.985 1_556 S
O119 C117 1.239 . S
C120 O126 1.287 . S
C120 O127 1.255 . S
O121 Fe110 1.976 . S
O121 C128 1.287 . S
O122 Fe111 1.996 . S
O122 C128 1.255 . S
O123 Fe113 1.976 . S
O123 C118 1.287 . S
O124 Fe110 1.996 . S
O124 C118 1.255 . S
C125 O129 1.295 . S
C125 O130 1.235 . S
O126 Fe111 1.976 . S
O126 C120 1.287 . S
O127 Fe113 1.996 . S
O127 C120 1.255 . S
C128 O121 1.287 . S
C128 O122 1.255 . S
O129 Fe111 2.002 . S
O129 C125 1.295 . S
O130 Fe113 1.997 . S
O130 C125 1.235 . S
C131 O114 1.295 . S
C131 O115 1.235 . S
Fe132 O134 1.918 . S
Fe132 O137 1.997 . S
Fe132 O138 2.002 1_556 S
Fe132 O143 1.976 . S
Fe132 O146 1.996 . S
Fe133 O134 1.918 . S
Fe133 O141 1.997 . S
Fe133 O144 1.996 . S
Fe133 O148 1.976 . S
Fe133 O151 2.002 . S
O134 Fe132 1.918 . S
O134 Fe133 1.918 . S
O134 Fe135 1.918 . S
Fe135 O134 1.918 . S
Fe135 O136 2.002 . S
Fe135 O145 1.976 . S
Fe135 O149 1.996 . S
Fe135 O152 1.997 . S
O136 Fe135 2.002 . S
O136 C153 1.295 . S
O137 Fe132 1.997 . S
O137 C153 1.235 . S
O138 Fe132 2.002 1_554 S
O138 C139 1.295 . S
C139 O138 1.295 . S
C139 O141 1.235 1_554 S
C140 O145 1.287 . S
C140 O146 1.255 . S
O141 Fe133 1.997 . S
O141 C139 1.235 1_556 S
C142 O148 1.287 . S
C142 O149 1.255 . S
O143 Fe132 1.976 . S
O143 C150 1.287 . S
O144 Fe133 1.996 . S
O144 C150 1.255 . S
O145 Fe135 1.976 . S
O145 C140 1.287 . S
O146 Fe132 1.996 . S
O146 C140 1.255 . S
C147 O151 1.295 . S
C147 O152 1.235 . S
O148 Fe133 1.976 . S
O148 C142 1.287 . S
O149 Fe135 1.996 . S
O149 C142 1.255 . S
C150 O143 1.287 . S
C150 O144 1.255 . S
O151 Fe133 2.002 . S
O151 C147 1.295 . S
O152 Fe135 1.997 . S
O152 C147 1.235 . S
C153 O136 1.295 . S
C153 O137 1.235 . S
Fe154 O156 1.918 . S
Fe154 O159 1.997 . S
Fe154 O160 2.002 . S
Fe154 O165 1.976 . S
Fe154 O168 1.996 . S
Fe155 O156 1.918 . S
Fe155 O163 1.997 . S
Fe155 O166 1.996 . S
Fe155 O170 1.976 . S
Fe155 O173 2.002 . S
O156 Fe154 1.918 . S
O156 Fe155 1.918 . S
O156 Fe157 1.918 . S
Fe157 O156 1.918 . S
Fe157 O158 2.002 . S
Fe157 O167 1.976 1_554 S
Fe157 O171 1.996 . S
Fe157 O174 1.997 . S
O158 Fe157 2.002 . S
O158 C175 1.295 . S
O159 Fe154 1.997 . S
O159 C175 1.235 . S
O160 Fe154 2.002 . S
O160 C161 1.295 . S
C161 O160 1.295 . S
C161 O163 1.235 . S
C162 O167 1.287 . S
C162 O168 1.255 1_556 S
O163 Fe155 1.997 . S
O163 C161 1.235 . S
C164 O170 1.287 . S
C164 O171 1.255 . S
O165 Fe154 1.976 . S
O165 C172 1.287 . S
O166 Fe155 1.996 . S
O166 C172 1.255 . S
O167 Fe157 1.976 1_556 S
O167 C162 1.287 . S
O168 Fe154 1.996 . S
O168 C162 1.255 1_554 S
C169 O173 1.295 . S
C169 O174 1.235 . S
O170 Fe155 1.976 . S
O170 C164 1.287 . S
O171 Fe157 1.996 . S
O171 C164 1.255 . S
C172 O165 1.287 . S
C172 O166 1.255 . S
O173 Fe155 2.002 . S
O173 C169 1.295 . S
O174 Fe157 1.997 . S
O174 C169 1.235 . S
C175 O158 1.295 . S
C175 O159 1.235 . S
C176 C177 1.363 1_565 S
C176 C182 1.379 . S
C176 N184 1.356 1_565 S
C177 C176 1.363 1_545 S
C177 C183 1.362 1_545 S
C178 C179 1.363 . S
C178 C183 1.379 . S
C178 N185 1.356 . S
C179 C178 1.363 . S
C179 C182 1.363 . S
N180 C182 1.356 . S
N180 H192 0.984 . S
N180 H193 0.985 . S
N181 C183 1.356 . S
N181 H186 0.984 1_565 S
N181 H187 0.985 . S
C182 C176 1.379 . S
C182 C179 1.363 . S
C182 N180 1.356 . S
C183 C177 1.362 1_565 S
C183 C178 1.379 . S
C183 N181 1.356 . S
N184 C176 1.356 1_545 S
N184 H190 0.984 . S
N184 H191 0.984 . S
N185 C178 1.356 . S
N185 H188 0.984 . S
N185 H189 0.985 . S
H186 N181 0.984 1_545 S
H187 N181 0.985 . S
H188 N185 0.984 . S
H189 N185 0.985 . S
H190 N184 0.984 . S
H191 N184 0.984 . S
H192 N180 0.984 . S
H193 N180 0.985 . S
C194 C195 1.348 1_655 S
C194 C200 1.379 . S
C194 N202 1.356 . S
C195 C194 1.348 1_455 S
C195 C201 1.360 1_455 S
C196 C197 1.363 . S
C196 C201 1.379 . S
C196 N203 1.356 . S
C197 C196 1.363 . S
C197 C200 1.363 . S
N198 C200 1.356 . S
N198 H210 0.984 . S
N198 H211 0.985 . S
N199 C201 1.356 1_455 S
N199 H204 0.984 . S
N199 H205 0.985 . S
C200 C194 1.379 . S
C200 C197 1.363 . S
C200 N198 1.356 . S
C201 C195 1.360 1_655 S
C201 C196 1.379 . S
C201 N199 1.356 1_655 S
N202 C194 1.356 . S
N202 H208 0.984 . S
N202 H209 0.984 1_655 S
N203 C196 1.356 . S
N203 H206 0.984 . S
N203 H207 0.985 . S
H204 N199 0.984 . S
H205 N199 0.985 . S
H206 N203 0.984 . S
H207 N203 0.985 . S
H208 N202 0.984 . S
H209 N202 0.984 1_455 S
H210 N198 0.984 . S
H211 N198 0.985 . S
C212 C213 1.363 . S
C212 C218 1.379 . S
C212 N220 1.356 . S
C213 C212 1.363 . S
C213 C219 1.363 . S
C214 C215 1.363 . S
C214 C219 1.379 . S
C214 N221 1.356 . S
C215 C214 1.363 . S
C215 C218 1.363 . S
N216 C218 1.356 . S
N216 H228 0.984 . S
N216 H229 0.985 . S
N217 C219 1.356 1_565 S
N217 H222 0.984 . S
N217 H223 0.985 . S
C218 C212 1.379 . S
C218 C215 1.363 . S
C218 N216 1.356 . S
C219 C213 1.363 . S
C219 C214 1.379 . S
C219 N217 1.356 1_545 S
N220 C212 1.356 . S
N220 H226 0.984 . S
N220 H227 0.984 1_545 S
N221 C214 1.356 . S
N221 H224 0.984 . S
N221 H225 0.985 . S
H222 N217 0.984 . S
H223 N217 0.985 . S
H224 N221 0.984 . S
H225 N221 0.985 . S
H226 N220 0.984 . S
H227 N220 0.984 1_565 S
H228 N216 0.984 . S
H229 N216 0.985 . S
C230 C231 1.363 . S
C230 C236 1.379 . S
C230 N238 1.356 . S
C231 C230 1.363 . S
C231 C237 1.363 . S
C232 C233 1.363 . S
C232 C237 1.379 . S
C232 N239 1.356 1_455 S
C233 C232 1.363 . S
C233 C236 1.363 . S
N234 C236 1.356 . S
N234 H246 0.984 . S
N234 H247 0.985 1_455 S
N235 C237 1.356 . S
N235 H240 0.984 . S
N235 H241 0.985 . S
C236 C230 1.379 . S
C236 C233 1.363 . S
C236 N234 1.356 . S
C237 C231 1.363 . S
C237 C232 1.379 . S
C237 N235 1.356 . S
N238 C230 1.356 . S
N238 H244 0.984 . S
N238 H245 0.984 . S
N239 C232 1.356 1_655 S
N239 H242 0.984 . S
N239 H243 0.985 . S
H240 N235 0.984 . S
H241 N235 0.985 . S
H242 N239 0.984 . S
H243 N239 0.985 . S
H244 N238 0.984 . S
H245 N238 0.984 . S
H246 N234 0.984 . S
H247 N234 0.985 1_655 S
C248 C249 1.363 . S
C248 C254 1.379 . S
C248 N256 1.356 . S
C249 C248 1.363 . S
C249 C255 1.363 . S
C250 C251 1.363 . S
C250 C255 1.379 1_556 S
C250 N257 1.356 . S
C251 C250 1.363 . S
C251 C254 1.363 1_556 S
N252 C254 1.356 . S
N252 H264 0.984 . S
N252 H265 0.985 . S
N253 C255 1.356 . S
N253 H258 0.984 . S
N253 H259 0.985 1_554 S
C254 C248 1.379 . S
C254 C251 1.363 1_554 S
C254 N252 1.356 . S
C255 C249 1.363 . S
C255 C250 1.379 1_554 S
C255 N253 1.356 . S
N256 C248 1.356 . S
N256 H262 0.984 . S
N256 H263 0.984 . S
N257 C250 1.356 . S
N257 H260 0.984 . S
N257 H261 0.985 . S
H258 N253 0.984 . S
H259 N253 0.985 1_556 S
H260 N257 0.984 . S
H261 N257 0.985 . S
H262 N256 0.984 . S
H263 N256 0.984 . S
H264 N252 0.984 . S
H265 N252 0.985 . S
C266 C267 1.363 . S
C266 C272 1.379 . S
C266 N274 1.356 . S
C267 C266 1.363 . S
C267 C273 1.363 . S
C268 C269 1.364 . S
C268 C273 1.379 1_554 S
C268 N275 1.356 . S
C269 C268 1.364 . S
C269 C272 1.360 1_554 S
N270 C272 1.356 . S
N270 H282 0.984 . S
N270 H283 0.985 . S
N271 C273 1.356 . S
N271 H276 0.984 . S
N271 H277 0.985 1_556 S
C272 C266 1.379 . S
C272 C269 1.360 1_556 S
C272 N270 1.356 . S
C273 C267 1.363 . S
C273 C268 1.379 1_556 S
C273 N271 1.356 . S
N274 C266 1.356 . S
N274 H280 0.984 . S
N274 H281 0.984 . S
N275 C268 1.356 . S
N275 H278 0.984 . S
N275 H279 0.985 . S
H276 N271 0.984 . S
H277 N271 0.985 1_554 S
H278 N275 0.984 . S
H279 N275 0.985 . S
H280 N274 0.984 . S
H281 N274 0.984 . S
H282 N270 0.984 . S
H283 N270 0.985 . S
C284 C285 1.363 . S
C284 C290 1.379 . S
C284 N292 1.356 . S
C285 C284 1.363 . S
C285 C291 1.363 . S
C286 C287 1.365 . S
C286 C291 1.379 1_556 S
C286 N293 1.356 . S
C287 C286 1.365 . S
C287 C290 1.359 1_556 S
N288 C290 1.356 . S
N288 H300 0.984 . S
N288 H301 0.985 . S
N289 C291 1.356 1_556 S
N289 H294 0.984 1_556 S
N289 H295 0.985 . S
C290 C284 1.379 . S
C290 C287 1.359 1_554 S
C290 N288 1.356 . S
C291 C285 1.363 . S
C291 C286 1.379 1_554 S
C291 N289 1.356 1_554 S
N292 C284 1.356 . S
N292 H298 0.984 . S
N292 H299 0.984 . S
N293 C286 1.356 . S
N293 H296 0.984 . S
N293 H297 0.985 . S
H294 N289 0.984 1_554 S
H295 N289 0.985 . S
H296 N293 0.984 . S
H297 N293 0.985 . S
H298 N292 0.984 . S
H299 N292 0.984 . S
H300 N288 0.984 . S
H301 N288 0.985 . S
C302 C303 1.363 1_556 S
C302 C308 1.379 . S
C302 N310 1.356 . S
C303 C302 1.363 1_554 S
C303 C309 1.363 . S
C304 C305 1.363 . S
C304 C309 1.379 1_556 S
C304 N311 1.356 . S
C305 C304 1.363 . S
C305 C308 1.363 . S
N306 C308 1.356 . S
N306 H318 0.984 . S
N306 H319 0.985 . S
N307 C309 1.356 . S
N307 H312 0.984 . S
N307 H313 0.985 . S
C308 C302 1.379 . S
C308 C305 1.363 . S
C308 N306 1.356 . S
C309 C303 1.363 . S
C309 C304 1.379 1_554 S
C309 N307 1.356 . S
N310 C302 1.356 . S
N310 H316 0.984 . S
N310 H317 0.984 . S
N311 C304 1.356 . S
N311 H314 0.984 . S
N311 H315 0.985 1_556 S
H312 N307 0.984 . S
H313 N307 0.985 . S
H314 N311 0.984 . S
H315 N311 0.985 1_554 S
H316 N310 0.984 . S
H317 N310 0.984 . S
H318 N306 0.984 . S
H319 N306 0.985 . S
C320 C321 1.363 . S
C320 C326 1.379 . S
C320 N328 1.356 . S
C321 C320 1.363 . S
C321 C327 1.363 . S
C322 C323 1.363 . S
C322 C327 1.379 . S
C322 N329 1.356 . S
C323 C322 1.363 . S
C323 C326 1.363 . S
N324 C326 1.356 . S
N324 H336 0.984 . S
N324 H337 0.985 . S
N325 C327 1.356 . S
N325 H330 0.984 . S
N325 H331 0.985 . S
C326 C320 1.379 . S
C326 C323 1.363 . S
C326 N324 1.356 . S
C327 C321 1.363 . S
C327 C322 1.379 . S
C327 N325 1.356 . S
N328 C320 1.356 . S
N328 H334 0.984 . S
N328 H335 0.984 . S
N329 C322 1.356 . S
N329 H332 0.984 . S
N329 H333 0.985 . S
H330 N325 0.984 . S
H331 N325 0.985 . S
H332 N329 0.984 . S
H333 N329 0.985 . S
H334 N328 0.984 . S
H335 N328 0.984 . S
H336 N324 0.984 . S
H337 N324 0.985 . S
C338 C339 1.363 . S
C338 C344 1.379 . S
C338 N346 1.356 . S
C339 C338 1.363 . S
C339 C345 1.363 . S
C340 C341 1.363 . S
C340 C345 1.379 . S
C340 N347 1.356 . S
C341 C340 1.363 . S
C341 C344 1.363 . S
N342 C344 1.356 . S
N342 H354 0.984 . S
N342 H355 0.985 . S
N343 C345 1.356 . S
N343 H348 0.984 . S
N343 H349 0.985 . S
C344 C338 1.379 . S
C344 C341 1.363 . S
C344 N342 1.356 . S
C345 C339 1.363 . S
C345 C340 1.379 . S
C345 N343 1.356 . S
N346 C338 1.356 . S
N346 H352 0.984 . S
N346 H353 0.984 . S
N347 C340 1.356 . S
N347 H350 0.984 . S
N347 H351 0.985 . S
H348 N343 0.984 . S
H349 N343 0.985 . S
H350 N347 0.984 . S
H351 N347 0.985 . S
H352 N346 0.984 . S
H353 N346 0.984 . S
H354 N342 0.984 . S
H355 N342 0.985 . S
C356 C357 1.363 . S
C356 C362 1.379 . S
C356 N364 1.356 . S
C357 C356 1.363 . S
C357 C363 1.363 . S
C358 C359 1.363 . S
C358 C363 1.379 . S
C358 N365 1.356 . S
C359 C358 1.363 . S
C359 C362 1.363 . S
N360 C362 1.356 . S
N360 H372 0.984 . S
N360 H373 0.985 . S
N361 C363 1.356 . S
N361 H366 0.984 . S
N361 H367 0.985 . S
C362 C356 1.379 . S
C362 C359 1.363 . S
C362 N360 1.356 . S
C363 C357 1.363 . S
C363 C358 1.379 . S
C363 N361 1.356 . S
N364 C356 1.356 . S
N364 H370 0.984 . S
N364 H371 0.984 . S
N365 C358 1.356 . S
N365 H368 0.984 . S
N365 H369 0.985 . S
H366 N361 0.984 . S
H367 N361 0.985 . S
H368 N365 0.984 . S
H369 N365 0.985 . S
H370 N364 0.984 . S
H371 N364 0.984 . S
H372 N360 0.984 . S
H373 N360 0.985 . S
C374 C375 1.363 . S
C374 C380 1.379 . S
C374 N382 1.356 . S
C375 C374 1.363 . S
C375 C381 1.363 . S
C376 C377 1.363 . S
C376 C381 1.379 . S
C376 N383 1.356 . S
C377 C376 1.363 . S
C377 C380 1.363 . S
N378 C380 1.356 . S
N378 H390 0.984 . S
N378 H391 0.985 . S
N379 C381 1.356 . S
N379 H384 0.984 . S
N379 H385 0.985 . S
C380 C374 1.379 . S
C380 C377 1.363 . S
C380 N378 1.356 . S
C381 C375 1.363 . S
C381 C376 1.379 . S
C381 N379 1.356 . S
N382 C374 1.356 . S
N382 H388 0.984 . S
N382 H389 0.984 . S
N383 C376 1.356 . S
N383 H386 0.984 . S
N383 H387 0.985 . S
H384 N379 0.984 . S
H385 N379 0.985 . S
H386 N383 0.984 . S
H387 N383 0.985 . S
H388 N382 0.984 . S
H389 N382 0.984 . S
H390 N378 0.984 . S
H391 N378 0.985 . S
C392 C393 1.363 . S
C392 C398 1.379 . S
C392 N400 1.356 . S
C393 C392 1.363 . S
C393 C399 1.363 . S
C394 C395 1.363 . S
C394 C399 1.379 . S
C394 N401 1.356 . S
C395 C394 1.363 . S
C395 C398 1.363 . S
N396 C398 1.356 1_565 S
N396 H408 0.984 . S
N396 H409 0.985 . S
N397 C399 1.356 . S
N397 H402 0.984 . S
N397 H403 0.985 . S
C398 C392 1.379 . S
C398 C395 1.363 . S
C398 N396 1.356 1_545 S
C399 C393 1.363 . S
C399 C394 1.379 . S
C399 N397 1.356 . S
N400 C392 1.356 . S
N400 H406 0.984 . S
N400 H407 0.984 . S
N401 C394 1.356 . S
N401 H404 0.984 . S
N401 H405 0.985 . S
H402 N397 0.984 . S
H403 N397 0.985 . S
H404 N401 0.984 . S
H405 N401 0.985 . S
H406 N400 0.984 . S
H407 N400 0.984 . S
H408 N396 0.984 . S
H409 N396 0.985 . S
C410 C411 1.363 . S
C410 C416 1.379 . S
C410 N418 1.356 . S
C411 C410 1.363 . S
C411 C417 1.363 . S
C412 C413 1.363 . S
C412 C417 1.379 . S
C412 N419 1.356 1_455 S
C413 C412 1.363 . S
C413 C416 1.363 . S
N414 C416 1.356 . S
N414 H426 0.984 . S
N414 H427 0.985 1_455 S
N415 C417 1.356 . S
N415 H420 0.984 . S
N415 H421 0.985 . S
C416 C410 1.379 . S
C416 C413 1.363 . S
C416 N414 1.356 . S
C417 C411 1.363 . S
C417 C412 1.379 . S
C417 N415 1.356 . S
N418 C410 1.356 . S
N418 H424 0.984 . S
N418 H425 0.984 . S
N419 C412 1.356 1_655 S
N419 H422 0.984 . S
N419 H423 0.985 . S
H420 N415 0.984 . S
H421 N415 0.985 . S
H422 N419 0.984 . S
H423 N419 0.985 . S
H424 N418 0.984 . S
H425 N418 0.984 . S
H426 N414 0.984 . S
H427 N414 0.985 1_655 S
C428 C429 1.363 . S
C428 C434 1.386 . S
C428 N436 1.356 . S
C429 C428 1.363 . S
C429 C435 1.363 . S
C430 C431 1.363 1_565 S
C430 C435 1.379 . S
C430 N437 1.356 . S
C431 C430 1.363 1_545 S
C431 C434 1.362 1_545 S
N432 C434 1.348 1_545 S
N432 H444 0.984 . S
N432 H445 0.985 . S
N433 C435 1.356 . S
N433 H438 0.984 . S
N433 H439 0.985 . S
C434 C428 1.386 . S
C434 C431 1.362 1_565 S
C434 N432 1.348 1_565 S
C435 C429 1.363 . S
C435 C430 1.379 . S
C435 N433 1.356 . S
N436 C428 1.356 . S
N436 H442 0.984 . S
N436 H443 0.984 . S
N437 C430 1.356 . S
N437 H440 0.984 1_565 S
N437 H441 0.985 . S
H438 N433 0.984 . S
H439 N433 0.985 . S
H440 N437 0.984 1_545 S
H441 N437 0.985 . S
H442 N436 0.984 . S
H443 N436 0.984 . S
H444 N432 0.984 . S
H445 N432 0.985 . S
C446 C447 1.363 . S
C446 C452 1.379 . S
C446 N454 1.356 . S
C447 C446 1.363 . S
C447 C453 1.363 . S
C448 C449 1.363 . S
C448 C453 1.379 . S
C448 N455 1.356 . S
C449 C448 1.363 . S
C449 C452 1.363 . S
N450 C452 1.356 . S
N450 H462 0.984 . S
N450 H463 0.985 . S
N451 C453 1.356 1_455 S
N451 H456 0.984 . S
N451 H457 0.985 . S
C452 C446 1.379 . S
C452 C449 1.363 . S
C452 N450 1.356 . S
C453 C447 1.363 . S
C453 C448 1.379 . S
C453 N451 1.356 1_655 S
N454 C446 1.356 . S
N454 H460 0.984 . S
N454 H461 0.984 1_655 S
N455 C448 1.356 . S
N455 H458 0.984 . S
N455 H459 0.985 . S
H456 N451 0.984 . S
H457 N451 0.985 . S
H458 N455 0.984 . S
H459 N455 0.985 . S
H460 N454 0.984 . S
H461 N454 0.984 1_455 S
H462 N450 0.984 . S
H463 N450 0.985 . S
C464 C465 1.363 . S
C464 C470 1.379 . S
C464 N472 1.356 1_554 S
C465 C464 1.363 . S
C465 C471 1.363 . S
C466 C467 1.363 . S
C466 C471 1.379 . S
C466 N473 1.356 . S
C467 C466 1.363 . S
C467 C470 1.363 . S
N468 C470 1.356 . S
N468 H480 0.984 . S
N468 H481 0.985 . S
N469 C471 1.356 . S
N469 H474 0.984 . S
N469 H475 0.985 . S
C470 C464 1.379 . S
C470 C467 1.363 . S
C470 N468 1.356 . S
C471 C465 1.363 . S
C471 C466 1.379 . S
C471 N469 1.356 . S
N472 C464 1.356 1_556 S
N472 H478 0.984 . S
N472 H479 0.984 . S
N473 C466 1.356 . S
N473 H476 0.984 . S
N473 H477 0.985 . S
H474 N469 0.984 . S
H475 N469 0.985 . S
H476 N473 0.984 . S
H477 N473 0.985 . S
H478 N472 0.984 . S
H479 N472 0.984 . S
H480 N468 0.984 . S
H481 N468 0.985 . S
C482 C483 1.363 . S
C482 C488 1.379 . S
C482 N490 1.356 . S
C483 C482 1.363 . S
C483 C489 1.363 . S
C484 C485 1.363 . S
C484 C489 1.379 . S
C484 N491 1.356 . S
C485 C484 1.363 . S
C485 C488 1.363 . S
N486 C488 1.356 . S
N486 H498 0.984 . S
N486 H499 0.985 . S
N487 C489 1.356 . S
N487 H492 0.984 . S
N487 H493 0.985 . S
C488 C482 1.379 . S
C488 C485 1.363 . S
C488 N486 1.356 . S
C489 C483 1.363 . S
C489 C484 1.379 . S
C489 N487 1.356 . S
N490 C482 1.356 . S
N490 H496 0.984 . S
N490 H497 0.984 1_556 S
N491 C484 1.356 . S
N491 H494 0.984 . S
N491 H495 0.985 . S
H492 N487 0.984 . S
H493 N487 0.985 . S
H494 N491 0.984 . S
H495 N491 0.985 . S
H496 N490 0.984 . S
H497 N490 0.984 1_554 S
H498 N486 0.984 . S
H499 N486 0.985 . S
C500 C501 1.363 . S
C500 C506 1.379 . S
C500 N508 1.356 . S
C501 C500 1.363 . S
C501 C507 1.363 . S
C502 C503 1.363 . S
C502 C507 1.379 . S
C502 N509 1.356 . S
C503 C502 1.363 . S
C503 C506 1.363 . S
N504 C506 1.356 . S
N504 H516 0.984 . S
N504 H517 0.985 . S
N505 C507 1.356 . S
N505 H510 0.984 . S
N505 H511 0.985 . S
C506 C500 1.379 . S
C506 C503 1.363 . S
C506 N504 1.356 . S
C507 C501 1.363 . S
C507 C502 1.379 . S
C507 N505 1.356 . S
N508 C500 1.356 . S
N508 H514 0.984 . S
N508 H515 0.984 . S
N509 C502 1.356 . S
N509 H512 0.984 1_554 S
N509 H513 0.985 1_554 S
H510 N505 0.984 . S
H511 N505 0.985 . S
H512 N509 0.984 1_556 S
H513 N509 0.985 1_556 S
H514 N508 0.984 . S
H515 N508 0.984 . S
H516 N504 0.984 . S
H517 N504 0.985 . S
C518 C519 1.363 . S
C518 C524 1.379 . S
C518 N526 1.356 . S
C519 C518 1.363 . S
C519 C525 1.363 . S
C520 C521 1.363 . S
C520 C525 1.379 . S
C520 N527 1.356 . S
C521 C520 1.363 . S
C521 C524 1.363 . S
N522 C524 1.356 . S
N522 H534 0.984 . S
N522 H535 0.985 1_556 S
N523 C525 1.356 . S
N523 H528 0.984 . S
N523 H529 0.985 . S
C524 C518 1.379 . S
C524 C521 1.363 . S
C524 N522 1.356 . S
C525 C519 1.363 . S
C525 C520 1.379 . S
C525 N523 1.356 . S
N526 C518 1.356 . S
N526 H532 0.984 . S
N526 H533 0.984 . S
N527 C520 1.356 . S
N527 H530 0.984 . S
N527 H531 0.985 . S
H528 N523 0.984 . S
H529 N523 0.985 . S
H530 N527 0.984 . S
H531 N527 0.985 . S
H532 N526 0.984 . S
H533 N526 0.984 . S
H534 N522 0.984 . S
H535 N522 0.985 1_554 S
C536 C537 1.363 . S
C536 C542 1.379 . S
C536 N544 1.356 . S
C537 C536 1.363 . S
C537 C543 1.363 . S
C538 C539 1.363 . S
C538 C543 1.379 . S
C538 N545 1.356 . S
C539 C538 1.363 . S
C539 C542 1.363 . S
N540 C542 1.356 . S
N540 H552 0.984 . S
N540 H553 0.985 . S
N541 C543 1.356 . S
N541 H546 0.984 . S
N541 H547 0.985 . S
C542 C536 1.379 . S
C542 C539 1.363 . S
C542 N540 1.356 . S
C543 C537 1.363 . S
C543 C538 1.379 . S
C543 N541 1.356 . S
N544 C536 1.356 . S
N544 H550 0.984 . S
N544 H551 0.984 . S
N545 C538 1.356 . S
N545 H548 0.984 . S
N545 H549 0.985 . S
H546 N541 0.984 . S
H547 N541 0.985 . S
H548 N545 0.984 . S
H549 N545 0.985 . S
H550 N544 0.984 . S
H551 N544 0.984 . S
H552 N540 0.984 . S
H553 N540 0.985 . S
C554 C555 1.363 . S
C554 C560 1.379 . S
C554 N562 1.356 . S
C555 C554 1.363 . S
C555 C561 1.363 . S
C556 C557 1.363 . S
C556 C561 1.379 . S
C556 N563 1.356 . S
C557 C556 1.363 . S
C557 C560 1.363 . S
N558 C560 1.356 . S
N558 H570 0.984 . S
N558 H571 0.985 . S
N559 C561 1.356 . S
N559 H564 0.984 . S
N559 H565 0.985 . S
C560 C554 1.379 . S
C560 C557 1.363 . S
C560 N558 1.356 . S
C561 C555 1.363 . S
C561 C556 1.379 . S
C561 N559 1.356 . S
N562 C554 1.356 . S
N562 H568 0.984 . S
N562 H569 0.984 . S
N563 C556 1.356 . S
N563 H566 0.984 . S
N563 H567 0.985 . S
H564 N559 0.984 . S
H565 N559 0.985 . S
H566 N563 0.984 . S
H567 N563 0.985 . S
H568 N562 0.984 . S
H569 N562 0.984 . S
H570 N558 0.984 . S
H571 N558 0.985 . S
C572 C573 1.363 . S
C572 C578 1.379 . S
C572 N580 1.356 . S
C573 C572 1.363 . S
C573 C579 1.363 . S
C574 C575 1.363 . S
C574 C579 1.379 . S
C574 N581 1.356 . S
C575 C574 1.363 . S
C575 C578 1.363 . S
N576 C578 1.356 . S
N576 H588 0.984 . S
N576 H589 0.985 . S
N577 C579 1.356 . S
N577 H582 0.984 . S
N577 H583 0.985 . S
C578 C572 1.379 . S
C578 C575 1.363 . S
C578 N576 1.356 . S
C579 C573 1.363 . S
C579 C574 1.379 . S
C579 N577 1.356 . S
N580 C572 1.356 . S
N580 H586 0.984 . S
N580 H587 0.984 . S
N581 C574 1.356 . S
N581 H584 0.984 . S
N581 H585 0.985 . S
H582 N577 0.984 . S
H583 N577 0.985 . S
H584 N581 0.984 . S
H585 N581 0.985 . S
H586 N580 0.984 . S
H587 N580 0.984 . S
H588 N576 0.984 . S
H589 N576 0.985 . S
C590 C591 1.363 . S
C590 C596 1.379 . S
C590 N598 1.356 . S
C591 C590 1.363 . S
C591 C597 1.363 . S
C592 C593 1.363 . S
C592 C597 1.379 . S
C592 N599 1.356 . S
C593 C592 1.363 . S
C593 C596 1.363 . S
N594 C596 1.356 . S
N594 H606 0.984 . S
N594 H607 0.985 . S
N595 C597 1.356 . S
N595 H600 0.984 . S
N595 H601 0.985 . S
C596 C590 1.379 . S
C596 C593 1.363 . S
C596 N594 1.356 . S
C597 C591 1.363 . S
C597 C592 1.379 . S
C597 N595 1.356 . S
N598 C590 1.356 . S
N598 H604 0.984 . S
N598 H605 0.984 . S
N599 C592 1.356 . S
N599 H602 0.984 . S
N599 H603 0.985 . S
H600 N595 0.984 . S
H601 N595 0.985 . S
H602 N599 0.984 . S
H603 N599 0.985 . S
H604 N598 0.984 . S
H605 N598 0.984 . S
H606 N594 0.984 . S
H607 N594 0.985 . S
C177 C10 1.322 . S
C179 C128 1.303 . S
C195 C37 1.373 . S
C197 C150 1.369 . S
C213 C59 1.366 1_545 S
C215 C175 1.386 . S
C231 C103 1.319 . S
C233 C84 1.310 1_455 S
C249 C131 1.320 . S
C251 C96 1.319 . S
C267 C147 1.386 . S
C269 C125 1.359 . S
C285 C172 1.368 . S
C287 C153 1.369 . S
C303 C164 1.311 . S
C305 C106 1.303 . S
C321 C140 1.321 . S
C323 C74 1.303 . S
C339 C169 1.358 . S
C341 C8 1.368 . S
C357 C43 1.386 . S
C359 C109 1.365 . S
C375 C51 1.319 . S
C377 C120 1.310 . S
C393 C81 1.320 . S
C395 C54 1.319 1_545 S
C411 C7 1.386 . S
C413 C73 1.357 1_455 S
C429 C40 1.368 . S
C431 C15 1.367 . S
C447 C32 1.311 1_655 S
C449 C52 1.303 . S
C465 C98 1.305 . S
C467 C18 1.304 . S
C483 C117 1.348 . S
C485 C29 1.348 . S
C501 C65 1.356 . S
C503 C139 1.356 . S
C519 C76 1.296 . S
C521 C162 1.296 . S
C537 C62 1.305 . S
C539 C142 1.304 . S
C555 C87 1.348 . S
C557 C161 1.348 . S
C573 C95 1.356 . S
C575 C21 1.356 . S
C591 C118 1.296 . S
C593 C30 1.296 . S
