# Generated by pormake.
# Topology ukh, (4)-cn, num edge types: 1
# Building blocks:
#     Node 0, Type 0, BuildingBlock: QUQFOY_clean_sbu_1, # of connection points: 4
#     Node 1, Type 0, BuildingBlock: QUQFOY_clean_sbu_1, # of connection points: 4
#     Node 2, Type 0, BuildingBlock: QUQFOY_clean_sbu_1, # of connection points: 4
#     Node 3, Type 0, BuildingBlock: QUQFOY_clean_sbu_1, # of connection points: 4
#     Node 4, Type 0, BuildingBlock: QUQFOY_clean_sbu_1, # of connection points: 4
#     Node 5, Type 0, BuildingBlock: QUQFOY_clean_sbu_1, # of connection points: 4
#     Node 6, Type 0, BuildingBlock: QUQFOY_clean_sbu_1, # of connection points: 4
#     Node 7, Type 0, BuildingBlock: QUQFOY_clean_sbu_1, # of connection points: 4
#     Node 8, Type 0, BuildingBlock: QUQFOY_clean_sbu_1, # of connection points: 4
#     Node 9, Type 0, BuildingBlock: QUQFOY_clean_sbu_1, # of connection points: 4
#     Node 10, Type 0, BuildingBlock: QUQFOY_clean_sbu_1, # of connection points: 4
#     Node 11, Type 0, BuildingBlock: QUQFOY_clean_sbu_1, # of connection points: 4
#     Edge 12, Type (0, 0), BuildingBlock: EZIPEK_clean_linker_0, # of connection points: 2
#     Edge 13, Type (0, 0), BuildingBlock: EZIPEK_clean_linker_0, # of connection points: 2
#     Edge 14, Type (0, 0), BuildingBlock: EZIPEK_clean_linker_0, # of connection points: 2
#     Edge 15, Type (0, 0), BuildingBlock: EZIPEK_clean_linker_0, # of connection points: 2
#     Edge 16, Type (0, 0), BuildingBlock: EZIPEK_clean_linker_0, # of connection points: 2
#     Edge 17, Type (0, 0), BuildingBlock: EZIPEK_clean_linker_0, # of connection points: 2
#     Edge 18, Type (0, 0), BuildingBlock: EZIPEK_clean_linker_0, # of connection points: 2
#     Edge 19, Type (0, 0), BuildingBlock: EZIPEK_clean_linker_0, # of connection points: 2
#     Edge 20, Type (0, 0), BuildingBlock: EZIPEK_clean_linker_0, # of connection points: 2
#     Edge 21, Type (0, 0), BuildingBlock: EZIPEK_clean_linker_0, # of connection points: 2
#     Edge 22, Type (0, 0), BuildingBlock: EZIPEK_clean_linker_0, # of connection points: 2
#     Edge 23, Type (0, 0), BuildingBlock: EZIPEK_clean_linker_0, # of connection points: 2
#     Edge 24, Type (0, 0), BuildingBlock: EZIPEK_clean_linker_0, # of connection points: 2
#     Edge 25, Type (0, 0), BuildingBlock: EZIPEK_clean_linker_0, # of connection points: 2
#     Edge 26, Type (0, 0), BuildingBlock: EZIPEK_clean_linker_0, # of connection points: 2
#     Edge 27, Type (0, 0), BuildingBlock: EZIPEK_clean_linker_0, # of connection points: 2
#     Edge 28, Type (0, 0), BuildingBlock: EZIPEK_clean_linker_0, # of connection points: 2
#     Edge 29, Type (0, 0), BuildingBlock: EZIPEK_clean_linker_0, # of connection points: 2
#     Edge 30, Type (0, 0), BuildingBlock: EZIPEK_clean_linker_0, # of connection points: 2
#     Edge 31, Type (0, 0), BuildingBlock: EZIPEK_clean_linker_0, # of connection points: 2
#     Edge 32, Type (0, 0), BuildingBlock: EZIPEK_clean_linker_0, # of connection points: 2
#     Edge 33, Type (0, 0), BuildingBlock: EZIPEK_clean_linker_0, # of connection points: 2
#     Edge 34, Type (0, 0), BuildingBlock: EZIPEK_clean_linker_0, # of connection points: 2
#     Edge 35, Type (0, 0), BuildingBlock: EZIPEK_clean_linker_0, # of connection points: 2
# Relax obj value: 0.065
# Max RMSD: 0.077
# Mean RMSD: 0.077
data_MOF--net-ukh--node1-QUQFOY_clean_sbu_1--edge1-EZIPEK_clean_linker_0
_symmetry_space_group_name_H-M    P1
_symmetry_Int_Tables_number       1
_symmetry_cell_setting            triclinic
loop_
_symmetry_equiv_pos_as_xyz
'x, y, z'
_cell_length_a     24.234313
_cell_length_b     24.222307
_cell_length_c     49.735786
_cell_angle_alpha  89.965494
_cell_angle_beta   89.93835
_cell_angle_gamma 120.03099
loop_
_atom_site_label
_atom_site_type_symbol
_atom_site_fract_x
_atom_site_fract_y
_atom_site_fract_z
_atom_type_partial_charge
O0 O 0.31858 0.12983 0.05199 0.0
Cd1 Cd 0.30375 0.19281 0.07404 0.0
Cd2 Cd 0.38355 0.27252 0.03528 0.0
O3 O 0.40181 0.19748 0.02812 0.0
O4 O 0.2644 0.14437 0.10784 0.0
O5 O 0.35704 0.23459 0.10698 0.0
C6 C 0.31378 0.18693 0.1205 0.0
C7 C 0.45679 0.38199 0.03987 0.0
C8 C 0.36233 0.14033 0.03521 0.0
C9 C 0.24587 0.23802 0.03392 0.0
O10 O 0.29753 0.25805 0.0209 0.0
O11 O 0.23964 0.21551 0.05753 0.0
O12 O 0.44791 0.35354 0.01702 0.0
O13 O 0.42854 0.34734 0.06074 0.0
O14 O 0.21422 0.3103 0.38095 0.0
Cd15 Cd 0.13497 0.29382 0.4024 0.0
Cd16 Cd 0.13956 0.37853 0.36576 0.0
O17 O 0.23221 0.39603 0.35836 0.0
O18 O 0.14126 0.25222 0.43606 0.0
O19 O 0.14435 0.3452 0.43576 0.0
C20 C 0.14752 0.30103 0.44906 0.0
C21 C 0.10563 0.45258 0.37284 0.0
C22 C 0.2486 0.35528 0.36482 0.0
C23 C 0.03473 0.24218 0.36088 0.0
O24 O 0.06772 0.29565 0.3493 0.0
O25 O 0.04923 0.23213 0.38423 0.0
O26 O 0.12479 0.44577 0.3495 0.0
O27 O 0.11175 0.42201 0.39288 0.0
O28 O 0.91317 0.1947 0.7108 0.0
Cd29 Cd 0.85186 0.11825 0.734 0.0
Cd30 Cd 0.77032 0.11391 0.69513 0.0
O31 O 0.844 0.20698 0.68659 0.0
O32 O 0.90262 0.13033 0.7673 0.0
O33 O 0.81183 0.13151 0.7672 0.0
C34 C 0.8605 0.1373 0.78027 0.0
C35 C 0.66107 0.07734 0.70067 0.0
C36 C 0.90147 0.22597 0.69347 0.0
C37 C 0.8064 1.01194 0.69533 0.0
O38 O 0.7854 0.04196 0.68178 0.0
O39 O 0.82936 0.03037 0.71872 0.0
O40 O 0.68826 0.09534 0.67746 0.0
O41 O 0.69686 0.08534 0.72126 0.0
O42 O 0.74131 0.90927 0.04252 0.0
Cd43 Cd 0.74961 0.84435 0.06606 0.0
Cd44 Cd 0.67569 0.76703 0.02729 0.0
O45 O 0.66006 0.84279 0.01759 0.0
O46 O 0.78491 0.89228 0.10014 0.0
O47 O 0.69072 0.80404 0.09769 0.0
C48 C 0.73302 0.8509 0.11179 0.0
C49 C 0.60106 0.65948 0.0358 0.0
C50 C 0.70004 0.89974 0.02469 0.0
C51 C 0.81158 0.79739 0.02916 0.0
O52 O 0.7622 0.77887 0.01472 0.0
O53 O 0.81439 0.81934 0.05262 0.0
O54 O 0.61044 0.68276 0.01177 0.0
O55 O 0.62953 0.69858 0.05543 0.0
O56 O 0.86303 0.72947 0.38494 0.0
Cd57 Cd 0.93473 0.73162 0.40761 0.0
Cd58 Cd 0.94084 0.67199 0.3637 0.0
O59 O 0.85401 0.66403 0.35228 0.0
O60 O 0.92113 0.76369 0.44237 0.0
O61 O 0.9148 0.66969 0.43832 0.0
C62 C 0.91015 0.71088 0.45316 0.0
C63 C 0.97235 0.59622 0.36957 0.0
C64 C 0.83553 0.69911 0.3637 0.0
C65 C 0.0465 0.80509 0.37216 0.0
O66 O 1.01733 0.76013 0.35544 0.0
O67 O 1.02549 0.80088 0.39596 0.0
O68 O 0.96042 0.60967 0.34589 0.0
O69 O 0.95984 0.62077 0.39016 0.0
O70 O 0.15005 0.84251 0.72483 0.0
Cd71 Cd 0.22137 0.92349 0.74262 0.0
Cd72 Cd 0.27806 0.92398 0.69555 0.0
O73 O 0.19338 0.83994 0.68626 0.0
O74 O 0.1782 0.91637 0.77763 0.0
O75 O 0.26798 0.91401 0.77455 0.0
C76 C 0.22197 0.90979 0.78915 0.0
C77 C 0.38367 0.949 0.70119 0.0
C78 C 0.14497 0.81797 0.70178 0.0
C79 C 0.25366 0.03121 0.70362 0.0
O80 O 0.27117 1.00272 0.68733 0.0
O81 O 0.23592 1.01022 0.72742 0.0
O82 O 0.3582 0.9384 0.67754 0.0
O83 O 0.34706 0.93821 0.72186 0.0
O84 O 0.90932 0.71777 0.63475 0.0
Cd85 Cd 0.84667 0.72766 0.61045 0.0
Cd86 Cd 0.76668 0.6565 0.64928 0.0
O87 O 0.84099 0.64179 0.66168 0.0
O88 O 0.8956 0.7605 0.57644 0.0
O89 O 0.80468 0.66859 0.57914 0.0
C90 C 0.8526 0.70931 0.56497 0.0
C91 C 0.65883 0.58231 0.64208 0.0
C92 C 0.8982 0.67932 0.65404 0.0
C93 C 0.80159 0.79377 0.64627 0.0
O94 O 0.77904 0.74364 0.66052 0.0
O95 O 0.8259 0.79626 0.62333 0.0
O96 O 0.68282 0.59436 0.66597 0.0
O97 O 0.69738 0.60746 0.62195 0.0
O98 O 0.21525 0.91174 0.97122 0.0
Cd99 Cd 0.14242 0.84833 0.94726 0.0
Cd100 Cd 0.13649 0.76866 0.98609 0.0
O101 O 0.2283 0.84366 0.99588 0.0
O102 O 0.15634 0.89747 0.91337 0.0
O103 O 0.16146 0.80874 0.91557 0.0
C104 C 0.16672 0.85617 0.90162 0.0
C105 C 0.10136 0.66038 0.97851 0.0
C106 C 0.24621 0.90101 0.98902 0.0
C107 C 0.03218 0.80058 0.98363 0.0
O108 O 0.06217 0.78136 0.99825 0.0
O109 O 0.05241 0.82346 0.96036 0.0
O110 O 0.11675 0.68469 1.0023 0.0
O111 O 0.11161 0.69866 0.95856 0.0
O112 O 0.32428 0.20302 0.30281 0.0
Cd113 Cd 0.3089 0.12496 0.28082 0.0
Cd114 Cd 0.39229 0.12794 0.31742 0.0
O115 O 0.40943 0.22025 0.32554 0.0
O116 O 0.26743 0.13244 0.24743 0.0
O117 O 0.36077 0.13639 0.24738 0.0
C118 C 0.3165 0.13974 0.2343 0.0
C119 C 0.46634 0.09454 0.30922 0.0
C120 C 0.36876 0.23677 0.31917 0.0
C121 C 0.25623 0.02255 0.32151 0.0
O122 O 0.30917 0.05514 0.33345 0.0
O123 O 0.24706 0.03822 0.29825 0.0
O124 O 0.45964 0.11235 0.33287 0.0
O125 O 0.43558 0.1017 0.28955 0.0
O126 O 0.13141 0.30432 0.6315 0.0
Cd127 Cd 0.19623 0.29111 0.60997 0.0
Cd128 Cd 0.27295 0.3733 0.64769 0.0
O129 O 0.19737 0.39075 0.65401 0.0
O130 O 0.14946 0.24985 0.5761 0.0
O131 O 0.23764 0.34427 0.57687 0.0
C132 C 0.19121 0.29973 0.56335 0.0
C133 C 0.38168 0.44501 0.64121 0.0
C134 C 0.14063 0.34898 0.64751 0.0
C135 C 0.24304 0.23808 0.65161 0.0
O136 O 0.25994 0.28972 0.66414 0.0
O137 O 0.2221 0.23028 0.62766 0.0
O138 O 0.35475 0.44033 0.66418 0.0
O139 O 0.34571 0.41383 0.62111 0.0
O140 O 0.85711 0.13168 0.96201 0.0
Cd141 Cd 0.93378 0.19594 0.93964 0.0
Cd142 Cd 0.93289 0.2739 0.97843 0.0
O143 O 0.84026 0.19804 0.98613 0.0
O144 O 0.9243 0.1479 0.90574 0.0
O145 O 0.92001 0.23708 0.90695 0.0
C146 C 0.91589 0.18978 0.89331 0.0
C147 C 0.96729 0.38293 0.97314 0.0
C148 C 0.82362 0.14117 0.97902 0.0
C149 C 0.0374 0.24116 0.97932 0.0
O150 O 1.0053 0.26033 0.99251 0.0
O151 O 1.02136 0.21951 0.95559 0.0
O152 O 0.94975 0.35531 0.99628 0.0
O153 O 0.95955 0.34748 0.95243 0.0
O154 O 0.74524 0.85389 0.29187 0.0
Cd155 Cd 0.74931 0.92752 0.26985 0.0
Cd156 Cd 0.68692 0.93038 0.31392 0.0
O157 O 0.67872 0.84288 0.32444 0.0
O158 O 0.78365 0.91601 0.23523 0.0
O159 O 0.68984 0.91032 0.23847 0.0
C160 C 0.73179 0.90617 0.22395 0.0
C161 C 0.61099 0.96213 0.30913 0.0
C162 C 0.71416 0.82511 0.31283 0.0
C163 C 0.82082 0.03647 0.30686 0.0
O164 O 0.77474 1.00621 0.32304 0.0
O165 O 0.81806 1.01729 0.28283 0.0
O166 O 0.62437 0.94856 0.33249 0.0
O167 O 0.63579 0.95125 0.28816 0.0
C168 C 0.58901 0.55449 0.05187 0.0
C169 C 0.56157 0.58896 0.04017 0.0
C170 C 0.46524 0.48759 0.0289 0.0
C171 C 0.49193 0.45322 0.04126 0.0
N172 N 0.57361 0.45358 0.06888 0.0
N173 N 0.46871 0.58892 0.02311 0.0
C174 C 0.55187 0.48666 0.0543 0.0
C175 C 0.49825 0.55556 0.03025 0.0
N176 N 0.65187 0.58593 0.0591 0.0
N177 N 0.40834 0.45525 0.01564 0.0
H178 H 0.49097 0.63848 0.02448 0.0
H179 H 0.42054 0.56761 0.01834 0.0
H180 H 0.3804 0.40569 0.01565 0.0
H181 H 0.39027 0.47725 1.00334 0.0
H182 H 0.67674 0.56291 0.06453 0.0
H183 H 0.68106 0.63519 0.05772 0.0
H184 H 0.61319 0.47533 0.08145 0.0
H185 H 0.5493 0.40392 0.07002 0.0
C186 C 0.10595 0.55568 0.36656 0.0
C187 C 0.07388 0.49165 0.37574 0.0
C188 C 0.9781 0.49974 0.38511 0.0
C189 C 1.00754 0.56063 0.37267 0.0
N190 N 0.09904 0.64643 0.35038 0.0
N191 N 0.97675 0.3998 0.39134 0.0
C192 C 0.07136 0.58851 0.36305 0.0
C193 C 1.00948 0.46311 0.38475 0.0
N194 N 0.17031 0.58597 0.36224 0.0
N195 N 0.91986 0.47658 0.39711 0.0
H196 H 0.99742 0.37111 0.39162 0.0
H197 H 0.92776 0.37424 0.39465 0.0
H198 H 0.89387 0.50023 0.39645 0.0
H199 H 0.89922 0.4362 0.40932 0.0
H200 H 0.19813 0.63453 0.35822 0.0
H201 H 0.19724 0.56379 0.36529 0.0
H202 H 0.14186 0.66543 0.33985 0.0
H203 H 0.07767 0.67445 0.34903 0.0
C204 C 0.49078 0.04 0.71601 0.0
C205 C 0.45435 0.97856 0.70408 0.0
C206 C 0.55356 0.98192 0.69028 0.0
C207 C 0.58996 0.04244 0.70294 0.0
N208 N 0.59363 0.12393 0.73188 0.0
N209 N 0.45058 0.88567 0.68488 0.0
C210 C 0.55861 0.06953 0.71726 0.0
C211 C 0.48572 0.94808 0.6926 0.0
N212 N 0.46106 0.07222 0.72456 0.0
N213 N 0.58383 0.95674 0.67587 0.0
H214 H 0.40108 0.85932 0.6868 0.0
H215 H 0.47039 0.85814 0.67894 0.0
H216 H 0.63322 0.97721 0.67521 0.0
H217 H 0.56027 0.91726 0.66335 0.0
H218 H 0.48531 0.11999 0.73021 0.0
H219 H 0.41187 0.05308 0.72404 0.0
H220 H 0.57357 0.14175 0.7454 0.0
H221 H 0.64332 0.14911 0.73199 0.0
C222 C 0.55462 0.57131 0.62582 0.0
C223 C 0.58818 0.54395 0.63841 0.0
C224 C 0.48621 0.45182 0.65244 0.0
C225 C 0.45263 0.47812 0.6391 0.0
N226 N 0.45403 0.55646 0.60886 0.0
N227 N 0.58595 0.45222 0.6582 0.0
C228 C 0.48665 0.5356 0.62427 0.0
C229 C 0.55386 0.48243 0.65015 0.0
N230 N 0.58716 0.63298 0.6169 0.0
N231 N 0.45352 0.3977 0.66758 0.0
H232 H 0.63522 0.47269 0.65619 0.0
H233 H 0.56356 0.40478 0.66436 0.0
H234 H 0.40393 0.37138 0.66856 0.0
H235 H 0.47547 0.38071 0.68049 0.0
H236 H 0.56501 0.65814 0.61064 0.0
H237 H 0.63657 0.66122 0.61767 0.0
H238 H 0.47599 0.59383 0.59515 0.0
H239 H 0.40438 0.53332 0.60829 0.0
C240 C 0.06271 0.49046 0.96124 0.0
C241 C 0.99907 0.45408 0.97109 0.0
C242 C 1.00269 0.55316 0.98536 0.0
C243 C 0.0656 0.58959 0.97482 0.0
N244 N 0.15101 0.59413 0.94835 0.0
N245 N 0.90391 0.45136 0.9869 0.0
C246 C 0.09394 0.55856 0.9612 0.0
C247 C 0.96782 0.48571 0.98158 0.0
N248 N 0.09502 0.46025 0.9535 0.0
N249 N 0.97619 0.58297 0.9992 0.0
H250 H 0.87675 0.40229 0.98372 0.0
H251 H 0.87645 0.47189 0.99193 0.0
H252 H 0.99783 0.63236 1.00092 0.0
H253 H 0.93425 0.55876 0.01031 0.0
H254 H 0.14369 0.484 0.9494 0.0
H255 H 0.07456 0.41086 0.9531 0.0
H256 H 0.17063 0.57476 0.93539 0.0
H257 H 0.17678 0.64382 0.94907 0.0
C258 C 0.56964 0.09495 0.31458 0.0
C259 C 0.50562 0.06324 0.30551 0.0
C260 C 0.51428 0.96844 0.29452 0.0
C261 C 0.57516 0.99728 0.30687 0.0
N262 N 0.66056 0.0874 0.32987 0.0
N263 N 0.41407 0.96689 0.28926 0.0
C264 C 0.60272 0.06038 0.31725 0.0
C265 C 0.47736 0.99947 0.29575 0.0
N266 N 0.5997 0.15902 0.3196 0.0
N267 N 0.4914 0.9111 0.2818 0.0
H268 H 0.38514 0.98729 0.28962 0.0
H269 H 0.38875 0.91812 0.2854 0.0
H270 H 0.5153 0.88532 0.2818 0.0
H271 H 0.45102 0.89114 0.26966 0.0
H272 H 0.64823 0.18674 0.32359 0.0
H273 H 0.57735 0.18599 0.31716 0.0
H274 H 0.67932 0.12946 0.34091 0.0
H275 H 0.68872 0.06612 0.33067 0.0
C276 C 0.32646 0.21248 0.19645 0.0
C277 C 0.32263 0.15478 0.20516 0.0
C278 C 0.32599 0.12539 0.15825 0.0
C279 C 0.32139 0.17885 0.14959 0.0
N280 N 0.31102 0.27035 0.16017 0.0
N281 N 0.31261 0.05301 0.19467 0.0
C282 C 0.3205 0.22199 0.1686 0.0
C283 C 0.32129 0.11051 0.18615 0.0
N284 N 0.33756 0.25894 0.2148 0.0
N285 N 0.33661 0.08986 0.13981 0.0
H286 H 0.30948 0.04057 0.21492 0.0
H287 H 0.30371 1.01573 0.1817 0.0
H288 H 0.3409 0.09972 0.11926 0.0
H289 H 0.347 0.05441 0.14501 0.0
H290 H 0.34743 0.3046 0.20951 0.0
H291 H 0.34276 0.25388 0.23533 0.0
H292 H 0.30241 0.2988 0.17322 0.0
H293 H 0.30692 0.27915 0.13995 0.0
C294 C 0.21941 0.31273 0.48748 0.0
C295 C 0.16128 0.30707 0.47832 0.0
C296 C 0.1293 0.30896 0.52498 0.0
C297 C 0.18354 0.30644 0.53412 0.0
N298 N 0.27743 0.29969 0.52435 0.0
N299 N 0.05778 0.29362 0.48799 0.0
C300 C 0.2282 0.30718 0.51546 0.0
C301 C 0.11552 0.30402 0.49697 0.0
N302 N 0.26692 0.32519 0.46946 0.0
N303 N 0.09198 0.31794 0.54307 0.0
H304 H 0.0462 0.29041 0.46765 0.0
H305 H 1.01962 0.28343 0.50067 0.0
H306 H 0.10095 0.32237 0.56369 0.0
H307 H 0.05572 0.32683 0.53753 0.0
H308 H 0.31278 0.33647 0.47506 0.0
H309 H 0.26234 0.32999 0.44886 0.0
H310 H 0.30724 0.29234 0.51159 0.0
H311 H 0.28571 0.29594 0.54466 0.0
C312 C 0.82852 0.11039 0.82877 0.0
C313 C 0.86997 0.15421 0.80922 0.0
C314 C 0.94047 0.22396 0.84488 0.0
C315 C 0.89819 0.18089 0.86444 0.0
N316 N 0.79528 0.09121 0.87549 0.0
N317 N 0.95704 0.25885 0.79834 0.0
C318 C 0.8401 0.12652 0.8565 0.0
C319 C 0.92346 0.21295 0.81721 0.0
N320 N 0.77988 0.05213 0.82093 0.0
N321 N 0.99815 0.27367 0.85263 0.0
H322 H 0.94551 0.2526 0.77794 0.0
H323 H 0.99244 0.30505 0.80308 0.0
H324 H 1.01203 0.28362 0.8727 0.0
H325 H 0.03416 0.30233 0.83916 0.0
H326 H 0.75271 1.01524 0.83431 0.0
H327 H 0.76948 0.03876 0.80083 0.0
H328 H 0.74938 0.05501 0.87085 0.0
H329 H 0.80195 0.102 0.89594 0.0
C330 C 0.71985 0.91496 0.14797 0.0
C331 C 0.72195 0.85952 0.14037 0.0
C332 C 0.71271 0.82758 0.18765 0.0
C333 C 0.72045 0.88747 0.19531 0.0
N334 N 0.73467 0.99018 0.1833 0.0
N335 N 0.72439 0.76444 0.15267 0.0
C336 C 0.72411 0.93149 0.17562 0.0
C337 C 0.71855 0.81563 0.1601 0.0
N338 N 0.71241 0.95099 0.12869 0.0
N339 N 0.69884 0.78186 0.20678 0.0
H340 H 0.72827 0.7538 0.13269 0.0
H341 H 0.72989 0.73496 0.16633 0.0
H342 H 0.69395 0.78912 0.22712 0.0
H343 H 0.6864 0.73506 0.2023 0.0
H344 H 0.70432 0.98841 0.13301 0.0
H345 H 0.70842 0.93975 0.10828 0.0
H346 H 0.74557 0.02726 0.16988 0.0
H347 H 0.73657 1.00334 0.2034 0.0
C348 C 0.91311 0.69069 0.52891 0.0
C349 C 0.86028 0.69746 0.53642 0.0
C350 C 0.83135 0.694 0.48906 0.0
C351 C 0.88965 0.69773 0.48158 0.0
N352 N 0.98812 0.70254 0.49393 0.0
N353 N 0.77031 0.70888 0.52408 0.0
C354 C 0.93077 0.69591 0.50136 0.0
C355 C 0.81907 0.69907 0.51664 0.0
N356 N 0.94566 0.67825 0.54818 0.0
N357 N 0.7874 0.68463 0.46974 0.0
H358 H 0.75928 0.71197 0.54409 0.0
H359 H 0.74342 0.71825 0.51045 0.0
H360 H 0.79481 0.68009 0.44938 0.0
H361 H 0.74147 0.67535 0.47403 0.0
H362 H 0.98072 0.66672 0.54383 0.0
H363 H 0.93346 0.67358 0.56852 0.0
H364 H 1.02353 0.70934 0.50758 0.0
H365 H 1.0022 0.70541 0.47392 0.0
C366 C 0.24306 0.92115 0.86516 0.0
C367 C 0.18627 0.865 0.87298 0.0
C368 C 0.16425 0.83178 0.82587 0.0
C369 C 0.21535 0.89216 0.81793 0.0
N370 N 0.30207 0.99619 0.82944 0.0
N371 N 0.08963 0.76868 0.86095 0.0
C372 C 0.25496 0.93718 0.83741 0.0
C373 C 0.14636 0.82027 0.85342 0.0
N374 N 0.28624 0.95828 0.88428 0.0
N375 N 0.13348 0.78515 0.80702 0.0
H376 H 0.07473 0.75846 0.88091 0.0
H377 H 0.05505 0.73858 0.84731 0.0
H378 H 0.14572 0.79197 0.78668 0.0
H379 H 0.10014 0.73814 0.8118 0.0
H380 H 0.33127 0.9964 0.8798 0.0
H381 H 0.27938 0.94738 0.90475 0.0
H382 H 0.32761 0.03381 0.84267 0.0
H383 H 0.31304 1.00889 0.80927 0.0
C384 C 0.33849 1.01138 0.98497 0.0
C385 C 0.30107 0.95816 1.00183 0.0
C386 C 0.3429 0.02969 0.04069 0.0
C387 C 0.36195 0.08302 0.02347 0.0
N388 N 0.38466 0.12486 0.97801 0.0
N389 N 0.27323 0.91635 0.04714 0.0
C390 C 0.36355 0.07438 0.99524 0.0
C391 C 0.30628 0.96677 0.03018 0.0
N392 N 0.34902 1.00109 0.95896 0.0
N393 N 0.35934 0.03982 0.06722 0.0
H394 H 0.2489 0.86916 0.04082 0.0
H395 H 0.26829 0.92169 0.06764 0.0
H396 H 0.38738 0.08575 0.07494 0.0
H397 H 0.35135 1.00341 0.08059 0.0
H398 H 0.37989 0.03733 0.94602 0.0
H399 H 0.33188 0.9551 0.95142 0.0
H400 H 0.37769 0.11955 0.95729 0.0
H401 H 0.40772 0.17213 0.98421 0.0
C402 C 0.34024 0.33688 0.37009 0.0
C403 C 0.30523 0.3549 0.35291 0.0
C404 C 0.35088 0.32884 0.31424 0.0
C405 C 0.36797 0.29293 0.33134 0.0
N406 N 0.38532 0.26855 0.37671 0.0
N407 N 0.28322 0.37461 0.3075 0.0
C408 C 0.36644 0.30013 0.35966 0.0
C409 C 0.31379 0.35473 0.32462 0.0
N410 N 0.34704 0.35417 0.39654 0.0
N411 N 0.36936 0.3368 0.28792 0.0
H412 H 0.25902 0.39761 0.3138 0.0
H413 H 0.28034 0.36653 0.28685 0.0
H414 H 0.39724 0.31865 0.28027 0.0
H415 H 0.36298 0.36647 0.27468 0.0
H416 H 0.37601 0.34704 0.40988 0.0
H417 H 0.3287 0.38184 0.40423 0.0
H418 H 0.37635 0.26477 0.39731 0.0
H419 H 0.40829 0.24435 0.37037 0.0
C420 C 1.01047 0.32019 0.69784 0.0
C421 C 0.95777 0.28232 0.68089 0.0
C422 C 1.02928 0.32678 0.64204 0.0
C423 C 0.0826 0.34689 0.65924 0.0
N424 N 0.12419 0.36904 0.70466 0.0
N425 N 0.91644 0.25512 0.63553 0.0
C426 C 0.07365 0.3473 0.6875 0.0
C427 C 0.9665 0.28864 0.65253 0.0
N428 N 0.99953 0.329 0.724 0.0
N429 N 0.03933 0.3435 0.61551 0.0
H430 H 0.86924 0.22979 0.64181 0.0
H431 H 0.92208 0.25088 0.615 0.0
H432 H 0.08517 0.37227 0.60778 0.0
H433 H 1.00283 0.33484 0.60212 0.0
H434 H 0.03524 0.35998 0.73705 0.0
H435 H 0.95336 0.31016 0.73161 0.0
H436 H 0.11904 0.36151 0.72536 0.0
H437 H 0.17143 0.39305 0.69838 0.0
C438 C 0.71974 1.01062 0.0292 0.0
C439 C 0.70341 0.9577 0.01213 0.0
C440 C 0.73292 0.03024 0.97354 0.0
C441 C 0.76749 0.08318 0.99086 0.0
N442 N 0.78881 0.12361 0.03652 0.0
N443 N 0.68985 0.91721 0.96662 0.0
C444 C 0.75811 0.07379 0.01911 0.0
C445 C 0.70688 0.96708 0.98381 0.0
N446 N 0.69901 0.99992 0.05523 0.0
N447 N 0.72597 0.04091 0.94713 0.0
H448 H 0.66761 0.86986 0.97274 0.0
H449 H 0.70014 0.92326 0.94612 0.0
H450 H 0.74348 0.08698 0.9396 0.0
H451 H 0.69731 1.00474 0.93375 0.0
H452 H 0.70488 0.03607 0.0683 0.0
H453 H 0.66968 0.95384 0.06264 0.0
H454 H 0.79064 0.11749 0.05717 0.0
H455 H 0.81444 0.17101 0.03051 0.0
C456 C 0.70345 0.72213 0.33203 0.0
C457 C 0.7391 0.78916 0.32792 0.0
C458 C 0.83653 0.78999 0.34092 0.0
C459 C 0.80088 0.72484 0.34821 0.0
N460 N 0.69934 0.62899 0.35304 0.0
N461 N 0.8358 0.8885 0.3367 0.0
C462 C 0.73378 0.69062 0.34441 0.0
C463 C 0.80447 0.82347 0.33491 0.0
N464 N 0.6416 0.68887 0.32371 0.0
N465 N 0.90146 0.81987 0.33904 0.0
H466 H 0.81325 0.91508 0.33365 0.0
H467 H 0.88193 0.91505 0.34428 0.0
H468 H 0.92699 0.79631 0.34231 0.0
H469 H 0.92893 0.86576 0.33126 0.0
H470 H 0.61461 0.63929 0.3238 0.0
H471 H 0.61852 0.71139 0.31533 0.0
H472 H 0.64973 0.60311 0.3532 0.0
H473 H 0.72099 0.605 0.36137 0.0
C474 C 1.02819 0.78373 0.69899 0.0
C475 C 0.07893 0.77274 0.69174 0.0
C476 C 1.0038 0.68538 0.66244 0.0
C477 C 0.95327 0.69413 0.67173 0.0
N478 N 0.91504 0.73736 0.70589 0.0
N479 N 0.10997 0.70228 0.67094 0.0
C480 C 0.96467 0.7374 0.69284 0.0
C481 C 0.06525 0.72002 0.67482 0.0
N482 N 0.0403 0.8413 0.70902 0.0
N483 N 0.99338 0.64529 0.64138 0.0
H484 H 0.15426 0.72514 0.68042 0.0
H485 H 0.10073 0.66126 0.6605 0.0
H486 H 0.94817 0.6174 0.633 0.0
H487 H 1.02978 0.64213 0.63163 0.0
H488 H 1.00462 0.85265 0.71229 0.0
H489 H 0.08577 0.88095 0.71017 0.0
H490 H 0.92157 0.76551 0.72278 0.0
H491 H 0.86753 0.70431 0.70184 0.0
C492 C 0.0869 0.1811 0.99912 0.0
C493 C 0.09152 0.24037 0.99264 0.0
C494 C 0.19366 0.29738 0.01636 0.0
C495 C 0.19161 0.23854 0.02071 0.0
N496 N 0.14184 0.12528 0.01291 0.0
N497 N 0.15248 0.35523 0.99155 0.0
C498 C 0.13972 0.18056 0.01119 0.0
C499 C 0.14581 0.29869 1.00032 0.0
N500 N 1.03106 0.12536 0.99482 0.0
N501 N 0.24029 0.35161 0.02827 0.0
H502 H 0.11839 0.35782 0.9797 0.0
H503 H 0.1939 0.39907 0.99403 0.0
H504 H 0.27568 0.35208 0.04036 0.0
H505 H 0.24096 0.39492 0.02813 0.0
H506 H 1.02242 0.08131 1.00196 0.0
H507 H 0.99106 0.12352 0.9861 0.0
H508 H 0.10905 0.08304 1.0035 0.0
H509 H 0.17926 0.12268 0.02198 0.0
C510 C 0.93519 0.08948 0.32139 0.0
C511 C 0.87902 0.09285 0.31704 0.0
C512 C 0.92406 0.19269 0.34243 0.0
C513 C 0.98085 0.19033 0.34616 0.0
N514 N 0.04606 0.14411 0.3352 0.0
N515 N 0.82502 0.15339 0.3178 0.0
C516 C 0.98809 0.14091 0.33445 0.0
C517 C 0.87501 0.14629 0.32591 0.0
N518 N 0.93709 0.03607 0.31403 0.0
N519 N 0.91626 0.23803 0.35544 0.0
H520 H 0.78952 0.121 0.30497 0.0
H521 H 0.82181 0.19397 0.32154 0.0
H522 H 0.95138 0.27275 0.36765 0.0
H523 H 0.87346 0.23831 0.3559 0.0
H524 H 0.97309 0.02703 0.31982 0.0
H525 H 0.90063 0.99857 0.30336 0.0
H526 H 0.0565 0.11354 0.32449 0.0
H527 H 0.08566 0.18051 0.34496 0.0
C528 C 0.86237 0.90376 0.66555 0.0
C529 C 0.8032 0.85087 0.65763 0.0
C530 C 0.74618 0.90056 0.67754 0.0
C531 C 0.80545 0.95582 0.6832 0.0
N532 N 0.92005 1.01488 0.67878 0.0
N533 N 0.68945 0.80208 0.65231 0.0
C534 C 0.86367 0.95882 0.67618 0.0
C535 C 0.74521 0.85016 0.66256 0.0
N536 N 0.91698 0.9004 0.664 0.0
N537 N 0.69105 0.89527 0.68741 0.0
H538 H 0.68719 0.76452 0.64118 0.0
H539 H 0.64655 0.80218 0.65278 0.0
H540 H 0.69025 0.93073 0.69902 0.0
H541 H 0.64691 0.85368 0.68626 0.0
H542 H 0.96013 0.93437 0.6724 0.0
H543 H 0.91822 0.86097 0.65632 0.0
H544 H 0.96318 0.02188 0.6712 0.0
H545 H 0.92312 0.05631 0.68655 0.0
C546 C 0.86508 0.73959 0.01084 0.0
C547 C 0.86805 0.79791 0.01763 0.0
C548 C 0.97968 0.85763 1.00321 0.0
C549 C 0.97521 0.79974 0.99459 0.0
N550 N 0.91204 0.68697 0.98605 0.0
N551 N 0.92351 0.91298 0.01571 0.0
C552 C 0.91741 0.74098 0.99726 0.0
C553 C 0.92413 0.85717 0.01261 0.0
N554 N 0.8131 0.68297 0.01816 0.0
N555 N 0.03745 0.91276 1.0032 0.0
H556 H 0.88363 0.91485 0.02234 0.0
H557 H 0.96061 0.95711 0.00948 0.0
H558 H 0.07921 0.91531 0.99612 0.0
H559 H 0.0451 0.95485 0.01217 0.0
H560 H 0.81087 0.63907 0.01642 0.0
H561 H 0.77386 0.68024 0.02805 0.0
H562 H 0.86934 0.64383 0.98493 0.0
H563 H 0.94939 0.68661 0.97576 0.0
C564 C 0.10005 0.92001 0.35839 0.0
C565 C 0.10356 0.86394 0.36289 0.0
C566 C 0.20645 0.91135 0.33966 0.0
C567 C 0.20375 0.96794 0.33571 0.0
N568 N 0.15535 0.03171 0.34564 0.0
N569 N 0.16488 0.81076 0.36348 0.0
C570 C 0.15265 0.97394 0.34635 0.0
C571 C 0.15833 0.86101 0.3552 0.0
N572 N 0.04551 0.92087 0.36462 0.0
N573 N 0.25382 0.90496 0.32775 0.0
H574 H 0.13105 0.77422 0.37557 0.0
H575 H 0.20609 0.80817 0.36065 0.0
H576 H 0.29004 0.94111 0.31638 0.0
H577 H 0.25471 0.86244 0.32737 0.0
H578 H 0.03671 0.95692 0.35859 0.0
H579 H 1.00698 0.88354 0.37453 0.0
H580 H 0.12318 0.0411 0.35565 0.0
H581 H 0.1928 0.07217 0.33674 0.0
C582 C 0.30831 0.14183 0.68504 0.0
C583 C 0.25111 0.08754 0.69373 0.0
C584 C 0.18917 0.13526 0.677 0.0
C585 C 0.24563 0.18583 0.66567 0.0
N586 N 0.3578 0.23459 0.65589 0.0
N587 N 0.13609 0.02863 0.69568 0.0
C588 C 0.30504 0.18859 0.66896 0.0
C589 C 0.19121 0.08336 0.68932 0.0
N590 N 0.36574 0.1492 0.69276 0.0
N591 N 0.13389 0.13752 0.67646 0.0
H592 H 0.13544 0.99033 0.70546 0.0
H593 H 0.09106 1.0194 0.68975 0.0
H594 H 0.1302 0.17406 0.66706 0.0
H595 H 0.09295 0.10589 0.68701 0.0
H596 H 0.4092 0.19049 0.68933 0.0
H597 H 0.36943 0.11615 0.70494 0.0
H598 H 0.4012 0.23554 0.65527 0.0
H599 H 0.35679 0.26915 0.6437 0.0
loop_
_geom_bond_atom_site_label_1
_geom_bond_atom_site_label_2
_geom_bond_distance
_geom_bond_site_symmetry_2
_ccdc_geom_bond_type
O0 Cd1 2.223 . S
O0 C8 1.315 . S
Cd1 O0 2.223 . S
Cd1 O4 2.297 . S
Cd1 O5 2.439 . S
Cd1 O11 2.240 . S
Cd2 O3 2.240 . S
Cd2 O10 2.223 1_554 S
Cd2 O12 2.297 . S
Cd2 O13 2.439 . S
O3 Cd2 2.240 . S
O3 C8 1.279 . S
O4 Cd1 2.297 . S
O4 C6 1.247 . S
O5 Cd1 2.439 . S
O5 C6 1.208 . S
C6 O4 1.247 . S
C6 O5 1.208 . S
C7 O12 1.247 . S
C7 O13 1.208 . S
C8 O0 1.315 . S
C8 O3 1.279 . S
C9 O10 1.315 1_554 S
C9 O11 1.279 . S
O10 Cd2 2.223 1_556 S
O10 C9 1.315 1_556 S
O11 Cd1 2.240 . S
O11 C9 1.279 . S
O12 Cd2 2.297 . S
O12 C7 1.247 . S
O13 Cd2 2.439 . S
O13 C7 1.208 . S
O14 Cd15 2.223 . S
O14 C22 1.315 . S
Cd15 O14 2.223 . S
Cd15 O18 2.297 . S
Cd15 O19 2.439 . S
Cd15 O25 2.227 1_455 S
Cd16 O17 2.240 . S
Cd16 O24 2.223 . S
Cd16 O26 2.297 . S
Cd16 O27 2.439 . S
O17 Cd16 2.240 . S
O17 C22 1.279 . S
O18 Cd15 2.297 . S
O18 C20 1.247 . S
O19 Cd15 2.439 . S
O19 C20 1.208 . S
C20 O18 1.247 . S
C20 O19 1.208 . S
C21 O26 1.247 . S
C21 O27 1.208 . S
C22 O14 1.315 . S
C22 O17 1.279 . S
C23 O24 1.315 1_655 S
C23 O25 1.280 . S
O24 Cd16 2.223 . S
O24 C23 1.315 1_455 S
O25 Cd15 2.227 1_655 S
O25 C23 1.280 . S
O26 Cd16 2.297 . S
O26 C21 1.247 . S
O27 Cd16 2.439 . S
O27 C21 1.208 . S
O28 Cd29 2.223 . S
O28 C36 1.315 . S
Cd29 O28 2.223 . S
Cd29 O32 2.297 . S
Cd29 O33 2.439 . S
Cd29 O39 2.237 1_545 S
Cd30 O31 2.240 . S
Cd30 O38 2.223 . S
Cd30 O40 2.297 . S
Cd30 O41 2.439 . S
O31 Cd30 2.240 . S
O31 C36 1.279 . S
O32 Cd29 2.297 . S
O32 C34 1.247 . S
O33 Cd29 2.439 . S
O33 C34 1.208 . S
C34 O32 1.247 . S
C34 O33 1.208 . S
C35 O40 1.247 . S
C35 O41 1.208 . S
C36 O28 1.315 . S
C36 O31 1.279 . S
C37 O38 1.315 1_565 S
C37 O39 1.284 . S
O38 Cd30 2.223 . S
O38 C37 1.315 1_545 S
O39 Cd29 2.237 1_565 S
O39 C37 1.284 . S
O40 Cd30 2.297 . S
O40 C35 1.247 . S
O41 Cd30 2.439 . S
O41 C35 1.208 . S
O42 Cd43 2.223 . S
O42 C50 1.315 . S
Cd43 O42 2.223 . S
Cd43 O46 2.297 . S
Cd43 O47 2.439 . S
Cd43 O53 2.240 . S
Cd44 O45 2.240 . S
Cd44 O52 2.223 1_554 S
Cd44 O54 2.297 . S
Cd44 O55 2.439 . S
O45 Cd44 2.240 . S
O45 C50 1.279 . S
O46 Cd43 2.297 . S
O46 C48 1.247 . S
O47 Cd43 2.439 . S
O47 C48 1.208 . S
C48 O46 1.247 . S
C48 O47 1.208 . S
C49 O54 1.247 . S
C49 O55 1.208 . S
C50 O42 1.315 . S
C50 O45 1.279 . S
C51 O52 1.315 1_554 S
C51 O53 1.279 . S
O52 Cd44 2.223 1_556 S
O52 C51 1.315 1_556 S
O53 Cd43 2.240 . S
O53 C51 1.279 . S
O54 Cd44 2.297 . S
O54 C49 1.247 . S
O55 Cd44 2.439 . S
O55 C49 1.208 . S
O56 Cd57 2.223 . S
O56 C64 1.315 . S
Cd57 O56 2.223 . S
Cd57 O60 2.297 . S
Cd57 O61 2.439 . S
Cd57 O67 2.227 1_655 S
Cd58 O59 2.240 . S
Cd58 O66 2.223 . S
Cd58 O68 2.297 . S
Cd58 O69 2.439 . S
O59 Cd58 2.240 . S
O59 C64 1.279 . S
O60 Cd57 2.297 . S
O60 C62 1.247 . S
O61 Cd57 2.439 . S
O61 C62 1.208 . S
C62 O60 1.247 . S
C62 O61 1.208 . S
C63 O68 1.247 . S
C63 O69 1.208 . S
C64 O56 1.315 . S
C64 O59 1.279 . S
C65 O66 1.315 1_455 S
C65 O67 1.280 . S
O66 Cd58 2.223 . S
O66 C65 1.315 1_655 S
O67 Cd57 2.227 1_455 S
O67 C65 1.280 . S
O68 Cd58 2.297 . S
O68 C63 1.247 . S
O69 Cd58 2.439 . S
O69 C63 1.208 . S
O70 Cd71 2.223 . S
O70 C78 1.315 . S
Cd71 O70 2.223 . S
Cd71 O74 2.297 . S
Cd71 O75 2.439 . S
Cd71 O81 2.237 1_565 S
Cd72 O73 2.240 . S
Cd72 O80 2.223 . S
Cd72 O82 2.297 . S
Cd72 O83 2.439 . S
O73 Cd72 2.240 . S
O73 C78 1.279 . S
O74 Cd71 2.297 . S
O74 C76 1.247 . S
O75 Cd71 2.439 . S
O75 C76 1.208 . S
C76 O74 1.247 . S
C76 O75 1.208 . S
C77 O82 1.247 . S
C77 O83 1.208 . S
C78 O70 1.315 . S
C78 O73 1.279 . S
C79 O80 1.315 1_545 S
C79 O81 1.284 . S
O80 Cd72 2.223 . S
O80 C79 1.315 1_565 S
O81 Cd71 2.237 1_545 S
O81 C79 1.284 . S
O82 Cd72 2.297 . S
O82 C77 1.247 . S
O83 Cd72 2.439 . S
O83 C77 1.208 . S
O84 Cd85 2.223 . S
O84 C92 1.315 . S
Cd85 O84 2.223 . S
Cd85 O88 2.297 . S
Cd85 O89 2.439 . S
Cd85 O95 2.240 . S
Cd86 O87 2.240 . S
Cd86 O94 2.223 . S
Cd86 O96 2.297 . S
Cd86 O97 2.439 . S
O87 Cd86 2.240 . S
O87 C92 1.279 . S
O88 Cd85 2.297 . S
O88 C90 1.247 . S
O89 Cd85 2.439 . S
O89 C90 1.208 . S
C90 O88 1.247 . S
C90 O89 1.208 . S
C91 O96 1.247 . S
C91 O97 1.208 . S
C92 O84 1.315 . S
C92 O87 1.279 . S
C93 O94 1.315 . S
C93 O95 1.279 . S
O94 Cd86 2.223 . S
O94 C93 1.315 . S
O95 Cd85 2.240 . S
O95 C93 1.279 . S
O96 Cd86 2.297 . S
O96 C91 1.247 . S
O97 Cd86 2.439 . S
O97 C91 1.208 . S
O98 Cd99 2.223 . S
O98 C106 1.315 . S
Cd99 O98 2.223 . S
Cd99 O102 2.297 . S
Cd99 O103 2.439 . S
Cd99 O109 2.237 1_455 S
Cd100 O101 2.240 . S
Cd100 O108 2.223 1_556 S
Cd100 O110 2.297 . S
Cd100 O111 2.439 . S
O101 Cd100 2.240 . S
O101 C106 1.279 . S
O102 Cd99 2.297 . S
O102 C104 1.247 . S
O103 Cd99 2.439 . S
O103 C104 1.208 . S
C104 O102 1.247 . S
C104 O103 1.208 . S
C105 O110 1.247 . S
C105 O111 1.208 . S
C106 O98 1.315 . S
C106 O101 1.279 . S
C107 O108 1.315 1_656 S
C107 O109 1.284 . S
O108 Cd100 2.223 1_554 S
O108 C107 1.315 1_454 S
O109 Cd99 2.237 1_655 S
O109 C107 1.284 . S
O110 Cd100 2.297 . S
O110 C105 1.247 . S
O111 Cd100 2.439 . S
O111 C105 1.208 . S
O112 Cd113 2.223 . S
O112 C120 1.315 . S
Cd113 O112 2.223 . S
Cd113 O116 2.297 . S
Cd113 O117 2.439 . S
Cd113 O123 2.227 1_545 S
Cd114 O115 2.240 . S
Cd114 O122 2.223 . S
Cd114 O124 2.297 . S
Cd114 O125 2.439 . S
O115 Cd114 2.240 . S
O115 C120 1.279 . S
O116 Cd113 2.297 . S
O116 C118 1.247 . S
O117 Cd113 2.439 . S
O117 C118 1.208 . S
C118 O116 1.247 . S
C118 O117 1.208 . S
C119 O124 1.247 . S
C119 O125 1.208 . S
C120 O112 1.315 . S
C120 O115 1.279 . S
C121 O122 1.315 1_565 S
C121 O123 1.280 . S
O122 Cd114 2.223 . S
O122 C121 1.315 1_545 S
O123 Cd113 2.227 1_565 S
O123 C121 1.280 . S
O124 Cd114 2.297 . S
O124 C119 1.247 . S
O125 Cd114 2.439 . S
O125 C119 1.208 . S
O126 Cd127 2.223 . S
O126 C134 1.315 . S
Cd127 O126 2.223 . S
Cd127 O130 2.297 . S
Cd127 O131 2.439 . S
Cd127 O137 2.240 . S
Cd128 O129 2.240 . S
Cd128 O136 2.223 . S
Cd128 O138 2.297 . S
Cd128 O139 2.439 . S
O129 Cd128 2.240 . S
O129 C134 1.279 . S
O130 Cd127 2.297 . S
O130 C132 1.247 . S
O131 Cd127 2.439 . S
O131 C132 1.208 . S
C132 O130 1.247 . S
C132 O131 1.208 . S
C133 O138 1.247 . S
C133 O139 1.208 . S
C134 O126 1.315 . S
C134 O129 1.279 . S
C135 O136 1.315 . S
C135 O137 1.279 . S
O136 Cd128 2.223 . S
O136 C135 1.315 . S
O137 Cd127 2.240 . S
O137 C135 1.279 . S
O138 Cd128 2.297 . S
O138 C133 1.247 . S
O139 Cd128 2.439 . S
O139 C133 1.208 . S
O140 Cd141 2.223 . S
O140 C148 1.315 . S
Cd141 O140 2.223 . S
Cd141 O144 2.297 . S
Cd141 O145 2.439 . S
Cd141 O151 2.237 1_655 S
Cd142 O143 2.240 . S
Cd142 O150 2.223 1_556 S
Cd142 O152 2.297 . S
Cd142 O153 2.439 . S
O143 Cd142 2.240 . S
O143 C148 1.279 . S
O144 Cd141 2.297 . S
O144 C146 1.247 . S
O145 Cd141 2.439 . S
O145 C146 1.208 . S
C146 O144 1.247 . S
C146 O145 1.208 . S
C147 O152 1.247 . S
C147 O153 1.208 . S
C148 O140 1.315 . S
C148 O143 1.279 . S
C149 O150 1.315 1_456 S
C149 O151 1.284 . S
O150 Cd142 2.223 1_554 S
O150 C149 1.315 1_654 S
O151 Cd141 2.237 1_455 S
O151 C149 1.284 . S
O152 Cd142 2.297 . S
O152 C147 1.247 . S
O153 Cd142 2.439 . S
O153 C147 1.208 . S
O154 Cd155 2.223 . S
O154 C162 1.315 . S
Cd155 O154 2.223 . S
Cd155 O158 2.297 . S
Cd155 O159 2.439 . S
Cd155 O165 2.227 1_565 S
Cd156 O157 2.240 . S
Cd156 O164 2.223 . S
Cd156 O166 2.297 . S
Cd156 O167 2.439 . S
O157 Cd156 2.240 . S
O157 C162 1.279 . S
O158 Cd155 2.297 . S
O158 C160 1.247 . S
O159 Cd155 2.439 . S
O159 C160 1.208 . S
C160 O158 1.247 . S
C160 O159 1.208 . S
C161 O166 1.247 . S
C161 O167 1.208 . S
C162 O154 1.315 . S
C162 O157 1.279 . S
C163 O164 1.315 1_545 S
C163 O165 1.280 . S
O164 Cd156 2.223 . S
O164 C163 1.315 1_565 S
O165 Cd155 2.227 1_545 S
O165 C163 1.280 . S
O166 Cd156 2.297 . S
O166 C161 1.247 . S
O167 Cd156 2.439 . S
O167 C161 1.208 . S
C168 C169 1.363 . S
C168 C174 1.379 . S
C168 N176 1.356 . S
C169 C168 1.363 . S
C169 C175 1.363 . S
C170 C171 1.363 . S
C170 C175 1.379 . S
C170 N177 1.355 . S
C171 C170 1.363 . S
C171 C174 1.363 . S
N172 C174 1.356 . S
N172 H184 0.984 . S
N172 H185 0.985 . S
N173 C175 1.355 . S
N173 H178 0.984 . S
N173 H179 0.986 1_554 S
C174 C168 1.379 . S
C174 C171 1.363 . S
C174 N172 1.356 . S
C175 C169 1.363 . S
C175 C170 1.379 . S
C175 N173 1.355 . S
N176 C168 1.356 . S
N176 H182 0.984 . S
N176 H183 0.984 . S
N177 C170 1.355 . S
N177 H180 0.984 . S
N177 H181 0.986 1_554 S
H178 N173 0.984 . S
H179 N173 0.986 1_556 S
H180 N177 0.984 . S
H181 N177 0.986 1_556 S
H182 N176 0.984 . S
H183 N176 0.984 . S
H184 N172 0.984 . S
H185 N172 0.985 . S
C186 C187 1.363 . S
C186 C192 1.379 . S
C186 N194 1.356 . S
C187 C186 1.363 . S
C187 C193 1.363 1_455 S
C188 C189 1.363 . S
C188 C193 1.379 . S
C188 N195 1.356 . S
C189 C188 1.363 . S
C189 C192 1.363 1_655 S
N190 C192 1.356 . S
N190 H202 0.984 . S
N190 H203 0.985 . S
N191 C193 1.356 . S
N191 H196 0.984 . S
N191 H197 0.985 . S
C192 C186 1.379 . S
C192 C189 1.363 1_455 S
C192 N190 1.356 . S
C193 C187 1.363 1_655 S
C193 C188 1.379 . S
C193 N191 1.356 . S
N194 C186 1.356 . S
N194 H200 0.984 . S
N194 H201 0.984 . S
N195 C188 1.356 . S
N195 H198 0.984 . S
N195 H199 0.985 . S
H196 N191 0.984 . S
H197 N191 0.985 . S
H198 N195 0.984 . S
H199 N195 0.985 . S
H200 N194 0.984 . S
H201 N194 0.984 . S
H202 N190 0.984 . S
H203 N190 0.985 . S
C204 C205 1.363 1_545 S
C204 C210 1.379 . S
C204 N212 1.356 . S
C205 C204 1.363 1_565 S
C205 C211 1.363 . S
C206 C207 1.363 1_565 S
C206 C211 1.379 . S
C206 N213 1.356 . S
C207 C206 1.363 1_545 S
C207 C210 1.363 . S
N208 C210 1.356 . S
N208 H220 0.984 . S
N208 H221 0.985 . S
N209 C211 1.356 . S
N209 H214 0.984 . S
N209 H215 0.985 . S
C210 C204 1.379 . S
C210 C207 1.363 . S
C210 N208 1.356 . S
C211 C205 1.363 . S
C211 C206 1.379 . S
C211 N209 1.356 . S
N212 C204 1.356 . S
N212 H218 0.984 . S
N212 H219 0.984 . S
N213 C206 1.356 . S
N213 H216 0.984 . S
N213 H217 0.985 . S
H214 N209 0.984 . S
H215 N209 0.985 . S
H216 N213 0.984 . S
H217 N213 0.985 . S
H218 N212 0.984 . S
H219 N212 0.984 . S
H220 N208 0.984 . S
H221 N208 0.985 . S
C222 C223 1.363 . S
C222 C228 1.379 . S
C222 N230 1.356 . S
C223 C222 1.363 . S
C223 C229 1.363 . S
C224 C225 1.363 . S
C224 C229 1.379 . S
C224 N231 1.356 . S
C225 C224 1.363 . S
C225 C228 1.363 . S
N226 C228 1.356 . S
N226 H238 0.984 . S
N226 H239 0.985 . S
N227 C229 1.356 . S
N227 H232 0.984 . S
N227 H233 0.985 . S
C228 C222 1.379 . S
C228 C225 1.363 . S
C228 N226 1.356 . S
C229 C223 1.363 . S
C229 C224 1.379 . S
C229 N227 1.356 . S
N230 C222 1.356 . S
N230 H236 0.984 . S
N230 H237 0.984 . S
N231 C224 1.356 . S
N231 H234 0.984 . S
N231 H235 0.985 . S
H232 N227 0.984 . S
H233 N227 0.985 . S
H234 N231 0.984 . S
H235 N231 0.985 . S
H236 N230 0.984 . S
H237 N230 0.984 . S
H238 N226 0.984 . S
H239 N226 0.985 . S
C240 C241 1.363 1_455 S
C240 C246 1.379 . S
C240 N248 1.356 . S
C241 C240 1.363 1_655 S
C241 C247 1.363 . S
C242 C243 1.363 1_655 S
C242 C247 1.379 . S
C242 N249 1.355 . S
C243 C242 1.363 1_455 S
C243 C246 1.363 . S
N244 C246 1.356 . S
N244 H256 0.984 . S
N244 H257 0.985 . S
N245 C247 1.355 . S
N245 H250 0.984 . S
N245 H251 0.987 1_556 S
C246 C240 1.379 . S
C246 C243 1.363 . S
C246 N244 1.356 . S
C247 C241 1.363 . S
C247 C242 1.379 . S
C247 N245 1.355 . S
N248 C240 1.356 . S
N248 H254 0.984 . S
N248 H255 0.984 . S
N249 C242 1.355 . S
N249 H252 0.984 . S
N249 H253 0.987 1_556 S
H250 N245 0.984 . S
H251 N245 0.987 1_554 S
H252 N249 0.984 . S
H253 N249 0.987 1_554 S
H254 N248 0.984 . S
H255 N248 0.984 . S
H256 N244 0.984 . S
H257 N244 0.985 . S
C258 C259 1.363 . S
C258 C264 1.379 . S
C258 N266 1.356 . S
C259 C258 1.363 . S
C259 C265 1.363 1_545 S
C260 C261 1.363 . S
C260 C265 1.379 . S
C260 N267 1.356 . S
C261 C260 1.363 . S
C261 C264 1.363 1_565 S
N262 C264 1.356 . S
N262 H274 0.984 . S
N262 H275 0.985 . S
N263 C265 1.356 . S
N263 H268 0.984 . S
N263 H269 0.985 . S
C264 C258 1.379 . S
C264 C261 1.363 1_545 S
C264 N262 1.356 . S
C265 C259 1.363 1_565 S
C265 C260 1.379 . S
C265 N263 1.356 . S
N266 C258 1.356 . S
N266 H272 0.984 . S
N266 H273 0.984 . S
N267 C260 1.356 . S
N267 H270 0.984 . S
N267 H271 0.985 . S
H268 N263 0.984 . S
H269 N263 0.985 . S
H270 N267 0.984 . S
H271 N267 0.985 . S
H272 N266 0.984 . S
H273 N266 0.984 . S
H274 N262 0.984 . S
H275 N262 0.985 . S
C276 C277 1.363 . S
C276 C282 1.379 . S
C276 N284 1.356 . S
C277 C276 1.363 . S
C277 C283 1.363 . S
C278 C279 1.363 . S
C278 C283 1.379 . S
C278 N285 1.356 . S
C279 C278 1.363 . S
C279 C282 1.363 . S
N280 C282 1.356 . S
N280 H292 0.984 . S
N280 H293 0.985 . S
N281 C283 1.356 . S
N281 H286 0.984 . S
N281 H287 0.985 . S
C282 C276 1.379 . S
C282 C279 1.363 . S
C282 N280 1.356 . S
C283 C277 1.363 . S
C283 C278 1.379 . S
C283 N281 1.356 . S
N284 C276 1.356 . S
N284 H290 0.984 . S
N284 H291 0.984 . S
N285 C278 1.356 . S
N285 H288 0.984 . S
N285 H289 0.985 . S
H286 N281 0.984 . S
H287 N281 0.985 . S
H288 N285 0.984 . S
H289 N285 0.985 . S
H290 N284 0.984 . S
H291 N284 0.984 . S
H292 N280 0.984 . S
H293 N280 0.985 . S
C294 C295 1.363 . S
C294 C300 1.379 . S
C294 N302 1.356 . S
C295 C294 1.363 . S
C295 C301 1.363 . S
C296 C297 1.363 . S
C296 C301 1.379 . S
C296 N303 1.356 . S
C297 C296 1.363 . S
C297 C300 1.363 . S
N298 C300 1.356 . S
N298 H310 0.984 . S
N298 H311 0.985 . S
N299 C301 1.356 . S
N299 H304 0.984 . S
N299 H305 0.985 . S
C300 C294 1.379 . S
C300 C297 1.363 . S
C300 N298 1.356 . S
C301 C295 1.363 . S
C301 C296 1.379 . S
C301 N299 1.356 . S
N302 C294 1.356 . S
N302 H308 0.984 . S
N302 H309 0.984 . S
N303 C296 1.356 . S
N303 H306 0.984 . S
N303 H307 0.985 . S
H304 N299 0.984 . S
H305 N299 0.985 . S
H306 N303 0.984 . S
H307 N303 0.985 . S
H308 N302 0.984 . S
H309 N302 0.984 . S
H310 N298 0.984 . S
H311 N298 0.985 . S
C312 C313 1.363 . S
C312 C318 1.379 . S
C312 N320 1.356 . S
C313 C312 1.363 . S
C313 C319 1.363 . S
C314 C315 1.363 . S
C314 C319 1.379 . S
C314 N321 1.356 . S
C315 C314 1.363 . S
C315 C318 1.363 . S
N316 C318 1.356 . S
N316 H328 0.984 . S
N316 H329 0.985 . S
N317 C319 1.356 . S
N317 H322 0.984 . S
N317 H323 0.985 . S
C318 C312 1.379 . S
C318 C315 1.363 . S
C318 N316 1.356 . S
C319 C313 1.363 . S
C319 C314 1.379 . S
C319 N317 1.356 . S
N320 C312 1.356 . S
N320 H326 0.984 . S
N320 H327 0.984 . S
N321 C314 1.356 . S
N321 H324 0.984 . S
N321 H325 0.985 . S
H322 N317 0.984 . S
H323 N317 0.985 . S
H324 N321 0.984 . S
H325 N321 0.985 . S
H326 N320 0.984 . S
H327 N320 0.984 . S
H328 N316 0.984 . S
H329 N316 0.985 . S
C330 C331 1.363 . S
C330 C336 1.379 . S
C330 N338 1.356 . S
C331 C330 1.363 . S
C331 C337 1.363 . S
C332 C333 1.363 . S
C332 C337 1.379 . S
C332 N339 1.356 . S
C333 C332 1.363 . S
C333 C336 1.363 . S
N334 C336 1.356 . S
N334 H346 0.984 . S
N334 H347 0.985 . S
N335 C337 1.356 . S
N335 H340 0.984 . S
N335 H341 0.985 . S
C336 C330 1.379 . S
C336 C333 1.363 . S
C336 N334 1.356 . S
C337 C331 1.363 . S
C337 C332 1.379 . S
C337 N335 1.356 . S
N338 C330 1.356 . S
N338 H344 0.984 . S
N338 H345 0.984 . S
N339 C332 1.356 . S
N339 H342 0.984 . S
N339 H343 0.985 . S
H340 N335 0.984 . S
H341 N335 0.985 . S
H342 N339 0.984 . S
H343 N339 0.985 . S
H344 N338 0.984 . S
H345 N338 0.984 . S
H346 N334 0.984 . S
H347 N334 0.985 . S
C348 C349 1.363 . S
C348 C354 1.379 . S
C348 N356 1.356 . S
C349 C348 1.363 . S
C349 C355 1.363 . S
C350 C351 1.363 . S
C350 C355 1.379 . S
C350 N357 1.356 . S
C351 C350 1.363 . S
C351 C354 1.363 . S
N352 C354 1.356 . S
N352 H364 0.984 . S
N352 H365 0.985 . S
N353 C355 1.356 . S
N353 H358 0.984 . S
N353 H359 0.985 . S
C354 C348 1.379 . S
C354 C351 1.363 . S
C354 N352 1.356 . S
C355 C349 1.363 . S
C355 C350 1.379 . S
C355 N353 1.356 . S
N356 C348 1.356 . S
N356 H362 0.984 . S
N356 H363 0.984 . S
N357 C350 1.356 . S
N357 H360 0.984 . S
N357 H361 0.985 . S
H358 N353 0.984 . S
H359 N353 0.985 . S
H360 N357 0.984 . S
H361 N357 0.985 . S
H362 N356 0.984 . S
H363 N356 0.984 . S
H364 N352 0.984 . S
H365 N352 0.985 . S
C366 C367 1.363 . S
C366 C372 1.379 . S
C366 N374 1.356 . S
C367 C366 1.363 . S
C367 C373 1.363 . S
C368 C369 1.363 . S
C368 C373 1.379 . S
C368 N375 1.356 . S
C369 C368 1.363 . S
C369 C372 1.363 . S
N370 C372 1.356 . S
N370 H382 0.984 . S
N370 H383 0.985 . S
N371 C373 1.356 . S
N371 H376 0.984 . S
N371 H377 0.985 . S
C372 C366 1.379 . S
C372 C369 1.363 . S
C372 N370 1.356 . S
C373 C367 1.363 . S
C373 C368 1.379 . S
C373 N371 1.356 . S
N374 C366 1.356 . S
N374 H380 0.984 . S
N374 H381 0.984 . S
N375 C368 1.356 . S
N375 H378 0.984 . S
N375 H379 0.985 . S
H376 N371 0.984 . S
H377 N371 0.985 . S
H378 N375 0.984 . S
H379 N375 0.985 . S
H380 N374 0.984 . S
H381 N374 0.984 . S
H382 N370 0.984 . S
H383 N370 0.985 . S
C384 C385 1.363 . S
C384 C390 1.379 1_565 S
C384 N392 1.356 . S
C385 C384 1.363 . S
C385 C391 1.363 1_556 S
C386 C387 1.363 . S
C386 C391 1.379 1_545 S
C386 N393 1.356 . S
C387 C386 1.363 . S
C387 C390 1.363 1_554 S
N388 C390 1.356 . S
N388 H400 0.984 . S
N388 H401 0.985 . S
N389 C391 1.356 . S
N389 H394 0.984 . S
N389 H395 0.985 . S
C390 C384 1.379 1_545 S
C390 C387 1.363 1_556 S
C390 N388 1.356 . S
C391 C385 1.363 1_554 S
C391 C386 1.379 1_565 S
C391 N389 1.356 . S
N392 C384 1.356 . S
N392 H398 0.984 . S
N392 H399 0.984 . S
N393 C386 1.356 . S
N393 H396 0.984 . S
N393 H397 0.985 . S
H394 N389 0.984 . S
H395 N389 0.985 . S
H396 N393 0.984 . S
H397 N393 0.985 . S
H398 N392 0.984 . S
H399 N392 0.984 . S
H400 N388 0.984 . S
H401 N388 0.985 . S
C402 C403 1.363 . S
C402 C408 1.379 . S
C402 N410 1.356 . S
C403 C402 1.363 . S
C403 C409 1.363 . S
C404 C405 1.363 . S
C404 C409 1.379 . S
C404 N411 1.356 . S
C405 C404 1.363 . S
C405 C408 1.363 . S
N406 C408 1.356 . S
N406 H418 0.984 . S
N406 H419 0.985 . S
N407 C409 1.356 . S
N407 H412 0.984 . S
N407 H413 0.985 . S
C408 C402 1.379 . S
C408 C405 1.363 . S
C408 N406 1.356 . S
C409 C403 1.363 . S
C409 C404 1.379 . S
C409 N407 1.356 . S
N410 C402 1.356 . S
N410 H416 0.984 . S
N410 H417 0.984 . S
N411 C404 1.356 . S
N411 H414 0.984 . S
N411 H415 0.985 . S
H412 N407 0.984 . S
H413 N407 0.985 . S
H414 N411 0.984 . S
H415 N411 0.985 . S
H416 N410 0.984 . S
H417 N410 0.984 . S
H418 N406 0.984 . S
H419 N406 0.985 . S
C420 C421 1.363 . S
C420 C426 1.379 1_655 S
C420 N428 1.356 . S
C421 C420 1.363 . S
C421 C427 1.363 . S
C422 C423 1.363 . S
C422 C427 1.379 1_455 S
C422 N429 1.356 . S
C423 C422 1.363 . S
C423 C426 1.363 . S
N424 C426 1.356 . S
N424 H436 0.984 . S
N424 H437 0.985 . S
N425 C427 1.356 . S
N425 H430 0.984 . S
N425 H431 0.985 . S
C426 C420 1.379 1_455 S
C426 C423 1.363 . S
C426 N424 1.356 . S
C427 C421 1.363 . S
C427 C422 1.379 1_655 S
C427 N425 1.356 . S
N428 C420 1.356 . S
N428 H434 0.984 . S
N428 H435 0.984 . S
N429 C422 1.356 . S
N429 H432 0.984 . S
N429 H433 0.985 . S
H430 N425 0.984 . S
H431 N425 0.985 . S
H432 N429 0.984 . S
H433 N429 0.985 . S
H434 N428 0.984 . S
H435 N428 0.984 . S
H436 N424 0.984 . S
H437 N424 0.985 . S
C438 C439 1.363 . S
C438 C444 1.379 1_565 S
C438 N446 1.356 . S
C439 C438 1.363 . S
C439 C445 1.363 1_554 S
C440 C441 1.363 . S
C440 C445 1.379 1_545 S
C440 N447 1.356 . S
C441 C440 1.363 . S
C441 C444 1.363 1_556 S
N442 C444 1.356 . S
N442 H454 0.984 . S
N442 H455 0.985 . S
N443 C445 1.356 . S
N443 H448 0.984 . S
N443 H449 0.985 . S
C444 C438 1.379 1_545 S
C444 C441 1.363 1_554 S
C444 N442 1.356 . S
C445 C439 1.363 1_556 S
C445 C440 1.379 1_565 S
C445 N443 1.356 . S
N446 C438 1.356 . S
N446 H452 0.984 . S
N446 H453 0.984 . S
N447 C440 1.356 . S
N447 H450 0.984 . S
N447 H451 0.985 . S
H448 N443 0.984 . S
H449 N443 0.985 . S
H450 N447 0.984 . S
H451 N447 0.985 . S
H452 N446 0.984 . S
H453 N446 0.984 . S
H454 N442 0.984 . S
H455 N442 0.985 . S
C456 C457 1.363 . S
C456 C462 1.379 . S
C456 N464 1.356 . S
C457 C456 1.363 . S
C457 C463 1.363 . S
C458 C459 1.363 . S
C458 C463 1.379 . S
C458 N465 1.356 . S
C459 C458 1.363 . S
C459 C462 1.363 . S
N460 C462 1.356 . S
N460 H472 0.984 . S
N460 H473 0.985 . S
N461 C463 1.356 . S
N461 H466 0.984 . S
N461 H467 0.985 . S
C462 C456 1.379 . S
C462 C459 1.363 . S
C462 N460 1.356 . S
C463 C457 1.363 . S
C463 C458 1.379 . S
C463 N461 1.356 . S
N464 C456 1.356 . S
N464 H470 0.984 . S
N464 H471 0.984 . S
N465 C458 1.356 . S
N465 H468 0.984 . S
N465 H469 0.985 . S
H466 N461 0.984 . S
H467 N461 0.985 . S
H468 N465 0.984 . S
H469 N465 0.985 . S
H470 N464 0.984 . S
H471 N464 0.984 . S
H472 N460 0.984 . S
H473 N460 0.985 . S
C474 C475 1.363 . S
C474 C480 1.379 1_455 S
C474 N482 1.356 . S
C475 C474 1.363 . S
C475 C481 1.363 . S
C476 C477 1.363 . S
C476 C481 1.379 1_655 S
C476 N483 1.356 . S
C477 C476 1.363 . S
C477 C480 1.363 . S
N478 C480 1.356 . S
N478 H490 0.984 . S
N478 H491 0.985 . S
N479 C481 1.356 . S
N479 H484 0.984 . S
N479 H485 0.985 . S
C480 C474 1.379 1_655 S
C480 C477 1.363 . S
C480 N478 1.356 . S
C481 C475 1.363 . S
C481 C476 1.379 1_455 S
C481 N479 1.356 . S
N482 C474 1.356 . S
N482 H488 0.984 . S
N482 H489 0.984 . S
N483 C476 1.356 . S
N483 H486 0.984 . S
N483 H487 0.985 . S
H484 N479 0.984 . S
H485 N479 0.985 . S
H486 N483 0.984 . S
H487 N483 0.985 . S
H488 N482 0.984 . S
H489 N482 0.984 . S
H490 N478 0.984 . S
H491 N478 0.985 . S
C492 C493 1.363 1_554 S
C492 C498 1.379 . S
C492 N500 1.356 . S
C493 C492 1.363 1_556 S
C493 C499 1.363 . S
C494 C495 1.363 1_556 S
C494 C499 1.379 . S
C494 N501 1.356 . S
C495 C494 1.363 1_554 S
C495 C498 1.363 . S
N496 C498 1.356 . S
N496 H508 0.984 . S
N496 H509 0.985 . S
N497 C499 1.356 . S
N497 H502 0.984 . S
N497 H503 0.985 . S
C498 C492 1.379 . S
C498 C495 1.363 . S
C498 N496 1.356 . S
C499 C493 1.363 . S
C499 C494 1.379 . S
C499 N497 1.356 . S
N500 C492 1.356 . S
N500 H506 0.984 1_455 S
N500 H507 0.984 1_455 S
N501 C494 1.356 . S
N501 H504 0.984 . S
N501 H505 0.985 . S
H502 N497 0.984 . S
H503 N497 0.985 . S
H504 N501 0.984 . S
H505 N501 0.985 . S
H506 N500 0.984 1_655 S
H507 N500 0.984 1_655 S
H508 N496 0.984 . S
H509 N496 0.985 . S
C510 C511 1.363 . S
C510 C516 1.379 . S
C510 N518 1.356 . S
C511 C510 1.363 . S
C511 C517 1.363 . S
C512 C513 1.363 . S
C512 C517 1.379 . S
C512 N519 1.356 . S
C513 C512 1.363 . S
C513 C516 1.363 . S
N514 C516 1.356 . S
N514 H526 0.984 . S
N514 H527 0.985 1_655 S
N515 C517 1.356 . S
N515 H520 0.984 . S
N515 H521 0.985 . S
C516 C510 1.379 . S
C516 C513 1.363 . S
C516 N514 1.356 . S
C517 C511 1.363 . S
C517 C512 1.379 . S
C517 N515 1.356 . S
N518 C510 1.356 . S
N518 H524 0.984 . S
N518 H525 0.984 . S
N519 C512 1.356 . S
N519 H522 0.984 . S
N519 H523 0.985 . S
H520 N515 0.984 . S
H521 N515 0.985 . S
H522 N519 0.984 . S
H523 N519 0.985 . S
H524 N518 0.984 . S
H525 N518 0.984 . S
H526 N514 0.984 . S
H527 N514 0.985 1_455 S
C528 C529 1.363 . S
C528 C534 1.379 . S
C528 N536 1.356 . S
C529 C528 1.363 . S
C529 C535 1.363 . S
C530 C531 1.363 . S
C530 C535 1.379 . S
C530 N537 1.356 . S
C531 C530 1.363 . S
C531 C534 1.363 . S
N532 C534 1.356 . S
N532 H544 0.984 . S
N532 H545 0.985 1_565 S
N533 C535 1.356 . S
N533 H538 0.984 . S
N533 H539 0.985 . S
C534 C528 1.379 . S
C534 C531 1.363 . S
C534 N532 1.356 . S
C535 C529 1.363 . S
C535 C530 1.379 . S
C535 N533 1.356 . S
N536 C528 1.356 . S
N536 H542 0.984 . S
N536 H543 0.984 . S
N537 C530 1.356 . S
N537 H540 0.984 . S
N537 H541 0.985 . S
H538 N533 0.984 . S
H539 N533 0.985 . S
H540 N537 0.984 . S
H541 N537 0.985 . S
H542 N536 0.984 . S
H543 N536 0.984 . S
H544 N532 0.984 . S
H545 N532 0.985 1_545 S
C546 C547 1.363 . S
C546 C552 1.379 . S
C546 N554 1.356 . S
C547 C546 1.363 . S
C547 C553 1.363 1_554 S
C548 C549 1.363 . S
C548 C553 1.379 . S
C548 N555 1.356 . S
C549 C548 1.363 . S
C549 C552 1.363 1_556 S
N550 C552 1.356 . S
N550 H562 0.984 . S
N550 H563 0.985 . S
N551 C553 1.356 . S
N551 H556 0.984 . S
N551 H557 0.985 . S
C552 C546 1.379 . S
C552 C549 1.363 1_554 S
C552 N550 1.356 . S
C553 C547 1.363 1_556 S
C553 C548 1.379 . S
C553 N551 1.356 . S
N554 C546 1.356 . S
N554 H560 0.984 . S
N554 H561 0.984 . S
N555 C548 1.356 . S
N555 H558 0.984 1_655 S
N555 H559 0.985 . S
H556 N551 0.984 . S
H557 N551 0.985 . S
H558 N555 0.984 1_455 S
H559 N555 0.985 . S
H560 N554 0.984 . S
H561 N554 0.984 . S
H562 N550 0.984 . S
H563 N550 0.985 . S
C564 C565 1.363 . S
C564 C570 1.379 . S
C564 N572 1.356 . S
C565 C564 1.363 . S
C565 C571 1.363 . S
C566 C567 1.363 . S
C566 C571 1.379 . S
C566 N573 1.356 . S
C567 C566 1.363 . S
C567 C570 1.363 . S
N568 C570 1.356 . S
N568 H580 0.984 1_565 S
N568 H581 0.985 1_565 S
N569 C571 1.356 . S
N569 H574 0.984 . S
N569 H575 0.985 . S
C570 C564 1.379 . S
C570 C567 1.363 . S
C570 N568 1.356 . S
C571 C565 1.363 . S
C571 C566 1.379 . S
C571 N569 1.356 . S
N572 C564 1.356 . S
N572 H578 0.984 . S
N572 H579 0.984 . S
N573 C566 1.356 . S
N573 H576 0.984 . S
N573 H577 0.985 . S
H574 N569 0.984 . S
H575 N569 0.985 . S
H576 N573 0.984 . S
H577 N573 0.985 . S
H578 N572 0.984 . S
H579 N572 0.984 . S
H580 N568 0.984 1_545 S
H581 N568 0.985 1_545 S
C582 C583 1.363 . S
C582 C588 1.379 . S
C582 N590 1.356 . S
C583 C582 1.363 . S
C583 C589 1.363 . S
C584 C585 1.363 . S
C584 C589 1.379 . S
C584 N591 1.356 . S
C585 C584 1.363 . S
C585 C588 1.363 . S
N586 C588 1.356 . S
N586 H598 0.984 . S
N586 H599 0.985 . S
N587 C589 1.356 . S
N587 H592 0.984 1_545 S
N587 H593 0.985 1_545 S
C588 C582 1.379 . S
C588 C585 1.363 . S
C588 N586 1.356 . S
C589 C583 1.363 . S
C589 C584 1.379 . S
C589 N587 1.356 . S
N590 C582 1.356 . S
N590 H596 0.984 . S
N590 H597 0.984 . S
N591 C584 1.356 . S
N591 H594 0.984 . S
N591 H595 0.985 . S
H592 N587 0.984 1_565 S
H593 N587 0.985 1_565 S
H594 N591 0.984 . S
H595 N591 0.985 . S
H596 N590 0.984 . S
H597 N590 0.984 . S
H598 N586 0.984 . S
H599 N586 0.985 . S
C169 C49 1.376 . S
C171 C7 1.376 . S
C187 C21 1.376 . S
C189 C63 1.376 . S
C205 C77 1.376 . S
C207 C35 1.376 . S
C223 C91 1.376 . S
C225 C133 1.376 . S
C241 C147 1.376 . S
C243 C105 1.376 . S
C259 C119 1.376 . S
C261 C161 1.376 . S
C277 C118 1.579 . S
C279 C6 1.579 . S
C295 C20 1.579 . S
C297 C132 1.579 . S
C313 C34 1.579 . S
C315 C146 1.579 . S
C331 C48 1.579 . S
C333 C160 1.579 . S
C349 C90 1.580 . S
C351 C62 1.580 . S
C367 C104 1.580 . S
C369 C76 1.580 . S
C385 C106 1.596 . S
C387 C8 1.596 . S
C403 C22 1.596 . S
C405 C120 1.596 . S
C421 C36 1.596 . S
C423 C134 1.596 . S
C439 C50 1.596 . S
C441 C148 1.596 . S
C457 C162 1.596 . S
C459 C64 1.596 . S
C475 C78 1.596 . S
C477 C92 1.596 . S
C493 C149 1.507 . S
C495 C9 1.507 . S
C511 C163 1.507 . S
C513 C23 1.507 . S
C529 C93 1.507 . S
C531 C37 1.507 . S
C547 C51 1.507 . S
C549 C107 1.507 . S
C565 C65 1.507 . S
C567 C121 1.507 . S
C583 C79 1.507 . S
C585 C135 1.507 . S
