# Generated by pormake.
# Topology sxc, (6)-cn, num edge types: 1
# Building blocks:
#     Node 0, Type 0, BuildingBlock: LEVNOQ01_clean_sbu_1, # of connection points: 6
#     Node 1, Type 0, BuildingBlock: LEVNOQ01_clean_sbu_1, # of connection points: 6
#     Node 2, Type 0, BuildingBlock: LEVNOQ01_clean_sbu_1, # of connection points: 6
#     Edge 3, Type (0, 0), BuildingBlock: FUNLAD_clean_linker_1, # of connection points: 2
#     Edge 4, Type (0, 0), BuildingBlock: FUNLAD_clean_linker_1, # of connection points: 2
#     Edge 5, Type (0, 0), BuildingBlock: FUNLAD_clean_linker_1, # of connection points: 2
#     Edge 6, Type (0, 0), BuildingBlock: FUNLAD_clean_linker_1, # of connection points: 2
#     Edge 7, Type (0, 0), BuildingBlock: FUNLAD_clean_linker_1, # of connection points: 2
#     Edge 8, Type (0, 0), BuildingBlock: FUNLAD_clean_linker_1, # of connection points: 2
#     Edge 9, Type (0, 0), BuildingBlock: FUNLAD_clean_linker_1, # of connection points: 2
#     Edge 10, Type (0, 0), BuildingBlock: FUNLAD_clean_linker_1, # of connection points: 2
#     Edge 11, Type (0, 0), BuildingBlock: FUNLAD_clean_linker_1, # of connection points: 2
# Relax obj value: 0.101
# Max RMSD: 0.150
# Mean RMSD: 0.143
data_MOF--net-sxc--node1-LEVNOQ01_clean_sbu_1--edge1-FUNLAD_clean_linker_1
_symmetry_space_group_name_H-M    P1
_symmetry_Int_Tables_number       1
_symmetry_cell_setting            triclinic
loop_
_symmetry_equiv_pos_as_xyz
'x, y, z'
_cell_length_a     16.27251
_cell_length_b     16.141996
_cell_length_c     47.413526
_cell_angle_alpha  101.78942
_cell_angle_beta   88.910471
_cell_angle_gamma 120.28292
loop_
_atom_site_label
_atom_site_type_symbol
_atom_site_fract_x
_atom_site_fract_y
_atom_site_fract_z
_atom_type_partial_charge
O0 O 0.08507 0.92221 0.98725 0.0
Mg1 Mg 0.95388 0.90835 0.97438 0.0
O2 O 0.00036 0.91738 0.02363 0.0
Mg3 Mg 0.94134 0.02169 0.0208 0.0
O4 O 0.94026 0.02382 0.97025 0.0
O5 O 0.94548 0.91519 0.93301 0.0
O6 O 0.8875 0.13144 0.02343 0.0
O7 O 0.09559 0.15088 0.01783 0.0
Mg8 Mg 0.04428 0.14182 0.06406 0.0
O9 O 0.9285 0.01904 0.07222 0.0
O10 O 0.01402 0.24541 0.05327 0.0
O11 O 0.17942 0.1585 0.05442 0.0
O12 O 0.03601 0.14879 0.10624 0.0
C13 C 0.76945 0.8001 1.00088 0.0
C14 C 0.05969 0.89724 1.01086 0.0
C15 C 0.94034 0.99311 0.94255 0.0
C16 C 0.94104 0.22099 0.03688 0.0
C17 C 0.1765 0.18256 0.03096 0.0
C18 C 0.96005 0.06275 0.09941 0.0
O19 O 0.82749 0.79072 0.98426 0.0
O20 O 0.78894 0.88464 0.0157 0.0
O21 O 0.39155 0.12146 0.31281 0.0
Mg22 Mg 0.24963 0.00104 0.3055 0.0
O23 O 0.34576 0.06525 0.3517 0.0
Mg24 Mg 0.18714 0.03975 0.35191 0.0
O25 O 0.13528 0.01877 0.30212 0.0
O26 O 0.20121 0.97367 0.26428 0.0
O27 O 0.02911 0.01413 0.3526 0.0
O28 O 0.24997 0.20452 0.3552 0.0
Mg29 Mg 0.12942 0.0917 0.40017 0.0
O30 O 0.23544 0.05941 0.40176 0.0
O31 O -0.01491 0.97846 0.39434 0.0
O32 O 0.16189 0.22403 0.38865 0.0
O33 O 0.18617 0.12226 0.44064 0.0
C34 C 0.16005 0.82758 0.33251 0.0
C35 C 0.41273 0.1078 0.33612 0.0
C36 C 0.1381 0.99454 0.27426 0.0
C37 C 0.96337 0.98175 0.36943 0.0
C38 C 0.21936 0.25654 0.36993 0.0
C39 C 0.2398 0.08878 0.42978 0.0
O40 O 0.22059 0.86653 0.31507 0.0
O41 O 0.12557 0.875 0.34772 0.0
O42 O 0.03337 0.87686 0.64674 0.0
Mg43 Mg 0.08297 0.00344 0.63044 0.0
O44 O 0.09562 0.96558 0.69123 0.0
Mg45 Mg 0.21055 0.12749 0.69073 0.0
O46 O 0.226 0.09515 0.6418 0.0
O47 O 0.16357 0.02102 0.59599 0.0
O48 O 0.32562 0.28929 0.69043 0.0
O49 O 0.32949 0.09264 0.69678 0.0
Mg50 Mg 0.33867 0.25105 0.75175 0.0
O51 O 0.19604 0.16107 0.73954 0.0
O52 O 0.38975 0.37696 0.73495 0.0
O53 O 0.41116 0.17223 0.7401 0.0
O54 O 0.25482 0.23319 0.78561 0.0
C55 C 0.02394 0.13914 0.66601 0.0
C56 C 0.04082 0.88336 0.67377 0.0
C57 C 0.23764 0.07891 0.61448 0.0
C58 C 0.38148 0.37098 0.70797 0.0
C59 C 0.39614 0.11436 0.71564 0.0
C60 C 0.18195 0.17625 0.76664 0.0
O61 O 0.00843 0.08004 0.64178 0.0
O62 O 0.09146 0.16237 0.68477 0.0
H63 H 0.86257 0.27992 0.01802 0.0
C64 C 0.92455 0.29922 0.03204 0.0
H65 H 0.05133 0.41367 0.0577 0.0
H66 H 0.00728 0.6683 0.97332 0.0
H67 H 0.02811 0.56131 0.93376 0.0
H68 H 0.03356 0.4176 0.94156 0.0
H69 H 0.01497 0.37844 0.98875 0.0
C70 C -0.00995 0.39444 0.04335 0.0
C71 C 0.98379 0.47852 0.03795 0.0
C72 C -0.00115 0.50245 1.01041 0.0
C73 C 0.00181 0.58883 1.00635 0.0
C74 C 0.00986 0.60703 0.97813 0.0
C75 C 0.02102 0.54558 0.9551 0.0
C76 C 0.02367 0.46445 0.95945 0.0
C77 C 0.0125 0.44261 0.9867 0.0
H78 H 0.13463 0.8151 0.01232 0.0
C79 C 0.07131 0.81883 0.01789 0.0
H80 H 0.93232 0.74658 0.03122 0.0
H81 H 0.95056 0.45188 0.09314 0.0
H82 H 0.94107 0.565 0.13368 0.0
H83 H 0.95951 0.72145 0.12755 0.0
H84 H 0.9836 0.76403 0.0808 0.0
C85 C -0.00333 0.7437 0.02656 0.0
C86 C -0.004 0.65421 0.03032 0.0
C87 C 0.98194 0.63054 0.05786 0.0
C88 C 0.97466 0.54206 0.06159 0.0
C89 C 0.95871 0.51928 0.08924 0.0
C90 C 0.95272 0.58331 0.11267 0.0
C91 C 0.96244 0.67107 0.1092 0.0
C92 C 0.97637 0.6946 0.08218 0.0
H93 H 0.56597 0.1693 0.3302 0.0
C94 C 0.50793 0.12015 0.3411 0.0
H95 H 0.45972 0.00397 0.36271 0.0
H96 H 0.74219 0.87099 0.3071 0.0
H97 H 0.5953 0.75141 0.27624 0.0
H98 H 0.45303 0.76893 0.27924 0.0
H99 H 0.45667 0.90602 0.31299 0.0
C100 C 0.51976 0.05954 0.35399 0.0
C101 C 0.60756 0.05248 0.35144 0.0
C102 C 0.60448 0.9722 0.33143 0.0
C103 C 0.68656 0.96216 0.3296 0.0
C104 C 0.6816 0.88157 0.30942 0.0
C105 C 0.59789 0.81264 0.29156 0.0
C106 C 0.51781 0.82253 0.29323 0.0
C107 C 0.52077 0.90142 0.31279 0.0
H108 H 0.81192 0.92947 0.37595 0.0
C109 C 0.86893 0.96945 0.36311 0.0
H110 H 0.916 0.06838 0.33527 0.0
H111 H 0.63799 0.21523 0.3918 0.0
H112 H 0.78606 0.3367 0.42177 0.0
H113 H 0.92893 0.32032 0.41819 0.0
H114 H 0.92451 0.18218 0.38481 0.0
C115 C 0.85725 0.02159 0.34646 0.0
C116 C 0.77163 0.03254 0.34767 0.0
C117 C 0.77546 0.11401 0.36722 0.0
C118 C 0.69327 0.12386 0.36916 0.0
C119 C 0.69866 0.2049 0.38923 0.0
C120 C 0.7831 0.27498 0.40661 0.0
C121 C 0.86351 0.26571 0.40463 0.0
C122 C 0.86002 0.18609 0.38533 0.0
H123 H 0.96553 0.81375 0.70887 0.0
C124 C 0.96894 0.80093 0.68556 0.0
H125 H 0.89573 0.71152 0.64473 0.0
H126 H 0.6107 0.45679 0.73599 0.0
H127 H 0.73405 0.42244 0.74658 0.0
H128 H 0.88908 0.50047 0.72618 0.0
H129 H 0.9215 0.61383 0.69509 0.0
C130 C 0.89485 0.72294 0.66811 0.0
C131 C 0.80063 0.67142 0.67926 0.0
C132 C 0.78328 0.60592 0.69739 0.0
C133 C 0.69392 0.56094 0.70899 0.0
C134 C 0.6777 0.49439 0.7268 0.0
C135 C 0.74793 0.47376 0.73304 0.0
C136 C 0.83518 0.51765 0.72156 0.0
C137 C 0.85297 0.58278 0.70383 0.0
H138 H 0.45624 0.44069 0.67283 0.0
C139 C 0.4535 0.45327 0.69617 0.0
H140 H 0.52808 0.54169 0.73694 0.0
H141 H 0.81172 0.79489 0.6451 0.0
H142 H 0.68793 0.82827 0.6342 0.0
H143 H 0.53304 0.7506 0.65469 0.0
H144 H 0.50119 0.63859 0.68618 0.0
C145 C 0.52834 0.53056 0.71354 0.0
C146 C 0.6223 0.58145 0.70219 0.0
C147 C 0.6395 0.64663 0.68396 0.0
C148 C 0.72883 0.69153 0.67234 0.0
C149 C 0.74479 0.75747 0.65434 0.0
C150 C 0.6743 0.7775 0.64791 0.0
C151 C 0.58711 0.73379 0.65944 0.0
C152 C 0.56966 0.66942 0.67739 0.0
H153 H 0.96998 0.22194 0.69523 0.0
C154 C 0.95372 0.16887 0.67482 0.0
H155 H 0.84504 0.06045 0.64204 0.0
H156 H 0.55356 0.99807 0.73892 0.0
H157 H 0.59989 0.88154 0.74601 0.0
H158 H 0.73176 0.87458 0.72117 0.0
H159 H 0.8182 0.98381 0.6894 0.0
C160 C 0.86455 0.1182 0.66148 0.0
C161 C 0.78587 0.12346 0.67627 0.0
C162 C 0.73623 0.05893 0.69485 0.0
C163 C 0.66021 0.06271 0.70905 0.0
C164 C 0.61188 0.99793 0.72759 0.0
C165 C 0.63779 0.9309 0.73187 0.0
C166 C 0.71217 0.92713 0.71797 0.0
C167 C 0.76114 0.99024 0.69971 0.0
H168 H 0.44911 0.03035 0.68651 0.0
C169 C 0.46621 0.08456 0.70671 0.0
H170 H 0.5764 0.19582 0.73862 0.0
H171 H 0.86617 0.2556 0.64174 0.0
H172 H 0.81819 0.37024 0.63397 0.0
H173 H 0.68506 0.37595 0.65824 0.0
H174 H 0.59996 0.26832 0.69066 0.0
C175 C 0.55611 0.13663 0.71953 0.0
C176 C 0.63411 0.13066 0.7045 0.0
C177 C 0.68325 0.19465 0.68572 0.0
C178 C 0.75947 0.19105 0.6716 0.0
C179 C 0.80755 0.25548 0.65295 0.0
C180 C 0.78068 0.32142 0.64828 0.0
C181 C 0.70569 0.3246 0.66193 0.0
C182 C 0.65744 0.26235 0.68051 0.0
H183 H 0.67695 0.64107 0.99078 0.0
C184 C 0.68347 0.70869 1.00358 0.0
H185 H 0.62506 0.76821 0.03603 0.0
H186 H 0.35098 0.27885 0.9764 0.0
H187 H 0.34648 0.32586 0.93118 0.0
H188 H 0.4242 0.50113 0.92942 0.0
H189 H 0.51188 0.62989 0.9725 0.0
C190 C 0.61814 0.7024 0.02193 0.0
C191 C 0.54382 0.60288 0.02556 0.0
C192 C 0.48455 0.52959 1.00102 0.0
C193 C 0.43136 0.42945 1.00271 0.0
C194 C 0.38552 0.35659 0.97679 0.0
C195 C 0.38345 0.38254 0.95065 0.0
C196 C 0.42768 0.48113 0.94962 0.0
C197 C 0.47813 0.55414 0.97442 0.0
H198 H 0.24174 0.30785 1.01095 0.0
C199 C 0.25867 0.26798 0.02345 0.0
H200 H 0.36622 0.26508 0.04625 0.0
H201 H 0.65174 0.72429 0.07652 0.0
H202 H 0.6473 0.67857 0.12229 0.0
H203 H 0.53885 0.50787 0.12686 0.0
H204 H 0.43561 0.3817 0.08565 0.0
C205 C 0.34965 0.30416 0.03338 0.0
C206 C 0.42511 0.40401 0.02998 0.0
C207 C 0.48261 0.4777 0.05479 0.0
C208 C 0.54333 0.57694 0.05241 0.0
C209 C 0.60316 0.64821 0.07714 0.0
C210 C 0.60142 0.623 0.10361 0.0
C211 C 0.54032 0.52692 0.10617 0.0
C212 C 0.48123 0.45496 0.0822 0.0
H213 H 0.28405 0.37139 0.34477 0.0
C214 C 0.24026 0.34847 0.36241 0.0
H215 H 0.1477 0.37054 0.39074 0.0
H216 H 0.35606 0.78393 0.34361 0.0
H217 H 0.50319 0.82301 0.36921 0.0
H218 H 0.50992 0.70133 0.39169 0.0
H219 H 0.36947 0.53999 0.3887 0.0
C220 C 0.1955 0.39588 0.3741 0.0
C221 C 0.19314 0.46947 0.36064 0.0
C222 C 0.27603 0.56319 0.36274 0.0
C223 C 0.27198 0.63315 0.34988 0.0
C224 C 0.35534 0.72722 0.3526 0.0
C225 C 0.44024 0.75087 0.36737 0.0
C226 C 0.44401 0.68238 0.38003 0.0
C227 C 0.36295 0.58977 0.37799 0.0
H228 H 0.09665 0.70663 0.35544 0.0
C229 C 0.1387 0.73258 0.33771 0.0
H230 H 0.22593 0.71255 0.30669 0.0
H231 H 0.02315 0.29304 0.3511 0.0
H232 H 0.87602 0.25406 0.32551 0.0
H233 H 0.86859 0.37695 0.30382 0.0
H234 H 0.00874 0.53928 0.30743 0.0
C235 C 0.18069 0.68513 0.32369 0.0
C236 C 0.18482 0.60914 0.33533 0.0
C237 C 0.10225 0.51506 0.33295 0.0
C238 C 0.10646 0.44481 0.3456 0.0
C239 C 0.02351 0.35023 0.34246 0.0
C240 C 0.93864 0.32665 0.32769 0.0
C241 C 0.93448 0.39582 0.31547 0.0
C242 C 0.01529 0.48883 0.31781 0.0
H243 H 0.08524 0.97627 0.23033 0.0
C244 C 0.07086 0.98975 0.25282 0.0
H245 H 0.97936 0.01662 0.28074 0.0
H246 H 0.9471 0.20127 0.17632 0.0
H247 H -0.00522 0.33861 0.21805 0.0
H248 H 0.01639 0.32025 0.26735 0.0
H249 H -0.01185 0.16382 0.27541 0.0
C250 C -0.00504 0.00011 0.25861 0.0
C251 C 0.93876 0.99835 0.23376 0.0
C252 C 0.95039 0.08773 0.22979 0.0
C253 C 0.93953 0.09855 0.20134 0.0
C254 C 0.95576 0.19017 0.19758 0.0
C255 C 0.98267 0.26898 0.22128 0.0
C256 C -0.0054 0.25857 0.24908 0.0
C257 C 0.97885 0.16901 0.25342 0.0
H258 H 0.83474 0.95988 0.11945 0.0
C259 C 0.91001 0.01624 0.12325 0.0
H260 H 0.03333 0.1062 0.15259 0.0
H261 H 0.87324 0.80955 0.2366 0.0
H262 H 0.81113 0.66701 0.19575 0.0
H263 H 0.79962 0.68594 0.14589 0.0
H264 H 0.84961 0.84584 0.13637 0.0
C265 C 0.95834 0.04849 0.1497 0.0
C266 C 0.91856 0.02042 0.17709 0.0
C267 C 0.88878 0.92561 0.18174 0.0
C268 C 0.89712 0.91462 0.2104 0.0
C269 C 0.8689 0.82056 0.21502 0.0
C270 C 0.83326 0.73886 0.19189 0.0
C271 C 0.82683 0.74961 0.1638 0.0
C272 C 0.85555 0.84201 0.1586 0.0
H273 H 0.34009 0.04207 0.44116 0.0
C274 C 0.30268 0.08015 0.44975 0.0
H275 H 0.27311 0.15462 0.48676 0.0
H276 H 0.3014 0.88152 0.56126 0.0
H277 H 0.19465 0.7386 0.52427 0.0
H278 H 0.15806 0.75596 0.47634 0.0
H279 H 0.22928 0.91604 0.46507 0.0
C280 C 0.30736 0.11279 0.47856 0.0
C281 C 0.35418 0.09443 0.50128 0.0
C282 C 0.3117 -0.00058 0.50733 0.0
C283 C 0.32957 0.98977 0.53545 0.0
C284 C 0.28695 0.8942 0.54093 0.0
C285 C 0.22629 0.81105 0.5197 0.0
C286 C 0.20596 0.8208 0.49268 0.0
C287 C 0.24761 0.91362 0.48649 0.0
H288 H 0.34626 0.19502 0.59667 0.0
C289 C 0.33109 0.12845 0.60323 0.0
H290 H 0.34532 0.00581 0.5958 0.0
H291 H 0.4691 0.28051 0.49364 0.0
H292 H 0.58907 0.42174 0.52959 0.0
H293 H 0.61884 0.40384 0.57828 0.0
H294 H 0.52771 0.24456 0.59147 0.0
C295 C 0.36396 0.07208 0.58856 0.0
C296 C 0.38477 0.07556 0.5577 0.0
C297 C 0.4414 0.16689 0.54988 0.0
C298 C 0.42529 0.1766 0.52171 0.0
C299 C 0.47893 0.26989 0.51488 0.0
C300 C 0.54801 0.35092 0.5352 0.0
C301 C 0.56478 0.34086 0.56264 0.0
C302 C 0.51211 0.24986 0.57002 0.0
H303 H 0.05897 0.05239 0.77879 0.0
C304 C 0.08686 0.12783 0.77698 0.0
H305 H 0.08802 0.25937 0.79146 0.0
H306 H 0.80108 0.90166 0.86217 0.0
H307 H 0.70408 0.80625 0.81621 0.0
H308 H 0.74574 0.87218 0.77222 0.0
H309 H 0.88501 0.03468 0.77379 0.0
C310 C 0.05765 0.18418 0.79376 0.0
C311 C 0.01292 0.15753 0.82082 0.0
C312 C 0.92958 0.06491 0.81973 0.0
C313 C 0.90523 0.02724 0.84516 0.0
C314 C 0.82317 0.93311 0.84335 0.0
C315 C 0.7667 0.87803 0.8172 0.0
C316 C 0.79019 0.91529 0.79239 0.0
C317 C 0.87044 0.00788 0.79353 0.0
H318 H 0.92455 0.10871 0.9289 0.0
C319 C 0.9382 0.0488 0.92167 0.0
H320 H 0.96983 0.96706 0.88723 0.0
H321 H 0.16094 0.35129 0.83249 0.0
H322 H 0.25002 0.44954 0.87872 0.0
H323 H 0.21166 0.38155 0.92238 0.0
H324 H 0.08421 0.21507 0.91993 0.0
C325 C 0.95824 0.02851 0.8943 0.0
C326 C 0.96378 0.08233 0.87164 0.0
C327 C 0.03944 0.18061 0.87361 0.0
C328 C 0.06287 0.21902 0.84818 0.0
C329 C 0.13987 0.31692 0.85069 0.0
C330 C 0.19196 0.37477 0.87725 0.0
C331 C 0.17037 0.33655 0.90183 0.0
C332 C 0.09601 0.24045 0.9001 0.0
loop_
_geom_bond_atom_site_label_1
_geom_bond_atom_site_label_2
_geom_bond_distance
_geom_bond_site_symmetry_2
_ccdc_geom_bond_type
O0 Mg1 1.990 1_455 S
O0 C14 1.253 1_556 S
Mg1 O0 1.990 1_655 S
Mg1 O4 2.180 1_665 S
Mg1 O5 2.117 1_655 S
Mg1 O19 2.030 . S
O2 Mg3 2.072 1_565 S
O2 C14 1.260 . S
Mg3 O2 2.072 1_545 S
Mg3 O4 2.099 1_554 S
Mg3 O6 2.081 . S
Mg3 O7 2.072 . S
Mg3 O9 2.099 . S
Mg3 O20 2.079 1_445 S
O4 Mg1 2.180 1_445 S
O4 Mg3 2.099 1_556 S
O4 C15 1.279 . S
O5 Mg1 2.117 1_455 S
O5 C15 1.250 1_565 S
O6 Mg3 2.081 . S
O6 C16 1.263 . S
O7 Mg3 2.072 . S
O7 C17 1.260 . S
Mg8 O9 2.180 . S
Mg8 O10 2.030 . S
Mg8 O11 1.990 . S
Mg8 O12 2.117 . S
O9 Mg3 2.099 . S
O9 Mg8 2.180 . S
O9 C18 1.279 . S
O10 Mg8 2.030 . S
O10 C16 1.248 . S
O11 Mg8 1.990 . S
O11 C17 1.253 . S
O12 Mg8 2.117 . S
O12 C18 1.250 . S
C13 O19 1.248 1_554 S
C13 O20 1.264 . S
C14 O0 1.253 1_554 S
C14 O2 1.260 . S
C15 O4 1.279 . S
C15 O5 1.250 1_545 S
C16 O6 1.263 . S
C16 O10 1.248 . S
C17 O7 1.260 . S
C17 O11 1.253 . S
C18 O9 1.279 . S
C18 O12 1.250 . S
O19 Mg1 2.030 . S
O19 C13 1.248 1_556 S
O20 Mg3 2.079 1_665 S
O20 C13 1.264 . S
O21 Mg22 1.990 1_545 S
O21 C35 1.253 . S
Mg22 O21 1.990 1_565 S
Mg22 O25 2.180 . S
Mg22 O26 2.117 1_565 S
Mg22 O40 2.030 . S
O23 Mg24 2.072 . S
O23 C35 1.260 . S
Mg24 O23 2.072 . S
Mg24 O25 2.099 1_545 S
Mg24 O27 2.079 1_445 S
Mg24 O28 2.072 . S
Mg24 O30 2.099 . S
Mg24 O41 2.079 1_545 S
O25 Mg22 2.180 . S
O25 Mg24 2.099 1_565 S
O25 C36 1.279 1_565 S
O26 Mg22 2.117 1_545 S
O26 C36 1.250 . S
O27 Mg24 2.079 1_665 S
O27 C37 1.264 1_565 S
O28 Mg24 2.072 . S
O28 C38 1.260 . S
Mg29 O30 2.180 . S
Mg29 O31 2.030 1_455 S
Mg29 O32 1.990 . S
Mg29 O33 2.117 . S
O30 Mg24 2.099 . S
O30 Mg29 2.180 . S
O30 C39 1.279 . S
O31 Mg29 2.030 1_655 S
O31 C37 1.248 . S
O32 Mg29 1.990 . S
O32 C38 1.253 . S
O33 Mg29 2.117 . S
O33 C39 1.250 . S
C34 O40 1.248 . S
C34 O41 1.264 . S
C35 O21 1.253 . S
C35 O23 1.260 . S
C36 O25 1.279 1_545 S
C36 O26 1.250 . S
C37 O27 1.264 1_545 S
C37 O31 1.248 . S
C38 O28 1.260 . S
C38 O32 1.253 . S
C39 O30 1.279 . S
C39 O33 1.250 . S
O40 Mg22 2.030 . S
O40 C34 1.248 . S
O41 Mg24 2.079 1_565 S
O41 C34 1.264 . S
O42 Mg43 1.990 . S
O42 C56 1.253 1_655 S
Mg43 O42 1.990 . S
Mg43 O46 2.180 1_665 S
Mg43 O47 2.117 1_655 S
Mg43 O61 2.030 1_565 S
O44 Mg45 2.072 1_565 S
O44 C56 1.260 . S
Mg45 O44 2.072 1_545 S
Mg45 O46 2.099 . S
Mg45 O48 2.079 . S
Mg45 O49 2.072 . S
Mg45 O51 2.099 . S
Mg45 O62 2.079 . S
O46 Mg43 2.180 1_445 S
O46 Mg45 2.099 . S
O46 C57 1.279 . S
O47 Mg43 2.117 1_455 S
O47 C57 1.250 1_565 S
O48 Mg45 2.079 . S
O48 C58 1.264 . S
O49 Mg45 2.072 . S
O49 C59 1.260 . S
Mg50 O51 2.180 . S
Mg50 O52 2.030 . S
Mg50 O53 1.990 . S
Mg50 O54 2.117 . S
O51 Mg45 2.099 . S
O51 Mg50 2.180 . S
O51 C60 1.279 . S
O52 Mg50 2.030 . S
O52 C58 1.248 . S
O53 Mg50 1.990 . S
O53 C59 1.253 . S
O54 Mg50 2.117 . S
O54 C60 1.250 . S
C55 O61 1.248 . S
C55 O62 1.264 1_655 S
C56 O42 1.253 1_455 S
C56 O44 1.260 . S
C57 O46 1.279 . S
C57 O47 1.250 1_545 S
C58 O48 1.264 . S
C58 O52 1.248 . S
C59 O49 1.260 . S
C59 O53 1.253 . S
C60 O51 1.279 . S
C60 O54 1.250 . S
O61 Mg43 2.030 1_545 S
O61 C55 1.248 . S
O62 Mg45 2.079 . S
O62 C55 1.264 1_455 S
H63 C64 0.951 1_655 S
C64 H63 0.951 1_455 S
C64 C70 1.265 . S
H65 C70 0.950 . S
H66 C74 0.949 . S
H67 C75 0.950 . S
H68 C76 0.951 . S
H69 C77 0.951 . S
C70 C64 1.265 . S
C70 H65 0.950 . S
C70 C71 1.478 . S
C71 C70 1.478 . S
C71 C72 1.397 1_554 S
C71 C88 1.394 . S
C72 C71 1.397 1_556 S
C72 C73 1.438 . S
C72 C77 1.429 . S
C73 C72 1.438 . S
C73 C74 1.428 . S
C73 C86 1.394 1_556 S
C74 H66 0.949 . S
C74 C73 1.428 . S
C74 C75 1.345 . S
C75 H67 0.950 . S
C75 C74 1.345 . S
C75 C76 1.424 . S
C76 H68 0.951 . S
C76 C75 1.424 . S
C76 C77 1.347 . S
C77 H69 0.951 . S
C77 C72 1.429 . S
C77 C76 1.347 . S
H78 C79 0.951 . S
C79 H78 0.951 . S
C79 C85 1.265 . S
H80 C85 0.950 1_655 S
H81 C89 0.949 . S
H82 C90 0.950 . S
H83 C91 0.951 . S
H84 C92 0.951 . S
C85 C79 1.265 . S
C85 H80 0.950 1_455 S
C85 C86 1.478 . S
C86 C73 1.394 1_554 S
C86 C85 1.478 . S
C86 C87 1.397 . S
C87 C86 1.397 . S
C87 C88 1.438 . S
C87 C92 1.429 1_455 S
C88 C71 1.394 . S
C88 C87 1.438 . S
C88 C89 1.428 1_455 S
C89 H81 0.949 . S
C89 C88 1.428 1_655 S
C89 C90 1.345 . S
C90 H82 0.950 . S
C90 C89 1.345 . S
C90 C91 1.424 . S
C91 H83 0.951 . S
C91 C90 1.424 . S
C91 C92 1.347 . S
C92 H84 0.951 . S
C92 C87 1.429 1_655 S
C92 C91 1.347 . S
H93 C94 0.951 . S
C94 H93 0.951 . S
C94 C100 1.265 . S
H95 C100 0.950 1_565 S
H96 C104 0.949 . S
H97 C105 0.950 . S
H98 C106 0.951 . S
H99 C107 0.951 . S
C100 C94 1.265 . S
C100 H95 0.950 1_545 S
C100 C101 1.478 . S
C101 C100 1.478 . S
C101 C102 1.397 . S
C101 C118 1.394 . S
C102 C101 1.397 . S
C102 C103 1.438 . S
C102 C107 1.429 . S
C103 C102 1.438 . S
C103 C104 1.428 . S
C103 C116 1.394 . S
C104 H96 0.949 . S
C104 C103 1.428 . S
C104 C105 1.345 . S
C105 H97 0.950 . S
C105 C104 1.345 . S
C105 C106 1.424 . S
C106 H98 0.951 . S
C106 C105 1.424 . S
C106 C107 1.347 . S
C107 H99 0.951 . S
C107 C102 1.429 . S
C107 C106 1.347 . S
H108 C109 0.951 . S
C109 H108 0.951 . S
C109 C115 1.265 1_565 S
H110 C115 0.950 . S
H111 C119 0.949 . S
H112 C120 0.950 . S
H113 C121 0.951 . S
H114 C122 0.951 . S
C115 C109 1.265 1_545 S
C115 H110 0.950 . S
C115 C116 1.478 . S
C116 C103 1.394 . S
C116 C115 1.478 . S
C116 C117 1.397 . S
C117 C116 1.397 . S
C117 C118 1.438 . S
C117 C122 1.429 . S
C118 C101 1.394 . S
C118 C117 1.438 . S
C118 C119 1.428 . S
C119 H111 0.949 . S
C119 C118 1.428 . S
C119 C120 1.345 . S
C120 H112 0.950 . S
C120 C119 1.345 . S
C120 C121 1.424 . S
C121 H113 0.951 . S
C121 C120 1.424 . S
C121 C122 1.347 . S
C122 H114 0.951 . S
C122 C117 1.429 . S
C122 C121 1.347 . S
H123 C124 0.951 . S
C124 H123 0.951 . S
C124 C130 1.265 . S
H125 C130 0.950 . S
H126 C134 0.949 . S
H127 C135 0.950 . S
H128 C136 0.951 . S
H129 C137 0.951 . S
C130 C124 1.265 . S
C130 H125 0.950 . S
C130 C131 1.478 . S
C131 C130 1.478 . S
C131 C132 1.397 . S
C131 C148 1.394 . S
C132 C131 1.397 . S
C132 C133 1.438 . S
C132 C137 1.429 . S
C133 C132 1.438 . S
C133 C134 1.428 . S
C133 C146 1.394 . S
C134 H126 0.949 . S
C134 C133 1.428 . S
C134 C135 1.345 . S
C135 H127 0.950 . S
C135 C134 1.345 . S
C135 C136 1.424 . S
C136 H128 0.951 . S
C136 C135 1.424 . S
C136 C137 1.347 . S
C137 H129 0.951 . S
C137 C132 1.429 . S
C137 C136 1.347 . S
H138 C139 0.951 . S
C139 H138 0.951 . S
C139 C145 1.265 . S
H140 C145 0.950 . S
H141 C149 0.949 . S
H142 C150 0.950 . S
H143 C151 0.951 . S
H144 C152 0.951 . S
C145 C139 1.265 . S
C145 H140 0.950 . S
C145 C146 1.478 . S
C146 C133 1.394 . S
C146 C145 1.478 . S
C146 C147 1.397 . S
C147 C146 1.397 . S
C147 C148 1.438 . S
C147 C152 1.429 . S
C148 C131 1.394 . S
C148 C147 1.438 . S
C148 C149 1.428 . S
C149 H141 0.949 . S
C149 C148 1.428 . S
C149 C150 1.345 . S
C150 H142 0.950 . S
C150 C149 1.345 . S
C150 C151 1.424 . S
C151 H143 0.951 . S
C151 C150 1.424 . S
C151 C152 1.347 . S
C152 H144 0.951 . S
C152 C147 1.429 . S
C152 C151 1.347 . S
H153 C154 0.951 . S
C154 H153 0.951 . S
C154 C160 1.265 . S
H155 C160 0.950 . S
H156 C164 0.949 . S
H157 C165 0.950 . S
H158 C166 0.951 . S
H159 C167 0.951 . S
C160 C154 1.265 . S
C160 H155 0.950 . S
C160 C161 1.478 . S
C161 C160 1.478 . S
C161 C162 1.397 . S
C161 C178 1.394 . S
C162 C161 1.397 . S
C162 C163 1.438 . S
C162 C167 1.429 1_545 S
C163 C162 1.438 . S
C163 C164 1.428 1_545 S
C163 C176 1.394 . S
C164 H156 0.949 . S
C164 C163 1.428 1_565 S
C164 C165 1.345 . S
C165 H157 0.950 . S
C165 C164 1.345 . S
C165 C166 1.424 . S
C166 H158 0.951 . S
C166 C165 1.424 . S
C166 C167 1.347 . S
C167 H159 0.951 . S
C167 C162 1.429 1_565 S
C167 C166 1.347 . S
H168 C169 0.951 1_565 S
C169 H168 0.951 1_545 S
C169 C175 1.265 . S
H170 C175 0.950 . S
H171 C179 0.949 . S
H172 C180 0.950 . S
H173 C181 0.951 . S
H174 C182 0.951 . S
C175 C169 1.265 . S
C175 H170 0.950 . S
C175 C176 1.478 . S
C176 C163 1.394 . S
C176 C175 1.478 . S
C176 C177 1.397 . S
C177 C176 1.397 . S
C177 C178 1.438 . S
C177 C182 1.429 . S
C178 C161 1.394 . S
C178 C177 1.438 . S
C178 C179 1.428 . S
C179 H171 0.949 . S
C179 C178 1.428 . S
C179 C180 1.345 . S
C180 H172 0.950 . S
C180 C179 1.345 . S
C180 C181 1.424 . S
C181 H173 0.951 . S
C181 C180 1.424 . S
C181 C182 1.347 . S
C182 H174 0.951 . S
C182 C177 1.429 . S
C182 C181 1.347 . S
H183 C184 0.951 . S
C184 H183 0.951 . S
C184 C190 1.265 . S
H185 C190 0.950 . S
H186 C194 0.949 . S
H187 C195 0.950 . S
H188 C196 0.951 . S
H189 C197 0.951 . S
C190 C184 1.265 . S
C190 H185 0.950 . S
C190 C191 1.478 . S
C191 C190 1.478 . S
C191 C192 1.397 1_554 S
C191 C208 1.394 . S
C192 C191 1.397 1_556 S
C192 C193 1.438 . S
C192 C197 1.429 . S
C193 C192 1.438 . S
C193 C194 1.428 . S
C193 C206 1.394 1_556 S
C194 H186 0.949 . S
C194 C193 1.428 . S
C194 C195 1.345 . S
C195 H187 0.950 . S
C195 C194 1.345 . S
C195 C196 1.424 . S
C196 H188 0.951 . S
C196 C195 1.424 . S
C196 C197 1.347 . S
C197 H189 0.951 . S
C197 C192 1.429 . S
C197 C196 1.347 . S
H198 C199 0.951 . S
C199 H198 0.951 . S
C199 C205 1.265 . S
H200 C205 0.950 . S
H201 C209 0.949 . S
H202 C210 0.950 . S
H203 C211 0.951 . S
H204 C212 0.951 . S
C205 C199 1.265 . S
C205 H200 0.950 . S
C205 C206 1.478 . S
C206 C193 1.394 1_554 S
C206 C205 1.478 . S
C206 C207 1.397 . S
C207 C206 1.397 . S
C207 C208 1.438 . S
C207 C212 1.429 . S
C208 C191 1.394 . S
C208 C207 1.438 . S
C208 C209 1.428 . S
C209 H201 0.949 . S
C209 C208 1.428 . S
C209 C210 1.345 . S
C210 H202 0.950 . S
C210 C209 1.345 . S
C210 C211 1.424 . S
C211 H203 0.951 . S
C211 C210 1.424 . S
C211 C212 1.347 . S
C212 H204 0.951 . S
C212 C207 1.429 . S
C212 C211 1.347 . S
H213 C214 0.951 . S
C214 H213 0.951 . S
C214 C220 1.265 . S
H215 C220 0.950 . S
H216 C224 0.949 . S
H217 C225 0.950 . S
H218 C226 0.951 . S
H219 C227 0.951 . S
C220 C214 1.265 . S
C220 H215 0.950 . S
C220 C221 1.478 . S
C221 C220 1.478 . S
C221 C222 1.397 . S
C221 C238 1.394 . S
C222 C221 1.397 . S
C222 C223 1.438 . S
C222 C227 1.429 . S
C223 C222 1.438 . S
C223 C224 1.428 . S
C223 C236 1.394 . S
C224 H216 0.949 . S
C224 C223 1.428 . S
C224 C225 1.345 . S
C225 H217 0.950 . S
C225 C224 1.345 . S
C225 C226 1.424 . S
C226 H218 0.951 . S
C226 C225 1.424 . S
C226 C227 1.347 . S
C227 H219 0.951 . S
C227 C222 1.429 . S
C227 C226 1.347 . S
H228 C229 0.951 . S
C229 H228 0.951 . S
C229 C235 1.265 . S
H230 C235 0.950 . S
H231 C239 0.949 . S
H232 C240 0.950 . S
H233 C241 0.951 . S
H234 C242 0.951 . S
C235 C229 1.265 . S
C235 H230 0.950 . S
C235 C236 1.478 . S
C236 C223 1.394 . S
C236 C235 1.478 . S
C236 C237 1.397 . S
C237 C236 1.397 . S
C237 C238 1.438 . S
C237 C242 1.429 1_455 S
C238 C221 1.394 . S
C238 C237 1.438 . S
C238 C239 1.428 . S
C239 H231 0.949 . S
C239 C238 1.428 . S
C239 C240 1.345 1_455 S
C240 H232 0.950 . S
C240 C239 1.345 1_655 S
C240 C241 1.424 . S
C241 H233 0.951 . S
C241 C240 1.424 . S
C241 C242 1.347 . S
C242 H234 0.951 . S
C242 C237 1.429 1_655 S
C242 C241 1.347 . S
H243 C244 0.951 1_565 S
C244 H243 0.951 1_545 S
C244 C250 1.265 . S
H245 C250 0.950 . S
H246 C254 0.949 . S
H247 C255 0.950 . S
H248 C256 0.951 . S
H249 C257 0.951 . S
C250 C244 1.265 . S
C250 H245 0.950 . S
C250 C251 1.478 . S
C251 C250 1.478 . S
C251 C252 1.397 . S
C251 C268 1.394 1_545 S
C252 C251 1.397 . S
C252 C253 1.438 . S
C252 C257 1.429 . S
C253 C252 1.438 . S
C253 C254 1.428 . S
C253 C266 1.394 . S
C254 H246 0.949 . S
C254 C253 1.428 . S
C254 C255 1.345 . S
C255 H247 0.950 . S
C255 C254 1.345 . S
C255 C256 1.424 . S
C256 H248 0.951 . S
C256 C255 1.424 . S
C256 C257 1.347 . S
C257 H249 0.951 . S
C257 C252 1.429 . S
C257 C256 1.347 . S
H258 C259 0.951 . S
C259 H258 0.951 . S
C259 C265 1.265 . S
H260 C265 0.950 1_565 S
H261 C269 0.949 . S
H262 C270 0.950 . S
H263 C271 0.951 . S
H264 C272 0.951 . S
C265 C259 1.265 . S
C265 H260 0.950 1_545 S
C265 C266 1.478 . S
C266 C253 1.394 . S
C266 C265 1.478 . S
C266 C267 1.397 1_545 S
C267 C266 1.397 1_565 S
C267 C268 1.438 . S
C267 C272 1.429 1_455 S
C268 C251 1.394 1_565 S
C268 C267 1.438 . S
C268 C269 1.428 1_455 S
C269 H261 0.949 . S
C269 C268 1.428 1_655 S
C269 C270 1.345 . S
C270 H262 0.950 . S
C270 C269 1.345 . S
C270 C271 1.424 . S
C271 H263 0.951 . S
C271 C270 1.424 . S
C271 C272 1.347 . S
C272 H264 0.951 . S
C272 C267 1.429 1_655 S
C272 C271 1.347 . S
H273 C274 0.951 . S
C274 H273 0.951 . S
C274 C280 1.265 . S
H275 C280 0.950 . S
H276 C284 0.949 . S
H277 C285 0.950 1_655 S
H278 C286 0.953 . S
H279 C287 0.951 . S
C280 C274 1.265 . S
C280 H275 0.950 . S
C280 C281 1.478 . S
C281 C280 1.478 . S
C281 C282 1.397 1_545 S
C281 C298 1.394 . S
C282 C281 1.397 1_565 S
C282 C283 1.438 . S
C282 C287 1.429 . S
C283 C282 1.438 . S
C283 C284 1.428 . S
C283 C296 1.394 1_565 S
C284 H276 0.949 . S
C284 C283 1.428 . S
C284 C285 1.345 . S
C285 H277 0.950 1_455 S
C285 C284 1.345 . S
C285 C286 1.423 1_455 S
C286 H278 0.953 . S
C286 C285 1.423 1_655 S
C286 C287 1.346 1_655 S
C287 H279 0.951 . S
C287 C282 1.429 . S
C287 C286 1.346 1_455 S
H288 C289 0.951 . S
C289 H288 0.951 . S
C289 C295 1.265 . S
H290 C295 0.950 . S
H291 C299 0.949 . S
H292 C300 0.950 . S
H293 C301 0.951 . S
H294 C302 0.951 . S
C295 C289 1.265 . S
C295 H290 0.950 . S
C295 C296 1.478 . S
C296 C283 1.394 1_545 S
C296 C295 1.478 . S
C296 C297 1.397 . S
C297 C296 1.397 . S
C297 C298 1.438 . S
C297 C302 1.429 . S
C298 C281 1.394 . S
C298 C297 1.438 . S
C298 C299 1.428 . S
C299 H291 0.949 . S
C299 C298 1.428 . S
C299 C300 1.345 . S
C300 H292 0.950 . S
C300 C299 1.345 . S
C300 C301 1.424 . S
C301 H293 0.951 . S
C301 C300 1.424 . S
C301 C302 1.347 . S
C302 H294 0.951 . S
C302 C297 1.429 . S
C302 C301 1.347 . S
H303 C304 0.951 . S
C304 H303 0.951 . S
C304 C310 1.265 . S
H305 C310 0.950 . S
H306 C314 0.949 . S
H307 C315 0.950 . S
H308 C316 0.951 . S
H309 C317 0.951 . S
C310 C304 1.265 . S
C310 H305 0.950 . S
C310 C311 1.478 . S
C311 C310 1.478 . S
C311 C312 1.399 . S
C311 C328 1.394 . S
C312 C311 1.399 . S
C312 C313 1.437 1_545 S
C312 C317 1.427 1_445 S
C313 C312 1.437 1_565 S
C313 C314 1.427 1_455 S
C313 C326 1.394 1_565 S
C314 H306 0.949 . S
C314 C313 1.427 1_655 S
C314 C315 1.345 . S
C315 H307 0.950 . S
C315 C314 1.345 . S
C315 C316 1.424 . S
C316 H308 0.951 . S
C316 C315 1.424 . S
C316 C317 1.347 . S
C317 H309 0.951 . S
C317 C312 1.427 1_665 S
C317 C316 1.347 . S
H318 C319 0.951 . S
C319 H318 0.951 . S
C319 C325 1.265 . S
H320 C325 0.950 . S
H321 C329 0.949 . S
H322 C330 0.950 . S
H323 C331 0.951 . S
H324 C332 0.951 . S
C325 C319 1.265 . S
C325 H320 0.950 . S
C325 C326 1.478 . S
C326 C313 1.394 1_545 S
C326 C325 1.478 . S
C326 C327 1.397 . S
C327 C326 1.397 . S
C327 C328 1.438 . S
C327 C332 1.429 . S
C328 C311 1.394 . S
C328 C327 1.438 . S
C328 C329 1.428 . S
C329 H321 0.949 . S
C329 C328 1.428 . S
C329 C330 1.345 . S
C330 H322 0.950 . S
C330 C329 1.345 . S
C330 C331 1.424 . S
C331 H323 0.951 . S
C331 C330 1.424 . S
C331 C332 1.347 . S
C332 H324 0.951 . S
C332 C327 1.429 . S
C332 C331 1.347 . S
C64 C16 1.220 . S
C79 C14 1.215 . S
C94 C35 1.223 . S
C109 C37 1.226 1_565 S
C124 C56 1.133 1_655 S
C139 C58 1.099 . S
C154 C55 1.226 . S
C169 C59 1.223 . S
C184 C13 1.093 . S
C199 C17 1.126 . S
C214 C38 1.191 . S
C229 C34 1.158 . S
C244 C36 1.241 . S
C259 C18 1.229 . S
C274 C39 1.377 . S
C289 C57 1.215 . S
C304 C60 1.249 . S
C319 C15 1.312 . S
