# Generated by pormake.
# Topology ulj, (4)-cn, num edge types: 1
# Building blocks:
#     Node 0, Type 0, BuildingBlock: NAWXER_clean_sbu_0, # of connection points: 4
#     Node 1, Type 0, BuildingBlock: NAWXER_clean_sbu_0, # of connection points: 4
#     Node 2, Type 0, BuildingBlock: NAWXER_clean_sbu_0, # of connection points: 4
#     Node 3, Type 0, BuildingBlock: NAWXER_clean_sbu_0, # of connection points: 4
#     Node 4, Type 0, BuildingBlock: NAWXER_clean_sbu_0, # of connection points: 4
#     Node 5, Type 0, BuildingBlock: NAWXER_clean_sbu_0, # of connection points: 4
#     Node 6, Type 0, BuildingBlock: NAWXER_clean_sbu_0, # of connection points: 4
#     Node 7, Type 0, BuildingBlock: NAWXER_clean_sbu_0, # of connection points: 4
#     Node 8, Type 0, BuildingBlock: NAWXER_clean_sbu_0, # of connection points: 4
#     Node 9, Type 0, BuildingBlock: NAWXER_clean_sbu_0, # of connection points: 4
#     Node 10, Type 0, BuildingBlock: NAWXER_clean_sbu_0, # of connection points: 4
#     Node 11, Type 0, BuildingBlock: NAWXER_clean_sbu_0, # of connection points: 4
#     Node 12, Type 0, BuildingBlock: NAWXER_clean_sbu_0, # of connection points: 4
#     Node 13, Type 0, BuildingBlock: NAWXER_clean_sbu_0, # of connection points: 4
#     Node 14, Type 0, BuildingBlock: NAWXER_clean_sbu_0, # of connection points: 4
#     Node 15, Type 0, BuildingBlock: NAWXER_clean_sbu_0, # of connection points: 4
#     Node 16, Type 0, BuildingBlock: NAWXER_clean_sbu_0, # of connection points: 4
#     Node 17, Type 0, BuildingBlock: NAWXER_clean_sbu_0, # of connection points: 4
#     Node 18, Type 0, BuildingBlock: NAWXER_clean_sbu_0, # of connection points: 4
#     Node 19, Type 0, BuildingBlock: NAWXER_clean_sbu_0, # of connection points: 4
#     Node 20, Type 0, BuildingBlock: NAWXER_clean_sbu_0, # of connection points: 4
#     Node 21, Type 0, BuildingBlock: NAWXER_clean_sbu_0, # of connection points: 4
#     Node 22, Type 0, BuildingBlock: NAWXER_clean_sbu_0, # of connection points: 4
#     Node 23, Type 0, BuildingBlock: NAWXER_clean_sbu_0, # of connection points: 4
#     Node 24, Type 0, BuildingBlock: NAWXER_clean_sbu_0, # of connection points: 4
#     Node 25, Type 0, BuildingBlock: NAWXER_clean_sbu_0, # of connection points: 4
#     Node 26, Type 0, BuildingBlock: NAWXER_clean_sbu_0, # of connection points: 4
#     Node 27, Type 0, BuildingBlock: NAWXER_clean_sbu_0, # of connection points: 4
#     Node 28, Type 0, BuildingBlock: NAWXER_clean_sbu_0, # of connection points: 4
#     Node 29, Type 0, BuildingBlock: NAWXER_clean_sbu_0, # of connection points: 4
#     Node 30, Type 0, BuildingBlock: NAWXER_clean_sbu_0, # of connection points: 4
#     Node 31, Type 0, BuildingBlock: NAWXER_clean_sbu_0, # of connection points: 4
#     Node 32, Type 0, BuildingBlock: NAWXER_clean_sbu_0, # of connection points: 4
#     Node 33, Type 0, BuildingBlock: NAWXER_clean_sbu_0, # of connection points: 4
#     Node 34, Type 0, BuildingBlock: NAWXER_clean_sbu_0, # of connection points: 4
#     Node 35, Type 0, BuildingBlock: NAWXER_clean_sbu_0, # of connection points: 4
#     Node 36, Type 0, BuildingBlock: NAWXER_clean_sbu_0, # of connection points: 4
#     Node 37, Type 0, BuildingBlock: NAWXER_clean_sbu_0, # of connection points: 4
#     Node 38, Type 0, BuildingBlock: NAWXER_clean_sbu_0, # of connection points: 4
#     Node 39, Type 0, BuildingBlock: NAWXER_clean_sbu_0, # of connection points: 4
#     Node 40, Type 0, BuildingBlock: NAWXER_clean_sbu_0, # of connection points: 4
#     Node 41, Type 0, BuildingBlock: NAWXER_clean_sbu_0, # of connection points: 4
#     Node 42, Type 0, BuildingBlock: NAWXER_clean_sbu_0, # of connection points: 4
#     Node 43, Type 0, BuildingBlock: NAWXER_clean_sbu_0, # of connection points: 4
#     Node 44, Type 0, BuildingBlock: NAWXER_clean_sbu_0, # of connection points: 4
#     Node 45, Type 0, BuildingBlock: NAWXER_clean_sbu_0, # of connection points: 4
#     Node 46, Type 0, BuildingBlock: NAWXER_clean_sbu_0, # of connection points: 4
#     Node 47, Type 0, BuildingBlock: NAWXER_clean_sbu_0, # of connection points: 4
#     Edge 48, Type (0, 0), BuildingBlock: XIVTED_clean_linker_0, # of connection points: 2
#     Edge 49, Type (0, 0), BuildingBlock: XIVTED_clean_linker_0, # of connection points: 2
#     Edge 50, Type (0, 0), BuildingBlock: XIVTED_clean_linker_0, # of connection points: 2
#     Edge 51, Type (0, 0), BuildingBlock: XIVTED_clean_linker_0, # of connection points: 2
#     Edge 52, Type (0, 0), BuildingBlock: XIVTED_clean_linker_0, # of connection points: 2
#     Edge 53, Type (0, 0), BuildingBlock: XIVTED_clean_linker_0, # of connection points: 2
#     Edge 54, Type (0, 0), BuildingBlock: XIVTED_clean_linker_0, # of connection points: 2
#     Edge 55, Type (0, 0), BuildingBlock: XIVTED_clean_linker_0, # of connection points: 2
#     Edge 56, Type (0, 0), BuildingBlock: XIVTED_clean_linker_0, # of connection points: 2
#     Edge 57, Type (0, 0), BuildingBlock: XIVTED_clean_linker_0, # of connection points: 2
#     Edge 58, Type (0, 0), BuildingBlock: XIVTED_clean_linker_0, # of connection points: 2
#     Edge 59, Type (0, 0), BuildingBlock: XIVTED_clean_linker_0, # of connection points: 2
#     Edge 60, Type (0, 0), BuildingBlock: XIVTED_clean_linker_0, # of connection points: 2
#     Edge 61, Type (0, 0), BuildingBlock: XIVTED_clean_linker_0, # of connection points: 2
#     Edge 62, Type (0, 0), BuildingBlock: XIVTED_clean_linker_0, # of connection points: 2
#     Edge 63, Type (0, 0), BuildingBlock: XIVTED_clean_linker_0, # of connection points: 2
#     Edge 64, Type (0, 0), BuildingBlock: XIVTED_clean_linker_0, # of connection points: 2
#     Edge 65, Type (0, 0), BuildingBlock: XIVTED_clean_linker_0, # of connection points: 2
#     Edge 66, Type (0, 0), BuildingBlock: XIVTED_clean_linker_0, # of connection points: 2
#     Edge 67, Type (0, 0), BuildingBlock: XIVTED_clean_linker_0, # of connection points: 2
#     Edge 68, Type (0, 0), BuildingBlock: XIVTED_clean_linker_0, # of connection points: 2
#     Edge 69, Type (0, 0), BuildingBlock: XIVTED_clean_linker_0, # of connection points: 2
#     Edge 70, Type (0, 0), BuildingBlock: XIVTED_clean_linker_0, # of connection points: 2
#     Edge 71, Type (0, 0), BuildingBlock: XIVTED_clean_linker_0, # of connection points: 2
#     Edge 72, Type (0, 0), BuildingBlock: XIVTED_clean_linker_0, # of connection points: 2
#     Edge 73, Type (0, 0), BuildingBlock: XIVTED_clean_linker_0, # of connection points: 2
#     Edge 74, Type (0, 0), BuildingBlock: XIVTED_clean_linker_0, # of connection points: 2
#     Edge 75, Type (0, 0), BuildingBlock: XIVTED_clean_linker_0, # of connection points: 2
#     Edge 76, Type (0, 0), BuildingBlock: XIVTED_clean_linker_0, # of connection points: 2
#     Edge 77, Type (0, 0), BuildingBlock: XIVTED_clean_linker_0, # of connection points: 2
#     Edge 78, Type (0, 0), BuildingBlock: XIVTED_clean_linker_0, # of connection points: 2
#     Edge 79, Type (0, 0), BuildingBlock: XIVTED_clean_linker_0, # of connection points: 2
#     Edge 80, Type (0, 0), BuildingBlock: XIVTED_clean_linker_0, # of connection points: 2
#     Edge 81, Type (0, 0), BuildingBlock: XIVTED_clean_linker_0, # of connection points: 2
#     Edge 82, Type (0, 0), BuildingBlock: XIVTED_clean_linker_0, # of connection points: 2
#     Edge 83, Type (0, 0), BuildingBlock: XIVTED_clean_linker_0, # of connection points: 2
#     Edge 84, Type (0, 0), BuildingBlock: XIVTED_clean_linker_0, # of connection points: 2
#     Edge 85, Type (0, 0), BuildingBlock: XIVTED_clean_linker_0, # of connection points: 2
#     Edge 86, Type (0, 0), BuildingBlock: XIVTED_clean_linker_0, # of connection points: 2
#     Edge 87, Type (0, 0), BuildingBlock: XIVTED_clean_linker_0, # of connection points: 2
#     Edge 88, Type (0, 0), BuildingBlock: XIVTED_clean_linker_0, # of connection points: 2
#     Edge 89, Type (0, 0), BuildingBlock: XIVTED_clean_linker_0, # of connection points: 2
#     Edge 90, Type (0, 0), BuildingBlock: XIVTED_clean_linker_0, # of connection points: 2
#     Edge 91, Type (0, 0), BuildingBlock: XIVTED_clean_linker_0, # of connection points: 2
#     Edge 92, Type (0, 0), BuildingBlock: XIVTED_clean_linker_0, # of connection points: 2
#     Edge 93, Type (0, 0), BuildingBlock: XIVTED_clean_linker_0, # of connection points: 2
#     Edge 94, Type (0, 0), BuildingBlock: XIVTED_clean_linker_0, # of connection points: 2
#     Edge 95, Type (0, 0), BuildingBlock: XIVTED_clean_linker_0, # of connection points: 2
#     Edge 96, Type (0, 0), BuildingBlock: XIVTED_clean_linker_0, # of connection points: 2
#     Edge 97, Type (0, 0), BuildingBlock: XIVTED_clean_linker_0, # of connection points: 2
#     Edge 98, Type (0, 0), BuildingBlock: XIVTED_clean_linker_0, # of connection points: 2
#     Edge 99, Type (0, 0), BuildingBlock: XIVTED_clean_linker_0, # of connection points: 2
#     Edge 100, Type (0, 0), BuildingBlock: XIVTED_clean_linker_0, # of connection points: 2
#     Edge 101, Type (0, 0), BuildingBlock: XIVTED_clean_linker_0, # of connection points: 2
#     Edge 102, Type (0, 0), BuildingBlock: XIVTED_clean_linker_0, # of connection points: 2
#     Edge 103, Type (0, 0), BuildingBlock: XIVTED_clean_linker_0, # of connection points: 2
#     Edge 104, Type (0, 0), BuildingBlock: XIVTED_clean_linker_0, # of connection points: 2
#     Edge 105, Type (0, 0), BuildingBlock: XIVTED_clean_linker_0, # of connection points: 2
#     Edge 106, Type (0, 0), BuildingBlock: XIVTED_clean_linker_0, # of connection points: 2
#     Edge 107, Type (0, 0), BuildingBlock: XIVTED_clean_linker_0, # of connection points: 2
#     Edge 108, Type (0, 0), BuildingBlock: XIVTED_clean_linker_0, # of connection points: 2
#     Edge 109, Type (0, 0), BuildingBlock: XIVTED_clean_linker_0, # of connection points: 2
#     Edge 110, Type (0, 0), BuildingBlock: XIVTED_clean_linker_0, # of connection points: 2
#     Edge 111, Type (0, 0), BuildingBlock: XIVTED_clean_linker_0, # of connection points: 2
#     Edge 112, Type (0, 0), BuildingBlock: XIVTED_clean_linker_0, # of connection points: 2
#     Edge 113, Type (0, 0), BuildingBlock: XIVTED_clean_linker_0, # of connection points: 2
#     Edge 114, Type (0, 0), BuildingBlock: XIVTED_clean_linker_0, # of connection points: 2
#     Edge 115, Type (0, 0), BuildingBlock: XIVTED_clean_linker_0, # of connection points: 2
#     Edge 116, Type (0, 0), BuildingBlock: XIVTED_clean_linker_0, # of connection points: 2
#     Edge 117, Type (0, 0), BuildingBlock: XIVTED_clean_linker_0, # of connection points: 2
#     Edge 118, Type (0, 0), BuildingBlock: XIVTED_clean_linker_0, # of connection points: 2
#     Edge 119, Type (0, 0), BuildingBlock: XIVTED_clean_linker_0, # of connection points: 2
#     Edge 120, Type (0, 0), BuildingBlock: XIVTED_clean_linker_0, # of connection points: 2
#     Edge 121, Type (0, 0), BuildingBlock: XIVTED_clean_linker_0, # of connection points: 2
#     Edge 122, Type (0, 0), BuildingBlock: XIVTED_clean_linker_0, # of connection points: 2
#     Edge 123, Type (0, 0), BuildingBlock: XIVTED_clean_linker_0, # of connection points: 2
#     Edge 124, Type (0, 0), BuildingBlock: XIVTED_clean_linker_0, # of connection points: 2
#     Edge 125, Type (0, 0), BuildingBlock: XIVTED_clean_linker_0, # of connection points: 2
#     Edge 126, Type (0, 0), BuildingBlock: XIVTED_clean_linker_0, # of connection points: 2
#     Edge 127, Type (0, 0), BuildingBlock: XIVTED_clean_linker_0, # of connection points: 2
#     Edge 128, Type (0, 0), BuildingBlock: XIVTED_clean_linker_0, # of connection points: 2
#     Edge 129, Type (0, 0), BuildingBlock: XIVTED_clean_linker_0, # of connection points: 2
#     Edge 130, Type (0, 0), BuildingBlock: XIVTED_clean_linker_0, # of connection points: 2
#     Edge 131, Type (0, 0), BuildingBlock: XIVTED_clean_linker_0, # of connection points: 2
#     Edge 132, Type (0, 0), BuildingBlock: XIVTED_clean_linker_0, # of connection points: 2
#     Edge 133, Type (0, 0), BuildingBlock: XIVTED_clean_linker_0, # of connection points: 2
#     Edge 134, Type (0, 0), BuildingBlock: XIVTED_clean_linker_0, # of connection points: 2
#     Edge 135, Type (0, 0), BuildingBlock: XIVTED_clean_linker_0, # of connection points: 2
#     Edge 136, Type (0, 0), BuildingBlock: XIVTED_clean_linker_0, # of connection points: 2
#     Edge 137, Type (0, 0), BuildingBlock: XIVTED_clean_linker_0, # of connection points: 2
#     Edge 138, Type (0, 0), BuildingBlock: XIVTED_clean_linker_0, # of connection points: 2
#     Edge 139, Type (0, 0), BuildingBlock: XIVTED_clean_linker_0, # of connection points: 2
#     Edge 140, Type (0, 0), BuildingBlock: XIVTED_clean_linker_0, # of connection points: 2
#     Edge 141, Type (0, 0), BuildingBlock: XIVTED_clean_linker_0, # of connection points: 2
#     Edge 142, Type (0, 0), BuildingBlock: XIVTED_clean_linker_0, # of connection points: 2
#     Edge 143, Type (0, 0), BuildingBlock: XIVTED_clean_linker_0, # of connection points: 2
# Relax obj value: 0.095
# Max RMSD: 0.223
# Mean RMSD: 0.216
data_MOF--net-ulj--node1-NAWXER_clean_sbu_0--edge1-XIVTED_clean_linker_0
_symmetry_space_group_name_H-M    P1
_symmetry_Int_Tables_number       1
_symmetry_cell_setting            triclinic
loop_
_symmetry_equiv_pos_as_xyz
'x, y, z'
_cell_length_a     65.027175
_cell_length_b     65.040367
_cell_length_c     65.025393
_cell_angle_alpha  89.969619
_cell_angle_beta   90.003069
_cell_angle_gamma 89.968057
loop_
_atom_site_label
_atom_site_type_symbol
_atom_site_fract_x
_atom_site_fract_y
_atom_site_fract_z
_atom_type_partial_charge
C0 C 0.13427 0.27877 0.27074 0.0
C1 C 0.09363 0.2396 0.32062 0.0
O2 O 0.14009 0.28147 0.28938 0.0
Zn3 Zn 0.13195 0.27091 0.31953 0.0
O4 O 0.11934 0.26673 0.26699 0.0
Zn5 Zn 0.11384 0.25885 0.29526 0.0
O6 O 0.10255 0.2869 0.30857 0.0
O7 O 0.1242 0.29603 0.33303 0.0
O8 O 0.09147 0.24011 0.30119 0.0
O9 O 0.10806 0.25007 0.32904 0.0
O10 O 0.15683 0.25728 0.32819 0.0
O11 O 0.14092 0.24129 0.30284 0.0
C12 C 0.10789 0.29944 0.32281 0.0
C13 C 0.15603 0.24245 0.3155 0.0
C14 C 0.52642 0.6369 0.9137 0.0
C15 C 0.47892 0.58305 0.93257 0.0
O16 O 0.52421 0.61876 0.90703 0.0
Zn17 Zn 0.50274 0.61006 0.92469 0.0
O18 O 0.51572 0.64283 0.92924 0.0
Zn19 Zn 0.49209 0.62846 0.94841 0.0
O20 O 0.50335 0.62668 0.97578 0.0
O21 O 0.51675 0.60413 0.95441 0.0
O22 O 0.47715 0.59845 0.94486 0.0
O23 O 0.49202 0.58369 0.91814 0.0
O24 O 0.47711 0.63014 0.91686 0.0
O25 O 0.46923 0.64669 0.9454 0.0
C26 C 0.51518 0.61151 0.97266 0.0
C27 C 0.46581 0.64315 0.92653 0.0
C28 C 0.91169 0.21222 0.30548 0.0
C29 C 0.86621 0.27297 0.30531 0.0
O30 O 0.91498 0.22886 0.29569 0.0
Zn31 Zn 0.89066 0.24365 0.30556 0.0
O32 O 0.89616 0.21088 0.31755 0.0
Zn33 Zn 0.87064 0.2291 0.32776 0.0
O34 O 0.8476 0.21236 0.31864 0.0
O35 O 0.86641 0.22521 0.29339 0.0
O36 O 0.8608 0.2586 0.31763 0.0
O37 O 0.88279 0.27102 0.29506 0.0
O38 O 0.89838 0.24922 0.33686 0.0
O39 O 0.87573 0.23368 0.35687 0.0
C40 C 0.85119 0.21427 0.29948 0.0
C41 C 0.89169 0.24476 0.35484 0.0
C42 C 0.52382 0.92979 0.93458 0.0
C43 C 0.46914 0.88175 0.92121 0.0
O44 O 0.50888 0.93107 0.9221 0.0
Zn45 Zn 0.4969 0.90549 0.929 0.0
O46 O 0.52588 0.91365 0.94584 0.0
Zn47 Zn 0.5091 0.88472 0.94996 0.0
O48 O 0.52951 0.86507 0.94242 0.0
O49 O 0.51939 0.88442 0.91643 0.0
O50 O 0.48156 0.87395 0.93445 0.0
O51 O 0.47222 0.89983 0.91474 0.0
O52 O 0.48836 0.91075 0.96076 0.0
O53 O 0.50215 0.88551 0.97869 0.0
C54 C 0.53081 0.86999 0.92359 0.0
C55 C 0.49174 0.90199 0.97814 0.0
C56 C 0.10392 0.69932 0.18395 0.0
C57 C 0.15418 0.75461 0.18879 0.0
O58 O 0.09928 0.71209 0.19825 0.0
Zn59 Zn 0.11197 0.74004 0.2105 0.0
O60 O 0.11948 0.70276 0.17268 0.0
Zn61 Zn 0.12888 0.72751 0.18566 0.0
O62 O 0.13793 0.71699 0.2156 0.0
O63 O 0.11831 0.73246 0.23855 0.0
O64 O 0.15434 0.73963 0.17622 0.0
O65 O 0.13954 0.75625 0.20191 0.0
O66 O 0.09141 0.76092 0.20563 0.0
O67 O 0.10708 0.75099 0.17723 0.0
C68 C 0.13285 0.72007 0.2344 0.0
C69 C 0.09409 0.76272 0.18635 0.0
C70 C 0.01733 0.59052 0.13402 0.0
C71 C 0.9666 0.57354 0.08106 0.0
O72 O 0.02084 0.59819 0.11625 0.0
Zn73 Zn 0.00801 0.59943 0.08635 0.0
O74 O 0.0015 0.57938 0.13706 0.0
Zn75 Zn 0.99125 0.58098 0.10879 0.0
O76 O 0.01426 0.56494 0.09195 0.0
O77 O 0.02929 0.58609 0.07005 0.0
O78 O 0.9662 0.56699 0.09951 0.0
O79 O 0.98113 0.58539 0.07519 0.0
O80 O 0.00146 0.62867 0.08375 0.0
O81 O 0.98358 0.61275 0.10794 0.0
C82 C 0.02755 0.56817 0.07778 0.0
C83 C 0.98831 0.62921 0.09825 0.0
C84 C 0.83892 0.73125 0.16847 0.0
C85 C 0.87637 0.79248 0.1496 0.0
O86 O 0.85407 0.73452 0.18067 0.0
Zn87 Zn 0.8781 0.75695 0.18384 0.0
O88 O 0.83564 0.74348 0.15362 0.0
Zn89 Zn 0.85787 0.76186 0.15909 0.0
O90 O 0.88466 0.74355 0.15181 0.0
O91 O 0.90272 0.74102 0.18038 0.0
O92 O 0.86072 0.78475 0.14088 0.0
O93 O 0.88412 0.78375 0.16551 0.0
O94 O 0.87283 0.76821 0.21059 0.0
O95 O 0.84885 0.77606 0.1879 0.0
C96 C 0.90054 0.73686 0.16143 0.0
C97 C 0.85601 0.77715 0.20628 0.0
C98 C 0.98107 0.88057 0.08596 0.0
C99 C 0.03759 0.90755 0.04617 0.0
O100 O 0.98645 0.8758 0.06779 0.0
Zn101 Zn 0.01028 0.8928 0.06706 0.0
O102 O 0.99196 0.89325 0.09646 0.0
Zn103 Zn 0.01947 0.91151 0.0919 0.0
O104 O 0.00822 0.93892 0.09586 0.0
O105 O 0.9959 0.92256 0.06876 0.0
O106 O 0.03729 0.91568 0.06416 0.0
O107 O 0.02511 0.89321 0.04193 0.0
O108 O 0.02988 0.87764 0.08848 0.0
O109 O 0.03794 0.90007 0.11252 0.0
C110 C 0.99616 0.93843 0.08045 0.0
C111 C 0.03917 0.88197 0.10528 0.0
C112 C 0.27528 0.15373 0.27854 0.0
C113 C 0.32576 0.1141 0.23993 0.0
O114 O 0.29327 0.1618 0.27961 0.0
Zn115 Zn 0.32363 0.155 0.2678 0.0
O116 O 0.27279 0.13722 0.26843 0.0
Zn117 Zn 0.30059 0.13404 0.25913 0.0
O118 O 0.31724 0.12623 0.2866 0.0
O119 O 0.33997 0.15085 0.29205 0.0
O120 O 0.30657 0.11097 0.24177 0.0
O121 O 0.33391 0.12982 0.24862 0.0
O122 O 0.32956 0.17875 0.25129 0.0
O123 O 0.30451 0.15971 0.23865 0.0
C124 C 0.33197 0.13382 0.2973 0.0
C125 C 0.31609 0.17563 0.23749 0.0
C126 C 0.39674 0.39444 0.973 0.0
C127 C 0.45602 0.41444 0.01431 0.0
O128 O 0.41501 0.3876 0.97282 0.0
Zn129 Zn 0.42621 0.4051 0.99377 0.0
O130 O 0.3921 0.40919 0.98528 0.0
Zn131 Zn 0.40845 0.42731 0.00804 0.0
O132 O 0.40604 0.45448 0.99815 0.0
O133 O 0.42708 0.43557 0.97952 0.0
O134 O 0.4401 0.42532 0.01862 0.0
O135 O 0.45477 0.40067 0.00056 0.0
O136 O 0.40979 0.39507 0.02155 0.0
O137 O 0.39364 0.42283 0.0325 0.0
C138 C 0.41835 0.45293 0.98316 0.0
C139 C 0.39806 0.40401 0.03475 0.0
C140 C 0.6959 0.412 0.24429 0.0
C141 C 0.75234 0.37213 0.27456 0.0
O142 O 0.68915 0.39781 0.25625 0.0
Zn143 Zn 0.70273 0.37436 0.27591 0.0
O144 O 0.71519 0.41457 0.24254 0.0
Zn145 Zn 0.72408 0.39289 0.26064 0.0
O146 O 0.71388 0.36568 0.24417 0.0
O147 O 0.69175 0.34966 0.26433 0.0
O148 O 0.75347 0.38779 0.26294 0.0
O149 O 0.7346 0.36587 0.28055 0.0
O150 O 0.69348 0.38093 0.30289 0.0
O151 O 0.7151 0.40405 0.29081 0.0
C152 C 0.70158 0.35059 0.24748 0.0
C153 C 0.70328 0.39759 0.30527 0.0
C154 C 0.5452 0.09629 0.0185 0.0
C155 C 0.60311 0.11325 0.97412 0.0
O156 O 0.54599 0.10937 0.00404 0.0
Zn157 Zn 0.57469 0.10535 0.99706 0.0
O158 O 0.56139 0.08605 0.02324 0.0
Zn159 Zn 0.59268 0.08388 0.01258 0.0
O160 O 0.60812 0.09059 0.03608 0.0
O161 O 0.59193 0.11752 0.02322 0.0
O162 O 0.60795 0.09951 0.98745 0.0
O163 O 0.58521 0.12107 0.97443 0.0
O164 O 0.57463 0.07427 0.9845 0.0
O165 O 0.59503 0.05605 0.00463 0.0
C166 C 0.60395 0.10958 0.03678 0.0
C167 C 0.5833 0.0571 0.9891 0.0
C168 C 0.31528 0.886 0.26771 0.0
C169 C 0.26911 0.84806 0.22322 0.0
O170 O 0.32458 0.87118 0.25858 0.0
Zn171 Zn 0.31703 0.84851 0.23546 0.0
O172 O 0.29666 0.88997 0.26338 0.0
Zn173 Zn 0.2927 0.8679 0.24426 0.0
O174 O 0.29733 0.84074 0.26324 0.0
O175 O 0.32339 0.82347 0.24994 0.0
O176 O 0.26544 0.86391 0.23401 0.0
O177 O 0.28749 0.8409 0.22239 0.0
O178 O 0.33377 0.85586 0.21197 0.0
O179 O 0.3091 0.8783 0.21768 0.0
C180 C 0.30952 0.82519 0.26362 0.0
C181 C 0.32448 0.87229 0.20695 0.0
C182 C 0.16089 0.42752 0.00708 0.0
C183 C 0.10291 0.43928 0.96061 0.0
O184 O 0.14419 0.41868 0.01247 0.0
Zn185 Zn 0.11355 0.4151 0.00242 0.0
O186 O 0.16145 0.43862 0.99097 0.0
Zn187 Zn 0.1326 0.43504 0.9833 0.0
O188 O 0.11592 0.45031 0.00675 0.0
O189 O 0.09751 0.42786 0.02432 0.0
O190 O 0.12057 0.44757 0.95882 0.0
O191 O 0.09914 0.42737 0.97583 0.0
O192 O 0.11303 0.38549 0.99669 0.0
O193 O 0.13236 0.40355 0.97522 0.0
C194 C 0.10303 0.44638 0.0211 0.0
C195 C 0.12481 0.38637 0.98106 0.0
C196 C 0.67692 0.60794 0.26405 0.0
C197 C 0.72864 0.64286 0.22348 0.0
O198 O 0.66864 0.62154 0.25237 0.0
Zn199 Zn 0.67954 0.64398 0.23043 0.0
O200 O 0.69628 0.60559 0.26393 0.0
Zn201 Zn 0.70288 0.62588 0.24392 0.0
O202 O 0.69694 0.65437 0.25948 0.0
O203 O 0.6723 0.67038 0.24263 0.0
O204 O 0.7313 0.62882 0.2368 0.0
O205 O 0.71047 0.6497 0.21988 0.0
O206 O 0.66655 0.63551 0.205 0.0
O207 O 0.69037 0.61386 0.21573 0.0
C208 C 0.6851 0.67 0.25741 0.0
C209 C 0.67686 0.6191 0.20234 0.0
C210 C 0.92042 0.08434 0.98963 0.0
C211 C 0.87279 0.10502 0.0438 0.0
O212 O 0.92199 0.09979 0.0015 0.0
Zn213 Zn 0.89731 0.0944 0.01727 0.0
O214 O 0.90517 0.072 0.99167 0.0
Zn215 Zn 0.8785 0.06874 0.01095 0.0
O216 O 0.85682 0.06984 0.99102 0.0
O217 O 0.87335 0.09928 0.99463 0.0
O218 O 0.86714 0.08842 0.03483 0.0
O219 O 0.88966 0.11344 0.03869 0.0
O220 O 0.90591 0.06665 0.0333 0.0
O221 O 0.88338 0.04298 0.02438 0.0
C222 C 0.85913 0.0886 0.98607 0.0
C223 C 0.89931 0.04809 0.03442 0.0
C224 C 0.23143 0.32894 0.1632 0.0
C225 C 0.29599 0.3432 0.12772 0.0
O226 O 0.23369 0.31797 0.14697 0.0
Zn227 Zn 0.256 0.3144 0.12285 0.0
O228 O 0.24498 0.34226 0.16773 0.0
Zn229 Zn 0.26354 0.33701 0.14518 0.0
O230 O 0.24766 0.34858 0.11875 0.0
O231 O 0.24165 0.32242 0.09805 0.0
O232 O 0.28911 0.35197 0.14378 0.0
O233 O 0.28523 0.32928 0.11883 0.0
O234 O 0.26413 0.286 0.12648 0.0
O235 O 0.27416 0.30646 0.15166 0.0
C236 C 0.24044 0.34156 0.10182 0.0
C237 C 0.27344 0.28854 0.14349 0.0
C238 C 0.27419 0.71341 0.36277 0.0
C239 C 0.23258 0.66443 0.40156 0.0
O240 O 0.27481 0.69524 0.35513 0.0
Zn241 Zn 0.26251 0.66536 0.36212 0.0
O242 O 0.26441 0.7165 0.3794 0.0
Zn243 Zn 0.25448 0.68877 0.38327 0.0
O244 O 0.28144 0.67142 0.39153 0.0
O245 O 0.28638 0.64855 0.367 0.0
O246 O 0.2357 0.6833 0.4056 0.0
O247 O 0.24172 0.65611 0.38619 0.0
O248 O 0.24609 0.66018 0.33786 0.0
O249 O 0.23428 0.68536 0.35731 0.0
C250 C 0.29188 0.65647 0.38398 0.0
C251 C 0.23272 0.67405 0.34125 0.0
C252 C 0.9125 0.4725 0.88828 0.0
C253 C 0.92732 0.51168 0.94953 0.0
O254 O 0.90756 0.4696 0.9069 0.0
Zn255 Zn 0.92164 0.49219 0.91838 0.0
O256 O 0.92473 0.48736 0.8837 0.0
Zn257 Zn 0.94022 0.51146 0.90165 0.0
O258 O 0.96873 0.50673 0.89789 0.0
O259 O 0.95393 0.48308 0.91704 0.0
O260 O 0.93704 0.51928 0.93409 0.0
O261 O 0.91652 0.49569 0.94708 0.0
O262 O 0.90615 0.51854 0.90374 0.0
O263 O 0.93135 0.53586 0.88899 0.0
C264 C 0.97014 0.49048 0.90846 0.0
C265 C 0.91242 0.53403 0.89314 0.0
C266 C 0.76548 0.83204 0.31758 0.0
C267 C 0.70663 0.84957 0.36055 0.0
O268 O 0.76483 0.82136 0.33418 0.0
Zn269 Zn 0.74505 0.81846 0.36061 0.0
O270 O 0.75169 0.84547 0.31423 0.0
Zn271 Zn 0.73579 0.84071 0.3388 0.0
O272 O 0.75544 0.85211 0.36308 0.0
O273 O 0.76254 0.82599 0.38351 0.0
O274 O 0.71143 0.85718 0.3432 0.0
O275 O 0.71758 0.83507 0.36822 0.0
O276 O 0.73574 0.79033 0.35831 0.0
O277 O 0.72405 0.81006 0.33334 0.0
C278 C 0.7642 0.845 0.37928 0.0
C279 C 0.72539 0.79228 0.34185 0.0
C280 C 0.60125 0.5226 0.36686 0.0
C281 C 0.57805 0.46682 0.41167 0.0
O282 O 0.60841 0.52329 0.38519 0.0
Zn283 Zn 0.6066 0.50718 0.41347 0.0
O284 O 0.58837 0.50868 0.36203 0.0
Zn285 Zn 0.58796 0.4949 0.38871 0.0
O286 O 0.57286 0.51643 0.40798 0.0
O287 O 0.59406 0.52688 0.43229 0.0
O288 O 0.57178 0.47005 0.3934 0.0
O289 O 0.59058 0.47943 0.42014 0.0
O290 O 0.63511 0.49851 0.4166 0.0
O291 O 0.61872 0.48344 0.39078 0.0
C292 C 0.5764 0.52745 0.4239 0.0
C293 C 0.63496 0.48589 0.40165 0.0
C294 C 0.27407 0.67852 0.67585 0.0
C295 C 0.22208 0.6518 0.62977 0.0
O296 O 0.27346 0.68874 0.65894 0.0
Zn297 Zn 0.25575 0.68779 0.6307 0.0
O298 O 0.26199 0.66342 0.67846 0.0
Zn299 Zn 0.2484 0.66525 0.65254 0.0
O300 O 0.27251 0.65681 0.63128 0.0
O301 O 0.27591 0.68284 0.60976 0.0
O302 O 0.22739 0.64526 0.64736 0.0
O303 O 0.23124 0.66742 0.62199 0.0
O304 O 0.2427 0.71419 0.63058 0.0
O305 O 0.23165 0.69397 0.65548 0.0
C306 C 0.28126 0.66501 0.61561 0.0
C307 C 0.23115 0.71133 0.64606 0.0
C308 C 0.88929 0.46114 0.61052 0.0
C309 C 0.94151 0.50699 0.58444 0.0
O310 O 0.90873 0.45987 0.61159 0.0
Zn311 Zn 0.91469 0.48398 0.59667 0.0
O312 O 0.88092 0.47587 0.60026 0.0
Zn313 Zn 0.89243 0.50211 0.58219 0.0
O314 O 0.88375 0.49644 0.55427 0.0
O315 O 0.90698 0.47469 0.56608 0.0
O316 O 0.92369 0.51282 0.57827 0.0
O317 O 0.94304 0.49108 0.59557 0.0
O318 O 0.9009 0.50729 0.61575 0.0
O319 O 0.87967 0.52492 0.59589 0.0
C320 C 0.895 0.48072 0.55163 0.0
C321 C 0.88779 0.52183 0.61339 0.0
C322 C 0.09108 0.04579 0.60651 0.0
C323 C 0.03387 0.00413 0.58277 0.0
O324 O 0.07198 0.0474 0.61006 0.0
Zn325 Zn 0.06304 0.02438 0.59423 0.0
O326 O 0.09754 0.03155 0.59443 0.0
Zn327 Zn 0.08313 0.00718 0.57644 0.0
O328 O 0.08942 0.01407 0.54845 0.0
O329 O 0.06701 0.03505 0.56277 0.0
O330 O 0.05088 0.99798 0.57475 0.0
O331 O 0.03409 0.01896 0.59541 0.0
O332 O 0.07722 0.99813 0.60993 0.0
O333 O 0.09674 0.98336 0.58647 0.0
C334 C 0.07756 0.02948 0.54702 0.0
C335 C 0.09001 0.98395 0.60475 0.0
C336 C 0.67292 0.73345 0.8208 0.0
C337 C 0.63033 0.79223 0.83731 0.0
O338 O 0.65694 0.73449 0.80928 0.0
Zn339 Zn 0.63108 0.75478 0.80519 0.0
O340 O 0.67624 0.74743 0.83403 0.0
Zn341 Zn 0.65229 0.76353 0.82799 0.0
O342 O 0.62777 0.74337 0.8382 0.0
O343 O 0.60861 0.73638 0.81105 0.0
O344 O 0.64787 0.78747 0.84441 0.0
O345 O 0.62252 0.78158 0.82265 0.0
O346 O 0.63452 0.76439 0.77729 0.0
O347 O 0.65925 0.77517 0.79774 0.0
C348 C 0.61228 0.73418 0.83014 0.0
C349 C 0.65123 0.77418 0.77974 0.0
C350 C 0.97279 0.07162 0.39952 0.0
C351 C 0.0088 0.13769 0.39296 0.0
O352 O 0.98957 0.07049 0.38921 0.0
Zn353 Zn 0.01383 0.09041 0.37927 0.0
O354 O 0.9669 0.08897 0.40641 0.0
Zn355 Zn 0.98986 0.10549 0.3969 0.0
O356 O 0.98573 0.1063 0.36485 0.0
O357 O 0.01177 0.0913 0.34902 0.0
O358 O 0.99156 0.13509 0.40189 0.0
O359 O 0.01809 0.12243 0.38473 0.0
O360 O 0.03739 0.07867 0.39389 0.0
O361 O 0.01487 0.09381 0.41436 0.0
C362 C 0.99483 0.10111 0.34825 0.0
C363 C 0.03179 0.08403 0.4119 0.0
C364 C 0.36216 0.73028 0.8538 0.0
C365 C 0.31322 0.78194 0.82975 0.0
O366 O 0.36919 0.74109 0.83886 0.0
Zn367 Zn 0.35895 0.76621 0.81989 0.0
O368 O 0.34418 0.73375 0.86063 0.0
Zn369 Zn 0.33763 0.75606 0.84219 0.0
O370 O 0.33586 0.74096 0.81264 0.0
O371 O 0.35971 0.75479 0.79282 0.0
O372 O 0.31081 0.76906 0.84424 0.0
O373 O 0.33027 0.78234 0.81988 0.0
O374 O 0.37827 0.78742 0.82587 0.0
O375 O 0.35883 0.77943 0.85254 0.0
C376 C 0.34511 0.74206 0.79523 0.0
C377 C 0.3735 0.78997 0.84462 0.0
C378 C 0.00881 0.41021 0.44283 0.0
C379 C 0.96659 0.35002 0.42747 0.0
O380 O 0.99688 0.41271 0.42733 0.0
Zn381 Zn 0.97421 0.3958 0.41035 0.0
O382 O 0.00853 0.39328 0.45265 0.0
Zn383 Zn 0.98812 0.37969 0.43572 0.0
O384 O 0.00419 0.37768 0.40752 0.0
O385 O 0.98682 0.39376 0.38311 0.0
O386 O 0.9806 0.35131 0.44105 0.0
O387 O 0.96291 0.36531 0.41558 0.0
O388 O 0.94989 0.41262 0.41474 0.0
O389 O 0.9607 0.39635 0.44264 0.0
C390 C 0.00247 0.3835 0.38881 0.0
C391 C 0.94772 0.40819 0.43368 0.0
C392 C 0.66327 0.21598 0.68818 0.0
C393 C 0.64483 0.26304 0.63227 0.0
O394 O 0.67102 0.21582 0.6702 0.0
Zn395 Zn 0.6548 0.23862 0.65889 0.0
O396 O 0.64925 0.22905 0.6926 0.0
Zn397 Zn 0.63265 0.2535 0.67934 0.0
O398 O 0.60432 0.24324 0.67958 0.0
O399 O 0.62442 0.2272 0.65732 0.0
O400 O 0.63514 0.26595 0.64916 0.0
O401 O 0.65787 0.2485 0.63065 0.0
O402 O 0.66602 0.26408 0.67583 0.0
O403 O 0.64186 0.2768 0.69606 0.0
C404 C 0.6067 0.22994 0.66542 0.0
C405 C 0.66021 0.27731 0.68919 0.0
C406 C 0.51081 0.13438 0.59385 0.0
C407 C 0.47082 0.09195 0.54734 0.0
O408 O 0.50838 0.13597 0.57455 0.0
Zn409 Zn 0.49119 0.11261 0.57054 0.0
O410 O 0.5025 0.11926 0.60347 0.0
Zn411 Zn 0.48316 0.09336 0.59535 0.0
O412 O 0.49976 0.06929 0.6016 0.0
O413 O 0.51131 0.08691 0.57504 0.0
O414 O 0.47021 0.08506 0.56583 0.0
O415 O 0.48134 0.10791 0.54331 0.0
O416 O 0.4635 0.12099 0.5863 0.0
O417 O 0.45865 0.09867 0.61139 0.0
C418 C 0.51279 0.07146 0.58719 0.0
C419 C 0.45276 0.11447 0.60147 0.0
C420 C 0.35338 0.2234 0.71931 0.0
C421 C 0.39218 0.27116 0.67581 0.0
O422 O 0.3713 0.2301 0.72359 0.0
Zn423 Zn 0.37339 0.24787 0.69928 0.0
O424 O 0.34398 0.22956 0.70318 0.0
Zn425 Zn 0.34813 0.2493 0.6775 0.0
O426 O 0.34673 0.22944 0.65504 0.0
O427 O 0.37312 0.22477 0.67606 0.0
O428 O 0.37415 0.26693 0.66915 0.0
O429 O 0.39811 0.26373 0.69292 0.0
O430 O 0.35053 0.2703 0.70618 0.0
O431 O 0.32621 0.269 0.68248 0.0
C432 C 0.36247 0.21913 0.6605 0.0
C433 C 0.3333 0.27665 0.69903 0.0
C434 C 0.52128 0.37896 0.52156 0.0
C435 C 0.48558 0.34726 0.57929 0.0
O436 O 0.50764 0.365 0.52085 0.0
Zn437 Zn 0.50359 0.36316 0.55028 0.0
O438 O 0.52688 0.3863 0.539 0.0
Zn439 Zn 0.51947 0.38218 0.57106 0.0
O440 O 0.54556 0.3744 0.58214 0.0
O441 O 0.53283 0.35111 0.56103 0.0
O442 O 0.49829 0.36106 0.58539 0.0
O443 O 0.48381 0.34366 0.56019 0.0
O444 O 0.48918 0.3924 0.55652 0.0
O445 O 0.50897 0.40888 0.57854 0.0
C446 C 0.54729 0.35723 0.57302 0.0
C447 C 0.49292 0.4084 0.56743 0.0
C448 C 0.78209 0.63773 0.77545 0.0
C449 C 0.82829 0.59981 0.73099 0.0
O450 O 0.80022 0.64547 0.77522 0.0
Zn451 Zn 0.82935 0.63884 0.7611 0.0
O452 O 0.77831 0.62158 0.76516 0.0
Zn453 Zn 0.80548 0.61806 0.75418 0.0
O454 O 0.82317 0.61011 0.78085 0.0
O455 O 0.84711 0.63384 0.78411 0.0
O456 O 0.81002 0.59521 0.73609 0.0
O457 O 0.83712 0.61546 0.73909 0.0
O458 O 0.834 0.66328 0.74533 0.0
O459 O 0.80824 0.64438 0.73383 0.0
C460 C 0.8386 0.61753 0.7906 0.0
C461 C 0.81976 0.66035 0.73228 0.0
C462 C 0.84703 0.93044 0.47422 0.0
C463 C 0.90422 0.95106 0.51956 0.0
O464 O 0.86409 0.92129 0.47088 0.0
Zn465 Zn 0.89441 0.91988 0.48239 0.0
O466 O 0.84563 0.94379 0.48849 0.0
Zn467 Zn 0.87441 0.94237 0.49774 0.0
O468 O 0.89086 0.95372 0.47213 0.0
O469 O 0.91086 0.92971 0.45887 0.0
O470 O 0.88637 0.95919 0.51992 0.0
O471 O 0.90814 0.93681 0.50657 0.0
O472 O 0.89477 0.89159 0.49357 0.0
O473 O 0.87506 0.91291 0.51123 0.0
C474 C 0.90417 0.94816 0.45876 0.0
C475 C 0.88282 0.89503 0.50873 0.0
C476 C 0.16549 0.83042 0.71646 0.0
C477 C 0.14141 0.87889 0.76814 0.0
O478 O 0.17684 0.84651 0.71747 0.0
Zn479 Zn 0.1777 0.87463 0.73478 0.0
O480 O 0.14978 0.82899 0.72797 0.0
Zn481 Zn 0.15316 0.85492 0.74203 0.0
O482 O 0.14642 0.87773 0.71863 0.0
O483 O 0.17506 0.89528 0.71394 0.0
O484 O 0.1336 0.86172 0.76311 0.0
O485 O 0.15762 0.88531 0.75889 0.0
O486 O 0.20373 0.87266 0.74847 0.0
O487 O 0.18125 0.84973 0.75935 0.0
C488 C 0.15634 0.89211 0.70942 0.0
C489 C 0.19934 0.85763 0.76013 0.0
C490 C 0.12936 0.57277 0.53685 0.0
C491 C 0.09971 0.5258 0.48734 0.0
O492 O 0.13323 0.55386 0.53403 0.0
Zn493 Zn 0.11546 0.55011 0.51097 0.0
O494 O 0.11625 0.58193 0.52525 0.0
Zn495 Zn 0.09662 0.57363 0.49964 0.0
O496 O 0.06964 0.57904 0.51039 0.0
O497 O 0.08542 0.55283 0.52514 0.0
O498 O 0.09195 0.54387 0.48553 0.0
O499 O 0.11457 0.52294 0.49965 0.0
O500 O 0.12972 0.56915 0.48773 0.0
O501 O 0.10606 0.59148 0.4782 0.0
C502 C 0.06954 0.56444 0.52337 0.0
C503 C 0.12426 0.58462 0.47673 0.0
C504 C 0.83055 0.39297 0.78526 0.0
C505 C 0.77702 0.35826 0.74673 0.0
O506 O 0.83832 0.37835 0.77453 0.0
Zn507 Zn 0.82625 0.35552 0.75347 0.0
O508 O 0.81138 0.3964 0.78434 0.0
Zn509 Zn 0.80415 0.37543 0.76524 0.0
O510 O 0.80867 0.34712 0.78241 0.0
O511 O 0.83296 0.32987 0.76622 0.0
O512 O 0.77545 0.37359 0.75868 0.0
O513 O 0.79479 0.35028 0.74333 0.0
O514 O 0.84022 0.36083 0.72846 0.0
O515 O 0.81787 0.38511 0.73625 0.0
C516 C 0.82009 0.33108 0.78081 0.0
C517 C 0.83146 0.37766 0.72399 0.0
C518 C 0.62518 0.91682 0.47115 0.0
C519 C 0.59537 0.95872 0.52572 0.0
O520 O 0.62943 0.93534 0.47575 0.0
Zn521 Zn 0.61126 0.93723 0.49904 0.0
O522 O 0.61212 0.9068 0.48206 0.0
Zn523 Zn 0.59258 0.91253 0.50847 0.0
O524 O 0.56576 0.90783 0.49683 0.0
O525 O 0.58193 0.93468 0.48376 0.0
O526 O 0.58789 0.94047 0.52571 0.0
O527 O 0.60953 0.96322 0.51307 0.0
O528 O 0.62556 0.9166 0.52065 0.0
O529 O 0.60257 0.89282 0.52807 0.0
C530 C 0.56623 0.92275 0.48421 0.0
C531 C 0.62052 0.90014 0.5303 0.0
C532 C 0.23147 0.1405 0.73599 0.0
C533 C 0.17067 0.10888 0.76472 0.0
O534 O 0.21523 0.15102 0.73209 0.0
Zn535 Zn 0.18247 0.14732 0.73599 0.0
O536 O 0.22971 0.12247 0.74325 0.0
Zn537 Zn 0.20026 0.12306 0.7472 0.0
O538 O 0.18684 0.11681 0.71763 0.0
O539 O 0.17025 0.14499 0.70917 0.0
O540 O 0.18873 0.10154 0.76366 0.0
O541 O 0.16624 0.12561 0.75524 0.0
O542 O 0.17671 0.17201 0.75067 0.0
O543 O 0.19656 0.14997 0.7674 0.0
C544 C 0.17549 0.12673 0.70491 0.0
C545 C 0.18724 0.16742 0.76651 0.0
C546 C 0.39106 0.59098 0.53775 0.0
C547 C 0.4496 0.57571 0.494 0.0
O548 O 0.40927 0.59786 0.5388 0.0
Zn549 Zn 0.42047 0.58244 0.51623 0.0
O550 O 0.38667 0.57695 0.5246 0.0
Zn551 Zn 0.40329 0.55973 0.50156 0.0
O552 O 0.40332 0.53197 0.51132 0.0
O553 O 0.42439 0.55182 0.52881 0.0
O554 O 0.43416 0.5641 0.48997 0.0
O555 O 0.44822 0.589 0.50823 0.0
O556 O 0.40202 0.59262 0.48972 0.0
O557 O 0.38733 0.5645 0.47762 0.0
C558 C 0.41674 0.53397 0.5253 0.0
C559 C 0.39027 0.58375 0.47648 0.0
C560 C 0.73093 0.81769 0.59945 0.0
C561 C 0.77593 0.76857 0.63348 0.0
O562 O 0.74267 0.82638 0.61273 0.0
Zn563 Zn 0.76676 0.81715 0.63365 0.0
O564 O 0.73276 0.79855 0.59604 0.0
Zn565 Zn 0.7544 0.79331 0.61544 0.0
O566 O 0.73883 0.7989 0.64427 0.0
O567 O 0.75491 0.82418 0.66016 0.0
O568 O 0.76336 0.76528 0.61889 0.0
O569 O 0.77861 0.78697 0.64003 0.0
O570 O 0.79062 0.83203 0.62412 0.0
O571 O 0.78073 0.80836 0.60203 0.0
C572 C 0.74054 0.81091 0.65982 0.0
C573 C 0.79313 0.82286 0.60706 0.0
C574 C 0.77052 0.15096 0.87643 0.0
C575 C 0.72917 0.16918 0.81718 0.0
O576 O 0.75975 0.16708 0.8802 0.0
Zn577 Zn 0.73779 0.18558 0.86314 0.0
O578 O 0.76938 0.14254 0.85889 0.0
Zn579 Zn 0.74959 0.16076 0.84718 0.0
O580 O 0.76637 0.18971 0.8432 0.0
O581 O 0.75 0.21192 0.86284 0.0
O582 O 0.74159 0.15433 0.81951 0.0
O583 O 0.7262 0.18182 0.83206 0.0
O584 O 0.71363 0.18435 0.87916 0.0
O585 O 0.72199 0.1544 0.86563 0.0
C586 C 0.76446 0.20802 0.85041 0.0
C587 C 0.71 0.16537 0.87692 0.0
C588 C 0.38993 0.96426 0.37653 0.0
C589 C 0.41548 0.00877 0.43091 0.0
O590 O 0.38417 0.96475 0.39518 0.0
Zn591 Zn 0.40339 0.98538 0.40457 0.0
O592 O 0.40526 0.97515 0.37069 0.0
Zn593 Zn 0.42652 0.99607 0.38435 0.0
O594 O 0.45278 0.98253 0.38363 0.0
O595 O 0.43208 0.96936 0.40698 0.0
O596 O 0.42596 0.00994 0.41425 0.0
O597 O 0.40067 0.99607 0.43223 0.0
O598 O 0.39579 0.01245 0.38645 0.0
O599 O 0.42315 0.01994 0.36765 0.0
C600 C 0.44971 0.96989 0.39817 0.0
C601 C 0.40489 0.02406 0.37329 0.0
C602 C 0.26919 0.32136 0.8279 0.0
C603 C 0.22301 0.33026 0.88582 0.0
O604 O 0.27237 0.30786 0.84195 0.0
Zn605 Zn 0.26174 0.30227 0.87308 0.0
O606 O 0.25708 0.33626 0.83137 0.0
Zn607 Zn 0.24819 0.32727 0.85827 0.0
O608 O 0.27343 0.3357 0.87821 0.0
O609 O 0.28527 0.30645 0.89037 0.0
O610 O 0.22493 0.34111 0.86971 0.0
O611 O 0.23584 0.31566 0.88929 0.0
O612 O 0.25258 0.27453 0.87029 0.0
O613 O 0.23509 0.29697 0.85166 0.0
C614 C 0.2864 0.32586 0.88938 0.0
C615 C 0.23841 0.27833 0.85736 0.0
C616 C 0.08492 0.03754 0.86863 0.0
C617 C 0.07339 0.99003 0.9248 0.0
O618 O 0.09357 0.03714 0.88612 0.0
Zn619 Zn 0.0778 0.01502 0.89759 0.0
O620 O 0.06964 0.02564 0.86498 0.0
Zn621 Zn 0.05257 0.00274 0.88169 0.0
O622 O 0.02566 0.01418 0.88587 0.0
O623 O 0.04894 0.02914 0.90529 0.0
O624 O 0.06001 0.98798 0.91044 0.0
O625 O 0.0867 0.00427 0.9237 0.0
O626 O 0.08429 0.98941 0.87672 0.0
O627 O 0.05447 0.97995 0.86338 0.0
C628 C 0.03018 0.02728 0.89956 0.0
C629 C 0.07382 0.97759 0.86482 0.0
C630 C 0.76401 0.1788 0.12369 0.0
C631 C 0.72159 0.22969 0.15749 0.0
O632 O 0.75263 0.17026 0.13742 0.0
Zn633 Zn 0.72879 0.18071 0.15865 0.0
O634 O 0.76185 0.19781 0.1199 0.0
Zn635 Zn 0.74111 0.20341 0.13972 0.0
O636 O 0.75729 0.19757 0.16844 0.0
O637 O 0.74014 0.17319 0.18478 0.0
O638 O 0.73348 0.2316 0.14216 0.0
O639 O 0.71835 0.21175 0.16507 0.0
O640 O 0.70455 0.16628 0.15071 0.0
O641 O 0.71394 0.189 0.12745 0.0
C642 C 0.75512 0.18569 0.18409 0.0
C643 C 0.70148 0.17499 0.13355 0.0
C644 C 0.38985 0.97407 0.11585 0.0
C645 C 0.42819 0.03449 0.0916 0.0
O646 O 0.40635 0.97798 0.12582 0.0
Zn647 Zn 0.43042 -8e-05 0.12695 0.0
O648 O 0.38402 0.98598 0.10142 0.0
Zn649 Zn 0.4072 0.00515 0.1032 0.0
O650 O 0.43249 0.98649 0.09467 0.0
O651 O 0.45413 0.98236 0.12068 0.0
O652 O 0.4112 0.0282 0.08412 0.0
O653 O 0.43599 0.02528 0.10717 0.0
O654 O 0.42635 0.01315 0.15369 0.0
O655 O 0.40123 0.01947 0.13171 0.0
C656 C 0.44908 0.97893 0.10206 0.0
C657 C 0.40912 0.02151 0.14962 0.0
C658 C 0.581 0.46561 0.08472 0.0
C659 C 0.62958 0.5209 0.10163 0.0
O660 O 0.57523 0.47771 0.09913 0.0
Zn661 Zn 0.5855 0.50366 0.11583 0.0
O662 O 0.59878 0.46782 0.07678 0.0
Zn663 Zn 0.60731 0.49192 0.09277 0.0
O664 O 0.61224 0.48105 0.12292 0.0
O665 O 0.58901 0.49337 0.14434 0.0
O666 O 0.63328 0.50679 0.08854 0.0
O667 O 0.61287 0.52077 0.11198 0.0
O668 O 0.56529 0.52468 0.10685 0.0
O669 O 0.58592 0.51392 0.08213 0.0
C670 C 0.60507 0.48257 0.14118 0.0
C671 C 0.57099 0.52525 0.08807 0.0
H672 H 0.19911 0.30256 0.15741 0.0
H673 H 0.16237 0.3097 0.27417 0.0
H674 H 0.22435 0.3453 0.20146 0.0
H675 H 0.13252 0.27123 0.2291 0.0
H676 H 0.18356 0.32449 0.24707 0.0
H677 H 0.17304 0.29263 0.18255 0.0
C678 C 0.19905 0.31004 0.17229 0.0
C679 C 0.21409 0.32469 0.17737 0.0
C680 C 0.17228 0.31294 0.24302 0.0
C681 C 0.18431 0.31321 0.20632 0.0
C682 C 0.16016 0.30444 0.25852 0.0
C683 C 0.14573 0.28904 0.25394 0.0
C684 C 0.17016 0.30592 0.22273 0.0
C685 C 0.14347 0.283 0.23334 0.0
C686 C 0.18414 0.30433 0.18665 0.0
C687 C 0.21315 0.33389 0.19687 0.0
N688 N 0.15572 0.29131 0.21852 0.0
N689 N 0.19866 0.32785 0.21068 0.0
H690 H 0.54571 0.55954 0.09312 0.0
H691 H 0.54247 0.57965 0.97119 0.0
H692 H 0.57412 0.52133 0.04684 0.0
H693 H 0.51014 0.61857 0.01416 0.0
H694 H 0.55542 0.55941 0.99981 0.0
H695 H 0.5327 0.58213 0.06544 0.0
C696 C 0.54908 0.55582 0.07724 0.0
C697 C 0.56116 0.53859 0.07235 0.0
C698 C 0.54557 0.57242 0.00309 0.0
C699 C 0.54661 0.56429 0.04083 0.0
C700 C 0.53825 0.58409 0.98668 0.0
C701 C 0.52515 0.60083 0.99021 0.0
C702 C 0.53975 0.57738 0.02333 0.0
C703 C 0.52024 0.60579 0.01071 0.0
C704 C 0.54177 0.56875 0.06148 0.0
C705 C 0.5651 0.53453 0.0515 0.0
N706 N 0.52744 0.59403 0.02652 0.0
N707 N 0.55794 0.54724 0.03665 0.0
H708 H 0.81189 0.19865 0.30384 0.0
H709 H 0.79362 0.20184 0.18319 0.0
H710 H 0.85973 0.20928 0.25903 0.0
H711 H 0.75033 0.17222 0.22387 0.0
H712 H 0.8176 0.20518 0.21169 0.0
H713 H 0.78864 0.18855 0.27572 0.0
C714 C 0.81758 0.19856 0.28819 0.0
C715 C 0.83765 0.20514 0.28372 0.0
C716 C 0.80293 0.19779 0.21442 0.0
C717 C 0.81128 0.1939 0.25173 0.0
C718 C 0.78919 0.19599 0.19815 0.0
C719 C 0.76995 0.18683 0.2012 0.0
C720 C 0.79733 0.19068 0.23404 0.0
C721 C 0.76506 0.17937 0.22089 0.0
C722 C 0.80433 0.19285 0.27218 0.0
C723 C 0.84427 0.2047 0.26319 0.0
N724 N 0.77861 0.18165 0.23669 0.0
N725 N 0.83108 0.19943 0.248 0.0
H726 H 0.47687 0.94088 0.98244 0.0
H727 H 0.46059 0.9383 0.10334 0.0
H728 H 0.49377 0.88728 0.01785 0.0
H729 H 0.46548 0.99374 0.06741 0.0
H730 H 0.47275 0.91841 0.0734 0.0
H731 H 0.47064 0.95948 0.01423 0.0
C732 C 0.47907 0.93292 0.99692 0.0
C733 C 0.48582 0.91246 0.99745 0.0
C734 C 0.47166 0.93499 0.0723 0.0
C735 C 0.47892 0.93385 0.03411 0.0
C736 C 0.46502 0.94631 0.08942 0.0
C737 C 0.46228 0.96761 0.08773 0.0
C738 C 0.47518 0.94518 0.05353 0.0
C739 C 0.46757 0.97731 0.06926 0.0
C740 C 0.47573 0.94364 0.01511 0.0
C741 C 0.48855 0.90304 0.01674 0.0
N742 N 0.4735 0.96602 0.05281 0.0
N743 N 0.48502 0.91381 0.03436 0.0
H744 H 0.19938 0.69891 0.34676 0.0
H745 H 0.162 0.6901 0.23035 0.0
H746 H 0.22735 0.6582 0.30241 0.0
H747 H 0.13143 0.72739 0.27599 0.0
H748 H 0.18438 0.67628 0.25707 0.0
H749 H 0.1729 0.70755 0.32171 0.0
C750 C 0.1999 0.69168 0.33176 0.0
C751 C 0.21575 0.67794 0.32661 0.0
C752 C 0.17267 0.68734 0.2613 0.0
C753 C 0.18541 0.68788 0.29776 0.0
C754 C 0.15986 0.69527 0.24604 0.0
C755 C 0.14492 0.7101 0.25091 0.0
C756 C 0.17066 0.69437 0.2816 0.0
C757 C 0.14279 0.71607 0.27152 0.0
C758 C 0.18472 0.69661 0.31747 0.0
C759 C 0.21549 0.66892 0.30701 0.0
N760 N 0.15566 0.70832 0.28608 0.0
N761 N 0.20066 0.6742 0.29323 0.0
H762 H 0.95229 0.59501 0.04852 0.0
H763 H 0.91719 0.49492 0.98685 0.0
H764 H 0.9495 0.5351 0.07679 0.0
H765 H 0.94036 0.5505 0.95894 0.0
H766 H 0.9207 0.51094 0.02081 0.0
H767 H 0.93807 0.58058 0.017 0.0
C768 C 0.94813 0.57888 0.04824 0.0
C769 C 0.95227 0.56614 0.06515 0.0
C770 C 0.92484 0.51963 0.00722 0.0
C771 C 0.93651 0.54943 0.02895 0.0
C772 C 0.92287 0.51054 0.98785 0.0
C773 C 0.92869 0.52135 0.97005 0.0
C774 C 0.93238 0.53977 0.00874 0.0
C775 C 0.93592 0.54152 0.97225 0.0
C776 C 0.9402 0.57062 0.03019 0.0
C777 C 0.94651 0.5454 0.06406 0.0
N778 N 0.93757 0.55006 0.99123 0.0
N779 N 0.93923 0.53755 0.04604 0.0
H780 H 0.82179 0.80138 0.20175 0.0
H781 H 0.80034 0.80898 0.32209 0.0
H782 H 0.86345 0.77775 0.24776 0.0
H783 H 0.76628 0.84395 0.27709 0.0
H784 H 0.82398 0.79795 0.29511 0.0
H785 H 0.80148 0.81749 0.22899 0.0
C786 C 0.82674 0.79967 0.21757 0.0
C787 C 0.8443 0.78808 0.22248 0.0
C788 C 0.81147 0.80821 0.29115 0.0
C789 C 0.82103 0.8064 0.25375 0.0
C790 C 0.79795 0.81451 0.30656 0.0
C791 C 0.78122 0.82733 0.30183 0.0
C792 C 0.80813 0.81452 0.27076 0.0
C793 C 0.77895 0.83407 0.28143 0.0
C794 C 0.81516 0.80892 0.23311 0.0
C795 C 0.85001 0.78648 0.24324 0.0
N796 N 0.79211 0.82739 0.2666 0.0
N797 N 0.83831 0.79538 0.25811 0.0
H798 H 0.05653 0.95186 0.92614 0.0
H799 H 0.06045 0.94307 0.04709 0.0
H800 H 0.0895 0.99571 0.96344 0.0
H801 H 0.04265 0.89318 0.00708 0.0
H802 H 0.07414 0.96149 0.01725 0.0
H803 H 0.05353 0.9293 0.95584 0.0
C804 C 0.06323 0.9567 0.94061 0.0
C805 C 0.07304 0.97578 0.94243 0.0
C806 C 0.0676 0.94634 0.01509 0.0
C807 C 0.06956 0.95004 0.97663 0.0
C808 C 0.05983 0.93578 0.03213 0.0
C809 C 0.05002 0.91673 0.02951 0.0
C810 C 0.06535 0.93781 0.99537 0.0
C811 C 0.04974 0.90799 0.00979 0.0
C812 C 0.06163 0.94374 0.95756 0.0
C813 C 0.08171 0.98114 0.96146 0.0
N814 N 0.05696 0.91874 0.99345 0.0
N815 N 0.07948 0.96845 0.97796 0.0
H816 H 0.23459 0.14326 0.2756 0.0
H817 H 0.19442 0.24452 0.33303 0.0
H818 H 0.27507 0.18857 0.30231 0.0
H819 H 0.1564 0.20601 0.29463 0.0
H820 H 0.22332 0.22104 0.32722 0.0
H821 H 0.20507 0.16297 0.28786 0.0
C822 C 0.2373 0.15724 0.28423 0.0
C823 C 0.25737 0.16437 0.28775 0.0
C824 C 0.20859 0.21767 0.32022 0.0
C825 C 0.22357 0.18705 0.30179 0.0
C826 C 0.19206 0.23101 0.3236 0.0
C827 C 0.173 0.22733 0.31415 0.0
C828 C 0.20598 0.20046 0.30743 0.0
C829 C 0.17086 0.20957 0.30207 0.0
C830 C 0.22042 0.16852 0.29118 0.0
C831 C 0.25988 0.18258 0.29909 0.0
N832 N 0.18716 0.19687 0.29899 0.0
N833 N 0.24318 0.19336 0.30561 0.0
H834 H 0.48385 0.54556 0.91411 0.0
H835 H 0.40087 0.49091 0.98619 0.0
H836 H 0.44677 0.57731 0.95913 0.0
H837 H 0.44807 0.45763 0.95339 0.0
H838 H 0.4128 0.52271 0.97049 0.0
H839 H 0.46626 0.5135 0.92281 0.0
C840 C 0.47184 0.54586 0.92565 0.0
C841 C 0.4669 0.56411 0.93608 0.0
C842 C 0.42044 0.50844 0.96658 0.0
C843 C 0.44676 0.5275 0.94602 0.0
C844 C 0.41362 0.49023 0.9755 0.0
C845 C 0.4237 0.47159 0.97134 0.0
C846 C 0.43747 0.50808 0.95337 0.0
C847 C 0.43996 0.47167 0.95716 0.0
C848 C 0.46187 0.52753 0.93062 0.0
C849 C 0.4512 0.56357 0.95084 0.0
N850 N 0.4465 0.48971 0.94882 0.0
N851 N 0.44177 0.54553 0.95545 0.0
H852 H 0.83396 0.28359 0.32967 0.0
H853 H 0.79119 0.37395 0.25757 0.0
H854 H 0.86582 0.30276 0.27468 0.0
H855 H 0.75609 0.34321 0.30476 0.0
H856 H 0.82087 0.35204 0.26606 0.0
H857 H 0.80798 0.30965 0.32343 0.0
C858 C 0.83562 0.2934 0.3163 0.0
C859 C 0.85207 0.29075 0.30256 0.0
C860 C 0.80669 0.35024 0.27461 0.0
C861 C 0.82196 0.32084 0.29521 0.0
C862 C 0.78978 0.36278 0.26985 0.0
C863 C 0.77106 0.36038 0.28042 0.0
C864 C 0.80493 0.33537 0.2902 0.0
C865 C 0.77012 0.34558 0.2961 0.0
C866 C 0.82067 0.30831 0.31273 0.0
C867 C 0.85339 0.30419 0.28566 0.0
N868 N 0.78674 0.33369 0.30047 0.0
N869 N 0.83842 0.31857 0.28235 0.0
H870 H 0.52222 0.96698 0.91502 0.0
H871 H 0.59933 0.01871 0.99481 0.0
H872 H 0.55625 0.9334 0.96117 0.0
H873 H 0.55761 0.05285 0.95595 0.0
H874 H 0.58933 0.98718 0.97727 0.0
H875 H 0.54091 0.99808 0.92439 0.0
C876 C 0.53384 0.96606 0.92692 0.0
C877 C 0.53741 0.94765 0.93762 0.0
C878 C 0.58251 0.00159 0.97244 0.0
C879 C 0.55873 0.98321 0.94844 0.0
C880 C 0.58819 0.01962 0.98246 0.0
C881 C 0.57899 0.03839 0.97708 0.0
C882 C 0.5675 0.00233 0.95697 0.0
C883 C 0.56488 0.03866 0.96078 0.0
C884 C 0.54447 0.98385 0.93227 0.0
C885 C 0.55281 0.94733 0.95272 0.0
N886 N 0.55938 0.02083 0.95143 0.0
N887 N 0.56273 0.96493 0.95787 0.0
H888 H 0.1931 0.7516 0.17244 0.0
H889 H 0.22827 0.85815 0.22287 0.0
H890 H 0.15301 0.79279 0.20564 0.0
H891 H 0.27109 0.81244 0.20075 0.0
H892 H 0.19993 0.83721 0.21013 0.0
H893 H 0.22122 0.77647 0.17652 0.0
C894 C 0.19016 0.76596 0.18034 0.0
C895 C 0.17081 0.77003 0.18897 0.0
C896 C 0.21554 0.83183 0.20789 0.0
C897 C 0.20269 0.79844 0.1936 0.0
C898 C 0.23174 0.84382 0.21513 0.0
C899 C 0.25208 0.8369 0.21315 0.0
C900 C 0.21965 0.81276 0.19864 0.0
C901 C 0.25563 0.81827 0.2028 0.0
C902 C 0.20619 0.7801 0.18271 0.0
C903 C 0.16778 0.78887 0.19902 0.0
N904 N 0.23955 0.80672 0.19612 0.0
N905 N 0.18357 0.8023 0.20115 0.0
H906 H 0.07187 0.44578 0.04989 0.0
H907 H 0.05919 0.56834 0.04957 0.0
H908 H 0.11255 0.48702 0.01743 0.0
H909 H 0.0246 0.52798 0.08937 0.0
H910 H 0.07894 0.53861 0.0375 0.0
H911 H 0.05448 0.47567 0.06492 0.0
C912 C 0.07729 0.46106 0.0461 0.0
C913 C 0.09362 0.46385 0.0323 0.0
C914 C 0.06708 0.5363 0.04895 0.0
C915 C 0.07369 0.49809 0.04918 0.0
C916 C 0.05579 0.55328 0.0558 0.0
C917 C 0.04019 0.55069 0.07047 0.0
C918 C 0.06265 0.51659 0.05672 0.0
C919 C 0.03647 0.53077 0.07804 0.0
C920 C 0.06733 0.47813 0.05462 0.0
C921 C 0.09996 0.48406 0.0279 0.0
N922 N 0.04753 0.51451 0.07102 0.0
N923 N 0.0899 0.50035 0.03618 0.0
H924 H 0.80276 0.72246 0.14881 0.0
H925 H 0.76972 0.63801 0.23172 0.0
H926 H 0.84225 0.70143 0.19793 0.0
H927 H 0.72763 0.66821 0.19012 0.0
H928 H 0.79831 0.6559 0.21503 0.0
H929 H 0.77708 0.69716 0.15922 0.0
C930 C 0.80615 0.71236 0.16162 0.0
C931 C 0.82452 0.71428 0.17274 0.0
C932 C 0.78282 0.65844 0.20946 0.0
C933 C 0.79519 0.68541 0.18476 0.0
C934 C 0.76652 0.64823 0.21895 0.0
C935 C 0.74627 0.65189 0.21249 0.0
C936 C 0.77879 0.67229 0.19337 0.0
C937 C 0.74299 0.66518 0.1958 0.0
C938 C 0.79146 0.69795 0.16758 0.0
C939 C 0.82816 0.70067 0.1891 0.0
N940 N 0.75907 0.67501 0.18692 0.0
N941 N 0.81352 0.68693 0.19476 0.0
H942 H 0.89174 0.00682 0.03681 0.0
H943 H 0.99664 0.97841 0.09482 0.0
H944 H 0.93477 0.05322 0.05685 0.0
H945 H 0.96186 0.9366 0.05679 0.0
H946 H 0.97154 0.00564 0.08677 0.0
H947 H 0.91441 0.98039 0.05069 0.0
C948 C 0.90583 0.0115 0.04437 0.0
C949 C 0.91146 0.03228 0.04544 0.0
C950 C 0.96947 0.99046 0.08029 0.0
C951 C 0.93761 0.002 0.06126 0.0
C952 C 0.98374 0.97495 0.08486 0.0
C953 C 0.98145 0.95528 0.0763 0.0
C954 C 0.95269 0.98605 0.06738 0.0
C955 C 0.96442 0.95158 0.06355 0.0
C956 C 0.91883 0.99637 0.0522 0.0
C957 C 0.9299 0.03737 0.05553 0.0
N958 N 0.95074 0.96678 0.05953 0.0
N959 N 0.94242 0.02231 0.06293 0.0
H960 H 0.30163 0.29027 0.17435 0.0
H961 H 0.29087 0.17219 0.20396 0.0
H962 H 0.26681 0.24715 0.13787 0.0
H963 H 0.33374 0.21362 0.23315 0.0
H964 H 0.28312 0.19872 0.17851 0.0
H965 H 0.3148 0.26188 0.19488 0.0
C966 C 0.29685 0.27478 0.17057 0.0
C967 C 0.28293 0.27108 0.1545 0.0
C968 C 0.29438 0.20193 0.19035 0.0
C969 C 0.29789 0.23842 0.17811 0.0
C970 C 0.29879 0.18681 0.20493 0.0
C971 C 0.31283 0.19077 0.22085 0.0
C972 C 0.30392 0.22123 0.19182 0.0
C973 C 0.32273 0.20992 0.22122 0.0
C974 C 0.30444 0.25854 0.18228 0.0
C975 C 0.27747 0.25068 0.15016 0.0
N976 N 0.31792 0.2245 0.20706 0.0
N977 N 0.28477 0.2351 0.16209 0.0
H978 H 0.32808 0.78732 0.26608 0.0
H979 H 0.26843 0.75478 0.36895 0.0
H980 H 0.28542 0.82687 0.29807 0.0
H981 H 0.29975 0.71164 0.3294 0.0
H982 H 0.2794 0.78279 0.34632 0.0
H983 H 0.32236 0.76079 0.29218 0.0
C984 C 0.31761 0.79049 0.27864 0.0
C985 C 0.30708 0.8093 0.27978 0.0
C986 C 0.28401 0.7672 0.34271 0.0
C987 C 0.30055 0.77903 0.30974 0.0
C988 C 0.27787 0.75121 0.3557 0.0
C989 C 0.28303 0.7308 0.35099 0.0
C990 C 0.29552 0.76276 0.32496 0.0
C991 C 0.29526 0.72712 0.33355 0.0
C992 C 0.31433 0.77532 0.29352 0.0
C993 C 0.29373 0.81254 0.29646 0.0
N994 N 0.30098 0.74292 0.32113 0.0
N995 N 0.29082 0.79755 0.31074 0.0
H996 H 0.00762 0.50573 0.89708 0.0
H997 H 0.0695 0.41569 0.95289 0.0
H998 H 0.97927 0.45369 0.92702 0.0
H999 H 0.09701 0.47388 0.93683 0.0
H1000 H 0.03782 0.42627 0.93598 0.0
H1001 H 0.04144 0.49132 0.90482 0.0
C1002 C 0.00848 0.49115 0.90511 0.0
C1003 C 0.99055 0.48097 0.91161 0.0
C1004 C 0.05083 0.43666 0.93591 0.0
C1005 C 0.02926 0.46443 0.92038 0.0
C1006 C 0.06896 0.43062 0.9455 0.0
C1007 C 0.08578 0.4441 0.94655 0.0
C1008 C 0.0494 0.45639 0.92737 0.0
C1009 C 0.08435 0.46309 0.93643 0.0
C1010 C 0.02782 0.48299 0.90952 0.0
C1011 C 0.99264 0.46215 0.92189 0.0
N1012 N 0.06629 0.46883 0.9275 0.0
N1013 N 0.01166 0.45453 0.92604 0.0
H1014 H 0.72897 0.75167 0.35284 0.0
H1015 H 0.66931 0.70915 0.25349 0.0
H1016 H 0.70111 0.79116 0.3073 0.0
H1017 H 0.70664 0.67151 0.29346 0.0
H1018 H 0.67652 0.73888 0.27557 0.0
H1019 H 0.71655 0.72172 0.33384 0.0
C1020 C 0.72006 0.75408 0.33896 0.0
C1021 C 0.71622 0.77402 0.33162 0.0
C1022 C 0.683 0.72406 0.27956 0.0
C1023 C 0.70198 0.73968 0.30968 0.0
C1024 C 0.67882 0.70707 0.26701 0.0
C1025 C 0.68748 0.6878 0.27152 0.0
C1026 C 0.69582 0.72176 0.29683 0.0
C1027 C 0.69974 0.68606 0.28925 0.0
C1028 C 0.71303 0.73694 0.32807 0.0
C1029 C 0.70456 0.77611 0.31351 0.0
N1030 N 0.70358 0.70279 0.30117 0.0
N1031 N 0.69795 0.75918 0.30313 0.0
H1032 H 0.48863 0.58719 0.50547 0.0
H1033 H 0.53945 0.5356 0.40619 0.0
H1034 H 0.45483 0.55742 0.45675 0.0
H1035 H 0.574 0.54651 0.46183 0.0
H1036 H 0.50939 0.55097 0.42213 0.0
H1037 H 0.52086 0.57914 0.4874 0.0
C1038 C 0.48798 0.57921 0.49086 0.0
C1039 C 0.46905 0.57283 0.48263 0.0
C1040 C 0.52356 0.55015 0.43085 0.0
C1041 C 0.50567 0.56377 0.46197 0.0
C1042 C 0.5408 0.54139 0.42175 0.0
C1043 C 0.55923 0.53944 0.43281 0.0
C1044 C 0.52461 0.55706 0.45124 0.0
C1045 C 0.56006 0.54757 0.45281 0.0
C1046 C 0.50635 0.57457 0.48065 0.0
C1047 C 0.46907 0.56247 0.46374 0.0
N1048 N 0.54288 0.55586 0.4615 0.0
N1049 N 0.48707 0.55826 0.45409 0.0
H1050 H 0.20222 0.70984 0.67672 0.0
H1051 H 0.19271 0.83139 0.68456 0.0
H1052 H 0.23061 0.75152 0.63354 0.0
H1053 H 0.15287 0.79017 0.71799 0.0
H1054 H 0.20603 0.80223 0.66511 0.0
H1055 H 0.18328 0.73877 0.69155 0.0
C1056 C 0.20435 0.72503 0.67024 0.0
C1057 C 0.21816 0.72828 0.65396 0.0
C1058 C 0.19421 0.79955 0.67653 0.0
C1059 C 0.19665 0.76145 0.67096 0.0
C1060 C 0.18662 0.81621 0.68768 0.0
C1061 C 0.17175 0.81319 0.70302 0.0
C1062 C 0.18714 0.77964 0.68095 0.0
C1063 C 0.16433 0.79319 0.7063 0.0
C1064 C 0.19349 0.74153 0.67869 0.0
C1065 C 0.22021 0.74829 0.64613 0.0
N1066 N 0.1723 0.77711 0.69554 0.0
N1067 N 0.20975 0.76413 0.65484 0.0
H1068 H 0.03082 0.58076 0.51886 0.0
H1069 H 0.98095 0.49985 0.59688 0.0
H1070 H 0.06545 0.53688 0.55474 0.0
H1071 H 0.94489 0.53954 0.55767 0.0
H1072 H 0.01209 0.5166 0.58465 0.0
H1073 H 0.99933 0.56928 0.53604 0.0
C1074 C 0.03185 0.56891 0.53053 0.0
C1075 C 0.05077 0.55962 0.53524 0.0
C1076 C 0.99738 0.52176 0.57877 0.0
C1077 C 0.01485 0.54638 0.55482 0.0
C1078 C 0.97956 0.51218 0.58575 0.0
C1079 C 0.96027 0.51816 0.57813 0.0
C1080 C 0.996 0.53741 0.56397 0.0
C1081 C 0.95945 0.53436 0.56387 0.0
C1082 C 0.01386 0.56232 0.54026 0.0
C1083 C 0.05119 0.54435 0.55047 0.0
N1084 N 0.97709 0.54333 0.55711 0.0
N1085 N 0.0335 0.53813 0.5596 0.0
H1086 H 0.90765 0.98698 0.54236 0.0
H1087 H 0.02771 0.96863 0.56109 0.0
H1088 H 0.93996 0.931 0.52717 0.0
H1089 H 0.99483 0.01873 0.58962 0.0
H1090 H 0.99511 0.9549 0.54865 0.0
H1091 H 0.93866 0.99919 0.5604 0.0
C1092 C 0.9211 0.97716 0.54305 0.0
C1093 C 0.92127 0.95806 0.53301 0.0
C1094 C 0.99496 0.96882 0.55777 0.0
C1095 C 0.95669 0.97193 0.55331 0.0
C1096 C 0.01361 0.97669 0.56485 0.0
C1097 C 0.01404 0.99488 0.57639 0.0
C1098 C 0.97651 0.97933 0.56199 0.0
C1099 C 0.99522 0.00463 0.58081 0.0
C1100 C 0.9388 0.98414 0.55327 0.0
C1101 C 0.93915 0.94598 0.53439 0.0
N1102 N 0.97723 0.99685 0.57344 0.0
N1103 N 0.9561 0.95318 0.54412 0.0
H1104 H 0.74356 0.82715 0.69884 0.0
H1105 H 0.64144 0.77069 0.73886 0.0
H1106 H 0.70461 0.78926 0.66078 0.0
H1107 H 0.68655 0.79731 0.77962 0.0
H1108 H 0.66188 0.78207 0.70947 0.0
H1109 H 0.72042 0.82082 0.72798 0.0
C1110 C 0.73008 0.81766 0.69655 0.0
C1111 C 0.72612 0.80861 0.67735 0.0
C1112 C 0.66725 0.78555 0.72484 0.0
C1113 C 0.69957 0.80136 0.71057 0.0
C1114 C 0.65552 0.77912 0.74166 0.0
C1115 C 0.66232 0.78291 0.76179 0.0
C1116 C 0.68592 0.79593 0.72811 0.0
C1117 C 0.68074 0.79393 0.76439 0.0
C1118 C 0.71691 0.814 0.7132 0.0
C1119 C 0.7084 0.79643 0.67531 0.0
N1120 N 0.69193 0.79996 0.74777 0.0
N1121 N 0.69585 0.79314 0.69168 0.0
H1122 H 0.06036 0.05295 0.41709 0.0
H1123 H 0.05702 0.06536 0.53936 0.0
H1124 H 0.02994 0.1024 0.44923 0.0
H1125 H 0.09173 0.01757 0.50907 0.0
H1126 H 0.04985 0.08079 0.50597 0.0
H1127 H 0.07517 0.04144 0.44997 0.0
C1128 C 0.0571 0.06158 0.43096 0.0
C1129 C 0.04368 0.07847 0.43048 0.0
C1130 C 0.05919 0.06702 0.50658 0.0
C1131 C 0.06033 0.06539 0.46799 0.0
C1132 C 0.06328 0.05819 0.52569 0.0
C1133 C 0.07484 0.04005 0.52703 0.0
C1134 C 0.06652 0.05756 0.48856 0.0
C1135 C 0.08267 0.03153 0.50875 0.0
C1136 C 0.06546 0.05496 0.44972 0.0
C1137 C 0.03994 0.08908 0.44891 0.0
N1138 N 0.07817 0.04023 0.49025 0.0
N1139 N 0.04804 0.08227 0.46686 0.0
H1140 H 0.3178 0.71014 0.79604 0.0
H1141 H 0.3041 0.70799 0.6746 0.0
H1142 H 0.35566 0.74561 0.7546 0.0
H1143 H 0.27532 0.66421 0.7154 0.0
H1144 H 0.32431 0.72096 0.70347 0.0
H1145 H 0.30322 0.69205 0.7666 0.0
C1146 C 0.32318 0.71401 0.78076 0.0
C1147 C 0.33783 0.72955 0.77776 0.0
C1148 C 0.31373 0.70837 0.70606 0.0
C1149 C 0.32107 0.70901 0.74397 0.0
C1150 C 0.30215 0.70098 0.68959 0.0
C1151 C 0.28785 0.68513 0.69264 0.0
C1152 C 0.31082 0.69999 0.72575 0.0
C1153 C 0.28608 0.67653 0.71236 0.0
C1154 C 0.31487 0.70364 0.76395 0.0
C1155 C 0.34434 0.73379 0.75762 0.0
N1156 N 0.29727 0.68423 0.72822 0.0
N1157 N 0.33573 0.72374 0.74146 0.0
H1158 H 0.92672 0.38969 0.46429 0.0
H1159 H 0.88927 0.49594 0.5126 0.0
H1160 H 0.93205 0.44741 0.43213 0.0
H1161 H 0.9011 0.43997 0.54618 0.0
H1162 H 0.89507 0.47718 0.4802 0.0
H1163 H 0.90641 0.4066 0.49083 0.0
C1164 C 0.92319 0.4059 0.46264 0.0
C1165 C 0.93129 0.4173 0.44627 0.0
C1166 C 0.89599 0.46899 0.49468 0.0
C1167 C 0.9086 0.43691 0.47686 0.0
C1168 C 0.89264 0.47963 0.5131 0.0
C1169 C 0.89504 0.46948 0.532 0.0
C1170 C 0.90141 0.44808 0.49534 0.0
C1171 C 0.89944 0.44841 0.53191 0.0
C1172 C 0.91168 0.41557 0.47781 0.0
C1173 C 0.92611 0.43817 0.44464 0.0
N1174 N 0.9026 0.43846 0.51389 0.0
N1175 N 0.91543 0.44748 0.46007 0.0
H1176 H 0.64384 0.20645 0.72376 0.0
H1177 H 0.74061 0.15512 0.77907 0.0
H1178 H 0.70082 0.19621 0.69129 0.0
H1179 H 0.69371 0.19035 0.8101 0.0
H1180 H 0.72351 0.16226 0.74608 0.0
H1181 H 0.65897 0.19155 0.75453 0.0
C1182 C 0.65948 0.20077 0.723 0.0
C1183 C 0.67122 0.20291 0.70501 0.0
C1184 C 0.71696 0.16826 0.76017 0.0
C1185 C 0.68868 0.18592 0.74039 0.0
C1186 C 0.72662 0.16416 0.77896 0.0
C1187 C 0.71858 0.17226 0.79732 0.0
C1188 C 0.69895 0.18014 0.75987 0.0
C1189 C 0.7005 0.18395 0.79632 0.0
C1190 C 0.66812 0.19233 0.74063 0.0
C1191 C 0.69129 0.19494 0.70488 0.0
N1192 N 0.69129 0.18748 0.77793 0.0
N1193 N 0.69954 0.18699 0.72246 0.0
H1194 H 0.43883 0.04328 0.42923 0.0
H1195 H 0.44616 0.0579 0.55056 0.0
H1196 H 0.40486 0.00531 0.4718 0.0
H1197 H 0.47078 0.10082 0.50626 0.0
H1198 H 0.43023 0.03867 0.52243 0.0
H1199 H 0.45002 0.0647 0.45765 0.0
C1200 C 0.43366 0.03946 0.44461 0.0
C1201 C 0.42102 0.02237 0.44819 0.0
C1202 C 0.43898 0.05239 0.51892 0.0
C1203 C 0.43391 0.04692 0.48095 0.0
C1204 C 0.44812 0.06336 0.53495 0.0
C1205 C 0.45996 0.08092 0.53073 0.0
C1206 C 0.44184 0.05897 0.49856 0.0
C1207 C 0.46189 0.08733 0.51024 0.0
C1208 C 0.44002 0.05178 0.46085 0.0
C1209 C 0.41464 0.01834 0.4684 0.0
N1210 N 0.45305 0.07627 0.49493 0.0
N1211 N 0.42133 0.03044 0.48411 0.0
H1212 H 0.29276 0.27159 0.7077 0.0
H1213 H 0.28567 0.34972 0.80122 0.0
H1214 H 0.34515 0.30947 0.72228 0.0
H1215 H 0.27081 0.28539 0.80718 0.0
H1216 H 0.29899 0.34288 0.76626 0.0
H1217 H 0.27487 0.28548 0.73792 0.0
C1218 C 0.30013 0.28349 0.71673 0.0
C1219 C 0.32041 0.28947 0.71254 0.0
C1220 C 0.29264 0.3304 0.77528 0.0
C1221 C 0.30014 0.30526 0.74689 0.0
C1222 C 0.28515 0.33424 0.79512 0.0
C1223 C 0.27748 0.318 0.80708 0.0
C1224 C 0.29159 0.3104 0.76725 0.0
C1225 C 0.27695 0.29823 0.79852 0.0
C1226 C 0.29004 0.29118 0.73405 0.0
C1227 C 0.32949 0.30455 0.72504 0.0
N1228 N 0.28376 0.295 0.77906 0.0
N1229 N 0.31933 0.31189 0.74179 0.0
H1230 H 0.59944 0.44742 0.44145 0.0
H1231 H 0.50511 0.38006 0.4824 0.0
H1232 H 0.54118 0.44573 0.40976 0.0
H1233 H 0.55858 0.39706 0.51779 0.0
H1234 H 0.52001 0.39768 0.45233 0.0
H1235 H 0.58683 0.4219 0.46562 0.0
C1236 C 0.58399 0.44149 0.43949 0.0
C1237 C 0.57118 0.44894 0.42383 0.0
C1238 C 0.5285 0.39731 0.46665 0.0
C1239 C 0.55648 0.41983 0.45174 0.0
C1240 C 0.52008 0.38722 0.48374 0.0
C1241 C 0.53057 0.38732 0.50262 0.0
C1242 C 0.54763 0.40718 0.46851 0.0
C1243 C 0.54986 0.39683 0.5036 0.0
C1244 C 0.57678 0.42692 0.45332 0.0
C1245 C 0.55146 0.44043 0.42174 0.0
N1246 N 0.5577 0.4064 0.48684 0.0
N1247 N 0.54453 0.42649 0.4358 0.0
H1248 H 0.6679 0.69864 0.79793 0.0
H1249 H 0.78602 0.66863 0.80352 0.0
H1250 H 0.71161 0.72967 0.83708 0.0
H1251 H 0.74049 0.63168 0.77242 0.0
H1252 H 0.75855 0.68944 0.81827 0.0
H1253 H 0.69366 0.6724 0.79057 0.0
C1254 C 0.68288 0.69985 0.80511 0.0
C1255 C 0.68772 0.71651 0.81793 0.0
C1256 C 0.75453 0.67663 0.80843 0.0
C1257 C 0.71731 0.68657 0.80949 0.0
C1258 C 0.77021 0.66476 0.79996 0.0
C1259 C 0.76552 0.64857 0.7865 0.0
C1260 C 0.73402 0.67246 0.8032 0.0
C1261 C 0.74479 0.64411 0.78261 0.0
C1262 C 0.69756 0.68482 0.80095 0.0
C1263 C 0.70728 0.71717 0.82699 0.0
N1264 N 0.72979 0.65619 0.7907 0.0
N1265 N 0.72146 0.70253 0.82239 0.0
H1266 H 0.88597 0.98426 0.44851 0.0
H1267 H 0.98487 0.03176 0.39304 0.0
H1268 H 0.94116 0.94905 0.4376 0.0
H1269 H 0.93472 0.06775 0.41746 0.0
H1270 H 0.96709 0.00037 0.40374 0.0
H1271 H 0.90142 0.01351 0.43109 0.0
C1272 C 0.9013 0.98257 0.4422 0.0
C1273 C 0.91238 0.96419 0.44476 0.0
C1274 C 0.95993 0.01513 0.40661 0.0
C1275 C 0.93031 0.99795 0.42485 0.0
C1276 C 0.97002 0.03309 0.40046 0.0
C1277 C 0.96132 0.0525 0.40444 0.0
C1278 C 0.94089 0.01652 0.41666 0.0
C1279 C 0.94207 0.05319 0.41415 0.0
C1280 C 0.91014 0.99937 0.4323 0.0
C1281 C 0.93208 0.96291 0.436 0.0
N1282 N 0.93256 0.03549 0.41995 0.0
N1283 N 0.94053 0.97967 0.42662 0.0
H1284 H 0.19526 0.82578 0.78758 0.0
H1285 H 0.31607 0.81625 0.8059 0.0
H1286 H 0.23983 0.86863 0.76342 0.0
H1287 H 0.27186 0.77873 0.83816 0.0
H1288 H 0.28801 0.83656 0.79165 0.0
H1289 H 0.22258 0.80925 0.80753 0.0
C1290 C 0.21074 0.83183 0.78658 0.0
C1291 C 0.21527 0.84854 0.77365 0.0
C1292 C 0.28439 0.82402 0.80199 0.0
C1293 C 0.24662 0.8296 0.79638 0.0
C1294 C 0.30043 0.81238 0.81013 0.0
C1295 C 0.2963 0.79565 0.82313 0.0
C1296 C 0.26396 0.8188 0.80663 0.0
C1297 C 0.27573 0.79148 0.82819 0.0
C1298 C 0.22633 0.82239 0.79801 0.0
C1299 C 0.23561 0.85574 0.77307 0.0
N1300 N 0.26029 0.80283 0.81973 0.0
N1301 N 0.25052 0.84614 0.78412 0.0
H1302 H 0.10683 0.48478 0.49405 0.0
H1303 H 0.01001 0.44909 0.42721 0.0
H1304 H 0.06862 0.52626 0.45897 0.0
H1305 H 0.04042 0.40954 0.47107 0.0
H1306 H 0.03399 0.47649 0.43573 0.0
H1307 H 0.08575 0.45599 0.48221 0.0
C1308 C 0.09423 0.48782 0.48358 0.0
C1309 C 0.08941 0.50802 0.47758 0.0
C1310 C 0.03545 0.46183 0.44351 0.0
C1311 C 0.06512 0.47514 0.4642 0.0
C1312 C 0.02173 0.44614 0.43868 0.0
C1313 C 0.02312 0.42696 0.44852 0.0
C1314 C 0.05082 0.4584 0.45825 0.0
C1315 C 0.03869 0.4241 0.4632 0.0
C1316 C 0.08211 0.47138 0.47697 0.0
C1317 C 0.07286 0.51099 0.46407 0.0
N1318 N 0.05196 0.43967 0.46763 0.0
N1319 N 0.06125 0.49476 0.45793 0.0
H1320 H 0.73654 0.36379 0.75762 0.0
H1321 H 0.69642 0.2867 0.67096 0.0
H1322 H 0.7754 0.33166 0.71444 0.0
H1323 H 0.65902 0.30268 0.72346 0.0
H1324 H 0.72359 0.30864 0.68386 0.0
H1325 H 0.70643 0.34649 0.74273 0.0
C1326 C 0.73872 0.35326 0.74491 0.0
C1327 C 0.75851 0.34908 0.73729 0.0
C1328 C 0.70945 0.30745 0.6926 0.0
C1329 C 0.72426 0.32946 0.72024 0.0
C1330 C 0.69386 0.2949 0.68523 0.0
C1331 C 0.67549 0.29256 0.69633 0.0
C1332 C 0.70685 0.31784 0.71128 0.0
C1333 C 0.67299 0.30394 0.7145 0.0
C1334 C 0.72156 0.34336 0.73651 0.0
C1335 C 0.76047 0.33526 0.72089 0.0
N1336 N 0.68863 0.31602 0.72155 0.0
N1337 N 0.74359 0.32598 0.71294 0.0
H1338 H 0.56508 0.95454 0.55486 0.0
H1339 H 0.54753 0.07525 0.56404 0.0
H1340 H 0.60481 0.99977 0.52691 0.0
H1341 H 0.51346 0.03116 0.60005 0.0
H1342 H 0.57034 0.04781 0.55256 0.0
H1343 H 0.54764 0.98207 0.57365 0.0
C1344 C 0.57031 0.97022 0.55284 0.0
C1345 C 0.58633 0.97484 0.5391 0.0
C1346 C 0.55805 0.04411 0.56318 0.0
C1347 C 0.56629 0.00646 0.56048 0.0
C1348 C 0.545 0.05981 0.56975 0.0
C1349 C 0.52845 0.05547 0.58289 0.0
C1350 C 0.5544 0.0238 0.56952 0.0
C1351 C 0.52602 0.03519 0.58989 0.0
C1352 C 0.56034 0.98594 0.5636 0.0
C1353 C 0.59247 0.99545 0.53721 0.0
N1354 N 0.53867 0.02003 0.58288 0.0
N1355 N 0.58231 0.01048 0.54758 0.0
H1356 H 0.32477 0.23203 0.74784 0.0
H1357 H 0.27006 0.12285 0.73497 0.0
H1358 H 0.35506 0.18179 0.71719 0.0
H1359 H 0.23904 0.1815 0.73703 0.0
H1360 H 0.30329 0.14094 0.73738 0.0
H1361 H 0.2957 0.20946 0.75549 0.0
C1362 C 0.32577 0.2159 0.74376 0.0
C1363 C 0.34238 0.20861 0.73219 0.0
C1364 C 0.28913 0.14973 0.73733 0.0
C1365 C 0.30885 0.18304 0.73985 0.0
C1366 C 0.27024 0.13948 0.73579 0.0
C1367 C 0.25178 0.15071 0.73545 0.0
C1368 C 0.28941 0.17124 0.73914 0.0
C1369 C 0.25286 0.17221 0.73685 0.0
C1370 C 0.30901 0.20315 0.74771 0.0
C1371 C 0.34263 0.1878 0.72651 0.0
N1372 N 0.27131 0.18173 0.73874 0.0
N1373 N 0.32589 0.17575 0.73008 0.0
H1374 H 0.49906 0.44714 0.58315 0.0
H1375 H 0.4031 0.49432 0.52226 0.0
H1376 H 0.45597 0.4113 0.54761 0.0
H1377 H 0.44909 0.5315 0.55238 0.0
H1378 H 0.41942 0.46355 0.53615 0.0
H1379 H 0.47822 0.47783 0.5766 0.0
C1380 C 0.4851 0.44566 0.57419 0.0
C1381 C 0.47937 0.42664 0.56574 0.0
C1382 C 0.42586 0.47844 0.53989 0.0
C1383 C 0.45551 0.4617 0.55815 0.0
C1384 C 0.41651 0.49605 0.53199 0.0
C1385 C 0.42486 0.51554 0.53596 0.0
C1386 C 0.44378 0.48025 0.55181 0.0
C1387 C 0.44218 0.51679 0.54881 0.0
C1388 C 0.47324 0.4632 0.57042 0.0
C1389 C 0.4611 0.42566 0.55428 0.0
N1390 N 0.4512 0.49936 0.55611 0.0
N1391 N 0.44993 0.44294 0.55071 0.0
H1392 H 0.83854 0.69759 0.72624 0.0
H1393 H 0.768 0.72729 0.62977 0.0
H1394 H 0.79278 0.65722 0.70013 0.0
H1395 H 0.80633 0.77056 0.66239 0.0
H1396 H 0.78121 0.69974 0.65174 0.0
H1397 H 0.83087 0.72286 0.69949 0.0
C1398 C 0.82697 0.69398 0.71482 0.0
C1399 C 0.81613 0.67534 0.71557 0.0
C1400 C 0.78687 0.71524 0.65394 0.0
C1401 C 0.80732 0.70418 0.68488 0.0
C1402 C 0.77942 0.73096 0.64133 0.0
C1403 C 0.7859 0.7513 0.6444 0.0
C1404 C 0.80094 0.7199 0.66966 0.0
C1405 C 0.80073 0.75513 0.65961 0.0
C1406 C 0.82259 0.70842 0.69955 0.0
C1407 C 0.80137 0.67146 0.70029 0.0
N1408 N 0.80763 0.73962 0.67177 0.0
N1409 N 0.79733 0.6858 0.68563 0.0
H1410 H 0.79806 0.32995 0.81659 0.0
H1411 H 0.79307 0.20787 0.81917 0.0
H1412 H 0.83419 0.29164 0.77617 0.0
H1413 H 0.76591 0.24714 0.86531 0.0
H1414 H 0.81089 0.23786 0.80488 0.0
H1415 H 0.78866 0.29953 0.83639 0.0
C1416 C 0.80422 0.31516 0.81203 0.0
C1417 C 0.81674 0.31331 0.79458 0.0
C1418 C 0.80125 0.23982 0.8183 0.0
C1419 C 0.80582 0.2783 0.81702 0.0
C1420 C 0.79109 0.2227 0.82648 0.0
C1421 C 0.77773 0.22504 0.84326 0.0
C1422 C 0.79789 0.25936 0.82694 0.0
C1423 C 0.77581 0.24462 0.85216 0.0
C1424 C 0.79886 0.29776 0.82335 0.0
C1425 C 0.8244 0.29376 0.78947 0.0
N1426 N 0.78556 0.26102 0.84376 0.0
N1427 N 0.81857 0.27696 0.80046 0.0
H1428 H 0.5275 0.9058 0.48463 0.0
H1429 H 0.49038 0.97148 0.38735 0.0
H1430 H 0.56613 0.94769 0.45055 0.0
H1431 H 0.44849 0.94145 0.42923 0.0
H1432 H 0.51922 0.95665 0.40625 0.0
H1433 H 0.49924 0.91327 0.46078 0.0
C1434 C 0.53007 0.91647 0.4721 0.0
C1435 C 0.54911 0.92634 0.46972 0.0
C1436 C 0.5037 0.95312 0.41116 0.0
C1437 C 0.51704 0.93473 0.44235 0.0
C1438 C 0.48721 0.96148 0.40029 0.0
C1439 C 0.46698 0.95796 0.4069 0.0
C1440 C 0.49995 0.94113 0.42873 0.0
C1441 C 0.46385 0.94478 0.42373 0.0
C1442 C 0.51397 0.9207 0.4585 0.0
C1443 C 0.55163 0.93994 0.45315 0.0
N1444 N 0.48017 0.93702 0.43423 0.0
N1445 N 0.53578 0.94377 0.44015 0.0
H1446 H 0.24269 0.23696 0.86421 0.0
H1447 H 0.17169 0.20652 0.76874 0.0
H1448 H 0.20817 0.2808 0.82816 0.0
H1449 H 0.20997 0.1634 0.80174 0.0
H1450 H 0.1806 0.23299 0.7938 0.0
H1451 H 0.22661 0.20907 0.84493 0.0
C1452 C 0.23155 0.24073 0.8524 0.0
C1453 C 0.22696 0.26128 0.84763 0.0
C1454 C 0.18689 0.21768 0.79568 0.0
C1455 C 0.20858 0.2294 0.82543 0.0
C1456 C 0.18177 0.20253 0.78139 0.0
C1457 C 0.1903 0.18277 0.78299 0.0
C1458 C 0.20067 0.21306 0.81166 0.0
C1459 C 0.20318 0.17848 0.79978 0.0
C1460 C 0.2224 0.22479 0.84138 0.0
C1461 C 0.21232 0.26521 0.83225 0.0
N1462 N 0.20813 0.19356 0.81335 0.0
N1463 N 0.2038 0.24942 0.82157 0.0
H1464 H 0.98868 0.02541 0.89281 0.0
H1465 H 0.95981 0.09956 0.98682 0.0
H1466 H 0.03421 0.05624 0.93001 0.0
H1467 H 0.91714 0.0585 0.95689 0.0
H1468 H 0.98658 0.08866 0.96253 0.0
H1469 H 0.96165 0.04242 0.91247 0.0
C1470 C 0.99302 0.03591 0.90498 0.0
C1471 C 0.01377 0.03921 0.9099 0.0
C1472 C 0.97129 0.0822 0.96121 0.0
C1473 C 0.98282 0.0587 0.93257 0.0
C1474 C 0.95601 0.08847 0.97501 0.0
C1475 C 0.93629 0.07977 0.974 0.0
C1476 C 0.96671 0.0673 0.94625 0.0
C1477 C 0.9322 0.06544 0.9584 0.0
C1478 C 0.97756 0.04559 0.91625 0.0
C1479 C 0.01842 0.0531 0.92578 0.0
N1480 N 0.94728 0.05961 0.94522 0.0
N1481 N 0.00306 0.06223 0.93666 0.0
H1482 H 0.7262 0.26985 0.14589 0.0
H1483 H 0.68148 0.31375 0.25155 0.0
H1484 H 0.69855 0.23179 0.19276 0.0
H1485 H 0.7178 0.34918 0.20872 0.0
H1486 H 0.6819 0.28493 0.22742 0.0
H1487 H 0.71721 0.30028 0.16583 0.0
C1488 C 0.71799 0.26788 0.16025 0.0
C1489 C 0.71339 0.2482 0.16781 0.0
C1490 C 0.68961 0.29909 0.22324 0.0
C1491 C 0.70319 0.28303 0.1908 0.0
C1492 C 0.68935 0.31556 0.23699 0.0
C1493 C 0.69985 0.33382 0.23225 0.0
C1494 C 0.70037 0.30092 0.20461 0.0
C1495 C 0.7097 0.33532 0.21312 0.0
C1496 C 0.71291 0.28529 0.17166 0.0
C1497 C 0.70257 0.24664 0.18643 0.0
N1498 N 0.70985 0.31903 0.20007 0.0
N1499 N 0.69804 0.26384 0.19741 0.0
H1500 H 0.5056 0.09982 0.00407 0.0
H1501 H 0.45769 0.05801 0.10919 0.0
H1502 H 0.54064 0.08311 0.05787 0.0
H1503 H 0.42805 0.04684 0.0509 0.0
H1504 H 0.48435 0.07752 0.09159 0.0
H1505 H 0.47388 0.0895 0.02211 0.0
C1506 C 0.50657 0.09429 0.01976 0.0
C1507 C 0.52575 0.09218 0.0295 0.0
C1508 C 0.47185 0.07109 0.08266 0.0
C1509 C 0.48975 0.08077 0.05014 0.0
C1510 C 0.45654 0.06003 0.09269 0.0
C1511 C 0.44078 0.0505 0.08145 0.0
C1512 C 0.4715 0.0727 0.06117 0.0
C1513 C 0.43997 0.05388 0.06013 0.0
C1514 C 0.48853 0.08836 0.02996 0.0
C1515 C 0.5262 0.08483 0.04975 0.0
N1516 N 0.45536 0.06448 0.05057 0.0
N1517 N 0.5085 0.07943 0.05938 0.0
H1518 H 0.54626 0.45177 0.10325 0.0
H1519 H 0.49525 0.40458 0.00192 0.0
H1520 H 0.57975 0.44789 0.04608 0.0
H1521 H 0.4615 0.43286 0.05155 0.0
H1522 H 0.52757 0.41263 0.01989 0.0
H1523 H 0.51672 0.43585 0.08672 0.0
C1524 C 0.54756 0.4472 0.08728 0.0
C1525 C 0.56545 0.45145 0.07595 0.0
C1526 C 0.51305 0.41691 0.02684 0.0
C1527 C 0.53141 0.43336 0.05684 0.0
C1528 C 0.49463 0.4123 0.01666 0.0
C1529 C 0.47566 0.41818 0.02522 0.0
C1530 C 0.51241 0.42706 0.04588 0.0
C1531 C 0.47575 0.4282 0.0443 0.0
C1532 C 0.5306 0.43822 0.07783 0.0
C1533 C 0.56625 0.44494 0.05537 0.0
N1534 N 0.4938 0.43226 0.05398 0.0
N1535 N 0.54933 0.43643 0.04635 0.0
H1536 H 0.07104 0.30984 0.3052 0.0
H1537 H 0.04301 0.38524 0.39682 0.0
H1538 H 0.11349 0.3286 0.35267 0.0
H1539 H -6e-05 0.36899 0.34915 0.0
H1540 H 0.07064 0.36961 0.37699 0.0
H1541 H 0.04662 0.3357 0.3173 0.0
C1542 C 0.07536 0.31957 0.31801 0.0
C1543 C 0.09423 0.3168 0.32818 0.0
C1544 C 0.05526 0.36969 0.37061 0.0
C1545 C 0.06629 0.3464 0.34208 0.0
C1546 C 0.0395 0.37865 0.38191 0.0
C1547 C 0.01923 0.37815 0.37463 0.0
C1548 C 0.05066 0.35969 0.35205 0.0
C1549 C 0.01542 0.36963 0.35523 0.0
C1550 C 0.06139 0.33435 0.32488 0.0
C1551 C 0.09904 0.32999 0.34453 0.0
N1552 N 0.03099 0.36032 0.34473 0.0
N1553 N 0.08506 0.34403 0.35111 0.0
H1554 H 0.60863 0.73409 0.87211 0.0
H1555 H 0.54276 0.63146 0.87557 0.0
H1556 H 0.58612 0.70373 0.81758 0.0
H1557 H 0.54052 0.67523 0.92543 0.0
H1558 H 0.56316 0.65564 0.8556 0.0
H1559 H 0.58772 0.71084 0.89322 0.0
C1560 C 0.59928 0.72255 0.86457 0.0
C1561 C 0.59914 0.7208 0.84303 0.0
C1562 C 0.55823 0.65997 0.87091 0.0
C1563 C 0.57548 0.69409 0.8671 0.0
C1564 C 0.54669 0.64611 0.88244 0.0
C1565 C 0.53989 0.6513 0.90227 0.0
C1566 C 0.56336 0.67913 0.8793 0.0
C1567 C 0.54541 0.67061 0.91021 0.0
C1568 C 0.58732 0.70938 0.87664 0.0
C1569 C 0.58666 0.70566 0.8341 0.0
N1570 N 0.55695 0.68383 0.89872 0.0
N1571 N 0.57549 0.69277 0.84618 0.0
H1572 H 0.90009 0.17233 0.30691 0.0
H1573 H 0.01271 0.1317 0.32636 0.0
H1574 H 0.95366 0.2105 0.29881 0.0
H1575 H 0.95816 0.09443 0.32976 0.0
H1576 H 0.99303 0.15832 0.30831 0.0
H1577 H 0.92204 0.14207 0.30794 0.0
C1578 C 0.91655 0.1743 0.30516 0.0
C1579 C 0.92511 0.19397 0.3031 0.0
C1580 C 0.98553 0.14399 0.31223 0.0
C1581 C 0.95057 0.15923 0.30462 0.0
C1582 C 0.99688 0.1286 0.32218 0.0
C1583 C 0.98705 0.11078 0.32936 0.0
C1584 C 0.96421 0.14148 0.30962 0.0
C1585 C 0.96634 0.10786 0.32426 0.0
C1586 C 0.92911 0.15697 0.30567 0.0
C1587 C 0.94648 0.19558 0.30055 0.0
N1588 N 0.95552 0.1232 0.31508 0.0
N1589 N 0.95856 0.17845 0.3018 0.0
H1590 H 0.44525 0.89192 0.88838 0.0
H1591 H 0.37884 0.78925 0.88635 0.0
H1592 H 0.45492 0.8436 0.93297 0.0
H1593 H 0.39513 0.82347 0.83186 0.0
H1594 H 0.40042 0.8125 0.90688 0.0
H1595 H 0.42001 0.87044 0.87102 0.0
C1596 C 0.44192 0.87686 0.89469 0.0
C1597 C 0.45237 0.86946 0.91208 0.0
C1598 C 0.39912 0.8149 0.89045 0.0
C1599 C 0.42339 0.84486 0.8922 0.0
C1600 C 0.38678 0.80178 0.87877 0.0
C1601 C 0.3853 0.80447 0.85739 0.0
C1602 C 0.40961 0.83101 0.88069 0.0
C1603 C 0.39597 0.82081 0.84827 0.0
C1604 C 0.42757 0.8646 0.88468 0.0
C1605 C 0.44733 0.84983 0.91952 0.0
N1606 N 0.40762 0.83352 0.85999 0.0
N1607 N 0.43316 0.83813 0.90949 0.0
H1608 H 0.06678 0.68933 0.20141 0.0
H1609 H 0.05837 0.58562 0.13679 0.0
H1610 H 0.11355 0.66571 0.16064 0.0
H1611 H 0.00662 0.61352 0.16723 0.0
H1612 H 0.08129 0.60973 0.15413 0.0
H1613 H 0.04682 0.65782 0.19608 0.0
C1614 C 0.0729 0.67751 0.19141 0.0
C1615 C 0.09173 0.68031 0.1812 0.0
C1616 C 0.065 0.61025 0.15755 0.0
C1617 C 0.06916 0.64412 0.17537 0.0
C1618 C 0.05198 0.59623 0.14794 0.0
C1619 C 0.03067 0.59757 0.15074 0.0
C1620 C 0.05656 0.62597 0.16971 0.0
C1621 C 0.02303 0.61187 0.16493 0.0
C1622 C 0.06154 0.6595 0.18847 0.0
C1623 C 0.09898 0.66439 0.16858 0.0
N1624 N 0.03594 0.6259 0.17357 0.0
N1625 N 0.08765 0.64705 0.16597 0.0
H1626 H 0.90185 0.72648 0.12048 0.0
H1627 H 0.9884 0.64216 0.13738 0.0
H1628 H 0.93435 0.71785 0.17774 0.0
H1629 H 0.96806 0.6597 0.07679 0.0
H1630 H 0.96957 0.67109 0.15189 0.0
H1631 H 0.92629 0.70328 0.10362 0.0
C1632 C 0.91418 0.71983 0.12949 0.0
C1633 C 0.91591 0.72396 0.15064 0.0
C1634 C 0.96938 0.6689 0.13539 0.0
C1635 C 0.94388 0.69742 0.13141 0.0
C1636 C 0.98015 0.6524 0.12711 0.0
C1637 C 0.9797 0.64865 0.10591 0.0
C1638 C 0.95762 0.68155 0.12243 0.0
C1639 C 0.96882 0.66225 0.09322 0.0
C1640 C 0.92817 0.70666 0.11981 0.0
C1641 C 0.93229 0.71502 0.16147 0.0
N1642 N 0.95788 0.678 0.10173 0.0
N1643 N 0.94548 0.70206 0.15178 0.0
H1644 H 0.87385 0.80669 0.11009 0.0
H1645 H 0.96797 0.88381 0.12569 0.0
H1646 H 0.90318 0.81842 0.16848 0.0
H1647 H 0.95177 0.85689 0.06717 0.0
H1648 H 0.93841 0.8668 0.14128 0.0
H1649 H 0.89635 0.83233 0.09412 0.0
C1650 C 0.88473 0.81497 0.11961 0.0
C1651 C 0.88695 0.81025 0.14054 0.0
C1652 C 0.94125 0.86477 0.12499 0.0
C1653 C 0.91257 0.83937 0.12246 0.0
C1654 C 0.95812 0.87444 0.11608 0.0
C1655 C 0.96251 0.87146 0.09517 0.0
C1656 C 0.92866 0.85213 0.1129 0.0
C1657 C 0.9491 0.85933 0.08342 0.0
C1658 C 0.8976 0.82947 0.11048 0.0
C1659 C 0.90123 0.82139 0.15221 0.0
N1660 N 0.93281 0.84996 0.09249 0.0
N1661 N 0.91365 0.83533 0.14296 0.0
H1662 H 0.05184 0.84483 0.09062 0.0
H1663 H 0.07431 0.79682 0.20154 0.0
H1664 H 0.04894 0.8806 0.14642 0.0
H1665 H 0.0921 0.76761 0.14466 0.0
H1666 H 0.06191 0.82651 0.18188 0.0
H1667 H 0.06451 0.81559 0.11041 0.0
C1668 C 0.05407 0.8466 0.10704 0.0
C1669 C 0.04935 0.86522 0.11688 0.0
C1670 C 0.06847 0.81356 0.17373 0.0
C1671 C 0.06352 0.83158 0.13974 0.0
C1672 C 0.07536 0.79651 0.18492 0.0
C1673 C 0.08424 0.77967 0.17473 0.0
C1674 C 0.07029 0.81367 0.15221 0.0
C1675 C 0.08539 0.78024 0.15317 0.0
C1676 C 0.06127 0.82986 0.11834 0.0
C1677 C 0.05253 0.86659 0.13819 0.0
N1678 N 0.0785 0.79693 0.14266 0.0
N1679 N 0.05925 0.84992 0.14896 0.0
H1680 H 0.3143 0.10221 0.31841 0.0
H1681 H 0.42152 0.0564 0.35216 0.0
H1682 H 0.37091 0.13638 0.31294 0.0
H1683 H 0.36393 0.03321 0.37567 0.0
H1684 H 0.40328 0.08596 0.33778 0.0
H1685 H 0.3319 0.07724 0.34026 0.0
C1686 C 0.33036 0.10464 0.32213 0.0
C1687 C 0.34123 0.12126 0.31373 0.0
C1688 C 0.39467 0.07449 0.34625 0.0
C1689 C 0.36154 0.09255 0.33831 0.0
C1690 C 0.40505 0.05754 0.35432 0.0
C1691 C 0.39419 0.04224 0.36495 0.0
C1692 C 0.37326 0.07598 0.34857 0.0
C1693 C 0.37289 0.04461 0.36749 0.0
C1694 C 0.3404 0.09038 0.33458 0.0
C1695 C 0.36197 0.12376 0.3191 0.0
N1696 N 0.36308 0.06106 0.35916 0.0
N1697 N 0.37158 0.10932 0.33076 0.0
H1698 H 0.39919 0.35828 0.95172 0.0
H1699 H 0.28864 0.36705 0.89871 0.0
H1700 H 0.35805 0.40893 0.96391 0.0
H1701 H 0.32119 0.30973 0.9065 0.0
H1702 H 0.31567 0.38449 0.91851 0.0
H1703 H 0.37253 0.34218 0.93077 0.0
C1704 C 0.38458 0.36609 0.94992 0.0
C1705 C 0.38085 0.38498 0.95967 0.0
C1706 C 0.31683 0.3681 0.91585 0.0
C1707 C 0.35023 0.3666 0.93557 0.0
C1708 C 0.30148 0.35815 0.9045 0.0
C1709 C 0.30262 0.33688 0.90099 0.0
C1710 C 0.33359 0.35674 0.92342 0.0
C1711 C 0.31959 0.32611 0.90891 0.0
C1712 C 0.36933 0.35683 0.93801 0.0
C1713 C 0.36157 0.39432 0.95676 0.0
N1714 N 0.33442 0.33617 0.91965 0.0
N1715 N 0.34698 0.38506 0.94492 0.0
H1716 H 0.68628 0.38492 0.34143 0.0
H1717 H 0.6689 0.49903 0.38109 0.0
H1718 H 0.71266 0.43825 0.31206 0.0
H1719 H 0.6406 0.44525 0.40733 0.0
H1720 H 0.69201 0.47675 0.36119 0.0
H1721 H 0.67633 0.40624 0.37055 0.0
C1722 C 0.69017 0.40112 0.3412 0.0
C1723 C 0.69996 0.4099 0.3241 0.0
C1724 C 0.68121 0.46981 0.37179 0.0
C1725 C 0.6884 0.43453 0.35742 0.0
C1726 C 0.66824 0.48253 0.38333 0.0
C1727 C 0.65311 0.47384 0.39595 0.0
C1728 C 0.67872 0.44835 0.37281 0.0
C1729 C 0.6523 0.45244 0.3979 0.0
C1730 C 0.68452 0.41329 0.35789 0.0
C1731 C 0.70494 0.43089 0.32484 0.0
N1732 N 0.66473 0.44041 0.38624 0.0
N1733 N 0.69877 0.44259 0.34107 0.0
H1734 H 0.6398 0.09497 0.96433 0.0
H1735 H 0.67525 0.1847 0.88958 0.0
H1736 H 0.60067 0.146 0.94779 0.0
H1737 H 0.70522 0.12551 0.89018 0.0
H1738 H 0.64824 0.17097 0.91162 0.0
H1739 H 0.66465 0.10612 0.93833 0.0
C1740 C 0.63643 0.10852 0.95525 0.0
C1741 C 0.61818 0.11966 0.95834 0.0
C1742 C 0.66058 0.16088 0.90679 0.0
C1743 C 0.64653 0.13246 0.92861 0.0
C1744 C 0.67603 0.16872 0.89422 0.0
C1745 C 0.69252 0.15622 0.88813 0.0
C1746 C 0.66178 0.14047 0.91367 0.0
C1747 C 0.69271 0.13561 0.8945 0.0
C1748 C 0.65056 0.11478 0.94033 0.0
C1749 C 0.61455 0.13698 0.94599 0.0
N1750 N 0.67768 0.12842 0.90719 0.0
N1751 N 0.62867 0.14293 0.9318 0.0
H1752 H 0.30626 0.90651 0.19038 0.0
H1753 H 0.40469 0.93649 0.12522 0.0
H1754 H 0.35908 0.8669 0.1834 0.0
H1755 H 0.34819 0.971 0.12223 0.0
H1756 H 0.38682 0.90914 0.14359 0.0
H1757 H 0.31983 0.9288 0.16332 0.0
C1758 C 0.32064 0.90239 0.18306 0.0
C1759 C 0.33168 0.88491 0.18938 0.0
C1760 C 0.37814 0.92247 0.13862 0.0
C1761 C 0.34731 0.91043 0.15836 0.0
C1762 C 0.38834 0.93804 0.12806 0.0
C1763 C 0.37785 0.95597 0.12226 0.0
C1764 C 0.35737 0.92502 0.14391 0.0
C1765 C 0.35674 0.95731 0.12633 0.0
C1766 C 0.32833 0.9151 0.16753 0.0
C1767 C 0.35012 0.88028 0.17917 0.0
N1768 N 0.34723 0.94218 0.13729 0.0
N1769 N 0.35745 0.89308 0.16436 0.0
H1770 H 0.23103 0.33437 0.06126 0.0
H1771 H 0.17098 0.4386 0.04588 0.0
H1772 H 0.22989 0.38179 0.10768 0.0
H1773 H 0.19084 0.40146 0.99483 0.0
H1774 H 0.19395 0.41921 0.06856 0.0
H1775 H 0.21664 0.35889 0.03653 0.0
C1776 C 0.22773 0.34991 0.06626 0.0
C1777 C 0.2315 0.35597 0.08662 0.0
C1778 C 0.1938 0.41567 0.05229 0.0
C1779 C 0.21517 0.38412 0.0584 0.0
C1780 C 0.18091 0.42693 0.03934 0.0
C1781 C 0.17947 0.42187 0.01847 0.0
C1782 C 0.20474 0.39879 0.04438 0.0
C1783 C 0.19199 0.40611 0.01078 0.0
C1784 C 0.21972 0.36395 0.05209 0.0
C1785 C 0.22714 0.37639 0.09218 0.0
N1786 N 0.20383 0.39481 0.02382 0.0
N1787 N 0.21903 0.38965 0.07822 0.0
H1788 H 0.69651 0.58322 0.19247 0.0
H1789 H 0.62453 0.5616 0.09597 0.0
H1790 H 0.65064 0.62555 0.16977 0.0
H1791 H 0.66622 0.51687 0.12134 0.0
H1792 H 0.64014 0.58808 0.11753 0.0
H1793 H 0.69073 0.56142 0.16249 0.0
C1794 C 0.68525 0.588 0.18115 0.0
C1795 C 0.67382 0.60614 0.18383 0.0
C1796 C 0.64636 0.57264 0.11798 0.0
C1797 C 0.66728 0.58122 0.14928 0.0
C1798 C 0.63769 0.55761 0.10539 0.0
C1799 C 0.64432 0.53715 0.10674 0.0
C1800 C 0.66149 0.56702 0.13234 0.0
C1801 C 0.66098 0.53258 0.11961 0.0
C1802 C 0.68205 0.57555 0.16397 0.0
C1803 C 0.65963 0.61159 0.1685 0.0
N1804 N 0.66874 0.54733 0.13226 0.0
N1805 N 0.65666 0.59911 0.15198 0.0
H1806 H 0.76962 0.13691 0.12247 0.0
H1807 H 0.87463 0.1444 0.05864 0.0
H1808 H 0.79588 0.19398 0.10104 0.0
H1809 H 0.83864 0.08876 0.06223 0.0
H1810 H 0.84877 0.16193 0.07958 0.0
H1811 H 0.79744 0.11819 0.10513 0.0
C1812 C 0.7812 0.14549 0.11413 0.0
C1813 C 0.78034 0.16703 0.11308 0.0
C1814 C 0.84662 0.14585 0.07589 0.0
C1815 C 0.81228 0.1458 0.09356 0.0
C1816 C 0.86144 0.13579 0.06406 0.0
C1817 C 0.85872 0.11512 0.05855 0.0
C1818 C 0.82905 0.13511 0.08243 0.0
C1819 C 0.84128 0.10475 0.06598 0.0
C1820 C 0.79706 0.13482 0.10427 0.0
C1821 C 0.79581 0.17738 0.10212 0.0
N1822 N 0.82707 0.11487 0.07749 0.0
N1823 N 0.81115 0.16668 0.09285 0.0
H1824 H 0.39128 0.36245 0.03807 0.0
H1825 H 0.31935 0.37713 0.13682 0.0
H1826 H 0.38312 0.41979 0.07042 0.0
H1827 H 0.31723 0.32411 0.09696 0.0
H1828 H 0.349 0.38986 0.11748 0.0
H1829 H 0.37046 0.34522 0.06442 0.0
C1830 C 0.38544 0.37131 0.0509 0.0
C1831 C 0.38861 0.3926 0.05192 0.0
C1832 C 0.34219 0.37531 0.11314 0.0
C1833 C 0.36487 0.37313 0.08195 0.0
C1834 C 0.3253 0.36802 0.12421 0.0
C1835 C 0.31559 0.34973 0.11826 0.0
C1836 C 0.34941 0.36419 0.09606 0.0
C1837 C 0.32403 0.33848 0.10186 0.0
C1838 C 0.3735 0.36152 0.06587 0.0
C1839 C 0.38073 0.40339 0.06887 0.0
N1840 N 0.34033 0.346 0.0912 0.0
N1841 N 0.36908 0.39358 0.08311 0.0
H1842 H 0.31023 0.67194 0.41863 0.0
H1843 H 0.37297 0.56948 0.44109 0.0
H1844 H 0.31334 0.62105 0.37614 0.0
H1845 H 0.3821 0.62521 0.47589 0.0
H1846 H 0.35165 0.5885 0.4168 0.0
H1847 H 0.33698 0.65565 0.43947 0.0
C1848 C 0.31665 0.65742 0.41358 0.0
C1849 C 0.30939 0.64777 0.39567 0.0
C1850 C 0.35847 0.59666 0.42961 0.0
C1851 C 0.33992 0.62898 0.41957 0.0
C1852 C 0.37062 0.58579 0.44353 0.0
C1853 C 0.37922 0.59575 0.46062 0.0
C1854 C 0.35458 0.61763 0.43292 0.0
C1855 C 0.37577 0.61693 0.46292 0.0
C1856 C 0.33196 0.64816 0.42547 0.0
C1857 C 0.31838 0.62903 0.38985 0.0
N1858 N 0.36348 0.62713 0.44936 0.0
N1859 N 0.333 0.62015 0.40187 0.0
H1860 H 0.92321 0.46802 0.84735 0.0
H1861 H 0.81784 0.41501 0.81838 0.0
H1862 H 0.87863 0.44858 0.89257 0.0
H1863 H 0.87252 0.39877 0.7844 0.0
H1864 H 0.83904 0.43414 0.84265 0.0
H1865 H 0.90415 0.44837 0.82104 0.0
C1866 C 0.90955 0.45958 0.85176 0.0
C1867 C 0.90251 0.45993 0.87218 0.0
C1868 C 0.84639 0.42642 0.82985 0.0
C1869 C 0.88064 0.43806 0.84233 0.0
C1870 C 0.83431 0.41559 0.81593 0.0
C1871 C 0.84345 0.4052 0.7994 0.0
C1872 C 0.86776 0.42724 0.82709 0.0
C1873 C 0.86491 0.40646 0.79705 0.0
C1874 C 0.89877 0.4484 0.8368 0.0
C1875 C 0.88472 0.44873 0.87708 0.0
N1876 N 0.87641 0.41741 0.81073 0.0
N1877 N 0.8743 0.43849 0.86225 0.0
H1878 H 0.62472 0.87602 0.46132 0.0
H1879 H 0.6912 0.88876 0.35859 0.0
H1880 H 0.6477 0.93459 0.44013 0.0
H1881 H 0.68558 0.83172 0.39205 0.0
H1882 H 0.669 0.90541 0.38416 0.0
H1883 H 0.64124 0.85936 0.43202 0.0
C1884 C 0.63318 0.88541 0.45047 0.0
C1885 C 0.63498 0.90672 0.45328 0.0
C1886 C 0.67244 0.88919 0.38571 0.0
C1887 C 0.65375 0.88772 0.41958 0.0
C1888 C 0.68492 0.87964 0.37104 0.0
C1889 C 0.69031 0.85886 0.3733 0.0
C1890 C 0.66514 0.87779 0.40254 0.0
C1891 C 0.68192 0.84781 0.38982 0.0
C1892 C 0.6426 0.87587 0.43375 0.0
C1893 C 0.6461 0.91809 0.43866 0.0
N1894 N 0.66982 0.85743 0.40386 0.0
N1895 N 0.65509 0.90844 0.42242 0.0
H1896 H 0.63202 0.55013 0.37266 0.0
H1897 H 0.63554 0.59942 0.26155 0.0
H1898 H 0.59038 0.52782 0.32594 0.0
H1899 H 0.68942 0.58834 0.29874 0.0
H1900 H 0.61504 0.57911 0.28616 0.0
H1901 H 0.64899 0.57124 0.34708 0.0
C1902 C 0.62625 0.54978 0.35704 0.0
C1903 C 0.60981 0.53697 0.35143 0.0
C1904 C 0.63136 0.58114 0.28876 0.0
C1905 C 0.62937 0.56133 0.32198 0.0
C1906 C 0.64302 0.59274 0.27486 0.0
C1907 C 0.66419 0.59555 0.27816 0.0
C1908 C 0.64094 0.57285 0.30622 0.0
C1909 C 0.67318 0.58652 0.29555 0.0
C1910 C 0.63608 0.5618 0.34242 0.0
C1911 C 0.60307 0.53737 0.33088 0.0
N1912 N 0.66147 0.57576 0.30901 0.0
N1913 N 0.61294 0.54939 0.3168 0.0
H1914 H 0.15271 0.55764 0.56844 0.0
H1915 H 0.20135 0.66591 0.5961 0.0
H1916 H 0.13177 0.61448 0.54121 0.0
H1917 H 0.20641 0.61328 0.63627 0.0
H1918 H 0.17657 0.64706 0.57512 0.0
H1919 H 0.17329 0.5774 0.59292 0.0
C1920 C 0.15235 0.57427 0.56769 0.0
C1921 C 0.14061 0.58444 0.5527 0.0
C1922 C 0.18296 0.63971 0.58863 0.0
C1923 C 0.16421 0.60708 0.5805 0.0
C1924 C 0.19716 0.65042 0.60056 0.0
C1925 C 0.20602 0.64109 0.61788 0.0
C1926 C 0.17784 0.61941 0.59386 0.0
C1927 C 0.19994 0.62104 0.62303 0.0
C1928 C 0.16403 0.58553 0.58171 0.0
C1929 C 0.14061 0.60601 0.5525 0.0
N1930 N 0.18638 0.61076 0.61093 0.0
N1931 N 0.15241 0.61662 0.56606 0.0
H1932 H 0.85558 0.61462 0.70305 0.0
H1933 H 0.88437 0.50821 0.65269 0.0
H1934 H 0.82461 0.55899 0.72171 0.0
H1935 H 0.87527 0.56197 0.61484 0.0
H1936 H 0.87075 0.5272 0.6823 0.0
H1937 H 0.87136 0.59578 0.67441 0.0
C1938 C 0.85233 0.59838 0.70125 0.0
C1939 C 0.83881 0.58826 0.71467 0.0
C1940 C 0.8719 0.5348 0.66751 0.0
C1941 C 0.85693 0.5668 0.68237 0.0
C1942 C 0.87976 0.5241 0.65071 0.0
C1943 C 0.88091 0.53363 0.63139 0.0
C1944 C 0.86572 0.55528 0.66503 0.0
C1945 C 0.87453 0.55413 0.62952 0.0
C1946 C 0.8612 0.58776 0.68489 0.0
C1947 C 0.83491 0.5673 0.7116 0.0
N1948 N 0.86733 0.5644 0.64623 0.0
N1949 N 0.84409 0.55715 0.6958 0.0
H1950 H 0.1743 0.91393 0.67844 0.0
H1951 H 0.07426 0.97399 0.64284 0.0
H1952 H 0.1151 0.8998 0.70487 0.0
H1953 H 0.12472 0.96075 0.60178 0.0
H1954 H 0.08973 0.95074 0.66843 0.0
H1955 H 0.15726 0.93557 0.65281 0.0
C1956 C 0.15771 0.9154 0.67886 0.0
C1957 C 0.14608 0.90501 0.69375 0.0
C1958 C 0.09726 0.9529 0.65374 0.0
C1959 C 0.12654 0.92995 0.66465 0.0
C1960 C 0.0885 0.96616 0.63918 0.0
C1961 C 0.0982 0.96928 0.62014 0.0
C1962 C 0.11604 0.94315 0.64934 0.0
C1963 C 0.11664 0.95874 0.6162 0.0
C1964 C 0.148 0.92768 0.66419 0.0
C1965 C 0.12461 0.90745 0.69354 0.0
N1966 N 0.12505 0.94634 0.63073 0.0
N1967 N 0.1155 0.91983 0.67931 0.0
H1968 H 0.59434 0.80965 0.82401 0.0
H1969 H 0.56415 0.84748 0.93544 0.0
H1970 H 0.63717 0.80992 0.87477 0.0
H1971 H 0.53256 0.86987 0.88148 0.0
H1972 H 0.58997 0.83162 0.91331 0.0
H1973 H 0.57072 0.83073 0.84439 0.0
C1974 C 0.59892 0.81442 0.8393 0.0
C1975 C 0.61768 0.80789 0.84777 0.0
C1976 C 0.57744 0.84009 0.90631 0.0
C1977 C 0.59061 0.83155 0.87121 0.0
C1978 C 0.5626 0.84898 0.91892 0.0
C1979 C 0.54614 0.85991 0.91026 0.0
C1980 C 0.57566 0.84184 0.88488 0.0
C1981 C 0.54501 0.86154 0.88876 0.0
C1982 C 0.58543 0.82641 0.85091 0.0
C1983 C 0.62285 0.81455 0.86763 0.0
N1984 N 0.5595 0.85243 0.87676 0.0
N1985 N 0.60924 0.82575 0.8788 0.0
H1986 H 0.99234 0.16756 0.36898 0.0
H1987 H 0.09917 0.22806 0.36065 0.0
H1988 H 0.04552 0.15273 0.40557 0.0
H1989 H 0.05594 0.22337 0.3105 0.0
H1990 H 0.07616 0.20729 0.38196 0.0
H1991 H 0.01178 0.19562 0.35274 0.0
C1992 C 0.0078 0.17087 0.37426 0.0
C1993 C 0.0173 0.15819 0.38888 0.0
C1994 C 0.07167 0.21092 0.36633 0.0
C1995 C 0.0397 0.18964 0.37007 0.0
C1996 C 0.08479 0.22275 0.35413 0.0
C1997 C 0.07958 0.22728 0.33367 0.0
C1998 C 0.05303 0.20379 0.35814 0.0
C1999 C 0.06069 0.22004 0.32611 0.0
C2000 C 0.01898 0.1866 0.36475 0.0
C2001 C 0.03761 0.16248 0.39462 0.0
N2002 N 0.04809 0.20864 0.33835 0.0
N2003 N 0.0482 0.1778 0.38513 0.0
H2004 H 0.43404 0.6649 0.9435 0.0
H2005 H 0.39634 0.71222 0.83755 0.0
H2006 H 0.45939 0.64635 0.88502 0.0
H2007 H 0.35878 0.71325 0.89226 0.0
H2008 H 0.42035 0.6891 0.85488 0.0
H2009 H 0.40714 0.68394 0.92537 0.0
C2010 C 0.43393 0.6648 0.92685 0.0
C2011 C 0.44905 0.6541 0.91575 0.0
C2012 C 0.40675 0.69421 0.86303 0.0
C2013 C 0.41838 0.67594 0.89494 0.0
C2014 C 0.39306 0.70745 0.85317 0.0
C2015 C 0.37558 0.71473 0.86352 0.0
C2016 C 0.40315 0.68848 0.88352 0.0
C2017 C 0.37205 0.70797 0.88371 0.0
C2018 C 0.41851 0.67558 0.91652 0.0
C2019 C 0.44805 0.65439 0.89419 0.0
N2020 N 0.38587 0.69541 0.89316 0.0
N2021 N 0.43309 0.66531 0.88448 0.0
H2022 H 0.98095 0.31047 0.42709 0.0
H2023 H 0.87401 0.26442 0.38745 0.0
H2024 H 0.92566 0.34648 0.42047 0.0
H2025 H 0.9327 0.24713 0.36195 0.0
H2026 H 0.89185 0.28714 0.4119 0.0
H2027 H 0.9619 0.27994 0.41527 0.0
C2028 C 0.96468 0.31178 0.42373 0.0
C2029 C 0.95482 0.33093 0.4245 0.0
C2030 C 0.90079 0.27788 0.40131 0.0
C2031 C 0.93308 0.29635 0.41144 0.0
C2032 C 0.89066 0.26487 0.38752 0.0
C2033 C 0.90198 0.25408 0.37269 0.0
C2034 C 0.9223 0.27968 0.40044 0.0
C2035 C 0.9235 0.25536 0.37314 0.0
C2036 C 0.95389 0.29446 0.41694 0.0
C2037 C 0.9338 0.33195 0.41983 0.0
N2038 N 0.933 0.26807 0.38671 0.0
N2039 N 0.92361 0.31491 0.4134 0.0
H2040 H 0.57413 0.21053 0.68474 0.0
H2041 H 0.53185 0.16677 0.57759 0.0
H2042 H 0.60016 0.22377 0.6252 0.0
H2043 H 0.51713 0.13798 0.6356 0.0
H2044 H 0.55223 0.19224 0.59579 0.0
H2045 H 0.54833 0.18828 0.66786 0.0
C2046 C 0.57416 0.20901 0.66816 0.0
C2047 C 0.58928 0.21878 0.65629 0.0
C2048 C 0.54453 0.18038 0.60459 0.0
C2049 C 0.56017 0.19372 0.63707 0.0
C2050 C 0.53288 0.16579 0.59418 0.0
C2051 C 0.52293 0.15004 0.60505 0.0
C2052 C 0.54632 0.17936 0.62609 0.0
C2053 C 0.52472 0.14974 0.6266 0.0
C2054 C 0.55962 0.19626 0.65857 0.0
C2055 C 0.58886 0.21629 0.6349 0.0
N2056 N 0.53628 0.16416 0.63645 0.0
N2057 N 0.57461 0.20403 0.62601 0.0
H2058 H 0.3733 0.18347 0.67842 0.0
H2059 H 0.43317 0.14496 0.58022 0.0
H2060 H 0.36643 0.21201 0.619 0.0
H2061 H 0.43034 0.11078 0.63707 0.0
H2062 H 0.40565 0.16725 0.59259 0.0
H2063 H 0.39046 0.15433 0.66229 0.0
C2064 C 0.37511 0.18334 0.66185 0.0
C2065 C 0.36866 0.20013 0.64997 0.0
C2066 C 0.41081 0.1547 0.60225 0.0
C2067 C 0.38877 0.16711 0.63142 0.0
C2068 C 0.42661 0.14199 0.59524 0.0
C2069 C 0.43433 0.12618 0.6078 0.0
C2070 C 0.40282 0.15175 0.62207 0.0
C2071 C 0.42502 0.12289 0.62697 0.0
C2072 C 0.38491 0.16672 0.65264 0.0
C2073 C 0.37121 0.19928 0.62862 0.0
N2074 N 0.40997 0.13578 0.63364 0.0
N2075 N 0.38148 0.18318 0.62001 0.0
H2076 H 0.48955 0.34584 0.62137 0.0
H2077 H 0.38497 0.28398 0.63668 0.0
H2078 H 0.45214 0.32314 0.57147 0.0
H2079 H 0.43104 0.28631 0.68447 0.0
H2080 H 0.408 0.30246 0.61389 0.0
H2081 H 0.46718 0.3277 0.64581 0.0
C2082 C 0.47667 0.33704 0.61555 0.0
C2083 C 0.47269 0.33602 0.59432 0.0
C2084 C 0.41313 0.29897 0.62935 0.0
C2085 C 0.44704 0.3155 0.62217 0.0
C2086 C 0.39992 0.28848 0.64248 0.0
C2087 C 0.40607 0.28349 0.66259 0.0
C2088 C 0.43268 0.30479 0.63628 0.0
C2089 C 0.42569 0.28978 0.66909 0.0
C2090 C 0.46398 0.32667 0.6295 0.0
C2091 C 0.45584 0.32435 0.58766 0.0
N2092 N 0.43833 0.30016 0.65596 0.0
N2093 N 0.4436 0.31468 0.60152 0.0
H2094 H 0.58285 0.36778 0.59276 0.0
H2095 H 0.62374 0.25281 0.59765 0.0
H2096 H 0.55392 0.31732 0.56084 0.0
H2097 H 0.65136 0.30381 0.6295 0.0
H2098 H 0.60294 0.27709 0.57755 0.0
H2099 H 0.61207 0.34565 0.60054 0.0
C2100 C 0.58268 0.35205 0.5873 0.0
C2101 C 0.56573 0.3443 0.57644 0.0
C2102 C 0.61405 0.28302 0.58844 0.0
C2103 C 0.59924 0.31876 0.58536 0.0
C2104 C 0.62614 0.26918 0.59964 0.0
C2105 C 0.63935 0.27645 0.61502 0.0
C2106 C 0.61512 0.30416 0.59293 0.0
C2107 C 0.64146 0.29771 0.61758 0.0
C2108 C 0.59945 0.33942 0.59166 0.0
C2109 C 0.56655 0.32388 0.56946 0.0
N2110 N 0.62923 0.31081 0.60689 0.0
N2111 N 0.5829 0.31172 0.57428 0.0
H2112 H 0.91974 0.57408 0.88442 0.0
H2113 H 0.82439 0.58201 0.8083 0.0
H2114 H 0.87265 0.52757 0.88063 0.0
H2115 H 0.87072 0.62904 0.81521 0.0
H2116 H 0.83909 0.56376 0.83771 0.0
H2117 H 0.89896 0.59657 0.86287 0.0
C2118 C 0.9048 0.56876 0.8793 0.0
C2119 C 0.89796 0.54889 0.88406 0.0
C2120 C 0.8459 0.57817 0.83291 0.0
C2121 C 0.87426 0.57436 0.85895 0.0
C2122 C 0.83757 0.58858 0.81607 0.0
C2123 C 0.84653 0.60695 0.8091 0.0
C2124 C 0.86334 0.58617 0.84279 0.0
C2125 C 0.86345 0.61482 0.81988 0.0
C2126 C 0.89295 0.58158 0.86694 0.0
C2127 C 0.87845 0.5428 0.87724 0.0
N2128 N 0.8714 0.60429 0.83606 0.0
N2129 N 0.86739 0.55538 0.86467 0.0
H2130 H 0.81631 0.90503 0.48643 0.0
H2131 H 0.77773 0.88405 0.37132 0.0
H2132 H 0.83928 0.93838 0.43405 0.0
H2133 H 0.77473 0.83871 0.4197 0.0
H2134 H 0.79427 0.90792 0.39527 0.0
H2135 H 0.79394 0.88506 0.46343 0.0
C2136 C 0.81595 0.90872 0.47018 0.0
C2137 C 0.82921 0.92365 0.4621 0.0
C2138 C 0.78996 0.89276 0.40063 0.0
C2139 C 0.80436 0.90051 0.4357 0.0
C2140 C 0.78057 0.87909 0.38697 0.0
C2141 C 0.775 0.85925 0.39345 0.0
C2142 C 0.79353 0.88671 0.42105 0.0
C2143 C 0.77897 0.85375 0.41396 0.0
C2144 C 0.80349 0.8971 0.45704 0.0
C2145 C 0.82888 0.9273 0.44085 0.0
N2146 N 0.78793 0.86742 0.42705 0.0
N2147 N 0.81671 0.91576 0.42836 0.0
H2148 H 0.10311 0.87471 0.78533 0.0
H2149 H 0.11514 0.97298 0.85832 0.0
H2150 H 0.15762 0.91254 0.78729 0.0
H2151 H 0.05641 0.94612 0.84293 0.0
H2152 H 0.13204 0.94765 0.83629 0.0
H2153 H 0.08686 0.89758 0.81045 0.0
C2154 C 0.11171 0.88773 0.79114 0.0
C2155 C 0.1317 0.8918 0.78412 0.0
C2156 C 0.11546 0.94728 0.8378 0.0
C2157 C 0.11326 0.91792 0.81284 0.0
C2158 C 0.1058 0.96168 0.85042 0.0
C2159 C 0.08431 0.96173 0.85238 0.0
C2160 C 0.10358 0.93271 0.82719 0.0
C2161 C 0.07301 0.94673 0.84175 0.0
C2162 C 0.1024 0.9008 0.80541 0.0
C2163 C 0.14212 0.9089 0.79216 0.0
N2164 N 0.08278 0.93282 0.8296 0.0
N2165 N 0.13277 0.92133 0.80608 0.0
H2166 H 0.1214 0.62346 0.46094 0.0
H2167 H 0.22991 0.62262 0.40454 0.0
H2168 H 0.16233 0.57128 0.46429 0.0
H2169 H 0.20084 0.67849 0.42544 0.0
H2170 H 0.20339 0.60264 0.4223 0.0
H2171 H 0.1482 0.64286 0.44311 0.0
C2172 C 0.13593 0.61598 0.45771 0.0
C2173 C 0.13963 0.5957 0.46412 0.0
C2174 C 0.20292 0.61926 0.42308 0.0
C2175 C 0.17035 0.61788 0.44376 0.0
C2176 C 0.21801 0.63068 0.41295 0.0
C2177 C 0.21759 0.65226 0.41356 0.0
C2178 C 0.18706 0.62949 0.43353 0.0
C2179 C 0.20182 0.66189 0.4247 0.0
C2180 C 0.15127 0.62714 0.4477 0.0
C2181 C 0.15883 0.58689 0.45965 0.0
N2182 N 0.18705 0.65044 0.43408 0.0
N2183 N 0.17348 0.59801 0.44967 0.0
H2184 H 0.85837 0.36485 0.69453 0.0
H2185 H 0.85115 0.46765 0.62735 0.0
H2186 H 0.81738 0.41492 0.70952 0.0
H2187 H 0.89943 0.42241 0.62228 0.0
H2188 H 0.83404 0.44582 0.65302 0.0
H2189 H 0.86908 0.38324 0.6638 0.0
C2190 C 0.85156 0.37972 0.69135 0.0
C2191 C 0.83714 0.38848 0.7048 0.0
C2192 C 0.84822 0.44058 0.64604 0.0
C2193 C 0.84941 0.40968 0.66947 0.0
C2194 C 0.85788 0.45292 0.63129 0.0
C2195 C 0.87679 0.44684 0.62285 0.0
C2196 C 0.85751 0.42203 0.65213 0.0
C2197 C 0.88497 0.42774 0.62858 0.0
C2198 C 0.85768 0.39021 0.67374 0.0
C2199 C 0.82868 0.40769 0.69967 0.0
N2200 N 0.87535 0.41609 0.64294 0.0
N2201 N 0.83506 0.41774 0.68245 0.0
H2202 H 0.65783 0.91414 0.54383 0.0
H2203 H 0.69764 0.80339 0.578 0.0
H2204 H 0.61901 0.86032 0.54387 0.0
H2205 H 0.72722 0.85955 0.59736 0.0
H2206 H 0.67018 0.82377 0.56229 0.0
H2207 H 0.68477 0.89421 0.56098 0.0
C2208 C 0.65491 0.89818 0.54759 0.0
C2209 C 0.63614 0.88888 0.54241 0.0
C2210 C 0.68268 0.83161 0.56999 0.0
C2211 C 0.66701 0.86594 0.5617 0.0
C2212 C 0.69843 0.82 0.57884 0.0
C2213 C 0.71475 0.82979 0.589 0.0
C2214 C 0.68339 0.85316 0.57108 0.0
C2215 C 0.7149 0.85137 0.58972 0.0
C2216 C 0.67029 0.88683 0.55737 0.0
C2217 C 0.63321 0.86814 0.54765 0.0
N2218 N 0.6995 0.86234 0.5808 0.0
N2219 N 0.64855 0.85731 0.55684 0.0
H2220 H 0.08331 0.08375 0.62239 0.0
H2221 H 0.18445 0.08827 0.68979 0.0
H2222 H 0.13181 0.03902 0.6154 0.0
H2223 H 0.14598 0.14124 0.67868 0.0
H2224 H 0.16598 0.06977 0.66265 0.0
H2225 H 0.10626 0.10489 0.64322 0.0
C2226 C 0.09888 0.07847 0.6251 0.0
C2227 C 0.10564 0.05956 0.61723 0.0
C2228 C 0.16181 0.08554 0.66598 0.0
C2229 C 0.13196 0.08358 0.64135 0.0
C2230 C 0.17233 0.09611 0.68148 0.0
C2231 C 0.16665 0.1163 0.68667 0.0
C2232 C 0.14531 0.09512 0.65584 0.0
C2233 C 0.15085 0.12568 0.67532 0.0
C2234 C 0.11201 0.09058 0.63694 0.0
C2235 C 0.12601 0.05352 0.62115 0.0
N2236 N 0.14056 0.11493 0.66066 0.0
N2237 N 0.13838 0.06536 0.6332 0.0
H2238 H 0.39417 0.60675 0.57661 0.0
H2239 H 0.28935 0.66625 0.57451 0.0
H2240 H 0.35094 0.5966 0.52733 0.0
H2241 H 0.30947 0.63801 0.63109 0.0
H2242 H 0.31583 0.64679 0.55589 0.0
H2243 H 0.36688 0.62406 0.59633 0.0
C2244 C 0.37892 0.6081 0.57002 0.0
C2245 C 0.37469 0.60019 0.55041 0.0
C2246 C 0.31437 0.6449 0.57238 0.0
C2247 C 0.34389 0.62033 0.57246 0.0
C2248 C 0.29942 0.65604 0.58299 0.0
C2249 C 0.29728 0.65365 0.60431 0.0
C2250 C 0.32761 0.63181 0.58328 0.0
C2251 C 0.31061 0.64015 0.61461 0.0
C2252 C 0.36344 0.61788 0.58125 0.0
C2253 C 0.35473 0.60233 0.54249 0.0
N2254 N 0.32544 0.62988 0.60402 0.0
N2255 N 0.34011 0.61249 0.55343 0.0
H2256 H 0.87156 0.85482 0.50121 0.0
H2257 H 0.80119 0.80851 0.56813 0.0
H2258 H 0.87867 0.89936 0.5497 0.0
H2259 H 0.82311 0.85179 0.61336 0.0
H2260 H 0.82692 0.8211 0.54403 0.0
H2261 H 0.85266 0.83254 0.52506 0.0
C2262 C 0.86958 0.85962 0.51704 0.0
C2263 C 0.87652 0.87897 0.5235 0.0
C2264 C 0.8265 0.82767 0.55927 0.0
C2265 C 0.85417 0.85412 0.55073 0.0
C2266 C 0.81161 0.82052 0.57309 0.0
C2267 C 0.80979 0.82924 0.59278 0.0
C2268 C 0.83977 0.84369 0.5652 0.0
C2269 C 0.82376 0.8447 0.59831 0.0
C2270 C 0.85841 0.84708 0.53063 0.0
C2271 C 0.8734 0.8846 0.54407 0.0
N2272 N 0.83796 0.8515 0.58457 0.0
N2273 N 0.86233 0.87238 0.55683 0.0
H2274 H 0.85287 0.12955 0.97888 0.0
H2275 H 0.78702 0.11236 0.87727 0.0
H2276 H 0.83498 0.06933 0.95752 0.0
H2277 H 0.78395 0.16868 0.91225 0.0
H2278 H 0.8083 0.09717 0.90427 0.0
H2279 H 0.83111 0.14501 0.95232 0.0
C2280 C 0.84437 0.11958 0.9686 0.0
C2281 C 0.84573 0.09812 0.97039 0.0
C2282 C 0.80294 0.11284 0.90603 0.0
C2283 C 0.82103 0.11571 0.93992 0.0
C2284 C 0.79089 0.12157 0.8906 0.0
C2285 C 0.7837 0.14183 0.89253 0.0
C2286 C 0.80812 0.12454 0.92339 0.0
C2287 C 0.78912 0.15299 0.91019 0.0
C2288 C 0.83192 0.12843 0.95352 0.0
C2289 C 0.83432 0.08594 0.95672 0.0
N2290 N 0.80112 0.14423 0.92491 0.0
N2291 N 0.82256 0.09491 0.94195 0.0
H2292 H 0.31148 0.92685 0.27641 0.0
H2293 H 0.37209 0.92637 0.38111 0.0
H2294 H 0.34295 0.8717 0.29566 0.0
H2295 H 0.38162 0.97519 0.3372 0.0
H2296 H 0.35349 0.90679 0.35449 0.0
H2297 H 0.32949 0.94603 0.30358 0.0
C2298 C 0.32212 0.91882 0.28641 0.0
C2299 C 0.32594 0.89778 0.28379 0.0
C2300 C 0.35968 0.92182 0.35083 0.0
C2301 C 0.3459 0.91931 0.31497 0.0
C2302 C 0.37015 0.93296 0.36593 0.0
C2303 C 0.37844 0.95227 0.36119 0.0
C2304 C 0.35697 0.93046 0.33123 0.0
C2305 C 0.3756 0.96022 0.34133 0.0
C2306 C 0.33235 0.92972 0.30179 0.0
C2307 C 0.33982 0.88799 0.29711 0.0
N2308 N 0.36488 0.94937 0.3271 0.0
N2309 N 0.34919 0.89882 0.31233 0.0
H2310 H 0.18776 0.3515 0.87792 0.0
H2311 H 0.15162 0.35668 0.99318 0.0
H2312 H 0.21823 0.31687 0.92566 0.0
H2313 H 0.1147 0.37696 0.9421 0.0
H2314 H 0.17365 0.33758 0.96923 0.0
H2315 H 0.15923 0.35799 0.90125 0.0
C2316 C 0.18846 0.34527 0.89335 0.0
C2317 C 0.20555 0.33388 0.89994 0.0
C2318 C 0.16028 0.34556 0.96332 0.0
C2319 C 0.17278 0.34124 0.92688 0.0
C2320 C 0.14751 0.35615 0.97703 0.0
C2321 C 0.13127 0.36816 0.96952 0.0
C2322 C 0.15686 0.34741 0.94203 0.0
C2323 C 0.12698 0.36765 0.94843 0.0
C2324 C 0.17204 0.3488 0.90664 0.0
C2325 C 0.20542 0.32589 0.92002 0.0
N2326 N 0.13994 0.35782 0.93537 0.0
N2327 N 0.18941 0.32997 0.9329 0.0
H2328 H 0.08684 0.02733 0.82821 0.0
H2329 H 0.14201 0.12787 0.78848 0.0
H2330 H 0.10403 0.0749 0.8711 0.0
H2331 H 0.16472 0.06791 0.77149 0.0
H2332 H 0.11841 0.11151 0.81309 0.0
H2333 H 0.10588 0.04543 0.8011 0.0
C2334 C 0.09425 0.04181 0.83179 0.0
C2335 C 0.09396 0.0497 0.85185 0.0
C2336 C 0.12843 0.10202 0.80376 0.0
C2337 C 0.11529 0.07039 0.82105 0.0
C2338 C 0.14175 0.11126 0.78971 0.0
C2339 C 0.15527 0.09913 0.77807 0.0
C2340 C 0.12827 0.08057 0.80561 0.0
C2341 C 0.15456 0.07772 0.78031 0.0
C2342 C 0.10517 0.05198 0.8164 0.0
C2343 C 0.10401 0.06835 0.8558 0.0
N2344 N 0.14114 0.06905 0.79378 0.0
N2345 N 0.11425 0.07818 0.84046 0.0
H2346 H 0.61345 0.09757 0.0754 0.0
H2347 H 0.68995 0.19005 0.09574 0.0
H2348 H 0.61692 0.14973 0.03458 0.0
H2349 H 0.67321 0.14509 0.14167 0.0
H2350 H 0.66251 0.17689 0.07351 0.0
H2351 H 0.63416 0.11604 0.10046 0.0
C2352 C 0.61841 0.11308 0.07185 0.0
C2353 C 0.61364 0.12213 0.05289 0.0
C2354 C 0.66473 0.17011 0.08856 0.0
C2355 C 0.63775 0.14328 0.08135 0.0
C2356 C 0.68042 0.17754 0.10122 0.0
C2357 C 0.68406 0.16848 0.12049 0.0
C2358 C 0.65275 0.15341 0.09518 0.0
C2359 C 0.67114 0.15242 0.12686 0.0
C2360 C 0.63022 0.12364 0.08617 0.0
C2361 C 0.62029 0.14228 0.04909 0.0
N2362 N 0.65623 0.1453 0.11417 0.0
N2363 N 0.63236 0.15212 0.06309 0.0
H2364 H 0.3679 0.02621 0.15111 0.0
H2365 H 0.36789 0.11293 0.23726 0.0
H2366 H 0.42337 0.04345 0.18317 0.0
H2367 H 0.31319 0.08204 0.21584 0.0
H2368 H 0.38885 0.08885 0.21721 0.0
H2369 H 0.348 0.04756 0.17438 0.0
C2370 C 0.37591 0.03448 0.16316 0.0
C2371 C 0.39735 0.03318 0.16513 0.0
C2372 C 0.37227 0.08731 0.21702 0.0
C2373 C 0.37454 0.05792 0.19187 0.0
C2374 C 0.36028 0.1011 0.22835 0.0
C2375 C 0.33872 0.09959 0.22811 0.0
C2376 C 0.36261 0.07206 0.20522 0.0
C2377 C 0.32972 0.08386 0.21645 0.0
C2378 C 0.36449 0.04663 0.1765 0.0
C2379 C 0.40685 0.04404 0.18116 0.0
N2380 N 0.3417 0.07083 0.20539 0.0
N2381 N 0.39538 0.0562 0.19383 0.0
H2382 H 0.65342 0.41215 0.24493 0.0
H2383 H 0.64592 0.47555 0.14087 0.0
H2384 H 0.70536 0.44007 0.21447 0.0
H2385 H 0.59276 0.4692 0.18008 0.0
H2386 H 0.66712 0.46017 0.16733 0.0
H2387 H 0.63027 0.43084 0.22151 0.0
C2388 C 0.65997 0.42231 0.23347 0.0
C2389 C 0.68143 0.42441 0.2316 0.0
C2390 C 0.65086 0.46214 0.17031 0.0
C2391 C 0.65504 0.4456 0.20473 0.0
C2392 C 0.63863 0.47083 0.15509 0.0
C2393 C 0.61742 0.47353 0.15814 0.0
C2394 C 0.64195 0.45571 0.18885 0.0
C2395 C 0.60903 0.46737 0.17709 0.0
C2396 C 0.64672 0.43298 0.22016 0.0
C2397 C 0.68899 0.43784 0.2165 0.0
N2398 N 0.62131 0.4585 0.19171 0.0
N2399 N 0.67585 0.44771 0.20359 0.0
loop_
_geom_bond_atom_site_label_1
_geom_bond_atom_site_label_2
_geom_bond_distance
_geom_bond_site_symmetry_2
_ccdc_geom_bond_type
C0 O2 1.247 . S
C0 O4 1.258 . S
C1 O8 1.247 . S
C1 O9 1.258 . S
O2 C0 1.247 . S
O2 Zn3 2.028 . S
Zn3 O2 2.028 . S
Zn3 O7 2.035 . S
Zn3 O9 2.035 . S
Zn3 O10 2.028 . S
O4 C0 1.258 . S
O4 Zn5 2.035 . S
Zn5 O4 2.035 . S
Zn5 O6 2.028 . S
Zn5 O8 2.028 . S
Zn5 O11 2.035 . S
O6 Zn5 2.028 . S
O6 C12 1.247 . S
O7 Zn3 2.035 . S
O7 C12 1.258 . S
O8 C1 1.247 . S
O8 Zn5 2.028 . S
O9 C1 1.258 . S
O9 Zn3 2.035 . S
O10 Zn3 2.028 . S
O10 C13 1.247 . S
O11 Zn5 2.035 . S
O11 C13 1.258 . S
C12 O6 1.247 . S
C12 O7 1.258 . S
C13 O10 1.247 . S
C13 O11 1.258 . S
C14 O16 1.247 . S
C14 O18 1.258 . S
C15 O22 1.247 . S
C15 O23 1.258 . S
O16 C14 1.247 . S
O16 Zn17 2.028 . S
Zn17 O16 2.028 . S
Zn17 O21 2.035 . S
Zn17 O23 2.035 . S
Zn17 O24 2.028 . S
O18 C14 1.258 . S
O18 Zn19 2.035 . S
Zn19 O18 2.035 . S
Zn19 O20 2.028 . S
Zn19 O22 2.028 . S
Zn19 O25 2.035 . S
O20 Zn19 2.028 . S
O20 C26 1.247 . S
O21 Zn17 2.035 . S
O21 C26 1.258 . S
O22 C15 1.247 . S
O22 Zn19 2.028 . S
O23 C15 1.258 . S
O23 Zn17 2.035 . S
O24 Zn17 2.028 . S
O24 C27 1.247 . S
O25 Zn19 2.035 . S
O25 C27 1.258 . S
C26 O20 1.247 . S
C26 O21 1.258 . S
C27 O24 1.247 . S
C27 O25 1.258 . S
C28 O30 1.247 . S
C28 O32 1.258 . S
C29 O36 1.247 . S
C29 O37 1.258 . S
O30 C28 1.247 . S
O30 Zn31 2.028 . S
Zn31 O30 2.028 . S
Zn31 O35 2.035 . S
Zn31 O37 2.035 . S
Zn31 O38 2.028 . S
O32 C28 1.258 . S
O32 Zn33 2.035 . S
Zn33 O32 2.035 . S
Zn33 O34 2.028 . S
Zn33 O36 2.028 . S
Zn33 O39 2.035 . S
O34 Zn33 2.028 . S
O34 C40 1.247 . S
O35 Zn31 2.035 . S
O35 C40 1.258 . S
O36 C29 1.247 . S
O36 Zn33 2.028 . S
O37 C29 1.258 . S
O37 Zn31 2.035 . S
O38 Zn31 2.028 . S
O38 C41 1.247 . S
O39 Zn33 2.035 . S
O39 C41 1.258 . S
C40 O34 1.247 . S
C40 O35 1.258 . S
C41 O38 1.247 . S
C41 O39 1.258 . S
C42 O44 1.247 . S
C42 O46 1.258 . S
C43 O50 1.247 . S
C43 O51 1.258 . S
O44 C42 1.247 . S
O44 Zn45 2.028 . S
Zn45 O44 2.028 . S
Zn45 O49 2.035 . S
Zn45 O51 2.035 . S
Zn45 O52 2.028 . S
O46 C42 1.258 . S
O46 Zn47 2.035 . S
Zn47 O46 2.035 . S
Zn47 O48 2.028 . S
Zn47 O50 2.028 . S
Zn47 O53 2.035 . S
O48 Zn47 2.028 . S
O48 C54 1.247 . S
O49 Zn45 2.035 . S
O49 C54 1.258 . S
O50 C43 1.247 . S
O50 Zn47 2.028 . S
O51 C43 1.258 . S
O51 Zn45 2.035 . S
O52 Zn45 2.028 . S
O52 C55 1.247 . S
O53 Zn47 2.035 . S
O53 C55 1.258 . S
C54 O48 1.247 . S
C54 O49 1.258 . S
C55 O52 1.247 . S
C55 O53 1.258 . S
C56 O58 1.247 . S
C56 O60 1.258 . S
C57 O64 1.247 . S
C57 O65 1.258 . S
O58 C56 1.247 . S
O58 Zn59 2.028 . S
Zn59 O58 2.028 . S
Zn59 O63 2.035 . S
Zn59 O65 2.035 . S
Zn59 O66 2.028 . S
O60 C56 1.258 . S
O60 Zn61 2.035 . S
Zn61 O60 2.035 . S
Zn61 O62 2.028 . S
Zn61 O64 2.028 . S
Zn61 O67 2.035 . S
O62 Zn61 2.028 . S
O62 C68 1.247 . S
O63 Zn59 2.035 . S
O63 C68 1.258 . S
O64 C57 1.247 . S
O64 Zn61 2.028 . S
O65 C57 1.258 . S
O65 Zn59 2.035 . S
O66 Zn59 2.028 . S
O66 C69 1.247 . S
O67 Zn61 2.035 . S
O67 C69 1.258 . S
C68 O62 1.247 . S
C68 O63 1.258 . S
C69 O66 1.247 . S
C69 O67 1.258 . S
C70 O72 1.247 . S
C70 O74 1.258 . S
C71 O78 1.247 . S
C71 O79 1.258 . S
O72 C70 1.247 . S
O72 Zn73 2.028 . S
Zn73 O72 2.028 . S
Zn73 O77 2.035 . S
Zn73 O79 2.035 1_455 S
Zn73 O80 2.028 1_455 S
O74 C70 1.258 . S
O74 Zn75 2.035 1_455 S
Zn75 O74 2.035 1_655 S
Zn75 O76 2.028 1_655 S
Zn75 O78 2.028 . S
Zn75 O81 2.035 . S
O76 Zn75 2.028 1_455 S
O76 C82 1.247 . S
O77 Zn73 2.035 . S
O77 C82 1.258 . S
O78 C71 1.247 . S
O78 Zn75 2.028 . S
O79 C71 1.258 . S
O79 Zn73 2.035 1_655 S
O80 Zn73 2.028 1_655 S
O80 C83 1.247 . S
O81 Zn75 2.035 . S
O81 C83 1.258 . S
C82 O76 1.247 . S
C82 O77 1.258 . S
C83 O80 1.247 . S
C83 O81 1.258 . S
C84 O86 1.247 . S
C84 O88 1.258 . S
C85 O92 1.247 . S
C85 O93 1.258 . S
O86 C84 1.247 . S
O86 Zn87 2.028 . S
Zn87 O86 2.028 . S
Zn87 O91 2.035 . S
Zn87 O93 2.035 . S
Zn87 O94 2.028 . S
O88 C84 1.258 . S
O88 Zn89 2.035 . S
Zn89 O88 2.035 . S
Zn89 O90 2.028 . S
Zn89 O92 2.028 . S
Zn89 O95 2.035 . S
O90 Zn89 2.028 . S
O90 C96 1.247 . S
O91 Zn87 2.035 . S
O91 C96 1.258 . S
O92 C85 1.247 . S
O92 Zn89 2.028 . S
O93 C85 1.258 . S
O93 Zn87 2.035 . S
O94 Zn87 2.028 . S
O94 C97 1.247 . S
O95 Zn89 2.035 . S
O95 C97 1.258 . S
C96 O90 1.247 . S
C96 O91 1.258 . S
C97 O94 1.247 . S
C97 O95 1.258 . S
C98 O100 1.247 . S
C98 O102 1.258 . S
C99 O106 1.247 . S
C99 O107 1.258 . S
O100 C98 1.247 . S
O100 Zn101 2.028 . S
Zn101 O100 2.028 . S
Zn101 O105 2.035 . S
Zn101 O107 2.035 1_655 S
Zn101 O108 2.028 1_655 S
O102 C98 1.258 . S
O102 Zn103 2.035 1_655 S
Zn103 O102 2.035 1_455 S
Zn103 O104 2.028 1_455 S
Zn103 O106 2.028 . S
Zn103 O109 2.035 . S
O104 Zn103 2.028 1_655 S
O104 C110 1.247 . S
O105 Zn101 2.035 . S
O105 C110 1.258 . S
O106 C99 1.247 . S
O106 Zn103 2.028 . S
O107 C99 1.258 . S
O107 Zn101 2.035 1_455 S
O108 Zn101 2.028 1_455 S
O108 C111 1.247 . S
O109 Zn103 2.035 . S
O109 C111 1.258 . S
C110 O104 1.247 . S
C110 O105 1.258 . S
C111 O108 1.247 . S
C111 O109 1.258 . S
C112 O114 1.247 . S
C112 O116 1.258 . S
C113 O120 1.247 . S
C113 O121 1.258 . S
O114 C112 1.247 . S
O114 Zn115 2.028 . S
Zn115 O114 2.028 . S
Zn115 O119 2.035 . S
Zn115 O121 2.035 . S
Zn115 O122 2.028 . S
O116 C112 1.258 . S
O116 Zn117 2.035 . S
Zn117 O116 2.035 . S
Zn117 O118 2.028 . S
Zn117 O120 2.028 . S
Zn117 O123 2.035 . S
O118 Zn117 2.028 . S
O118 C124 1.247 . S
O119 Zn115 2.035 . S
O119 C124 1.258 . S
O120 C113 1.247 . S
O120 Zn117 2.028 . S
O121 C113 1.258 . S
O121 Zn115 2.035 . S
O122 Zn115 2.028 . S
O122 C125 1.247 . S
O123 Zn117 2.035 . S
O123 C125 1.258 . S
C124 O118 1.247 . S
C124 O119 1.258 . S
C125 O122 1.247 . S
C125 O123 1.258 . S
C126 O128 1.247 . S
C126 O130 1.258 . S
C127 O134 1.247 . S
C127 O135 1.258 . S
O128 C126 1.247 . S
O128 Zn129 2.028 . S
Zn129 O128 2.028 . S
Zn129 O133 2.035 . S
Zn129 O135 2.035 1_556 S
Zn129 O136 2.028 1_556 S
O130 C126 1.258 . S
O130 Zn131 2.035 1_556 S
Zn131 O130 2.035 1_554 S
Zn131 O132 2.028 1_554 S
Zn131 O134 2.028 . S
Zn131 O137 2.035 . S
O132 Zn131 2.028 1_556 S
O132 C138 1.247 . S
O133 Zn129 2.035 . S
O133 C138 1.258 . S
O134 C127 1.247 . S
O134 Zn131 2.028 . S
O135 C127 1.258 . S
O135 Zn129 2.035 1_554 S
O136 Zn129 2.028 1_554 S
O136 C139 1.247 . S
O137 Zn131 2.035 . S
O137 C139 1.258 . S
C138 O132 1.247 . S
C138 O133 1.258 . S
C139 O136 1.247 . S
C139 O137 1.258 . S
C140 O142 1.247 . S
C140 O144 1.258 . S
C141 O148 1.247 . S
C141 O149 1.258 . S
O142 C140 1.247 . S
O142 Zn143 2.028 . S
Zn143 O142 2.028 . S
Zn143 O147 2.035 . S
Zn143 O149 2.035 . S
Zn143 O150 2.028 . S
O144 C140 1.258 . S
O144 Zn145 2.035 . S
Zn145 O144 2.035 . S
Zn145 O146 2.028 . S
Zn145 O148 2.028 . S
Zn145 O151 2.035 . S
O146 Zn145 2.028 . S
O146 C152 1.247 . S
O147 Zn143 2.035 . S
O147 C152 1.258 . S
O148 C141 1.247 . S
O148 Zn145 2.028 . S
O149 C141 1.258 . S
O149 Zn143 2.035 . S
O150 Zn143 2.028 . S
O150 C153 1.247 . S
O151 Zn145 2.035 . S
O151 C153 1.258 . S
C152 O146 1.247 . S
C152 O147 1.258 . S
C153 O150 1.247 . S
C153 O151 1.258 . S
C154 O156 1.247 . S
C154 O158 1.258 . S
C155 O162 1.247 . S
C155 O163 1.258 . S
O156 C154 1.247 . S
O156 Zn157 2.028 1_554 S
Zn157 O156 2.028 1_556 S
Zn157 O161 2.035 1_556 S
Zn157 O163 2.035 . S
Zn157 O164 2.028 . S
O158 C154 1.258 . S
O158 Zn159 2.035 . S
Zn159 O158 2.035 . S
Zn159 O160 2.028 . S
Zn159 O162 2.028 1_554 S
Zn159 O165 2.035 1_554 S
O160 Zn159 2.028 . S
O160 C166 1.247 . S
O161 Zn157 2.035 1_554 S
O161 C166 1.258 . S
O162 C155 1.247 . S
O162 Zn159 2.028 1_556 S
O163 C155 1.258 . S
O163 Zn157 2.035 . S
O164 Zn157 2.028 . S
O164 C167 1.247 . S
O165 Zn159 2.035 1_556 S
O165 C167 1.258 . S
C166 O160 1.247 . S
C166 O161 1.258 . S
C167 O164 1.247 . S
C167 O165 1.258 . S
C168 O170 1.247 . S
C168 O172 1.258 . S
C169 O176 1.247 . S
C169 O177 1.258 . S
O170 C168 1.247 . S
O170 Zn171 2.028 . S
Zn171 O170 2.028 . S
Zn171 O175 2.035 . S
Zn171 O177 2.035 . S
Zn171 O178 2.028 . S
O172 C168 1.258 . S
O172 Zn173 2.035 . S
Zn173 O172 2.035 . S
Zn173 O174 2.028 . S
Zn173 O176 2.028 . S
Zn173 O179 2.035 . S
O174 Zn173 2.028 . S
O174 C180 1.247 . S
O175 Zn171 2.035 . S
O175 C180 1.258 . S
O176 C169 1.247 . S
O176 Zn173 2.028 . S
O177 C169 1.258 . S
O177 Zn171 2.035 . S
O178 Zn171 2.028 . S
O178 C181 1.247 . S
O179 Zn173 2.035 . S
O179 C181 1.258 . S
C180 O174 1.247 . S
C180 O175 1.258 . S
C181 O178 1.247 . S
C181 O179 1.258 . S
C182 O184 1.247 . S
C182 O186 1.258 . S
C183 O190 1.247 . S
C183 O191 1.258 . S
O184 C182 1.247 . S
O184 Zn185 2.028 . S
Zn185 O184 2.028 . S
Zn185 O189 2.035 . S
Zn185 O191 2.035 1_554 S
Zn185 O192 2.028 1_554 S
O186 C182 1.258 . S
O186 Zn187 2.035 1_554 S
Zn187 O186 2.035 1_556 S
Zn187 O188 2.028 1_556 S
Zn187 O190 2.028 . S
Zn187 O193 2.035 . S
O188 Zn187 2.028 1_554 S
O188 C194 1.247 . S
O189 Zn185 2.035 . S
O189 C194 1.258 . S
O190 C183 1.247 . S
O190 Zn187 2.028 . S
O191 C183 1.258 . S
O191 Zn185 2.035 1_556 S
O192 Zn185 2.028 1_556 S
O192 C195 1.247 . S
O193 Zn187 2.035 . S
O193 C195 1.258 . S
C194 O188 1.247 . S
C194 O189 1.258 . S
C195 O192 1.247 . S
C195 O193 1.258 . S
C196 O198 1.247 . S
C196 O200 1.258 . S
C197 O204 1.247 . S
C197 O205 1.258 . S
O198 C196 1.247 . S
O198 Zn199 2.028 . S
Zn199 O198 2.028 . S
Zn199 O203 2.035 . S
Zn199 O205 2.035 . S
Zn199 O206 2.028 . S
O200 C196 1.258 . S
O200 Zn201 2.035 . S
Zn201 O200 2.035 . S
Zn201 O202 2.028 . S
Zn201 O204 2.028 . S
Zn201 O207 2.035 . S
O202 Zn201 2.028 . S
O202 C208 1.247 . S
O203 Zn199 2.035 . S
O203 C208 1.258 . S
O204 C197 1.247 . S
O204 Zn201 2.028 . S
O205 C197 1.258 . S
O205 Zn199 2.035 . S
O206 Zn199 2.028 . S
O206 C209 1.247 . S
O207 Zn201 2.035 . S
O207 C209 1.258 . S
C208 O202 1.247 . S
C208 O203 1.258 . S
C209 O206 1.247 . S
C209 O207 1.258 . S
C210 O212 1.247 . S
C210 O214 1.258 . S
C211 O218 1.247 . S
C211 O219 1.258 . S
O212 C210 1.247 . S
O212 Zn213 2.028 1_556 S
Zn213 O212 2.028 1_554 S
Zn213 O217 2.035 1_554 S
Zn213 O219 2.035 . S
Zn213 O220 2.028 . S
O214 C210 1.258 . S
O214 Zn215 2.035 . S
Zn215 O214 2.035 . S
Zn215 O216 2.028 . S
Zn215 O218 2.028 1_556 S
Zn215 O221 2.035 1_556 S
O216 Zn215 2.028 . S
O216 C222 1.247 . S
O217 Zn213 2.035 1_556 S
O217 C222 1.258 . S
O218 C211 1.247 . S
O218 Zn215 2.028 1_554 S
O219 C211 1.258 . S
O219 Zn213 2.035 . S
O220 Zn213 2.028 . S
O220 C223 1.247 . S
O221 Zn215 2.035 1_554 S
O221 C223 1.258 . S
C222 O216 1.247 . S
C222 O217 1.258 . S
C223 O220 1.247 . S
C223 O221 1.258 . S
C224 O226 1.247 . S
C224 O228 1.258 . S
C225 O232 1.247 . S
C225 O233 1.258 . S
O226 C224 1.247 . S
O226 Zn227 2.028 . S
Zn227 O226 2.028 . S
Zn227 O231 2.035 . S
Zn227 O233 2.035 . S
Zn227 O234 2.028 . S
O228 C224 1.258 . S
O228 Zn229 2.035 . S
Zn229 O228 2.035 . S
Zn229 O230 2.028 . S
Zn229 O232 2.028 . S
Zn229 O235 2.035 . S
O230 Zn229 2.028 . S
O230 C236 1.247 . S
O231 Zn227 2.035 . S
O231 C236 1.258 . S
O232 C225 1.247 . S
O232 Zn229 2.028 . S
O233 C225 1.258 . S
O233 Zn227 2.035 . S
O234 Zn227 2.028 . S
O234 C237 1.247 . S
O235 Zn229 2.035 . S
O235 C237 1.258 . S
C236 O230 1.247 . S
C236 O231 1.258 . S
C237 O234 1.247 . S
C237 O235 1.258 . S
C238 O240 1.247 . S
C238 O242 1.258 . S
C239 O246 1.247 . S
C239 O247 1.258 . S
O240 C238 1.247 . S
O240 Zn241 2.028 . S
Zn241 O240 2.028 . S
Zn241 O245 2.035 . S
Zn241 O247 2.035 . S
Zn241 O248 2.028 . S
O242 C238 1.258 . S
O242 Zn243 2.035 . S
Zn243 O242 2.035 . S
Zn243 O244 2.028 . S
Zn243 O246 2.028 . S
Zn243 O249 2.035 . S
O244 Zn243 2.028 . S
O244 C250 1.247 . S
O245 Zn241 2.035 . S
O245 C250 1.258 . S
O246 C239 1.247 . S
O246 Zn243 2.028 . S
O247 C239 1.258 . S
O247 Zn241 2.035 . S
O248 Zn241 2.028 . S
O248 C251 1.247 . S
O249 Zn243 2.035 . S
O249 C251 1.258 . S
C250 O244 1.247 . S
C250 O245 1.258 . S
C251 O248 1.247 . S
C251 O249 1.258 . S
C252 O254 1.247 . S
C252 O256 1.258 . S
C253 O260 1.247 . S
C253 O261 1.258 . S
O254 C252 1.247 . S
O254 Zn255 2.028 . S
Zn255 O254 2.028 . S
Zn255 O259 2.035 . S
Zn255 O261 2.035 . S
Zn255 O262 2.028 . S
O256 C252 1.258 . S
O256 Zn257 2.035 . S
Zn257 O256 2.035 . S
Zn257 O258 2.028 . S
Zn257 O260 2.028 . S
Zn257 O263 2.035 . S
O258 Zn257 2.028 . S
O258 C264 1.247 . S
O259 Zn255 2.035 . S
O259 C264 1.258 . S
O260 C253 1.247 . S
O260 Zn257 2.028 . S
O261 C253 1.258 . S
O261 Zn255 2.035 . S
O262 Zn255 2.028 . S
O262 C265 1.247 . S
O263 Zn257 2.035 . S
O263 C265 1.258 . S
C264 O258 1.247 . S
C264 O259 1.258 . S
C265 O262 1.247 . S
C265 O263 1.258 . S
C266 O268 1.247 . S
C266 O270 1.258 . S
C267 O274 1.247 . S
C267 O275 1.258 . S
O268 C266 1.247 . S
O268 Zn269 2.028 . S
Zn269 O268 2.028 . S
Zn269 O273 2.035 . S
Zn269 O275 2.035 . S
Zn269 O276 2.028 . S
O270 C266 1.258 . S
O270 Zn271 2.035 . S
Zn271 O270 2.035 . S
Zn271 O272 2.028 . S
Zn271 O274 2.028 . S
Zn271 O277 2.035 . S
O272 Zn271 2.028 . S
O272 C278 1.247 . S
O273 Zn269 2.035 . S
O273 C278 1.258 . S
O274 C267 1.247 . S
O274 Zn271 2.028 . S
O275 C267 1.258 . S
O275 Zn269 2.035 . S
O276 Zn269 2.028 . S
O276 C279 1.247 . S
O277 Zn271 2.035 . S
O277 C279 1.258 . S
C278 O272 1.247 . S
C278 O273 1.258 . S
C279 O276 1.247 . S
C279 O277 1.258 . S
C280 O282 1.247 . S
C280 O284 1.258 . S
C281 O288 1.247 . S
C281 O289 1.258 . S
O282 C280 1.247 . S
O282 Zn283 2.028 . S
Zn283 O282 2.028 . S
Zn283 O287 2.035 . S
Zn283 O289 2.035 . S
Zn283 O290 2.028 . S
O284 C280 1.258 . S
O284 Zn285 2.035 . S
Zn285 O284 2.035 . S
Zn285 O286 2.028 . S
Zn285 O288 2.028 . S
Zn285 O291 2.035 . S
O286 Zn285 2.028 . S
O286 C292 1.247 . S
O287 Zn283 2.035 . S
O287 C292 1.258 . S
O288 C281 1.247 . S
O288 Zn285 2.028 . S
O289 C281 1.258 . S
O289 Zn283 2.035 . S
O290 Zn283 2.028 . S
O290 C293 1.247 . S
O291 Zn285 2.035 . S
O291 C293 1.258 . S
C292 O286 1.247 . S
C292 O287 1.258 . S
C293 O290 1.247 . S
C293 O291 1.258 . S
C294 O296 1.247 . S
C294 O298 1.258 . S
C295 O302 1.247 . S
C295 O303 1.258 . S
O296 C294 1.247 . S
O296 Zn297 2.028 . S
Zn297 O296 2.028 . S
Zn297 O301 2.035 . S
Zn297 O303 2.035 . S
Zn297 O304 2.028 . S
O298 C294 1.258 . S
O298 Zn299 2.035 . S
Zn299 O298 2.035 . S
Zn299 O300 2.028 . S
Zn299 O302 2.028 . S
Zn299 O305 2.035 . S
O300 Zn299 2.028 . S
O300 C306 1.247 . S
O301 Zn297 2.035 . S
O301 C306 1.258 . S
O302 C295 1.247 . S
O302 Zn299 2.028 . S
O303 C295 1.258 . S
O303 Zn297 2.035 . S
O304 Zn297 2.028 . S
O304 C307 1.247 . S
O305 Zn299 2.035 . S
O305 C307 1.258 . S
C306 O300 1.247 . S
C306 O301 1.258 . S
C307 O304 1.247 . S
C307 O305 1.258 . S
C308 O310 1.247 . S
C308 O312 1.258 . S
C309 O316 1.247 . S
C309 O317 1.258 . S
O310 C308 1.247 . S
O310 Zn311 2.028 . S
Zn311 O310 2.028 . S
Zn311 O315 2.035 . S
Zn311 O317 2.035 . S
Zn311 O318 2.028 . S
O312 C308 1.258 . S
O312 Zn313 2.035 . S
Zn313 O312 2.035 . S
Zn313 O314 2.028 . S
Zn313 O316 2.028 . S
Zn313 O319 2.035 . S
O314 Zn313 2.028 . S
O314 C320 1.247 . S
O315 Zn311 2.035 . S
O315 C320 1.258 . S
O316 C309 1.247 . S
O316 Zn313 2.028 . S
O317 C309 1.258 . S
O317 Zn311 2.035 . S
O318 Zn311 2.028 . S
O318 C321 1.247 . S
O319 Zn313 2.035 . S
O319 C321 1.258 . S
C320 O314 1.247 . S
C320 O315 1.258 . S
C321 O318 1.247 . S
C321 O319 1.258 . S
C322 O324 1.247 . S
C322 O326 1.258 . S
C323 O330 1.247 . S
C323 O331 1.258 . S
O324 C322 1.247 . S
O324 Zn325 2.028 . S
Zn325 O324 2.028 . S
Zn325 O329 2.035 . S
Zn325 O331 2.035 1_545 S
Zn325 O332 2.028 1_545 S
O326 C322 1.258 . S
O326 Zn327 2.035 1_545 S
Zn327 O326 2.035 1_565 S
Zn327 O328 2.028 1_565 S
Zn327 O330 2.028 . S
Zn327 O333 2.035 . S
O328 Zn327 2.028 1_545 S
O328 C334 1.247 . S
O329 Zn325 2.035 . S
O329 C334 1.258 . S
O330 C323 1.247 . S
O330 Zn327 2.028 . S
O331 C323 1.258 . S
O331 Zn325 2.035 1_565 S
O332 Zn325 2.028 1_565 S
O332 C335 1.247 . S
O333 Zn327 2.035 . S
O333 C335 1.258 . S
C334 O328 1.247 . S
C334 O329 1.258 . S
C335 O332 1.247 . S
C335 O333 1.258 . S
C336 O338 1.247 . S
C336 O340 1.258 . S
C337 O344 1.247 . S
C337 O345 1.258 . S
O338 C336 1.247 . S
O338 Zn339 2.028 . S
Zn339 O338 2.028 . S
Zn339 O343 2.035 . S
Zn339 O345 2.035 . S
Zn339 O346 2.028 . S
O340 C336 1.258 . S
O340 Zn341 2.035 . S
Zn341 O340 2.035 . S
Zn341 O342 2.028 . S
Zn341 O344 2.028 . S
Zn341 O347 2.035 . S
O342 Zn341 2.028 . S
O342 C348 1.247 . S
O343 Zn339 2.035 . S
O343 C348 1.258 . S
O344 C337 1.247 . S
O344 Zn341 2.028 . S
O345 C337 1.258 . S
O345 Zn339 2.035 . S
O346 Zn339 2.028 . S
O346 C349 1.247 . S
O347 Zn341 2.035 . S
O347 C349 1.258 . S
C348 O342 1.247 . S
C348 O343 1.258 . S
C349 O346 1.247 . S
C349 O347 1.258 . S
C350 O352 1.247 . S
C350 O354 1.258 . S
C351 O358 1.247 . S
C351 O359 1.258 . S
O352 C350 1.247 . S
O352 Zn353 2.028 1_655 S
Zn353 O352 2.028 1_455 S
Zn353 O357 2.035 1_455 S
Zn353 O359 2.035 . S
Zn353 O360 2.028 . S
O354 C350 1.258 . S
O354 Zn355 2.035 . S
Zn355 O354 2.035 . S
Zn355 O356 2.028 . S
Zn355 O358 2.028 1_655 S
Zn355 O361 2.035 1_655 S
O356 Zn355 2.028 . S
O356 C362 1.247 . S
O357 Zn353 2.035 1_655 S
O357 C362 1.258 . S
O358 C351 1.247 . S
O358 Zn355 2.028 1_455 S
O359 C351 1.258 . S
O359 Zn353 2.035 . S
O360 Zn353 2.028 . S
O360 C363 1.247 . S
O361 Zn355 2.035 1_455 S
O361 C363 1.258 . S
C362 O356 1.247 . S
C362 O357 1.258 . S
C363 O360 1.247 . S
C363 O361 1.258 . S
C364 O366 1.247 . S
C364 O368 1.258 . S
C365 O372 1.247 . S
C365 O373 1.258 . S
O366 C364 1.247 . S
O366 Zn367 2.028 . S
Zn367 O366 2.028 . S
Zn367 O371 2.035 . S
Zn367 O373 2.035 . S
Zn367 O374 2.028 . S
O368 C364 1.258 . S
O368 Zn369 2.035 . S
Zn369 O368 2.035 . S
Zn369 O370 2.028 . S
Zn369 O372 2.028 . S
Zn369 O375 2.035 . S
O370 Zn369 2.028 . S
O370 C376 1.247 . S
O371 Zn367 2.035 . S
O371 C376 1.258 . S
O372 C365 1.247 . S
O372 Zn369 2.028 . S
O373 C365 1.258 . S
O373 Zn367 2.035 . S
O374 Zn367 2.028 . S
O374 C377 1.247 . S
O375 Zn369 2.035 . S
O375 C377 1.258 . S
C376 O370 1.247 . S
C376 O371 1.258 . S
C377 O374 1.247 . S
C377 O375 1.258 . S
C378 O380 1.247 . S
C378 O382 1.258 . S
C379 O386 1.247 . S
C379 O387 1.258 . S
O380 C378 1.247 . S
O380 Zn381 2.028 1_455 S
Zn381 O380 2.028 1_655 S
Zn381 O385 2.035 1_655 S
Zn381 O387 2.035 . S
Zn381 O388 2.028 . S
O382 C378 1.258 . S
O382 Zn383 2.035 . S
Zn383 O382 2.035 . S
Zn383 O384 2.028 . S
Zn383 O386 2.028 1_455 S
Zn383 O389 2.035 1_455 S
O384 Zn383 2.028 . S
O384 C390 1.247 . S
O385 Zn381 2.035 1_455 S
O385 C390 1.258 . S
O386 C379 1.247 . S
O386 Zn383 2.028 1_655 S
O387 C379 1.258 . S
O387 Zn381 2.035 . S
O388 Zn381 2.028 . S
O388 C391 1.247 . S
O389 Zn383 2.035 1_655 S
O389 C391 1.258 . S
C390 O384 1.247 . S
C390 O385 1.258 . S
C391 O388 1.247 . S
C391 O389 1.258 . S
C392 O394 1.247 . S
C392 O396 1.258 . S
C393 O400 1.247 . S
C393 O401 1.258 . S
O394 C392 1.247 . S
O394 Zn395 2.028 . S
Zn395 O394 2.028 . S
Zn395 O399 2.035 . S
Zn395 O401 2.035 . S
Zn395 O402 2.028 . S
O396 C392 1.258 . S
O396 Zn397 2.035 . S
Zn397 O396 2.035 . S
Zn397 O398 2.028 . S
Zn397 O400 2.028 . S
Zn397 O403 2.035 . S
O398 Zn397 2.028 . S
O398 C404 1.247 . S
O399 Zn395 2.035 . S
O399 C404 1.258 . S
O400 C393 1.247 . S
O400 Zn397 2.028 . S
O401 C393 1.258 . S
O401 Zn395 2.035 . S
O402 Zn395 2.028 . S
O402 C405 1.247 . S
O403 Zn397 2.035 . S
O403 C405 1.258 . S
C404 O398 1.247 . S
C404 O399 1.258 . S
C405 O402 1.247 . S
C405 O403 1.258 . S
C406 O408 1.247 . S
C406 O410 1.258 . S
C407 O414 1.247 . S
C407 O415 1.258 . S
O408 C406 1.247 . S
O408 Zn409 2.028 . S
Zn409 O408 2.028 . S
Zn409 O413 2.035 . S
Zn409 O415 2.035 . S
Zn409 O416 2.028 . S
O410 C406 1.258 . S
O410 Zn411 2.035 . S
Zn411 O410 2.035 . S
Zn411 O412 2.028 . S
Zn411 O414 2.028 . S
Zn411 O417 2.035 . S
O412 Zn411 2.028 . S
O412 C418 1.247 . S
O413 Zn409 2.035 . S
O413 C418 1.258 . S
O414 C407 1.247 . S
O414 Zn411 2.028 . S
O415 C407 1.258 . S
O415 Zn409 2.035 . S
O416 Zn409 2.028 . S
O416 C419 1.247 . S
O417 Zn411 2.035 . S
O417 C419 1.258 . S
C418 O412 1.247 . S
C418 O413 1.258 . S
C419 O416 1.247 . S
C419 O417 1.258 . S
C420 O422 1.247 . S
C420 O424 1.258 . S
C421 O428 1.247 . S
C421 O429 1.258 . S
O422 C420 1.247 . S
O422 Zn423 2.028 . S
Zn423 O422 2.028 . S
Zn423 O427 2.035 . S
Zn423 O429 2.035 . S
Zn423 O430 2.028 . S
O424 C420 1.258 . S
O424 Zn425 2.035 . S
Zn425 O424 2.035 . S
Zn425 O426 2.028 . S
Zn425 O428 2.028 . S
Zn425 O431 2.035 . S
O426 Zn425 2.028 . S
O426 C432 1.247 . S
O427 Zn423 2.035 . S
O427 C432 1.258 . S
O428 C421 1.247 . S
O428 Zn425 2.028 . S
O429 C421 1.258 . S
O429 Zn423 2.035 . S
O430 Zn423 2.028 . S
O430 C433 1.247 . S
O431 Zn425 2.035 . S
O431 C433 1.258 . S
C432 O426 1.247 . S
C432 O427 1.258 . S
C433 O430 1.247 . S
C433 O431 1.258 . S
C434 O436 1.247 . S
C434 O438 1.258 . S
C435 O442 1.247 . S
C435 O443 1.258 . S
O436 C434 1.247 . S
O436 Zn437 2.028 . S
Zn437 O436 2.028 . S
Zn437 O441 2.035 . S
Zn437 O443 2.035 . S
Zn437 O444 2.028 . S
O438 C434 1.258 . S
O438 Zn439 2.035 . S
Zn439 O438 2.035 . S
Zn439 O440 2.028 . S
Zn439 O442 2.028 . S
Zn439 O445 2.035 . S
O440 Zn439 2.028 . S
O440 C446 1.247 . S
O441 Zn437 2.035 . S
O441 C446 1.258 . S
O442 C435 1.247 . S
O442 Zn439 2.028 . S
O443 C435 1.258 . S
O443 Zn437 2.035 . S
O444 Zn437 2.028 . S
O444 C447 1.247 . S
O445 Zn439 2.035 . S
O445 C447 1.258 . S
C446 O440 1.247 . S
C446 O441 1.258 . S
C447 O444 1.247 . S
C447 O445 1.258 . S
C448 O450 1.247 . S
C448 O452 1.258 . S
C449 O456 1.247 . S
C449 O457 1.258 . S
O450 C448 1.247 . S
O450 Zn451 2.028 . S
Zn451 O450 2.028 . S
Zn451 O455 2.035 . S
Zn451 O457 2.035 . S
Zn451 O458 2.028 . S
O452 C448 1.258 . S
O452 Zn453 2.035 . S
Zn453 O452 2.035 . S
Zn453 O454 2.028 . S
Zn453 O456 2.028 . S
Zn453 O459 2.035 . S
O454 Zn453 2.028 . S
O454 C460 1.247 . S
O455 Zn451 2.035 . S
O455 C460 1.258 . S
O456 C449 1.247 . S
O456 Zn453 2.028 . S
O457 C449 1.258 . S
O457 Zn451 2.035 . S
O458 Zn451 2.028 . S
O458 C461 1.247 . S
O459 Zn453 2.035 . S
O459 C461 1.258 . S
C460 O454 1.247 . S
C460 O455 1.258 . S
C461 O458 1.247 . S
C461 O459 1.258 . S
C462 O464 1.247 . S
C462 O466 1.258 . S
C463 O470 1.247 . S
C463 O471 1.258 . S
O464 C462 1.247 . S
O464 Zn465 2.028 . S
Zn465 O464 2.028 . S
Zn465 O469 2.035 . S
Zn465 O471 2.035 . S
Zn465 O472 2.028 . S
O466 C462 1.258 . S
O466 Zn467 2.035 . S
Zn467 O466 2.035 . S
Zn467 O468 2.028 . S
Zn467 O470 2.028 . S
Zn467 O473 2.035 . S
O468 Zn467 2.028 . S
O468 C474 1.247 . S
O469 Zn465 2.035 . S
O469 C474 1.258 . S
O470 C463 1.247 . S
O470 Zn467 2.028 . S
O471 C463 1.258 . S
O471 Zn465 2.035 . S
O472 Zn465 2.028 . S
O472 C475 1.247 . S
O473 Zn467 2.035 . S
O473 C475 1.258 . S
C474 O468 1.247 . S
C474 O469 1.258 . S
C475 O472 1.247 . S
C475 O473 1.258 . S
C476 O478 1.247 . S
C476 O480 1.258 . S
C477 O484 1.247 . S
C477 O485 1.258 . S
O478 C476 1.247 . S
O478 Zn479 2.028 . S
Zn479 O478 2.028 . S
Zn479 O483 2.035 . S
Zn479 O485 2.035 . S
Zn479 O486 2.028 . S
O480 C476 1.258 . S
O480 Zn481 2.035 . S
Zn481 O480 2.035 . S
Zn481 O482 2.028 . S
Zn481 O484 2.028 . S
Zn481 O487 2.035 . S
O482 Zn481 2.028 . S
O482 C488 1.247 . S
O483 Zn479 2.035 . S
O483 C488 1.258 . S
O484 C477 1.247 . S
O484 Zn481 2.028 . S
O485 C477 1.258 . S
O485 Zn479 2.035 . S
O486 Zn479 2.028 . S
O486 C489 1.247 . S
O487 Zn481 2.035 . S
O487 C489 1.258 . S
C488 O482 1.247 . S
C488 O483 1.258 . S
C489 O486 1.247 . S
C489 O487 1.258 . S
C490 O492 1.247 . S
C490 O494 1.258 . S
C491 O498 1.247 . S
C491 O499 1.258 . S
O492 C490 1.247 . S
O492 Zn493 2.028 . S
Zn493 O492 2.028 . S
Zn493 O497 2.035 . S
Zn493 O499 2.035 . S
Zn493 O500 2.028 . S
O494 C490 1.258 . S
O494 Zn495 2.035 . S
Zn495 O494 2.035 . S
Zn495 O496 2.028 . S
Zn495 O498 2.028 . S
Zn495 O501 2.035 . S
O496 Zn495 2.028 . S
O496 C502 1.247 . S
O497 Zn493 2.035 . S
O497 C502 1.258 . S
O498 C491 1.247 . S
O498 Zn495 2.028 . S
O499 C491 1.258 . S
O499 Zn493 2.035 . S
O500 Zn493 2.028 . S
O500 C503 1.247 . S
O501 Zn495 2.035 . S
O501 C503 1.258 . S
C502 O496 1.247 . S
C502 O497 1.258 . S
C503 O500 1.247 . S
C503 O501 1.258 . S
C504 O506 1.247 . S
C504 O508 1.258 . S
C505 O512 1.247 . S
C505 O513 1.258 . S
O506 C504 1.247 . S
O506 Zn507 2.028 . S
Zn507 O506 2.028 . S
Zn507 O511 2.035 . S
Zn507 O513 2.035 . S
Zn507 O514 2.028 . S
O508 C504 1.258 . S
O508 Zn509 2.035 . S
Zn509 O508 2.035 . S
Zn509 O510 2.028 . S
Zn509 O512 2.028 . S
Zn509 O515 2.035 . S
O510 Zn509 2.028 . S
O510 C516 1.247 . S
O511 Zn507 2.035 . S
O511 C516 1.258 . S
O512 C505 1.247 . S
O512 Zn509 2.028 . S
O513 C505 1.258 . S
O513 Zn507 2.035 . S
O514 Zn507 2.028 . S
O514 C517 1.247 . S
O515 Zn509 2.035 . S
O515 C517 1.258 . S
C516 O510 1.247 . S
C516 O511 1.258 . S
C517 O514 1.247 . S
C517 O515 1.258 . S
C518 O520 1.247 . S
C518 O522 1.258 . S
C519 O526 1.247 . S
C519 O527 1.258 . S
O520 C518 1.247 . S
O520 Zn521 2.028 . S
Zn521 O520 2.028 . S
Zn521 O525 2.035 . S
Zn521 O527 2.035 . S
Zn521 O528 2.028 . S
O522 C518 1.258 . S
O522 Zn523 2.035 . S
Zn523 O522 2.035 . S
Zn523 O524 2.028 . S
Zn523 O526 2.028 . S
Zn523 O529 2.035 . S
O524 Zn523 2.028 . S
O524 C530 1.247 . S
O525 Zn521 2.035 . S
O525 C530 1.258 . S
O526 C519 1.247 . S
O526 Zn523 2.028 . S
O527 C519 1.258 . S
O527 Zn521 2.035 . S
O528 Zn521 2.028 . S
O528 C531 1.247 . S
O529 Zn523 2.035 . S
O529 C531 1.258 . S
C530 O524 1.247 . S
C530 O525 1.258 . S
C531 O528 1.247 . S
C531 O529 1.258 . S
C532 O534 1.247 . S
C532 O536 1.258 . S
C533 O540 1.247 . S
C533 O541 1.258 . S
O534 C532 1.247 . S
O534 Zn535 2.028 . S
Zn535 O534 2.028 . S
Zn535 O539 2.035 . S
Zn535 O541 2.035 . S
Zn535 O542 2.028 . S
O536 C532 1.258 . S
O536 Zn537 2.035 . S
Zn537 O536 2.035 . S
Zn537 O538 2.028 . S
Zn537 O540 2.028 . S
Zn537 O543 2.035 . S
O538 Zn537 2.028 . S
O538 C544 1.247 . S
O539 Zn535 2.035 . S
O539 C544 1.258 . S
O540 C533 1.247 . S
O540 Zn537 2.028 . S
O541 C533 1.258 . S
O541 Zn535 2.035 . S
O542 Zn535 2.028 . S
O542 C545 1.247 . S
O543 Zn537 2.035 . S
O543 C545 1.258 . S
C544 O538 1.247 . S
C544 O539 1.258 . S
C545 O542 1.247 . S
C545 O543 1.258 . S
C546 O548 1.247 . S
C546 O550 1.258 . S
C547 O554 1.247 . S
C547 O555 1.258 . S
O548 C546 1.247 . S
O548 Zn549 2.028 . S
Zn549 O548 2.028 . S
Zn549 O553 2.035 . S
Zn549 O555 2.035 . S
Zn549 O556 2.028 . S
O550 C546 1.258 . S
O550 Zn551 2.035 . S
Zn551 O550 2.035 . S
Zn551 O552 2.028 . S
Zn551 O554 2.028 . S
Zn551 O557 2.035 . S
O552 Zn551 2.028 . S
O552 C558 1.247 . S
O553 Zn549 2.035 . S
O553 C558 1.258 . S
O554 C547 1.247 . S
O554 Zn551 2.028 . S
O555 C547 1.258 . S
O555 Zn549 2.035 . S
O556 Zn549 2.028 . S
O556 C559 1.247 . S
O557 Zn551 2.035 . S
O557 C559 1.258 . S
C558 O552 1.247 . S
C558 O553 1.258 . S
C559 O556 1.247 . S
C559 O557 1.258 . S
C560 O562 1.247 . S
C560 O564 1.258 . S
C561 O568 1.247 . S
C561 O569 1.258 . S
O562 C560 1.247 . S
O562 Zn563 2.028 . S
Zn563 O562 2.028 . S
Zn563 O567 2.035 . S
Zn563 O569 2.035 . S
Zn563 O570 2.028 . S
O564 C560 1.258 . S
O564 Zn565 2.035 . S
Zn565 O564 2.035 . S
Zn565 O566 2.028 . S
Zn565 O568 2.028 . S
Zn565 O571 2.035 . S
O566 Zn565 2.028 . S
O566 C572 1.247 . S
O567 Zn563 2.035 . S
O567 C572 1.258 . S
O568 C561 1.247 . S
O568 Zn565 2.028 . S
O569 C561 1.258 . S
O569 Zn563 2.035 . S
O570 Zn563 2.028 . S
O570 C573 1.247 . S
O571 Zn565 2.035 . S
O571 C573 1.258 . S
C572 O566 1.247 . S
C572 O567 1.258 . S
C573 O570 1.247 . S
C573 O571 1.258 . S
C574 O576 1.247 . S
C574 O578 1.258 . S
C575 O582 1.247 . S
C575 O583 1.258 . S
O576 C574 1.247 . S
O576 Zn577 2.028 . S
Zn577 O576 2.028 . S
Zn577 O581 2.035 . S
Zn577 O583 2.035 . S
Zn577 O584 2.028 . S
O578 C574 1.258 . S
O578 Zn579 2.035 . S
Zn579 O578 2.035 . S
Zn579 O580 2.028 . S
Zn579 O582 2.028 . S
Zn579 O585 2.035 . S
O580 Zn579 2.028 . S
O580 C586 1.247 . S
O581 Zn577 2.035 . S
O581 C586 1.258 . S
O582 C575 1.247 . S
O582 Zn579 2.028 . S
O583 C575 1.258 . S
O583 Zn577 2.035 . S
O584 Zn577 2.028 . S
O584 C587 1.247 . S
O585 Zn579 2.035 . S
O585 C587 1.258 . S
C586 O580 1.247 . S
C586 O581 1.258 . S
C587 O584 1.247 . S
C587 O585 1.258 . S
C588 O590 1.247 . S
C588 O592 1.258 . S
C589 O596 1.247 . S
C589 O597 1.258 . S
O590 C588 1.247 . S
O590 Zn591 2.028 . S
Zn591 O590 2.028 . S
Zn591 O595 2.035 . S
Zn591 O597 2.035 1_565 S
Zn591 O598 2.028 1_565 S
O592 C588 1.258 . S
O592 Zn593 2.035 1_565 S
Zn593 O592 2.035 1_545 S
Zn593 O594 2.028 1_545 S
Zn593 O596 2.028 . S
Zn593 O599 2.035 . S
O594 Zn593 2.028 1_565 S
O594 C600 1.247 . S
O595 Zn591 2.035 . S
O595 C600 1.258 . S
O596 C589 1.247 . S
O596 Zn593 2.028 . S
O597 C589 1.258 . S
O597 Zn591 2.035 1_545 S
O598 Zn591 2.028 1_545 S
O598 C601 1.247 . S
O599 Zn593 2.035 . S
O599 C601 1.258 . S
C600 O594 1.247 . S
C600 O595 1.258 . S
C601 O598 1.247 . S
C601 O599 1.258 . S
C602 O604 1.247 . S
C602 O606 1.258 . S
C603 O610 1.247 . S
C603 O611 1.258 . S
O604 C602 1.247 . S
O604 Zn605 2.028 . S
Zn605 O604 2.028 . S
Zn605 O609 2.035 . S
Zn605 O611 2.035 . S
Zn605 O612 2.028 . S
O606 C602 1.258 . S
O606 Zn607 2.035 . S
Zn607 O606 2.035 . S
Zn607 O608 2.028 . S
Zn607 O610 2.028 . S
Zn607 O613 2.035 . S
O608 Zn607 2.028 . S
O608 C614 1.247 . S
O609 Zn605 2.035 . S
O609 C614 1.258 . S
O610 C603 1.247 . S
O610 Zn607 2.028 . S
O611 C603 1.258 . S
O611 Zn605 2.035 . S
O612 Zn605 2.028 . S
O612 C615 1.247 . S
O613 Zn607 2.035 . S
O613 C615 1.258 . S
C614 O608 1.247 . S
C614 O609 1.258 . S
C615 O612 1.247 . S
C615 O613 1.258 . S
C616 O618 1.247 . S
C616 O620 1.258 . S
C617 O624 1.247 . S
C617 O625 1.258 . S
O618 C616 1.247 . S
O618 Zn619 2.028 . S
Zn619 O618 2.028 . S
Zn619 O623 2.035 . S
Zn619 O625 2.035 1_545 S
Zn619 O626 2.028 1_545 S
O620 C616 1.258 . S
O620 Zn621 2.035 1_545 S
Zn621 O620 2.035 1_565 S
Zn621 O622 2.028 1_565 S
Zn621 O624 2.028 . S
Zn621 O627 2.035 . S
O622 Zn621 2.028 1_545 S
O622 C628 1.247 . S
O623 Zn619 2.035 . S
O623 C628 1.258 . S
O624 C617 1.247 . S
O624 Zn621 2.028 . S
O625 C617 1.258 . S
O625 Zn619 2.035 1_565 S
O626 Zn619 2.028 1_565 S
O626 C629 1.247 . S
O627 Zn621 2.035 . S
O627 C629 1.258 . S
C628 O622 1.247 . S
C628 O623 1.258 . S
C629 O626 1.247 . S
C629 O627 1.258 . S
C630 O632 1.247 . S
C630 O634 1.258 . S
C631 O638 1.247 . S
C631 O639 1.258 . S
O632 C630 1.247 . S
O632 Zn633 2.028 . S
Zn633 O632 2.028 . S
Zn633 O637 2.035 . S
Zn633 O639 2.035 . S
Zn633 O640 2.028 . S
O634 C630 1.258 . S
O634 Zn635 2.035 . S
Zn635 O634 2.035 . S
Zn635 O636 2.028 . S
Zn635 O638 2.028 . S
Zn635 O641 2.035 . S
O636 Zn635 2.028 . S
O636 C642 1.247 . S
O637 Zn633 2.035 . S
O637 C642 1.258 . S
O638 C631 1.247 . S
O638 Zn635 2.028 . S
O639 C631 1.258 . S
O639 Zn633 2.035 . S
O640 Zn633 2.028 . S
O640 C643 1.247 . S
O641 Zn635 2.035 . S
O641 C643 1.258 . S
C642 O636 1.247 . S
C642 O637 1.258 . S
C643 O640 1.247 . S
C643 O641 1.258 . S
C644 O646 1.247 . S
C644 O648 1.258 . S
C645 O652 1.247 . S
C645 O653 1.258 . S
O646 C644 1.247 . S
O646 Zn647 2.028 . S
Zn647 O646 2.028 . S
Zn647 O651 2.035 . S
Zn647 O653 2.035 1_565 S
Zn647 O654 2.028 1_565 S
O648 C644 1.258 . S
O648 Zn649 2.035 1_565 S
Zn649 O648 2.035 1_545 S
Zn649 O650 2.028 1_545 S
Zn649 O652 2.028 . S
Zn649 O655 2.035 . S
O650 Zn649 2.028 1_565 S
O650 C656 1.247 . S
O651 Zn647 2.035 . S
O651 C656 1.258 . S
O652 C645 1.247 . S
O652 Zn649 2.028 . S
O653 C645 1.258 . S
O653 Zn647 2.035 1_545 S
O654 Zn647 2.028 1_545 S
O654 C657 1.247 . S
O655 Zn649 2.035 . S
O655 C657 1.258 . S
C656 O650 1.247 . S
C656 O651 1.258 . S
C657 O654 1.247 . S
C657 O655 1.258 . S
C658 O660 1.247 . S
C658 O662 1.258 . S
C659 O666 1.247 . S
C659 O667 1.258 . S
O660 C658 1.247 . S
O660 Zn661 2.028 . S
Zn661 O660 2.028 . S
Zn661 O665 2.035 . S
Zn661 O667 2.035 . S
Zn661 O668 2.028 . S
O662 C658 1.258 . S
O662 Zn663 2.035 . S
Zn663 O662 2.035 . S
Zn663 O664 2.028 . S
Zn663 O666 2.028 . S
Zn663 O669 2.035 . S
O664 Zn663 2.028 . S
O664 C670 1.247 . S
O665 Zn661 2.035 . S
O665 C670 1.258 . S
O666 C659 1.247 . S
O666 Zn663 2.028 . S
O667 C659 1.258 . S
O667 Zn661 2.035 . S
O668 Zn661 2.028 . S
O668 C671 1.247 . S
O669 Zn663 2.035 . S
O669 C671 1.258 . S
C670 O664 1.247 . S
C670 O665 1.258 . S
C671 O668 1.247 . S
C671 O669 1.258 . S
H672 C678 0.930 . S
H673 C682 0.930 . S
H674 C687 0.929 . S
H675 C685 0.929 . S
H676 C680 0.929 . S
H677 C686 0.929 . S
C678 H672 0.930 . S
C678 C679 1.367 . S
C678 C686 1.378 . S
C679 C678 1.367 . S
C679 C687 1.433 . S
C680 H676 0.929 . S
C680 C682 1.378 . S
C680 C684 1.350 . S
C681 C684 1.463 . S
C681 C686 1.350 . S
C681 N689 1.427 . S
C682 H673 0.930 . S
C682 C680 1.378 . S
C682 C683 1.367 . S
C683 C682 1.367 . S
C683 C685 1.433 . S
C684 C680 1.350 . S
C684 C681 1.463 . S
C684 N688 1.427 . S
C685 H675 0.929 . S
C685 C683 1.433 . S
C685 N688 1.384 . S
C686 H677 0.929 . S
C686 C678 1.378 . S
C686 C681 1.350 . S
C687 H674 0.929 . S
C687 C679 1.433 . S
C687 N689 1.384 . S
N688 C684 1.427 . S
N688 C685 1.384 . S
N689 C681 1.427 . S
N689 C687 1.384 . S
H690 C696 0.930 . S
H691 C700 0.930 . S
H692 C705 0.929 . S
H693 C703 0.929 . S
H694 C698 0.929 . S
H695 C704 0.929 . S
C696 H690 0.930 . S
C696 C697 1.367 . S
C696 C704 1.378 . S
C697 C696 1.367 . S
C697 C705 1.433 . S
C698 H694 0.929 . S
C698 C700 1.378 . S
C698 C702 1.350 . S
C699 C702 1.463 1_554 S
C699 C704 1.350 . S
C699 N707 1.427 . S
C700 H691 0.930 . S
C700 C698 1.378 . S
C700 C701 1.367 . S
C701 C700 1.367 . S
C701 C703 1.433 . S
C702 C698 1.350 . S
C702 C699 1.463 1_556 S
C702 N706 1.427 . S
C703 H693 0.929 . S
C703 C701 1.433 . S
C703 N706 1.384 . S
C704 H695 0.929 . S
C704 C696 1.378 . S
C704 C699 1.350 . S
C705 H692 0.929 . S
C705 C697 1.433 . S
C705 N707 1.384 . S
N706 C702 1.427 . S
N706 C703 1.384 . S
N707 C699 1.427 . S
N707 C705 1.384 . S
H708 C714 0.930 . S
H709 C718 0.930 . S
H710 C723 0.929 . S
H711 C721 0.929 . S
H712 C716 0.929 . S
H713 C722 0.929 . S
C714 H708 0.930 . S
C714 C715 1.367 . S
C714 C722 1.378 . S
C715 C714 1.367 . S
C715 C723 1.433 . S
C716 H712 0.929 . S
C716 C718 1.378 . S
C716 C720 1.350 . S
C717 C720 1.463 . S
C717 C722 1.350 . S
C717 N725 1.427 . S
C718 H709 0.930 . S
C718 C716 1.378 . S
C718 C719 1.367 . S
C719 C718 1.367 . S
C719 C721 1.433 . S
C720 C716 1.350 . S
C720 C717 1.463 . S
C720 N724 1.427 . S
C721 H711 0.929 . S
C721 C719 1.433 . S
C721 N724 1.384 . S
C722 H713 0.929 . S
C722 C714 1.378 . S
C722 C717 1.350 . S
C723 H710 0.929 . S
C723 C715 1.433 . S
C723 N725 1.384 . S
N724 C720 1.427 . S
N724 C721 1.384 . S
N725 C717 1.427 . S
N725 C723 1.384 . S
H726 C732 0.930 . S
H727 C736 0.930 . S
H728 C741 0.929 . S
H729 C739 0.929 . S
H730 C734 0.929 . S
H731 C740 0.929 . S
C732 H726 0.930 . S
C732 C733 1.367 . S
C732 C740 1.378 . S
C733 C732 1.367 . S
C733 C741 1.433 . S
C734 H730 0.929 . S
C734 C736 1.378 . S
C734 C738 1.350 . S
C735 C738 1.463 1_556 S
C735 C740 1.350 . S
C735 N743 1.427 . S
C736 H727 0.930 . S
C736 C734 1.378 . S
C736 C737 1.367 . S
C737 C736 1.367 . S
C737 C739 1.433 . S
C738 C734 1.350 . S
C738 C735 1.463 1_554 S
C738 N742 1.427 . S
C739 H729 0.929 . S
C739 C737 1.433 . S
C739 N742 1.384 . S
C740 H731 0.929 . S
C740 C732 1.378 . S
C740 C735 1.350 . S
C741 H728 0.929 . S
C741 C733 1.433 . S
C741 N743 1.384 . S
N742 C738 1.427 . S
N742 C739 1.384 . S
N743 C735 1.427 . S
N743 C741 1.384 . S
H744 C750 0.930 . S
H745 C754 0.930 . S
H746 C759 0.929 . S
H747 C757 0.929 . S
H748 C752 0.929 . S
H749 C758 0.929 . S
C750 H744 0.930 . S
C750 C751 1.367 . S
C750 C758 1.378 . S
C751 C750 1.367 . S
C751 C759 1.433 . S
C752 H748 0.929 . S
C752 C754 1.378 . S
C752 C756 1.350 . S
C753 C756 1.463 . S
C753 C758 1.350 . S
C753 N761 1.427 . S
C754 H745 0.930 . S
C754 C752 1.378 . S
C754 C755 1.367 . S
C755 C754 1.367 . S
C755 C757 1.433 . S
C756 C752 1.350 . S
C756 C753 1.463 . S
C756 N760 1.427 . S
C757 H747 0.929 . S
C757 C755 1.433 . S
C757 N760 1.384 . S
C758 H749 0.929 . S
C758 C750 1.378 . S
C758 C753 1.350 . S
C759 H746 0.929 . S
C759 C751 1.433 . S
C759 N761 1.384 . S
N760 C756 1.427 . S
N760 C757 1.384 . S
N761 C753 1.427 . S
N761 C759 1.384 . S
H762 C768 0.930 . S
H763 C772 0.930 . S
H764 C777 0.929 . S
H765 C775 0.929 . S
H766 C770 0.929 1_554 S
H767 C776 0.929 . S
C768 H762 0.930 . S
C768 C769 1.367 . S
C768 C776 1.378 . S
C769 C768 1.367 . S
C769 C777 1.433 . S
C770 H766 0.929 1_556 S
C770 C772 1.378 . S
C770 C774 1.350 . S
C771 C774 1.463 1_554 S
C771 C776 1.350 . S
C771 N779 1.427 . S
C772 H763 0.930 . S
C772 C770 1.378 . S
C772 C773 1.367 . S
C773 C772 1.367 . S
C773 C775 1.433 . S
C774 C770 1.350 . S
C774 C771 1.463 1_556 S
C774 N778 1.427 . S
C775 H765 0.929 . S
C775 C773 1.433 . S
C775 N778 1.384 . S
C776 H767 0.929 . S
C776 C768 1.378 . S
C776 C771 1.350 . S
C777 H764 0.929 . S
C777 C769 1.433 . S
C777 N779 1.384 . S
N778 C774 1.427 . S
N778 C775 1.384 . S
N779 C771 1.427 . S
N779 C777 1.384 . S
H780 C786 0.930 . S
H781 C790 0.930 . S
H782 C795 0.929 . S
H783 C793 0.929 . S
H784 C788 0.929 . S
H785 C794 0.929 . S
C786 H780 0.930 . S
C786 C787 1.367 . S
C786 C794 1.378 . S
C787 C786 1.367 . S
C787 C795 1.433 . S
C788 H784 0.929 . S
C788 C790 1.378 . S
C788 C792 1.350 . S
C789 C792 1.463 . S
C789 C794 1.350 . S
C789 N797 1.427 . S
C790 H781 0.930 . S
C790 C788 1.378 . S
C790 C791 1.367 . S
C791 C790 1.367 . S
C791 C793 1.433 . S
C792 C788 1.350 . S
C792 C789 1.463 . S
C792 N796 1.427 . S
C793 H783 0.929 . S
C793 C791 1.433 . S
C793 N796 1.384 . S
C794 H785 0.929 . S
C794 C786 1.378 . S
C794 C789 1.350 . S
C795 H782 0.929 . S
C795 C787 1.433 . S
C795 N797 1.384 . S
N796 C792 1.427 . S
N796 C793 1.384 . S
N797 C789 1.427 . S
N797 C795 1.384 . S
H798 C804 0.930 . S
H799 C808 0.930 . S
H800 C813 0.929 . S
H801 C811 0.929 . S
H802 C806 0.929 . S
H803 C812 0.929 . S
C804 H798 0.930 . S
C804 C805 1.367 . S
C804 C812 1.378 . S
C805 C804 1.367 . S
C805 C813 1.433 . S
C806 H802 0.929 . S
C806 C808 1.378 . S
C806 C810 1.350 . S
C807 C810 1.463 1_556 S
C807 C812 1.350 . S
C807 N815 1.427 . S
C808 H799 0.930 . S
C808 C806 1.378 . S
C808 C809 1.367 . S
C809 C808 1.367 . S
C809 C811 1.433 . S
C810 C806 1.350 . S
C810 C807 1.463 1_554 S
C810 N814 1.427 . S
C811 H801 0.929 . S
C811 C809 1.433 . S
C811 N814 1.384 . S
C812 H803 0.929 . S
C812 C804 1.378 . S
C812 C807 1.350 . S
C813 H800 0.929 . S
C813 C805 1.433 . S
C813 N815 1.384 . S
N814 C810 1.427 . S
N814 C811 1.384 . S
N815 C807 1.427 . S
N815 C813 1.384 . S
H816 C822 0.930 . S
H817 C826 0.930 . S
H818 C831 0.929 . S
H819 C829 0.929 . S
H820 C824 0.929 . S
H821 C830 0.929 . S
C822 H816 0.930 . S
C822 C823 1.367 . S
C822 C830 1.378 . S
C823 C822 1.367 . S
C823 C831 1.433 . S
C824 H820 0.929 . S
C824 C826 1.378 . S
C824 C828 1.350 . S
C825 C828 1.463 . S
C825 C830 1.350 . S
C825 N833 1.427 . S
C826 H817 0.930 . S
C826 C824 1.378 . S
C826 C827 1.367 . S
C827 C826 1.367 . S
C827 C829 1.433 . S
C828 C824 1.350 . S
C828 C825 1.463 . S
C828 N832 1.427 . S
C829 H819 0.929 . S
C829 C827 1.433 . S
C829 N832 1.384 . S
C830 H821 0.929 . S
C830 C822 1.378 . S
C830 C825 1.350 . S
C831 H818 0.929 . S
C831 C823 1.433 . S
C831 N833 1.384 . S
N832 C828 1.427 . S
N832 C829 1.384 . S
N833 C825 1.427 . S
N833 C831 1.384 . S
H834 C840 0.930 . S
H835 C844 0.930 . S
H836 C849 0.929 . S
H837 C847 0.929 . S
H838 C842 0.929 . S
H839 C848 0.929 . S
C840 H834 0.930 . S
C840 C841 1.367 . S
C840 C848 1.378 . S
C841 C840 1.367 . S
C841 C849 1.433 . S
C842 H838 0.929 . S
C842 C844 1.378 . S
C842 C846 1.350 . S
C843 C846 1.463 . S
C843 C848 1.350 . S
C843 N851 1.427 . S
C844 H835 0.930 . S
C844 C842 1.378 . S
C844 C845 1.367 . S
C845 C844 1.367 . S
C845 C847 1.433 . S
C846 C842 1.350 . S
C846 C843 1.463 . S
C846 N850 1.427 . S
C847 H837 0.929 . S
C847 C845 1.433 . S
C847 N850 1.384 . S
C848 H839 0.929 . S
C848 C840 1.378 . S
C848 C843 1.350 . S
C849 H836 0.929 . S
C849 C841 1.433 . S
C849 N851 1.384 . S
N850 C846 1.427 . S
N850 C847 1.384 . S
N851 C843 1.427 . S
N851 C849 1.384 . S
H852 C858 0.930 . S
H853 C862 0.930 . S
H854 C867 0.929 . S
H855 C865 0.929 . S
H856 C860 0.929 . S
H857 C866 0.929 . S
C858 H852 0.930 . S
C858 C859 1.367 . S
C858 C866 1.378 . S
C859 C858 1.367 . S
C859 C867 1.433 . S
C860 H856 0.929 . S
C860 C862 1.378 . S
C860 C864 1.350 . S
C861 C864 1.463 . S
C861 C866 1.350 . S
C861 N869 1.427 . S
C862 H853 0.930 . S
C862 C860 1.378 . S
C862 C863 1.367 . S
C863 C862 1.367 . S
C863 C865 1.433 . S
C864 C860 1.350 . S
C864 C861 1.463 . S
C864 N868 1.427 . S
C865 H855 0.929 . S
C865 C863 1.433 . S
C865 N868 1.384 . S
C866 H857 0.929 . S
C866 C858 1.378 . S
C866 C861 1.350 . S
C867 H854 0.929 . S
C867 C859 1.433 . S
C867 N869 1.384 . S
N868 C864 1.427 . S
N868 C865 1.384 . S
N869 C861 1.427 . S
N869 C867 1.384 . S
H870 C876 0.930 . S
H871 C880 0.930 . S
H872 C885 0.929 . S
H873 C883 0.929 . S
H874 C878 0.929 . S
H875 C884 0.929 1_545 S
C876 H870 0.930 . S
C876 C877 1.367 . S
C876 C884 1.378 . S
C877 C876 1.367 . S
C877 C885 1.433 . S
C878 H874 0.929 . S
C878 C880 1.378 . S
C878 C882 1.350 . S
C879 C882 1.463 1_565 S
C879 C884 1.350 . S
C879 N887 1.427 . S
C880 H871 0.930 . S
C880 C878 1.378 . S
C880 C881 1.367 . S
C881 C880 1.367 . S
C881 C883 1.433 . S
C882 C878 1.350 . S
C882 C879 1.463 1_545 S
C882 N886 1.427 . S
C883 H873 0.929 . S
C883 C881 1.433 . S
C883 N886 1.384 . S
C884 H875 0.929 1_565 S
C884 C876 1.378 . S
C884 C879 1.350 . S
C885 H872 0.929 . S
C885 C877 1.433 . S
C885 N887 1.384 . S
N886 C882 1.427 . S
N886 C883 1.384 . S
N887 C879 1.427 . S
N887 C885 1.384 . S
H888 C894 0.930 . S
H889 C898 0.930 . S
H890 C903 0.929 . S
H891 C901 0.929 . S
H892 C896 0.929 . S
H893 C902 0.929 . S
C894 H888 0.930 . S
C894 C895 1.367 . S
C894 C902 1.378 . S
C895 C894 1.367 . S
C895 C903 1.433 . S
C896 H892 0.929 . S
C896 C898 1.378 . S
C896 C900 1.350 . S
C897 C900 1.463 . S
C897 C902 1.350 . S
C897 N905 1.427 . S
C898 H889 0.930 . S
C898 C896 1.378 . S
C898 C899 1.367 . S
C899 C898 1.367 . S
C899 C901 1.433 . S
C900 C896 1.350 . S
C900 C897 1.463 . S
C900 N904 1.427 . S
C901 H891 0.929 . S
C901 C899 1.433 . S
C901 N904 1.384 . S
C902 H893 0.929 . S
C902 C894 1.378 . S
C902 C897 1.350 . S
C903 H890 0.929 . S
C903 C895 1.433 . S
C903 N905 1.384 . S
N904 C900 1.427 . S
N904 C901 1.384 . S
N905 C897 1.427 . S
N905 C903 1.384 . S
H906 C912 0.930 . S
H907 C916 0.930 . S
H908 C921 0.929 . S
H909 C919 0.929 . S
H910 C914 0.929 . S
H911 C920 0.929 . S
C912 H906 0.930 . S
C912 C913 1.367 . S
C912 C920 1.378 . S
C913 C912 1.367 . S
C913 C921 1.433 . S
C914 H910 0.929 . S
C914 C916 1.378 . S
C914 C918 1.350 . S
C915 C918 1.463 . S
C915 C920 1.350 . S
C915 N923 1.427 . S
C916 H907 0.930 . S
C916 C914 1.378 . S
C916 C917 1.367 . S
C917 C916 1.367 . S
C917 C919 1.433 . S
C918 C914 1.350 . S
C918 C915 1.463 . S
C918 N922 1.427 . S
C919 H909 0.929 . S
C919 C917 1.433 . S
C919 N922 1.384 . S
C920 H911 0.929 . S
C920 C912 1.378 . S
C920 C915 1.350 . S
C921 H908 0.929 . S
C921 C913 1.433 . S
C921 N923 1.384 . S
N922 C918 1.427 . S
N922 C919 1.384 . S
N923 C915 1.427 . S
N923 C921 1.384 . S
H924 C930 0.930 . S
H925 C934 0.930 . S
H926 C939 0.929 . S
H927 C937 0.929 . S
H928 C932 0.929 . S
H929 C938 0.929 . S
C930 H924 0.930 . S
C930 C931 1.367 . S
C930 C938 1.378 . S
C931 C930 1.367 . S
C931 C939 1.433 . S
C932 H928 0.929 . S
C932 C934 1.378 . S
C932 C936 1.350 . S
C933 C936 1.463 . S
C933 C938 1.350 . S
C933 N941 1.427 . S
C934 H925 0.930 . S
C934 C932 1.378 . S
C934 C935 1.367 . S
C935 C934 1.367 . S
C935 C937 1.433 . S
C936 C932 1.350 . S
C936 C933 1.463 . S
C936 N940 1.427 . S
C937 H927 0.929 . S
C937 C935 1.433 . S
C937 N940 1.384 . S
C938 H929 0.929 . S
C938 C930 1.378 . S
C938 C933 1.350 . S
C939 H926 0.929 . S
C939 C931 1.433 . S
C939 N941 1.384 . S
N940 C936 1.427 . S
N940 C937 1.384 . S
N941 C933 1.427 . S
N941 C939 1.384 . S
H942 C948 0.930 . S
H943 C952 0.930 . S
H944 C957 0.929 . S
H945 C955 0.929 . S
H946 C950 0.929 . S
H947 C956 0.929 . S
C948 H942 0.930 . S
C948 C949 1.367 . S
C948 C956 1.378 . S
C949 C948 1.367 . S
C949 C957 1.433 . S
C950 H946 0.929 . S
C950 C952 1.378 . S
C950 C954 1.350 . S
C951 C954 1.463 1_545 S
C951 C956 1.350 . S
C951 N959 1.427 . S
C952 H943 0.930 . S
C952 C950 1.378 . S
C952 C953 1.367 . S
C953 C952 1.367 . S
C953 C955 1.433 . S
C954 C950 1.350 . S
C954 C951 1.463 1_565 S
C954 N958 1.427 . S
C955 H945 0.929 . S
C955 C953 1.433 . S
C955 N958 1.384 . S
C956 H947 0.929 . S
C956 C948 1.378 . S
C956 C951 1.350 . S
C957 H944 0.929 . S
C957 C949 1.433 . S
C957 N959 1.384 . S
N958 C954 1.427 . S
N958 C955 1.384 . S
N959 C951 1.427 . S
N959 C957 1.384 . S
H960 C966 0.930 . S
H961 C970 0.930 . S
H962 C975 0.929 . S
H963 C973 0.929 . S
H964 C968 0.929 . S
H965 C974 0.929 . S
C966 H960 0.930 . S
C966 C967 1.367 . S
C966 C974 1.378 . S
C967 C966 1.367 . S
C967 C975 1.433 . S
C968 H964 0.929 . S
C968 C970 1.378 . S
C968 C972 1.350 . S
C969 C972 1.463 . S
C969 C974 1.350 . S
C969 N977 1.427 . S
C970 H961 0.930 . S
C970 C968 1.378 . S
C970 C971 1.367 . S
C971 C970 1.367 . S
C971 C973 1.433 . S
C972 C968 1.350 . S
C972 C969 1.463 . S
C972 N976 1.427 . S
C973 H963 0.929 . S
C973 C971 1.433 . S
C973 N976 1.384 . S
C974 H965 0.929 . S
C974 C966 1.378 . S
C974 C969 1.350 . S
C975 H962 0.929 . S
C975 C967 1.433 . S
C975 N977 1.384 . S
N976 C972 1.427 . S
N976 C973 1.384 . S
N977 C969 1.427 . S
N977 C975 1.384 . S
H978 C984 0.930 . S
H979 C988 0.930 . S
H980 C993 0.929 . S
H981 C991 0.929 . S
H982 C986 0.929 . S
H983 C992 0.929 . S
C984 H978 0.930 . S
C984 C985 1.367 . S
C984 C992 1.378 . S
C985 C984 1.367 . S
C985 C993 1.433 . S
C986 H982 0.929 . S
C986 C988 1.378 . S
C986 C990 1.350 . S
C987 C990 1.463 . S
C987 C992 1.350 . S
C987 N995 1.427 . S
C988 H979 0.930 . S
C988 C986 1.378 . S
C988 C989 1.367 . S
C989 C988 1.367 . S
C989 C991 1.433 . S
C990 C986 1.350 . S
C990 C987 1.463 . S
C990 N994 1.427 . S
C991 H981 0.929 . S
C991 C989 1.433 . S
C991 N994 1.384 . S
C992 H983 0.929 . S
C992 C984 1.378 . S
C992 C987 1.350 . S
C993 H980 0.929 . S
C993 C985 1.433 . S
C993 N995 1.384 . S
N994 C990 1.427 . S
N994 C991 1.384 . S
N995 C987 1.427 . S
N995 C993 1.384 . S
H996 C1002 0.930 . S
H997 C1006 0.930 . S
H998 C1011 0.929 . S
H999 C1009 0.929 . S
H1000 C1004 0.929 . S
H1001 C1010 0.929 . S
C1002 H996 0.930 . S
C1002 C1003 1.367 . S
C1002 C1010 1.378 . S
C1003 C1002 1.367 . S
C1003 C1011 1.433 . S
C1004 H1000 0.929 . S
C1004 C1006 1.378 . S
C1004 C1008 1.350 . S
C1005 C1008 1.463 1_655 S
C1005 C1010 1.350 . S
C1005 N1013 1.427 . S
C1006 H997 0.930 . S
C1006 C1004 1.378 . S
C1006 C1007 1.367 . S
C1007 C1006 1.367 . S
C1007 C1009 1.433 . S
C1008 C1004 1.350 . S
C1008 C1005 1.463 1_455 S
C1008 N1012 1.427 . S
C1009 H999 0.929 . S
C1009 C1007 1.433 . S
C1009 N1012 1.384 . S
C1010 H1001 0.929 . S
C1010 C1002 1.378 . S
C1010 C1005 1.350 . S
C1011 H998 0.929 . S
C1011 C1003 1.433 . S
C1011 N1013 1.384 . S
N1012 C1008 1.427 . S
N1012 C1009 1.384 . S
N1013 C1005 1.427 . S
N1013 C1011 1.384 . S
H1014 C1020 0.930 . S
H1015 C1024 0.930 . S
H1016 C1029 0.929 . S
H1017 C1027 0.929 . S
H1018 C1022 0.929 . S
H1019 C1028 0.929 . S
C1020 H1014 0.930 . S
C1020 C1021 1.367 . S
C1020 C1028 1.378 . S
C1021 C1020 1.367 . S
C1021 C1029 1.433 . S
C1022 H1018 0.929 . S
C1022 C1024 1.378 . S
C1022 C1026 1.350 . S
C1023 C1026 1.463 . S
C1023 C1028 1.350 . S
C1023 N1031 1.427 . S
C1024 H1015 0.930 . S
C1024 C1022 1.378 . S
C1024 C1025 1.367 . S
C1025 C1024 1.367 . S
C1025 C1027 1.433 . S
C1026 C1022 1.350 . S
C1026 C1023 1.463 . S
C1026 N1030 1.427 . S
C1027 H1017 0.929 . S
C1027 C1025 1.433 . S
C1027 N1030 1.384 . S
C1028 H1019 0.929 . S
C1028 C1020 1.378 . S
C1028 C1023 1.350 . S
C1029 H1016 0.929 . S
C1029 C1021 1.433 . S
C1029 N1031 1.384 . S
N1030 C1026 1.427 . S
N1030 C1027 1.384 . S
N1031 C1023 1.427 . S
N1031 C1029 1.384 . S
H1032 C1038 0.930 . S
H1033 C1042 0.930 . S
H1034 C1047 0.929 . S
H1035 C1045 0.929 . S
H1036 C1040 0.929 . S
H1037 C1046 0.929 . S
C1038 H1032 0.930 . S
C1038 C1039 1.367 . S
C1038 C1046 1.378 . S
C1039 C1038 1.367 . S
C1039 C1047 1.433 . S
C1040 H1036 0.929 . S
C1040 C1042 1.378 . S
C1040 C1044 1.350 . S
C1041 C1044 1.463 . S
C1041 C1046 1.350 . S
C1041 N1049 1.427 . S
C1042 H1033 0.930 . S
C1042 C1040 1.378 . S
C1042 C1043 1.367 . S
C1043 C1042 1.367 . S
C1043 C1045 1.433 . S
C1044 C1040 1.350 . S
C1044 C1041 1.463 . S
C1044 N1048 1.427 . S
C1045 H1035 0.929 . S
C1045 C1043 1.433 . S
C1045 N1048 1.384 . S
C1046 H1037 0.929 . S
C1046 C1038 1.378 . S
C1046 C1041 1.350 . S
C1047 H1034 0.929 . S
C1047 C1039 1.433 . S
C1047 N1049 1.384 . S
N1048 C1044 1.427 . S
N1048 C1045 1.384 . S
N1049 C1041 1.427 . S
N1049 C1047 1.384 . S
H1050 C1056 0.930 . S
H1051 C1060 0.930 . S
H1052 C1065 0.929 . S
H1053 C1063 0.929 . S
H1054 C1058 0.929 . S
H1055 C1064 0.929 . S
C1056 H1050 0.930 . S
C1056 C1057 1.367 . S
C1056 C1064 1.378 . S
C1057 C1056 1.367 . S
C1057 C1065 1.433 . S
C1058 H1054 0.929 . S
C1058 C1060 1.378 . S
C1058 C1062 1.350 . S
C1059 C1062 1.463 . S
C1059 C1064 1.350 . S
C1059 N1067 1.427 . S
C1060 H1051 0.930 . S
C1060 C1058 1.378 . S
C1060 C1061 1.367 . S
C1061 C1060 1.367 . S
C1061 C1063 1.433 . S
C1062 C1058 1.350 . S
C1062 C1059 1.463 . S
C1062 N1066 1.427 . S
C1063 H1053 0.929 . S
C1063 C1061 1.433 . S
C1063 N1066 1.384 . S
C1064 H1055 0.929 . S
C1064 C1056 1.378 . S
C1064 C1059 1.350 . S
C1065 H1052 0.929 . S
C1065 C1057 1.433 . S
C1065 N1067 1.384 . S
N1066 C1062 1.427 . S
N1066 C1063 1.384 . S
N1067 C1059 1.427 . S
N1067 C1065 1.384 . S
H1068 C1074 0.930 . S
H1069 C1078 0.930 . S
H1070 C1083 0.929 . S
H1071 C1081 0.929 . S
H1072 C1076 0.929 . S
H1073 C1082 0.929 . S
C1074 H1068 0.930 . S
C1074 C1075 1.367 . S
C1074 C1082 1.378 . S
C1075 C1074 1.367 . S
C1075 C1083 1.433 . S
C1076 H1072 0.929 . S
C1076 C1078 1.378 . S
C1076 C1080 1.350 . S
C1077 C1080 1.463 1_455 S
C1077 C1082 1.350 . S
C1077 N1085 1.427 . S
C1078 H1069 0.930 . S
C1078 C1076 1.378 . S
C1078 C1079 1.367 . S
C1079 C1078 1.367 . S
C1079 C1081 1.433 . S
C1080 C1076 1.350 . S
C1080 C1077 1.463 1_655 S
C1080 N1084 1.427 . S
C1081 H1071 0.929 . S
C1081 C1079 1.433 . S
C1081 N1084 1.384 . S
C1082 H1073 0.929 . S
C1082 C1074 1.378 . S
C1082 C1077 1.350 . S
C1083 H1070 0.929 . S
C1083 C1075 1.433 . S
C1083 N1085 1.384 . S
N1084 C1080 1.427 . S
N1084 C1081 1.384 . S
N1085 C1077 1.427 . S
N1085 C1083 1.384 . S
H1086 C1092 0.930 . S
H1087 C1096 0.930 . S
H1088 C1101 0.929 . S
H1089 C1099 0.929 . S
H1090 C1094 0.929 . S
H1091 C1100 0.929 . S
C1092 H1086 0.930 . S
C1092 C1093 1.367 . S
C1092 C1100 1.378 . S
C1093 C1092 1.367 . S
C1093 C1101 1.433 . S
C1094 H1090 0.929 . S
C1094 C1096 1.378 . S
C1094 C1098 1.350 . S
C1095 C1098 1.463 1_655 S
C1095 C1100 1.350 . S
C1095 N1103 1.427 . S
C1096 H1087 0.930 . S
C1096 C1094 1.378 . S
C1096 C1097 1.367 . S
C1097 C1096 1.367 . S
C1097 C1099 1.433 . S
C1098 C1094 1.350 . S
C1098 C1095 1.463 1_455 S
C1098 N1102 1.427 . S
C1099 H1089 0.929 . S
C1099 C1097 1.433 . S
C1099 N1102 1.384 . S
C1100 H1091 0.929 . S
C1100 C1092 1.378 . S
C1100 C1095 1.350 . S
C1101 H1088 0.929 . S
C1101 C1093 1.433 . S
C1101 N1103 1.384 . S
N1102 C1098 1.427 . S
N1102 C1099 1.384 . S
N1103 C1095 1.427 . S
N1103 C1101 1.384 . S
H1104 C1110 0.930 . S
H1105 C1114 0.930 . S
H1106 C1119 0.929 . S
H1107 C1117 0.929 . S
H1108 C1112 0.929 . S
H1109 C1118 0.929 . S
C1110 H1104 0.930 . S
C1110 C1111 1.367 . S
C1110 C1118 1.378 . S
C1111 C1110 1.367 . S
C1111 C1119 1.433 . S
C1112 H1108 0.929 . S
C1112 C1114 1.378 . S
C1112 C1116 1.350 . S
C1113 C1116 1.463 . S
C1113 C1118 1.350 . S
C1113 N1121 1.427 . S
C1114 H1105 0.930 . S
C1114 C1112 1.378 . S
C1114 C1115 1.367 . S
C1115 C1114 1.367 . S
C1115 C1117 1.433 . S
C1116 C1112 1.350 . S
C1116 C1113 1.463 . S
C1116 N1120 1.427 . S
C1117 H1107 0.929 . S
C1117 C1115 1.433 . S
C1117 N1120 1.384 . S
C1118 H1109 0.929 . S
C1118 C1110 1.378 . S
C1118 C1113 1.350 . S
C1119 H1106 0.929 . S
C1119 C1111 1.433 . S
C1119 N1121 1.384 . S
N1120 C1116 1.427 . S
N1120 C1117 1.384 . S
N1121 C1113 1.427 . S
N1121 C1119 1.384 . S
H1122 C1128 0.930 . S
H1123 C1132 0.930 . S
H1124 C1137 0.929 . S
H1125 C1135 0.929 . S
H1126 C1130 0.929 . S
H1127 C1136 0.929 . S
C1128 H1122 0.930 . S
C1128 C1129 1.367 . S
C1128 C1136 1.378 . S
C1129 C1128 1.367 . S
C1129 C1137 1.433 . S
C1130 H1126 0.929 . S
C1130 C1132 1.378 . S
C1130 C1134 1.350 . S
C1131 C1134 1.463 . S
C1131 C1136 1.350 . S
C1131 N1139 1.427 . S
C1132 H1123 0.930 . S
C1132 C1130 1.378 . S
C1132 C1133 1.367 . S
C1133 C1132 1.367 . S
C1133 C1135 1.433 . S
C1134 C1130 1.350 . S
C1134 C1131 1.463 . S
C1134 N1138 1.427 . S
C1135 H1125 0.929 . S
C1135 C1133 1.433 . S
C1135 N1138 1.384 . S
C1136 H1127 0.929 . S
C1136 C1128 1.378 . S
C1136 C1131 1.350 . S
C1137 H1124 0.929 . S
C1137 C1129 1.433 . S
C1137 N1139 1.384 . S
N1138 C1134 1.427 . S
N1138 C1135 1.384 . S
N1139 C1131 1.427 . S
N1139 C1137 1.384 . S
H1140 C1146 0.930 . S
H1141 C1150 0.930 . S
H1142 C1155 0.929 . S
H1143 C1153 0.929 . S
H1144 C1148 0.929 . S
H1145 C1154 0.929 . S
C1146 H1140 0.930 . S
C1146 C1147 1.367 . S
C1146 C1154 1.378 . S
C1147 C1146 1.367 . S
C1147 C1155 1.433 . S
C1148 H1144 0.929 . S
C1148 C1150 1.378 . S
C1148 C1152 1.350 . S
C1149 C1152 1.463 . S
C1149 C1154 1.350 . S
C1149 N1157 1.427 . S
C1150 H1141 0.930 . S
C1150 C1148 1.378 . S
C1150 C1151 1.367 . S
C1151 C1150 1.367 . S
C1151 C1153 1.433 . S
C1152 C1148 1.350 . S
C1152 C1149 1.463 . S
C1152 N1156 1.427 . S
C1153 H1143 0.929 . S
C1153 C1151 1.433 . S
C1153 N1156 1.384 . S
C1154 H1145 0.929 . S
C1154 C1146 1.378 . S
C1154 C1149 1.350 . S
C1155 H1142 0.929 . S
C1155 C1147 1.433 . S
C1155 N1157 1.384 . S
N1156 C1152 1.427 . S
N1156 C1153 1.384 . S
N1157 C1149 1.427 . S
N1157 C1155 1.384 . S
H1158 C1164 0.930 . S
H1159 C1168 0.930 . S
H1160 C1173 0.929 . S
H1161 C1171 0.929 . S
H1162 C1166 0.929 . S
H1163 C1172 0.929 . S
C1164 H1158 0.930 . S
C1164 C1165 1.367 . S
C1164 C1172 1.378 . S
C1165 C1164 1.367 . S
C1165 C1173 1.433 . S
C1166 H1162 0.929 . S
C1166 C1168 1.378 . S
C1166 C1170 1.350 . S
C1167 C1170 1.463 . S
C1167 C1172 1.350 . S
C1167 N1175 1.427 . S
C1168 H1159 0.930 . S
C1168 C1166 1.378 . S
C1168 C1169 1.367 . S
C1169 C1168 1.367 . S
C1169 C1171 1.433 . S
C1170 C1166 1.350 . S
C1170 C1167 1.463 . S
C1170 N1174 1.427 . S
C1171 H1161 0.929 . S
C1171 C1169 1.433 . S
C1171 N1174 1.384 . S
C1172 H1163 0.929 . S
C1172 C1164 1.378 . S
C1172 C1167 1.350 . S
C1173 H1160 0.929 . S
C1173 C1165 1.433 . S
C1173 N1175 1.384 . S
N1174 C1170 1.427 . S
N1174 C1171 1.384 . S
N1175 C1167 1.427 . S
N1175 C1173 1.384 . S
H1176 C1182 0.930 . S
H1177 C1186 0.930 . S
H1178 C1191 0.929 . S
H1179 C1189 0.929 . S
H1180 C1184 0.929 . S
H1181 C1190 0.929 . S
C1182 H1176 0.930 . S
C1182 C1183 1.367 . S
C1182 C1190 1.378 . S
C1183 C1182 1.367 . S
C1183 C1191 1.433 . S
C1184 H1180 0.929 . S
C1184 C1186 1.378 . S
C1184 C1188 1.350 . S
C1185 C1188 1.463 . S
C1185 C1190 1.350 . S
C1185 N1193 1.427 . S
C1186 H1177 0.930 . S
C1186 C1184 1.378 . S
C1186 C1187 1.367 . S
C1187 C1186 1.367 . S
C1187 C1189 1.433 . S
C1188 C1184 1.350 . S
C1188 C1185 1.463 . S
C1188 N1192 1.427 . S
C1189 H1179 0.929 . S
C1189 C1187 1.433 . S
C1189 N1192 1.384 . S
C1190 H1181 0.929 . S
C1190 C1182 1.378 . S
C1190 C1185 1.350 . S
C1191 H1178 0.929 . S
C1191 C1183 1.433 . S
C1191 N1193 1.384 . S
N1192 C1188 1.427 . S
N1192 C1189 1.384 . S
N1193 C1185 1.427 . S
N1193 C1191 1.384 . S
H1194 C1200 0.930 . S
H1195 C1204 0.930 . S
H1196 C1209 0.929 . S
H1197 C1207 0.929 . S
H1198 C1202 0.929 . S
H1199 C1208 0.929 . S
C1200 H1194 0.930 . S
C1200 C1201 1.367 . S
C1200 C1208 1.378 . S
C1201 C1200 1.367 . S
C1201 C1209 1.433 . S
C1202 H1198 0.929 . S
C1202 C1204 1.378 . S
C1202 C1206 1.350 . S
C1203 C1206 1.463 . S
C1203 C1208 1.350 . S
C1203 N1211 1.427 . S
C1204 H1195 0.930 . S
C1204 C1202 1.378 . S
C1204 C1205 1.367 . S
C1205 C1204 1.367 . S
C1205 C1207 1.433 . S
C1206 C1202 1.350 . S
C1206 C1203 1.463 . S
C1206 N1210 1.427 . S
C1207 H1197 0.929 . S
C1207 C1205 1.433 . S
C1207 N1210 1.384 . S
C1208 H1199 0.929 . S
C1208 C1200 1.378 . S
C1208 C1203 1.350 . S
C1209 H1196 0.929 . S
C1209 C1201 1.433 . S
C1209 N1211 1.384 . S
N1210 C1206 1.427 . S
N1210 C1207 1.384 . S
N1211 C1203 1.427 . S
N1211 C1209 1.384 . S
H1212 C1218 0.930 . S
H1213 C1222 0.930 . S
H1214 C1227 0.929 . S
H1215 C1225 0.929 . S
H1216 C1220 0.929 . S
H1217 C1226 0.929 . S
C1218 H1212 0.930 . S
C1218 C1219 1.367 . S
C1218 C1226 1.378 . S
C1219 C1218 1.367 . S
C1219 C1227 1.433 . S
C1220 H1216 0.929 . S
C1220 C1222 1.378 . S
C1220 C1224 1.350 . S
C1221 C1224 1.463 . S
C1221 C1226 1.350 . S
C1221 N1229 1.427 . S
C1222 H1213 0.930 . S
C1222 C1220 1.378 . S
C1222 C1223 1.367 . S
C1223 C1222 1.367 . S
C1223 C1225 1.433 . S
C1224 C1220 1.350 . S
C1224 C1221 1.463 . S
C1224 N1228 1.427 . S
C1225 H1215 0.929 . S
C1225 C1223 1.433 . S
C1225 N1228 1.384 . S
C1226 H1217 0.929 . S
C1226 C1218 1.378 . S
C1226 C1221 1.350 . S
C1227 H1214 0.929 . S
C1227 C1219 1.433 . S
C1227 N1229 1.384 . S
N1228 C1224 1.427 . S
N1228 C1225 1.384 . S
N1229 C1221 1.427 . S
N1229 C1227 1.384 . S
H1230 C1236 0.930 . S
H1231 C1240 0.930 . S
H1232 C1245 0.929 . S
H1233 C1243 0.929 . S
H1234 C1238 0.929 . S
H1235 C1244 0.929 . S
C1236 H1230 0.930 . S
C1236 C1237 1.367 . S
C1236 C1244 1.378 . S
C1237 C1236 1.367 . S
C1237 C1245 1.433 . S
C1238 H1234 0.929 . S
C1238 C1240 1.378 . S
C1238 C1242 1.350 . S
C1239 C1242 1.463 . S
C1239 C1244 1.350 . S
C1239 N1247 1.427 . S
C1240 H1231 0.930 . S
C1240 C1238 1.378 . S
C1240 C1241 1.367 . S
C1241 C1240 1.367 . S
C1241 C1243 1.433 . S
C1242 C1238 1.350 . S
C1242 C1239 1.463 . S
C1242 N1246 1.427 . S
C1243 H1233 0.929 . S
C1243 C1241 1.433 . S
C1243 N1246 1.384 . S
C1244 H1235 0.929 . S
C1244 C1236 1.378 . S
C1244 C1239 1.350 . S
C1245 H1232 0.929 . S
C1245 C1237 1.433 . S
C1245 N1247 1.384 . S
N1246 C1242 1.427 . S
N1246 C1243 1.384 . S
N1247 C1239 1.427 . S
N1247 C1245 1.384 . S
H1248 C1254 0.930 . S
H1249 C1258 0.930 . S
H1250 C1263 0.929 . S
H1251 C1261 0.929 . S
H1252 C1256 0.929 . S
H1253 C1262 0.929 . S
C1254 H1248 0.930 . S
C1254 C1255 1.367 . S
C1254 C1262 1.378 . S
C1255 C1254 1.367 . S
C1255 C1263 1.433 . S
C1256 H1252 0.929 . S
C1256 C1258 1.378 . S
C1256 C1260 1.350 . S
C1257 C1260 1.463 . S
C1257 C1262 1.350 . S
C1257 N1265 1.427 . S
C1258 H1249 0.930 . S
C1258 C1256 1.378 . S
C1258 C1259 1.367 . S
C1259 C1258 1.367 . S
C1259 C1261 1.433 . S
C1260 C1256 1.350 . S
C1260 C1257 1.463 . S
C1260 N1264 1.427 . S
C1261 H1251 0.929 . S
C1261 C1259 1.433 . S
C1261 N1264 1.384 . S
C1262 H1253 0.929 . S
C1262 C1254 1.378 . S
C1262 C1257 1.350 . S
C1263 H1250 0.929 . S
C1263 C1255 1.433 . S
C1263 N1265 1.384 . S
N1264 C1260 1.427 . S
N1264 C1261 1.384 . S
N1265 C1257 1.427 . S
N1265 C1263 1.384 . S
H1266 C1272 0.930 . S
H1267 C1276 0.930 . S
H1268 C1281 0.929 . S
H1269 C1279 0.929 . S
H1270 C1274 0.903 1_565 S
H1271 C1280 0.929 . S
C1272 H1266 0.930 . S
C1272 C1273 1.367 . S
C1272 C1280 1.378 . S
C1273 C1272 1.367 . S
C1273 C1281 1.433 . S
C1274 H1270 0.903 1_545 S
C1274 C1276 1.378 . S
C1274 C1278 1.350 . S
C1275 C1278 1.463 1_565 S
C1275 C1280 1.350 . S
C1275 N1283 1.427 . S
C1276 H1267 0.930 . S
C1276 C1274 1.378 . S
C1276 C1277 1.367 . S
C1277 C1276 1.367 . S
C1277 C1279 1.433 . S
C1278 C1274 1.350 . S
C1278 C1275 1.463 1_545 S
C1278 N1282 1.427 . S
C1279 H1269 0.929 . S
C1279 C1277 1.433 . S
C1279 N1282 1.384 . S
C1280 H1271 0.929 . S
C1280 C1272 1.378 . S
C1280 C1275 1.350 . S
C1281 H1268 0.929 . S
C1281 C1273 1.433 . S
C1281 N1283 1.384 . S
N1282 C1278 1.427 . S
N1282 C1279 1.384 . S
N1283 C1275 1.427 . S
N1283 C1281 1.384 . S
H1284 C1290 0.930 . S
H1285 C1294 0.930 . S
H1286 C1299 0.929 . S
H1287 C1297 0.929 . S
H1288 C1292 0.929 . S
H1289 C1298 0.929 . S
C1290 H1284 0.930 . S
C1290 C1291 1.367 . S
C1290 C1298 1.378 . S
C1291 C1290 1.367 . S
C1291 C1299 1.433 . S
C1292 H1288 0.929 . S
C1292 C1294 1.378 . S
C1292 C1296 1.350 . S
C1293 C1296 1.463 . S
C1293 C1298 1.350 . S
C1293 N1301 1.427 . S
C1294 H1285 0.930 . S
C1294 C1292 1.378 . S
C1294 C1295 1.367 . S
C1295 C1294 1.367 . S
C1295 C1297 1.433 . S
C1296 C1292 1.350 . S
C1296 C1293 1.463 . S
C1296 N1300 1.427 . S
C1297 H1287 0.929 . S
C1297 C1295 1.433 . S
C1297 N1300 1.384 . S
C1298 H1289 0.929 . S
C1298 C1290 1.378 . S
C1298 C1293 1.350 . S
C1299 H1286 0.929 . S
C1299 C1291 1.433 . S
C1299 N1301 1.384 . S
N1300 C1296 1.427 . S
N1300 C1297 1.384 . S
N1301 C1293 1.427 . S
N1301 C1299 1.384 . S
H1302 C1308 0.930 . S
H1303 C1312 0.930 . S
H1304 C1317 0.929 . S
H1305 C1315 0.929 . S
H1306 C1310 0.929 . S
H1307 C1316 0.929 . S
C1308 H1302 0.930 . S
C1308 C1309 1.367 . S
C1308 C1316 1.378 . S
C1309 C1308 1.367 . S
C1309 C1317 1.433 . S
C1310 H1306 0.929 . S
C1310 C1312 1.378 . S
C1310 C1314 1.350 . S
C1311 C1314 1.463 . S
C1311 C1316 1.350 . S
C1311 N1319 1.427 . S
C1312 H1303 0.930 . S
C1312 C1310 1.378 . S
C1312 C1313 1.367 . S
C1313 C1312 1.367 . S
C1313 C1315 1.433 . S
C1314 C1310 1.350 . S
C1314 C1311 1.463 . S
C1314 N1318 1.427 . S
C1315 H1305 0.929 . S
C1315 C1313 1.433 . S
C1315 N1318 1.384 . S
C1316 H1307 0.929 . S
C1316 C1308 1.378 . S
C1316 C1311 1.350 . S
C1317 H1304 0.929 . S
C1317 C1309 1.433 . S
C1317 N1319 1.384 . S
N1318 C1314 1.427 . S
N1318 C1315 1.384 . S
N1319 C1311 1.427 . S
N1319 C1317 1.384 . S
H1320 C1326 0.930 . S
H1321 C1330 0.930 . S
H1322 C1335 0.929 . S
H1323 C1333 0.929 . S
H1324 C1328 0.929 . S
H1325 C1334 0.929 . S
C1326 H1320 0.930 . S
C1326 C1327 1.367 . S
C1326 C1334 1.378 . S
C1327 C1326 1.367 . S
C1327 C1335 1.433 . S
C1328 H1324 0.929 . S
C1328 C1330 1.378 . S
C1328 C1332 1.350 . S
C1329 C1332 1.463 . S
C1329 C1334 1.350 . S
C1329 N1337 1.427 . S
C1330 H1321 0.930 . S
C1330 C1328 1.378 . S
C1330 C1331 1.367 . S
C1331 C1330 1.367 . S
C1331 C1333 1.433 . S
C1332 C1328 1.350 . S
C1332 C1329 1.463 . S
C1332 N1336 1.427 . S
C1333 H1323 0.929 . S
C1333 C1331 1.433 . S
C1333 N1336 1.384 . S
C1334 H1325 0.929 . S
C1334 C1326 1.378 . S
C1334 C1329 1.350 . S
C1335 H1322 0.929 . S
C1335 C1327 1.433 . S
C1335 N1337 1.384 . S
N1336 C1332 1.427 . S
N1336 C1333 1.384 . S
N1337 C1329 1.427 . S
N1337 C1335 1.384 . S
H1338 C1344 0.930 . S
H1339 C1348 0.930 . S
H1340 C1353 0.929 . S
H1341 C1351 0.929 . S
H1342 C1346 0.929 . S
H1343 C1352 0.929 . S
C1344 H1338 0.930 . S
C1344 C1345 1.367 . S
C1344 C1352 1.378 . S
C1345 C1344 1.367 . S
C1345 C1353 1.433 . S
C1346 H1342 0.929 . S
C1346 C1348 1.378 . S
C1346 C1350 1.350 . S
C1347 C1350 1.463 1_565 S
C1347 C1352 1.350 . S
C1347 N1355 1.427 . S
C1348 H1339 0.930 . S
C1348 C1346 1.378 . S
C1348 C1349 1.367 . S
C1349 C1348 1.367 . S
C1349 C1351 1.433 . S
C1350 C1346 1.350 . S
C1350 C1347 1.463 1_545 S
C1350 N1354 1.427 . S
C1351 H1341 0.929 . S
C1351 C1349 1.433 . S
C1351 N1354 1.384 . S
C1352 H1343 0.929 . S
C1352 C1344 1.378 . S
C1352 C1347 1.350 . S
C1353 H1340 0.929 . S
C1353 C1345 1.433 . S
C1353 N1355 1.384 . S
N1354 C1350 1.427 . S
N1354 C1351 1.384 . S
N1355 C1347 1.427 . S
N1355 C1353 1.384 . S
H1356 C1362 0.930 . S
H1357 C1366 0.930 . S
H1358 C1371 0.929 . S
H1359 C1369 0.929 . S
H1360 C1364 0.929 . S
H1361 C1370 0.929 . S
C1362 H1356 0.930 . S
C1362 C1363 1.367 . S
C1362 C1370 1.378 . S
C1363 C1362 1.367 . S
C1363 C1371 1.433 . S
C1364 H1360 0.929 . S
C1364 C1366 1.378 . S
C1364 C1368 1.350 . S
C1365 C1368 1.463 . S
C1365 C1370 1.350 . S
C1365 N1373 1.427 . S
C1366 H1357 0.930 . S
C1366 C1364 1.378 . S
C1366 C1367 1.367 . S
C1367 C1366 1.367 . S
C1367 C1369 1.433 . S
C1368 C1364 1.350 . S
C1368 C1365 1.463 . S
C1368 N1372 1.427 . S
C1369 H1359 0.929 . S
C1369 C1367 1.433 . S
C1369 N1372 1.384 . S
C1370 H1361 0.929 . S
C1370 C1362 1.378 . S
C1370 C1365 1.350 . S
C1371 H1358 0.929 . S
C1371 C1363 1.433 . S
C1371 N1373 1.384 . S
N1372 C1368 1.427 . S
N1372 C1369 1.384 . S
N1373 C1365 1.427 . S
N1373 C1371 1.384 . S
H1374 C1380 0.930 . S
H1375 C1384 0.930 . S
H1376 C1389 0.929 . S
H1377 C1387 0.929 . S
H1378 C1382 0.929 . S
H1379 C1388 0.929 . S
C1380 H1374 0.930 . S
C1380 C1381 1.367 . S
C1380 C1388 1.378 . S
C1381 C1380 1.367 . S
C1381 C1389 1.433 . S
C1382 H1378 0.929 . S
C1382 C1384 1.378 . S
C1382 C1386 1.350 . S
C1383 C1386 1.463 . S
C1383 C1388 1.350 . S
C1383 N1391 1.427 . S
C1384 H1375 0.930 . S
C1384 C1382 1.378 . S
C1384 C1385 1.367 . S
C1385 C1384 1.367 . S
C1385 C1387 1.433 . S
C1386 C1382 1.350 . S
C1386 C1383 1.463 . S
C1386 N1390 1.427 . S
C1387 H1377 0.929 . S
C1387 C1385 1.433 . S
C1387 N1390 1.384 . S
C1388 H1379 0.929 . S
C1388 C1380 1.378 . S
C1388 C1383 1.350 . S
C1389 H1376 0.929 . S
C1389 C1381 1.433 . S
C1389 N1391 1.384 . S
N1390 C1386 1.427 . S
N1390 C1387 1.384 . S
N1391 C1383 1.427 . S
N1391 C1389 1.384 . S
H1392 C1398 0.930 . S
H1393 C1402 0.930 . S
H1394 C1407 0.929 . S
H1395 C1405 0.929 . S
H1396 C1400 0.929 . S
H1397 C1406 0.929 . S
C1398 H1392 0.930 . S
C1398 C1399 1.367 . S
C1398 C1406 1.378 . S
C1399 C1398 1.367 . S
C1399 C1407 1.433 . S
C1400 H1396 0.929 . S
C1400 C1402 1.378 . S
C1400 C1404 1.350 . S
C1401 C1404 1.463 . S
C1401 C1406 1.350 . S
C1401 N1409 1.427 . S
C1402 H1393 0.930 . S
C1402 C1400 1.378 . S
C1402 C1403 1.367 . S
C1403 C1402 1.367 . S
C1403 C1405 1.433 . S
C1404 C1400 1.350 . S
C1404 C1401 1.463 . S
C1404 N1408 1.427 . S
C1405 H1395 0.929 . S
C1405 C1403 1.433 . S
C1405 N1408 1.384 . S
C1406 H1397 0.929 . S
C1406 C1398 1.378 . S
C1406 C1401 1.350 . S
C1407 H1394 0.929 . S
C1407 C1399 1.433 . S
C1407 N1409 1.384 . S
N1408 C1404 1.427 . S
N1408 C1405 1.384 . S
N1409 C1401 1.427 . S
N1409 C1407 1.384 . S
H1410 C1416 0.930 . S
H1411 C1420 0.930 . S
H1412 C1425 0.929 . S
H1413 C1423 0.929 . S
H1414 C1418 0.929 . S
H1415 C1424 0.929 . S
C1416 H1410 0.930 . S
C1416 C1417 1.367 . S
C1416 C1424 1.378 . S
C1417 C1416 1.367 . S
C1417 C1425 1.433 . S
C1418 H1414 0.929 . S
C1418 C1420 1.378 . S
C1418 C1422 1.350 . S
C1419 C1422 1.463 . S
C1419 C1424 1.350 . S
C1419 N1427 1.427 . S
C1420 H1411 0.930 . S
C1420 C1418 1.378 . S
C1420 C1421 1.367 . S
C1421 C1420 1.367 . S
C1421 C1423 1.433 . S
C1422 C1418 1.350 . S
C1422 C1419 1.463 . S
C1422 N1426 1.427 . S
C1423 H1413 0.929 . S
C1423 C1421 1.433 . S
C1423 N1426 1.384 . S
C1424 H1415 0.929 . S
C1424 C1416 1.378 . S
C1424 C1419 1.350 . S
C1425 H1412 0.929 . S
C1425 C1417 1.433 . S
C1425 N1427 1.384 . S
N1426 C1422 1.427 . S
N1426 C1423 1.384 . S
N1427 C1419 1.427 . S
N1427 C1425 1.384 . S
H1428 C1434 0.930 . S
H1429 C1438 0.930 . S
H1430 C1443 0.929 . S
H1431 C1441 0.929 . S
H1432 C1436 0.929 . S
H1433 C1442 0.929 . S
C1434 H1428 0.930 . S
C1434 C1435 1.367 . S
C1434 C1442 1.378 . S
C1435 C1434 1.367 . S
C1435 C1443 1.433 . S
C1436 H1432 0.929 . S
C1436 C1438 1.378 . S
C1436 C1440 1.350 . S
C1437 C1440 1.463 . S
C1437 C1442 1.350 . S
C1437 N1445 1.427 . S
C1438 H1429 0.930 . S
C1438 C1436 1.378 . S
C1438 C1439 1.367 . S
C1439 C1438 1.367 . S
C1439 C1441 1.433 . S
C1440 C1436 1.350 . S
C1440 C1437 1.463 . S
C1440 N1444 1.427 . S
C1441 H1431 0.929 . S
C1441 C1439 1.433 . S
C1441 N1444 1.384 . S
C1442 H1433 0.929 . S
C1442 C1434 1.378 . S
C1442 C1437 1.350 . S
C1443 H1430 0.929 . S
C1443 C1435 1.433 . S
C1443 N1445 1.384 . S
N1444 C1440 1.427 . S
N1444 C1441 1.384 . S
N1445 C1437 1.427 . S
N1445 C1443 1.384 . S
H1446 C1452 0.930 . S
H1447 C1456 0.930 . S
H1448 C1461 0.929 . S
H1449 C1459 0.929 . S
H1450 C1454 0.929 . S
H1451 C1460 0.929 . S
C1452 H1446 0.930 . S
C1452 C1453 1.367 . S
C1452 C1460 1.378 . S
C1453 C1452 1.367 . S
C1453 C1461 1.433 . S
C1454 H1450 0.929 . S
C1454 C1456 1.378 . S
C1454 C1458 1.350 . S
C1455 C1458 1.463 . S
C1455 C1460 1.350 . S
C1455 N1463 1.427 . S
C1456 H1447 0.930 . S
C1456 C1454 1.378 . S
C1456 C1457 1.367 . S
C1457 C1456 1.367 . S
C1457 C1459 1.433 . S
C1458 C1454 1.350 . S
C1458 C1455 1.463 . S
C1458 N1462 1.427 . S
C1459 H1449 0.929 . S
C1459 C1457 1.433 . S
C1459 N1462 1.384 . S
C1460 H1451 0.929 . S
C1460 C1452 1.378 . S
C1460 C1455 1.350 . S
C1461 H1448 0.929 . S
C1461 C1453 1.433 . S
C1461 N1463 1.384 . S
N1462 C1458 1.427 . S
N1462 C1459 1.384 . S
N1463 C1455 1.427 . S
N1463 C1461 1.384 . S
H1464 C1470 0.930 . S
H1465 C1474 0.930 . S
H1466 C1479 0.929 . S
H1467 C1477 0.929 . S
H1468 C1472 0.929 . S
H1469 C1478 0.929 . S
C1470 H1464 0.930 . S
C1470 C1471 1.367 . S
C1470 C1478 1.378 . S
C1471 C1470 1.367 . S
C1471 C1479 1.433 . S
C1472 H1468 0.929 . S
C1472 C1474 1.378 . S
C1472 C1476 1.350 . S
C1473 C1476 1.463 1_455 S
C1473 C1478 1.350 . S
C1473 N1481 1.427 . S
C1474 H1465 0.930 . S
C1474 C1472 1.378 . S
C1474 C1475 1.367 . S
C1475 C1474 1.367 . S
C1475 C1477 1.433 . S
C1476 C1472 1.350 . S
C1476 C1473 1.463 1_655 S
C1476 N1480 1.427 . S
C1477 H1467 0.929 . S
C1477 C1475 1.433 . S
C1477 N1480 1.384 . S
C1478 H1469 0.929 . S
C1478 C1470 1.378 . S
C1478 C1473 1.350 . S
C1479 H1466 0.929 . S
C1479 C1471 1.433 . S
C1479 N1481 1.384 . S
N1480 C1476 1.427 . S
N1480 C1477 1.384 . S
N1481 C1473 1.427 . S
N1481 C1479 1.384 . S
H1482 C1488 0.930 . S
H1483 C1492 0.930 . S
H1484 C1497 0.929 . S
H1485 C1495 0.929 . S
H1486 C1490 0.929 . S
H1487 C1496 0.929 . S
C1488 H1482 0.930 . S
C1488 C1489 1.367 . S
C1488 C1496 1.378 . S
C1489 C1488 1.367 . S
C1489 C1497 1.433 . S
C1490 H1486 0.929 . S
C1490 C1492 1.378 . S
C1490 C1494 1.350 . S
C1491 C1494 1.463 . S
C1491 C1496 1.350 . S
C1491 N1499 1.427 . S
C1492 H1483 0.930 . S
C1492 C1490 1.378 . S
C1492 C1493 1.367 . S
C1493 C1492 1.367 . S
C1493 C1495 1.433 . S
C1494 C1490 1.350 . S
C1494 C1491 1.463 . S
C1494 N1498 1.427 . S
C1495 H1485 0.929 . S
C1495 C1493 1.433 . S
C1495 N1498 1.384 . S
C1496 H1487 0.929 . S
C1496 C1488 1.378 . S
C1496 C1491 1.350 . S
C1497 H1484 0.929 . S
C1497 C1489 1.433 . S
C1497 N1499 1.384 . S
N1498 C1494 1.427 . S
N1498 C1495 1.384 . S
N1499 C1491 1.427 . S
N1499 C1497 1.384 . S
H1500 C1506 0.930 . S
H1501 C1510 0.930 . S
H1502 C1515 0.929 . S
H1503 C1513 0.929 . S
H1504 C1508 0.929 . S
H1505 C1514 0.929 . S
C1506 H1500 0.930 . S
C1506 C1507 1.367 . S
C1506 C1514 1.378 . S
C1507 C1506 1.367 . S
C1507 C1515 1.433 . S
C1508 H1504 0.929 . S
C1508 C1510 1.378 . S
C1508 C1512 1.350 . S
C1509 C1512 1.463 . S
C1509 C1514 1.350 . S
C1509 N1517 1.427 . S
C1510 H1501 0.930 . S
C1510 C1508 1.378 . S
C1510 C1511 1.367 . S
C1511 C1510 1.367 . S
C1511 C1513 1.433 . S
C1512 C1508 1.350 . S
C1512 C1509 1.463 . S
C1512 N1516 1.427 . S
C1513 H1503 0.929 . S
C1513 C1511 1.433 . S
C1513 N1516 1.384 . S
C1514 H1505 0.929 . S
C1514 C1506 1.378 . S
C1514 C1509 1.350 . S
C1515 H1502 0.929 . S
C1515 C1507 1.433 . S
C1515 N1517 1.384 . S
N1516 C1512 1.427 . S
N1516 C1513 1.384 . S
N1517 C1509 1.427 . S
N1517 C1515 1.384 . S
H1518 C1524 0.930 . S
H1519 C1528 0.930 . S
H1520 C1533 0.929 . S
H1521 C1531 0.929 . S
H1522 C1526 0.929 . S
H1523 C1532 0.929 . S
C1524 H1518 0.930 . S
C1524 C1525 1.367 . S
C1524 C1532 1.378 . S
C1525 C1524 1.367 . S
C1525 C1533 1.433 . S
C1526 H1522 0.929 . S
C1526 C1528 1.378 . S
C1526 C1530 1.350 . S
C1527 C1530 1.463 . S
C1527 C1532 1.350 . S
C1527 N1535 1.427 . S
C1528 H1519 0.930 . S
C1528 C1526 1.378 . S
C1528 C1529 1.367 . S
C1529 C1528 1.367 . S
C1529 C1531 1.433 . S
C1530 C1526 1.350 . S
C1530 C1527 1.463 . S
C1530 N1534 1.427 . S
C1531 H1521 0.929 . S
C1531 C1529 1.433 . S
C1531 N1534 1.384 . S
C1532 H1523 0.929 . S
C1532 C1524 1.378 . S
C1532 C1527 1.350 . S
C1533 H1520 0.929 . S
C1533 C1525 1.433 . S
C1533 N1535 1.384 . S
N1534 C1530 1.427 . S
N1534 C1531 1.384 . S
N1535 C1527 1.427 . S
N1535 C1533 1.384 . S
H1536 C1542 0.930 . S
H1537 C1546 0.930 . S
H1538 C1551 0.929 . S
H1539 C1549 0.929 . S
H1540 C1544 0.929 . S
H1541 C1550 0.929 . S
C1542 H1536 0.930 . S
C1542 C1543 1.367 . S
C1542 C1550 1.378 . S
C1543 C1542 1.367 . S
C1543 C1551 1.433 . S
C1544 H1540 0.929 . S
C1544 C1546 1.378 . S
C1544 C1548 1.350 . S
C1545 C1548 1.463 . S
C1545 C1550 1.350 . S
C1545 N1553 1.427 . S
C1546 H1537 0.930 . S
C1546 C1544 1.378 . S
C1546 C1547 1.367 . S
C1547 C1546 1.367 . S
C1547 C1549 1.433 . S
C1548 C1544 1.350 . S
C1548 C1545 1.463 . S
C1548 N1552 1.427 . S
C1549 H1539 0.929 . S
C1549 C1547 1.433 . S
C1549 N1552 1.384 . S
C1550 H1541 0.929 . S
C1550 C1542 1.378 . S
C1550 C1545 1.350 . S
C1551 H1538 0.929 . S
C1551 C1543 1.433 . S
C1551 N1553 1.384 . S
N1552 C1548 1.427 . S
N1552 C1549 1.384 . S
N1553 C1545 1.427 . S
N1553 C1551 1.384 . S
H1554 C1560 0.930 . S
H1555 C1564 0.930 . S
H1556 C1569 0.929 . S
H1557 C1567 0.929 . S
H1558 C1562 0.929 . S
H1559 C1568 0.929 . S
C1560 H1554 0.930 . S
C1560 C1561 1.367 . S
C1560 C1568 1.378 . S
C1561 C1560 1.367 . S
C1561 C1569 1.433 . S
C1562 H1558 0.929 . S
C1562 C1564 1.378 . S
C1562 C1566 1.350 . S
C1563 C1566 1.463 . S
C1563 C1568 1.350 . S
C1563 N1571 1.427 . S
C1564 H1555 0.930 . S
C1564 C1562 1.378 . S
C1564 C1565 1.367 . S
C1565 C1564 1.367 . S
C1565 C1567 1.433 . S
C1566 C1562 1.350 . S
C1566 C1563 1.463 . S
C1566 N1570 1.427 . S
C1567 H1557 0.929 . S
C1567 C1565 1.433 . S
C1567 N1570 1.384 . S
C1568 H1559 0.929 . S
C1568 C1560 1.378 . S
C1568 C1563 1.350 . S
C1569 H1556 0.929 . S
C1569 C1561 1.433 . S
C1569 N1571 1.384 . S
N1570 C1566 1.427 . S
N1570 C1567 1.384 . S
N1571 C1563 1.427 . S
N1571 C1569 1.384 . S
H1572 C1578 0.930 . S
H1573 C1582 0.930 . S
H1574 C1587 0.929 . S
H1575 C1585 0.929 . S
H1576 C1580 0.929 . S
H1577 C1586 0.929 . S
C1578 H1572 0.930 . S
C1578 C1579 1.367 . S
C1578 C1586 1.378 . S
C1579 C1578 1.367 . S
C1579 C1587 1.433 . S
C1580 H1576 0.929 . S
C1580 C1582 1.378 . S
C1580 C1584 1.350 . S
C1581 C1584 1.463 . S
C1581 C1586 1.350 . S
C1581 N1589 1.427 . S
C1582 H1573 0.930 . S
C1582 C1580 1.378 . S
C1582 C1583 1.367 . S
C1583 C1582 1.367 . S
C1583 C1585 1.433 . S
C1584 C1580 1.350 . S
C1584 C1581 1.463 . S
C1584 N1588 1.427 . S
C1585 H1575 0.929 . S
C1585 C1583 1.433 . S
C1585 N1588 1.384 . S
C1586 H1577 0.929 . S
C1586 C1578 1.378 . S
C1586 C1581 1.350 . S
C1587 H1574 0.929 . S
C1587 C1579 1.433 . S
C1587 N1589 1.384 . S
N1588 C1584 1.427 . S
N1588 C1585 1.384 . S
N1589 C1581 1.427 . S
N1589 C1587 1.384 . S
H1590 C1596 0.930 . S
H1591 C1600 0.930 . S
H1592 C1605 0.929 . S
H1593 C1603 0.929 . S
H1594 C1598 0.929 . S
H1595 C1604 0.929 . S
C1596 H1590 0.930 . S
C1596 C1597 1.367 . S
C1596 C1604 1.378 . S
C1597 C1596 1.367 . S
C1597 C1605 1.433 . S
C1598 H1594 0.929 . S
C1598 C1600 1.378 . S
C1598 C1602 1.350 . S
C1599 C1602 1.463 . S
C1599 C1604 1.350 . S
C1599 N1607 1.427 . S
C1600 H1591 0.930 . S
C1600 C1598 1.378 . S
C1600 C1601 1.367 . S
C1601 C1600 1.367 . S
C1601 C1603 1.433 . S
C1602 C1598 1.350 . S
C1602 C1599 1.463 . S
C1602 N1606 1.427 . S
C1603 H1593 0.929 . S
C1603 C1601 1.433 . S
C1603 N1606 1.384 . S
C1604 H1595 0.929 . S
C1604 C1596 1.378 . S
C1604 C1599 1.350 . S
C1605 H1592 0.929 . S
C1605 C1597 1.433 . S
C1605 N1607 1.384 . S
N1606 C1602 1.427 . S
N1606 C1603 1.384 . S
N1607 C1599 1.427 . S
N1607 C1605 1.384 . S
H1608 C1614 0.930 . S
H1609 C1618 0.930 . S
H1610 C1623 0.929 . S
H1611 C1621 0.929 . S
H1612 C1616 0.929 . S
H1613 C1622 0.929 . S
C1614 H1608 0.930 . S
C1614 C1615 1.367 . S
C1614 C1622 1.378 . S
C1615 C1614 1.367 . S
C1615 C1623 1.433 . S
C1616 H1612 0.929 . S
C1616 C1618 1.378 . S
C1616 C1620 1.350 . S
C1617 C1620 1.463 . S
C1617 C1622 1.350 . S
C1617 N1625 1.427 . S
C1618 H1609 0.930 . S
C1618 C1616 1.378 . S
C1618 C1619 1.367 . S
C1619 C1618 1.367 . S
C1619 C1621 1.433 . S
C1620 C1616 1.350 . S
C1620 C1617 1.463 . S
C1620 N1624 1.427 . S
C1621 H1611 0.929 . S
C1621 C1619 1.433 . S
C1621 N1624 1.384 . S
C1622 H1613 0.929 . S
C1622 C1614 1.378 . S
C1622 C1617 1.350 . S
C1623 H1610 0.929 . S
C1623 C1615 1.433 . S
C1623 N1625 1.384 . S
N1624 C1620 1.427 . S
N1624 C1621 1.384 . S
N1625 C1617 1.427 . S
N1625 C1623 1.384 . S
H1626 C1632 0.930 . S
H1627 C1636 0.930 . S
H1628 C1641 0.929 . S
H1629 C1639 0.929 . S
H1630 C1634 0.929 . S
H1631 C1640 0.929 . S
C1632 H1626 0.930 . S
C1632 C1633 1.367 . S
C1632 C1640 1.378 . S
C1633 C1632 1.367 . S
C1633 C1641 1.433 . S
C1634 H1630 0.929 . S
C1634 C1636 1.378 . S
C1634 C1638 1.350 . S
C1635 C1638 1.463 . S
C1635 C1640 1.350 . S
C1635 N1643 1.427 . S
C1636 H1627 0.930 . S
C1636 C1634 1.378 . S
C1636 C1637 1.367 . S
C1637 C1636 1.367 . S
C1637 C1639 1.433 . S
C1638 C1634 1.350 . S
C1638 C1635 1.463 . S
C1638 N1642 1.427 . S
C1639 H1629 0.929 . S
C1639 C1637 1.433 . S
C1639 N1642 1.384 . S
C1640 H1631 0.929 . S
C1640 C1632 1.378 . S
C1640 C1635 1.350 . S
C1641 H1628 0.929 . S
C1641 C1633 1.433 . S
C1641 N1643 1.384 . S
N1642 C1638 1.427 . S
N1642 C1639 1.384 . S
N1643 C1635 1.427 . S
N1643 C1641 1.384 . S
H1644 C1650 0.930 . S
H1645 C1654 0.930 . S
H1646 C1659 0.929 . S
H1647 C1657 0.929 . S
H1648 C1652 0.929 . S
H1649 C1658 0.929 . S
C1650 H1644 0.930 . S
C1650 C1651 1.367 . S
C1650 C1658 1.378 . S
C1651 C1650 1.367 . S
C1651 C1659 1.433 . S
C1652 H1648 0.929 . S
C1652 C1654 1.378 . S
C1652 C1656 1.350 . S
C1653 C1656 1.463 . S
C1653 C1658 1.350 . S
C1653 N1661 1.427 . S
C1654 H1645 0.930 . S
C1654 C1652 1.378 . S
C1654 C1655 1.367 . S
C1655 C1654 1.367 . S
C1655 C1657 1.433 . S
C1656 C1652 1.350 . S
C1656 C1653 1.463 . S
C1656 N1660 1.427 . S
C1657 H1647 0.929 . S
C1657 C1655 1.433 . S
C1657 N1660 1.384 . S
C1658 H1649 0.929 . S
C1658 C1650 1.378 . S
C1658 C1653 1.350 . S
C1659 H1646 0.929 . S
C1659 C1651 1.433 . S
C1659 N1661 1.384 . S
N1660 C1656 1.427 . S
N1660 C1657 1.384 . S
N1661 C1653 1.427 . S
N1661 C1659 1.384 . S
H1662 C1668 0.930 . S
H1663 C1672 0.930 . S
H1664 C1677 0.929 . S
H1665 C1675 0.929 . S
H1666 C1670 0.929 . S
H1667 C1676 0.929 . S
C1668 H1662 0.930 . S
C1668 C1669 1.367 . S
C1668 C1676 1.378 . S
C1669 C1668 1.367 . S
C1669 C1677 1.433 . S
C1670 H1666 0.929 . S
C1670 C1672 1.378 . S
C1670 C1674 1.350 . S
C1671 C1674 1.463 . S
C1671 C1676 1.350 . S
C1671 N1679 1.427 . S
C1672 H1663 0.930 . S
C1672 C1670 1.378 . S
C1672 C1673 1.367 . S
C1673 C1672 1.367 . S
C1673 C1675 1.433 . S
C1674 C1670 1.350 . S
C1674 C1671 1.463 . S
C1674 N1678 1.427 . S
C1675 H1665 0.929 . S
C1675 C1673 1.433 . S
C1675 N1678 1.384 . S
C1676 H1667 0.929 . S
C1676 C1668 1.378 . S
C1676 C1671 1.350 . S
C1677 H1664 0.929 . S
C1677 C1669 1.433 . S
C1677 N1679 1.384 . S
N1678 C1674 1.427 . S
N1678 C1675 1.384 . S
N1679 C1671 1.427 . S
N1679 C1677 1.384 . S
H1680 C1686 0.930 . S
H1681 C1690 0.930 . S
H1682 C1695 0.929 . S
H1683 C1693 0.929 . S
H1684 C1688 0.929 . S
H1685 C1694 0.929 . S
C1686 H1680 0.930 . S
C1686 C1687 1.367 . S
C1686 C1694 1.378 . S
C1687 C1686 1.367 . S
C1687 C1695 1.433 . S
C1688 H1684 0.929 . S
C1688 C1690 1.378 . S
C1688 C1692 1.350 . S
C1689 C1692 1.463 . S
C1689 C1694 1.350 . S
C1689 N1697 1.427 . S
C1690 H1681 0.930 . S
C1690 C1688 1.378 . S
C1690 C1691 1.367 . S
C1691 C1690 1.367 . S
C1691 C1693 1.433 . S
C1692 C1688 1.350 . S
C1692 C1689 1.463 . S
C1692 N1696 1.427 . S
C1693 H1683 0.929 . S
C1693 C1691 1.433 . S
C1693 N1696 1.384 . S
C1694 H1685 0.929 . S
C1694 C1686 1.378 . S
C1694 C1689 1.350 . S
C1695 H1682 0.929 . S
C1695 C1687 1.433 . S
C1695 N1697 1.384 . S
N1696 C1692 1.427 . S
N1696 C1693 1.384 . S
N1697 C1689 1.427 . S
N1697 C1695 1.384 . S
H1698 C1704 0.930 . S
H1699 C1708 0.930 . S
H1700 C1713 0.929 . S
H1701 C1711 0.929 . S
H1702 C1706 0.929 . S
H1703 C1712 0.929 . S
C1704 H1698 0.930 . S
C1704 C1705 1.367 . S
C1704 C1712 1.378 . S
C1705 C1704 1.367 . S
C1705 C1713 1.433 . S
C1706 H1702 0.929 . S
C1706 C1708 1.378 . S
C1706 C1710 1.350 . S
C1707 C1710 1.463 . S
C1707 C1712 1.350 . S
C1707 N1715 1.427 . S
C1708 H1699 0.930 . S
C1708 C1706 1.378 . S
C1708 C1709 1.367 . S
C1709 C1708 1.367 . S
C1709 C1711 1.433 . S
C1710 C1706 1.350 . S
C1710 C1707 1.463 . S
C1710 N1714 1.427 . S
C1711 H1701 0.929 . S
C1711 C1709 1.433 . S
C1711 N1714 1.384 . S
C1712 H1703 0.929 . S
C1712 C1704 1.378 . S
C1712 C1707 1.350 . S
C1713 H1700 0.929 . S
C1713 C1705 1.433 . S
C1713 N1715 1.384 . S
N1714 C1710 1.427 . S
N1714 C1711 1.384 . S
N1715 C1707 1.427 . S
N1715 C1713 1.384 . S
H1716 C1722 0.930 . S
H1717 C1726 0.930 . S
H1718 C1731 0.929 . S
H1719 C1729 0.929 . S
H1720 C1724 0.929 . S
H1721 C1730 0.929 . S
C1722 H1716 0.930 . S
C1722 C1723 1.367 . S
C1722 C1730 1.378 . S
C1723 C1722 1.367 . S
C1723 C1731 1.433 . S
C1724 H1720 0.929 . S
C1724 C1726 1.378 . S
C1724 C1728 1.350 . S
C1725 C1728 1.463 . S
C1725 C1730 1.350 . S
C1725 N1733 1.427 . S
C1726 H1717 0.930 . S
C1726 C1724 1.378 . S
C1726 C1727 1.367 . S
C1727 C1726 1.367 . S
C1727 C1729 1.433 . S
C1728 C1724 1.350 . S
C1728 C1725 1.463 . S
C1728 N1732 1.427 . S
C1729 H1719 0.929 . S
C1729 C1727 1.433 . S
C1729 N1732 1.384 . S
C1730 H1721 0.929 . S
C1730 C1722 1.378 . S
C1730 C1725 1.350 . S
C1731 H1718 0.929 . S
C1731 C1723 1.433 . S
C1731 N1733 1.384 . S
N1732 C1728 1.427 . S
N1732 C1729 1.384 . S
N1733 C1725 1.427 . S
N1733 C1731 1.384 . S
H1734 C1740 0.930 . S
H1735 C1744 0.930 . S
H1736 C1749 0.929 . S
H1737 C1747 0.929 . S
H1738 C1742 0.929 . S
H1739 C1748 0.929 . S
C1740 H1734 0.930 . S
C1740 C1741 1.367 . S
C1740 C1748 1.378 . S
C1741 C1740 1.367 . S
C1741 C1749 1.433 . S
C1742 H1738 0.929 . S
C1742 C1744 1.378 . S
C1742 C1746 1.350 . S
C1743 C1746 1.463 . S
C1743 C1748 1.350 . S
C1743 N1751 1.427 . S
C1744 H1735 0.930 . S
C1744 C1742 1.378 . S
C1744 C1745 1.367 . S
C1745 C1744 1.367 . S
C1745 C1747 1.433 . S
C1746 C1742 1.350 . S
C1746 C1743 1.463 . S
C1746 N1750 1.427 . S
C1747 H1737 0.929 . S
C1747 C1745 1.433 . S
C1747 N1750 1.384 . S
C1748 H1739 0.929 . S
C1748 C1740 1.378 . S
C1748 C1743 1.350 . S
C1749 H1736 0.929 . S
C1749 C1741 1.433 . S
C1749 N1751 1.384 . S
N1750 C1746 1.427 . S
N1750 C1747 1.384 . S
N1751 C1743 1.427 . S
N1751 C1749 1.384 . S
H1752 C1758 0.930 . S
H1753 C1762 0.930 . S
H1754 C1767 0.929 . S
H1755 C1765 0.929 . S
H1756 C1760 0.929 . S
H1757 C1766 0.929 . S
C1758 H1752 0.930 . S
C1758 C1759 1.367 . S
C1758 C1766 1.378 . S
C1759 C1758 1.367 . S
C1759 C1767 1.433 . S
C1760 H1756 0.929 . S
C1760 C1762 1.378 . S
C1760 C1764 1.350 . S
C1761 C1764 1.463 . S
C1761 C1766 1.350 . S
C1761 N1769 1.427 . S
C1762 H1753 0.930 . S
C1762 C1760 1.378 . S
C1762 C1763 1.367 . S
C1763 C1762 1.367 . S
C1763 C1765 1.433 . S
C1764 C1760 1.350 . S
C1764 C1761 1.463 . S
C1764 N1768 1.427 . S
C1765 H1755 0.929 . S
C1765 C1763 1.433 . S
C1765 N1768 1.384 . S
C1766 H1757 0.929 . S
C1766 C1758 1.378 . S
C1766 C1761 1.350 . S
C1767 H1754 0.929 . S
C1767 C1759 1.433 . S
C1767 N1769 1.384 . S
N1768 C1764 1.427 . S
N1768 C1765 1.384 . S
N1769 C1761 1.427 . S
N1769 C1767 1.384 . S
H1770 C1776 0.930 . S
H1771 C1780 0.930 . S
H1772 C1785 0.929 . S
H1773 C1783 0.929 . S
H1774 C1778 0.929 . S
H1775 C1784 0.929 . S
C1776 H1770 0.930 . S
C1776 C1777 1.367 . S
C1776 C1784 1.378 . S
C1777 C1776 1.367 . S
C1777 C1785 1.433 . S
C1778 H1774 0.929 . S
C1778 C1780 1.378 . S
C1778 C1782 1.350 . S
C1779 C1782 1.463 . S
C1779 C1784 1.350 . S
C1779 N1787 1.427 . S
C1780 H1771 0.930 . S
C1780 C1778 1.378 . S
C1780 C1781 1.367 . S
C1781 C1780 1.367 . S
C1781 C1783 1.433 . S
C1782 C1778 1.350 . S
C1782 C1779 1.463 . S
C1782 N1786 1.427 . S
C1783 H1773 0.929 . S
C1783 C1781 1.433 . S
C1783 N1786 1.384 . S
C1784 H1775 0.929 . S
C1784 C1776 1.378 . S
C1784 C1779 1.350 . S
C1785 H1772 0.929 . S
C1785 C1777 1.433 . S
C1785 N1787 1.384 . S
N1786 C1782 1.427 . S
N1786 C1783 1.384 . S
N1787 C1779 1.427 . S
N1787 C1785 1.384 . S
H1788 C1794 0.930 . S
H1789 C1798 0.930 . S
H1790 C1803 0.929 . S
H1791 C1801 0.929 . S
H1792 C1796 0.929 . S
H1793 C1802 0.929 . S
C1794 H1788 0.930 . S
C1794 C1795 1.367 . S
C1794 C1802 1.378 . S
C1795 C1794 1.367 . S
C1795 C1803 1.433 . S
C1796 H1792 0.929 . S
C1796 C1798 1.378 . S
C1796 C1800 1.350 . S
C1797 C1800 1.463 . S
C1797 C1802 1.350 . S
C1797 N1805 1.427 . S
C1798 H1789 0.930 . S
C1798 C1796 1.378 . S
C1798 C1799 1.367 . S
C1799 C1798 1.367 . S
C1799 C1801 1.433 . S
C1800 C1796 1.350 . S
C1800 C1797 1.463 . S
C1800 N1804 1.427 . S
C1801 H1791 0.929 . S
C1801 C1799 1.433 . S
C1801 N1804 1.384 . S
C1802 H1793 0.929 . S
C1802 C1794 1.378 . S
C1802 C1797 1.350 . S
C1803 H1790 0.929 . S
C1803 C1795 1.433 . S
C1803 N1805 1.384 . S
N1804 C1800 1.427 . S
N1804 C1801 1.384 . S
N1805 C1797 1.427 . S
N1805 C1803 1.384 . S
H1806 C1812 0.930 . S
H1807 C1816 0.930 . S
H1808 C1821 0.929 . S
H1809 C1819 0.929 . S
H1810 C1814 0.929 . S
H1811 C1820 0.929 . S
C1812 H1806 0.930 . S
C1812 C1813 1.367 . S
C1812 C1820 1.378 . S
C1813 C1812 1.367 . S
C1813 C1821 1.433 . S
C1814 H1810 0.929 . S
C1814 C1816 1.378 . S
C1814 C1818 1.350 . S
C1815 C1818 1.463 . S
C1815 C1820 1.350 . S
C1815 N1823 1.427 . S
C1816 H1807 0.930 . S
C1816 C1814 1.378 . S
C1816 C1817 1.367 . S
C1817 C1816 1.367 . S
C1817 C1819 1.433 . S
C1818 C1814 1.350 . S
C1818 C1815 1.463 . S
C1818 N1822 1.427 . S
C1819 H1809 0.929 . S
C1819 C1817 1.433 . S
C1819 N1822 1.384 . S
C1820 H1811 0.929 . S
C1820 C1812 1.378 . S
C1820 C1815 1.350 . S
C1821 H1808 0.929 . S
C1821 C1813 1.433 . S
C1821 N1823 1.384 . S
N1822 C1818 1.427 . S
N1822 C1819 1.384 . S
N1823 C1815 1.427 . S
N1823 C1821 1.384 . S
H1824 C1830 0.930 . S
H1825 C1834 0.930 . S
H1826 C1839 0.929 . S
H1827 C1837 0.929 . S
H1828 C1832 0.929 . S
H1829 C1838 0.929 . S
C1830 H1824 0.930 . S
C1830 C1831 1.367 . S
C1830 C1838 1.378 . S
C1831 C1830 1.367 . S
C1831 C1839 1.433 . S
C1832 H1828 0.929 . S
C1832 C1834 1.378 . S
C1832 C1836 1.350 . S
C1833 C1836 1.463 . S
C1833 C1838 1.350 . S
C1833 N1841 1.427 . S
C1834 H1825 0.930 . S
C1834 C1832 1.378 . S
C1834 C1835 1.367 . S
C1835 C1834 1.367 . S
C1835 C1837 1.433 . S
C1836 C1832 1.350 . S
C1836 C1833 1.463 . S
C1836 N1840 1.427 . S
C1837 H1827 0.929 . S
C1837 C1835 1.433 . S
C1837 N1840 1.384 . S
C1838 H1829 0.929 . S
C1838 C1830 1.378 . S
C1838 C1833 1.350 . S
C1839 H1826 0.929 . S
C1839 C1831 1.433 . S
C1839 N1841 1.384 . S
N1840 C1836 1.427 . S
N1840 C1837 1.384 . S
N1841 C1833 1.427 . S
N1841 C1839 1.384 . S
H1842 C1848 0.930 . S
H1843 C1852 0.930 . S
H1844 C1857 0.929 . S
H1845 C1855 0.929 . S
H1846 C1850 0.929 . S
H1847 C1856 0.929 . S
C1848 H1842 0.930 . S
C1848 C1849 1.367 . S
C1848 C1856 1.378 . S
C1849 C1848 1.367 . S
C1849 C1857 1.433 . S
C1850 H1846 0.929 . S
C1850 C1852 1.378 . S
C1850 C1854 1.350 . S
C1851 C1854 1.463 . S
C1851 C1856 1.350 . S
C1851 N1859 1.427 . S
C1852 H1843 0.930 . S
C1852 C1850 1.378 . S
C1852 C1853 1.367 . S
C1853 C1852 1.367 . S
C1853 C1855 1.433 . S
C1854 C1850 1.350 . S
C1854 C1851 1.463 . S
C1854 N1858 1.427 . S
C1855 H1845 0.929 . S
C1855 C1853 1.433 . S
C1855 N1858 1.384 . S
C1856 H1847 0.929 . S
C1856 C1848 1.378 . S
C1856 C1851 1.350 . S
C1857 H1844 0.929 . S
C1857 C1849 1.433 . S
C1857 N1859 1.384 . S
N1858 C1854 1.427 . S
N1858 C1855 1.384 . S
N1859 C1851 1.427 . S
N1859 C1857 1.384 . S
H1860 C1866 0.930 . S
H1861 C1870 0.930 . S
H1862 C1875 0.929 . S
H1863 C1873 0.929 . S
H1864 C1868 0.929 . S
H1865 C1874 0.929 . S
C1866 H1860 0.930 . S
C1866 C1867 1.367 . S
C1866 C1874 1.378 . S
C1867 C1866 1.367 . S
C1867 C1875 1.433 . S
C1868 H1864 0.929 . S
C1868 C1870 1.378 . S
C1868 C1872 1.350 . S
C1869 C1872 1.463 . S
C1869 C1874 1.350 . S
C1869 N1877 1.427 . S
C1870 H1861 0.930 . S
C1870 C1868 1.378 . S
C1870 C1871 1.367 . S
C1871 C1870 1.367 . S
C1871 C1873 1.433 . S
C1872 C1868 1.350 . S
C1872 C1869 1.463 . S
C1872 N1876 1.427 . S
C1873 H1863 0.929 . S
C1873 C1871 1.433 . S
C1873 N1876 1.384 . S
C1874 H1865 0.929 . S
C1874 C1866 1.378 . S
C1874 C1869 1.350 . S
C1875 H1862 0.929 . S
C1875 C1867 1.433 . S
C1875 N1877 1.384 . S
N1876 C1872 1.427 . S
N1876 C1873 1.384 . S
N1877 C1869 1.427 . S
N1877 C1875 1.384 . S
H1878 C1884 0.930 . S
H1879 C1888 0.930 . S
H1880 C1893 0.929 . S
H1881 C1891 0.929 . S
H1882 C1886 0.929 . S
H1883 C1892 0.929 . S
C1884 H1878 0.930 . S
C1884 C1885 1.367 . S
C1884 C1892 1.378 . S
C1885 C1884 1.367 . S
C1885 C1893 1.433 . S
C1886 H1882 0.929 . S
C1886 C1888 1.378 . S
C1886 C1890 1.350 . S
C1887 C1890 1.463 . S
C1887 C1892 1.350 . S
C1887 N1895 1.427 . S
C1888 H1879 0.930 . S
C1888 C1886 1.378 . S
C1888 C1889 1.367 . S
C1889 C1888 1.367 . S
C1889 C1891 1.433 . S
C1890 C1886 1.350 . S
C1890 C1887 1.463 . S
C1890 N1894 1.427 . S
C1891 H1881 0.929 . S
C1891 C1889 1.433 . S
C1891 N1894 1.384 . S
C1892 H1883 0.929 . S
C1892 C1884 1.378 . S
C1892 C1887 1.350 . S
C1893 H1880 0.929 . S
C1893 C1885 1.433 . S
C1893 N1895 1.384 . S
N1894 C1890 1.427 . S
N1894 C1891 1.384 . S
N1895 C1887 1.427 . S
N1895 C1893 1.384 . S
H1896 C1902 0.930 . S
H1897 C1906 0.930 . S
H1898 C1911 0.929 . S
H1899 C1909 0.929 . S
H1900 C1904 0.929 . S
H1901 C1910 0.929 . S
C1902 H1896 0.930 . S
C1902 C1903 1.367 . S
C1902 C1910 1.378 . S
C1903 C1902 1.367 . S
C1903 C1911 1.433 . S
C1904 H1900 0.929 . S
C1904 C1906 1.378 . S
C1904 C1908 1.350 . S
C1905 C1908 1.463 . S
C1905 C1910 1.350 . S
C1905 N1913 1.427 . S
C1906 H1897 0.930 . S
C1906 C1904 1.378 . S
C1906 C1907 1.367 . S
C1907 C1906 1.367 . S
C1907 C1909 1.433 . S
C1908 C1904 1.350 . S
C1908 C1905 1.463 . S
C1908 N1912 1.427 . S
C1909 H1899 0.929 . S
C1909 C1907 1.433 . S
C1909 N1912 1.384 . S
C1910 H1901 0.929 . S
C1910 C1902 1.378 . S
C1910 C1905 1.350 . S
C1911 H1898 0.929 . S
C1911 C1903 1.433 . S
C1911 N1913 1.384 . S
N1912 C1908 1.427 . S
N1912 C1909 1.384 . S
N1913 C1905 1.427 . S
N1913 C1911 1.384 . S
H1914 C1920 0.930 . S
H1915 C1924 0.930 . S
H1916 C1929 0.929 . S
H1917 C1927 0.929 . S
H1918 C1922 0.929 . S
H1919 C1928 0.929 . S
C1920 H1914 0.930 . S
C1920 C1921 1.367 . S
C1920 C1928 1.378 . S
C1921 C1920 1.367 . S
C1921 C1929 1.433 . S
C1922 H1918 0.929 . S
C1922 C1924 1.378 . S
C1922 C1926 1.350 . S
C1923 C1926 1.463 . S
C1923 C1928 1.350 . S
C1923 N1931 1.427 . S
C1924 H1915 0.930 . S
C1924 C1922 1.378 . S
C1924 C1925 1.367 . S
C1925 C1924 1.367 . S
C1925 C1927 1.433 . S
C1926 C1922 1.350 . S
C1926 C1923 1.463 . S
C1926 N1930 1.427 . S
C1927 H1917 0.929 . S
C1927 C1925 1.433 . S
C1927 N1930 1.384 . S
C1928 H1919 0.929 . S
C1928 C1920 1.378 . S
C1928 C1923 1.350 . S
C1929 H1916 0.929 . S
C1929 C1921 1.433 . S
C1929 N1931 1.384 . S
N1930 C1926 1.427 . S
N1930 C1927 1.384 . S
N1931 C1923 1.427 . S
N1931 C1929 1.384 . S
H1932 C1938 0.930 . S
H1933 C1942 0.930 . S
H1934 C1947 0.929 . S
H1935 C1945 0.929 . S
H1936 C1940 0.929 . S
H1937 C1946 0.929 . S
C1938 H1932 0.930 . S
C1938 C1939 1.367 . S
C1938 C1946 1.378 . S
C1939 C1938 1.367 . S
C1939 C1947 1.433 . S
C1940 H1936 0.929 . S
C1940 C1942 1.378 . S
C1940 C1944 1.350 . S
C1941 C1944 1.463 . S
C1941 C1946 1.350 . S
C1941 N1949 1.427 . S
C1942 H1933 0.930 . S
C1942 C1940 1.378 . S
C1942 C1943 1.367 . S
C1943 C1942 1.367 . S
C1943 C1945 1.433 . S
C1944 C1940 1.350 . S
C1944 C1941 1.463 . S
C1944 N1948 1.427 . S
C1945 H1935 0.929 . S
C1945 C1943 1.433 . S
C1945 N1948 1.384 . S
C1946 H1937 0.929 . S
C1946 C1938 1.378 . S
C1946 C1941 1.350 . S
C1947 H1934 0.929 . S
C1947 C1939 1.433 . S
C1947 N1949 1.384 . S
N1948 C1944 1.427 . S
N1948 C1945 1.384 . S
N1949 C1941 1.427 . S
N1949 C1947 1.384 . S
H1950 C1956 0.930 . S
H1951 C1960 0.930 . S
H1952 C1965 0.929 . S
H1953 C1963 0.929 . S
H1954 C1958 0.929 . S
H1955 C1964 0.929 . S
C1956 H1950 0.930 . S
C1956 C1957 1.367 . S
C1956 C1964 1.378 . S
C1957 C1956 1.367 . S
C1957 C1965 1.433 . S
C1958 H1954 0.929 . S
C1958 C1960 1.378 . S
C1958 C1962 1.350 . S
C1959 C1962 1.463 . S
C1959 C1964 1.350 . S
C1959 N1967 1.427 . S
C1960 H1951 0.930 . S
C1960 C1958 1.378 . S
C1960 C1961 1.367 . S
C1961 C1960 1.367 . S
C1961 C1963 1.433 . S
C1962 C1958 1.350 . S
C1962 C1959 1.463 . S
C1962 N1966 1.427 . S
C1963 H1953 0.929 . S
C1963 C1961 1.433 . S
C1963 N1966 1.384 . S
C1964 H1955 0.929 . S
C1964 C1956 1.378 . S
C1964 C1959 1.350 . S
C1965 H1952 0.929 . S
C1965 C1957 1.433 . S
C1965 N1967 1.384 . S
N1966 C1962 1.427 . S
N1966 C1963 1.384 . S
N1967 C1959 1.427 . S
N1967 C1965 1.384 . S
H1968 C1974 0.930 . S
H1969 C1978 0.930 . S
H1970 C1983 0.929 . S
H1971 C1981 0.929 . S
H1972 C1976 0.929 . S
H1973 C1982 0.929 . S
C1974 H1968 0.930 . S
C1974 C1975 1.367 . S
C1974 C1982 1.378 . S
C1975 C1974 1.367 . S
C1975 C1983 1.433 . S
C1976 H1972 0.929 . S
C1976 C1978 1.378 . S
C1976 C1980 1.350 . S
C1977 C1980 1.463 . S
C1977 C1982 1.350 . S
C1977 N1985 1.427 . S
C1978 H1969 0.930 . S
C1978 C1976 1.378 . S
C1978 C1979 1.367 . S
C1979 C1978 1.367 . S
C1979 C1981 1.433 . S
C1980 C1976 1.350 . S
C1980 C1977 1.463 . S
C1980 N1984 1.427 . S
C1981 H1971 0.929 . S
C1981 C1979 1.433 . S
C1981 N1984 1.384 . S
C1982 H1973 0.929 . S
C1982 C1974 1.378 . S
C1982 C1977 1.350 . S
C1983 H1970 0.929 . S
C1983 C1975 1.433 . S
C1983 N1985 1.384 . S
N1984 C1980 1.427 . S
N1984 C1981 1.384 . S
N1985 C1977 1.427 . S
N1985 C1983 1.384 . S
H1986 C1992 0.930 . S
H1987 C1996 0.930 . S
H1988 C2001 0.929 . S
H1989 C1999 0.929 . S
H1990 C1994 0.929 . S
H1991 C2000 0.929 . S
C1992 H1986 0.930 . S
C1992 C1993 1.367 . S
C1992 C2000 1.378 . S
C1993 C1992 1.367 . S
C1993 C2001 1.433 . S
C1994 H1990 0.929 . S
C1994 C1996 1.378 . S
C1994 C1998 1.350 . S
C1995 C1998 1.463 . S
C1995 C2000 1.350 . S
C1995 N2003 1.427 . S
C1996 H1987 0.930 . S
C1996 C1994 1.378 . S
C1996 C1997 1.367 . S
C1997 C1996 1.367 . S
C1997 C1999 1.433 . S
C1998 C1994 1.350 . S
C1998 C1995 1.463 . S
C1998 N2002 1.427 . S
C1999 H1989 0.929 . S
C1999 C1997 1.433 . S
C1999 N2002 1.384 . S
C2000 H1991 0.929 . S
C2000 C1992 1.378 . S
C2000 C1995 1.350 . S
C2001 H1988 0.929 . S
C2001 C1993 1.433 . S
C2001 N2003 1.384 . S
N2002 C1998 1.427 . S
N2002 C1999 1.384 . S
N2003 C1995 1.427 . S
N2003 C2001 1.384 . S
H2004 C2010 0.930 . S
H2005 C2014 0.930 . S
H2006 C2019 0.929 . S
H2007 C2017 0.929 . S
H2008 C2012 0.929 . S
H2009 C2018 0.929 . S
C2010 H2004 0.930 . S
C2010 C2011 1.367 . S
C2010 C2018 1.378 . S
C2011 C2010 1.367 . S
C2011 C2019 1.433 . S
C2012 H2008 0.929 . S
C2012 C2014 1.378 . S
C2012 C2016 1.350 . S
C2013 C2016 1.463 . S
C2013 C2018 1.350 . S
C2013 N2021 1.427 . S
C2014 H2005 0.930 . S
C2014 C2012 1.378 . S
C2014 C2015 1.367 . S
C2015 C2014 1.367 . S
C2015 C2017 1.433 . S
C2016 C2012 1.350 . S
C2016 C2013 1.463 . S
C2016 N2020 1.427 . S
C2017 H2007 0.929 . S
C2017 C2015 1.433 . S
C2017 N2020 1.384 . S
C2018 H2009 0.929 . S
C2018 C2010 1.378 . S
C2018 C2013 1.350 . S
C2019 H2006 0.929 . S
C2019 C2011 1.433 . S
C2019 N2021 1.384 . S
N2020 C2016 1.427 . S
N2020 C2017 1.384 . S
N2021 C2013 1.427 . S
N2021 C2019 1.384 . S
H2022 C2028 0.930 . S
H2023 C2032 0.930 . S
H2024 C2037 0.929 . S
H2025 C2035 0.929 . S
H2026 C2030 0.929 . S
H2027 C2036 0.929 . S
C2028 H2022 0.930 . S
C2028 C2029 1.367 . S
C2028 C2036 1.378 . S
C2029 C2028 1.367 . S
C2029 C2037 1.433 . S
C2030 H2026 0.929 . S
C2030 C2032 1.378 . S
C2030 C2034 1.350 . S
C2031 C2034 1.463 . S
C2031 C2036 1.350 . S
C2031 N2039 1.427 . S
C2032 H2023 0.930 . S
C2032 C2030 1.378 . S
C2032 C2033 1.367 . S
C2033 C2032 1.367 . S
C2033 C2035 1.433 . S
C2034 C2030 1.350 . S
C2034 C2031 1.463 . S
C2034 N2038 1.427 . S
C2035 H2025 0.929 . S
C2035 C2033 1.433 . S
C2035 N2038 1.384 . S
C2036 H2027 0.929 . S
C2036 C2028 1.378 . S
C2036 C2031 1.350 . S
C2037 H2024 0.929 . S
C2037 C2029 1.433 . S
C2037 N2039 1.384 . S
N2038 C2034 1.427 . S
N2038 C2035 1.384 . S
N2039 C2031 1.427 . S
N2039 C2037 1.384 . S
H2040 C2046 0.930 . S
H2041 C2050 0.930 . S
H2042 C2055 0.929 . S
H2043 C2053 0.929 . S
H2044 C2048 0.929 . S
H2045 C2054 0.929 . S
C2046 H2040 0.930 . S
C2046 C2047 1.367 . S
C2046 C2054 1.378 . S
C2047 C2046 1.367 . S
C2047 C2055 1.433 . S
C2048 H2044 0.929 . S
C2048 C2050 1.378 . S
C2048 C2052 1.350 . S
C2049 C2052 1.463 . S
C2049 C2054 1.350 . S
C2049 N2057 1.427 . S
C2050 H2041 0.930 . S
C2050 C2048 1.378 . S
C2050 C2051 1.367 . S
C2051 C2050 1.367 . S
C2051 C2053 1.433 . S
C2052 C2048 1.350 . S
C2052 C2049 1.463 . S
C2052 N2056 1.427 . S
C2053 H2043 0.929 . S
C2053 C2051 1.433 . S
C2053 N2056 1.384 . S
C2054 H2045 0.929 . S
C2054 C2046 1.378 . S
C2054 C2049 1.350 . S
C2055 H2042 0.929 . S
C2055 C2047 1.433 . S
C2055 N2057 1.384 . S
N2056 C2052 1.427 . S
N2056 C2053 1.384 . S
N2057 C2049 1.427 . S
N2057 C2055 1.384 . S
H2058 C2064 0.930 . S
H2059 C2068 0.930 . S
H2060 C2073 0.929 . S
H2061 C2071 0.929 . S
H2062 C2066 0.929 . S
H2063 C2072 0.929 . S
C2064 H2058 0.930 . S
C2064 C2065 1.367 . S
C2064 C2072 1.378 . S
C2065 C2064 1.367 . S
C2065 C2073 1.433 . S
C2066 H2062 0.929 . S
C2066 C2068 1.378 . S
C2066 C2070 1.350 . S
C2067 C2070 1.463 . S
C2067 C2072 1.350 . S
C2067 N2075 1.427 . S
C2068 H2059 0.930 . S
C2068 C2066 1.378 . S
C2068 C2069 1.367 . S
C2069 C2068 1.367 . S
C2069 C2071 1.433 . S
C2070 C2066 1.350 . S
C2070 C2067 1.463 . S
C2070 N2074 1.427 . S
C2071 H2061 0.929 . S
C2071 C2069 1.433 . S
C2071 N2074 1.384 . S
C2072 H2063 0.929 . S
C2072 C2064 1.378 . S
C2072 C2067 1.350 . S
C2073 H2060 0.929 . S
C2073 C2065 1.433 . S
C2073 N2075 1.384 . S
N2074 C2070 1.427 . S
N2074 C2071 1.384 . S
N2075 C2067 1.427 . S
N2075 C2073 1.384 . S
H2076 C2082 0.930 . S
H2077 C2086 0.930 . S
H2078 C2091 0.929 . S
H2079 C2089 0.929 . S
H2080 C2084 0.929 . S
H2081 C2090 0.929 . S
C2082 H2076 0.930 . S
C2082 C2083 1.367 . S
C2082 C2090 1.378 . S
C2083 C2082 1.367 . S
C2083 C2091 1.433 . S
C2084 H2080 0.929 . S
C2084 C2086 1.378 . S
C2084 C2088 1.350 . S
C2085 C2088 1.463 . S
C2085 C2090 1.350 . S
C2085 N2093 1.427 . S
C2086 H2077 0.930 . S
C2086 C2084 1.378 . S
C2086 C2087 1.367 . S
C2087 C2086 1.367 . S
C2087 C2089 1.433 . S
C2088 C2084 1.350 . S
C2088 C2085 1.463 . S
C2088 N2092 1.427 . S
C2089 H2079 0.929 . S
C2089 C2087 1.433 . S
C2089 N2092 1.384 . S
C2090 H2081 0.929 . S
C2090 C2082 1.378 . S
C2090 C2085 1.350 . S
C2091 H2078 0.929 . S
C2091 C2083 1.433 . S
C2091 N2093 1.384 . S
N2092 C2088 1.427 . S
N2092 C2089 1.384 . S
N2093 C2085 1.427 . S
N2093 C2091 1.384 . S
H2094 C2100 0.930 . S
H2095 C2104 0.930 . S
H2096 C2109 0.929 . S
H2097 C2107 0.929 . S
H2098 C2102 0.929 . S
H2099 C2108 0.929 . S
C2100 H2094 0.930 . S
C2100 C2101 1.367 . S
C2100 C2108 1.378 . S
C2101 C2100 1.367 . S
C2101 C2109 1.433 . S
C2102 H2098 0.929 . S
C2102 C2104 1.378 . S
C2102 C2106 1.350 . S
C2103 C2106 1.463 . S
C2103 C2108 1.350 . S
C2103 N2111 1.427 . S
C2104 H2095 0.930 . S
C2104 C2102 1.378 . S
C2104 C2105 1.367 . S
C2105 C2104 1.367 . S
C2105 C2107 1.433 . S
C2106 C2102 1.350 . S
C2106 C2103 1.463 . S
C2106 N2110 1.427 . S
C2107 H2097 0.929 . S
C2107 C2105 1.433 . S
C2107 N2110 1.384 . S
C2108 H2099 0.929 . S
C2108 C2100 1.378 . S
C2108 C2103 1.350 . S
C2109 H2096 0.929 . S
C2109 C2101 1.433 . S
C2109 N2111 1.384 . S
N2110 C2106 1.427 . S
N2110 C2107 1.384 . S
N2111 C2103 1.427 . S
N2111 C2109 1.384 . S
H2112 C2118 0.930 . S
H2113 C2122 0.930 . S
H2114 C2127 0.929 . S
H2115 C2125 0.929 . S
H2116 C2120 0.929 . S
H2117 C2126 0.929 . S
C2118 H2112 0.930 . S
C2118 C2119 1.367 . S
C2118 C2126 1.378 . S
C2119 C2118 1.367 . S
C2119 C2127 1.433 . S
C2120 H2116 0.929 . S
C2120 C2122 1.378 . S
C2120 C2124 1.350 . S
C2121 C2124 1.463 . S
C2121 C2126 1.350 . S
C2121 N2129 1.427 . S
C2122 H2113 0.930 . S
C2122 C2120 1.378 . S
C2122 C2123 1.367 . S
C2123 C2122 1.367 . S
C2123 C2125 1.433 . S
C2124 C2120 1.350 . S
C2124 C2121 1.463 . S
C2124 N2128 1.427 . S
C2125 H2115 0.929 . S
C2125 C2123 1.433 . S
C2125 N2128 1.384 . S
C2126 H2117 0.929 . S
C2126 C2118 1.378 . S
C2126 C2121 1.350 . S
C2127 H2114 0.929 . S
C2127 C2119 1.433 . S
C2127 N2129 1.384 . S
N2128 C2124 1.427 . S
N2128 C2125 1.384 . S
N2129 C2121 1.427 . S
N2129 C2127 1.384 . S
H2130 C2136 0.930 . S
H2131 C2140 0.930 . S
H2132 C2145 0.929 . S
H2133 C2143 0.929 . S
H2134 C2138 0.929 . S
H2135 C2144 0.929 . S
C2136 H2130 0.930 . S
C2136 C2137 1.367 . S
C2136 C2144 1.378 . S
C2137 C2136 1.367 . S
C2137 C2145 1.433 . S
C2138 H2134 0.929 . S
C2138 C2140 1.378 . S
C2138 C2142 1.350 . S
C2139 C2142 1.463 . S
C2139 C2144 1.350 . S
C2139 N2147 1.427 . S
C2140 H2131 0.930 . S
C2140 C2138 1.378 . S
C2140 C2141 1.367 . S
C2141 C2140 1.367 . S
C2141 C2143 1.433 . S
C2142 C2138 1.350 . S
C2142 C2139 1.463 . S
C2142 N2146 1.427 . S
C2143 H2133 0.929 . S
C2143 C2141 1.433 . S
C2143 N2146 1.384 . S
C2144 H2135 0.929 . S
C2144 C2136 1.378 . S
C2144 C2139 1.350 . S
C2145 H2132 0.929 . S
C2145 C2137 1.433 . S
C2145 N2147 1.384 . S
N2146 C2142 1.427 . S
N2146 C2143 1.384 . S
N2147 C2139 1.427 . S
N2147 C2145 1.384 . S
H2148 C2154 0.930 . S
H2149 C2158 0.930 . S
H2150 C2163 0.929 . S
H2151 C2161 0.929 . S
H2152 C2156 0.929 . S
H2153 C2162 0.929 . S
C2154 H2148 0.930 . S
C2154 C2155 1.367 . S
C2154 C2162 1.378 . S
C2155 C2154 1.367 . S
C2155 C2163 1.433 . S
C2156 H2152 0.929 . S
C2156 C2158 1.378 . S
C2156 C2160 1.350 . S
C2157 C2160 1.463 . S
C2157 C2162 1.350 . S
C2157 N2165 1.427 . S
C2158 H2149 0.930 . S
C2158 C2156 1.378 . S
C2158 C2159 1.367 . S
C2159 C2158 1.367 . S
C2159 C2161 1.433 . S
C2160 C2156 1.350 . S
C2160 C2157 1.463 . S
C2160 N2164 1.427 . S
C2161 H2151 0.929 . S
C2161 C2159 1.433 . S
C2161 N2164 1.384 . S
C2162 H2153 0.929 . S
C2162 C2154 1.378 . S
C2162 C2157 1.350 . S
C2163 H2150 0.929 . S
C2163 C2155 1.433 . S
C2163 N2165 1.384 . S
N2164 C2160 1.427 . S
N2164 C2161 1.384 . S
N2165 C2157 1.427 . S
N2165 C2163 1.384 . S
H2166 C2172 0.930 . S
H2167 C2176 0.930 . S
H2168 C2181 0.929 . S
H2169 C2179 0.929 . S
H2170 C2174 0.929 . S
H2171 C2180 0.929 . S
C2172 H2166 0.930 . S
C2172 C2173 1.367 . S
C2172 C2180 1.378 . S
C2173 C2172 1.367 . S
C2173 C2181 1.433 . S
C2174 H2170 0.929 . S
C2174 C2176 1.378 . S
C2174 C2178 1.350 . S
C2175 C2178 1.463 . S
C2175 C2180 1.350 . S
C2175 N2183 1.427 . S
C2176 H2167 0.930 . S
C2176 C2174 1.378 . S
C2176 C2177 1.367 . S
C2177 C2176 1.367 . S
C2177 C2179 1.433 . S
C2178 C2174 1.350 . S
C2178 C2175 1.463 . S
C2178 N2182 1.427 . S
C2179 H2169 0.929 . S
C2179 C2177 1.433 . S
C2179 N2182 1.384 . S
C2180 H2171 0.929 . S
C2180 C2172 1.378 . S
C2180 C2175 1.350 . S
C2181 H2168 0.929 . S
C2181 C2173 1.433 . S
C2181 N2183 1.384 . S
N2182 C2178 1.427 . S
N2182 C2179 1.384 . S
N2183 C2175 1.427 . S
N2183 C2181 1.384 . S
H2184 C2190 0.930 . S
H2185 C2194 0.930 . S
H2186 C2199 0.929 . S
H2187 C2197 0.929 . S
H2188 C2192 0.929 . S
H2189 C2198 0.929 . S
C2190 H2184 0.930 . S
C2190 C2191 1.367 . S
C2190 C2198 1.378 . S
C2191 C2190 1.367 . S
C2191 C2199 1.433 . S
C2192 H2188 0.929 . S
C2192 C2194 1.378 . S
C2192 C2196 1.350 . S
C2193 C2196 1.463 . S
C2193 C2198 1.350 . S
C2193 N2201 1.427 . S
C2194 H2185 0.930 . S
C2194 C2192 1.378 . S
C2194 C2195 1.367 . S
C2195 C2194 1.367 . S
C2195 C2197 1.433 . S
C2196 C2192 1.350 . S
C2196 C2193 1.463 . S
C2196 N2200 1.427 . S
C2197 H2187 0.929 . S
C2197 C2195 1.433 . S
C2197 N2200 1.384 . S
C2198 H2189 0.929 . S
C2198 C2190 1.378 . S
C2198 C2193 1.350 . S
C2199 H2186 0.929 . S
C2199 C2191 1.433 . S
C2199 N2201 1.384 . S
N2200 C2196 1.427 . S
N2200 C2197 1.384 . S
N2201 C2193 1.427 . S
N2201 C2199 1.384 . S
H2202 C2208 0.930 . S
H2203 C2212 0.930 . S
H2204 C2217 0.929 . S
H2205 C2215 0.929 . S
H2206 C2210 0.929 . S
H2207 C2216 0.929 . S
C2208 H2202 0.930 . S
C2208 C2209 1.367 . S
C2208 C2216 1.378 . S
C2209 C2208 1.367 . S
C2209 C2217 1.433 . S
C2210 H2206 0.929 . S
C2210 C2212 1.378 . S
C2210 C2214 1.350 . S
C2211 C2214 1.463 . S
C2211 C2216 1.350 . S
C2211 N2219 1.427 . S
C2212 H2203 0.930 . S
C2212 C2210 1.378 . S
C2212 C2213 1.367 . S
C2213 C2212 1.367 . S
C2213 C2215 1.433 . S
C2214 C2210 1.350 . S
C2214 C2211 1.463 . S
C2214 N2218 1.427 . S
C2215 H2205 0.929 . S
C2215 C2213 1.433 . S
C2215 N2218 1.384 . S
C2216 H2207 0.929 . S
C2216 C2208 1.378 . S
C2216 C2211 1.350 . S
C2217 H2204 0.929 . S
C2217 C2209 1.433 . S
C2217 N2219 1.384 . S
N2218 C2214 1.427 . S
N2218 C2215 1.384 . S
N2219 C2211 1.427 . S
N2219 C2217 1.384 . S
H2220 C2226 0.930 . S
H2221 C2230 0.930 . S
H2222 C2235 0.929 . S
H2223 C2233 0.929 . S
H2224 C2228 0.929 . S
H2225 C2234 0.929 . S
C2226 H2220 0.930 . S
C2226 C2227 1.367 . S
C2226 C2234 1.378 . S
C2227 C2226 1.367 . S
C2227 C2235 1.433 . S
C2228 H2224 0.929 . S
C2228 C2230 1.378 . S
C2228 C2232 1.350 . S
C2229 C2232 1.463 . S
C2229 C2234 1.350 . S
C2229 N2237 1.427 . S
C2230 H2221 0.930 . S
C2230 C2228 1.378 . S
C2230 C2231 1.367 . S
C2231 C2230 1.367 . S
C2231 C2233 1.433 . S
C2232 C2228 1.350 . S
C2232 C2229 1.463 . S
C2232 N2236 1.427 . S
C2233 H2223 0.929 . S
C2233 C2231 1.433 . S
C2233 N2236 1.384 . S
C2234 H2225 0.929 . S
C2234 C2226 1.378 . S
C2234 C2229 1.350 . S
C2235 H2222 0.929 . S
C2235 C2227 1.433 . S
C2235 N2237 1.384 . S
N2236 C2232 1.427 . S
N2236 C2233 1.384 . S
N2237 C2229 1.427 . S
N2237 C2235 1.384 . S
H2238 C2244 0.930 . S
H2239 C2248 0.930 . S
H2240 C2253 0.929 . S
H2241 C2251 0.929 . S
H2242 C2246 0.929 . S
H2243 C2252 0.929 . S
C2244 H2238 0.930 . S
C2244 C2245 1.367 . S
C2244 C2252 1.378 . S
C2245 C2244 1.367 . S
C2245 C2253 1.433 . S
C2246 H2242 0.929 . S
C2246 C2248 1.378 . S
C2246 C2250 1.350 . S
C2247 C2250 1.463 . S
C2247 C2252 1.350 . S
C2247 N2255 1.427 . S
C2248 H2239 0.930 . S
C2248 C2246 1.378 . S
C2248 C2249 1.367 . S
C2249 C2248 1.367 . S
C2249 C2251 1.433 . S
C2250 C2246 1.350 . S
C2250 C2247 1.463 . S
C2250 N2254 1.427 . S
C2251 H2241 0.929 . S
C2251 C2249 1.433 . S
C2251 N2254 1.384 . S
C2252 H2243 0.929 . S
C2252 C2244 1.378 . S
C2252 C2247 1.350 . S
C2253 H2240 0.929 . S
C2253 C2245 1.433 . S
C2253 N2255 1.384 . S
N2254 C2250 1.427 . S
N2254 C2251 1.384 . S
N2255 C2247 1.427 . S
N2255 C2253 1.384 . S
H2256 C2262 0.930 . S
H2257 C2266 0.930 . S
H2258 C2271 0.929 . S
H2259 C2269 0.929 . S
H2260 C2264 0.929 . S
H2261 C2270 0.929 . S
C2262 H2256 0.930 . S
C2262 C2263 1.367 . S
C2262 C2270 1.378 . S
C2263 C2262 1.367 . S
C2263 C2271 1.433 . S
C2264 H2260 0.929 . S
C2264 C2266 1.378 . S
C2264 C2268 1.350 . S
C2265 C2268 1.463 . S
C2265 C2270 1.350 . S
C2265 N2273 1.427 . S
C2266 H2257 0.930 . S
C2266 C2264 1.378 . S
C2266 C2267 1.367 . S
C2267 C2266 1.367 . S
C2267 C2269 1.433 . S
C2268 C2264 1.350 . S
C2268 C2265 1.463 . S
C2268 N2272 1.427 . S
C2269 H2259 0.929 . S
C2269 C2267 1.433 . S
C2269 N2272 1.384 . S
C2270 H2261 0.929 . S
C2270 C2262 1.378 . S
C2270 C2265 1.350 . S
C2271 H2258 0.929 . S
C2271 C2263 1.433 . S
C2271 N2273 1.384 . S
N2272 C2268 1.427 . S
N2272 C2269 1.384 . S
N2273 C2265 1.427 . S
N2273 C2271 1.384 . S
H2274 C2280 0.930 . S
H2275 C2284 0.930 . S
H2276 C2289 0.929 . S
H2277 C2287 0.929 . S
H2278 C2282 0.929 . S
H2279 C2288 0.929 . S
C2280 H2274 0.930 . S
C2280 C2281 1.367 . S
C2280 C2288 1.378 . S
C2281 C2280 1.367 . S
C2281 C2289 1.433 . S
C2282 H2278 0.929 . S
C2282 C2284 1.378 . S
C2282 C2286 1.350 . S
C2283 C2286 1.463 . S
C2283 C2288 1.350 . S
C2283 N2291 1.427 . S
C2284 H2275 0.930 . S
C2284 C2282 1.378 . S
C2284 C2285 1.367 . S
C2285 C2284 1.367 . S
C2285 C2287 1.433 . S
C2286 C2282 1.350 . S
C2286 C2283 1.463 . S
C2286 N2290 1.427 . S
C2287 H2277 0.929 . S
C2287 C2285 1.433 . S
C2287 N2290 1.384 . S
C2288 H2279 0.929 . S
C2288 C2280 1.378 . S
C2288 C2283 1.350 . S
C2289 H2276 0.929 . S
C2289 C2281 1.433 . S
C2289 N2291 1.384 . S
N2290 C2286 1.427 . S
N2290 C2287 1.384 . S
N2291 C2283 1.427 . S
N2291 C2289 1.384 . S
H2292 C2298 0.930 . S
H2293 C2302 0.930 . S
H2294 C2307 0.929 . S
H2295 C2305 0.929 . S
H2296 C2300 0.929 . S
H2297 C2306 0.929 . S
C2298 H2292 0.930 . S
C2298 C2299 1.367 . S
C2298 C2306 1.378 . S
C2299 C2298 1.367 . S
C2299 C2307 1.433 . S
C2300 H2296 0.929 . S
C2300 C2302 1.378 . S
C2300 C2304 1.350 . S
C2301 C2304 1.463 . S
C2301 C2306 1.350 . S
C2301 N2309 1.427 . S
C2302 H2293 0.930 . S
C2302 C2300 1.378 . S
C2302 C2303 1.367 . S
C2303 C2302 1.367 . S
C2303 C2305 1.433 . S
C2304 C2300 1.350 . S
C2304 C2301 1.463 . S
C2304 N2308 1.427 . S
C2305 H2295 0.929 . S
C2305 C2303 1.433 . S
C2305 N2308 1.384 . S
C2306 H2297 0.929 . S
C2306 C2298 1.378 . S
C2306 C2301 1.350 . S
C2307 H2294 0.929 . S
C2307 C2299 1.433 . S
C2307 N2309 1.384 . S
N2308 C2304 1.427 . S
N2308 C2305 1.384 . S
N2309 C2301 1.427 . S
N2309 C2307 1.384 . S
H2310 C2316 0.930 . S
H2311 C2320 0.930 . S
H2312 C2325 0.929 . S
H2313 C2323 0.929 . S
H2314 C2318 0.929 . S
H2315 C2324 0.929 . S
C2316 H2310 0.930 . S
C2316 C2317 1.367 . S
C2316 C2324 1.378 . S
C2317 C2316 1.367 . S
C2317 C2325 1.433 . S
C2318 H2314 0.929 . S
C2318 C2320 1.378 . S
C2318 C2322 1.350 . S
C2319 C2322 1.463 . S
C2319 C2324 1.350 . S
C2319 N2327 1.427 . S
C2320 H2311 0.930 . S
C2320 C2318 1.378 . S
C2320 C2321 1.367 . S
C2321 C2320 1.367 . S
C2321 C2323 1.433 . S
C2322 C2318 1.350 . S
C2322 C2319 1.463 . S
C2322 N2326 1.427 . S
C2323 H2313 0.929 . S
C2323 C2321 1.433 . S
C2323 N2326 1.384 . S
C2324 H2315 0.929 . S
C2324 C2316 1.378 . S
C2324 C2319 1.350 . S
C2325 H2312 0.929 . S
C2325 C2317 1.433 . S
C2325 N2327 1.384 . S
N2326 C2322 1.427 . S
N2326 C2323 1.384 . S
N2327 C2319 1.427 . S
N2327 C2325 1.384 . S
H2328 C2334 0.930 . S
H2329 C2338 0.930 . S
H2330 C2343 0.929 . S
H2331 C2341 0.929 . S
H2332 C2336 0.929 . S
H2333 C2342 0.929 . S
C2334 H2328 0.930 . S
C2334 C2335 1.367 . S
C2334 C2342 1.378 . S
C2335 C2334 1.367 . S
C2335 C2343 1.433 . S
C2336 H2332 0.929 . S
C2336 C2338 1.378 . S
C2336 C2340 1.350 . S
C2337 C2340 1.463 . S
C2337 C2342 1.350 . S
C2337 N2345 1.427 . S
C2338 H2329 0.930 . S
C2338 C2336 1.378 . S
C2338 C2339 1.367 . S
C2339 C2338 1.367 . S
C2339 C2341 1.433 . S
C2340 C2336 1.350 . S
C2340 C2337 1.463 . S
C2340 N2344 1.427 . S
C2341 H2331 0.929 . S
C2341 C2339 1.433 . S
C2341 N2344 1.384 . S
C2342 H2333 0.929 . S
C2342 C2334 1.378 . S
C2342 C2337 1.350 . S
C2343 H2330 0.929 . S
C2343 C2335 1.433 . S
C2343 N2345 1.384 . S
N2344 C2340 1.427 . S
N2344 C2341 1.384 . S
N2345 C2337 1.427 . S
N2345 C2343 1.384 . S
H2346 C2352 0.930 . S
H2347 C2356 0.930 . S
H2348 C2361 0.929 . S
H2349 C2359 0.929 . S
H2350 C2354 0.929 . S
H2351 C2360 0.929 . S
C2352 H2346 0.930 . S
C2352 C2353 1.367 . S
C2352 C2360 1.378 . S
C2353 C2352 1.367 . S
C2353 C2361 1.433 . S
C2354 H2350 0.929 . S
C2354 C2356 1.378 . S
C2354 C2358 1.350 . S
C2355 C2358 1.463 . S
C2355 C2360 1.350 . S
C2355 N2363 1.427 . S
C2356 H2347 0.930 . S
C2356 C2354 1.378 . S
C2356 C2357 1.367 . S
C2357 C2356 1.367 . S
C2357 C2359 1.433 . S
C2358 C2354 1.350 . S
C2358 C2355 1.463 . S
C2358 N2362 1.427 . S
C2359 H2349 0.929 . S
C2359 C2357 1.433 . S
C2359 N2362 1.384 . S
C2360 H2351 0.929 . S
C2360 C2352 1.378 . S
C2360 C2355 1.350 . S
C2361 H2348 0.929 . S
C2361 C2353 1.433 . S
C2361 N2363 1.384 . S
N2362 C2358 1.427 . S
N2362 C2359 1.384 . S
N2363 C2355 1.427 . S
N2363 C2361 1.384 . S
H2364 C2370 0.930 . S
H2365 C2374 0.930 . S
H2366 C2379 0.929 . S
H2367 C2377 0.929 . S
H2368 C2372 0.929 . S
H2369 C2378 0.929 . S
C2370 H2364 0.930 . S
C2370 C2371 1.367 . S
C2370 C2378 1.378 . S
C2371 C2370 1.367 . S
C2371 C2379 1.433 . S
C2372 H2368 0.929 . S
C2372 C2374 1.378 . S
C2372 C2376 1.350 . S
C2373 C2376 1.463 . S
C2373 C2378 1.350 . S
C2373 N2381 1.427 . S
C2374 H2365 0.930 . S
C2374 C2372 1.378 . S
C2374 C2375 1.367 . S
C2375 C2374 1.367 . S
C2375 C2377 1.433 . S
C2376 C2372 1.350 . S
C2376 C2373 1.463 . S
C2376 N2380 1.427 . S
C2377 H2367 0.929 . S
C2377 C2375 1.433 . S
C2377 N2380 1.384 . S
C2378 H2369 0.929 . S
C2378 C2370 1.378 . S
C2378 C2373 1.350 . S
C2379 H2366 0.929 . S
C2379 C2371 1.433 . S
C2379 N2381 1.384 . S
N2380 C2376 1.427 . S
N2380 C2377 1.384 . S
N2381 C2373 1.427 . S
N2381 C2379 1.384 . S
H2382 C2388 0.930 . S
H2383 C2392 0.930 . S
H2384 C2397 0.929 . S
H2385 C2395 0.929 . S
H2386 C2390 0.929 . S
H2387 C2396 0.929 . S
C2388 H2382 0.930 . S
C2388 C2389 1.367 . S
C2388 C2396 1.378 . S
C2389 C2388 1.367 . S
C2389 C2397 1.433 . S
C2390 H2386 0.929 . S
C2390 C2392 1.378 . S
C2390 C2394 1.350 . S
C2391 C2394 1.463 . S
C2391 C2396 1.350 . S
C2391 N2399 1.427 . S
C2392 H2383 0.930 . S
C2392 C2390 1.378 . S
C2392 C2393 1.367 . S
C2393 C2392 1.367 . S
C2393 C2395 1.433 . S
C2394 C2390 1.350 . S
C2394 C2391 1.463 . S
C2394 N2398 1.427 . S
C2395 H2385 0.929 . S
C2395 C2393 1.433 . S
C2395 N2398 1.384 . S
C2396 H2387 0.929 . S
C2396 C2388 1.378 . S
C2396 C2391 1.350 . S
C2397 H2384 0.929 . S
C2397 C2389 1.433 . S
C2397 N2399 1.384 . S
N2398 C2394 1.427 . S
N2398 C2395 1.384 . S
N2399 C2391 1.427 . S
N2399 C2397 1.384 . S
C679 C224 1.483 . S
C683 C0 1.450 . S
C697 C671 1.518 . S
C701 C26 1.485 . S
C715 C40 1.472 . S
C719 C642 1.499 . S
C733 C55 1.429 . S
C737 C656 1.461 . S
C751 C251 1.525 . S
C755 C68 1.492 . S
C769 C71 1.500 . S
C773 C253 1.533 . S
C787 C97 1.510 . S
C791 C266 1.539 . S
C805 C617 1.487 . S
C809 C99 1.459 . S
C823 C112 1.447 . S
C827 C13 1.480 . S
C841 C15 1.517 . S
C845 C138 1.486 . S
C859 C29 1.458 . S
C863 C141 1.422 . S
C877 C42 1.532 . S
C881 C167 1.503 . S
C895 C57 1.490 . S
C899 C169 1.458 . S
C913 C194 1.431 . S
C917 C82 1.461 . S
C931 C84 1.475 . S
C935 C197 1.435 . S
C949 C223 1.455 . S
C953 C110 1.483 . S
C967 C237 1.448 . S
C971 C125 1.483 . S
C985 C180 1.460 . S
C989 C238 1.422 . S
C1003 C264 1.427 . S
C1007 C183 1.459 . S
C1021 C279 1.462 . S
C1025 C208 1.503 . S
C1039 C547 1.498 . S
C1043 C292 1.457 . S
C1057 C307 1.448 . S
C1061 C476 1.479 . S
C1075 C502 1.514 . S
C1079 C309 1.481 . S
C1093 C463 1.536 . S
C1097 C323 1.515 . S
C1111 C572 1.513 . S
C1115 C349 1.477 . S
C1129 C363 1.446 . S
C1133 C334 1.466 . S
C1147 C376 1.474 . S
C1151 C294 1.504 . S
C1165 C391 1.487 . S
C1169 C320 1.516 . S
C1183 C392 1.438 . S
C1187 C575 1.472 . S
C1201 C589 1.451 . S
C1205 C407 1.416 . S
C1219 C433 1.419 . S
C1223 C602 1.460 . S
C1237 C281 1.501 . S
C1241 C434 1.460 . S
C1255 C336 1.517 . S
C1259 C448 1.487 . S
C1273 C474 1.423 . S
C1277 C350 1.458 . S
C1291 C489 1.509 . S
C1295 C365 1.538 . S
C1309 C491 1.412 . S
C1313 C378 1.440 . S
C1327 C505 1.464 . S
C1331 C405 1.499 . S
C1345 C519 1.486 . S
C1349 C418 1.516 . S
C1363 C420 1.521 . S
C1367 C532 1.490 . S
C1381 C447 1.498 . S
C1385 C558 1.462 . S
C1399 C461 1.512 . S
C1403 C561 1.475 . S
C1417 C516 1.541 . S
C1421 C586 1.510 . S
C1435 C530 1.515 . S
C1439 C600 1.484 . S
C1453 C615 1.459 . S
C1457 C545 1.491 . S
C1471 C628 1.454 . S
C1475 C210 1.479 . S
C1489 C631 1.487 . S
C1493 C152 1.521 . S
C1507 C154 1.460 . S
C1511 C645 1.433 . S
C1525 C658 1.407 . S
C1529 C127 1.440 . S
C1543 C12 1.561 . S
C1547 C390 1.524 . S
C1561 C348 1.738 . S
C1565 C14 1.768 . S
C1579 C28 1.515 . S
C1583 C362 1.480 . S
C1597 C43 1.754 . S
C1601 C377 1.722 . S
C1615 C56 1.613 . S
C1619 C70 1.575 . S
C1633 C96 1.842 . S
C1637 C83 1.872 . S
C1651 C85 1.570 . S
C1655 C98 1.540 . S
C1669 C111 1.855 . S
C1673 C69 1.825 . S
C1687 C124 1.564 . S
C1691 C601 1.529 . S
C1705 C126 1.813 . S
C1709 C614 1.788 . S
C1723 C153 1.745 . S
C1727 C293 1.712 . S
C1741 C155 1.869 . S
C1745 C587 1.841 . S
C1759 C181 1.515 . S
C1763 C644 1.481 . S
C1777 C236 1.770 . S
C1781 C182 1.807 . S
C1795 C209 1.697 . S
C1799 C659 1.658 . S
C1813 C630 1.829 . S
C1817 C211 1.859 . S
C1831 C139 1.541 . S
C1835 C225 1.561 . S
C1849 C250 1.739 . S
C1853 C559 1.704 . S
C1867 C252 1.751 . S
C1871 C504 1.714 . S
C1885 C518 1.751 . S
C1889 C267 1.786 . S
C1903 C280 1.713 . S
C1907 C196 1.682 . S
C1921 C490 1.656 . S
C1925 C295 1.695 . S
C1939 C449 1.731 . S
C1943 C321 1.768 . S
C1957 C488 1.836 . S
C1961 C335 1.872 . S
C1975 C337 1.741 . S
C1979 C54 1.700 . S
C1993 C351 1.804 . S
C1997 C1 1.781 . S
C2011 C27 1.747 . S
C2015 C364 1.784 . S
C2029 C379 1.814 . S
C2033 C41 1.783 . S
C2047 C404 1.697 . S
C2051 C406 1.656 . S
C2065 C432 1.658 . S
C2069 C419 1.695 . S
C2083 C435 1.713 . S
C2087 C421 1.744 . S
C2101 C446 1.713 . S
C2105 C393 1.679 . S
C2119 C265 1.703 . S
C2123 C460 1.741 . S
C2137 C462 1.756 . S
C2141 C278 1.721 . S
C2155 C477 1.568 . S
C2159 C629 1.538 . S
C2173 C503 1.700 . S
C2177 C239 1.666 . S
C2191 C517 1.786 . S
C2195 C308 1.751 . S
C2209 C531 1.763 . S
C2213 C560 1.729 . S
C2227 C322 1.580 . S
C2231 C544 1.610 . S
C2245 C546 1.709 . S
C2249 C306 1.674 . S
C2263 C475 1.701 . S
C2267 C573 1.738 . S
C2281 C222 1.545 . S
C2285 C574 1.569 . S
C2299 C168 1.783 . S
C2303 C588 1.817 . S
C2317 C603 1.519 . S
C2321 C195 1.493 . S
C2335 C616 1.858 . S
C2339 C533 1.830 . S
C2353 C166 1.585 . S
C2357 C643 1.613 . S
C2371 C657 1.805 . S
C2375 C113 1.782 . S
C2389 C140 1.664 . S
C2393 C670 1.696 . S
