# Generated by pormake.
# Topology vmq, (7)-cn, num edge types: 1
# Building blocks:
#     Node 0, Type 0, BuildingBlock: HICVOG_clean_sbu_0, # of connection points: 7
#     Node 1, Type 0, BuildingBlock: HICVOG_clean_sbu_0, # of connection points: 7
#     Node 2, Type 0, BuildingBlock: HICVOG_clean_sbu_0, # of connection points: 7
#     Node 3, Type 0, BuildingBlock: HICVOG_clean_sbu_0, # of connection points: 7
#     Node 4, Type 0, BuildingBlock: HICVOG_clean_sbu_0, # of connection points: 7
#     Node 5, Type 0, BuildingBlock: HICVOG_clean_sbu_0, # of connection points: 7
#     Node 6, Type 0, BuildingBlock: HICVOG_clean_sbu_0, # of connection points: 7
#     Node 7, Type 0, BuildingBlock: HICVOG_clean_sbu_0, # of connection points: 7
#     Edge 8, Type (0, 0), BuildingBlock: KIFKEQ_clean_linker_1, # of connection points: 2
#     Edge 9, Type (0, 0), BuildingBlock: KIFKEQ_clean_linker_1, # of connection points: 2
#     Edge 10, Type (0, 0), BuildingBlock: KIFKEQ_clean_linker_1, # of connection points: 2
#     Edge 11, Type (0, 0), BuildingBlock: KIFKEQ_clean_linker_1, # of connection points: 2
#     Edge 12, Type (0, 0), BuildingBlock: KIFKEQ_clean_linker_1, # of connection points: 2
#     Edge 13, Type (0, 0), BuildingBlock: KIFKEQ_clean_linker_1, # of connection points: 2
#     Edge 14, Type (0, 0), BuildingBlock: KIFKEQ_clean_linker_1, # of connection points: 2
#     Edge 15, Type (0, 0), BuildingBlock: KIFKEQ_clean_linker_1, # of connection points: 2
#     Edge 16, Type (0, 0), BuildingBlock: KIFKEQ_clean_linker_1, # of connection points: 2
#     Edge 17, Type (0, 0), BuildingBlock: KIFKEQ_clean_linker_1, # of connection points: 2
#     Edge 18, Type (0, 0), BuildingBlock: KIFKEQ_clean_linker_1, # of connection points: 2
#     Edge 19, Type (0, 0), BuildingBlock: KIFKEQ_clean_linker_1, # of connection points: 2
#     Edge 20, Type (0, 0), BuildingBlock: KIFKEQ_clean_linker_1, # of connection points: 2
#     Edge 21, Type (0, 0), BuildingBlock: KIFKEQ_clean_linker_1, # of connection points: 2
#     Edge 22, Type (0, 0), BuildingBlock: KIFKEQ_clean_linker_1, # of connection points: 2
#     Edge 23, Type (0, 0), BuildingBlock: KIFKEQ_clean_linker_1, # of connection points: 2
#     Edge 24, Type (0, 0), BuildingBlock: KIFKEQ_clean_linker_1, # of connection points: 2
#     Edge 25, Type (0, 0), BuildingBlock: KIFKEQ_clean_linker_1, # of connection points: 2
#     Edge 26, Type (0, 0), BuildingBlock: KIFKEQ_clean_linker_1, # of connection points: 2
#     Edge 27, Type (0, 0), BuildingBlock: KIFKEQ_clean_linker_1, # of connection points: 2
#     Edge 28, Type (0, 0), BuildingBlock: KIFKEQ_clean_linker_1, # of connection points: 2
#     Edge 29, Type (0, 0), BuildingBlock: KIFKEQ_clean_linker_1, # of connection points: 2
#     Edge 30, Type (0, 0), BuildingBlock: KIFKEQ_clean_linker_1, # of connection points: 2
#     Edge 31, Type (0, 0), BuildingBlock: KIFKEQ_clean_linker_1, # of connection points: 2
#     Edge 32, Type (0, 0), BuildingBlock: KIFKEQ_clean_linker_1, # of connection points: 2
#     Edge 33, Type (0, 0), BuildingBlock: KIFKEQ_clean_linker_1, # of connection points: 2
#     Edge 34, Type (0, 0), BuildingBlock: KIFKEQ_clean_linker_1, # of connection points: 2
#     Edge 35, Type (0, 0), BuildingBlock: KIFKEQ_clean_linker_1, # of connection points: 2
# Relax obj value: 0.299
# Max RMSD: 0.264
# Mean RMSD: 0.264
data_MOF--net-vmq--node1-HICVOG_clean_sbu_0--edge1-KIFKEQ_clean_linker_1
_symmetry_space_group_name_H-M    P1
_symmetry_Int_Tables_number       1
_symmetry_cell_setting            triclinic
loop_
_symmetry_equiv_pos_as_xyz
'x, y, z'
_cell_length_a     53.137722
_cell_length_b     19.754
_cell_length_c     35.413617
_cell_angle_alpha  90.007641
_cell_angle_beta   107.40377
_cell_angle_gamma 89.953797
loop_
_atom_site_label
_atom_site_type_symbol
_atom_site_fract_x
_atom_site_fract_y
_atom_site_fract_z
_atom_type_partial_charge
Zn0 Zn 0.4225 0.15394 0.11034 0.0
C1 C 0.45637 0.99728 0.07174 0.0
N2 N 0.4699 0.9909 0.11012 0.0
C3 C 0.45899 0.03745 0.12782 0.0
N4 N 0.4395 0.07161 0.10139 0.0
N5 N 0.43738 0.04501 0.06627 0.0
C6 C 0.38947 0.99315 0.94471 0.0
O7 O 0.36593 0.9944 0.94966 0.0
O8 O 0.42076 0.14989 0.16688 0.0
Zn9 Zn 0.40394 0.03126 0.02658 0.0
N10 N 0.44307 0.23042 0.1009 0.0
C11 C 0.48123 0.27155 0.08628 0.0
C12 C 0.46642 0.21792 0.09373 0.0
C13 C 0.43343 0.29462 0.09928 0.0
N14 N 0.47177 0.33555 0.08503 0.0
C15 C 0.44809 0.34896 0.09089 0.0
O16 O 0.37689 0.10704 0.01906 0.0
C17 C 0.37046 0.15218 0.04023 0.0
O18 O 0.38548 0.168 0.07439 0.0
H19 H 0.47366 0.16671 0.09415 0.0
H20 H 0.41464 0.30294 0.10455 0.0
C21 C 0.39723 0.89037 0.04486 0.0
C22 C 0.38578 0.83706 0.06072 0.0
C23 C 0.356 0.91622 0.07482 0.0
C24 C 0.36757 0.96834 0.05961 0.0
N25 N 0.38788 0.95463 0.04487 0.0
N26 N 0.36536 0.85238 0.07509 0.0
H27 H 0.41331 0.88193 0.03266 0.0
C28 C 0.40769 0.10023 0.17416 0.0
O29 O 0.39539 0.06013 0.14484 0.0
O30 O 0.40938 0.00758 0.97391 0.0
H31 H 0.36053 0.01949 0.05998 0.0
H32 H 0.50002 0.26237 0.08115 0.0
H33 H 0.33983 0.9264 0.08668 0.0
Zn34 Zn 0.6511 0.04898 0.48108 0.0
C35 C 0.58974 0.06678 0.38649 0.0
N36 N 0.57811 0.0276 0.40719 0.0
C37 C 0.59527 0.0284 0.44373 0.0
N38 N 0.61661 0.06656 0.44501 0.0
N39 N 0.61288 0.0917 0.40919 0.0
C40 C 0.64291 0.10751 0.33245 0.0
O41 O 0.6547 0.06731 0.36201 0.0
O42 O 0.64785 0.01768 0.53405 0.0
Zn43 Zn 0.63071 0.16953 0.39658 0.0
N44 N 0.66594 0.97512 0.458 0.0
C45 C 0.69651 0.94102 0.42447 0.0
C46 C 0.68574 0.99091 0.44257 0.0
C47 C 0.65644 0.91067 0.45608 0.0
N48 N 0.68706 0.87706 0.42241 0.0
C49 C 0.66725 0.85949 0.43758 0.0
O50 O 0.66819 0.1817 0.43148 0.0
C51 C 0.6837 0.16876 0.46584 0.0
O52 O 0.67765 0.12643 0.48898 0.0
H53 H 0.69306 0.04199 0.44393 0.0
H54 H 0.64086 0.90032 0.46904 0.0
C55 C 0.62062 0.31378 0.40122 0.0
C56 C 0.60662 0.37032 0.40886 0.0
C57 C 0.57489 0.29622 0.42135 0.0
C58 C 0.5892 0.2407 0.41498 0.0
N59 N 0.61138 0.25016 0.404 0.0
N60 N 0.58391 0.35945 0.41823 0.0
H61 H 0.6387 0.32 0.39345 0.0
C62 C 0.6411 0.05815 0.55724 0.0
O63 O 0.63625 0.12169 0.54654 0.0
O64 O 0.63086 0.15941 0.33957 0.0
H65 H 0.58279 0.19049 0.41946 0.0
H66 H 0.71222 0.95301 0.41197 0.0
H67 H 0.55703 0.28915 0.42956 0.0
Zn68 Zn 0.63143 0.85201 0.89726 0.0
C69 C 0.59751 0.99622 0.94514 0.0
N70 N 0.5822 0.00607 0.90791 0.0
C71 C 0.59288 0.96557 0.88641 0.0
N72 N 0.61407 0.93195 0.90952 0.0
N73 N 0.61738 0.95309 0.94609 0.0
C74 C 0.64197 0.96187 0.05795 0.0
O75 O 0.63743 0.89818 0.04742 0.0
O76 O 0.63277 0.86137 0.84057 0.0
Zn77 Zn 0.65176 0.97227 0.98155 0.0
N78 N 0.61138 0.77287 0.90538 0.0
C79 C 0.57452 0.73049 0.92305 0.0
C80 C 0.58878 0.78453 0.91491 0.0
C81 C 0.62059 0.70859 0.90446 0.0
N82 N 0.58367 0.66666 0.92226 0.0
C83 C 0.60644 0.65333 0.91346 0.0
O84 O 0.67855 0.89636 0.98891 0.0
C85 C 0.68435 0.85173 0.96682 0.0
O86 O 0.66879 0.83711 0.93277 0.0
H87 H 0.58174 0.8355 0.91611 0.0
H88 H 0.63866 0.70135 0.89693 0.0
C89 C 0.65537 0.11052 0.95518 0.0
C90 C 0.66667 0.16317 0.93854 0.0
C91 C 0.69858 0.08514 0.92973 0.0
C92 C 0.68749 0.03389 0.94639 0.0
N93 N 0.66618 0.0473 0.95887 0.0
N94 N 0.68801 0.14808 0.9263 0.0
H95 H 0.6381 0.11866 0.9647 0.0
C96 C 0.64234 0.91672 0.83259 0.0
O97 O 0.65166 0.96055 0.86129 0.0
O98 O 0.64847 1.00255 0.03465 0.0
H99 H 0.69585 0.9837 0.94916 0.0
H100 H 0.55642 0.73915 0.93037 0.0
H101 H 0.71552 0.07509 0.9196 0.0
Zn102 Zn 0.42309 0.83975 0.61046 0.0
C103 C 0.45887 0.99252 0.57225 0.0
N104 N 0.47581 0.98642 0.60876 0.0
C105 C 0.46411 0.94072 0.62561 0.0
N106 N 0.44123 0.91858 0.60069 0.0
N107 N 0.43765 0.95159 0.56696 0.0
C108 C 0.40785 0.95518 0.44836 0.0
O109 O 0.40529 0.89041 0.4548 0.0
O110 O 0.42106 0.84597 0.66655 0.0
Zn111 Zn 0.40365 0.966 0.52798 0.0
N112 N 0.44315 0.76071 0.60367 0.0
C113 C 0.48058 0.7148 0.58891 0.0
C114 C 0.46588 0.77035 0.59419 0.0
C115 C 0.43385 0.69718 0.60614 0.0
N116 N 0.47144 0.65153 0.59163 0.0
C117 C 0.44824 0.64076 0.59959 0.0
O118 O 0.37693 0.88827 0.51841 0.0
C119 C 0.37087 0.84349 0.54018 0.0
O120 O 0.38632 0.82814 0.57409 0.0
H121 H 0.47246 0.82069 0.59019 0.0
H122 H 0.41543 0.69099 0.61291 0.0
C123 C 0.39705 0.10297 0.55176 0.0
C124 C 0.38575 0.15411 0.56944 0.0
C125 C 0.3554 0.07313 0.57998 0.0
C126 C 0.36679 0.0231 0.56285 0.0
N127 N 0.38734 0.0388 0.54907 0.0
N128 N 0.36512 0.13694 0.58291 0.0
H129 H 0.41327 0.11299 0.54011 0.0
C130 C 0.40551 0.89063 0.67281 0.0
O131 O 0.39161 0.92737 0.64288 0.0
O132 O 0.40805 0.99727 0.47563 0.0
H133 H 0.35938 0.97201 0.56097 0.0
H134 H 0.49888 0.72187 0.58192 0.0
H135 H 0.33906 0.06136 0.59115 0.0
Zn136 Zn 0.92255 0.66128 0.11043 0.0
C137 C 0.95782 0.51055 0.06889 0.0
N138 N 0.97555 0.5169 0.10474 0.0
C139 C 0.96423 0.56184 0.12268 0.0
N140 N 0.94081 0.5834 0.09899 0.0
N141 N 0.9365 0.55071 0.065 0.0
C142 C 0.90851 0.53593 0.94901 0.0
O143 O 0.91284 0.60093 0.95573 0.0
O144 O 0.9217 0.65284 0.1672 0.0
Zn145 Zn 0.90167 0.53489 0.02835 0.0
N146 N 0.94209 0.7415 0.10369 0.0
C147 C 0.97879 0.78887 0.08761 0.0
C148 C 0.96439 0.73281 0.09289 0.0
C149 C 0.93286 0.80475 0.1074 0.0
N150 N 0.96975 0.8518 0.09161 0.0
C151 C 0.94694 0.86177 0.10085 0.0
O152 O 0.87536 0.61337 0.01907 0.0
C153 C 0.86967 0.65839 0.04109 0.0
O154 O 0.8854 0.67342 0.07488 0.0
H155 H 0.97086 0.68285 0.08783 0.0
H156 H 0.91474 0.81029 0.11513 0.0
C157 C 0.89594 0.39962 0.05519 0.0
C158 C 0.8853 0.34944 0.07441 0.0
C159 C 0.8558 0.43166 0.08629 0.0
C160 C 0.86648 0.48071 0.06749 0.0
N161 N 0.88634 0.46396 0.05238 0.0
N162 N 0.86542 0.36768 0.08931 0.0
H163 H 0.9115 0.3886 0.04228 0.0
C164 C 0.90595 0.60916 0.17382 0.0
O165 O 0.89074 0.57509 0.14376 0.0
O166 O 0.90365 0.49906 0.97544 0.0
H167 H 0.85906 0.53186 0.06529 0.0
H168 H 0.99677 0.7825 0.07959 0.0
H169 H 0.84004 0.44431 0.09857 0.0
Zn170 Zn 0.13153 0.66184 0.39579 0.0
C171 C 0.09706 0.51716 0.44176 0.0
N172 N 0.08298 0.50526 0.40411 0.0
C173 C 0.09413 0.54564 0.38319 0.0
N174 N 0.11442 0.58108 0.40709 0.0
N175 N 0.11676 0.56129 0.44364 0.0
C176 C 0.13928 0.5488 0.55481 0.0
O177 O 0.13307 0.6115 0.54337 0.0
O178 O 0.13385 0.65535 0.33956 0.0
Zn179 Zn 0.15089 0.54028 0.47954 0.0
N180 N 0.11083 0.73989 0.4032 0.0
C181 C 0.07192 0.78267 0.41492 0.0
C182 C 0.08695 0.72843 0.40882 0.0
C183 C 0.12067 0.80388 0.40479 0.0
N184 N 0.08158 0.84639 0.41616 0.0
C185 C 0.1057 0.85899 0.41162 0.0
O186 O 0.17826 0.61476 0.48742 0.0
C187 C 0.18414 0.66048 0.46606 0.0
O188 O 0.16861 0.67663 0.43226 0.0
H189 H 0.07945 0.67754 0.40824 0.0
H190 H 0.13982 0.81144 0.4006 0.0
C191 C 0.15566 0.40073 0.45636 0.0
C192 C 0.16606 0.34848 0.43813 0.0
C193 C 0.19423 0.42901 0.42132 0.0
C194 C 0.18386 0.48002 0.43924 0.0
N195 N 0.16479 0.4652 0.45633 0.0
N196 N 0.18514 0.36494 0.42119 0.0
H197 H 0.14075 0.39101 0.47077 0.0
C198 C 0.14878 0.60941 0.33295 0.0
O199 O 0.16223 0.57148 0.36258 0.0
O200 O 0.14737 0.50949 0.53245 0.0
H201 H 0.19093 0.5312 0.43928 0.0
H202 H 0.05277 0.77422 0.41894 0.0
H203 H 0.20936 0.44017 0.40751 0.0
Zn204 Zn 0.13121 0.33884 0.89507 0.0
C205 C 0.097 0.48067 0.94391 0.0
N206 N 0.08264 0.49374 0.90654 0.0
C207 C 0.09356 0.45414 0.88495 0.0
N208 N 0.1139 0.41786 0.90813 0.0
N209 N 0.11651 0.43629 0.94498 0.0
C210 C 0.16558 0.50362 0.06198 0.0
O211 O 0.18863 0.50933 0.05567 0.0
O212 O 0.13273 0.34968 0.83849 0.0
Zn213 Zn 0.15066 0.45469 0.98142 0.0
N214 N 0.11111 0.25886 0.90214 0.0
C215 C 0.07225 0.21505 0.91355 0.0
C216 C 0.0871 0.26962 0.90749 0.0
C217 C 0.12131 0.19503 0.90423 0.0
N218 N 0.08224 0.15162 0.9152 0.0
C219 C 0.10651 0.13949 0.9111 0.0
O220 O 0.17783 0.3789 0.98837 0.0
C221 C 0.18392 0.33707 0.96501 0.0
O222 O 0.16846 0.32485 0.93053 0.0
H223 H 0.07935 0.32029 0.90683 0.0
H224 H 0.14062 0.18786 0.9005 0.0
C225 C 0.15613 0.59654 0.96067 0.0
C226 C 0.16695 0.64918 0.94323 0.0
C227 C 0.19483 0.56845 0.9258 0.0
C228 C 0.18402 0.5171 0.94276 0.0
N229 N 0.16496 0.53175 0.95994 0.0
N230 N 0.18608 0.63271 0.9264 0.0
H231 H 0.14109 0.60627 0.97484 0.0
C232 C 0.14169 0.40582 0.83041 0.0
O233 O 0.15046 0.45013 0.859 0.0
O234 O 0.1462 0.48073 0.03444 0.0
H235 H 0.1907 0.46577 0.94189 0.0
H236 H 0.053 0.22305 0.91731 0.0
H237 H 0.20999 0.55735 0.912 0.0
Zn238 Zn 0.90288 0.47604 0.52852 0.0
C239 C 0.965 0.44668 0.62246 0.0
N240 N 0.97658 0.4908 0.60443 0.0
C241 C 0.95878 0.49779 0.56871 0.0
N242 N 0.93724 0.45882 0.56504 0.0
N243 N 0.94133 0.42627 0.599 0.0
C244 C 0.90233 0.37321 0.6765 0.0
O245 O 0.88026 0.38401 0.64812 0.0
O246 O 0.90596 0.50875 0.47561 0.0
Zn247 Zn 0.92297 0.34817 0.60998 0.0
N248 N 0.88797 0.54729 0.55271 0.0
C249 C 0.85966 0.57816 0.59068 0.0
C250 C 0.86986 0.52936 0.57104 0.0
C251 C 0.89654 0.6123 0.55352 0.0
N252 N 0.86827 0.64287 0.59173 0.0
C253 C 0.88659 0.66201 0.57392 0.0
O254 O 0.88578 0.33486 0.57388 0.0
C255 C 0.87032 0.3523 0.54031 0.0
O256 O 0.8762 0.39944 0.51984 0.0
H257 H 0.86354 0.47746 0.57085 0.0
H258 H 0.91088 0.62419 0.53839 0.0
C259 C 0.93366 0.20566 0.60644 0.0
C260 C 0.94768 0.14889 0.59941 0.0
C261 C 0.97927 0.22206 0.58584 0.0
C262 C 0.96488 0.27795 0.59152 0.0
N263 N 0.94276 0.26895 0.60273 0.0
N264 N 0.97034 0.15904 0.5898 0.0
H265 H 0.91566 0.19992 0.61446 0.0
C266 C 0.90483 0.46661 0.44798 0.0
O267 O 0.9019 0.40203 0.45447 0.0
O268 O 0.92277 0.35526 0.66733 0.0
H269 H 0.97124 0.32797 0.58641 0.0
H270 H 0.84521 0.56466 0.60536 0.0
H271 H 0.99711 0.22864 0.5775 0.0
H272 H 0.59581 0.02677 0.31694 0.0
H273 H 0.54784 0.15071 0.36848 0.0
H274 H 0.56148 0.03215 0.25307 0.0
H275 H 0.5138 0.15695 0.30482 0.0
H276 H 0.46884 0.16356 0.16348 0.0
H277 H 0.5032 0.18766 0.22535 0.0
H278 H 0.51445 0.97334 0.24734 0.0
H279 H 0.47999 0.94938 0.18598 0.0
C280 C 0.57874 0.05869 0.31397 0.0
C281 C 0.5749 0.09057 0.34708 0.0
C282 C 0.55895 0.06088 0.27776 0.0
C283 C 0.53507 0.0946 0.27448 0.0
C284 C 0.53219 0.1314 0.30667 0.0
C285 C 0.55185 0.12855 0.34294 0.0
C286 C 0.47801 0.1218 0.18192 0.0
C287 C 0.47195 0.05466 0.16954 0.0
C288 C 0.49787 0.13559 0.21715 0.0
C289 C 0.51202 0.08218 0.23993 0.0
C290 C 0.50431 0.01529 0.22942 0.0
C291 C 0.48436 1.00171 0.19468 0.0
H292 H 0.50739 0.86191 0.64364 0.0
H293 H 0.45402 0.96654 0.69441 0.0
H294 H 0.54009 0.85517 0.70853 0.0
H295 H 0.48675 0.95976 0.75963 0.0
H296 H 0.56422 0.05466 0.83412 0.0
H297 H 0.52995 0.02965 0.77285 0.0
H298 H 0.55252 0.81897 0.78362 0.0
H299 H 0.58666 0.844 0.84541 0.0
C300 C 0.502 0.87942 0.66915 0.0
C301 C 0.47789 0.91272 0.66444 0.0
C302 C 0.52085 0.87624 0.70619 0.0
C303 C 0.51599 0.9078 0.73872 0.0
C304 C 0.49093 0.93548 0.73472 0.0
C305 C 0.47202 0.93826 0.69767 0.0
C306 C 0.56222 0.00312 0.82312 0.0
C307 C 0.57811 0.95116 0.84487 0.0
C308 C 0.54235 0.9887 0.78842 0.0
C309 C 0.53806 0.922 0.7745 0.0
C310 C 0.5552 0.87064 0.79432 0.0
C311 C 0.575 0.88514 0.8295 0.0
H312 H 1.00747 0.64053 0.13876 0.0
H313 H 0.9558 0.53617 0.19272 0.0
H314 H 0.04099 0.64912 0.20291 0.0
H315 H 0.98941 0.54443 0.25711 0.0
H316 H 0.06808 0.45379 0.33049 0.0
H317 H 0.03383 0.4759 0.26867 0.0
H318 H 0.05303 0.68861 0.27905 0.0
H319 H 0.08709 0.66657 0.34149 0.0
C320 C 1.00266 0.6233 0.16479 0.0
C321 C 0.97875 0.58976 0.16122 0.0
C322 C 1.02197 0.62755 0.20138 0.0
C323 C 1.0178 0.59669 0.23458 0.0
C324 C 0.99302 0.56829 0.23167 0.0
C325 C 0.97363 0.56461 0.1951 0.0
C326 C 0.06542 0.50516 0.31922 0.0
C327 C 0.08022 0.55857 0.34114 0.0
C328 C 0.04557 0.51787 0.2842 0.0
C329 C 0.04027 0.58425 0.27011 0.0
C330 C 0.05652 0.63713 0.28991 0.0
C331 C 0.07629 0.62435 0.32543 0.0
H332 H 0.08612 0.33542 0.84132 0.0
H333 H 0.06826 0.54899 0.83367 0.0
H334 H 0.05251 0.317 0.77803 0.0
H335 H 0.03452 0.53055 0.77082 0.0
H336 H 0.95634 0.4733 0.69207 0.0
H337 H 0.98987 0.46526 0.75665 0.0
H338 H 0.04126 0.35757 0.70324 0.0
H339 H 1.00797 0.36671 0.63887 0.0
C340 C 0.07562 0.37857 0.82585 0.0
C341 C 0.07974 0.4435 0.84269 0.0
C342 C 0.05616 0.3679 0.78979 0.0
C343 C 0.0404 0.42204 0.77055 0.0
C344 C 0.04589 0.48763 0.78586 0.0
C345 C 0.06543 0.49825 0.82148 0.0
C346 C 0.97421 0.44479 0.69467 0.0
C347 C 0.97934 0.41879 0.66101 0.0
C348 C 0.99352 0.44111 0.73131 0.0
C349 C 1.01815 0.41151 0.73452 0.0
C350 C 1.02233 0.38006 0.70148 0.0
C351 C 1.00315 0.38455 0.66479 0.0
H352 H 0.36073 0.72573 0.07728 0.0
H353 H 0.43219 0.78342 0.05056 0.0
H354 H 0.37561 0.60963 0.08533 0.0
H355 H 0.44612 0.66624 0.05628 0.0
H356 H 0.47738 0.46325 0.1118 0.0
H357 H 0.46249 0.58043 0.1037 0.0
H358 H 0.38228 0.51232 0.0514 0.0
H359 H 0.39714 0.39523 0.06074 0.0
C360 C 0.37948 0.71402 0.0726 0.0
C361 C 0.39501 0.76519 0.06299 0.0
C362 C 0.3879 0.64676 0.07688 0.0
C363 C 0.41206 0.62807 0.07137 0.0
C364 C 0.42753 0.67874 0.06127 0.0
C365 C 0.41923 0.74641 0.05734 0.0
C366 C 0.45653 0.4734 0.09879 0.0
C367 C 0.43842 0.41988 0.08744 0.0
C368 C 0.448 0.54067 0.0938 0.0
C369 C 0.42115 0.55623 0.07677 0.0
C370 C 0.40304 0.5025 0.06532 0.0
C371 C 0.41155 0.43516 0.07076 0.0
H372 H 0.69165 0.75104 0.41605 0.0
H373 H 0.62186 0.80242 0.44926 0.0
H374 H 0.67723 0.63462 0.40648 0.0
H375 H 0.60841 0.68492 0.4418 0.0
H376 H 0.57686 0.48356 0.38688 0.0
H377 H 0.59131 0.601 0.3932 0.0
H378 H 0.67225 0.5348 0.44024 0.0
H379 H 0.65775 0.41726 0.43278 0.0
C380 C 0.67334 0.73789 0.42175 0.0
C381 C 0.65817 0.78738 0.43376 0.0
C382 C 0.66519 0.67045 0.41655 0.0
C383 C 0.64166 0.6499 0.42341 0.0
C384 C 0.6265 0.69892 0.4357 0.0
C385 C 0.63454 0.76673 0.44062 0.0
C386 C 0.59778 0.49413 0.39816 0.0
C387 C 0.61614 0.44097 0.40895 0.0
C388 C 0.60607 0.56157 0.40217 0.0
C389 C 0.63296 0.57778 0.4176 0.0
C390 C 0.65141 0.52445 0.42772 0.0
C391 C 0.64311 0.45685 0.42331 0.0
H392 H 0.57663 0.53989 0.90958 0.0
H393 H 0.65672 0.60209 0.92123 0.0
H394 H 0.59054 0.42222 0.91534 0.0
H395 H 0.67026 0.484 0.92619 0.0
H396 H 0.6775 0.26173 0.89179 0.0
H397 H 0.66326 0.37902 0.88493 0.0
H398 H 0.61872 0.34542 0.96701 0.0
H399 H 0.6332 0.22818 0.97479 0.0
C400 C 0.59719 0.52886 0.91318 0.0
C401 C 0.61538 0.58141 0.91454 0.0
C402 C 0.60513 0.46113 0.91664 0.0
C403 C 0.63149 0.44375 0.92131 0.0
C404 C 0.64971 0.49579 0.92214 0.0
C405 C 0.64182 0.5638 0.91902 0.0
C406 C 0.66469 0.27886 0.90858 0.0
C407 C 0.65647 0.23424 0.93367 0.0
C408 C 0.65661 0.34647 0.90463 0.0
C409 C 0.63991 0.37158 0.92543 0.0
C410 C 0.63136 0.32729 0.95019 0.0
C411 C 0.63964 0.25959 0.95446 0.0
H412 H 0.43271 0.20873 0.56224 0.0
H413 H 0.36085 0.26357 0.58877 0.0
H414 H 0.44668 0.32559 0.57021 0.0
H415 H 0.37583 0.37956 0.59915 0.0
H416 H 0.39721 0.59471 0.57231 0.0
H417 H 0.38239 0.47756 0.56519 0.0
H418 H 0.46266 0.41032 0.61854 0.0
H419 H 0.4775 0.52752 0.62442 0.0
C420 C 0.41967 0.24507 0.56949 0.0
C421 C 0.39526 0.22569 0.57416 0.0
C422 C 0.42803 0.31252 0.57478 0.0
C423 C 0.41243 0.36234 0.58538 0.0
C424 C 0.38821 0.343 0.59035 0.0
C425 C 0.37972 0.27588 0.5847 0.0
C426 C 0.41162 0.555 0.5832 0.0
C427 C 0.43852 0.57041 0.59923 0.0
C428 C 0.40314 0.48765 0.57903 0.0
C429 C 0.42132 0.43417 0.5911 0.0
C430 C 0.44814 0.44994 0.60812 0.0
C431 C 0.45664 0.51718 0.61185 0.0
H432 H 0.93168 0.2938 0.06574 0.0
H433 H 0.86063 0.24069 0.09493 0.0
H434 H 0.9454 0.17663 0.07326 0.0
H435 H 0.87536 0.12426 0.10482 0.0
H436 H 0.89583 0.90839 0.07627 0.0
H437 H 0.88116 0.02579 0.07041 0.0
H438 H 0.9618 0.0917 0.12125 0.0
H439 H 0.97646 0.97438 0.12588 0.0
C440 C 0.91877 0.25772 0.07348 0.0
C441 C 0.89465 0.27767 0.07901 0.0
C442 C 0.92698 0.19011 0.07852 0.0
C443 C 0.91154 0.14063 0.08973 0.0
C444 C 0.88761 0.16055 0.09558 0.0
C445 C 0.87927 0.22788 0.0902 0.0
C446 C 0.91036 0.94785 0.08691 0.0
C447 C 0.93731 0.93203 0.10178 0.0
C448 C 0.90196 0.01536 0.08346 0.0
C449 C 0.92029 0.06857 0.09508 0.0
C450 C 0.94716 0.05234 0.11114 0.0
C451 C 0.95556 0.985 0.11416 0.0
H452 H 0.19172 0.23762 0.42232 0.0
H453 H 0.12017 0.29425 0.44905 0.0
H454 H 0.17748 0.1208 0.41536 0.0
H455 H 0.10681 0.17646 0.44434 0.0
H456 H 0.07629 0.97282 0.38937 0.0
H457 H 0.09083 0.09012 0.3968 0.0
H458 H 0.17115 0.02359 0.45034 0.0
H459 H 0.15662 0.90615 0.4419 0.0
C460 C 0.17307 0.22543 0.4272 0.0
C461 C 0.15731 0.27637 0.43653 0.0
C462 C 0.16502 0.15786 0.42356 0.0
C463 C 0.141 0.13876 0.42935 0.0
C464 C 0.12531 0.18929 0.43918 0.0
C465 C 0.13327 0.2572 0.44254 0.0
C466 C 0.09709 0.98324 0.40255 0.0
C467 C 0.1153 0.92998 0.41457 0.0
C468 C 0.10542 0.05064 0.40714 0.0
C469 C 0.13218 0.0667 0.42436 0.0
C470 C 0.15044 0.01331 0.43635 0.0
C471 C 0.14212 0.94577 0.4314 0.0
H472 H 0.15757 0.09298 0.94253 0.0
H473 H 0.07754 0.02493 0.8895 0.0
H474 H 0.17225 0.97567 0.95314 0.0
H475 H 0.09222 0.90786 0.89904 0.0
H476 H 0.12096 0.70475 0.95334 0.0
H477 H 0.10766 0.82286 0.94746 0.0
H478 H 0.1793 0.87647 0.92079 0.0
H479 H 0.19337 0.75957 0.92884 0.0
C480 C 0.14317 0.05308 0.93236 0.0
C481 C 0.11638 0.06853 0.91481 0.0
C482 C 0.15157 0.98557 0.93857 0.0
C483 C 0.13343 0.9318 0.92714 0.0
C484 C 0.10672 0.94756 0.90907 0.0
C485 C 0.09832 0.01488 0.90322 0.0
C486 C 0.13425 0.74149 0.9471 0.0
C487 C 0.15846 0.72164 0.94187 0.0
C488 C 0.12637 0.80958 0.94308 0.0
C489 C 0.1423 0.85966 0.93341 0.0
C490 C 0.1666 0.8399 0.92876 0.0
C491 C 0.17455 0.7722 0.93303 0.0
H492 H 0.86155 0.77058 0.59376 0.0
H493 H 0.93218 0.71773 0.56328 0.0
H494 H 0.87611 0.88726 0.60316 0.0
H495 H 0.9457 0.83509 0.57022 0.0
H496 H 0.97715 0.03608 0.62401 0.0
H497 H 0.96236 0.9189 0.619 0.0
H498 H 0.88177 0.98582 0.56846 0.0
H499 H 0.89657 0.10305 0.57469 0.0
C500 C 0.88003 0.78363 0.58858 0.0
C501 C 0.89541 0.73396 0.57728 0.0
C502 C 0.88827 0.85099 0.59367 0.0
C503 C 0.91207 0.87086 0.58741 0.0
C504 C 0.9274 0.82153 0.57582 0.0
C505 C 0.9193 0.75393 0.57107 0.0
C506 C 0.95624 0.02567 0.61228 0.0
C507 C 0.93803 0.07879 0.60009 0.0
C508 C 0.94776 0.95847 0.60904 0.0
C509 C 0.92088 0.94267 0.59294 0.0
C510 C 0.90258 0.99602 0.58151 0.0
C511 C 0.91105 0.06337 0.58518 0.0
H512 H 0.32705 0.10271 0.98422 0.0
H513 H 0.35284 0.26808 0.06647 0.0
H514 H 0.28199 0.1445 0.96718 0.0
H515 H 0.30792 0.31185 0.0482 0.0
H516 H 0.20779 0.26974 0.91761 0.0
H517 H 0.25275 0.22832 0.93432 0.0
H518 H 0.26599 0.29206 0.05551 0.0
H519 H 0.22115 0.3365 0.0382 0.0
C520 C 0.32319 0.14884 0.9981 0.0
C521 C 0.34359 0.18204 0.0267 0.0
C522 C 0.29726 0.173 0.98828 0.0
C523 C 0.29106 0.2316 0.00638 0.0
C524 C 0.31169 0.26578 0.03423 0.0
C525 C 0.33756 0.24108 0.04444 0.0
C526 C 0.22018 0.2746 0.94794 0.0
C527 C 0.21074 0.30653 0.97656 0.0
C528 C 0.24608 0.25048 0.9576 0.0
C529 C 0.26326 0.25674 0.99632 0.0
C530 C 0.25362 0.28743 0.02518 0.0
C531 C 0.22775 0.31236 0.01537 0.0
H532 H 0.72111 0.16814 0.5389 0.0
H533 H 0.70752 0.23616 0.41849 0.0
H534 H 0.76604 0.21188 0.55608 0.0
H535 H 0.75253 0.27688 0.43505 0.0
H536 H 0.8267 0.40211 0.48484 0.0
H537 H 0.78171 0.36043 0.46812 0.0
H538 H 0.80797 0.1922 0.5484 0.0
H539 H 0.8529 0.23587 0.5664 0.0
C540 C 0.72768 0.1924 0.51609 0.0
C541 C 0.71058 0.19884 0.47737 0.0
C542 C 0.75359 0.21693 0.52582 0.0
C543 C 0.76317 0.24783 0.49697 0.0
C544 C 0.7459 0.25459 0.45834 0.0
C545 C 0.71998 0.23088 0.44876 0.0
C546 C 0.82295 0.35581 0.49863 0.0
C547 C 0.84347 0.32233 0.52694 0.0
C548 C 0.79705 0.3317 0.48898 0.0
C549 C 0.79096 0.27286 0.50694 0.0
C550 C 0.81168 0.23842 0.53452 0.0
C551 C 0.83755 0.26306 0.54457 0.0
H552 H 0.72852 0.89992 0.02151 0.0
H553 H 0.70088 0.7351 0.93951 0.0
H554 H 0.77319 0.85613 0.03768 0.0
H555 H 0.74549 0.68901 0.95707 0.0
H556 H 0.83232 0.65742 0.96787 0.0
H557 H 0.78773 0.70399 0.95013 0.0
H558 H 0.80156 0.77193 0.07072 0.0
H559 H 0.8462 0.72869 0.08769 0.0
C560 C 0.7319 0.85346 0.0075 0.0
C561 C 0.71107 0.82092 0.97932 0.0
C562 C 0.75762 0.82809 0.01684 0.0
C563 C 0.76321 0.76875 0.99876 0.0
C564 C 0.74219 0.73549 0.97109 0.0
C565 C 0.7165 0.76151 0.96129 0.0
C566 C 0.82587 0.68297 0.99042 0.0
C567 C 0.84297 0.68964 0.02912 0.0
C568 C 0.80017 0.70914 0.98039 0.0
C569 C 0.79078 0.74182 0.00895 0.0
C570 C 0.80804 0.74849 0.04759 0.0
C571 C 0.83376 0.7233 0.05742 0.0
H572 H 0.22811 0.60917 0.51984 0.0
H573 H 0.20133 0.77732 0.43996 0.0
H574 H 0.27309 0.65032 0.53574 0.0
H575 H 0.24632 0.82075 0.45731 0.0
H576 H 0.33328 0.84764 0.46712 0.0
H577 H 0.28829 0.8037 0.44943 0.0
H578 H 0.30224 0.7323 0.56937 0.0
H579 H 0.34717 0.77283 0.58626 0.0
C580 C 0.23174 0.65584 0.50629 0.0
C581 C 0.21105 0.69007 0.47876 0.0
C582 C 0.25765 0.67966 0.51546 0.0
C583 C 0.26359 0.73912 0.49789 0.0
C584 C 0.24273 0.77414 0.47091 0.0
C585 C 0.21683 0.74966 0.46126 0.0
C586 C 0.32677 0.82181 0.48951 0.0
C587 C 0.34398 0.81343 0.52801 0.0
C588 C 0.30085 0.79719 0.47952 0.0
C589 C 0.29138 0.76436 0.50793 0.0
C590 C 0.30875 0.7559 0.54634 0.0
C591 C 0.33467 0.77954 0.55612 0.0
H592 H 0.43531 0.97903 0.92462 0.0
H593 H 0.35052 0.96797 0.87601 0.0
H594 H 0.43981 0.95282 0.8594 0.0
H595 H 0.35505 0.9411 0.81133 0.0
H596 H 0.37134 0.97495 0.6937 0.0
H597 H 0.36843 0.99878 0.75963 0.0
H598 H 0.43275 0.86046 0.80971 0.0
H599 H 0.43594 0.83711 0.74338 0.0
C600 C 0.41765 0.97081 0.90011 0.0
C601 C 0.39254 0.97593 0.90553 0.0
C602 C 0.42025 0.95539 0.8628 0.0
C603 C 0.39779 0.94517 0.83008 0.0
C604 C 0.37275 0.94966 0.83572 0.0
C605 C 0.37016 0.96474 0.87293 0.0
C606 C 0.38486 0.9494 0.71869 0.0
C607 C 0.40374 0.9037 0.71319 0.0
C608 C 0.38309 0.96286 0.75654 0.0
C609 C 0.40022 0.93119 0.78997 0.0
C610 C 0.41935 0.88599 0.7846 0.0
C611 C 0.42104 0.8722 0.74658 0.0
H612 H 0.62844 0.13276 0.61395 0.0
H613 H 0.64976 0.93024 0.58892 0.0
H614 H 0.62752 0.09614 0.67917 0.0
H615 H 0.64917 0.89378 0.65463 0.0
H616 H 0.62181 0.84274 0.76438 0.0
H617 H 0.62 0.87494 0.69679 0.0
H618 H 0.65992 0.06223 0.74083 0.0
H619 H 0.66149 0.0307 0.8078 0.0
C620 C 0.63292 0.08037 0.62231 0.0
C621 C 0.63942 0.03465 0.59627 0.0
C622 C 0.63251 0.05942 0.65984 0.0
C623 C 0.63853 0.99214 0.67234 0.0
C624 C 0.6443 0.94586 0.64589 0.0
C625 C 0.64479 0.9669 0.6083 0.0
C626 C 0.63029 0.89063 0.75958 0.0
C627 C 0.64182 0.93406 0.79155 0.0
C628 C 0.6293 0.90901 0.72088 0.0
C629 C 0.63967 0.97139 0.71333 0.0
C630 C 0.65134 0.01438 0.74542 0.0
C631 C 0.6524 0.99599 0.78395 0.0
H632 H 0.61976 0.17674 0.26326 0.0
H633 H 0.66429 0.99589 0.30881 0.0
H634 H 0.61796 0.14305 0.1959 0.0
H635 H 0.66262 0.9628 0.24201 0.0
H636 H 0.63126 0.88634 0.11596 0.0
H637 H 0.63016 0.92355 0.18105 0.0
H638 H 0.6476 0.12792 0.15365 0.0
H639 H 0.64845 0.09085 0.08818 0.0
C640 C 0.62927 0.13009 0.25897 0.0
C641 C 0.64223 0.08916 0.29149 0.0
C642 C 0.62828 0.11086 0.2204 0.0
C643 C 0.64003 0.05004 0.21353 0.0
C644 C 0.65302 0.00942 0.24612 0.0
C645 C 0.65414 0.02874 0.28454 0.0
C646 C 0.63478 0.93928 0.12368 0.0
C647 C 0.64019 0.98544 0.09691 0.0
C648 C 0.63426 0.96057 0.16111 0.0
C649 C 0.63902 0.02863 0.17273 0.0
C650 C 0.6437 0.07523 0.14557 0.0
C651 C 0.64435 0.05386 0.10813 0.0
H652 H 0.40718 0.87789 0.38418 0.0
H653 H 0.413 0.08543 0.42436 0.0
H654 H 0.4082 0.91557 0.31929 0.0
H655 H 0.41353 0.12336 0.35884 0.0
H656 H 0.43799 0.15626 0.24421 0.0
H657 H 0.43946 0.1228 0.31147 0.0
H658 H 0.37881 0.97397 0.26342 0.0
H659 H 0.37764 0.00639 0.19677 0.0
C660 C 0.40868 0.93163 0.37921 0.0
C661 C 0.40976 0.97862 0.40945 0.0
C662 C 0.40911 0.95331 0.34184 0.0
C663 C 0.41062 0.02261 0.33361 0.0
C664 C 0.41247 0.06962 0.36418 0.0
C665 C 0.41201 0.04787 0.40168 0.0
C666 C 0.42484 0.1168 0.2481 0.0
C667 C 0.40771 0.08398 0.21509 0.0
C668 C 0.42566 0.09767 0.28663 0.0
C669 C 0.40942 0.04523 0.29291 0.0
C670 C 0.39198 0.01356 0.25978 0.0
C671 C 0.39118 0.03254 0.22146 0.0
H672 H 0.86165 0.40138 0.70649 0.0
H673 H 0.94632 0.37762 0.74143 0.0
H674 H 0.86431 0.4347 0.77406 0.0
H675 H 0.94896 0.41403 0.80858 0.0
H676 H 0.93603 0.58054 0.9 0.0
H677 H 0.93563 0.5338 0.8357 0.0
H678 H 0.88133 0.37855 0.84711 0.0
H679 H 0.88226 0.42401 0.91196 0.0
C680 C 0.88083 0.40311 0.72852 0.0
C681 C 0.90383 0.38782 0.71831 0.0
C682 C 0.88231 0.42207 0.76722 0.0
C683 C 0.90684 0.42743 0.79637 0.0
C684 C 0.92981 0.4109 0.78651 0.0
C685 C 0.92828 0.39027 0.74803 0.0
C686 C 0.92414 0.5362 0.88887 0.0
C687 C 0.90907 0.50611 0.91088 0.0
C688 C 0.92404 0.50928 0.85225 0.0
C689 C 0.90841 0.45271 0.83649 0.0
C690 C 0.89348 0.42232 0.85859 0.0
C691 C 0.89408 0.44822 0.89567 0.0
H692 H 0.12451 0.62142 0.6104 0.0
H693 H 0.15032 0.42222 0.58765 0.0
H694 H 0.1238 0.58447 0.6757 0.0
H695 H 0.14991 0.38549 0.65337 0.0
H696 H 0.12273 0.33004 0.76255 0.0
H697 H 0.12055 0.36261 0.69489 0.0
H698 H 0.15663 0.55458 0.73805 0.0
H699 H 0.1586 0.52261 0.80512 0.0
C700 C 0.13001 0.56969 0.61927 0.0
C701 C 0.13771 0.52502 0.59385 0.0
C702 C 0.12972 0.54857 0.65684 0.0
C703 C 0.13703 0.48216 0.66997 0.0
C704 C 0.14401 0.43685 0.64412 0.0
C705 C 0.1444 0.45807 0.60653 0.0
C706 C 0.13028 0.37905 0.75755 0.0
C707 C 0.1409 0.4236 0.78932 0.0
C708 C 0.12908 0.39766 0.71881 0.0
C709 C 0.13829 0.46139 0.71099 0.0
C710 C 0.14897 0.5056 0.74286 0.0
C711 C 0.15027 0.48697 0.78144 0.0
H712 H 0.1851 0.53207 0.31261 0.0
H713 H 0.11682 0.65806 0.26204 0.0
H714 H 0.18839 0.50909 0.24675 0.0
H715 H 0.12025 0.63513 0.19571 0.0
H716 H 0.11998 0.50929 0.08329 0.0
H717 H 0.1154 0.53792 0.14816 0.0
H718 H 0.19944 0.57056 0.1932 0.0
H719 H 0.20409 0.54165 0.12876 0.0
C720 C 0.17083 0.55512 0.28742 0.0
C721 C 0.15079 0.59722 0.29262 0.0
C722 C 0.17281 0.5422 0.24964 0.0
C723 C 0.15468 0.57055 0.21597 0.0
C724 C 0.13445 0.61229 0.22105 0.0
C725 C 0.13261 0.62581 0.25903 0.0
C726 C 0.13747 0.52268 0.10704 0.0
C727 C 0.16244 0.52271 0.10088 0.0
C728 C 0.13481 0.53952 0.14412 0.0
C729 C 0.15708 0.55618 0.1759 0.0
C730 C 0.18194 0.55707 0.1695 0.0
C731 C 0.18458 0.54075 0.13246 0.0
H732 H 0.93851 0.65847 0.24424 0.0
H733 H 0.87329 0.52198 0.19603 0.0
H734 H 0.93934 0.62563 0.31129 0.0
H735 H 0.8739 0.49014 0.26257 0.0
H736 H 0.90084 0.38933 0.3826 0.0
H737 H 0.90202 0.42615 0.31763 0.0
H738 H 0.91355 0.63275 0.35909 0.0
H739 H 0.91277 0.59562 0.42467 0.0
C740 C 0.9242 0.62203 0.24791 0.0
C741 C 0.90585 0.59283 0.21472 0.0
C742 C 0.92464 0.60331 0.28634 0.0
C743 C 0.90681 0.55483 0.29235 0.0
C744 C 0.88824 0.52667 0.25908 0.0
C745 C 0.88778 0.54534 0.22084 0.0
C746 C 0.9037 0.44263 0.37802 0.0
C747 C 0.90648 0.48955 0.40884 0.0
C748 C 0.90423 0.46383 0.34062 0.0
C749 C 0.90759 0.53255 0.33294 0.0
C750 C 0.91104 0.57941 0.36402 0.0
C751 C 0.91043 0.55816 0.40154 0.0
H752 H 0.48773 0.88921 0.07412 0.0
H753 H 0.45778 0.06851 0.00595 0.0
H754 H 0.52561 0.88943 0.04992 0.0
H755 H 0.4944 0.06517 0.97803 0.0
H756 H 0.57503 0.10339 0.97066 0.0
H757 H 0.53789 0.09538 0.99745 0.0
H758 H 0.54855 0.87797 0.00684 0.0
H759 H 0.58684 0.88785 0.98385 0.0
C760 C 0.48854 0.92658 0.0521 0.0
C761 C 0.46997 0.97933 0.04241 0.0
C762 C 0.5105 0.92709 0.03826 0.0
C763 C 0.51394 0.97904 0.01307 0.0
C764 C 0.49328 0.02625 0.99897 0.0
C765 C 0.47165 0.02688 0.01385 0.0
C766 C 0.57018 0.05463 0.98064 0.0
C767 C 0.58401 0.9965 0.97577 0.0
C768 C 0.5483 0.04942 0.99472 0.0
C769 C 0.53927 0.98559 1.00298 0.0
C770 C 0.5546 0.92819 1.00105 0.0
C771 C 0.57693 0.93382 0.98822 0.0
H772 H 0.57684 0.91601 0.47049 0.0
H773 H 0.58472 0.13207 0.48535 0.0
H774 H 0.53954 0.91751 0.49708 0.0
H775 H 0.54619 0.1356 0.50817 0.0
H776 H 0.48453 0.10993 0.57389 0.0
H777 H 0.52232 0.11902 0.54969 0.0
H778 H 0.4956 0.9427 0.47597 0.0
H779 H 0.45938 0.93006 0.5041 0.0
C780 C 0.5712 0.96345 0.48107 0.0
C781 C 0.58385 0.02368 0.47647 0.0
C782 C 0.54915 0.96496 0.49488 0.0
C783 C 0.53879 0.02712 0.50314 0.0
C784 C 0.55321 0.08656 0.50216 0.0
C785 C 0.57574 0.08458 0.48962 0.0
C786 C 0.48611 0.07502 0.55108 0.0
C787 C 0.4691 0.01914 0.54105 0.0
C788 C 0.50812 0.07958 0.53745 0.0
C789 C 0.51299 0.02969 0.51211 0.0
C790 C 0.49343 0.9801 0.49711 0.0
C791 C 0.47184 0.97438 0.51183 0.0
H792 H 0.98131 0.39094 0.06602 0.0
H793 H 0.95962 0.57947 1.00384 0.0
H794 H 1.01867 0.38088 0.04062 0.0
H795 H 0.99504 0.56626 0.97428 0.0
H796 H 0.07764 0.58924 0.97294 0.0
H797 H 0.03941 0.58631 0.99741 0.0
H798 H 0.04195 0.3672 0.99725 0.0
H799 H 0.0814 0.37139 0.97642 0.0
C800 C 0.98339 0.42767 0.0444 0.0
C801 C 0.96737 0.48566 0.03662 0.0
C802 C 1.00516 0.42252 0.03014 0.0
C803 C 1.01081 0.47435 0.00662 0.0
C804 C 0.9922 0.5269 0.99387 0.0
C805 C 0.97094 0.53304 0.00924 0.0
C806 C 0.07075 0.54082 0.98031 0.0
C807 C 0.08268 0.48072 0.97348 0.0
C808 C 0.04825 0.53875 0.99299 0.0
C809 C 0.03664 0.47635 0.9978 0.0
C810 C 0.05001 0.41635 0.99396 0.0
C811 C 0.07298 0.41864 0.98249 0.0
H812 H 0.0747 0.40994 0.46714 0.0
H813 H 0.08327 0.62669 0.47649 0.0
H814 H 0.03642 0.41644 0.49144 0.0
H815 H 0.04391 0.63475 0.49725 0.0
H816 H 0.98436 0.61458 0.5678 0.0
H817 H 1.0211 0.62154 0.54104 0.0
H818 H 0.99239 0.44364 0.46983 0.0
H819 H 0.95711 0.43358 0.50018 0.0
C820 C 0.06883 0.45874 0.4757 0.0
C821 C 0.08217 0.51756 0.47065 0.0
C822 C 0.04634 0.46299 0.48832 0.0
C823 C 0.03619 0.52645 0.49494 0.0
C824 C 0.05085 0.58485 0.49261 0.0
C825 C 0.07376 0.58027 0.48113 0.0
C826 C 0.9852 0.57897 0.54492 0.0
C827 C 0.968 0.52337 0.53627 0.0
C828 C 1.0066 0.5823 0.52982 0.0
C829 C 1.01066 0.53125 0.50451 0.0
C830 C 0.99079 0.48199 0.49082 0.0
C831 C 0.96978 0.47766 0.50691 0.0
loop_
_geom_bond_atom_site_label_1
_geom_bond_atom_site_label_2
_geom_bond_distance
_geom_bond_site_symmetry_2
_ccdc_geom_bond_type
Zn0 N4 2.020 . S
Zn0 O8 2.019 . S
Zn0 N10 2.119 . S
Zn0 O18 1.975 . S
C1 N2 1.334 . S
C1 N5 1.336 . S
N2 C1 1.334 . S
N2 C3 1.334 . S
C3 N2 1.334 . S
C3 N4 1.336 . S
N4 Zn0 2.020 . S
N4 C3 1.336 . S
N4 N5 1.354 . S
N5 C1 1.336 . S
N5 N4 1.354 . S
N5 Zn9 2.020 . S
C6 O7 1.244 . S
C6 O30 1.257 . S
O7 C6 1.244 . S
O8 Zn0 2.019 . S
O8 C28 1.257 . S
Zn9 N5 2.020 . S
Zn9 O16 1.975 . S
Zn9 N25 2.119 1_545 S
Zn9 O30 2.019 1_554 S
N10 Zn0 2.119 . S
N10 C12 1.334 . S
N10 C13 1.328 . S
C11 C12 1.391 . S
C11 N14 1.329 . S
C11 H32 0.930 . S
C12 N10 1.334 . S
C12 C11 1.391 . S
C12 H19 0.930 . S
C13 N10 1.328 . S
C13 C15 1.392 . S
C13 H20 0.930 . S
N14 C11 1.329 . S
N14 C15 1.331 . S
C15 C13 1.392 . S
C15 N14 1.331 . S
O16 Zn9 1.975 . S
O16 C17 1.252 . S
C17 O16 1.252 . S
C17 O18 1.252 . S
O18 Zn0 1.975 . S
O18 C17 1.252 . S
H19 C12 0.930 . S
H20 C13 0.930 . S
C21 C22 1.392 . S
C21 N25 1.328 . S
C21 H27 0.930 1_554 S
C22 C21 1.392 . S
C22 N26 1.331 . S
C23 C24 1.391 . S
C23 N26 1.329 . S
C23 H33 0.930 . S
C24 C23 1.391 . S
C24 N25 1.334 . S
C24 H31 0.930 . S
N25 Zn9 2.119 1_565 S
N25 C21 1.328 . S
N25 C24 1.334 . S
N26 C22 1.331 . S
N26 C23 1.329 . S
H27 C21 0.930 1_556 S
C28 O8 1.257 . S
C28 O29 1.244 . S
O29 C28 1.244 . S
O30 C6 1.257 . S
O30 Zn9 2.019 1_556 S
H31 C24 0.930 . S
H32 C11 0.930 . S
H33 C23 0.930 . S
Zn34 N38 2.020 . S
Zn34 O42 2.019 . S
Zn34 N44 2.119 1_545 S
Zn34 O52 1.975 . S
C35 N36 1.334 . S
C35 N39 1.336 . S
N36 C35 1.334 . S
N36 C37 1.334 . S
C37 N36 1.334 . S
C37 N38 1.336 . S
N38 Zn34 2.020 . S
N38 C37 1.336 . S
N38 N39 1.354 . S
N39 C35 1.336 . S
N39 N38 1.354 . S
N39 Zn43 2.020 . S
C40 O41 1.244 . S
C40 O64 1.257 . S
O41 C40 1.244 . S
O42 Zn34 2.019 . S
O42 C62 1.257 . S
Zn43 N39 2.020 . S
Zn43 O50 1.975 . S
Zn43 N59 2.119 . S
Zn43 O64 2.019 . S
N44 Zn34 2.119 1_565 S
N44 C46 1.334 . S
N44 C47 1.328 . S
C45 C46 1.391 . S
C45 N48 1.329 . S
C45 H66 0.930 . S
C46 N44 1.334 . S
C46 C45 1.391 . S
C46 H53 0.930 . S
C47 N44 1.328 . S
C47 C49 1.392 . S
C47 H54 0.930 . S
N48 C45 1.329 . S
N48 C49 1.331 . S
C49 C47 1.392 . S
C49 N48 1.331 . S
O50 Zn43 1.975 . S
O50 C51 1.252 . S
C51 O50 1.252 . S
C51 O52 1.252 . S
O52 Zn34 1.975 . S
O52 C51 1.252 . S
H53 C46 0.930 . S
H54 C47 0.930 . S
C55 C56 1.392 . S
C55 N59 1.328 . S
C55 H61 0.930 . S
C56 C55 1.392 . S
C56 N60 1.331 . S
C57 C58 1.391 . S
C57 N60 1.329 . S
C57 H67 0.930 . S
C58 C57 1.391 . S
C58 N59 1.334 . S
C58 H65 0.930 . S
N59 Zn43 2.119 . S
N59 C55 1.328 . S
N59 C58 1.334 . S
N60 C56 1.331 . S
N60 C57 1.329 . S
H61 C55 0.930 . S
C62 O42 1.257 . S
C62 O63 1.244 . S
O63 C62 1.244 . S
O64 C40 1.257 . S
O64 Zn43 2.019 . S
H65 C58 0.930 . S
H66 C45 0.930 . S
H67 C57 0.930 . S
Zn68 N72 2.020 . S
Zn68 O76 2.019 . S
Zn68 N78 2.119 . S
Zn68 O86 1.975 . S
C69 N70 1.334 . S
C69 N73 1.336 . S
N70 C69 1.334 . S
N70 C71 1.334 . S
C71 N70 1.334 . S
C71 N72 1.336 . S
N72 Zn68 2.020 . S
N72 C71 1.336 . S
N72 N73 1.354 . S
N73 C69 1.336 . S
N73 N72 1.354 . S
N73 Zn77 2.020 . S
C74 O75 1.244 . S
C74 O98 1.257 . S
O75 C74 1.244 . S
O76 Zn68 2.019 . S
O76 C96 1.257 . S
Zn77 N73 2.020 . S
Zn77 O84 1.975 . S
Zn77 N93 2.119 1_565 S
Zn77 O98 2.019 1_556 S
N78 Zn68 2.119 . S
N78 C80 1.334 . S
N78 C81 1.328 . S
C79 C80 1.391 . S
C79 N82 1.329 . S
C79 H100 0.930 . S
C80 N78 1.334 . S
C80 C79 1.391 . S
C80 H87 0.930 . S
C81 N78 1.328 . S
C81 C83 1.392 . S
C81 H88 0.930 . S
N82 C79 1.329 . S
N82 C83 1.331 . S
C83 C81 1.392 . S
C83 N82 1.331 . S
O84 Zn77 1.975 . S
O84 C85 1.252 . S
C85 O84 1.252 . S
C85 O86 1.252 . S
O86 Zn68 1.975 . S
O86 C85 1.252 . S
H87 C80 0.930 . S
H88 C81 0.930 . S
C89 C90 1.392 . S
C89 N93 1.328 . S
C89 H95 0.930 1_556 S
C90 C89 1.392 . S
C90 N94 1.331 . S
C91 C92 1.391 . S
C91 N94 1.329 . S
C91 H101 0.930 . S
C92 C91 1.391 . S
C92 N93 1.334 . S
C92 H99 0.930 . S
N93 Zn77 2.119 1_545 S
N93 C89 1.328 . S
N93 C92 1.334 . S
N94 C90 1.331 . S
N94 C91 1.329 . S
H95 C89 0.930 1_554 S
C96 O76 1.257 . S
C96 O97 1.244 . S
O97 C96 1.244 . S
O98 C74 1.257 . S
O98 Zn77 2.019 1_554 S
H99 C92 0.930 . S
H100 C79 0.930 . S
H101 C91 0.930 . S
Zn102 N106 2.020 . S
Zn102 O110 2.019 . S
Zn102 N112 2.119 . S
Zn102 O120 1.975 . S
C103 N104 1.334 . S
C103 N107 1.336 . S
N104 C103 1.334 . S
N104 C105 1.334 . S
C105 N104 1.334 . S
C105 N106 1.336 . S
N106 Zn102 2.020 . S
N106 C105 1.336 . S
N106 N107 1.354 . S
N107 C103 1.336 . S
N107 N106 1.354 . S
N107 Zn111 2.020 . S
C108 O109 1.244 . S
C108 O132 1.257 . S
O109 C108 1.244 . S
O110 Zn102 2.019 . S
O110 C130 1.257 . S
Zn111 N107 2.020 . S
Zn111 O118 1.975 . S
Zn111 N127 2.119 1_565 S
Zn111 O132 2.019 . S
N112 Zn102 2.119 . S
N112 C114 1.334 . S
N112 C115 1.328 . S
C113 C114 1.391 . S
C113 N116 1.329 . S
C113 H134 0.930 . S
C114 N112 1.334 . S
C114 C113 1.391 . S
C114 H121 0.930 . S
C115 N112 1.328 . S
C115 C117 1.392 . S
C115 H122 0.930 . S
N116 C113 1.329 . S
N116 C117 1.331 . S
C117 C115 1.392 . S
C117 N116 1.331 . S
O118 Zn111 1.975 . S
O118 C119 1.252 . S
C119 O118 1.252 . S
C119 O120 1.252 . S
O120 Zn102 1.975 . S
O120 C119 1.252 . S
H121 C114 0.930 . S
H122 C115 0.930 . S
C123 C124 1.392 . S
C123 N127 1.328 . S
C123 H129 0.930 . S
C124 C123 1.392 . S
C124 N128 1.331 . S
C125 C126 1.391 . S
C125 N128 1.329 . S
C125 H135 0.930 . S
C126 C125 1.391 . S
C126 N127 1.334 . S
C126 H133 0.930 . S
N127 Zn111 2.119 1_545 S
N127 C123 1.328 . S
N127 C126 1.334 . S
N128 C124 1.331 . S
N128 C125 1.329 . S
H129 C123 0.930 . S
C130 O110 1.257 . S
C130 O131 1.244 . S
O131 C130 1.244 . S
O132 C108 1.257 . S
O132 Zn111 2.019 . S
H133 C126 0.930 . S
H134 C113 0.930 . S
H135 C125 0.930 . S
Zn136 N140 2.020 . S
Zn136 O144 2.019 . S
Zn136 N146 2.119 . S
Zn136 O154 1.975 . S
C137 N138 1.334 . S
C137 N141 1.336 . S
N138 C137 1.334 . S
N138 C139 1.334 . S
C139 N138 1.334 . S
C139 N140 1.336 . S
N140 Zn136 2.020 . S
N140 C139 1.336 . S
N140 N141 1.354 . S
N141 C137 1.336 . S
N141 N140 1.354 . S
N141 Zn145 2.020 . S
C142 O143 1.244 . S
C142 O166 1.257 . S
O143 C142 1.244 . S
O144 Zn136 2.019 . S
O144 C164 1.257 . S
Zn145 N141 2.020 . S
Zn145 O152 1.975 . S
Zn145 N161 2.119 . S
Zn145 O166 2.019 1_554 S
N146 Zn136 2.119 . S
N146 C148 1.334 . S
N146 C149 1.328 . S
C147 C148 1.391 . S
C147 N150 1.329 . S
C147 H168 0.930 . S
C148 N146 1.334 . S
C148 C147 1.391 . S
C148 H155 0.930 . S
C149 N146 1.328 . S
C149 C151 1.392 . S
C149 H156 0.930 . S
N150 C147 1.329 . S
N150 C151 1.331 . S
C151 C149 1.392 . S
C151 N150 1.331 . S
O152 Zn145 1.975 . S
O152 C153 1.252 . S
C153 O152 1.252 . S
C153 O154 1.252 . S
O154 Zn136 1.975 . S
O154 C153 1.252 . S
H155 C148 0.930 . S
H156 C149 0.930 . S
C157 C158 1.392 . S
C157 N161 1.328 . S
C157 H163 0.930 1_554 S
C158 C157 1.392 . S
C158 N162 1.331 . S
C159 C160 1.391 . S
C159 N162 1.329 . S
C159 H169 0.930 . S
C160 C159 1.391 . S
C160 N161 1.334 . S
C160 H167 0.930 . S
N161 Zn145 2.119 . S
N161 C157 1.328 . S
N161 C160 1.334 . S
N162 C158 1.331 . S
N162 C159 1.329 . S
H163 C157 0.930 1_556 S
C164 O144 1.257 . S
C164 O165 1.244 . S
O165 C164 1.244 . S
O166 C142 1.257 . S
O166 Zn145 2.019 1_556 S
H167 C160 0.930 . S
H168 C147 0.930 . S
H169 C159 0.930 . S
Zn170 N174 2.020 . S
Zn170 O178 2.019 . S
Zn170 N180 2.119 . S
Zn170 O188 1.975 . S
C171 N172 1.334 . S
C171 N175 1.336 . S
N172 C171 1.334 . S
N172 C173 1.334 . S
C173 N172 1.334 . S
C173 N174 1.336 . S
N174 Zn170 2.020 . S
N174 C173 1.336 . S
N174 N175 1.354 . S
N175 C171 1.336 . S
N175 N174 1.354 . S
N175 Zn179 2.020 . S
C176 O177 1.244 . S
C176 O200 1.257 . S
O177 C176 1.244 . S
O178 Zn170 2.019 . S
O178 C198 1.257 . S
Zn179 N175 2.020 . S
Zn179 O186 1.975 . S
Zn179 N195 2.119 . S
Zn179 O200 2.019 . S
N180 Zn170 2.119 . S
N180 C182 1.334 . S
N180 C183 1.328 . S
C181 C182 1.391 . S
C181 N184 1.329 . S
C181 H202 0.930 . S
C182 N180 1.334 . S
C182 C181 1.391 . S
C182 H189 0.930 . S
C183 N180 1.328 . S
C183 C185 1.392 . S
C183 H190 0.930 . S
N184 C181 1.329 . S
N184 C185 1.331 . S
C185 C183 1.392 . S
C185 N184 1.331 . S
O186 Zn179 1.975 . S
O186 C187 1.252 . S
C187 O186 1.252 . S
C187 O188 1.252 . S
O188 Zn170 1.975 . S
O188 C187 1.252 . S
H189 C182 0.930 . S
H190 C183 0.930 . S
C191 C192 1.392 . S
C191 N195 1.328 . S
C191 H197 0.930 . S
C192 C191 1.392 . S
C192 N196 1.331 . S
C193 C194 1.391 . S
C193 N196 1.329 . S
C193 H203 0.930 . S
C194 C193 1.391 . S
C194 N195 1.334 . S
C194 H201 0.930 . S
N195 Zn179 2.119 . S
N195 C191 1.328 . S
N195 C194 1.334 . S
N196 C192 1.331 . S
N196 C193 1.329 . S
H197 C191 0.930 . S
C198 O178 1.257 . S
C198 O199 1.244 . S
O199 C198 1.244 . S
O200 C176 1.257 . S
O200 Zn179 2.019 . S
H201 C194 0.930 . S
H202 C181 0.930 . S
H203 C193 0.930 . S
Zn204 N208 2.020 . S
Zn204 O212 2.019 . S
Zn204 N214 2.119 . S
Zn204 O222 1.975 . S
C205 N206 1.334 . S
C205 N209 1.336 . S
N206 C205 1.334 . S
N206 C207 1.334 . S
C207 N206 1.334 . S
C207 N208 1.336 . S
N208 Zn204 2.020 . S
N208 C207 1.336 . S
N208 N209 1.354 . S
N209 C205 1.336 . S
N209 N208 1.354 . S
N209 Zn213 2.020 . S
C210 O211 1.244 . S
C210 O234 1.257 . S
O211 C210 1.244 . S
O212 Zn204 2.019 . S
O212 C232 1.257 . S
Zn213 N209 2.020 . S
Zn213 O220 1.975 . S
Zn213 N229 2.119 . S
Zn213 O234 2.019 1_556 S
N214 Zn204 2.119 . S
N214 C216 1.334 . S
N214 C217 1.328 . S
C215 C216 1.391 . S
C215 N218 1.329 . S
C215 H236 0.930 . S
C216 N214 1.334 . S
C216 C215 1.391 . S
C216 H223 0.930 . S
C217 N214 1.328 . S
C217 C219 1.392 . S
C217 H224 0.930 . S
N218 C215 1.329 . S
N218 C219 1.331 . S
C219 C217 1.392 . S
C219 N218 1.331 . S
O220 Zn213 1.975 . S
O220 C221 1.252 . S
C221 O220 1.252 . S
C221 O222 1.252 . S
O222 Zn204 1.975 . S
O222 C221 1.252 . S
H223 C216 0.930 . S
H224 C217 0.930 . S
C225 C226 1.392 . S
C225 N229 1.328 . S
C225 H231 0.930 1_556 S
C226 C225 1.392 . S
C226 N230 1.331 . S
C227 C228 1.391 . S
C227 N230 1.329 . S
C227 H237 0.930 . S
C228 C227 1.391 . S
C228 N229 1.334 . S
C228 H235 0.930 . S
N229 Zn213 2.119 . S
N229 C225 1.328 . S
N229 C228 1.334 . S
N230 C226 1.331 . S
N230 C227 1.329 . S
H231 C225 0.930 1_554 S
C232 O212 1.257 . S
C232 O233 1.244 . S
O233 C232 1.244 . S
O234 C210 1.257 . S
O234 Zn213 2.019 1_554 S
H235 C228 0.930 . S
H236 C215 0.930 . S
H237 C227 0.930 . S
Zn238 N242 2.020 . S
Zn238 O246 2.019 . S
Zn238 N248 2.119 . S
Zn238 O256 1.975 . S
C239 N240 1.334 . S
C239 N243 1.336 . S
N240 C239 1.334 . S
N240 C241 1.334 . S
C241 N240 1.334 . S
C241 N242 1.336 . S
N242 Zn238 2.020 . S
N242 C241 1.336 . S
N242 N243 1.354 . S
N243 C239 1.336 . S
N243 N242 1.354 . S
N243 Zn247 2.020 . S
C244 O245 1.244 . S
C244 O268 1.257 . S
O245 C244 1.244 . S
O246 Zn238 2.019 . S
O246 C266 1.257 . S
Zn247 N243 2.020 . S
Zn247 O254 1.975 . S
Zn247 N263 2.119 . S
Zn247 O268 2.019 . S
N248 Zn238 2.119 . S
N248 C250 1.334 . S
N248 C251 1.328 . S
C249 C250 1.391 . S
C249 N252 1.329 . S
C249 H270 0.930 . S
C250 N248 1.334 . S
C250 C249 1.391 . S
C250 H257 0.930 . S
C251 N248 1.328 . S
C251 C253 1.392 . S
C251 H258 0.930 . S
N252 C249 1.329 . S
N252 C253 1.331 . S
C253 C251 1.392 . S
C253 N252 1.331 . S
O254 Zn247 1.975 . S
O254 C255 1.252 . S
C255 O254 1.252 . S
C255 O256 1.252 . S
O256 Zn238 1.975 . S
O256 C255 1.252 . S
H257 C250 0.930 . S
H258 C251 0.930 . S
C259 C260 1.392 . S
C259 N263 1.328 . S
C259 H265 0.930 . S
C260 C259 1.392 . S
C260 N264 1.331 . S
C261 C262 1.391 . S
C261 N264 1.329 . S
C261 H271 0.930 . S
C262 C261 1.391 . S
C262 N263 1.334 . S
C262 H269 0.930 . S
N263 Zn247 2.119 . S
N263 C259 1.328 . S
N263 C262 1.334 . S
N264 C260 1.331 . S
N264 C261 1.329 . S
H265 C259 0.930 . S
C266 O246 1.257 . S
C266 O267 1.244 . S
O267 C266 1.244 . S
O268 C244 1.257 . S
O268 Zn247 2.019 . S
H269 C262 0.930 . S
H270 C249 0.930 . S
H271 C261 0.930 . S
H272 C280 0.950 . S
H273 C285 0.950 . S
H274 C282 0.950 . S
H275 C284 0.950 . S
H276 C286 0.950 . S
H277 C288 0.950 . S
H278 C290 0.950 . S
H279 C291 0.950 . S
C280 H272 0.950 . S
C280 C281 1.386 . S
C280 C282 1.391 . S
C281 C280 1.386 . S
C281 C285 1.393 . S
C282 H274 0.950 . S
C282 C280 1.391 . S
C282 C283 1.400 . S
C283 C282 1.400 . S
C283 C284 1.398 . S
C283 C289 1.491 . S
C284 H275 0.950 . S
C284 C283 1.398 . S
C284 C285 1.391 . S
C285 H273 0.950 . S
C285 C281 1.393 . S
C285 C284 1.391 . S
C286 H276 0.950 . S
C286 C287 1.386 . S
C286 C288 1.391 . S
C287 C286 1.386 . S
C287 C291 1.393 . S
C288 H277 0.950 . S
C288 C286 1.391 . S
C288 C289 1.400 . S
C289 C283 1.491 . S
C289 C288 1.400 . S
C289 C290 1.398 . S
C290 H278 0.950 . S
C290 C289 1.398 . S
C290 C291 1.391 . S
C291 H279 0.950 . S
C291 C287 1.393 . S
C291 C290 1.391 . S
H292 C300 0.950 . S
H293 C305 0.950 . S
H294 C302 0.950 . S
H295 C304 0.950 . S
H296 C306 0.950 . S
H297 C308 0.950 . S
H298 C310 0.950 . S
H299 C311 0.950 . S
C300 H292 0.950 . S
C300 C301 1.386 . S
C300 C302 1.391 . S
C301 C300 1.386 . S
C301 C305 1.393 . S
C302 H294 0.950 . S
C302 C300 1.391 . S
C302 C303 1.400 . S
C303 C302 1.400 . S
C303 C304 1.398 . S
C303 C309 1.491 . S
C304 H295 0.950 . S
C304 C303 1.398 . S
C304 C305 1.391 . S
C305 H293 0.950 . S
C305 C301 1.393 . S
C305 C304 1.391 . S
C306 H296 0.950 . S
C306 C307 1.386 . S
C306 C308 1.391 . S
C307 C306 1.386 . S
C307 C311 1.393 . S
C308 H297 0.950 . S
C308 C306 1.391 . S
C308 C309 1.400 . S
C309 C303 1.491 . S
C309 C308 1.400 . S
C309 C310 1.398 . S
C310 H298 0.950 . S
C310 C309 1.398 . S
C310 C311 1.391 . S
C311 H299 0.950 . S
C311 C307 1.393 . S
C311 C310 1.391 . S
H312 C320 0.950 . S
H313 C325 0.950 . S
H314 C322 0.950 . S
H315 C324 0.950 . S
H316 C326 0.950 . S
H317 C328 0.950 . S
H318 C330 0.950 . S
H319 C331 0.950 . S
C320 H312 0.950 . S
C320 C321 1.386 . S
C320 C322 1.391 . S
C321 C320 1.386 . S
C321 C325 1.393 . S
C322 H314 0.950 . S
C322 C320 1.391 . S
C322 C323 1.400 . S
C323 C322 1.400 . S
C323 C324 1.398 . S
C323 C329 1.491 1_655 S
C324 H315 0.950 . S
C324 C323 1.398 . S
C324 C325 1.391 . S
C325 H313 0.950 . S
C325 C321 1.393 . S
C325 C324 1.391 . S
C326 H316 0.950 . S
C326 C327 1.386 . S
C326 C328 1.391 . S
C327 C326 1.386 . S
C327 C331 1.393 . S
C328 H317 0.950 . S
C328 C326 1.391 . S
C328 C329 1.400 . S
C329 C323 1.491 1_455 S
C329 C328 1.400 . S
C329 C330 1.398 . S
C330 H318 0.950 . S
C330 C329 1.398 . S
C330 C331 1.391 . S
C331 H319 0.950 . S
C331 C327 1.393 . S
C331 C330 1.391 . S
H332 C340 0.950 . S
H333 C345 0.950 . S
H334 C342 0.950 . S
H335 C344 0.950 1_655 S
H336 C346 0.950 . S
H337 C348 0.950 . S
H338 C350 0.950 1_455 S
H339 C351 0.950 . S
C340 H332 0.950 . S
C340 C341 1.386 . S
C340 C342 1.391 . S
C341 C340 1.386 . S
C341 C345 1.393 . S
C342 H334 0.950 . S
C342 C340 1.391 . S
C342 C343 1.400 . S
C343 C342 1.400 . S
C343 C344 1.398 . S
C343 C349 1.491 1_455 S
C344 H335 0.950 1_455 S
C344 C343 1.398 . S
C344 C345 1.391 . S
C345 H333 0.950 . S
C345 C341 1.393 . S
C345 C344 1.391 . S
C346 H336 0.950 . S
C346 C347 1.386 . S
C346 C348 1.391 . S
C347 C346 1.386 . S
C347 C351 1.393 . S
C348 H337 0.950 . S
C348 C346 1.391 . S
C348 C349 1.400 . S
C349 C343 1.491 1_655 S
C349 C348 1.400 . S
C349 C350 1.398 . S
C350 H338 0.950 1_655 S
C350 C349 1.398 . S
C350 C351 1.391 . S
C351 H339 0.950 . S
C351 C347 1.393 . S
C351 C350 1.391 . S
H352 C360 0.950 1_556 S
H353 C365 0.950 . S
H354 C362 0.950 . S
H355 C364 0.950 . S
H356 C366 0.950 . S
H357 C368 0.950 . S
H358 C370 0.950 . S
H359 C371 0.950 . S
C360 H352 0.950 1_554 S
C360 C361 1.386 . S
C360 C362 1.391 . S
C361 C360 1.386 . S
C361 C365 1.393 . S
C362 H354 0.950 . S
C362 C360 1.391 . S
C362 C363 1.400 . S
C363 C362 1.400 . S
C363 C364 1.398 . S
C363 C369 1.491 . S
C364 H355 0.950 . S
C364 C363 1.398 . S
C364 C365 1.391 . S
C365 H353 0.950 . S
C365 C361 1.393 . S
C365 C364 1.391 . S
C366 H356 0.950 . S
C366 C367 1.386 . S
C366 C368 1.391 . S
C367 C366 1.386 . S
C367 C371 1.393 . S
C368 H357 0.950 . S
C368 C366 1.391 . S
C368 C369 1.400 . S
C369 C363 1.491 . S
C369 C368 1.400 . S
C369 C370 1.398 . S
C370 H358 0.950 . S
C370 C369 1.398 . S
C370 C371 1.391 . S
C371 H359 0.950 . S
C371 C367 1.393 . S
C371 C370 1.391 . S
H372 C380 0.950 . S
H373 C385 0.950 . S
H374 C382 0.950 . S
H375 C384 0.950 . S
H376 C386 0.950 . S
H377 C388 0.950 . S
H378 C390 0.950 . S
H379 C391 0.950 . S
C380 H372 0.950 . S
C380 C381 1.386 . S
C380 C382 1.391 . S
C381 C380 1.386 . S
C381 C385 1.393 . S
C382 H374 0.950 . S
C382 C380 1.391 . S
C382 C383 1.400 . S
C383 C382 1.400 . S
C383 C384 1.398 . S
C383 C389 1.491 . S
C384 H375 0.950 . S
C384 C383 1.398 . S
C384 C385 1.391 . S
C385 H373 0.950 . S
C385 C381 1.393 . S
C385 C384 1.391 . S
C386 H376 0.950 . S
C386 C387 1.386 . S
C386 C388 1.391 . S
C387 C386 1.386 . S
C387 C391 1.393 . S
C388 H377 0.950 . S
C388 C386 1.391 . S
C388 C389 1.400 . S
C389 C383 1.491 . S
C389 C388 1.400 . S
C389 C390 1.398 . S
C390 H378 0.950 . S
C390 C389 1.398 . S
C390 C391 1.391 . S
C391 H379 0.950 . S
C391 C387 1.393 . S
C391 C390 1.391 . S
H392 C400 0.950 . S
H393 C405 0.950 . S
H394 C402 0.950 . S
H395 C404 0.950 . S
H396 C406 0.950 . S
H397 C408 0.950 . S
H398 C410 0.950 1_554 S
H399 C411 0.950 . S
C400 H392 0.950 . S
C400 C401 1.386 . S
C400 C402 1.391 . S
C401 C400 1.386 . S
C401 C405 1.393 . S
C402 H394 0.950 . S
C402 C400 1.391 . S
C402 C403 1.400 . S
C403 C402 1.400 . S
C403 C404 1.398 . S
C403 C409 1.491 . S
C404 H395 0.950 . S
C404 C403 1.398 . S
C404 C405 1.391 . S
C405 H393 0.950 . S
C405 C401 1.393 . S
C405 C404 1.391 . S
C406 H396 0.950 . S
C406 C407 1.386 . S
C406 C408 1.391 . S
C407 C406 1.386 . S
C407 C411 1.393 1_556 S
C408 H397 0.950 . S
C408 C406 1.391 . S
C408 C409 1.400 . S
C409 C403 1.491 . S
C409 C408 1.400 . S
C409 C410 1.398 . S
C410 H398 0.950 1_556 S
C410 C409 1.398 . S
C410 C411 1.391 1_556 S
C411 H399 0.950 . S
C411 C407 1.393 1_554 S
C411 C410 1.391 1_554 S
H412 C420 0.950 . S
H413 C425 0.950 . S
H414 C422 0.950 . S
H415 C424 0.950 . S
H416 C426 0.950 . S
H417 C428 0.950 . S
H418 C430 0.950 . S
H419 C431 0.950 . S
C420 H412 0.950 . S
C420 C421 1.386 . S
C420 C422 1.391 . S
C421 C420 1.386 . S
C421 C425 1.393 . S
C422 H414 0.950 . S
C422 C420 1.391 . S
C422 C423 1.400 . S
C423 C422 1.400 . S
C423 C424 1.398 . S
C423 C429 1.491 . S
C424 H415 0.950 . S
C424 C423 1.398 . S
C424 C425 1.391 . S
C425 H413 0.950 . S
C425 C421 1.393 . S
C425 C424 1.391 . S
C426 H416 0.950 . S
C426 C427 1.386 . S
C426 C428 1.391 . S
C427 C426 1.386 . S
C427 C431 1.393 . S
C428 H417 0.950 . S
C428 C426 1.391 . S
C428 C429 1.400 . S
C429 C423 1.491 . S
C429 C428 1.400 . S
C429 C430 1.398 . S
C430 H418 0.950 . S
C430 C429 1.398 . S
C430 C431 1.391 . S
C431 H419 0.950 . S
C431 C427 1.393 . S
C431 C430 1.391 . S
H432 C440 0.950 . S
H433 C445 0.950 . S
H434 C442 0.950 . S
H435 C444 0.950 . S
H436 C446 0.950 . S
H437 C448 0.950 . S
H438 C450 0.950 . S
H439 C451 0.950 . S
C440 H432 0.950 . S
C440 C441 1.386 . S
C440 C442 1.391 . S
C441 C440 1.386 . S
C441 C445 1.393 . S
C442 H434 0.950 . S
C442 C440 1.391 . S
C442 C443 1.400 . S
C443 C442 1.400 . S
C443 C444 1.398 . S
C443 C449 1.491 . S
C444 H435 0.950 . S
C444 C443 1.398 . S
C444 C445 1.391 . S
C445 H433 0.950 . S
C445 C441 1.393 . S
C445 C444 1.391 . S
C446 H436 0.950 . S
C446 C447 1.386 . S
C446 C448 1.391 1_565 S
C447 C446 1.386 . S
C447 C451 1.393 . S
C448 H437 0.950 . S
C448 C446 1.391 1_545 S
C448 C449 1.400 . S
C449 C443 1.491 . S
C449 C448 1.400 . S
C449 C450 1.398 . S
C450 H438 0.950 . S
C450 C449 1.398 . S
C450 C451 1.391 1_545 S
C451 H439 0.950 . S
C451 C447 1.393 . S
C451 C450 1.391 1_565 S
H452 C460 0.950 . S
H453 C465 0.950 . S
H454 C462 0.950 . S
H455 C464 0.950 . S
H456 C466 0.950 . S
H457 C468 0.950 . S
H458 C470 0.950 . S
H459 C471 0.950 . S
C460 H452 0.950 . S
C460 C461 1.386 . S
C460 C462 1.391 . S
C461 C460 1.386 . S
C461 C465 1.393 . S
C462 H454 0.950 . S
C462 C460 1.391 . S
C462 C463 1.400 . S
C463 C462 1.400 . S
C463 C464 1.398 . S
C463 C469 1.491 . S
C464 H455 0.950 . S
C464 C463 1.398 . S
C464 C465 1.391 . S
C465 H453 0.950 . S
C465 C461 1.393 . S
C465 C464 1.391 . S
C466 H456 0.950 . S
C466 C467 1.386 . S
C466 C468 1.391 1_565 S
C467 C466 1.386 . S
C467 C471 1.393 . S
C468 H457 0.950 . S
C468 C466 1.391 1_545 S
C468 C469 1.400 . S
C469 C463 1.491 . S
C469 C468 1.400 . S
C469 C470 1.398 . S
C470 H458 0.950 . S
C470 C469 1.398 . S
C470 C471 1.391 1_545 S
C471 H459 0.950 . S
C471 C467 1.393 . S
C471 C470 1.391 1_565 S
H472 C480 0.950 . S
H473 C485 0.950 . S
H474 C482 0.950 . S
H475 C484 0.950 . S
H476 C486 0.950 . S
H477 C488 0.950 . S
H478 C490 0.950 . S
H479 C491 0.950 1_554 S
C480 H472 0.950 . S
C480 C481 1.386 . S
C480 C482 1.391 1_545 S
C481 C480 1.386 . S
C481 C485 1.393 . S
C482 H474 0.950 . S
C482 C480 1.391 1_565 S
C482 C483 1.400 . S
C483 C482 1.400 . S
C483 C484 1.398 . S
C483 C489 1.491 . S
C484 H475 0.950 . S
C484 C483 1.398 . S
C484 C485 1.391 1_565 S
C485 H473 0.950 . S
C485 C481 1.393 . S
C485 C484 1.391 1_545 S
C486 H476 0.950 . S
C486 C487 1.386 . S
C486 C488 1.391 . S
C487 C486 1.386 . S
C487 C491 1.393 . S
C488 H477 0.950 . S
C488 C486 1.391 . S
C488 C489 1.400 . S
C489 C483 1.491 . S
C489 C488 1.400 . S
C489 C490 1.398 . S
C490 H478 0.950 . S
C490 C489 1.398 . S
C490 C491 1.391 . S
C491 H479 0.950 1_556 S
C491 C487 1.393 . S
C491 C490 1.391 . S
H492 C500 0.950 . S
H493 C505 0.950 . S
H494 C502 0.950 . S
H495 C504 0.950 . S
H496 C506 0.950 . S
H497 C508 0.950 . S
H498 C510 0.950 . S
H499 C511 0.950 . S
C500 H492 0.950 . S
C500 C501 1.386 . S
C500 C502 1.391 . S
C501 C500 1.386 . S
C501 C505 1.393 . S
C502 H494 0.950 . S
C502 C500 1.391 . S
C502 C503 1.400 . S
C503 C502 1.400 . S
C503 C504 1.398 . S
C503 C509 1.491 . S
C504 H495 0.950 . S
C504 C503 1.398 . S
C504 C505 1.391 . S
C505 H493 0.950 . S
C505 C501 1.393 . S
C505 C504 1.391 . S
C506 H496 0.950 . S
C506 C507 1.386 . S
C506 C508 1.391 1_545 S
C507 C506 1.386 . S
C507 C511 1.393 . S
C508 H497 0.950 . S
C508 C506 1.391 1_565 S
C508 C509 1.400 . S
C509 C503 1.491 . S
C509 C508 1.400 . S
C509 C510 1.398 . S
C510 H498 0.950 . S
C510 C509 1.398 . S
C510 C511 1.391 1_565 S
C511 H499 0.950 . S
C511 C507 1.393 . S
C511 C510 1.391 1_545 S
H512 C520 0.950 . S
H513 C525 0.950 . S
H514 C522 0.950 . S
H515 C524 0.950 . S
H516 C526 0.950 . S
H517 C528 0.950 . S
H518 C530 0.950 . S
H519 C531 0.950 . S
C520 H512 0.950 . S
C520 C521 1.386 . S
C520 C522 1.391 . S
C521 C520 1.386 . S
C521 C525 1.393 . S
C522 H514 0.950 . S
C522 C520 1.391 . S
C522 C523 1.400 . S
C523 C522 1.400 . S
C523 C524 1.398 . S
C523 C529 1.491 1_554 S
C524 H515 0.950 . S
C524 C523 1.398 . S
C524 C525 1.391 . S
C525 H513 0.950 . S
C525 C521 1.393 . S
C525 C524 1.391 . S
C526 H516 0.950 . S
C526 C527 1.386 . S
C526 C528 1.391 . S
C527 C526 1.386 . S
C527 C531 1.393 . S
C528 H517 0.950 . S
C528 C526 1.391 . S
C528 C529 1.400 . S
C529 C523 1.491 1_556 S
C529 C528 1.400 . S
C529 C530 1.398 . S
C530 H518 0.950 . S
C530 C529 1.398 . S
C530 C531 1.391 . S
C531 H519 0.950 . S
C531 C527 1.393 . S
C531 C530 1.391 . S
H532 C540 0.950 . S
H533 C545 0.950 . S
H534 C542 0.950 . S
H535 C544 0.950 . S
H536 C546 0.950 . S
H537 C548 0.950 . S
H538 C550 0.950 . S
H539 C551 0.950 . S
C540 H532 0.950 . S
C540 C541 1.386 . S
C540 C542 1.391 . S
C541 C540 1.386 . S
C541 C545 1.393 . S
C542 H534 0.950 . S
C542 C540 1.391 . S
C542 C543 1.400 . S
C543 C542 1.400 . S
C543 C544 1.398 . S
C543 C549 1.491 . S
C544 H535 0.950 . S
C544 C543 1.398 . S
C544 C545 1.391 . S
C545 H533 0.950 . S
C545 C541 1.393 . S
C545 C544 1.391 . S
C546 H536 0.950 . S
C546 C547 1.386 . S
C546 C548 1.391 . S
C547 C546 1.386 . S
C547 C551 1.393 . S
C548 H537 0.950 . S
C548 C546 1.391 . S
C548 C549 1.400 . S
C549 C543 1.491 . S
C549 C548 1.400 . S
C549 C550 1.398 . S
C550 H538 0.950 . S
C550 C549 1.398 . S
C550 C551 1.391 . S
C551 H539 0.950 . S
C551 C547 1.393 . S
C551 C550 1.391 . S
H552 C560 0.950 . S
H553 C565 0.950 . S
H554 C562 0.950 . S
H555 C564 0.950 . S
H556 C566 0.950 . S
H557 C568 0.950 . S
H558 C570 0.950 . S
H559 C571 0.950 . S
C560 H552 0.950 . S
C560 C561 1.386 1_554 S
C560 C562 1.391 . S
C561 C560 1.386 1_556 S
C561 C565 1.393 . S
C562 H554 0.950 . S
C562 C560 1.391 . S
C562 C563 1.400 1_554 S
C563 C562 1.400 1_556 S
C563 C564 1.398 . S
C563 C569 1.491 1_556 S
C564 H555 0.950 . S
C564 C563 1.398 . S
C564 C565 1.391 . S
C565 H553 0.950 . S
C565 C561 1.393 . S
C565 C564 1.391 . S
C566 H556 0.950 . S
C566 C567 1.386 1_556 S
C566 C568 1.391 . S
C567 C566 1.386 1_554 S
C567 C571 1.393 . S
C568 H557 0.950 . S
C568 C566 1.391 . S
C568 C569 1.400 1_556 S
C569 C563 1.491 1_554 S
C569 C568 1.400 1_554 S
C569 C570 1.398 . S
C570 H558 0.950 . S
C570 C569 1.398 . S
C570 C571 1.391 . S
C571 H559 0.950 . S
C571 C567 1.393 . S
C571 C570 1.391 . S
H572 C580 0.950 . S
H573 C585 0.950 . S
H574 C582 0.950 . S
H575 C584 0.950 . S
H576 C586 0.950 . S
H577 C588 0.950 . S
H578 C590 0.950 . S
H579 C591 0.950 . S
C580 H572 0.950 . S
C580 C581 1.386 . S
C580 C582 1.391 . S
C581 C580 1.386 . S
C581 C585 1.393 . S
C582 H574 0.950 . S
C582 C580 1.391 . S
C582 C583 1.400 . S
C583 C582 1.400 . S
C583 C584 1.398 . S
C583 C589 1.491 . S
C584 H575 0.950 . S
C584 C583 1.398 . S
C584 C585 1.391 . S
C585 H573 0.950 . S
C585 C581 1.393 . S
C585 C584 1.391 . S
C586 H576 0.950 . S
C586 C587 1.386 . S
C586 C588 1.391 . S
C587 C586 1.386 . S
C587 C591 1.393 . S
C588 H577 0.950 . S
C588 C586 1.391 . S
C588 C589 1.400 . S
C589 C583 1.491 . S
C589 C588 1.400 . S
C589 C590 1.398 . S
C590 H578 0.950 . S
C590 C589 1.398 . S
C590 C591 1.391 . S
C591 H579 0.950 . S
C591 C587 1.393 . S
C591 C590 1.391 . S
H592 C600 0.950 . S
H593 C605 0.950 . S
H594 C602 0.950 . S
H595 C604 0.950 . S
H596 C606 0.950 . S
H597 C608 0.950 1_545 S
H598 C610 0.950 . S
H599 C611 0.950 . S
C600 H592 0.950 . S
C600 C601 1.386 1_565 S
C600 C602 1.391 . S
C601 C600 1.386 1_545 S
C601 C605 1.393 . S
C602 H594 0.950 . S
C602 C600 1.391 . S
C602 C603 1.400 . S
C603 C602 1.400 . S
C603 C604 1.398 1_565 S
C603 C609 1.491 . S
C604 H595 0.950 . S
C604 C603 1.398 1_545 S
C604 C605 1.391 . S
C605 H593 0.950 . S
C605 C601 1.393 . S
C605 C604 1.391 . S
C606 H596 0.950 . S
C606 C607 1.386 . S
C606 C608 1.391 . S
C607 C606 1.386 . S
C607 C611 1.393 . S
C608 H597 0.950 1_565 S
C608 C606 1.391 . S
C608 C609 1.400 . S
C609 C603 1.491 . S
C609 C608 1.400 . S
C609 C610 1.398 . S
C610 H598 0.950 . S
C610 C609 1.398 . S
C610 C611 1.391 . S
C611 H599 0.950 . S
C611 C607 1.393 . S
C611 C610 1.391 . S
H612 C620 0.950 . S
H613 C625 0.950 . S
H614 C622 0.950 . S
H615 C624 0.950 . S
H616 C626 0.950 . S
H617 C628 0.950 . S
H618 C630 0.950 . S
H619 C631 0.950 . S
C620 H612 0.950 . S
C620 C621 1.386 . S
C620 C622 1.391 . S
C621 C620 1.386 . S
C621 C625 1.393 1_545 S
C622 H614 0.950 . S
C622 C620 1.391 . S
C622 C623 1.400 1_545 S
C623 C622 1.400 1_565 S
C623 C624 1.398 . S
C623 C629 1.491 . S
C624 H615 0.950 . S
C624 C623 1.398 . S
C624 C625 1.391 . S
C625 H613 0.950 . S
C625 C621 1.393 1_565 S
C625 C624 1.391 . S
C626 H616 0.950 . S
C626 C627 1.386 . S
C626 C628 1.391 . S
C627 C626 1.386 . S
C627 C631 1.393 . S
C628 H617 0.950 . S
C628 C626 1.391 . S
C628 C629 1.400 . S
C629 C623 1.491 . S
C629 C628 1.400 . S
C629 C630 1.398 . S
C630 H618 0.950 . S
C630 C629 1.398 . S
C630 C631 1.391 . S
C631 H619 0.950 . S
C631 C627 1.393 . S
C631 C630 1.391 . S
H632 C640 0.950 . S
H633 C645 0.950 . S
H634 C642 0.950 . S
H635 C644 0.950 1_565 S
H636 C646 0.950 . S
H637 C648 0.950 . S
H638 C650 0.950 . S
H639 C651 0.950 . S
C640 H632 0.950 . S
C640 C641 1.386 . S
C640 C642 1.391 . S
C641 C640 1.386 . S
C641 C645 1.393 . S
C642 H634 0.950 . S
C642 C640 1.391 . S
C642 C643 1.400 . S
C643 C642 1.400 . S
C643 C644 1.398 . S
C643 C649 1.491 . S
C644 H635 0.950 1_545 S
C644 C643 1.398 . S
C644 C645 1.391 . S
C645 H633 0.950 . S
C645 C641 1.393 . S
C645 C644 1.391 . S
C646 H636 0.950 . S
C646 C647 1.386 . S
C646 C648 1.391 . S
C647 C646 1.386 . S
C647 C651 1.393 1_565 S
C648 H637 0.950 . S
C648 C646 1.391 . S
C648 C649 1.400 1_565 S
C649 C643 1.491 . S
C649 C648 1.400 1_545 S
C649 C650 1.398 . S
C650 H638 0.950 . S
C650 C649 1.398 . S
C650 C651 1.391 . S
C651 H639 0.950 . S
C651 C647 1.393 1_545 S
C651 C650 1.391 . S
H652 C660 0.950 . S
H653 C665 0.950 . S
H654 C662 0.950 . S
H655 C664 0.950 . S
H656 C666 0.950 . S
H657 C668 0.950 . S
H658 C670 0.950 . S
H659 C671 0.950 . S
C660 H652 0.950 . S
C660 C661 1.386 . S
C660 C662 1.391 . S
C661 C660 1.386 . S
C661 C665 1.393 . S
C662 H654 0.950 . S
C662 C660 1.391 . S
C662 C663 1.400 1_565 S
C663 C662 1.400 1_545 S
C663 C664 1.398 . S
C663 C669 1.491 . S
C664 H655 0.950 . S
C664 C663 1.398 . S
C664 C665 1.391 1_545 S
C665 H653 0.950 . S
C665 C661 1.393 . S
C665 C664 1.391 1_565 S
C666 H656 0.950 . S
C666 C667 1.386 . S
C666 C668 1.391 . S
C667 C666 1.386 . S
C667 C671 1.393 . S
C668 H657 0.950 . S
C668 C666 1.391 . S
C668 C669 1.400 . S
C669 C663 1.491 . S
C669 C668 1.400 . S
C669 C670 1.398 . S
C670 H658 0.950 . S
C670 C669 1.398 . S
C670 C671 1.391 . S
C671 H659 0.950 . S
C671 C667 1.393 . S
C671 C670 1.391 . S
H672 C680 0.950 . S
H673 C685 0.950 . S
H674 C682 0.950 . S
H675 C684 0.950 . S
H676 C686 0.950 . S
H677 C688 0.950 . S
H678 C690 0.950 . S
H679 C691 0.950 . S
C680 H672 0.950 . S
C680 C681 1.386 . S
C680 C682 1.391 . S
C681 C680 1.386 . S
C681 C685 1.393 . S
C682 H674 0.950 . S
C682 C680 1.391 . S
C682 C683 1.400 . S
C683 C682 1.400 . S
C683 C684 1.398 . S
C683 C689 1.491 . S
C684 H675 0.950 . S
C684 C683 1.398 . S
C684 C685 1.391 . S
C685 H673 0.950 . S
C685 C681 1.393 . S
C685 C684 1.391 . S
C686 H676 0.950 . S
C686 C687 1.386 . S
C686 C688 1.391 . S
C687 C686 1.386 . S
C687 C691 1.393 . S
C688 H677 0.950 . S
C688 C686 1.391 . S
C688 C689 1.400 . S
C689 C683 1.491 . S
C689 C688 1.400 . S
C689 C690 1.398 . S
C690 H678 0.950 . S
C690 C689 1.398 . S
C690 C691 1.391 . S
C691 H679 0.950 . S
C691 C687 1.393 . S
C691 C690 1.391 . S
H692 C700 0.950 . S
H693 C705 0.950 . S
H694 C702 0.950 . S
H695 C704 0.950 . S
H696 C706 0.950 . S
H697 C708 0.950 . S
H698 C710 0.950 . S
H699 C711 0.950 . S
C700 H692 0.950 . S
C700 C701 1.386 . S
C700 C702 1.391 . S
C701 C700 1.386 . S
C701 C705 1.393 . S
C702 H694 0.950 . S
C702 C700 1.391 . S
C702 C703 1.400 . S
C703 C702 1.400 . S
C703 C704 1.398 . S
C703 C709 1.491 . S
C704 H695 0.950 . S
C704 C703 1.398 . S
C704 C705 1.391 . S
C705 H693 0.950 . S
C705 C701 1.393 . S
C705 C704 1.391 . S
C706 H696 0.950 . S
C706 C707 1.386 . S
C706 C708 1.391 . S
C707 C706 1.386 . S
C707 C711 1.393 . S
C708 H697 0.950 . S
C708 C706 1.391 . S
C708 C709 1.400 . S
C709 C703 1.491 . S
C709 C708 1.400 . S
C709 C710 1.398 . S
C710 H698 0.950 . S
C710 C709 1.398 . S
C710 C711 1.391 . S
C711 H699 0.950 . S
C711 C707 1.393 . S
C711 C710 1.391 . S
H712 C720 0.950 . S
H713 C725 0.950 . S
H714 C722 0.950 . S
H715 C724 0.950 . S
H716 C726 0.950 . S
H717 C728 0.950 . S
H718 C730 0.950 . S
H719 C731 0.950 . S
C720 H712 0.950 . S
C720 C721 1.386 . S
C720 C722 1.391 . S
C721 C720 1.386 . S
C721 C725 1.393 . S
C722 H714 0.950 . S
C722 C720 1.391 . S
C722 C723 1.400 . S
C723 C722 1.400 . S
C723 C724 1.398 . S
C723 C729 1.491 . S
C724 H715 0.950 . S
C724 C723 1.398 . S
C724 C725 1.391 . S
C725 H713 0.950 . S
C725 C721 1.393 . S
C725 C724 1.391 . S
C726 H716 0.950 . S
C726 C727 1.386 . S
C726 C728 1.391 . S
C727 C726 1.386 . S
C727 C731 1.393 . S
C728 H717 0.950 . S
C728 C726 1.391 . S
C728 C729 1.400 . S
C729 C723 1.491 . S
C729 C728 1.400 . S
C729 C730 1.398 . S
C730 H718 0.950 . S
C730 C729 1.398 . S
C730 C731 1.391 . S
C731 H719 0.950 . S
C731 C727 1.393 . S
C731 C730 1.391 . S
H732 C740 0.950 . S
H733 C745 0.950 . S
H734 C742 0.950 . S
H735 C744 0.950 . S
H736 C746 0.950 . S
H737 C748 0.950 . S
H738 C750 0.950 . S
H739 C751 0.950 . S
C740 H732 0.950 . S
C740 C741 1.386 . S
C740 C742 1.391 . S
C741 C740 1.386 . S
C741 C745 1.393 . S
C742 H734 0.950 . S
C742 C740 1.391 . S
C742 C743 1.400 . S
C743 C742 1.400 . S
C743 C744 1.398 . S
C743 C749 1.491 . S
C744 H735 0.950 . S
C744 C743 1.398 . S
C744 C745 1.391 . S
C745 H733 0.950 . S
C745 C741 1.393 . S
C745 C744 1.391 . S
C746 H736 0.950 . S
C746 C747 1.386 . S
C746 C748 1.391 . S
C747 C746 1.386 . S
C747 C751 1.393 . S
C748 H737 0.950 . S
C748 C746 1.391 . S
C748 C749 1.400 . S
C749 C743 1.491 . S
C749 C748 1.400 . S
C749 C750 1.398 . S
C750 H738 0.950 . S
C750 C749 1.398 . S
C750 C751 1.391 . S
C751 H739 0.950 . S
C751 C747 1.393 . S
C751 C750 1.391 . S
H752 C760 0.950 . S
H753 C765 0.944 1_556 S
H754 C762 0.950 . S
H755 C764 0.950 . S
H756 C766 0.950 . S
H757 C768 0.950 . S
H758 C770 0.950 . S
H759 C771 0.944 1_554 S
C760 H752 0.950 . S
C760 C761 1.386 1_565 S
C760 C762 1.391 . S
C761 C760 1.386 1_545 S
C761 C765 1.412 . S
C762 H754 0.950 . S
C762 C760 1.391 . S
C762 C763 1.400 1_565 S
C763 C762 1.400 1_545 S
C763 C764 1.398 1_554 S
C763 C769 1.491 1_544 S
C764 H755 0.950 . S
C764 C763 1.398 1_556 S
C764 C765 1.377 1_556 S
C765 H753 0.944 1_554 S
C765 C761 1.412 . S
C765 C764 1.377 1_554 S
C766 H756 0.950 . S
C766 C767 1.386 1_545 S
C766 C768 1.391 . S
C767 C766 1.386 1_565 S
C767 C771 1.412 . S
C768 H757 0.950 . S
C768 C766 1.391 . S
C768 C769 1.400 1_545 S
C769 C763 1.491 1_566 S
C769 C768 1.400 1_565 S
C769 C770 1.398 1_556 S
C770 H758 0.950 . S
C770 C769 1.398 1_554 S
C770 C771 1.377 1_554 S
C771 H759 0.944 1_556 S
C771 C767 1.412 . S
C771 C770 1.377 1_556 S
H772 C780 0.950 . S
H773 C785 0.950 . S
H774 C782 0.950 . S
H775 C784 0.950 . S
H776 C786 0.950 . S
H777 C788 0.950 . S
H778 C790 0.950 . S
H779 C791 0.950 . S
C780 H772 0.950 . S
C780 C781 1.386 1_565 S
C780 C782 1.391 . S
C781 C780 1.386 1_545 S
C781 C785 1.393 . S
C782 H774 0.950 . S
C782 C780 1.391 . S
C782 C783 1.400 1_565 S
C783 C782 1.400 1_545 S
C783 C784 1.398 . S
C783 C789 1.491 1_545 S
C784 H775 0.950 . S
C784 C783 1.398 . S
C784 C785 1.391 . S
C785 H773 0.950 . S
C785 C781 1.393 . S
C785 C784 1.391 . S
C786 H776 0.950 . S
C786 C787 1.386 1_545 S
C786 C788 1.391 . S
C787 C786 1.386 1_565 S
C787 C791 1.393 . S
C788 H777 0.950 . S
C788 C786 1.391 . S
C788 C789 1.400 1_545 S
C789 C783 1.491 1_565 S
C789 C788 1.400 1_565 S
C789 C790 1.398 . S
C790 H778 0.950 . S
C790 C789 1.398 . S
C790 C791 1.391 . S
C791 H779 0.950 . S
C791 C787 1.393 . S
C791 C790 1.391 . S
H792 C800 0.950 . S
H793 C805 0.951 . S
H794 C802 0.950 1_455 S
H795 C804 0.950 . S
H796 C806 0.950 . S
H797 C808 0.950 1_655 S
H798 C810 0.950 . S
H799 C811 0.951 . S
C800 H792 0.950 . S
C800 C801 1.386 . S
C800 C802 1.391 . S
C801 C800 1.386 . S
C801 C805 1.388 1_554 S
C802 H794 0.950 1_655 S
C802 C800 1.391 . S
C802 C803 1.400 . S
C803 C802 1.400 . S
C803 C804 1.398 1_554 S
C803 C809 1.491 1_654 S
C804 H795 0.950 . S
C804 C803 1.398 1_556 S
C804 C805 1.394 . S
C805 H793 0.951 . S
C805 C801 1.388 1_556 S
C805 C804 1.394 . S
C806 H796 0.950 . S
C806 C807 1.386 . S
C806 C808 1.391 . S
C807 C806 1.386 . S
C807 C811 1.388 1_556 S
C808 H797 0.950 1_455 S
C808 C806 1.391 . S
C808 C809 1.400 . S
C809 C803 1.491 1_456 S
C809 C808 1.400 . S
C809 C810 1.398 1_556 S
C810 H798 0.950 . S
C810 C809 1.398 1_554 S
C810 C811 1.394 . S
C811 H799 0.951 . S
C811 C807 1.388 1_554 S
C811 C810 1.394 . S
H812 C820 0.950 . S
H813 C825 0.950 . S
H814 C822 0.950 . S
H815 C824 0.950 . S
H816 C826 0.950 . S
H817 C828 0.950 . S
H818 C830 0.950 . S
H819 C831 0.950 . S
C820 H812 0.950 . S
C820 C821 1.386 . S
C820 C822 1.391 . S
C821 C820 1.386 . S
C821 C825 1.393 . S
C822 H814 0.950 . S
C822 C820 1.391 . S
C822 C823 1.400 . S
C823 C822 1.400 . S
C823 C824 1.398 . S
C823 C829 1.491 1_455 S
C824 H815 0.950 . S
C824 C823 1.398 . S
C824 C825 1.391 . S
C825 H813 0.950 . S
C825 C821 1.393 . S
C825 C824 1.391 . S
C826 H816 0.950 . S
C826 C827 1.386 . S
C826 C828 1.391 . S
C827 C826 1.386 . S
C827 C831 1.393 . S
C828 H817 0.950 . S
C828 C826 1.391 . S
C828 C829 1.400 . S
C829 C823 1.491 1_655 S
C829 C828 1.400 . S
C829 C830 1.398 . S
C830 H818 0.950 . S
C830 C829 1.398 . S
C830 C831 1.391 . S
C831 H819 0.950 . S
C831 C827 1.393 . S
C831 C830 1.391 . S
C281 C35 1.657 . S
C287 C3 1.667 . S
C301 C105 1.657 . S
C307 C71 1.676 . S
C321 C139 1.683 . S
C327 C173 1.673 . S
C341 C207 1.672 . S
C347 C239 1.656 . S
C361 C22 1.397 . S
C367 C15 1.406 . S
C381 C49 1.394 . S
C387 C56 1.403 . S
C401 C83 1.397 . S
C407 C90 1.390 . S
C421 C124 1.402 . S
C427 C117 1.410 . S
C441 C158 1.356 . S
C447 C151 1.365 . S
C461 C192 1.400 . S
C467 C185 1.409 . S
C481 C219 1.367 . S
C487 C226 1.359 . S
C501 C253 1.357 . S
C507 C260 1.365 . S
C521 C17 1.782 . S
C527 C221 1.782 . S
C541 C51 1.794 . S
C547 C255 1.794 . S
C561 C85 1.777 . S
C567 C153 1.777 . S
C581 C187 1.792 . S
C587 C119 1.792 . S
C601 C6 1.619 . S
C607 C130 1.591 . S
C621 C62 1.619 . S
C627 C96 1.601 . S
C641 C40 1.595 . S
C647 C74 1.613 . S
C661 C108 1.607 . S
C667 C28 1.580 . S
C681 C244 1.599 . S
C687 C142 1.623 . S
C701 C176 1.611 . S
C707 C232 1.592 . S
C721 C198 1.580 . S
C727 C210 1.607 . S
C741 C164 1.603 . S
C747 C266 1.623 . S
C761 C1 1.825 . S
C767 C69 1.825 . S
C781 C37 1.808 . S
C787 C103 1.808 . S
C801 C137 1.825 . S
C807 C205 1.825 . S
C821 C171 1.817 . S
C827 C241 1.817 . S
