# Generated by pormake.
# Topology ict, (4)-cn, num edge types: 1
# Building blocks:
#     Node 0, Type 0, BuildingBlock: QUQFOY_clean_sbu_3, # of connection points: 4
#     Node 1, Type 0, BuildingBlock: QUQFOY_clean_sbu_3, # of connection points: 4
#     Node 2, Type 0, BuildingBlock: QUQFOY_clean_sbu_3, # of connection points: 4
#     Node 3, Type 0, BuildingBlock: QUQFOY_clean_sbu_3, # of connection points: 4
#     Node 4, Type 0, BuildingBlock: QUQFOY_clean_sbu_3, # of connection points: 4
#     Node 5, Type 0, BuildingBlock: QUQFOY_clean_sbu_3, # of connection points: 4
#     Node 6, Type 0, BuildingBlock: QUQFOY_clean_sbu_3, # of connection points: 4
#     Node 7, Type 0, BuildingBlock: QUQFOY_clean_sbu_3, # of connection points: 4
#     Node 8, Type 0, BuildingBlock: QUQFOY_clean_sbu_3, # of connection points: 4
#     Node 9, Type 0, BuildingBlock: QUQFOY_clean_sbu_3, # of connection points: 4
#     Node 10, Type 0, BuildingBlock: QUQFOY_clean_sbu_3, # of connection points: 4
#     Node 11, Type 0, BuildingBlock: QUQFOY_clean_sbu_3, # of connection points: 4
#     Node 12, Type 0, BuildingBlock: QUQFOY_clean_sbu_3, # of connection points: 4
#     Node 13, Type 0, BuildingBlock: QUQFOY_clean_sbu_3, # of connection points: 4
#     Node 14, Type 0, BuildingBlock: QUQFOY_clean_sbu_3, # of connection points: 4
#     Node 15, Type 0, BuildingBlock: QUQFOY_clean_sbu_3, # of connection points: 4
#     Node 16, Type 0, BuildingBlock: QUQFOY_clean_sbu_3, # of connection points: 4
#     Node 17, Type 0, BuildingBlock: QUQFOY_clean_sbu_3, # of connection points: 4
#     Node 18, Type 0, BuildingBlock: QUQFOY_clean_sbu_3, # of connection points: 4
#     Node 19, Type 0, BuildingBlock: QUQFOY_clean_sbu_3, # of connection points: 4
#     Node 20, Type 0, BuildingBlock: QUQFOY_clean_sbu_3, # of connection points: 4
#     Node 21, Type 0, BuildingBlock: QUQFOY_clean_sbu_3, # of connection points: 4
#     Node 22, Type 0, BuildingBlock: QUQFOY_clean_sbu_3, # of connection points: 4
#     Node 23, Type 0, BuildingBlock: QUQFOY_clean_sbu_3, # of connection points: 4
#     Node 24, Type 0, BuildingBlock: QUQFOY_clean_sbu_3, # of connection points: 4
#     Node 25, Type 0, BuildingBlock: QUQFOY_clean_sbu_3, # of connection points: 4
#     Node 26, Type 0, BuildingBlock: QUQFOY_clean_sbu_3, # of connection points: 4
#     Node 27, Type 0, BuildingBlock: QUQFOY_clean_sbu_3, # of connection points: 4
#     Node 28, Type 0, BuildingBlock: QUQFOY_clean_sbu_3, # of connection points: 4
#     Node 29, Type 0, BuildingBlock: QUQFOY_clean_sbu_3, # of connection points: 4
#     Node 30, Type 0, BuildingBlock: QUQFOY_clean_sbu_3, # of connection points: 4
#     Node 31, Type 0, BuildingBlock: QUQFOY_clean_sbu_3, # of connection points: 4
#     Node 32, Type 0, BuildingBlock: QUQFOY_clean_sbu_3, # of connection points: 4
#     Node 33, Type 0, BuildingBlock: QUQFOY_clean_sbu_3, # of connection points: 4
#     Node 34, Type 0, BuildingBlock: QUQFOY_clean_sbu_3, # of connection points: 4
#     Node 35, Type 0, BuildingBlock: QUQFOY_clean_sbu_3, # of connection points: 4
#     Edge 36, Type (0, 0), BuildingBlock: CIFDUS_clean_linker_0, # of connection points: 2
#     Edge 37, Type (0, 0), BuildingBlock: CIFDUS_clean_linker_0, # of connection points: 2
#     Edge 38, Type (0, 0), BuildingBlock: CIFDUS_clean_linker_0, # of connection points: 2
#     Edge 39, Type (0, 0), BuildingBlock: CIFDUS_clean_linker_0, # of connection points: 2
#     Edge 40, Type (0, 0), BuildingBlock: CIFDUS_clean_linker_0, # of connection points: 2
#     Edge 41, Type (0, 0), BuildingBlock: CIFDUS_clean_linker_0, # of connection points: 2
#     Edge 42, Type (0, 0), BuildingBlock: CIFDUS_clean_linker_0, # of connection points: 2
#     Edge 43, Type (0, 0), BuildingBlock: CIFDUS_clean_linker_0, # of connection points: 2
#     Edge 44, Type (0, 0), BuildingBlock: CIFDUS_clean_linker_0, # of connection points: 2
#     Edge 45, Type (0, 0), BuildingBlock: CIFDUS_clean_linker_0, # of connection points: 2
#     Edge 46, Type (0, 0), BuildingBlock: CIFDUS_clean_linker_0, # of connection points: 2
#     Edge 47, Type (0, 0), BuildingBlock: CIFDUS_clean_linker_0, # of connection points: 2
#     Edge 48, Type (0, 0), BuildingBlock: CIFDUS_clean_linker_0, # of connection points: 2
#     Edge 49, Type (0, 0), BuildingBlock: CIFDUS_clean_linker_0, # of connection points: 2
#     Edge 50, Type (0, 0), BuildingBlock: CIFDUS_clean_linker_0, # of connection points: 2
#     Edge 51, Type (0, 0), BuildingBlock: CIFDUS_clean_linker_0, # of connection points: 2
#     Edge 52, Type (0, 0), BuildingBlock: CIFDUS_clean_linker_0, # of connection points: 2
#     Edge 53, Type (0, 0), BuildingBlock: CIFDUS_clean_linker_0, # of connection points: 2
#     Edge 54, Type (0, 0), BuildingBlock: CIFDUS_clean_linker_0, # of connection points: 2
#     Edge 55, Type (0, 0), BuildingBlock: CIFDUS_clean_linker_0, # of connection points: 2
#     Edge 56, Type (0, 0), BuildingBlock: CIFDUS_clean_linker_0, # of connection points: 2
#     Edge 57, Type (0, 0), BuildingBlock: CIFDUS_clean_linker_0, # of connection points: 2
#     Edge 58, Type (0, 0), BuildingBlock: CIFDUS_clean_linker_0, # of connection points: 2
#     Edge 59, Type (0, 0), BuildingBlock: CIFDUS_clean_linker_0, # of connection points: 2
#     Edge 60, Type (0, 0), BuildingBlock: CIFDUS_clean_linker_0, # of connection points: 2
#     Edge 61, Type (0, 0), BuildingBlock: CIFDUS_clean_linker_0, # of connection points: 2
#     Edge 62, Type (0, 0), BuildingBlock: CIFDUS_clean_linker_0, # of connection points: 2
#     Edge 63, Type (0, 0), BuildingBlock: CIFDUS_clean_linker_0, # of connection points: 2
#     Edge 64, Type (0, 0), BuildingBlock: CIFDUS_clean_linker_0, # of connection points: 2
#     Edge 65, Type (0, 0), BuildingBlock: CIFDUS_clean_linker_0, # of connection points: 2
#     Edge 66, Type (0, 0), BuildingBlock: CIFDUS_clean_linker_0, # of connection points: 2
#     Edge 67, Type (0, 0), BuildingBlock: CIFDUS_clean_linker_0, # of connection points: 2
#     Edge 68, Type (0, 0), BuildingBlock: CIFDUS_clean_linker_0, # of connection points: 2
#     Edge 69, Type (0, 0), BuildingBlock: CIFDUS_clean_linker_0, # of connection points: 2
#     Edge 70, Type (0, 0), BuildingBlock: CIFDUS_clean_linker_0, # of connection points: 2
#     Edge 71, Type (0, 0), BuildingBlock: CIFDUS_clean_linker_0, # of connection points: 2
#     Edge 72, Type (0, 0), BuildingBlock: CIFDUS_clean_linker_0, # of connection points: 2
#     Edge 73, Type (0, 0), BuildingBlock: CIFDUS_clean_linker_0, # of connection points: 2
#     Edge 74, Type (0, 0), BuildingBlock: CIFDUS_clean_linker_0, # of connection points: 2
#     Edge 75, Type (0, 0), BuildingBlock: CIFDUS_clean_linker_0, # of connection points: 2
#     Edge 76, Type (0, 0), BuildingBlock: CIFDUS_clean_linker_0, # of connection points: 2
#     Edge 77, Type (0, 0), BuildingBlock: CIFDUS_clean_linker_0, # of connection points: 2
#     Edge 78, Type (0, 0), BuildingBlock: CIFDUS_clean_linker_0, # of connection points: 2
#     Edge 79, Type (0, 0), BuildingBlock: CIFDUS_clean_linker_0, # of connection points: 2
#     Edge 80, Type (0, 0), BuildingBlock: CIFDUS_clean_linker_0, # of connection points: 2
#     Edge 81, Type (0, 0), BuildingBlock: CIFDUS_clean_linker_0, # of connection points: 2
#     Edge 82, Type (0, 0), BuildingBlock: CIFDUS_clean_linker_0, # of connection points: 2
#     Edge 83, Type (0, 0), BuildingBlock: CIFDUS_clean_linker_0, # of connection points: 2
#     Edge 84, Type (0, 0), BuildingBlock: CIFDUS_clean_linker_0, # of connection points: 2
#     Edge 85, Type (0, 0), BuildingBlock: CIFDUS_clean_linker_0, # of connection points: 2
#     Edge 86, Type (0, 0), BuildingBlock: CIFDUS_clean_linker_0, # of connection points: 2
#     Edge 87, Type (0, 0), BuildingBlock: CIFDUS_clean_linker_0, # of connection points: 2
#     Edge 88, Type (0, 0), BuildingBlock: CIFDUS_clean_linker_0, # of connection points: 2
#     Edge 89, Type (0, 0), BuildingBlock: CIFDUS_clean_linker_0, # of connection points: 2
#     Edge 90, Type (0, 0), BuildingBlock: CIFDUS_clean_linker_0, # of connection points: 2
#     Edge 91, Type (0, 0), BuildingBlock: CIFDUS_clean_linker_0, # of connection points: 2
#     Edge 92, Type (0, 0), BuildingBlock: CIFDUS_clean_linker_0, # of connection points: 2
#     Edge 93, Type (0, 0), BuildingBlock: CIFDUS_clean_linker_0, # of connection points: 2
#     Edge 94, Type (0, 0), BuildingBlock: CIFDUS_clean_linker_0, # of connection points: 2
#     Edge 95, Type (0, 0), BuildingBlock: CIFDUS_clean_linker_0, # of connection points: 2
#     Edge 96, Type (0, 0), BuildingBlock: CIFDUS_clean_linker_0, # of connection points: 2
#     Edge 97, Type (0, 0), BuildingBlock: CIFDUS_clean_linker_0, # of connection points: 2
#     Edge 98, Type (0, 0), BuildingBlock: CIFDUS_clean_linker_0, # of connection points: 2
#     Edge 99, Type (0, 0), BuildingBlock: CIFDUS_clean_linker_0, # of connection points: 2
#     Edge 100, Type (0, 0), BuildingBlock: CIFDUS_clean_linker_0, # of connection points: 2
#     Edge 101, Type (0, 0), BuildingBlock: CIFDUS_clean_linker_0, # of connection points: 2
#     Edge 102, Type (0, 0), BuildingBlock: CIFDUS_clean_linker_0, # of connection points: 2
#     Edge 103, Type (0, 0), BuildingBlock: CIFDUS_clean_linker_0, # of connection points: 2
#     Edge 104, Type (0, 0), BuildingBlock: CIFDUS_clean_linker_0, # of connection points: 2
#     Edge 105, Type (0, 0), BuildingBlock: CIFDUS_clean_linker_0, # of connection points: 2
#     Edge 106, Type (0, 0), BuildingBlock: CIFDUS_clean_linker_0, # of connection points: 2
#     Edge 107, Type (0, 0), BuildingBlock: CIFDUS_clean_linker_0, # of connection points: 2
# Relax obj value: 0.102
# Max RMSD: 0.125
# Mean RMSD: 0.125
data_MOF--net-ict--node1-QUQFOY_clean_sbu_3--edge1-CIFDUS_clean_linker_0
_symmetry_space_group_name_H-M    P1
_symmetry_Int_Tables_number       1
_symmetry_cell_setting            triclinic
loop_
_symmetry_equiv_pos_as_xyz
'x, y, z'
_cell_length_a     58.728969
_cell_length_b     58.807596
_cell_length_c     33.187313
_cell_angle_alpha  90.087499
_cell_angle_beta   89.847232
_cell_angle_gamma 120.0442
loop_
_atom_site_label
_atom_site_type_symbol
_atom_site_fract_x
_atom_site_fract_y
_atom_site_fract_z
_atom_type_partial_charge
C0 C 0.16176 0.2128 0.02554 0.0
O1 O 0.15554 0.1889 0.02912 0.0
Cd2 Cd 0.18394 0.17128 0.02996 0.0
O3 O 0.18582 0.23082 0.02184 0.0
Cd4 Cd 0.22893 0.2308 0.02225 0.0
C5 C 0.2177 0.20389 0.11525 0.0
O6 O 0.21547 0.19324 0.97866 0.0
O7 O 0.25018 0.20336 0.01274 0.0
O8 O 0.24782 0.26429 0.96951 0.0
C9 C 0.23442 0.18935 0.98525 0.0
O10 O 0.20276 0.18247 0.0969 0.0
C11 C 0.26928 0.27889 0.98775 0.0
O12 O 0.22881 0.22564 0.0962 0.0
O13 O 0.2712 0.27208 0.02332 0.0
C14 C 0.77063 0.9386 0.01575 0.0
O15 O 0.79508 0.95306 0.02244 0.0
Cd16 Cd 0.81785 -0.00185 0.03934 0.0
O17 O 0.75526 0.94812 0.01637 0.0
Cd18 Cd 0.75984 0.9927 0.02842 0.0
C19 C 0.78002 0.99195 0.12375 0.0
O20 O 0.80097 0.01651 -0.00666 0.0
O21 O 0.79091 0.04162 0.02621 0.0
O22 O 0.72941 0.98292 0.97262 0.0
C23 C 0.8068 0.03964 0.00252 0.0
O24 O 0.80135 -0.00384 0.10711 0.0
C25 C 0.71477 0.98988 0.99056 0.0
O26 O 0.76066 0.98916 0.10266 0.0
O27 O 0.7205 -0.00273 0.02698 0.0
C28 C 0.04148 0.82257 0.02317 0.0
O29 O 0.02567 0.831 0.02955 0.0
Cd30 Cd 0.97929 0.8046 0.03612 0.0
O31 O 0.03295 0.79797 0.0198 0.0
Cd32 Cd 0.98866 0.75664 0.02258 0.0
C33 C 0.97661 0.76691 0.11799 0.0
O34 O 0.96527 0.7733 0.98336 0.0
O35 O 0.94027 0.7372 0.01465 0.0
O36 O 0.00366 0.7417 0.96553 0.0
C37 C 0.9423 0.75426 0.98938 0.0
O38 O 0.97217 0.78383 0.10145 0.0
C39 C -0.00468 0.71857 0.97842 0.0
O40 O 0.98527 0.75457 0.09719 0.0
O41 O 0.98529 0.71346 0.01354 0.0
C42 C 0.21247 0.16233 0.45582 0.0
O43 O 0.1893 0.15526 0.44414 0.0
Cd44 Cd 0.17345 0.18373 0.42647 0.0
O45 O 0.22942 0.18665 0.46048 0.0
Cd46 Cd 0.23032 0.22986 0.45305 0.0
C47 C 0.22002 0.21915 0.35327 0.0
O48 O 0.18676 0.21439 0.48024 0.0
O49 O 0.20344 0.25203 0.45137 0.0
O50 O 0.25479 0.2425 0.51599 0.0
C51 C 0.18485 0.23435 0.47207 0.0
O52 O 0.19676 0.20216 0.36385 0.0
C53 C 0.27179 0.26551 0.50495 0.0
O54 O 0.23754 0.23255 0.37942 0.0
O55 O 0.27045 0.27161 0.46865 0.0
C56 C 0.8283 0.05011 0.45134 0.0
O57 O 0.83355 0.03202 0.44418 0.0
Cd58 Cd 0.8037 0.98645 0.44069 0.0
O59 O 0.8047 0.04472 0.4583 0.0
Cd60 Cd 0.76041 0.00307 0.46081 0.0
C61 C 0.76652 0.99035 0.36317 0.0
O62 O 0.77561 0.97767 0.4966 0.0
O63 O 0.73779 0.95405 0.4696 0.0
O64 O 0.74926 0.02022 0.51991 0.0
C65 C 0.75565 0.95517 0.49231 0.0
O66 O 0.78203 0.98309 0.37719 0.0
C67 C 0.72634 0.01421 0.50837 0.0
O68 O 0.75626 0.00012 0.38637 0.0
O69 O 0.71974 0.00447 0.47323 0.0
C70 C 0.92308 0.75498 0.45157 0.0
O71 O 0.93871 0.77866 0.44162 0.0
Cd72 Cd 0.98436 0.79857 0.43106 0.0
O73 O 0.93157 0.73907 0.45798 0.0
Cd74 Cd 0.97624 0.74202 0.4557 0.0
C75 C 0.98104 0.75579 0.35625 0.0
O76 O -0.00133 0.78442 0.48719 0.0
O77 O 0.02503 0.77338 0.46071 0.0
O78 O 0.96405 0.71586 0.51727 0.0
C79 C 0.02207 0.78951 0.48231 0.0
O80 O 0.98517 0.7781 0.36822 0.0
C81 C 0.9729 0.70106 0.50644 0.0
O82 O 0.97644 0.73756 0.38133 0.0
O83 O 0.98167 0.70402 0.47063 0.0
C84 C 0.81178 0.75857 0.94542 0.0
O85 O 0.82046 0.78216 0.93441 0.0
Cd86 Cd 0.79604 0.80326 0.92311 0.0
O87 O 0.78718 0.7432 0.95166 0.0
Cd88 Cd 0.74657 0.74806 0.94628 0.0
C89 C 0.75678 0.76249 0.84702 0.0
O90 O 0.76752 0.78992 0.97957 0.0
O91 O 0.7312 0.78114 0.9517 0.0
O92 O 0.72823 0.72043 0.00604 0.0
C93 C 0.75006 0.79612 0.97462 0.0
O94 O 0.77518 0.78462 0.85926 0.0
C95 C 0.70514 0.70675 0.9921 0.0
O96 O 0.74293 0.74426 0.87196 0.0
O97 O 0.70175 0.71106 0.95574 0.0
C98 C 0.221 0.04968 0.95573 0.0
O99 O 0.19673 0.03522 0.94784 0.0
Cd100 Cd 0.17305 0.98902 0.94017 0.0
O101 O 0.23583 0.03976 0.96034 0.0
Cd102 Cd 0.22888 0.99382 0.95504 0.0
C103 C 0.20782 0.9869 0.85823 0.0
O104 O 0.18813 0.97281 -0.00704 0.0
O105 O 0.19655 0.94576 0.9623 0.0
O106 O 0.25974 0.00301 0.01042 0.0
C107 C 0.18193 0.94921 0.98673 0.0
O108 O 0.18636 0.98322 0.87363 0.0
C109 C 0.27295 0.99428 0.99259 0.0
O110 O 0.22762 0.99258 0.88049 0.0
O111 O 0.26658 0.98673 0.95641 0.0
C112 C 0.94678 0.16953 0.97551 0.0
O113 O 0.96351 0.16209 0.97075 0.0
Cd114 Cd 0.00824 0.18874 0.95247 0.0
O115 O 0.95369 0.19383 0.9729 0.0
Cd116 Cd -0.00361 0.23626 0.96003 0.0
C117 C -0.00289 0.21507 0.86617 0.0
O118 O 0.02584 0.22562 -0.00432 0.0
O119 O 0.04524 0.25826 0.95518 0.0
O120 O 0.98599 0.25619 0.01612 0.0
C121 C 0.04729 0.24406 0.98199 0.0
O122 O 0.00398 0.20026 0.88387 0.0
C123 C 0.99188 0.27748 -0.00186 0.0
O124 O 0.99195 0.23047 0.88622 0.0
O125 O -0.00184 0.27893 0.96115 0.0
C126 C 0.76022 0.82299 0.51253 0.0
O127 O 0.78447 0.83052 0.51621 0.0
Cd128 Cd 0.80319 0.80319 0.52218 0.0
O129 O 0.74311 0.79857 0.51076 0.0
Cd130 Cd 0.74439 0.75635 0.5131 0.0
C131 C 0.76858 0.76906 0.60724 0.0
O132 O 0.78359 0.77022 0.47248 0.0
O133 O 0.77223 0.73548 0.50747 0.0
O134 O 0.71437 0.74156 0.45634 0.0
C135 C 0.78722 0.75128 0.4807 0.0
O136 O 0.78976 0.78484 0.58889 0.0
C137 C 0.69915 0.71858 0.46956 0.0
O138 O 0.74703 0.75628 0.58788 0.0
O139 O 0.70369 0.71365 0.505 0.0
C140 C 0.14877 0.9302 0.51463 0.0
O141 O 0.13982 0.94569 0.51964 0.0
Cd142 Cd 0.16392 0.99136 0.5317 0.0
O143 O 0.17353 0.93882 0.51485 0.0
Cd144 Cd 0.21395 0.98353 0.52425 0.0
C145 C 0.1946 0.98817 0.61851 0.0
O146 O 0.19874 0.00765 0.48449 0.0
O147 O 0.23238 0.03219 0.52085 0.0
O148 O 0.23557 0.97354 0.4699 0.0
C149 C 0.21643 0.03061 0.49385 0.0
O150 O 0.17845 0.9931 0.60046 0.0
C151 C 0.25715 0.98134 0.48828 0.0
O152 O 0.2098 0.98264 0.59857 0.0
O153 O 0.25808 0.98853 0.52466 0.0
C154 C 0.0413 0.20742 0.52913 0.0
O155 O 0.02241 0.18487 0.53837 0.0
Cd156 Cd 0.97837 0.17386 0.55002 0.0
O157 O 0.03737 0.22675 0.52419 0.0
Cd158 Cd -0.00226 0.23289 0.52762 0.0
C159 C 0.98979 0.21859 0.62629 0.0
O160 O 0.96713 0.192 0.49527 0.0
O161 O 0.94853 0.20995 0.52746 0.0
O162 O 0.01353 0.25877 0.46618 0.0
C163 C 0.94616 0.19205 0.5036 0.0
O164 O 0.98052 0.19515 0.61363 0.0
C165 C 0.00877 0.27663 0.47722 0.0
O166 O -0.00068 0.2378 0.60165 0.0
O167 O 0.00073 0.27529 0.51321 0.0
C168 C 0.82853 0.54653 0.36868 0.0
O169 O 0.8216 0.52251 0.37327 0.0
Cd170 Cd 0.84823 0.5029 0.37189 0.0
O171 O 0.85264 0.56383 0.36293 0.0
Cd172 Cd 0.89453 0.56157 0.36152 0.0
C173 C 0.88488 0.53551 0.45486 0.0
O174 O 0.87856 0.52316 0.31871 0.0
O175 O 0.91376 0.53253 0.35084 0.0
O176 O 0.91352 0.59446 0.30802 0.0
C177 C 0.89709 0.51849 0.32434 0.0
O178 O 0.86925 0.51406 0.43715 0.0
C179 C 0.93573 0.60817 0.32483 0.0
O180 O 0.89568 0.55717 0.43556 0.0
O181 O 0.93806 0.60135 0.36019 0.0
C182 C 0.43915 0.27985 0.37234 0.0
O183 O 0.46274 0.29664 0.38114 0.0
Cd184 Cd 0.48122 0.34203 0.39301 0.0
O185 O 0.42188 0.28676 0.36705 0.0
Cd186 Cd 0.42232 0.33014 0.37108 0.0
C187 C 0.43791 0.33388 0.46998 0.0
O188 O 0.46485 0.35655 0.34016 0.0
O189 O 0.45037 0.37924 0.36961 0.0
O190 O 0.3944 0.31988 0.31138 0.0
C191 C 0.46803 0.37899 0.34793 0.0
O192 O 0.46085 0.34018 0.45752 0.0
C193 C 0.37841 0.32589 0.32727 0.0
O194 O 0.41927 0.32842 0.44529 0.0
O195 O 0.38187 0.33216 0.36432 0.0
C196 C 0.71243 0.17106 0.37275 0.0
O197 O 0.69613 0.17786 0.3846 0.0
Cd198 Cd 0.6502 0.1513 0.39321 0.0
O199 O 0.70474 0.14708 0.3641 0.0
Cd200 Cd 0.66035 0.10508 0.36681 0.0
C201 C 0.65181 0.11096 0.46653 0.0
O202 O 0.63646 0.12386 0.33569 0.0
O203 O 0.61135 0.08629 0.36239 0.0
O204 O 0.67039 0.08745 0.30662 0.0
C205 C 0.61335 0.10511 0.34118 0.0
O206 O 0.64593 0.12813 0.45563 0.0
C207 C 0.6634 0.06509 0.32183 0.0
O208 O 0.65954 0.10021 0.44072 0.0
O209 O 0.65651 0.06196 0.35862 0.0
C210 C 0.88392 0.48976 0.78844 0.0
O211 O 0.86037 0.48029 0.77651 0.0
Cd212 Cd 0.83896 0.50443 0.76309 0.0
O213 O 0.89826 0.51428 0.7958 0.0
Cd214 Cd 0.89306 0.55429 0.7933 0.0
C215 C 0.88403 0.54633 0.69272 0.0
O216 O 0.84887 0.53244 0.81977 0.0
O217 O 0.86125 0.57088 0.7962 0.0
O218 O 0.91657 0.56761 0.8571 0.0
C219 C 0.84386 0.55078 0.81472 0.0
O220 O 0.86165 0.52698 0.70208 0.0
C221 C 0.93246 0.59112 0.84672 0.0
O222 O 0.9005 0.5603 0.71976 0.0
O223 O 0.9309 0.5973 0.81056 0.0
C224 C 0.49301 0.37708 0.80232 0.0
O225 O 0.49857 0.35889 0.79941 0.0
Cd226 Cd 0.46915 0.3133 0.79499 0.0
O227 O 0.4691 0.37178 0.80415 0.0
Cd228 Cd 0.42528 0.32936 0.80143 0.0
C229 C 0.43912 0.31685 0.70809 0.0
O230 O 0.43669 0.30369 0.84473 0.0
O231 O 0.40307 0.28032 0.80778 0.0
O232 O 0.40652 0.34414 0.85412 0.0
C233 C 0.4177 0.28118 0.83645 0.0
O234 O 0.45311 0.30927 0.72659 0.0
C235 C 0.38516 0.33754 0.83576 0.0
O236 O 0.42739 0.32676 0.72745 0.0
O237 O 0.3833 0.32897 0.80004 0.0
C238 C 0.60989 0.10617 0.81884 0.0
O239 O 0.62696 0.13042 0.81684 0.0
Cd240 Cd 0.67122 0.1476 0.79572 0.0
O241 O 0.6164 0.08873 0.81274 0.0
Cd242 Cd 0.65821 0.08802 0.79778 0.0
C243 C 0.65718 0.11183 0.70658 0.0
O244 O 0.69001 0.12721 0.83383 0.0
O245 O 0.70646 0.11318 0.78886 0.0
O246 O 0.64789 0.05807 0.85385 0.0
C247 C 0.71039 0.12917 0.81724 0.0
O248 O 0.66477 0.13311 0.72604 0.0
C249 C 0.65242 0.04181 0.83544 0.0
O250 O 0.65222 0.09072 0.72471 0.0
O251 O 0.65786 0.046 0.79809 0.0
C252 C 0.4813 0.11085 0.31464 0.0
O253 O 0.48818 0.13493 0.31094 0.0
Cd254 Cd 0.46093 0.15227 0.29338 0.0
O255 O 0.45717 0.09298 0.31135 0.0
Cd256 Cd 0.41414 0.09185 0.29865 0.0
C257 C 0.4364 0.1155 0.20576 0.0
O258 O 0.42357 0.13099 0.33536 0.0
O259 O 0.3914 0.11813 0.29413 0.0
O260 O 0.3944 0.06101 0.35415 0.0
C261 C 0.40524 0.13406 0.32158 0.0
O262 O 0.45037 0.13714 0.22425 0.0
C263 C 0.37367 0.04494 0.33547 0.0
O264 O 0.42129 0.09449 0.2251 0.0
O265 O 0.37238 0.04983 0.2985 0.0
C266 C 0.88774 0.3805 0.28643 0.0
O267 O 0.86421 0.36482 0.27584 0.0
Cd268 Cd 0.84748 0.31996 0.26043 0.0
O269 O 0.904 0.37229 0.29122 0.0
Cd270 Cd 0.90316 0.32905 0.28618 0.0
C271 C 0.89278 0.32821 0.18667 0.0
O272 O 0.85983 0.30235 0.31525 0.0
O273 O 0.87473 0.28006 0.28532 0.0
O274 O 0.92797 0.34174 0.34874 0.0
C275 C 0.85704 0.28007 0.30729 0.0
O276 O 0.86982 0.32289 0.19745 0.0
C277 C 0.94484 0.33546 0.33807 0.0
O278 O 0.91029 0.33218 0.21269 0.0
O279 O 0.94309 0.32712 0.30222 0.0
C280 C 0.61631 0.49005 0.30215 0.0
O281 O 0.63524 0.4856 0.29825 0.0
Cd282 Cd 0.67946 0.51756 0.28424 0.0
O283 O 0.62043 0.51354 0.30123 0.0
Cd284 Cd 0.65972 0.55927 0.29497 0.0
C285 C 0.66701 0.54477 0.19965 0.0
O286 O 0.69096 0.55177 0.33117 0.0
O287 O 0.7088 0.58638 0.29433 0.0
O288 O 0.64275 0.57018 0.35399 0.0
C289 C 0.71174 0.57224 0.32025 0.0
O290 O 0.67571 0.53132 0.21691 0.0
C291 C 0.64619 0.59196 0.34109 0.0
O292 O 0.6584 0.55721 0.22034 0.0
O293 O 0.65444 0.59803 0.30503 0.0
C294 C 0.42848 0.15363 0.86721 0.0
O295 O 0.45235 0.16321 0.8776 0.0
Cd296 Cd 0.47595 0.14093 0.8888 0.0
O297 O 0.41372 0.12896 0.86136 0.0
Cd298 Cd 0.41928 0.08914 0.86735 0.0
C299 C 0.436 0.10203 0.96614 0.0
O300 O 0.46198 0.10993 0.83606 0.0
O301 O 0.45149 0.07285 0.86286 0.0
O302 O 0.39055 0.06981 0.80894 0.0
C303 C 0.46805 0.09249 0.84258 0.0
O304 O 0.45812 0.12013 0.95311 0.0
C305 C 0.3762 0.04741 0.82485 0.0
O306 O 0.41732 0.08815 0.94182 0.0
O307 O 0.38122 0.04476 0.8612 0.0
C308 C 0.83135 0.27032 0.86286 0.0
O309 O 0.82511 0.28796 0.86702 0.0
Cd310 Cd 0.85274 0.334 0.86493 0.0
O311 O 0.85528 0.27637 0.85726 0.0
Cd312 Cd 0.89798 0.31998 0.85583 0.0
C313 C 0.88851 0.33755 0.94866 0.0
O314 O 0.88313 0.34278 0.81218 0.0
O315 O 0.91771 0.36836 0.84578 0.0
O316 O 0.91793 0.30667 0.80261 0.0
C317 C 0.90167 0.3659 0.81834 0.0
O318 O 0.87328 0.34373 0.9306 0.0
C319 C 0.93959 0.31442 0.82079 0.0
O320 O 0.89903 0.32627 0.92965 0.0
O321 O 0.94101 0.32269 0.8566 0.0
C322 C 0.70757 0.54654 0.85541 0.0
O323 O 0.69056 0.5231 0.86454 0.0
Cd324 Cd 0.6462 0.50802 0.88238 0.0
O325 O 0.70119 0.56434 0.85351 0.0
Cd326 Cd 0.6597 0.5668 0.86175 0.0
C327 C 0.65714 0.55207 0.96021 0.0
O328 O 0.63013 0.52466 0.83201 0.0
O329 O 0.6105 0.54138 0.86471 0.0
O330 O 0.67184 0.59144 0.79915 0.0
C331 C 0.60865 0.52312 0.84216 0.0
O332 O 0.64997 0.52916 0.94678 0.0
C333 C 0.66732 0.60933 0.81093 0.0
O334 O 0.6633 0.57117 0.93609 0.0
O335 O 0.66069 0.60847 0.84766 0.0
C336 C 0.49475 0.88549 0.68139 0.0
O337 O 0.4901 0.86202 0.68385 0.0
Cd338 Cd 0.52083 0.84758 0.68832 0.0
O339 O 0.51834 0.90478 0.67963 0.0
Cd340 Cd 0.5636 0.90936 0.68023 0.0
C341 C 0.55212 0.88428 0.77384 0.0
O342 O 0.5527 0.87171 0.63914 0.0
O343 O 0.5873 0.88398 0.67456 0.0
O344 O 0.57674 0.94023 0.62448 0.0
C345 C 0.57206 0.86883 0.64747 0.0
O346 O 0.53818 0.86265 0.75532 0.0
C347 C 0.59947 0.95622 0.63788 0.0
O348 O 0.56333 0.90601 0.75464 0.0
O349 O 0.60479 0.95169 0.67306 0.0
C350 C 0.11842 0.61863 0.68098 0.0
O351 O 0.14201 0.63731 0.68396 0.0
Cd352 Cd 0.15554 0.68155 0.69858 0.0
O353 O 0.09924 0.6231 0.68171 0.0
Cd354 Cd 0.09366 0.66304 0.68639 0.0
C355 C 0.11371 0.66615 0.78181 0.0
O356 O 0.1334 0.69364 0.65208 0.0
O357 O 0.11711 0.71232 0.68811 0.0
O358 O 0.06591 0.64666 0.62719 0.0
C359 C 0.13461 0.71478 0.66316 0.0
O360 O 0.1362 0.67499 0.76532 0.0
C361 C 0.04801 0.65096 0.63988 0.0
O362 O 0.09319 0.65935 0.76059 0.0
O363 O 0.05039 0.65947 0.6758 0.0
C364 C 0.37626 0.49267 0.69451 0.0
O365 O 0.35997 0.49953 0.70624 0.0
Cd366 Cd 0.31565 0.47162 0.72556 0.0
O367 O 0.36913 0.46839 0.68995 0.0
Cd368 Cd 0.32725 0.42435 0.69699 0.0
C369 C 0.32858 0.43607 0.79689 0.0
O370 O 0.29909 0.44006 0.67376 0.0
O371 O 0.2778 0.40107 0.69797 0.0
O372 O 0.33897 0.41251 0.63312 0.0
C373 C 0.27707 0.42007 0.6813 0.0
O374 O 0.32223 0.45301 0.78655 0.0
C375 C 0.33361 0.38964 0.64378 0.0
O376 O 0.33225 0.42234 0.77068 0.0
O377 O 0.32665 0.38332 0.68026 0.0
C378 C 0.55511 0.8474 0.12022 0.0
O379 O 0.53173 0.8385 0.10778 0.0
Cd380 Cd 0.5108 0.86223 0.08871 0.0
O381 O 0.57066 0.87214 0.12425 0.0
Cd382 Cd 0.56725 0.91308 0.11223 0.0
C383 C 0.55441 0.89894 0.01293 0.0
O384 O 0.52353 0.89424 0.13987 0.0
O385 O 0.53658 0.93134 0.11116 0.0
O386 O 0.59406 0.93286 0.17227 0.0
C387 C 0.51884 0.91238 0.13116 0.0
O388 O 0.53188 0.88099 0.02482 0.0
C389 C 0.6092 0.955 0.15615 0.0
O390 O 0.57209 0.91355 0.03812 0.0
O391 O 0.60569 0.9572 0.11894 0.0
C392 C 0.15165 0.69993 0.11431 0.0
O393 O 0.15704 0.68212 0.10566 0.0
Cd394 Cd 0.12752 0.63684 0.09698 0.0
O395 O 0.12788 0.69431 0.12052 0.0
Cd396 Cd 0.0837 0.65208 0.11832 0.0
C397 C 0.09303 0.6449 0.0196 0.0
O398 O 0.09804 0.62514 0.15188 0.0
O399 O 0.0613 0.6027 0.12138 0.0
O400 O 0.06773 0.66515 0.17728 0.0
C401 C 0.07841 0.60283 0.14473 0.0
O402 O 0.10829 0.63698 0.03243 0.0
C403 C 0.04584 0.65976 0.16177 0.0
O404 O 0.0818 0.65288 0.04412 0.0
O405 O 0.04225 0.65227 0.12526 0.0
C406 C 0.2882 0.45375 0.12889 0.0
O407 O 0.30625 0.47738 0.12365 0.0
Cd408 Cd 0.35201 0.49394 0.11714 0.0
O409 O 0.29374 0.43538 0.13192 0.0
Cd410 Cd 0.3363 0.43415 0.12824 0.0
C411 C 0.34847 0.4576 0.03325 0.0
O412 O 0.36359 0.47334 0.16757 0.0
O413 O 0.38537 0.46046 0.13175 0.0
O414 O 0.32255 0.40244 0.18342 0.0
C415 C 0.38574 0.47616 0.15829 0.0
O416 O 0.35598 0.47965 0.05028 0.0
C417 C 0.32862 0.387 0.16589 0.0
O418 O 0.33827 0.43647 0.05387 0.0
O419 O 0.33652 0.39252 0.12965 0.0
C420 C 0.16289 0.45465 0.64965 0.0
O421 O 0.16719 0.47789 0.64495 0.0
Cd422 Cd 0.13798 0.49209 0.62519 0.0
O423 O 0.13962 0.43489 0.64611 0.0
Cd424 Cd 0.0941 0.42872 0.63265 0.0
C425 C 0.11536 0.45279 0.53913 0.0
O426 O 0.1019 0.46746 0.66747 0.0
O427 O 0.06801 0.45222 0.6297 0.0
O428 O 0.0757 0.39719 0.68792 0.0
C429 C 0.08277 0.46952 0.65495 0.0
O430 O 0.12828 0.47491 0.55682 0.0
C431 C 0.0555 0.38035 0.66889 0.0
O432 O 0.10124 0.43176 0.55909 0.0
O433 O 0.05405 0.38524 0.63198 0.0
C434 C 0.55133 0.72569 0.64586 0.0
O435 O 0.52654 0.71142 0.64263 0.0
Cd436 Cd 0.5032 0.66563 0.63027 0.0
O437 O 0.56627 0.71573 0.64511 0.0
Cd438 Cd 0.56117 0.67087 0.63889 0.0
C439 C 0.5402 0.67124 0.5446 0.0
O440 O 0.5204 0.64715 0.67533 0.0
O441 O 0.53014 0.62237 0.64053 0.0
O442 O 0.59036 0.68353 0.69634 0.0
C443 C 0.51463 0.62411 0.6654 0.0
O444 O 0.51921 0.66694 0.56255 0.0
C445 C 0.605 0.67517 0.68264 0.0
O446 O 0.56009 0.67423 0.56451 0.0
O447 O 0.60017 0.66584 0.64704 0.0
C448 C 0.27909 0.8326 0.61676 0.0
O449 O 0.29763 0.8279 0.61 0.0
Cd450 Cd 0.34255 0.85828 0.59861 0.0
O451 O 0.28371 0.85621 0.61997 0.0
Cd452 Cd 0.32495 0.90104 0.61501 0.0
C453 C 0.33189 0.8889 0.51781 0.0
O454 O 0.35496 0.89068 0.64893 0.0
O455 O 0.37405 0.92591 0.61366 0.0
O456 O 0.31252 0.91693 0.67423 0.0
C457 C 0.37623 0.91081 0.63858 0.0
O458 O 0.34054 0.8747 0.53256 0.0
C459 C 0.31735 0.93862 0.65875 0.0
O460 O 0.32345 0.90053 0.54071 0.0
O461 O 0.32354 0.94188 0.62163 0.0
C462 C 0.11664 0.49434 0.20068 0.0
O463 O 0.14006 0.50044 0.20939 0.0
Cd464 Cd 0.15647 0.4716 0.22125 0.0
O465 O 0.09885 0.47029 0.19625 0.0
Cd466 Cd 0.09784 0.42681 0.2015 0.0
C467 C 0.11474 0.43764 0.29992 0.0
O468 O 0.13955 0.4403 0.16849 0.0
O469 O 0.12422 0.40398 0.20069 0.0
O470 O 0.0691 0.40998 0.14261 0.0
C471 C 0.14173 0.42058 0.17728 0.0
O472 O 0.13779 0.45325 0.28668 0.0
C473 C 0.05226 0.38854 0.15893 0.0
O474 O 0.09547 0.42583 0.27572 0.0
O475 O 0.05592 0.38551 0.19578 0.0
C476 C 0.49488 0.62213 0.21401 0.0
O477 O 0.4881 0.63891 0.22276 0.0
Cd478 Cd 0.51622 0.68481 0.2278 0.0
O479 O 0.51895 0.62936 0.20662 0.0
Cd480 Cd 0.56138 0.67325 0.20652 0.0
C481 C 0.55398 0.68268 0.30497 0.0
O482 O 0.54369 0.69641 0.16992 0.0
O483 O 0.58064 0.72208 0.19822 0.0
O484 O 0.57712 0.65882 0.14898 0.0
C485 C 0.56279 0.71948 0.17402 0.0
O486 O 0.53762 0.68917 0.29209 0.0
C487 C 0.59986 0.66651 0.16326 0.0
O488 O 0.56511 0.67454 0.28059 0.0
O489 O 0.60425 0.67613 0.19856 0.0
C490 C 0.36731 0.86541 0.17201 0.0
O491 O 0.34955 0.84166 0.17733 0.0
Cd492 Cd 0.30523 0.82603 0.19543 0.0
O493 O 0.36174 0.88382 0.17373 0.0
Cd494 Cd 0.32008 0.88594 0.185 0.0
C495 C 0.3178 0.86519 0.28005 0.0
O496 O 0.2896 0.84604 0.15012 0.0
O497 O 0.27099 0.86052 0.19001 0.0
O498 O 0.33104 0.91592 0.12824 0.0
C499 C 0.26844 0.84394 0.16337 0.0
O500 O 0.30979 0.84286 0.26364 0.0
C501 C 0.32673 0.93238 0.14651 0.0
O502 O 0.32414 0.88551 0.25871 0.0
O503 O 0.32095 0.92813 0.1837 0.0
H504 H 0.38142 0.34635 0.91527 0.0
H505 H 0.3365 0.32267 0.80509 0.0
H506 H 0.29582 0.30683 0.8435 0.0
H507 H 0.27295 0.29172 0.90838 0.0
H508 H 0.31791 0.31263 0.0185 0.0
H509 H 0.35853 0.33795 0.98019 0.0
C510 C 0.36281 0.33839 0.89954 0.0
C511 C 0.36197 0.33517 0.85742 0.0
C512 C 0.3394 0.32842 0.92192 0.0
C513 C 0.33769 0.32506 0.83752 0.0
C514 C 0.31438 0.31585 0.85951 0.0
C515 C 0.29155 0.3024 0.92413 0.0
C516 C 0.29243 0.2998 0.96618 0.0
C517 C 0.31494 0.31616 0.90178 0.0
C518 C 0.31669 0.31399 0.98611 0.0
C519 C 0.33997 0.32838 0.96418 0.0
H520 H 0.64541 0.0317 0.91563 0.0
H521 H 0.66821 0.0083 0.80642 0.0
H522 H 0.68582 0.98566 0.84605 0.0
H523 H 0.70211 0.98004 0.91125 0.0
H524 H 0.68176 0.00609 0.02017 0.0
H525 H 0.65554 0.01983 0.98117 0.0
C526 C 0.65364 0.0211 0.90041 0.0
C527 C 0.65601 0.02219 0.85814 0.0
C528 C 0.66459 0.00896 0.92341 0.0
C529 C 0.66639 0.00803 0.83892 0.0
C530 C 0.67665 -0.00477 0.86161 0.0
C531 C 0.69149 0.9882 0.92659 0.0
C532 C 0.69437 0.99258 0.96847 0.0
C533 C 0.67706 -0.00325 0.90384 0.0
C534 C 0.68019 0.00285 0.98791 0.0
C535 C 0.66525 0.01079 0.96559 0.0
H536 H 0.97481 0.66656 -0.00493 0.0
H537 H 0.01108 0.72376 0.89999 0.0
H538 H -0.00209 0.68867 0.85064 0.0
H539 H 0.96966 0.64213 0.83317 0.0
H540 H 0.93281 0.58493 0.92808 0.0
H541 H 0.95296 0.61953 0.97864 0.0
C542 C 0.9804 0.67135 0.96372 0.0
C543 C -0.00661 0.69773 0.95116 0.0
C544 C 0.97232 0.65104 0.93527 0.0
C545 C 0.00077 0.70361 0.91047 0.0
C546 C -0.00687 0.68354 0.88211 0.0
C547 C 0.96649 0.63717 0.86494 0.0
C548 C 0.94931 0.61108 0.87677 0.0
C549 C 0.97785 0.65722 0.89392 0.0
C550 C 0.94572 0.60491 0.91808 0.0
C551 C 0.95715 0.62471 0.94708 0.0
H552 H 0.31736 0.33794 0.6559 0.0
H553 H 0.34511 0.39756 0.56354 0.0
H554 H 0.33211 0.36399 0.51155 0.0
H555 H 0.30608 0.31751 0.49228 0.0
H556 H 0.27689 0.25788 0.58471 0.0
H557 H 0.29762 0.29158 0.63646 0.0
C558 C 0.32113 0.34365 0.62445 0.0
C559 C 0.33169 0.37017 0.61363 0.0
C560 C 0.31304 0.32417 0.59458 0.0
C561 C 0.3367 0.37725 0.57273 0.0
C562 C 0.32917 0.35804 0.5429 0.0
C563 C 0.30477 0.31185 0.52366 0.0
C564 C 0.2895 0.28526 0.53463 0.0
C565 C 0.31624 0.33138 0.55343 0.0
C566 C 0.28824 0.27824 0.57542 0.0
C567 C 0.30001 0.29752 0.60512 0.0
H568 H 0.65123 0.98941 0.65494 0.0
H569 H 0.59432 0.96595 0.55905 0.0
H570 H 0.62966 0.98652 0.50959 0.0
H571 H 0.67612 0.00278 0.49283 0.0
H572 H 0.73295 0.02545 0.58869 0.0
H573 H 0.69839 0.01406 0.63863 0.0
C574 C 0.64654 0.98947 0.62336 0.0
C575 C 0.62017 0.97553 0.61067 0.0
C576 C 0.667 0.00081 0.59486 0.0
C577 C 0.61446 0.97617 0.56967 0.0
C578 C 0.63468 0.98779 0.54124 0.0
C579 C 0.68105 0.00588 0.52459 0.0
C580 C 0.70696 0.01429 0.53699 0.0
C581 C 0.66097 -0.00115 0.55331 0.0
C582 C 0.7131 0.01864 0.57826 0.0
C583 C 0.6933 0.012 0.60694 0.0
H584 H -0.00726 0.66863 0.49285 0.0
H585 H 0.96269 0.69705 0.5872 0.0
H586 H 0.97986 0.67978 0.63813 0.0
H587 H 0.01028 0.66397 0.65545 0.0
H588 H 0.04104 0.63642 0.56085 0.0
H589 H 0.01639 0.64551 0.51078 0.0
C590 C 0.98937 0.67047 0.52453 0.0
C591 C 0.97698 0.68464 0.53614 0.0
C592 C -0.00023 0.66095 0.55377 0.0
C593 C 0.97245 0.68652 0.57735 0.0
C594 C 0.98241 0.67677 0.60659 0.0
C595 C 0.01107 0.65933 0.62402 0.0
C596 C 0.02797 0.6501 0.61188 0.0
C597 C -0.00281 0.66508 0.59513 0.0
C598 C 0.0285 0.6439 0.57104 0.0
C599 C 0.01447 0.6492 0.54227 0.0
H600 H 0.59772 0.6541 0.08387 0.0
H601 H 0.65024 0.68199 0.18584 0.0
H602 H 0.68756 0.69279 0.14157 0.0
H603 H 0.70588 0.70088 0.07318 0.0
H604 H 0.65361 0.67547 0.97088 0.0
H605 H 0.61561 0.65665 0.01602 0.0
C606 C 0.61724 0.662 0.09655 0.0
C607 C 0.62123 0.66763 0.13802 0.0
C608 C 0.63873 0.66886 0.07076 0.0
C609 C 0.64664 0.67772 0.15398 0.0
C610 C 0.66803 0.68399 0.12864 0.0
C611 C 0.68618 0.69068 0.06071 0.0
C612 C 0.6826 0.68997 0.01871 0.0
C613 C 0.66443 0.68065 0.08683 0.0
C614 C 0.65693 0.67653 0.00309 0.0
C615 C 0.63517 0.66588 0.0289 0.0
H616 H 0.33391 0.94268 0.06627 0.0
H617 H 0.3135 0.96764 0.17623 0.0
H618 H 0.29899 0.99329 0.13739 0.0
H619 H 0.28499 0.00203 0.07236 0.0
H620 H 0.3032 0.97492 0.96256 0.0
H621 H 0.32606 0.95714 0.00114 0.0
C622 C 0.32686 0.95422 0.08183 0.0
C623 C 0.32432 0.95282 0.12407 0.0
C624 C 0.31782 0.96829 0.05926 0.0
C625 C 0.31542 0.96813 0.14373 0.0
C626 C 0.30697 0.9827 0.1215 0.0
C627 C 0.29448 0.99278 0.05676 0.0
C628 C 0.29193 0.98936 0.0147 0.0
C629 C 0.30696 0.98192 0.07924 0.0
C630 C 0.30457 0.97754 -0.00505 0.0
C631 C 0.31757 0.96725 0.01703 0.0
H632 H 0.04358 0.38795 0.07833 0.0
H633 H 0.01526 0.33978 0.18512 0.0
H634 H 0.9893 0.30094 0.14361 0.0
H635 H 0.98155 0.27987 0.07735 0.0
H636 H 0.01176 0.32773 0.97056 0.0
H637 H 0.02951 0.36745 0.01164 0.0
C638 C 0.03125 0.36907 0.09259 0.0
C639 C 0.03184 0.36668 0.13473 0.0
C640 C 0.01692 0.34667 0.06848 0.0
C641 C 0.01548 0.34212 0.15273 0.0
C642 C 0.00069 0.31985 0.12899 0.0
C643 C 0.99144 0.29899 0.06292 0.0
C644 C -0.00415 0.30082 0.02104 0.0
C645 C 0.0023 0.32173 0.08683 0.0
C646 C 0.00836 0.32574 0.00279 0.0
C647 C 0.01868 0.34849 0.02631 0.0
H648 H 0.65612 0.64158 0.32461 0.0
H649 H 0.63406 0.58522 0.4211 0.0
H650 H 0.644 0.61956 0.47057 0.0
H651 H 0.66727 0.66665 0.4866 0.0
H652 H 0.69007 0.72317 0.39022 0.0
H653 H 0.67093 0.68776 0.34088 0.0
C654 C 0.6528 0.63668 0.35638 0.0
C655 C 0.64504 0.61101 0.36912 0.0
C656 C 0.65902 0.65666 0.38488 0.0
C657 C 0.64044 0.60491 0.4104 0.0
C658 C 0.64624 0.62458 0.43884 0.0
C659 C 0.66738 0.67121 0.45492 0.0
C660 C 0.68072 0.69752 0.4421 0.0
C661 C 0.65684 0.65073 0.4265 0.0
C662 C 0.68031 0.70308 0.40095 0.0
C663 C 0.66949 0.68281 0.37258 0.0
H664 H 0.2618 0.9741 0.40846 0.0
H665 H 0.30657 -0.00018 0.51866 0.0
H666 H 0.34748 0.01798 0.4802 0.0
H667 H 0.37014 0.03341 0.41528 0.0
H668 H 0.32523 0.01009 0.30506 0.0
H669 H 0.28485 0.98376 0.3435 0.0
C670 C 0.28048 0.98311 0.42417 0.0
C671 C 0.28113 0.98605 0.46634 0.0
C672 C 0.30394 0.99427 0.40178 0.0
C673 C 0.3055 -0.00245 0.48621 0.0
C674 C 0.32893 0.00808 0.4642 0.0
C675 C 0.35161 0.02209 0.39955 0.0
C676 C 0.35065 0.02415 0.3574 0.0
C677 C 0.32836 0.00764 0.42192 0.0
C678 C 0.32651 0.00911 0.3375 0.0
C679 C 0.30336 0.99413 0.3595 0.0
H680 H 0.98074 0.3197 0.32566 0.0
H681 H 0.94965 0.34872 0.41761 0.0
H682 H 0.97154 0.33743 0.46958 0.0
H683 H 0.99243 0.31199 0.48938 0.0
H684 H 0.02213 0.2815 0.39759 0.0
H685 H 0.00851 0.30126 0.34531 0.0
C686 C 0.97926 0.32412 0.35698 0.0
C687 C 0.96307 0.33445 0.36778 0.0
C688 C 0.99147 0.31707 0.38689 0.0
C689 C 0.96166 0.3404 0.40846 0.0
C690 C 0.97412 0.33387 0.43829 0.0
C691 C -0.00341 0.31028 0.45801 0.0
C692 C 0.00772 0.29478 0.4474 0.0
C693 C 0.98803 0.32107 0.42798 0.0
C694 C 0.01326 0.29303 0.40661 0.0
C695 C 0.00532 0.30419 0.37661 0.0
H696 H 0.0458 0.66765 0.24259 0.0
H697 H -0.00318 0.64793 0.13688 0.0
H698 H 0.95821 0.63481 0.1793 0.0
H699 H 0.93755 0.62126 0.2459 0.0
H700 H 0.98624 0.6385 0.3515 0.0
H701 H 0.02572 0.6608 0.30976 0.0
C702 C 0.0268 0.6611 0.22877 0.0
C703 C 0.02413 0.65825 0.18664 0.0
C704 C 0.00452 0.65283 0.25341 0.0
C705 C -0.00061 0.64998 0.16925 0.0
C706 C 0.97725 0.64237 0.19351 0.0
C707 C 0.95679 0.6305 0.25995 0.0
C708 C 0.95892 0.62772 0.30167 0.0
C709 C 0.97941 0.64251 0.23561 0.0
C710 C 0.98401 0.64005 0.3194 0.0
C711 C 0.00663 0.65268 0.29549 0.0
H712 H 0.37127 0.31988 0.24611 0.0
H713 H 0.34368 0.341 0.35261 0.0
H714 H 0.32133 0.35786 0.31076 0.0
H715 H 0.3166 0.37373 0.24471 0.0
H716 H 0.34601 0.35451 0.13836 0.0
H717 H 0.36015 0.32937 0.17925 0.0
C718 C 0.35983 0.32757 0.26019 0.0
C719 C 0.35962 0.32966 0.30244 0.0
C720 C 0.3476 0.33791 0.23593 0.0
C721 C 0.34446 0.33944 0.32017 0.0
C722 C 0.33176 0.34922 0.29623 0.0
C723 C 0.32552 0.36351 0.23031 0.0
C724 C 0.33072 0.36646 0.18864 0.0
C725 C 0.33426 0.34968 0.25416 0.0
C726 C 0.34202 0.35283 0.17044 0.0
C727 C 0.35026 0.33855 0.19385 0.0
H728 H 0.6188 0.95614 0.23643 0.0
H729 H 0.64033 0.00571 0.13111 0.0
H730 H 0.66293 0.04474 0.17351 0.0
H731 H 0.67051 0.06466 0.24083 0.0
H732 H 0.64736 0.01496 0.34614 0.0
H733 H 0.63192 0.97621 0.30342 0.0
C734 C 0.62889 0.97546 0.22265 0.0
C735 C 0.62747 0.978 0.18072 0.0
C736 C 0.64136 -0.00215 0.24728 0.0
C737 C 0.64089 0.00317 0.16335 0.0
C738 C 0.65373 0.02554 0.1876 0.0
C739 C 0.66262 0.04541 0.25448 0.0
C740 C 0.65969 0.04269 0.2966 0.0
C741 C 0.65318 0.02312 0.22969 0.0
C742 C 0.6496 0.01761 0.31379 0.0
C743 C 0.64065 -0.0046 0.28936 0.0
H744 H 0.31094 0.93847 0.73987 0.0
H745 H 0.33179 0.98864 0.63534 0.0
H746 H 0.3485 0.02722 0.67881 0.0
H747 H 0.36409 0.04693 0.74564 0.0
H748 H 0.34514 -0.0033 0.84981 0.0
H749 H 0.32056 0.958 0.80741 0.0
C750 C 0.31853 0.95778 0.72656 0.0
C751 C 0.32055 0.96068 0.68439 0.0
C752 C 0.32887 0.97995 0.75171 0.0
C753 C 0.33021 0.98583 0.6677 0.0
C754 C 0.33996 0.00796 0.69256 0.0
C755 C 0.35414 0.02755 0.75921 0.0
C756 C 0.3569 0.0247 0.80072 0.0
C757 C 0.34051 0.00531 0.7345 0.0
C758 C 0.34362 -0.00054 0.81787 0.0
C759 C 0.3296 0.97728 0.79361 0.0
H760 H 0.05237 0.36766 0.74826 0.0
H761 H 0.00762 0.34449 0.63792 0.0
H762 H 0.96739 0.31695 0.67599 0.0
H763 H 0.94417 0.30677 0.74095 0.0
H764 H 0.98881 0.33212 0.8513 0.0
H765 H 0.02976 0.3509 0.81294 0.0
C766 C 0.03393 0.35609 0.73241 0.0
C767 C 0.03293 0.35864 0.69037 0.0
C768 C 0.01074 0.34089 0.7546 0.0
C769 C 0.00892 0.34319 0.6703 0.0
C770 C 0.98585 0.32752 0.6921 0.0
C771 C 0.96283 0.31574 0.7567 0.0
C772 C 0.96341 0.31855 0.7989 0.0
C773 C 0.98636 0.3273 0.73436 0.0
C774 C 0.98778 0.32999 0.81882 0.0
C775 C 0.01125 0.3409 0.79686 0.0
H776 H 0.65572 0.64801 0.82591 0.0
H777 H 0.67476 0.61088 0.72964 0.0
H778 H 0.66097 0.63197 0.67992 0.0
H779 H 0.63602 0.65421 0.66465 0.0
H780 H 0.61621 0.69063 0.76105 0.0
H781 H 0.63825 0.67709 0.80946 0.0
C782 C 0.65747 0.64506 0.79403 0.0
C783 C 0.66564 0.62739 0.7816 0.0
C784 C 0.64903 0.65687 0.76549 0.0
C785 C 0.66817 0.62409 0.74014 0.0
C786 C 0.66016 0.63605 0.71159 0.0
C787 C 0.63707 0.65973 0.69608 0.0
C788 C 0.62391 0.67282 0.70931 0.0
C789 C 0.64936 0.65144 0.72401 0.0
C790 C 0.62581 0.68017 0.75008 0.0
C791 C 0.63833 0.67235 0.7779 0.0
H792 H 0.20328 0.07806 0.91789 0.0
H793 H 0.26171 0.08518 0.00324 0.0
H794 H 0.27331 0.13077 0.01726 0.0
H795 H 0.26298 0.1667 0.01042 0.0
H796 H 0.20383 0.15806 0.92493 0.0
H797 H 0.19657 0.11503 0.90552 0.0
C798 C 0.21877 0.08967 0.93929 0.0
C799 C 0.23133 0.07822 0.96002 0.0
C800 C 0.22507 0.11554 0.94731 0.0
C801 C 0.25171 0.0936 0.98702 0.0
C802 C 0.25821 0.11958 -0.00483 0.0
C803 C 0.24884 0.15557 0.98708 0.0
C804 C 0.23366 0.16541 0.9696 0.0
C805 C 0.24448 0.13051 0.97629 0.0
C806 C 0.21553 0.15082 0.93923 0.0
C807 C 0.21132 0.12617 0.92811 0.0
H808 H 0.92412 0.11861 0.95482 0.0
H809 H 0.90679 0.17461 0.01027 0.0
H810 H 0.86134 0.13945 0.02288 0.0
H811 H 0.82701 0.09207 0.01998 0.0
H812 H 0.84579 0.0376 0.9621 0.0
H813 H 0.89015 0.07297 0.94857 0.0
C814 C 0.91048 0.12323 0.96979 0.0
C815 C 0.91892 0.14912 0.9821 0.0
C816 C 0.88458 0.10313 0.97648 0.0
C817 C 0.90079 0.15479 0.00064 0.0
C818 C 0.87484 0.13468 0.0079 0.0
C819 C 0.84081 0.08804 0.00423 0.0
C820 C 0.83306 0.06212 0.99239 0.0
C821 C 0.86656 0.10867 -0.00377 0.0
C822 C 0.85114 0.05726 0.97174 0.0
C823 C 0.8766 0.07749 0.96399 0.0
H824 H 0.86021 0.77999 0.91326 0.0
H825 H 0.80737 0.71833 -0.00642 0.0
H826 H 0.8429 0.70984 0.01221 0.0
H827 H 0.89034 0.7233 0.01034 0.0
H828 H 0.94235 0.78621 0.93077 0.0
H829 H 0.90571 0.79083 0.90723 0.0
C830 C 0.85631 0.7645 0.93464 0.0
C831 C 0.8313 0.75006 0.95245 0.0
C832 C 0.87679 0.76014 0.94561 0.0
C833 C 0.82648 0.72976 0.97948 0.0
C834 C 0.84684 0.72504 0.99032 0.0
C835 C 0.89354 0.73778 0.98752 0.0
C836 C 0.91914 0.75462 0.97271 0.0
C837 C 0.87229 0.74061 0.97434 0.0
C838 C 0.92295 0.77322 0.94303 0.0
C839 C 0.902 0.77588 0.92948 0.0
H840 H 0.14315 0.19824 0.51431 0.0
H841 H 0.17197 0.27184 0.4516 0.0
H842 H 0.13045 0.27093 0.4653 0.0
H843 H 0.08498 0.24788 0.49289 0.0
H844 H 0.05721 0.17379 0.55419 0.0
H845 H 0.0993 0.17637 0.54329 0.0
C846 C 0.14046 0.21419 0.50371 0.0
C847 C 0.16055 0.23498 0.48177 0.0
C848 C 0.11663 0.21341 0.51137 0.0
C849 C 0.15675 0.25554 0.46848 0.0
C850 C 0.13301 0.255 0.47627 0.0
C851 C 0.08826 0.23244 0.50409 0.0
C852 C 0.06782 0.21059 0.52407 0.0
C853 C 0.11266 0.23386 0.49737 0.0
C854 C 0.07241 0.19073 0.53836 0.0
C855 C 0.09653 0.19215 0.53222 0.0
H856 H 0.78604 0.87142 0.54448 0.0
H857 H 0.71694 0.82007 0.47552 0.0
H858 H 0.70783 0.85615 0.46563 0.0
H859 H 0.72216 0.9036 0.47182 0.0
H860 H 0.79157 0.95381 0.54151 0.0
H861 H 0.79775 0.91679 0.5561 0.0
C862 C 0.76886 0.86803 0.52746 0.0
C863 C 0.75242 0.84329 0.51021 0.0
C864 C 0.76388 0.88872 0.52191 0.0
C865 C 0.72995 0.83903 0.48898 0.0
C866 C 0.72482 0.85968 0.48319 0.0
C867 C 0.73839 0.9063 0.49064 0.0
C868 C 0.75659 0.93154 0.50505 0.0
C869 C 0.74201 0.88481 0.4988 0.0
C870 C 0.77744 0.9347 0.52961 0.0
C871 C 0.78104 0.91354 0.53799 0.0
H872 H 0.0748 0.81122 0.46514 0.0
H873 H 0.01894 0.82552 0.52893 0.0
H874 H 0.05359 0.86946 0.54623 0.0
H875 H 0.09868 0.90473 0.54001 0.0
H876 H 0.15584 0.89226 0.47711 0.0
H877 H 0.12186 0.84659 0.46314 0.0
C878 C 0.07034 0.82391 0.48312 0.0
C879 C 0.04422 0.81517 0.49527 0.0
C880 C 0.09051 0.84948 0.49299 0.0
C881 C 0.03876 0.83178 0.51878 0.0
C882 C 0.05858 0.85697 0.52875 0.0
C883 C 0.10381 0.89205 0.52329 0.0
C884 C 0.12961 0.90195 0.50908 0.0
C885 C 0.08434 0.86615 0.5154 0.0
C886 C 0.13605 0.88509 0.48825 0.0
C887 C 0.1166 0.85904 0.48015 0.0
H888 H 0.79233 0.91032 0.0403 0.0
H889 H 0.72613 0.90349 0.9741 0.0
H890 H 0.71261 0.85777 0.95698 0.0
H891 H 0.72178 0.82071 0.95743 0.0
H892 H 0.78848 0.8293 0.0249 0.0
H893 H 0.79952 0.87332 0.04497 0.0
C894 C 0.77488 0.89886 0.02216 0.0
C895 C 0.76048 0.91036 0.00796 0.0
C896 C 0.76737 0.87289 0.01256 0.0
C897 C 0.7376 0.89507 0.98526 0.0
C898 C 0.72995 0.86898 0.97537 0.0
C899 C 0.73855 0.83218 0.97681 0.0
C900 C 0.75446 0.82181 0.98918 0.0
C901 C 0.74497 0.8578 0.98832 0.0
C902 C 0.77604 0.83684 0.01452 0.0
C903 C 0.78242 0.86207 0.02609 0.0
H904 H 0.16016 0.89647 0.97192 0.0
H905 H 0.1462 0.95303 0.03387 0.0
H906 H 0.10234 0.91847 0.05274 0.0
H907 H 0.06687 0.87308 0.0479 0.0
H908 H 0.07967 0.81569 0.9866 0.0
H909 H 0.12513 0.8496 0.97172 0.0
C910 C 0.14758 0.90115 0.98985 0.0
C911 C 0.15638 0.92738 0.00103 0.0
C912 C 0.12214 0.88108 0.00062 0.0
C913 C 0.13991 0.93308 0.02454 0.0
C914 C 0.11476 0.91333 0.03537 0.0
C915 C 0.07961 0.86789 0.03147 0.0
C916 C 0.06979 0.84197 0.01795 0.0
C917 C 0.10552 0.8874 0.02293 0.0
C918 C 0.08673 0.83552 -0.0027 0.0
C919 C 0.11269 0.85493 0.98862 0.0
H920 H 0.15891 0.25231 0.98614 0.0
H921 H 0.11617 0.18671 0.06667 0.0
H922 H 0.0779 0.19227 0.06311 0.0
H923 H 0.05518 0.21298 0.03296 0.0
H924 H 0.09605 0.27725 0.94965 0.0
H925 H 0.13639 0.27521 0.9587 0.0
C926 C 0.14133 0.23957 0.00332 0.0
C927 C 0.14029 0.219 0.02636 0.0
C928 C 0.11896 0.24247 0.00039 0.0
C929 C 0.11735 0.2025 0.04834 0.0
C930 C 0.09543 0.20565 0.04636 0.0
C931 C 0.07295 0.22674 0.01702 0.0
C932 C 0.07252 0.24505 0.9904 0.0
C933 C 0.09579 0.22512 0.02176 0.0
C934 C 0.09581 0.26284 0.9702 0.0
C935 C 0.11888 0.26164 0.97529 0.0
H936 H 0.89745 0.7762 0.4148 0.0
H937 H 0.88562 0.71545 0.49902 0.0
H938 H 0.841 0.7071 0.51323 0.0
H939 H 0.80723 0.72049 0.50633 0.0
H940 H 0.82077 0.78211 0.42236 0.0
H941 H 0.86285 0.7866 0.40334 0.0
C942 C 0.88506 0.76095 0.43608 0.0
C943 C 0.89493 0.74674 0.45632 0.0
C944 C 0.85981 0.75657 0.44432 0.0
C945 C 0.87846 0.7267 0.48314 0.0
C946 C 0.85304 0.72206 0.49142 0.0
C947 C 0.81926 0.73464 0.4835 0.0
C948 C 0.81102 0.7512 0.46619 0.0
C949 C 0.84376 0.73737 0.47292 0.0
C950 C 0.82675 0.76933 0.4365 0.0
C951 C 0.85085 0.77194 0.42558 0.0
H952 H 0.18749 0.11283 0.42734 0.0
H953 H 0.25274 0.16547 0.50228 0.0
H954 H 0.26087 0.12954 0.51932 0.0
H955 H 0.24737 0.08225 0.51586 0.0
H956 H 0.18197 0.03073 0.4399 0.0
H957 H 0.17607 0.06723 0.42027 0.0
C958 C 0.20356 0.11654 0.44737 0.0
C959 C 0.21927 0.14169 0.46395 0.0
C960 C 0.20804 0.09594 0.45693 0.0
C961 C 0.24031 0.14625 0.48921 0.0
C962 C 0.24489 0.12569 0.49905 0.0
C963 C 0.232 0.07911 0.49477 0.0
C964 C 0.21496 0.0537 0.47974 0.0
C965 C 0.2286 0.10032 0.48355 0.0
C966 C 0.19523 0.04999 0.45221 0.0
C967 C 0.1918 0.07086 0.44094 0.0
H968 H 0.93708 0.15442 0.44948 0.0
H969 H 0.89738 0.17836 0.53435 0.0
H970 H 0.85605 0.13723 0.52265 0.0
H971 H 0.83245 0.09237 0.49304 0.0
H972 H 0.87395 0.06912 0.41026 0.0
H973 H 0.91318 0.11209 0.4162 0.0
C974 C 0.91934 0.15079 0.46518 0.0
C975 C 0.92035 0.16921 0.49311 0.0
C976 C 0.89595 0.12709 0.45883 0.0
C977 C 0.89712 0.16439 0.5128 0.0
C978 C 0.87352 0.14083 0.50623 0.0
C979 C 0.84997 0.09694 0.47588 0.0
C980 C 0.85039 0.07748 0.45167 0.0
C981 C 0.87285 0.12172 0.48003 0.0
C982 C 0.87323 0.08362 0.42959 0.0
C983 C 0.8957 0.1082 0.4329 0.0
H984 H 0.92751 0.49692 0.34403 0.0
H985 H 0.86214 0.48493 0.2697 0.0
H986 H 0.85466 0.44189 0.2498 0.0
H987 H 0.86426 0.40639 0.25734 0.0
H988 H 0.92934 0.41725 0.3311 0.0
H989 H 0.93951 0.46211 0.34712 0.0
C990 C 0.91186 0.485 0.3231 0.0
C991 C 0.89521 0.49402 0.30877 0.0
C992 C 0.90747 0.46002 0.31192 0.0
C993 C 0.8751 0.4784 0.28149 0.0
C994 C 0.87075 0.45373 0.27011 0.0
C995 C 0.88077 0.41857 0.27683 0.0
C996 C 0.89579 0.40838 0.29349 0.0
C997 C 0.88641 0.44413 0.28585 0.0
C998 C 0.9174 0.42461 0.31802 0.0
C999 C 0.92316 0.45021 0.32727 0.0
H1000 H 0.57178 0.48967 0.32892 0.0
H1001 H 0.60024 0.4391 0.28546 0.0
H1002 H 0.5568 0.40092 0.29392 0.0
H1003 H 0.51129 0.38144 0.31532 0.0
H1004 H 0.48191 0.43049 0.36148 0.0
H1005 H 0.52503 0.46966 0.35003 0.0
C1006 C 0.56839 0.4703 0.32116 0.0
C1007 C 0.58935 0.46733 0.30676 0.0
C1008 C 0.54322 0.44812 0.32657 0.0
C1009 C 0.58462 0.44204 0.29695 0.0
C1010 C 0.55973 0.42012 0.30166 0.0
C1011 C 0.51419 0.40069 0.32271 0.0
C1012 C 0.49342 0.40303 0.33926 0.0
C1013 C 0.53898 0.42289 0.31671 0.0
C1014 C 0.49761 0.42815 0.34873 0.0
C1015 C 0.52227 0.45053 0.34224 0.0
H1016 H 0.53234 0.14075 0.29518 0.0
H1017 H 0.47718 0.06566 0.34679 0.0
H1018 H 0.51311 0.05647 0.35845 0.0
H1019 H 0.56088 0.07104 0.35617 0.0
H1020 H 0.61457 0.14614 0.30246 0.0
H1021 H 0.57842 0.15394 0.28932 0.0
C1022 C 0.52807 0.12235 0.3091 0.0
C1023 C 0.50219 0.10408 0.32065 0.0
C1024 C 0.54861 0.1172 0.31529 0.0
C1025 C 0.49698 0.08011 0.33781 0.0
C1026 C 0.51753 0.07489 0.34451 0.0
C1027 C 0.56457 0.08899 0.34134 0.0
C1028 C 0.59048 0.10807 0.33068 0.0
C1029 C 0.54351 0.09344 0.33369 0.0
C1030 C 0.59492 0.13117 0.31125 0.0
C1031 C 0.57425 0.13571 0.30373 0.0
H1032 H 0.8257 0.58531 0.80491 0.0
H1033 H 0.80348 0.50801 0.8499 0.0
H1034 H 0.75998 0.50045 0.86694 0.0
H1035 H 0.72791 0.51491 0.86793 0.0
H1036 H 0.74873 0.59194 0.82379 0.0
H1037 H 0.79314 0.6005 0.8078 0.0
C1038 C 0.81133 0.56687 0.81854 0.0
C1039 C 0.81786 0.54722 0.82591 0.0
C1040 C 0.78611 0.56255 0.8284 0.0
C1041 C 0.79904 0.52346 0.84374 0.0
C1042 C 0.7741 0.51907 0.85353 0.0
C1043 C 0.74208 0.53364 0.8548 0.0
C1044 C 0.73489 0.55268 0.84684 0.0
C1045 C 0.76738 0.53837 0.84575 0.0
C1046 C 0.75371 0.5769 0.8302 0.0
C1047 C 0.77909 0.58178 0.82099 0.0
H1048 H 0.44427 0.19868 0.9073 0.0
H1049 H 0.39054 0.14992 0.81476 0.0
H1050 H 0.37999 0.18448 0.79941 0.0
H1051 H 0.39024 0.23068 0.80761 0.0
H1052 H 0.44472 0.2786 0.90038 0.0
H1053 H 0.45057 0.24212 0.92058 0.0
C1054 C 0.43002 0.19548 0.88401 0.0
C1055 C 0.41851 0.17204 0.86171 0.0
C1056 C 0.42433 0.21537 0.87527 0.0
C1057 C 0.3997 0.16789 0.83223 0.0
C1058 C 0.39381 0.1877 0.82333 0.0
C1059 C 0.40301 0.23294 0.83268 0.0
C1060 C 0.41736 0.25747 0.85205 0.0
C1061 C 0.4066 0.21184 0.84393 0.0
C1062 C 0.43373 0.26006 0.88461 0.0
C1063 C 0.43713 0.23922 0.8962 0.0
H1064 H 0.7233 0.16594 0.87517 0.0
H1065 H 0.75673 0.14378 0.77737 0.0
H1066 H 0.79885 0.18441 0.78606 0.0
H1067 H 0.82471 0.22862 0.81713 0.0
H1068 H 0.78954 0.2506 0.91259 0.0
H1069 H 0.74985 0.20764 0.90959 0.0
C1070 C 0.73988 0.16983 0.85597 0.0
C1071 C 0.73677 0.15203 0.82533 0.0
C1072 C 0.7638 0.19333 0.86073 0.0
C1073 C 0.75853 0.15725 0.80102 0.0
C1074 C 0.78262 0.18053 0.80595 0.0
C1075 C 0.80855 0.22368 0.83777 0.0
C1076 C 0.80992 0.24273 0.86486 0.0
C1077 C 0.78532 0.19905 0.83509 0.0
C1078 C 0.78879 0.23628 0.89126 0.0
C1079 C 0.76607 0.21176 0.88951 0.0
H1080 H 0.43409 0.17086 0.3767 0.0
H1081 H 0.37501 0.15208 0.28567 0.0
H1082 H 0.37841 0.19504 0.29549 0.0
H1083 H 0.40127 0.23968 0.32644 0.0
H1084 H 0.46164 0.25751 0.41507 0.0
H1085 H 0.45454 0.21326 0.40977 0.0
C1086 C 0.42175 0.176 0.35918 0.0
C1087 C 0.40454 0.15841 0.33025 0.0
C1088 C 0.42419 0.20075 0.36439 0.0
C1089 C 0.38853 0.16534 0.30808 0.0
C1090 C 0.39054 0.18994 0.31359 0.0
C1091 C 0.41257 0.23368 0.34484 0.0
C1092 C 0.43217 0.25196 0.37072 0.0
C1093 C 0.40875 0.20808 0.3411 0.0
C1094 C 0.44672 0.24396 0.39442 0.0
C1095 C 0.44266 0.21862 0.39153 0.0
H1096 H 0.82116 0.2756 0.36194 0.0
H1097 H 0.83804 0.22995 0.27796 0.0
H1098 H 0.79533 0.19105 0.29299 0.0
H1099 H 0.75155 0.17105 0.32667 0.0
H1100 H 0.73605 0.21829 0.40987 0.0
H1101 H 0.77984 0.25532 0.39866 0.0
C1102 C 0.81561 0.25711 0.34704 0.0
C1103 C 0.83258 0.25574 0.31856 0.0
C1104 C 0.79115 0.23506 0.35563 0.0
C1105 C 0.82524 0.23154 0.29995 0.0
C1106 C 0.80079 0.20932 0.30845 0.0
C1107 C 0.75794 0.18934 0.3427 0.0
C1108 C 0.74035 0.19192 0.36867 0.0
C1109 C 0.78333 0.21095 0.33577 0.0
C1110 C 0.74897 0.21579 0.38926 0.0
C1111 C 0.77407 0.23706 0.38293 0.0
H1112 H 0.82453 0.58385 0.3247 0.0
H1113 H 0.78554 0.52446 0.41606 0.0
H1114 H 0.74702 0.52963 0.41234 0.0
H1115 H 0.72245 0.54691 0.37793 0.0
H1116 H 0.75946 0.60483 0.28418 0.0
H1117 H 0.80073 0.60467 0.29432 0.0
C1118 C 0.80778 0.57251 0.3443 0.0
C1119 C 0.80772 0.55362 0.37031 0.0
C1120 C 0.78522 0.57508 0.34125 0.0
C1121 C 0.78588 0.53891 0.39545 0.0
C1122 C 0.76383 0.54182 0.39334 0.0
C1123 C 0.73962 0.55975 0.36 0.0
C1124 C 0.7378 0.57554 0.32999 0.0
C1125 C 0.76295 0.55917 0.36546 0.0
C1126 C 0.76033 0.59235 0.30739 0.0
C1127 C 0.78389 0.59218 0.31306 0.0
H1128 H 0.58818 0.13656 0.80715 0.0
H1129 H 0.56883 0.05869 0.84462 0.0
H1130 H 0.52285 0.04714 0.85491 0.0
H1131 H 0.48826 0.05975 0.85388 0.0
H1132 H 0.50883 0.13753 0.81338 0.0
H1133 H 0.55416 0.1484 0.8035 0.0
C1134 C 0.574 0.11706 0.81782 0.0
C1135 C 0.58201 0.09862 0.82557 0.0
C1136 C 0.54773 0.1105 0.82294 0.0
C1137 C 0.56319 0.0733 0.8386 0.0
C1138 C 0.53691 0.0667 0.84446 0.0
C1139 C 0.50268 0.079 0.84273 0.0
C1140 C 0.49511 0.09781 0.83459 0.0
C1141 C 0.52895 0.08519 0.83677 0.0
C1142 C 0.51401 0.12265 0.81994 0.0
C1143 C 0.54003 0.12896 0.81436 0.0
H1144 H 0.8668 0.44325 0.75154 0.0
H1145 H 0.92414 0.49556 0.83753 0.0
H1146 H 0.93694 0.46254 0.85169 0.0
H1147 H 0.92845 0.417 0.84413 0.0
H1148 H 0.87042 0.36535 0.75809 0.0
H1149 H 0.8615 0.40009 0.73913 0.0
C1150 C 0.88223 0.44754 0.77324 0.0
C1151 C 0.8942 0.47159 0.79399 0.0
C1152 C 0.88931 0.42854 0.78126 0.0
C1153 C 0.91455 0.47709 0.82133 0.0
C1154 C 0.92178 0.45819 0.82951 0.0
C1155 C 0.91419 0.41354 0.82077 0.0
C1156 C 0.89985 0.38851 0.80294 0.0
C1157 C 0.90884 0.43358 0.81032 0.0
C1158 C 0.88151 0.38433 0.7726 0.0
C1159 C 0.87634 0.40416 0.76177 0.0
H1160 H 0.60109 0.48228 0.79604 0.0
H1161 H 0.55937 0.50937 0.87102 0.0
H1162 H 0.51875 0.46702 0.86272 0.0
H1163 H 0.49603 0.42079 0.83802 0.0
H1164 H 0.53978 0.3947 0.76552 0.0
H1165 H 0.57851 0.43813 0.76883 0.0
C1166 C 0.5831 0.47907 0.81039 0.0
C1167 C 0.58332 0.49884 0.8344 0.0
C1168 C 0.56013 0.45471 0.80607 0.0
C1169 C 0.55974 0.49439 0.85247 0.0
C1170 C 0.53654 0.47016 0.84782 0.0
C1171 C 0.51397 0.42481 0.82261 0.0
C1172 C 0.5151 0.40447 0.80194 0.0
C1173 C 0.5366 0.44994 0.82527 0.0
C1174 C 0.53849 0.4099 0.78213 0.0
C1175 C 0.56068 0.43475 0.78392 0.0
H1176 H 0.53738 0.75346 0.59907 0.0
H1177 H 0.59051 0.7618 0.6946 0.0
H1178 H 0.60453 0.80872 0.70069 0.0
H1179 H 0.59755 0.84585 0.68329 0.0
H1180 H 0.54434 0.83622 0.58664 0.0
H1181 H 0.53491 0.79141 0.57582 0.0
C1182 C 0.55222 0.76566 0.62097 0.0
C1183 C 0.56258 0.75434 0.64691 0.0
C1184 C 0.56015 0.79232 0.62397 0.0
C1185 C 0.5822 0.77025 0.67456 0.0
C1186 C 0.59011 0.79697 0.67805 0.0
C1187 C 0.58436 0.8341 0.65931 0.0
C1188 C 0.5713 0.84417 0.63623 0.0
C1189 C 0.57869 0.80806 0.65355 0.0
C1190 C 0.55435 0.8288 0.60514 0.0
C1191 C 0.54886 0.80313 0.599 0.0
H1192 H 0.17492 0.72329 0.61477 0.0
H1193 H 0.14808 0.76374 0.69299 0.0
H1194 H 0.18997 0.80477 0.68355 0.0
H1195 H 0.23576 0.82832 0.65636 0.0
H1196 H 0.26158 0.78568 0.58074 0.0
H1197 H 0.21863 0.74649 0.58588 0.0
C1198 C 0.17807 0.74109 0.6296 0.0
C1199 C 0.15848 0.74039 0.65477 0.0
C1200 C 0.2022 0.76427 0.62469 0.0
C1201 C 0.16289 0.76372 0.67349 0.0
C1202 C 0.18688 0.78717 0.66821 0.0
C1203 C 0.23181 0.8105 0.64079 0.0
C1204 C 0.25198 0.80989 0.61859 0.0
C1205 C 0.20692 0.78758 0.6444 0.0
C1206 C 0.24659 0.78663 0.59855 0.0
C1207 C 0.22198 0.76416 0.60132 0.0
H1208 H 0.27326 0.46324 0.67057 0.0
H1209 H 0.22581 0.37917 0.68303 0.0
H1210 H 0.1857 0.382 0.6749 0.0
H1211 H 0.16437 0.40895 0.66299 0.0
H1212 H 0.21388 0.4933 0.65326 0.0
H1213 H 0.25271 0.48962 0.66181 0.0
C1214 C 0.25417 0.44545 0.67143 0.0
C1215 C 0.2525 0.42103 0.67702 0.0
C1216 C 0.23146 0.44728 0.66733 0.0
C1217 C 0.22758 0.39824 0.67864 0.0
C1218 C 0.20468 0.39987 0.67399 0.0
C1219 C 0.18365 0.42648 0.66294 0.0
C1220 C 0.18598 0.45133 0.65725 0.0
C1221 C 0.20637 0.42436 0.66816 0.0
C1222 C 0.21121 0.47385 0.65745 0.0
C1223 C 0.23362 0.47185 0.66228 0.0
H1224 H 0.41089 0.91182 0.14827 0.0
H1225 H 0.38555 0.83167 0.18237 0.0
H1226 H 0.4299 0.83962 0.17391 0.0
H1227 H 0.47565 0.86856 0.15667 0.0
H1228 H 0.50243 0.94836 0.11998 0.0
H1229 H 0.45788 0.94132 0.12978 0.0
C1230 C 0.41512 0.89614 0.15382 0.0
C1231 C 0.39474 0.87117 0.16587 0.0
C1232 C 0.44095 0.90073 0.14855 0.0
C1233 C 0.40064 0.85106 0.17283 0.0
C1234 C 0.4261 0.85555 0.16813 0.0
C1235 C 0.47187 0.88453 0.15093 0.0
C1236 C 0.49235 0.90896 0.13776 0.0
C1237 C 0.44635 0.88023 0.156 0.0
C1238 C 0.48697 0.92933 0.13019 0.0
C1239 C 0.46151 0.9253 0.13576 0.0
H1240 H 0.11414 0.59977 0.19145 0.0
H1241 H 0.04423 0.5517 0.1218 0.0
H1242 H 0.04873 0.51305 0.13485 0.0
H1243 H 0.07461 0.49369 0.16272 0.0
H1244 H 0.14527 0.54365 0.23009 0.0
H1245 H 0.13832 0.58064 0.22118 0.0
C1246 C 0.09972 0.58082 0.17927 0.0
C1247 C 0.07901 0.57868 0.15543 0.0
C1248 C 0.10269 0.55898 0.18627 0.0
C1249 C 0.06042 0.5539 0.14019 0.0
C1250 C 0.06305 0.53183 0.14754 0.0
C1251 C 0.08831 0.51263 0.17567 0.0
C1252 C 0.11058 0.51587 0.19667 0.0
C1253 C 0.08441 0.53422 0.17 0.0
C1254 C 0.12816 0.54058 0.21331 0.0
C1255 C 0.12419 0.56182 0.20836 0.0
H1256 H 0.49481 0.58169 0.17223 0.0
H1257 H 0.44795 0.59972 0.2524 0.0
H1258 H 0.41108 0.55533 0.24522 0.0
H1259 H 0.39069 0.5128 0.21199 0.0
H1260 H 0.43587 0.49408 0.12963 0.0
H1261 H 0.47483 0.53703 0.14228 0.0
C1262 C 0.47664 0.57572 0.18851 0.0
C1263 C 0.47407 0.59412 0.21242 0.0
C1264 C 0.45512 0.55007 0.18371 0.0
C1265 C 0.45037 0.5861 0.23332 0.0
C1266 C 0.42923 0.56068 0.22932 0.0
C1267 C 0.40912 0.51795 0.19708 0.0
C1268 C 0.41029 0.50038 0.1696 0.0
C1269 C 0.43117 0.54273 0.20388 0.0
C1270 C 0.43441 0.50731 0.15083 0.0
C1271 C 0.45667 0.53192 0.15793 0.0
H1272 H 0.07564 0.57365 0.65159 0.0
H1273 H 0.1509 0.60257 0.70984 0.0
H1274 H 0.14512 0.55879 0.70981 0.0
H1275 H 0.12015 0.513 0.69149 0.0
H1276 H 0.04623 0.48275 0.62908 0.0
H1277 H 0.04983 0.52618 0.63301 0.0
C1278 C 0.09066 0.57025 0.66431 0.0
C1279 C 0.11376 0.59145 0.68037 0.0
C1280 C 0.08747 0.54481 0.6636 0.0
C1281 C 0.1331 0.58677 0.69675 0.0
C1282 C 0.12979 0.56167 0.69698 0.0
C1283 C 0.10463 0.51571 0.67894 0.0
C1284 C 0.08297 0.49465 0.66 0.0
C1285 C 0.10724 0.54066 0.68021 0.0
C1286 C 0.06314 0.49867 0.64385 0.0
C1287 C 0.06525 0.52351 0.64597 0.0
H1288 H 0.39945 0.54286 0.72015 0.0
H1289 H 0.41514 0.48946 0.65252 0.0
H1290 H 0.45996 0.52527 0.63847 0.0
H1291 H 0.49409 0.57245 0.64354 0.0
H1292 H 0.4771 0.62462 0.7124 0.0
H1293 H 0.43338 0.58848 0.72785 0.0
C1294 C 0.41259 0.53893 0.70225 0.0
C1295 C 0.40383 0.51355 0.68702 0.0
C1296 C 0.43814 0.55944 0.69451 0.0
C1297 C 0.42136 0.50883 0.66451 0.0
C1298 C 0.44696 0.52932 0.65642 0.0
C1299 C 0.48085 0.57582 0.66211 0.0
C1300 C 0.48885 0.60129 0.67653 0.0
C1301 C 0.4555 0.5548 0.67099 0.0
C1302 C 0.47149 0.60531 0.70072 0.0
C1303 C 0.44642 0.58464 0.70958 0.0
H1304 H 0.38446 0.87795 0.68461 0.0
H1305 H 0.42548 0.94809 0.61245 0.0
H1306 H 0.46684 0.94805 0.62217 0.0
H1307 H 0.49053 0.92568 0.64695 0.0
H1308 H 0.44763 0.85433 0.71622 0.0
H1309 H 0.40795 0.85735 0.71194 0.0
C1310 C 0.40246 0.8934 0.67123 0.0
C1311 C 0.40185 0.91284 0.64756 0.0
C1312 C 0.42587 0.89294 0.67624 0.0
C1313 C 0.42541 0.9328 0.63069 0.0
C1314 C 0.44905 0.93275 0.63615 0.0
C1315 C 0.47256 0.91106 0.66149 0.0
C1316 C 0.47197 0.8897 0.68153 0.0
C1317 C 0.44942 0.91258 0.65823 0.0
C1318 C 0.44853 0.8708 0.70015 0.0
C1319 C 0.4258 0.87249 0.6978 0.0
H1320 H 0.18198 0.45516 0.13099 0.0
H1321 H 0.15662 0.38531 0.20242 0.0
H1322 H 0.19922 0.38799 0.19141 0.0
H1323 H 0.24513 0.4124 0.16518 0.0
H1324 H 0.26951 0.48309 0.09601 0.0
H1325 H 0.22592 0.47775 0.10236 0.0
C1326 C 0.18562 0.44036 0.14396 0.0
C1327 C 0.16622 0.42021 0.16775 0.0
C1328 C 0.21015 0.44227 0.13808 0.0
C1329 C 0.17127 0.40111 0.18406 0.0
C1330 C 0.19566 0.40267 0.17787 0.0
C1331 C 0.24073 0.4264 0.15118 0.0
C1332 C 0.26068 0.44826 0.13052 0.0
C1333 C 0.21548 0.42348 0.15549 0.0
C1334 C 0.25469 0.46629 0.11257 0.0
C1335 C 0.22971 0.46325 0.11608 0.0
H1336 H 0.53332 0.79769 0.09346 0.0
H1337 H 0.59558 0.85364 0.16982 0.0
H1338 H 0.60505 0.81929 0.19155 0.0
H1339 H 0.59289 0.77211 0.19256 0.0
H1340 H 0.52972 0.71732 0.11595 0.0
H1341 H 0.52343 0.7525 0.09065 0.0
C1342 C 0.54909 0.80252 0.11476 0.0
C1343 C 0.56348 0.82811 0.13042 0.0
C1344 C 0.55415 0.78276 0.12726 0.0
C1345 C 0.58415 0.83406 0.15737 0.0
C1346 C 0.58947 0.81438 0.16993 0.0
C1347 C 0.57797 0.768 0.16999 0.0
C1348 C 0.56158 0.742 0.15652 0.0
C1349 C 0.57421 0.78848 0.15566 0.0
C1350 C 0.5424 0.73701 0.1272 0.0
C1351 C 0.53878 0.75715 0.11265 0.0
H1352 H 0.15586 0.74164 0.15821 0.0
H1353 H 0.19717 0.7197 0.07291 0.0
H1354 H 0.2359 0.76301 0.07809 0.0
H1355 H 0.25937 0.80573 0.11014 0.0
H1356 H 0.22011 0.82852 0.19768 0.0
H1357 H 0.1793 0.78654 0.18801 0.0
C1358 C 0.17326 0.74654 0.14048 0.0
C1359 C 0.1737 0.72736 0.11558 0.0
C1360 C 0.19592 0.77158 0.14413 0.0
C1361 C 0.1964 0.73395 0.09277 0.0
C1362 C 0.21861 0.75875 0.09561 0.0
C1363 C 0.24185 0.80168 0.12694 0.0
C1364 C 0.24286 0.82011 0.15484 0.0
C1365 C 0.21878 0.77749 0.12178 0.0
C1366 C 0.21989 0.81458 0.17608 0.0
C1367 C 0.19657 0.79055 0.17065 0.0
H1368 H 0.24442 0.24509 0.16816 0.0
H1369 H 0.1959 0.16049 0.16265 0.0
H1370 H 0.19401 0.15813 0.2355 0.0
H1371 H 0.20261 0.17972 0.30052 0.0
H1372 H 0.25186 0.26375 0.30921 0.0
H1373 H 0.25726 0.2667 0.23547 0.0
C1374 C 0.23372 0.22615 0.18294 0.0
C1375 C 0.21996 0.20307 0.15969 0.0
C1376 C 0.23266 0.22479 0.22539 0.0
C1377 C 0.20642 0.17866 0.17947 0.0
C1378 C 0.20527 0.17721 0.22128 0.0
C1379 C 0.21469 0.19869 0.28628 0.0
C1380 C 0.22645 0.22151 0.30993 0.0
C1381 C 0.21772 0.20012 0.24442 0.0
C1382 C 0.24253 0.24592 0.2914 0.0
C1383 C 0.24549 0.24758 0.24931 0.0
H1384 H 0.74919 0.00102 0.17681 0.0
H1385 H 0.80577 0.97462 0.17 0.0
H1386 H 0.80463 0.96985 0.24265 0.0
H1387 H 0.78976 0.97505 0.30787 0.0
H1388 H 0.73533 0.00386 0.31837 0.0
H1389 H 0.73319 0.0055 0.24459 0.0
C1390 C 0.76109 0.99409 0.19136 0.0
C1391 C 0.77771 0.98841 0.16799 0.0
C1392 C 0.76078 0.99183 0.23375 0.0
C1393 C 0.79309 0.97949 0.18722 0.0
C1394 C 0.7924 0.97664 0.22882 0.0
C1395 C 0.77721 0.98155 0.29431 0.0
C1396 C 0.76279 0.98939 0.31881 0.0
C1397 C 0.77663 0.98307 0.25234 0.0
C1398 C 0.74668 -0.00228 0.3003 0.0
C1399 C 0.74552 -0.00126 0.2581 0.0
H1400 H 0.95968 0.77345 0.30328 0.0
H1401 H -0.00207 0.72739 0.31106 0.0
H1402 H -0.00138 0.72502 0.23691 0.0
H1403 H 0.99136 0.73969 0.16977 0.0
H1404 H 0.95206 0.78524 0.16587 0.0
H1405 H 0.94871 0.78401 0.23852 0.0
C1406 C 0.9681 0.76277 0.28878 0.0
C1407 C 0.97918 0.75105 0.31234 0.0
C1408 C 0.96835 0.76154 0.24677 0.0
C1409 C 0.98941 0.73671 0.29334 0.0
C1410 C 0.9899 0.73549 0.25104 0.0
C1411 C 0.98184 0.74908 0.18487 0.0
C1412 C 0.97245 0.76297 0.16215 0.0
C1413 C 0.9799 0.74836 0.22735 0.0
C1414 C 0.95991 0.77479 0.1823 0.0
C1415 C 0.95791 0.77411 0.22401 0.0
H1416 H 0.79477 0.78472 0.79181 0.0
H1417 H 0.7118 0.72973 0.80366 0.0
H1418 H 0.70775 0.72568 0.72978 0.0
H1419 H 0.72817 0.74026 0.66143 0.0
H1420 H 0.81197 0.7944 0.65378 0.0
H1421 H 0.81517 0.79616 0.72629 0.0
C1422 C 0.77572 0.77185 0.77833 0.0
C1423 C 0.75355 0.75796 0.80302 0.0
C1424 C 0.77369 0.76952 0.73644 0.0
C1425 C 0.72915 0.7408 0.78515 0.0
C1426 C 0.72686 0.73856 0.74296 0.0
C1427 C 0.74711 0.75224 0.67569 0.0
C1428 C 0.76969 0.76744 0.65181 0.0
C1429 C 0.74902 0.75317 0.71818 0.0
C1430 C 0.79413 0.78267 0.67097 0.0
C1431 C 0.79609 0.78376 0.71266 0.0
H1432 H 0.23076 0.98765 0.67089 0.0
H1433 H 0.15688 0.98705 0.66683 0.0
H1434 H 0.1544 0.98567 0.73968 0.0
H1435 H 0.17278 0.98517 0.80437 0.0
H1436 H 0.24723 0.98742 0.81177 0.0
H1437 H 0.24982 0.98753 0.73789 0.0
C1438 C 0.21415 0.9872 0.68603 0.0
C1439 C 0.1941 0.98753 0.6632 0.0
C1440 C 0.21287 0.98666 0.72852 0.0
C1441 C 0.17273 0.98701 0.68338 0.0
C1442 C 0.1712 0.98613 0.72518 0.0
C1443 C 0.18959 0.98553 0.79005 0.0
C1444 C 0.2097 0.98615 0.81369 0.0
C1445 C 0.19111 0.98601 0.74798 0.0
C1446 C 0.23141 0.98689 0.79432 0.0
C1447 C 0.2329 0.98698 0.75208 0.0
H1448 H 0.98102 0.18308 0.68394 0.0
H1449 H 0.00111 0.26385 0.6681 0.0
H1450 H 0.00384 0.26993 0.74158 0.0
H1451 H 0.00187 0.25208 0.81067 0.0
H1452 H 0.98381 0.17159 0.82268 0.0
H1453 H 0.97885 0.16567 0.7503 0.0
C1454 C 0.98585 0.20206 0.6963 0.0
C1455 C 0.9908 0.22295 0.67046 0.0
C1456 C 0.98785 0.20548 0.73805 0.0
C1457 C -0.00275 0.24742 0.68731 0.0
C1458 C -0.0012 0.25089 0.72932 0.0
C1459 C -0.00328 0.23328 0.79729 0.0
C1460 C -0.00663 0.21235 0.82204 0.0
C1461 C -0.00565 0.23005 0.75506 0.0
C1462 C 0.9868 0.1881 0.80435 0.0
C1463 C 0.98387 0.18463 0.76292 0.0
H1464 H 0.90697 0.57675 0.50874 0.0
H1465 H 0.87034 0.49223 0.50046 0.0
H1466 H 0.86879 0.4888 0.57325 0.0
H1467 H 0.87347 0.50878 0.63887 0.0
H1468 H 0.91067 0.59285 0.65044 0.0
H1469 H 0.91672 0.59757 0.57683 0.0
C1470 C 0.89906 0.55766 0.52292 0.0
C1471 C 0.8883 0.53476 0.49899 0.0
C1472 C 0.89808 0.5557 0.56532 0.0
C1473 C 0.87833 0.51018 0.51792 0.0
C1474 C 0.87741 0.50813 0.55966 0.0
C1475 C 0.88308 0.52818 0.62528 0.0
C1476 C 0.89115 0.5504 0.64964 0.0
C1477 C 0.88646 0.53061 0.58352 0.0
C1478 C 0.90415 0.57547 0.63201 0.0
C1479 C 0.90748 0.57811 0.59001 0.0
H1480 H 0.4611 0.3177 0.5227 0.0
H1481 H 0.40298 0.34181 0.51515 0.0
H1482 H 0.39715 0.33774 0.58876 0.0
H1483 H 0.41057 0.32917 0.65564 0.0
H1484 H 0.46755 0.3031 0.65972 0.0
H1485 H 0.47161 0.30594 0.58705 0.0
C1486 C 0.44717 0.32215 0.53713 0.0
C1487 C 0.43287 0.33053 0.51379 0.0
C1488 C 0.44369 0.31936 0.57886 0.0
C1489 C 0.41437 0.33552 0.53268 0.0
C1490 C 0.41108 0.33322 0.57469 0.0
C1491 C 0.42368 0.32391 0.64056 0.0
C1492 C 0.43891 0.3162 0.6634 0.0
C1493 C 0.4259 0.32541 0.59819 0.0
C1494 C 0.45563 0.30922 0.64322 0.0
C1495 C 0.45808 0.31089 0.60152 0.0
H1496 H 0.66079 0.08101 0.6472 0.0
H1497 H 0.64368 0.14348 0.66781 0.0
H1498 H 0.63881 0.14719 0.59594 0.0
H1499 H 0.64161 0.13482 0.52759 0.0
H1500 H 0.66081 0.07418 0.50374 0.0
H1501 H 0.66244 0.06748 0.57642 0.0
C1502 C 0.65578 0.09522 0.63581 0.0
C1503 C 0.65281 0.11208 0.66279 0.0
C1504 C 0.65349 0.09769 0.59394 0.0
C1505 C 0.64641 0.1305 0.64769 0.0
C1506 C 0.64354 0.13262 0.60657 0.0
C1507 C 0.646 0.11996 0.53803 0.0
C1508 C 0.65118 0.10512 0.51014 0.0
C1509 C 0.64742 0.11664 0.57947 0.0
C1510 C 0.65683 0.08598 0.52454 0.0
C1511 C 0.6578 0.08217 0.56611 0.0
H1512 H 0.40312 0.07897 0.1505 0.0
H1513 H 0.47727 0.15145 0.16157 0.0
H1514 H 0.48384 0.1526 0.08937 0.0
H1515 H 0.4687 0.13427 0.02329 0.0
H1516 H 0.39403 0.06304 0.0086 0.0
H1517 H 0.3876 0.06012 0.08197 0.0
C1518 C 0.42069 0.09492 0.137 0.0
C1519 C 0.43957 0.11515 0.16153 0.0
C1520 C 0.42432 0.09574 0.09487 0.0
C1521 C 0.46224 0.13575 0.14356 0.0
C1522 C 0.46613 0.13643 0.10218 0.0
C1523 C 0.45102 0.11792 0.0359 0.0
C1524 C 0.43193 0.09887 0.01038 0.0
C1525 C 0.44728 0.11667 0.07761 0.0
C1526 C 0.40908 0.078 0.02754 0.0
C1527 C 0.40539 0.07635 0.06948 0.0
H1528 H 0.87672 0.3511 0.13354 0.0
H1529 H 0.92283 0.31294 0.14288 0.0
H1530 H 0.92761 0.31414 0.06906 0.0
H1531 H 0.91471 0.32256 0.00161 0.0
H1532 H 0.86944 0.36209 -0.00456 0.0
H1533 H 0.86854 0.36401 0.06825 0.0
C1534 C 0.88798 0.34319 0.11941 0.0
C1535 C 0.89898 0.3315 0.14325 0.0
C1536 C 0.89067 0.34409 0.07751 0.0
C1537 C 0.91405 0.32189 0.12489 0.0
C1538 C 0.91666 0.32249 0.08276 0.0
C1539 C 0.90497 0.33189 0.01623 0.0
C1540 C 0.89173 0.34169 -0.00714 0.0
C1541 C 0.90448 0.33301 0.05866 0.0
C1542 C 0.87947 0.354 0.0124 0.0
C1543 C 0.87889 0.35513 0.05419 0.0
H1544 H 0.66339 0.57923 0.14688 0.0
H1545 H 0.6668 0.50753 0.15201 0.0
H1546 H 0.66412 0.50397 0.07937 0.0
H1547 H 0.66078 0.52041 0.01461 0.0
H1548 H 0.65878 0.59253 0.00537 0.0
H1549 H 0.66114 0.59682 0.07923 0.0
C1550 C 0.66351 0.56287 0.13197 0.0
C1551 C 0.66534 0.54372 0.15506 0.0
C1552 C 0.66228 0.56099 0.08948 0.0
C1553 C 0.66563 0.5227 0.13523 0.0
C1554 C 0.66402 0.52054 0.09355 0.0
C1555 C 0.66074 0.5371 0.02856 0.0
C1556 C 0.65934 0.55597 0.0045 0.0
C1557 C 0.66235 0.53949 0.07048 0.0
C1558 C 0.6598 0.57767 0.02324 0.0
C1559 C 0.66109 0.58008 0.06545 0.0
H1560 H 0.53261 0.86017 0.95882 0.0
H1561 H 0.58877 0.94285 0.96899 0.0
H1562 H 0.59421 0.94591 0.89528 0.0
H1563 H 0.58049 0.92489 0.82743 0.0
H1564 H 0.52511 0.84143 0.82116 0.0
H1565 H 0.52199 0.83902 0.89375 0.0
C1566 C 0.54607 0.87893 0.94499 0.0
C1567 C 0.55989 0.90133 0.96915 0.0
C1568 C 0.54917 0.88041 0.90317 0.0
C1569 C 0.57777 0.92533 0.95089 0.0
C1570 C 0.58079 0.92708 0.90879 0.0
C1571 C 0.56793 0.90619 0.84202 0.0
C1572 C 0.55287 0.88347 0.81851 0.0
C1573 C 0.56623 0.90474 0.88449 0.0
C1574 C 0.53687 0.85934 0.83808 0.0
C1575 C 0.53497 0.85785 0.8798 0.0
H1576 H 0.12535 0.64397 0.9631 0.0
H1577 H 0.05668 0.65204 0.97694 0.0
H1578 H 0.05606 0.65846 0.90386 0.0
H1579 H 0.07639 0.66309 0.83585 0.0
H1580 H 0.14683 0.65748 0.82635 0.0
H1581 H 0.14532 0.64884 0.89788 0.0
C1582 C 0.11001 0.64687 0.95031 0.0
C1583 C 0.09099 0.64732 0.97547 0.0
C1584 C 0.11023 0.65122 0.9089 0.0
C1585 C 0.07155 0.65153 0.9582 0.0
C1586 C 0.07123 0.65525 0.91644 0.0
C1587 C 0.09132 0.65994 0.84958 0.0
C1588 C 0.11178 0.66112 0.82572 0.0
C1589 C 0.09067 0.65537 0.89145 0.0
C1590 C 0.13105 0.65706 0.84394 0.0
C1591 C 0.13018 0.65196 0.88491 0.0
H1592 H 0.33142 0.41473 0.98283 0.0
H1593 H 0.36947 0.49955 0.983 0.0
H1594 H 0.36806 0.49991 0.91018 0.0
H1595 H 0.35297 0.47666 0.84685 0.0
H1596 H 0.316 0.39231 0.84312 0.0
H1597 H 0.32036 0.39123 0.91681 0.0
C1598 C 0.33965 0.43327 0.96687 0.0
C1599 C 0.35011 0.45703 0.98866 0.0
C1600 C 0.33885 0.43346 0.92439 0.0
C1601 C 0.36096 0.4809 0.96735 0.0
C1602 C 0.36019 0.4812 0.92554 0.0
C1603 C 0.346 0.45802 0.86215 0.0
C1604 C 0.33378 0.43459 0.83998 0.0
C1605 C 0.34864 0.45765 0.90392 0.0
C1606 C 0.32537 0.4106 0.85982 0.0
C1607 C 0.32776 0.41001 0.90187 0.0
H1608 H 0.08134 0.41673 0.48421 0.0
H1609 H 0.15717 0.48721 0.49513 0.0
H1610 H 0.16384 0.48771 0.42289 0.0
H1611 H 0.14821 0.46937 0.35676 0.0
H1612 H 0.07169 0.40043 0.34247 0.0
H1613 H 0.06524 0.39806 0.41581 0.0
C1614 C 0.09931 0.43208 0.47066 0.0
C1615 C 0.11867 0.45195 0.49506 0.0
C1616 C 0.10292 0.43258 0.42856 0.0
C1617 C 0.14182 0.47182 0.47709 0.0
C1618 C 0.14574 0.47211 0.43574 0.0
C1619 C 0.13014 0.45364 0.36951 0.0
C1620 C 0.11054 0.43504 0.34412 0.0
C1621 C 0.1264 0.45275 0.41123 0.0
C1622 C 0.08713 0.41503 0.36135 0.0
C1623 C 0.08344 0.41367 0.40327 0.0
H1624 H 0.52709 0.69141 0.36289 0.0
H1625 H 0.58858 0.67237 0.34664 0.0
H1626 H 0.59086 0.66809 0.41991 0.0
H1627 H 0.57341 0.66774 0.48885 0.0
H1628 H 0.51009 0.68469 0.50105 0.0
H1629 H 0.51053 0.69163 0.42919 0.0
C1630 C 0.54123 0.68653 0.37513 0.0
C1631 C 0.55762 0.68223 0.34916 0.0
C1632 C 0.54191 0.68344 0.41677 0.0
C1633 C 0.57569 0.6758 0.3659 0.0
C1634 C 0.57693 0.67326 0.40781 0.0
C1635 C 0.55981 0.67299 0.47566 0.0
C1636 C 0.54158 0.67539 0.50043 0.0
C1637 C 0.55982 0.67667 0.4336 0.0
C1638 C 0.52408 0.68227 0.48285 0.0
C1639 C 0.52436 0.68641 0.44165 0.0
H1640 H 0.31913 0.90275 0.33107 0.0
H1641 H 0.3243 0.832 0.32839 0.0
H1642 H 0.33005 0.83401 0.4009 0.0
H1643 H 0.33296 0.85489 0.46485 0.0
H1644 H 0.32561 0.92422 0.47108 0.0
H1645 H 0.32136 0.92375 0.39739 0.0
C1646 C 0.32158 0.88787 0.34647 0.0
C1647 C 0.32122 0.86723 0.32429 0.0
C1648 C 0.32448 0.88885 0.38871 0.0
C1649 C 0.32425 0.84797 0.34465 0.0
C1650 C 0.32764 0.84912 0.38617 0.0
C1651 C 0.33064 0.8701 0.45025 0.0
C1652 C 0.32984 0.88969 0.47342 0.0
C1653 C 0.32771 0.86936 0.40842 0.0
C1654 C 0.32635 0.90893 0.45389 0.0
C1655 C 0.32392 0.90865 0.41179 0.0
loop_
_geom_bond_atom_site_label_1
_geom_bond_atom_site_label_2
_geom_bond_distance
_geom_bond_site_symmetry_2
_ccdc_geom_bond_type
C0 O1 1.306 . S
C0 O3 1.160 . S
O1 C0 1.306 . S
O1 Cd2 2.228 . S
Cd2 O1 2.228 . S
Cd2 O6 2.273 . S
Cd2 O10 2.277 . S
O3 C0 1.160 . S
O3 Cd4 2.203 . S
Cd4 O3 2.203 . S
Cd4 O6 2.411 . S
Cd4 O7 2.333 . S
Cd4 O8 2.352 1_554 S
Cd4 O12 2.277 . S
Cd4 O13 2.356 . S
C5 O10 1.209 . S
C5 O12 1.226 . S
O6 Cd2 2.273 . S
O6 Cd4 2.411 . S
O6 C9 1.320 . S
O7 Cd4 2.333 . S
O7 C9 1.214 . S
O8 Cd4 2.352 1_556 S
O8 C11 1.258 . S
C9 O6 1.320 . S
C9 O7 1.214 . S
O10 Cd2 2.277 . S
O10 C5 1.209 . S
C11 O8 1.258 . S
C11 O13 1.282 1_556 S
O12 Cd4 2.277 . S
O12 C5 1.226 . S
O13 Cd4 2.356 . S
O13 C11 1.282 1_554 S
C14 O15 1.306 . S
C14 O17 1.160 . S
O15 C14 1.306 . S
O15 Cd16 2.228 1_565 S
Cd16 O15 2.228 1_545 S
Cd16 O20 2.273 . S
Cd16 O24 2.277 . S
O17 C14 1.160 . S
O17 Cd18 2.203 1_565 S
Cd18 O17 2.203 1_545 S
Cd18 O20 2.411 . S
Cd18 O21 2.333 . S
Cd18 O22 2.352 1_554 S
Cd18 O26 2.277 . S
Cd18 O27 2.356 . S
C19 O24 1.209 . S
C19 O26 1.226 . S
O20 Cd16 2.273 . S
O20 Cd18 2.411 . S
O20 C23 1.320 . S
O21 Cd18 2.333 . S
O21 C23 1.214 . S
O22 Cd18 2.352 1_556 S
O22 C25 1.258 . S
C23 O20 1.320 . S
C23 O21 1.214 . S
O24 Cd16 2.277 . S
O24 C19 1.209 . S
C25 O22 1.258 . S
C25 O27 1.282 1_556 S
O26 Cd18 2.277 . S
O26 C19 1.226 . S
O27 Cd18 2.356 . S
O27 C25 1.282 1_554 S
C28 O29 1.306 . S
C28 O31 1.160 . S
O29 C28 1.306 . S
O29 Cd30 2.228 1_455 S
Cd30 O29 2.228 1_655 S
Cd30 O34 2.273 . S
Cd30 O38 2.277 . S
O31 C28 1.160 . S
O31 Cd32 2.203 1_455 S
Cd32 O31 2.203 1_655 S
Cd32 O34 2.411 . S
Cd32 O35 2.333 . S
Cd32 O36 2.352 1_554 S
Cd32 O40 2.277 . S
Cd32 O41 2.356 . S
C33 O38 1.209 . S
C33 O40 1.226 . S
O34 Cd30 2.273 . S
O34 Cd32 2.411 . S
O34 C37 1.320 . S
O35 Cd32 2.333 . S
O35 C37 1.214 . S
O36 Cd32 2.352 1_556 S
O36 C39 1.258 . S
C37 O34 1.320 . S
C37 O35 1.214 . S
O38 Cd30 2.277 . S
O38 C33 1.209 . S
C39 O36 1.258 . S
C39 O41 1.282 1_556 S
O40 Cd32 2.277 . S
O40 C33 1.226 . S
O41 Cd32 2.356 . S
O41 C39 1.282 1_554 S
C42 O43 1.306 . S
C42 O45 1.160 . S
O43 C42 1.306 . S
O43 Cd44 2.228 . S
Cd44 O43 2.228 . S
Cd44 O48 2.273 . S
Cd44 O52 2.277 . S
O45 C42 1.160 . S
O45 Cd46 2.203 . S
Cd46 O45 2.203 . S
Cd46 O48 2.411 . S
Cd46 O49 2.333 . S
Cd46 O50 2.352 . S
Cd46 O54 2.277 . S
Cd46 O55 2.356 . S
C47 O52 1.209 . S
C47 O54 1.226 . S
O48 Cd44 2.273 . S
O48 Cd46 2.411 . S
O48 C51 1.320 . S
O49 Cd46 2.333 . S
O49 C51 1.214 . S
O50 Cd46 2.352 . S
O50 C53 1.258 . S
C51 O48 1.320 . S
C51 O49 1.214 . S
O52 Cd44 2.277 . S
O52 C47 1.209 . S
C53 O50 1.258 . S
C53 O55 1.282 . S
O54 Cd46 2.277 . S
O54 C47 1.226 . S
O55 Cd46 2.356 . S
O55 C53 1.282 . S
C56 O57 1.306 . S
C56 O59 1.160 . S
O57 C56 1.306 . S
O57 Cd58 2.228 1_545 S
Cd58 O57 2.228 1_565 S
Cd58 O62 2.273 . S
Cd58 O66 2.277 . S
O59 C56 1.160 . S
O59 Cd60 2.203 1_545 S
Cd60 O59 2.203 1_565 S
Cd60 O62 2.411 . S
Cd60 O63 2.333 . S
Cd60 O64 2.352 . S
Cd60 O68 2.277 . S
Cd60 O69 2.356 . S
C61 O66 1.209 . S
C61 O68 1.226 . S
O62 Cd58 2.273 . S
O62 Cd60 2.411 . S
O62 C65 1.320 . S
O63 Cd60 2.333 . S
O63 C65 1.214 . S
O64 Cd60 2.352 . S
O64 C67 1.258 . S
C65 O62 1.320 . S
C65 O63 1.214 . S
O66 Cd58 2.277 . S
O66 C61 1.209 . S
C67 O64 1.258 . S
C67 O69 1.282 . S
O68 Cd60 2.277 . S
O68 C61 1.226 . S
O69 Cd60 2.356 . S
O69 C67 1.282 . S
C70 O71 1.306 . S
C70 O73 1.160 . S
O71 C70 1.306 . S
O71 Cd72 2.228 1_655 S
Cd72 O71 2.228 1_455 S
Cd72 O76 2.273 . S
Cd72 O80 2.277 . S
O73 C70 1.160 . S
O73 Cd74 2.203 1_655 S
Cd74 O73 2.203 1_455 S
Cd74 O76 2.411 . S
Cd74 O77 2.333 . S
Cd74 O78 2.352 . S
Cd74 O82 2.277 . S
Cd74 O83 2.356 . S
C75 O80 1.209 . S
C75 O82 1.226 . S
O76 Cd72 2.273 . S
O76 Cd74 2.411 . S
O76 C79 1.320 . S
O77 Cd74 2.333 . S
O77 C79 1.214 . S
O78 Cd74 2.352 . S
O78 C81 1.258 . S
C79 O76 1.320 . S
C79 O77 1.214 . S
O80 Cd72 2.277 . S
O80 C75 1.209 . S
C81 O78 1.258 . S
C81 O83 1.282 . S
O82 Cd74 2.277 . S
O82 C75 1.226 . S
O83 Cd74 2.356 . S
O83 C81 1.282 . S
C84 O85 1.306 . S
C84 O87 1.160 . S
O85 C84 1.306 . S
O85 Cd86 2.228 . S
Cd86 O85 2.228 . S
Cd86 O90 2.273 . S
Cd86 O94 2.277 . S
O87 C84 1.160 . S
O87 Cd88 2.203 . S
Cd88 O87 2.203 . S
Cd88 O90 2.411 . S
Cd88 O91 2.333 . S
Cd88 O92 2.352 1_556 S
Cd88 O96 2.277 . S
Cd88 O97 2.356 . S
C89 O94 1.209 . S
C89 O96 1.226 . S
O90 Cd86 2.273 . S
O90 Cd88 2.411 . S
O90 C93 1.320 . S
O91 Cd88 2.333 . S
O91 C93 1.214 . S
O92 Cd88 2.352 1_554 S
O92 C95 1.258 . S
C93 O90 1.320 . S
C93 O91 1.214 . S
O94 Cd86 2.277 . S
O94 C89 1.209 . S
C95 O92 1.258 . S
C95 O97 1.282 1_554 S
O96 Cd88 2.277 . S
O96 C89 1.226 . S
O97 Cd88 2.356 . S
O97 C95 1.282 1_556 S
C98 O99 1.306 . S
C98 O101 1.160 . S
O99 C98 1.306 . S
O99 Cd100 2.228 1_545 S
Cd100 O99 2.228 1_565 S
Cd100 O104 2.273 . S
Cd100 O108 2.277 . S
O101 C98 1.160 . S
O101 Cd102 2.203 1_545 S
Cd102 O101 2.203 1_565 S
Cd102 O104 2.411 . S
Cd102 O105 2.333 . S
Cd102 O106 2.352 1_556 S
Cd102 O110 2.277 . S
Cd102 O111 2.356 . S
C103 O108 1.209 . S
C103 O110 1.226 . S
O104 Cd100 2.273 . S
O104 Cd102 2.411 . S
O104 C107 1.320 . S
O105 Cd102 2.333 . S
O105 C107 1.214 . S
O106 Cd102 2.352 1_554 S
O106 C109 1.258 . S
C107 O104 1.320 . S
C107 O105 1.214 . S
O108 Cd100 2.277 . S
O108 C103 1.209 . S
C109 O106 1.258 . S
C109 O111 1.282 1_554 S
O110 Cd102 2.277 . S
O110 C103 1.226 . S
O111 Cd102 2.356 . S
O111 C109 1.282 1_556 S
C112 O113 1.306 . S
C112 O115 1.160 . S
O113 C112 1.306 . S
O113 Cd114 2.228 1_655 S
Cd114 O113 2.228 1_455 S
Cd114 O118 2.273 . S
Cd114 O122 2.277 . S
O115 C112 1.160 . S
O115 Cd116 2.203 1_655 S
Cd116 O115 2.203 1_455 S
Cd116 O118 2.411 . S
Cd116 O119 2.333 . S
Cd116 O120 2.352 1_556 S
Cd116 O124 2.277 . S
Cd116 O125 2.356 . S
C117 O122 1.209 . S
C117 O124 1.226 . S
O118 Cd114 2.273 . S
O118 Cd116 2.411 . S
O118 C121 1.320 . S
O119 Cd116 2.333 . S
O119 C121 1.214 . S
O120 Cd116 2.352 1_554 S
O120 C123 1.258 . S
C121 O118 1.320 . S
C121 O119 1.214 . S
O122 Cd114 2.277 . S
O122 C117 1.209 . S
C123 O120 1.258 . S
C123 O125 1.282 1_554 S
O124 Cd116 2.277 . S
O124 C117 1.226 . S
O125 Cd116 2.356 . S
O125 C123 1.282 1_556 S
C126 O127 1.306 . S
C126 O129 1.160 . S
O127 C126 1.306 . S
O127 Cd128 2.228 . S
Cd128 O127 2.228 . S
Cd128 O132 2.273 . S
Cd128 O136 2.277 . S
O129 C126 1.160 . S
O129 Cd130 2.203 . S
Cd130 O129 2.203 . S
Cd130 O132 2.411 . S
Cd130 O133 2.333 . S
Cd130 O134 2.352 . S
Cd130 O138 2.277 . S
Cd130 O139 2.356 . S
C131 O136 1.209 . S
C131 O138 1.226 . S
O132 Cd128 2.273 . S
O132 Cd130 2.411 . S
O132 C135 1.320 . S
O133 Cd130 2.333 . S
O133 C135 1.214 . S
O134 Cd130 2.352 . S
O134 C137 1.258 . S
C135 O132 1.320 . S
C135 O133 1.214 . S
O136 Cd128 2.277 . S
O136 C131 1.209 . S
C137 O134 1.258 . S
C137 O139 1.282 . S
O138 Cd130 2.277 . S
O138 C131 1.226 . S
O139 Cd130 2.356 . S
O139 C137 1.282 . S
C140 O141 1.306 . S
C140 O143 1.160 . S
O141 C140 1.306 . S
O141 Cd142 2.228 1_565 S
Cd142 O141 2.228 1_545 S
Cd142 O146 2.273 . S
Cd142 O150 2.277 . S
O143 C140 1.160 . S
O143 Cd144 2.203 1_565 S
Cd144 O143 2.203 1_545 S
Cd144 O146 2.411 . S
Cd144 O147 2.333 . S
Cd144 O148 2.352 . S
Cd144 O152 2.277 . S
Cd144 O153 2.356 . S
C145 O150 1.209 . S
C145 O152 1.226 . S
O146 Cd142 2.273 . S
O146 Cd144 2.411 . S
O146 C149 1.320 . S
O147 Cd144 2.333 . S
O147 C149 1.214 . S
O148 Cd144 2.352 . S
O148 C151 1.258 . S
C149 O146 1.320 . S
C149 O147 1.214 . S
O150 Cd142 2.277 . S
O150 C145 1.209 . S
C151 O148 1.258 . S
C151 O153 1.282 . S
O152 Cd144 2.277 . S
O152 C145 1.226 . S
O153 Cd144 2.356 . S
O153 C151 1.282 . S
C154 O155 1.306 . S
C154 O157 1.160 . S
O155 C154 1.306 . S
O155 Cd156 2.228 1_455 S
Cd156 O155 2.228 1_655 S
Cd156 O160 2.273 . S
Cd156 O164 2.277 . S
O157 C154 1.160 . S
O157 Cd158 2.203 1_455 S
Cd158 O157 2.203 1_655 S
Cd158 O160 2.411 . S
Cd158 O161 2.333 . S
Cd158 O162 2.352 . S
Cd158 O166 2.277 . S
Cd158 O167 2.356 . S
C159 O164 1.209 . S
C159 O166 1.226 . S
O160 Cd156 2.273 . S
O160 Cd158 2.411 . S
O160 C163 1.320 . S
O161 Cd158 2.333 . S
O161 C163 1.214 . S
O162 Cd158 2.352 . S
O162 C165 1.258 . S
C163 O160 1.320 . S
C163 O161 1.214 . S
O164 Cd156 2.277 . S
O164 C159 1.209 . S
C165 O162 1.258 . S
C165 O167 1.282 . S
O166 Cd158 2.277 . S
O166 C159 1.226 . S
O167 Cd158 2.356 . S
O167 C165 1.282 . S
C168 O169 1.306 . S
C168 O171 1.160 . S
O169 C168 1.306 . S
O169 Cd170 2.228 . S
Cd170 O169 2.228 . S
Cd170 O174 2.273 . S
Cd170 O178 2.277 . S
O171 C168 1.160 . S
O171 Cd172 2.203 . S
Cd172 O171 2.203 . S
Cd172 O174 2.411 . S
Cd172 O175 2.333 . S
Cd172 O176 2.352 . S
Cd172 O180 2.277 . S
Cd172 O181 2.356 . S
C173 O178 1.209 . S
C173 O180 1.226 . S
O174 Cd170 2.273 . S
O174 Cd172 2.411 . S
O174 C177 1.320 . S
O175 Cd172 2.333 . S
O175 C177 1.214 . S
O176 Cd172 2.352 . S
O176 C179 1.258 . S
C177 O174 1.320 . S
C177 O175 1.214 . S
O178 Cd170 2.277 . S
O178 C173 1.209 . S
C179 O176 1.258 . S
C179 O181 1.282 . S
O180 Cd172 2.277 . S
O180 C173 1.226 . S
O181 Cd172 2.356 . S
O181 C179 1.282 . S
C182 O183 1.306 . S
C182 O185 1.160 . S
O183 C182 1.306 . S
O183 Cd184 2.228 . S
Cd184 O183 2.228 . S
Cd184 O188 2.273 . S
Cd184 O192 2.277 . S
O185 C182 1.160 . S
O185 Cd186 2.203 . S
Cd186 O185 2.203 . S
Cd186 O188 2.411 . S
Cd186 O189 2.333 . S
Cd186 O190 2.352 . S
Cd186 O194 2.277 . S
Cd186 O195 2.356 . S
C187 O192 1.209 . S
C187 O194 1.226 . S
O188 Cd184 2.273 . S
O188 Cd186 2.411 . S
O188 C191 1.320 . S
O189 Cd186 2.333 . S
O189 C191 1.214 . S
O190 Cd186 2.352 . S
O190 C193 1.258 . S
C191 O188 1.320 . S
C191 O189 1.214 . S
O192 Cd184 2.277 . S
O192 C187 1.209 . S
C193 O190 1.258 . S
C193 O195 1.282 . S
O194 Cd186 2.277 . S
O194 C187 1.226 . S
O195 Cd186 2.356 . S
O195 C193 1.282 . S
C196 O197 1.306 . S
C196 O199 1.160 . S
O197 C196 1.306 . S
O197 Cd198 2.228 . S
Cd198 O197 2.228 . S
Cd198 O202 2.273 . S
Cd198 O206 2.277 . S
O199 C196 1.160 . S
O199 Cd200 2.203 . S
Cd200 O199 2.203 . S
Cd200 O202 2.411 . S
Cd200 O203 2.333 . S
Cd200 O204 2.352 . S
Cd200 O208 2.277 . S
Cd200 O209 2.356 . S
C201 O206 1.209 . S
C201 O208 1.226 . S
O202 Cd198 2.273 . S
O202 Cd200 2.411 . S
O202 C205 1.320 . S
O203 Cd200 2.333 . S
O203 C205 1.214 . S
O204 Cd200 2.352 . S
O204 C207 1.258 . S
C205 O202 1.320 . S
C205 O203 1.214 . S
O206 Cd198 2.277 . S
O206 C201 1.209 . S
C207 O204 1.258 . S
C207 O209 1.282 . S
O208 Cd200 2.277 . S
O208 C201 1.226 . S
O209 Cd200 2.356 . S
O209 C207 1.282 . S
C210 O211 1.306 . S
C210 O213 1.160 . S
O211 C210 1.306 . S
O211 Cd212 2.228 . S
Cd212 O211 2.228 . S
Cd212 O216 2.273 . S
Cd212 O220 2.277 . S
O213 C210 1.160 . S
O213 Cd214 2.203 . S
Cd214 O213 2.203 . S
Cd214 O216 2.411 . S
Cd214 O217 2.333 . S
Cd214 O218 2.352 . S
Cd214 O222 2.277 . S
Cd214 O223 2.356 . S
C215 O220 1.209 . S
C215 O222 1.226 . S
O216 Cd212 2.273 . S
O216 Cd214 2.411 . S
O216 C219 1.320 . S
O217 Cd214 2.333 . S
O217 C219 1.214 . S
O218 Cd214 2.352 . S
O218 C221 1.258 . S
C219 O216 1.320 . S
C219 O217 1.214 . S
O220 Cd212 2.277 . S
O220 C215 1.209 . S
C221 O218 1.258 . S
C221 O223 1.282 . S
O222 Cd214 2.277 . S
O222 C215 1.226 . S
O223 Cd214 2.356 . S
O223 C221 1.282 . S
C224 O225 1.306 . S
C224 O227 1.160 . S
O225 C224 1.306 . S
O225 Cd226 2.228 . S
Cd226 O225 2.228 . S
Cd226 O230 2.273 . S
Cd226 O234 2.277 . S
O227 C224 1.160 . S
O227 Cd228 2.203 . S
Cd228 O227 2.203 . S
Cd228 O230 2.411 . S
Cd228 O231 2.333 . S
Cd228 O232 2.352 . S
Cd228 O236 2.277 . S
Cd228 O237 2.356 . S
C229 O234 1.209 . S
C229 O236 1.226 . S
O230 Cd226 2.273 . S
O230 Cd228 2.411 . S
O230 C233 1.320 . S
O231 Cd228 2.333 . S
O231 C233 1.214 . S
O232 Cd228 2.352 . S
O232 C235 1.258 . S
C233 O230 1.320 . S
C233 O231 1.214 . S
O234 Cd226 2.277 . S
O234 C229 1.209 . S
C235 O232 1.258 . S
C235 O237 1.282 . S
O236 Cd228 2.277 . S
O236 C229 1.226 . S
O237 Cd228 2.356 . S
O237 C235 1.282 . S
C238 O239 1.306 . S
C238 O241 1.160 . S
O239 C238 1.306 . S
O239 Cd240 2.228 . S
Cd240 O239 2.228 . S
Cd240 O244 2.273 . S
Cd240 O248 2.277 . S
O241 C238 1.160 . S
O241 Cd242 2.203 . S
Cd242 O241 2.203 . S
Cd242 O244 2.411 . S
Cd242 O245 2.333 . S
Cd242 O246 2.352 . S
Cd242 O250 2.277 . S
Cd242 O251 2.356 . S
C243 O248 1.209 . S
C243 O250 1.226 . S
O244 Cd240 2.273 . S
O244 Cd242 2.411 . S
O244 C247 1.320 . S
O245 Cd242 2.333 . S
O245 C247 1.214 . S
O246 Cd242 2.352 . S
O246 C249 1.258 . S
C247 O244 1.320 . S
C247 O245 1.214 . S
O248 Cd240 2.277 . S
O248 C243 1.209 . S
C249 O246 1.258 . S
C249 O251 1.282 . S
O250 Cd242 2.277 . S
O250 C243 1.226 . S
O251 Cd242 2.356 . S
O251 C249 1.282 . S
C252 O253 1.306 . S
C252 O255 1.160 . S
O253 C252 1.306 . S
O253 Cd254 2.228 . S
Cd254 O253 2.228 . S
Cd254 O258 2.273 . S
Cd254 O262 2.277 . S
O255 C252 1.160 . S
O255 Cd256 2.203 . S
Cd256 O255 2.203 . S
Cd256 O258 2.411 . S
Cd256 O259 2.333 . S
Cd256 O260 2.352 . S
Cd256 O264 2.277 . S
Cd256 O265 2.356 . S
C257 O262 1.209 . S
C257 O264 1.226 . S
O258 Cd254 2.273 . S
O258 Cd256 2.411 . S
O258 C261 1.320 . S
O259 Cd256 2.333 . S
O259 C261 1.214 . S
O260 Cd256 2.352 . S
O260 C263 1.258 . S
C261 O258 1.320 . S
C261 O259 1.214 . S
O262 Cd254 2.277 . S
O262 C257 1.209 . S
C263 O260 1.258 . S
C263 O265 1.282 . S
O264 Cd256 2.277 . S
O264 C257 1.226 . S
O265 Cd256 2.356 . S
O265 C263 1.282 . S
C266 O267 1.306 . S
C266 O269 1.160 . S
O267 C266 1.306 . S
O267 Cd268 2.228 . S
Cd268 O267 2.228 . S
Cd268 O272 2.273 . S
Cd268 O276 2.277 . S
O269 C266 1.160 . S
O269 Cd270 2.203 . S
Cd270 O269 2.203 . S
Cd270 O272 2.411 . S
Cd270 O273 2.333 . S
Cd270 O274 2.352 . S
Cd270 O278 2.277 . S
Cd270 O279 2.356 . S
C271 O276 1.209 . S
C271 O278 1.226 . S
O272 Cd268 2.273 . S
O272 Cd270 2.411 . S
O272 C275 1.320 . S
O273 Cd270 2.333 . S
O273 C275 1.214 . S
O274 Cd270 2.352 . S
O274 C277 1.258 . S
C275 O272 1.320 . S
C275 O273 1.214 . S
O276 Cd268 2.277 . S
O276 C271 1.209 . S
C277 O274 1.258 . S
C277 O279 1.282 . S
O278 Cd270 2.277 . S
O278 C271 1.226 . S
O279 Cd270 2.356 . S
O279 C277 1.282 . S
C280 O281 1.306 . S
C280 O283 1.160 . S
O281 C280 1.306 . S
O281 Cd282 2.228 . S
Cd282 O281 2.228 . S
Cd282 O286 2.273 . S
Cd282 O290 2.277 . S
O283 C280 1.160 . S
O283 Cd284 2.203 . S
Cd284 O283 2.203 . S
Cd284 O286 2.411 . S
Cd284 O287 2.333 . S
Cd284 O288 2.352 . S
Cd284 O292 2.277 . S
Cd284 O293 2.356 . S
C285 O290 1.209 . S
C285 O292 1.226 . S
O286 Cd282 2.273 . S
O286 Cd284 2.411 . S
O286 C289 1.320 . S
O287 Cd284 2.333 . S
O287 C289 1.214 . S
O288 Cd284 2.352 . S
O288 C291 1.258 . S
C289 O286 1.320 . S
C289 O287 1.214 . S
O290 Cd282 2.277 . S
O290 C285 1.209 . S
C291 O288 1.258 . S
C291 O293 1.282 . S
O292 Cd284 2.277 . S
O292 C285 1.226 . S
O293 Cd284 2.356 . S
O293 C291 1.282 . S
C294 O295 1.306 . S
C294 O297 1.160 . S
O295 C294 1.306 . S
O295 Cd296 2.228 . S
Cd296 O295 2.228 . S
Cd296 O300 2.273 . S
Cd296 O304 2.277 . S
O297 C294 1.160 . S
O297 Cd298 2.203 . S
Cd298 O297 2.203 . S
Cd298 O300 2.411 . S
Cd298 O301 2.333 . S
Cd298 O302 2.352 . S
Cd298 O306 2.277 . S
Cd298 O307 2.356 . S
C299 O304 1.209 . S
C299 O306 1.226 . S
O300 Cd296 2.273 . S
O300 Cd298 2.411 . S
O300 C303 1.320 . S
O301 Cd298 2.333 . S
O301 C303 1.214 . S
O302 Cd298 2.352 . S
O302 C305 1.258 . S
C303 O300 1.320 . S
C303 O301 1.214 . S
O304 Cd296 2.277 . S
O304 C299 1.209 . S
C305 O302 1.258 . S
C305 O307 1.282 . S
O306 Cd298 2.277 . S
O306 C299 1.226 . S
O307 Cd298 2.356 . S
O307 C305 1.282 . S
C308 O309 1.306 . S
C308 O311 1.160 . S
O309 C308 1.306 . S
O309 Cd310 2.228 . S
Cd310 O309 2.228 . S
Cd310 O314 2.273 . S
Cd310 O318 2.277 . S
O311 C308 1.160 . S
O311 Cd312 2.203 . S
Cd312 O311 2.203 . S
Cd312 O314 2.411 . S
Cd312 O315 2.333 . S
Cd312 O316 2.352 . S
Cd312 O320 2.277 . S
Cd312 O321 2.356 . S
C313 O318 1.209 . S
C313 O320 1.226 . S
O314 Cd310 2.273 . S
O314 Cd312 2.411 . S
O314 C317 1.320 . S
O315 Cd312 2.333 . S
O315 C317 1.214 . S
O316 Cd312 2.352 . S
O316 C319 1.258 . S
C317 O314 1.320 . S
C317 O315 1.214 . S
O318 Cd310 2.277 . S
O318 C313 1.209 . S
C319 O316 1.258 . S
C319 O321 1.282 . S
O320 Cd312 2.277 . S
O320 C313 1.226 . S
O321 Cd312 2.356 . S
O321 C319 1.282 . S
C322 O323 1.306 . S
C322 O325 1.160 . S
O323 C322 1.306 . S
O323 Cd324 2.228 . S
Cd324 O323 2.228 . S
Cd324 O328 2.273 . S
Cd324 O332 2.277 . S
O325 C322 1.160 . S
O325 Cd326 2.203 . S
Cd326 O325 2.203 . S
Cd326 O328 2.411 . S
Cd326 O329 2.333 . S
Cd326 O330 2.352 . S
Cd326 O334 2.277 . S
Cd326 O335 2.356 . S
C327 O332 1.209 . S
C327 O334 1.226 . S
O328 Cd324 2.273 . S
O328 Cd326 2.411 . S
O328 C331 1.320 . S
O329 Cd326 2.333 . S
O329 C331 1.214 . S
O330 Cd326 2.352 . S
O330 C333 1.258 . S
C331 O328 1.320 . S
C331 O329 1.214 . S
O332 Cd324 2.277 . S
O332 C327 1.209 . S
C333 O330 1.258 . S
C333 O335 1.282 . S
O334 Cd326 2.277 . S
O334 C327 1.226 . S
O335 Cd326 2.356 . S
O335 C333 1.282 . S
C336 O337 1.306 . S
C336 O339 1.160 . S
O337 C336 1.306 . S
O337 Cd338 2.228 . S
Cd338 O337 2.228 . S
Cd338 O342 2.273 . S
Cd338 O346 2.277 . S
O339 C336 1.160 . S
O339 Cd340 2.203 . S
Cd340 O339 2.203 . S
Cd340 O342 2.411 . S
Cd340 O343 2.333 . S
Cd340 O344 2.352 . S
Cd340 O348 2.277 . S
Cd340 O349 2.356 . S
C341 O346 1.209 . S
C341 O348 1.226 . S
O342 Cd338 2.273 . S
O342 Cd340 2.411 . S
O342 C345 1.320 . S
O343 Cd340 2.333 . S
O343 C345 1.214 . S
O344 Cd340 2.352 . S
O344 C347 1.258 . S
C345 O342 1.320 . S
C345 O343 1.214 . S
O346 Cd338 2.277 . S
O346 C341 1.209 . S
C347 O344 1.258 . S
C347 O349 1.282 . S
O348 Cd340 2.277 . S
O348 C341 1.226 . S
O349 Cd340 2.356 . S
O349 C347 1.282 . S
C350 O351 1.306 . S
C350 O353 1.160 . S
O351 C350 1.306 . S
O351 Cd352 2.228 . S
Cd352 O351 2.228 . S
Cd352 O356 2.273 . S
Cd352 O360 2.277 . S
O353 C350 1.160 . S
O353 Cd354 2.203 . S
Cd354 O353 2.203 . S
Cd354 O356 2.411 . S
Cd354 O357 2.333 . S
Cd354 O358 2.352 . S
Cd354 O362 2.277 . S
Cd354 O363 2.356 . S
C355 O360 1.209 . S
C355 O362 1.226 . S
O356 Cd352 2.273 . S
O356 Cd354 2.411 . S
O356 C359 1.320 . S
O357 Cd354 2.333 . S
O357 C359 1.214 . S
O358 Cd354 2.352 . S
O358 C361 1.258 . S
C359 O356 1.320 . S
C359 O357 1.214 . S
O360 Cd352 2.277 . S
O360 C355 1.209 . S
C361 O358 1.258 . S
C361 O363 1.282 . S
O362 Cd354 2.277 . S
O362 C355 1.226 . S
O363 Cd354 2.356 . S
O363 C361 1.282 . S
C364 O365 1.306 . S
C364 O367 1.160 . S
O365 C364 1.306 . S
O365 Cd366 2.228 . S
Cd366 O365 2.228 . S
Cd366 O370 2.273 . S
Cd366 O374 2.277 . S
O367 C364 1.160 . S
O367 Cd368 2.203 . S
Cd368 O367 2.203 . S
Cd368 O370 2.411 . S
Cd368 O371 2.333 . S
Cd368 O372 2.352 . S
Cd368 O376 2.277 . S
Cd368 O377 2.356 . S
C369 O374 1.209 . S
C369 O376 1.226 . S
O370 Cd366 2.273 . S
O370 Cd368 2.411 . S
O370 C373 1.320 . S
O371 Cd368 2.333 . S
O371 C373 1.214 . S
O372 Cd368 2.352 . S
O372 C375 1.258 . S
C373 O370 1.320 . S
C373 O371 1.214 . S
O374 Cd366 2.277 . S
O374 C369 1.209 . S
C375 O372 1.258 . S
C375 O377 1.282 . S
O376 Cd368 2.277 . S
O376 C369 1.226 . S
O377 Cd368 2.356 . S
O377 C375 1.282 . S
C378 O379 1.306 . S
C378 O381 1.160 . S
O379 C378 1.306 . S
O379 Cd380 2.228 . S
Cd380 O379 2.228 . S
Cd380 O384 2.273 . S
Cd380 O388 2.277 . S
O381 C378 1.160 . S
O381 Cd382 2.203 . S
Cd382 O381 2.203 . S
Cd382 O384 2.411 . S
Cd382 O385 2.333 . S
Cd382 O386 2.352 . S
Cd382 O390 2.277 . S
Cd382 O391 2.356 . S
C383 O388 1.209 . S
C383 O390 1.226 . S
O384 Cd380 2.273 . S
O384 Cd382 2.411 . S
O384 C387 1.320 . S
O385 Cd382 2.333 . S
O385 C387 1.214 . S
O386 Cd382 2.352 . S
O386 C389 1.258 . S
C387 O384 1.320 . S
C387 O385 1.214 . S
O388 Cd380 2.277 . S
O388 C383 1.209 . S
C389 O386 1.258 . S
C389 O391 1.282 . S
O390 Cd382 2.277 . S
O390 C383 1.226 . S
O391 Cd382 2.356 . S
O391 C389 1.282 . S
C392 O393 1.306 . S
C392 O395 1.160 . S
O393 C392 1.306 . S
O393 Cd394 2.228 . S
Cd394 O393 2.228 . S
Cd394 O398 2.273 . S
Cd394 O402 2.277 . S
O395 C392 1.160 . S
O395 Cd396 2.203 . S
Cd396 O395 2.203 . S
Cd396 O398 2.411 . S
Cd396 O399 2.333 . S
Cd396 O400 2.352 . S
Cd396 O404 2.277 . S
Cd396 O405 2.356 . S
C397 O402 1.209 . S
C397 O404 1.226 . S
O398 Cd394 2.273 . S
O398 Cd396 2.411 . S
O398 C401 1.320 . S
O399 Cd396 2.333 . S
O399 C401 1.214 . S
O400 Cd396 2.352 . S
O400 C403 1.258 . S
C401 O398 1.320 . S
C401 O399 1.214 . S
O402 Cd394 2.277 . S
O402 C397 1.209 . S
C403 O400 1.258 . S
C403 O405 1.282 . S
O404 Cd396 2.277 . S
O404 C397 1.226 . S
O405 Cd396 2.356 . S
O405 C403 1.282 . S
C406 O407 1.306 . S
C406 O409 1.160 . S
O407 C406 1.306 . S
O407 Cd408 2.228 . S
Cd408 O407 2.228 . S
Cd408 O412 2.273 . S
Cd408 O416 2.277 . S
O409 C406 1.160 . S
O409 Cd410 2.203 . S
Cd410 O409 2.203 . S
Cd410 O412 2.411 . S
Cd410 O413 2.333 . S
Cd410 O414 2.352 . S
Cd410 O418 2.277 . S
Cd410 O419 2.356 . S
C411 O416 1.209 . S
C411 O418 1.226 . S
O412 Cd408 2.273 . S
O412 Cd410 2.411 . S
O412 C415 1.320 . S
O413 Cd410 2.333 . S
O413 C415 1.214 . S
O414 Cd410 2.352 . S
O414 C417 1.258 . S
C415 O412 1.320 . S
C415 O413 1.214 . S
O416 Cd408 2.277 . S
O416 C411 1.209 . S
C417 O414 1.258 . S
C417 O419 1.282 . S
O418 Cd410 2.277 . S
O418 C411 1.226 . S
O419 Cd410 2.356 . S
O419 C417 1.282 . S
C420 O421 1.306 . S
C420 O423 1.160 . S
O421 C420 1.306 . S
O421 Cd422 2.228 . S
Cd422 O421 2.228 . S
Cd422 O426 2.273 . S
Cd422 O430 2.277 . S
O423 C420 1.160 . S
O423 Cd424 2.203 . S
Cd424 O423 2.203 . S
Cd424 O426 2.411 . S
Cd424 O427 2.333 . S
Cd424 O428 2.352 . S
Cd424 O432 2.277 . S
Cd424 O433 2.356 . S
C425 O430 1.209 . S
C425 O432 1.226 . S
O426 Cd422 2.273 . S
O426 Cd424 2.411 . S
O426 C429 1.320 . S
O427 Cd424 2.333 . S
O427 C429 1.214 . S
O428 Cd424 2.352 . S
O428 C431 1.258 . S
C429 O426 1.320 . S
C429 O427 1.214 . S
O430 Cd422 2.277 . S
O430 C425 1.209 . S
C431 O428 1.258 . S
C431 O433 1.282 . S
O432 Cd424 2.277 . S
O432 C425 1.226 . S
O433 Cd424 2.356 . S
O433 C431 1.282 . S
C434 O435 1.306 . S
C434 O437 1.160 . S
O435 C434 1.306 . S
O435 Cd436 2.228 . S
Cd436 O435 2.228 . S
Cd436 O440 2.273 . S
Cd436 O444 2.277 . S
O437 C434 1.160 . S
O437 Cd438 2.203 . S
Cd438 O437 2.203 . S
Cd438 O440 2.411 . S
Cd438 O441 2.333 . S
Cd438 O442 2.352 . S
Cd438 O446 2.277 . S
Cd438 O447 2.356 . S
C439 O444 1.209 . S
C439 O446 1.226 . S
O440 Cd436 2.273 . S
O440 Cd438 2.411 . S
O440 C443 1.320 . S
O441 Cd438 2.333 . S
O441 C443 1.214 . S
O442 Cd438 2.352 . S
O442 C445 1.258 . S
C443 O440 1.320 . S
C443 O441 1.214 . S
O444 Cd436 2.277 . S
O444 C439 1.209 . S
C445 O442 1.258 . S
C445 O447 1.282 . S
O446 Cd438 2.277 . S
O446 C439 1.226 . S
O447 Cd438 2.356 . S
O447 C445 1.282 . S
C448 O449 1.306 . S
C448 O451 1.160 . S
O449 C448 1.306 . S
O449 Cd450 2.228 . S
Cd450 O449 2.228 . S
Cd450 O454 2.273 . S
Cd450 O458 2.277 . S
O451 C448 1.160 . S
O451 Cd452 2.203 . S
Cd452 O451 2.203 . S
Cd452 O454 2.411 . S
Cd452 O455 2.333 . S
Cd452 O456 2.352 . S
Cd452 O460 2.277 . S
Cd452 O461 2.356 . S
C453 O458 1.209 . S
C453 O460 1.226 . S
O454 Cd450 2.273 . S
O454 Cd452 2.411 . S
O454 C457 1.320 . S
O455 Cd452 2.333 . S
O455 C457 1.214 . S
O456 Cd452 2.352 . S
O456 C459 1.258 . S
C457 O454 1.320 . S
C457 O455 1.214 . S
O458 Cd450 2.277 . S
O458 C453 1.209 . S
C459 O456 1.258 . S
C459 O461 1.282 . S
O460 Cd452 2.277 . S
O460 C453 1.226 . S
O461 Cd452 2.356 . S
O461 C459 1.282 . S
C462 O463 1.306 . S
C462 O465 1.160 . S
O463 C462 1.306 . S
O463 Cd464 2.228 . S
Cd464 O463 2.228 . S
Cd464 O468 2.273 . S
Cd464 O472 2.277 . S
O465 C462 1.160 . S
O465 Cd466 2.203 . S
Cd466 O465 2.203 . S
Cd466 O468 2.411 . S
Cd466 O469 2.333 . S
Cd466 O470 2.352 . S
Cd466 O474 2.277 . S
Cd466 O475 2.356 . S
C467 O472 1.209 . S
C467 O474 1.226 . S
O468 Cd464 2.273 . S
O468 Cd466 2.411 . S
O468 C471 1.320 . S
O469 Cd466 2.333 . S
O469 C471 1.214 . S
O470 Cd466 2.352 . S
O470 C473 1.258 . S
C471 O468 1.320 . S
C471 O469 1.214 . S
O472 Cd464 2.277 . S
O472 C467 1.209 . S
C473 O470 1.258 . S
C473 O475 1.282 . S
O474 Cd466 2.277 . S
O474 C467 1.226 . S
O475 Cd466 2.356 . S
O475 C473 1.282 . S
C476 O477 1.306 . S
C476 O479 1.160 . S
O477 C476 1.306 . S
O477 Cd478 2.228 . S
Cd478 O477 2.228 . S
Cd478 O482 2.273 . S
Cd478 O486 2.277 . S
O479 C476 1.160 . S
O479 Cd480 2.203 . S
Cd480 O479 2.203 . S
Cd480 O482 2.411 . S
Cd480 O483 2.333 . S
Cd480 O484 2.352 . S
Cd480 O488 2.277 . S
Cd480 O489 2.356 . S
C481 O486 1.209 . S
C481 O488 1.226 . S
O482 Cd478 2.273 . S
O482 Cd480 2.411 . S
O482 C485 1.320 . S
O483 Cd480 2.333 . S
O483 C485 1.214 . S
O484 Cd480 2.352 . S
O484 C487 1.258 . S
C485 O482 1.320 . S
C485 O483 1.214 . S
O486 Cd478 2.277 . S
O486 C481 1.209 . S
C487 O484 1.258 . S
C487 O489 1.282 . S
O488 Cd480 2.277 . S
O488 C481 1.226 . S
O489 Cd480 2.356 . S
O489 C487 1.282 . S
C490 O491 1.306 . S
C490 O493 1.160 . S
O491 C490 1.306 . S
O491 Cd492 2.228 . S
Cd492 O491 2.228 . S
Cd492 O496 2.273 . S
Cd492 O500 2.277 . S
O493 C490 1.160 . S
O493 Cd494 2.203 . S
Cd494 O493 2.203 . S
Cd494 O496 2.411 . S
Cd494 O497 2.333 . S
Cd494 O498 2.352 . S
Cd494 O502 2.277 . S
Cd494 O503 2.356 . S
C495 O500 1.209 . S
C495 O502 1.226 . S
O496 Cd492 2.273 . S
O496 Cd494 2.411 . S
O496 C499 1.320 . S
O497 Cd494 2.333 . S
O497 C499 1.214 . S
O498 Cd494 2.352 . S
O498 C501 1.258 . S
C499 O496 1.320 . S
C499 O497 1.214 . S
O500 Cd492 2.277 . S
O500 C495 1.209 . S
C501 O498 1.258 . S
C501 O503 1.282 . S
O502 Cd494 2.277 . S
O502 C495 1.226 . S
O503 Cd494 2.356 . S
O503 C501 1.282 . S
H504 C510 0.930 . S
H505 C513 0.930 . S
H506 C514 0.930 . S
H507 C515 0.930 . S
H508 C518 0.930 . S
H509 C519 0.930 . S
C510 H504 0.930 . S
C510 C511 1.355 . S
C510 C512 1.415 . S
C511 C510 1.355 . S
C511 C513 1.419 . S
C512 C510 1.415 . S
C512 C517 1.425 . S
C512 C519 1.409 . S
C513 H505 0.930 . S
C513 C511 1.419 . S
C513 C514 1.362 . S
C514 H506 0.930 . S
C514 C513 1.362 . S
C514 C517 1.409 . S
C515 H507 0.930 . S
C515 C516 1.355 . S
C515 C517 1.415 . S
C516 C515 1.355 . S
C516 C518 1.419 . S
C517 C512 1.425 . S
C517 C514 1.409 . S
C517 C515 1.415 . S
C518 H508 0.930 . S
C518 C516 1.419 . S
C518 C519 1.362 . S
C519 H509 0.930 . S
C519 C512 1.409 . S
C519 C518 1.362 . S
H520 C526 0.930 . S
H521 C529 0.930 . S
H522 C530 0.930 . S
H523 C531 0.930 . S
H524 C534 0.930 . S
H525 C535 0.930 . S
C526 H520 0.930 . S
C526 C527 1.355 . S
C526 C528 1.415 . S
C527 C526 1.355 . S
C527 C529 1.419 . S
C528 C526 1.415 . S
C528 C533 1.425 . S
C528 C535 1.409 . S
C529 H521 0.930 . S
C529 C527 1.419 . S
C529 C530 1.362 . S
C530 H522 0.930 . S
C530 C529 1.362 . S
C530 C533 1.409 . S
C531 H523 0.930 . S
C531 C532 1.355 . S
C531 C533 1.415 . S
C532 C531 1.355 . S
C532 C534 1.419 . S
C533 C528 1.425 . S
C533 C530 1.409 . S
C533 C531 1.415 . S
C534 H524 0.930 . S
C534 C532 1.419 . S
C534 C535 1.362 . S
C535 H525 0.930 . S
C535 C528 1.409 . S
C535 C534 1.362 . S
H536 C542 0.930 . S
H537 C545 0.930 . S
H538 C546 0.930 . S
H539 C547 0.930 . S
H540 C550 0.930 . S
H541 C551 0.930 . S
C542 H536 0.930 . S
C542 C543 1.355 . S
C542 C544 1.415 . S
C543 C542 1.355 . S
C543 C545 1.419 . S
C544 C542 1.415 . S
C544 C549 1.425 . S
C544 C551 1.409 . S
C545 H537 0.930 . S
C545 C543 1.419 . S
C545 C546 1.362 . S
C546 H538 0.930 . S
C546 C545 1.362 . S
C546 C549 1.409 . S
C547 H539 0.930 . S
C547 C548 1.355 . S
C547 C549 1.415 . S
C548 C547 1.355 . S
C548 C550 1.419 . S
C549 C544 1.425 . S
C549 C546 1.409 . S
C549 C547 1.415 . S
C550 H540 0.930 . S
C550 C548 1.419 . S
C550 C551 1.362 . S
C551 H541 0.930 . S
C551 C544 1.409 . S
C551 C550 1.362 . S
H552 C558 0.930 . S
H553 C561 0.930 . S
H554 C562 0.930 . S
H555 C563 0.930 . S
H556 C566 0.930 . S
H557 C567 0.930 . S
C558 H552 0.930 . S
C558 C559 1.355 . S
C558 C560 1.415 . S
C559 C558 1.355 . S
C559 C561 1.419 . S
C560 C558 1.415 . S
C560 C565 1.425 . S
C560 C567 1.409 . S
C561 H553 0.930 . S
C561 C559 1.419 . S
C561 C562 1.362 . S
C562 H554 0.930 . S
C562 C561 1.362 . S
C562 C565 1.409 . S
C563 H555 0.930 . S
C563 C564 1.355 . S
C563 C565 1.415 . S
C564 C563 1.355 . S
C564 C566 1.419 . S
C565 C560 1.425 . S
C565 C562 1.409 . S
C565 C563 1.415 . S
C566 H556 0.930 . S
C566 C564 1.419 . S
C566 C567 1.362 . S
C567 H557 0.930 . S
C567 C560 1.409 . S
C567 C566 1.362 . S
H568 C574 0.930 . S
H569 C577 0.930 . S
H570 C578 0.930 . S
H571 C579 0.930 . S
H572 C582 0.930 1_545 S
H573 C583 0.930 . S
C574 H568 0.930 . S
C574 C575 1.355 . S
C574 C576 1.415 . S
C575 C574 1.355 . S
C575 C577 1.419 . S
C576 C574 1.415 . S
C576 C581 1.425 . S
C576 C583 1.409 . S
C577 H569 0.930 . S
C577 C575 1.419 . S
C577 C578 1.362 . S
C578 H570 0.930 . S
C578 C577 1.362 . S
C578 C581 1.409 . S
C579 H571 0.930 . S
C579 C580 1.355 . S
C579 C581 1.415 . S
C580 C579 1.355 . S
C580 C582 1.419 . S
C581 C576 1.425 . S
C581 C578 1.409 . S
C581 C579 1.415 . S
C582 H572 0.930 1_565 S
C582 C580 1.419 . S
C582 C583 1.362 . S
C583 H573 0.930 . S
C583 C576 1.409 . S
C583 C582 1.362 . S
H584 C590 0.930 . S
H585 C593 0.930 1_655 S
H586 C594 0.930 . S
H587 C595 0.930 . S
H588 C598 0.930 . S
H589 C599 0.930 . S
C590 H584 0.930 . S
C590 C591 1.355 . S
C590 C592 1.415 . S
C591 C590 1.355 . S
C591 C593 1.419 . S
C592 C590 1.415 . S
C592 C597 1.425 . S
C592 C599 1.409 . S
C593 H585 0.930 1_455 S
C593 C591 1.419 . S
C593 C594 1.362 . S
C594 H586 0.930 . S
C594 C593 1.362 . S
C594 C597 1.409 . S
C595 H587 0.930 . S
C595 C596 1.355 . S
C595 C597 1.415 . S
C596 C595 1.355 . S
C596 C598 1.419 . S
C597 C592 1.425 . S
C597 C594 1.409 . S
C597 C595 1.415 . S
C598 H588 0.930 . S
C598 C596 1.419 . S
C598 C599 1.362 . S
C599 H589 0.930 . S
C599 C592 1.409 . S
C599 C598 1.362 . S
H600 C606 0.930 . S
H601 C609 0.930 . S
H602 C610 0.930 . S
H603 C611 0.930 . S
H604 C614 0.930 . S
H605 C615 0.930 . S
C606 H600 0.930 . S
C606 C607 1.355 . S
C606 C608 1.415 . S
C607 C606 1.355 . S
C607 C609 1.419 . S
C608 C606 1.415 . S
C608 C613 1.425 . S
C608 C615 1.409 . S
C609 H601 0.930 . S
C609 C607 1.419 . S
C609 C610 1.362 . S
C610 H602 0.930 . S
C610 C609 1.362 . S
C610 C613 1.409 . S
C611 H603 0.930 . S
C611 C612 1.355 . S
C611 C613 1.415 . S
C612 C611 1.355 . S
C612 C614 1.419 . S
C613 C608 1.425 . S
C613 C610 1.409 . S
C613 C611 1.415 . S
C614 H604 0.930 . S
C614 C612 1.419 . S
C614 C615 1.362 . S
C615 H605 0.930 . S
C615 C608 1.409 . S
C615 C614 1.362 . S
H616 C622 0.930 . S
H617 C625 0.930 . S
H618 C626 0.930 . S
H619 C627 0.930 . S
H620 C630 0.930 1_545 S
H621 C631 0.930 . S
C622 H616 0.930 . S
C622 C623 1.355 . S
C622 C624 1.415 . S
C623 C622 1.355 . S
C623 C625 1.419 . S
C624 C622 1.415 . S
C624 C629 1.425 . S
C624 C631 1.409 . S
C625 H617 0.930 . S
C625 C623 1.419 . S
C625 C626 1.362 . S
C626 H618 0.930 . S
C626 C625 1.362 . S
C626 C629 1.409 . S
C627 H619 0.930 . S
C627 C628 1.355 . S
C627 C629 1.415 . S
C628 C627 1.355 . S
C628 C630 1.419 . S
C629 C624 1.425 . S
C629 C626 1.409 . S
C629 C627 1.415 . S
C630 H620 0.930 1_565 S
C630 C628 1.419 . S
C630 C631 1.362 . S
C631 H621 0.930 . S
C631 C624 1.409 . S
C631 C630 1.362 . S
H632 C638 0.930 . S
H633 C641 0.930 . S
H634 C642 0.930 . S
H635 C643 0.930 . S
H636 C646 0.930 . S
H637 C647 0.930 . S
C638 H632 0.930 . S
C638 C639 1.355 . S
C638 C640 1.415 . S
C639 C638 1.355 . S
C639 C641 1.419 . S
C640 C638 1.415 . S
C640 C645 1.425 . S
C640 C647 1.409 . S
C641 H633 0.930 . S
C641 C639 1.419 . S
C641 C642 1.362 . S
C642 H634 0.930 . S
C642 C641 1.362 . S
C642 C645 1.409 . S
C643 H635 0.930 . S
C643 C644 1.355 . S
C643 C645 1.415 . S
C644 C643 1.355 . S
C644 C646 1.419 . S
C645 C640 1.425 . S
C645 C642 1.409 . S
C645 C643 1.415 . S
C646 H636 0.930 . S
C646 C644 1.419 . S
C646 C647 1.362 . S
C647 H637 0.930 . S
C647 C640 1.409 . S
C647 C646 1.362 . S
H648 C654 0.930 . S
H649 C657 0.930 . S
H650 C658 0.930 . S
H651 C659 0.930 . S
H652 C662 0.930 . S
H653 C663 0.930 . S
C654 H648 0.930 . S
C654 C655 1.355 . S
C654 C656 1.415 . S
C655 C654 1.355 . S
C655 C657 1.419 . S
C656 C654 1.415 . S
C656 C661 1.425 . S
C656 C663 1.409 . S
C657 H649 0.930 . S
C657 C655 1.419 . S
C657 C658 1.362 . S
C658 H650 0.930 . S
C658 C657 1.362 . S
C658 C661 1.409 . S
C659 H651 0.930 . S
C659 C660 1.355 . S
C659 C661 1.415 . S
C660 C659 1.355 . S
C660 C662 1.419 . S
C661 C656 1.425 . S
C661 C658 1.409 . S
C661 C659 1.415 . S
C662 H652 0.930 . S
C662 C660 1.419 . S
C662 C663 1.362 . S
C663 H653 0.930 . S
C663 C656 1.409 . S
C663 C662 1.362 . S
H664 C670 0.930 . S
H665 C673 0.930 . S
H666 C674 0.930 . S
H667 C675 0.930 . S
H668 C678 0.930 . S
H669 C679 0.930 . S
C670 H664 0.930 . S
C670 C671 1.355 . S
C670 C672 1.415 . S
C671 C670 1.355 . S
C671 C673 1.419 . S
C672 C670 1.415 . S
C672 C677 1.425 . S
C672 C679 1.409 . S
C673 H665 0.930 . S
C673 C671 1.419 . S
C673 C674 1.362 . S
C674 H666 0.930 . S
C674 C673 1.362 . S
C674 C677 1.409 . S
C675 H667 0.930 . S
C675 C676 1.355 . S
C675 C677 1.415 . S
C676 C675 1.355 . S
C676 C678 1.419 . S
C677 C672 1.425 . S
C677 C674 1.409 . S
C677 C675 1.415 . S
C678 H668 0.930 . S
C678 C676 1.419 . S
C678 C679 1.362 . S
C679 H669 0.930 . S
C679 C672 1.409 . S
C679 C678 1.362 . S
H680 C686 0.930 . S
H681 C689 0.930 . S
H682 C690 0.930 . S
H683 C691 0.930 . S
H684 C694 0.930 1_455 S
H685 C695 0.930 . S
C686 H680 0.930 . S
C686 C687 1.355 . S
C686 C688 1.415 . S
C687 C686 1.355 . S
C687 C689 1.419 . S
C688 C686 1.415 . S
C688 C693 1.425 . S
C688 C695 1.409 . S
C689 H681 0.930 . S
C689 C687 1.419 . S
C689 C690 1.362 . S
C690 H682 0.930 . S
C690 C689 1.362 . S
C690 C693 1.409 . S
C691 H683 0.930 . S
C691 C692 1.355 . S
C691 C693 1.415 . S
C692 C691 1.355 . S
C692 C694 1.419 . S
C693 C688 1.425 . S
C693 C690 1.409 . S
C693 C691 1.415 . S
C694 H684 0.930 1_655 S
C694 C692 1.419 . S
C694 C695 1.362 . S
C695 H685 0.930 . S
C695 C688 1.409 . S
C695 C694 1.362 . S
H696 C702 0.930 . S
H697 C705 0.930 . S
H698 C706 0.930 . S
H699 C707 0.930 . S
H700 C710 0.930 . S
H701 C711 0.930 . S
C702 H696 0.930 . S
C702 C703 1.355 . S
C702 C704 1.415 . S
C703 C702 1.355 . S
C703 C705 1.419 . S
C704 C702 1.415 . S
C704 C709 1.425 1_455 S
C704 C711 1.409 . S
C705 H697 0.930 . S
C705 C703 1.419 . S
C705 C706 1.362 1_455 S
C706 H698 0.930 . S
C706 C705 1.362 1_655 S
C706 C709 1.409 . S
C707 H699 0.930 . S
C707 C708 1.355 . S
C707 C709 1.415 . S
C708 C707 1.355 . S
C708 C710 1.419 . S
C709 C704 1.425 1_655 S
C709 C706 1.409 . S
C709 C707 1.415 . S
C710 H700 0.930 . S
C710 C708 1.419 . S
C710 C711 1.362 1_655 S
C711 H701 0.930 . S
C711 C704 1.409 . S
C711 C710 1.362 1_455 S
H712 C718 0.930 . S
H713 C721 0.930 . S
H714 C722 0.930 . S
H715 C723 0.930 . S
H716 C726 0.930 . S
H717 C727 0.930 . S
C718 H712 0.930 . S
C718 C719 1.355 . S
C718 C720 1.415 . S
C719 C718 1.355 . S
C719 C721 1.419 . S
C720 C718 1.415 . S
C720 C725 1.425 . S
C720 C727 1.409 . S
C721 H713 0.930 . S
C721 C719 1.419 . S
C721 C722 1.362 . S
C722 H714 0.930 . S
C722 C721 1.362 . S
C722 C725 1.409 . S
C723 H715 0.930 . S
C723 C724 1.355 . S
C723 C725 1.415 . S
C724 C723 1.355 . S
C724 C726 1.419 . S
C725 C720 1.425 . S
C725 C722 1.409 . S
C725 C723 1.415 . S
C726 H716 0.930 . S
C726 C724 1.419 . S
C726 C727 1.362 . S
C727 H717 0.930 . S
C727 C720 1.409 . S
C727 C726 1.362 . S
H728 C734 0.930 . S
H729 C737 0.930 . S
H730 C738 0.930 . S
H731 C739 0.930 . S
H732 C742 0.930 . S
H733 C743 0.930 . S
C734 H728 0.930 . S
C734 C735 1.355 . S
C734 C736 1.415 . S
C735 C734 1.355 . S
C735 C737 1.419 . S
C736 C734 1.415 . S
C736 C741 1.425 1_565 S
C736 C743 1.409 . S
C737 H729 0.930 . S
C737 C735 1.419 . S
C737 C738 1.362 1_565 S
C738 H730 0.930 . S
C738 C737 1.362 1_545 S
C738 C741 1.409 . S
C739 H731 0.930 . S
C739 C740 1.355 . S
C739 C741 1.415 . S
C740 C739 1.355 . S
C740 C742 1.419 . S
C741 C736 1.425 1_545 S
C741 C738 1.409 . S
C741 C739 1.415 . S
C742 H732 0.930 . S
C742 C740 1.419 . S
C742 C743 1.362 1_545 S
C743 H733 0.930 . S
C743 C736 1.409 . S
C743 C742 1.362 1_565 S
H744 C750 0.930 . S
H745 C753 0.930 . S
H746 C754 0.930 1_545 S
H747 C755 0.930 . S
H748 C758 0.930 . S
H749 C759 0.930 1_565 S
C750 H744 0.930 . S
C750 C751 1.355 . S
C750 C752 1.415 . S
C751 C750 1.355 . S
C751 C753 1.419 . S
C752 C750 1.415 . S
C752 C757 1.425 1_565 S
C752 C759 1.409 1_565 S
C753 H745 0.930 . S
C753 C751 1.419 . S
C753 C754 1.362 . S
C754 H746 0.930 1_565 S
C754 C753 1.362 . S
C754 C757 1.409 1_565 S
C755 H747 0.930 . S
C755 C756 1.355 . S
C755 C757 1.415 . S
C756 C755 1.355 . S
C756 C758 1.419 . S
C757 C752 1.425 1_545 S
C757 C754 1.409 1_545 S
C757 C755 1.415 . S
C758 H748 0.930 . S
C758 C756 1.419 . S
C758 C759 1.362 . S
C759 H749 0.930 1_545 S
C759 C752 1.409 1_545 S
C759 C758 1.362 . S
H760 C766 0.930 . S
H761 C769 0.930 . S
H762 C770 0.930 1_655 S
H763 C771 0.930 . S
H764 C774 0.930 . S
H765 C775 0.930 1_455 S
C766 H760 0.930 . S
C766 C767 1.355 . S
C766 C768 1.415 . S
C767 C766 1.355 . S
C767 C769 1.419 . S
C768 C766 1.415 . S
C768 C773 1.425 1_455 S
C768 C775 1.409 1_455 S
C769 H761 0.930 . S
C769 C767 1.419 . S
C769 C770 1.362 . S
C770 H762 0.930 1_455 S
C770 C769 1.362 . S
C770 C773 1.409 1_455 S
C771 H763 0.930 . S
C771 C772 1.355 . S
C771 C773 1.415 . S
C772 C771 1.355 . S
C772 C774 1.419 . S
C773 C768 1.425 1_655 S
C773 C770 1.409 1_655 S
C773 C771 1.415 . S
C774 H764 0.930 . S
C774 C772 1.419 . S
C774 C775 1.362 . S
C775 H765 0.930 1_655 S
C775 C768 1.409 1_655 S
C775 C774 1.362 . S
H776 C782 0.930 . S
H777 C785 0.930 . S
H778 C786 0.930 . S
H779 C787 0.930 . S
H780 C790 0.930 . S
H781 C791 0.930 . S
C782 H776 0.930 . S
C782 C783 1.355 . S
C782 C784 1.415 . S
C783 C782 1.355 . S
C783 C785 1.419 . S
C784 C782 1.415 . S
C784 C789 1.425 . S
C784 C791 1.409 . S
C785 H777 0.930 . S
C785 C783 1.419 . S
C785 C786 1.362 . S
C786 H778 0.930 . S
C786 C785 1.362 . S
C786 C789 1.409 . S
C787 H779 0.930 . S
C787 C788 1.355 . S
C787 C789 1.415 . S
C788 C787 1.355 . S
C788 C790 1.419 . S
C789 C784 1.425 . S
C789 C786 1.409 . S
C789 C787 1.415 . S
C790 H780 0.930 . S
C790 C788 1.419 . S
C790 C791 1.362 . S
C791 H781 0.930 . S
C791 C784 1.409 . S
C791 C790 1.362 . S
H792 C798 0.930 . S
H793 C801 0.930 . S
H794 C802 0.930 . S
H795 C803 0.930 . S
H796 C806 0.930 . S
H797 C807 0.930 . S
C798 H792 0.930 . S
C798 C799 1.355 . S
C798 C800 1.415 . S
C799 C798 1.355 . S
C799 C801 1.419 1_556 S
C800 C798 1.415 . S
C800 C805 1.425 1_556 S
C800 C807 1.409 . S
C801 H793 0.930 . S
C801 C799 1.419 1_554 S
C801 C802 1.362 . S
C802 H794 0.930 . S
C802 C801 1.362 . S
C802 C805 1.409 . S
C803 H795 0.930 . S
C803 C804 1.355 . S
C803 C805 1.415 . S
C804 C803 1.355 . S
C804 C806 1.419 1_554 S
C805 C800 1.425 1_554 S
C805 C802 1.409 . S
C805 C803 1.415 . S
C806 H796 0.930 . S
C806 C804 1.419 1_556 S
C806 C807 1.362 . S
C807 H797 0.930 . S
C807 C800 1.409 . S
C807 C806 1.362 . S
H808 C814 0.930 . S
H809 C817 0.930 . S
H810 C818 0.930 . S
H811 C819 0.930 . S
H812 C822 0.930 . S
H813 C823 0.930 . S
C814 H808 0.930 . S
C814 C815 1.355 . S
C814 C816 1.415 . S
C815 C814 1.355 . S
C815 C817 1.419 1_556 S
C816 C814 1.415 . S
C816 C821 1.425 1_556 S
C816 C823 1.409 . S
C817 H809 0.930 . S
C817 C815 1.419 1_554 S
C817 C818 1.362 . S
C818 H810 0.930 . S
C818 C817 1.362 . S
C818 C821 1.409 . S
C819 H811 0.930 . S
C819 C820 1.355 . S
C819 C821 1.415 . S
C820 C819 1.355 . S
C820 C822 1.419 1_554 S
C821 C816 1.425 1_554 S
C821 C818 1.409 . S
C821 C819 1.415 . S
C822 H812 0.930 . S
C822 C820 1.419 1_556 S
C822 C823 1.362 . S
C823 H813 0.930 . S
C823 C816 1.409 . S
C823 C822 1.362 . S
H824 C830 0.930 . S
H825 C833 0.930 . S
H826 C834 0.930 . S
H827 C835 0.930 1_556 S
H828 C838 0.930 . S
H829 C839 0.930 . S
C830 H824 0.930 . S
C830 C831 1.355 1_554 S
C830 C832 1.415 . S
C831 C830 1.355 1_556 S
C831 C833 1.419 . S
C832 C830 1.415 . S
C832 C837 1.425 1_554 S
C832 C839 1.409 . S
C833 H825 0.930 . S
C833 C831 1.419 . S
C833 C834 1.362 . S
C834 H826 0.930 . S
C834 C833 1.362 . S
C834 C837 1.409 . S
C835 H827 0.930 1_554 S
C835 C836 1.355 . S
C835 C837 1.415 1_554 S
C836 C835 1.355 . S
C836 C838 1.419 . S
C837 C832 1.425 1_556 S
C837 C834 1.409 . S
C837 C835 1.415 1_556 S
C838 H828 0.930 . S
C838 C836 1.419 . S
C838 C839 1.362 . S
C839 H829 0.930 . S
C839 C832 1.409 . S
C839 C838 1.362 . S
H840 C846 0.930 . S
H841 C849 0.930 . S
H842 C850 0.930 . S
H843 C851 0.930 . S
H844 C854 0.930 . S
H845 C855 0.930 . S
C846 H840 0.930 . S
C846 C847 1.355 . S
C846 C848 1.415 . S
C847 C846 1.355 . S
C847 C849 1.419 . S
C848 C846 1.415 . S
C848 C853 1.425 . S
C848 C855 1.409 . S
C849 H841 0.930 . S
C849 C847 1.419 . S
C849 C850 1.362 . S
C850 H842 0.930 . S
C850 C849 1.362 . S
C850 C853 1.409 . S
C851 H843 0.930 . S
C851 C852 1.355 . S
C851 C853 1.415 . S
C852 C851 1.355 . S
C852 C854 1.419 . S
C853 C848 1.425 . S
C853 C850 1.409 . S
C853 C851 1.415 . S
C854 H844 0.930 . S
C854 C852 1.419 . S
C854 C855 1.362 . S
C855 H845 0.930 . S
C855 C848 1.409 . S
C855 C854 1.362 . S
H856 C862 0.930 . S
H857 C865 0.930 . S
H858 C866 0.930 . S
H859 C867 0.930 . S
H860 C870 0.930 . S
H861 C871 0.930 . S
C862 H856 0.930 . S
C862 C863 1.355 . S
C862 C864 1.415 . S
C863 C862 1.355 . S
C863 C865 1.419 . S
C864 C862 1.415 . S
C864 C869 1.425 . S
C864 C871 1.409 . S
C865 H857 0.930 . S
C865 C863 1.419 . S
C865 C866 1.362 . S
C866 H858 0.930 . S
C866 C865 1.362 . S
C866 C869 1.409 . S
C867 H859 0.930 . S
C867 C868 1.355 . S
C867 C869 1.415 . S
C868 C867 1.355 . S
C868 C870 1.419 . S
C869 C864 1.425 . S
C869 C866 1.409 . S
C869 C867 1.415 . S
C870 H860 0.930 . S
C870 C868 1.419 . S
C870 C871 1.362 . S
C871 H861 0.930 . S
C871 C864 1.409 . S
C871 C870 1.362 . S
H872 C878 0.930 . S
H873 C881 0.930 . S
H874 C882 0.930 . S
H875 C883 0.930 . S
H876 C886 0.930 . S
H877 C887 0.930 . S
C878 H872 0.930 . S
C878 C879 1.355 . S
C878 C880 1.415 . S
C879 C878 1.355 . S
C879 C881 1.419 . S
C880 C878 1.415 . S
C880 C885 1.425 . S
C880 C887 1.409 . S
C881 H873 0.930 . S
C881 C879 1.419 . S
C881 C882 1.362 . S
C882 H874 0.930 . S
C882 C881 1.362 . S
C882 C885 1.409 . S
C883 H875 0.930 . S
C883 C884 1.355 . S
C883 C885 1.415 . S
C884 C883 1.355 . S
C884 C886 1.419 . S
C885 C880 1.425 . S
C885 C882 1.409 . S
C885 C883 1.415 . S
C886 H876 0.930 . S
C886 C884 1.419 . S
C886 C887 1.362 . S
C887 H877 0.930 . S
C887 C880 1.409 . S
C887 C886 1.362 . S
H888 C894 0.930 . S
H889 C897 0.930 . S
H890 C898 0.930 . S
H891 C899 0.930 . S
H892 C902 0.930 . S
H893 C903 0.930 . S
C894 H888 0.930 . S
C894 C895 1.355 1_556 S
C894 C896 1.415 . S
C895 C894 1.355 1_554 S
C895 C897 1.419 . S
C896 C894 1.415 . S
C896 C901 1.425 . S
C896 C903 1.409 . S
C897 H889 0.930 . S
C897 C895 1.419 . S
C897 C898 1.362 . S
C898 H890 0.930 . S
C898 C897 1.362 . S
C898 C901 1.409 1_554 S
C899 H891 0.930 . S
C899 C900 1.355 . S
C899 C901 1.415 . S
C900 C899 1.355 . S
C900 C902 1.419 . S
C901 C896 1.425 . S
C901 C898 1.409 1_556 S
C901 C899 1.415 . S
C902 H892 0.930 . S
C902 C900 1.419 . S
C902 C903 1.362 . S
C903 H893 0.930 . S
C903 C896 1.409 . S
C903 C902 1.362 . S
H904 C910 0.930 . S
H905 C913 0.930 . S
H906 C914 0.930 . S
H907 C915 0.930 . S
H908 C918 0.930 . S
H909 C919 0.930 . S
C910 H904 0.930 . S
C910 C911 1.355 . S
C910 C912 1.415 . S
C911 C910 1.355 . S
C911 C913 1.419 1_556 S
C912 C910 1.415 . S
C912 C917 1.425 1_556 S
C912 C919 1.409 . S
C913 H905 0.930 . S
C913 C911 1.419 1_554 S
C913 C914 1.362 . S
C914 H906 0.930 . S
C914 C913 1.362 . S
C914 C917 1.409 . S
C915 H907 0.930 . S
C915 C916 1.355 . S
C915 C917 1.415 . S
C916 C915 1.355 . S
C916 C918 1.419 1_554 S
C917 C912 1.425 1_554 S
C917 C914 1.409 . S
C917 C915 1.415 . S
C918 H908 0.930 . S
C918 C916 1.419 1_556 S
C918 C919 1.362 . S
C919 H909 0.930 . S
C919 C912 1.409 . S
C919 C918 1.362 . S
H920 C926 0.930 . S
H921 C929 0.930 . S
H922 C930 0.930 . S
H923 C931 0.930 . S
H924 C934 0.930 . S
H925 C935 0.930 . S
C926 H920 0.930 . S
C926 C927 1.355 1_556 S
C926 C928 1.415 . S
C927 C926 1.355 1_554 S
C927 C929 1.419 . S
C928 C926 1.415 . S
C928 C933 1.425 1_556 S
C928 C935 1.409 . S
C929 H921 0.930 . S
C929 C927 1.419 . S
C929 C930 1.362 . S
C930 H922 0.930 . S
C930 C929 1.362 . S
C930 C933 1.409 . S
C931 H923 0.930 . S
C931 C932 1.355 1_554 S
C931 C933 1.415 . S
C932 C931 1.355 1_556 S
C932 C934 1.419 . S
C933 C928 1.425 1_554 S
C933 C930 1.409 . S
C933 C931 1.415 . S
C934 H924 0.930 . S
C934 C932 1.419 . S
C934 C935 1.362 . S
C935 H925 0.930 . S
C935 C928 1.409 . S
C935 C934 1.362 . S
H936 C942 0.930 . S
H937 C945 0.930 . S
H938 C946 0.930 . S
H939 C947 0.930 . S
H940 C950 0.930 . S
H941 C951 0.930 . S
C942 H936 0.930 . S
C942 C943 1.355 . S
C942 C944 1.415 . S
C943 C942 1.355 . S
C943 C945 1.419 . S
C944 C942 1.415 . S
C944 C949 1.425 . S
C944 C951 1.409 . S
C945 H937 0.930 . S
C945 C943 1.419 . S
C945 C946 1.362 . S
C946 H938 0.930 . S
C946 C945 1.362 . S
C946 C949 1.409 . S
C947 H939 0.930 . S
C947 C948 1.355 . S
C947 C949 1.415 . S
C948 C947 1.355 . S
C948 C950 1.419 . S
C949 C944 1.425 . S
C949 C946 1.409 . S
C949 C947 1.415 . S
C950 H940 0.930 . S
C950 C948 1.419 . S
C950 C951 1.362 . S
C951 H941 0.930 . S
C951 C944 1.409 . S
C951 C950 1.362 . S
H952 C958 0.930 . S
H953 C961 0.930 . S
H954 C962 0.930 . S
H955 C963 0.930 . S
H956 C966 0.930 . S
H957 C967 0.930 . S
C958 H952 0.930 . S
C958 C959 1.355 . S
C958 C960 1.415 . S
C959 C958 1.355 . S
C959 C961 1.419 . S
C960 C958 1.415 . S
C960 C965 1.425 . S
C960 C967 1.409 . S
C961 H953 0.930 . S
C961 C959 1.419 . S
C961 C962 1.362 . S
C962 H954 0.930 . S
C962 C961 1.362 . S
C962 C965 1.409 . S
C963 H955 0.930 . S
C963 C964 1.355 . S
C963 C965 1.415 . S
C964 C963 1.355 . S
C964 C966 1.419 . S
C965 C960 1.425 . S
C965 C962 1.409 . S
C965 C963 1.415 . S
C966 H956 0.930 . S
C966 C964 1.419 . S
C966 C967 1.362 . S
C967 H957 0.930 . S
C967 C960 1.409 . S
C967 C966 1.362 . S
H968 C974 0.930 . S
H969 C977 0.930 . S
H970 C978 0.930 . S
H971 C979 0.930 . S
H972 C982 0.930 . S
H973 C983 0.930 . S
C974 H968 0.930 . S
C974 C975 1.355 . S
C974 C976 1.415 . S
C975 C974 1.355 . S
C975 C977 1.419 . S
C976 C974 1.415 . S
C976 C981 1.425 . S
C976 C983 1.409 . S
C977 H969 0.930 . S
C977 C975 1.419 . S
C977 C978 1.362 . S
C978 H970 0.930 . S
C978 C977 1.362 . S
C978 C981 1.409 . S
C979 H971 0.930 . S
C979 C980 1.355 . S
C979 C981 1.415 . S
C980 C979 1.355 . S
C980 C982 1.419 . S
C981 C976 1.425 . S
C981 C978 1.409 . S
C981 C979 1.415 . S
C982 H972 0.930 . S
C982 C980 1.419 . S
C982 C983 1.362 . S
C983 H973 0.930 . S
C983 C976 1.409 . S
C983 C982 1.362 . S
H984 C990 0.930 . S
H985 C993 0.930 . S
H986 C994 0.930 . S
H987 C995 0.930 . S
H988 C998 0.930 . S
H989 C999 0.930 . S
C990 H984 0.930 . S
C990 C991 1.355 . S
C990 C992 1.415 . S
C991 C990 1.355 . S
C991 C993 1.419 . S
C992 C990 1.415 . S
C992 C997 1.425 . S
C992 C999 1.409 . S
C993 H985 0.930 . S
C993 C991 1.419 . S
C993 C994 1.362 . S
C994 H986 0.930 . S
C994 C993 1.362 . S
C994 C997 1.409 . S
C995 H987 0.930 . S
C995 C996 1.355 . S
C995 C997 1.415 . S
C996 C995 1.355 . S
C996 C998 1.419 . S
C997 C992 1.425 . S
C997 C994 1.409 . S
C997 C995 1.415 . S
C998 H988 0.930 . S
C998 C996 1.419 . S
C998 C999 1.362 . S
C999 H989 0.930 . S
C999 C992 1.409 . S
C999 C998 1.362 . S
H1000 C1006 0.930 . S
H1001 C1009 0.930 . S
H1002 C1010 0.930 . S
H1003 C1011 0.930 . S
H1004 C1014 0.930 . S
H1005 C1015 0.930 . S
C1006 H1000 0.930 . S
C1006 C1007 1.355 . S
C1006 C1008 1.415 . S
C1007 C1006 1.355 . S
C1007 C1009 1.419 . S
C1008 C1006 1.415 . S
C1008 C1013 1.425 . S
C1008 C1015 1.409 . S
C1009 H1001 0.930 . S
C1009 C1007 1.419 . S
C1009 C1010 1.362 . S
C1010 H1002 0.930 . S
C1010 C1009 1.362 . S
C1010 C1013 1.409 . S
C1011 H1003 0.930 . S
C1011 C1012 1.355 . S
C1011 C1013 1.415 . S
C1012 C1011 1.355 . S
C1012 C1014 1.419 . S
C1013 C1008 1.425 . S
C1013 C1010 1.409 . S
C1013 C1011 1.415 . S
C1014 H1004 0.930 . S
C1014 C1012 1.419 . S
C1014 C1015 1.362 . S
C1015 H1005 0.930 . S
C1015 C1008 1.409 . S
C1015 C1014 1.362 . S
H1016 C1022 0.930 . S
H1017 C1025 0.930 . S
H1018 C1026 0.930 . S
H1019 C1027 0.930 . S
H1020 C1030 0.930 . S
H1021 C1031 0.930 . S
C1022 H1016 0.930 . S
C1022 C1023 1.355 . S
C1022 C1024 1.415 . S
C1023 C1022 1.355 . S
C1023 C1025 1.419 . S
C1024 C1022 1.415 . S
C1024 C1029 1.425 . S
C1024 C1031 1.409 . S
C1025 H1017 0.930 . S
C1025 C1023 1.419 . S
C1025 C1026 1.362 . S
C1026 H1018 0.930 . S
C1026 C1025 1.362 . S
C1026 C1029 1.409 . S
C1027 H1019 0.930 . S
C1027 C1028 1.355 . S
C1027 C1029 1.415 . S
C1028 C1027 1.355 . S
C1028 C1030 1.419 . S
C1029 C1024 1.425 . S
C1029 C1026 1.409 . S
C1029 C1027 1.415 . S
C1030 H1020 0.930 . S
C1030 C1028 1.419 . S
C1030 C1031 1.362 . S
C1031 H1021 0.930 . S
C1031 C1024 1.409 . S
C1031 C1030 1.362 . S
H1032 C1038 0.930 . S
H1033 C1041 0.930 . S
H1034 C1042 0.930 . S
H1035 C1043 0.930 . S
H1036 C1046 0.930 . S
H1037 C1047 0.930 . S
C1038 H1032 0.930 . S
C1038 C1039 1.355 . S
C1038 C1040 1.415 . S
C1039 C1038 1.355 . S
C1039 C1041 1.419 . S
C1040 C1038 1.415 . S
C1040 C1045 1.425 . S
C1040 C1047 1.409 . S
C1041 H1033 0.930 . S
C1041 C1039 1.419 . S
C1041 C1042 1.362 . S
C1042 H1034 0.930 . S
C1042 C1041 1.362 . S
C1042 C1045 1.409 . S
C1043 H1035 0.930 . S
C1043 C1044 1.355 . S
C1043 C1045 1.415 . S
C1044 C1043 1.355 . S
C1044 C1046 1.419 . S
C1045 C1040 1.425 . S
C1045 C1042 1.409 . S
C1045 C1043 1.415 . S
C1046 H1036 0.930 . S
C1046 C1044 1.419 . S
C1046 C1047 1.362 . S
C1047 H1037 0.930 . S
C1047 C1040 1.409 . S
C1047 C1046 1.362 . S
H1048 C1054 0.930 . S
H1049 C1057 0.930 . S
H1050 C1058 0.930 . S
H1051 C1059 0.930 . S
H1052 C1062 0.930 . S
H1053 C1063 0.930 . S
C1054 H1048 0.930 . S
C1054 C1055 1.355 . S
C1054 C1056 1.415 . S
C1055 C1054 1.355 . S
C1055 C1057 1.419 . S
C1056 C1054 1.415 . S
C1056 C1061 1.425 . S
C1056 C1063 1.409 . S
C1057 H1049 0.930 . S
C1057 C1055 1.419 . S
C1057 C1058 1.362 . S
C1058 H1050 0.930 . S
C1058 C1057 1.362 . S
C1058 C1061 1.409 . S
C1059 H1051 0.930 . S
C1059 C1060 1.355 . S
C1059 C1061 1.415 . S
C1060 C1059 1.355 . S
C1060 C1062 1.419 . S
C1061 C1056 1.425 . S
C1061 C1058 1.409 . S
C1061 C1059 1.415 . S
C1062 H1052 0.930 . S
C1062 C1060 1.419 . S
C1062 C1063 1.362 . S
C1063 H1053 0.930 . S
C1063 C1056 1.409 . S
C1063 C1062 1.362 . S
H1064 C1070 0.930 . S
H1065 C1073 0.930 . S
H1066 C1074 0.930 . S
H1067 C1075 0.930 . S
H1068 C1078 0.930 . S
H1069 C1079 0.930 . S
C1070 H1064 0.930 . S
C1070 C1071 1.355 . S
C1070 C1072 1.415 . S
C1071 C1070 1.355 . S
C1071 C1073 1.419 . S
C1072 C1070 1.415 . S
C1072 C1077 1.425 . S
C1072 C1079 1.409 . S
C1073 H1065 0.930 . S
C1073 C1071 1.419 . S
C1073 C1074 1.362 . S
C1074 H1066 0.930 . S
C1074 C1073 1.362 . S
C1074 C1077 1.409 . S
C1075 H1067 0.930 . S
C1075 C1076 1.355 . S
C1075 C1077 1.415 . S
C1076 C1075 1.355 . S
C1076 C1078 1.419 . S
C1077 C1072 1.425 . S
C1077 C1074 1.409 . S
C1077 C1075 1.415 . S
C1078 H1068 0.930 . S
C1078 C1076 1.419 . S
C1078 C1079 1.362 . S
C1079 H1069 0.930 . S
C1079 C1072 1.409 . S
C1079 C1078 1.362 . S
H1080 C1086 0.930 . S
H1081 C1089 0.930 . S
H1082 C1090 0.930 . S
H1083 C1091 0.930 . S
H1084 C1094 0.930 . S
H1085 C1095 0.930 . S
C1086 H1080 0.930 . S
C1086 C1087 1.355 . S
C1086 C1088 1.415 . S
C1087 C1086 1.355 . S
C1087 C1089 1.419 . S
C1088 C1086 1.415 . S
C1088 C1093 1.425 . S
C1088 C1095 1.409 . S
C1089 H1081 0.930 . S
C1089 C1087 1.419 . S
C1089 C1090 1.362 . S
C1090 H1082 0.930 . S
C1090 C1089 1.362 . S
C1090 C1093 1.409 . S
C1091 H1083 0.930 . S
C1091 C1092 1.355 . S
C1091 C1093 1.415 . S
C1092 C1091 1.355 . S
C1092 C1094 1.419 . S
C1093 C1088 1.425 . S
C1093 C1090 1.409 . S
C1093 C1091 1.415 . S
C1094 H1084 0.930 . S
C1094 C1092 1.419 . S
C1094 C1095 1.362 . S
C1095 H1085 0.930 . S
C1095 C1088 1.409 . S
C1095 C1094 1.362 . S
H1096 C1102 0.930 . S
H1097 C1105 0.930 . S
H1098 C1106 0.930 . S
H1099 C1107 0.930 . S
H1100 C1110 0.930 . S
H1101 C1111 0.930 . S
C1102 H1096 0.930 . S
C1102 C1103 1.355 . S
C1102 C1104 1.415 . S
C1103 C1102 1.355 . S
C1103 C1105 1.419 . S
C1104 C1102 1.415 . S
C1104 C1109 1.425 . S
C1104 C1111 1.409 . S
C1105 H1097 0.930 . S
C1105 C1103 1.419 . S
C1105 C1106 1.362 . S
C1106 H1098 0.930 . S
C1106 C1105 1.362 . S
C1106 C1109 1.409 . S
C1107 H1099 0.930 . S
C1107 C1108 1.355 . S
C1107 C1109 1.415 . S
C1108 C1107 1.355 . S
C1108 C1110 1.419 . S
C1109 C1104 1.425 . S
C1109 C1106 1.409 . S
C1109 C1107 1.415 . S
C1110 H1100 0.930 . S
C1110 C1108 1.419 . S
C1110 C1111 1.362 . S
C1111 H1101 0.930 . S
C1111 C1104 1.409 . S
C1111 C1110 1.362 . S
H1112 C1118 0.930 . S
H1113 C1121 0.930 . S
H1114 C1122 0.930 . S
H1115 C1123 0.930 . S
H1116 C1126 0.930 . S
H1117 C1127 0.930 . S
C1118 H1112 0.930 . S
C1118 C1119 1.355 . S
C1118 C1120 1.415 . S
C1119 C1118 1.355 . S
C1119 C1121 1.419 . S
C1120 C1118 1.415 . S
C1120 C1125 1.425 . S
C1120 C1127 1.409 . S
C1121 H1113 0.930 . S
C1121 C1119 1.419 . S
C1121 C1122 1.362 . S
C1122 H1114 0.930 . S
C1122 C1121 1.362 . S
C1122 C1125 1.409 . S
C1123 H1115 0.930 . S
C1123 C1124 1.355 . S
C1123 C1125 1.415 . S
C1124 C1123 1.355 . S
C1124 C1126 1.419 . S
C1125 C1120 1.425 . S
C1125 C1122 1.409 . S
C1125 C1123 1.415 . S
C1126 H1116 0.930 . S
C1126 C1124 1.419 . S
C1126 C1127 1.362 . S
C1127 H1117 0.930 . S
C1127 C1120 1.409 . S
C1127 C1126 1.362 . S
H1128 C1134 0.930 . S
H1129 C1137 0.930 . S
H1130 C1138 0.930 . S
H1131 C1139 0.930 . S
H1132 C1142 0.930 . S
H1133 C1143 0.930 . S
C1134 H1128 0.930 . S
C1134 C1135 1.355 . S
C1134 C1136 1.415 . S
C1135 C1134 1.355 . S
C1135 C1137 1.419 . S
C1136 C1134 1.415 . S
C1136 C1141 1.425 . S
C1136 C1143 1.409 . S
C1137 H1129 0.930 . S
C1137 C1135 1.419 . S
C1137 C1138 1.362 . S
C1138 H1130 0.930 . S
C1138 C1137 1.362 . S
C1138 C1141 1.409 . S
C1139 H1131 0.930 . S
C1139 C1140 1.355 . S
C1139 C1141 1.415 . S
C1140 C1139 1.355 . S
C1140 C1142 1.419 . S
C1141 C1136 1.425 . S
C1141 C1138 1.409 . S
C1141 C1139 1.415 . S
C1142 H1132 0.930 . S
C1142 C1140 1.419 . S
C1142 C1143 1.362 . S
C1143 H1133 0.930 . S
C1143 C1136 1.409 . S
C1143 C1142 1.362 . S
H1144 C1150 0.930 . S
H1145 C1153 0.930 . S
H1146 C1154 0.930 . S
H1147 C1155 0.930 . S
H1148 C1158 0.930 . S
H1149 C1159 0.930 . S
C1150 H1144 0.930 . S
C1150 C1151 1.355 . S
C1150 C1152 1.415 . S
C1151 C1150 1.355 . S
C1151 C1153 1.419 . S
C1152 C1150 1.415 . S
C1152 C1157 1.425 . S
C1152 C1159 1.409 . S
C1153 H1145 0.930 . S
C1153 C1151 1.419 . S
C1153 C1154 1.362 . S
C1154 H1146 0.930 . S
C1154 C1153 1.362 . S
C1154 C1157 1.409 . S
C1155 H1147 0.930 . S
C1155 C1156 1.355 . S
C1155 C1157 1.415 . S
C1156 C1155 1.355 . S
C1156 C1158 1.419 . S
C1157 C1152 1.425 . S
C1157 C1154 1.409 . S
C1157 C1155 1.415 . S
C1158 H1148 0.930 . S
C1158 C1156 1.419 . S
C1158 C1159 1.362 . S
C1159 H1149 0.930 . S
C1159 C1152 1.409 . S
C1159 C1158 1.362 . S
H1160 C1166 0.930 . S
H1161 C1169 0.930 . S
H1162 C1170 0.930 . S
H1163 C1171 0.930 . S
H1164 C1174 0.930 . S
H1165 C1175 0.930 . S
C1166 H1160 0.930 . S
C1166 C1167 1.355 . S
C1166 C1168 1.415 . S
C1167 C1166 1.355 . S
C1167 C1169 1.419 . S
C1168 C1166 1.415 . S
C1168 C1173 1.425 . S
C1168 C1175 1.409 . S
C1169 H1161 0.930 . S
C1169 C1167 1.419 . S
C1169 C1170 1.362 . S
C1170 H1162 0.930 . S
C1170 C1169 1.362 . S
C1170 C1173 1.409 . S
C1171 H1163 0.930 . S
C1171 C1172 1.355 . S
C1171 C1173 1.415 . S
C1172 C1171 1.355 . S
C1172 C1174 1.419 . S
C1173 C1168 1.425 . S
C1173 C1170 1.409 . S
C1173 C1171 1.415 . S
C1174 H1164 0.930 . S
C1174 C1172 1.419 . S
C1174 C1175 1.362 . S
C1175 H1165 0.930 . S
C1175 C1168 1.409 . S
C1175 C1174 1.362 . S
H1176 C1182 0.930 . S
H1177 C1185 0.930 . S
H1178 C1186 0.930 . S
H1179 C1187 0.930 . S
H1180 C1190 0.930 . S
H1181 C1191 0.930 . S
C1182 H1176 0.930 . S
C1182 C1183 1.355 . S
C1182 C1184 1.415 . S
C1183 C1182 1.355 . S
C1183 C1185 1.419 . S
C1184 C1182 1.415 . S
C1184 C1189 1.425 . S
C1184 C1191 1.409 . S
C1185 H1177 0.930 . S
C1185 C1183 1.419 . S
C1185 C1186 1.362 . S
C1186 H1178 0.930 . S
C1186 C1185 1.362 . S
C1186 C1189 1.409 . S
C1187 H1179 0.930 . S
C1187 C1188 1.355 . S
C1187 C1189 1.415 . S
C1188 C1187 1.355 . S
C1188 C1190 1.419 . S
C1189 C1184 1.425 . S
C1189 C1186 1.409 . S
C1189 C1187 1.415 . S
C1190 H1180 0.930 . S
C1190 C1188 1.419 . S
C1190 C1191 1.362 . S
C1191 H1181 0.930 . S
C1191 C1184 1.409 . S
C1191 C1190 1.362 . S
H1192 C1198 0.930 . S
H1193 C1201 0.930 . S
H1194 C1202 0.930 . S
H1195 C1203 0.930 . S
H1196 C1206 0.930 . S
H1197 C1207 0.930 . S
C1198 H1192 0.930 . S
C1198 C1199 1.355 . S
C1198 C1200 1.415 . S
C1199 C1198 1.355 . S
C1199 C1201 1.419 . S
C1200 C1198 1.415 . S
C1200 C1205 1.425 . S
C1200 C1207 1.409 . S
C1201 H1193 0.930 . S
C1201 C1199 1.419 . S
C1201 C1202 1.362 . S
C1202 H1194 0.930 . S
C1202 C1201 1.362 . S
C1202 C1205 1.409 . S
C1203 H1195 0.930 . S
C1203 C1204 1.355 . S
C1203 C1205 1.415 . S
C1204 C1203 1.355 . S
C1204 C1206 1.419 . S
C1205 C1200 1.425 . S
C1205 C1202 1.409 . S
C1205 C1203 1.415 . S
C1206 H1196 0.930 . S
C1206 C1204 1.419 . S
C1206 C1207 1.362 . S
C1207 H1197 0.930 . S
C1207 C1200 1.409 . S
C1207 C1206 1.362 . S
H1208 C1214 0.930 . S
H1209 C1217 0.930 . S
H1210 C1218 0.930 . S
H1211 C1219 0.930 . S
H1212 C1222 0.930 . S
H1213 C1223 0.930 . S
C1214 H1208 0.930 . S
C1214 C1215 1.355 . S
C1214 C1216 1.415 . S
C1215 C1214 1.355 . S
C1215 C1217 1.419 . S
C1216 C1214 1.415 . S
C1216 C1221 1.425 . S
C1216 C1223 1.409 . S
C1217 H1209 0.930 . S
C1217 C1215 1.419 . S
C1217 C1218 1.362 . S
C1218 H1210 0.930 . S
C1218 C1217 1.362 . S
C1218 C1221 1.409 . S
C1219 H1211 0.930 . S
C1219 C1220 1.355 . S
C1219 C1221 1.415 . S
C1220 C1219 1.355 . S
C1220 C1222 1.419 . S
C1221 C1216 1.425 . S
C1221 C1218 1.409 . S
C1221 C1219 1.415 . S
C1222 H1212 0.930 . S
C1222 C1220 1.419 . S
C1222 C1223 1.362 . S
C1223 H1213 0.930 . S
C1223 C1216 1.409 . S
C1223 C1222 1.362 . S
H1224 C1230 0.930 . S
H1225 C1233 0.930 . S
H1226 C1234 0.930 . S
H1227 C1235 0.930 . S
H1228 C1238 0.930 . S
H1229 C1239 0.930 . S
C1230 H1224 0.930 . S
C1230 C1231 1.355 . S
C1230 C1232 1.415 . S
C1231 C1230 1.355 . S
C1231 C1233 1.419 . S
C1232 C1230 1.415 . S
C1232 C1237 1.425 . S
C1232 C1239 1.409 . S
C1233 H1225 0.930 . S
C1233 C1231 1.419 . S
C1233 C1234 1.362 . S
C1234 H1226 0.930 . S
C1234 C1233 1.362 . S
C1234 C1237 1.409 . S
C1235 H1227 0.930 . S
C1235 C1236 1.355 . S
C1235 C1237 1.415 . S
C1236 C1235 1.355 . S
C1236 C1238 1.419 . S
C1237 C1232 1.425 . S
C1237 C1234 1.409 . S
C1237 C1235 1.415 . S
C1238 H1228 0.930 . S
C1238 C1236 1.419 . S
C1238 C1239 1.362 . S
C1239 H1229 0.930 . S
C1239 C1232 1.409 . S
C1239 C1238 1.362 . S
H1240 C1246 0.930 . S
H1241 C1249 0.930 . S
H1242 C1250 0.930 . S
H1243 C1251 0.930 . S
H1244 C1254 0.930 . S
H1245 C1255 0.930 . S
C1246 H1240 0.930 . S
C1246 C1247 1.355 . S
C1246 C1248 1.415 . S
C1247 C1246 1.355 . S
C1247 C1249 1.419 . S
C1248 C1246 1.415 . S
C1248 C1253 1.425 . S
C1248 C1255 1.409 . S
C1249 H1241 0.930 . S
C1249 C1247 1.419 . S
C1249 C1250 1.362 . S
C1250 H1242 0.930 . S
C1250 C1249 1.362 . S
C1250 C1253 1.409 . S
C1251 H1243 0.930 . S
C1251 C1252 1.355 . S
C1251 C1253 1.415 . S
C1252 C1251 1.355 . S
C1252 C1254 1.419 . S
C1253 C1248 1.425 . S
C1253 C1250 1.409 . S
C1253 C1251 1.415 . S
C1254 H1244 0.930 . S
C1254 C1252 1.419 . S
C1254 C1255 1.362 . S
C1255 H1245 0.930 . S
C1255 C1248 1.409 . S
C1255 C1254 1.362 . S
H1256 C1262 0.930 . S
H1257 C1265 0.930 . S
H1258 C1266 0.930 . S
H1259 C1267 0.930 . S
H1260 C1270 0.930 . S
H1261 C1271 0.930 . S
C1262 H1256 0.930 . S
C1262 C1263 1.355 . S
C1262 C1264 1.415 . S
C1263 C1262 1.355 . S
C1263 C1265 1.419 . S
C1264 C1262 1.415 . S
C1264 C1269 1.425 . S
C1264 C1271 1.409 . S
C1265 H1257 0.930 . S
C1265 C1263 1.419 . S
C1265 C1266 1.362 . S
C1266 H1258 0.930 . S
C1266 C1265 1.362 . S
C1266 C1269 1.409 . S
C1267 H1259 0.930 . S
C1267 C1268 1.355 . S
C1267 C1269 1.415 . S
C1268 C1267 1.355 . S
C1268 C1270 1.419 . S
C1269 C1264 1.425 . S
C1269 C1266 1.409 . S
C1269 C1267 1.415 . S
C1270 H1260 0.930 . S
C1270 C1268 1.419 . S
C1270 C1271 1.362 . S
C1271 H1261 0.930 . S
C1271 C1264 1.409 . S
C1271 C1270 1.362 . S
H1272 C1278 0.930 . S
H1273 C1281 0.930 . S
H1274 C1282 0.930 . S
H1275 C1283 0.930 . S
H1276 C1286 0.930 . S
H1277 C1287 0.930 . S
C1278 H1272 0.930 . S
C1278 C1279 1.355 . S
C1278 C1280 1.415 . S
C1279 C1278 1.355 . S
C1279 C1281 1.419 . S
C1280 C1278 1.415 . S
C1280 C1285 1.425 . S
C1280 C1287 1.409 . S
C1281 H1273 0.930 . S
C1281 C1279 1.419 . S
C1281 C1282 1.362 . S
C1282 H1274 0.930 . S
C1282 C1281 1.362 . S
C1282 C1285 1.409 . S
C1283 H1275 0.930 . S
C1283 C1284 1.355 . S
C1283 C1285 1.415 . S
C1284 C1283 1.355 . S
C1284 C1286 1.419 . S
C1285 C1280 1.425 . S
C1285 C1282 1.409 . S
C1285 C1283 1.415 . S
C1286 H1276 0.930 . S
C1286 C1284 1.419 . S
C1286 C1287 1.362 . S
C1287 H1277 0.930 . S
C1287 C1280 1.409 . S
C1287 C1286 1.362 . S
H1288 C1294 0.930 . S
H1289 C1297 0.930 . S
H1290 C1298 0.930 . S
H1291 C1299 0.930 . S
H1292 C1302 0.930 . S
H1293 C1303 0.930 . S
C1294 H1288 0.930 . S
C1294 C1295 1.355 . S
C1294 C1296 1.415 . S
C1295 C1294 1.355 . S
C1295 C1297 1.419 . S
C1296 C1294 1.415 . S
C1296 C1301 1.425 . S
C1296 C1303 1.409 . S
C1297 H1289 0.930 . S
C1297 C1295 1.419 . S
C1297 C1298 1.362 . S
C1298 H1290 0.930 . S
C1298 C1297 1.362 . S
C1298 C1301 1.409 . S
C1299 H1291 0.930 . S
C1299 C1300 1.355 . S
C1299 C1301 1.415 . S
C1300 C1299 1.355 . S
C1300 C1302 1.419 . S
C1301 C1296 1.425 . S
C1301 C1298 1.409 . S
C1301 C1299 1.415 . S
C1302 H1292 0.930 . S
C1302 C1300 1.419 . S
C1302 C1303 1.362 . S
C1303 H1293 0.930 . S
C1303 C1296 1.409 . S
C1303 C1302 1.362 . S
H1304 C1310 0.930 . S
H1305 C1313 0.930 . S
H1306 C1314 0.930 . S
H1307 C1315 0.930 . S
H1308 C1318 0.930 . S
H1309 C1319 0.930 . S
C1310 H1304 0.930 . S
C1310 C1311 1.355 . S
C1310 C1312 1.415 . S
C1311 C1310 1.355 . S
C1311 C1313 1.419 . S
C1312 C1310 1.415 . S
C1312 C1317 1.425 . S
C1312 C1319 1.409 . S
C1313 H1305 0.930 . S
C1313 C1311 1.419 . S
C1313 C1314 1.362 . S
C1314 H1306 0.930 . S
C1314 C1313 1.362 . S
C1314 C1317 1.409 . S
C1315 H1307 0.930 . S
C1315 C1316 1.355 . S
C1315 C1317 1.415 . S
C1316 C1315 1.355 . S
C1316 C1318 1.419 . S
C1317 C1312 1.425 . S
C1317 C1314 1.409 . S
C1317 C1315 1.415 . S
C1318 H1308 0.930 . S
C1318 C1316 1.419 . S
C1318 C1319 1.362 . S
C1319 H1309 0.930 . S
C1319 C1312 1.409 . S
C1319 C1318 1.362 . S
H1320 C1326 0.930 . S
H1321 C1329 0.930 . S
H1322 C1330 0.930 . S
H1323 C1331 0.930 . S
H1324 C1334 0.930 . S
H1325 C1335 0.930 . S
C1326 H1320 0.930 . S
C1326 C1327 1.355 . S
C1326 C1328 1.415 . S
C1327 C1326 1.355 . S
C1327 C1329 1.419 . S
C1328 C1326 1.415 . S
C1328 C1333 1.425 . S
C1328 C1335 1.409 . S
C1329 H1321 0.930 . S
C1329 C1327 1.419 . S
C1329 C1330 1.362 . S
C1330 H1322 0.930 . S
C1330 C1329 1.362 . S
C1330 C1333 1.409 . S
C1331 H1323 0.930 . S
C1331 C1332 1.355 . S
C1331 C1333 1.415 . S
C1332 C1331 1.355 . S
C1332 C1334 1.419 . S
C1333 C1328 1.425 . S
C1333 C1330 1.409 . S
C1333 C1331 1.415 . S
C1334 H1324 0.930 . S
C1334 C1332 1.419 . S
C1334 C1335 1.362 . S
C1335 H1325 0.930 . S
C1335 C1328 1.409 . S
C1335 C1334 1.362 . S
H1336 C1342 0.930 . S
H1337 C1345 0.930 . S
H1338 C1346 0.930 . S
H1339 C1347 0.930 . S
H1340 C1350 0.930 . S
H1341 C1351 0.930 . S
C1342 H1336 0.930 . S
C1342 C1343 1.355 . S
C1342 C1344 1.415 . S
C1343 C1342 1.355 . S
C1343 C1345 1.419 . S
C1344 C1342 1.415 . S
C1344 C1349 1.425 . S
C1344 C1351 1.409 . S
C1345 H1337 0.930 . S
C1345 C1343 1.419 . S
C1345 C1346 1.362 . S
C1346 H1338 0.930 . S
C1346 C1345 1.362 . S
C1346 C1349 1.409 . S
C1347 H1339 0.930 . S
C1347 C1348 1.355 . S
C1347 C1349 1.415 . S
C1348 C1347 1.355 . S
C1348 C1350 1.419 . S
C1349 C1344 1.425 . S
C1349 C1346 1.409 . S
C1349 C1347 1.415 . S
C1350 H1340 0.930 . S
C1350 C1348 1.419 . S
C1350 C1351 1.362 . S
C1351 H1341 0.930 . S
C1351 C1344 1.409 . S
C1351 C1350 1.362 . S
H1352 C1358 0.930 . S
H1353 C1361 0.930 . S
H1354 C1362 0.930 . S
H1355 C1363 0.930 . S
H1356 C1366 0.930 . S
H1357 C1367 0.930 . S
C1358 H1352 0.930 . S
C1358 C1359 1.355 . S
C1358 C1360 1.415 . S
C1359 C1358 1.355 . S
C1359 C1361 1.419 . S
C1360 C1358 1.415 . S
C1360 C1365 1.425 . S
C1360 C1367 1.409 . S
C1361 H1353 0.930 . S
C1361 C1359 1.419 . S
C1361 C1362 1.362 . S
C1362 H1354 0.930 . S
C1362 C1361 1.362 . S
C1362 C1365 1.409 . S
C1363 H1355 0.930 . S
C1363 C1364 1.355 . S
C1363 C1365 1.415 . S
C1364 C1363 1.355 . S
C1364 C1366 1.419 . S
C1365 C1360 1.425 . S
C1365 C1362 1.409 . S
C1365 C1363 1.415 . S
C1366 H1356 0.930 . S
C1366 C1364 1.419 . S
C1366 C1367 1.362 . S
C1367 H1357 0.930 . S
C1367 C1360 1.409 . S
C1367 C1366 1.362 . S
H1368 C1374 0.930 . S
H1369 C1377 0.930 . S
H1370 C1378 0.930 . S
H1371 C1379 0.930 . S
H1372 C1382 0.930 . S
H1373 C1383 0.930 . S
C1374 H1368 0.930 . S
C1374 C1375 1.355 . S
C1374 C1376 1.415 . S
C1375 C1374 1.355 . S
C1375 C1377 1.419 . S
C1376 C1374 1.415 . S
C1376 C1381 1.425 . S
C1376 C1383 1.409 . S
C1377 H1369 0.930 . S
C1377 C1375 1.419 . S
C1377 C1378 1.362 . S
C1378 H1370 0.930 . S
C1378 C1377 1.362 . S
C1378 C1381 1.409 . S
C1379 H1371 0.930 . S
C1379 C1380 1.355 . S
C1379 C1381 1.415 . S
C1380 C1379 1.355 . S
C1380 C1382 1.419 . S
C1381 C1376 1.425 . S
C1381 C1378 1.409 . S
C1381 C1379 1.415 . S
C1382 H1372 0.930 . S
C1382 C1380 1.419 . S
C1382 C1383 1.362 . S
C1383 H1373 0.930 . S
C1383 C1376 1.409 . S
C1383 C1382 1.362 . S
H1384 C1390 0.930 . S
H1385 C1393 0.930 . S
H1386 C1394 0.930 . S
H1387 C1395 0.930 . S
H1388 C1398 0.930 . S
H1389 C1399 0.930 . S
C1390 H1384 0.930 . S
C1390 C1391 1.355 1_565 S
C1390 C1392 1.415 . S
C1391 C1390 1.355 1_545 S
C1391 C1393 1.419 . S
C1392 C1390 1.415 . S
C1392 C1397 1.425 1_565 S
C1392 C1399 1.409 . S
C1393 H1385 0.930 . S
C1393 C1391 1.419 . S
C1393 C1394 1.362 . S
C1394 H1386 0.930 . S
C1394 C1393 1.362 . S
C1394 C1397 1.409 . S
C1395 H1387 0.930 . S
C1395 C1396 1.355 1_545 S
C1395 C1397 1.415 . S
C1396 C1395 1.355 1_565 S
C1396 C1398 1.419 . S
C1397 C1392 1.425 1_545 S
C1397 C1394 1.409 . S
C1397 C1395 1.415 . S
C1398 H1388 0.930 . S
C1398 C1396 1.419 . S
C1398 C1399 1.362 . S
C1399 H1389 0.930 . S
C1399 C1392 1.409 . S
C1399 C1398 1.362 . S
H1400 C1406 0.930 . S
H1401 C1409 0.930 . S
H1402 C1410 0.930 . S
H1403 C1411 0.930 . S
H1404 C1414 0.930 . S
H1405 C1415 0.930 . S
C1406 H1400 0.930 . S
C1406 C1407 1.355 1_655 S
C1406 C1408 1.415 . S
C1407 C1406 1.355 1_455 S
C1407 C1409 1.419 . S
C1408 C1406 1.415 . S
C1408 C1413 1.425 1_655 S
C1408 C1415 1.409 . S
C1409 H1401 0.930 . S
C1409 C1407 1.419 . S
C1409 C1410 1.362 . S
C1410 H1402 0.930 . S
C1410 C1409 1.362 . S
C1410 C1413 1.409 . S
C1411 H1403 0.930 . S
C1411 C1412 1.355 1_455 S
C1411 C1413 1.415 . S
C1412 C1411 1.355 1_655 S
C1412 C1414 1.419 . S
C1413 C1408 1.425 1_455 S
C1413 C1410 1.409 . S
C1413 C1411 1.415 . S
C1414 H1404 0.930 . S
C1414 C1412 1.419 . S
C1414 C1415 1.362 . S
C1415 H1405 0.930 . S
C1415 C1408 1.409 . S
C1415 C1414 1.362 . S
H1416 C1422 0.930 . S
H1417 C1425 0.930 . S
H1418 C1426 0.930 . S
H1419 C1427 0.930 . S
H1420 C1430 0.930 . S
H1421 C1431 0.930 . S
C1422 H1416 0.930 . S
C1422 C1423 1.355 . S
C1422 C1424 1.415 . S
C1423 C1422 1.355 . S
C1423 C1425 1.419 . S
C1424 C1422 1.415 . S
C1424 C1429 1.425 . S
C1424 C1431 1.409 . S
C1425 H1417 0.930 . S
C1425 C1423 1.419 . S
C1425 C1426 1.362 . S
C1426 H1418 0.930 . S
C1426 C1425 1.362 . S
C1426 C1429 1.409 . S
C1427 H1419 0.930 . S
C1427 C1428 1.355 . S
C1427 C1429 1.415 . S
C1428 C1427 1.355 . S
C1428 C1430 1.419 . S
C1429 C1424 1.425 . S
C1429 C1426 1.409 . S
C1429 C1427 1.415 . S
C1430 H1420 0.930 . S
C1430 C1428 1.419 . S
C1430 C1431 1.362 . S
C1431 H1421 0.930 . S
C1431 C1424 1.409 . S
C1431 C1430 1.362 . S
H1432 C1438 0.930 . S
H1433 C1441 0.930 . S
H1434 C1442 0.930 . S
H1435 C1443 0.930 . S
H1436 C1446 0.930 . S
H1437 C1447 0.930 . S
C1438 H1432 0.930 . S
C1438 C1439 1.355 . S
C1438 C1440 1.415 . S
C1439 C1438 1.355 . S
C1439 C1441 1.419 1_545 S
C1440 C1438 1.415 . S
C1440 C1445 1.425 1_545 S
C1440 C1447 1.409 . S
C1441 H1433 0.930 . S
C1441 C1439 1.419 1_565 S
C1441 C1442 1.362 . S
C1442 H1434 0.930 . S
C1442 C1441 1.362 . S
C1442 C1445 1.409 . S
C1443 H1435 0.930 . S
C1443 C1444 1.355 . S
C1443 C1445 1.415 . S
C1444 C1443 1.355 . S
C1444 C1446 1.419 1_565 S
C1445 C1440 1.425 1_565 S
C1445 C1442 1.409 . S
C1445 C1443 1.415 . S
C1446 H1436 0.930 . S
C1446 C1444 1.419 1_545 S
C1446 C1447 1.362 . S
C1447 H1437 0.930 . S
C1447 C1440 1.409 . S
C1447 C1446 1.362 . S
H1448 C1454 0.930 . S
H1449 C1457 0.930 . S
H1450 C1458 0.930 . S
H1451 C1459 0.930 . S
H1452 C1462 0.930 . S
H1453 C1463 0.930 . S
C1454 H1448 0.930 . S
C1454 C1455 1.355 . S
C1454 C1456 1.415 . S
C1455 C1454 1.355 . S
C1455 C1457 1.419 1_655 S
C1456 C1454 1.415 . S
C1456 C1461 1.425 1_655 S
C1456 C1463 1.409 . S
C1457 H1449 0.930 . S
C1457 C1455 1.419 1_455 S
C1457 C1458 1.362 . S
C1458 H1450 0.930 . S
C1458 C1457 1.362 . S
C1458 C1461 1.409 . S
C1459 H1451 0.930 . S
C1459 C1460 1.355 . S
C1459 C1461 1.415 . S
C1460 C1459 1.355 . S
C1460 C1462 1.419 1_455 S
C1461 C1456 1.425 1_455 S
C1461 C1458 1.409 . S
C1461 C1459 1.415 . S
C1462 H1452 0.930 . S
C1462 C1460 1.419 1_655 S
C1462 C1463 1.362 . S
C1463 H1453 0.930 . S
C1463 C1456 1.409 . S
C1463 C1462 1.362 . S
H1464 C1470 0.930 . S
H1465 C1473 0.930 . S
H1466 C1474 0.930 . S
H1467 C1475 0.930 . S
H1468 C1478 0.930 . S
H1469 C1479 0.930 . S
C1470 H1464 0.930 . S
C1470 C1471 1.355 . S
C1470 C1472 1.415 . S
C1471 C1470 1.355 . S
C1471 C1473 1.419 . S
C1472 C1470 1.415 . S
C1472 C1477 1.425 . S
C1472 C1479 1.409 . S
C1473 H1465 0.930 . S
C1473 C1471 1.419 . S
C1473 C1474 1.362 . S
C1474 H1466 0.930 . S
C1474 C1473 1.362 . S
C1474 C1477 1.409 . S
C1475 H1467 0.930 . S
C1475 C1476 1.355 . S
C1475 C1477 1.415 . S
C1476 C1475 1.355 . S
C1476 C1478 1.419 . S
C1477 C1472 1.425 . S
C1477 C1474 1.409 . S
C1477 C1475 1.415 . S
C1478 H1468 0.930 . S
C1478 C1476 1.419 . S
C1478 C1479 1.362 . S
C1479 H1469 0.930 . S
C1479 C1472 1.409 . S
C1479 C1478 1.362 . S
H1480 C1486 0.930 . S
H1481 C1489 0.930 . S
H1482 C1490 0.930 . S
H1483 C1491 0.930 . S
H1484 C1494 0.930 . S
H1485 C1495 0.930 . S
C1486 H1480 0.930 . S
C1486 C1487 1.355 . S
C1486 C1488 1.415 . S
C1487 C1486 1.355 . S
C1487 C1489 1.419 . S
C1488 C1486 1.415 . S
C1488 C1493 1.425 . S
C1488 C1495 1.409 . S
C1489 H1481 0.930 . S
C1489 C1487 1.419 . S
C1489 C1490 1.362 . S
C1490 H1482 0.930 . S
C1490 C1489 1.362 . S
C1490 C1493 1.409 . S
C1491 H1483 0.930 . S
C1491 C1492 1.355 . S
C1491 C1493 1.415 . S
C1492 C1491 1.355 . S
C1492 C1494 1.419 . S
C1493 C1488 1.425 . S
C1493 C1490 1.409 . S
C1493 C1491 1.415 . S
C1494 H1484 0.930 . S
C1494 C1492 1.419 . S
C1494 C1495 1.362 . S
C1495 H1485 0.930 . S
C1495 C1488 1.409 . S
C1495 C1494 1.362 . S
H1496 C1502 0.930 . S
H1497 C1505 0.930 . S
H1498 C1506 0.930 . S
H1499 C1507 0.930 . S
H1500 C1510 0.930 . S
H1501 C1511 0.930 . S
C1502 H1496 0.930 . S
C1502 C1503 1.355 . S
C1502 C1504 1.415 . S
C1503 C1502 1.355 . S
C1503 C1505 1.419 . S
C1504 C1502 1.415 . S
C1504 C1509 1.425 . S
C1504 C1511 1.409 . S
C1505 H1497 0.930 . S
C1505 C1503 1.419 . S
C1505 C1506 1.362 . S
C1506 H1498 0.930 . S
C1506 C1505 1.362 . S
C1506 C1509 1.409 . S
C1507 H1499 0.930 . S
C1507 C1508 1.355 . S
C1507 C1509 1.415 . S
C1508 C1507 1.355 . S
C1508 C1510 1.419 . S
C1509 C1504 1.425 . S
C1509 C1506 1.409 . S
C1509 C1507 1.415 . S
C1510 H1500 0.930 . S
C1510 C1508 1.419 . S
C1510 C1511 1.362 . S
C1511 H1501 0.930 . S
C1511 C1504 1.409 . S
C1511 C1510 1.362 . S
H1512 C1518 0.930 . S
H1513 C1521 0.930 . S
H1514 C1522 0.930 . S
H1515 C1523 0.930 . S
H1516 C1526 0.930 . S
H1517 C1527 0.930 . S
C1518 H1512 0.930 . S
C1518 C1519 1.355 . S
C1518 C1520 1.415 . S
C1519 C1518 1.355 . S
C1519 C1521 1.419 . S
C1520 C1518 1.415 . S
C1520 C1525 1.425 . S
C1520 C1527 1.409 . S
C1521 H1513 0.930 . S
C1521 C1519 1.419 . S
C1521 C1522 1.362 . S
C1522 H1514 0.930 . S
C1522 C1521 1.362 . S
C1522 C1525 1.409 . S
C1523 H1515 0.930 . S
C1523 C1524 1.355 . S
C1523 C1525 1.415 . S
C1524 C1523 1.355 . S
C1524 C1526 1.419 . S
C1525 C1520 1.425 . S
C1525 C1522 1.409 . S
C1525 C1523 1.415 . S
C1526 H1516 0.930 . S
C1526 C1524 1.419 . S
C1526 C1527 1.362 . S
C1527 H1517 0.930 . S
C1527 C1520 1.409 . S
C1527 C1526 1.362 . S
H1528 C1534 0.930 . S
H1529 C1537 0.930 . S
H1530 C1538 0.930 . S
H1531 C1539 0.930 . S
H1532 C1542 0.930 . S
H1533 C1543 0.930 . S
C1534 H1528 0.930 . S
C1534 C1535 1.355 . S
C1534 C1536 1.415 . S
C1535 C1534 1.355 . S
C1535 C1537 1.419 . S
C1536 C1534 1.415 . S
C1536 C1541 1.425 . S
C1536 C1543 1.409 . S
C1537 H1529 0.930 . S
C1537 C1535 1.419 . S
C1537 C1538 1.362 . S
C1538 H1530 0.930 . S
C1538 C1537 1.362 . S
C1538 C1541 1.409 . S
C1539 H1531 0.930 . S
C1539 C1540 1.355 . S
C1539 C1541 1.415 . S
C1540 C1539 1.355 . S
C1540 C1542 1.419 . S
C1541 C1536 1.425 . S
C1541 C1538 1.409 . S
C1541 C1539 1.415 . S
C1542 H1532 0.930 . S
C1542 C1540 1.419 . S
C1542 C1543 1.362 . S
C1543 H1533 0.930 . S
C1543 C1536 1.409 . S
C1543 C1542 1.362 . S
H1544 C1550 0.930 . S
H1545 C1553 0.930 . S
H1546 C1554 0.930 . S
H1547 C1555 0.930 . S
H1548 C1558 0.930 . S
H1549 C1559 0.930 . S
C1550 H1544 0.930 . S
C1550 C1551 1.355 . S
C1550 C1552 1.415 . S
C1551 C1550 1.355 . S
C1551 C1553 1.419 . S
C1552 C1550 1.415 . S
C1552 C1557 1.425 . S
C1552 C1559 1.409 . S
C1553 H1545 0.930 . S
C1553 C1551 1.419 . S
C1553 C1554 1.362 . S
C1554 H1546 0.930 . S
C1554 C1553 1.362 . S
C1554 C1557 1.409 . S
C1555 H1547 0.930 . S
C1555 C1556 1.355 . S
C1555 C1557 1.415 . S
C1556 C1555 1.355 . S
C1556 C1558 1.419 . S
C1557 C1552 1.425 . S
C1557 C1554 1.409 . S
C1557 C1555 1.415 . S
C1558 H1548 0.930 . S
C1558 C1556 1.419 . S
C1558 C1559 1.362 . S
C1559 H1549 0.930 . S
C1559 C1552 1.409 . S
C1559 C1558 1.362 . S
H1560 C1566 0.930 . S
H1561 C1569 0.930 . S
H1562 C1570 0.930 . S
H1563 C1571 0.930 . S
H1564 C1574 0.930 . S
H1565 C1575 0.930 . S
C1566 H1560 0.930 . S
C1566 C1567 1.355 . S
C1566 C1568 1.415 . S
C1567 C1566 1.355 . S
C1567 C1569 1.419 . S
C1568 C1566 1.415 . S
C1568 C1573 1.425 . S
C1568 C1575 1.409 . S
C1569 H1561 0.930 . S
C1569 C1567 1.419 . S
C1569 C1570 1.362 . S
C1570 H1562 0.930 . S
C1570 C1569 1.362 . S
C1570 C1573 1.409 . S
C1571 H1563 0.930 . S
C1571 C1572 1.355 . S
C1571 C1573 1.415 . S
C1572 C1571 1.355 . S
C1572 C1574 1.419 . S
C1573 C1568 1.425 . S
C1573 C1570 1.409 . S
C1573 C1571 1.415 . S
C1574 H1564 0.930 . S
C1574 C1572 1.419 . S
C1574 C1575 1.362 . S
C1575 H1565 0.930 . S
C1575 C1568 1.409 . S
C1575 C1574 1.362 . S
H1576 C1582 0.930 . S
H1577 C1585 0.930 1_554 S
H1578 C1586 0.930 . S
H1579 C1587 0.930 . S
H1580 C1590 0.930 . S
H1581 C1591 0.930 . S
C1582 H1576 0.930 . S
C1582 C1583 1.355 . S
C1582 C1584 1.415 . S
C1583 C1582 1.355 . S
C1583 C1585 1.419 . S
C1584 C1582 1.415 . S
C1584 C1589 1.425 . S
C1584 C1591 1.409 . S
C1585 H1577 0.930 1_556 S
C1585 C1583 1.419 . S
C1585 C1586 1.362 . S
C1586 H1578 0.930 . S
C1586 C1585 1.362 . S
C1586 C1589 1.409 . S
C1587 H1579 0.930 . S
C1587 C1588 1.355 . S
C1587 C1589 1.415 . S
C1588 C1587 1.355 . S
C1588 C1590 1.419 . S
C1589 C1584 1.425 . S
C1589 C1586 1.409 . S
C1589 C1587 1.415 . S
C1590 H1580 0.930 . S
C1590 C1588 1.419 . S
C1590 C1591 1.362 . S
C1591 H1581 0.930 . S
C1591 C1584 1.409 . S
C1591 C1590 1.362 . S
H1592 C1598 0.930 . S
H1593 C1601 0.930 . S
H1594 C1602 0.930 . S
H1595 C1603 0.930 . S
H1596 C1606 0.930 . S
H1597 C1607 0.930 . S
C1598 H1592 0.930 . S
C1598 C1599 1.355 . S
C1598 C1600 1.415 . S
C1599 C1598 1.355 . S
C1599 C1601 1.419 . S
C1600 C1598 1.415 . S
C1600 C1605 1.425 . S
C1600 C1607 1.409 . S
C1601 H1593 0.930 . S
C1601 C1599 1.419 . S
C1601 C1602 1.362 . S
C1602 H1594 0.930 . S
C1602 C1601 1.362 . S
C1602 C1605 1.409 . S
C1603 H1595 0.930 . S
C1603 C1604 1.355 . S
C1603 C1605 1.415 . S
C1604 C1603 1.355 . S
C1604 C1606 1.419 . S
C1605 C1600 1.425 . S
C1605 C1602 1.409 . S
C1605 C1603 1.415 . S
C1606 H1596 0.930 . S
C1606 C1604 1.419 . S
C1606 C1607 1.362 . S
C1607 H1597 0.930 . S
C1607 C1600 1.409 . S
C1607 C1606 1.362 . S
H1608 C1614 0.930 . S
H1609 C1617 0.930 . S
H1610 C1618 0.930 . S
H1611 C1619 0.930 . S
H1612 C1622 0.930 . S
H1613 C1623 0.930 . S
C1614 H1608 0.930 . S
C1614 C1615 1.355 . S
C1614 C1616 1.415 . S
C1615 C1614 1.355 . S
C1615 C1617 1.419 . S
C1616 C1614 1.415 . S
C1616 C1621 1.425 . S
C1616 C1623 1.409 . S
C1617 H1609 0.930 . S
C1617 C1615 1.419 . S
C1617 C1618 1.362 . S
C1618 H1610 0.930 . S
C1618 C1617 1.362 . S
C1618 C1621 1.409 . S
C1619 H1611 0.930 . S
C1619 C1620 1.355 . S
C1619 C1621 1.415 . S
C1620 C1619 1.355 . S
C1620 C1622 1.419 . S
C1621 C1616 1.425 . S
C1621 C1618 1.409 . S
C1621 C1619 1.415 . S
C1622 H1612 0.930 . S
C1622 C1620 1.419 . S
C1622 C1623 1.362 . S
C1623 H1613 0.930 . S
C1623 C1616 1.409 . S
C1623 C1622 1.362 . S
H1624 C1630 0.930 . S
H1625 C1633 0.930 . S
H1626 C1634 0.930 . S
H1627 C1635 0.930 . S
H1628 C1638 0.930 . S
H1629 C1639 0.930 . S
C1630 H1624 0.930 . S
C1630 C1631 1.355 . S
C1630 C1632 1.415 . S
C1631 C1630 1.355 . S
C1631 C1633 1.419 . S
C1632 C1630 1.415 . S
C1632 C1637 1.425 . S
C1632 C1639 1.409 . S
C1633 H1625 0.930 . S
C1633 C1631 1.419 . S
C1633 C1634 1.362 . S
C1634 H1626 0.930 . S
C1634 C1633 1.362 . S
C1634 C1637 1.409 . S
C1635 H1627 0.930 . S
C1635 C1636 1.355 . S
C1635 C1637 1.415 . S
C1636 C1635 1.355 . S
C1636 C1638 1.419 . S
C1637 C1632 1.425 . S
C1637 C1634 1.409 . S
C1637 C1635 1.415 . S
C1638 H1628 0.930 . S
C1638 C1636 1.419 . S
C1638 C1639 1.362 . S
C1639 H1629 0.930 . S
C1639 C1632 1.409 . S
C1639 C1638 1.362 . S
H1640 C1646 0.930 . S
H1641 C1649 0.930 . S
H1642 C1650 0.930 . S
H1643 C1651 0.930 . S
H1644 C1654 0.930 . S
H1645 C1655 0.930 . S
C1646 H1640 0.930 . S
C1646 C1647 1.355 . S
C1646 C1648 1.415 . S
C1647 C1646 1.355 . S
C1647 C1649 1.419 . S
C1648 C1646 1.415 . S
C1648 C1653 1.425 . S
C1648 C1655 1.409 . S
C1649 H1641 0.930 . S
C1649 C1647 1.419 . S
C1649 C1650 1.362 . S
C1650 H1642 0.930 . S
C1650 C1649 1.362 . S
C1650 C1653 1.409 . S
C1651 H1643 0.930 . S
C1651 C1652 1.355 . S
C1651 C1653 1.415 . S
C1652 C1651 1.355 . S
C1652 C1654 1.419 . S
C1653 C1648 1.425 . S
C1653 C1650 1.409 . S
C1653 C1651 1.415 . S
C1654 H1644 0.930 . S
C1654 C1652 1.419 . S
C1654 C1655 1.362 . S
C1655 H1645 0.930 . S
C1655 C1648 1.409 . S
C1655 C1654 1.362 . S
C511 C235 1.157 . S
C516 C11 1.194 . S
C527 C249 1.158 . S
C532 C25 1.196 . S
C543 C39 1.204 . S
C548 C221 1.182 . S
C559 C375 1.205 . S
C564 C53 1.173 . S
C575 C347 1.180 . S
C580 C67 1.204 . S
C591 C81 1.201 . S
C596 C361 1.164 . S
C607 C487 1.198 . S
C612 C95 1.160 . S
C623 C501 1.157 . S
C628 C109 1.193 . S
C639 C473 1.200 . S
C644 C123 1.163 . S
C655 C291 1.204 . S
C660 C137 1.171 . S
C671 C151 1.195 . S
C676 C263 1.158 . S
C687 C277 1.156 . S
C692 C165 1.192 . S
C703 C403 1.159 . S
C708 C179 1.170 . S
C719 C193 1.156 . S
C724 C417 1.174 . S
C735 C389 1.155 . S
C740 C207 1.184 . S
C751 C459 1.155 . S
C756 C305 1.182 . S
C767 C431 1.199 . S
C772 C319 1.161 . S
C783 C333 1.204 . S
C788 C445 1.180 . S
C799 C98 1.531 . S
C804 C9 1.519 . S
C815 C112 1.534 . S
C820 C23 1.522 . S
C831 C84 1.517 . S
C836 C37 1.546 . S
C847 C51 1.538 . S
C852 C154 1.503 . S
C863 C126 1.531 . S
C868 C65 1.519 . S
C879 C79 1.540 . S
C884 C140 1.542 . S
C895 C14 1.542 . S
C900 C93 1.540 . S
C911 C107 1.521 . S
C916 C28 1.533 . S
C927 C0 1.522 . S
C932 C121 1.547 . S
C943 C70 1.542 . S
C948 C135 1.535 . S
C959 C42 1.539 . S
C964 C149 1.545 . S
C975 C163 1.536 . S
C980 C56 1.500 . S
C991 C177 1.523 . S
C996 C266 1.535 . S
C1007 C280 1.496 . S
C1012 C191 1.509 . S
C1023 C252 1.508 . S
C1028 C205 1.542 . S
C1039 C219 1.516 . S
C1044 C322 1.528 . S
C1055 C294 1.540 . S
C1060 C233 1.544 . S
C1071 C247 1.520 . S
C1076 C308 1.490 . S
C1087 C261 1.542 . S
C1092 C182 1.508 . S
C1103 C275 1.537 . S
C1108 C196 1.501 . S
C1119 C168 1.490 . S
C1124 C289 1.520 . S
C1135 C238 1.529 . S
C1140 C303 1.548 . S
C1151 C210 1.516 . S
C1156 C317 1.510 . S
C1167 C331 1.513 . S
C1172 C224 1.491 . S
C1183 C434 1.517 . S
C1188 C345 1.510 . S
C1199 C359 1.534 . S
C1204 C448 1.498 . S
C1215 C373 1.507 . S
C1220 C420 1.503 . S
C1231 C490 1.500 . S
C1236 C387 1.536 . S
C1247 C401 1.526 . S
C1252 C462 1.492 . S
C1263 C476 1.501 . S
C1268 C415 1.507 . S
C1279 C350 1.490 . S
C1284 C429 1.516 . S
C1295 C364 1.514 . S
C1300 C443 1.509 . S
C1311 C457 1.519 . S
C1316 C336 1.490 . S
C1327 C471 1.508 . S
C1332 C406 1.501 . S
C1343 C378 1.531 . S
C1348 C485 1.548 . S
C1359 C392 1.496 . S
C1364 C499 1.532 . S
C1375 C5 1.574 . S
C1380 C47 1.572 . S
C1391 C19 1.572 . S
C1396 C61 1.574 . S
C1407 C75 1.574 . S
C1412 C33 1.571 . S
C1423 C89 1.574 . S
C1428 C131 1.570 . S
C1439 C145 1.567 . S
C1444 C103 1.567 . S
C1455 C159 1.569 . S
C1460 C117 1.566 . S
C1471 C173 1.567 . S
C1476 C215 1.572 . S
C1487 C187 1.574 . S
C1492 C229 1.572 . S
C1503 C243 1.566 . S
C1508 C201 1.570 . S
C1519 C257 1.569 . S
C1524 C299 1.573 1_554 S
C1535 C271 1.574 . S
C1540 C313 1.571 1_554 S
C1551 C285 1.567 . S
C1556 C327 1.571 1_554 S
C1567 C383 1.573 1_556 S
C1572 C341 1.569 . S
C1583 C397 1.568 1_556 S
C1588 C355 1.566 . S
C1599 C411 1.573 1_556 S
C1604 C369 1.573 . S
C1615 C425 1.566 . S
C1620 C467 1.568 . S
C1631 C481 1.571 . S
C1636 C439 1.567 . S
C1647 C495 1.567 . S
C1652 C453 1.572 . S
