# Generated by pormake.
# Topology vck, (7)-cn, num edge types: 1
# Building blocks:
#     Node 0, Type 0, BuildingBlock: NUHQUE_clean_sbu_2, # of connection points: 7
#     Node 1, Type 0, BuildingBlock: NUHQUE_clean_sbu_2, # of connection points: 7
#     Node 2, Type 0, BuildingBlock: NUHQUE_clean_sbu_2, # of connection points: 7
#     Node 3, Type 0, BuildingBlock: NUHQUE_clean_sbu_2, # of connection points: 7
#     Node 4, Type 0, BuildingBlock: NUHQUE_clean_sbu_2, # of connection points: 7
#     Node 5, Type 0, BuildingBlock: NUHQUE_clean_sbu_2, # of connection points: 7
#     Node 6, Type 0, BuildingBlock: NUHQUE_clean_sbu_2, # of connection points: 7
#     Node 7, Type 0, BuildingBlock: NUHQUE_clean_sbu_2, # of connection points: 7
#     Node 8, Type 0, BuildingBlock: NUHQUE_clean_sbu_2, # of connection points: 7
#     Node 9, Type 0, BuildingBlock: NUHQUE_clean_sbu_2, # of connection points: 7
#     Node 10, Type 0, BuildingBlock: NUHQUE_clean_sbu_2, # of connection points: 7
#     Node 11, Type 0, BuildingBlock: NUHQUE_clean_sbu_2, # of connection points: 7
#     Node 12, Type 0, BuildingBlock: NUHQUE_clean_sbu_2, # of connection points: 7
#     Node 13, Type 0, BuildingBlock: NUHQUE_clean_sbu_2, # of connection points: 7
#     Node 14, Type 0, BuildingBlock: NUHQUE_clean_sbu_2, # of connection points: 7
#     Node 15, Type 0, BuildingBlock: NUHQUE_clean_sbu_2, # of connection points: 7
#     Edge 16, Type (0, 0), BuildingBlock: KIFKEQ_clean_linker_1, # of connection points: 2
#     Edge 17, Type (0, 0), BuildingBlock: KIFKEQ_clean_linker_1, # of connection points: 2
#     Edge 18, Type (0, 0), BuildingBlock: KIFKEQ_clean_linker_1, # of connection points: 2
#     Edge 19, Type (0, 0), BuildingBlock: KIFKEQ_clean_linker_1, # of connection points: 2
#     Edge 20, Type (0, 0), BuildingBlock: KIFKEQ_clean_linker_1, # of connection points: 2
#     Edge 21, Type (0, 0), BuildingBlock: KIFKEQ_clean_linker_1, # of connection points: 2
#     Edge 22, Type (0, 0), BuildingBlock: KIFKEQ_clean_linker_1, # of connection points: 2
#     Edge 23, Type (0, 0), BuildingBlock: KIFKEQ_clean_linker_1, # of connection points: 2
#     Edge 24, Type (0, 0), BuildingBlock: KIFKEQ_clean_linker_1, # of connection points: 2
#     Edge 25, Type (0, 0), BuildingBlock: KIFKEQ_clean_linker_1, # of connection points: 2
#     Edge 26, Type (0, 0), BuildingBlock: KIFKEQ_clean_linker_1, # of connection points: 2
#     Edge 27, Type (0, 0), BuildingBlock: KIFKEQ_clean_linker_1, # of connection points: 2
#     Edge 28, Type (0, 0), BuildingBlock: KIFKEQ_clean_linker_1, # of connection points: 2
#     Edge 29, Type (0, 0), BuildingBlock: KIFKEQ_clean_linker_1, # of connection points: 2
#     Edge 30, Type (0, 0), BuildingBlock: KIFKEQ_clean_linker_1, # of connection points: 2
#     Edge 31, Type (0, 0), BuildingBlock: KIFKEQ_clean_linker_1, # of connection points: 2
#     Edge 32, Type (0, 0), BuildingBlock: KIFKEQ_clean_linker_1, # of connection points: 2
#     Edge 33, Type (0, 0), BuildingBlock: KIFKEQ_clean_linker_1, # of connection points: 2
#     Edge 34, Type (0, 0), BuildingBlock: KIFKEQ_clean_linker_1, # of connection points: 2
#     Edge 35, Type (0, 0), BuildingBlock: KIFKEQ_clean_linker_1, # of connection points: 2
#     Edge 36, Type (0, 0), BuildingBlock: KIFKEQ_clean_linker_1, # of connection points: 2
#     Edge 37, Type (0, 0), BuildingBlock: KIFKEQ_clean_linker_1, # of connection points: 2
#     Edge 38, Type (0, 0), BuildingBlock: KIFKEQ_clean_linker_1, # of connection points: 2
#     Edge 39, Type (0, 0), BuildingBlock: KIFKEQ_clean_linker_1, # of connection points: 2
#     Edge 40, Type (0, 0), BuildingBlock: KIFKEQ_clean_linker_1, # of connection points: 2
#     Edge 41, Type (0, 0), BuildingBlock: KIFKEQ_clean_linker_1, # of connection points: 2
#     Edge 42, Type (0, 0), BuildingBlock: KIFKEQ_clean_linker_1, # of connection points: 2
#     Edge 43, Type (0, 0), BuildingBlock: KIFKEQ_clean_linker_1, # of connection points: 2
#     Edge 44, Type (0, 0), BuildingBlock: KIFKEQ_clean_linker_1, # of connection points: 2
#     Edge 45, Type (0, 0), BuildingBlock: KIFKEQ_clean_linker_1, # of connection points: 2
#     Edge 46, Type (0, 0), BuildingBlock: KIFKEQ_clean_linker_1, # of connection points: 2
#     Edge 47, Type (0, 0), BuildingBlock: KIFKEQ_clean_linker_1, # of connection points: 2
#     Edge 48, Type (0, 0), BuildingBlock: KIFKEQ_clean_linker_1, # of connection points: 2
#     Edge 49, Type (0, 0), BuildingBlock: KIFKEQ_clean_linker_1, # of connection points: 2
#     Edge 50, Type (0, 0), BuildingBlock: KIFKEQ_clean_linker_1, # of connection points: 2
#     Edge 51, Type (0, 0), BuildingBlock: KIFKEQ_clean_linker_1, # of connection points: 2
#     Edge 52, Type (0, 0), BuildingBlock: KIFKEQ_clean_linker_1, # of connection points: 2
#     Edge 53, Type (0, 0), BuildingBlock: KIFKEQ_clean_linker_1, # of connection points: 2
#     Edge 54, Type (0, 0), BuildingBlock: KIFKEQ_clean_linker_1, # of connection points: 2
#     Edge 55, Type (0, 0), BuildingBlock: KIFKEQ_clean_linker_1, # of connection points: 2
#     Edge 56, Type (0, 0), BuildingBlock: KIFKEQ_clean_linker_1, # of connection points: 2
#     Edge 57, Type (0, 0), BuildingBlock: KIFKEQ_clean_linker_1, # of connection points: 2
#     Edge 58, Type (0, 0), BuildingBlock: KIFKEQ_clean_linker_1, # of connection points: 2
#     Edge 59, Type (0, 0), BuildingBlock: KIFKEQ_clean_linker_1, # of connection points: 2
#     Edge 60, Type (0, 0), BuildingBlock: KIFKEQ_clean_linker_1, # of connection points: 2
#     Edge 61, Type (0, 0), BuildingBlock: KIFKEQ_clean_linker_1, # of connection points: 2
#     Edge 62, Type (0, 0), BuildingBlock: KIFKEQ_clean_linker_1, # of connection points: 2
#     Edge 63, Type (0, 0), BuildingBlock: KIFKEQ_clean_linker_1, # of connection points: 2
#     Edge 64, Type (0, 0), BuildingBlock: KIFKEQ_clean_linker_1, # of connection points: 2
#     Edge 65, Type (0, 0), BuildingBlock: KIFKEQ_clean_linker_1, # of connection points: 2
#     Edge 66, Type (0, 0), BuildingBlock: KIFKEQ_clean_linker_1, # of connection points: 2
#     Edge 67, Type (0, 0), BuildingBlock: KIFKEQ_clean_linker_1, # of connection points: 2
#     Edge 68, Type (0, 0), BuildingBlock: KIFKEQ_clean_linker_1, # of connection points: 2
#     Edge 69, Type (0, 0), BuildingBlock: KIFKEQ_clean_linker_1, # of connection points: 2
#     Edge 70, Type (0, 0), BuildingBlock: KIFKEQ_clean_linker_1, # of connection points: 2
#     Edge 71, Type (0, 0), BuildingBlock: KIFKEQ_clean_linker_1, # of connection points: 2
# Relax obj value: 0.174
# Max RMSD: 0.198
# Mean RMSD: 0.198
data_MOF--net-vck--node1-NUHQUE_clean_sbu_2--edge1-KIFKEQ_clean_linker_1
_symmetry_space_group_name_H-M    P1
_symmetry_Int_Tables_number       1
_symmetry_cell_setting            triclinic
loop_
_symmetry_equiv_pos_as_xyz
'x, y, z'
_cell_length_a     74.249501
_cell_length_b     49.280571
_cell_length_c     21.62944
_cell_angle_alpha  89.978402
_cell_angle_beta   89.941155
_cell_angle_gamma 89.846532
loop_
_atom_site_label
_atom_site_type_symbol
_atom_site_fract_x
_atom_site_fract_y
_atom_site_fract_z
_atom_type_partial_charge
O0 O 0.54827 0.15774 0.14483 0.0
Tb1 Tb 0.56436 0.12087 0.15097 0.0
Eu2 Eu 0.56633 0.13079 0.98431 0.0
C3 C 0.55373 0.17868 0.17761 0.0
O4 O 0.56891 0.17651 0.20835 0.0
C5 C 0.59227 0.15712 0.08817 0.0
O6 O 0.58401 0.09365 0.9721 0.0
C7 C 0.55911 0.15457 0.87971 0.0
C8 C 0.57873 0.07448 0.93374 0.0
O9 O 0.56345 0.07782 0.90403 0.0
C10 C 0.54352 0.08664 0.05567 0.0
C11 C 0.54906 0.15583 0.82049 0.0
C12 C 0.53707 0.17767 0.81139 0.0
C13 C 0.52884 0.18204 0.75382 0.0
C14 C 0.53231 0.16378 0.70568 0.0
C15 C 0.54431 0.14196 0.71307 0.0
C16 C 0.55282 0.13814 0.77069 0.0
O17 O 0.59066 0.1352 0.12226 0.0
O18 O 0.58127 0.1618 0.04171 0.0
O19 O 0.57868 0.11558 0.2389 0.0
O20 O 0.55085 0.10662 0.23506 0.0
C21 C 0.56488 0.10744 0.27081 0.0
O22 O 0.54211 0.10721 0.01709 0.0
O23 O 0.55655 0.08568 0.09682 0.0
O24 O 0.57228 0.13692 0.88634 0.0
O25 O 0.55018 0.15932 0.93114 0.0
H26 H 0.53483 0.19211 0.84845 0.0
H27 H 0.526 0.16713 0.66115 0.0
H28 H 0.56247 0.12179 0.77631 0.0
O29 O 0.44594 0.86488 0.13792 0.0
Tb30 Tb 0.42969 0.9014 0.14799 0.0
Eu31 Eu 0.42961 0.88998 0.9864 0.0
C32 C 0.44169 0.844 0.17307 0.0
O33 O 0.42738 0.84591 0.20864 0.0
C34 C 0.40429 0.8608 0.08835 0.0
O35 O 0.41122 0.92652 0.9753 0.0
C36 C 0.4367 0.86722 0.88051 0.0
C37 C 0.41753 0.94847 0.94798 0.0
O38 O 0.43423 0.94826 0.92781 0.0
C39 C 0.45217 0.93494 0.05608 0.0
C40 C 0.44604 0.86745 0.81986 0.0
C41 C 0.4594 0.84767 0.80844 0.0
C42 C 0.46729 0.84496 0.74962 0.0
C43 C 0.46185 0.86262 0.70237 0.0
C44 C 0.44841 0.88212 0.71238 0.0
C45 C 0.44039 0.88446 0.77103 0.0
O46 O 0.4043 0.88293 0.12219 0.0
O47 O 0.41627 0.85736 0.04413 0.0
O48 O 0.41663 0.91449 0.23438 0.0
O49 O 0.44449 0.90486 0.23462 0.0
C50 C 0.43102 0.91271 0.26857 0.0
O51 O 0.45373 0.91402 0.01857 0.0
O52 O 0.43882 0.93643 0.09596 0.0
O53 O 0.42283 0.88341 0.88945 0.0
O54 O 0.44645 0.86334 0.93047 0.0
H55 H 0.46338 0.83392 0.84514 0.0
H56 H 0.46738 0.86024 0.65623 0.0
H57 H 0.42962 0.89902 0.77802 0.0
O58 O 0.71893 0.41104 0.40139 0.0
Tb59 Tb 0.69449 0.38725 0.40896 0.0
Eu60 Eu 0.6762 0.38061 0.24456 0.0
C61 C 0.72034 0.43182 0.36362 0.0
O62 O 0.70824 0.43526 0.32006 0.0
C63 C 0.66131 0.41902 0.35393 0.0
O64 O 0.66101 0.34344 0.21205 0.0
C65 C 0.68055 0.4139 0.15208 0.0
C66 C 0.66152 0.3203 0.24254 0.0
O67 O 0.67058 0.31886 0.29448 0.0
C68 C 0.70653 0.34429 0.31189 0.0
C69 C 0.68995 0.41846 0.09209 0.0
C70 C 0.70215 0.44027 0.08643 0.0
C71 C 0.70954 0.4472 0.02853 0.0
C72 C 0.70497 0.43168 0.97664 0.0
C73 C 0.69288 0.41009 0.98107 0.0
C74 C 0.68533 0.40344 0.03867 0.0
O75 O 0.67717 0.42057 0.38048 0.0
O76 O 0.65717 0.3993 0.31527 0.0
O77 O 0.70561 0.38282 0.50174 0.0
O78 O 0.67732 0.37971 0.49022 0.0
C79 C 0.69042 0.37907 0.53031 0.0
O80 O 0.70224 0.35769 0.26131 0.0
O81 O 0.69791 0.34813 0.36424 0.0
O82 O 0.66801 0.39516 0.15407 0.0
O83 O 0.68998 0.41548 0.20349 0.0
H84 H 0.70533 0.45254 0.12654 0.0
H85 H 0.71072 0.43661 0.93188 0.0
H86 H 0.67563 0.38709 0.04132 0.0
O87 O 0.30259 0.61636 0.39415 0.0
Tb88 Tb 0.31903 0.65232 0.40555 0.0
Eu89 Eu 0.31789 0.63932 0.24542 0.0
C90 C 0.30668 0.59536 0.42908 0.0
O91 O 0.321 0.59684 0.46458 0.0
C92 C 0.34419 0.61075 0.3461 0.0
O93 O 0.33615 0.67548 0.23152 0.0
C94 C 0.31001 0.61643 0.14038 0.0
C95 C 0.32966 0.69689 0.20246 0.0
O96 O 0.313 0.69615 0.18219 0.0
C97 C 0.29659 0.68611 0.31413 0.0
C98 C 0.30012 0.6165 0.08071 0.0
C99 C 0.28656 0.59695 0.07164 0.0
C100 C 0.27805 0.59408 0.01406 0.0
C101 C 0.28298 0.61133 0.9655 0.0
C102 C 0.29678 0.63043 0.97277 0.0
C103 C 0.30544 0.63293 0.03038 0.0
O104 O 0.34427 0.63297 0.37976 0.0
O105 O 0.332 0.60713 0.30268 0.0
O106 O 0.3314 0.66458 0.49379 0.0
O107 O 0.30357 0.65517 0.49107 0.0
C108 C 0.31674 0.66251 0.5267 0.0
O109 O 0.29432 0.66455 0.27896 0.0
O110 O 0.31017 0.68743 0.35307 0.0
O111 O 0.32387 0.63266 0.14772 0.0
O112 O 0.30074 0.61254 0.19147 0.0
H113 H 0.28294 0.58338 0.1091 0.0
H114 H 0.27684 0.60873 0.92039 0.0
H115 H 0.31644 0.64717 0.0354 0.0
O116 O 0.54696 0.66645 0.62941 0.0
Tb117 Tb 0.5663 0.6336 0.64229 0.0
Eu118 Eu 0.56672 0.6385 0.47576 0.0
C119 C 0.55237 0.69125 0.64248 0.0
O120 O 0.56939 0.69497 0.65653 0.0
C121 C 0.59473 0.66474 0.57139 0.0
O122 O 0.58518 0.60232 0.46192 0.0
C123 C 0.5583 0.66185 0.37181 0.0
C124 C 0.57972 0.5816 0.42834 0.0
O125 O 0.56366 0.58271 0.403 0.0
C126 C 0.54222 0.59685 0.55536 0.0
C127 C 0.54761 0.66174 0.31389 0.0
C128 C 0.53412 0.6816 0.3055 0.0
C129 C 0.52548 0.6848 0.24804 0.0
C130 C 0.53005 0.66714 0.1996 0.0
C131 C 0.5438 0.6478 0.20634 0.0
C132 C 0.55253 0.64512 0.26361 0.0
O133 O 0.59288 0.64341 0.60716 0.0
O134 O 0.58272 0.66986 0.52837 0.0
O135 O 0.5702 0.64919 0.73603 0.0
O136 O 0.56665 0.60703 0.72409 0.0
C137 C 0.56923 0.62611 0.76446 0.0
O138 O 0.54271 0.61426 0.50907 0.0
O139 O 0.55314 0.59807 0.60324 0.0
O140 O 0.57173 0.64458 0.37757 0.0
O141 O 0.54985 0.66676 0.42412 0.0
H142 H 0.53112 0.69564 0.3427 0.0
H143 H 0.52357 0.66948 0.15502 0.0
H144 H 0.56354 0.63076 0.26809 0.0
O145 O 0.45121 0.36391 0.64347 0.0
Tb146 Tb 0.43551 0.40048 0.65938 0.0
Eu147 Eu 0.43442 0.39076 0.49734 0.0
C148 C 0.44684 0.3426 0.67697 0.0
O149 O 0.43271 0.34437 0.71342 0.0
C150 C 0.40801 0.3621 0.59937 0.0
O151 O 0.41557 0.42647 0.48338 0.0
C152 C 0.44242 0.36691 0.39338 0.0
C153 C 0.42166 0.44817 0.4546 0.0
O154 O 0.43834 0.44803 0.4343 0.0
C155 C 0.45686 0.43624 0.56774 0.0
C156 C 0.45307 0.36577 0.33526 0.0
C157 C 0.46609 0.34509 0.32823 0.0
C158 C 0.47517 0.34138 0.2718 0.0
C159 C 0.4713 0.35882 0.2224 0.0
C160 C 0.45802 0.37895 0.22763 0.0
C161 C 0.44885 0.38237 0.28405 0.0
O162 O 0.40955 0.38265 0.6378 0.0
O163 O 0.41907 0.35904 0.55216 0.0
O164 O 0.45146 0.40115 0.744 0.0
O165 O 0.42402 0.41302 0.74876 0.0
C166 C 0.43872 0.40945 0.78061 0.0
O167 O 0.45828 0.41588 0.52852 0.0
O168 O 0.44421 0.4366 0.61032 0.0
O169 O 0.42942 0.38493 0.39883 0.0
O170 O 0.45076 0.36182 0.44575 0.0
H171 H 0.46884 0.33137 0.36628 0.0
H172 H 0.47781 0.35553 0.17808 0.0
H173 H 0.43824 0.39745 0.28738 0.0
O174 O 0.70181 0.91104 0.89605 0.0
Tb175 Tb 0.68519 0.87509 0.90681 0.0
Eu176 Eu 0.68348 0.88252 0.73894 0.0
C177 C 0.69699 0.93263 0.92797 0.0
O178 O 0.68194 0.93163 0.95989 0.0
C179 C 0.65715 0.91095 0.84141 0.0
O180 O 0.66587 0.84583 0.72085 0.0
C181 C 0.69298 0.90707 0.63753 0.0
C182 C 0.67122 0.82781 0.67963 0.0
O183 O 0.6864 0.83215 0.64997 0.0
C184 C 0.70479 0.83743 0.81444 0.0
C185 C 0.7036 0.90815 0.57944 0.0
C186 C 0.71651 0.92886 0.57296 0.0
C187 C 0.7256 0.93278 0.51678 0.0
C188 C 0.72173 0.91574 0.46686 0.0
C189 C 0.70872 0.89518 0.47152 0.0
C190 C 0.69963 0.89146 0.52818 0.0
O191 O 0.65893 0.89043 0.87976 0.0
O192 O 0.66801 0.91413 0.79381 0.0
O193 O 0.67149 0.87144 0.99643 0.0
O194 O 0.69929 0.86214 0.99075 0.0
C195 C 0.68551 0.86362 0.02764 0.0
O196 O 0.70669 0.85694 0.77339 0.0
O197 O 0.69211 0.83828 0.85683 0.0
O198 O 0.67891 0.89099 0.64111 0.0
O199 O 0.70161 0.90983 0.69024 0.0
H200 H 0.7192 0.9424 0.61133 0.0
H201 H 0.72816 0.91968 0.42274 0.0
H202 H 0.68931 0.87603 0.53187 0.0
O203 O 0.30014 0.11967 0.89782 0.0
Tb204 Tb 0.31728 0.1553 0.90149 0.0
Eu205 Eu 0.31641 0.1424 0.7382 0.0
C206 C 0.30458 0.09919 0.93392 0.0
O207 O 0.31942 0.10105 0.96671 0.0
C208 C 0.34172 0.1131 0.84018 0.0
O209 O 0.33462 0.17899 0.72687 0.0
C210 C 0.30859 0.11985 0.63262 0.0
C211 C 0.32969 0.19831 0.68818 0.0
O212 O 0.31451 0.19536 0.65774 0.0
C213 C 0.29526 0.18853 0.80783 0.0
C214 C 0.2989 0.11921 0.57249 0.0
C215 C 0.28591 0.09878 0.56358 0.0
C216 C 0.27753 0.09525 0.50607 0.0
C217 C 0.28216 0.11242 0.45715 0.0
C218 C 0.29524 0.13275 0.46406 0.0
C219 C 0.30372 0.136 0.52204 0.0
O220 O 0.34219 0.13569 0.87253 0.0
O221 O 0.32971 0.10973 0.79614 0.0
O222 O 0.33214 0.16288 0.98773 0.0
O223 O 0.30378 0.16754 0.98716 0.0
C224 C 0.31813 0.16884 0.02133 0.0
O225 O 0.29278 0.16677 0.77361 0.0
O226 O 0.30914 0.19006 0.84557 0.0
O227 O 0.32247 0.136 0.64016 0.0
O228 O 0.29919 0.1161 0.68346 0.0
H229 H 0.28255 0.08517 0.60125 0.0
H230 H 0.27618 0.1089 0.41215 0.0
H231 H 0.3141 0.15121 0.52751 0.0
O232 O 0.05397 0.16088 0.64467 0.0
Tb233 Tb 0.06903 0.12369 0.66131 0.0
Eu234 Eu 0.07079 0.1351 0.49971 0.0
C235 C 0.03634 0.16175 0.65031 0.0
O236 O 0.02744 0.13896 0.65769 0.0
C237 C 0.09609 0.16313 0.60514 0.0
O238 O 0.08777 0.09735 0.4859 0.0
C239 C 0.06364 0.15874 0.39496 0.0
C240 C 0.08207 0.07905 0.44608 0.0
O241 O 0.06696 0.08375 0.4163 0.0
C242 C 0.04777 0.08973 0.56722 0.0
C243 C 0.05436 0.15859 0.33424 0.0
C244 C 0.04144 0.17895 0.3224 0.0
C245 C 0.03389 0.18204 0.26327 0.0
C246 C 0.03887 0.1639 0.2165 0.0
C247 C 0.05179 0.14366 0.22697 0.0
C248 C 0.0597 0.14112 0.28575 0.0
O249 O 0.0949 0.14143 0.64011 0.0
O250 O 0.08544 0.1667 0.55712 0.0
O251 O 0.08155 0.11021 0.74814 0.0
O252 O 0.05401 0.12167 0.74811 0.0
C253 C 0.06723 0.1131 0.78229 0.0
O254 O 0.04646 0.1108 0.52996 0.0
O255 O 0.06059 0.08845 0.60897 0.0
O256 O 0.07773 0.14295 0.40336 0.0
O257 O 0.05376 0.16193 0.44498 0.0
H258 H 0.03793 0.1933 0.35847 0.0
H259 H 0.03306 0.16604 0.17074 0.0
H260 H 0.07012 0.12603 0.29313 0.0
O261 O 0.95102 0.86525 0.64897 0.0
Tb262 Tb 0.93547 0.90238 0.66088 0.0
Eu263 Eu 0.93405 0.89206 0.49864 0.0
C264 C 0.94616 0.84426 0.68283 0.0
O265 O 0.93173 0.84655 0.71771 0.0
C266 C 0.90865 0.86342 0.60227 0.0
O267 O 0.91511 0.92794 0.48668 0.0
C268 C 0.94128 0.86876 0.39337 0.0
C269 C 0.92119 0.95026 0.46028 0.0
O270 O 0.93805 0.95087 0.44178 0.0
C271 C 0.95706 0.93689 0.56783 0.0
C272 C 0.95173 0.86834 0.3348 0.0
C273 C 0.96489 0.84798 0.32648 0.0
C274 C 0.97388 0.84495 0.26969 0.0
C275 C 0.9698 0.86277 0.22125 0.0
C276 C 0.95636 0.88261 0.22776 0.0
C277 C 0.94726 0.88533 0.28451 0.0
O278 O 0.90951 0.88522 0.63708 0.0
O279 O 0.91999 0.85986 0.55607 0.0
O280 O 0.92336 0.91519 0.74911 0.0
O281 O 0.95111 0.90493 0.74593 0.0
C282 C 0.93805 0.91284 0.78164 0.0
O283 O 0.95833 0.91624 0.52941 0.0
O284 O 0.94418 0.93786 0.60956 0.0
O285 O 0.92828 0.88666 0.40043 0.0
O286 O 0.94993 0.86335 0.44494 0.0
H287 H 0.96783 0.83396 0.3638 0.0
H288 H 0.97625 0.86002 0.17665 0.0
H289 H 0.93654 0.90017 0.2888 0.0
O290 O 0.20083 0.41458 0.89344 0.0
Tb291 Tb 0.18461 0.37823 0.90396 0.0
Eu292 Eu 0.18244 0.38748 0.73653 0.0
C293 C 0.19571 0.4363 0.92427 0.0
O294 O 0.18062 0.43528 0.95596 0.0
C295 C 0.15637 0.41516 0.84118 0.0
O296 O 0.1652 0.35116 0.71147 0.0
C297 C 0.19124 0.4125 0.63484 0.0
C298 C 0.15759 0.33489 0.75204 0.0
O299 O 0.15867 0.34043 0.81123 0.0
C300 C 0.20524 0.34295 0.8094 0.0
C301 C 0.20148 0.41342 0.57592 0.0
C302 C 0.21385 0.43471 0.56744 0.0
C303 C 0.22223 0.43888 0.51004 0.0
C304 C 0.21859 0.42093 0.46154 0.0
C305 C 0.20622 0.39964 0.46828 0.0
C306 C 0.19753 0.39605 0.52571 0.0
O307 O 0.15834 0.3944 0.87882 0.0
O308 O 0.16683 0.41848 0.79256 0.0
O309 O 0.17069 0.37192 0.99246 0.0
O310 O 0.19902 0.36734 0.98886 0.0
C311 C 0.18499 0.36636 0.02469 0.0
O312 O 0.20656 0.36368 0.77124 0.0
O313 O 0.1927 0.34229 0.85237 0.0
O314 O 0.17732 0.39623 0.63938 0.0
O315 O 0.20011 0.41538 0.68701 0.0
H316 H 0.21624 0.44892 0.60479 0.0
H317 H 0.22505 0.42417 0.41719 0.0
H318 H 0.1876 0.38014 0.53084 0.0
O319 O 0.79776 0.61632 0.91292 0.0
Tb320 Tb 0.81831 0.64769 0.91936 0.0
Eu321 Eu 0.82065 0.6424 0.75175 0.0
C322 C 0.80182 0.59154 0.93122 0.0
O323 O 0.81859 0.58606 0.94602 0.0
C324 C 0.846 0.61336 0.8515 0.0
O325 O 0.8389 0.67914 0.74713 0.0
C326 C 0.81555 0.62209 0.64223 0.0
C327 C 0.83247 0.7018 0.72332 0.0
O328 O 0.81564 0.70228 0.7048 0.0
C329 C 0.79387 0.68124 0.82802 0.0
C330 C 0.80555 0.62257 0.58306 0.0
C331 C 0.79399 0.60079 0.56959 0.0
C332 C 0.78606 0.59823 0.51106 0.0
C333 C 0.78937 0.6181 0.46628 0.0
C334 C 0.80129 0.63953 0.47793 0.0
C335 C 0.80939 0.64174 0.53648 0.0
O336 O 0.84458 0.63542 0.88515 0.0
O337 O 0.83499 0.60946 0.80499 0.0
O338 O 0.82288 0.63488 0.01482 0.0
O339 O 0.81931 0.6767 0.99659 0.0
C340 C 0.82221 0.6588 0.03956 0.0
O341 O 0.79502 0.663 0.78359 0.0
O342 O 0.80538 0.68215 0.87434 0.0
O343 O 0.82741 0.64118 0.65363 0.0
O344 O 0.8069 0.61381 0.69178 0.0
H345 H 0.79173 0.5851 0.6039 0.0
H346 H 0.78394 0.61548 0.42013 0.0
H347 H 0.81913 0.65768 0.54467 0.0
O348 O 0.04899 0.66207 0.15025 0.0
Tb349 Tb 0.06431 0.62501 0.16555 0.0
Eu350 Eu 0.0669 0.63446 1.0018 0.0
C351 C 0.05353 0.68313 0.18427 0.0
O352 O 0.06739 0.68072 0.22155 0.0
C353 C 0.09248 0.66252 0.10717 0.0
O354 O 0.08474 0.59768 0.98579 0.0
C355 C 0.05866 0.6592 0.89919 0.0
C356 C 0.07955 0.57933 0.9452 0.0
O357 O 0.06438 0.58339 0.91528 0.0
C358 C 0.04403 0.58896 0.0716 0.0
C359 C 0.04832 0.6598 0.84048 0.0
C360 C 0.03518 0.68022 0.83239 0.0
C361 C 0.02616 0.68332 0.77571 0.0
C362 C 0.03022 0.66554 0.72717 0.0
C363 C 0.04362 0.64563 0.73347 0.0
C364 C 0.05273 0.64281 0.79012 0.0
O365 O 0.09059 0.64153 0.14406 0.0
O366 O 0.08206 0.66586 0.05843 0.0
O367 O 0.04845 0.62309 0.25051 0.0
O368 O 0.07617 0.61278 0.25443 0.0
C369 C 0.06145 0.61537 0.28668 0.0
O370 O 0.043 0.60899 0.03137 0.0
O371 O 0.05614 0.58888 0.11586 0.0
O372 O 0.0725 0.64264 0.90445 0.0
O373 O 0.0497 0.66254 0.95115 0.0
H374 H 0.03225 0.69416 0.86986 0.0
H375 H 0.02376 0.66834 0.68265 0.0
H376 H 0.0634 0.62787 0.79433 0.0
O377 O 0.95211 0.3575 0.14298 0.0
Tb378 Tb 0.93381 0.39162 0.15613 0.0
Eu379 Eu 0.93198 0.38831 0.98684 0.0
C380 C 0.94674 0.33305 0.15922 0.0
O381 O 0.92995 0.32973 0.17666 0.0
C382 C 0.90568 0.36072 0.08561 0.0
O383 O 0.91289 0.42316 0.96518 0.0
C384 C 0.9413 0.36314 0.88612 0.0
C385 C 0.91187 0.44487 1.00063 0.0
O386 O 0.92077 0.44524 0.05296 0.0
C387 C 0.9588 0.42842 0.06758 0.0
C388 C 0.9513 0.36206 0.82688 0.0
C389 C 0.96385 0.34095 0.81787 0.0
C390 C 0.97165 0.33629 0.7595 0.0
C391 C 0.96721 0.35376 0.71056 0.0
C392 C 0.9546 0.37476 0.71839 0.0
C393 C 0.94662 0.37882 0.77659 0.0
O394 O 0.90723 0.38257 0.11969 0.0
O395 O 0.91762 0.35612 0.04219 0.0
O396 O 0.93195 0.37575 0.25022 0.0
O397 O 0.93066 0.41826 0.23716 0.0
C398 C 0.93033 0.39891 0.278 0.0
O399 O 0.95523 0.41503 0.01612 0.0
O400 O 0.95065 0.42435 0.12112 0.0
O401 O 0.92695 0.37871 0.89029 0.0
O402 O 0.95043 0.36124 0.93801 0.0
H403 H 0.96697 0.32741 0.85591 0.0
H404 H 0.97246 0.34971 0.66468 0.0
H405 H 0.93637 0.39435 0.78191 0.0
O406 O 0.20083 0.91514 0.38592 0.0
Tb407 Tb 0.18607 0.87798 0.40432 0.0
Eu408 Eu 0.18243 0.88479 0.23794 0.0
C409 C 0.1958 0.93689 0.41686 0.0
O410 O 0.18139 0.93536 0.45196 0.0
C411 C 0.15649 0.91264 0.34364 0.0
O412 O 0.16435 0.84949 0.2115 0.0
C413 C 0.19153 0.91134 0.1386 0.0
C414 C 0.15891 0.83097 0.25124 0.0
O415 O 0.16276 0.83382 0.31004 0.0
C416 C 0.20673 0.8408 0.31145 0.0
C417 C 0.20208 0.91276 0.0804 0.0
C418 C 0.2145 0.93411 0.07283 0.0
C419 C 0.22319 0.93841 0.01581 0.0
C420 C 0.21984 0.92036 0.9671 0.0
C421 C 0.20722 0.89944 0.97307 0.0
C422 C 0.19825 0.89572 0.02966 0.0
O423 O 0.15926 0.89283 0.38321 0.0
O424 O 0.16656 0.91558 0.29395 0.0
O425 O 0.20185 0.87902 0.4894 0.0
O426 O 0.17482 0.86542 0.49394 0.0
C427 C 0.18931 0.8701 0.52598 0.0
O428 O 0.20652 0.85951 0.26784 0.0
O429 O 0.19558 0.84152 0.35865 0.0
O430 O 0.17768 0.89486 0.14138 0.0
O431 O 0.20016 0.91362 0.1914 0.0
H432 H 0.21666 0.94825 0.11046 0.0
H433 H 0.22652 0.9233 0.923 0.0
H434 H 0.18811 0.88004 0.03352 0.0
O435 O 0.80084 0.11442 0.3968 0.0
Tb436 Tb 0.8164 0.15139 0.40806 0.0
Eu437 Eu 0.81714 0.14075 0.24603 0.0
C438 C 0.80576 0.09344 0.43061 0.0
O439 O 0.82023 0.09563 0.46514 0.0
C440 C 0.84286 0.1119 0.34832 0.0
O441 O 0.83567 0.17694 0.23338 0.0
C442 C 0.80993 0.11711 0.14132 0.0
C443 C 0.82932 0.19904 0.2066 0.0
O444 O 0.81254 0.19915 0.18754 0.0
C445 C 0.79388 0.1856 0.31615 0.0
C446 C 0.80021 0.11633 0.08142 0.0
C447 C 0.78761 0.09542 0.07137 0.0
C448 C 0.77964 0.09163 0.013 0.0
C449 C 0.78398 0.1097 0.96521 0.0
C450 C 0.79675 0.13024 0.97377 0.0
C451 C 0.80498 0.13346 0.03178 0.0
O452 O 0.84226 0.13378 0.38299 0.0
O453 O 0.83113 0.10838 0.30342 0.0
O454 O 0.82875 0.16462 0.49545 0.0
O455 O 0.80121 0.1533 0.49422 0.0
C456 C 0.81429 0.16172 0.529 0.0
O457 O 0.79289 0.16527 0.27674 0.0
O458 O 0.80674 0.18671 0.3579 0.0
O459 O 0.82338 0.13412 0.14859 0.0
O460 O 0.80064 0.11297 0.19222 0.0
H461 H 0.7847 0.0812 0.10828 0.0
H462 H 0.77786 0.10723 0.92005 0.0
H463 H 0.81524 0.14884 0.03763 0.0
H464 H 0.51763 0.18507 0.15387 0.0
H465 H 0.56437 0.22785 0.22107 0.0
H466 H 0.49883 0.22467 0.1778 0.0
H467 H 0.54567 0.2672 0.24484 0.0
H468 H 0.5085 0.3417 0.21805 0.0
H469 H 0.5274 0.3027 0.19157 0.0
H470 H 0.48839 0.249 0.27457 0.0
H471 H 0.46941 0.28806 0.30065 0.0
C472 C 0.52391 0.203 0.17303 0.0
C473 C 0.54247 0.20331 0.18566 0.0
C474 C 0.51313 0.22557 0.18729 0.0
C475 C 0.52075 0.249 0.21362 0.0
C476 C 0.5394 0.24954 0.22435 0.0
C477 C 0.5501 0.22693 0.21085 0.0
C478 C 0.50404 0.32157 0.23101 0.0
C479 C 0.48751 0.31795 0.26168 0.0
C480 C 0.51487 0.29925 0.21596 0.0
C481 C 0.50933 0.27275 0.23059 0.0
C482 C 0.49292 0.26914 0.26201 0.0
C483 C 0.48217 0.29152 0.27771 0.0
H484 H 0.43376 0.79552 0.22684 0.0
H485 H 0.4764 0.83798 0.13183 0.0
H486 H 0.45375 0.75703 0.24385 0.0
H487 H 0.49666 0.79974 0.15045 0.0
H488 H 0.52364 0.71694 0.14496 0.0
H489 H 0.50301 0.75403 0.1236 0.0
H490 H 0.4792 0.74409 0.30456 0.0
H491 H 0.49927 0.70576 0.32461 0.0
C492 C 0.44743 0.79662 0.2095 0.0
C493 C 0.45352 0.81985 0.1781 0.0
C494 C 0.45895 0.77461 0.21977 0.0
C495 C 0.47692 0.77529 0.19922 0.0
C496 C 0.48287 0.79833 0.16647 0.0
C497 C 0.47128 0.82031 0.15581 0.0
C498 C 0.51381 0.72229 0.17993 0.0
C499 C 0.51297 0.708 0.23627 0.0
C500 C 0.50213 0.74393 0.16797 0.0
C501 C 0.48937 0.75215 0.21221 0.0
C502 C 0.48865 0.73809 0.26893 0.0
C503 C 0.50031 0.71628 0.2808 0.0
H504 H 0.74193 0.43573 0.4653 0.0
H505 H 0.72645 0.4789 0.29962 0.0
H506 H 0.75781 0.47555 0.50192 0.0
H507 H 0.74301 0.51859 0.33528 0.0
H508 H 0.75394 0.59415 0.45027 0.0
H509 H 0.73955 0.55302 0.41176 0.0
H510 H 0.78269 0.50481 0.48952 0.0
H511 H 0.79668 0.54589 0.52939 0.0
C512 C 0.74227 0.45352 0.43591 0.0
C513 C 0.73278 0.45417 0.37969 0.0
C514 C 0.75144 0.47642 0.45696 0.0
C515 C 0.75151 0.50049 0.42204 0.0
C516 C 0.74285 0.50063 0.36415 0.0
C517 C 0.73354 0.47776 0.3433 0.0
C518 C 0.7602 0.57469 0.45955 0.0
C519 C 0.77632 0.57318 0.49325 0.0
C520 C 0.75209 0.55114 0.43693 0.0
C521 C 0.76004 0.52554 0.44691 0.0
C522 C 0.77605 0.52408 0.48153 0.0
C523 C 0.78405 0.54762 0.50463 0.0
H524 H 0.31419 0.54644 0.48135 0.0
H525 H 0.27162 0.59131 0.39118 0.0
H526 H 0.29355 0.50913 0.50076 0.0
H527 H 0.25073 0.55428 0.41229 0.0
H528 H 0.22279 0.47195 0.40862 0.0
H529 H 0.24338 0.50883 0.38597 0.0
H530 H 0.26833 0.49809 0.56482 0.0
H531 H 0.24828 0.46001 0.58604 0.0
C532 C 0.3004 0.5483 0.46557 0.0
C533 C 0.2945 0.57183 0.43486 0.0
C534 C 0.28851 0.527 0.47725 0.0
C535 C 0.27039 0.52878 0.45889 0.0
C536 C 0.26462 0.55209 0.42668 0.0
C537 C 0.27658 0.57334 0.41455 0.0
C538 C 0.2328 0.47723 0.44291 0.0
C539 C 0.23407 0.46272 0.49881 0.0
C540 C 0.24447 0.49867 0.43021 0.0
C541 C 0.25762 0.5064 0.47333 0.0
C542 C 0.25858 0.49237 0.53002 0.0
C543 C 0.24694 0.47076 0.5426 0.0
H544 H 0.49804 0.84772 0.68016 0.0
H545 H 0.46565 0.79159 0.78556 0.0
H546 H 0.51769 0.81066 0.64845 0.0
H547 H 0.48583 0.75455 0.75595 0.0
H548 H 0.5153 0.68988 0.64166 0.0
H549 H 0.49464 0.72713 0.6668 0.0
H550 H 0.54001 0.7809 0.69002 0.0
H551 H 0.56041 0.7442 0.66357 0.0
C552 C 0.49518 0.82747 0.69693 0.0
C553 C 0.48025 0.82266 0.73543 0.0
C554 C 0.50654 0.80621 0.67908 0.0
C555 C 0.50333 0.77954 0.69943 0.0
C556 C 0.48855 0.77476 0.73867 0.0
C557 C 0.47715 0.79607 0.75651 0.0
C558 C 0.52079 0.70977 0.65122 0.0
C559 C 0.5395 0.71403 0.65064 0.0
C560 C 0.50899 0.73105 0.66631 0.0
C561 C 0.51565 0.75702 0.68086 0.0
C562 C 0.53434 0.76132 0.67848 0.0
C563 C 0.54608 0.74015 0.6635 0.0
H564 H 0.48171 0.33696 0.63684 0.0
H565 H 0.43859 0.29365 0.72729 0.0
H566 H 0.50198 0.29874 0.65601 0.0
H567 H 0.45859 0.25527 0.74488 0.0
H568 H 0.50312 0.20438 0.82977 0.0
H569 H 0.48368 0.24329 0.80866 0.0
H570 H 0.5086 0.25274 0.62931 0.0
H571 H 0.52861 0.21489 0.65176 0.0
C572 C 0.47648 0.3191 0.6598 0.0
C573 C 0.4586 0.31838 0.68086 0.0
C574 C 0.48809 0.29717 0.67084 0.0
C575 C 0.48199 0.27401 0.70278 0.0
C576 C 0.46389 0.273 0.72161 0.0
C577 C 0.45236 0.29493 0.71096 0.0
C578 C 0.50459 0.21498 0.7862 0.0
C579 C 0.5173 0.2063 0.74228 0.0
C580 C 0.49329 0.23709 0.77369 0.0
C581 C 0.49442 0.25103 0.71692 0.0
C582 C 0.50739 0.24265 0.67359 0.0
C583 C 0.51872 0.22066 0.6862 0.0
H584 H 0.73229 0.93786 0.89166 0.0
H585 H 0.68878 0.9814 0.98011 0.0
H586 H 0.75252 0.97577 0.91281 0.0
H587 H 0.70876 0.01941 0.9998 0.0
H588 H 0.75319 0.06992 0.087 0.0
H589 H 0.73363 0.03142 0.06461 0.0
H590 H 0.75924 0.02182 0.88645 0.0
H591 H 0.7793 0.0593 0.91006 0.0
C592 C 0.72698 0.95566 0.91477 0.0
C593 C 0.70895 0.95653 0.93442 0.0
C594 C 0.73857 0.97744 0.9269 0.0
C595 C 0.73235 1.00062 0.95868 0.0
C596 C 0.71416 1.0017 0.97656 0.0
C597 C 0.70264 0.97995 0.96472 0.0
C598 C 0.75476 0.05942 0.04335 0.0
C599 C 0.76772 0.06794 1.00019 0.0
C600 C 0.7434 0.03751 0.03012 0.0
C601 C 0.74472 0.02356 0.97341 0.0
C602 C 0.75787 0.03188 0.93071 0.0
C603 C 0.76923 0.05369 0.94397 0.0
H604 H 0.24829 0.96125 0.09344 0.0
H605 H 0.22395 0.97097 0.91344 0.0
H606 H 0.26744 1.00052 0.07331 0.0
H607 H 0.24364 1.00907 0.89207 0.0
H608 H 0.26959 0.09306 0.8959 0.0
H609 H 0.24948 0.0551 0.91772 0.0
H610 H 0.29279 1.01339 0.01181 0.0
H611 H 0.31262 0.05157 0.99159 0.0
C612 C 0.24703 0.97172 0.04963 0.0
C613 C 0.23472 0.96269 1.00487 0.0
C614 C 0.25815 0.99406 0.03772 0.0
C615 C 0.25722 1.00792 0.98077 0.0
C616 C 0.24468 0.99913 0.93658 0.0
C617 C 0.23355 0.97694 0.94856 0.0
C618 C 0.27481 0.0757 0.92088 0.0
C619 C 0.29267 0.07539 0.94217 0.0
C620 C 0.2633 0.05388 0.93336 0.0
C621 C 0.26944 0.03117 0.96703 0.0
C622 C 0.28745 0.03072 0.98703 0.0
C623 C 0.29889 0.05256 0.97491 0.0
H624 H 0.00173 0.33144 0.68613 0.0
H625 H 0.96625 0.28473 0.80323 0.0
H626 H 0.01718 0.2899 0.65516 0.0
H627 H 0.98229 0.24348 0.77495 0.0
H628 H 1.00018 0.17129 0.6618 0.0
H629 H 0.98533 0.21386 0.68823 0.0
H630 H 0.03685 0.25445 0.68875 0.0
H631 H 0.05162 0.21205 0.66043 0.0
C632 C 0.99735 0.31235 0.70585 0.0
C633 C 0.98268 0.31151 0.74707 0.0
C634 C 0.00631 0.28852 0.68844 0.0
C635 C 0.00089 0.26321 0.71197 0.0
C636 C 0.98662 0.2625 0.75485 0.0
C637 C 0.97762 0.2863 0.77202 0.0
C638 C 0.00832 0.18936 0.66679 0.0
C639 C 0.0271 0.1882 0.65914 0.0
C640 C 0.99982 0.21376 0.68264 0.0
C641 C 0.00989 0.2376 0.69162 0.0
C642 C 0.02862 0.2366 0.68189 0.0
C643 C 0.03711 0.21222 0.66569 0.0
H644 H 0.03137 0.73695 0.80257 0.0
H645 H 0.99294 0.68191 0.7215 0.0
H646 H 0.01202 0.77539 0.77515 0.0
H647 H 0.97366 0.7203 0.69366 0.0
H648 H 0.93591 0.79459 0.72416 0.0
H649 H 0.955 0.75548 0.74647 0.0
H650 H 0.00128 0.79908 0.67801 0.0
H651 H 0.98207 0.83843 0.65558 0.0
C652 C 0.01868 0.73305 0.77963 0.0
C653 C 0.01362 0.70641 0.76449 0.0
C654 C 0.00773 0.75507 0.76314 0.0
C655 C 0.99138 0.75089 0.73178 0.0
C656 C 0.98614 0.72418 0.71793 0.0
C657 C 0.99718 0.70222 0.73378 0.0
C658 C 0.95013 0.79575 0.7132 0.0
C659 C 0.95751 0.81962 0.68828 0.0
C660 C 0.96105 0.7733 0.72585 0.0
C661 C 0.97967 0.77426 0.71454 0.0
C662 C 0.987 0.79788 0.68797 0.0
C663 C 0.97599 0.82028 0.67453 0.0
H664 H 0.24535 0.5967 0.9562 0.0
H665 H 0.28205 0.54053 0.04367 0.0
H666 H 0.22541 0.55904 0.92939 0.0
H667 H 0.26209 0.5029 0.01719 0.0
H668 H 0.2318 0.44029 0.89889 0.0
H669 H 0.25152 0.47896 0.91996 0.0
H670 H 0.20577 0.52525 0.9845 0.0
H671 H 0.18612 0.48675 0.96368 0.0
C672 C 0.24908 0.57632 0.97 0.0
C673 C 0.2652 0.57158 1.00232 0.0
C674 C 0.23767 0.55478 0.95477 0.0
C675 C 0.24225 0.52799 0.97081 0.0
C676 C 0.25831 0.52328 1.00355 0.0
C677 C 0.26961 0.54485 0.01944 0.0
C678 C 0.22594 0.45885 0.9168 0.0
C679 C 0.20742 0.46044 0.92982 0.0
C680 C 0.23724 0.48088 0.92938 0.0
C681 C 0.2302 0.50506 0.95435 0.0
C682 C 0.21158 0.50696 0.96506 0.0
C683 C 0.20034 0.48485 0.95328 0.0
H684 H 0.8064 0.53938 0.97042 0.0
H685 H 0.76511 0.59736 0.92096 0.0
H686 H 0.78339 0.50654 0.99821 0.0
H687 H 0.74197 0.56447 0.9498 0.0
H688 H 0.70762 0.48621 0.93936 0.0
H689 H 0.7294 0.52163 0.91634 0.0
H690 H 0.76046 0.49806 0.07649 0.0
H691 H 0.73879 0.4619 0.09846 0.0
C692 C 0.79239 0.54514 0.96532 0.0
C693 C 0.78762 0.57105 0.94333 0.0
C694 C 0.77918 0.52635 0.98196 0.0
C695 C 0.7608 0.53291 0.97699 0.0
C696 C 0.756 0.55867 0.95396 0.0
C697 C 0.76926 0.57754 0.93735 0.0
C698 C 0.71907 0.48865 0.96984 0.0
C699 C 0.72162 0.47101 0.0203 0.0
C700 C 0.73149 0.50914 0.95692 0.0
C701 C 0.7468 0.51258 0.99414 0.0
C702 C 0.74896 0.49567 0.04623 0.0
C703 C 0.73647 0.47516 0.0593 0.0
H704 H 0.01796 0.68929 0.15277 0.0
H705 H 0.06375 0.73287 0.2248 0.0
H706 H 0.9988 0.729 0.17234 0.0
H707 H 0.0447 0.77234 0.24411 0.0
H708 H 0.00714 0.84612 0.21548 0.0
H709 H 0.02641 0.80755 0.18846 0.0
H710 H 0.98769 0.75282 0.26953 0.0
H711 H 0.96838 0.7914 0.29624 0.0
C712 C 0.02397 0.70747 0.17176 0.0
C713 C 0.04232 0.70796 0.18744 0.0
C714 C 0.01299 0.73007 0.18354 0.0
C715 C 0.02023 0.75369 0.21027 0.0
C716 C 0.03874 0.75451 0.2233 0.0
C717 C 0.04963 0.73186 0.21237 0.0
C718 C 0.00282 0.82585 0.22778 0.0
C719 C 0.98632 0.82178 0.2583 0.0
C720 C 0.01384 0.80379 0.21238 0.0
C721 C 0.00849 0.77714 0.22645 0.0
C722 C 0.99205 0.77309 0.25739 0.0
C723 C 0.98113 0.79519 0.27346 0.0
H724 H 0.98341 0.33372 0.14205 0.0
H725 H 0.93957 0.28146 0.19716 0.0
H726 H 0.00491 0.2978 0.16804 0.0
H727 H 0.96098 0.24573 0.22262 0.0
H728 H 0.03538 0.21573 0.16333 0.0
H729 H 0.01454 0.252 0.13522 0.0
H730 H 0.9842 0.23735 0.30235 0.0
H731 H 0.00491 0.20055 0.32986 0.0
C732 C 0.97834 0.3145 0.15893 0.0
C733 C 0.95978 0.31053 0.16777 0.0
C734 C 0.99065 0.29393 0.17386 0.0
C735 C 0.98465 0.26904 0.19817 0.0
C736 C 0.96606 0.26486 0.20523 0.0
C737 C 0.95378 0.2853 0.19006 0.0
C738 C 0.02421 0.22017 0.19396 0.0
C739 C 0.02166 0.20509 0.24853 0.0
C740 C 0.01238 0.24113 0.17811 0.0
C741 C 0.99766 0.24745 0.21632 0.0
C742 C 0.99528 0.23271 0.27151 0.0
C743 C 0.00721 0.21182 0.28759 0.0
H744 H 0.23174 0.94132 0.38934 0.0
H745 H 0.18602 0.98729 0.45545 0.0
H746 H 0.25139 0.98008 0.41067 0.0
H747 H 0.20557 0.02585 0.4766 0.0
H748 H 0.24468 0.09764 0.44985 0.0
H749 H 0.22494 0.05989 0.42251 0.0
H750 H 0.26208 1.00379 0.50813 0.0
H751 H 0.2819 0.04162 0.53515 0.0
C752 C 0.22585 0.95982 0.40739 0.0
C753 C 0.20735 0.96126 0.42082 0.0
C754 C 0.23711 0.98189 0.42024 0.0
C755 C 0.23004 1.00591 0.44586 0.0
C756 C 0.21142 1.00768 0.4567 0.0
C757 C 0.20023 0.98556 0.44465 0.0
C758 C 0.24856 0.07725 0.4631 0.0
C759 C 0.26479 0.07257 0.49483 0.0
C760 C 0.23726 0.05566 0.44755 0.0
C761 C 0.24203 0.02886 0.46275 0.0
C762 C 0.25817 0.0242 0.4951 0.0
C763 C 0.26938 0.04585 0.51131 0.0
H764 H 0.75912 0.9315 0.46516 0.0
H765 H 0.72013 0.98618 0.54573 0.0
H766 H 0.77852 0.96994 0.43993 0.0
H767 H 0.73961 0.02472 0.52085 0.0
H768 H 0.76996 0.08782 0.40234 0.0
H769 H 0.75074 0.04859 0.42413 0.0
H770 H 0.79678 1.00487 0.49496 0.0
H771 H 0.81591 0.04386 0.47325 0.0
C772 C 0.7548 0.95175 0.47793 0.0
C773 C 0.73816 0.95586 0.50761 0.0
C774 C 0.7659 0.97374 0.46358 0.0
C775 C 0.76053 1.00037 0.47798 0.0
C776 C 0.744 1.00445 0.50848 0.0
C777 C 0.73297 0.9824 0.52348 0.0
C778 C 0.77599 0.06968 0.42174 0.0
C779 C 0.79442 0.06893 0.43624 0.0
C780 C 0.76497 0.04735 0.43482 0.0
C781 C 0.77224 0.02374 0.46177 0.0
C782 C 0.7908 0.02271 0.47403 0.0
C783 C 0.80174 0.04508 0.46171 0.0
H784 H 0.52092 0.12011 0.63023 0.0
H785 H 0.57767 0.12696 0.66953 0.0
H786 H 0.52765 0.10551 0.52616 0.0
H787 H 0.58468 0.11022 0.56592 0.0
H788 H 0.58818 0.12796 0.35566 0.0
H789 H 0.58468 0.12835 0.46749 0.0
H790 H 0.53763 0.0772 0.45056 0.0
H791 H 0.54054 0.07877 0.33837 0.0
C792 C 0.53491 0.1176 0.61706 0.0
C793 C 0.54874 0.12529 0.65767 0.0
C794 C 0.53884 0.10891 0.55715 0.0
C795 C 0.55679 0.1071 0.53634 0.0
C796 C 0.57068 0.11213 0.57931 0.0
C797 C 0.5667 0.12127 0.63926 0.0
C798 C 0.57725 0.11653 0.37613 0.0
C799 C 0.56448 0.10366 0.33853 0.0
C800 C 0.57528 0.11652 0.44052 0.0
C801 C 0.56068 0.10312 0.46891 0.0
C802 C 0.54872 0.0885 0.43086 0.0
C803 C 0.55044 0.08915 0.36643 0.0
H804 H 0.40331 0.92224 0.35004 0.0
H805 H 0.46085 0.91052 0.33993 0.0
H806 H 0.4051 0.92321 0.46335 0.0
H807 H 0.46268 0.91089 0.45184 0.0
H808 H 0.46637 0.92136 0.65005 0.0
H809 H 0.46024 0.93657 0.54464 0.0
H810 H 0.41086 0.89029 0.5446 0.0
H811 H 0.41681 0.87612 0.65098 0.0
C812 C 0.41634 0.92024 0.37205 0.0
C813 C 0.43193 0.91622 0.33634 0.0
C814 C 0.41737 0.92066 0.43685 0.0
C815 C 0.43404 0.91721 0.46696 0.0
C816 C 0.44965 0.91417 0.43062 0.0
C817 C 0.4486 0.9137 0.36626 0.0
C818 C 0.45385 0.91547 0.62821 0.0
C819 C 0.442 0.89775 0.65838 0.0
C820 C 0.45043 0.92383 0.56759 0.0
C821 C 0.43527 0.91414 0.53547 0.0
C822 C 0.42262 0.89829 0.56783 0.0
C823 C 0.42597 0.89018 0.62885 0.0
H824 H 0.71743 0.37611 0.61412 0.0
H825 H 0.65947 0.37728 0.59994 0.0
H826 H 0.71523 0.37701 0.72613 0.0
H827 H 0.65715 0.37768 0.71314 0.0
H828 H 0.66573 0.42344 0.9033 0.0
H829 H 0.66311 0.41027 0.79478 0.0
H830 H 0.70696 0.35337 0.81865 0.0
H831 H 0.70975 0.36731 0.92683 0.0
C832 C 0.70417 0.3761 0.63511 0.0
C833 C 0.68862 0.37677 0.59829 0.0
C834 C 0.70289 0.37637 0.69954 0.0
C835 C 0.686 0.37734 0.72903 0.0
C836 C 0.67038 0.37715 0.69204 0.0
C837 C 0.67168 0.3768 0.62727 0.0
C838 C 0.6743 0.40737 0.8857 0.0
C839 C 0.68778 0.39612 0.92325 0.0
C840 C 0.67286 0.39983 0.82348 0.0
C841 C 0.68499 0.381 0.79753 0.0
C842 C 0.6976 0.36827 0.83674 0.0
C843 C 0.69906 0.37591 0.89889 0.0
H844 H 0.34362 0.67168 0.61168 0.0
H845 H 0.28641 0.65839 0.59522 0.0
H846 H 0.34079 0.67136 0.72481 0.0
H847 H 0.28358 0.65736 0.70682 0.0
H848 H 0.27795 0.66739 0.90572 0.0
H849 H 0.28441 0.68211 0.80023 0.0
H850 H 0.33508 0.63877 0.80591 0.0
H851 H 0.32879 0.62517 0.91253 0.0
C852 C 0.33044 0.66901 0.63226 0.0
C853 C 0.31524 0.66504 0.59471 0.0
C854 C 0.32881 0.66866 0.697 0.0
C855 C 0.31194 0.66443 0.72532 0.0
C856 C 0.29674 0.66126 0.68717 0.0
C857 C 0.29837 0.66161 0.6229 0.0
C858 C 0.29076 0.66194 0.88502 0.0
C859 C 0.30292 0.64529 0.9171 0.0
C860 C 0.29438 0.67002 0.8243 0.0
C861 C 0.31009 0.66111 0.79376 0.0
C862 C 0.3229 0.64616 0.82779 0.0
C863 C 0.31935 0.63838 0.88898 0.0
H864 H 0.57814 0.64694 0.16256 0.0
H865 H 0.52447 0.61872 0.12213 0.0
H866 H 0.58759 0.63536 0.05743 0.0
H867 H 0.53387 0.60715 0.01705 0.0
H868 H 0.558 0.58242 0.83224 0.0
H869 H 0.55465 0.58003 0.94511 0.0
H870 H 0.57723 0.66039 0.96117 0.0
H871 H 0.58033 0.66285 0.84912 0.0
C872 C 0.56856 0.63729 0.13194 0.0
C873 C 0.55056 0.63384 0.15022 0.0
C874 C 0.57392 0.6309 0.07165 0.0
C875 C 0.56141 0.62067 0.02889 0.0
C876 C 0.54383 0.61487 0.04903 0.0
C877 C 0.53843 0.62155 0.10907 0.0
C878 C 0.56252 0.59931 0.8602 0.0
C879 C 0.56932 0.62288 0.83221 0.0
C880 C 0.56058 0.59796 0.92459 0.0
C881 C 0.56574 0.61997 0.96191 0.0
C882 C 0.57338 0.64295 0.93378 0.0
C883 C 0.57503 0.64445 0.8696 0.0
H884 H 0.42568 0.37769 0.16865 0.0
H885 H 0.4789 0.41204 0.15746 0.0
H886 H 0.41995 0.39092 0.06151 0.0
H887 H 0.47306 0.42641 0.05133 0.0
H888 H 0.46887 0.40096 0.84793 0.0
H889 H 0.47202 0.40053 0.95947 0.0
H890 H 0.41604 0.42334 0.97909 0.0
H891 H 0.41284 0.423 0.86618 0.0
C892 C 0.43585 0.38913 0.14395 0.0
C893 C 0.45273 0.39382 0.17098 0.0
C894 C 0.43261 0.3967 0.08248 0.0
C895 C 0.44618 0.40925 0.04714 0.0
C896 C 0.46247 0.41613 0.0765 0.0
C897 C 0.46577 0.40824 0.13751 0.0
C898 C 0.45727 0.4062 0.87596 0.0
C899 C 0.4406 0.41193 0.8484 0.0
C900 C 0.45911 0.4062 0.94015 0.0
C901 C 0.44431 0.41207 0.9787 0.0
C902 C 0.42768 0.41854 0.95093 0.0
C903 C 0.42585 0.41849 0.88633 0.0
H904 H 0.73147 0.87376 0.38536 0.0
H905 H 0.67497 0.88275 0.4277 0.0
H906 H 0.72415 0.86063 0.28086 0.0
H907 H 0.66736 0.86737 0.3237 0.0
H908 H 0.66308 0.88546 0.11398 0.0
H909 H 0.66722 0.88587 0.22559 0.0
H910 H 0.71347 0.83289 0.20555 0.0
H911 H 0.70995 0.83444 0.09363 0.0
C912 C 0.7174 0.87215 0.37271 0.0
C913 C 0.70384 0.87994 0.41448 0.0
C914 C 0.71313 0.86426 0.31257 0.0
C915 C 0.69509 0.86332 0.29264 0.0
C916 C 0.68143 0.8686 0.33645 0.0
C917 C 0.68576 0.87696 0.39663 0.0
C918 C 0.67398 0.87368 0.13376 0.0
C919 C 0.68635 0.86024 0.09537 0.0
C920 C 0.67632 0.87368 0.198 0.0
C921 C 0.69087 0.85971 0.22539 0.0
C922 C 0.70244 0.84463 0.18659 0.0
C923 C 0.70037 0.84527 0.12233 0.0
H924 H 0.34122 0.14671 0.10545 0.0
H925 H 0.29424 0.19777 0.09012 0.0
H926 H 0.33739 0.14494 0.21727 0.0
H927 H 0.29112 0.19817 0.20215 0.0
H928 H 0.27297 0.15615 0.3796 0.0
H929 H 0.28045 0.17028 0.27599 0.0
H930 H 0.33714 0.16073 0.3174 0.0
H931 H 0.32928 0.14438 0.4207 0.0
C932 C 0.33041 0.1583 0.12642 0.0
C933 C 0.31789 0.1721 0.08928 0.0
C934 C 0.32822 0.15747 0.19083 0.0
C935 C 0.31369 0.171 0.21971 0.0
C936 C 0.30209 0.18662 0.18218 0.0
C937 C 0.30396 0.18671 0.11778 0.0
C938 C 0.28707 0.15741 0.36689 0.0
C939 C 0.30049 0.14858 0.40808 0.0
C940 C 0.29145 0.16585 0.30717 0.0
C941 C 0.30949 0.16638 0.2869 0.0
C942 C 0.32306 0.15992 0.33024 0.0
C943 C 0.3186 0.15099 0.39007 0.0
H944 H 0.03266 0.10556 0.1653 0.0
H945 H 0.08348 0.14751 0.165 0.0
H946 H 0.03797 0.09059 0.05917 0.0
H947 H 0.08868 0.13346 0.05805 0.0
H948 H 0.09469 0.10132 0.86278 0.0
H949 H 0.09314 0.10021 0.97608 0.0
H950 H 0.03607 0.11728 0.96692 0.0
H951 H 0.03764 0.11786 0.85479 0.0
C952 C 0.04529 0.11068 0.14309 0.0
C953 C 0.05773 0.12748 0.17315 0.0
C954 C 0.04824 0.10249 0.08205 0.0
C955 C 0.06356 0.11135 0.04946 0.0
C956 C 0.07677 0.12613 0.08165 0.0
C957 C 0.07387 0.13412 0.14304 0.0
C958 C 0.0818 0.10438 0.88526 0.0
C959 C 0.06629 0.10976 0.85013 0.0
C960 C 0.08091 0.10386 0.95007 0.0
C961 C 0.06447 0.10856 0.98083 0.0
C962 C 0.0489 0.11303 0.94512 0.0
C963 C 0.04981 0.11361 0.88067 0.0
H964 H 0.92428 0.88007 0.16774 0.0
H965 H 0.97657 0.91766 0.16028 0.0
H966 H 0.91862 0.89363 0.06082 0.0
H967 H 0.97076 0.93241 0.05438 0.0
H968 H 0.96819 0.90688 0.85039 0.0
H969 H 0.97088 0.90687 0.96205 0.0
H970 H 0.9142 0.92592 0.97871 0.0
H971 H 0.91148 0.92513 0.86568 0.0
C972 C 0.93421 0.89231 0.14395 0.0
C973 C 0.95085 0.89782 0.17191 0.0
C974 C 0.93101 0.90008 0.0826 0.0
C975 C 0.94439 0.91365 0.04832 0.0
C976 C 0.96034 0.92136 0.07871 0.0
C977 C 0.96361 0.91327 0.13961 0.0
C978 C 0.95633 0.91142 0.8778 0.0
C979 C 0.93962 0.91589 0.84938 0.0
C980 C 0.95789 0.91167 0.94206 0.0
C981 C 0.94277 0.91654 0.97982 0.0
C982 C 0.9261 0.92189 0.95118 0.0
C983 C 0.92454 0.92157 0.8865 0.0
H984 H 0.20991 0.33855 0.09158 0.0
H985 H 0.16163 0.38658 0.1102 0.0
H986 H 0.21295 0.3368 0.20358 0.0
H987 H 0.16532 0.38708 0.22196 0.0
H988 H 0.17274 0.38583 0.42418 0.0
H989 H 0.16565 0.36974 0.32024 0.0
H990 H 0.22268 0.36381 0.28034 0.0
H991 H 0.22944 0.3775 0.38478 0.0
C992 C 0.19993 0.34872 0.11995 0.0
C993 C 0.18563 0.36286 0.09245 0.0
C994 C 0.20173 0.348 0.18433 0.0
C995 C 0.18964 0.36232 0.22282 0.0
C996 C 0.17485 0.37547 0.19478 0.0
C997 C 0.17276 0.37543 0.1304 0.0
C998 C 0.18368 0.38 0.39376 0.0
C999 C 0.20165 0.3834 0.41236 0.0
C1000 C 0.17966 0.37126 0.33356 0.0
C1001 C 0.19353 0.36609 0.29039 0.0
C1002 C 0.21147 0.36733 0.31132 0.0
C1003 C 0.21543 0.37552 0.37152 0.0
H1004 H 0.78055 0.66842 0.39736 0.0
H1005 H 0.83555 0.64581 0.43625 0.0
H1006 H 0.78912 0.68119 0.29229 0.0
H1007 H 0.84418 0.65858 0.33107 0.0
H1008 H 0.83577 0.62538 0.12701 0.0
H1009 H 0.83399 0.63058 0.23879 0.0
H1010 H 0.80835 0.70869 0.21563 0.0
H1011 H 0.81043 0.70358 0.10279 0.0
C1012 C 0.79462 0.66735 0.38416 0.0
C1013 C 0.80737 0.65598 0.4246 0.0
C1014 C 0.79954 0.67467 0.32406 0.0
C1015 C 0.81726 0.67046 0.30328 0.0
C1016 C 0.83038 0.66179 0.34581 0.0
C1017 C 0.82549 0.65473 0.40615 0.0
C1018 C 0.8301 0.64392 0.14578 0.0
C1019 C 0.82315 0.66401 0.10653 0.0
C1020 C 0.82922 0.64703 0.20979 0.0
C1021 C 0.8211 0.67012 0.23596 0.0
C1022 C 0.81472 0.69074 0.19662 0.0
C1023 C 0.81592 0.68783 0.13227 0.0
H1024 H 0.08789 0.60274 0.37049 0.0
H1025 H 0.03137 0.62222 0.35578 0.0
H1026 H 0.08523 0.60205 0.48351 0.0
H1027 H 0.02873 0.62231 0.46759 0.0
H1028 H 0.02315 0.61098 0.6661 0.0
H1029 H 0.02873 0.5965 0.55985 0.0
H1030 H 0.08114 0.6344 0.56577 0.0
H1031 H 0.0757 0.64776 0.67298 0.0
C1032 C 0.07488 0.60661 0.39146 0.0
C1033 C 0.05984 0.61258 0.35449 0.0
C1034 C 0.07336 0.60635 0.45614 0.0
C1035 C 0.05675 0.61205 0.48498 0.0
C1036 C 0.04166 0.61726 0.4474 0.0
C1037 C 0.04318 0.61746 0.38309 0.0
C1038 C 0.03611 0.61523 0.64524 0.0
C1039 C 0.04902 0.63039 0.67749 0.0
C1040 C 0.03925 0.6073 0.58414 0.0
C1041 C 0.05521 0.61485 0.55353 0.0
C1042 C 0.06873 0.62809 0.58772 0.0
C1043 C 0.06566 0.63573 0.64925 0.0
H1044 H 0.91964 0.36158 0.36158 0.0
H1045 H 0.94026 0.44311 0.34651 0.0
H1046 H 0.92235 0.36381 0.4738 0.0
H1047 H 0.94345 0.44513 0.45964 0.0
H1048 H 0.97453 0.40285 0.63424 0.0
H1049 H 0.96521 0.41567 0.52973 0.0
H1050 H 0.91093 0.39017 0.57083 0.0
H1051 H 0.92024 0.37767 0.67566 0.0
C1052 C 0.92447 0.38016 0.38253 0.0
C1053 C 0.92979 0.40214 0.34566 0.0
C1054 C 0.92591 0.38151 0.44674 0.0
C1055 C 0.93305 0.40468 0.47536 0.0
C1056 C 0.93785 0.42708 0.43861 0.0
C1057 C 0.936 0.42595 0.37414 0.0
C1058 C 0.96048 0.40098 0.62154 0.0
C1059 C 0.9481 0.38926 0.66274 0.0
C1060 C 0.95513 0.40837 0.56189 0.0
C1061 C 0.93738 0.4037 0.54219 0.0
C1062 C 0.9247 0.39389 0.58495 0.0
C1063 C 0.92999 0.38692 0.64494 0.0
H1064 H 0.22897 0.86731 0.90327 0.0
H1065 H 0.17487 0.89886 0.91438 0.0
H1066 H 0.22365 0.85323 0.79666 0.0
H1067 H 0.16962 0.88583 0.8069 0.0
H1068 H 0.1638 0.85441 0.61053 0.0
H1069 H 0.16684 0.85344 0.72345 0.0
H1070 H 0.222 0.88028 0.70588 0.0
H1071 H 0.21902 0.88054 0.59418 0.0
C1072 C 0.21576 0.87047 0.88325 0.0
C1073 C 0.20232 0.88411 0.91678 0.0
C1074 C 0.21275 0.86276 0.82199 0.0
C1075 C 0.19635 0.86899 0.79254 0.0
C1076 C 0.18239 0.88059 0.82797 0.0
C1077 C 0.18535 0.88802 0.88965 0.0
C1078 C 0.17661 0.85972 0.63111 0.0
C1079 C 0.19117 0.86759 0.59374 0.0
C1080 C 0.17834 0.85928 0.6957 0.0
C1081 C 0.19469 0.86665 0.72401 0.0
C1082 C 0.20932 0.87389 0.68603 0.0
C1083 C 0.20758 0.8743 0.62181 0.0
H1084 H 0.77688 0.16667 0.9089 0.0
H1085 H 0.82874 0.12731 0.91328 0.0
H1086 H 0.78264 0.18199 0.80334 0.0
H1087 H 0.83436 0.14151 0.80671 0.0
H1088 H 0.84117 0.17367 0.61185 0.0
H1089 H 0.83881 0.17439 0.72506 0.0
H1090 H 0.78202 0.15628 0.71079 0.0
H1091 H 0.78437 0.15625 0.59904 0.0
C1092 C 0.78976 0.16208 0.8877 0.0
C1093 C 0.80241 0.14597 0.91894 0.0
C1094 C 0.793 0.17049 0.82701 0.0
C1095 C 0.80879 0.16244 0.79582 0.0
C1096 C 0.82209 0.14823 0.82916 0.0
C1097 C 0.81893 0.14011 0.89029 0.0
C1098 C 0.82817 0.17032 0.63324 0.0
C1099 C 0.81296 0.16484 0.59679 0.0
C1100 C 0.82681 0.1706 0.698 0.0
C1101 C 0.81021 0.16549 0.72732 0.0
C1102 C 0.79496 0.16088 0.69023 0.0
C1103 C 0.79632 0.1606 0.62593 0.0
H1104 H 0.52057 0.07336 0.96103 0.0
H1105 H 0.53669 0.04889 0.14471 0.0
H1106 H 0.4985 0.03645 0.95877 0.0
H1107 H 0.51463 1.01234 0.14245 0.0
H1108 H 0.45815 0.97392 0.14296 0.0
H1109 H 0.48027 1.01037 0.14051 0.0
H1110 H 0.49829 0.98362 0.96077 0.0
H1111 H 0.47617 0.94678 0.96325 0.0
C1112 C 0.51941 0.06014 1.00085 0.0
C1113 C 0.53035 0.0641 0.05311 0.0
C1114 C 0.50686 0.03894 0.99938 0.0
C1115 C 0.50481 0.02161 0.05053 0.0
C1116 C 0.5158 0.02554 0.10258 0.0
C1117 C 0.5285 0.0464 0.10369 0.0
C1118 C 0.46677 0.97579 0.10276 0.0
C1119 C 0.46543 0.95737 0.05337 0.0
C1120 C 0.47951 0.99661 0.10156 0.0
C1121 C 0.49104 0.99977 0.05057 0.0
C1122 C 0.48951 0.98171 1.00055 0.0
C1123 C 0.47693 0.96056 1.00216 0.0
H1124 H 0.70877 0.30391 0.22527 0.0
H1125 H 0.73363 0.33379 0.39161 0.0
H1126 H 0.72904 0.26482 0.2256 0.0
H1127 H 0.755 0.29646 0.38967 0.0
H1128 H 0.78103 0.21538 0.412 0.0
H1129 H 0.75962 0.25253 0.40957 0.0
H1130 H 0.75639 0.24544 0.21031 0.0
H1131 H 0.77662 0.20645 0.21435 0.0
C1132 C 0.71888 0.30231 0.26118 0.0
C1133 C 0.71965 0.32173 0.30853 0.0
C1134 C 0.73064 0.27995 0.26137 0.0
C1135 C 0.7438 0.27691 0.30802 0.0
C1136 C 0.7448 0.29716 0.35402 0.0
C1137 C 0.73268 0.31891 0.35488 0.0
C1138 C 0.77565 0.22173 0.36773 0.0
C1139 C 0.78061 0.2081 0.31337 0.0
C1140 C 0.76346 0.24338 0.36604 0.0
C1141 C 0.75628 0.25278 0.30954 0.0
C1142 C 0.76126 0.23889 0.25501 0.0
C1143 C 0.77304 0.21657 0.25707 0.0
H1144 H 0.2933 0.72857 0.39419 0.0
H1145 H 0.2711 0.69637 0.22491 0.0
H1146 H 0.27195 0.76613 0.39024 0.0
H1147 H 0.24968 0.73428 0.22102 0.0
H1148 H 0.22722 0.82395 0.21226 0.0
H1149 H 0.24921 0.78668 0.20975 0.0
H1150 H 0.23818 0.76958 0.40177 0.0
H1151 H 0.21632 0.80639 0.40446 0.0
C1152 C 0.28393 0.72954 0.35593 0.0
C1153 C 0.28386 0.70933 0.31006 0.0
C1154 C 0.27163 0.75104 0.35385 0.0
C1155 C 0.25907 0.75308 0.3055 0.0
C1156 C 0.25926 0.73329 0.25869 0.0
C1157 C 0.27144 0.71151 0.26118 0.0
C1158 C 0.2295 0.81222 0.25388 0.0
C1159 C 0.22001 0.81822 0.30856 0.0
C1160 C 0.24201 0.7908 0.25232 0.0
C1161 C 0.24547 0.77531 0.30567 0.0
C1162 C 0.23596 0.78133 0.36012 0.0
C1163 C 0.22334 0.80238 0.36147 0.0
H1164 H 0.47333 0.45755 0.46502 0.0
H1165 H 0.46909 0.46727 0.66255 0.0
H1166 H 0.49262 0.49733 0.45933 0.0
H1167 H 0.48967 0.5053 0.65852 0.0
H1168 H 0.51557 0.58667 0.63786 0.0
H1169 H 0.49438 0.54913 0.63823 0.0
H1170 H 0.51954 0.51726 0.47254 0.0
H1171 H 0.53948 0.55636 0.47009 0.0
C1172 C 0.47675 0.46803 0.50739 0.0
C1173 C 0.46952 0.45946 0.56412 0.0
C1174 C 0.48801 0.49082 0.5044 0.0
C1175 C 0.49288 0.50514 0.55842 0.0
C1176 C 0.48596 0.4958 0.61535 0.0
C1177 C 0.47424 0.47363 0.61796 0.0
C1178 C 0.51631 0.57173 0.6012 0.0
C1179 C 0.52901 0.57448 0.5537 0.0
C1180 C 0.50431 0.54985 0.60167 0.0
C1181 C 0.50513 0.52946 0.55581 0.0
C1182 C 0.518 0.53248 0.50817 0.0
C1183 C 0.5296 0.55489 0.50674 0.0
H1184 H 0.78038 0.70626 0.72483 0.0
H1185 H 0.7755 0.70414 0.92334 0.0
H1186 H 0.75949 0.7442 0.72044 0.0
H1187 H 0.75308 0.73995 0.91938 0.0
H1188 H 0.72602 0.82123 0.90895 0.0
H1189 H 0.74743 0.78396 0.91083 0.0
H1190 H 0.73203 0.76267 0.72375 0.0
H1191 H 0.71203 0.80194 0.72095 0.0
C1192 C 0.77457 0.71368 0.76754 0.0
C1193 C 0.7798 0.70255 0.8245 0.0
C1194 C 0.76233 0.73538 0.76516 0.0
C1195 C 0.75443 0.74585 0.81962 0.0
C1196 C 0.75918 0.73358 0.87634 0.0
C1197 C 0.77193 0.71265 0.87879 0.0
C1198 C 0.72741 0.80858 0.86824 0.0
C1199 C 0.71752 0.81442 0.81477 0.0
C1200 C 0.73955 0.78683 0.86933 0.0
C1201 C 0.74161 0.76958 0.81765 0.0
C1202 C 0.73136 0.77549 0.76425 0.0
C1203 C 0.7197 0.79792 0.76255 0.0
H1204 H 0.30049 0.24136 0.84229 0.0
H1205 H 0.2606 0.18747 0.76524 0.0
H1206 H 0.27873 0.27875 0.83889 0.0
H1207 H 0.2388 0.22479 0.76292 0.0
H1208 H 0.20112 0.29109 0.85172 0.0
H1209 H 0.22296 0.25389 0.8478 0.0
H1210 H 0.2609 0.3061 0.75493 0.0
H1211 H 0.23895 0.3433 0.75781 0.0
C1212 C 0.28709 0.23749 0.82463 0.0
C1213 C 0.28226 0.21142 0.80417 0.0
C1214 C 0.27468 0.25894 0.82239 0.0
C1215 C 0.25707 0.25466 0.80076 0.0
C1216 C 0.25225 0.22863 0.78015 0.0
C1217 C 0.26476 0.20731 0.78125 0.0
C1218 C 0.2141 0.29463 0.83025 0.0
C1219 C 0.21831 0.32018 0.80517 0.0
C1220 C 0.22655 0.27328 0.82774 0.0
C1221 C 0.24364 0.27712 0.80116 0.0
C1222 C 0.24787 0.30263 0.77601 0.0
C1223 C 0.23527 0.32385 0.77739 0.0
H1224 H 0.96323 0.97581 0.65462 0.0
H1225 H 0.98036 0.94963 0.47317 0.0
H1226 H 0.98494 1.01273 0.65118 0.0
H1227 H 0.00213 0.987 0.46974 0.0
H1228 H 0.02446 0.07725 0.47254 0.0
H1229 H 0.00243 0.04018 0.46942 0.0
H1230 H 0.01918 0.01467 0.65143 0.0
H1231 H 0.04112 0.05124 0.65455 0.0
C1232 C 0.97157 0.97798 0.6138 0.0
C1233 C 0.9701 0.95965 0.56427 0.0
C1234 C 0.98407 0.9991 0.612 0.0
C1235 C 0.99529 1.0027 0.56032 0.0
C1236 C 0.9936 0.98478 0.51006 0.0
C1237 C 0.98122 0.96331 0.51223 0.0
C1238 C 0.02343 0.06369 0.51179 0.0
C1239 C 0.03452 0.06727 0.56384 0.0
C1240 C 0.0109 0.0424 0.50983 0.0
C1241 C 0.00903 0.02462 0.56032 0.0
C1242 C 0.02018 0.02819 0.61208 0.0
C1243 C 0.03283 0.04911 0.61367 0.0
H1244 H 0.98427 0.44131 0.1528 0.0
H1245 H 0.96304 0.46607 0.97616 0.0
H1246 H 0.00535 0.47893 0.15076 0.0
H1247 H 0.98302 0.50524 0.97575 0.0
H1248 H 0.03019 0.56416 0.96858 0.0
H1249 H 0.01071 0.52435 0.96493 0.0
H1250 H 0.00857 0.5238 0.16502 0.0
H1251 H 0.02912 0.56189 0.16776 0.0
C1252 C 0.98406 0.45505 0.11368 0.0
C1253 C 0.97209 0.45074 0.0646 0.0
C1254 C 0.99602 0.47695 0.11267 0.0
C1255 C 0.99591 0.49581 0.0635 0.0
C1256 C 0.9839 0.4912 0.01408 0.0
C1257 C 0.97232 0.46875 0.0143 0.0
C1258 C 0.02551 0.55536 0.01157 0.0
C1259 C 0.03125 0.56597 0.06841 0.0
C1260 C 0.01422 0.53256 0.00969 0.0
C1261 C 0.00798 0.52028 0.06471 0.0
C1262 C 0.01341 0.53172 0.12145 0.0
C1263 C 0.02509 0.5539 0.12321 0.0
H1264 H 0.57468 0.03735 0.84147 0.0
H1265 H 0.60767 0.05544 1.0005 0.0
H1266 H 0.59272 0.99696 0.82107 0.0
H1267 H 0.62573 0.01464 0.98006 0.0
H1268 H 0.64145 0.92332 0.9532 0.0
H1269 H 0.62228 0.96247 0.97771 0.0
H1270 H 0.62475 0.98813 0.78711 0.0
H1271 H 0.64394 0.94936 0.76269 0.0
C1272 C 0.58576 0.03268 0.87228 0.0
C1273 C 0.58977 0.04974 0.92254 0.0
C1274 C 0.59614 1.00954 0.86039 0.0
C1275 C 0.61067 1.0026 0.89886 0.0
C1276 C 0.61453 0.01935 0.94983 0.0
C1277 C 0.60427 0.0428 0.96129 0.0
C1278 C 0.63773 0.93716 0.91642 0.0
C1279 C 0.6442 0.93314 0.8559 0.0
C1280 C 0.62691 0.95972 0.93062 0.0
C1281 C 0.62203 0.97843 0.88438 0.0
C1282 C 0.62816 0.97401 0.82369 0.0
C1283 C 0.63919 0.95179 0.80974 0.0
H1284 H 0.42878 0.9995 0.91854 0.0
H1285 H 0.38068 0.95316 0.95563 0.0
H1286 H 0.41044 0.0395 0.89675 0.0
H1287 H 0.36227 0.99335 0.93345 0.0
H1288 H 0.33745 0.06004 0.80698 0.0
H1289 H 0.35529 0.02089 0.8384 0.0
H1290 H 0.38936 0.07289 0.94789 0.0
H1291 H 0.37137 0.11235 0.91663 0.0
C1292 C 0.41427 0.99786 0.92233 0.0
C1293 C 0.40619 0.97304 0.93848 0.0
C1294 C 0.40377 0.02089 0.91022 0.0
C1295 C 0.38488 0.01964 0.91315 0.0
C1296 C 0.37679 0.99492 0.93026 0.0
C1297 C 0.38733 0.97193 0.94326 0.0
C1298 C 0.34877 0.06327 0.83762 0.0
C1299 C 0.35304 0.08948 0.85884 0.0
C1300 C 0.3589 0.0407 0.85613 0.0
C1301 C 0.37373 0.04371 0.89579 0.0
C1302 C 0.37807 0.06991 0.91698 0.0
C1303 C 0.36776 0.09251 0.89913 0.0
H1304 H 0.66711 0.26744 0.27528 0.0
H1305 H 0.63499 0.31795 0.15494 0.0
H1306 H 0.65211 0.22722 0.23554 0.0
H1307 H 0.61929 0.27792 0.11718 0.0
H1308 H 0.60369 0.20069 0.02084 0.0
H1309 H 0.62142 0.23914 0.05601 0.0
H1310 H 0.62528 0.20284 0.2376 0.0
H1311 H 0.60835 0.16378 0.20122 0.0
C1312 C 0.6567 0.26997 0.24068 0.0
C1313 C 0.65222 0.29591 0.21834 0.0
C1314 C 0.64799 0.24686 0.21804 0.0
C1315 C 0.63438 0.24909 0.17303 0.0
C1316 C 0.62992 0.27516 0.15085 0.0
C1317 C 0.63883 0.29823 0.17285 0.0
C1318 C 0.60853 0.20077 0.06808 0.0
C1319 C 0.60457 0.17914 0.10819 0.0
C1320 C 0.61856 0.22301 0.08855 0.0
C1321 C 0.62469 0.22447 0.15005 0.0
C1322 C 0.62107 0.20244 0.18972 0.0
C1323 C 0.61128 0.17998 0.1689 0.0
H1324 H 0.40854 0.80777 0.05502 0.0
H1325 H 0.37475 0.86049 0.16513 0.0
H1326 H 0.39088 0.76876 0.08773 0.0
H1327 H 0.35694 0.82117 0.19762 0.0
H1328 H 0.31792 0.74738 0.17033 0.0
H1329 H 0.33593 0.78738 0.14651 0.0
H1330 H 0.38448 0.74214 0.18546 0.0
H1331 H 0.36641 0.70197 0.20971 0.0
C1332 C 0.39727 0.81111 0.08595 0.0
C1333 C 0.39298 0.83736 0.10708 0.0
C1334 C 0.38727 0.78865 0.10519 0.0
C1335 C 0.37256 0.79185 0.14543 0.0
C1336 C 0.36815 0.81809 0.16633 0.0
C1337 C 0.37836 0.84059 0.14777 0.0
C1338 C 0.33244 0.74596 0.17415 0.0
C1339 C 0.34075 0.72143 0.19153 0.0
C1340 C 0.34274 0.76896 0.16089 0.0
C1341 C 0.36162 0.7679 0.16389 0.0
C1342 C 0.36995 0.74349 0.18222 0.0
C1343 C 0.35961 0.72055 0.19638 0.0
H1344 H 0.66129 0.45409 0.4513 0.0
H1345 H 0.63175 0.43453 0.28544 0.0
H1346 H 0.64132 0.49225 0.47038 0.0
H1347 H 0.61205 0.47357 0.30312 0.0
H1348 H 0.57006 0.53249 0.38005 0.0
H1349 H 0.58887 0.49257 0.36387 0.0
H1350 H 0.63472 0.53616 0.43602 0.0
H1351 H 0.61566 0.57568 0.45444 0.0
C1352 C 0.65053 0.458 0.41865 0.0
C1353 C 0.64818 0.44122 0.36667 0.0
C1354 C 0.63912 0.48013 0.42936 0.0
C1355 C 0.6251 0.48644 0.38802 0.0
C1356 C 0.62253 0.46931 0.3365 0.0
C1357 C 0.63387 0.4469 0.32615 0.0
C1358 C 0.58416 0.53354 0.39256 0.0
C1359 C 0.59134 0.55733 0.41864 0.0
C1360 C 0.59502 0.51063 0.38287 0.0
C1361 C 0.61342 0.5109 0.39849 0.0
C1362 C 0.62057 0.53483 0.42439 0.0
C1363 C 0.60966 0.55765 0.43467 0.0
H1364 H 0.3742 0.61081 0.42062 0.0
H1365 H 0.34037 0.55765 0.31275 0.0
H1366 H 0.39268 0.57179 0.45132 0.0
H1367 H 0.3587 0.51892 0.34365 0.0
H1368 H 0.38482 0.45228 0.46296 0.0
H1369 H 0.36608 0.49201 0.43979 0.0
H1370 H 0.41382 0.53856 0.39927 0.0
H1371 H 0.4325 0.49902 0.42203 0.0
C1372 C 0.37072 0.59087 0.40336 0.0
C1373 C 0.35588 0.58746 0.36381 0.0
C1374 C 0.38131 0.56853 0.42089 0.0
C1375 C 0.37711 0.54223 0.4001 0.0
C1376 C 0.36219 0.53883 0.36102 0.0
C1377 C 0.35179 0.56115 0.34281 0.0
C1378 C 0.3913 0.47104 0.44948 0.0
C1379 C 0.41014 0.47241 0.44399 0.0
C1380 C 0.38057 0.49375 0.43592 0.0
C1381 C 0.38847 0.51844 0.41754 0.0
C1382 C 0.40732 0.51995 0.41373 0.0
C1383 C 0.41801 0.49719 0.4264 0.0
H1384 H 0.67545 0.79321 0.58238 0.0
H1385 H 0.64286 0.8062 0.74527 0.0
H1386 H 0.65812 0.7527 0.55794 0.0
H1387 H 0.62552 0.76526 0.72075 0.0
H1388 H 0.61112 0.67435 0.68338 0.0
H1389 H 0.62989 0.71332 0.71162 0.0
H1390 H 0.62617 0.74343 0.52467 0.0
H1391 H 0.60735 0.70485 0.49666 0.0
C1392 C 0.6646 0.78741 0.61315 0.0
C1393 C 0.6605 0.80309 0.6657 0.0
C1394 C 0.65464 0.76419 0.59896 0.0
C1395 C 0.64043 0.75574 0.63734 0.0
C1396 C 0.63647 0.77112 0.69052 0.0
C1397 C 0.64632 0.79467 0.70431 0.0
C1398 C 0.61453 0.68909 0.64814 0.0
C1399 C 0.6078 0.68641 0.58764 0.0
C1400 C 0.62512 0.71155 0.6645 0.0
C1401 C 0.62948 0.73151 0.62043 0.0
C1402 C 0.62316 0.72835 0.55962 0.0
C1403 C 0.61236 0.70623 0.54358 0.0
H1404 H 0.39199 0.3495 0.71062 0.0
H1405 H 0.39551 0.32339 0.52041 0.0
H1406 H 0.37304 0.31014 0.73438 0.0
H1407 H 0.37654 0.28442 0.54405 0.0
H1408 H 0.32634 0.23529 0.59523 0.0
H1409 H 0.34446 0.27553 0.57586 0.0
H1410 H 0.37647 0.25789 0.73743 0.0
H1411 H 0.3583 0.21718 0.75687 0.0
C1412 C 0.38856 0.33559 0.67374 0.0
C1413 C 0.39523 0.3397 0.61351 0.0
C1414 C 0.37786 0.3129 0.68752 0.0
C1415 C 0.37331 0.29412 0.64113 0.0
C1416 C 0.37968 0.29858 0.58076 0.0
C1417 C 0.39059 0.32093 0.56724 0.0
C1418 C 0.33722 0.23991 0.62682 0.0
C1419 C 0.3409 0.22288 0.67752 0.0
C1420 C 0.34765 0.26298 0.6155 0.0
C1421 C 0.36193 0.26992 0.65499 0.0
C1422 C 0.36548 0.25319 0.70638 0.0
C1423 C 0.35516 0.22978 0.71727 0.0
H1424 H 0.14258 0.9511 0.26647 0.0
H1425 H 0.14186 0.92507 0.45719 0.0
H1426 H 0.12426 0.99046 0.29343 0.0
H1427 H 0.12354 0.96476 0.4842 0.0
H1428 H 0.11097 0.05805 0.51003 0.0
H1429 H 0.12783 0.01635 0.48713 0.0
H1430 H 0.09316 1.00123 0.3309 0.0
H1431 H 0.07638 0.04256 0.35358 0.0
C1432 C 0.13837 0.95361 0.3141 0.0
C1433 C 0.1437 0.93485 0.35959 0.0
C1434 C 0.12784 0.97618 0.32952 0.0
C1435 C 0.1225 0.98081 0.39101 0.0
C1436 C 0.12758 0.96188 0.43651 0.0
C1437 C 0.13792 0.939 0.42089 0.0
C1438 C 0.10695 0.04578 0.47089 0.0
C1439 C 0.09237 0.05373 0.43353 0.0
C1440 C 0.11652 0.02181 0.45804 0.0
C1441 C 0.11185 1.00551 0.40711 0.0
C1442 C 0.09721 1.01344 0.37011 0.0
C1443 C 0.08755 0.03713 0.38332 0.0
H1444 H 0.93163 1.00189 0.43277 0.0
H1445 H 0.88419 0.95318 0.46324 0.0
H1446 H 0.91271 0.04106 0.40915 0.0
H1447 H 0.86518 0.99256 0.43917 0.0
H1448 H 0.84008 0.05892 0.31228 0.0
H1449 H 0.85848 0.02037 0.34414 0.0
H1450 H 0.89055 0.0732 0.45855 0.0
H1451 H 0.87201 0.112 0.4269 0.0
C1452 C 0.91714 0.99955 0.43472 0.0
C1453 C 0.90943 0.97431 0.44964 0.0
C1454 C 0.90629 0.0221 0.42152 0.0
C1455 C 0.88743 0.01997 0.42206 0.0
C1456 C 0.87968 0.99482 0.43781 0.0
C1457 C 0.89056 0.9723 0.45193 0.0
C1458 C 0.8511 0.06245 0.34403 0.0
C1459 C 0.85463 0.0887 0.3666 0.0
C1460 C 0.86153 0.04023 0.36279 0.0
C1461 C 0.87596 0.04364 0.40404 0.0
C1462 C 0.87959 0.0699 0.42642 0.0
C1463 C 0.86896 0.09213 0.40833 0.0
H1464 H 0.11296 0.20131 0.53448 0.0
H1465 H 0.10359 0.17783 0.72381 0.0
H1466 H 0.12888 0.24163 0.56937 0.0
H1467 H 0.11814 0.21903 0.75933 0.0
H1468 H 0.15584 0.28657 0.81302 0.0
H1469 H 0.14305 0.24409 0.77682 0.0
H1470 H 0.12587 0.28401 0.60843 0.0
H1471 H 0.14003 0.32576 0.64324 0.0
C1472 C 0.11433 0.20485 0.58369 0.0
C1473 C 0.10718 0.18631 0.62636 0.0
C1474 C 0.12326 0.22823 0.60396 0.0
C1475 C 0.12477 0.23418 0.66757 0.0
C1476 C 0.11771 0.21525 0.7101 0.0
C1477 C 0.10926 0.19151 0.68976 0.0
C1478 C 0.14929 0.28617 0.76829 0.0
C1479 C 0.14888 0.30949 0.73105 0.0
C1480 C 0.14181 0.26176 0.74744 0.0
C1481 C 0.13324 0.26017 0.68934 0.0
C1482 C 0.13267 0.28386 0.65264 0.0
C1483 C 0.14062 0.30804 0.67284 0.0
H1484 H 0.86943 0.70469 0.72135 0.0
H1485 H 0.82149 0.75371 0.70152 0.0
H1486 H 0.88797 0.74417 0.69524 0.0
H1487 H 0.83995 0.793 0.67582 0.0
H1488 H 0.88082 0.86352 0.68628 0.0
H1489 H 0.86291 0.82477 0.72118 0.0
H1490 H 0.89287 0.77212 0.59901 0.0
H1491 H 0.91067 0.81064 0.56394 0.0
C1492 C 0.86287 0.72393 0.71217 0.0
C1493 C 0.84399 0.72601 0.71324 0.0
C1494 C 0.87347 0.74649 0.69681 0.0
C1495 C 0.86543 0.77171 0.68317 0.0
C1496 C 0.84658 0.77396 0.68644 0.0
C1497 C 0.836 0.75136 0.70087 0.0
C1498 C 0.88353 0.84371 0.66664 0.0
C1499 C 0.8971 0.84031 0.62189 0.0
C1500 C 0.87326 0.82151 0.68664 0.0
C1501 C 0.87652 0.79532 0.66308 0.0
C1502 C 0.89016 0.79194 0.61864 0.0
C1503 C 0.90023 0.81414 0.59805 0.0
H1504 H 0.10834 0.55873 0.01063 0.0
H1505 H 0.07531 0.54369 0.85004 0.0
H1506 H 0.12599 0.51778 0.98735 0.0
H1507 H 0.09291 0.50317 0.8269 0.0
H1508 H 0.14328 0.45471 0.76508 0.0
H1509 H 0.12459 0.49364 0.79227 0.0
H1510 H 0.12222 0.46589 0.98135 0.0
H1511 H 0.1409 0.42656 0.95405 0.0
C1512 C 0.10484 0.54674 0.97045 0.0
C1513 C 0.09044 0.55459 0.93212 0.0
C1514 C 0.11487 0.5232 0.95737 0.0
C1515 C 0.11087 0.50724 0.90518 0.0
C1516 C 0.09645 0.51511 0.86711 0.0
C1517 C 0.08632 0.53834 0.88058 0.0
C1518 C 0.13866 0.45669 0.81239 0.0
C1519 C 0.14358 0.4374 0.85729 0.0
C1520 C 0.1279 0.47902 0.82794 0.0
C1521 C 0.12195 0.48294 0.88903 0.0
C1522 C 0.12672 0.46356 0.93399 0.0
C1523 C 0.13727 0.4409 0.91818 0.0
H1524 H 0.85956 0.60385 0.96749 0.0
H1525 H 0.85791 0.57041 0.78324 0.0
H1526 H 0.87496 0.56323 1.00414 0.0
H1527 H 0.87416 0.53041 0.81872 0.0
H1528 H 0.88638 0.44943 0.90931 0.0
H1529 H 0.87105 0.49045 0.87414 0.0
H1530 H 0.90111 0.53767 1.00705 0.0
H1531 H 0.91559 0.49651 0.04406 0.0
C1532 C 0.86287 0.58808 0.93447 0.0
C1533 C 0.85749 0.59039 0.87243 0.0
C1534 C 0.87176 0.56468 0.95545 0.0
C1535 C 0.87579 0.54314 0.9147 0.0
C1536 C 0.87094 0.54605 0.8521 0.0
C1537 C 0.86178 0.56921 0.83144 0.0
C1538 C 0.88959 0.46858 0.9312 0.0
C1539 C 0.90213 0.46962 0.97972 0.0
C1540 C 0.88093 0.49225 0.91066 0.0
C1541 C 0.88481 0.51771 0.93733 0.0
C1542 C 0.89742 0.51859 0.98589 0.0
C1543 C 0.90583 0.49489 1.00705 0.0
H1544 H 0.15992 0.78067 0.3032 0.0
H1545 H 0.1373 0.82489 0.14965 0.0
H1546 H 0.14593 0.73924 0.26642 0.0
H1547 H 0.122 0.78398 0.11488 0.0
H1548 H 0.10631 0.70316 0.03525 0.0
H1549 H 0.12328 0.74274 0.06826 0.0
H1550 H 0.12061 0.7144 0.25748 0.0
H1551 H 0.10502 0.67397 0.22326 0.0
C1552 C 0.15165 0.78159 0.262 0.0
C1553 C 0.14966 0.80608 0.22946 0.0
C1554 C 0.14346 0.75776 0.24091 0.0
C1555 C 0.13259 0.75782 0.18746 0.0
C1556 C 0.13051 0.7826 0.15533 0.0
C1557 C 0.13914 0.80628 0.17558 0.0
C1558 C 0.10963 0.70525 0.08377 0.0
C1559 C 0.10429 0.68534 0.12651 0.0
C1560 C 0.1192 0.72823 0.10306 0.0
C1561 C 0.12331 0.73238 0.16602 0.0
C1562 C 0.11815 0.71208 0.20849 0.0
C1563 C 0.10903 0.68876 0.18889 0.0
H1564 H 0.81808 0.25073 0.18303 0.0
H1565 H 0.86627 0.20256 0.20598 0.0
H1566 H 0.8364 0.29038 0.15833 0.0
H1567 H 0.88463 0.24233 0.18053 0.0
H1568 H 0.9069 0.30809 0.04672 0.0
H1569 H 0.88899 0.26988 0.08205 0.0
H1570 H 0.8597 0.3227 0.20565 0.0
H1571 H 0.87794 0.36132 0.1708 0.0
C1572 C 0.83261 0.24863 0.18313 0.0
C1573 C 0.84072 0.2234 0.19609 0.0
C1574 C 0.84309 0.27143 0.16935 0.0
C1575 C 0.86196 0.26951 0.16719 0.0
C1576 C 0.87011 0.24441 0.18135 0.0
C1577 C 0.85961 0.22166 0.1962 0.0
C1578 C 0.89663 0.31175 0.08133 0.0
C1579 C 0.89386 0.33794 0.10574 0.0
C1580 C 0.88646 0.28969 0.102 0.0
C1581 C 0.87301 0.29316 0.14697 0.0
C1582 C 0.86997 0.31938 0.17084 0.0
C1583 C 0.8804 0.3415 0.15087 0.0
loop_
_geom_bond_atom_site_label_1
_geom_bond_atom_site_label_2
_geom_bond_distance
_geom_bond_site_symmetry_2
_ccdc_geom_bond_type
O0 Tb1 2.292 . S
O0 C3 1.255 . S
Tb1 O0 2.292 . S
Tb1 O17 2.326 . S
Tb1 O19 2.500 . S
Tb1 O20 2.473 . S
Tb1 O23 2.324 . S
Eu2 O6 2.292 . S
Eu2 C7 2.852 . S
Eu2 O18 2.324 1_556 S
Eu2 O22 2.328 . S
Eu2 O24 2.500 . S
Eu2 O25 2.473 . S
C3 O0 1.255 . S
C3 O4 1.247 . S
O4 C3 1.247 . S
C5 O17 1.242 . S
C5 O18 1.258 . S
O6 Eu2 2.292 . S
O6 C8 1.255 . S
C7 Eu2 2.852 . S
C7 C11 1.503 . S
C7 O24 1.273 . S
C7 O25 1.257 . S
C8 O6 1.255 . S
C8 O9 1.247 1_556 S
O9 C8 1.247 1_554 S
C10 O22 1.236 1_554 S
C10 O23 1.258 . S
C11 C7 1.503 . S
C11 C12 1.379 . S
C11 C16 1.392 . S
C12 C11 1.379 . S
C12 C13 1.404 . S
C12 H26 0.929 . S
C13 C12 1.404 . S
C13 C14 1.389 . S
C14 C13 1.389 . S
C14 C15 1.399 . S
C14 H27 0.931 . S
C15 C14 1.399 . S
C15 C16 1.390 . S
C16 C11 1.392 . S
C16 C15 1.390 . S
C16 H28 0.929 . S
O17 Tb1 2.326 . S
O17 C5 1.242 . S
O18 Eu2 2.324 1_554 S
O18 C5 1.258 . S
O19 Tb1 2.500 . S
O19 C21 1.273 . S
O20 Tb1 2.473 . S
O20 C21 1.257 . S
C21 O19 1.273 . S
C21 O20 1.257 . S
O22 Eu2 2.328 . S
O22 C10 1.236 1_556 S
O23 Tb1 2.324 . S
O23 C10 1.258 . S
O24 Eu2 2.500 . S
O24 C7 1.273 . S
O25 Eu2 2.473 . S
O25 C7 1.257 . S
H26 C12 0.929 . S
H27 C14 0.931 . S
H28 C16 0.929 . S
O29 Tb30 2.292 . S
O29 C32 1.255 . S
Tb30 O29 2.292 . S
Tb30 O46 2.326 . S
Tb30 O48 2.500 . S
Tb30 O49 2.473 . S
Tb30 O52 2.324 . S
Eu31 O35 2.292 . S
Eu31 C36 2.852 . S
Eu31 O47 2.324 1_556 S
Eu31 O51 2.328 . S
Eu31 O53 2.500 . S
Eu31 O54 2.473 . S
C32 O29 1.255 . S
C32 O33 1.247 . S
O33 C32 1.247 . S
C34 O46 1.242 . S
C34 O47 1.258 . S
O35 Eu31 2.292 . S
O35 C37 1.255 . S
C36 Eu31 2.852 . S
C36 C40 1.503 . S
C36 O53 1.273 . S
C36 O54 1.257 . S
C37 O35 1.255 . S
C37 O38 1.247 1_556 S
O38 C37 1.247 1_554 S
C39 O51 1.236 1_554 S
C39 O52 1.258 . S
C40 C36 1.503 . S
C40 C41 1.379 . S
C40 C45 1.392 . S
C41 C40 1.379 . S
C41 C42 1.404 . S
C41 H55 0.929 . S
C42 C41 1.404 . S
C42 C43 1.389 . S
C43 C42 1.389 . S
C43 C44 1.399 . S
C43 H56 0.931 . S
C44 C43 1.399 . S
C44 C45 1.390 . S
C45 C40 1.392 . S
C45 C44 1.390 . S
C45 H57 0.929 . S
O46 Tb30 2.326 . S
O46 C34 1.242 . S
O47 Eu31 2.324 1_554 S
O47 C34 1.258 . S
O48 Tb30 2.500 . S
O48 C50 1.273 . S
O49 Tb30 2.473 . S
O49 C50 1.257 . S
C50 O48 1.273 . S
C50 O49 1.257 . S
O51 Eu31 2.328 . S
O51 C39 1.236 1_556 S
O52 Tb30 2.324 . S
O52 C39 1.258 . S
O53 Eu31 2.500 . S
O53 C36 1.273 . S
O54 Eu31 2.473 . S
O54 C36 1.257 . S
H55 C41 0.929 . S
H56 C43 0.931 . S
H57 C45 0.929 . S
O58 Tb59 2.292 . S
O58 C61 1.255 . S
Tb59 O58 2.292 . S
Tb59 O75 2.326 . S
Tb59 O77 2.500 . S
Tb59 O78 2.473 . S
Tb59 O81 2.324 . S
Eu60 O64 2.292 . S
Eu60 C65 2.852 . S
Eu60 O76 2.324 . S
Eu60 O80 2.326 . S
Eu60 O82 2.500 . S
Eu60 O83 2.473 . S
C61 O58 1.255 . S
C61 O62 1.247 . S
O62 C61 1.247 . S
C63 O75 1.242 . S
C63 O76 1.258 . S
O64 Eu60 2.292 . S
O64 C66 1.255 . S
C65 Eu60 2.852 . S
C65 C69 1.503 . S
C65 O82 1.273 . S
C65 O83 1.257 . S
C66 O64 1.255 . S
C66 O67 1.247 . S
O67 C66 1.247 . S
C68 O80 1.242 . S
C68 O81 1.258 . S
C69 C65 1.503 . S
C69 C70 1.379 . S
C69 C74 1.392 . S
C70 C69 1.379 . S
C70 C71 1.404 . S
C70 H84 0.929 . S
C71 C70 1.404 . S
C71 C72 1.389 1_554 S
C72 C71 1.389 1_556 S
C72 C73 1.399 . S
C72 H85 0.931 . S
C73 C72 1.399 . S
C73 C74 1.390 1_556 S
C74 C69 1.392 . S
C74 C73 1.390 1_554 S
C74 H86 0.929 . S
O75 Tb59 2.326 . S
O75 C63 1.242 . S
O76 Eu60 2.324 . S
O76 C63 1.258 . S
O77 Tb59 2.500 . S
O77 C79 1.273 . S
O78 Tb59 2.473 . S
O78 C79 1.257 . S
C79 O77 1.273 . S
C79 O78 1.257 . S
O80 Eu60 2.326 . S
O80 C68 1.242 . S
O81 Tb59 2.324 . S
O81 C68 1.258 . S
O82 Eu60 2.500 . S
O82 C65 1.273 . S
O83 Eu60 2.473 . S
O83 C65 1.257 . S
H84 C70 0.929 . S
H85 C72 0.931 . S
H86 C74 0.929 . S
O87 Tb88 2.292 . S
O87 C90 1.255 . S
Tb88 O87 2.292 . S
Tb88 O104 2.326 . S
Tb88 O106 2.500 . S
Tb88 O107 2.473 . S
Tb88 O110 2.324 . S
Eu89 O93 2.292 . S
Eu89 C94 2.852 . S
Eu89 O105 2.324 . S
Eu89 O109 2.326 . S
Eu89 O111 2.500 . S
Eu89 O112 2.473 . S
C90 O87 1.255 . S
C90 O91 1.247 . S
O91 C90 1.247 . S
C92 O104 1.242 . S
C92 O105 1.258 . S
O93 Eu89 2.292 . S
O93 C95 1.255 . S
C94 Eu89 2.852 . S
C94 C98 1.503 . S
C94 O111 1.273 . S
C94 O112 1.257 . S
C95 O93 1.255 . S
C95 O96 1.247 . S
O96 C95 1.247 . S
C97 O109 1.242 . S
C97 O110 1.258 . S
C98 C94 1.503 . S
C98 C99 1.379 . S
C98 C103 1.392 . S
C99 C98 1.379 . S
C99 C100 1.404 . S
C99 H113 0.929 . S
C100 C99 1.404 . S
C100 C101 1.389 1_554 S
C101 C100 1.389 1_556 S
C101 C102 1.399 . S
C101 H114 0.931 . S
C102 C101 1.399 . S
C102 C103 1.390 1_556 S
C103 C98 1.392 . S
C103 C102 1.390 1_554 S
C103 H115 0.929 . S
O104 Tb88 2.326 . S
O104 C92 1.242 . S
O105 Eu89 2.324 . S
O105 C92 1.258 . S
O106 Tb88 2.500 . S
O106 C108 1.273 . S
O107 Tb88 2.473 . S
O107 C108 1.257 . S
C108 O106 1.273 . S
C108 O107 1.257 . S
O109 Eu89 2.326 . S
O109 C97 1.242 . S
O110 Tb88 2.324 . S
O110 C97 1.258 . S
O111 Eu89 2.500 . S
O111 C94 1.273 . S
O112 Eu89 2.473 . S
O112 C94 1.257 . S
H113 C99 0.929 . S
H114 C101 0.931 . S
H115 C103 0.929 . S
O116 Tb117 2.292 . S
O116 C119 1.255 . S
Tb117 O116 2.292 . S
Tb117 O133 2.326 . S
Tb117 O135 2.500 . S
Tb117 O136 2.473 . S
Tb117 O139 2.324 . S
Eu118 O122 2.292 . S
Eu118 C123 2.852 . S
Eu118 O134 2.324 . S
Eu118 O138 2.326 . S
Eu118 O140 2.500 . S
Eu118 O141 2.473 . S
C119 O116 1.255 . S
C119 O120 1.247 . S
O120 C119 1.247 . S
C121 O133 1.242 . S
C121 O134 1.258 . S
O122 Eu118 2.292 . S
O122 C124 1.255 . S
C123 Eu118 2.852 . S
C123 C127 1.503 . S
C123 O140 1.273 . S
C123 O141 1.257 . S
C124 O122 1.255 . S
C124 O125 1.247 . S
O125 C124 1.247 . S
C126 O138 1.242 . S
C126 O139 1.258 . S
C127 C123 1.503 . S
C127 C128 1.379 . S
C127 C132 1.392 . S
C128 C127 1.379 . S
C128 C129 1.404 . S
C128 H142 0.929 . S
C129 C128 1.404 . S
C129 C130 1.389 . S
C130 C129 1.389 . S
C130 C131 1.399 . S
C130 H143 0.931 . S
C131 C130 1.399 . S
C131 C132 1.390 . S
C132 C127 1.392 . S
C132 C131 1.390 . S
C132 H144 0.929 . S
O133 Tb117 2.326 . S
O133 C121 1.242 . S
O134 Eu118 2.324 . S
O134 C121 1.258 . S
O135 Tb117 2.500 . S
O135 C137 1.273 . S
O136 Tb117 2.473 . S
O136 C137 1.257 . S
C137 O135 1.273 . S
C137 O136 1.257 . S
O138 Eu118 2.326 . S
O138 C126 1.242 . S
O139 Tb117 2.324 . S
O139 C126 1.258 . S
O140 Eu118 2.500 . S
O140 C123 1.273 . S
O141 Eu118 2.473 . S
O141 C123 1.257 . S
H142 C128 0.929 . S
H143 C130 0.931 . S
H144 C132 0.929 . S
O145 Tb146 2.292 . S
O145 C148 1.255 . S
Tb146 O145 2.292 . S
Tb146 O162 2.326 . S
Tb146 O164 2.500 . S
Tb146 O165 2.473 . S
Tb146 O168 2.324 . S
Eu147 O151 2.292 . S
Eu147 C152 2.852 . S
Eu147 O163 2.324 . S
Eu147 O167 2.326 . S
Eu147 O169 2.500 . S
Eu147 O170 2.473 . S
C148 O145 1.255 . S
C148 O149 1.247 . S
O149 C148 1.247 . S
C150 O162 1.242 . S
C150 O163 1.258 . S
O151 Eu147 2.292 . S
O151 C153 1.255 . S
C152 Eu147 2.852 . S
C152 C156 1.503 . S
C152 O169 1.273 . S
C152 O170 1.257 . S
C153 O151 1.255 . S
C153 O154 1.247 . S
O154 C153 1.247 . S
C155 O167 1.242 . S
C155 O168 1.258 . S
C156 C152 1.503 . S
C156 C157 1.379 . S
C156 C161 1.392 . S
C157 C156 1.379 . S
C157 C158 1.404 . S
C157 H171 0.929 . S
C158 C157 1.404 . S
C158 C159 1.389 . S
C159 C158 1.389 . S
C159 C160 1.399 . S
C159 H172 0.931 . S
C160 C159 1.399 . S
C160 C161 1.390 . S
C161 C156 1.392 . S
C161 C160 1.390 . S
C161 H173 0.929 . S
O162 Tb146 2.326 . S
O162 C150 1.242 . S
O163 Eu147 2.324 . S
O163 C150 1.258 . S
O164 Tb146 2.500 . S
O164 C166 1.273 . S
O165 Tb146 2.473 . S
O165 C166 1.257 . S
C166 O164 1.273 . S
C166 O165 1.257 . S
O167 Eu147 2.326 . S
O167 C155 1.242 . S
O168 Tb146 2.324 . S
O168 C155 1.258 . S
O169 Eu147 2.500 . S
O169 C152 1.273 . S
O170 Eu147 2.473 . S
O170 C152 1.257 . S
H171 C157 0.929 . S
H172 C159 0.931 . S
H173 C161 0.929 . S
O174 Tb175 2.292 . S
O174 C177 1.255 . S
Tb175 O174 2.292 . S
Tb175 O191 2.326 . S
Tb175 O193 2.500 . S
Tb175 O194 2.473 . S
Tb175 O197 2.324 . S
Eu176 O180 2.292 . S
Eu176 C181 2.852 . S
Eu176 O192 2.324 . S
Eu176 O196 2.326 . S
Eu176 O198 2.500 . S
Eu176 O199 2.473 . S
C177 O174 1.255 . S
C177 O178 1.247 . S
O178 C177 1.247 . S
C179 O191 1.242 . S
C179 O192 1.258 . S
O180 Eu176 2.292 . S
O180 C182 1.255 . S
C181 Eu176 2.852 . S
C181 C185 1.503 . S
C181 O198 1.273 . S
C181 O199 1.257 . S
C182 O180 1.255 . S
C182 O183 1.247 . S
O183 C182 1.247 . S
C184 O196 1.242 . S
C184 O197 1.258 . S
C185 C181 1.503 . S
C185 C186 1.379 . S
C185 C190 1.392 . S
C186 C185 1.379 . S
C186 C187 1.404 . S
C186 H200 0.929 . S
C187 C186 1.404 . S
C187 C188 1.389 . S
C188 C187 1.389 . S
C188 C189 1.399 . S
C188 H201 0.931 . S
C189 C188 1.399 . S
C189 C190 1.390 . S
C190 C185 1.392 . S
C190 C189 1.390 . S
C190 H202 0.929 . S
O191 Tb175 2.326 . S
O191 C179 1.242 . S
O192 Eu176 2.324 . S
O192 C179 1.258 . S
O193 Tb175 2.500 . S
O193 C195 1.273 . S
O194 Tb175 2.473 . S
O194 C195 1.257 . S
C195 O193 1.273 . S
C195 O194 1.257 . S
O196 Eu176 2.326 . S
O196 C184 1.242 . S
O197 Tb175 2.324 . S
O197 C184 1.258 . S
O198 Eu176 2.500 . S
O198 C181 1.273 . S
O199 Eu176 2.473 . S
O199 C181 1.257 . S
H200 C186 0.929 . S
H201 C188 0.931 . S
H202 C190 0.929 . S
O203 Tb204 2.292 . S
O203 C206 1.255 . S
Tb204 O203 2.292 . S
Tb204 O220 2.326 . S
Tb204 O222 2.500 . S
Tb204 O223 2.473 . S
Tb204 O226 2.324 . S
Eu205 O209 2.292 . S
Eu205 C210 2.852 . S
Eu205 O221 2.324 . S
Eu205 O225 2.326 . S
Eu205 O227 2.500 . S
Eu205 O228 2.473 . S
C206 O203 1.255 . S
C206 O207 1.247 . S
O207 C206 1.247 . S
C208 O220 1.242 . S
C208 O221 1.258 . S
O209 Eu205 2.292 . S
O209 C211 1.255 . S
C210 Eu205 2.852 . S
C210 C214 1.503 . S
C210 O227 1.273 . S
C210 O228 1.257 . S
C211 O209 1.255 . S
C211 O212 1.247 . S
O212 C211 1.247 . S
C213 O225 1.242 . S
C213 O226 1.258 . S
C214 C210 1.503 . S
C214 C215 1.379 . S
C214 C219 1.392 . S
C215 C214 1.379 . S
C215 C216 1.404 . S
C215 H229 0.929 . S
C216 C215 1.404 . S
C216 C217 1.389 . S
C217 C216 1.389 . S
C217 C218 1.399 . S
C217 H230 0.931 . S
C218 C217 1.399 . S
C218 C219 1.390 . S
C219 C214 1.392 . S
C219 C218 1.390 . S
C219 H231 0.929 . S
O220 Tb204 2.326 . S
O220 C208 1.242 . S
O221 Eu205 2.324 . S
O221 C208 1.258 . S
O222 Tb204 2.500 . S
O222 C224 1.273 . S
O223 Tb204 2.473 . S
O223 C224 1.257 . S
C224 O222 1.273 . S
C224 O223 1.257 . S
O225 Eu205 2.326 . S
O225 C213 1.242 . S
O226 Tb204 2.324 . S
O226 C213 1.258 . S
O227 Eu205 2.500 . S
O227 C210 1.273 . S
O228 Eu205 2.473 . S
O228 C210 1.257 . S
H229 C215 0.929 . S
H230 C217 0.931 . S
H231 C219 0.929 . S
O232 Tb233 2.292 . S
O232 C235 1.255 . S
Tb233 O232 2.292 . S
Tb233 O249 2.326 . S
Tb233 O251 2.500 . S
Tb233 O252 2.473 . S
Tb233 O255 2.324 . S
Eu234 O238 2.292 . S
Eu234 C239 2.852 . S
Eu234 O250 2.324 . S
Eu234 O254 2.326 . S
Eu234 O256 2.500 . S
Eu234 O257 2.473 . S
C235 O232 1.255 . S
C235 O236 1.247 . S
O236 C235 1.247 . S
C237 O249 1.242 . S
C237 O250 1.258 . S
O238 Eu234 2.292 . S
O238 C240 1.255 . S
C239 Eu234 2.852 . S
C239 C243 1.503 . S
C239 O256 1.273 . S
C239 O257 1.257 . S
C240 O238 1.255 . S
C240 O241 1.247 . S
O241 C240 1.247 . S
C242 O254 1.242 . S
C242 O255 1.258 . S
C243 C239 1.503 . S
C243 C244 1.379 . S
C243 C248 1.392 . S
C244 C243 1.379 . S
C244 C245 1.404 . S
C244 H258 0.929 . S
C245 C244 1.404 . S
C245 C246 1.389 . S
C246 C245 1.389 . S
C246 C247 1.399 . S
C246 H259 0.931 . S
C247 C246 1.399 . S
C247 C248 1.390 . S
C248 C243 1.392 . S
C248 C247 1.390 . S
C248 H260 0.929 . S
O249 Tb233 2.326 . S
O249 C237 1.242 . S
O250 Eu234 2.324 . S
O250 C237 1.258 . S
O251 Tb233 2.500 . S
O251 C253 1.273 . S
O252 Tb233 2.473 . S
O252 C253 1.257 . S
C253 O251 1.273 . S
C253 O252 1.257 . S
O254 Eu234 2.326 . S
O254 C242 1.242 . S
O255 Tb233 2.324 . S
O255 C242 1.258 . S
O256 Eu234 2.500 . S
O256 C239 1.273 . S
O257 Eu234 2.473 . S
O257 C239 1.257 . S
H258 C244 0.929 . S
H259 C246 0.931 . S
H260 C248 0.929 . S
O261 Tb262 2.292 . S
O261 C264 1.255 . S
Tb262 O261 2.292 . S
Tb262 O278 2.326 . S
Tb262 O280 2.500 . S
Tb262 O281 2.473 . S
Tb262 O284 2.324 . S
Eu263 O267 2.292 . S
Eu263 C268 2.852 . S
Eu263 O279 2.324 . S
Eu263 O283 2.326 . S
Eu263 O285 2.500 . S
Eu263 O286 2.473 . S
C264 O261 1.255 . S
C264 O265 1.247 . S
O265 C264 1.247 . S
C266 O278 1.242 . S
C266 O279 1.258 . S
O267 Eu263 2.292 . S
O267 C269 1.255 . S
C268 Eu263 2.852 . S
C268 C272 1.503 . S
C268 O285 1.273 . S
C268 O286 1.257 . S
C269 O267 1.255 . S
C269 O270 1.247 . S
O270 C269 1.247 . S
C271 O283 1.242 . S
C271 O284 1.258 . S
C272 C268 1.503 . S
C272 C273 1.379 . S
C272 C277 1.392 . S
C273 C272 1.379 . S
C273 C274 1.404 . S
C273 H287 0.929 . S
C274 C273 1.404 . S
C274 C275 1.389 . S
C275 C274 1.389 . S
C275 C276 1.399 . S
C275 H288 0.931 . S
C276 C275 1.399 . S
C276 C277 1.390 . S
C277 C272 1.392 . S
C277 C276 1.390 . S
C277 H289 0.929 . S
O278 Tb262 2.326 . S
O278 C266 1.242 . S
O279 Eu263 2.324 . S
O279 C266 1.258 . S
O280 Tb262 2.500 . S
O280 C282 1.273 . S
O281 Tb262 2.473 . S
O281 C282 1.257 . S
C282 O280 1.273 . S
C282 O281 1.257 . S
O283 Eu263 2.326 . S
O283 C271 1.242 . S
O284 Tb262 2.324 . S
O284 C271 1.258 . S
O285 Eu263 2.500 . S
O285 C268 1.273 . S
O286 Eu263 2.473 . S
O286 C268 1.257 . S
H287 C273 0.929 . S
H288 C275 0.931 . S
H289 C277 0.929 . S
O290 Tb291 2.292 . S
O290 C293 1.255 . S
Tb291 O290 2.292 . S
Tb291 O307 2.326 . S
Tb291 O309 2.500 . S
Tb291 O310 2.473 . S
Tb291 O313 2.324 . S
Eu292 O296 2.292 . S
Eu292 C297 2.852 . S
Eu292 O308 2.324 . S
Eu292 O312 2.326 . S
Eu292 O314 2.500 . S
Eu292 O315 2.473 . S
C293 O290 1.255 . S
C293 O294 1.247 . S
O294 C293 1.247 . S
C295 O307 1.242 . S
C295 O308 1.258 . S
O296 Eu292 2.292 . S
O296 C298 1.255 . S
C297 Eu292 2.852 . S
C297 C301 1.503 . S
C297 O314 1.273 . S
C297 O315 1.257 . S
C298 O296 1.255 . S
C298 O299 1.247 . S
O299 C298 1.247 . S
C300 O312 1.242 . S
C300 O313 1.258 . S
C301 C297 1.503 . S
C301 C302 1.379 . S
C301 C306 1.392 . S
C302 C301 1.379 . S
C302 C303 1.404 . S
C302 H316 0.929 . S
C303 C302 1.404 . S
C303 C304 1.389 . S
C304 C303 1.389 . S
C304 C305 1.399 . S
C304 H317 0.931 . S
C305 C304 1.399 . S
C305 C306 1.390 . S
C306 C301 1.392 . S
C306 C305 1.390 . S
C306 H318 0.929 . S
O307 Tb291 2.326 . S
O307 C295 1.242 . S
O308 Eu292 2.324 . S
O308 C295 1.258 . S
O309 Tb291 2.500 . S
O309 C311 1.273 . S
O310 Tb291 2.473 . S
O310 C311 1.257 . S
C311 O309 1.273 . S
C311 O310 1.257 . S
O312 Eu292 2.326 . S
O312 C300 1.242 . S
O313 Tb291 2.324 . S
O313 C300 1.258 . S
O314 Eu292 2.500 . S
O314 C297 1.273 . S
O315 Eu292 2.473 . S
O315 C297 1.257 . S
H316 C302 0.929 . S
H317 C304 0.931 . S
H318 C306 0.929 . S
O319 Tb320 2.292 . S
O319 C322 1.255 . S
Tb320 O319 2.292 . S
Tb320 O336 2.326 . S
Tb320 O338 2.500 . S
Tb320 O339 2.473 . S
Tb320 O342 2.324 . S
Eu321 O325 2.292 . S
Eu321 C326 2.852 . S
Eu321 O337 2.324 . S
Eu321 O341 2.326 . S
Eu321 O343 2.500 . S
Eu321 O344 2.473 . S
C322 O319 1.255 . S
C322 O323 1.247 . S
O323 C322 1.247 . S
C324 O336 1.242 . S
C324 O337 1.258 . S
O325 Eu321 2.292 . S
O325 C327 1.255 . S
C326 Eu321 2.852 . S
C326 C330 1.503 . S
C326 O343 1.273 . S
C326 O344 1.257 . S
C327 O325 1.255 . S
C327 O328 1.247 . S
O328 C327 1.247 . S
C329 O341 1.242 . S
C329 O342 1.258 . S
C330 C326 1.503 . S
C330 C331 1.379 . S
C330 C335 1.392 . S
C331 C330 1.379 . S
C331 C332 1.404 . S
C331 H345 0.929 . S
C332 C331 1.404 . S
C332 C333 1.389 . S
C333 C332 1.389 . S
C333 C334 1.399 . S
C333 H346 0.931 . S
C334 C333 1.399 . S
C334 C335 1.390 . S
C335 C330 1.392 . S
C335 C334 1.390 . S
C335 H347 0.929 . S
O336 Tb320 2.326 . S
O336 C324 1.242 . S
O337 Eu321 2.324 . S
O337 C324 1.258 . S
O338 Tb320 2.500 . S
O338 C340 1.273 . S
O339 Tb320 2.473 . S
O339 C340 1.257 . S
C340 O338 1.273 . S
C340 O339 1.257 . S
O341 Eu321 2.326 . S
O341 C329 1.242 . S
O342 Tb320 2.324 . S
O342 C329 1.258 . S
O343 Eu321 2.500 . S
O343 C326 1.273 . S
O344 Eu321 2.473 . S
O344 C326 1.257 . S
H345 C331 0.929 . S
H346 C333 0.931 . S
H347 C335 0.929 . S
O348 Tb349 2.292 . S
O348 C351 1.255 . S
Tb349 O348 2.292 . S
Tb349 O365 2.326 . S
Tb349 O367 2.500 . S
Tb349 O368 2.473 . S
Tb349 O371 2.324 . S
Eu350 O354 2.292 . S
Eu350 C355 2.852 . S
Eu350 O366 2.324 1_556 S
Eu350 O370 2.328 . S
Eu350 O372 2.500 . S
Eu350 O373 2.473 . S
C351 O348 1.255 . S
C351 O352 1.247 . S
O352 C351 1.247 . S
C353 O365 1.242 . S
C353 O366 1.258 . S
O354 Eu350 2.292 . S
O354 C356 1.255 . S
C355 Eu350 2.852 . S
C355 C359 1.503 . S
C355 O372 1.273 . S
C355 O373 1.257 . S
C356 O354 1.255 . S
C356 O357 1.247 1_556 S
O357 C356 1.247 1_554 S
C358 O370 1.236 1_554 S
C358 O371 1.258 . S
C359 C355 1.503 . S
C359 C360 1.379 . S
C359 C364 1.392 . S
C360 C359 1.379 . S
C360 C361 1.404 . S
C360 H374 0.929 . S
C361 C360 1.404 . S
C361 C362 1.389 . S
C362 C361 1.389 . S
C362 C363 1.399 . S
C362 H375 0.931 . S
C363 C362 1.399 . S
C363 C364 1.390 . S
C364 C359 1.392 . S
C364 C363 1.390 . S
C364 H376 0.929 . S
O365 Tb349 2.326 . S
O365 C353 1.242 . S
O366 Eu350 2.324 1_554 S
O366 C353 1.258 . S
O367 Tb349 2.500 . S
O367 C369 1.273 . S
O368 Tb349 2.473 . S
O368 C369 1.257 . S
C369 O367 1.273 . S
C369 O368 1.257 . S
O370 Eu350 2.328 . S
O370 C358 1.236 1_556 S
O371 Tb349 2.324 . S
O371 C358 1.258 . S
O372 Eu350 2.500 . S
O372 C355 1.273 . S
O373 Eu350 2.473 . S
O373 C355 1.257 . S
H374 C360 0.929 . S
H375 C362 0.931 . S
H376 C364 0.929 . S
O377 Tb378 2.292 . S
O377 C380 1.255 . S
Tb378 O377 2.292 . S
Tb378 O394 2.326 . S
Tb378 O396 2.500 . S
Tb378 O397 2.473 . S
Tb378 O400 2.324 . S
Eu379 O383 2.292 . S
Eu379 C384 2.852 . S
Eu379 O395 2.324 1_556 S
Eu379 O399 2.328 . S
Eu379 O401 2.500 . S
Eu379 O402 2.473 . S
C380 O377 1.255 . S
C380 O381 1.247 . S
O381 C380 1.247 . S
C382 O394 1.242 . S
C382 O395 1.258 . S
O383 Eu379 2.292 . S
O383 C385 1.255 . S
C384 Eu379 2.852 . S
C384 C388 1.503 . S
C384 O401 1.273 . S
C384 O402 1.257 . S
C385 O383 1.255 . S
C385 O386 1.247 1_556 S
O386 C385 1.247 1_554 S
C387 O399 1.236 1_554 S
C387 O400 1.258 . S
C388 C384 1.503 . S
C388 C389 1.379 . S
C388 C393 1.392 . S
C389 C388 1.379 . S
C389 C390 1.404 . S
C389 H403 0.929 . S
C390 C389 1.404 . S
C390 C391 1.389 . S
C391 C390 1.389 . S
C391 C392 1.399 . S
C391 H404 0.931 . S
C392 C391 1.399 . S
C392 C393 1.390 . S
C393 C388 1.392 . S
C393 C392 1.390 . S
C393 H405 0.929 . S
O394 Tb378 2.326 . S
O394 C382 1.242 . S
O395 Eu379 2.324 1_554 S
O395 C382 1.258 . S
O396 Tb378 2.500 . S
O396 C398 1.273 . S
O397 Tb378 2.473 . S
O397 C398 1.257 . S
C398 O396 1.273 . S
C398 O397 1.257 . S
O399 Eu379 2.328 . S
O399 C387 1.236 1_556 S
O400 Tb378 2.324 . S
O400 C387 1.258 . S
O401 Eu379 2.500 . S
O401 C384 1.273 . S
O402 Eu379 2.473 . S
O402 C384 1.257 . S
H403 C389 0.929 . S
H404 C391 0.931 . S
H405 C393 0.929 . S
O406 Tb407 2.292 . S
O406 C409 1.255 . S
Tb407 O406 2.292 . S
Tb407 O423 2.326 . S
Tb407 O425 2.500 . S
Tb407 O426 2.473 . S
Tb407 O429 2.324 . S
Eu408 O412 2.292 . S
Eu408 C413 2.852 . S
Eu408 O424 2.324 . S
Eu408 O428 2.326 . S
Eu408 O430 2.500 . S
Eu408 O431 2.473 . S
C409 O406 1.255 . S
C409 O410 1.247 . S
O410 C409 1.247 . S
C411 O423 1.242 . S
C411 O424 1.258 . S
O412 Eu408 2.292 . S
O412 C414 1.255 . S
C413 Eu408 2.852 . S
C413 C417 1.503 . S
C413 O430 1.273 . S
C413 O431 1.257 . S
C414 O412 1.255 . S
C414 O415 1.247 . S
O415 C414 1.247 . S
C416 O428 1.242 . S
C416 O429 1.258 . S
C417 C413 1.503 . S
C417 C418 1.379 . S
C417 C422 1.392 . S
C418 C417 1.379 . S
C418 C419 1.404 . S
C418 H432 0.929 . S
C419 C418 1.404 . S
C419 C420 1.389 1_554 S
C420 C419 1.389 1_556 S
C420 C421 1.399 . S
C420 H433 0.931 . S
C421 C420 1.399 . S
C421 C422 1.390 1_556 S
C422 C417 1.392 . S
C422 C421 1.390 1_554 S
C422 H434 0.929 . S
O423 Tb407 2.326 . S
O423 C411 1.242 . S
O424 Eu408 2.324 . S
O424 C411 1.258 . S
O425 Tb407 2.500 . S
O425 C427 1.273 . S
O426 Tb407 2.473 . S
O426 C427 1.257 . S
C427 O425 1.273 . S
C427 O426 1.257 . S
O428 Eu408 2.326 . S
O428 C416 1.242 . S
O429 Tb407 2.324 . S
O429 C416 1.258 . S
O430 Eu408 2.500 . S
O430 C413 1.273 . S
O431 Eu408 2.473 . S
O431 C413 1.257 . S
H432 C418 0.929 . S
H433 C420 0.931 . S
H434 C422 0.929 . S
O435 Tb436 2.292 . S
O435 C438 1.255 . S
Tb436 O435 2.292 . S
Tb436 O452 2.326 . S
Tb436 O454 2.500 . S
Tb436 O455 2.473 . S
Tb436 O458 2.324 . S
Eu437 O441 2.292 . S
Eu437 C442 2.852 . S
Eu437 O453 2.324 . S
Eu437 O457 2.326 . S
Eu437 O459 2.500 . S
Eu437 O460 2.473 . S
C438 O435 1.255 . S
C438 O439 1.247 . S
O439 C438 1.247 . S
C440 O452 1.242 . S
C440 O453 1.258 . S
O441 Eu437 2.292 . S
O441 C443 1.255 . S
C442 Eu437 2.852 . S
C442 C446 1.503 . S
C442 O459 1.273 . S
C442 O460 1.257 . S
C443 O441 1.255 . S
C443 O444 1.247 . S
O444 C443 1.247 . S
C445 O457 1.242 . S
C445 O458 1.258 . S
C446 C442 1.503 . S
C446 C447 1.379 . S
C446 C451 1.392 . S
C447 C446 1.379 . S
C447 C448 1.404 . S
C447 H461 0.929 . S
C448 C447 1.404 . S
C448 C449 1.389 1_554 S
C449 C448 1.389 1_556 S
C449 C450 1.399 . S
C449 H462 0.931 . S
C450 C449 1.399 . S
C450 C451 1.390 1_556 S
C451 C446 1.392 . S
C451 C450 1.390 1_554 S
C451 H463 0.929 . S
O452 Tb436 2.326 . S
O452 C440 1.242 . S
O453 Eu437 2.324 . S
O453 C440 1.258 . S
O454 Tb436 2.500 . S
O454 C456 1.273 . S
O455 Tb436 2.473 . S
O455 C456 1.257 . S
C456 O454 1.273 . S
C456 O455 1.257 . S
O457 Eu437 2.326 . S
O457 C445 1.242 . S
O458 Tb436 2.324 . S
O458 C445 1.258 . S
O459 Eu437 2.500 . S
O459 C442 1.273 . S
O460 Eu437 2.473 . S
O460 C442 1.257 . S
H461 C447 0.929 . S
H462 C449 0.931 . S
H463 C451 0.929 . S
H464 C472 0.950 . S
H465 C477 0.950 . S
H466 C474 0.950 . S
H467 C476 0.950 . S
H468 C478 0.950 . S
H469 C480 0.950 . S
H470 C482 0.950 . S
H471 C483 0.950 . S
C472 H464 0.950 . S
C472 C473 1.386 . S
C472 C474 1.391 . S
C473 C472 1.386 . S
C473 C477 1.393 . S
C474 H466 0.950 . S
C474 C472 1.391 . S
C474 C475 1.400 . S
C475 C474 1.400 . S
C475 C476 1.398 . S
C475 C481 1.491 . S
C476 H467 0.950 . S
C476 C475 1.398 . S
C476 C477 1.391 . S
C477 H465 0.950 . S
C477 C473 1.393 . S
C477 C476 1.391 . S
C478 H468 0.950 . S
C478 C479 1.386 . S
C478 C480 1.391 . S
C479 C478 1.386 . S
C479 C483 1.393 . S
C480 H469 0.950 . S
C480 C478 1.391 . S
C480 C481 1.400 . S
C481 C475 1.491 . S
C481 C480 1.400 . S
C481 C482 1.398 . S
C482 H470 0.950 . S
C482 C481 1.398 . S
C482 C483 1.391 . S
C483 H471 0.950 . S
C483 C479 1.393 . S
C483 C482 1.391 . S
H484 C492 0.950 . S
H485 C497 0.950 . S
H486 C494 0.950 . S
H487 C496 0.950 . S
H488 C498 0.950 . S
H489 C500 0.950 . S
H490 C502 0.950 . S
H491 C503 0.950 . S
C492 H484 0.950 . S
C492 C493 1.386 . S
C492 C494 1.391 . S
C493 C492 1.386 . S
C493 C497 1.393 . S
C494 H486 0.950 . S
C494 C492 1.391 . S
C494 C495 1.400 . S
C495 C494 1.400 . S
C495 C496 1.398 . S
C495 C501 1.491 . S
C496 H487 0.950 . S
C496 C495 1.398 . S
C496 C497 1.391 . S
C497 H485 0.950 . S
C497 C493 1.393 . S
C497 C496 1.391 . S
C498 H488 0.950 . S
C498 C499 1.386 . S
C498 C500 1.391 . S
C499 C498 1.386 . S
C499 C503 1.393 . S
C500 H489 0.950 . S
C500 C498 1.391 . S
C500 C501 1.400 . S
C501 C495 1.491 . S
C501 C500 1.400 . S
C501 C502 1.398 . S
C502 H490 0.950 . S
C502 C501 1.398 . S
C502 C503 1.391 . S
C503 H491 0.950 . S
C503 C499 1.393 . S
C503 C502 1.391 . S
H504 C512 0.950 . S
H505 C517 0.950 . S
H506 C514 0.950 . S
H507 C516 0.950 . S
H508 C518 0.950 . S
H509 C520 0.950 . S
H510 C522 0.950 . S
H511 C523 0.950 . S
C512 H504 0.950 . S
C512 C513 1.386 . S
C512 C514 1.391 . S
C513 C512 1.386 . S
C513 C517 1.393 . S
C514 H506 0.950 . S
C514 C512 1.391 . S
C514 C515 1.400 . S
C515 C514 1.400 . S
C515 C516 1.398 . S
C515 C521 1.491 . S
C516 H507 0.950 . S
C516 C515 1.398 . S
C516 C517 1.391 . S
C517 H505 0.950 . S
C517 C513 1.393 . S
C517 C516 1.391 . S
C518 H508 0.950 . S
C518 C519 1.386 . S
C518 C520 1.391 . S
C519 C518 1.386 . S
C519 C523 1.393 . S
C520 H509 0.950 . S
C520 C518 1.391 . S
C520 C521 1.400 . S
C521 C515 1.491 . S
C521 C520 1.400 . S
C521 C522 1.398 . S
C522 H510 0.950 . S
C522 C521 1.398 . S
C522 C523 1.391 . S
C523 H511 0.950 . S
C523 C519 1.393 . S
C523 C522 1.391 . S
H524 C532 0.950 . S
H525 C537 0.950 . S
H526 C534 0.950 . S
H527 C536 0.950 . S
H528 C538 0.950 . S
H529 C540 0.950 . S
H530 C542 0.950 . S
H531 C543 0.950 . S
C532 H524 0.950 . S
C532 C533 1.386 . S
C532 C534 1.391 . S
C533 C532 1.386 . S
C533 C537 1.393 . S
C534 H526 0.950 . S
C534 C532 1.391 . S
C534 C535 1.400 . S
C535 C534 1.400 . S
C535 C536 1.398 . S
C535 C541 1.491 . S
C536 H527 0.950 . S
C536 C535 1.398 . S
C536 C537 1.391 . S
C537 H525 0.950 . S
C537 C533 1.393 . S
C537 C536 1.391 . S
C538 H528 0.950 . S
C538 C539 1.386 . S
C538 C540 1.391 . S
C539 C538 1.386 . S
C539 C543 1.393 . S
C540 H529 0.950 . S
C540 C538 1.391 . S
C540 C541 1.400 . S
C541 C535 1.491 . S
C541 C540 1.400 . S
C541 C542 1.398 . S
C542 H530 0.950 . S
C542 C541 1.398 . S
C542 C543 1.391 . S
C543 H531 0.950 . S
C543 C539 1.393 . S
C543 C542 1.391 . S
H544 C552 0.950 . S
H545 C557 0.950 . S
H546 C554 0.950 . S
H547 C556 0.950 . S
H548 C558 0.950 . S
H549 C560 0.950 . S
H550 C562 0.950 . S
H551 C563 0.950 . S
C552 H544 0.950 . S
C552 C553 1.386 . S
C552 C554 1.391 . S
C553 C552 1.386 . S
C553 C557 1.393 . S
C554 H546 0.950 . S
C554 C552 1.391 . S
C554 C555 1.400 . S
C555 C554 1.400 . S
C555 C556 1.398 . S
C555 C561 1.491 . S
C556 H547 0.950 . S
C556 C555 1.398 . S
C556 C557 1.391 . S
C557 H545 0.950 . S
C557 C553 1.393 . S
C557 C556 1.391 . S
C558 H548 0.950 . S
C558 C559 1.386 . S
C558 C560 1.391 . S
C559 C558 1.386 . S
C559 C563 1.393 . S
C560 H549 0.950 . S
C560 C558 1.391 . S
C560 C561 1.400 . S
C561 C555 1.491 . S
C561 C560 1.400 . S
C561 C562 1.398 . S
C562 H550 0.950 . S
C562 C561 1.398 . S
C562 C563 1.391 . S
C563 H551 0.950 . S
C563 C559 1.393 . S
C563 C562 1.391 . S
H564 C572 0.950 . S
H565 C577 0.950 . S
H566 C574 0.950 . S
H567 C576 0.950 . S
H568 C578 0.950 . S
H569 C580 0.950 . S
H570 C582 0.950 . S
H571 C583 0.950 . S
C572 H564 0.950 . S
C572 C573 1.386 . S
C572 C574 1.391 . S
C573 C572 1.386 . S
C573 C577 1.393 . S
C574 H566 0.950 . S
C574 C572 1.391 . S
C574 C575 1.400 . S
C575 C574 1.400 . S
C575 C576 1.398 . S
C575 C581 1.491 . S
C576 H567 0.950 . S
C576 C575 1.398 . S
C576 C577 1.391 . S
C577 H565 0.950 . S
C577 C573 1.393 . S
C577 C576 1.391 . S
C578 H568 0.950 . S
C578 C579 1.386 . S
C578 C580 1.391 . S
C579 C578 1.386 . S
C579 C583 1.393 . S
C580 H569 0.950 . S
C580 C578 1.391 . S
C580 C581 1.400 . S
C581 C575 1.491 . S
C581 C580 1.400 . S
C581 C582 1.398 . S
C582 H570 0.950 . S
C582 C581 1.398 . S
C582 C583 1.391 . S
C583 H571 0.950 . S
C583 C579 1.393 . S
C583 C582 1.391 . S
H584 C592 0.950 . S
H585 C597 0.950 . S
H586 C594 0.950 1_554 S
H587 C596 0.950 . S
H588 C598 0.950 . S
H589 C600 0.950 . S
H590 C602 0.950 . S
H591 C603 0.950 . S
C592 H584 0.950 . S
C592 C593 1.386 . S
C592 C594 1.391 . S
C593 C592 1.386 . S
C593 C597 1.393 . S
C594 H586 0.950 1_556 S
C594 C592 1.391 . S
C594 C595 1.400 1_565 S
C595 C594 1.400 1_545 S
C595 C596 1.398 . S
C595 C601 1.491 . S
C596 H587 0.950 . S
C596 C595 1.398 . S
C596 C597 1.391 1_545 S
C597 H585 0.950 . S
C597 C593 1.393 . S
C597 C596 1.391 1_565 S
C598 H588 0.950 . S
C598 C599 1.386 1_556 S
C598 C600 1.391 . S
C599 C598 1.386 1_554 S
C599 C603 1.393 . S
C600 H589 0.950 . S
C600 C598 1.391 . S
C600 C601 1.400 . S
C601 C595 1.491 . S
C601 C600 1.400 . S
C601 C602 1.398 1_556 S
C602 H590 0.950 . S
C602 C601 1.398 1_554 S
C602 C603 1.391 . S
C603 H591 0.950 . S
C603 C599 1.393 . S
C603 C602 1.391 . S
H604 C612 0.950 . S
H605 C617 0.950 . S
H606 C614 0.950 . S
H607 C616 0.950 . S
H608 C618 0.950 . S
H609 C620 0.950 1_554 S
H610 C622 0.950 . S
H611 C623 0.950 . S
C612 H604 0.950 . S
C612 C613 1.386 1_556 S
C612 C614 1.391 . S
C613 C612 1.386 1_554 S
C613 C617 1.393 . S
C614 H606 0.950 . S
C614 C612 1.391 . S
C614 C615 1.400 . S
C615 C614 1.400 . S
C615 C616 1.398 1_556 S
C615 C621 1.491 . S
C616 H607 0.950 . S
C616 C615 1.398 1_554 S
C616 C617 1.391 . S
C617 H605 0.950 . S
C617 C613 1.393 . S
C617 C616 1.391 . S
C618 H608 0.950 . S
C618 C619 1.386 . S
C618 C620 1.391 . S
C619 C618 1.386 . S
C619 C623 1.393 . S
C620 H609 0.950 1_556 S
C620 C618 1.391 . S
C620 C621 1.400 1_545 S
C621 C615 1.491 . S
C621 C620 1.400 1_565 S
C621 C622 1.398 . S
C622 H610 0.950 . S
C622 C621 1.398 . S
C622 C623 1.391 1_565 S
C623 H611 0.950 . S
C623 C619 1.393 . S
C623 C622 1.391 1_545 S
H624 C632 0.950 1_455 S
H625 C637 0.950 . S
H626 C634 0.950 . S
H627 C636 0.950 . S
H628 C638 0.950 . S
H629 C640 0.944 . S
H630 C642 0.950 . S
H631 C643 0.950 . S
C632 H624 0.950 1_655 S
C632 C633 1.386 . S
C632 C634 1.391 1_655 S
C633 C632 1.386 . S
C633 C637 1.393 . S
C634 H626 0.950 . S
C634 C632 1.391 1_455 S
C634 C635 1.400 1_455 S
C635 C634 1.400 1_655 S
C635 C636 1.398 . S
C635 C641 1.491 1_655 S
C636 H627 0.950 . S
C636 C635 1.398 . S
C636 C637 1.391 . S
C637 H625 0.950 . S
C637 C633 1.393 . S
C637 C636 1.391 . S
C638 H628 0.950 . S
C638 C639 1.386 . S
C638 C640 1.394 1_455 S
C639 C638 1.386 . S
C639 C643 1.393 . S
C640 H629 0.944 . S
C640 C638 1.394 1_655 S
C640 C641 1.403 1_655 S
C641 C635 1.491 1_455 S
C641 C640 1.403 1_455 S
C641 C642 1.398 . S
C642 H630 0.950 . S
C642 C641 1.398 . S
C642 C643 1.391 . S
C643 H631 0.950 . S
C643 C639 1.393 . S
C643 C642 1.391 . S
H644 C652 0.950 . S
H645 C657 0.950 . S
H646 C654 0.950 . S
H647 C656 0.950 . S
H648 C658 0.950 . S
H649 C660 0.950 . S
H650 C662 0.950 . S
H651 C663 0.950 1_455 S
C652 H644 0.950 . S
C652 C653 1.386 . S
C652 C654 1.391 . S
C653 C652 1.386 . S
C653 C657 1.393 1_455 S
C654 H646 0.950 . S
C654 C652 1.391 . S
C654 C655 1.400 . S
C655 C654 1.400 . S
C655 C656 1.398 1_455 S
C655 C661 1.491 1_455 S
C656 H647 0.950 . S
C656 C655 1.398 1_655 S
C656 C657 1.391 . S
C657 H645 0.950 . S
C657 C653 1.393 1_655 S
C657 C656 1.391 . S
C658 H648 0.950 . S
C658 C659 1.386 . S
C658 C660 1.391 . S
C659 C658 1.386 . S
C659 C663 1.393 . S
C660 H649 0.950 . S
C660 C658 1.391 . S
C660 C661 1.400 . S
C661 C655 1.491 1_655 S
C661 C660 1.400 . S
C661 C662 1.398 1_655 S
C662 H650 0.950 . S
C662 C661 1.398 1_455 S
C662 C663 1.391 1_455 S
C663 H651 0.950 1_655 S
C663 C659 1.393 . S
C663 C662 1.391 1_655 S
H664 C672 0.950 . S
H665 C677 0.950 . S
H666 C674 0.950 . S
H667 C676 0.950 . S
H668 C678 0.950 . S
H669 C680 0.950 . S
H670 C682 0.950 . S
H671 C683 0.950 . S
C672 H664 0.950 . S
C672 C673 1.386 . S
C672 C674 1.391 . S
C673 C672 1.386 . S
C673 C677 1.393 . S
C674 H666 0.950 . S
C674 C672 1.391 . S
C674 C675 1.400 1_554 S
C675 C674 1.400 1_556 S
C675 C676 1.398 . S
C675 C681 1.491 . S
C676 H667 0.950 . S
C676 C675 1.398 . S
C676 C677 1.391 1_556 S
C677 H665 0.950 . S
C677 C673 1.393 . S
C677 C676 1.391 1_554 S
C678 H668 0.950 . S
C678 C679 1.386 . S
C678 C680 1.391 . S
C679 C678 1.386 . S
C679 C683 1.393 . S
C680 H669 0.950 . S
C680 C678 1.391 . S
C680 C681 1.400 . S
C681 C675 1.491 . S
C681 C680 1.400 . S
C681 C682 1.398 . S
C682 H670 0.950 . S
C682 C681 1.398 . S
C682 C683 1.391 . S
C683 H671 0.950 . S
C683 C679 1.393 . S
C683 C682 1.391 . S
H684 C692 0.950 . S
H685 C697 0.950 . S
H686 C694 0.950 . S
H687 C696 0.950 1_554 S
H688 C698 0.950 . S
H689 C700 0.950 . S
H690 C702 0.950 . S
H691 C703 0.950 . S
C692 H684 0.950 . S
C692 C693 1.386 . S
C692 C694 1.391 . S
C693 C692 1.386 . S
C693 C697 1.393 . S
C694 H686 0.950 . S
C694 C692 1.391 . S
C694 C695 1.400 . S
C695 C694 1.400 . S
C695 C696 1.398 . S
C695 C701 1.491 . S
C696 H687 0.950 1_556 S
C696 C695 1.398 . S
C696 C697 1.391 . S
C697 H685 0.950 . S
C697 C693 1.393 . S
C697 C696 1.391 . S
C698 H688 0.950 . S
C698 C699 1.386 . S
C698 C700 1.391 . S
C699 C698 1.386 . S
C699 C703 1.393 1_554 S
C700 H689 0.950 . S
C700 C698 1.391 . S
C700 C701 1.400 1_554 S
C701 C695 1.491 . S
C701 C700 1.400 1_556 S
C701 C702 1.398 . S
C702 H690 0.950 . S
C702 C701 1.398 . S
C702 C703 1.391 . S
C703 H691 0.950 . S
C703 C699 1.393 1_556 S
C703 C702 1.391 . S
H704 C712 0.950 1_655 S
H705 C717 0.950 . S
H706 C714 0.950 . S
H707 C716 0.950 . S
H708 C718 0.950 . S
H709 C720 0.950 . S
H710 C722 0.950 . S
H711 C723 0.950 . S
C712 H704 0.950 1_455 S
C712 C713 1.386 . S
C712 C714 1.391 1_455 S
C713 C712 1.386 . S
C713 C717 1.393 . S
C714 H706 0.950 . S
C714 C712 1.391 1_655 S
C714 C715 1.400 1_655 S
C715 C714 1.400 1_455 S
C715 C716 1.398 . S
C715 C721 1.491 1_455 S
C716 H707 0.950 . S
C716 C715 1.398 . S
C716 C717 1.391 . S
C717 H705 0.950 . S
C717 C713 1.393 . S
C717 C716 1.391 . S
C718 H708 0.950 . S
C718 C719 1.386 1_455 S
C718 C720 1.391 . S
C719 C718 1.386 1_655 S
C719 C723 1.393 . S
C720 H709 0.950 . S
C720 C718 1.391 . S
C720 C721 1.400 1_455 S
C721 C715 1.491 1_655 S
C721 C720 1.400 1_655 S
C721 C722 1.398 . S
C722 H710 0.950 . S
C722 C721 1.398 . S
C722 C723 1.391 . S
C723 H711 0.950 . S
C723 C719 1.393 . S
C723 C722 1.391 . S
H724 C732 0.950 . S
H725 C737 0.950 . S
H726 C734 0.950 . S
H727 C736 0.950 1_455 S
H728 C738 0.950 . S
H729 C740 0.950 . S
H730 C742 0.950 . S
H731 C743 0.950 . S
C732 H724 0.950 . S
C732 C733 1.386 . S
C732 C734 1.391 . S
C733 C732 1.386 . S
C733 C737 1.393 . S
C734 H726 0.950 . S
C734 C732 1.391 . S
C734 C735 1.400 . S
C735 C734 1.400 . S
C735 C736 1.398 . S
C735 C741 1.491 1_655 S
C736 H727 0.950 1_655 S
C736 C735 1.398 . S
C736 C737 1.391 . S
C737 H725 0.950 . S
C737 C733 1.393 . S
C737 C736 1.391 . S
C738 H728 0.950 . S
C738 C739 1.386 . S
C738 C740 1.391 . S
C739 C738 1.386 . S
C739 C743 1.393 . S
C740 H729 0.950 . S
C740 C738 1.391 . S
C740 C741 1.400 . S
C741 C735 1.491 1_455 S
C741 C740 1.400 . S
C741 C742 1.398 1_455 S
C742 H730 0.950 . S
C742 C741 1.398 1_655 S
C742 C743 1.391 1_655 S
C743 H731 0.950 . S
C743 C739 1.393 . S
C743 C742 1.391 1_455 S
H744 C752 0.950 . S
H745 C757 0.950 . S
H746 C754 0.950 . S
H747 C756 0.950 1_545 S
H748 C758 0.950 . S
H749 C760 0.950 . S
H750 C762 0.950 . S
H751 C763 0.950 . S
C752 H744 0.950 . S
C752 C753 1.386 . S
C752 C754 1.391 . S
C753 C752 1.386 . S
C753 C757 1.393 . S
C754 H746 0.950 . S
C754 C752 1.391 . S
C754 C755 1.400 1_565 S
C755 C754 1.400 1_545 S
C755 C756 1.398 1_545 S
C755 C761 1.491 . S
C756 H747 0.950 1_565 S
C756 C755 1.398 1_565 S
C756 C757 1.391 . S
C757 H745 0.950 . S
C757 C753 1.393 . S
C757 C756 1.391 . S
C758 H748 0.950 . S
C758 C759 1.386 . S
C758 C760 1.391 . S
C759 C758 1.386 . S
C759 C763 1.393 . S
C760 H749 0.950 . S
C760 C758 1.391 . S
C760 C761 1.400 . S
C761 C755 1.491 . S
C761 C760 1.400 . S
C761 C762 1.398 . S
C762 H750 0.950 . S
C762 C761 1.398 . S
C762 C763 1.391 . S
C763 H751 0.950 . S
C763 C759 1.393 . S
C763 C762 1.391 . S
H764 C772 0.950 . S
H765 C777 0.950 . S
H766 C774 0.950 . S
H767 C776 0.950 . S
H768 C778 0.950 . S
H769 C780 0.950 . S
H770 C782 0.952 . S
H771 C783 0.950 . S
C772 H764 0.950 . S
C772 C773 1.386 . S
C772 C774 1.391 . S
C773 C772 1.386 . S
C773 C777 1.393 . S
C774 H766 0.950 . S
C774 C772 1.391 . S
C774 C775 1.400 . S
C775 C774 1.400 . S
C775 C776 1.398 . S
C775 C781 1.491 . S
C776 H767 0.950 . S
C776 C775 1.398 . S
C776 C777 1.391 . S
C777 H765 0.950 . S
C777 C773 1.393 . S
C777 C776 1.391 . S
C778 H768 0.950 . S
C778 C779 1.386 . S
C778 C780 1.391 . S
C779 C778 1.386 . S
C779 C783 1.393 . S
C780 H769 0.950 . S
C780 C778 1.391 . S
C780 C781 1.400 1_545 S
C781 C775 1.491 . S
C781 C780 1.400 1_565 S
C781 C782 1.398 1_565 S
C782 H770 0.952 . S
C782 C781 1.398 1_545 S
C782 C783 1.391 . S
C783 H771 0.950 . S
C783 C779 1.393 . S
C783 C782 1.391 . S
H784 C792 0.950 . S
H785 C797 0.950 . S
H786 C794 0.950 . S
H787 C796 0.950 . S
H788 C798 0.950 . S
H789 C800 0.950 . S
H790 C802 0.950 . S
H791 C803 0.950 . S
C792 H784 0.950 . S
C792 C793 1.386 . S
C792 C794 1.391 . S
C793 C792 1.386 . S
C793 C797 1.393 . S
C794 H786 0.950 . S
C794 C792 1.391 . S
C794 C795 1.400 . S
C795 C794 1.400 . S
C795 C796 1.398 . S
C795 C801 1.491 . S
C796 H787 0.950 . S
C796 C795 1.398 . S
C796 C797 1.391 . S
C797 H785 0.950 . S
C797 C793 1.393 . S
C797 C796 1.391 . S
C798 H788 0.950 . S
C798 C799 1.386 . S
C798 C800 1.391 . S
C799 C798 1.386 . S
C799 C803 1.393 . S
C800 H789 0.950 . S
C800 C798 1.391 . S
C800 C801 1.400 . S
C801 C795 1.491 . S
C801 C800 1.400 . S
C801 C802 1.398 . S
C802 H790 0.950 . S
C802 C801 1.398 . S
C802 C803 1.391 . S
C803 H791 0.950 . S
C803 C799 1.393 . S
C803 C802 1.391 . S
H804 C812 0.950 . S
H805 C817 0.950 . S
H806 C814 0.950 . S
H807 C816 0.950 . S
H808 C818 0.950 . S
H809 C820 0.950 . S
H810 C822 0.950 . S
H811 C823 0.950 . S
C812 H804 0.950 . S
C812 C813 1.386 . S
C812 C814 1.391 . S
C813 C812 1.386 . S
C813 C817 1.393 . S
C814 H806 0.950 . S
C814 C812 1.391 . S
C814 C815 1.400 . S
C815 C814 1.400 . S
C815 C816 1.398 . S
C815 C821 1.491 . S
C816 H807 0.950 . S
C816 C815 1.398 . S
C816 C817 1.391 . S
C817 H805 0.950 . S
C817 C813 1.393 . S
C817 C816 1.391 . S
C818 H808 0.950 . S
C818 C819 1.386 . S
C818 C820 1.391 . S
C819 C818 1.386 . S
C819 C823 1.393 . S
C820 H809 0.950 . S
C820 C818 1.391 . S
C820 C821 1.400 . S
C821 C815 1.491 . S
C821 C820 1.400 . S
C821 C822 1.398 . S
C822 H810 0.950 . S
C822 C821 1.398 . S
C822 C823 1.391 . S
C823 H811 0.950 . S
C823 C819 1.393 . S
C823 C822 1.391 . S
H824 C832 0.950 . S
H825 C837 0.950 . S
H826 C834 0.950 . S
H827 C836 0.950 . S
H828 C838 0.950 . S
H829 C840 0.950 . S
H830 C842 0.950 . S
H831 C843 0.950 . S
C832 H824 0.950 . S
C832 C833 1.386 . S
C832 C834 1.391 . S
C833 C832 1.386 . S
C833 C837 1.393 . S
C834 H826 0.950 . S
C834 C832 1.391 . S
C834 C835 1.400 . S
C835 C834 1.400 . S
C835 C836 1.398 . S
C835 C841 1.491 . S
C836 H827 0.950 . S
C836 C835 1.398 . S
C836 C837 1.391 . S
C837 H825 0.950 . S
C837 C833 1.393 . S
C837 C836 1.391 . S
C838 H828 0.950 . S
C838 C839 1.386 . S
C838 C840 1.391 . S
C839 C838 1.386 . S
C839 C843 1.393 . S
C840 H829 0.950 . S
C840 C838 1.391 . S
C840 C841 1.400 . S
C841 C835 1.491 . S
C841 C840 1.400 . S
C841 C842 1.398 . S
C842 H830 0.950 . S
C842 C841 1.398 . S
C842 C843 1.391 . S
C843 H831 0.950 . S
C843 C839 1.393 . S
C843 C842 1.391 . S
H844 C852 0.950 . S
H845 C857 0.950 . S
H846 C854 0.950 . S
H847 C856 0.950 . S
H848 C858 0.950 . S
H849 C860 0.950 . S
H850 C862 0.950 . S
H851 C863 0.950 . S
C852 H844 0.950 . S
C852 C853 1.386 . S
C852 C854 1.391 . S
C853 C852 1.386 . S
C853 C857 1.393 . S
C854 H846 0.950 . S
C854 C852 1.391 . S
C854 C855 1.400 . S
C855 C854 1.400 . S
C855 C856 1.398 . S
C855 C861 1.491 . S
C856 H847 0.950 . S
C856 C855 1.398 . S
C856 C857 1.391 . S
C857 H845 0.950 . S
C857 C853 1.393 . S
C857 C856 1.391 . S
C858 H848 0.950 . S
C858 C859 1.386 . S
C858 C860 1.391 . S
C859 C858 1.386 . S
C859 C863 1.393 . S
C860 H849 0.950 . S
C860 C858 1.391 . S
C860 C861 1.400 . S
C861 C855 1.491 . S
C861 C860 1.400 . S
C861 C862 1.398 . S
C862 H850 0.950 . S
C862 C861 1.398 . S
C862 C863 1.391 . S
C863 H851 0.950 . S
C863 C859 1.393 . S
C863 C862 1.391 . S
H864 C872 0.950 . S
H865 C877 0.950 . S
H866 C874 0.950 . S
H867 C876 0.950 . S
H868 C878 0.950 . S
H869 C880 0.950 . S
H870 C882 0.950 . S
H871 C883 0.950 . S
C872 H864 0.950 . S
C872 C873 1.386 . S
C872 C874 1.391 . S
C873 C872 1.386 . S
C873 C877 1.393 . S
C874 H866 0.950 . S
C874 C872 1.391 . S
C874 C875 1.400 . S
C875 C874 1.400 . S
C875 C876 1.398 . S
C875 C881 1.491 1_554 S
C876 H867 0.950 . S
C876 C875 1.398 . S
C876 C877 1.391 . S
C877 H865 0.950 . S
C877 C873 1.393 . S
C877 C876 1.391 . S
C878 H868 0.950 . S
C878 C879 1.386 . S
C878 C880 1.391 . S
C879 C878 1.386 . S
C879 C883 1.393 . S
C880 H869 0.950 . S
C880 C878 1.391 . S
C880 C881 1.400 . S
C881 C875 1.491 1_556 S
C881 C880 1.400 . S
C881 C882 1.398 . S
C882 H870 0.950 . S
C882 C881 1.398 . S
C882 C883 1.391 . S
C883 H871 0.950 . S
C883 C879 1.393 . S
C883 C882 1.391 . S
H884 C892 0.950 . S
H885 C897 0.950 . S
H886 C894 0.950 . S
H887 C896 0.950 . S
H888 C898 0.950 . S
H889 C900 0.950 . S
H890 C902 0.950 . S
H891 C903 0.950 . S
C892 H884 0.950 . S
C892 C893 1.386 . S
C892 C894 1.391 . S
C893 C892 1.386 . S
C893 C897 1.393 . S
C894 H886 0.950 . S
C894 C892 1.391 . S
C894 C895 1.400 . S
C895 C894 1.400 . S
C895 C896 1.398 . S
C895 C901 1.491 1_554 S
C896 H887 0.950 . S
C896 C895 1.398 . S
C896 C897 1.391 . S
C897 H885 0.950 . S
C897 C893 1.393 . S
C897 C896 1.391 . S
C898 H888 0.950 . S
C898 C899 1.386 . S
C898 C900 1.391 . S
C899 C898 1.386 . S
C899 C903 1.393 . S
C900 H889 0.950 . S
C900 C898 1.391 . S
C900 C901 1.400 . S
C901 C895 1.491 1_556 S
C901 C900 1.400 . S
C901 C902 1.398 . S
C902 H890 0.950 . S
C902 C901 1.398 . S
C902 C903 1.391 . S
C903 H891 0.950 . S
C903 C899 1.393 . S
C903 C902 1.391 . S
H904 C912 0.950 . S
H905 C917 0.950 . S
H906 C914 0.950 . S
H907 C916 0.950 . S
H908 C918 0.950 . S
H909 C920 0.950 . S
H910 C922 0.950 . S
H911 C923 0.950 . S
C912 H904 0.950 . S
C912 C913 1.386 . S
C912 C914 1.391 . S
C913 C912 1.386 . S
C913 C917 1.393 . S
C914 H906 0.950 . S
C914 C912 1.391 . S
C914 C915 1.400 . S
C915 C914 1.400 . S
C915 C916 1.398 . S
C915 C921 1.491 . S
C916 H907 0.950 . S
C916 C915 1.398 . S
C916 C917 1.391 . S
C917 H905 0.950 . S
C917 C913 1.393 . S
C917 C916 1.391 . S
C918 H908 0.950 . S
C918 C919 1.386 . S
C918 C920 1.391 . S
C919 C918 1.386 . S
C919 C923 1.393 . S
C920 H909 0.950 . S
C920 C918 1.391 . S
C920 C921 1.400 . S
C921 C915 1.491 . S
C921 C920 1.400 . S
C921 C922 1.398 . S
C922 H910 0.950 . S
C922 C921 1.398 . S
C922 C923 1.391 . S
C923 H911 0.950 . S
C923 C919 1.393 . S
C923 C922 1.391 . S
H924 C932 0.950 . S
H925 C937 0.950 . S
H926 C934 0.950 . S
H927 C936 0.950 . S
H928 C938 0.950 . S
H929 C940 0.950 . S
H930 C942 0.950 . S
H931 C943 0.950 . S
C932 H924 0.950 . S
C932 C933 1.386 . S
C932 C934 1.391 . S
C933 C932 1.386 . S
C933 C937 1.393 . S
C934 H926 0.950 . S
C934 C932 1.391 . S
C934 C935 1.400 . S
C935 C934 1.400 . S
C935 C936 1.398 . S
C935 C941 1.491 . S
C936 H927 0.950 . S
C936 C935 1.398 . S
C936 C937 1.391 . S
C937 H925 0.950 . S
C937 C933 1.393 . S
C937 C936 1.391 . S
C938 H928 0.950 . S
C938 C939 1.386 . S
C938 C940 1.391 . S
C939 C938 1.386 . S
C939 C943 1.393 . S
C940 H929 0.950 . S
C940 C938 1.391 . S
C940 C941 1.400 . S
C941 C935 1.491 . S
C941 C940 1.400 . S
C941 C942 1.398 . S
C942 H930 0.950 . S
C942 C941 1.398 . S
C942 C943 1.391 . S
C943 H931 0.950 . S
C943 C939 1.393 . S
C943 C942 1.391 . S
H944 C952 0.950 . S
H945 C957 0.950 . S
H946 C954 0.950 . S
H947 C956 0.950 . S
H948 C958 0.950 . S
H949 C960 0.950 . S
H950 C962 0.950 . S
H951 C963 0.950 . S
C952 H944 0.950 . S
C952 C953 1.386 . S
C952 C954 1.391 . S
C953 C952 1.386 . S
C953 C957 1.393 . S
C954 H946 0.950 . S
C954 C952 1.391 . S
C954 C955 1.400 . S
C955 C954 1.400 . S
C955 C956 1.398 . S
C955 C961 1.491 1_554 S
C956 H947 0.950 . S
C956 C955 1.398 . S
C956 C957 1.391 . S
C957 H945 0.950 . S
C957 C953 1.393 . S
C957 C956 1.391 . S
C958 H948 0.950 . S
C958 C959 1.386 . S
C958 C960 1.391 . S
C959 C958 1.386 . S
C959 C963 1.393 . S
C960 H949 0.950 . S
C960 C958 1.391 . S
C960 C961 1.400 . S
C961 C955 1.491 1_556 S
C961 C960 1.400 . S
C961 C962 1.398 . S
C962 H950 0.950 . S
C962 C961 1.398 . S
C962 C963 1.391 . S
C963 H951 0.950 . S
C963 C959 1.393 . S
C963 C962 1.391 . S
H964 C972 0.950 . S
H965 C977 0.950 . S
H966 C974 0.950 . S
H967 C976 0.950 . S
H968 C978 0.950 . S
H969 C980 0.950 . S
H970 C982 0.950 . S
H971 C983 0.950 . S
C972 H964 0.950 . S
C972 C973 1.386 . S
C972 C974 1.391 . S
C973 C972 1.386 . S
C973 C977 1.393 . S
C974 H966 0.950 . S
C974 C972 1.391 . S
C974 C975 1.400 . S
C975 C974 1.400 . S
C975 C976 1.398 . S
C975 C981 1.491 1_554 S
C976 H967 0.950 . S
C976 C975 1.398 . S
C976 C977 1.391 . S
C977 H965 0.950 . S
C977 C973 1.393 . S
C977 C976 1.391 . S
C978 H968 0.950 . S
C978 C979 1.386 . S
C978 C980 1.391 . S
C979 C978 1.386 . S
C979 C983 1.393 . S
C980 H969 0.950 . S
C980 C978 1.391 . S
C980 C981 1.400 . S
C981 C975 1.491 1_556 S
C981 C980 1.400 . S
C981 C982 1.398 . S
C982 H970 0.950 . S
C982 C981 1.398 . S
C982 C983 1.391 . S
C983 H971 0.950 . S
C983 C979 1.393 . S
C983 C982 1.391 . S
H984 C992 0.950 . S
H985 C997 0.950 . S
H986 C994 0.950 . S
H987 C996 0.950 . S
H988 C998 0.950 . S
H989 C1000 0.950 . S
H990 C1002 0.950 . S
H991 C1003 0.950 . S
C992 H984 0.950 . S
C992 C993 1.386 . S
C992 C994 1.391 . S
C993 C992 1.386 . S
C993 C997 1.393 . S
C994 H986 0.950 . S
C994 C992 1.391 . S
C994 C995 1.400 . S
C995 C994 1.400 . S
C995 C996 1.398 . S
C995 C1001 1.491 . S
C996 H987 0.950 . S
C996 C995 1.398 . S
C996 C997 1.391 . S
C997 H985 0.950 . S
C997 C993 1.393 . S
C997 C996 1.391 . S
C998 H988 0.950 . S
C998 C999 1.386 . S
C998 C1000 1.391 . S
C999 C998 1.386 . S
C999 C1003 1.393 . S
C1000 H989 0.950 . S
C1000 C998 1.391 . S
C1000 C1001 1.400 . S
C1001 C995 1.491 . S
C1001 C1000 1.400 . S
C1001 C1002 1.398 . S
C1002 H990 0.950 . S
C1002 C1001 1.398 . S
C1002 C1003 1.391 . S
C1003 H991 0.950 . S
C1003 C999 1.393 . S
C1003 C1002 1.391 . S
H1004 C1012 0.950 . S
H1005 C1017 0.950 . S
H1006 C1014 0.950 . S
H1007 C1016 0.950 . S
H1008 C1018 0.950 . S
H1009 C1020 0.950 . S
H1010 C1022 0.950 . S
H1011 C1023 0.950 . S
C1012 H1004 0.950 . S
C1012 C1013 1.386 . S
C1012 C1014 1.391 . S
C1013 C1012 1.386 . S
C1013 C1017 1.393 . S
C1014 H1006 0.950 . S
C1014 C1012 1.391 . S
C1014 C1015 1.400 . S
C1015 C1014 1.400 . S
C1015 C1016 1.398 . S
C1015 C1021 1.491 . S
C1016 H1007 0.950 . S
C1016 C1015 1.398 . S
C1016 C1017 1.391 . S
C1017 H1005 0.950 . S
C1017 C1013 1.393 . S
C1017 C1016 1.391 . S
C1018 H1008 0.950 . S
C1018 C1019 1.386 . S
C1018 C1020 1.391 . S
C1019 C1018 1.386 . S
C1019 C1023 1.393 . S
C1020 H1009 0.950 . S
C1020 C1018 1.391 . S
C1020 C1021 1.400 . S
C1021 C1015 1.491 . S
C1021 C1020 1.400 . S
C1021 C1022 1.398 . S
C1022 H1010 0.950 . S
C1022 C1021 1.398 . S
C1022 C1023 1.391 . S
C1023 H1011 0.950 . S
C1023 C1019 1.393 . S
C1023 C1022 1.391 . S
H1024 C1032 0.950 . S
H1025 C1037 0.950 . S
H1026 C1034 0.950 . S
H1027 C1036 0.950 . S
H1028 C1038 0.950 . S
H1029 C1040 0.950 . S
H1030 C1042 0.950 . S
H1031 C1043 0.950 . S
C1032 H1024 0.950 . S
C1032 C1033 1.386 . S
C1032 C1034 1.391 . S
C1033 C1032 1.386 . S
C1033 C1037 1.393 . S
C1034 H1026 0.950 . S
C1034 C1032 1.391 . S
C1034 C1035 1.400 . S
C1035 C1034 1.400 . S
C1035 C1036 1.398 . S
C1035 C1041 1.491 . S
C1036 H1027 0.950 . S
C1036 C1035 1.398 . S
C1036 C1037 1.391 . S
C1037 H1025 0.950 . S
C1037 C1033 1.393 . S
C1037 C1036 1.391 . S
C1038 H1028 0.950 . S
C1038 C1039 1.386 . S
C1038 C1040 1.391 . S
C1039 C1038 1.386 . S
C1039 C1043 1.393 . S
C1040 H1029 0.950 . S
C1040 C1038 1.391 . S
C1040 C1041 1.400 . S
C1041 C1035 1.491 . S
C1041 C1040 1.400 . S
C1041 C1042 1.398 . S
C1042 H1030 0.950 . S
C1042 C1041 1.398 . S
C1042 C1043 1.391 . S
C1043 H1031 0.950 . S
C1043 C1039 1.393 . S
C1043 C1042 1.391 . S
H1044 C1052 0.950 . S
H1045 C1057 0.950 . S
H1046 C1054 0.950 . S
H1047 C1056 0.950 . S
H1048 C1058 0.950 . S
H1049 C1060 0.950 . S
H1050 C1062 0.950 . S
H1051 C1063 0.950 . S
C1052 H1044 0.950 . S
C1052 C1053 1.386 . S
C1052 C1054 1.391 . S
C1053 C1052 1.386 . S
C1053 C1057 1.393 . S
C1054 H1046 0.950 . S
C1054 C1052 1.391 . S
C1054 C1055 1.400 . S
C1055 C1054 1.400 . S
C1055 C1056 1.398 . S
C1055 C1061 1.491 . S
C1056 H1047 0.950 . S
C1056 C1055 1.398 . S
C1056 C1057 1.391 . S
C1057 H1045 0.950 . S
C1057 C1053 1.393 . S
C1057 C1056 1.391 . S
C1058 H1048 0.950 . S
C1058 C1059 1.386 . S
C1058 C1060 1.391 . S
C1059 C1058 1.386 . S
C1059 C1063 1.393 . S
C1060 H1049 0.950 . S
C1060 C1058 1.391 . S
C1060 C1061 1.400 . S
C1061 C1055 1.491 . S
C1061 C1060 1.400 . S
C1061 C1062 1.398 . S
C1062 H1050 0.950 . S
C1062 C1061 1.398 . S
C1062 C1063 1.391 . S
C1063 H1051 0.950 . S
C1063 C1059 1.393 . S
C1063 C1062 1.391 . S
H1064 C1072 0.950 . S
H1065 C1077 0.950 . S
H1066 C1074 0.950 . S
H1067 C1076 0.950 . S
H1068 C1078 0.950 . S
H1069 C1080 0.950 . S
H1070 C1082 0.950 . S
H1071 C1083 0.950 . S
C1072 H1064 0.950 . S
C1072 C1073 1.386 . S
C1072 C1074 1.391 . S
C1073 C1072 1.386 . S
C1073 C1077 1.393 . S
C1074 H1066 0.950 . S
C1074 C1072 1.391 . S
C1074 C1075 1.400 . S
C1075 C1074 1.400 . S
C1075 C1076 1.398 . S
C1075 C1081 1.491 . S
C1076 H1067 0.950 . S
C1076 C1075 1.398 . S
C1076 C1077 1.391 . S
C1077 H1065 0.950 . S
C1077 C1073 1.393 . S
C1077 C1076 1.391 . S
C1078 H1068 0.950 . S
C1078 C1079 1.386 . S
C1078 C1080 1.391 . S
C1079 C1078 1.386 . S
C1079 C1083 1.393 . S
C1080 H1069 0.950 . S
C1080 C1078 1.391 . S
C1080 C1081 1.400 . S
C1081 C1075 1.491 . S
C1081 C1080 1.400 . S
C1081 C1082 1.398 . S
C1082 H1070 0.950 . S
C1082 C1081 1.398 . S
C1082 C1083 1.391 . S
C1083 H1071 0.950 . S
C1083 C1079 1.393 . S
C1083 C1082 1.391 . S
H1084 C1092 0.950 . S
H1085 C1097 0.950 . S
H1086 C1094 0.950 . S
H1087 C1096 0.950 . S
H1088 C1098 0.950 . S
H1089 C1100 0.950 . S
H1090 C1102 0.950 . S
H1091 C1103 0.950 . S
C1092 H1084 0.950 . S
C1092 C1093 1.386 . S
C1092 C1094 1.391 . S
C1093 C1092 1.386 . S
C1093 C1097 1.393 . S
C1094 H1086 0.950 . S
C1094 C1092 1.391 . S
C1094 C1095 1.400 . S
C1095 C1094 1.400 . S
C1095 C1096 1.398 . S
C1095 C1101 1.491 . S
C1096 H1087 0.950 . S
C1096 C1095 1.398 . S
C1096 C1097 1.391 . S
C1097 H1085 0.950 . S
C1097 C1093 1.393 . S
C1097 C1096 1.391 . S
C1098 H1088 0.950 . S
C1098 C1099 1.386 . S
C1098 C1100 1.391 . S
C1099 C1098 1.386 . S
C1099 C1103 1.393 . S
C1100 H1089 0.950 . S
C1100 C1098 1.391 . S
C1100 C1101 1.400 . S
C1101 C1095 1.491 . S
C1101 C1100 1.400 . S
C1101 C1102 1.398 . S
C1102 H1090 0.950 . S
C1102 C1101 1.398 . S
C1102 C1103 1.391 . S
C1103 H1091 0.950 . S
C1103 C1099 1.393 . S
C1103 C1102 1.391 . S
H1104 C1112 0.950 . S
H1105 C1117 0.950 . S
H1106 C1114 0.950 . S
H1107 C1116 0.950 . S
H1108 C1118 0.950 . S
H1109 C1120 0.950 . S
H1110 C1122 0.950 . S
H1111 C1123 0.950 . S
C1112 H1104 0.950 . S
C1112 C1113 1.386 1_556 S
C1112 C1114 1.391 . S
C1113 C1112 1.386 1_554 S
C1113 C1117 1.393 . S
C1114 H1106 0.950 . S
C1114 C1112 1.391 . S
C1114 C1115 1.400 1_556 S
C1115 C1114 1.400 1_554 S
C1115 C1116 1.398 . S
C1115 C1121 1.491 1_545 S
C1116 H1107 0.950 . S
C1116 C1115 1.398 . S
C1116 C1117 1.391 . S
C1117 H1105 0.950 . S
C1117 C1113 1.393 . S
C1117 C1116 1.391 . S
C1118 H1108 0.950 . S
C1118 C1119 1.386 . S
C1118 C1120 1.391 . S
C1119 C1118 1.386 . S
C1119 C1123 1.393 1_554 S
C1120 H1109 0.950 . S
C1120 C1118 1.391 . S
C1120 C1121 1.400 . S
C1121 C1115 1.491 1_565 S
C1121 C1120 1.400 . S
C1121 C1122 1.398 1_554 S
C1122 H1110 0.950 . S
C1122 C1121 1.398 1_556 S
C1122 C1123 1.391 . S
C1123 H1111 0.950 . S
C1123 C1119 1.393 1_556 S
C1123 C1122 1.391 . S
H1124 C1132 0.950 . S
H1125 C1137 0.950 . S
H1126 C1134 0.950 . S
H1127 C1136 0.950 . S
H1128 C1138 0.950 . S
H1129 C1140 0.950 . S
H1130 C1142 0.950 . S
H1131 C1143 0.950 . S
C1132 H1124 0.950 . S
C1132 C1133 1.386 . S
C1132 C1134 1.391 . S
C1133 C1132 1.386 . S
C1133 C1137 1.393 . S
C1134 H1126 0.950 . S
C1134 C1132 1.391 . S
C1134 C1135 1.400 . S
C1135 C1134 1.400 . S
C1135 C1136 1.398 . S
C1135 C1141 1.491 . S
C1136 H1127 0.950 . S
C1136 C1135 1.398 . S
C1136 C1137 1.391 . S
C1137 H1125 0.950 . S
C1137 C1133 1.393 . S
C1137 C1136 1.391 . S
C1138 H1128 0.950 . S
C1138 C1139 1.386 . S
C1138 C1140 1.391 . S
C1139 C1138 1.386 . S
C1139 C1143 1.393 . S
C1140 H1129 0.950 . S
C1140 C1138 1.391 . S
C1140 C1141 1.400 . S
C1141 C1135 1.491 . S
C1141 C1140 1.400 . S
C1141 C1142 1.398 . S
C1142 H1130 0.950 . S
C1142 C1141 1.398 . S
C1142 C1143 1.391 . S
C1143 H1131 0.950 . S
C1143 C1139 1.393 . S
C1143 C1142 1.391 . S
H1144 C1152 0.950 . S
H1145 C1157 0.950 . S
H1146 C1154 0.950 . S
H1147 C1156 0.950 . S
H1148 C1158 0.950 . S
H1149 C1160 0.950 . S
H1150 C1162 0.950 . S
H1151 C1163 0.950 . S
C1152 H1144 0.950 . S
C1152 C1153 1.386 . S
C1152 C1154 1.391 . S
C1153 C1152 1.386 . S
C1153 C1157 1.393 . S
C1154 H1146 0.950 . S
C1154 C1152 1.391 . S
C1154 C1155 1.400 . S
C1155 C1154 1.400 . S
C1155 C1156 1.398 . S
C1155 C1161 1.491 . S
C1156 H1147 0.950 . S
C1156 C1155 1.398 . S
C1156 C1157 1.391 . S
C1157 H1145 0.950 . S
C1157 C1153 1.393 . S
C1157 C1156 1.391 . S
C1158 H1148 0.950 . S
C1158 C1159 1.386 . S
C1158 C1160 1.391 . S
C1159 C1158 1.386 . S
C1159 C1163 1.393 . S
C1160 H1149 0.950 . S
C1160 C1158 1.391 . S
C1160 C1161 1.400 . S
C1161 C1155 1.491 . S
C1161 C1160 1.400 . S
C1161 C1162 1.398 . S
C1162 H1150 0.950 . S
C1162 C1161 1.398 . S
C1162 C1163 1.391 . S
C1163 H1151 0.950 . S
C1163 C1159 1.393 . S
C1163 C1162 1.391 . S
H1164 C1172 0.950 . S
H1165 C1177 0.950 . S
H1166 C1174 0.950 . S
H1167 C1176 0.950 . S
H1168 C1178 0.950 . S
H1169 C1180 0.950 . S
H1170 C1182 0.950 . S
H1171 C1183 0.950 . S
C1172 H1164 0.950 . S
C1172 C1173 1.386 . S
C1172 C1174 1.391 . S
C1173 C1172 1.386 . S
C1173 C1177 1.393 . S
C1174 H1166 0.950 . S
C1174 C1172 1.391 . S
C1174 C1175 1.400 . S
C1175 C1174 1.400 . S
C1175 C1176 1.398 . S
C1175 C1181 1.491 . S
C1176 H1167 0.950 . S
C1176 C1175 1.398 . S
C1176 C1177 1.391 . S
C1177 H1165 0.950 . S
C1177 C1173 1.393 . S
C1177 C1176 1.391 . S
C1178 H1168 0.950 . S
C1178 C1179 1.386 . S
C1178 C1180 1.391 . S
C1179 C1178 1.386 . S
C1179 C1183 1.393 . S
C1180 H1169 0.950 . S
C1180 C1178 1.391 . S
C1180 C1181 1.400 . S
C1181 C1175 1.491 . S
C1181 C1180 1.400 . S
C1181 C1182 1.398 . S
C1182 H1170 0.950 . S
C1182 C1181 1.398 . S
C1182 C1183 1.391 . S
C1183 H1171 0.950 . S
C1183 C1179 1.393 . S
C1183 C1182 1.391 . S
H1184 C1192 0.950 . S
H1185 C1197 0.950 . S
H1186 C1194 0.950 . S
H1187 C1196 0.950 . S
H1188 C1198 0.950 . S
H1189 C1200 0.950 . S
H1190 C1202 0.950 . S
H1191 C1203 0.950 . S
C1192 H1184 0.950 . S
C1192 C1193 1.386 . S
C1192 C1194 1.391 . S
C1193 C1192 1.386 . S
C1193 C1197 1.393 . S
C1194 H1186 0.950 . S
C1194 C1192 1.391 . S
C1194 C1195 1.400 . S
C1195 C1194 1.400 . S
C1195 C1196 1.398 . S
C1195 C1201 1.491 . S
C1196 H1187 0.950 . S
C1196 C1195 1.398 . S
C1196 C1197 1.391 . S
C1197 H1185 0.950 . S
C1197 C1193 1.393 . S
C1197 C1196 1.391 . S
C1198 H1188 0.950 . S
C1198 C1199 1.386 . S
C1198 C1200 1.391 . S
C1199 C1198 1.386 . S
C1199 C1203 1.393 . S
C1200 H1189 0.950 . S
C1200 C1198 1.391 . S
C1200 C1201 1.400 . S
C1201 C1195 1.491 . S
C1201 C1200 1.400 . S
C1201 C1202 1.398 . S
C1202 H1190 0.950 . S
C1202 C1201 1.398 . S
C1202 C1203 1.391 . S
C1203 H1191 0.950 . S
C1203 C1199 1.393 . S
C1203 C1202 1.391 . S
H1204 C1212 0.950 . S
H1205 C1217 0.950 . S
H1206 C1214 0.950 . S
H1207 C1216 0.950 . S
H1208 C1218 0.950 . S
H1209 C1220 0.950 . S
H1210 C1222 0.950 . S
H1211 C1223 0.950 . S
C1212 H1204 0.950 . S
C1212 C1213 1.386 . S
C1212 C1214 1.391 . S
C1213 C1212 1.386 . S
C1213 C1217 1.393 . S
C1214 H1206 0.950 . S
C1214 C1212 1.391 . S
C1214 C1215 1.400 . S
C1215 C1214 1.400 . S
C1215 C1216 1.398 . S
C1215 C1221 1.491 . S
C1216 H1207 0.950 . S
C1216 C1215 1.398 . S
C1216 C1217 1.391 . S
C1217 H1205 0.950 . S
C1217 C1213 1.393 . S
C1217 C1216 1.391 . S
C1218 H1208 0.950 . S
C1218 C1219 1.386 . S
C1218 C1220 1.391 . S
C1219 C1218 1.386 . S
C1219 C1223 1.393 . S
C1220 H1209 0.950 . S
C1220 C1218 1.391 . S
C1220 C1221 1.400 . S
C1221 C1215 1.491 . S
C1221 C1220 1.400 . S
C1221 C1222 1.398 . S
C1222 H1210 0.950 . S
C1222 C1221 1.398 . S
C1222 C1223 1.391 . S
C1223 H1211 0.950 . S
C1223 C1219 1.393 . S
C1223 C1222 1.391 . S
H1224 C1232 0.950 . S
H1225 C1237 0.950 . S
H1226 C1234 0.950 . S
H1227 C1236 0.948 1_455 S
H1228 C1238 0.950 . S
H1229 C1240 0.950 . S
H1230 C1242 0.948 1_655 S
H1231 C1243 0.950 . S
C1232 H1224 0.950 . S
C1232 C1233 1.386 . S
C1232 C1234 1.391 . S
C1233 C1232 1.386 . S
C1233 C1237 1.393 . S
C1234 H1226 0.950 . S
C1234 C1232 1.391 . S
C1234 C1235 1.400 . S
C1235 C1234 1.400 . S
C1235 C1236 1.398 . S
C1235 C1241 1.491 1_665 S
C1236 H1227 0.948 1_655 S
C1236 C1235 1.398 . S
C1236 C1237 1.391 . S
C1237 H1225 0.950 . S
C1237 C1233 1.393 . S
C1237 C1236 1.391 . S
C1238 H1228 0.950 . S
C1238 C1239 1.386 . S
C1238 C1240 1.391 . S
C1239 C1238 1.386 . S
C1239 C1243 1.393 . S
C1240 H1229 0.950 . S
C1240 C1238 1.391 . S
C1240 C1241 1.400 . S
C1241 C1235 1.491 1_445 S
C1241 C1240 1.400 . S
C1241 C1242 1.398 . S
C1242 H1230 0.948 1_455 S
C1242 C1241 1.398 . S
C1242 C1243 1.391 . S
C1243 H1231 0.950 . S
C1243 C1239 1.393 . S
C1243 C1242 1.391 . S
H1244 C1252 0.950 . S
H1245 C1257 0.950 . S
H1246 C1254 0.950 1_455 S
H1247 C1256 0.950 . S
H1248 C1258 0.950 . S
H1249 C1260 0.950 1_655 S
H1250 C1262 0.950 . S
H1251 C1263 0.950 . S
C1252 H1244 0.950 . S
C1252 C1253 1.386 . S
C1252 C1254 1.391 . S
C1253 C1252 1.386 . S
C1253 C1257 1.393 1_554 S
C1254 H1246 0.950 1_655 S
C1254 C1252 1.391 . S
C1254 C1255 1.400 . S
C1255 C1254 1.400 . S
C1255 C1256 1.398 1_554 S
C1255 C1261 1.491 1_655 S
C1256 H1247 0.950 . S
C1256 C1255 1.398 1_556 S
C1256 C1257 1.391 . S
C1257 H1245 0.950 . S
C1257 C1253 1.393 1_556 S
C1257 C1256 1.391 . S
C1258 H1248 0.950 . S
C1258 C1259 1.386 1_556 S
C1258 C1260 1.391 . S
C1259 C1258 1.386 1_554 S
C1259 C1263 1.393 . S
C1260 H1249 0.950 1_455 S
C1260 C1258 1.391 . S
C1260 C1261 1.400 1_556 S
C1261 C1255 1.491 1_455 S
C1261 C1260 1.400 1_554 S
C1261 C1262 1.398 . S
C1262 H1250 0.950 . S
C1262 C1261 1.398 . S
C1262 C1263 1.391 . S
C1263 H1251 0.950 . S
C1263 C1259 1.393 . S
C1263 C1262 1.391 . S
H1264 C1272 0.961 . S
H1265 C1277 0.950 . S
H1266 C1274 0.950 . S
H1267 C1276 0.950 . S
H1268 C1278 0.950 . S
H1269 C1280 0.950 . S
H1270 C1282 0.950 . S
H1271 C1283 0.950 . S
C1272 H1264 0.961 . S
C1272 C1273 1.347 1_565 S
C1272 C1274 1.420 . S
C1273 C1272 1.347 1_545 S
C1273 C1277 1.393 . S
C1274 H1266 0.950 . S
C1274 C1272 1.420 . S
C1274 C1275 1.400 . S
C1275 C1274 1.400 . S
C1275 C1276 1.398 1_565 S
C1275 C1281 1.491 . S
C1276 H1267 0.950 . S
C1276 C1275 1.398 1_545 S
C1276 C1277 1.391 . S
C1277 H1265 0.950 . S
C1277 C1273 1.393 . S
C1277 C1276 1.391 . S
C1278 H1268 0.950 . S
C1278 C1279 1.386 . S
C1278 C1280 1.391 . S
C1279 C1278 1.386 . S
C1279 C1283 1.393 . S
C1280 H1269 0.950 . S
C1280 C1278 1.391 . S
C1280 C1281 1.400 . S
C1281 C1275 1.491 . S
C1281 C1280 1.400 . S
C1281 C1282 1.398 . S
C1282 H1270 0.950 . S
C1282 C1281 1.398 . S
C1282 C1283 1.391 . S
C1283 H1271 0.950 . S
C1283 C1279 1.393 . S
C1283 C1282 1.391 . S
H1284 C1292 0.950 . S
H1285 C1297 0.950 . S
H1286 C1294 0.950 . S
H1287 C1296 0.950 . S
H1288 C1298 0.950 . S
H1289 C1300 0.950 . S
H1290 C1302 0.950 . S
H1291 C1303 0.950 . S
C1292 H1284 0.950 . S
C1292 C1293 1.386 1_545 S
C1292 C1294 1.391 . S
C1293 C1292 1.386 1_565 S
C1293 C1297 1.393 . S
C1294 H1286 0.950 . S
C1294 C1292 1.391 . S
C1294 C1295 1.400 . S
C1295 C1294 1.400 . S
C1295 C1296 1.398 1_545 S
C1295 C1301 1.491 . S
C1296 H1287 0.950 . S
C1296 C1295 1.398 1_565 S
C1296 C1297 1.391 . S
C1297 H1285 0.950 . S
C1297 C1293 1.393 . S
C1297 C1296 1.391 . S
C1298 H1288 0.950 . S
C1298 C1299 1.386 . S
C1298 C1300 1.391 . S
C1299 C1298 1.386 . S
C1299 C1303 1.393 . S
C1300 H1289 0.950 . S
C1300 C1298 1.391 . S
C1300 C1301 1.400 . S
C1301 C1295 1.491 . S
C1301 C1300 1.400 . S
C1301 C1302 1.398 . S
C1302 H1290 0.950 . S
C1302 C1301 1.398 . S
C1302 C1303 1.391 . S
C1303 H1291 0.950 . S
C1303 C1299 1.393 . S
C1303 C1302 1.391 . S
H1304 C1312 0.950 . S
H1305 C1317 0.950 . S
H1306 C1314 0.950 . S
H1307 C1316 0.950 . S
H1308 C1318 0.950 . S
H1309 C1320 0.950 . S
H1310 C1322 0.950 . S
H1311 C1323 0.950 . S
C1312 H1304 0.950 . S
C1312 C1313 1.386 . S
C1312 C1314 1.391 . S
C1313 C1312 1.386 . S
C1313 C1317 1.393 . S
C1314 H1306 0.950 . S
C1314 C1312 1.391 . S
C1314 C1315 1.400 . S
C1315 C1314 1.400 . S
C1315 C1316 1.398 . S
C1315 C1321 1.491 . S
C1316 H1307 0.950 . S
C1316 C1315 1.398 . S
C1316 C1317 1.391 . S
C1317 H1305 0.950 . S
C1317 C1313 1.393 . S
C1317 C1316 1.391 . S
C1318 H1308 0.950 . S
C1318 C1319 1.386 . S
C1318 C1320 1.391 . S
C1319 C1318 1.386 . S
C1319 C1323 1.393 . S
C1320 H1309 0.950 . S
C1320 C1318 1.391 . S
C1320 C1321 1.400 . S
C1321 C1315 1.491 . S
C1321 C1320 1.400 . S
C1321 C1322 1.398 . S
C1322 H1310 0.950 . S
C1322 C1321 1.398 . S
C1322 C1323 1.391 . S
C1323 H1311 0.950 . S
C1323 C1319 1.393 . S
C1323 C1322 1.391 . S
H1324 C1332 0.950 . S
H1325 C1337 0.950 . S
H1326 C1334 0.950 . S
H1327 C1336 0.950 . S
H1328 C1338 0.950 . S
H1329 C1340 0.950 . S
H1330 C1342 0.950 . S
H1331 C1343 0.950 . S
C1332 H1324 0.950 . S
C1332 C1333 1.386 . S
C1332 C1334 1.391 . S
C1333 C1332 1.386 . S
C1333 C1337 1.393 . S
C1334 H1326 0.950 . S
C1334 C1332 1.391 . S
C1334 C1335 1.400 . S
C1335 C1334 1.400 . S
C1335 C1336 1.398 . S
C1335 C1341 1.491 . S
C1336 H1327 0.950 . S
C1336 C1335 1.398 . S
C1336 C1337 1.391 . S
C1337 H1325 0.950 . S
C1337 C1333 1.393 . S
C1337 C1336 1.391 . S
C1338 H1328 0.950 . S
C1338 C1339 1.386 . S
C1338 C1340 1.391 . S
C1339 C1338 1.386 . S
C1339 C1343 1.393 . S
C1340 H1329 0.950 . S
C1340 C1338 1.391 . S
C1340 C1341 1.400 . S
C1341 C1335 1.491 . S
C1341 C1340 1.400 . S
C1341 C1342 1.398 . S
C1342 H1330 0.950 . S
C1342 C1341 1.398 . S
C1342 C1343 1.391 . S
C1343 H1331 0.950 . S
C1343 C1339 1.393 . S
C1343 C1342 1.391 . S
H1344 C1352 0.950 . S
H1345 C1357 0.950 . S
H1346 C1354 0.950 . S
H1347 C1356 0.950 . S
H1348 C1358 0.950 . S
H1349 C1360 0.950 . S
H1350 C1362 0.950 . S
H1351 C1363 0.950 . S
C1352 H1344 0.950 . S
C1352 C1353 1.386 . S
C1352 C1354 1.391 . S
C1353 C1352 1.386 . S
C1353 C1357 1.393 . S
C1354 H1346 0.950 . S
C1354 C1352 1.391 . S
C1354 C1355 1.400 . S
C1355 C1354 1.400 . S
C1355 C1356 1.398 . S
C1355 C1361 1.491 . S
C1356 H1347 0.950 . S
C1356 C1355 1.398 . S
C1356 C1357 1.391 . S
C1357 H1345 0.950 . S
C1357 C1353 1.393 . S
C1357 C1356 1.391 . S
C1358 H1348 0.950 . S
C1358 C1359 1.386 . S
C1358 C1360 1.391 . S
C1359 C1358 1.386 . S
C1359 C1363 1.393 . S
C1360 H1349 0.950 . S
C1360 C1358 1.391 . S
C1360 C1361 1.400 . S
C1361 C1355 1.491 . S
C1361 C1360 1.400 . S
C1361 C1362 1.398 . S
C1362 H1350 0.950 . S
C1362 C1361 1.398 . S
C1362 C1363 1.391 . S
C1363 H1351 0.950 . S
C1363 C1359 1.393 . S
C1363 C1362 1.391 . S
H1364 C1372 0.950 . S
H1365 C1377 0.950 . S
H1366 C1374 0.950 . S
H1367 C1376 0.950 . S
H1368 C1378 0.950 . S
H1369 C1380 0.950 . S
H1370 C1382 0.950 . S
H1371 C1383 0.950 . S
C1372 H1364 0.950 . S
C1372 C1373 1.386 . S
C1372 C1374 1.391 . S
C1373 C1372 1.386 . S
C1373 C1377 1.393 . S
C1374 H1366 0.950 . S
C1374 C1372 1.391 . S
C1374 C1375 1.400 . S
C1375 C1374 1.400 . S
C1375 C1376 1.398 . S
C1375 C1381 1.491 . S
C1376 H1367 0.950 . S
C1376 C1375 1.398 . S
C1376 C1377 1.391 . S
C1377 H1365 0.950 . S
C1377 C1373 1.393 . S
C1377 C1376 1.391 . S
C1378 H1368 0.950 . S
C1378 C1379 1.386 . S
C1378 C1380 1.391 . S
C1379 C1378 1.386 . S
C1379 C1383 1.393 . S
C1380 H1369 0.950 . S
C1380 C1378 1.391 . S
C1380 C1381 1.400 . S
C1381 C1375 1.491 . S
C1381 C1380 1.400 . S
C1381 C1382 1.398 . S
C1382 H1370 0.950 . S
C1382 C1381 1.398 . S
C1382 C1383 1.391 . S
C1383 H1371 0.950 . S
C1383 C1379 1.393 . S
C1383 C1382 1.391 . S
H1384 C1392 0.950 . S
H1385 C1397 0.950 . S
H1386 C1394 0.950 . S
H1387 C1396 0.950 . S
H1388 C1398 0.950 . S
H1389 C1400 0.950 . S
H1390 C1402 0.950 . S
H1391 C1403 0.950 . S
C1392 H1384 0.950 . S
C1392 C1393 1.386 . S
C1392 C1394 1.391 . S
C1393 C1392 1.386 . S
C1393 C1397 1.393 . S
C1394 H1386 0.950 . S
C1394 C1392 1.391 . S
C1394 C1395 1.400 . S
C1395 C1394 1.400 . S
C1395 C1396 1.398 . S
C1395 C1401 1.491 . S
C1396 H1387 0.950 . S
C1396 C1395 1.398 . S
C1396 C1397 1.391 . S
C1397 H1385 0.950 . S
C1397 C1393 1.393 . S
C1397 C1396 1.391 . S
C1398 H1388 0.950 . S
C1398 C1399 1.386 . S
C1398 C1400 1.391 . S
C1399 C1398 1.386 . S
C1399 C1403 1.393 . S
C1400 H1389 0.950 . S
C1400 C1398 1.391 . S
C1400 C1401 1.400 . S
C1401 C1395 1.491 . S
C1401 C1400 1.400 . S
C1401 C1402 1.398 . S
C1402 H1390 0.950 . S
C1402 C1401 1.398 . S
C1402 C1403 1.391 . S
C1403 H1391 0.950 . S
C1403 C1399 1.393 . S
C1403 C1402 1.391 . S
H1404 C1412 0.950 . S
H1405 C1417 0.950 . S
H1406 C1414 0.950 . S
H1407 C1416 0.950 . S
H1408 C1418 0.950 . S
H1409 C1420 0.950 . S
H1410 C1422 0.950 . S
H1411 C1423 0.950 . S
C1412 H1404 0.950 . S
C1412 C1413 1.386 . S
C1412 C1414 1.391 . S
C1413 C1412 1.386 . S
C1413 C1417 1.393 . S
C1414 H1406 0.950 . S
C1414 C1412 1.391 . S
C1414 C1415 1.400 . S
C1415 C1414 1.400 . S
C1415 C1416 1.398 . S
C1415 C1421 1.491 . S
C1416 H1407 0.950 . S
C1416 C1415 1.398 . S
C1416 C1417 1.391 . S
C1417 H1405 0.950 . S
C1417 C1413 1.393 . S
C1417 C1416 1.391 . S
C1418 H1408 0.950 . S
C1418 C1419 1.386 . S
C1418 C1420 1.391 . S
C1419 C1418 1.386 . S
C1419 C1423 1.393 . S
C1420 H1409 0.950 . S
C1420 C1418 1.391 . S
C1420 C1421 1.400 . S
C1421 C1415 1.491 . S
C1421 C1420 1.400 . S
C1421 C1422 1.398 . S
C1422 H1410 0.950 . S
C1422 C1421 1.398 . S
C1422 C1423 1.391 . S
C1423 H1411 0.950 . S
C1423 C1419 1.393 . S
C1423 C1422 1.391 . S
H1424 C1432 0.950 . S
H1425 C1437 0.950 . S
H1426 C1434 0.950 . S
H1427 C1436 0.950 . S
H1428 C1438 0.950 . S
H1429 C1440 0.951 . S
H1430 C1442 0.950 . S
H1431 C1443 0.950 . S
C1432 H1424 0.950 . S
C1432 C1433 1.386 . S
C1432 C1434 1.391 . S
C1433 C1432 1.386 . S
C1433 C1437 1.393 . S
C1434 H1426 0.950 . S
C1434 C1432 1.391 . S
C1434 C1435 1.400 . S
C1435 C1434 1.400 . S
C1435 C1436 1.398 . S
C1435 C1441 1.491 . S
C1436 H1427 0.950 . S
C1436 C1435 1.398 . S
C1436 C1437 1.391 . S
C1437 H1425 0.950 . S
C1437 C1433 1.393 . S
C1437 C1436 1.391 . S
C1438 H1428 0.950 . S
C1438 C1439 1.386 . S
C1438 C1440 1.391 . S
C1439 C1438 1.386 . S
C1439 C1443 1.393 . S
C1440 H1429 0.951 . S
C1440 C1438 1.391 . S
C1440 C1441 1.400 1_545 S
C1441 C1435 1.491 . S
C1441 C1440 1.400 1_565 S
C1441 C1442 1.398 . S
C1442 H1430 0.950 . S
C1442 C1441 1.398 . S
C1442 C1443 1.391 1_565 S
C1443 H1431 0.950 . S
C1443 C1439 1.393 . S
C1443 C1442 1.391 1_545 S
H1444 C1452 0.950 . S
H1445 C1457 0.950 . S
H1446 C1454 0.950 . S
H1447 C1456 0.950 . S
H1448 C1458 0.950 . S
H1449 C1460 0.950 . S
H1450 C1462 0.950 . S
H1451 C1463 0.950 . S
C1452 H1444 0.950 . S
C1452 C1453 1.386 1_545 S
C1452 C1454 1.391 . S
C1453 C1452 1.386 1_565 S
C1453 C1457 1.393 . S
C1454 H1446 0.950 . S
C1454 C1452 1.391 . S
C1454 C1455 1.400 . S
C1455 C1454 1.400 . S
C1455 C1456 1.398 1_545 S
C1455 C1461 1.491 . S
C1456 H1447 0.950 . S
C1456 C1455 1.398 1_565 S
C1456 C1457 1.391 . S
C1457 H1445 0.950 . S
C1457 C1453 1.393 . S
C1457 C1456 1.391 . S
C1458 H1448 0.950 . S
C1458 C1459 1.386 . S
C1458 C1460 1.391 . S
C1459 C1458 1.386 . S
C1459 C1463 1.393 . S
C1460 H1449 0.950 . S
C1460 C1458 1.391 . S
C1460 C1461 1.400 . S
C1461 C1455 1.491 . S
C1461 C1460 1.400 . S
C1461 C1462 1.398 . S
C1462 H1450 0.950 . S
C1462 C1461 1.398 . S
C1462 C1463 1.391 . S
C1463 H1451 0.950 . S
C1463 C1459 1.393 . S
C1463 C1462 1.391 . S
H1464 C1472 0.950 . S
H1465 C1477 0.950 . S
H1466 C1474 0.950 . S
H1467 C1476 0.950 . S
H1468 C1478 0.950 . S
H1469 C1480 0.950 . S
H1470 C1482 0.950 . S
H1471 C1483 0.950 . S
C1472 H1464 0.950 . S
C1472 C1473 1.386 . S
C1472 C1474 1.391 . S
C1473 C1472 1.386 . S
C1473 C1477 1.393 . S
C1474 H1466 0.950 . S
C1474 C1472 1.391 . S
C1474 C1475 1.400 . S
C1475 C1474 1.400 . S
C1475 C1476 1.398 . S
C1475 C1481 1.491 . S
C1476 H1467 0.950 . S
C1476 C1475 1.398 . S
C1476 C1477 1.391 . S
C1477 H1465 0.950 . S
C1477 C1473 1.393 . S
C1477 C1476 1.391 . S
C1478 H1468 0.950 . S
C1478 C1479 1.386 . S
C1478 C1480 1.391 . S
C1479 C1478 1.386 . S
C1479 C1483 1.393 . S
C1480 H1469 0.950 . S
C1480 C1478 1.391 . S
C1480 C1481 1.400 . S
C1481 C1475 1.491 . S
C1481 C1480 1.400 . S
C1481 C1482 1.398 . S
C1482 H1470 0.950 . S
C1482 C1481 1.398 . S
C1482 C1483 1.391 . S
C1483 H1471 0.950 . S
C1483 C1479 1.393 . S
C1483 C1482 1.391 . S
H1484 C1492 0.950 . S
H1485 C1497 0.950 . S
H1486 C1494 0.950 . S
H1487 C1496 0.950 . S
H1488 C1498 0.950 . S
H1489 C1500 0.950 . S
H1490 C1502 0.950 . S
H1491 C1503 0.950 . S
C1492 H1484 0.950 . S
C1492 C1493 1.386 . S
C1492 C1494 1.391 . S
C1493 C1492 1.386 . S
C1493 C1497 1.393 . S
C1494 H1486 0.950 . S
C1494 C1492 1.391 . S
C1494 C1495 1.400 . S
C1495 C1494 1.400 . S
C1495 C1496 1.398 . S
C1495 C1501 1.491 . S
C1496 H1487 0.950 . S
C1496 C1495 1.398 . S
C1496 C1497 1.391 . S
C1497 H1485 0.950 . S
C1497 C1493 1.393 . S
C1497 C1496 1.391 . S
C1498 H1488 0.950 . S
C1498 C1499 1.386 . S
C1498 C1500 1.391 . S
C1499 C1498 1.386 . S
C1499 C1503 1.393 . S
C1500 H1489 0.950 . S
C1500 C1498 1.391 . S
C1500 C1501 1.400 . S
C1501 C1495 1.491 . S
C1501 C1500 1.400 . S
C1501 C1502 1.398 . S
C1502 H1490 0.950 . S
C1502 C1501 1.398 . S
C1502 C1503 1.391 . S
C1503 H1491 0.950 . S
C1503 C1499 1.393 . S
C1503 C1502 1.391 . S
H1504 C1512 0.950 . S
H1505 C1517 0.950 . S
H1506 C1514 0.950 . S
H1507 C1516 0.950 . S
H1508 C1518 0.950 . S
H1509 C1520 0.950 . S
H1510 C1522 0.950 . S
H1511 C1523 0.950 . S
C1512 H1504 0.950 . S
C1512 C1513 1.386 . S
C1512 C1514 1.391 . S
C1513 C1512 1.386 . S
C1513 C1517 1.393 . S
C1514 H1506 0.950 . S
C1514 C1512 1.391 . S
C1514 C1515 1.400 . S
C1515 C1514 1.400 . S
C1515 C1516 1.398 . S
C1515 C1521 1.491 . S
C1516 H1507 0.950 . S
C1516 C1515 1.398 . S
C1516 C1517 1.391 . S
C1517 H1505 0.950 . S
C1517 C1513 1.393 . S
C1517 C1516 1.391 . S
C1518 H1508 0.950 . S
C1518 C1519 1.386 . S
C1518 C1520 1.391 . S
C1519 C1518 1.386 . S
C1519 C1523 1.393 . S
C1520 H1509 0.950 . S
C1520 C1518 1.391 . S
C1520 C1521 1.400 . S
C1521 C1515 1.491 . S
C1521 C1520 1.400 . S
C1521 C1522 1.398 . S
C1522 H1510 0.950 . S
C1522 C1521 1.398 . S
C1522 C1523 1.391 . S
C1523 H1511 0.950 . S
C1523 C1519 1.393 . S
C1523 C1522 1.391 . S
H1524 C1532 0.950 . S
H1525 C1537 0.950 . S
H1526 C1534 0.950 . S
H1527 C1536 0.950 . S
H1528 C1538 0.950 . S
H1529 C1540 0.950 . S
H1530 C1542 0.950 . S
H1531 C1543 0.950 . S
C1532 H1524 0.950 . S
C1532 C1533 1.386 . S
C1532 C1534 1.391 . S
C1533 C1532 1.386 . S
C1533 C1537 1.393 . S
C1534 H1526 0.950 . S
C1534 C1532 1.391 . S
C1534 C1535 1.400 . S
C1535 C1534 1.400 . S
C1535 C1536 1.398 . S
C1535 C1541 1.491 . S
C1536 H1527 0.950 . S
C1536 C1535 1.398 . S
C1536 C1537 1.391 . S
C1537 H1525 0.950 . S
C1537 C1533 1.393 . S
C1537 C1536 1.391 . S
C1538 H1528 0.950 . S
C1538 C1539 1.386 . S
C1538 C1540 1.391 . S
C1539 C1538 1.386 . S
C1539 C1543 1.393 . S
C1540 H1529 0.950 . S
C1540 C1538 1.391 . S
C1540 C1541 1.400 . S
C1541 C1535 1.491 . S
C1541 C1540 1.400 . S
C1541 C1542 1.398 . S
C1542 H1530 0.950 . S
C1542 C1541 1.398 . S
C1542 C1543 1.391 . S
C1543 H1531 0.950 . S
C1543 C1539 1.393 . S
C1543 C1542 1.391 . S
H1544 C1552 0.950 . S
H1545 C1557 0.950 . S
H1546 C1554 0.950 . S
H1547 C1556 0.950 . S
H1548 C1558 0.950 . S
H1549 C1560 0.950 . S
H1550 C1562 0.950 . S
H1551 C1563 0.950 . S
C1552 H1544 0.950 . S
C1552 C1553 1.386 . S
C1552 C1554 1.391 . S
C1553 C1552 1.386 . S
C1553 C1557 1.393 . S
C1554 H1546 0.950 . S
C1554 C1552 1.391 . S
C1554 C1555 1.400 . S
C1555 C1554 1.400 . S
C1555 C1556 1.398 . S
C1555 C1561 1.491 . S
C1556 H1547 0.950 . S
C1556 C1555 1.398 . S
C1556 C1557 1.391 . S
C1557 H1545 0.950 . S
C1557 C1553 1.393 . S
C1557 C1556 1.391 . S
C1558 H1548 0.950 . S
C1558 C1559 1.386 . S
C1558 C1560 1.391 . S
C1559 C1558 1.386 . S
C1559 C1563 1.393 . S
C1560 H1549 0.950 . S
C1560 C1558 1.391 . S
C1560 C1561 1.400 . S
C1561 C1555 1.491 . S
C1561 C1560 1.400 . S
C1561 C1562 1.398 . S
C1562 H1550 0.950 . S
C1562 C1561 1.398 . S
C1562 C1563 1.391 . S
C1563 H1551 0.950 . S
C1563 C1559 1.393 . S
C1563 C1562 1.391 . S
H1564 C1572 0.950 . S
H1565 C1577 0.950 . S
H1566 C1574 0.950 . S
H1567 C1576 0.950 . S
H1568 C1578 0.950 . S
H1569 C1580 0.950 . S
H1570 C1582 0.950 . S
H1571 C1583 0.950 . S
C1572 H1564 0.950 . S
C1572 C1573 1.386 . S
C1572 C1574 1.391 . S
C1573 C1572 1.386 . S
C1573 C1577 1.393 . S
C1574 H1566 0.950 . S
C1574 C1572 1.391 . S
C1574 C1575 1.400 . S
C1575 C1574 1.400 . S
C1575 C1576 1.398 . S
C1575 C1581 1.491 . S
C1576 H1567 0.950 . S
C1576 C1575 1.398 . S
C1576 C1577 1.391 . S
C1577 H1565 0.950 . S
C1577 C1573 1.393 . S
C1577 C1576 1.391 . S
C1578 H1568 0.950 . S
C1578 C1579 1.386 . S
C1578 C1580 1.391 . S
C1579 C1578 1.386 . S
C1579 C1583 1.393 . S
C1580 H1569 0.950 . S
C1580 C1578 1.391 . S
C1580 C1581 1.400 . S
C1581 C1575 1.491 . S
C1581 C1580 1.400 . S
C1581 C1582 1.398 . S
C1582 H1570 0.950 . S
C1582 C1581 1.398 . S
C1582 C1583 1.391 . S
C1583 H1571 0.950 . S
C1583 C1579 1.393 . S
C1583 C1582 1.391 . S
C473 C3 0.839 . S
C479 C158 0.794 . S
C493 C32 0.819 . S
C499 C129 0.844 . S
C513 C61 0.820 . S
C519 C332 0.845 . S
C533 C90 0.842 . S
C539 C303 0.791 . S
C553 C42 0.816 . S
C559 C119 0.834 . S
C573 C148 0.842 . S
C579 C13 0.788 . S
C593 C177 0.821 . S
C599 C448 0.838 . S
C613 C419 0.799 . S
C619 C206 0.839 . S
C633 C390 0.819 . S
C639 C235 0.833 . S
C653 C361 0.803 . S
C659 C264 0.837 . S
C673 C100 0.794 . S
C679 C293 0.839 . S
C693 C322 0.841 . S
C699 C71 0.794 . S
C713 C351 0.839 . S
C719 C274 0.795 . S
C733 C380 0.832 . S
C739 C245 0.817 . S
C753 C409 0.825 . S
C759 C216 0.833 . S
C773 C187 0.801 . S
C779 C438 0.836 . S
C793 C15 2.237 . S
C799 C21 2.097 . S
C813 C50 2.077 . S
C819 C44 2.232 . S
C833 C79 2.076 . S
C839 C73 2.247 . S
C853 C108 2.096 . S
C859 C102 2.244 . S
C873 C131 2.241 . S
C879 C137 2.069 . S
C893 C160 2.247 . S
C899 C166 2.091 . S
C913 C189 2.242 . S
C919 C195 2.069 1_554 S
C933 C224 2.096 1_554 S
C939 C218 2.237 . S
C953 C247 2.247 . S
C959 C253 2.092 . S
C973 C276 2.235 . S
C979 C282 2.070 . S
C993 C311 2.070 1_554 S
C999 C305 2.244 . S
C1013 C334 2.231 . S
C1019 C340 2.081 1_554 S
C1033 C369 2.087 . S
C1039 C363 2.248 . S
C1053 C398 2.075 . S
C1059 C392 2.247 . S
C1073 C421 2.248 . S
C1079 C427 2.087 . S
C1093 C450 2.232 . S
C1099 C456 2.076 . S
C1113 C10 1.621 . S
C1119 C39 1.637 . S
C1133 C68 1.632 . S
C1139 C445 1.614 . S
C1153 C97 1.617 . S
C1159 C416 1.638 . S
C1173 C155 1.638 . S
C1179 C126 1.620 . S
C1193 C329 1.630 . S
C1199 C184 1.615 . S
C1213 C213 1.637 . S
C1219 C300 1.616 . S
C1233 C271 1.619 . S
C1239 C242 1.623 . S
C1253 C387 1.631 . S
C1259 C358 1.615 . S
C1273 C8 1.519 . S
C1279 C179 1.547 . S
C1293 C37 1.521 . S
C1299 C208 1.550 . S
C1313 C66 1.497 . S
C1319 C5 1.533 . S
C1333 C34 1.554 . S
C1339 C95 1.524 . S
C1353 C63 1.546 . S
C1359 C124 1.511 . S
C1373 C92 1.554 . S
C1379 C153 1.525 . S
C1393 C182 1.514 . S
C1399 C121 1.549 . S
C1413 C150 1.540 . S
C1419 C211 1.510 . S
C1433 C411 1.541 . S
C1439 C240 1.511 . S
C1453 C269 1.525 . S
C1459 C440 1.553 . S
C1473 C237 1.552 . S
C1479 C298 1.519 . S
C1493 C327 1.516 . S
C1499 C266 1.550 . S
C1513 C356 1.506 . S
C1519 C295 1.543 . S
C1533 C324 1.554 . S
C1539 C385 1.526 . S
C1553 C414 1.515 . S
C1559 C353 1.542 . S
C1573 C443 1.501 . S
C1579 C382 1.533 . S
