# Generated by pormake.
# Topology dmp, (4)-cn, num edge types: 1
# Building blocks:
#     Node 0, Type 0, BuildingBlock: NAHDIM_clean_sbu_0, # of connection points: 4
#     Node 1, Type 0, BuildingBlock: NAHDIM_clean_sbu_0, # of connection points: 4
#     Node 2, Type 0, BuildingBlock: NAHDIM_clean_sbu_0, # of connection points: 4
#     Node 3, Type 0, BuildingBlock: NAHDIM_clean_sbu_0, # of connection points: 4
#     Edge 4, Type (0, 0), BuildingBlock: UVAHIK_clean_linker_0, # of connection points: 2
#     Edge 5, Type (0, 0), BuildingBlock: UVAHIK_clean_linker_0, # of connection points: 2
#     Edge 6, Type (0, 0), BuildingBlock: UVAHIK_clean_linker_0, # of connection points: 2
#     Edge 7, Type (0, 0), BuildingBlock: UVAHIK_clean_linker_0, # of connection points: 2
#     Edge 8, Type (0, 0), BuildingBlock: UVAHIK_clean_linker_0, # of connection points: 2
#     Edge 9, Type (0, 0), BuildingBlock: UVAHIK_clean_linker_0, # of connection points: 2
#     Edge 10, Type (0, 0), BuildingBlock: UVAHIK_clean_linker_0, # of connection points: 2
#     Edge 11, Type (0, 0), BuildingBlock: UVAHIK_clean_linker_0, # of connection points: 2
# Relax obj value: 0.250
# Max RMSD: 0.272
# Mean RMSD: 0.272
data_MOF--net-dmp--node1-NAHDIM_clean_sbu_0--edge1-UVAHIK_clean_linker_0
_symmetry_space_group_name_H-M    P1
_symmetry_Int_Tables_number       1
_symmetry_cell_setting            triclinic
loop_
_symmetry_equiv_pos_as_xyz
'x, y, z'
_cell_length_a     48.135447
_cell_length_b     22.312305
_cell_length_c     24.60283
_cell_angle_alpha  90.032772
_cell_angle_beta   89.874185
_cell_angle_gamma 95.755204
loop_
_atom_site_label
_atom_site_type_symbol
_atom_site_fract_x
_atom_site_fract_y
_atom_site_fract_z
_atom_type_partial_charge
C0 C 0.0757 0.33187 0.30376 0.0
O1 O 0.08247 0.35061 0.25443 0.0
O2 O 0.08027 0.17995 0.22243 0.0
Zn3 Zn 0.10518 0.23319 0.27096 0.0
O4 O 0.13093 0.28999 0.2268 0.0
C5 C 0.11892 0.13651 0.34164 0.0
O6 O 0.09215 0.11833 0.33866 0.0
O7 O 0.08276 0.28147 0.31977 0.0
C8 C 0.1479 0.27309 0.19172 0.0
O9 O 0.1486 0.21528 0.18232 0.0
C10 C 0.07043 0.20075 0.17931 0.0
O11 O 0.07663 0.25784 0.1671 0.0
O12 O 0.12854 0.18364 0.31624 0.0
C13 C 0.44003 0.76306 0.34943 0.0
O14 O 0.45375 0.79304 0.3102 0.0
O15 O 0.41157 0.85235 0.24474 0.0
Zn16 Zn 0.38943 0.79793 0.29737 0.0
O17 O 0.36861 0.72975 0.25654 0.0
C18 C 0.343 0.81042 0.36512 0.0
O19 O 0.34398 0.75188 0.3683 0.0
O20 O 0.41361 0.76155 0.35165 0.0
C21 C 0.35585 0.73663 0.21217 0.0
O22 O 0.35631 0.7907 0.19087 0.0
C23 C 0.42365 0.82864 0.20539 0.0
O24 O 0.42216 0.76964 0.2018 0.0
O25 O 0.36123 0.84164 0.33682 0.0
C26 C 0.92876 0.67977 0.67701 0.0
O27 O 0.92351 0.65789 0.72594 0.0
O28 O 0.90835 0.81332 0.76455 0.0
Zn29 Zn 0.88862 0.75762 0.71 0.0
O30 O 0.86598 0.68925 0.74722 0.0
C31 C 0.86065 0.85712 0.66806 0.0
O32 O 0.87786 0.88993 0.70015 0.0
O33 O 0.91636 0.72412 0.66097 0.0
C34 C 0.84976 0.6973 0.78678 0.0
O35 O 0.8483 0.75209 0.80542 0.0
C36 C 0.9176 0.79424 0.80893 0.0
O37 O 0.91429 0.73629 0.81963 0.0
O38 O 0.86209 0.8007 0.66529 0.0
C39 C 0.54236 0.27522 0.6373 0.0
O40 O 0.52824 0.25188 0.67923 0.0
O41 O 0.56214 0.16383 0.73186 0.0
Zn42 Zn 0.58728 0.20958 0.67777 0.0
O43 O 0.61495 0.26584 0.7181 0.0
C44 C 0.61053 0.09989 0.64877 0.0
O45 O 0.59583 0.0784 0.69072 0.0
O46 O 0.5668 0.26082 0.6282 0.0
C47 C 0.6305 0.24909 0.75566 0.0
O48 O 0.62853 0.19204 0.76981 0.0
C49 C 0.55507 0.18925 0.77527 0.0
O50 O 0.56308 0.24668 0.78283 0.0
O51 O 0.60914 0.15419 0.63451 0.0
C52 C 0.31959 0.90164 0.38984 0.0
C53 C 0.31947 0.83869 0.38947 0.0
C54 C 0.29607 0.92827 0.40699 0.0
C55 C 0.221 0.89663 0.40671 0.0
H56 H 0.22391 0.0523 0.47774 0.0
C57 C 0.12961 0.04196 0.38907 0.0
C58 C 0.13832 0.10045 0.37061 0.0
C59 C 0.14901 0.00578 0.41063 0.0
C60 C 0.2227 0.00863 0.45815 0.0
H61 H 0.29519 0.75434 0.40965 0.0
H62 H 0.25391 0.8011 0.43906 0.0
H63 H 0.26447 -0.00517 0.48118 0.0
H64 H 0.17375 0.1683 0.3636 0.0
H65 H 0.20739 0.10539 0.40023 0.0
H66 H 0.18001 0.9119 0.38062 0.0
C67 C 0.27222 0.82968 0.42595 0.0
C68 C 0.24588 0.97578 0.46018 0.0
C69 C 0.29587 0.80301 0.4092 0.0
C70 C 0.16639 0.12324 0.37703 0.0
C71 C 0.18567 0.08732 0.39867 0.0
C72 C 0.19787 0.92959 0.40446 0.0
C73 C 0.27189 0.8925 0.42383 0.0
C74 C 0.24565 0.92065 0.43253 0.0
C75 C 0.17737 0.02766 0.41442 0.0
C76 C 0.19894 0.98712 0.42812 0.0
H77 H 0.33752 0.93036 0.37519 0.0
H78 H 0.29634 0.97678 0.40425 0.0
H79 H 0.22027 0.85447 0.38466 0.0
H80 H 0.10807 0.02329 0.38497 0.0
H81 H 0.14197 0.96014 0.42286 0.0
C82 C 0.19086 0.30051 0.13542 0.0
C83 C 0.16852 0.31821 0.16641 0.0
C84 C 0.21223 0.34334 0.11787 0.0
C85 C 0.26322 0.43367 0.13241 0.0
H86 H 0.25098 0.60044 0.10701 0.0
C87 C 0.33674 0.62844 0.21318 0.0
C88 C 0.33921 0.68465 0.18702 0.0
C89 C 0.319 0.5806 0.19267 0.0
C90 C 0.255 0.55399 0.11278 0.0
H91 H 0.15005 0.395 0.20005 0.0
H92 H 0.18727 0.46892 0.17071 0.0
H93 H 0.21217 0.52247 0.09898 0.0
H94 H 0.32628 0.73373 0.11691 0.0
H95 H 0.29543 0.64964 0.08059 0.0
H96 H 0.30597 0.46528 0.14693 0.0
C97 C 0.18836 0.42237 0.15919 0.0
C98 C 0.23262 0.5093 0.10883 0.0
C99 C 0.16708 0.37975 0.17662 0.0
C100 C 0.3246 0.69112 0.13833 0.0
C101 C 0.30688 0.643 0.11759 0.0
C102 C 0.28566 0.47829 0.13583 0.0
C103 C 0.21158 0.40459 0.13089 0.0
C104 C 0.23619 0.44908 0.12134 0.0
C105 C 0.3034 0.58758 0.14524 0.0
C106 C 0.28151 0.53929 0.12878 0.0
H107 H 0.19244 0.25343 0.12652 0.0
H108 H 0.22967 0.32829 0.09556 0.0
H109 H 0.26678 0.38778 0.1423 0.0
H110 H 0.34775 0.62183 0.25072 0.0
H111 H 0.31654 0.53903 0.21567 0.0
C112 C 0.63823 0.01108 0.64862 0.0
C113 C 0.63204 0.0652 0.62457 0.0
C114 C 0.66176 0.9839 0.63241 0.0
C115 C 0.71046 0.92596 0.58596 0.0
H116 H 0.77576 0.04225 0.57585 0.0
C117 C 0.82022 0.84973 0.60383 0.0
C118 C 0.83754 0.88387 0.64078 0.0
C119 C 0.79615 0.87191 0.58367 0.0
C120 C 0.75774 0.00914 0.57841 0.0
H121 H 0.64414 0.13025 0.56115 0.0
H122 H 0.68496 0.08205 0.53212 0.0
H123 H 0.72949 0.07678 0.5736 0.0
H124 H 0.84411 0.96938 0.68309 0.0
H125 H 0.80188 0.00735 0.64931 0.0
H126 H 0.73872 0.85886 0.59526 0.0
C127 C 0.67205 0.06153 0.56453 0.0
C128 C 0.73114 0.02884 0.57632 0.0
C129 C 0.64859 0.08897 0.58101 0.0
C130 C 0.83118 0.94194 0.65474 0.0
C131 C 0.80701 0.9639 0.63497 0.0
C132 C 0.73706 0.90632 0.58855 0.0
C133 C 0.67951 0.00997 0.59146 0.0
C134 C 0.7072 0.9877 0.58216 0.0
C135 C 0.7888 0.92849 0.60035 0.0
C136 C 0.76101 0.94797 0.58687 0.0
H137 H 0.62584 0.99144 0.68213 0.0
H138 H 0.66695 0.94458 0.6545 0.0
H139 H 0.69244 0.89298 0.58951 0.0
H140 H 0.82477 0.80505 0.59175 0.0
H141 H 0.78288 0.84396 0.55629 0.0
C142 C 0.81144 0.65474 0.84906 0.0
C143 C 0.83069 0.64629 0.80742 0.0
C144 C 0.79117 0.60813 0.86361 0.0
C145 C 0.76888 0.44443 0.84115 0.0
H146 H 0.69454 0.49675 0.84684 0.0
C147 C 0.65328 0.35402 0.76491 0.0
C148 C 0.65156 0.2933 0.78079 0.0
C149 C 0.67439 0.39536 0.78495 0.0
C150 C 0.71517 0.48134 0.84556 0.0
H151 H 0.8449 0.58123 0.75077 0.0
H152 H 0.80935 0.50102 0.77488 0.0
H153 H 0.73494 0.57106 0.85159 0.0
H154 H 0.66992 0.22886 0.83214 0.0
H155 H 0.70687 0.30156 0.86757 0.0
H156 H 0.74901 0.35513 0.83074 0.0
C157 C 0.81 0.54304 0.79711 0.0
C158 C 0.73839 0.52393 0.84904 0.0
C159 C 0.83029 0.58938 0.78283 0.0
C160 C 0.67081 0.27529 0.81886 0.0
C161 C 0.69201 0.31685 0.83902 0.0
C162 C 0.74563 0.40186 0.8372 0.0
C163 C 0.78972 0.55228 0.83665 0.0
C164 C 0.76553 0.50622 0.84468 0.0
C165 C 0.69429 0.37717 0.82157 0.0
C166 C 0.71853 0.42017 0.83713 0.0
H167 H 0.81141 0.6979 0.86922 0.0
H168 H 0.77614 0.61643 0.89485 0.0
H169 H 0.78951 0.42914 0.83885 0.0
H170 H 0.63876 0.3695 0.73577 0.0
H171 H 0.67576 0.44114 0.76981 0.0
C172 C 0.04686 0.0993 0.15519 0.0
C173 C 0.05287 0.16068 0.14265 0.0
C174 C 0.0309 0.06099 0.11986 0.0
C175 C 0.00956 0.04655 0.97679 0.0
H176 H 0.95407 0.92356 0.03229 0.0
C177 C 0.93589 0.89883 0.83587 0.0
C178 C 0.93193 0.837 0.84797 0.0
C179 C 0.94969 0.93928 0.87243 0.0
C180 C 0.96967 0.95736 0.01627 0.0
H181 H 0.04648 0.23024 0.08367 0.0
H182 H 0.01839 0.16333 0.02221 0.0
H183 H 0.97963 0.99318 0.09534 0.0
H184 H 0.93916 0.76915 0.90806 0.0
H185 H 0.96346 0.83988 0.97174 0.0
H186 H -0.0003 0.0106 0.89778 0.0
C187 C 0.02634 0.14475 0.05903 0.0
C188 C 0.98429 -0.0028 0.05233 0.0
C189 C 0.04231 0.1831 0.09438 0.0
C190 C 0.94187 0.81653 0.89757 0.0
C191 C 0.95564 0.85704 0.93419 0.0
C192 C -0.00508 0.00677 0.94076 0.0
C193 C 0.02061 0.08323 0.07127 0.0
C194 C 0.00447 0.04205 0.03297 0.0
C195 C 0.95978 0.91879 0.92187 0.0
C196 C 0.97491 0.96163 0.96014 0.0
H197 H 0.05472 0.08059 0.19203 0.0
H198 H 0.02713 0.01365 0.13009 0.0
H199 H 0.02529 0.08001 0.96073 0.0
H200 H 0.92838 0.9161 0.7981 0.0
H201 H 0.95227 0.98672 0.86214 0.0
C202 C 0.53098 0.18174 0.86557 0.0
C203 C 0.53963 0.15364 0.81819 0.0
C204 C 0.51789 0.1475 0.90758 0.0
C205 C 0.51234 -0.0047 0.96482 0.0
H206 H 0.44695 0.04371 0.03874 0.0
C207 C 0.44871 0.84026 0.11643 0.0
C208 C 0.43814 0.86671 0.16292 0.0
C209 C 0.46139 0.87614 0.07514 0.0
C210 C 0.46543 0.03004 0.019 0.0
H211 H 0.54082 0.06776 0.77717 0.0
H212 H 0.51794 0.00813 0.8505 0.0
H213 H 0.46785 0.10505 0.96431 0.0
H214 H 0.43301 0.95152 0.2031 0.0
H215 H 0.45564 0.01417 0.13137 0.0
H216 H 0.51016 0.92065 0.01959 0.0
C217 C 0.52152 0.05656 0.85531 0.0
C218 C 0.47732 0.06507 0.97631 0.0
C219 C 0.53445 0.09077 0.81321 0.0
C220 C 0.44086 0.92979 0.16765 0.0
C221 C 0.45365 0.9657 0.1264 0.0
C222 C 0.50055 0.96046 0.00763 0.0
C223 C 0.51337 0.08451 0.90311 0.0
C224 C 0.5008 0.04783 0.94864 0.0
C225 C 0.46391 0.93926 0.07954 0.0
C226 C 0.47687 0.97725 0.03502 0.0
H227 H 0.53467 0.23011 0.8706 0.0
H228 H 0.51198 0.17016 0.94415 0.0
H229 H 0.53073 0.98152 0.94479 0.0
H230 H 0.44682 0.79179 0.11144 0.0
H231 H 0.46872 0.85437 0.03924 0.0
C232 C 0.95905 0.59817 0.6557 0.0
C233 C 0.94732 0.65055 0.63974 0.0
C234 C 0.975 0.56811 0.61919 0.0
C235 C 0.98505 0.54775 0.47268 0.0
H236 H 0.05047 0.47297 0.51843 0.0
C237 C 0.05317 0.42578 0.32352 0.0
C238 C 0.0613 0.37027 0.34118 0.0
C239 C 0.04034 0.46291 0.35945 0.0
C240 C 0.03212 0.49329 0.50522 0.0
H241 H 0.94397 0.71379 0.57363 0.0
H242 H 0.97212 0.66162 0.51011 0.0
H243 H 0.02704 0.53445 0.58269 0.0
H244 H 0.06219 0.30993 0.4102 0.0
H245 H 0.03962 0.37461 0.47271 0.0
H246 H 0.99002 0.50621 0.39534 0.0
C247 C 0.96856 0.64325 0.55056 0.0
C248 C 0.01873 0.52847 0.54195 0.0
C249 C 0.95256 0.67328 0.58705 0.0
C250 C 0.0562 0.35247 0.39535 0.0
C251 C 0.04347 0.38969 0.43129 0.0
C252 C -0.00151 0.5127 0.43592 0.0
C253 C 0.97962 0.58989 0.56602 0.0
C254 C -0.00511 0.55558 0.52622 0.0
C255 C 0.0355 0.44534 0.41374 0.0
C256 C 0.02198 0.48462 0.452 0.0
H257 H 0.95539 0.5795 0.69602 0.0
H258 H 0.98299 0.52673 0.63213 0.0
H259 H 0.96647 0.56728 0.45958 0.0
H260 H 0.05686 0.44081 0.28204 0.0
H261 H 0.03458 0.5058 0.34496 0.0
C262 C 0.43975 0.69524 0.42997 0.0
C263 C 0.45438 0.72417 0.38627 0.0
C264 C 0.45169 0.65174 0.46026 0.0
C265 C 0.50156 0.54078 0.44407 0.0
H266 H 0.4916 0.51946 0.59956 0.0
C267 C 0.54813 0.35254 0.56368 0.0
C268 C 0.5317 0.32391 0.60527 0.0
C269 C 0.53955 0.4027 0.53714 0.0
C270 C 0.49426 0.52451 0.55602 0.0
H271 H 0.49362 0.73285 0.34205 0.0
H272 H 0.51454 0.65667 0.39527 0.0
H273 H 0.47694 0.60921 0.5558 0.0
H274 H 0.49288 0.32407 0.65022 0.0
H275 H 0.47765 0.41116 0.60309 0.0
H276 H 0.5184 0.45567 0.44399 0.0
C277 C 0.49369 0.66728 0.40553 0.0
C278 C 0.48602 0.57601 0.53108 0.0
C279 C 0.48179 0.71113 0.37534 0.0
C280 C 0.50605 0.34526 0.61849 0.0
C281 C 0.49745 0.39546 0.59186 0.0
C282 C 0.50974 0.48923 0.46897 0.0
C283 C 0.47846 0.63615 0.44738 0.0
C284 C 0.48939 0.58439 0.47479 0.0
C285 C 0.51433 0.42524 0.5515 0.0
C286 C 0.50595 0.4803 0.52513 0.0
H287 H 0.41864 0.70457 0.43962 0.0
H288 H 0.43938 0.62825 0.49204 0.0
H289 H 0.50395 0.54551 0.40044 0.0
H290 H 0.56803 0.33728 0.55253 0.0
H291 H 0.55312 0.42491 0.50652 0.0
loop_
_geom_bond_atom_site_label_1
_geom_bond_atom_site_label_2
_geom_bond_distance
_geom_bond_site_symmetry_2
_ccdc_geom_bond_type
C0 O1 1.160 . S
C0 O7 1.185 . S
O1 C0 1.160 . S
O2 Zn3 1.899 . S
O2 C10 1.284 . S
Zn3 O2 1.899 . S
Zn3 O4 2.032 . S
Zn3 O7 2.086 . S
Zn3 O12 1.977 . S
O4 Zn3 2.032 . S
O4 C8 1.278 . S
C5 O6 1.203 . S
C5 O12 1.267 . S
O6 C5 1.203 . S
O7 C0 1.185 . S
O7 Zn3 2.086 . S
C8 O4 1.278 . S
C8 O9 1.211 . S
O9 C8 1.211 . S
C10 O2 1.284 . S
C10 O11 1.273 . S
O11 C10 1.273 . S
O12 Zn3 1.977 . S
O12 C5 1.267 . S
C13 O14 1.160 . S
C13 O20 1.185 . S
O14 C13 1.160 . S
O15 Zn16 1.899 . S
O15 C23 1.284 . S
Zn16 O15 1.899 . S
Zn16 O17 2.032 . S
Zn16 O20 2.086 . S
Zn16 O25 1.977 . S
O17 Zn16 2.032 . S
O17 C21 1.278 . S
C18 O19 1.203 . S
C18 O25 1.267 . S
O19 C18 1.203 . S
O20 C13 1.185 . S
O20 Zn16 2.086 . S
C21 O17 1.278 . S
C21 O22 1.211 . S
O22 C21 1.211 . S
C23 O15 1.284 . S
C23 O24 1.273 . S
O24 C23 1.273 . S
O25 Zn16 1.977 . S
O25 C18 1.267 . S
C26 O27 1.160 . S
C26 O33 1.185 . S
O27 C26 1.160 . S
O28 Zn29 1.899 . S
O28 C36 1.284 . S
Zn29 O28 1.899 . S
Zn29 O30 2.032 . S
Zn29 O33 2.086 . S
Zn29 O38 1.977 . S
O30 Zn29 2.032 . S
O30 C34 1.278 . S
C31 O32 1.203 . S
C31 O38 1.267 . S
O32 C31 1.203 . S
O33 C26 1.185 . S
O33 Zn29 2.086 . S
C34 O30 1.278 . S
C34 O35 1.211 . S
O35 C34 1.211 . S
C36 O28 1.284 . S
C36 O37 1.273 . S
O37 C36 1.273 . S
O38 Zn29 1.977 . S
O38 C31 1.267 . S
C39 O40 1.160 . S
C39 O46 1.185 . S
O40 C39 1.160 . S
O41 Zn42 1.899 . S
O41 C49 1.284 . S
Zn42 O41 1.899 . S
Zn42 O43 2.032 . S
Zn42 O46 2.086 . S
Zn42 O51 1.977 . S
O43 Zn42 2.032 . S
O43 C47 1.278 . S
C44 O45 1.203 . S
C44 O51 1.267 . S
O45 C44 1.203 . S
O46 C39 1.185 . S
O46 Zn42 2.086 . S
C47 O43 1.278 . S
C47 O48 1.211 . S
O48 C47 1.211 . S
C49 O41 1.284 . S
C49 O50 1.273 . S
O50 C49 1.273 . S
O51 Zn42 1.977 . S
O51 C44 1.267 . S
C52 C53 1.349 . S
C52 C54 1.327 . S
C52 H77 0.950 . S
C53 C52 1.349 . S
C53 C69 1.349 . S
C54 C52 1.327 . S
C54 C73 1.429 . S
C54 H78 0.950 . S
C55 C72 1.574 . S
C55 C74 1.368 . S
C55 H79 0.949 . S
H56 C60 0.949 . S
C57 C58 1.349 . S
C57 C59 1.327 . S
C57 H80 0.950 . S
C58 C57 1.349 . S
C58 C70 1.349 . S
C59 C57 1.327 . S
C59 C75 1.429 . S
C59 H81 0.950 . S
C60 H56 0.949 . S
C60 C68 1.574 . S
C60 C76 1.368 . S
H61 C69 0.950 . S
H62 C67 0.950 . S
H63 C68 0.949 . S
H64 C70 0.950 . S
H65 C71 0.950 . S
H66 C72 0.949 . S
C67 H62 0.950 . S
C67 C69 1.327 . S
C67 C73 1.429 . S
C68 C60 1.574 . S
C68 H63 0.949 . S
C68 C74 1.368 1_545 S
C69 C53 1.349 . S
C69 H61 0.950 . S
C69 C67 1.327 . S
C70 C58 1.349 . S
C70 H64 0.950 . S
C70 C71 1.327 . S
C71 H65 0.950 . S
C71 C70 1.327 . S
C71 C75 1.429 . S
C72 C55 1.574 . S
C72 H66 0.949 . S
C72 C76 1.368 1_565 S
C73 C54 1.429 . S
C73 C67 1.429 . S
C73 C74 1.523 . S
C74 C55 1.368 . S
C74 C68 1.368 1_565 S
C74 C73 1.523 . S
C75 C59 1.429 . S
C75 C71 1.429 . S
C75 C76 1.523 . S
C76 C60 1.368 . S
C76 C72 1.368 1_545 S
C76 C75 1.523 . S
H77 C52 0.950 . S
H78 C54 0.950 . S
H79 C55 0.949 . S
H80 C57 0.950 . S
H81 C59 0.950 . S
C82 C83 1.349 . S
C82 C84 1.327 . S
C82 H107 0.950 . S
C83 C82 1.349 . S
C83 C99 1.349 . S
C84 C82 1.327 . S
C84 C103 1.429 . S
C84 H108 0.950 . S
C85 C102 1.574 . S
C85 C104 1.368 . S
C85 H109 0.949 . S
H86 C90 0.949 . S
C87 C88 1.349 . S
C87 C89 1.327 . S
C87 H110 0.950 . S
C88 C87 1.349 . S
C88 C100 1.349 . S
C89 C87 1.327 . S
C89 C105 1.429 . S
C89 H111 0.950 . S
C90 H86 0.949 . S
C90 C98 1.574 . S
C90 C106 1.368 . S
H91 C99 0.950 . S
H92 C97 0.950 . S
H93 C98 0.949 . S
H94 C100 0.950 . S
H95 C101 0.950 . S
H96 C102 0.949 . S
C97 H92 0.950 . S
C97 C99 1.327 . S
C97 C103 1.429 . S
C98 C90 1.574 . S
C98 H93 0.949 . S
C98 C104 1.368 . S
C99 C83 1.349 . S
C99 H91 0.950 . S
C99 C97 1.327 . S
C100 C88 1.349 . S
C100 H94 0.950 . S
C100 C101 1.327 . S
C101 H95 0.950 . S
C101 C100 1.327 . S
C101 C105 1.429 . S
C102 C85 1.574 . S
C102 H96 0.949 . S
C102 C106 1.368 . S
C103 C84 1.429 . S
C103 C97 1.429 . S
C103 C104 1.523 . S
C104 C85 1.368 . S
C104 C98 1.368 . S
C104 C103 1.523 . S
C105 C89 1.429 . S
C105 C101 1.429 . S
C105 C106 1.523 . S
C106 C90 1.368 . S
C106 C102 1.368 . S
C106 C105 1.523 . S
H107 C82 0.950 . S
H108 C84 0.950 . S
H109 C85 0.949 . S
H110 C87 0.950 . S
H111 C89 0.950 . S
C112 C113 1.349 . S
C112 C114 1.327 . S
C112 H137 0.950 . S
C113 C112 1.349 . S
C113 C129 1.349 . S
C114 C112 1.327 . S
C114 C133 1.429 . S
C114 H138 0.950 . S
C115 C132 1.574 . S
C115 C134 1.368 . S
C115 H139 0.949 . S
H116 C120 0.949 . S
C117 C118 1.349 . S
C117 C119 1.327 . S
C117 H140 0.950 . S
C118 C117 1.349 . S
C118 C130 1.349 . S
C119 C117 1.327 . S
C119 C135 1.429 . S
C119 H141 0.950 . S
C120 H116 0.949 . S
C120 C128 1.574 . S
C120 C136 1.368 . S
H121 C129 0.950 . S
H122 C127 0.950 . S
H123 C128 0.949 . S
H124 C130 0.950 . S
H125 C131 0.950 . S
H126 C132 0.949 . S
C127 H122 0.950 . S
C127 C129 1.327 . S
C127 C133 1.429 . S
C128 C120 1.574 . S
C128 H123 0.949 . S
C128 C134 1.368 1_565 S
C129 C113 1.349 . S
C129 H121 0.950 . S
C129 C127 1.327 . S
C130 C118 1.349 . S
C130 H124 0.950 . S
C130 C131 1.327 . S
C131 H125 0.950 . S
C131 C130 1.327 . S
C131 C135 1.429 . S
C132 C115 1.574 . S
C132 H126 0.949 . S
C132 C136 1.368 1_545 S
C133 C114 1.429 . S
C133 C127 1.429 . S
C133 C134 1.523 . S
C134 C115 1.368 . S
C134 C128 1.368 1_545 S
C134 C133 1.523 . S
C135 C119 1.429 . S
C135 C131 1.429 . S
C135 C136 1.523 . S
C136 C120 1.368 . S
C136 C132 1.368 1_565 S
C136 C135 1.523 . S
H137 C112 0.950 . S
H138 C114 0.950 . S
H139 C115 0.949 . S
H140 C117 0.950 . S
H141 C119 0.950 . S
C142 C143 1.349 . S
C142 C144 1.327 . S
C142 H167 0.950 . S
C143 C142 1.349 . S
C143 C159 1.349 . S
C144 C142 1.327 . S
C144 C163 1.429 . S
C144 H168 0.950 . S
C145 C162 1.574 . S
C145 C164 1.368 . S
C145 H169 0.949 . S
H146 C150 0.949 . S
C147 C148 1.349 . S
C147 C149 1.327 . S
C147 H170 0.950 . S
C148 C147 1.349 . S
C148 C160 1.349 . S
C149 C147 1.327 . S
C149 C165 1.429 . S
C149 H171 0.950 . S
C150 H146 0.949 . S
C150 C158 1.574 . S
C150 C166 1.368 . S
H151 C159 0.950 . S
H152 C157 0.950 . S
H153 C158 0.949 . S
H154 C160 0.950 . S
H155 C161 0.950 . S
H156 C162 0.949 . S
C157 H152 0.950 . S
C157 C159 1.327 . S
C157 C163 1.429 . S
C158 C150 1.574 . S
C158 H153 0.949 . S
C158 C164 1.368 . S
C159 C143 1.349 . S
C159 H151 0.950 . S
C159 C157 1.327 . S
C160 C148 1.349 . S
C160 H154 0.950 . S
C160 C161 1.327 . S
C161 H155 0.950 . S
C161 C160 1.327 . S
C161 C165 1.429 . S
C162 C145 1.574 . S
C162 H156 0.949 . S
C162 C166 1.368 . S
C163 C144 1.429 . S
C163 C157 1.429 . S
C163 C164 1.523 . S
C164 C145 1.368 . S
C164 C158 1.368 . S
C164 C163 1.523 . S
C165 C149 1.429 . S
C165 C161 1.429 . S
C165 C166 1.523 . S
C166 C150 1.368 . S
C166 C162 1.368 . S
C166 C165 1.523 . S
H167 C142 0.950 . S
H168 C144 0.950 . S
H169 C145 0.949 . S
H170 C147 0.950 . S
H171 C149 0.950 . S
C172 C173 1.349 . S
C172 C174 1.327 . S
C172 H197 0.950 . S
C173 C172 1.349 . S
C173 C189 1.349 . S
C174 C172 1.327 . S
C174 C193 1.429 . S
C174 H198 0.950 . S
C175 C192 1.574 . S
C175 C194 1.368 1_556 S
C175 H199 0.949 . S
H176 C180 0.949 . S
C177 C178 1.349 . S
C177 C179 1.327 . S
C177 H200 0.950 . S
C178 C177 1.349 . S
C178 C190 1.349 . S
C179 C177 1.327 . S
C179 C195 1.429 . S
C179 H201 0.950 . S
C180 H176 0.949 . S
C180 C188 1.574 . S
C180 C196 1.368 1_554 S
H181 C189 0.950 . S
H182 C187 0.950 . S
H183 C188 0.949 . S
H184 C190 0.950 . S
H185 C191 0.950 . S
H186 C192 0.949 . S
C187 H182 0.950 . S
C187 C189 1.327 . S
C187 C193 1.429 . S
C188 C180 1.574 . S
C188 H183 0.949 . S
C188 C194 1.368 1_665 S
C189 C173 1.349 . S
C189 H181 0.950 . S
C189 C187 1.327 . S
C190 C178 1.349 . S
C190 H184 0.950 . S
C190 C191 1.327 . S
C191 H185 0.950 . S
C191 C190 1.327 . S
C191 C195 1.429 . S
C192 C175 1.574 . S
C192 H186 0.949 . S
C192 C196 1.368 1_445 S
C193 C174 1.429 . S
C193 C187 1.429 . S
C193 C194 1.523 . S
C194 C175 1.368 1_554 S
C194 C188 1.368 1_445 S
C194 C193 1.523 . S
C195 C179 1.429 . S
C195 C191 1.429 . S
C195 C196 1.523 . S
C196 C180 1.368 1_556 S
C196 C192 1.368 1_665 S
C196 C195 1.523 . S
H197 C172 0.950 . S
H198 C174 0.950 . S
H199 C175 0.949 . S
H200 C177 0.950 . S
H201 C179 0.950 . S
C202 C203 1.349 . S
C202 C204 1.327 . S
C202 H227 0.950 . S
C203 C202 1.349 . S
C203 C219 1.349 . S
C204 C202 1.327 . S
C204 C223 1.429 . S
C204 H228 0.950 . S
C205 C222 1.574 . S
C205 C224 1.368 1_565 S
C205 H229 0.949 . S
H206 C210 0.949 . S
C207 C208 1.349 . S
C207 C209 1.327 . S
C207 H230 0.950 . S
C208 C207 1.349 . S
C208 C220 1.349 . S
C209 C207 1.327 . S
C209 C225 1.429 . S
C209 H231 0.950 . S
C210 H206 0.949 . S
C210 C218 1.574 . S
C210 C226 1.368 1_545 S
H211 C219 0.950 . S
H212 C217 0.950 . S
H213 C218 0.949 . S
H214 C220 0.950 . S
H215 C221 0.950 . S
H216 C222 0.949 . S
C217 H212 0.950 . S
C217 C219 1.327 . S
C217 C223 1.429 . S
C218 C210 1.574 . S
C218 H213 0.949 . S
C218 C224 1.368 1_554 S
C219 C203 1.349 . S
C219 H211 0.950 . S
C219 C217 1.327 . S
C220 C208 1.349 . S
C220 H214 0.950 . S
C220 C221 1.327 . S
C221 H215 0.950 . S
C221 C220 1.327 . S
C221 C225 1.429 . S
C222 C205 1.574 . S
C222 H216 0.949 . S
C222 C226 1.368 1_556 S
C223 C204 1.429 . S
C223 C217 1.429 . S
C223 C224 1.523 . S
C224 C205 1.368 1_545 S
C224 C218 1.368 1_556 S
C224 C223 1.523 . S
C225 C209 1.429 . S
C225 C221 1.429 . S
C225 C226 1.523 . S
C226 C210 1.368 1_565 S
C226 C222 1.368 1_554 S
C226 C225 1.523 . S
H227 C202 0.950 . S
H228 C204 0.950 . S
H229 C205 0.949 . S
H230 C207 0.950 . S
H231 C209 0.950 . S
C232 C233 1.349 . S
C232 C234 1.327 . S
C232 H257 0.950 . S
C233 C232 1.349 . S
C233 C249 1.349 . S
C234 C232 1.327 . S
C234 C253 1.429 . S
C234 H258 0.950 . S
C235 C252 1.574 1_655 S
C235 C254 1.368 . S
C235 H259 0.949 . S
H236 C240 0.949 . S
C237 C238 1.349 . S
C237 C239 1.327 . S
C237 H260 0.950 . S
C238 C237 1.349 . S
C238 C250 1.349 . S
C239 C237 1.327 . S
C239 C255 1.429 . S
C239 H261 0.950 . S
C240 H236 0.949 . S
C240 C248 1.574 1_455 S
C240 C256 1.368 . S
H241 C249 0.950 . S
H242 C247 0.950 . S
H243 C248 0.949 . S
H244 C250 0.950 . S
H245 C251 0.950 . S
H246 C252 0.949 . S
C247 H242 0.950 . S
C247 C249 1.327 . S
C247 C253 1.429 . S
C248 C240 1.574 1_655 S
C248 H243 0.949 . S
C248 C254 1.368 . S
C249 C233 1.349 . S
C249 H241 0.950 . S
C249 C247 1.327 . S
C250 C238 1.349 . S
C250 H244 0.950 . S
C250 C251 1.327 . S
C251 H245 0.950 . S
C251 C250 1.327 . S
C251 C255 1.429 . S
C252 C235 1.574 1_455 S
C252 H246 0.949 . S
C252 C256 1.368 . S
C253 C234 1.429 . S
C253 C247 1.429 . S
C253 C254 1.523 . S
C254 C235 1.368 . S
C254 C248 1.368 . S
C254 C253 1.523 . S
C255 C239 1.429 . S
C255 C251 1.429 . S
C255 C256 1.523 . S
C256 C240 1.368 . S
C256 C252 1.368 . S
C256 C255 1.523 . S
H257 C232 0.950 . S
H258 C234 0.950 . S
H259 C235 0.949 . S
H260 C237 0.950 . S
H261 C239 0.950 . S
C262 C263 1.349 . S
C262 C264 1.327 . S
C262 H287 0.950 . S
C263 C262 1.349 . S
C263 C279 1.349 . S
C264 C262 1.327 . S
C264 C283 1.429 . S
C264 H288 0.950 . S
C265 C282 1.574 . S
C265 C284 1.368 . S
C265 H289 0.949 . S
H266 C270 0.949 . S
C267 C268 1.349 . S
C267 C269 1.327 . S
C267 H290 0.950 . S
C268 C267 1.349 . S
C268 C280 1.349 . S
C269 C267 1.327 . S
C269 C285 1.429 . S
C269 H291 0.950 . S
C270 H266 0.949 . S
C270 C278 1.574 . S
C270 C286 1.368 . S
H271 C279 0.950 . S
H272 C277 0.950 . S
H273 C278 0.949 . S
H274 C280 0.950 . S
H275 C281 0.950 . S
H276 C282 0.949 . S
C277 H272 0.950 . S
C277 C279 1.327 . S
C277 C283 1.429 . S
C278 C270 1.574 . S
C278 H273 0.949 . S
C278 C284 1.368 . S
C279 C263 1.349 . S
C279 H271 0.950 . S
C279 C277 1.327 . S
C280 C268 1.349 . S
C280 H274 0.950 . S
C280 C281 1.327 . S
C281 H275 0.950 . S
C281 C280 1.327 . S
C281 C285 1.429 . S
C282 C265 1.574 . S
C282 H276 0.949 . S
C282 C286 1.368 . S
C283 C264 1.429 . S
C283 C277 1.429 . S
C283 C284 1.523 . S
C284 C265 1.368 . S
C284 C278 1.368 . S
C284 C283 1.523 . S
C285 C269 1.429 . S
C285 C281 1.429 . S
C285 C286 1.523 . S
C286 C270 1.368 . S
C286 C282 1.368 . S
C286 C285 1.523 . S
H287 C262 0.950 . S
H288 C264 0.950 . S
H289 C265 0.949 . S
H290 C267 0.950 . S
H291 C269 0.950 . S
C53 C18 0.666 . S
C58 C5 0.666 . S
C83 C8 0.532 . S
C88 C21 0.532 . S
C113 C44 0.666 . S
C118 C31 0.666 . S
C143 C34 0.532 . S
C148 C47 0.532 . S
C173 C10 1.542 . S
C178 C36 1.542 . S
C203 C49 1.542 . S
C208 C23 1.542 . S
C233 C26 1.513 . S
C238 C0 1.513 . S
C263 C13 1.513 . S
C268 C39 1.513 . S
