# Generated by pormake.
# Topology unn, (4)-cn, num edge types: 1
# Building blocks:
#     Node 0, Type 0, BuildingBlock: ESEHIV_clean_sbu_0, # of connection points: 4
#     Node 1, Type 0, BuildingBlock: ESEHIV_clean_sbu_0, # of connection points: 4
#     Node 2, Type 0, BuildingBlock: ESEHIV_clean_sbu_0, # of connection points: 4
#     Node 3, Type 0, BuildingBlock: ESEHIV_clean_sbu_0, # of connection points: 4
#     Node 4, Type 0, BuildingBlock: ESEHIV_clean_sbu_0, # of connection points: 4
#     Node 5, Type 0, BuildingBlock: ESEHIV_clean_sbu_0, # of connection points: 4
#     Node 6, Type 0, BuildingBlock: ESEHIV_clean_sbu_0, # of connection points: 4
#     Node 7, Type 0, BuildingBlock: ESEHIV_clean_sbu_0, # of connection points: 4
#     Node 8, Type 0, BuildingBlock: ESEHIV_clean_sbu_0, # of connection points: 4
#     Node 9, Type 0, BuildingBlock: ESEHIV_clean_sbu_0, # of connection points: 4
#     Node 10, Type 0, BuildingBlock: ESEHIV_clean_sbu_0, # of connection points: 4
#     Node 11, Type 0, BuildingBlock: ESEHIV_clean_sbu_0, # of connection points: 4
#     Node 12, Type 0, BuildingBlock: ESEHIV_clean_sbu_0, # of connection points: 4
#     Node 13, Type 0, BuildingBlock: ESEHIV_clean_sbu_0, # of connection points: 4
#     Node 14, Type 0, BuildingBlock: ESEHIV_clean_sbu_0, # of connection points: 4
#     Node 15, Type 0, BuildingBlock: ESEHIV_clean_sbu_0, # of connection points: 4
#     Node 16, Type 0, BuildingBlock: ESEHIV_clean_sbu_0, # of connection points: 4
#     Node 17, Type 0, BuildingBlock: ESEHIV_clean_sbu_0, # of connection points: 4
#     Edge 18, Type (0, 0), BuildingBlock: XUDNAN_clean_linker_2, # of connection points: 2
#     Edge 19, Type (0, 0), BuildingBlock: XUDNAN_clean_linker_2, # of connection points: 2
#     Edge 20, Type (0, 0), BuildingBlock: XUDNAN_clean_linker_2, # of connection points: 2
#     Edge 21, Type (0, 0), BuildingBlock: XUDNAN_clean_linker_2, # of connection points: 2
#     Edge 22, Type (0, 0), BuildingBlock: XUDNAN_clean_linker_2, # of connection points: 2
#     Edge 23, Type (0, 0), BuildingBlock: XUDNAN_clean_linker_2, # of connection points: 2
#     Edge 24, Type (0, 0), BuildingBlock: XUDNAN_clean_linker_2, # of connection points: 2
#     Edge 25, Type (0, 0), BuildingBlock: XUDNAN_clean_linker_2, # of connection points: 2
#     Edge 26, Type (0, 0), BuildingBlock: XUDNAN_clean_linker_2, # of connection points: 2
#     Edge 27, Type (0, 0), BuildingBlock: XUDNAN_clean_linker_2, # of connection points: 2
#     Edge 28, Type (0, 0), BuildingBlock: XUDNAN_clean_linker_2, # of connection points: 2
#     Edge 29, Type (0, 0), BuildingBlock: XUDNAN_clean_linker_2, # of connection points: 2
#     Edge 30, Type (0, 0), BuildingBlock: XUDNAN_clean_linker_2, # of connection points: 2
#     Edge 31, Type (0, 0), BuildingBlock: XUDNAN_clean_linker_2, # of connection points: 2
#     Edge 32, Type (0, 0), BuildingBlock: XUDNAN_clean_linker_2, # of connection points: 2
#     Edge 33, Type (0, 0), BuildingBlock: XUDNAN_clean_linker_2, # of connection points: 2
#     Edge 34, Type (0, 0), BuildingBlock: XUDNAN_clean_linker_2, # of connection points: 2
#     Edge 35, Type (0, 0), BuildingBlock: XUDNAN_clean_linker_2, # of connection points: 2
#     Edge 36, Type (0, 0), BuildingBlock: XUDNAN_clean_linker_2, # of connection points: 2
#     Edge 37, Type (0, 0), BuildingBlock: XUDNAN_clean_linker_2, # of connection points: 2
#     Edge 38, Type (0, 0), BuildingBlock: XUDNAN_clean_linker_2, # of connection points: 2
#     Edge 39, Type (0, 0), BuildingBlock: XUDNAN_clean_linker_2, # of connection points: 2
#     Edge 40, Type (0, 0), BuildingBlock: XUDNAN_clean_linker_2, # of connection points: 2
#     Edge 41, Type (0, 0), BuildingBlock: XUDNAN_clean_linker_2, # of connection points: 2
#     Edge 42, Type (0, 0), BuildingBlock: XUDNAN_clean_linker_2, # of connection points: 2
#     Edge 43, Type (0, 0), BuildingBlock: XUDNAN_clean_linker_2, # of connection points: 2
#     Edge 44, Type (0, 0), BuildingBlock: XUDNAN_clean_linker_2, # of connection points: 2
#     Edge 45, Type (0, 0), BuildingBlock: XUDNAN_clean_linker_2, # of connection points: 2
#     Edge 46, Type (0, 0), BuildingBlock: XUDNAN_clean_linker_2, # of connection points: 2
#     Edge 47, Type (0, 0), BuildingBlock: XUDNAN_clean_linker_2, # of connection points: 2
#     Edge 48, Type (0, 0), BuildingBlock: XUDNAN_clean_linker_2, # of connection points: 2
#     Edge 49, Type (0, 0), BuildingBlock: XUDNAN_clean_linker_2, # of connection points: 2
#     Edge 50, Type (0, 0), BuildingBlock: XUDNAN_clean_linker_2, # of connection points: 2
#     Edge 51, Type (0, 0), BuildingBlock: XUDNAN_clean_linker_2, # of connection points: 2
#     Edge 52, Type (0, 0), BuildingBlock: XUDNAN_clean_linker_2, # of connection points: 2
#     Edge 53, Type (0, 0), BuildingBlock: XUDNAN_clean_linker_2, # of connection points: 2
# Relax obj value: 0.007
# Max RMSD: 0.148
# Mean RMSD: 0.147
data_MOF--net-unn--node1-ESEHIV_clean_sbu_0--edge1-XUDNAN_clean_linker_2
_symmetry_space_group_name_H-M    P1
_symmetry_Int_Tables_number       1
_symmetry_cell_setting            triclinic
loop_
_symmetry_equiv_pos_as_xyz
'x, y, z'
_cell_length_a     54.24084
_cell_length_b     53.906513
_cell_length_c     42.289998
_cell_angle_alpha  90.183446
_cell_angle_beta   90.264673
_cell_angle_gamma 119.96336
loop_
_atom_site_label
_atom_site_type_symbol
_atom_site_fract_x
_atom_site_fract_y
_atom_site_fract_z
_atom_type_partial_charge
Cu0 Cu 1.02553 0.74604 0.27385 0.0
N1 N 0.05424 0.78194 0.28824 0.0
N2 N 0.09699 0.81468 0.30689 0.0
C3 C 0.08263 0.79256 0.2866 0.0
C4 C 0.07702 0.8182 0.32175 0.0
C5 C 0.05071 0.79804 0.31016 0.0
O6 O 1.01414 0.72074 0.31026 0.0
C7 C 0.04919 0.74975 0.21451 0.0
O8 O 0.05541 0.77652 0.21769 0.0
H9 H 0.09232 0.78257 0.27318 0.0
H10 H 0.03031 0.79382 0.31904 0.0
N11 N 0.99293 0.74657 0.26029 0.0
N12 N 0.94916 0.72939 0.23974 0.0
C13 C 0.97004 0.72372 0.24755 0.0
C14 C 0.9866 0.76771 0.26048 0.0
C15 C 0.9596 0.75718 0.24783 0.0
C16 C 0.03158 0.72209 0.33143 0.0
O17 O 0.05904 0.73791 0.32647 0.0
H18 H 0.96908 0.7034 0.24379 0.0
H19 H 1.00053 0.7892 0.26919 0.0
O20 O 0.03752 0.73258 0.23745 0.0
H21 H 0.0811 0.83322 0.34086 0.0
H22 H 0.94849 0.76906 0.24525 0.0
Cu23 Cu 0.30359 0.29911 0.27468 0.0
N24 N 0.30573 0.26671 0.26208 0.0
N25 N 0.32325 0.24134 0.23885 0.0
C26 C 0.32849 0.26752 0.24834 0.0
C27 C 0.29611 0.22321 0.24739 0.0
C28 C 0.28532 0.23893 0.26155 0.0
O29 O 0.30876 0.32122 0.23649 0.0
C30 C 0.33333 0.30463 0.33042 0.0
O31 O 0.3206 0.27671 0.32678 0.0
H32 H 0.34848 0.28705 0.24502 0.0
H33 H 0.26382 0.23077 0.26987 0.0
N34 N 0.2683 0.29006 0.29174 0.0
N35 N 0.2359 0.29944 0.31257 0.0
C36 C 0.25727 0.30763 0.29159 0.0
C37 C 0.25334 0.27002 0.31352 0.0
C38 C 0.2333 0.27572 0.32636 0.0
C39 C 0.33181 0.33404 0.22094 0.0
O40 O 0.35521 0.33639 0.23312 0.0
H41 H 0.26638 0.3274 0.27839 0.0
H42 H 0.25806 0.25373 0.32124 0.0
O43 O 0.33068 0.31956 0.30876 0.0
H44 H 0.28447 0.20043 0.24249 0.0
H45 H 0.21884 0.26408 0.34536 0.0
Cu46 Cu 0.76103 0.0277 0.27296 0.0
N47 N 0.76928 0.9982 0.27908 0.0
N48 N 0.76264 0.95506 0.2921 0.0
C49 C 0.75133 0.97242 0.29163 0.0
C50 C 0.7888 0.97065 0.27942 0.0
C51 C 0.79287 0.99727 0.27153 0.0
O52 O 0.74307 0.02947 0.31208 0.0
C53 C 0.73962 1.00675 0.21223 0.0
O54 O 0.7585 0.99832 0.21373 0.0
H55 H 0.7301 0.96631 0.29952 0.0
H56 H 0.81151 1.01455 0.2606 0.0
N57 N 0.79356 0.06301 0.26454 0.0
N58 N 0.8193 0.10771 0.24598 0.0
C59 C 0.79355 0.08358 0.24655 0.0
C60 C 0.82034 0.07432 0.27569 0.0
C61 C 0.8363 0.10187 0.26419 0.0
C62 C 0.75108 0.0521 0.32849 0.0
O63 O 0.77069 0.07685 0.31736 0.0
H64 H 0.77473 0.08083 0.23442 0.0
H65 H 0.82755 0.06361 0.29168 0.0
O66 O 0.73614 0.01906 0.23618 0.0
H67 H 0.80397 0.9634 0.27613 0.0
H68 H 0.85841 0.11671 0.26973 0.0
Cu69 Cu 0.02681 0.29483 0.77041 0.0
N70 N 0.99535 0.26075 0.7561 0.0
N71 N 0.95408 0.23331 0.73059 0.0
C72 C 0.97453 0.26022 0.73819 0.0
C73 C 0.96233 0.21612 0.74463 0.0
C74 C 0.98789 0.23315 0.76032 0.0
O75 O 0.03607 0.32146 0.73521 0.0
C76 C 0.02809 0.32866 0.82461 0.0
O77 O 0.05112 0.35025 0.8127 0.0
H78 H 0.97437 0.27943 0.73116 0.0
H79 H 1.00016 0.22594 0.77369 0.0
N80 N 0.05854 0.2909 0.78045 0.0
N81 N 0.09993 0.30065 0.80285 0.0
C82 C 0.07756 0.30506 0.80381 0.0
C83 C 0.06914 0.27661 0.76457 0.0
C84 C 0.09483 0.28284 0.77815 0.0
C85 C 0.04047 0.31254 0.70902 0.0
O86 O 0.03995 0.28793 0.70859 0.0
H87 H 0.07571 0.31928 0.82048 0.0
H88 H 0.05928 0.2631 0.74411 0.0
O89 O 1.01486 0.30529 0.80908 0.0
H90 H 0.95101 0.19298 0.74327 0.0
H91 H 0.10878 0.2751 0.77038 0.0
Cu92 Cu 0.75257 0.74501 0.77548 0.0
N93 N 0.75842 0.78039 0.7903 0.0
N94 N 0.74814 0.8103 0.81657 0.0
C95 C 0.74299 0.78315 0.81351 0.0
C96 C 0.76765 0.82527 0.79423 0.0
C97 C 0.77387 0.80675 0.778 0.0
O98 O 0.73179 0.71818 0.80916 0.0
C99 C 0.72447 0.71589 0.71774 0.0
O100 O 0.72937 0.69547 0.72681 0.0
H101 H 0.727 0.76512 0.82662 0.0
H102 H 0.78768 0.8119 0.75777 0.0
N103 N 0.78657 0.74497 0.76697 0.0
N104 N 0.81532 0.7284 0.75164 0.0
C105 C 0.78876 0.72161 0.76063 0.0
C106 C 0.81277 0.76742 0.76226 0.0
C107 C 0.83051 0.7573 0.75283 0.0
C108 C 0.7454 0.7204 0.83466 0.0
O109 O 0.77304 0.73799 0.83543 0.0
H110 H 0.77084 0.70006 0.76146 0.0
H111 H 0.81843 0.78962 0.76462 0.0
O112 O 0.73124 0.73721 0.73599 0.0
H113 H 0.77635 0.84782 0.78942 0.0
H114 H 0.85277 0.77034 0.74691 0.0
Cu115 Cu 0.31268 0.03134 0.77526 0.0
N116 N 0.3114 0.06447 0.76482 0.0
N117 N 0.32502 0.10598 0.73988 0.0
C118 C 0.33067 0.08467 0.74565 0.0
C119 C 0.30119 0.09896 0.75646 0.0
C120 C 0.29274 0.07323 0.77172 0.0
O121 O 0.3282 0.02334 0.7377 0.0
C122 C 0.33418 0.0501 0.83651 0.0
O123 O 0.31753 0.06128 0.83528 0.0
H124 H 0.34854 0.08355 0.73604 0.0
H125 H 0.27413 0.06156 0.78632 0.0
N126 N 0.27772 0.9997 0.78658 0.0
N127 N 0.24887 0.95866 0.81159 0.0
C128 C 0.27596 0.97969 0.80686 0.0
C129 C 0.25072 0.99113 0.77791 0.0
C130 C 0.23284 0.9657 0.79325 0.0
C131 C 0.31486 1.00149 0.71982 0.0
O132 O 0.28995 0.98044 0.7285 0.0
H133 H 0.29448 0.98044 0.81755 0.0
H134 H 0.24449 1.00248 0.76161 0.0
O135 O 0.33702 0.0381 0.81189 0.0
H136 H 0.29018 0.11106 0.75684 0.0
H137 H 0.20987 0.95361 0.79136 0.0
Cu138 Cu 0.69266 0.08223 0.60728 0.0
N139 N 0.66037 0.08311 0.59284 0.0
N140 N 0.61921 0.06891 0.56689 0.0
C141 C 0.6421 0.06543 0.57061 0.0
C142 C 0.62337 0.08968 0.58782 0.0
C143 C 0.64863 0.09825 0.60386 0.0
O144 O 0.70364 0.0661 0.57255 0.0
C145 C 0.69658 0.0535 0.66328 0.0
O146 O 0.72237 0.06043 0.65435 0.0
H147 H 0.64512 0.0495 0.5584 0.0
H148 H 0.65737 0.11383 0.62286 0.0
N149 N 0.72294 0.119 0.617 0.0
N150 N 0.7663 0.15441 0.631 0.0
C151 C 0.74911 0.12582 0.62767 0.0
C152 C 0.72371 0.14416 0.61339 0.0
C153 C 0.75036 0.16599 0.62198 0.0
C154 C 0.71331 0.08196 0.54825 0.0
O155 O 0.71686 0.10791 0.54944 0.0
H156 H 0.75577 0.11027 0.63184 0.0
H157 H 0.70631 0.14658 0.60452 0.0
O158 O 0.68125 0.05955 0.64565 0.0
H159 H 0.6091 0.09796 0.59166 0.0
H160 H 0.75743 0.18865 0.62159 0.0
Cu161 Cu 0.96909 0.63113 0.60753 0.0
N162 N 0.97023 0.59855 0.5935 0.0
N163 N 0.98598 0.57217 0.56876 0.0
C164 C 0.98829 0.59827 0.57187 0.0
C165 C 0.96549 0.55538 0.58943 0.0
C166 C 0.956 0.57169 0.60471 0.0
O167 O 0.9769 0.65573 0.57101 0.0
C168 C 1.00289 0.66897 0.6592 0.0
O169 O 0.99465 0.68703 0.65034 0.0
H170 H 1.00359 0.6172 0.55957 0.0
H171 H 0.9404 0.56461 0.62337 0.0
N172 N 0.93276 0.62145 0.62247 0.0
N173 N 0.89767 0.62438 0.64693 0.0
C174 C 0.92574 0.63791 0.64014 0.0
C175 C 0.90816 0.59683 0.61756 0.0
C176 C 0.88658 0.59849 0.63275 0.0
C177 C 1.00044 0.66923 0.55647 0.0
O178 O 1.02346 0.67095 0.56899 0.0
H179 H 0.94087 0.65927 0.64817 0.0
H180 H 0.90598 0.57896 0.60368 0.0
O181 O 0.99584 0.64656 0.64275 0.0
H182 H 0.95803 0.53297 0.59374 0.0
H183 H 0.86435 0.58205 0.63292 0.0
Cu184 Cu 0.43167 0.36406 0.60641 0.0
N185 N 0.46502 0.39594 0.59183 0.0
N186 N 0.49242 0.43644 0.56514 0.0
C187 C 0.46588 0.414 0.56932 0.0
C188 C 0.5089 0.43224 0.58604 0.0
C189 C 0.49194 0.40732 0.60249 0.0
O190 O 0.40401 0.35466 0.57224 0.0
C191 C 0.39962 0.3607 0.66211 0.0
O192 O 0.3785 0.33736 0.64963 0.0
H193 H 0.44707 0.41114 0.55709 0.0
H194 H 0.49866 0.39845 0.62133 0.0
N195 N 0.43694 0.33276 0.61469 0.0
N196 N 0.42852 0.28935 0.6296 0.0
C197 C 0.41814 0.30749 0.62785 0.0
C198 C 0.46 0.33054 0.60808 0.0
C199 C 0.45486 0.30385 0.61715 0.0
C200 C 0.40612 0.34129 0.54841 0.0
O201 O 0.42436 0.33203 0.54964 0.0
H202 H 0.39701 0.30218 0.63517 0.0
H203 H 0.47907 0.34703 0.597 0.0
O204 O 0.42229 0.37524 0.64632 0.0
H205 H 0.53156 0.44617 0.58938 0.0
H206 H 0.46947 0.29577 0.6148 0.0
Cu207 Cu 0.69508 0.63284 0.10556 0.0
N208 N 0.66035 0.59887 0.09949 0.0
N209 N 0.61769 0.56721 0.07945 0.0
C210 C 0.64379 0.58961 0.07327 0.0
C211 C 0.61803 0.56192 0.11056 0.0
C212 C 0.64433 0.5814 0.12279 0.0
O213 O 0.70395 0.65573 0.06731 0.0
C214 C 0.70876 0.67447 0.15566 0.0
O215 O 0.73189 0.69152 0.13987 0.0
H216 H 0.65003 0.60017 0.05062 0.0
H217 H 0.65083 0.58372 0.14735 0.0
N218 N 0.72415 0.6244 0.11322 0.0
N219 N 0.76419 0.6272 0.13189 0.0
C220 C 0.74805 0.6398 0.13059 0.0
C221 C 0.72524 0.60129 0.10312 0.0
C222 C 0.74986 0.60291 0.11463 0.0
C223 C 0.68606 0.66116 0.05409 0.0
O224 O 0.66214 0.65423 0.06867 0.0
H225 H 0.75324 0.65948 0.1427 0.0
H226 H 0.70914 0.58436 0.08855 0.0
O227 O 0.69055 0.65052 0.14363 0.0
H228 H 0.60022 0.54574 0.12375 0.0
H229 H 0.75672 0.58748 0.11041 0.0
Cu230 Cu 0.42751 0.09017 0.10535 0.0
N231 N 0.45986 0.08726 0.09528 0.0
N232 N 0.48541 0.06778 0.07745 0.0
C233 C 0.45925 0.06482 0.08034 0.0
C234 C 0.50333 0.09333 0.09099 0.0
C235 C 0.48753 0.10523 0.10204 0.0
O236 O 0.40327 0.07795 0.06792 0.0
C237 C 0.42373 0.06506 0.16451 0.0
O238 O 0.4513 0.07667 0.16064 0.0
H239 H 0.43991 0.04656 0.07177 0.0
H240 H 0.49563 0.12519 0.11491 0.0
N241 N 0.4363 0.12772 0.11461 0.0
N242 N 0.4306 0.16412 0.13123 0.0
C243 C 0.41923 0.13535 0.12981 0.0
C244 C 0.45924 0.15242 0.10602 0.0
C245 C 0.45589 0.17484 0.11635 0.0
C246 C 0.38927 0.05203 0.0586 0.0
O247 O 0.38808 0.03175 0.07676 0.0
H248 H 0.39847 0.11996 0.1387 0.0
H249 H 0.47687 0.15406 0.09255 0.0
O250 O 0.40877 0.06735 0.14262 0.0
H251 H 0.52608 0.10241 0.09366 0.0
H252 H 0.47098 0.1973 0.11288 0.0
Cu253 Cu 0.9692 0.36126 0.10205 0.0
N254 N 0.96436 0.39234 0.09072 0.0
N255 N 0.97322 0.43615 0.07682 0.0
C256 C 0.98417 0.41867 0.08079 0.0
C257 C 0.94557 0.42033 0.08476 0.0
C258 C 0.9402 0.39347 0.09334 0.0
O259 O 0.98315 0.34961 0.06578 0.0
C260 C 0.99999 0.35772 0.15665 0.0
O261 O 0.994 0.33222 0.14657 0.0
H262 H 1.00641 0.42539 0.07787 0.0
H263 H 0.92016 0.37619 0.10167 0.0
N264 N 0.93351 0.32939 0.1111 0.0
N265 N 0.89847 0.28858 0.1312 0.0
C266 C 0.92584 0.3098 0.13441 0.0
C267 C 0.91031 0.31994 0.09252 0.0
C268 C 0.88867 0.29503 0.10492 0.0
C269 C 1.00387 0.36517 0.04769 0.0
O270 O 1.02126 0.39207 0.05521 0.0
H271 H 0.93989 0.31091 0.15324 0.0
H272 H 0.90943 0.33018 0.07092 0.0
O273 O 0.99287 0.37279 0.13997 0.0
H274 H 0.93031 0.42771 0.08457 0.0
H275 H 0.86763 0.28211 0.09478 0.0
Cu276 Cu 0.36039 0.41246 0.93889 0.0
N277 N 0.38946 0.44749 0.95452 0.0
N278 N 0.43213 0.47958 0.97403 0.0
C279 C 0.41756 0.45646 0.95504 0.0
C280 C 0.4125 0.48551 0.98561 0.0
C281 C 0.38622 0.46571 0.9735 0.0
O282 O 0.34514 0.38702 0.975 0.0
C283 C 0.36022 0.38145 0.88468 0.0
O284 O 0.33249 0.36777 0.88844 0.0
H285 H 0.42676 0.44494 0.94378 0.0
H286 H 0.36594 0.46365 0.97962 0.0
N287 N 0.33154 0.41689 0.92012 0.0
N288 N 0.28895 0.40477 0.89941 0.0
C289 C 0.3032 0.39874 0.92155 0.0
C290 C 0.33521 0.43509 0.89652 0.0
C291 C 0.30899 0.42762 0.88364 0.0
C292 C 0.36165 0.38573 0.99565 0.0
O293 O 0.38908 0.39857 0.99002 0.0
H294 H 0.29349 0.38017 0.93673 0.0
H295 H 0.35569 0.45142 0.88793 0.0
O296 O 0.37605 0.39956 0.9056 0.0
H297 H 0.41669 0.50228 1.00256 0.0
H298 H 0.30503 0.43749 0.86347 0.0
Cu299 Cu 0.63117 0.95775 0.93969 0.0
N300 N 0.62923 0.92234 0.93207 0.0
N301 N 0.64107 0.88912 0.92003 0.0
C302 C 0.64904 0.91722 0.91914 0.0
C303 C 0.61529 0.87612 0.93385 0.0
C304 C 0.60807 0.89656 0.94119 0.0
O305 O 0.64122 0.97943 0.90065 0.0
C306 C 0.6608 0.9638 0.99682 0.0
O307 O 0.65098 0.93629 0.99265 0.0
H308 H 0.66939 0.93379 0.9106 0.0
H309 H 0.5891 0.89297 0.95336 0.0
N310 N 0.59513 0.95189 0.95021 0.0
N311 N 0.56068 0.95817 0.97094 0.0
C312 C 0.5889 0.96736 0.9705 0.0
C313 C 0.57013 0.9326 0.93711 0.0
C314 C 0.54888 0.93626 0.94997 0.0
C315 C 0.66391 0.98864 0.88463 0.0
O316 O 0.68516 0.98608 0.89577 0.0
H317 H 0.60475 0.98501 0.98454 0.0
H318 H 0.56763 0.9173 0.91897 0.0
O319 O 0.6561 0.97776 0.97566 0.0
H320 H 0.60267 0.85345 0.93872 0.0
H321 H 0.52653 0.92422 0.94367 0.0
Cu322 Cu 0.09514 0.69836 0.93884 0.0
N323 N 0.09648 0.6662 0.95333 0.0
N324 N 0.08204 0.62454 0.97836 0.0
C325 C 0.07767 0.64687 0.97363 0.0
C326 C 0.10462 0.63016 0.96008 0.0
C327 C 0.11338 0.65577 0.9446 0.0
O328 O 0.07589 0.70678 0.9726 0.0
C329 C 0.06715 0.70156 0.88158 0.0
O330 O 0.07009 0.72574 0.89247 0.0
H331 H 0.06043 0.64881 0.98376 0.0
H332 H 0.13044 0.66572 0.92767 0.0
N333 N 0.1317 0.72968 0.93169 0.0
N334 N 0.16684 0.7733 0.91823 0.0
C335 C 0.13843 0.755 0.91826 0.0
C336 C 0.1567 0.73205 0.94026 0.0
C337 C 0.17834 0.75884 0.93204 0.0
C338 C 0.0903 0.72416 0.9948 0.0
O339 O 0.11807 0.73962 0.99222 0.0
H340 H 0.12282 0.7603 0.90974 0.0
H341 H 0.15903 0.71566 0.95228 0.0
O342 O 0.07492 0.68719 0.89858 0.0
H343 H 0.1141 0.61674 0.95777 0.0
H344 H 0.20083 0.76706 0.93607 0.0
Cu345 Cu 0.36095 0.96151 0.43805 0.0
N346 N 0.32708 0.92758 0.42826 0.0
N347 N 0.28486 0.89837 0.40567 0.0
C348 C 0.30822 0.92468 0.40557 0.0
C349 C 0.28915 0.88405 0.4291 0.0
C350 C 0.31533 0.90201 0.44281 0.0
O351 O 0.36907 0.98635 0.40153 0.0
C352 C 0.35024 0.96428 0.50192 0.0
O353 O 0.34752 0.93869 0.5012 0.0
H354 H 0.3112 0.94179 0.38989 0.0
H355 H 0.32496 0.89676 0.46216 0.0
N356 N 0.39123 0.95488 0.44562 0.0
N357 N 0.43438 0.96265 0.45959 0.0
C358 C 0.41663 0.97345 0.45875 0.0
C359 C 0.39283 0.93145 0.43819 0.0
C360 C 0.41945 0.93622 0.44665 0.0
C361 C 0.38279 0.98437 0.37822 0.0
O362 O 0.39321 0.96706 0.38015 0.0
H363 H 0.42222 0.99474 0.46671 0.0
H364 H 0.37598 0.91244 0.42692 0.0
O365 O 0.35599 0.9786 0.47643 0.0
H366 H 0.27447 0.86213 0.43569 0.0
H367 H 0.4272 0.92136 0.44352 0.0
Cu368 Cu 0.0863 0.41729 0.43821 0.0
N369 N 0.09651 0.45513 0.4475 0.0
N370 N 0.09166 0.49217 0.46322 0.0
C371 C 0.07947 0.46337 0.46154 0.0
C372 C 0.11748 0.50238 0.44976 0.0
C373 C 0.12042 0.47948 0.44013 0.0
O374 O 0.06437 0.39586 0.47476 0.0
C375 C 0.05606 0.38536 0.38185 0.0
O376 O 0.05825 0.36373 0.39272 0.0
H377 H 0.0581 0.44847 0.46931 0.0
H378 H 0.13843 0.48048 0.42807 0.0
N379 N 0.11867 0.41339 0.4334 0.0
N380 N 0.14838 0.3995 0.41427 0.0
C381 C 0.12589 0.40312 0.40808 0.0
C382 C 0.13758 0.41688 0.45616 0.0
C383 C 0.15581 0.40821 0.44452 0.0
C384 C 0.06621 0.37561 0.48781 0.0
O385 O 0.08004 0.36467 0.47339 0.0
H386 H 0.1142 0.39725 0.38597 0.0
H387 H 0.13735 0.42411 0.47999 0.0
O388 O 0.06512 0.408 0.39855 0.0
H389 H 0.13309 0.52479 0.4469 0.0
H390 H 0.17292 0.4079 0.45746 0.0
Cu391 Cu 0.64401 0.69462 0.43399 0.0
N392 N 0.64233 0.72643 0.4191 0.0
N393 N 0.65642 0.76778 0.39365 0.0
C394 C 0.66113 0.74574 0.39879 0.0
C395 C 0.63366 0.76203 0.41165 0.0
C396 C 0.62507 0.73657 0.42737 0.0
O397 O 0.66472 0.68718 0.40126 0.0
C398 C 0.67058 0.6912 0.49208 0.0
O399 O 0.66812 0.66729 0.48096 0.0
H400 H 0.67859 0.74405 0.3889 0.0
H401 H 0.60785 0.72648 0.4441 0.0
N402 N 0.60755 0.66259 0.43938 0.0
N403 N 0.57251 0.61872 0.45224 0.0
C404 C 0.60082 0.63743 0.45321 0.0
C405 C 0.58263 0.65966 0.42945 0.0
C406 C 0.56104 0.63269 0.43726 0.0
C407 C 0.6515 0.67682 0.37523 0.0
O408 O 0.62428 0.66857 0.37356 0.0
H409 H 0.61637 0.63263 0.46305 0.0
H410 H 0.58033 0.67588 0.41699 0.0
O411 O 0.66299 0.70565 0.47498 0.0
H412 H 0.62393 0.77527 0.41352 0.0
H413 H 0.53861 0.62411 0.43239 0.0
H414 H 0.08764 0.78032 0.16866 0.0
H415 H 1.01669 0.696 0.18908 0.0
H416 H 1.01768 0.68077 0.13397 0.0
H417 H 0.06804 0.78659 0.09038 0.0
H418 H 0.10379 0.80392 0.07523 0.0
H419 H 0.09778 0.80804 0.11627 0.0
H420 H 0.13136 0.78911 0.13318 0.0
H421 H 0.13789 0.78545 0.09219 0.0
H422 H 0.12502 0.75507 0.11814 0.0
H423 H 1.02474 0.67606 0.07509 0.0
H424 H 0.04193 0.67977 1.0202 0.0
H425 H 0.10985 0.76636 0.03975 0.0
C426 C 0.07251 0.75855 0.16161 0.0
C427 C 0.05207 0.73932 0.18308 0.0
C428 C 0.03269 0.71098 0.17306 0.0
C429 C 0.03294 0.70224 0.14174 0.0
C430 C 0.05298 0.72198 0.12093 0.0
C431 C 0.07282 0.74935 0.13069 0.0
C432 C 0.09275 0.76619 0.10412 0.0
C433 C 0.09043 0.79275 0.09603 0.0
C434 C 0.12357 0.77443 0.1124 0.0
C435 C 0.08085 0.74419 0.0777 0.0
C436 C 0.05769 0.71893 0.08767 0.0
C437 C 0.04297 0.6957 0.06713 0.0
C438 C 0.05271 0.69809 0.0359 0.0
C439 C 0.07716 0.72339 0.02569 0.0
C440 C 0.09107 0.74677 0.04685 0.0
H441 H 0.39207 0.38287 0.04624 0.0
H442 H 0.30707 0.36294 1.01773 0.0
H443 H 0.29049 0.34858 0.07247 0.0
H444 H 0.36996 0.32434 0.10224 0.0
H445 H 0.39856 0.34553 0.12953 0.0
H446 H 0.40325 0.35303 0.08783 0.0
H447 H 0.41689 0.40563 0.09937 0.0
H448 H 0.41186 0.39819 0.14106 0.0
H449 H 0.39265 0.4129 0.1211 0.0
H450 H 0.28369 0.33844 0.13097 0.0
H451 H 0.28621 0.32966 0.18781 0.0
H452 H 0.37568 0.35615 0.17811 0.0
C453 C 0.36986 0.37513 0.05134 0.0
C454 C 0.35087 0.37401 0.02756 0.0
C455 C 0.32202 0.3639 0.03542 0.0
C456 C 0.31243 0.35581 0.06652 0.0
C457 C 0.33188 0.35784 0.0895 0.0
C458 C 0.35992 0.36695 0.08222 0.0
C459 C 0.37656 0.36734 0.11132 0.0
C460 C 0.38773 0.3463 0.10749 0.0
C461 C 0.40093 0.39783 0.11863 0.0
C462 C 0.35354 0.35721 0.13618 0.0
C463 C 0.32795 0.35192 0.12312 0.0
C464 C 0.3036 0.34241 0.14141 0.0
C465 C 0.30529 0.3376 0.17376 0.0
C466 C 0.33115 0.34224 0.18757 0.0
C467 C 0.35562 0.35252 0.16843 0.0
H468 H 0.72852 0.96785 0.16528 0.0
H469 H 0.71812 0.04015 0.19029 0.0
H470 H 0.6984 0.0386 0.13681 0.0
H471 H 0.74953 0.98677 0.08584 0.0
H472 H 0.72998 0.95059 0.07087 0.0
H473 H 0.74271 0.95718 0.11113 0.0
H474 H 0.69152 0.92373 0.13134 0.0
H475 H 0.6787 0.91668 0.09112 0.0
H476 H 0.66323 0.93006 0.11925 0.0
H477 H 0.68221 0.03032 0.07876 0.0
H478 H 0.66546 1.01233 0.02434 0.0
H479 H 0.68514 0.9445 0.03931 0.0
C480 C 0.72189 0.98324 0.15961 0.0
C481 C 0.72487 1.00416 0.18185 0.0
C482 C 0.71579 0.0238 0.17363 0.0
C483 C 0.70479 0.02321 0.14326 0.0
C484 C 0.70269 1.00261 0.12162 0.0
C485 C 0.71053 0.98267 0.12971 0.0
C486 C 0.70556 0.96223 0.10266 0.0
C487 C 0.73362 0.96434 0.092 0.0
C488 C 0.68343 0.93135 0.11163 0.0
C489 C 0.69399 0.97393 0.07784 0.0
C490 C 0.6927 0.99738 0.08899 0.0
C491 C 0.683 1.01187 0.06991 0.0
C492 C 0.67374 1.00166 0.03896 0.0
C493 C 0.674 0.97703 0.02761 0.0
C494 C 0.68461 0.96334 0.04731 0.0
H495 H 0.74216 0.11343 0.49705 0.0
H496 H 0.69391 0.02595 0.53042 0.0
H497 H 0.6975 1.00837 0.47734 0.0
H498 H 0.71156 0.10133 0.42062 0.0
H499 H 0.74423 0.12614 0.4013 0.0
H500 H 0.73882 0.13169 0.4421 0.0
H501 H 0.7854 0.13243 0.45795 0.0
H502 H 0.79117 0.12727 0.41714 0.0
H503 H 0.79023 0.10284 0.44676 0.0
H504 H 0.70456 1.00069 0.41923 0.0
H505 H 0.71784 1.00354 0.36295 0.0
H506 H 0.76188 0.09635 0.36883 0.0
C507 C 0.73254 0.09055 0.49336 0.0
C508 C 0.71774 0.07103 0.51788 0.0
C509 C 0.70552 0.04129 0.51204 0.0
C510 C 0.70732 0.03113 0.48193 0.0
C511 C 0.72158 0.05102 0.45808 0.0
C512 C 0.73428 0.08012 0.46367 0.0
C513 C 0.7484 0.09717 0.43426 0.0
C514 C 0.73494 0.11513 0.42397 0.0
C515 C 0.78072 0.11603 0.43934 0.0
C516 C 0.74148 0.07314 0.41103 0.0
C517 C 0.72591 0.04666 0.4251 0.0
C518 C 0.71687 0.02134 0.40807 0.0
C519 C 0.7244 0.02318 0.37605 0.0
C520 C 0.74092 0.05018 0.3614 0.0
C521 C 0.74926 0.07538 0.37923 0.0
H522 H 0.04537 0.69331 0.5147 0.0
H523 H 0.95518 0.6644 0.52251 0.0
H524 H 0.95323 0.67323 0.46572 0.0
H525 H 0.06125 0.75019 0.45769 0.0
H526 H 0.08663 0.74424 0.43656 0.0
H527 H 0.08112 0.73646 0.47816 0.0
H528 H 0.06998 0.68459 0.46681 0.0
H529 H 0.07502 0.69208 0.42512 0.0
H530 H 0.04205 0.66264 0.43913 0.0
H531 H 0.96017 0.68254 0.40756 0.0
H532 H 0.9768 0.69693 0.35296 0.0
H533 H 0.06273 0.721 0.38255 0.0
C534 C 1.0253 0.68923 0.50459 0.0
C535 C 1.00042 0.67812 0.52323 0.0
C536 C 0.97456 0.67294 0.5089 0.0
C537 C 0.97318 0.67776 0.47655 0.0
C538 C 0.99786 0.68797 0.45874 0.0
C539 C 1.02354 0.69408 0.47227 0.0
C540 C 0.0469 0.70502 0.44769 0.0
C541 C 0.07036 0.73581 0.45549 0.0
C542 C 0.0592 0.68487 0.44451 0.0
C543 C 0.03028 0.70399 0.41827 0.0
C544 C 1.00198 0.69385 0.42517 0.0
C545 C 0.98233 0.69067 0.40189 0.0
C546 C 0.99197 0.69876 0.37086 0.0
C547 C 1.02108 0.71013 0.36334 0.0
C548 C 0.04033 0.71236 0.38742 0.0
H549 H 0.39308 0.30182 0.50166 0.0
H550 H 0.38782 0.37725 0.52586 0.0
H551 H 0.37039 0.37767 0.47161 0.0
H552 H 0.41762 0.32113 0.42353 0.0
H553 H 0.39692 0.28542 0.40756 0.0
H554 H 0.40795 0.29057 0.44842 0.0
H555 H 0.35553 0.2593 0.46605 0.0
H556 H 0.3444 0.25359 0.42523 0.0
H557 H 0.32922 0.268 0.45245 0.0
H558 H 0.35648 0.37115 0.41272 0.0
H559 H 0.34107 0.35451 0.35762 0.0
H560 H 0.35425 0.28257 0.37383 0.0
C561 C 0.3879 0.31823 0.4957 0.0
C562 C 0.39172 0.33947 0.51795 0.0
C563 C 0.38472 0.36057 0.50926 0.0
C564 C 0.37507 0.36112 0.47843 0.0
C565 C 0.37226 0.34022 0.45677 0.0
C566 C 0.37797 0.31885 0.46532 0.0
C567 C 0.37289 0.29856 0.43806 0.0
C568 C 0.40049 0.29896 0.42886 0.0
C569 C 0.34909 0.26806 0.44592 0.0
C570 C 0.36361 0.31189 0.41263 0.0
C571 C 0.36365 0.33609 0.42364 0.0
C572 C 0.35621 0.35212 0.40399 0.0
C573 C 0.34774 0.34268 0.37265 0.0
C574 C 0.34649 0.31727 0.36145 0.0
C575 C 0.35496 0.30205 0.3817 0.0
H576 H 0.05282 0.3737 0.8674 0.0
H577 H 0.98444 0.28558 0.85726 0.0
H578 H 0.97259 0.28504 0.91341 0.0
H579 H 0.07513 0.36703 0.94529 0.0
H580 H 0.08215 0.40173 0.95877 0.0
H581 H 0.08542 0.39576 0.91745 0.0
H582 H 0.04975 0.41271 0.90294 0.0
H583 H 0.04665 0.41907 0.94418 0.0
H584 H 1.01525 0.39591 0.9213 0.0
H585 H 0.96875 0.2931 0.97074 0.0
H586 H 0.97029 0.31079 0.02486 0.0
H587 H 0.04046 0.39409 0.99863 0.0
C588 C 0.0352 0.35438 0.87691 0.0
C589 C 1.01962 0.32967 0.85776 0.0
C590 C 0.99673 0.30482 0.87127 0.0
C591 C 0.98987 0.30422 0.90325 0.0
C592 C 1.00595 0.32868 0.92155 0.0
C593 C 0.02791 0.35343 0.90889 0.0
C594 C 0.04145 0.37685 0.93387 0.0
C595 C 0.07291 0.38587 0.93915 0.0
C596 C 0.03806 0.40266 0.92504 0.0
C597 C 1.02365 0.36132 0.96247 0.0
C598 C 1.00345 0.3335 0.9548 0.0
C599 C 0.98441 0.31489 0.97704 0.0
C600 C 0.98554 0.32515 1.00781 0.0
C601 C 1.00549 0.35386 1.01615 0.0
C602 C 1.02506 0.372 0.99315 0.0
H603 H 0.73475 0.68283 1.01843 0.0
H604 H 0.64586 0.65984 1.01362 0.0
H605 H 0.65074 0.67055 0.95653 0.0
H606 H 0.76013 0.74211 0.96329 0.0
H607 H 0.78645 0.73499 0.94644 0.0
H608 H 0.77582 0.72575 0.98695 0.0
H609 H 0.76288 0.67339 0.97511 0.0
H610 H 0.77309 0.68239 0.93445 0.0
H611 H 0.73789 0.65378 0.9438 0.0
H612 H 0.66485 0.68176 0.89906 0.0
H613 H 0.68851 0.69771 0.84725 0.0
H614 H 0.76837 0.71468 0.89005 0.0
C615 C 0.71636 0.68028 1.00545 0.0
C616 C 0.68991 0.67048 1.02059 0.0
C617 C 0.6664 0.66748 1.00267 0.0
C618 C 0.6689 0.67334 0.97014 0.0
C619 C 0.69512 0.68244 0.95584 0.0
C620 C 0.71855 0.68632 0.97302 0.0
C621 C 0.74447 0.69686 0.95212 0.0
C622 C 0.76811 0.7267 0.96283 0.0
C623 C 0.7552 0.67531 0.95133 0.0
C624 C 0.73192 0.69812 0.92047 0.0
C625 C 0.70337 0.68948 0.92302 0.0
C626 C 0.68724 0.68867 0.89683 0.0
C627 C 0.7008 0.69757 0.86743 0.0
C628 C 0.73027 0.70739 0.86453 0.0
C629 C 0.74581 0.70728 0.89144 0.0
H630 H 0.37549 0.08392 1.01945 0.0
H631 H 0.38043 1.00606 0.02269 0.0
H632 H 0.36864 0.99807 0.96572 0.0
H633 H 0.31511 0.05586 0.96461 0.0
H634 H 0.32807 0.08967 0.94485 0.0
H635 H 0.33662 0.08891 0.98591 0.0
H636 H 0.39028 0.11969 0.97307 0.0
H637 H 0.38192 0.12018 0.93189 0.0
H638 H 0.40559 0.10737 0.9435 0.0
H639 H 0.35957 1.00039 0.90751 0.0
H640 H 0.34704 1.00904 0.85399 0.0
H641 H 0.34514 0.08373 0.88929 0.0
C642 C 0.3738 0.06504 1.00822 0.0
C643 C 0.37889 0.04561 0.02549 0.0
C644 C 0.37639 0.0211 1.01 0.0
C645 C 0.36992 1.0165 0.97758 0.0
C646 C 0.3656 0.03637 0.96109 0.0
C647 C 0.36685 0.05983 0.976 0.0
C648 C 0.36053 0.0775 0.95303 0.0
C649 C 0.33347 0.078 0.96268 0.0
C650 C 0.38611 0.10799 0.95022 0.0
C651 C 0.35588 0.06051 0.9228 0.0
C652 C 0.35925 0.03706 0.92786 0.0
C653 C 0.35667 0.01857 0.90331 0.0
C654 C 0.3498 0.0238 0.87294 0.0
C655 C 0.34519 0.04709 0.86748 0.0
C656 C 0.34853 0.06575 0.89277 0.0
H657 H 0.29956 0.9556 0.68021 0.0
H658 H 0.35358 0.04792 0.68618 0.0
H659 H 0.36776 0.04887 0.63056 0.0
H660 H 0.34741 0.94331 0.6314 0.0
H661 H 0.31884 0.91465 0.60927 0.0
H662 H 0.31323 0.92149 0.64955 0.0
H663 H 0.27022 0.9265 0.63139 0.0
H664 H 0.2759 0.92 0.59101 0.0
H665 H 0.27511 0.95209 0.6012 0.0
H666 H 0.37365 0.03985 0.5728 0.0
H667 H 0.37524 0.0208 0.51984 0.0
H668 H 0.31959 0.93442 0.55305 0.0
C669 C 0.31456 0.97599 0.6699 0.0
C670 C 0.32546 1.00167 0.68755 0.0
C671 C 0.34511 0.02792 0.67321 0.0
C672 C 0.35315 0.02871 0.64155 0.0
C673 C 0.34165 1.00304 0.62465 0.0
C674 C 0.32315 0.97712 0.63851 0.0
C675 C 0.31428 0.95252 0.61545 0.0
C676 C 0.32403 0.93178 0.62711 0.0
C677 C 0.28196 0.93686 0.60941 0.0
C678 C 0.33054 0.96863 0.58641 0.0
C679 C 0.34592 0.99779 0.59199 0.0
C680 C 0.36189 1.01702 0.56826 0.0
C681 C 0.36254 1.00607 0.53824 0.0
C682 C 0.34769 0.97618 0.53247 0.0
C683 C 0.33138 0.95737 0.55688 0.0
H684 H 0.05837 0.30213 0.65319 0.0
H685 H 0.02917 0.35612 0.69578 0.0
H686 H 0.03062 0.37709 0.64314 0.0
H687 H 0.10677 0.354 0.59778 0.0
H688 H 0.09905 0.32752 0.56742 0.0
H689 H 0.096 0.31764 0.60843 0.0
H690 H 0.04385 0.27765 0.59843 0.0
H691 H 0.04659 0.28766 0.55747 0.0
H692 H 1.01883 0.28675 0.58156 0.0
H693 H 0.03421 0.39092 0.58467 0.0
H694 H 0.04324 0.39926 0.52738 0.0
H695 H 0.07005 0.33569 0.52437 0.0
C696 C 0.0524 0.31849 0.65162 0.0
C697 C 0.04362 0.32748 0.67864 0.0
C698 C 0.03612 0.34903 0.67545 0.0
C699 C 0.03672 0.3609 0.64561 0.0
C700 C 0.04497 0.35104 0.61935 0.0
C701 C 0.05295 0.33051 0.62226 0.0
C702 C 0.06127 0.3236 0.59072 0.0
C703 C 0.09263 0.33115 0.59112 0.0
C704 C 0.04145 0.29204 0.58152 0.0
C705 C 0.05671 0.34341 0.56937 0.0
C706 C 0.04716 0.35899 0.5862 0.0
C707 C 0.04171 0.37883 0.57136 0.0
C708 C 0.04678 0.38331 0.53872 0.0
C709 C 0.05731 0.36808 0.52123 0.0
C710 C 0.06187 0.34759 0.53688 0.0
H711 H 0.68376 0.66322 0.53791 0.0
H712 H 0.67719 0.73928 0.52193 0.0
H713 H 0.68882 0.75288 0.57798 0.0
H714 H 0.65258 0.64746 0.61503 0.0
H715 H 0.67606 0.63581 0.63071 0.0
H716 H 0.66769 0.63204 0.58908 0.0
H717 H 0.7214 0.66098 0.57585 0.0
H718 H 0.72993 0.66461 0.61743 0.0
H719 H 0.74309 0.69604 0.59309 0.0
H720 H 0.70024 0.75798 0.63588 0.0
H721 H 0.7134 0.75562 0.69122 0.0
H722 H 0.71283 0.67642 0.67008 0.0
C723 C 0.68499 0.68285 0.54611 0.0
C724 C 0.67956 0.70017 0.52537 0.0
C725 C 0.68126 0.72563 0.53722 0.0
C726 C 0.68779 0.73353 0.5691 0.0
C727 C 0.69261 0.71581 0.58896 0.0
C728 C 0.69151 0.69111 0.57794 0.0
C729 C 0.6977 0.67596 0.60434 0.0
C730 C 0.67197 0.64605 0.61012 0.0
C731 C 0.72463 0.67431 0.59725 0.0
C732 C 0.70248 0.69604 0.63186 0.0
C733 C 0.69931 0.71881 0.62245 0.0
C734 C 0.70282 0.74026 0.64354 0.0
C735 C 0.71023 0.73868 0.67499 0.0
C736 C 0.71414 0.71583 0.68513 0.0
C737 C 0.70988 0.69411 0.66321 0.0
H738 H 0.33226 0.34623 0.83395 0.0
H739 H 0.41551 0.41361 0.86523 0.0
H740 H 0.43435 0.41552 0.81177 0.0
H741 H 0.3584 0.31043 0.78075 0.0
H742 H 0.3306 0.30173 0.75197 0.0
H743 H 0.32416 0.30454 0.79323 0.0
H744 H 0.3092 0.342 0.77949 0.0
H745 H 0.31599 0.33963 0.73827 0.0
H746 H 0.3335 0.37384 0.75825 0.0
H747 H 0.44328 0.41283 0.75408 0.0
H748 H 0.44312 0.40242 0.6973 0.0
H749 H 0.35437 0.3359 0.70333 0.0
C750 C 0.35458 0.36106 0.82975 0.0
C751 C 0.37239 0.37977 0.85391 0.0
C752 C 0.40144 0.39896 0.84725 0.0
C753 C 0.41233 0.4003 0.81688 0.0
C754 C 0.394 0.38215 0.79343 0.0
C755 C 0.36586 0.36257 0.79959 0.0
C756 C 0.35063 0.34574 0.77002 0.0
C757 C 0.34035 0.31371 0.77425 0.0
C758 C 0.32587 0.3506 0.76098 0.0
C759 C 0.37452 0.35922 0.74617 0.0
C760 C 0.3993 0.38025 0.76019 0.0
C761 C 0.42407 0.39623 0.74291 0.0
C762 C 0.42369 0.39023 0.71056 0.0
C763 C 0.39874 0.36829 0.69573 0.0
C764 C 0.3738 0.35277 0.71389 0.0
H765 H 0.72491 0.04185 0.71024 0.0
H766 H 0.64496 0.03875 0.68899 0.0
H767 H 0.62882 0.02291 0.7433 0.0
H768 H 0.6947 0.9789 0.76087 0.0
H769 H 0.72452 0.99397 0.78791 0.0
H770 H 0.7297 1.00446 0.74699 0.0
H771 H 0.75237 0.05765 0.76405 0.0
H772 H 0.74699 0.0473 0.80501 0.0
H773 H 0.73268 0.06855 0.78921 0.0
H774 H 0.62175 1.00927 0.79998 0.0
H775 H 0.62266 0.99514 0.85502 0.0
H776 H 0.70679 1.00613 0.84038 0.0
C777 C 0.7039 0.03755 0.7169 0.0
C778 C 0.68624 0.04159 0.69522 0.0
C779 C 0.65892 0.03583 0.70503 0.0
C780 C 0.64955 0.02689 0.7359 0.0
C781 C 0.66763 0.02364 0.75678 0.0
C782 C 0.6941 0.02849 0.74772 0.0
C783 C 0.70924 0.02331 0.77501 0.0
C784 C 0.71486 0.99869 0.76723 0.0
C785 C 0.73696 0.05085 0.78384 0.0
C786 C 0.68715 1.01493 0.80081 0.0
C787 C 0.6634 1.01541 0.7897 0.0
C788 C 0.64016 1.00868 0.80894 0.0
C789 C 0.64095 1.00074 0.84026 0.0
C790 C 0.66478 0.99946 0.85216 0.0
C791 C 0.68829 1.00695 0.83211 0.0
H792 H 0.04889 0.72655 0.83711 0.0
H793 H 0.06449 0.65568 0.85072 0.0
H794 H 0.05222 0.64166 0.79494 0.0
H795 H 0.9883 0.68858 0.78449 0.0
H796 H 0.99747 0.71933 0.76014 0.0
H797 H 1.00775 0.72412 0.80124 0.0
H798 H 0.06031 0.75744 0.7854 0.0
H799 H 0.05021 0.75249 0.74422 0.0
H800 H 0.07693 0.74454 0.75821 0.0
H801 H 0.0393 0.63554 0.73787 0.0
H802 H 1.02222 0.63497 0.68375 0.0
H803 H 1.0137 0.70903 0.70624 0.0
C804 C 0.04959 0.708 0.8284 0.0
C805 C 0.05774 0.69228 0.84844 0.0
C806 C 0.05832 0.66811 0.83601 0.0
C807 C 0.0515 0.66001 0.80425 0.0
C808 C 0.04399 0.67617 0.78509 0.0
C809 C 0.04266 0.69946 0.79667 0.0
C810 C 0.03325 0.71264 0.77097 0.0
C811 C 1.00501 0.71106 0.77974 0.0
C812 C 0.05657 0.74362 0.76432 0.0
C813 C 0.02943 0.69302 0.74326 0.0
C814 C 0.03603 0.67232 0.75197 0.0
C815 C 0.03401 0.65159 0.73075 0.0
C816 C 1.02434 0.65152 0.69997 0.0
C817 C 1.01657 0.67194 0.69059 0.0
C818 C 1.01962 0.69324 0.71252 0.0
H819 H 0.62861 0.64716 0.32045 0.0
H820 H 0.70858 0.7108 0.36279 0.0
H821 H 0.7321 0.71809 0.31081 0.0
H822 H 0.65885 0.61642 0.26661 0.0
H823 H 0.63343 0.61052 0.23574 0.0
H824 H 0.62376 0.6097 0.27657 0.0
H825 H 0.61009 0.64851 0.26503 0.0
H826 H 0.62017 0.64982 0.2243 0.0
H827 H 0.63608 0.68206 0.24795 0.0
H828 H 0.74582 0.72063 0.25269 0.0
H829 H 0.74986 0.71425 0.19534 0.0
H830 H 0.66086 0.64811 0.19213 0.0
C831 C 0.65119 0.66233 0.31894 0.0
C832 C 0.6668 0.67835 0.3457 0.0
C833 C 0.69628 0.69805 0.34269 0.0
C834 C 0.70974 0.70249 0.31321 0.0
C835 C 0.69348 0.68685 0.28709 0.0
C836 C 0.66494 0.66681 0.28988 0.0
C837 C 0.65209 0.65276 0.25837 0.0
C838 C 0.64141 0.62044 0.25939 0.0
C839 C 0.6282 0.65865 0.24834 0.0
C840 C 0.67777 0.66819 0.23723 0.0
C841 C 0.70142 0.68793 0.25411 0.0
C842 C 0.72745 0.70507 0.23935 0.0
C843 C 0.72949 0.70145 0.20669 0.0
C844 C 0.70569 0.68069 0.18918 0.0
C845 C 0.67948 0.66414 0.20479 0.0
H846 H 0.44513 0.04306 0.2074 0.0
H847 H 0.37437 0.05766 0.19123 0.0
H848 H 0.35657 0.03991 0.24511 0.0
H849 H 0.40526 0.97731 0.25154 0.0
H850 H 0.43476 0.98523 0.27752 0.0
H851 H 0.44126 0.99878 0.23775 0.0
H852 H 0.47255 0.05034 0.25968 0.0
H853 H 0.46583 0.03699 0.29953 0.0
H854 H 0.45774 0.06431 0.28796 0.0
H855 H 0.34846 0.02307 0.30259 0.0
H856 H 0.34743 1.00318 0.35567 0.0
H857 H 0.42244 0.99791 0.33219 0.0
C858 C 0.42576 0.04234 0.21508 0.0
C859 C 0.41115 0.05179 0.19521 0.0
C860 C 0.38579 0.05034 0.20604 0.0
C861 C 0.37565 0.04048 0.23666 0.0
C862 C 0.39095 0.03184 0.2559 0.0
C863 C 0.41519 0.03223 0.24525 0.0
C864 C 0.42751 0.0213 0.27009 0.0
C865 C 0.42716 0.99403 0.25853 0.0
C866 C 0.45769 0.04463 0.27989 0.0
C867 C 0.40657 1.01486 0.29658 0.0
C868 C 0.38578 0.02135 0.28818 0.0
C869 C 0.36453 0.01773 0.30928 0.0
C870 C 0.36423 1.00663 0.33943 0.0
C871 C 0.38482 0.99898 0.34798 0.0
C872 C 0.40633 1.00343 0.32627 0.0
H873 H 0.04016 0.34316 0.33603 0.0
H874 H 0.05111 0.42772 0.35244 0.0
H875 H 0.03962 0.4301 0.2966 0.0
H876 H 0.07067 0.35693 0.25871 0.0
H877 H 0.04576 0.32212 0.24283 0.0
H878 H 0.05423 0.32635 0.28445 0.0
H879 H 1.00077 0.30394 0.29789 0.0
H880 H 0.99211 0.29935 0.25633 0.0
H881 H 0.98054 0.31891 0.28093 0.0
H882 H 0.02859 0.42445 0.23901 0.0
H883 H 1.01477 0.40942 0.1837 0.0
H884 H 1.01004 0.32813 0.20361 0.0
C885 C 0.03986 0.36206 0.32796 0.0
C886 C 0.04659 0.38526 0.34879 0.0
C887 C 0.04606 0.40963 0.33712 0.0
C888 C 0.03964 0.41126 0.30534 0.0
C889 C 0.03366 0.38832 0.28538 0.0
C890 C 0.03338 0.36403 0.29619 0.0
C891 C 0.02601 0.34239 0.26958 0.0
C892 C 0.05064 0.33662 0.26354 0.0
C893 C 0.9982 0.3145 0.2766 0.0
C894 C 1.02225 0.3584 0.2422 0.0
C895 C 0.02695 0.38491 0.25191 0.0
C896 C 1.02476 0.40369 0.23111 0.0
C897 C 1.01696 0.39495 0.19966 0.0
C898 C 1.01129 0.36757 0.18915 0.0
C899 C 1.01437 0.34925 0.21076 0.0
H900 H 0.22971 0.86834 0.42355 0.0
H901 H 0.28428 0.90539 0.34248 0.0
H902 H 0.24177 0.88689 0.30751 0.0
H903 H 0.17453 0.80455 0.3857 0.0
H904 H 0.14598 0.80534 0.40647 0.0
H905 H 0.18067 0.82042 0.42461 0.0
H906 H 0.18205 0.86883 0.43209 0.0
H907 H 0.14736 0.85388 0.41401 0.0
H908 H 0.17681 0.88604 0.39831 0.0
H909 H 0.19281 0.86209 0.28129 0.0
H910 H 0.14147 0.8379 0.26683 0.0
H911 H 0.11927 0.82108 0.36568 0.0
C912 C 0.23259 0.87233 0.39839 0.0
C913 C 0.26015 0.88797 0.38551 0.0
C914 C 0.26326 0.8934 0.35263 0.0
C915 C 0.23928 0.88289 0.33268 0.0
C916 C 0.21233 0.86745 0.3461 0.0
C917 C 0.20888 0.86259 0.3783 0.0
C918 C 0.17766 0.84672 0.38705 0.0
C919 C 0.16922 0.81753 0.40182 0.0
C920 C 0.17056 0.86497 0.40917 0.0
C921 C 0.16405 0.8432 0.35476 0.0
C922 C 0.18436 0.8549 0.33135 0.0
C923 C 0.17676 0.85318 0.29948 0.0
C924 C 0.14768 0.8394 0.29144 0.0
C925 C 0.12668 0.82813 0.31518 0.0
C926 C 0.13504 0.83005 0.34719 0.0
H927 H 0.22038 0.30602 0.37174 0.0
H928 H 0.22029 0.32909 0.27371 0.0
H929 H 0.19726 0.35712 0.28892 0.0
H930 H 0.1529 0.29922 0.39364 0.0
H931 H 0.16513 0.31478 0.43235 0.0
H932 H 0.18058 0.29582 0.41342 0.0
H933 H 0.23074 0.34045 0.41981 0.0
H934 H 0.21543 0.35958 0.43865 0.0
H935 H 0.23741 0.37433 0.40423 0.0
H936 H 0.17332 0.382 0.31513 0.0
H937 H 0.153 0.40386 0.35042 0.0
H938 H 0.17075 0.36617 0.43153 0.0
C939 C 0.21517 0.31667 0.35344 0.0
C940 C 0.22183 0.31515 0.32144 0.0
C941 C 0.21534 0.33 0.29831 0.0
C942 C 0.20221 0.34588 0.30674 0.0
C943 C 0.19601 0.34702 0.33851 0.0
C944 C 0.20247 0.33297 0.36153 0.0
C945 C 0.1946 0.33847 0.39413 0.0
C946 C 0.17195 0.3104 0.40927 0.0
C947 C 0.22112 0.35414 0.41546 0.0
C948 C 0.18253 0.35767 0.38588 0.0
C949 C 0.18331 0.36217 0.35366 0.0
C950 C 0.17274 0.3787 0.3404 0.0
C951 C 0.16113 0.39095 0.36059 0.0
C952 C 0.16045 0.38692 0.39373 0.0
C953 C 0.17138 0.37005 0.40638 0.0
H954 H 0.72286 0.93029 0.33841 0.0
H955 H 0.77187 0.91311 0.26995 0.0
H956 H 0.74909 0.86297 0.28784 0.0
H957 H 0.72642 0.88673 0.40032 0.0
H958 H 0.69076 0.87445 0.41401 0.0
H959 H 0.71045 0.90887 0.39534 0.0
H960 H 0.66971 0.89406 0.35441 0.0
H961 H 0.64991 0.85956 0.37291 0.0
H962 H 0.65786 0.86184 0.33133 0.0
H963 H 0.72077 0.81459 0.31283 0.0
H964 H 0.69047 0.77189 0.34449 0.0
H965 H 0.66052 0.82047 0.398 0.0
C966 C 0.72862 0.91592 0.327 0.0
C967 C 0.74921 0.92572 0.30271 0.0
C968 C 0.75645 0.90627 0.28878 0.0
C969 C 0.74346 0.87767 0.29866 0.0
C970 C 0.72331 0.86875 0.32263 0.0
C971 C 0.71599 0.8873 0.33675 0.0
C972 C 0.69421 0.87238 0.36259 0.0
C973 C 0.70618 0.88645 0.39498 0.0
C974 C 0.66627 0.87194 0.35484 0.0
C975 C 0.69043 0.84255 0.36077 0.0
C976 C 0.70732 0.84092 0.33745 0.0
C977 C 0.70758 0.81566 0.33128 0.0
C978 C 0.69035 0.79149 0.34961 0.0
C979 C 0.67313 0.79262 0.3741 0.0
C980 C 0.67314 0.81861 0.37942 0.0
H981 H 0.87201 0.15024 0.22747 0.0
H982 H 0.78281 0.12644 0.22977 0.0
H983 H 0.79414 0.17104 0.20258 0.0
H984 H 0.90031 0.22688 0.24118 0.0
H985 H 0.92994 0.23755 0.21488 0.0
H986 H 0.91519 0.20388 0.23532 0.0
H987 H 0.90721 0.17727 0.18185 0.0
H988 H 0.92197 0.21084 0.16127 0.0
H989 H 0.88689 0.18211 0.1511 0.0
H990 H 0.81429 0.21709 0.17351 0.0
H991 H 0.84237 0.26208 0.14419 0.0
H992 H 0.919 0.25774 0.16133 0.0
C993 C 0.85489 0.15452 0.2226 0.0
C994 C 0.82639 0.13445 0.23068 0.0
C995 C 0.80468 0.14095 0.22343 0.0
C996 C 0.81094 0.16646 0.20818 0.0
C997 C 0.83909 0.18556 0.20039 0.0
C998 C 0.86079 0.18005 0.20739 0.0
C999 C 0.88916 0.20409 0.19568 0.0
C1000 C 0.90987 0.21898 0.22342 0.0
C1001 C 0.90206 0.1929 0.17101 0.0
C1002 C 0.87989 0.22375 0.18073 0.0
C1003 C 0.8509 0.21258 0.18385 0.0
C1004 C 0.83704 0.22614 0.17106 0.0
C1005 C 0.85313 0.25162 0.15433 0.0
C1006 C 0.88284 0.26347 0.1505 0.0
C1007 C 0.89641 0.24945 0.16429 0.0
H1008 H 0.80409 0.68256 0.14577 0.0
H1009 H 0.78458 0.59459 0.15681 0.0
H1010 H 0.82969 0.61137 0.18606 0.0
H1011 H 0.87927 0.71276 0.13393 0.0
H1012 H 0.88893 0.74522 0.15564 0.0
H1013 H 0.85492 0.72631 0.13586 0.0
H1014 H 0.82952 0.7234 0.18861 0.0
H1015 H 0.86347 0.74229 0.20856 0.0
H1016 H 0.8365 0.70784 0.22274 0.0
H1017 H 0.87643 0.63751 0.21479 0.0
H1018 H 0.92236 0.67103 0.23944 0.0
H1019 H 0.91263 0.74255 0.20869 0.0
C1020 C 0.80918 0.6668 0.15454 0.0
C1021 C 0.79069 0.63718 0.14893 0.0
C1022 C 0.79846 0.61735 0.16044 0.0
C1023 C 0.82398 0.62668 0.17727 0.0
C1024 C 0.84166 0.65597 0.18236 0.0
C1025 C 0.8347 0.67577 0.17125 0.0
C1026 C 0.85777 0.70606 0.17951 0.0
C1027 C 0.871 0.72361 0.14944 0.0
C1028 C 0.84611 0.72076 0.20114 0.0
C1029 C 0.87876 0.70016 0.19704 0.0
C1030 C 0.86895 0.67111 0.1985 0.0
C1031 C 0.88444 0.66033 0.21359 0.0
C1032 C 0.91073 0.67969 0.22739 0.0
C1033 C 0.92162 0.70971 0.22592 0.0
C1034 C 0.90512 0.71988 0.21056 0.0
H1035 H 0.32407 0.19098 0.23736 0.0
H1036 H 0.36462 0.27676 0.19851 0.0
H1037 H 0.39642 0.26613 0.16722 0.0
H1038 H 0.38781 0.18574 0.24332 0.0
H1039 H 0.37035 0.14845 0.23214 0.0
H1040 H 0.3506 0.16266 0.25175 0.0
H1041 H 0.31394 0.14449 0.20572 0.0
H1042 H 0.3336 0.13025 0.18597 0.0
H1043 H 0.32607 0.15517 0.16582 0.0
H1044 H 0.42341 0.24631 0.1394 0.0
H1045 H 0.44442 0.21891 0.1174 0.0
H1046 H 0.38744 0.1458 0.17455 0.0
C1047 C 0.33956 0.20747 0.22218 0.0
C1048 C 0.34189 0.23483 0.22068 0.0
C1049 C 0.36266 0.25586 0.20063 0.0
C1050 C 0.38074 0.24995 0.18254 0.0
C1051 C 0.37796 0.2229 0.18466 0.0
C1052 C 0.35796 0.20197 0.20399 0.0
C1053 C 0.35967 0.17471 0.20193 0.0
C1054 C 0.36758 0.16747 0.23421 0.0
C1055 C 0.33165 0.14968 0.18909 0.0
C1056 C 0.38365 0.18361 0.17835 0.0
C1057 C 0.39381 0.21148 0.16871 0.0
C1058 C 0.41575 0.22451 0.14693 0.0
C1059 C 0.42773 0.20872 0.13469 0.0
C1060 C 0.41792 0.18007 0.14424 0.0
C1061 C 0.39545 0.16748 0.16643 0.0
H1062 H 0.79252 0.13653 0.67298 0.0
H1063 H 0.80701 0.20685 0.61166 0.0
H1064 H 0.8571 0.2337 0.62932 0.0
H1065 H 0.83583 0.17987 0.73724 0.0
H1066 H 0.84934 0.15644 0.74758 0.0
H1067 H 0.81484 0.142 0.72914 0.0
H1068 H 0.83036 0.11972 0.68463 0.0
H1069 H 0.86493 0.13409 0.70293 0.0
H1070 H 0.86196 0.1423 0.66229 0.0
H1071 H 0.90521 0.25327 0.65379 0.0
H1072 H 0.94819 0.26524 0.68488 0.0
H1073 H 0.90309 0.18302 0.73192 0.0
C1074 C 0.80635 0.15742 0.66301 0.0
C1075 C 0.79579 0.16959 0.6409 0.0
C1076 C 0.81448 0.19722 0.62883 0.0
C1077 C 0.84303 0.21256 0.63857 0.0
C1078 C 0.85269 0.20008 0.66052 0.0
C1079 C 0.83497 0.17319 0.67271 0.0
C1080 C 0.85064 0.16527 0.69691 0.0
C1081 C 0.83684 0.16063 0.72966 0.0
C1082 C 0.85206 0.13877 0.68603 0.0
C1083 C 0.87987 0.19199 0.6965 0.0
C1084 C 0.88053 0.21166 0.67516 0.0
C1085 C 0.90492 0.23808 0.67067 0.0
C1086 C 0.92923 0.24477 0.68868 0.0
C1087 C 0.92911 0.22527 0.71121 0.0
C1088 C 0.90404 0.19835 0.71481 0.0
H1089 H 0.90966 0.67978 0.65302 0.0
H1090 H 0.85143 0.59306 0.68341 0.0
H1091 H 0.82501 0.61064 0.71494 0.0
H1092 H 0.91164 0.7154 0.72696 0.0
H1093 H 0.91251 0.74567 0.70788 0.0
H1094 H 0.92748 0.72646 0.68848 0.0
H1095 H 0.89515 0.71801 0.63964 0.0
H1096 H 0.88012 0.73723 0.65886 0.0
H1097 H 0.85718 0.7012 0.64475 0.0
H1098 H 0.80471 0.63753 0.74303 0.0
H1099 H 0.79077 0.67136 0.764 0.0
H1100 H 0.86119 0.74073 0.71417 0.0
C1101 C 0.89155 0.66456 0.66659 0.0
C1102 C 0.88265 0.63498 0.66574 0.0
C1103 C 0.8585 0.61572 0.68342 0.0
C1104 C 0.84345 0.62554 0.70157 0.0
C1105 C 0.85268 0.65474 0.70177 0.0
C1106 C 0.87609 0.67399 0.68465 0.0
C1107 C 0.88088 0.70414 0.6881 0.0
C1108 C 0.90985 0.72409 0.70379 0.0
C1109 C 0.87816 0.71582 0.65593 0.0
C1110 C 0.85649 0.6988 0.70979 0.0
C1111 C 0.84062 0.67019 0.71751 0.0
C1112 C 0.81693 0.65998 0.73703 0.0
C1113 C 0.80906 0.67943 0.7487 0.0
C1114 C 0.82464 0.70888 0.74073 0.0
C1115 C 0.84887 0.71855 0.72114 0.0
H1116 H 0.3283 0.15847 0.7422 0.0
H1117 H 0.35734 0.10854 0.6898 0.0
H1118 H 0.38596 0.14983 0.65574 0.0
H1119 H 0.32319 0.1972 0.67371 0.0
H1120 H 0.33555 0.23027 0.69527 0.0
H1121 H 0.31661 0.19654 0.71554 0.0
H1122 H 0.35856 0.21309 0.75512 0.0
H1123 H 0.37763 0.24682 0.73494 0.0
H1124 H 0.39385 0.22497 0.74038 0.0
H1125 H 0.41292 0.19657 0.62838 0.0
H1126 H 0.4357 0.24598 0.6084 0.0
H1127 H 0.3891 0.26651 0.67681 0.0
C1128 C 0.34043 0.15612 0.72336 0.0
C1129 C 0.3407 0.13014 0.71909 0.0
C1130 C 0.35712 0.1282 0.6942 0.0
C1131 C 0.37335 0.15155 0.67446 0.0
C1132 C 0.37293 0.17685 0.67958 0.0
C1133 C 0.35682 0.17934 0.70325 0.0
C1134 C 0.36063 0.20928 0.70372 0.0
C1135 C 0.33231 0.20825 0.69663 0.0
C1136 C 0.37343 0.22443 0.73543 0.0
C1137 C 0.38159 0.22318 0.67684 0.0
C1138 C 0.38833 0.20398 0.66331 0.0
C1139 C 0.40774 0.21179 0.6387 0.0
C1140 C 0.42074 0.24 0.62763 0.0
C1141 C 0.41431 0.26022 0.64101 0.0
C1142 C 0.39424 0.2515 0.66584 0.0
H1143 H 0.20022 0.90618 0.80681 0.0
H1144 H 0.27653 0.95548 0.86369 0.0
H1145 H 0.26302 0.91359 0.8973 0.0
H1146 H 0.154 0.86583 0.87288 0.0
H1147 H 0.13462 0.8332 0.85023 0.0
H1148 H 0.14972 0.86736 0.83075 0.0
H1149 H 0.17705 0.85194 0.79281 0.0
H1150 H 0.16209 0.81781 0.81223 0.0
H1151 H 0.20016 0.84002 0.80898 0.0
H1152 H 0.24279 0.86629 0.92365 0.0
H1153 H 0.21606 0.81647 0.94224 0.0
H1154 H 0.15184 0.79689 0.86985 0.0
C1155 C 0.21389 0.90828 0.82656 0.0
C1156 C 0.23968 0.93425 0.83225 0.0
C1157 C 0.25703 0.93584 0.85827 0.0
C1158 C 0.24942 0.91215 0.87774 0.0
C1159 C 0.22422 0.88685 0.87119 0.0
C1160 C 0.20656 0.88471 0.84642 0.0
C1161 C 0.18084 0.85469 0.84448 0.0
C1162 C 0.15316 0.85532 0.84992 0.0
C1163 C 0.18 0.84027 0.81274 0.0
C1164 C 0.18707 0.84033 0.87181 0.0
C1165 C 0.21223 0.85938 0.88683 0.0
C1166 C 0.223 0.85118 0.91216 0.0
C1167 C 0.20774 0.82274 0.92242 0.0
C1168 C 0.18186 0.80265 0.90752 0.0
C1169 C 0.17136 0.81176 0.88197 0.0
H1170 H 0.15487 0.32562 0.78409 0.0
H1171 H 0.1013 0.30638 0.86639 0.0
H1172 H 0.14421 0.3299 0.90085 0.0
H1173 H 0.21098 0.31702 0.81967 0.0
H1174 H 0.23908 0.34696 0.7991 0.0
H1175 H 0.20418 0.32712 0.78141 0.0
H1176 H 0.20223 0.37397 0.77592 0.0
H1177 H 0.23709 0.39393 0.79362 0.0
H1178 H 0.20761 0.39586 0.81044 0.0
H1179 H 0.19342 0.3545 0.92628 0.0
H1180 H 0.24482 0.3824 0.94006 0.0
H1181 H 0.26595 0.38907 0.84069 0.0
C1182 C 0.1523 0.32611 0.80942 0.0
C1183 C 0.1249 0.31389 0.82278 0.0
C1184 C 0.12219 0.31555 0.85588 0.0
C1185 C 0.1464 0.32877 0.87554 0.0
C1186 C 0.17318 0.3407 0.86164 0.0
C1187 C 0.17625 0.33984 0.82926 0.0
C1188 C 0.20737 0.35577 0.82005 0.0
C1189 C 0.2159 0.3355 0.80412 0.0
C1190 C 0.21395 0.3814 0.79875 0.0
C1191 C 0.22135 0.36558 0.85227 0.0
C1192 C 0.20131 0.35634 0.87602 0.0
C1193 C 0.20925 0.36204 0.90783 0.0
C1194 C 0.2384 0.37779 0.91548 0.0
C1195 C 0.25917 0.3881 0.89144 0.0
C1196 C 0.25043 0.38183 0.85948 0.0
H1197 H 0.73983 0.85611 0.80849 0.0
H1198 H 0.72344 0.78682 0.87258 0.0
H1199 H 0.69575 0.80083 0.9067 0.0
H1200 H 0.74706 0.90775 0.87018 0.0
H1201 H 0.72978 0.92253 0.8466 0.0
H1202 H 0.74952 0.90795 0.82767 0.0
H1203 H 0.70499 0.87401 0.79434 0.0
H1204 H 0.68511 0.88839 0.81325 0.0
H1205 H 0.6721 0.85041 0.81408 0.0
H1206 H 0.66749 0.82014 0.93231 0.0
H1207 H 0.64169 0.8448 0.94892 0.0
H1208 H 0.677 0.90286 0.86979 0.0
C1209 C 0.73087 0.84418 0.82996 0.0
C1210 C 0.73376 0.82014 0.83761 0.0
C1211 C 0.72123 0.80495 0.8658 0.0
C1212 C 0.70558 0.81288 0.88551 0.0
C1213 C 0.70273 0.83626 0.877 0.0
C1214 C 0.71518 0.85188 0.85006 0.0
C1215 C 0.70812 0.87569 0.84608 0.0
C1216 C 0.73524 0.90523 0.84774 0.0
C1217 C 0.6916 0.87188 0.8151 0.0
C1218 C 0.68943 0.87067 0.87474 0.0
C1219 C 0.68668 0.84781 0.8922 0.0
C1220 C 0.66964 0.83821 0.91896 0.0
C1221 C 0.65491 0.85223 0.92811 0.0
C1222 C 0.65729 0.87573 0.91068 0.0
C1223 C 0.67507 0.88521 0.88379 0.0
H1224 H 0.53962 0.49002 0.56938 0.0
H1225 H 0.46459 0.43737 0.51182 0.0
H1226 H 0.47748 0.47821 0.47657 0.0
H1227 H 0.53767 0.55496 0.56347 0.0
H1228 H 0.57571 0.57774 0.56097 0.0
H1229 H 0.56099 0.54421 0.58162 0.0
H1230 H 0.5898 0.52869 0.54618 0.0
H1231 H 0.60465 0.56223 0.52545 0.0
H1232 H 0.58628 0.52893 0.50379 0.0
H1233 H 0.49747 0.52506 0.4483 0.0
H1234 H 0.52399 0.57444 0.42815 0.0
H1235 H 0.58692 0.59691 0.50276 0.0
C1236 C 0.52603 0.48687 0.54919 0.0
C1237 C 0.50086 0.46026 0.54372 0.0
C1238 C 0.48365 0.45747 0.51706 0.0
C1239 C 0.49091 0.48057 0.49668 0.0
C1240 C 0.51561 0.50645 0.50298 0.0
C1241 C 0.53303 0.50973 0.52846 0.0
C1242 C 0.55828 0.54002 0.52998 0.0
C1243 C 0.55814 0.55512 0.56084 0.0
C1244 C 0.58642 0.53995 0.52611 0.0
C1245 C 0.55218 0.55325 0.5015 0.0
C1246 C 0.52742 0.53347 0.48633 0.0
C1247 C 0.51693 0.54071 0.45993 0.0
C1248 C 0.53207 0.5689 0.44876 0.0
C1249 C 0.55755 0.58965 0.46382 0.0
C1250 C 0.56773 0.58151 0.49047 0.0
H1251 H 0.56614 0.06326 0.57122 0.0
H1252 H 0.61644 0.03732 0.51508 0.0
H1253 H 0.57462 1.00769 0.48158 0.0
H1254 H 0.50145 0.99661 0.56925 0.0
H1255 H 0.47885 1.01212 0.56566 0.0
H1256 H 0.51288 0.03178 0.58525 0.0
H1257 H 0.5273 0.07428 0.5471 0.0
H1258 H 0.49326 0.05479 0.52744 0.0
H1259 H 0.52557 0.06816 0.50501 0.0
H1260 H 0.52688 0.97923 0.45519 0.0
H1261 H 0.47706 0.95578 0.43636 0.0
H1262 H 0.4579 1.00139 0.50788 0.0
C1263 C 0.56862 0.05171 0.55171 0.0
C1264 C 0.59485 0.05262 0.54624 0.0
C1265 C 0.59669 0.03674 0.52042 0.0
C1266 C 0.57301 0.01991 0.501 0.0
C1267 C 0.54753 0.01926 0.50735 0.0
C1268 C 0.54521 0.03492 0.53189 0.0
C1269 C 0.51526 0.03036 0.53361 0.0
C1270 C 0.50129 1.01691 0.56533 0.0
C1271 C 0.51537 0.05858 0.52795 0.0
C1272 C 0.50108 1.00951 0.50636 0.0
C1273 C 0.52009 1.00334 0.49162 0.0
C1274 C 0.51184 0.98401 0.46645 0.0
C1275 C 0.48345 0.97065 0.45604 0.0
C1276 C 0.46356 0.97673 0.47059 0.0
C1277 C 0.47266 0.99657 0.49601 0.0
H1278 H 0.05225 0.47685 0.50997 0.0
H1279 H 0.10215 0.54438 0.44331 0.0
H1280 H 0.07995 0.57186 0.46264 0.0
H1281 H 0.98801 0.48096 0.50377 0.0
H1282 H 0.97969 0.47446 0.54519 0.0
H1283 H 0.99941 0.45998 0.52606 0.0
H1284 H 0.03989 0.48502 0.56755 0.0
H1285 H 1.02026 0.49949 0.58687 0.0
H1286 H 0.05609 0.52312 0.57375 0.0
H1287 H 0.05132 0.59143 0.48823 0.0
H1288 H 1.02069 0.60309 0.52 0.0
H1289 H 0.99046 0.52358 0.57172 0.0
C1290 C 0.05839 0.49734 0.49931 0.0
C1291 C 0.07899 0.50842 0.47504 0.0
C1292 C 0.08671 0.53555 0.46211 0.0
C1293 C 0.07405 0.55124 0.4728 0.0
C1294 C 0.05377 0.53965 0.49663 0.0
C1295 C 0.04612 0.51341 0.5099 0.0
C1296 C 1.02418 0.5061 0.53565 0.0
C1297 C 0.99616 0.47875 0.52715 0.0
C1298 C 0.03581 0.50327 0.56786 0.0
C1299 C 1.02067 0.53231 0.53476 0.0
C1300 C 0.0378 0.55128 0.51194 0.0
C1301 C 0.03801 0.57683 0.50639 0.0
C1302 C 1.02052 0.58334 0.52485 0.0
C1303 C 1.00309 0.56457 0.54899 0.0
C1304 C 1.00323 0.53857 0.55363 0.0
H1305 H 0.45421 0.49858 0.03265 0.0
H1306 H 0.47662 0.48925 0.93692 0.0
H1307 H 0.52728 0.51114 0.95324 0.0
H1308 H 0.51664 0.56609 0.05103 0.0
H1309 H 0.51895 0.55648 0.09128 0.0
H1310 H 0.48489 0.54091 0.07159 0.0
H1311 H 0.47641 0.49011 0.08351 0.0
H1312 H 0.51049 0.50552 0.10315 0.0
H1313 H 0.50231 0.48053 0.07098 0.0
H1314 H 0.57597 0.53564 0.98033 0.0
H1315 H 0.61778 0.55748 1.01647 0.0
H1316 H 0.56256 0.54826 0.0947 0.0
C1317 C 0.46985 0.50145 1.01507 0.0
C1318 C 0.46162 0.49256 0.98342 0.0
C1319 C 0.48257 0.49598 0.96125 0.0
C1320 C 0.51133 0.50844 0.97031 0.0
C1321 C 0.51873 0.51699 1.00175 0.0
C1322 C 0.4985 0.51338 0.02383 0.0
C1323 C 0.51171 0.52337 0.05634 0.0
C1324 C 0.50782 0.54819 0.06825 0.0
C1325 C 0.4995 0.49839 0.07988 0.0
C1326 C 0.5426 0.53341 0.04913 0.0
C1327 C 0.54632 0.52981 1.01748 0.0
C1328 C 0.57322 0.53836 1.00519 0.0
C1329 C 0.59684 0.55081 0.02581 0.0
C1330 C 0.59338 0.55426 0.0584 0.0
C1331 C 0.56582 0.54538 0.07004 0.0
H1332 H 0.5809 1.01349 0.9906 0.0
H1333 H 0.50671 0.92835 0.99247 0.0
H1334 H 0.48005 0.94725 1.02107 0.0
H1335 H 0.5708 0.03616 0.06888 0.0
H1336 H 0.58243 0.07235 0.05672 0.0
H1337 H 0.59628 0.05204 0.03746 0.0
H1338 H 0.57986 0.06095 0.98319 0.0
H1339 H 0.56589 0.0812 1.00227 0.0
H1340 H 0.5431 0.05101 0.97743 0.0
H1341 H 0.46089 0.97512 0.04815 0.0
H1342 H 0.45019 1.01025 0.07208 0.0
H1343 H 0.53624 0.07817 0.05244 0.0
C1344 C 0.55919 0.99879 0.99745 0.0
C1345 C 0.54589 0.96937 0.98919 0.0
C1346 C 0.51726 0.95095 0.99816 0.0
C1347 C 0.50197 0.96147 1.01458 0.0
C1348 C 0.51553 0.99055 0.02196 0.0
C1349 C 0.54348 1.00901 1.01377 0.0
C1350 C 0.55257 0.03952 0.0238 0.0
C1351 C 0.57697 0.05067 0.04817 0.0
C1352 C 0.56084 0.05933 0.99495 0.0
C1353 C 0.52529 0.03527 0.03871 0.0
C1354 C 0.50429 1.00681 0.03744 0.0
C1355 C 0.47715 0.99749 0.04924 0.0
C1356 C 0.47121 0.01774 0.0626 0.0
C1357 C 0.49223 0.04718 0.06404 0.0
C1358 C 0.51972 0.05589 0.05201 0.0
H1359 H 0.07941 0.57231 0.97533 0.0
H1360 H 0.04618 0.61948 0.02606 0.0
H1361 H 1.01565 0.57659 0.05713 0.0
H1362 H 1.01498 0.50558 0.97111 0.0
H1363 H 0.03143 0.48408 0.97761 0.0
H1364 H 0.05133 0.51869 0.95944 0.0
H1365 H 0.0905 0.53422 1.0025 0.0
H1366 H 0.07071 0.4996 1.02077 0.0
H1367 H 0.08093 0.53161 0.04362 0.0
H1368 H 0.98688 0.52814 0.08118 0.0
H1369 H 0.9633 0.47768 0.09813 0.0
H1370 H 1.01625 0.46187 0.03416 0.0
C1371 C 0.06605 0.57388 0.9932 0.0
C1372 C 0.06521 0.59955 0.99776 0.0
C1373 C 0.04702 0.60019 1.02139 0.0
C1374 C 0.02965 0.57589 0.03944 0.0
C1375 C 0.03078 0.55099 0.03402 0.0
C1376 C 0.04867 0.54981 1.0117 0.0
C1377 C 0.04555 0.52019 1.01053 0.0
C1378 C 0.0352 0.50632 0.97772 0.0
C1379 C 0.07359 0.52149 1.01992 0.0
C1380 C 1.02286 0.50487 0.03542 0.0
C1381 C 1.01464 0.52309 0.04859 0.0
C1382 C 0.99328 0.51373 0.0712 0.0
C1383 C 0.9799 0.48499 0.08056 0.0
C1384 C 0.98795 0.46585 0.06755 0.0
C1385 C 1.00993 0.4761 0.04484 0.0
loop_
_geom_bond_atom_site_label_1
_geom_bond_atom_site_label_2
_geom_bond_distance
_geom_bond_site_symmetry_2
_ccdc_geom_bond_type
Cu0 N1 1.999 . S
Cu0 O6 1.969 1_455 S
Cu0 N11 1.985 1_455 S
Cu0 O20 1.959 . S
N1 Cu0 1.999 . S
N1 C3 1.263 . S
N1 C5 1.389 . S
N2 C3 1.358 . S
N2 C4 1.400 . S
C3 N1 1.263 . S
C3 N2 1.358 . S
C3 H9 0.930 . S
C4 N2 1.400 . S
C4 C5 1.351 . S
C4 H21 0.930 . S
C5 N1 1.389 . S
C5 C4 1.351 . S
C5 H10 0.930 . S
O6 Cu0 1.969 1_655 S
O6 C16 1.269 . S
C7 O8 1.261 . S
C7 O20 1.251 . S
O8 C7 1.261 . S
H9 C3 0.930 . S
H10 C5 0.930 . S
N11 Cu0 1.985 1_655 S
N11 C13 1.335 . S
N11 C14 1.390 . S
N12 C13 1.345 . S
N12 C15 1.336 . S
C13 N11 1.335 . S
C13 N12 1.345 . S
C13 H18 0.930 . S
C14 N11 1.390 . S
C14 C15 1.346 . S
C14 H19 0.930 . S
C15 N12 1.336 . S
C15 C14 1.346 . S
C15 H22 0.929 . S
C16 O6 1.269 . S
C16 O17 1.216 . S
O17 C16 1.216 . S
H18 C13 0.930 . S
H19 C14 0.930 . S
O20 Cu0 1.959 . S
O20 C7 1.251 . S
H21 C4 0.930 . S
H22 C15 0.929 . S
Cu23 N24 1.999 . S
Cu23 O29 1.974 . S
Cu23 N34 1.985 . S
Cu23 O43 1.959 . S
N24 Cu23 1.999 . S
N24 C26 1.263 . S
N24 C28 1.389 . S
N25 C26 1.358 . S
N25 C27 1.400 . S
C26 N24 1.263 . S
C26 N25 1.358 . S
C26 H32 0.930 . S
C27 N25 1.400 . S
C27 C28 1.351 . S
C27 H44 0.930 . S
C28 N24 1.389 . S
C28 C27 1.351 . S
C28 H33 0.930 . S
O29 Cu23 1.974 . S
O29 C39 1.282 . S
C30 O31 1.261 . S
C30 O43 1.251 . S
O31 C30 1.261 . S
H32 C26 0.930 . S
H33 C28 0.930 . S
N34 Cu23 1.985 . S
N34 C36 1.335 . S
N34 C37 1.390 . S
N35 C36 1.345 . S
N35 C38 1.336 . S
C36 N34 1.335 . S
C36 N35 1.345 . S
C36 H41 0.930 . S
C37 N34 1.390 . S
C37 C38 1.346 . S
C37 H42 0.930 . S
C38 N35 1.336 . S
C38 C37 1.346 . S
C38 H45 0.929 . S
C39 O29 1.282 . S
C39 O40 1.216 . S
O40 C39 1.216 . S
H41 C36 0.930 . S
H42 C37 0.930 . S
O43 Cu23 1.959 . S
O43 C30 1.251 . S
H44 C27 0.930 . S
H45 C38 0.929 . S
Cu46 N47 1.999 1_545 S
Cu46 O52 1.974 . S
Cu46 N57 1.985 . S
Cu46 O66 1.959 1_545 S
N47 Cu46 1.999 1_565 S
N47 C49 1.263 . S
N47 C51 1.389 . S
N48 C49 1.358 . S
N48 C50 1.400 . S
C49 N47 1.263 . S
C49 N48 1.358 . S
C49 H55 0.930 . S
C50 N48 1.400 . S
C50 C51 1.351 . S
C50 H67 0.930 . S
C51 N47 1.389 . S
C51 C50 1.351 . S
C51 H56 0.930 . S
O52 Cu46 1.974 . S
O52 C62 1.282 . S
C53 O54 1.261 . S
C53 O66 1.251 . S
O54 C53 1.261 . S
H55 C49 0.930 . S
H56 C51 0.930 . S
N57 Cu46 1.985 . S
N57 C59 1.335 . S
N57 C60 1.390 . S
N58 C59 1.345 . S
N58 C61 1.336 . S
C59 N57 1.335 . S
C59 N58 1.345 . S
C59 H64 0.930 . S
C60 N57 1.390 . S
C60 C61 1.346 . S
C60 H65 0.930 . S
C61 N58 1.336 . S
C61 C60 1.346 . S
C61 H68 0.929 . S
C62 O52 1.282 . S
C62 O63 1.216 . S
O63 C62 1.216 . S
H64 C59 0.930 . S
H65 C60 0.930 . S
O66 Cu46 1.959 1_565 S
O66 C53 1.251 . S
H67 C50 0.930 . S
H68 C61 0.929 . S
Cu69 N70 1.999 1_455 S
Cu69 O75 1.974 . S
Cu69 N80 1.985 . S
Cu69 O89 1.958 . S
N70 Cu69 1.999 1_655 S
N70 C72 1.263 . S
N70 C74 1.389 . S
N71 C72 1.358 . S
N71 C73 1.400 . S
C72 N70 1.263 . S
C72 N71 1.358 . S
C72 H78 0.930 . S
C73 N71 1.400 . S
C73 C74 1.351 . S
C73 H90 0.930 . S
C74 N70 1.389 . S
C74 C73 1.351 . S
C74 H79 0.930 . S
O75 Cu69 1.974 . S
O75 C85 1.282 . S
C76 O77 1.261 . S
C76 O89 1.254 1_655 S
O77 C76 1.261 . S
H78 C72 0.930 . S
H79 C74 0.930 . S
N80 Cu69 1.985 . S
N80 C82 1.335 . S
N80 C83 1.390 . S
N81 C82 1.345 . S
N81 C84 1.336 . S
C82 N80 1.335 . S
C82 N81 1.345 . S
C82 H87 0.930 . S
C83 N80 1.390 . S
C83 C84 1.346 . S
C83 H88 0.930 . S
C84 N81 1.336 . S
C84 C83 1.346 . S
C84 H91 0.929 . S
C85 O75 1.282 . S
C85 O86 1.216 . S
O86 C85 1.216 . S
H87 C82 0.930 . S
H88 C83 0.930 . S
O89 Cu69 1.958 . S
O89 C76 1.254 1_455 S
H90 C73 0.930 . S
H91 C84 0.929 . S
Cu92 N93 1.999 . S
Cu92 O98 1.974 . S
Cu92 N103 1.985 . S
Cu92 O112 1.959 . S
N93 Cu92 1.999 . S
N93 C95 1.263 . S
N93 C97 1.389 . S
N94 C95 1.358 . S
N94 C96 1.400 . S
C95 N93 1.263 . S
C95 N94 1.358 . S
C95 H101 0.930 . S
C96 N94 1.400 . S
C96 C97 1.351 . S
C96 H113 0.930 . S
C97 N93 1.389 . S
C97 C96 1.351 . S
C97 H102 0.930 . S
O98 Cu92 1.974 . S
O98 C108 1.282 . S
C99 O100 1.261 . S
C99 O112 1.251 . S
O100 C99 1.261 . S
H101 C95 0.930 . S
H102 C97 0.930 . S
N103 Cu92 1.985 . S
N103 C105 1.335 . S
N103 C106 1.390 . S
N104 C105 1.345 . S
N104 C107 1.336 . S
C105 N103 1.335 . S
C105 N104 1.345 . S
C105 H110 0.930 . S
C106 N103 1.390 . S
C106 C107 1.346 . S
C106 H111 0.930 . S
C107 N104 1.336 . S
C107 C106 1.346 . S
C107 H114 0.929 . S
C108 O98 1.282 . S
C108 O109 1.216 . S
O109 C108 1.216 . S
H110 C105 0.930 . S
H111 C106 0.930 . S
O112 Cu92 1.959 . S
O112 C99 1.251 . S
H113 C96 0.930 . S
H114 C107 0.929 . S
Cu115 N116 1.999 . S
Cu115 O121 1.974 1_545 S
Cu115 N126 1.985 1_545 S
Cu115 O135 1.959 . S
N116 Cu115 1.999 . S
N116 C118 1.263 . S
N116 C120 1.389 . S
N117 C118 1.358 . S
N117 C119 1.400 . S
C118 N116 1.263 . S
C118 N117 1.358 . S
C118 H124 0.930 . S
C119 N117 1.400 . S
C119 C120 1.351 . S
C119 H136 0.930 . S
C120 N116 1.389 . S
C120 C119 1.351 . S
C120 H125 0.930 . S
O121 Cu115 1.974 1_565 S
O121 C131 1.282 . S
C122 O123 1.261 . S
C122 O135 1.251 . S
O123 C122 1.261 . S
H124 C118 0.930 . S
H125 C120 0.930 . S
N126 Cu115 1.985 1_565 S
N126 C128 1.335 . S
N126 C129 1.390 . S
N127 C128 1.345 . S
N127 C130 1.336 . S
C128 N126 1.335 . S
C128 N127 1.345 . S
C128 H133 0.930 . S
C129 N126 1.390 . S
C129 C130 1.346 . S
C129 H134 0.930 . S
C130 N127 1.336 . S
C130 C129 1.346 . S
C130 H137 0.929 . S
C131 O121 1.282 . S
C131 O132 1.216 . S
O132 C131 1.216 . S
H133 C128 0.930 . S
H134 C129 0.930 . S
O135 Cu115 1.959 . S
O135 C122 1.251 . S
H136 C119 0.930 . S
H137 C130 0.929 . S
Cu138 N139 1.999 . S
Cu138 O144 1.974 . S
Cu138 N149 1.985 . S
Cu138 O158 1.959 . S
N139 Cu138 1.999 . S
N139 C141 1.263 . S
N139 C143 1.389 . S
N140 C141 1.358 . S
N140 C142 1.400 . S
C141 N139 1.263 . S
C141 N140 1.358 . S
C141 H147 0.930 . S
C142 N140 1.400 . S
C142 C143 1.351 . S
C142 H159 0.930 . S
C143 N139 1.389 . S
C143 C142 1.351 . S
C143 H148 0.930 . S
O144 Cu138 1.974 . S
O144 C154 1.282 . S
C145 O146 1.261 . S
C145 O158 1.251 . S
O146 C145 1.261 . S
H147 C141 0.930 . S
H148 C143 0.930 . S
N149 Cu138 1.985 . S
N149 C151 1.335 . S
N149 C152 1.390 . S
N150 C151 1.345 . S
N150 C153 1.336 . S
C151 N149 1.335 . S
C151 N150 1.345 . S
C151 H156 0.930 . S
C152 N149 1.390 . S
C152 C153 1.346 . S
C152 H157 0.930 . S
C153 N150 1.336 . S
C153 C152 1.346 . S
C153 H160 0.929 . S
C154 O144 1.282 . S
C154 O155 1.216 . S
O155 C154 1.216 . S
H156 C151 0.930 . S
H157 C152 0.930 . S
O158 Cu138 1.959 . S
O158 C145 1.251 . S
H159 C142 0.930 . S
H160 C153 0.929 . S
Cu161 N162 1.999 . S
Cu161 O167 1.974 . S
Cu161 N172 1.985 . S
Cu161 O181 1.959 . S
N162 Cu161 1.999 . S
N162 C164 1.263 . S
N162 C166 1.389 . S
N163 C164 1.358 . S
N163 C165 1.400 . S
C164 N162 1.263 . S
C164 N163 1.358 . S
C164 H170 0.930 . S
C165 N163 1.400 . S
C165 C166 1.351 . S
C165 H182 0.930 . S
C166 N162 1.389 . S
C166 C165 1.351 . S
C166 H171 0.930 . S
O167 Cu161 1.974 . S
O167 C177 1.282 . S
C168 O169 1.261 . S
C168 O181 1.251 . S
O169 C168 1.261 . S
H170 C164 0.930 . S
H171 C166 0.930 . S
N172 Cu161 1.985 . S
N172 C174 1.335 . S
N172 C175 1.390 . S
N173 C174 1.345 . S
N173 C176 1.336 . S
C174 N172 1.335 . S
C174 N173 1.345 . S
C174 H179 0.930 . S
C175 N172 1.390 . S
C175 C176 1.346 . S
C175 H180 0.930 . S
C176 N173 1.336 . S
C176 C175 1.346 . S
C176 H183 0.929 . S
C177 O167 1.282 . S
C177 O178 1.216 . S
O178 C177 1.216 . S
H179 C174 0.930 . S
H180 C175 0.930 . S
O181 Cu161 1.959 . S
O181 C168 1.251 . S
H182 C165 0.930 . S
H183 C176 0.929 . S
Cu184 N185 1.999 . S
Cu184 O190 1.974 . S
Cu184 N195 1.985 . S
Cu184 O204 1.959 . S
N185 Cu184 1.999 . S
N185 C187 1.263 . S
N185 C189 1.389 . S
N186 C187 1.358 . S
N186 C188 1.400 . S
C187 N185 1.263 . S
C187 N186 1.358 . S
C187 H193 0.930 . S
C188 N186 1.400 . S
C188 C189 1.351 . S
C188 H205 0.930 . S
C189 N185 1.389 . S
C189 C188 1.351 . S
C189 H194 0.930 . S
O190 Cu184 1.974 . S
O190 C200 1.282 . S
C191 O192 1.261 . S
C191 O204 1.251 . S
O192 C191 1.261 . S
H193 C187 0.930 . S
H194 C189 0.930 . S
N195 Cu184 1.985 . S
N195 C197 1.335 . S
N195 C198 1.390 . S
N196 C197 1.345 . S
N196 C199 1.336 . S
C197 N195 1.335 . S
C197 N196 1.345 . S
C197 H202 0.930 . S
C198 N195 1.390 . S
C198 C199 1.346 . S
C198 H203 0.930 . S
C199 N196 1.336 . S
C199 C198 1.346 . S
C199 H206 0.929 . S
C200 O190 1.282 . S
C200 O201 1.216 . S
O201 C200 1.216 . S
H202 C197 0.930 . S
H203 C198 0.930 . S
O204 Cu184 1.959 . S
O204 C191 1.251 . S
H205 C188 0.930 . S
H206 C199 0.929 . S
Cu207 N208 1.999 . S
Cu207 O213 1.974 . S
Cu207 N218 1.985 . S
Cu207 O227 1.959 . S
N208 Cu207 1.999 . S
N208 C210 1.263 . S
N208 C212 1.389 . S
N209 C210 1.358 . S
N209 C211 1.400 . S
C210 N208 1.263 . S
C210 N209 1.358 . S
C210 H216 0.930 . S
C211 N209 1.400 . S
C211 C212 1.351 . S
C211 H228 0.930 . S
C212 N208 1.389 . S
C212 C211 1.351 . S
C212 H217 0.930 . S
O213 Cu207 1.974 . S
O213 C223 1.282 . S
C214 O215 1.261 . S
C214 O227 1.251 . S
O215 C214 1.261 . S
H216 C210 0.930 . S
H217 C212 0.930 . S
N218 Cu207 1.985 . S
N218 C220 1.335 . S
N218 C221 1.390 . S
N219 C220 1.345 . S
N219 C222 1.336 . S
C220 N218 1.335 . S
C220 N219 1.345 . S
C220 H225 0.930 . S
C221 N218 1.390 . S
C221 C222 1.346 . S
C221 H226 0.930 . S
C222 N219 1.336 . S
C222 C221 1.346 . S
C222 H229 0.929 . S
C223 O213 1.282 . S
C223 O224 1.216 . S
O224 C223 1.216 . S
H225 C220 0.930 . S
H226 C221 0.930 . S
O227 Cu207 1.959 . S
O227 C214 1.251 . S
H228 C211 0.930 . S
H229 C222 0.929 . S
Cu230 N231 1.999 . S
Cu230 O236 1.974 . S
Cu230 N241 1.985 . S
Cu230 O250 1.959 . S
N231 Cu230 1.999 . S
N231 C233 1.263 . S
N231 C235 1.389 . S
N232 C233 1.358 . S
N232 C234 1.400 . S
C233 N231 1.263 . S
C233 N232 1.358 . S
C233 H239 0.930 . S
C234 N232 1.400 . S
C234 C235 1.351 . S
C234 H251 0.930 . S
C235 N231 1.389 . S
C235 C234 1.351 . S
C235 H240 0.930 . S
O236 Cu230 1.974 . S
O236 C246 1.282 . S
C237 O238 1.261 . S
C237 O250 1.251 . S
O238 C237 1.261 . S
H239 C233 0.930 . S
H240 C235 0.930 . S
N241 Cu230 1.985 . S
N241 C243 1.335 . S
N241 C244 1.390 . S
N242 C243 1.345 . S
N242 C245 1.336 . S
C243 N241 1.335 . S
C243 N242 1.345 . S
C243 H248 0.930 . S
C244 N241 1.390 . S
C244 C245 1.346 . S
C244 H249 0.930 . S
C245 N242 1.336 . S
C245 C244 1.346 . S
C245 H252 0.929 . S
C246 O236 1.282 . S
C246 O247 1.216 . S
O247 C246 1.216 . S
H248 C243 0.930 . S
H249 C244 0.930 . S
O250 Cu230 1.959 . S
O250 C237 1.251 . S
H251 C234 0.930 . S
H252 C245 0.929 . S
Cu253 N254 1.999 . S
Cu253 O259 1.974 . S
Cu253 N264 1.985 . S
Cu253 O273 1.959 . S
N254 Cu253 1.999 . S
N254 C256 1.263 . S
N254 C258 1.389 . S
N255 C256 1.358 . S
N255 C257 1.400 . S
C256 N254 1.263 . S
C256 N255 1.358 . S
C256 H262 0.930 . S
C257 N255 1.400 . S
C257 C258 1.351 . S
C257 H274 0.930 . S
C258 N254 1.389 . S
C258 C257 1.351 . S
C258 H263 0.930 . S
O259 Cu253 1.974 . S
O259 C269 1.282 . S
C260 O261 1.261 . S
C260 O273 1.251 . S
O261 C260 1.261 . S
H262 C256 0.930 . S
H263 C258 0.930 . S
N264 Cu253 1.985 . S
N264 C266 1.335 . S
N264 C267 1.390 . S
N265 C266 1.345 . S
N265 C268 1.336 . S
C266 N264 1.335 . S
C266 N265 1.345 . S
C266 H271 0.930 . S
C267 N264 1.390 . S
C267 C268 1.346 . S
C267 H272 0.930 . S
C268 N265 1.336 . S
C268 C267 1.346 . S
C268 H275 0.929 . S
C269 O259 1.282 . S
C269 O270 1.216 . S
O270 C269 1.216 . S
H271 C266 0.930 . S
H272 C267 0.930 . S
O273 Cu253 1.959 . S
O273 C260 1.251 . S
H274 C257 0.930 . S
H275 C268 0.929 . S
Cu276 N277 1.999 . S
Cu276 O282 1.974 . S
Cu276 N287 1.985 . S
Cu276 O296 1.959 . S
N277 Cu276 1.999 . S
N277 C279 1.263 . S
N277 C281 1.389 . S
N278 C279 1.358 . S
N278 C280 1.400 . S
C279 N277 1.263 . S
C279 N278 1.358 . S
C279 H285 0.930 . S
C280 N278 1.400 . S
C280 C281 1.351 . S
C280 H297 0.930 . S
C281 N277 1.389 . S
C281 C280 1.351 . S
C281 H286 0.930 . S
O282 Cu276 1.974 . S
O282 C292 1.282 . S
C283 O284 1.261 . S
C283 O296 1.251 . S
O284 C283 1.261 . S
H285 C279 0.930 . S
H286 C281 0.930 . S
N287 Cu276 1.985 . S
N287 C289 1.335 . S
N287 C290 1.390 . S
N288 C289 1.345 . S
N288 C291 1.336 . S
C289 N287 1.335 . S
C289 N288 1.345 . S
C289 H294 0.930 . S
C290 N287 1.390 . S
C290 C291 1.346 . S
C290 H295 0.930 . S
C291 N288 1.336 . S
C291 C290 1.346 . S
C291 H298 0.929 . S
C292 O282 1.282 . S
C292 O293 1.216 . S
O293 C292 1.216 . S
H294 C289 0.930 . S
H295 C290 0.930 . S
O296 Cu276 1.959 . S
O296 C283 1.251 . S
H297 C280 0.930 . S
H298 C291 0.929 . S
Cu299 N300 1.999 . S
Cu299 O305 1.974 . S
Cu299 N310 1.985 . S
Cu299 O319 1.959 . S
N300 Cu299 1.999 . S
N300 C302 1.263 . S
N300 C304 1.389 . S
N301 C302 1.358 . S
N301 C303 1.400 . S
C302 N300 1.263 . S
C302 N301 1.358 . S
C302 H308 0.930 . S
C303 N301 1.400 . S
C303 C304 1.351 . S
C303 H320 0.930 . S
C304 N300 1.389 . S
C304 C303 1.351 . S
C304 H309 0.930 . S
O305 Cu299 1.974 . S
O305 C315 1.282 . S
C306 O307 1.261 . S
C306 O319 1.251 . S
O307 C306 1.261 . S
H308 C302 0.930 . S
H309 C304 0.930 . S
N310 Cu299 1.985 . S
N310 C312 1.335 . S
N310 C313 1.390 . S
N311 C312 1.345 . S
N311 C314 1.332 1_565 S
C312 N310 1.335 . S
C312 N311 1.345 . S
C312 H317 0.930 . S
C313 N310 1.390 . S
C313 C314 1.336 1_565 S
C313 H318 0.930 . S
C314 N311 1.332 1_545 S
C314 C313 1.336 1_545 S
C314 H321 0.942 . S
C315 O305 1.282 . S
C315 O316 1.216 . S
O316 C315 1.216 . S
H317 C312 0.930 . S
H318 C313 0.930 . S
O319 Cu299 1.959 . S
O319 C306 1.251 . S
H320 C303 0.930 . S
H321 C314 0.942 . S
Cu322 N323 1.999 . S
Cu322 O328 1.974 . S
Cu322 N333 1.985 . S
Cu322 O342 1.959 . S
N323 Cu322 1.999 . S
N323 C325 1.263 . S
N323 C327 1.389 . S
N324 C325 1.358 . S
N324 C326 1.400 . S
C325 N323 1.263 . S
C325 N324 1.358 . S
C325 H331 0.930 . S
C326 N324 1.400 . S
C326 C327 1.351 . S
C326 H343 0.930 . S
C327 N323 1.389 . S
C327 C326 1.351 . S
C327 H332 0.930 . S
O328 Cu322 1.974 . S
O328 C338 1.282 . S
C329 O330 1.261 . S
C329 O342 1.251 . S
O330 C329 1.261 . S
H331 C325 0.930 . S
H332 C327 0.930 . S
N333 Cu322 1.985 . S
N333 C335 1.335 . S
N333 C336 1.390 . S
N334 C335 1.345 . S
N334 C337 1.336 . S
C335 N333 1.335 . S
C335 N334 1.345 . S
C335 H340 0.930 . S
C336 N333 1.390 . S
C336 C337 1.346 . S
C336 H341 0.930 . S
C337 N334 1.336 . S
C337 C336 1.346 . S
C337 H344 0.929 . S
C338 O328 1.282 . S
C338 O339 1.216 . S
O339 C338 1.216 . S
H340 C335 0.930 . S
H341 C336 0.930 . S
O342 Cu322 1.959 . S
O342 C329 1.251 . S
H343 C326 0.930 . S
H344 C337 0.929 . S
Cu345 N346 1.999 . S
Cu345 O351 1.974 . S
Cu345 N356 1.985 . S
Cu345 O365 1.959 . S
N346 Cu345 1.999 . S
N346 C348 1.263 . S
N346 C350 1.389 . S
N347 C348 1.358 . S
N347 C349 1.400 . S
C348 N346 1.263 . S
C348 N347 1.358 . S
C348 H354 0.930 . S
C349 N347 1.400 . S
C349 C350 1.351 . S
C349 H366 0.930 . S
C350 N346 1.389 . S
C350 C349 1.351 . S
C350 H355 0.930 . S
O351 Cu345 1.974 . S
O351 C361 1.282 . S
C352 O353 1.261 . S
C352 O365 1.251 . S
O353 C352 1.261 . S
H354 C348 0.930 . S
H355 C350 0.930 . S
N356 Cu345 1.985 . S
N356 C358 1.335 . S
N356 C359 1.390 . S
N357 C358 1.345 . S
N357 C360 1.336 1_565 S
C358 N356 1.335 . S
C358 N357 1.345 . S
C358 H363 0.930 . S
C359 N356 1.390 . S
C359 C360 1.346 1_565 S
C359 H364 0.930 . S
C360 N357 1.336 1_545 S
C360 C359 1.346 1_545 S
C360 H367 0.929 . S
C361 O351 1.282 . S
C361 O362 1.216 . S
O362 C361 1.216 . S
H363 C358 0.930 . S
H364 C359 0.930 . S
O365 Cu345 1.959 . S
O365 C352 1.251 . S
H366 C349 0.930 . S
H367 C360 0.929 . S
Cu368 N369 1.999 . S
Cu368 O374 1.974 . S
Cu368 N379 1.985 . S
Cu368 O388 1.959 . S
N369 Cu368 1.999 . S
N369 C371 1.263 . S
N369 C373 1.389 . S
N370 C371 1.358 . S
N370 C372 1.400 . S
C371 N369 1.263 . S
C371 N370 1.358 . S
C371 H377 0.930 . S
C372 N370 1.400 . S
C372 C373 1.351 . S
C372 H389 0.930 . S
C373 N369 1.389 . S
C373 C372 1.351 . S
C373 H378 0.930 . S
O374 Cu368 1.974 . S
O374 C384 1.282 . S
C375 O376 1.261 . S
C375 O388 1.251 . S
O376 C375 1.261 . S
H377 C371 0.930 . S
H378 C373 0.930 . S
N379 Cu368 1.985 . S
N379 C381 1.335 . S
N379 C382 1.390 . S
N380 C381 1.345 . S
N380 C383 1.336 . S
C381 N379 1.335 . S
C381 N380 1.345 . S
C381 H386 0.930 . S
C382 N379 1.390 . S
C382 C383 1.346 . S
C382 H387 0.930 . S
C383 N380 1.336 . S
C383 C382 1.346 . S
C383 H390 0.929 . S
C384 O374 1.282 . S
C384 O385 1.216 . S
O385 C384 1.216 . S
H386 C381 0.930 . S
H387 C382 0.930 . S
O388 Cu368 1.959 . S
O388 C375 1.251 . S
H389 C372 0.930 . S
H390 C383 0.929 . S
Cu391 N392 1.999 . S
Cu391 O397 1.974 . S
Cu391 N402 1.985 . S
Cu391 O411 1.959 . S
N392 Cu391 1.999 . S
N392 C394 1.263 . S
N392 C396 1.389 . S
N393 C394 1.358 . S
N393 C395 1.400 . S
C394 N392 1.263 . S
C394 N393 1.358 . S
C394 H400 0.930 . S
C395 N393 1.400 . S
C395 C396 1.351 . S
C395 H412 0.930 . S
C396 N392 1.389 . S
C396 C395 1.351 . S
C396 H401 0.930 . S
O397 Cu391 1.974 . S
O397 C407 1.282 . S
C398 O399 1.261 . S
C398 O411 1.251 . S
O399 C398 1.261 . S
H400 C394 0.930 . S
H401 C396 0.930 . S
N402 Cu391 1.985 . S
N402 C404 1.335 . S
N402 C405 1.390 . S
N403 C404 1.345 . S
N403 C406 1.336 . S
C404 N402 1.335 . S
C404 N403 1.345 . S
C404 H409 0.930 . S
C405 N402 1.390 . S
C405 C406 1.346 . S
C405 H410 0.930 . S
C406 N403 1.336 . S
C406 C405 1.346 . S
C406 H413 0.929 . S
C407 O397 1.282 . S
C407 O408 1.216 . S
O408 C407 1.216 . S
H409 C404 0.930 . S
H410 C405 0.930 . S
O411 Cu391 1.959 . S
O411 C398 1.251 . S
H412 C395 0.930 . S
H413 C406 0.929 . S
H414 C426 0.930 . S
H415 C428 0.930 . S
H416 C429 0.930 . S
H417 C433 0.959 . S
H418 C433 0.959 . S
H419 C433 0.961 . S
H420 C434 0.960 . S
H421 C434 0.961 . S
H422 C434 0.959 . S
H423 C437 0.929 . S
H424 C438 0.931 . S
H425 C440 0.930 . S
C426 H414 0.930 . S
C426 C427 1.399 . S
C426 C431 1.399 . S
C427 C426 1.399 . S
C427 C428 1.376 . S
C428 H415 0.930 . S
C428 C427 1.376 . S
C428 C429 1.388 . S
C429 H416 0.930 . S
C429 C428 1.388 . S
C429 C430 1.390 . S
C430 C429 1.390 . S
C430 C431 1.394 . S
C430 C436 1.465 . S
C431 C426 1.399 . S
C431 C430 1.394 . S
C431 C432 1.516 . S
C432 C431 1.516 . S
C432 C433 1.502 . S
C432 C434 1.561 . S
C432 C435 1.526 . S
C433 H417 0.959 . S
C433 H418 0.959 . S
C433 H419 0.961 . S
C433 C432 1.502 . S
C434 H420 0.960 . S
C434 H421 0.961 . S
C434 H422 0.959 . S
C434 C432 1.561 . S
C435 C432 1.526 . S
C435 C436 1.396 . S
C435 C440 1.390 . S
C436 C430 1.465 . S
C436 C435 1.396 . S
C436 C437 1.399 . S
C437 H423 0.929 . S
C437 C436 1.399 . S
C437 C438 1.385 . S
C438 H424 0.931 . S
C438 C437 1.385 . S
C438 C439 1.389 . S
C439 C438 1.389 . S
C439 C440 1.387 . S
C440 H425 0.930 . S
C440 C435 1.390 . S
C440 C439 1.387 . S
H441 C453 0.930 . S
H442 C455 0.923 1_556 S
H443 C456 0.930 . S
H444 C460 0.959 . S
H445 C460 0.959 . S
H446 C460 0.961 . S
H447 C461 0.960 . S
H448 C461 0.961 . S
H449 C461 0.959 . S
H450 C464 0.929 . S
H451 C465 0.931 . S
H452 C467 0.930 . S
C453 H441 0.930 . S
C453 C454 1.399 . S
C453 C458 1.399 . S
C454 C453 1.399 . S
C454 C455 1.376 . S
C455 H442 0.923 1_554 S
C455 C454 1.376 . S
C455 C456 1.388 . S
C456 H443 0.930 . S
C456 C455 1.388 . S
C456 C457 1.390 . S
C457 C456 1.390 . S
C457 C458 1.394 . S
C457 C463 1.465 . S
C458 C453 1.399 . S
C458 C457 1.394 . S
C458 C459 1.516 . S
C459 C458 1.516 . S
C459 C460 1.502 . S
C459 C461 1.561 . S
C459 C462 1.526 . S
C460 H444 0.959 . S
C460 H445 0.959 . S
C460 H446 0.961 . S
C460 C459 1.502 . S
C461 H447 0.960 . S
C461 H448 0.961 . S
C461 H449 0.959 . S
C461 C459 1.561 . S
C462 C459 1.526 . S
C462 C463 1.396 . S
C462 C467 1.390 . S
C463 C457 1.465 . S
C463 C462 1.396 . S
C463 C464 1.399 . S
C464 H450 0.929 . S
C464 C463 1.399 . S
C464 C465 1.385 . S
C465 H451 0.931 . S
C465 C464 1.385 . S
C465 C466 1.389 . S
C466 C465 1.389 . S
C466 C467 1.387 . S
C467 H452 0.930 . S
C467 C462 1.390 . S
C467 C466 1.387 . S
H468 C480 0.930 . S
H469 C482 0.930 . S
H470 C483 0.930 . S
H471 C487 0.959 . S
H472 C487 0.959 . S
H473 C487 0.961 . S
H474 C488 0.960 . S
H475 C488 0.961 . S
H476 C488 0.959 . S
H477 C491 0.929 1_545 S
H478 C492 0.931 . S
H479 C494 0.930 . S
C480 H468 0.930 . S
C480 C481 1.399 . S
C480 C485 1.399 . S
C481 C480 1.399 . S
C481 C482 1.376 1_565 S
C482 H469 0.930 . S
C482 C481 1.376 1_545 S
C482 C483 1.388 . S
C483 H470 0.930 . S
C483 C482 1.388 . S
C483 C484 1.390 1_545 S
C484 C483 1.390 1_565 S
C484 C485 1.394 . S
C484 C490 1.465 . S
C485 C480 1.399 . S
C485 C484 1.394 . S
C485 C486 1.516 . S
C486 C485 1.516 . S
C486 C487 1.502 . S
C486 C488 1.561 . S
C486 C489 1.526 . S
C487 H471 0.959 . S
C487 H472 0.959 . S
C487 H473 0.961 . S
C487 C486 1.502 . S
C488 H474 0.960 . S
C488 H475 0.961 . S
C488 H476 0.959 . S
C488 C486 1.561 . S
C489 C486 1.526 . S
C489 C490 1.396 . S
C489 C494 1.390 . S
C490 C484 1.465 . S
C490 C489 1.396 . S
C490 C491 1.399 . S
C491 H477 0.929 1_565 S
C491 C490 1.399 . S
C491 C492 1.385 . S
C492 H478 0.931 . S
C492 C491 1.385 . S
C492 C493 1.389 . S
C493 C492 1.389 . S
C493 C494 1.387 . S
C494 H479 0.930 . S
C494 C489 1.390 . S
C494 C493 1.387 . S
H495 C507 0.930 . S
H496 C509 0.930 . S
H497 C510 0.930 . S
H498 C514 0.954 1_565 S
H499 C514 0.959 . S
H500 C514 0.961 . S
H501 C515 0.960 . S
H502 C515 0.961 . S
H503 C515 0.959 . S
H504 C518 0.929 . S
H505 C519 0.931 . S
H506 C521 0.930 . S
C507 H495 0.930 . S
C507 C508 1.399 . S
C507 C512 1.399 . S
C508 C507 1.399 . S
C508 C509 1.376 . S
C509 H496 0.930 . S
C509 C508 1.376 . S
C509 C510 1.388 . S
C510 H497 0.930 . S
C510 C509 1.388 . S
C510 C511 1.390 . S
C511 C510 1.390 . S
C511 C512 1.394 . S
C511 C517 1.465 . S
C512 C507 1.399 . S
C512 C511 1.394 . S
C512 C513 1.516 . S
C513 C512 1.516 . S
C513 C514 1.502 . S
C513 C515 1.561 . S
C513 C516 1.526 . S
C514 H498 0.954 1_545 S
C514 H499 0.959 . S
C514 H500 0.961 . S
C514 C513 1.502 . S
C515 H501 0.960 . S
C515 H502 0.961 . S
C515 H503 0.959 . S
C515 C513 1.561 . S
C516 C513 1.526 . S
C516 C517 1.396 . S
C516 C521 1.390 . S
C517 C511 1.465 . S
C517 C516 1.396 . S
C517 C518 1.399 . S
C518 H504 0.929 . S
C518 C517 1.399 . S
C518 C519 1.385 . S
C519 H505 0.931 . S
C519 C518 1.385 . S
C519 C520 1.389 . S
C520 C519 1.389 . S
C520 C521 1.387 . S
C521 H506 0.930 . S
C521 C516 1.390 . S
C521 C520 1.387 . S
H522 C534 0.930 . S
H523 C536 0.930 . S
H524 C537 0.930 . S
H525 C541 0.959 . S
H526 C541 0.959 . S
H527 C541 0.961 . S
H528 C542 0.960 . S
H529 C542 0.961 . S
H530 C542 0.959 . S
H531 C545 0.929 . S
H532 C546 0.931 . S
H533 C548 0.930 . S
C534 H522 0.930 . S
C534 C535 1.399 . S
C534 C539 1.399 . S
C535 C534 1.399 . S
C535 C536 1.376 . S
C536 H523 0.930 . S
C536 C535 1.376 . S
C536 C537 1.388 . S
C537 H524 0.930 . S
C537 C536 1.388 . S
C537 C538 1.390 . S
C538 C537 1.390 . S
C538 C539 1.394 . S
C538 C544 1.465 . S
C539 C534 1.399 . S
C539 C538 1.394 . S
C539 C540 1.516 . S
C540 C539 1.516 . S
C540 C541 1.502 1_655 S
C540 C542 1.561 . S
C540 C543 1.526 . S
C541 H525 0.959 . S
C541 H526 0.959 . S
C541 H527 0.961 . S
C541 C540 1.502 1_455 S
C542 H528 0.960 . S
C542 H529 0.961 . S
C542 H530 0.959 . S
C542 C540 1.561 . S
C543 C540 1.526 . S
C543 C544 1.396 . S
C543 C548 1.390 . S
C544 C538 1.465 . S
C544 C543 1.396 . S
C544 C545 1.399 . S
C545 H531 0.929 . S
C545 C544 1.399 . S
C545 C546 1.385 . S
C546 H532 0.931 . S
C546 C545 1.385 . S
C546 C547 1.389 . S
C547 C546 1.389 . S
C547 C548 1.387 . S
C548 H533 0.930 . S
C548 C543 1.390 . S
C548 C547 1.387 . S
H549 C561 0.930 . S
H550 C563 0.930 . S
H551 C564 0.930 . S
H552 C568 0.959 . S
H553 C568 0.959 . S
H554 C568 0.961 . S
H555 C569 0.960 . S
H556 C569 0.961 . S
H557 C569 0.959 . S
H558 C572 0.929 . S
H559 C573 0.931 . S
H560 C575 0.930 . S
C561 H549 0.930 . S
C561 C562 1.399 . S
C561 C566 1.399 . S
C562 C561 1.399 . S
C562 C563 1.376 . S
C563 H550 0.930 . S
C563 C562 1.376 . S
C563 C564 1.388 . S
C564 H551 0.930 . S
C564 C563 1.388 . S
C564 C565 1.390 . S
C565 C564 1.390 . S
C565 C566 1.394 . S
C565 C571 1.465 . S
C566 C561 1.399 . S
C566 C565 1.394 . S
C566 C567 1.516 . S
C567 C566 1.516 . S
C567 C568 1.502 . S
C567 C569 1.561 . S
C567 C570 1.526 . S
C568 H552 0.959 . S
C568 H553 0.959 . S
C568 H554 0.961 . S
C568 C567 1.502 . S
C569 H555 0.960 . S
C569 H556 0.961 . S
C569 H557 0.959 . S
C569 C567 1.561 . S
C570 C567 1.526 . S
C570 C571 1.396 . S
C570 C575 1.390 . S
C571 C565 1.465 . S
C571 C570 1.396 . S
C571 C572 1.399 . S
C572 H558 0.929 . S
C572 C571 1.399 . S
C572 C573 1.385 . S
C573 H559 0.931 . S
C573 C572 1.385 . S
C573 C574 1.389 . S
C574 C573 1.389 . S
C574 C575 1.387 . S
C575 H560 0.930 . S
C575 C570 1.390 . S
C575 C574 1.387 . S
H576 C588 0.928 1_455 S
H577 C590 0.930 . S
H578 C591 0.930 . S
H579 C595 0.959 . S
H580 C595 0.959 . S
H581 C595 0.961 . S
H582 C596 0.960 . S
H583 C596 0.961 . S
H584 C596 0.959 . S
H585 C599 0.929 . S
H586 C600 0.931 . S
H587 C602 0.930 . S
C588 H576 0.928 1_655 S
C588 C589 1.399 . S
C588 C593 1.401 . S
C589 C588 1.399 . S
C589 C590 1.376 . S
C590 H577 0.930 . S
C590 C589 1.376 . S
C590 C591 1.388 . S
C591 H578 0.930 . S
C591 C590 1.388 . S
C591 C592 1.390 . S
C592 C591 1.390 . S
C592 C593 1.394 . S
C592 C598 1.465 . S
C593 C588 1.401 . S
C593 C592 1.394 . S
C593 C594 1.516 . S
C594 C593 1.516 . S
C594 C595 1.502 1_655 S
C594 C596 1.561 . S
C594 C597 1.526 . S
C595 H579 0.959 . S
C595 H580 0.959 . S
C595 H581 0.961 . S
C595 C594 1.502 1_455 S
C596 H582 0.960 . S
C596 H583 0.961 . S
C596 H584 0.959 . S
C596 C594 1.561 . S
C597 C594 1.526 . S
C597 C598 1.396 . S
C597 C602 1.390 . S
C598 C592 1.465 . S
C598 C597 1.396 . S
C598 C599 1.399 . S
C599 H585 0.929 . S
C599 C598 1.399 . S
C599 C600 1.385 . S
C600 H586 0.931 . S
C600 C599 1.385 . S
C600 C601 1.389 . S
C601 C600 1.389 . S
C601 C602 1.387 . S
C602 H587 0.930 . S
C602 C597 1.390 . S
C602 C601 1.387 . S
H603 C615 0.930 . S
H604 C617 0.930 1_554 S
H605 C618 0.930 . S
H606 C622 0.959 . S
H607 C622 0.959 . S
H608 C622 0.961 . S
H609 C623 0.960 . S
H610 C623 0.961 . S
H611 C623 0.959 . S
H612 C626 0.929 . S
H613 C627 0.931 . S
H614 C629 0.930 . S
C615 H603 0.930 . S
C615 C616 1.399 . S
C615 C620 1.399 . S
C616 C615 1.399 . S
C616 C617 1.376 . S
C617 H604 0.930 1_556 S
C617 C616 1.376 . S
C617 C618 1.388 . S
C618 H605 0.930 . S
C618 C617 1.388 . S
C618 C619 1.390 . S
C619 C618 1.390 . S
C619 C620 1.394 . S
C619 C625 1.465 . S
C620 C615 1.399 . S
C620 C619 1.394 . S
C620 C621 1.516 . S
C621 C620 1.516 . S
C621 C622 1.502 . S
C621 C623 1.561 . S
C621 C624 1.526 . S
C622 H606 0.959 . S
C622 H607 0.959 . S
C622 H608 0.961 . S
C622 C621 1.502 . S
C623 H609 0.960 . S
C623 H610 0.961 . S
C623 H611 0.959 . S
C623 C621 1.561 . S
C624 C621 1.526 . S
C624 C625 1.396 . S
C624 C629 1.390 . S
C625 C619 1.465 . S
C625 C624 1.396 . S
C625 C626 1.399 . S
C626 H612 0.929 . S
C626 C625 1.399 . S
C626 C627 1.385 . S
C627 H613 0.931 . S
C627 C626 1.385 . S
C627 C628 1.389 . S
C628 C627 1.389 . S
C628 C629 1.387 . S
C629 H614 0.930 . S
C629 C624 1.390 . S
C629 C628 1.387 . S
H630 C642 0.930 . S
H631 C644 0.930 . S
H632 C645 0.930 1_565 S
H633 C649 0.959 . S
H634 C649 0.959 . S
H635 C649 0.961 . S
H636 C650 0.960 . S
H637 C650 0.961 . S
H638 C650 0.959 . S
H639 C653 0.929 . S
H640 C654 0.931 . S
H641 C656 0.930 . S
C642 H630 0.930 . S
C642 C643 1.399 . S
C642 C647 1.399 . S
C643 C642 1.399 . S
C643 C644 1.376 . S
C644 H631 0.930 . S
C644 C643 1.376 . S
C644 C645 1.388 . S
C645 H632 0.930 1_545 S
C645 C644 1.388 . S
C645 C646 1.390 . S
C646 C645 1.390 . S
C646 C647 1.394 . S
C646 C652 1.465 . S
C647 C642 1.399 . S
C647 C646 1.394 . S
C647 C648 1.516 . S
C648 C647 1.516 . S
C648 C649 1.502 . S
C648 C650 1.561 . S
C648 C651 1.526 . S
C649 H633 0.959 . S
C649 H634 0.959 . S
C649 H635 0.961 . S
C649 C648 1.502 . S
C650 H636 0.960 . S
C650 H637 0.961 . S
C650 H638 0.959 . S
C650 C648 1.561 . S
C651 C648 1.526 . S
C651 C652 1.396 . S
C651 C656 1.390 . S
C652 C646 1.465 . S
C652 C651 1.396 . S
C652 C653 1.399 1_545 S
C653 H639 0.929 . S
C653 C652 1.399 1_565 S
C653 C654 1.385 . S
C654 H640 0.931 . S
C654 C653 1.385 . S
C654 C655 1.389 1_565 S
C655 C654 1.389 1_545 S
C655 C656 1.387 . S
C656 H641 0.930 . S
C656 C651 1.390 . S
C656 C655 1.387 . S
H657 C669 0.930 . S
H658 C671 0.930 . S
H659 C672 0.930 . S
H660 C676 0.959 . S
H661 C676 0.959 . S
H662 C676 0.961 . S
H663 C677 0.960 . S
H664 C677 0.961 . S
H665 C677 0.959 . S
H666 C680 0.929 . S
H667 C681 0.931 1_545 S
H668 C683 0.930 . S
C669 H657 0.930 . S
C669 C670 1.399 . S
C669 C674 1.399 . S
C670 C669 1.399 . S
C670 C671 1.376 1_565 S
C671 H658 0.930 . S
C671 C670 1.376 1_545 S
C671 C672 1.388 . S
C672 H659 0.930 . S
C672 C671 1.388 . S
C672 C673 1.390 1_545 S
C673 C672 1.390 1_565 S
C673 C674 1.394 . S
C673 C679 1.465 . S
C674 C669 1.399 . S
C674 C673 1.394 . S
C674 C675 1.516 . S
C675 C674 1.516 . S
C675 C676 1.502 . S
C675 C677 1.561 . S
C675 C678 1.526 . S
C676 H660 0.959 . S
C676 H661 0.959 . S
C676 H662 0.961 . S
C676 C675 1.502 . S
C677 H663 0.960 . S
C677 H664 0.961 . S
C677 H665 0.959 . S
C677 C675 1.561 . S
C678 C675 1.526 . S
C678 C679 1.396 . S
C678 C683 1.390 . S
C679 C673 1.465 . S
C679 C678 1.396 . S
C679 C680 1.399 1_565 S
C680 H666 0.929 . S
C680 C679 1.399 1_545 S
C680 C681 1.385 1_545 S
C681 H667 0.931 1_565 S
C681 C680 1.385 1_565 S
C681 C682 1.389 . S
C682 C681 1.389 . S
C682 C683 1.387 . S
C683 H668 0.930 . S
C683 C678 1.390 . S
C683 C682 1.387 . S
H684 C696 0.930 . S
H685 C698 0.930 . S
H686 C699 0.930 . S
H687 C703 0.959 . S
H688 C703 0.959 . S
H689 C703 0.961 . S
H690 C704 0.960 . S
H691 C704 0.961 . S
H692 C704 0.959 . S
H693 C707 0.929 . S
H694 C708 0.931 . S
H695 C710 0.930 . S
C696 H684 0.930 . S
C696 C697 1.399 . S
C696 C701 1.399 . S
C697 C696 1.399 . S
C697 C698 1.376 . S
C698 H685 0.930 . S
C698 C697 1.376 . S
C698 C699 1.388 . S
C699 H686 0.930 . S
C699 C698 1.388 . S
C699 C700 1.390 . S
C700 C699 1.390 . S
C700 C701 1.394 . S
C700 C706 1.465 . S
C701 C696 1.399 . S
C701 C700 1.394 . S
C701 C702 1.516 . S
C702 C701 1.516 . S
C702 C703 1.502 . S
C702 C704 1.561 1_455 S
C702 C705 1.526 . S
C703 H687 0.959 . S
C703 H688 0.959 . S
C703 H689 0.961 . S
C703 C702 1.502 . S
C704 H690 0.960 . S
C704 H691 0.961 . S
C704 H692 0.959 . S
C704 C702 1.561 1_655 S
C705 C702 1.526 . S
C705 C706 1.396 . S
C705 C710 1.390 . S
C706 C700 1.465 . S
C706 C705 1.396 . S
C706 C707 1.399 . S
C707 H693 0.929 . S
C707 C706 1.399 . S
C707 C708 1.385 . S
C708 H694 0.931 . S
C708 C707 1.385 . S
C708 C709 1.389 . S
C709 C708 1.389 . S
C709 C710 1.387 . S
C710 H695 0.930 . S
C710 C705 1.390 . S
C710 C709 1.387 . S
H711 C723 0.930 . S
H712 C725 0.930 . S
H713 C726 0.930 . S
H714 C730 0.959 . S
H715 C730 0.959 . S
H716 C730 0.961 . S
H717 C731 0.960 . S
H718 C731 0.961 . S
H719 C731 0.959 . S
H720 C734 0.929 . S
H721 C735 0.931 . S
H722 C737 0.930 . S
C723 H711 0.930 . S
C723 C724 1.399 . S
C723 C728 1.399 . S
C724 C723 1.399 . S
C724 C725 1.376 . S
C725 H712 0.930 . S
C725 C724 1.376 . S
C725 C726 1.388 . S
C726 H713 0.930 . S
C726 C725 1.388 . S
C726 C727 1.390 . S
C727 C726 1.390 . S
C727 C728 1.394 . S
C727 C733 1.465 . S
C728 C723 1.399 . S
C728 C727 1.394 . S
C728 C729 1.516 . S
C729 C728 1.516 . S
C729 C730 1.502 . S
C729 C731 1.561 . S
C729 C732 1.526 . S
C730 H714 0.959 . S
C730 H715 0.959 . S
C730 H716 0.961 . S
C730 C729 1.502 . S
C731 H717 0.960 . S
C731 H718 0.961 . S
C731 H719 0.959 . S
C731 C729 1.561 . S
C732 C729 1.526 . S
C732 C733 1.396 . S
C732 C737 1.390 . S
C733 C727 1.465 . S
C733 C732 1.396 . S
C733 C734 1.399 . S
C734 H720 0.929 . S
C734 C733 1.399 . S
C734 C735 1.385 . S
C735 H721 0.931 . S
C735 C734 1.385 . S
C735 C736 1.389 . S
C736 C735 1.389 . S
C736 C737 1.387 . S
C737 H722 0.930 . S
C737 C732 1.390 . S
C737 C736 1.387 . S
H738 C750 0.930 . S
H739 C752 0.930 . S
H740 C753 0.930 . S
H741 C757 0.959 . S
H742 C757 0.959 . S
H743 C757 0.961 . S
H744 C758 0.960 . S
H745 C758 0.961 . S
H746 C758 0.959 . S
H747 C761 0.929 . S
H748 C762 0.931 . S
H749 C764 0.930 . S
C750 H738 0.930 . S
C750 C751 1.399 . S
C750 C755 1.399 . S
C751 C750 1.399 . S
C751 C752 1.376 . S
C752 H739 0.930 . S
C752 C751 1.376 . S
C752 C753 1.388 . S
C753 H740 0.930 . S
C753 C752 1.388 . S
C753 C754 1.390 . S
C754 C753 1.390 . S
C754 C755 1.394 . S
C754 C760 1.465 . S
C755 C750 1.399 . S
C755 C754 1.394 . S
C755 C756 1.516 . S
C756 C755 1.516 . S
C756 C757 1.502 . S
C756 C758 1.561 . S
C756 C759 1.526 . S
C757 H741 0.959 . S
C757 H742 0.959 . S
C757 H743 0.961 . S
C757 C756 1.502 . S
C758 H744 0.960 . S
C758 H745 0.961 . S
C758 H746 0.959 . S
C758 C756 1.561 . S
C759 C756 1.526 . S
C759 C760 1.396 . S
C759 C764 1.390 . S
C760 C754 1.465 . S
C760 C759 1.396 . S
C760 C761 1.399 . S
C761 H747 0.929 . S
C761 C760 1.399 . S
C761 C762 1.385 . S
C762 H748 0.931 . S
C762 C761 1.385 . S
C762 C763 1.389 . S
C763 C762 1.389 . S
C763 C764 1.387 . S
C764 H749 0.930 . S
C764 C759 1.390 . S
C764 C763 1.387 . S
H765 C777 0.930 . S
H766 C779 0.930 . S
H767 C780 0.930 . S
H768 C784 0.959 . S
H769 C784 0.959 . S
H770 C784 0.961 . S
H771 C785 0.960 . S
H772 C785 0.961 . S
H773 C785 0.959 . S
H774 C788 0.929 . S
H775 C789 0.931 . S
H776 C791 0.930 1_545 S
C777 H765 0.930 . S
C777 C778 1.399 . S
C777 C782 1.399 . S
C778 C777 1.399 . S
C778 C779 1.376 . S
C779 H766 0.930 . S
C779 C778 1.376 . S
C779 C780 1.388 1_545 S
C780 H767 0.930 . S
C780 C779 1.388 1_565 S
C780 C781 1.390 1_565 S
C781 C780 1.390 1_545 S
C781 C782 1.394 . S
C781 C787 1.465 1_545 S
C782 C777 1.399 . S
C782 C781 1.394 . S
C782 C783 1.516 . S
C783 C782 1.516 . S
C783 C784 1.502 . S
C783 C785 1.561 . S
C783 C786 1.526 . S
C784 H768 0.959 . S
C784 H769 0.959 . S
C784 H770 0.961 . S
C784 C783 1.502 . S
C785 H771 0.960 . S
C785 H772 0.961 . S
C785 H773 0.959 . S
C785 C783 1.561 . S
C786 C783 1.526 . S
C786 C787 1.396 1_545 S
C786 C791 1.390 1_545 S
C787 C781 1.465 1_565 S
C787 C786 1.396 1_565 S
C787 C788 1.399 . S
C788 H774 0.929 . S
C788 C787 1.399 . S
C788 C789 1.385 . S
C789 H775 0.931 . S
C789 C788 1.385 . S
C789 C790 1.389 . S
C790 C789 1.389 . S
C790 C791 1.387 . S
C791 H776 0.930 1_565 S
C791 C786 1.390 1_565 S
C791 C790 1.387 . S
H792 C804 0.930 . S
H793 C806 0.930 . S
H794 C807 0.919 1_655 S
H795 C811 0.959 . S
H796 C811 0.959 . S
H797 C811 0.961 . S
H798 C812 0.960 . S
H799 C812 0.961 . S
H800 C812 0.959 . S
H801 C815 0.929 . S
H802 C816 0.931 . S
H803 C818 0.930 1_455 S
C804 H792 0.930 . S
C804 C805 1.399 . S
C804 C809 1.399 . S
C805 C804 1.399 . S
C805 C806 1.376 . S
C806 H793 0.930 . S
C806 C805 1.376 . S
C806 C807 1.405 . S
C807 H794 0.919 1_455 S
C807 C806 1.405 . S
C807 C808 1.386 . S
C808 C807 1.386 . S
C808 C809 1.394 . S
C808 C814 1.465 1_455 S
C809 C804 1.399 . S
C809 C808 1.394 . S
C809 C810 1.516 . S
C810 C809 1.516 . S
C810 C811 1.502 . S
C810 C812 1.561 . S
C810 C813 1.526 . S
C811 H795 0.959 . S
C811 H796 0.959 . S
C811 H797 0.961 . S
C811 C810 1.502 . S
C812 H798 0.960 . S
C812 H799 0.961 . S
C812 H800 0.959 . S
C812 C810 1.561 . S
C813 C810 1.526 . S
C813 C814 1.396 1_455 S
C813 C818 1.390 1_455 S
C814 C808 1.465 1_655 S
C814 C813 1.396 1_655 S
C814 C815 1.399 . S
C815 H801 0.929 . S
C815 C814 1.399 . S
C815 C816 1.385 . S
C816 H802 0.931 . S
C816 C815 1.385 . S
C816 C817 1.389 . S
C817 C816 1.389 . S
C817 C818 1.387 . S
C818 H803 0.930 1_655 S
C818 C813 1.390 1_655 S
C818 C817 1.387 . S
H819 C831 0.930 . S
H820 C833 0.930 . S
H821 C834 0.930 . S
H822 C838 0.959 . S
H823 C838 0.959 . S
H824 C838 0.961 . S
H825 C839 0.960 . S
H826 C839 0.961 . S
H827 C839 0.959 . S
H828 C842 0.929 . S
H829 C843 0.931 . S
H830 C845 0.930 . S
C831 H819 0.930 . S
C831 C832 1.399 . S
C831 C836 1.399 . S
C832 C831 1.399 . S
C832 C833 1.376 . S
C833 H820 0.930 . S
C833 C832 1.376 . S
C833 C834 1.388 . S
C834 H821 0.930 . S
C834 C833 1.388 . S
C834 C835 1.390 . S
C835 C834 1.390 . S
C835 C836 1.394 . S
C835 C841 1.465 . S
C836 C831 1.399 . S
C836 C835 1.394 . S
C836 C837 1.516 . S
C837 C836 1.516 . S
C837 C838 1.502 . S
C837 C839 1.561 . S
C837 C840 1.526 . S
C838 H822 0.959 . S
C838 H823 0.959 . S
C838 H824 0.961 . S
C838 C837 1.502 . S
C839 H825 0.960 . S
C839 H826 0.961 . S
C839 H827 0.959 . S
C839 C837 1.561 . S
C840 C837 1.526 . S
C840 C841 1.396 . S
C840 C845 1.390 . S
C841 C835 1.465 . S
C841 C840 1.396 . S
C841 C842 1.399 . S
C842 H828 0.929 . S
C842 C841 1.399 . S
C842 C843 1.385 . S
C843 H829 0.931 . S
C843 C842 1.385 . S
C843 C844 1.389 . S
C844 C843 1.389 . S
C844 C845 1.387 . S
C845 H830 0.930 . S
C845 C840 1.390 . S
C845 C844 1.387 . S
H846 C858 0.930 . S
H847 C860 0.930 . S
H848 C861 0.930 . S
H849 C865 0.959 . S
H850 C865 0.959 . S
H851 C865 0.961 . S
H852 C866 0.960 . S
H853 C866 0.961 . S
H854 C866 0.959 . S
H855 C869 0.929 . S
H856 C870 0.931 . S
H857 C872 0.930 1_545 S
C858 H846 0.930 . S
C858 C859 1.399 . S
C858 C863 1.399 . S
C859 C858 1.399 . S
C859 C860 1.376 . S
C860 H847 0.930 . S
C860 C859 1.376 . S
C860 C861 1.388 1_545 S
C861 H848 0.930 . S
C861 C860 1.388 1_565 S
C861 C862 1.390 1_565 S
C862 C861 1.390 1_545 S
C862 C863 1.394 . S
C862 C868 1.465 1_545 S
C863 C858 1.399 . S
C863 C862 1.394 . S
C863 C864 1.516 . S
C864 C863 1.516 . S
C864 C865 1.502 . S
C864 C866 1.561 . S
C864 C867 1.526 . S
C865 H849 0.959 . S
C865 H850 0.959 . S
C865 H851 0.961 . S
C865 C864 1.502 . S
C866 H852 0.960 . S
C866 H853 0.961 . S
C866 H854 0.959 . S
C866 C864 1.561 . S
C867 C864 1.526 . S
C867 C868 1.396 1_545 S
C867 C872 1.390 1_545 S
C868 C862 1.465 1_565 S
C868 C867 1.396 1_565 S
C868 C869 1.399 . S
C869 H855 0.929 . S
C869 C868 1.399 . S
C869 C870 1.385 . S
C870 H856 0.931 . S
C870 C869 1.385 . S
C870 C871 1.389 . S
C871 C870 1.389 . S
C871 C872 1.387 . S
C872 H857 0.930 1_565 S
C872 C867 1.390 1_565 S
C872 C871 1.387 . S
H873 C885 0.930 . S
H874 C887 0.930 . S
H875 C888 0.930 . S
H876 C892 0.959 1_455 S
H877 C892 0.959 . S
H878 C892 0.961 . S
H879 C893 0.960 . S
H880 C893 0.961 . S
H881 C893 0.959 . S
H882 C896 0.929 . S
H883 C897 0.931 . S
H884 C899 0.930 . S
C885 H873 0.930 . S
C885 C886 1.399 . S
C885 C890 1.399 . S
C886 C885 1.399 . S
C886 C887 1.376 . S
C887 H874 0.930 . S
C887 C886 1.376 . S
C887 C888 1.388 . S
C888 H875 0.930 . S
C888 C887 1.388 . S
C888 C889 1.390 . S
C889 C888 1.390 . S
C889 C890 1.394 . S
C889 C895 1.465 . S
C890 C885 1.399 . S
C890 C889 1.394 . S
C890 C891 1.516 1_455 S
C891 C890 1.516 1_655 S
C891 C892 1.502 . S
C891 C893 1.561 . S
C891 C894 1.526 . S
C892 H876 0.959 1_655 S
C892 H877 0.959 . S
C892 H878 0.961 . S
C892 C891 1.502 . S
C893 H879 0.960 . S
C893 H880 0.961 . S
C893 H881 0.959 . S
C893 C891 1.561 . S
C894 C891 1.526 . S
C894 C895 1.396 1_655 S
C894 C899 1.390 . S
C895 C889 1.465 . S
C895 C894 1.396 1_455 S
C895 C896 1.399 . S
C896 H882 0.929 . S
C896 C895 1.399 . S
C896 C897 1.385 1_455 S
C897 H883 0.931 . S
C897 C896 1.385 1_655 S
C897 C898 1.389 . S
C898 C897 1.389 . S
C898 C899 1.387 . S
C899 H884 0.930 . S
C899 C894 1.390 . S
C899 C898 1.387 . S
H900 C912 0.930 . S
H901 C914 0.930 . S
H902 C915 0.930 . S
H903 C919 0.959 . S
H904 C919 0.959 . S
H905 C919 0.961 . S
H906 C920 0.960 . S
H907 C920 0.961 . S
H908 C920 0.959 . S
H909 C923 0.929 . S
H910 C924 0.931 . S
H911 C926 0.930 . S
C912 H900 0.930 . S
C912 C913 1.399 . S
C912 C917 1.399 . S
C913 C912 1.399 . S
C913 C914 1.376 . S
C914 H901 0.930 . S
C914 C913 1.376 . S
C914 C915 1.388 . S
C915 H902 0.930 . S
C915 C914 1.388 . S
C915 C916 1.390 . S
C916 C915 1.390 . S
C916 C917 1.394 . S
C916 C922 1.465 . S
C917 C912 1.399 . S
C917 C916 1.394 . S
C917 C918 1.516 . S
C918 C917 1.516 . S
C918 C919 1.502 . S
C918 C920 1.561 . S
C918 C921 1.526 . S
C919 H903 0.959 . S
C919 H904 0.959 . S
C919 H905 0.961 . S
C919 C918 1.502 . S
C920 H906 0.960 . S
C920 H907 0.961 . S
C920 H908 0.959 . S
C920 C918 1.561 . S
C921 C918 1.526 . S
C921 C922 1.396 . S
C921 C926 1.390 . S
C922 C916 1.465 . S
C922 C921 1.396 . S
C922 C923 1.399 . S
C923 H909 0.929 . S
C923 C922 1.399 . S
C923 C924 1.385 . S
C924 H910 0.931 . S
C924 C923 1.385 . S
C924 C925 1.389 . S
C925 C924 1.389 . S
C925 C926 1.387 . S
C926 H911 0.930 . S
C926 C921 1.390 . S
C926 C925 1.387 . S
H927 C939 0.930 . S
H928 C941 0.930 . S
H929 C942 0.930 . S
H930 C946 0.959 . S
H931 C946 0.959 . S
H932 C946 0.961 . S
H933 C947 0.960 . S
H934 C947 0.961 . S
H935 C947 0.959 . S
H936 C950 0.929 . S
H937 C951 0.931 . S
H938 C953 0.930 . S
C939 H927 0.930 . S
C939 C940 1.399 . S
C939 C944 1.399 . S
C940 C939 1.399 . S
C940 C941 1.376 . S
C941 H928 0.930 . S
C941 C940 1.376 . S
C941 C942 1.388 . S
C942 H929 0.930 . S
C942 C941 1.388 . S
C942 C943 1.390 . S
C943 C942 1.390 . S
C943 C944 1.394 . S
C943 C949 1.465 . S
C944 C939 1.399 . S
C944 C943 1.394 . S
C944 C945 1.516 . S
C945 C944 1.516 . S
C945 C946 1.502 . S
C945 C947 1.561 . S
C945 C948 1.526 . S
C946 H930 0.959 . S
C946 H931 0.959 . S
C946 H932 0.961 . S
C946 C945 1.502 . S
C947 H933 0.960 . S
C947 H934 0.961 . S
C947 H935 0.959 . S
C947 C945 1.561 . S
C948 C945 1.526 . S
C948 C949 1.396 . S
C948 C953 1.390 . S
C949 C943 1.465 . S
C949 C948 1.396 . S
C949 C950 1.399 . S
C950 H936 0.929 . S
C950 C949 1.399 . S
C950 C951 1.385 . S
C951 H937 0.931 . S
C951 C950 1.385 . S
C951 C952 1.389 . S
C952 C951 1.389 . S
C952 C953 1.387 . S
C953 H938 0.930 . S
C953 C948 1.390 . S
C953 C952 1.387 . S
H954 C966 0.930 . S
H955 C968 0.930 . S
H956 C969 0.930 . S
H957 C973 0.959 . S
H958 C973 0.959 . S
H959 C973 0.961 . S
H960 C974 0.960 . S
H961 C974 0.961 . S
H962 C974 0.959 . S
H963 C977 0.929 . S
H964 C978 0.931 . S
H965 C980 0.930 . S
C966 H954 0.930 . S
C966 C967 1.399 . S
C966 C971 1.399 . S
C967 C966 1.399 . S
C967 C968 1.376 . S
C968 H955 0.930 . S
C968 C967 1.376 . S
C968 C969 1.388 . S
C969 H956 0.930 . S
C969 C968 1.388 . S
C969 C970 1.390 . S
C970 C969 1.390 . S
C970 C971 1.394 . S
C970 C976 1.465 . S
C971 C966 1.399 . S
C971 C970 1.394 . S
C971 C972 1.516 . S
C972 C971 1.516 . S
C972 C973 1.502 . S
C972 C974 1.561 . S
C972 C975 1.526 . S
C973 H957 0.959 . S
C973 H958 0.959 . S
C973 H959 0.961 . S
C973 C972 1.502 . S
C974 H960 0.960 . S
C974 H961 0.961 . S
C974 H962 0.959 . S
C974 C972 1.561 . S
C975 C972 1.526 . S
C975 C976 1.396 . S
C975 C980 1.390 . S
C976 C970 1.465 . S
C976 C975 1.396 . S
C976 C977 1.399 . S
C977 H963 0.929 . S
C977 C976 1.399 . S
C977 C978 1.385 . S
C978 H964 0.931 . S
C978 C977 1.385 . S
C978 C979 1.389 . S
C979 C978 1.389 . S
C979 C980 1.387 . S
C980 H965 0.930 . S
C980 C975 1.390 . S
C980 C979 1.387 . S
H981 C993 0.930 . S
H982 C995 0.930 . S
H983 C996 0.930 . S
H984 C1000 0.959 . S
H985 C1000 0.959 . S
H986 C1000 0.961 . S
H987 C1001 0.960 . S
H988 C1001 0.961 . S
H989 C1001 0.959 . S
H990 C1004 0.929 . S
H991 C1005 0.931 . S
H992 C1007 0.930 . S
C993 H981 0.930 . S
C993 C994 1.399 . S
C993 C998 1.399 . S
C994 C993 1.399 . S
C994 C995 1.376 . S
C995 H982 0.930 . S
C995 C994 1.376 . S
C995 C996 1.388 . S
C996 H983 0.930 . S
C996 C995 1.388 . S
C996 C997 1.390 . S
C997 C996 1.390 . S
C997 C998 1.394 . S
C997 C1003 1.465 . S
C998 C993 1.399 . S
C998 C997 1.394 . S
C998 C999 1.516 . S
C999 C998 1.516 . S
C999 C1000 1.502 . S
C999 C1001 1.561 . S
C999 C1002 1.526 . S
C1000 H984 0.959 . S
C1000 H985 0.959 . S
C1000 H986 0.961 . S
C1000 C999 1.502 . S
C1001 H987 0.960 . S
C1001 H988 0.961 . S
C1001 H989 0.959 . S
C1001 C999 1.561 . S
C1002 C999 1.526 . S
C1002 C1003 1.396 . S
C1002 C1007 1.390 . S
C1003 C997 1.465 . S
C1003 C1002 1.396 . S
C1003 C1004 1.399 . S
C1004 H990 0.929 . S
C1004 C1003 1.399 . S
C1004 C1005 1.385 . S
C1005 H991 0.931 . S
C1005 C1004 1.385 . S
C1005 C1006 1.389 . S
C1006 C1005 1.389 . S
C1006 C1007 1.387 . S
C1007 H992 0.930 . S
C1007 C1002 1.390 . S
C1007 C1006 1.387 . S
H1008 C1020 0.930 . S
H1009 C1022 0.930 . S
H1010 C1023 0.930 . S
H1011 C1027 0.959 . S
H1012 C1027 0.959 . S
H1013 C1027 0.961 . S
H1014 C1028 0.960 . S
H1015 C1028 0.961 . S
H1016 C1028 0.959 . S
H1017 C1031 0.929 . S
H1018 C1032 0.931 . S
H1019 C1034 0.930 . S
C1020 H1008 0.930 . S
C1020 C1021 1.399 . S
C1020 C1025 1.399 . S
C1021 C1020 1.399 . S
C1021 C1022 1.376 . S
C1022 H1009 0.930 . S
C1022 C1021 1.376 . S
C1022 C1023 1.388 . S
C1023 H1010 0.930 . S
C1023 C1022 1.388 . S
C1023 C1024 1.390 . S
C1024 C1023 1.390 . S
C1024 C1025 1.394 . S
C1024 C1030 1.465 . S
C1025 C1020 1.399 . S
C1025 C1024 1.394 . S
C1025 C1026 1.516 . S
C1026 C1025 1.516 . S
C1026 C1027 1.502 . S
C1026 C1028 1.561 . S
C1026 C1029 1.526 . S
C1027 H1011 0.959 . S
C1027 H1012 0.959 . S
C1027 H1013 0.961 . S
C1027 C1026 1.502 . S
C1028 H1014 0.960 . S
C1028 H1015 0.961 . S
C1028 H1016 0.959 . S
C1028 C1026 1.561 . S
C1029 C1026 1.526 . S
C1029 C1030 1.396 . S
C1029 C1034 1.390 . S
C1030 C1024 1.465 . S
C1030 C1029 1.396 . S
C1030 C1031 1.399 . S
C1031 H1017 0.929 . S
C1031 C1030 1.399 . S
C1031 C1032 1.385 . S
C1032 H1018 0.931 . S
C1032 C1031 1.385 . S
C1032 C1033 1.389 . S
C1033 C1032 1.389 . S
C1033 C1034 1.387 . S
C1034 H1019 0.930 . S
C1034 C1029 1.390 . S
C1034 C1033 1.387 . S
H1035 C1047 0.930 . S
H1036 C1049 0.930 . S
H1037 C1050 0.930 . S
H1038 C1054 0.959 . S
H1039 C1054 0.959 . S
H1040 C1054 0.961 . S
H1041 C1055 0.960 . S
H1042 C1055 0.961 . S
H1043 C1055 0.959 . S
H1044 C1058 0.929 . S
H1045 C1059 0.931 . S
H1046 C1061 0.930 . S
C1047 H1035 0.930 . S
C1047 C1048 1.399 . S
C1047 C1052 1.399 . S
C1048 C1047 1.399 . S
C1048 C1049 1.376 . S
C1049 H1036 0.930 . S
C1049 C1048 1.376 . S
C1049 C1050 1.388 . S
C1050 H1037 0.930 . S
C1050 C1049 1.388 . S
C1050 C1051 1.390 . S
C1051 C1050 1.390 . S
C1051 C1052 1.394 . S
C1051 C1057 1.465 . S
C1052 C1047 1.399 . S
C1052 C1051 1.394 . S
C1052 C1053 1.516 . S
C1053 C1052 1.516 . S
C1053 C1054 1.502 . S
C1053 C1055 1.561 . S
C1053 C1056 1.526 . S
C1054 H1038 0.959 . S
C1054 H1039 0.959 . S
C1054 H1040 0.961 . S
C1054 C1053 1.502 . S
C1055 H1041 0.960 . S
C1055 H1042 0.961 . S
C1055 H1043 0.959 . S
C1055 C1053 1.561 . S
C1056 C1053 1.526 . S
C1056 C1057 1.396 . S
C1056 C1061 1.390 . S
C1057 C1051 1.465 . S
C1057 C1056 1.396 . S
C1057 C1058 1.399 . S
C1058 H1044 0.929 . S
C1058 C1057 1.399 . S
C1058 C1059 1.385 . S
C1059 H1045 0.931 . S
C1059 C1058 1.385 . S
C1059 C1060 1.389 . S
C1060 C1059 1.389 . S
C1060 C1061 1.387 . S
C1061 H1046 0.930 . S
C1061 C1056 1.390 . S
C1061 C1060 1.387 . S
H1062 C1074 0.930 . S
H1063 C1076 0.930 . S
H1064 C1077 0.930 . S
H1065 C1081 0.959 . S
H1066 C1081 0.959 . S
H1067 C1081 0.961 . S
H1068 C1082 0.960 . S
H1069 C1082 0.961 . S
H1070 C1082 0.959 . S
H1071 C1085 0.929 . S
H1072 C1086 0.931 . S
H1073 C1088 0.930 . S
C1074 H1062 0.930 . S
C1074 C1075 1.399 . S
C1074 C1079 1.399 . S
C1075 C1074 1.399 . S
C1075 C1076 1.376 . S
C1076 H1063 0.930 . S
C1076 C1075 1.376 . S
C1076 C1077 1.388 . S
C1077 H1064 0.930 . S
C1077 C1076 1.388 . S
C1077 C1078 1.390 . S
C1078 C1077 1.390 . S
C1078 C1079 1.394 . S
C1078 C1084 1.465 . S
C1079 C1074 1.399 . S
C1079 C1078 1.394 . S
C1079 C1080 1.516 . S
C1080 C1079 1.516 . S
C1080 C1081 1.502 . S
C1080 C1082 1.561 . S
C1080 C1083 1.526 . S
C1081 H1065 0.959 . S
C1081 H1066 0.959 . S
C1081 H1067 0.961 . S
C1081 C1080 1.502 . S
C1082 H1068 0.960 . S
C1082 H1069 0.961 . S
C1082 H1070 0.959 . S
C1082 C1080 1.561 . S
C1083 C1080 1.526 . S
C1083 C1084 1.396 . S
C1083 C1088 1.390 . S
C1084 C1078 1.465 . S
C1084 C1083 1.396 . S
C1084 C1085 1.399 . S
C1085 H1071 0.929 . S
C1085 C1084 1.399 . S
C1085 C1086 1.385 . S
C1086 H1072 0.931 . S
C1086 C1085 1.385 . S
C1086 C1087 1.389 . S
C1087 C1086 1.389 . S
C1087 C1088 1.387 . S
C1088 H1073 0.930 . S
C1088 C1083 1.390 . S
C1088 C1087 1.387 . S
H1089 C1101 0.930 . S
H1090 C1103 0.930 . S
H1091 C1104 0.930 . S
H1092 C1108 0.959 . S
H1093 C1108 0.959 . S
H1094 C1108 0.961 . S
H1095 C1109 0.960 . S
H1096 C1109 0.961 . S
H1097 C1109 0.959 . S
H1098 C1112 0.929 . S
H1099 C1113 0.931 . S
H1100 C1115 0.930 . S
C1101 H1089 0.930 . S
C1101 C1102 1.399 . S
C1101 C1106 1.399 . S
C1102 C1101 1.399 . S
C1102 C1103 1.376 . S
C1103 H1090 0.930 . S
C1103 C1102 1.376 . S
C1103 C1104 1.388 . S
C1104 H1091 0.930 . S
C1104 C1103 1.388 . S
C1104 C1105 1.390 . S
C1105 C1104 1.390 . S
C1105 C1106 1.394 . S
C1105 C1111 1.465 . S
C1106 C1101 1.399 . S
C1106 C1105 1.394 . S
C1106 C1107 1.516 . S
C1107 C1106 1.516 . S
C1107 C1108 1.502 . S
C1107 C1109 1.561 . S
C1107 C1110 1.526 . S
C1108 H1092 0.959 . S
C1108 H1093 0.959 . S
C1108 H1094 0.961 . S
C1108 C1107 1.502 . S
C1109 H1095 0.960 . S
C1109 H1096 0.961 . S
C1109 H1097 0.959 . S
C1109 C1107 1.561 . S
C1110 C1107 1.526 . S
C1110 C1111 1.396 . S
C1110 C1115 1.390 . S
C1111 C1105 1.465 . S
C1111 C1110 1.396 . S
C1111 C1112 1.399 . S
C1112 H1098 0.929 . S
C1112 C1111 1.399 . S
C1112 C1113 1.385 . S
C1113 H1099 0.931 . S
C1113 C1112 1.385 . S
C1113 C1114 1.389 . S
C1114 C1113 1.389 . S
C1114 C1115 1.387 . S
C1115 H1100 0.930 . S
C1115 C1110 1.390 . S
C1115 C1114 1.387 . S
H1116 C1128 0.930 . S
H1117 C1130 0.930 . S
H1118 C1131 0.930 . S
H1119 C1135 0.959 . S
H1120 C1135 0.959 . S
H1121 C1135 0.961 . S
H1122 C1136 0.960 . S
H1123 C1136 0.961 . S
H1124 C1136 0.959 . S
H1125 C1139 0.929 . S
H1126 C1140 0.931 . S
H1127 C1142 0.930 . S
C1128 H1116 0.930 . S
C1128 C1129 1.399 . S
C1128 C1133 1.399 . S
C1129 C1128 1.399 . S
C1129 C1130 1.376 . S
C1130 H1117 0.930 . S
C1130 C1129 1.376 . S
C1130 C1131 1.388 . S
C1131 H1118 0.930 . S
C1131 C1130 1.388 . S
C1131 C1132 1.390 . S
C1132 C1131 1.390 . S
C1132 C1133 1.394 . S
C1132 C1138 1.465 . S
C1133 C1128 1.399 . S
C1133 C1132 1.394 . S
C1133 C1134 1.516 . S
C1134 C1133 1.516 . S
C1134 C1135 1.502 . S
C1134 C1136 1.561 . S
C1134 C1137 1.526 . S
C1135 H1119 0.959 . S
C1135 H1120 0.959 . S
C1135 H1121 0.961 . S
C1135 C1134 1.502 . S
C1136 H1122 0.960 . S
C1136 H1123 0.961 . S
C1136 H1124 0.959 . S
C1136 C1134 1.561 . S
C1137 C1134 1.526 . S
C1137 C1138 1.396 . S
C1137 C1142 1.390 . S
C1138 C1132 1.465 . S
C1138 C1137 1.396 . S
C1138 C1139 1.399 . S
C1139 H1125 0.929 . S
C1139 C1138 1.399 . S
C1139 C1140 1.385 . S
C1140 H1126 0.931 . S
C1140 C1139 1.385 . S
C1140 C1141 1.389 . S
C1141 C1140 1.389 . S
C1141 C1142 1.387 . S
C1142 H1127 0.930 . S
C1142 C1137 1.390 . S
C1142 C1141 1.387 . S
H1143 C1155 0.930 . S
H1144 C1157 0.930 . S
H1145 C1158 0.930 . S
H1146 C1162 0.959 . S
H1147 C1162 0.959 . S
H1148 C1162 0.961 . S
H1149 C1163 0.960 . S
H1150 C1163 0.961 . S
H1151 C1163 0.959 . S
H1152 C1166 0.929 . S
H1153 C1167 0.931 . S
H1154 C1169 0.930 . S
C1155 H1143 0.930 . S
C1155 C1156 1.399 . S
C1155 C1160 1.399 . S
C1156 C1155 1.399 . S
C1156 C1157 1.376 . S
C1157 H1144 0.930 . S
C1157 C1156 1.376 . S
C1157 C1158 1.388 . S
C1158 H1145 0.930 . S
C1158 C1157 1.388 . S
C1158 C1159 1.390 . S
C1159 C1158 1.390 . S
C1159 C1160 1.394 . S
C1159 C1165 1.465 . S
C1160 C1155 1.399 . S
C1160 C1159 1.394 . S
C1160 C1161 1.516 . S
C1161 C1160 1.516 . S
C1161 C1162 1.502 . S
C1161 C1163 1.561 . S
C1161 C1164 1.526 . S
C1162 H1146 0.959 . S
C1162 H1147 0.959 . S
C1162 H1148 0.961 . S
C1162 C1161 1.502 . S
C1163 H1149 0.960 . S
C1163 H1150 0.961 . S
C1163 H1151 0.959 . S
C1163 C1161 1.561 . S
C1164 C1161 1.526 . S
C1164 C1165 1.396 . S
C1164 C1169 1.390 . S
C1165 C1159 1.465 . S
C1165 C1164 1.396 . S
C1165 C1166 1.399 . S
C1166 H1152 0.929 . S
C1166 C1165 1.399 . S
C1166 C1167 1.385 . S
C1167 H1153 0.931 . S
C1167 C1166 1.385 . S
C1167 C1168 1.389 . S
C1168 C1167 1.389 . S
C1168 C1169 1.387 . S
C1169 H1154 0.930 . S
C1169 C1164 1.390 . S
C1169 C1168 1.387 . S
H1170 C1182 0.930 . S
H1171 C1184 0.930 . S
H1172 C1185 0.930 . S
H1173 C1189 0.959 . S
H1174 C1189 0.959 . S
H1175 C1189 0.961 . S
H1176 C1190 0.960 . S
H1177 C1190 0.961 . S
H1178 C1190 0.959 . S
H1179 C1193 0.929 . S
H1180 C1194 0.931 . S
H1181 C1196 0.930 . S
C1182 H1170 0.930 . S
C1182 C1183 1.399 . S
C1182 C1187 1.399 . S
C1183 C1182 1.399 . S
C1183 C1184 1.376 . S
C1184 H1171 0.930 . S
C1184 C1183 1.376 . S
C1184 C1185 1.388 . S
C1185 H1172 0.930 . S
C1185 C1184 1.388 . S
C1185 C1186 1.390 . S
C1186 C1185 1.390 . S
C1186 C1187 1.394 . S
C1186 C1192 1.465 . S
C1187 C1182 1.399 . S
C1187 C1186 1.394 . S
C1187 C1188 1.516 . S
C1188 C1187 1.516 . S
C1188 C1189 1.502 . S
C1188 C1190 1.561 . S
C1188 C1191 1.526 . S
C1189 H1173 0.959 . S
C1189 H1174 0.959 . S
C1189 H1175 0.961 . S
C1189 C1188 1.502 . S
C1190 H1176 0.960 . S
C1190 H1177 0.961 . S
C1190 H1178 0.959 . S
C1190 C1188 1.561 . S
C1191 C1188 1.526 . S
C1191 C1192 1.396 . S
C1191 C1196 1.390 . S
C1192 C1186 1.465 . S
C1192 C1191 1.396 . S
C1192 C1193 1.399 . S
C1193 H1179 0.929 . S
C1193 C1192 1.399 . S
C1193 C1194 1.385 . S
C1194 H1180 0.931 . S
C1194 C1193 1.385 . S
C1194 C1195 1.389 . S
C1195 C1194 1.389 . S
C1195 C1196 1.387 . S
C1196 H1181 0.930 . S
C1196 C1191 1.390 . S
C1196 C1195 1.387 . S
H1197 C1209 0.930 . S
H1198 C1211 0.930 . S
H1199 C1212 0.930 . S
H1200 C1216 0.959 . S
H1201 C1216 0.959 . S
H1202 C1216 0.961 . S
H1203 C1217 0.960 . S
H1204 C1217 0.961 . S
H1205 C1217 0.959 . S
H1206 C1220 0.929 . S
H1207 C1221 0.931 . S
H1208 C1223 0.930 . S
C1209 H1197 0.930 . S
C1209 C1210 1.399 . S
C1209 C1214 1.399 . S
C1210 C1209 1.399 . S
C1210 C1211 1.376 . S
C1211 H1198 0.930 . S
C1211 C1210 1.376 . S
C1211 C1212 1.388 . S
C1212 H1199 0.930 . S
C1212 C1211 1.388 . S
C1212 C1213 1.390 . S
C1213 C1212 1.390 . S
C1213 C1214 1.394 . S
C1213 C1219 1.465 . S
C1214 C1209 1.399 . S
C1214 C1213 1.394 . S
C1214 C1215 1.516 . S
C1215 C1214 1.516 . S
C1215 C1216 1.502 . S
C1215 C1217 1.561 . S
C1215 C1218 1.526 . S
C1216 H1200 0.959 . S
C1216 H1201 0.959 . S
C1216 H1202 0.961 . S
C1216 C1215 1.502 . S
C1217 H1203 0.960 . S
C1217 H1204 0.961 . S
C1217 H1205 0.959 . S
C1217 C1215 1.561 . S
C1218 C1215 1.526 . S
C1218 C1219 1.396 . S
C1218 C1223 1.390 . S
C1219 C1213 1.465 . S
C1219 C1218 1.396 . S
C1219 C1220 1.399 . S
C1220 H1206 0.929 . S
C1220 C1219 1.399 . S
C1220 C1221 1.385 . S
C1221 H1207 0.931 . S
C1221 C1220 1.385 . S
C1221 C1222 1.389 . S
C1222 C1221 1.389 . S
C1222 C1223 1.387 . S
C1223 H1208 0.930 . S
C1223 C1218 1.390 . S
C1223 C1222 1.387 . S
H1224 C1236 0.930 . S
H1225 C1238 0.930 . S
H1226 C1239 0.930 . S
H1227 C1243 0.959 . S
H1228 C1243 0.959 . S
H1229 C1243 0.961 . S
H1230 C1244 0.960 . S
H1231 C1244 0.961 . S
H1232 C1244 0.959 . S
H1233 C1247 0.929 . S
H1234 C1248 0.931 . S
H1235 C1250 0.930 . S
C1236 H1224 0.930 . S
C1236 C1237 1.399 . S
C1236 C1241 1.399 . S
C1237 C1236 1.399 . S
C1237 C1238 1.376 . S
C1238 H1225 0.930 . S
C1238 C1237 1.376 . S
C1238 C1239 1.388 . S
C1239 H1226 0.930 . S
C1239 C1238 1.388 . S
C1239 C1240 1.390 . S
C1240 C1239 1.390 . S
C1240 C1241 1.394 . S
C1240 C1246 1.465 . S
C1241 C1236 1.399 . S
C1241 C1240 1.394 . S
C1241 C1242 1.516 . S
C1242 C1241 1.516 . S
C1242 C1243 1.502 . S
C1242 C1244 1.561 . S
C1242 C1245 1.526 . S
C1243 H1227 0.959 . S
C1243 H1228 0.959 . S
C1243 H1229 0.961 . S
C1243 C1242 1.502 . S
C1244 H1230 0.960 . S
C1244 H1231 0.961 . S
C1244 H1232 0.959 . S
C1244 C1242 1.561 . S
C1245 C1242 1.526 . S
C1245 C1246 1.396 . S
C1245 C1250 1.390 . S
C1246 C1240 1.465 . S
C1246 C1245 1.396 . S
C1246 C1247 1.399 . S
C1247 H1233 0.929 . S
C1247 C1246 1.399 . S
C1247 C1248 1.385 . S
C1248 H1234 0.931 . S
C1248 C1247 1.385 . S
C1248 C1249 1.389 . S
C1249 C1248 1.389 . S
C1249 C1250 1.387 . S
C1250 H1235 0.930 . S
C1250 C1245 1.390 . S
C1250 C1249 1.387 . S
H1251 C1263 0.930 . S
H1252 C1265 0.930 . S
H1253 C1266 0.930 . S
H1254 C1270 0.959 . S
H1255 C1270 0.959 . S
H1256 C1270 0.961 . S
H1257 C1271 0.960 . S
H1258 C1271 0.961 . S
H1259 C1271 0.959 . S
H1260 C1274 0.929 . S
H1261 C1275 0.937 1_565 S
H1262 C1277 0.930 . S
C1263 H1251 0.930 . S
C1263 C1264 1.399 . S
C1263 C1268 1.399 . S
C1264 C1263 1.399 . S
C1264 C1265 1.376 . S
C1265 H1252 0.930 . S
C1265 C1264 1.376 . S
C1265 C1266 1.388 . S
C1266 H1253 0.930 . S
C1266 C1265 1.388 . S
C1266 C1267 1.390 . S
C1267 C1266 1.390 . S
C1267 C1268 1.394 . S
C1267 C1273 1.465 . S
C1268 C1263 1.399 . S
C1268 C1267 1.394 . S
C1268 C1269 1.516 . S
C1269 C1268 1.516 . S
C1269 C1270 1.502 1_545 S
C1269 C1271 1.561 . S
C1269 C1272 1.526 . S
C1270 H1254 0.959 . S
C1270 H1255 0.959 . S
C1270 H1256 0.961 . S
C1270 C1269 1.502 1_565 S
C1271 H1257 0.960 . S
C1271 H1258 0.961 . S
C1271 H1259 0.959 . S
C1271 C1269 1.561 . S
C1272 C1269 1.526 . S
C1272 C1273 1.396 . S
C1272 C1277 1.390 1_545 S
C1273 C1267 1.465 . S
C1273 C1272 1.396 . S
C1273 C1274 1.399 . S
C1274 H1260 0.929 . S
C1274 C1273 1.399 . S
C1274 C1275 1.373 . S
C1275 H1261 0.937 1_545 S
C1275 C1274 1.373 . S
C1275 C1276 1.398 1_545 S
C1276 C1275 1.398 1_565 S
C1276 C1277 1.387 . S
C1277 H1262 0.930 . S
C1277 C1272 1.390 1_565 S
C1277 C1276 1.387 . S
H1278 C1290 0.929 . S
H1279 C1292 0.930 . S
H1280 C1293 0.930 . S
H1281 C1297 0.959 . S
H1282 C1297 0.959 . S
H1283 C1297 0.961 . S
H1284 C1298 0.960 . S
H1285 C1298 0.961 . S
H1286 C1298 0.959 1_455 S
H1287 C1301 0.929 . S
H1288 C1302 0.931 . S
H1289 C1304 0.930 . S
C1290 H1278 0.929 . S
C1290 C1291 1.400 1_655 S
C1290 C1295 1.398 1_655 S
C1291 C1290 1.400 1_455 S
C1291 C1292 1.376 . S
C1292 H1279 0.930 . S
C1292 C1291 1.376 . S
C1292 C1293 1.388 . S
C1293 H1280 0.930 . S
C1293 C1292 1.388 . S
C1293 C1294 1.390 . S
C1294 C1293 1.390 . S
C1294 C1295 1.394 . S
C1294 C1300 1.465 . S
C1295 C1290 1.398 1_455 S
C1295 C1294 1.394 . S
C1295 C1296 1.516 1_455 S
C1296 C1295 1.516 1_655 S
C1296 C1297 1.502 . S
C1296 C1298 1.561 . S
C1296 C1299 1.526 . S
C1297 H1281 0.959 . S
C1297 H1282 0.959 . S
C1297 H1283 0.961 . S
C1297 C1296 1.502 . S
C1298 H1284 0.960 . S
C1298 H1285 0.961 . S
C1298 H1286 0.959 1_655 S
C1298 C1296 1.561 . S
C1299 C1296 1.526 . S
C1299 C1300 1.396 1_655 S
C1299 C1304 1.390 . S
C1300 C1294 1.465 . S
C1300 C1299 1.396 1_455 S
C1300 C1301 1.399 . S
C1301 H1287 0.929 . S
C1301 C1300 1.399 . S
C1301 C1302 1.385 . S
C1302 H1288 0.931 . S
C1302 C1301 1.385 . S
C1302 C1303 1.373 1_455 S
C1303 C1302 1.373 1_655 S
C1303 C1304 1.386 . S
C1304 H1289 0.930 . S
C1304 C1299 1.390 . S
C1304 C1303 1.386 . S
H1305 C1317 0.930 1_554 S
H1306 C1319 0.930 . S
H1307 C1320 0.930 . S
H1308 C1324 0.959 . S
H1309 C1324 0.959 . S
H1310 C1324 0.961 . S
H1311 C1325 0.960 . S
H1312 C1325 0.961 . S
H1313 C1325 0.959 . S
H1314 C1328 0.929 . S
H1315 C1329 0.931 . S
H1316 C1331 0.930 . S
C1317 H1305 0.930 1_556 S
C1317 C1318 1.399 . S
C1317 C1322 1.399 1_556 S
C1318 C1317 1.399 . S
C1318 C1319 1.376 . S
C1319 H1306 0.930 . S
C1319 C1318 1.376 . S
C1319 C1320 1.388 . S
C1320 H1307 0.930 . S
C1320 C1319 1.388 . S
C1320 C1321 1.390 . S
C1321 C1320 1.390 . S
C1321 C1322 1.394 1_556 S
C1321 C1327 1.465 . S
C1322 C1317 1.399 1_554 S
C1322 C1321 1.394 1_554 S
C1322 C1323 1.516 . S
C1323 C1322 1.516 . S
C1323 C1324 1.502 . S
C1323 C1325 1.561 . S
C1323 C1326 1.526 . S
C1324 H1308 0.959 . S
C1324 H1309 0.959 . S
C1324 H1310 0.961 . S
C1324 C1323 1.502 . S
C1325 H1311 0.960 . S
C1325 H1312 0.961 . S
C1325 H1313 0.959 . S
C1325 C1323 1.561 . S
C1326 C1323 1.526 . S
C1326 C1327 1.396 1_554 S
C1326 C1331 1.390 . S
C1327 C1321 1.465 . S
C1327 C1326 1.396 1_556 S
C1327 C1328 1.399 . S
C1328 H1314 0.929 . S
C1328 C1327 1.399 . S
C1328 C1329 1.385 . S
C1329 H1315 0.931 . S
C1329 C1328 1.385 . S
C1329 C1330 1.389 1_556 S
C1330 C1329 1.389 1_554 S
C1330 C1331 1.387 . S
C1331 H1316 0.930 . S
C1331 C1326 1.390 . S
C1331 C1330 1.387 . S
H1332 C1344 0.930 . S
H1333 C1346 0.930 . S
H1334 C1347 0.930 1_554 S
H1335 C1351 0.959 . S
H1336 C1351 0.959 . S
H1337 C1351 0.961 1_556 S
H1338 C1352 0.960 . S
H1339 C1352 0.961 . S
H1340 C1352 0.959 . S
H1341 C1355 0.929 . S
H1342 C1356 0.931 . S
H1343 C1358 0.930 . S
C1344 H1332 0.930 . S
C1344 C1345 1.399 1_545 S
C1344 C1349 1.399 . S
C1345 C1344 1.399 1_565 S
C1345 C1346 1.376 . S
C1346 H1333 0.930 . S
C1346 C1345 1.376 . S
C1346 C1347 1.388 . S
C1347 H1334 0.930 1_556 S
C1347 C1346 1.388 . S
C1347 C1348 1.390 . S
C1348 C1347 1.390 . S
C1348 C1349 1.394 1_565 S
C1348 C1354 1.465 1_556 S
C1349 C1344 1.399 . S
C1349 C1348 1.394 1_545 S
C1349 C1350 1.516 . S
C1350 C1349 1.516 . S
C1350 C1351 1.502 1_556 S
C1350 C1352 1.561 . S
C1350 C1353 1.526 1_556 S
C1351 H1335 0.959 . S
C1351 H1336 0.959 . S
C1351 H1337 0.961 1_554 S
C1351 C1350 1.502 1_554 S
C1352 H1338 0.960 . S
C1352 H1339 0.961 . S
C1352 H1340 0.959 . S
C1352 C1350 1.561 . S
C1353 C1350 1.526 1_554 S
C1353 C1354 1.396 1_545 S
C1353 C1358 1.390 . S
C1354 C1348 1.465 1_554 S
C1354 C1353 1.396 1_565 S
C1354 C1355 1.399 . S
C1355 H1341 0.929 . S
C1355 C1354 1.399 . S
C1355 C1356 1.385 . S
C1356 H1342 0.931 . S
C1356 C1355 1.385 . S
C1356 C1357 1.389 1_565 S
C1357 C1356 1.389 1_545 S
C1357 C1358 1.387 . S
C1358 H1343 0.930 . S
C1358 C1353 1.390 . S
C1358 C1357 1.387 . S
H1359 C1371 0.930 . S
H1360 C1373 0.930 . S
H1361 C1374 0.930 . S
H1362 C1378 0.959 . S
H1363 C1378 0.959 . S
H1364 C1378 0.961 . S
H1365 C1379 0.960 . S
H1366 C1379 0.961 . S
H1367 C1379 0.959 . S
H1368 C1382 0.929 . S
H1369 C1383 0.931 . S
H1370 C1385 0.930 1_556 S
C1371 H1359 0.930 . S
C1371 C1372 1.399 . S
C1371 C1376 1.399 . S
C1372 C1371 1.399 . S
C1372 C1373 1.376 1_556 S
C1373 H1360 0.930 . S
C1373 C1372 1.376 1_554 S
C1373 C1374 1.388 . S
C1374 H1361 0.930 . S
C1374 C1373 1.388 . S
C1374 C1375 1.390 . S
C1375 C1374 1.390 . S
C1375 C1376 1.394 1_554 S
C1375 C1381 1.465 . S
C1376 C1371 1.399 . S
C1376 C1375 1.394 1_556 S
C1376 C1377 1.516 . S
C1377 C1376 1.516 . S
C1377 C1378 1.502 1_455 S
C1377 C1379 1.561 . S
C1377 C1380 1.526 . S
C1378 H1362 0.959 . S
C1378 H1363 0.959 . S
C1378 H1364 0.961 . S
C1378 C1377 1.502 1_655 S
C1379 H1365 0.960 . S
C1379 H1366 0.961 . S
C1379 H1367 0.959 . S
C1379 C1377 1.561 . S
C1380 C1377 1.526 . S
C1380 C1381 1.396 1_556 S
C1380 C1385 1.390 1_456 S
C1381 C1375 1.465 . S
C1381 C1380 1.396 1_554 S
C1381 C1382 1.399 . S
C1382 H1368 0.929 . S
C1382 C1381 1.399 . S
C1382 C1383 1.385 . S
C1383 H1369 0.931 . S
C1383 C1382 1.385 . S
C1383 C1384 1.389 1_455 S
C1384 C1383 1.389 1_655 S
C1384 C1385 1.387 . S
C1385 H1370 0.930 1_554 S
C1385 C1380 1.390 1_654 S
C1385 C1384 1.387 . S
C427 C7 1.692 . S
C439 C338 1.704 1_554 S
C454 C292 1.649 1_554 S
C466 C39 1.667 . S
C481 C53 1.736 . S
C493 C306 1.755 1_554 S
C508 C154 1.633 . S
C520 C62 1.678 . S
C535 C177 1.640 . S
C547 C16 1.671 . S
C562 C200 1.654 . S
C574 C30 1.703 . S
C589 C76 1.705 . S
C601 C269 1.671 1_556 S
C616 C223 1.622 1_556 S
C628 C108 1.654 . S
C643 C246 1.669 1_556 S
C655 C122 1.704 . S
C670 C131 1.707 . S
C682 C352 1.696 . S
C697 C85 1.608 . S
C709 C384 1.675 . S
C724 C398 1.729 . S
C736 C99 1.777 . S
C751 C283 1.775 . S
C763 C191 1.734 . S
C778 C145 1.715 . S
C790 C315 1.719 . S
C805 C329 1.751 . S
C817 C168 1.771 . S
C832 C407 1.726 . S
C844 C214 1.705 . S
C859 C237 1.711 . S
C871 C361 1.708 . S
C886 C375 1.765 . S
C898 C260 1.749 . S
C913 N347 1.575 . S
C925 N2 1.538 . S
C940 N35 1.619 . S
C952 N380 1.591 . S
C967 N48 1.541 . S
C979 N393 1.564 . S
C994 N58 1.620 . S
C1006 N265 1.563 . S
C1021 N219 1.582 . S
C1033 N12 1.615 . S
C1048 N25 1.542 . S
C1060 N242 1.579 . S
C1075 N150 1.584 . S
C1087 N71 1.550 . S
C1102 N173 1.569 . S
C1114 N104 1.603 . S
C1129 N117 1.572 . S
C1141 N196 1.572 . S
C1156 N127 1.612 . S
C1168 N334 1.555 . S
C1183 N81 1.609 . S
C1195 N288 1.575 . S
C1210 N94 1.576 . S
C1222 N301 1.503 . S
C1237 N186 1.540 . S
C1249 N403 1.571 . S
C1264 N140 1.540 . S
C1276 N357 1.574 . S
C1291 N370 1.498 . S
C1303 N163 1.608 . S
C1318 N278 1.530 . S
C1330 N209 1.565 . S
C1345 N311 1.585 . S
C1357 N232 1.562 . S
C1372 N324 1.541 . S
C1384 N255 1.522 . S
