# Generated by pormake.
# Topology vcc, (6)-cn, num edge types: 1
# Building blocks:
#     Node 0, Type 0, BuildingBlock: MIFKUJ_clean_sbu_0, # of connection points: 6
#     Node 1, Type 0, BuildingBlock: MIFKUJ_clean_sbu_0, # of connection points: 6
#     Node 2, Type 0, BuildingBlock: MIFKUJ_clean_sbu_0, # of connection points: 6
#     Node 3, Type 0, BuildingBlock: MIFKUJ_clean_sbu_0, # of connection points: 6
#     Node 4, Type 0, BuildingBlock: MIFKUJ_clean_sbu_0, # of connection points: 6
#     Node 5, Type 0, BuildingBlock: MIFKUJ_clean_sbu_0, # of connection points: 6
#     Node 6, Type 0, BuildingBlock: MIFKUJ_clean_sbu_0, # of connection points: 6
#     Node 7, Type 0, BuildingBlock: MIFKUJ_clean_sbu_0, # of connection points: 6
#     Node 8, Type 0, BuildingBlock: MIFKUJ_clean_sbu_0, # of connection points: 6
#     Node 9, Type 0, BuildingBlock: MIFKUJ_clean_sbu_0, # of connection points: 6
#     Node 10, Type 0, BuildingBlock: MIFKUJ_clean_sbu_0, # of connection points: 6
#     Node 11, Type 0, BuildingBlock: MIFKUJ_clean_sbu_0, # of connection points: 6
#     Node 12, Type 0, BuildingBlock: MIFKUJ_clean_sbu_0, # of connection points: 6
#     Node 13, Type 0, BuildingBlock: MIFKUJ_clean_sbu_0, # of connection points: 6
#     Node 14, Type 0, BuildingBlock: MIFKUJ_clean_sbu_0, # of connection points: 6
#     Node 15, Type 0, BuildingBlock: MIFKUJ_clean_sbu_0, # of connection points: 6
#     Node 16, Type 0, BuildingBlock: MIFKUJ_clean_sbu_0, # of connection points: 6
#     Node 17, Type 0, BuildingBlock: MIFKUJ_clean_sbu_0, # of connection points: 6
#     Node 18, Type 0, BuildingBlock: MIFKUJ_clean_sbu_0, # of connection points: 6
#     Node 19, Type 0, BuildingBlock: MIFKUJ_clean_sbu_0, # of connection points: 6
#     Node 20, Type 0, BuildingBlock: MIFKUJ_clean_sbu_0, # of connection points: 6
#     Node 21, Type 0, BuildingBlock: MIFKUJ_clean_sbu_0, # of connection points: 6
#     Node 22, Type 0, BuildingBlock: MIFKUJ_clean_sbu_0, # of connection points: 6
#     Node 23, Type 0, BuildingBlock: MIFKUJ_clean_sbu_0, # of connection points: 6
#     Node 24, Type 0, BuildingBlock: MIFKUJ_clean_sbu_0, # of connection points: 6
#     Node 25, Type 0, BuildingBlock: MIFKUJ_clean_sbu_0, # of connection points: 6
#     Node 26, Type 0, BuildingBlock: MIFKUJ_clean_sbu_0, # of connection points: 6
#     Node 27, Type 0, BuildingBlock: MIFKUJ_clean_sbu_0, # of connection points: 6
#     Node 28, Type 0, BuildingBlock: MIFKUJ_clean_sbu_0, # of connection points: 6
#     Node 29, Type 0, BuildingBlock: MIFKUJ_clean_sbu_0, # of connection points: 6
#     Node 30, Type 0, BuildingBlock: MIFKUJ_clean_sbu_0, # of connection points: 6
#     Node 31, Type 0, BuildingBlock: MIFKUJ_clean_sbu_0, # of connection points: 6
#     Edge 32, Type (0, 0), None
#     Edge 33, Type (0, 0), None
#     Edge 34, Type (0, 0), None
#     Edge 35, Type (0, 0), None
#     Edge 36, Type (0, 0), None
#     Edge 37, Type (0, 0), None
#     Edge 38, Type (0, 0), None
#     Edge 39, Type (0, 0), None
#     Edge 40, Type (0, 0), None
#     Edge 41, Type (0, 0), None
#     Edge 42, Type (0, 0), None
#     Edge 43, Type (0, 0), None
#     Edge 44, Type (0, 0), None
#     Edge 45, Type (0, 0), None
#     Edge 46, Type (0, 0), None
#     Edge 47, Type (0, 0), None
#     Edge 48, Type (0, 0), None
#     Edge 49, Type (0, 0), None
#     Edge 50, Type (0, 0), None
#     Edge 51, Type (0, 0), None
#     Edge 52, Type (0, 0), None
#     Edge 53, Type (0, 0), None
#     Edge 54, Type (0, 0), None
#     Edge 55, Type (0, 0), None
#     Edge 56, Type (0, 0), None
#     Edge 57, Type (0, 0), None
#     Edge 58, Type (0, 0), None
#     Edge 59, Type (0, 0), None
#     Edge 60, Type (0, 0), None
#     Edge 61, Type (0, 0), None
#     Edge 62, Type (0, 0), None
#     Edge 63, Type (0, 0), None
#     Edge 64, Type (0, 0), None
#     Edge 65, Type (0, 0), None
#     Edge 66, Type (0, 0), None
#     Edge 67, Type (0, 0), None
#     Edge 68, Type (0, 0), None
#     Edge 69, Type (0, 0), None
#     Edge 70, Type (0, 0), None
#     Edge 71, Type (0, 0), None
#     Edge 72, Type (0, 0), None
#     Edge 73, Type (0, 0), None
#     Edge 74, Type (0, 0), None
#     Edge 75, Type (0, 0), None
#     Edge 76, Type (0, 0), None
#     Edge 77, Type (0, 0), None
#     Edge 78, Type (0, 0), None
#     Edge 79, Type (0, 0), None
#     Edge 80, Type (0, 0), None
#     Edge 81, Type (0, 0), None
#     Edge 82, Type (0, 0), None
#     Edge 83, Type (0, 0), None
#     Edge 84, Type (0, 0), None
#     Edge 85, Type (0, 0), None
#     Edge 86, Type (0, 0), None
#     Edge 87, Type (0, 0), None
#     Edge 88, Type (0, 0), None
#     Edge 89, Type (0, 0), None
#     Edge 90, Type (0, 0), None
#     Edge 91, Type (0, 0), None
#     Edge 92, Type (0, 0), None
#     Edge 93, Type (0, 0), None
#     Edge 94, Type (0, 0), None
#     Edge 95, Type (0, 0), None
#     Edge 96, Type (0, 0), None
#     Edge 97, Type (0, 0), None
#     Edge 98, Type (0, 0), None
#     Edge 99, Type (0, 0), None
#     Edge 100, Type (0, 0), None
#     Edge 101, Type (0, 0), None
#     Edge 102, Type (0, 0), None
#     Edge 103, Type (0, 0), None
#     Edge 104, Type (0, 0), None
#     Edge 105, Type (0, 0), None
#     Edge 106, Type (0, 0), None
#     Edge 107, Type (0, 0), None
#     Edge 108, Type (0, 0), None
#     Edge 109, Type (0, 0), None
#     Edge 110, Type (0, 0), None
#     Edge 111, Type (0, 0), None
#     Edge 112, Type (0, 0), None
#     Edge 113, Type (0, 0), None
#     Edge 114, Type (0, 0), None
#     Edge 115, Type (0, 0), None
#     Edge 116, Type (0, 0), None
#     Edge 117, Type (0, 0), None
#     Edge 118, Type (0, 0), None
#     Edge 119, Type (0, 0), None
#     Edge 120, Type (0, 0), None
#     Edge 121, Type (0, 0), None
#     Edge 122, Type (0, 0), None
#     Edge 123, Type (0, 0), None
#     Edge 124, Type (0, 0), None
#     Edge 125, Type (0, 0), None
#     Edge 126, Type (0, 0), None
#     Edge 127, Type (0, 0), None
# Relax obj value: 0.085
# Max RMSD: 0.176
# Mean RMSD: 0.176
data_MOF--net-vcc--node1-MIFKUJ_clean_sbu_0--edge1-none
_symmetry_space_group_name_H-M    P1
_symmetry_Int_Tables_number       1
_symmetry_cell_setting            triclinic
loop_
_symmetry_equiv_pos_as_xyz
'x, y, z'
_cell_length_a     25.046615
_cell_length_b     22.002367
_cell_length_c     24.791195
_cell_angle_alpha  89.997844
_cell_angle_beta   90.000066
_cell_angle_gamma 90.003112
loop_
_atom_site_label
_atom_site_type_symbol
_atom_site_fract_x
_atom_site_fract_y
_atom_site_fract_z
_atom_type_partial_charge
Zn0 Zn 0.35577 0.93217 0.15933 0.0
Zn1 Zn 0.36384 -0.00611 0.02136 0.0
C2 C 0.44954 0.93138 0.22503 0.0
O3 O 0.42641 -0.02037 0.24565 0.0
C4 C 0.25793 0.02118 0.99254 0.0
O5 O 0.28299 0.06691 0.9698 0.0
O6 O 0.29877 0.92392 0.2154 0.0
O7 O 0.36775 0.01979 0.14845 0.0
O8 O 0.38107 0.06401 0.06925 0.0
C9 C 0.28294 -0.03015 0.24205 0.0
O10 O 0.30437 0.02335 0.23363 0.0
O11 O 0.42579 0.90107 0.18846 0.0
C12 C 0.37488 0.96505 0.91327 0.0
O13 O 0.3586 0.91389 0.93499 0.0
O14 O 0.38275 0.01094 0.94339 0.0
O15 O 0.40067 0.91579 0.04116 0.0
O16 O 0.33452 0.8863 0.09285 0.0
O17 O 0.28425 -0.01714 0.02022 0.0
C18 C 0.37783 0.06629 0.12041 0.0
C19 C 0.37359 0.87356 0.0626 0.0
Zn20 Zn 0.91066 0.25335 0.16635 0.0
Zn21 Zn 0.90553 0.1926 0.02592 0.0
C22 C 0.8143 0.25645 0.23011 0.0
O23 O 0.83778 0.21151 0.25562 0.0
C24 C 0.01041 0.16714 0.99104 0.0
O25 O 0.9846 0.12279 0.96706 0.0
O26 O 0.96543 0.26221 0.22498 0.0
O27 O 0.9025 0.16504 0.1547 0.0
O28 O 0.89111 0.12209 0.07446 0.0
C29 C 0.97836 0.2172 0.25444 0.0
O30 O 0.95397 0.16486 0.24878 0.0
O31 O 0.83856 0.28316 0.19173 0.0
C32 C 0.88891 0.22467 0.91906 0.0
O33 O 0.90644 0.27496 0.94136 0.0
O34 O 0.88279 0.17759 0.94825 0.0
O35 O 0.86945 0.26995 0.04824 0.0
O36 O 0.93411 0.30111 0.10118 0.0
O37 O 0.98505 0.2039 0.02124 0.0
C38 C 0.89456 0.11877 0.12562 0.0
C39 C 0.89743 0.31267 0.06756 0.0
Zn40 Zn 0.35911 0.25832 0.10392 0.0
Zn41 Zn 0.35249 0.19531 0.24861 0.0
C42 C 0.45287 0.2594 0.04181 0.0
O43 O 0.42847 0.21255 0.02015 0.0
C44 C 0.24693 0.16909 0.28118 0.0
O45 O 0.27301 0.12552 0.3059 0.0
O46 O 0.30772 0.26292 0.04253 0.0
O47 O 0.37064 0.17133 0.11792 0.0
O48 O 0.37161 0.12706 0.1985 0.0
C49 C 0.27665 0.21849 0.03337 0.0
O50 O 0.27569 0.17181 0.06631 0.0
O51 O 0.42989 0.2895 0.07889 0.0
C52 C 0.36768 0.22504 0.35559 0.0
O53 O 0.3485 0.27498 0.33405 0.0
O54 O 0.37446 0.17847 0.32595 0.0
O55 O 0.38929 0.27334 0.23082 0.0
O56 O 0.33325 0.30402 0.16818 0.0
O57 O 0.27246 0.20595 0.2512 0.0
C58 C 0.37624 0.12492 0.14735 0.0
C59 C 0.36974 0.31523 0.20201 0.0
Zn60 Zn 0.91159 0.92746 0.10396 0.0
Zn61 Zn 0.92074 -0.01226 0.25518 0.0
C62 C 0.81706 0.92891 0.04203 0.0
O63 O 0.84111 -0.0234 0.02143 0.0
C64 C 0.02639 -0.00268 0.29877 0.0
O65 O 1.00176 0.03552 0.33094 0.0
O66 O 0.96482 0.92237 0.04356 0.0
O67 O 0.90107 0.01391 0.12029 0.0
O68 O 0.9046 0.0556 0.20219 0.0
C69 C 0.99121 -0.03101 0.02916 0.0
O70 O 0.98587 0.02035 0.05548 0.0
O71 O 0.84054 0.8976 0.07799 0.0
C72 C 0.89353 0.96111 0.36172 0.0
O73 O 0.90851 0.90833 0.34225 0.0
O74 O 0.8946 0.00763 0.3312 0.0
O75 O 0.88233 0.91121 0.23618 0.0
O76 O 0.93469 0.88303 0.1695 0.0
O77 O 1.00054 -0.02819 0.26079 0.0
C78 C 0.89768 0.05937 0.15125 0.0
C79 C 0.89591 0.87274 0.20087 0.0
Zn80 Zn 0.65487 0.94457 1.00075 0.0
Zn81 Zn 0.657 0.00643 0.86006 0.0
C82 C 0.76093 0.91723 0.02953 0.0
O83 O 0.73605 0.87175 0.05285 0.0
C84 C 0.56292 0.00786 0.797 0.0
O85 O 0.58733 0.96134 0.77481 0.0
O86 O 0.63499 0.92693 0.0786 0.0
O87 O 0.61918 0.0231 0.98121 0.0
O88 O 0.68264 0.05145 0.9255 0.0
C89 C 0.64167 -0.02733 0.1092 0.0
O90 O 0.65808 0.02414 0.08817 0.0
O91 O 0.73442 0.95532 1.00183 0.0
C92 C 0.73979 0.96798 0.7886 0.0
O93 O 0.73918 0.91938 0.81927 0.0
O94 O 0.7094 0.01263 0.79931 0.0
O95 O 0.64515 0.91922 0.87193 0.0
O96 O 0.63695 0.87529 0.95211 0.0
O97 O 0.58596 0.03752 0.83443 0.0
C98 C 0.6457 0.06478 0.95828 0.0
C99 C 0.6369 0.87293 0.90084 0.0
Zn100 Zn 0.11562 0.74493 1.00112 0.0
Zn101 Zn 0.11574 0.68069 0.86046 0.0
C102 C 1.00973 0.77225 0.02956 0.0
O103 O 0.03489 0.81644 0.05446 0.0
C104 C 0.21009 0.67467 0.79714 0.0
O105 O 0.18491 0.71803 0.7711 0.0
O106 O 0.13398 0.76197 0.07979 0.0
O107 O 0.15085 0.66595 0.98272 0.0
O108 O 0.08855 0.63661 0.92603 0.0
C109 C 0.12446 0.71663 0.11021 0.0
O110 O 0.10692 0.66597 0.08859 0.0
O111 O 0.03605 0.73497 1.00083 0.0
C112 C 0.03315 0.71996 0.78858 0.0
O113 O 0.03294 0.76768 0.82034 0.0
O114 O 0.06395 0.67542 0.79869 0.0
O115 O 0.12788 0.76788 0.87203 0.0
O116 O 0.1348 0.8134 0.95166 0.0
O117 O 0.18734 0.64858 0.83678 0.0
C118 C 0.12434 0.62391 0.96032 0.0
C119 C 0.13578 0.81473 0.90031 0.0
Zn120 Zn 0.65719 0.74296 0.77451 0.0
Zn121 Zn 0.65928 0.68095 0.9155 0.0
C122 C 0.76333 0.76922 0.74576 0.0
O123 O 0.73852 0.81443 0.72195 0.0
C124 C 0.56737 0.67857 0.9808 0.0
O125 O 0.59175 0.72584 1.00176 0.0
O126 O 0.63704 0.75858 0.69658 0.0
O127 O 0.62022 0.66583 0.7941 0.0
O128 O 0.68269 0.63528 0.85007 0.0
C129 C 0.64436 0.71171 0.66748 0.0
O130 O 0.66258 0.66181 0.68992 0.0
O131 O 0.73672 0.7316 0.77387 0.0
C132 C 0.7427 0.72048 0.98549 0.0
O133 O 0.74071 0.76952 0.95543 0.0
O134 O 0.71298 0.67529 0.97479 0.0
O135 O 0.64604 0.76809 0.90308 0.0
O136 O 0.63861 0.81215 0.82281 0.0
O137 O 0.58971 0.64882 0.9431 0.0
C138 C 0.64462 0.62345 0.81823 0.0
C139 C 0.63758 0.81432 0.87409 0.0
Zn140 Zn 0.11567 0.94276 0.77195 0.0
Zn141 Zn 0.11081 0.0063 0.91224 0.0
C142 C 1.00906 0.91746 0.74544 0.0
O143 O 0.03324 0.87227 0.72097 0.0
C144 C 0.20221 0.00897 0.97861 0.0
O145 O 0.17797 0.96131 0.99904 0.0
O146 O 0.13316 0.9253 0.69329 0.0
O147 O 0.1529 0.02041 0.79029 0.0
O148 O 0.08915 0.05039 0.84512 0.0
C149 C 0.12498 -0.02886 0.66311 0.0
O150 O 0.10885 0.02229 0.68496 0.0
O151 O 0.03631 0.95469 0.77329 0.0
C152 C 0.02805 0.96548 0.9837 0.0
O153 O 0.03379 0.91409 0.9575 0.0
O154 O 0.05521 0.01187 0.97019 0.0
O155 O 0.12537 0.91939 0.90075 0.0
O156 O 0.13481 0.87418 0.82123 0.0
O157 O 0.17981 0.03908 0.94113 0.0
C158 C 0.12826 0.06253 0.81461 0.0
C159 C 0.13504 0.87285 0.87259 0.0
Zn160 Zn 0.34008 0.44649 0.64783 0.0
Zn161 Zn 0.37148 0.50046 0.52548 0.0
C162 C 0.43723 0.45228 0.71715 0.0
O163 O 0.41119 0.48957 0.74899 0.0
C164 C 0.26529 0.52733 0.48679 0.0
O165 O 0.29163 0.56448 0.45505 0.0
O166 O 0.28923 0.43161 0.70825 0.0
O167 O 0.32936 0.53275 0.62775 0.0
O168 O 0.39661 0.56337 0.57901 0.0
C169 C 0.27905 0.47535 0.74008 0.0
O170 O 0.30281 0.52794 0.73353 0.0
O171 O 0.41519 0.4317 0.67471 0.0
C172 C 0.3855 0.46886 0.41829 0.0
O173 O 0.36273 0.42098 0.43992 0.0
O174 O 0.39596 0.51454 0.44803 0.0
O175 O 0.40036 0.41886 0.54619 0.0
O176 O 0.32801 0.38685 0.58792 0.0
O177 O 0.29053 0.49639 0.52189 0.0
C178 C 0.36945 0.56701 0.62213 0.0
C179 C 0.37021 0.37584 0.56139 0.0
Zn180 Zn 0.91413 0.75882 0.6711 0.0
Zn181 Zn 0.9213 0.70115 0.51966 0.0
C182 C 0.81945 0.75728 0.73334 0.0
O183 O 0.84333 0.70953 0.75403 0.0
C184 C 0.02679 0.69093 0.47609 0.0
O185 O 1.00216 0.65189 0.44473 0.0
O186 O 0.96736 0.76306 0.73158 0.0
O187 O 0.90382 0.67227 0.65477 0.0
O188 O 0.90594 0.63262 0.57199 0.0
C189 C 0.99782 0.71825 0.74174 0.0
O190 O 0.99716 0.6701 0.71051 0.0
O191 O 0.84305 0.78846 0.69738 0.0
C192 C 0.89247 0.72755 0.41325 0.0
O193 O 0.90653 0.78074 0.43254 0.0
O194 O 0.89475 0.68115 0.44379 0.0
O195 O 0.88317 0.77765 0.53964 0.0
O196 O 0.93674 0.80442 0.60585 0.0
O197 O 1.00099 0.71726 0.51363 0.0
C198 C 0.9 0.62759 0.62298 0.0
C199 C 0.8977 0.81564 0.57501 0.0
Zn200 Zn 0.34357 0.7432 0.62461 0.0
Zn201 Zn 0.37241 0.69171 0.74814 0.0
C202 C 0.44298 0.73284 0.55783 0.0
O203 O 0.41696 0.69542 0.52607 0.0
C204 C 0.26664 0.66302 0.78585 0.0
O205 O 0.2933 0.62476 0.81625 0.0
O206 O 0.29408 0.75832 0.56316 0.0
O207 O 0.32999 0.65824 0.64638 0.0
O208 O 0.39724 0.62771 0.6952 0.0
C209 C 0.28179 0.71407 0.53268 0.0
O210 O 0.30316 0.6604 0.54063 0.0
O211 O 0.4201 0.75526 0.59917 0.0
C212 C 0.38507 0.72201 0.85634 0.0
O213 O 0.36538 0.77177 0.83498 0.0
O214 O 0.39499 0.67669 0.82598 0.0
O215 O 0.40127 0.77392 0.72779 0.0
O216 O 0.3301 0.80411 0.68298 0.0
O217 O 0.29153 0.69544 0.75154 0.0
C218 C 0.36957 0.62341 0.65245 0.0
C219 C 0.37119 0.81621 0.71082 0.0
Zn220 Zn 0.91076 0.43451 0.60245 0.0
Zn221 Zn 0.91696 0.49339 0.74816 0.0
C222 C 0.81263 0.42805 0.54247 0.0
O223 O 0.83594 0.47071 0.51387 0.0
C224 C 0.02194 0.52061 0.78125 0.0
O225 O 0.99612 0.56561 0.80422 0.0
O226 O 0.96053 0.42982 0.53866 0.0
O227 O 0.90263 0.52221 0.61626 0.0
O228 O 0.90042 0.56275 0.69848 0.0
C229 C 0.99312 0.47317 0.52998 0.0
O230 O 0.99656 0.51838 0.56432 0.0
O231 O 0.83757 0.40388 0.58169 0.0
C232 C 0.90056 0.46325 0.85585 0.0
O233 O 0.91779 0.41235 0.83441 0.0
O234 O 0.89479 0.50977 0.82588 0.0
O235 O 0.88187 0.41488 0.72838 0.0
O236 O 0.93917 0.38729 0.66571 0.0
O237 O 0.99652 0.48296 0.752 0.0
C238 C 0.89806 0.56746 0.64728 0.0
C239 C 0.90504 0.37368 0.70147 0.0
Zn240 Zn 0.64823 0.43631 0.49687 0.0
Zn241 Zn 0.67915 0.4902 0.37451 0.0
C242 C 0.75597 0.41408 0.5338 0.0
O243 O 0.73142 0.37638 0.5665 0.0
C244 C 0.5827 0.48325 0.30342 0.0
O245 O 0.60819 0.44407 0.27293 0.0
O246 O 0.62538 0.42196 0.57477 0.0
O247 O 0.61672 0.51664 0.47608 0.0
O248 O 0.68871 0.55034 0.4348 0.0
C249 C 0.63517 0.46809 0.60418 0.0
O250 O 0.65657 0.5165 0.58206 0.0
O251 O 0.72913 0.44338 0.49881 0.0
C252 C 0.74392 0.46169 0.2848 0.0
O253 O 0.71929 0.40937 0.28966 0.0
O254 O 0.73241 0.50534 0.31627 0.0
O255 O 0.68947 0.40344 0.39389 0.0
O256 O 0.62368 0.37211 0.44432 0.0
O257 O 0.60493 0.50504 0.34528 0.0
C258 C 0.64591 0.56041 0.4607 0.0
C259 C 0.64997 0.36855 0.40064 0.0
Zn260 Zn 0.11698 0.24468 0.50293 0.0
Zn261 Zn 0.10209 0.18215 0.36764 0.0
C262 C 1.0089 0.26864 0.52946 0.0
O263 O 0.03157 0.31697 0.55047 0.0
C264 C 0.19123 0.18119 0.29574 0.0
O265 O 0.16738 0.23009 0.27726 0.0
O266 O 0.13634 0.26091 0.58087 0.0
O267 O 0.15711 0.16907 0.48178 0.0
O268 O 0.08779 0.13643 0.43617 0.0
C269 C 0.13197 0.2135 0.60986 0.0
O270 O 0.11717 0.16223 0.58731 0.0
O271 O 0.03741 0.2303 0.50406 0.0
C272 C 0.02241 0.22258 0.29253 0.0
O273 O 0.04586 0.2753 0.2993 0.0
O274 O 0.03954 0.17583 0.31726 0.0
O275 O 0.11794 0.26921 0.37742 0.0
O276 O 0.13319 0.31524 0.45535 0.0
O277 O 0.16898 0.14993 0.33265 0.0
C278 C 0.13009 0.12564 0.46239 0.0
C279 C 0.12981 0.31611 0.40417 0.0
Zn280 Zn 0.65034 0.24385 0.27455 0.0
Zn281 Zn 0.67236 0.19232 0.40262 0.0
C282 C 0.75776 0.26971 0.24031 0.0
O283 O 0.73277 0.30937 0.20987 0.0
C284 C 0.57178 0.20406 0.46746 0.0
O285 O 0.59779 0.23958 0.50093 0.0
O286 O 0.62976 0.25923 0.19612 0.0
O287 O 0.61906 0.16252 0.2946 0.0
O288 O 0.68531 0.12944 0.34561 0.0
C289 C 0.63839 0.21348 0.16589 0.0
O290 O 0.65627 0.16297 0.1875 0.0
O291 O 0.73123 0.23756 0.27355 0.0
C292 C 0.73572 0.22407 0.493 0.0
O293 O 0.71665 0.27821 0.48214 0.0
O294 O 0.72088 0.17841 0.46542 0.0
O295 O 0.68811 0.27594 0.37826 0.0
O296 O 0.62492 0.30924 0.32586 0.0
O297 O 0.5952 0.18244 0.42614 0.0
C298 C 0.64602 0.11914 0.31461 0.0
C299 C 0.6497 0.31196 0.37046 0.0
Zn300 Zn 0.11254 0.443 0.27373 0.0
Zn301 Zn 0.1132 0.50903 0.41332 0.0
C302 C 1.00625 0.41941 0.2408 0.0
O303 O 0.03099 0.37428 0.21683 0.0
C304 C 0.20859 0.51519 0.47642 0.0
O305 O 0.18396 0.47198 0.5032 0.0
O306 O 0.13306 0.42567 0.19604 0.0
O307 O 0.15143 0.51993 0.29239 0.0
O308 O 0.0882 0.5522 0.34647 0.0
C309 C 0.12654 0.47242 0.1665 0.0
O310 O 0.10982 0.52318 0.18859 0.0
O311 O 0.03272 0.45581 0.27046 0.0
C312 C 0.02746 0.47255 0.48233 0.0
O313 O 0.02529 0.42654 0.44871 0.0
O314 O 0.06034 0.51571 0.47413 0.0
O315 O 0.12411 0.42124 0.40351 0.0
O316 O 0.12867 0.37433 0.32427 0.0
O317 O 0.18513 0.5408 0.43697 0.0
C318 C 0.12606 0.56324 0.31404 0.0
C319 C 0.13049 0.37376 0.37563 0.0
Zn320 Zn 0.8587 0.93195 0.67127 0.0
Zn321 Zn 0.85527 -0.00703 0.52396 0.0
C322 C 0.95302 0.93023 0.73358 0.0
O323 O 0.92958 -0.02232 0.75531 0.0
C324 C 0.74881 0.01694 0.49029 0.0
O325 O 0.77346 0.06159 0.46555 0.0
O326 O 0.80576 0.92585 0.73148 0.0
O327 O 0.86998 0.01923 0.65759 0.0
O328 O 0.87238 0.06089 0.57566 0.0
C329 C 0.77538 -0.02947 0.74212 0.0
O330 O 0.77627 0.01924 0.71159 0.0
O331 O 0.92922 0.90046 0.69684 0.0
C332 C 0.87368 0.96353 0.41729 0.0
O333 O 0.8537 0.91379 0.43845 0.0
O334 O 0.87924 0.01033 0.44696 0.0
O335 O 0.89201 0.91528 0.54279 0.0
O336 O 0.83519 0.88736 0.60575 0.0
O337 O 0.77548 -0.01914 0.52 0.0
C338 C 0.87583 0.06466 0.62691 0.0
C339 C 0.87388 0.87548 0.57471 0.0
Zn340 Zn 0.41536 0.25984 0.65829 0.0
Zn341 Zn 0.40844 0.19715 0.51817 0.0
C342 C 0.32419 0.25951 0.72722 0.0
O343 O 0.34823 0.21104 0.74628 0.0
C344 C 0.5153 0.18912 0.47671 0.0
O345 O 0.49177 0.14956 0.445 0.0
O346 O 0.4759 0.26577 0.71081 0.0
O347 O 0.40126 0.17295 0.6473 0.0
O348 O 0.39385 0.12701 0.56809 0.0
C349 C 0.48841 0.22002 0.73948 0.0
O350 O 0.46075 0.1696 0.73601 0.0
O351 O 0.34687 0.29114 0.69082 0.0
C352 C 0.38465 0.22647 0.41202 0.0
O353 O 0.39843 0.27884 0.4332 0.0
O354 O 0.3847 0.17914 0.44149 0.0
O355 O 0.36719 0.27188 0.53922 0.0
O356 O 0.43302 0.30426 0.59008 0.0
O357 O 0.48836 0.2151 0.51371 0.0
C358 C 0.39274 0.12598 0.61946 0.0
C359 C 0.39185 0.31491 0.56211 0.0
Zn360 Zn 0.85855 0.25689 0.60752 0.0
Zn361 Zn 0.8601 0.19786 0.75378 0.0
C362 C 0.95319 0.25444 0.54257 0.0
O363 O 0.93188 0.20337 0.52561 0.0
C364 C 0.75305 0.1735 0.78147 0.0
O365 O 0.77651 0.12565 0.80243 0.0
O366 O 0.79897 0.26423 0.55403 0.0
O367 O 0.86964 0.16975 0.62187 0.0
O368 O 0.8757 0.12824 0.70355 0.0
C369 C 0.77692 0.21734 0.53399 0.0
O370 O 0.79328 0.1629 0.54773 0.0
O371 O 0.92794 0.28727 0.57623 0.0
C372 C 0.87443 0.22572 0.86182 0.0
O373 O 0.85954 0.27751 0.84025 0.0
O374 O 0.87946 0.17926 0.83168 0.0
O375 O 0.89991 0.27415 0.73484 0.0
O376 O 0.84099 0.30225 0.67426 0.0
O377 O 0.78078 0.21211 0.75552 0.0
C378 C 0.87665 0.12429 0.65223 0.0
C379 C 0.88232 0.31319 0.70182 0.0
Zn380 Zn 0.40994 0.93261 0.6123 0.0
Zn381 Zn 0.40141 -0.00243 0.74899 0.0
C382 C 0.31566 0.92722 0.54594 0.0
O383 O 0.33888 -0.02667 0.52188 0.0
C384 C 0.50704 0.02043 0.78371 0.0
O385 O 0.48181 0.06442 0.80877 0.0
O386 O 0.46841 0.92422 0.5576 0.0
O387 O 0.39902 0.02064 0.62108 0.0
O388 O 0.38705 0.06757 0.69932 0.0
C389 C 0.48038 -0.03114 0.52729 0.0
O390 O 0.4523 0.0191 0.52903 0.0
O391 O 0.33959 0.90008 0.58431 0.0
C392 C 0.38757 0.96606 0.85573 0.0
O393 O 0.40447 0.91577 0.83295 0.0
O394 O 0.38048 0.01319 0.82681 0.0
O395 O 0.36306 0.92072 0.72837 0.0
O396 O 0.43113 0.88953 0.68046 0.0
O397 O 0.48111 -0.01518 0.75287 0.0
C398 C 0.39019 0.06824 0.64803 0.0
C399 C 0.39153 0.87778 0.71036 0.0
Zn400 Zn 0.15249 0.93989 0.49788 0.0
Zn401 Zn 0.18154 -0.00794 0.37602 0.0
C402 C 0.25939 0.91358 0.53456 0.0
O403 O 0.2339 0.87385 0.56451 0.0
C404 C 0.08271 -0.01724 0.30881 0.0
O405 O 0.1095 0.94819 0.27522 0.0
O406 O 0.12998 0.92466 0.57568 0.0
O407 O 0.12203 0.02121 0.47758 0.0
O408 O 0.19333 0.05389 0.43434 0.0
C409 C 0.13848 -0.02932 0.60563 0.0
O410 O 0.15759 0.02059 0.584 0.0
O411 O 0.2334 0.94587 0.501 0.0
C412 C 0.24275 0.96263 0.28391 0.0
O413 O 0.22084 0.90926 0.29189 0.0
O414 O 0.23078 0.00709 0.3143 0.0
O415 O 0.19571 0.90687 0.39731 0.0
O416 O 0.12805 0.87566 0.44499 0.0
O417 O 0.10508 0.00319 0.35116 0.0
C418 C 0.1516 0.06452 0.46178 0.0
C419 C 0.15611 0.87187 0.4025 0.0
Zn420 Zn 0.60541 0.73921 0.5045 0.0
Zn421 Zn 0.5994 0.67611 0.36396 0.0
C422 C 0.49905 0.74836 0.54688 0.0
O423 O 0.52277 0.78937 0.57696 0.0
C424 C 0.69216 0.67834 0.29689 0.0
O425 O 0.66852 0.72725 0.27819 0.0
O426 O 0.6292 0.75724 0.5811 0.0
O427 O 0.64694 0.6644 0.48336 0.0
O428 O 0.58202 0.63086 0.43185 0.0
C429 C 0.62879 0.70999 0.61065 0.0
O430 O 0.61515 0.65759 0.58943 0.0
O431 O 0.52561 0.72112 0.51028 0.0
C432 C 0.52446 0.71767 0.2848 0.0
O433 O 0.55123 0.76859 0.28934 0.0
O434 O 0.53853 0.67098 0.31155 0.0
O435 O 0.61252 0.7629 0.37569 0.0
O436 O 0.61912 0.80977 0.45442 0.0
O437 O 0.66853 0.64569 0.33194 0.0
C438 C 0.6232 0.62096 0.46005 0.0
C439 C 0.62031 0.81035 0.40304 0.0
Zn440 Zn 0.15161 0.74776 0.2757 0.0
Zn441 Zn 0.18133 0.69534 0.39757 0.0
C442 C 0.25879 0.77185 0.23931 0.0
O443 O 0.23378 0.8119 0.2093 0.0
C444 C 0.08301 0.70557 0.46556 0.0
O445 O 0.10979 0.7411 0.49836 0.0
O446 O 0.12966 0.76316 0.19767 0.0
O447 O 0.11963 0.66741 0.29651 0.0
O448 O 0.19137 0.63419 0.33869 0.0
C449 C 0.13774 0.71697 0.16778 0.0
O450 O 0.15585 0.6667 0.18962 0.0
O451 O 0.23241 0.74005 0.27292 0.0
C452 C 0.24371 0.72276 0.48907 0.0
O453 O 0.22215 0.7764 0.48152 0.0
O454 O 0.23135 0.67871 0.45838 0.0
O455 O 0.19543 0.78076 0.37672 0.0
O456 O 0.12816 0.81246 0.32858 0.0
O457 O 0.10522 0.68436 0.42346 0.0
C458 C 0.14851 0.62386 0.31301 0.0
C459 C 0.15605 0.81602 0.37123 0.0
Zn460 Zn 0.61144 0.93875 0.27302 0.0
Zn461 Zn 0.59983 0.00313 0.40991 0.0
C462 C 0.50521 0.9176 0.23856 0.0
O463 O 0.52974 0.87289 0.21378 0.0
C464 C 0.69299 0.00344 0.47709 0.0
O465 O 0.67059 0.95394 0.49612 0.0
O466 O 0.6329 0.92349 0.1951 0.0
O467 O 0.65074 0.01482 0.29452 0.0
O468 O 0.58252 0.0477 0.34146 0.0
C469 C 0.62758 -0.02882 0.16649 0.0
O470 O 0.61136 0.02165 0.18946 0.0
O471 O 0.53181 0.95294 0.26907 0.0
C472 C 0.52615 0.96498 0.49132 0.0
O473 O 0.55428 0.91478 0.48964 0.0
O474 O 0.53903 0.01022 0.46211 0.0
O475 O 0.61214 0.91552 0.40032 0.0
O476 O 0.62546 0.86823 0.32259 0.0
O477 O 0.66872 0.03482 0.4416 0.0
C478 C 0.62359 0.05846 0.31331 0.0
C479 C 0.62188 0.86784 0.37387 0.0
Zn480 Zn 0.8573 0.43258 0.16042 0.0
Zn481 Zn 0.86853 0.49345 0.02041 0.0
C482 C 0.95056 0.43263 0.22691 0.0
O483 O 0.92726 0.48116 0.24676 0.0
C484 C 0.76248 0.52057 0.98902 0.0
O485 O 0.78736 0.56607 0.96574 0.0
O486 O 0.79934 0.42384 0.21538 0.0
O487 O 0.86909 0.5201 0.14954 0.0
O488 O 0.88399 0.56328 0.06995 0.0
C489 C 0.78585 0.4687 0.24463 0.0
O490 O 0.81064 0.5209 0.23983 0.0
O491 O 0.92711 0.40176 0.19048 0.0
C492 C 0.88506 0.46324 0.91286 0.0
O493 O 0.86831 0.41222 0.93446 0.0
O494 O 0.89051 0.50986 0.94272 0.0
O495 O 0.90429 0.41521 0.04187 0.0
O496 O 0.83693 0.38818 0.09308 0.0
O497 O 0.7889 0.48263 0.01704 0.0
C498 C 0.87968 0.56616 0.12109 0.0
C499 C 0.87697 0.37412 0.06467 0.0
Zn500 Zn 0.4101 0.75349 0.16244 0.0
Zn501 Zn 0.40594 0.6922 0.02279 0.0
C502 C 0.315 0.75771 0.22818 0.0
O503 O 0.338 0.71164 0.25253 0.0
C504 C 0.51171 0.66618 0.99467 0.0
O505 O 0.48678 0.62047 0.97177 0.0
O506 O 0.46723 0.76005 0.21885 0.0
O507 O 0.4002 0.66551 0.151 0.0
O508 O 0.38925 0.62186 0.07112 0.0
C509 C 0.47917 0.71454 0.24812 0.0
O510 O 0.45176 0.66397 0.24437 0.0
O511 O 0.33921 0.78474 0.18995 0.0
C512 C 0.39768 0.72187 0.91404 0.0
O513 O 0.41427 0.77256 0.93638 0.0
O514 O 0.38829 0.67601 0.94389 0.0
O515 O 0.36851 0.76976 0.04225 0.0
O516 O 0.4324 0.80045 0.09646 0.0
O517 O 0.4853 0.70423 0.02253 0.0
C518 C 0.39182 0.61904 0.12237 0.0
C519 C 0.39495 0.8124 0.06383 0.0
Zn520 Zn 0.8599 0.75799 0.10383 0.0
Zn521 Zn 0.85434 0.69459 0.25108 0.0
C522 C 0.95359 0.76049 0.04172 0.0
O523 O 0.9292 0.71405 0.01935 0.0
C524 C 0.74851 0.66727 0.28422 0.0
O525 O 0.77446 0.62405 0.30953 0.0
O526 O 0.80788 0.76353 0.0429 0.0
O527 O 0.87202 0.67105 0.11757 0.0
O528 O 0.87313 0.62765 0.19878 0.0
C529 C 0.77845 0.71823 0.03178 0.0
O530 O 0.77993 0.66937 0.06209 0.0
O531 O 0.93053 0.78993 0.07916 0.0
C532 C 0.87222 0.72445 0.35783 0.0
O533 O 0.8511 0.77363 0.33677 0.0
O534 O 0.87857 0.67776 0.32816 0.0
O535 O 0.88969 0.77329 0.23311 0.0
O536 O 0.83399 0.80111 0.16914 0.0
O537 O 0.77423 0.70426 0.25455 0.0
C538 C 0.87778 0.62508 0.14756 0.0
C539 C 0.87122 0.81345 0.20178 0.0
Zn540 Zn 0.40943 0.42744 0.10414 0.0
Zn541 Zn 0.42071 0.48951 0.25297 0.0
C542 C 0.31543 0.42687 0.04216 0.0
O543 O 0.33944 0.47438 0.02117 0.0
C544 C 0.52728 0.50012 0.29161 0.0
O545 O 0.50394 0.54171 0.32132 0.0
O546 O 0.46246 0.42374 0.04387 0.0
O547 O 0.39785 0.51415 0.11797 0.0
O548 O 0.403 0.55666 0.19942 0.0
C549 C 0.49329 0.46865 0.03534 0.0
O550 O 0.49348 0.51507 0.06856 0.0
O551 O 0.33888 0.39606 0.07846 0.0
C552 C 0.40208 0.46553 0.3617 0.0
O553 O 0.41664 0.41259 0.34221 0.0
O554 O 0.39902 0.51097 0.33006 0.0
O555 O 0.38098 0.41304 0.23696 0.0
O556 O 0.43353 0.38502 0.17044 0.0
O557 O 0.50031 0.47214 0.25589 0.0
C558 C 0.39476 0.55987 0.14861 0.0
C559 C 0.39519 0.37419 0.20224 0.0
Zn560 Zn 0.15329 0.44243 1.00148 0.0
Zn561 Zn 0.1674 0.50578 0.86568 0.0
C562 C 0.25931 0.41516 0.02983 0.0
O563 O 0.23449 0.36966 0.05318 0.0
C564 C 0.07733 0.50821 0.79641 0.0
O565 O 0.10169 0.46031 0.77664 0.0
O566 O 0.1336 0.42612 0.07948 0.0
O567 O 0.11697 0.52019 0.98058 0.0
O568 O 0.18608 0.55057 0.93335 0.0
C569 C 0.14018 0.47266 0.10914 0.0
O570 O 0.1563 0.5237 0.08711 0.0
O571 O 0.23273 0.45338 1.00237 0.0
C572 C 0.23894 0.46833 0.78209 0.0
O573 O 0.21454 0.41606 0.78803 0.0
O574 O 0.22586 0.51352 0.81113 0.0
O575 O 0.15296 0.41848 0.87556 0.0
O576 O 0.13608 0.37276 0.95336 0.0
O577 O 0.09914 0.53833 0.83426 0.0
C578 C 0.14536 0.56273 0.96153 0.0
C579 C 0.14088 0.37164 0.90232 0.0
Zn580 Zn 0.61447 0.24561 0.99987 0.0
Zn581 Zn 0.60363 0.18474 0.86089 0.0
C582 C 0.50882 0.27134 0.02898 0.0
O583 O 0.53382 0.31654 0.0526 0.0
C584 C 0.69741 0.18695 0.79518 0.0
O585 O 0.67548 0.23756 0.77802 0.0
O586 O 0.6333 0.26066 0.07878 0.0
O587 O 0.65146 0.16852 0.97859 0.0
O588 O 0.58498 0.13758 0.9276 0.0
C589 C 0.62578 0.21395 0.10813 0.0
O590 O 0.6099 0.16319 0.08541 0.0
O591 O 0.53517 0.23369 1.00066 0.0
C592 C 0.5333 0.2235 0.77663 0.0
O593 O 0.56155 0.27356 0.77937 0.0
O594 O 0.5446 0.17848 0.8067 0.0
O595 O 0.6154 0.27208 0.87275 0.0
O596 O 0.63072 0.31612 0.95169 0.0
O597 O 0.67287 0.15416 0.82945 0.0
C598 C 0.62449 0.12588 0.9577 0.0
C599 C 0.62597 0.31854 0.90058 0.0
Zn600 Zn 0.16281 0.24389 0.77402 0.0
Zn601 Zn 0.16008 0.17967 0.91513 0.0
C602 C 0.26821 0.27091 0.74103 0.0
O603 O 0.24198 0.31412 0.71598 0.0
C604 C 0.06633 0.17873 0.97743 0.0
O605 O 0.0914 0.2249 0.99947 0.0
O606 O 0.14111 0.26008 0.69658 0.0
O607 O 0.12645 0.16577 0.79353 0.0
O608 O 0.18708 0.13382 0.85085 0.0
C609 C 0.14652 0.21328 0.66696 0.0
O610 O 0.16346 0.16237 0.6886 0.0
O611 O 0.24285 0.234 0.77114 0.0
C612 C 0.24229 0.21908 0.986 0.0
O613 O 0.2435 0.26564 0.95293 0.0
O614 O 0.2111 0.17475 0.97685 0.0
O615 O 0.14834 0.26669 0.9023 0.0
O616 O 0.14431 0.31289 0.82291 0.0
O617 O 0.08887 0.14869 0.93997 0.0
C618 C 0.15135 0.12268 0.81616 0.0
C619 C 0.1416 0.31383 0.87415 0.0
Zn620 Zn 0.5989 0.44683 0.76926 0.0
Zn621 Zn 0.61038 0.50998 0.91769 0.0
C622 C 0.49281 0.4359 0.7286 0.0
O623 O 0.51664 0.3954 0.69809 0.0
C624 C 0.70614 0.50921 0.97704 0.0
O625 O 0.68206 0.46197 0.99841 0.0
O626 O 0.62178 0.42583 0.69243 0.0
O627 O 0.63719 0.52409 0.78595 0.0
O628 O 0.58369 0.55195 0.8519 0.0
C629 C 0.61888 0.47137 0.66087 0.0
O630 O 0.60385 0.52415 0.68031 0.0
O631 O 0.51923 0.46304 0.76523 0.0
C632 C 0.52792 0.46909 0.9881 0.0
O633 O 0.52693 0.42305 0.95448 0.0
O634 O 0.55886 0.51387 0.97942 0.0
O635 O 0.62098 0.42339 0.90381 0.0
O636 O 0.61599 0.37985 0.82286 0.0
O637 O 0.68216 0.54061 0.94143 0.0
C638 C 0.62095 0.56369 0.81908 0.0
C639 C 0.62382 0.37726 0.87373 0.0
loop_
_geom_bond_atom_site_label_1
_geom_bond_atom_site_label_2
_geom_bond_distance
_geom_bond_site_symmetry_2
_ccdc_geom_bond_type
Zn0 O6 1.969 . S
Zn0 O7 1.965 1_565 S
Zn0 O11 2.024 1_565 S
Zn0 O16 1.969 . S
Zn1 O8 1.969 1_556 S
Zn1 O14 1.969 . S
Zn1 O15 1.965 1_546 S
Zn1 O17 2.024 1_545 S
C2 O3 1.229 . S
C2 O11 1.058 1_565 S
O3 C2 1.229 . S
C4 O5 1.229 . S
C4 O17 1.058 1_545 S
O5 C4 1.229 . S
O6 Zn0 1.969 . S
O6 C9 1.267 . S
O7 Zn0 1.965 1_545 S
O7 C18 1.260 . S
O8 Zn1 1.969 1_554 S
O8 C18 1.258 . S
C9 O6 1.267 . S
C9 O10 1.228 1_565 S
O10 C9 1.228 1_545 S
O11 Zn0 2.024 1_545 S
O11 C2 1.058 1_545 S
C12 O13 1.228 1_545 S
C12 O14 1.267 . S
O13 C12 1.228 1_565 S
O14 Zn1 1.969 . S
O14 C12 1.267 . S
O15 Zn1 1.965 1_564 S
O15 C19 1.260 . S
O16 Zn0 1.969 . S
O16 C19 1.258 . S
O17 Zn1 2.024 1_565 S
O17 C4 1.058 1_565 S
C18 O7 1.260 . S
C18 O8 1.258 . S
C19 O15 1.260 . S
C19 O16 1.258 . S
Zn20 O26 1.969 . S
Zn20 O27 1.965 . S
Zn20 O31 2.024 . S
Zn20 O36 1.969 . S
Zn21 O28 1.969 1_556 S
Zn21 O34 1.969 . S
Zn21 O35 1.965 1_556 S
Zn21 O37 2.024 1_655 S
C22 O23 1.229 . S
C22 O31 1.058 . S
O23 C22 1.229 . S
C24 O25 1.229 . S
C24 O37 1.058 . S
O25 C24 1.229 . S
O26 Zn20 1.969 . S
O26 C29 1.267 . S
O27 Zn20 1.965 . S
O27 C38 1.260 . S
O28 Zn21 1.969 1_554 S
O28 C38 1.258 . S
C29 O26 1.267 . S
C29 O30 1.228 . S
O30 C29 1.228 . S
O31 Zn20 2.024 . S
O31 C22 1.058 . S
C32 O33 1.228 . S
C32 O34 1.267 . S
O33 C32 1.228 . S
O34 Zn21 1.969 . S
O34 C32 1.267 . S
O35 Zn21 1.965 1_554 S
O35 C39 1.260 . S
O36 Zn20 1.969 . S
O36 C39 1.258 . S
O37 Zn21 2.024 1_455 S
O37 C24 1.058 . S
C38 O27 1.260 . S
C38 O28 1.258 . S
C39 O35 1.260 . S
C39 O36 1.258 . S
Zn40 O46 1.969 . S
Zn40 O47 1.965 . S
Zn40 O51 2.024 . S
Zn40 O56 1.969 . S
Zn41 O48 1.969 . S
Zn41 O54 1.969 . S
Zn41 O55 1.965 . S
Zn41 O57 2.024 . S
C42 O43 1.229 . S
C42 O51 1.058 . S
O43 C42 1.229 . S
C44 O45 1.229 . S
C44 O57 1.058 . S
O45 C44 1.229 . S
O46 Zn40 1.969 . S
O46 C49 1.267 . S
O47 Zn40 1.965 . S
O47 C58 1.260 . S
O48 Zn41 1.969 . S
O48 C58 1.258 . S
C49 O46 1.267 . S
C49 O50 1.228 . S
O50 C49 1.228 . S
O51 Zn40 2.024 . S
O51 C42 1.058 . S
C52 O53 1.228 . S
C52 O54 1.267 . S
O53 C52 1.228 . S
O54 Zn41 1.969 . S
O54 C52 1.267 . S
O55 Zn41 1.965 . S
O55 C59 1.260 . S
O56 Zn40 1.969 . S
O56 C59 1.258 . S
O57 Zn41 2.024 . S
O57 C44 1.058 . S
C58 O47 1.260 . S
C58 O48 1.258 . S
C59 O55 1.260 . S
C59 O56 1.258 . S
Zn60 O66 1.969 . S
Zn60 O67 1.965 1_565 S
Zn60 O71 2.024 1_565 S
Zn60 O76 1.969 . S
Zn61 O68 1.969 . S
Zn61 O74 1.969 . S
Zn61 O75 1.965 1_545 S
Zn61 O77 2.024 1_645 S
C62 O63 1.229 . S
C62 O71 1.058 1_565 S
O63 C62 1.229 . S
C64 O65 1.229 . S
C64 O77 1.058 1_545 S
O65 C64 1.229 . S
O66 Zn60 1.969 . S
O66 C69 1.267 . S
O67 Zn60 1.965 1_545 S
O67 C78 1.260 . S
O68 Zn61 1.969 . S
O68 C78 1.258 . S
C69 O66 1.267 . S
C69 O70 1.228 1_565 S
O70 C69 1.228 1_545 S
O71 Zn60 2.024 1_545 S
O71 C62 1.058 1_545 S
C72 O73 1.228 1_545 S
C72 O74 1.267 . S
O73 C72 1.228 1_565 S
O74 Zn61 1.969 . S
O74 C72 1.267 . S
O75 Zn61 1.965 1_565 S
O75 C79 1.260 . S
O76 Zn60 1.969 . S
O76 C79 1.258 . S
O77 Zn61 2.024 1_465 S
O77 C64 1.058 1_565 S
C78 O67 1.260 . S
C78 O68 1.258 . S
C79 O75 1.260 . S
C79 O76 1.258 . S
Zn80 O86 1.969 . S
Zn80 O87 1.965 1_564 S
Zn80 O91 2.024 1_565 S
Zn80 O96 1.969 1_554 S
Zn81 O88 1.969 . S
Zn81 O94 1.969 . S
Zn81 O95 1.965 1_545 S
Zn81 O97 2.024 1_545 S
C82 O83 1.229 . S
C82 O91 1.058 1_565 S
O83 C82 1.229 . S
C84 O85 1.229 . S
C84 O97 1.058 1_545 S
O85 C84 1.229 . S
O86 Zn80 1.969 . S
O86 C89 1.267 . S
O87 Zn80 1.965 1_546 S
O87 C98 1.260 . S
O88 Zn81 1.969 . S
O88 C98 1.258 . S
C89 O86 1.267 . S
C89 O90 1.228 1_565 S
O90 C89 1.228 1_545 S
O91 Zn80 2.024 1_545 S
O91 C82 1.058 1_545 S
C92 O93 1.228 1_545 S
C92 O94 1.267 . S
O93 C92 1.228 1_565 S
O94 Zn81 1.969 . S
O94 C92 1.267 . S
O95 Zn81 1.965 1_565 S
O95 C99 1.260 . S
O96 Zn80 1.969 1_556 S
O96 C99 1.258 . S
O97 Zn81 2.024 1_565 S
O97 C84 1.058 1_565 S
C98 O87 1.260 . S
C98 O88 1.258 . S
C99 O95 1.260 . S
C99 O96 1.258 . S
Zn100 O106 1.969 . S
Zn100 O107 1.965 1_554 S
Zn100 O111 2.024 1_455 S
Zn100 O116 1.969 1_554 S
Zn101 O108 1.969 . S
Zn101 O114 1.969 . S
Zn101 O115 1.965 . S
Zn101 O117 2.024 . S
C102 O103 1.229 . S
C102 O111 1.058 . S
O103 C102 1.229 . S
C104 O105 1.229 . S
C104 O117 1.058 . S
O105 C104 1.229 . S
O106 Zn100 1.969 . S
O106 C109 1.267 . S
O107 Zn100 1.965 1_556 S
O107 C118 1.260 . S
O108 Zn101 1.969 . S
O108 C118 1.258 . S
C109 O106 1.267 . S
C109 O110 1.228 . S
O110 C109 1.228 . S
O111 Zn100 2.024 1_655 S
O111 C102 1.058 . S
C112 O113 1.228 . S
C112 O114 1.267 . S
O113 C112 1.228 . S
O114 Zn101 1.969 . S
O114 C112 1.267 . S
O115 Zn101 1.965 . S
O115 C119 1.260 . S
O116 Zn100 1.969 1_556 S
O116 C119 1.258 . S
O117 Zn101 2.024 . S
O117 C104 1.058 . S
C118 O107 1.260 . S
C118 O108 1.258 . S
C119 O115 1.260 . S
C119 O116 1.258 . S
Zn120 O126 1.969 . S
Zn120 O127 1.965 . S
Zn120 O131 2.024 . S
Zn120 O136 1.969 . S
Zn121 O128 1.969 . S
Zn121 O134 1.969 . S
Zn121 O135 1.965 . S
Zn121 O137 2.024 . S
C122 O123 1.229 . S
C122 O131 1.058 . S
O123 C122 1.229 . S
C124 O125 1.229 . S
C124 O137 1.058 . S
O125 C124 1.229 . S
O126 Zn120 1.969 . S
O126 C129 1.267 . S
O127 Zn120 1.965 . S
O127 C138 1.260 . S
O128 Zn121 1.969 . S
O128 C138 1.258 . S
C129 O126 1.267 . S
C129 O130 1.228 . S
O130 C129 1.228 . S
O131 Zn120 2.024 . S
O131 C122 1.058 . S
C132 O133 1.228 . S
C132 O134 1.267 . S
O133 C132 1.228 . S
O134 Zn121 1.969 . S
O134 C132 1.267 . S
O135 Zn121 1.965 . S
O135 C139 1.260 . S
O136 Zn120 1.969 . S
O136 C139 1.258 . S
O137 Zn121 2.024 . S
O137 C124 1.058 . S
C138 O127 1.260 . S
C138 O128 1.258 . S
C139 O135 1.260 . S
C139 O136 1.258 . S
Zn140 O146 1.969 . S
Zn140 O147 1.965 1_565 S
Zn140 O151 2.024 1_465 S
Zn140 O156 1.969 . S
Zn141 O148 1.969 . S
Zn141 O154 1.969 . S
Zn141 O155 1.965 1_545 S
Zn141 O157 2.024 1_545 S
C142 O143 1.229 . S
C142 O151 1.058 1_565 S
O143 C142 1.229 . S
C144 O145 1.229 . S
C144 O157 1.058 1_545 S
O145 C144 1.229 . S
O146 Zn140 1.969 . S
O146 C149 1.267 . S
O147 Zn140 1.965 1_545 S
O147 C158 1.260 . S
O148 Zn141 1.969 . S
O148 C158 1.258 . S
C149 O146 1.267 . S
C149 O150 1.228 1_565 S
O150 C149 1.228 1_545 S
O151 Zn140 2.024 1_645 S
O151 C142 1.058 1_545 S
C152 O153 1.228 1_545 S
C152 O154 1.267 . S
O153 C152 1.228 1_565 S
O154 Zn141 1.969 . S
O154 C152 1.267 . S
O155 Zn141 1.965 1_565 S
O155 C159 1.260 . S
O156 Zn140 1.969 . S
O156 C159 1.258 . S
O157 Zn141 2.024 1_565 S
O157 C144 1.058 1_565 S
C158 O147 1.260 . S
C158 O148 1.258 . S
C159 O155 1.260 . S
C159 O156 1.258 . S
Zn160 O166 1.969 . S
Zn160 O167 1.965 . S
Zn160 O171 2.024 . S
Zn160 O176 1.969 . S
Zn161 O168 1.969 . S
Zn161 O174 1.969 . S
Zn161 O175 1.965 . S
Zn161 O177 2.024 . S
C162 O163 1.229 . S
C162 O171 1.058 . S
O163 C162 1.229 . S
C164 O165 1.229 . S
C164 O177 1.058 . S
O165 C164 1.229 . S
O166 Zn160 1.969 . S
O166 C169 1.267 . S
O167 Zn160 1.965 . S
O167 C178 1.260 . S
O168 Zn161 1.969 . S
O168 C178 1.258 . S
C169 O166 1.267 . S
C169 O170 1.228 . S
O170 C169 1.228 . S
O171 Zn160 2.024 . S
O171 C162 1.058 . S
C172 O173 1.228 . S
C172 O174 1.267 . S
O173 C172 1.228 . S
O174 Zn161 1.969 . S
O174 C172 1.267 . S
O175 Zn161 1.965 . S
O175 C179 1.260 . S
O176 Zn160 1.969 . S
O176 C179 1.258 . S
O177 Zn161 2.024 . S
O177 C164 1.058 . S
C178 O167 1.260 . S
C178 O168 1.258 . S
C179 O175 1.260 . S
C179 O176 1.258 . S
Zn180 O186 1.969 . S
Zn180 O187 1.965 . S
Zn180 O191 2.024 . S
Zn180 O196 1.969 . S
Zn181 O188 1.969 . S
Zn181 O194 1.969 . S
Zn181 O195 1.965 . S
Zn181 O197 2.024 1_655 S
C182 O183 1.229 . S
C182 O191 1.058 . S
O183 C182 1.229 . S
C184 O185 1.229 . S
C184 O197 1.058 . S
O185 C184 1.229 . S
O186 Zn180 1.969 . S
O186 C189 1.267 . S
O187 Zn180 1.965 . S
O187 C198 1.260 . S
O188 Zn181 1.969 . S
O188 C198 1.258 . S
C189 O186 1.267 . S
C189 O190 1.228 . S
O190 C189 1.228 . S
O191 Zn180 2.024 . S
O191 C182 1.058 . S
C192 O193 1.228 . S
C192 O194 1.267 . S
O193 C192 1.228 . S
O194 Zn181 1.969 . S
O194 C192 1.267 . S
O195 Zn181 1.965 . S
O195 C199 1.260 . S
O196 Zn180 1.969 . S
O196 C199 1.258 . S
O197 Zn181 2.024 1_455 S
O197 C184 1.058 . S
C198 O187 1.260 . S
C198 O188 1.258 . S
C199 O195 1.260 . S
C199 O196 1.258 . S
Zn200 O206 1.969 . S
Zn200 O207 1.965 . S
Zn200 O211 2.024 . S
Zn200 O216 1.969 . S
Zn201 O208 1.969 . S
Zn201 O214 1.969 . S
Zn201 O215 1.965 . S
Zn201 O217 2.024 . S
C202 O203 1.229 . S
C202 O211 1.058 . S
O203 C202 1.229 . S
C204 O205 1.229 . S
C204 O217 1.058 . S
O205 C204 1.229 . S
O206 Zn200 1.969 . S
O206 C209 1.267 . S
O207 Zn200 1.965 . S
O207 C218 1.260 . S
O208 Zn201 1.969 . S
O208 C218 1.258 . S
C209 O206 1.267 . S
C209 O210 1.228 . S
O210 C209 1.228 . S
O211 Zn200 2.024 . S
O211 C202 1.058 . S
C212 O213 1.228 . S
C212 O214 1.267 . S
O213 C212 1.228 . S
O214 Zn201 1.969 . S
O214 C212 1.267 . S
O215 Zn201 1.965 . S
O215 C219 1.260 . S
O216 Zn200 1.969 . S
O216 C219 1.258 . S
O217 Zn201 2.024 . S
O217 C204 1.058 . S
C218 O207 1.260 . S
C218 O208 1.258 . S
C219 O215 1.260 . S
C219 O216 1.258 . S
Zn220 O226 1.969 . S
Zn220 O227 1.965 . S
Zn220 O231 2.024 . S
Zn220 O236 1.969 . S
Zn221 O228 1.969 . S
Zn221 O234 1.969 . S
Zn221 O235 1.965 . S
Zn221 O237 2.024 1_655 S
C222 O223 1.229 . S
C222 O231 1.058 . S
O223 C222 1.229 . S
C224 O225 1.229 . S
C224 O237 1.058 . S
O225 C224 1.229 . S
O226 Zn220 1.969 . S
O226 C229 1.267 . S
O227 Zn220 1.965 . S
O227 C238 1.260 . S
O228 Zn221 1.969 . S
O228 C238 1.258 . S
C229 O226 1.267 . S
C229 O230 1.228 . S
O230 C229 1.228 . S
O231 Zn220 2.024 . S
O231 C222 1.058 . S
C232 O233 1.228 . S
C232 O234 1.267 . S
O233 C232 1.228 . S
O234 Zn221 1.969 . S
O234 C232 1.267 . S
O235 Zn221 1.965 . S
O235 C239 1.260 . S
O236 Zn220 1.969 . S
O236 C239 1.258 . S
O237 Zn221 2.024 1_455 S
O237 C224 1.058 . S
C238 O227 1.260 . S
C238 O228 1.258 . S
C239 O235 1.260 . S
C239 O236 1.258 . S
Zn240 O246 1.969 . S
Zn240 O247 1.965 . S
Zn240 O251 2.024 . S
Zn240 O256 1.969 . S
Zn241 O248 1.969 . S
Zn241 O254 1.969 . S
Zn241 O255 1.965 . S
Zn241 O257 2.024 . S
C242 O243 1.229 . S
C242 O251 1.058 . S
O243 C242 1.229 . S
C244 O245 1.229 . S
C244 O257 1.058 . S
O245 C244 1.229 . S
O246 Zn240 1.969 . S
O246 C249 1.267 . S
O247 Zn240 1.965 . S
O247 C258 1.260 . S
O248 Zn241 1.969 . S
O248 C258 1.258 . S
C249 O246 1.267 . S
C249 O250 1.228 . S
O250 C249 1.228 . S
O251 Zn240 2.024 . S
O251 C242 1.058 . S
C252 O253 1.228 . S
C252 O254 1.267 . S
O253 C252 1.228 . S
O254 Zn241 1.969 . S
O254 C252 1.267 . S
O255 Zn241 1.965 . S
O255 C259 1.260 . S
O256 Zn240 1.969 . S
O256 C259 1.258 . S
O257 Zn241 2.024 . S
O257 C244 1.058 . S
C258 O247 1.260 . S
C258 O248 1.258 . S
C259 O255 1.260 . S
C259 O256 1.258 . S
Zn260 O266 1.969 . S
Zn260 O267 1.965 . S
Zn260 O271 2.024 1_455 S
Zn260 O276 1.969 . S
Zn261 O268 1.969 . S
Zn261 O274 1.969 . S
Zn261 O275 1.965 . S
Zn261 O277 2.024 . S
C262 O263 1.229 . S
C262 O271 1.058 . S
O263 C262 1.229 . S
C264 O265 1.229 . S
C264 O277 1.058 . S
O265 C264 1.229 . S
O266 Zn260 1.969 . S
O266 C269 1.267 . S
O267 Zn260 1.965 . S
O267 C278 1.260 . S
O268 Zn261 1.969 . S
O268 C278 1.258 . S
C269 O266 1.267 . S
C269 O270 1.228 . S
O270 C269 1.228 . S
O271 Zn260 2.024 1_655 S
O271 C262 1.058 . S
C272 O273 1.228 . S
C272 O274 1.267 . S
O273 C272 1.228 . S
O274 Zn261 1.969 . S
O274 C272 1.267 . S
O275 Zn261 1.965 . S
O275 C279 1.260 . S
O276 Zn260 1.969 . S
O276 C279 1.258 . S
O277 Zn261 2.024 . S
O277 C264 1.058 . S
C278 O267 1.260 . S
C278 O268 1.258 . S
C279 O275 1.260 . S
C279 O276 1.258 . S
Zn280 O286 1.969 . S
Zn280 O287 1.965 . S
Zn280 O291 2.024 . S
Zn280 O296 1.969 . S
Zn281 O288 1.969 . S
Zn281 O294 1.969 . S
Zn281 O295 1.965 . S
Zn281 O297 2.024 . S
C282 O283 1.229 . S
C282 O291 1.058 . S
O283 C282 1.229 . S
C284 O285 1.229 . S
C284 O297 1.058 . S
O285 C284 1.229 . S
O286 Zn280 1.969 . S
O286 C289 1.267 . S
O287 Zn280 1.965 . S
O287 C298 1.260 . S
O288 Zn281 1.969 . S
O288 C298 1.258 . S
C289 O286 1.267 . S
C289 O290 1.228 . S
O290 C289 1.228 . S
O291 Zn280 2.024 . S
O291 C282 1.058 . S
C292 O293 1.228 . S
C292 O294 1.267 . S
O293 C292 1.228 . S
O294 Zn281 1.969 . S
O294 C292 1.267 . S
O295 Zn281 1.965 . S
O295 C299 1.260 . S
O296 Zn280 1.969 . S
O296 C299 1.258 . S
O297 Zn281 2.024 . S
O297 C284 1.058 . S
C298 O287 1.260 . S
C298 O288 1.258 . S
C299 O295 1.260 . S
C299 O296 1.258 . S
Zn300 O306 1.969 . S
Zn300 O307 1.965 . S
Zn300 O311 2.024 1_455 S
Zn300 O316 1.969 . S
Zn301 O308 1.969 . S
Zn301 O314 1.969 . S
Zn301 O315 1.965 . S
Zn301 O317 2.024 . S
C302 O303 1.229 . S
C302 O311 1.058 . S
O303 C302 1.229 . S
C304 O305 1.229 . S
C304 O317 1.058 . S
O305 C304 1.229 . S
O306 Zn300 1.969 . S
O306 C309 1.267 . S
O307 Zn300 1.965 . S
O307 C318 1.260 . S
O308 Zn301 1.969 . S
O308 C318 1.258 . S
C309 O306 1.267 . S
C309 O310 1.228 . S
O310 C309 1.228 . S
O311 Zn300 2.024 1_655 S
O311 C302 1.058 . S
C312 O313 1.228 . S
C312 O314 1.267 . S
O313 C312 1.228 . S
O314 Zn301 1.969 . S
O314 C312 1.267 . S
O315 Zn301 1.965 . S
O315 C319 1.260 . S
O316 Zn300 1.969 . S
O316 C319 1.258 . S
O317 Zn301 2.024 . S
O317 C304 1.058 . S
C318 O307 1.260 . S
C318 O308 1.258 . S
C319 O315 1.260 . S
C319 O316 1.258 . S
Zn320 O326 1.969 . S
Zn320 O327 1.965 1_565 S
Zn320 O331 2.024 1_565 S
Zn320 O336 1.969 . S
Zn321 O328 1.969 . S
Zn321 O334 1.969 . S
Zn321 O335 1.965 1_545 S
Zn321 O337 2.024 1_545 S
C322 O323 1.229 . S
C322 O331 1.058 1_565 S
O323 C322 1.229 . S
C324 O325 1.229 . S
C324 O337 1.058 1_545 S
O325 C324 1.229 . S
O326 Zn320 1.969 . S
O326 C329 1.267 . S
O327 Zn320 1.965 1_545 S
O327 C338 1.260 . S
O328 Zn321 1.969 . S
O328 C338 1.258 . S
C329 O326 1.267 . S
C329 O330 1.228 1_565 S
O330 C329 1.228 1_545 S
O331 Zn320 2.024 1_545 S
O331 C322 1.058 1_545 S
C332 O333 1.228 1_545 S
C332 O334 1.267 . S
O333 C332 1.228 1_565 S
O334 Zn321 1.969 . S
O334 C332 1.267 . S
O335 Zn321 1.965 1_565 S
O335 C339 1.260 . S
O336 Zn320 1.969 . S
O336 C339 1.258 . S
O337 Zn321 2.024 1_565 S
O337 C324 1.058 1_565 S
C338 O327 1.260 . S
C338 O328 1.258 . S
C339 O335 1.260 . S
C339 O336 1.258 . S
Zn340 O346 1.969 . S
Zn340 O347 1.965 . S
Zn340 O351 2.024 . S
Zn340 O356 1.969 . S
Zn341 O348 1.969 . S
Zn341 O354 1.969 . S
Zn341 O355 1.965 . S
Zn341 O357 2.024 . S
C342 O343 1.229 . S
C342 O351 1.058 . S
O343 C342 1.229 . S
C344 O345 1.229 . S
C344 O357 1.058 . S
O345 C344 1.229 . S
O346 Zn340 1.969 . S
O346 C349 1.267 . S
O347 Zn340 1.965 . S
O347 C358 1.260 . S
O348 Zn341 1.969 . S
O348 C358 1.258 . S
C349 O346 1.267 . S
C349 O350 1.228 . S
O350 C349 1.228 . S
O351 Zn340 2.024 . S
O351 C342 1.058 . S
C352 O353 1.228 . S
C352 O354 1.267 . S
O353 C352 1.228 . S
O354 Zn341 1.969 . S
O354 C352 1.267 . S
O355 Zn341 1.965 . S
O355 C359 1.260 . S
O356 Zn340 1.969 . S
O356 C359 1.258 . S
O357 Zn341 2.024 . S
O357 C344 1.058 . S
C358 O347 1.260 . S
C358 O348 1.258 . S
C359 O355 1.260 . S
C359 O356 1.258 . S
Zn360 O366 1.969 . S
Zn360 O367 1.965 . S
Zn360 O371 2.024 . S
Zn360 O376 1.969 . S
Zn361 O368 1.969 . S
Zn361 O374 1.969 . S
Zn361 O375 1.965 . S
Zn361 O377 2.024 . S
C362 O363 1.229 . S
C362 O371 1.058 . S
O363 C362 1.229 . S
C364 O365 1.229 . S
C364 O377 1.058 . S
O365 C364 1.229 . S
O366 Zn360 1.969 . S
O366 C369 1.267 . S
O367 Zn360 1.965 . S
O367 C378 1.260 . S
O368 Zn361 1.969 . S
O368 C378 1.258 . S
C369 O366 1.267 . S
C369 O370 1.228 . S
O370 C369 1.228 . S
O371 Zn360 2.024 . S
O371 C362 1.058 . S
C372 O373 1.228 . S
C372 O374 1.267 . S
O373 C372 1.228 . S
O374 Zn361 1.969 . S
O374 C372 1.267 . S
O375 Zn361 1.965 . S
O375 C379 1.260 . S
O376 Zn360 1.969 . S
O376 C379 1.258 . S
O377 Zn361 2.024 . S
O377 C364 1.058 . S
C378 O367 1.260 . S
C378 O368 1.258 . S
C379 O375 1.260 . S
C379 O376 1.258 . S
Zn380 O386 1.969 . S
Zn380 O387 1.965 1_565 S
Zn380 O391 2.024 1_565 S
Zn380 O396 1.969 . S
Zn381 O388 1.969 . S
Zn381 O394 1.969 . S
Zn381 O395 1.965 1_545 S
Zn381 O397 2.024 1_545 S
C382 O383 1.229 . S
C382 O391 1.058 1_565 S
O383 C382 1.229 . S
C384 O385 1.229 . S
C384 O397 1.058 1_545 S
O385 C384 1.229 . S
O386 Zn380 1.969 . S
O386 C389 1.267 . S
O387 Zn380 1.965 1_545 S
O387 C398 1.260 . S
O388 Zn381 1.969 . S
O388 C398 1.258 . S
C389 O386 1.267 . S
C389 O390 1.228 1_565 S
O390 C389 1.228 1_545 S
O391 Zn380 2.024 1_545 S
O391 C382 1.058 1_545 S
C392 O393 1.228 1_545 S
C392 O394 1.267 . S
O393 C392 1.228 1_565 S
O394 Zn381 1.969 . S
O394 C392 1.267 . S
O395 Zn381 1.965 1_565 S
O395 C399 1.260 . S
O396 Zn380 1.969 . S
O396 C399 1.258 . S
O397 Zn381 2.024 1_565 S
O397 C384 1.058 1_565 S
C398 O387 1.260 . S
C398 O388 1.258 . S
C399 O395 1.260 . S
C399 O396 1.258 . S
Zn400 O406 1.969 . S
Zn400 O407 1.965 1_565 S
Zn400 O411 2.024 1_565 S
Zn400 O416 1.969 . S
Zn401 O408 1.969 . S
Zn401 O414 1.969 . S
Zn401 O415 1.965 1_545 S
Zn401 O417 2.024 1_545 S
C402 O403 1.229 . S
C402 O411 1.058 1_565 S
O403 C402 1.229 . S
C404 O405 1.229 . S
C404 O417 1.058 1_545 S
O405 C404 1.229 . S
O406 Zn400 1.969 . S
O406 C409 1.267 . S
O407 Zn400 1.965 1_545 S
O407 C418 1.260 . S
O408 Zn401 1.969 . S
O408 C418 1.258 . S
C409 O406 1.267 . S
C409 O410 1.228 1_565 S
O410 C409 1.228 1_545 S
O411 Zn400 2.024 1_545 S
O411 C402 1.058 1_545 S
C412 O413 1.228 1_545 S
C412 O414 1.267 . S
O413 C412 1.228 1_565 S
O414 Zn401 1.969 . S
O414 C412 1.267 . S
O415 Zn401 1.965 1_565 S
O415 C419 1.260 . S
O416 Zn400 1.969 . S
O416 C419 1.258 . S
O417 Zn401 2.024 1_565 S
O417 C404 1.058 1_565 S
C418 O407 1.260 . S
C418 O408 1.258 . S
C419 O415 1.260 . S
C419 O416 1.258 . S
Zn420 O426 1.969 . S
Zn420 O427 1.965 . S
Zn420 O431 2.024 . S
Zn420 O436 1.969 . S
Zn421 O428 1.969 . S
Zn421 O434 1.969 . S
Zn421 O435 1.965 . S
Zn421 O437 2.024 . S
C422 O423 1.229 . S
C422 O431 1.058 . S
O423 C422 1.229 . S
C424 O425 1.229 . S
C424 O437 1.058 . S
O425 C424 1.229 . S
O426 Zn420 1.969 . S
O426 C429 1.267 . S
O427 Zn420 1.965 . S
O427 C438 1.260 . S
O428 Zn421 1.969 . S
O428 C438 1.258 . S
C429 O426 1.267 . S
C429 O430 1.228 . S
O430 C429 1.228 . S
O431 Zn420 2.024 . S
O431 C422 1.058 . S
C432 O433 1.228 . S
C432 O434 1.267 . S
O433 C432 1.228 . S
O434 Zn421 1.969 . S
O434 C432 1.267 . S
O435 Zn421 1.965 . S
O435 C439 1.260 . S
O436 Zn420 1.969 . S
O436 C439 1.258 . S
O437 Zn421 2.024 . S
O437 C424 1.058 . S
C438 O427 1.260 . S
C438 O428 1.258 . S
C439 O435 1.260 . S
C439 O436 1.258 . S
Zn440 O446 1.969 . S
Zn440 O447 1.965 . S
Zn440 O451 2.024 . S
Zn440 O456 1.969 . S
Zn441 O448 1.969 . S
Zn441 O454 1.969 . S
Zn441 O455 1.965 . S
Zn441 O457 2.024 . S
C442 O443 1.229 . S
C442 O451 1.058 . S
O443 C442 1.229 . S
C444 O445 1.229 . S
C444 O457 1.058 . S
O445 C444 1.229 . S
O446 Zn440 1.969 . S
O446 C449 1.267 . S
O447 Zn440 1.965 . S
O447 C458 1.260 . S
O448 Zn441 1.969 . S
O448 C458 1.258 . S
C449 O446 1.267 . S
C449 O450 1.228 . S
O450 C449 1.228 . S
O451 Zn440 2.024 . S
O451 C442 1.058 . S
C452 O453 1.228 . S
C452 O454 1.267 . S
O453 C452 1.228 . S
O454 Zn441 1.969 . S
O454 C452 1.267 . S
O455 Zn441 1.965 . S
O455 C459 1.260 . S
O456 Zn440 1.969 . S
O456 C459 1.258 . S
O457 Zn441 2.024 . S
O457 C444 1.058 . S
C458 O447 1.260 . S
C458 O448 1.258 . S
C459 O455 1.260 . S
C459 O456 1.258 . S
Zn460 O466 1.969 . S
Zn460 O467 1.965 1_565 S
Zn460 O471 2.024 1_565 S
Zn460 O476 1.969 . S
Zn461 O468 1.969 . S
Zn461 O474 1.969 . S
Zn461 O475 1.965 1_545 S
Zn461 O477 2.024 1_545 S
C462 O463 1.229 . S
C462 O471 1.058 1_565 S
O463 C462 1.229 . S
C464 O465 1.229 . S
C464 O477 1.058 1_545 S
O465 C464 1.229 . S
O466 Zn460 1.969 . S
O466 C469 1.267 . S
O467 Zn460 1.965 1_545 S
O467 C478 1.260 . S
O468 Zn461 1.969 . S
O468 C478 1.258 . S
C469 O466 1.267 . S
C469 O470 1.228 1_565 S
O470 C469 1.228 1_545 S
O471 Zn460 2.024 1_545 S
O471 C462 1.058 1_545 S
C472 O473 1.228 1_545 S
C472 O474 1.267 . S
O473 C472 1.228 1_565 S
O474 Zn461 1.969 . S
O474 C472 1.267 . S
O475 Zn461 1.965 1_565 S
O475 C479 1.260 . S
O476 Zn460 1.969 . S
O476 C479 1.258 . S
O477 Zn461 2.024 1_565 S
O477 C464 1.058 1_565 S
C478 O467 1.260 . S
C478 O468 1.258 . S
C479 O475 1.260 . S
C479 O476 1.258 . S
Zn480 O486 1.969 . S
Zn480 O487 1.965 . S
Zn480 O491 2.024 . S
Zn480 O496 1.969 . S
Zn481 O488 1.969 1_556 S
Zn481 O494 1.969 . S
Zn481 O495 1.965 1_556 S
Zn481 O497 2.024 . S
C482 O483 1.229 . S
C482 O491 1.058 . S
O483 C482 1.229 . S
C484 O485 1.229 . S
C484 O497 1.058 . S
O485 C484 1.229 . S
O486 Zn480 1.969 . S
O486 C489 1.267 . S
O487 Zn480 1.965 . S
O487 C498 1.260 . S
O488 Zn481 1.969 1_554 S
O488 C498 1.258 . S
C489 O486 1.267 . S
C489 O490 1.228 . S
O490 C489 1.228 . S
O491 Zn480 2.024 . S
O491 C482 1.058 . S
C492 O493 1.228 . S
C492 O494 1.267 . S
O493 C492 1.228 . S
O494 Zn481 1.969 . S
O494 C492 1.267 . S
O495 Zn481 1.965 1_554 S
O495 C499 1.260 . S
O496 Zn480 1.969 . S
O496 C499 1.258 . S
O497 Zn481 2.024 . S
O497 C484 1.058 . S
C498 O487 1.260 . S
C498 O488 1.258 . S
C499 O495 1.260 . S
C499 O496 1.258 . S
Zn500 O506 1.969 . S
Zn500 O507 1.965 . S
Zn500 O511 2.024 . S
Zn500 O516 1.969 . S
Zn501 O508 1.969 1_556 S
Zn501 O514 1.969 . S
Zn501 O515 1.965 1_556 S
Zn501 O517 2.024 . S
C502 O503 1.229 . S
C502 O511 1.058 . S
O503 C502 1.229 . S
C504 O505 1.229 . S
C504 O517 1.058 . S
O505 C504 1.229 . S
O506 Zn500 1.969 . S
O506 C509 1.267 . S
O507 Zn500 1.965 . S
O507 C518 1.260 . S
O508 Zn501 1.969 1_554 S
O508 C518 1.258 . S
C509 O506 1.267 . S
C509 O510 1.228 . S
O510 C509 1.228 . S
O511 Zn500 2.024 . S
O511 C502 1.058 . S
C512 O513 1.228 . S
C512 O514 1.267 . S
O513 C512 1.228 . S
O514 Zn501 1.969 . S
O514 C512 1.267 . S
O515 Zn501 1.965 1_554 S
O515 C519 1.260 . S
O516 Zn500 1.969 . S
O516 C519 1.258 . S
O517 Zn501 2.024 . S
O517 C504 1.058 . S
C518 O507 1.260 . S
C518 O508 1.258 . S
C519 O515 1.260 . S
C519 O516 1.258 . S
Zn520 O526 1.969 . S
Zn520 O527 1.965 . S
Zn520 O531 2.024 . S
Zn520 O536 1.969 . S
Zn521 O528 1.969 . S
Zn521 O534 1.969 . S
Zn521 O535 1.965 . S
Zn521 O537 2.024 . S
C522 O523 1.229 . S
C522 O531 1.058 . S
O523 C522 1.229 . S
C524 O525 1.229 . S
C524 O537 1.058 . S
O525 C524 1.229 . S
O526 Zn520 1.969 . S
O526 C529 1.267 . S
O527 Zn520 1.965 . S
O527 C538 1.260 . S
O528 Zn521 1.969 . S
O528 C538 1.258 . S
C529 O526 1.267 . S
C529 O530 1.228 . S
O530 C529 1.228 . S
O531 Zn520 2.024 . S
O531 C522 1.058 . S
C532 O533 1.228 . S
C532 O534 1.267 . S
O533 C532 1.228 . S
O534 Zn521 1.969 . S
O534 C532 1.267 . S
O535 Zn521 1.965 . S
O535 C539 1.260 . S
O536 Zn520 1.969 . S
O536 C539 1.258 . S
O537 Zn521 2.024 . S
O537 C524 1.058 . S
C538 O527 1.260 . S
C538 O528 1.258 . S
C539 O535 1.260 . S
C539 O536 1.258 . S
Zn540 O546 1.969 . S
Zn540 O547 1.965 . S
Zn540 O551 2.024 . S
Zn540 O556 1.969 . S
Zn541 O548 1.969 . S
Zn541 O554 1.969 . S
Zn541 O555 1.965 . S
Zn541 O557 2.024 . S
C542 O543 1.229 . S
C542 O551 1.058 . S
O543 C542 1.229 . S
C544 O545 1.229 . S
C544 O557 1.058 . S
O545 C544 1.229 . S
O546 Zn540 1.969 . S
O546 C549 1.267 . S
O547 Zn540 1.965 . S
O547 C558 1.260 . S
O548 Zn541 1.969 . S
O548 C558 1.258 . S
C549 O546 1.267 . S
C549 O550 1.228 . S
O550 C549 1.228 . S
O551 Zn540 2.024 . S
O551 C542 1.058 . S
C552 O553 1.228 . S
C552 O554 1.267 . S
O553 C552 1.228 . S
O554 Zn541 1.969 . S
O554 C552 1.267 . S
O555 Zn541 1.965 . S
O555 C559 1.260 . S
O556 Zn540 1.969 . S
O556 C559 1.258 . S
O557 Zn541 2.024 . S
O557 C544 1.058 . S
C558 O547 1.260 . S
C558 O548 1.258 . S
C559 O555 1.260 . S
C559 O556 1.258 . S
Zn560 O566 1.969 . S
Zn560 O567 1.965 1_554 S
Zn560 O571 2.024 . S
Zn560 O576 1.969 1_554 S
Zn561 O568 1.969 . S
Zn561 O574 1.969 . S
Zn561 O575 1.965 . S
Zn561 O577 2.024 . S
C562 O563 1.229 . S
C562 O571 1.058 . S
O563 C562 1.229 . S
C564 O565 1.229 . S
C564 O577 1.058 . S
O565 C564 1.229 . S
O566 Zn560 1.969 . S
O566 C569 1.267 . S
O567 Zn560 1.965 1_556 S
O567 C578 1.260 . S
O568 Zn561 1.969 . S
O568 C578 1.258 . S
C569 O566 1.267 . S
C569 O570 1.228 . S
O570 C569 1.228 . S
O571 Zn560 2.024 . S
O571 C562 1.058 . S
C572 O573 1.228 . S
C572 O574 1.267 . S
O573 C572 1.228 . S
O574 Zn561 1.969 . S
O574 C572 1.267 . S
O575 Zn561 1.965 . S
O575 C579 1.260 . S
O576 Zn560 1.969 1_556 S
O576 C579 1.258 . S
O577 Zn561 2.024 . S
O577 C564 1.058 . S
C578 O567 1.260 . S
C578 O568 1.258 . S
C579 O575 1.260 . S
C579 O576 1.258 . S
Zn580 O586 1.969 . S
Zn580 O587 1.965 1_554 S
Zn580 O591 2.024 . S
Zn580 O596 1.969 1_554 S
Zn581 O588 1.969 . S
Zn581 O594 1.969 . S
Zn581 O595 1.965 . S
Zn581 O597 2.024 . S
C582 O583 1.229 . S
C582 O591 1.058 . S
O583 C582 1.229 . S
C584 O585 1.229 . S
C584 O597 1.058 . S
O585 C584 1.229 . S
O586 Zn580 1.969 . S
O586 C589 1.267 . S
O587 Zn580 1.965 1_556 S
O587 C598 1.260 . S
O588 Zn581 1.969 . S
O588 C598 1.258 . S
C589 O586 1.267 . S
C589 O590 1.228 . S
O590 C589 1.228 . S
O591 Zn580 2.024 . S
O591 C582 1.058 . S
C592 O593 1.228 . S
C592 O594 1.267 . S
O593 C592 1.228 . S
O594 Zn581 1.969 . S
O594 C592 1.267 . S
O595 Zn581 1.965 . S
O595 C599 1.260 . S
O596 Zn580 1.969 1_556 S
O596 C599 1.258 . S
O597 Zn581 2.024 . S
O597 C584 1.058 . S
C598 O587 1.260 . S
C598 O588 1.258 . S
C599 O595 1.260 . S
C599 O596 1.258 . S
Zn600 O606 1.969 . S
Zn600 O607 1.965 . S
Zn600 O611 2.024 . S
Zn600 O616 1.969 . S
Zn601 O608 1.969 . S
Zn601 O614 1.969 . S
Zn601 O615 1.965 . S
Zn601 O617 2.024 . S
C602 O603 1.229 . S
C602 O611 1.058 . S
O603 C602 1.229 . S
C604 O605 1.229 . S
C604 O617 1.058 . S
O605 C604 1.229 . S
O606 Zn600 1.969 . S
O606 C609 1.267 . S
O607 Zn600 1.965 . S
O607 C618 1.260 . S
O608 Zn601 1.969 . S
O608 C618 1.258 . S
C609 O606 1.267 . S
C609 O610 1.228 . S
O610 C609 1.228 . S
O611 Zn600 2.024 . S
O611 C602 1.058 . S
C612 O613 1.228 . S
C612 O614 1.267 . S
O613 C612 1.228 . S
O614 Zn601 1.969 . S
O614 C612 1.267 . S
O615 Zn601 1.965 . S
O615 C619 1.260 . S
O616 Zn600 1.969 . S
O616 C619 1.258 . S
O617 Zn601 2.024 . S
O617 C604 1.058 . S
C618 O607 1.260 . S
C618 O608 1.258 . S
C619 O615 1.260 . S
C619 O616 1.258 . S
Zn620 O626 1.969 . S
Zn620 O627 1.965 . S
Zn620 O631 2.024 . S
Zn620 O636 1.969 . S
Zn621 O628 1.969 . S
Zn621 O634 1.969 . S
Zn621 O635 1.965 . S
Zn621 O637 2.024 . S
C622 O623 1.229 . S
C622 O631 1.058 . S
O623 C622 1.229 . S
C624 O625 1.229 . S
C624 O637 1.058 . S
O625 C624 1.229 . S
O626 Zn620 1.969 . S
O626 C629 1.267 . S
O627 Zn620 1.965 . S
O627 C638 1.260 . S
O628 Zn621 1.969 . S
O628 C638 1.258 . S
C629 O626 1.267 . S
C629 O630 1.228 . S
O630 C629 1.228 . S
O631 Zn620 2.024 . S
O631 C622 1.058 . S
C632 O633 1.228 . S
C632 O634 1.267 . S
O633 C632 1.228 . S
O634 Zn621 1.969 . S
O634 C632 1.267 . S
O635 Zn621 1.965 . S
O635 C639 1.260 . S
O636 Zn620 1.969 . S
O636 C639 1.258 . S
O637 Zn621 2.024 . S
O637 C624 1.058 . S
C638 O627 1.260 . S
C638 O628 1.258 . S
C639 O635 1.260 . S
C639 O636 1.258 . S
C519 C19 1.804 . S
C499 C39 1.804 . S
C559 C59 1.804 . S
C539 C79 1.804 . S
C98 C598 1.804 . S
C118 C578 1.804 . S
C138 C638 1.804 . S
C618 C158 1.804 . S
C359 C179 1.804 . S
C339 C199 1.804 . S
C399 C219 1.804 . S
C379 C239 1.805 . S
C258 C438 1.804 . S
C418 C278 1.804 . S
C298 C478 1.804 . S
C458 C318 1.805 . S
C9 C412 1.791 1_565 S
C272 C29 1.791 1_455 S
C612 C49 1.791 1_556 S
C69 C152 1.791 1_664 S
C92 C329 1.791 1_545 S
C112 C189 1.791 1_455 S
C132 C529 1.791 1_556 S
C572 C169 1.791 . S
C452 C209 1.791 . S
C312 C229 1.791 1_455 S
C489 C252 1.791 . S
C292 C369 1.791 . S
C592 C349 1.791 . S
C389 C472 1.791 1_565 S
C509 C432 1.791 . S
C549 C632 1.791 1_554 S
C12 C392 1.497 . S
C32 C372 1.497 . S
C52 C352 1.497 . S
C72 C332 1.497 . S
C89 C469 1.497 . S
C109 C449 1.497 . S
C129 C429 1.497 . S
C149 C409 1.497 . S
C172 C552 1.497 . S
C192 C532 1.497 . S
C212 C512 1.497 . S
C232 C492 1.497 . S
C629 C249 1.497 . S
C609 C269 1.497 . S
C589 C289 1.497 . S
C569 C309 1.497 . S
C58 C18 2.346 . S
C78 C38 2.345 . S
C139 C99 2.346 . S
C119 C159 2.345 . S
C218 C178 2.346 . S
C198 C238 2.345 . S
C299 C259 2.346 . S
C279 C319 2.345 . S
C338 C378 2.346 . S
C358 C398 2.345 . S
C459 C419 2.346 . S
C439 C479 2.345 . S
C498 C538 2.346 . S
C558 C518 2.345 . S
C579 C619 2.346 . S
C599 C639 2.345 . S
C4 C144 1.267 . S
C604 C24 1.267 . S
C44 C264 1.267 . S
C64 C404 1.267 . S
C62 C82 1.267 . S
C102 C522 1.267 . S
C182 C122 1.267 . S
C322 C142 1.267 . S
C164 C304 1.267 . S
C444 C184 1.267 . S
C204 C104 1.267 . S
C564 C224 1.267 . S
C242 C222 1.267 . S
C262 C362 1.267 . S
C282 C22 1.267 . S
C482 C302 1.267 . S
C324 C464 1.267 . S
C344 C284 1.267 . S
C364 C584 1.267 . S
C384 C84 1.267 . S
C402 C382 1.267 . S
C202 C422 1.267 . S
C502 C442 1.267 . S
C462 C2 1.267 . S
C624 C484 1.267 . S
C124 C504 1.267 . S
C424 C524 1.267 . S
C544 C244 1.268 . S
C542 C562 1.267 . S
C42 C582 1.267 . S
C342 C602 1.267 . S
C622 C162 1.268 . S
