# Generated by pormake.
# Topology sof, (5)-cn, num edge types: 1
# Building blocks:
#     Node 0, Type 0, BuildingBlock: XOMCOT_clean_sbu_0, # of connection points: 5
#     Node 1, Type 0, BuildingBlock: XOMCOT_clean_sbu_0, # of connection points: 5
#     Node 2, Type 0, BuildingBlock: XOMCOT_clean_sbu_0, # of connection points: 5
#     Node 3, Type 0, BuildingBlock: XOMCOT_clean_sbu_0, # of connection points: 5
#     Node 4, Type 0, BuildingBlock: XOMCOT_clean_sbu_0, # of connection points: 5
#     Node 5, Type 0, BuildingBlock: XOMCOT_clean_sbu_0, # of connection points: 5
#     Node 6, Type 0, BuildingBlock: XOMCOT_clean_sbu_0, # of connection points: 5
#     Node 7, Type 0, BuildingBlock: XOMCOT_clean_sbu_0, # of connection points: 5
#     Edge 8, Type (0, 0), BuildingBlock: XIVTED_clean_linker_0, # of connection points: 2
#     Edge 9, Type (0, 0), BuildingBlock: XIVTED_clean_linker_0, # of connection points: 2
#     Edge 10, Type (0, 0), BuildingBlock: XIVTED_clean_linker_0, # of connection points: 2
#     Edge 11, Type (0, 0), BuildingBlock: XIVTED_clean_linker_0, # of connection points: 2
#     Edge 12, Type (0, 0), BuildingBlock: XIVTED_clean_linker_0, # of connection points: 2
#     Edge 13, Type (0, 0), BuildingBlock: XIVTED_clean_linker_0, # of connection points: 2
#     Edge 14, Type (0, 0), BuildingBlock: XIVTED_clean_linker_0, # of connection points: 2
#     Edge 15, Type (0, 0), BuildingBlock: XIVTED_clean_linker_0, # of connection points: 2
#     Edge 16, Type (0, 0), BuildingBlock: XIVTED_clean_linker_0, # of connection points: 2
#     Edge 17, Type (0, 0), BuildingBlock: XIVTED_clean_linker_0, # of connection points: 2
#     Edge 18, Type (0, 0), BuildingBlock: XIVTED_clean_linker_0, # of connection points: 2
#     Edge 19, Type (0, 0), BuildingBlock: XIVTED_clean_linker_0, # of connection points: 2
#     Edge 20, Type (0, 0), BuildingBlock: XIVTED_clean_linker_0, # of connection points: 2
#     Edge 21, Type (0, 0), BuildingBlock: XIVTED_clean_linker_0, # of connection points: 2
#     Edge 22, Type (0, 0), BuildingBlock: XIVTED_clean_linker_0, # of connection points: 2
#     Edge 23, Type (0, 0), BuildingBlock: XIVTED_clean_linker_0, # of connection points: 2
#     Edge 24, Type (0, 0), BuildingBlock: XIVTED_clean_linker_0, # of connection points: 2
#     Edge 25, Type (0, 0), BuildingBlock: XIVTED_clean_linker_0, # of connection points: 2
#     Edge 26, Type (0, 0), BuildingBlock: XIVTED_clean_linker_0, # of connection points: 2
#     Edge 27, Type (0, 0), BuildingBlock: XIVTED_clean_linker_0, # of connection points: 2
# Relax obj value: 0.129
# Max RMSD: 0.156
# Mean RMSD: 0.156
data_MOF--net-sof--node1-XOMCOT_clean_sbu_0--edge1-XIVTED_clean_linker_0
_symmetry_space_group_name_H-M    P1
_symmetry_Int_Tables_number       1
_symmetry_cell_setting            triclinic
loop_
_symmetry_equiv_pos_as_xyz
'x, y, z'
_cell_length_a     59.800318
_cell_length_b     17.708906
_cell_length_c     47.213883
_cell_angle_alpha  90.013369
_cell_angle_beta   89.926146
_cell_angle_gamma 90.065902
loop_
_atom_site_label
_atom_site_type_symbol
_atom_site_fract_x
_atom_site_fract_y
_atom_site_fract_z
_atom_type_partial_charge
Co0 Co 0.08126 0.09978 0.09201 0.0
C1 C 0.07983 0.93098 0.09687 0.0
C2 C 0.05543 0.98575 0.12295 0.0
C3 C 0.05269 0.90889 0.12559 0.0
N4 N 0.07276 0.99979 0.10536 0.0
N5 N 0.06802 0.87465 0.10907 0.0
H6 H 0.09294 0.92131 0.08173 0.0
H7 H 0.04519 0.02873 0.13277 0.0
C8 C 0.08728 0.10342 0.15446 0.0
O9 O 0.09551 0.03483 0.15283 0.0
N10 N 0.08884 0.19915 0.07855 0.0
C11 C 0.10226 0.216 0.05655 0.0
C12 C 0.10317 0.29327 0.05374 0.0
C13 C 0.08165 0.26586 0.08879 0.0
N14 N 0.09019 0.32462 0.07402 0.0
C15 C 0.12202 0.02994 0.07351 0.0
C16 C 0.15001 0.10443 0.11069 0.0
C17 C 0.15918 0.0524 0.09163 0.0
C18 C 0.14491 0.01544 0.07267 0.0
C19 C 0.127 0.11692 0.11089 0.0
N20 N 0.11309 0.07693 0.09346 0.0
H21 H 0.1116 1.00497 0.05741 0.0
H22 H 0.12064 0.16101 0.12441 0.0
H23 H 0.11082 0.17494 0.04351 0.0
H24 H 0.07014 0.27096 0.10639 0.0
O25 O 0.07517 0.06825 0.05376 0.0
O26 O 0.05026 0.118 0.08324 0.0
O27 O 0.08123 0.13874 0.13215 0.0
C28 C 0.05466 0.08894 0.05851 0.0
H29 H 0.03991 0.88054 0.13788 0.0
H30 H 0.1129 0.32384 0.03817 0.0
H31 H 0.16052 0.13577 0.12522 0.0
H32 H 0.15145 0.97753 0.05668 0.0
Co33 Co 0.40232 0.9125 0.09301 0.0
C34 C 0.40321 0.08149 0.09783 0.0
C35 C 0.42453 0.02677 0.12783 0.0
C36 C 0.4269 0.10354 0.131 0.0
N37 N 0.40928 0.01271 0.10745 0.0
N38 N 0.41343 0.13786 0.11212 0.0
H39 H 0.3926 0.09101 0.07984 0.0
H40 H 0.43362 0.98385 0.13934 0.0
C41 C 0.39161 0.90707 0.15404 0.0
O42 O 0.38107 0.9712 0.14982 0.0
N43 N 0.39634 0.81288 0.0786 0.0
C44 C 0.38471 0.7961 0.05503 0.0
C45 C 0.38349 0.71884 0.0525 0.0
C46 C 0.40221 0.74613 0.09003 0.0
N47 N 0.39447 0.68755 0.07453 0.0
C48 C 0.36155 0.98131 0.07355 0.0
C49 C 0.33302 0.89589 0.10665 0.0
C50 C 0.32405 0.95212 0.08922 0.0
C51 C 0.33858 0.99425 0.07213 0.0
C52 C 0.35609 0.88518 0.10748 0.0
N53 N 0.37021 0.93104 0.09248 0.0
H54 H 0.37221 0.00977 0.05858 0.0
H55 H 0.3625 0.83889 0.1199 0.0
H56 H 0.37746 0.83725 0.04084 0.0
H57 H 0.41153 0.74067 0.10955 0.0
O58 O 0.40943 0.94596 0.05535 0.0
O59 O 0.43384 0.89854 0.08594 0.0
O60 O 0.40105 0.8734 0.13324 0.0
C61 C 0.42996 0.92755 0.06107 0.0
H62 H 0.43779 0.13167 0.14594 0.0
H63 H 0.37527 0.68816 0.03563 0.0
H64 H 0.32235 0.8605 0.11961 0.0
H65 H 0.33222 0.03535 0.05719 0.0
Co66 Co 0.08066 0.41043 0.39809 0.0
C67 C 0.07945 0.57633 0.39343 0.0
C68 C 0.06208 0.52358 0.35889 0.0
C69 C 0.06058 0.60084 0.35584 0.0
N70 N 0.074 0.50854 0.38238 0.0
N71 N 0.07146 0.63389 0.37762 0.0
H72 H 0.08912 0.5831 0.41262 0.0
H73 H 0.05469 0.48144 0.34521 0.0
C74 C 0.0966 0.32553 0.3474 0.0
O75 O 0.11458 0.30658 0.3617 0.0
N76 N 0.08655 0.31063 0.4141 0.0
C77 C 0.09342 0.29337 0.44056 0.0
C78 C 0.09322 0.21622 0.44393 0.0
C79 C 0.08107 0.24324 0.40246 0.0
N80 N 0.08553 0.18457 0.41987 0.0
C81 C 0.12446 0.43712 0.42111 0.0
C82 C 0.1444 0.47995 0.37078 0.0
C83 C 0.1575 0.47479 0.39526 0.0
C84 C 0.14716 0.45489 0.42081 0.0
C85 C 0.12168 0.46238 0.37215 0.0
N86 N 0.11229 0.43634 0.39672 0.0
H87 H 0.11666 0.42585 0.44115 0.0
H88 H 0.11166 0.46891 0.35328 0.0
H89 H 0.09713 0.33335 0.45712 0.0
H90 H 0.07298 0.23722 0.38214 0.0
O91 O 0.07388 0.44888 0.43521 0.0
O92 O 0.04935 0.39591 0.40597 0.0
O93 O 0.08139 0.3663 0.35869 0.0
C94 C 0.05336 0.42856 0.43018 0.0
H95 H 0.05165 0.63029 0.33926 0.0
H96 H 0.09807 0.18612 0.46288 0.0
H97 H 0.15159 0.49812 0.35084 0.0
H98 H 0.15655 0.45226 0.44038 0.0
Co99 Co 0.40129 0.60271 0.39897 0.0
C100 C 0.40154 0.43672 0.3939 0.0
C101 C 0.41773 0.48922 0.35836 0.0
C102 C 0.41914 0.41195 0.3553 0.0
N103 N 0.40663 0.50447 0.3825 0.0
N104 N 0.40903 0.37898 0.37772 0.0
H105 H 0.39269 0.4301 0.41374 0.0
H106 H 0.42482 0.53122 0.34434 0.0
C107 C 0.38528 0.69563 0.35078 0.0
O108 O 0.36909 0.71825 0.36761 0.0
N109 N 0.39685 0.70255 0.41582 0.0
C110 C 0.38881 0.7203 0.44172 0.0
C111 C 0.38974 0.79738 0.44534 0.0
C112 C 0.40382 0.76929 0.40493 0.0
N113 N 0.399 0.82831 0.42203 0.0
C114 C 0.35782 0.57658 0.42341 0.0
C115 C 0.33619 0.54633 0.373 0.0
C116 C 0.32361 0.54986 0.39803 0.0
C117 C 0.33486 0.56292 0.4236 0.0
C118 C 0.35915 0.5598 0.37387 0.0
N119 N 0.36941 0.58038 0.39857 0.0
H120 H 0.36629 0.58195 0.44336 0.0
H121 H 0.36864 0.55465 0.35449 0.0
H122 H 0.38345 0.68078 0.45767 0.0
H123 H 0.41263 0.77455 0.38502 0.0
O124 O 0.40841 0.56239 0.43563 0.0
O125 O 0.43294 0.61332 0.40584 0.0
O126 O 0.39987 0.64859 0.35976 0.0
C127 C 0.42901 0.58062 0.43008 0.0
H128 H 0.42764 0.38247 0.33834 0.0
H129 H 0.38394 0.82807 0.46375 0.0
H130 H 0.32839 0.53461 0.35278 0.0
H131 H 0.32606 0.56157 0.44366 0.0
Co132 Co 0.9024 0.92457 0.89691 0.0
C133 C 0.90283 0.0934 0.89204 0.0
C134 C 0.92207 0.03906 0.85969 0.0
C135 C 0.92441 0.11585 0.8566 0.0
N136 N 0.90803 0.02472 0.88146 0.0
N137 N 0.91235 0.14988 0.87703 0.0
H138 H 0.8931 0.10268 0.91086 0.0
H139 H 0.93064 0.99636 0.84743 0.0
C140 C 0.89018 0.91336 0.83644 0.0
O141 O 0.87898 0.97633 0.84042 0.0
N142 N 0.89776 0.82511 0.91228 0.0
C143 C 0.88702 0.8081 0.93652 0.0
C144 C 0.88691 0.7309 0.93972 0.0
C145 C 0.90413 0.75859 0.90106 0.0
N146 N 0.89765 0.6998 0.91741 0.0
C147 C 0.86156 0.99098 0.91729 0.0
C148 C 0.83294 0.90048 0.88637 0.0
C149 C 0.82394 0.95749 0.90348 0.0
C150 C 0.83855 1.00207 0.91953 0.0
C151 C 0.85606 0.89148 0.88478 0.0
N152 N 0.87017 0.93978 0.89865 0.0
H153 H 0.87232 0.02164 0.93146 0.0
H154 H 0.86256 0.84481 0.87259 0.0
H155 H 0.87954 0.849 0.95065 0.0
H156 H 0.9134 0.75354 0.88146 0.0
O157 O 0.90998 0.96092 0.93398 0.0
O158 O 0.93422 0.91466 0.90281 0.0
O159 O 0.90058 0.8828 0.85714 0.0
C160 C 0.93057 0.94474 0.92759 0.0
H161 H 0.93498 0.14425 0.84131 0.0
H162 H 0.87905 0.70012 0.95685 0.0
H163 H 0.82227 0.86329 0.87417 0.0
H164 H 0.83225 0.04387 0.93426 0.0
Co165 Co 0.58031 0.08512 0.895 0.0
C166 C 0.57951 0.91622 0.89032 0.0
C167 C 0.55983 0.97076 0.85851 0.0
C168 C 0.55738 0.89399 0.85547 0.0
N169 N 0.57418 0.98494 0.87992 0.0
N170 N 0.56973 0.85984 0.87556 0.0
H171 H 0.58962 0.90679 0.90877 0.0
H172 H 0.55119 0.01359 0.84643 0.0
C173 C 0.59236 0.09408 0.83437 0.0
O174 O 0.60321 0.03049 0.83848 0.0
N175 N 0.58543 0.18468 0.91 0.0
C176 C 0.59647 0.20175 0.93399 0.0
C177 C 0.59666 0.27897 0.93715 0.0
C178 C 0.57896 0.25117 0.8989 0.0
N179 N 0.58566 0.31 0.91507 0.0
C180 C 0.62089 0.01769 0.91554 0.0
C181 C 0.64985 0.10579 0.88409 0.0
C182 C 0.65864 0.04948 0.90166 0.0
C183 C 0.64386 1.00602 0.91791 0.0
C184 C 0.62676 0.11539 0.88237 0.0
N185 N 0.61248 0.06831 0.89656 0.0
H186 H 0.61001 0.98807 0.92991 0.0
H187 H 0.62045 0.16178 0.86991 0.0
H188 H 0.60404 0.16088 0.94803 0.0
H189 H 0.56941 0.25613 0.87955 0.0
O190 O 0.57267 0.05012 0.93226 0.0
O191 O 0.54855 0.09686 0.90116 0.0
O192 O 0.5822 0.12584 0.85505 0.0
C193 C 0.55215 0.06737 0.92603 0.0
H194 H 0.5466 0.86567 0.84042 0.0
H195 H 0.60469 0.30979 0.95411 0.0
H196 H 0.66067 0.14214 0.87171 0.0
H197 H 0.65 0.96484 0.93297 0.0
Co198 Co 0.90246 0.59801 0.59375 0.0
C199 C 0.90265 0.43244 0.59847 0.0
C200 C 0.91819 0.48412 0.63459 0.0
C201 C 0.91965 0.40675 0.63736 0.0
N202 N 0.90747 0.49984 0.61026 0.0
N203 N 0.90996 0.37439 0.61454 0.0
H204 H 0.89416 0.42631 0.57838 0.0
H205 H 0.92502 0.52584 0.64891 0.0
C206 C 0.88538 0.69083 0.64138 0.0
O207 O 0.86953 0.71312 0.62401 0.0
N208 N 0.89835 0.69781 0.57692 0.0
C209 C 0.89044 0.71639 0.55106 0.0
C210 C 0.89153 0.79358 0.54779 0.0
C211 C 0.9054 0.76398 0.5881 0.0
N212 N 0.90074 0.82356 0.57127 0.0
C213 C 0.85959 0.57078 0.5679 0.0
C214 C 0.83695 0.53999 0.61762 0.0
C215 C 0.825 0.54236 0.59216 0.0
C216 C 0.8367 0.55585 0.56695 0.0
C217 C 0.85985 0.55469 0.61752 0.0
N218 N 0.87059 0.57539 0.59313 0.0
H219 H 0.86848 0.57657 0.54824 0.0
H220 H 0.86892 0.54974 0.63719 0.0
H221 H 0.88501 0.67747 0.53496 0.0
H222 H 0.91408 0.76843 0.60811 0.0
O223 O 0.91034 0.55799 0.55731 0.0
O224 O 0.93426 0.60874 0.58785 0.0
O225 O 0.90017 0.64377 0.63292 0.0
C226 C 0.93083 0.57605 0.56349 0.0
H227 H 0.92793 0.37684 0.65435 0.0
H228 H 0.88581 0.825 0.52953 0.0
H229 H 0.82872 0.52608 0.6374 0.0
H230 H 0.82825 0.55561 0.54668 0.0
Co231 Co 0.58105 0.41771 0.59258 0.0
C232 C 0.58076 0.58369 0.59764 0.0
C233 C 0.56483 0.53115 0.63335 0.0
C234 C 0.56345 0.60843 0.63645 0.0
N235 N 0.57576 0.51594 0.60909 0.0
N236 N 0.5734 0.64141 0.61391 0.0
H237 H 0.58949 0.59033 0.5777 0.0
H238 H 0.55787 0.48914 0.64746 0.0
C239 C 0.5975 0.3252 0.64066 0.0
O240 O 0.61369 0.30308 0.62372 0.0
N241 N 0.58545 0.31787 0.57571 0.0
C242 C 0.59322 0.30013 0.54968 0.0
C243 C 0.59231 0.22304 0.5461 0.0
C244 C 0.57866 0.25108 0.58674 0.0
N245 N 0.58333 0.19207 0.56958 0.0
C246 C 0.62421 0.44452 0.56748 0.0
C247 C 0.64625 0.47659 0.61744 0.0
C248 C 0.65853 0.47385 0.59216 0.0
C249 C 0.64709 0.45961 0.56684 0.0
C250 C 0.62336 0.46154 0.61703 0.0
N251 N 0.61291 0.4404 0.59253 0.0
H252 H 0.61556 0.43855 0.54769 0.0
H253 H 0.61407 0.46628 0.63658 0.0
H254 H 0.59836 0.33966 0.53361 0.0
H255 H 0.57005 0.24579 0.60679 0.0
O256 O 0.57367 0.4579 0.55601 0.0
O257 O 0.54934 0.40686 0.58604 0.0
O258 O 0.58278 0.3719 0.63178 0.0
C259 C 0.55311 0.43955 0.56175 0.0
H260 H 0.55509 0.6379 0.65351 0.0
H261 H 0.59792 0.19237 0.52759 0.0
H262 H 0.65423 0.48912 0.63747 0.0
H263 H 0.65564 0.46136 0.54662 0.0
H264 H 0.19298 0.1565 0.0947 0.0
H265 H 0.29029 0.84745 0.08811 0.0
H266 H 0.18083 0.91721 0.08644 0.0
H267 H 0.30236 0.0878 0.08861 0.0
H268 H 0.25009 0.87168 0.08833 0.0
H269 H 0.23317 0.13229 0.09351 0.0
C270 C 0.19879 0.09881 0.0928 0.0
C271 C 0.18357 0.0387 0.09078 0.0
C272 C 0.26152 0.91914 0.08833 0.0
C273 C 0.22949 0.01064 0.08912 0.0
C274 C 0.28446 0.90533 0.08836 0.0
C275 C 0.29966 0.96575 0.08846 0.0
C276 C 0.25372 0.9939 0.08853 0.0
C277 C 0.2912 0.03961 0.0883 0.0
C278 C 0.22172 0.08506 0.09192 0.0
C279 C 0.192 0.96521 0.08783 0.0
N280 N 0.26879 0.05162 0.08845 0.0
N281 N 0.21441 0.95321 0.08718 0.0
H282 H 0.29231 0.6253 0.42949 0.0
H283 H 0.18761 0.42455 0.35604 0.0
H284 H 0.29867 0.45274 0.36531 0.0
H285 H 0.18265 0.55818 0.43222 0.0
H286 H 0.22811 0.44438 0.35597 0.0
H287 H 0.25181 0.60959 0.42823 0.0
C288 C 0.28523 0.58368 0.41527 0.0
C289 C 0.29898 0.54009 0.39755 0.0
C290 C 0.21815 0.46943 0.37268 0.0
C291 C 0.25254 0.52293 0.39563 0.0
C292 C 0.19505 0.45862 0.3726 0.0
C293 C 0.18183 0.48961 0.39422 0.0
C294 C 0.22804 0.512 0.39442 0.0
C295 C 0.1923 0.53256 0.41536 0.0
C296 C 0.26208 0.57512 0.41445 0.0
C297 C 0.28876 0.48828 0.37911 0.0
N298 N 0.21481 0.54253 0.41492 0.0
N299 N 0.26615 0.48118 0.37862 0.0
H300 H 0.79063 0.85105 0.90578 0.0
H301 H 0.69195 0.15587 0.90372 0.0
H302 H 0.80159 0.09202 0.90442 0.0
H303 H 0.68093 0.9149 0.90383 0.0
H304 H 0.73221 0.13362 0.90537 0.0
H305 H 0.75034 0.87327 0.90649 0.0
C306 C 0.78455 0.90864 0.90553 0.0
C307 C 0.79948 0.9698 0.9049 0.0
C308 C 0.72099 0.08559 0.90509 0.0
C309 C 0.75342 0.99566 0.90597 0.0
C310 C 0.69802 0.09826 0.90398 0.0
C311 C 0.68308 0.03711 0.90348 0.0
C312 C 0.72911 0.01122 0.90566 0.0
C313 C 0.69185 0.96368 0.90442 0.0
C314 C 0.76156 0.9213 0.9061 0.0
C315 C 0.79069 0.04323 0.90516 0.0
N316 N 0.7143 0.95278 0.90536 0.0
N317 N 0.76823 0.05411 0.90557 0.0
H318 H 0.68297 0.5748 0.62375 0.0
H319 H 0.80024 0.45668 0.55537 0.0
H320 H 0.69007 0.40024 0.56049 0.0
H321 H 0.79408 0.60193 0.62837 0.0
H322 H 0.75962 0.44101 0.55495 0.0
H323 H 0.72352 0.5908 0.62401 0.0
C324 C 0.69304 0.53956 0.61001 0.0
C325 C 0.68307 0.48595 0.59211 0.0
C326 C 0.76716 0.47618 0.5711 0.0
C327 C 0.72949 0.5047 0.59204 0.0
C328 C 0.79031 0.48542 0.57126 0.0
C329 C 0.8005 0.53066 0.59194 0.0
C330 C 0.75411 0.51286 0.59167 0.0
C331 C 0.7869 0.56588 0.61225 0.0
C332 C 0.71619 0.54898 0.61008 0.0
C333 C 0.69698 0.44296 0.57436 0.0
N334 N 0.76438 0.55644 0.61154 0.0
N335 N 0.71947 0.45327 0.57478 0.0
H336 H 0.059 0.02624 0.00596 0.0
H337 H 0.92708 0.00959 0.97964 0.0
H338 H 0.00991 0.11596 0.06399 0.0
H339 H 0.97564 0.92609 0.91961 0.0
H340 H 0.95741 0.04872 0.01072 0.0
H341 H 0.02893 0.99114 0.97354 0.0
C342 C 0.0419 0.03914 0.01176 0.0
C343 C 0.0369 0.07391 0.03771 0.0
C344 C 0.96148 0.02177 0.99078 0.0
C345 C 0.00246 0.03328 0.0009 0.0
C346 C 0.94416 0.99913 0.97305 0.0
C347 C 0.94888 0.96444 0.94703 0.0
C348 C 0.98372 0.00964 0.98247 0.0
C349 C 0.9713 0.9525 0.93955 0.0
C350 C 0.02475 0.01886 0.99329 0.0
C351 C 0.01449 0.08922 0.0442 0.0
N352 N 0.98793 0.97516 0.95721 0.0
N353 N -0.00192 0.06847 0.02595 0.0
H354 H 0.47482 0.90354 0.06783 0.0
H355 H 0.50718 0.08879 0.91844 0.0
H356 H 0.42628 0.98911 0.00837 0.0
H357 H 0.55552 1.00506 0.97854 0.0
H358 H 0.47717 0.05254 0.95102 0.0
H359 H 0.50466 0.93838 0.03488 0.0
C360 C 0.47045 0.92922 0.04777 0.0
C361 C 0.44809 0.94355 0.0408 0.0
C362 C 0.49436 0.04227 0.95709 0.0
C363 C 0.48205 0.98407 0.00314 0.0
C364 C 0.51147 0.06318 0.93855 0.0
C365 C 0.53383 0.04993 0.94584 0.0
C366 C 0.49971 0.00786 0.98304 0.0
C367 C 0.53849 0.01634 0.97208 0.0
C368 C 0.48747 0.94934 0.029 0.0
C369 C 0.44333 0.97711 0.01458 0.0
N370 N 0.52157 0.99636 0.98971 0.0
N371 N 0.46018 0.99642 -0.00328 0.0
H372 H 0.00874 0.39825 0.42485 0.0
H373 H 0.9757 0.6016 0.5706 0.0
H374 H 0.05698 0.4991 0.48137 0.0
H375 H 0.92783 0.5053 0.51247 0.0
H376 H 0.0059 0.56337 0.53861 0.0
H377 H 0.97892 0.43434 0.45753 0.0
C378 C 0.01306 0.42761 0.44422 0.0
C379 C 0.03533 0.44581 0.45042 0.0
C380 C 0.98877 0.55075 0.53286 0.0
C381 C 0.00134 0.48774 0.4878 0.0
C382 C 0.97155 0.57273 0.55107 0.0
C383 C 0.94927 0.55665 0.54414 0.0
C384 C 0.9836 0.5124 0.50763 0.0
C385 C 0.9448 0.51892 0.51863 0.0
C386 C -0.00397 0.44842 0.46284 0.0
C387 C 0.04 0.484 0.47578 0.0
N388 N 0.96181 0.49801 0.50133 0.0
N389 N 0.02313 0.50389 0.49353 0.0
H390 H 0.42513 0.51183 0.48149 0.0
H391 H 0.55683 0.50789 0.5103 0.0
H392 H 0.47394 0.6059 0.42398 0.0
H393 H 0.50815 0.41454 0.56814 0.0
H394 H 0.52667 0.54342 0.47832 0.0
H395 H 0.45525 0.47622 0.51358 0.0
C396 C 0.4422 0.52526 0.47566 0.0
C397 C 0.44707 0.56188 0.45003 0.0
C398 C 0.52255 0.51506 0.49797 0.0
C399 C 0.48163 0.52093 0.48663 0.0
C400 C 0.53977 0.49459 0.51623 0.0
C401 C 0.53496 0.45819 0.54191 0.0
C402 C 0.50033 0.49908 0.50543 0.0
C403 C 0.51258 0.44247 0.54852 0.0
C404 C 0.45939 0.50476 0.49398 0.0
C405 C 0.46946 0.57779 0.44354 0.0
N406 N 0.49606 0.46313 0.53039 0.0
N407 N 0.48594 0.55709 0.46173 0.0
H408 H 0.05944 0.26184 0.32443 0.0
H409 H 0.09874 0.24906 0.16624 0.0
H410 H 0.12728 0.32634 0.30494 0.0
H411 H 0.07476 0.04378 0.20499 0.0
H412 H 0.1002 0.30838 0.21345 0.0
H413 H 0.05564 0.21022 0.27619 0.0
C414 C 0.07339 0.2658 0.30984 0.0
C415 C 0.09372 0.29777 0.3184 0.0
C416 C 0.09444 0.25062 0.21138 0.0
C417 C 0.08928 0.24161 0.2637 0.0
C418 C 0.09351 0.21704 0.18466 0.0
C419 C 0.08671 0.1416 0.18202 0.0
C420 C 0.08779 0.20902 0.2352 0.0
C421 C 0.08022 0.10199 0.20637 0.0
C422 C 0.07124 0.23635 0.28257 0.0
C423 C 0.11142 0.30146 0.29898 0.0
N424 N 0.08073 0.13645 0.23206 0.0
N425 N 0.10874 0.27423 0.27229 0.0
H426 H 0.36105 0.81092 0.32831 0.0
H427 H 0.4128 0.77807 0.17246 0.0
H428 H 0.41238 0.64919 0.30699 0.0
H429 H 0.36999 0.95927 0.20083 0.0
H430 H 0.41178 0.72473 0.22045 0.0
H431 H 0.36292 0.86061 0.2804 0.0
C432 C 0.37272 0.78569 0.31351 0.0
C433 C 0.38657 0.72574 0.32167 0.0
C434 C 0.40268 0.77623 0.21608 0.0
C435 C 0.38881 0.78264 0.26654 0.0
C436 C 0.40322 0.8066 0.18873 0.0
C437 C 0.39147 0.87326 0.18263 0.0
C438 C 0.39019 0.81262 0.23729 0.0
C439 C 0.37933 0.90788 0.20449 0.0
C440 C 0.37382 0.8143 0.28612 0.0
C441 C 0.40143 0.69563 0.30157 0.0
N442 N 0.37898 0.87709 0.23076 0.0
N443 N 0.40213 0.72431 0.27484 0.0
H444 H 0.91253 0.78592 0.81876 0.0
H445 H 0.85998 0.80436 0.66315 0.0
H446 H 0.86725 0.95921 0.78976 0.0
H447 H 0.91248 0.64833 0.68561 0.0
H448 H 0.86123 0.85631 0.71075 0.0
H449 H 0.91164 0.72936 0.77132 0.0
C450 C 0.90242 0.81204 0.80246 0.0
C451 C 0.88998 0.87749 0.80821 0.0
C452 C 0.87251 0.81072 0.70536 0.0
C453 C 0.88884 0.81315 0.75415 0.0
C454 C 0.87176 0.78082 0.67814 0.0
C455 C 0.88615 0.72186 0.67038 0.0
C456 C 0.8877 0.78141 0.72515 0.0
C457 C 0.90113 0.69394 0.69071 0.0
C458 C 0.90195 0.77981 0.77542 0.0
C459 C 0.87716 0.9089 0.78634 0.0
N460 N 0.90151 0.72393 0.71725 0.0
N461 N 0.87691 0.87641 0.76036 0.0
H462 H 0.61542 0.04656 0.78795 0.0
H463 H 0.56956 0.3676 0.68417 0.0
H464 H 0.57051 0.22203 0.81619 0.0
H465 H 0.62248 0.21162 0.66311 0.0
H466 H 0.56793 0.31299 0.73189 0.0
H467 H 0.61639 0.10402 0.74128 0.0
C468 C 0.60572 0.09727 0.78435 0.0
C469 C 0.59285 0.12948 0.80605 0.0
C470 C 0.57991 0.291 0.71679 0.0
C471 C 0.59389 0.19587 0.75235 0.0
C472 C 0.58082 0.32197 0.68956 0.0
C473 C 0.5962 0.29415 0.66964 0.0
C474 C 0.59436 0.23154 0.72397 0.0
C475 C 0.61041 0.2351 0.67776 0.0
C476 C 0.60632 0.13021 0.75763 0.0
C477 C 0.58067 0.19533 0.80005 0.0
N478 N 0.6091 0.20574 0.70423 0.0
N479 N 0.58144 0.22637 0.77369 0.0
H480 H 0.05834 0.7609 0.14563 0.0
H481 H 0.09455 0.4387 0.03588 0.0
H482 H 0.08341 0.80548 0.06155 0.0
H483 H 0.07695 0.39307 0.12293 0.0
H484 H 0.08885 0.57286 0.04445 0.0
H485 H 0.06303 0.62546 0.13715 0.0
C486 C 0.06474 0.74221 0.12536 0.0
C487 C 0.07058 0.79471 0.10433 0.0
C488 C 0.08623 0.53353 0.0617 0.0
C489 C 0.07609 0.63989 0.0945 0.0
C490 C 0.0896 0.45672 0.05686 0.0
C491 C 0.08634 0.4041 0.07874 0.0
C492 C 0.07948 0.55836 0.08863 0.0
C493 C 0.07945 0.4312 0.10533 0.0
C494 C 0.06752 0.66494 0.12058 0.0
C495 C 0.07903 0.7673 0.07855 0.0
N496 N 0.07628 0.50642 0.10953 0.0
N497 N 0.08149 0.69189 0.07436 0.0
H498 H 0.44316 0.2494 0.12485 0.0
H499 H 0.36636 0.57451 0.05919 0.0
H500 H 0.3779 0.20994 0.08872 0.0
H501 H 0.42807 0.61903 0.10344 0.0
H502 H 0.37098 0.44013 0.06864 0.0
H503 H 0.43845 0.38448 0.11649 0.0
C504 C 0.42779 0.26898 0.11531 0.0
C505 C 0.41093 0.21788 0.10742 0.0
C506 C 0.38352 0.47923 0.07634 0.0
C507 C 0.40554 0.37265 0.0975 0.0
C508 C 0.38096 0.55601 0.07077 0.0
C509 C 0.3969 0.60818 0.08043 0.0
C510 C 0.40223 0.4541 0.09158 0.0
C511 C 0.41528 0.58093 0.09582 0.0
C512 C 0.42516 0.3462 0.11042 0.0
C513 C 0.39151 0.24681 0.09474 0.0
N514 N 0.41748 0.50571 0.10083 0.0
N515 N 0.38937 0.32214 0.09016 0.0
H516 H 0.08122 0.07 0.45806 0.0
H517 H 0.07066 0.74866 0.33943 0.0
H518 H 0.08331 0.11594 0.36828 0.0
H519 H 0.07665 0.70217 0.42879 0.0
H520 H 0.07341 0.88375 0.34957 0.0
H521 H 0.07785 0.93567 0.44773 0.0
C522 C 0.08105 0.05212 0.43616 0.0
C523 C 0.08263 0.10497 0.41404 0.0
C524 C 0.07416 0.84399 0.36696 0.0
C525 C 0.07852 0.95033 0.40203 0.0
C526 C 0.07247 0.76679 0.3612 0.0
C527 C 0.07343 0.71376 0.38328 0.0
C528 C 0.0767 0.86863 0.39506 0.0
C529 C 0.07611 0.74073 0.41105 0.0
C530 C 0.07903 0.97515 0.43027 0.0
C531 C 0.08188 0.07779 0.38607 0.0
N532 N 0.07758 0.81617 0.41614 0.0
N533 N 0.07992 1.00249 0.38089 0.0
H534 H 0.40236 0.94378 0.45992 0.0
H535 H 0.40973 0.26308 0.33996 0.0
H536 H 0.40188 0.8956 0.37029 0.0
H537 H 0.40537 0.3116 0.42936 0.0
H538 H 0.40833 0.12819 0.35068 0.0
H539 H 0.40488 0.07834 0.44918 0.0
C540 C 0.40278 0.96129 0.43797 0.0
C541 C 0.40187 0.90781 0.41601 0.0
C542 C 0.40765 0.16833 0.36797 0.0
C543 C 0.40489 0.0625 0.40352 0.0
C544 C 0.40856 0.24549 0.36186 0.0
C545 C 0.40767 0.2991 0.38376 0.0
C546 C 0.40593 0.14423 0.39623 0.0
C547 C 0.40582 0.27264 0.41173 0.0
C548 C 0.40429 0.03832 0.43185 0.0
C549 C 0.40283 0.93433 0.38796 0.0
N550 N 0.40507 0.19722 0.41715 0.0
N551 N 0.40422 0.00965 0.38255 0.0
H552 H 0.89838 0.58581 0.95589 0.0
H553 H 0.91618 0.26391 0.83899 0.0
H554 H 0.90421 0.63164 0.86638 0.0
H555 H 0.90537 0.21868 0.92776 0.0
H556 H 0.9136 0.39919 0.84875 0.0
H557 H 0.9024 0.4514 0.9461 0.0
C558 C 0.90042 0.56774 0.93415 0.0
C559 C 0.90084 0.62041 0.91193 0.0
C560 C 0.91178 0.35964 0.8661 0.0
C561 C 0.9057 0.46609 0.90057 0.0
C562 C 0.91337 0.28241 0.86055 0.0
C563 C 0.91091 0.22976 0.88256 0.0
C564 C 0.9078 0.38454 0.89389 0.0
C565 C 0.90702 0.25699 0.91006 0.0
C566 C 0.90283 0.49085 0.92859 0.0
C567 C 0.904 0.59341 0.88423 0.0
N568 N 0.9056 0.33243 0.91493 0.0
N569 N 0.90625 0.51815 0.87934 0.0
H570 H 0.56537 0.74598 0.83752 0.0
H571 H 0.58528 0.42383 0.95364 0.0
H572 H 0.57749 0.79085 0.92602 0.0
H573 H 0.57834 0.37823 0.86425 0.0
H574 H 0.58092 0.55817 0.94406 0.0
H575 H 0.56824 0.61065 0.84708 0.0
C576 C 0.56852 0.72739 0.85898 0.0
C577 C 0.57127 0.77994 0.88097 0.0
C578 C 0.58032 0.5188 0.92653 0.0
C579 C 0.57472 0.62515 0.89206 0.0
C580 C 0.58293 0.44194 0.93197 0.0
C581 C 0.5823 0.38936 0.90972 0.0
C582 C 0.57703 0.54361 0.8986 0.0
C583 C 0.57873 0.4164 0.88212 0.0
C584 C 0.57028 0.65014 0.8644 0.0
C585 C 0.57561 0.75261 0.90832 0.0
N586 N 0.57629 0.49164 0.87735 0.0
N587 N 0.57718 0.67717 0.91308 0.0
H588 H 0.90315 0.88811 0.62349 0.0
H589 H 0.90742 0.30965 0.56238 0.0
H590 H 0.90437 0.94078 0.53423 0.0
H591 H 0.91023 0.25674 0.65152 0.0
H592 H 0.9059 0.17492 0.55171 0.0
H593 H 0.90606 0.02252 0.63417 0.0
C594 C 0.90429 0.9277 0.60609 0.0
C595 C 0.90356 0.90267 0.57785 0.0
C596 C 0.90686 0.19273 0.57362 0.0
C597 C 0.90648 0.05741 0.59004 0.0
C598 C 0.90755 0.26983 0.57976 0.0
C599 C 0.90888 0.29485 0.60794 0.0
C600 C 0.90742 0.13991 0.5958 0.0
C601 C 0.90943 0.24021 0.6295 0.0
C602 C 0.90578 1.00468 0.61224 0.0
C603 C 0.90463 0.95721 0.55628 0.0
N604 N 0.90865 0.16544 0.62298 0.0
N605 N 0.90599 0.03186 0.56282 0.0
H606 H 0.57304 0.75724 0.65171 0.0
H607 H 0.5796 0.07665 0.53173 0.0
H608 H 0.57669 0.70886 0.56225 0.0
H609 H 0.58091 0.12474 0.62134 0.0
H610 H 0.57711 0.9421 0.54248 0.0
H611 H 0.57445 0.89215 0.641 0.0
C612 C 0.57406 0.77487 0.6298 0.0
C613 C 0.57475 0.72129 0.60787 0.0
C614 C 0.57789 0.9821 0.5598 0.0
C615 C 0.57649 0.87617 0.59542 0.0
C616 C 0.57938 0.05912 0.55367 0.0
C617 C 0.58051 0.11258 0.57562 0.0
C618 C 0.57752 0.95789 0.58813 0.0
C619 C 0.57979 0.08604 0.60368 0.0
C620 C 0.57496 0.85203 0.6237 0.0
C621 C 0.5764 0.74779 0.57989 0.0
N622 N 0.57841 0.01071 0.6091 0.0
N623 N 0.57716 0.82321 0.57449 0.0
loop_
_geom_bond_atom_site_label_1
_geom_bond_atom_site_label_2
_geom_bond_distance
_geom_bond_site_symmetry_2
_ccdc_geom_bond_type
Co0 N4 2.148 1_545 S
Co0 N10 2.128 . S
Co0 N20 2.194 . S
Co0 O25 2.351 . S
Co0 O26 2.155 . S
Co0 O27 2.096 . S
C1 N4 1.301 . S
C1 N5 1.328 . S
C1 H6 0.930 . S
C2 C3 1.333 . S
C2 N4 1.317 . S
C2 H7 0.930 . S
C3 C2 1.333 . S
C3 N5 1.350 . S
C3 H29 0.931 . S
N4 Co0 2.148 1_565 S
N4 C1 1.301 . S
N4 C2 1.317 . S
N5 C1 1.328 . S
N5 C3 1.350 . S
H6 C1 0.930 . S
H7 C2 0.930 . S
C8 O9 1.224 . S
C8 O27 1.247 . S
O9 C8 1.224 . S
N10 Co0 2.128 . S
N10 C11 1.355 . S
N10 C13 1.311 . S
C11 N10 1.355 . S
C11 C12 1.363 . S
C11 H23 0.929 . S
C12 C11 1.363 . S
C12 N14 1.375 . S
C12 H30 0.931 . S
C13 N10 1.311 . S
C13 N14 1.347 . S
C13 H24 0.929 . S
N14 C12 1.375 . S
N14 C13 1.347 . S
C15 C18 1.365 . S
C15 N20 1.328 . S
C15 H21 0.929 . S
C16 C17 1.362 . S
C16 C19 1.378 . S
C16 H31 0.929 . S
C17 C16 1.362 . S
C17 C18 1.366 . S
C18 C15 1.365 . S
C18 C17 1.366 . S
C18 H32 0.930 . S
C19 C16 1.378 . S
C19 N20 1.315 . S
C19 H22 0.930 . S
N20 Co0 2.194 . S
N20 C15 1.328 . S
N20 C19 1.315 . S
H21 C15 0.929 . S
H22 C19 0.930 . S
H23 C11 0.929 . S
H24 C13 0.929 . S
O25 Co0 2.351 . S
O25 C28 1.244 . S
O26 Co0 2.155 . S
O26 C28 1.240 . S
O27 Co0 2.096 . S
O27 C8 1.247 . S
C28 O25 1.244 . S
C28 O26 1.240 . S
H29 C3 0.931 . S
H30 C12 0.931 . S
H31 C16 0.929 . S
H32 C18 0.930 . S
Co33 N37 2.148 1_565 S
Co33 N43 2.128 . S
Co33 N53 2.194 . S
Co33 O58 2.351 . S
Co33 O59 2.155 . S
Co33 O60 2.096 . S
C34 N37 1.301 . S
C34 N38 1.328 . S
C34 H39 0.930 . S
C35 C36 1.333 . S
C35 N37 1.317 . S
C35 H40 0.930 . S
C36 C35 1.333 . S
C36 N38 1.350 . S
C36 H62 0.931 . S
N37 Co33 2.148 1_545 S
N37 C34 1.301 . S
N37 C35 1.317 . S
N38 C34 1.328 . S
N38 C36 1.350 . S
H39 C34 0.930 . S
H40 C35 0.930 . S
C41 O42 1.224 . S
C41 O60 1.247 . S
O42 C41 1.224 . S
N43 Co33 2.128 . S
N43 C44 1.355 . S
N43 C46 1.311 . S
C44 N43 1.355 . S
C44 C45 1.363 . S
C44 H56 0.929 . S
C45 C44 1.363 . S
C45 N47 1.375 . S
C45 H63 0.931 . S
C46 N43 1.311 . S
C46 N47 1.347 . S
C46 H57 0.929 . S
N47 C45 1.375 . S
N47 C46 1.347 . S
C48 C51 1.365 . S
C48 N53 1.328 . S
C48 H54 0.929 . S
C49 C50 1.362 . S
C49 C52 1.378 . S
C49 H64 0.929 . S
C50 C49 1.362 . S
C50 C51 1.366 . S
C51 C48 1.365 . S
C51 C50 1.366 . S
C51 H65 0.930 . S
C52 C49 1.378 . S
C52 N53 1.315 . S
C52 H55 0.930 . S
N53 Co33 2.194 . S
N53 C48 1.328 . S
N53 C52 1.315 . S
H54 C48 0.929 . S
H55 C52 0.930 . S
H56 C44 0.929 . S
H57 C46 0.929 . S
O58 Co33 2.351 . S
O58 C61 1.244 . S
O59 Co33 2.155 . S
O59 C61 1.240 . S
O60 Co33 2.096 . S
O60 C41 1.247 . S
C61 O58 1.244 . S
C61 O59 1.240 . S
H62 C36 0.931 . S
H63 C45 0.931 . S
H64 C49 0.929 . S
H65 C51 0.930 . S
Co66 N70 2.148 . S
Co66 N76 2.128 . S
Co66 N86 2.194 . S
Co66 O91 2.351 . S
Co66 O92 2.155 . S
Co66 O93 2.096 . S
C67 N70 1.301 . S
C67 N71 1.328 . S
C67 H72 0.930 . S
C68 C69 1.333 . S
C68 N70 1.317 . S
C68 H73 0.930 . S
C69 C68 1.333 . S
C69 N71 1.350 . S
C69 H95 0.931 . S
N70 Co66 2.148 . S
N70 C67 1.301 . S
N70 C68 1.317 . S
N71 C67 1.328 . S
N71 C69 1.350 . S
H72 C67 0.930 . S
H73 C68 0.930 . S
C74 O75 1.224 . S
C74 O93 1.247 . S
O75 C74 1.224 . S
N76 Co66 2.128 . S
N76 C77 1.355 . S
N76 C79 1.311 . S
C77 N76 1.355 . S
C77 C78 1.363 . S
C77 H89 0.929 . S
C78 C77 1.363 . S
C78 N80 1.375 . S
C78 H96 0.931 . S
C79 N76 1.311 . S
C79 N80 1.347 . S
C79 H90 0.929 . S
N80 C78 1.375 . S
N80 C79 1.347 . S
C81 C84 1.365 . S
C81 N86 1.328 . S
C81 H87 0.929 . S
C82 C83 1.362 . S
C82 C85 1.378 . S
C82 H97 0.929 . S
C83 C82 1.362 . S
C83 C84 1.366 . S
C84 C81 1.365 . S
C84 C83 1.366 . S
C84 H98 0.930 . S
C85 C82 1.378 . S
C85 N86 1.315 . S
C85 H88 0.930 . S
N86 Co66 2.194 . S
N86 C81 1.328 . S
N86 C85 1.315 . S
H87 C81 0.929 . S
H88 C85 0.930 . S
H89 C77 0.929 . S
H90 C79 0.929 . S
O91 Co66 2.351 . S
O91 C94 1.244 . S
O92 Co66 2.155 . S
O92 C94 1.240 . S
O93 Co66 2.096 . S
O93 C74 1.247 . S
C94 O91 1.244 . S
C94 O92 1.240 . S
H95 C69 0.931 . S
H96 C78 0.931 . S
H97 C82 0.929 . S
H98 C84 0.930 . S
Co99 N103 2.148 . S
Co99 N109 2.128 . S
Co99 N119 2.194 . S
Co99 O124 2.351 . S
Co99 O125 2.155 . S
Co99 O126 2.096 . S
C100 N103 1.301 . S
C100 N104 1.328 . S
C100 H105 0.930 . S
C101 C102 1.333 . S
C101 N103 1.317 . S
C101 H106 0.930 . S
C102 C101 1.333 . S
C102 N104 1.350 . S
C102 H128 0.931 . S
N103 Co99 2.148 . S
N103 C100 1.301 . S
N103 C101 1.317 . S
N104 C100 1.328 . S
N104 C102 1.350 . S
H105 C100 0.930 . S
H106 C101 0.930 . S
C107 O108 1.224 . S
C107 O126 1.247 . S
O108 C107 1.224 . S
N109 Co99 2.128 . S
N109 C110 1.355 . S
N109 C112 1.311 . S
C110 N109 1.355 . S
C110 C111 1.363 . S
C110 H122 0.929 . S
C111 C110 1.363 . S
C111 N113 1.375 . S
C111 H129 0.931 . S
C112 N109 1.311 . S
C112 N113 1.347 . S
C112 H123 0.929 . S
N113 C111 1.375 . S
N113 C112 1.347 . S
C114 C117 1.365 . S
C114 N119 1.328 . S
C114 H120 0.929 . S
C115 C116 1.362 . S
C115 C118 1.378 . S
C115 H130 0.929 . S
C116 C115 1.362 . S
C116 C117 1.366 . S
C117 C114 1.365 . S
C117 C116 1.366 . S
C117 H131 0.930 . S
C118 C115 1.378 . S
C118 N119 1.315 . S
C118 H121 0.930 . S
N119 Co99 2.194 . S
N119 C114 1.328 . S
N119 C118 1.315 . S
H120 C114 0.929 . S
H121 C118 0.930 . S
H122 C110 0.929 . S
H123 C112 0.929 . S
O124 Co99 2.351 . S
O124 C127 1.244 . S
O125 Co99 2.155 . S
O125 C127 1.240 . S
O126 Co99 2.096 . S
O126 C107 1.247 . S
C127 O124 1.244 . S
C127 O125 1.240 . S
H128 C102 0.931 . S
H129 C111 0.931 . S
H130 C115 0.929 . S
H131 C117 0.930 . S
Co132 N136 2.148 1_565 S
Co132 N142 2.128 . S
Co132 N152 2.194 . S
Co132 O157 2.351 . S
Co132 O158 2.155 . S
Co132 O159 2.096 . S
C133 N136 1.301 . S
C133 N137 1.328 . S
C133 H138 0.930 . S
C134 C135 1.333 . S
C134 N136 1.317 . S
C134 H139 0.930 . S
C135 C134 1.333 . S
C135 N137 1.350 . S
C135 H161 0.931 . S
N136 Co132 2.148 1_545 S
N136 C133 1.301 . S
N136 C134 1.317 . S
N137 C133 1.328 . S
N137 C135 1.350 . S
H138 C133 0.930 . S
H139 C134 0.930 . S
C140 O141 1.224 . S
C140 O159 1.247 . S
O141 C140 1.224 . S
N142 Co132 2.128 . S
N142 C143 1.355 . S
N142 C145 1.311 . S
C143 N142 1.355 . S
C143 C144 1.363 . S
C143 H155 0.929 . S
C144 C143 1.363 . S
C144 N146 1.375 . S
C144 H162 0.931 . S
C145 N142 1.311 . S
C145 N146 1.347 . S
C145 H156 0.929 . S
N146 C144 1.375 . S
N146 C145 1.347 . S
C147 C150 1.365 . S
C147 N152 1.328 . S
C147 H153 0.929 . S
C148 C149 1.362 . S
C148 C151 1.378 . S
C148 H163 0.929 . S
C149 C148 1.362 . S
C149 C150 1.366 . S
C150 C147 1.365 . S
C150 C149 1.366 . S
C150 H164 0.930 . S
C151 C148 1.378 . S
C151 N152 1.315 . S
C151 H154 0.930 . S
N152 Co132 2.194 . S
N152 C147 1.328 . S
N152 C151 1.315 . S
H153 C147 0.929 . S
H154 C151 0.930 . S
H155 C143 0.929 . S
H156 C145 0.929 . S
O157 Co132 2.351 . S
O157 C160 1.244 . S
O158 Co132 2.155 . S
O158 C160 1.240 . S
O159 Co132 2.096 . S
O159 C140 1.247 . S
C160 O157 1.244 . S
C160 O158 1.240 . S
H161 C135 0.931 . S
H162 C144 0.931 . S
H163 C148 0.929 . S
H164 C150 0.930 . S
Co165 N169 2.148 1_545 S
Co165 N175 2.128 . S
Co165 N185 2.194 . S
Co165 O190 2.351 . S
Co165 O191 2.155 . S
Co165 O192 2.096 . S
C166 N169 1.301 . S
C166 N170 1.328 . S
C166 H171 0.930 . S
C167 C168 1.333 . S
C167 N169 1.317 . S
C167 H172 0.930 . S
C168 C167 1.333 . S
C168 N170 1.350 . S
C168 H194 0.931 . S
N169 Co165 2.148 1_565 S
N169 C166 1.301 . S
N169 C167 1.317 . S
N170 C166 1.328 . S
N170 C168 1.350 . S
H171 C166 0.930 . S
H172 C167 0.930 . S
C173 O174 1.224 . S
C173 O192 1.247 . S
O174 C173 1.224 . S
N175 Co165 2.128 . S
N175 C176 1.355 . S
N175 C178 1.311 . S
C176 N175 1.355 . S
C176 C177 1.363 . S
C176 H188 0.929 . S
C177 C176 1.363 . S
C177 N179 1.375 . S
C177 H195 0.931 . S
C178 N175 1.311 . S
C178 N179 1.347 . S
C178 H189 0.929 . S
N179 C177 1.375 . S
N179 C178 1.347 . S
C180 C183 1.365 . S
C180 N185 1.328 . S
C180 H186 0.929 . S
C181 C182 1.362 . S
C181 C184 1.378 . S
C181 H196 0.929 . S
C182 C181 1.362 . S
C182 C183 1.366 . S
C183 C180 1.365 . S
C183 C182 1.366 . S
C183 H197 0.930 . S
C184 C181 1.378 . S
C184 N185 1.315 . S
C184 H187 0.930 . S
N185 Co165 2.194 . S
N185 C180 1.328 . S
N185 C184 1.315 . S
H186 C180 0.929 . S
H187 C184 0.930 . S
H188 C176 0.929 . S
H189 C178 0.929 . S
O190 Co165 2.351 . S
O190 C193 1.244 . S
O191 Co165 2.155 . S
O191 C193 1.240 . S
O192 Co165 2.096 . S
O192 C173 1.247 . S
C193 O190 1.244 . S
C193 O191 1.240 . S
H194 C168 0.931 . S
H195 C177 0.931 . S
H196 C181 0.929 . S
H197 C183 0.930 . S
Co198 N202 2.148 . S
Co198 N208 2.128 . S
Co198 N218 2.194 . S
Co198 O223 2.351 . S
Co198 O224 2.155 . S
Co198 O225 2.096 . S
C199 N202 1.301 . S
C199 N203 1.328 . S
C199 H204 0.930 . S
C200 C201 1.333 . S
C200 N202 1.317 . S
C200 H205 0.930 . S
C201 C200 1.333 . S
C201 N203 1.350 . S
C201 H227 0.931 . S
N202 Co198 2.148 . S
N202 C199 1.301 . S
N202 C200 1.317 . S
N203 C199 1.328 . S
N203 C201 1.350 . S
H204 C199 0.930 . S
H205 C200 0.930 . S
C206 O207 1.224 . S
C206 O225 1.247 . S
O207 C206 1.224 . S
N208 Co198 2.128 . S
N208 C209 1.355 . S
N208 C211 1.311 . S
C209 N208 1.355 . S
C209 C210 1.363 . S
C209 H221 0.929 . S
C210 C209 1.363 . S
C210 N212 1.375 . S
C210 H228 0.931 . S
C211 N208 1.311 . S
C211 N212 1.347 . S
C211 H222 0.929 . S
N212 C210 1.375 . S
N212 C211 1.347 . S
C213 C216 1.365 . S
C213 N218 1.328 . S
C213 H219 0.929 . S
C214 C215 1.362 . S
C214 C217 1.378 . S
C214 H229 0.929 . S
C215 C214 1.362 . S
C215 C216 1.366 . S
C216 C213 1.365 . S
C216 C215 1.366 . S
C216 H230 0.930 . S
C217 C214 1.378 . S
C217 N218 1.315 . S
C217 H220 0.930 . S
N218 Co198 2.194 . S
N218 C213 1.328 . S
N218 C217 1.315 . S
H219 C213 0.929 . S
H220 C217 0.930 . S
H221 C209 0.929 . S
H222 C211 0.929 . S
O223 Co198 2.351 . S
O223 C226 1.244 . S
O224 Co198 2.155 . S
O224 C226 1.240 . S
O225 Co198 2.096 . S
O225 C206 1.247 . S
C226 O223 1.244 . S
C226 O224 1.240 . S
H227 C201 0.931 . S
H228 C210 0.931 . S
H229 C214 0.929 . S
H230 C216 0.930 . S
Co231 N235 2.148 . S
Co231 N241 2.128 . S
Co231 N251 2.194 . S
Co231 O256 2.351 . S
Co231 O257 2.155 . S
Co231 O258 2.096 . S
C232 N235 1.301 . S
C232 N236 1.328 . S
C232 H237 0.930 . S
C233 C234 1.333 . S
C233 N235 1.317 . S
C233 H238 0.930 . S
C234 C233 1.333 . S
C234 N236 1.350 . S
C234 H260 0.931 . S
N235 Co231 2.148 . S
N235 C232 1.301 . S
N235 C233 1.317 . S
N236 C232 1.328 . S
N236 C234 1.350 . S
H237 C232 0.930 . S
H238 C233 0.930 . S
C239 O240 1.224 . S
C239 O258 1.247 . S
O240 C239 1.224 . S
N241 Co231 2.128 . S
N241 C242 1.355 . S
N241 C244 1.311 . S
C242 N241 1.355 . S
C242 C243 1.363 . S
C242 H254 0.929 . S
C243 C242 1.363 . S
C243 N245 1.375 . S
C243 H261 0.931 . S
C244 N241 1.311 . S
C244 N245 1.347 . S
C244 H255 0.929 . S
N245 C243 1.375 . S
N245 C244 1.347 . S
C246 C249 1.365 . S
C246 N251 1.328 . S
C246 H252 0.929 . S
C247 C248 1.362 . S
C247 C250 1.378 . S
C247 H262 0.929 . S
C248 C247 1.362 . S
C248 C249 1.366 . S
C249 C246 1.365 . S
C249 C248 1.366 . S
C249 H263 0.930 . S
C250 C247 1.378 . S
C250 N251 1.315 . S
C250 H253 0.930 . S
N251 Co231 2.194 . S
N251 C246 1.328 . S
N251 C250 1.315 . S
H252 C246 0.929 . S
H253 C250 0.930 . S
H254 C242 0.929 . S
H255 C244 0.929 . S
O256 Co231 2.351 . S
O256 C259 1.244 . S
O257 Co231 2.155 . S
O257 C259 1.240 . S
O258 Co231 2.096 . S
O258 C239 1.247 . S
C259 O256 1.244 . S
C259 O257 1.240 . S
H260 C234 0.931 . S
H261 C243 0.931 . S
H262 C247 0.929 . S
H263 C249 0.930 . S
H264 C270 0.930 . S
H265 C274 0.930 . S
H266 C279 0.933 . S
H267 C277 0.932 . S
H268 C272 0.929 . S
H269 C278 0.929 . S
C270 H264 0.930 . S
C270 C271 1.367 . S
C270 C278 1.378 . S
C271 C270 1.367 . S
C271 C279 1.427 1_545 S
C272 H268 0.929 . S
C272 C274 1.378 . S
C272 C276 1.350 . S
C273 C276 1.463 1_545 S
C273 C278 1.350 . S
C273 N281 1.427 1_545 S
C274 H265 0.930 . S
C274 C272 1.378 . S
C274 C275 1.367 . S
C275 C274 1.367 . S
C275 C277 1.428 1_565 S
C276 C272 1.350 . S
C276 C273 1.463 1_565 S
C276 N280 1.427 1_565 S
C277 H267 0.932 . S
C277 C275 1.428 1_545 S
C277 N280 1.386 . S
C278 H269 0.929 . S
C278 C270 1.378 . S
C278 C273 1.350 . S
C279 H266 0.933 . S
C279 C271 1.427 1_565 S
C279 N281 1.386 . S
N280 C276 1.427 1_545 S
N280 C277 1.386 . S
N281 C273 1.427 1_565 S
N281 C279 1.386 . S
H282 C288 0.930 . S
H283 C292 0.930 . S
H284 C297 0.929 . S
H285 C295 0.929 . S
H286 C290 0.929 . S
H287 C296 0.929 . S
C288 H282 0.930 . S
C288 C289 1.367 . S
C288 C296 1.378 . S
C289 C288 1.367 . S
C289 C297 1.433 . S
C290 H286 0.929 . S
C290 C292 1.378 . S
C290 C294 1.350 . S
C291 C294 1.463 . S
C291 C296 1.350 . S
C291 N299 1.427 . S
C292 H283 0.930 . S
C292 C290 1.378 . S
C292 C293 1.367 . S
C293 C292 1.367 . S
C293 C295 1.433 . S
C294 C290 1.350 . S
C294 C291 1.463 . S
C294 N298 1.427 . S
C295 H285 0.929 . S
C295 C293 1.433 . S
C295 N298 1.384 . S
C296 H287 0.929 . S
C296 C288 1.378 . S
C296 C291 1.350 . S
C297 H284 0.929 . S
C297 C289 1.433 . S
C297 N299 1.384 . S
N298 C294 1.427 . S
N298 C295 1.384 . S
N299 C291 1.427 . S
N299 C297 1.384 . S
H300 C306 0.930 . S
H301 C310 0.930 . S
H302 C315 0.929 . S
H303 C313 0.929 . S
H304 C308 0.929 . S
H305 C314 0.929 . S
C306 H300 0.930 . S
C306 C307 1.367 . S
C306 C314 1.378 . S
C307 C306 1.367 . S
C307 C315 1.433 1_565 S
C308 H304 0.929 . S
C308 C310 1.378 . S
C308 C312 1.350 . S
C309 C312 1.463 1_565 S
C309 C314 1.350 . S
C309 N317 1.427 1_565 S
C310 H301 0.930 . S
C310 C308 1.378 . S
C310 C311 1.367 . S
C311 C310 1.367 . S
C311 C313 1.433 1_545 S
C312 C308 1.350 . S
C312 C309 1.463 1_545 S
C312 N316 1.427 1_545 S
C313 H303 0.929 . S
C313 C311 1.433 1_565 S
C313 N316 1.384 . S
C314 H305 0.929 . S
C314 C306 1.378 . S
C314 C309 1.350 . S
C315 H302 0.929 . S
C315 C307 1.433 1_545 S
C315 N317 1.384 . S
N316 C312 1.427 1_565 S
N316 C313 1.384 . S
N317 C309 1.427 1_545 S
N317 C315 1.384 . S
H318 C324 0.930 . S
H319 C328 0.930 . S
H320 C333 0.929 . S
H321 C331 0.929 . S
H322 C326 0.929 . S
H323 C332 0.929 . S
C324 H318 0.930 . S
C324 C325 1.367 . S
C324 C332 1.378 . S
C325 C324 1.367 . S
C325 C333 1.433 . S
C326 H322 0.929 . S
C326 C328 1.378 . S
C326 C330 1.350 . S
C327 C330 1.463 . S
C327 C332 1.350 . S
C327 N335 1.427 . S
C328 H319 0.930 . S
C328 C326 1.378 . S
C328 C329 1.367 . S
C329 C328 1.367 . S
C329 C331 1.433 . S
C330 C326 1.350 . S
C330 C327 1.463 . S
C330 N334 1.427 . S
C331 H321 0.929 . S
C331 C329 1.433 . S
C331 N334 1.384 . S
C332 H323 0.929 . S
C332 C324 1.378 . S
C332 C327 1.350 . S
C333 H320 0.929 . S
C333 C325 1.433 . S
C333 N335 1.384 . S
N334 C330 1.427 . S
N334 C331 1.384 . S
N335 C327 1.427 . S
N335 C333 1.384 . S
H336 C342 0.930 . S
H337 C346 0.930 . S
H338 C351 0.929 . S
H339 C349 0.929 . S
H340 C344 0.929 1_554 S
H341 C350 0.929 1_556 S
C342 H336 0.930 . S
C342 C343 1.367 . S
C342 C350 1.378 . S
C343 C342 1.367 . S
C343 C351 1.433 1_545 S
C344 H340 0.929 1_556 S
C344 C346 1.378 . S
C344 C348 1.350 . S
C345 C348 1.463 1_444 S
C345 C350 1.350 . S
C345 N353 1.427 1_545 S
C346 H337 0.930 . S
C346 C344 1.378 . S
C346 C347 1.367 . S
C347 C346 1.367 . S
C347 C349 1.433 1_565 S
C348 C344 1.350 . S
C348 C345 1.463 1_666 S
C348 N352 1.427 1_565 S
C349 H339 0.929 . S
C349 C347 1.433 1_545 S
C349 N352 1.384 . S
C350 H341 0.929 1_554 S
C350 C342 1.378 . S
C350 C345 1.350 . S
C351 H338 0.929 . S
C351 C343 1.433 1_565 S
C351 N353 1.384 . S
N352 C348 1.427 1_545 S
N352 C349 1.384 . S
N353 C345 1.427 1_565 S
N353 C351 1.384 . S
H354 C360 0.930 . S
H355 C364 0.930 . S
H356 C369 0.929 . S
H357 C367 0.929 . S
H358 C362 0.929 . S
H359 C368 0.929 . S
C360 H354 0.930 . S
C360 C361 1.367 1_545 S
C360 C368 1.378 . S
C361 C360 1.367 1_565 S
C361 C369 1.433 . S
C362 H358 0.929 . S
C362 C364 1.378 . S
C362 C366 1.350 1_565 S
C363 C366 1.463 1_564 S
C363 C368 1.350 1_565 S
C363 N371 1.427 1_554 S
C364 H355 0.930 . S
C364 C362 1.378 . S
C364 C365 1.367 1_565 S
C365 C364 1.367 1_545 S
C365 C367 1.433 . S
C366 C362 1.350 1_545 S
C366 C363 1.463 1_546 S
C366 N370 1.427 1_556 S
C367 H357 0.929 . S
C367 C365 1.433 . S
C367 N370 1.384 1_556 S
C368 H359 0.929 . S
C368 C360 1.378 . S
C368 C363 1.350 1_545 S
C369 H356 0.929 . S
C369 C361 1.433 . S
C369 N371 1.384 1_554 S
N370 C366 1.427 1_554 S
N370 C367 1.384 1_554 S
N371 C363 1.427 1_556 S
N371 C369 1.384 1_556 S
H372 C378 0.930 . S
H373 C382 0.930 . S
H374 C387 0.929 . S
H375 C385 0.929 . S
H376 C380 0.929 . S
H377 C386 0.929 . S
C378 H372 0.930 . S
C378 C379 1.367 . S
C378 C386 1.378 . S
C379 C378 1.367 . S
C379 C387 1.433 . S
C380 H376 0.929 . S
C380 C382 1.378 . S
C380 C384 1.350 . S
C381 C384 1.463 1_455 S
C381 C386 1.350 . S
C381 N389 1.427 . S
C382 H373 0.930 . S
C382 C380 1.378 . S
C382 C383 1.367 . S
C383 C382 1.367 . S
C383 C385 1.433 . S
C384 C380 1.350 . S
C384 C381 1.463 1_655 S
C384 N388 1.427 . S
C385 H375 0.929 . S
C385 C383 1.433 . S
C385 N388 1.384 . S
C386 H377 0.929 . S
C386 C378 1.378 . S
C386 C381 1.350 . S
C387 H374 0.929 . S
C387 C379 1.433 . S
C387 N389 1.384 . S
N388 C384 1.427 . S
N388 C385 1.384 . S
N389 C381 1.427 . S
N389 C387 1.384 . S
H390 C396 0.930 . S
H391 C400 0.930 . S
H392 C405 0.929 . S
H393 C403 0.929 . S
H394 C398 0.929 . S
H395 C404 0.929 . S
C396 H390 0.930 . S
C396 C397 1.367 . S
C396 C404 1.378 . S
C397 C396 1.367 . S
C397 C405 1.433 . S
C398 H394 0.929 . S
C398 C400 1.378 . S
C398 C402 1.350 . S
C399 C402 1.463 . S
C399 C404 1.350 . S
C399 N407 1.427 . S
C400 H391 0.930 . S
C400 C398 1.378 . S
C400 C401 1.367 . S
C401 C400 1.367 . S
C401 C403 1.433 . S
C402 C398 1.350 . S
C402 C399 1.463 . S
C402 N406 1.427 . S
C403 H393 0.929 . S
C403 C401 1.433 . S
C403 N406 1.384 . S
C404 H395 0.929 . S
C404 C396 1.378 . S
C404 C399 1.350 . S
C405 H392 0.929 . S
C405 C397 1.433 . S
C405 N407 1.384 . S
N406 C402 1.427 . S
N406 C403 1.384 . S
N407 C399 1.427 . S
N407 C405 1.384 . S
H408 C414 0.930 . S
H409 C418 0.930 . S
H410 C423 0.929 . S
H411 C421 0.929 . S
H412 C416 0.929 . S
H413 C422 0.929 . S
C414 H408 0.930 . S
C414 C415 1.367 . S
C414 C422 1.378 . S
C415 C414 1.367 . S
C415 C423 1.433 . S
C416 H412 0.929 . S
C416 C418 1.378 . S
C416 C420 1.350 . S
C417 C420 1.463 . S
C417 C422 1.350 . S
C417 N425 1.427 . S
C418 H409 0.930 . S
C418 C416 1.378 . S
C418 C419 1.367 . S
C419 C418 1.367 . S
C419 C421 1.433 . S
C420 C416 1.350 . S
C420 C417 1.463 . S
C420 N424 1.427 . S
C421 H411 0.929 . S
C421 C419 1.433 . S
C421 N424 1.384 . S
C422 H413 0.929 . S
C422 C414 1.378 . S
C422 C417 1.350 . S
C423 H410 0.929 . S
C423 C415 1.433 . S
C423 N425 1.384 . S
N424 C420 1.427 . S
N424 C421 1.384 . S
N425 C417 1.427 . S
N425 C423 1.384 . S
H426 C432 0.930 . S
H427 C436 0.930 . S
H428 C441 0.929 . S
H429 C439 0.929 . S
H430 C434 0.929 . S
H431 C440 0.929 . S
C432 H426 0.930 . S
C432 C433 1.367 . S
C432 C440 1.378 . S
C433 C432 1.367 . S
C433 C441 1.433 . S
C434 H430 0.929 . S
C434 C436 1.378 . S
C434 C438 1.350 . S
C435 C438 1.463 . S
C435 C440 1.350 . S
C435 N443 1.427 . S
C436 H427 0.930 . S
C436 C434 1.378 . S
C436 C437 1.367 . S
C437 C436 1.367 . S
C437 C439 1.433 . S
C438 C434 1.350 . S
C438 C435 1.463 . S
C438 N442 1.427 . S
C439 H429 0.929 . S
C439 C437 1.433 . S
C439 N442 1.384 . S
C440 H431 0.929 . S
C440 C432 1.378 . S
C440 C435 1.350 . S
C441 H428 0.929 . S
C441 C433 1.433 . S
C441 N443 1.384 . S
N442 C438 1.427 . S
N442 C439 1.384 . S
N443 C435 1.427 . S
N443 C441 1.384 . S
H444 C450 0.930 . S
H445 C454 0.930 . S
H446 C459 0.929 . S
H447 C457 0.929 . S
H448 C452 0.929 . S
H449 C458 0.929 . S
C450 H444 0.930 . S
C450 C451 1.367 . S
C450 C458 1.378 . S
C451 C450 1.367 . S
C451 C459 1.433 . S
C452 H448 0.929 . S
C452 C454 1.378 . S
C452 C456 1.350 . S
C453 C456 1.463 . S
C453 C458 1.350 . S
C453 N461 1.427 . S
C454 H445 0.930 . S
C454 C452 1.378 . S
C454 C455 1.367 . S
C455 C454 1.367 . S
C455 C457 1.433 . S
C456 C452 1.350 . S
C456 C453 1.463 . S
C456 N460 1.427 . S
C457 H447 0.929 . S
C457 C455 1.433 . S
C457 N460 1.384 . S
C458 H449 0.929 . S
C458 C450 1.378 . S
C458 C453 1.350 . S
C459 H446 0.929 . S
C459 C451 1.433 . S
C459 N461 1.384 . S
N460 C456 1.427 . S
N460 C457 1.384 . S
N461 C453 1.427 . S
N461 C459 1.384 . S
H462 C468 0.930 . S
H463 C472 0.930 . S
H464 C477 0.929 . S
H465 C475 0.929 . S
H466 C470 0.929 . S
H467 C476 0.929 . S
C468 H462 0.930 . S
C468 C469 1.367 . S
C468 C476 1.378 . S
C469 C468 1.367 . S
C469 C477 1.433 . S
C470 H466 0.929 . S
C470 C472 1.378 . S
C470 C474 1.350 . S
C471 C474 1.463 . S
C471 C476 1.350 . S
C471 N479 1.427 . S
C472 H463 0.930 . S
C472 C470 1.378 . S
C472 C473 1.367 . S
C473 C472 1.367 . S
C473 C475 1.433 . S
C474 C470 1.350 . S
C474 C471 1.463 . S
C474 N478 1.427 . S
C475 H465 0.929 . S
C475 C473 1.433 . S
C475 N478 1.384 . S
C476 H467 0.929 . S
C476 C468 1.378 . S
C476 C471 1.350 . S
C477 H464 0.929 . S
C477 C469 1.433 . S
C477 N479 1.384 . S
N478 C474 1.427 . S
N478 C475 1.384 . S
N479 C471 1.427 . S
N479 C477 1.384 . S
H480 C486 0.930 . S
H481 C490 0.930 . S
H482 C495 0.929 . S
H483 C493 0.929 . S
H484 C488 0.929 . S
H485 C494 0.929 . S
C486 H480 0.930 . S
C486 C487 1.367 . S
C486 C494 1.378 . S
C487 C486 1.367 . S
C487 C495 1.433 . S
C488 H484 0.929 . S
C488 C490 1.378 . S
C488 C492 1.350 . S
C489 C492 1.463 . S
C489 C494 1.350 . S
C489 N497 1.427 . S
C490 H481 0.930 . S
C490 C488 1.378 . S
C490 C491 1.367 . S
C491 C490 1.367 . S
C491 C493 1.433 . S
C492 C488 1.350 . S
C492 C489 1.463 . S
C492 N496 1.427 . S
C493 H483 0.929 . S
C493 C491 1.433 . S
C493 N496 1.384 . S
C494 H485 0.929 . S
C494 C486 1.378 . S
C494 C489 1.350 . S
C495 H482 0.929 . S
C495 C487 1.433 . S
C495 N497 1.384 . S
N496 C492 1.427 . S
N496 C493 1.384 . S
N497 C489 1.427 . S
N497 C495 1.384 . S
H498 C504 0.930 . S
H499 C508 0.930 . S
H500 C513 0.929 . S
H501 C511 0.929 . S
H502 C506 0.929 . S
H503 C512 0.929 . S
C504 H498 0.930 . S
C504 C505 1.367 . S
C504 C512 1.378 . S
C505 C504 1.367 . S
C505 C513 1.433 . S
C506 H502 0.929 . S
C506 C508 1.378 . S
C506 C510 1.350 . S
C507 C510 1.463 . S
C507 C512 1.350 . S
C507 N515 1.427 . S
C508 H499 0.930 . S
C508 C506 1.378 . S
C508 C509 1.367 . S
C509 C508 1.367 . S
C509 C511 1.433 . S
C510 C506 1.350 . S
C510 C507 1.463 . S
C510 N514 1.427 . S
C511 H501 0.929 . S
C511 C509 1.433 . S
C511 N514 1.384 . S
C512 H503 0.929 . S
C512 C504 1.378 . S
C512 C507 1.350 . S
C513 H500 0.929 . S
C513 C505 1.433 . S
C513 N515 1.384 . S
N514 C510 1.427 . S
N514 C511 1.384 . S
N515 C507 1.427 . S
N515 C513 1.384 . S
H516 C522 0.930 . S
H517 C526 0.930 . S
H518 C531 0.929 . S
H519 C529 0.929 . S
H520 C524 0.929 . S
H521 C530 0.929 . S
C522 H516 0.930 . S
C522 C523 1.367 . S
C522 C530 1.378 1_545 S
C523 C522 1.367 . S
C523 C531 1.433 . S
C524 H520 0.929 . S
C524 C526 1.378 . S
C524 C528 1.350 . S
C525 C528 1.463 . S
C525 C530 1.350 . S
C525 N533 1.427 . S
C526 H517 0.930 . S
C526 C524 1.378 . S
C526 C527 1.367 . S
C527 C526 1.367 . S
C527 C529 1.433 . S
C528 C524 1.350 . S
C528 C525 1.463 . S
C528 N532 1.427 . S
C529 H519 0.929 . S
C529 C527 1.433 . S
C529 N532 1.384 . S
C530 H521 0.929 . S
C530 C522 1.378 1_565 S
C530 C525 1.350 . S
C531 H518 0.929 . S
C531 C523 1.433 . S
C531 N533 1.384 1_545 S
N532 C528 1.427 . S
N532 C529 1.384 . S
N533 C525 1.427 . S
N533 C531 1.384 1_565 S
H534 C540 0.930 . S
H535 C544 0.930 . S
H536 C549 0.929 . S
H537 C547 0.929 . S
H538 C542 0.929 . S
H539 C548 0.929 . S
C540 H534 0.930 . S
C540 C541 1.367 . S
C540 C548 1.378 1_565 S
C541 C540 1.367 . S
C541 C549 1.433 . S
C542 H538 0.929 . S
C542 C544 1.378 . S
C542 C546 1.350 . S
C543 C546 1.463 . S
C543 C548 1.350 . S
C543 N551 1.427 . S
C544 H535 0.930 . S
C544 C542 1.378 . S
C544 C545 1.367 . S
C545 C544 1.367 . S
C545 C547 1.433 . S
C546 C542 1.350 . S
C546 C543 1.463 . S
C546 N550 1.427 . S
C547 H537 0.929 . S
C547 C545 1.433 . S
C547 N550 1.384 . S
C548 H539 0.929 . S
C548 C540 1.378 1_545 S
C548 C543 1.350 . S
C549 H536 0.929 . S
C549 C541 1.433 . S
C549 N551 1.384 1_565 S
N550 C546 1.427 . S
N550 C547 1.384 . S
N551 C543 1.427 . S
N551 C549 1.384 1_545 S
H552 C558 0.930 . S
H553 C562 0.930 . S
H554 C567 0.929 . S
H555 C565 0.929 . S
H556 C560 0.929 . S
H557 C566 0.929 . S
C558 H552 0.930 . S
C558 C559 1.367 . S
C558 C566 1.378 . S
C559 C558 1.367 . S
C559 C567 1.433 . S
C560 H556 0.929 . S
C560 C562 1.378 . S
C560 C564 1.350 . S
C561 C564 1.463 . S
C561 C566 1.350 . S
C561 N569 1.427 . S
C562 H553 0.930 . S
C562 C560 1.378 . S
C562 C563 1.367 . S
C563 C562 1.367 . S
C563 C565 1.433 . S
C564 C560 1.350 . S
C564 C561 1.463 . S
C564 N568 1.427 . S
C565 H555 0.929 . S
C565 C563 1.433 . S
C565 N568 1.384 . S
C566 H557 0.929 . S
C566 C558 1.378 . S
C566 C561 1.350 . S
C567 H554 0.929 . S
C567 C559 1.433 . S
C567 N569 1.384 . S
N568 C564 1.427 . S
N568 C565 1.384 . S
N569 C561 1.427 . S
N569 C567 1.384 . S
H570 C576 0.930 . S
H571 C580 0.930 . S
H572 C585 0.929 . S
H573 C583 0.929 . S
H574 C578 0.929 . S
H575 C584 0.929 . S
C576 H570 0.930 . S
C576 C577 1.367 . S
C576 C584 1.378 . S
C577 C576 1.367 . S
C577 C585 1.433 . S
C578 H574 0.929 . S
C578 C580 1.378 . S
C578 C582 1.350 . S
C579 C582 1.463 . S
C579 C584 1.350 . S
C579 N587 1.427 . S
C580 H571 0.930 . S
C580 C578 1.378 . S
C580 C581 1.367 . S
C581 C580 1.367 . S
C581 C583 1.433 . S
C582 C578 1.350 . S
C582 C579 1.463 . S
C582 N586 1.427 . S
C583 H573 0.929 . S
C583 C581 1.433 . S
C583 N586 1.384 . S
C584 H575 0.929 . S
C584 C576 1.378 . S
C584 C579 1.350 . S
C585 H572 0.929 . S
C585 C577 1.433 . S
C585 N587 1.384 . S
N586 C582 1.427 . S
N586 C583 1.384 . S
N587 C579 1.427 . S
N587 C585 1.384 . S
H588 C594 0.930 . S
H589 C598 0.930 . S
H590 C603 0.929 . S
H591 C601 0.929 . S
H592 C596 0.929 . S
H593 C602 0.929 . S
C594 H588 0.930 . S
C594 C595 1.367 . S
C594 C602 1.378 1_565 S
C595 C594 1.367 . S
C595 C603 1.433 . S
C596 H592 0.929 . S
C596 C598 1.378 . S
C596 C600 1.350 . S
C597 C600 1.463 . S
C597 C602 1.350 . S
C597 N605 1.427 . S
C598 H589 0.930 . S
C598 C596 1.378 . S
C598 C599 1.367 . S
C599 C598 1.367 . S
C599 C601 1.433 . S
C600 C596 1.350 . S
C600 C597 1.463 . S
C600 N604 1.427 . S
C601 H591 0.929 . S
C601 C599 1.433 . S
C601 N604 1.384 . S
C602 H593 0.929 . S
C602 C594 1.378 1_545 S
C602 C597 1.350 . S
C603 H590 0.929 . S
C603 C595 1.433 . S
C603 N605 1.384 1_565 S
N604 C600 1.427 . S
N604 C601 1.384 . S
N605 C597 1.427 . S
N605 C603 1.384 1_545 S
H606 C612 0.930 . S
H607 C616 0.930 . S
H608 C621 0.929 . S
H609 C619 0.929 . S
H610 C614 0.929 . S
H611 C620 0.929 . S
C612 H606 0.930 . S
C612 C613 1.367 . S
C612 C620 1.378 . S
C613 C612 1.367 . S
C613 C621 1.433 . S
C614 H610 0.929 . S
C614 C616 1.378 1_565 S
C614 C618 1.350 . S
C615 C618 1.463 . S
C615 C620 1.350 . S
C615 N623 1.427 . S
C616 H607 0.930 . S
C616 C614 1.378 1_545 S
C616 C617 1.367 . S
C617 C616 1.367 . S
C617 C619 1.433 . S
C618 C614 1.350 . S
C618 C615 1.463 . S
C618 N622 1.427 . S
C619 H609 0.929 . S
C619 C617 1.433 . S
C619 N622 1.384 1_545 S
C620 H611 0.929 . S
C620 C612 1.378 . S
C620 C615 1.350 . S
C621 H608 0.929 . S
C621 C613 1.433 . S
C621 N623 1.384 . S
N622 C618 1.427 . S
N622 C619 1.384 1_565 S
N623 C615 1.427 . S
N623 C621 1.384 . S
C271 C17 1.498 . S
C275 C50 1.493 . S
C289 C116 1.498 . S
C293 C83 1.493 . S
C307 C149 1.493 . S
C311 C182 1.498 . S
C325 C248 1.489 . S
C329 C215 1.495 . S
C343 C28 1.053 . S
C347 C160 1.053 . S
C361 C61 1.048 . S
C365 C193 1.048 . S
C379 C94 1.052 . S
C383 C226 1.052 . S
C397 C127 1.049 . S
C401 C259 1.049 . S
C415 C74 1.441 . S
C419 C8 1.434 . S
C433 C107 1.440 . S
C437 C41 1.434 . S
C451 C140 1.443 . S
C455 C206 1.436 . S
C469 C173 1.443 . S
C473 C239 1.438 . S
C487 N5 1.365 . S
C491 N14 1.365 . S
C505 N38 1.369 . S
C509 N47 1.367 . S
C523 N80 1.364 . S
C527 N71 1.365 . S
C541 N113 1.364 . S
C545 N104 1.365 . S
C559 N146 1.364 . S
C563 N137 1.365 . S
C577 N170 1.365 . S
C581 N179 1.364 . S
C595 N212 1.371 . S
C599 N203 1.372 . S
C613 N236 1.366 . S
C617 N245 1.365 . S
