# Generated by pormake.
# Topology crb, (4)-cn, num edge types: 1
# Building blocks:
#     Node 0, Type 0, BuildingBlock: TATPOV_clean_sbu_0, # of connection points: 4
#     Node 1, Type 0, BuildingBlock: TATPOV_clean_sbu_0, # of connection points: 4
#     Node 2, Type 0, BuildingBlock: TATPOV_clean_sbu_0, # of connection points: 4
#     Node 3, Type 0, BuildingBlock: TATPOV_clean_sbu_0, # of connection points: 4
#     Node 4, Type 0, BuildingBlock: TATPOV_clean_sbu_0, # of connection points: 4
#     Node 5, Type 0, BuildingBlock: TATPOV_clean_sbu_0, # of connection points: 4
#     Node 6, Type 0, BuildingBlock: TATPOV_clean_sbu_0, # of connection points: 4
#     Node 7, Type 0, BuildingBlock: TATPOV_clean_sbu_0, # of connection points: 4
#     Edge 8, Type (0, 0), BuildingBlock: ZUJKAS_clean_linker_0, # of connection points: 2
#     Edge 9, Type (0, 0), BuildingBlock: ZUJKAS_clean_linker_0, # of connection points: 2
#     Edge 10, Type (0, 0), BuildingBlock: ZUJKAS_clean_linker_0, # of connection points: 2
#     Edge 11, Type (0, 0), BuildingBlock: ZUJKAS_clean_linker_0, # of connection points: 2
#     Edge 12, Type (0, 0), BuildingBlock: ZUJKAS_clean_linker_0, # of connection points: 2
#     Edge 13, Type (0, 0), BuildingBlock: ZUJKAS_clean_linker_0, # of connection points: 2
#     Edge 14, Type (0, 0), BuildingBlock: ZUJKAS_clean_linker_0, # of connection points: 2
#     Edge 15, Type (0, 0), BuildingBlock: ZUJKAS_clean_linker_0, # of connection points: 2
#     Edge 16, Type (0, 0), BuildingBlock: ZUJKAS_clean_linker_0, # of connection points: 2
#     Edge 17, Type (0, 0), BuildingBlock: ZUJKAS_clean_linker_0, # of connection points: 2
#     Edge 18, Type (0, 0), BuildingBlock: ZUJKAS_clean_linker_0, # of connection points: 2
#     Edge 19, Type (0, 0), BuildingBlock: ZUJKAS_clean_linker_0, # of connection points: 2
#     Edge 20, Type (0, 0), BuildingBlock: ZUJKAS_clean_linker_0, # of connection points: 2
#     Edge 21, Type (0, 0), BuildingBlock: ZUJKAS_clean_linker_0, # of connection points: 2
#     Edge 22, Type (0, 0), BuildingBlock: ZUJKAS_clean_linker_0, # of connection points: 2
#     Edge 23, Type (0, 0), BuildingBlock: ZUJKAS_clean_linker_0, # of connection points: 2
# Relax obj value: 0.016
# Max RMSD: 0.048
# Mean RMSD: 0.048
data_MOF--net-crb--node1-TATPOV_clean_sbu_0--edge1-ZUJKAS_clean_linker_0
_symmetry_space_group_name_H-M    P1
_symmetry_Int_Tables_number       1
_symmetry_cell_setting            triclinic
loop_
_symmetry_equiv_pos_as_xyz
'x, y, z'
_cell_length_a     56.317489
_cell_length_b     52.947777
_cell_length_c     32.428919
_cell_angle_alpha  90.020679
_cell_angle_beta   90.077609
_cell_angle_gamma 90.003251
loop_
_atom_site_label
_atom_site_type_symbol
_atom_site_fract_x
_atom_site_fract_y
_atom_site_fract_z
_atom_type_partial_charge
Zn0 Zn 0.34987 0.34578 0.16288 0.0
Zn1 Zn 0.32966 0.31958 0.10103 0.0
O2 O 0.3651 0.31034 0.09478 0.0
O3 O 0.38194 0.33319 0.14349 0.0
O4 O 0.31361 0.30122 0.05386 0.0
O5 O 0.33058 0.3259 0.20402 0.0
O6 O 0.31318 0.30535 0.15329 0.0
C7 C 0.3837 0.31786 0.11362 0.0
C8 C 0.32618 0.37792 0.1054 0.0
O9 O 0.32248 0.3569 0.08732 0.0
O10 O 0.33705 0.37843 0.1396 0.0
C11 C 0.31879 0.30697 0.01685 0.0
O12 O 0.33499 0.32434 0.01016 0.0
C13 C 0.31565 0.30964 0.19179 0.0
Zn14 Zn 0.64674 0.34112 0.88947 0.0
Zn15 Zn 0.66885 0.31752 0.95112 0.0
O16 O 0.63352 0.30859 0.96148 0.0
O17 O 0.61522 0.33042 0.91319 0.0
O18 O 0.68608 0.30099 0.99895 0.0
O19 O 0.66366 0.31916 0.84839 0.0
O20 O 0.68402 0.30144 0.89865 0.0
C21 C 0.61435 0.31594 0.94422 0.0
C22 C 0.67252 0.37547 0.94002 0.0
O23 O 0.67638 0.35533 0.96052 0.0
O24 O 0.6609 0.37449 0.90662 0.0
C25 C 0.68035 0.30689 0.03567 0.0
O26 O 0.66303 0.32314 0.04143 0.0
C27 C 0.67952 0.30384 0.86022 0.0
Zn28 Zn 0.64854 0.65627 0.1685 0.0
Zn29 Zn 0.66952 0.67959 0.10425 0.0
O30 O 0.63397 0.68803 0.09706 0.0
O31 O 0.61662 0.66991 0.15016 0.0
O32 O 0.68431 0.69657 0.05456 0.0
O33 O 0.66909 0.67642 0.20729 0.0
O34 O 0.68643 0.69557 0.15511 0.0
C35 C 0.61524 0.68295 0.1175 0.0
C36 C 0.6719 0.62167 0.11349 0.0
O37 O 0.67676 0.64199 0.09419 0.0
O38 O 0.6601 0.62255 0.14671 0.0
C39 C 0.70509 0.69099 0.04222 0.0
O40 O 0.71763 0.67449 0.06325 0.0
C41 C 0.68416 0.69216 0.19391 0.0
Zn42 Zn 0.35395 0.65935 0.87953 0.0
Zn43 Zn 0.33051 0.68024 0.94367 0.0
O44 O 0.36559 0.68865 0.95566 0.0
O45 O 0.38502 0.67216 0.90332 0.0
O46 O 0.31347 0.69575 0.99244 0.0
O47 O 0.33494 0.68099 0.84044 0.0
O48 O 0.31538 0.69762 0.89256 0.0
C49 C 0.38509 0.68417 0.93712 0.0
C50 C 0.32868 0.62281 0.9285 0.0
O51 O 0.32318 0.64233 0.94942 0.0
O52 O 0.34145 0.62495 0.89655 0.0
C53 C 0.31546 0.68566 0.02789 0.0
O54 O 0.32855 0.66527 0.03194 0.0
C55 C 0.31913 0.69589 0.85383 0.0
Zn56 Zn 0.85454 0.84228 0.66536 0.0
Zn57 Zn 0.83162 0.81867 0.60379 0.0
O58 O 0.86684 0.80962 0.59318 0.0
O59 O 0.88557 0.82792 0.64485 0.0
O60 O 0.81423 0.8018 0.55644 0.0
O61 O 0.83537 0.82294 0.70679 0.0
O62 O 0.81638 0.8033 0.6568 0.0
C63 C 0.88606 0.81462 0.61239 0.0
C64 C 0.83016 0.87676 0.61193 0.0
O65 O 0.82451 0.85633 0.59358 0.0
O66 O 0.84288 0.87603 0.64415 0.0
C67 C 0.81966 0.80771 0.51958 0.0
O68 O 0.8367 0.82423 0.51343 0.0
C69 C 0.81992 0.80708 0.69525 0.0
Zn70 Zn 0.14764 0.83827 0.37832 0.0
Zn71 Zn 0.17097 0.81796 0.44321 0.0
O72 O 0.13598 0.80864 0.45438 0.0
O73 O 0.11674 0.82482 0.40146 0.0
O74 O 0.18852 0.80305 0.49196 0.0
O75 O 0.16697 0.81674 0.33964 0.0
O76 O 0.18671 0.801 0.39238 0.0
C77 C 0.11658 0.81273 0.43518 0.0
C78 C 0.17187 0.87535 0.42819 0.0
O79 O 0.1774 0.85596 0.44941 0.0
O80 O 0.15957 0.87292 0.39568 0.0
C81 C 0.18246 0.80892 0.52852 0.0
O82 O 0.16456 0.82449 0.53393 0.0
C83 C 0.18302 0.80231 0.35358 0.0
Zn84 Zn 0.1502 0.15284 0.66226 0.0
Zn85 Zn 0.17093 0.17878 0.60077 0.0
O86 O 0.13556 0.18797 0.59329 0.0
O87 O 0.1183 0.16534 0.64169 0.0
O88 O 0.18731 0.19694 0.55388 0.0
O89 O 0.16917 0.1729 0.70378 0.0
O90 O 0.18703 0.19319 0.65335 0.0
C91 C 0.1168 0.1805 0.61157 0.0
C92 C 0.17424 0.12047 0.6056 0.0
O93 O 0.17812 0.14143 0.5875 0.0
O94 O 0.16317 0.12009 0.63955 0.0
C95 C 0.18227 0.19108 0.51683 0.0
O96 O 0.16605 0.17373 0.51 0.0
C97 C 0.18424 0.18908 0.69183 0.0
Zn98 Zn 0.85272 0.15765 0.38573 0.0
Zn99 Zn 0.83211 0.18079 0.45003 0.0
O100 O 0.86762 0.18969 0.45728 0.0
O101 O 0.88488 0.16872 0.40692 0.0
O102 O 0.81693 0.19728 0.49997 0.0
O103 O 0.83387 0.17964 0.34701 0.0
O104 O 0.81532 0.19718 0.39944 0.0
C105 C 0.88639 0.18286 0.43833 0.0
C106 C 0.82859 0.12286 0.43811 0.0
O107 O 0.82506 0.14286 0.45915 0.0
O108 O 0.83941 0.12409 0.40399 0.0
C109 C 0.79703 0.18978 0.51392 0.0
O110 O 0.78572 0.17161 0.49452 0.0
C111 C 0.81839 0.19486 0.36059 0.0
H112 H 0.31216 0.38552 0.02534 0.0
H113 H 0.30593 0.42616 0.99064 0.0
H114 H 0.31885 0.46528 0.10503 0.0
H115 H 0.32526 0.42494 0.13996 0.0
H116 H 0.27635 0.48206 0.04576 0.0
H117 H 0.36762 0.47582 0.97999 0.0
H118 H 0.34853 0.44853 0.97747 0.0
H119 H 0.35947 0.45913 0.02642 0.0
C120 C 0.31328 0.40274 0.04328 0.0
C121 C 0.3194 0.40201 0.08535 0.0
C122 C 0.30973 0.4259 0.02339 0.0
C123 C 0.31202 0.4486 0.04536 0.0
C124 C 0.31697 0.44791 0.08768 0.0
H125 H 0.31254 0.60917 0.00489 0.0
H126 H 0.30552 0.56643 0.03051 0.0
C127 C 0.32071 0.42483 0.1075 0.0
C128 C 0.31138 0.47316 0.02377 0.0
H129 H 0.34607 0.51278 0.96702 0.0
C130 C 0.29145 0.48879 0.02818 0.0
C131 C 0.33112 0.4817 1.00089 0.0
C132 C 0.35302 0.46558 0.99581 0.0
C133 C 0.29081 0.51299 0.01035 0.0
C134 C 0.31093 0.52194 0.98861 0.0
C135 C 0.33064 0.50597 0.98361 0.0
C136 C 0.31254 0.54805 0.97208 0.0
C137 C 0.26853 0.52856 0.01469 0.0
C138 C 0.31908 0.55204 0.93083 0.0
C139 C 0.32357 0.57642 0.91634 0.0
C140 C 0.3215 0.59736 0.94275 0.0
C141 C 0.3141 0.59346 0.98366 0.0
C142 C 0.3099 0.56901 0.99828 0.0
H143 H 0.25268 0.51638 0.01925 0.0
H144 H 0.27019 0.54094 0.04215 0.0
H145 H 0.26554 0.54064 0.98718 0.0
H146 H 0.3213 0.53619 0.91006 0.0
H147 H 0.32915 0.57879 0.88462 0.0
H148 H 0.39562 0.27787 0.06364 0.0
H149 H 0.43529 0.26669 0.0383 0.0
H150 H 0.46487 0.33032 0.10382 0.0
H151 H 0.42583 0.34069 0.13067 0.0
H152 H 0.46307 0.29022 0.98983 0.0
H153 H 0.51276 0.27958 0.13463 0.0
H154 H 0.48079 0.28153 0.13383 0.0
H155 H 0.49865 0.30985 0.13489 0.0
C156 C 0.4107 0.28917 0.07316 0.0
C157 C 0.4076 0.31003 0.09944 0.0
C158 C 0.43337 0.28277 0.05868 0.0
C159 C 0.4533 0.29727 0.0699 0.0
C160 C 0.45008 0.31817 0.09596 0.0
H161 H 0.57183 0.33808 0.92796 0.0
H162 H 0.53335 0.32839 0.95763 0.0
C163 C 0.42761 0.32426 0.111 0.0
C164 C 0.47709 0.29221 0.05167 0.0
H165 H 0.53624 0.29293 0.07498 0.0
C166 C 0.47902 0.29026 0.00861 0.0
C167 C 0.49805 0.29141 0.0759 0.0
C168 C 0.49738 0.29039 0.12238 0.0
C169 C 0.50125 0.28953 0.9891 0.0
C170 C 0.52216 0.29189 0.01314 0.0
C171 C 0.52028 0.29179 0.05631 0.0
C172 C 0.54577 0.29679 0.99417 0.0
C173 C 0.50196 0.28652 0.94285 0.0
C174 C 0.56601 0.28299 0.00603 0.0
C175 C 0.58839 0.28898 0.98977 0.0
C176 C 0.59086 0.30876 0.96116 0.0
C177 C 0.57056 0.32245 0.94939 0.0
C178 C 0.5484 0.31675 0.96608 0.0
H179 H 0.48675 0.27494 0.93184 0.0
H180 H 0.50041 0.30537 0.92814 0.0
H181 H 0.5187 0.27747 0.93245 0.0
H182 H 0.56452 0.26769 0.02803 0.0
H183 H 0.6037 0.27815 0.99956 0.0
H184 H 0.67694 0.41957 0.89742 0.0
H185 H 0.68431 0.46166 0.92532 0.0
H186 H 0.69092 0.43013 0.04747 0.0
H187 H 0.68435 0.38779 0.01948 0.0
H188 H 0.65594 0.48496 0.97736 0.0
H189 H 0.74519 0.47921 0.04849 0.0
H190 H 0.7342 0.45548 0.01333 0.0
H191 H 0.72564 0.45496 0.0668 0.0
C192 C 0.68044 0.42152 0.93012 0.0
C193 C 0.68 0.40036 0.95628 0.0
C194 C 0.68466 0.44561 0.94603 0.0
C195 C 0.68838 0.44911 0.98846 0.0
C196 C 0.68869 0.4279 0.0145 0.0
H197 H 0.66879 0.57538 0.15041 0.0
H198 H 0.67572 0.53405 0.11899 0.0
C199 C 0.68478 0.40369 0.99849 0.0
C200 C 0.68931 0.47509 0.00573 0.0
H201 H 0.72096 0.51446 0.06881 0.0
C202 C 0.67035 0.49148 0.99686 0.0
C203 C 0.70807 0.48362 0.03131 0.0
C204 C 0.72954 0.46747 0.04022 0.0
C205 C 0.66935 0.51585 0.01362 0.0
C206 C 0.68777 0.5241 0.03994 0.0
C207 C 0.70688 0.50796 0.04856 0.0
C208 C 0.68664 0.54911 0.06006 0.0
C209 C 0.6483 0.5325 0.00402 0.0
C210 C 0.69101 0.57119 0.03744 0.0
C211 C 0.68714 0.5949 0.0553 0.0
C212 C 0.67864 0.59683 0.09597 0.0
C213 C 0.67519 0.57458 0.11896 0.0
C214 C 0.67923 0.55094 0.10116 0.0
H215 H 0.63437 0.52238 0.98621 0.0
H216 H 0.64036 0.53975 0.03303 0.0
H217 H 0.65427 0.54903 0.98573 0.0
H218 H 0.69673 0.57006 0.00561 0.0
H219 H 0.69 0.61163 0.03677 0.0
H220 H 0.42914 0.68315 0.90185 0.0
H221 H 0.46744 0.68994 0.93571 0.0
H222 H 0.4317 0.70742 0.0496 0.0
H223 H 0.39316 0.70083 0.016 0.0
H224 H 0.48418 0.73664 0.99244 0.0
H225 H 0.47761 0.64093 0.06324 0.0
H226 H 0.46204 0.64882 0.01625 0.0
H227 H 0.45208 0.66144 0.0645 0.0
C228 C 0.42935 0.6888 0.93395 0.0
C229 C 0.40806 0.69127 0.9563 0.0
C230 C 0.45126 0.69275 0.95316 0.0
C231 C 0.45231 0.69908 0.99507 0.0
C232 C 0.43117 0.70255 0.01716 0.0
H233 H 0.57331 0.6839 0.15963 0.0
H234 H 0.53364 0.69173 0.13197 0.0
C235 C 0.40919 0.69879 0.99789 0.0
C236 C 0.47554 0.69988 0.01632 0.0
H237 H 0.5124 0.66396 0.07566 0.0
C238 C 0.49038 0.72089 0.01092 0.0
C239 C 0.48342 0.6793 0.04037 0.0
C240 C 0.46811 0.65621 0.04654 0.0
C241 C 0.51306 0.72182 0.02908 0.0
C242 C 0.52126 0.70087 0.05224 0.0
C243 C 0.50615 0.68004 0.058 0.0
C244 C 0.54562 0.69953 0.06987 0.0
C245 C 0.52784 0.74535 0.02369 0.0
C246 C 0.56568 0.70171 0.04438 0.0
C247 C 0.58847 0.69753 0.06028 0.0
C248 C 0.59158 0.6906 0.10179 0.0
C249 C 0.57153 0.6891 0.12747 0.0
C250 C 0.54882 0.69358 0.1117 0.0
H251 H 0.51651 0.76212 0.01753 0.0
H252 H 0.53887 0.74917 0.05139 0.0
H253 H 0.53981 0.74284 0.99685 0.0
H254 H 0.56369 0.70562 0.01179 0.0
H255 H 0.60352 0.69862 0.03959 0.0
H256 H 0.81119 0.88649 0.53566 0.0
H257 H 0.80429 0.92797 0.50421 0.0
H258 H 0.82677 0.9644 0.61652 0.0
H259 H 0.83387 0.92318 0.64821 0.0
H260 H 0.78082 0.9838 0.56686 0.0
H261 H 0.86692 0.97541 0.4832 0.0
H262 H 0.847 0.94877 0.48371 0.0
H263 H 0.86134 0.95842 0.53049 0.0
C264 C 0.81431 0.90331 0.55391 0.0
C265 C 0.82327 0.90153 0.59435 0.0
C266 C 0.81036 0.92695 0.53589 0.0
C267 C 0.81509 0.94911 0.55811 0.0
C268 C 0.82297 0.94743 0.599 0.0
H269 H 0.81736 0.11032 0.5177 0.0
H270 H 0.81101 0.06792 0.54553 0.0
C271 C 0.8271 0.92386 0.61695 0.0
C272 C 0.81388 0.97404 0.53777 0.0
H273 H 0.84558 0.01302 0.47492 0.0
C274 C 0.79484 0.99023 0.54649 0.0
C275 C 0.8322 0.98219 0.51127 0.0
C276 C 0.85315 0.96545 0.50151 0.0
C277 C 0.79365 0.01457 0.52923 0.0
C278 C 0.81236 0.02303 0.50355 0.0
C279 C 0.83122 0.00656 0.49452 0.0
C280 C 0.81333 0.04903 0.4864 0.0
C281 C 0.77226 0.03078 0.53826 0.0
C282 C 0.81691 0.05259 0.44397 0.0
C283 C 0.82101 0.07671 0.42815 0.0
C284 C 0.8215 0.09785 0.4544 0.0
C285 C 0.81692 0.09443 0.49664 0.0
C286 C 0.81312 0.0702 0.51256 0.0
H287 H 0.75659 0.01909 0.54651 0.0
H288 H 0.77626 0.04324 0.5649 0.0
H289 H 0.76757 0.04283 0.51144 0.0
H290 H 0.81718 0.03657 0.42319 0.0
H291 H 0.82434 0.07872 0.39542 0.0
H292 H 0.10744 0.79885 0.515 0.0
H293 H 0.06845 0.79181 0.54654 0.0
H294 H 0.03475 0.80268 0.42847 0.0
H295 H 0.0735 0.80996 0.39673 0.0
H296 H 0.0311 0.83175 0.53889 0.0
H297 H 0.0025 0.7377 0.48069 0.0
H298 H 0.0334 0.74669 0.48471 0.0
H299 H 0.01539 0.75903 0.44374 0.0
C300 C 0.09178 0.79924 0.49558 0.0
C301 C 0.09356 0.80509 0.45339 0.0
C302 C 0.06954 0.79523 0.51366 0.0
C303 C 0.0488 0.79652 0.48972 0.0
C304 C 0.05059 0.80126 0.44733 0.0
H305 H 0.89721 0.8025 0.53253 0.0
H306 H 0.93704 0.79595 0.5039 0.0
C307 C 0.07275 0.80557 0.42932 0.0
C308 C 0.02517 0.79585 0.50962 0.0
H309 H 0.97348 0.7623 0.51527 0.0
C310 C 0.01855 0.81645 0.53416 0.0
C311 C 0.00881 0.77607 0.50267 0.0
C312 C 0.01531 0.75347 0.47673 0.0
C313 C 0.99577 0.81814 0.55131 0.0
C314 C 0.97938 0.7982 0.54487 0.0
C315 C 0.98607 0.77748 0.52042 0.0
C316 C 0.9551 0.79897 0.56267 0.0
C317 C 0.98923 0.84177 0.5748 0.0
C318 C 0.95194 0.80177 0.60534 0.0
C319 C 0.92933 0.80588 0.62162 0.0
C320 C 0.90933 0.80668 0.59565 0.0
C321 C 0.91229 0.80202 0.55328 0.0
C322 C 0.93503 0.79829 0.5369 0.0
H323 H 0.00103 0.85785 0.56675 0.0
H324 H 0.97058 0.84741 0.56856 0.0
H325 H 0.99115 0.83819 0.60835 0.0
H326 H 0.96707 0.80158 0.62598 0.0
H327 H 0.92758 0.80902 0.65449 0.0
H328 H 0.18879 0.11273 0.52592 0.0
H329 H 0.1948 0.07204 0.49127 0.0
H330 H 0.18069 0.03302 0.60522 0.0
H331 H 0.17449 0.07342 0.64011 0.0
H332 H 0.22386 0.0163 0.5453 0.0
H333 H 0.13216 0.02256 0.48086 0.0
H334 H 0.15117 0.04994 0.47924 0.0
H335 H 0.14035 0.03873 0.52782 0.0
C336 C 0.18737 0.09552 0.5438 0.0
C337 C 0.18097 0.09631 0.58572 0.0
C338 C 0.1908 0.07233 0.52393 0.0
C339 C 0.1881 0.04966 0.54577 0.0
C340 C 0.18288 0.05039 0.58797 0.0
H341 H 0.18791 0.88915 0.50465 0.0
H342 H 0.19466 0.93192 0.5304 0.0
C343 C 0.17926 0.07349 0.60777 0.0
C344 C 0.18861 0.02511 0.52411 0.0
H345 H 0.15354 0.98547 0.46789 0.0
C346 C 0.20863 0.00955 0.52801 0.0
C347 C 0.16871 0.01655 0.5016 0.0
C348 C 0.14676 0.03266 0.497 0.0
C349 C 0.20917 0.98538 0.51006 0.0
C350 C 0.18889 0.9764 0.48872 0.0
C351 C 0.16909 0.99231 0.4842 0.0
C352 C 0.18722 0.95029 0.47213 0.0
C353 C 0.23153 0.96987 0.51384 0.0
C354 C 0.18048 0.9463 0.43094 0.0
C355 C 0.17616 0.92189 0.41635 0.0
C356 C 0.17859 0.90092 0.44263 0.0
C357 C 0.18608 0.90487 0.48351 0.0
C358 C 0.19012 0.92934 0.49822 0.0
H359 H 0.24738 0.98209 0.51818 0.0
H360 H 0.23012 0.95741 0.54124 0.0
H361 H 0.23433 0.95786 0.48619 0.0
H362 H 0.17803 0.96216 0.41026 0.0
H363 H 0.1705 0.9195 0.38465 0.0
H364 H 0.89786 0.2208 0.49275 0.0
H365 H 0.93726 0.23083 0.52069 0.0
H366 H 0.96743 0.16974 0.44989 0.0
H367 H 0.92865 0.16056 0.42056 0.0
H368 H 0.96472 0.20537 0.56762 0.0
H369 H 0.01533 0.22179 0.42539 0.0
H370 H 0.98336 0.21975 0.42525 0.0
H371 H 0.0013 0.19155 0.42181 0.0
C372 C 0.91301 0.20983 0.48267 0.0
C373 C 0.91016 0.19003 0.45416 0.0
C374 C 0.93552 0.21556 0.49865 0.0
C375 C 0.95554 0.20146 0.4867 0.0
C376 C 0.95257 0.1816 0.45845 0.0
H377 H 0.07456 0.15765 0.62752 0.0
H378 H 0.03579 0.16762 0.59894 0.0
C379 C 0.93025 0.17619 0.44195 0.0
C380 C 0.97918 0.20587 0.50607 0.0
H381 H 0.03845 0.20671 0.48422 0.0
C382 C 0.9808 0.20619 0.5493 0.0
C383 C 1.00027 0.20778 0.48251 0.0
C384 C 0.9999 0.21051 0.4362 0.0
C385 C 0.00289 0.2065 0.56942 0.0
C386 C 0.02399 0.20535 0.54573 0.0
C387 C 0.02237 0.20695 0.50259 0.0
C388 C 0.04764 0.20042 0.56473 0.0
C389 C 0.00325 0.20786 0.6159 0.0
C390 C 0.06764 0.21489 0.55394 0.0
C391 C 0.09015 0.20873 0.56946 0.0
C392 C 0.09303 0.18812 0.59635 0.0
C393 C 0.07295 0.17389 0.60742 0.0
C394 C 0.05063 0.17975 0.59135 0.0
H395 H 0.98781 0.21878 0.62759 0.0
H396 H 0.00189 0.1885 0.62874 0.0
H397 H 0.01978 0.21679 0.62757 0.0
H398 H 0.06588 0.23079 0.53315 0.0
H399 H 0.10529 0.22001 0.56027 0.0
H400 H 0.17586 0.18234 0.43439 0.0
H401 H 0.19792 0.20069 0.37677 0.0
H402 H 0.23943 0.24498 0.46204 0.0
H403 H 0.21765 0.22657 0.51991 0.0
H404 H 0.20306 0.25146 0.35314 0.0
H405 H 0.28998 0.20862 0.39306 0.0
H406 H 0.26239 0.19795 0.41535 0.0
H407 H 0.27664 0.22598 0.43458 0.0
C408 C 0.18969 0.19598 0.44095 0.0
C409 C 0.19508 0.20286 0.48183 0.0
C410 C 0.20226 0.20645 0.40794 0.0
C411 C 0.22057 0.22387 0.41515 0.0
C412 C 0.22569 0.23117 0.45583 0.0
H413 H 0.31742 0.31441 0.27552 0.0
H414 H 0.29352 0.29256 0.32692 0.0
C415 C 0.21313 0.22073 0.48887 0.0
C416 C 0.23419 0.23461 0.38014 0.0
H417 H 0.29028 0.24056 0.34148 0.0
C418 C 0.2221 0.24892 0.35032 0.0
C419 C 0.259 0.23113 0.37645 0.0
C420 C 0.27277 0.21489 0.40632 0.0
C421 C 0.23431 0.26067 0.31776 0.0
C422 C 0.25921 0.25765 0.31465 0.0
C423 C 0.2712 0.24289 0.34398 0.0
C424 C 0.27341 0.27076 0.2826 0.0
C425 C 0.22062 0.27694 0.28785 0.0
C426 C 0.27019 0.26559 0.24046 0.0
C427 C 0.28389 0.27812 0.21075 0.0
C428 C 0.3011 0.29596 0.22274 0.0
C429 C 0.30433 0.30085 0.26505 0.0
C430 C 0.29069 0.28835 0.29458 0.0
H431 H 0.20259 0.28156 0.29946 0.0
H432 H 0.23027 0.29483 0.28165 0.0
H433 H 0.21864 0.2667 0.25818 0.0
H434 H 0.25722 0.25174 0.23058 0.0
H435 H 0.281 0.27382 0.17848 0.0
H436 H 0.71893 0.27531 0.035 0.0
H437 H 0.74088 0.25882 0.0944 0.0
H438 H 0.69362 0.29825 0.17672 0.0
H439 H 0.67147 0.3147 0.11763 0.0
H440 H 0.76391 0.28769 0.15741 0.0
H441 H 0.69367 0.22514 0.22138 0.0
H442 H 0.69265 0.23712 0.16928 0.0
H443 H 0.6851 0.25731 0.21177 0.0
C444 C 0.71309 0.28035 0.06573 0.0
C445 C 0.69338 0.29627 0.07151 0.0
C446 C 0.72568 0.27095 0.09964 0.0
C447 C 0.71872 0.27708 0.13998 0.0
C448 C 0.69906 0.29294 0.14589 0.0
H449 H 0.7805 0.22654 0.37588 0.0
H450 H 0.75611 0.24906 0.32483 0.0
C451 C 0.68649 0.30242 0.11202 0.0
C452 C 0.73251 0.26744 0.1757 0.0
H453 H 0.72937 0.22826 0.25926 0.0
C454 C 0.75635 0.27475 0.17974 0.0
C455 C 0.72252 0.25079 0.20507 0.0
C456 C 0.69713 0.24191 0.20171 0.0
C457 C 0.77057 0.26562 0.21207 0.0
C458 C 0.76083 0.2483 0.24066 0.0
C459 C 0.73679 0.24155 0.23734 0.0
C460 C 0.7758 0.23547 0.27203 0.0
C461 C 0.79592 0.27464 0.21532 0.0
C462 C 0.79474 0.2202 0.25928 0.0
C463 C 0.80861 0.20739 0.28815 0.0
C464 C 0.80381 0.20938 0.33063 0.0
C465 C 0.78477 0.22469 0.34347 0.0
C466 C 0.77079 0.23752 0.31435 0.0
H467 H 0.79835 0.29321 0.19993 0.0
H468 H 0.80157 0.27636 0.24802 0.0
H469 H 0.80774 0.26082 0.19984 0.0
H470 H 0.79862 0.21787 0.22678 0.0
H471 H 0.82302 0.19571 0.27699 0.0
H472 H 0.82738 0.8162 0.43745 0.0
H473 H 0.80516 0.79913 0.37884 0.0
H474 H 0.76045 0.75724 0.46217 0.0
H475 H 0.7824 0.77438 0.52104 0.0
H476 H 0.79791 0.74869 0.35486 0.0
H477 H 0.71265 0.79617 0.39077 0.0
H478 H 0.74041 0.8054 0.41427 0.0
H479 H 0.72455 0.77825 0.43301 0.0
C480 C 0.8128 0.80338 0.44339 0.0
C481 C 0.80658 0.79678 0.48402 0.0
C482 C 0.80014 0.79363 0.4098 0.0
C483 C 0.78092 0.77725 0.41614 0.0
C484 C 0.77492 0.77026 0.45659 0.0
H485 H 0.68213 0.68952 0.27774 0.0
H486 H 0.70655 0.71162 0.32806 0.0
C487 C 0.78758 0.77997 0.49022 0.0
C488 C 0.76727 0.7672 0.3805 0.0
H489 H 0.71139 0.76373 0.33988 0.0
C490 C 0.77904 0.75216 0.35127 0.0
C491 C 0.7427 0.77193 0.37575 0.0
C492 C 0.72934 0.78902 0.40487 0.0
C493 C 0.76666 0.74079 0.31845 0.0
C494 C 0.74194 0.74492 0.31445 0.0
C495 C 0.73034 0.76055 0.34303 0.0
C496 C 0.7274 0.73176 0.28282 0.0
C497 C 0.77991 0.72364 0.28932 0.0
C498 C 0.73085 0.73589 0.24042 0.0
C499 C 0.71681 0.72317 0.21124 0.0
C500 C 0.69907 0.70619 0.22405 0.0
C501 C 0.69562 0.70238 0.2666 0.0
C502 C 0.70957 0.71505 0.29555 0.0
H503 H 0.7978 0.71861 0.30125 0.0
H504 H 0.76976 0.70597 0.28379 0.0
H505 H 0.78219 0.73333 0.25925 0.0
H506 H 0.74426 0.74904 0.22992 0.0
H507 H 0.71989 0.72661 0.17876 0.0
H508 H 0.17366 0.79344 0.27242 0.0
H509 H 0.19804 0.77068 0.22261 0.0
H510 H 0.24979 0.75502 0.31723 0.0
H511 H 0.22528 0.77773 0.36783 0.0
H512 H 0.26685 0.77776 0.23647 0.0
H513 H 0.2112 0.69168 0.21932 0.0
H514 H 0.19553 0.72129 0.21812 0.0
H515 H 0.2102 0.71154 0.26464 0.0
C516 C 0.19014 0.78506 0.28287 0.0
C517 C 0.19752 0.78742 0.32418 0.0
C518 C 0.204 0.77197 0.25432 0.0
C519 C 0.22559 0.76106 0.26634 0.0
C520 C 0.23308 0.76325 0.30749 0.0
H521 H 0.31154 0.66535 0.10508 0.0
H522 H 0.2912 0.68327 0.165 0.0
C523 C 0.21906 0.77615 0.33632 0.0
C524 C 0.24055 0.74828 0.23517 0.0
H525 H 0.24126 0.69812 0.16896 0.0
C526 C 0.26144 0.7602 0.22198 0.0
C527 C 0.23344 0.72536 0.21652 0.0
C528 C 0.21146 0.71152 0.23046 0.0
C529 C 0.27501 0.7502 0.1895 0.0
C530 C 0.26736 0.72782 0.16973 0.0
C531 C 0.24695 0.7154 0.18398 0.0
C532 C 0.28004 0.71727 0.13359 0.0
C533 C 0.29732 0.76371 0.17635 0.0
C534 C 0.28026 0.73037 0.09598 0.0
C535 C 0.29172 0.72013 0.06156 0.0
C536 C 0.30323 0.6966 0.0642 0.0
C537 C 0.30293 0.68355 0.102 0.0
C538 C 0.29131 0.69372 0.13629 0.0
H539 H 0.30355 0.77728 0.20017 0.0
H540 H 0.31176 0.74999 0.16988 0.0
H541 H 0.29373 0.7744 0.14758 0.0
H542 H 0.27136 0.74843 0.09315 0.0
H543 H 0.29158 0.73066 0.03293 0.0
H544 H 0.22166 0.77828 0.52832 0.0
H545 H 0.24348 0.76197 0.58793 0.0
H546 H 0.19521 0.80038 0.66976 0.0
H547 H 0.17315 0.81667 0.61039 0.0
H548 H 0.26577 0.79064 0.65194 0.0
H549 H 0.19555 0.7269 0.71287 0.0
H550 H 0.19483 0.73928 0.661 0.0
H551 H 0.18682 0.75908 0.70373 0.0
C552 C 0.21559 0.78318 0.55898 0.0
C553 C 0.19559 0.79872 0.56455 0.0
C554 C 0.22811 0.77387 0.59301 0.0
C555 C 0.2208 0.77973 0.63325 0.0
C556 C 0.20092 0.79529 0.63897 0.0
H557 H 0.28099 0.72719 0.86889 0.0
H558 H 0.25699 0.75014 0.81787 0.0
C559 C 0.1884 0.80467 0.60496 0.0
C560 C 0.23439 0.76996 0.66908 0.0
H561 H 0.23101 0.72983 0.75137 0.0
C562 C 0.25815 0.77741 0.67376 0.0
C563 C 0.22434 0.75291 0.69775 0.0
C564 C 0.19904 0.74386 0.69363 0.0
C565 C 0.27224 0.76803 0.70605 0.0
C566 C 0.26244 0.75031 0.73392 0.0
C567 C 0.23847 0.74342 0.72999 0.0
C568 C 0.27727 0.73729 0.76527 0.0
C569 C 0.29751 0.77718 0.71003 0.0
C570 C 0.29643 0.7223 0.75258 0.0
C571 C 0.3101 0.70923 0.78146 0.0
C572 C 0.30484 0.71069 0.82382 0.0
C573 C 0.2856 0.72574 0.83657 0.0
C574 C 0.27185 0.73883 0.80747 0.0
H575 H 0.29993 0.79593 0.69522 0.0
H576 H 0.30295 0.77859 0.74288 0.0
H577 H 0.30952 0.76362 0.69439 0.0
H578 H 0.30063 0.72037 0.72014 0.0
H579 H 0.32468 0.69776 0.77039 0.0
H580 H 0.28317 0.27174 0.0196 0.0
H581 H 0.26166 0.25308 0.96145 0.0
H582 H 0.30385 0.29677 0.87661 0.0
H583 H 0.32561 0.31535 0.93445 0.0
H584 H 0.23495 0.27887 0.9011 0.0
H585 H 0.30901 0.22474 0.83035 0.0
H586 H 0.31042 0.23692 0.88231 0.0
H587 H 0.31494 0.25765 0.83918 0.0
C588 C 0.28801 0.27725 0.98858 0.0
C589 C 0.30618 0.29499 0.98172 0.0
C590 C 0.27567 0.26659 0.95538 0.0
C591 C 0.28135 0.2733 0.91469 0.0
C592 C 0.29947 0.29096 0.90771 0.0
H593 H 0.21961 0.22414 0.67909 0.0
H594 H 0.24313 0.2463 0.73166 0.0
C595 C 0.31181 0.30166 0.94087 0.0
C596 C 0.26768 0.26247 0.87973 0.0
H597 H 0.27261 0.22541 0.79385 0.0
C598 C 0.24318 0.26717 0.87766 0.0
C599 C 0.2785 0.24741 0.84897 0.0
C600 C 0.30462 0.24115 0.8503 0.0
C601 C 0.22918 0.25717 0.84574 0.0
C602 C 0.23988 0.24164 0.81549 0.0
C603 C 0.26446 0.23734 0.81705 0.0
C604 C 0.22561 0.22856 0.78343 0.0
C605 C 0.20306 0.26347 0.84453 0.0
C606 C 0.20822 0.21102 0.79511 0.0
C607 C 0.19481 0.19839 0.76532 0.0
C608 C 0.19857 0.20288 0.72304 0.0
C609 C 0.21618 0.22032 0.71134 0.0
C610 C 0.22966 0.23297 0.74131 0.0
H611 H 0.1991 0.28103 0.86198 0.0
H612 H 0.19673 0.2658 0.81231 0.0
H613 H 0.19288 0.24784 0.8589 0.0
H614 H 0.20515 0.20692 0.82739 0.0
H615 H 0.18153 0.185 0.77557 0.0
H616 H 0.66814 0.29812 0.77925 0.0
H617 H 0.69087 0.27712 0.72551 0.0
H618 H 0.74445 0.25659 0.81454 0.0
H619 H 0.72136 0.2773 0.86921 0.0
H620 H 0.73525 0.28938 0.69961 0.0
H621 H 0.73293 0.18996 0.75452 0.0
H622 H 0.71364 0.21406 0.77519 0.0
H623 H 0.74421 0.21258 0.79092 0.0
C624 C 0.68466 0.28898 0.78767 0.0
C625 C 0.69294 0.28945 0.82862 0.0
C626 C 0.69766 0.27698 0.75679 0.0
C627 C 0.71931 0.26516 0.76592 0.0
C628 C 0.72758 0.26522 0.80686 0.0
H629 H 0.81668 0.22597 0.56403 0.0
H630 H 0.79988 0.24399 0.62711 0.0
C631 C 0.71442 0.27714 0.83805 0.0
C632 C 0.73338 0.25388 0.7318 0.0
H633 H 0.75495 0.19817 0.69403 0.0
C634 C 0.73968 0.26946 0.69851 0.0
C635 C 0.739 0.22785 0.73027 0.0
C636 C 0.73196 0.21003 0.76441 0.0
C637 C 0.75099 0.25969 0.6634 0.0
C638 C 0.75664 0.23367 0.66184 0.0
C639 C 0.75072 0.21813 0.69541 0.0
C640 C 0.7675 0.22203 0.62467 0.0
C641 C 0.75591 0.27715 0.62762 0.0
C642 C 0.75517 0.20325 0.60287 0.0
C643 C 0.76476 0.19282 0.56694 0.0
C644 C 0.78695 0.20092 0.55209 0.0
C645 C 0.79945 0.21947 0.57436 0.0
C646 C 0.78985 0.22985 0.61039 0.0
H647 H 0.74552 0.29494 0.6298 0.0
H648 H 0.77503 0.28217 0.62747 0.0
H649 H 0.75165 0.26783 0.59782 0.0
H650 H 0.73791 0.19691 0.61335 0.0
H651 H 0.75469 0.17849 0.55072 0.0
H652 H 0.74978 0.68565 0.01051 0.0
H653 H 0.76583 0.70442 0.94757 0.0
H654 H 0.69834 0.73999 0.92348 0.0
H655 H 0.68228 0.72174 0.98688 0.0
H656 H 0.75203 0.6997 0.86629 0.0
H657 H 0.74396 0.7993 0.91838 0.0
H658 H 0.74061 0.77295 0.95311 0.0
H659 H 0.71669 0.78176 0.91929 0.0
C660 C 0.73835 0.69754 0.99195 0.0
C661 C 0.7148 0.70237 0.00399 0.0
C662 C 0.74753 0.70818 0.95586 0.0
C663 C 0.73339 0.72388 0.93105 0.0
C664 C 0.70974 0.72837 0.94255 0.0
H665 H 0.78138 0.77539 0.68504 0.0
H666 H 0.75835 0.75437 0.73946 0.0
C667 C 0.70056 0.71785 0.97878 0.0
C668 C 0.74363 0.7357 0.8935 0.0
H669 H 0.75751 0.79267 0.8505 0.0
C670 C 0.75314 0.72003 0.86268 0.0
C671 C 0.74518 0.76223 0.88899 0.0
C672 C 0.73627 0.78009 0.92181 0.0
C673 C 0.76451 0.73017 0.82782 0.0
C674 C 0.76607 0.75669 0.82339 0.0
C675 C 0.75614 0.77233 0.85381 0.0
C676 C 0.77985 0.76875 0.78965 0.0
C677 C 0.77559 0.71244 0.79691 0.0
C678 C 0.79933 0.78402 0.79977 0.0
C679 C 0.8123 0.79614 0.76901 0.0
C680 C 0.80613 0.79333 0.72717 0.0
C681 C 0.78668 0.77786 0.71691 0.0
C682 C 0.77357 0.76575 0.74795 0.0
H683 H 0.77698 0.69286 0.80902 0.0
H684 H 0.76447 0.71196 0.76865 0.0
H685 H 0.79359 0.71903 0.78809 0.0
H686 H 0.80454 0.78659 0.83168 0.0
H687 H 0.82719 0.80781 0.7782 0.0
loop_
_geom_bond_atom_site_label_1
_geom_bond_atom_site_label_2
_geom_bond_distance
_geom_bond_site_symmetry_2
_ccdc_geom_bond_type
Zn0 O3 2.031 . S
Zn0 O5 2.049 . S
Zn0 O10 2.067 . S
Zn1 O2 1.962 . S
Zn1 O4 1.986 1_554 S
Zn1 O6 1.996 . S
Zn1 O9 1.943 . S
O2 Zn1 1.962 . S
O2 C7 1.254 . S
O3 Zn0 2.031 . S
O3 C7 1.269 . S
O4 Zn1 1.986 1_556 S
O4 C11 1.262 . S
O5 Zn0 2.049 . S
O5 C13 1.260 . S
O6 Zn1 1.996 . S
O6 C13 1.257 . S
C7 O2 1.254 . S
C7 O3 1.269 . S
C8 O9 1.249 . S
C8 O10 1.270 . S
O9 Zn1 1.943 . S
O9 C8 1.249 . S
O10 Zn0 2.067 . S
O10 C8 1.270 . S
C11 O4 1.262 . S
C11 O12 1.232 . S
O12 C11 1.232 . S
C13 O5 1.260 . S
C13 O6 1.257 . S
Zn14 O17 2.031 1_556 S
Zn14 O19 2.049 . S
Zn14 O24 2.067 . S
Zn15 O16 1.962 . S
Zn15 O18 1.986 . S
Zn15 O20 1.996 1_554 S
Zn15 O23 1.943 . S
O16 Zn15 1.962 . S
O16 C21 1.254 . S
O17 Zn14 2.031 1_554 S
O17 C21 1.269 . S
O18 Zn15 1.986 . S
O18 C25 1.262 . S
O19 Zn14 2.049 . S
O19 C27 1.260 . S
O20 Zn15 1.996 1_556 S
O20 C27 1.257 . S
C21 O16 1.254 . S
C21 O17 1.269 . S
C22 O23 1.249 . S
C22 O24 1.270 1_554 S
O23 Zn15 1.943 . S
O23 C22 1.249 . S
O24 Zn14 2.067 . S
O24 C22 1.270 1_556 S
C25 O18 1.262 . S
C25 O26 1.232 . S
O26 C25 1.232 . S
C27 O19 1.260 . S
C27 O20 1.257 . S
Zn28 O31 2.031 . S
Zn28 O33 2.049 . S
Zn28 O38 2.067 . S
Zn29 O30 1.962 . S
Zn29 O32 1.986 1_554 S
Zn29 O34 1.996 . S
Zn29 O37 1.943 . S
O30 Zn29 1.962 . S
O30 C35 1.254 . S
O31 Zn28 2.031 . S
O31 C35 1.269 . S
O32 Zn29 1.986 1_556 S
O32 C39 1.262 . S
O33 Zn28 2.049 . S
O33 C41 1.260 . S
O34 Zn29 1.996 . S
O34 C41 1.257 . S
C35 O30 1.254 . S
C35 O31 1.269 . S
C36 O37 1.249 . S
C36 O38 1.270 . S
O37 Zn29 1.943 . S
O37 C36 1.249 . S
O38 Zn28 2.067 . S
O38 C36 1.270 . S
C39 O32 1.262 . S
C39 O40 1.232 . S
O40 C39 1.232 . S
C41 O33 1.260 . S
C41 O34 1.257 . S
Zn42 O45 2.031 1_556 S
Zn42 O47 2.049 . S
Zn42 O52 2.067 . S
Zn43 O44 1.962 . S
Zn43 O46 1.986 . S
Zn43 O48 1.996 1_554 S
Zn43 O51 1.943 . S
O44 Zn43 1.962 . S
O44 C49 1.254 . S
O45 Zn42 2.031 1_554 S
O45 C49 1.269 . S
O46 Zn43 1.986 . S
O46 C53 1.262 . S
O47 Zn42 2.049 . S
O47 C55 1.260 . S
O48 Zn43 1.996 1_556 S
O48 C55 1.257 . S
C49 O44 1.254 . S
C49 O45 1.269 . S
C50 O51 1.249 . S
C50 O52 1.270 1_554 S
O51 Zn43 1.943 . S
O51 C50 1.249 . S
O52 Zn42 2.067 . S
O52 C50 1.270 1_556 S
C53 O46 1.262 . S
C53 O54 1.232 . S
O54 C53 1.232 . S
C55 O47 1.260 . S
C55 O48 1.257 . S
Zn56 O59 2.031 . S
Zn56 O61 2.049 . S
Zn56 O66 2.067 . S
Zn57 O58 1.962 . S
Zn57 O60 1.986 . S
Zn57 O62 1.996 . S
Zn57 O65 1.943 . S
O58 Zn57 1.962 . S
O58 C63 1.254 . S
O59 Zn56 2.031 . S
O59 C63 1.269 . S
O60 Zn57 1.986 . S
O60 C67 1.262 . S
O61 Zn56 2.049 . S
O61 C69 1.260 . S
O62 Zn57 1.996 . S
O62 C69 1.257 . S
C63 O58 1.254 . S
C63 O59 1.269 . S
C64 O65 1.249 . S
C64 O66 1.270 . S
O65 Zn57 1.943 . S
O65 C64 1.249 . S
O66 Zn56 2.067 . S
O66 C64 1.270 . S
C67 O60 1.262 . S
C67 O68 1.232 . S
O68 C67 1.232 . S
C69 O61 1.260 . S
C69 O62 1.257 . S
Zn70 O73 2.031 . S
Zn70 O75 2.049 . S
Zn70 O80 2.067 . S
Zn71 O72 1.962 . S
Zn71 O74 1.986 . S
Zn71 O76 1.996 . S
Zn71 O79 1.943 . S
O72 Zn71 1.962 . S
O72 C77 1.254 . S
O73 Zn70 2.031 . S
O73 C77 1.269 . S
O74 Zn71 1.986 . S
O74 C81 1.262 . S
O75 Zn70 2.049 . S
O75 C83 1.260 . S
O76 Zn71 1.996 . S
O76 C83 1.257 . S
C77 O72 1.254 . S
C77 O73 1.269 . S
C78 O79 1.249 . S
C78 O80 1.270 . S
O79 Zn71 1.943 . S
O79 C78 1.249 . S
O80 Zn70 2.067 . S
O80 C78 1.270 . S
C81 O74 1.262 . S
C81 O82 1.232 . S
O82 C81 1.232 . S
C83 O75 1.260 . S
C83 O76 1.257 . S
Zn84 O87 2.031 . S
Zn84 O89 2.049 . S
Zn84 O94 2.067 . S
Zn85 O86 1.962 . S
Zn85 O88 1.986 . S
Zn85 O90 1.996 . S
Zn85 O93 1.943 . S
O86 Zn85 1.962 . S
O86 C91 1.254 . S
O87 Zn84 2.031 . S
O87 C91 1.269 . S
O88 Zn85 1.986 . S
O88 C95 1.262 . S
O89 Zn84 2.049 . S
O89 C97 1.260 . S
O90 Zn85 1.996 . S
O90 C97 1.257 . S
C91 O86 1.254 . S
C91 O87 1.269 . S
C92 O93 1.249 . S
C92 O94 1.270 . S
O93 Zn85 1.943 . S
O93 C92 1.249 . S
O94 Zn84 2.067 . S
O94 C92 1.270 . S
C95 O88 1.262 . S
C95 O96 1.232 . S
O96 C95 1.232 . S
C97 O89 1.260 . S
C97 O90 1.257 . S
Zn98 O101 2.031 . S
Zn98 O103 2.049 . S
Zn98 O108 2.067 . S
Zn99 O100 1.962 . S
Zn99 O102 1.986 . S
Zn99 O104 1.996 . S
Zn99 O107 1.943 . S
O100 Zn99 1.962 . S
O100 C105 1.254 . S
O101 Zn98 2.031 . S
O101 C105 1.269 . S
O102 Zn99 1.986 . S
O102 C109 1.262 . S
O103 Zn98 2.049 . S
O103 C111 1.260 . S
O104 Zn99 1.996 . S
O104 C111 1.257 . S
C105 O100 1.254 . S
C105 O101 1.269 . S
C106 O107 1.249 . S
C106 O108 1.270 . S
O107 Zn99 1.943 . S
O107 C106 1.249 . S
O108 Zn98 2.067 . S
O108 C106 1.270 . S
C109 O102 1.262 . S
C109 O110 1.232 . S
O110 C109 1.232 . S
C111 O103 1.260 . S
C111 O104 1.257 . S
H112 C120 0.929 . S
H113 C122 0.930 . S
H114 C124 0.930 . S
H115 C127 0.929 . S
H116 C130 0.930 . S
H117 C132 0.960 . S
H118 C132 0.960 . S
H119 C132 0.960 . S
C120 H112 0.929 . S
C120 C121 1.377 . S
C120 C122 1.384 . S
C121 C120 1.377 . S
C121 C127 1.390 . S
C122 H113 0.930 . S
C122 C120 1.384 . S
C122 C123 1.372 . S
C123 C122 1.372 . S
C123 C124 1.400 . S
C123 C128 1.490 . S
C124 H114 0.930 . S
C124 C123 1.400 . S
C124 C127 1.386 . S
H125 C141 0.930 . S
H126 C142 0.931 . S
C127 H115 0.929 . S
C127 C121 1.390 . S
C127 C124 1.386 . S
C128 C123 1.490 . S
C128 C130 1.395 . S
C128 C131 1.403 1_554 S
H129 C135 0.930 . S
C130 H116 0.930 . S
C130 C128 1.395 . S
C130 C133 1.403 . S
C131 C128 1.403 1_556 S
C131 C132 1.524 . S
C131 C135 1.400 . S
C132 H117 0.960 . S
C132 H118 0.960 . S
C132 H119 0.960 . S
C132 C131 1.524 . S
C133 C130 1.403 . S
C133 C134 1.392 . S
C133 C137 1.495 . S
C134 C133 1.392 . S
C134 C135 1.385 1_554 S
C134 C136 1.478 . S
C135 H129 0.930 . S
C135 C131 1.400 . S
C135 C134 1.385 1_556 S
C136 C134 1.478 . S
C136 C138 1.381 . S
C136 C142 1.383 . S
C137 C133 1.495 . S
C137 H143 0.959 . S
C137 H144 0.961 . S
C137 H145 0.960 . S
C138 C136 1.381 . S
C138 C139 1.394 . S
C138 H146 0.930 . S
C139 C138 1.394 . S
C139 C140 1.383 . S
C139 H147 0.929 . S
C140 C139 1.383 . S
C140 C141 1.377 . S
C141 H125 0.930 . S
C141 C140 1.377 . S
C141 C142 1.379 . S
C142 H126 0.931 . S
C142 C136 1.383 . S
C142 C141 1.379 . S
H143 C137 0.959 . S
H144 C137 0.961 . S
H145 C137 0.960 . S
H146 C138 0.930 . S
H147 C139 0.929 . S
H148 C156 0.929 1_556 S
H149 C158 0.930 1_556 S
H150 C160 0.930 . S
H151 C163 0.929 . S
H152 C166 0.930 . S
H153 C168 0.960 . S
H154 C168 0.960 . S
H155 C168 0.960 . S
C156 H148 0.929 1_554 S
C156 C157 1.377 . S
C156 C158 1.384 . S
C157 C156 1.377 . S
C157 C163 1.390 . S
C158 H149 0.930 1_554 S
C158 C156 1.384 . S
C158 C159 1.372 . S
C159 C158 1.372 . S
C159 C160 1.400 . S
C159 C164 1.490 . S
C160 H150 0.930 . S
C160 C159 1.400 . S
C160 C163 1.386 . S
H161 C177 0.930 . S
H162 C178 0.931 . S
C163 H151 0.929 . S
C163 C157 1.390 . S
C163 C160 1.386 . S
C164 C159 1.490 . S
C164 C166 1.395 1_554 S
C164 C167 1.403 . S
H165 C171 0.930 . S
C166 H152 0.930 . S
C166 C164 1.395 1_556 S
C166 C169 1.403 . S
C167 C164 1.403 . S
C167 C168 1.524 . S
C167 C171 1.400 . S
C168 H153 0.960 . S
C168 H154 0.960 . S
C168 H155 0.960 . S
C168 C167 1.524 . S
C169 C166 1.403 . S
C169 C170 1.392 1_556 S
C169 C173 1.495 . S
C170 C169 1.392 1_554 S
C170 C171 1.385 . S
C170 C172 1.478 . S
C171 H165 0.930 . S
C171 C167 1.400 . S
C171 C170 1.385 . S
C172 C170 1.478 . S
C172 C174 1.381 . S
C172 C178 1.383 . S
C173 C169 1.495 . S
C173 H179 0.959 . S
C173 H180 0.961 . S
C173 H181 0.960 . S
C174 C172 1.381 . S
C174 C175 1.394 . S
C174 H182 0.930 . S
C175 C174 1.394 . S
C175 C176 1.383 . S
C175 H183 0.929 . S
C176 C175 1.383 . S
C176 C177 1.377 . S
C177 H161 0.930 . S
C177 C176 1.377 . S
C177 C178 1.379 . S
C178 H162 0.931 . S
C178 C172 1.383 . S
C178 C177 1.379 . S
H179 C173 0.959 . S
H180 C173 0.961 . S
H181 C173 0.960 . S
H182 C174 0.930 . S
H183 C175 0.929 . S
H184 C192 0.929 . S
H185 C194 0.930 . S
H186 C196 0.930 . S
H187 C199 0.929 . S
H188 C202 0.930 . S
H189 C204 0.960 . S
H190 C204 0.960 . S
H191 C204 0.960 . S
C192 H184 0.929 . S
C192 C193 1.377 1_556 S
C192 C194 1.384 . S
C193 C192 1.377 1_554 S
C193 C199 1.390 . S
C194 H185 0.930 . S
C194 C192 1.384 . S
C194 C195 1.372 1_556 S
C195 C194 1.372 1_554 S
C195 C196 1.400 . S
C195 C200 1.490 . S
C196 H186 0.930 . S
C196 C195 1.400 . S
C196 C199 1.386 . S
H197 C213 0.930 . S
H198 C214 0.931 . S
C199 H187 0.929 . S
C199 C193 1.390 . S
C199 C196 1.386 . S
C200 C195 1.490 . S
C200 C202 1.395 . S
C200 C203 1.403 . S
H201 C207 0.930 . S
C202 H188 0.930 . S
C202 C200 1.395 . S
C202 C205 1.403 . S
C203 C200 1.403 . S
C203 C204 1.524 . S
C203 C207 1.400 . S
C204 H189 0.960 . S
C204 H190 0.960 . S
C204 H191 0.960 . S
C204 C203 1.524 . S
C205 C202 1.403 . S
C205 C206 1.392 . S
C205 C209 1.495 1_554 S
C206 C205 1.392 . S
C206 C207 1.385 . S
C206 C208 1.478 . S
C207 H201 0.930 . S
C207 C203 1.400 . S
C207 C206 1.385 . S
C208 C206 1.478 . S
C208 C210 1.381 1_554 S
C208 C214 1.383 . S
C209 C205 1.495 1_556 S
C209 H215 0.959 . S
C209 H216 0.961 1_556 S
C209 H217 0.960 . S
C210 C208 1.381 1_556 S
C210 C211 1.394 . S
C210 H218 0.930 . S
C211 C210 1.394 . S
C211 C212 1.383 1_556 S
C211 H219 0.929 . S
C212 C211 1.383 1_554 S
C212 C213 1.377 . S
C213 H197 0.930 . S
C213 C212 1.377 . S
C213 C214 1.379 . S
C214 H198 0.931 . S
C214 C208 1.383 . S
C214 C213 1.379 . S
H215 C209 0.959 . S
H216 C209 0.961 1_554 S
H217 C209 0.960 . S
H218 C210 0.930 . S
H219 C211 0.929 . S
H220 C228 0.929 . S
H221 C230 0.930 . S
H222 C232 0.930 . S
H223 C235 0.929 . S
H224 C238 0.930 . S
H225 C240 0.960 . S
H226 C240 0.960 . S
H227 C240 0.960 . S
C228 H220 0.929 . S
C228 C229 1.377 1_556 S
C228 C230 1.384 . S
C229 C228 1.377 1_554 S
C229 C235 1.390 . S
C230 H221 0.930 . S
C230 C228 1.384 . S
C230 C231 1.372 1_556 S
C231 C230 1.372 1_554 S
C231 C232 1.400 . S
C231 C236 1.490 . S
C232 H222 0.930 . S
C232 C231 1.400 . S
C232 C235 1.386 . S
H233 C249 0.930 . S
H234 C250 0.931 . S
C235 H223 0.929 . S
C235 C229 1.390 . S
C235 C232 1.386 . S
C236 C231 1.490 . S
C236 C238 1.395 1_554 S
C236 C239 1.403 . S
H237 C243 0.930 . S
C238 H224 0.930 . S
C238 C236 1.395 1_556 S
C238 C241 1.403 . S
C239 C236 1.403 . S
C239 C240 1.524 . S
C239 C243 1.400 . S
C240 H225 0.960 . S
C240 H226 0.960 . S
C240 H227 0.960 . S
C240 C239 1.524 . S
C241 C238 1.403 . S
C241 C242 1.392 1_556 S
C241 C245 1.495 . S
C242 C241 1.392 1_554 S
C242 C243 1.385 . S
C242 C244 1.478 . S
C243 H237 0.930 . S
C243 C239 1.400 . S
C243 C242 1.385 . S
C244 C242 1.478 . S
C244 C246 1.381 1_554 S
C244 C250 1.383 . S
C245 C241 1.495 . S
C245 H251 0.959 . S
C245 H252 0.961 . S
C245 H253 0.960 . S
C246 C244 1.381 1_556 S
C246 C247 1.394 . S
C246 H254 0.930 . S
C247 C246 1.394 . S
C247 C248 1.383 1_556 S
C247 H255 0.929 . S
C248 C247 1.383 1_554 S
C248 C249 1.377 . S
C249 H233 0.930 . S
C249 C248 1.377 . S
C249 C250 1.379 . S
C250 H234 0.931 . S
C250 C244 1.383 . S
C250 C249 1.379 . S
H251 C245 0.959 . S
H252 C245 0.961 . S
H253 C245 0.960 . S
H254 C246 0.930 . S
H255 C247 0.929 . S
H256 C264 0.929 . S
H257 C266 0.930 . S
H258 C268 0.930 . S
H259 C271 0.929 . S
H260 C274 0.930 . S
H261 C276 0.960 . S
H262 C276 0.960 . S
H263 C276 0.960 . S
C264 H256 0.929 . S
C264 C265 1.377 . S
C264 C266 1.384 . S
C265 C264 1.377 . S
C265 C271 1.390 . S
C266 H257 0.930 . S
C266 C264 1.384 . S
C266 C267 1.372 . S
C267 C266 1.372 . S
C267 C268 1.400 . S
C267 C272 1.490 . S
C268 H258 0.930 . S
C268 C267 1.400 . S
C268 C271 1.386 . S
H269 C285 0.930 . S
H270 C286 0.931 . S
C271 H259 0.929 . S
C271 C265 1.390 . S
C271 C268 1.386 . S
C272 C267 1.490 . S
C272 C274 1.395 . S
C272 C275 1.403 . S
H273 C279 0.930 . S
C274 H260 0.930 . S
C274 C272 1.395 . S
C274 C277 1.403 1_565 S
C275 C272 1.403 . S
C275 C276 1.524 . S
C275 C279 1.400 1_565 S
C276 H261 0.960 . S
C276 H262 0.960 . S
C276 H263 0.960 . S
C276 C275 1.524 . S
C277 C274 1.403 1_545 S
C277 C278 1.392 . S
C277 C281 1.495 . S
C278 C277 1.392 . S
C278 C279 1.385 . S
C278 C280 1.478 . S
C279 H273 0.930 . S
C279 C275 1.400 1_545 S
C279 C278 1.385 . S
C280 C278 1.478 . S
C280 C282 1.381 . S
C280 C286 1.383 . S
C281 C277 1.495 . S
C281 H287 0.959 . S
C281 H288 0.961 . S
C281 H289 0.960 . S
C282 C280 1.381 . S
C282 C283 1.394 . S
C282 H290 0.930 . S
C283 C282 1.394 . S
C283 C284 1.383 . S
C283 H291 0.929 . S
C284 C283 1.383 . S
C284 C285 1.377 . S
C285 H269 0.930 . S
C285 C284 1.377 . S
C285 C286 1.379 . S
C286 H270 0.931 . S
C286 C280 1.383 . S
C286 C285 1.379 . S
H287 C281 0.959 . S
H288 C281 0.961 . S
H289 C281 0.960 . S
H290 C282 0.930 . S
H291 C283 0.929 . S
H292 C300 0.929 . S
H293 C302 0.930 . S
H294 C304 0.930 . S
H295 C307 0.929 . S
H296 C310 0.930 . S
H297 C312 0.960 . S
H298 C312 0.960 . S
H299 C312 0.960 . S
C300 H292 0.929 . S
C300 C301 1.377 . S
C300 C302 1.384 . S
C301 C300 1.377 . S
C301 C307 1.390 . S
C302 H293 0.930 . S
C302 C300 1.384 . S
C302 C303 1.372 . S
C303 C302 1.372 . S
C303 C304 1.400 . S
C303 C308 1.490 . S
C304 H294 0.930 . S
C304 C303 1.400 . S
C304 C307 1.386 . S
H305 C321 0.930 . S
H306 C322 0.931 . S
C307 H295 0.929 . S
C307 C301 1.390 . S
C307 C304 1.386 . S
C308 C303 1.490 . S
C308 C310 1.395 . S
C308 C311 1.403 . S
H309 C315 0.930 . S
C310 H296 0.930 . S
C310 C308 1.395 . S
C310 C313 1.403 1_455 S
C311 C308 1.403 . S
C311 C312 1.524 . S
C311 C315 1.400 1_455 S
C312 H297 0.960 . S
C312 H298 0.960 . S
C312 H299 0.960 . S
C312 C311 1.524 . S
C313 C310 1.403 1_655 S
C313 C314 1.392 . S
C313 C317 1.495 . S
C314 C313 1.392 . S
C314 C315 1.385 . S
C314 C316 1.478 . S
C315 H309 0.930 . S
C315 C311 1.400 1_655 S
C315 C314 1.385 . S
C316 C314 1.478 . S
C316 C318 1.381 . S
C316 C322 1.383 . S
C317 C313 1.495 . S
C317 H323 0.959 . S
C317 H324 0.961 . S
C317 H325 0.960 . S
C318 C316 1.381 . S
C318 C319 1.394 . S
C318 H326 0.930 . S
C319 C318 1.394 . S
C319 C320 1.383 . S
C319 H327 0.929 . S
C320 C319 1.383 . S
C320 C321 1.377 . S
C321 H305 0.930 . S
C321 C320 1.377 . S
C321 C322 1.379 . S
C322 H306 0.931 . S
C322 C316 1.383 . S
C322 C321 1.379 . S
H323 C317 0.959 . S
H324 C317 0.961 . S
H325 C317 0.960 . S
H326 C318 0.930 . S
H327 C319 0.929 . S
H328 C336 0.929 . S
H329 C338 0.930 . S
H330 C340 0.930 . S
H331 C343 0.929 . S
H332 C346 0.930 . S
H333 C348 0.960 . S
H334 C348 0.960 . S
H335 C348 0.960 . S
C336 H328 0.929 . S
C336 C337 1.377 . S
C336 C338 1.384 . S
C337 C336 1.377 . S
C337 C343 1.390 . S
C338 H329 0.930 . S
C338 C336 1.384 . S
C338 C339 1.372 . S
C339 C338 1.372 . S
C339 C340 1.400 . S
C339 C344 1.490 . S
C340 H330 0.930 . S
C340 C339 1.400 . S
C340 C343 1.386 . S
H341 C357 0.930 . S
H342 C358 0.931 . S
C343 H331 0.929 . S
C343 C337 1.390 . S
C343 C340 1.386 . S
C344 C339 1.490 . S
C344 C346 1.395 . S
C344 C347 1.403 . S
H345 C351 0.930 . S
C346 H332 0.930 . S
C346 C344 1.395 . S
C346 C349 1.403 1_545 S
C347 C344 1.403 . S
C347 C348 1.524 . S
C347 C351 1.400 1_545 S
C348 H333 0.960 . S
C348 H334 0.960 . S
C348 H335 0.960 . S
C348 C347 1.524 . S
C349 C346 1.403 1_565 S
C349 C350 1.392 . S
C349 C353 1.495 . S
C350 C349 1.392 . S
C350 C351 1.385 . S
C350 C352 1.478 . S
C351 H345 0.930 . S
C351 C347 1.400 1_565 S
C351 C350 1.385 . S
C352 C350 1.478 . S
C352 C354 1.381 . S
C352 C358 1.383 . S
C353 C349 1.495 . S
C353 H359 0.959 . S
C353 H360 0.961 . S
C353 H361 0.960 . S
C354 C352 1.381 . S
C354 C355 1.394 . S
C354 H362 0.930 . S
C355 C354 1.394 . S
C355 C356 1.383 . S
C355 H363 0.929 . S
C356 C355 1.383 . S
C356 C357 1.377 . S
C357 H341 0.930 . S
C357 C356 1.377 . S
C357 C358 1.379 . S
C358 H342 0.931 . S
C358 C352 1.383 . S
C358 C357 1.379 . S
H359 C353 0.959 . S
H360 C353 0.961 . S
H361 C353 0.960 . S
H362 C354 0.930 . S
H363 C355 0.929 . S
H364 C372 0.929 . S
H365 C374 0.930 . S
H366 C376 0.930 . S
H367 C379 0.929 . S
H368 C382 0.930 . S
H369 C384 0.960 . S
H370 C384 0.960 . S
H371 C384 0.960 . S
C372 H364 0.929 . S
C372 C373 1.377 . S
C372 C374 1.384 . S
C373 C372 1.377 . S
C373 C379 1.390 . S
C374 H365 0.930 . S
C374 C372 1.384 . S
C374 C375 1.372 . S
C375 C374 1.372 . S
C375 C376 1.400 . S
C375 C380 1.490 . S
C376 H366 0.930 . S
C376 C375 1.400 . S
C376 C379 1.386 . S
H377 C393 0.930 . S
H378 C394 0.931 . S
C379 H367 0.929 . S
C379 C373 1.390 . S
C379 C376 1.386 . S
C380 C375 1.490 . S
C380 C382 1.395 . S
C380 C383 1.403 . S
H381 C387 0.930 . S
C382 H368 0.930 . S
C382 C380 1.395 . S
C382 C385 1.403 1_655 S
C383 C380 1.403 . S
C383 C384 1.524 . S
C383 C387 1.400 1_655 S
C384 H369 0.960 . S
C384 H370 0.960 . S
C384 H371 0.960 . S
C384 C383 1.524 . S
C385 C382 1.403 1_455 S
C385 C386 1.392 . S
C385 C389 1.495 . S
C386 C385 1.392 . S
C386 C387 1.385 . S
C386 C388 1.478 . S
C387 H381 0.930 . S
C387 C383 1.400 1_455 S
C387 C386 1.385 . S
C388 C386 1.478 . S
C388 C390 1.381 . S
C388 C394 1.383 . S
C389 C385 1.495 . S
C389 H395 0.959 . S
C389 H396 0.961 . S
C389 H397 0.960 . S
C390 C388 1.381 . S
C390 C391 1.394 . S
C390 H398 0.930 . S
C391 C390 1.394 . S
C391 C392 1.383 . S
C391 H399 0.929 . S
C392 C391 1.383 . S
C392 C393 1.377 . S
C393 H377 0.930 . S
C393 C392 1.377 . S
C393 C394 1.379 . S
C394 H378 0.931 . S
C394 C388 1.383 . S
C394 C393 1.379 . S
H395 C389 0.959 . S
H396 C389 0.961 . S
H397 C389 0.960 . S
H398 C390 0.930 . S
H399 C391 0.929 . S
H400 C408 0.929 . S
H401 C410 0.930 . S
H402 C412 0.930 . S
H403 C415 0.929 . S
H404 C418 0.930 . S
H405 C420 0.960 . S
H406 C420 0.960 . S
H407 C420 0.960 . S
C408 H400 0.929 . S
C408 C409 1.377 . S
C408 C410 1.384 . S
C409 C408 1.377 . S
C409 C415 1.390 . S
C410 H401 0.930 . S
C410 C408 1.384 . S
C410 C411 1.372 . S
C411 C410 1.372 . S
C411 C412 1.400 . S
C411 C416 1.490 . S
C412 H402 0.930 . S
C412 C411 1.400 . S
C412 C415 1.386 . S
H413 C429 0.930 . S
H414 C430 0.931 . S
C415 H403 0.929 . S
C415 C409 1.390 . S
C415 C412 1.386 . S
C416 C411 1.490 . S
C416 C418 1.395 . S
C416 C419 1.403 . S
H417 C423 0.930 . S
C418 H404 0.930 . S
C418 C416 1.395 . S
C418 C421 1.403 . S
C419 C416 1.403 . S
C419 C420 1.524 . S
C419 C423 1.400 . S
C420 H405 0.960 . S
C420 H406 0.960 . S
C420 H407 0.960 . S
C420 C419 1.524 . S
C421 C418 1.403 . S
C421 C422 1.392 . S
C421 C425 1.495 . S
C422 C421 1.392 . S
C422 C423 1.385 . S
C422 C424 1.478 . S
C423 H417 0.930 . S
C423 C419 1.400 . S
C423 C422 1.385 . S
C424 C422 1.478 . S
C424 C426 1.381 . S
C424 C430 1.383 . S
C425 C421 1.495 . S
C425 H431 0.959 . S
C425 H432 0.961 . S
C425 H433 0.960 . S
C426 C424 1.381 . S
C426 C427 1.394 . S
C426 H434 0.930 . S
C427 C426 1.394 . S
C427 C428 1.383 . S
C427 H435 0.929 . S
C428 C427 1.383 . S
C428 C429 1.377 . S
C429 H413 0.930 . S
C429 C428 1.377 . S
C429 C430 1.379 . S
C430 H414 0.931 . S
C430 C424 1.383 . S
C430 C429 1.379 . S
H431 C425 0.959 . S
H432 C425 0.961 . S
H433 C425 0.960 . S
H434 C426 0.930 . S
H435 C427 0.929 . S
H436 C444 0.929 . S
H437 C446 0.930 . S
H438 C448 0.930 . S
H439 C451 0.929 . S
H440 C454 0.930 . S
H441 C456 0.960 . S
H442 C456 0.960 . S
H443 C456 0.960 . S
C444 H436 0.929 . S
C444 C445 1.377 . S
C444 C446 1.384 . S
C445 C444 1.377 . S
C445 C451 1.390 . S
C446 H437 0.930 . S
C446 C444 1.384 . S
C446 C447 1.372 . S
C447 C446 1.372 . S
C447 C448 1.400 . S
C447 C452 1.490 . S
C448 H438 0.930 . S
C448 C447 1.400 . S
C448 C451 1.386 . S
H449 C465 0.930 . S
H450 C466 0.931 . S
C451 H439 0.929 . S
C451 C445 1.390 . S
C451 C448 1.386 . S
C452 C447 1.490 . S
C452 C454 1.395 . S
C452 C455 1.403 . S
H453 C459 0.930 . S
C454 H440 0.930 . S
C454 C452 1.395 . S
C454 C457 1.403 . S
C455 C452 1.403 . S
C455 C456 1.524 . S
C455 C459 1.400 . S
C456 H441 0.960 . S
C456 H442 0.960 . S
C456 H443 0.960 . S
C456 C455 1.524 . S
C457 C454 1.403 . S
C457 C458 1.392 . S
C457 C461 1.495 . S
C458 C457 1.392 . S
C458 C459 1.385 . S
C458 C460 1.478 . S
C459 H453 0.930 . S
C459 C455 1.400 . S
C459 C458 1.385 . S
C460 C458 1.478 . S
C460 C462 1.381 . S
C460 C466 1.383 . S
C461 C457 1.495 . S
C461 H467 0.959 . S
C461 H468 0.961 . S
C461 H469 0.960 . S
C462 C460 1.381 . S
C462 C463 1.394 . S
C462 H470 0.930 . S
C463 C462 1.394 . S
C463 C464 1.383 . S
C463 H471 0.929 . S
C464 C463 1.383 . S
C464 C465 1.377 . S
C465 H449 0.930 . S
C465 C464 1.377 . S
C465 C466 1.379 . S
C466 H450 0.931 . S
C466 C460 1.383 . S
C466 C465 1.379 . S
H467 C461 0.959 . S
H468 C461 0.961 . S
H469 C461 0.960 . S
H470 C462 0.930 . S
H471 C463 0.929 . S
H472 C480 0.929 . S
H473 C482 0.930 . S
H474 C484 0.930 . S
H475 C487 0.929 . S
H476 C490 0.930 . S
H477 C492 0.960 . S
H478 C492 0.960 . S
H479 C492 0.960 . S
C480 H472 0.929 . S
C480 C481 1.377 . S
C480 C482 1.384 . S
C481 C480 1.377 . S
C481 C487 1.390 . S
C482 H473 0.930 . S
C482 C480 1.384 . S
C482 C483 1.372 . S
C483 C482 1.372 . S
C483 C484 1.400 . S
C483 C488 1.490 . S
C484 H474 0.930 . S
C484 C483 1.400 . S
C484 C487 1.386 . S
H485 C501 0.930 . S
H486 C502 0.931 . S
C487 H475 0.929 . S
C487 C481 1.390 . S
C487 C484 1.386 . S
C488 C483 1.490 . S
C488 C490 1.395 . S
C488 C491 1.403 . S
H489 C495 0.930 . S
C490 H476 0.930 . S
C490 C488 1.395 . S
C490 C493 1.403 . S
C491 C488 1.403 . S
C491 C492 1.524 . S
C491 C495 1.400 . S
C492 H477 0.960 . S
C492 H478 0.960 . S
C492 H479 0.960 . S
C492 C491 1.524 . S
C493 C490 1.403 . S
C493 C494 1.392 . S
C493 C497 1.495 . S
C494 C493 1.392 . S
C494 C495 1.385 . S
C494 C496 1.478 . S
C495 H489 0.930 . S
C495 C491 1.400 . S
C495 C494 1.385 . S
C496 C494 1.478 . S
C496 C498 1.381 . S
C496 C502 1.383 . S
C497 C493 1.495 . S
C497 H503 0.959 . S
C497 H504 0.961 . S
C497 H505 0.960 . S
C498 C496 1.381 . S
C498 C499 1.394 . S
C498 H506 0.930 . S
C499 C498 1.394 . S
C499 C500 1.383 . S
C499 H507 0.929 . S
C500 C499 1.383 . S
C500 C501 1.377 . S
C501 H485 0.930 . S
C501 C500 1.377 . S
C501 C502 1.379 . S
C502 H486 0.931 . S
C502 C496 1.383 . S
C502 C501 1.379 . S
H503 C497 0.959 . S
H504 C497 0.961 . S
H505 C497 0.960 . S
H506 C498 0.930 . S
H507 C499 0.929 . S
H508 C516 0.929 . S
H509 C518 0.930 . S
H510 C520 0.930 . S
H511 C523 0.929 . S
H512 C526 0.930 . S
H513 C528 0.960 . S
H514 C528 0.960 . S
H515 C528 0.960 . S
C516 H508 0.929 . S
C516 C517 1.377 . S
C516 C518 1.384 . S
C517 C516 1.377 . S
C517 C523 1.390 . S
C518 H509 0.930 . S
C518 C516 1.384 . S
C518 C519 1.372 . S
C519 C518 1.372 . S
C519 C520 1.400 . S
C519 C524 1.490 . S
C520 H510 0.930 . S
C520 C519 1.400 . S
C520 C523 1.386 . S
H521 C537 0.930 . S
H522 C538 0.931 . S
C523 H511 0.929 . S
C523 C517 1.390 . S
C523 C520 1.386 . S
C524 C519 1.490 . S
C524 C526 1.395 . S
C524 C527 1.403 . S
H525 C531 0.930 . S
C526 H512 0.930 . S
C526 C524 1.395 . S
C526 C529 1.403 . S
C527 C524 1.403 . S
C527 C528 1.524 . S
C527 C531 1.400 . S
C528 H513 0.960 . S
C528 H514 0.960 . S
C528 H515 0.960 . S
C528 C527 1.524 . S
C529 C526 1.403 . S
C529 C530 1.392 . S
C529 C533 1.495 . S
C530 C529 1.392 . S
C530 C531 1.385 . S
C530 C532 1.478 . S
C531 H525 0.930 . S
C531 C527 1.400 . S
C531 C530 1.385 . S
C532 C530 1.478 . S
C532 C534 1.381 . S
C532 C538 1.383 . S
C533 C529 1.495 . S
C533 H539 0.959 . S
C533 H540 0.961 . S
C533 H541 0.960 . S
C534 C532 1.381 . S
C534 C535 1.394 . S
C534 H542 0.930 . S
C535 C534 1.394 . S
C535 C536 1.383 . S
C535 H543 0.929 . S
C536 C535 1.383 . S
C536 C537 1.377 . S
C537 H521 0.930 . S
C537 C536 1.377 . S
C537 C538 1.379 . S
C538 H522 0.931 . S
C538 C532 1.383 . S
C538 C537 1.379 . S
H539 C533 0.959 . S
H540 C533 0.961 . S
H541 C533 0.960 . S
H542 C534 0.930 . S
H543 C535 0.929 . S
H544 C552 0.929 . S
H545 C554 0.930 . S
H546 C556 0.930 . S
H547 C559 0.929 . S
H548 C562 0.930 . S
H549 C564 0.960 . S
H550 C564 0.960 . S
H551 C564 0.960 . S
C552 H544 0.929 . S
C552 C553 1.377 . S
C552 C554 1.384 . S
C553 C552 1.377 . S
C553 C559 1.390 . S
C554 H545 0.930 . S
C554 C552 1.384 . S
C554 C555 1.372 . S
C555 C554 1.372 . S
C555 C556 1.400 . S
C555 C560 1.490 . S
C556 H546 0.930 . S
C556 C555 1.400 . S
C556 C559 1.386 . S
H557 C573 0.930 . S
H558 C574 0.931 . S
C559 H547 0.929 . S
C559 C553 1.390 . S
C559 C556 1.386 . S
C560 C555 1.490 . S
C560 C562 1.395 . S
C560 C563 1.403 . S
H561 C567 0.930 . S
C562 H548 0.930 . S
C562 C560 1.395 . S
C562 C565 1.403 . S
C563 C560 1.403 . S
C563 C564 1.524 . S
C563 C567 1.400 . S
C564 H549 0.960 . S
C564 H550 0.960 . S
C564 H551 0.960 . S
C564 C563 1.524 . S
C565 C562 1.403 . S
C565 C566 1.392 . S
C565 C569 1.495 . S
C566 C565 1.392 . S
C566 C567 1.385 . S
C566 C568 1.478 . S
C567 H561 0.930 . S
C567 C563 1.400 . S
C567 C566 1.385 . S
C568 C566 1.478 . S
C568 C570 1.381 . S
C568 C574 1.383 . S
C569 C565 1.495 . S
C569 H575 0.959 . S
C569 H576 0.961 . S
C569 H577 0.960 . S
C570 C568 1.381 . S
C570 C571 1.394 . S
C570 H578 0.930 . S
C571 C570 1.394 . S
C571 C572 1.383 . S
C571 H579 0.929 . S
C572 C571 1.383 . S
C572 C573 1.377 . S
C573 H557 0.930 . S
C573 C572 1.377 . S
C573 C574 1.379 . S
C574 H558 0.931 . S
C574 C568 1.383 . S
C574 C573 1.379 . S
H575 C569 0.959 . S
H576 C569 0.961 . S
H577 C569 0.960 . S
H578 C570 0.930 . S
H579 C571 0.929 . S
H580 C588 0.929 . S
H581 C590 0.930 . S
H582 C592 0.930 . S
H583 C595 0.929 . S
H584 C598 0.930 . S
H585 C600 0.960 . S
H586 C600 0.960 . S
H587 C600 0.960 . S
C588 H580 0.929 . S
C588 C589 1.377 . S
C588 C590 1.384 . S
C589 C588 1.377 . S
C589 C595 1.390 . S
C590 H581 0.930 . S
C590 C588 1.384 . S
C590 C591 1.372 . S
C591 C590 1.372 . S
C591 C592 1.400 . S
C591 C596 1.490 . S
C592 H582 0.930 . S
C592 C591 1.400 . S
C592 C595 1.386 . S
H593 C609 0.930 . S
H594 C610 0.931 . S
C595 H583 0.929 . S
C595 C589 1.390 . S
C595 C592 1.386 . S
C596 C591 1.490 . S
C596 C598 1.395 . S
C596 C599 1.403 . S
H597 C603 0.930 . S
C598 H584 0.930 . S
C598 C596 1.395 . S
C598 C601 1.403 . S
C599 C596 1.403 . S
C599 C600 1.524 . S
C599 C603 1.400 . S
C600 H585 0.960 . S
C600 H586 0.960 . S
C600 H587 0.960 . S
C600 C599 1.524 . S
C601 C598 1.403 . S
C601 C602 1.392 . S
C601 C605 1.495 . S
C602 C601 1.392 . S
C602 C603 1.385 . S
C602 C604 1.478 . S
C603 H597 0.930 . S
C603 C599 1.400 . S
C603 C602 1.385 . S
C604 C602 1.478 . S
C604 C606 1.381 . S
C604 C610 1.383 . S
C605 C601 1.495 . S
C605 H611 0.959 . S
C605 H612 0.961 . S
C605 H613 0.960 . S
C606 C604 1.381 . S
C606 C607 1.394 . S
C606 H614 0.930 . S
C607 C606 1.394 . S
C607 C608 1.383 . S
C607 H615 0.929 . S
C608 C607 1.383 . S
C608 C609 1.377 . S
C609 H593 0.930 . S
C609 C608 1.377 . S
C609 C610 1.379 . S
C610 H594 0.931 . S
C610 C604 1.383 . S
C610 C609 1.379 . S
H611 C605 0.959 . S
H612 C605 0.961 . S
H613 C605 0.960 . S
H614 C606 0.930 . S
H615 C607 0.929 . S
H616 C624 0.929 . S
H617 C626 0.930 . S
H618 C628 0.930 . S
H619 C631 0.929 . S
H620 C634 0.930 . S
H621 C636 0.960 . S
H622 C636 0.960 . S
H623 C636 0.960 . S
C624 H616 0.929 . S
C624 C625 1.377 . S
C624 C626 1.384 . S
C625 C624 1.377 . S
C625 C631 1.390 . S
C626 H617 0.930 . S
C626 C624 1.384 . S
C626 C627 1.372 . S
C627 C626 1.372 . S
C627 C628 1.400 . S
C627 C632 1.490 . S
C628 H618 0.930 . S
C628 C627 1.400 . S
C628 C631 1.386 . S
H629 C645 0.930 . S
H630 C646 0.931 . S
C631 H619 0.929 . S
C631 C625 1.390 . S
C631 C628 1.386 . S
C632 C627 1.490 . S
C632 C634 1.395 . S
C632 C635 1.403 . S
H633 C639 0.930 . S
C634 H620 0.930 . S
C634 C632 1.395 . S
C634 C637 1.403 . S
C635 C632 1.403 . S
C635 C636 1.524 . S
C635 C639 1.400 . S
C636 H621 0.960 . S
C636 H622 0.960 . S
C636 H623 0.960 . S
C636 C635 1.524 . S
C637 C634 1.403 . S
C637 C638 1.392 . S
C637 C641 1.495 . S
C638 C637 1.392 . S
C638 C639 1.385 . S
C638 C640 1.478 . S
C639 H633 0.930 . S
C639 C635 1.400 . S
C639 C638 1.385 . S
C640 C638 1.478 . S
C640 C642 1.381 . S
C640 C646 1.383 . S
C641 C637 1.495 . S
C641 H647 0.959 . S
C641 H648 0.961 . S
C641 H649 0.960 . S
C642 C640 1.381 . S
C642 C643 1.394 . S
C642 H650 0.930 . S
C643 C642 1.394 . S
C643 C644 1.383 . S
C643 H651 0.929 . S
C644 C643 1.383 . S
C644 C645 1.377 . S
C645 H629 0.930 . S
C645 C644 1.377 . S
C645 C646 1.379 . S
C646 H630 0.931 . S
C646 C640 1.383 . S
C646 C645 1.379 . S
H647 C641 0.959 . S
H648 C641 0.961 . S
H649 C641 0.960 . S
H650 C642 0.930 . S
H651 C643 0.929 . S
H652 C660 0.929 . S
H653 C662 0.930 . S
H654 C664 0.930 . S
H655 C667 0.929 . S
H656 C670 0.930 . S
H657 C672 0.960 . S
H658 C672 0.960 . S
H659 C672 0.960 . S
C660 H652 0.929 . S
C660 C661 1.377 . S
C660 C662 1.384 . S
C661 C660 1.377 . S
C661 C667 1.390 . S
C662 H653 0.930 . S
C662 C660 1.384 . S
C662 C663 1.372 . S
C663 C662 1.372 . S
C663 C664 1.400 . S
C663 C668 1.490 . S
C664 H654 0.930 . S
C664 C663 1.400 . S
C664 C667 1.386 . S
H665 C681 0.930 . S
H666 C682 0.931 . S
C667 H655 0.929 . S
C667 C661 1.390 . S
C667 C664 1.386 . S
C668 C663 1.490 . S
C668 C670 1.395 . S
C668 C671 1.403 . S
H669 C675 0.930 . S
C670 H656 0.930 . S
C670 C668 1.395 . S
C670 C673 1.403 . S
C671 C668 1.403 . S
C671 C672 1.524 . S
C671 C675 1.400 . S
C672 H657 0.960 . S
C672 H658 0.960 . S
C672 H659 0.960 . S
C672 C671 1.524 . S
C673 C670 1.403 . S
C673 C674 1.392 . S
C673 C677 1.495 . S
C674 C673 1.392 . S
C674 C675 1.385 . S
C674 C676 1.478 . S
C675 H669 0.930 . S
C675 C671 1.400 . S
C675 C674 1.385 . S
C676 C674 1.478 . S
C676 C678 1.381 . S
C676 C682 1.383 . S
C677 C673 1.495 . S
C677 H683 0.959 . S
C677 H684 0.961 . S
C677 H685 0.960 . S
C678 C676 1.381 . S
C678 C679 1.394 . S
C678 H686 0.930 . S
C679 C678 1.394 . S
C679 C680 1.383 . S
C679 H687 0.929 . S
C680 C679 1.383 . S
C680 C681 1.377 . S
C681 H665 0.930 . S
C681 C680 1.377 . S
C681 C682 1.379 . S
C682 H666 0.931 . S
C682 C676 1.383 . S
C682 C681 1.379 . S
H683 C677 0.959 . S
H684 C677 0.961 . S
H685 C677 0.960 . S
H686 C678 0.930 . S
H687 C679 0.929 . S
C121 C8 1.450 . S
C140 C50 1.463 . S
C157 C7 1.452 . S
C176 C21 1.436 . S
C193 C22 1.444 . S
C212 C36 1.448 . S
C229 C49 1.452 . S
C248 C35 1.464 . S
C265 C64 1.451 . S
C284 C106 1.453 . S
C301 C77 1.454 . S
C320 C63 1.435 . S
C337 C92 1.451 . S
C356 C78 1.451 . S
C373 C105 1.452 . S
C392 C91 1.438 . S
C409 C95 1.443 . S
C428 C13 1.333 . S
C445 C25 1.443 . S
C464 C111 1.307 . S
C481 C67 1.443 . S
C500 C41 1.357 . S
C517 C83 1.341 . S
C536 C53 1.438 . S
C553 C81 1.446 . S
C572 C55 1.356 . S
C589 C11 1.444 . S
C608 C97 1.324 . S
C625 C27 1.354 . S
C644 C109 1.450 . S
C661 C39 1.446 . S
C680 C69 1.380 . S
