# Generated by pormake.
# Topology uov, (4)-cn, num edge types: 1
# Building blocks:
#     Node 0, Type 0, BuildingBlock: QUQFOY_clean_sbu_1, # of connection points: 4
#     Node 1, Type 0, BuildingBlock: QUQFOY_clean_sbu_1, # of connection points: 4
#     Node 2, Type 0, BuildingBlock: QUQFOY_clean_sbu_1, # of connection points: 4
#     Node 3, Type 0, BuildingBlock: QUQFOY_clean_sbu_1, # of connection points: 4
#     Node 4, Type 0, BuildingBlock: QUQFOY_clean_sbu_1, # of connection points: 4
#     Node 5, Type 0, BuildingBlock: QUQFOY_clean_sbu_1, # of connection points: 4
#     Node 6, Type 0, BuildingBlock: QUQFOY_clean_sbu_1, # of connection points: 4
#     Node 7, Type 0, BuildingBlock: QUQFOY_clean_sbu_1, # of connection points: 4
#     Edge 8, Type (0, 0), BuildingBlock: ZUJKAS_clean_linker_0, # of connection points: 2
#     Edge 9, Type (0, 0), BuildingBlock: ZUJKAS_clean_linker_0, # of connection points: 2
#     Edge 10, Type (0, 0), BuildingBlock: ZUJKAS_clean_linker_0, # of connection points: 2
#     Edge 11, Type (0, 0), BuildingBlock: ZUJKAS_clean_linker_0, # of connection points: 2
#     Edge 12, Type (0, 0), BuildingBlock: ZUJKAS_clean_linker_0, # of connection points: 2
#     Edge 13, Type (0, 0), BuildingBlock: ZUJKAS_clean_linker_0, # of connection points: 2
#     Edge 14, Type (0, 0), BuildingBlock: ZUJKAS_clean_linker_0, # of connection points: 2
#     Edge 15, Type (0, 0), BuildingBlock: ZUJKAS_clean_linker_0, # of connection points: 2
#     Edge 16, Type (0, 0), BuildingBlock: ZUJKAS_clean_linker_0, # of connection points: 2
#     Edge 17, Type (0, 0), BuildingBlock: ZUJKAS_clean_linker_0, # of connection points: 2
#     Edge 18, Type (0, 0), BuildingBlock: ZUJKAS_clean_linker_0, # of connection points: 2
#     Edge 19, Type (0, 0), BuildingBlock: ZUJKAS_clean_linker_0, # of connection points: 2
#     Edge 20, Type (0, 0), BuildingBlock: ZUJKAS_clean_linker_0, # of connection points: 2
#     Edge 21, Type (0, 0), BuildingBlock: ZUJKAS_clean_linker_0, # of connection points: 2
#     Edge 22, Type (0, 0), BuildingBlock: ZUJKAS_clean_linker_0, # of connection points: 2
#     Edge 23, Type (0, 0), BuildingBlock: ZUJKAS_clean_linker_0, # of connection points: 2
# Relax obj value: 0.032
# Max RMSD: 0.049
# Mean RMSD: 0.049
data_MOF--net-uov--node1-QUQFOY_clean_sbu_1--edge1-ZUJKAS_clean_linker_0
_symmetry_space_group_name_H-M    P1
_symmetry_Int_Tables_number       1
_symmetry_cell_setting            triclinic
loop_
_symmetry_equiv_pos_as_xyz
'x, y, z'
_cell_length_a     40.866483
_cell_length_b     40.910119
_cell_length_c     57.773871
_cell_angle_alpha  89.991048
_cell_angle_beta   90.020749
_cell_angle_gamma 90.033098
loop_
_atom_site_label
_atom_site_type_symbol
_atom_site_fract_x
_atom_site_fract_y
_atom_site_fract_z
_atom_type_partial_charge
O0 O 0.00272 0.25728 0.58282 0.0
Cd1 Cd 0.04843 0.27716 0.58799 0.0
Cd2 Cd 0.0567 0.2172 0.61069 0.0
O3 O 0.00799 0.21092 0.60203 0.0
O4 O 0.04225 0.32248 0.57641 0.0
O5 O 0.05372 0.31149 0.61294 0.0
C6 C 0.04686 0.33283 0.59719 0.0
C7 C 0.07579 0.2007 0.64707 0.0
C8 C 0.99083 0.23042 0.58994 0.0
C9 C 0.09871 0.23126 0.56864 0.0
O10 O 0.08995 0.21136 0.58434 0.0
O11 O 0.08602 0.25957 0.56745 0.0
O12 O 0.06694 0.17985 0.63159 0.0
O13 O 0.07275 0.23138 0.64222 0.0
O14 O 0.26298 0.99972 0.4237 0.0
Cd15 Cd 0.27956 0.95378 0.41508 0.0
Cd16 Cd 0.22446 0.95546 0.3892 0.0
O17 O 0.22488 0.00476 0.39696 0.0
O18 O 0.32541 0.95406 0.42647 0.0
O19 O 0.31274 0.95021 0.38936 0.0
C20 C 0.3349 0.95268 0.40523 0.0
C21 C 0.21039 0.93708 0.35216 0.0
C22 C 0.24157 0.01693 0.41342 0.0
C23 C 0.22683 0.90943 0.43021 0.0
O24 O 0.20963 0.92455 0.41534 0.0
O25 O 0.25735 0.91497 0.43172 0.0
O26 O 0.18913 0.95013 0.36577 0.0
O27 O 0.24037 0.93569 0.35921 0.0
O28 O 0.99264 0.73913 0.57904 0.0
Cd29 Cd 0.94743 0.7195 0.58659 0.0
Cd30 Cd 0.94332 0.77849 0.61054 0.0
O31 O 0.9915 0.78373 0.60054 0.0
O32 O 0.95229 0.67404 0.57501 0.0
O33 O 0.94477 0.68555 0.61197 0.0
C34 C 0.95017 0.66401 0.59608 0.0
C35 C 0.9265 0.79611 0.64722 0.0
C36 C 0.0064 0.76484 0.58661 0.0
C37 C 0.89758 0.76692 0.56977 0.0
O38 O 0.90918 0.78604 0.58503 0.0
O39 O 0.90799 0.73774 0.56814 0.0
O40 O 0.93469 0.81644 0.63123 0.0
O41 O 0.92908 0.76528 0.64276 0.0
O42 O 0.74087 0.99936 0.42009 0.0
Cd43 Cd 0.72343 0.04598 0.41467 0.0
Cd44 Cd 0.7824 0.04958 0.39089 0.0
O45 O 0.78564 0.00046 0.39872 0.0
O46 O 0.67811 0.04217 0.42681 0.0
O47 O 0.68882 0.05189 0.38999 0.0
C48 C 0.66754 0.04612 0.40601 0.0
C49 C 0.79712 0.06926 0.35432 0.0
C50 C 0.76594 0.98519 0.41187 0.0
C51 C 0.77355 0.09254 0.4331 0.0
O52 O 0.79236 0.08124 0.41754 0.0
O53 O 0.74391 0.0832 0.43429 0.0
O54 O 0.8186 0.05823 0.36865 0.0
O55 O 0.76671 0.06789 0.36038 0.0
O56 O 0.98415 0.26798 0.07354 0.0
Cd57 Cd 0.93945 0.28533 0.0841 0.0
Cd58 Cd 0.94101 0.22971 0.10978 0.0
O59 O 0.98938 0.22829 0.09907 0.0
O60 O 0.94001 0.33209 0.07488 0.0
O61 O 0.93894 0.31586 0.11143 0.0
C62 C 0.94081 0.33942 0.09658 0.0
C63 C 0.92644 0.2138 0.14732 0.0
C64 C 0.00107 0.24531 0.0826 0.0
C65 C 0.89154 0.2349 0.07062 0.0
O66 O 0.90622 0.21731 0.08548 0.0
O67 O 0.89926 0.26477 0.0681 0.0
O68 O 0.93707 0.19309 0.13233 0.0
O69 O 0.92551 0.24423 0.14137 0.0
O70 O 0.26832 0.01619 0.93149 0.0
Cd71 Cd 0.28464 0.06014 0.91871 0.0
Cd72 Cd 0.23082 0.05534 0.89304 0.0
O73 O 0.23202 0.0071 0.90401 0.0
O74 O 0.33206 0.06224 0.92607 0.0
O75 O 0.3129 0.0578 0.89028 0.0
C76 C 0.33761 0.05871 0.90424 0.0
C77 C 0.21616 0.06876 0.85506 0.0
C78 C 0.2477 0.99742 0.92177 0.0
C79 C 0.23283 0.1065 0.93092 0.0
O80 O 0.21572 0.08967 0.91693 0.0
O81 O 0.26327 0.10102 0.93297 0.0
O82 O 0.19524 0.057 0.86951 0.0
O83 O 0.24617 0.07149 0.86183 0.0
O84 O 0.01164 0.73618 0.07642 0.0
Cd85 Cd 0.05679 0.71747 0.08459 0.0
Cd86 Cd 0.06016 0.77504 0.10956 0.0
O87 O 0.01124 0.77828 0.10025 0.0
O88 O 0.05361 0.67116 0.07449 0.0
O89 O 0.05936 0.68557 0.11115 0.0
C90 C 0.05516 0.66278 0.09595 0.0
C91 C 0.07682 0.79211 0.14643 0.0
C92 C 0.99694 0.76046 0.0853 0.0
C93 C 0.10635 0.76562 0.06879 0.0
O94 O 0.09449 0.78431 0.08422 0.0
O95 O 0.096 0.73649 0.06659 0.0
O96 O 0.06689 0.81255 0.13102 0.0
O97 O 0.07609 0.76139 0.14128 0.0
O98 O 0.73062 0.98537 0.92917 0.0
Cd99 Cd 0.71415 0.9401 0.91905 0.0
Cd100 Cd 0.77113 0.94053 0.8949 0.0
O101 O 0.77211 0.98914 0.9049 0.0
O102 O 0.6667 0.93954 0.92647 0.0
O103 O 0.68578 0.93881 0.89056 0.0
C104 C 0.66111 0.93987 0.90452 0.0
C105 C 0.78997 0.92505 0.85823 0.0
C106 C 0.75405 0.0017 0.92048 0.0
C107 C 0.76385 0.89297 0.93504 0.0
O108 O 0.78211 0.9067 0.92014 0.0
O109 O 0.7339 0.90091 0.93666 0.0
O110 O 0.80959 0.93528 0.87408 0.0
O111 O 0.75901 0.92505 0.86274 0.0
H112 H 0.95719 0.6355 0.63894 0.0
H113 H 0.97578 0.57947 0.64711 0.0
H114 H 0.97714 0.55868 0.57398 0.0
H115 H 0.95864 0.61406 0.56566 0.0
H116 H 0.94778 0.51332 0.62922 0.0
H117 H 0.07381 0.54399 0.60067 0.0
H118 H 0.04492 0.57458 0.61023 0.0
H119 H 0.0418 0.55765 0.58163 0.0
C120 C 0.96094 0.61879 0.62465 0.0
C121 C 0.9567 0.6293 0.60164 0.0
C122 C 0.97161 0.58689 0.62935 0.0
C123 C 0.97827 0.56527 0.6111 0.0
C124 C 0.97251 0.57522 0.58826 0.0
H125 H 0.04082 0.3829 0.56662 0.0
H126 H 0.02693 0.43962 0.57481 0.0
C127 C 0.96184 0.60688 0.58356 0.0
C128 C 0.99261 0.53266 0.61537 0.0
H129 H 0.06023 0.48727 0.60258 0.0
C130 C 0.97259 0.5076 0.62395 0.0
C131 C 0.02501 0.52551 0.60849 0.0
C132 C 0.04782 0.55187 0.59991 0.0
C133 C 0.98348 0.475 0.6243 0.0
C134 C 0.01528 0.4676 0.61612 0.0
C135 C 0.03588 0.49302 0.60884 0.0
C136 C 0.02598 0.43351 0.612 0.0
C137 C 0.96024 0.44845 0.63196 0.0
C138 C 0.03088 0.41142 0.63027 0.0
C139 C 0.03901 0.37877 0.62563 0.0
C140 C 0.04221 0.36785 0.60265 0.0
C141 C 0.0384 0.39044 0.58451 0.0
C142 C 0.03047 0.42291 0.58915 0.0
H143 H 0.93516 0.4579 0.63511 0.0
H144 H 0.95895 0.42885 0.6187 0.0
H145 H 0.96939 0.43734 0.64825 0.0
H146 H 0.02796 0.41929 0.64805 0.0
H147 H 0.04179 0.36192 0.63996 0.0
H148 H 0.61811 0.03715 0.43684 0.0
H149 H 0.56211 0.02009 0.42872 0.0
H150 H 0.58108 0.02536 0.35544 0.0
H151 H 0.63772 0.04245 0.36338 0.0
H152 H 0.51495 0.0537 0.37684 0.0
H153 H 0.54653 0.92481 0.39741 0.0
H154 H 0.56198 0.95515 0.41715 0.0
H155 H 0.57661 0.9543 0.38786 0.0
C156 C 0.61038 0.03517 0.41896 0.0
C157 C 0.63247 0.04092 0.40074 0.0
C158 C 0.57837 0.02535 0.41438 0.0
C159 C 0.56773 0.0211 0.39153 0.0
C160 C 0.58902 0.02842 0.3732 0.0
H161 H 0.36275 0.96354 0.36262 0.0
H162 H 0.42012 0.97755 0.35465 0.0
C163 C 0.62127 0.03824 0.37777 0.0
C164 C 0.53483 0.00735 0.38728 0.0
H165 H 0.48989 0.93832 0.39669 0.0
C166 C 0.50941 0.02833 0.38064 0.0
C167 C 0.52793 0.97426 0.39229 0.0
C168 C 0.55468 0.95064 0.39892 0.0
C169 C 0.47675 0.01748 0.38033 0.0
C170 C 0.46966 0.98472 0.3865 0.0
C171 C 0.4954 0.96338 0.39193 0.0
C172 C 0.43567 0.97331 0.39033 0.0
C173 C 0.44993 0.0416 0.37486 0.0
C174 C 0.42581 0.96501 0.41282 0.0
C175 C 0.39331 0.95688 0.41738 0.0
C176 C 0.36996 0.95671 0.39951 0.0
C177 C 0.38017 0.96348 0.37675 0.0
C178 C 0.41284 0.97175 0.3722 0.0
H179 H 0.45921 0.06709 0.37378 0.0
H180 H 0.43868 0.03522 0.35797 0.0
H181 H 0.43046 0.04053 0.38824 0.0
H182 H 0.44308 0.96592 0.42704 0.0
H183 H 0.38632 0.95166 0.43509 0.0
H184 H 0.93362 0.39442 0.07061 0.0
H185 H 0.95305 0.44938 0.07981 0.0
H186 H 0.98299 0.41668 0.14751 0.0
H187 H 0.96329 0.36136 0.1385 0.0
H188 H 0.93926 0.49362 0.1218 0.0
H189 H 0.06779 0.45093 0.11005 0.0
H190 H 0.03363 0.42899 0.09772 0.0
H191 H 0.04059 0.42775 0.12833 0.0
C192 C 0.94373 0.39901 0.08764 0.0
C193 C 0.9471 0.37353 0.10379 0.0
C194 C 0.95478 0.43043 0.09287 0.0
C195 C 0.96968 0.4369 0.11423 0.0
C196 C 0.97163 0.41202 0.13089 0.0
H197 H 0.03962 0.63867 0.1389 0.0
H198 H 0.02123 0.58296 0.1481 0.0
C199 C 0.96024 0.38053 0.12575 0.0
C200 C 0.98542 0.46902 0.11797 0.0
H201 H 0.05935 0.50745 0.11356 0.0
C202 C 0.96556 0.49671 0.12055 0.0
C203 C 0.0197 0.47278 0.11605 0.0
C204 C 0.04188 0.44367 0.1128 0.0
C205 C 0.97906 0.5283 0.1204 0.0
C206 C 0.01325 0.53211 0.11762 0.0
C207 C 0.0332 0.50434 0.11591 0.0
C208 C 0.02799 0.5646 0.11332 0.0
C209 C 0.95656 0.55745 0.12184 0.0
C210 C 0.03893 0.57224 0.09097 0.0
C211 C 0.04932 0.60385 0.08568 0.0
C212 C 0.04923 0.6284 0.1027 0.0
C213 C 0.04001 0.62025 0.12544 0.0
C214 C 0.02933 0.58854 0.13069 0.0
H215 H 0.93033 0.55029 0.12157 0.0
H216 H 0.96141 0.57097 0.13814 0.0
H217 H 0.96128 0.5744 0.1072 0.0
H218 H 0.03814 0.55405 0.07735 0.0
H219 H 0.0564 0.6093 0.06803 0.0
H220 H 0.35633 0.0152 0.87121 0.0
H221 H 0.41167 0.99372 0.86529 0.0
H222 H 0.44977 0.06572 0.91279 0.0
H223 H 0.39423 0.08563 0.91994 0.0
H224 H 0.47022 0.01153 0.85164 0.0
H225 H 0.47617 0.98456 0.94532 0.0
H226 H 0.43941 0.99927 0.93168 0.0
H227 H 0.47114 0.02745 0.94028 0.0
C228 C 0.37667 0.02684 0.87999 0.0
C229 C 0.37111 0.05175 0.89624 0.0
C230 C 0.40826 0.0145 0.87666 0.0
C231 C 0.43477 0.02731 0.88924 0.0
C232 C 0.42956 0.05455 0.90361 0.0
H233 H 0.64097 0.98307 0.87186 0.0
H234 H 0.58484 0.00152 0.86531 0.0
C235 C 0.39791 0.06618 0.90748 0.0
C236 C 0.46713 0.01068 0.88886 0.0
H237 H 0.52579 0.97921 0.9244 0.0
C238 C 0.48232 0.00421 0.86752 0.0
C239 C 0.48252 1.00013 0.90952 0.0
C240 C 0.46629 0.00286 0.93294 0.0
C241 C 0.51281 0.9883 0.86635 0.0
C242 C 0.52915 0.97976 0.88714 0.0
C243 C 0.51357 0.98578 0.90839 0.0
C244 C 0.56261 0.96526 0.88774 0.0
C245 C 0.52665 0.98021 0.84284 0.0
C246 C 0.56918 0.93868 0.90249 0.0
C247 C 0.60135 0.92905 0.90693 0.0
C248 C 0.62754 0.94506 0.89611 0.0
C249 C 0.62105 0.96994 0.88004 0.0
C250 C 0.58888 0.98038 0.8762 0.0
H251 H 0.50684 0.97685 0.82988 0.0
H252 H 0.54217 0.0008 0.83685 0.0
H253 H 0.54173 0.95765 0.84331 0.0
H254 H 0.54947 0.92644 0.91156 0.0
H255 H 0.60585 0.9099 0.9195 0.0
H256 H 0.1953 0.06015 0.3976 0.0
H257 H 0.17664 0.11005 0.41685 0.0
H258 H 0.25037 0.09711 0.46951 0.0
H259 H 0.26969 0.04806 0.45016 0.0
H260 H 0.15029 0.1086 0.45838 0.0
H261 H 0.25448 0.19417 0.4619 0.0
H262 H 0.2537 0.15964 0.44242 0.0
H263 H 0.26663 0.15461 0.47205 0.0
C264 C 0.20814 0.06846 0.41291 0.0
C265 C 0.2338 0.04993 0.42244 0.0
C266 C 0.19746 0.09701 0.42389 0.0
C267 C 0.2123 0.10759 0.44452 0.0
C268 C 0.23904 0.09005 0.45332 0.0
H269 H 0.13572 0.17588 0.56893 0.0
H270 H 0.16502 0.15165 0.53641 0.0
C271 C 0.24985 0.06169 0.44232 0.0
C272 C 0.19684 0.13344 0.45883 0.0
H273 H 0.21423 0.19938 0.49306 0.0
C274 C 0.16408 0.12895 0.46544 0.0
C275 C 0.21472 0.1601 0.46808 0.0
C276 C 0.24922 0.16759 0.46051 0.0
C277 C 0.14946 0.14899 0.48212 0.0
C278 C 0.16813 0.17394 0.49264 0.0
C279 C 0.20017 0.1799 0.4851 0.0
C280 C 0.15532 0.19165 0.51295 0.0
C281 C 0.11454 0.14243 0.48925 0.0
C282 C 0.14121 0.2227 0.51063 0.0
C283 C 0.12435 0.23674 0.52925 0.0
C284 C 0.12131 0.21974 0.55034 0.0
C285 C 0.13732 0.18952 0.55289 0.0
C286 C 0.15416 0.17564 0.53436 0.0
H287 H 0.10167 0.12636 0.4767 0.0
H288 H 0.11438 0.13023 0.50642 0.0
H289 H 0.10078 0.16571 0.4909 0.0
H290 H 0.14187 0.2353 0.49414 0.0
H291 H 0.11229 0.26003 0.52672 0.0
H292 H 0.16142 0.89865 0.43468 0.0
H293 H 0.13345 0.86708 0.46429 0.0
H294 H 0.22635 0.83783 0.49308 0.0
H295 H 0.25482 0.87054 0.46372 0.0
H296 H 0.13372 0.80364 0.47471 0.0
H297 H 0.18112 0.87534 0.54935 0.0
H298 H 0.1866 0.88838 0.51978 0.0
H299 H 0.21168 0.85633 0.53153 0.0
C300 C 0.17606 0.88544 0.44719 0.0
C301 C 0.21041 0.88738 0.44692 0.0
C302 C 0.15997 0.86733 0.46415 0.0
C303 C 0.17776 0.85053 0.48117 0.0
C304 C 0.21211 0.85126 0.48046 0.0
H305 H 0.05288 0.72523 0.56756 0.0
H306 H 0.10055 0.74218 0.54492 0.0
C307 C 0.22833 0.86973 0.46355 0.0
C308 C 0.15969 0.83289 0.49962 0.0
H309 H 0.14343 0.83353 0.55762 0.0
C310 C 0.13607 0.80987 0.49289 0.0
C311 C 0.16267 0.84132 0.52329 0.0
C312 C 0.18667 0.86687 0.5315 0.0
C313 C 0.11427 0.79621 0.50893 0.0
C314 C 0.117 0.80483 0.53261 0.0
C315 C 0.14156 0.82679 0.53951 0.0
C316 C 0.09245 0.79399 0.54991 0.0
C317 C 0.08727 0.7743 0.50003 0.0
C318 C 0.07363 0.81736 0.56173 0.0
C319 C 0.0469 0.8077 0.57519 0.0
C320 C 0.03835 0.77452 0.5768 0.0
C321 C 0.05864 0.75103 0.56634 0.0
C322 C 0.08573 0.76068 0.55327 0.0
H323 H 0.08401 0.77657 0.481 0.0
H324 H 0.09346 0.74846 0.50387 0.0
H325 H 0.0636 0.78012 0.5085 0.0
H326 H 0.07849 0.84321 0.55953 0.0
H327 H 0.03174 0.82636 0.58304 0.0
H328 H 0.72359 0.9366 0.42405 0.0
H329 H 0.73684 0.88632 0.44506 0.0
H330 H 0.83952 0.91054 0.44143 0.0
H331 H 0.82649 0.95959 0.41917 0.0
H332 H 0.83223 0.84683 0.43989 0.0
H333 H 0.75625 0.89512 0.51203 0.0
H334 H 0.73389 0.88665 0.48603 0.0
H335 H 0.76427 0.91855 0.4863 0.0
C336 C 0.74903 0.93067 0.42726 0.0
C337 C 0.77403 0.9521 0.42025 0.0
C338 C 0.75655 0.90213 0.43945 0.0
C339 C 0.78908 0.89524 0.4456 0.0
C340 C 0.8142 0.91542 0.43708 0.0
H341 H 0.87613 0.82962 0.56641 0.0
H342 H 0.84511 0.85424 0.53522 0.0
C343 C 0.80676 0.94347 0.42433 0.0
C344 C 0.79707 0.86919 0.46262 0.0
H345 H 0.78546 0.84719 0.51905 0.0
C346 C 0.82178 0.84663 0.45714 0.0
C347 C 0.78345 0.86905 0.4852 0.0
C348 C 0.75823 0.89378 0.49287 0.0
C349 C 0.83465 0.82535 0.47393 0.0
C350 C 0.82157 0.82583 0.49662 0.0
C351 C 0.79536 0.84681 0.50163 0.0
C352 C 0.83792 0.8091 0.5163 0.0
C353 C 0.8636 0.80427 0.46759 0.0
C354 C 0.84355 0.77521 0.51649 0.0
C355 C 0.86193 0.76095 0.53434 0.0
C356 C 0.87447 0.78033 0.55242 0.0
C357 C 0.86705 0.81388 0.55277 0.0
C358 C 0.84918 0.82807 0.53489 0.0
H359 H 0.8745 0.81144 0.45072 0.0
H360 H 0.88289 0.80577 0.48108 0.0
H361 H 0.85558 0.77843 0.46623 0.0
H362 H 0.83435 0.75993 0.50265 0.0
H363 H 0.867 0.73499 0.53366 0.0
H364 H 0.74294 0.11928 0.47113 0.0
H365 H 0.76831 0.15174 0.50205 0.0
H366 H 0.86101 0.14677 0.46656 0.0
H367 H 0.836 0.11545 0.43559 0.0
H368 H 0.81651 0.13398 0.53103 0.0
H369 H 0.85768 0.24197 0.48217 0.0
H370 H 0.82841 0.21334 0.47046 0.0
H371 H 0.87173 0.20561 0.46807 0.0
C372 C 0.76858 0.12568 0.46972 0.0
C373 C 0.78739 0.11483 0.45082 0.0
C374 C 0.78304 0.14414 0.48743 0.0
C375 C 0.81644 0.15219 0.48644 0.0
C376 C 0.83502 0.14172 0.46743 0.0
H377 H 0.96777 0.16849 0.58368 0.0
H378 H 0.91881 0.15249 0.56238 0.0
C379 C 0.82066 0.12352 0.44976 0.0
C380 C 0.83295 0.16926 0.50586 0.0
H381 H 0.88976 0.22838 0.51636 0.0
C382 C 0.83197 0.15511 0.528 0.0
C383 C 0.85247 0.19733 0.50216 0.0
C384 C 0.85231 0.21561 0.47947 0.0
C385 C 0.85197 0.16675 0.546 0.0
C386 C 0.8742 0.19254 0.54149 0.0
C387 C 0.87322 0.20824 0.51986 0.0
C388 C 0.90066 0.20188 0.55791 0.0
C389 C 0.84931 0.1509 0.5695 0.0
C390 C 0.90702 0.23498 0.56259 0.0
C391 C 0.93555 0.24421 0.57421 0.0
C392 C 0.95807 0.22049 0.58168 0.0
C393 C 0.95067 0.18729 0.57838 0.0
C394 C 0.92247 0.1781 0.56632 0.0
H395 H 0.82393 0.14229 0.57275 0.0
H396 H 0.86554 0.12918 0.5701 0.0
H397 H 0.85647 0.16794 0.58357 0.0
H398 H 0.89064 0.25381 0.5563 0.0
H399 H 0.94058 0.27 0.57659 0.0
H400 H 0.80432 0.04275 0.90824 0.0
H401 H 0.82278 0.09146 0.92912 0.0
H402 H 0.74157 0.08211 0.97628 0.0
H403 H 0.72254 0.03396 0.95535 0.0
H404 H 0.75745 0.14785 0.9656 0.0
H405 H 0.86596 0.07475 0.99222 0.0
H406 H 0.8604 0.0793 0.96155 0.0
H407 H 0.83098 0.05662 0.97819 0.0
C408 C 0.79001 0.05143 0.92277 0.0
C409 C 0.76227 0.0341 0.93037 0.0
C410 C 0.80065 0.07921 0.9347 0.0
C411 C 0.78389 0.08994 0.9545 0.0
C412 C 0.75492 0.07414 0.96109 0.0
H413 H 0.8601 0.17693 0.0767 0.0
H414 H 0.83043 0.14552 0.0476 0.0
C415 C 0.74417 0.04649 0.94914 0.0
C416 C 0.79823 0.11509 0.9699 0.0
H417 H 0.86211 0.12808 0.00678 0.0
C418 C 0.78047 0.14377 0.97449 0.0
C419 C 0.82801 0.10934 0.9817 0.0
C420 C 0.84739 0.07825 0.97839 0.0
C421 C 0.79163 0.16673 0.99081 0.0
C422 C 0.82134 0.16083 0.00261 0.0
C423 C 0.83931 0.13248 0.99767 0.0
C424 C 0.83389 0.18264 0.02104 0.0
C425 C 0.77111 0.19649 0.99591 0.0
C426 C 0.84467 0.21443 0.01598 0.0
C427 C 0.86152 0.23264 0.03271 0.0
C428 C 0.86816 0.21906 0.0546 0.0
C429 C 0.8556 0.18799 0.05996 0.0
C430 C 0.83863 0.16999 0.04335 0.0
H431 H 0.746 0.19426 0.98869 0.0
H432 H 0.76937 0.20063 0.01486 0.0
H433 H 0.78286 0.21831 0.98809 0.0
H434 H 0.84166 0.22446 0.99876 0.0
H435 H 0.87106 0.25644 0.02803 0.0
H436 H 0.17221 0.13299 0.92565 0.0
H437 H 0.14051 0.16263 0.95458 0.0
H438 H 0.22292 0.16057 1.00122 0.0
H439 H 0.25517 0.13137 0.97208 0.0
H440 H 0.12647 0.13457 0.99658 0.0
H441 H 0.18865 0.25422 0.00883 0.0
H442 H 0.19559 0.22876 0.98376 0.0
H443 H 0.21451 0.2188 0.01091 0.0
C444 C 0.18389 0.1395 0.94184 0.0
C445 C 0.21613 0.12965 0.94663 0.0
C446 C 0.16572 0.15642 0.95837 0.0
C447 C 0.17934 0.1638 0.98004 0.0
C448 C 0.21209 0.15557 0.98448 0.0
H449 H 0.04306 0.1959 0.09508 0.0
H450 H 0.09115 0.17701 0.07363 0.0
C451 C 0.23046 0.13881 0.96781 0.0
C452 C 0.15792 0.17669 0.99861 0.0
H453 H 0.14456 0.24215 0.03403 0.0
C454 C 0.13049 0.15804 0.00486 0.0
C455 C 0.16332 0.20727 0.00934 0.0
C456 C 0.19195 0.22864 0.00281 0.0
C457 C 0.10775 0.16945 0.02107 0.0
C458 C 0.11303 0.20008 0.03183 0.0
C459 C 0.14084 0.21851 0.02595 0.0
C460 C 0.08811 0.21459 0.04735 0.0
C461 C 0.07751 0.14924 0.02572 0.0
C462 C 0.0717 0.24303 0.04042 0.0
C463 C 0.04449 0.25406 0.05272 0.0
C464 C 0.03307 0.23677 0.07218 0.0
C465 C 0.05097 0.20957 0.08004 0.0
C466 C 0.07838 0.19867 0.06775 0.0
H467 H 0.0739 0.12989 0.01247 0.0
H468 H 0.0799 0.13715 0.04283 0.0
H469 H 0.05532 0.16489 0.0261 0.0
H470 H 0.0789 0.25577 0.02479 0.0
H471 H 0.03152 0.27528 0.04629 0.0
H472 H 0.11873 0.7446 0.02468 0.0
H473 H 0.15001 0.7737 0.99481 0.0
H474 H 0.17777 0.84675 0.04485 0.0
H475 H 0.14622 0.81831 0.07465 0.0
H476 H 0.13266 0.85017 0.9893 0.0
H477 H 0.26329 0.81685 0.00266 0.0
H478 H 0.23009 0.78898 0.00904 0.0
H479 H 0.23808 0.82282 0.02792 0.0
C480 C 0.13219 0.7664 0.02945 0.0
C481 C 0.12989 0.77931 0.05196 0.0
C482 C 0.14996 0.78297 0.01237 0.0
C483 C 0.16622 0.81219 0.01775 0.0
C484 C 0.16557 0.82404 0.04049 0.0
H485 H 0.26495 0.97619 0.96476 0.0
H486 H 0.24642 0.92699 0.98453 0.0
C487 C 0.14745 0.80783 0.05745 0.0
C488 C 0.18023 0.83282 0.9993 0.0
H489 H 0.25246 0.86265 0.97867 0.0
C490 C 0.15882 0.85258 0.98655 0.0
C491 C 0.21429 0.83593 0.99613 0.0
C492 C 0.23797 0.81496 0.00953 0.0
C493 C 0.17064 0.87683 0.97155 0.0
C494 C 0.20489 0.88058 0.96869 0.0
C495 C 0.22625 0.85968 0.98075 0.0
C496 C 0.21895 0.90826 0.95536 0.0
C497 C 0.14632 0.89954 0.96019 0.0
C498 C 0.21057 0.91366 0.93208 0.0
C499 C 0.22066 0.94223 0.9208 0.0
C500 C 0.23994 0.96546 0.93247 0.0
C501 C 0.25003 0.95888 0.95527 0.0
C502 C 0.23951 0.93066 0.96661 0.0
H503 H 0.12182 0.89815 0.96848 0.0
H504 H 0.15489 0.92527 0.96096 0.0
H505 H 0.14341 0.89261 0.94174 0.0
H506 H 0.1955 0.89625 0.92283 0.0
H507 H 0.21285 0.9464 0.90313 0.0
H508 H 0.73978 0.87451 0.97746 0.0
H509 H 0.77059 0.84804 0.00877 0.0
H510 H 0.85303 0.83587 0.96306 0.0
H511 H 0.82278 0.86237 0.93187 0.0
H512 H 0.80763 0.78554 0.01312 0.0
H513 H 0.88462 0.89707 0.01694 0.0
H514 H 0.84545 0.89606 0.00247 0.0
H515 H 0.88122 0.87993 0.98841 0.0
C516 C 0.76417 0.86546 0.97392 0.0
C517 C 0.77904 0.87095 0.95229 0.0
C518 C 0.78173 0.85044 0.99184 0.0
C519 C 0.81424 0.84069 0.98828 0.0
C520 C 0.82812 0.84378 0.96621 0.0
H521 H 0.96126 0.72916 0.05209 0.0
H522 H 0.9116 0.74818 0.03328 0.0
C523 C 0.81076 0.85886 0.9484 0.0
C524 C 0.83495 0.82992 0.00784 0.0
H525 H 0.90544 0.8498 0.03606 0.0
C526 C 0.82877 0.79971 0.01844 0.0
C527 C 0.86198 0.84888 0.01513 0.0
C528 C 0.86861 0.88245 0.00533 0.0
C529 C 0.85027 0.78702 0.03519 0.0
C530 C 0.87882 0.80484 0.04108 0.0
C531 C 0.88372 0.83597 0.03148 0.0
C532 C 0.90565 0.79068 0.0552 0.0
C533 C 0.84239 0.75451 0.04616 0.0
C534 C 0.91908 0.80824 0.07383 0.0
C535 C 0.94798 0.79767 0.08446 0.0
C536 C 0.96403 0.76939 0.07656 0.0
C537 C 0.9496 0.75104 0.05865 0.0
C538 C 0.92089 0.76171 0.04799 0.0
H539 H 0.81553 0.75034 0.04675 0.0
H540 H 0.85329 0.73466 0.03559 0.0
H541 H 0.85231 0.75281 0.06401 0.0
H542 H 0.90785 0.83081 0.07958 0.0
H543 H 0.95838 0.81234 0.09822 0.0
H544 H 0.0818 0.13791 0.66215 0.0
H545 H 0.1083 0.11841 0.69736 0.0
H546 H 0.13038 0.21773 0.71692 0.0
H547 H 0.10334 0.23762 0.68171 0.0
H548 H 0.17291 0.12692 0.71089 0.0
H549 H 0.08704 0.18052 0.77514 0.0
H550 H 0.0773 0.17766 0.74473 0.0
H551 H 0.10451 0.20901 0.75494 0.0
C552 C 0.09201 0.15571 0.674 0.0
C553 C 0.0903 0.18936 0.66916 0.0
C554 C 0.10728 0.14447 0.69409 0.0
C555 C 0.12113 0.16659 0.70984 0.0
C556 C 0.1194 0.20025 0.70518 0.0
H557 H 0.25123 0.10373 0.82293 0.0
H558 H 0.23049 0.12847 0.78713 0.0
C559 C 0.10399 0.21157 0.68504 0.0
C560 C 0.13771 0.15401 0.7309 0.0
H561 H 0.1329 0.15239 0.78987 0.0
C562 C 0.1643 0.1326 0.72819 0.0
C563 C 0.12625 0.16129 0.75341 0.0
C564 C 0.09705 0.18315 0.75735 0.0
C565 C 0.17946 0.11788 0.74737 0.0
C566 C 0.16799 0.12515 0.76987 0.0
C567 C 0.14173 0.14696 0.77259 0.0
C568 C 0.1815 0.10901 0.7908 0.0
C569 C 0.20684 0.09381 0.74335 0.0
C570 C 0.16087 0.08994 0.80474 0.0
C571 C 0.17257 0.07596 0.82516 0.0
C572 C 0.20518 0.08079 0.83215 0.0
C573 C 0.22608 0.09931 0.81792 0.0
C574 C 0.21428 0.11343 0.79745 0.0
H575 H 0.20788 0.08556 0.72504 0.0
H576 H 0.23054 0.10562 0.74761 0.0
H577 H 0.204 0.07205 0.75467 0.0
H578 H 0.13552 0.08617 0.79992 0.0
H579 H 0.15579 0.06186 0.8357 0.0
H580 H 0.10608 0.75662 0.18114 0.0
H581 H 0.13197 0.77793 0.21639 0.0
H582 H 0.10412 0.87585 0.19704 0.0
H583 H 0.07866 0.85497 0.16184 0.0
H584 H 0.16992 0.8702 0.20988 0.0
H585 H 0.08719 0.81353 0.27498 0.0
H586 H 0.10542 0.78597 0.25448 0.0
H587 H 0.07669 0.81615 0.24468 0.0
C588 C 0.10517 0.78264 0.18454 0.0
C589 C 0.09023 0.80408 0.16871 0.0
C590 C 0.11993 0.79477 0.2047 0.0
C591 C 0.11979 0.82846 0.20939 0.0
C592 C 0.10455 0.84977 0.19374 0.0
H593 H 0.14973 0.93947 0.33272 0.0
H594 H 0.13073 0.91196 0.29777 0.0
C595 C 0.08989 0.83774 0.17365 0.0
C596 C 0.13603 0.84199 0.23027 0.0
H597 H 0.13133 0.84472 0.28923 0.0
C598 C 0.16167 0.86449 0.22726 0.0
C599 C 0.12504 0.83462 0.25287 0.0
C600 C 0.09692 0.81146 0.25708 0.0
C601 C 0.17623 0.88029 0.24624 0.0
C602 C 0.16511 0.87305 0.26884 0.0
C603 C 0.13989 0.8501 0.27187 0.0
C604 C 0.17768 0.8906 0.28949 0.0
C605 C 0.20251 0.90548 0.2419 0.0
C606 C 0.21056 0.88796 0.29636 0.0
C607 C 0.22163 0.90388 0.31637 0.0
C608 C 0.19991 0.9225 0.32989 0.0
C609 C 0.16714 0.92538 0.32272 0.0
C610 C 0.15617 0.90956 0.30277 0.0
H611 H 0.20349 0.91301 0.22344 0.0
H612 H 0.19842 0.92754 0.25272 0.0
H613 H 0.22666 0.89505 0.24663 0.0
H614 H 0.22747 0.87306 0.28653 0.0
H615 H 0.24694 0.90096 0.32153 0.0
H616 H 0.90578 0.85769 0.65699 0.0
H617 H 0.88213 0.87796 0.6929 0.0
H618 H 0.89359 0.78274 0.72394 0.0
H619 H 0.91627 0.76181 0.68749 0.0
H620 H 0.83531 0.80821 0.7345 0.0
H621 H 0.93019 0.90186 0.75062 0.0
H622 H 0.91134 0.90733 0.72288 0.0
H623 H 0.93471 0.87088 0.72866 0.0
C624 C 0.90353 0.84104 0.67149 0.0
C625 C 0.91325 0.80819 0.66948 0.0
C626 C 0.89012 0.85275 0.69208 0.0
C627 C 0.8868 0.83213 0.71134 0.0
C628 C 0.89616 0.79918 0.70936 0.0
H629 H 0.85284 0.90788 0.84915 0.0
H630 H 0.87491 0.8838 0.81393 0.0
C631 C 0.90921 0.78727 0.68857 0.0
C632 C 0.87298 0.84501 0.73332 0.0
H633 H 0.88097 0.90681 0.77259 0.0
C634 C 0.84544 0.82961 0.74296 0.0
C635 C 0.88646 0.87266 0.74457 0.0
C636 C 0.91751 0.8889 0.73628 0.0
C637 C 0.83069 0.84143 0.76329 0.0
C638 C 0.8432 0.87009 0.77386 0.0
C639 C 0.87103 0.88514 0.76436 0.0
C640 C 0.82891 0.88422 0.79533 0.0
C641 C 0.80238 0.82261 0.77347 0.0
C642 C 0.79564 0.89285 0.79666 0.0
C643 C 0.78276 0.90625 0.81705 0.0
C644 C 0.80313 0.91197 0.83623 0.0
C645 C 0.8365 0.90399 0.83464 0.0
C646 C 0.84918 0.89014 0.81449 0.0
H647 H 0.8023 0.79676 0.76755 0.0
H648 H 0.80313 0.82289 0.79268 0.0
H649 H 0.77907 0.83394 0.76776 0.0
H650 H 0.77966 0.88944 0.78191 0.0
H651 H 0.75699 0.91232 0.81773 0.0
H652 H 0.85899 0.07292 0.33697 0.0
H653 H 0.87736 0.10145 0.30227 0.0
H654 H 0.77795 0.12961 0.2872 0.0
H655 H 0.75915 0.10063 0.32196 0.0
H656 H 0.81167 0.10715 0.24859 0.0
H657 H 0.88467 0.20049 0.29499 0.0
H658 H 0.89539 0.15954 0.30314 0.0
H659 H 0.85507 0.1748 0.30941 0.0
C660 C 0.84093 0.08507 0.32628 0.0
C661 C 0.80759 0.08463 0.33231 0.0
C662 C 0.85155 0.10162 0.30653 0.0
C663 C 0.82914 0.11832 0.29246 0.0
C664 C 0.79569 0.11715 0.29798 0.0
H665 H 0.89517 0.24943 0.18103 0.0
H666 H 0.8693 0.2284 0.21639 0.0
C667 C 0.78498 0.10052 0.3178 0.0
C668 C 0.84084 0.13633 0.27175 0.0
H669 H 0.89535 0.19476 0.25438 0.0
C670 C 0.82969 0.12655 0.24986 0.0
C671 C 0.86391 0.16207 0.27344 0.0
C672 C 0.87522 0.17511 0.29653 0.0
C673 C 0.84216 0.14074 0.22956 0.0
C674 C 0.86682 0.16496 0.23122 0.0
C675 C 0.8768 0.17586 0.25313 0.0
C676 C 0.88348 0.17815 0.21041 0.0
C677 C 0.82891 0.12955 0.2065 0.0
C678 C 0.9009 0.15707 0.19578 0.0
C679 C 0.91569 0.16896 0.1757 0.0
C680 C 0.9136 0.20228 0.16988 0.0
C681 C 0.89721 0.22365 0.18502 0.0
C682 C 0.88234 0.21166 0.20517 0.0
H683 H 0.80412 0.11866 0.20828 0.0
H684 H 0.82763 0.15012 0.19399 0.0
H685 H 0.84534 0.11055 0.19926 0.0
H686 H 0.90281 0.13128 0.19979 0.0
H687 H 0.9283 0.15184 0.16453 0.0
loop_
_geom_bond_atom_site_label_1
_geom_bond_atom_site_label_2
_geom_bond_distance
_geom_bond_site_symmetry_2
_ccdc_geom_bond_type
O0 Cd1 2.223 . S
O0 C8 1.315 . S
Cd1 O0 2.223 . S
Cd1 O4 2.297 . S
Cd1 O5 2.439 . S
Cd1 O11 2.240 . S
Cd2 O3 2.240 . S
Cd2 O10 2.223 . S
Cd2 O12 2.297 . S
Cd2 O13 2.439 . S
O3 Cd2 2.240 . S
O3 C8 1.279 . S
O4 Cd1 2.297 . S
O4 C6 1.247 . S
O5 Cd1 2.439 . S
O5 C6 1.208 . S
C6 O4 1.247 . S
C6 O5 1.208 . S
C7 O12 1.247 . S
C7 O13 1.208 . S
C8 O0 1.315 . S
C8 O3 1.279 . S
C9 O10 1.315 . S
C9 O11 1.279 . S
O10 Cd2 2.223 . S
O10 C9 1.315 . S
O11 Cd1 2.240 . S
O11 C9 1.279 . S
O12 Cd2 2.297 . S
O12 C7 1.247 . S
O13 Cd2 2.439 . S
O13 C7 1.208 . S
O14 Cd15 2.223 . S
O14 C22 1.315 . S
Cd15 O14 2.223 . S
Cd15 O18 2.297 . S
Cd15 O19 2.439 . S
Cd15 O25 2.240 . S
Cd16 O17 2.240 . S
Cd16 O24 2.223 . S
Cd16 O26 2.297 . S
Cd16 O27 2.439 . S
O17 Cd16 2.240 . S
O17 C22 1.279 . S
O18 Cd15 2.297 . S
O18 C20 1.247 . S
O19 Cd15 2.439 . S
O19 C20 1.208 . S
C20 O18 1.247 . S
C20 O19 1.208 . S
C21 O26 1.247 . S
C21 O27 1.208 . S
C22 O14 1.315 . S
C22 O17 1.279 . S
C23 O24 1.315 . S
C23 O25 1.279 . S
O24 Cd16 2.223 . S
O24 C23 1.315 . S
O25 Cd15 2.240 . S
O25 C23 1.279 . S
O26 Cd16 2.297 . S
O26 C21 1.247 . S
O27 Cd16 2.439 . S
O27 C21 1.208 . S
O28 Cd29 2.223 . S
O28 C36 1.315 . S
Cd29 O28 2.223 . S
Cd29 O32 2.297 . S
Cd29 O33 2.439 . S
Cd29 O39 2.240 . S
Cd30 O31 2.240 . S
Cd30 O38 2.223 . S
Cd30 O40 2.297 . S
Cd30 O41 2.439 . S
O31 Cd30 2.240 . S
O31 C36 1.279 . S
O32 Cd29 2.297 . S
O32 C34 1.247 . S
O33 Cd29 2.439 . S
O33 C34 1.208 . S
C34 O32 1.247 . S
C34 O33 1.208 . S
C35 O40 1.247 . S
C35 O41 1.208 . S
C36 O28 1.315 . S
C36 O31 1.279 . S
C37 O38 1.315 . S
C37 O39 1.279 . S
O38 Cd30 2.223 . S
O38 C37 1.315 . S
O39 Cd29 2.240 . S
O39 C37 1.279 . S
O40 Cd30 2.297 . S
O40 C35 1.247 . S
O41 Cd30 2.439 . S
O41 C35 1.208 . S
O42 Cd43 2.223 . S
O42 C50 1.315 . S
Cd43 O42 2.223 . S
Cd43 O46 2.297 . S
Cd43 O47 2.439 . S
Cd43 O53 2.240 . S
Cd44 O45 2.240 . S
Cd44 O52 2.223 . S
Cd44 O54 2.297 . S
Cd44 O55 2.439 . S
O45 Cd44 2.240 . S
O45 C50 1.279 . S
O46 Cd43 2.297 . S
O46 C48 1.247 . S
O47 Cd43 2.439 . S
O47 C48 1.208 . S
C48 O46 1.247 . S
C48 O47 1.208 . S
C49 O54 1.247 . S
C49 O55 1.208 . S
C50 O42 1.315 . S
C50 O45 1.279 . S
C51 O52 1.315 . S
C51 O53 1.279 . S
O52 Cd44 2.223 . S
O52 C51 1.315 . S
O53 Cd43 2.240 . S
O53 C51 1.279 . S
O54 Cd44 2.297 . S
O54 C49 1.247 . S
O55 Cd44 2.439 . S
O55 C49 1.208 . S
O56 Cd57 2.223 . S
O56 C64 1.315 . S
Cd57 O56 2.223 . S
Cd57 O60 2.297 . S
Cd57 O61 2.439 . S
Cd57 O67 2.240 . S
Cd58 O59 2.240 . S
Cd58 O66 2.223 . S
Cd58 O68 2.297 . S
Cd58 O69 2.439 . S
O59 Cd58 2.240 . S
O59 C64 1.279 . S
O60 Cd57 2.297 . S
O60 C62 1.247 . S
O61 Cd57 2.439 . S
O61 C62 1.208 . S
C62 O60 1.247 . S
C62 O61 1.208 . S
C63 O68 1.247 . S
C63 O69 1.208 . S
C64 O56 1.315 . S
C64 O59 1.279 . S
C65 O66 1.315 . S
C65 O67 1.279 . S
O66 Cd58 2.223 . S
O66 C65 1.315 . S
O67 Cd57 2.240 . S
O67 C65 1.279 . S
O68 Cd58 2.297 . S
O68 C63 1.247 . S
O69 Cd58 2.439 . S
O69 C63 1.208 . S
O70 Cd71 2.223 . S
O70 C78 1.315 . S
Cd71 O70 2.223 . S
Cd71 O74 2.297 . S
Cd71 O75 2.439 . S
Cd71 O81 2.240 . S
Cd72 O73 2.240 . S
Cd72 O80 2.223 . S
Cd72 O82 2.297 . S
Cd72 O83 2.439 . S
O73 Cd72 2.240 . S
O73 C78 1.279 . S
O74 Cd71 2.297 . S
O74 C76 1.247 . S
O75 Cd71 2.439 . S
O75 C76 1.208 . S
C76 O74 1.247 . S
C76 O75 1.208 . S
C77 O82 1.247 . S
C77 O83 1.208 . S
C78 O70 1.315 . S
C78 O73 1.279 . S
C79 O80 1.315 . S
C79 O81 1.279 . S
O80 Cd72 2.223 . S
O80 C79 1.315 . S
O81 Cd71 2.240 . S
O81 C79 1.279 . S
O82 Cd72 2.297 . S
O82 C77 1.247 . S
O83 Cd72 2.439 . S
O83 C77 1.208 . S
O84 Cd85 2.223 . S
O84 C92 1.315 . S
Cd85 O84 2.223 . S
Cd85 O88 2.297 . S
Cd85 O89 2.439 . S
Cd85 O95 2.240 . S
Cd86 O87 2.240 . S
Cd86 O94 2.223 . S
Cd86 O96 2.297 . S
Cd86 O97 2.439 . S
O87 Cd86 2.240 . S
O87 C92 1.279 . S
O88 Cd85 2.297 . S
O88 C90 1.247 . S
O89 Cd85 2.439 . S
O89 C90 1.208 . S
C90 O88 1.247 . S
C90 O89 1.208 . S
C91 O96 1.247 . S
C91 O97 1.208 . S
C92 O84 1.315 . S
C92 O87 1.279 . S
C93 O94 1.315 . S
C93 O95 1.279 . S
O94 Cd86 2.223 . S
O94 C93 1.315 . S
O95 Cd85 2.240 . S
O95 C93 1.279 . S
O96 Cd86 2.297 . S
O96 C91 1.247 . S
O97 Cd86 2.439 . S
O97 C91 1.208 . S
O98 Cd99 2.223 . S
O98 C106 1.315 . S
Cd99 O98 2.223 . S
Cd99 O102 2.297 . S
Cd99 O103 2.439 . S
Cd99 O109 2.240 . S
Cd100 O101 2.240 . S
Cd100 O108 2.223 . S
Cd100 O110 2.297 . S
Cd100 O111 2.439 . S
O101 Cd100 2.240 . S
O101 C106 1.279 . S
O102 Cd99 2.297 . S
O102 C104 1.247 . S
O103 Cd99 2.439 . S
O103 C104 1.208 . S
C104 O102 1.247 . S
C104 O103 1.208 . S
C105 O110 1.247 . S
C105 O111 1.208 . S
C106 O98 1.315 . S
C106 O101 1.279 . S
C107 O108 1.315 . S
C107 O109 1.279 . S
O108 Cd100 2.223 . S
O108 C107 1.315 . S
O109 Cd99 2.240 . S
O109 C107 1.279 . S
O110 Cd100 2.297 . S
O110 C105 1.247 . S
O111 Cd100 2.439 . S
O111 C105 1.208 . S
H112 C120 0.929 . S
H113 C122 0.930 1_455 S
H114 C124 0.930 . S
H115 C127 0.929 . S
H116 C130 0.930 . S
H117 C132 0.960 . S
H118 C132 0.960 1_455 S
H119 C132 0.960 . S
C120 H112 0.929 . S
C120 C121 1.377 . S
C120 C122 1.384 . S
C121 C120 1.377 . S
C121 C127 1.390 . S
C122 H113 0.930 1_655 S
C122 C120 1.384 . S
C122 C123 1.372 . S
C123 C122 1.372 . S
C123 C124 1.400 . S
C123 C128 1.490 . S
C124 H114 0.930 . S
C124 C123 1.400 . S
C124 C127 1.386 . S
H125 C141 0.930 . S
H126 C142 0.931 1_655 S
C127 H115 0.929 . S
C127 C121 1.390 . S
C127 C124 1.386 . S
C128 C123 1.490 . S
C128 C130 1.395 . S
C128 C131 1.403 . S
H129 C135 0.930 . S
C130 H116 0.930 . S
C130 C128 1.395 . S
C130 C133 1.403 1_655 S
C131 C128 1.403 . S
C131 C132 1.524 . S
C131 C135 1.400 1_655 S
C132 H117 0.960 . S
C132 H118 0.960 1_655 S
C132 H119 0.960 . S
C132 C131 1.524 . S
C133 C130 1.403 1_455 S
C133 C134 1.392 . S
C133 C137 1.495 . S
C134 C133 1.392 . S
C134 C135 1.385 . S
C134 C136 1.478 . S
C135 H129 0.930 . S
C135 C131 1.400 1_455 S
C135 C134 1.385 . S
C136 C134 1.478 . S
C136 C138 1.381 . S
C136 C142 1.383 . S
C137 C133 1.495 . S
C137 H143 0.959 . S
C137 H144 0.961 . S
C137 H145 0.960 . S
C138 C136 1.381 . S
C138 C139 1.394 . S
C138 H146 0.930 . S
C139 C138 1.394 . S
C139 C140 1.383 . S
C139 H147 0.929 . S
C140 C139 1.383 . S
C140 C141 1.377 . S
C141 H125 0.930 . S
C141 C140 1.377 . S
C141 C142 1.379 . S
C142 H126 0.931 1_455 S
C142 C136 1.383 . S
C142 C141 1.379 . S
H143 C137 0.959 . S
H144 C137 0.961 . S
H145 C137 0.960 . S
H146 C138 0.930 . S
H147 C139 0.929 . S
H148 C156 0.929 . S
H149 C158 0.930 . S
H150 C160 0.930 1_565 S
H151 C163 0.929 . S
H152 C166 0.930 . S
H153 C168 0.960 . S
H154 C168 0.960 . S
H155 C168 0.960 . S
C156 H148 0.929 . S
C156 C157 1.377 . S
C156 C158 1.384 . S
C157 C156 1.377 . S
C157 C163 1.390 . S
C158 H149 0.930 . S
C158 C156 1.384 . S
C158 C159 1.372 . S
C159 C158 1.372 . S
C159 C160 1.400 . S
C159 C164 1.490 . S
C160 H150 0.930 1_545 S
C160 C159 1.400 . S
C160 C163 1.386 . S
H161 C177 0.930 . S
H162 C178 0.931 . S
C163 H151 0.929 . S
C163 C157 1.390 . S
C163 C160 1.386 . S
C164 C159 1.490 . S
C164 C166 1.395 . S
C164 C167 1.403 1_545 S
H165 C171 0.930 . S
C166 H152 0.930 . S
C166 C164 1.395 . S
C166 C169 1.403 . S
C167 C164 1.403 1_565 S
C167 C168 1.524 . S
C167 C171 1.400 . S
C168 H153 0.960 . S
C168 H154 0.960 . S
C168 H155 0.960 . S
C168 C167 1.524 . S
C169 C166 1.403 . S
C169 C170 1.392 1_545 S
C169 C173 1.495 . S
C170 C169 1.392 1_565 S
C170 C171 1.385 . S
C170 C172 1.478 . S
C171 H165 0.930 . S
C171 C167 1.400 . S
C171 C170 1.385 . S
C172 C170 1.478 . S
C172 C174 1.381 . S
C172 C178 1.383 . S
C173 C169 1.495 . S
C173 H179 0.959 . S
C173 H180 0.961 . S
C173 H181 0.960 . S
C174 C172 1.381 . S
C174 C175 1.394 . S
C174 H182 0.930 1_565 S
C175 C174 1.394 . S
C175 C176 1.383 . S
C175 H183 0.929 . S
C176 C175 1.383 . S
C176 C177 1.377 . S
C177 H161 0.930 . S
C177 C176 1.377 . S
C177 C178 1.379 . S
C178 H162 0.931 . S
C178 C172 1.383 . S
C178 C177 1.379 . S
H179 C173 0.959 . S
H180 C173 0.961 . S
H181 C173 0.960 . S
H182 C174 0.930 1_545 S
H183 C175 0.929 . S
H184 C192 0.929 . S
H185 C194 0.930 . S
H186 C196 0.930 1_455 S
H187 C199 0.929 . S
H188 C202 0.930 . S
H189 C204 0.960 . S
H190 C204 0.960 . S
H191 C204 0.960 . S
C192 H184 0.929 . S
C192 C193 1.377 . S
C192 C194 1.384 . S
C193 C192 1.377 . S
C193 C199 1.390 . S
C194 H185 0.930 . S
C194 C192 1.384 . S
C194 C195 1.372 . S
C195 C194 1.372 . S
C195 C196 1.400 . S
C195 C200 1.490 . S
C196 H186 0.930 1_655 S
C196 C195 1.400 . S
C196 C199 1.386 . S
H197 C213 0.930 . S
H198 C214 0.931 . S
C199 H187 0.929 . S
C199 C193 1.390 . S
C199 C196 1.386 . S
C200 C195 1.490 . S
C200 C202 1.395 . S
C200 C203 1.403 1_655 S
H201 C207 0.930 . S
C202 H188 0.930 . S
C202 C200 1.395 . S
C202 C205 1.403 . S
C203 C200 1.403 1_455 S
C203 C204 1.524 . S
C203 C207 1.400 . S
C204 H189 0.960 . S
C204 H190 0.960 . S
C204 H191 0.960 . S
C204 C203 1.524 . S
C205 C202 1.403 . S
C205 C206 1.392 1_655 S
C205 C209 1.495 . S
C206 C205 1.392 1_455 S
C206 C207 1.385 . S
C206 C208 1.478 . S
C207 H201 0.930 . S
C207 C203 1.400 . S
C207 C206 1.385 . S
C208 C206 1.478 . S
C208 C210 1.381 . S
C208 C214 1.383 . S
C209 C205 1.495 . S
C209 H215 0.959 . S
C209 H216 0.961 . S
C209 H217 0.960 . S
C210 C208 1.381 . S
C210 C211 1.394 . S
C210 H218 0.930 1_455 S
C211 C210 1.394 . S
C211 C212 1.383 . S
C211 H219 0.929 . S
C212 C211 1.383 . S
C212 C213 1.377 . S
C213 H197 0.930 . S
C213 C212 1.377 . S
C213 C214 1.379 . S
C214 H198 0.931 . S
C214 C208 1.383 . S
C214 C213 1.379 . S
H215 C209 0.959 . S
H216 C209 0.961 . S
H217 C209 0.960 . S
H218 C210 0.930 1_655 S
H219 C211 0.929 . S
H220 C228 0.929 . S
H221 C230 0.930 1_565 S
H222 C232 0.930 . S
H223 C235 0.929 . S
H224 C238 0.930 . S
H225 C240 0.960 . S
H226 C240 0.960 . S
H227 C240 0.960 . S
C228 H220 0.929 . S
C228 C229 1.377 . S
C228 C230 1.384 . S
C229 C228 1.377 . S
C229 C235 1.390 . S
C230 H221 0.930 1_545 S
C230 C228 1.384 . S
C230 C231 1.372 . S
C231 C230 1.372 . S
C231 C232 1.400 . S
C231 C236 1.490 . S
C232 H222 0.930 . S
C232 C231 1.400 . S
C232 C235 1.386 . S
H233 C249 0.930 . S
H234 C250 0.931 1_545 S
C235 H223 0.929 . S
C235 C229 1.390 . S
C235 C232 1.386 . S
C236 C231 1.490 . S
C236 C238 1.395 1_545 S
C236 C239 1.403 . S
H237 C243 0.933 . S
C238 H224 0.930 . S
C238 C236 1.395 1_565 S
C238 C241 1.403 . S
C239 C236 1.403 . S
C239 C240 1.524 . S
C239 C243 1.411 . S
C240 H225 0.960 . S
C240 H226 0.960 . S
C240 H227 0.960 . S
C240 C239 1.524 . S
C241 C238 1.403 . S
C241 C242 1.392 . S
C241 C245 1.495 . S
C242 C241 1.392 . S
C242 C243 1.372 1_565 S
C242 C244 1.478 . S
C243 H237 0.933 . S
C243 C239 1.411 . S
C243 C242 1.372 1_545 S
C244 C242 1.478 . S
C244 C246 1.381 . S
C244 C250 1.383 . S
C245 C241 1.495 . S
C245 H251 0.959 . S
C245 H252 0.961 . S
C245 H253 0.960 . S
C246 C244 1.381 . S
C246 C247 1.394 . S
C246 H254 0.930 . S
C247 C246 1.394 . S
C247 C248 1.383 . S
C247 H255 0.929 . S
C248 C247 1.383 . S
C248 C249 1.377 . S
C249 H233 0.930 . S
C249 C248 1.377 . S
C249 C250 1.379 . S
C250 H234 0.931 1_565 S
C250 C244 1.383 . S
C250 C249 1.379 . S
H251 C245 0.959 . S
H252 C245 0.961 . S
H253 C245 0.960 . S
H254 C246 0.930 . S
H255 C247 0.929 . S
H256 C264 0.929 . S
H257 C266 0.930 . S
H258 C268 0.930 . S
H259 C271 0.929 . S
H260 C274 0.930 . S
H261 C276 0.960 . S
H262 C276 0.960 . S
H263 C276 0.960 . S
C264 H256 0.929 . S
C264 C265 1.377 1_545 S
C264 C266 1.384 . S
C265 C264 1.377 1_565 S
C265 C271 1.390 . S
C266 H257 0.930 . S
C266 C264 1.384 . S
C266 C267 1.372 . S
C267 C266 1.372 . S
C267 C268 1.400 . S
C267 C272 1.490 . S
C268 H258 0.930 . S
C268 C267 1.400 . S
C268 C271 1.386 1_545 S
H269 C285 0.930 . S
H270 C286 0.931 . S
C271 H259 0.929 . S
C271 C265 1.390 . S
C271 C268 1.386 1_565 S
C272 C267 1.490 . S
C272 C274 1.395 . S
C272 C275 1.403 . S
H273 C279 0.930 . S
C274 H260 0.930 . S
C274 C272 1.395 . S
C274 C277 1.403 . S
C275 C272 1.403 . S
C275 C276 1.524 . S
C275 C279 1.400 . S
C276 H261 0.960 . S
C276 H262 0.960 . S
C276 H263 0.960 . S
C276 C275 1.524 . S
C277 C274 1.403 . S
C277 C278 1.392 . S
C277 C281 1.495 . S
C278 C277 1.392 . S
C278 C279 1.385 . S
C278 C280 1.478 . S
C279 H273 0.930 . S
C279 C275 1.400 . S
C279 C278 1.385 . S
C280 C278 1.478 . S
C280 C282 1.381 . S
C280 C286 1.383 . S
C281 C277 1.495 . S
C281 H287 0.959 . S
C281 H288 0.961 . S
C281 H289 0.960 . S
C282 C280 1.381 . S
C282 C283 1.394 . S
C282 H290 0.930 . S
C283 C282 1.394 . S
C283 C284 1.383 . S
C283 H291 0.929 . S
C284 C283 1.383 . S
C284 C285 1.377 . S
C285 H269 0.930 . S
C285 C284 1.377 . S
C285 C286 1.379 . S
C286 H270 0.931 . S
C286 C280 1.383 . S
C286 C285 1.379 . S
H287 C281 0.959 . S
H288 C281 0.961 . S
H289 C281 0.960 . S
H290 C282 0.930 . S
H291 C283 0.929 . S
H292 C300 0.929 . S
H293 C302 0.930 . S
H294 C304 0.930 . S
H295 C307 0.929 . S
H296 C310 0.930 . S
H297 C312 0.960 . S
H298 C312 0.960 . S
H299 C312 0.960 . S
C300 H292 0.929 . S
C300 C301 1.377 . S
C300 C302 1.384 . S
C301 C300 1.377 . S
C301 C307 1.390 . S
C302 H293 0.930 . S
C302 C300 1.384 . S
C302 C303 1.372 . S
C303 C302 1.372 . S
C303 C304 1.400 . S
C303 C308 1.490 . S
C304 H294 0.930 . S
C304 C303 1.400 . S
C304 C307 1.386 . S
H305 C321 0.930 . S
H306 C322 0.931 . S
C307 H295 0.929 . S
C307 C301 1.390 . S
C307 C304 1.386 . S
C308 C303 1.490 . S
C308 C310 1.395 . S
C308 C311 1.403 . S
H309 C315 0.930 . S
C310 H296 0.930 . S
C310 C308 1.395 . S
C310 C313 1.403 . S
C311 C308 1.403 . S
C311 C312 1.524 . S
C311 C315 1.400 . S
C312 H297 0.960 . S
C312 H298 0.960 . S
C312 H299 0.960 . S
C312 C311 1.524 . S
C313 C310 1.403 . S
C313 C314 1.392 . S
C313 C317 1.495 . S
C314 C313 1.392 . S
C314 C315 1.385 . S
C314 C316 1.478 . S
C315 H309 0.930 . S
C315 C311 1.400 . S
C315 C314 1.385 . S
C316 C314 1.478 . S
C316 C318 1.381 . S
C316 C322 1.383 . S
C317 C313 1.495 . S
C317 H323 0.959 . S
C317 H324 0.961 . S
C317 H325 0.960 . S
C318 C316 1.381 . S
C318 C319 1.394 1_455 S
C318 H326 0.930 . S
C319 C318 1.394 1_655 S
C319 C320 1.383 . S
C319 H327 0.929 . S
C320 C319 1.383 . S
C320 C321 1.377 . S
C321 H305 0.930 . S
C321 C320 1.377 . S
C321 C322 1.379 1_655 S
C322 H306 0.931 . S
C322 C316 1.383 . S
C322 C321 1.379 1_455 S
H323 C317 0.959 . S
H324 C317 0.961 . S
H325 C317 0.960 . S
H326 C318 0.930 . S
H327 C319 0.929 . S
H328 C336 0.929 . S
H329 C338 0.930 . S
H330 C340 0.930 . S
H331 C343 0.929 . S
H332 C346 0.930 . S
H333 C348 0.960 . S
H334 C348 0.960 . S
H335 C348 0.960 . S
C336 H328 0.929 . S
C336 C337 1.377 1_565 S
C336 C338 1.384 . S
C337 C336 1.377 1_545 S
C337 C343 1.390 . S
C338 H329 0.930 . S
C338 C336 1.384 . S
C338 C339 1.372 . S
C339 C338 1.372 . S
C339 C340 1.400 . S
C339 C344 1.490 . S
C340 H330 0.930 . S
C340 C339 1.400 . S
C340 C343 1.386 1_565 S
H341 C357 0.930 . S
H342 C358 0.931 . S
C343 H331 0.929 . S
C343 C337 1.390 . S
C343 C340 1.386 1_545 S
C344 C339 1.490 . S
C344 C346 1.395 . S
C344 C347 1.403 . S
H345 C351 0.930 . S
C346 H332 0.930 . S
C346 C344 1.395 . S
C346 C349 1.403 . S
C347 C344 1.403 . S
C347 C348 1.524 . S
C347 C351 1.400 . S
C348 H333 0.960 . S
C348 H334 0.960 . S
C348 H335 0.960 . S
C348 C347 1.524 . S
C349 C346 1.403 . S
C349 C350 1.392 . S
C349 C353 1.495 . S
C350 C349 1.392 . S
C350 C351 1.385 . S
C350 C352 1.478 . S
C351 H345 0.930 . S
C351 C347 1.400 . S
C351 C350 1.385 . S
C352 C350 1.478 . S
C352 C354 1.381 . S
C352 C358 1.383 . S
C353 C349 1.495 . S
C353 H359 0.959 . S
C353 H360 0.961 . S
C353 H361 0.960 . S
C354 C352 1.381 . S
C354 C355 1.394 . S
C354 H362 0.930 . S
C355 C354 1.394 . S
C355 C356 1.383 . S
C355 H363 0.929 . S
C356 C355 1.383 . S
C356 C357 1.377 . S
C357 H341 0.930 . S
C357 C356 1.377 . S
C357 C358 1.379 . S
C358 H342 0.931 . S
C358 C352 1.383 . S
C358 C357 1.379 . S
H359 C353 0.959 . S
H360 C353 0.961 . S
H361 C353 0.960 . S
H362 C354 0.930 . S
H363 C355 0.929 . S
H364 C372 0.929 . S
H365 C374 0.930 . S
H366 C376 0.930 . S
H367 C379 0.929 . S
H368 C382 0.930 . S
H369 C384 0.960 . S
H370 C384 0.960 . S
H371 C384 0.960 . S
C372 H364 0.929 . S
C372 C373 1.377 . S
C372 C374 1.384 . S
C373 C372 1.377 . S
C373 C379 1.390 . S
C374 H365 0.930 . S
C374 C372 1.384 . S
C374 C375 1.372 . S
C375 C374 1.372 . S
C375 C376 1.400 . S
C375 C380 1.490 . S
C376 H366 0.930 . S
C376 C375 1.400 . S
C376 C379 1.386 . S
H377 C393 0.930 . S
H378 C394 0.931 . S
C379 H367 0.929 . S
C379 C373 1.390 . S
C379 C376 1.386 . S
C380 C375 1.490 . S
C380 C382 1.395 . S
C380 C383 1.403 . S
H381 C387 0.930 . S
C382 H368 0.930 . S
C382 C380 1.395 . S
C382 C385 1.403 . S
C383 C380 1.403 . S
C383 C384 1.524 . S
C383 C387 1.400 . S
C384 H369 0.960 . S
C384 H370 0.960 . S
C384 H371 0.960 . S
C384 C383 1.524 . S
C385 C382 1.403 . S
C385 C386 1.392 . S
C385 C389 1.495 . S
C386 C385 1.392 . S
C386 C387 1.385 . S
C386 C388 1.478 . S
C387 H381 0.930 . S
C387 C383 1.400 . S
C387 C386 1.385 . S
C388 C386 1.478 . S
C388 C390 1.381 . S
C388 C394 1.383 . S
C389 C385 1.495 . S
C389 H395 0.959 . S
C389 H396 0.961 . S
C389 H397 0.960 . S
C390 C388 1.381 . S
C390 C391 1.394 . S
C390 H398 0.930 . S
C391 C390 1.394 . S
C391 C392 1.383 1_655 S
C391 H399 0.929 1_655 S
C392 C391 1.383 1_455 S
C392 C393 1.377 . S
C393 H377 0.930 . S
C393 C392 1.377 . S
C393 C394 1.379 1_455 S
C394 H378 0.931 . S
C394 C388 1.383 . S
C394 C393 1.379 1_655 S
H395 C389 0.959 . S
H396 C389 0.961 . S
H397 C389 0.960 . S
H398 C390 0.930 . S
H399 C391 0.929 1_455 S
H400 C408 0.929 . S
H401 C410 0.930 . S
H402 C412 0.930 . S
H403 C415 0.929 . S
H404 C418 0.930 . S
H405 C420 0.960 . S
H406 C420 0.960 . S
H407 C420 0.960 . S
C408 H400 0.929 . S
C408 C409 1.377 . S
C408 C410 1.384 1_565 S
C409 C408 1.377 . S
C409 C415 1.390 . S
C410 H401 0.930 . S
C410 C408 1.384 1_545 S
C410 C411 1.372 . S
C411 C410 1.372 . S
C411 C412 1.400 . S
C411 C416 1.490 . S
C412 H402 0.930 . S
C412 C411 1.400 . S
C412 C415 1.386 1_545 S
H413 C429 0.930 . S
H414 C430 0.931 . S
C415 H403 0.929 . S
C415 C409 1.390 . S
C415 C412 1.386 1_565 S
C416 C411 1.490 . S
C416 C418 1.395 . S
C416 C419 1.403 1_556 S
H417 C423 0.930 . S
C418 H404 0.930 . S
C418 C416 1.395 . S
C418 C421 1.403 . S
C419 C416 1.403 1_554 S
C419 C420 1.524 . S
C419 C423 1.400 . S
C420 H405 0.960 . S
C420 H406 0.960 . S
C420 H407 0.960 . S
C420 C419 1.524 . S
C421 C418 1.403 . S
C421 C422 1.392 1_556 S
C421 C425 1.495 . S
C422 C421 1.392 1_554 S
C422 C423 1.385 . S
C422 C424 1.478 . S
C423 H417 0.930 . S
C423 C419 1.400 . S
C423 C422 1.385 . S
C424 C422 1.478 . S
C424 C426 1.381 . S
C424 C430 1.383 . S
C425 C421 1.495 . S
C425 H431 0.959 . S
C425 H432 0.961 . S
C425 H433 0.960 . S
C426 C424 1.381 . S
C426 C427 1.394 . S
C426 H434 0.930 . S
C427 C426 1.394 . S
C427 C428 1.383 . S
C427 H435 0.929 . S
C428 C427 1.383 . S
C428 C429 1.377 . S
C429 H413 0.930 . S
C429 C428 1.377 . S
C429 C430 1.379 . S
C430 H414 0.931 . S
C430 C424 1.383 . S
C430 C429 1.379 . S
H431 C425 0.959 . S
H432 C425 0.961 . S
H433 C425 0.960 . S
H434 C426 0.930 . S
H435 C427 0.929 . S
H436 C444 0.929 . S
H437 C446 0.930 . S
H438 C448 0.930 1_554 S
H439 C451 0.929 . S
H440 C454 0.930 . S
H441 C456 0.960 . S
H442 C456 0.960 1_556 S
H443 C456 0.960 . S
C444 H436 0.929 . S
C444 C445 1.377 . S
C444 C446 1.384 . S
C445 C444 1.377 . S
C445 C451 1.390 . S
C446 H437 0.930 . S
C446 C444 1.384 . S
C446 C447 1.372 . S
C447 C446 1.372 . S
C447 C448 1.400 . S
C447 C452 1.490 . S
C448 H438 0.930 1_556 S
C448 C447 1.400 . S
C448 C451 1.386 . S
H449 C465 0.930 . S
H450 C466 0.931 . S
C451 H439 0.929 . S
C451 C445 1.390 . S
C451 C448 1.386 . S
C452 C447 1.490 . S
C452 C454 1.395 . S
C452 C455 1.403 1_556 S
H453 C459 0.930 . S
C454 H440 0.930 . S
C454 C452 1.395 . S
C454 C457 1.403 . S
C455 C452 1.403 1_554 S
C455 C456 1.524 . S
C455 C459 1.400 . S
C456 H441 0.960 . S
C456 H442 0.960 1_554 S
C456 H443 0.960 . S
C456 C455 1.524 . S
C457 C454 1.403 . S
C457 C458 1.392 1_556 S
C457 C461 1.495 . S
C458 C457 1.392 1_554 S
C458 C459 1.385 . S
C458 C460 1.478 . S
C459 H453 0.930 . S
C459 C455 1.400 . S
C459 C458 1.385 . S
C460 C458 1.478 . S
C460 C462 1.381 . S
C460 C466 1.383 . S
C461 C457 1.495 . S
C461 H467 0.959 . S
C461 H468 0.961 1_556 S
C461 H469 0.960 . S
C462 C460 1.381 . S
C462 C463 1.394 1_455 S
C462 H470 0.930 1_554 S
C463 C462 1.394 1_655 S
C463 C464 1.383 . S
C463 H471 0.929 . S
C464 C463 1.383 . S
C464 C465 1.377 1_655 S
C465 H449 0.930 . S
C465 C464 1.377 1_455 S
C465 C466 1.379 . S
C466 H450 0.931 . S
C466 C460 1.383 . S
C466 C465 1.379 . S
H467 C461 0.959 . S
H468 C461 0.961 1_554 S
H469 C461 0.960 . S
H470 C462 0.930 1_556 S
H471 C463 0.929 . S
H472 C480 0.929 . S
H473 C482 0.930 . S
H474 C484 0.930 . S
H475 C487 0.929 . S
H476 C490 0.930 . S
H477 C492 0.960 . S
H478 C492 0.960 . S
H479 C492 0.960 . S
C480 H472 0.929 . S
C480 C481 1.377 . S
C480 C482 1.384 . S
C481 C480 1.377 . S
C481 C487 1.390 . S
C482 H473 0.930 . S
C482 C480 1.384 . S
C482 C483 1.372 . S
C483 C482 1.372 . S
C483 C484 1.400 . S
C483 C488 1.490 . S
C484 H474 0.930 . S
C484 C483 1.400 . S
C484 C487 1.386 . S
H485 C501 0.930 . S
H486 C502 0.931 . S
C487 H475 0.929 . S
C487 C481 1.390 . S
C487 C484 1.386 . S
C488 C483 1.490 . S
C488 C490 1.395 1_554 S
C488 C491 1.403 . S
H489 C495 0.930 . S
C490 H476 0.930 . S
C490 C488 1.395 1_556 S
C490 C493 1.403 . S
C491 C488 1.403 . S
C491 C492 1.524 . S
C491 C495 1.400 . S
C492 H477 0.960 . S
C492 H478 0.960 . S
C492 H479 0.960 . S
C492 C491 1.524 . S
C493 C490 1.403 . S
C493 C494 1.392 . S
C493 C497 1.495 . S
C494 C493 1.392 . S
C494 C495 1.385 1_556 S
C494 C496 1.478 . S
C495 H489 0.930 . S
C495 C491 1.400 . S
C495 C494 1.385 1_554 S
C496 C494 1.478 . S
C496 C498 1.381 . S
C496 C502 1.383 . S
C497 C493 1.495 . S
C497 H503 0.959 . S
C497 H504 0.961 . S
C497 H505 0.960 . S
C498 C496 1.381 . S
C498 C499 1.394 . S
C498 H506 0.930 . S
C499 C498 1.394 . S
C499 C500 1.383 1_565 S
C499 H507 0.929 . S
C500 C499 1.383 1_545 S
C500 C501 1.377 . S
C501 H485 0.930 . S
C501 C500 1.377 . S
C501 C502 1.379 1_545 S
C502 H486 0.931 . S
C502 C496 1.383 . S
C502 C501 1.379 1_565 S
H503 C497 0.959 . S
H504 C497 0.961 . S
H505 C497 0.960 . S
H506 C498 0.930 . S
H507 C499 0.929 . S
H508 C516 0.929 . S
H509 C518 0.930 . S
H510 C520 0.930 . S
H511 C523 0.929 . S
H512 C526 0.930 . S
H513 C528 0.960 1_554 S
H514 C528 0.960 1_554 S
H515 C528 0.960 . S
C516 H508 0.929 . S
C516 C517 1.377 . S
C516 C518 1.384 . S
C517 C516 1.377 . S
C517 C523 1.390 . S
C518 H509 0.930 . S
C518 C516 1.384 . S
C518 C519 1.372 . S
C519 C518 1.372 . S
C519 C520 1.400 . S
C519 C524 1.490 . S
C520 H510 0.930 . S
C520 C519 1.400 . S
C520 C523 1.386 . S
H521 C537 0.930 . S
H522 C538 0.939 . S
C523 H511 0.929 . S
C523 C517 1.390 . S
C523 C520 1.386 . S
C524 C519 1.490 . S
C524 C526 1.395 . S
C524 C527 1.403 . S
H525 C531 0.930 . S
C526 H512 0.930 . S
C526 C524 1.395 . S
C526 C529 1.403 1_556 S
C527 C524 1.403 . S
C527 C528 1.524 . S
C527 C531 1.400 1_556 S
C528 H513 0.960 1_556 S
C528 H514 0.960 1_556 S
C528 H515 0.960 . S
C528 C527 1.524 . S
C529 C526 1.403 1_554 S
C529 C530 1.392 . S
C529 C533 1.495 . S
C530 C529 1.392 . S
C530 C531 1.385 . S
C530 C532 1.478 . S
C531 H525 0.930 . S
C531 C527 1.400 1_554 S
C531 C530 1.385 . S
C532 C530 1.478 . S
C532 C534 1.381 . S
C532 C538 1.383 . S
C533 C529 1.495 . S
C533 H539 0.959 1_554 S
C533 H540 0.961 1_554 S
C533 H541 0.960 . S
C534 C532 1.381 . S
C534 C535 1.394 . S
C534 H542 0.930 . S
C535 C534 1.394 . S
C535 C536 1.383 1_655 S
C535 H543 0.929 . S
C536 C535 1.383 1_455 S
C536 C537 1.377 . S
C537 H521 0.930 . S
C537 C536 1.377 . S
C537 C538 1.379 1_455 S
C538 H522 0.939 . S
C538 C532 1.383 . S
C538 C537 1.379 1_655 S
H539 C533 0.959 1_556 S
H540 C533 0.961 1_556 S
H541 C533 0.960 . S
H542 C534 0.930 . S
H543 C535 0.929 . S
H544 C552 0.929 . S
H545 C554 0.930 . S
H546 C556 0.930 . S
H547 C559 0.929 . S
H548 C562 0.930 . S
H549 C564 0.960 . S
H550 C564 0.960 . S
H551 C564 0.960 . S
C552 H544 0.929 . S
C552 C553 1.377 . S
C552 C554 1.384 . S
C553 C552 1.377 . S
C553 C559 1.390 . S
C554 H545 0.930 . S
C554 C552 1.384 . S
C554 C555 1.372 . S
C555 C554 1.372 . S
C555 C556 1.400 . S
C555 C560 1.490 . S
C556 H546 0.930 . S
C556 C555 1.400 . S
C556 C559 1.386 . S
H557 C573 0.930 . S
H558 C574 0.931 . S
C559 H547 0.929 . S
C559 C553 1.390 . S
C559 C556 1.386 . S
C560 C555 1.490 . S
C560 C562 1.395 . S
C560 C563 1.403 . S
H561 C567 0.930 . S
C562 H548 0.930 . S
C562 C560 1.395 . S
C562 C565 1.403 . S
C563 C560 1.403 . S
C563 C564 1.524 . S
C563 C567 1.400 . S
C564 H549 0.960 . S
C564 H550 0.960 . S
C564 H551 0.960 . S
C564 C563 1.524 . S
C565 C562 1.403 . S
C565 C566 1.392 . S
C565 C569 1.495 . S
C566 C565 1.392 . S
C566 C567 1.385 . S
C566 C568 1.478 . S
C567 H561 0.930 . S
C567 C563 1.400 . S
C567 C566 1.385 . S
C568 C566 1.478 . S
C568 C570 1.381 . S
C568 C574 1.383 . S
C569 C565 1.495 . S
C569 H575 0.959 . S
C569 H576 0.961 . S
C569 H577 0.960 . S
C570 C568 1.381 . S
C570 C571 1.394 . S
C570 H578 0.930 . S
C571 C570 1.394 . S
C571 C572 1.383 . S
C571 H579 0.929 . S
C572 C571 1.383 . S
C572 C573 1.377 . S
C573 H557 0.930 . S
C573 C572 1.377 . S
C573 C574 1.379 . S
C574 H558 0.931 . S
C574 C568 1.383 . S
C574 C573 1.379 . S
H575 C569 0.959 . S
H576 C569 0.961 . S
H577 C569 0.960 . S
H578 C570 0.930 . S
H579 C571 0.929 . S
H580 C588 0.929 . S
H581 C590 0.930 . S
H582 C592 0.930 . S
H583 C595 0.929 . S
H584 C598 0.930 . S
H585 C600 0.960 . S
H586 C600 0.960 . S
H587 C600 0.960 . S
C588 H580 0.929 . S
C588 C589 1.377 . S
C588 C590 1.384 . S
C589 C588 1.377 . S
C589 C595 1.390 . S
C590 H581 0.930 . S
C590 C588 1.384 . S
C590 C591 1.372 . S
C591 C590 1.372 . S
C591 C592 1.400 . S
C591 C596 1.490 . S
C592 H582 0.930 . S
C592 C591 1.400 . S
C592 C595 1.386 . S
H593 C609 0.930 . S
H594 C610 0.931 . S
C595 H583 0.929 . S
C595 C589 1.390 . S
C595 C592 1.386 . S
C596 C591 1.490 . S
C596 C598 1.395 . S
C596 C599 1.403 . S
H597 C603 0.930 . S
C598 H584 0.930 . S
C598 C596 1.395 . S
C598 C601 1.403 . S
C599 C596 1.403 . S
C599 C600 1.524 . S
C599 C603 1.400 . S
C600 H585 0.960 . S
C600 H586 0.960 . S
C600 H587 0.960 . S
C600 C599 1.524 . S
C601 C598 1.403 . S
C601 C602 1.392 . S
C601 C605 1.495 . S
C602 C601 1.392 . S
C602 C603 1.385 . S
C602 C604 1.478 . S
C603 H597 0.930 . S
C603 C599 1.400 . S
C603 C602 1.385 . S
C604 C602 1.478 . S
C604 C606 1.381 . S
C604 C610 1.383 . S
C605 C601 1.495 . S
C605 H611 0.959 . S
C605 H612 0.961 . S
C605 H613 0.960 . S
C606 C604 1.381 . S
C606 C607 1.394 . S
C606 H614 0.930 . S
C607 C606 1.394 . S
C607 C608 1.383 . S
C607 H615 0.929 . S
C608 C607 1.383 . S
C608 C609 1.377 . S
C609 H593 0.930 . S
C609 C608 1.377 . S
C609 C610 1.379 . S
C610 H594 0.931 . S
C610 C604 1.383 . S
C610 C609 1.379 . S
H611 C605 0.959 . S
H612 C605 0.961 . S
H613 C605 0.960 . S
H614 C606 0.930 . S
H615 C607 0.929 . S
H616 C624 0.929 . S
H617 C626 0.930 . S
H618 C628 0.930 . S
H619 C631 0.929 . S
H620 C634 0.930 . S
H621 C636 0.960 . S
H622 C636 0.960 . S
H623 C636 0.960 . S
C624 H616 0.929 . S
C624 C625 1.377 . S
C624 C626 1.384 . S
C625 C624 1.377 . S
C625 C631 1.390 . S
C626 H617 0.930 . S
C626 C624 1.384 . S
C626 C627 1.372 . S
C627 C626 1.372 . S
C627 C628 1.400 . S
C627 C632 1.490 . S
C628 H618 0.930 . S
C628 C627 1.400 . S
C628 C631 1.386 . S
H629 C645 0.930 . S
H630 C646 0.931 . S
C631 H619 0.929 . S
C631 C625 1.390 . S
C631 C628 1.386 . S
C632 C627 1.490 . S
C632 C634 1.395 . S
C632 C635 1.403 . S
H633 C639 0.930 . S
C634 H620 0.930 . S
C634 C632 1.395 . S
C634 C637 1.403 . S
C635 C632 1.403 . S
C635 C636 1.524 . S
C635 C639 1.400 . S
C636 H621 0.960 . S
C636 H622 0.960 . S
C636 H623 0.960 . S
C636 C635 1.524 . S
C637 C634 1.403 . S
C637 C638 1.392 . S
C637 C641 1.495 . S
C638 C637 1.392 . S
C638 C639 1.385 . S
C638 C640 1.478 . S
C639 H633 0.930 . S
C639 C635 1.400 . S
C639 C638 1.385 . S
C640 C638 1.478 . S
C640 C642 1.381 . S
C640 C646 1.383 . S
C641 C637 1.495 . S
C641 H647 0.959 . S
C641 H648 0.961 . S
C641 H649 0.960 . S
C642 C640 1.381 . S
C642 C643 1.394 . S
C642 H650 0.930 . S
C643 C642 1.394 . S
C643 C644 1.383 . S
C643 H651 0.929 . S
C644 C643 1.383 . S
C644 C645 1.377 . S
C645 H629 0.930 . S
C645 C644 1.377 . S
C645 C646 1.379 . S
C646 H630 0.931 . S
C646 C640 1.383 . S
C646 C645 1.379 . S
H647 C641 0.959 . S
H648 C641 0.961 . S
H649 C641 0.960 . S
H650 C642 0.930 . S
H651 C643 0.929 . S
H652 C660 0.929 . S
H653 C662 0.930 . S
H654 C664 0.930 . S
H655 C667 0.929 . S
H656 C670 0.930 . S
H657 C672 0.960 . S
H658 C672 0.960 . S
H659 C672 0.960 . S
C660 H652 0.929 . S
C660 C661 1.377 . S
C660 C662 1.384 . S
C661 C660 1.377 . S
C661 C667 1.390 . S
C662 H653 0.930 . S
C662 C660 1.384 . S
C662 C663 1.372 . S
C663 C662 1.372 . S
C663 C664 1.400 . S
C663 C668 1.490 . S
C664 H654 0.930 . S
C664 C663 1.400 . S
C664 C667 1.386 . S
H665 C681 0.930 . S
H666 C682 0.931 . S
C667 H655 0.929 . S
C667 C661 1.390 . S
C667 C664 1.386 . S
C668 C663 1.490 . S
C668 C670 1.395 . S
C668 C671 1.403 . S
H669 C675 0.930 . S
C670 H656 0.930 . S
C670 C668 1.395 . S
C670 C673 1.403 . S
C671 C668 1.403 . S
C671 C672 1.524 . S
C671 C675 1.400 . S
C672 H657 0.960 . S
C672 H658 0.960 . S
C672 H659 0.960 . S
C672 C671 1.524 . S
C673 C670 1.403 . S
C673 C674 1.392 . S
C673 C677 1.495 . S
C674 C673 1.392 . S
C674 C675 1.385 . S
C674 C676 1.478 . S
C675 H669 0.930 . S
C675 C671 1.400 . S
C675 C674 1.385 . S
C676 C674 1.478 . S
C676 C678 1.381 . S
C676 C682 1.383 . S
C677 C673 1.495 . S
C677 H683 0.959 . S
C677 H684 0.961 . S
C677 H685 0.960 . S
C678 C676 1.381 . S
C678 C679 1.394 . S
C678 H686 0.930 . S
C679 C678 1.394 . S
C679 C680 1.383 . S
C679 H687 0.929 . S
C680 C679 1.383 . S
C680 C681 1.377 . S
C681 H665 0.930 . S
C681 C680 1.377 . S
C681 C682 1.379 . S
C682 H666 0.931 . S
C682 C676 1.383 . S
C682 C681 1.379 . S
H683 C677 0.959 . S
H684 C677 0.961 . S
H685 C677 0.960 . S
H686 C678 0.930 . S
H687 C679 0.929 . S
C121 C34 1.375 . S
C140 C6 1.392 . S
C157 C48 1.375 . S
C176 C20 1.382 . S
C193 C62 1.375 . S
C212 C90 1.383 . S
C229 C76 1.374 . S
C248 C104 1.394 . S
C265 C22 1.378 . S
C284 C9 1.317 . S
C301 C23 1.339 . S
C320 C36 1.371 . S
C337 C50 1.375 . S
C356 C37 1.357 . S
C373 C51 1.336 . S
C392 C8 1.381 . S
C409 C106 1.380 . S
C428 C65 1.364 . S
C445 C79 1.338 . S
C464 C64 1.379 . S
C481 C93 1.341 . S
C500 C78 1.389 . S
C517 C107 1.341 . S
C536 C92 1.362 . S
C553 C7 1.628 . S
C572 C77 1.614 . S
C589 C91 1.632 . S
C608 C21 1.640 . S
C625 C35 1.626 . S
C644 C105 1.647 . S
C661 C49 1.625 . S
C680 C63 1.632 . S
