# Generated by pormake.
# Topology cag, (4)-cn, num edge types: 1
# Building blocks:
#     Node 0, Type 0, BuildingBlock: GALJAG_clean_sbu_0, # of connection points: 4
#     Node 1, Type 0, BuildingBlock: GALJAG_clean_sbu_0, # of connection points: 4
#     Node 2, Type 0, BuildingBlock: GALJAG_clean_sbu_0, # of connection points: 4
#     Node 3, Type 0, BuildingBlock: GALJAG_clean_sbu_0, # of connection points: 4
#     Node 4, Type 0, BuildingBlock: GALJAG_clean_sbu_0, # of connection points: 4
#     Node 5, Type 0, BuildingBlock: GALJAG_clean_sbu_0, # of connection points: 4
#     Node 6, Type 0, BuildingBlock: GALJAG_clean_sbu_0, # of connection points: 4
#     Node 7, Type 0, BuildingBlock: GALJAG_clean_sbu_0, # of connection points: 4
#     Node 8, Type 0, BuildingBlock: GALJAG_clean_sbu_0, # of connection points: 4
#     Node 9, Type 0, BuildingBlock: GALJAG_clean_sbu_0, # of connection points: 4
#     Node 10, Type 0, BuildingBlock: GALJAG_clean_sbu_0, # of connection points: 4
#     Node 11, Type 0, BuildingBlock: GALJAG_clean_sbu_0, # of connection points: 4
#     Node 12, Type 0, BuildingBlock: GALJAG_clean_sbu_0, # of connection points: 4
#     Node 13, Type 0, BuildingBlock: GALJAG_clean_sbu_0, # of connection points: 4
#     Node 14, Type 0, BuildingBlock: GALJAG_clean_sbu_0, # of connection points: 4
#     Node 15, Type 0, BuildingBlock: GALJAG_clean_sbu_0, # of connection points: 4
#     Edge 16, Type (0, 0), BuildingBlock: CIFDUS_clean_linker_0, # of connection points: 2
#     Edge 17, Type (0, 0), BuildingBlock: CIFDUS_clean_linker_0, # of connection points: 2
#     Edge 18, Type (0, 0), BuildingBlock: CIFDUS_clean_linker_0, # of connection points: 2
#     Edge 19, Type (0, 0), BuildingBlock: CIFDUS_clean_linker_0, # of connection points: 2
#     Edge 20, Type (0, 0), BuildingBlock: CIFDUS_clean_linker_0, # of connection points: 2
#     Edge 21, Type (0, 0), BuildingBlock: CIFDUS_clean_linker_0, # of connection points: 2
#     Edge 22, Type (0, 0), BuildingBlock: CIFDUS_clean_linker_0, # of connection points: 2
#     Edge 23, Type (0, 0), BuildingBlock: CIFDUS_clean_linker_0, # of connection points: 2
#     Edge 24, Type (0, 0), BuildingBlock: CIFDUS_clean_linker_0, # of connection points: 2
#     Edge 25, Type (0, 0), BuildingBlock: CIFDUS_clean_linker_0, # of connection points: 2
#     Edge 26, Type (0, 0), BuildingBlock: CIFDUS_clean_linker_0, # of connection points: 2
#     Edge 27, Type (0, 0), BuildingBlock: CIFDUS_clean_linker_0, # of connection points: 2
#     Edge 28, Type (0, 0), BuildingBlock: CIFDUS_clean_linker_0, # of connection points: 2
#     Edge 29, Type (0, 0), BuildingBlock: CIFDUS_clean_linker_0, # of connection points: 2
#     Edge 30, Type (0, 0), BuildingBlock: CIFDUS_clean_linker_0, # of connection points: 2
#     Edge 31, Type (0, 0), BuildingBlock: CIFDUS_clean_linker_0, # of connection points: 2
#     Edge 32, Type (0, 0), BuildingBlock: CIFDUS_clean_linker_0, # of connection points: 2
#     Edge 33, Type (0, 0), BuildingBlock: CIFDUS_clean_linker_0, # of connection points: 2
#     Edge 34, Type (0, 0), BuildingBlock: CIFDUS_clean_linker_0, # of connection points: 2
#     Edge 35, Type (0, 0), BuildingBlock: CIFDUS_clean_linker_0, # of connection points: 2
#     Edge 36, Type (0, 0), BuildingBlock: CIFDUS_clean_linker_0, # of connection points: 2
#     Edge 37, Type (0, 0), BuildingBlock: CIFDUS_clean_linker_0, # of connection points: 2
#     Edge 38, Type (0, 0), BuildingBlock: CIFDUS_clean_linker_0, # of connection points: 2
#     Edge 39, Type (0, 0), BuildingBlock: CIFDUS_clean_linker_0, # of connection points: 2
#     Edge 40, Type (0, 0), BuildingBlock: CIFDUS_clean_linker_0, # of connection points: 2
#     Edge 41, Type (0, 0), BuildingBlock: CIFDUS_clean_linker_0, # of connection points: 2
#     Edge 42, Type (0, 0), BuildingBlock: CIFDUS_clean_linker_0, # of connection points: 2
#     Edge 43, Type (0, 0), BuildingBlock: CIFDUS_clean_linker_0, # of connection points: 2
#     Edge 44, Type (0, 0), BuildingBlock: CIFDUS_clean_linker_0, # of connection points: 2
#     Edge 45, Type (0, 0), BuildingBlock: CIFDUS_clean_linker_0, # of connection points: 2
#     Edge 46, Type (0, 0), BuildingBlock: CIFDUS_clean_linker_0, # of connection points: 2
#     Edge 47, Type (0, 0), BuildingBlock: CIFDUS_clean_linker_0, # of connection points: 2
# Relax obj value: 0.084
# Max RMSD: 0.168
# Mean RMSD: 0.142
data_MOF--net-cag--node1-GALJAG_clean_sbu_0--edge1-CIFDUS_clean_linker_0
_symmetry_space_group_name_H-M    P1
_symmetry_Int_Tables_number       1
_symmetry_cell_setting            triclinic
loop_
_symmetry_equiv_pos_as_xyz
'x, y, z'
_cell_length_a     40.7704
_cell_length_b     43.759774
_cell_length_c     33.847116
_cell_angle_alpha  89.986882
_cell_angle_beta   90.052391
_cell_angle_gamma 90.011115
loop_
_atom_site_label
_atom_site_type_symbol
_atom_site_fract_x
_atom_site_fract_y
_atom_site_fract_z
_atom_type_partial_charge
In0 In 0.33614 0.14032 0.08292 0.0
O1 O 0.29144 0.13403 0.12288 0.0
O2 O 0.33568 0.14946 0.14924 0.0
C3 C 0.32975 0.08716 0.04281 0.0
C4 C 0.30711 0.18927 0.04878 0.0
C5 C 0.40229 0.14125 0.08916 0.0
O6 O 0.32508 0.08925 0.07952 0.0
O7 O 0.33721 0.11198 0.02611 0.0
O8 O 0.38709 0.15833 0.06526 0.0
O9 O 0.38415 0.12411 0.10958 0.0
C10 C 0.30604 0.14217 0.15399 0.0
O11 O 0.33102 0.19177 0.07229 0.0
O12 O 0.29836 0.16213 0.04196 0.0
In13 In 0.16577 0.86848 0.58441 0.0
O14 O 0.16839 0.81758 0.56946 0.0
O15 O 0.20598 0.84644 0.54727 0.0
C16 C 0.09987 0.86747 0.59149 0.0
C17 C 0.19518 0.86539 0.65584 0.0
C18 C 0.17152 0.92138 0.5436 0.0
O19 O 0.11486 0.85099 0.56673 0.0
O20 O 0.11812 0.88426 0.61232 0.0
O21 O 0.17594 0.91968 0.58039 0.0
O22 O 0.16461 0.89632 0.52719 0.0
C23 C 0.19463 0.8197 0.5499 0.0
O24 O 0.2098 0.87484 0.62539 0.0
O25 O 0.16584 0.85746 0.65029 0.0
In26 In 0.33648 0.863 0.92053 0.0
O27 O 0.33286 0.81129 0.93025 0.0
O28 O 0.29795 0.83963 0.95886 0.0
C29 C 0.40252 0.86087 0.91459 0.0
C30 C 0.30637 0.86217 0.8495 0.0
C31 C 0.33015 0.91643 0.96024 0.0
O32 O 0.38726 0.84728 0.94192 0.0
O33 O 0.38449 0.87529 0.89078 0.0
O34 O 0.32697 0.91441 0.92332 0.0
O35 O 0.33618 0.89146 0.97734 0.0
C36 C 0.308 0.81285 0.95235 0.0
O37 O 0.29145 0.86892 0.88094 0.0
O38 O 0.33625 0.85568 0.85395 0.0
In39 In 0.16574 0.14492 0.41904 0.0
O40 O 0.2096 0.13733 0.37847 0.0
O41 O 0.16452 0.15033 0.3519 0.0
C42 C 0.17114 0.09148 0.45883 0.0
C43 C 0.19878 0.19338 0.44841 0.0
C44 C 0.09974 0.1515 0.41925 0.0
O45 O 0.17236 0.09312 0.4217 0.0
O46 O 0.16742 0.1168 0.476 0.0
O47 O 0.11802 0.16545 0.44336 0.0
O48 O 0.11476 0.13462 0.39513 0.0
C49 C 0.1943 0.14355 0.3471 0.0
O50 O 0.1748 0.19628 0.42506 0.0
O51 O 0.20556 0.16615 0.45751 0.0
In52 In 0.66349 0.85814 0.92061 0.0
O53 O 0.70335 0.83692 0.95859 0.0
O54 O 0.67088 0.80677 0.92853 0.0
C55 C 0.66797 0.91253 0.95805 0.0
C56 C 0.69371 0.85954 0.8496 0.0
C57 C 0.59776 0.85045 0.92436 0.0
O58 O 0.66987 0.88736 0.97598 0.0
O59 O 0.66402 0.91029 0.92124 0.0
O60 O 0.61179 0.8639 0.89609 0.0
O61 O 0.61693 0.84038 0.95058 0.0
C62 C 0.69524 0.80968 0.95131 0.0
O63 O 0.66423 0.85137 0.85363 0.0
O64 O 0.70786 0.86702 0.88128 0.0
In65 In 0.83945 0.13136 0.40843 0.0
O66 O 0.83665 0.14481 0.34325 0.0
O67 O 0.79614 0.12094 0.36757 0.0
C68 C 0.90519 0.13664 0.40123 0.0
C69 C 0.8053 0.17445 0.4479 0.0
C70 C 0.83861 0.0788 0.44998 0.0
O71 O 0.88839 0.11763 0.38182 0.0
O72 O 0.88876 0.1535 0.42416 0.0
O73 O 0.84561 0.10428 0.46518 0.0
O74 O 0.83214 0.0797 0.41351 0.0
C75 C 0.80862 0.13347 0.33762 0.0
O76 O 0.79921 0.14631 0.45035 0.0
O77 O 0.82897 0.18116 0.42544 0.0
In78 In 0.66293 0.13798 0.07614 0.0
O79 O 0.69822 0.15329 0.0282 0.0
O80 O 0.6802 0.18726 0.06754 0.0
C81 C 0.66454 0.08375 0.03811 0.0
C82 C 0.69304 0.1365 0.14741 0.0
C83 C 0.59768 0.14936 0.07863 0.0
O84 O 0.65591 0.10824 0.02153 0.0
O85 O 0.67248 0.08655 0.07394 0.0
O86 O 0.61109 0.12772 0.09714 0.0
O87 O 0.61728 0.16589 0.05926 0.0
C88 C 0.69846 0.18099 0.03849 0.0
O89 O 0.66263 0.14095 0.14371 0.0
O90 O 0.70818 0.13285 0.11532 0.0
In91 In 0.83901 0.86045 0.58844 0.0
O92 O 0.79948 0.83888 0.55031 0.0
O93 O 0.83048 0.80912 0.58322 0.0
C94 C 0.83447 0.91241 0.54569 0.0
C95 C 0.80932 0.86293 0.65975 0.0
C96 C 0.90482 0.8532 0.58672 0.0
O97 O 0.83585 0.88633 0.53005 0.0
O98 O 0.83501 0.91231 0.58293 0.0
O99 O 0.89065 0.87132 0.6101 0.0
O100 O 0.88577 0.83826 0.56459 0.0
C101 C 0.80667 0.81176 0.55955 0.0
O102 O 0.83914 0.85593 0.65578 0.0
O103 O 0.79465 0.86903 0.62792 0.0
In104 In 0.83904 0.63889 0.09315 0.0
O105 O 0.79751 0.62392 0.13436 0.0
O106 O 0.83271 0.6553 0.15651 0.0
C107 C 0.83493 0.58576 0.053 0.0
C108 C 0.80904 0.68694 0.0586 0.0
C109 C 0.90511 0.64231 0.09819 0.0
O110 O 0.83299 0.61147 0.03639 0.0
O111 O 0.83875 0.58679 0.08997 0.0
O112 O 0.88959 0.65045 0.06768 0.0
O113 O 0.88732 0.63278 0.12603 0.0
C114 C 0.80709 0.63999 0.16307 0.0
O115 O 0.83586 0.68953 0.07694 0.0
O116 O 0.79759 0.66021 0.05758 0.0
In117 In 0.67612 0.3591 0.58157 0.0
O118 O 0.71864 0.36856 0.6238 0.0
O119 O 0.67507 0.35012 0.64826 0.0
C120 C 0.67671 0.41267 0.54215 0.0
C121 C 0.71278 0.3167 0.54421 0.0
C122 C 0.61058 0.34974 0.58234 0.0
O123 O 0.68377 0.4107 0.57836 0.0
O124 O 0.66951 0.38765 0.52588 0.0
O125 O 0.62991 0.33302 0.56283 0.0
O126 O 0.62441 0.37059 0.60197 0.0
C127 C 0.70388 0.35948 0.65431 0.0
O128 O 0.69053 0.3096 0.56848 0.0
O129 O 0.71631 0.345 0.53882 0.0
In130 In 0.84119 0.36419 0.92258 0.0
O131 O 0.82462 0.31466 0.93165 0.0
O132 O 0.80457 0.34891 0.96902 0.0
C133 C 0.90645 0.35332 0.91938 0.0
C134 C 0.81259 0.36542 0.85033 0.0
C135 C 0.83998 0.41754 0.96271 0.0
O136 O 0.88721 0.33681 0.93937 0.0
O137 O 0.89268 0.37476 0.90084 0.0
O138 O 0.83107 0.41557 0.92709 0.0
O139 O 0.84942 0.39275 0.97783 0.0
C140 C 0.80528 0.32106 0.9596 0.0
O141 O 0.79673 0.36968 0.8818 0.0
O142 O 0.84282 0.36075 0.85523 0.0
In143 In 0.66286 0.63795 0.42531 0.0
O144 O 0.6675 0.68955 0.43468 0.0
O145 O 0.70097 0.66026 0.46454 0.0
C146 C 0.59758 0.64735 0.43331 0.0
C147 C 0.69274 0.63377 0.35412 0.0
C148 C 0.6731 0.5833 0.46019 0.0
O149 O 0.61269 0.65339 0.40173 0.0
O150 O 0.61543 0.63709 0.46064 0.0
O151 O 0.66404 0.58569 0.42468 0.0
O152 O 0.67723 0.60837 0.47778 0.0
C153 C 0.69174 0.68725 0.4578 0.0
O154 O 0.7067 0.644 0.38456 0.0
O155 O 0.66343 0.62541 0.35938 0.0
In156 In 0.16755 0.3628 0.90504 0.0
O157 O 0.20255 0.34163 0.95017 0.0
O158 O 0.17346 0.31153 0.91556 0.0
C159 C 0.1751 0.41878 0.93796 0.0
C160 C 0.19932 0.3589 0.8353 0.0
C161 C 0.10133 0.36046 0.89977 0.0
O162 O 0.16543 0.39597 0.95755 0.0
O163 O 0.18135 0.41319 0.90227 0.0
O164 O 0.11904 0.37538 0.87613 0.0
O165 O 0.11701 0.34627 0.9262 0.0
C166 C 0.19528 0.31435 0.94179 0.0
O167 O 0.16891 0.35416 0.8385 0.0
O168 O 0.21368 0.36526 0.86727 0.0
In169 In 0.33782 0.64315 0.41818 0.0
O170 O 0.33783 0.63194 0.35224 0.0
O171 O 0.29256 0.64441 0.37848 0.0
C172 C 0.40286 0.65506 0.41712 0.0
C173 C 0.30814 0.69236 0.45083 0.0
C174 C 0.33337 0.58847 0.45532 0.0
O175 O 0.38426 0.66095 0.38831 0.0
O176 O 0.38851 0.64386 0.44681 0.0
O177 O 0.33062 0.6136 0.47321 0.0
O178 O 0.3381 0.59087 0.41865 0.0
C179 C 0.30759 0.63669 0.34754 0.0
O180 O 0.33453 0.69435 0.43155 0.0
O181 O 0.29699 0.6656 0.45395 0.0
In182 In 0.1657 0.63482 0.08314 0.0
O183 O 0.20514 0.6568 0.04419 0.0
O184 O 0.17093 0.68606 0.07241 0.0
C185 C 0.17013 0.57712 0.05484 0.0
C186 C 0.19548 0.63622 0.15436 0.0
C187 C 0.10003 0.64209 0.07766 0.0
O188 O 0.17519 0.60031 0.03354 0.0
O189 O 0.16317 0.58306 0.09027 0.0
O190 O 0.11452 0.63627 0.10971 0.0
O191 O 0.11871 0.64451 0.0481 0.0
C192 C 0.19571 0.68384 0.05034 0.0
O193 O 0.16636 0.64504 0.1491 0.0
O194 O 0.20967 0.62666 0.12364 0.0
In195 In 0.34942 0.36479 0.5781 0.0
O196 O 0.34789 0.357 0.64479 0.0
O197 O 0.3036 0.36985 0.61632 0.0
C198 C 0.41533 0.36288 0.58649 0.0
C199 C 0.32028 0.31625 0.54329 0.0
C200 C 0.34374 0.41785 0.53766 0.0
O201 O 0.39717 0.38087 0.60565 0.0
O202 O 0.40026 0.34552 0.56281 0.0
O203 O 0.35376 0.39348 0.52185 0.0
O204 O 0.33634 0.41537 0.57369 0.0
C205 C 0.31775 0.36283 0.64817 0.0
O206 O 0.31279 0.34351 0.53528 0.0
O207 O 0.34325 0.31339 0.56805 0.0
H208 H 0.25445 0.18876 0.99965 0.0
H209 H 0.32105 0.24969 0.0598 0.0
H210 H 0.2918 0.29381 0.03287 0.0
H211 H 0.24734 0.31507 0.99204 0.0
H212 H 0.18113 0.25401 0.93147 0.0
H213 H 0.21005 0.20996 0.95895 0.0
C214 C 0.26261 0.2117 0.00679 0.0
C215 C 0.28992 0.21594 0.03163 0.0
C216 C 0.24565 0.23693 0.99127 0.0
C217 C 0.30014 0.2458 0.04068 0.0
C218 C 0.28339 0.27104 0.02535 0.0
C219 C 0.23915 0.29212 0.98502 0.0
C220 C 0.21207 0.28782 0.95983 0.0
C221 C 0.25608 0.26688 0.00066 0.0
C222 C 0.20187 0.25794 0.95083 0.0
C223 C 0.21843 0.23274 0.96647 0.0
H224 H 0.24922 0.69351 0.48806 0.0
H225 H 0.32898 0.75161 0.45092 0.0
H226 H 0.30064 0.79622 0.47778 0.0
H227 H 0.25325 0.81869 0.51192 0.0
H228 H 0.17353 0.76056 0.5491 0.0
H229 H 0.20173 0.716 0.52192 0.0
C230 C 0.26043 0.71593 0.48592 0.0
C231 C 0.29118 0.71925 0.46759 0.0
C232 C 0.24395 0.74147 0.50129 0.0
C233 C 0.30533 0.74845 0.4649 0.0
C234 C 0.28913 0.77397 0.48022 0.0
C235 C 0.24201 0.79628 0.51396 0.0
C236 C 0.21134 0.79292 0.53247 0.0
C237 C 0.25843 0.77075 0.49844 0.0
C238 C 0.19713 0.76374 0.535 0.0
C239 C 0.21325 0.73825 0.51951 0.0
H240 H 0.25284 0.81136 0.99702 0.0
H241 H 0.32543 0.75299 0.94322 0.0
H242 H 0.2969 0.70781 0.96833 0.0
H243 H 0.25114 0.6849 0.00552 0.0
H244 H 0.17868 0.74359 0.05908 0.0
H245 H 0.20727 0.78859 0.03398 0.0
C246 C 0.26248 0.78875 0.99087 0.0
C247 C 0.29124 0.78553 0.96835 0.0
C248 C 0.24589 0.76292 0.00523 0.0
C249 C 0.30336 0.75609 0.96054 0.0
C250 C 0.28703 0.73024 0.97484 0.0
C251 C 0.24158 0.70754 0.01158 0.0
C252 C 0.2128 0.71089 0.03408 0.0
C253 C 0.25823 0.73338 0.99715 0.0
C254 C 0.20076 0.74038 0.0418 0.0
C255 C 0.21712 0.76614 0.0275 0.0
H256 H 0.2671 0.31772 0.49506 0.0
H257 H 0.33235 0.25563 0.55542 0.0
H258 H 0.30035 0.21212 0.53154 0.0
H259 H 0.25327 0.19181 0.49453 0.0
H260 H 0.18788 0.25394 0.43447 0.0
H261 H 0.22042 0.29738 0.45741 0.0
C262 C 0.27444 0.29465 0.50279 0.0
C263 C 0.30209 0.2899 0.52692 0.0
C264 C 0.25578 0.26979 0.48925 0.0
C265 C 0.3112 0.25989 0.53681 0.0
C266 C 0.29287 0.23502 0.52327 0.0
C267 C 0.2461 0.21486 0.48653 0.0
C268 C 0.21814 0.21966 0.46296 0.0
C269 C 0.26499 0.23971 0.4997 0.0
C270 C 0.20925 0.24965 0.45268 0.0
C271 C 0.22788 0.27449 0.46572 0.0
H272 H 0.75391 0.68544 0.01388 0.0
H273 H 0.82607 0.74714 0.06231 0.0
H274 H 0.79712 0.79061 0.03327 0.0
H275 H 0.75102 0.81104 0.9948 0.0
H276 H 0.67927 0.7493 0.94557 0.0
H277 H 0.7084 0.70579 0.97428 0.0
C278 C 0.76331 0.7084 0.01803 0.0
C279 C 0.79202 0.71311 0.04027 0.0
C280 C 0.74662 0.73322 0.00118 0.0
C281 C 0.80401 0.74295 0.04529 0.0
C282 C 0.78746 0.7678 0.02875 0.0
C283 C 0.74176 0.78806 0.99036 0.0
C284 C 0.713 0.78336 0.96823 0.0
C285 C 0.75869 0.7632 0.00677 0.0
C286 C 0.70137 0.75347 0.96253 0.0
C287 C 0.71799 0.72861 0.97894 0.0
H288 H 0.81083 0.23636 0.44415 0.0
H289 H 0.75573 0.16399 0.49981 0.0
H290 H 0.72241 0.20153 0.53478 0.0
H291 H 0.70847 0.25491 0.54916 0.0
H292 H 0.76306 0.32741 0.49311 0.0
H293 H 0.79696 0.28988 0.45876 0.0
C294 C 0.79158 0.22885 0.46401 0.0
C295 C 0.78576 0.19748 0.46938 0.0
C296 C 0.77236 0.25057 0.48393 0.0
C297 C 0.76069 0.18804 0.49514 0.0
C298 C 0.7416 0.20948 0.51516 0.0
C299 C 0.7278 0.26247 0.52945 0.0
C300 C 0.73323 0.29384 0.52367 0.0
C301 C 0.74714 0.24079 0.5097 0.0
C302 C 0.75836 0.30334 0.49803 0.0
C303 C 0.77778 0.28191 0.47837 0.0
H304 H 0.79759 0.26127 0.93987 0.0
H305 H 0.76527 0.32972 0.02291 0.0
H306 H 0.72896 0.29263 0.0543 0.0
H307 H 0.7062 0.24075 0.05813 0.0
H308 H 0.73831 0.1723 0.97497 0.0
H309 H 0.77468 0.20938 0.94358 0.0
C310 C 0.78268 0.268 0.96492 0.0
C311 C 0.78416 0.29814 0.97908 0.0
C312 C 0.76167 0.24661 0.9827 0.0
C313 C 0.76459 0.30662 0.01145 0.0
C314 C 0.74377 0.28545 0.0294 0.0
C315 C 0.72107 0.23401 0.03305 0.0
C316 C 0.71953 0.20387 0.01887 0.0
C317 C 0.74204 0.2554 0.01522 0.0
C318 C 0.73902 0.19541 0.98643 0.0
C319 C 0.75988 0.21657 0.96849 0.0
H320 H 0.75321 0.81269 0.51187 0.0
H321 H 0.81904 0.75141 0.57275 0.0
H322 H 0.78876 0.70749 0.54712 0.0
H323 H 0.74403 0.68659 0.507 0.0
H324 H 0.67806 0.74768 0.44607 0.0
H325 H 0.70792 0.79172 0.47235 0.0
C326 C 0.76093 0.78972 0.51951 0.0
C327 C 0.78836 0.78527 0.54406 0.0
C328 C 0.74337 0.76461 0.50476 0.0
C329 C 0.79802 0.75541 0.55384 0.0
C330 C 0.78072 0.7303 0.53922 0.0
C331 C 0.73612 0.70954 0.49955 0.0
C332 C 0.70892 0.71392 0.47463 0.0
C333 C 0.75342 0.73465 0.51463 0.0
C334 C 0.69893 0.74376 0.46524 0.0
C335 C 0.71601 0.76892 0.48019 0.0
H336 H 0.32615 0.03032 0.07451 0.0
H337 H 0.32961 0.07815 0.96311 0.0
H338 H 0.32861 0.02947 0.92766 0.0
H339 H 0.32842 0.97331 0.92841 0.0
H340 H 0.32748 0.92547 0.03988 0.0
H341 H 0.32576 0.97416 0.07525 0.0
C342 C 0.32648 0.03008 0.04246 0.0
C343 C 0.32789 0.05777 0.02143 0.0
C344 C 0.32645 0.00202 0.02233 0.0
C345 C 0.32856 0.05712 0.97995 0.0
C346 C 0.32799 0.02931 0.95968 0.0
C347 C 0.32765 0.97356 0.96045 0.0
C348 C 0.32803 0.94586 0.98152 0.0
C349 C 0.32719 0.00162 0.98057 0.0
C350 C 0.32725 0.94651 0.023 0.0
C351 C 0.32627 0.97433 0.04323 0.0
H352 H 0.17613 0.97842 0.57441 0.0
H353 H 0.16999 0.92978 0.46378 0.0
H354 H 0.17048 0.97818 0.42768 0.0
H355 H 0.17116 0.03434 0.42768 0.0
H356 H 0.17534 0.08297 0.53846 0.0
H357 H 0.17716 0.03455 0.5744 0.0
C358 C 0.17509 0.97842 0.54239 0.0
C359 C 0.17307 0.95059 0.52178 0.0
C360 C 0.17493 0.00632 0.52188 0.0
C361 C 0.17153 0.95093 0.48031 0.0
C362 C 0.1718 0.97858 0.45966 0.0
C363 C 0.17262 0.03432 0.45968 0.0
C364 C 0.17313 0.06217 0.4804 0.0
C365 C 0.17326 0.00641 0.48015 0.0
C366 C 0.17487 0.06182 0.52185 0.0
C367 C 0.17592 0.03415 0.54241 0.0
H368 H 0.65856 0.9687 0.92633 0.0
H369 H 0.68082 0.9228 0.03597 0.0
H370 H 0.68242 0.97188 0.07036 0.0
H371 H 0.67665 0.02777 0.06942 0.0
H372 H 0.65317 0.07345 0.95998 0.0
H373 H 0.65293 0.0245 0.92534 0.0
C374 C 0.66387 0.96947 0.95773 0.0
C375 C 0.66959 0.94222 0.97859 0.0
C376 C 0.66448 0.99769 0.97734 0.0
C377 C 0.67631 0.9435 0.01928 0.0
C378 C 0.67723 0.97154 0.03896 0.0
C379 C 0.67157 0.02699 0.03797 0.0
C380 C 0.66495 0.05414 0.01728 0.0
C381 C 0.67122 0.99876 0.01831 0.0
C382 C 0.6583 0.05283 0.97657 0.0
C383 C 0.65817 0.02487 0.95674 0.0
H384 H 0.83057 0.02083 0.42287 0.0
H385 H 0.84512 0.07308 0.52959 0.0
H386 H 0.84414 0.02625 0.56875 0.0
H387 H 0.83985 0.97046 0.57267 0.0
H388 H 0.82684 0.91788 0.46598 0.0
H389 H 0.82642 0.96483 0.42682 0.0
C390 C 0.83347 0.02193 0.4547 0.0
C391 C 0.83791 0.05033 0.47331 0.0
C392 C 0.83314 0.99488 0.47703 0.0
C393 C 0.84174 0.05145 0.51455 0.0
C394 C 0.84115 0.02471 0.53699 0.0
C395 C 0.83678 0.9693 0.54087 0.0
C396 C 0.83331 0.94081 0.52224 0.0
C397 C 0.83694 0.99631 0.51854 0.0
C398 C 0.82955 0.9396 0.48099 0.0
C399 C 0.82933 0.96641 0.45859 0.0
H400 H 0.82615 0.47441 0.93502 0.0
H401 H 0.85305 0.42541 0.04086 0.0
H402 H 0.85306 0.47303 0.07836 0.0
H403 H 0.84617 0.52867 0.08098 0.0
H404 H 0.82063 0.57802 0.97496 0.0
H405 H 0.81927 0.53022 0.93767 0.0
C406 C 0.83194 0.47419 0.9663 0.0
C407 C 0.83957 0.44647 0.98514 0.0
C408 C 0.83215 0.5017 0.98765 0.0
C409 C 0.84713 0.44649 0.02566 0.0
C410 C 0.84712 0.4737 0.04715 0.0
C411 C 0.84019 0.52893 0.04975 0.0
C412 C 0.83347 0.55678 0.03076 0.0
C413 C 0.83977 0.50144 0.02844 0.0
C414 C 0.82593 0.55683 0.99024 0.0
C415 C 0.82515 0.52952 0.96889 0.0
H416 H 0.69089 0.46888 0.57119 0.0
H417 H 0.66129 0.4221 0.46475 0.0
H418 H 0.65861 0.47075 0.4295 0.0
H419 H 0.66314 0.52674 0.42946 0.0
H420 H 0.6923 0.57345 0.53615 0.0
H421 H 0.69682 0.52466 0.57069 0.0
C422 C 0.68397 0.46934 0.54024 0.0
C423 C 0.6762 0.442 0.52064 0.0
C424 C 0.68237 0.49737 0.52021 0.0
C425 C 0.66732 0.44289 0.48052 0.0
C426 C 0.66577 0.47069 0.46034 0.0
C427 C 0.67064 0.5262 0.46021 0.0
C428 C 0.67729 0.55362 0.48025 0.0
C429 C 0.67301 0.49808 0.47997 0.0
C430 C 0.687 0.55262 0.52008 0.0
C431 C 0.68956 0.52475 0.53988 0.0
H432 H 0.18619 0.55877 0.98064 0.0
H433 H 0.15653 0.52453 0.0947 0.0
H434 H 0.15629 0.47237 0.06903 0.0
H435 H 0.16301 0.43655 0.01361 0.0
H436 H 0.19279 0.4709 0.89963 0.0
H437 H 0.1946 0.52282 0.92585 0.0
C438 C 0.17979 0.53987 0.9999 0.0
C439 C 0.17129 0.54552 0.03945 0.0
C440 C 0.17969 0.50992 0.98495 0.0
C441 C 0.16314 0.52079 0.06409 0.0
C442 C 0.16297 0.49095 0.04944 0.0
C443 C 0.17005 0.45539 0.9946 0.0
C444 C 0.17766 0.44989 0.95474 0.0
C445 C 0.17098 0.48525 0.00984 0.0
C446 C 0.18678 0.47452 0.93044 0.0
C447 C 0.18779 0.50425 0.94538 0.0
H448 H 0.34527 0.53236 0.42418 0.0
H449 H 0.31918 0.57788 0.53277 0.0
H450 H 0.3191 0.52895 0.56755 0.0
H451 H 0.3278 0.47343 0.56751 0.0
H452 H 0.35519 0.42798 0.45935 0.0
H453 H 0.35335 0.47667 0.42398 0.0
C454 C 0.33941 0.53153 0.45541 0.0
C455 C 0.33225 0.55869 0.47587 0.0
C456 C 0.33973 0.50336 0.47531 0.0
C457 C 0.32482 0.55729 0.51636 0.0
C458 C 0.32478 0.52933 0.53628 0.0
C459 C 0.33323 0.47417 0.53616 0.0
C460 C 0.34163 0.44716 0.51608 0.0
C461 C 0.33241 0.50226 0.51611 0.0
C462 C 0.34869 0.44847 0.47549 0.0
C463 C 0.34765 0.4763 0.45525 0.0
H464 H 0.55253 0.11757 0.12022 0.0
H465 H 0.56211 0.19071 0.03557 0.0
H466 H 0.50231 0.19527 0.03175 0.0
H467 H 0.44714 0.17701 0.0509 0.0
H468 H 0.43858 0.10379 0.13577 0.0
H469 H 0.49807 0.10075 0.14103 0.0
C470 C 0.54156 0.13464 0.10109 0.0
C471 C 0.5617 0.1537 0.07813 0.0
C472 C 0.5073 0.13702 0.09894 0.0
C473 C 0.54711 0.17576 0.05357 0.0
C474 C 0.51293 0.17831 0.05129 0.0
C475 C 0.45835 0.16049 0.07061 0.0
C476 C 0.43844 0.14057 0.09276 0.0
C477 C 0.49275 0.15884 0.07356 0.0
C478 C 0.4533 0.11935 0.11831 0.0
C479 C 0.48735 0.11757 0.12136 0.0
H480 H 0.94967 0.88509 0.62897 0.0
H481 H 0.94088 0.81604 0.53863 0.0
H482 H 1.00061 0.81394 0.53238 0.0
H483 H 0.05535 0.83277 0.55154 0.0
H484 H 0.06355 0.90212 0.64167 0.0
H485 H 0.00406 0.90307 0.64899 0.0
C486 C 0.96082 0.86947 0.60805 0.0
C487 C 0.94091 0.85078 0.58428 0.0
C488 C 0.99508 0.86853 0.60445 0.0
C489 C 0.95571 0.83067 0.55727 0.0
C490 C 0.98984 0.8295 0.55363 0.0
C491 C 0.04408 0.84803 0.5728 0.0
C492 C 0.06382 0.8674 0.59593 0.0
C493 C 0.00978 0.8485 0.57687 0.0
C494 C 0.0489 0.88701 0.62344 0.0
C495 C 0.01488 0.88758 0.62768 0.0
H496 H 0.44723 0.83369 0.96328 0.0
H497 H 0.43875 0.88705 0.85647 0.0
H498 H 0.49822 0.88758 0.84943 0.0
H499 H 0.55269 0.87403 0.87416 0.0
H500 H 0.56197 0.82141 0.98138 0.0
H501 H 0.50222 0.81931 0.98759 0.0
C502 C 0.45844 0.84534 0.93844 0.0
C503 C 0.4386 0.86035 0.91051 0.0
C504 C 0.49279 0.8457 0.93461 0.0
C505 C 0.45346 0.87537 0.87846 0.0
C506 C 0.48748 0.87569 0.87436 0.0
C507 C 0.54165 0.86196 0.89879 0.0
C508 C 0.5617 0.84792 0.92726 0.0
C509 C 0.50738 0.86108 0.90234 0.0
C510 C 0.54703 0.83243 0.95906 0.0
C511 C 0.51288 0.83125 0.96266 0.0
H512 H 0.0569 0.12198 0.37156 0.0
H513 H 0.06137 0.18621 0.46808 0.0
H514 H 1.00139 0.18835 0.47011 0.0
H515 H 0.94757 0.17053 0.44568 0.0
H516 H 0.94393 0.10548 0.34993 0.0
H517 H 0.00365 0.10521 0.3463 0.0
C518 C 0.04478 0.13656 0.39295 0.0
C519 C 0.06354 0.15385 0.41968 0.0
C520 C 0.0104 0.13749 0.39412 0.0
C521 C 0.04746 0.17264 0.44721 0.0
C522 C 0.01317 0.17385 0.44839 0.0
C523 C 0.95989 0.15646 0.42388 0.0
C524 C 0.94134 0.13801 0.39816 0.0
C525 C 0.99437 0.15618 0.42217 0.0
C526 C 0.95762 0.11984 0.37013 0.0
C527 C 0.99179 0.11964 0.36803 0.0
H528 H 0.0561 0.63439 0.13672 0.0
H529 H 0.06309 0.65613 0.01268 0.0
H530 H 0.00326 0.65927 0.00828 0.0
H531 H 0.94886 0.65439 0.03948 0.0
H532 H 0.94246 0.6314 0.16324 0.0
H533 H 1.00217 0.63031 0.16797 0.0
C534 C 0.04455 0.63994 0.10874 0.0
C535 C 0.06397 0.64499 0.07507 0.0
C536 C 0.01024 0.64144 0.10638 0.0
C537 C 0.04865 0.65211 0.03903 0.0
C538 C 0.01446 0.6539 0.03649 0.0
C539 C 0.96058 0.64931 0.0675 0.0
C540 C 0.94128 0.64295 0.10094 0.0
C541 C 0.99499 0.6484 0.06993 0.0
C542 C 0.95676 0.6363 0.13703 0.0
C543 C 0.99091 0.63566 0.13978 0.0
H544 H 0.56553 0.38302 0.62225 0.0
H545 H 0.57468 0.30926 0.53844 0.0
H546 H 0.5149 0.30624 0.53277 0.0
H547 H 0.45997 0.3259 0.55007 0.0
H548 H 0.45164 0.39983 0.63389 0.0
H549 H 0.51109 0.4014 0.64107 0.0
C550 C 0.55446 0.36615 0.60291 0.0
C551 C 0.57449 0.34645 0.58074 0.0
C552 C 0.52018 0.36467 0.59965 0.0
C553 C 0.55977 0.32469 0.55585 0.0
C554 C 0.5256 0.32301 0.55252 0.0
C555 C 0.4712 0.34227 0.56998 0.0
C556 C 0.4514 0.36279 0.59127 0.0
C557 C 0.50555 0.34309 0.574 0.0
C558 C 0.46629 0.38381 0.61706 0.0
C559 C 0.50032 0.38475 0.62121 0.0
H560 H 0.0577 0.3275 0.94369 0.0
H561 H 0.06369 0.39411 0.84988 0.0
H562 H 0.00403 0.39693 0.8469 0.0
H563 H 0.95024 0.38201 0.87231 0.0
H564 H 0.94332 0.31501 0.9654 0.0
H565 H 0.0032 0.31064 0.96713 0.0
C566 C 0.0459 0.34252 0.92252 0.0
C567 C 0.06511 0.36069 0.89721 0.0
C568 C 0.01144 0.34398 0.92084 0.0
C569 C 0.04949 0.37992 0.86976 0.0
C570 C 0.01536 0.38159 0.86804 0.0
C571 C 0.96181 0.36633 0.89286 0.0
C572 C 0.94242 0.34899 0.91883 0.0
C573 C 0.99612 0.36395 0.89365 0.0
C574 C 0.95775 0.32862 0.9451 0.0
C575 C 0.99198 0.32618 0.94617 0.0
H576 H 0.55364 0.66719 0.37831 0.0
H577 H 0.56092 0.63406 0.49812 0.0
H578 H 0.50135 0.63526 0.50444 0.0
H579 H 0.44709 0.64293 0.47488 0.0
H580 H 0.43934 0.67551 0.35491 0.0
H581 H 0.49912 0.67755 0.34983 0.0
C582 C 0.54217 0.66047 0.40588 0.0
C583 C 0.56165 0.65039 0.4376 0.0
C584 C 0.50781 0.66104 0.40927 0.0
C585 C 0.54647 0.64182 0.47319 0.0
C586 C 0.51239 0.64246 0.47684 0.0
C587 C 0.45848 0.65074 0.44774 0.0
C588 C 0.43884 0.65891 0.41528 0.0
C589 C 0.4928 0.65161 0.44492 0.0
C590 C 0.45394 0.66904 0.38033 0.0
C591 C 0.48812 0.67015 0.37736 0.0
H592 H 0.24075 0.14053 0.16936 0.0
H593 H 0.33545 0.14531 0.226 0.0
H594 H 0.30921 0.1455 0.29087 0.0
H595 H 0.25938 0.14422 0.33148 0.0
H596 H 0.16451 0.14216 0.27502 0.0
H597 H 0.19073 0.141 0.21005 0.0
C598 C 0.25559 0.14157 0.19594 0.0
C599 C 0.28994 0.14276 0.19299 0.0
C600 C 0.24032 0.14216 0.2331 0.0
C601 C 0.30893 0.14442 0.22757 0.0
C602 C 0.29396 0.14447 0.26465 0.0
C603 C 0.24448 0.14344 0.30492 0.0
C604 C 0.21012 0.14309 0.30794 0.0
C605 C 0.25969 0.14331 0.26776 0.0
C606 C 0.19105 0.14245 0.27337 0.0
C607 C 0.20601 0.14175 0.23626 0.0
H608 H 0.24117 0.86039 0.8337 0.0
H609 H 0.33608 0.86452 0.77773 0.0
H610 H 0.31003 0.86635 0.71273 0.0
H611 H 0.26025 0.86721 0.67183 0.0
H612 H 0.1654 0.86023 0.72746 0.0
H613 H 0.19139 0.85901 0.79258 0.0
C614 C 0.25608 0.8617 0.80723 0.0
C615 C 0.29042 0.86249 0.8104 0.0
C616 C 0.24097 0.86223 0.76996 0.0
C617 C 0.30956 0.86385 0.77595 0.0
C618 C 0.2947 0.86496 0.73881 0.0
C619 C 0.24531 0.86545 0.69825 0.0
C620 C 0.21101 0.86401 0.69498 0.0
C621 C 0.26043 0.86425 0.73547 0.0
C622 C 0.1919 0.86138 0.72932 0.0
C623 C 0.20672 0.86073 0.76652 0.0
H624 H 0.7591 0.86305 0.83601 0.0
H625 H 0.66564 0.8575 0.77658 0.0
H626 H 0.69319 0.85912 0.71246 0.0
H627 H 0.74388 0.86173 0.67335 0.0
H628 H 0.83749 0.86437 0.73275 0.0
H629 H 0.80988 0.86433 0.7969 0.0
C630 C 0.74479 0.86227 0.80899 0.0
C631 C 0.71042 0.8603 0.81094 0.0
C632 C 0.76082 0.86269 0.7723 0.0
C633 C 0.69216 0.85899 0.77578 0.0
C634 C 0.70788 0.85996 0.73914 0.0
C635 C 0.7582 0.86243 0.70037 0.0
C636 C 0.79263 0.86323 0.69842 0.0
C637 C 0.74219 0.86179 0.73706 0.0
C638 C 0.81094 0.86375 0.73357 0.0
C639 C 0.79517 0.86374 0.77021 0.0
H640 H 0.74359 0.1264 0.32328 0.0
H641 H 0.83599 0.144 0.26563 0.0
H642 H 0.80842 0.14596 0.2015 0.0
H643 H 0.75804 0.14259 0.16184 0.0
H644 H 0.66515 0.1281 0.21975 0.0
H645 H 0.69283 0.12508 0.28381 0.0
C646 C 0.75764 0.13059 0.29663 0.0
C647 C 0.79176 0.13485 0.29906 0.0
C648 C 0.74153 0.13229 0.25999 0.0
C649 C 0.80968 0.14065 0.26444 0.0
C650 C 0.79395 0.14174 0.22779 0.0
C651 C 0.7439 0.13875 0.18851 0.0
C652 C 0.70967 0.1354 0.18614 0.0
C653 C 0.7599 0.13758 0.22522 0.0
C654 C 0.69155 0.13078 0.2209 0.0
C655 C 0.70736 0.12898 0.25749 0.0
H656 H 0.75228 0.65683 0.33569 0.0
H657 H 0.67091 0.60679 0.28609 0.0
H658 H 0.69935 0.60379 0.22251 0.0
H659 H 0.74749 0.61562 0.18106 0.0
H660 H 0.8279 0.66692 0.23095 0.0
H661 H 0.79969 0.66917 0.29442 0.0
C662 C 0.74077 0.64522 0.31098 0.0
C663 C 0.7096 0.63198 0.31557 0.0
C664 C 0.75711 0.64382 0.27459 0.0
C665 C 0.69491 0.61718 0.28325 0.0
C666 C 0.71117 0.61544 0.24694 0.0
C667 C 0.75882 0.62722 0.20588 0.0
C668 C 0.78976 0.64102 0.20136 0.0
C669 C 0.74229 0.62869 0.24227 0.0
C670 C 0.80409 0.65614 0.23367 0.0
C671 C 0.788 0.65743 0.26998 0.0
H672 H 0.76822 0.36738 0.67175 0.0
H673 H 0.67371 0.35245 0.72561 0.0
H674 H 0.69886 0.35389 0.79123 0.0
H675 H 0.74786 0.35923 0.83329 0.0
H676 H 0.84266 0.37144 0.77905 0.0
H677 H 0.81729 0.37131 0.71359 0.0
C678 C 0.75314 0.36448 0.69787 0.0
C679 C 0.71916 0.35994 0.6939 0.0
C680 C 0.76783 0.36488 0.73541 0.0
C681 C 0.69994 0.35595 0.72794 0.0
C682 C 0.71429 0.35682 0.76545 0.0
C683 C 0.7629 0.36197 0.8071 0.0
C684 C 0.79703 0.3655 0.81092 0.0
C685 C 0.74821 0.36128 0.76954 0.0
C686 C 0.81632 0.36867 0.77681 0.0
C687 C 0.80184 0.36861 0.7394 0.0
H688 H 0.25206 0.36119 0.66021 0.0
H689 H 0.3448 0.36119 0.72169 0.0
H690 H 0.31628 0.35973 0.78516 0.0
H691 H 0.26498 0.35918 0.82313 0.0
H692 H 0.17224 0.35715 0.76169 0.0
H693 H 0.20075 0.35849 0.69819 0.0
C694 C 0.26598 0.3609 0.68754 0.0
C695 C 0.30043 0.36151 0.68637 0.0
C696 C 0.24944 0.35962 0.72385 0.0
C697 C 0.31823 0.36077 0.7219 0.0
C698 C 0.30196 0.35995 0.75817 0.0
C699 C 0.25104 0.35896 0.79582 0.0
C700 C 0.2166 0.35822 0.79703 0.0
C701 C 0.26758 0.35947 0.75949 0.0
C702 C 0.19881 0.35769 0.76147 0.0
C703 C 0.21507 0.35854 0.72518 0.0
H704 H 0.24387 0.64857 0.33059 0.0
H705 H 0.3347 0.61912 0.27749 0.0
H706 H 0.3079 0.61593 0.21299 0.0
H707 H 0.2588 0.62222 0.17156 0.0
H708 H 0.16825 0.6524 0.22472 0.0
H709 H 0.19481 0.65456 0.28935 0.0
C710 C 0.25777 0.64137 0.30492 0.0
C711 C 0.29119 0.63408 0.30878 0.0
C712 C 0.24228 0.63977 0.26795 0.0
C713 C 0.30892 0.62484 0.27526 0.0
C714 C 0.29363 0.62303 0.23838 0.0
C715 C 0.24489 0.62921 0.19732 0.0
C716 C 0.21164 0.63716 0.19339 0.0
C717 C 0.26035 0.63055 0.23436 0.0
C718 C 0.19391 0.64623 0.22698 0.0
C719 C 0.20906 0.64746 0.26394 0.0
loop_
_geom_bond_atom_site_label_1
_geom_bond_atom_site_label_2
_geom_bond_distance
_geom_bond_site_symmetry_2
_ccdc_geom_bond_type
In0 O1 2.294 . S
In0 O2 2.326 . S
In0 O6 2.266 . S
In0 O7 2.326 . S
In0 O8 2.266 . S
In0 O9 2.326 . S
In0 O11 2.294 . S
In0 O12 2.326 . S
O1 In0 2.294 . S
O1 C10 1.240 . S
O2 In0 2.326 . S
O2 C10 1.252 . S
C3 O6 1.252 . S
C3 O7 1.260 . S
C4 O11 1.240 . S
C4 O12 1.252 . S
C5 O8 1.252 . S
C5 O9 1.260 . S
O6 In0 2.266 . S
O6 C3 1.252 . S
O7 In0 2.326 . S
O7 C3 1.260 . S
O8 In0 2.266 . S
O8 C5 1.252 . S
O9 In0 2.326 . S
O9 C5 1.260 . S
C10 O1 1.240 . S
C10 O2 1.252 . S
O11 In0 2.294 . S
O11 C4 1.240 . S
O12 In0 2.326 . S
O12 C4 1.252 . S
In13 O14 2.294 . S
In13 O15 2.326 . S
In13 O19 2.266 . S
In13 O20 2.326 . S
In13 O21 2.266 . S
In13 O22 2.326 . S
In13 O24 2.294 . S
In13 O25 2.326 . S
O14 In13 2.294 . S
O14 C23 1.240 . S
O15 In13 2.326 . S
O15 C23 1.252 . S
C16 O19 1.252 . S
C16 O20 1.260 . S
C17 O24 1.240 . S
C17 O25 1.252 . S
C18 O21 1.252 . S
C18 O22 1.260 . S
O19 In13 2.266 . S
O19 C16 1.252 . S
O20 In13 2.326 . S
O20 C16 1.260 . S
O21 In13 2.266 . S
O21 C18 1.252 . S
O22 In13 2.326 . S
O22 C18 1.260 . S
C23 O14 1.240 . S
C23 O15 1.252 . S
O24 In13 2.294 . S
O24 C17 1.240 . S
O25 In13 2.326 . S
O25 C17 1.252 . S
In26 O27 2.294 . S
In26 O28 2.326 . S
In26 O32 2.266 . S
In26 O33 2.326 . S
In26 O34 2.266 . S
In26 O35 2.326 . S
In26 O37 2.294 . S
In26 O38 2.326 . S
O27 In26 2.294 . S
O27 C36 1.240 . S
O28 In26 2.326 . S
O28 C36 1.252 . S
C29 O32 1.252 . S
C29 O33 1.260 . S
C30 O37 1.240 . S
C30 O38 1.252 . S
C31 O34 1.252 . S
C31 O35 1.260 . S
O32 In26 2.266 . S
O32 C29 1.252 . S
O33 In26 2.326 . S
O33 C29 1.260 . S
O34 In26 2.266 . S
O34 C31 1.252 . S
O35 In26 2.326 . S
O35 C31 1.260 . S
C36 O27 1.240 . S
C36 O28 1.252 . S
O37 In26 2.294 . S
O37 C30 1.240 . S
O38 In26 2.326 . S
O38 C30 1.252 . S
In39 O40 2.294 . S
In39 O41 2.326 . S
In39 O45 2.266 . S
In39 O46 2.326 . S
In39 O47 2.266 . S
In39 O48 2.326 . S
In39 O50 2.294 . S
In39 O51 2.326 . S
O40 In39 2.294 . S
O40 C49 1.240 . S
O41 In39 2.326 . S
O41 C49 1.252 . S
C42 O45 1.252 . S
C42 O46 1.260 . S
C43 O50 1.240 . S
C43 O51 1.252 . S
C44 O47 1.252 . S
C44 O48 1.260 . S
O45 In39 2.266 . S
O45 C42 1.252 . S
O46 In39 2.326 . S
O46 C42 1.260 . S
O47 In39 2.266 . S
O47 C44 1.252 . S
O48 In39 2.326 . S
O48 C44 1.260 . S
C49 O40 1.240 . S
C49 O41 1.252 . S
O50 In39 2.294 . S
O50 C43 1.240 . S
O51 In39 2.326 . S
O51 C43 1.252 . S
In52 O53 2.294 . S
In52 O54 2.326 . S
In52 O58 2.266 . S
In52 O59 2.326 . S
In52 O60 2.266 . S
In52 O61 2.326 . S
In52 O63 2.294 . S
In52 O64 2.326 . S
O53 In52 2.294 . S
O53 C62 1.240 . S
O54 In52 2.326 . S
O54 C62 1.252 . S
C55 O58 1.252 . S
C55 O59 1.260 . S
C56 O63 1.240 . S
C56 O64 1.252 . S
C57 O60 1.252 . S
C57 O61 1.260 . S
O58 In52 2.266 . S
O58 C55 1.252 . S
O59 In52 2.326 . S
O59 C55 1.260 . S
O60 In52 2.266 . S
O60 C57 1.252 . S
O61 In52 2.326 . S
O61 C57 1.260 . S
C62 O53 1.240 . S
C62 O54 1.252 . S
O63 In52 2.294 . S
O63 C56 1.240 . S
O64 In52 2.326 . S
O64 C56 1.252 . S
In65 O66 2.294 . S
In65 O67 2.326 . S
In65 O71 2.266 . S
In65 O72 2.326 . S
In65 O73 2.266 . S
In65 O74 2.326 . S
In65 O76 2.294 . S
In65 O77 2.326 . S
O66 In65 2.294 . S
O66 C75 1.240 . S
O67 In65 2.326 . S
O67 C75 1.252 . S
C68 O71 1.252 . S
C68 O72 1.260 . S
C69 O76 1.240 . S
C69 O77 1.252 . S
C70 O73 1.252 . S
C70 O74 1.260 . S
O71 In65 2.266 . S
O71 C68 1.252 . S
O72 In65 2.326 . S
O72 C68 1.260 . S
O73 In65 2.266 . S
O73 C70 1.252 . S
O74 In65 2.326 . S
O74 C70 1.260 . S
C75 O66 1.240 . S
C75 O67 1.252 . S
O76 In65 2.294 . S
O76 C69 1.240 . S
O77 In65 2.326 . S
O77 C69 1.252 . S
In78 O79 2.294 . S
In78 O80 2.326 . S
In78 O84 2.266 . S
In78 O85 2.326 . S
In78 O86 2.266 . S
In78 O87 2.326 . S
In78 O89 2.294 . S
In78 O90 2.326 . S
O79 In78 2.294 . S
O79 C88 1.240 . S
O80 In78 2.326 . S
O80 C88 1.252 . S
C81 O84 1.252 . S
C81 O85 1.260 . S
C82 O89 1.240 . S
C82 O90 1.252 . S
C83 O86 1.252 . S
C83 O87 1.260 . S
O84 In78 2.266 . S
O84 C81 1.252 . S
O85 In78 2.326 . S
O85 C81 1.260 . S
O86 In78 2.266 . S
O86 C83 1.252 . S
O87 In78 2.326 . S
O87 C83 1.260 . S
C88 O79 1.240 . S
C88 O80 1.252 . S
O89 In78 2.294 . S
O89 C82 1.240 . S
O90 In78 2.326 . S
O90 C82 1.252 . S
In91 O92 2.294 . S
In91 O93 2.326 . S
In91 O97 2.266 . S
In91 O98 2.326 . S
In91 O99 2.266 . S
In91 O100 2.326 . S
In91 O102 2.294 . S
In91 O103 2.326 . S
O92 In91 2.294 . S
O92 C101 1.240 . S
O93 In91 2.326 . S
O93 C101 1.252 . S
C94 O97 1.252 . S
C94 O98 1.260 . S
C95 O102 1.240 . S
C95 O103 1.252 . S
C96 O99 1.252 . S
C96 O100 1.260 . S
O97 In91 2.266 . S
O97 C94 1.252 . S
O98 In91 2.326 . S
O98 C94 1.260 . S
O99 In91 2.266 . S
O99 C96 1.252 . S
O100 In91 2.326 . S
O100 C96 1.260 . S
C101 O92 1.240 . S
C101 O93 1.252 . S
O102 In91 2.294 . S
O102 C95 1.240 . S
O103 In91 2.326 . S
O103 C95 1.252 . S
In104 O105 2.294 . S
In104 O106 2.326 . S
In104 O110 2.266 . S
In104 O111 2.326 . S
In104 O112 2.266 . S
In104 O113 2.326 . S
In104 O115 2.294 . S
In104 O116 2.326 . S
O105 In104 2.294 . S
O105 C114 1.240 . S
O106 In104 2.326 . S
O106 C114 1.252 . S
C107 O110 1.252 . S
C107 O111 1.260 . S
C108 O115 1.240 . S
C108 O116 1.252 . S
C109 O112 1.252 . S
C109 O113 1.260 . S
O110 In104 2.266 . S
O110 C107 1.252 . S
O111 In104 2.326 . S
O111 C107 1.260 . S
O112 In104 2.266 . S
O112 C109 1.252 . S
O113 In104 2.326 . S
O113 C109 1.260 . S
C114 O105 1.240 . S
C114 O106 1.252 . S
O115 In104 2.294 . S
O115 C108 1.240 . S
O116 In104 2.326 . S
O116 C108 1.252 . S
In117 O118 2.294 . S
In117 O119 2.326 . S
In117 O123 2.266 . S
In117 O124 2.326 . S
In117 O125 2.266 . S
In117 O126 2.326 . S
In117 O128 2.294 . S
In117 O129 2.326 . S
O118 In117 2.294 . S
O118 C127 1.240 . S
O119 In117 2.326 . S
O119 C127 1.252 . S
C120 O123 1.252 . S
C120 O124 1.260 . S
C121 O128 1.240 . S
C121 O129 1.252 . S
C122 O125 1.252 . S
C122 O126 1.260 . S
O123 In117 2.266 . S
O123 C120 1.252 . S
O124 In117 2.326 . S
O124 C120 1.260 . S
O125 In117 2.266 . S
O125 C122 1.252 . S
O126 In117 2.326 . S
O126 C122 1.260 . S
C127 O118 1.240 . S
C127 O119 1.252 . S
O128 In117 2.294 . S
O128 C121 1.240 . S
O129 In117 2.326 . S
O129 C121 1.252 . S
In130 O131 2.294 . S
In130 O132 2.326 . S
In130 O136 2.266 . S
In130 O137 2.326 . S
In130 O138 2.266 . S
In130 O139 2.326 . S
In130 O141 2.294 . S
In130 O142 2.326 . S
O131 In130 2.294 . S
O131 C140 1.240 . S
O132 In130 2.326 . S
O132 C140 1.252 . S
C133 O136 1.252 . S
C133 O137 1.260 . S
C134 O141 1.240 . S
C134 O142 1.252 . S
C135 O138 1.252 . S
C135 O139 1.260 . S
O136 In130 2.266 . S
O136 C133 1.252 . S
O137 In130 2.326 . S
O137 C133 1.260 . S
O138 In130 2.266 . S
O138 C135 1.252 . S
O139 In130 2.326 . S
O139 C135 1.260 . S
C140 O131 1.240 . S
C140 O132 1.252 . S
O141 In130 2.294 . S
O141 C134 1.240 . S
O142 In130 2.326 . S
O142 C134 1.252 . S
In143 O144 2.294 . S
In143 O145 2.326 . S
In143 O149 2.266 . S
In143 O150 2.326 . S
In143 O151 2.266 . S
In143 O152 2.326 . S
In143 O154 2.294 . S
In143 O155 2.326 . S
O144 In143 2.294 . S
O144 C153 1.240 . S
O145 In143 2.326 . S
O145 C153 1.252 . S
C146 O149 1.252 . S
C146 O150 1.260 . S
C147 O154 1.240 . S
C147 O155 1.252 . S
C148 O151 1.252 . S
C148 O152 1.260 . S
O149 In143 2.266 . S
O149 C146 1.252 . S
O150 In143 2.326 . S
O150 C146 1.260 . S
O151 In143 2.266 . S
O151 C148 1.252 . S
O152 In143 2.326 . S
O152 C148 1.260 . S
C153 O144 1.240 . S
C153 O145 1.252 . S
O154 In143 2.294 . S
O154 C147 1.240 . S
O155 In143 2.326 . S
O155 C147 1.252 . S
In156 O157 2.294 . S
In156 O158 2.326 . S
In156 O162 2.266 . S
In156 O163 2.326 . S
In156 O164 2.266 . S
In156 O165 2.326 . S
In156 O167 2.294 . S
In156 O168 2.326 . S
O157 In156 2.294 . S
O157 C166 1.240 . S
O158 In156 2.326 . S
O158 C166 1.252 . S
C159 O162 1.252 . S
C159 O163 1.260 . S
C160 O167 1.240 . S
C160 O168 1.252 . S
C161 O164 1.252 . S
C161 O165 1.260 . S
O162 In156 2.266 . S
O162 C159 1.252 . S
O163 In156 2.326 . S
O163 C159 1.260 . S
O164 In156 2.266 . S
O164 C161 1.252 . S
O165 In156 2.326 . S
O165 C161 1.260 . S
C166 O157 1.240 . S
C166 O158 1.252 . S
O167 In156 2.294 . S
O167 C160 1.240 . S
O168 In156 2.326 . S
O168 C160 1.252 . S
In169 O170 2.294 . S
In169 O171 2.326 . S
In169 O175 2.266 . S
In169 O176 2.326 . S
In169 O177 2.266 . S
In169 O178 2.326 . S
In169 O180 2.294 . S
In169 O181 2.326 . S
O170 In169 2.294 . S
O170 C179 1.240 . S
O171 In169 2.326 . S
O171 C179 1.252 . S
C172 O175 1.252 . S
C172 O176 1.260 . S
C173 O180 1.240 . S
C173 O181 1.252 . S
C174 O177 1.252 . S
C174 O178 1.260 . S
O175 In169 2.266 . S
O175 C172 1.252 . S
O176 In169 2.326 . S
O176 C172 1.260 . S
O177 In169 2.266 . S
O177 C174 1.252 . S
O178 In169 2.326 . S
O178 C174 1.260 . S
C179 O170 1.240 . S
C179 O171 1.252 . S
O180 In169 2.294 . S
O180 C173 1.240 . S
O181 In169 2.326 . S
O181 C173 1.252 . S
In182 O183 2.294 . S
In182 O184 2.326 . S
In182 O188 2.266 . S
In182 O189 2.326 . S
In182 O190 2.266 . S
In182 O191 2.326 . S
In182 O193 2.294 . S
In182 O194 2.326 . S
O183 In182 2.294 . S
O183 C192 1.240 . S
O184 In182 2.326 . S
O184 C192 1.252 . S
C185 O188 1.252 . S
C185 O189 1.260 . S
C186 O193 1.240 . S
C186 O194 1.252 . S
C187 O190 1.252 . S
C187 O191 1.260 . S
O188 In182 2.266 . S
O188 C185 1.252 . S
O189 In182 2.326 . S
O189 C185 1.260 . S
O190 In182 2.266 . S
O190 C187 1.252 . S
O191 In182 2.326 . S
O191 C187 1.260 . S
C192 O183 1.240 . S
C192 O184 1.252 . S
O193 In182 2.294 . S
O193 C186 1.240 . S
O194 In182 2.326 . S
O194 C186 1.252 . S
In195 O196 2.294 . S
In195 O197 2.326 . S
In195 O201 2.266 . S
In195 O202 2.326 . S
In195 O203 2.266 . S
In195 O204 2.326 . S
In195 O206 2.294 . S
In195 O207 2.326 . S
O196 In195 2.294 . S
O196 C205 1.240 . S
O197 In195 2.326 . S
O197 C205 1.252 . S
C198 O201 1.252 . S
C198 O202 1.260 . S
C199 O206 1.240 . S
C199 O207 1.252 . S
C200 O203 1.252 . S
C200 O204 1.260 . S
O201 In195 2.266 . S
O201 C198 1.252 . S
O202 In195 2.326 . S
O202 C198 1.260 . S
O203 In195 2.266 . S
O203 C200 1.252 . S
O204 In195 2.326 . S
O204 C200 1.260 . S
C205 O196 1.240 . S
C205 O197 1.252 . S
O206 In195 2.294 . S
O206 C199 1.240 . S
O207 In195 2.326 . S
O207 C199 1.252 . S
H208 C214 0.930 . S
H209 C217 0.930 . S
H210 C218 0.930 . S
H211 C219 0.930 . S
H212 C222 0.930 . S
H213 C223 0.930 . S
C214 H208 0.930 . S
C214 C215 1.355 1_556 S
C214 C216 1.415 . S
C215 C214 1.355 1_554 S
C215 C217 1.419 . S
C216 C214 1.415 . S
C216 C221 1.425 . S
C216 C223 1.409 . S
C217 H209 0.930 . S
C217 C215 1.419 . S
C217 C218 1.362 . S
C218 H210 0.930 . S
C218 C217 1.362 . S
C218 C221 1.409 1_554 S
C219 H211 0.930 . S
C219 C220 1.355 . S
C219 C221 1.415 . S
C220 C219 1.355 . S
C220 C222 1.419 . S
C221 C216 1.425 . S
C221 C218 1.409 1_556 S
C221 C219 1.415 . S
C222 H212 0.930 . S
C222 C220 1.419 . S
C222 C223 1.362 . S
C223 H213 0.930 . S
C223 C216 1.409 . S
C223 C222 1.362 . S
H224 C230 0.930 . S
H225 C233 0.930 . S
H226 C234 0.930 . S
H227 C235 0.930 . S
H228 C238 0.930 . S
H229 C239 0.930 . S
C230 H224 0.930 . S
C230 C231 1.355 . S
C230 C232 1.415 . S
C231 C230 1.355 . S
C231 C233 1.419 . S
C232 C230 1.415 . S
C232 C237 1.425 . S
C232 C239 1.409 . S
C233 H225 0.930 . S
C233 C231 1.419 . S
C233 C234 1.362 . S
C234 H226 0.930 . S
C234 C233 1.362 . S
C234 C237 1.409 . S
C235 H227 0.930 . S
C235 C236 1.355 . S
C235 C237 1.415 . S
C236 C235 1.355 . S
C236 C238 1.419 . S
C237 C232 1.425 . S
C237 C234 1.409 . S
C237 C235 1.415 . S
C238 H228 0.930 . S
C238 C236 1.419 . S
C238 C239 1.362 . S
C239 H229 0.930 . S
C239 C232 1.409 . S
C239 C238 1.362 . S
H240 C246 0.930 . S
H241 C249 0.930 . S
H242 C250 0.928 1_554 S
H243 C251 0.930 . S
H244 C254 0.930 . S
H245 C255 0.930 . S
C246 H240 0.930 . S
C246 C247 1.355 . S
C246 C248 1.415 1_556 S
C247 C246 1.355 . S
C247 C249 1.419 . S
C248 C246 1.415 1_554 S
C248 C253 1.425 . S
C248 C255 1.409 . S
C249 H241 0.930 . S
C249 C247 1.419 . S
C249 C250 1.371 . S
C250 H242 0.928 1_556 S
C250 C249 1.371 . S
C250 C253 1.403 1_556 S
C251 H243 0.930 . S
C251 C252 1.355 . S
C251 C253 1.415 . S
C252 C251 1.355 . S
C252 C254 1.419 . S
C253 C248 1.425 . S
C253 C250 1.403 1_554 S
C253 C251 1.415 . S
C254 H244 0.930 . S
C254 C252 1.419 . S
C254 C255 1.362 . S
C255 H245 0.930 . S
C255 C248 1.409 . S
C255 C254 1.362 . S
H256 C262 0.930 . S
H257 C265 0.930 . S
H258 C266 0.930 . S
H259 C267 0.930 . S
H260 C270 0.930 . S
H261 C271 0.930 . S
C262 H256 0.930 . S
C262 C263 1.355 . S
C262 C264 1.415 . S
C263 C262 1.355 . S
C263 C265 1.419 . S
C264 C262 1.415 . S
C264 C269 1.425 . S
C264 C271 1.409 . S
C265 H257 0.930 . S
C265 C263 1.419 . S
C265 C266 1.362 . S
C266 H258 0.930 . S
C266 C265 1.362 . S
C266 C269 1.409 . S
C267 H259 0.930 . S
C267 C268 1.355 . S
C267 C269 1.415 . S
C268 C267 1.355 . S
C268 C270 1.419 . S
C269 C264 1.425 . S
C269 C266 1.409 . S
C269 C267 1.415 . S
C270 H260 0.930 . S
C270 C268 1.419 . S
C270 C271 1.362 . S
C271 H261 0.930 . S
C271 C264 1.409 . S
C271 C270 1.362 . S
H272 C278 0.930 . S
H273 C281 0.930 . S
H274 C282 0.930 . S
H275 C283 0.930 1_554 S
H276 C286 0.930 . S
H277 C287 0.930 . S
C278 H272 0.930 . S
C278 C279 1.355 1_556 S
C278 C280 1.415 . S
C279 C278 1.355 1_554 S
C279 C281 1.419 . S
C280 C278 1.415 . S
C280 C285 1.425 1_556 S
C280 C287 1.409 . S
C281 H273 0.930 . S
C281 C279 1.419 . S
C281 C282 1.362 . S
C282 H274 0.930 . S
C282 C281 1.362 . S
C282 C285 1.409 . S
C283 H275 0.930 1_556 S
C283 C284 1.355 . S
C283 C285 1.415 1_556 S
C284 C283 1.355 . S
C284 C286 1.419 . S
C285 C280 1.425 1_554 S
C285 C282 1.409 . S
C285 C283 1.415 1_554 S
C286 H276 0.930 . S
C286 C284 1.419 . S
C286 C287 1.362 . S
C287 H277 0.930 . S
C287 C280 1.409 . S
C287 C286 1.362 . S
H288 C294 0.930 . S
H289 C297 0.930 . S
H290 C298 0.930 . S
H291 C299 0.930 . S
H292 C302 0.930 . S
H293 C303 0.930 . S
C294 H288 0.930 . S
C294 C295 1.355 . S
C294 C296 1.415 . S
C295 C294 1.355 . S
C295 C297 1.419 . S
C296 C294 1.415 . S
C296 C301 1.425 . S
C296 C303 1.409 . S
C297 H289 0.930 . S
C297 C295 1.419 . S
C297 C298 1.362 . S
C298 H290 0.930 . S
C298 C297 1.362 . S
C298 C301 1.409 . S
C299 H291 0.930 . S
C299 C300 1.355 . S
C299 C301 1.415 . S
C300 C299 1.355 . S
C300 C302 1.419 . S
C301 C296 1.425 . S
C301 C298 1.409 . S
C301 C299 1.415 . S
C302 H292 0.930 . S
C302 C300 1.419 . S
C302 C303 1.362 . S
C303 H293 0.930 . S
C303 C296 1.409 . S
C303 C302 1.362 . S
H304 C310 0.930 . S
H305 C313 0.930 . S
H306 C314 0.930 . S
H307 C315 0.930 . S
H308 C318 0.930 . S
H309 C319 0.930 . S
C310 H304 0.930 . S
C310 C311 1.355 . S
C310 C312 1.415 1_556 S
C311 C310 1.355 . S
C311 C313 1.419 . S
C312 C310 1.415 1_554 S
C312 C317 1.425 . S
C312 C319 1.409 . S
C313 H305 0.930 . S
C313 C311 1.419 . S
C313 C314 1.362 . S
C314 H306 0.930 . S
C314 C313 1.362 . S
C314 C317 1.409 1_556 S
C315 H307 0.930 . S
C315 C316 1.355 . S
C315 C317 1.415 . S
C316 C315 1.355 . S
C316 C318 1.419 . S
C317 C312 1.425 . S
C317 C314 1.409 1_554 S
C317 C315 1.415 . S
C318 H308 0.930 . S
C318 C316 1.419 . S
C318 C319 1.362 . S
C319 H309 0.930 . S
C319 C312 1.409 . S
C319 C318 1.362 . S
H320 C326 0.930 . S
H321 C329 0.930 . S
H322 C330 0.930 . S
H323 C331 0.930 . S
H324 C334 0.930 . S
H325 C335 0.930 . S
C326 H320 0.930 . S
C326 C327 1.355 . S
C326 C328 1.415 . S
C327 C326 1.355 . S
C327 C329 1.419 . S
C328 C326 1.415 . S
C328 C333 1.425 . S
C328 C335 1.409 . S
C329 H321 0.930 . S
C329 C327 1.419 . S
C329 C330 1.362 . S
C330 H322 0.930 . S
C330 C329 1.362 . S
C330 C333 1.409 . S
C331 H323 0.930 . S
C331 C332 1.355 . S
C331 C333 1.415 . S
C332 C331 1.355 . S
C332 C334 1.419 . S
C333 C328 1.425 . S
C333 C330 1.409 . S
C333 C331 1.415 . S
C334 H324 0.930 . S
C334 C332 1.419 . S
C334 C335 1.362 . S
C335 H325 0.930 . S
C335 C328 1.409 . S
C335 C334 1.362 . S
H336 C342 0.930 . S
H337 C345 0.930 . S
H338 C346 0.930 . S
H339 C347 0.930 . S
H340 C350 0.930 . S
H341 C351 0.930 . S
C342 H336 0.930 . S
C342 C343 1.355 . S
C342 C344 1.415 . S
C343 C342 1.355 . S
C343 C345 1.419 . S
C344 C342 1.415 . S
C344 C349 1.425 1_544 S
C344 C351 1.409 1_545 S
C345 H337 0.930 . S
C345 C343 1.419 . S
C345 C346 1.362 1_554 S
C346 H338 0.930 . S
C346 C345 1.362 1_556 S
C346 C349 1.409 1_545 S
C347 H339 0.930 . S
C347 C348 1.355 . S
C347 C349 1.415 . S
C348 C347 1.355 . S
C348 C350 1.419 . S
C349 C344 1.425 1_566 S
C349 C346 1.409 1_565 S
C349 C347 1.415 . S
C350 H340 0.930 . S
C350 C348 1.419 . S
C350 C351 1.362 1_556 S
C351 H341 0.930 . S
C351 C344 1.409 1_565 S
C351 C350 1.362 1_554 S
H352 C358 0.930 . S
H353 C361 0.930 . S
H354 C362 0.930 . S
H355 C363 0.930 . S
H356 C366 0.930 . S
H357 C367 0.930 . S
C358 H352 0.930 . S
C358 C359 1.355 . S
C358 C360 1.415 . S
C359 C358 1.355 . S
C359 C361 1.419 . S
C360 C358 1.415 . S
C360 C365 1.425 1_565 S
C360 C367 1.409 1_565 S
C361 H353 0.930 . S
C361 C359 1.419 . S
C361 C362 1.362 . S
C362 H354 0.930 . S
C362 C361 1.362 . S
C362 C365 1.409 1_565 S
C363 H355 0.930 . S
C363 C364 1.355 . S
C363 C365 1.415 . S
C364 C363 1.355 . S
C364 C366 1.419 . S
C365 C360 1.425 1_545 S
C365 C362 1.409 1_545 S
C365 C363 1.415 . S
C366 H356 0.930 . S
C366 C364 1.419 . S
C366 C367 1.362 . S
C367 H357 0.930 . S
C367 C360 1.409 1_545 S
C367 C366 1.362 . S
H368 C374 0.930 . S
H369 C377 0.930 . S
H370 C378 0.930 . S
H371 C379 0.930 . S
H372 C382 0.930 . S
H373 C383 0.930 . S
C374 H368 0.930 . S
C374 C375 1.355 . S
C374 C376 1.414 1_565 S
C375 C374 1.355 . S
C375 C377 1.419 . S
C376 C374 1.414 1_545 S
C376 C381 1.425 1_546 S
C376 C383 1.410 . S
C377 H369 0.930 . S
C377 C375 1.419 . S
C377 C378 1.362 1_556 S
C378 H370 0.930 . S
C378 C377 1.362 1_554 S
C378 C381 1.410 . S
C379 H371 0.930 . S
C379 C380 1.355 . S
C379 C381 1.414 1_545 S
C380 C379 1.355 . S
C380 C382 1.419 . S
C381 C376 1.425 1_564 S
C381 C378 1.410 . S
C381 C379 1.414 1_565 S
C382 H372 0.930 . S
C382 C380 1.419 . S
C382 C383 1.362 1_554 S
C383 H373 0.930 . S
C383 C376 1.410 . S
C383 C382 1.362 1_556 S
H384 C390 0.930 . S
H385 C393 0.930 . S
H386 C394 0.930 . S
H387 C395 0.930 . S
H388 C398 0.930 . S
H389 C399 0.930 . S
C390 H384 0.930 . S
C390 C391 1.355 . S
C390 C392 1.397 1_545 S
C391 C390 1.355 . S
C391 C393 1.419 . S
C392 C390 1.397 1_565 S
C392 C397 1.424 1_565 S
C392 C399 1.427 . S
C393 H385 0.930 . S
C393 C391 1.419 . S
C393 C394 1.362 . S
C394 H386 0.930 . S
C394 C393 1.362 . S
C394 C397 1.427 . S
C395 H387 0.930 . S
C395 C396 1.355 . S
C395 C397 1.397 1_565 S
C396 C395 1.355 . S
C396 C398 1.419 . S
C397 C392 1.424 1_545 S
C397 C394 1.427 . S
C397 C395 1.397 1_545 S
C398 H388 0.930 . S
C398 C396 1.419 . S
C398 C399 1.362 . S
C399 H389 0.930 . S
C399 C392 1.427 . S
C399 C398 1.362 . S
H400 C406 0.930 . S
H401 C409 0.930 . S
H402 C410 0.930 . S
H403 C411 0.930 . S
H404 C414 0.930 . S
H405 C415 0.930 . S
C406 H400 0.930 . S
C406 C407 1.355 . S
C406 C408 1.415 1_556 S
C407 C406 1.355 . S
C407 C409 1.419 . S
C408 C406 1.415 1_554 S
C408 C413 1.425 1_554 S
C408 C415 1.409 . S
C409 H401 0.930 . S
C409 C407 1.419 . S
C409 C410 1.362 . S
C410 H402 0.930 . S
C410 C409 1.362 . S
C410 C413 1.409 . S
C411 H403 0.930 . S
C411 C412 1.355 . S
C411 C413 1.415 1_554 S
C412 C411 1.355 . S
C412 C414 1.419 . S
C413 C408 1.425 1_556 S
C413 C410 1.409 . S
C413 C411 1.415 1_556 S
C414 H404 0.930 . S
C414 C412 1.419 . S
C414 C415 1.362 . S
C415 H405 0.930 . S
C415 C408 1.409 . S
C415 C414 1.362 . S
H416 C422 0.930 . S
H417 C425 0.930 . S
H418 C426 0.930 . S
H419 C427 0.930 . S
H420 C430 0.930 . S
H421 C431 0.930 . S
C422 H416 0.930 . S
C422 C423 1.355 . S
C422 C424 1.415 . S
C423 C422 1.355 . S
C423 C425 1.419 . S
C424 C422 1.415 . S
C424 C429 1.425 . S
C424 C431 1.409 . S
C425 H417 0.930 . S
C425 C423 1.419 . S
C425 C426 1.362 . S
C426 H418 0.930 . S
C426 C425 1.362 . S
C426 C429 1.409 . S
C427 H419 0.930 . S
C427 C428 1.355 . S
C427 C429 1.415 . S
C428 C427 1.355 . S
C428 C430 1.419 . S
C429 C424 1.425 . S
C429 C426 1.409 . S
C429 C427 1.415 . S
C430 H420 0.930 . S
C430 C428 1.419 . S
C430 C431 1.362 . S
C431 H421 0.930 . S
C431 C424 1.409 . S
C431 C430 1.362 . S
H432 C438 0.930 1_556 S
H433 C441 0.930 . S
H434 C442 0.930 . S
H435 C443 0.930 1_554 S
H436 C446 0.930 . S
H437 C447 0.930 . S
C438 H432 0.930 1_554 S
C438 C439 1.355 . S
C438 C440 1.415 1_554 S
C439 C438 1.355 . S
C439 C441 1.419 . S
C440 C438 1.415 1_556 S
C440 C445 1.425 1_556 S
C440 C447 1.409 . S
C441 H433 0.930 . S
C441 C439 1.419 . S
C441 C442 1.362 . S
C442 H434 0.930 . S
C442 C441 1.362 . S
C442 C445 1.409 . S
C443 H435 0.930 1_556 S
C443 C444 1.355 . S
C443 C445 1.415 1_556 S
C444 C443 1.355 . S
C444 C446 1.419 . S
C445 C440 1.425 1_554 S
C445 C442 1.409 . S
C445 C443 1.415 1_554 S
C446 H436 0.930 . S
C446 C444 1.419 . S
C446 C447 1.362 . S
C447 H437 0.930 . S
C447 C440 1.409 . S
C447 C446 1.362 . S
H448 C454 0.930 . S
H449 C457 0.930 . S
H450 C458 0.930 . S
H451 C459 0.930 . S
H452 C462 0.930 . S
H453 C463 0.930 . S
C454 H448 0.930 . S
C454 C455 1.355 . S
C454 C456 1.415 . S
C455 C454 1.355 . S
C455 C457 1.419 . S
C456 C454 1.415 . S
C456 C461 1.425 . S
C456 C463 1.409 . S
C457 H449 0.930 . S
C457 C455 1.419 . S
C457 C458 1.362 . S
C458 H450 0.930 . S
C458 C457 1.362 . S
C458 C461 1.409 . S
C459 H451 0.930 . S
C459 C460 1.355 . S
C459 C461 1.415 . S
C460 C459 1.355 . S
C460 C462 1.419 . S
C461 C456 1.425 . S
C461 C458 1.409 . S
C461 C459 1.415 . S
C462 H452 0.930 . S
C462 C460 1.419 . S
C462 C463 1.362 . S
C463 H453 0.930 . S
C463 C456 1.409 . S
C463 C462 1.362 . S
H464 C470 0.930 . S
H465 C473 0.930 . S
H466 C474 0.930 . S
H467 C475 0.930 . S
H468 C478 0.930 . S
H469 C479 0.930 . S
C470 H464 0.930 . S
C470 C471 1.355 . S
C470 C472 1.415 . S
C471 C470 1.355 . S
C471 C473 1.419 . S
C472 C470 1.415 . S
C472 C477 1.425 . S
C472 C479 1.409 . S
C473 H465 0.930 . S
C473 C471 1.419 . S
C473 C474 1.362 . S
C474 H466 0.930 . S
C474 C473 1.362 . S
C474 C477 1.409 . S
C475 H467 0.930 . S
C475 C476 1.355 . S
C475 C477 1.415 . S
C476 C475 1.355 . S
C476 C478 1.419 . S
C477 C472 1.425 . S
C477 C474 1.409 . S
C477 C475 1.415 . S
C478 H468 0.930 . S
C478 C476 1.419 . S
C478 C479 1.362 . S
C479 H469 0.930 . S
C479 C472 1.409 . S
C479 C478 1.362 . S
H480 C486 0.930 . S
H481 C489 0.930 . S
H482 C490 0.934 . S
H483 C491 0.930 . S
H484 C494 0.930 . S
H485 C495 0.930 . S
C486 H480 0.930 . S
C486 C487 1.355 . S
C486 C488 1.415 1_655 S
C487 C486 1.355 . S
C487 C489 1.419 . S
C488 C486 1.415 1_455 S
C488 C493 1.425 . S
C488 C495 1.409 . S
C489 H481 0.930 . S
C489 C487 1.419 . S
C489 C490 1.352 1_655 S
C490 H482 0.934 . S
C490 C489 1.352 1_455 S
C490 C493 1.415 . S
C491 H483 0.930 . S
C491 C492 1.355 . S
C491 C493 1.415 . S
C492 C491 1.355 . S
C492 C494 1.419 . S
C493 C488 1.425 . S
C493 C490 1.415 . S
C493 C491 1.415 . S
C494 H484 0.930 . S
C494 C492 1.419 . S
C494 C495 1.362 . S
C495 H485 0.930 . S
C495 C488 1.409 . S
C495 C494 1.362 . S
H496 C502 0.930 . S
H497 C505 0.930 . S
H498 C506 0.930 . S
H499 C507 0.930 . S
H500 C510 0.930 . S
H501 C511 0.930 . S
C502 H496 0.930 . S
C502 C503 1.355 . S
C502 C504 1.415 . S
C503 C502 1.355 . S
C503 C505 1.419 . S
C504 C502 1.415 . S
C504 C509 1.425 . S
C504 C511 1.409 . S
C505 H497 0.930 . S
C505 C503 1.419 . S
C505 C506 1.362 . S
C506 H498 0.930 . S
C506 C505 1.362 . S
C506 C509 1.409 . S
C507 H499 0.930 . S
C507 C508 1.355 . S
C507 C509 1.415 . S
C508 C507 1.355 . S
C508 C510 1.419 . S
C509 C504 1.425 . S
C509 C506 1.409 . S
C509 C507 1.415 . S
C510 H500 0.930 . S
C510 C508 1.419 . S
C510 C511 1.362 . S
C511 H501 0.930 . S
C511 C504 1.409 . S
C511 C510 1.362 . S
H512 C518 0.930 . S
H513 C521 0.930 . S
H514 C522 0.930 . S
H515 C523 0.930 . S
H516 C526 0.930 . S
H517 C527 0.932 . S
C518 H512 0.930 . S
C518 C519 1.355 . S
C518 C520 1.415 . S
C519 C518 1.355 . S
C519 C521 1.419 . S
C520 C518 1.415 . S
C520 C525 1.425 . S
C520 C527 1.409 1_455 S
C521 H513 0.930 . S
C521 C519 1.419 . S
C521 C522 1.362 . S
C522 H514 0.930 . S
C522 C521 1.362 . S
C522 C525 1.409 . S
C523 H515 0.930 . S
C523 C524 1.355 . S
C523 C525 1.415 1_655 S
C524 C523 1.355 . S
C524 C526 1.419 . S
C525 C520 1.425 . S
C525 C522 1.409 . S
C525 C523 1.415 1_455 S
C526 H516 0.930 . S
C526 C524 1.419 . S
C526 C527 1.362 . S
C527 H517 0.932 . S
C527 C520 1.409 1_655 S
C527 C526 1.362 . S
H528 C534 0.930 . S
H529 C537 0.930 . S
H530 C538 0.935 . S
H531 C539 0.930 . S
H532 C542 0.930 . S
H533 C543 0.930 . S
C534 H528 0.930 . S
C534 C535 1.355 . S
C534 C536 1.415 1_455 S
C535 C534 1.355 . S
C535 C537 1.419 . S
C536 C534 1.415 1_655 S
C536 C541 1.425 . S
C536 C543 1.409 . S
C537 H529 0.930 . S
C537 C535 1.419 . S
C537 C538 1.351 1_455 S
C538 H530 0.935 . S
C538 C537 1.351 1_655 S
C538 C541 1.416 . S
C539 H531 0.930 . S
C539 C540 1.355 . S
C539 C541 1.415 . S
C540 C539 1.355 . S
C540 C542 1.419 . S
C541 C536 1.425 . S
C541 C538 1.416 . S
C541 C539 1.415 . S
C542 H532 0.930 . S
C542 C540 1.419 . S
C542 C543 1.362 . S
C543 H533 0.930 . S
C543 C536 1.409 . S
C543 C542 1.362 . S
H544 C550 0.930 . S
H545 C553 0.930 . S
H546 C554 0.930 . S
H547 C555 0.930 . S
H548 C558 0.930 . S
H549 C559 0.930 . S
C550 H544 0.930 . S
C550 C551 1.355 . S
C550 C552 1.415 . S
C551 C550 1.355 . S
C551 C553 1.419 . S
C552 C550 1.415 . S
C552 C557 1.425 . S
C552 C559 1.409 . S
C553 H545 0.930 . S
C553 C551 1.419 . S
C553 C554 1.362 . S
C554 H546 0.930 . S
C554 C553 1.362 . S
C554 C557 1.409 . S
C555 H547 0.930 . S
C555 C556 1.355 . S
C555 C557 1.415 . S
C556 C555 1.355 . S
C556 C558 1.419 . S
C557 C552 1.425 . S
C557 C554 1.409 . S
C557 C555 1.415 . S
C558 H548 0.930 . S
C558 C556 1.419 . S
C558 C559 1.362 . S
C559 H549 0.930 . S
C559 C552 1.409 . S
C559 C558 1.362 . S
H560 C566 0.930 . S
H561 C569 0.930 . S
H562 C570 0.929 . S
H563 C571 0.930 . S
H564 C574 0.930 . S
H565 C575 0.930 . S
C566 H560 0.930 . S
C566 C567 1.355 . S
C566 C568 1.415 1_455 S
C567 C566 1.355 . S
C567 C569 1.419 . S
C568 C566 1.415 1_655 S
C568 C573 1.425 . S
C568 C575 1.409 . S
C569 H561 0.930 . S
C569 C567 1.419 . S
C569 C570 1.362 . S
C570 H562 0.929 . S
C570 C569 1.362 . S
C570 C573 1.409 1_455 S
C571 H563 0.930 . S
C571 C572 1.355 . S
C571 C573 1.415 . S
C572 C571 1.355 . S
C572 C574 1.419 . S
C573 C568 1.425 . S
C573 C570 1.409 1_655 S
C573 C571 1.415 . S
C574 H564 0.930 . S
C574 C572 1.419 . S
C574 C575 1.362 . S
C575 H565 0.930 . S
C575 C568 1.409 . S
C575 C574 1.362 . S
H576 C582 0.930 . S
H577 C585 0.930 . S
H578 C586 0.930 . S
H579 C587 0.930 . S
H580 C590 0.930 . S
H581 C591 0.930 . S
C582 H576 0.930 . S
C582 C583 1.355 . S
C582 C584 1.415 . S
C583 C582 1.355 . S
C583 C585 1.419 . S
C584 C582 1.415 . S
C584 C589 1.425 . S
C584 C591 1.409 . S
C585 H577 0.930 . S
C585 C583 1.419 . S
C585 C586 1.362 . S
C586 H578 0.930 . S
C586 C585 1.362 . S
C586 C589 1.409 . S
C587 H579 0.930 . S
C587 C588 1.355 . S
C587 C589 1.415 . S
C588 C587 1.355 . S
C588 C590 1.419 . S
C589 C584 1.425 . S
C589 C586 1.409 . S
C589 C587 1.415 . S
C590 H580 0.930 . S
C590 C588 1.419 . S
C590 C591 1.362 . S
C591 H581 0.930 . S
C591 C584 1.409 . S
C591 C590 1.362 . S
H592 C598 0.930 . S
H593 C601 0.930 . S
H594 C602 0.930 . S
H595 C603 0.930 . S
H596 C606 0.930 . S
H597 C607 0.930 . S
C598 H592 0.930 . S
C598 C599 1.355 . S
C598 C600 1.415 . S
C599 C598 1.355 . S
C599 C601 1.419 . S
C600 C598 1.415 . S
C600 C605 1.425 . S
C600 C607 1.409 . S
C601 H593 0.930 . S
C601 C599 1.419 . S
C601 C602 1.362 . S
C602 H594 0.930 . S
C602 C601 1.362 . S
C602 C605 1.409 . S
C603 H595 0.930 . S
C603 C604 1.355 . S
C603 C605 1.415 . S
C604 C603 1.355 . S
C604 C606 1.419 . S
C605 C600 1.425 . S
C605 C602 1.409 . S
C605 C603 1.415 . S
C606 H596 0.930 . S
C606 C604 1.419 . S
C606 C607 1.362 . S
C607 H597 0.930 . S
C607 C600 1.409 . S
C607 C606 1.362 . S
H608 C614 0.930 . S
H609 C617 0.930 . S
H610 C618 0.930 . S
H611 C619 0.930 . S
H612 C622 0.930 . S
H613 C623 0.930 . S
C614 H608 0.930 . S
C614 C615 1.355 . S
C614 C616 1.415 . S
C615 C614 1.355 . S
C615 C617 1.419 . S
C616 C614 1.415 . S
C616 C621 1.425 . S
C616 C623 1.409 . S
C617 H609 0.930 . S
C617 C615 1.419 . S
C617 C618 1.362 . S
C618 H610 0.930 . S
C618 C617 1.362 . S
C618 C621 1.409 . S
C619 H611 0.930 . S
C619 C620 1.355 . S
C619 C621 1.415 . S
C620 C619 1.355 . S
C620 C622 1.419 . S
C621 C616 1.425 . S
C621 C618 1.409 . S
C621 C619 1.415 . S
C622 H612 0.930 . S
C622 C620 1.419 . S
C622 C623 1.362 . S
C623 H613 0.930 . S
C623 C616 1.409 . S
C623 C622 1.362 . S
H624 C630 0.930 . S
H625 C633 0.930 . S
H626 C634 0.930 . S
H627 C635 0.930 . S
H628 C638 0.930 . S
H629 C639 0.930 . S
C630 H624 0.930 . S
C630 C631 1.355 . S
C630 C632 1.415 . S
C631 C630 1.355 . S
C631 C633 1.419 . S
C632 C630 1.415 . S
C632 C637 1.425 . S
C632 C639 1.409 . S
C633 H625 0.930 . S
C633 C631 1.419 . S
C633 C634 1.362 . S
C634 H626 0.930 . S
C634 C633 1.362 . S
C634 C637 1.409 . S
C635 H627 0.930 . S
C635 C636 1.355 . S
C635 C637 1.415 . S
C636 C635 1.355 . S
C636 C638 1.419 . S
C637 C632 1.425 . S
C637 C634 1.409 . S
C637 C635 1.415 . S
C638 H628 0.930 . S
C638 C636 1.419 . S
C638 C639 1.362 . S
C639 H629 0.930 . S
C639 C632 1.409 . S
C639 C638 1.362 . S
H640 C646 0.930 . S
H641 C649 0.930 . S
H642 C650 0.930 . S
H643 C651 0.930 . S
H644 C654 0.930 . S
H645 C655 0.930 . S
C646 H640 0.930 . S
C646 C647 1.355 . S
C646 C648 1.415 . S
C647 C646 1.355 . S
C647 C649 1.419 . S
C648 C646 1.415 . S
C648 C653 1.425 . S
C648 C655 1.409 . S
C649 H641 0.930 . S
C649 C647 1.419 . S
C649 C650 1.362 . S
C650 H642 0.930 . S
C650 C649 1.362 . S
C650 C653 1.409 . S
C651 H643 0.930 . S
C651 C652 1.355 . S
C651 C653 1.415 . S
C652 C651 1.355 . S
C652 C654 1.419 . S
C653 C648 1.425 . S
C653 C650 1.409 . S
C653 C651 1.415 . S
C654 H644 0.930 . S
C654 C652 1.419 . S
C654 C655 1.362 . S
C655 H645 0.930 . S
C655 C648 1.409 . S
C655 C654 1.362 . S
H656 C662 0.930 . S
H657 C665 0.930 . S
H658 C666 0.930 . S
H659 C667 0.930 . S
H660 C670 0.930 . S
H661 C671 0.930 . S
C662 H656 0.930 . S
C662 C663 1.355 . S
C662 C664 1.415 . S
C663 C662 1.355 . S
C663 C665 1.419 . S
C664 C662 1.415 . S
C664 C669 1.425 . S
C664 C671 1.409 . S
C665 H657 0.930 . S
C665 C663 1.419 . S
C665 C666 1.362 . S
C666 H658 0.930 . S
C666 C665 1.362 . S
C666 C669 1.409 . S
C667 H659 0.930 . S
C667 C668 1.355 . S
C667 C669 1.415 . S
C668 C667 1.355 . S
C668 C670 1.419 . S
C669 C664 1.425 . S
C669 C666 1.409 . S
C669 C667 1.415 . S
C670 H660 0.930 . S
C670 C668 1.419 . S
C670 C671 1.362 . S
C671 H661 0.930 . S
C671 C664 1.409 . S
C671 C670 1.362 . S
H672 C678 0.930 . S
H673 C681 0.930 . S
H674 C682 0.930 . S
H675 C683 0.930 . S
H676 C686 0.930 . S
H677 C687 0.930 . S
C678 H672 0.930 . S
C678 C679 1.355 . S
C678 C680 1.415 . S
C679 C678 1.355 . S
C679 C681 1.419 . S
C680 C678 1.415 . S
C680 C685 1.425 . S
C680 C687 1.409 . S
C681 H673 0.930 . S
C681 C679 1.419 . S
C681 C682 1.362 . S
C682 H674 0.930 . S
C682 C681 1.362 . S
C682 C685 1.409 . S
C683 H675 0.930 . S
C683 C684 1.355 . S
C683 C685 1.415 . S
C684 C683 1.355 . S
C684 C686 1.419 . S
C685 C680 1.425 . S
C685 C682 1.409 . S
C685 C683 1.415 . S
C686 H676 0.930 . S
C686 C684 1.419 . S
C686 C687 1.362 . S
C687 H677 0.930 . S
C687 C680 1.409 . S
C687 C686 1.362 . S
H688 C694 0.930 . S
H689 C697 0.930 . S
H690 C698 0.930 . S
H691 C699 0.930 . S
H692 C702 0.930 . S
H693 C703 0.930 . S
C694 H688 0.930 . S
C694 C695 1.355 . S
C694 C696 1.415 . S
C695 C694 1.355 . S
C695 C697 1.419 . S
C696 C694 1.415 . S
C696 C701 1.425 . S
C696 C703 1.409 . S
C697 H689 0.930 . S
C697 C695 1.419 . S
C697 C698 1.362 . S
C698 H690 0.930 . S
C698 C697 1.362 . S
C698 C701 1.409 . S
C699 H691 0.930 . S
C699 C700 1.355 . S
C699 C701 1.415 . S
C700 C699 1.355 . S
C700 C702 1.419 . S
C701 C696 1.425 . S
C701 C698 1.409 . S
C701 C699 1.415 . S
C702 H692 0.930 . S
C702 C700 1.419 . S
C702 C703 1.362 . S
C703 H693 0.930 . S
C703 C696 1.409 . S
C703 C702 1.362 . S
H704 C710 0.930 . S
H705 C713 0.930 . S
H706 C714 0.930 . S
H707 C715 0.930 . S
H708 C718 0.930 . S
H709 C719 0.930 . S
C710 H704 0.930 . S
C710 C711 1.355 . S
C710 C712 1.415 . S
C711 C710 1.355 . S
C711 C713 1.419 . S
C712 C710 1.415 . S
C712 C717 1.425 . S
C712 C719 1.409 . S
C713 H705 0.930 . S
C713 C711 1.419 . S
C713 C714 1.362 . S
C714 H706 0.930 . S
C714 C713 1.362 . S
C714 C717 1.409 . S
C715 H707 0.930 . S
C715 C716 1.355 . S
C715 C717 1.415 . S
C716 C715 1.355 . S
C716 C718 1.419 . S
C717 C712 1.425 . S
C717 C714 1.409 . S
C717 C715 1.415 . S
C718 H708 0.930 . S
C718 C716 1.419 . S
C718 C719 1.362 . S
C719 H709 0.930 . S
C719 C712 1.409 . S
C719 C718 1.362 . S
C215 C4 1.605 . S
C220 C166 1.616 . S
C231 C173 1.602 . S
C236 C23 1.607 . S
C247 C36 1.605 . S
C252 C192 1.612 . S
C263 C199 1.616 . S
C268 C43 1.605 . S
C279 C108 1.609 . S
C284 C62 1.612 . S
C295 C69 1.586 . S
C300 C121 1.617 . S
C311 C140 1.616 . S
C316 C88 1.593 . S
C327 C101 1.611 . S
C332 C153 1.605 . S
C343 C3 1.628 . S
C348 C31 1.626 . S
C359 C18 1.653 . S
C364 C42 1.654 . S
C375 C55 1.625 . S
C380 C81 1.631 . S
C391 C70 1.624 . S
C396 C94 1.630 . S
C407 C135 1.619 . S
C412 C107 1.617 . S
C423 C120 1.644 . S
C428 C148 1.646 . S
C439 C185 1.644 . S
C444 C159 1.645 . S
C455 C174 1.619 . S
C460 C200 1.617 . S
C471 C83 1.495 . S
C476 C5 1.501 . S
C487 C96 1.500 . S
C492 C16 1.504 . S
C503 C29 1.502 . S
C508 C57 1.504 . S
C519 C44 1.485 . S
C524 C68 1.478 . S
C535 C187 1.500 . S
C540 C109 1.504 . S
C551 C122 1.493 . S
C556 C198 1.485 . S
C567 C161 1.477 . S
C572 C133 1.482 . S
C583 C146 1.485 . S
C588 C172 1.488 . S
C599 C10 1.490 . S
C604 C49 1.482 . S
C615 C30 1.490 . S
C620 C17 1.483 . S
C631 C56 1.697 . S
C636 C95 1.697 . S
C647 C75 1.697 . S
C652 C82 1.697 . S
C663 C147 1.487 . S
C668 C114 1.487 . S
C679 C127 1.492 . S
C684 C134 1.478 . S
C695 C205 1.696 . S
C700 C160 1.699 . S
C711 C179 1.697 . S
C716 C186 1.698 . S
