# Generated by pormake.
# Topology und, (4)-cn, num edge types: 1
# Building blocks:
#     Node 0, Type 0, BuildingBlock: NAHDIM_clean_sbu_0, # of connection points: 4
#     Node 1, Type 0, BuildingBlock: NAHDIM_clean_sbu_0, # of connection points: 4
#     Node 2, Type 0, BuildingBlock: NAHDIM_clean_sbu_0, # of connection points: 4
#     Node 3, Type 0, BuildingBlock: NAHDIM_clean_sbu_0, # of connection points: 4
#     Node 4, Type 0, BuildingBlock: NAHDIM_clean_sbu_0, # of connection points: 4
#     Node 5, Type 0, BuildingBlock: NAHDIM_clean_sbu_0, # of connection points: 4
#     Node 6, Type 0, BuildingBlock: NAHDIM_clean_sbu_0, # of connection points: 4
#     Node 7, Type 0, BuildingBlock: NAHDIM_clean_sbu_0, # of connection points: 4
#     Node 8, Type 0, BuildingBlock: NAHDIM_clean_sbu_0, # of connection points: 4
#     Node 9, Type 0, BuildingBlock: NAHDIM_clean_sbu_0, # of connection points: 4
#     Node 10, Type 0, BuildingBlock: NAHDIM_clean_sbu_0, # of connection points: 4
#     Node 11, Type 0, BuildingBlock: NAHDIM_clean_sbu_0, # of connection points: 4
#     Node 12, Type 0, BuildingBlock: NAHDIM_clean_sbu_0, # of connection points: 4
#     Node 13, Type 0, BuildingBlock: NAHDIM_clean_sbu_0, # of connection points: 4
#     Node 14, Type 0, BuildingBlock: NAHDIM_clean_sbu_0, # of connection points: 4
#     Node 15, Type 0, BuildingBlock: NAHDIM_clean_sbu_0, # of connection points: 4
#     Edge 16, Type (0, 0), BuildingBlock: TEMPAE_clean_linker_10, # of connection points: 2
#     Edge 17, Type (0, 0), BuildingBlock: TEMPAE_clean_linker_10, # of connection points: 2
#     Edge 18, Type (0, 0), BuildingBlock: TEMPAE_clean_linker_10, # of connection points: 2
#     Edge 19, Type (0, 0), BuildingBlock: TEMPAE_clean_linker_10, # of connection points: 2
#     Edge 20, Type (0, 0), BuildingBlock: TEMPAE_clean_linker_10, # of connection points: 2
#     Edge 21, Type (0, 0), BuildingBlock: TEMPAE_clean_linker_10, # of connection points: 2
#     Edge 22, Type (0, 0), BuildingBlock: TEMPAE_clean_linker_10, # of connection points: 2
#     Edge 23, Type (0, 0), BuildingBlock: TEMPAE_clean_linker_10, # of connection points: 2
#     Edge 24, Type (0, 0), BuildingBlock: TEMPAE_clean_linker_10, # of connection points: 2
#     Edge 25, Type (0, 0), BuildingBlock: TEMPAE_clean_linker_10, # of connection points: 2
#     Edge 26, Type (0, 0), BuildingBlock: TEMPAE_clean_linker_10, # of connection points: 2
#     Edge 27, Type (0, 0), BuildingBlock: TEMPAE_clean_linker_10, # of connection points: 2
#     Edge 28, Type (0, 0), BuildingBlock: TEMPAE_clean_linker_10, # of connection points: 2
#     Edge 29, Type (0, 0), BuildingBlock: TEMPAE_clean_linker_10, # of connection points: 2
#     Edge 30, Type (0, 0), BuildingBlock: TEMPAE_clean_linker_10, # of connection points: 2
#     Edge 31, Type (0, 0), BuildingBlock: TEMPAE_clean_linker_10, # of connection points: 2
#     Edge 32, Type (0, 0), BuildingBlock: TEMPAE_clean_linker_10, # of connection points: 2
#     Edge 33, Type (0, 0), BuildingBlock: TEMPAE_clean_linker_10, # of connection points: 2
#     Edge 34, Type (0, 0), BuildingBlock: TEMPAE_clean_linker_10, # of connection points: 2
#     Edge 35, Type (0, 0), BuildingBlock: TEMPAE_clean_linker_10, # of connection points: 2
#     Edge 36, Type (0, 0), BuildingBlock: TEMPAE_clean_linker_10, # of connection points: 2
#     Edge 37, Type (0, 0), BuildingBlock: TEMPAE_clean_linker_10, # of connection points: 2
#     Edge 38, Type (0, 0), BuildingBlock: TEMPAE_clean_linker_10, # of connection points: 2
#     Edge 39, Type (0, 0), BuildingBlock: TEMPAE_clean_linker_10, # of connection points: 2
#     Edge 40, Type (0, 0), BuildingBlock: TEMPAE_clean_linker_10, # of connection points: 2
#     Edge 41, Type (0, 0), BuildingBlock: TEMPAE_clean_linker_10, # of connection points: 2
#     Edge 42, Type (0, 0), BuildingBlock: TEMPAE_clean_linker_10, # of connection points: 2
#     Edge 43, Type (0, 0), BuildingBlock: TEMPAE_clean_linker_10, # of connection points: 2
#     Edge 44, Type (0, 0), BuildingBlock: TEMPAE_clean_linker_10, # of connection points: 2
#     Edge 45, Type (0, 0), BuildingBlock: TEMPAE_clean_linker_10, # of connection points: 2
#     Edge 46, Type (0, 0), BuildingBlock: TEMPAE_clean_linker_10, # of connection points: 2
#     Edge 47, Type (0, 0), BuildingBlock: TEMPAE_clean_linker_10, # of connection points: 2
# Relax obj value: 0.114
# Max RMSD: 0.175
# Mean RMSD: 0.175
data_MOF--net-und--node1-NAHDIM_clean_sbu_0--edge1-TEMPAE_clean_linker_10
_symmetry_space_group_name_H-M    P1
_symmetry_Int_Tables_number       1
_symmetry_cell_setting            triclinic
loop_
_symmetry_equiv_pos_as_xyz
'x, y, z'
_cell_length_a     60.494928
_cell_length_b     60.527559
_cell_length_c     21.637194
_cell_angle_alpha  90.024675
_cell_angle_beta   90.013342
_cell_angle_gamma 96.774084
loop_
_atom_site_label
_atom_site_type_symbol
_atom_site_fract_x
_atom_site_fract_y
_atom_site_fract_z
_atom_type_partial_charge
C0 C 0.21196 0.38539 0.07579 0.0
O1 O 0.22308 0.39472 0.02857 0.0
O2 O 0.25985 0.34646 0.16244 0.0
Zn3 Zn 0.24856 0.35834 0.08358 0.0
O4 O 0.27045 0.38328 0.05073 0.0
C5 C 0.24495 0.31317 0.03617 0.0
O6 O 0.24461 0.30773 0.09493 0.0
O7 O 0.21943 0.36938 0.10373 0.0
C8 C 0.28417 0.37924 0.00887 0.0
O9 O 0.28405 0.35875 0.98874 0.0
C10 C 0.27808 0.3381 0.16692 0.0
O11 O 0.29143 0.33876 0.1189 0.0
O12 O 0.24495 0.33345 0.02087 0.0
C13 C 0.86167 0.02332 0.22135 0.0
O14 O 0.85847 0.0046 0.19003 0.0
O15 O 0.91405 0.0065 0.16818 0.0
Zn16 Zn 0.89999 0.00387 0.25203 0.0
O17 O 0.88265 0.97391 0.26901 0.0
C18 C 0.94329 0.0043 0.30467 0.0
O19 O 0.94686 0.99492 0.25143 0.0
O20 O 0.87891 0.02701 0.25507 0.0
C21 C 0.88971 0.95979 0.30537 0.0
O22 O 0.90979 0.96389 0.32888 0.0
C23 C 0.91823 0.9911 0.1317 0.0
O24 O 0.91236 0.97024 0.14712 0.0
O25 O 0.92417 0.01015 0.3157 0.0
C26 C 0.31235 0.66311 0.4537 0.0
O27 O 0.29746 0.65142 0.41893 0.0
O28 O 0.27601 0.71933 0.50503 0.0
Zn29 Zn 0.28089 0.69492 0.44609 0.0
O30 O 0.25539 0.67058 0.45008 0.0
C31 C 0.28547 0.72708 0.34671 0.0
O32 O 0.29548 0.7405 0.38847 0.0
O33 O 0.30931 0.68283 0.46854 0.0
C34 C 0.23702 0.67464 0.42672 0.0
O35 O 0.23517 0.69484 0.40677 0.0
C36 C 0.26959 0.71512 0.56005 0.0
O37 O 0.26579 0.6943 0.57816 0.0
O38 O 0.28006 0.70675 0.36001 0.0
C39 C 0.60954 0.00051 0.70709 0.0
O40 O 0.61304 0.01948 0.67713 0.0
O41 O 0.55996 0.02151 0.65802 0.0
Zn42 Zn 0.57369 0.02215 0.74216 0.0
O43 O 0.59332 0.05071 0.76016 0.0
C44 C 0.53107 0.02608 0.79379 0.0
O45 O 0.52877 0.03545 0.7398 0.0
O46 O 0.59278 -0.00278 0.74277 0.0
C47 C 0.58663 0.06673 0.79018 0.0
O48 O 0.56565 0.06555 0.80668 0.0
C49 C 0.55987 0.03736 0.61971 0.0
O50 O 0.56995 0.05714 0.63387 0.0
O51 O 0.54915 0.0181 0.80572 0.0
C52 C 0.76109 0.65026 0.95508 0.0
O53 O 0.74346 0.64654 0.91942 0.0
O54 O 0.7227 0.68808 0.93294 0.0
Zn55 Zn 0.73143 0.67559 0.0139 0.0
O56 O 0.70813 0.65142 0.04332 0.0
C57 C 0.73661 0.72082 0.06226 0.0
O58 O 0.73943 0.72662 0.00406 0.0
O59 O 0.76028 0.66289 0.00176 0.0
C60 C 0.70574 0.64817 0.10112 0.0
O61 O 0.71855 0.66063 0.13966 0.0
C62 C 0.70576 0.69849 0.92758 0.0
O63 O 0.69243 0.69946 0.9752 0.0
O64 O 0.73421 0.70033 0.0768 0.0
C65 C 0.1051 0.00671 0.82548 0.0
O66 O 0.10157 0.02192 0.86651 0.0
O67 O 0.05314 0.03013 0.81783 0.0
Zn68 Zn 0.07739 0.0316 0.75395 0.0
O69 O 0.0964 0.06107 0.75311 0.0
C70 C 0.05182 0.0084 0.65712 0.0
O71 O 0.04975 0.99219 0.69788 0.0
O72 O 0.09642 0.00748 0.77219 0.0
C73 C 0.09103 0.07699 0.72019 0.0
O74 O 0.07197 0.07447 0.69039 0.0
C75 C 0.03323 0.03286 0.80388 0.0
O76 O 0.02861 0.03856 0.74718 0.0
O77 O 0.06356 0.02654 0.67054 0.0
C78 C 0.70766 0.35557 0.4912 0.0
O79 O 0.70917 0.33443 0.48048 0.0
O80 O 0.75865 0.33515 0.47016 0.0
Zn81 Zn 0.7504 0.3526 0.54339 0.0
O82 O 0.77534 0.37491 0.5719 0.0
C83 C 0.76355 0.32083 0.61899 0.0
O84 O 0.78063 0.32661 0.58255 0.0
O85 O 0.72302 0.36686 0.52179 0.0
C86 C 0.78423 0.39255 0.54598 0.0
O87 O 0.777 0.39823 0.49167 0.0
C88 C 0.7564 0.34004 0.41365 0.0
O89 O 0.7503 0.35949 0.39891 0.0
O90 O 0.74603 0.33032 0.61206 0.0
C91 C 0.37422 0.04101 0.33052 0.0
O92 O 0.37826 0.02309 0.36077 0.0
O93 O 0.42467 0.01853 0.30433 0.0
Zn94 Zn 0.39944 0.02026 0.24509 0.0
O95 O 0.37964 0.99136 0.24021 0.0
C96 C 0.42725 0.04236 0.14901 0.0
O97 O 0.43402 0.0565 0.19311 0.0
O98 O 0.38171 0.04396 0.27589 0.0
C99 C 0.38559 0.97563 0.20763 0.0
O100 O 0.40535 0.97815 0.18162 0.0
C101 C 0.44371 0.01362 0.28841 0.0
O102 O 0.44711 0.00788 0.23095 0.0
O103 O 0.41189 0.02676 0.16047 0.0
C104 C 0.70422 0.88142 0.5856 0.0
O105 O 0.72106 0.87678 0.61964 0.0
O106 O 0.71666 0.82336 0.56985 0.0
Zn107 Zn 0.72132 0.84921 0.5115 0.0
O108 O 0.75282 0.86393 0.5123 0.0
C109 C 0.70316 0.82109 0.40996 0.0
O110 O 0.6889 0.81197 0.45098 0.0
O111 O 0.70062 0.87148 0.53418 0.0
C112 C 0.76746 0.854 0.48511 0.0
O113 O 0.7619 0.83368 0.46453 0.0
C114 C 0.72881 0.82138 0.61688 0.0
O115 O 0.74558 0.83669 0.62817 0.0
O116 O 0.71673 0.8378 0.42522 0.0
C117 C 0.41359 0.57327 0.68613 0.0
O118 O 0.4329 0.56886 0.66462 0.0
O119 O 0.42914 0.52043 0.67467 0.0
Zn120 Zn 0.4168 0.53283 0.75156 0.0
O121 O 0.3927 0.51049 0.78698 0.0
C122 C 0.46174 0.5366 0.7993 0.0
O123 O 0.46705 0.53581 0.74057 0.0
O124 O 0.40393 0.56069 0.72745 0.0
C125 C 0.39729 0.49779 0.83082 0.0
O126 O 0.41778 0.49933 0.85184 0.0
C127 C 0.43569 0.50128 0.67149 0.0
O128 O 0.43275 0.48786 0.71924 0.0
O129 O 0.44162 0.538 0.81428 0.0
C130 C 0.76661 0.14344 0.11332 0.0
O131 O 0.74925 0.14759 0.14595 0.0
O132 O 0.75175 0.20017 0.10559 0.0
Zn133 Zn 0.75145 0.1771 0.03909 0.0
O134 O 0.72071 0.16209 0.02074 0.0
C135 C 0.77425 0.21175 0.96462 0.0
O136 O 0.78191 0.21921 0.01845 0.0
O137 O 0.77119 0.1543 0.06381 0.0
C138 C 0.70869 0.17086 0.98165 0.0
O139 O 0.71596 0.19037 0.9581 0.0
C140 C 0.73548 0.2106 0.11999 0.0
O141 O 0.71594 0.20498 0.09445 0.0
O142 O 0.76241 0.193 0.96187 0.0
C143 C 0.09905 0.46886 0.28549 0.0
O144 O 0.07749 0.46566 0.27557 0.0
O145 O 0.063 0.51129 0.28859 0.0
Zn146 Zn 0.08889 0.50939 0.34521 0.0
O147 O 0.10807 0.53863 0.35048 0.0
C148 C 0.05726 0.49325 0.43807 0.0
O149 O 0.04702 0.48278 0.39108 0.0
O150 O 0.10722 0.48577 0.31628 0.0
C151 C 0.12498 0.54413 0.3167 0.0
O152 O 0.12993 0.53058 0.27268 0.0
C153 C 0.06419 0.51212 0.23009 0.0
O154 O 0.08371 0.51273 0.20313 0.0
O155 O 0.07637 0.50396 0.4299 0.0
C156 C 0.2812 0.15059 0.522 0.0
O157 O 0.26061 0.1504 0.50253 0.0
O158 O 0.27483 0.21472 0.5267 0.0
Zn159 Zn 0.26917 0.18869 0.5841 0.0
O160 O 0.23716 0.17549 0.58016 0.0
C161 C 0.28556 0.21706 0.68656 0.0
O162 O 0.29862 0.22766 0.64499 0.0
O163 O 0.289 0.16557 0.55998 0.0
C164 C 0.22225 0.18495 0.60752 0.0
O165 O 0.22777 0.20437 0.63397 0.0
C166 C 0.26704 0.21369 0.47217 0.0
O167 O 0.25483 0.19544 0.45406 0.0
O168 O 0.27348 0.1993 0.67138 0.0
C169 C 0.61075 0.44826 0.25076 0.0
O170 O 0.62157 0.46383 0.21631 0.0
O171 O 0.55117 0.47904 0.30325 0.0
Zn172 Zn 0.57622 0.47705 0.24398 0.0
O173 O 0.59881 0.50391 0.25145 0.0
C174 C 0.54464 0.47162 0.14264 0.0
O175 O 0.5316 0.46021 0.1828 0.0
O176 O 0.59061 0.44977 0.26479 0.0
C177 C 0.59262 0.52278 0.23931 0.0
O178 O 0.57145 0.52405 0.2281 0.0
C179 C 0.55514 0.48377 0.35962 0.0
O180 O 0.57591 0.48783 0.37817 0.0
O181 O 0.56459 0.47837 0.15756 0.0
C182 C 0.20676 0.89061 0.92019 0.0
O183 O 0.22737 0.89399 0.90001 0.0
O184 O 0.23275 0.84046 0.88273 0.0
Zn185 Zn 0.22482 0.8535 0.96408 0.0
O186 O 0.25161 0.8723 -0.0006 0.0
C187 C 0.21686 0.80839 0.00832 0.0
O188 O 0.21785 0.80352 0.94934 0.0
O189 O 0.20069 0.87307 0.95102 0.0
C190 C 0.26376 0.86496 0.04086 0.0
O191 O 0.25913 0.8444 0.06041 0.0
C192 C 0.25177 0.83401 0.87453 0.0
O193 O 0.26687 0.83759 0.91817 0.0
O194 O 0.21653 0.82855 0.02449 0.0
C195 C 0.8844 0.55531 0.88886 0.0
O196 O 0.88223 0.53637 0.91923 0.0
O197 O 0.92973 0.52765 0.92689 0.0
Zn198 Zn 0.91724 0.53255 0.84268 0.0
O199 O 0.89563 0.50681 0.81323 0.0
C200 C 0.96026 0.52794 0.79345 0.0
O201 O 0.96217 0.51886 0.84791 0.0
O202 O 0.8999 0.55876 0.84912 0.0
C203 C 0.9016 0.49134 0.77959 0.0
O204 O 0.92285 0.49081 0.76825 0.0
C205 C 0.93133 0.50899 0.95221 0.0
O206 O 0.92272 0.49066 0.92439 0.0
O207 O 0.94262 0.53665 0.78089 0.0
C208 C 0.26632 0.32224 0.26968 0.0
C209 C 0.28135 0.32348 0.22009 0.0
C210 C 0.26625 0.30553 0.31446 0.0
C211 C 0.28167 0.28978 0.30972 0.0
C212 C 0.29797 0.29193 0.26248 0.0
C213 C 0.29761 0.30879 0.21808 0.0
C214 C 0.24866 0.30386 0.36434 0.0
C215 C 0.31486 0.27558 0.25644 0.0
C216 C 0.28584 0.25177 0.44768 0.0
C217 C 0.27154 0.23287 0.42984 0.0
C218 C 0.28982 0.27025 0.4084 0.0
C219 C 0.27914 0.26985 0.3502 0.0
C220 C 0.26499 0.25069 0.33154 0.0
C221 C 0.26141 0.23241 0.37153 0.0
C222 C 0.30514 0.29034 0.42954 0.0
C223 C 0.25323 0.24967 0.2698 0.0
H224 H 0.25383 0.33368 0.27196 0.0
H225 H 0.30935 0.30969 0.18007 0.0
H226 H 0.2366 0.28885 0.3563 0.0
H227 H 0.25628 0.30202 0.41039 0.0
H228 H 0.23938 0.31864 0.3653 0.0
H229 H 0.32822 0.28131 0.2229 0.0
H230 H 0.32257 0.2728 0.30186 0.0
H231 H 0.30641 0.25931 0.24045 0.0
H232 H 0.29384 0.2522 0.49256 0.0
H233 H 0.2504 0.21786 0.35735 0.0
H234 H 0.29561 0.30481 0.43449 0.0
H235 H 0.31828 0.29485 0.39447 0.0
H236 H 0.31323 0.28748 0.47448 0.0
H237 H 0.24189 0.26279 0.26753 0.0
H238 H 0.24333 0.23329 0.26149 0.0
H239 H 0.26552 0.25293 0.23189 0.0
C240 C 0.98123 -0.00172 0.34164 0.0
C241 C 0.96061 0.00594 0.35316 0.0
C242 C -0.00266 -0.00156 0.38826 0.0
C243 C 0.9927 0.00646 0.44768 0.0
C244 C 0.9721 0.0146 0.45932 0.0
C245 C 0.95629 0.01425 0.41186 0.0
C246 C 0.01917 0.9897 0.37423 0.0
C247 C 0.96664 0.02337 0.52218 0.0
C248 C 0.02306 0.98804 0.58839 0.0
C249 C 0.03829 0.00688 0.60008 0.0
C250 C 0.0085 0.98744 0.53781 0.0
C251 C 0.00924 0.00611 0.49816 0.0
C252 C 0.02512 0.02483 0.50839 0.0
C253 C 0.03947 0.02499 0.55923 0.0
C254 C 0.99182 0.96713 0.52802 0.0
C255 C 0.02643 0.04501 0.4669 0.0
H256 H 0.98471 0.99187 0.29636 0.0
H257 H 0.9404 0.0202 0.42109 0.0
H258 H 0.03327 0.00259 0.38478 0.0
H259 H 0.02109 0.97513 0.40405 0.0
H260 H 0.02042 0.9846 0.32514 0.0
H261 H 0.95005 0.02953 0.52325 0.0
H262 H 0.96686 0.01004 0.55729 0.0
H263 H 0.97943 0.03716 0.53589 0.0
H264 H 0.02208 0.97398 0.61966 0.0
H265 H 0.05126 0.03959 0.56782 0.0
H266 H 0.99308 0.96078 0.48019 0.0
H267 H 0.9747 0.97165 0.53391 0.0
H268 H 0.99425 0.95353 0.56089 0.0
H269 H 0.02819 0.04005 0.41795 0.0
H270 H 0.04061 0.05765 0.47901 0.0
H271 H 0.01079 0.05282 0.47053 0.0
C272 C 0.25918 0.72905 0.66361 0.0
C273 C 0.26696 0.73354 0.60337 0.0
C274 C 0.25696 0.74638 0.70536 0.0
C275 C 0.26273 0.7687 0.68641 0.0
C276 C 0.27051 0.77336 0.62564 0.0
C277 C 0.2725 0.75572 0.58477 0.0
C278 C 0.2485 0.74079 0.76984 0.0
C279 C 0.27686 0.79697 0.60394 0.0
C280 C 0.23807 0.8126 0.78053 0.0
C281 C 0.25548 0.81937 0.82172 0.0
C282 C 0.24042 0.79653 0.73505 0.0
C283 C 0.26068 0.78713 0.73053 0.0
C284 C 0.27863 0.79458 0.77018 0.0
C285 C 0.27581 0.81062 0.81538 0.0
C286 C 0.22091 0.78901 0.69346 0.0
C287 C 0.30056 0.78502 0.76636 0.0
H288 H 0.25483 0.71197 0.67828 0.0
H289 H 0.27855 0.75934 0.53829 0.0
H290 H 0.26118 0.74734 0.80438 0.0
H291 H 0.2333 0.7489 0.77893 0.0
H292 H 0.24452 0.72259 0.77708 0.0
H293 H 0.28251 0.79777 0.55505 0.0
H294 H 0.26246 0.80662 0.60857 0.0
H295 H 0.29042 0.80523 0.63336 0.0
H296 H 0.2223 0.81929 0.78505 0.0
H297 H 0.28937 0.81581 0.84688 0.0
H298 H 0.21496 0.77128 0.7028 0.0
H299 H 0.22609 0.79024 0.64428 0.0
H300 H 0.20681 0.79896 0.70031 0.0
H301 H 0.29806 0.76713 0.77885 0.0
H302 H 0.31332 0.79366 0.7977 0.0
H303 H 0.30703 0.78619 0.71836 0.0
C304 C 0.43496 0.02421 0.0489 0.0
C305 C 0.44003 0.04179 0.09086 0.0
C306 C 0.44867 0.02157 -0.00211 0.0
C307 C 0.46781 0.03698 0.9883 0.0
C308 C 0.47248 0.05532 0.02878 0.0
C309 C 0.45855 0.05749 0.07974 0.0
C310 C 0.44315 0.00179 0.95572 0.0
C311 C 0.49264 0.07223 0.01951 0.0
C312 C 0.51663 0.01815 0.90086 0.0
C313 C 0.51412 0.02751 0.8424 0.0
C314 C 0.50148 0.02088 0.94856 0.0
C315 C 0.48349 0.03335 0.93753 0.0
C316 C 0.48062 0.04249 0.87835 0.0
C317 C 0.49593 0.0394 0.83142 0.0
C318 C 0.50492 0.01069 0.01104 0.0
C319 C 0.46165 0.05591 0.86497 0.0
H320 H 0.42066 0.01199 0.05704 0.0
H321 H 0.46255 0.07113 0.11181 0.0
H322 H 0.44255 0.00732 0.90695 0.0
H323 H 0.4564 0.99063 0.95902 0.0
H324 H 0.42696 0.99207 0.96748 0.0
H325 H 0.49312 0.0863 0.05265 0.0
H326 H 0.50802 0.0641 0.02546 0.0
H327 H 0.49284 0.07896 0.9718 0.0
H328 H 0.53061 0.00892 0.90966 0.0
H329 H 0.49387 0.04672 0.78639 0.0
H330 H 0.48981 -0.00043 0.02466 0.0
H331 H 0.50765 0.02398 0.04651 0.0
H332 H 0.51938 0.00095 0.01154 0.0
H333 H 0.4455 0.04593 0.87542 0.0
H334 H 0.46147 0.06145 0.81605 0.0
H335 H 0.46295 0.07081 0.89523 0.0
C336 C 0.21815 0.79525 0.11736 0.0
C337 C 0.22295 0.79234 0.05477 0.0
C338 C 0.22742 0.78272 0.16304 0.0
C339 C 0.24229 0.76741 0.1456 0.0
C340 C 0.24645 0.76375 0.08231 0.0
C341 C 0.23648 0.77608 0.03756 0.0
C342 C 0.22206 0.78656 0.23006 0.0
C343 C 0.26252 0.74789 0.06197 0.0
C344 C 0.28495 0.75706 0.26754 0.0
C345 C 0.27609 0.73628 0.29063 0.0
C346 C 0.27451 0.76702 0.21868 0.0
C347 C 0.25443 0.75619 0.19373 0.0
C348 C 0.24564 0.73503 0.21615 0.0
C349 C 0.25675 0.72519 0.26375 0.0
C350 C 0.28468 0.78938 0.19476 0.0
C351 C 0.22399 0.72322 0.19177 0.0
H352 H 0.20768 0.80781 0.13071 0.0
H353 H 0.24047 0.77395 0.98923 0.0
H354 H 0.21716 0.77045 0.25368 0.0
H355 H 0.23706 0.79477 0.25391 0.0
H356 H 0.20841 0.79719 0.23542 0.0
H357 H 0.26276 0.74581 0.01096 0.0
H358 H 0.27957 0.75423 0.07761 0.0
H359 H 0.25817 0.73132 0.08348 0.0
H360 H 0.2999 0.76564 0.28818 0.0
H361 H 0.24966 0.70921 0.28188 0.0
H362 H 0.27346 0.80215 0.20487 0.0
H363 H 0.28668 0.78875 0.14382 0.0
H364 H 0.30118 0.79477 0.21588 0.0
H365 H 0.21026 0.73336 0.20156 0.0
H366 H 0.21978 0.70652 0.21285 0.0
H367 H 0.22485 0.72127 0.14089 0.0
C368 C 0.4842 0.01474 0.31399 0.0
C369 C 0.46228 0.01625 0.33323 0.0
C370 C 0.50203 0.01838 0.35575 0.0
C371 C 0.49774 0.02351 0.4181 0.0
C372 C 0.47565 0.02488 0.43783 0.0
C373 C 0.4582 0.02126 0.39515 0.0
C374 C 0.52541 0.01681 0.33322 0.0
C375 C 0.4704 0.03013 0.50414 0.0
C376 C 0.53671 0.01218 0.54772 0.0
C377 C 0.54637 0.03373 0.56287 0.0
C378 C 0.52166 0.0085 0.49861 0.0
C379 C 0.51615 0.02681 0.46371 0.0
C380 C 0.52674 0.04846 0.47648 0.0
C381 C 0.54178 0.05168 0.52604 0.0
C382 C 0.51077 0.98514 0.48629 0.0
C383 C 0.52135 0.06836 0.43984 0.0
H384 H 0.48749 0.011 0.26611 0.0
H385 H 0.44131 0.02245 0.4104 0.0
H386 H 0.53603 0.03273 0.34202 0.0
H387 H 0.53279 0.00367 0.35913 0.0
H388 H 0.52595 0.01297 0.28306 0.0
H389 H 0.45234 0.0308 0.51179 0.0
H390 H 0.476 0.01733 0.53525 0.0
H391 H 0.47955 0.04638 0.51768 0.0
H392 H 0.54036 -0.00185 0.57549 0.0
H393 H 0.54926 0.06836 0.53728 0.0
H394 H 0.51195 0.981 0.43656 0.0
H395 H 0.49282 0.98398 0.49811 0.0
H396 H 0.51841 0.97251 0.51374 0.0
H397 H 0.52239 0.06505 0.38956 0.0
H398 H 0.53272 0.08361 0.4511 0.0
H399 H 0.50403 0.07156 0.44987 0.0
C400 C 0.26128 0.22161 0.77773 0.0
C401 C 0.28121 0.22798 0.74573 0.0
C402 C 0.255 0.23397 0.8282 0.0
C403 C 0.26922 0.25287 0.84802 0.0
C404 C 0.28997 0.25861 0.81829 0.0
C405 C 0.29562 0.24622 0.767 0.0
C406 C 0.2326 0.22752 0.85804 0.0
C407 C 0.3058 0.27837 0.83912 0.0
C408 C 0.24465 0.30043 0.92645 0.0
C409 C 0.24914 0.29661 0.98879 0.0
C410 C 0.25059 0.28595 0.88034 0.0
C411 C 0.26173 0.26752 0.89696 0.0
C412 C 0.26601 0.26338 0.95993 0.0
C413 C 0.25944 0.27787 0.00523 0.0
C414 C 0.24529 0.29061 0.81372 0.0
C415 C 0.27819 0.24412 0.97928 0.0
H416 H 0.24997 0.20759 0.76142 0.0
H417 H 0.31107 0.25114 0.74264 0.0
H418 H 0.23443 0.22599 0.90879 0.0
H419 H 0.22171 0.24075 0.84963 0.0
H420 H 0.22414 0.21156 0.83973 0.0
H421 H 0.32214 0.27926 0.81529 0.0
H422 H 0.29842 0.29395 0.82952 0.0
H423 H 0.30859 0.27762 0.88973 0.0
H424 H 0.23666 0.31488 0.91365 0.0
H425 H 0.26319 0.27499 0.05335 0.0
H426 H 0.2358 0.27571 0.79249 0.0
H427 H 0.26096 0.29433 0.7871 0.0
H428 H 0.23544 0.30489 0.80893 0.0
H429 H 0.26949 0.22826 0.9613 0.0
H430 H 0.27963 0.24282 0.03031 0.0
H431 H 0.29517 0.24613 0.95913 0.0
C432 C 0.99281 0.02582 0.83086 0.0
C433 C 0.01517 0.02756 0.84944 0.0
C434 C 0.97556 0.01947 0.87288 0.0
C435 C 0.98083 0.01496 0.93497 0.0
C436 C 0.00335 0.01694 0.95416 0.0
C437 C 0.02025 0.02314 0.91111 0.0
C438 C 0.95172 0.01745 0.8508 0.0
C439 C 0.0096 0.0125 0.02022 0.0
C440 C 0.93893 0.01941 0.06284 0.0
C441 C 0.9322 0.99695 0.07661 0.0
C442 C 0.95419 0.02549 0.01543 0.0
C443 C 0.96286 0.00872 0.98062 0.0
C444 C 0.95539 0.98604 0.99226 0.0
C445 C 0.94014 0.9804 0.04028 0.0
C446 C 0.96174 0.04986 0.00442 0.0
C447 C 0.96416 0.96772 0.95557 0.0
H448 H 0.98876 0.02906 0.78317 0.0
H449 H 0.03749 0.02446 0.92581 0.0
H450 H 0.94355 0.00033 0.85914 0.0
H451 H 0.94231 0.02894 0.87735 0.0
H452 H 0.95045 0.0213 0.80082 0.0
H453 H 0.0279 0.01475 0.0276 0.0
H454 H 0.00195 0.02388 0.0518 0.0
H455 H 0.00305 0.99525 0.03336 0.0
H456 H 0.93277 0.03235 0.09035 0.0
H457 H 0.93497 0.96303 0.05046 0.0
H458 H 0.95981 0.05405 0.95497 0.0
H459 H 0.97968 0.05352 0.01592 0.0
H460 H 0.95229 0.06086 0.03273 0.0
H461 H 0.9625 0.97076 0.90531 0.0
H462 H 0.95531 0.95106 0.96677 0.0
H463 H 0.98214 0.96756 0.96541 0.0
C464 C 0.71812 0.7116 0.82255 0.0
C465 C 0.70443 0.71347 0.87414 0.0
C466 C 0.72034 0.72806 0.7767 0.0
C467 C 0.70864 0.74685 0.78281 0.0
C468 C 0.69371 0.74813 0.83271 0.0
C469 C 0.69171 0.73135 0.87775 0.0
C470 C 0.73622 0.72596 0.72374 0.0
C471 C 0.68092 0.76791 0.84066 0.0
C472 C 0.73595 0.80081 0.7136 0.0
C473 C 0.72369 0.80224 0.6591 0.0
C474 C 0.73108 0.78291 0.75441 0.0
C475 C 0.71358 0.76601 0.74021 0.0
C476 C 0.70115 0.76732 0.68526 0.0
C477 C 0.70633 0.78545 0.64535 0.0
C478 C 0.74469 0.78208 0.81274 0.0
C479 C 0.68244 0.74955 0.66859 0.0
H480 H 0.72786 0.69771 0.81923 0.0
H481 H 0.68111 0.73292 0.91752 0.0
H482 H 0.72813 0.72903 0.67904 0.0
H483 H 0.75087 0.73871 0.72864 0.0
H484 H 0.74217 0.7093 0.72211 0.0
H485 H 0.66825 0.76526 0.87793 0.0
H486 H 0.69265 0.78283 0.85234 0.0
H487 H 0.67247 0.77153 0.79695 0.0
H488 H 0.74934 0.81373 0.72462 0.0
H489 H 0.69678 0.78642 0.60327 0.0
H490 H 0.75311 0.76676 0.81313 0.0
H491 H 0.73364 0.78142 0.85379 0.0
H492 H 0.75753 0.7967 0.81736 0.0
H493 H 0.68889 0.73319 0.66471 0.0
H494 H 0.67428 0.75312 0.62429 0.0
H495 H 0.66969 0.74804 0.70568 0.0
C496 C 0.75795 0.3003 0.38601 0.0
C497 C 0.75644 0.32223 0.36686 0.0
C498 C 0.75509 0.28259 0.3441 0.0
C499 C 0.75101 0.28692 0.28118 0.0
C500 C 0.75043 0.30908 0.26087 0.0
C501 C 0.753 0.32651 0.30413 0.0
C502 C 0.75566 0.25916 0.36762 0.0
C503 C 0.74656 0.3143 0.19379 0.0
C504 C 0.76097 0.2406 0.17065 0.0
C505 C 0.73926 0.23021 0.1609 0.0
C506 C 0.76496 0.25955 0.20801 0.0
C507 C 0.74686 0.26806 0.23727 0.0
C508 C 0.72488 0.25771 0.22745 0.0
C509 C 0.72133 0.239 0.18884 0.0
C510 C 0.78858 0.27034 0.21666 0.0
C511 C 0.7052 0.26614 0.25878 0.0
H512 H 0.76059 0.29678 0.4344 0.0
H513 H 0.75186 0.34341 0.28899 0.0
H514 H 0.73935 0.24918 0.35912 0.0
H515 H 0.76843 0.251 0.3423 0.0
H516 H 0.75939 0.25868 0.41786 0.0
H517 H 0.74811 0.33249 0.18483 0.0
H518 H 0.75864 0.3068 0.16411 0.0
H519 H 0.72965 0.3069 0.17973 0.0
H520 H 0.7749 0.23406 0.14849 0.0
H521 H 0.70453 0.23103 0.18133 0.0
H522 H 0.79358 0.26902 0.26572 0.0
H523 H 0.78974 0.28832 0.20532 0.0
H524 H 0.80061 0.26256 0.18736 0.0
H525 H 0.70701 0.265 0.30969 0.0
H526 H 0.68914 0.25657 0.24507 0.0
H527 H 0.70461 0.28392 0.24733 0.0
C528 C 0.76591 0.21917 0.85401 0.0
C529 C 0.77559 0.22664 0.91033 0.0
C530 C 0.76429 0.2339 0.80469 0.0
C531 C 0.77253 0.25661 0.81198 0.0
C532 C 0.78304 0.2641 0.86785 0.0
C533 C 0.78451 0.249 0.91635 0.0
C534 C 0.75318 0.22529 0.74548 0.0
C535 C 0.79208 0.28822 0.87712 0.0
C536 C 0.7842 0.29262 0.67004 0.0
C537 C 0.76526 0.30394 0.66746 0.0
C538 C 0.78666 0.27699 0.71645 0.0
C539 C 0.76982 0.27264 0.76153 0.0
C540 C 0.75054 0.28382 0.75895 0.0
C541 C 0.74846 0.29933 0.71174 0.0
C542 C 0.80737 0.26528 0.71755 0.0
C543 C 0.73226 0.27957 0.80649 0.0
H544 H 0.759 0.20191 0.84896 0.0
H545 H 0.79198 0.25491 0.95972 0.0
H546 H 0.73784 0.23331 0.73778 0.0
H547 H 0.76435 0.22963 0.70554 0.0
H548 H 0.74863 0.20696 0.7462 0.0
H549 H 0.80047 0.29119 0.92254 0.0
H550 H 0.80414 0.29372 0.84003 0.0
H551 H 0.7783 0.29876 0.87412 0.0
H552 H 0.79723 0.296 0.6358 0.0
H553 H 0.73381 0.30804 0.70998 0.0
H554 H 0.80276 0.24699 0.71606 0.0
H555 H 0.81662 0.26915 0.76126 0.0
H556 H 0.81867 0.27019 0.67817 0.0
H557 H 0.72574 0.26166 0.80699 0.0
H558 H 0.71822 0.28942 0.79748 0.0
H559 H 0.73902 0.28383 0.85323 0.0
C560 C 0.72499 0.75751 0.09241 0.0
C561 C 0.73314 0.73764 0.10946 0.0
C562 C 0.71939 0.77261 0.13736 0.0
C563 C 0.72251 0.7679 0.2006 0.0
C564 C 0.73143 0.7482 0.21789 0.0
C565 C 0.73639 0.73316 0.17209 0.0
C566 C 0.70954 0.79326 0.11732 0.0
C567 C 0.7355 0.74286 0.28483 0.0
C568 C 0.7271 0.8139 0.32016 0.0
C569 C 0.70666 0.80955 0.35119 0.0
C570 C 0.73224 0.80087 0.26982 0.0
C571 C 0.71637 0.78342 0.24912 0.0
C572 C 0.69521 0.7798 0.27784 0.0
C573 C 0.69069 0.79277 0.3291 0.0
C574 C 0.75512 0.80501 0.24114 0.0
C575 C 0.67767 0.76165 0.25599 0.0
H576 H 0.7222 0.76088 0.04399 0.0
H577 H 0.74274 0.71782 0.18531 0.0
H578 H 0.69257 0.79307 0.13689 0.0
H579 H 0.71969 0.80833 0.13542 0.0
H580 H 0.70849 0.79464 0.06623 0.0
H581 H 0.74352 0.72738 0.29024 0.0
H582 H 0.7463 0.75679 0.30673 0.0
H583 H 0.7195 0.74086 0.3104 0.0
H584 H 0.7396 0.82678 0.33711 0.0
H585 H 0.67484 0.78945 0.35269 0.0
H586 H 0.75382 0.80685 0.19033 0.0
H587 H 0.76432 0.79049 0.24986 0.0
H588 H 0.76503 0.82012 0.26008 0.0
H589 H 0.67542 0.76274 0.20523 0.0
H590 H 0.66136 0.76255 0.27884 0.0
H591 H 0.68312 0.74515 0.26599 0.0
C592 C 0.51494 0.47032 0.06189 0.0
C593 C 0.53514 0.48039 0.08603 0.0
C594 C 0.50458 0.48 0.01234 0.0
C595 C 0.51443 0.50049 0.98749 0.0
C596 C 0.53507 0.51047 0.01083 0.0
C597 C 0.5453 0.50017 0.05936 0.0
C598 C 0.48283 0.46858 0.98761 0.0
C599 C 0.54586 0.53252 0.98642 0.0
C600 C 0.49427 0.51743 0.83031 0.0
C601 C 0.47738 0.53032 0.84681 0.0
C602 C 0.50679 0.50793 0.87561 0.0
C603 C 0.50265 0.51186 0.93878 0.0
C604 C 0.48648 0.5259 0.95557 0.0
C605 C 0.47384 0.53476 0.90935 0.0
C606 C 0.52361 0.49275 0.85591 0.0
C607 C 0.482 0.53095 0.02245 0.0
H608 H 0.50707 0.45502 0.08229 0.0
H609 H 0.56081 0.50819 0.07826 0.0
H610 H 0.46928 0.47899 -0.00303 0.0
H611 H 0.48385 0.46656 0.93675 0.0
H612 H 0.47826 0.45195 0.00878 0.0
H613 H 0.56237 0.53761 0.00782 0.0
H614 H 0.54799 0.53169 0.9356 0.0
H615 H 0.53492 0.54562 0.99581 0.0
H616 H 0.49692 0.51372 0.78204 0.0
H617 H 0.46082 0.54474 0.92222 0.0
H618 H 0.51815 0.47557 0.87202 0.0
H619 H 0.54001 0.49806 0.87748 0.0
H620 H 0.52576 0.49243 0.80493 0.0
H621 H 0.47469 0.51556 0.04616 0.0
H622 H 0.47035 0.54372 0.02746 0.0
H623 H 0.49779 0.53691 0.04648 0.0
C624 C 0.05328 0.51314 0.53779 0.0
C625 C 0.04501 0.49646 0.49588 0.0
C626 C 0.04047 0.51872 0.58813 0.0
C627 C 0.01904 0.50711 0.59731 0.0
C628 C 0.011 0.48959 0.55687 0.0
C629 C 0.02404 0.48456 0.50633 0.0
C630 C 0.04954 0.5376 0.63011 0.0
C631 C 0.98838 0.47655 0.56607 0.0
C632 C 0.9922 0.50938 0.75489 0.0
C633 C 0.97654 0.52437 0.74462 0.0
C634 C 0.00623 0.50373 0.70746 0.0
C635 C 0.00485 0.51358 0.6486 0.0
C636 C 0.98965 0.52931 0.63841 0.0
C637 C 0.97552 0.5344 0.68651 0.0
C638 C 0.02206 0.48671 0.71984 0.0
C639 C 0.98803 0.54043 0.57639 0.0
H640 H 0.06944 0.52249 0.52996 0.0
H641 H 0.01759 0.47162 0.47424 0.0
H642 H 0.03877 0.5512 0.62734 0.0
H643 H 0.04934 0.53191 0.67884 0.0
H644 H 0.06682 0.54446 0.61782 0.0
H645 H 0.98512 0.46262 0.53261 0.0
H646 H 0.98694 0.46968 0.61362 0.0
H647 H 0.97523 0.48773 0.56062 0.0
H648 H 0.99304 0.50145 0.79958 0.0
H649 H 0.96349 0.54601 0.67836 0.0
H650 H 0.03938 0.49374 0.70878 0.0
H651 H 0.01786 0.47203 0.68949 0.0
H652 H 0.02147 0.48101 0.76868 0.0
H653 H 0.00462 0.54861 0.56216 0.0
H654 H 0.97613 0.55308 0.57692 0.0
H655 H 0.98254 0.52775 0.5408 0.0
C656 C 0.04441 0.51244 0.12858 0.0
C657 C 0.04351 0.51107 0.19319 0.0
C658 C 0.02484 0.51117 0.0933 0.0
C659 C 0.00391 0.50839 0.12341 0.0
C660 C 0.00287 0.50681 0.18855 0.0
C661 C 0.02268 0.50822 0.22268 0.0
C662 C 0.02657 0.51303 0.02381 0.0
C663 C 0.98084 0.50378 0.22217 0.0
C664 C 0.9567 0.52798 0.03163 0.0
C665 C 0.94714 0.50812 0.00406 0.0
C666 C 0.97465 0.52816 0.07256 0.0
C667 C 0.98316 0.50797 0.08657 0.0
C668 C 0.97272 0.48768 0.06207 0.0
C669 C 0.95478 0.48799 0.02101 0.0
C670 C 0.98525 0.55013 0.09808 0.0
C671 C 0.98122 0.4658 0.07663 0.0
H672 H 0.06042 0.51459 0.10549 0.0
H673 H 0.02181 0.50702 0.27262 0.0
H674 H 0.01739 0.49811 0.00182 0.0
H675 H 0.01875 0.52769 0.00775 0.0
H676 H 0.0441 0.51472 0.00748 0.0
H677 H 0.98291 0.50211 0.27292 0.0
H678 H 0.97158 0.51821 0.21314 0.0
H679 H 0.97044 0.48875 0.20474 0.0
H680 H 0.95076 0.5436 0.01923 0.0
H681 H 0.94746 0.47257 3e-05 0.0
H682 H 0.00227 0.55397 0.07883 0.0
H683 H 0.98689 0.54919 0.14904 0.0
H684 H 0.97556 0.56407 0.08659 0.0
H685 H -0.00215 0.46544 0.05527 0.0
H686 H 0.96992 0.45136 0.05908 0.0
H687 H 0.98325 0.46393 0.12724 0.0
C688 C 0.45954 0.47606 0.61802 0.0
C689 C 0.45008 0.49612 0.61945 0.0
C690 C 0.47556 0.47237 0.57344 0.0
C691 C 0.48233 0.48921 0.52972 0.0
C692 C 0.47213 0.50907 0.52926 0.0
C693 C 0.45605 0.51223 0.57392 0.0
C694 C 0.48589 0.45085 0.57472 0.0
C695 C 0.47895 0.52744 0.48344 0.0
C696 C 0.54066 0.49303 0.46342 0.0
C697 C 0.53658 0.48458 0.40366 0.0
C698 C 0.52314 0.49432 0.5052 0.0
C699 C 0.50106 0.48678 0.48691 0.0
C700 C 0.49686 0.47784 0.42707 0.0
C701 C 0.51467 0.47695 0.386 0.0
C702 C 0.52822 0.50415 0.56853 0.0
C703 C 0.47355 0.46945 0.40624 0.0
H704 H 0.45495 0.4635 0.65287 0.0
H705 H 0.44879 0.52777 0.5745 0.0
H706 H 0.48541 0.44325 0.528 0.0
H707 H 0.50363 0.45425 0.58845 0.0
H708 H 0.47731 0.43864 0.60767 0.0
H709 H 0.46846 0.54127 0.4869 0.0
H710 H 0.49655 0.53426 0.49167 0.0
H711 H 0.47785 0.52083 0.43559 0.0
H712 H 0.55753 0.49896 0.47734 0.0
H713 H 0.51141 0.47026 0.33999 0.0
H714 H 0.52187 0.49209 0.60478 0.0
H715 H 0.51962 0.51922 0.57465 0.0
H716 H 0.54634 0.50881 0.57601 0.0
H717 H 0.46577 0.45681 0.43918 0.0
H718 H 0.47324 0.46197 0.35931 0.0
H719 H 0.46313 0.48336 0.40584 0.0
C720 C 0.10562 0.43779 0.21375 0.0
C721 C 0.11401 0.45431 0.25592 0.0
C722 C 0.11994 0.42507 0.18196 0.0
C723 C 0.14314 0.42893 0.19285 0.0
C724 C 0.15164 0.44524 0.23634 0.0
C725 C 0.13699 0.45774 0.26727 0.0
C726 C 0.1103 0.40781 0.13589 0.0
C727 C 0.17629 0.44975 0.24953 0.0
C728 C 0.18184 0.38597 0.15471 0.0
C729 C 0.19247 0.39501 0.1012 0.0
C730 C 0.16508 0.39635 0.18367 0.0
C731 C 0.15874 0.41621 0.15844 0.0
C732 C 0.1686 0.42484 0.1028 0.0
C733 C 0.18538 0.41413 0.07484 0.0
C734 C 0.1549 0.38661 0.24285 0.0
C735 C 0.16214 0.44592 0.07427 0.0
H736 H 0.0879 0.43507 0.20457 0.0
H737 H 0.14362 0.47044 0.29984 0.0
H738 H 0.11689 0.41221 0.08908 0.0
H739 H 0.11544 0.39132 0.14768 0.0
H740 H 0.09183 0.40633 0.13423 0.0
H741 H 0.18015 0.46266 0.28571 0.0
H742 H 0.18276 0.43425 0.26482 0.0
H743 H 0.18535 0.45537 0.2067 0.0
H744 H 0.1871 0.37111 0.17525 0.0
H745 H 0.1934 0.42117 0.03334 0.0
H746 H 0.13647 0.38486 0.23998 0.0
H747 H 0.15987 0.39802 0.2819 0.0
H748 H 0.16023 0.37007 0.25345 0.0
H749 H 0.1438 0.44482 0.06909 0.0
H750 H 0.16995 0.44937 0.02828 0.0
H751 H 0.16736 0.46022 0.10517 0.0
C752 C 0.80251 0.85766 0.42288 0.0
C753 C 0.78888 0.86659 0.46657 0.0
C754 C 0.82091 0.87073 0.39706 0.0
C755 C 0.82582 0.89318 0.41568 0.0
C756 C 0.81296 0.90185 0.46255 0.0
C757 C 0.79462 0.88845 0.48738 0.0
C758 C 0.83429 0.86088 0.34739 0.0
C759 C 0.81784 0.92566 0.48415 0.0
C760 C 0.88062 0.92761 0.37718 0.0
C761 C 0.87432 0.94071 0.32817 0.0
C762 C 0.86523 0.91142 0.40481 0.0
C763 C 0.84308 0.90824 0.38269 0.0
C764 C 0.83694 0.92061 0.33122 0.0
C765 C 0.85263 0.93671 0.30462 0.0
C766 C 0.87241 0.89847 0.45944 0.0
C767 C 0.8135 0.91752 0.30589 0.0
H768 H 0.79824 0.84076 0.40661 0.0
H769 H 0.78428 0.89542 0.52147 0.0
H770 H 0.83107 0.86855 0.30221 0.0
H771 H 0.85237 0.86453 0.35691 0.0
H772 H 0.83001 0.84257 0.34333 0.0
H773 H 0.80753 0.92925 0.52458 0.0
H774 H 0.83566 0.92942 0.49681 0.0
H775 H 0.81452 0.93707 0.44601 0.0
H776 H 0.89738 0.93053 0.39559 0.0
H777 H 0.84766 0.94665 0.26651 0.0
H778 H 0.86736 0.8804 0.45293 0.0
H779 H 0.86401 0.90357 0.50182 0.0
H780 H 0.89069 0.90126 0.46697 0.0
H781 H 0.8083 0.8997 0.2957 0.0
H782 H 0.81183 0.92731 0.26306 0.0
H783 H 0.80183 0.9228 0.34102 0.0
C784 C 0.33285 0.63009 0.4703 0.0
C785 C 0.33066 0.65249 0.48238 0.0
C786 C 0.34828 0.61898 0.50281 0.0
C787 C 0.36187 0.63056 0.54846 0.0
C788 C 0.3605 0.65343 0.55884 0.0
C789 C 0.3449 0.66414 0.52565 0.0
C790 C 0.34935 0.59459 0.49015 0.0
C791 C 0.37481 0.66635 0.60686 0.0
C792 C 0.38027 0.59382 0.67576 0.0
C793 C 0.40165 0.59034 0.65589 0.0
C794 C 0.36749 0.60762 0.64247 0.0
C795 C 0.37632 0.61822 0.58804 0.0
C796 C 0.39831 0.61571 0.56947 0.0
C797 C 0.41074 0.6018 0.60367 0.0
C798 C 0.34415 0.61001 0.66403 0.0
C799 C 0.40834 0.62689 0.51194 0.0
H800 H 0.32201 0.62099 0.43676 0.0
H801 H 0.34339 0.68148 0.53514 0.0
H802 H 0.36675 0.59157 0.48043 0.0
H803 H 0.34378 0.58469 0.53164 0.0
H804 H 0.33874 0.5884 0.45042 0.0
H805 H 0.3733 0.68445 0.60509 0.0
H806 H 0.36982 0.6601 0.65361 0.0
H807 H 0.39255 0.66389 0.60044 0.0
H808 H 0.37316 0.58515 0.71625 0.0
H809 H 0.42728 0.59929 0.58808 0.0
H810 H 0.33196 0.60233 0.62965 0.0
H811 H 0.34174 0.62785 0.66769 0.0
H812 H 0.34034 0.60196 0.70954 0.0
H813 H 0.39953 0.61943 0.47059 0.0
H814 H 0.42633 0.62511 0.50731 0.0
H815 H 0.40625 0.64485 0.51217 0.0
C816 C 0.68052 0.13715 0.98167 0.0
C817 C 0.68816 0.15812 0.95729 0.0
C818 C 0.66261 0.1238 0.95446 0.0
C819 C 0.65217 0.1316 0.90151 0.0
C820 C 0.65919 0.15312 0.87824 0.0
C821 C 0.67709 0.16616 0.90653 0.0
C822 C 0.65544 0.101 0.98094 0.0
C823 C 0.64843 0.16199 0.8219 0.0
C824 C 0.62532 0.08631 0.7956 0.0
C825 C 0.60291 0.08501 0.81332 0.0
C826 C 0.6414 0.10196 0.8225 0.0
C827 C 0.63492 0.1166 0.86835 0.0
C828 C 0.61222 0.11599 0.88466 0.0
C829 C 0.59645 0.10023 0.85679 0.0
C830 C 0.66546 0.10226 0.80347 0.0
C831 C 0.60471 0.13137 0.93331 0.0
H832 H 0.6889 0.13087 0.02111 0.0
H833 H 0.68285 0.18237 0.88746 0.0
H834 H 0.63725 0.09886 0.9898 0.0
H835 H 0.65887 0.08807 0.94705 0.0
H836 H 0.66422 0.09805 0.02474 0.0
H837 H 0.65456 0.17972 0.81278 0.0
H838 H 0.65199 0.15204 0.78079 0.0
H839 H 0.63008 0.16038 0.82753 0.0
H840 H 0.63042 0.07471 0.76176 0.0
H841 H 0.57915 0.09936 0.8707 0.0
H842 H 0.67539 0.09736 0.84324 0.0
H843 H 0.67245 0.11931 0.78969 0.0
H844 H 0.66753 0.09075 0.76443 0.0
H845 H 0.61162 0.12733 0.97888 0.0
H846 H 0.58629 0.13 0.93717 0.0
H847 H 0.61112 0.14889 0.92272 0.0
C848 C 0.15854 0.57121 0.29378 0.0
C849 C 0.13998 0.56461 0.33103 0.0
C850 C 0.17365 0.58977 0.30947 0.0
C851 C 0.17015 0.6019 0.36389 0.0
C852 C 0.15122 0.5956 0.401 0.0
C853 C 0.13632 0.57709 0.384 0.0
C854 C 0.19357 0.59616 0.26846 0.0
C855 C 0.147 0.60808 0.45947 0.0
C856 C 0.22099 0.63476 0.43593 0.0
C857 C 0.21903 0.65637 0.41499 0.0
C858 C 0.20498 0.61693 0.42044 0.0
C859 C 0.18666 0.62081 0.3829 0.0
C860 C 0.18432 0.64265 0.36278 0.0
C861 C 0.20051 0.66019 0.37924 0.0
C862 C 0.20791 0.59388 0.44324 0.0
C863 C 0.165 0.6474 0.32264 0.0
H864 H 0.16144 0.56171 0.2527 0.0
H865 H 0.12203 0.57212 0.41315 0.0
H866 H 0.19408 0.6138 0.25399 0.0
H867 H 0.20911 0.59462 0.29454 0.0
H868 H 0.19339 0.58559 0.22644 0.0
H869 H 0.1311 0.60148 0.48212 0.0
H870 H 0.1608 0.60695 0.49265 0.0
H871 H 0.14654 0.62597 0.44916 0.0
H872 H 0.23523 0.63169 0.46365 0.0
H873 H 0.19889 0.67683 0.36271 0.0
H874 H 0.20985 0.58276 0.40332 0.0
H875 H 0.19289 0.58676 0.46904 0.0
H876 H 0.22265 0.5938 0.47382 0.0
H877 H 0.16542 0.63823 0.27832 0.0
H878 H 0.16527 0.66541 0.31237 0.0
H879 H 0.14902 0.64144 0.34564 0.0
C880 C 0.61826 0.96123 0.71806 0.0
C881 C 0.62397 0.98286 0.69541 0.0
C882 C 0.63108 0.94408 0.70318 0.0
C883 C 0.65008 0.94876 0.66507 0.0
C884 C 0.65624 0.97067 0.64345 0.0
C885 C 0.64309 0.98744 0.65879 0.0
C886 C 0.62403 0.92088 0.72703 0.0
C887 C 0.67649 0.97633 0.6031 0.0
C888 C 0.69473 0.90972 0.66227 0.0
C889 C 0.6899 0.89812 0.60682 0.0
C890 C 0.68166 0.92598 0.68243 0.0
C891 C 0.66329 0.93069 0.64633 0.0
C892 C 0.65809 0.91878 0.59086 0.0
C893 C 0.67148 0.90265 0.57169 0.0
C894 C 0.68775 0.93839 0.74175 0.0
C895 C 0.63857 0.92334 0.55123 0.0
H896 H 0.60349 0.95757 0.74632 0.0
H897 H 0.64769 0.00413 0.64135 0.0
H898 H 0.61992 0.9094 0.68761 0.0
H899 H 0.63792 0.91468 0.75273 0.0
H900 H 0.60931 0.92017 0.75797 0.0
H901 H 0.67943 0.99435 0.59193 0.0
H902 H 0.69151 0.97146 0.62646 0.0
H903 H 0.67443 0.96683 0.55921 0.0
H904 H 0.70891 0.9063 0.68978 0.0
H905 H 0.66759 0.8937 0.52893 0.0
H906 H 0.67329 0.93692 0.77361 0.0
H907 H 0.69215 0.95635 0.73176 0.0
H908 H 0.70202 0.93214 0.76568 0.0
H909 H 0.62306 0.92148 0.57904 0.0
H910 H 0.63623 0.912 0.51075 0.0
H911 H 0.64111 0.94075 0.53423 0.0
C912 C 0.38502 0.46838 0.90844 0.0
C913 C 0.37995 0.48129 0.85769 0.0
C914 C 0.369 0.45236 0.93398 0.0
C915 C 0.3474 0.4491 0.908 0.0
C916 C 0.34207 0.46222 0.85719 0.0
C917 C 0.35841 0.47821 0.83267 0.0
C918 C 0.37528 0.43872 0.98831 0.0
C919 C 0.3192 0.45914 0.8282 0.0
C920 C 0.31425 0.39274 0.93428 0.0
C921 C 0.30004 0.39729 0.98267 0.0
C922 C 0.32951 0.40953 0.909 0.0
C923 C 0.33065 0.43141 0.93283 0.0
C924 C 0.31626 0.43619 0.98135 0.0
C925 C 0.30108 0.41906 0.00567 0.0
C926 C 0.34456 0.40381 0.85714 0.0
C927 C 0.31707 0.45933 0.008 0.0
H928 H 0.40159 0.47071 0.92825 0.0
H929 H 0.35437 0.48813 0.79348 0.0
H930 H 0.36373 0.44036 0.02742 0.0
H931 H 0.37373 0.42086 0.97541 0.0
H932 H 0.39258 0.44382 0.00436 0.0
H933 H 0.31753 0.47114 0.79012 0.0
H934 H 0.31569 0.44201 0.80953 0.0
H935 H 0.30635 0.46119 0.86362 0.0
H936 H 0.31351 0.37598 0.91605 0.0
H937 H 0.29013 0.42272 0.04299 0.0
H938 H 0.36222 0.4071 0.87187 0.0
H939 H 0.34247 0.41452 0.81644 0.0
H940 H 0.34116 0.38612 0.84273 0.0
H941 H 0.33379 0.46451 0.02791 0.0
H942 H 0.30439 0.46042 0.04466 0.0
H943 H 0.31434 0.47138 0.97095 0.0
C944 C 0.77475 0.11344 0.18656 0.0
C945 C 0.78043 0.12615 0.13346 0.0
C946 C 0.78745 0.09668 0.20536 0.0
C947 C 0.80627 0.09259 0.17024 0.0
C948 C 0.81225 0.10554 0.11706 0.0
C949 C 0.79925 0.12215 0.09928 0.0
C950 C 0.78058 0.08316 0.26228 0.0
C951 C 0.83226 0.10168 0.07851 0.0
C952 C 0.85139 0.06167 0.23954 0.0
C953 C 0.84648 0.04053 0.21292 0.0
C954 C 0.83809 0.07867 0.22739 0.0
C955 C 0.81943 0.07435 0.18786 0.0
C956 C 0.81396 0.05283 0.16258 0.0
C957 C 0.82756 0.03619 0.17538 0.0
C958 C 0.8444 0.10141 0.25524 0.0
C959 C 0.79411 0.04758 0.12048 0.0
H960 H 0.76025 0.11644 0.21328 0.0
H961 H 0.80379 0.13194 0.0583 0.0
H962 H 0.77652 0.06538 0.24956 0.0
H963 H 0.79455 0.08418 0.29577 0.0
H964 H 0.76588 0.08885 0.28548 0.0
H965 H 0.83498 0.11358 0.03942 0.0
H966 H 0.84744 0.10326 0.10769 0.0
H967 H 0.83006 0.08452 0.05956 0.0
H968 H 0.86596 0.06515 0.26869 0.0
H969 H 0.82357 0.01986 0.15489 0.0
H970 H 0.82999 0.10697 0.28003 0.0
H971 H 0.84907 0.11366 0.21796 0.0
H972 H 0.85858 0.10169 0.28797 0.0
H973 H 0.77883 0.05207 0.14323 0.0
H974 H 0.79141 0.0297 0.10745 0.0
H975 H 0.79656 0.05764 0.07764 0.0
C976 C 0.78089 0.62374 0.89368 0.0
C977 C 0.78109 0.6391 0.94228 0.0
C978 C 0.79907 0.61187 0.88315 0.0
C979 C 0.81797 0.61553 0.92199 0.0
C980 C 0.81867 0.63165 0.96961 0.0
C981 C 0.80017 0.64321 0.97935 0.0
C982 C 0.79765 0.59475 0.83205 0.0
C983 C 0.83863 0.63609 0.01163 0.0
C984 C 0.85062 0.56635 0.94071 0.0
C985 C 0.86832 0.57154 0.89933 0.0
C986 C 0.83444 0.58079 0.9494 0.0
C987 C 0.83602 0.60102 0.91615 0.0
C988 C 0.85414 0.60671 0.87549 0.0
C989 C 0.87008 0.59184 0.86739 0.0
C990 C 0.81532 0.57407 0.99301 0.0
C991 C 0.8564 0.62825 0.83965 0.0
H992 H 0.76627 0.62054 0.86459 0.0
H993 H 0.80052 0.65518 0.01671 0.0
H994 H 0.81247 0.59762 0.80165 0.0
H995 H 0.79749 0.57789 0.85229 0.0
H996 H 0.78247 0.59502 0.80328 0.0
H997 H 0.83747 0.65061 0.04241 0.0
H998 H 0.84005 0.62126 0.0408 0.0
H999 H 0.85413 0.63916 0.984 0.0
H1000 H 0.84914 0.55074 0.96574 0.0
H1001 H 0.88376 0.596 0.83552 0.0
H1002 H 0.79939 0.57228 0.96701 0.0
H1003 H 0.81428 0.58718 0.02839 0.0
H1004 H 0.81696 0.55811 0.01695 0.0
H1005 H 0.84229 0.62825 0.8069 0.0
H1006 H 0.8722 0.63087 0.81307 0.0
H1007 H 0.8557 0.64251 0.87151 0.0
C1008 C 0.18512 0.18051 0.65998 0.0
C1009 C 0.19994 0.17264 0.61766 0.0
C1010 C 0.16534 0.1674 0.67681 0.0
C1011 C 0.1603 0.14599 0.65054 0.0
C1012 C 0.17454 0.13852 0.60512 0.0
C1013 C 0.19419 0.15194 0.58926 0.0
C1014 C 0.15048 0.17597 0.72511 0.0
C1015 C 0.16965 0.11584 0.57562 0.0
C1016 C 0.12797 0.09896 0.73943 0.0
C1017 C 0.10747 0.09665 0.70846 0.0
C1018 C 0.14495 0.1157 0.72291 0.0
C1019 C 0.14134 0.13047 0.67421 0.0
C1020 C 0.12028 0.12902 0.64507 0.0
C1021 C 0.10355 0.11211 0.6626 0.0
C1022 C 0.16715 0.11682 0.7555 0.0
C1023 C 0.11579 0.14458 0.59324 0.0
H1024 H 0.1894 0.19653 0.68203 0.0
H1025 H 0.20545 0.14582 0.55609 0.0
H1026 H 0.13284 0.17352 0.70993 0.0
H1027 H 0.1516 0.16644 0.76857 0.0
H1028 H 0.15522 0.1939 0.73525 0.0
H1029 H 0.18141 0.11329 0.53756 0.0
H1030 H 0.17081 0.10276 0.611 0.0
H1031 H 0.15245 0.11355 0.55698 0.0
H1032 H 0.13108 0.08721 0.77529 0.0
H1033 H 0.08772 0.11051 0.63859 0.0
H1034 H 0.17241 0.13399 0.77199 0.0
H1035 H 0.18001 0.11242 0.72263 0.0
H1036 H 0.16668 0.10531 0.79558 0.0
H1037 H 0.1213 0.16209 0.6063 0.0
H1038 H 0.09787 0.14305 0.58061 0.0
H1039 H 0.12545 0.14077 0.55179 0.0
C1040 C 0.68783 0.38902 0.47395 0.0
C1041 C 0.69041 0.36688 0.4597 0.0
C1042 C 0.67334 0.40074 0.43968 0.0
C1043 C 0.66132 0.39012 0.38958 0.0
C1044 C 0.66329 0.36755 0.37623 0.0
C1045 C 0.67774 0.35616 0.41168 0.0
C1046 C 0.67144 0.42472 0.45586 0.0
C1047 C 0.65082 0.35571 0.32301 0.0
C1048 C 0.61275 0.41822 0.3293 0.0
C1049 C 0.62278 0.43126 0.28099 0.0
C1050 C 0.6249 0.4042 0.36394 0.0
C1051 C 0.64754 0.40304 0.34956 0.0
C1052 C 0.65745 0.41531 0.29895 0.0
C1053 C 0.64497 0.42934 0.26541 0.0
C1054 C 0.61377 0.39142 0.41766 0.0
C1055 C 0.68149 0.41427 0.28168 0.0
H1056 H 0.69749 0.39738 0.51116 0.0
H1057 H 0.6797 0.33907 0.40018 0.0
H1058 H 0.67795 0.43565 0.41722 0.0
H1059 H 0.65372 0.42721 0.46255 0.0
H1060 H 0.68082 0.4301 0.49848 0.0
H1061 H 0.65304 0.33775 0.32126 0.0
H1062 H 0.63279 0.3573 0.32651 0.0
H1063 H 0.65681 0.36354 0.2788 0.0
H1064 H 0.59561 0.41959 0.34172 0.0
H1065 H 0.65281 0.43925 0.22795 0.0
H1066 H 0.62152 0.39787 0.46157 0.0
H1067 H 0.61622 0.37357 0.41446 0.0
H1068 H 0.59564 0.39277 0.41982 0.0
H1069 H 0.69247 0.42149 0.31945 0.0
H1070 H 0.6862 0.42349 0.23836 0.0
H1071 H 0.68469 0.39672 0.27575 0.0
C1072 C 0.37438 0.94105 0.14657 0.0
C1073 C 0.36929 0.95628 0.19178 0.0
C1074 C 0.35808 0.92448 0.12479 0.0
C1075 C 0.33624 0.92307 0.14905 0.0
C1076 C 0.33134 0.93757 0.19717 0.0
C1077 C 0.34793 0.95403 0.21793 0.0
C1078 C 0.36393 0.90924 0.07356 0.0
C1079 C 0.30827 0.93644 0.22457 0.0
C1080 C 0.28818 0.90121 0.04503 0.0
C1081 C 0.2827 0.87954 0.06757 0.0
C1082 C 0.30573 0.91542 0.07083 0.0
C1083 C 0.31806 0.90781 0.1205 0.0
C1084 C 0.31277 0.8859 0.14316 0.0
C1085 C 0.29515 0.872 0.11633 0.0
C1086 C 0.31095 0.93867 0.04526 0.0
C1087 C 0.32555 0.87726 0.19613 0.0
H1088 H 0.39087 0.94261 0.1263 0.0
H1089 H 0.34391 0.96562 0.25325 0.0
H1090 H 0.35838 0.89164 0.08546 0.0
H1091 H 0.35512 0.91308 0.0306 0.0
H1092 H 0.3821 0.91103 0.06398 0.0
H1093 H 0.30773 0.94744 0.26553 0.0
H1094 H 0.29655 0.94153 0.18931 0.0
H1095 H 0.30223 0.91913 0.23841 0.0
H1096 H 0.27868 0.90714 0.00728 0.0
H1097 H 0.29101 0.85527 0.13403 0.0
H1098 H 0.32853 0.94141 0.02966 0.0
H1099 H 0.30892 0.95107 0.082 0.0
H1100 H 0.30003 0.94186 0.00575 0.0
H1101 H 0.34354 0.87863 0.18473 0.0
H1102 H 0.31967 0.85964 0.20735 0.0
H1103 H 0.32383 0.88754 0.23793 0.0
C1104 C 0.81195 0.42675 0.55301 0.0
C1105 C 0.80222 0.40665 0.57862 0.0
C1106 C 0.82857 0.44037 0.58506 0.0
C1107 C 0.83554 0.4337 0.644 0.0
C1108 C 0.82598 0.41331 0.66968 0.0
C1109 C 0.80947 0.40005 0.63671 0.0
C1110 C 0.83849 0.46201 0.55626 0.0
C1111 C 0.83298 0.40563 0.73238 0.0
C1112 C 0.89119 0.45952 0.70741 0.0
C1113 C 0.88466 0.47572 0.74772 0.0
C1114 C 0.87537 0.44572 0.67327 0.0
C1115 C 0.85252 0.44821 0.67961 0.0
C1116 C 0.84579 0.46429 0.72085 0.0
C1117 C 0.86194 0.47783 0.7545 0.0
C1118 C 0.88313 0.42862 0.63003 0.0
C1119 C 0.82154 0.46735 0.72902 0.0
H1120 H 0.80648 0.43194 0.50816 0.0
H1121 H 0.80212 0.38452 0.65691 0.0
H1122 H 0.83516 0.47615 0.58614 0.0
H1123 H 0.85682 0.46241 0.55263 0.0
H1124 H 0.83164 0.46454 0.50949 0.0
H1125 H 0.82425 0.38908 0.74517 0.0
H1126 H 0.85118 0.40467 0.73303 0.0
H1127 H 0.82945 0.41784 0.76824 0.0
H1128 H 0.9087 0.45778 0.70184 0.0
H1129 H 0.85675 0.49033 0.78543 0.0
H1130 H 0.8778 0.43179 0.5821 0.0
H1131 H 0.87536 0.41174 0.64302 0.0
H1132 H 0.90151 0.42876 0.63056 0.0
H1133 H 0.81433 0.47165 0.68406 0.0
H1134 H 0.81908 0.48063 0.76293 0.0
H1135 H 0.81207 0.45156 0.7449 0.0
C1136 C 0.31814 0.13615 0.51009 0.0
C1137 C 0.29526 0.13424 0.49723 0.0
C1138 C 0.33169 0.12127 0.4842 0.0
C1139 C 0.32209 0.10404 0.44489 0.0
C1140 C 0.29897 0.10184 0.43248 0.0
C1141 C 0.28586 0.11699 0.45869 0.0
C1142 C 0.35631 0.12411 0.49831 0.0
C1143 C 0.2881 0.08357 0.39113 0.0
C1144 C 0.35817 0.0773 0.32985 0.0
C1145 C 0.36124 0.05738 0.35999 0.0
C1146 C 0.34577 0.09284 0.35745 0.0
C1147 C 0.33615 0.08827 0.41641 0.0
C1148 C 0.33933 0.06829 0.44725 0.0
C1149 C 0.35188 0.0531 0.41872 0.0
C1150 C 0.34277 0.11403 0.32329 0.0
C1151 C 0.32923 0.0628 0.51002 0.0
H1152 H 0.32553 0.14947 0.53969 0.0
H1153 H 0.26819 0.11535 0.44864 0.0
H1154 H 0.36116 0.10869 0.51939 0.0
H1155 H 0.36594 0.12701 0.45484 0.0
H1156 H 0.36114 0.13824 0.53024 0.0
H1157 H 0.26985 0.08396 0.38692 0.0
H1158 H 0.29556 0.08516 0.34427 0.0
H1159 H 0.29114 0.06709 0.4095 0.0
H1160 H 0.36543 0.08076 0.28458 0.0
H1161 H 0.35418 0.03776 0.44237 0.0
H1162 H 0.34863 0.12868 0.3523 0.0
H1163 H 0.32485 0.11472 0.31374 0.0
H1164 H 0.35196 0.11542 0.27875 0.0
H1165 H 0.3348 0.07623 0.54338 0.0
H1166 H 0.33375 0.04681 0.52849 0.0
H1167 H 0.31082 0.06173 0.50707 0.0
C1168 C 0.63211 0.53989 0.22846 0.0
C1169 C 0.60933 0.54232 0.22902 0.0
C1170 C 0.64798 0.55759 0.21122 0.0
C1171 C 0.6409 0.57826 0.19464 0.0
C1172 C 0.61805 0.58113 0.19782 0.0
C1173 C 0.60251 0.56309 0.2148 0.0
C1174 C 0.67222 0.5539 0.20829 0.0
C1175 C 0.60992 0.60301 0.18117 0.0
C1176 C 0.68438 0.62886 0.18846 0.0
C1177 C 0.68891 0.6305 0.12491 0.0
C1178 C 0.66863 0.61208 0.21185 0.0
C1179 C 0.65728 0.59647 0.17073 0.0
C1180 C 0.66173 0.59806 0.10653 0.0
C1181 C 0.67743 0.61512 0.08436 0.0
C1182 C 0.66415 0.611 0.28051 0.0
C1183 C 0.65005 0.58161 0.06129 0.0
H1184 H 0.63753 0.5239 0.23941 0.0
H1185 H 0.58496 0.56514 0.21542 0.0
H1186 H 0.6781 0.55538 0.15973 0.0
H1187 H 0.6825 0.56683 0.23549 0.0
H1188 H 0.67512 0.53727 0.22606 0.0
H1189 H 0.59187 0.60304 0.19062 0.0
H1190 H 0.61931 0.6168 0.20746 0.0
H1191 H 0.61292 0.6065 0.13134 0.0
H1192 H 0.69311 0.64075 0.22009 0.0
H1193 H 0.68088 0.61625 0.03523 0.0
H1194 H 0.66815 0.59488 0.29922 0.0
H1195 H 0.64623 0.61192 0.28949 0.0
H1196 H 0.67406 0.62468 0.30612 0.0
H1197 H 0.65347 0.56451 0.07321 0.0
H1198 H 0.65539 0.58517 0.01283 0.0
H1199 H 0.63178 0.5819 0.06425 0.0
C1200 C 0.19876 0.92706 0.8771 0.0
C1201 C 0.19116 0.90713 0.90748 0.0
C1202 C 0.18436 0.94303 0.86468 0.0
C1203 C 0.16179 0.93894 0.88286 0.0
C1204 C 0.15397 0.91887 0.9135 0.0
C1205 C 0.16878 0.9032 0.92559 0.0
C1206 C 0.19333 0.96428 0.8321 0.0
C1207 C 0.12997 0.91395 0.93334 0.0
C1208 C 0.13022 0.98926 0.89783 0.0
C1209 C 0.11907 0.989 0.84095 0.0
C1210 C 0.14391 0.97285 0.91253 0.0
C1211 C 0.14641 0.95573 0.86941 0.0
C1212 C 0.13491 0.95515 0.81236 0.0
C1213 C 0.12142 0.97183 0.79874 0.0
C1214 C 0.15601 0.97405 0.97372 0.0
C1215 C 0.13712 0.9371 0.76534 0.0
H1216 H 0.21603 0.93027 0.86307 0.0
H1217 H 0.1628 0.88783 0.94904 0.0
H1218 H 0.18416 0.96588 0.78823 0.0
H1219 H 0.19073 0.97885 0.86122 0.0
H1220 H 0.21136 0.96497 0.82147 0.0
H1221 H 0.12653 0.89757 0.95668 0.0
H1222 H 0.1256 0.92708 0.96538 0.0
H1223 H 0.11888 0.91411 0.89252 0.0
H1224 H 0.12848 0.00246 0.93072 0.0
H1225 H 0.11277 0.97145 0.75481 0.0
H1226 H 0.17426 0.9762 0.96571 0.0
H1227 H 0.15195 0.95827 -0.00044 0.0
H1228 H 0.15172 0.98801 0.00297 0.0
H1229 H 0.15466 0.93793 0.74967 0.0
H1230 H 0.12635 0.93851 0.72426 0.0
H1231 H 0.13266 0.92049 0.78659 0.0
loop_
_geom_bond_atom_site_label_1
_geom_bond_atom_site_label_2
_geom_bond_distance
_geom_bond_site_symmetry_2
_ccdc_geom_bond_type
C0 O1 1.160 . S
C0 O7 1.185 . S
O1 C0 1.160 . S
O2 Zn3 1.899 . S
O2 C10 1.284 . S
Zn3 O2 1.899 . S
Zn3 O4 2.032 . S
Zn3 O7 2.086 . S
Zn3 O12 1.977 1_554 S
O4 Zn3 2.032 . S
O4 C8 1.278 1_554 S
C5 O6 1.203 . S
C5 O12 1.267 . S
O6 C5 1.203 . S
O7 C0 1.185 . S
O7 Zn3 2.086 . S
C8 O4 1.278 1_556 S
C8 O9 1.211 . S
O9 C8 1.211 . S
C10 O2 1.284 . S
C10 O11 1.273 . S
O11 C10 1.273 . S
O12 Zn3 1.977 1_556 S
O12 C5 1.267 . S
C13 O14 1.160 . S
C13 O20 1.185 . S
O14 C13 1.160 . S
O15 Zn16 1.899 . S
O15 C23 1.284 . S
Zn16 O15 1.899 . S
Zn16 O17 2.032 . S
Zn16 O20 2.086 . S
Zn16 O25 1.977 . S
O17 Zn16 2.032 . S
O17 C21 1.278 1_545 S
C18 O19 1.203 . S
C18 O25 1.267 . S
O19 C18 1.203 . S
O20 C13 1.185 . S
O20 Zn16 2.086 . S
C21 O17 1.278 1_565 S
C21 O22 1.211 . S
O22 C21 1.211 . S
C23 O15 1.284 . S
C23 O24 1.273 1_545 S
O24 C23 1.273 1_565 S
O25 Zn16 1.977 . S
O25 C18 1.267 . S
C26 O27 1.160 . S
C26 O33 1.185 . S
O27 C26 1.160 . S
O28 Zn29 1.899 . S
O28 C36 1.284 . S
Zn29 O28 1.899 . S
Zn29 O30 2.032 . S
Zn29 O33 2.086 . S
Zn29 O38 1.977 . S
O30 Zn29 2.032 . S
O30 C34 1.278 . S
C31 O32 1.203 . S
C31 O38 1.267 . S
O32 C31 1.203 . S
O33 C26 1.185 . S
O33 Zn29 2.086 . S
C34 O30 1.278 . S
C34 O35 1.211 . S
O35 C34 1.211 . S
C36 O28 1.284 . S
C36 O37 1.273 . S
O37 C36 1.273 . S
O38 Zn29 1.977 . S
O38 C31 1.267 . S
C39 O40 1.160 . S
C39 O46 1.185 . S
O40 C39 1.160 . S
O41 Zn42 1.899 . S
O41 C49 1.284 . S
Zn42 O41 1.899 . S
Zn42 O43 2.032 . S
Zn42 O46 2.086 1_545 S
Zn42 O51 1.977 . S
O43 Zn42 2.032 . S
O43 C47 1.278 . S
C44 O45 1.203 . S
C44 O51 1.267 . S
O45 C44 1.203 . S
O46 C39 1.185 . S
O46 Zn42 2.086 1_565 S
C47 O43 1.278 . S
C47 O48 1.211 . S
O48 C47 1.211 . S
C49 O41 1.284 . S
C49 O50 1.273 . S
O50 C49 1.273 . S
O51 Zn42 1.977 . S
O51 C44 1.267 . S
C52 O53 1.160 . S
C52 O59 1.185 1_556 S
O53 C52 1.160 . S
O54 Zn55 1.899 1_556 S
O54 C62 1.284 . S
Zn55 O54 1.899 1_554 S
Zn55 O56 2.032 . S
Zn55 O59 2.086 . S
Zn55 O64 1.977 . S
O56 Zn55 2.032 . S
O56 C60 1.278 . S
C57 O58 1.203 . S
C57 O64 1.267 . S
O58 C57 1.203 . S
O59 C52 1.185 1_554 S
O59 Zn55 2.086 . S
C60 O56 1.278 . S
C60 O61 1.211 . S
O61 C60 1.211 . S
C62 O54 1.284 . S
C62 O63 1.273 . S
O63 C62 1.273 . S
O64 Zn55 1.977 . S
O64 C57 1.267 . S
C65 O66 1.160 . S
C65 O72 1.185 . S
O66 C65 1.160 . S
O67 Zn68 1.899 . S
O67 C75 1.284 . S
Zn68 O67 1.899 . S
Zn68 O69 2.032 . S
Zn68 O72 2.086 1_545 S
Zn68 O77 1.977 . S
O69 Zn68 2.032 . S
O69 C73 1.278 . S
C70 O71 1.203 . S
C70 O77 1.267 . S
O71 C70 1.203 . S
O72 C65 1.185 . S
O72 Zn68 2.086 1_565 S
C73 O69 1.278 . S
C73 O74 1.211 . S
O74 C73 1.211 . S
C75 O67 1.284 . S
C75 O76 1.273 . S
O76 C75 1.273 . S
O77 Zn68 1.977 . S
O77 C70 1.267 . S
C78 O79 1.160 . S
C78 O85 1.185 . S
O79 C78 1.160 . S
O80 Zn81 1.899 . S
O80 C88 1.284 . S
Zn81 O80 1.899 . S
Zn81 O82 2.032 . S
Zn81 O85 2.086 . S
Zn81 O90 1.977 . S
O82 Zn81 2.032 . S
O82 C86 1.278 . S
C83 O84 1.203 . S
C83 O90 1.267 . S
O84 C83 1.203 . S
O85 C78 1.185 . S
O85 Zn81 2.086 . S
C86 O82 1.278 . S
C86 O87 1.211 . S
O87 C86 1.211 . S
C88 O80 1.284 . S
C88 O89 1.273 . S
O89 C88 1.273 . S
O90 Zn81 1.977 . S
O90 C83 1.267 . S
C91 O92 1.160 . S
C91 O98 1.185 . S
O92 C91 1.160 . S
O93 Zn94 1.899 . S
O93 C101 1.284 . S
Zn94 O93 1.899 . S
Zn94 O95 2.032 . S
Zn94 O98 2.086 . S
Zn94 O103 1.977 . S
O95 Zn94 2.032 . S
O95 C99 1.278 1_545 S
C96 O97 1.203 . S
C96 O103 1.267 . S
O97 C96 1.203 . S
O98 C91 1.185 . S
O98 Zn94 2.086 . S
C99 O95 1.278 1_565 S
C99 O100 1.211 . S
O100 C99 1.211 . S
C101 O93 1.284 . S
C101 O102 1.273 1_545 S
O102 C101 1.273 1_565 S
O103 Zn94 1.977 . S
O103 C96 1.267 . S
C104 O105 1.160 . S
C104 O111 1.185 . S
O105 C104 1.160 . S
O106 Zn107 1.899 . S
O106 C114 1.284 . S
Zn107 O106 1.899 . S
Zn107 O108 2.032 . S
Zn107 O111 2.086 . S
Zn107 O116 1.977 . S
O108 Zn107 2.032 . S
O108 C112 1.278 . S
C109 O110 1.203 . S
C109 O116 1.267 . S
O110 C109 1.203 . S
O111 C104 1.185 . S
O111 Zn107 2.086 . S
C112 O108 1.278 . S
C112 O113 1.211 . S
O113 C112 1.211 . S
C114 O106 1.284 . S
C114 O115 1.273 . S
O115 C114 1.273 . S
O116 Zn107 1.977 . S
O116 C109 1.267 . S
C117 O118 1.160 . S
C117 O124 1.185 . S
O118 C117 1.160 . S
O119 Zn120 1.899 . S
O119 C127 1.284 . S
Zn120 O119 1.899 . S
Zn120 O121 2.032 . S
Zn120 O124 2.086 . S
Zn120 O129 1.977 . S
O121 Zn120 2.032 . S
O121 C125 1.278 . S
C122 O123 1.203 . S
C122 O129 1.267 . S
O123 C122 1.203 . S
O124 C117 1.185 . S
O124 Zn120 2.086 . S
C125 O121 1.278 . S
C125 O126 1.211 . S
O126 C125 1.211 . S
C127 O119 1.284 . S
C127 O128 1.273 . S
O128 C127 1.273 . S
O129 Zn120 1.977 . S
O129 C122 1.267 . S
C130 O131 1.160 . S
C130 O137 1.185 . S
O131 C130 1.160 . S
O132 Zn133 1.899 . S
O132 C140 1.284 . S
Zn133 O132 1.899 . S
Zn133 O134 2.032 . S
Zn133 O137 2.086 . S
Zn133 O142 1.977 1_554 S
O134 Zn133 2.032 . S
O134 C138 1.278 1_554 S
C135 O136 1.203 . S
C135 O142 1.267 . S
O136 C135 1.203 . S
O137 C130 1.185 . S
O137 Zn133 2.086 . S
C138 O134 1.278 1_556 S
C138 O139 1.211 . S
O139 C138 1.211 . S
C140 O132 1.284 . S
C140 O141 1.273 . S
O141 C140 1.273 . S
O142 Zn133 1.977 1_556 S
O142 C135 1.267 . S
C143 O144 1.160 . S
C143 O150 1.185 . S
O144 C143 1.160 . S
O145 Zn146 1.899 . S
O145 C153 1.284 . S
Zn146 O145 1.899 . S
Zn146 O147 2.032 . S
Zn146 O150 2.086 . S
Zn146 O155 1.977 . S
O147 Zn146 2.032 . S
O147 C151 1.278 . S
C148 O149 1.203 . S
C148 O155 1.267 . S
O149 C148 1.203 . S
O150 C143 1.185 . S
O150 Zn146 2.086 . S
C151 O147 1.278 . S
C151 O152 1.211 . S
O152 C151 1.211 . S
C153 O145 1.284 . S
C153 O154 1.273 . S
O154 C153 1.273 . S
O155 Zn146 1.977 . S
O155 C148 1.267 . S
C156 O157 1.160 . S
C156 O163 1.185 . S
O157 C156 1.160 . S
O158 Zn159 1.899 . S
O158 C166 1.284 . S
Zn159 O158 1.899 . S
Zn159 O160 2.032 . S
Zn159 O163 2.086 . S
Zn159 O168 1.977 . S
O160 Zn159 2.032 . S
O160 C164 1.278 . S
C161 O162 1.203 . S
C161 O168 1.267 . S
O162 C161 1.203 . S
O163 C156 1.185 . S
O163 Zn159 2.086 . S
C164 O160 1.278 . S
C164 O165 1.211 . S
O165 C164 1.211 . S
C166 O158 1.284 . S
C166 O167 1.273 . S
O167 C166 1.273 . S
O168 Zn159 1.977 . S
O168 C161 1.267 . S
C169 O170 1.160 . S
C169 O176 1.185 . S
O170 C169 1.160 . S
O171 Zn172 1.899 . S
O171 C179 1.284 . S
Zn172 O171 1.899 . S
Zn172 O173 2.032 . S
Zn172 O176 2.086 . S
Zn172 O181 1.977 . S
O173 Zn172 2.032 . S
O173 C177 1.278 . S
C174 O175 1.203 . S
C174 O181 1.267 . S
O175 C174 1.203 . S
O176 C169 1.185 . S
O176 Zn172 2.086 . S
C177 O173 1.278 . S
C177 O178 1.211 . S
O178 C177 1.211 . S
C179 O171 1.284 . S
C179 O180 1.273 . S
O180 C179 1.273 . S
O181 Zn172 1.977 . S
O181 C174 1.267 . S
C182 O183 1.160 . S
C182 O189 1.185 1_556 S
O183 C182 1.160 . S
O184 Zn185 1.899 1_556 S
O184 C192 1.284 . S
Zn185 O184 1.899 1_554 S
Zn185 O186 2.032 . S
Zn185 O189 2.086 . S
Zn185 O194 1.977 . S
O186 Zn185 2.032 . S
O186 C190 1.278 . S
C187 O188 1.203 . S
C187 O194 1.267 . S
O188 C187 1.203 . S
O189 C182 1.185 1_554 S
O189 Zn185 2.086 . S
C190 O186 1.278 . S
C190 O191 1.211 . S
O191 C190 1.211 . S
C192 O184 1.284 . S
C192 O193 1.273 . S
O193 C192 1.273 . S
O194 Zn185 1.977 . S
O194 C187 1.267 . S
C195 O196 1.160 . S
C195 O202 1.185 . S
O196 C195 1.160 . S
O197 Zn198 1.899 . S
O197 C205 1.284 . S
Zn198 O197 1.899 . S
Zn198 O199 2.032 . S
Zn198 O202 2.086 . S
Zn198 O207 1.977 . S
O199 Zn198 2.032 . S
O199 C203 1.278 . S
C200 O201 1.203 . S
C200 O207 1.267 . S
O201 C200 1.203 . S
O202 C195 1.185 . S
O202 Zn198 2.086 . S
C203 O199 1.278 . S
C203 O204 1.211 . S
O204 C203 1.211 . S
C205 O197 1.284 . S
C205 O206 1.273 . S
O206 C205 1.273 . S
O207 Zn198 1.977 . S
O207 C200 1.267 . S
C208 C209 1.391 . S
C208 C210 1.394 . S
C208 H224 0.931 . S
C209 C208 1.391 . S
C209 C213 1.376 . S
C210 C208 1.394 . S
C210 C211 1.369 . S
C210 C214 1.531 . S
C211 C210 1.369 . S
C211 C212 1.410 . S
C211 C219 1.503 . S
C212 C211 1.410 . S
C212 C213 1.392 . S
C212 C215 1.511 . S
C213 C209 1.376 . S
C213 C212 1.392 . S
C213 H225 0.929 . S
C214 C210 1.531 . S
C214 H226 0.960 . S
C214 H227 0.962 . S
C214 H228 0.960 . S
C215 C212 1.511 . S
C215 H229 0.961 . S
C215 H230 0.961 . S
C215 H231 0.961 . S
C216 C217 1.370 . S
C216 C218 1.363 . S
C216 H232 0.931 . S
C217 C216 1.370 . S
C217 C221 1.408 . S
C218 C216 1.363 . S
C218 C219 1.370 . S
C218 C222 1.524 . S
C219 C211 1.503 . S
C219 C218 1.370 . S
C219 C220 1.403 . S
C220 C219 1.403 . S
C220 C221 1.404 . S
C220 C223 1.539 . S
C221 C217 1.408 . S
C221 C220 1.404 . S
C221 H233 0.930 . S
C222 C218 1.524 . S
C222 H234 0.956 . S
C222 H235 0.961 . S
C222 H236 0.961 . S
C223 C220 1.539 . S
C223 H237 0.958 . S
C223 H238 0.961 . S
C223 H239 0.960 . S
H224 C208 0.931 . S
H225 C213 0.929 . S
H226 C214 0.960 . S
H227 C214 0.962 . S
H228 C214 0.960 . S
H229 C215 0.961 . S
H230 C215 0.961 . S
H231 C215 0.961 . S
H232 C216 0.931 . S
H233 C221 0.930 . S
H234 C222 0.956 . S
H235 C222 0.961 . S
H236 C222 0.961 . S
H237 C223 0.958 . S
H238 C223 0.961 . S
H239 C223 0.960 . S
C240 C241 1.391 . S
C240 C242 1.416 . S
C240 H256 0.931 . S
C241 C240 1.391 . S
C241 C245 1.376 . S
C242 C240 1.416 . S
C242 C243 1.377 . S
C242 C246 1.500 1_655 S
C243 C242 1.377 . S
C243 C244 1.410 . S
C243 C251 1.503 1_655 S
C244 C243 1.410 . S
C244 C245 1.392 . S
C244 C247 1.511 . S
C245 C241 1.376 . S
C245 C244 1.392 . S
C245 H257 0.929 . S
C246 C242 1.500 1_455 S
C246 H258 0.960 . S
C246 H259 0.962 . S
C246 H260 0.960 . S
C247 C244 1.511 . S
C247 H261 0.961 . S
C247 H262 0.961 . S
C247 H263 0.961 . S
C248 C249 1.370 1_565 S
C248 C250 1.363 . S
C248 H264 0.931 . S
C249 C248 1.370 1_545 S
C249 C253 1.408 . S
C250 C248 1.363 . S
C250 C251 1.370 1_565 S
C250 C254 1.524 1_455 S
C251 C243 1.503 1_455 S
C251 C250 1.370 1_545 S
C251 C252 1.403 . S
C252 C251 1.403 . S
C252 C253 1.404 . S
C252 C255 1.539 . S
C253 C249 1.408 . S
C253 C252 1.404 . S
C253 H265 0.930 . S
C254 C250 1.524 1_655 S
C254 H266 0.953 1_655 S
C254 H267 0.961 . S
C254 H268 0.961 . S
C255 C252 1.539 . S
C255 H269 0.958 . S
C255 H270 0.961 . S
C255 H271 0.960 . S
H256 C240 0.931 . S
H257 C245 0.929 . S
H258 C246 0.960 . S
H259 C246 0.962 . S
H260 C246 0.960 . S
H261 C247 0.961 . S
H262 C247 0.961 . S
H263 C247 0.961 . S
H264 C248 0.931 . S
H265 C253 0.930 . S
H266 C254 0.953 1_455 S
H267 C254 0.961 . S
H268 C254 0.961 . S
H269 C255 0.958 . S
H270 C255 0.961 . S
H271 C255 0.960 . S
C272 C273 1.391 . S
C272 C274 1.394 . S
C272 H288 0.931 . S
C273 C272 1.391 . S
C273 C277 1.376 . S
C274 C272 1.394 . S
C274 C275 1.369 . S
C274 C278 1.531 . S
C275 C274 1.369 . S
C275 C276 1.410 . S
C275 C283 1.503 . S
C276 C275 1.410 . S
C276 C277 1.392 . S
C276 C279 1.511 . S
C277 C273 1.376 . S
C277 C276 1.392 . S
C277 H289 0.929 . S
C278 C274 1.531 . S
C278 H290 0.960 . S
C278 H291 0.962 . S
C278 H292 0.960 . S
C279 C276 1.511 . S
C279 H293 0.961 . S
C279 H294 0.961 . S
C279 H295 0.961 . S
C280 C281 1.370 . S
C280 C282 1.363 . S
C280 H296 0.931 . S
C281 C280 1.370 . S
C281 C285 1.408 . S
C282 C280 1.363 . S
C282 C283 1.370 . S
C282 C286 1.524 . S
C283 C275 1.503 . S
C283 C282 1.370 . S
C283 C284 1.403 . S
C284 C283 1.403 . S
C284 C285 1.404 . S
C284 C287 1.539 . S
C285 C281 1.408 . S
C285 C284 1.404 . S
C285 H297 0.930 . S
C286 C282 1.524 . S
C286 H298 0.956 . S
C286 H299 0.961 . S
C286 H300 0.961 . S
C287 C284 1.539 . S
C287 H301 0.958 . S
C287 H302 0.961 . S
C287 H303 0.960 . S
H288 C272 0.931 . S
H289 C277 0.929 . S
H290 C278 0.960 . S
H291 C278 0.962 . S
H292 C278 0.960 . S
H293 C279 0.961 . S
H294 C279 0.961 . S
H295 C279 0.961 . S
H296 C280 0.931 . S
H297 C285 0.930 . S
H298 C286 0.956 . S
H299 C286 0.961 . S
H300 C286 0.961 . S
H301 C287 0.958 . S
H302 C287 0.961 . S
H303 C287 0.960 . S
C304 C305 1.391 . S
C304 C306 1.394 . S
C304 H320 0.931 . S
C305 C304 1.391 . S
C305 C309 1.376 . S
C306 C304 1.394 . S
C306 C307 1.369 . S
C306 C310 1.531 1_554 S
C307 C306 1.369 . S
C307 C308 1.410 . S
C307 C315 1.503 1_554 S
C308 C307 1.410 . S
C308 C309 1.392 . S
C308 C311 1.511 . S
C309 C305 1.376 . S
C309 C308 1.392 . S
C309 H321 0.929 . S
C310 C306 1.531 1_556 S
C310 H322 0.960 . S
C310 H323 0.962 1_545 S
C310 H324 0.960 . S
C311 C308 1.511 . S
C311 H325 0.961 . S
C311 H326 0.961 . S
C311 H327 0.961 . S
C312 C313 1.370 1_565 S
C312 C314 1.359 1_566 S
C312 H328 0.931 . S
C313 C312 1.370 1_545 S
C313 C317 1.408 . S
C314 C312 1.359 1_544 S
C314 C315 1.370 1_554 S
C314 C318 1.529 1_545 S
C315 C307 1.503 1_556 S
C315 C314 1.370 1_556 S
C315 C316 1.403 . S
C316 C315 1.403 . S
C316 C317 1.404 . S
C316 C319 1.539 . S
C317 C313 1.408 . S
C317 C316 1.404 . S
C317 H329 0.930 . S
C318 C314 1.529 1_565 S
C318 H330 0.956 . S
C318 H331 0.961 . S
C318 H332 0.961 . S
C319 C316 1.539 . S
C319 H333 0.958 . S
C319 H334 0.961 . S
C319 H335 0.960 . S
H320 C304 0.931 . S
H321 C309 0.929 . S
H322 C310 0.960 . S
H323 C310 0.962 1_565 S
H324 C310 0.960 . S
H325 C311 0.961 . S
H326 C311 0.961 . S
H327 C311 0.961 . S
H328 C312 0.931 . S
H329 C317 0.930 . S
H330 C318 0.956 . S
H331 C318 0.961 . S
H332 C318 0.961 . S
H333 C319 0.958 . S
H334 C319 0.961 . S
H335 C319 0.960 . S
C336 C337 1.391 . S
C336 C338 1.394 . S
C336 H352 0.931 . S
C337 C336 1.391 . S
C337 C341 1.376 . S
C338 C336 1.394 . S
C338 C339 1.369 . S
C338 C342 1.531 . S
C339 C338 1.369 . S
C339 C340 1.410 . S
C339 C347 1.503 . S
C340 C339 1.410 . S
C340 C341 1.392 . S
C340 C343 1.511 . S
C341 C337 1.376 . S
C341 C340 1.392 . S
C341 H353 0.929 . S
C342 C338 1.531 . S
C342 H354 0.960 . S
C342 H355 0.962 . S
C342 H356 0.960 . S
C343 C340 1.511 . S
C343 H357 0.961 . S
C343 H358 0.961 . S
C343 H359 0.961 . S
C344 C345 1.370 . S
C344 C346 1.363 . S
C344 H360 0.931 . S
C345 C344 1.370 . S
C345 C349 1.408 . S
C346 C344 1.363 . S
C346 C347 1.370 . S
C346 C350 1.524 . S
C347 C339 1.503 . S
C347 C346 1.370 . S
C347 C348 1.403 . S
C348 C347 1.403 . S
C348 C349 1.404 . S
C348 C351 1.539 . S
C349 C345 1.408 . S
C349 C348 1.404 . S
C349 H361 0.930 . S
C350 C346 1.524 . S
C350 H362 0.956 . S
C350 H363 0.961 . S
C350 H364 0.961 . S
C351 C348 1.539 . S
C351 H365 0.958 . S
C351 H366 0.961 . S
C351 H367 0.960 . S
H352 C336 0.931 . S
H353 C341 0.929 . S
H354 C342 0.960 . S
H355 C342 0.962 . S
H356 C342 0.960 . S
H357 C343 0.961 . S
H358 C343 0.961 . S
H359 C343 0.961 . S
H360 C344 0.931 . S
H361 C349 0.930 . S
H362 C350 0.956 . S
H363 C350 0.961 . S
H364 C350 0.961 . S
H365 C351 0.958 . S
H366 C351 0.961 . S
H367 C351 0.960 . S
C368 C369 1.391 . S
C368 C370 1.394 . S
C368 H384 0.931 1_545 S
C369 C368 1.391 . S
C369 C373 1.376 . S
C370 C368 1.394 . S
C370 C371 1.369 . S
C370 C374 1.542 . S
C371 C370 1.369 . S
C371 C372 1.410 . S
C371 C379 1.503 . S
C372 C371 1.410 . S
C372 C373 1.392 . S
C372 C375 1.511 . S
C373 C369 1.376 . S
C373 C372 1.392 . S
C373 H385 0.929 . S
C374 C370 1.542 . S
C374 H386 0.972 . S
C374 H387 0.940 1_545 S
C374 H388 0.959 1_545 S
C375 C372 1.511 . S
C375 H389 0.961 . S
C375 H390 0.961 . S
C375 H391 0.961 . S
C376 C377 1.370 . S
C376 C378 1.363 . S
C376 H392 0.931 1_545 S
C377 C376 1.370 . S
C377 C381 1.408 . S
C378 C376 1.363 . S
C378 C379 1.370 . S
C378 C382 1.524 1_545 S
C379 C371 1.503 . S
C379 C378 1.370 . S
C379 C380 1.403 . S
C380 C379 1.403 . S
C380 C381 1.404 . S
C380 C383 1.539 . S
C381 C377 1.408 . S
C381 C380 1.404 . S
C381 H393 0.930 . S
C382 C378 1.524 1_565 S
C382 H394 0.956 . S
C382 H395 0.961 . S
C382 H396 0.961 . S
C383 C380 1.539 . S
C383 H397 0.958 . S
C383 H398 0.961 . S
C383 H399 0.960 . S
H384 C368 0.931 1_565 S
H385 C373 0.929 . S
H386 C374 0.972 . S
H387 C374 0.940 1_565 S
H388 C374 0.959 1_565 S
H389 C375 0.961 . S
H390 C375 0.961 . S
H391 C375 0.961 . S
H392 C376 0.931 1_565 S
H393 C381 0.930 . S
H394 C382 0.956 . S
H395 C382 0.961 . S
H396 C382 0.961 . S
H397 C383 0.958 . S
H398 C383 0.961 . S
H399 C383 0.960 . S
C400 C401 1.391 . S
C400 C402 1.394 . S
C400 H416 0.931 . S
C401 C400 1.391 . S
C401 C405 1.376 . S
C402 C400 1.394 . S
C402 C403 1.369 . S
C402 C406 1.531 . S
C403 C402 1.369 . S
C403 C404 1.410 . S
C403 C411 1.503 . S
C404 C403 1.410 . S
C404 C405 1.392 . S
C404 C407 1.511 . S
C405 C401 1.376 . S
C405 C404 1.392 . S
C405 H417 0.929 . S
C406 C402 1.531 . S
C406 H418 0.960 . S
C406 H419 0.962 . S
C406 H420 0.960 . S
C407 C404 1.511 . S
C407 H421 0.961 . S
C407 H422 0.961 . S
C407 H423 0.961 . S
C408 C409 1.370 . S
C408 C410 1.363 . S
C408 H424 0.931 . S
C409 C408 1.370 . S
C409 C413 1.408 . S
C410 C408 1.363 . S
C410 C411 1.370 . S
C410 C414 1.524 . S
C411 C403 1.503 . S
C411 C410 1.370 . S
C411 C412 1.403 . S
C412 C411 1.403 . S
C412 C413 1.404 . S
C412 C415 1.539 . S
C413 C409 1.408 . S
C413 C412 1.404 . S
C413 H425 0.930 . S
C414 C410 1.524 . S
C414 H426 0.956 . S
C414 H427 0.961 . S
C414 H428 0.961 . S
C415 C412 1.539 . S
C415 H429 0.958 . S
C415 H430 0.961 . S
C415 H431 0.960 . S
H416 C400 0.931 . S
H417 C405 0.929 . S
H418 C406 0.960 . S
H419 C406 0.962 . S
H420 C406 0.960 . S
H421 C407 0.961 . S
H422 C407 0.961 . S
H423 C407 0.961 . S
H424 C408 0.931 . S
H425 C413 0.930 . S
H426 C414 0.956 . S
H427 C414 0.961 . S
H428 C414 0.961 . S
H429 C415 0.958 . S
H430 C415 0.961 . S
H431 C415 0.960 . S
C432 C433 1.391 . S
C432 C434 1.394 . S
C432 H448 0.931 . S
C433 C432 1.391 . S
C433 C437 1.376 . S
C434 C432 1.394 . S
C434 C435 1.369 . S
C434 C438 1.531 1_455 S
C435 C434 1.369 . S
C435 C436 1.410 1_556 S
C435 C443 1.503 1_456 S
C436 C435 1.410 1_554 S
C436 C437 1.392 1_554 S
C436 C439 1.511 1_545 S
C437 C433 1.376 . S
C437 C436 1.392 1_556 S
C437 H449 0.929 . S
C438 C434 1.531 1_655 S
C438 H450 0.960 . S
C438 H451 0.962 . S
C438 H452 0.960 . S
C439 C436 1.511 1_565 S
C439 H453 0.961 1_565 S
C439 H454 0.961 1_565 S
C439 H455 0.961 . S
C440 C441 1.370 . S
C440 C442 1.363 . S
C440 H456 0.931 . S
C441 C440 1.370 . S
C441 C445 1.408 1_545 S
C442 C440 1.363 . S
C442 C443 1.370 . S
C442 C446 1.524 1_655 S
C443 C435 1.503 1_654 S
C443 C442 1.370 . S
C443 C444 1.403 1_545 S
C444 C443 1.403 1_565 S
C444 C445 1.404 . S
C444 C447 1.539 . S
C445 C441 1.408 1_565 S
C445 C444 1.404 . S
C445 H457 0.930 . S
C446 C442 1.524 1_455 S
C446 H458 0.956 . S
C446 H459 0.961 . S
C446 H460 0.961 . S
C447 C444 1.539 . S
C447 H461 0.958 1_554 S
C447 H462 0.961 . S
C447 H463 0.960 1_554 S
H448 C432 0.931 . S
H449 C437 0.929 . S
H450 C438 0.960 . S
H451 C438 0.962 . S
H452 C438 0.960 . S
H453 C439 0.961 1_545 S
H454 C439 0.961 1_545 S
H455 C439 0.961 . S
H456 C440 0.931 . S
H457 C445 0.930 . S
H458 C446 0.956 . S
H459 C446 0.961 . S
H460 C446 0.961 . S
H461 C447 0.958 1_556 S
H462 C447 0.961 . S
H463 C447 0.960 1_556 S
C464 C465 1.391 . S
C464 C466 1.394 . S
C464 H480 0.931 . S
C465 C464 1.391 . S
C465 C469 1.376 . S
C466 C464 1.394 . S
C466 C467 1.369 . S
C466 C470 1.531 . S
C467 C466 1.369 . S
C467 C468 1.410 . S
C467 C475 1.503 . S
C468 C467 1.410 . S
C468 C469 1.392 . S
C468 C471 1.511 . S
C469 C465 1.376 . S
C469 C468 1.392 . S
C469 H481 0.929 . S
C470 C466 1.531 . S
C470 H482 0.960 . S
C470 H483 0.962 . S
C470 H484 0.960 . S
C471 C468 1.511 . S
C471 H485 0.961 . S
C471 H486 0.961 . S
C471 H487 0.961 . S
C472 C473 1.370 . S
C472 C474 1.363 . S
C472 H488 0.931 . S
C473 C472 1.370 . S
C473 C477 1.408 . S
C474 C472 1.363 . S
C474 C475 1.370 . S
C474 C478 1.524 . S
C475 C467 1.503 . S
C475 C474 1.370 . S
C475 C476 1.403 . S
C476 C475 1.403 . S
C476 C477 1.404 . S
C476 C479 1.539 . S
C477 C473 1.408 . S
C477 C476 1.404 . S
C477 H489 0.930 . S
C478 C474 1.524 . S
C478 H490 0.956 . S
C478 H491 0.961 . S
C478 H492 0.961 . S
C479 C476 1.539 . S
C479 H493 0.958 . S
C479 H494 0.961 . S
C479 H495 0.960 . S
H480 C464 0.931 . S
H481 C469 0.929 . S
H482 C470 0.960 . S
H483 C470 0.962 . S
H484 C470 0.960 . S
H485 C471 0.961 . S
H486 C471 0.961 . S
H487 C471 0.961 . S
H488 C472 0.931 . S
H489 C477 0.930 . S
H490 C478 0.956 . S
H491 C478 0.961 . S
H492 C478 0.961 . S
H493 C479 0.958 . S
H494 C479 0.961 . S
H495 C479 0.960 . S
C496 C497 1.391 . S
C496 C498 1.394 . S
C496 H512 0.931 . S
C497 C496 1.391 . S
C497 C501 1.376 . S
C498 C496 1.394 . S
C498 C499 1.369 . S
C498 C502 1.531 . S
C499 C498 1.369 . S
C499 C500 1.410 . S
C499 C507 1.503 . S
C500 C499 1.410 . S
C500 C501 1.392 . S
C500 C503 1.511 . S
C501 C497 1.376 . S
C501 C500 1.392 . S
C501 H513 0.929 . S
C502 C498 1.531 . S
C502 H514 0.960 . S
C502 H515 0.962 . S
C502 H516 0.960 . S
C503 C500 1.511 . S
C503 H517 0.961 . S
C503 H518 0.961 . S
C503 H519 0.961 . S
C504 C505 1.370 . S
C504 C506 1.363 . S
C504 H520 0.931 . S
C505 C504 1.370 . S
C505 C509 1.408 . S
C506 C504 1.363 . S
C506 C507 1.370 . S
C506 C510 1.524 . S
C507 C499 1.503 . S
C507 C506 1.370 . S
C507 C508 1.403 . S
C508 C507 1.403 . S
C508 C509 1.404 . S
C508 C511 1.539 . S
C509 C505 1.408 . S
C509 C508 1.404 . S
C509 H521 0.930 . S
C510 C506 1.524 . S
C510 H522 0.956 . S
C510 H523 0.961 . S
C510 H524 0.961 . S
C511 C508 1.539 . S
C511 H525 0.958 . S
C511 H526 0.961 . S
C511 H527 0.960 . S
H512 C496 0.931 . S
H513 C501 0.929 . S
H514 C502 0.960 . S
H515 C502 0.962 . S
H516 C502 0.960 . S
H517 C503 0.961 . S
H518 C503 0.961 . S
H519 C503 0.961 . S
H520 C504 0.931 . S
H521 C509 0.930 . S
H522 C510 0.956 . S
H523 C510 0.961 . S
H524 C510 0.961 . S
H525 C511 0.958 . S
H526 C511 0.961 . S
H527 C511 0.960 . S
C528 C529 1.391 . S
C528 C530 1.394 . S
C528 H544 0.931 . S
C529 C528 1.391 . S
C529 C533 1.376 . S
C530 C528 1.394 . S
C530 C531 1.369 . S
C530 C534 1.531 . S
C531 C530 1.369 . S
C531 C532 1.410 . S
C531 C539 1.503 . S
C532 C531 1.410 . S
C532 C533 1.392 . S
C532 C535 1.511 . S
C533 C529 1.376 . S
C533 C532 1.392 . S
C533 H545 0.929 . S
C534 C530 1.531 . S
C534 H546 0.960 . S
C534 H547 0.962 . S
C534 H548 0.960 . S
C535 C532 1.511 . S
C535 H549 0.961 . S
C535 H550 0.961 . S
C535 H551 0.961 . S
C536 C537 1.370 . S
C536 C538 1.363 . S
C536 H552 0.931 . S
C537 C536 1.370 . S
C537 C541 1.408 . S
C538 C536 1.363 . S
C538 C539 1.370 . S
C538 C542 1.524 . S
C539 C531 1.503 . S
C539 C538 1.370 . S
C539 C540 1.403 . S
C540 C539 1.403 . S
C540 C541 1.404 . S
C540 C543 1.539 . S
C541 C537 1.408 . S
C541 C540 1.404 . S
C541 H553 0.930 . S
C542 C538 1.524 . S
C542 H554 0.956 . S
C542 H555 0.961 . S
C542 H556 0.961 . S
C543 C540 1.539 . S
C543 H557 0.958 . S
C543 H558 0.961 . S
C543 H559 0.960 . S
H544 C528 0.931 . S
H545 C533 0.929 . S
H546 C534 0.960 . S
H547 C534 0.962 . S
H548 C534 0.960 . S
H549 C535 0.961 . S
H550 C535 0.961 . S
H551 C535 0.961 . S
H552 C536 0.931 . S
H553 C541 0.930 . S
H554 C542 0.956 . S
H555 C542 0.961 . S
H556 C542 0.961 . S
H557 C543 0.958 . S
H558 C543 0.961 . S
H559 C543 0.960 . S
C560 C561 1.391 . S
C560 C562 1.394 . S
C560 H576 0.931 . S
C561 C560 1.391 . S
C561 C565 1.376 . S
C562 C560 1.394 . S
C562 C563 1.369 . S
C562 C566 1.531 . S
C563 C562 1.369 . S
C563 C564 1.410 . S
C563 C571 1.503 . S
C564 C563 1.410 . S
C564 C565 1.392 . S
C564 C567 1.511 . S
C565 C561 1.376 . S
C565 C564 1.392 . S
C565 H577 0.929 . S
C566 C562 1.531 . S
C566 H578 0.960 . S
C566 H579 0.962 . S
C566 H580 0.960 . S
C567 C564 1.511 . S
C567 H581 0.961 . S
C567 H582 0.961 . S
C567 H583 0.961 . S
C568 C569 1.370 . S
C568 C570 1.363 . S
C568 H584 0.931 . S
C569 C568 1.370 . S
C569 C573 1.408 . S
C570 C568 1.363 . S
C570 C571 1.370 . S
C570 C574 1.524 . S
C571 C563 1.503 . S
C571 C570 1.370 . S
C571 C572 1.403 . S
C572 C571 1.403 . S
C572 C573 1.404 . S
C572 C575 1.539 . S
C573 C569 1.408 . S
C573 C572 1.404 . S
C573 H585 0.930 . S
C574 C570 1.524 . S
C574 H586 0.956 . S
C574 H587 0.961 . S
C574 H588 0.961 . S
C575 C572 1.539 . S
C575 H589 0.958 . S
C575 H590 0.961 . S
C575 H591 0.960 . S
H576 C560 0.931 . S
H577 C565 0.929 . S
H578 C566 0.960 . S
H579 C566 0.962 . S
H580 C566 0.960 . S
H581 C567 0.961 . S
H582 C567 0.961 . S
H583 C567 0.961 . S
H584 C568 0.931 . S
H585 C573 0.930 . S
H586 C574 0.956 . S
H587 C574 0.961 . S
H588 C574 0.961 . S
H589 C575 0.958 . S
H590 C575 0.961 . S
H591 C575 0.960 . S
C592 C593 1.391 . S
C592 C594 1.394 . S
C592 H608 0.931 . S
C593 C592 1.391 . S
C593 C597 1.376 . S
C594 C592 1.394 . S
C594 C595 1.369 . S
C594 C598 1.531 . S
C595 C594 1.369 . S
C595 C596 1.410 . S
C595 C603 1.509 . S
C596 C595 1.410 . S
C596 C597 1.392 . S
C596 C599 1.511 1_554 S
C597 C593 1.376 . S
C597 C596 1.392 . S
C597 H609 0.929 . S
C598 C594 1.531 . S
C598 H610 0.960 . S
C598 H611 0.962 . S
C598 H612 0.960 . S
C599 C596 1.511 1_556 S
C599 H613 0.961 . S
C599 H614 0.961 . S
C599 H615 0.961 . S
C600 C601 1.370 . S
C600 C602 1.363 . S
C600 H616 0.931 . S
C601 C600 1.370 . S
C601 C605 1.408 . S
C602 C600 1.363 . S
C602 C603 1.366 1_556 S
C602 C606 1.524 . S
C603 C595 1.509 . S
C603 C602 1.366 1_554 S
C603 C604 1.402 1_554 S
C604 C603 1.402 1_556 S
C604 C605 1.404 . S
C604 C607 1.539 1_556 S
C605 C601 1.408 . S
C605 C604 1.404 . S
C605 H617 0.930 . S
C606 C602 1.524 . S
C606 H618 0.956 1_556 S
C606 H619 0.961 . S
C606 H620 0.961 . S
C607 C604 1.539 1_554 S
C607 H621 0.958 . S
C607 H622 0.961 . S
C607 H623 0.960 . S
H608 C592 0.931 . S
H609 C597 0.929 . S
H610 C598 0.960 . S
H611 C598 0.962 . S
H612 C598 0.960 . S
H613 C599 0.961 . S
H614 C599 0.961 . S
H615 C599 0.961 . S
H616 C600 0.931 . S
H617 C605 0.930 . S
H618 C606 0.956 1_554 S
H619 C606 0.961 . S
H620 C606 0.961 . S
H621 C607 0.958 . S
H622 C607 0.961 . S
H623 C607 0.960 . S
C624 C625 1.391 . S
C624 C626 1.394 . S
C624 H640 0.931 . S
C625 C624 1.391 . S
C625 C629 1.376 . S
C626 C624 1.394 . S
C626 C627 1.369 . S
C626 C630 1.531 . S
C627 C626 1.369 . S
C627 C628 1.425 . S
C627 C635 1.503 1_455 S
C628 C627 1.425 . S
C628 C629 1.428 . S
C628 C631 1.463 1_455 S
C629 C625 1.376 . S
C629 C628 1.428 . S
C629 H641 0.929 . S
C630 C626 1.531 . S
C630 H642 0.960 . S
C630 H643 0.962 . S
C630 H644 0.960 . S
C631 C628 1.463 1_655 S
C631 H645 0.961 . S
C631 H646 0.961 . S
C631 H647 0.961 . S
C632 C633 1.370 . S
C632 C634 1.363 . S
C632 H648 0.931 . S
C633 C632 1.370 . S
C633 C637 1.408 . S
C634 C632 1.363 . S
C634 C635 1.370 . S
C634 C638 1.524 . S
C635 C627 1.503 1_655 S
C635 C634 1.370 . S
C635 C636 1.403 . S
C636 C635 1.403 . S
C636 C637 1.404 . S
C636 C639 1.539 . S
C637 C633 1.408 . S
C637 C636 1.404 . S
C637 H649 0.930 . S
C638 C634 1.524 . S
C638 H650 0.956 1_655 S
C638 H651 0.961 . S
C638 H652 0.961 . S
C639 C636 1.539 . S
C639 H653 0.958 1_655 S
C639 H654 0.961 . S
C639 H655 0.960 . S
H640 C624 0.931 . S
H641 C629 0.929 . S
H642 C630 0.960 . S
H643 C630 0.962 . S
H644 C630 0.960 . S
H645 C631 0.961 . S
H646 C631 0.961 . S
H647 C631 0.961 . S
H648 C632 0.931 . S
H649 C637 0.930 . S
H650 C638 0.956 1_455 S
H651 C638 0.961 . S
H652 C638 0.961 . S
H653 C639 0.958 1_455 S
H654 C639 0.961 . S
H655 C639 0.960 . S
C656 C657 1.391 . S
C656 C658 1.394 . S
C656 H672 0.931 . S
C657 C656 1.391 . S
C657 C661 1.376 . S
C658 C656 1.394 . S
C658 C659 1.369 . S
C658 C662 1.531 1_554 S
C659 C658 1.369 . S
C659 C660 1.410 . S
C659 C667 1.503 1_454 S
C660 C659 1.410 . S
C660 C661 1.392 . S
C660 C663 1.511 1_455 S
C661 C657 1.376 . S
C661 C660 1.392 . S
C661 H673 0.929 . S
C662 C658 1.531 1_556 S
C662 H674 0.960 . S
C662 H675 0.962 . S
C662 H676 0.960 . S
C663 C660 1.511 1_655 S
C663 H677 0.961 . S
C663 H678 0.961 . S
C663 H679 0.961 . S
C664 C665 1.370 . S
C664 C666 1.363 . S
C664 H680 0.931 . S
C665 C664 1.370 . S
C665 C669 1.408 . S
C666 C664 1.363 . S
C666 C667 1.370 . S
C666 C670 1.524 1_556 S
C667 C659 1.503 1_656 S
C667 C666 1.370 . S
C667 C668 1.403 . S
C668 C667 1.403 . S
C668 C669 1.404 . S
C668 C671 1.539 . S
C669 C665 1.408 . S
C669 C668 1.404 . S
C669 H681 0.930 . S
C670 C666 1.524 1_554 S
C670 H682 0.956 1_654 S
C670 H683 0.961 . S
C670 H684 0.961 1_554 S
C671 C668 1.539 . S
C671 H685 0.958 1_655 S
C671 H686 0.961 . S
C671 H687 0.960 1_556 S
H672 C656 0.931 . S
H673 C661 0.929 . S
H674 C662 0.960 . S
H675 C662 0.962 . S
H676 C662 0.960 . S
H677 C663 0.961 . S
H678 C663 0.961 . S
H679 C663 0.961 . S
H680 C664 0.931 . S
H681 C669 0.930 . S
H682 C670 0.956 1_456 S
H683 C670 0.961 . S
H684 C670 0.961 1_556 S
H685 C671 0.958 1_455 S
H686 C671 0.961 . S
H687 C671 0.960 1_554 S
C688 C689 1.391 . S
C688 C690 1.394 . S
C688 H704 0.931 . S
C689 C688 1.391 . S
C689 C693 1.376 . S
C690 C688 1.394 . S
C690 C691 1.369 . S
C690 C694 1.531 . S
C691 C690 1.369 . S
C691 C692 1.410 . S
C691 C699 1.503 . S
C692 C691 1.410 . S
C692 C693 1.392 . S
C692 C695 1.511 . S
C693 C689 1.376 . S
C693 C692 1.392 . S
C693 H705 0.929 . S
C694 C690 1.531 . S
C694 H706 0.960 . S
C694 H707 0.962 . S
C694 H708 0.960 . S
C695 C692 1.511 . S
C695 H709 0.961 . S
C695 H710 0.961 . S
C695 H711 0.961 . S
C696 C697 1.370 . S
C696 C698 1.363 . S
C696 H712 0.931 . S
C697 C696 1.370 . S
C697 C701 1.408 . S
C698 C696 1.363 . S
C698 C699 1.370 . S
C698 C702 1.524 . S
C699 C691 1.503 . S
C699 C698 1.370 . S
C699 C700 1.403 . S
C700 C699 1.403 . S
C700 C701 1.404 . S
C700 C703 1.539 . S
C701 C697 1.408 . S
C701 C700 1.404 . S
C701 H713 0.930 . S
C702 C698 1.524 . S
C702 H714 0.956 . S
C702 H715 0.961 . S
C702 H716 0.961 . S
C703 C700 1.539 . S
C703 H717 0.958 . S
C703 H718 0.961 . S
C703 H719 0.960 . S
H704 C688 0.931 . S
H705 C693 0.929 . S
H706 C694 0.960 . S
H707 C694 0.962 . S
H708 C694 0.960 . S
H709 C695 0.961 . S
H710 C695 0.961 . S
H711 C695 0.961 . S
H712 C696 0.931 . S
H713 C701 0.930 . S
H714 C702 0.956 . S
H715 C702 0.961 . S
H716 C702 0.961 . S
H717 C703 0.958 . S
H718 C703 0.961 . S
H719 C703 0.960 . S
C720 C721 1.391 . S
C720 C722 1.394 . S
C720 H736 0.931 . S
C721 C720 1.391 . S
C721 C725 1.376 . S
C722 C720 1.394 . S
C722 C723 1.369 . S
C722 C726 1.531 . S
C723 C722 1.369 . S
C723 C724 1.410 . S
C723 C731 1.503 . S
C724 C723 1.410 . S
C724 C725 1.392 . S
C724 C727 1.511 . S
C725 C721 1.376 . S
C725 C724 1.392 . S
C725 H737 0.929 . S
C726 C722 1.531 . S
C726 H738 0.960 . S
C726 H739 0.962 . S
C726 H740 0.960 . S
C727 C724 1.511 . S
C727 H741 0.961 . S
C727 H742 0.961 . S
C727 H743 0.961 . S
C728 C729 1.370 . S
C728 C730 1.363 . S
C728 H744 0.931 . S
C729 C728 1.370 . S
C729 C733 1.408 . S
C730 C728 1.363 . S
C730 C731 1.370 . S
C730 C734 1.524 . S
C731 C723 1.503 . S
C731 C730 1.370 . S
C731 C732 1.403 . S
C732 C731 1.403 . S
C732 C733 1.404 . S
C732 C735 1.539 . S
C733 C729 1.408 . S
C733 C732 1.404 . S
C733 H745 0.930 . S
C734 C730 1.524 . S
C734 H746 0.956 . S
C734 H747 0.961 . S
C734 H748 0.961 . S
C735 C732 1.539 . S
C735 H749 0.958 . S
C735 H750 0.961 . S
C735 H751 0.960 . S
H736 C720 0.931 . S
H737 C725 0.929 . S
H738 C726 0.960 . S
H739 C726 0.962 . S
H740 C726 0.960 . S
H741 C727 0.961 . S
H742 C727 0.961 . S
H743 C727 0.961 . S
H744 C728 0.931 . S
H745 C733 0.930 . S
H746 C734 0.956 . S
H747 C734 0.961 . S
H748 C734 0.961 . S
H749 C735 0.958 . S
H750 C735 0.961 . S
H751 C735 0.960 . S
C752 C753 1.391 . S
C752 C754 1.394 . S
C752 H768 0.931 . S
C753 C752 1.391 . S
C753 C757 1.376 . S
C754 C752 1.394 . S
C754 C755 1.369 . S
C754 C758 1.531 . S
C755 C754 1.369 . S
C755 C756 1.410 . S
C755 C763 1.503 . S
C756 C755 1.410 . S
C756 C757 1.392 . S
C756 C759 1.511 . S
C757 C753 1.376 . S
C757 C756 1.392 . S
C757 H769 0.929 . S
C758 C754 1.531 . S
C758 H770 0.960 . S
C758 H771 0.962 . S
C758 H772 0.960 . S
C759 C756 1.511 . S
C759 H773 0.961 . S
C759 H774 0.961 . S
C759 H775 0.961 . S
C760 C761 1.370 . S
C760 C762 1.363 . S
C760 H776 0.931 . S
C761 C760 1.370 . S
C761 C765 1.408 . S
C762 C760 1.363 . S
C762 C763 1.370 . S
C762 C766 1.524 . S
C763 C755 1.503 . S
C763 C762 1.370 . S
C763 C764 1.403 . S
C764 C763 1.403 . S
C764 C765 1.404 . S
C764 C767 1.539 . S
C765 C761 1.408 . S
C765 C764 1.404 . S
C765 H777 0.930 . S
C766 C762 1.524 . S
C766 H778 0.956 . S
C766 H779 0.961 . S
C766 H780 0.961 . S
C767 C764 1.539 . S
C767 H781 0.958 . S
C767 H782 0.961 . S
C767 H783 0.960 . S
H768 C752 0.931 . S
H769 C757 0.929 . S
H770 C758 0.960 . S
H771 C758 0.962 . S
H772 C758 0.960 . S
H773 C759 0.961 . S
H774 C759 0.961 . S
H775 C759 0.961 . S
H776 C760 0.931 . S
H777 C765 0.930 . S
H778 C766 0.956 . S
H779 C766 0.961 . S
H780 C766 0.961 . S
H781 C767 0.958 . S
H782 C767 0.961 . S
H783 C767 0.960 . S
C784 C785 1.391 . S
C784 C786 1.394 . S
C784 H800 0.931 . S
C785 C784 1.391 . S
C785 C789 1.376 . S
C786 C784 1.394 . S
C786 C787 1.369 . S
C786 C790 1.531 . S
C787 C786 1.369 . S
C787 C788 1.410 . S
C787 C795 1.503 . S
C788 C787 1.410 . S
C788 C789 1.392 . S
C788 C791 1.511 . S
C789 C785 1.376 . S
C789 C788 1.392 . S
C789 H801 0.929 . S
C790 C786 1.531 . S
C790 H802 0.960 . S
C790 H803 0.962 . S
C790 H804 0.960 . S
C791 C788 1.511 . S
C791 H805 0.961 . S
C791 H806 0.961 . S
C791 H807 0.961 . S
C792 C793 1.370 . S
C792 C794 1.363 . S
C792 H808 0.931 . S
C793 C792 1.370 . S
C793 C797 1.408 . S
C794 C792 1.363 . S
C794 C795 1.370 . S
C794 C798 1.524 . S
C795 C787 1.503 . S
C795 C794 1.370 . S
C795 C796 1.403 . S
C796 C795 1.403 . S
C796 C797 1.404 . S
C796 C799 1.539 . S
C797 C793 1.408 . S
C797 C796 1.404 . S
C797 H809 0.930 . S
C798 C794 1.524 . S
C798 H810 0.956 . S
C798 H811 0.961 . S
C798 H812 0.961 . S
C799 C796 1.539 . S
C799 H813 0.958 . S
C799 H814 0.961 . S
C799 H815 0.960 . S
H800 C784 0.931 . S
H801 C789 0.929 . S
H802 C790 0.960 . S
H803 C790 0.962 . S
H804 C790 0.960 . S
H805 C791 0.961 . S
H806 C791 0.961 . S
H807 C791 0.961 . S
H808 C792 0.931 . S
H809 C797 0.930 . S
H810 C798 0.956 . S
H811 C798 0.961 . S
H812 C798 0.961 . S
H813 C799 0.958 . S
H814 C799 0.961 . S
H815 C799 0.960 . S
C816 C817 1.391 1_554 S
C816 C818 1.394 1_554 S
C816 H832 0.931 . S
C817 C816 1.391 1_556 S
C817 C821 1.376 . S
C818 C816 1.394 1_556 S
C818 C819 1.369 . S
C818 C822 1.531 1_556 S
C819 C818 1.369 . S
C819 C820 1.410 . S
C819 C827 1.503 . S
C820 C819 1.410 . S
C820 C821 1.392 . S
C820 C823 1.511 . S
C821 C817 1.376 . S
C821 C820 1.392 . S
C821 H833 0.929 . S
C822 C818 1.531 1_554 S
C822 H834 0.960 1_554 S
C822 H835 0.962 1_554 S
C822 H836 0.960 . S
C823 C820 1.511 . S
C823 H837 0.961 . S
C823 H838 0.961 . S
C823 H839 0.961 . S
C824 C825 1.370 . S
C824 C826 1.363 . S
C824 H840 0.931 . S
C825 C824 1.370 . S
C825 C829 1.408 . S
C826 C824 1.363 . S
C826 C827 1.370 . S
C826 C830 1.524 . S
C827 C819 1.503 . S
C827 C826 1.370 . S
C827 C828 1.403 . S
C828 C827 1.403 . S
C828 C829 1.404 . S
C828 C831 1.539 . S
C829 C825 1.408 . S
C829 C828 1.404 . S
C829 H841 0.930 . S
C830 C826 1.524 . S
C830 H842 0.956 . S
C830 H843 0.961 . S
C830 H844 0.961 . S
C831 C828 1.539 . S
C831 H845 0.958 . S
C831 H846 0.961 . S
C831 H847 0.960 . S
H832 C816 0.931 . S
H833 C821 0.929 . S
H834 C822 0.960 1_556 S
H835 C822 0.962 1_556 S
H836 C822 0.960 . S
H837 C823 0.961 . S
H838 C823 0.961 . S
H839 C823 0.961 . S
H840 C824 0.931 . S
H841 C829 0.930 . S
H842 C830 0.956 . S
H843 C830 0.961 . S
H844 C830 0.961 . S
H845 C831 0.958 . S
H846 C831 0.961 . S
H847 C831 0.960 . S
C848 C849 1.391 . S
C848 C850 1.394 . S
C848 H864 0.931 . S
C849 C848 1.391 . S
C849 C853 1.376 . S
C850 C848 1.394 . S
C850 C851 1.369 . S
C850 C854 1.531 . S
C851 C850 1.369 . S
C851 C852 1.410 . S
C851 C859 1.503 . S
C852 C851 1.410 . S
C852 C853 1.392 . S
C852 C855 1.511 . S
C853 C849 1.376 . S
C853 C852 1.392 . S
C853 H865 0.929 . S
C854 C850 1.531 . S
C854 H866 0.960 . S
C854 H867 0.962 . S
C854 H868 0.960 . S
C855 C852 1.511 . S
C855 H869 0.961 . S
C855 H870 0.961 . S
C855 H871 0.961 . S
C856 C857 1.370 . S
C856 C858 1.363 . S
C856 H872 0.931 . S
C857 C856 1.370 . S
C857 C861 1.408 . S
C858 C856 1.363 . S
C858 C859 1.370 . S
C858 C862 1.524 . S
C859 C851 1.503 . S
C859 C858 1.370 . S
C859 C860 1.403 . S
C860 C859 1.403 . S
C860 C861 1.404 . S
C860 C863 1.539 . S
C861 C857 1.408 . S
C861 C860 1.404 . S
C861 H873 0.930 . S
C862 C858 1.524 . S
C862 H874 0.956 . S
C862 H875 0.961 . S
C862 H876 0.961 . S
C863 C860 1.539 . S
C863 H877 0.958 . S
C863 H878 0.961 . S
C863 H879 0.960 . S
H864 C848 0.931 . S
H865 C853 0.929 . S
H866 C854 0.960 . S
H867 C854 0.962 . S
H868 C854 0.960 . S
H869 C855 0.961 . S
H870 C855 0.961 . S
H871 C855 0.961 . S
H872 C856 0.931 . S
H873 C861 0.930 . S
H874 C862 0.956 . S
H875 C862 0.961 . S
H876 C862 0.961 . S
H877 C863 0.958 . S
H878 C863 0.961 . S
H879 C863 0.960 . S
C880 C881 1.391 . S
C880 C882 1.394 . S
C880 H896 0.931 . S
C881 C880 1.391 . S
C881 C885 1.376 . S
C882 C880 1.394 . S
C882 C883 1.369 . S
C882 C886 1.531 . S
C883 C882 1.369 . S
C883 C884 1.410 . S
C883 C891 1.503 . S
C884 C883 1.410 . S
C884 C885 1.392 . S
C884 C887 1.511 . S
C885 C881 1.376 . S
C885 C884 1.392 . S
C885 H897 0.929 . S
C886 C882 1.531 . S
C886 H898 0.960 . S
C886 H899 0.962 . S
C886 H900 0.960 . S
C887 C884 1.511 . S
C887 H901 0.961 . S
C887 H902 0.961 . S
C887 H903 0.961 . S
C888 C889 1.370 . S
C888 C890 1.363 . S
C888 H904 0.931 . S
C889 C888 1.370 . S
C889 C893 1.408 . S
C890 C888 1.363 . S
C890 C891 1.370 . S
C890 C894 1.524 . S
C891 C883 1.503 . S
C891 C890 1.370 . S
C891 C892 1.403 . S
C892 C891 1.403 . S
C892 C893 1.404 . S
C892 C895 1.539 . S
C893 C889 1.408 . S
C893 C892 1.404 . S
C893 H905 0.930 . S
C894 C890 1.524 . S
C894 H906 0.956 . S
C894 H907 0.961 . S
C894 H908 0.961 . S
C895 C892 1.539 . S
C895 H909 0.958 . S
C895 H910 0.961 . S
C895 H911 0.960 . S
H896 C880 0.931 . S
H897 C885 0.929 . S
H898 C886 0.960 . S
H899 C886 0.962 . S
H900 C886 0.960 . S
H901 C887 0.961 . S
H902 C887 0.961 . S
H903 C887 0.961 . S
H904 C888 0.931 . S
H905 C893 0.930 . S
H906 C894 0.956 . S
H907 C894 0.961 . S
H908 C894 0.961 . S
H909 C895 0.958 . S
H910 C895 0.961 . S
H911 C895 0.960 . S
C912 C913 1.391 . S
C912 C914 1.394 . S
C912 H928 0.931 . S
C913 C912 1.391 . S
C913 C917 1.376 . S
C914 C912 1.394 . S
C914 C915 1.369 . S
C914 C918 1.531 . S
C915 C914 1.369 . S
C915 C916 1.410 . S
C915 C923 1.503 . S
C916 C915 1.410 . S
C916 C917 1.392 . S
C916 C919 1.511 . S
C917 C913 1.376 . S
C917 C916 1.392 . S
C917 H929 0.929 . S
C918 C914 1.531 . S
C918 H930 0.960 . S
C918 H931 0.962 . S
C918 H932 0.960 . S
C919 C916 1.511 . S
C919 H933 0.961 . S
C919 H934 0.961 . S
C919 H935 0.961 . S
C920 C921 1.370 . S
C920 C922 1.363 . S
C920 H936 0.931 . S
C921 C920 1.370 . S
C921 C925 1.408 1_556 S
C922 C920 1.363 . S
C922 C923 1.370 . S
C922 C926 1.524 . S
C923 C915 1.503 . S
C923 C922 1.370 . S
C923 C924 1.403 . S
C924 C923 1.403 . S
C924 C925 1.404 1_556 S
C924 C927 1.539 1_556 S
C925 C921 1.408 1_554 S
C925 C924 1.404 1_554 S
C925 H937 0.930 . S
C926 C922 1.524 . S
C926 H938 0.956 . S
C926 H939 0.961 . S
C926 H940 0.961 . S
C927 C924 1.539 1_554 S
C927 H941 0.958 . S
C927 H942 0.961 . S
C927 H943 0.960 . S
H928 C912 0.931 . S
H929 C917 0.929 . S
H930 C918 0.960 . S
H931 C918 0.962 . S
H932 C918 0.960 . S
H933 C919 0.961 . S
H934 C919 0.961 . S
H935 C919 0.961 . S
H936 C920 0.931 . S
H937 C925 0.930 . S
H938 C926 0.956 . S
H939 C926 0.961 . S
H940 C926 0.961 . S
H941 C927 0.958 . S
H942 C927 0.961 . S
H943 C927 0.960 . S
C944 C945 1.391 . S
C944 C946 1.394 . S
C944 H960 0.931 . S
C945 C944 1.391 . S
C945 C949 1.376 . S
C946 C944 1.394 . S
C946 C947 1.369 . S
C946 C950 1.531 . S
C947 C946 1.369 . S
C947 C948 1.410 . S
C947 C955 1.503 . S
C948 C947 1.410 . S
C948 C949 1.392 . S
C948 C951 1.511 . S
C949 C945 1.376 . S
C949 C948 1.392 . S
C949 H961 0.929 . S
C950 C946 1.531 . S
C950 H962 0.960 . S
C950 H963 0.962 . S
C950 H964 0.960 . S
C951 C948 1.511 . S
C951 H965 0.961 . S
C951 H966 0.961 . S
C951 H967 0.961 . S
C952 C953 1.370 . S
C952 C954 1.363 . S
C952 H968 0.931 . S
C953 C952 1.370 . S
C953 C957 1.408 . S
C954 C952 1.363 . S
C954 C955 1.370 . S
C954 C958 1.524 . S
C955 C947 1.503 . S
C955 C954 1.370 . S
C955 C956 1.403 . S
C956 C955 1.403 . S
C956 C957 1.404 . S
C956 C959 1.539 . S
C957 C953 1.408 . S
C957 C956 1.404 . S
C957 H969 0.930 . S
C958 C954 1.524 . S
C958 H970 0.956 . S
C958 H971 0.961 . S
C958 H972 0.961 . S
C959 C956 1.539 . S
C959 H973 0.958 . S
C959 H974 0.961 . S
C959 H975 0.960 . S
H960 C944 0.931 . S
H961 C949 0.929 . S
H962 C950 0.960 . S
H963 C950 0.962 . S
H964 C950 0.960 . S
H965 C951 0.961 . S
H966 C951 0.961 . S
H967 C951 0.961 . S
H968 C952 0.931 . S
H969 C957 0.930 . S
H970 C958 0.956 . S
H971 C958 0.961 . S
H972 C958 0.961 . S
H973 C959 0.958 . S
H974 C959 0.961 . S
H975 C959 0.960 . S
C976 C977 1.391 . S
C976 C978 1.394 . S
C976 H992 0.931 . S
C977 C976 1.391 . S
C977 C981 1.376 . S
C978 C976 1.394 . S
C978 C979 1.369 . S
C978 C982 1.531 . S
C979 C978 1.369 . S
C979 C980 1.410 . S
C979 C987 1.503 . S
C980 C979 1.410 . S
C980 C981 1.392 . S
C980 C983 1.511 . S
C981 C977 1.376 . S
C981 C980 1.392 . S
C981 H993 0.929 . S
C982 C978 1.531 . S
C982 H994 0.960 . S
C982 H995 0.962 . S
C982 H996 0.960 . S
C983 C980 1.511 . S
C983 H997 0.961 . S
C983 H998 0.961 . S
C983 H999 0.961 . S
C984 C985 1.370 . S
C984 C986 1.363 . S
C984 H1000 0.931 . S
C985 C984 1.370 . S
C985 C989 1.408 . S
C986 C984 1.363 . S
C986 C987 1.370 . S
C986 C990 1.524 . S
C987 C979 1.503 . S
C987 C986 1.370 . S
C987 C988 1.403 . S
C988 C987 1.403 . S
C988 C989 1.404 . S
C988 C991 1.539 . S
C989 C985 1.408 . S
C989 C988 1.404 . S
C989 H1001 0.930 . S
C990 C986 1.524 . S
C990 H1002 0.956 . S
C990 H1003 0.961 . S
C990 H1004 0.954 1_556 S
C991 C988 1.539 . S
C991 H1005 0.958 . S
C991 H1006 0.961 . S
C991 H1007 0.960 . S
H992 C976 0.931 . S
H993 C981 0.929 . S
H994 C982 0.960 . S
H995 C982 0.962 . S
H996 C982 0.960 . S
H997 C983 0.961 . S
H998 C983 0.961 . S
H999 C983 0.961 . S
H1000 C984 0.931 . S
H1001 C989 0.930 . S
H1002 C990 0.956 . S
H1003 C990 0.961 . S
H1004 C990 0.954 1_554 S
H1005 C991 0.958 . S
H1006 C991 0.961 . S
H1007 C991 0.960 . S
C1008 C1009 1.391 . S
C1008 C1010 1.394 . S
C1008 H1024 0.931 . S
C1009 C1008 1.391 . S
C1009 C1013 1.376 . S
C1010 C1008 1.394 . S
C1010 C1011 1.369 . S
C1010 C1014 1.531 . S
C1011 C1010 1.369 . S
C1011 C1012 1.410 . S
C1011 C1019 1.503 . S
C1012 C1011 1.410 . S
C1012 C1013 1.392 . S
C1012 C1015 1.511 . S
C1013 C1009 1.376 . S
C1013 C1012 1.392 . S
C1013 H1025 0.929 . S
C1014 C1010 1.531 . S
C1014 H1026 0.960 . S
C1014 H1027 0.962 . S
C1014 H1028 0.960 . S
C1015 C1012 1.511 . S
C1015 H1029 0.961 . S
C1015 H1030 0.961 . S
C1015 H1031 0.961 . S
C1016 C1017 1.370 . S
C1016 C1018 1.363 . S
C1016 H1032 0.931 . S
C1017 C1016 1.370 . S
C1017 C1021 1.408 . S
C1018 C1016 1.363 . S
C1018 C1019 1.370 . S
C1018 C1022 1.524 . S
C1019 C1011 1.503 . S
C1019 C1018 1.370 . S
C1019 C1020 1.403 . S
C1020 C1019 1.403 . S
C1020 C1021 1.404 . S
C1020 C1023 1.539 . S
C1021 C1017 1.408 . S
C1021 C1020 1.404 . S
C1021 H1033 0.930 . S
C1022 C1018 1.524 . S
C1022 H1034 0.956 . S
C1022 H1035 0.961 . S
C1022 H1036 0.961 . S
C1023 C1020 1.539 . S
C1023 H1037 0.958 . S
C1023 H1038 0.961 . S
C1023 H1039 0.960 . S
H1024 C1008 0.931 . S
H1025 C1013 0.929 . S
H1026 C1014 0.960 . S
H1027 C1014 0.962 . S
H1028 C1014 0.960 . S
H1029 C1015 0.961 . S
H1030 C1015 0.961 . S
H1031 C1015 0.961 . S
H1032 C1016 0.931 . S
H1033 C1021 0.930 . S
H1034 C1022 0.956 . S
H1035 C1022 0.961 . S
H1036 C1022 0.961 . S
H1037 C1023 0.958 . S
H1038 C1023 0.961 . S
H1039 C1023 0.960 . S
C1040 C1041 1.391 . S
C1040 C1042 1.394 . S
C1040 H1056 0.931 . S
C1041 C1040 1.391 . S
C1041 C1045 1.376 . S
C1042 C1040 1.394 . S
C1042 C1043 1.369 . S
C1042 C1046 1.531 . S
C1043 C1042 1.369 . S
C1043 C1044 1.410 . S
C1043 C1051 1.503 . S
C1044 C1043 1.410 . S
C1044 C1045 1.392 . S
C1044 C1047 1.511 . S
C1045 C1041 1.376 . S
C1045 C1044 1.392 . S
C1045 H1057 0.929 . S
C1046 C1042 1.531 . S
C1046 H1058 0.960 . S
C1046 H1059 0.962 . S
C1046 H1060 0.960 . S
C1047 C1044 1.511 . S
C1047 H1061 0.961 . S
C1047 H1062 0.961 . S
C1047 H1063 0.961 . S
C1048 C1049 1.370 . S
C1048 C1050 1.363 . S
C1048 H1064 0.931 . S
C1049 C1048 1.370 . S
C1049 C1053 1.408 . S
C1050 C1048 1.363 . S
C1050 C1051 1.370 . S
C1050 C1054 1.524 . S
C1051 C1043 1.503 . S
C1051 C1050 1.370 . S
C1051 C1052 1.403 . S
C1052 C1051 1.403 . S
C1052 C1053 1.404 . S
C1052 C1055 1.539 . S
C1053 C1049 1.408 . S
C1053 C1052 1.404 . S
C1053 H1065 0.930 . S
C1054 C1050 1.524 . S
C1054 H1066 0.956 . S
C1054 H1067 0.961 . S
C1054 H1068 0.961 . S
C1055 C1052 1.539 . S
C1055 H1069 0.958 . S
C1055 H1070 0.961 . S
C1055 H1071 0.960 . S
H1056 C1040 0.931 . S
H1057 C1045 0.929 . S
H1058 C1046 0.960 . S
H1059 C1046 0.962 . S
H1060 C1046 0.960 . S
H1061 C1047 0.961 . S
H1062 C1047 0.961 . S
H1063 C1047 0.961 . S
H1064 C1048 0.931 . S
H1065 C1053 0.930 . S
H1066 C1054 0.956 . S
H1067 C1054 0.961 . S
H1068 C1054 0.961 . S
H1069 C1055 0.958 . S
H1070 C1055 0.961 . S
H1071 C1055 0.960 . S
C1072 C1073 1.391 . S
C1072 C1074 1.394 . S
C1072 H1088 0.931 . S
C1073 C1072 1.391 . S
C1073 C1077 1.376 . S
C1074 C1072 1.394 . S
C1074 C1075 1.369 . S
C1074 C1078 1.531 . S
C1075 C1074 1.369 . S
C1075 C1076 1.410 . S
C1075 C1083 1.503 . S
C1076 C1075 1.410 . S
C1076 C1077 1.392 . S
C1076 C1079 1.511 . S
C1077 C1073 1.376 . S
C1077 C1076 1.392 . S
C1077 H1089 0.929 . S
C1078 C1074 1.531 . S
C1078 H1090 0.960 . S
C1078 H1091 0.962 . S
C1078 H1092 0.960 . S
C1079 C1076 1.511 . S
C1079 H1093 0.961 . S
C1079 H1094 0.961 . S
C1079 H1095 0.961 . S
C1080 C1081 1.370 . S
C1080 C1082 1.363 . S
C1080 H1096 0.931 . S
C1081 C1080 1.370 . S
C1081 C1085 1.408 . S
C1082 C1080 1.363 . S
C1082 C1083 1.370 . S
C1082 C1086 1.524 . S
C1083 C1075 1.503 . S
C1083 C1082 1.370 . S
C1083 C1084 1.403 . S
C1084 C1083 1.403 . S
C1084 C1085 1.404 . S
C1084 C1087 1.539 . S
C1085 C1081 1.408 . S
C1085 C1084 1.404 . S
C1085 H1097 0.930 . S
C1086 C1082 1.524 . S
C1086 H1098 0.956 . S
C1086 H1099 0.961 . S
C1086 H1100 0.961 . S
C1087 C1084 1.539 . S
C1087 H1101 0.958 . S
C1087 H1102 0.961 . S
C1087 H1103 0.960 . S
H1088 C1072 0.931 . S
H1089 C1077 0.929 . S
H1090 C1078 0.960 . S
H1091 C1078 0.962 . S
H1092 C1078 0.960 . S
H1093 C1079 0.961 . S
H1094 C1079 0.961 . S
H1095 C1079 0.961 . S
H1096 C1080 0.931 . S
H1097 C1085 0.930 . S
H1098 C1086 0.956 . S
H1099 C1086 0.961 . S
H1100 C1086 0.961 . S
H1101 C1087 0.958 . S
H1102 C1087 0.961 . S
H1103 C1087 0.960 . S
C1104 C1105 1.391 . S
C1104 C1106 1.394 . S
C1104 H1120 0.931 . S
C1105 C1104 1.391 . S
C1105 C1109 1.376 . S
C1106 C1104 1.394 . S
C1106 C1107 1.369 . S
C1106 C1110 1.531 . S
C1107 C1106 1.369 . S
C1107 C1108 1.410 . S
C1107 C1115 1.503 . S
C1108 C1107 1.410 . S
C1108 C1109 1.392 . S
C1108 C1111 1.511 . S
C1109 C1105 1.376 . S
C1109 C1108 1.392 . S
C1109 H1121 0.929 . S
C1110 C1106 1.531 . S
C1110 H1122 0.960 . S
C1110 H1123 0.962 . S
C1110 H1124 0.960 . S
C1111 C1108 1.511 . S
C1111 H1125 0.961 . S
C1111 H1126 0.961 . S
C1111 H1127 0.961 . S
C1112 C1113 1.370 . S
C1112 C1114 1.363 . S
C1112 H1128 0.931 . S
C1113 C1112 1.370 . S
C1113 C1117 1.408 . S
C1114 C1112 1.363 . S
C1114 C1115 1.370 . S
C1114 C1118 1.524 . S
C1115 C1107 1.503 . S
C1115 C1114 1.370 . S
C1115 C1116 1.403 . S
C1116 C1115 1.403 . S
C1116 C1117 1.404 . S
C1116 C1119 1.539 . S
C1117 C1113 1.408 . S
C1117 C1116 1.404 . S
C1117 H1129 0.930 . S
C1118 C1114 1.524 . S
C1118 H1130 0.956 . S
C1118 H1131 0.961 . S
C1118 H1132 0.961 . S
C1119 C1116 1.539 . S
C1119 H1133 0.958 . S
C1119 H1134 0.961 . S
C1119 H1135 0.960 . S
H1120 C1104 0.931 . S
H1121 C1109 0.929 . S
H1122 C1110 0.960 . S
H1123 C1110 0.962 . S
H1124 C1110 0.960 . S
H1125 C1111 0.961 . S
H1126 C1111 0.961 . S
H1127 C1111 0.961 . S
H1128 C1112 0.931 . S
H1129 C1117 0.930 . S
H1130 C1118 0.956 . S
H1131 C1118 0.961 . S
H1132 C1118 0.961 . S
H1133 C1119 0.958 . S
H1134 C1119 0.961 . S
H1135 C1119 0.960 . S
C1136 C1137 1.391 . S
C1136 C1138 1.394 . S
C1136 H1152 0.931 . S
C1137 C1136 1.391 . S
C1137 C1141 1.376 . S
C1138 C1136 1.394 . S
C1138 C1139 1.369 . S
C1138 C1142 1.531 . S
C1139 C1138 1.369 . S
C1139 C1140 1.410 . S
C1139 C1147 1.503 . S
C1140 C1139 1.410 . S
C1140 C1141 1.392 . S
C1140 C1143 1.511 . S
C1141 C1137 1.376 . S
C1141 C1140 1.392 . S
C1141 H1153 0.929 . S
C1142 C1138 1.531 . S
C1142 H1154 0.960 . S
C1142 H1155 0.962 . S
C1142 H1156 0.960 . S
C1143 C1140 1.511 . S
C1143 H1157 0.961 . S
C1143 H1158 0.961 . S
C1143 H1159 0.961 . S
C1144 C1145 1.370 . S
C1144 C1146 1.363 . S
C1144 H1160 0.931 . S
C1145 C1144 1.370 . S
C1145 C1149 1.408 . S
C1146 C1144 1.363 . S
C1146 C1147 1.370 . S
C1146 C1150 1.524 . S
C1147 C1139 1.503 . S
C1147 C1146 1.370 . S
C1147 C1148 1.403 . S
C1148 C1147 1.403 . S
C1148 C1149 1.404 . S
C1148 C1151 1.539 . S
C1149 C1145 1.408 . S
C1149 C1148 1.404 . S
C1149 H1161 0.930 . S
C1150 C1146 1.524 . S
C1150 H1162 0.956 . S
C1150 H1163 0.961 . S
C1150 H1164 0.961 . S
C1151 C1148 1.539 . S
C1151 H1165 0.958 . S
C1151 H1166 0.961 . S
C1151 H1167 0.960 . S
H1152 C1136 0.931 . S
H1153 C1141 0.929 . S
H1154 C1142 0.960 . S
H1155 C1142 0.962 . S
H1156 C1142 0.960 . S
H1157 C1143 0.961 . S
H1158 C1143 0.961 . S
H1159 C1143 0.961 . S
H1160 C1144 0.931 . S
H1161 C1149 0.930 . S
H1162 C1150 0.956 . S
H1163 C1150 0.961 . S
H1164 C1150 0.961 . S
H1165 C1151 0.958 . S
H1166 C1151 0.961 . S
H1167 C1151 0.960 . S
C1168 C1169 1.391 . S
C1168 C1170 1.394 . S
C1168 H1184 0.931 . S
C1169 C1168 1.391 . S
C1169 C1173 1.376 . S
C1170 C1168 1.394 . S
C1170 C1171 1.369 . S
C1170 C1174 1.531 . S
C1171 C1170 1.369 . S
C1171 C1172 1.410 . S
C1171 C1179 1.503 . S
C1172 C1171 1.410 . S
C1172 C1173 1.392 . S
C1172 C1175 1.511 . S
C1173 C1169 1.376 . S
C1173 C1172 1.392 . S
C1173 H1185 0.929 . S
C1174 C1170 1.531 . S
C1174 H1186 0.960 . S
C1174 H1187 0.962 . S
C1174 H1188 0.960 . S
C1175 C1172 1.511 . S
C1175 H1189 0.961 . S
C1175 H1190 0.961 . S
C1175 H1191 0.961 . S
C1176 C1177 1.370 . S
C1176 C1178 1.363 . S
C1176 H1192 0.931 . S
C1177 C1176 1.370 . S
C1177 C1181 1.408 . S
C1178 C1176 1.363 . S
C1178 C1179 1.370 . S
C1178 C1182 1.524 . S
C1179 C1171 1.503 . S
C1179 C1178 1.370 . S
C1179 C1180 1.403 . S
C1180 C1179 1.403 . S
C1180 C1181 1.404 . S
C1180 C1183 1.539 . S
C1181 C1177 1.408 . S
C1181 C1180 1.404 . S
C1181 H1193 0.930 . S
C1182 C1178 1.524 . S
C1182 H1194 0.956 . S
C1182 H1195 0.961 . S
C1182 H1196 0.961 . S
C1183 C1180 1.539 . S
C1183 H1197 0.958 . S
C1183 H1198 0.961 . S
C1183 H1199 0.960 . S
H1184 C1168 0.931 . S
H1185 C1173 0.929 . S
H1186 C1174 0.960 . S
H1187 C1174 0.962 . S
H1188 C1174 0.960 . S
H1189 C1175 0.961 . S
H1190 C1175 0.961 . S
H1191 C1175 0.961 . S
H1192 C1176 0.931 . S
H1193 C1181 0.930 . S
H1194 C1182 0.956 . S
H1195 C1182 0.961 . S
H1196 C1182 0.961 . S
H1197 C1183 0.958 . S
H1198 C1183 0.961 . S
H1199 C1183 0.960 . S
C1200 C1201 1.391 . S
C1200 C1202 1.394 . S
C1200 H1216 0.931 . S
C1201 C1200 1.391 . S
C1201 C1205 1.376 1_556 S
C1202 C1200 1.394 . S
C1202 C1203 1.369 . S
C1202 C1206 1.531 . S
C1203 C1202 1.369 . S
C1203 C1204 1.410 . S
C1203 C1211 1.503 . S
C1204 C1203 1.410 . S
C1204 C1205 1.392 1_556 S
C1204 C1207 1.511 1_556 S
C1205 C1201 1.376 1_554 S
C1205 C1204 1.392 1_554 S
C1205 H1217 0.929 . S
C1206 C1202 1.531 . S
C1206 H1218 0.960 . S
C1206 H1219 0.962 . S
C1206 H1220 0.960 . S
C1207 C1204 1.511 1_554 S
C1207 H1221 0.961 . S
C1207 H1222 0.961 1_554 S
C1207 H1223 0.961 . S
C1208 C1209 1.370 . S
C1208 C1210 1.363 . S
C1208 H1224 0.931 . S
C1209 C1208 1.370 . S
C1209 C1213 1.408 . S
C1210 C1208 1.363 . S
C1210 C1211 1.370 . S
C1210 C1214 1.524 . S
C1211 C1203 1.503 . S
C1211 C1210 1.370 . S
C1211 C1212 1.403 . S
C1212 C1211 1.403 . S
C1212 C1213 1.404 . S
C1212 C1215 1.539 . S
C1213 C1209 1.408 . S
C1213 C1212 1.404 . S
C1213 H1225 0.930 . S
C1214 C1210 1.524 . S
C1214 H1226 0.956 . S
C1214 H1227 0.961 . S
C1214 H1228 0.961 . S
C1215 C1212 1.539 . S
C1215 H1229 0.958 . S
C1215 H1230 0.961 . S
C1215 H1231 0.960 . S
H1216 C1200 0.931 . S
H1217 C1205 0.929 . S
H1218 C1206 0.960 . S
H1219 C1206 0.962 . S
H1220 C1206 0.960 . S
H1221 C1207 0.961 . S
H1222 C1207 0.961 1_556 S
H1223 C1207 0.961 . S
H1224 C1208 0.931 . S
H1225 C1213 0.930 . S
H1226 C1214 0.956 . S
H1227 C1214 0.961 . S
H1228 C1214 0.961 . S
H1229 C1215 0.958 . S
H1230 C1215 0.961 . S
H1231 C1215 0.960 . S
C209 C10 1.261 . S
C217 C166 1.270 . S
C241 C18 1.066 . S
C249 C70 1.002 . S
C273 C36 1.263 . S
C281 C192 1.269 . S
C305 C96 1.075 . S
C313 C44 1.000 . S
C337 C187 1.051 . S
C345 C31 1.014 . S
C369 C101 1.261 . S
C377 C49 1.270 . S
C401 C161 1.041 . S
C409 C5 1.011 . S
C433 C75 1.262 . S
C441 C23 1.270 . S
C465 C62 1.269 . S
C473 C114 1.267 . S
C497 C88 1.263 . S
C505 C140 1.269 . S
C529 C135 0.965 . S
C537 C83 1.045 . S
C561 C57 1.024 . S
C569 C109 1.018 . S
C593 C174 0.969 . S
C601 C122 1.042 . S
C625 C148 0.968 . S
C633 C200 1.045 . S
C657 C153 1.263 . S
C665 C205 1.269 . S
C689 C127 1.269 . S
C697 C179 1.267 . S
C721 C143 1.415 . S
C729 C0 1.433 . S
C753 C112 1.420 . S
C761 C21 1.471 . S
C785 C26 1.458 . S
C793 C117 1.416 . S
C817 C138 1.464 . S
C825 C47 1.450 . S
C849 C151 1.421 . S
C857 C34 1.469 . S
C881 C39 1.406 . S
C889 C104 1.439 . S
C913 C125 1.420 . S
C921 C8 1.470 . S
C945 C130 1.460 . S
C953 C13 1.416 . S
C977 C52 1.393 . S
C985 C195 1.443 . S
C1009 C164 1.456 . S
C1017 C73 1.449 . S
C1041 C78 1.417 . S
C1049 C169 1.437 . S
C1073 C99 1.452 . S
C1081 C190 1.450 . S
C1105 C86 1.474 . S
C1113 C203 1.456 . S
C1137 C156 1.449 . S
C1145 C91 1.423 . S
C1169 C177 1.443 . S
C1177 C60 1.468 . S
C1201 C182 1.421 . S
C1209 C65 1.428 . S
