# Generated by pormake.
# Topology umy, (4)-cn, num edge types: 1
# Building blocks:
#     Node 0, Type 0, BuildingBlock: NAHDIM_clean_sbu_0, # of connection points: 4
#     Node 1, Type 0, BuildingBlock: NAHDIM_clean_sbu_0, # of connection points: 4
#     Node 2, Type 0, BuildingBlock: NAHDIM_clean_sbu_0, # of connection points: 4
#     Node 3, Type 0, BuildingBlock: NAHDIM_clean_sbu_0, # of connection points: 4
#     Node 4, Type 0, BuildingBlock: NAHDIM_clean_sbu_0, # of connection points: 4
#     Node 5, Type 0, BuildingBlock: NAHDIM_clean_sbu_0, # of connection points: 4
#     Node 6, Type 0, BuildingBlock: NAHDIM_clean_sbu_0, # of connection points: 4
#     Node 7, Type 0, BuildingBlock: NAHDIM_clean_sbu_0, # of connection points: 4
#     Node 8, Type 0, BuildingBlock: NAHDIM_clean_sbu_0, # of connection points: 4
#     Node 9, Type 0, BuildingBlock: NAHDIM_clean_sbu_0, # of connection points: 4
#     Node 10, Type 0, BuildingBlock: NAHDIM_clean_sbu_0, # of connection points: 4
#     Node 11, Type 0, BuildingBlock: NAHDIM_clean_sbu_0, # of connection points: 4
#     Edge 12, Type (0, 0), BuildingBlock: KIFKEQ_clean_linker_1, # of connection points: 2
#     Edge 13, Type (0, 0), BuildingBlock: KIFKEQ_clean_linker_1, # of connection points: 2
#     Edge 14, Type (0, 0), BuildingBlock: KIFKEQ_clean_linker_1, # of connection points: 2
#     Edge 15, Type (0, 0), BuildingBlock: KIFKEQ_clean_linker_1, # of connection points: 2
#     Edge 16, Type (0, 0), BuildingBlock: KIFKEQ_clean_linker_1, # of connection points: 2
#     Edge 17, Type (0, 0), BuildingBlock: KIFKEQ_clean_linker_1, # of connection points: 2
#     Edge 18, Type (0, 0), BuildingBlock: KIFKEQ_clean_linker_1, # of connection points: 2
#     Edge 19, Type (0, 0), BuildingBlock: KIFKEQ_clean_linker_1, # of connection points: 2
#     Edge 20, Type (0, 0), BuildingBlock: KIFKEQ_clean_linker_1, # of connection points: 2
#     Edge 21, Type (0, 0), BuildingBlock: KIFKEQ_clean_linker_1, # of connection points: 2
#     Edge 22, Type (0, 0), BuildingBlock: KIFKEQ_clean_linker_1, # of connection points: 2
#     Edge 23, Type (0, 0), BuildingBlock: KIFKEQ_clean_linker_1, # of connection points: 2
#     Edge 24, Type (0, 0), BuildingBlock: KIFKEQ_clean_linker_1, # of connection points: 2
#     Edge 25, Type (0, 0), BuildingBlock: KIFKEQ_clean_linker_1, # of connection points: 2
#     Edge 26, Type (0, 0), BuildingBlock: KIFKEQ_clean_linker_1, # of connection points: 2
#     Edge 27, Type (0, 0), BuildingBlock: KIFKEQ_clean_linker_1, # of connection points: 2
#     Edge 28, Type (0, 0), BuildingBlock: KIFKEQ_clean_linker_1, # of connection points: 2
#     Edge 29, Type (0, 0), BuildingBlock: KIFKEQ_clean_linker_1, # of connection points: 2
#     Edge 30, Type (0, 0), BuildingBlock: KIFKEQ_clean_linker_1, # of connection points: 2
#     Edge 31, Type (0, 0), BuildingBlock: KIFKEQ_clean_linker_1, # of connection points: 2
#     Edge 32, Type (0, 0), BuildingBlock: KIFKEQ_clean_linker_1, # of connection points: 2
#     Edge 33, Type (0, 0), BuildingBlock: KIFKEQ_clean_linker_1, # of connection points: 2
#     Edge 34, Type (0, 0), BuildingBlock: KIFKEQ_clean_linker_1, # of connection points: 2
#     Edge 35, Type (0, 0), BuildingBlock: KIFKEQ_clean_linker_1, # of connection points: 2
# Relax obj value: 0.157
# Max RMSD: 0.142
# Mean RMSD: 0.142
data_MOF--net-umy--node1-NAHDIM_clean_sbu_0--edge1-KIFKEQ_clean_linker_1
_symmetry_space_group_name_H-M    P1
_symmetry_Int_Tables_number       1
_symmetry_cell_setting            triclinic
loop_
_symmetry_equiv_pos_as_xyz
'x, y, z'
_cell_length_a     39.549085
_cell_length_b     39.562462
_cell_length_c     49.31047
_cell_angle_alpha  90.035521
_cell_angle_beta   89.97413
_cell_angle_gamma 120.014
loop_
_atom_site_label
_atom_site_type_symbol
_atom_site_fract_x
_atom_site_fract_y
_atom_site_fract_z
_atom_type_partial_charge
C0 C 0.04476 0.39707 0.11161 0.0
O1 O 0.0281 0.36686 0.09523 0.0
O2 O 0.02589 0.30555 0.14934 0.0
Zn3 Zn 0.07439 0.35115 0.13434 0.0
O4 O 0.0897 0.33956 0.09821 0.0
C5 C 0.10902 0.36385 0.18626 0.0
O6 O 0.07493 0.35974 0.19275 0.0
O7 O 0.06642 0.39709 0.13063 0.0
C8 C 0.08752 0.30715 0.09279 0.0
O9 O 0.07374 0.27943 0.11119 0.0
C10 C -0.00387 0.27898 0.13717 0.0
O11 O -0.00573 0.27927 0.11058 0.0
O12 O 0.11688 0.36283 0.16139 0.0
C13 C 0.63169 0.01738 0.26021 0.0
O14 O 0.6362 0.98789 0.25304 0.0
O15 O 0.69779 0.99282 0.29229 0.0
Zn16 Zn 0.70839 0.04696 0.28343 0.0
O17 O 0.74762 0.07208 0.25347 0.0
C18 C 0.71494 0.0657 0.34008 0.0
O19 O 0.68447 0.03035 0.34138 0.0
O20 O 0.65874 0.04565 0.27328 0.0
C21 C 0.78347 0.08507 0.25874 0.0
O22 O 0.79343 0.08004 0.28319 0.0
C23 C 0.71706 0.97708 0.28385 0.0
O24 O 0.74568 -0.00413 0.26649 0.0
O25 O 0.73002 0.07959 0.31709 0.0
C26 C 0.60079 0.63961 0.42586 0.0
O27 O 0.62711 0.65729 0.40682 0.0
O28 O 0.69129 0.71513 0.46951 0.0
Zn29 Zn 0.64459 0.71379 0.45254 0.0
O30 O 0.65636 0.74275 0.41706 0.0
C31 C 0.64752 0.77629 0.48281 0.0
O32 O 0.67943 0.79561 0.46827 0.0
O33 O 0.60251 0.65817 0.44733 0.0
C34 C 0.69021 0.76821 0.40904 0.0
O35 O 0.72071 0.77605 0.42406 0.0
C36 C 0.71522 0.70629 0.45907 0.0
O37 O 0.71136 0.69545 0.43355 0.0
O38 O 0.62625 0.7397 0.47924 0.0
C39 C 0.98042 0.61315 0.59508 0.0
O40 O 0.01348 0.64621 0.59248 0.0
O41 O 0.00369 0.70642 0.62198 0.0
Zn42 Zn 0.94955 0.66259 0.61282 0.0
O43 O 0.92459 0.6762 0.58227 0.0
C44 C 0.93101 0.65306 0.66962 0.0
O45 O 0.96692 0.65953 0.67139 0.0
O46 O 0.95023 0.61364 0.6033 0.0
C47 C 0.9054 0.69329 0.58762 0.0
O48 O 0.90331 0.70284 0.61284 0.0
C49 C 0.01148 0.7417 0.62291 0.0
O50 O 0.98493 0.75023 0.61503 0.0
O51 O 0.91675 0.65212 0.64636 0.0
C52 C 0.35299 0.96653 0.77171 0.0
O53 O 0.34397 0.98883 0.75728 0.0
O54 O 0.28841 -0.00366 0.80375 0.0
Zn55 Zn 0.27796 0.94218 0.79487 0.0
O56 O 0.24451 0.91995 0.76147 0.0
C57 C 0.23702 0.87152 0.82714 0.0
O58 O 0.24143 0.85466 0.80553 0.0
O59 O 0.32889 0.94376 0.7893 0.0
C60 C 0.20752 0.90233 0.76342 0.0
O61 O 0.19146 0.89946 0.78726 0.0
C62 C 0.26231 0.00602 0.80203 0.0
O63 O 0.22785 0.9809 0.79226 0.0
O64 O 0.25054 0.90819 0.82704 0.0
C65 C 0.38943 0.36058 0.92569 0.0
O66 O 0.36193 0.34559 0.90714 0.0
O67 O 0.29154 0.3048 0.96262 0.0
Zn68 Zn 0.33493 0.29302 0.95607 0.0
O69 O 0.32342 0.25548 0.92521 0.0
C70 C 0.3168 0.25498 0.00841 0.0
O71 O 0.28315 0.25317 0.0042 0.0
O72 O 0.38415 0.343 0.94818 0.0
C73 C 0.29976 0.21926 0.92844 0.0
O74 O 0.28215 0.20676 0.95193 0.0
C75 C 0.25638 0.28441 0.95465 0.0
O76 O 0.24653 0.25415 0.93887 0.0
O77 O 0.34337 0.27037 0.99046 0.0
C78 C 0.59631 0.95209 0.73684 0.0
O79 O 0.61718 0.95031 0.75691 0.0
O80 O 0.69647 0.97969 0.69588 0.0
Zn81 Zn 0.64476 0.93228 0.70404 0.0
O82 O 0.64973 0.90029 0.73365 0.0
C83 C 0.62986 0.91491 0.64746 0.0
O84 O 0.63885 0.95168 0.6466 0.0
O85 O 0.60348 0.94608 0.71276 0.0
C86 C 0.67294 0.9136 0.75371 0.0
O87 O 0.69555 0.95151 0.75651 0.0
C88 C 0.70869 0.01423 0.70432 0.0
O89 O 0.68705 0.02111 0.72113 0.0
O90 O 0.62927 0.89965 0.67025 0.0
C91 C 0.64816 0.60394 0.89238 0.0
O92 O 0.6641 0.63115 0.91108 0.0
O93 O 0.7167 0.69856 0.85234 0.0
Zn94 Zn 0.72097 0.6531 0.86601 0.0
O95 O 0.75038 0.66396 0.90121 0.0
C96 C 0.78537 0.66458 0.83339 0.0
O97 O 0.80306 0.69586 0.84871 0.0
O98 O 0.66723 0.60707 0.87089 0.0
C99 C 0.77498 0.69749 0.91027 0.0
O100 O 0.78216 0.72874 0.89642 0.0
C101 C 0.70725 0.72028 0.86542 0.0
O102 O 0.69983 0.71456 0.8915 0.0
O103 O 0.74931 0.64068 0.8373 0.0
C104 C 0.03272 0.64102 0.07445 0.0
O105 O 0.0249 0.65937 0.09348 0.0
O106 O 0.99371 0.69887 0.03144 0.0
Zn107 Zn 0.0464 0.70748 0.04248 0.0
O108 O 0.06911 0.74383 0.07427 0.0
C109 C 0.07258 0.71859 0.98696 0.0
O110 O 0.03788 0.68793 0.98303 0.0
O111 O 0.0424 0.65613 0.05099 0.0
C112 C 0.08307 0.78011 0.07022 0.0
O113 O 0.08038 0.79212 0.04589 0.0
C114 C 0.97766 0.71797 0.03961 0.0
O115 O -0.00491 0.74523 0.05808 0.0
O116 O 0.08283 0.73175 0.01087 0.0
C117 C 0.38668 0.02603 0.21846 0.0
O118 O 0.35222 -0.00359 0.2246 0.0
O119 O 0.29769 0.01396 0.18881 0.0
Zn120 Zn 0.34183 0.06293 0.20467 0.0
O121 O 0.32837 0.07765 0.24054 0.0
C122 C 0.3429 0.12977 0.1786 0.0
O123 O 0.32565 0.13138 0.20092 0.0
O124 O 0.38915 0.05726 0.20944 0.0
C125 C 0.29467 0.07176 0.24679 0.0
O126 O 0.2659 0.05411 0.22936 0.0
C127 C 0.27053 0.98349 0.19996 0.0
O128 O 0.26885 0.98044 0.22651 0.0
O129 O 0.35363 0.10448 0.17658 0.0
C130 C 0.36511 0.3761 0.39098 0.0
O131 O 0.36567 0.35214 0.37276 0.0
O132 O 0.29012 0.27807 0.37851 0.0
Zn133 Zn 0.28205 0.32241 0.39015 0.0
O134 O 0.24308 0.30754 0.42043 0.0
C135 C 0.26563 0.33115 0.33393 0.0
O136 O 0.2846 0.31249 0.32884 0.0
O137 O 0.33277 0.36866 0.40149 0.0
C138 C 0.20699 0.28756 0.41468 0.0
O139 O 0.19661 0.27554 0.38961 0.0
C140 C 0.26765 0.24204 0.38353 0.0
O141 O 0.23696 0.23121 0.39908 0.0
O142 O 0.26152 0.33874 0.35836 0.0
C143 C 0.95749 0.35195 0.55762 0.0
O144 O 0.98155 0.34259 0.56923 0.0
O145 O 0.96807 0.27328 0.52464 0.0
Zn146 Zn 0.91983 0.27199 0.5391 0.0
O147 O 0.90008 0.24257 0.57431 0.0
C148 C 0.86569 0.20838 0.50651 0.0
O149 O 0.87854 0.19008 0.52187 0.0
O150 O 0.92914 0.32648 0.54369 0.0
C151 C 0.90759 0.21692 0.58328 0.0
O152 O 0.93117 0.20888 0.56956 0.0
C153 C -0.00149 0.27766 0.53654 0.0
O154 O 0.00186 0.2824 0.56296 0.0
O155 O 0.87859 0.24455 0.51047 0.0
H156 H 0.01947 0.60366 0.12329 0.0
H157 H 0.04307 0.5941 0.03886 0.0
H158 H 0.01933 0.54306 0.133 0.0
H159 H 0.04336 0.53396 0.04867 0.0
H160 H 0.00476 0.40834 0.07082 0.0
H161 H -0.00119 0.46589 0.06252 0.0
H162 H 0.06776 0.52081 0.13402 0.0
H163 H 0.07336 0.46311 0.14256 0.0
C164 C 0.02452 0.58861 0.1068 0.0
C165 C 0.03138 0.60374 0.08032 0.0
C166 C 0.02462 0.55403 0.1124 0.0
C167 C 0.03135 0.5338 0.0916 0.0
C168 C 0.03762 0.54864 0.06507 0.0
C169 C 0.0377 0.58326 0.05949 0.0
C170 C 0.01847 0.43258 0.08487 0.0
C171 C 0.0397 0.43123 0.10727 0.0
C172 C 0.0152 0.46561 0.08003 0.0
C173 C 0.03295 0.4979 0.09756 0.0
C174 C 0.05344 0.49622 0.12031 0.0
C175 C 0.05685 0.46325 0.12509 0.0
H176 H 0.615 0.07523 0.2705 0.0
H177 H 0.56677 0.96081 0.23418 0.0
H178 H 0.55564 0.07632 0.25936 0.0
H179 H 0.50739 0.96222 0.2227 0.0
H180 H 0.39196 0.96356 0.23678 0.0
H181 H 0.45119 0.96087 0.246 0.0
H182 H 0.52131 0.08024 0.21906 0.0
H183 H 0.46228 0.0832 0.21019 0.0
C184 C 0.59179 0.05035 0.26004 0.0
C185 C 0.59562 0.01793 0.25321 0.0
C186 C 0.55786 0.0511 0.25351 0.0
C187 C 0.52693 0.01943 0.24006 0.0
C188 C 0.53064 0.98692 0.23328 0.0
C189 C 0.56471 0.98621 0.23974 0.0
C190 C 0.42001 0.98919 0.23273 0.0
C191 C 0.42241 0.02367 0.2229 0.0
C192 C 0.45391 0.98755 0.23787 0.0
C193 C 0.49088 0.0204 0.23337 0.0
C194 C 0.49323 0.05463 0.2231 0.0
C195 C 0.45939 0.05624 0.21789 0.0
H196 H 0.58265 0.59486 0.38007 0.0
H197 H 0.54613 0.59272 0.46298 0.0
H198 H 0.52707 0.52965 0.37296 0.0
H199 H 0.49128 0.52713 0.45612 0.0
H200 H 0.37202 0.43543 0.42304 0.0
H201 H 0.43046 0.49748 0.43225 0.0
H202 H 0.49876 0.46156 0.38454 0.0
H203 H 0.43983 0.39967 0.37461 0.0
C204 C 0.56302 0.5803 0.39687 0.0
C205 C 0.56859 0.5991 0.42201 0.0
C206 C 0.53129 0.54279 0.39285 0.0
C207 C 0.50458 0.52322 0.41393 0.0
C208 C 0.51088 0.54165 0.4393 0.0
C209 C 0.54245 0.5792 0.44327 0.0
C210 C 0.39951 0.4406 0.41463 0.0
C211 C 0.40124 0.41267 0.39799 0.0
C212 C 0.43312 0.47614 0.42006 0.0
C213 C 0.46934 0.48453 0.40914 0.0
C214 C 0.47122 0.45624 0.39295 0.0
C215 C 0.4375 0.42069 0.38739 0.0
H216 H 0.03954 0.60056 0.57898 0.0
H217 H 0.91587 0.54051 0.59657 0.0
H218 H 0.03513 0.5381 0.5685 0.0
H219 H 0.91169 0.47836 0.58645 0.0
H220 H 0.90996 0.3788 0.53947 0.0
H221 H 0.91679 0.44274 0.54725 0.0
H222 H 0.02274 0.4779 0.59255 0.0
H223 H 0.01626 0.41405 0.58451 0.0
C224 C 0.01146 0.5741 0.58063 0.0
C225 C 0.97807 0.57552 0.58859 0.0
C226 C 0.00899 0.53834 0.57475 0.0
C227 C 0.97304 0.50336 0.57658 0.0
C228 C 0.93969 0.50485 0.58447 0.0
C229 C 0.94217 0.5405 0.59043 0.0
C230 C 0.93483 0.4002 0.55098 0.0
C231 C 0.96247 0.39126 0.56149 0.0
C232 C 0.93862 0.43676 0.55555 0.0
C233 C 0.97018 0.46525 0.57064 0.0
C234 C -0.00172 0.45664 0.58066 0.0
C235 C -0.00558 0.41998 0.57619 0.0
H236 H 0.54805 0.95805 0.69993 0.0
H237 H 0.56966 0.96075 0.78605 0.0
H238 H 0.49083 0.96424 0.70899 0.0
H239 H 0.51269 0.96754 0.79505 0.0
H240 H 0.38096 0.92564 0.7991 0.0
H241 H 0.44162 0.92549 0.79103 0.0
H242 H 0.47076 0.00965 0.72664 0.0
H243 H 0.4097 0.00942 0.73442 0.0
C244 C 0.54082 0.96035 0.72079 0.0
C245 C 0.56326 0.95865 0.74228 0.0
C246 C 0.50815 0.96413 0.72596 0.0
C247 C 0.49716 0.96621 0.75273 0.0
C248 C 0.52014 0.96546 0.77421 0.0
C249 C 0.55289 0.96178 0.76904 0.0
C250 C 0.40033 0.94422 0.78327 0.0
C251 C 0.39042 0.96743 0.76732 0.0
C252 C 0.43523 0.94434 0.77878 0.0
C253 C 0.46099 0.96759 0.75822 0.0
C254 C 0.4513 0.99112 0.74246 0.0
C255 C 0.4164 0.9911 0.74699 0.0
H256 H 0.41213 0.4041 0.87914 0.0
H257 H 0.45034 0.4001 0.96061 0.0
H258 H 0.47361 0.4643 0.87073 0.0
H259 H 0.51179 0.45976 0.95203 0.0
H260 H 0.60092 0.58722 0.93667 0.0
H261 H 0.5372 0.52959 0.94426 0.0
H262 H 0.54332 0.48504 0.86551 0.0
H263 H 0.60679 0.54293 0.85769 0.0
C264 C 0.4336 0.41603 0.89524 0.0
C265 C 0.42636 0.3973 0.92053 0.0
C266 C 0.46887 0.45039 0.89037 0.0
C267 C 0.4975 0.46677 0.91073 0.0
C268 C 0.4901 0.44816 0.93606 0.0
C269 C 0.45495 0.4138 0.9409 0.0
C270 C 0.58862 0.56523 0.92092 0.0
C271 C 0.60899 0.56958 0.89663 0.0
C272 C 0.5522 0.53213 0.92533 0.0
C273 C 0.53533 0.50272 0.90552 0.0
C274 C 0.55539 0.50739 0.88103 0.0
C275 C 0.59186 0.54045 0.87664 0.0
H276 H 0.12346 0.36106 0.05258 0.0
H277 H 0.08952 0.24266 0.07508 0.0
H278 H 0.15839 0.35622 0.01338 0.0
H279 H 0.12478 0.23806 0.036 0.0
H280 H 0.17764 0.23343 0.95671 0.0
H281 H 0.13005 0.23857 0.98548 0.0
H282 H 0.21942 0.35328 0.01129 0.0
H283 H 0.26675 0.34832 0.98256 0.0
C284 C 0.12299 0.33382 0.04898 0.0
C285 C 0.1042 0.30241 0.06718 0.0
C286 C 0.14306 0.33112 0.02654 0.0
C287 C 0.14457 0.2969 0.02174 0.0
C288 C 0.12386 0.26471 0.03903 0.0
C289 C 0.10391 0.26745 0.06155 0.0
C290 C 0.18687 0.26012 0.96802 0.0
C291 C 0.22604 0.29031 0.96762 0.0
C292 C 0.15968 0.26292 0.98461 0.0
C293 C 0.1711 0.29615 0.00081 0.0
C294 C 0.20963 0.32741 0.99891 0.0
C295 C 0.23683 0.32447 0.98255 0.0
H296 H 0.86147 0.11112 0.26207 0.0
H297 H 0.77414 0.11116 0.20944 0.0
H298 H 0.91244 0.15432 0.23077 0.0
H299 H 0.82536 0.15531 0.17841 0.0
H300 H 0.92863 0.2151 0.11903 0.0
H301 H 0.87684 0.1639 0.1466 0.0
H302 H 0.94002 0.22232 0.21935 0.0
H303 H 0.99166 0.27254 0.19212 0.0
C304 C 0.85313 0.12021 0.24375 0.0
C305 C 0.81382 0.1081 0.23839 0.0
C306 C 0.88236 0.14511 0.22587 0.0
C307 C 0.87299 0.1587 0.2023 0.0
C308 C 0.83352 0.1452 0.19631 0.0
C309 C 0.8042 0.12007 0.21417 0.0
C310 C 0.93142 0.21685 0.14091 0.0
C311 C 0.9643 0.24785 0.15336 0.0
C312 C 0.90173 0.18763 0.15668 0.0
C313 C 0.90449 0.18887 0.18515 0.0
C314 C 0.93734 0.21998 0.19747 0.0
C315 C 0.96686 0.24902 0.1818 0.0
H316 H 0.63284 0.76049 0.37444 0.0
H317 H 0.75688 0.83072 0.38935 0.0
H318 H 0.63795 0.80561 0.33893 0.0
H319 H 0.76179 0.87611 0.35409 0.0
H320 H 0.76252 0.94303 0.27981 0.0
H321 H 0.75538 0.88683 0.3053 0.0
H322 H 0.64973 0.8725 0.34191 0.0
H323 H 0.65653 0.92807 0.31637 0.0
C324 C 0.6613 0.78528 0.36993 0.0
C325 C 0.69438 0.79235 0.38501 0.0
C326 C 0.66416 0.81117 0.34963 0.0
C327 C 0.70016 0.84464 0.34394 0.0
C328 C 0.73367 0.85044 0.35787 0.0
C329 C 0.73081 0.82454 0.3782 0.0
C330 C 0.73741 0.92742 0.29294 0.0
C331 C 0.71027 0.94019 0.29626 0.0
C332 C 0.73346 0.8954 0.30763 0.0
C333 C 0.70211 0.87537 0.3257 0.0
C334 C 0.67398 0.88702 0.32794 0.0
C335 C 0.67804 0.91908 0.31343 0.0
H336 H 0.72208 0.7145 0.51382 0.0
H337 H 0.77854 0.70007 0.44327 0.0
H338 H 0.77134 0.71429 0.54274 0.0
H339 H 0.82927 0.70141 0.4724 0.0
H340 H 0.88237 0.65727 0.53826 0.0
H341 H 0.83922 0.66309 0.50559 0.0
H342 H 0.83718 0.75181 0.55569 0.0
H343 H 0.87869 0.74458 0.58878 0.0
C344 C 0.74537 0.71178 0.50441 0.0
C345 C 0.74638 0.7073 0.47621 0.0
C346 C 0.77391 0.71199 0.52104 0.0
C347 C 0.80461 0.70824 0.50994 0.0
C348 C 0.80585 0.70402 0.48166 0.0
C349 C 0.77691 0.70342 0.46496 0.0
C350 C 0.87295 0.67826 0.54209 0.0
C351 C 0.88339 0.70008 0.56623 0.0
C352 C 0.84838 0.68176 0.52331 0.0
C353 C 0.83421 0.70751 0.52816 0.0
C354 C 0.84661 0.73088 0.55163 0.0
C355 C 0.87061 0.72694 0.57055 0.0
H356 H 0.07337 0.73499 0.64086 0.0
H357 H 0.02876 0.81487 0.63835 0.0
H358 H 0.12513 0.77915 0.67166 0.0
H359 H 0.08034 0.85868 0.6692 0.0
H360 H 0.13087 0.88028 0.75761 0.0
H361 H 0.08831 0.84664 0.71927 0.0
H362 H 0.18488 0.8489 0.67676 0.0
H363 H 0.22788 0.8831 0.71518 0.0
C364 C 0.07505 0.76228 0.64642 0.0
C365 C 0.04668 0.77119 0.63742 0.0
C366 C 0.10477 0.7876 0.66396 0.0
C367 C 0.10638 0.82205 0.67299 0.0
C368 C 0.07942 0.83205 0.66275 0.0
C369 C 0.05001 0.807 0.645 0.0
C370 C 0.14315 0.87393 0.74001 0.0
C371 C 0.18264 0.88417 0.73942 0.0
C372 C 0.11886 0.85495 0.71799 0.0
C373 C 0.1334 0.84532 0.69505 0.0
C374 C 0.17301 0.85598 0.69424 0.0
C375 C 0.19755 0.87561 0.71615 0.0
H376 H 0.33082 0.06651 0.82126 0.0
H377 H 0.20803 0.02783 0.81219 0.0
H378 H 0.33912 0.12169 0.84852 0.0
H379 H 0.21649 0.08298 0.8395 0.0
H380 H 0.241 0.14374 0.9246 0.0
H381 H 0.23189 0.09619 0.88973 0.0
H382 H 0.33417 0.18369 0.84766 0.0
H383 H 0.34328 0.23157 0.88254 0.0
C384 C 0.30576 0.07013 0.82469 0.0
C385 C 0.26868 0.04255 0.81484 0.0
C386 C 0.31057 0.10182 0.84019 0.0
C387 C 0.27835 0.10631 0.84631 0.0
C388 C 0.2417 0.07989 0.83532 0.0
C389 C 0.23695 0.04844 0.81959 0.0
C390 C 0.26137 0.15295 0.90781 0.0
C391 C 0.29296 0.1913 0.90638 0.0
C392 C 0.25597 0.12581 0.88775 0.0
C393 C 0.28232 0.13633 0.86601 0.0
C394 C 0.31355 0.17485 0.86428 0.0
C395 C 0.31865 0.2022 0.88418 0.0
H396 H 0.69475 0.77745 0.88652 0.0
H397 H 0.71042 0.73158 0.81088 0.0
H398 H 0.68556 0.82565 0.86121 0.0
H399 H 0.70122 0.7793 0.78598 0.0
H400 H 0.63513 0.83432 0.75022 0.0
H401 H 0.64321 0.78902 0.77901 0.0
H402 H 0.72533 0.88481 0.82886 0.0
H403 H 0.71733 0.93068 0.79991 0.0
C404 C 0.69634 0.7777 0.86458 0.0
C405 C 0.7031 0.75056 0.85071 0.0
C406 C 0.69124 0.80533 0.85017 0.0
C407 C 0.69233 0.80586 0.82168 0.0
C408 C 0.69967 0.77914 0.80792 0.0
C409 C 0.70514 0.75193 0.82224 0.0
C410 C 0.65474 0.84587 0.76739 0.0
C411 C 0.6759 0.88619 0.77261 0.0
C412 C 0.65943 0.81987 0.78382 0.0
C413 C 0.68517 0.83351 0.80595 0.0
C414 C 0.70523 0.8736 0.81192 0.0
C415 C 0.70077 0.89979 0.79529 0.0
H416 H 0.83678 0.76335 0.93159 0.0
H417 H 0.7664 0.63871 0.94366 0.0
H418 H 0.88085 0.76683 0.96746 0.0
H419 H 0.81012 0.64237 0.97975 0.0
H420 H 0.93101 0.65972 0.00476 0.0
H421 H 0.87718 0.65451 0.97785 0.0
H422 H 0.88932 0.75812 0.01637 0.0
H423 H 0.94382 0.76368 0.04327 0.0
C424 C 0.83029 0.73683 0.94222 0.0
C425 C 0.79847 0.70068 0.93446 0.0
C426 C 0.85542 0.73886 0.9629 0.0
C427 C 0.84916 0.70479 0.97621 0.0
C428 C 0.81604 0.66902 0.96952 0.0
C429 C 0.79096 0.66697 0.94888 0.0
C430 C 0.92193 0.68114 0.0078 0.0
C431 C 0.9419 0.71229 0.02599 0.0
C432 C 0.89085 0.67798 0.9925 0.0
C433 C 0.87906 0.70597 0.99495 0.0
C434 C 0.89803 0.73634 0.01389 0.0
C435 C 0.92906 0.73937 0.02938 0.0
H436 H 0.26821 0.98146 0.14487 0.0
H437 H 0.20526 0.91528 0.21559 0.0
H438 H 0.21942 0.93173 0.11573 0.0
H439 H 0.15555 0.86535 0.18605 0.0
H440 H 0.10526 0.7666 0.11979 0.0
H441 H 0.14798 0.81522 0.15287 0.0
H442 H 0.15205 0.90671 0.10272 0.0
H443 H 0.11029 0.85839 0.06943 0.0
C444 C 0.24381 0.95635 0.15425 0.0
C445 C 0.24061 0.95241 0.18261 0.0
C446 C 0.21561 0.92794 0.13748 0.0
C447 C 0.18334 0.89483 0.14856 0.0
C448 C 0.18018 0.89053 0.17693 0.0
C449 C 0.20857 0.91913 0.19382 0.0
C450 C 0.11495 0.79707 0.116 0.0
C451 C 0.10488 0.80873 0.09181 0.0
C452 C 0.13926 0.82489 0.13502 0.0
C453 C 0.15383 0.86483 0.13023 0.0
C454 C 0.14202 0.8762 0.10671 0.0
C455 C 0.11794 0.84849 0.08768 0.0
H456 H 0.34937 0.11359 0.28543 0.0
H457 H 0.2284 0.07033 0.26454 0.0
H458 H 0.34333 0.14999 0.32317 0.0
H459 H 0.22261 0.10721 0.3021 0.0
H460 H 0.21788 0.16303 0.38081 0.0
H461 H 0.2242 0.11626 0.35191 0.0
H462 H 0.33636 0.20824 0.32402 0.0
H463 H 0.33035 0.2547 0.35295 0.0
C464 C 0.32135 0.11145 0.28906 0.0
C465 C 0.28949 0.08947 0.27174 0.0
C466 C 0.31796 0.13242 0.31065 0.0
C467 C 0.28264 0.13179 0.31543 0.0
C468 C 0.25016 0.10807 0.29906 0.0
C469 C 0.25355 0.08712 0.27742 0.0
C470 C 0.24418 0.17309 0.36886 0.0
C471 C 0.27347 0.21264 0.369 0.0
C472 C 0.24767 0.14635 0.35221 0.0
C473 C 0.28067 0.1586 0.3356 0.0
C474 C 0.31076 0.19776 0.33679 0.0
C475 C 0.30718 0.22447 0.35326 0.0
H476 H 0.12852 0.23814 0.41114 0.0
H477 H 0.21769 0.32222 0.46443 0.0
H478 H 0.07831 0.23222 0.44249 0.0
H479 H 0.16733 0.31727 0.49544 0.0
H480 H 0.06496 0.27908 0.55454 0.0
H481 H 0.11539 0.27708 0.52698 0.0
H482 H 0.0527 0.27363 0.45429 0.0
H483 H 0.00225 0.27454 0.48159 0.0
C484 C 0.13741 0.25524 0.42962 0.0
C485 C 0.17702 0.28096 0.43517 0.0
C486 C 0.10862 0.25202 0.44753 0.0
C487 C 0.11876 0.27476 0.47127 0.0
C488 C 0.1585 0.29917 0.47743 0.0
C489 C 0.18737 0.30214 0.45959 0.0
C490 C 0.06199 0.27778 0.53268 0.0
C491 C 0.02956 0.27688 0.52028 0.0
C492 C 0.09091 0.27675 0.51689 0.0
C493 C 0.08793 0.27486 0.48843 0.0
C494 C 0.05553 0.27416 0.47616 0.0
C495 C 0.02669 0.27503 0.49186 0.0
H496 H 0.91765 0.16139 0.6091 0.0
H497 H 0.84817 0.21781 0.61091 0.0
H498 H 0.87616 0.116 0.64408 0.0
H499 H 0.80606 0.17179 0.64509 0.0
H500 H 0.74153 0.09276 0.71413 0.0
H501 H 0.79652 0.146 0.69026 0.0
H502 H 0.81118 0.06184 0.64339 0.0
H503 H 0.75743 0.00908 0.66763 0.0
C504 C 0.89377 0.16435 0.61713 0.0
C505 C 0.88588 0.19284 0.60694 0.0
C506 C 0.86988 0.13824 0.6371 0.0
C507 C 0.83743 0.13988 0.64716 0.0
C508 C 0.83096 0.16984 0.63804 0.0
C509 C 0.85499 0.1961 0.61823 0.0
C510 C 0.75698 0.08572 0.69906 0.0
C511 C 0.7448 0.04668 0.69257 0.0
C512 C 0.78836 0.11621 0.68528 0.0
C513 C 0.80811 0.10824 0.66474 0.0
C514 C 0.79706 0.06918 0.65929 0.0
C515 C 0.7659 0.03881 0.67308 0.0
H516 H 0.25877 0.30941 0.28069 0.0
H517 H 0.23074 0.37572 0.33683 0.0
H518 H 0.22408 0.32189 0.24485 0.0
H519 H 0.19711 0.38926 0.30078 0.0
H520 H 0.09666 0.35787 0.24088 0.0
H521 H 0.13765 0.35391 0.27595 0.0
H522 H 0.22375 0.37019 0.21554 0.0
H523 H 0.18201 0.37296 0.18022 0.0
C524 C 0.24568 0.32712 0.28529 0.0
C525 C 0.24723 0.34129 0.31166 0.0
C526 C 0.22599 0.33451 0.26468 0.0
C527 C 0.20762 0.35645 0.26994 0.0
C528 C 0.21031 0.37167 0.29613 0.0
C529 C 0.22977 0.36407 0.31678 0.0
C530 C 0.12449 0.36098 0.23506 0.0
C531 C 0.13594 0.36549 0.20772 0.0
C532 C 0.14816 0.35894 0.25524 0.0
C533 C 0.184 0.36161 0.24859 0.0
C534 C 0.19605 0.3674 0.22132 0.0
C535 C 0.17225 0.36926 0.20109 0.0
H536 H 0.84125 0.23927 0.46649 0.0
H537 H 0.82993 0.13067 0.49474 0.0
H538 H 0.80109 0.20553 0.42703 0.0
H539 H 0.79028 0.09721 0.45526 0.0
H540 H 0.69414 0.04187 0.39251 0.0
H541 H 0.72672 0.07704 0.43382 0.0
H542 H 0.80959 0.17489 0.38576 0.0
H543 H 0.77684 0.14 0.34445 0.0
C544 C 0.82996 0.20818 0.46441 0.0
C545 C 0.83894 0.18769 0.48369 0.0
C546 C 0.80715 0.18892 0.44173 0.0
C547 C 0.79264 0.14875 0.43799 0.0
C548 C 0.80067 0.12809 0.4577 0.0
C549 C 0.82362 0.14735 0.48026 0.0
C550 C 0.7191 0.07102 0.39074 0.0
C551 C 0.73303 0.08804 0.36517 0.0
C552 C 0.73785 0.09108 0.41441 0.0
C553 C 0.77081 0.12866 0.41304 0.0
C554 C 0.78402 0.14614 0.38751 0.0
C555 C 0.76539 0.12602 0.36383 0.0
H556 H 0.61311 0.8393 0.64224 0.0
H557 H 0.6351 0.94054 0.59529 0.0
H558 H 0.61197 0.80538 0.60076 0.0
H559 H 0.63325 0.90624 0.5537 0.0
H560 H 0.68708 0.8539 0.49509 0.0
H561 H 0.67683 0.88618 0.53358 0.0
H562 H 0.57738 0.77676 0.55833 0.0
H563 H 0.58805 0.74415 0.51995 0.0
C564 C 0.61709 0.85412 0.62304 0.0
C565 C 0.6246 0.89278 0.6221 0.0
C566 C 0.61618 0.83455 0.59922 0.0
C567 C 0.62276 0.8532 0.57393 0.0
C568 C 0.62864 0.89129 0.57291 0.0
C569 C 0.6295 0.91086 0.59674 0.0
C570 C 0.66276 0.83674 0.50856 0.0
C571 C 0.6386 0.79638 0.50459 0.0
C572 C 0.65671 0.85534 0.53054 0.0
C573 C 0.62636 0.83401 0.54908 0.0
C574 C 0.60132 0.79389 0.54458 0.0
C575 C 0.60732 0.77526 0.52252 0.0
H576 H 0.85584 0.63838 0.67305 0.0
H577 H 0.9552 0.66035 0.72231 0.0
H578 H 0.8204 0.63763 0.71371 0.0
H579 H 0.91949 0.65912 0.76299 0.0
H580 H 0.86286 0.70855 0.82127 0.0
H581 H 0.89721 0.70191 0.78249 0.0
H582 H 0.79063 0.60066 0.75574 0.0
H583 H 0.75599 0.60754 0.79445 0.0
C584 C 0.86998 0.64264 0.69257 0.0
C585 C 0.90843 0.64965 0.69442 0.0
C586 C 0.84956 0.64197 0.71588 0.0
C587 C 0.8672 0.64844 0.74154 0.0
C588 C 0.9053 0.6545 0.74346 0.0
C589 C 0.92567 0.65501 0.72015 0.0
C590 C 0.84676 0.68469 0.80725 0.0
C591 C 0.80663 0.6587 0.81087 0.0
C592 C 0.86653 0.68074 0.7851 0.0
C593 C 0.84661 0.6508 0.76602 0.0
C594 C 0.80666 0.62428 0.76994 0.0
C595 C 0.78689 0.62812 0.79219 0.0
H596 H 0.19989 0.79207 0.83319 0.0
H597 H 0.22404 0.89794 0.87496 0.0
H598 H 0.16194 0.75364 0.87212 0.0
H599 H 0.18572 0.85958 0.91351 0.0
H600 H 0.14542 0.78317 0.98825 0.0
H601 H 0.18694 0.81865 0.94993 0.0
H602 H 0.09996 0.73614 0.89472 0.0
H603 H 0.05864 0.70015 0.93309 0.0
C604 C 0.19719 0.80715 0.85067 0.0
C605 C 0.21499 0.84807 0.85096 0.0
C606 C 0.17527 0.78511 0.8729 0.0
C607 C 0.17084 0.80356 0.89591 0.0
C608 C 0.18901 0.84449 0.89627 0.0
C609 C 0.2108 0.86647 0.87407 0.0
C610 C 0.13522 0.77241 0.96796 0.0
C611 C 0.09862 0.73891 0.96373 0.0
C612 C 0.15895 0.79288 0.94599 0.0
C613 C 0.14665 0.78036 0.91928 0.0
C614 C 0.11045 0.74634 0.91506 0.0
C615 C 0.08667 0.72584 0.93706 0.0
H616 H 0.31747 0.18234 0.17469 0.0
H617 H 0.37298 0.13064 0.12844 0.0
H618 H 0.31445 0.21585 0.13412 0.0
H619 H 0.36931 0.16366 0.08779 0.0
H620 H 0.38254 0.2533 0.02382 0.0
H621 H 0.39306 0.22732 0.06591 0.0
H622 H 0.2765 0.1949 0.09224 0.0
H623 H 0.26619 0.22132 0.05056 0.0
C624 C 0.32936 0.17839 0.15595 0.0
C625 C 0.34519 0.15357 0.15477 0.0
C626 C 0.32738 0.1974 0.13265 0.0
C627 C 0.34124 0.19207 0.10768 0.0
C628 C 0.3586 0.16858 0.10675 0.0
C629 C 0.36054 0.14952 0.13004 0.0
C630 C 0.35922 0.24072 0.03864 0.0
C631 C 0.32352 0.23936 0.03383 0.0
C632 C 0.36521 0.22573 0.0627 0.0
C633 C 0.33568 0.20921 0.08246 0.0
C634 C 0.30009 0.20804 0.07765 0.0
C635 C 0.29408 0.22292 0.05363 0.0
loop_
_geom_bond_atom_site_label_1
_geom_bond_atom_site_label_2
_geom_bond_distance
_geom_bond_site_symmetry_2
_ccdc_geom_bond_type
C0 O1 1.160 . S
C0 O7 1.185 . S
O1 C0 1.160 . S
O2 Zn3 1.899 . S
O2 C10 1.284 1_455 S
Zn3 O2 1.899 . S
Zn3 O4 2.032 . S
Zn3 O7 2.086 . S
Zn3 O12 1.977 . S
O4 Zn3 2.032 . S
O4 C8 1.278 . S
C5 O6 1.203 . S
C5 O12 1.267 . S
O6 C5 1.203 . S
O7 C0 1.185 . S
O7 Zn3 2.086 . S
C8 O4 1.278 . S
C8 O9 1.211 . S
O9 C8 1.211 . S
C10 O2 1.284 1_655 S
C10 O11 1.273 1_655 S
O11 C10 1.273 1_455 S
O12 Zn3 1.977 . S
O12 C5 1.267 . S
C13 O14 1.160 . S
C13 O20 1.185 . S
O14 C13 1.160 . S
O15 Zn16 1.899 . S
O15 C23 1.284 1_545 S
Zn16 O15 1.899 . S
Zn16 O17 2.032 . S
Zn16 O20 2.086 . S
Zn16 O25 1.977 . S
O17 Zn16 2.032 . S
O17 C21 1.278 . S
C18 O19 1.203 . S
C18 O25 1.267 . S
O19 C18 1.203 . S
O20 C13 1.185 . S
O20 Zn16 2.086 . S
C21 O17 1.278 . S
C21 O22 1.211 . S
O22 C21 1.211 . S
C23 O15 1.284 1_565 S
C23 O24 1.273 1_565 S
O24 C23 1.273 1_545 S
O25 Zn16 1.977 . S
O25 C18 1.267 . S
C26 O27 1.160 . S
C26 O33 1.185 . S
O27 C26 1.160 . S
O28 Zn29 1.899 . S
O28 C36 1.284 . S
Zn29 O28 1.899 . S
Zn29 O30 2.032 . S
Zn29 O33 2.086 . S
Zn29 O38 1.977 . S
O30 Zn29 2.032 . S
O30 C34 1.278 . S
C31 O32 1.203 . S
C31 O38 1.267 . S
O32 C31 1.203 . S
O33 C26 1.185 . S
O33 Zn29 2.086 . S
C34 O30 1.278 . S
C34 O35 1.211 . S
O35 C34 1.211 . S
C36 O28 1.284 . S
C36 O37 1.273 . S
O37 C36 1.273 . S
O38 Zn29 1.977 . S
O38 C31 1.267 . S
C39 O40 1.160 . S
C39 O46 1.185 . S
O40 C39 1.160 . S
O41 Zn42 1.899 . S
O41 C49 1.284 1_655 S
Zn42 O41 1.899 . S
Zn42 O43 2.032 . S
Zn42 O46 2.086 . S
Zn42 O51 1.977 . S
O43 Zn42 2.032 . S
O43 C47 1.278 . S
C44 O45 1.203 . S
C44 O51 1.267 . S
O45 C44 1.203 . S
O46 C39 1.185 . S
O46 Zn42 2.086 . S
C47 O43 1.278 . S
C47 O48 1.211 . S
O48 C47 1.211 . S
C49 O41 1.284 1_455 S
C49 O50 1.273 1_455 S
O50 C49 1.273 1_655 S
O51 Zn42 1.977 . S
O51 C44 1.267 . S
C52 O53 1.160 . S
C52 O59 1.185 . S
O53 C52 1.160 . S
O54 Zn55 1.899 . S
O54 C62 1.284 1_565 S
Zn55 O54 1.899 . S
Zn55 O56 2.032 . S
Zn55 O59 2.086 . S
Zn55 O64 1.977 . S
O56 Zn55 2.032 . S
O56 C60 1.278 . S
C57 O58 1.203 . S
C57 O64 1.267 . S
O58 C57 1.203 . S
O59 C52 1.185 . S
O59 Zn55 2.086 . S
C60 O56 1.278 . S
C60 O61 1.211 . S
O61 C60 1.211 . S
C62 O54 1.284 1_545 S
C62 O63 1.273 1_545 S
O63 C62 1.273 1_565 S
O64 Zn55 1.977 . S
O64 C57 1.267 . S
C65 O66 1.160 . S
C65 O72 1.185 . S
O66 C65 1.160 . S
O67 Zn68 1.899 . S
O67 C75 1.284 . S
Zn68 O67 1.899 . S
Zn68 O69 2.032 . S
Zn68 O72 2.086 . S
Zn68 O77 1.977 . S
O69 Zn68 2.032 . S
O69 C73 1.278 . S
C70 O71 1.203 . S
C70 O77 1.267 1_554 S
O71 C70 1.203 . S
O72 C65 1.185 . S
O72 Zn68 2.086 . S
C73 O69 1.278 . S
C73 O74 1.211 . S
O74 C73 1.211 . S
C75 O67 1.284 . S
C75 O76 1.273 . S
O76 C75 1.273 . S
O77 Zn68 1.977 . S
O77 C70 1.267 1_556 S
C78 O79 1.160 . S
C78 O85 1.185 . S
O79 C78 1.160 . S
O80 Zn81 1.899 . S
O80 C88 1.284 1_565 S
Zn81 O80 1.899 . S
Zn81 O82 2.032 . S
Zn81 O85 2.086 . S
Zn81 O90 1.977 . S
O82 Zn81 2.032 . S
O82 C86 1.278 . S
C83 O84 1.203 . S
C83 O90 1.267 . S
O84 C83 1.203 . S
O85 C78 1.185 . S
O85 Zn81 2.086 . S
C86 O82 1.278 . S
C86 O87 1.211 . S
O87 C86 1.211 . S
C88 O80 1.284 1_545 S
C88 O89 1.273 1_545 S
O89 C88 1.273 1_565 S
O90 Zn81 1.977 . S
O90 C83 1.267 . S
C91 O92 1.160 . S
C91 O98 1.185 . S
O92 C91 1.160 . S
O93 Zn94 1.899 . S
O93 C101 1.284 . S
Zn94 O93 1.899 . S
Zn94 O95 2.032 . S
Zn94 O98 2.086 . S
Zn94 O103 1.977 . S
O95 Zn94 2.032 . S
O95 C99 1.278 . S
C96 O97 1.203 . S
C96 O103 1.267 . S
O97 C96 1.203 . S
O98 C91 1.185 . S
O98 Zn94 2.086 . S
C99 O95 1.278 . S
C99 O100 1.211 . S
O100 C99 1.211 . S
C101 O93 1.284 . S
C101 O102 1.273 . S
O102 C101 1.273 . S
O103 Zn94 1.977 . S
O103 C96 1.267 . S
C104 O105 1.160 . S
C104 O111 1.185 . S
O105 C104 1.160 . S
O106 Zn107 1.899 . S
O106 C114 1.284 1_455 S
Zn107 O106 1.899 . S
Zn107 O108 2.032 . S
Zn107 O111 2.086 . S
Zn107 O116 1.977 . S
O108 Zn107 2.032 . S
O108 C112 1.278 . S
C109 O110 1.203 . S
C109 O116 1.267 1_556 S
O110 C109 1.203 . S
O111 C104 1.185 . S
O111 Zn107 2.086 . S
C112 O108 1.278 . S
C112 O113 1.211 . S
O113 C112 1.211 . S
C114 O106 1.284 1_655 S
C114 O115 1.273 1_655 S
O115 C114 1.273 1_455 S
O116 Zn107 1.977 . S
O116 C109 1.267 1_554 S
C117 O118 1.160 . S
C117 O124 1.185 . S
O118 C117 1.160 . S
O119 Zn120 1.899 . S
O119 C127 1.284 1_545 S
Zn120 O119 1.899 . S
Zn120 O121 2.032 . S
Zn120 O124 2.086 . S
Zn120 O129 1.977 . S
O121 Zn120 2.032 . S
O121 C125 1.278 . S
C122 O123 1.203 . S
C122 O129 1.267 . S
O123 C122 1.203 . S
O124 C117 1.185 . S
O124 Zn120 2.086 . S
C125 O121 1.278 . S
C125 O126 1.211 . S
O126 C125 1.211 . S
C127 O119 1.284 1_565 S
C127 O128 1.273 1_565 S
O128 C127 1.273 1_545 S
O129 Zn120 1.977 . S
O129 C122 1.267 . S
C130 O131 1.160 . S
C130 O137 1.185 . S
O131 C130 1.160 . S
O132 Zn133 1.899 . S
O132 C140 1.284 . S
Zn133 O132 1.899 . S
Zn133 O134 2.032 . S
Zn133 O137 2.086 . S
Zn133 O142 1.977 . S
O134 Zn133 2.032 . S
O134 C138 1.278 . S
C135 O136 1.203 . S
C135 O142 1.267 . S
O136 C135 1.203 . S
O137 C130 1.185 . S
O137 Zn133 2.086 . S
C138 O134 1.278 . S
C138 O139 1.211 . S
O139 C138 1.211 . S
C140 O132 1.284 . S
C140 O141 1.273 . S
O141 C140 1.273 . S
O142 Zn133 1.977 . S
O142 C135 1.267 . S
C143 O144 1.160 . S
C143 O150 1.185 . S
O144 C143 1.160 . S
O145 Zn146 1.899 . S
O145 C153 1.284 1_655 S
Zn146 O145 1.899 . S
Zn146 O147 2.032 . S
Zn146 O150 2.086 . S
Zn146 O155 1.977 . S
O147 Zn146 2.032 . S
O147 C151 1.278 . S
C148 O149 1.203 . S
C148 O155 1.267 . S
O149 C148 1.203 . S
O150 C143 1.185 . S
O150 Zn146 2.086 . S
C151 O147 1.278 . S
C151 O152 1.211 . S
O152 C151 1.211 . S
C153 O145 1.284 1_455 S
C153 O154 1.273 1_455 S
O154 C153 1.273 1_655 S
O155 Zn146 1.977 . S
O155 C148 1.267 . S
H156 C164 0.950 . S
H157 C169 0.950 . S
H158 C166 0.950 . S
H159 C168 0.950 . S
H160 C170 0.950 . S
H161 C172 0.950 . S
H162 C174 0.950 . S
H163 C175 0.950 . S
C164 H156 0.950 . S
C164 C165 1.386 . S
C164 C166 1.391 . S
C165 C164 1.386 . S
C165 C169 1.393 . S
C166 H158 0.950 . S
C166 C164 1.391 . S
C166 C167 1.400 . S
C167 C166 1.400 . S
C167 C168 1.398 . S
C167 C173 1.491 . S
C168 H159 0.950 . S
C168 C167 1.398 . S
C168 C169 1.391 . S
C169 H157 0.950 . S
C169 C165 1.393 . S
C169 C168 1.391 . S
C170 H160 0.950 . S
C170 C171 1.386 . S
C170 C172 1.391 . S
C171 C170 1.386 . S
C171 C175 1.393 . S
C172 H161 0.950 . S
C172 C170 1.391 . S
C172 C173 1.400 . S
C173 C167 1.491 . S
C173 C172 1.400 . S
C173 C174 1.398 . S
C174 H162 0.950 . S
C174 C173 1.398 . S
C174 C175 1.391 . S
C175 H163 0.950 . S
C175 C171 1.393 . S
C175 C174 1.391 . S
H176 C184 0.950 . S
H177 C189 0.950 1_565 S
H178 C186 0.950 . S
H179 C188 0.950 1_565 S
H180 C190 0.950 1_565 S
H181 C192 0.950 1_565 S
H182 C194 0.950 . S
H183 C195 0.950 . S
C184 H176 0.950 . S
C184 C185 1.386 . S
C184 C186 1.391 . S
C185 C184 1.386 . S
C185 C189 1.393 . S
C186 H178 0.950 . S
C186 C184 1.391 . S
C186 C187 1.400 . S
C187 C186 1.400 . S
C187 C188 1.398 . S
C187 C193 1.491 . S
C188 H179 0.950 1_545 S
C188 C187 1.398 . S
C188 C189 1.391 . S
C189 H177 0.950 1_545 S
C189 C185 1.393 . S
C189 C188 1.391 . S
C190 H180 0.950 1_545 S
C190 C191 1.386 . S
C190 C192 1.391 . S
C191 C190 1.386 . S
C191 C195 1.393 . S
C192 H181 0.950 1_545 S
C192 C190 1.391 . S
C192 C193 1.400 . S
C193 C187 1.491 . S
C193 C192 1.400 . S
C193 C194 1.398 . S
C194 H182 0.950 . S
C194 C193 1.398 . S
C194 C195 1.391 . S
C195 H183 0.950 . S
C195 C191 1.393 . S
C195 C194 1.391 . S
H196 C204 0.950 . S
H197 C209 0.950 . S
H198 C206 0.950 . S
H199 C208 0.950 . S
H200 C210 0.950 . S
H201 C212 0.950 . S
H202 C214 0.950 . S
H203 C215 0.950 . S
C204 H196 0.950 . S
C204 C205 1.386 . S
C204 C206 1.391 . S
C205 C204 1.386 . S
C205 C209 1.393 . S
C206 H198 0.950 . S
C206 C204 1.391 . S
C206 C207 1.400 . S
C207 C206 1.400 . S
C207 C208 1.398 . S
C207 C213 1.491 . S
C208 H199 0.950 . S
C208 C207 1.398 . S
C208 C209 1.391 . S
C209 H197 0.950 . S
C209 C205 1.393 . S
C209 C208 1.391 . S
C210 H200 0.950 . S
C210 C211 1.386 . S
C210 C212 1.391 . S
C211 C210 1.386 . S
C211 C215 1.393 . S
C212 H201 0.950 . S
C212 C210 1.391 . S
C212 C213 1.400 . S
C213 C207 1.491 . S
C213 C212 1.400 . S
C213 C214 1.398 . S
C214 H202 0.950 . S
C214 C213 1.398 . S
C214 C215 1.391 . S
C215 H203 0.950 . S
C215 C211 1.393 . S
C215 C214 1.391 . S
H216 C224 0.950 . S
H217 C229 0.950 . S
H218 C226 0.950 . S
H219 C228 0.950 . S
H220 C230 0.950 . S
H221 C232 0.950 . S
H222 C234 0.950 . S
H223 C235 0.950 . S
C224 H216 0.950 . S
C224 C225 1.386 . S
C224 C226 1.391 . S
C225 C224 1.386 . S
C225 C229 1.393 . S
C226 H218 0.950 . S
C226 C224 1.391 . S
C226 C227 1.400 . S
C227 C226 1.400 . S
C227 C228 1.398 . S
C227 C233 1.491 . S
C228 H219 0.950 . S
C228 C227 1.398 . S
C228 C229 1.391 . S
C229 H217 0.950 . S
C229 C225 1.393 . S
C229 C228 1.391 . S
C230 H220 0.950 . S
C230 C231 1.386 . S
C230 C232 1.391 . S
C231 C230 1.386 . S
C231 C235 1.393 . S
C232 H221 0.950 . S
C232 C230 1.391 . S
C232 C233 1.400 . S
C233 C227 1.491 . S
C233 C232 1.400 . S
C233 C234 1.398 . S
C234 H222 0.950 . S
C234 C233 1.398 . S
C234 C235 1.391 . S
C235 H223 0.950 . S
C235 C231 1.393 . S
C235 C234 1.391 . S
H236 C244 0.950 . S
H237 C249 0.950 . S
H238 C246 0.950 . S
H239 C248 0.950 . S
H240 C250 0.950 . S
H241 C252 0.950 . S
H242 C254 0.950 . S
H243 C255 0.950 . S
C244 H236 0.950 . S
C244 C245 1.386 . S
C244 C246 1.391 . S
C245 C244 1.386 . S
C245 C249 1.393 . S
C246 H238 0.950 . S
C246 C244 1.391 . S
C246 C247 1.400 . S
C247 C246 1.400 . S
C247 C248 1.398 . S
C247 C253 1.491 . S
C248 H239 0.950 . S
C248 C247 1.398 . S
C248 C249 1.391 . S
C249 H237 0.950 . S
C249 C245 1.393 . S
C249 C248 1.391 . S
C250 H240 0.950 . S
C250 C251 1.386 . S
C250 C252 1.391 . S
C251 C250 1.386 . S
C251 C255 1.393 . S
C252 H241 0.950 . S
C252 C250 1.391 . S
C252 C253 1.400 . S
C253 C247 1.491 . S
C253 C252 1.400 . S
C253 C254 1.398 . S
C254 H242 0.950 . S
C254 C253 1.398 . S
C254 C255 1.391 . S
C255 H243 0.950 . S
C255 C251 1.393 . S
C255 C254 1.391 . S
H256 C264 0.950 . S
H257 C269 0.950 . S
H258 C266 0.950 . S
H259 C268 0.950 . S
H260 C270 0.950 . S
H261 C272 0.950 . S
H262 C274 0.950 . S
H263 C275 0.950 . S
C264 H256 0.950 . S
C264 C265 1.386 . S
C264 C266 1.391 . S
C265 C264 1.386 . S
C265 C269 1.393 . S
C266 H258 0.950 . S
C266 C264 1.391 . S
C266 C267 1.400 . S
C267 C266 1.400 . S
C267 C268 1.398 . S
C267 C273 1.491 . S
C268 H259 0.950 . S
C268 C267 1.398 . S
C268 C269 1.391 . S
C269 H257 0.950 . S
C269 C265 1.393 . S
C269 C268 1.391 . S
C270 H260 0.950 . S
C270 C271 1.386 . S
C270 C272 1.391 . S
C271 C270 1.386 . S
C271 C275 1.393 . S
C272 H261 0.950 . S
C272 C270 1.391 . S
C272 C273 1.400 . S
C273 C267 1.491 . S
C273 C272 1.400 . S
C273 C274 1.398 . S
C274 H262 0.950 . S
C274 C273 1.398 . S
C274 C275 1.391 . S
C275 H263 0.950 . S
C275 C271 1.393 . S
C275 C274 1.391 . S
H276 C284 0.950 . S
H277 C289 0.950 . S
H278 C286 0.950 . S
H279 C288 0.950 . S
H280 C290 0.950 . S
H281 C292 0.950 . S
H282 C294 0.950 . S
H283 C295 0.950 . S
C284 H276 0.950 . S
C284 C285 1.386 . S
C284 C286 1.391 . S
C285 C284 1.386 . S
C285 C289 1.393 . S
C286 H278 0.950 . S
C286 C284 1.391 . S
C286 C287 1.400 . S
C287 C286 1.400 . S
C287 C288 1.398 . S
C287 C293 1.491 . S
C288 H279 0.950 . S
C288 C287 1.398 . S
C288 C289 1.391 . S
C289 H277 0.950 . S
C289 C285 1.393 . S
C289 C288 1.391 . S
C290 H280 0.950 . S
C290 C291 1.386 . S
C290 C292 1.391 1_556 S
C291 C290 1.386 . S
C291 C295 1.393 . S
C292 H281 0.950 . S
C292 C290 1.391 1_554 S
C292 C293 1.400 . S
C293 C287 1.491 . S
C293 C292 1.400 . S
C293 C294 1.398 1_554 S
C294 H282 0.950 . S
C294 C293 1.398 1_556 S
C294 C295 1.391 . S
C295 H283 0.950 . S
C295 C291 1.393 . S
C295 C294 1.391 . S
H296 C304 0.950 . S
H297 C309 0.950 . S
H298 C306 0.950 . S
H299 C308 0.950 . S
H300 C310 0.950 . S
H301 C312 0.950 . S
H302 C314 0.950 . S
H303 C315 0.950 . S
C304 H296 0.950 . S
C304 C305 1.386 . S
C304 C306 1.391 . S
C305 C304 1.386 . S
C305 C309 1.393 . S
C306 H298 0.950 . S
C306 C304 1.391 . S
C306 C307 1.400 . S
C307 C306 1.400 . S
C307 C308 1.398 . S
C307 C313 1.491 . S
C308 H299 0.950 . S
C308 C307 1.398 . S
C308 C309 1.391 . S
C309 H297 0.950 . S
C309 C305 1.393 . S
C309 C308 1.391 . S
C310 H300 0.950 . S
C310 C311 1.386 . S
C310 C312 1.391 . S
C311 C310 1.386 . S
C311 C315 1.393 . S
C312 H301 0.950 . S
C312 C310 1.391 . S
C312 C313 1.400 . S
C313 C307 1.491 . S
C313 C312 1.400 . S
C313 C314 1.398 . S
C314 H302 0.950 . S
C314 C313 1.398 . S
C314 C315 1.391 . S
C315 H303 0.950 . S
C315 C311 1.393 . S
C315 C314 1.391 . S
H316 C324 0.950 . S
H317 C329 0.950 . S
H318 C326 0.950 . S
H319 C328 0.950 . S
H320 C330 0.950 . S
H321 C332 0.950 . S
H322 C334 0.950 . S
H323 C335 0.950 . S
C324 H316 0.950 . S
C324 C325 1.386 . S
C324 C326 1.391 . S
C325 C324 1.386 . S
C325 C329 1.393 . S
C326 H318 0.950 . S
C326 C324 1.391 . S
C326 C327 1.400 . S
C327 C326 1.400 . S
C327 C328 1.398 . S
C327 C333 1.491 . S
C328 H319 0.950 . S
C328 C327 1.398 . S
C328 C329 1.391 . S
C329 H317 0.950 . S
C329 C325 1.393 . S
C329 C328 1.391 . S
C330 H320 0.950 . S
C330 C331 1.386 . S
C330 C332 1.391 . S
C331 C330 1.386 . S
C331 C335 1.393 . S
C332 H321 0.950 . S
C332 C330 1.391 . S
C332 C333 1.400 . S
C333 C327 1.491 . S
C333 C332 1.400 . S
C333 C334 1.398 . S
C334 H322 0.950 . S
C334 C333 1.398 . S
C334 C335 1.391 . S
C335 H323 0.950 . S
C335 C331 1.393 . S
C335 C334 1.391 . S
H336 C344 0.950 . S
H337 C349 0.950 . S
H338 C346 0.950 . S
H339 C348 0.950 . S
H340 C350 0.950 . S
H341 C352 0.950 . S
H342 C354 0.950 . S
H343 C355 0.950 . S
C344 H336 0.950 . S
C344 C345 1.386 . S
C344 C346 1.391 . S
C345 C344 1.386 . S
C345 C349 1.393 . S
C346 H338 0.950 . S
C346 C344 1.391 . S
C346 C347 1.400 . S
C347 C346 1.400 . S
C347 C348 1.398 . S
C347 C353 1.491 . S
C348 H339 0.950 . S
C348 C347 1.398 . S
C348 C349 1.391 . S
C349 H337 0.950 . S
C349 C345 1.393 . S
C349 C348 1.391 . S
C350 H340 0.950 . S
C350 C351 1.386 . S
C350 C352 1.391 . S
C351 C350 1.386 . S
C351 C355 1.393 . S
C352 H341 0.950 . S
C352 C350 1.391 . S
C352 C353 1.400 . S
C353 C347 1.491 . S
C353 C352 1.400 . S
C353 C354 1.398 . S
C354 H342 0.950 . S
C354 C353 1.398 . S
C354 C355 1.391 . S
C355 H343 0.950 . S
C355 C351 1.393 . S
C355 C354 1.391 . S
H356 C364 0.950 . S
H357 C369 0.950 . S
H358 C366 0.950 . S
H359 C368 0.950 . S
H360 C370 0.950 . S
H361 C372 0.950 . S
H362 C374 0.950 . S
H363 C375 0.950 . S
C364 H356 0.950 . S
C364 C365 1.386 . S
C364 C366 1.391 . S
C365 C364 1.386 . S
C365 C369 1.393 . S
C366 H358 0.950 . S
C366 C364 1.391 . S
C366 C367 1.400 . S
C367 C366 1.400 . S
C367 C368 1.398 . S
C367 C373 1.491 . S
C368 H359 0.950 . S
C368 C367 1.398 . S
C368 C369 1.391 . S
C369 H357 0.950 . S
C369 C365 1.393 . S
C369 C368 1.391 . S
C370 H360 0.950 . S
C370 C371 1.386 . S
C370 C372 1.391 . S
C371 C370 1.386 . S
C371 C375 1.393 . S
C372 H361 0.950 . S
C372 C370 1.391 . S
C372 C373 1.400 . S
C373 C367 1.491 . S
C373 C372 1.400 . S
C373 C374 1.398 . S
C374 H362 0.950 . S
C374 C373 1.398 . S
C374 C375 1.391 . S
C375 H363 0.950 . S
C375 C371 1.393 . S
C375 C374 1.391 . S
H376 C384 0.950 . S
H377 C389 0.950 . S
H378 C386 0.950 . S
H379 C388 0.950 . S
H380 C390 0.950 . S
H381 C392 0.950 . S
H382 C394 0.950 . S
H383 C395 0.950 . S
C384 H376 0.950 . S
C384 C385 1.386 . S
C384 C386 1.391 . S
C385 C384 1.386 . S
C385 C389 1.393 . S
C386 H378 0.950 . S
C386 C384 1.391 . S
C386 C387 1.400 . S
C387 C386 1.400 . S
C387 C388 1.398 . S
C387 C393 1.491 . S
C388 H379 0.950 . S
C388 C387 1.398 . S
C388 C389 1.391 . S
C389 H377 0.950 . S
C389 C385 1.393 . S
C389 C388 1.391 . S
C390 H380 0.950 . S
C390 C391 1.386 . S
C390 C392 1.391 . S
C391 C390 1.386 . S
C391 C395 1.393 . S
C392 H381 0.950 . S
C392 C390 1.391 . S
C392 C393 1.400 . S
C393 C387 1.491 . S
C393 C392 1.400 . S
C393 C394 1.398 . S
C394 H382 0.950 . S
C394 C393 1.398 . S
C394 C395 1.391 . S
C395 H383 0.950 . S
C395 C391 1.393 . S
C395 C394 1.391 . S
H396 C404 0.950 . S
H397 C409 0.950 . S
H398 C406 0.950 . S
H399 C408 0.950 . S
H400 C410 0.950 . S
H401 C412 0.950 . S
H402 C414 0.950 . S
H403 C415 0.950 . S
C404 H396 0.950 . S
C404 C405 1.386 . S
C404 C406 1.391 . S
C405 C404 1.386 . S
C405 C409 1.393 . S
C406 H398 0.950 . S
C406 C404 1.391 . S
C406 C407 1.400 . S
C407 C406 1.400 . S
C407 C408 1.398 . S
C407 C413 1.491 . S
C408 H399 0.950 . S
C408 C407 1.398 . S
C408 C409 1.391 . S
C409 H397 0.950 . S
C409 C405 1.393 . S
C409 C408 1.391 . S
C410 H400 0.950 . S
C410 C411 1.386 . S
C410 C412 1.391 . S
C411 C410 1.386 . S
C411 C415 1.393 . S
C412 H401 0.950 . S
C412 C410 1.391 . S
C412 C413 1.400 . S
C413 C407 1.491 . S
C413 C412 1.400 . S
C413 C414 1.398 . S
C414 H402 0.950 . S
C414 C413 1.398 . S
C414 C415 1.391 . S
C415 H403 0.950 . S
C415 C411 1.393 . S
C415 C414 1.391 . S
H416 C424 0.950 . S
H417 C429 0.950 . S
H418 C426 0.950 . S
H419 C428 0.950 . S
H420 C430 0.955 . S
H421 C432 0.950 . S
H422 C434 0.950 . S
H423 C435 0.950 . S
C424 H416 0.950 . S
C424 C425 1.386 . S
C424 C426 1.391 . S
C425 C424 1.386 . S
C425 C429 1.393 . S
C426 H418 0.950 . S
C426 C424 1.391 . S
C426 C427 1.400 . S
C427 C426 1.400 . S
C427 C428 1.398 . S
C427 C433 1.491 . S
C428 H419 0.950 . S
C428 C427 1.398 . S
C428 C429 1.391 . S
C429 H417 0.950 . S
C429 C425 1.393 . S
C429 C428 1.391 . S
C430 H420 0.955 . S
C430 C431 1.361 1_556 S
C430 C432 1.411 . S
C431 C430 1.361 1_554 S
C431 C435 1.393 . S
C432 H421 0.950 . S
C432 C430 1.411 . S
C432 C433 1.400 . S
C433 C427 1.491 . S
C433 C432 1.400 . S
C433 C434 1.398 1_556 S
C434 H422 0.950 . S
C434 C433 1.398 1_554 S
C434 C435 1.391 . S
C435 H423 0.950 . S
C435 C431 1.393 . S
C435 C434 1.391 . S
H436 C444 0.950 . S
H437 C449 0.950 . S
H438 C446 0.950 . S
H439 C448 0.950 . S
H440 C450 0.950 . S
H441 C452 0.950 . S
H442 C454 0.950 . S
H443 C455 0.950 . S
C444 H436 0.950 . S
C444 C445 1.386 . S
C444 C446 1.391 . S
C445 C444 1.386 . S
C445 C449 1.393 . S
C446 H438 0.950 . S
C446 C444 1.391 . S
C446 C447 1.400 . S
C447 C446 1.400 . S
C447 C448 1.398 . S
C447 C453 1.491 . S
C448 H439 0.950 . S
C448 C447 1.398 . S
C448 C449 1.391 . S
C449 H437 0.950 . S
C449 C445 1.393 . S
C449 C448 1.391 . S
C450 H440 0.950 . S
C450 C451 1.386 . S
C450 C452 1.391 . S
C451 C450 1.386 . S
C451 C455 1.393 . S
C452 H441 0.950 . S
C452 C450 1.391 . S
C452 C453 1.400 . S
C453 C447 1.491 . S
C453 C452 1.400 . S
C453 C454 1.398 . S
C454 H442 0.950 . S
C454 C453 1.398 . S
C454 C455 1.391 . S
C455 H443 0.950 . S
C455 C451 1.393 . S
C455 C454 1.391 . S
H456 C464 0.950 . S
H457 C469 0.950 . S
H458 C466 0.950 . S
H459 C468 0.950 . S
H460 C470 0.950 . S
H461 C472 0.950 . S
H462 C474 0.950 . S
H463 C475 0.950 . S
C464 H456 0.950 . S
C464 C465 1.386 . S
C464 C466 1.391 . S
C465 C464 1.386 . S
C465 C469 1.393 . S
C466 H458 0.950 . S
C466 C464 1.391 . S
C466 C467 1.400 . S
C467 C466 1.400 . S
C467 C468 1.398 . S
C467 C473 1.491 . S
C468 H459 0.950 . S
C468 C467 1.398 . S
C468 C469 1.391 . S
C469 H457 0.950 . S
C469 C465 1.393 . S
C469 C468 1.391 . S
C470 H460 0.950 . S
C470 C471 1.386 . S
C470 C472 1.391 . S
C471 C470 1.386 . S
C471 C475 1.393 . S
C472 H461 0.950 . S
C472 C470 1.391 . S
C472 C473 1.400 . S
C473 C467 1.491 . S
C473 C472 1.400 . S
C473 C474 1.398 . S
C474 H462 0.950 . S
C474 C473 1.398 . S
C474 C475 1.391 . S
C475 H463 0.950 . S
C475 C471 1.393 . S
C475 C474 1.391 . S
H476 C484 0.950 . S
H477 C489 0.950 . S
H478 C486 0.950 . S
H479 C488 0.950 . S
H480 C490 0.950 . S
H481 C492 0.950 . S
H482 C494 0.950 . S
H483 C495 0.950 . S
C484 H476 0.950 . S
C484 C485 1.386 . S
C484 C486 1.391 . S
C485 C484 1.386 . S
C485 C489 1.393 . S
C486 H478 0.950 . S
C486 C484 1.391 . S
C486 C487 1.400 . S
C487 C486 1.400 . S
C487 C488 1.398 . S
C487 C493 1.491 . S
C488 H479 0.950 . S
C488 C487 1.398 . S
C488 C489 1.391 . S
C489 H477 0.950 . S
C489 C485 1.393 . S
C489 C488 1.391 . S
C490 H480 0.950 . S
C490 C491 1.386 . S
C490 C492 1.391 . S
C491 C490 1.386 . S
C491 C495 1.393 . S
C492 H481 0.950 . S
C492 C490 1.391 . S
C492 C493 1.400 . S
C493 C487 1.491 . S
C493 C492 1.400 . S
C493 C494 1.398 . S
C494 H482 0.950 . S
C494 C493 1.398 . S
C494 C495 1.391 . S
C495 H483 0.950 . S
C495 C491 1.393 . S
C495 C494 1.391 . S
H496 C504 0.950 . S
H497 C509 0.950 . S
H498 C506 0.950 . S
H499 C508 0.950 . S
H500 C510 0.950 . S
H501 C512 0.950 . S
H502 C514 0.950 . S
H503 C515 0.950 . S
C504 H496 0.950 . S
C504 C505 1.386 . S
C504 C506 1.391 . S
C505 C504 1.386 . S
C505 C509 1.393 . S
C506 H498 0.950 . S
C506 C504 1.391 . S
C506 C507 1.400 . S
C507 C506 1.400 . S
C507 C508 1.398 . S
C507 C513 1.491 . S
C508 H499 0.950 . S
C508 C507 1.398 . S
C508 C509 1.391 . S
C509 H497 0.950 . S
C509 C505 1.393 . S
C509 C508 1.391 . S
C510 H500 0.950 . S
C510 C511 1.386 . S
C510 C512 1.391 . S
C511 C510 1.386 . S
C511 C515 1.393 . S
C512 H501 0.950 . S
C512 C510 1.391 . S
C512 C513 1.400 . S
C513 C507 1.491 . S
C513 C512 1.400 . S
C513 C514 1.398 . S
C514 H502 0.950 . S
C514 C513 1.398 . S
C514 C515 1.391 . S
C515 H503 0.950 . S
C515 C511 1.393 . S
C515 C514 1.391 . S
H516 C524 0.950 . S
H517 C529 0.950 . S
H518 C526 0.950 . S
H519 C528 0.950 . S
H520 C530 0.950 . S
H521 C532 0.950 . S
H522 C534 0.950 . S
H523 C535 0.950 . S
C524 H516 0.950 . S
C524 C525 1.386 . S
C524 C526 1.391 . S
C525 C524 1.386 . S
C525 C529 1.393 . S
C526 H518 0.950 . S
C526 C524 1.391 . S
C526 C527 1.400 . S
C527 C526 1.400 . S
C527 C528 1.398 . S
C527 C533 1.491 . S
C528 H519 0.950 . S
C528 C527 1.398 . S
C528 C529 1.391 . S
C529 H517 0.950 . S
C529 C525 1.393 . S
C529 C528 1.391 . S
C530 H520 0.950 . S
C530 C531 1.386 . S
C530 C532 1.391 . S
C531 C530 1.386 . S
C531 C535 1.393 . S
C532 H521 0.950 . S
C532 C530 1.391 . S
C532 C533 1.400 . S
C533 C527 1.491 . S
C533 C532 1.400 . S
C533 C534 1.398 . S
C534 H522 0.950 . S
C534 C533 1.398 . S
C534 C535 1.391 . S
C535 H523 0.950 . S
C535 C531 1.393 . S
C535 C534 1.391 . S
H536 C544 0.950 . S
H537 C549 0.950 . S
H538 C546 0.950 . S
H539 C548 0.950 . S
H540 C550 0.950 . S
H541 C552 0.950 . S
H542 C554 0.950 . S
H543 C555 0.950 . S
C544 H536 0.950 . S
C544 C545 1.386 . S
C544 C546 1.391 . S
C545 C544 1.386 . S
C545 C549 1.393 . S
C546 H538 0.950 . S
C546 C544 1.391 . S
C546 C547 1.400 . S
C547 C546 1.400 . S
C547 C548 1.398 . S
C547 C553 1.491 . S
C548 H539 0.950 . S
C548 C547 1.398 . S
C548 C549 1.391 . S
C549 H537 0.950 . S
C549 C545 1.393 . S
C549 C548 1.391 . S
C550 H540 0.950 . S
C550 C551 1.386 . S
C550 C552 1.391 . S
C551 C550 1.386 . S
C551 C555 1.393 . S
C552 H541 0.950 . S
C552 C550 1.391 . S
C552 C553 1.400 . S
C553 C547 1.491 . S
C553 C552 1.400 . S
C553 C554 1.398 . S
C554 H542 0.950 . S
C554 C553 1.398 . S
C554 C555 1.391 . S
C555 H543 0.950 . S
C555 C551 1.393 . S
C555 C554 1.391 . S
H556 C564 0.950 . S
H557 C569 0.950 . S
H558 C566 0.950 . S
H559 C568 0.950 . S
H560 C570 0.950 . S
H561 C572 0.950 . S
H562 C574 0.950 . S
H563 C575 0.950 . S
C564 H556 0.950 . S
C564 C565 1.386 . S
C564 C566 1.391 . S
C565 C564 1.386 . S
C565 C569 1.393 . S
C566 H558 0.950 . S
C566 C564 1.391 . S
C566 C567 1.400 . S
C567 C566 1.400 . S
C567 C568 1.398 . S
C567 C573 1.491 . S
C568 H559 0.950 . S
C568 C567 1.398 . S
C568 C569 1.391 . S
C569 H557 0.950 . S
C569 C565 1.393 . S
C569 C568 1.391 . S
C570 H560 0.950 . S
C570 C571 1.386 . S
C570 C572 1.391 . S
C571 C570 1.386 . S
C571 C575 1.393 . S
C572 H561 0.950 . S
C572 C570 1.391 . S
C572 C573 1.400 . S
C573 C567 1.491 . S
C573 C572 1.400 . S
C573 C574 1.398 . S
C574 H562 0.950 . S
C574 C573 1.398 . S
C574 C575 1.391 . S
C575 H563 0.950 . S
C575 C571 1.393 . S
C575 C574 1.391 . S
H576 C584 0.950 . S
H577 C589 0.950 . S
H578 C586 0.950 . S
H579 C588 0.950 . S
H580 C590 0.950 . S
H581 C592 0.950 . S
H582 C594 0.950 . S
H583 C595 0.950 . S
C584 H576 0.950 . S
C584 C585 1.386 . S
C584 C586 1.391 . S
C585 C584 1.386 . S
C585 C589 1.393 . S
C586 H578 0.950 . S
C586 C584 1.391 . S
C586 C587 1.400 . S
C587 C586 1.400 . S
C587 C588 1.398 . S
C587 C593 1.491 . S
C588 H579 0.950 . S
C588 C587 1.398 . S
C588 C589 1.391 . S
C589 H577 0.950 . S
C589 C585 1.393 . S
C589 C588 1.391 . S
C590 H580 0.950 . S
C590 C591 1.386 . S
C590 C592 1.391 . S
C591 C590 1.386 . S
C591 C595 1.393 . S
C592 H581 0.950 . S
C592 C590 1.391 . S
C592 C593 1.400 . S
C593 C587 1.491 . S
C593 C592 1.400 . S
C593 C594 1.398 . S
C594 H582 0.950 . S
C594 C593 1.398 . S
C594 C595 1.391 . S
C595 H583 0.950 . S
C595 C591 1.393 . S
C595 C594 1.391 . S
H596 C604 0.950 . S
H597 C609 0.950 . S
H598 C606 0.950 . S
H599 C608 0.950 . S
H600 C610 0.950 . S
H601 C612 0.950 . S
H602 C614 0.950 . S
H603 C615 0.950 . S
C604 H596 0.950 . S
C604 C605 1.386 . S
C604 C606 1.391 . S
C605 C604 1.386 . S
C605 C609 1.393 . S
C606 H598 0.950 . S
C606 C604 1.391 . S
C606 C607 1.400 . S
C607 C606 1.400 . S
C607 C608 1.398 . S
C607 C613 1.491 . S
C608 H599 0.950 . S
C608 C607 1.398 . S
C608 C609 1.391 . S
C609 H597 0.950 . S
C609 C605 1.393 . S
C609 C608 1.391 . S
C610 H600 0.950 . S
C610 C611 1.386 . S
C610 C612 1.391 . S
C611 C610 1.386 . S
C611 C615 1.393 . S
C612 H601 0.950 . S
C612 C610 1.391 . S
C612 C613 1.400 . S
C613 C607 1.491 . S
C613 C612 1.400 . S
C613 C614 1.398 . S
C614 H602 0.950 . S
C614 C613 1.398 . S
C614 C615 1.391 . S
C615 H603 0.950 . S
C615 C611 1.393 . S
C615 C614 1.391 . S
H616 C624 0.950 . S
H617 C629 0.950 . S
H618 C626 0.950 . S
H619 C628 0.950 . S
H620 C630 0.950 . S
H621 C632 0.950 . S
H622 C634 0.950 . S
H623 C635 0.950 . S
C624 H616 0.950 . S
C624 C625 1.386 . S
C624 C626 1.391 . S
C625 C624 1.386 . S
C625 C629 1.393 . S
C626 H618 0.950 . S
C626 C624 1.391 . S
C626 C627 1.400 . S
C627 C626 1.400 . S
C627 C628 1.398 . S
C627 C633 1.491 . S
C628 H619 0.950 . S
C628 C627 1.398 . S
C628 C629 1.391 . S
C629 H617 0.950 . S
C629 C625 1.393 . S
C629 C628 1.391 . S
C630 H620 0.950 . S
C630 C631 1.386 . S
C630 C632 1.391 . S
C631 C630 1.386 . S
C631 C635 1.393 . S
C632 H621 0.950 . S
C632 C630 1.391 . S
C632 C633 1.400 . S
C633 C627 1.491 . S
C633 C632 1.400 . S
C633 C634 1.398 . S
C634 H622 0.950 . S
C634 C633 1.398 . S
C634 C635 1.391 . S
C635 H623 0.950 . S
C635 C631 1.393 . S
C635 C634 1.391 . S
C165 C104 1.409 . S
C171 C0 1.426 . S
C185 C13 1.424 . S
C191 C117 1.423 . S
C205 C26 1.410 . S
C211 C130 1.412 . S
C225 C39 1.407 . S
C231 C143 1.417 . S
C245 C78 1.428 . S
C251 C52 1.413 . S
C265 C65 1.408 . S
C271 C91 1.425 . S
C285 C8 1.303 . S
C291 C75 1.378 . S
C305 C21 1.328 . S
C311 C10 1.380 . S
C325 C34 1.304 . S
C331 C23 1.379 . S
C345 C36 1.382 . S
C351 C47 1.310 . S
C365 C49 1.381 . S
C371 C60 1.306 . S
C385 C62 1.381 . S
C391 C73 1.305 . S
C405 C101 1.366 . S
C411 C86 1.330 . S
C425 C99 1.328 . S
C431 C114 1.366 . S
C445 C127 1.381 . S
C451 C112 1.324 . S
C465 C125 1.311 . S
C471 C140 1.383 . S
C485 C138 1.334 . S
C491 C153 1.376 . S
C505 C151 1.325 . S
C511 C88 1.381 . S
C525 C135 1.175 . S
C531 C5 1.203 . S
C545 C148 1.196 . S
C551 C18 1.177 . S
C565 C83 1.194 . S
C571 C31 1.179 . S
C585 C44 1.197 . S
C591 C96 1.177 . S
C605 C57 1.202 . S
C611 C109 1.180 . S
C625 C122 1.201 . S
C631 C70 1.181 . S
