# Generated by pormake.
# Topology lta, (4)-cn, num edge types: 1
# Building blocks:
#     Node 0, Type 0, BuildingBlock: AZAVOO_clean_sbu_0, # of connection points: 4
#     Node 1, Type 0, BuildingBlock: AZAVOO_clean_sbu_0, # of connection points: 4
#     Node 2, Type 0, BuildingBlock: AZAVOO_clean_sbu_0, # of connection points: 4
#     Node 3, Type 0, BuildingBlock: AZAVOO_clean_sbu_0, # of connection points: 4
#     Node 4, Type 0, BuildingBlock: AZAVOO_clean_sbu_0, # of connection points: 4
#     Node 5, Type 0, BuildingBlock: AZAVOO_clean_sbu_0, # of connection points: 4
#     Node 6, Type 0, BuildingBlock: AZAVOO_clean_sbu_0, # of connection points: 4
#     Node 7, Type 0, BuildingBlock: AZAVOO_clean_sbu_0, # of connection points: 4
#     Node 8, Type 0, BuildingBlock: AZAVOO_clean_sbu_0, # of connection points: 4
#     Node 9, Type 0, BuildingBlock: AZAVOO_clean_sbu_0, # of connection points: 4
#     Node 10, Type 0, BuildingBlock: AZAVOO_clean_sbu_0, # of connection points: 4
#     Node 11, Type 0, BuildingBlock: AZAVOO_clean_sbu_0, # of connection points: 4
#     Node 12, Type 0, BuildingBlock: AZAVOO_clean_sbu_0, # of connection points: 4
#     Node 13, Type 0, BuildingBlock: AZAVOO_clean_sbu_0, # of connection points: 4
#     Node 14, Type 0, BuildingBlock: AZAVOO_clean_sbu_0, # of connection points: 4
#     Node 15, Type 0, BuildingBlock: AZAVOO_clean_sbu_0, # of connection points: 4
#     Node 16, Type 0, BuildingBlock: AZAVOO_clean_sbu_0, # of connection points: 4
#     Node 17, Type 0, BuildingBlock: AZAVOO_clean_sbu_0, # of connection points: 4
#     Node 18, Type 0, BuildingBlock: AZAVOO_clean_sbu_0, # of connection points: 4
#     Node 19, Type 0, BuildingBlock: AZAVOO_clean_sbu_0, # of connection points: 4
#     Node 20, Type 0, BuildingBlock: AZAVOO_clean_sbu_0, # of connection points: 4
#     Node 21, Type 0, BuildingBlock: AZAVOO_clean_sbu_0, # of connection points: 4
#     Node 22, Type 0, BuildingBlock: AZAVOO_clean_sbu_0, # of connection points: 4
#     Node 23, Type 0, BuildingBlock: AZAVOO_clean_sbu_0, # of connection points: 4
#     Edge 24, Type (0, 0), BuildingBlock: XUDNAN_clean_linker_2, # of connection points: 2
#     Edge 25, Type (0, 0), BuildingBlock: XUDNAN_clean_linker_2, # of connection points: 2
#     Edge 26, Type (0, 0), BuildingBlock: XUDNAN_clean_linker_2, # of connection points: 2
#     Edge 27, Type (0, 0), BuildingBlock: XUDNAN_clean_linker_2, # of connection points: 2
#     Edge 28, Type (0, 0), BuildingBlock: XUDNAN_clean_linker_2, # of connection points: 2
#     Edge 29, Type (0, 0), BuildingBlock: XUDNAN_clean_linker_2, # of connection points: 2
#     Edge 30, Type (0, 0), BuildingBlock: XUDNAN_clean_linker_2, # of connection points: 2
#     Edge 31, Type (0, 0), BuildingBlock: XUDNAN_clean_linker_2, # of connection points: 2
#     Edge 32, Type (0, 0), BuildingBlock: XUDNAN_clean_linker_2, # of connection points: 2
#     Edge 33, Type (0, 0), BuildingBlock: XUDNAN_clean_linker_2, # of connection points: 2
#     Edge 34, Type (0, 0), BuildingBlock: XUDNAN_clean_linker_2, # of connection points: 2
#     Edge 35, Type (0, 0), BuildingBlock: XUDNAN_clean_linker_2, # of connection points: 2
#     Edge 36, Type (0, 0), BuildingBlock: XUDNAN_clean_linker_2, # of connection points: 2
#     Edge 37, Type (0, 0), BuildingBlock: XUDNAN_clean_linker_2, # of connection points: 2
#     Edge 38, Type (0, 0), BuildingBlock: XUDNAN_clean_linker_2, # of connection points: 2
#     Edge 39, Type (0, 0), BuildingBlock: XUDNAN_clean_linker_2, # of connection points: 2
#     Edge 40, Type (0, 0), BuildingBlock: XUDNAN_clean_linker_2, # of connection points: 2
#     Edge 41, Type (0, 0), BuildingBlock: XUDNAN_clean_linker_2, # of connection points: 2
#     Edge 42, Type (0, 0), BuildingBlock: XUDNAN_clean_linker_2, # of connection points: 2
#     Edge 43, Type (0, 0), BuildingBlock: XUDNAN_clean_linker_2, # of connection points: 2
#     Edge 44, Type (0, 0), BuildingBlock: XUDNAN_clean_linker_2, # of connection points: 2
#     Edge 45, Type (0, 0), BuildingBlock: XUDNAN_clean_linker_2, # of connection points: 2
#     Edge 46, Type (0, 0), BuildingBlock: XUDNAN_clean_linker_2, # of connection points: 2
#     Edge 47, Type (0, 0), BuildingBlock: XUDNAN_clean_linker_2, # of connection points: 2
#     Edge 48, Type (0, 0), BuildingBlock: XUDNAN_clean_linker_2, # of connection points: 2
#     Edge 49, Type (0, 0), BuildingBlock: XUDNAN_clean_linker_2, # of connection points: 2
#     Edge 50, Type (0, 0), BuildingBlock: XUDNAN_clean_linker_2, # of connection points: 2
#     Edge 51, Type (0, 0), BuildingBlock: XUDNAN_clean_linker_2, # of connection points: 2
#     Edge 52, Type (0, 0), BuildingBlock: XUDNAN_clean_linker_2, # of connection points: 2
#     Edge 53, Type (0, 0), BuildingBlock: XUDNAN_clean_linker_2, # of connection points: 2
#     Edge 54, Type (0, 0), BuildingBlock: XUDNAN_clean_linker_2, # of connection points: 2
#     Edge 55, Type (0, 0), BuildingBlock: XUDNAN_clean_linker_2, # of connection points: 2
#     Edge 56, Type (0, 0), BuildingBlock: XUDNAN_clean_linker_2, # of connection points: 2
#     Edge 57, Type (0, 0), BuildingBlock: XUDNAN_clean_linker_2, # of connection points: 2
#     Edge 58, Type (0, 0), BuildingBlock: XUDNAN_clean_linker_2, # of connection points: 2
#     Edge 59, Type (0, 0), BuildingBlock: XUDNAN_clean_linker_2, # of connection points: 2
#     Edge 60, Type (0, 0), BuildingBlock: XUDNAN_clean_linker_2, # of connection points: 2
#     Edge 61, Type (0, 0), BuildingBlock: XUDNAN_clean_linker_2, # of connection points: 2
#     Edge 62, Type (0, 0), BuildingBlock: XUDNAN_clean_linker_2, # of connection points: 2
#     Edge 63, Type (0, 0), BuildingBlock: XUDNAN_clean_linker_2, # of connection points: 2
#     Edge 64, Type (0, 0), BuildingBlock: XUDNAN_clean_linker_2, # of connection points: 2
#     Edge 65, Type (0, 0), BuildingBlock: XUDNAN_clean_linker_2, # of connection points: 2
#     Edge 66, Type (0, 0), BuildingBlock: XUDNAN_clean_linker_2, # of connection points: 2
#     Edge 67, Type (0, 0), BuildingBlock: XUDNAN_clean_linker_2, # of connection points: 2
#     Edge 68, Type (0, 0), BuildingBlock: XUDNAN_clean_linker_2, # of connection points: 2
#     Edge 69, Type (0, 0), BuildingBlock: XUDNAN_clean_linker_2, # of connection points: 2
#     Edge 70, Type (0, 0), BuildingBlock: XUDNAN_clean_linker_2, # of connection points: 2
#     Edge 71, Type (0, 0), BuildingBlock: XUDNAN_clean_linker_2, # of connection points: 2
# Relax obj value: 0.171
# Max RMSD: 0.067
# Mean RMSD: 0.067
data_MOF--net-lta--node1-AZAVOO_clean_sbu_0--edge1-XUDNAN_clean_linker_2
_symmetry_space_group_name_H-M    P1
_symmetry_Int_Tables_number       1
_symmetry_cell_setting            triclinic
loop_
_symmetry_equiv_pos_as_xyz
'x, y, z'
_cell_length_a     56.316525
_cell_length_b     56.308293
_cell_length_c     56.275783
_cell_angle_alpha  90.033422
_cell_angle_beta   89.999163
_cell_angle_gamma 90.04843
loop_
_atom_site_label
_atom_site_type_symbol
_atom_site_fract_x
_atom_site_fract_y
_atom_site_fract_z
_atom_type_partial_charge
Mg0 Mg 0.12641 0.30935 0.54002 0.0
O1 O 0.12405 0.33489 0.5086 0.0
O2 O 0.09681 0.36245 0.51753 0.0
Mg3 Mg 0.07891 0.35214 0.55274 0.0
C4 C 0.11268 0.35384 0.5038 0.0
C5 C 0.16703 0.2743 0.53316 0.0
O6 O 0.15381 0.26451 0.54973 0.0
O7 O 0.14537 0.33872 0.56141 0.0
O8 O 0.11388 0.36132 0.57072 0.0
O9 O 0.09765 0.28618 0.52425 0.0
O10 O 0.09129 0.31568 0.54917 0.0
C11 C 0.1359 0.35625 0.57236 0.0
C12 C 0.08276 0.29921 0.53595 0.0
O13 O 0.16101 0.29449 0.5251 0.0
Mg14 Mg 0.694 0.12116 0.53592 0.0
O15 O 0.6731 0.12318 0.50116 0.0
O16 O 0.65151 0.09016 0.49687 0.0
Mg17 Mg 0.66041 0.06572 0.52829 0.0
C18 C 0.65822 0.1106 0.4897 0.0
C19 C 0.71296 0.16476 0.51139 0.0
O20 O 0.71496 0.14735 0.49597 0.0
O21 O 0.65955 0.12822 0.55712 0.0
O22 O 0.64268 0.09243 0.55301 0.0
O23 O 0.72378 0.10289 0.51683 0.0
O24 O 0.69425 0.08398 0.53434 0.0
C25 C 0.64296 0.11336 0.56179 0.0
C26 C 0.71309 0.08312 0.5215 0.0
O27 O 0.70341 0.16043 0.53142 0.0
Mg28 Mg 0.87867 0.70011 0.53822 0.0
O29 O 0.8775 0.67244 0.50842 0.0
O30 O 0.91067 0.65074 0.50951 0.0
Mg31 Mg 0.93178 0.66272 0.54213 0.0
C32 C 0.89071 0.65603 0.5002 0.0
C33 C 0.82848 0.72587 0.53622 0.0
O34 O 0.83722 0.73879 0.55359 0.0
O35 O 0.86781 0.67185 0.56525 0.0
O36 O 0.90161 0.65088 0.56685 0.0
O37 O 0.89989 0.72467 0.51535 0.0
O38 O 0.91605 0.69843 0.53951 0.0
C39 C 0.88034 0.65491 0.57358 0.0
C40 C 0.91881 0.71448 0.52345 0.0
O41 O 0.84056 0.70865 0.52811 0.0
Mg42 Mg 0.30087 0.87305 0.54919 0.0
O43 O 0.32481 0.86723 0.51681 0.0
O44 O 0.34457 0.90113 0.51007 0.0
Mg45 Mg 0.33303 0.92897 0.53719 0.0
C46 C 0.33977 0.87955 0.5051 0.0
C47 C 0.28976 0.81179 0.54862 0.0
O48 O 0.29788 0.79428 0.56174 0.0
O49 O 0.33398 0.87138 0.57343 0.0
O50 O 0.35046 0.90669 0.56572 0.0
O51 O 0.27152 0.88976 0.52574 0.0
O52 O 0.30014 0.90937 0.54322 0.0
C53 C 0.35004 0.88707 0.57704 0.0
C54 C 0.28196 0.90984 0.52975 0.0
O55 O 0.29718 0.83265 0.55325 0.0
Mg56 Mg 0.12356 0.70554 0.45437 0.0
O57 O 0.12829 0.6868 0.49045 0.0
O58 O 0.09644 0.66364 0.49632 0.0
Mg59 Mg 0.07235 0.66573 0.46375 0.0
C60 C 0.11638 0.67213 0.503 0.0
C61 C 0.16299 0.74286 0.45257 0.0
O62 O 0.14466 0.75379 0.44317 0.0
O63 O 0.13535 0.67081 0.43621 0.0
O64 O 0.10235 0.64912 0.44201 0.0
O65 O 0.10096 0.73438 0.47052 0.0
O66 O 0.0869 0.70067 0.4563 0.0
C67 C 0.12324 0.65174 0.43359 0.0
C68 C 0.08309 0.72037 0.46708 0.0
O69 O 0.16098 0.72096 0.45782 0.0
Mg70 Mg 0.30551 0.11164 0.45814 0.0
O71 O 0.32213 0.11444 0.49553 0.0
O72 O 0.34632 0.08343 0.50086 0.0
Mg73 Mg 0.34238 0.05869 0.4687 0.0
C74 C 0.33711 0.10287 0.50795 0.0
C75 C 0.27955 0.15279 0.4803 0.0
O76 O 0.27635 0.13452 0.49444 0.0
O77 O 0.34143 0.12161 0.44039 0.0
O78 O 0.3598 0.08672 0.44518 0.0
O79 O 0.27448 0.09004 0.47176 0.0
O80 O 0.30817 0.07454 0.45936 0.0
C81 C 0.359 0.10767 0.4365 0.0
C82 C 0.28744 0.07146 0.46827 0.0
O83 O 0.29247 0.15008 0.46193 0.0
Mg84 Mg 0.87858 0.30534 0.4685 0.0
O85 O 0.8763 0.33515 0.49609 0.0
O86 O 0.90962 0.3568 0.49417 0.0
Mg87 Mg 0.93335 0.34051 0.46554 0.0
C88 C 0.88915 0.35251 0.5029 0.0
C89 C 0.82979 0.281 0.46335 0.0
O90 O 0.84172 0.2711 0.44591 0.0
O91 O 0.87016 0.3327 0.4394 0.0
O92 O 0.90455 0.35276 0.43992 0.0
O93 O 0.8974 0.28279 0.49518 0.0
O94 O 0.9156 0.30616 0.46937 0.0
C95 C 0.88357 0.34946 0.43199 0.0
C96 C 0.91687 0.29204 0.48725 0.0
O97 O 0.8397 0.29726 0.47543 0.0
Mg98 Mg 0.70025 0.88099 0.45932 0.0
O99 O 0.678 0.88645 0.49289 0.0
O100 O 0.66105 0.9223 0.49093 0.0
Mg101 Mg 0.66938 0.93812 0.4543 0.0
C102 C 0.66524 0.90286 0.5018 0.0
C103 C 0.71462 0.82718 0.45744 0.0
O104 O 0.7146 0.83148 0.4345 0.0
O105 O 0.66657 0.87069 0.43857 0.0
O106 O 0.65097 0.90713 0.43553 0.0
O107 O 0.72981 0.90214 0.47598 0.0
O108 O 0.70205 0.91752 0.45293 0.0
C109 C 0.65064 0.88492 0.43086 0.0
C110 C 0.72023 0.9206 0.46627 0.0
O111 O 0.70798 0.84338 0.47166 0.0
Mg112 Mg 0.54339 0.11715 0.2956 0.0
O113 O 0.50885 0.12053 0.31843 0.0
O114 O 0.50983 0.08891 0.34263 0.0
Mg115 Mg 0.54337 0.06722 0.33788 0.0
C116 C 0.49971 0.10766 0.33485 0.0
C117 C 0.52795 0.17201 0.2846 0.0
O118 O 0.52041 0.17352 0.30664 0.0
O119 O 0.56525 0.13195 0.32704 0.0
O120 O 0.56357 0.09985 0.35048 0.0
O121 O 0.52499 0.09294 0.26975 0.0
O122 O 0.54372 0.08056 0.30182 0.0
C123 C 0.57028 0.12109 0.34636 0.0
C124 C 0.53048 0.07572 0.28386 0.0
O125 O 0.53785 0.15304 0.27748 0.0
Mg126 Mg 0.87801 0.53696 0.30351 0.0
O127 O 0.87845 0.50146 0.32305 0.0
O128 O 0.91117 0.50033 0.34553 0.0
Mg129 Mg 0.93367 0.53329 0.33752 0.0
C130 C 0.89171 0.49125 0.33826 0.0
C131 C 0.83166 0.53794 0.2742 0.0
O132 O 0.84534 0.55252 0.26216 0.0
O133 O 0.869 0.55681 0.3386 0.0
O134 O 0.90525 0.55591 0.35502 0.0
O135 O 0.89873 0.52076 0.27317 0.0
O136 O 0.91499 0.53865 0.30405 0.0
C137 C 0.88368 0.56288 0.35494 0.0
C138 C 0.9176 0.52707 0.28464 0.0
O139 O 0.83933 0.52949 0.29368 0.0
Mg140 Mg 0.45412 0.87393 0.31346 0.0
O141 O 0.49036 0.87093 0.33218 0.0
O142 O 0.49473 0.90347 0.35469 0.0
Mg143 Mg 0.46067 0.92518 0.35314 0.0
C144 C 0.50243 0.88382 0.34641 0.0
C145 C 0.45666 0.83502 0.27711 0.0
O146 O 0.45002 0.85411 0.26546 0.0
O147 O 0.43618 0.86142 0.34749 0.0
O148 O 0.44084 0.89387 0.3701 0.0
O149 O 0.47012 0.89596 0.28463 0.0
O150 O 0.45473 0.91117 0.31728 0.0
C151 C 0.43337 0.87269 0.36694 0.0
C152 C 0.46605 0.91443 0.29764 0.0
O153 O 0.45872 0.83623 0.29955 0.0
Mg154 Mg 0.12273 0.46706 0.30624 0.0
O155 O 0.12051 0.49896 0.33102 0.0
O156 O 0.08734 0.4962 0.35275 0.0
Mg157 Mg 0.06706 0.46311 0.33991 0.0
C158 C 0.10665 0.50666 0.34713 0.0
C159 C 0.17249 0.46915 0.28127 0.0
O160 O 0.16263 0.45236 0.26838 0.0
O161 O 0.13255 0.44453 0.33875 0.0
O162 O 0.09699 0.44103 0.35642 0.0
O163 O 0.10233 0.48681 0.27848 0.0
O164 O 0.0857 0.46407 0.30573 0.0
C165 C 0.11909 0.43617 0.35504 0.0
C166 C 0.08322 0.47883 0.28846 0.0
O167 O 0.16112 0.47755 0.29886 0.0
Mg168 Mg 0.54956 0.88192 0.6921 0.0
O169 O 0.51497 0.88 0.66959 0.0
O170 O 0.51178 0.91374 0.64877 0.0
Mg171 Mg 0.55028 0.92447 0.64473 0.0
C172 C 0.50294 0.89443 0.6568 0.0
C173 C 0.52152 0.84442 0.7209 0.0
O174 O 0.50825 0.86341 0.7236 0.0
O175 O 0.57402 0.86593 0.66363 0.0
O176 O 0.55396 0.88484 0.63636 0.0
O177 O 0.53159 0.90992 0.71422 0.0
O178 O 0.55444 0.91777 0.68327 0.0
C179 C 0.57155 0.872 0.642 0.0
C180 C 0.54067 0.92539 0.69982 0.0
O181 O 0.54022 0.8459 0.70833 0.0
Mg182 Mg 0.12863 0.54399 0.6894 0.0
O183 O 0.13578 0.51104 0.6669 0.0
O184 O 0.10651 0.50799 0.64012 0.0
Mg185 Mg 0.07896 0.53705 0.64778 0.0
C186 C 0.12604 0.5009 0.64916 0.0
C187 C 0.16745 0.54317 0.72614 0.0
O188 O 0.14828 0.54975 0.73771 0.0
O189 O 0.13924 0.56779 0.65788 0.0
O190 O 0.10586 0.56524 0.6363 0.0
O191 O 0.10761 0.52282 0.71591 0.0
O192 O 0.09206 0.53988 0.68428 0.0
C193 C 0.12633 0.57416 0.64031 0.0
C194 C 0.08925 0.52663 0.70268 0.0
O195 O 0.16626 0.54109 0.7037 0.0
Mg196 Mg 0.45816 0.12548 0.69814 0.0
O197 O 0.48797 0.12622 0.67021 0.0
O198 O 0.48744 0.09144 0.651 0.0
Mg199 Mg 0.45487 0.07054 0.66294 0.0
C200 C 0.49663 0.11179 0.65502 0.0
C201 C 0.46247 0.17125 0.72836 0.0
O202 O 0.44944 0.15759 0.74208 0.0
O203 O 0.43065 0.13493 0.66911 0.0
O204 O 0.43099 0.10042 0.64918 0.0
O205 O 0.48296 0.1055 0.72173 0.0
O206 O 0.45756 0.08799 0.69749 0.0
C207 C 0.42355 0.12163 0.65205 0.0
C208 C 0.47523 0.08627 0.71183 0.0
O209 O 0.46747 0.16406 0.70751 0.0
Mg210 Mg 0.88133 0.46436 0.69275 0.0
O211 O 0.87867 0.5025 0.67853 0.0
O212 O 0.90714 0.50737 0.65119 0.0
Mg213 Mg 0.92893 0.47344 0.649 0.0
C214 C 0.88945 0.51503 0.66306 0.0
C215 C 0.8351 0.4547 0.72327 0.0
O216 O 0.8452 0.4339 0.72634 0.0
O217 O 0.86514 0.45016 0.65786 0.0
O218 O 0.8961 0.45593 0.63351 0.0
O219 O 0.90712 0.47599 0.72081 0.0
O220 O 0.91785 0.4637 0.6852 0.0
C221 C 0.87496 0.44882 0.63743 0.0
C222 C 0.92387 0.47243 0.70548 0.0
O223 O 0.84508 0.46992 0.70994 0.0
Mg224 Mg 0.30983 0.53773 0.1274 0.0
O225 O 0.32844 0.50094 0.12171 0.0
O226 O 0.34048 0.499 0.08364 0.0
Mg227 Mg 0.34705 0.53766 0.07524 0.0
C228 C 0.33598 0.48926 0.10365 0.0
C229 C 0.29339 0.54028 0.18104 0.0
O230 O 0.29654 0.56317 0.17778 0.0
O231 O 0.34342 0.55769 0.13992 0.0
O232 O 0.36164 0.53711 0.11286 0.0
O233 O 0.28058 0.52444 0.10453 0.0
O234 O 0.31132 0.54435 0.09029 0.0
C235 C 0.36178 0.55442 0.12722 0.0
C236 C 0.29228 0.53223 0.08633 0.0
O237 O 0.2987 0.52595 0.16443 0.0
Mg238 Mg 0.30569 0.45932 0.88298 0.0
O239 O 0.32928 0.492 0.87668 0.0
O240 O 0.35284 0.49689 0.90834 0.0
Mg241 Mg 0.34623 0.46605 0.93382 0.0
C242 C 0.34535 0.50331 0.88795 0.0
C243 C 0.27029 0.46791 0.84381 0.0
O244 O 0.25768 0.46643 0.86338 0.0
O245 O 0.3365 0.43453 0.87334 0.0
O246 O 0.35942 0.43969 0.90556 0.0
O247 O 0.27966 0.48109 0.90391 0.0
O248 O 0.31016 0.46234 0.91985 0.0
C249 C 0.35516 0.43001 0.88546 0.0
C250 C 0.29222 0.47616 0.92243 0.0
O251 O 0.29237 0.46337 0.84481 0.0
Mg252 Mg 0.53688 0.29601 0.89501 0.0
O253 O 0.50168 0.316 0.89485 0.0
O254 O 0.50181 0.34233 0.92456 0.0
Mg255 Mg 0.53581 0.33648 0.94638 0.0
C256 C 0.49202 0.33279 0.90647 0.0
C257 C 0.53917 0.28082 0.83928 0.0
O258 O 0.56074 0.28973 0.83944 0.0
O259 O 0.55681 0.32958 0.88088 0.0
O260 O 0.55728 0.34994 0.91512 0.0
O261 O 0.52169 0.26884 0.92079 0.0
O262 O 0.54121 0.30089 0.93176 0.0
C263 C 0.56354 0.34737 0.89348 0.0
C264 C 0.53003 0.28199 0.9377 0.0
O265 O 0.52673 0.2816 0.85812 0.0
Mg266 Mg 0.69206 0.53676 0.87479 0.0
O267 O 0.66734 0.50412 0.8773 0.0
O268 O 0.65287 0.49976 0.91418 0.0
Mg269 Mg 0.66133 0.53432 0.93411 0.0
C270 C 0.65533 0.4926 0.89273 0.0
C271 C 0.7188 0.53204 0.82584 0.0
O272 O 0.73035 0.55065 0.83391 0.0
O273 O 0.65901 0.55973 0.86365 0.0
O274 O 0.65075 0.55099 0.90035 0.0
O275 O 0.71983 0.51608 0.89492 0.0
O276 O 0.69396 0.53853 0.91349 0.0
C277 C 0.64461 0.56055 0.88107 0.0
C278 C 0.71074 0.5233 0.91467 0.0
O279 O 0.70066 0.52463 0.83706 0.0
Mg280 Mg 0.46474 0.69481 0.87703 0.0
O281 O 0.49447 0.66712 0.88266 0.0
O282 O 0.48395 0.64827 0.91612 0.0
Mg283 Mg 0.45081 0.66451 0.93291 0.0
C284 C 0.49781 0.65098 0.89831 0.0
C285 C 0.4684 0.72317 0.83334 0.0
O286 O 0.45391 0.73397 0.84811 0.0
O287 O 0.43983 0.66424 0.86559 0.0
O288 O 0.43016 0.64995 0.90143 0.0
O289 O 0.4849 0.72224 0.89804 0.0
O290 O 0.45964 0.69666 0.91354 0.0
C291 C 0.42785 0.65022 0.87888 0.0
C292 C 0.47526 0.71303 0.91673 0.0
O293 O 0.47652 0.70296 0.83924 0.0
Mg294 Mg 0.69048 0.45439 0.11945 0.0
O295 O 0.66781 0.48787 0.12134 0.0
O296 O 0.64554 0.49003 0.08853 0.0
Mg297 Mg 0.65183 0.45621 0.06665 0.0
C298 C 0.65254 0.49838 0.10843 0.0
C299 C 0.71428 0.48223 0.15961 0.0
O300 O 0.7153 0.49661 0.14126 0.0
O301 O 0.65786 0.43248 0.13161 0.0
O302 O 0.63786 0.43371 0.09716 0.0
O303 O 0.71722 0.47284 0.09528 0.0
O304 O 0.68671 0.45196 0.08254 0.0
C305 C 0.64025 0.42643 0.11851 0.0
C306 C 0.70482 0.46477 0.07771 0.0
O307 O 0.70383 0.46232 0.15716 0.0
Mg308 Mg 0.53762 0.69531 0.12119 0.0
O309 O 0.50449 0.67157 0.1163 0.0
O310 O 0.50902 0.65377 0.08097 0.0
Mg311 Mg 0.54384 0.66509 0.06355 0.0
C312 C 0.49717 0.65764 0.09992 0.0
C313 C 0.52857 0.72551 0.16297 0.0
O314 O 0.53785 0.73876 0.14614 0.0
O315 O 0.56001 0.66224 0.13076 0.0
O316 O 0.56406 0.64801 0.09387 0.0
O317 O 0.51958 0.72506 0.101 0.0
O318 O 0.54174 0.69748 0.08433 0.0
C319 C 0.56882 0.64733 0.11602 0.0
C320 C 0.52777 0.71531 0.08192 0.0
O321 O 0.52699 0.70327 0.15946 0.0
Mg322 Mg 0.45231 0.29883 0.13161 0.0
O323 O 0.48271 0.32536 0.1297 0.0
O324 O 0.48862 0.33524 0.09172 0.0
Mg325 Mg 0.45919 0.31771 0.06937 0.0
C326 C 0.49424 0.3364 0.11369 0.0
C327 C 0.4561 0.30181 0.19371 0.0
O328 O 0.44745 0.31686 0.20933 0.0
O329 O 0.42519 0.329 0.1273 0.0
O330 O 0.42992 0.33805 0.08883 0.0
O331 O 0.47921 0.27021 0.12122 0.0
O332 O 0.45664 0.28934 0.09581 0.0
C333 C 0.41957 0.34089 0.10881 0.0
C334 C 0.47342 0.27455 0.0994 0.0
O335 O 0.45152 0.30555 0.17187 0.0
H336 H 0.1115 0.3903 0.3681 0.0
H337 H 0.14729 0.45515 0.38874 0.0
H338 H 0.15358 0.43894 0.42908 0.0
H339 H 0.08006 0.38104 0.41686 0.0
H340 H 0.08329 0.34929 0.41936 0.0
H341 H 0.08608 0.36332 0.39084 0.0
H342 H 0.12792 0.34517 0.38513 0.0
H343 H 0.12506 0.33044 0.41344 0.0
H344 H 0.1502 0.34942 0.40774 0.0
H345 H 0.14702 0.42009 0.4686 0.0
H346 H 0.13466 0.39649 0.50362 0.0
H347 H 0.10641 0.34203 0.45716 0.0
C348 C 0.12179 0.40044 0.38082 0.0
C349 C 0.12942 0.42367 0.3754 0.0
C350 C 0.142 0.43703 0.39253 0.0
C351 C 0.14547 0.42803 0.41548 0.0
C352 C 0.13678 0.40542 0.4207 0.0
C353 C 0.12598 0.39141 0.40362 0.0
C354 C 0.11683 0.36842 0.41427 0.0
C355 C 0.08998 0.36537 0.41008 0.0
C356 C 0.13084 0.3471 0.40457 0.0
C357 C 0.12236 0.37259 0.44027 0.0
C358 C 0.13405 0.39397 0.44357 0.0
C359 C 0.13862 0.40297 0.4662 0.0
C360 C 0.13134 0.38963 0.48593 0.0
C361 C 0.11986 0.36753 0.48284 0.0
C362 C 0.11555 0.35876 0.4598 0.0
H363 H 0.61186 0.11165 0.47666 0.0
H364 H 0.68241 0.13089 0.45292 0.0
H365 H 0.6659 0.14389 0.41418 0.0
H366 H 0.59072 0.08744 0.42623 0.0
H367 H 0.56109 0.09938 0.42822 0.0
H368 H 0.5783 0.09532 0.45471 0.0
H369 H 0.5725 0.13982 0.46521 0.0
H370 H 0.55546 0.14404 0.4384 0.0
H371 H 0.58114 0.16229 0.4441 0.0
H372 H 0.64226 0.148 0.37595 0.0
H373 H 0.61414 0.142 0.34251 0.0
H374 H 0.55902 0.12297 0.39254 0.0
C375 C 0.62369 0.11901 0.46339 0.0
C376 C 0.64832 0.12013 0.46748 0.0
C377 C 0.66342 0.12996 0.44996 0.0
C378 C 0.65419 0.1375 0.42802 0.0
C379 C 0.62973 0.13586 0.42433 0.0
C380 C 0.61467 0.12725 0.44178 0.0
C381 C 0.58936 0.12582 0.43305 0.0
C382 C 0.57931 0.10049 0.43569 0.0
C383 C 0.57369 0.14408 0.44596 0.0
C384 C 0.59283 0.13268 0.40732 0.0
C385 C 0.61606 0.13918 0.40267 0.0
C386 C 0.62387 0.14365 0.3795 0.0
C387 C 0.6078 0.14039 0.36061 0.0
C388 C 0.58443 0.13245 0.36516 0.0
C389 C 0.57669 0.12961 0.38879 0.0
H390 H 0.91756 0.64673 0.46148 0.0
H391 H 0.84687 0.63734 0.49024 0.0
H392 H 0.83513 0.61482 0.45407 0.0
H393 H 0.89742 0.655 0.39961 0.0
H394 H 0.92331 0.64041 0.38775 0.0
H395 H 0.92525 0.65655 0.41535 0.0
H396 H 0.94149 0.61895 0.43645 0.0
H397 H 0.93977 0.6028 0.40896 0.0
H398 H 0.92475 0.59167 0.43496 0.0
H399 H 0.83287 0.59009 0.41526 0.0
H400 H 0.84051 0.56657 0.37853 0.0
H401 H 0.91184 0.5954 0.37561 0.0
C402 C 0.89959 0.63999 0.46007 0.0
C403 C 0.88315 0.64342 0.47856 0.0
C404 C 0.85967 0.63476 0.47611 0.0
C405 C 0.85287 0.62204 0.45566 0.0
C406 C 0.86962 0.61882 0.43766 0.0
C407 C 0.89239 0.62792 0.43964 0.0
C408 C 0.90724 0.62215 0.41812 0.0
C409 C 0.91368 0.64488 0.4044 0.0
C410 C 0.92961 0.60805 0.42505 0.0
C411 C 0.88986 0.60713 0.40431 0.0
C412 C 0.86807 0.60559 0.41547 0.0
C413 C 0.84978 0.59148 0.40622 0.0
C414 C 0.85418 0.57827 0.38535 0.0
C415 C 0.87676 0.57917 0.37434 0.0
C416 C 0.89441 0.5943 0.3837 0.0
H417 H 0.32993 0.87745 0.45787 0.0
H418 H 0.3818 0.85755 0.51092 0.0
H419 H 0.40934 0.84452 0.47927 0.0
H420 H 0.34738 0.82896 0.41231 0.0
H421 H 0.34213 0.84916 0.38804 0.0
H422 H 0.32437 0.85107 0.41464 0.0
H423 H 0.3358 0.89544 0.41907 0.0
H424 H 0.35352 0.89366 0.39265 0.0
H425 H 0.36675 0.90364 0.42008 0.0
H426 H 0.43384 0.84233 0.44304 0.0
H427 H 0.45355 0.85135 0.40483 0.0
H428 H 0.386 0.8717 0.37453 0.0
C429 C 0.34671 0.86938 0.46264 0.0
C430 C 0.35382 0.86799 0.48656 0.0
C431 C 0.3761 0.85823 0.49254 0.0
C432 C 0.39174 0.85073 0.47471 0.0
C433 C 0.38461 0.85289 0.45108 0.0
C434 C 0.36247 0.86169 0.44499 0.0
C435 C 0.3604 0.8652 0.41839 0.0
C436 C 0.34251 0.84754 0.40771 0.0
C437 C 0.35375 0.89101 0.41221 0.0
C438 C 0.38548 0.8592 0.41077 0.0
C439 C 0.39893 0.85133 0.42979 0.0
C440 C 0.42335 0.84761 0.42783 0.0
C441 C 0.4344 0.85273 0.40613 0.0
C442 C 0.42102 0.86143 0.38681 0.0
C443 C 0.39626 0.8641 0.38891 0.0
H444 H 0.10113 0.61238 0.62728 0.0
H445 H 0.16842 0.5772 0.61577 0.0
H446 H 0.17679 0.60441 0.58203 0.0
H447 H 0.08399 0.61704 0.57136 0.0
H448 H 0.07063 0.64608 0.57304 0.0
H449 H 0.07279 0.62815 0.59926 0.0
H450 H 0.09559 0.66181 0.62092 0.0
H451 H 0.09328 0.68007 0.5947 0.0
H452 H 0.12195 0.67417 0.60761 0.0
H453 H 0.17406 0.63096 0.54547 0.0
H454 H 0.16042 0.65322 0.50997 0.0
H455 H 0.09436 0.66963 0.54564 0.0
C456 C 0.11803 0.61107 0.61818 0.0
C457 C 0.13428 0.59302 0.62408 0.0
C458 C 0.15603 0.59132 0.61168 0.0
C459 C 0.16085 0.60667 0.59252 0.0
C460 C 0.14393 0.62382 0.58652 0.0
C461 C 0.12312 0.62632 0.59934 0.0
C462 C 0.10656 0.64415 0.58803 0.0
C463 C 0.08208 0.63317 0.58259 0.0
C464 C 0.10421 0.66637 0.60375 0.0
C465 C 0.12021 0.64972 0.56564 0.0
C466 C 0.14214 0.63863 0.56542 0.0
C467 C 0.15717 0.64011 0.54574 0.0
C468 C 0.14934 0.65279 0.5257 0.0
C469 C 0.12648 0.66319 0.52537 0.0
C470 C 0.11202 0.66201 0.54571 0.0
H471 H 0.38092 0.11833 0.52077 0.0
H472 H 0.30962 0.10789 0.54746 0.0
H473 H 0.32301 0.11947 0.58788 0.0
H474 H 0.41196 0.09505 0.56634 0.0
H475 H 0.43567 0.1166 0.56668 0.0
H476 H 0.41943 0.11134 0.53977 0.0
H477 H 0.40924 0.15617 0.53725 0.0
H478 H 0.42535 0.16151 0.56444 0.0
H479 H 0.39475 0.17049 0.56195 0.0
H480 H 0.34581 0.12584 0.62613 0.0
H481 H 0.37582 0.12533 0.65833 0.0
H482 H 0.43177 0.13326 0.60633 0.0
C483 C 0.3681 0.11908 0.5351 0.0
C484 C 0.34431 0.11233 0.53125 0.0
C485 C 0.32789 0.11326 0.55022 0.0
C486 C 0.33534 0.1199 0.57313 0.0
C487 C 0.3591 0.1262 0.57653 0.0
C488 C 0.37513 0.12623 0.55788 0.0
C489 C 0.39995 0.13212 0.56638 0.0
C490 C 0.41778 0.1126 0.5594 0.0
C491 C 0.40778 0.15652 0.55694 0.0
C492 C 0.39589 0.13307 0.59296 0.0
C493 C 0.37208 0.13048 0.59848 0.0
C494 C 0.36437 0.12861 0.622 0.0
C495 C 0.38148 0.12852 0.64021 0.0
C496 C 0.40593 0.13006 0.63473 0.0
C497 C 0.41309 0.13302 0.61092 0.0
H498 H 0.86393 0.40242 0.63052 0.0
H499 H 0.86187 0.47183 0.59776 0.0
H500 H 0.85734 0.45331 0.55837 0.0
H501 H 0.89995 0.37763 0.59357 0.0
H502 H 0.88711 0.34839 0.59114 0.0
H503 H 0.88171 0.36593 0.61719 0.0
H504 H 0.8363 0.36263 0.61105 0.0
H505 H 0.84144 0.34432 0.58524 0.0
H506 H 0.8235 0.3707 0.58284 0.0
H507 H 0.86599 0.4288 0.52353 0.0
H508 H 0.88084 0.39899 0.49491 0.0
H509 H 0.87574 0.34441 0.54883 0.0
C510 C 0.86074 0.41356 0.61517 0.0
C511 C 0.86252 0.43846 0.61704 0.0
C512 C 0.8598 0.45272 0.59658 0.0
C513 C 0.85736 0.44232 0.57414 0.0
C514 C 0.85746 0.41763 0.57254 0.0
C515 C 0.85832 0.40332 0.59255 0.0
C516 C 0.86176 0.37746 0.5857 0.0
C517 C 0.88395 0.36676 0.5976 0.0
C518 C 0.83942 0.36292 0.59155 0.0
C519 C 0.865 0.37982 0.55908 0.0
C520 C 0.86199 0.4031 0.55182 0.0
C521 C 0.86746 0.41037 0.52878 0.0
C522 C 0.87612 0.39345 0.51274 0.0
C523 C 0.87907 0.36958 0.51979 0.0
C524 C 0.87302 0.36255 0.54304 0.0
H525 H 0.58448 0.84618 0.60288 0.0
H526 H 0.60472 0.90581 0.6471 0.0
H527 H 0.63407 0.91833 0.61701 0.0
H528 H 0.64715 0.8357 0.57798 0.0
H529 H 0.63529 0.82731 0.54943 0.0
H530 H 0.61886 0.82081 0.57616 0.0
H531 H 0.58258 0.84311 0.55889 0.0
H532 H 0.59896 0.85015 0.53239 0.0
H533 H 0.5858 0.87363 0.54974 0.0
H534 H 0.65407 0.92909 0.57933 0.0
H535 H 0.66941 0.93368 0.53842 0.0
H536 H 0.63985 0.86526 0.51935 0.0
C537 C 0.59598 0.86116 0.60659 0.0
C538 C 0.5929 0.8748 0.62739 0.0
C539 C 0.60742 0.89486 0.63148 0.0
C540 C 0.62399 0.90216 0.61445 0.0
C541 C 0.6261 0.88888 0.59367 0.0
C542 C 0.61308 0.86835 0.58995 0.0
C543 C 0.61792 0.85817 0.56545 0.0
C544 C 0.63056 0.83407 0.56737 0.0
C545 C 0.59495 0.85617 0.55077 0.0
C546 C 0.6344 0.87702 0.5555 0.0
C547 C 0.63888 0.89454 0.57213 0.0
C548 C 0.65137 0.91513 0.56638 0.0
C549 C 0.65981 0.91772 0.54312 0.0
C550 C 0.65601 0.89973 0.52604 0.0
C551 C 0.64336 0.87902 0.53235 0.0
H552 H 0.38907 0.07755 0.41435 0.0
H553 H 0.37268 0.15257 0.42051 0.0
H554 H 0.40579 0.1617 0.39257 0.0
H555 H 0.45105 0.08231 0.41338 0.0
H556 H 0.45472 0.05843 0.39235 0.0
H557 H 0.42946 0.05869 0.41187 0.0
H558 H 0.40135 0.05605 0.37539 0.0
H559 H 0.4266 0.05596 0.35576 0.0
H560 H 0.40363 0.07794 0.35213 0.0
H561 H 0.44307 0.16155 0.36428 0.0
H562 H 0.4794 0.15222 0.3408 0.0
H563 H 0.46828 0.07725 0.3543 0.0
C564 C 0.39231 0.09601 0.41002 0.0
C565 C 0.37838 0.11438 0.41987 0.0
C566 C 0.38317 0.13819 0.41324 0.0
C567 C 0.4019 0.14349 0.39736 0.0
C568 C 0.41534 0.12474 0.38808 0.0
C569 C 0.4105 0.10148 0.39424 0.0
C570 C 0.42727 0.08423 0.38252 0.0
C571 C 0.44146 0.0701 0.40114 0.0
C572 C 0.41391 0.06757 0.36544 0.0
C573 C 0.44288 0.1013 0.36913 0.0
C574 C 0.43585 0.12463 0.37218 0.0
C575 C 0.44852 0.14329 0.36173 0.0
C576 C 0.46904 0.13786 0.34834 0.0
C577 C 0.47668 0.11402 0.34582 0.0
C578 C 0.46302 0.09568 0.35599 0.0
H579 H 0.88339 0.39612 0.44022 0.0
H580 H 0.86526 0.34368 0.38699 0.0
H581 H 0.85989 0.37588 0.35724 0.0
H582 H 0.8438 0.44557 0.4164 0.0
H583 H 0.86573 0.46745 0.42446 0.0
H584 H 0.86224 0.44099 0.44216 0.0
H585 H 0.907 0.4319 0.43671 0.0
H586 H 0.91059 0.45788 0.41861 0.0
H587 H 0.919 0.42919 0.40711 0.0
H588 H 0.8628 0.41368 0.3323 0.0
H589 H 0.87352 0.45274 0.31482 0.0
H590 H 0.89216 0.47895 0.38474 0.0
C591 C 0.87736 0.39157 0.4225 0.0
C592 C 0.87444 0.36767 0.41576 0.0
C593 C 0.86706 0.36204 0.39244 0.0
C594 C 0.86407 0.3802 0.37551 0.0
C595 C 0.86823 0.4037 0.38248 0.0
C596 C 0.87432 0.40936 0.40561 0.0
C597 C 0.88052 0.43533 0.40827 0.0
C598 C 0.86197 0.44809 0.42373 0.0
C599 C 0.90577 0.43874 0.41824 0.0
C600 C 0.8788 0.44316 0.38271 0.0
C601 C 0.87087 0.42499 0.36814 0.0
C602 C 0.8687 0.42806 0.34363 0.0
C603 C 0.8749 0.45019 0.33385 0.0
C604 C 0.88384 0.46856 0.34851 0.0
C605 C 0.88555 0.46503 0.3732 0.0
H606 H 0.5425 0.90999 0.34713 0.0
H607 H 0.51492 0.84027 0.36405 0.0
H608 H 0.55309 0.82996 0.38363 0.0
H609 H 0.60598 0.88979 0.33725 0.0
H610 H 0.61719 0.91715 0.34955 0.0
H611 H 0.58945 0.91694 0.33356 0.0
H612 H 0.56852 0.93594 0.36993 0.0
H613 H 0.59599 0.93603 0.38607 0.0
H614 H 0.5703 0.92143 0.39843 0.0
H615 H 0.59228 0.83036 0.40708 0.0
H616 H 0.62826 0.8411 0.4304 0.0
H617 H 0.62937 0.91002 0.39617 0.0
C618 C 0.54483 0.89232 0.35435 0.0
C619 C 0.52604 0.87587 0.35414 0.0
C620 C 0.52939 0.85295 0.36386 0.0
C621 C 0.55096 0.84699 0.375 0.0
C622 C 0.56904 0.86398 0.37559 0.0
C623 C 0.56627 0.886 0.365 0.0
C624 C 0.58743 0.90184 0.36936 0.0
C625 C 0.6008 0.90671 0.34604 0.0
C626 C 0.5801 0.92516 0.38169 0.0
C627 C 0.60177 0.88609 0.38559 0.0
C628 C 0.59134 0.86407 0.38865 0.0
C629 C 0.60082 0.84737 0.4044 0.0
C630 C 0.62121 0.85357 0.41757 0.0
C631 C 0.63144 0.8764 0.41513 0.0
C632 C 0.62186 0.89245 0.39848 0.0
H633 H 0.11709 0.64107 0.38718 0.0
H634 H 0.14796 0.61541 0.45266 0.0
H635 H 0.15142 0.5752 0.43532 0.0
H636 H 0.08097 0.59577 0.37732 0.0
H637 H 0.08384 0.59358 0.34549 0.0
H638 H 0.0894 0.62142 0.36008 0.0
H639 H 0.13156 0.62352 0.34187 0.0
H640 H 0.12593 0.59596 0.32651 0.0
H641 H 0.15157 0.59881 0.34548 0.0
H642 H 0.14314 0.53698 0.4146 0.0
H643 H 0.12835 0.5038 0.38973 0.0
H644 H 0.10349 0.55399 0.33707 0.0
C645 C 0.12592 0.62724 0.39721 0.0
C646 C 0.13306 0.63129 0.42087 0.0
C647 C 0.14326 0.61267 0.43419 0.0
C648 C 0.14508 0.58978 0.42453 0.0
C649 C 0.13677 0.58599 0.40149 0.0
C650 C 0.12796 0.60433 0.38772 0.0
C651 C 0.11778 0.59509 0.36453 0.0
C652 C 0.09144 0.60187 0.36172 0.0
C653 C 0.1326 0.60386 0.34334 0.0
C654 C 0.12076 0.56863 0.36812 0.0
C655 C 0.13204 0.56376 0.38941 0.0
C656 C 0.13488 0.54058 0.39763 0.0
C657 C 0.12624 0.52191 0.38358 0.0
C658 C 0.1149 0.5266 0.36169 0.0
C659 C 0.11229 0.55015 0.35374 0.0
H660 H 0.38059 0.92001 0.59423 0.0
H661 H 0.36407 0.84481 0.59815 0.0
H662 H 0.39996 0.83863 0.62307 0.0
H663 H 0.44064 0.91356 0.58583 0.0
H664 H 0.44884 0.93946 0.60278 0.0
H665 H 0.42032 0.93813 0.58854 0.0
H666 H 0.39951 0.94589 0.62892 0.0
H667 H 0.42804 0.94739 0.64335 0.0
H668 H 0.40584 0.92686 0.65388 0.0
H669 H 0.44038 0.84083 0.64449 0.0
H670 H 0.48065 0.85085 0.6592 0.0
H671 H 0.46942 0.92443 0.63929 0.0
C672 C 0.38416 0.90221 0.60056 0.0
C673 C 0.36953 0.88287 0.59419 0.0
C674 C 0.37497 0.85993 0.60293 0.0
C675 C 0.39531 0.85628 0.61708 0.0
C676 C 0.40974 0.87579 0.62238 0.0
C677 C 0.40419 0.89832 0.61443 0.0
C678 C 0.4232 0.91617 0.62064 0.0
C679 C 0.43387 0.92747 0.59811 0.0
C680 C 0.41357 0.93519 0.63772 0.0
C681 C 0.44078 0.90016 0.63286 0.0
C682 C 0.43272 0.87698 0.63409 0.0
C683 C 0.44669 0.85898 0.64379 0.0
C684 C 0.46953 0.86483 0.6521 0.0
C685 C 0.47821 0.88841 0.65028 0.0
C686 C 0.46338 0.90623 0.64089 0.0
H687 H 0.12284 0.45518 0.66356 0.0
H688 H 0.15462 0.50059 0.61039 0.0
H689 H 0.17126 0.46531 0.59 0.0
H690 H 0.17012 0.40615 0.66191 0.0
H691 H 0.1477 0.38356 0.66536 0.0
H692 H 0.14383 0.41223 0.67914 0.0
H693 H 0.10329 0.41729 0.6578 0.0
H694 H 0.1069 0.38861 0.64452 0.0
H695 H 0.10192 0.4142 0.62593 0.0
H696 H 0.17782 0.42572 0.57167 0.0
H697 H 0.16877 0.38641 0.55435 0.0
H698 H 0.13218 0.3664 0.61881 0.0
C699 C 0.13402 0.45755 0.64808 0.0
C700 C 0.13788 0.48031 0.63857 0.0
C701 C 0.15185 0.48311 0.61793 0.0
C702 C 0.16151 0.46323 0.60643 0.0
C703 C 0.15708 0.44076 0.61594 0.0
C704 C 0.1436 0.43784 0.63633 0.0
C705 C 0.13796 0.41194 0.64069 0.0
C706 C 0.15067 0.40294 0.66311 0.0
C707 C 0.11093 0.40778 0.64229 0.0
C708 C 0.14858 0.40094 0.61855 0.0
C709 C 0.16052 0.41766 0.60503 0.0
C710 C 0.16918 0.4123 0.5824 0.0
C711 C 0.16421 0.38985 0.57275 0.0
C712 C 0.15036 0.37336 0.5856 0.0
C713 C 0.1436 0.37851 0.60915 0.0
H714 H 0.53039 0.0814 0.63915 0.0
H715 H 0.5131 0.15631 0.64317 0.0
H716 H 0.5503 0.16597 0.6215 0.0
H717 H 0.59398 0.08899 0.64795 0.0
H718 H 0.60118 0.06479 0.62826 0.0
H719 H 0.57373 0.0644 0.64469 0.0
H720 H 0.55016 0.05948 0.60538 0.0
H721 H 0.57749 0.05978 0.58887 0.0
H722 H 0.55436 0.08072 0.58177 0.0
H723 H 0.58926 0.16658 0.59713 0.0
H724 H 0.62515 0.15792 0.57288 0.0
H725 H 0.61584 0.08275 0.58698 0.0
C726 C 0.53437 0.09986 0.63544 0.0
C727 C 0.51881 0.1181 0.64255 0.0
C728 C 0.52486 0.14207 0.6378 0.0
C729 C 0.54592 0.1477 0.62555 0.0
C730 C 0.56086 0.12916 0.61865 0.0
C731 C 0.55534 0.10575 0.62368 0.0
C732 C 0.57401 0.08894 0.61445 0.0
C733 C 0.58646 0.07603 0.63506 0.0
C734 C 0.56336 0.0712 0.59655 0.0
C735 C 0.5905 0.10638 0.60252 0.0
C736 C 0.58297 0.12955 0.60528 0.0
C737 C 0.59537 0.14848 0.59504 0.0
C738 C 0.61575 0.14345 0.58137 0.0
C739 C 0.6232 0.11968 0.57793 0.0
C740 C 0.61054 0.10112 0.58907 0.0
H741 H 0.86861 0.52735 0.62194 0.0
H742 H 0.89066 0.55527 0.69007 0.0
H743 H 0.88127 0.59609 0.6764 0.0
H744 H 0.89369 0.56712 0.58733 0.0
H745 H 0.87051 0.5698 0.56538 0.0
H746 H 0.87305 0.54308 0.58247 0.0
H747 H 0.82948 0.54764 0.59656 0.0
H748 H 0.82678 0.57455 0.57938 0.0
H749 H 0.82017 0.5748 0.61071 0.0
H750 H 0.87799 0.63338 0.65256 0.0
H751 H 0.88178 0.66354 0.62082 0.0
H752 H 0.86102 0.61136 0.5684 0.0
C753 C 0.87055 0.54209 0.63417 0.0
C754 C 0.88009 0.53851 0.65699 0.0
C755 C 0.883 0.5579 0.67261 0.0
C756 C 0.87762 0.58104 0.66501 0.0
C757 C 0.86884 0.5842 0.64199 0.0
C758 C 0.86491 0.56513 0.62695 0.0
C759 C 0.85818 0.57327 0.60224 0.0
C760 C 0.87488 0.56271 0.58327 0.0
C761 C 0.8321 0.5672 0.59691 0.0
C762 C 0.86146 0.59978 0.60494 0.0
C763 C 0.86664 0.60587 0.62824 0.0
C764 C 0.87313 0.62897 0.63448 0.0
C765 C 0.87517 0.646 0.61641 0.0
C766 C 0.87094 0.63972 0.59247 0.0
C767 C 0.86337 0.61661 0.58677 0.0
H768 H 0.36257 0.46618 0.1371 0.0
H769 H 0.32031 0.45524 0.0737 0.0
H770 H 0.33218 0.41306 0.07288 0.0
H771 H 0.41036 0.43434 0.11759 0.0
H772 H 0.41868 0.42161 0.14577 0.0
H773 H 0.40283 0.44929 0.14491 0.0
H774 H 0.37005 0.43164 0.17195 0.0
H775 H 0.3859 0.40385 0.173 0.0
H776 H 0.35539 0.40449 0.16335 0.0
H777 H 0.35328 0.37515 0.0745 0.0
H778 H 0.38307 0.34331 0.07806 0.0
H779 H 0.41276 0.37764 0.14027 0.0
C780 C 0.35513 0.45455 0.12369 0.0
C781 C 0.34018 0.46361 0.10572 0.0
C782 C 0.33153 0.44837 0.08774 0.0
C783 C 0.3381 0.42443 0.08722 0.0
C784 C 0.35347 0.41608 0.10472 0.0
C785 C 0.36191 0.4306 0.12268 0.0
C786 C 0.38086 0.41801 0.13717 0.0
C787 C 0.40457 0.43162 0.13629 0.0
C788 C 0.37254 0.41427 0.1629 0.0
C789 C 0.38242 0.39459 0.12392 0.0
C790 C 0.36611 0.39378 0.10554 0.0
C791 C 0.36571 0.37526 0.08916 0.0
C792 C 0.38272 0.35732 0.09126 0.0
C793 C 0.39982 0.35794 0.10964 0.0
C794 C 0.39934 0.37647 0.12654 0.0
H795 H 0.38565 0.63611 0.89629 0.0
H796 H 0.43621 0.62166 0.84021 0.0
H797 H 0.41572 0.58359 0.83168 0.0
H798 H 0.38543 0.58296 0.92046 0.0
H799 H 0.35434 0.58118 0.92793 0.0
H800 H 0.36836 0.60965 0.92516 0.0
H801 H 0.33749 0.62245 0.89352 0.0
H802 H 0.32295 0.59406 0.89653 0.0
H803 H 0.33267 0.60409 0.86772 0.0
H804 H 0.39447 0.54383 0.83502 0.0
H805 H 0.37412 0.50728 0.84914 0.0
H806 H 0.33914 0.54792 0.90419 0.0
C807 C 0.39169 0.62542 0.88147 0.0
C808 C 0.41224 0.63184 0.86868 0.0
C809 C 0.42012 0.61726 0.8498 0.0
C810 C 0.40865 0.59556 0.84496 0.0
C811 C 0.38915 0.58907 0.85892 0.0
C812 C 0.38047 0.6039 0.8765 0.0
C813 C 0.36137 0.59189 0.89109 0.0
C814 C 0.36779 0.59139 0.91771 0.0
C815 C 0.33718 0.60383 0.88696 0.0
C816 C 0.3619 0.56736 0.88029 0.0
C817 C 0.37742 0.56617 0.86125 0.0
C818 C 0.38191 0.54475 0.84955 0.0
C819 C 0.37038 0.52412 0.85766 0.0
C820 C 0.35511 0.52511 0.87757 0.0
C821 C 0.35062 0.54696 0.88877 0.0
H822 H 0.48274 0.37714 0.89015 0.0
H823 H 0.45001 0.309 0.90419 0.0
H824 H 0.41085 0.32528 0.89228 0.0
H825 H 0.44063 0.41358 0.91192 0.0
H826 H 0.44201 0.43583 0.88892 0.0
H827 H 0.46744 0.41761 0.89483 0.0
H828 H 0.46817 0.40453 0.85064 0.0
H829 H 0.4424 0.4226 0.8447 0.0
H830 H 0.44205 0.3914 0.83759 0.0
H831 H 0.3749 0.35055 0.88424 0.0
H832 H 0.34528 0.38301 0.8834 0.0
H833 H 0.40164 0.43437 0.87396 0.0
C834 C 0.4673 0.36566 0.89031 0.0
C835 C 0.46907 0.34199 0.89817 0.0
C836 C 0.44878 0.32722 0.89814 0.0
C837 C 0.42658 0.33627 0.89124 0.0
C838 C 0.42527 0.35985 0.88372 0.0
C839 C 0.44519 0.37425 0.88291 0.0
C840 C 0.43883 0.39933 0.87566 0.0
C841 C 0.44773 0.41764 0.89394 0.0
C842 C 0.44844 0.40479 0.85067 0.0
C843 C 0.41202 0.39752 0.87529 0.0
C844 C 0.40455 0.37436 0.87882 0.0
C845 C 0.38053 0.36862 0.88085 0.0
C846 C 0.36381 0.3871 0.88021 0.0
C847 C 0.37132 0.41096 0.87807 0.0
C848 C 0.39558 0.41614 0.87491 0.0
H849 H 0.64971 0.45311 0.91962 0.0
H850 H 0.63471 0.48167 0.84978 0.0
H851 H 0.6128 0.44478 0.83937 0.0
H852 H 0.65789 0.39108 0.8998 0.0
H853 H 0.64479 0.37957 0.92666 0.0
H854 H 0.6607 0.40736 0.92725 0.0
H855 H 0.62374 0.42833 0.94512 0.0
H856 H 0.60785 0.40067 0.94474 0.0
H857 H 0.59567 0.42624 0.92985 0.0
H858 H 0.58826 0.40553 0.83908 0.0
H859 H 0.56479 0.36935 0.8492 0.0
H860 H 0.59915 0.36704 0.91802 0.0
C861 C 0.64204 0.45148 0.90204 0.0
C862 C 0.64377 0.47015 0.88555 0.0
C863 C 0.63365 0.4674 0.86264 0.0
C864 C 0.62121 0.44653 0.85658 0.0
C865 C 0.61961 0.42842 0.87346 0.0
C866 C 0.63012 0.43072 0.89559 0.0
C867 C 0.62539 0.4094 0.91104 0.0
C868 C 0.64857 0.39607 0.9165 0.0
C869 C 0.61238 0.4166 0.93403 0.0
C870 C 0.60961 0.39515 0.89471 0.0
C871 C 0.60653 0.40605 0.87294 0.0
C872 C 0.59096 0.39666 0.85592 0.0
C873 C 0.57779 0.37607 0.86169 0.0
C874 C 0.58026 0.36544 0.88433 0.0
C875 C 0.59697 0.37475 0.90051 0.0
H876 H 0.62605 0.60114 0.85925 0.0
H877 H 0.60762 0.53892 0.90099 0.0
H878 H 0.56785 0.55484 0.90781 0.0
H879 H 0.59684 0.64275 0.89439 0.0
H880 H 0.58524 0.66095 0.87075 0.0
H881 H 0.61186 0.64388 0.86612 0.0
H882 H 0.59282 0.62345 0.82959 0.0
H883 H 0.56614 0.64061 0.83393 0.0
H884 H 0.56459 0.60866 0.83271 0.0
H885 H 0.53298 0.57836 0.91506 0.0
H886 H 0.50112 0.60766 0.91895 0.0
H887 H 0.53899 0.6553 0.87138 0.0
C888 C 0.61326 0.59061 0.86902 0.0
C889 C 0.61986 0.56879 0.87954 0.0
C890 C 0.60292 0.55569 0.89277 0.0
C891 C 0.58024 0.56454 0.89678 0.0
C892 C 0.57447 0.58642 0.8871 0.0
C893 C 0.59011 0.5992 0.8731 0.0
C894 C 0.5791 0.62283 0.86598 0.0
C895 C 0.59416 0.64384 0.87485 0.0
C896 C 0.57544 0.62395 0.83894 0.0
C897 C 0.55543 0.62147 0.879 0.0
C898 C 0.55334 0.60018 0.89094 0.0
C899 C 0.53408 0.59496 0.90545 0.0
C900 C 0.51614 0.61185 0.90767 0.0
C901 C 0.51745 0.63378 0.89541 0.0
C902 C 0.53736 0.63859 0.88075 0.0
H903 H 0.64946 0.53924 0.08341 0.0
H904 H 0.63359 0.50834 0.15201 0.0
H905 H 0.61425 0.54595 0.16458 0.0
H906 H 0.66172 0.60013 0.10708 0.0
H907 H 0.6494 0.61386 0.08092 0.0
H908 H 0.66384 0.58539 0.07872 0.0
H909 H 0.62597 0.56745 0.05949 0.0
H910 H 0.61155 0.5958 0.06149 0.0
H911 H 0.59794 0.57004 0.07478 0.0
H912 H 0.59174 0.58567 0.16692 0.0
H913 H 0.56952 0.62296 0.15882 0.0
H914 H 0.60374 0.62781 0.09001 0.0
C915 C 0.64217 0.54058 0.10118 0.0
C916 C 0.64272 0.52108 0.11672 0.0
C917 C 0.63327 0.5233 0.13993 0.0
C918 C 0.62235 0.54456 0.1472 0.0
C919 C 0.6218 0.56353 0.13126 0.0
C920 C 0.63191 0.56178 0.10889 0.0
C921 C 0.62838 0.58417 0.09467 0.0
C922 C 0.65226 0.59662 0.09008 0.0
C923 C 0.61516 0.57905 0.07125 0.0
C924 C 0.61331 0.59823 0.1118 0.0
C925 C 0.60991 0.58639 0.13303 0.0
C926 C 0.59472 0.59533 0.15057 0.0
C927 C 0.58223 0.61652 0.1459 0.0
C928 C 0.58494 0.62818 0.12381 0.0
C929 C 0.60133 0.61928 0.10709 0.0
H930 H 0.39478 0.57673 0.15557 0.0
H931 H 0.36312 0.57755 0.08537 0.0
H932 H 0.39202 0.60769 0.07246 0.0
H933 H 0.41116 0.64208 0.15658 0.0
H934 H 0.43863 0.63638 0.17198 0.0
H935 H 0.41321 0.61756 0.17706 0.0
H936 H 0.43833 0.58072 0.16581 0.0
H937 H 0.46371 0.59939 0.1605 0.0
H938 H 0.45312 0.57987 0.13741 0.0
H939 H 0.42704 0.63216 0.06511 0.0
H940 H 0.4658 0.65231 0.06421 0.0
H941 H 0.47538 0.63802 0.13931 0.0
C942 C 0.3936 0.5839 0.13776 0.0
C943 C 0.37682 0.57496 0.1214 0.0
C944 C 0.37596 0.58417 0.09806 0.0
C945 C 0.3922 0.60138 0.09062 0.0
C946 C 0.40908 0.60933 0.10682 0.0
C947 C 0.40981 0.60123 0.13001 0.0
C948 C 0.4311 0.61149 0.14306 0.0
C949 C 0.42304 0.62785 0.16338 0.0
C950 C 0.44753 0.59168 0.15222 0.0
C951 C 0.44274 0.62561 0.12323 0.0
C952 C 0.42948 0.62424 0.1026 0.0
C953 C 0.43735 0.63386 0.08125 0.0
C954 C 0.45944 0.64512 0.08086 0.0
C955 C 0.47339 0.64684 0.10168 0.0
C956 C 0.46478 0.63732 0.12327 0.0
H957 H 0.62238 0.38993 0.09382 0.0
H958 H 0.61591 0.42662 0.16114 0.0
H959 H 0.57863 0.40436 0.16942 0.0
H960 H 0.5655 0.39402 0.0772 0.0
H961 H 0.56306 0.36529 0.06326 0.0
H962 H 0.59147 0.37967 0.06515 0.0
H963 H 0.60924 0.34326 0.08696 0.0
H964 H 0.58099 0.32838 0.08458 0.0
H965 H 0.59483 0.33199 0.11324 0.0
H966 H 0.5391 0.38168 0.16713 0.0
H967 H 0.50238 0.36033 0.15536 0.0
H968 H 0.53497 0.34122 0.08825 0.0
C969 C 0.61354 0.39266 0.11071 0.0
C970 C 0.62195 0.40976 0.12696 0.0
C971 C 0.60988 0.41321 0.14871 0.0
C972 C 0.58867 0.40076 0.15343 0.0
C973 C 0.58017 0.38484 0.1363 0.0
C974 C 0.59257 0.38052 0.11555 0.0
C975 C 0.57893 0.36452 0.09884 0.0
C976 C 0.57448 0.37662 0.07471 0.0
C977 C 0.59176 0.34062 0.09573 0.0
C978 C 0.55622 0.36155 0.1127 0.0
C979 C 0.55739 0.3728 0.13454 0.0
C980 C 0.53815 0.37268 0.15016 0.0
C981 C 0.51737 0.36065 0.14329 0.0
C982 C 0.51582 0.34949 0.12076 0.0
C983 C 0.53554 0.34996 0.1054 0.0
H984 H 0.05718 0.28073 0.4985 0.0
H985 H 0.0498 0.3121 0.56854 0.0
H986 H 0.00623 0.30954 0.56523 0.0
H987 H 0.01039 0.31235 0.47235 0.0
H988 H 0.00027 0.28838 0.45366 0.0
H989 H 0.03088 0.2897 0.46273 0.0
H990 H 0.02751 0.2473 0.48035 0.0
H991 H 0.9968 0.24589 0.47139 0.0
H992 H 0.00478 0.24098 0.50201 0.0
H993 H 0.96356 0.30491 0.55403 0.0
H994 H 0.92463 0.30273 0.5336 0.0
H995 H 0.95948 0.27768 0.46971 0.0
C996 C 0.04635 0.28662 0.51327 0.0
C997 C 0.0568 0.29638 0.53387 0.0
C998 C 0.0421 0.30448 0.55262 0.0
C999 C 0.01735 0.30297 0.55099 0.0
C1000 C 0.00752 0.29347 0.53039 0.0
C1001 C 0.02151 0.28564 0.51174 0.0
C1002 C 0.00637 0.27824 0.49075 0.0
C1003 C 0.01233 0.29306 0.46857 0.0
C1004 C 0.00903 0.25152 0.48584 0.0
C1005 C 0.98183 0.28394 0.50023 0.0
C1006 C 0.98285 0.29199 0.5234 0.0
C1007 C 0.96249 0.29848 0.53594 0.0
C1008 C 0.94051 0.29709 0.5243 0.0
C1009 C 0.93928 0.28985 0.50031 0.0
C1010 C 0.96012 0.28306 0.48818 0.0
H1011 H 0.70863 0.03889 0.54032 0.0
H1012 H 0.734 0.07664 0.47819 0.0
H1013 H 0.7431 0.03829 0.45863 0.0
H1014 H 0.75353 0.99019 0.53699 0.0
H1015 H 0.73257 0.96834 0.54737 0.0
H1016 H 0.73019 0.99874 0.55716 0.0
H1017 H 0.68665 0.00037 0.54205 0.0
H1018 H 0.68905 0.97001 0.53263 0.0
H1019 H 0.68034 0.99251 0.51161 0.0
H1020 H 0.74369 0.99623 0.44401 0.0
H1021 H 0.73829 0.95328 0.43623 0.0
H1022 H 0.71577 0.94271 0.509 0.0
C1023 C 0.71649 0.03903 0.52275 0.0
C1024 C 0.72065 0.06057 0.51067 0.0
C1025 C 0.73091 0.06024 0.48774 0.0
C1026 C 0.73611 0.03858 0.47654 0.0
C1027 C 0.73153 0.01756 0.48884 0.0
C1028 C 0.72235 0.01763 0.51161 0.0
C1029 C 0.71827 0.99263 0.52062 0.0
C1030 C 0.73462 0.98716 0.54179 0.0
C1031 C 0.69201 0.98867 0.52708 0.0
C1032 C 0.72541 0.97845 0.49892 0.0
C1033 C 0.73318 0.99318 0.48083 0.0
C1034 C 0.7384 0.98445 0.45825 0.0
C1035 C 0.73535 0.96011 0.45399 0.0
C1036 C 0.72753 0.94483 0.4723 0.0
C1037 C 0.72281 0.954 0.4951 0.0
H1038 H 0.96074 0.69024 0.52999 0.0
H1039 H 0.93095 0.75224 0.49531 0.0
H1040 H 0.97071 0.76238 0.47966 0.0
H1041 H 0.01785 0.71505 0.54535 0.0
H1042 H 0.03374 0.68805 0.5388 0.0
H1043 H 0.00337 0.68669 0.54877 0.0
H1044 H 0.99196 0.66239 0.51133 0.0
H1045 H 0.02231 0.66355 0.50136 0.0
H1046 H 0.99884 0.67406 0.4823 0.0
H1047 H 0.01409 0.76578 0.468 0.0
H1048 H 0.05633 0.75931 0.45716 0.0
H1049 H 0.05632 0.69345 0.49688 0.0
C1050 C 0.96242 0.70592 0.51913 0.0
C1051 C 0.94262 0.72042 0.51391 0.0
C1052 C 0.94583 0.74083 0.49955 0.0
C1053 C 0.96837 0.74681 0.49068 0.0
C1054 C 0.98747 0.73206 0.49614 0.0
C1055 C 0.98463 0.71185 0.50977 0.0
C1056 C 0.00762 0.69806 0.51177 0.0
C1057 C 0.01614 0.6969 0.53771 0.0
C1058 C 0.00502 0.67304 0.50104 0.0
C1059 C 0.02379 0.71353 0.49691 0.0
C1060 C 0.01201 0.73334 0.48847 0.0
C1061 C 0.02346 0.75031 0.47447 0.0
C1062 C 0.0474 0.7466 0.46853 0.0
C1063 C 0.0593 0.7259 0.47617 0.0
C1064 C 0.04745 0.70935 0.49073 0.0
H1065 H 0.30437 0.04617 0.50535 0.0
H1066 H 0.25396 0.04336 0.44741 0.0
H1067 H 0.24447 0.00142 0.45754 0.0
H1068 H 0.32704 0.98865 0.4994 0.0
H1069 H 0.3299 0.98341 0.53086 0.0
H1070 H 0.33148 0.01321 0.51948 0.0
H1071 H 0.29721 0.02596 0.54751 0.0
H1072 H 0.29563 0.99619 0.5591 0.0
H1073 H 0.26948 0.00994 0.54679 0.0
H1074 H 0.24414 0.95768 0.47237 0.0
H1075 H 0.25101 0.91862 0.49202 0.0
H1076 H 0.2981 0.95324 0.54229 0.0
C1077 C 0.29103 0.03678 0.49513 0.0
C1078 C 0.27972 0.04774 0.4758 0.0
C1079 C 0.26254 0.03509 0.46251 0.0
C1080 C 0.25714 0.01132 0.46808 0.0
C1081 C 0.26882 0.00077 0.48723 0.0
C1082 C 0.28511 0.01335 0.50077 0.0
C1083 C 0.2955 0.99823 0.52024 0.0
C1084 C 0.32258 0.99573 0.5173 0.0
C1085 C 0.28906 0.00817 0.54487 0.0
C1086 C 0.28292 0.97503 0.51539 0.0
C1087 C 0.26775 0.97652 0.4962 0.0
C1088 C 0.25573 0.95646 0.48766 0.0
C1089 C 0.25966 0.93437 0.4989 0.0
C1090 C 0.27535 0.93272 0.51849 0.0
C1091 C 0.2864 0.95358 0.52705 0.0
H1092 H 0.47306 0.95383 0.3259 0.0
H1093 H 0.48022 0.92846 0.25345 0.0
H1094 H 0.49605 0.96762 0.24147 0.0
H1095 H 0.45646 0.01428 0.31256 0.0
H1096 H 0.47366 0.02659 0.33661 0.0
H1097 H 0.46153 0.99708 0.33909 0.0
H1098 H 0.50361 0.98045 0.34755 0.0
H1099 H 0.51586 0.00989 0.34507 0.0
H1100 H 0.52728 0.98623 0.32677 0.0
H1101 H 0.51059 0.01002 0.2374 0.0
H1102 H 0.52605 0.05099 0.24246 0.0
H1103 H 0.51142 0.047 0.31794 0.0
C1104 C 0.47775 0.95642 0.30752 0.0
C1105 C 0.47526 0.93804 0.29062 0.0
C1106 C 0.48198 0.94228 0.26673 0.0
C1107 C 0.4909 0.96448 0.25973 0.0
C1108 C 0.49324 0.98217 0.2769 0.0
C1109 C 0.48706 0.97829 0.30035 0.0
C1110 C 0.49248 0.99975 0.31562 0.0
C1111 C 0.46968 0.01003 0.32661 0.0
C1112 C 0.51091 0.99371 0.33488 0.0
C1113 C 0.50273 0.01629 0.29709 0.0
C1114 C 0.50271 0.006 0.2748 0.0
C1115 C 0.51085 0.01818 0.25481 0.0
C1116 C 0.51952 0.04139 0.2578 0.0
C1117 C 0.52035 0.05184 0.28063 0.0
C1118 C 0.51165 0.03919 0.30041 0.0
H1119 H 0.94216 0.48719 0.29627 0.0
H1120 H 0.94729 0.55363 0.25799 0.0
H1121 H 0.9903 0.54689 0.25173 0.0
H1122 H 0.99426 0.49245 0.32753 0.0
H1123 H 0.00283 0.46164 0.32616 0.0
H1124 H 0.97198 0.46965 0.32436 0.0
H1125 H 0.96809 0.44727 0.28431 0.0
H1126 H 0.99893 0.43889 0.28612 0.0
H1127 H 0.98804 0.45433 0.26028 0.0
H1128 H 0.0332 0.5349 0.2533 0.0
H1129 H 0.07289 0.51846 0.26225 0.0
H1130 H 0.03992 0.46001 0.30019 0.0
C1131 C 0.95227 0.49975 0.28576 0.0
C1132 C 0.94155 0.52053 0.27688 0.0
C1133 C 0.95527 0.53727 0.26421 0.0
C1134 C 0.97965 0.53362 0.26069 0.0
C1135 C 0.98993 0.51312 0.27 0.0
C1136 C 0.97664 0.49632 0.28209 0.0
C1137 C 0.9923 0.47677 0.29188 0.0
C1138 C 0.99021 0.47505 0.31909 0.0
C1139 C 0.98649 0.4529 0.27993 0.0
C1140 C 0.01653 0.48574 0.28435 0.0
C1141 C 0.01475 0.50649 0.27139 0.0
C1142 C 0.0348 0.51849 0.26317 0.0
C1143 C 0.05727 0.50904 0.26835 0.0
C1144 C 0.05949 0.48799 0.28192 0.0
C1145 C 0.03879 0.47617 0.28982 0.0
H1146 H 0.50071 0.94671 0.71859 0.0
H1147 H 0.56789 0.96178 0.68394 0.0
H1148 H 0.55935 0.00467 0.68579 0.0
H1149 H 0.46772 0.99107 0.68727 0.0
H1150 H 0.44914 0.99878 0.71219 0.0
H1151 H 0.46125 0.96929 0.70985 0.0
H1152 H 0.48013 0.97376 0.75161 0.0
H1153 H 0.46818 0.00335 0.75403 0.0
H1154 H 0.49961 0.99848 0.75754 0.0
H1155 H 0.54416 0.04583 0.69187 0.0
H1156 H 0.52083 0.08263 0.69745 0.0
H1157 H 0.46187 0.04127 0.72464 0.0
C1158 C 0.51369 0.9591 0.71166 0.0
C1159 C 0.5351 0.95098 0.70139 0.0
C1160 C 0.55143 0.96765 0.69198 0.0
C1161 C 0.5468 0.99205 0.69303 0.0
C1162 C 0.52559 0.99953 0.70327 0.0
C1163 C 0.50911 0.9836 0.7121 0.0
C1164 C 0.48702 0.9964 0.72072 0.0
C1165 C 0.46499 0.98841 0.70666 0.0
C1166 C 0.48353 0.99278 0.74757 0.0
C1167 C 0.49362 0.02192 0.71513 0.0
C1168 C 0.51619 0.02333 0.70557 0.0
C1169 C 0.52647 0.04498 0.69936 0.0
C1170 C 0.51321 0.06576 0.70272 0.0
C1171 C 0.48979 0.06463 0.71168 0.0
C1172 C 0.47986 0.04248 0.71795 0.0
H1173 H 0.96075 0.47682 0.67379 0.0
H1174 H 0.94359 0.48391 0.74859 0.0
H1175 H 0.98513 0.49594 0.75668 0.0
H1176 H 0.02051 0.45556 0.6796 0.0
H1177 H 0.03125 0.47271 0.65479 0.0
H1178 H 0.00083 0.46281 0.6554 0.0
H1179 H 0.98645 0.50621 0.65018 0.0
H1180 H 0.01679 0.51626 0.64947 0.0
H1181 H 0.99636 0.52866 0.67078 0.0
H1182 H 0.02906 0.50712 0.75617 0.0
H1183 H 0.06984 0.52075 0.74664 0.0
H1184 H 0.05608 0.50928 0.67175 0.0
C1185 C 0.96546 0.48089 0.69187 0.0
C1186 C 0.94874 0.47945 0.71051 0.0
C1187 C 0.95606 0.48492 0.73398 0.0
C1188 C 0.97963 0.49168 0.73875 0.0
C1189 C 0.99555 0.49313 0.71981 0.0
C1190 C 0.98863 0.48816 0.6968 0.0
C1191 C 0.00849 0.49261 0.67927 0.0
C1192 C 0.01569 0.46955 0.66652 0.0
C1193 C 0.00161 0.51209 0.66138 0.0
C1194 C 0.02776 0.50099 0.69597 0.0
C1195 C 0.02016 0.50076 0.71934 0.0
C1196 C 0.03511 0.50748 0.73792 0.0
C1197 C 0.05823 0.51507 0.73238 0.0
C1198 C 0.0659 0.51632 0.70846 0.0
C1199 C 0.05053 0.50892 0.69013 0.0
H1200 H 0.31737 0.50763 0.94931 0.0
H1201 H 0.25345 0.46484 0.94826 0.0
H1202 H 0.24476 0.47664 0.9898 0.0
H1203 H 0.33529 0.49627 0.00722 0.0
H1204 H 0.34503 0.52603 0.01394 0.0
H1205 H 0.34525 0.51562 0.98371 0.0
H1206 H 0.31889 0.55113 0.97102 0.0
H1207 H 0.31871 0.56176 0.00124 0.0
H1208 H 0.29108 0.55625 0.98603 0.0
H1209 H 0.2457 0.48948 0.03253 0.0
H1210 H 0.25445 0.50482 0.0727 0.0
H1211 H 0.31598 0.54204 0.04483 0.0
C1212 C 0.30136 0.50117 0.95781 0.0
C1213 C 0.28595 0.48546 0.9459 0.0
C1214 C 0.26522 0.47711 0.95728 0.0
C1215 C 0.26021 0.48368 0.98079 0.0
C1216 C 0.27587 0.49903 0.99229 0.0
C1217 C 0.29578 0.50807 0.98104 0.0
C1218 C 0.30982 0.52408 0.99748 0.0
C1219 C 0.33535 0.51494 0.00078 0.0
C1220 C 0.30961 0.54983 0.9884 0.0
C1221 C 0.29541 0.52161 0.02006 0.0
C1222 C 0.27583 0.50722 0.01667 0.0
C1223 C 0.26073 0.50114 0.03532 0.0
C1224 C 0.26588 0.5099 0.05809 0.0
C1225 C 0.28593 0.52461 0.06198 0.0
C1226 C 0.30056 0.53082 0.04254 0.0
H1227 H 0.49 0.2656 0.96051 0.0
H1228 H 0.563 0.28687 0.97223 0.0
H1229 H 0.55815 0.28044 0.01539 0.0
H1230 H 0.46786 0.29705 0.00933 0.0
H1231 H 0.44505 0.27581 0.01667 0.0
H1232 H 0.45553 0.27813 0.98659 0.0
H1233 H 0.46563 0.23319 0.98675 0.0
H1234 H 0.4554 0.23084 0.01701 0.0
H1235 H 0.48504 0.2215 0.00936 0.0
H1236 H 0.54457 0.27471 0.05764 0.0
H1237 H 0.52188 0.27534 0.0954 0.0
H1238 H 0.45724 0.26049 0.05645 0.0
C1239 C 0.50508 0.26821 0.97217 0.0
C1240 C 0.52701 0.27622 0.96311 0.0
C1241 C 0.54613 0.28045 0.9789 0.0
C1242 C 0.54359 0.27671 0.0034 0.0
C1243 C 0.52167 0.26904 0.01194 0.0
C1244 C 0.50264 0.26515 0.99682 0.0
C1245 C 0.4802 0.26011 0.01077 0.0
C1246 C 0.46104 0.27889 0.00553 0.0
C1247 C 0.47103 0.23491 0.00567 0.0
C1248 C 0.48948 0.2622 0.03599 0.0
C1249 C 0.51357 0.26678 0.03634 0.0
C1250 C 0.52577 0.27074 0.05762 0.0
C1251 C 0.51284 0.27082 0.07902 0.0
C1252 C 0.48797 0.26742 0.07881 0.0
C1253 C 0.47636 0.26251 0.05709 0.0
H1254 H 0.7138 0.54227 0.95932 0.0
H1255 H 0.71517 0.4757 0.9206 0.0
H1256 H 0.71628 0.45369 0.95859 0.0
H1257 H 0.75482 0.52243 0.00708 0.0
H1258 H 0.73947 0.53899 0.02978 0.0
H1259 H 0.73983 0.54969 0.9996 0.0
H1260 H 0.69387 0.55092 0.99936 0.0
H1261 H 0.69334 0.54026 0.0295 0.0
H1262 H 0.67738 0.52445 0.00666 0.0
H1263 H 0.71261 0.43909 0.99997 0.0
H1264 H 0.70785 0.43229 0.04301 0.0
H1265 H 0.71264 0.50802 0.05594 0.0
C1266 C 0.71492 0.52307 0.95895 0.0
C1267 C 0.71486 0.51058 0.93714 0.0
C1268 C 0.71585 0.48551 0.93716 0.0
C1269 C 0.71631 0.47291 0.95862 0.0
C1270 C 0.71631 0.4857 0.97984 0.0
C1271 C 0.71605 0.51022 0.98025 0.0
C1272 C 0.71602 0.51953 0.00561 0.0
C1273 C 0.7389 0.53349 0.01082 0.0
C1274 C 0.69383 0.53467 0.01056 0.0
C1275 C 0.71541 0.49637 0.01936 0.0
C1276 C 0.71554 0.47713 0.00404 0.0
C1277 C 0.71312 0.45393 0.01218 0.0
C1278 C 0.71043 0.45025 0.0366 0.0
C1279 C 0.71055 0.46957 0.05267 0.0
C1280 C 0.71334 0.49294 0.04401 0.0
H1281 H 0.47967 0.68345 0.95458 0.0
H1282 H 0.4907 0.7564 0.93294 0.0
H1283 H 0.50365 0.76639 0.974 0.0
H1284 H 0.45634 0.69574 0.01312 0.0
H1285 H 0.47079 0.67017 0.02578 0.0
H1286 H 0.46183 0.66983 0.9951 0.0
H1287 H 0.5051 0.65955 0.98286 0.0
H1288 H 0.51406 0.66013 0.01354 0.0
H1289 H 0.52902 0.67871 0.99219 0.0
H1290 H 0.51509 0.76765 0.01861 0.0
H1291 H 0.5271 0.75911 0.06036 0.0
H1292 H 0.50763 0.68544 0.05038 0.0
C1293 C 0.4841 0.70166 0.95847 0.0
C1294 C 0.48349 0.71929 0.9408 0.0
C1295 C 0.49086 0.74268 0.94641 0.0
C1296 C 0.4981 0.7485 0.96965 0.0
C1297 C 0.49799 0.73063 0.98685 0.0
C1298 C 0.49133 0.70764 0.98133 0.0
C1299 C 0.49354 0.69125 0.00236 0.0
C1300 C 0.46917 0.68117 0.00951 0.0
C1301 C 0.51151 0.67124 0.99743 0.0
C1302 C 0.50275 0.70847 0.02067 0.0
C1303 C 0.50502 0.7312 0.01169 0.0
C1304 C 0.5134 0.74989 0.02574 0.0
C1305 C 0.52006 0.74496 0.04937 0.0
C1306 C 0.51857 0.72154 0.05831 0.0
C1307 C 0.50942 0.70335 0.04387 0.0
H1308 H 0.18382 0.23116 0.54729 0.0
H1309 H 0.19598 0.28724 0.49583 0.0
H1310 H 0.22803 0.26332 0.4775 0.0
H1311 H 0.24549 0.21329 0.55443 0.0
H1312 H 0.23792 0.18229 0.557 0.0
H1313 H 0.21722 0.20464 0.56675 0.0
H1314 H 0.18495 0.18681 0.53908 0.0
H1315 H 0.20554 0.16447 0.52923 0.0
H1316 H 0.19115 0.18343 0.50783 0.0
H1317 H 0.25729 0.23135 0.46327 0.0
H1318 H 0.2809 0.19502 0.4552 0.0
H1319 H 0.24893 0.16118 0.51666 0.0
C1320 C 0.19337 0.23862 0.53235 0.0
C1321 C 0.1874 0.2611 0.52303 0.0
C1322 C 0.2003 0.27007 0.50334 0.0
C1323 C 0.21853 0.25662 0.49281 0.0
C1324 C 0.2237 0.23431 0.50228 0.0
C1325 C 0.21152 0.22551 0.52171 0.0
C1326 C 0.21963 0.20076 0.52808 0.0
C1327 C 0.23073 0.20023 0.55304 0.0
C1328 C 0.1991 0.18282 0.52591 0.0
C1329 C 0.23812 0.19681 0.50906 0.0
C1330 C 0.24037 0.21629 0.49431 0.0
C1331 C 0.25581 0.2161 0.47488 0.0
C1332 C 0.26913 0.19541 0.47041 0.0
C1333 C 0.26685 0.17527 0.48532 0.0
C1334 C 0.25128 0.17627 0.50497 0.0
H1335 H 0.73716 0.17662 0.47136 0.0
H1336 H 0.71527 0.20469 0.53977 0.0
H1337 H 0.73884 0.24107 0.53212 0.0
H1338 H 0.79526 0.19378 0.47561 0.0
H1339 H 0.79902 0.20056 0.44454 0.0
H1340 H 0.77726 0.17904 0.45358 0.0
H1341 H 0.7444 0.20278 0.43177 0.0
H1342 H 0.76613 0.22442 0.42256 0.0
H1343 H 0.74009 0.23375 0.43867 0.0
H1344 H 0.76884 0.27192 0.51893 0.0
H1345 H 0.80318 0.2936 0.5023 0.0
H1346 H 0.80542 0.24431 0.44303 0.0
C1347 C 0.73676 0.19063 0.48455 0.0
C1348 C 0.72427 0.18787 0.50613 0.0
C1349 C 0.72459 0.2065 0.52304 0.0
C1350 C 0.73787 0.22724 0.5188 0.0
C1351 C 0.75055 0.22903 0.49755 0.0
C1352 C 0.74997 0.2112 0.48069 0.0
C1353 C 0.76702 0.21603 0.46052 0.0
C1354 C 0.78574 0.19618 0.45847 0.0
C1355 C 0.7536 0.21946 0.43699 0.0
C1356 C 0.77794 0.23903 0.46896 0.0
C1357 C 0.76798 0.24651 0.49015 0.0
C1358 C 0.77649 0.26642 0.50217 0.0
C1359 C 0.79602 0.27861 0.49257 0.0
C1360 C 0.80697 0.27067 0.47131 0.0
C1361 C 0.79733 0.25099 0.45915 0.0
H1362 H 0.79629 0.76002 0.5495 0.0
H1363 H 0.81268 0.71003 0.49309 0.0
H1364 H 0.78102 0.72736 0.46844 0.0
H1365 H 0.73013 0.76165 0.53767 0.0
H1366 H 0.72866 0.79281 0.54483 0.0
H1367 H 0.75001 0.77402 0.55952 0.0
H1368 H 0.78392 0.80212 0.54606 0.0
H1369 H 0.76277 0.82086 0.53127 0.0
H1370 H 0.78742 0.80865 0.51489 0.0
H1371 H 0.75263 0.75423 0.44749 0.0
H1372 H 0.72804 0.78741 0.43276 0.0
H1373 H 0.72857 0.81877 0.50324 0.0
C1374 C 0.79276 0.75228 0.53224 0.0
C1375 C 0.80697 0.73367 0.52327 0.0
C1376 C 0.80195 0.72419 0.50046 0.0
C1377 C 0.78396 0.7339 0.48629 0.0
C1378 C 0.77078 0.75275 0.49534 0.0
C1379 C 0.77463 0.76157 0.51796 0.0
C1380 C 0.75914 0.783 0.52279 0.0
C1381 C 0.7409 0.77754 0.54236 0.0
C1382 C 0.77422 0.80494 0.52911 0.0
C1383 C 0.74713 0.78574 0.49887 0.0
C1384 C 0.75379 0.7679 0.48338 0.0
C1385 C 0.74678 0.76796 0.45961 0.0
C1386 C 0.73287 0.78691 0.45138 0.0
C1387 C 0.72616 0.80555 0.46688 0.0
C1388 C 0.73297 0.80455 0.49105 0.0
H1389 H 0.20118 0.72742 0.47867 0.0
H1390 H 0.1716 0.79018 0.44518 0.0
H1391 H 0.2031 0.81472 0.46331 0.0
H1392 H 0.21387 0.75325 0.53263 0.0
H1393 H 0.24127 0.73755 0.53772 0.0
H1394 H 0.2186 0.72445 0.51944 0.0
H1395 H 0.24854 0.72016 0.48473 0.0
H1396 H 0.27145 0.73306 0.50301 0.0
H1397 H 0.26462 0.74589 0.47448 0.0
H1398 H 0.23547 0.83315 0.48899 0.0
H1399 H 0.26621 0.8431 0.51899 0.0
H1400 H 0.27391 0.76819 0.53517 0.0
C1401 C 0.20166 0.74621 0.47462 0.0
C1402 C 0.18392 0.75682 0.46043 0.0
C1403 C 0.18503 0.78158 0.45591 0.0
C1404 C 0.20288 0.79571 0.46613 0.0
C1405 C 0.21966 0.7848 0.48067 0.0
C1406 C 0.21934 0.76055 0.48466 0.0
C1407 C 0.23831 0.75336 0.50224 0.0
C1408 C 0.22734 0.74147 0.52431 0.0
C1409 C 0.25683 0.73716 0.4904 0.0
C1410 C 0.24877 0.7774 0.50818 0.0
C1411 C 0.23806 0.79535 0.49539 0.0
C1412 C 0.24418 0.81917 0.49887 0.0
C1413 C 0.26159 0.8247 0.51598 0.0
C1414 C 0.27246 0.8065 0.52946 0.0
C1415 C 0.26605 0.78259 0.52516 0.0
H1416 H 0.50861 0.21611 0.29291 0.0
H1417 H 0.53392 0.17024 0.23631 0.0
H1418 H 0.52046 0.19938 0.20656 0.0
H1419 H 0.45677 0.23494 0.26534 0.0
H1420 H 0.4582 0.26517 0.2758 0.0
H1421 H 0.47188 0.24183 0.29275 0.0
H1422 H 0.51221 0.26404 0.29133 0.0
H1423 H 0.49857 0.28761 0.27453 0.0
H1424 H 0.52444 0.27269 0.26302 0.0
H1425 H 0.50041 0.23202 0.18266 0.0
H1426 H 0.47756 0.26641 0.16732 0.0
H1427 H 0.46671 0.29087 0.2396 0.0
C1428 C 0.51169 0.21236 0.27429 0.0
C1429 C 0.52228 0.19083 0.26702 0.0
C1430 C 0.5259 0.18662 0.24241 0.0
C1431 C 0.51829 0.20307 0.22531 0.0
C1432 C 0.50739 0.22386 0.23305 0.0
C1433 C 0.50442 0.2287 0.25698 0.0
C1434 C 0.49152 0.25195 0.26065 0.0
C1435 C 0.46821 0.24823 0.27444 0.0
C1436 C 0.50765 0.27015 0.27312 0.0
C1437 C 0.48687 0.25895 0.2351 0.0
C1438 C 0.4963 0.2427 0.21937 0.0
C1439 C 0.49324 0.24505 0.19484 0.0
C1440 C 0.48021 0.26458 0.18625 0.0
C1441 C 0.47042 0.2814 0.20216 0.0
C1442 C 0.47403 0.27846 0.22686 0.0
H1443 H 0.80917 0.55452 0.23451 0.0
H1444 H 0.80458 0.49997 0.28875 0.0
H1445 H 0.77118 0.48138 0.2671 0.0
H1446 H 0.74442 0.55824 0.22212 0.0
H1447 H 0.74944 0.56288 0.19084 0.0
H1448 H 0.77086 0.57334 0.21222 0.0
H1449 H 0.80384 0.54954 0.19065 0.0
H1450 H 0.78255 0.53887 0.16937 0.0
H1451 H 0.80009 0.51805 0.18618 0.0
H1452 H 0.74142 0.46609 0.2367 0.0
H1453 H 0.71708 0.45662 0.20127 0.0
H1454 H 0.74108 0.52179 0.16782 0.0
C1455 C 0.80082 0.53898 0.24215 0.0
C1456 C 0.80948 0.52875 0.26335 0.0
C1457 C 0.79815 0.50826 0.27263 0.0
C1458 C 0.77917 0.49754 0.26043 0.0
C1459 C 0.77153 0.50771 0.23917 0.0
C1460 C 0.78182 0.52818 0.23032 0.0
C1461 C 0.77138 0.53487 0.20648 0.0
C1462 C 0.75824 0.55875 0.20802 0.0
C1463 C 0.79061 0.53534 0.18704 0.0
C1464 C 0.7542 0.51453 0.20286 0.0
C1465 C 0.75432 0.49912 0.22195 0.0
C1466 C 0.7409 0.47826 0.22183 0.0
C1467 C 0.72716 0.473 0.20162 0.0
C1468 C 0.72704 0.4885 0.1818 0.0
C1469 C 0.74053 0.50965 0.18273 0.0
H1470 H 0.5158 0.77168 0.1667 0.0
H1471 H 0.51588 0.70539 0.20594 0.0
H1472 H 0.49656 0.72578 0.24002 0.0
H1473 H 0.52767 0.81063 0.21519 0.0
H1474 H 0.50826 0.83356 0.20418 0.0
H1475 H 0.52252 0.81358 0.18371 0.0
H1476 H 0.48142 0.80204 0.16633 0.0
H1477 H 0.46703 0.82188 0.18688 0.0
H1478 H 0.4586 0.79101 0.1859 0.0
H1479 H 0.47852 0.75494 0.27048 0.0
H1480 H 0.46183 0.78899 0.29305 0.0
H1481 H 0.47164 0.83417 0.23142 0.0
C1482 C 0.51197 0.76138 0.1825 0.0
C1483 C 0.51758 0.73702 0.18383 0.0
C1484 C 0.51182 0.72414 0.20466 0.0
C1485 C 0.50086 0.73557 0.22404 0.0
C1486 C 0.49551 0.7597 0.22203 0.0
C1487 C 0.50075 0.77232 0.20163 0.0
C1488 C 0.49279 0.79784 0.20334 0.0
C1489 C 0.51408 0.8149 0.20151 0.0
C1490 C 0.47383 0.80351 0.1845 0.0
C1491 C 0.48236 0.79782 0.22802 0.0
C1492 C 0.48421 0.77581 0.23873 0.0
C1493 C 0.47675 0.77214 0.26211 0.0
C1494 C 0.46731 0.79153 0.27478 0.0
C1495 C 0.46514 0.81407 0.26385 0.0
C1496 C 0.4726 0.81704 0.24013 0.0
H1497 H 0.20224 0.45484 0.24545 0.0
H1498 H 0.1925 0.51013 0.29833 0.0
H1499 H 0.22602 0.53247 0.28109 0.0
H1500 H 0.26859 0.4597 0.24217 0.0
H1501 H 0.26856 0.45414 0.21063 0.0
H1502 H 0.24607 0.44095 0.22922 0.0
H1503 H 0.21335 0.4597 0.20284 0.0
H1504 H 0.23566 0.47301 0.18429 0.0
H1505 H 0.21332 0.49136 0.19804 0.0
H1506 H 0.25646 0.5515 0.25455 0.0
H1507 H 0.28265 0.56469 0.22186 0.0
H1508 H 0.27353 0.49637 0.18728 0.0
C1509 C 0.20754 0.47135 0.2538 0.0
C1510 C 0.19474 0.48069 0.27326 0.0
C1511 C 0.2021 0.5025 0.2835 0.0
C1512 C 0.22115 0.51535 0.27384 0.0
C1513 C 0.23293 0.50597 0.2542 0.0
C1514 C 0.22664 0.48428 0.24451 0.0
C1515 C 0.24105 0.47891 0.22245 0.0
C1516 C 0.25702 0.45713 0.22636 0.0
C1517 C 0.22488 0.47556 0.20063 0.0
C1518 C 0.25562 0.50143 0.2206 0.0
C1519 C 0.25089 0.51673 0.23921 0.0
C1520 C 0.26072 0.53946 0.24018 0.0
C1521 C 0.27553 0.54682 0.2215 0.0
C1522 C 0.28035 0.5315 0.20214 0.0
C1523 C 0.2706 0.50836 0.20205 0.0
H1524 H 0.45545 0.76731 0.81859 0.0
H1525 H 0.50157 0.70831 0.80046 0.0
H1526 H 0.51874 0.73207 0.76762 0.0
H1527 H 0.44484 0.78875 0.75826 0.0
H1528 H 0.44543 0.81942 0.76744 0.0
H1529 H 0.43547 0.79684 0.78781 0.0
H1530 H 0.46682 0.81077 0.81856 0.0
H1531 H 0.47697 0.83327 0.79827 0.0
H1532 H 0.49767 0.81192 0.81009 0.0
H1533 H 0.53309 0.764 0.73887 0.0
H1534 H 0.54259 0.80057 0.71637 0.0
H1535 H 0.48669 0.83795 0.75404 0.0
C1536 C 0.46885 0.75913 0.80749 0.0
C1537 C 0.4771 0.7359 0.81203 0.0
C1538 C 0.49488 0.72603 0.79721 0.0
C1539 C 0.50474 0.73941 0.77854 0.0
C1540 C 0.49653 0.76252 0.77494 0.0
C1541 C 0.47887 0.77218 0.78896 0.0
C1542 C 0.474 0.79778 0.78249 0.0
C1543 C 0.44842 0.80087 0.77346 0.0
C1544 C 0.47918 0.8144 0.8036 0.0
C1545 C 0.49184 0.80118 0.76274 0.0
C1546 C 0.50468 0.78069 0.75855 0.0
C1547 C 0.52295 0.78005 0.74184 0.0
C1548 C 0.52826 0.80092 0.7292 0.0
C1549 C 0.51532 0.8221 0.73336 0.0
C1550 C 0.49677 0.82202 0.75023 0.0
H1551 H 0.23038 0.4947 0.84179 0.0
H1552 H 0.28591 0.465 0.79741 0.0
H1553 H 0.26723 0.48346 0.76196 0.0
H1554 H 0.18247 0.48724 0.80235 0.0
H1555 H 0.1685 0.51495 0.81021 0.0
H1556 H 0.18674 0.49974 0.83155 0.0
H1557 H 0.2126 0.53759 0.83638 0.0
H1558 H 0.19452 0.55286 0.81486 0.0
H1559 H 0.22616 0.5508 0.81054 0.0
H1560 H 0.24053 0.50386 0.73118 0.0
H1561 H 0.20873 0.52381 0.70829 0.0
H1562 H 0.17271 0.5413 0.77418 0.0
C1563 C 0.23863 0.49193 0.82462 0.0
C1564 C 0.25943 0.47819 0.82225 0.0
C1565 C 0.26988 0.47539 0.79954 0.0
C1566 C 0.25944 0.48586 0.77938 0.0
C1567 C 0.23888 0.4994 0.78242 0.0
C1568 C 0.22876 0.50254 0.80456 0.0
C1569 C 0.20672 0.51776 0.80337 0.0
C1570 C 0.18482 0.5041 0.81239 0.0
C1571 C 0.21022 0.54113 0.8171 0.0
C1572 C 0.20546 0.52212 0.77694 0.0
C1573 C 0.2242 0.51159 0.76507 0.0
C1574 C 0.22596 0.51239 0.74036 0.0
C1575 C 0.20785 0.52382 0.72751 0.0
C1576 C 0.18827 0.53423 0.73944 0.0
C1577 C 0.1875 0.53374 0.76449 0.0
H1578 H 0.45141 0.19452 0.76962 0.0
H1579 H 0.50146 0.19494 0.71102 0.0
H1580 H 0.52518 0.22564 0.73164 0.0
H1581 H 0.45585 0.25939 0.78296 0.0
H1582 H 0.45297 0.25437 0.81445 0.0
H1583 H 0.4386 0.23464 0.7937 0.0
H1584 H 0.45999 0.19882 0.81308 0.0
H1585 H 0.47459 0.21839 0.8337 0.0
H1586 H 0.49195 0.19889 0.81516 0.0
H1587 H 0.54601 0.25272 0.76113 0.0
H1588 H 0.56077 0.27544 0.79575 0.0
H1589 H 0.49647 0.2578 0.83445 0.0
C1590 C 0.46706 0.20146 0.76085 0.0
C1591 C 0.47452 0.19235 0.73866 0.0
C1592 C 0.49522 0.2018 0.72788 0.0
C1593 C 0.50887 0.2192 0.73951 0.0
C1594 C 0.50137 0.22728 0.76172 0.0
C1595 C 0.48071 0.21899 0.77207 0.0
C1596 C 0.47707 0.22968 0.79651 0.0
C1597 C 0.4548 0.24546 0.79692 0.0
C1598 C 0.47584 0.21028 0.81573 0.0
C1599 C 0.49944 0.24444 0.79878 0.0
C1600 C 0.51314 0.24306 0.77846 0.0
C1601 C 0.53522 0.25423 0.77698 0.0
C1602 C 0.5435 0.26705 0.79677 0.0
C1603 C 0.52978 0.26854 0.81784 0.0
C1604 C 0.50735 0.25723 0.8186 0.0
H1605 H 0.74801 0.54473 0.78884 0.0
H1606 H 0.71655 0.48379 0.82394 0.0
H1607 H 0.7409 0.45697 0.79932 0.0
H1608 H 0.75177 0.51518 0.72888 0.0
H1609 H 0.77923 0.53005 0.72185 0.0
H1610 H 0.7576 0.5444 0.74062 0.0
H1611 H 0.78958 0.54978 0.7733 0.0
H1612 H 0.81119 0.53533 0.75476 0.0
H1613 H 0.80534 0.52413 0.78419 0.0
H1614 H 0.77256 0.43711 0.77502 0.0
H1615 H 0.80656 0.42549 0.74982 0.0
H1616 H 0.81557 0.499 0.7284 0.0
C1617 C 0.74583 0.52573 0.79086 0.0
C1618 C 0.73029 0.51634 0.80817 0.0
C1619 C 0.72806 0.49138 0.81052 0.0
C1620 C 0.74191 0.47598 0.79669 0.0
C1621 C 0.75746 0.48579 0.78014 0.0
C1622 C 0.75909 0.51006 0.77674 0.0
C1623 C 0.77758 0.51598 0.75808 0.0
C1624 C 0.76584 0.52706 0.73605 0.0
C1625 C 0.79707 0.53225 0.76821 0.0
C1626 C 0.78703 0.49138 0.7526 0.0
C1627 C 0.77506 0.47419 0.76537 0.0
C1628 C 0.78172 0.45035 0.76451 0.0
C1629 C 0.8011 0.44393 0.7502 0.0
C1630 C 0.81359 0.46127 0.73693 0.0
C1631 C 0.80618 0.48524 0.738 0.0
loop_
_geom_bond_atom_site_label_1
_geom_bond_atom_site_label_2
_geom_bond_distance
_geom_bond_site_symmetry_2
_ccdc_geom_bond_type
Mg0 O1 2.028 . S
Mg0 O7 1.986 . S
Mg0 O9 2.114 . S
Mg0 O10 2.251 . S
Mg0 O13 2.010 . S
O1 Mg0 2.028 . S
O1 C4 1.250 . S
O2 Mg3 2.028 . S
O2 C4 1.248 . S
Mg3 O2 2.028 . S
Mg3 O8 2.032 . S
Mg3 O10 2.079 . S
C4 O1 1.250 . S
C4 O2 1.248 . S
C5 O6 1.264 . S
C5 O13 1.249 . S
O6 C5 1.264 . S
O7 Mg0 1.986 . S
O7 C11 1.246 . S
O8 Mg3 2.032 . S
O8 C11 1.259 . S
O9 Mg0 2.114 . S
O9 C12 1.252 . S
O10 Mg0 2.251 . S
O10 Mg3 2.079 . S
O10 C12 1.273 . S
C11 O7 1.246 . S
C11 O8 1.259 . S
C12 O9 1.252 . S
C12 O10 1.273 . S
O13 Mg0 2.010 . S
O13 C5 1.249 . S
Mg14 O15 2.028 . S
Mg14 O21 1.986 . S
Mg14 O23 2.114 . S
Mg14 O24 2.251 . S
Mg14 O27 2.010 . S
O15 Mg14 2.028 . S
O15 C18 1.250 . S
O16 Mg17 2.028 . S
O16 C18 1.248 . S
Mg17 O16 2.028 . S
Mg17 O22 2.032 . S
Mg17 O24 2.079 . S
C18 O15 1.250 . S
C18 O16 1.248 . S
C19 O20 1.264 . S
C19 O27 1.249 . S
O20 C19 1.264 . S
O21 Mg14 1.986 . S
O21 C25 1.246 . S
O22 Mg17 2.032 . S
O22 C25 1.259 . S
O23 Mg14 2.114 . S
O23 C26 1.252 . S
O24 Mg14 2.251 . S
O24 Mg17 2.079 . S
O24 C26 1.273 . S
C25 O21 1.246 . S
C25 O22 1.259 . S
C26 O23 1.252 . S
C26 O24 1.273 . S
O27 Mg14 2.010 . S
O27 C19 1.249 . S
Mg28 O29 2.028 . S
Mg28 O35 1.986 . S
Mg28 O37 2.114 . S
Mg28 O38 2.251 . S
Mg28 O41 2.010 . S
O29 Mg28 2.028 . S
O29 C32 1.250 . S
O30 Mg31 2.028 . S
O30 C32 1.248 . S
Mg31 O30 2.028 . S
Mg31 O36 2.032 . S
Mg31 O38 2.079 . S
C32 O29 1.250 . S
C32 O30 1.248 . S
C33 O34 1.264 . S
C33 O41 1.249 . S
O34 C33 1.264 . S
O35 Mg28 1.986 . S
O35 C39 1.246 . S
O36 Mg31 2.032 . S
O36 C39 1.259 . S
O37 Mg28 2.114 . S
O37 C40 1.252 . S
O38 Mg28 2.251 . S
O38 Mg31 2.079 . S
O38 C40 1.273 . S
C39 O35 1.246 . S
C39 O36 1.259 . S
C40 O37 1.252 . S
C40 O38 1.273 . S
O41 Mg28 2.010 . S
O41 C33 1.249 . S
Mg42 O43 2.028 . S
Mg42 O49 1.986 . S
Mg42 O51 2.114 . S
Mg42 O52 2.251 . S
Mg42 O55 2.010 . S
O43 Mg42 2.028 . S
O43 C46 1.250 . S
O44 Mg45 2.028 . S
O44 C46 1.248 . S
Mg45 O44 2.028 . S
Mg45 O50 2.032 . S
Mg45 O52 2.079 . S
C46 O43 1.250 . S
C46 O44 1.248 . S
C47 O48 1.264 . S
C47 O55 1.249 . S
O48 C47 1.264 . S
O49 Mg42 1.986 . S
O49 C53 1.246 . S
O50 Mg45 2.032 . S
O50 C53 1.259 . S
O51 Mg42 2.114 . S
O51 C54 1.252 . S
O52 Mg42 2.251 . S
O52 Mg45 2.079 . S
O52 C54 1.273 . S
C53 O49 1.246 . S
C53 O50 1.259 . S
C54 O51 1.252 . S
C54 O52 1.273 . S
O55 Mg42 2.010 . S
O55 C47 1.249 . S
Mg56 O57 2.028 . S
Mg56 O63 1.986 . S
Mg56 O65 2.114 . S
Mg56 O66 2.251 . S
Mg56 O69 2.010 . S
O57 Mg56 2.028 . S
O57 C60 1.250 . S
O58 Mg59 2.028 . S
O58 C60 1.248 . S
Mg59 O58 2.028 . S
Mg59 O64 2.032 . S
Mg59 O66 2.079 . S
C60 O57 1.250 . S
C60 O58 1.248 . S
C61 O62 1.264 . S
C61 O69 1.249 . S
O62 C61 1.264 . S
O63 Mg56 1.986 . S
O63 C67 1.246 . S
O64 Mg59 2.032 . S
O64 C67 1.259 . S
O65 Mg56 2.114 . S
O65 C68 1.252 . S
O66 Mg56 2.251 . S
O66 Mg59 2.079 . S
O66 C68 1.273 . S
C67 O63 1.246 . S
C67 O64 1.259 . S
C68 O65 1.252 . S
C68 O66 1.273 . S
O69 Mg56 2.010 . S
O69 C61 1.249 . S
Mg70 O71 2.028 . S
Mg70 O77 1.986 . S
Mg70 O79 2.114 . S
Mg70 O80 2.251 . S
Mg70 O83 2.010 . S
O71 Mg70 2.028 . S
O71 C74 1.250 . S
O72 Mg73 2.028 . S
O72 C74 1.248 . S
Mg73 O72 2.028 . S
Mg73 O78 2.032 . S
Mg73 O80 2.079 . S
C74 O71 1.250 . S
C74 O72 1.248 . S
C75 O76 1.264 . S
C75 O83 1.249 . S
O76 C75 1.264 . S
O77 Mg70 1.986 . S
O77 C81 1.246 . S
O78 Mg73 2.032 . S
O78 C81 1.259 . S
O79 Mg70 2.114 . S
O79 C82 1.252 . S
O80 Mg70 2.251 . S
O80 Mg73 2.079 . S
O80 C82 1.273 . S
C81 O77 1.246 . S
C81 O78 1.259 . S
C82 O79 1.252 . S
C82 O80 1.273 . S
O83 Mg70 2.010 . S
O83 C75 1.249 . S
Mg84 O85 2.028 . S
Mg84 O91 1.986 . S
Mg84 O93 2.114 . S
Mg84 O94 2.251 . S
Mg84 O97 2.010 . S
O85 Mg84 2.028 . S
O85 C88 1.250 . S
O86 Mg87 2.028 . S
O86 C88 1.248 . S
Mg87 O86 2.028 . S
Mg87 O92 2.032 . S
Mg87 O94 2.079 . S
C88 O85 1.250 . S
C88 O86 1.248 . S
C89 O90 1.264 . S
C89 O97 1.249 . S
O90 C89 1.264 . S
O91 Mg84 1.986 . S
O91 C95 1.246 . S
O92 Mg87 2.032 . S
O92 C95 1.259 . S
O93 Mg84 2.114 . S
O93 C96 1.252 . S
O94 Mg84 2.251 . S
O94 Mg87 2.079 . S
O94 C96 1.273 . S
C95 O91 1.246 . S
C95 O92 1.259 . S
C96 O93 1.252 . S
C96 O94 1.273 . S
O97 Mg84 2.010 . S
O97 C89 1.249 . S
Mg98 O99 2.028 . S
Mg98 O105 1.986 . S
Mg98 O107 2.114 . S
Mg98 O108 2.251 . S
Mg98 O111 2.010 . S
O99 Mg98 2.028 . S
O99 C102 1.250 . S
O100 Mg101 2.028 . S
O100 C102 1.248 . S
Mg101 O100 2.028 . S
Mg101 O106 2.032 . S
Mg101 O108 2.079 . S
C102 O99 1.250 . S
C102 O100 1.248 . S
C103 O104 1.264 . S
C103 O111 1.249 . S
O104 C103 1.264 . S
O105 Mg98 1.986 . S
O105 C109 1.246 . S
O106 Mg101 2.032 . S
O106 C109 1.259 . S
O107 Mg98 2.114 . S
O107 C110 1.252 . S
O108 Mg98 2.251 . S
O108 Mg101 2.079 . S
O108 C110 1.273 . S
C109 O105 1.246 . S
C109 O106 1.259 . S
C110 O107 1.252 . S
C110 O108 1.273 . S
O111 Mg98 2.010 . S
O111 C103 1.249 . S
Mg112 O113 2.028 . S
Mg112 O119 1.986 . S
Mg112 O121 2.114 . S
Mg112 O122 2.251 . S
Mg112 O125 2.010 . S
O113 Mg112 2.028 . S
O113 C116 1.250 . S
O114 Mg115 2.028 . S
O114 C116 1.248 . S
Mg115 O114 2.028 . S
Mg115 O120 2.032 . S
Mg115 O122 2.079 . S
C116 O113 1.250 . S
C116 O114 1.248 . S
C117 O118 1.264 . S
C117 O125 1.249 . S
O118 C117 1.264 . S
O119 Mg112 1.986 . S
O119 C123 1.246 . S
O120 Mg115 2.032 . S
O120 C123 1.259 . S
O121 Mg112 2.114 . S
O121 C124 1.252 . S
O122 Mg112 2.251 . S
O122 Mg115 2.079 . S
O122 C124 1.273 . S
C123 O119 1.246 . S
C123 O120 1.259 . S
C124 O121 1.252 . S
C124 O122 1.273 . S
O125 Mg112 2.010 . S
O125 C117 1.249 . S
Mg126 O127 2.028 . S
Mg126 O133 1.986 . S
Mg126 O135 2.114 . S
Mg126 O136 2.251 . S
Mg126 O139 2.010 . S
O127 Mg126 2.028 . S
O127 C130 1.250 . S
O128 Mg129 2.028 . S
O128 C130 1.248 . S
Mg129 O128 2.028 . S
Mg129 O134 2.032 . S
Mg129 O136 2.079 . S
C130 O127 1.250 . S
C130 O128 1.248 . S
C131 O132 1.264 . S
C131 O139 1.249 . S
O132 C131 1.264 . S
O133 Mg126 1.986 . S
O133 C137 1.246 . S
O134 Mg129 2.032 . S
O134 C137 1.259 . S
O135 Mg126 2.114 . S
O135 C138 1.252 . S
O136 Mg126 2.251 . S
O136 Mg129 2.079 . S
O136 C138 1.273 . S
C137 O133 1.246 . S
C137 O134 1.259 . S
C138 O135 1.252 . S
C138 O136 1.273 . S
O139 Mg126 2.010 . S
O139 C131 1.249 . S
Mg140 O141 2.028 . S
Mg140 O147 1.986 . S
Mg140 O149 2.114 . S
Mg140 O150 2.251 . S
Mg140 O153 2.010 . S
O141 Mg140 2.028 . S
O141 C144 1.250 . S
O142 Mg143 2.028 . S
O142 C144 1.248 . S
Mg143 O142 2.028 . S
Mg143 O148 2.032 . S
Mg143 O150 2.079 . S
C144 O141 1.250 . S
C144 O142 1.248 . S
C145 O146 1.264 . S
C145 O153 1.249 . S
O146 C145 1.264 . S
O147 Mg140 1.986 . S
O147 C151 1.246 . S
O148 Mg143 2.032 . S
O148 C151 1.259 . S
O149 Mg140 2.114 . S
O149 C152 1.252 . S
O150 Mg140 2.251 . S
O150 Mg143 2.079 . S
O150 C152 1.273 . S
C151 O147 1.246 . S
C151 O148 1.259 . S
C152 O149 1.252 . S
C152 O150 1.273 . S
O153 Mg140 2.010 . S
O153 C145 1.249 . S
Mg154 O155 2.028 . S
Mg154 O161 1.986 . S
Mg154 O163 2.114 . S
Mg154 O164 2.251 . S
Mg154 O167 2.010 . S
O155 Mg154 2.028 . S
O155 C158 1.250 . S
O156 Mg157 2.028 . S
O156 C158 1.248 . S
Mg157 O156 2.028 . S
Mg157 O162 2.032 . S
Mg157 O164 2.079 . S
C158 O155 1.250 . S
C158 O156 1.248 . S
C159 O160 1.264 . S
C159 O167 1.249 . S
O160 C159 1.264 . S
O161 Mg154 1.986 . S
O161 C165 1.246 . S
O162 Mg157 2.032 . S
O162 C165 1.259 . S
O163 Mg154 2.114 . S
O163 C166 1.252 . S
O164 Mg154 2.251 . S
O164 Mg157 2.079 . S
O164 C166 1.273 . S
C165 O161 1.246 . S
C165 O162 1.259 . S
C166 O163 1.252 . S
C166 O164 1.273 . S
O167 Mg154 2.010 . S
O167 C159 1.249 . S
Mg168 O169 2.028 . S
Mg168 O175 1.986 . S
Mg168 O177 2.114 . S
Mg168 O178 2.251 . S
Mg168 O181 2.010 . S
O169 Mg168 2.028 . S
O169 C172 1.250 . S
O170 Mg171 2.028 . S
O170 C172 1.248 . S
Mg171 O170 2.028 . S
Mg171 O176 2.032 . S
Mg171 O178 2.079 . S
C172 O169 1.250 . S
C172 O170 1.248 . S
C173 O174 1.264 . S
C173 O181 1.249 . S
O174 C173 1.264 . S
O175 Mg168 1.986 . S
O175 C179 1.246 . S
O176 Mg171 2.032 . S
O176 C179 1.259 . S
O177 Mg168 2.114 . S
O177 C180 1.252 . S
O178 Mg168 2.251 . S
O178 Mg171 2.079 . S
O178 C180 1.273 . S
C179 O175 1.246 . S
C179 O176 1.259 . S
C180 O177 1.252 . S
C180 O178 1.273 . S
O181 Mg168 2.010 . S
O181 C173 1.249 . S
Mg182 O183 2.028 . S
Mg182 O189 1.986 . S
Mg182 O191 2.114 . S
Mg182 O192 2.251 . S
Mg182 O195 2.010 . S
O183 Mg182 2.028 . S
O183 C186 1.250 . S
O184 Mg185 2.028 . S
O184 C186 1.248 . S
Mg185 O184 2.028 . S
Mg185 O190 2.032 . S
Mg185 O192 2.079 . S
C186 O183 1.250 . S
C186 O184 1.248 . S
C187 O188 1.264 . S
C187 O195 1.249 . S
O188 C187 1.264 . S
O189 Mg182 1.986 . S
O189 C193 1.246 . S
O190 Mg185 2.032 . S
O190 C193 1.259 . S
O191 Mg182 2.114 . S
O191 C194 1.252 . S
O192 Mg182 2.251 . S
O192 Mg185 2.079 . S
O192 C194 1.273 . S
C193 O189 1.246 . S
C193 O190 1.259 . S
C194 O191 1.252 . S
C194 O192 1.273 . S
O195 Mg182 2.010 . S
O195 C187 1.249 . S
Mg196 O197 2.028 . S
Mg196 O203 1.986 . S
Mg196 O205 2.114 . S
Mg196 O206 2.251 . S
Mg196 O209 2.010 . S
O197 Mg196 2.028 . S
O197 C200 1.250 . S
O198 Mg199 2.028 . S
O198 C200 1.248 . S
Mg199 O198 2.028 . S
Mg199 O204 2.032 . S
Mg199 O206 2.079 . S
C200 O197 1.250 . S
C200 O198 1.248 . S
C201 O202 1.264 . S
C201 O209 1.249 . S
O202 C201 1.264 . S
O203 Mg196 1.986 . S
O203 C207 1.246 . S
O204 Mg199 2.032 . S
O204 C207 1.259 . S
O205 Mg196 2.114 . S
O205 C208 1.252 . S
O206 Mg196 2.251 . S
O206 Mg199 2.079 . S
O206 C208 1.273 . S
C207 O203 1.246 . S
C207 O204 1.259 . S
C208 O205 1.252 . S
C208 O206 1.273 . S
O209 Mg196 2.010 . S
O209 C201 1.249 . S
Mg210 O211 2.028 . S
Mg210 O217 1.986 . S
Mg210 O219 2.114 . S
Mg210 O220 2.251 . S
Mg210 O223 2.010 . S
O211 Mg210 2.028 . S
O211 C214 1.250 . S
O212 Mg213 2.028 . S
O212 C214 1.248 . S
Mg213 O212 2.028 . S
Mg213 O218 2.032 . S
Mg213 O220 2.079 . S
C214 O211 1.250 . S
C214 O212 1.248 . S
C215 O216 1.264 . S
C215 O223 1.249 . S
O216 C215 1.264 . S
O217 Mg210 1.986 . S
O217 C221 1.246 . S
O218 Mg213 2.032 . S
O218 C221 1.259 . S
O219 Mg210 2.114 . S
O219 C222 1.252 . S
O220 Mg210 2.251 . S
O220 Mg213 2.079 . S
O220 C222 1.273 . S
C221 O217 1.246 . S
C221 O218 1.259 . S
C222 O219 1.252 . S
C222 O220 1.273 . S
O223 Mg210 2.010 . S
O223 C215 1.249 . S
Mg224 O225 2.028 . S
Mg224 O231 1.986 . S
Mg224 O233 2.114 . S
Mg224 O234 2.251 . S
Mg224 O237 2.010 . S
O225 Mg224 2.028 . S
O225 C228 1.250 . S
O226 Mg227 2.028 . S
O226 C228 1.248 . S
Mg227 O226 2.028 . S
Mg227 O232 2.032 . S
Mg227 O234 2.079 . S
C228 O225 1.250 . S
C228 O226 1.248 . S
C229 O230 1.264 . S
C229 O237 1.249 . S
O230 C229 1.264 . S
O231 Mg224 1.986 . S
O231 C235 1.246 . S
O232 Mg227 2.032 . S
O232 C235 1.259 . S
O233 Mg224 2.114 . S
O233 C236 1.252 . S
O234 Mg224 2.251 . S
O234 Mg227 2.079 . S
O234 C236 1.273 . S
C235 O231 1.246 . S
C235 O232 1.259 . S
C236 O233 1.252 . S
C236 O234 1.273 . S
O237 Mg224 2.010 . S
O237 C229 1.249 . S
Mg238 O239 2.028 . S
Mg238 O245 1.986 . S
Mg238 O247 2.114 . S
Mg238 O248 2.251 . S
Mg238 O251 2.010 . S
O239 Mg238 2.028 . S
O239 C242 1.250 . S
O240 Mg241 2.028 . S
O240 C242 1.248 . S
Mg241 O240 2.028 . S
Mg241 O246 2.032 . S
Mg241 O248 2.079 . S
C242 O239 1.250 . S
C242 O240 1.248 . S
C243 O244 1.264 . S
C243 O251 1.249 . S
O244 C243 1.264 . S
O245 Mg238 1.986 . S
O245 C249 1.246 . S
O246 Mg241 2.032 . S
O246 C249 1.259 . S
O247 Mg238 2.114 . S
O247 C250 1.252 . S
O248 Mg238 2.251 . S
O248 Mg241 2.079 . S
O248 C250 1.273 . S
C249 O245 1.246 . S
C249 O246 1.259 . S
C250 O247 1.252 . S
C250 O248 1.273 . S
O251 Mg238 2.010 . S
O251 C243 1.249 . S
Mg252 O253 2.028 . S
Mg252 O259 1.986 . S
Mg252 O261 2.114 . S
Mg252 O262 2.251 . S
Mg252 O265 2.010 . S
O253 Mg252 2.028 . S
O253 C256 1.250 . S
O254 Mg255 2.028 . S
O254 C256 1.248 . S
Mg255 O254 2.028 . S
Mg255 O260 2.032 . S
Mg255 O262 2.079 . S
C256 O253 1.250 . S
C256 O254 1.248 . S
C257 O258 1.264 . S
C257 O265 1.249 . S
O258 C257 1.264 . S
O259 Mg252 1.986 . S
O259 C263 1.246 . S
O260 Mg255 2.032 . S
O260 C263 1.259 . S
O261 Mg252 2.114 . S
O261 C264 1.252 . S
O262 Mg252 2.251 . S
O262 Mg255 2.079 . S
O262 C264 1.273 . S
C263 O259 1.246 . S
C263 O260 1.259 . S
C264 O261 1.252 . S
C264 O262 1.273 . S
O265 Mg252 2.010 . S
O265 C257 1.249 . S
Mg266 O267 2.028 . S
Mg266 O273 1.986 . S
Mg266 O275 2.114 . S
Mg266 O276 2.251 . S
Mg266 O279 2.010 . S
O267 Mg266 2.028 . S
O267 C270 1.250 . S
O268 Mg269 2.028 . S
O268 C270 1.248 . S
Mg269 O268 2.028 . S
Mg269 O274 2.032 . S
Mg269 O276 2.079 . S
C270 O267 1.250 . S
C270 O268 1.248 . S
C271 O272 1.264 . S
C271 O279 1.249 . S
O272 C271 1.264 . S
O273 Mg266 1.986 . S
O273 C277 1.246 . S
O274 Mg269 2.032 . S
O274 C277 1.259 . S
O275 Mg266 2.114 . S
O275 C278 1.252 . S
O276 Mg266 2.251 . S
O276 Mg269 2.079 . S
O276 C278 1.273 . S
C277 O273 1.246 . S
C277 O274 1.259 . S
C278 O275 1.252 . S
C278 O276 1.273 . S
O279 Mg266 2.010 . S
O279 C271 1.249 . S
Mg280 O281 2.028 . S
Mg280 O287 1.986 . S
Mg280 O289 2.114 . S
Mg280 O290 2.251 . S
Mg280 O293 2.010 . S
O281 Mg280 2.028 . S
O281 C284 1.250 . S
O282 Mg283 2.028 . S
O282 C284 1.248 . S
Mg283 O282 2.028 . S
Mg283 O288 2.032 . S
Mg283 O290 2.079 . S
C284 O281 1.250 . S
C284 O282 1.248 . S
C285 O286 1.264 . S
C285 O293 1.249 . S
O286 C285 1.264 . S
O287 Mg280 1.986 . S
O287 C291 1.246 . S
O288 Mg283 2.032 . S
O288 C291 1.259 . S
O289 Mg280 2.114 . S
O289 C292 1.252 . S
O290 Mg280 2.251 . S
O290 Mg283 2.079 . S
O290 C292 1.273 . S
C291 O287 1.246 . S
C291 O288 1.259 . S
C292 O289 1.252 . S
C292 O290 1.273 . S
O293 Mg280 2.010 . S
O293 C285 1.249 . S
Mg294 O295 2.028 . S
Mg294 O301 1.986 . S
Mg294 O303 2.114 . S
Mg294 O304 2.251 . S
Mg294 O307 2.010 . S
O295 Mg294 2.028 . S
O295 C298 1.250 . S
O296 Mg297 2.028 . S
O296 C298 1.248 . S
Mg297 O296 2.028 . S
Mg297 O302 2.032 . S
Mg297 O304 2.079 . S
C298 O295 1.250 . S
C298 O296 1.248 . S
C299 O300 1.264 . S
C299 O307 1.249 . S
O300 C299 1.264 . S
O301 Mg294 1.986 . S
O301 C305 1.246 . S
O302 Mg297 2.032 . S
O302 C305 1.259 . S
O303 Mg294 2.114 . S
O303 C306 1.252 . S
O304 Mg294 2.251 . S
O304 Mg297 2.079 . S
O304 C306 1.273 . S
C305 O301 1.246 . S
C305 O302 1.259 . S
C306 O303 1.252 . S
C306 O304 1.273 . S
O307 Mg294 2.010 . S
O307 C299 1.249 . S
Mg308 O309 2.028 . S
Mg308 O315 1.986 . S
Mg308 O317 2.114 . S
Mg308 O318 2.251 . S
Mg308 O321 2.010 . S
O309 Mg308 2.028 . S
O309 C312 1.250 . S
O310 Mg311 2.028 . S
O310 C312 1.248 . S
Mg311 O310 2.028 . S
Mg311 O316 2.032 . S
Mg311 O318 2.079 . S
C312 O309 1.250 . S
C312 O310 1.248 . S
C313 O314 1.264 . S
C313 O321 1.249 . S
O314 C313 1.264 . S
O315 Mg308 1.986 . S
O315 C319 1.246 . S
O316 Mg311 2.032 . S
O316 C319 1.259 . S
O317 Mg308 2.114 . S
O317 C320 1.252 . S
O318 Mg308 2.251 . S
O318 Mg311 2.079 . S
O318 C320 1.273 . S
C319 O315 1.246 . S
C319 O316 1.259 . S
C320 O317 1.252 . S
C320 O318 1.273 . S
O321 Mg308 2.010 . S
O321 C313 1.249 . S
Mg322 O323 2.028 . S
Mg322 O329 1.986 . S
Mg322 O331 2.114 . S
Mg322 O332 2.251 . S
Mg322 O335 2.010 . S
O323 Mg322 2.028 . S
O323 C326 1.250 . S
O324 Mg325 2.028 . S
O324 C326 1.248 . S
Mg325 O324 2.028 . S
Mg325 O330 2.032 . S
Mg325 O332 2.079 . S
C326 O323 1.250 . S
C326 O324 1.248 . S
C327 O328 1.264 . S
C327 O335 1.249 . S
O328 C327 1.264 . S
O329 Mg322 1.986 . S
O329 C333 1.246 . S
O330 Mg325 2.032 . S
O330 C333 1.259 . S
O331 Mg322 2.114 . S
O331 C334 1.252 . S
O332 Mg322 2.251 . S
O332 Mg325 2.079 . S
O332 C334 1.273 . S
C333 O329 1.246 . S
C333 O330 1.259 . S
C334 O331 1.252 . S
C334 O332 1.273 . S
O335 Mg322 2.010 . S
O335 C327 1.249 . S
H336 C348 0.930 . S
H337 C350 0.930 . S
H338 C351 0.930 . S
H339 C355 0.959 . S
H340 C355 0.959 . S
H341 C355 0.961 . S
H342 C356 0.960 . S
H343 C356 0.961 . S
H344 C356 0.959 . S
H345 C359 0.929 . S
H346 C360 0.931 . S
H347 C362 0.930 . S
C348 H336 0.930 . S
C348 C349 1.399 . S
C348 C353 1.399 . S
C349 C348 1.399 . S
C349 C350 1.376 . S
C350 H337 0.930 . S
C350 C349 1.376 . S
C350 C351 1.388 . S
C351 H338 0.930 . S
C351 C350 1.388 . S
C351 C352 1.390 . S
C352 C351 1.390 . S
C352 C353 1.394 . S
C352 C358 1.465 . S
C353 C348 1.399 . S
C353 C352 1.394 . S
C353 C354 1.516 . S
C354 C353 1.516 . S
C354 C355 1.502 . S
C354 C356 1.561 . S
C354 C357 1.526 . S
C355 H339 0.959 . S
C355 H340 0.959 . S
C355 H341 0.961 . S
C355 C354 1.502 . S
C356 H342 0.960 . S
C356 H343 0.961 . S
C356 H344 0.959 . S
C356 C354 1.561 . S
C357 C354 1.526 . S
C357 C358 1.396 . S
C357 C362 1.390 . S
C358 C352 1.465 . S
C358 C357 1.396 . S
C358 C359 1.399 . S
C359 H345 0.929 . S
C359 C358 1.399 . S
C359 C360 1.385 . S
C360 H346 0.931 . S
C360 C359 1.385 . S
C360 C361 1.389 . S
C361 C360 1.389 . S
C361 C362 1.387 . S
C362 H347 0.930 . S
C362 C357 1.390 . S
C362 C361 1.387 . S
H363 C375 0.930 . S
H364 C377 0.930 . S
H365 C378 0.930 . S
H366 C382 0.959 . S
H367 C382 0.959 . S
H368 C382 0.961 . S
H369 C383 0.960 . S
H370 C383 0.961 . S
H371 C383 0.959 . S
H372 C386 0.929 . S
H373 C387 0.931 . S
H374 C389 0.930 . S
C375 H363 0.930 . S
C375 C376 1.399 . S
C375 C380 1.399 . S
C376 C375 1.399 . S
C376 C377 1.376 . S
C377 H364 0.930 . S
C377 C376 1.376 . S
C377 C378 1.388 . S
C378 H365 0.930 . S
C378 C377 1.388 . S
C378 C379 1.390 . S
C379 C378 1.390 . S
C379 C380 1.394 . S
C379 C385 1.465 . S
C380 C375 1.399 . S
C380 C379 1.394 . S
C380 C381 1.516 . S
C381 C380 1.516 . S
C381 C382 1.502 . S
C381 C383 1.561 . S
C381 C384 1.526 . S
C382 H366 0.959 . S
C382 H367 0.959 . S
C382 H368 0.961 . S
C382 C381 1.502 . S
C383 H369 0.960 . S
C383 H370 0.961 . S
C383 H371 0.959 . S
C383 C381 1.561 . S
C384 C381 1.526 . S
C384 C385 1.396 . S
C384 C389 1.390 . S
C385 C379 1.465 . S
C385 C384 1.396 . S
C385 C386 1.399 . S
C386 H372 0.929 . S
C386 C385 1.399 . S
C386 C387 1.385 . S
C387 H373 0.931 . S
C387 C386 1.385 . S
C387 C388 1.389 . S
C388 C387 1.389 . S
C388 C389 1.387 . S
C389 H374 0.930 . S
C389 C384 1.390 . S
C389 C388 1.387 . S
H390 C402 0.930 . S
H391 C404 0.930 . S
H392 C405 0.930 . S
H393 C409 0.959 . S
H394 C409 0.959 . S
H395 C409 0.961 . S
H396 C410 0.960 . S
H397 C410 0.961 . S
H398 C410 0.959 . S
H399 C413 0.929 . S
H400 C414 0.931 . S
H401 C416 0.930 . S
C402 H390 0.930 . S
C402 C403 1.399 . S
C402 C407 1.399 . S
C403 C402 1.399 . S
C403 C404 1.376 . S
C404 H391 0.930 . S
C404 C403 1.376 . S
C404 C405 1.388 . S
C405 H392 0.930 . S
C405 C404 1.388 . S
C405 C406 1.390 . S
C406 C405 1.390 . S
C406 C407 1.394 . S
C406 C412 1.465 . S
C407 C402 1.399 . S
C407 C406 1.394 . S
C407 C408 1.516 . S
C408 C407 1.516 . S
C408 C409 1.502 . S
C408 C410 1.561 . S
C408 C411 1.526 . S
C409 H393 0.959 . S
C409 H394 0.959 . S
C409 H395 0.961 . S
C409 C408 1.502 . S
C410 H396 0.960 . S
C410 H397 0.961 . S
C410 H398 0.959 . S
C410 C408 1.561 . S
C411 C408 1.526 . S
C411 C412 1.396 . S
C411 C416 1.390 . S
C412 C406 1.465 . S
C412 C411 1.396 . S
C412 C413 1.399 . S
C413 H399 0.929 . S
C413 C412 1.399 . S
C413 C414 1.385 . S
C414 H400 0.931 . S
C414 C413 1.385 . S
C414 C415 1.389 . S
C415 C414 1.389 . S
C415 C416 1.387 . S
C416 H401 0.930 . S
C416 C411 1.390 . S
C416 C415 1.387 . S
H417 C429 0.930 . S
H418 C431 0.930 . S
H419 C432 0.930 . S
H420 C436 0.959 . S
H421 C436 0.959 . S
H422 C436 0.961 . S
H423 C437 0.960 . S
H424 C437 0.961 . S
H425 C437 0.959 . S
H426 C440 0.929 . S
H427 C441 0.931 . S
H428 C443 0.930 . S
C429 H417 0.930 . S
C429 C430 1.399 . S
C429 C434 1.399 . S
C430 C429 1.399 . S
C430 C431 1.376 . S
C431 H418 0.930 . S
C431 C430 1.376 . S
C431 C432 1.388 . S
C432 H419 0.930 . S
C432 C431 1.388 . S
C432 C433 1.390 . S
C433 C432 1.390 . S
C433 C434 1.394 . S
C433 C439 1.465 . S
C434 C429 1.399 . S
C434 C433 1.394 . S
C434 C435 1.516 . S
C435 C434 1.516 . S
C435 C436 1.502 . S
C435 C437 1.561 . S
C435 C438 1.526 . S
C436 H420 0.959 . S
C436 H421 0.959 . S
C436 H422 0.961 . S
C436 C435 1.502 . S
C437 H423 0.960 . S
C437 H424 0.961 . S
C437 H425 0.959 . S
C437 C435 1.561 . S
C438 C435 1.526 . S
C438 C439 1.396 . S
C438 C443 1.390 . S
C439 C433 1.465 . S
C439 C438 1.396 . S
C439 C440 1.399 . S
C440 H426 0.929 . S
C440 C439 1.399 . S
C440 C441 1.385 . S
C441 H427 0.931 . S
C441 C440 1.385 . S
C441 C442 1.389 . S
C442 C441 1.389 . S
C442 C443 1.387 . S
C443 H428 0.930 . S
C443 C438 1.390 . S
C443 C442 1.387 . S
H444 C456 0.930 . S
H445 C458 0.930 . S
H446 C459 0.930 . S
H447 C463 0.959 . S
H448 C463 0.959 . S
H449 C463 0.961 . S
H450 C464 0.960 . S
H451 C464 0.961 . S
H452 C464 0.959 . S
H453 C467 0.929 . S
H454 C468 0.931 . S
H455 C470 0.930 . S
C456 H444 0.930 . S
C456 C457 1.399 . S
C456 C461 1.399 . S
C457 C456 1.399 . S
C457 C458 1.376 . S
C458 H445 0.930 . S
C458 C457 1.376 . S
C458 C459 1.388 . S
C459 H446 0.930 . S
C459 C458 1.388 . S
C459 C460 1.390 . S
C460 C459 1.390 . S
C460 C461 1.394 . S
C460 C466 1.465 . S
C461 C456 1.399 . S
C461 C460 1.394 . S
C461 C462 1.516 . S
C462 C461 1.516 . S
C462 C463 1.502 . S
C462 C464 1.561 . S
C462 C465 1.526 . S
C463 H447 0.959 . S
C463 H448 0.959 . S
C463 H449 0.961 . S
C463 C462 1.502 . S
C464 H450 0.960 . S
C464 H451 0.961 . S
C464 H452 0.959 . S
C464 C462 1.561 . S
C465 C462 1.526 . S
C465 C466 1.396 . S
C465 C470 1.390 . S
C466 C460 1.465 . S
C466 C465 1.396 . S
C466 C467 1.399 . S
C467 H453 0.929 . S
C467 C466 1.399 . S
C467 C468 1.385 . S
C468 H454 0.931 . S
C468 C467 1.385 . S
C468 C469 1.389 . S
C469 C468 1.389 . S
C469 C470 1.387 . S
C470 H455 0.930 . S
C470 C465 1.390 . S
C470 C469 1.387 . S
H471 C483 0.930 . S
H472 C485 0.930 . S
H473 C486 0.930 . S
H474 C490 0.959 . S
H475 C490 0.959 . S
H476 C490 0.961 . S
H477 C491 0.960 . S
H478 C491 0.961 . S
H479 C491 0.959 . S
H480 C494 0.929 . S
H481 C495 0.931 . S
H482 C497 0.930 . S
C483 H471 0.930 . S
C483 C484 1.399 . S
C483 C488 1.399 . S
C484 C483 1.399 . S
C484 C485 1.376 . S
C485 H472 0.930 . S
C485 C484 1.376 . S
C485 C486 1.388 . S
C486 H473 0.930 . S
C486 C485 1.388 . S
C486 C487 1.390 . S
C487 C486 1.390 . S
C487 C488 1.394 . S
C487 C493 1.465 . S
C488 C483 1.399 . S
C488 C487 1.394 . S
C488 C489 1.516 . S
C489 C488 1.516 . S
C489 C490 1.502 . S
C489 C491 1.561 . S
C489 C492 1.526 . S
C490 H474 0.959 . S
C490 H475 0.959 . S
C490 H476 0.961 . S
C490 C489 1.502 . S
C491 H477 0.960 . S
C491 H478 0.961 . S
C491 H479 0.959 . S
C491 C489 1.561 . S
C492 C489 1.526 . S
C492 C493 1.396 . S
C492 C497 1.390 . S
C493 C487 1.465 . S
C493 C492 1.396 . S
C493 C494 1.399 . S
C494 H480 0.929 . S
C494 C493 1.399 . S
C494 C495 1.385 . S
C495 H481 0.931 . S
C495 C494 1.385 . S
C495 C496 1.389 . S
C496 C495 1.389 . S
C496 C497 1.387 . S
C497 H482 0.930 . S
C497 C492 1.390 . S
C497 C496 1.387 . S
H498 C510 0.930 . S
H499 C512 0.930 . S
H500 C513 0.930 . S
H501 C517 0.959 . S
H502 C517 0.959 . S
H503 C517 0.961 . S
H504 C518 0.960 . S
H505 C518 0.961 . S
H506 C518 0.959 . S
H507 C521 0.929 . S
H508 C522 0.931 . S
H509 C524 0.930 . S
C510 H498 0.930 . S
C510 C511 1.399 . S
C510 C515 1.399 . S
C511 C510 1.399 . S
C511 C512 1.376 . S
C512 H499 0.930 . S
C512 C511 1.376 . S
C512 C513 1.388 . S
C513 H500 0.930 . S
C513 C512 1.388 . S
C513 C514 1.390 . S
C514 C513 1.390 . S
C514 C515 1.394 . S
C514 C520 1.465 . S
C515 C510 1.399 . S
C515 C514 1.394 . S
C515 C516 1.516 . S
C516 C515 1.516 . S
C516 C517 1.502 . S
C516 C518 1.561 . S
C516 C519 1.526 . S
C517 H501 0.959 . S
C517 H502 0.959 . S
C517 H503 0.961 . S
C517 C516 1.502 . S
C518 H504 0.960 . S
C518 H505 0.961 . S
C518 H506 0.959 . S
C518 C516 1.561 . S
C519 C516 1.526 . S
C519 C520 1.396 . S
C519 C524 1.390 . S
C520 C514 1.465 . S
C520 C519 1.396 . S
C520 C521 1.399 . S
C521 H507 0.929 . S
C521 C520 1.399 . S
C521 C522 1.385 . S
C522 H508 0.931 . S
C522 C521 1.385 . S
C522 C523 1.389 . S
C523 C522 1.389 . S
C523 C524 1.387 . S
C524 H509 0.930 . S
C524 C519 1.390 . S
C524 C523 1.387 . S
H525 C537 0.930 . S
H526 C539 0.930 . S
H527 C540 0.930 . S
H528 C544 0.959 . S
H529 C544 0.959 . S
H530 C544 0.961 . S
H531 C545 0.960 . S
H532 C545 0.961 . S
H533 C545 0.959 . S
H534 C548 0.929 . S
H535 C549 0.931 . S
H536 C551 0.930 . S
C537 H525 0.930 . S
C537 C538 1.399 . S
C537 C542 1.399 . S
C538 C537 1.399 . S
C538 C539 1.376 . S
C539 H526 0.930 . S
C539 C538 1.376 . S
C539 C540 1.388 . S
C540 H527 0.930 . S
C540 C539 1.388 . S
C540 C541 1.390 . S
C541 C540 1.390 . S
C541 C542 1.394 . S
C541 C547 1.465 . S
C542 C537 1.399 . S
C542 C541 1.394 . S
C542 C543 1.516 . S
C543 C542 1.516 . S
C543 C544 1.502 . S
C543 C545 1.561 . S
C543 C546 1.526 . S
C544 H528 0.959 . S
C544 H529 0.959 . S
C544 H530 0.961 . S
C544 C543 1.502 . S
C545 H531 0.960 . S
C545 H532 0.961 . S
C545 H533 0.959 . S
C545 C543 1.561 . S
C546 C543 1.526 . S
C546 C547 1.396 . S
C546 C551 1.390 . S
C547 C541 1.465 . S
C547 C546 1.396 . S
C547 C548 1.399 . S
C548 H534 0.929 . S
C548 C547 1.399 . S
C548 C549 1.385 . S
C549 H535 0.931 . S
C549 C548 1.385 . S
C549 C550 1.389 . S
C550 C549 1.389 . S
C550 C551 1.387 . S
C551 H536 0.930 . S
C551 C546 1.390 . S
C551 C550 1.387 . S
H552 C564 0.930 . S
H553 C566 0.930 . S
H554 C567 0.930 . S
H555 C571 0.959 . S
H556 C571 0.959 . S
H557 C571 0.961 . S
H558 C572 0.960 . S
H559 C572 0.961 . S
H560 C572 0.959 . S
H561 C575 0.929 . S
H562 C576 0.931 . S
H563 C578 0.930 . S
C564 H552 0.930 . S
C564 C565 1.399 . S
C564 C569 1.399 . S
C565 C564 1.399 . S
C565 C566 1.376 . S
C566 H553 0.930 . S
C566 C565 1.376 . S
C566 C567 1.388 . S
C567 H554 0.930 . S
C567 C566 1.388 . S
C567 C568 1.390 . S
C568 C567 1.390 . S
C568 C569 1.394 . S
C568 C574 1.465 . S
C569 C564 1.399 . S
C569 C568 1.394 . S
C569 C570 1.516 . S
C570 C569 1.516 . S
C570 C571 1.502 . S
C570 C572 1.561 . S
C570 C573 1.526 . S
C571 H555 0.959 . S
C571 H556 0.959 . S
C571 H557 0.961 . S
C571 C570 1.502 . S
C572 H558 0.960 . S
C572 H559 0.961 . S
C572 H560 0.959 . S
C572 C570 1.561 . S
C573 C570 1.526 . S
C573 C574 1.396 . S
C573 C578 1.390 . S
C574 C568 1.465 . S
C574 C573 1.396 . S
C574 C575 1.399 . S
C575 H561 0.929 . S
C575 C574 1.399 . S
C575 C576 1.385 . S
C576 H562 0.931 . S
C576 C575 1.385 . S
C576 C577 1.389 . S
C577 C576 1.389 . S
C577 C578 1.387 . S
C578 H563 0.930 . S
C578 C573 1.390 . S
C578 C577 1.387 . S
H579 C591 0.930 . S
H580 C593 0.930 . S
H581 C594 0.930 . S
H582 C598 0.959 . S
H583 C598 0.959 . S
H584 C598 0.961 . S
H585 C599 0.960 . S
H586 C599 0.961 . S
H587 C599 0.959 . S
H588 C602 0.929 . S
H589 C603 0.931 . S
H590 C605 0.930 . S
C591 H579 0.930 . S
C591 C592 1.399 . S
C591 C596 1.399 . S
C592 C591 1.399 . S
C592 C593 1.376 . S
C593 H580 0.930 . S
C593 C592 1.376 . S
C593 C594 1.388 . S
C594 H581 0.930 . S
C594 C593 1.388 . S
C594 C595 1.390 . S
C595 C594 1.390 . S
C595 C596 1.394 . S
C595 C601 1.465 . S
C596 C591 1.399 . S
C596 C595 1.394 . S
C596 C597 1.516 . S
C597 C596 1.516 . S
C597 C598 1.502 . S
C597 C599 1.561 . S
C597 C600 1.526 . S
C598 H582 0.959 . S
C598 H583 0.959 . S
C598 H584 0.961 . S
C598 C597 1.502 . S
C599 H585 0.960 . S
C599 H586 0.961 . S
C599 H587 0.959 . S
C599 C597 1.561 . S
C600 C597 1.526 . S
C600 C601 1.396 . S
C600 C605 1.390 . S
C601 C595 1.465 . S
C601 C600 1.396 . S
C601 C602 1.399 . S
C602 H588 0.929 . S
C602 C601 1.399 . S
C602 C603 1.385 . S
C603 H589 0.931 . S
C603 C602 1.385 . S
C603 C604 1.389 . S
C604 C603 1.389 . S
C604 C605 1.387 . S
C605 H590 0.930 . S
C605 C600 1.390 . S
C605 C604 1.387 . S
H606 C618 0.930 . S
H607 C620 0.930 . S
H608 C621 0.930 . S
H609 C625 0.959 . S
H610 C625 0.959 . S
H611 C625 0.961 . S
H612 C626 0.960 . S
H613 C626 0.961 . S
H614 C626 0.959 . S
H615 C629 0.929 . S
H616 C630 0.931 . S
H617 C632 0.930 . S
C618 H606 0.930 . S
C618 C619 1.399 . S
C618 C623 1.399 . S
C619 C618 1.399 . S
C619 C620 1.376 . S
C620 H607 0.930 . S
C620 C619 1.376 . S
C620 C621 1.388 . S
C621 H608 0.930 . S
C621 C620 1.388 . S
C621 C622 1.390 . S
C622 C621 1.390 . S
C622 C623 1.394 . S
C622 C628 1.465 . S
C623 C618 1.399 . S
C623 C622 1.394 . S
C623 C624 1.516 . S
C624 C623 1.516 . S
C624 C625 1.502 . S
C624 C626 1.561 . S
C624 C627 1.526 . S
C625 H609 0.959 . S
C625 H610 0.959 . S
C625 H611 0.961 . S
C625 C624 1.502 . S
C626 H612 0.960 . S
C626 H613 0.961 . S
C626 H614 0.959 . S
C626 C624 1.561 . S
C627 C624 1.526 . S
C627 C628 1.396 . S
C627 C632 1.390 . S
C628 C622 1.465 . S
C628 C627 1.396 . S
C628 C629 1.399 . S
C629 H615 0.929 . S
C629 C628 1.399 . S
C629 C630 1.385 . S
C630 H616 0.931 . S
C630 C629 1.385 . S
C630 C631 1.389 . S
C631 C630 1.389 . S
C631 C632 1.387 . S
C632 H617 0.930 . S
C632 C627 1.390 . S
C632 C631 1.387 . S
H633 C645 0.930 . S
H634 C647 0.930 . S
H635 C648 0.930 . S
H636 C652 0.959 . S
H637 C652 0.959 . S
H638 C652 0.961 . S
H639 C653 0.960 . S
H640 C653 0.961 . S
H641 C653 0.959 . S
H642 C656 0.929 . S
H643 C657 0.931 . S
H644 C659 0.930 . S
C645 H633 0.930 . S
C645 C646 1.399 . S
C645 C650 1.399 . S
C646 C645 1.399 . S
C646 C647 1.376 . S
C647 H634 0.930 . S
C647 C646 1.376 . S
C647 C648 1.388 . S
C648 H635 0.930 . S
C648 C647 1.388 . S
C648 C649 1.390 . S
C649 C648 1.390 . S
C649 C650 1.394 . S
C649 C655 1.465 . S
C650 C645 1.399 . S
C650 C649 1.394 . S
C650 C651 1.516 . S
C651 C650 1.516 . S
C651 C652 1.502 . S
C651 C653 1.561 . S
C651 C654 1.526 . S
C652 H636 0.959 . S
C652 H637 0.959 . S
C652 H638 0.961 . S
C652 C651 1.502 . S
C653 H639 0.960 . S
C653 H640 0.961 . S
C653 H641 0.959 . S
C653 C651 1.561 . S
C654 C651 1.526 . S
C654 C655 1.396 . S
C654 C659 1.390 . S
C655 C649 1.465 . S
C655 C654 1.396 . S
C655 C656 1.399 . S
C656 H642 0.929 . S
C656 C655 1.399 . S
C656 C657 1.385 . S
C657 H643 0.931 . S
C657 C656 1.385 . S
C657 C658 1.389 . S
C658 C657 1.389 . S
C658 C659 1.387 . S
C659 H644 0.930 . S
C659 C654 1.390 . S
C659 C658 1.387 . S
H660 C672 0.930 . S
H661 C674 0.930 . S
H662 C675 0.930 . S
H663 C679 0.959 . S
H664 C679 0.959 . S
H665 C679 0.961 . S
H666 C680 0.960 . S
H667 C680 0.961 . S
H668 C680 0.959 . S
H669 C683 0.929 . S
H670 C684 0.931 . S
H671 C686 0.930 . S
C672 H660 0.930 . S
C672 C673 1.399 . S
C672 C677 1.399 . S
C673 C672 1.399 . S
C673 C674 1.376 . S
C674 H661 0.930 . S
C674 C673 1.376 . S
C674 C675 1.388 . S
C675 H662 0.930 . S
C675 C674 1.388 . S
C675 C676 1.390 . S
C676 C675 1.390 . S
C676 C677 1.394 . S
C676 C682 1.465 . S
C677 C672 1.399 . S
C677 C676 1.394 . S
C677 C678 1.516 . S
C678 C677 1.516 . S
C678 C679 1.502 . S
C678 C680 1.561 . S
C678 C681 1.526 . S
C679 H663 0.959 . S
C679 H664 0.959 . S
C679 H665 0.961 . S
C679 C678 1.502 . S
C680 H666 0.960 . S
C680 H667 0.961 . S
C680 H668 0.959 . S
C680 C678 1.561 . S
C681 C678 1.526 . S
C681 C682 1.396 . S
C681 C686 1.390 . S
C682 C676 1.465 . S
C682 C681 1.396 . S
C682 C683 1.399 . S
C683 H669 0.929 . S
C683 C682 1.399 . S
C683 C684 1.385 . S
C684 H670 0.931 . S
C684 C683 1.385 . S
C684 C685 1.389 . S
C685 C684 1.389 . S
C685 C686 1.387 . S
C686 H671 0.930 . S
C686 C681 1.390 . S
C686 C685 1.387 . S
H687 C699 0.930 . S
H688 C701 0.930 . S
H689 C702 0.930 . S
H690 C706 0.959 . S
H691 C706 0.959 . S
H692 C706 0.961 . S
H693 C707 0.960 . S
H694 C707 0.961 . S
H695 C707 0.959 . S
H696 C710 0.929 . S
H697 C711 0.931 . S
H698 C713 0.930 . S
C699 H687 0.930 . S
C699 C700 1.399 . S
C699 C704 1.399 . S
C700 C699 1.399 . S
C700 C701 1.376 . S
C701 H688 0.930 . S
C701 C700 1.376 . S
C701 C702 1.388 . S
C702 H689 0.930 . S
C702 C701 1.388 . S
C702 C703 1.390 . S
C703 C702 1.390 . S
C703 C704 1.394 . S
C703 C709 1.465 . S
C704 C699 1.399 . S
C704 C703 1.394 . S
C704 C705 1.516 . S
C705 C704 1.516 . S
C705 C706 1.502 . S
C705 C707 1.561 . S
C705 C708 1.526 . S
C706 H690 0.959 . S
C706 H691 0.959 . S
C706 H692 0.961 . S
C706 C705 1.502 . S
C707 H693 0.960 . S
C707 H694 0.961 . S
C707 H695 0.959 . S
C707 C705 1.561 . S
C708 C705 1.526 . S
C708 C709 1.396 . S
C708 C713 1.390 . S
C709 C703 1.465 . S
C709 C708 1.396 . S
C709 C710 1.399 . S
C710 H696 0.929 . S
C710 C709 1.399 . S
C710 C711 1.385 . S
C711 H697 0.931 . S
C711 C710 1.385 . S
C711 C712 1.389 . S
C712 C711 1.389 . S
C712 C713 1.387 . S
C713 H698 0.930 . S
C713 C708 1.390 . S
C713 C712 1.387 . S
H714 C726 0.930 . S
H715 C728 0.930 . S
H716 C729 0.930 . S
H717 C733 0.959 . S
H718 C733 0.959 . S
H719 C733 0.961 . S
H720 C734 0.960 . S
H721 C734 0.961 . S
H722 C734 0.959 . S
H723 C737 0.929 . S
H724 C738 0.931 . S
H725 C740 0.930 . S
C726 H714 0.930 . S
C726 C727 1.399 . S
C726 C731 1.399 . S
C727 C726 1.399 . S
C727 C728 1.376 . S
C728 H715 0.930 . S
C728 C727 1.376 . S
C728 C729 1.388 . S
C729 H716 0.930 . S
C729 C728 1.388 . S
C729 C730 1.390 . S
C730 C729 1.390 . S
C730 C731 1.394 . S
C730 C736 1.465 . S
C731 C726 1.399 . S
C731 C730 1.394 . S
C731 C732 1.516 . S
C732 C731 1.516 . S
C732 C733 1.502 . S
C732 C734 1.561 . S
C732 C735 1.526 . S
C733 H717 0.959 . S
C733 H718 0.959 . S
C733 H719 0.961 . S
C733 C732 1.502 . S
C734 H720 0.960 . S
C734 H721 0.961 . S
C734 H722 0.959 . S
C734 C732 1.561 . S
C735 C732 1.526 . S
C735 C736 1.396 . S
C735 C740 1.390 . S
C736 C730 1.465 . S
C736 C735 1.396 . S
C736 C737 1.399 . S
C737 H723 0.929 . S
C737 C736 1.399 . S
C737 C738 1.385 . S
C738 H724 0.931 . S
C738 C737 1.385 . S
C738 C739 1.389 . S
C739 C738 1.389 . S
C739 C740 1.387 . S
C740 H725 0.930 . S
C740 C735 1.390 . S
C740 C739 1.387 . S
H741 C753 0.930 . S
H742 C755 0.930 . S
H743 C756 0.930 . S
H744 C760 0.959 . S
H745 C760 0.959 . S
H746 C760 0.961 . S
H747 C761 0.960 . S
H748 C761 0.961 . S
H749 C761 0.959 . S
H750 C764 0.929 . S
H751 C765 0.931 . S
H752 C767 0.930 . S
C753 H741 0.930 . S
C753 C754 1.399 . S
C753 C758 1.399 . S
C754 C753 1.399 . S
C754 C755 1.376 . S
C755 H742 0.930 . S
C755 C754 1.376 . S
C755 C756 1.388 . S
C756 H743 0.930 . S
C756 C755 1.388 . S
C756 C757 1.390 . S
C757 C756 1.390 . S
C757 C758 1.394 . S
C757 C763 1.465 . S
C758 C753 1.399 . S
C758 C757 1.394 . S
C758 C759 1.516 . S
C759 C758 1.516 . S
C759 C760 1.502 . S
C759 C761 1.561 . S
C759 C762 1.526 . S
C760 H744 0.959 . S
C760 H745 0.959 . S
C760 H746 0.961 . S
C760 C759 1.502 . S
C761 H747 0.960 . S
C761 H748 0.961 . S
C761 H749 0.959 . S
C761 C759 1.561 . S
C762 C759 1.526 . S
C762 C763 1.396 . S
C762 C767 1.390 . S
C763 C757 1.465 . S
C763 C762 1.396 . S
C763 C764 1.399 . S
C764 H750 0.929 . S
C764 C763 1.399 . S
C764 C765 1.385 . S
C765 H751 0.931 . S
C765 C764 1.385 . S
C765 C766 1.389 . S
C766 C765 1.389 . S
C766 C767 1.387 . S
C767 H752 0.930 . S
C767 C762 1.390 . S
C767 C766 1.387 . S
H768 C780 0.930 . S
H769 C782 0.930 . S
H770 C783 0.930 . S
H771 C787 0.959 . S
H772 C787 0.959 . S
H773 C787 0.961 . S
H774 C788 0.960 . S
H775 C788 0.961 . S
H776 C788 0.959 . S
H777 C791 0.929 . S
H778 C792 0.931 . S
H779 C794 0.930 . S
C780 H768 0.930 . S
C780 C781 1.399 . S
C780 C785 1.399 . S
C781 C780 1.399 . S
C781 C782 1.376 . S
C782 H769 0.930 . S
C782 C781 1.376 . S
C782 C783 1.388 . S
C783 H770 0.930 . S
C783 C782 1.388 . S
C783 C784 1.390 . S
C784 C783 1.390 . S
C784 C785 1.394 . S
C784 C790 1.465 . S
C785 C780 1.399 . S
C785 C784 1.394 . S
C785 C786 1.516 . S
C786 C785 1.516 . S
C786 C787 1.502 . S
C786 C788 1.561 . S
C786 C789 1.526 . S
C787 H771 0.959 . S
C787 H772 0.959 . S
C787 H773 0.961 . S
C787 C786 1.502 . S
C788 H774 0.960 . S
C788 H775 0.961 . S
C788 H776 0.959 . S
C788 C786 1.561 . S
C789 C786 1.526 . S
C789 C790 1.396 . S
C789 C794 1.390 . S
C790 C784 1.465 . S
C790 C789 1.396 . S
C790 C791 1.399 . S
C791 H777 0.929 . S
C791 C790 1.399 . S
C791 C792 1.385 . S
C792 H778 0.931 . S
C792 C791 1.385 . S
C792 C793 1.389 . S
C793 C792 1.389 . S
C793 C794 1.387 . S
C794 H779 0.930 . S
C794 C789 1.390 . S
C794 C793 1.387 . S
H795 C807 0.930 . S
H796 C809 0.930 . S
H797 C810 0.930 . S
H798 C814 0.959 . S
H799 C814 0.959 . S
H800 C814 0.961 . S
H801 C815 0.960 . S
H802 C815 0.961 . S
H803 C815 0.959 . S
H804 C818 0.929 . S
H805 C819 0.931 . S
H806 C821 0.930 . S
C807 H795 0.930 . S
C807 C808 1.399 . S
C807 C812 1.399 . S
C808 C807 1.399 . S
C808 C809 1.376 . S
C809 H796 0.930 . S
C809 C808 1.376 . S
C809 C810 1.388 . S
C810 H797 0.930 . S
C810 C809 1.388 . S
C810 C811 1.390 . S
C811 C810 1.390 . S
C811 C812 1.394 . S
C811 C817 1.465 . S
C812 C807 1.399 . S
C812 C811 1.394 . S
C812 C813 1.516 . S
C813 C812 1.516 . S
C813 C814 1.502 . S
C813 C815 1.561 . S
C813 C816 1.526 . S
C814 H798 0.959 . S
C814 H799 0.959 . S
C814 H800 0.961 . S
C814 C813 1.502 . S
C815 H801 0.960 . S
C815 H802 0.961 . S
C815 H803 0.959 . S
C815 C813 1.561 . S
C816 C813 1.526 . S
C816 C817 1.396 . S
C816 C821 1.390 . S
C817 C811 1.465 . S
C817 C816 1.396 . S
C817 C818 1.399 . S
C818 H804 0.929 . S
C818 C817 1.399 . S
C818 C819 1.385 . S
C819 H805 0.931 . S
C819 C818 1.385 . S
C819 C820 1.389 . S
C820 C819 1.389 . S
C820 C821 1.387 . S
C821 H806 0.930 . S
C821 C816 1.390 . S
C821 C820 1.387 . S
H822 C834 0.930 . S
H823 C836 0.930 . S
H824 C837 0.930 . S
H825 C841 0.959 . S
H826 C841 0.959 . S
H827 C841 0.961 . S
H828 C842 0.960 . S
H829 C842 0.961 . S
H830 C842 0.959 . S
H831 C845 0.929 . S
H832 C846 0.931 . S
H833 C848 0.930 . S
C834 H822 0.930 . S
C834 C835 1.399 . S
C834 C839 1.399 . S
C835 C834 1.399 . S
C835 C836 1.376 . S
C836 H823 0.930 . S
C836 C835 1.376 . S
C836 C837 1.388 . S
C837 H824 0.930 . S
C837 C836 1.388 . S
C837 C838 1.390 . S
C838 C837 1.390 . S
C838 C839 1.394 . S
C838 C844 1.465 . S
C839 C834 1.399 . S
C839 C838 1.394 . S
C839 C840 1.516 . S
C840 C839 1.516 . S
C840 C841 1.502 . S
C840 C842 1.561 . S
C840 C843 1.526 . S
C841 H825 0.959 . S
C841 H826 0.959 . S
C841 H827 0.961 . S
C841 C840 1.502 . S
C842 H828 0.960 . S
C842 H829 0.961 . S
C842 H830 0.959 . S
C842 C840 1.561 . S
C843 C840 1.526 . S
C843 C844 1.396 . S
C843 C848 1.390 . S
C844 C838 1.465 . S
C844 C843 1.396 . S
C844 C845 1.399 . S
C845 H831 0.929 . S
C845 C844 1.399 . S
C845 C846 1.385 . S
C846 H832 0.931 . S
C846 C845 1.385 . S
C846 C847 1.389 . S
C847 C846 1.389 . S
C847 C848 1.387 . S
C848 H833 0.930 . S
C848 C843 1.390 . S
C848 C847 1.387 . S
H849 C861 0.930 . S
H850 C863 0.930 . S
H851 C864 0.930 . S
H852 C868 0.959 . S
H853 C868 0.959 . S
H854 C868 0.961 . S
H855 C869 0.960 . S
H856 C869 0.961 . S
H857 C869 0.959 . S
H858 C872 0.929 . S
H859 C873 0.931 . S
H860 C875 0.930 . S
C861 H849 0.930 . S
C861 C862 1.399 . S
C861 C866 1.399 . S
C862 C861 1.399 . S
C862 C863 1.376 . S
C863 H850 0.930 . S
C863 C862 1.376 . S
C863 C864 1.388 . S
C864 H851 0.930 . S
C864 C863 1.388 . S
C864 C865 1.390 . S
C865 C864 1.390 . S
C865 C866 1.394 . S
C865 C871 1.465 . S
C866 C861 1.399 . S
C866 C865 1.394 . S
C866 C867 1.516 . S
C867 C866 1.516 . S
C867 C868 1.502 . S
C867 C869 1.561 . S
C867 C870 1.526 . S
C868 H852 0.959 . S
C868 H853 0.959 . S
C868 H854 0.961 . S
C868 C867 1.502 . S
C869 H855 0.960 . S
C869 H856 0.961 . S
C869 H857 0.959 . S
C869 C867 1.561 . S
C870 C867 1.526 . S
C870 C871 1.396 . S
C870 C875 1.390 . S
C871 C865 1.465 . S
C871 C870 1.396 . S
C871 C872 1.399 . S
C872 H858 0.929 . S
C872 C871 1.399 . S
C872 C873 1.385 . S
C873 H859 0.931 . S
C873 C872 1.385 . S
C873 C874 1.389 . S
C874 C873 1.389 . S
C874 C875 1.387 . S
C875 H860 0.930 . S
C875 C870 1.390 . S
C875 C874 1.387 . S
H876 C888 0.930 . S
H877 C890 0.930 . S
H878 C891 0.930 . S
H879 C895 0.959 . S
H880 C895 0.959 . S
H881 C895 0.961 . S
H882 C896 0.960 . S
H883 C896 0.961 . S
H884 C896 0.959 . S
H885 C899 0.929 . S
H886 C900 0.931 . S
H887 C902 0.930 . S
C888 H876 0.930 . S
C888 C889 1.399 . S
C888 C893 1.399 . S
C889 C888 1.399 . S
C889 C890 1.376 . S
C890 H877 0.930 . S
C890 C889 1.376 . S
C890 C891 1.388 . S
C891 H878 0.930 . S
C891 C890 1.388 . S
C891 C892 1.390 . S
C892 C891 1.390 . S
C892 C893 1.394 . S
C892 C898 1.465 . S
C893 C888 1.399 . S
C893 C892 1.394 . S
C893 C894 1.516 . S
C894 C893 1.516 . S
C894 C895 1.502 . S
C894 C896 1.561 . S
C894 C897 1.526 . S
C895 H879 0.959 . S
C895 H880 0.959 . S
C895 H881 0.961 . S
C895 C894 1.502 . S
C896 H882 0.960 . S
C896 H883 0.961 . S
C896 H884 0.959 . S
C896 C894 1.561 . S
C897 C894 1.526 . S
C897 C898 1.396 . S
C897 C902 1.390 . S
C898 C892 1.465 . S
C898 C897 1.396 . S
C898 C899 1.399 . S
C899 H885 0.929 . S
C899 C898 1.399 . S
C899 C900 1.385 . S
C900 H886 0.931 . S
C900 C899 1.385 . S
C900 C901 1.389 . S
C901 C900 1.389 . S
C901 C902 1.387 . S
C902 H887 0.930 . S
C902 C897 1.390 . S
C902 C901 1.387 . S
H903 C915 0.930 . S
H904 C917 0.930 . S
H905 C918 0.930 . S
H906 C922 0.959 . S
H907 C922 0.959 . S
H908 C922 0.961 . S
H909 C923 0.960 . S
H910 C923 0.961 . S
H911 C923 0.959 . S
H912 C926 0.929 . S
H913 C927 0.931 . S
H914 C929 0.930 . S
C915 H903 0.930 . S
C915 C916 1.399 . S
C915 C920 1.399 . S
C916 C915 1.399 . S
C916 C917 1.376 . S
C917 H904 0.930 . S
C917 C916 1.376 . S
C917 C918 1.388 . S
C918 H905 0.930 . S
C918 C917 1.388 . S
C918 C919 1.390 . S
C919 C918 1.390 . S
C919 C920 1.394 . S
C919 C925 1.465 . S
C920 C915 1.399 . S
C920 C919 1.394 . S
C920 C921 1.516 . S
C921 C920 1.516 . S
C921 C922 1.502 . S
C921 C923 1.561 . S
C921 C924 1.526 . S
C922 H906 0.959 . S
C922 H907 0.959 . S
C922 H908 0.961 . S
C922 C921 1.502 . S
C923 H909 0.960 . S
C923 H910 0.961 . S
C923 H911 0.959 . S
C923 C921 1.561 . S
C924 C921 1.526 . S
C924 C925 1.396 . S
C924 C929 1.390 . S
C925 C919 1.465 . S
C925 C924 1.396 . S
C925 C926 1.399 . S
C926 H912 0.929 . S
C926 C925 1.399 . S
C926 C927 1.385 . S
C927 H913 0.931 . S
C927 C926 1.385 . S
C927 C928 1.389 . S
C928 C927 1.389 . S
C928 C929 1.387 . S
C929 H914 0.930 . S
C929 C924 1.390 . S
C929 C928 1.387 . S
H930 C942 0.930 . S
H931 C944 0.930 . S
H932 C945 0.930 . S
H933 C949 0.959 . S
H934 C949 0.959 . S
H935 C949 0.961 . S
H936 C950 0.960 . S
H937 C950 0.961 . S
H938 C950 0.959 . S
H939 C953 0.929 . S
H940 C954 0.931 . S
H941 C956 0.930 . S
C942 H930 0.930 . S
C942 C943 1.399 . S
C942 C947 1.399 . S
C943 C942 1.399 . S
C943 C944 1.376 . S
C944 H931 0.930 . S
C944 C943 1.376 . S
C944 C945 1.388 . S
C945 H932 0.930 . S
C945 C944 1.388 . S
C945 C946 1.390 . S
C946 C945 1.390 . S
C946 C947 1.394 . S
C946 C952 1.465 . S
C947 C942 1.399 . S
C947 C946 1.394 . S
C947 C948 1.516 . S
C948 C947 1.516 . S
C948 C949 1.502 . S
C948 C950 1.561 . S
C948 C951 1.526 . S
C949 H933 0.959 . S
C949 H934 0.959 . S
C949 H935 0.961 . S
C949 C948 1.502 . S
C950 H936 0.960 . S
C950 H937 0.961 . S
C950 H938 0.959 . S
C950 C948 1.561 . S
C951 C948 1.526 . S
C951 C952 1.396 . S
C951 C956 1.390 . S
C952 C946 1.465 . S
C952 C951 1.396 . S
C952 C953 1.399 . S
C953 H939 0.929 . S
C953 C952 1.399 . S
C953 C954 1.385 . S
C954 H940 0.931 . S
C954 C953 1.385 . S
C954 C955 1.389 . S
C955 C954 1.389 . S
C955 C956 1.387 . S
C956 H941 0.930 . S
C956 C951 1.390 . S
C956 C955 1.387 . S
H957 C969 0.930 . S
H958 C971 0.930 . S
H959 C972 0.930 . S
H960 C976 0.959 . S
H961 C976 0.959 . S
H962 C976 0.961 . S
H963 C977 0.960 . S
H964 C977 0.961 . S
H965 C977 0.959 . S
H966 C980 0.929 . S
H967 C981 0.931 . S
H968 C983 0.930 . S
C969 H957 0.930 . S
C969 C970 1.399 . S
C969 C974 1.399 . S
C970 C969 1.399 . S
C970 C971 1.376 . S
C971 H958 0.930 . S
C971 C970 1.376 . S
C971 C972 1.388 . S
C972 H959 0.930 . S
C972 C971 1.388 . S
C972 C973 1.390 . S
C973 C972 1.390 . S
C973 C974 1.394 . S
C973 C979 1.465 . S
C974 C969 1.399 . S
C974 C973 1.394 . S
C974 C975 1.516 . S
C975 C974 1.516 . S
C975 C976 1.502 . S
C975 C977 1.561 . S
C975 C978 1.526 . S
C976 H960 0.959 . S
C976 H961 0.959 . S
C976 H962 0.961 . S
C976 C975 1.502 . S
C977 H963 0.960 . S
C977 H964 0.961 . S
C977 H965 0.959 . S
C977 C975 1.561 . S
C978 C975 1.526 . S
C978 C979 1.396 . S
C978 C983 1.390 . S
C979 C973 1.465 . S
C979 C978 1.396 . S
C979 C980 1.399 . S
C980 H966 0.929 . S
C980 C979 1.399 . S
C980 C981 1.385 . S
C981 H967 0.931 . S
C981 C980 1.385 . S
C981 C982 1.389 . S
C982 C981 1.389 . S
C982 C983 1.387 . S
C983 H968 0.930 . S
C983 C978 1.390 . S
C983 C982 1.387 . S
H984 C996 0.930 . S
H985 C998 0.930 . S
H986 C999 0.930 . S
H987 C1003 0.959 . S
H988 C1003 0.959 1_655 S
H989 C1003 0.961 . S
H990 C1004 0.960 1_455 S
H991 C1004 0.961 . S
H992 C1004 0.959 . S
H993 C1007 0.929 . S
H994 C1008 0.931 . S
H995 C1010 0.930 . S
C996 H984 0.930 . S
C996 C997 1.399 . S
C996 C1001 1.399 . S
C997 C996 1.399 . S
C997 C998 1.376 . S
C998 H985 0.930 . S
C998 C997 1.376 . S
C998 C999 1.388 . S
C999 H986 0.930 . S
C999 C998 1.388 . S
C999 C1000 1.390 . S
C1000 C999 1.390 . S
C1000 C1001 1.394 . S
C1000 C1006 1.465 1_455 S
C1001 C996 1.399 . S
C1001 C1000 1.394 . S
C1001 C1002 1.518 1_455 S
C1002 C1001 1.518 1_655 S
C1002 C1003 1.502 1_655 S
C1002 C1004 1.561 . S
C1002 C1005 1.524 . S
C1003 H987 0.959 . S
C1003 H988 0.959 1_455 S
C1003 H989 0.961 . S
C1003 C1002 1.502 1_455 S
C1004 H990 0.960 1_655 S
C1004 H991 0.961 . S
C1004 H992 0.959 . S
C1004 C1002 1.561 . S
C1005 C1002 1.524 . S
C1005 C1006 1.396 . S
C1005 C1010 1.390 . S
C1006 C1000 1.465 1_655 S
C1006 C1005 1.396 . S
C1006 C1007 1.399 . S
C1007 H993 0.929 . S
C1007 C1006 1.399 . S
C1007 C1008 1.385 . S
C1008 H994 0.931 . S
C1008 C1007 1.385 . S
C1008 C1009 1.389 . S
C1009 C1008 1.389 . S
C1009 C1010 1.387 . S
C1010 H995 0.930 . S
C1010 C1005 1.390 . S
C1010 C1009 1.387 . S
H1011 C1023 0.930 . S
H1012 C1025 0.930 . S
H1013 C1026 0.930 . S
H1014 C1030 0.959 . S
H1015 C1030 0.959 . S
H1016 C1030 0.961 1_545 S
H1017 C1031 0.960 1_545 S
H1018 C1031 0.961 . S
H1019 C1031 0.959 . S
H1020 C1034 0.929 . S
H1021 C1035 0.931 . S
H1022 C1037 0.930 . S
C1023 H1011 0.930 . S
C1023 C1024 1.399 . S
C1023 C1028 1.399 . S
C1024 C1023 1.399 . S
C1024 C1025 1.376 . S
C1025 H1012 0.930 . S
C1025 C1024 1.376 . S
C1025 C1026 1.388 . S
C1026 H1013 0.930 . S
C1026 C1025 1.388 . S
C1026 C1027 1.390 . S
C1027 C1026 1.390 . S
C1027 C1028 1.394 . S
C1027 C1033 1.465 1_545 S
C1028 C1023 1.399 . S
C1028 C1027 1.394 . S
C1028 C1029 1.516 1_545 S
C1029 C1028 1.516 1_565 S
C1029 C1030 1.502 . S
C1029 C1031 1.561 . S
C1029 C1032 1.526 . S
C1030 H1014 0.959 . S
C1030 H1015 0.959 . S
C1030 H1016 0.961 1_565 S
C1030 C1029 1.502 . S
C1031 H1017 0.960 1_565 S
C1031 H1018 0.961 . S
C1031 H1019 0.959 . S
C1031 C1029 1.561 . S
C1032 C1029 1.526 . S
C1032 C1033 1.396 . S
C1032 C1037 1.390 . S
C1033 C1027 1.465 1_565 S
C1033 C1032 1.396 . S
C1033 C1034 1.399 . S
C1034 H1020 0.929 . S
C1034 C1033 1.399 . S
C1034 C1035 1.385 . S
C1035 H1021 0.931 . S
C1035 C1034 1.385 . S
C1035 C1036 1.389 . S
C1036 C1035 1.389 . S
C1036 C1037 1.387 . S
C1037 H1022 0.930 . S
C1037 C1032 1.390 . S
C1037 C1036 1.387 . S
H1038 C1050 0.930 . S
H1039 C1052 0.930 . S
H1040 C1053 0.930 . S
H1041 C1057 0.959 . S
H1042 C1057 0.959 . S
H1043 C1057 0.961 1_655 S
H1044 C1058 0.960 1_655 S
H1045 C1058 0.961 . S
H1046 C1058 0.959 . S
H1047 C1061 0.929 . S
H1048 C1062 0.931 . S
H1049 C1064 0.930 . S
C1050 H1038 0.930 . S
C1050 C1051 1.399 . S
C1050 C1055 1.399 . S
C1051 C1050 1.399 . S
C1051 C1052 1.376 . S
C1052 H1039 0.930 . S
C1052 C1051 1.376 . S
C1052 C1053 1.388 . S
C1053 H1040 0.930 . S
C1053 C1052 1.388 . S
C1053 C1054 1.390 . S
C1054 C1053 1.390 . S
C1054 C1055 1.394 . S
C1054 C1060 1.465 1_655 S
C1055 C1050 1.399 . S
C1055 C1054 1.394 . S
C1055 C1056 1.516 1_655 S
C1056 C1055 1.516 1_455 S
C1056 C1057 1.502 . S
C1056 C1058 1.561 . S
C1056 C1059 1.526 . S
C1057 H1041 0.959 . S
C1057 H1042 0.959 . S
C1057 H1043 0.961 1_455 S
C1057 C1056 1.502 . S
C1058 H1044 0.960 1_455 S
C1058 H1045 0.961 . S
C1058 H1046 0.959 . S
C1058 C1056 1.561 . S
C1059 C1056 1.526 . S
C1059 C1060 1.396 . S
C1059 C1064 1.390 . S
C1060 C1054 1.465 1_455 S
C1060 C1059 1.396 . S
C1060 C1061 1.399 . S
C1061 H1047 0.929 . S
C1061 C1060 1.399 . S
C1061 C1062 1.385 . S
C1062 H1048 0.931 . S
C1062 C1061 1.385 . S
C1062 C1063 1.389 . S
C1063 C1062 1.389 . S
C1063 C1064 1.387 . S
C1064 H1049 0.930 . S
C1064 C1059 1.390 . S
C1064 C1063 1.387 . S
H1065 C1077 0.930 . S
H1066 C1079 0.930 . S
H1067 C1080 0.930 . S
H1068 C1084 0.959 . S
H1069 C1084 0.959 1_565 S
H1070 C1084 0.961 . S
H1071 C1085 0.960 . S
H1072 C1085 0.961 1_565 S
H1073 C1085 0.959 . S
H1074 C1088 0.929 . S
H1075 C1089 0.931 . S
H1076 C1091 0.930 . S
C1077 H1065 0.930 . S
C1077 C1078 1.399 . S
C1077 C1082 1.399 . S
C1078 C1077 1.399 . S
C1078 C1079 1.376 . S
C1079 H1066 0.930 . S
C1079 C1078 1.376 . S
C1079 C1080 1.388 . S
C1080 H1067 0.930 . S
C1080 C1079 1.388 . S
C1080 C1081 1.390 . S
C1081 C1080 1.390 . S
C1081 C1082 1.394 . S
C1081 C1087 1.465 1_545 S
C1082 C1077 1.399 . S
C1082 C1081 1.394 . S
C1082 C1083 1.516 . S
C1083 C1082 1.516 . S
C1083 C1084 1.502 . S
C1083 C1085 1.561 . S
C1083 C1086 1.526 1_545 S
C1084 H1068 0.959 . S
C1084 H1069 0.959 1_545 S
C1084 H1070 0.961 . S
C1084 C1083 1.502 . S
C1085 H1071 0.960 . S
C1085 H1072 0.961 1_545 S
C1085 H1073 0.959 . S
C1085 C1083 1.561 . S
C1086 C1083 1.526 1_565 S
C1086 C1087 1.396 . S
C1086 C1091 1.390 . S
C1087 C1081 1.465 1_565 S
C1087 C1086 1.396 . S
C1087 C1088 1.399 . S
C1088 H1074 0.929 . S
C1088 C1087 1.399 . S
C1088 C1089 1.385 . S
C1089 H1075 0.931 . S
C1089 C1088 1.385 . S
C1089 C1090 1.389 . S
C1090 C1089 1.389 . S
C1090 C1091 1.387 . S
C1091 H1076 0.930 . S
C1091 C1086 1.390 . S
C1091 C1090 1.387 . S
H1092 C1104 0.930 . S
H1093 C1106 0.930 . S
H1094 C1107 0.930 . S
H1095 C1111 0.959 . S
H1096 C1111 0.959 . S
H1097 C1111 0.961 1_565 S
H1098 C1112 0.960 . S
H1099 C1112 0.961 1_545 S
H1100 C1112 0.959 . S
H1101 C1115 0.929 . S
H1102 C1116 0.931 . S
H1103 C1118 0.930 . S
C1104 H1092 0.930 . S
C1104 C1105 1.399 . S
C1104 C1109 1.399 . S
C1105 C1104 1.399 . S
C1105 C1106 1.376 . S
C1106 H1093 0.930 . S
C1106 C1105 1.376 . S
C1106 C1107 1.388 . S
C1107 H1094 0.930 . S
C1107 C1106 1.388 . S
C1107 C1108 1.390 . S
C1108 C1107 1.390 . S
C1108 C1109 1.394 . S
C1108 C1114 1.465 1_565 S
C1109 C1104 1.399 . S
C1109 C1108 1.394 . S
C1109 C1110 1.516 1_565 S
C1110 C1109 1.516 1_545 S
C1110 C1111 1.502 . S
C1110 C1112 1.561 1_545 S
C1110 C1113 1.526 . S
C1111 H1095 0.959 . S
C1111 H1096 0.959 . S
C1111 H1097 0.961 1_545 S
C1111 C1110 1.502 . S
C1112 H1098 0.960 . S
C1112 H1099 0.961 1_565 S
C1112 H1100 0.959 . S
C1112 C1110 1.561 1_565 S
C1113 C1110 1.526 . S
C1113 C1114 1.396 . S
C1113 C1118 1.390 . S
C1114 C1108 1.465 1_545 S
C1114 C1113 1.396 . S
C1114 C1115 1.399 . S
C1115 H1101 0.929 . S
C1115 C1114 1.399 . S
C1115 C1116 1.385 . S
C1116 H1102 0.931 . S
C1116 C1115 1.385 . S
C1116 C1117 1.389 . S
C1117 C1116 1.389 . S
C1117 C1118 1.387 . S
C1118 H1103 0.930 . S
C1118 C1113 1.390 . S
C1118 C1117 1.387 . S
H1119 C1131 0.930 . S
H1120 C1133 0.930 . S
H1121 C1134 0.930 . S
H1122 C1138 0.959 . S
H1123 C1138 0.959 1_455 S
H1124 C1138 0.961 . S
H1125 C1139 0.960 . S
H1126 C1139 0.961 1_455 S
H1127 C1139 0.959 . S
H1128 C1142 0.929 . S
H1129 C1143 0.931 . S
H1130 C1145 0.930 . S
C1131 H1119 0.930 . S
C1131 C1132 1.399 . S
C1131 C1136 1.399 . S
C1132 C1131 1.399 . S
C1132 C1133 1.376 . S
C1133 H1120 0.930 . S
C1133 C1132 1.376 . S
C1133 C1134 1.388 . S
C1134 H1121 0.930 . S
C1134 C1133 1.388 . S
C1134 C1135 1.390 . S
C1135 C1134 1.390 . S
C1135 C1136 1.394 . S
C1135 C1141 1.465 1_655 S
C1136 C1131 1.399 . S
C1136 C1135 1.394 . S
C1136 C1137 1.516 . S
C1137 C1136 1.516 . S
C1137 C1138 1.502 . S
C1137 C1139 1.561 . S
C1137 C1140 1.526 1_655 S
C1138 H1122 0.959 . S
C1138 H1123 0.959 1_655 S
C1138 H1124 0.961 . S
C1138 C1137 1.502 . S
C1139 H1125 0.960 . S
C1139 H1126 0.961 1_655 S
C1139 H1127 0.959 . S
C1139 C1137 1.561 . S
C1140 C1137 1.526 1_455 S
C1140 C1141 1.396 . S
C1140 C1145 1.390 . S
C1141 C1135 1.465 1_455 S
C1141 C1140 1.396 . S
C1141 C1142 1.399 . S
C1142 H1128 0.929 . S
C1142 C1141 1.399 . S
C1142 C1143 1.385 . S
C1143 H1129 0.931 . S
C1143 C1142 1.385 . S
C1143 C1144 1.389 . S
C1144 C1143 1.389 . S
C1144 C1145 1.387 . S
C1145 H1130 0.930 . S
C1145 C1140 1.390 . S
C1145 C1144 1.387 . S
H1146 C1158 0.930 . S
H1147 C1160 0.930 . S
H1148 C1161 0.930 . S
H1149 C1165 0.959 . S
H1150 C1165 0.959 1_545 S
H1151 C1165 0.961 . S
H1152 C1166 0.946 1_565 S
H1153 C1166 0.973 . S
H1154 C1166 0.962 . S
H1155 C1169 0.929 . S
H1156 C1170 0.931 . S
H1157 C1172 0.930 . S
C1158 H1146 0.930 . S
C1158 C1159 1.399 . S
C1158 C1163 1.399 . S
C1159 C1158 1.399 . S
C1159 C1160 1.376 . S
C1160 H1147 0.930 . S
C1160 C1159 1.376 . S
C1160 C1161 1.388 . S
C1161 H1148 0.930 . S
C1161 C1160 1.388 . S
C1161 C1162 1.390 . S
C1162 C1161 1.390 . S
C1162 C1163 1.394 . S
C1162 C1168 1.465 1_565 S
C1163 C1158 1.399 . S
C1163 C1162 1.394 . S
C1163 C1164 1.516 . S
C1164 C1163 1.516 . S
C1164 C1165 1.502 . S
C1164 C1166 1.560 1_565 S
C1164 C1167 1.526 1_565 S
C1165 H1149 0.959 . S
C1165 H1150 0.959 1_565 S
C1165 H1151 0.961 . S
C1165 C1164 1.502 . S
C1166 H1152 0.946 1_545 S
C1166 H1153 0.973 . S
C1166 H1154 0.962 . S
C1166 C1164 1.560 1_545 S
C1167 C1164 1.526 1_545 S
C1167 C1168 1.396 . S
C1167 C1172 1.390 . S
C1168 C1162 1.465 1_545 S
C1168 C1167 1.396 . S
C1168 C1169 1.399 . S
C1169 H1155 0.929 . S
C1169 C1168 1.399 . S
C1169 C1170 1.385 . S
C1170 H1156 0.931 . S
C1170 C1169 1.385 . S
C1170 C1171 1.389 . S
C1171 C1170 1.389 . S
C1171 C1172 1.387 . S
C1172 H1157 0.930 . S
C1172 C1167 1.390 . S
C1172 C1171 1.387 . S
H1173 C1185 0.930 . S
H1174 C1187 0.930 . S
H1175 C1188 0.930 . S
H1176 C1192 0.959 . S
H1177 C1192 0.959 . S
H1178 C1192 0.961 1_655 S
H1179 C1193 0.960 . S
H1180 C1193 0.961 1_455 S
H1181 C1193 0.959 . S
H1182 C1196 0.929 . S
H1183 C1197 0.931 . S
H1184 C1199 0.930 . S
C1185 H1173 0.930 . S
C1185 C1186 1.399 . S
C1185 C1190 1.399 . S
C1186 C1185 1.399 . S
C1186 C1187 1.376 . S
C1187 H1174 0.930 . S
C1187 C1186 1.376 . S
C1187 C1188 1.388 . S
C1188 H1175 0.930 . S
C1188 C1187 1.388 . S
C1188 C1189 1.390 . S
C1189 C1188 1.390 . S
C1189 C1190 1.394 . S
C1189 C1195 1.465 1_655 S
C1190 C1185 1.399 . S
C1190 C1189 1.394 . S
C1190 C1191 1.505 1_655 S
C1191 C1190 1.505 1_455 S
C1191 C1192 1.504 . S
C1191 C1193 1.560 1_455 S
C1191 C1194 1.536 . S
C1192 H1176 0.959 . S
C1192 H1177 0.959 . S
C1192 H1178 0.961 1_455 S
C1192 C1191 1.504 . S
C1193 H1179 0.960 . S
C1193 H1180 0.961 1_655 S
C1193 H1181 0.959 . S
C1193 C1191 1.560 1_655 S
C1194 C1191 1.536 . S
C1194 C1195 1.396 . S
C1194 C1199 1.390 . S
C1195 C1189 1.465 1_455 S
C1195 C1194 1.396 . S
C1195 C1196 1.399 . S
C1196 H1182 0.929 . S
C1196 C1195 1.399 . S
C1196 C1197 1.385 . S
C1197 H1183 0.931 . S
C1197 C1196 1.385 . S
C1197 C1198 1.389 . S
C1198 C1197 1.389 . S
C1198 C1199 1.387 . S
C1199 H1184 0.930 . S
C1199 C1194 1.390 . S
C1199 C1198 1.387 . S
H1200 C1212 0.930 . S
H1201 C1214 0.930 . S
H1202 C1215 0.930 . S
H1203 C1219 0.959 . S
H1204 C1219 0.959 1_554 S
H1205 C1219 0.961 . S
H1206 C1220 0.960 . S
H1207 C1220 0.961 1_554 S
H1208 C1220 0.959 . S
H1209 C1223 0.929 . S
H1210 C1224 0.931 . S
H1211 C1226 0.930 . S
C1212 H1200 0.930 . S
C1212 C1213 1.399 . S
C1212 C1217 1.399 . S
C1213 C1212 1.399 . S
C1213 C1214 1.376 . S
C1214 H1201 0.930 . S
C1214 C1213 1.376 . S
C1214 C1215 1.388 . S
C1215 H1202 0.930 . S
C1215 C1214 1.388 . S
C1215 C1216 1.390 . S
C1216 C1215 1.390 . S
C1216 C1217 1.394 . S
C1216 C1222 1.465 1_556 S
C1217 C1212 1.399 . S
C1217 C1216 1.394 . S
C1217 C1218 1.516 . S
C1218 C1217 1.516 . S
C1218 C1219 1.502 . S
C1218 C1220 1.561 . S
C1218 C1221 1.526 1_556 S
C1219 H1203 0.959 . S
C1219 H1204 0.959 1_556 S
C1219 H1205 0.961 . S
C1219 C1218 1.502 . S
C1220 H1206 0.960 . S
C1220 H1207 0.961 1_556 S
C1220 H1208 0.959 . S
C1220 C1218 1.561 . S
C1221 C1218 1.526 1_554 S
C1221 C1222 1.396 . S
C1221 C1226 1.390 . S
C1222 C1216 1.465 1_554 S
C1222 C1221 1.396 . S
C1222 C1223 1.399 . S
C1223 H1209 0.929 . S
C1223 C1222 1.399 . S
C1223 C1224 1.385 . S
C1224 H1210 0.931 . S
C1224 C1223 1.385 . S
C1224 C1225 1.389 . S
C1225 C1224 1.389 . S
C1225 C1226 1.387 . S
C1226 H1211 0.930 . S
C1226 C1221 1.390 . S
C1226 C1225 1.387 . S
H1227 C1239 0.930 . S
H1228 C1241 0.930 . S
H1229 C1242 0.930 . S
H1230 C1246 0.959 . S
H1231 C1246 0.959 1_554 S
H1232 C1246 0.961 . S
H1233 C1247 0.960 . S
H1234 C1247 0.961 1_554 S
H1235 C1247 0.954 1_554 S
H1236 C1250 0.929 . S
H1237 C1251 0.931 . S
H1238 C1253 0.930 . S
C1239 H1227 0.930 . S
C1239 C1240 1.399 . S
C1239 C1244 1.399 . S
C1240 C1239 1.399 . S
C1240 C1241 1.376 . S
C1241 H1228 0.930 . S
C1241 C1240 1.376 . S
C1241 C1242 1.388 . S
C1242 H1229 0.930 . S
C1242 C1241 1.388 . S
C1242 C1243 1.390 . S
C1243 C1242 1.390 . S
C1243 C1244 1.394 . S
C1243 C1249 1.465 1_556 S
C1244 C1239 1.399 . S
C1244 C1243 1.394 . S
C1244 C1245 1.516 . S
C1245 C1244 1.516 . S
C1245 C1246 1.502 . S
C1245 C1247 1.561 . S
C1245 C1248 1.526 1_556 S
C1246 H1230 0.959 . S
C1246 H1231 0.959 1_556 S
C1246 H1232 0.961 . S
C1246 C1245 1.502 . S
C1247 H1233 0.960 . S
C1247 H1234 0.961 1_556 S
C1247 H1235 0.954 1_556 S
C1247 C1245 1.561 . S
C1248 C1245 1.526 1_554 S
C1248 C1249 1.396 . S
C1248 C1253 1.390 . S
C1249 C1243 1.465 1_554 S
C1249 C1248 1.396 . S
C1249 C1250 1.399 . S
C1250 H1236 0.929 . S
C1250 C1249 1.399 . S
C1250 C1251 1.385 . S
C1251 H1237 0.931 . S
C1251 C1250 1.385 . S
C1251 C1252 1.389 . S
C1252 C1251 1.389 . S
C1252 C1253 1.387 . S
C1253 H1238 0.930 . S
C1253 C1248 1.390 . S
C1253 C1252 1.387 . S
H1254 C1266 0.930 . S
H1255 C1268 0.930 . S
H1256 C1269 0.930 . S
H1257 C1273 0.959 . S
H1258 C1273 0.959 . S
H1259 C1273 0.961 1_556 S
H1260 C1274 0.960 1_556 S
H1261 C1274 0.961 . S
H1262 C1274 0.959 . S
H1263 C1277 0.929 . S
H1264 C1278 0.931 . S
H1265 C1280 0.930 . S
C1266 H1254 0.930 . S
C1266 C1267 1.399 . S
C1266 C1271 1.399 . S
C1267 C1266 1.399 . S
C1267 C1268 1.376 . S
C1268 H1255 0.930 . S
C1268 C1267 1.376 . S
C1268 C1269 1.388 . S
C1269 H1256 0.930 . S
C1269 C1268 1.388 . S
C1269 C1270 1.390 . S
C1270 C1269 1.390 . S
C1270 C1271 1.394 . S
C1270 C1276 1.465 1_556 S
C1271 C1266 1.399 . S
C1271 C1270 1.394 . S
C1271 C1272 1.516 1_556 S
C1272 C1271 1.516 1_554 S
C1272 C1273 1.502 . S
C1272 C1274 1.561 . S
C1272 C1275 1.526 . S
C1273 H1257 0.959 . S
C1273 H1258 0.959 . S
C1273 H1259 0.961 1_554 S
C1273 C1272 1.502 . S
C1274 H1260 0.960 1_554 S
C1274 H1261 0.961 . S
C1274 H1262 0.959 . S
C1274 C1272 1.561 . S
C1275 C1272 1.526 . S
C1275 C1276 1.396 . S
C1275 C1280 1.390 . S
C1276 C1270 1.465 1_554 S
C1276 C1275 1.396 . S
C1276 C1277 1.399 . S
C1277 H1263 0.929 . S
C1277 C1276 1.399 . S
C1277 C1278 1.385 . S
C1278 H1264 0.931 . S
C1278 C1277 1.385 . S
C1278 C1279 1.389 . S
C1279 C1278 1.389 . S
C1279 C1280 1.387 . S
C1280 H1265 0.930 . S
C1280 C1275 1.390 . S
C1280 C1279 1.387 . S
H1281 C1293 0.930 . S
H1282 C1295 0.930 . S
H1283 C1296 0.930 . S
H1284 C1300 0.959 . S
H1285 C1300 0.959 . S
H1286 C1300 0.961 1_556 S
H1287 C1301 0.984 . S
H1288 C1301 0.938 1_554 S
H1289 C1301 0.960 . S
H1290 C1304 0.929 . S
H1291 C1305 0.931 . S
H1292 C1307 0.930 . S
C1293 H1281 0.930 . S
C1293 C1294 1.399 . S
C1293 C1298 1.399 . S
C1294 C1293 1.399 . S
C1294 C1295 1.376 . S
C1295 H1282 0.930 . S
C1295 C1294 1.376 . S
C1295 C1296 1.388 . S
C1296 H1283 0.930 . S
C1296 C1295 1.388 . S
C1296 C1297 1.390 . S
C1297 C1296 1.390 . S
C1297 C1298 1.394 . S
C1297 C1303 1.465 1_556 S
C1298 C1293 1.399 . S
C1298 C1297 1.394 . S
C1298 C1299 1.516 1_556 S
C1299 C1298 1.516 1_554 S
C1299 C1300 1.502 . S
C1299 C1301 1.559 1_554 S
C1299 C1302 1.526 . S
C1300 H1284 0.959 . S
C1300 H1285 0.959 . S
C1300 H1286 0.961 1_554 S
C1300 C1299 1.502 . S
C1301 H1287 0.984 . S
C1301 H1288 0.938 1_556 S
C1301 H1289 0.960 . S
C1301 C1299 1.559 1_556 S
C1302 C1299 1.526 . S
C1302 C1303 1.396 . S
C1302 C1307 1.390 . S
C1303 C1297 1.465 1_554 S
C1303 C1302 1.396 . S
C1303 C1304 1.399 . S
C1304 H1290 0.929 . S
C1304 C1303 1.399 . S
C1304 C1305 1.385 . S
C1305 H1291 0.931 . S
C1305 C1304 1.385 . S
C1305 C1306 1.389 . S
C1306 C1305 1.389 . S
C1306 C1307 1.387 . S
C1307 H1292 0.930 . S
C1307 C1302 1.390 . S
C1307 C1306 1.387 . S
H1308 C1320 0.930 . S
H1309 C1322 0.930 . S
H1310 C1323 0.930 . S
H1311 C1327 0.959 . S
H1312 C1327 0.959 . S
H1313 C1327 0.961 . S
H1314 C1328 0.960 . S
H1315 C1328 0.961 . S
H1316 C1328 0.959 . S
H1317 C1331 0.929 . S
H1318 C1332 0.931 . S
H1319 C1334 0.930 . S
C1320 H1308 0.930 . S
C1320 C1321 1.399 . S
C1320 C1325 1.399 . S
C1321 C1320 1.399 . S
C1321 C1322 1.376 . S
C1322 H1309 0.930 . S
C1322 C1321 1.376 . S
C1322 C1323 1.388 . S
C1323 H1310 0.930 . S
C1323 C1322 1.388 . S
C1323 C1324 1.390 . S
C1324 C1323 1.390 . S
C1324 C1325 1.394 . S
C1324 C1330 1.465 . S
C1325 C1320 1.399 . S
C1325 C1324 1.394 . S
C1325 C1326 1.516 . S
C1326 C1325 1.516 . S
C1326 C1327 1.502 . S
C1326 C1328 1.561 . S
C1326 C1329 1.526 . S
C1327 H1311 0.959 . S
C1327 H1312 0.959 . S
C1327 H1313 0.961 . S
C1327 C1326 1.502 . S
C1328 H1314 0.960 . S
C1328 H1315 0.961 . S
C1328 H1316 0.959 . S
C1328 C1326 1.561 . S
C1329 C1326 1.526 . S
C1329 C1330 1.396 . S
C1329 C1334 1.390 . S
C1330 C1324 1.465 . S
C1330 C1329 1.396 . S
C1330 C1331 1.399 . S
C1331 H1317 0.929 . S
C1331 C1330 1.399 . S
C1331 C1332 1.385 . S
C1332 H1318 0.931 . S
C1332 C1331 1.385 . S
C1332 C1333 1.389 . S
C1333 C1332 1.389 . S
C1333 C1334 1.387 . S
C1334 H1319 0.930 . S
C1334 C1329 1.390 . S
C1334 C1333 1.387 . S
H1335 C1347 0.930 . S
H1336 C1349 0.930 . S
H1337 C1350 0.930 . S
H1338 C1354 0.959 . S
H1339 C1354 0.959 . S
H1340 C1354 0.961 . S
H1341 C1355 0.960 . S
H1342 C1355 0.961 . S
H1343 C1355 0.959 . S
H1344 C1358 0.929 . S
H1345 C1359 0.931 . S
H1346 C1361 0.930 . S
C1347 H1335 0.930 . S
C1347 C1348 1.399 . S
C1347 C1352 1.399 . S
C1348 C1347 1.399 . S
C1348 C1349 1.376 . S
C1349 H1336 0.930 . S
C1349 C1348 1.376 . S
C1349 C1350 1.388 . S
C1350 H1337 0.930 . S
C1350 C1349 1.388 . S
C1350 C1351 1.390 . S
C1351 C1350 1.390 . S
C1351 C1352 1.394 . S
C1351 C1357 1.465 . S
C1352 C1347 1.399 . S
C1352 C1351 1.394 . S
C1352 C1353 1.516 . S
C1353 C1352 1.516 . S
C1353 C1354 1.502 . S
C1353 C1355 1.561 . S
C1353 C1356 1.526 . S
C1354 H1338 0.959 . S
C1354 H1339 0.959 . S
C1354 H1340 0.961 . S
C1354 C1353 1.502 . S
C1355 H1341 0.960 . S
C1355 H1342 0.961 . S
C1355 H1343 0.959 . S
C1355 C1353 1.561 . S
C1356 C1353 1.526 . S
C1356 C1357 1.396 . S
C1356 C1361 1.390 . S
C1357 C1351 1.465 . S
C1357 C1356 1.396 . S
C1357 C1358 1.399 . S
C1358 H1344 0.929 . S
C1358 C1357 1.399 . S
C1358 C1359 1.385 . S
C1359 H1345 0.931 . S
C1359 C1358 1.385 . S
C1359 C1360 1.389 . S
C1360 C1359 1.389 . S
C1360 C1361 1.387 . S
C1361 H1346 0.930 . S
C1361 C1356 1.390 . S
C1361 C1360 1.387 . S
H1362 C1374 0.930 . S
H1363 C1376 0.930 . S
H1364 C1377 0.930 . S
H1365 C1381 0.959 . S
H1366 C1381 0.959 . S
H1367 C1381 0.961 . S
H1368 C1382 0.960 . S
H1369 C1382 0.961 . S
H1370 C1382 0.959 . S
H1371 C1385 0.929 . S
H1372 C1386 0.931 . S
H1373 C1388 0.930 . S
C1374 H1362 0.930 . S
C1374 C1375 1.399 . S
C1374 C1379 1.399 . S
C1375 C1374 1.399 . S
C1375 C1376 1.376 . S
C1376 H1363 0.930 . S
C1376 C1375 1.376 . S
C1376 C1377 1.388 . S
C1377 H1364 0.930 . S
C1377 C1376 1.388 . S
C1377 C1378 1.390 . S
C1378 C1377 1.390 . S
C1378 C1379 1.394 . S
C1378 C1384 1.465 . S
C1379 C1374 1.399 . S
C1379 C1378 1.394 . S
C1379 C1380 1.516 . S
C1380 C1379 1.516 . S
C1380 C1381 1.502 . S
C1380 C1382 1.561 . S
C1380 C1383 1.526 . S
C1381 H1365 0.959 . S
C1381 H1366 0.959 . S
C1381 H1367 0.961 . S
C1381 C1380 1.502 . S
C1382 H1368 0.960 . S
C1382 H1369 0.961 . S
C1382 H1370 0.959 . S
C1382 C1380 1.561 . S
C1383 C1380 1.526 . S
C1383 C1384 1.396 . S
C1383 C1388 1.390 . S
C1384 C1378 1.465 . S
C1384 C1383 1.396 . S
C1384 C1385 1.399 . S
C1385 H1371 0.929 . S
C1385 C1384 1.399 . S
C1385 C1386 1.385 . S
C1386 H1372 0.931 . S
C1386 C1385 1.385 . S
C1386 C1387 1.389 . S
C1387 C1386 1.389 . S
C1387 C1388 1.387 . S
C1388 H1373 0.930 . S
C1388 C1383 1.390 . S
C1388 C1387 1.387 . S
H1389 C1401 0.930 . S
H1390 C1403 0.930 . S
H1391 C1404 0.930 . S
H1392 C1408 0.959 . S
H1393 C1408 0.959 . S
H1394 C1408 0.961 . S
H1395 C1409 0.960 . S
H1396 C1409 0.961 . S
H1397 C1409 0.959 . S
H1398 C1412 0.929 . S
H1399 C1413 0.931 . S
H1400 C1415 0.930 . S
C1401 H1389 0.930 . S
C1401 C1402 1.399 . S
C1401 C1406 1.399 . S
C1402 C1401 1.399 . S
C1402 C1403 1.376 . S
C1403 H1390 0.930 . S
C1403 C1402 1.376 . S
C1403 C1404 1.388 . S
C1404 H1391 0.930 . S
C1404 C1403 1.388 . S
C1404 C1405 1.390 . S
C1405 C1404 1.390 . S
C1405 C1406 1.394 . S
C1405 C1411 1.465 . S
C1406 C1401 1.399 . S
C1406 C1405 1.394 . S
C1406 C1407 1.516 . S
C1407 C1406 1.516 . S
C1407 C1408 1.502 . S
C1407 C1409 1.561 . S
C1407 C1410 1.526 . S
C1408 H1392 0.959 . S
C1408 H1393 0.959 . S
C1408 H1394 0.961 . S
C1408 C1407 1.502 . S
C1409 H1395 0.960 . S
C1409 H1396 0.961 . S
C1409 H1397 0.959 . S
C1409 C1407 1.561 . S
C1410 C1407 1.526 . S
C1410 C1411 1.396 . S
C1410 C1415 1.390 . S
C1411 C1405 1.465 . S
C1411 C1410 1.396 . S
C1411 C1412 1.399 . S
C1412 H1398 0.929 . S
C1412 C1411 1.399 . S
C1412 C1413 1.385 . S
C1413 H1399 0.931 . S
C1413 C1412 1.385 . S
C1413 C1414 1.389 . S
C1414 C1413 1.389 . S
C1414 C1415 1.387 . S
C1415 H1400 0.930 . S
C1415 C1410 1.390 . S
C1415 C1414 1.387 . S
H1416 C1428 0.930 . S
H1417 C1430 0.930 . S
H1418 C1431 0.930 . S
H1419 C1435 0.959 . S
H1420 C1435 0.959 . S
H1421 C1435 0.961 . S
H1422 C1436 0.960 . S
H1423 C1436 0.961 . S
H1424 C1436 0.959 . S
H1425 C1439 0.929 . S
H1426 C1440 0.931 . S
H1427 C1442 0.930 . S
C1428 H1416 0.930 . S
C1428 C1429 1.399 . S
C1428 C1433 1.399 . S
C1429 C1428 1.399 . S
C1429 C1430 1.376 . S
C1430 H1417 0.930 . S
C1430 C1429 1.376 . S
C1430 C1431 1.388 . S
C1431 H1418 0.930 . S
C1431 C1430 1.388 . S
C1431 C1432 1.390 . S
C1432 C1431 1.390 . S
C1432 C1433 1.394 . S
C1432 C1438 1.465 . S
C1433 C1428 1.399 . S
C1433 C1432 1.394 . S
C1433 C1434 1.516 . S
C1434 C1433 1.516 . S
C1434 C1435 1.502 . S
C1434 C1436 1.561 . S
C1434 C1437 1.526 . S
C1435 H1419 0.959 . S
C1435 H1420 0.959 . S
C1435 H1421 0.961 . S
C1435 C1434 1.502 . S
C1436 H1422 0.960 . S
C1436 H1423 0.961 . S
C1436 H1424 0.959 . S
C1436 C1434 1.561 . S
C1437 C1434 1.526 . S
C1437 C1438 1.396 . S
C1437 C1442 1.390 . S
C1438 C1432 1.465 . S
C1438 C1437 1.396 . S
C1438 C1439 1.399 . S
C1439 H1425 0.929 . S
C1439 C1438 1.399 . S
C1439 C1440 1.385 . S
C1440 H1426 0.931 . S
C1440 C1439 1.385 . S
C1440 C1441 1.389 . S
C1441 C1440 1.389 . S
C1441 C1442 1.387 . S
C1442 H1427 0.930 . S
C1442 C1437 1.390 . S
C1442 C1441 1.387 . S
H1443 C1455 0.930 . S
H1444 C1457 0.930 . S
H1445 C1458 0.930 . S
H1446 C1462 0.959 . S
H1447 C1462 0.959 . S
H1448 C1462 0.961 . S
H1449 C1463 0.960 . S
H1450 C1463 0.961 . S
H1451 C1463 0.959 . S
H1452 C1466 0.929 . S
H1453 C1467 0.931 . S
H1454 C1469 0.930 . S
C1455 H1443 0.930 . S
C1455 C1456 1.399 . S
C1455 C1460 1.399 . S
C1456 C1455 1.399 . S
C1456 C1457 1.376 . S
C1457 H1444 0.930 . S
C1457 C1456 1.376 . S
C1457 C1458 1.388 . S
C1458 H1445 0.930 . S
C1458 C1457 1.388 . S
C1458 C1459 1.390 . S
C1459 C1458 1.390 . S
C1459 C1460 1.394 . S
C1459 C1465 1.465 . S
C1460 C1455 1.399 . S
C1460 C1459 1.394 . S
C1460 C1461 1.516 . S
C1461 C1460 1.516 . S
C1461 C1462 1.502 . S
C1461 C1463 1.561 . S
C1461 C1464 1.526 . S
C1462 H1446 0.959 . S
C1462 H1447 0.959 . S
C1462 H1448 0.961 . S
C1462 C1461 1.502 . S
C1463 H1449 0.960 . S
C1463 H1450 0.961 . S
C1463 H1451 0.959 . S
C1463 C1461 1.561 . S
C1464 C1461 1.526 . S
C1464 C1465 1.396 . S
C1464 C1469 1.390 . S
C1465 C1459 1.465 . S
C1465 C1464 1.396 . S
C1465 C1466 1.399 . S
C1466 H1452 0.929 . S
C1466 C1465 1.399 . S
C1466 C1467 1.385 . S
C1467 H1453 0.931 . S
C1467 C1466 1.385 . S
C1467 C1468 1.389 . S
C1468 C1467 1.389 . S
C1468 C1469 1.387 . S
C1469 H1454 0.930 . S
C1469 C1464 1.390 . S
C1469 C1468 1.387 . S
H1470 C1482 0.930 . S
H1471 C1484 0.930 . S
H1472 C1485 0.930 . S
H1473 C1489 0.959 . S
H1474 C1489 0.959 . S
H1475 C1489 0.961 . S
H1476 C1490 0.960 . S
H1477 C1490 0.961 . S
H1478 C1490 0.959 . S
H1479 C1493 0.929 . S
H1480 C1494 0.931 . S
H1481 C1496 0.930 . S
C1482 H1470 0.930 . S
C1482 C1483 1.399 . S
C1482 C1487 1.399 . S
C1483 C1482 1.399 . S
C1483 C1484 1.376 . S
C1484 H1471 0.930 . S
C1484 C1483 1.376 . S
C1484 C1485 1.388 . S
C1485 H1472 0.930 . S
C1485 C1484 1.388 . S
C1485 C1486 1.390 . S
C1486 C1485 1.390 . S
C1486 C1487 1.394 . S
C1486 C1492 1.465 . S
C1487 C1482 1.399 . S
C1487 C1486 1.394 . S
C1487 C1488 1.516 . S
C1488 C1487 1.516 . S
C1488 C1489 1.502 . S
C1488 C1490 1.561 . S
C1488 C1491 1.526 . S
C1489 H1473 0.959 . S
C1489 H1474 0.959 . S
C1489 H1475 0.961 . S
C1489 C1488 1.502 . S
C1490 H1476 0.960 . S
C1490 H1477 0.961 . S
C1490 H1478 0.959 . S
C1490 C1488 1.561 . S
C1491 C1488 1.526 . S
C1491 C1492 1.396 . S
C1491 C1496 1.390 . S
C1492 C1486 1.465 . S
C1492 C1491 1.396 . S
C1492 C1493 1.399 . S
C1493 H1479 0.929 . S
C1493 C1492 1.399 . S
C1493 C1494 1.385 . S
C1494 H1480 0.931 . S
C1494 C1493 1.385 . S
C1494 C1495 1.389 . S
C1495 C1494 1.389 . S
C1495 C1496 1.387 . S
C1496 H1481 0.930 . S
C1496 C1491 1.390 . S
C1496 C1495 1.387 . S
H1497 C1509 0.930 . S
H1498 C1511 0.930 . S
H1499 C1512 0.930 . S
H1500 C1516 0.959 . S
H1501 C1516 0.959 . S
H1502 C1516 0.961 . S
H1503 C1517 0.960 . S
H1504 C1517 0.961 . S
H1505 C1517 0.959 . S
H1506 C1520 0.929 . S
H1507 C1521 0.931 . S
H1508 C1523 0.930 . S
C1509 H1497 0.930 . S
C1509 C1510 1.399 . S
C1509 C1514 1.399 . S
C1510 C1509 1.399 . S
C1510 C1511 1.376 . S
C1511 H1498 0.930 . S
C1511 C1510 1.376 . S
C1511 C1512 1.388 . S
C1512 H1499 0.930 . S
C1512 C1511 1.388 . S
C1512 C1513 1.390 . S
C1513 C1512 1.390 . S
C1513 C1514 1.394 . S
C1513 C1519 1.465 . S
C1514 C1509 1.399 . S
C1514 C1513 1.394 . S
C1514 C1515 1.516 . S
C1515 C1514 1.516 . S
C1515 C1516 1.502 . S
C1515 C1517 1.561 . S
C1515 C1518 1.526 . S
C1516 H1500 0.959 . S
C1516 H1501 0.959 . S
C1516 H1502 0.961 . S
C1516 C1515 1.502 . S
C1517 H1503 0.960 . S
C1517 H1504 0.961 . S
C1517 H1505 0.959 . S
C1517 C1515 1.561 . S
C1518 C1515 1.526 . S
C1518 C1519 1.396 . S
C1518 C1523 1.390 . S
C1519 C1513 1.465 . S
C1519 C1518 1.396 . S
C1519 C1520 1.399 . S
C1520 H1506 0.929 . S
C1520 C1519 1.399 . S
C1520 C1521 1.385 . S
C1521 H1507 0.931 . S
C1521 C1520 1.385 . S
C1521 C1522 1.389 . S
C1522 C1521 1.389 . S
C1522 C1523 1.387 . S
C1523 H1508 0.930 . S
C1523 C1518 1.390 . S
C1523 C1522 1.387 . S
H1524 C1536 0.930 . S
H1525 C1538 0.930 . S
H1526 C1539 0.930 . S
H1527 C1543 0.959 . S
H1528 C1543 0.959 . S
H1529 C1543 0.961 . S
H1530 C1544 0.960 . S
H1531 C1544 0.961 . S
H1532 C1544 0.959 . S
H1533 C1547 0.929 . S
H1534 C1548 0.931 . S
H1535 C1550 0.930 . S
C1536 H1524 0.930 . S
C1536 C1537 1.399 . S
C1536 C1541 1.399 . S
C1537 C1536 1.399 . S
C1537 C1538 1.376 . S
C1538 H1525 0.930 . S
C1538 C1537 1.376 . S
C1538 C1539 1.388 . S
C1539 H1526 0.930 . S
C1539 C1538 1.388 . S
C1539 C1540 1.390 . S
C1540 C1539 1.390 . S
C1540 C1541 1.394 . S
C1540 C1546 1.465 . S
C1541 C1536 1.399 . S
C1541 C1540 1.394 . S
C1541 C1542 1.516 . S
C1542 C1541 1.516 . S
C1542 C1543 1.502 . S
C1542 C1544 1.561 . S
C1542 C1545 1.526 . S
C1543 H1527 0.959 . S
C1543 H1528 0.959 . S
C1543 H1529 0.961 . S
C1543 C1542 1.502 . S
C1544 H1530 0.960 . S
C1544 H1531 0.961 . S
C1544 H1532 0.959 . S
C1544 C1542 1.561 . S
C1545 C1542 1.526 . S
C1545 C1546 1.396 . S
C1545 C1550 1.390 . S
C1546 C1540 1.465 . S
C1546 C1545 1.396 . S
C1546 C1547 1.399 . S
C1547 H1533 0.929 . S
C1547 C1546 1.399 . S
C1547 C1548 1.385 . S
C1548 H1534 0.931 . S
C1548 C1547 1.385 . S
C1548 C1549 1.389 . S
C1549 C1548 1.389 . S
C1549 C1550 1.387 . S
C1550 H1535 0.930 . S
C1550 C1545 1.390 . S
C1550 C1549 1.387 . S
H1551 C1563 0.930 . S
H1552 C1565 0.930 . S
H1553 C1566 0.930 . S
H1554 C1570 0.959 . S
H1555 C1570 0.959 . S
H1556 C1570 0.961 . S
H1557 C1571 0.960 . S
H1558 C1571 0.961 . S
H1559 C1571 0.959 . S
H1560 C1574 0.929 . S
H1561 C1575 0.931 . S
H1562 C1577 0.930 . S
C1563 H1551 0.930 . S
C1563 C1564 1.399 . S
C1563 C1568 1.399 . S
C1564 C1563 1.399 . S
C1564 C1565 1.376 . S
C1565 H1552 0.930 . S
C1565 C1564 1.376 . S
C1565 C1566 1.388 . S
C1566 H1553 0.930 . S
C1566 C1565 1.388 . S
C1566 C1567 1.390 . S
C1567 C1566 1.390 . S
C1567 C1568 1.394 . S
C1567 C1573 1.465 . S
C1568 C1563 1.399 . S
C1568 C1567 1.394 . S
C1568 C1569 1.516 . S
C1569 C1568 1.516 . S
C1569 C1570 1.502 . S
C1569 C1571 1.561 . S
C1569 C1572 1.526 . S
C1570 H1554 0.959 . S
C1570 H1555 0.959 . S
C1570 H1556 0.961 . S
C1570 C1569 1.502 . S
C1571 H1557 0.960 . S
C1571 H1558 0.961 . S
C1571 H1559 0.959 . S
C1571 C1569 1.561 . S
C1572 C1569 1.526 . S
C1572 C1573 1.396 . S
C1572 C1577 1.390 . S
C1573 C1567 1.465 . S
C1573 C1572 1.396 . S
C1573 C1574 1.399 . S
C1574 H1560 0.929 . S
C1574 C1573 1.399 . S
C1574 C1575 1.385 . S
C1575 H1561 0.931 . S
C1575 C1574 1.385 . S
C1575 C1576 1.389 . S
C1576 C1575 1.389 . S
C1576 C1577 1.387 . S
C1577 H1562 0.930 . S
C1577 C1572 1.390 . S
C1577 C1576 1.387 . S
H1578 C1590 0.930 . S
H1579 C1592 0.930 . S
H1580 C1593 0.930 . S
H1581 C1597 0.959 . S
H1582 C1597 0.959 . S
H1583 C1597 0.961 . S
H1584 C1598 0.960 . S
H1585 C1598 0.961 . S
H1586 C1598 0.959 . S
H1587 C1601 0.929 . S
H1588 C1602 0.931 . S
H1589 C1604 0.930 . S
C1590 H1578 0.930 . S
C1590 C1591 1.399 . S
C1590 C1595 1.399 . S
C1591 C1590 1.399 . S
C1591 C1592 1.376 . S
C1592 H1579 0.930 . S
C1592 C1591 1.376 . S
C1592 C1593 1.388 . S
C1593 H1580 0.930 . S
C1593 C1592 1.388 . S
C1593 C1594 1.390 . S
C1594 C1593 1.390 . S
C1594 C1595 1.394 . S
C1594 C1600 1.465 . S
C1595 C1590 1.399 . S
C1595 C1594 1.394 . S
C1595 C1596 1.516 . S
C1596 C1595 1.516 . S
C1596 C1597 1.502 . S
C1596 C1598 1.561 . S
C1596 C1599 1.526 . S
C1597 H1581 0.959 . S
C1597 H1582 0.959 . S
C1597 H1583 0.961 . S
C1597 C1596 1.502 . S
C1598 H1584 0.960 . S
C1598 H1585 0.961 . S
C1598 H1586 0.959 . S
C1598 C1596 1.561 . S
C1599 C1596 1.526 . S
C1599 C1600 1.396 . S
C1599 C1604 1.390 . S
C1600 C1594 1.465 . S
C1600 C1599 1.396 . S
C1600 C1601 1.399 . S
C1601 H1587 0.929 . S
C1601 C1600 1.399 . S
C1601 C1602 1.385 . S
C1602 H1588 0.931 . S
C1602 C1601 1.385 . S
C1602 C1603 1.389 . S
C1603 C1602 1.389 . S
C1603 C1604 1.387 . S
C1604 H1589 0.930 . S
C1604 C1599 1.390 . S
C1604 C1603 1.387 . S
H1605 C1617 0.930 . S
H1606 C1619 0.930 . S
H1607 C1620 0.930 . S
H1608 C1624 0.959 . S
H1609 C1624 0.959 . S
H1610 C1624 0.961 . S
H1611 C1625 0.960 . S
H1612 C1625 0.961 . S
H1613 C1625 0.959 . S
H1614 C1628 0.929 . S
H1615 C1629 0.931 . S
H1616 C1631 0.930 . S
C1617 H1605 0.930 . S
C1617 C1618 1.399 . S
C1617 C1622 1.399 . S
C1618 C1617 1.399 . S
C1618 C1619 1.376 . S
C1619 H1606 0.930 . S
C1619 C1618 1.376 . S
C1619 C1620 1.388 . S
C1620 H1607 0.930 . S
C1620 C1619 1.388 . S
C1620 C1621 1.390 . S
C1621 C1620 1.390 . S
C1621 C1622 1.394 . S
C1621 C1627 1.465 . S
C1622 C1617 1.399 . S
C1622 C1621 1.394 . S
C1622 C1623 1.516 . S
C1623 C1622 1.516 . S
C1623 C1624 1.502 . S
C1623 C1625 1.561 . S
C1623 C1626 1.526 . S
C1624 H1608 0.959 . S
C1624 H1609 0.959 . S
C1624 H1610 0.961 . S
C1624 C1623 1.502 . S
C1625 H1611 0.960 . S
C1625 H1612 0.961 . S
C1625 H1613 0.959 . S
C1625 C1623 1.561 . S
C1626 C1623 1.526 . S
C1626 C1627 1.396 . S
C1626 C1631 1.390 . S
C1627 C1621 1.465 . S
C1627 C1626 1.396 . S
C1627 C1628 1.399 . S
C1628 H1614 0.929 . S
C1628 C1627 1.399 . S
C1628 C1629 1.385 . S
C1629 H1615 0.931 . S
C1629 C1628 1.385 . S
C1629 C1630 1.389 . S
C1630 C1629 1.389 . S
C1630 C1631 1.387 . S
C1631 H1616 0.930 . S
C1631 C1626 1.390 . S
C1631 C1630 1.387 . S
C349 C165 1.361 . S
C361 C4 1.350 . S
C376 C18 1.400 . S
C388 C123 1.398 . S
C403 C32 1.388 . S
C415 C137 1.400 . S
C430 C46 1.335 . S
C442 C151 1.343 . S
C457 C193 1.379 . S
C469 C60 1.366 . S
C484 C74 1.369 . S
C496 C207 1.368 . S
C511 C221 1.351 . S
C523 C88 1.342 . S
C538 C179 1.344 . S
C550 C102 1.342 . S
C565 C81 1.434 . S
C577 C116 1.428 . S
C592 C95 1.389 . S
C604 C130 1.391 . S
C619 C144 1.386 . S
C631 C109 1.399 . S
C646 C67 1.372 . S
C658 C158 1.360 . S
C673 C53 1.434 . S
C685 C172 1.429 . S
C700 C186 1.337 . S
C712 C11 1.348 . S
C727 C200 1.397 . S
C739 C25 1.408 . S
C754 C214 1.371 . S
C766 C39 1.371 . S
C781 C228 1.362 . S
C793 C333 1.362 . S
C808 C291 1.384 . S
C820 C242 1.371 . S
C835 C256 1.364 . S
C847 C249 1.364 . S
C862 C270 1.388 . S
C874 C263 1.400 . S
C889 C277 1.343 . S
C901 C284 1.336 . S
C916 C298 1.382 . S
C928 C319 1.395 . S
C943 C235 1.342 . S
C955 C312 1.337 . S
C970 C305 1.429 . S
C982 C326 1.420 . S
C997 C12 1.301 . S
C1009 C96 1.295 . S
C1024 C26 1.296 . S
C1036 C110 1.311 . S
C1051 C40 1.308 . S
C1063 C68 1.326 . S
C1078 C82 1.334 . S
C1090 C54 1.319 . S
C1105 C152 1.326 . S
C1117 C124 1.337 . S
C1132 C138 1.328 . S
C1144 C166 1.311 . S
C1159 C180 1.309 . S
C1171 C208 1.297 . S
C1186 C222 1.329 . S
C1198 C194 1.337 . S
C1213 C250 1.334 . S
C1225 C236 1.318 . S
C1240 C264 1.321 . S
C1252 C334 1.304 . S
C1267 C278 1.295 . S
C1279 C306 1.306 . S
C1294 C292 1.324 . S
C1306 C320 1.336 . S
C1321 C5 0.997 . S
C1333 C75 0.841 . S
C1348 C19 0.897 . S
C1360 C89 1.015 . S
C1375 C33 0.945 . S
C1387 C103 0.811 . S
C1402 C61 0.811 . S
C1414 C47 0.913 . S
C1429 C117 0.816 . S
C1441 C327 0.898 . S
C1456 C131 0.970 . S
C1468 C299 0.818 . S
C1483 C313 1.006 . S
C1495 C145 0.950 . S
C1510 C159 0.965 . S
C1522 C229 0.816 . S
C1537 C285 1.009 . S
C1549 C173 0.861 . S
C1564 C243 0.954 . S
C1576 C187 1.003 . S
C1591 C201 0.977 . S
C1603 C257 0.823 . S
C1618 C271 0.929 . S
C1630 C215 0.811 . S
