# Generated by pormake.
# Topology wiu, (6)-cn, num edge types: 1
# Building blocks:
#     Node 0, Type 0, BuildingBlock: VOLQOD_clean_sbu_1, # of connection points: 6
#     Node 1, Type 0, BuildingBlock: VOLQOD_clean_sbu_1, # of connection points: 6
#     Node 2, Type 0, BuildingBlock: VOLQOD_clean_sbu_1, # of connection points: 6
#     Node 3, Type 0, BuildingBlock: VOLQOD_clean_sbu_1, # of connection points: 6
#     Node 4, Type 0, BuildingBlock: VOLQOD_clean_sbu_1, # of connection points: 6
#     Node 5, Type 0, BuildingBlock: VOLQOD_clean_sbu_1, # of connection points: 6
#     Node 6, Type 0, BuildingBlock: VOLQOD_clean_sbu_1, # of connection points: 6
#     Node 7, Type 0, BuildingBlock: VOLQOD_clean_sbu_1, # of connection points: 6
#     Node 8, Type 0, BuildingBlock: VOLQOD_clean_sbu_1, # of connection points: 6
#     Node 9, Type 0, BuildingBlock: VOLQOD_clean_sbu_1, # of connection points: 6
#     Node 10, Type 0, BuildingBlock: VOLQOD_clean_sbu_1, # of connection points: 6
#     Node 11, Type 0, BuildingBlock: VOLQOD_clean_sbu_1, # of connection points: 6
#     Node 12, Type 0, BuildingBlock: VOLQOD_clean_sbu_1, # of connection points: 6
#     Node 13, Type 0, BuildingBlock: VOLQOD_clean_sbu_1, # of connection points: 6
#     Node 14, Type 0, BuildingBlock: VOLQOD_clean_sbu_1, # of connection points: 6
#     Node 15, Type 0, BuildingBlock: VOLQOD_clean_sbu_1, # of connection points: 6
#     Edge 16, Type (0, 0), BuildingBlock: UVAHIK_clean_linker_0, # of connection points: 2
#     Edge 17, Type (0, 0), BuildingBlock: UVAHIK_clean_linker_0, # of connection points: 2
#     Edge 18, Type (0, 0), BuildingBlock: UVAHIK_clean_linker_0, # of connection points: 2
#     Edge 19, Type (0, 0), BuildingBlock: UVAHIK_clean_linker_0, # of connection points: 2
#     Edge 20, Type (0, 0), BuildingBlock: UVAHIK_clean_linker_0, # of connection points: 2
#     Edge 21, Type (0, 0), BuildingBlock: UVAHIK_clean_linker_0, # of connection points: 2
#     Edge 22, Type (0, 0), BuildingBlock: UVAHIK_clean_linker_0, # of connection points: 2
#     Edge 23, Type (0, 0), BuildingBlock: UVAHIK_clean_linker_0, # of connection points: 2
#     Edge 24, Type (0, 0), BuildingBlock: UVAHIK_clean_linker_0, # of connection points: 2
#     Edge 25, Type (0, 0), BuildingBlock: UVAHIK_clean_linker_0, # of connection points: 2
#     Edge 26, Type (0, 0), BuildingBlock: UVAHIK_clean_linker_0, # of connection points: 2
#     Edge 27, Type (0, 0), BuildingBlock: UVAHIK_clean_linker_0, # of connection points: 2
#     Edge 28, Type (0, 0), BuildingBlock: UVAHIK_clean_linker_0, # of connection points: 2
#     Edge 29, Type (0, 0), BuildingBlock: UVAHIK_clean_linker_0, # of connection points: 2
#     Edge 30, Type (0, 0), BuildingBlock: UVAHIK_clean_linker_0, # of connection points: 2
#     Edge 31, Type (0, 0), BuildingBlock: UVAHIK_clean_linker_0, # of connection points: 2
#     Edge 32, Type (0, 0), BuildingBlock: UVAHIK_clean_linker_0, # of connection points: 2
#     Edge 33, Type (0, 0), BuildingBlock: UVAHIK_clean_linker_0, # of connection points: 2
#     Edge 34, Type (0, 0), BuildingBlock: UVAHIK_clean_linker_0, # of connection points: 2
#     Edge 35, Type (0, 0), BuildingBlock: UVAHIK_clean_linker_0, # of connection points: 2
#     Edge 36, Type (0, 0), BuildingBlock: UVAHIK_clean_linker_0, # of connection points: 2
#     Edge 37, Type (0, 0), BuildingBlock: UVAHIK_clean_linker_0, # of connection points: 2
#     Edge 38, Type (0, 0), BuildingBlock: UVAHIK_clean_linker_0, # of connection points: 2
#     Edge 39, Type (0, 0), BuildingBlock: UVAHIK_clean_linker_0, # of connection points: 2
#     Edge 40, Type (0, 0), BuildingBlock: UVAHIK_clean_linker_0, # of connection points: 2
#     Edge 41, Type (0, 0), BuildingBlock: UVAHIK_clean_linker_0, # of connection points: 2
#     Edge 42, Type (0, 0), BuildingBlock: UVAHIK_clean_linker_0, # of connection points: 2
#     Edge 43, Type (0, 0), BuildingBlock: UVAHIK_clean_linker_0, # of connection points: 2
#     Edge 44, Type (0, 0), BuildingBlock: UVAHIK_clean_linker_0, # of connection points: 2
#     Edge 45, Type (0, 0), BuildingBlock: UVAHIK_clean_linker_0, # of connection points: 2
#     Edge 46, Type (0, 0), BuildingBlock: UVAHIK_clean_linker_0, # of connection points: 2
#     Edge 47, Type (0, 0), BuildingBlock: UVAHIK_clean_linker_0, # of connection points: 2
#     Edge 48, Type (0, 0), BuildingBlock: UVAHIK_clean_linker_0, # of connection points: 2
#     Edge 49, Type (0, 0), BuildingBlock: UVAHIK_clean_linker_0, # of connection points: 2
#     Edge 50, Type (0, 0), BuildingBlock: UVAHIK_clean_linker_0, # of connection points: 2
#     Edge 51, Type (0, 0), BuildingBlock: UVAHIK_clean_linker_0, # of connection points: 2
#     Edge 52, Type (0, 0), BuildingBlock: UVAHIK_clean_linker_0, # of connection points: 2
#     Edge 53, Type (0, 0), BuildingBlock: UVAHIK_clean_linker_0, # of connection points: 2
#     Edge 54, Type (0, 0), BuildingBlock: UVAHIK_clean_linker_0, # of connection points: 2
#     Edge 55, Type (0, 0), BuildingBlock: UVAHIK_clean_linker_0, # of connection points: 2
#     Edge 56, Type (0, 0), BuildingBlock: UVAHIK_clean_linker_0, # of connection points: 2
#     Edge 57, Type (0, 0), BuildingBlock: UVAHIK_clean_linker_0, # of connection points: 2
#     Edge 58, Type (0, 0), BuildingBlock: UVAHIK_clean_linker_0, # of connection points: 2
#     Edge 59, Type (0, 0), BuildingBlock: UVAHIK_clean_linker_0, # of connection points: 2
#     Edge 60, Type (0, 0), BuildingBlock: UVAHIK_clean_linker_0, # of connection points: 2
#     Edge 61, Type (0, 0), BuildingBlock: UVAHIK_clean_linker_0, # of connection points: 2
#     Edge 62, Type (0, 0), BuildingBlock: UVAHIK_clean_linker_0, # of connection points: 2
#     Edge 63, Type (0, 0), BuildingBlock: UVAHIK_clean_linker_0, # of connection points: 2
# Relax obj value: 0.180
# Max RMSD: 0.175
# Mean RMSD: 0.175
data_MOF--net-wiu--node1-VOLQOD_clean_sbu_1--edge1-UVAHIK_clean_linker_0
_symmetry_space_group_name_H-M    P1
_symmetry_Int_Tables_number       1
_symmetry_cell_setting            triclinic
loop_
_symmetry_equiv_pos_as_xyz
'x, y, z'
_cell_length_a     42.014297
_cell_length_b     42.038283
_cell_length_c     72.690258
_cell_angle_alpha  89.9796
_cell_angle_beta   89.977301
_cell_angle_gamma 89.998389
loop_
_atom_site_label
_atom_site_type_symbol
_atom_site_fract_x
_atom_site_fract_y
_atom_site_fract_z
_atom_type_partial_charge
O0 O 0.35946 0.20102 0.03557 0.0
Zn1 Zn 0.32098 0.18756 0.0497 0.0
O2 O 0.33028 0.14893 0.06355 0.0
Zn3 Zn 0.31297 0.1114 0.05094 0.0
Zn4 Zn 0.37608 0.14378 0.0659 0.0
Zn5 Zn 0.3118 0.15439 0.08772 0.0
O6 O 0.28232 0.08783 0.06821 0.0
O7 O 0.2776 0.12172 0.09167 0.0
O8 O 0.2872 0.17905 0.03112 0.0
O9 O 0.28437 0.12621 0.03036 0.0
O10 O 0.34928 0.0832 0.04003 0.0
O11 O 0.39105 0.10288 0.05487 0.0
O12 O 0.39102 0.14459 0.09226 0.0
O13 O 0.30602 0.22386 0.06591 0.0
O14 O 0.34485 0.1482 0.10702 0.0
O15 O 0.29504 0.19892 0.09203 0.0
C16 C 0.38884 0.19478 0.0377 0.0
C17 C 0.26933 0.0963 0.08337 0.0
C18 C 0.37902 0.08267 0.0439 0.0
C19 C 0.27568 0.15348 0.02457 0.0
C20 C 0.37501 0.14564 0.10712 0.0
C21 C 0.29563 0.22422 0.08238 0.0
O22 O 0.39846 0.17569 0.05012 0.0
O23 O 0.56624 0.60527 0.27873 0.0
Zn24 Zn 0.57862 0.56596 0.29267 0.0
O25 O 0.61701 0.57443 0.30673 0.0
Zn26 Zn 0.6548 0.55919 0.29334 0.0
Zn27 Zn 0.62077 0.61986 0.31071 0.0
Zn28 Zn 0.61149 0.55358 0.33019 0.0
O29 O 0.67819 0.52628 0.30953 0.0
O30 O 0.64456 0.5196 0.33302 0.0
O31 O 0.58741 0.53267 0.27391 0.0
O32 O 0.64013 0.53435 0.27094 0.0
O33 O 0.68317 0.59714 0.28446 0.0
O34 O 0.66089 0.63693 0.29983 0.0
O35 O 0.62013 0.63212 0.33751 0.0
O36 O 0.54176 0.55091 0.3085 0.0
O37 O 0.61746 0.5845 0.35063 0.0
O38 O 0.56687 0.53658 0.33401 0.0
C39 C 0.571 0.63448 0.2824 0.0
C40 C 0.66996 0.51215 0.32442 0.0
C41 C 0.68224 0.62661 0.28896 0.0
C42 C 0.6129 0.52414 0.26586 0.0
C43 C 0.61952 0.6146 0.35179 0.0
C44 C 0.54141 0.53881 0.32458 0.0
O45 O 0.58807 0.64297 0.29602 0.0
O46 O 0.15875 0.8162 0.53596 0.0
Zn47 Zn 0.19804 0.8293 0.54935 0.0
O48 O 0.18963 0.86791 0.56308 0.0
Zn49 Zn 0.20456 0.90538 0.54931 0.0
Zn50 Zn 0.14413 0.87177 0.56749 0.0
Zn51 Zn 0.21166 0.8626 0.58613 0.0
O52 O 0.23794 0.92926 0.56491 0.0
O53 O 0.24513 0.89615 0.58856 0.0
O54 O 0.23089 0.83778 0.5304 0.0
O55 O 0.22901 0.89035 0.52685 0.0
O56 O 0.16631 0.93339 0.54064 0.0
O57 O 0.12686 0.9122 0.55687 0.0
O58 O 0.13275 0.87023 0.5946 0.0
O59 O 0.21368 0.79284 0.56506 0.0
O60 O 0.18124 0.86758 0.6067 0.0
O61 O 0.22988 0.81845 0.58996 0.0
C62 C 0.12951 0.82136 0.53934 0.0
C63 C 0.25238 0.92136 0.57975 0.0
C64 C 0.13701 0.93299 0.54557 0.0
C65 C 0.2393 0.86301 0.52206 0.0
C66 C 0.1512 0.86919 0.6085 0.0
C67 C 0.22702 0.79282 0.58078 0.0
O68 O 0.12076 0.8393 0.55253 0.0
O69 O 0.95579 0.42283 0.77884 0.0
Zn70 Zn 0.93944 0.45926 0.79373 0.0
O71 O 0.90052 0.44682 0.80634 0.0
Zn72 Zn 0.86291 0.4623 0.79278 0.0
Zn73 Zn 0.89805 0.40085 0.80807 0.0
Zn74 Zn 0.90398 0.46454 0.8308 0.0
O75 O 0.83914 0.49451 0.80919 0.0
O76 O 0.87017 0.49759 0.83407 0.0
O77 O 0.93002 0.4936 0.77572 0.0
O78 O 0.878 0.48815 0.77079 0.0
O79 O 0.83444 0.42464 0.78334 0.0
O80 O 0.85746 0.38422 0.79774 0.0
O81 O 0.90055 0.38474 0.83428 0.0
O82 O 0.97428 0.47445 0.81076 0.0
O83 O 0.89793 0.43056 0.84949 0.0
O84 O 0.94767 0.48264 0.83661 0.0
C85 C 0.94971 0.39326 0.77955 0.0
C86 C 0.84594 0.50663 0.82488 0.0
C87 C 0.83562 0.39497 0.78738 0.0
C88 C 0.90489 0.50057 0.76684 0.0
C89 C 0.89865 0.40032 0.84927 0.0
C90 C 0.97349 0.48363 0.82745 0.0
O91 O 0.92987 0.38158 0.79094 0.0
O92 O 0.67261 0.81924 0.95224 0.0
Zn93 Zn 0.70685 0.83586 0.93586 0.0
O94 O 0.69094 0.87223 0.92241 0.0
Zn95 Zn 0.70386 0.912 0.93472 0.0
Zn96 Zn 0.64494 0.86955 0.92138 0.0
Zn97 Zn 0.70837 0.86831 0.89796 0.0
O98 O 0.73399 0.93665 0.91749 0.0
O99 O 0.73999 0.90333 0.89381 0.0
O100 O 0.74198 0.84912 0.95233 0.0
O101 O 0.73182 0.90057 0.95658 0.0
O102 O 0.66446 0.9377 0.94449 0.0
O103 O 0.62568 0.90629 0.93451 0.0
O104 O 0.62812 0.86938 0.89523 0.0
O105 O 0.72227 0.80028 0.91951 0.0
O106 O 0.67365 0.87204 0.87961 0.0
O107 O 0.72787 0.82505 0.89283 0.0
C108 C 0.64267 0.8186 0.94994 0.0
C109 C 0.74713 0.929 0.9022 0.0
C110 C 0.63481 0.93075 0.94331 0.0
C111 C 0.74708 0.87524 0.96062 0.0
C112 C 0.64343 0.87109 0.88012 0.0
C113 C 0.73037 0.80005 0.90264 0.0
O114 O 0.62906 0.83336 0.93682 0.0
O115 O 0.45476 0.41167 0.7056 0.0
Zn116 Zn 0.44165 0.45035 0.6917 0.0
O117 O 0.40333 0.44149 0.67765 0.0
Zn118 Zn 0.36548 0.45796 0.69051 0.0
Zn119 Zn 0.39872 0.39578 0.67451 0.0
Zn120 Zn 0.40955 0.46132 0.6539 0.0
O121 O 0.34196 0.48907 0.67341 0.0
O122 O 0.37589 0.49446 0.64996 0.0
O123 O 0.43275 0.48351 0.71042 0.0
O124 O 0.37992 0.48555 0.71184 0.0
O125 O 0.3372 0.42077 0.70056 0.0
O126 O 0.35801 0.37999 0.68535 0.0
O127 O 0.40014 0.38213 0.64783 0.0
O128 O 0.47843 0.46573 0.67606 0.0
O129 O 0.40538 0.42907 0.63407 0.0
O130 O 0.45388 0.47936 0.65027 0.0
C131 C 0.44904 0.38234 0.70298 0.0
C132 C 0.35026 0.5022 0.65825 0.0
C133 C 0.3373 0.39114 0.69636 0.0
C134 C 0.40729 0.49437 0.71748 0.0
C135 C 0.40259 0.399 0.63335 0.0
C136 C 0.47908 0.47767 0.65995 0.0
O137 O 0.43064 0.37297 0.69015 0.0
O138 O 0.85648 0.2059 0.45311 0.0
Zn139 Zn 0.81848 0.19053 0.43907 0.0
O140 O 0.82901 0.15126 0.42627 0.0
Zn141 Zn 0.81318 0.1141 0.44012 0.0
Zn142 Zn 0.87486 0.14781 0.42373 0.0
Zn143 Zn 0.81013 0.15484 0.40209 0.0
O144 O 0.78059 0.09019 0.42401 0.0
O145 O 0.77652 0.12142 0.39927 0.0
O146 O 0.78481 0.18221 0.45769 0.0
O147 O 0.78778 0.12987 0.46207 0.0
O148 O 0.85057 0.08561 0.44973 0.0
O149 O 0.89129 0.10802 0.43527 0.0
O150 O 0.88949 0.14769 0.39731 0.0
O151 O 0.80302 0.22555 0.42213 0.0
O152 O 0.84299 0.14797 0.38277 0.0
O153 O 0.79253 0.19876 0.39661 0.0
C154 C 0.88604 0.20049 0.451 0.0
C155 C 0.76785 0.0971 0.4085 0.0
C156 C 0.88032 0.0866 0.44585 0.0
C157 C 0.77677 0.15719 0.46637 0.0
C158 C 0.87322 0.1468 0.38255 0.0
C159 C 0.7927 0.2247 0.40566 0.0
O160 O 0.89619 0.18116 0.43885 0.0
O161 O 0.06434 0.59833 0.20733 0.0
Zn162 Zn 0.08008 0.56184 0.19218 0.0
O163 O 0.11863 0.5741 0.17913 0.0
Zn164 Zn 0.15656 0.55862 0.19233 0.0
Zn165 Zn 0.12116 0.62006 0.17748 0.0
Zn166 Zn 0.11458 0.55638 0.15467 0.0
O167 O 0.18024 0.52713 0.17553 0.0
O168 O 0.14846 0.52327 0.15102 0.0
O169 O 0.0899 0.52722 0.20995 0.0
O170 O 0.14216 0.53214 0.21417 0.0
O171 O 0.18497 0.59607 0.20191 0.0
O172 O 0.16179 0.63665 0.18778 0.0
O173 O 0.11862 0.63622 0.15135 0.0
O174 O 0.04479 0.54684 0.17543 0.0
O175 O 0.12042 0.59053 0.13597 0.0
O176 O 0.07058 0.53844 0.14931 0.0
C177 C 0.07024 0.62792 0.20636 0.0
C178 C 0.17315 0.51472 0.15997 0.0
C179 C 0.18371 0.62579 0.19804 0.0
C180 C 0.11535 0.51983 0.2184 0.0
C181 C 0.12011 0.62079 0.13629 0.0
C182 C 0.04504 0.5376 0.15875 0.0
O183 O 0.08957 0.63948 0.19465 0.0
O184 O 0.844 0.70458 0.52941 0.0
Zn185 Zn 0.81031 0.68713 0.54594 0.0
O186 O 0.8272 0.65153 0.55992 0.0
Zn187 Zn 0.8138 0.61106 0.54865 0.0
Zn188 Zn 0.87334 0.65346 0.56029 0.0
Zn189 Zn 0.81102 0.6569 0.58466 0.0
O190 O 0.78368 0.58807 0.56661 0.0
O191 O 0.77939 0.62228 0.58998 0.0
O192 O 0.77554 0.6724 0.52949 0.0
O193 O 0.78609 0.62077 0.5265 0.0
O194 O 0.85272 0.58384 0.53985 0.0
O195 O 0.8924 0.61373 0.55013 0.0
O196 O 0.89107 0.65816 0.58604 0.0
O197 O 0.794 0.72301 0.56178 0.0
O198 O 0.84667 0.65397 0.60255 0.0
O199 O 0.79164 0.70048 0.58926 0.0
C200 C 0.87414 0.70293 0.53027 0.0
C201 C 0.77144 0.59643 0.58201 0.0
C202 C 0.88259 0.58888 0.54195 0.0
C203 C 0.77076 0.64568 0.52178 0.0
C204 C 0.8768 0.6563 0.60148 0.0
C205 C 0.78741 0.72449 0.57885 0.0
O206 O 0.88849 0.68645 0.54241 0.0
O207 O 0.07135 0.1119 0.78569 0.0
Zn208 Zn 0.08435 0.07366 0.79994 0.0
O209 O 0.12115 0.08365 0.81511 0.0
Zn210 Zn 0.16054 0.068 0.8036 0.0
Zn211 Zn 0.12425 0.12956 0.81827 0.0
Zn212 Zn 0.11347 0.06368 0.83864 0.0
O213 O 0.18296 0.03694 0.82121 0.0
O214 O 0.14689 0.03058 0.84345 0.0
O215 O 0.09584 0.04092 0.78141 0.0
O216 O 0.14879 0.04031 0.78187 0.0
O217 O 0.18884 0.10577 0.79445 0.0
O218 O 0.16562 0.1463 0.8087 0.0
O219 O 0.11972 0.14331 0.84486 0.0
O220 O 0.04661 0.05756 0.81456 0.0
O221 O 0.11574 0.09607 0.85841 0.0
O222 O 0.06909 0.04536 0.8412 0.0
C223 C 0.0761 0.14141 0.78831 0.0
C224 C 0.17334 0.02325 0.83594 0.0
C225 C 0.18763 0.13545 0.79845 0.0
C226 C 0.12231 0.03087 0.77525 0.0
C227 C 0.11706 0.12625 0.85926 0.0
C228 C 0.04475 0.04621 0.83078 0.0
O229 O 0.09327 0.15141 0.80154 0.0
O230 O 0.67248 0.31488 0.02887 0.0
Zn231 Zn 0.70806 0.33147 0.04443 0.0
O232 O 0.69402 0.36908 0.05784 0.0
Zn233 Zn 0.70904 0.40807 0.04548 0.0
Zn234 Zn 0.64792 0.37005 0.05897 0.0
Zn235 Zn 0.71071 0.36444 0.0825 0.0
O236 O 0.74095 0.43071 0.06264 0.0
O237 O 0.74371 0.39806 0.08681 0.0
O238 O 0.74241 0.34322 0.02683 0.0
O239 O 0.73511 0.3953 0.02312 0.0
O240 O 0.67107 0.43676 0.03664 0.0
O241 O 0.63061 0.4107 0.04916 0.0
O242 O 0.63085 0.36603 0.08486 0.0
O243 O 0.72367 0.29593 0.06088 0.0
O244 O 0.67586 0.36947 0.10083 0.0
O245 O 0.72868 0.32049 0.08766 0.0
C246 C 0.64267 0.3198 0.02953 0.0
C247 C 0.75288 0.42289 0.07822 0.0
C248 C 0.64121 0.43407 0.03994 0.0
C249 C 0.74841 0.36917 0.01852 0.0
C250 C 0.64564 0.36798 0.10012 0.0
C251 C 0.73127 0.29554 0.07784 0.0
O252 O 0.63008 0.33852 0.0412 0.0
O253 O 0.45264 0.9112 0.28504 0.0
Zn254 Zn 0.43857 0.94813 0.30047 0.0
O255 O 0.40103 0.93639 0.31449 0.0
Zn256 Zn 0.3623 0.95147 0.30194 0.0
Zn257 Zn 0.39945 0.89053 0.3167 0.0
Zn258 Zn 0.40634 0.95475 0.33868 0.0
O259 O 0.33955 0.98373 0.31879 0.0
O260 O 0.37308 0.98837 0.34246 0.0
O261 O 0.42775 0.98263 0.28288 0.0
O262 O 0.37534 0.97737 0.27961 0.0
O263 O 0.33383 0.91353 0.29312 0.0
O264 O 0.35918 0.87318 0.30626 0.0
O265 O 0.40187 0.87537 0.34291 0.0
O266 O 0.47505 0.96316 0.31644 0.0
O267 O 0.40101 0.92138 0.35793 0.0
O268 O 0.45065 0.97247 0.34292 0.0
C269 C 0.44883 0.88144 0.28731 0.0
C270 C 0.34786 0.99678 0.33398 0.0
C271 C 0.33627 0.88373 0.29662 0.0
C272 C 0.40183 0.98976 0.27485 0.0
C273 C 0.401 0.89112 0.35786 0.0
C274 C 0.47569 0.97288 0.33304 0.0
O275 O 0.43205 0.8705 0.30047 0.0
O276 O 0.17116 0.31578 0.45678 0.0
Zn277 Zn 0.20661 0.33084 0.44057 0.0
O278 O 0.19276 0.36751 0.42631 0.0
Zn279 Zn 0.20758 0.40727 0.43782 0.0
Zn280 Zn 0.14667 0.3683 0.42516 0.0
Zn281 Zn 0.2098 0.36149 0.4018 0.0
O282 O 0.23774 0.43001 0.41981 0.0
O283 O 0.24224 0.39551 0.39661 0.0
O284 O 0.24163 0.34364 0.4574 0.0
O285 O 0.23586 0.39614 0.45951 0.0
O286 O 0.16959 0.43538 0.44709 0.0
O287 O 0.12917 0.4091 0.43473 0.0
O288 O 0.12975 0.3633 0.3993 0.0
O289 O 0.22194 0.29423 0.42484 0.0
O290 O 0.17492 0.36486 0.38337 0.0
O291 O 0.22839 0.31743 0.39773 0.0
C292 C 0.14129 0.32006 0.45568 0.0
C293 C 0.25021 0.42141 0.40451 0.0
C294 C 0.1397 0.43249 0.44396 0.0
C295 C 0.24901 0.37021 0.4646 0.0
C296 C 0.14467 0.36385 0.38404 0.0
C297 C 0.23036 0.29296 0.40802 0.0
O298 O 0.12875 0.33738 0.44328 0.0
O299 O 0.94987 0.91232 0.20253 0.0
Zn300 Zn 0.9357 0.95041 0.18832 0.0
O301 O 0.89805 0.93999 0.17411 0.0
Zn302 Zn 0.85946 0.95486 0.18692 0.0
Zn303 Zn 0.89559 0.89421 0.17091 0.0
Zn304 Zn 0.90393 0.96008 0.15041 0.0
O305 O 0.83663 0.98762 0.17041 0.0
O306 O 0.87056 0.99366 0.14702 0.0
O307 O 0.9253 0.98359 0.20675 0.0
O308 O 0.87267 0.97997 0.20953 0.0
O309 O 0.83101 0.91672 0.19543 0.0
O310 O 0.8551 0.87678 0.18114 0.0
O311 O 0.89801 0.88086 0.14427 0.0
O312 O 0.97231 0.9664 0.17289 0.0
O313 O 0.89916 0.92805 0.13049 0.0
O314 O 0.94831 0.97806 0.14663 0.0
C315 C 0.9455 0.88277 0.19981 0.0
C316 C 0.8451 1.00143 0.15546 0.0
C317 C 0.83278 0.88712 0.19132 0.0
C318 C 0.89943 0.99122 0.21468 0.0
C319 C 0.89833 0.89784 0.12976 0.0
C320 C 0.97323 0.97745 0.1566 0.0
O321 O 0.92793 0.87269 0.18678 0.0
O322 O 0.35567 0.70358 0.95568 0.0
Zn323 Zn 0.3166 0.68943 0.94222 0.0
O324 O 0.32602 0.65162 0.9278 0.0
Zn325 Zn 0.31124 0.61303 0.94068 0.0
Zn326 Zn 0.37161 0.64882 0.92376 0.0
Zn327 Zn 0.3052 0.65761 0.90437 0.0
O328 O 0.27794 0.59015 0.92438 0.0
O329 O 0.27145 0.62458 0.90129 0.0
O330 O 0.28424 0.67916 0.96126 0.0
O331 O 0.28675 0.6264 0.96352 0.0
O332 O 0.34973 0.58466 0.94888 0.0
O333 O 0.38927 0.60841 0.93398 0.0
O334 O 0.38397 0.65122 0.89691 0.0
O335 O 0.30006 0.72607 0.92692 0.0
O336 O 0.33617 0.65205 0.88398 0.0
O337 O 0.28769 0.70216 0.90073 0.0
C338 C 0.385 0.69896 0.95226 0.0
C339 C 0.26386 0.59896 0.90959 0.0
C340 C 0.37922 0.5863 0.94443 0.0
C341 C 0.2763 0.65326 0.96905 0.0
C342 C 0.36632 0.65116 0.88267 0.0
C343 C 0.28868 0.72706 0.9107 0.0
O344 O 0.39402 0.68118 0.93907 0.0
O345 O 0.56673 0.10232 0.70271 0.0
Zn346 Zn 0.58258 0.06706 0.6868 0.0
O347 O 0.6202 0.08074 0.67338 0.0
Zn348 Zn 0.65907 0.06545 0.68574 0.0
Zn349 Zn 0.62145 0.12679 0.67235 0.0
Zn350 Zn 0.61535 0.064 0.64874 0.0
O351 O 0.68196 0.0342 0.6684 0.0
O352 O 0.64903 0.03099 0.64438 0.0
O353 O 0.59403 0.03224 0.70402 0.0
O354 O 0.64629 0.03809 0.70759 0.0
O355 O 0.68754 0.10327 0.69495 0.0
O356 O 0.6625 0.1438 0.68182 0.0
O357 O 0.61682 0.14393 0.6465 0.0
O358 O 0.54688 0.05184 0.67046 0.0
O359 O 0.62009 0.09898 0.63047 0.0
O360 O 0.5714 0.04573 0.64374 0.0
C361 C 0.57204 0.13204 0.70232 0.0
C362 C 0.67403 0.02206 0.6529 0.0
C363 C 0.68542 0.13307 0.69137 0.0
C364 C 0.61992 0.02508 0.71207 0.0
C365 C 0.61855 0.12919 0.63122 0.0
C366 C 0.54643 0.04363 0.65361 0.0
O367 O 0.59064 0.14472 0.6906 0.0
C368 C 0.40349 0.23084 0.01151 0.0
C369 C 0.41209 0.20729 0.02433 0.0
C370 C 0.42577 0.24213 -0.0012 0.0
C371 C 0.508 0.22819 0.98106 0.0
H372 H 0.51883 0.31714 0.99318 0.0
C373 C 0.61755 0.27415 0.01342 0.0
C374 C 0.62241 0.3069 0.01505 0.0
C375 C 0.59364 0.26275 0.00183 0.0
C376 C 0.51626 0.29261 0.98889 0.0
H377 H 0.4501 0.17575 0.03312 0.0
H378 H 0.48884 0.19582 0.01144 0.0
H379 H 0.46714 0.29327 -0.00389 0.0
H380 H 0.61001 0.35334 0.0044 0.0
H381 H 0.56911 0.33347 0.98353 0.0
H382 H 0.55796 0.22704 0.97542 0.0
C383 C 0.46489 0.20533 0.01091 0.0
C384 C 0.48629 0.27886 0.99061 0.0
C385 C 0.44284 0.1943 0.02366 0.0
C386 C 0.60588 0.32793 0.00355 0.0
C387 C 0.5826 0.31654 0.99161 0.0
C388 C 0.53805 0.24201 0.97924 0.0
C389 C 0.45684 0.22978 -0.00142 0.0
C390 C 0.48267 0.24593 0.98843 0.0
C391 C 0.5747 0.28405 0.99155 0.0
C392 C 0.54298 0.27359 0.98491 0.0
H393 H 0.37979 0.24098 0.01153 0.0
H394 H 0.41904 0.26115 0.98952 0.0
H395 H 0.50549 0.20285 0.97874 0.0
H396 H 0.63045 0.25766 0.02212 0.0
H397 H 0.58824 0.23759 0.00231 0.0
C398 C 0.56872 0.69099 0.27248 0.0
C399 C 0.55999 0.65922 0.26946 0.0
C400 C 0.56023 0.71451 0.26002 0.0
C401 C 0.49555 0.73378 0.23044 0.0
H402 H 0.54254 0.81273 0.23471 0.0
C403 C 0.45181 0.82694 0.27425 0.0
C404 C 0.46077 0.85903 0.27328 0.0
C405 C 0.46144 0.8056 0.2608 0.0
C406 C 0.52897 0.79115 0.23255 0.0
H407 H 0.5363 0.62703 0.25054 0.0
H408 H 0.52045 0.66878 0.22885 0.0
H409 H 0.57109 0.76275 0.23311 0.0
H410 H 0.48601 0.89419 0.25696 0.0
H411 H 0.5039 0.85623 0.23354 0.0
H412 H 0.45337 0.7621 0.23097 0.0
C413 C 0.53426 0.6752 0.24087 0.0
C414 C 0.5454 0.76236 0.2318 0.0
C415 C 0.54299 0.65142 0.25339 0.0
C416 C 0.47909 0.86947 0.25822 0.0
C417 C 0.489 0.84788 0.24471 0.0
C418 C 0.47915 0.76263 0.2306 0.0
C419 C 0.54264 0.70707 0.24413 0.0
C420 C 0.52858 0.73355 0.2334 0.0
C421 C 0.48046 0.81562 0.24595 0.0
C422 C 0.49569 0.79101 0.23432 0.0
H423 H 0.58204 0.69792 0.28459 0.0
H424 H 0.56625 0.73886 0.26341 0.0
H425 H 0.48183 0.71199 0.23097 0.0
H426 H 0.43744 0.81805 0.28551 0.0
H427 H 0.45518 0.78081 0.26263 0.0
C428 C 0.0745 0.82258 0.52676 0.0
C429 C 0.10527 0.80962 0.52634 0.0
C430 C 0.05181 0.81311 0.51398 0.0
C431 C 0.02829 0.74323 0.49056 0.0
H432 H 0.95831 0.79919 0.47783 0.0
C433 C 0.90733 0.69724 0.50251 0.0
C434 C 0.89306 0.7171 0.5156 0.0
C435 C 0.93034 0.70932 0.49059 0.0
C436 C 0.97776 0.78311 0.48087 0.0
H437 H 0.13672 0.77723 0.51182 0.0
H438 H 0.09628 0.75966 0.48978 0.0
H439 H 0.01158 0.82112 0.48193 0.0
H440 H 0.88866 0.76521 0.52567 0.0
H441 H 0.92999 0.78633 0.50561 0.0
H442 H 0.99439 0.70583 0.49161 0.0
C443 C 0.09011 0.77758 0.49988 0.0
C444 C 1.00825 0.79565 0.48317 0.0
C445 C 0.11306 0.78736 0.51261 0.0
C446 C 0.89972 0.74964 0.51566 0.0
C447 C 0.92311 0.76169 0.50395 0.0
C448 C 0.99785 0.73072 0.48833 0.0
C449 C 0.05921 0.79027 0.50054 0.0
C450 C 0.03296 0.77621 0.48976 0.0
C451 C 0.93999 0.74124 0.49202 0.0
C452 C 0.9718 0.75112 0.48528 0.0
H453 H 0.06781 0.84012 0.53697 0.0
H454 H 0.02796 0.8227 0.5152 0.0
H455 H 0.04697 0.72758 0.49542 0.0
H456 H 0.90194 0.67203 0.5022 0.0
H457 H 0.94244 0.69312 0.48135 0.0
C458 C 0.04171 0.15522 0.7613 0.0
C459 C 0.06411 0.16438 0.77467 0.0
C460 C 0.03073 0.17722 0.74836 0.0
C461 C 0.0433 0.25976 0.73102 0.0
H462 H 0.95388 0.2686 0.74264 0.0
C463 C 0.9955 0.36824 0.76347 0.0
C464 C 0.96268 0.37237 0.76538 0.0
C465 C 1.00716 0.34454 0.75184 0.0
C466 C 0.97853 0.26663 0.73848 0.0
H467 H 0.0941 0.20306 0.78419 0.0
H468 H 0.07453 0.24137 0.76206 0.0
H469 H 0.97868 0.21741 0.74537 0.0
H470 H 0.91625 0.35895 0.7551 0.0
H471 H 0.93654 0.31852 0.73408 0.0
H472 H 0.04358 0.30975 0.72558 0.0
C473 C 0.0657 0.21719 0.76132 0.0
C474 C 0.99283 0.23692 0.74007 0.0
C475 C 0.0764 0.19541 0.77431 0.0
C476 C 0.94174 0.35527 0.75411 0.0
C477 C 0.95337 0.33228 0.74208 0.0
C478 C 0.02891 0.28953 0.72925 0.0
C479 C 0.04226 0.20857 0.74846 0.0
C480 C 0.02589 0.23401 0.73815 0.0
C481 C 0.98606 0.32513 0.74171 0.0
C482 C 0.99714 0.29378 0.73482 0.0
H483 H 0.03214 0.1313 0.76108 0.0
H484 H 0.01247 0.17008 0.73869 0.0
H485 H 0.06876 0.25778 0.7289 0.0
H486 H 0.01194 0.38167 0.77193 0.0
H487 H 0.03247 0.33976 0.75211 0.0
C488 C 0.61501 0.77408 0.96571 0.0
C489 C 0.62275 0.80634 0.96474 0.0
C490 C 0.59178 0.76384 0.97809 0.0
C491 C 0.51859 0.79664 -0.0055 0.0
H492 H 0.50644 0.70818 0.00761 0.0
C493 C 0.40217 0.73612 0.97744 0.0
C494 C 0.40927 0.71165 0.96491 0.0
C495 C 0.42578 0.74787 0.98919 0.0
C496 C 0.50939 0.73322 0.0045 0.0
H497 H 0.61535 0.85292 0.97666 0.0
H498 H 0.5748 0.83505 -0.00151 0.0
H499 H 0.55995 0.73073 0.00776 0.0
H500 H 0.44588 0.67878 0.95577 0.0
H501 H 0.48677 0.69942 0.97578 0.0
H502 H 0.46871 0.79832 0.98928 0.0
C503 C 0.58622 0.81766 0.98969 0.0
C504 C 0.54 0.74608 0.00454 0.0
C505 C 0.60923 0.82788 0.97721 0.0
C506 C 0.43978 0.69808 0.965 0.0
C507 C 0.46309 0.70946 0.97681 0.0
C508 C 0.48805 0.78377 -0.00559 0.0
C509 C 0.57609 0.78582 0.98962 0.0
C510 C 0.54508 0.77701 -0.00215 0.0
C511 C 0.45662 0.73492 0.98876 0.0
C512 C 0.48374 0.75116 -0.00234 0.0
H513 H 0.62544 0.75725 0.95616 0.0
H514 H 0.58427 0.73922 0.97746 0.0
H515 H 0.52153 0.82071 0.98946 0.0
H516 H 0.37868 0.74672 0.97782 0.0
H517 H 0.42027 0.76767 -0.00183 0.0
C518 C 0.52772 0.1562 0.72013 0.0
C519 C 0.56031 0.15172 0.71739 0.0
C520 C 0.51725 0.17865 0.73291 0.0
C521 C 0.54795 0.25432 0.74855 0.0
H522 H 0.45856 0.26302 0.76049 0.0
C523 C 0.48468 0.36717 0.72922 0.0
C524 C 0.46139 0.3588 0.7162 0.0
C525 C 0.4961 0.34456 0.74168 0.0
C526 C 0.48383 0.26105 0.75773 0.0
H527 H 0.6076 0.16311 0.72716 0.0
H528 H 0.58941 0.20138 0.7501 0.0
H529 H 0.48335 0.2106 0.76151 0.0
H530 H 0.43022 0.3209 0.70688 0.0
H531 H 0.45053 0.28156 0.72811 0.0
H532 H 0.54787 0.30408 0.74319 0.0
C533 C 0.57183 0.18886 0.74197 0.0
C534 C 0.49799 0.23103 0.7582 0.0
C535 C 0.58227 0.16712 0.72882 0.0
C536 C 0.44861 0.32797 0.71649 0.0
C537 C 0.45976 0.30557 0.72899 0.0
C538 C 0.53387 0.28426 0.74822 0.0
C539 C 0.53933 0.19643 0.74334 0.0
C540 C 0.52926 0.22704 0.7517 0.0
C541 C 0.48414 0.31336 0.74143 0.0
C542 C 0.50097 0.28724 0.75093 0.0
H543 H 0.51052 0.14403 0.71154 0.0
H544 H 0.49203 0.18386 0.73339 0.0
H545 H 0.57227 0.25251 0.74377 0.0
H546 H 0.49463 0.39094 0.72951 0.0
H547 H 0.51505 0.3511 0.75105 0.0
C548 C 0.10527 0.33152 0.48158 0.0
C549 C 0.12089 0.30899 0.47061 0.0
C550 C 0.08162 0.322 0.49383 0.0
C551 C 0.03468 0.25047 0.50868 0.0
H552 H 0.96532 0.3017 0.48975 0.0
C553 C 0.93952 0.20063 0.46554 0.0
C554 C 0.90901 0.21401 0.46417 0.0
C555 C 0.96142 0.21254 0.47807 0.0
C556 C 0.98402 0.28743 0.49586 0.0
H557 H 0.12686 0.25899 0.46476 0.0
H558 H 0.08411 0.24214 0.48525 0.0
H559 H 0.01772 0.32438 0.49188 0.0
H560 H 0.87695 0.24941 0.47551 0.0
H561 H 0.91608 0.27123 0.49711 0.0
H562 H 1.001 0.21244 0.51067 0.0
C563 C 0.09052 0.26708 0.48503 0.0
C564 C 0.01438 0.30049 0.49709 0.0
C565 C 0.11472 0.27662 0.47307 0.0
C566 C 0.90048 0.23893 0.4761 0.0
C567 C 0.92267 0.25117 0.48857 0.0
C568 C 1.00423 0.23738 0.5074 0.0
C569 C 0.07252 0.28988 0.4948 0.0
C570 C 0.04052 0.28117 0.50181 0.0
C571 C 0.95351 0.23831 0.48948 0.0
C572 C 0.97945 0.25493 0.49928 0.0
H573 H 0.11035 0.35666 0.48004 0.0
H574 H 0.06876 0.34005 0.50144 0.0
H575 H 0.05417 0.23538 0.51305 0.0
H576 H 0.94672 0.18104 0.4568 0.0
H577 H 0.98521 0.20257 0.47807 0.0
C578 C 0.02538 0.65388 0.22287 0.0
C579 C 0.05805 0.64902 0.22067 0.0
C580 C 0.01458 0.67804 0.23448 0.0
C581 C 0.04497 0.75563 0.24697 0.0
H582 H 0.95569 0.7661 0.25872 0.0
C583 C 0.98187 0.86841 0.22589 0.0
C584 C 0.95828 0.85966 0.21314 0.0
C585 C 0.99361 0.84612 0.23846 0.0
C586 C 0.98093 0.76367 0.25598 0.0
H587 H 0.10506 0.66174 0.23035 0.0
H588 H 0.08627 0.70302 0.25128 0.0
H589 H 0.98012 0.71366 0.26138 0.0
H590 H 0.92699 0.82146 0.20437 0.0
H591 H 0.94775 0.78274 0.22585 0.0
H592 H 0.0452 0.80486 0.24005 0.0
C593 C 0.06892 0.6894 0.24358 0.0
C594 C 0.99487 0.73363 0.25738 0.0
C595 C 0.07969 0.66591 0.2316 0.0
C596 C 0.9456 0.8288 0.21377 0.0
C597 C 0.95701 0.80677 0.2264 0.0
C598 C 0.0311 0.7856 0.24569 0.0
C599 C 0.0364 0.69719 0.24426 0.0
C600 C 0.02617 0.72883 0.25113 0.0
C601 C 0.9816 0.81493 0.23861 0.0
C602 C 0.99828 0.78913 0.24846 0.0
H603 H 1.00842 0.64067 0.21465 0.0
H604 H 0.98937 0.68334 0.23447 0.0
H605 H 0.06928 0.75317 0.24224 0.0
H606 H 0.99177 0.8922 0.22588 0.0
H607 H 0.01276 0.85291 0.24763 0.0
C608 C 0.4294 0.0509 0.04316 0.0
C609 C 0.40168 0.06128 0.0341 0.0
C610 C 0.45418 0.03621 0.03345 0.0
C611 C 0.49149 0.03317 0.98776 0.0
H612 H 0.53356 0.95762 0.00631 0.0
C613 C 0.61179 0.98071 0.95832 0.0
C614 C 0.60991 0.94811 0.95405 0.0
C615 C 0.58693 0.9958 0.96809 0.0
C616 C 0.52218 0.97883 0.00098 0.0
H617 H 0.37829 0.06399 0.00761 0.0
H618 H 0.4219 0.03849 0.99051 0.0
H619 H 0.48781 0.97947 0.02281 0.0
H620 H 0.58076 0.90578 0.95735 0.0
H621 H 0.53859 0.93165 0.97451 0.0
H622 H 0.52621 0.0325 0.96596 0.0
C623 C 0.42422 0.0416 0.00524 0.0
C624 C 0.49596 0.99137 0.01046 0.0
C625 C 0.39903 0.05576 0.01507 0.0
C626 C 0.58303 0.931 0.96015 0.0
C627 C 0.5588 0.94577 0.97014 0.0
C628 C 0.51817 0.02091 0.97843 0.0
C629 C 0.45233 0.03206 0.01429 0.0
C630 C 0.48003 0.01854 0.00391 0.0
C631 C 0.56022 0.97835 0.9742 0.0
C632 C 0.53365 0.99337 0.98484 0.0
H633 H 0.43238 0.0551 0.05777 0.0
H634 H 0.47545 0.02932 0.04087 0.0
H635 H 0.48003 0.05435 0.98246 0.0
H636 H 0.63211 0.99457 0.95386 0.0
H637 H 0.58876 0.02097 0.97108 0.0
C638 C 0.70574 0.68144 0.28791 0.0
C639 C 0.7032 0.65091 0.28003 0.0
C640 C 0.72007 0.70658 0.27837 0.0
C641 C 0.77195 0.72705 0.23843 0.0
H642 H 0.73001 0.80901 0.24233 0.0
C643 C 0.80939 0.83225 0.19208 0.0
C644 C 0.81154 0.86279 0.19998 0.0
C645 C 0.79485 0.80706 0.20147 0.0
C646 C 0.7423 0.78645 0.24121 0.0
H647 H 0.71521 0.6229 0.25602 0.0
H648 H 0.74046 0.66687 0.23929 0.0
H649 H 0.70935 0.76355 0.25939 0.0
H650 H 0.79869 0.89077 0.22385 0.0
H651 H 0.7732 0.84672 0.24035 0.0
H652 H 0.80496 0.74995 0.22028 0.0
C653 C 0.73135 0.67127 0.25299 0.0
C654 C 0.73043 0.76024 0.25104 0.0
C655 C 0.71697 0.64593 0.26262 0.0
C656 C 0.79721 0.86773 0.21724 0.0
C657 C 0.78268 0.84233 0.22673 0.0
C658 C 0.78384 0.75327 0.2286 0.0
C659 C 0.73234 0.70221 0.26055 0.0
C660 C 0.74509 0.7301 0.24986 0.0
C661 C 0.78205 0.81137 0.21918 0.0
C662 C 0.76919 0.78343 0.22979 0.0
H663 H 0.69568 0.68626 0.30135 0.0
H664 H 0.72108 0.72968 0.28493 0.0
H665 H 0.78422 0.70448 0.23731 0.0
H666 H 0.81991 0.82748 0.17876 0.0
H667 H 0.79413 0.78396 0.1949 0.0
C668 C 0.11801 0.96794 0.51927 0.0
C669 C 0.11269 0.95388 0.53658 0.0
C670 C 0.09291 0.98263 0.50961 0.0
C671 C 1.00383 0.98292 0.50726 0.0
H672 H 0.01602 0.05734 0.47667 0.0
C673 C 0.89833 0.05157 0.47238 0.0
C674 C 0.90406 0.06536 0.45505 0.0
C675 C 0.92317 0.03676 0.48223 0.0
C676 C 0.01216 0.03628 0.48495 0.0
H677 H 0.07689 0.94601 0.55763 0.0
H678 H 0.03385 0.97198 0.54115 0.0
H679 H 0.06076 0.03585 0.49399 0.0
H680 H 0.94019 0.07248 0.4341 0.0
H681 H 0.98272 0.04632 0.45088 0.0
H682 H 0.9552 0.9834 0.49822 0.0
C683 C 0.05707 0.97098 0.53471 0.0
C684 C 0.03797 0.02393 0.49494 0.0
C685 C 0.082 0.95631 0.54429 0.0
C686 C 0.9348 0.06243 0.44748 0.0
C687 C 0.95944 0.04765 0.45722 0.0
C688 C 0.978 0.99529 0.49727 0.0
C689 C 0.06183 0.98368 0.51702 0.0
C690 C 0.03427 0.99705 0.50628 0.0
C691 C 0.95434 0.03534 0.47497 0.0
C692 C 0.98175 0.02212 0.48589 0.0
H693 H 0.14117 0.96629 0.51279 0.0
H694 H 0.09763 0.992 0.49601 0.0
H695 H 0.99998 0.96185 0.51553 0.0
H696 H 0.8751 0.05361 0.47874 0.0
H697 H 0.91822 0.02763 0.49586 0.0
C698 C 0.8009 0.37571 0.76103 0.0
C699 C 0.81421 0.37094 0.77857 0.0
C700 C 0.78632 0.35035 0.75153 0.0
C701 C 0.75421 0.2674 0.75782 0.0
H702 H 0.77258 0.25906 0.70582 0.0
C703 C 0.72096 0.15248 0.71728 0.0
C704 C 0.70706 0.15718 0.69988 0.0
C705 C 0.73557 0.17795 0.72665 0.0
C706 C 0.76696 0.26104 0.72031 0.0
H707 H 0.82101 0.33595 0.80016 0.0
H708 H 0.79587 0.2924 0.78386 0.0
H709 H 0.79144 0.30565 0.72256 0.0
H710 H 0.69924 0.19215 0.6784 0.0
H711 H 0.72459 0.23591 0.69448 0.0
H712 H 0.72978 0.22276 0.75557 0.0
C713 C 0.79642 0.31552 0.7773 0.0
C714 C 0.77769 0.28798 0.72993 0.0
C715 C 0.81103 0.34066 0.78669 0.0
C716 C 0.70971 0.18751 0.69175 0.0
C717 C 0.72441 0.21276 0.70101 0.0
C718 C 0.74352 0.24045 0.7482 0.0
C719 C 0.78445 0.31965 0.75939 0.0
C720 C 0.77155 0.29162 0.74886 0.0
C721 C 0.73689 0.20869 0.7188 0.0
C722 C 0.7497 0.23679 0.72928 0.0
H723 H 0.80313 0.39856 0.75426 0.0
H724 H 0.77698 0.35469 0.73788 0.0
H725 H 0.74852 0.26937 0.7723 0.0
H726 H 0.71911 0.1296 0.72405 0.0
H727 H 0.7453 0.17369 0.74022 0.0
C728 C 0.30321 0.37346 0.72337 0.0
C729 C 0.31621 0.36758 0.70585 0.0
C730 C 0.28869 0.34877 0.73348 0.0
C731 C 0.25612 0.26567 0.72909 0.0
H732 H 0.27459 0.26069 0.78122 0.0
C733 C 0.2229 0.15356 0.77212 0.0
C734 C 0.20898 0.15929 0.78941 0.0
C735 C 0.23746 0.17844 0.7622 0.0
C736 C 0.26894 0.26174 0.7667 0.0
H737 H 0.32255 0.33121 0.68499 0.0
H738 H 0.2976 0.28879 0.70237 0.0
H739 H 0.29369 0.30601 0.76341 0.0
H740 H 0.20108 0.19556 0.81014 0.0
H741 H 0.22637 0.23835 0.79311 0.0
H742 H 0.23147 0.22136 0.73237 0.0
C743 C 0.29832 0.31231 0.70842 0.0
C744 C 0.27981 0.28795 0.75646 0.0
C745 C 0.31284 0.3368 0.69841 0.0
C746 C 0.21155 0.19011 0.79689 0.0
C747 C 0.22621 0.2148 0.78709 0.0
C748 C 0.24532 0.23945 0.73932 0.0
C749 C 0.2866 0.31761 0.72629 0.0
C750 C 0.27363 0.29036 0.73746 0.0
C751 C 0.23872 0.20963 0.76939 0.0
C752 C 0.25154 0.23702 0.7583 0.0
H753 H 0.30555 0.39671 0.72963 0.0
H754 H 0.27953 0.35401 0.74707 0.0
H755 H 0.25037 0.26671 0.71459 0.0
H756 H 0.22118 0.13027 0.76583 0.0
H757 H 0.24724 0.17334 0.74874 0.0
C758 C 0.31324 0.82876 0.29555 0.0
C759 C 0.31492 0.85955 0.28794 0.0
C760 C 0.29855 0.80376 0.28609 0.0
C761 C 0.24481 0.78405 0.24677 0.0
H762 H 0.28716 0.70215 0.24949 0.0
C763 C 0.2075 0.68041 0.19939 0.0
C764 C 0.20505 0.64968 0.20701 0.0
C765 C 0.22205 0.70526 0.20904 0.0
C766 C 0.27478 0.7247 0.2487 0.0
H767 H 0.3011 0.88818 0.26451 0.0
H768 H 0.27535 0.84445 0.24787 0.0
H769 H 0.30824 0.74723 0.26669 0.0
H770 H 0.21749 0.62096 0.23067 0.0
H771 H 0.2432 0.66443 0.24761 0.0
H772 H 0.21142 0.76152 0.22872 0.0
C773 C 0.28531 0.83972 0.26132 0.0
C774 C 0.28686 0.7507 0.25863 0.0
C775 C 0.29999 0.86493 0.2709 0.0
C776 C 0.21918 0.64416 0.22427 0.0
C777 C 0.23381 0.66921 0.23401 0.0
C778 C 0.23276 0.75806 0.23682 0.0
C779 C 0.28513 0.80853 0.26858 0.0
C780 C 0.27206 0.78082 0.25786 0.0
C781 C 0.23466 0.70037 0.22673 0.0
C782 C 0.24759 0.72796 0.23758 0.0
H783 H 0.32424 0.82366 0.30871 0.0
H784 H 0.29819 0.78047 0.29245 0.0
H785 H 0.2324 0.80658 0.24598 0.0
H786 H 0.19715 0.68563 0.18607 0.0
H787 H 0.22295 0.72855 0.20269 0.0
C788 C 0.08396 0.45354 0.44595 0.0
C789 C 0.11545 0.45385 0.45264 0.0
C790 C 0.05927 0.46849 0.45556 0.0
C791 C 0.04066 0.52719 0.49238 0.0
H792 H 0.96091 0.48087 0.495 0.0
C793 C 0.93891 0.56947 0.53997 0.0
C794 C 0.90734 0.56787 0.53349 0.0
C795 C 0.96382 0.55447 0.53056 0.0
C796 C 0.9828 0.49439 0.49427 0.0
H797 H 0.14557 0.47162 0.4745 0.0
H798 H 0.10235 0.49808 0.49133 0.0
H799 H 1.00544 0.45883 0.47769 0.0
H800 H 0.87733 0.54798 0.51221 0.0
H801 H 0.9209 0.52174 0.49564 0.0
H802 H 0.01801 0.56284 0.50886 0.0
C803 C 0.09686 0.48615 0.47852 0.0
C804 C 1.0085 0.48171 0.4843 0.0
C805 C 0.12175 0.47108 0.46883 0.0
C806 C 0.90123 0.5495 0.51771 0.0
C807 C 0.92634 0.53452 0.50818 0.0
C808 C 0.01494 0.53992 0.50232 0.0
C809 C 0.06508 0.48433 0.47225 0.0
C810 C 0.03784 0.49793 0.48315 0.0
C811 C 0.95818 0.53744 0.51423 0.0
C812 C 0.98557 0.52371 0.50347 0.0
H813 H 0.07808 0.44079 0.43346 0.0
H814 H 0.03542 0.46721 0.44997 0.0
H815 H 0.0626 0.54065 0.49166 0.0
H816 H 0.94462 0.58314 0.55216 0.0
H817 H 0.98768 0.55661 0.53604 0.0
C818 C 0.62192 0.47065 0.01444 0.0
C819 C 0.61696 0.45569 0.03152 0.0
C820 C 0.59645 0.48535 0.00508 0.0
C821 C 0.50732 0.48352 0.00312 0.0
H822 H 0.51687 0.55923 0.9733 0.0
C823 C 0.39908 0.55052 0.97016 0.0
C824 C 0.40385 0.56523 0.95299 0.0
C825 C 0.42465 0.53601 0.97953 0.0
C826 C 0.51375 0.5378 0.98137 0.0
H827 H 0.58159 0.44641 0.0526 0.0
H828 H 0.53797 0.47248 0.03672 0.0
H829 H 0.56258 0.5383 0.99003 0.0
H830 H 0.43909 0.57431 0.93179 0.0
H831 H 0.4829 0.54867 0.94774 0.0
H832 H 0.45849 0.48302 -0.00554 0.0
C833 C 0.56111 0.47213 0.03016 0.0
C834 C 0.54012 0.52578 0.99102 0.0
C835 C 0.58637 0.45743 0.03941 0.0
C836 C 0.43442 0.56351 0.94506 0.0
C837 C 0.45979 0.54904 0.95433 0.0
C838 C 0.48095 0.49554 -0.00652 0.0
C839 C 0.56541 0.48551 0.0126 0.0
C840 C 0.53735 0.49847 0.00211 0.0
C841 C 0.45562 0.53581 0.97194 0.0
C842 C 0.48371 0.52286 0.9824 0.0
H843 H 0.64501 0.46948 0.00785 0.0
H844 H 0.60082 0.49532 0.99158 0.0
H845 H 0.50419 0.46208 0.01118 0.0
H846 H 0.37603 0.55163 0.9768 0.0
H847 H 0.42038 0.52617 0.99307 0.0
C848 C 0.28241 0.25784 0.1099 0.0
C849 C 0.28497 0.25472 0.0907 0.0
C850 C 0.27328 0.28678 0.11784 0.0
C851 C 0.26404 0.37348 0.10712 0.0
H852 H 0.21281 0.37294 0.15151 0.0
C853 C 0.19177 0.48156 0.13347 0.0
C854 C 0.19245 0.48817 0.15244 0.0
C855 C 0.20666 0.45443 0.12643 0.0
C856 C 0.22746 0.37348 0.13924 0.0
H857 H 0.27941 0.27956 0.06477 0.0
H858 H 0.26226 0.32955 0.07849 0.0
H859 H 0.23012 0.32275 0.13808 0.0
H860 H 0.20998 0.47178 0.17883 0.0
H861 H 0.23558 0.42386 0.1665 0.0
H862 H 0.26002 0.42434 0.10799 0.0
C863 C 0.26827 0.31001 0.08754 0.0
C864 C 0.2375 0.34466 0.13152 0.0
C865 C 0.27786 0.28118 0.07962 0.0
C866 C 0.20919 0.46746 0.16415 0.0
C867 C 0.22362 0.43993 0.15712 0.0
C868 C 0.25357 0.40225 0.11471 0.0
C869 C 0.26598 0.31332 0.10679 0.0
C870 C 0.25583 0.34418 0.11528 0.0
C871 C 0.22214 0.43294 0.13821 0.0
C872 C 0.23506 0.40257 0.13081 0.0
H873 H 0.28802 0.23805 0.11888 0.0
H874 H 0.27245 0.28837 0.13269 0.0
H875 H 0.27868 0.3743 0.09488 0.0
H876 H 0.17912 0.49706 0.12408 0.0
H877 H 0.20494 0.44961 0.11182 0.0
C878 C 0.48417 0.52177 0.32172 0.0
C879 C 0.51075 0.52834 0.33282 0.0
C880 C 0.4552 0.51242 0.32962 0.0
C881 C 0.42016 0.48228 0.37382 0.0
H882 H 0.34058 0.50477 0.35016 0.0
C883 C 0.29729 0.45801 0.4074 0.0
C884 C 0.27649 0.44024 0.39627 0.0
C885 C 0.32481 0.47173 0.39989 0.0
C886 C 0.36264 0.49836 0.35692 0.0
H887 H 0.52747 0.53084 0.36099 0.0
H888 H 0.47694 0.51592 0.37478 0.0
H889 H 0.39079 0.52253 0.33677 0.0
H890 H 0.26741 0.42439 0.36838 0.0
H891 H 0.31485 0.44915 0.35523 0.0
H892 H 0.39167 0.45874 0.39418 0.0
C893 C 0.47851 0.5168 0.35992 0.0
C894 C 0.39154 0.50828 0.34917 0.0
C895 C 0.50759 0.52557 0.35201 0.0
C896 C 0.28297 0.43789 0.37733 0.0
C897 C 0.31009 0.45214 0.36977 0.0
C898 C 0.39125 0.47289 0.38172 0.0
C899 C 0.45183 0.50994 0.34888 0.0
C900 C 0.42082 0.50012 0.35739 0.0
C901 C 0.33171 0.46854 0.38104 0.0
C902 C 0.3622 0.48056 0.37327 0.0
H903 H 0.48584 0.52352 0.30688 0.0
H904 H 0.43559 0.50677 0.32055 0.0
H905 H 0.44199 0.47485 0.38044 0.0
H906 H 0.29309 0.46006 0.42206 0.0
H907 H 0.34099 0.48442 0.40887 0.0
C908 C 0.24371 0.73569 0.57749 0.0
C909 C 0.23847 0.76236 0.58877 0.0
C910 C 0.25405 0.70687 0.58507 0.0
C911 C 0.25461 0.65982 0.62748 0.0
H912 H 0.3277 0.61772 0.60596 0.0
C913 C 0.31555 0.55053 0.66177 0.0
C914 C 0.33121 0.52855 0.65037 0.0
C915 C 0.30196 0.57815 0.65429 0.0
C916 C 0.30683 0.62865 0.61198 0.0
H917 H 0.23956 0.77944 0.61693 0.0
H918 H 0.25706 0.72886 0.63017 0.0
H919 H 0.30859 0.66731 0.59278 0.0
H920 H 0.34303 0.51712 0.62214 0.0
H921 H 0.31795 0.56399 0.60901 0.0
H922 H 0.2522 0.62086 0.64641 0.0
C923 C 0.25334 0.73042 0.61545 0.0
C924 C 0.29605 0.65729 0.60444 0.0
C925 C 0.24355 0.75942 0.60783 0.0
C926 C 0.33142 0.53382 0.63129 0.0
C927 C 0.31731 0.56098 0.6238 0.0
C928 C 0.26506 0.63082 0.63486 0.0
C929 C 0.25882 0.70387 0.60414 0.0
C930 C 0.26991 0.67325 0.61213 0.0
C931 C 0.30325 0.58412 0.6352 0.0
C932 C 0.29139 0.61479 0.62723 0.0
H933 H 0.24002 0.73713 0.56277 0.0
H934 H 0.25794 0.68675 0.57604 0.0
H935 H 0.23421 0.67151 0.6336 0.0
H936 H 0.31528 0.54723 0.67655 0.0
H937 H 0.29165 0.59538 0.66361 0.0
C938 C 0.03033 0.50211 0.82589 0.0
C939 C 1.00331 0.49464 0.83647 0.0
C940 C 0.05863 0.51183 0.83434 0.0
C941 C 0.10372 0.50807 0.87767 0.0
H942 H 0.1476 0.58174 0.85811 0.0
C943 C 0.21454 0.56538 0.91324 0.0
C944 C 0.23705 0.58033 0.90185 0.0
C945 C 0.18643 0.55273 0.90572 0.0
C946 C 0.1361 0.56075 0.8636 0.0
H947 H 0.98511 0.49126 0.86434 0.0
H948 H 0.03473 0.50793 0.87909 0.0
H949 H 0.09801 0.56446 0.84416 0.0
H950 H 0.24895 0.59168 0.87361 0.0
H951 H 0.20121 0.56845 0.86047 0.0
H952 H 0.14218 0.50396 0.89692 0.0
C953 C 0.03388 0.50629 0.86423 0.0
C954 C 0.10747 0.55097 0.85562 0.0
C955 C 1.00539 0.49698 0.85575 0.0
C956 C 0.23185 0.58065 0.88277 0.0
C957 C 0.20421 0.5676 0.87526 0.0
C958 C 0.13268 0.51763 0.88556 0.0
C959 C 0.06079 0.51394 0.85361 0.0
C960 C 0.09098 0.52446 0.86248 0.0
C961 C 0.18052 0.55444 0.88663 0.0
C962 C 0.14942 0.54402 0.87855 0.0
H963 H 0.02964 0.50053 0.81102 0.0
H964 H 0.07902 0.51731 0.82578 0.0
H965 H 0.09165 0.4874 0.8832 0.0
H966 H 0.21781 0.56502 0.92802 0.0
H967 H 0.16879 0.54292 0.91498 0.0
C968 C 0.8127 0.55594 0.82064 0.0
C969 C 0.82716 0.53358 0.83233 0.0
C970 C 0.79994 0.58421 0.82782 0.0
C971 C 0.80743 0.63565 0.86931 0.0
H972 H 0.73432 0.67954 0.84899 0.0
C973 C 0.74964 0.74365 0.90521 0.0
C974 C 0.74169 0.76993 0.89414 0.0
C975 C 0.75936 0.71495 0.89725 0.0
C976 C 0.75494 0.66764 0.85471 0.0
H977 H 0.83744 0.52216 0.86079 0.0
H978 H 0.81412 0.57038 0.87333 0.0
H979 H 0.75071 0.62838 0.83604 0.0
H980 H 0.73757 0.78642 0.86595 0.0
H981 H 0.75438 0.73615 0.85208 0.0
H982 H 0.81137 0.67462 0.88812 0.0
C983 C 0.81371 0.567 0.85857 0.0
C984 C 0.76438 0.63833 0.84728 0.0
C985 C 0.82681 0.53912 0.85139 0.0
C986 C 0.74366 0.76673 0.8749 0.0
C987 C 0.75304 0.73786 0.86693 0.0
C988 C 0.79782 0.6647 0.87682 0.0
C989 C 0.80106 0.59048 0.84687 0.0
C990 C 0.79068 0.62181 0.85456 0.0
C991 C 0.76106 0.71166 0.87802 0.0
C992 C 0.77142 0.68101 0.86967 0.0
H993 H 0.81282 0.55244 0.80588 0.0
H994 H 0.79052 0.60172 0.81835 0.0
H995 H 0.82834 0.62424 0.875 0.0
H996 H 0.74834 0.7452 0.92006 0.0
H997 H 0.7651 0.69513 0.90617 0.0
C998 C 0.51356 0.49242 0.63299 0.0
C999 C 0.50984 0.48873 0.65211 0.0
C1000 C 0.54287 0.5017 0.62553 0.0
C1001 C 0.6159 0.54496 0.63643 0.0
H1002 H 0.65317 0.4985 0.59569 0.0
C1003 C 0.73992 0.57887 0.60937 0.0
C1004 C 0.74532 0.57751 0.59032 0.0
C1005 C 0.71272 0.56512 0.61711 0.0
C1006 C 0.643 0.51207 0.60689 0.0
H1007 H 0.53403 0.49232 0.67838 0.0
H1008 H 0.58495 0.50932 0.66535 0.0
H1009 H 0.60217 0.48146 0.60847 0.0
H1010 H 0.72681 0.55986 0.56447 0.0
H1011 H 0.67873 0.53683 0.57779 0.0
H1012 H 0.65567 0.57636 0.63457 0.0
C1013 C 0.56519 0.50474 0.65616 0.0
C1014 C 0.61378 0.50217 0.61426 0.0
C1015 C 0.53605 0.49492 0.6636 0.0
C1016 C 0.72347 0.56102 0.57923 0.0
C1017 C 0.69585 0.54777 0.58693 0.0
C1018 C 0.6448 0.55518 0.62891 0.0
C1019 C 0.56898 0.50805 0.63703 0.0
C1020 C 0.59998 0.51846 0.62914 0.0
C1021 C 0.68971 0.55025 0.60596 0.0
C1022 C 0.65894 0.53883 0.61407 0.0
H1023 H 0.49393 0.48769 0.62372 0.0
H1024 H 0.54502 0.5043 0.61075 0.0
H1025 H 0.60564 0.55826 0.64773 0.0
H1026 H 0.75647 0.59116 0.61831 0.0
H1027 H 0.70956 0.56671 0.63186 0.0
C1028 C 0.77931 0.25652 0.3774 0.0
C1029 C 0.7818 0.25456 0.39666 0.0
C1030 C 0.77027 0.28499 0.36885 0.0
C1031 C 0.76148 0.37233 0.37793 0.0
H1032 H 0.71038 0.37003 0.33354 0.0
C1033 C 0.68848 0.47896 0.35085 0.0
C1034 C 0.68924 0.48553 0.33188 0.0
C1035 C 0.70351 0.45198 0.35796 0.0
C1036 C 0.72501 0.37104 0.34579 0.0
H1037 H 0.77605 0.28097 0.42204 0.0
H1038 H 0.75906 0.33009 0.40729 0.0
H1039 H 0.72767 0.32035 0.34769 0.0
H1040 H 0.7069 0.46916 0.30553 0.0
H1041 H 0.73274 0.42133 0.31799 0.0
H1042 H 0.75745 0.42312 0.37637 0.0
C1043 C 0.7651 0.31001 0.39865 0.0
C1044 C 0.73502 0.34252 0.35394 0.0
C1045 C 0.77459 0.28167 0.40717 0.0
C1046 C 0.7061 0.46485 0.32021 0.0
C1047 C 0.72065 0.43739 0.32732 0.0
C1048 C 0.75105 0.40078 0.36994 0.0
C1049 C 0.76302 0.31222 0.37934 0.0
C1050 C 0.7532 0.34269 0.37024 0.0
C1051 C 0.71922 0.43054 0.34626 0.0
C1052 C 0.73251 0.40046 0.35386 0.0
H1053 H 0.78498 0.23619 0.36885 0.0
H1054 H 0.76953 0.2857 0.35397 0.0
H1055 H 0.77607 0.37367 0.39018 0.0
H1056 H 0.67572 0.49445 0.3602 0.0
H1057 H 0.70179 0.44726 0.37258 0.0
C1058 C 0.80216 0.45653 0.07491 0.0
C1059 C 0.77973 0.44122 0.0862 0.0
C1060 C 0.83022 0.46913 0.08246 0.0
C1061 C 0.881 0.46082 0.12438 0.0
H1062 H 0.92493 0.53433 0.10458 0.0
C1063 C 0.98828 0.5191 0.16101 0.0
C1064 C 0.01489 0.52662 0.15009 0.0
C1065 C 0.95965 0.50943 0.15291 0.0
C1066 C 0.91301 0.51362 0.11017 0.0
H1067 H 0.76807 0.4291 0.11438 0.0
H1068 H 0.81584 0.45222 0.1276 0.0
H1069 H 0.87408 0.5179 0.09128 0.0
H1070 H 0.03203 0.53009 0.122 0.0
H1071 H 0.98184 0.51352 0.10787 0.0
H1072 H 0.91963 0.45696 0.14347 0.0
C1073 C 0.81272 0.45341 0.11284 0.0
C1074 C 0.88386 0.50412 0.10252 0.0
C1075 C 0.78506 0.44042 0.10527 0.0
C1076 C 0.01208 0.52434 0.13084 0.0
C1077 C 0.98326 0.51508 0.12272 0.0
C1078 C 0.90985 0.47054 0.13213 0.0
C1079 C 0.83625 0.46704 0.10152 0.0
C1080 C 0.86734 0.47761 0.10956 0.0
C1081 C 0.95675 0.50742 0.13367 0.0
C1082 C 0.9262 0.49706 0.12516 0.0
H1083 H 0.79885 0.45729 0.06013 0.0
H1084 H 0.84774 0.47924 0.07324 0.0
H1085 H 0.86965 0.43976 0.1299 0.0
H1086 H 0.98954 0.52061 0.17587 0.0
H1087 H 0.93959 0.50392 0.16171 0.0
C1088 C 0.76605 0.77998 0.57523 0.0
C1089 C 0.77596 0.75503 0.58679 0.0
C1090 C 0.75641 0.80918 0.58261 0.0
C1091 C 0.7646 0.86064 0.62331 0.0
H1092 H 0.68809 0.90078 0.60469 0.0
C1093 C 0.70875 0.97367 0.65668 0.0
C1094 C 0.69218 0.99485 0.64518 0.0
C1095 C 0.72116 0.94517 0.64964 0.0
C1096 C 0.70986 0.89031 0.60987 0.0
H1097 H 0.78354 0.74143 0.61525 0.0
H1098 H 0.76689 0.79257 0.62809 0.0
H1099 H 0.70466 0.84962 0.5924 0.0
H1100 H 0.67762 1.00377 0.61704 0.0
H1101 H 0.7003 0.95509 0.60466 0.0
H1102 H 0.77012 0.90158 0.64058 0.0
C1103 C 0.76663 0.78943 0.6133 0.0
C1104 C 0.71924 0.8608 0.60285 0.0
C1105 C 0.77593 0.76005 0.60594 0.0
C1106 C 0.68994 0.9878 0.62632 0.0
C1107 C 0.70269 0.95964 0.61926 0.0
C1108 C 0.75539 0.8904 0.63022 0.0
C1109 C 0.75676 0.81434 0.60172 0.0
C1110 C 0.74673 0.8456 0.60945 0.0
C1111 C 0.7176 0.93738 0.63088 0.0
C1112 C 0.7279 0.90574 0.62355 0.0
H1113 H 0.76581 0.77702 0.56043 0.0
H1114 H 0.74918 0.82796 0.5733 0.0
H1115 H 0.78609 0.84967 0.62856 0.0
H1116 H 0.71065 0.97829 0.6713 0.0
H1117 H 0.73229 0.92865 0.65908 0.0
C1118 C 0.795 0.96416 0.90626 0.0
C1119 C 0.77353 0.94839 0.8946 0.0
C1120 C 0.82313 0.97739 0.89919 0.0
C1121 C 0.87622 0.97037 0.85812 0.0
H1122 H 0.91894 0.04287 0.87989 0.0
C1123 C 0.98801 0.02905 0.82589 0.0
C1124 C 0.01349 0.03514 0.83793 0.0
C1125 C 0.95833 0.01949 0.83272 0.0
C1126 C 0.90732 0.02249 0.87374 0.0
H1127 H 0.76352 0.93614 0.86624 0.0
H1128 H 0.81136 0.96056 0.8538 0.0
H1129 H 0.86698 0.02642 0.89161 0.0
H1130 H 0.02753 0.03618 0.86665 0.0
H1131 H 0.97558 0.01993 0.87853 0.0
H1132 H 0.91636 0.96695 0.84002 0.0
C1133 C 0.80748 0.96158 0.86851 0.0
C1134 C 0.87755 0.01294 0.88049 0.0
C1135 C 0.77977 0.94788 0.87561 0.0
C1136 C 1.00851 0.03153 0.85697 0.0
C1137 C 0.97868 0.02247 0.8638 0.0
C1138 C 0.9057 0.98021 0.85122 0.0
C1139 C 0.83017 0.97559 0.88024 0.0
C1140 C 0.86155 0.98665 0.87281 0.0
C1141 C 0.95327 0.0163 0.85175 0.0
C1142 C 0.92167 1.00627 0.85899 0.0
H1143 H 0.79101 0.96464 0.92098 0.0
H1144 H 0.83998 0.9877 0.90875 0.0
H1145 H 0.86528 0.94952 0.8521 0.0
H1146 H 0.99099 0.03161 0.81116 0.0
H1147 H 0.93915 0.01506 0.8231 0.0
C1148 C 0.82851 0.03616 0.12923 0.0
C1149 C 0.82646 0.02855 0.14804 0.0
C1150 C 0.81447 0.06383 0.12234 0.0
C1151 C 0.79313 0.14443 0.13596 0.0
H1152 H 0.74688 0.14597 0.08984 0.0
C1153 C 0.7421 0.26163 0.10569 0.0
C1154 C 0.74187 0.26521 0.08644 0.0
C1155 C 0.75042 0.23253 0.11376 0.0
C1156 C 0.76014 0.14614 0.10261 0.0
H1157 H 0.80738 0.04379 0.1743 0.0
H1158 H 0.78315 0.09268 0.16223 0.0
H1159 H 0.76351 0.09524 0.10292 0.0
H1160 H 0.75103 0.24104 0.06064 0.0
H1161 H 0.76665 0.19083 0.07464 0.0
H1162 H 0.79097 0.19527 0.13539 0.0
C1163 C 0.79557 0.07697 0.15285 0.0
C1164 C 0.76944 0.11696 0.11017 0.0
C1165 C 0.80919 0.04887 0.15973 0.0
C1166 C 0.75073 0.2391 0.0755 0.0
C1167 C 0.75943 0.21013 0.08357 0.0
C1168 C 0.78419 0.17368 0.12829 0.0
C1169 C 0.79842 0.08492 0.13411 0.0
C1170 C 0.78626 0.11576 0.12686 0.0
C1171 C 0.75911 0.20626 0.10283 0.0
C1172 C 0.76779 0.17501 0.11139 0.0
H1173 H 0.84162 0.02101 0.11986 0.0
H1174 H 0.81728 0.06936 0.10787 0.0
H1175 H 0.80645 0.14432 0.14872 0.0
H1176 H 0.73514 0.28114 0.11455 0.0
H1177 H 0.74939 0.23051 0.1286 0.0
C1178 C 0.7191 0.06307 0.41298 0.0
C1179 C 0.741 0.078 0.40119 0.0
C1180 C 0.69115 0.04942 0.40591 0.0
C1181 C 0.63951 0.0537 0.36417 0.0
H1182 H 0.5977 0.98053 0.38584 0.0
C1183 C 0.53237 0.99125 0.32974 0.0
C1184 C 0.50619 0.98419 0.3411 0.0
C1185 C 0.56115 1.00169 0.33733 0.0
C1186 C 0.60904 1.00112 0.37972 0.0
H1187 H 0.7519 0.08836 0.37267 0.0
H1188 H 0.70435 0.06344 0.36032 0.0
H1189 H 0.64838 0.99901 0.39844 0.0
H1190 H 0.49004 0.98222 0.36944 0.0
H1191 H 0.54045 1.00011 0.38266 0.0
H1192 H 0.60045 0.0554 0.34527 0.0
C1193 C 0.70776 0.06335 0.37508 0.0
C1194 C 0.63807 0.0118 0.38697 0.0
C1195 C 0.73528 0.07739 0.38215 0.0
C1196 C 0.50964 0.98758 0.36026 0.0
C1197 C 0.53859 0.9976 0.36787 0.0
C1198 C 0.61078 0.04279 0.35681 0.0
C1199 C 0.68475 0.05004 0.38686 0.0
C1200 C 0.6538 0.03823 0.37926 0.0
C1201 C 0.56463 1.00492 0.35648 0.0
C1202 C 0.5952 0.01638 0.36447 0.0
H1203 H 0.72274 0.06338 0.42773 0.0
H1204 H 0.67401 0.03959 0.41547 0.0
H1205 H 0.65024 0.07465 0.35812 0.0
H1206 H 0.53061 0.9889 0.31494 0.0
H1207 H 0.58086 1.00691 0.3282 0.0
C1208 C 0.24312 0.25769 0.38101 0.0
C1209 C 0.24164 0.26228 0.40017 0.0
C1210 C 0.25267 0.22839 0.37365 0.0
C1211 C 0.29929 0.15695 0.38452 0.0
H1212 H 0.25093 0.11676 0.34549 0.0
C1213 C 0.33125 0.03088 0.36045 0.0
C1214 C 0.32955 0.02399 0.34157 0.0
C1215 C 0.31803 0.05883 0.36751 0.0
C1216 C 0.26499 0.12777 0.35622 0.0
H1217 H 0.24941 0.23956 0.42659 0.0
H1218 H 0.26662 0.18873 0.41374 0.0
H1219 H 0.23388 0.16823 0.35764 0.0
H1220 H 0.31171 0.04065 0.31533 0.0
H1221 H 0.28936 0.09004 0.32752 0.0
H1222 H 0.33096 0.11736 0.38288 0.0
C1223 C 0.26025 0.2078 0.40442 0.0
C1224 C 0.25513 0.15727 0.36321 0.0
C1225 C 0.25028 0.23692 0.41178 0.0
C1226 C 0.31318 0.04517 0.32998 0.0
C1227 C 0.30035 0.07352 0.33701 0.0
C1228 C 0.30937 0.12773 0.3774 0.0
C1229 C 0.26143 0.20313 0.38528 0.0
C1230 C 0.27206 0.17208 0.37753 0.0
C1231 C 0.30324 0.0811 0.35584 0.0
C1232 C 0.29226 0.1125 0.36325 0.0
H1233 H 0.23651 0.27663 0.37165 0.0
H1234 H 0.25359 0.22562 0.35885 0.0
H1235 H 0.31315 0.16798 0.39534 0.0
H1236 H 0.3434 0.01488 0.36979 0.0
H1237 H 0.31991 0.06316 0.38215 0.0
C1238 C 0.02965 0.99592 0.1607 0.0
C1239 C 1.00401 0.98885 0.14896 0.0
C1240 C 0.05887 1.00602 0.15352 0.0
C1241 C 0.10917 1.00302 0.11234 0.0
H1242 H 0.14939 0.07792 0.13292 0.0
C1243 C 0.22105 0.06161 0.07945 0.0
C1244 C 0.24225 0.07793 0.09103 0.0
C1245 C 0.19282 0.04861 0.08651 0.0
C1246 C 0.13895 0.05656 0.1272 0.0
H1247 H 0.98918 0.98656 0.12041 0.0
H1248 H 0.04046 1.00373 0.10788 0.0
H1249 H 0.09873 0.05977 0.14524 0.0
H1250 H 0.25156 0.09158 0.11926 0.0
H1251 H 0.2035 0.06764 0.1317 0.0
H1252 H 0.14966 0.99925 0.09458 0.0
C1253 C 0.03779 1.00157 0.12265 0.0
C1254 C 0.10971 0.04632 0.13422 0.0
C1255 C 1.00837 0.99197 0.12985 0.0
C1256 C 0.23552 0.07943 0.10994 0.0
C1257 C 0.20769 0.06597 0.11704 0.0
C1258 C 0.13872 0.01298 0.10547 0.0
C1259 C 0.06332 1.00879 0.13442 0.0
C1260 C 0.09445 0.01949 0.12686 0.0
C1261 C 0.18539 0.05121 0.10538 0.0
C1262 C 0.15408 0.03995 0.1128 0.0
H1263 H 0.02714 0.99378 0.17548 0.0
H1264 H 0.07818 0.01124 0.16292 0.0
H1265 H 0.09807 0.98207 0.10651 0.0
H1266 H 0.22545 0.06031 0.06478 0.0
H1267 H 0.17626 0.03771 0.07701 0.0
C1268 C 0.18909 0.98973 0.86283 0.0
C1269 C 0.19159 0.99642 0.84395 0.0
C1270 C 0.20229 0.96199 0.8702 0.0
C1271 C 0.25581 0.89287 0.85947 0.0
H1272 H 0.20743 0.85328 0.89875 0.0
C1273 C 0.27474 0.76235 0.88394 0.0
C1274 C 0.27755 0.75793 0.90306 0.0
C1275 C 0.26558 0.79186 0.87671 0.0
C1276 C 0.22132 0.86415 0.88788 0.0
H1277 H 0.21067 0.97964 0.81805 0.0
H1278 H 0.23276 0.93057 0.83069 0.0
H1279 H 0.18994 0.90394 0.88617 0.0
H1280 H 0.2725 0.78107 0.92957 0.0
H1281 H 0.2557 0.8323 0.91693 0.0
H1282 H 0.28643 0.85203 0.86087 0.0
C1283 C 0.22133 0.9471 0.84 0.0
C1284 C 0.21146 0.89341 0.8807 0.0
C1285 C 0.20863 0.97528 0.83269 0.0
C1286 C 0.27057 0.78363 0.91478 0.0
C1287 C 0.26087 0.81295 0.90756 0.0
C1288 C 0.26536 0.86328 0.86648 0.0
C1289 C 0.21774 0.93969 0.85882 0.0
C1290 C 0.22864 0.9084 0.86646 0.0
C1291 C 0.25847 0.81746 0.88844 0.0
C1292 C 0.24829 0.8487 0.88082 0.0
H1293 H 0.17635 1.00573 0.87191 0.0
H1294 H 0.19986 0.95786 0.88483 0.0
H1295 H 0.27 0.90367 0.84873 0.0
H1296 H 0.2801 0.74313 0.87451 0.0
H1297 H 0.26369 0.79457 0.86193 0.0
C1298 C 0.51247 0.03029 0.62611 0.0
C1299 C 0.51618 0.03213 0.64533 0.0
C1300 C 0.48359 0.02024 0.61838 0.0
C1301 C 0.41253 0.97271 0.6288 0.0
H1302 H 0.37232 0.01949 0.58911 0.0
C1303 C 0.28653 0.94002 0.60563 0.0
C1304 C 0.27952 0.94041 0.58673 0.0
C1305 C 0.31452 0.95368 0.6123 0.0
C1306 C 0.38337 1.00589 0.60003 0.0
H1307 H 0.49236 0.02459 0.67145 0.0
H1308 H 0.44234 1.00659 0.65799 0.0
H1309 H 0.42353 0.03744 0.60134 0.0
H1310 H 0.29588 0.9565 0.56006 0.0
H1311 H 0.34545 0.97973 0.57162 0.0
H1312 H 0.37322 0.94069 0.62735 0.0
C1313 C 0.46174 0.01302 0.6489 0.0
C1314 C 0.41271 0.01624 0.60705 0.0
C1315 C 0.4904 0.02345 0.65661 0.0
C1316 C 0.30054 0.95604 0.57471 0.0
C1317 C 0.32897 0.96934 0.58138 0.0
C1318 C 0.3835 0.96217 0.62168 0.0
C1319 C 0.45795 0.01134 0.62971 0.0
C1320 C 0.42742 0.99994 0.62166 0.0
C1321 C 0.33672 0.9676 0.60023 0.0
C1322 C 0.36821 0.97881 0.60735 0.0
H1323 H 0.53177 0.03693 0.617 0.0
H1324 H 0.48147 0.01898 0.60355 0.0
H1325 H 0.42353 0.95928 0.63981 0.0
H1326 H 0.27061 0.92848 0.61528 0.0
H1327 H 0.31898 0.95275 0.62696 0.0
C1328 C 0.25098 0.18182 -0.00199 0.0
C1329 C 0.2515 0.15562 0.00998 0.0
C1330 C 0.22882 0.18326 0.98373 0.0
C1331 C 0.17812 0.12969 0.95624 0.0
H1332 H 0.14696 0.20877 0.93539 0.0
C1333 C 0.10344 0.12485 0.8924 0.0
C1334 C 0.11812 0.14073 0.87767 0.0
C1335 C 0.11107 0.13273 0.91045 0.0
C1336 C 0.15534 0.18657 0.9412 0.0
H1337 H 0.22823 0.11137 0.01723 0.0
H1338 H 0.18866 0.11444 0.99285 0.0
H1339 H 0.1773 0.20969 0.96417 0.0
H1340 H 0.14939 0.17956 0.8701 0.0
H1341 H 0.16328 0.19309 0.90189 0.0
H1342 H 0.1565 0.10659 0.93334 0.0
C1343 C 0.20611 0.1333 -0.00607 0.0
C1344 C 0.17287 0.18703 0.95757 0.0
C1345 C 0.2287 0.13153 0.00794 0.0
C1346 C 0.13784 0.16696 0.88126 0.0
C1347 C 0.14571 0.17472 0.89942 0.0
C1348 C 0.16028 0.12921 0.94014 0.0
C1349 C 0.20635 0.1588 0.98137 0.0
C1350 C 0.18496 0.15858 0.9651 0.0
C1351 C 0.13373 0.15642 0.91407 0.0
C1352 C 0.14911 0.15762 0.93232 0.0
H1353 H 0.26835 0.20073 -0.00069 0.0
H1354 H 0.23012 0.203 0.97419 0.0
H1355 H 0.18764 0.10738 0.96125 0.0
H1356 H 0.08769 0.10488 0.88996 0.0
H1357 H 0.1011 0.11868 0.92154 0.0
C1358 C 0.60018 0.39074 0.11783 0.0
C1359 C 0.6279 0.37211 0.1174 0.0
C1360 C 0.58835 0.4018 0.13463 0.0
C1361 C 0.59854 0.4452 0.16768 0.0
H1362 H 0.59464 0.40144 0.21464 0.0
C1363 C 0.63362 0.50333 0.23599 0.0
C1364 C 0.61035 0.50282 0.24984 0.0
C1365 C 0.62974 0.48503 0.22014 0.0
C1366 C 0.59534 0.41385 0.20158 0.0
H1367 H 0.66284 0.34734 0.13399 0.0
H1368 H 0.64182 0.36605 0.16329 0.0
H1369 H 0.59429 0.37055 0.18596 0.0
H1370 H 0.56547 0.48188 0.25838 0.0
H1371 H 0.55933 0.44906 0.23078 0.0
H1372 H 0.6016 0.48831 0.18326 0.0
C1373 C 0.6294 0.37243 0.15076 0.0
C1374 C 0.59508 0.39628 0.18525 0.0
C1375 C 0.64155 0.36189 0.134 0.0
C1376 C 0.5837 0.48285 0.24784 0.0
C1377 C 0.58017 0.46405 0.23215 0.0
C1378 C 0.59938 0.46266 0.18396 0.0
C1379 C 0.60374 0.39378 0.15116 0.0
C1380 C 0.59735 0.41182 0.16819 0.0
C1381 C 0.60289 0.46547 0.21806 0.0
C1382 C 0.59854 0.44707 0.20101 0.0
H1383 H 0.5893 0.39898 0.10518 0.0
H1384 H 0.56844 0.41818 0.13464 0.0
H1385 H 0.60081 0.45774 0.15472 0.0
H1386 H 0.65432 0.51857 0.23715 0.0
H1387 H 0.64769 0.48619 0.20945 0.0
C1388 C 0.28147 0.83364 0.50492 0.0
C1389 C 0.26096 0.86 0.50625 0.0
C1390 C 0.30091 0.82972 0.48952 0.0
C1391 C 0.304 0.84644 0.44116 0.0
H1392 H 0.39616 0.84437 0.44455 0.0
C1393 C 0.40537 0.88937 0.39193 0.0
C1394 C 0.39632 0.87449 0.37546 0.0
C1395 C 0.39457 0.87772 0.40876 0.0
C1396 C 0.37044 0.8443 0.44347 0.0
H1397 H 0.24483 0.90301 0.49269 0.0
H1398 H 0.27837 0.89566 0.46547 0.0
H1399 H 0.36397 0.84526 0.47276 0.0
H1400 H 0.37141 0.83423 0.36362 0.0
H1401 H 0.35176 0.81429 0.39316 0.0
H1402 H 0.31019 0.84648 0.41199 0.0
C1403 C 0.27944 0.87828 0.47646 0.0
C1404 C 0.35214 0.84487 0.45953 0.0
C1405 C 0.26048 0.88256 0.49203 0.0
C1406 C 0.37867 0.84615 0.37615 0.0
C1407 C 0.36739 0.83479 0.393 0.0
C1408 C 0.32221 0.84529 0.42516 0.0
C1409 C 0.29961 0.85174 0.47508 0.0
C1410 C 0.31886 0.84701 0.45841 0.0
C1411 C 0.37416 0.85132 0.40932 0.0
C1412 C 0.35559 0.84519 0.42617 0.0
H1413 H 0.28242 0.81598 0.51576 0.0
H1414 H 0.31637 0.80914 0.48868 0.0
H1415 H 0.27831 0.84782 0.44006 0.0
H1416 H 0.41923 0.9111 0.39175 0.0
H1417 H 0.39996 0.891 0.42114 0.0
C1418 C 0.92257 0.63412 0.61913 0.0
C1419 C 0.89507 0.65307 0.61862 0.0
C1420 C 0.93436 0.62331 0.636 0.0
C1421 C 0.92355 0.58031 0.66906 0.0
H1422 H 0.92547 0.62395 0.71607 0.0
C1423 C 0.88576 0.52091 0.73648 0.0
C1424 C 0.90773 0.52232 0.751 0.0
C1425 C 0.89033 0.53935 0.72073 0.0
C1426 C 0.92533 0.61154 0.70301 0.0
H1427 H 0.86065 0.67878 0.63509 0.0
H1428 H 0.88155 0.66048 0.66448 0.0
H1429 H 0.92748 0.65487 0.68744 0.0
H1430 H 0.95091 0.54508 0.7608 0.0
H1431 H 0.95828 0.578 0.73337 0.0
H1432 H 0.91954 0.53718 0.68455 0.0
C1433 C 0.89387 0.65367 0.65199 0.0
C1434 C 0.92654 0.62915 0.68671 0.0
C1435 C 0.88178 0.66399 0.63517 0.0
C1436 C 0.93368 0.54339 0.74976 0.0
C1437 C 0.9379 0.56226 0.73414 0.0
C1438 C 0.92183 0.56282 0.68531 0.0
C1439 C 0.91912 0.63183 0.6525 0.0
C1440 C 0.92492 0.61369 0.66959 0.0
C1441 C 0.9166 0.5599 0.71938 0.0
C1442 C 0.92188 0.57834 0.70239 0.0
H1443 H 0.93316 0.62534 0.60652 0.0
H1444 H 0.954 0.6066 0.63608 0.0
H1445 H 0.92178 0.5678 0.65607 0.0
H1446 H 0.86563 0.50484 0.73703 0.0
H1447 H 0.87341 0.53747 0.70954 0.0
C1448 C 0.87562 0.85571 0.10946 0.0
C1449 C 0.89459 0.88295 0.11159 0.0
C1450 C 0.86554 0.84648 0.09194 0.0
C1451 C 0.82457 0.86072 0.05849 0.0
H1452 H 0.87151 0.86345 0.01253 0.0
C1453 C 0.76636 0.89707 0.99056 0.0
C1454 C 0.76958 0.87509 0.97615 0.0
C1455 C 0.7849 0.89406 0.00639 0.0
C1456 C 0.85821 0.86243 0.02529 0.0
H1457 H 0.92094 0.91967 0.09721 0.0
H1458 H 0.90375 0.9033 0.06667 0.0
H1459 H 0.90048 0.86014 0.0418 0.0
H1460 H 0.79596 0.83396 0.96646 0.0
H1461 H 0.82891 0.82928 -0.00597 0.0
H1462 H 0.78242 0.86447 0.04213 0.0
C1463 C 0.89639 0.88925 0.07843 0.0
C1464 C 0.8747 0.86046 0.04195 0.0
C1465 C 0.90603 0.89876 0.09591 0.0
C1466 C 0.79284 0.85112 0.97743 0.0
C1467 C 0.81174 0.84845 0.99313 0.0
C1468 C 0.80817 0.86318 0.04191 0.0
C1469 C 0.8748 0.86404 0.07638 0.0
C1470 C 0.85798 0.86014 0.0587 0.0
C1471 C 0.8073 0.86938 0.0079 0.0
C1472 C 0.82488 0.86471 0.02523 0.0
H1473 H 0.86651 0.84313 0.12136 0.0
H1474 H 0.84902 0.82682 0.09064 0.0
H1475 H 0.81112 0.86101 0.07121 0.0
H1476 H 0.74859 0.91572 0.98995 0.0
H1477 H 0.78139 0.91068 0.01759 0.0
C1478 C 0.41221 0.63821 0.8618 0.0
C1479 C 0.38043 0.64779 0.86416 0.0
C1480 C 0.42352 0.63011 0.84431 0.0
C1481 C 0.40135 0.62975 0.79442 0.0
H1482 H 0.44134 0.54664 0.79503 0.0
C1483 C 0.38339 0.53534 0.73835 0.0
C1484 C 0.40995 0.51766 0.7326 0.0
C1485 C 0.38614 0.55705 0.7528 0.0
C1486 C 0.43072 0.57011 0.79459 0.0
H1487 H 0.33648 0.65912 0.84987 0.0
H1488 H 0.35575 0.64443 0.81975 0.0
H1489 H 0.43658 0.57658 0.82351 0.0
H1490 H 0.46033 0.50921 0.73732 0.0
H1491 H 0.4648 0.54671 0.76275 0.0
H1492 H 0.39364 0.62204 0.76562 0.0
C1493 C 0.37221 0.64333 0.8312 0.0
C1494 C 0.42815 0.58741 0.8109 0.0
C1495 C 0.36098 0.65142 0.84858 0.0
C1496 C 0.43937 0.52242 0.74144 0.0
C1497 C 0.442 0.54385 0.756 0.0
C1498 C 0.40359 0.61226 0.77816 0.0
C1499 C 0.40324 0.63153 0.82892 0.0
C1500 C 0.41239 0.61691 0.81112 0.0
C1501 C 0.41538 0.56122 0.76186 0.0
C1502 C 0.41738 0.58187 0.77825 0.0
H1503 H 0.42785 0.63545 0.87353 0.0
H1504 H 0.44771 0.62154 0.84295 0.0
H1505 H 0.38968 0.65272 0.79407 0.0
H1506 H 0.36047 0.53234 0.73176 0.0
H1507 H 0.36514 0.56989 0.75725 0.0
C1508 C 0.64109 0.17472 0.61349 0.0
C1509 C 0.62252 0.14697 0.61394 0.0
C1510 C 0.65222 0.18648 0.59668 0.0
C1511 C 0.69612 0.17604 0.56392 0.0
H1512 H 0.65323 0.17797 0.51666 0.0
C1513 C 0.75587 0.13819 0.49661 0.0
C1514 C 0.75518 0.16048 0.48224 0.0
C1515 C 0.73733 0.14286 0.51231 0.0
C1516 C 0.66541 0.17784 0.5298 0.0
H1517 H 0.59784 0.11196 0.59737 0.0
H1518 H 0.61672 0.1328 0.56807 0.0
H1519 H 0.62178 0.17935 0.54514 0.0
H1520 H 0.7337 0.20443 0.47265 0.0
H1521 H 0.7005 0.21197 0.49998 0.0
H1522 H 0.73957 0.17254 0.54865 0.0
C1523 C 0.62299 0.14533 0.58058 0.0
C1524 C 0.64752 0.17869 0.54601 0.0
C1525 C 0.61235 0.13327 0.59735 0.0
C1526 C 0.73481 0.18695 0.48358 0.0
C1527 C 0.7158 0.19127 0.49914 0.0
C1528 C 0.71391 0.17465 0.54776 0.0
C1529 C 0.64437 0.17096 0.58017 0.0
C1530 C 0.66273 0.17706 0.5632 0.0
C1531 C 0.71737 0.16955 0.51373 0.0
C1532 C 0.69865 0.17472 0.53061 0.0
H1533 H 0.64927 0.18566 0.62612 0.0
H1534 H 0.6686 0.20638 0.59666 0.0
H1535 H 0.70843 0.17427 0.57697 0.0
H1536 H 0.77141 0.11766 0.49597 0.0
H1537 H 0.73862 0.12566 0.52339 0.0
C1538 C 0.14114 0.35648 0.35022 0.0
C1539 C 0.12713 0.36715 0.36663 0.0
C1540 C 0.12936 0.36657 0.33328 0.0
C1541 C 0.09677 0.39019 0.29826 0.0
H1542 H 0.10183 0.4823 0.30026 0.0
C1543 C 0.08724 0.47652 0.23542 0.0
C1544 C 0.11307 0.49771 0.23408 0.0
C1545 C 0.08355 0.45732 0.25095 0.0
C1546 C 0.10007 0.45662 0.29954 0.0
H1547 H 0.08811 0.39415 0.37831 0.0
H1548 H 0.06785 0.41245 0.34855 0.0
H1549 H 0.10001 0.4518 0.32879 0.0
H1550 H 0.15556 0.51502 0.24772 0.0
H1551 H 0.14867 0.48187 0.27509 0.0
H1552 H 0.09786 0.39528 0.26887 0.0
C1553 C 0.08782 0.39615 0.34885 0.0
C1554 C 0.09861 0.43918 0.31582 0.0
C1555 C 0.09931 0.3856 0.36583 0.0
C1556 C 0.1355 0.49886 0.24836 0.0
C1557 C 0.13146 0.48012 0.26403 0.0
C1558 C 0.09769 0.40774 0.28192 0.0
C1559 C 0.10369 0.38788 0.33251 0.0
C1560 C 0.09791 0.40579 0.31534 0.0
C1561 C 0.10528 0.4595 0.26552 0.0
C1562 C 0.10041 0.441 0.2825 0.0
H1563 H 0.16249 0.34202 0.3505 0.0
H1564 H 0.14215 0.35997 0.32091 0.0
H1565 H 0.09635 0.36445 0.29757 0.0
H1566 H 0.06967 0.47503 0.22455 0.0
H1567 H 0.06324 0.44152 0.25184 0.0
C1568 C 0.64279 0.65614 0.37231 0.0
C1569 C 0.62416 0.62868 0.37012 0.0
C1570 C 0.65303 0.66524 0.38982 0.0
C1571 C 0.69417 0.65207 0.42343 0.0
H1572 H 0.64661 0.65059 0.4692 0.0
C1573 C 0.75205 0.62131 0.4924 0.0
C1574 C 0.74848 0.64446 0.50616 0.0
C1575 C 0.73357 0.62274 0.47648 0.0
C1576 C 0.66006 0.65124 0.45649 0.0
H1577 H 0.59881 0.59118 0.38446 0.0
H1578 H 0.61632 0.60734 0.415 0.0
H1579 H 0.618 0.65154 0.43974 0.0
H1580 H 0.72159 0.68607 0.51461 0.0
H1581 H 0.68873 0.68796 0.48688 0.0
H1582 H 0.73614 0.65033 0.44006 0.0
C1583 C 0.62326 0.62165 0.40326 0.0
C1584 C 0.64379 0.65184 0.43972 0.0
C1585 C 0.61345 0.61227 0.38578 0.0
C1586 C 0.72498 0.66804 0.50415 0.0
C1587 C 0.70613 0.66911 0.48836 0.0
C1588 C 0.71036 0.65093 0.44013 0.0
C1589 C 0.64427 0.64732 0.40534 0.0
C1590 C 0.66076 0.65184 0.42306 0.0
C1591 C 0.71088 0.64696 0.47423 0.0
C1592 C 0.69344 0.64995 0.45675 0.0
H1593 H 0.65133 0.66921 0.36045 0.0
H1594 H 0.66912 0.68524 0.39115 0.0
H1595 H 0.7078 0.65158 0.41078 0.0
H1596 H 0.77 0.60293 0.49358 0.0
H1597 H 0.73736 0.60523 0.46576 0.0
C1598 C 0.15653 0.86015 0.64202 0.0
C1599 C 0.13856 0.87221 0.6273 0.0
C1600 C 0.14979 0.86934 0.65998 0.0
C1601 C 0.09508 0.91117 0.69102 0.0
H1602 H 0.17273 0.95018 0.70905 0.0
C1603 C 0.09556 1.00582 0.7483 0.0
C1604 C 0.12203 1.00775 0.76004 0.0
C1605 C 0.09536 0.98446 0.73363 0.0
C1606 C 0.15095 0.93883 0.70456 0.0
H1607 H 0.09743 0.90051 0.61985 0.0
H1608 H 0.08573 0.91697 0.6515 0.0
H1609 H 0.17408 0.91882 0.68115 0.0
H1610 H 0.16844 0.98797 0.76622 0.0
H1611 H 0.16771 0.9498 0.74101 0.0
H1612 H 0.07191 0.93128 0.71452 0.0
C1613 C 0.10496 0.90033 0.64906 0.0
C1614 C 0.15173 0.92092 0.68849 0.0
C1615 C 0.11165 0.89097 0.63099 0.0
C1616 C 0.14794 0.98731 0.75718 0.0
C1617 C 0.1475 0.96551 0.74271 0.0
C1618 C 0.09435 0.92878 0.70734 0.0
C1619 C 0.12504 0.89085 0.66353 0.0
C1620 C 0.1238 0.90721 0.68146 0.0
C1621 C 0.12142 0.96419 0.73057 0.0
C1622 C 0.12225 0.9432 0.71415 0.0
H1623 H 0.17707 0.84514 0.63956 0.0
H1624 H 0.16524 0.86129 0.67097 0.0
H1625 H 0.07327 0.90076 0.68583 0.0
H1626 H 0.07527 0.0214 0.75016 0.0
H1627 H 0.07514 0.98457 0.72441 0.0
C1628 C 0.87447 0.35681 0.86799 0.0
C1629 C 0.89424 0.38365 0.86687 0.0
C1630 C 0.8637 0.34617 0.88513 0.0
C1631 C 0.8227 0.35805 0.91908 0.0
H1632 H 0.86962 0.35427 0.965 0.0
C1633 C 0.76712 0.39111 0.98845 0.0
C1634 C 0.76972 0.36816 0.0024 0.0
C1635 C 0.78479 0.38806 0.97229 0.0
C1636 C 0.85631 0.355 0.95224 0.0
H1637 H 0.92103 0.41832 0.88257 0.0
H1638 H 0.90283 0.39936 0.91244 0.0
H1639 H 0.89851 0.35321 0.93564 0.0
H1640 H 0.79391 0.32489 0.01079 0.0
H1641 H 0.82547 0.32015 0.98264 0.0
H1642 H 0.78067 0.36149 0.93561 0.0
C1643 C 0.89536 0.3867 0.9002 0.0
C1644 C 0.87275 0.35434 0.93553 0.0
C1645 C 0.90562 0.39766 0.88311 0.0
C1646 C 0.79131 0.34286 0.00021 0.0
C1647 C 0.8094 0.34014 0.98418 0.0
C1648 C 0.80636 0.35922 0.93575 0.0
C1649 C 0.87312 0.36187 0.90131 0.0
C1650 C 0.85609 0.35645 0.91881 0.0
C1651 C 0.80575 0.36234 0.96995 0.0
C1652 C 0.82307 0.3584 0.95244 0.0
H1653 H 0.8653 0.34571 0.85563 0.0
H1654 H 0.84663 0.32688 0.88569 0.0
H1655 H 0.80931 0.36018 0.9064 0.0
H1656 H 0.75061 0.41078 0.98973 0.0
H1657 H 0.78191 0.40566 0.96152 0.0
C1658 C 0.38005 0.01016 0.24515 0.0
C1659 C 0.40319 0.01164 0.25904 0.0
C1660 C 0.3833 0.02856 0.22928 0.0
C1661 C 0.41712 0.10024 0.21019 0.0
H1662 H 0.41281 0.05479 0.16381 0.0
C1663 C 0.41765 0.12067 0.12617 0.0
C1664 C 0.39085 0.14051 0.12493 0.0
C1665 C 0.42778 0.10957 0.14332 0.0
C1666 C 0.41469 0.06775 0.17664 0.0
H1667 H 0.44699 0.03458 0.2677 0.0
H1668 H 0.45209 0.06742 0.24007 0.0
H1669 H 0.41077 0.02522 0.19268 0.0
H1670 H 0.35588 0.1672 0.14052 0.0
H1671 H 0.37387 0.14822 0.17041 0.0
H1672 H 0.41938 0.14296 0.19407 0.0
C1673 C 0.43181 0.05167 0.24141 0.0
C1674 C 0.41311 0.05088 0.19311 0.0
C1675 C 0.42889 0.03284 0.25713 0.0
C1676 C 0.37642 0.15165 0.14112 0.0
C1677 C 0.38686 0.14098 0.15823 0.0
C1678 C 0.41817 0.11723 0.19367 0.0
C1679 C 0.4094 0.04913 0.22722 0.0
C1680 C 0.41365 0.06704 0.20998 0.0
C1681 C 0.4116 0.11866 0.1594 0.0
C1682 C 0.41641 0.10111 0.17677 0.0
H1683 H 0.36006 0.99399 0.24624 0.0
H1684 H 0.36558 0.02653 0.21852 0.0
H1685 H 0.41764 0.1131 0.2231 0.0
H1686 H 0.42919 0.11176 0.11388 0.0
H1687 H 0.44705 0.09247 0.14394 0.0
C1688 C 0.41717 0.39681 0.60034 0.0
C1689 C 0.39953 0.38444 0.61508 0.0
C1690 C 0.40927 0.38893 0.5823 0.0
C1691 C 0.35437 0.33977 0.55343 0.0
H1692 H 0.3523 0.4166 0.52388 0.0
C1693 C 0.27595 0.39716 0.49105 0.0
C1694 C 0.27275 0.37051 0.47958 0.0
C1695 C 0.2969 0.39645 0.50594 0.0
C1696 C 0.3526 0.39494 0.53195 0.0
H1697 H 0.36151 0.3524 0.62283 0.0
H1698 H 0.34663 0.33958 0.59128 0.0
H1699 H 0.37993 0.41683 0.55309 0.0
H1700 H 0.29001 0.32271 0.47423 0.0
H1701 H 0.32706 0.3218 0.49994 0.0
H1702 H 0.32498 0.31867 0.53277 0.0
C1703 C 0.3671 0.35472 0.59352 0.0
C1704 C 0.36898 0.39485 0.54861 0.0
C1705 C 0.37553 0.36208 0.61163 0.0
C1706 C 0.29167 0.34353 0.48294 0.0
C1707 C 0.31282 0.34293 0.49773 0.0
C1708 C 0.33767 0.33997 0.53681 0.0
C1709 C 0.38298 0.36924 0.57864 0.0
C1710 C 0.36953 0.36748 0.55977 0.0
C1711 C 0.31535 0.36921 0.50956 0.0
C1712 C 0.33598 0.36781 0.52611 0.0
H1713 H 0.43607 0.41385 0.60275 0.0
H1714 H 0.42267 0.39972 0.5712 0.0
H1715 H 0.35464 0.31816 0.56154 0.0
H1716 H 0.26162 0.41825 0.48887 0.0
H1717 H 0.29786 0.41694 0.51495 0.0
C1718 C 0.87447 0.1521 0.34855 0.0
C1719 C 0.889 0.14132 0.36478 0.0
C1720 C 0.88495 0.14123 0.33149 0.0
C1721 C 0.91684 0.11743 0.29623 0.0
H1722 H 0.90847 0.0255 0.29729 0.0
C1723 C 0.9272 0.03325 0.23278 0.0
C1724 C 0.90111 0.01258 0.23069 0.0
C1725 C 0.9303 0.05176 0.2486 0.0
C1726 C 0.91109 0.05113 0.29685 0.0
H1727 H 0.9274 0.11288 0.37599 0.0
H1728 H 0.94529 0.09311 0.34601 0.0
H1729 H 0.91053 0.05512 0.32615 0.0
H1730 H 0.85759 0.99543 0.24329 0.0
H1731 H 0.86345 0.02742 0.27122 0.0
H1732 H 0.91659 0.11325 0.26681 0.0
C1733 C 0.92599 0.11017 0.34656 0.0
C1734 C 0.91268 0.06802 0.3133 0.0
C1735 C 0.91584 0.12153 0.36365 0.0
C1736 C 0.87786 0.01122 0.24453 0.0
C1737 C 0.88131 0.02929 0.26051 0.0
C1738 C 0.9158 0.10042 0.27973 0.0
C1739 C 0.90979 0.11901 0.33043 0.0
C1740 C 0.91473 0.10136 0.31314 0.0
C1741 C 0.90772 0.04942 0.26271 0.0
C1742 C 0.91198 0.06725 0.27997 0.0
H1743 H 0.85386 0.16757 0.34909 0.0
H1744 H 0.87194 0.14824 0.31928 0.0
H1745 H 0.91829 0.14315 0.29581 0.0
H1746 H 0.94539 0.03489 0.22226 0.0
H1747 H 0.95082 0.06717 0.25006 0.0
C1748 C 0.14475 0.66466 0.11811 0.0
C1749 C 0.1251 0.63768 0.11881 0.0
C1750 C 0.15627 0.67556 0.1012 0.0
C1751 C 0.19903 0.6635 0.06797 0.0
H1752 H 0.15458 0.66964 0.02133 0.0
C1753 C 0.25633 0.63112 -0.00119 0.0
C1754 C 0.2553 0.6549 0.98527 0.0
C1755 C 0.23829 0.63418 0.01484 0.0
C1756 C 0.1672 0.66824 0.0343 0.0
H1757 H 0.09923 0.60307 0.10256 0.0
H1758 H 0.11874 0.62255 0.07305 0.0
H1759 H 0.12417 0.67005 0.0502 0.0
H1760 H 0.2337 0.69985 0.97747 0.0
H1761 H 0.20142 0.7046 0.00535 0.0
H1762 H 0.24184 0.65989 0.05212 0.0
C1763 C 0.12554 0.63507 0.08547 0.0
C1764 C 0.1499 0.66854 0.05073 0.0
C1765 C 0.11453 0.62382 0.10234 0.0
C1766 C 0.23508 0.68123 0.98775 0.0
C1767 C 0.21657 0.68396 0.00362 0.0
C1768 C 0.21621 0.66262 0.05158 0.0
C1769 C 0.14771 0.66 0.08483 0.0
C1770 C 0.16568 0.66563 0.06768 0.0
C1771 C 0.21848 0.66074 0.0174 0.0
C1772 C 0.20038 0.66435 0.03464 0.0
H1773 H 0.15329 0.67567 0.13065 0.0
H1774 H 0.17329 0.69492 0.10099 0.0
H1775 H 0.21172 0.66073 0.08085 0.0
H1776 H 0.27177 0.61065 -0.00273 0.0
H1777 H 0.23985 0.61586 0.02529 0.0
C1778 C 0.63641 0.85545 0.84766 0.0
C1779 C 0.62661 0.87414 0.86258 0.0
C1780 C 0.62802 0.86393 0.82978 0.0
C1781 C 0.58299 0.92327 0.80165 0.0
H1782 H 0.65951 0.92014 0.77179 0.0
C1783 C 0.64504 0.9976 0.73899 0.0
C1784 C 0.61876 1.00189 0.72733 0.0
C1785 C 0.64298 0.97711 0.75407 0.0
C1786 C 0.63796 0.92128 0.77995 0.0
H1787 H 0.59852 0.91472 0.87096 0.0
H1788 H 0.58474 0.93052 0.83965 0.0
H1789 H 0.65793 0.89192 0.80083 0.0
H1790 H 0.57008 0.98713 0.72196 0.0
H1791 H 0.56679 0.95103 0.74804 0.0
H1792 H 0.56392 0.95445 0.78117 0.0
C1793 C 0.59818 0.90881 0.84163 0.0
C1794 C 0.63679 0.9046 0.7965 0.0
C1795 C 0.60602 0.89984 0.85959 0.0
C1796 C 0.5907 0.9846 0.73077 0.0
C1797 C 0.58872 0.964 0.74577 0.0
C1798 C 0.58426 0.94018 0.7851 0.0
C1799 C 0.61052 0.89187 0.8265 0.0
C1800 C 0.60952 0.90585 0.80774 0.0
C1801 C 0.6147 0.9603 0.75771 0.0
C1802 C 0.61206 0.93991 0.77429 0.0
H1803 H 0.65225 0.83542 0.84976 0.0
H1804 H 0.63709 0.84981 0.81848 0.0
H1805 H 0.56155 0.92452 0.80988 0.0
H1806 H 0.66693 0.01065 0.73677 0.0
H1807 H 0.6633 0.97515 0.76316 0.0
loop_
_geom_bond_atom_site_label_1
_geom_bond_atom_site_label_2
_geom_bond_distance
_geom_bond_site_symmetry_2
_ccdc_geom_bond_type
O0 Zn1 1.953 . S
O0 C16 1.225 . S
Zn1 O0 1.953 . S
Zn1 O2 1.949 . S
Zn1 O8 1.919 . S
Zn1 O13 1.924 . S
O2 Zn1 1.949 . S
O2 Zn3 1.923 . S
O2 Zn4 1.950 . S
O2 Zn5 1.945 . S
Zn3 O2 1.923 . S
Zn3 O6 1.933 . S
Zn3 O9 1.941 . S
Zn3 O10 1.965 . S
Zn4 O2 1.950 . S
Zn4 O11 1.938 . S
Zn4 O12 1.906 . S
Zn4 O22 1.953 . S
Zn5 O2 1.945 . S
Zn5 O7 1.932 . S
Zn5 O14 1.977 . S
Zn5 O15 1.910 . S
O6 Zn3 1.933 . S
O6 C17 1.226 . S
O7 Zn5 1.932 . S
O7 C17 1.307 . S
O8 Zn1 1.919 . S
O8 C19 1.253 . S
O9 Zn3 1.941 . S
O9 C19 1.283 . S
O10 Zn3 1.965 . S
O10 C18 1.303 . S
O11 Zn4 1.938 . S
O11 C18 1.247 . S
O12 Zn4 1.906 . S
O12 C20 1.304 . S
O13 Zn1 1.924 . S
O13 C21 1.311 . S
O14 Zn5 1.977 . S
O14 C20 1.272 . S
O15 Zn5 1.910 . S
O15 C21 1.231 . S
C16 O0 1.225 . S
C16 O22 1.298 . S
C17 O6 1.226 . S
C17 O7 1.307 . S
C18 O10 1.303 . S
C18 O11 1.247 . S
C19 O8 1.253 . S
C19 O9 1.283 . S
C20 O12 1.304 . S
C20 O14 1.272 . S
C21 O13 1.311 . S
C21 O15 1.231 . S
O22 Zn4 1.953 . S
O22 C16 1.298 . S
O23 Zn24 1.953 . S
O23 C39 1.225 . S
Zn24 O23 1.953 . S
Zn24 O25 1.949 . S
Zn24 O31 1.919 . S
Zn24 O36 1.924 . S
O25 Zn24 1.949 . S
O25 Zn26 1.923 . S
O25 Zn27 1.950 . S
O25 Zn28 1.945 . S
Zn26 O25 1.923 . S
Zn26 O29 1.933 . S
Zn26 O32 1.941 . S
Zn26 O33 1.965 . S
Zn27 O25 1.950 . S
Zn27 O34 1.938 . S
Zn27 O35 1.906 . S
Zn27 O45 1.953 . S
Zn28 O25 1.945 . S
Zn28 O30 1.932 . S
Zn28 O37 1.977 . S
Zn28 O38 1.910 . S
O29 Zn26 1.933 . S
O29 C40 1.226 . S
O30 Zn28 1.932 . S
O30 C40 1.307 . S
O31 Zn24 1.919 . S
O31 C42 1.253 . S
O32 Zn26 1.941 . S
O32 C42 1.283 . S
O33 Zn26 1.965 . S
O33 C41 1.303 . S
O34 Zn27 1.938 . S
O34 C41 1.247 . S
O35 Zn27 1.906 . S
O35 C43 1.304 . S
O36 Zn24 1.924 . S
O36 C44 1.311 . S
O37 Zn28 1.977 . S
O37 C43 1.272 . S
O38 Zn28 1.910 . S
O38 C44 1.231 . S
C39 O23 1.225 . S
C39 O45 1.298 . S
C40 O29 1.226 . S
C40 O30 1.307 . S
C41 O33 1.303 . S
C41 O34 1.247 . S
C42 O31 1.253 . S
C42 O32 1.283 . S
C43 O35 1.304 . S
C43 O37 1.272 . S
C44 O36 1.311 . S
C44 O38 1.231 . S
O45 Zn27 1.953 . S
O45 C39 1.298 . S
O46 Zn47 1.953 . S
O46 C62 1.225 . S
Zn47 O46 1.953 . S
Zn47 O48 1.949 . S
Zn47 O54 1.919 . S
Zn47 O59 1.924 . S
O48 Zn47 1.949 . S
O48 Zn49 1.923 . S
O48 Zn50 1.950 . S
O48 Zn51 1.945 . S
Zn49 O48 1.923 . S
Zn49 O52 1.933 . S
Zn49 O55 1.941 . S
Zn49 O56 1.965 . S
Zn50 O48 1.950 . S
Zn50 O57 1.938 . S
Zn50 O58 1.906 . S
Zn50 O68 1.953 . S
Zn51 O48 1.945 . S
Zn51 O53 1.932 . S
Zn51 O60 1.977 . S
Zn51 O61 1.910 . S
O52 Zn49 1.933 . S
O52 C63 1.226 . S
O53 Zn51 1.932 . S
O53 C63 1.307 . S
O54 Zn47 1.919 . S
O54 C65 1.253 . S
O55 Zn49 1.941 . S
O55 C65 1.283 . S
O56 Zn49 1.965 . S
O56 C64 1.303 . S
O57 Zn50 1.938 . S
O57 C64 1.247 . S
O58 Zn50 1.906 . S
O58 C66 1.304 . S
O59 Zn47 1.924 . S
O59 C67 1.311 . S
O60 Zn51 1.977 . S
O60 C66 1.272 . S
O61 Zn51 1.910 . S
O61 C67 1.231 . S
C62 O46 1.225 . S
C62 O68 1.298 . S
C63 O52 1.226 . S
C63 O53 1.307 . S
C64 O56 1.303 . S
C64 O57 1.247 . S
C65 O54 1.253 . S
C65 O55 1.283 . S
C66 O58 1.304 . S
C66 O60 1.272 . S
C67 O59 1.311 . S
C67 O61 1.231 . S
O68 Zn50 1.953 . S
O68 C62 1.298 . S
O69 Zn70 1.953 . S
O69 C85 1.225 . S
Zn70 O69 1.953 . S
Zn70 O71 1.949 . S
Zn70 O77 1.919 . S
Zn70 O82 1.924 . S
O71 Zn70 1.949 . S
O71 Zn72 1.923 . S
O71 Zn73 1.950 . S
O71 Zn74 1.945 . S
Zn72 O71 1.923 . S
Zn72 O75 1.933 . S
Zn72 O78 1.941 . S
Zn72 O79 1.965 . S
Zn73 O71 1.950 . S
Zn73 O80 1.938 . S
Zn73 O81 1.906 . S
Zn73 O91 1.953 . S
Zn74 O71 1.945 . S
Zn74 O76 1.932 . S
Zn74 O83 1.977 . S
Zn74 O84 1.910 . S
O75 Zn72 1.933 . S
O75 C86 1.226 . S
O76 Zn74 1.932 . S
O76 C86 1.307 . S
O77 Zn70 1.919 . S
O77 C88 1.253 . S
O78 Zn72 1.941 . S
O78 C88 1.283 . S
O79 Zn72 1.965 . S
O79 C87 1.303 . S
O80 Zn73 1.938 . S
O80 C87 1.247 . S
O81 Zn73 1.906 . S
O81 C89 1.304 . S
O82 Zn70 1.924 . S
O82 C90 1.311 . S
O83 Zn74 1.977 . S
O83 C89 1.272 . S
O84 Zn74 1.910 . S
O84 C90 1.231 . S
C85 O69 1.225 . S
C85 O91 1.298 . S
C86 O75 1.226 . S
C86 O76 1.307 . S
C87 O79 1.303 . S
C87 O80 1.247 . S
C88 O77 1.253 . S
C88 O78 1.283 . S
C89 O81 1.304 . S
C89 O83 1.272 . S
C90 O82 1.311 . S
C90 O84 1.231 . S
O91 Zn73 1.953 . S
O91 C85 1.298 . S
O92 Zn93 1.953 . S
O92 C108 1.225 . S
Zn93 O92 1.953 . S
Zn93 O94 1.949 . S
Zn93 O100 1.919 . S
Zn93 O105 1.924 . S
O94 Zn93 1.949 . S
O94 Zn95 1.923 . S
O94 Zn96 1.950 . S
O94 Zn97 1.945 . S
Zn95 O94 1.923 . S
Zn95 O98 1.933 . S
Zn95 O101 1.941 . S
Zn95 O102 1.965 . S
Zn96 O94 1.950 . S
Zn96 O103 1.938 . S
Zn96 O104 1.906 . S
Zn96 O114 1.953 . S
Zn97 O94 1.945 . S
Zn97 O99 1.932 . S
Zn97 O106 1.977 . S
Zn97 O107 1.910 . S
O98 Zn95 1.933 . S
O98 C109 1.226 . S
O99 Zn97 1.932 . S
O99 C109 1.307 . S
O100 Zn93 1.919 . S
O100 C111 1.253 . S
O101 Zn95 1.941 . S
O101 C111 1.283 . S
O102 Zn95 1.965 . S
O102 C110 1.303 . S
O103 Zn96 1.938 . S
O103 C110 1.247 . S
O104 Zn96 1.906 . S
O104 C112 1.304 . S
O105 Zn93 1.924 . S
O105 C113 1.311 . S
O106 Zn97 1.977 . S
O106 C112 1.272 . S
O107 Zn97 1.910 . S
O107 C113 1.231 . S
C108 O92 1.225 . S
C108 O114 1.298 . S
C109 O98 1.226 . S
C109 O99 1.307 . S
C110 O102 1.303 . S
C110 O103 1.247 . S
C111 O100 1.253 . S
C111 O101 1.283 . S
C112 O104 1.304 . S
C112 O106 1.272 . S
C113 O105 1.311 . S
C113 O107 1.231 . S
O114 Zn96 1.953 . S
O114 C108 1.298 . S
O115 Zn116 1.953 . S
O115 C131 1.225 . S
Zn116 O115 1.953 . S
Zn116 O117 1.949 . S
Zn116 O123 1.919 . S
Zn116 O128 1.924 . S
O117 Zn116 1.949 . S
O117 Zn118 1.923 . S
O117 Zn119 1.950 . S
O117 Zn120 1.945 . S
Zn118 O117 1.923 . S
Zn118 O121 1.933 . S
Zn118 O124 1.941 . S
Zn118 O125 1.965 . S
Zn119 O117 1.950 . S
Zn119 O126 1.938 . S
Zn119 O127 1.906 . S
Zn119 O137 1.953 . S
Zn120 O117 1.945 . S
Zn120 O122 1.932 . S
Zn120 O129 1.977 . S
Zn120 O130 1.910 . S
O121 Zn118 1.933 . S
O121 C132 1.226 . S
O122 Zn120 1.932 . S
O122 C132 1.307 . S
O123 Zn116 1.919 . S
O123 C134 1.253 . S
O124 Zn118 1.941 . S
O124 C134 1.283 . S
O125 Zn118 1.965 . S
O125 C133 1.303 . S
O126 Zn119 1.938 . S
O126 C133 1.247 . S
O127 Zn119 1.906 . S
O127 C135 1.304 . S
O128 Zn116 1.924 . S
O128 C136 1.311 . S
O129 Zn120 1.977 . S
O129 C135 1.272 . S
O130 Zn120 1.910 . S
O130 C136 1.231 . S
C131 O115 1.225 . S
C131 O137 1.298 . S
C132 O121 1.226 . S
C132 O122 1.307 . S
C133 O125 1.303 . S
C133 O126 1.247 . S
C134 O123 1.253 . S
C134 O124 1.283 . S
C135 O127 1.304 . S
C135 O129 1.272 . S
C136 O128 1.311 . S
C136 O130 1.231 . S
O137 Zn119 1.953 . S
O137 C131 1.298 . S
O138 Zn139 1.953 . S
O138 C154 1.225 . S
Zn139 O138 1.953 . S
Zn139 O140 1.949 . S
Zn139 O146 1.919 . S
Zn139 O151 1.924 . S
O140 Zn139 1.949 . S
O140 Zn141 1.923 . S
O140 Zn142 1.950 . S
O140 Zn143 1.945 . S
Zn141 O140 1.923 . S
Zn141 O144 1.933 . S
Zn141 O147 1.941 . S
Zn141 O148 1.965 . S
Zn142 O140 1.950 . S
Zn142 O149 1.938 . S
Zn142 O150 1.906 . S
Zn142 O160 1.953 . S
Zn143 O140 1.945 . S
Zn143 O145 1.932 . S
Zn143 O152 1.977 . S
Zn143 O153 1.910 . S
O144 Zn141 1.933 . S
O144 C155 1.226 . S
O145 Zn143 1.932 . S
O145 C155 1.307 . S
O146 Zn139 1.919 . S
O146 C157 1.253 . S
O147 Zn141 1.941 . S
O147 C157 1.283 . S
O148 Zn141 1.965 . S
O148 C156 1.303 . S
O149 Zn142 1.938 . S
O149 C156 1.247 . S
O150 Zn142 1.906 . S
O150 C158 1.304 . S
O151 Zn139 1.924 . S
O151 C159 1.311 . S
O152 Zn143 1.977 . S
O152 C158 1.272 . S
O153 Zn143 1.910 . S
O153 C159 1.231 . S
C154 O138 1.225 . S
C154 O160 1.298 . S
C155 O144 1.226 . S
C155 O145 1.307 . S
C156 O148 1.303 . S
C156 O149 1.247 . S
C157 O146 1.253 . S
C157 O147 1.283 . S
C158 O150 1.304 . S
C158 O152 1.272 . S
C159 O151 1.311 . S
C159 O153 1.231 . S
O160 Zn142 1.953 . S
O160 C154 1.298 . S
O161 Zn162 1.953 . S
O161 C177 1.225 . S
Zn162 O161 1.953 . S
Zn162 O163 1.949 . S
Zn162 O169 1.919 . S
Zn162 O174 1.924 . S
O163 Zn162 1.949 . S
O163 Zn164 1.923 . S
O163 Zn165 1.950 . S
O163 Zn166 1.945 . S
Zn164 O163 1.923 . S
Zn164 O167 1.933 . S
Zn164 O170 1.941 . S
Zn164 O171 1.965 . S
Zn165 O163 1.950 . S
Zn165 O172 1.938 . S
Zn165 O173 1.906 . S
Zn165 O183 1.953 . S
Zn166 O163 1.945 . S
Zn166 O168 1.932 . S
Zn166 O175 1.977 . S
Zn166 O176 1.910 . S
O167 Zn164 1.933 . S
O167 C178 1.226 . S
O168 Zn166 1.932 . S
O168 C178 1.307 . S
O169 Zn162 1.919 . S
O169 C180 1.253 . S
O170 Zn164 1.941 . S
O170 C180 1.283 . S
O171 Zn164 1.965 . S
O171 C179 1.303 . S
O172 Zn165 1.938 . S
O172 C179 1.247 . S
O173 Zn165 1.906 . S
O173 C181 1.304 . S
O174 Zn162 1.924 . S
O174 C182 1.311 . S
O175 Zn166 1.977 . S
O175 C181 1.272 . S
O176 Zn166 1.910 . S
O176 C182 1.231 . S
C177 O161 1.225 . S
C177 O183 1.298 . S
C178 O167 1.226 . S
C178 O168 1.307 . S
C179 O171 1.303 . S
C179 O172 1.247 . S
C180 O169 1.253 . S
C180 O170 1.283 . S
C181 O173 1.304 . S
C181 O175 1.272 . S
C182 O174 1.311 . S
C182 O176 1.231 . S
O183 Zn165 1.953 . S
O183 C177 1.298 . S
O184 Zn185 1.953 . S
O184 C200 1.225 . S
Zn185 O184 1.953 . S
Zn185 O186 1.949 . S
Zn185 O192 1.919 . S
Zn185 O197 1.924 . S
O186 Zn185 1.949 . S
O186 Zn187 1.923 . S
O186 Zn188 1.950 . S
O186 Zn189 1.945 . S
Zn187 O186 1.923 . S
Zn187 O190 1.933 . S
Zn187 O193 1.941 . S
Zn187 O194 1.965 . S
Zn188 O186 1.950 . S
Zn188 O195 1.938 . S
Zn188 O196 1.906 . S
Zn188 O206 1.953 . S
Zn189 O186 1.945 . S
Zn189 O191 1.932 . S
Zn189 O198 1.977 . S
Zn189 O199 1.910 . S
O190 Zn187 1.933 . S
O190 C201 1.226 . S
O191 Zn189 1.932 . S
O191 C201 1.307 . S
O192 Zn185 1.919 . S
O192 C203 1.253 . S
O193 Zn187 1.941 . S
O193 C203 1.283 . S
O194 Zn187 1.965 . S
O194 C202 1.303 . S
O195 Zn188 1.938 . S
O195 C202 1.247 . S
O196 Zn188 1.906 . S
O196 C204 1.304 . S
O197 Zn185 1.924 . S
O197 C205 1.311 . S
O198 Zn189 1.977 . S
O198 C204 1.272 . S
O199 Zn189 1.910 . S
O199 C205 1.231 . S
C200 O184 1.225 . S
C200 O206 1.298 . S
C201 O190 1.226 . S
C201 O191 1.307 . S
C202 O194 1.303 . S
C202 O195 1.247 . S
C203 O192 1.253 . S
C203 O193 1.283 . S
C204 O196 1.304 . S
C204 O198 1.272 . S
C205 O197 1.311 . S
C205 O199 1.231 . S
O206 Zn188 1.953 . S
O206 C200 1.298 . S
O207 Zn208 1.953 . S
O207 C223 1.225 . S
Zn208 O207 1.953 . S
Zn208 O209 1.949 . S
Zn208 O215 1.919 . S
Zn208 O220 1.924 . S
O209 Zn208 1.949 . S
O209 Zn210 1.923 . S
O209 Zn211 1.950 . S
O209 Zn212 1.945 . S
Zn210 O209 1.923 . S
Zn210 O213 1.933 . S
Zn210 O216 1.941 . S
Zn210 O217 1.965 . S
Zn211 O209 1.950 . S
Zn211 O218 1.938 . S
Zn211 O219 1.906 . S
Zn211 O229 1.953 . S
Zn212 O209 1.945 . S
Zn212 O214 1.932 . S
Zn212 O221 1.977 . S
Zn212 O222 1.910 . S
O213 Zn210 1.933 . S
O213 C224 1.226 . S
O214 Zn212 1.932 . S
O214 C224 1.307 . S
O215 Zn208 1.919 . S
O215 C226 1.253 . S
O216 Zn210 1.941 . S
O216 C226 1.283 . S
O217 Zn210 1.965 . S
O217 C225 1.303 . S
O218 Zn211 1.938 . S
O218 C225 1.247 . S
O219 Zn211 1.906 . S
O219 C227 1.304 . S
O220 Zn208 1.924 . S
O220 C228 1.311 . S
O221 Zn212 1.977 . S
O221 C227 1.272 . S
O222 Zn212 1.910 . S
O222 C228 1.231 . S
C223 O207 1.225 . S
C223 O229 1.298 . S
C224 O213 1.226 . S
C224 O214 1.307 . S
C225 O217 1.303 . S
C225 O218 1.247 . S
C226 O215 1.253 . S
C226 O216 1.283 . S
C227 O219 1.304 . S
C227 O221 1.272 . S
C228 O220 1.311 . S
C228 O222 1.231 . S
O229 Zn211 1.953 . S
O229 C223 1.298 . S
O230 Zn231 1.953 . S
O230 C246 1.225 . S
Zn231 O230 1.953 . S
Zn231 O232 1.949 . S
Zn231 O238 1.919 . S
Zn231 O243 1.924 . S
O232 Zn231 1.949 . S
O232 Zn233 1.923 . S
O232 Zn234 1.950 . S
O232 Zn235 1.945 . S
Zn233 O232 1.923 . S
Zn233 O236 1.933 . S
Zn233 O239 1.941 . S
Zn233 O240 1.965 . S
Zn234 O232 1.950 . S
Zn234 O241 1.938 . S
Zn234 O242 1.906 . S
Zn234 O252 1.953 . S
Zn235 O232 1.945 . S
Zn235 O237 1.932 . S
Zn235 O244 1.977 . S
Zn235 O245 1.910 . S
O236 Zn233 1.933 . S
O236 C247 1.226 . S
O237 Zn235 1.932 . S
O237 C247 1.307 . S
O238 Zn231 1.919 . S
O238 C249 1.253 . S
O239 Zn233 1.941 . S
O239 C249 1.283 . S
O240 Zn233 1.965 . S
O240 C248 1.303 . S
O241 Zn234 1.938 . S
O241 C248 1.247 . S
O242 Zn234 1.906 . S
O242 C250 1.304 . S
O243 Zn231 1.924 . S
O243 C251 1.311 . S
O244 Zn235 1.977 . S
O244 C250 1.272 . S
O245 Zn235 1.910 . S
O245 C251 1.231 . S
C246 O230 1.225 . S
C246 O252 1.298 . S
C247 O236 1.226 . S
C247 O237 1.307 . S
C248 O240 1.303 . S
C248 O241 1.247 . S
C249 O238 1.253 . S
C249 O239 1.283 . S
C250 O242 1.304 . S
C250 O244 1.272 . S
C251 O243 1.311 . S
C251 O245 1.231 . S
O252 Zn234 1.953 . S
O252 C246 1.298 . S
O253 Zn254 1.953 . S
O253 C269 1.225 . S
Zn254 O253 1.953 . S
Zn254 O255 1.949 . S
Zn254 O261 1.919 . S
Zn254 O266 1.924 . S
O255 Zn254 1.949 . S
O255 Zn256 1.923 . S
O255 Zn257 1.950 . S
O255 Zn258 1.945 . S
Zn256 O255 1.923 . S
Zn256 O259 1.933 . S
Zn256 O262 1.941 . S
Zn256 O263 1.965 . S
Zn257 O255 1.950 . S
Zn257 O264 1.938 . S
Zn257 O265 1.906 . S
Zn257 O275 1.953 . S
Zn258 O255 1.945 . S
Zn258 O260 1.932 . S
Zn258 O267 1.977 . S
Zn258 O268 1.910 . S
O259 Zn256 1.933 . S
O259 C270 1.226 . S
O260 Zn258 1.932 . S
O260 C270 1.307 . S
O261 Zn254 1.919 . S
O261 C272 1.253 . S
O262 Zn256 1.941 . S
O262 C272 1.283 . S
O263 Zn256 1.965 . S
O263 C271 1.303 . S
O264 Zn257 1.938 . S
O264 C271 1.247 . S
O265 Zn257 1.906 . S
O265 C273 1.304 . S
O266 Zn254 1.924 . S
O266 C274 1.311 . S
O267 Zn258 1.977 . S
O267 C273 1.272 . S
O268 Zn258 1.910 . S
O268 C274 1.231 . S
C269 O253 1.225 . S
C269 O275 1.298 . S
C270 O259 1.226 . S
C270 O260 1.307 . S
C271 O263 1.303 . S
C271 O264 1.247 . S
C272 O261 1.253 . S
C272 O262 1.283 . S
C273 O265 1.304 . S
C273 O267 1.272 . S
C274 O266 1.311 . S
C274 O268 1.231 . S
O275 Zn257 1.953 . S
O275 C269 1.298 . S
O276 Zn277 1.953 . S
O276 C292 1.225 . S
Zn277 O276 1.953 . S
Zn277 O278 1.949 . S
Zn277 O284 1.919 . S
Zn277 O289 1.924 . S
O278 Zn277 1.949 . S
O278 Zn279 1.923 . S
O278 Zn280 1.950 . S
O278 Zn281 1.945 . S
Zn279 O278 1.923 . S
Zn279 O282 1.933 . S
Zn279 O285 1.941 . S
Zn279 O286 1.965 . S
Zn280 O278 1.950 . S
Zn280 O287 1.938 . S
Zn280 O288 1.906 . S
Zn280 O298 1.953 . S
Zn281 O278 1.945 . S
Zn281 O283 1.932 . S
Zn281 O290 1.977 . S
Zn281 O291 1.910 . S
O282 Zn279 1.933 . S
O282 C293 1.226 . S
O283 Zn281 1.932 . S
O283 C293 1.307 . S
O284 Zn277 1.919 . S
O284 C295 1.253 . S
O285 Zn279 1.941 . S
O285 C295 1.283 . S
O286 Zn279 1.965 . S
O286 C294 1.303 . S
O287 Zn280 1.938 . S
O287 C294 1.247 . S
O288 Zn280 1.906 . S
O288 C296 1.304 . S
O289 Zn277 1.924 . S
O289 C297 1.311 . S
O290 Zn281 1.977 . S
O290 C296 1.272 . S
O291 Zn281 1.910 . S
O291 C297 1.231 . S
C292 O276 1.225 . S
C292 O298 1.298 . S
C293 O282 1.226 . S
C293 O283 1.307 . S
C294 O286 1.303 . S
C294 O287 1.247 . S
C295 O284 1.253 . S
C295 O285 1.283 . S
C296 O288 1.304 . S
C296 O290 1.272 . S
C297 O289 1.311 . S
C297 O291 1.231 . S
O298 Zn280 1.953 . S
O298 C292 1.298 . S
O299 Zn300 1.953 . S
O299 C315 1.225 . S
Zn300 O299 1.953 . S
Zn300 O301 1.949 . S
Zn300 O307 1.919 . S
Zn300 O312 1.924 . S
O301 Zn300 1.949 . S
O301 Zn302 1.923 . S
O301 Zn303 1.950 . S
O301 Zn304 1.945 . S
Zn302 O301 1.923 . S
Zn302 O305 1.933 . S
Zn302 O308 1.941 . S
Zn302 O309 1.965 . S
Zn303 O301 1.950 . S
Zn303 O310 1.938 . S
Zn303 O311 1.906 . S
Zn303 O321 1.953 . S
Zn304 O301 1.945 . S
Zn304 O306 1.932 . S
Zn304 O313 1.977 . S
Zn304 O314 1.910 . S
O305 Zn302 1.933 . S
O305 C316 1.226 . S
O306 Zn304 1.932 . S
O306 C316 1.307 . S
O307 Zn300 1.919 . S
O307 C318 1.253 . S
O308 Zn302 1.941 . S
O308 C318 1.283 . S
O309 Zn302 1.965 . S
O309 C317 1.303 . S
O310 Zn303 1.938 . S
O310 C317 1.247 . S
O311 Zn303 1.906 . S
O311 C319 1.304 . S
O312 Zn300 1.924 . S
O312 C320 1.311 . S
O313 Zn304 1.977 . S
O313 C319 1.272 . S
O314 Zn304 1.910 . S
O314 C320 1.231 . S
C315 O299 1.225 . S
C315 O321 1.298 . S
C316 O305 1.226 . S
C316 O306 1.307 . S
C317 O309 1.303 . S
C317 O310 1.247 . S
C318 O307 1.253 . S
C318 O308 1.283 . S
C319 O311 1.304 . S
C319 O313 1.272 . S
C320 O312 1.311 . S
C320 O314 1.231 . S
O321 Zn303 1.953 . S
O321 C315 1.298 . S
O322 Zn323 1.953 . S
O322 C338 1.225 . S
Zn323 O322 1.953 . S
Zn323 O324 1.949 . S
Zn323 O330 1.919 . S
Zn323 O335 1.924 . S
O324 Zn323 1.949 . S
O324 Zn325 1.923 . S
O324 Zn326 1.950 . S
O324 Zn327 1.945 . S
Zn325 O324 1.923 . S
Zn325 O328 1.933 . S
Zn325 O331 1.941 . S
Zn325 O332 1.965 . S
Zn326 O324 1.950 . S
Zn326 O333 1.938 . S
Zn326 O334 1.906 . S
Zn326 O344 1.953 . S
Zn327 O324 1.945 . S
Zn327 O329 1.932 . S
Zn327 O336 1.977 . S
Zn327 O337 1.910 . S
O328 Zn325 1.933 . S
O328 C339 1.226 . S
O329 Zn327 1.932 . S
O329 C339 1.307 . S
O330 Zn323 1.919 . S
O330 C341 1.253 . S
O331 Zn325 1.941 . S
O331 C341 1.283 . S
O332 Zn325 1.965 . S
O332 C340 1.303 . S
O333 Zn326 1.938 . S
O333 C340 1.247 . S
O334 Zn326 1.906 . S
O334 C342 1.304 . S
O335 Zn323 1.924 . S
O335 C343 1.311 . S
O336 Zn327 1.977 . S
O336 C342 1.272 . S
O337 Zn327 1.910 . S
O337 C343 1.231 . S
C338 O322 1.225 . S
C338 O344 1.298 . S
C339 O328 1.226 . S
C339 O329 1.307 . S
C340 O332 1.303 . S
C340 O333 1.247 . S
C341 O330 1.253 . S
C341 O331 1.283 . S
C342 O334 1.304 . S
C342 O336 1.272 . S
C343 O335 1.311 . S
C343 O337 1.231 . S
O344 Zn326 1.953 . S
O344 C338 1.298 . S
O345 Zn346 1.953 . S
O345 C361 1.225 . S
Zn346 O345 1.953 . S
Zn346 O347 1.949 . S
Zn346 O353 1.919 . S
Zn346 O358 1.924 . S
O347 Zn346 1.949 . S
O347 Zn348 1.923 . S
O347 Zn349 1.950 . S
O347 Zn350 1.945 . S
Zn348 O347 1.923 . S
Zn348 O351 1.933 . S
Zn348 O354 1.941 . S
Zn348 O355 1.965 . S
Zn349 O347 1.950 . S
Zn349 O356 1.938 . S
Zn349 O357 1.906 . S
Zn349 O367 1.953 . S
Zn350 O347 1.945 . S
Zn350 O352 1.932 . S
Zn350 O359 1.977 . S
Zn350 O360 1.910 . S
O351 Zn348 1.933 . S
O351 C362 1.226 . S
O352 Zn350 1.932 . S
O352 C362 1.307 . S
O353 Zn346 1.919 . S
O353 C364 1.253 . S
O354 Zn348 1.941 . S
O354 C364 1.283 . S
O355 Zn348 1.965 . S
O355 C363 1.303 . S
O356 Zn349 1.938 . S
O356 C363 1.247 . S
O357 Zn349 1.906 . S
O357 C365 1.304 . S
O358 Zn346 1.924 . S
O358 C366 1.311 . S
O359 Zn350 1.977 . S
O359 C365 1.272 . S
O360 Zn350 1.910 . S
O360 C366 1.231 . S
C361 O345 1.225 . S
C361 O367 1.298 . S
C362 O351 1.226 . S
C362 O352 1.307 . S
C363 O355 1.303 . S
C363 O356 1.247 . S
C364 O353 1.253 . S
C364 O354 1.283 . S
C365 O357 1.304 . S
C365 O359 1.272 . S
C366 O358 1.311 . S
C366 O360 1.231 . S
O367 Zn349 1.953 . S
O367 C361 1.298 . S
C368 C369 1.349 . S
C368 C370 1.327 . S
C368 H393 0.950 . S
C369 C368 1.349 . S
C369 C385 1.349 . S
C370 C368 1.327 . S
C370 C389 1.429 . S
C370 H394 0.950 . S
C371 C388 1.574 . S
C371 C390 1.368 . S
C371 H395 0.949 . S
H372 C376 0.949 . S
C373 C374 1.349 . S
C373 C375 1.327 . S
C373 H396 0.950 . S
C374 C373 1.349 . S
C374 C386 1.349 . S
C375 C373 1.327 . S
C375 C391 1.429 . S
C375 H397 0.950 . S
C376 H372 0.949 . S
C376 C384 1.574 . S
C376 C392 1.368 . S
H377 C385 0.950 . S
H378 C383 0.950 . S
H379 C384 0.949 . S
H380 C386 0.950 . S
H381 C387 0.950 . S
H382 C388 0.949 . S
C383 H378 0.950 . S
C383 C385 1.327 . S
C383 C389 1.429 . S
C384 C376 1.574 . S
C384 H379 0.949 . S
C384 C390 1.368 . S
C385 C369 1.349 . S
C385 H377 0.950 . S
C385 C383 1.327 . S
C386 C374 1.349 . S
C386 H380 0.950 . S
C386 C387 1.327 . S
C387 H381 0.950 . S
C387 C386 1.327 . S
C387 C391 1.429 . S
C388 C371 1.574 . S
C388 H382 0.949 . S
C388 C392 1.368 . S
C389 C370 1.429 . S
C389 C383 1.429 . S
C389 C390 1.523 . S
C390 C371 1.368 . S
C390 C384 1.368 . S
C390 C389 1.523 . S
C391 C375 1.429 . S
C391 C387 1.429 . S
C391 C392 1.523 . S
C392 C376 1.368 . S
C392 C388 1.368 . S
C392 C391 1.523 . S
H393 C368 0.950 . S
H394 C370 0.950 . S
H395 C371 0.949 . S
H396 C373 0.950 . S
H397 C375 0.950 . S
C398 C399 1.349 . S
C398 C400 1.327 . S
C398 H423 0.950 . S
C399 C398 1.349 . S
C399 C415 1.349 . S
C400 C398 1.327 . S
C400 C419 1.429 . S
C400 H424 0.950 . S
C401 C418 1.574 . S
C401 C420 1.368 . S
C401 H425 0.949 . S
H402 C406 0.949 . S
C403 C404 1.349 . S
C403 C405 1.327 . S
C403 H426 0.950 . S
C404 C403 1.349 . S
C404 C416 1.349 . S
C405 C403 1.327 . S
C405 C421 1.429 . S
C405 H427 0.950 . S
C406 H402 0.949 . S
C406 C414 1.574 . S
C406 C422 1.368 . S
H407 C415 0.950 . S
H408 C413 0.950 . S
H409 C414 0.949 . S
H410 C416 0.950 . S
H411 C417 0.950 . S
H412 C418 0.949 . S
C413 H408 0.950 . S
C413 C415 1.327 . S
C413 C419 1.429 . S
C414 C406 1.574 . S
C414 H409 0.949 . S
C414 C420 1.368 . S
C415 C399 1.349 . S
C415 H407 0.950 . S
C415 C413 1.327 . S
C416 C404 1.349 . S
C416 H410 0.950 . S
C416 C417 1.327 . S
C417 H411 0.950 . S
C417 C416 1.327 . S
C417 C421 1.429 . S
C418 C401 1.574 . S
C418 H412 0.949 . S
C418 C422 1.368 . S
C419 C400 1.429 . S
C419 C413 1.429 . S
C419 C420 1.523 . S
C420 C401 1.368 . S
C420 C414 1.368 . S
C420 C419 1.523 . S
C421 C405 1.429 . S
C421 C417 1.429 . S
C421 C422 1.523 . S
C422 C406 1.368 . S
C422 C418 1.368 . S
C422 C421 1.523 . S
H423 C398 0.950 . S
H424 C400 0.950 . S
H425 C401 0.949 . S
H426 C403 0.950 . S
H427 C405 0.950 . S
C428 C429 1.349 . S
C428 C430 1.327 . S
C428 H453 0.950 . S
C429 C428 1.349 . S
C429 C445 1.349 . S
C430 C428 1.327 . S
C430 C449 1.429 . S
C430 H454 0.950 . S
C431 C448 1.574 1_455 S
C431 C450 1.368 . S
C431 H455 0.949 . S
H432 C436 0.949 . S
C433 C434 1.349 . S
C433 C435 1.327 . S
C433 H456 0.950 . S
C434 C433 1.349 . S
C434 C446 1.349 . S
C435 C433 1.327 . S
C435 C451 1.429 . S
C435 H457 0.950 . S
C436 H432 0.949 . S
C436 C444 1.574 1_655 S
C436 C452 1.368 . S
H437 C445 0.950 . S
H438 C443 0.950 . S
H439 C444 0.949 . S
H440 C446 0.950 . S
H441 C447 0.950 . S
H442 C448 0.949 . S
C443 H438 0.950 . S
C443 C445 1.327 . S
C443 C449 1.429 . S
C444 C436 1.574 1_455 S
C444 H439 0.949 . S
C444 C450 1.368 . S
C445 C429 1.349 . S
C445 H437 0.950 . S
C445 C443 1.327 . S
C446 C434 1.349 . S
C446 H440 0.950 . S
C446 C447 1.327 . S
C447 H441 0.950 . S
C447 C446 1.327 . S
C447 C451 1.429 . S
C448 C431 1.574 1_655 S
C448 H442 0.949 . S
C448 C452 1.368 . S
C449 C430 1.429 . S
C449 C443 1.429 . S
C449 C450 1.523 . S
C450 C431 1.368 . S
C450 C444 1.368 . S
C450 C449 1.523 . S
C451 C435 1.429 . S
C451 C447 1.429 . S
C451 C452 1.523 . S
C452 C436 1.368 . S
C452 C448 1.368 . S
C452 C451 1.523 . S
H453 C428 0.950 . S
H454 C430 0.950 . S
H455 C431 0.949 . S
H456 C433 0.950 . S
H457 C435 0.950 . S
C458 C459 1.349 . S
C458 C460 1.327 . S
C458 H483 0.950 . S
C459 C458 1.349 . S
C459 C475 1.349 . S
C460 C458 1.327 . S
C460 C479 1.429 . S
C460 H484 0.950 . S
C461 C478 1.574 . S
C461 C480 1.368 . S
C461 H485 0.949 . S
H462 C466 0.949 . S
C463 C464 1.349 . S
C463 C465 1.327 . S
C463 H486 0.950 . S
C464 C463 1.349 . S
C464 C476 1.349 . S
C465 C463 1.327 . S
C465 C481 1.429 . S
C465 H487 0.950 . S
C466 H462 0.949 . S
C466 C474 1.574 . S
C466 C482 1.368 . S
H467 C475 0.950 . S
H468 C473 0.950 . S
H469 C474 0.949 . S
H470 C476 0.950 . S
H471 C477 0.950 . S
H472 C478 0.949 . S
C473 H468 0.950 . S
C473 C475 1.327 . S
C473 C479 1.429 . S
C474 C466 1.574 . S
C474 H469 0.949 . S
C474 C480 1.368 1_655 S
C475 C459 1.349 . S
C475 H467 0.950 . S
C475 C473 1.327 . S
C476 C464 1.349 . S
C476 H470 0.950 . S
C476 C477 1.327 . S
C477 H471 0.950 . S
C477 C476 1.327 . S
C477 C481 1.429 . S
C478 C461 1.574 . S
C478 H472 0.949 . S
C478 C482 1.368 1_455 S
C479 C460 1.429 . S
C479 C473 1.429 . S
C479 C480 1.523 . S
C480 C461 1.368 . S
C480 C474 1.368 1_455 S
C480 C479 1.523 . S
C481 C465 1.429 . S
C481 C477 1.429 . S
C481 C482 1.523 . S
C482 C466 1.368 . S
C482 C478 1.368 1_655 S
C482 C481 1.523 . S
H483 C458 0.950 . S
H484 C460 0.950 . S
H485 C461 0.949 . S
H486 C463 0.950 . S
H487 C465 0.950 . S
C488 C489 1.349 . S
C488 C490 1.327 . S
C488 H513 0.950 . S
C489 C488 1.349 . S
C489 C505 1.349 . S
C490 C488 1.327 . S
C490 C509 1.429 . S
C490 H514 0.950 . S
C491 C508 1.574 . S
C491 C510 1.368 . S
C491 H515 0.949 . S
H492 C496 0.949 . S
C493 C494 1.349 . S
C493 C495 1.327 . S
C493 H516 0.950 . S
C494 C493 1.349 . S
C494 C506 1.349 . S
C495 C493 1.327 . S
C495 C511 1.429 . S
C495 H517 0.950 . S
C496 H492 0.949 . S
C496 C504 1.574 . S
C496 C512 1.368 . S
H497 C505 0.950 . S
H498 C503 0.950 . S
H499 C504 0.949 . S
H500 C506 0.950 . S
H501 C507 0.950 . S
H502 C508 0.949 . S
C503 H498 0.950 . S
C503 C505 1.327 . S
C503 C509 1.429 . S
C504 C496 1.574 . S
C504 H499 0.949 . S
C504 C510 1.368 . S
C505 C489 1.349 . S
C505 H497 0.950 . S
C505 C503 1.327 . S
C506 C494 1.349 . S
C506 H500 0.950 . S
C506 C507 1.327 . S
C507 H501 0.950 . S
C507 C506 1.327 . S
C507 C511 1.429 . S
C508 C491 1.574 . S
C508 H502 0.949 . S
C508 C512 1.368 . S
C509 C490 1.429 . S
C509 C503 1.429 . S
C509 C510 1.523 . S
C510 C491 1.368 . S
C510 C504 1.368 . S
C510 C509 1.523 . S
C511 C495 1.429 . S
C511 C507 1.429 . S
C511 C512 1.523 . S
C512 C496 1.368 . S
C512 C508 1.368 . S
C512 C511 1.523 . S
H513 C488 0.950 . S
H514 C490 0.950 . S
H515 C491 0.949 . S
H516 C493 0.950 . S
H517 C495 0.950 . S
C518 C519 1.349 . S
C518 C520 1.327 . S
C518 H543 0.950 . S
C519 C518 1.349 . S
C519 C535 1.349 . S
C520 C518 1.327 . S
C520 C539 1.429 . S
C520 H544 0.950 . S
C521 C538 1.574 . S
C521 C540 1.368 . S
C521 H545 0.949 . S
H522 C526 0.949 . S
C523 C524 1.349 . S
C523 C525 1.327 . S
C523 H546 0.950 . S
C524 C523 1.349 . S
C524 C536 1.349 . S
C525 C523 1.327 . S
C525 C541 1.429 . S
C525 H547 0.950 . S
C526 H522 0.949 . S
C526 C534 1.574 . S
C526 C542 1.368 . S
H527 C535 0.950 . S
H528 C533 0.950 . S
H529 C534 0.949 . S
H530 C536 0.950 . S
H531 C537 0.950 . S
H532 C538 0.949 . S
C533 H528 0.950 . S
C533 C535 1.327 . S
C533 C539 1.429 . S
C534 C526 1.574 . S
C534 H529 0.949 . S
C534 C540 1.368 . S
C535 C519 1.349 . S
C535 H527 0.950 . S
C535 C533 1.327 . S
C536 C524 1.349 . S
C536 H530 0.950 . S
C536 C537 1.327 . S
C537 H531 0.950 . S
C537 C536 1.327 . S
C537 C541 1.429 . S
C538 C521 1.574 . S
C538 H532 0.949 . S
C538 C542 1.368 . S
C539 C520 1.429 . S
C539 C533 1.429 . S
C539 C540 1.523 . S
C540 C521 1.368 . S
C540 C534 1.368 . S
C540 C539 1.523 . S
C541 C525 1.429 . S
C541 C537 1.429 . S
C541 C542 1.523 . S
C542 C526 1.368 . S
C542 C538 1.368 . S
C542 C541 1.523 . S
H543 C518 0.950 . S
H544 C520 0.950 . S
H545 C521 0.949 . S
H546 C523 0.950 . S
H547 C525 0.950 . S
C548 C549 1.349 . S
C548 C550 1.327 . S
C548 H573 0.950 . S
C549 C548 1.349 . S
C549 C565 1.349 . S
C550 C548 1.327 . S
C550 C569 1.429 . S
C550 H574 0.950 . S
C551 C568 1.574 1_455 S
C551 C570 1.368 . S
C551 H575 0.949 . S
H552 C556 0.949 . S
C553 C554 1.349 . S
C553 C555 1.327 . S
C553 H576 0.950 . S
C554 C553 1.349 . S
C554 C566 1.349 . S
C555 C553 1.327 . S
C555 C571 1.429 . S
C555 H577 0.950 . S
C556 H552 0.949 . S
C556 C564 1.574 1_655 S
C556 C572 1.368 . S
H557 C565 0.950 . S
H558 C563 0.950 . S
H559 C564 0.949 . S
H560 C566 0.950 . S
H561 C567 0.950 . S
H562 C568 0.949 . S
C563 H558 0.950 . S
C563 C565 1.327 . S
C563 C569 1.429 . S
C564 C556 1.574 1_455 S
C564 H559 0.949 . S
C564 C570 1.368 . S
C565 C549 1.349 . S
C565 H557 0.950 . S
C565 C563 1.327 . S
C566 C554 1.349 . S
C566 H560 0.950 . S
C566 C567 1.327 . S
C567 H561 0.950 . S
C567 C566 1.327 . S
C567 C571 1.429 . S
C568 C551 1.574 1_655 S
C568 H562 0.949 . S
C568 C572 1.368 . S
C569 C550 1.429 . S
C569 C563 1.429 . S
C569 C570 1.523 . S
C570 C551 1.368 . S
C570 C564 1.368 . S
C570 C569 1.523 . S
C571 C555 1.429 . S
C571 C567 1.429 . S
C571 C572 1.523 . S
C572 C556 1.368 . S
C572 C568 1.368 . S
C572 C571 1.523 . S
H573 C548 0.950 . S
H574 C550 0.950 . S
H575 C551 0.949 . S
H576 C553 0.950 . S
H577 C555 0.950 . S
C578 C579 1.349 . S
C578 C580 1.327 . S
C578 H603 0.950 . S
C579 C578 1.349 . S
C579 C595 1.349 . S
C580 C578 1.327 . S
C580 C599 1.429 . S
C580 H604 0.950 . S
C581 C598 1.574 . S
C581 C600 1.368 . S
C581 H605 0.949 . S
H582 C586 0.949 . S
C583 C584 1.349 . S
C583 C585 1.327 . S
C583 H606 0.950 . S
C584 C583 1.349 . S
C584 C596 1.349 . S
C585 C583 1.327 . S
C585 C601 1.429 . S
C585 H607 0.950 . S
C586 H582 0.949 . S
C586 C594 1.574 . S
C586 C602 1.368 . S
H587 C595 0.950 . S
H588 C593 0.950 . S
H589 C594 0.949 . S
H590 C596 0.950 . S
H591 C597 0.950 . S
H592 C598 0.949 . S
C593 H588 0.950 . S
C593 C595 1.327 . S
C593 C599 1.429 . S
C594 C586 1.574 . S
C594 H589 0.949 . S
C594 C600 1.368 1_655 S
C595 C579 1.349 . S
C595 H587 0.950 . S
C595 C593 1.327 . S
C596 C584 1.349 . S
C596 H590 0.950 . S
C596 C597 1.327 . S
C597 H591 0.950 . S
C597 C596 1.327 . S
C597 C601 1.429 . S
C598 C581 1.574 . S
C598 H592 0.949 . S
C598 C602 1.368 1_455 S
C599 C580 1.429 . S
C599 C593 1.429 . S
C599 C600 1.523 . S
C600 C581 1.368 . S
C600 C594 1.368 1_455 S
C600 C599 1.523 . S
C601 C585 1.429 . S
C601 C597 1.429 . S
C601 C602 1.523 . S
C602 C586 1.368 . S
C602 C598 1.368 1_655 S
C602 C601 1.523 . S
H603 C578 0.950 . S
H604 C580 0.950 . S
H605 C581 0.949 . S
H606 C583 0.950 . S
H607 C585 0.950 . S
C608 C609 1.349 . S
C608 C610 1.327 . S
C608 H633 0.950 . S
C609 C608 1.349 . S
C609 C625 1.349 . S
C610 C608 1.327 . S
C610 C629 1.429 . S
C610 H634 0.950 1_545 S
C611 C628 1.574 . S
C611 C630 1.368 1_556 S
C611 H635 0.949 . S
H612 C616 0.949 . S
C613 C614 1.349 . S
C613 C615 1.327 . S
C613 H636 0.950 . S
C614 C613 1.349 . S
C614 C626 1.349 . S
C615 C613 1.327 . S
C615 C631 1.429 . S
C615 H637 0.950 1_565 S
C616 H612 0.949 . S
C616 C624 1.574 . S
C616 C632 1.368 1_554 S
H617 C625 0.950 . S
H618 C623 0.950 . S
H619 C624 0.949 . S
H620 C626 0.950 . S
H621 C627 0.950 . S
H622 C628 0.949 . S
C623 H618 0.950 . S
C623 C625 1.327 . S
C623 C629 1.429 . S
C624 C616 1.574 . S
C624 H619 0.949 . S
C624 C630 1.368 1_565 S
C625 C609 1.349 . S
C625 H617 0.950 . S
C625 C623 1.327 . S
C626 C614 1.349 . S
C626 H620 0.950 . S
C626 C627 1.327 . S
C627 H621 0.950 . S
C627 C626 1.327 . S
C627 C631 1.429 . S
C628 C611 1.574 . S
C628 H622 0.949 . S
C628 C632 1.368 1_545 S
C629 C610 1.429 . S
C629 C623 1.429 . S
C629 C630 1.523 . S
C630 C611 1.368 1_554 S
C630 C624 1.368 1_545 S
C630 C629 1.523 . S
C631 C615 1.429 . S
C631 C627 1.429 . S
C631 C632 1.523 . S
C632 C616 1.368 1_556 S
C632 C628 1.368 1_565 S
C632 C631 1.523 . S
H633 C608 0.950 . S
H634 C610 0.950 1_565 S
H635 C611 0.949 . S
H636 C613 0.950 . S
H637 C615 0.950 1_545 S
C638 C639 1.349 . S
C638 C640 1.327 . S
C638 H663 0.950 . S
C639 C638 1.349 . S
C639 C655 1.349 . S
C640 C638 1.327 . S
C640 C659 1.429 . S
C640 H664 0.950 . S
C641 C658 1.574 . S
C641 C660 1.368 . S
C641 H665 0.949 . S
H642 C646 0.949 . S
C643 C644 1.349 . S
C643 C645 1.327 . S
C643 H666 0.950 . S
C644 C643 1.349 . S
C644 C656 1.349 . S
C645 C643 1.327 . S
C645 C661 1.429 . S
C645 H667 0.950 . S
C646 H642 0.949 . S
C646 C654 1.574 . S
C646 C662 1.368 . S
H647 C655 0.950 . S
H648 C653 0.950 . S
H649 C654 0.949 . S
H650 C656 0.950 . S
H651 C657 0.950 . S
H652 C658 0.949 . S
C653 H648 0.950 . S
C653 C655 1.327 . S
C653 C659 1.429 . S
C654 C646 1.574 . S
C654 H649 0.949 . S
C654 C660 1.368 . S
C655 C639 1.349 . S
C655 H647 0.950 . S
C655 C653 1.327 . S
C656 C644 1.349 . S
C656 H650 0.950 . S
C656 C657 1.327 . S
C657 H651 0.950 . S
C657 C656 1.327 . S
C657 C661 1.429 . S
C658 C641 1.574 . S
C658 H652 0.949 . S
C658 C662 1.368 . S
C659 C640 1.429 . S
C659 C653 1.429 . S
C659 C660 1.523 . S
C660 C641 1.368 . S
C660 C654 1.368 . S
C660 C659 1.523 . S
C661 C645 1.429 . S
C661 C657 1.429 . S
C661 C662 1.523 . S
C662 C646 1.368 . S
C662 C658 1.368 . S
C662 C661 1.523 . S
H663 C638 0.950 . S
H664 C640 0.950 . S
H665 C641 0.949 . S
H666 C643 0.950 . S
H667 C645 0.950 . S
C668 C669 1.349 . S
C668 C670 1.327 . S
C668 H693 0.950 . S
C669 C668 1.349 . S
C669 C685 1.349 . S
C670 C668 1.327 . S
C670 C689 1.429 . S
C670 H694 0.950 1_565 S
C671 C688 1.574 . S
C671 C690 1.368 1_655 S
C671 H695 0.949 . S
H672 C676 0.949 . S
C673 C674 1.349 . S
C673 C675 1.327 . S
C673 H696 0.950 . S
C674 C673 1.349 . S
C674 C686 1.349 . S
C675 C673 1.327 . S
C675 C691 1.429 . S
C675 H697 0.950 1_545 S
C676 H672 0.949 . S
C676 C684 1.574 . S
C676 C692 1.368 1_455 S
H677 C685 0.950 . S
H678 C683 0.950 . S
H679 C684 0.949 . S
H680 C686 0.950 . S
H681 C687 0.950 . S
H682 C688 0.949 . S
C683 H678 0.950 . S
C683 C685 1.327 . S
C683 C689 1.429 . S
C684 C676 1.574 . S
C684 H679 0.949 . S
C684 C690 1.368 1_545 S
C685 C669 1.349 . S
C685 H677 0.950 . S
C685 C683 1.327 . S
C686 C674 1.349 . S
C686 H680 0.950 . S
C686 C687 1.327 . S
C687 H681 0.950 . S
C687 C686 1.327 . S
C687 C691 1.429 . S
C688 C671 1.574 . S
C688 H682 0.949 . S
C688 C692 1.368 1_565 S
C689 C670 1.429 . S
C689 C683 1.429 . S
C689 C690 1.523 . S
C690 C671 1.368 1_455 S
C690 C684 1.368 1_565 S
C690 C689 1.523 . S
C691 C675 1.429 . S
C691 C687 1.429 . S
C691 C692 1.523 . S
C692 C676 1.368 1_655 S
C692 C688 1.368 1_545 S
C692 C691 1.523 . S
H693 C668 0.950 . S
H694 C670 0.950 1_545 S
H695 C671 0.949 . S
H696 C673 0.950 . S
H697 C675 0.950 1_565 S
C698 C699 1.349 . S
C698 C700 1.327 . S
C698 H723 0.950 . S
C699 C698 1.349 . S
C699 C715 1.349 . S
C700 C698 1.327 . S
C700 C719 1.429 . S
C700 H724 0.950 . S
C701 C718 1.574 . S
C701 C720 1.368 . S
C701 H725 0.949 . S
H702 C706 0.949 . S
C703 C704 1.349 . S
C703 C705 1.327 . S
C703 H726 0.950 . S
C704 C703 1.349 . S
C704 C716 1.349 . S
C705 C703 1.327 . S
C705 C721 1.429 . S
C705 H727 0.950 . S
C706 H702 0.949 . S
C706 C714 1.574 . S
C706 C722 1.368 . S
H707 C715 0.950 . S
H708 C713 0.950 . S
H709 C714 0.949 . S
H710 C716 0.950 . S
H711 C717 0.950 . S
H712 C718 0.949 . S
C713 H708 0.950 . S
C713 C715 1.327 . S
C713 C719 1.429 . S
C714 C706 1.574 . S
C714 H709 0.949 . S
C714 C720 1.368 . S
C715 C699 1.349 . S
C715 H707 0.950 . S
C715 C713 1.327 . S
C716 C704 1.349 . S
C716 H710 0.950 . S
C716 C717 1.327 . S
C717 H711 0.950 . S
C717 C716 1.327 . S
C717 C721 1.429 . S
C718 C701 1.574 . S
C718 H712 0.949 . S
C718 C722 1.368 . S
C719 C700 1.429 . S
C719 C713 1.429 . S
C719 C720 1.523 . S
C720 C701 1.368 . S
C720 C714 1.368 . S
C720 C719 1.523 . S
C721 C705 1.429 . S
C721 C717 1.429 . S
C721 C722 1.523 . S
C722 C706 1.368 . S
C722 C718 1.368 . S
C722 C721 1.523 . S
H723 C698 0.950 . S
H724 C700 0.950 . S
H725 C701 0.949 . S
H726 C703 0.950 . S
H727 C705 0.950 . S
C728 C729 1.349 . S
C728 C730 1.327 . S
C728 H753 0.950 . S
C729 C728 1.349 . S
C729 C745 1.349 . S
C730 C728 1.327 . S
C730 C749 1.429 . S
C730 H754 0.950 . S
C731 C748 1.574 . S
C731 C750 1.368 . S
C731 H755 0.949 . S
H732 C736 0.949 . S
C733 C734 1.349 . S
C733 C735 1.327 . S
C733 H756 0.950 . S
C734 C733 1.349 . S
C734 C746 1.349 . S
C735 C733 1.327 . S
C735 C751 1.429 . S
C735 H757 0.950 . S
C736 H732 0.949 . S
C736 C744 1.574 . S
C736 C752 1.368 . S
H737 C745 0.950 . S
H738 C743 0.950 . S
H739 C744 0.949 . S
H740 C746 0.950 . S
H741 C747 0.950 . S
H742 C748 0.949 . S
C743 H738 0.950 . S
C743 C745 1.327 . S
C743 C749 1.429 . S
C744 C736 1.574 . S
C744 H739 0.949 . S
C744 C750 1.368 . S
C745 C729 1.349 . S
C745 H737 0.950 . S
C745 C743 1.327 . S
C746 C734 1.349 . S
C746 H740 0.950 . S
C746 C747 1.327 . S
C747 H741 0.950 . S
C747 C746 1.327 . S
C747 C751 1.429 . S
C748 C731 1.574 . S
C748 H742 0.949 . S
C748 C752 1.368 . S
C749 C730 1.429 . S
C749 C743 1.429 . S
C749 C750 1.523 . S
C750 C731 1.368 . S
C750 C744 1.368 . S
C750 C749 1.523 . S
C751 C735 1.429 . S
C751 C747 1.429 . S
C751 C752 1.523 . S
C752 C736 1.368 . S
C752 C748 1.368 . S
C752 C751 1.523 . S
H753 C728 0.950 . S
H754 C730 0.950 . S
H755 C731 0.949 . S
H756 C733 0.950 . S
H757 C735 0.950 . S
C758 C759 1.349 . S
C758 C760 1.327 . S
C758 H783 0.950 . S
C759 C758 1.349 . S
C759 C775 1.349 . S
C760 C758 1.327 . S
C760 C779 1.429 . S
C760 H784 0.950 . S
C761 C778 1.574 . S
C761 C780 1.368 . S
C761 H785 0.949 . S
H762 C766 0.949 . S
C763 C764 1.349 . S
C763 C765 1.327 . S
C763 H786 0.950 . S
C764 C763 1.349 . S
C764 C776 1.349 . S
C765 C763 1.327 . S
C765 C781 1.429 . S
C765 H787 0.950 . S
C766 H762 0.949 . S
C766 C774 1.574 . S
C766 C782 1.368 . S
H767 C775 0.950 . S
H768 C773 0.950 . S
H769 C774 0.949 . S
H770 C776 0.950 . S
H771 C777 0.950 . S
H772 C778 0.949 . S
C773 H768 0.950 . S
C773 C775 1.327 . S
C773 C779 1.429 . S
C774 C766 1.574 . S
C774 H769 0.949 . S
C774 C780 1.368 . S
C775 C759 1.349 . S
C775 H767 0.950 . S
C775 C773 1.327 . S
C776 C764 1.349 . S
C776 H770 0.950 . S
C776 C777 1.327 . S
C777 H771 0.950 . S
C777 C776 1.327 . S
C777 C781 1.429 . S
C778 C761 1.574 . S
C778 H772 0.949 . S
C778 C782 1.368 . S
C779 C760 1.429 . S
C779 C773 1.429 . S
C779 C780 1.523 . S
C780 C761 1.368 . S
C780 C774 1.368 . S
C780 C779 1.523 . S
C781 C765 1.429 . S
C781 C777 1.429 . S
C781 C782 1.523 . S
C782 C766 1.368 . S
C782 C778 1.368 . S
C782 C781 1.523 . S
H783 C758 0.950 . S
H784 C760 0.950 . S
H785 C761 0.949 . S
H786 C763 0.950 . S
H787 C765 0.950 . S
C788 C789 1.349 . S
C788 C790 1.327 . S
C788 H813 0.950 . S
C789 C788 1.349 . S
C789 C805 1.349 . S
C790 C788 1.327 . S
C790 C809 1.429 . S
C790 H814 0.950 . S
C791 C808 1.574 . S
C791 C810 1.368 . S
C791 H815 0.949 . S
H792 C796 0.949 . S
C793 C794 1.349 . S
C793 C795 1.327 . S
C793 H816 0.950 . S
C794 C793 1.349 . S
C794 C806 1.349 . S
C795 C793 1.327 . S
C795 C811 1.429 . S
C795 H817 0.950 . S
C796 H792 0.949 . S
C796 C804 1.574 . S
C796 C812 1.368 . S
H797 C805 0.950 . S
H798 C803 0.950 . S
H799 C804 0.949 . S
H800 C806 0.950 . S
H801 C807 0.950 . S
H802 C808 0.949 . S
C803 H798 0.950 . S
C803 C805 1.327 . S
C803 C809 1.429 . S
C804 C796 1.574 . S
C804 H799 0.949 . S
C804 C810 1.368 1_655 S
C805 C789 1.349 . S
C805 H797 0.950 . S
C805 C803 1.327 . S
C806 C794 1.349 . S
C806 H800 0.950 . S
C806 C807 1.327 . S
C807 H801 0.950 . S
C807 C806 1.327 . S
C807 C811 1.429 . S
C808 C791 1.574 . S
C808 H802 0.949 . S
C808 C812 1.368 1_455 S
C809 C790 1.429 . S
C809 C803 1.429 . S
C809 C810 1.523 . S
C810 C791 1.368 . S
C810 C804 1.368 1_455 S
C810 C809 1.523 . S
C811 C795 1.429 . S
C811 C807 1.429 . S
C811 C812 1.523 . S
C812 C796 1.368 . S
C812 C808 1.368 1_655 S
C812 C811 1.523 . S
H813 C788 0.950 . S
H814 C790 0.950 . S
H815 C791 0.949 . S
H816 C793 0.950 . S
H817 C795 0.950 . S
C818 C819 1.349 . S
C818 C820 1.327 . S
C818 H843 0.950 . S
C819 C818 1.349 . S
C819 C835 1.349 . S
C820 C818 1.327 . S
C820 C839 1.429 . S
C820 H844 0.950 . S
C821 C838 1.565 1_554 S
C821 C840 1.376 . S
C821 H845 0.949 . S
H822 C826 0.949 . S
C823 C824 1.349 . S
C823 C825 1.327 . S
C823 H846 0.950 . S
C824 C823 1.349 . S
C824 C836 1.349 . S
C825 C823 1.327 . S
C825 C841 1.429 . S
C825 H847 0.950 . S
C826 H822 0.949 . S
C826 C834 1.565 1_556 S
C826 C842 1.376 . S
H827 C835 0.950 . S
H828 C833 0.950 . S
H829 C834 0.949 . S
H830 C836 0.950 . S
H831 C837 0.950 . S
H832 C838 0.949 . S
C833 H828 0.950 . S
C833 C835 1.327 . S
C833 C839 1.429 . S
C834 C826 1.565 1_554 S
C834 H829 0.949 . S
C834 C840 1.368 . S
C835 C819 1.349 . S
C835 H827 0.950 . S
C835 C833 1.327 . S
C836 C824 1.349 . S
C836 H830 0.950 . S
C836 C837 1.327 . S
C837 H831 0.950 . S
C837 C836 1.327 . S
C837 C841 1.429 . S
C838 C821 1.565 1_556 S
C838 H832 0.949 . S
C838 C842 1.368 . S
C839 C820 1.429 . S
C839 C833 1.429 . S
C839 C840 1.523 . S
C840 C821 1.376 . S
C840 C834 1.368 . S
C840 C839 1.523 . S
C841 C825 1.429 . S
C841 C837 1.429 . S
C841 C842 1.523 . S
C842 C826 1.376 . S
C842 C838 1.368 . S
C842 C841 1.523 . S
H843 C818 0.950 . S
H844 C820 0.950 . S
H845 C821 0.949 . S
H846 C823 0.950 . S
H847 C825 0.950 . S
C848 C849 1.349 . S
C848 C850 1.327 . S
C848 H873 0.950 . S
C849 C848 1.349 . S
C849 C865 1.349 . S
C850 C848 1.327 . S
C850 C869 1.429 . S
C850 H874 0.950 . S
C851 C868 1.574 . S
C851 C870 1.368 . S
C851 H875 0.949 . S
H852 C856 0.949 . S
C853 C854 1.349 . S
C853 C855 1.327 . S
C853 H876 0.950 . S
C854 C853 1.349 . S
C854 C866 1.349 . S
C855 C853 1.327 . S
C855 C871 1.429 . S
C855 H877 0.950 . S
C856 H852 0.949 . S
C856 C864 1.574 . S
C856 C872 1.368 . S
H857 C865 0.950 . S
H858 C863 0.950 . S
H859 C864 0.949 . S
H860 C866 0.950 . S
H861 C867 0.950 . S
H862 C868 0.949 . S
C863 H858 0.950 . S
C863 C865 1.327 . S
C863 C869 1.429 . S
C864 C856 1.574 . S
C864 H859 0.949 . S
C864 C870 1.368 . S
C865 C849 1.349 . S
C865 H857 0.950 . S
C865 C863 1.327 . S
C866 C854 1.349 . S
C866 H860 0.950 . S
C866 C867 1.327 . S
C867 H861 0.950 . S
C867 C866 1.327 . S
C867 C871 1.429 . S
C868 C851 1.574 . S
C868 H862 0.949 . S
C868 C872 1.368 . S
C869 C850 1.429 . S
C869 C863 1.429 . S
C869 C870 1.523 . S
C870 C851 1.368 . S
C870 C864 1.368 . S
C870 C869 1.523 . S
C871 C855 1.429 . S
C871 C867 1.429 . S
C871 C872 1.523 . S
C872 C856 1.368 . S
C872 C868 1.368 . S
C872 C871 1.523 . S
H873 C848 0.950 . S
H874 C850 0.950 . S
H875 C851 0.949 . S
H876 C853 0.950 . S
H877 C855 0.950 . S
C878 C879 1.349 . S
C878 C880 1.327 . S
C878 H903 0.950 . S
C879 C878 1.349 . S
C879 C895 1.349 . S
C880 C878 1.327 . S
C880 C899 1.429 . S
C880 H904 0.950 . S
C881 C898 1.574 . S
C881 C900 1.368 . S
C881 H905 0.949 . S
H882 C886 0.949 . S
C883 C884 1.349 . S
C883 C885 1.327 . S
C883 H906 0.950 . S
C884 C883 1.349 . S
C884 C896 1.349 . S
C885 C883 1.327 . S
C885 C901 1.429 . S
C885 H907 0.950 . S
C886 H882 0.949 . S
C886 C894 1.574 . S
C886 C902 1.368 . S
H887 C895 0.950 . S
H888 C893 0.950 . S
H889 C894 0.949 . S
H890 C896 0.950 . S
H891 C897 0.950 . S
H892 C898 0.949 . S
C893 H888 0.950 . S
C893 C895 1.327 . S
C893 C899 1.429 . S
C894 C886 1.574 . S
C894 H889 0.949 . S
C894 C900 1.368 . S
C895 C879 1.349 . S
C895 H887 0.950 . S
C895 C893 1.327 . S
C896 C884 1.349 . S
C896 H890 0.950 . S
C896 C897 1.327 . S
C897 H891 0.950 . S
C897 C896 1.327 . S
C897 C901 1.429 . S
C898 C881 1.574 . S
C898 H892 0.949 . S
C898 C902 1.368 . S
C899 C880 1.429 . S
C899 C893 1.429 . S
C899 C900 1.523 . S
C900 C881 1.368 . S
C900 C894 1.368 . S
C900 C899 1.523 . S
C901 C885 1.429 . S
C901 C897 1.429 . S
C901 C902 1.523 . S
C902 C886 1.368 . S
C902 C898 1.368 . S
C902 C901 1.523 . S
H903 C878 0.950 . S
H904 C880 0.950 . S
H905 C881 0.949 . S
H906 C883 0.950 . S
H907 C885 0.950 . S
C908 C909 1.349 . S
C908 C910 1.327 . S
C908 H933 0.950 . S
C909 C908 1.349 . S
C909 C925 1.349 . S
C910 C908 1.327 . S
C910 C929 1.429 . S
C910 H934 0.950 . S
C911 C928 1.574 . S
C911 C930 1.368 . S
C911 H935 0.949 . S
H912 C916 0.949 . S
C913 C914 1.349 . S
C913 C915 1.327 . S
C913 H936 0.950 . S
C914 C913 1.349 . S
C914 C926 1.349 . S
C915 C913 1.327 . S
C915 C931 1.429 . S
C915 H937 0.950 . S
C916 H912 0.949 . S
C916 C924 1.574 . S
C916 C932 1.368 . S
H917 C925 0.950 . S
H918 C923 0.950 . S
H919 C924 0.949 . S
H920 C926 0.950 . S
H921 C927 0.950 . S
H922 C928 0.949 . S
C923 H918 0.950 . S
C923 C925 1.327 . S
C923 C929 1.429 . S
C924 C916 1.574 . S
C924 H919 0.949 . S
C924 C930 1.368 . S
C925 C909 1.349 . S
C925 H917 0.950 . S
C925 C923 1.327 . S
C926 C914 1.349 . S
C926 H920 0.950 . S
C926 C927 1.327 . S
C927 H921 0.950 . S
C927 C926 1.327 . S
C927 C931 1.429 . S
C928 C911 1.574 . S
C928 H922 0.949 . S
C928 C932 1.368 . S
C929 C910 1.429 . S
C929 C923 1.429 . S
C929 C930 1.523 . S
C930 C911 1.368 . S
C930 C924 1.368 . S
C930 C929 1.523 . S
C931 C915 1.429 . S
C931 C927 1.429 . S
C931 C932 1.523 . S
C932 C916 1.368 . S
C932 C928 1.368 . S
C932 C931 1.523 . S
H933 C908 0.950 . S
H934 C910 0.950 . S
H935 C911 0.949 . S
H936 C913 0.950 . S
H937 C915 0.950 . S
C938 C939 1.349 1_455 S
C938 C940 1.327 . S
C938 H963 0.950 1_455 S
C939 C938 1.349 1_655 S
C939 C955 1.349 . S
C940 C938 1.327 . S
C940 C959 1.429 . S
C940 H964 0.950 . S
C941 C958 1.574 . S
C941 C960 1.368 . S
C941 H965 0.949 . S
H942 C946 0.949 . S
C943 C944 1.349 . S
C943 C945 1.327 . S
C943 H966 0.950 . S
C944 C943 1.349 . S
C944 C956 1.349 . S
C945 C943 1.327 . S
C945 C961 1.429 . S
C945 H967 0.950 . S
C946 H942 0.949 . S
C946 C954 1.574 . S
C946 C962 1.368 . S
H947 C955 0.950 . S
H948 C953 0.950 . S
H949 C954 0.949 . S
H950 C956 0.950 . S
H951 C957 0.950 . S
H952 C958 0.949 . S
C953 H948 0.950 . S
C953 C955 1.327 1_455 S
C953 C959 1.429 . S
C954 C946 1.574 . S
C954 H949 0.949 . S
C954 C960 1.368 . S
C955 C939 1.349 . S
C955 H947 0.950 . S
C955 C953 1.327 1_655 S
C956 C944 1.349 . S
C956 H950 0.950 . S
C956 C957 1.327 . S
C957 H951 0.950 . S
C957 C956 1.327 . S
C957 C961 1.429 . S
C958 C941 1.574 . S
C958 H952 0.949 . S
C958 C962 1.368 . S
C959 C940 1.429 . S
C959 C953 1.429 . S
C959 C960 1.523 . S
C960 C941 1.368 . S
C960 C954 1.368 . S
C960 C959 1.523 . S
C961 C945 1.429 . S
C961 C957 1.429 . S
C961 C962 1.523 . S
C962 C946 1.368 . S
C962 C958 1.368 . S
C962 C961 1.523 . S
H963 C938 0.950 1_655 S
H964 C940 0.950 . S
H965 C941 0.949 . S
H966 C943 0.950 . S
H967 C945 0.950 . S
C968 C969 1.349 . S
C968 C970 1.327 . S
C968 H993 0.950 . S
C969 C968 1.349 . S
C969 C985 1.349 . S
C970 C968 1.327 . S
C970 C989 1.429 . S
C970 H994 0.950 . S
C971 C988 1.574 . S
C971 C990 1.368 . S
C971 H995 0.949 . S
H972 C976 0.949 . S
C973 C974 1.349 . S
C973 C975 1.327 . S
C973 H996 0.950 . S
C974 C973 1.349 . S
C974 C986 1.349 . S
C975 C973 1.327 . S
C975 C991 1.429 . S
C975 H997 0.950 . S
C976 H972 0.949 . S
C976 C984 1.574 . S
C976 C992 1.368 . S
H977 C985 0.950 . S
H978 C983 0.950 . S
H979 C984 0.949 . S
H980 C986 0.950 . S
H981 C987 0.950 . S
H982 C988 0.949 . S
C983 H978 0.950 . S
C983 C985 1.327 . S
C983 C989 1.429 . S
C984 C976 1.574 . S
C984 H979 0.949 . S
C984 C990 1.368 . S
C985 C969 1.349 . S
C985 H977 0.950 . S
C985 C983 1.327 . S
C986 C974 1.349 . S
C986 H980 0.950 . S
C986 C987 1.327 . S
C987 H981 0.950 . S
C987 C986 1.327 . S
C987 C991 1.429 . S
C988 C971 1.574 . S
C988 H982 0.949 . S
C988 C992 1.368 . S
C989 C970 1.429 . S
C989 C983 1.429 . S
C989 C990 1.523 . S
C990 C971 1.368 . S
C990 C984 1.368 . S
C990 C989 1.523 . S
C991 C975 1.429 . S
C991 C987 1.429 . S
C991 C992 1.523 . S
C992 C976 1.368 . S
C992 C988 1.368 . S
C992 C991 1.523 . S
H993 C968 0.950 . S
H994 C970 0.950 . S
H995 C971 0.949 . S
H996 C973 0.950 . S
H997 C975 0.950 . S
C998 C999 1.349 . S
C998 C1000 1.327 . S
C998 H1023 0.950 . S
C999 C998 1.349 . S
C999 C1015 1.349 . S
C1000 C998 1.327 . S
C1000 C1019 1.429 . S
C1000 H1024 0.950 . S
C1001 C1018 1.574 . S
C1001 C1020 1.368 . S
C1001 H1025 0.949 . S
H1002 C1006 0.949 . S
C1003 C1004 1.349 . S
C1003 C1005 1.327 . S
C1003 H1026 0.950 . S
C1004 C1003 1.349 . S
C1004 C1016 1.349 . S
C1005 C1003 1.327 . S
C1005 C1021 1.429 . S
C1005 H1027 0.950 . S
C1006 H1002 0.949 . S
C1006 C1014 1.574 . S
C1006 C1022 1.368 . S
H1007 C1015 0.950 . S
H1008 C1013 0.950 . S
H1009 C1014 0.949 . S
H1010 C1016 0.950 . S
H1011 C1017 0.950 . S
H1012 C1018 0.949 . S
C1013 H1008 0.950 . S
C1013 C1015 1.327 . S
C1013 C1019 1.429 . S
C1014 C1006 1.574 . S
C1014 H1009 0.949 . S
C1014 C1020 1.368 . S
C1015 C999 1.349 . S
C1015 H1007 0.950 . S
C1015 C1013 1.327 . S
C1016 C1004 1.349 . S
C1016 H1010 0.950 . S
C1016 C1017 1.327 . S
C1017 H1011 0.950 . S
C1017 C1016 1.327 . S
C1017 C1021 1.429 . S
C1018 C1001 1.574 . S
C1018 H1012 0.949 . S
C1018 C1022 1.368 . S
C1019 C1000 1.429 . S
C1019 C1013 1.429 . S
C1019 C1020 1.523 . S
C1020 C1001 1.368 . S
C1020 C1014 1.368 . S
C1020 C1019 1.523 . S
C1021 C1005 1.429 . S
C1021 C1017 1.429 . S
C1021 C1022 1.523 . S
C1022 C1006 1.368 . S
C1022 C1018 1.368 . S
C1022 C1021 1.523 . S
H1023 C998 0.950 . S
H1024 C1000 0.950 . S
H1025 C1001 0.949 . S
H1026 C1003 0.950 . S
H1027 C1005 0.950 . S
C1028 C1029 1.349 . S
C1028 C1030 1.327 . S
C1028 H1053 0.950 . S
C1029 C1028 1.349 . S
C1029 C1045 1.349 . S
C1030 C1028 1.327 . S
C1030 C1049 1.429 . S
C1030 H1054 0.950 . S
C1031 C1048 1.574 . S
C1031 C1050 1.368 . S
C1031 H1055 0.949 . S
H1032 C1036 0.949 . S
C1033 C1034 1.349 . S
C1033 C1035 1.327 . S
C1033 H1056 0.950 . S
C1034 C1033 1.349 . S
C1034 C1046 1.349 . S
C1035 C1033 1.327 . S
C1035 C1051 1.429 . S
C1035 H1057 0.950 . S
C1036 H1032 0.949 . S
C1036 C1044 1.574 . S
C1036 C1052 1.368 . S
H1037 C1045 0.950 . S
H1038 C1043 0.950 . S
H1039 C1044 0.949 . S
H1040 C1046 0.950 . S
H1041 C1047 0.950 . S
H1042 C1048 0.949 . S
C1043 H1038 0.950 . S
C1043 C1045 1.327 . S
C1043 C1049 1.429 . S
C1044 C1036 1.574 . S
C1044 H1039 0.949 . S
C1044 C1050 1.368 . S
C1045 C1029 1.349 . S
C1045 H1037 0.950 . S
C1045 C1043 1.327 . S
C1046 C1034 1.349 . S
C1046 H1040 0.950 . S
C1046 C1047 1.327 . S
C1047 H1041 0.950 . S
C1047 C1046 1.327 . S
C1047 C1051 1.429 . S
C1048 C1031 1.574 . S
C1048 H1042 0.949 . S
C1048 C1052 1.368 . S
C1049 C1030 1.429 . S
C1049 C1043 1.429 . S
C1049 C1050 1.523 . S
C1050 C1031 1.368 . S
C1050 C1044 1.368 . S
C1050 C1049 1.523 . S
C1051 C1035 1.429 . S
C1051 C1047 1.429 . S
C1051 C1052 1.523 . S
C1052 C1036 1.368 . S
C1052 C1048 1.368 . S
C1052 C1051 1.523 . S
H1053 C1028 0.950 . S
H1054 C1030 0.950 . S
H1055 C1031 0.949 . S
H1056 C1033 0.950 . S
H1057 C1035 0.950 . S
C1058 C1059 1.349 . S
C1058 C1060 1.327 . S
C1058 H1083 0.950 . S
C1059 C1058 1.349 . S
C1059 C1075 1.349 . S
C1060 C1058 1.327 . S
C1060 C1079 1.429 . S
C1060 H1084 0.950 . S
C1061 C1078 1.574 . S
C1061 C1080 1.368 . S
C1061 H1085 0.949 . S
H1062 C1066 0.949 . S
C1063 C1064 1.349 1_655 S
C1063 C1065 1.327 . S
C1063 H1086 0.950 . S
C1064 C1063 1.349 1_455 S
C1064 C1076 1.349 . S
C1065 C1063 1.327 . S
C1065 C1081 1.429 . S
C1065 H1087 0.950 . S
C1066 H1062 0.949 . S
C1066 C1074 1.574 . S
C1066 C1082 1.368 . S
H1067 C1075 0.950 . S
H1068 C1073 0.950 . S
H1069 C1074 0.949 . S
H1070 C1076 0.950 . S
H1071 C1077 0.950 . S
H1072 C1078 0.949 . S
C1073 H1068 0.950 . S
C1073 C1075 1.327 . S
C1073 C1079 1.429 . S
C1074 C1066 1.574 . S
C1074 H1069 0.949 . S
C1074 C1080 1.368 . S
C1075 C1059 1.349 . S
C1075 H1067 0.950 . S
C1075 C1073 1.327 . S
C1076 C1064 1.349 . S
C1076 H1070 0.950 . S
C1076 C1077 1.327 1_455 S
C1077 H1071 0.950 . S
C1077 C1076 1.327 1_655 S
C1077 C1081 1.429 . S
C1078 C1061 1.574 . S
C1078 H1072 0.949 . S
C1078 C1082 1.368 . S
C1079 C1060 1.429 . S
C1079 C1073 1.429 . S
C1079 C1080 1.523 . S
C1080 C1061 1.368 . S
C1080 C1074 1.368 . S
C1080 C1079 1.523 . S
C1081 C1065 1.429 . S
C1081 C1077 1.429 . S
C1081 C1082 1.523 . S
C1082 C1066 1.368 . S
C1082 C1078 1.368 . S
C1082 C1081 1.523 . S
H1083 C1058 0.950 . S
H1084 C1060 0.950 . S
H1085 C1061 0.949 . S
H1086 C1063 0.950 . S
H1087 C1065 0.950 . S
C1088 C1089 1.349 . S
C1088 C1090 1.327 . S
C1088 H1113 0.950 . S
C1089 C1088 1.349 . S
C1089 C1105 1.349 . S
C1090 C1088 1.327 . S
C1090 C1109 1.429 . S
C1090 H1114 0.950 . S
C1091 C1108 1.574 . S
C1091 C1110 1.368 . S
C1091 H1115 0.949 . S
H1092 C1096 0.949 . S
C1093 C1094 1.349 . S
C1093 C1095 1.327 . S
C1093 H1116 0.950 . S
C1094 C1093 1.349 . S
C1094 C1106 1.349 . S
C1095 C1093 1.327 . S
C1095 C1111 1.429 . S
C1095 H1117 0.950 . S
C1096 H1092 0.949 . S
C1096 C1104 1.574 . S
C1096 C1112 1.368 . S
H1097 C1105 0.950 . S
H1098 C1103 0.950 . S
H1099 C1104 0.949 . S
H1100 C1106 0.950 . S
H1101 C1107 0.950 . S
H1102 C1108 0.949 . S
C1103 H1098 0.950 . S
C1103 C1105 1.327 . S
C1103 C1109 1.429 . S
C1104 C1096 1.574 . S
C1104 H1099 0.949 . S
C1104 C1110 1.368 . S
C1105 C1089 1.349 . S
C1105 H1097 0.950 . S
C1105 C1103 1.327 . S
C1106 C1094 1.349 . S
C1106 H1100 0.950 . S
C1106 C1107 1.327 . S
C1107 H1101 0.950 . S
C1107 C1106 1.327 . S
C1107 C1111 1.429 . S
C1108 C1091 1.574 . S
C1108 H1102 0.949 . S
C1108 C1112 1.368 . S
C1109 C1090 1.429 . S
C1109 C1103 1.429 . S
C1109 C1110 1.523 . S
C1110 C1091 1.368 . S
C1110 C1104 1.368 . S
C1110 C1109 1.523 . S
C1111 C1095 1.429 . S
C1111 C1107 1.429 . S
C1111 C1112 1.523 . S
C1112 C1096 1.368 . S
C1112 C1108 1.368 . S
C1112 C1111 1.523 . S
H1113 C1088 0.950 . S
H1114 C1090 0.950 . S
H1115 C1091 0.949 . S
H1116 C1093 0.950 . S
H1117 C1095 0.950 . S
C1118 C1119 1.349 . S
C1118 C1120 1.327 . S
C1118 H1143 0.950 . S
C1119 C1118 1.349 . S
C1119 C1135 1.349 . S
C1120 C1118 1.327 . S
C1120 C1139 1.429 . S
C1120 H1144 0.950 . S
C1121 C1138 1.574 . S
C1121 C1140 1.368 . S
C1121 H1145 0.949 . S
H1122 C1126 0.958 . S
C1123 C1124 1.349 1_655 S
C1123 C1125 1.327 . S
C1123 H1146 0.950 . S
C1124 C1123 1.349 1_455 S
C1124 C1136 1.349 . S
C1125 C1123 1.327 . S
C1125 C1141 1.429 . S
C1125 H1147 0.950 . S
C1126 H1122 0.958 . S
C1126 C1134 1.574 . S
C1126 C1142 1.368 . S
H1127 C1135 0.950 . S
H1128 C1133 0.950 . S
H1129 C1134 0.949 . S
H1130 C1136 0.950 . S
H1131 C1137 0.950 . S
H1132 C1138 0.949 . S
C1133 H1128 0.950 . S
C1133 C1135 1.327 . S
C1133 C1139 1.429 . S
C1134 C1126 1.574 . S
C1134 H1129 0.949 . S
C1134 C1140 1.368 . S
C1135 C1119 1.349 . S
C1135 H1127 0.950 . S
C1135 C1133 1.327 . S
C1136 C1124 1.349 . S
C1136 H1130 0.950 . S
C1136 C1137 1.327 1_455 S
C1137 H1131 0.950 . S
C1137 C1136 1.327 1_655 S
C1137 C1141 1.429 . S
C1138 C1121 1.574 . S
C1138 H1132 0.949 . S
C1138 C1142 1.368 . S
C1139 C1120 1.429 . S
C1139 C1133 1.429 . S
C1139 C1140 1.523 . S
C1140 C1121 1.368 . S
C1140 C1134 1.368 . S
C1140 C1139 1.523 . S
C1141 C1125 1.429 . S
C1141 C1137 1.429 . S
C1141 C1142 1.523 1_545 S
C1142 C1126 1.368 . S
C1142 C1138 1.368 . S
C1142 C1141 1.523 1_565 S
H1143 C1118 0.950 . S
H1144 C1120 0.950 . S
H1145 C1121 0.949 . S
H1146 C1123 0.950 . S
H1147 C1125 0.950 . S
C1148 C1149 1.349 . S
C1148 C1150 1.327 . S
C1148 H1173 0.950 . S
C1149 C1148 1.349 . S
C1149 C1165 1.349 . S
C1150 C1148 1.327 . S
C1150 C1169 1.429 . S
C1150 H1174 0.950 . S
C1151 C1168 1.574 . S
C1151 C1170 1.368 . S
C1151 H1175 0.949 . S
H1152 C1156 0.949 . S
C1153 C1154 1.349 . S
C1153 C1155 1.327 . S
C1153 H1176 0.950 . S
C1154 C1153 1.349 . S
C1154 C1166 1.349 . S
C1155 C1153 1.327 . S
C1155 C1171 1.429 . S
C1155 H1177 0.950 . S
C1156 H1152 0.949 . S
C1156 C1164 1.574 . S
C1156 C1172 1.368 . S
H1157 C1165 0.950 . S
H1158 C1163 0.950 . S
H1159 C1164 0.949 . S
H1160 C1166 0.950 . S
H1161 C1167 0.950 . S
H1162 C1168 0.949 . S
C1163 H1158 0.950 . S
C1163 C1165 1.327 . S
C1163 C1169 1.429 . S
C1164 C1156 1.574 . S
C1164 H1159 0.949 . S
C1164 C1170 1.368 . S
C1165 C1149 1.349 . S
C1165 H1157 0.950 . S
C1165 C1163 1.327 . S
C1166 C1154 1.349 . S
C1166 H1160 0.950 . S
C1166 C1167 1.327 . S
C1167 H1161 0.950 . S
C1167 C1166 1.327 . S
C1167 C1171 1.429 . S
C1168 C1151 1.574 . S
C1168 H1162 0.949 . S
C1168 C1172 1.368 . S
C1169 C1150 1.429 . S
C1169 C1163 1.429 . S
C1169 C1170 1.523 . S
C1170 C1151 1.368 . S
C1170 C1164 1.368 . S
C1170 C1169 1.523 . S
C1171 C1155 1.429 . S
C1171 C1167 1.429 . S
C1171 C1172 1.523 . S
C1172 C1156 1.368 . S
C1172 C1168 1.368 . S
C1172 C1171 1.523 . S
H1173 C1148 0.950 . S
H1174 C1150 0.950 . S
H1175 C1151 0.949 . S
H1176 C1153 0.950 . S
H1177 C1155 0.950 . S
C1178 C1179 1.349 . S
C1178 C1180 1.327 . S
C1178 H1203 0.950 . S
C1179 C1178 1.349 . S
C1179 C1195 1.349 . S
C1180 C1178 1.327 . S
C1180 C1199 1.429 . S
C1180 H1204 0.950 . S
C1181 C1198 1.574 . S
C1181 C1200 1.368 . S
C1181 H1205 0.949 . S
H1182 C1186 0.949 . S
C1183 C1184 1.349 . S
C1183 C1185 1.327 . S
C1183 H1206 0.950 . S
C1184 C1183 1.349 . S
C1184 C1196 1.349 . S
C1185 C1183 1.327 . S
C1185 C1201 1.429 . S
C1185 H1207 0.950 . S
C1186 H1182 0.949 . S
C1186 C1194 1.574 . S
C1186 C1202 1.368 . S
H1187 C1195 0.950 . S
H1188 C1193 0.950 . S
H1189 C1194 0.949 . S
H1190 C1196 0.950 . S
H1191 C1197 0.950 . S
H1192 C1198 0.949 . S
C1193 H1188 0.950 . S
C1193 C1195 1.327 . S
C1193 C1199 1.429 . S
C1194 C1186 1.574 . S
C1194 H1189 0.949 . S
C1194 C1200 1.368 . S
C1195 C1179 1.349 . S
C1195 H1187 0.950 . S
C1195 C1193 1.327 . S
C1196 C1184 1.349 . S
C1196 H1190 0.950 . S
C1196 C1197 1.327 . S
C1197 H1191 0.950 . S
C1197 C1196 1.327 . S
C1197 C1201 1.429 . S
C1198 C1181 1.574 . S
C1198 H1192 0.949 . S
C1198 C1202 1.368 . S
C1199 C1180 1.429 . S
C1199 C1193 1.429 . S
C1199 C1200 1.523 . S
C1200 C1181 1.368 . S
C1200 C1194 1.368 . S
C1200 C1199 1.523 . S
C1201 C1185 1.429 . S
C1201 C1197 1.429 . S
C1201 C1202 1.523 1_565 S
C1202 C1186 1.368 . S
C1202 C1198 1.368 . S
C1202 C1201 1.523 1_545 S
H1203 C1178 0.950 . S
H1204 C1180 0.950 . S
H1205 C1181 0.949 . S
H1206 C1183 0.950 . S
H1207 C1185 0.950 . S
C1208 C1209 1.349 . S
C1208 C1210 1.327 . S
C1208 H1233 0.950 . S
C1209 C1208 1.349 . S
C1209 C1225 1.349 . S
C1210 C1208 1.327 . S
C1210 C1229 1.429 . S
C1210 H1234 0.950 . S
C1211 C1228 1.574 . S
C1211 C1230 1.368 . S
C1211 H1235 0.949 . S
H1212 C1216 0.949 . S
C1213 C1214 1.349 . S
C1213 C1215 1.327 . S
C1213 H1236 0.950 . S
C1214 C1213 1.349 . S
C1214 C1226 1.349 . S
C1215 C1213 1.327 . S
C1215 C1231 1.429 . S
C1215 H1237 0.950 . S
C1216 H1212 0.949 . S
C1216 C1224 1.574 . S
C1216 C1232 1.368 . S
H1217 C1225 0.950 . S
H1218 C1223 0.950 . S
H1219 C1224 0.949 . S
H1220 C1226 0.950 . S
H1221 C1227 0.950 . S
H1222 C1228 0.949 . S
C1223 H1218 0.950 . S
C1223 C1225 1.327 . S
C1223 C1229 1.429 . S
C1224 C1216 1.574 . S
C1224 H1219 0.949 . S
C1224 C1230 1.368 . S
C1225 C1209 1.349 . S
C1225 H1217 0.950 . S
C1225 C1223 1.327 . S
C1226 C1214 1.349 . S
C1226 H1220 0.950 . S
C1226 C1227 1.327 . S
C1227 H1221 0.950 . S
C1227 C1226 1.327 . S
C1227 C1231 1.429 . S
C1228 C1211 1.574 . S
C1228 H1222 0.949 . S
C1228 C1232 1.368 . S
C1229 C1210 1.429 . S
C1229 C1223 1.429 . S
C1229 C1230 1.523 . S
C1230 C1211 1.368 . S
C1230 C1224 1.368 . S
C1230 C1229 1.523 . S
C1231 C1215 1.429 . S
C1231 C1227 1.429 . S
C1231 C1232 1.523 . S
C1232 C1216 1.368 . S
C1232 C1228 1.368 . S
C1232 C1231 1.523 . S
H1233 C1208 0.950 . S
H1234 C1210 0.950 . S
H1235 C1211 0.949 . S
H1236 C1213 0.950 . S
H1237 C1215 0.950 . S
C1238 C1239 1.349 1_455 S
C1238 C1240 1.327 . S
C1238 H1263 0.950 . S
C1239 C1238 1.349 1_655 S
C1239 C1255 1.349 . S
C1240 C1238 1.327 . S
C1240 C1259 1.429 . S
C1240 H1264 0.950 . S
C1241 C1258 1.574 . S
C1241 C1260 1.368 . S
C1241 H1265 0.949 1_545 S
H1242 C1246 0.949 . S
C1243 C1244 1.349 . S
C1243 C1245 1.327 . S
C1243 H1266 0.950 . S
C1244 C1243 1.349 . S
C1244 C1256 1.349 . S
C1245 C1243 1.327 . S
C1245 C1261 1.429 . S
C1245 H1267 0.950 . S
C1246 H1242 0.949 . S
C1246 C1254 1.574 . S
C1246 C1262 1.368 . S
H1247 C1255 0.950 . S
H1248 C1253 0.950 . S
H1249 C1254 0.949 . S
H1250 C1256 0.950 . S
H1251 C1257 0.950 . S
H1252 C1258 0.949 . S
C1253 H1248 0.950 . S
C1253 C1255 1.327 1_455 S
C1253 C1259 1.429 . S
C1254 C1246 1.574 . S
C1254 H1249 0.949 . S
C1254 C1260 1.368 . S
C1255 C1239 1.349 . S
C1255 H1247 0.950 . S
C1255 C1253 1.327 1_655 S
C1256 C1244 1.349 . S
C1256 H1250 0.950 . S
C1256 C1257 1.327 . S
C1257 H1251 0.950 . S
C1257 C1256 1.327 . S
C1257 C1261 1.429 . S
C1258 C1241 1.574 . S
C1258 H1252 0.949 . S
C1258 C1262 1.368 . S
C1259 C1240 1.429 . S
C1259 C1253 1.429 . S
C1259 C1260 1.523 1_565 S
C1260 C1241 1.368 . S
C1260 C1254 1.368 . S
C1260 C1259 1.523 1_545 S
C1261 C1245 1.429 . S
C1261 C1257 1.429 . S
C1261 C1262 1.523 . S
C1262 C1246 1.368 . S
C1262 C1258 1.368 . S
C1262 C1261 1.523 . S
H1263 C1238 0.950 . S
H1264 C1240 0.950 . S
H1265 C1241 0.949 1_565 S
H1266 C1243 0.950 . S
H1267 C1245 0.950 . S
C1268 C1269 1.349 . S
C1268 C1270 1.327 . S
C1268 H1293 0.950 . S
C1269 C1268 1.349 . S
C1269 C1285 1.349 . S
C1270 C1268 1.327 . S
C1270 C1289 1.429 . S
C1270 H1294 0.950 . S
C1271 C1288 1.574 . S
C1271 C1290 1.368 . S
C1271 H1295 0.949 . S
H1272 C1276 0.949 . S
C1273 C1274 1.349 . S
C1273 C1275 1.327 . S
C1273 H1296 0.950 . S
C1274 C1273 1.349 . S
C1274 C1286 1.349 . S
C1275 C1273 1.327 . S
C1275 C1291 1.429 . S
C1275 H1297 0.950 . S
C1276 H1272 0.949 . S
C1276 C1284 1.574 . S
C1276 C1292 1.368 . S
H1277 C1285 0.950 . S
H1278 C1283 0.950 . S
H1279 C1284 0.949 . S
H1280 C1286 0.950 . S
H1281 C1287 0.950 . S
H1282 C1288 0.949 . S
C1283 H1278 0.950 . S
C1283 C1285 1.327 . S
C1283 C1289 1.429 . S
C1284 C1276 1.574 . S
C1284 H1279 0.949 . S
C1284 C1290 1.368 . S
C1285 C1269 1.349 . S
C1285 H1277 0.950 . S
C1285 C1283 1.327 . S
C1286 C1274 1.349 . S
C1286 H1280 0.950 . S
C1286 C1287 1.327 . S
C1287 H1281 0.950 . S
C1287 C1286 1.327 . S
C1287 C1291 1.429 . S
C1288 C1271 1.574 . S
C1288 H1282 0.949 . S
C1288 C1292 1.368 . S
C1289 C1270 1.429 . S
C1289 C1283 1.429 . S
C1289 C1290 1.523 . S
C1290 C1271 1.368 . S
C1290 C1284 1.368 . S
C1290 C1289 1.523 . S
C1291 C1275 1.429 . S
C1291 C1287 1.429 . S
C1291 C1292 1.523 . S
C1292 C1276 1.368 . S
C1292 C1288 1.368 . S
C1292 C1291 1.523 . S
H1293 C1268 0.950 . S
H1294 C1270 0.950 . S
H1295 C1271 0.949 . S
H1296 C1273 0.950 . S
H1297 C1275 0.950 . S
C1298 C1299 1.349 . S
C1298 C1300 1.327 . S
C1298 H1323 0.950 . S
C1299 C1298 1.349 . S
C1299 C1315 1.349 . S
C1300 C1298 1.327 . S
C1300 C1319 1.429 . S
C1300 H1324 0.950 1_545 S
C1301 C1318 1.574 . S
C1301 C1320 1.368 . S
C1301 H1325 0.949 1_565 S
H1302 C1306 0.949 . S
C1303 C1304 1.349 . S
C1303 C1305 1.327 . S
C1303 H1326 0.950 . S
C1304 C1303 1.349 . S
C1304 C1316 1.349 . S
C1305 C1303 1.327 . S
C1305 C1321 1.429 . S
C1305 H1327 0.950 . S
C1306 H1302 0.949 . S
C1306 C1314 1.574 . S
C1306 C1322 1.368 . S
H1307 C1315 0.950 . S
H1308 C1313 0.950 . S
H1309 C1314 0.949 . S
H1310 C1316 0.950 . S
H1311 C1317 0.950 . S
H1312 C1318 0.949 . S
C1313 H1308 0.950 . S
C1313 C1315 1.327 . S
C1313 C1319 1.429 . S
C1314 C1306 1.574 . S
C1314 H1309 0.949 . S
C1314 C1320 1.368 . S
C1315 C1299 1.349 . S
C1315 H1307 0.950 . S
C1315 C1313 1.327 . S
C1316 C1304 1.349 . S
C1316 H1310 0.950 . S
C1316 C1317 1.327 . S
C1317 H1311 0.950 . S
C1317 C1316 1.327 . S
C1317 C1321 1.429 . S
C1318 C1301 1.574 . S
C1318 H1312 0.949 . S
C1318 C1322 1.368 . S
C1319 C1300 1.429 . S
C1319 C1313 1.429 . S
C1319 C1320 1.523 1_545 S
C1320 C1301 1.368 . S
C1320 C1314 1.368 . S
C1320 C1319 1.523 1_565 S
C1321 C1305 1.429 . S
C1321 C1317 1.429 . S
C1321 C1322 1.523 . S
C1322 C1306 1.368 . S
C1322 C1318 1.368 . S
C1322 C1321 1.523 . S
H1323 C1298 0.950 . S
H1324 C1300 0.950 1_565 S
H1325 C1301 0.949 1_545 S
H1326 C1303 0.950 . S
H1327 C1305 0.950 . S
C1328 C1329 1.349 . S
C1328 C1330 1.327 1_554 S
C1328 H1353 0.950 . S
C1329 C1328 1.349 . S
C1329 C1345 1.349 . S
C1330 C1328 1.327 1_556 S
C1330 C1349 1.429 . S
C1330 H1354 0.950 . S
C1331 C1348 1.574 . S
C1331 C1350 1.368 . S
C1331 H1355 0.949 . S
H1332 C1336 0.949 . S
C1333 C1334 1.349 . S
C1333 C1335 1.327 . S
C1333 H1356 0.950 . S
C1334 C1333 1.349 . S
C1334 C1346 1.349 . S
C1335 C1333 1.327 . S
C1335 C1351 1.429 . S
C1335 H1357 0.950 . S
C1336 H1332 0.949 . S
C1336 C1344 1.574 . S
C1336 C1352 1.368 . S
H1337 C1345 0.950 . S
H1338 C1343 0.950 . S
H1339 C1344 0.949 . S
H1340 C1346 0.950 . S
H1341 C1347 0.950 . S
H1342 C1348 0.949 . S
C1343 H1338 0.950 . S
C1343 C1345 1.327 . S
C1343 C1349 1.429 1_554 S
C1344 C1336 1.574 . S
C1344 H1339 0.949 . S
C1344 C1350 1.368 . S
C1345 C1329 1.349 . S
C1345 H1337 0.950 . S
C1345 C1343 1.327 . S
C1346 C1334 1.349 . S
C1346 H1340 0.950 . S
C1346 C1347 1.327 . S
C1347 H1341 0.950 . S
C1347 C1346 1.327 . S
C1347 C1351 1.429 . S
C1348 C1331 1.574 . S
C1348 H1342 0.949 . S
C1348 C1352 1.368 . S
C1349 C1330 1.429 . S
C1349 C1343 1.429 1_556 S
C1349 C1350 1.523 . S
C1350 C1331 1.368 . S
C1350 C1344 1.368 . S
C1350 C1349 1.523 . S
C1351 C1335 1.429 . S
C1351 C1347 1.429 . S
C1351 C1352 1.523 . S
C1352 C1336 1.368 . S
C1352 C1348 1.368 . S
C1352 C1351 1.523 . S
H1353 C1328 0.950 . S
H1354 C1330 0.950 . S
H1355 C1331 0.949 . S
H1356 C1333 0.950 . S
H1357 C1335 0.950 . S
C1358 C1359 1.349 . S
C1358 C1360 1.327 . S
C1358 H1383 0.950 . S
C1359 C1358 1.349 . S
C1359 C1375 1.349 . S
C1360 C1358 1.327 . S
C1360 C1379 1.429 . S
C1360 H1384 0.950 . S
C1361 C1378 1.574 . S
C1361 C1380 1.368 . S
C1361 H1385 0.949 . S
H1362 C1366 0.949 . S
C1363 C1364 1.349 . S
C1363 C1365 1.327 . S
C1363 H1386 0.950 . S
C1364 C1363 1.349 . S
C1364 C1376 1.349 . S
C1365 C1363 1.327 . S
C1365 C1381 1.429 . S
C1365 H1387 0.950 . S
C1366 H1362 0.949 . S
C1366 C1374 1.574 . S
C1366 C1382 1.368 . S
H1367 C1375 0.950 . S
H1368 C1373 0.950 . S
H1369 C1374 0.949 . S
H1370 C1376 0.950 . S
H1371 C1377 0.950 . S
H1372 C1378 0.949 . S
C1373 H1368 0.950 . S
C1373 C1375 1.327 . S
C1373 C1379 1.429 . S
C1374 C1366 1.574 . S
C1374 H1369 0.949 . S
C1374 C1380 1.368 . S
C1375 C1359 1.349 . S
C1375 H1367 0.950 . S
C1375 C1373 1.327 . S
C1376 C1364 1.349 . S
C1376 H1370 0.950 . S
C1376 C1377 1.327 . S
C1377 H1371 0.950 . S
C1377 C1376 1.327 . S
C1377 C1381 1.429 . S
C1378 C1361 1.574 . S
C1378 H1372 0.949 . S
C1378 C1382 1.368 . S
C1379 C1360 1.429 . S
C1379 C1373 1.429 . S
C1379 C1380 1.523 . S
C1380 C1361 1.368 . S
C1380 C1374 1.368 . S
C1380 C1379 1.523 . S
C1381 C1365 1.429 . S
C1381 C1377 1.429 . S
C1381 C1382 1.523 . S
C1382 C1366 1.368 . S
C1382 C1378 1.368 . S
C1382 C1381 1.523 . S
H1383 C1358 0.950 . S
H1384 C1360 0.950 . S
H1385 C1361 0.949 . S
H1386 C1363 0.950 . S
H1387 C1365 0.950 . S
C1388 C1389 1.349 . S
C1388 C1390 1.327 . S
C1388 H1413 0.950 . S
C1389 C1388 1.349 . S
C1389 C1405 1.349 . S
C1390 C1388 1.327 . S
C1390 C1409 1.429 . S
C1390 H1414 0.950 . S
C1391 C1408 1.574 . S
C1391 C1410 1.368 . S
C1391 H1415 0.949 . S
H1392 C1396 0.949 . S
C1393 C1394 1.349 . S
C1393 C1395 1.327 . S
C1393 H1416 0.950 . S
C1394 C1393 1.349 . S
C1394 C1406 1.349 . S
C1395 C1393 1.327 . S
C1395 C1411 1.429 . S
C1395 H1417 0.950 . S
C1396 H1392 0.949 . S
C1396 C1404 1.574 . S
C1396 C1412 1.368 . S
H1397 C1405 0.950 . S
H1398 C1403 0.950 . S
H1399 C1404 0.949 . S
H1400 C1406 0.950 . S
H1401 C1407 0.950 . S
H1402 C1408 0.949 . S
C1403 H1398 0.950 . S
C1403 C1405 1.327 . S
C1403 C1409 1.429 . S
C1404 C1396 1.574 . S
C1404 H1399 0.949 . S
C1404 C1410 1.368 . S
C1405 C1389 1.349 . S
C1405 H1397 0.950 . S
C1405 C1403 1.327 . S
C1406 C1394 1.349 . S
C1406 H1400 0.950 . S
C1406 C1407 1.327 . S
C1407 H1401 0.950 . S
C1407 C1406 1.327 . S
C1407 C1411 1.429 . S
C1408 C1391 1.574 . S
C1408 H1402 0.949 . S
C1408 C1412 1.368 . S
C1409 C1390 1.429 . S
C1409 C1403 1.429 . S
C1409 C1410 1.523 . S
C1410 C1391 1.368 . S
C1410 C1404 1.368 . S
C1410 C1409 1.523 . S
C1411 C1395 1.429 . S
C1411 C1407 1.429 . S
C1411 C1412 1.523 . S
C1412 C1396 1.368 . S
C1412 C1408 1.368 . S
C1412 C1411 1.523 . S
H1413 C1388 0.950 . S
H1414 C1390 0.950 . S
H1415 C1391 0.949 . S
H1416 C1393 0.950 . S
H1417 C1395 0.950 . S
C1418 C1419 1.349 . S
C1418 C1420 1.327 . S
C1418 H1443 0.950 . S
C1419 C1418 1.349 . S
C1419 C1435 1.349 . S
C1420 C1418 1.327 . S
C1420 C1439 1.429 . S
C1420 H1444 0.950 . S
C1421 C1438 1.574 . S
C1421 C1440 1.368 . S
C1421 H1445 0.949 . S
H1422 C1426 0.949 . S
C1423 C1424 1.349 . S
C1423 C1425 1.327 . S
C1423 H1446 0.950 . S
C1424 C1423 1.349 . S
C1424 C1436 1.349 . S
C1425 C1423 1.327 . S
C1425 C1441 1.429 . S
C1425 H1447 0.950 . S
C1426 H1422 0.949 . S
C1426 C1434 1.574 . S
C1426 C1442 1.368 . S
H1427 C1435 0.950 . S
H1428 C1433 0.950 . S
H1429 C1434 0.949 . S
H1430 C1436 0.950 . S
H1431 C1437 0.950 . S
H1432 C1438 0.949 . S
C1433 H1428 0.950 . S
C1433 C1435 1.327 . S
C1433 C1439 1.429 . S
C1434 C1426 1.574 . S
C1434 H1429 0.949 . S
C1434 C1440 1.368 . S
C1435 C1419 1.349 . S
C1435 H1427 0.950 . S
C1435 C1433 1.327 . S
C1436 C1424 1.349 . S
C1436 H1430 0.950 . S
C1436 C1437 1.327 . S
C1437 H1431 0.950 . S
C1437 C1436 1.327 . S
C1437 C1441 1.429 . S
C1438 C1421 1.574 . S
C1438 H1432 0.949 . S
C1438 C1442 1.368 . S
C1439 C1420 1.429 . S
C1439 C1433 1.429 . S
C1439 C1440 1.523 . S
C1440 C1421 1.368 . S
C1440 C1434 1.368 . S
C1440 C1439 1.523 . S
C1441 C1425 1.429 . S
C1441 C1437 1.429 . S
C1441 C1442 1.523 . S
C1442 C1426 1.368 . S
C1442 C1438 1.368 . S
C1442 C1441 1.523 . S
H1443 C1418 0.950 . S
H1444 C1420 0.950 . S
H1445 C1421 0.949 . S
H1446 C1423 0.950 . S
H1447 C1425 0.950 . S
C1448 C1449 1.349 . S
C1448 C1450 1.327 . S
C1448 H1473 0.950 . S
C1449 C1448 1.349 . S
C1449 C1465 1.349 . S
C1450 C1448 1.327 . S
C1450 C1469 1.429 . S
C1450 H1474 0.950 . S
C1451 C1468 1.574 . S
C1451 C1470 1.368 . S
C1451 H1475 0.949 . S
H1452 C1456 0.949 . S
C1453 C1454 1.349 . S
C1453 C1455 1.327 . S
C1453 H1476 0.950 . S
C1454 C1453 1.349 . S
C1454 C1466 1.349 . S
C1455 C1453 1.327 . S
C1455 C1471 1.429 1_556 S
C1455 H1477 0.950 . S
C1456 H1452 0.949 . S
C1456 C1464 1.574 . S
C1456 C1472 1.368 . S
H1457 C1465 0.950 . S
H1458 C1463 0.950 . S
H1459 C1464 0.949 . S
H1460 C1466 0.950 . S
H1461 C1467 0.950 . S
H1462 C1468 0.949 . S
C1463 H1458 0.950 . S
C1463 C1465 1.327 . S
C1463 C1469 1.429 . S
C1464 C1456 1.574 . S
C1464 H1459 0.949 . S
C1464 C1470 1.368 . S
C1465 C1449 1.349 . S
C1465 H1457 0.950 . S
C1465 C1463 1.327 . S
C1466 C1454 1.349 . S
C1466 H1460 0.950 . S
C1466 C1467 1.327 1_556 S
C1467 H1461 0.950 . S
C1467 C1466 1.327 1_554 S
C1467 C1471 1.429 . S
C1468 C1451 1.574 . S
C1468 H1462 0.949 . S
C1468 C1472 1.368 . S
C1469 C1450 1.429 . S
C1469 C1463 1.429 . S
C1469 C1470 1.523 . S
C1470 C1451 1.368 . S
C1470 C1464 1.368 . S
C1470 C1469 1.523 . S
C1471 C1455 1.429 1_554 S
C1471 C1467 1.429 . S
C1471 C1472 1.523 . S
C1472 C1456 1.368 . S
C1472 C1468 1.368 . S
C1472 C1471 1.523 . S
H1473 C1448 0.950 . S
H1474 C1450 0.950 . S
H1475 C1451 0.949 . S
H1476 C1453 0.950 . S
H1477 C1455 0.950 . S
C1478 C1479 1.349 . S
C1478 C1480 1.327 . S
C1478 H1503 0.950 . S
C1479 C1478 1.349 . S
C1479 C1495 1.349 . S
C1480 C1478 1.327 . S
C1480 C1499 1.429 . S
C1480 H1504 0.950 . S
C1481 C1498 1.574 . S
C1481 C1500 1.368 . S
C1481 H1505 0.949 . S
H1482 C1486 0.949 . S
C1483 C1484 1.349 . S
C1483 C1485 1.327 . S
C1483 H1506 0.950 . S
C1484 C1483 1.349 . S
C1484 C1496 1.349 . S
C1485 C1483 1.327 . S
C1485 C1501 1.429 . S
C1485 H1507 0.950 . S
C1486 H1482 0.949 . S
C1486 C1494 1.574 . S
C1486 C1502 1.368 . S
H1487 C1495 0.950 . S
H1488 C1493 0.950 . S
H1489 C1494 0.949 . S
H1490 C1496 0.950 . S
H1491 C1497 0.950 . S
H1492 C1498 0.949 . S
C1493 H1488 0.950 . S
C1493 C1495 1.327 . S
C1493 C1499 1.429 . S
C1494 C1486 1.574 . S
C1494 H1489 0.949 . S
C1494 C1500 1.368 . S
C1495 C1479 1.349 . S
C1495 H1487 0.950 . S
C1495 C1493 1.327 . S
C1496 C1484 1.349 . S
C1496 H1490 0.950 . S
C1496 C1497 1.327 . S
C1497 H1491 0.950 . S
C1497 C1496 1.327 . S
C1497 C1501 1.429 . S
C1498 C1481 1.574 . S
C1498 H1492 0.949 . S
C1498 C1502 1.368 . S
C1499 C1480 1.429 . S
C1499 C1493 1.429 . S
C1499 C1500 1.523 . S
C1500 C1481 1.368 . S
C1500 C1494 1.368 . S
C1500 C1499 1.523 . S
C1501 C1485 1.429 . S
C1501 C1497 1.429 . S
C1501 C1502 1.523 . S
C1502 C1486 1.368 . S
C1502 C1498 1.368 . S
C1502 C1501 1.523 . S
H1503 C1478 0.950 . S
H1504 C1480 0.950 . S
H1505 C1481 0.949 . S
H1506 C1483 0.950 . S
H1507 C1485 0.950 . S
C1508 C1509 1.349 . S
C1508 C1510 1.327 . S
C1508 H1533 0.950 . S
C1509 C1508 1.349 . S
C1509 C1525 1.349 . S
C1510 C1508 1.327 . S
C1510 C1529 1.429 . S
C1510 H1534 0.950 . S
C1511 C1528 1.574 . S
C1511 C1530 1.368 . S
C1511 H1535 0.949 . S
H1512 C1516 0.949 . S
C1513 C1514 1.349 . S
C1513 C1515 1.327 . S
C1513 H1536 0.950 . S
C1514 C1513 1.349 . S
C1514 C1526 1.349 . S
C1515 C1513 1.327 . S
C1515 C1531 1.429 . S
C1515 H1537 0.950 . S
C1516 H1512 0.949 . S
C1516 C1524 1.574 . S
C1516 C1532 1.368 . S
H1517 C1525 0.950 . S
H1518 C1523 0.950 . S
H1519 C1524 0.949 . S
H1520 C1526 0.950 . S
H1521 C1527 0.950 . S
H1522 C1528 0.949 . S
C1523 H1518 0.950 . S
C1523 C1525 1.327 . S
C1523 C1529 1.429 . S
C1524 C1516 1.574 . S
C1524 H1519 0.949 . S
C1524 C1530 1.368 . S
C1525 C1509 1.349 . S
C1525 H1517 0.950 . S
C1525 C1523 1.327 . S
C1526 C1514 1.349 . S
C1526 H1520 0.950 . S
C1526 C1527 1.327 . S
C1527 H1521 0.950 . S
C1527 C1526 1.327 . S
C1527 C1531 1.429 . S
C1528 C1511 1.574 . S
C1528 H1522 0.949 . S
C1528 C1532 1.368 . S
C1529 C1510 1.429 . S
C1529 C1523 1.429 . S
C1529 C1530 1.523 . S
C1530 C1511 1.368 . S
C1530 C1524 1.368 . S
C1530 C1529 1.523 . S
C1531 C1515 1.429 . S
C1531 C1527 1.429 . S
C1531 C1532 1.523 . S
C1532 C1516 1.368 . S
C1532 C1528 1.368 . S
C1532 C1531 1.523 . S
H1533 C1508 0.950 . S
H1534 C1510 0.950 . S
H1535 C1511 0.949 . S
H1536 C1513 0.950 . S
H1537 C1515 0.950 . S
C1538 C1539 1.349 . S
C1538 C1540 1.327 . S
C1538 H1563 0.950 . S
C1539 C1538 1.349 . S
C1539 C1555 1.349 . S
C1540 C1538 1.327 . S
C1540 C1559 1.429 . S
C1540 H1564 0.950 . S
C1541 C1558 1.574 . S
C1541 C1560 1.368 . S
C1541 H1565 0.949 . S
H1542 C1546 0.949 . S
C1543 C1544 1.349 . S
C1543 C1545 1.327 . S
C1543 H1566 0.950 . S
C1544 C1543 1.349 . S
C1544 C1556 1.349 . S
C1545 C1543 1.327 . S
C1545 C1561 1.429 . S
C1545 H1567 0.950 . S
C1546 H1542 0.949 . S
C1546 C1554 1.574 . S
C1546 C1562 1.368 . S
H1547 C1555 0.950 . S
H1548 C1553 0.950 . S
H1549 C1554 0.949 . S
H1550 C1556 0.950 . S
H1551 C1557 0.950 . S
H1552 C1558 0.949 . S
C1553 H1548 0.950 . S
C1553 C1555 1.327 . S
C1553 C1559 1.429 . S
C1554 C1546 1.574 . S
C1554 H1549 0.949 . S
C1554 C1560 1.368 . S
C1555 C1539 1.349 . S
C1555 H1547 0.950 . S
C1555 C1553 1.327 . S
C1556 C1544 1.349 . S
C1556 H1550 0.950 . S
C1556 C1557 1.327 . S
C1557 H1551 0.950 . S
C1557 C1556 1.327 . S
C1557 C1561 1.429 . S
C1558 C1541 1.574 . S
C1558 H1552 0.949 . S
C1558 C1562 1.368 . S
C1559 C1540 1.429 . S
C1559 C1553 1.429 . S
C1559 C1560 1.523 . S
C1560 C1541 1.368 . S
C1560 C1554 1.368 . S
C1560 C1559 1.523 . S
C1561 C1545 1.429 . S
C1561 C1557 1.429 . S
C1561 C1562 1.523 . S
C1562 C1546 1.368 . S
C1562 C1558 1.368 . S
C1562 C1561 1.523 . S
H1563 C1538 0.950 . S
H1564 C1540 0.950 . S
H1565 C1541 0.949 . S
H1566 C1543 0.950 . S
H1567 C1545 0.950 . S
C1568 C1569 1.349 . S
C1568 C1570 1.327 . S
C1568 H1593 0.950 . S
C1569 C1568 1.349 . S
C1569 C1585 1.349 . S
C1570 C1568 1.327 . S
C1570 C1589 1.429 . S
C1570 H1594 0.950 . S
C1571 C1588 1.574 . S
C1571 C1590 1.368 . S
C1571 H1595 0.949 . S
H1572 C1576 0.949 . S
C1573 C1574 1.349 . S
C1573 C1575 1.327 . S
C1573 H1596 0.950 . S
C1574 C1573 1.349 . S
C1574 C1586 1.349 . S
C1575 C1573 1.327 . S
C1575 C1591 1.429 . S
C1575 H1597 0.950 . S
C1576 H1572 0.949 . S
C1576 C1584 1.574 . S
C1576 C1592 1.368 . S
H1577 C1585 0.950 . S
H1578 C1583 0.950 . S
H1579 C1584 0.949 . S
H1580 C1586 0.950 . S
H1581 C1587 0.950 . S
H1582 C1588 0.949 . S
C1583 H1578 0.950 . S
C1583 C1585 1.327 . S
C1583 C1589 1.429 . S
C1584 C1576 1.574 . S
C1584 H1579 0.949 . S
C1584 C1590 1.368 . S
C1585 C1569 1.349 . S
C1585 H1577 0.950 . S
C1585 C1583 1.327 . S
C1586 C1574 1.349 . S
C1586 H1580 0.950 . S
C1586 C1587 1.327 . S
C1587 H1581 0.950 . S
C1587 C1586 1.327 . S
C1587 C1591 1.429 . S
C1588 C1571 1.574 . S
C1588 H1582 0.949 . S
C1588 C1592 1.368 . S
C1589 C1570 1.429 . S
C1589 C1583 1.429 . S
C1589 C1590 1.523 . S
C1590 C1571 1.368 . S
C1590 C1584 1.368 . S
C1590 C1589 1.523 . S
C1591 C1575 1.429 . S
C1591 C1587 1.429 . S
C1591 C1592 1.523 . S
C1592 C1576 1.368 . S
C1592 C1588 1.368 . S
C1592 C1591 1.523 . S
H1593 C1568 0.950 . S
H1594 C1570 0.950 . S
H1595 C1571 0.949 . S
H1596 C1573 0.950 . S
H1597 C1575 0.950 . S
C1598 C1599 1.349 . S
C1598 C1600 1.327 . S
C1598 H1623 0.950 . S
C1599 C1598 1.349 . S
C1599 C1615 1.349 . S
C1600 C1598 1.327 . S
C1600 C1619 1.429 . S
C1600 H1624 0.950 . S
C1601 C1618 1.574 . S
C1601 C1620 1.368 . S
C1601 H1625 0.949 . S
H1602 C1606 0.949 . S
C1603 C1604 1.349 . S
C1603 C1605 1.327 . S
C1603 H1626 0.950 . S
C1604 C1603 1.349 . S
C1604 C1616 1.349 . S
C1605 C1603 1.327 . S
C1605 C1621 1.415 1_545 S
C1605 H1627 0.950 . S
C1606 H1602 0.949 . S
C1606 C1614 1.574 . S
C1606 C1622 1.368 . S
H1607 C1615 0.950 . S
H1608 C1613 0.950 . S
H1609 C1614 0.949 . S
H1610 C1616 0.950 1_565 S
H1611 C1617 0.950 . S
H1612 C1618 0.949 1_545 S
C1613 H1608 0.950 . S
C1613 C1615 1.327 . S
C1613 C1619 1.429 . S
C1614 C1606 1.574 . S
C1614 H1609 0.949 . S
C1614 C1620 1.368 . S
C1615 C1599 1.349 . S
C1615 H1607 0.950 . S
C1615 C1613 1.327 . S
C1616 C1604 1.349 . S
C1616 H1610 0.950 1_545 S
C1616 C1617 1.327 1_545 S
C1617 H1611 0.950 . S
C1617 C1616 1.327 1_565 S
C1617 C1621 1.434 . S
C1618 C1601 1.574 . S
C1618 H1612 0.949 1_565 S
C1618 C1622 1.368 . S
C1619 C1600 1.429 . S
C1619 C1613 1.429 . S
C1619 C1620 1.523 . S
C1620 C1601 1.368 . S
C1620 C1614 1.368 . S
C1620 C1619 1.523 . S
C1621 C1605 1.415 1_565 S
C1621 C1617 1.434 . S
C1621 C1622 1.531 . S
C1622 C1606 1.368 . S
C1622 C1618 1.368 . S
C1622 C1621 1.531 . S
H1623 C1598 0.950 . S
H1624 C1600 0.950 . S
H1625 C1601 0.949 . S
H1626 C1603 0.950 . S
H1627 C1605 0.950 . S
C1628 C1629 1.349 . S
C1628 C1630 1.327 . S
C1628 H1653 0.950 . S
C1629 C1628 1.349 . S
C1629 C1645 1.349 . S
C1630 C1628 1.327 . S
C1630 C1649 1.429 . S
C1630 H1654 0.950 . S
C1631 C1648 1.574 . S
C1631 C1650 1.368 . S
C1631 H1655 0.949 . S
H1632 C1636 0.949 . S
C1633 C1634 1.349 . S
C1633 C1635 1.327 1_554 S
C1633 H1656 0.950 . S
C1634 C1633 1.349 . S
C1634 C1646 1.349 . S
C1635 C1633 1.327 1_556 S
C1635 C1651 1.429 . S
C1635 H1657 0.950 . S
C1636 H1632 0.949 . S
C1636 C1644 1.574 . S
C1636 C1652 1.368 . S
H1637 C1645 0.950 . S
H1638 C1643 0.950 . S
H1639 C1644 0.949 . S
H1640 C1646 0.950 . S
H1641 C1647 0.950 . S
H1642 C1648 0.949 . S
C1643 H1638 0.950 . S
C1643 C1645 1.327 . S
C1643 C1649 1.429 . S
C1644 C1636 1.574 . S
C1644 H1639 0.949 . S
C1644 C1650 1.368 . S
C1645 C1629 1.349 . S
C1645 H1637 0.950 . S
C1645 C1643 1.327 . S
C1646 C1634 1.349 . S
C1646 H1640 0.950 . S
C1646 C1647 1.327 . S
C1647 H1641 0.950 . S
C1647 C1646 1.327 . S
C1647 C1651 1.429 1_554 S
C1648 C1631 1.574 . S
C1648 H1642 0.949 . S
C1648 C1652 1.368 . S
C1649 C1630 1.429 . S
C1649 C1643 1.429 . S
C1649 C1650 1.523 . S
C1650 C1631 1.368 . S
C1650 C1644 1.368 . S
C1650 C1649 1.523 . S
C1651 C1635 1.429 . S
C1651 C1647 1.429 1_556 S
C1651 C1652 1.523 . S
C1652 C1636 1.368 . S
C1652 C1648 1.368 . S
C1652 C1651 1.523 . S
H1653 C1628 0.950 . S
H1654 C1630 0.950 . S
H1655 C1631 0.949 . S
H1656 C1633 0.950 . S
H1657 C1635 0.950 . S
C1658 C1659 1.349 . S
C1658 C1660 1.327 . S
C1658 H1683 0.950 . S
C1659 C1658 1.349 . S
C1659 C1675 1.338 1_565 S
C1660 C1658 1.327 . S
C1660 C1679 1.413 1_565 S
C1660 H1684 0.950 . S
C1661 C1678 1.574 . S
C1661 C1680 1.368 . S
C1661 H1685 0.949 . S
H1662 C1666 0.949 . S
C1663 C1664 1.349 . S
C1663 C1665 1.327 . S
C1663 H1686 0.950 . S
C1664 C1663 1.349 . S
C1664 C1676 1.349 . S
C1665 C1663 1.327 . S
C1665 C1681 1.429 . S
C1665 H1687 0.950 . S
C1666 H1662 0.949 . S
C1666 C1674 1.574 1_545 S
C1666 C1682 1.368 . S
H1667 C1675 0.955 . S
H1668 C1673 0.950 . S
H1669 C1674 0.949 . S
H1670 C1676 0.950 . S
H1671 C1677 0.950 . S
H1672 C1678 0.949 . S
C1673 H1668 0.950 . S
C1673 C1675 1.333 . S
C1673 C1679 1.436 . S
C1674 C1666 1.574 1_565 S
C1674 H1669 0.949 . S
C1674 C1680 1.368 1_565 S
C1675 C1659 1.338 1_545 S
C1675 H1667 0.955 . S
C1675 C1673 1.333 . S
C1676 C1664 1.349 . S
C1676 H1670 0.950 . S
C1676 C1677 1.327 . S
C1677 H1671 0.950 . S
C1677 C1676 1.327 . S
C1677 C1681 1.429 . S
C1678 C1661 1.574 . S
C1678 H1672 0.949 . S
C1678 C1682 1.368 . S
C1679 C1660 1.413 1_545 S
C1679 C1673 1.436 . S
C1679 C1680 1.531 . S
C1680 C1661 1.368 . S
C1680 C1674 1.368 1_545 S
C1680 C1679 1.531 . S
C1681 C1665 1.429 . S
C1681 C1677 1.429 . S
C1681 C1682 1.523 . S
C1682 C1666 1.368 . S
C1682 C1678 1.368 . S
C1682 C1681 1.523 . S
H1683 C1658 0.950 . S
H1684 C1660 0.950 . S
H1685 C1661 0.949 . S
H1686 C1663 0.950 . S
H1687 C1665 0.950 . S
C1688 C1689 1.349 . S
C1688 C1690 1.327 . S
C1688 H1713 0.950 . S
C1689 C1688 1.349 . S
C1689 C1705 1.349 . S
C1690 C1688 1.327 . S
C1690 C1709 1.429 . S
C1690 H1714 0.950 . S
C1691 C1708 1.574 . S
C1691 C1710 1.368 . S
C1691 H1715 0.949 . S
H1692 C1696 0.949 . S
C1693 C1694 1.349 . S
C1693 C1695 1.327 . S
C1693 H1716 0.950 . S
C1694 C1693 1.349 . S
C1694 C1706 1.349 . S
C1695 C1693 1.327 . S
C1695 C1711 1.429 . S
C1695 H1717 0.950 . S
C1696 H1692 0.949 . S
C1696 C1704 1.574 . S
C1696 C1712 1.368 . S
H1697 C1705 0.950 . S
H1698 C1703 0.950 . S
H1699 C1704 0.949 . S
H1700 C1706 0.950 . S
H1701 C1707 0.950 . S
H1702 C1708 0.949 . S
C1703 H1698 0.950 . S
C1703 C1705 1.327 . S
C1703 C1709 1.429 . S
C1704 C1696 1.574 . S
C1704 H1699 0.949 . S
C1704 C1710 1.368 . S
C1705 C1689 1.349 . S
C1705 H1697 0.950 . S
C1705 C1703 1.327 . S
C1706 C1694 1.349 . S
C1706 H1700 0.950 . S
C1706 C1707 1.327 . S
C1707 H1701 0.950 . S
C1707 C1706 1.327 . S
C1707 C1711 1.429 . S
C1708 C1691 1.574 . S
C1708 H1702 0.949 . S
C1708 C1712 1.368 . S
C1709 C1690 1.429 . S
C1709 C1703 1.429 . S
C1709 C1710 1.523 . S
C1710 C1691 1.368 . S
C1710 C1704 1.368 . S
C1710 C1709 1.523 . S
C1711 C1695 1.429 . S
C1711 C1707 1.429 . S
C1711 C1712 1.523 . S
C1712 C1696 1.368 . S
C1712 C1708 1.368 . S
C1712 C1711 1.523 . S
H1713 C1688 0.950 . S
H1714 C1690 0.950 . S
H1715 C1691 0.949 . S
H1716 C1693 0.950 . S
H1717 C1695 0.950 . S
C1718 C1719 1.349 . S
C1718 C1720 1.327 . S
C1718 H1743 0.950 . S
C1719 C1718 1.349 . S
C1719 C1735 1.349 . S
C1720 C1718 1.327 . S
C1720 C1739 1.429 . S
C1720 H1744 0.950 . S
C1721 C1738 1.574 . S
C1721 C1740 1.368 . S
C1721 H1745 0.949 . S
H1722 C1726 0.949 1_565 S
C1723 C1724 1.349 . S
C1723 C1725 1.327 1_565 S
C1723 H1746 0.950 1_565 S
C1724 C1723 1.349 . S
C1724 C1736 1.349 . S
C1725 C1723 1.327 1_545 S
C1725 C1741 1.435 . S
C1725 H1747 0.950 . S
C1726 H1722 0.949 1_545 S
C1726 C1734 1.574 . S
C1726 C1742 1.368 . S
H1727 C1735 0.950 . S
H1728 C1733 0.950 . S
H1729 C1734 0.949 . S
H1730 C1736 0.950 . S
H1731 C1737 0.950 . S
H1732 C1738 0.949 . S
C1733 H1728 0.950 . S
C1733 C1735 1.327 . S
C1733 C1739 1.429 . S
C1734 C1726 1.574 . S
C1734 H1729 0.949 . S
C1734 C1740 1.368 . S
C1735 C1719 1.349 . S
C1735 H1727 0.950 . S
C1735 C1733 1.327 . S
C1736 C1724 1.349 . S
C1736 H1730 0.950 . S
C1736 C1737 1.327 . S
C1737 H1731 0.950 . S
C1737 C1736 1.327 . S
C1737 C1741 1.414 1_565 S
C1738 C1721 1.574 . S
C1738 H1732 0.949 . S
C1738 C1742 1.368 . S
C1739 C1720 1.429 . S
C1739 C1733 1.429 . S
C1739 C1740 1.523 . S
C1740 C1721 1.368 . S
C1740 C1734 1.368 . S
C1740 C1739 1.523 . S
C1741 C1725 1.435 . S
C1741 C1737 1.414 1_545 S
C1741 C1742 1.531 . S
C1742 C1726 1.368 . S
C1742 C1738 1.368 . S
C1742 C1741 1.531 . S
H1743 C1718 0.950 . S
H1744 C1720 0.950 . S
H1745 C1721 0.949 . S
H1746 C1723 0.950 1_545 S
H1747 C1725 0.950 . S
C1748 C1749 1.349 . S
C1748 C1750 1.327 . S
C1748 H1773 0.950 . S
C1749 C1748 1.349 . S
C1749 C1765 1.349 . S
C1750 C1748 1.327 . S
C1750 C1769 1.429 . S
C1750 H1774 0.950 . S
C1751 C1768 1.574 . S
C1751 C1770 1.368 . S
C1751 H1775 0.949 . S
H1752 C1756 0.949 . S
C1753 C1754 1.349 . S
C1753 C1755 1.327 . S
C1753 H1776 0.950 . S
C1754 C1753 1.349 . S
C1754 C1766 1.349 . S
C1755 C1753 1.327 . S
C1755 C1771 1.429 1_556 S
C1755 H1777 0.950 . S
C1756 H1752 0.949 . S
C1756 C1764 1.574 . S
C1756 C1772 1.368 . S
H1757 C1765 0.950 . S
H1758 C1763 0.950 . S
H1759 C1764 0.949 . S
H1760 C1766 0.950 . S
H1761 C1767 0.950 . S
H1762 C1768 0.949 . S
C1763 H1758 0.950 . S
C1763 C1765 1.327 . S
C1763 C1769 1.429 . S
C1764 C1756 1.574 . S
C1764 H1759 0.949 . S
C1764 C1770 1.368 . S
C1765 C1749 1.349 . S
C1765 H1757 0.950 . S
C1765 C1763 1.327 . S
C1766 C1754 1.349 . S
C1766 H1760 0.950 . S
C1766 C1767 1.327 1_556 S
C1767 H1761 0.950 . S
C1767 C1766 1.327 1_554 S
C1767 C1771 1.429 . S
C1768 C1751 1.574 . S
C1768 H1762 0.949 . S
C1768 C1772 1.368 . S
C1769 C1750 1.429 . S
C1769 C1763 1.429 . S
C1769 C1770 1.523 . S
C1770 C1751 1.368 . S
C1770 C1764 1.368 . S
C1770 C1769 1.523 . S
C1771 C1755 1.429 1_554 S
C1771 C1767 1.429 . S
C1771 C1772 1.523 . S
C1772 C1756 1.368 . S
C1772 C1768 1.368 . S
C1772 C1771 1.523 . S
H1773 C1748 0.950 . S
H1774 C1750 0.950 . S
H1775 C1751 0.949 . S
H1776 C1753 0.950 . S
H1777 C1755 0.950 . S
C1778 C1779 1.349 . S
C1778 C1780 1.327 . S
C1778 H1803 0.950 . S
C1779 C1778 1.349 . S
C1779 C1795 1.349 . S
C1780 C1778 1.327 . S
C1780 C1799 1.429 . S
C1780 H1804 0.950 . S
C1781 C1798 1.564 1_565 S
C1781 C1800 1.368 . S
C1781 H1805 0.949 . S
H1782 C1786 0.949 . S
C1783 C1784 1.349 . S
C1783 C1785 1.327 . S
C1783 H1806 0.950 . S
C1784 C1783 1.349 . S
C1784 C1796 1.377 . S
C1785 C1783 1.327 . S
C1785 C1801 1.413 1_545 S
C1785 H1807 0.950 . S
C1786 H1782 0.949 . S
C1786 C1794 1.574 . S
C1786 C1802 1.368 . S
H1787 C1795 0.950 . S
H1788 C1793 0.950 . S
H1789 C1794 0.949 . S
H1790 C1796 0.937 1_565 S
H1791 C1797 0.950 . S
H1792 C1798 0.968 . S
C1793 H1788 0.950 . S
C1793 C1795 1.327 . S
C1793 C1799 1.429 . S
C1794 C1786 1.574 . S
C1794 H1789 0.949 . S
C1794 C1800 1.368 . S
C1795 C1779 1.349 . S
C1795 H1787 0.950 . S
C1795 C1793 1.327 . S
C1796 C1784 1.377 . S
C1796 H1790 0.937 1_545 S
C1796 C1797 1.313 1_545 S
C1797 H1791 0.950 . S
C1797 C1796 1.313 1_565 S
C1797 C1801 1.435 . S
C1798 C1781 1.564 1_545 S
C1798 H1792 0.968 . S
C1798 C1802 1.357 1_545 S
C1799 C1780 1.429 . S
C1799 C1793 1.429 . S
C1799 C1800 1.523 . S
C1800 C1781 1.368 . S
C1800 C1794 1.368 . S
C1800 C1799 1.523 . S
C1801 C1785 1.413 1_565 S
C1801 C1797 1.435 . S
C1801 C1802 1.531 . S
C1802 C1786 1.368 . S
C1802 C1798 1.357 1_565 S
C1802 C1801 1.531 . S
H1803 C1778 0.950 . S
H1804 C1780 0.950 . S
H1805 C1781 0.949 . S
H1806 C1783 0.950 . S
H1807 C1785 0.950 . S
C369 C16 0.081 . S
C374 C246 0.081 . S
C399 C39 0.081 . S
C404 C269 0.081 . S
C429 C62 0.081 . S
C434 C200 0.081 . S
C459 C223 0.081 . S
C464 C85 0.081 . S
C489 C108 0.081 . S
C494 C338 0.081 . S
C519 C361 0.081 . S
C524 C131 0.081 . S
C549 C292 0.081 . S
C554 C154 0.081 . S
C579 C177 0.081 . S
C584 C315 0.081 . S
C609 C18 2.138 . S
C614 C110 2.138 . S
C639 C41 2.138 . S
C644 C317 2.138 . S
C669 C64 2.138 . S
C674 C156 2.138 . S
C699 C87 2.138 . S
C704 C363 2.138 . S
C729 C133 2.138 . S
C734 C225 2.138 . S
C759 C271 2.138 . S
C764 C179 2.138 . S
C789 C294 2.138 . S
C794 C202 2.138 . S
C819 C248 2.138 . S
C824 C340 2.138 . S
C849 C21 1.851 . S
C854 C178 1.855 . S
C879 C44 1.851 . S
C884 C293 1.855 . S
C909 C67 1.851 . S
C914 C132 1.855 . S
C939 C90 1.851 . S
C944 C339 1.855 . S
C969 C86 1.855 . S
C974 C113 1.851 . S
C999 C136 1.851 . S
C1004 C201 1.855 . S
C1029 C159 1.851 . S
C1034 C40 1.855 . S
C1059 C247 1.855 . S
C1064 C182 1.851 . S
C1089 C205 1.851 . S
C1094 C362 1.855 1_565 S
C1119 C109 1.855 . S
C1124 C228 1.851 . S
C1149 C316 1.855 1_545 S
C1154 C251 1.851 . S
C1179 C155 1.855 . S
C1184 C274 1.851 . S
C1209 C297 1.851 . S
C1214 C270 1.855 1_545 S
C1239 C320 1.851 . S
C1244 C17 1.855 . S
C1269 C224 1.855 1_565 S
C1274 C343 1.851 . S
C1299 C366 1.851 . S
C1304 C63 1.855 . S
C1329 C19 1.023 . S
C1334 C227 1.034 . S
C1359 C250 1.034 . S
C1364 C42 1.023 . S
C1389 C65 1.023 . S
C1394 C273 1.034 . S
C1419 C204 1.034 . S
C1424 C88 1.023 . S
C1449 C319 1.034 . S
C1454 C111 1.023 . S
C1479 C342 1.034 . S
C1484 C134 1.023 . S
C1509 C365 1.034 . S
C1514 C157 1.023 . S
C1539 C296 1.034 . S
C1544 C180 1.023 . S
C1569 C43 1.034 . S
C1574 C203 1.023 . S
C1599 C66 1.034 . S
C1604 C226 1.023 . S
C1629 C89 1.034 . S
C1634 C249 1.023 . S
C1659 C272 1.023 . S
C1664 C20 1.034 . S
C1689 C135 1.034 . S
C1694 C295 1.023 . S
C1719 C158 1.034 . S
C1724 C318 1.023 . S
C1749 C181 1.034 . S
C1754 C341 1.023 . S
C1779 C112 1.034 . S
C1784 C364 1.023 . S
