# Generated by pormake.
# Topology wkl, (6)-cn, num edge types: 1
# Building blocks:
#     Node 0, Type 0, BuildingBlock: IZENUY_clean_sbu_0, # of connection points: 6
#     Node 1, Type 0, BuildingBlock: IZENUY_clean_sbu_0, # of connection points: 6
#     Node 2, Type 0, BuildingBlock: IZENUY_clean_sbu_0, # of connection points: 6
#     Node 3, Type 0, BuildingBlock: IZENUY_clean_sbu_0, # of connection points: 6
#     Node 4, Type 0, BuildingBlock: IZENUY_clean_sbu_0, # of connection points: 6
#     Node 5, Type 0, BuildingBlock: IZENUY_clean_sbu_0, # of connection points: 6
#     Node 6, Type 0, BuildingBlock: IZENUY_clean_sbu_0, # of connection points: 6
#     Node 7, Type 0, BuildingBlock: IZENUY_clean_sbu_0, # of connection points: 6
#     Node 8, Type 0, BuildingBlock: IZENUY_clean_sbu_0, # of connection points: 6
#     Node 9, Type 0, BuildingBlock: IZENUY_clean_sbu_0, # of connection points: 6
#     Node 10, Type 0, BuildingBlock: IZENUY_clean_sbu_0, # of connection points: 6
#     Node 11, Type 0, BuildingBlock: IZENUY_clean_sbu_0, # of connection points: 6
#     Edge 12, Type (0, 0), BuildingBlock: ZUJKAS_clean_linker_0, # of connection points: 2
#     Edge 13, Type (0, 0), BuildingBlock: ZUJKAS_clean_linker_0, # of connection points: 2
#     Edge 14, Type (0, 0), BuildingBlock: ZUJKAS_clean_linker_0, # of connection points: 2
#     Edge 15, Type (0, 0), BuildingBlock: ZUJKAS_clean_linker_0, # of connection points: 2
#     Edge 16, Type (0, 0), BuildingBlock: ZUJKAS_clean_linker_0, # of connection points: 2
#     Edge 17, Type (0, 0), BuildingBlock: ZUJKAS_clean_linker_0, # of connection points: 2
#     Edge 18, Type (0, 0), BuildingBlock: ZUJKAS_clean_linker_0, # of connection points: 2
#     Edge 19, Type (0, 0), BuildingBlock: ZUJKAS_clean_linker_0, # of connection points: 2
#     Edge 20, Type (0, 0), BuildingBlock: ZUJKAS_clean_linker_0, # of connection points: 2
#     Edge 21, Type (0, 0), BuildingBlock: ZUJKAS_clean_linker_0, # of connection points: 2
#     Edge 22, Type (0, 0), BuildingBlock: ZUJKAS_clean_linker_0, # of connection points: 2
#     Edge 23, Type (0, 0), BuildingBlock: ZUJKAS_clean_linker_0, # of connection points: 2
#     Edge 24, Type (0, 0), BuildingBlock: ZUJKAS_clean_linker_0, # of connection points: 2
#     Edge 25, Type (0, 0), BuildingBlock: ZUJKAS_clean_linker_0, # of connection points: 2
#     Edge 26, Type (0, 0), BuildingBlock: ZUJKAS_clean_linker_0, # of connection points: 2
#     Edge 27, Type (0, 0), BuildingBlock: ZUJKAS_clean_linker_0, # of connection points: 2
#     Edge 28, Type (0, 0), BuildingBlock: ZUJKAS_clean_linker_0, # of connection points: 2
#     Edge 29, Type (0, 0), BuildingBlock: ZUJKAS_clean_linker_0, # of connection points: 2
#     Edge 30, Type (0, 0), BuildingBlock: ZUJKAS_clean_linker_0, # of connection points: 2
#     Edge 31, Type (0, 0), BuildingBlock: ZUJKAS_clean_linker_0, # of connection points: 2
#     Edge 32, Type (0, 0), BuildingBlock: ZUJKAS_clean_linker_0, # of connection points: 2
#     Edge 33, Type (0, 0), BuildingBlock: ZUJKAS_clean_linker_0, # of connection points: 2
#     Edge 34, Type (0, 0), BuildingBlock: ZUJKAS_clean_linker_0, # of connection points: 2
#     Edge 35, Type (0, 0), BuildingBlock: ZUJKAS_clean_linker_0, # of connection points: 2
#     Edge 36, Type (0, 0), BuildingBlock: ZUJKAS_clean_linker_0, # of connection points: 2
#     Edge 37, Type (0, 0), BuildingBlock: ZUJKAS_clean_linker_0, # of connection points: 2
#     Edge 38, Type (0, 0), BuildingBlock: ZUJKAS_clean_linker_0, # of connection points: 2
#     Edge 39, Type (0, 0), BuildingBlock: ZUJKAS_clean_linker_0, # of connection points: 2
#     Edge 40, Type (0, 0), BuildingBlock: ZUJKAS_clean_linker_0, # of connection points: 2
#     Edge 41, Type (0, 0), BuildingBlock: ZUJKAS_clean_linker_0, # of connection points: 2
#     Edge 42, Type (0, 0), BuildingBlock: ZUJKAS_clean_linker_0, # of connection points: 2
#     Edge 43, Type (0, 0), BuildingBlock: ZUJKAS_clean_linker_0, # of connection points: 2
#     Edge 44, Type (0, 0), BuildingBlock: ZUJKAS_clean_linker_0, # of connection points: 2
#     Edge 45, Type (0, 0), BuildingBlock: ZUJKAS_clean_linker_0, # of connection points: 2
#     Edge 46, Type (0, 0), BuildingBlock: ZUJKAS_clean_linker_0, # of connection points: 2
#     Edge 47, Type (0, 0), BuildingBlock: ZUJKAS_clean_linker_0, # of connection points: 2
# Relax obj value: 0.387
# Max RMSD: 0.287
# Mean RMSD: 0.287
data_MOF--net-wkl--node1-IZENUY_clean_sbu_0--edge1-ZUJKAS_clean_linker_0
_symmetry_space_group_name_H-M    P1
_symmetry_Int_Tables_number       1
_symmetry_cell_setting            triclinic
loop_
_symmetry_equiv_pos_as_xyz
'x, y, z'
_cell_length_a     91.507451
_cell_length_b     91.51817
_cell_length_c     19.441434
_cell_angle_alpha  89.999264
_cell_angle_beta   90.001754
_cell_angle_gamma 119.99485
loop_
_atom_site_label
_atom_site_type_symbol
_atom_site_fract_x
_atom_site_fract_y
_atom_site_fract_z
_atom_type_partial_charge
Fe0 Fe 0.46948 0.10913 0.06077 0.0
Fe1 Fe 0.48248 0.14081 0.97177 0.0
O2 O 0.46589 0.12391 0.01701 0.0
Fe3 Fe 0.44553 0.12174 0.01839 0.0
O4 O 0.44642 0.12424 0.11124 0.0
O5 O 0.45442 0.10558 0.13034 0.0
O6 O 0.48551 0.12536 0.11456 0.0
C7 C 0.49863 0.13805 0.09198 0.0
C8 C 0.43847 0.08806 0.00783 0.0
O9 O 0.49923 0.1431 0.0308 0.0
C10 C 0.45438 0.1297 0.88363 0.0
O11 O 0.48524 0.11012 0.99948 0.0
O12 O 0.48552 0.12662 0.91673 0.0
O13 O 0.43403 0.09857 0.02555 0.0
O14 O 0.45375 0.09201 0.00943 0.0
C15 C 0.46731 0.15696 0.0287 0.0
O16 O 0.46865 0.14133 0.90434 0.0
O17 O 0.4438 0.11915 0.92552 0.0
C18 C 0.48861 0.11544 0.93814 0.0
O19 O 0.48062 0.15616 0.02392 0.0
O20 O 0.45319 0.14446 0.01205 0.0
C21 C 0.44894 0.11502 0.15222 0.0
Fe22 Fe 0.32446 0.44841 0.20079 0.0
Fe23 Fe 0.36085 0.47313 0.24361 0.0
O24 O 0.34231 0.46898 0.19946 0.0
Fe25 Fe 0.34154 0.48526 0.15362 0.0
O26 O 0.3241 0.48302 0.20523 0.0
O27 O 0.30895 0.45552 0.19437 0.0
O28 O 0.32277 0.44922 0.29366 0.0
C29 C 0.33459 0.45207 0.3348 0.0
C30 C 0.32509 0.45703 0.06584 0.0
O31 O 0.34959 0.45801 0.31325 0.0
C32 C 0.37335 0.49215 0.12063 0.0
O33 O 0.33661 0.43743 0.20766 0.0
O34 O 0.36279 0.4576 0.19306 0.0
O35 O 0.32743 0.4712 0.08622 0.0
O36 O 0.32536 0.44666 0.10795 0.0
C37 C 0.36022 0.50189 0.27377 0.0
O38 O 0.37538 0.48905 0.18226 0.0
O39 O 0.35896 0.48859 0.09895 0.0
C40 C 0.35171 0.44221 0.19077 0.0
O41 O 0.36021 0.48901 0.2968 0.0
O42 O 0.35562 0.50221 0.21257 0.0
C43 C 0.31016 0.46952 0.20998 0.0
Fe44 Fe 0.8879 0.36038 0.39781 0.0
Fe45 Fe 0.85619 0.34221 0.30844 0.0
O46 O 0.87296 0.34217 0.35349 0.0
Fe47 Fe 0.8748 0.3238 0.35416 0.0
O48 O 0.87234 0.32207 0.44703 0.0
O49 O 0.8912 0.34862 0.46695 0.0
O50 O 0.87176 0.36037 0.45163 0.0
C51 C 0.85922 0.36108 0.42911 0.0
C52 C 0.90871 0.35012 0.3442 0.0
O53 O 0.85416 0.35675 0.36786 0.0
C54 C 0.86686 0.32495 0.2196 0.0
O55 O 0.88721 0.37538 0.33685 0.0
O56 O 0.87059 0.35942 0.25381 0.0
O57 O 0.89796 0.33514 0.3608 0.0
O58 O 0.90499 0.36162 0.34674 0.0
C59 C 0.83962 0.31082 0.36451 0.0
O60 O 0.85542 0.32785 0.24054 0.0
O61 O 0.87733 0.32472 0.26129 0.0
C62 C 0.88191 0.37359 0.2755 0.0
O63 O 0.84064 0.32503 0.36021 0.0
O64 O 0.85201 0.30902 0.34794 0.0
C65 C 0.88164 0.3337 0.48833 0.0
Fe66 Fe 0.54963 0.87695 0.53292 0.0
Fe67 Fe 0.52523 0.88902 0.5758 0.0
O68 O 0.52913 0.87442 0.53195 0.0
Fe69 Fe 0.51268 0.85735 0.48681 0.0
O70 O 0.51487 0.84216 0.53872 0.0
O71 O 0.54234 0.85431 0.52689 0.0
O72 O 0.5489 0.87456 0.62582 0.0
C73 C 0.54618 0.88364 0.66688 0.0
C74 C 0.54075 0.86882 0.39828 0.0
O75 O 0.5404 0.89283 0.64518 0.0
C76 C 0.50599 0.88238 0.45333 0.0
O77 O 0.5608 0.9001 0.53936 0.0
O78 O 0.5408 0.90633 0.52466 0.0
O79 O 0.52658 0.85708 0.41912 0.0
O80 O 0.55125 0.87948 0.44004 0.0
C81 C 0.49634 0.85987 0.6071 0.0
O82 O 0.50928 0.88769 0.5147 0.0
O83 O 0.50938 0.87142 0.43189 0.0
C84 C 0.55615 0.9105 0.5223 0.0
O85 O 0.50934 0.87269 0.62956 0.0
O86 O 0.49587 0.85472 0.54617 0.0
C87 C 0.52833 0.84162 0.5432 0.0
Fe88 Fe 0.65407 0.51239 0.65542 0.0
Fe89 Fe 0.67131 0.54914 0.70389 0.0
O90 O 0.65338 0.52864 0.70184 0.0
Fe91 Fe 0.63481 0.5245 0.74575 0.0
O92 O 0.63528 0.50844 0.79833 0.0
O93 O 0.63976 0.49532 0.71348 0.0
O94 O 0.67132 0.51434 0.70745 0.0
C95 C 0.68531 0.52776 0.71286 0.0
C96 C 0.62245 0.50592 0.62175 0.0
O97 O 0.68669 0.54185 0.69751 0.0
C98 C 0.6442 0.55558 0.69419 0.0
O99 O 0.6684 0.52654 0.5888 0.0
O100 O 0.67055 0.55108 0.61106 0.0
O101 O 0.62031 0.50878 0.68362 0.0
O102 O 0.63683 0.5094 0.60039 0.0
C103 C 0.66102 0.5453 0.83775 0.0
O104 O 0.65928 0.56025 0.71098 0.0
O105 O 0.63306 0.54021 0.69583 0.0
C106 C 0.67082 0.54075 0.56872 0.0
O107 O 0.67287 0.54816 0.79673 0.0
O108 O 0.64604 0.53941 0.81602 0.0
C109 C 0.63517 0.49555 0.77477 0.0
Fe110 Fe 0.12026 0.67258 0.85777 0.0
Fe111 Fe 0.10729 0.63598 0.90104 0.0
O112 O 0.12221 0.65428 0.85701 0.0
Fe113 Fe 0.13903 0.65436 0.8119 0.0
O114 O 0.15452 0.67157 0.86369 0.0
O115 O 0.14302 0.68747 0.85165 0.0
O116 O 0.12269 0.67426 0.95066 0.0
C117 C 0.11341 0.6626 0.99184 0.0
C118 C 0.12822 0.67151 0.72315 0.0
O119 O 0.10391 0.64767 0.97033 0.0
C120 C 0.11343 0.62291 0.77873 0.0
O121 O 0.09711 0.66116 0.86435 0.0
O122 O 0.09019 0.63472 0.84994 0.0
O123 O 0.13971 0.66869 0.74405 0.0
O124 O 0.11773 0.67169 0.7649 0.0
C125 C 0.13602 0.63539 0.93241 0.0
O126 O 0.10814 0.62108 0.84008 0.0
O127 O 0.12466 0.63713 0.75714 0.0
C128 C 0.08639 0.64617 0.84775 0.0
O129 O 0.12339 0.63595 0.95481 0.0
O130 O 0.14122 0.63994 0.87144 0.0
C131 C 0.15545 0.68573 0.8683 0.0
Fe132 Fe 0.87541 0.55063 0.83582 0.0
Fe133 Fe 0.88833 0.52694 0.79283 0.0
O134 O 0.87348 0.53038 0.83699 0.0
Fe135 Fe 0.85669 0.5137 0.88244 0.0
O136 O 0.84119 0.5153 0.83017 0.0
O137 O 0.85264 0.54271 0.84196 0.0
O138 O 0.87292 0.54979 0.74301 0.0
C139 C 0.88205 0.54725 0.7016 0.0
C140 C 0.86741 0.54177 0.97044 0.0
O141 O 0.89155 0.5418 0.72293 0.0
C142 C 0.88236 0.50802 0.91605 0.0
O143 O 0.89856 0.56238 0.82892 0.0
O144 O 0.90553 0.54289 0.84305 0.0
O145 O 0.85593 0.52744 0.94965 0.0
O146 O 0.87798 0.55237 0.92873 0.0
C147 C 0.85965 0.49745 0.76287 0.0
O148 O 0.88767 0.51142 0.85466 0.0
O149 O 0.87107 0.51095 0.93746 0.0
C150 C 0.90932 0.55813 0.84506 0.0
O151 O 0.87213 0.51066 0.73973 0.0
O152 O 0.85459 0.49697 0.82392 0.0
C153 C 0.84025 0.52853 0.82515 0.0
Fe154 Fe 0.32315 0.87565 0.9961 0.0
Fe155 Fe 0.3598 0.88826 0.95491 0.0
O156 O 0.34131 0.87343 0.99801 0.0
Fe157 Fe 0.34089 0.85651 0.04345 0.0
O158 O 0.32368 0.84116 0.99131 0.0
O159 O 0.30802 0.85294 0.00235 0.0
O160 O 0.3217 0.87319 0.90323 0.0
C161 C 0.33353 0.88247 0.86264 0.0
C162 C 0.3239 0.86772 0.13109 0.0
O163 O 0.3484 0.8919 0.88504 0.0
C164 C 0.37244 0.88177 0.07758 0.0
O165 O 0.33486 0.8988 0.98915 0.0
O166 O 0.3611 0.90532 0.00655 0.0
O167 O 0.32654 0.85607 0.11068 0.0
O168 O 0.32388 0.87823 0.08897 0.0
C169 C 0.36005 0.85936 0.92364 0.0
O170 O 0.37445 0.88712 0.01631 0.0
O171 O 0.35811 0.8707 0.09876 0.0
C172 C 0.34972 0.90921 0.00817 0.0
O173 O 0.35976 0.87213 0.90113 0.0
O174 O 0.35528 0.85411 0.98443 0.0
C175 C 0.30959 0.84037 0.98652 0.0
Fe176 Fe 0.44628 0.32564 0.15722 0.0
Fe177 Fe 0.47096 0.36206 0.11466 0.0
O178 O 0.46682 0.34354 0.1589 0.0
Fe179 Fe 0.48308 0.34283 0.20516 0.0
O180 O 0.48098 0.32544 0.15366 0.0
O181 O 0.45347 0.31019 0.16402 0.0
O182 O 0.44722 0.32397 0.06439 0.0
C183 C 0.45006 0.33578 0.02321 0.0
C184 C 0.45475 0.32627 0.29237 0.0
O185 O 0.45595 0.35077 0.04474 0.0
C186 C 0.48986 0.3746 0.23796 0.0
O187 O 0.43524 0.33772 0.14981 0.0
O188 O 0.45533 0.36392 0.16478 0.0
O189 O 0.46897 0.32868 0.2723 0.0
O190 O 0.44441 0.32652 0.25003 0.0
C191 C 0.49981 0.3615 0.08521 0.0
O192 O 0.48679 0.37662 0.17625 0.0
O193 O 0.48629 0.36022 0.25974 0.0
C194 C 0.43995 0.35281 0.1665 0.0
O195 O 0.48695 0.36149 0.06188 0.0
O196 O 0.50009 0.35694 0.1465 0.0
C197 C 0.46752 0.31147 0.14871 0.0
Fe198 Fe 0.11947 0.44631 0.32788 0.0
Fe199 Fe 0.10691 0.47025 0.2833 0.0
O200 O 0.12153 0.46664 0.32864 0.0
Fe201 Fe 0.13815 0.48323 0.37511 0.0
O202 O 0.15386 0.48156 0.3247 0.0
O203 O 0.1422 0.4541 0.33535 0.0
O204 O 0.12218 0.4471 0.23498 0.0
C205 C 0.1133 0.44985 0.19289 0.0
C206 C 0.12689 0.45512 0.46335 0.0
O207 O 0.10384 0.45541 0.2136 0.0
C208 C 0.11249 0.48914 0.40618 0.0
O209 O 0.09636 0.43472 0.31988 0.0
O210 O 0.08948 0.45432 0.33282 0.0
O211 O 0.13846 0.46945 0.44311 0.0
O212 O 0.11664 0.44448 0.42083 0.0
C213 C 0.13584 0.49957 0.25441 0.0
O214 O 0.1075 0.48588 0.34438 0.0
O215 O 0.12355 0.48601 0.42863 0.0
C216 C 0.08563 0.43906 0.33526 0.0
O217 O 0.12332 0.48646 0.23095 0.0
O218 O 0.14072 0.50003 0.31579 0.0
C219 C 0.15475 0.4683 0.32004 0.0
Fe220 Fe 0.67188 0.12158 0.49484 0.0
Fe221 Fe 0.63522 0.10884 0.4531 0.0
O222 O 0.65364 0.12364 0.49673 0.0
Fe223 Fe 0.65393 0.14049 0.54245 0.0
O224 O 0.67098 0.15591 0.48984 0.0
O225 O 0.68685 0.14434 0.50079 0.0
O226 O 0.67338 0.12404 0.40198 0.0
C227 C 0.66161 0.11486 0.36101 0.0
C228 C 0.6712 0.12956 0.62971 0.0
O229 O 0.64669 0.10548 0.38283 0.0
C230 C 0.62257 0.11496 0.57676 0.0
O231 O 0.66035 0.09843 0.48805 0.0
O232 O 0.63397 0.09163 0.50334 0.0
O233 O 0.66848 0.14114 0.60919 0.0
O234 O 0.67117 0.11901 0.58771 0.0
C235 C 0.6346 0.13763 0.42342 0.0
O236 O 0.62053 0.10965 0.51535 0.0
O237 O 0.63685 0.12619 0.59786 0.0
C238 C 0.64537 0.08776 0.50492 0.0
O239 O 0.63519 0.12508 0.40012 0.0
O240 O 0.63927 0.14268 0.4844 0.0
C241 C 0.68511 0.15678 0.48435 0.0
Fe242 Fe 0.54942 0.672 0.65253 0.0
Fe243 Fe 0.5243 0.63562 0.61085 0.0
O244 O 0.52876 0.65431 0.65461 0.0
Fe245 Fe 0.5127 0.65536 0.70091 0.0
O246 O 0.51499 0.67274 0.64881 0.0
O247 O 0.54253 0.68769 0.65878 0.0
O248 O 0.54849 0.67356 0.55967 0.0
C249 C 0.54541 0.66164 0.51872 0.0
C250 C 0.5411 0.67171 0.78767 0.0
O251 O 0.53928 0.64664 0.54054 0.0
C252 C 0.50564 0.62356 0.73485 0.0
O253 O 0.56018 0.65963 0.64566 0.0
O254 O 0.53983 0.63356 0.66079 0.0
O255 O 0.52698 0.66955 0.76754 0.0
O256 O 0.55132 0.67122 0.74537 0.0
C257 C 0.49563 0.63652 0.5817 0.0
O258 O 0.50846 0.62131 0.67306 0.0
O259 O 0.50937 0.63803 0.75606 0.0
C260 C 0.55526 0.64452 0.6626 0.0
O261 O 0.50839 0.63637 0.5582 0.0
O262 O 0.49551 0.64124 0.64287 0.0
C263 C 0.52856 0.6866 0.64356 0.0
H264 H 0.42787 0.10386 0.81469 0.0
H265 H 0.42371 0.1007 0.68977 0.0
H266 H 0.46751 0.1498 0.66 0.0
H267 H 0.47191 0.15301 0.78409 0.0
H268 H 0.42018 0.12089 0.58358 0.0
H269 H 0.47859 0.11708 0.55662 0.0
H270 H 0.46849 0.1151 0.63854 0.0
H271 H 0.48153 0.13557 0.60098 0.0
C272 C 0.43647 0.11409 0.78159 0.0
C273 C 0.45033 0.12861 0.80935 0.0
C274 C 0.43406 0.11226 0.71028 0.0
C275 C 0.44548 0.1249 0.66578 0.0
C276 C 0.45874 0.13978 0.6935 0.0
H277 H 0.443 0.13735 0.22381 0.0
H278 H 0.44024 0.13874 0.34858 0.0
C279 C 0.4612 0.14159 0.76451 0.0
C280 C 0.44428 0.12218 0.59041 0.0
H281 H 0.46595 0.11917 0.45356 0.0
C282 C 0.43012 0.12043 0.555 0.0
C283 C 0.45716 0.12132 0.55357 0.0
C284 C 0.47223 0.1222 0.58931 0.0
C285 C 0.42871 0.11825 0.48319 0.0
C286 C 0.44192 0.11803 0.44612 0.0
C287 C 0.45589 0.11945 0.48194 0.0
C288 C 0.44165 0.11626 0.37018 0.0
C289 C 0.41304 0.11597 0.44787 0.0
C290 C 0.44342 0.10323 0.34082 0.0
C291 C 0.44521 0.10252 0.2698 0.0
C292 C 0.44524 0.11485 0.22648 0.0
C293 C 0.44289 0.12759 0.25569 0.0
C294 C 0.44122 0.12835 0.32701 0.0
H295 H 0.40235 0.11177 0.48446 0.0
H296 H 0.41565 0.1282 0.42557 0.0
H297 H 0.40916 0.10662 0.40549 0.0
H298 H 0.44383 0.09379 0.37314 0.0
H299 H 0.44693 0.0925 0.24906 0.0
H300 H 0.32514 0.43082 0.99734 0.0
H301 H 0.3242 0.42659 0.87245 0.0
H302 H 0.31754 0.46956 0.84206 0.0
H303 H 0.31866 0.47403 0.96607 0.0
H304 H 0.30018 0.42244 0.76597 0.0
H305 H 0.36173 0.48161 0.73917 0.0
H306 H 0.35375 0.47142 0.82106 0.0
H307 H 0.34593 0.48414 0.78359 0.0
C308 C 0.32322 0.43921 0.96411 0.0
C309 C 0.32217 0.45288 0.99165 0.0
C310 C 0.32268 0.43677 0.89283 0.0
C311 C 0.32109 0.44795 0.84817 0.0
C312 C 0.31907 0.46098 0.87569 0.0
H313 H 0.30606 0.44536 0.40638 0.0
H314 H 0.30191 0.44239 0.53113 0.0
C315 C 0.31968 0.46348 0.94666 0.0
C316 C 0.32268 0.44678 0.77285 0.0
H317 H 0.34712 0.46882 0.63607 0.0
C318 C 0.31046 0.43251 0.7374 0.0
C319 C 0.33627 0.45984 0.73605 0.0
C320 C 0.35027 0.47505 0.77185 0.0
C321 C 0.31127 0.43116 0.66558 0.0
C322 C 0.32453 0.44453 0.62854 0.0
C323 C 0.3369 0.45862 0.66441 0.0
C324 C 0.32604 0.44435 0.55259 0.0
C325 C 0.29809 0.41537 0.63019 0.0
C326 C 0.34099 0.44649 0.52317 0.0
C327 C 0.34348 0.44841 0.4522 0.0
C328 C 0.33106 0.4482 0.40896 0.0
C329 C 0.31582 0.44545 0.4382 0.0
C330 C 0.31339 0.44365 0.5095 0.0
H331 H 0.29179 0.40464 0.66672 0.0
H332 H 0.28828 0.41773 0.60801 0.0
H333 H 0.30371 0.41169 0.58772 0.0
H334 H 0.35094 0.4471 0.55544 0.0
H335 H 0.35534 0.45043 0.43144 0.0
H336 H 0.9043 0.35382 0.58548 0.0
H337 H 0.90279 0.34936 0.70951 0.0
H338 H 0.85732 0.3013 0.68421 0.0
H339 H 0.85891 0.30551 0.55943 0.0
H340 H 0.87743 0.3466 0.78898 0.0
H341 H 0.88363 0.28972 0.82123 0.0
H342 H 0.88912 0.30171 0.74227 0.0
H343 H 0.86742 0.28693 0.76176 0.0
C344 C 0.89411 0.34215 0.60604 0.0
C345 C 0.88169 0.33003 0.56251 0.0
C346 C 0.89329 0.33962 0.67703 0.0
C347 C 0.88003 0.32494 0.70617 0.0
C348 C 0.86786 0.31256 0.6628 0.0
H349 H 0.8436 0.31959 0.1203 0.0
H350 H 0.84662 0.31816 0.9962 0.0
C351 C 0.86874 0.31503 0.59149 0.0
C352 C 0.87815 0.32348 0.78207 0.0
H353 H 0.87483 0.29883 0.92001 0.0
C354 C 0.87695 0.33619 0.81758 0.0
C355 C 0.87766 0.30996 0.81942 0.0
C356 C 0.87969 0.29638 0.78439 0.0
C357 C 0.87506 0.33568 0.8892 0.0
C358 C 0.87397 0.32188 0.92633 0.0
C359 C 0.87547 0.30928 0.8912 0.0
C360 C 0.87131 0.3205 0.00174 0.0
C361 C 0.87446 0.35006 0.9246 0.0
C362 C 0.88387 0.3215 0.04612 0.0
C363 C 0.88215 0.3222 0.11743 0.0
C364 C 0.86781 0.32191 0.14532 0.0
C365 C 0.85489 0.32002 0.10062 0.0
C366 C 0.85659 0.31924 0.0296 0.0
H367 H 0.87975 0.36151 0.89169 0.0
H368 H 0.86114 0.34621 0.93623 0.0
H369 H 0.88157 0.35337 0.97381 0.0
H370 H 0.8953 0.32242 0.02551 0.0
H371 H 0.89233 0.32365 0.15041 0.0
H372 H 0.56694 0.89493 0.32914 0.0
H373 H 0.57105 0.89808 0.20421 0.0
H374 H 0.52786 0.84854 0.17481 0.0
H375 H 0.5235 0.84534 0.29893 0.0
H376 H 0.57517 0.87838 0.09854 0.0
H377 H 0.5158 0.88035 0.07067 0.0
H378 H 0.52589 0.88253 0.15277 0.0
H379 H 0.5133 0.86201 0.1149 0.0
C380 C 0.55847 0.88461 0.29612 0.0
C381 C 0.54478 0.86996 0.32399 0.0
C382 C 0.56084 0.88644 0.2248 0.0
C383 C 0.54957 0.87367 0.18039 0.0
C384 C 0.5365 0.85867 0.20823 0.0
H385 H 0.55282 0.86174 0.73821 0.0
H386 H 0.55554 0.86032 0.863 0.0
C387 C 0.53407 0.85686 0.27925 0.0
C388 C 0.55073 0.87635 0.105 0.0
H389 H 0.52876 0.87868 0.9678 0.0
C390 C 0.56508 0.87852 0.0698 0.0
C391 C 0.53766 0.87679 0.06796 0.0
C392 C 0.52236 0.87546 0.10345 0.0
C393 C 0.56651 0.88075 0.99802 0.0
C394 C 0.55314 0.88057 0.96075 0.0
C395 C 0.53896 0.87871 0.99634 0.0
C396 C 0.55344 0.8824 0.88485 0.0
C397 C 0.58239 0.88351 0.96293 0.0
C398 C 0.55132 0.89524 0.85563 0.0
C399 C 0.54956 0.89596 0.78462 0.0
C400 C 0.54991 0.88385 0.74113 0.0
C401 C 0.55263 0.87133 0.77021 0.0
C402 C 0.55427 0.87056 0.84153 0.0
H403 H 0.59307 0.8879 0.99972 0.0
H404 H 0.58013 0.87142 0.94035 0.0
H405 H 0.5861 0.89289 0.92078 0.0
H406 H 0.5506 0.90449 0.88807 0.0
H407 H 0.54754 0.90581 0.764 0.0
H408 H 0.64022 0.54686 0.93433 0.0
H409 H 0.64465 0.5503 0.05831 0.0
H410 H 0.69371 0.55509 0.03418 0.0
H411 H 0.68954 0.55202 0.90945 0.0
H412 H 0.64854 0.52876 0.13961 0.0
H413 H 0.70385 0.593 0.16877 0.0
H414 H 0.6919 0.58582 0.08988 0.0
H415 H 0.70736 0.57985 0.11046 0.0
C416 C 0.65209 0.54892 0.95513 0.0
C417 C 0.66452 0.54913 0.91195 0.0
C418 C 0.65459 0.5509 0.02609 0.0
C419 C 0.66956 0.55311 0.05555 0.0
C420 C 0.68222 0.55378 0.01251 0.0
H421 H 0.67745 0.52392 0.46893 0.0
H422 H 0.67849 0.52837 0.34494 0.0
C423 C 0.67977 0.55192 0.94123 0.0
C424 C 0.67112 0.55304 0.13151 0.0
H425 H 0.69558 0.57532 0.26841 0.0
C426 C 0.65878 0.539 0.16771 0.0
C427 C 0.6844 0.56647 0.16824 0.0
C428 C 0.69755 0.58222 0.1325 0.0
C429 C 0.65948 0.53788 0.23937 0.0
C430 C 0.67309 0.55099 0.27584 0.0
C431 C 0.68527 0.56521 0.24008 0.0
C432 C 0.67478 0.54988 0.35114 0.0
C433 C 0.64553 0.5227 0.27554 0.0
C434 C 0.67313 0.56102 0.39583 0.0
C435 C 0.67263 0.55859 0.46712 0.0
C436 C 0.67378 0.54497 0.4946 0.0
C437 C 0.67635 0.53443 0.44956 0.0
C438 C 0.67692 0.53692 0.37861 0.0
H439 H 0.63403 0.51608 0.24305 0.0
H440 H 0.6499 0.51365 0.28745 0.0
H441 H 0.64208 0.52639 0.32469 0.0
H442 H 0.67152 0.57115 0.37548 0.0
H443 H 0.67064 0.56692 0.50039 0.0
H444 H 0.10273 0.67285 0.65422 0.0
H445 H 0.09964 0.67397 0.52934 0.0
H446 H 0.1482 0.678 0.49944 0.0
H447 H 0.15134 0.67668 0.62352 0.0
H448 H 0.12011 0.69746 0.42344 0.0
H449 H 0.11483 0.63461 0.39559 0.0
H450 H 0.11311 0.64284 0.47767 0.0
H451 H 0.1335 0.64987 0.4399 0.0
C452 C 0.11286 0.67422 0.62111 0.0
C453 C 0.1272 0.67448 0.64884 0.0
C454 C 0.11107 0.67486 0.54982 0.0
C455 C 0.12357 0.67577 0.50528 0.0
C456 C 0.13828 0.67699 0.53297 0.0
H457 H 0.13608 0.69074 0.06325 0.0
H458 H 0.13757 0.69491 0.18803 0.0
C459 C 0.14006 0.67628 0.60397 0.0
C460 C 0.12084 0.67435 0.42991 0.0
H461 H 0.11724 0.64953 0.29273 0.0
C462 C 0.1194 0.68696 0.3947 0.0
C463 C 0.11966 0.6605 0.39287 0.0
C464 C 0.12019 0.64609 0.42838 0.0
C465 C 0.1172 0.68627 0.32291 0.0
C466 C 0.11665 0.67272 0.28564 0.0
C467 C 0.11777 0.65997 0.32125 0.0
C468 C 0.11483 0.67127 0.20971 0.0
C469 C 0.11525 0.69989 0.28782 0.0
C470 C 0.10159 0.6566 0.18038 0.0
C471 C 0.10083 0.65409 0.10938 0.0
C472 C 0.11329 0.66623 0.06602 0.0
C473 C 0.12622 0.68121 0.09517 0.0
C474 C 0.12704 0.68366 0.16649 0.0
H475 H 0.11127 0.70654 0.32458 0.0
H476 H 0.12756 0.70934 0.26548 0.0
H477 H 0.10587 0.6946 0.2455 0.0
H478 H 0.09205 0.64686 0.21274 0.0
H479 H 0.09066 0.64243 0.08868 0.0
H480 H 0.84297 0.52531 0.06707 0.0
H481 H 0.84526 0.52979 0.19112 0.0
H482 H 0.89594 0.57148 0.16645 0.0
H483 H 0.89362 0.5673 0.0416 0.0
H484 H 0.86753 0.52639 0.26997 0.0
H485 H 0.87644 0.59051 0.30472 0.0
H486 H 0.86882 0.57884 0.22536 0.0
H487 H 0.89098 0.58966 0.24508 0.0
C488 C 0.85451 0.53564 0.08777 0.0
C489 C 0.86814 0.54593 0.04442 0.0
C490 C 0.85579 0.53819 0.15877 0.0
C491 C 0.87072 0.55104 0.18812 0.0
C492 C 0.88417 0.56171 0.14489 0.0
H493 H 0.90307 0.54726 0.60186 0.0
H494 H 0.9008 0.54964 0.47781 0.0
C495 C 0.88286 0.55925 0.07354 0.0
C496 C 0.87268 0.55204 0.26403 0.0
H497 H 0.88162 0.57807 0.40293 0.0
C498 C 0.87052 0.53767 0.29899 0.0
C499 C 0.87646 0.56672 0.30193 0.0
C500 C 0.87816 0.58227 0.26753 0.0
C501 C 0.87223 0.53762 0.37058 0.0
C502 C 0.87658 0.55246 0.40826 0.0
C503 C 0.87847 0.56677 0.3737 0.0
C504 C 0.87915 0.55316 0.48368 0.0
C505 C 0.86915 0.52156 0.40537 0.0
C506 C 0.86816 0.55508 0.52822 0.0
C507 C 0.86948 0.55383 0.59948 0.0
C508 C 0.88183 0.55065 0.6272 0.0
C509 C 0.89331 0.54955 0.58233 0.0
C510 C 0.89202 0.55087 0.51134 0.0
H511 H 0.86183 0.51034 0.37207 0.0
H512 H 0.88145 0.52247 0.417 0.0
H513 H 0.86222 0.51958 0.45455 0.0
H514 H 0.85818 0.55691 0.50776 0.0
H515 H 0.86045 0.55475 0.63258 0.0
H516 H 0.3543 0.90496 0.76621 0.0
H517 H 0.35001 0.90388 0.64208 0.0
H518 H 0.30122 0.85921 0.66561 0.0
H519 H 0.30525 0.8604 0.7904 0.0
H520 H 0.34656 0.87863 0.56072 0.0
H521 H 0.29068 0.88657 0.53066 0.0
H522 H 0.30257 0.89147 0.60974 0.0
H523 H 0.28732 0.86997 0.58902 0.0
C524 C 0.34252 0.89504 0.74523 0.0
C525 C 0.33012 0.88274 0.78829 0.0
C526 C 0.34009 0.89446 0.67418 0.0
C527 C 0.32524 0.88157 0.64451 0.0
C528 C 0.31263 0.8695 0.68742 0.0
H529 H 0.31813 0.84453 0.23115 0.0
H530 H 0.31719 0.84797 0.3552 0.0
C531 C 0.31499 0.87014 0.75875 0.0
C532 C 0.32375 0.87992 0.56852 0.0
H533 H 0.29913 0.87721 0.43137 0.0
C534 C 0.33624 0.87843 0.53249 0.0
C535 C 0.31036 0.87981 0.5316 0.0
C536 C 0.29705 0.8822 0.56709 0.0
C537 C 0.33557 0.87655 0.46084 0.0
C538 C 0.32184 0.87576 0.42421 0.0
C539 C 0.30952 0.87761 0.4598 0.0
C540 C 0.3202 0.87292 0.3489 0.0
C541 C 0.34969 0.87557 0.42488 0.0
C542 C 0.32141 0.88551 0.30414 0.0
C543 C 0.32184 0.88355 0.23284 0.0
C544 C 0.32105 0.86895 0.20537 0.0
C545 C 0.31894 0.85601 0.2505 0.0
C546 C 0.31844 0.85796 0.32149 0.0
H547 H 0.36121 0.8807 0.45734 0.0
H548 H 0.34556 0.86218 0.41343 0.0
H549 H 0.353 0.88262 0.37552 0.0
H550 H 0.32271 0.89713 0.32441 0.0
H551 H 0.32348 0.89375 0.19953 0.0
H552 H 0.4484 0.3565 0.92655 0.0
H553 H 0.44498 0.35205 0.8026 0.0
H554 H 0.44026 0.30302 0.82699 0.0
H555 H 0.44334 0.30724 0.95172 0.0
H556 H 0.46665 0.34815 0.72174 0.0
H557 H 0.40236 0.29291 0.69193 0.0
H558 H 0.40949 0.30488 0.77078 0.0
H559 H 0.41549 0.28943 0.75054 0.0
C560 C 0.44636 0.34464 0.90582 0.0
C561 C 0.44618 0.33223 0.94907 0.0
C562 C 0.44439 0.34211 0.83488 0.0
C563 C 0.44221 0.32715 0.8055 0.0
C564 C 0.44155 0.31452 0.8486 0.0
H565 H 0.47149 0.31946 0.39196 0.0
H566 H 0.467 0.31829 0.51594 0.0
C567 C 0.44341 0.31698 0.91988 0.0
C568 C 0.44233 0.32561 0.72956 0.0
H569 H 0.42006 0.30127 0.59238 0.0
C570 C 0.4564 0.33794 0.69352 0.0
C571 C 0.4289 0.31237 0.69269 0.0
C572 C 0.41312 0.29922 0.7283 0.0
C573 C 0.45755 0.33729 0.62186 0.0
C574 C 0.44443 0.32372 0.58522 0.0
C575 C 0.43017 0.31154 0.62084 0.0
C576 C 0.44554 0.32211 0.5099 0.0
C577 C 0.47277 0.35124 0.58587 0.0
C578 C 0.43446 0.32387 0.46529 0.0
C579 C 0.43692 0.32444 0.39401 0.0
C580 C 0.45052 0.32327 0.36645 0.0
C581 C 0.46101 0.32059 0.41139 0.0
C582 C 0.45849 0.31994 0.48234 0.0
H583 H 0.47942 0.36269 0.61853 0.0
H584 H 0.48178 0.34682 0.57383 0.0
H585 H 0.46911 0.35475 0.5368 0.0
H586 H 0.42435 0.3255 0.48572 0.0
H587 H 0.42862 0.32652 0.36081 0.0
H588 H 0.10014 0.45922 0.08749 0.0
H589 H 0.10167 0.45499 0.96481 0.0
H590 H 0.12821 0.42803 0.00574 0.0
H591 H 0.12722 0.43275 0.12945 0.0
H592 H 0.14316 0.44976 0.90601 0.0
H593 H 0.07524 0.41478 0.84585 0.0
H594 H 0.0805 0.43416 0.88839 0.0
H595 H 0.08297 0.41826 0.93313 0.0
C596 C 0.10611 0.45218 0.07072 0.0
C597 C 0.11344 0.44621 0.11854 0.0
C598 C 0.10686 0.44965 1.00029 0.0
C599 C 0.11466 0.4408 0.97578 0.0
C600 C 0.12196 0.43474 0.02335 0.0
H601 H 0.10743 0.42437 0.52674 0.0
H602 H 0.10508 0.41837 0.65057 0.0
C603 C 0.12138 0.43744 0.09408 0.0
C604 C 0.11619 0.43904 0.90035 0.0
H605 H 0.09387 0.42965 0.75025 0.0
C606 C 0.13233 0.44507 0.87208 0.0
C607 C 0.10206 0.43255 0.85573 0.0
C608 C 0.08422 0.4244 0.88252 0.0
C609 C 0.13483 0.44578 0.80058 0.0
C610 C 0.12089 0.44083 0.75594 0.0
C611 C 0.10463 0.43377 0.78421 0.0
C612 C 0.12302 0.44402 0.68049 0.0
C613 C 0.15244 0.45198 0.77382 0.0
C614 C 0.13375 0.46041 0.65598 0.0
C615 C 0.13525 0.46381 0.58556 0.0
C616 C 0.12581 0.45096 0.53768 0.0
C617 C 0.11495 0.43453 0.56214 0.0
C618 C 0.11359 0.4311 0.63292 0.0
H619 H 0.15995 0.44911 0.81067 0.0
H620 H 0.15229 0.44621 0.72338 0.0
H621 H 0.15896 0.46589 0.76757 0.0
H622 H 0.14071 0.47074 0.69145 0.0
H623 H 0.14352 0.47667 0.56884 0.0
H624 H 0.67134 0.10348 0.69883 0.0
H625 H 0.67234 0.10036 0.82378 0.0
H626 H 0.67892 0.15 0.85295 0.0
H627 H 0.67771 0.15316 0.72882 0.0
H628 H 0.69617 0.12008 0.92993 0.0
H629 H 0.63486 0.11823 0.95635 0.0
H630 H 0.64283 0.11599 0.87449 0.0
H631 H 0.65076 0.13653 0.91214 0.0
C632 C 0.67326 0.11383 0.7318 0.0
C633 C 0.67424 0.12848 0.70389 0.0
C634 C 0.67383 0.11203 0.80313 0.0
C635 C 0.67539 0.12483 0.84749 0.0
C636 C 0.67739 0.13985 0.81957 0.0
H637 H 0.69015 0.13684 0.28984 0.0
H638 H 0.69438 0.13825 0.16512 0.0
C639 C 0.67673 0.14163 0.74855 0.0
C640 C 0.67379 0.12215 0.92288 0.0
H641 H 0.64936 0.11989 0.05952 0.0
C642 C 0.68592 0.11996 0.95842 0.0
C643 C 0.66025 0.12173 0.9596 0.0
C644 C 0.64633 0.12308 0.92375 0.0
C645 C 0.68505 0.11776 0.03022 0.0
C646 C 0.67183 0.11797 0.06716 0.0
C647 C 0.65956 0.11984 0.03123 0.0
C648 C 0.67023 0.11616 0.14306 0.0
C649 C 0.69812 0.11498 0.0657 0.0
C650 C 0.65525 0.10333 0.17213 0.0
C651 C 0.65271 0.10261 0.24311 0.0
C652 C 0.66514 0.11471 0.28671 0.0
C653 C 0.68039 0.12725 0.25776 0.0
C654 C 0.68287 0.12802 0.18648 0.0
H655 H 0.70444 0.11058 0.02914 0.0
H656 H 0.70793 0.12707 0.08838 0.0
H657 H 0.69239 0.1056 0.10783 0.0
H658 H 0.64531 0.09408 0.1396 0.0
H659 H 0.64084 0.09275 0.26361 0.0
H660 H 0.54618 0.64044 0.42198 0.0
H661 H 0.54962 0.64481 0.29799 0.0
H662 H 0.55601 0.69452 0.32232 0.0
H663 H 0.55292 0.69039 0.44705 0.0
H664 H 0.52852 0.64953 0.21694 0.0
H665 H 0.59357 0.70348 0.18741 0.0
H666 H 0.58613 0.69155 0.26625 0.0
H667 H 0.58081 0.7075 0.24597 0.0
C668 C 0.54859 0.65243 0.40123 0.0
C669 C 0.54924 0.66506 0.44448 0.0
C670 C 0.55057 0.6549 0.33025 0.0
C671 C 0.55323 0.67004 0.30085 0.0
C672 C 0.55434 0.68288 0.34394 0.0
H673 H 0.52468 0.67892 0.88733 0.0
H674 H 0.52906 0.67984 0.01136 0.0
C675 C 0.55247 0.68046 0.41523 0.0
C676 C 0.55317 0.67162 0.2249 0.0
H677 H 0.57588 0.6957 0.0879 0.0
C678 C 0.53893 0.65958 0.18878 0.0
C679 C 0.56682 0.68465 0.1881 0.0
C680 C 0.58278 0.69745 0.22376 0.0
C681 C 0.53783 0.66032 0.11713 0.0
C682 C 0.55117 0.6737 0.08059 0.0
C683 C 0.56559 0.68558 0.11628 0.0
C684 C 0.55014 0.67544 0.00528 0.0
C685 C 0.52241 0.64666 0.08105 0.0
C686 C 0.56108 0.67345 0.96064 0.0
C687 C 0.5587 0.67303 0.88935 0.0
C688 C 0.54532 0.67459 0.86179 0.0
C689 C 0.53499 0.6775 0.90677 0.0
C690 C 0.53744 0.67799 0.97774 0.0
H691 H 0.51554 0.6352 0.11354 0.0
H692 H 0.51366 0.65142 0.06933 0.0
H693 H 0.52589 0.64304 0.03182 0.0
H694 H 0.57101 0.67153 0.98103 0.0
H695 H 0.56686 0.67077 0.85612 0.0
H696 H 0.40972 0.07028 0.08233 0.0
H697 H 0.39169 0.03955 0.0858 0.0
H698 H 0.42019 0.03489 0.91882 0.0
H699 H 0.43891 0.06553 0.91847 0.0
H700 H 0.37131 0.01482 0.00604 0.0
H701 H 0.42657 0.00746 0.06085 0.0
H702 H 0.42802 0.02781 0.05836 0.0
H703 H 0.42889 0.01775 0.97992 0.0
C704 C 0.41194 0.06266 0.04576 0.0
C705 C 0.42577 0.07013 1.00069 0.0
C706 C 0.40167 0.04513 0.04784 0.0
C707 C 0.40494 0.03488 0.00409 0.0
C708 C 0.41785 0.0425 0.95488 0.0
H709 H 0.34061 0.92808 0.93126 0.0
H710 H 0.35262 0.95864 0.93651 0.0
C711 C 0.42842 0.05997 0.95416 0.0
C712 C 0.39552 0.01629 0.01252 0.0
H713 H 0.40113 0.98242 0.03161 0.0
C714 C 0.3778 0.00771 0.01223 0.0
C715 C 0.40397 0.00707 0.02287 0.0
C716 C 0.42289 0.01553 0.03136 0.0
C717 C 0.36832 0.99011 0.01999 0.0
C718 C 0.37683 0.98079 0.02523 0.0
C719 C 0.39454 0.98946 0.02707 0.0
C720 C 0.36787 0.96206 0.02698 0.0
C721 C 0.34936 0.98183 0.02391 0.0
C722 C 0.37259 0.95373 0.07528 0.0
C723 C 0.36625 0.93637 0.07049 0.0
C724 C 0.35473 0.92699 0.01855 0.0
C725 C 0.34929 0.93509 0.97245 0.0
C726 C 0.35605 0.95254 0.97584 0.0
H727 H 0.34546 0.99063 0.0453 0.0
H728 H 0.34401 0.97833 0.97131 0.0
H729 H 0.34383 0.9703 0.05627 0.0
H730 H 0.38167 0.96075 0.11525 0.0
H731 H 0.37059 0.93032 0.1065 0.0
H732 H 0.44482 0.38212 0.22355 0.0
H733 H 0.42467 0.39223 0.22903 0.0
H734 H 0.38649 0.34594 0.13654 0.0
H735 H 0.40653 0.33561 0.13126 0.0
H736 H 0.39387 0.37812 0.06974 0.0
H737 H 0.38077 0.37569 0.3497 0.0
H738 H 0.40267 0.38457 0.3274 0.0
H739 H 0.38814 0.36274 0.30946 0.0
C740 C 0.43207 0.37398 0.20528 0.0
C741 C 0.42728 0.3581 0.17674 0.0
C742 C 0.42057 0.37974 0.20876 0.0
C743 C 0.40412 0.36976 0.18357 0.0
C744 C 0.39913 0.35374 0.15659 0.0
H745 H 0.33383 0.40831 0.21727 0.0
H746 H 0.34396 0.38815 0.20904 0.0
C747 C 0.41058 0.34787 0.15379 0.0
C748 C 0.39273 0.37679 0.18038 0.0
H749 H 0.37383 0.39305 0.28111 0.0
C750 C 0.38921 0.38113 0.11578 0.0
C751 C 0.38661 0.38053 0.24055 0.0
C752 C 0.38959 0.37553 0.3108 0.0
C753 C 0.38048 0.39004 0.11008 0.0
C754 C 0.37528 0.39472 0.17053 0.0
C755 C 0.37794 0.3895 0.23489 0.0
C756 C 0.36845 0.4063 0.1687 0.0
C757 C 0.37728 0.39478 0.03967 0.0
C758 C 0.37888 0.4231 0.14828 0.0
C759 C 0.37322 0.43466 0.15335 0.0
C760 C 0.35701 0.4296 0.17896 0.0
C761 C 0.34637 0.41259 0.1972 0.0
C762 C 0.35212 0.40106 0.19265 0.0
H763 H 0.3779 0.38657 0.99903 0.0
H764 H 0.36475 0.39393 0.03743 0.0
H765 H 0.38707 0.40801 0.02828 0.0
H766 H 0.39163 0.42741 0.1306 0.0
H767 H 0.3817 0.44765 0.1387 0.0
H768 H 0.06034 0.44332 0.38736 0.0
H769 H 0.03026 0.42251 0.39155 0.0
H770 H 0.04027 0.38472 0.30821 0.0
H771 H 0.07048 0.40545 0.30408 0.0
H772 H 0.01539 0.39004 0.23541 0.0
H773 H 0.00289 0.3799 0.51562 0.0
H774 H 0.01526 0.40168 0.49087 0.0
H775 H 0.02367 0.38783 0.47899 0.0
C776 C 0.05619 0.43052 0.37087 0.0
C777 C 0.06777 0.42604 0.3451 0.0
C778 C 0.03903 0.41864 0.37369 0.0
C779 C 0.03314 0.4021 0.35068 0.0
C780 C 0.04465 0.39743 0.3266 0.0
H781 H 0.92402 0.33194 0.37794 0.0
H782 H 0.95426 0.34153 0.37335 0.0
C783 C 0.06188 0.40927 0.32441 0.0
C784 C 0.01481 0.39029 0.34618 0.0
H785 H 0.97895 0.37225 0.44294 0.0
C786 C 0.0074 0.38584 0.28073 0.0
C787 C 0.00452 0.38475 0.40543 0.0
C788 C 0.01197 0.38863 0.4768 0.0
C789 C 0.98982 0.37688 0.27297 0.0
C790 C 0.97951 0.37236 0.33214 0.0
C791 C 0.98693 0.37585 0.39766 0.0
C792 C 0.96115 0.36564 0.32734 0.0
C793 C 0.98237 0.37277 0.20161 0.0
C794 C 0.95512 0.37601 0.3024 0.0
C795 C 0.93794 0.37068 0.30548 0.0
C796 C 0.92651 0.35484 0.33346 0.0
C797 C 0.93252 0.34418 0.35587 0.0
C798 C 0.94976 0.34963 0.35343 0.0
H799 H 0.99149 0.37294 0.16347 0.0
H800 H 0.97073 0.36019 0.20041 0.0
H801 H 0.97897 0.38234 0.18579 0.0
H802 H 0.96378 0.38852 0.28298 0.0
H803 H 0.93369 0.37914 0.28762 0.0
H804 H 0.55101 0.93537 0.47159 0.0
H805 H 0.57149 0.96548 0.46426 0.0
H806 H 0.61049 0.95637 0.54024 0.0
H807 H 0.59009 0.92614 0.54774 0.0
H808 H 0.60613 0.98126 0.61424 0.0
H809 H 0.61216 0.99277 0.33282 0.0
H810 H 0.59074 0.98065 0.36234 0.0
H811 H 0.60458 0.97208 0.36978 0.0
C812 C 0.56399 0.93971 0.48582 0.0
C813 C 0.5689 0.92838 0.5106 0.0
C814 C 0.57569 0.9569 0.48117 0.0
C815 C 0.59249 0.96306 0.50117 0.0
C816 C 0.59758 0.95178 0.52418 0.0
H817 H 0.66286 0.07204 0.46666 0.0
H818 H 0.65291 0.04172 0.47056 0.0
C819 C 0.58591 0.93454 0.52832 0.0
C820 C 0.60422 0.98144 0.50381 0.0
H821 H 0.62077 0.01698 0.40519 0.0
C822 C 0.60962 0.98908 0.56849 0.0
C823 C 0.60884 0.99153 0.44398 0.0
C824 C 0.60392 0.98385 0.37318 0.0
C825 C 0.61869 0.00669 0.57517 0.0
C826 C 0.62233 0.01678 0.51571 0.0
C827 C 0.61784 0.00914 0.4507 0.0
C828 C 0.62927 0.03517 0.52021 0.0
C829 C 0.62386 0.0144 0.64581 0.0
C830 C 0.61928 0.04142 0.54741 0.0
C831 C 0.62481 0.05864 0.54472 0.0
C832 C 0.64048 0.0699 0.51496 0.0
C833 C 0.65076 0.06368 0.49018 0.0
C834 C 0.64511 0.04639 0.49219 0.0
H835 H 0.62395 0.00532 0.68354 0.0
H836 H 0.63659 0.02584 0.64445 0.0
H837 H 0.61476 0.01821 0.66402 0.0
H838 H 0.60691 0.03289 0.56847 0.0
H839 H 0.61663 0.06307 0.56439 0.0
H840 H 0.66199 0.58936 0.7237 0.0
H841 H 0.65169 0.60946 0.71833 0.0
H842 H 0.60432 0.57057 0.63619 0.0
H843 H 0.61438 0.5504 0.64148 0.0
H844 H 0.62102 0.60566 0.57056 0.0
H845 H 0.61181 0.60271 0.85494 0.0
H846 H 0.63165 0.60621 0.82116 0.0
H847 H 0.61292 0.58621 0.80842 0.0
C848 C 0.64946 0.58515 0.70359 0.0
C849 C 0.63892 0.56825 0.68364 0.0
C850 C 0.64362 0.59663 0.70077 0.0
C851 C 0.62724 0.59138 0.67743 0.0
C852 C 0.617 0.57478 0.65448 0.0
H853 H 0.54928 0.61377 0.70762 0.0
H854 H 0.56939 0.60368 0.71488 0.0
C855 C 0.62275 0.56328 0.65775 0.0
C856 C 0.6202 0.60276 0.6805 0.0
H857 H 0.60149 0.6174 0.791 0.0
C858 C 0.61702 0.60855 0.6187 0.0
C859 C 0.61494 0.60629 0.74357 0.0
C860 C 0.61789 0.60003 0.81105 0.0
C861 C 0.60812 0.61734 0.61813 0.0
C862 C 0.60236 0.62039 0.68105 0.0
C863 C 0.60606 0.6151 0.74304 0.0
C864 C 0.59085 0.6273 0.68263 0.0
C865 C 0.60416 0.62254 0.55014 0.0
C866 C 0.59643 0.64406 0.66378 0.0
C867 C 0.58496 0.6499 0.65965 0.0
C868 C 0.56775 0.63902 0.67403 0.0
C869 C 0.56241 0.62243 0.69562 0.0
C870 C 0.57388 0.61665 0.70001 0.0
H871 H 0.60779 0.61741 0.50567 0.0
H872 H 0.59047 0.61817 0.54656 0.0
H873 H 0.61111 0.63651 0.54634 0.0
H874 H 0.60955 0.65248 0.6509 0.0
H875 H 0.5895 0.66277 0.64317 0.0
H876 H 0.07159 0.6653 0.87272 0.0
H877 H 0.04137 0.65588 0.87025 0.0
H878 H 0.03071 0.60692 0.79881 0.0
H879 H 0.06077 0.61614 0.80094 0.0
H880 H 0.01207 0.62198 0.73157 0.0
H881 H 0.00948 0.62019 0.01829 0.0
H882 H 0.02509 0.63929 0.97703 0.0
H883 H 0.02671 0.62059 0.97142 0.0
C884 C 0.06283 0.65261 0.85549 0.0
C885 C 0.06854 0.64138 0.83782 0.0
C886 C 0.04561 0.64726 0.85435 0.0
C887 C 0.0339 0.63068 0.83514 0.0
C888 C 0.03961 0.61976 0.81398 0.0
H889 H 0.93483 0.55381 0.89367 0.0
H890 H 0.96493 0.57452 0.89488 0.0
C891 C 0.05678 0.62504 0.81545 0.0
C892 C 0.0156 0.62414 0.84124 0.0
H893 H 0.98372 0.60871 0.95918 0.0
C894 C 0.00583 0.61938 0.78117 0.0
C895 C 0.00763 0.6207 0.90625 0.0
C896 C 0.01767 0.62535 0.97219 0.0
C897 C 0.98815 0.6106 0.78446 0.0
C898 C 0.98018 0.60659 0.84951 0.0
C899 C 0.98996 0.61196 0.90953 0.0
C900 C 0.96187 0.59497 0.856 0.0
C901 C 0.9781 0.60482 0.71862 0.0
C902 C 0.95023 0.59983 0.83563 0.0
C903 C 0.93297 0.58803 0.83507 0.0
C904 C 0.92719 0.57119 0.85443 0.0
C905 C 0.93889 0.56663 0.87787 0.0
C906 C 0.95608 0.57844 0.87881 0.0
H907 H 0.98628 0.60756 0.67265 0.0
H908 H 0.96906 0.59104 0.72069 0.0
H909 H 0.97068 0.61131 0.71245 0.0
H910 H 0.95453 0.61261 0.8184 0.0
H911 H 0.92426 0.59194 0.81691 0.0
H912 H 0.4927 0.08798 0.95273 0.0
H913 H 0.51227 0.08199 0.88963 0.0
H914 H 0.52786 0.12658 0.76624 0.0
H915 H 0.50786 0.1322 0.82672 0.0
H916 H 0.52599 0.10189 0.69001 0.0
H917 H 0.56184 0.10702 0.92813 0.0
H918 H 0.54018 0.09053 0.93027 0.0
H919 H 0.54528 0.11222 0.92612 0.0
C920 C 0.50018 0.09638 0.91157 0.0
C921 C 0.49889 0.11067 0.89523 0.0
C922 C 0.51144 0.09301 0.87594 0.0
C923 C 0.52189 0.1041 0.82456 0.0
C924 C 0.52001 0.1179 0.806 0.0
H925 H 0.62028 0.13156 0.68919 0.0
H926 H 0.59474 0.12609 0.74989 0.0
C927 C 0.50856 0.1211 0.84068 0.0
C928 C 0.53531 0.10192 0.79167 0.0
H929 H 0.57166 0.10139 0.82543 0.0
C930 C 0.53592 0.10166 0.71957 0.0
C931 C 0.54835 0.10179 0.83044 0.0
C932 C 0.54903 0.10306 0.90795 0.0
C933 C 0.54951 0.10192 0.68501 0.0
C934 C 0.56254 0.10176 0.72378 0.0
C935 C 0.5616 0.10137 0.79588 0.0
C936 C 0.57808 0.10378 0.69096 0.0
C937 C 0.5502 0.10334 0.60754 0.0
C938 C 0.57733 0.09272 0.63921 0.0
C939 C 0.59193 0.09601 0.60347 0.0
C940 C 0.60756 0.11018 0.62004 0.0
C941 C 0.60844 0.12056 0.67503 0.0
C942 C 0.59382 0.11743 0.70983 0.0
H943 H 0.54149 0.10748 0.58747 0.0
H944 H 0.56317 0.11242 0.58967 0.0
H945 H 0.5464 0.09081 0.58482 0.0
H946 H 0.56542 0.0818 0.62527 0.0
H947 H 0.59091 0.08765 0.56198 0.0
H948 H 0.40662 0.50661 0.15691 0.0
H949 H 0.43105 0.52719 0.09106 0.0
H950 H 0.39858 0.52198 0.92084 0.0
H951 H 0.37401 0.50151 0.98637 0.0
H952 H 0.44458 0.52693 0.95771 0.0
H953 H 0.42119 0.57232 0.97724 0.0
H954 H 0.41276 0.55344 0.02886 0.0
H955 H 0.4064 0.55225 0.94062 0.0
C956 C 0.40467 0.50965 0.10511 0.0
C957 C 0.38831 0.50263 0.07735 0.0
C958 C 0.41866 0.52139 0.06757 0.0
C959 C 0.41653 0.5263 0.00176 0.0
C960 C 0.4004 0.51854 0.97215 0.0
H961 H 0.48951 0.59019 0.69882 0.0
H962 H 0.46948 0.56622 0.76793 0.0
C963 C 0.38639 0.50683 0.00965 0.0
C964 C 0.43097 0.54041 0.96622 0.0
H965 H 0.44519 0.58039 0.90749 0.0
C966 C 0.44478 0.53865 0.94674 0.0
C967 C 0.43128 0.55577 0.95339 0.0
C968 C 0.4172 0.55869 0.97661 0.0
C969 C 0.45878 0.55178 0.91307 0.0
C970 C 0.45879 0.56691 0.89807 0.0
C971 C 0.44512 0.56875 0.91887 0.0
C972 C 0.4726 0.58097 0.85942 0.0
C973 C 0.47348 0.54943 0.89463 0.0
C974 C 0.48105 0.59723 0.88799 0.0
C975 C 0.49237 0.61101 0.84842 0.0
C976 C 0.4954 0.60878 0.77936 0.0
C977 C 0.48749 0.59236 0.75186 0.0
C978 C 0.47611 0.5786 0.79144 0.0
H979 H 0.47369 0.53945 0.92647 0.0
H980 H 0.47237 0.54555 0.83993 0.0
H981 H 0.48566 0.56136 0.90127 0.0
H982 H 0.47848 0.59933 0.94038 0.0
H983 H 0.49834 0.62346 0.87135 0.0
H984 H 0.90987 0.504 0.90086 0.0
H985 H 0.91598 0.48448 0.96379 0.0
H986 H 0.87158 0.46898 0.08838 0.0
H987 H 0.86585 0.48891 0.02807 0.0
H988 H 0.89644 0.4709 0.16388 0.0
H989 H 0.89075 0.43488 0.92555 0.0
H990 H 0.90726 0.45653 0.92327 0.0
H991 H 0.88559 0.45146 0.92792 0.0
C992 C 0.90154 0.49656 0.94227 0.0
C993 C 0.88727 0.49784 0.95898 0.0
C994 C 0.90497 0.48533 0.97781 0.0
C995 C 0.89397 0.47492 0.02947 0.0
C996 C 0.8802 0.4768 0.04841 0.0
H997 H 0.86545 0.37637 0.16369 0.0
H998 H 0.87134 0.4021 0.10356 0.0
C999 C 0.87693 0.48822 0.01382 0.0
C1000 C 0.89616 0.46149 0.06217 0.0
H1001 H 0.89622 0.42491 0.02812 0.0
C1002 C 0.89653 0.46089 0.13426 0.0
C1003 C 0.89611 0.44837 0.02329 0.0
C1004 C 0.89475 0.44769 0.9458 0.0
C1005 C 0.89614 0.44723 0.16872 0.0
C1006 C 0.89606 0.4341 0.12985 0.0
C1007 C 0.8964 0.43505 0.05775 0.0
C1008 C 0.89375 0.41844 0.16255 0.0
C1009 C 0.89481 0.44658 0.24622 0.0
C1010 C 0.90471 0.41893 0.21425 0.0
C1011 C 0.90118 0.40423 0.24971 0.0
C1012 C 0.88686 0.38873 0.23288 0.0
C1013 C 0.87656 0.38811 0.17804 0.0
C1014 C 0.87992 0.40283 0.14355 0.0
H1015 H 0.8909 0.45546 0.26648 0.0
H1016 H 0.88559 0.43367 0.26417 0.0
H1017 H 0.90731 0.45017 0.26867 0.0
H1018 H 0.91576 0.43074 0.22831 0.0
H1019 H 0.90949 0.40505 0.2911 0.0
H1020 H 0.49777 0.87483 0.3176 0.0
H1021 H 0.47754 0.87905 0.25095 0.0
H1022 H 0.46984 0.90373 0.42471 0.0
H1023 H 0.49025 0.89986 0.49136 0.0
H1024 H 0.44453 0.86502 0.28656 0.0
H1025 H 0.47327 0.93445 0.26692 0.0
H1026 H 0.48525 0.92444 0.2909 0.0
H1027 H 0.47231 0.92715 0.35341 0.0
C1028 C 0.49201 0.88143 0.34128 0.0
C1029 C 0.49554 0.8869 0.41 0.0
C1030 C 0.48047 0.88384 0.30308 0.0
C1031 C 0.47228 0.8918 0.33271 0.0
C1032 C 0.47626 0.89786 0.40035 0.0
H1033 H 0.37323 0.87286 0.21147 0.0
H1034 H 0.39788 0.87685 0.27615 0.0
C1035 C 0.48787 0.89554 0.43852 0.0
C1036 C 0.4583 0.8921 0.29558 0.0
H1037 H 0.444 0.91798 0.23811 0.0
C1038 C 0.44447 0.87661 0.27559 0.0
C1039 C 0.4583 0.90725 0.28109 0.0
C1040 C 0.47315 0.92428 0.29858 0.0
C1041 C 0.43052 0.87581 0.24227 0.0
C1042 C 0.43024 0.89089 0.22993 0.0
C1043 C 0.44418 0.90643 0.24873 0.0
C1044 C 0.41575 0.89065 0.19519 0.0
C1045 C 0.41632 0.85882 0.21959 0.0
C1046 C 0.4178 0.89784 0.12975 0.0
C1047 C 0.40377 0.89568 0.09276 0.0
C1048 C 0.38744 0.88626 0.12067 0.0
C1049 C 0.38559 0.87998 0.18809 0.0
C1050 C 0.39964 0.88221 0.22508 0.0
H1051 H 0.42025 0.84914 0.21824 0.0
H1052 H 0.40567 0.85451 0.25634 0.0
H1053 H 0.41167 0.85963 0.16775 0.0
H1054 H 0.43016 0.90448 0.10605 0.0
H1055 H 0.40567 0.90078 0.04116 0.0
H1056 H 0.62212 0.49883 0.48488 0.0
H1057 H 0.5978 0.47931 0.41584 0.0
H1058 H 0.56497 0.47041 0.58925 0.0
H1059 H 0.58913 0.49012 0.65833 0.0
H1060 H 0.57866 0.44609 0.44744 0.0
H1061 H 0.53812 0.47508 0.43263 0.0
H1062 H 0.56006 0.48685 0.45764 0.0
H1063 H 0.54424 0.47351 0.51884 0.0
C1064 C 0.60969 0.49296 0.50802 0.0
C1065 C 0.60758 0.49592 0.57732 0.0
C1066 C 0.5958 0.48184 0.46844 0.0
C1067 C 0.57957 0.47351 0.49726 0.0
C1068 C 0.57733 0.47696 0.56553 0.0
H1069 H 0.49937 0.3753 0.37201 0.0
H1070 H 0.52005 0.39986 0.43695 0.0
C1071 C 0.59119 0.48815 0.6051 0.0
C1072 C 0.56538 0.45984 0.45862 0.0
H1073 H 0.52525 0.44593 0.40124 0.0
C1074 C 0.56704 0.44613 0.43691 0.0
C1075 C 0.55026 0.45996 0.4447 0.0
C1076 C 0.54808 0.47472 0.46406 0.0
C1077 C 0.5539 0.43238 0.40265 0.0
C1078 C 0.53856 0.43218 0.39103 0.0
C1079 C 0.53697 0.44604 0.41131 0.0
C1080 C 0.52427 0.41779 0.35608 0.0
C1081 C 0.55664 0.41824 0.37849 0.0
C1082 C 0.51923 0.41991 0.29052 0.0
C1083 C 0.50737 0.40592 0.2533 0.0
C1084 C 0.50037 0.38958 0.28113 0.0
C1085 C 0.50468 0.38767 0.34868 0.0
C1086 C 0.51651 0.40167 0.38585 0.0
H1087 H 0.57024 0.42213 0.37703 0.0
H1088 H 0.55023 0.40742 0.4144 0.0
H1089 H 0.55121 0.41386 0.32641 0.0
H1090 H 0.52504 0.43229 0.26693 0.0
H1091 H 0.50425 0.40787 0.20163 0.0
H1092 H 0.11879 0.49662 0.54292 0.0
H1093 H 0.11422 0.51668 0.60899 0.0
H1094 H 0.09111 0.52533 0.43206 0.0
H1095 H 0.09532 0.50506 0.36592 0.0
H1096 H 0.12899 0.54975 0.57443 0.0
H1097 H 0.05957 0.52219 0.58611 0.0
H1098 H 0.06937 0.50992 0.5636 0.0
H1099 H 0.06743 0.52323 0.50056 0.0
C1100 C 0.11243 0.50253 0.5184 0.0
C1101 C 0.10754 0.49933 0.44896 0.0
C1102 C 0.10981 0.51398 0.55628 0.0
C1103 C 0.10223 0.52242 0.52559 0.0
C1104 C 0.09667 0.51872 0.45721 0.0
H1105 H 0.12228 0.62179 0.6451 0.0
H1106 H 0.11788 0.59693 0.58101 0.0
C1107 C 0.09919 0.50719 0.41934 0.0
C1108 C 0.10197 0.53645 0.56243 0.0
H1109 H 0.07632 0.55134 0.61666 0.0
C1110 C 0.11745 0.55003 0.58404 0.0
C1111 C 0.0869 0.53675 0.57513 0.0
C1112 C 0.06985 0.52217 0.55575 0.0
C1113 C 0.11833 0.56403 0.61722 0.0
C1114 C 0.10335 0.56462 0.62779 0.0
C1115 C 0.0878 0.55092 0.60742 0.0
C1116 C 0.10374 0.57923 0.66198 0.0
C1117 C 0.13529 0.57798 0.64153 0.0
C1118 C 0.09652 0.57736 0.72727 0.0
C1119 C 0.09894 0.59152 0.76399 0.0
C1120 C 0.10865 0.60779 0.73594 0.0
C1121 C 0.11494 0.60948 0.66861 0.0
C1122 C 0.11246 0.5953 0.63192 0.0
H1123 H 0.14481 0.57383 0.64378 0.0
H1124 H 0.13997 0.58876 0.60527 0.0
H1125 H 0.13427 0.58252 0.6933 0.0
H1126 H 0.08967 0.56502 0.7511 0.0
H1127 H 0.09382 0.58975 0.81551 0.0
H1128 H 0.4413 0.16318 0.04552 0.0
H1129 H 0.44313 0.1903 0.06811 0.0
H1130 H 0.49741 0.21457 0.07369 0.0
H1131 H 0.49579 0.18751 0.05067 0.0
H1132 H 0.45941 0.21304 0.18232 0.0
H1133 H 0.48685 0.24144 0.92788 0.0
H1134 H 0.47654 0.219 0.94339 0.0
H1135 H 0.49749 0.23262 0.97526 0.0
C1136 C 0.45365 0.17427 0.05156 0.0
C1137 C 0.46841 0.17321 0.04566 0.0
C1138 C 0.45465 0.18973 0.06457 0.0
C1139 C 0.4704 0.20439 0.07152 0.0
C1140 C 0.48516 0.20338 0.06732 0.0
H1141 H 0.49574 0.30887 0.12809 0.0
H1142 H 0.49705 0.28307 0.11103 0.0
C1143 C 0.48419 0.18791 0.05449 0.0
C1144 C 0.47127 0.22074 0.08307 0.0
H1145 H 0.48282 0.25861 0.00724 0.0
C1146 C 0.46455 0.22304 0.14422 0.0
C1147 C 0.47807 0.23371 0.0332 0.0
C1148 C 0.48506 0.23162 0.96594 0.0
C1149 C 0.46442 0.23804 0.15687 0.0
C1150 C 0.47084 0.25086 0.10629 0.0
C1151 C 0.47786 0.24869 0.0457 0.0
C1152 C 0.47 0.26646 0.11469 0.0
C1153 C 0.45754 0.24009 0.2245 0.0
C1154 C 0.45434 0.26563 0.12061 0.0
C1155 C 0.45352 0.2803 0.13047 0.0
C1156 C 0.46838 0.29608 0.13411 0.0
C1157 C 0.48406 0.29691 0.12591 0.0
C1158 C 0.48485 0.2822 0.11619 0.0
H1159 H 0.45752 0.23138 0.26434 0.0
H1160 H 0.46502 0.25324 0.2438 0.0
H1161 H 0.44432 0.23717 0.21707 0.0
H1162 H 0.44273 0.2536 0.1179 0.0
H1163 H 0.44124 0.27923 0.13586 0.0
H1164 H 0.16121 0.44243 0.30393 0.0
H1165 H 0.18849 0.44442 0.28393 0.0
H1166 H 0.21262 0.4987 0.28061 0.0
H1167 H 0.18539 0.49691 0.30107 0.0
H1168 H 0.2117 0.46095 0.17186 0.0
H1169 H 0.23898 0.48799 0.42812 0.0
H1170 H 0.21661 0.47768 0.41096 0.0
H1171 H 0.23034 0.49869 0.38004 0.0
C1172 C 0.1723 0.45481 0.29895 0.0
C1173 C 0.17114 0.46952 0.3047 0.0
C1174 C 0.18786 0.45591 0.28744 0.0
C1175 C 0.20253 0.4717 0.28184 0.0
C1176 C 0.20143 0.48641 0.28597 0.0
H1177 H 0.30736 0.49763 0.23081 0.0
H1178 H 0.28143 0.49875 0.2471 0.0
C1179 C 0.18585 0.48535 0.29731 0.0
C1180 C 0.21896 0.47266 0.27153 0.0
H1181 H 0.25656 0.48425 0.34995 0.0
C1182 C 0.22155 0.46607 0.21063 0.0
C1183 C 0.23172 0.47942 0.32227 0.0
C1184 C 0.22932 0.48626 0.38934 0.0
C1185 C 0.23663 0.46603 0.19906 0.0
C1186 C 0.24926 0.47242 0.25048 0.0
C1187 C 0.2468 0.47931 0.31084 0.0
C1188 C 0.26494 0.4717 0.24309 0.0
C1189 C 0.23899 0.45927 0.13167 0.0
C1190 C 0.26422 0.45608 0.2373 0.0
C1191 C 0.27896 0.45537 0.22789 0.0
C1192 C 0.29471 0.47029 0.22453 0.0
C1193 C 0.29542 0.48591 0.23275 0.0
C1194 C 0.28064 0.48659 0.24205 0.0
H1195 H 0.23039 0.45923 0.09124 0.0
H1196 H 0.2522 0.46685 0.11314 0.0
H1197 H 0.23614 0.44608 0.13908 0.0
H1198 H 0.25222 0.44443 0.23964 0.0
H1199 H 0.27797 0.44313 0.22249 0.0
H1200 H 0.68709 0.18738 0.46488 0.0
H1201 H 0.7124 0.21444 0.44021 0.0
H1202 H 0.74237 0.1901 0.43985 0.0
H1203 H 0.71723 0.16302 0.46404 0.0
H1204 H 0.74232 0.23037 0.52325 0.0
H1205 H 0.75513 0.21722 0.2581 0.0
H1206 H 0.73486 0.20492 0.29936 0.0
H1207 H 0.75193 0.20128 0.31985 0.0
C1208 C 0.69904 0.18775 0.45901 0.0
C1209 C 0.70016 0.17304 0.46652 0.0
C1210 C 0.71346 0.20321 0.44502 0.0
C1211 C 0.72915 0.20417 0.43755 0.0
C1212 C 0.7303 0.18953 0.44439 0.0
H1213 H 0.83292 0.27841 0.37967 0.0
H1214 H 0.80556 0.25322 0.39937 0.0
C1215 C 0.71593 0.17409 0.4586 0.0
C1216 C 0.74453 0.22058 0.42553 0.0
H1217 H 0.77722 0.2414 0.31355 0.0
C1218 C 0.74989 0.23291 0.47714 0.0
C1219 C 0.7543 0.22375 0.3653 0.0
C1220 C 0.74872 0.21117 0.30713 0.0
C1221 C 0.76519 0.24817 0.47123 0.0
C1222 C 0.77515 0.25117 0.41163 0.0
C1223 C 0.76957 0.23898 0.35933 0.0
C1224 C 0.7917 0.26664 0.40316 0.0
C1225 C 0.77087 0.26065 0.52977 0.0
C1226 C 0.79292 0.28251 0.39908 0.0
C1227 C 0.80856 0.29697 0.38804 0.0
C1228 C 0.82319 0.29574 0.38025 0.0
C1229 C 0.8219 0.2798 0.3852 0.0
C1230 C 0.80628 0.26539 0.39639 0.0
H1231 H 0.76372 0.25484 0.57777 0.0
H1232 H 0.78454 0.26597 0.54021 0.0
H1233 H 0.7688 0.27123 0.5156 0.0
H1234 H 0.78174 0.28368 0.40307 0.0
H1235 H 0.80911 0.30904 0.38428 0.0
H1236 H 0.55467 0.83581 0.55708 0.0
H1237 H 0.55332 0.80876 0.57545 0.0
H1238 H 0.499 0.78377 0.58321 0.0
H1239 H 0.50016 0.81076 0.56434 0.0
H1240 H 0.53778 0.7852 0.68667 0.0
H1241 H 0.5095 0.75825 0.43165 0.0
H1242 H 0.51948 0.78054 0.45002 0.0
H1243 H 0.49869 0.76638 0.48218 0.0
C1244 C 0.54242 0.82458 0.56279 0.0
C1245 C 0.52751 0.82542 0.55857 0.0
C1246 C 0.54169 0.80916 0.57336 0.0
C1247 C 0.52606 0.79431 0.57955 0.0
C1248 C 0.51117 0.7951 0.5773 0.0
H1249 H 0.50054 0.68969 0.62524 0.0
H1250 H 0.49959 0.71573 0.6104 0.0
C1251 C 0.51187 0.81054 0.56688 0.0
C1252 C 0.52546 0.77799 0.58815 0.0
H1253 H 0.51364 0.74055 0.50786 0.0
C1254 C 0.5325 0.77541 0.64771 0.0
C1255 C 0.5185 0.76531 0.53713 0.0
C1256 C 0.51121 0.76772 0.47131 0.0
C1257 C 0.53273 0.76037 0.65782 0.0
C1258 C 0.52605 0.74779 0.60624 0.0
C1259 C 0.51878 0.75028 0.5471 0.0
C1260 C 0.5267 0.73204 0.61245 0.0
C1261 C 0.53992 0.75798 0.72396 0.0
C1262 C 0.54227 0.73262 0.61659 0.0
C1263 C 0.54288 0.7178 0.62522 0.0
C1264 C 0.5279 0.70213 0.62938 0.0
C1265 C 0.51231 0.70156 0.62264 0.0
C1266 C 0.51173 0.71641 0.61417 0.0
H1267 H 0.54026 0.76659 0.76505 0.0
H1268 H 0.53245 0.74478 0.7426 0.0
H1269 H 0.55305 0.76081 0.71477 0.0
H1270 H 0.55397 0.74456 0.61367 0.0
H1271 H 0.5551 0.71867 0.62948 0.0
H1272 H 0.80959 0.49989 0.8072 0.0
H1273 H 0.78246 0.49813 0.78378 0.0
H1274 H 0.80688 0.55243 0.78123 0.0
H1275 H 0.83402 0.55438 0.80417 0.0
H1276 H 0.76702 0.51247 0.868 0.0
H1277 H 0.77892 0.53761 0.60152 0.0
H1278 H 0.79134 0.52967 0.6419 0.0
H1279 H 0.79517 0.55047 0.66195 0.0
C1280 C 0.80922 0.51146 0.80105 0.0
C1281 C 0.82396 0.52728 0.80769 0.0
C1282 C 0.79372 0.51041 0.78779 0.0
C1283 C 0.79277 0.52515 0.78014 0.0
C1284 C 0.80745 0.54093 0.78594 0.0
H1285 H 0.71762 0.5539 0.72593 0.0
H1286 H 0.74314 0.55222 0.74458 0.0
C1287 C 0.82292 0.542 0.79945 0.0
C1288 C 0.77633 0.52413 0.76934 0.0
H1289 H 0.75498 0.53565 0.65863 0.0
C1290 C 0.76426 0.51736 0.82199 0.0
C1291 C 0.77289 0.53056 0.70925 0.0
C1292 C 0.78519 0.53736 0.65008 0.0
C1293 C 0.74899 0.5174 0.81716 0.0
C1294 C 0.74569 0.52414 0.75761 0.0
C1295 C 0.75763 0.53058 0.70436 0.0
C1296 C 0.73007 0.52497 0.74985 0.0
C1297 C 0.73678 0.51077 0.87668 0.0
C1298 C 0.71431 0.51017 0.74692 0.0
C1299 C 0.69968 0.51106 0.73648 0.0
C1300 C 0.70062 0.52679 0.72815 0.0
C1301 C 0.71645 0.54159 0.73197 0.0
C1302 C 0.73105 0.54067 0.74254 0.0
H1303 H 0.74287 0.50972 0.92442 0.0
H1304 H 0.7314 0.51907 0.88702 0.0
H1305 H 0.72622 0.49803 0.86372 0.0
H1306 H 0.71335 0.49792 0.75134 0.0
H1307 H 0.68769 0.49942 0.73362 0.0
H1308 H 0.16192 0.71804 0.88453 0.0
H1309 H 0.18913 0.74323 0.90685 0.0
H1310 H 0.21307 0.71292 0.91325 0.0
H1311 H 0.18591 0.68757 0.89045 0.0
H1312 H 0.21174 0.74961 0.02117 0.0
H1313 H 0.24023 0.7502 0.76733 0.0
H1314 H 0.21777 0.73817 0.78258 0.0
H1315 H 0.23129 0.7308 0.81518 0.0
C1316 C 0.17295 0.71669 0.89068 0.0
C1317 C 0.17177 0.70082 0.88509 0.0
C1318 C 0.18846 0.73109 0.90353 0.0
C1319 C 0.20307 0.7299 0.91066 0.0
C1320 C 0.20194 0.71407 0.90673 0.0
H1321 H 0.30748 0.80973 0.96664 0.0
H1322 H 0.28189 0.78241 0.94987 0.0
C1323 C 0.1864 0.69962 0.89404 0.0
C1324 C 0.21945 0.74532 0.92219 0.0
H1325 H 0.25729 0.7716 0.84604 0.0
C1326 C 0.22174 0.75441 0.98309 0.0
C1327 C 0.23243 0.75143 0.87236 0.0
C1328 C 0.23037 0.74226 0.80538 0.0
C1329 C 0.23671 0.7696 0.99543 0.0
C1330 C 0.24951 0.77597 0.94477 0.0
C1331 C 0.24739 0.76667 0.88454 0.0
C1332 C 0.265 0.79252 0.9526 0.0
C1333 C 0.23872 0.77864 0.06273 0.0
C1334 C 0.26394 0.80724 0.9578 0.0
C1335 C 0.27847 0.82284 0.9675 0.0
C1336 C 0.29436 0.82399 0.97169 0.0
C1337 C 0.29543 0.80926 0.96404 0.0
C1338 C 0.28085 0.79365 0.95448 0.0
H1339 H 0.23009 0.76998 0.10285 0.0
H1340 H 0.2519 0.78447 0.0819 0.0
H1341 H 0.23565 0.78882 0.05492 0.0
H1342 H 0.25183 0.80664 0.95476 0.0
H1343 H 0.27722 0.83395 0.97242 0.0
H1344 H 0.50165 0.13412 0.22949 0.0
H1345 H 0.52737 0.14047 0.29164 0.0
H1346 H 0.55669 0.16254 0.10796 0.0
H1347 H 0.53112 0.15665 0.046 0.0
H1348 H 0.54494 0.1257 0.25576 0.0
H1349 H 0.58764 0.19492 0.25256 0.0
H1350 H 0.56536 0.18523 0.23411 0.0
H1351 H 0.57984 0.18647 0.1686 0.0
C1352 C 0.51364 0.14073 0.20283 0.0
C1353 C 0.51434 0.14474 0.13267 0.0
C1354 C 0.52832 0.14437 0.23843 0.0
C1355 C 0.54397 0.15204 0.20458 0.0
C1356 C 0.54484 0.15695 0.13562 0.0
H1357 H 0.62319 0.13028 0.29086 0.0
H1358 H 0.60269 0.13615 0.23567 0.0
C1359 C 0.53016 0.15347 0.10011 0.0
C1360 C 0.55877 0.15254 0.23804 0.0
H1361 H 0.6005 0.17807 0.27683 0.0
C1362 C 0.55702 0.13721 0.261 0.0
C1363 C 0.57453 0.16755 0.24502 0.0
C1364 C 0.57694 0.1845 0.22439 0.0
C1365 C 0.57064 0.13638 0.28933 0.0
C1366 C 0.58657 0.15122 0.29345 0.0
C1367 C 0.58831 0.16668 0.27238 0.0
C1368 C 0.60137 0.15068 0.32072 0.0
C1369 C 0.56785 0.11959 0.31492 0.0
C1370 C 0.60804 0.1577 0.38516 0.0
C1371 C 0.61982 0.15443 0.41687 0.0
C1372 C 0.62503 0.14402 0.38455 0.0
C1373 C 0.61928 0.13815 0.31756 0.0
C1374 C 0.60757 0.14148 0.28591 0.0
H1375 H 0.55424 0.11035 0.32247 0.0
H1376 H 0.5729 0.11427 0.27659 0.0
H1377 H 0.57455 0.12109 0.36433 0.0
H1378 H 0.60342 0.16488 0.41263 0.0
H1379 H 0.62406 0.15923 0.46829 0.0
H1380 H 0.37914 0.50816 0.39014 0.0
H1381 H 0.39711 0.53533 0.44397 0.0
H1382 H 0.37866 0.55891 0.30333 0.0
H1383 H 0.36102 0.53169 0.24699 0.0
H1384 H 0.41111 0.57562 0.30351 0.0
H1385 H 0.39173 0.5654 0.57468 0.0
H1386 H 0.39584 0.54904 0.54872 0.0
H1387 H 0.37899 0.55075 0.50832 0.0
C1388 C 0.37857 0.51902 0.37147 0.0
C1389 C 0.36872 0.51776 0.31388 0.0
C1390 C 0.38878 0.53459 0.40287 0.0
C1391 C 0.38908 0.54919 0.37856 0.0
C1392 C 0.37859 0.54782 0.32322 0.0
H1393 H 0.46593 0.6358 0.61012 0.0
H1394 H 0.43857 0.61828 0.55457 0.0
C1395 C 0.36852 0.53225 0.29111 0.0
C1396 C 0.40193 0.56597 0.40528 0.0
H1397 H 0.4217 0.5858 0.55376 0.0
C1398 C 0.41315 0.57803 0.35828 0.0
C1399 C 0.40444 0.56947 0.47656 0.0
C1400 C 0.39194 0.55802 0.52971 0.0
C1401 C 0.4276 0.59271 0.38074 0.0
C1402 C 0.43122 0.5951 0.45196 0.0
C1403 C 0.4192 0.58384 0.49901 0.0
C1404 C 0.44807 0.60785 0.47845 0.0
C1405 C 0.43901 0.60526 0.32765 0.0
C1406 C 0.46258 0.60808 0.45342 0.0
C1407 C 0.47823 0.61822 0.48437 0.0
C1408 C 0.47966 0.62806 0.54223 0.0
C1409 C 0.46525 0.62831 0.56578 0.0
C1410 C 0.4496 0.6183 0.53412 0.0
H1411 H 0.43159 0.60558 0.28305 0.0
H1412 H 0.44637 0.61818 0.34931 0.0
H1413 H 0.44792 0.60133 0.30802 0.0
H1414 H 0.46172 0.59977 0.41203 0.0
H1415 H 0.48902 0.61762 0.46509 0.0
H1416 H 0.86361 0.36836 0.56638 0.0
H1417 H 0.85746 0.38786 0.62858 0.0
H1418 H 0.83491 0.39481 0.44576 0.0
H1419 H 0.8406 0.37501 0.38375 0.0
H1420 H 0.87205 0.4202 0.59202 0.0
H1421 H 0.80276 0.39333 0.59175 0.0
H1422 H 0.81252 0.38083 0.57297 0.0
H1423 H 0.81105 0.39393 0.5075 0.0
C1424 C 0.85694 0.3737 0.53991 0.0
C1425 C 0.85273 0.37025 0.46997 0.0
C1426 C 0.85342 0.38483 0.57555 0.0
C1427 C 0.84566 0.39275 0.54197 0.0
C1428 C 0.84058 0.3886 0.47323 0.0
H1429 H 0.86701 0.49362 0.63002 0.0
H1430 H 0.86132 0.46737 0.57417 0.0
C1431 C 0.84394 0.37733 0.43768 0.0
C1432 C 0.84517 0.40705 0.57548 0.0
H1433 H 0.81954 0.42303 0.61585 0.0
C1434 C 0.86052 0.4207 0.59783 0.0
C1435 C 0.83012 0.4077 0.5832 0.0
C1436 C 0.81316 0.39308 0.56321 0.0
C1437 C 0.86133 0.43513 0.62637 0.0
C1438 C 0.84643 0.4361 0.63131 0.0
C1439 C 0.83097 0.42231 0.61076 0.0
C1440 C 0.84691 0.45137 0.65911 0.0
C1441 C 0.87814 0.44919 0.65138 0.0
C1442 C 0.83989 0.4509 0.7237 0.0
C1443 C 0.84307 0.46588 0.75577 0.0
C1444 C 0.85336 0.48155 0.72367 0.0
C1445 C 0.85923 0.4818 0.65656 0.0
C1446 C 0.856 0.46682 0.62455 0.0
H1447 H 0.88746 0.4449 0.65839 0.0
H1448 H 0.88332 0.45955 0.61298 0.0
H1449 H 0.87672 0.45438 0.70097 0.0
H1450 H 0.83279 0.43906 0.75097 0.0
H1451 H 0.83826 0.46521 0.80728 0.0
H1452 H 0.36069 0.83006 0.94555 0.0
H1453 H 0.37918 0.82141 0.88975 0.0
H1454 H 0.39913 0.86533 0.75892 0.0
H1455 H 0.38027 0.87358 0.81179 0.0
H1456 H 0.39637 0.8393 0.68978 0.0
H1457 H 0.42807 0.84393 0.93974 0.0
H1458 H 0.40605 0.82843 0.93647 0.0
H1459 H 0.4126 0.85048 0.93002 0.0
C1460 C 0.36883 0.83771 0.90408 0.0
C1461 C 0.36918 0.85264 0.88378 0.0
C1462 C 0.37949 0.83282 0.87264 0.0
C1463 C 0.39091 0.84298 0.82154 0.0
C1464 C 0.39051 0.85732 0.79852 0.0
H1465 H 0.49029 0.87383 0.7197 0.0
H1466 H 0.46317 0.8654 0.77285 0.0
C1467 C 0.3797 0.86204 0.82895 0.0
C1468 C 0.40412 0.83962 0.7945 0.0
H1469 H 0.4399 0.83928 0.84157 0.0
C1470 C 0.40579 0.83907 0.72291 0.0
C1471 C 0.41642 0.83938 0.83798 0.0
C1472 C 0.41585 0.84072 0.91526 0.0
C1473 C 0.41998 0.83945 0.69337 0.0
C1474 C 0.43252 0.83968 0.73685 0.0
C1475 C 0.43025 0.83905 0.80843 0.0
C1476 C 0.44912 0.84311 0.70982 0.0
C1477 C 0.42192 0.84087 0.61611 0.0
C1478 C 0.45042 0.83304 0.65843 0.0
C1479 C 0.46597 0.83804 0.62682 0.0
C1480 C 0.48051 0.85299 0.64723 0.0
C1481 C 0.47936 0.86229 0.70241 0.0
C1482 C 0.46382 0.85745 0.73302 0.0
H1483 H 0.41291 0.84408 0.5917 0.0
H1484 H 0.43492 0.85067 0.60152 0.0
H1485 H 0.41948 0.82862 0.59468 0.0
H1486 H 0.43935 0.82162 0.64119 0.0
H1487 H 0.4665 0.83048 0.58508 0.0
H1488 H 0.61649 0.48928 0.89182 0.0
H1489 H 0.59847 0.46209 0.94542 0.0
H1490 H 0.61628 0.43838 0.80248 0.0
H1491 H 0.63397 0.46563 0.74638 0.0
H1492 H 0.5838 0.42188 0.8041 0.0
H1493 H 0.60395 0.43175 0.07433 0.0
H1494 H 0.59997 0.44827 0.04946 0.0
H1495 H 0.61659 0.4464 0.00776 0.0
C1496 C 0.6169 0.47838 0.87255 0.0
C1497 C 0.62659 0.47962 0.81443 0.0
C1498 C 0.60666 0.4628 0.90382 0.0
C1499 C 0.60618 0.44817 0.87884 0.0
C1500 C 0.61649 0.4495 0.8229 0.0
H1501 H 0.5294 0.3619 0.11194 0.0
H1502 H 0.55666 0.37919 0.0553 0.0
C1503 C 0.6266 0.46509 0.79092 0.0
C1504 C 0.59331 0.43141 0.90566 0.0
H1505 H 0.57384 0.41163 0.05461 0.0
C1506 C 0.58189 0.41944 0.8589 0.0
C1507 C 0.59098 0.42788 0.97695 0.0
C1508 C 0.60369 0.43922 0.02974 0.0
C1509 C 0.56741 0.40484 0.88171 0.0
C1510 C 0.56398 0.40245 0.95306 0.0
C1511 C 0.5762 0.41359 0.99977 0.0
C1512 C 0.54715 0.38983 0.98014 0.0
C1513 C 0.55577 0.39239 0.82885 0.0
C1514 C 0.53266 0.38979 0.95601 0.0
C1515 C 0.51707 0.37977 0.98758 0.0
C1516 C 0.51568 0.36987 0.04516 0.0
C1517 C 0.53006 0.36944 0.06783 0.0
C1518 C 0.54565 0.37932 0.03554 0.0
H1519 H 0.56303 0.39198 0.78378 0.0
H1520 H 0.54835 0.37947 0.85049 0.0
H1521 H 0.54692 0.39646 0.80993 0.0
H1522 H 0.53351 0.39815 0.91487 0.0
H1523 H 0.50629 0.38051 0.96901 0.0
H1524 H 0.16477 0.52972 0.27841 0.0
H1525 H 0.17343 0.5568 0.22209 0.0
H1526 H 0.1303 0.53243 0.08723 0.0
H1527 H 0.12209 0.50539 0.14055 0.0
H1528 H 0.15643 0.55586 0.01988 0.0
H1529 H 0.15027 0.58275 0.26767 0.0
H1530 H 0.166 0.57651 0.26657 0.0
H1531 H 0.14405 0.56081 0.25859 0.0
C1532 C 0.15731 0.53012 0.23596 0.0
C1533 C 0.14261 0.51544 0.21462 0.0
C1534 C 0.1622 0.54563 0.20422 0.0
C1535 C 0.15224 0.54675 0.15178 0.0
C1536 C 0.13815 0.53193 0.12785 0.0
H1537 H 0.12149 0.61518 0.04397 0.0
H1538 H 0.12962 0.59638 0.09824 0.0
C1539 C 0.13344 0.51643 0.15856 0.0
C1540 C 0.15556 0.56326 0.12414 0.0
H1541 H 0.15537 0.59924 0.16916 0.0
C1542 C 0.15641 0.56547 0.05249 0.0
C1543 C 0.15547 0.57576 0.1669 0.0
C1544 C 0.15376 0.57385 0.24413 0.0
C1545 C 0.15603 0.57919 0.02212 0.0
C1546 C 0.15551 0.59146 0.06486 0.0
C1547 C 0.15582 0.58985 0.13658 0.0
C1548 C 0.15215 0.60459 0.03676 0.0
C1549 C 0.15494 0.57967 0.94471 0.0
C1550 C 0.16243 0.61597 0.98575 0.0
C1551 C 0.1576 0.62657 0.95347 0.0
C1552 C 0.14262 0.62624 0.97286 0.0
C1553 C 0.13307 0.61575 0.02752 0.0
C1554 C 0.13773 0.60497 0.05876 0.0
H1555 H 0.15184 0.56743 0.92072 0.0
H1556 H 0.1452 0.58285 0.92891 0.0
H1557 H 0.16728 0.58947 0.92393 0.0
H1558 H 0.1739 0.61629 0.96943 0.0
H1559 H 0.16534 0.63469 0.91214 0.0
loop_
_geom_bond_atom_site_label_1
_geom_bond_atom_site_label_2
_geom_bond_distance
_geom_bond_site_symmetry_2
_ccdc_geom_bond_type
Fe0 O2 1.918 . S
Fe0 O5 1.997 . S
Fe0 O6 2.002 . S
Fe0 O11 1.976 1_554 S
Fe0 O14 1.996 . S
Fe1 O2 1.918 1_556 S
Fe1 O9 1.997 1_556 S
Fe1 O12 1.996 . S
Fe1 O16 1.976 . S
Fe1 O19 2.002 1_556 S
O2 Fe0 1.918 . S
O2 Fe1 1.918 1_554 S
O2 Fe3 1.918 . S
Fe3 O2 1.918 . S
Fe3 O4 2.002 . S
Fe3 O13 1.976 . S
Fe3 O17 1.996 1_554 S
Fe3 O20 1.997 . S
O4 Fe3 2.002 . S
O4 C21 1.295 . S
O5 Fe0 1.997 . S
O5 C21 1.235 . S
O6 Fe0 2.002 . S
O6 C7 1.295 . S
C7 O6 1.295 . S
C7 O9 1.235 . S
C8 O13 1.287 . S
C8 O14 1.255 . S
O9 Fe1 1.997 1_554 S
O9 C7 1.235 . S
C10 O16 1.287 . S
C10 O17 1.255 . S
O11 Fe0 1.976 1_556 S
O11 C18 1.287 . S
O12 Fe1 1.996 . S
O12 C18 1.255 . S
O13 Fe3 1.976 . S
O13 C8 1.287 . S
O14 Fe0 1.996 . S
O14 C8 1.255 . S
C15 O19 1.295 . S
C15 O20 1.235 . S
O16 Fe1 1.976 . S
O16 C10 1.287 . S
O17 Fe3 1.996 1_556 S
O17 C10 1.255 . S
C18 O11 1.287 . S
C18 O12 1.255 . S
O19 Fe1 2.002 1_554 S
O19 C15 1.295 . S
O20 Fe3 1.997 . S
O20 C15 1.235 . S
C21 O4 1.295 . S
C21 O5 1.235 . S
Fe22 O24 1.918 . S
Fe22 O27 1.997 . S
Fe22 O28 2.002 . S
Fe22 O33 1.976 . S
Fe22 O36 1.996 . S
Fe23 O24 1.918 . S
Fe23 O31 1.997 . S
Fe23 O34 1.996 . S
Fe23 O38 1.976 . S
Fe23 O41 2.002 . S
O24 Fe22 1.918 . S
O24 Fe23 1.918 . S
O24 Fe25 1.918 . S
Fe25 O24 1.918 . S
Fe25 O26 2.002 . S
Fe25 O35 1.976 . S
Fe25 O39 1.996 . S
Fe25 O42 1.997 . S
O26 Fe25 2.002 . S
O26 C43 1.295 . S
O27 Fe22 1.997 . S
O27 C43 1.235 . S
O28 Fe22 2.002 . S
O28 C29 1.295 . S
C29 O28 1.295 . S
C29 O31 1.235 . S
C30 O35 1.287 . S
C30 O36 1.255 . S
O31 Fe23 1.997 . S
O31 C29 1.235 . S
C32 O38 1.287 . S
C32 O39 1.255 . S
O33 Fe22 1.976 . S
O33 C40 1.287 . S
O34 Fe23 1.996 . S
O34 C40 1.255 . S
O35 Fe25 1.976 . S
O35 C30 1.287 . S
O36 Fe22 1.996 . S
O36 C30 1.255 . S
C37 O41 1.295 . S
C37 O42 1.235 . S
O38 Fe23 1.976 . S
O38 C32 1.287 . S
O39 Fe25 1.996 . S
O39 C32 1.255 . S
C40 O33 1.287 . S
C40 O34 1.255 . S
O41 Fe23 2.002 . S
O41 C37 1.295 . S
O42 Fe25 1.997 . S
O42 C37 1.235 . S
C43 O26 1.295 . S
C43 O27 1.235 . S
Fe44 O46 1.918 . S
Fe44 O49 1.997 . S
Fe44 O50 2.002 . S
Fe44 O55 1.976 . S
Fe44 O58 1.996 . S
Fe45 O46 1.918 . S
Fe45 O53 1.997 . S
Fe45 O56 1.996 . S
Fe45 O60 1.976 . S
Fe45 O63 2.002 . S
O46 Fe44 1.918 . S
O46 Fe45 1.918 . S
O46 Fe47 1.918 . S
Fe47 O46 1.918 . S
Fe47 O48 2.002 . S
Fe47 O57 1.976 . S
Fe47 O61 1.996 . S
Fe47 O64 1.997 . S
O48 Fe47 2.002 . S
O48 C65 1.295 . S
O49 Fe44 1.997 . S
O49 C65 1.235 . S
O50 Fe44 2.002 . S
O50 C51 1.295 . S
C51 O50 1.295 . S
C51 O53 1.235 . S
C52 O57 1.287 . S
C52 O58 1.255 . S
O53 Fe45 1.997 . S
O53 C51 1.235 . S
C54 O60 1.287 . S
C54 O61 1.255 . S
O55 Fe44 1.976 . S
O55 C62 1.287 . S
O56 Fe45 1.996 . S
O56 C62 1.255 . S
O57 Fe47 1.976 . S
O57 C52 1.287 . S
O58 Fe44 1.996 . S
O58 C52 1.255 . S
C59 O63 1.295 . S
C59 O64 1.235 . S
O60 Fe45 1.976 . S
O60 C54 1.287 . S
O61 Fe47 1.996 . S
O61 C54 1.255 . S
C62 O55 1.287 . S
C62 O56 1.255 . S
O63 Fe45 2.002 . S
O63 C59 1.295 . S
O64 Fe47 1.997 . S
O64 C59 1.235 . S
C65 O48 1.295 . S
C65 O49 1.235 . S
Fe66 O68 1.918 . S
Fe66 O71 1.997 . S
Fe66 O72 2.002 . S
Fe66 O77 1.976 . S
Fe66 O80 1.996 . S
Fe67 O68 1.918 . S
Fe67 O75 1.997 . S
Fe67 O78 1.996 . S
Fe67 O82 1.976 . S
Fe67 O85 2.002 . S
O68 Fe66 1.918 . S
O68 Fe67 1.918 . S
O68 Fe69 1.918 . S
Fe69 O68 1.918 . S
Fe69 O70 2.002 . S
Fe69 O79 1.976 . S
Fe69 O83 1.996 . S
Fe69 O86 1.997 . S
O70 Fe69 2.002 . S
O70 C87 1.295 . S
O71 Fe66 1.997 . S
O71 C87 1.235 . S
O72 Fe66 2.002 . S
O72 C73 1.295 . S
C73 O72 1.295 . S
C73 O75 1.235 . S
C74 O79 1.287 . S
C74 O80 1.255 . S
O75 Fe67 1.997 . S
O75 C73 1.235 . S
C76 O82 1.287 . S
C76 O83 1.255 . S
O77 Fe66 1.976 . S
O77 C84 1.287 . S
O78 Fe67 1.996 . S
O78 C84 1.255 . S
O79 Fe69 1.976 . S
O79 C74 1.287 . S
O80 Fe66 1.996 . S
O80 C74 1.255 . S
C81 O85 1.295 . S
C81 O86 1.235 . S
O82 Fe67 1.976 . S
O82 C76 1.287 . S
O83 Fe69 1.996 . S
O83 C76 1.255 . S
C84 O77 1.287 . S
C84 O78 1.255 . S
O85 Fe67 2.002 . S
O85 C81 1.295 . S
O86 Fe69 1.997 . S
O86 C81 1.235 . S
C87 O70 1.295 . S
C87 O71 1.235 . S
Fe88 O90 1.918 . S
Fe88 O93 1.997 . S
Fe88 O94 2.002 . S
Fe88 O99 1.976 . S
Fe88 O102 1.996 . S
Fe89 O90 1.918 . S
Fe89 O97 1.997 . S
Fe89 O100 1.996 . S
Fe89 O104 1.976 . S
Fe89 O107 2.002 . S
O90 Fe88 1.918 . S
O90 Fe89 1.918 . S
O90 Fe91 1.918 . S
Fe91 O90 1.918 . S
Fe91 O92 2.002 . S
Fe91 O101 1.976 . S
Fe91 O105 1.996 . S
Fe91 O108 1.997 . S
O92 Fe91 2.002 . S
O92 C109 1.295 . S
O93 Fe88 1.997 . S
O93 C109 1.235 . S
O94 Fe88 2.002 . S
O94 C95 1.295 . S
C95 O94 1.295 . S
C95 O97 1.235 . S
C96 O101 1.287 . S
C96 O102 1.255 . S
O97 Fe89 1.997 . S
O97 C95 1.235 . S
C98 O104 1.287 . S
C98 O105 1.255 . S
O99 Fe88 1.976 . S
O99 C106 1.287 . S
O100 Fe89 1.996 . S
O100 C106 1.255 . S
O101 Fe91 1.976 . S
O101 C96 1.287 . S
O102 Fe88 1.996 . S
O102 C96 1.255 . S
C103 O107 1.295 . S
C103 O108 1.235 . S
O104 Fe89 1.976 . S
O104 C98 1.287 . S
O105 Fe91 1.996 . S
O105 C98 1.255 . S
C106 O99 1.287 . S
C106 O100 1.255 . S
O107 Fe89 2.002 . S
O107 C103 1.295 . S
O108 Fe91 1.997 . S
O108 C103 1.235 . S
C109 O92 1.295 . S
C109 O93 1.235 . S
Fe110 O112 1.918 . S
Fe110 O115 1.997 . S
Fe110 O116 2.002 . S
Fe110 O121 1.976 . S
Fe110 O124 1.996 . S
Fe111 O112 1.918 . S
Fe111 O119 1.997 . S
Fe111 O122 1.996 . S
Fe111 O126 1.976 . S
Fe111 O129 2.002 . S
O112 Fe110 1.918 . S
O112 Fe111 1.918 . S
O112 Fe113 1.918 . S
Fe113 O112 1.918 . S
Fe113 O114 2.002 . S
Fe113 O123 1.976 . S
Fe113 O127 1.996 . S
Fe113 O130 1.997 . S
O114 Fe113 2.002 . S
O114 C131 1.295 . S
O115 Fe110 1.997 . S
O115 C131 1.235 . S
O116 Fe110 2.002 . S
O116 C117 1.290 1_556 S
C117 O116 1.290 1_554 S
C117 O119 1.234 1_554 S
C118 O123 1.287 . S
C118 O124 1.255 . S
O119 Fe111 1.997 . S
O119 C117 1.234 1_556 S
C120 O126 1.287 . S
C120 O127 1.255 . S
O121 Fe110 1.976 . S
O121 C128 1.287 . S
O122 Fe111 1.996 . S
O122 C128 1.255 . S
O123 Fe113 1.976 . S
O123 C118 1.287 . S
O124 Fe110 1.996 . S
O124 C118 1.255 . S
C125 O129 1.295 . S
C125 O130 1.235 . S
O126 Fe111 1.976 . S
O126 C120 1.287 . S
O127 Fe113 1.996 . S
O127 C120 1.255 . S
C128 O121 1.287 . S
C128 O122 1.255 . S
O129 Fe111 2.002 . S
O129 C125 1.295 . S
O130 Fe113 1.997 . S
O130 C125 1.235 . S
C131 O114 1.295 . S
C131 O115 1.235 . S
Fe132 O134 1.918 . S
Fe132 O137 1.997 . S
Fe132 O138 2.002 . S
Fe132 O143 1.976 . S
Fe132 O146 1.996 . S
Fe133 O134 1.918 . S
Fe133 O141 1.997 . S
Fe133 O144 1.996 . S
Fe133 O148 1.976 . S
Fe133 O151 2.002 . S
O134 Fe132 1.918 . S
O134 Fe133 1.918 . S
O134 Fe135 1.918 . S
Fe135 O134 1.918 . S
Fe135 O136 2.002 . S
Fe135 O145 1.976 . S
Fe135 O149 1.996 . S
Fe135 O152 1.997 . S
O136 Fe135 2.002 . S
O136 C153 1.295 . S
O137 Fe132 1.997 . S
O137 C153 1.235 . S
O138 Fe132 2.002 . S
O138 C139 1.295 . S
C139 O138 1.295 . S
C139 O141 1.235 . S
C140 O145 1.287 . S
C140 O146 1.255 . S
O141 Fe133 1.997 . S
O141 C139 1.235 . S
C142 O148 1.287 . S
C142 O149 1.255 . S
O143 Fe132 1.976 . S
O143 C150 1.287 . S
O144 Fe133 1.996 . S
O144 C150 1.255 . S
O145 Fe135 1.976 . S
O145 C140 1.287 . S
O146 Fe132 1.996 . S
O146 C140 1.255 . S
C147 O151 1.295 . S
C147 O152 1.235 . S
O148 Fe133 1.976 . S
O148 C142 1.287 . S
O149 Fe135 1.996 . S
O149 C142 1.255 . S
C150 O143 1.287 . S
C150 O144 1.255 . S
O151 Fe133 2.002 . S
O151 C147 1.295 . S
O152 Fe135 1.997 . S
O152 C147 1.235 . S
C153 O136 1.295 . S
C153 O137 1.235 . S
Fe154 O156 1.918 . S
Fe154 O159 1.995 1_554 S
Fe154 O160 1.993 1_554 S
Fe154 O165 1.977 . S
Fe154 O168 2.005 . S
Fe155 O156 1.918 1_556 S
Fe155 O163 1.997 . S
Fe155 O166 1.996 . S
Fe155 O170 1.976 1_556 S
Fe155 O173 2.002 . S
O156 Fe154 1.918 . S
O156 Fe155 1.918 1_554 S
O156 Fe157 1.918 . S
Fe157 O156 1.918 . S
Fe157 O158 2.002 . S
Fe157 O167 1.976 . S
Fe157 O171 1.996 . S
Fe157 O174 1.997 1_554 S
O158 Fe157 2.002 . S
O158 C175 1.295 1_554 S
O159 Fe154 1.995 1_556 S
O159 C175 1.235 . S
O160 Fe154 1.993 1_556 S
O160 C161 1.295 . S
C161 O160 1.295 . S
C161 O163 1.235 . S
C162 O167 1.287 . S
C162 O168 1.255 . S
O163 Fe155 1.997 . S
O163 C161 1.235 . S
C164 O170 1.287 . S
C164 O171 1.255 . S
O165 Fe154 1.977 . S
O165 C172 1.287 . S
O166 Fe155 1.996 . S
O166 C172 1.255 1_556 S
O167 Fe157 1.976 . S
O167 C162 1.287 . S
O168 Fe154 2.005 . S
O168 C162 1.255 . S
C169 O173 1.295 . S
C169 O174 1.235 . S
O170 Fe155 1.976 1_554 S
O170 C164 1.287 . S
O171 Fe157 1.996 . S
O171 C164 1.255 . S
C172 O165 1.287 . S
C172 O166 1.255 1_554 S
O173 Fe155 2.002 . S
O173 C169 1.295 . S
O174 Fe157 1.997 1_556 S
O174 C169 1.235 . S
C175 O158 1.295 1_556 S
C175 O159 1.235 . S
Fe176 O178 1.918 . S
Fe176 O181 1.997 . S
Fe176 O182 2.002 . S
Fe176 O187 1.976 . S
Fe176 O190 1.996 . S
Fe177 O178 1.918 . S
Fe177 O185 1.997 . S
Fe177 O188 1.996 . S
Fe177 O192 1.976 . S
Fe177 O195 2.002 . S
O178 Fe176 1.918 . S
O178 Fe177 1.918 . S
O178 Fe179 1.918 . S
Fe179 O178 1.918 . S
Fe179 O180 2.002 . S
Fe179 O189 1.976 . S
Fe179 O193 1.996 . S
Fe179 O196 1.997 . S
O180 Fe179 2.002 . S
O180 C197 1.295 . S
O181 Fe176 1.997 . S
O181 C197 1.235 . S
O182 Fe176 2.002 . S
O182 C183 1.295 . S
C183 O182 1.295 . S
C183 O185 1.235 . S
C184 O189 1.287 . S
C184 O190 1.255 . S
O185 Fe177 1.997 . S
O185 C183 1.235 . S
C186 O192 1.287 . S
C186 O193 1.255 . S
O187 Fe176 1.976 . S
O187 C194 1.287 . S
O188 Fe177 1.996 . S
O188 C194 1.255 . S
O189 Fe179 1.976 . S
O189 C184 1.287 . S
O190 Fe176 1.996 . S
O190 C184 1.255 . S
C191 O195 1.295 . S
C191 O196 1.235 . S
O192 Fe177 1.976 . S
O192 C186 1.287 . S
O193 Fe179 1.996 . S
O193 C186 1.255 . S
C194 O187 1.287 . S
C194 O188 1.255 . S
O195 Fe177 2.002 . S
O195 C191 1.295 . S
O196 Fe179 1.997 . S
O196 C191 1.235 . S
C197 O180 1.295 . S
C197 O181 1.235 . S
Fe198 O200 1.918 . S
Fe198 O203 1.997 . S
Fe198 O204 2.002 . S
Fe198 O209 1.976 . S
Fe198 O212 1.996 . S
Fe199 O200 1.918 . S
Fe199 O207 1.997 . S
Fe199 O210 1.996 . S
Fe199 O214 1.976 . S
Fe199 O217 2.002 . S
O200 Fe198 1.918 . S
O200 Fe199 1.918 . S
O200 Fe201 1.918 . S
Fe201 O200 1.918 . S
Fe201 O202 2.002 . S
Fe201 O211 1.976 . S
Fe201 O215 1.996 . S
Fe201 O218 1.997 . S
O202 Fe201 2.002 . S
O202 C219 1.295 . S
O203 Fe198 1.997 . S
O203 C219 1.235 . S
O204 Fe198 2.002 . S
O204 C205 1.295 . S
C205 O204 1.295 . S
C205 O207 1.235 . S
C206 O211 1.287 . S
C206 O212 1.255 . S
O207 Fe199 1.997 . S
O207 C205 1.235 . S
C208 O214 1.287 . S
C208 O215 1.255 . S
O209 Fe198 1.976 . S
O209 C216 1.287 . S
O210 Fe199 1.996 . S
O210 C216 1.255 . S
O211 Fe201 1.976 . S
O211 C206 1.287 . S
O212 Fe198 1.996 . S
O212 C206 1.255 . S
C213 O217 1.295 . S
C213 O218 1.235 . S
O214 Fe199 1.976 . S
O214 C208 1.287 . S
O215 Fe201 1.996 . S
O215 C208 1.255 . S
C216 O209 1.287 . S
C216 O210 1.255 . S
O217 Fe199 2.002 . S
O217 C213 1.295 . S
O218 Fe201 1.997 . S
O218 C213 1.235 . S
C219 O202 1.295 . S
C219 O203 1.235 . S
Fe220 O222 1.918 . S
Fe220 O225 1.997 . S
Fe220 O226 2.002 . S
Fe220 O231 1.976 . S
Fe220 O234 1.996 . S
Fe221 O222 1.918 . S
Fe221 O229 1.997 . S
Fe221 O232 1.996 . S
Fe221 O236 1.976 . S
Fe221 O239 2.002 . S
O222 Fe220 1.918 . S
O222 Fe221 1.918 . S
O222 Fe223 1.918 . S
Fe223 O222 1.918 . S
Fe223 O224 2.002 . S
Fe223 O233 1.976 . S
Fe223 O237 1.996 . S
Fe223 O240 1.997 . S
O224 Fe223 2.002 . S
O224 C241 1.295 . S
O225 Fe220 1.997 . S
O225 C241 1.235 . S
O226 Fe220 2.002 . S
O226 C227 1.295 . S
C227 O226 1.295 . S
C227 O229 1.235 . S
C228 O233 1.287 . S
C228 O234 1.255 . S
O229 Fe221 1.997 . S
O229 C227 1.235 . S
C230 O236 1.287 . S
C230 O237 1.255 . S
O231 Fe220 1.976 . S
O231 C238 1.287 . S
O232 Fe221 1.996 . S
O232 C238 1.255 . S
O233 Fe223 1.976 . S
O233 C228 1.287 . S
O234 Fe220 1.996 . S
O234 C228 1.255 . S
C235 O239 1.295 . S
C235 O240 1.235 . S
O236 Fe221 1.976 . S
O236 C230 1.287 . S
O237 Fe223 1.996 . S
O237 C230 1.255 . S
C238 O231 1.287 . S
C238 O232 1.255 . S
O239 Fe221 2.002 . S
O239 C235 1.295 . S
O240 Fe223 1.997 . S
O240 C235 1.235 . S
C241 O224 1.295 . S
C241 O225 1.235 . S
Fe242 O244 1.918 . S
Fe242 O247 1.997 . S
Fe242 O248 2.002 . S
Fe242 O253 1.976 . S
Fe242 O256 1.996 . S
Fe243 O244 1.918 . S
Fe243 O251 1.997 . S
Fe243 O254 1.996 . S
Fe243 O258 1.976 . S
Fe243 O261 2.002 . S
O244 Fe242 1.918 . S
O244 Fe243 1.918 . S
O244 Fe245 1.918 . S
Fe245 O244 1.918 . S
Fe245 O246 2.002 . S
Fe245 O255 1.976 . S
Fe245 O259 1.996 . S
Fe245 O262 1.997 . S
O246 Fe245 2.002 . S
O246 C263 1.295 . S
O247 Fe242 1.997 . S
O247 C263 1.235 . S
O248 Fe242 2.002 . S
O248 C249 1.295 . S
C249 O248 1.295 . S
C249 O251 1.235 . S
C250 O255 1.287 . S
C250 O256 1.255 . S
O251 Fe243 1.997 . S
O251 C249 1.235 . S
C252 O258 1.287 . S
C252 O259 1.255 . S
O253 Fe242 1.976 . S
O253 C260 1.287 . S
O254 Fe243 1.996 . S
O254 C260 1.255 . S
O255 Fe245 1.976 . S
O255 C250 1.287 . S
O256 Fe242 1.996 . S
O256 C250 1.255 . S
C257 O261 1.295 . S
C257 O262 1.235 . S
O258 Fe243 1.976 . S
O258 C252 1.287 . S
O259 Fe245 1.996 . S
O259 C252 1.255 . S
C260 O253 1.287 . S
C260 O254 1.255 . S
O261 Fe243 2.002 . S
O261 C257 1.295 . S
O262 Fe245 1.997 . S
O262 C257 1.235 . S
C263 O246 1.295 . S
C263 O247 1.235 . S
H264 C272 0.929 . S
H265 C274 0.930 . S
H266 C276 0.930 . S
H267 C279 0.929 . S
H268 C282 0.930 . S
H269 C284 0.960 . S
H270 C284 0.960 . S
H271 C284 0.960 . S
C272 H264 0.929 . S
C272 C273 1.377 . S
C272 C274 1.384 . S
C273 C272 1.377 . S
C273 C279 1.390 . S
C274 H265 0.930 . S
C274 C272 1.384 . S
C274 C275 1.372 . S
C275 C274 1.372 . S
C275 C276 1.400 . S
C275 C280 1.490 . S
C276 H266 0.930 . S
C276 C275 1.400 . S
C276 C279 1.386 . S
H277 C293 0.930 . S
H278 C294 0.931 . S
C279 H267 0.929 . S
C279 C273 1.390 . S
C279 C276 1.386 . S
C280 C275 1.490 . S
C280 C282 1.395 . S
C280 C283 1.403 . S
H281 C287 0.930 . S
C282 H268 0.930 . S
C282 C280 1.395 . S
C282 C285 1.403 . S
C283 C280 1.403 . S
C283 C284 1.524 . S
C283 C287 1.400 . S
C284 H269 0.960 . S
C284 H270 0.960 . S
C284 H271 0.960 . S
C284 C283 1.524 . S
C285 C282 1.403 . S
C285 C286 1.392 . S
C285 C289 1.495 . S
C286 C285 1.392 . S
C286 C287 1.385 . S
C286 C288 1.478 . S
C287 H281 0.930 . S
C287 C283 1.400 . S
C287 C286 1.385 . S
C288 C286 1.478 . S
C288 C290 1.381 . S
C288 C294 1.383 . S
C289 C285 1.495 . S
C289 H295 0.959 . S
C289 H296 0.961 . S
C289 H297 0.960 . S
C290 C288 1.381 . S
C290 C291 1.394 . S
C290 H298 0.930 . S
C291 C290 1.394 . S
C291 C292 1.383 . S
C291 H299 0.929 . S
C292 C291 1.383 . S
C292 C293 1.377 . S
C293 H277 0.930 . S
C293 C292 1.377 . S
C293 C294 1.379 . S
C294 H278 0.931 . S
C294 C288 1.383 . S
C294 C293 1.379 . S
H295 C289 0.959 . S
H296 C289 0.961 . S
H297 C289 0.960 . S
H298 C290 0.930 . S
H299 C291 0.929 . S
H300 C308 0.929 . S
H301 C310 0.930 . S
H302 C312 0.930 . S
H303 C315 0.929 . S
H304 C318 0.930 . S
H305 C320 0.960 . S
H306 C320 0.960 . S
H307 C320 0.960 . S
C308 H300 0.929 . S
C308 C309 1.377 . S
C308 C310 1.384 . S
C309 C308 1.377 . S
C309 C315 1.390 . S
C310 H301 0.930 . S
C310 C308 1.384 . S
C310 C311 1.372 . S
C311 C310 1.372 . S
C311 C312 1.400 . S
C311 C316 1.490 . S
C312 H302 0.930 . S
C312 C311 1.400 . S
C312 C315 1.386 . S
H313 C329 0.930 . S
H314 C330 0.931 . S
C315 H303 0.929 . S
C315 C309 1.390 . S
C315 C312 1.386 . S
C316 C311 1.490 . S
C316 C318 1.395 . S
C316 C319 1.403 . S
H317 C323 0.930 . S
C318 H304 0.930 . S
C318 C316 1.395 . S
C318 C321 1.403 . S
C319 C316 1.403 . S
C319 C320 1.524 . S
C319 C323 1.400 . S
C320 H305 0.960 . S
C320 H306 0.960 . S
C320 H307 0.960 . S
C320 C319 1.524 . S
C321 C318 1.403 . S
C321 C322 1.392 . S
C321 C325 1.495 . S
C322 C321 1.392 . S
C322 C323 1.385 . S
C322 C324 1.478 . S
C323 H317 0.930 . S
C323 C319 1.400 . S
C323 C322 1.385 . S
C324 C322 1.478 . S
C324 C326 1.381 . S
C324 C330 1.383 . S
C325 C321 1.495 . S
C325 H331 0.959 . S
C325 H332 0.961 . S
C325 H333 0.960 . S
C326 C324 1.381 . S
C326 C327 1.394 . S
C326 H334 0.930 . S
C327 C326 1.394 . S
C327 C328 1.383 . S
C327 H335 0.929 . S
C328 C327 1.383 . S
C328 C329 1.377 . S
C329 H313 0.930 . S
C329 C328 1.377 . S
C329 C330 1.379 . S
C330 H314 0.931 . S
C330 C324 1.383 . S
C330 C329 1.379 . S
H331 C325 0.959 . S
H332 C325 0.961 . S
H333 C325 0.960 . S
H334 C326 0.930 . S
H335 C327 0.929 . S
H336 C344 0.929 . S
H337 C346 0.930 . S
H338 C348 0.930 . S
H339 C351 0.929 . S
H340 C354 0.930 . S
H341 C356 0.960 . S
H342 C356 0.960 . S
H343 C356 0.960 . S
C344 H336 0.929 . S
C344 C345 1.377 . S
C344 C346 1.384 . S
C345 C344 1.377 . S
C345 C351 1.390 . S
C346 H337 0.930 . S
C346 C344 1.384 . S
C346 C347 1.372 . S
C347 C346 1.372 . S
C347 C348 1.400 . S
C347 C352 1.490 . S
C348 H338 0.930 . S
C348 C347 1.400 . S
C348 C351 1.386 . S
H349 C365 0.930 . S
H350 C366 0.937 . S
C351 H339 0.929 . S
C351 C345 1.390 . S
C351 C348 1.386 . S
C352 C347 1.490 . S
C352 C354 1.395 . S
C352 C355 1.403 . S
H353 C359 0.930 . S
C354 H340 0.930 . S
C354 C352 1.395 . S
C354 C357 1.403 . S
C355 C352 1.403 . S
C355 C356 1.524 . S
C355 C359 1.400 . S
C356 H341 0.960 . S
C356 H342 0.960 . S
C356 H343 0.960 . S
C356 C355 1.524 . S
C357 C354 1.403 . S
C357 C358 1.392 . S
C357 C361 1.495 . S
C358 C357 1.392 . S
C358 C359 1.385 . S
C358 C360 1.478 1_556 S
C359 H353 0.930 . S
C359 C355 1.400 . S
C359 C358 1.385 . S
C360 C358 1.478 1_554 S
C360 C362 1.381 . S
C360 C366 1.383 . S
C361 C357 1.495 . S
C361 H367 0.959 . S
C361 H368 0.961 . S
C361 H369 0.960 . S
C362 C360 1.381 . S
C362 C363 1.394 . S
C362 H370 0.930 . S
C363 C362 1.394 . S
C363 C364 1.383 . S
C363 H371 0.929 . S
C364 C363 1.383 . S
C364 C365 1.377 . S
C365 H349 0.930 . S
C365 C364 1.377 . S
C365 C366 1.379 . S
C366 H350 0.937 . S
C366 C360 1.383 . S
C366 C365 1.379 . S
H367 C361 0.959 . S
H368 C361 0.961 . S
H369 C361 0.960 . S
H370 C362 0.930 . S
H371 C363 0.929 . S
H372 C380 0.929 . S
H373 C382 0.930 . S
H374 C384 0.930 . S
H375 C387 0.929 . S
H376 C390 0.930 . S
H377 C392 0.960 . S
H378 C392 0.960 . S
H379 C392 0.960 . S
C380 H372 0.929 . S
C380 C381 1.377 . S
C380 C382 1.384 . S
C381 C380 1.377 . S
C381 C387 1.390 . S
C382 H373 0.930 . S
C382 C380 1.384 . S
C382 C383 1.372 . S
C383 C382 1.372 . S
C383 C384 1.400 . S
C383 C388 1.490 . S
C384 H374 0.930 . S
C384 C383 1.400 . S
C384 C387 1.386 . S
H385 C401 0.930 . S
H386 C402 0.931 . S
C387 H375 0.929 . S
C387 C381 1.390 . S
C387 C384 1.386 . S
C388 C383 1.490 . S
C388 C390 1.395 . S
C388 C391 1.403 . S
H389 C395 0.930 . S
C390 H376 0.930 . S
C390 C388 1.395 . S
C390 C393 1.403 1_554 S
C391 C388 1.403 . S
C391 C392 1.524 . S
C391 C395 1.400 1_554 S
C392 H377 0.960 . S
C392 H378 0.960 . S
C392 H379 0.960 . S
C392 C391 1.524 . S
C393 C390 1.403 1_556 S
C393 C394 1.392 . S
C393 C397 1.495 . S
C394 C393 1.392 . S
C394 C395 1.385 . S
C394 C396 1.478 . S
C395 H389 0.930 . S
C395 C391 1.400 1_556 S
C395 C394 1.385 . S
C396 C394 1.478 . S
C396 C398 1.381 . S
C396 C402 1.383 . S
C397 C393 1.495 . S
C397 H403 0.959 1_556 S
C397 H404 0.961 . S
C397 H405 0.960 . S
C398 C396 1.381 . S
C398 C399 1.394 . S
C398 H406 0.930 . S
C399 C398 1.394 . S
C399 C400 1.383 . S
C399 H407 0.929 . S
C400 C399 1.383 . S
C400 C401 1.377 . S
C401 H385 0.930 . S
C401 C400 1.377 . S
C401 C402 1.379 . S
C402 H386 0.931 . S
C402 C396 1.383 . S
C402 C401 1.379 . S
H403 C397 0.959 1_554 S
H404 C397 0.961 . S
H405 C397 0.960 . S
H406 C398 0.930 . S
H407 C399 0.929 . S
H408 C416 0.929 . S
H409 C418 0.930 . S
H410 C420 0.934 . S
H411 C423 0.929 . S
H412 C426 0.930 . S
H413 C428 0.960 . S
H414 C428 0.960 . S
H415 C428 0.960 . S
C416 H408 0.929 . S
C416 C417 1.377 . S
C416 C418 1.384 1_556 S
C417 C416 1.377 . S
C417 C423 1.390 . S
C418 H409 0.930 . S
C418 C416 1.384 1_554 S
C418 C419 1.372 . S
C419 C418 1.372 . S
C419 C420 1.405 . S
C419 C424 1.490 . S
C420 H410 0.934 . S
C420 C419 1.405 . S
C420 C423 1.376 1_554 S
H421 C437 0.930 . S
H422 C438 0.931 . S
C423 H411 0.929 . S
C423 C417 1.390 . S
C423 C420 1.376 1_556 S
C424 C419 1.490 . S
C424 C426 1.395 . S
C424 C427 1.403 . S
H425 C431 0.930 . S
C426 H412 0.930 . S
C426 C424 1.395 . S
C426 C429 1.403 . S
C427 C424 1.403 . S
C427 C428 1.524 . S
C427 C431 1.400 . S
C428 H413 0.960 . S
C428 H414 0.960 . S
C428 H415 0.960 . S
C428 C427 1.524 . S
C429 C426 1.403 . S
C429 C430 1.392 . S
C429 C433 1.495 . S
C430 C429 1.392 . S
C430 C431 1.385 . S
C430 C432 1.478 . S
C431 H425 0.930 . S
C431 C427 1.400 . S
C431 C430 1.385 . S
C432 C430 1.478 . S
C432 C434 1.381 . S
C432 C438 1.383 . S
C433 C429 1.495 . S
C433 H439 0.959 . S
C433 H440 0.961 . S
C433 H441 0.960 . S
C434 C432 1.381 . S
C434 C435 1.394 . S
C434 H442 0.930 . S
C435 C434 1.394 . S
C435 C436 1.383 . S
C435 H443 0.929 . S
C436 C435 1.383 . S
C436 C437 1.377 . S
C437 H421 0.930 . S
C437 C436 1.377 . S
C437 C438 1.379 . S
C438 H422 0.931 . S
C438 C432 1.383 . S
C438 C437 1.379 . S
H439 C433 0.959 . S
H440 C433 0.961 . S
H441 C433 0.960 . S
H442 C434 0.930 . S
H443 C435 0.929 . S
H444 C452 0.929 . S
H445 C454 0.930 . S
H446 C456 0.930 . S
H447 C459 0.929 . S
H448 C462 0.930 . S
H449 C464 0.960 . S
H450 C464 0.960 . S
H451 C464 0.960 . S
C452 H444 0.929 . S
C452 C453 1.377 . S
C452 C454 1.384 . S
C453 C452 1.377 . S
C453 C459 1.390 . S
C454 H445 0.930 . S
C454 C452 1.384 . S
C454 C455 1.372 . S
C455 C454 1.372 . S
C455 C456 1.400 . S
C455 C460 1.490 . S
C456 H446 0.930 . S
C456 C455 1.400 . S
C456 C459 1.386 . S
H457 C473 0.930 . S
H458 C474 0.931 . S
C459 H447 0.929 . S
C459 C453 1.390 . S
C459 C456 1.386 . S
C460 C455 1.490 . S
C460 C462 1.395 . S
C460 C463 1.403 . S
H461 C467 0.930 . S
C462 H448 0.930 . S
C462 C460 1.395 . S
C462 C465 1.403 . S
C463 C460 1.403 . S
C463 C464 1.524 . S
C463 C467 1.400 . S
C464 H449 0.960 . S
C464 H450 0.960 . S
C464 H451 0.960 . S
C464 C463 1.524 . S
C465 C462 1.403 . S
C465 C466 1.392 . S
C465 C469 1.495 . S
C466 C465 1.392 . S
C466 C467 1.385 . S
C466 C468 1.478 . S
C467 H461 0.930 . S
C467 C463 1.400 . S
C467 C466 1.385 . S
C468 C466 1.478 . S
C468 C470 1.381 . S
C468 C474 1.383 . S
C469 C465 1.495 . S
C469 H475 0.959 . S
C469 H476 0.961 . S
C469 H477 0.960 . S
C470 C468 1.381 . S
C470 C471 1.394 . S
C470 H478 0.930 . S
C471 C470 1.394 . S
C471 C472 1.383 . S
C471 H479 0.929 . S
C472 C471 1.383 . S
C472 C473 1.377 . S
C473 H457 0.930 . S
C473 C472 1.377 . S
C473 C474 1.379 . S
C474 H458 0.931 . S
C474 C468 1.383 . S
C474 C473 1.379 . S
H475 C469 0.959 . S
H476 C469 0.961 . S
H477 C469 0.960 . S
H478 C470 0.930 . S
H479 C471 0.929 . S
H480 C488 0.929 . S
H481 C490 0.930 . S
H482 C492 0.930 . S
H483 C495 0.929 . S
H484 C498 0.930 . S
H485 C500 0.960 . S
H486 C500 0.960 . S
H487 C500 0.960 . S
C488 H480 0.929 . S
C488 C489 1.377 . S
C488 C490 1.384 . S
C489 C488 1.377 . S
C489 C495 1.390 . S
C490 H481 0.930 . S
C490 C488 1.384 . S
C490 C491 1.372 . S
C491 C490 1.372 . S
C491 C492 1.400 . S
C491 C496 1.490 . S
C492 H482 0.930 . S
C492 C491 1.400 . S
C492 C495 1.386 . S
H493 C509 0.930 . S
H494 C510 0.931 . S
C495 H483 0.929 . S
C495 C489 1.390 . S
C495 C492 1.386 . S
C496 C491 1.490 . S
C496 C498 1.395 . S
C496 C499 1.403 . S
H497 C503 0.930 . S
C498 H484 0.930 . S
C498 C496 1.395 . S
C498 C501 1.403 . S
C499 C496 1.403 . S
C499 C500 1.524 . S
C499 C503 1.400 . S
C500 H485 0.960 . S
C500 H486 0.960 . S
C500 H487 0.960 . S
C500 C499 1.524 . S
C501 C498 1.403 . S
C501 C502 1.392 . S
C501 C505 1.495 . S
C502 C501 1.392 . S
C502 C503 1.385 . S
C502 C504 1.478 . S
C503 H497 0.930 . S
C503 C499 1.400 . S
C503 C502 1.385 . S
C504 C502 1.478 . S
C504 C506 1.381 . S
C504 C510 1.383 . S
C505 C501 1.495 . S
C505 H511 0.959 . S
C505 H512 0.961 . S
C505 H513 0.960 . S
C506 C504 1.381 . S
C506 C507 1.394 . S
C506 H514 0.930 . S
C507 C506 1.394 . S
C507 C508 1.383 . S
C507 H515 0.929 . S
C508 C507 1.383 . S
C508 C509 1.377 . S
C509 H493 0.930 . S
C509 C508 1.377 . S
C509 C510 1.379 . S
C510 H494 0.931 . S
C510 C504 1.383 . S
C510 C509 1.379 . S
H511 C505 0.959 . S
H512 C505 0.961 . S
H513 C505 0.960 . S
H514 C506 0.930 . S
H515 C507 0.929 . S
H516 C524 0.929 . S
H517 C526 0.930 . S
H518 C528 0.930 . S
H519 C531 0.929 . S
H520 C534 0.930 . S
H521 C536 0.960 . S
H522 C536 0.960 . S
H523 C536 0.960 . S
C524 H516 0.929 . S
C524 C525 1.377 . S
C524 C526 1.384 . S
C525 C524 1.377 . S
C525 C531 1.390 . S
C526 H517 0.930 . S
C526 C524 1.384 . S
C526 C527 1.372 . S
C527 C526 1.372 . S
C527 C528 1.400 . S
C527 C532 1.490 . S
C528 H518 0.930 . S
C528 C527 1.400 . S
C528 C531 1.386 . S
H529 C545 0.930 . S
H530 C546 0.931 . S
C531 H519 0.929 . S
C531 C525 1.390 . S
C531 C528 1.386 . S
C532 C527 1.490 . S
C532 C534 1.395 . S
C532 C535 1.403 . S
H533 C539 0.930 . S
C534 H520 0.930 . S
C534 C532 1.395 . S
C534 C537 1.403 . S
C535 C532 1.403 . S
C535 C536 1.524 . S
C535 C539 1.400 . S
C536 H521 0.960 . S
C536 H522 0.960 . S
C536 H523 0.960 . S
C536 C535 1.524 . S
C537 C534 1.403 . S
C537 C538 1.392 . S
C537 C541 1.495 . S
C538 C537 1.392 . S
C538 C539 1.385 . S
C538 C540 1.478 . S
C539 H533 0.930 . S
C539 C535 1.400 . S
C539 C538 1.385 . S
C540 C538 1.478 . S
C540 C542 1.381 . S
C540 C546 1.383 . S
C541 C537 1.495 . S
C541 H547 0.959 . S
C541 H548 0.961 . S
C541 H549 0.960 . S
C542 C540 1.381 . S
C542 C543 1.394 . S
C542 H550 0.930 . S
C543 C542 1.394 . S
C543 C544 1.383 . S
C543 H551 0.929 . S
C544 C543 1.383 . S
C544 C545 1.377 . S
C545 H529 0.930 . S
C545 C544 1.377 . S
C545 C546 1.379 . S
C546 H530 0.931 . S
C546 C540 1.383 . S
C546 C545 1.379 . S
H547 C541 0.959 . S
H548 C541 0.961 . S
H549 C541 0.960 . S
H550 C542 0.930 . S
H551 C543 0.929 . S
H552 C560 0.929 . S
H553 C562 0.930 . S
H554 C564 0.930 . S
H555 C567 0.929 . S
H556 C570 0.930 . S
H557 C572 0.960 . S
H558 C572 0.960 . S
H559 C572 0.960 . S
C560 H552 0.929 . S
C560 C561 1.377 . S
C560 C562 1.384 . S
C561 C560 1.377 . S
C561 C567 1.390 . S
C562 H553 0.930 . S
C562 C560 1.384 . S
C562 C563 1.372 . S
C563 C562 1.372 . S
C563 C564 1.400 . S
C563 C568 1.490 . S
C564 H554 0.930 . S
C564 C563 1.400 . S
C564 C567 1.386 . S
H565 C581 0.930 . S
H566 C582 0.931 . S
C567 H555 0.929 . S
C567 C561 1.390 . S
C567 C564 1.386 . S
C568 C563 1.490 . S
C568 C570 1.395 . S
C568 C571 1.403 . S
H569 C575 0.930 . S
C570 H556 0.930 . S
C570 C568 1.395 . S
C570 C573 1.403 . S
C571 C568 1.403 . S
C571 C572 1.524 . S
C571 C575 1.400 . S
C572 H557 0.960 . S
C572 H558 0.960 . S
C572 H559 0.960 . S
C572 C571 1.524 . S
C573 C570 1.403 . S
C573 C574 1.392 . S
C573 C577 1.495 . S
C574 C573 1.392 . S
C574 C575 1.385 . S
C574 C576 1.478 . S
C575 H569 0.930 . S
C575 C571 1.400 . S
C575 C574 1.385 . S
C576 C574 1.478 . S
C576 C578 1.381 . S
C576 C582 1.383 . S
C577 C573 1.495 . S
C577 H583 0.959 . S
C577 H584 0.961 . S
C577 H585 0.960 . S
C578 C576 1.381 . S
C578 C579 1.394 . S
C578 H586 0.930 . S
C579 C578 1.394 . S
C579 C580 1.383 . S
C579 H587 0.929 . S
C580 C579 1.383 . S
C580 C581 1.377 . S
C581 H565 0.930 . S
C581 C580 1.377 . S
C581 C582 1.379 . S
C582 H566 0.931 . S
C582 C576 1.383 . S
C582 C581 1.379 . S
H583 C577 0.959 . S
H584 C577 0.961 . S
H585 C577 0.960 . S
H586 C578 0.930 . S
H587 C579 0.929 . S
H588 C596 0.929 . S
H589 C598 0.930 1_556 S
H590 C600 0.930 1_556 S
H591 C603 0.929 . S
H592 C606 0.930 . S
H593 C608 0.960 . S
H594 C608 0.960 . S
H595 C608 0.960 . S
C596 H588 0.929 . S
C596 C597 1.377 . S
C596 C598 1.384 . S
C597 C596 1.377 . S
C597 C603 1.390 . S
C598 H589 0.930 1_554 S
C598 C596 1.384 . S
C598 C599 1.372 1_554 S
C599 C598 1.372 1_556 S
C599 C600 1.400 1_556 S
C599 C604 1.490 . S
C600 H590 0.930 1_554 S
C600 C599 1.400 1_554 S
C600 C603 1.386 . S
H601 C617 0.930 . S
H602 C618 0.931 . S
C603 H591 0.929 . S
C603 C597 1.390 . S
C603 C600 1.386 . S
C604 C599 1.490 . S
C604 C606 1.395 . S
C604 C607 1.403 . S
H605 C611 0.930 . S
C606 H592 0.930 . S
C606 C604 1.395 . S
C606 C609 1.403 . S
C607 C604 1.403 . S
C607 C608 1.524 . S
C607 C611 1.400 . S
C608 H593 0.960 . S
C608 H594 0.960 . S
C608 H595 0.960 . S
C608 C607 1.524 . S
C609 C606 1.403 . S
C609 C610 1.392 . S
C609 C613 1.495 . S
C610 C609 1.392 . S
C610 C611 1.385 . S
C610 C612 1.478 . S
C611 H605 0.930 . S
C611 C607 1.400 . S
C611 C610 1.385 . S
C612 C610 1.478 . S
C612 C614 1.381 . S
C612 C618 1.383 . S
C613 C609 1.495 . S
C613 H619 0.959 . S
C613 H620 0.961 . S
C613 H621 0.960 . S
C614 C612 1.381 . S
C614 C615 1.394 . S
C614 H622 0.930 . S
C615 C614 1.394 . S
C615 C616 1.383 . S
C615 H623 0.929 . S
C616 C615 1.383 . S
C616 C617 1.377 . S
C617 H601 0.930 . S
C617 C616 1.377 . S
C617 C618 1.379 . S
C618 H602 0.931 . S
C618 C612 1.383 . S
C618 C617 1.379 . S
H619 C613 0.959 . S
H620 C613 0.961 . S
H621 C613 0.960 . S
H622 C614 0.930 . S
H623 C615 0.929 . S
H624 C632 0.929 . S
H625 C634 0.930 . S
H626 C636 0.930 . S
H627 C639 0.929 . S
H628 C642 0.930 . S
H629 C644 0.960 . S
H630 C644 0.960 . S
H631 C644 0.960 . S
C632 H624 0.929 . S
C632 C633 1.377 . S
C632 C634 1.384 . S
C633 C632 1.377 . S
C633 C639 1.390 . S
C634 H625 0.930 . S
C634 C632 1.384 . S
C634 C635 1.372 . S
C635 C634 1.372 . S
C635 C636 1.400 . S
C635 C640 1.490 . S
C636 H626 0.930 . S
C636 C635 1.400 . S
C636 C639 1.386 . S
H637 C653 0.930 . S
H638 C654 0.931 . S
C639 H627 0.929 . S
C639 C633 1.390 . S
C639 C636 1.386 . S
C640 C635 1.490 . S
C640 C642 1.395 . S
C640 C643 1.403 . S
H641 C647 0.930 . S
C642 H628 0.930 . S
C642 C640 1.395 . S
C642 C645 1.403 1_556 S
C643 C640 1.403 . S
C643 C644 1.524 . S
C643 C647 1.400 1_556 S
C644 H629 0.960 . S
C644 H630 0.960 . S
C644 H631 0.960 . S
C644 C643 1.524 . S
C645 C642 1.403 1_554 S
C645 C646 1.392 . S
C645 C649 1.495 . S
C646 C645 1.392 . S
C646 C647 1.385 . S
C646 C648 1.478 . S
C647 H641 0.930 . S
C647 C643 1.400 1_554 S
C647 C646 1.385 . S
C648 C646 1.478 . S
C648 C650 1.381 . S
C648 C654 1.383 . S
C649 C645 1.495 . S
C649 H655 0.959 . S
C649 H656 0.961 . S
C649 H657 0.960 . S
C650 C648 1.381 . S
C650 C651 1.394 . S
C650 H658 0.930 . S
C651 C650 1.394 . S
C651 C652 1.383 . S
C651 H659 0.929 . S
C652 C651 1.383 . S
C652 C653 1.377 . S
C653 H637 0.930 . S
C653 C652 1.377 . S
C653 C654 1.379 . S
C654 H638 0.931 . S
C654 C648 1.383 . S
C654 C653 1.379 . S
H655 C649 0.959 . S
H656 C649 0.961 . S
H657 C649 0.960 . S
H658 C650 0.930 . S
H659 C651 0.929 . S
H660 C668 0.929 . S
H661 C670 0.930 . S
H662 C672 0.930 . S
H663 C675 0.929 . S
H664 C678 0.930 . S
H665 C680 0.960 . S
H666 C680 0.960 . S
H667 C680 0.960 . S
C668 H660 0.929 . S
C668 C669 1.377 . S
C668 C670 1.384 . S
C669 C668 1.377 . S
C669 C675 1.390 . S
C670 H661 0.930 . S
C670 C668 1.384 . S
C670 C671 1.372 . S
C671 C670 1.372 . S
C671 C672 1.400 . S
C671 C676 1.490 . S
C672 H662 0.930 . S
C672 C671 1.400 . S
C672 C675 1.386 . S
H673 C689 0.930 . S
H674 C690 0.931 1_554 S
C675 H663 0.929 . S
C675 C669 1.390 . S
C675 C672 1.386 . S
C676 C671 1.490 . S
C676 C678 1.395 . S
C676 C679 1.403 . S
H677 C683 0.930 . S
C678 H664 0.930 . S
C678 C676 1.395 . S
C678 C681 1.403 . S
C679 C676 1.403 . S
C679 C680 1.524 . S
C679 C683 1.400 . S
C680 H665 0.960 . S
C680 H666 0.960 . S
C680 H667 0.960 . S
C680 C679 1.524 . S
C681 C678 1.403 . S
C681 C682 1.392 . S
C681 C685 1.495 . S
C682 C681 1.392 . S
C682 C683 1.385 . S
C682 C684 1.478 . S
C683 H677 0.930 . S
C683 C679 1.400 . S
C683 C682 1.385 . S
C684 C682 1.478 . S
C684 C686 1.381 1_554 S
C684 C690 1.383 1_554 S
C685 C681 1.495 . S
C685 H691 0.959 . S
C685 H692 0.961 . S
C685 H693 0.960 . S
C686 C684 1.381 1_556 S
C686 C687 1.394 . S
C686 H694 0.930 . S
C687 C686 1.394 . S
C687 C688 1.383 . S
C687 H695 0.929 . S
C688 C687 1.383 . S
C688 C689 1.377 . S
C689 H673 0.930 . S
C689 C688 1.377 . S
C689 C690 1.379 . S
C690 H674 0.931 1_556 S
C690 C684 1.383 1_556 S
C690 C689 1.379 . S
H691 C685 0.959 . S
H692 C685 0.961 . S
H693 C685 0.960 . S
H694 C686 0.930 . S
H695 C687 0.929 . S
H696 C704 0.929 . S
H697 C706 0.930 . S
H698 C708 0.930 . S
H699 C711 0.929 . S
H700 C714 0.930 . S
H701 C716 0.960 . S
H702 C716 0.960 1_554 S
H703 C716 0.960 . S
C704 H696 0.929 . S
C704 C705 1.377 . S
C704 C706 1.384 . S
C705 C704 1.377 . S
C705 C711 1.390 1_554 S
C706 H697 0.930 . S
C706 C704 1.384 . S
C706 C707 1.372 . S
C707 C706 1.372 . S
C707 C708 1.400 1_554 S
C707 C712 1.490 . S
C708 H698 0.930 . S
C708 C707 1.400 1_556 S
C708 C711 1.386 . S
H709 C725 0.930 . S
H710 C726 0.931 . S
C711 H699 0.929 . S
C711 C705 1.390 1_556 S
C711 C708 1.386 . S
C712 C707 1.490 . S
C712 C714 1.395 . S
C712 C715 1.403 1_554 S
H713 C719 0.930 . S
C714 H700 0.930 . S
C714 C712 1.395 . S
C714 C717 1.403 1_545 S
C715 C712 1.403 1_556 S
C715 C716 1.524 . S
C715 C719 1.400 1_545 S
C716 H701 0.960 . S
C716 H702 0.960 1_556 S
C716 H703 0.960 . S
C716 C715 1.524 . S
C717 C714 1.403 1_565 S
C717 C718 1.392 . S
C717 C721 1.495 . S
C718 C717 1.392 . S
C718 C719 1.385 1_554 S
C718 C720 1.478 . S
C719 H713 0.930 . S
C719 C715 1.400 1_565 S
C719 C718 1.385 1_556 S
C720 C718 1.478 . S
C720 C722 1.381 . S
C720 C726 1.383 1_554 S
C721 C717 1.495 . S
C721 H727 0.959 . S
C721 H728 0.961 . S
C721 H729 0.960 . S
C722 C720 1.381 . S
C722 C723 1.394 . S
C722 H730 0.930 . S
C723 C722 1.394 . S
C723 C724 1.383 . S
C723 H731 0.929 . S
C724 C723 1.383 . S
C724 C725 1.377 1_554 S
C725 H709 0.930 . S
C725 C724 1.377 1_556 S
C725 C726 1.379 . S
C726 H710 0.931 . S
C726 C720 1.383 1_556 S
C726 C725 1.379 . S
H727 C721 0.959 . S
H728 C721 0.961 . S
H729 C721 0.960 . S
H730 C722 0.930 . S
H731 C723 0.929 . S
H732 C740 0.929 . S
H733 C742 0.930 . S
H734 C744 0.930 . S
H735 C747 0.929 . S
H736 C750 0.930 . S
H737 C752 0.960 . S
H738 C752 0.960 . S
H739 C752 0.960 . S
C740 H732 0.929 . S
C740 C741 1.377 . S
C740 C742 1.384 . S
C741 C740 1.377 . S
C741 C747 1.390 . S
C742 H733 0.930 . S
C742 C740 1.384 . S
C742 C743 1.372 . S
C743 C742 1.372 . S
C743 C744 1.400 . S
C743 C748 1.490 . S
C744 H734 0.930 . S
C744 C743 1.400 . S
C744 C747 1.386 . S
H745 C761 0.930 . S
H746 C762 0.931 . S
C747 H735 0.929 . S
C747 C741 1.390 . S
C747 C744 1.386 . S
C748 C743 1.490 . S
C748 C750 1.395 . S
C748 C751 1.403 . S
H749 C755 0.930 . S
C750 H736 0.930 . S
C750 C748 1.395 . S
C750 C753 1.403 . S
C751 C748 1.403 . S
C751 C752 1.524 . S
C751 C755 1.400 . S
C752 H737 0.960 . S
C752 H738 0.960 . S
C752 H739 0.960 . S
C752 C751 1.524 . S
C753 C750 1.403 . S
C753 C754 1.392 . S
C753 C757 1.495 . S
C754 C753 1.392 . S
C754 C755 1.385 . S
C754 C756 1.478 . S
C755 H749 0.930 . S
C755 C751 1.400 . S
C755 C754 1.385 . S
C756 C754 1.478 . S
C756 C758 1.381 . S
C756 C762 1.383 . S
C757 C753 1.495 . S
C757 H763 0.959 . S
C757 H764 0.961 . S
C757 H765 0.960 . S
C758 C756 1.381 . S
C758 C759 1.394 . S
C758 H766 0.930 . S
C759 C758 1.394 . S
C759 C760 1.383 . S
C759 H767 0.929 . S
C760 C759 1.383 . S
C760 C761 1.377 . S
C761 H745 0.930 . S
C761 C760 1.377 . S
C761 C762 1.379 . S
C762 H746 0.931 . S
C762 C756 1.383 . S
C762 C761 1.379 . S
H763 C757 0.959 . S
H764 C757 0.961 . S
H765 C757 0.960 . S
H766 C758 0.930 . S
H767 C759 0.929 . S
H768 C776 0.929 . S
H769 C778 0.930 . S
H770 C780 0.930 . S
H771 C783 0.929 . S
H772 C786 0.930 . S
H773 C788 0.960 . S
H774 C788 0.960 . S
H775 C788 0.960 . S
C776 H768 0.929 . S
C776 C777 1.377 . S
C776 C778 1.384 . S
C777 C776 1.377 . S
C777 C783 1.390 . S
C778 H769 0.930 . S
C778 C776 1.384 . S
C778 C779 1.372 . S
C779 C778 1.372 . S
C779 C780 1.400 . S
C779 C784 1.490 . S
C780 H770 0.930 . S
C780 C779 1.400 . S
C780 C783 1.386 . S
H781 C797 0.930 . S
H782 C798 0.931 . S
C783 H771 0.929 . S
C783 C777 1.390 . S
C783 C780 1.386 . S
C784 C779 1.490 . S
C784 C786 1.395 . S
C784 C787 1.403 . S
H785 C791 0.930 . S
C786 H772 0.930 . S
C786 C784 1.395 . S
C786 C789 1.403 1_455 S
C787 C784 1.403 . S
C787 C788 1.524 . S
C787 C791 1.400 1_455 S
C788 H773 0.960 . S
C788 H774 0.960 . S
C788 H775 0.960 . S
C788 C787 1.524 . S
C789 C786 1.403 1_655 S
C789 C790 1.392 . S
C789 C793 1.495 . S
C790 C789 1.392 . S
C790 C791 1.385 . S
C790 C792 1.478 . S
C791 H785 0.930 . S
C791 C787 1.400 1_655 S
C791 C790 1.385 . S
C792 C790 1.478 . S
C792 C794 1.381 . S
C792 C798 1.383 . S
C793 C789 1.495 . S
C793 H799 0.959 . S
C793 H800 0.961 . S
C793 H801 0.960 . S
C794 C792 1.381 . S
C794 C795 1.394 . S
C794 H802 0.930 . S
C795 C794 1.394 . S
C795 C796 1.383 . S
C795 H803 0.929 . S
C796 C795 1.383 . S
C796 C797 1.377 . S
C797 H781 0.930 . S
C797 C796 1.377 . S
C797 C798 1.379 . S
C798 H782 0.931 . S
C798 C792 1.383 . S
C798 C797 1.379 . S
H799 C793 0.959 . S
H800 C793 0.961 . S
H801 C793 0.960 . S
H802 C794 0.930 . S
H803 C795 0.929 . S
H804 C812 0.929 . S
H805 C814 0.930 . S
H806 C816 0.930 . S
H807 C819 0.929 . S
H808 C822 0.930 . S
H809 C824 0.960 . S
H810 C824 0.960 . S
H811 C824 0.960 . S
C812 H804 0.929 . S
C812 C813 1.377 . S
C812 C814 1.384 . S
C813 C812 1.377 . S
C813 C819 1.390 . S
C814 H805 0.930 . S
C814 C812 1.384 . S
C814 C815 1.372 . S
C815 C814 1.372 . S
C815 C816 1.400 . S
C815 C820 1.490 . S
C816 H806 0.930 . S
C816 C815 1.400 . S
C816 C819 1.386 . S
H817 C833 0.930 . S
H818 C834 0.931 . S
C819 H807 0.929 . S
C819 C813 1.390 . S
C819 C816 1.386 . S
C820 C815 1.490 . S
C820 C822 1.395 . S
C820 C823 1.403 . S
H821 C827 0.930 . S
C822 H808 0.930 . S
C822 C820 1.395 . S
C822 C825 1.403 1_565 S
C823 C820 1.403 . S
C823 C824 1.524 . S
C823 C827 1.400 1_565 S
C824 H809 0.960 . S
C824 H810 0.960 . S
C824 H811 0.960 . S
C824 C823 1.524 . S
C825 C822 1.403 1_545 S
C825 C826 1.392 . S
C825 C829 1.495 . S
C826 C825 1.392 . S
C826 C827 1.385 . S
C826 C828 1.478 . S
C827 H821 0.930 . S
C827 C823 1.400 1_545 S
C827 C826 1.385 . S
C828 C826 1.478 . S
C828 C830 1.381 . S
C828 C834 1.383 . S
C829 C825 1.495 . S
C829 H835 0.959 . S
C829 H836 0.961 . S
C829 H837 0.960 . S
C830 C828 1.381 . S
C830 C831 1.394 . S
C830 H838 0.930 . S
C831 C830 1.394 . S
C831 C832 1.383 . S
C831 H839 0.929 . S
C832 C831 1.383 . S
C832 C833 1.377 . S
C833 H817 0.930 . S
C833 C832 1.377 . S
C833 C834 1.379 . S
C834 H818 0.931 . S
C834 C828 1.383 . S
C834 C833 1.379 . S
H835 C829 0.959 . S
H836 C829 0.961 . S
H837 C829 0.960 . S
H838 C830 0.930 . S
H839 C831 0.929 . S
H840 C848 0.929 . S
H841 C850 0.930 . S
H842 C852 0.930 . S
H843 C855 0.929 . S
H844 C858 0.930 . S
H845 C860 0.960 . S
H846 C860 0.960 . S
H847 C860 0.960 . S
C848 H840 0.929 . S
C848 C849 1.377 . S
C848 C850 1.384 . S
C849 C848 1.377 . S
C849 C855 1.390 . S
C850 H841 0.930 . S
C850 C848 1.384 . S
C850 C851 1.372 . S
C851 C850 1.372 . S
C851 C852 1.400 . S
C851 C856 1.490 . S
C852 H842 0.930 . S
C852 C851 1.400 . S
C852 C855 1.386 . S
H853 C869 0.930 . S
H854 C870 0.931 . S
C855 H843 0.929 . S
C855 C849 1.390 . S
C855 C852 1.386 . S
C856 C851 1.490 . S
C856 C858 1.395 . S
C856 C859 1.403 . S
H857 C863 0.930 . S
C858 H844 0.930 . S
C858 C856 1.395 . S
C858 C861 1.403 . S
C859 C856 1.403 . S
C859 C860 1.524 . S
C859 C863 1.400 . S
C860 H845 0.960 . S
C860 H846 0.960 . S
C860 H847 0.960 . S
C860 C859 1.524 . S
C861 C858 1.403 . S
C861 C862 1.392 . S
C861 C865 1.495 . S
C862 C861 1.392 . S
C862 C863 1.385 . S
C862 C864 1.478 . S
C863 H857 0.930 . S
C863 C859 1.400 . S
C863 C862 1.385 . S
C864 C862 1.478 . S
C864 C866 1.381 . S
C864 C870 1.383 . S
C865 C861 1.495 . S
C865 H871 0.959 . S
C865 H872 0.961 . S
C865 H873 0.960 . S
C866 C864 1.381 . S
C866 C867 1.394 . S
C866 H874 0.930 . S
C867 C866 1.394 . S
C867 C868 1.383 . S
C867 H875 0.929 . S
C868 C867 1.383 . S
C868 C869 1.377 . S
C869 H853 0.930 . S
C869 C868 1.377 . S
C869 C870 1.379 . S
C870 H854 0.931 . S
C870 C864 1.383 . S
C870 C869 1.379 . S
H871 C865 0.959 . S
H872 C865 0.961 . S
H873 C865 0.960 . S
H874 C866 0.930 . S
H875 C867 0.929 . S
H876 C884 0.929 . S
H877 C886 0.930 . S
H878 C888 0.930 . S
H879 C891 0.929 . S
H880 C894 0.930 . S
H881 C896 0.960 1_554 S
H882 C896 0.960 . S
H883 C896 0.960 . S
C884 H876 0.929 . S
C884 C885 1.377 . S
C884 C886 1.384 . S
C885 C884 1.377 . S
C885 C891 1.390 . S
C886 H877 0.930 . S
C886 C884 1.384 . S
C886 C887 1.372 . S
C887 C886 1.372 . S
C887 C888 1.400 . S
C887 C892 1.490 . S
C888 H878 0.930 . S
C888 C887 1.400 . S
C888 C891 1.386 . S
H889 C905 0.930 . S
H890 C906 0.931 . S
C891 H879 0.929 . S
C891 C885 1.390 . S
C891 C888 1.386 . S
C892 C887 1.490 . S
C892 C894 1.395 . S
C892 C895 1.403 . S
H893 C899 0.930 . S
C894 H880 0.930 . S
C894 C892 1.395 . S
C894 C897 1.403 1_455 S
C895 C892 1.403 . S
C895 C896 1.524 . S
C895 C899 1.400 1_455 S
C896 H881 0.960 1_556 S
C896 H882 0.960 . S
C896 H883 0.960 . S
C896 C895 1.524 . S
C897 C894 1.403 1_655 S
C897 C898 1.392 . S
C897 C901 1.495 . S
C898 C897 1.392 . S
C898 C899 1.385 . S
C898 C900 1.478 . S
C899 H893 0.930 . S
C899 C895 1.400 1_655 S
C899 C898 1.385 . S
C900 C898 1.478 . S
C900 C902 1.381 . S
C900 C906 1.383 . S
C901 C897 1.495 . S
C901 H907 0.959 . S
C901 H908 0.961 . S
C901 H909 0.960 . S
C902 C900 1.381 . S
C902 C903 1.394 . S
C902 H910 0.930 . S
C903 C902 1.394 . S
C903 C904 1.383 . S
C903 H911 0.929 . S
C904 C903 1.383 . S
C904 C905 1.377 . S
C905 H889 0.930 . S
C905 C904 1.377 . S
C905 C906 1.379 . S
C906 H890 0.931 . S
C906 C900 1.383 . S
C906 C905 1.379 . S
H907 C901 0.959 . S
H908 C901 0.961 . S
H909 C901 0.960 . S
H910 C902 0.930 . S
H911 C903 0.929 . S
H912 C920 0.929 . S
H913 C922 0.930 . S
H914 C924 0.930 . S
H915 C927 0.929 . S
H916 C930 0.930 . S
H917 C932 0.960 . S
H918 C932 0.960 . S
H919 C932 0.960 . S
C920 H912 0.929 . S
C920 C921 1.377 . S
C920 C922 1.384 . S
C921 C920 1.377 . S
C921 C927 1.390 . S
C922 H913 0.930 . S
C922 C920 1.384 . S
C922 C923 1.372 . S
C923 C922 1.372 . S
C923 C924 1.400 . S
C923 C928 1.490 . S
C924 H914 0.930 . S
C924 C923 1.400 . S
C924 C927 1.386 . S
H925 C941 0.930 . S
H926 C942 0.931 . S
C927 H915 0.929 . S
C927 C921 1.390 . S
C927 C924 1.386 . S
C928 C923 1.490 . S
C928 C930 1.395 . S
C928 C931 1.403 . S
H929 C935 0.930 . S
C930 H916 0.930 . S
C930 C928 1.395 . S
C930 C933 1.403 . S
C931 C928 1.403 . S
C931 C932 1.524 . S
C931 C935 1.400 . S
C932 H917 0.960 . S
C932 H918 0.960 . S
C932 H919 0.960 . S
C932 C931 1.524 . S
C933 C930 1.403 . S
C933 C934 1.392 . S
C933 C937 1.495 . S
C934 C933 1.392 . S
C934 C935 1.385 . S
C934 C936 1.478 . S
C935 H929 0.930 . S
C935 C931 1.400 . S
C935 C934 1.385 . S
C936 C934 1.478 . S
C936 C938 1.381 . S
C936 C942 1.383 . S
C937 C933 1.495 . S
C937 H943 0.959 . S
C937 H944 0.961 . S
C937 H945 0.960 . S
C938 C936 1.381 . S
C938 C939 1.394 . S
C938 H946 0.930 . S
C939 C938 1.394 . S
C939 C940 1.383 . S
C939 H947 0.929 . S
C940 C939 1.383 . S
C940 C941 1.377 . S
C941 H925 0.930 . S
C941 C940 1.377 . S
C941 C942 1.379 . S
C942 H926 0.931 . S
C942 C936 1.383 . S
C942 C941 1.379 . S
H943 C937 0.959 . S
H944 C937 0.961 . S
H945 C937 0.960 . S
H946 C938 0.930 . S
H947 C939 0.929 . S
H948 C956 0.929 . S
H949 C958 0.930 . S
H950 C960 0.930 . S
H951 C963 0.929 1_556 S
H952 C966 0.930 1_554 S
H953 C968 0.960 . S
H954 C968 0.960 . S
H955 C968 0.960 . S
C956 H948 0.929 . S
C956 C957 1.377 . S
C956 C958 1.384 . S
C957 C956 1.377 . S
C957 C963 1.390 . S
C958 H949 0.930 . S
C958 C956 1.384 . S
C958 C959 1.372 . S
C959 C958 1.372 . S
C959 C960 1.400 1_554 S
C959 C964 1.490 1_554 S
C960 H950 0.930 . S
C960 C959 1.400 1_556 S
C960 C963 1.386 1_556 S
H961 C977 0.930 . S
H962 C978 0.931 . S
C963 H951 0.929 1_554 S
C963 C957 1.390 . S
C963 C960 1.386 1_554 S
C964 C959 1.490 1_556 S
C964 C966 1.395 . S
C964 C967 1.403 . S
H965 C971 0.930 . S
C966 H952 0.930 1_556 S
C966 C964 1.395 . S
C966 C969 1.403 . S
C967 C964 1.403 . S
C967 C968 1.524 . S
C967 C971 1.400 . S
C968 H953 0.960 . S
C968 H954 0.960 . S
C968 H955 0.960 . S
C968 C967 1.524 . S
C969 C966 1.403 . S
C969 C970 1.392 . S
C969 C973 1.495 . S
C970 C969 1.392 . S
C970 C971 1.385 . S
C970 C972 1.478 . S
C971 H965 0.930 . S
C971 C967 1.400 . S
C971 C970 1.385 . S
C972 C970 1.478 . S
C972 C974 1.381 . S
C972 C978 1.383 . S
C973 C969 1.495 . S
C973 H979 0.959 1_556 S
C973 H980 0.961 . S
C973 H981 0.960 . S
C974 C972 1.381 . S
C974 C975 1.394 . S
C974 H982 0.930 . S
C975 C974 1.394 . S
C975 C976 1.383 . S
C975 H983 0.929 . S
C976 C975 1.383 . S
C976 C977 1.377 . S
C977 H961 0.930 . S
C977 C976 1.377 . S
C977 C978 1.379 . S
C978 H962 0.931 . S
C978 C972 1.383 . S
C978 C977 1.379 . S
H979 C973 0.959 1_554 S
H980 C973 0.961 . S
H981 C973 0.960 . S
H982 C974 0.930 . S
H983 C975 0.929 . S
H984 C992 0.929 . S
H985 C994 0.930 . S
H986 C996 0.930 . S
H987 C999 0.929 1_554 S
H988 C1002 0.930 . S
H989 C1004 0.960 . S
H990 C1004 0.960 1_556 S
H991 C1004 0.960 . S
C992 H984 0.929 . S
C992 C993 1.377 . S
C992 C994 1.384 . S
C993 C992 1.377 . S
C993 C999 1.390 . S
C994 H985 0.930 . S
C994 C992 1.384 . S
C994 C995 1.372 1_556 S
C995 C994 1.372 1_554 S
C995 C996 1.400 . S
C995 C1000 1.490 . S
C996 H986 0.930 . S
C996 C995 1.400 . S
C996 C999 1.386 1_554 S
H997 C1013 0.930 . S
H998 C1014 0.931 . S
C999 H987 0.929 1_556 S
C999 C993 1.390 . S
C999 C996 1.386 1_556 S
C1000 C995 1.490 . S
C1000 C1002 1.395 . S
C1000 C1003 1.403 . S
H1001 C1007 0.930 . S
C1002 H988 0.930 . S
C1002 C1000 1.395 . S
C1002 C1005 1.403 . S
C1003 C1000 1.403 . S
C1003 C1004 1.524 . S
C1003 C1007 1.400 . S
C1004 H989 0.960 . S
C1004 H990 0.960 1_554 S
C1004 H991 0.960 . S
C1004 C1003 1.524 . S
C1005 C1002 1.403 . S
C1005 C1006 1.392 . S
C1005 C1009 1.495 . S
C1006 C1005 1.392 . S
C1006 C1007 1.385 . S
C1006 C1008 1.478 . S
C1007 H1001 0.930 . S
C1007 C1003 1.400 . S
C1007 C1006 1.385 . S
C1008 C1006 1.478 . S
C1008 C1010 1.381 . S
C1008 C1014 1.383 . S
C1009 C1005 1.495 . S
C1009 H1015 0.959 . S
C1009 H1016 0.961 . S
C1009 H1017 0.960 . S
C1010 C1008 1.381 . S
C1010 C1011 1.394 . S
C1010 H1018 0.930 . S
C1011 C1010 1.394 . S
C1011 C1012 1.383 . S
C1011 H1019 0.929 . S
C1012 C1011 1.383 . S
C1012 C1013 1.377 . S
C1013 H997 0.930 . S
C1013 C1012 1.377 . S
C1013 C1014 1.379 . S
C1014 H998 0.931 . S
C1014 C1008 1.383 . S
C1014 C1013 1.379 . S
H1015 C1009 0.959 . S
H1016 C1009 0.961 . S
H1017 C1009 0.960 . S
H1018 C1010 0.930 . S
H1019 C1011 0.929 . S
H1020 C1028 0.929 . S
H1021 C1030 0.930 . S
H1022 C1032 0.930 . S
H1023 C1035 0.929 . S
H1024 C1038 0.930 . S
H1025 C1040 0.960 . S
H1026 C1040 0.960 . S
H1027 C1040 0.960 . S
C1028 H1020 0.929 . S
C1028 C1029 1.377 . S
C1028 C1030 1.384 . S
C1029 C1028 1.377 . S
C1029 C1035 1.390 . S
C1030 H1021 0.930 . S
C1030 C1028 1.384 . S
C1030 C1031 1.372 . S
C1031 C1030 1.372 . S
C1031 C1032 1.400 . S
C1031 C1036 1.490 . S
C1032 H1022 0.930 . S
C1032 C1031 1.400 . S
C1032 C1035 1.386 . S
H1033 C1049 0.930 . S
H1034 C1050 0.931 . S
C1035 H1023 0.929 . S
C1035 C1029 1.390 . S
C1035 C1032 1.386 . S
C1036 C1031 1.490 . S
C1036 C1038 1.395 . S
C1036 C1039 1.403 . S
H1037 C1043 0.930 . S
C1038 H1024 0.930 . S
C1038 C1036 1.395 . S
C1038 C1041 1.403 . S
C1039 C1036 1.403 . S
C1039 C1040 1.524 . S
C1039 C1043 1.400 . S
C1040 H1025 0.960 . S
C1040 H1026 0.960 . S
C1040 H1027 0.960 . S
C1040 C1039 1.524 . S
C1041 C1038 1.403 . S
C1041 C1042 1.392 . S
C1041 C1045 1.495 . S
C1042 C1041 1.392 . S
C1042 C1043 1.385 . S
C1042 C1044 1.478 . S
C1043 H1037 0.930 . S
C1043 C1039 1.400 . S
C1043 C1042 1.385 . S
C1044 C1042 1.478 . S
C1044 C1046 1.381 . S
C1044 C1050 1.383 . S
C1045 C1041 1.495 . S
C1045 H1051 0.959 . S
C1045 H1052 0.961 . S
C1045 H1053 0.960 . S
C1046 C1044 1.381 . S
C1046 C1047 1.394 . S
C1046 H1054 0.930 . S
C1047 C1046 1.394 . S
C1047 C1048 1.383 . S
C1047 H1055 0.929 . S
C1048 C1047 1.383 . S
C1048 C1049 1.377 . S
C1049 H1033 0.930 . S
C1049 C1048 1.377 . S
C1049 C1050 1.379 . S
C1050 H1034 0.931 . S
C1050 C1044 1.383 . S
C1050 C1049 1.379 . S
H1051 C1045 0.959 . S
H1052 C1045 0.961 . S
H1053 C1045 0.960 . S
H1054 C1046 0.930 . S
H1055 C1047 0.929 . S
H1056 C1064 0.929 . S
H1057 C1066 0.930 . S
H1058 C1068 0.930 . S
H1059 C1071 0.929 . S
H1060 C1074 0.930 . S
H1061 C1076 0.960 . S
H1062 C1076 0.960 . S
H1063 C1076 0.960 . S
C1064 H1056 0.929 . S
C1064 C1065 1.377 . S
C1064 C1066 1.384 . S
C1065 C1064 1.377 . S
C1065 C1071 1.390 . S
C1066 H1057 0.930 . S
C1066 C1064 1.384 . S
C1066 C1067 1.372 . S
C1067 C1066 1.372 . S
C1067 C1068 1.400 . S
C1067 C1072 1.490 . S
C1068 H1058 0.930 . S
C1068 C1067 1.400 . S
C1068 C1071 1.386 . S
H1069 C1085 0.930 . S
H1070 C1086 0.931 . S
C1071 H1059 0.929 . S
C1071 C1065 1.390 . S
C1071 C1068 1.386 . S
C1072 C1067 1.490 . S
C1072 C1074 1.395 . S
C1072 C1075 1.403 . S
H1073 C1079 0.930 . S
C1074 H1060 0.930 . S
C1074 C1072 1.395 . S
C1074 C1077 1.403 . S
C1075 C1072 1.403 . S
C1075 C1076 1.524 . S
C1075 C1079 1.400 . S
C1076 H1061 0.960 . S
C1076 H1062 0.960 . S
C1076 H1063 0.960 . S
C1076 C1075 1.524 . S
C1077 C1074 1.403 . S
C1077 C1078 1.392 . S
C1077 C1081 1.495 . S
C1078 C1077 1.392 . S
C1078 C1079 1.385 . S
C1078 C1080 1.478 . S
C1079 H1073 0.930 . S
C1079 C1075 1.400 . S
C1079 C1078 1.385 . S
C1080 C1078 1.478 . S
C1080 C1082 1.381 . S
C1080 C1086 1.383 . S
C1081 C1077 1.495 . S
C1081 H1087 0.959 . S
C1081 H1088 0.961 . S
C1081 H1089 0.960 . S
C1082 C1080 1.381 . S
C1082 C1083 1.394 . S
C1082 H1090 0.930 . S
C1083 C1082 1.394 . S
C1083 C1084 1.383 . S
C1083 H1091 0.929 . S
C1084 C1083 1.383 . S
C1084 C1085 1.377 . S
C1085 H1069 0.930 . S
C1085 C1084 1.377 . S
C1085 C1086 1.379 . S
C1086 H1070 0.931 . S
C1086 C1080 1.383 . S
C1086 C1085 1.379 . S
H1087 C1081 0.959 . S
H1088 C1081 0.961 . S
H1089 C1081 0.960 . S
H1090 C1082 0.930 . S
H1091 C1083 0.929 . S
H1092 C1100 0.929 . S
H1093 C1102 0.930 . S
H1094 C1104 0.930 . S
H1095 C1107 0.929 . S
H1096 C1110 0.930 . S
H1097 C1112 0.960 . S
H1098 C1112 0.960 . S
H1099 C1112 0.960 . S
C1100 H1092 0.929 . S
C1100 C1101 1.377 . S
C1100 C1102 1.384 . S
C1101 C1100 1.377 . S
C1101 C1107 1.390 . S
C1102 H1093 0.930 . S
C1102 C1100 1.384 . S
C1102 C1103 1.372 . S
C1103 C1102 1.372 . S
C1103 C1104 1.400 . S
C1103 C1108 1.490 . S
C1104 H1094 0.930 . S
C1104 C1103 1.400 . S
C1104 C1107 1.386 . S
H1105 C1121 0.930 . S
H1106 C1122 0.931 . S
C1107 H1095 0.929 . S
C1107 C1101 1.390 . S
C1107 C1104 1.386 . S
C1108 C1103 1.490 . S
C1108 C1110 1.395 . S
C1108 C1111 1.403 . S
H1109 C1115 0.930 . S
C1110 H1096 0.930 . S
C1110 C1108 1.395 . S
C1110 C1113 1.403 . S
C1111 C1108 1.403 . S
C1111 C1112 1.524 . S
C1111 C1115 1.400 . S
C1112 H1097 0.960 . S
C1112 H1098 0.960 . S
C1112 H1099 0.960 . S
C1112 C1111 1.524 . S
C1113 C1110 1.403 . S
C1113 C1114 1.392 . S
C1113 C1117 1.495 . S
C1114 C1113 1.392 . S
C1114 C1115 1.385 . S
C1114 C1116 1.478 . S
C1115 H1109 0.930 . S
C1115 C1111 1.400 . S
C1115 C1114 1.385 . S
C1116 C1114 1.478 . S
C1116 C1118 1.381 . S
C1116 C1122 1.383 . S
C1117 C1113 1.495 . S
C1117 H1123 0.959 . S
C1117 H1124 0.961 . S
C1117 H1125 0.960 . S
C1118 C1116 1.381 . S
C1118 C1119 1.394 . S
C1118 H1126 0.930 . S
C1119 C1118 1.394 . S
C1119 C1120 1.383 . S
C1119 H1127 0.929 . S
C1120 C1119 1.383 . S
C1120 C1121 1.377 . S
C1121 H1105 0.930 . S
C1121 C1120 1.377 . S
C1121 C1122 1.379 . S
C1122 H1106 0.931 . S
C1122 C1116 1.383 . S
C1122 C1121 1.379 . S
H1123 C1117 0.959 . S
H1124 C1117 0.961 . S
H1125 C1117 0.960 . S
H1126 C1118 0.930 . S
H1127 C1119 0.929 . S
H1128 C1136 0.929 . S
H1129 C1138 0.930 . S
H1130 C1140 0.930 . S
H1131 C1143 0.929 . S
H1132 C1146 0.930 . S
H1133 C1148 0.960 . S
H1134 C1148 0.960 . S
H1135 C1148 0.963 . S
C1136 H1128 0.929 . S
C1136 C1137 1.377 . S
C1136 C1138 1.384 . S
C1137 C1136 1.377 . S
C1137 C1143 1.390 . S
C1138 H1129 0.930 . S
C1138 C1136 1.384 . S
C1138 C1139 1.372 . S
C1139 C1138 1.372 . S
C1139 C1140 1.400 . S
C1139 C1144 1.490 . S
C1140 H1130 0.930 . S
C1140 C1139 1.400 . S
C1140 C1143 1.386 . S
H1141 C1157 0.930 . S
H1142 C1158 0.931 . S
C1143 H1131 0.929 . S
C1143 C1137 1.390 . S
C1143 C1140 1.386 . S
C1144 C1139 1.490 . S
C1144 C1146 1.395 . S
C1144 C1147 1.403 . S
H1145 C1151 0.930 . S
C1146 H1132 0.930 . S
C1146 C1144 1.395 . S
C1146 C1149 1.403 . S
C1147 C1144 1.403 . S
C1147 C1148 1.524 1_554 S
C1147 C1151 1.400 . S
C1148 H1133 0.960 . S
C1148 H1134 0.960 . S
C1148 H1135 0.963 . S
C1148 C1147 1.524 1_556 S
C1149 C1146 1.403 . S
C1149 C1150 1.392 . S
C1149 C1153 1.495 . S
C1150 C1149 1.392 . S
C1150 C1151 1.385 . S
C1150 C1152 1.478 . S
C1151 H1145 0.930 . S
C1151 C1147 1.400 . S
C1151 C1150 1.385 . S
C1152 C1150 1.478 . S
C1152 C1154 1.381 . S
C1152 C1158 1.383 . S
C1153 C1149 1.495 . S
C1153 H1159 0.959 . S
C1153 H1160 0.961 . S
C1153 H1161 0.960 . S
C1154 C1152 1.381 . S
C1154 C1155 1.394 . S
C1154 H1162 0.930 . S
C1155 C1154 1.394 . S
C1155 C1156 1.383 . S
C1155 H1163 0.929 . S
C1156 C1155 1.383 . S
C1156 C1157 1.377 . S
C1157 H1141 0.930 . S
C1157 C1156 1.377 . S
C1157 C1158 1.379 . S
C1158 H1142 0.931 . S
C1158 C1152 1.383 . S
C1158 C1157 1.379 . S
H1159 C1153 0.959 . S
H1160 C1153 0.961 . S
H1161 C1153 0.960 . S
H1162 C1154 0.930 . S
H1163 C1155 0.929 . S
H1164 C1172 0.929 . S
H1165 C1174 0.930 . S
H1166 C1176 0.930 . S
H1167 C1179 0.929 . S
H1168 C1182 0.930 . S
H1169 C1184 0.960 . S
H1170 C1184 0.960 . S
H1171 C1184 0.960 . S
C1172 H1164 0.929 . S
C1172 C1173 1.377 . S
C1172 C1174 1.384 . S
C1173 C1172 1.377 . S
C1173 C1179 1.390 . S
C1174 H1165 0.930 . S
C1174 C1172 1.384 . S
C1174 C1175 1.372 . S
C1175 C1174 1.372 . S
C1175 C1176 1.400 . S
C1175 C1180 1.490 . S
C1176 H1166 0.930 . S
C1176 C1175 1.400 . S
C1176 C1179 1.386 . S
H1177 C1193 0.930 . S
H1178 C1194 0.931 . S
C1179 H1167 0.929 . S
C1179 C1173 1.390 . S
C1179 C1176 1.386 . S
C1180 C1175 1.490 . S
C1180 C1182 1.395 . S
C1180 C1183 1.403 . S
H1181 C1187 0.930 . S
C1182 H1168 0.930 . S
C1182 C1180 1.395 . S
C1182 C1185 1.403 . S
C1183 C1180 1.403 . S
C1183 C1184 1.524 . S
C1183 C1187 1.400 . S
C1184 H1169 0.960 . S
C1184 H1170 0.960 . S
C1184 H1171 0.960 . S
C1184 C1183 1.524 . S
C1185 C1182 1.403 . S
C1185 C1186 1.392 . S
C1185 C1189 1.495 . S
C1186 C1185 1.392 . S
C1186 C1187 1.385 . S
C1186 C1188 1.478 . S
C1187 H1181 0.930 . S
C1187 C1183 1.400 . S
C1187 C1186 1.385 . S
C1188 C1186 1.478 . S
C1188 C1190 1.381 . S
C1188 C1194 1.383 . S
C1189 C1185 1.495 . S
C1189 H1195 0.959 . S
C1189 H1196 0.961 . S
C1189 H1197 0.960 . S
C1190 C1188 1.381 . S
C1190 C1191 1.394 . S
C1190 H1198 0.930 . S
C1191 C1190 1.394 . S
C1191 C1192 1.383 . S
C1191 H1199 0.929 . S
C1192 C1191 1.383 . S
C1192 C1193 1.377 . S
C1193 H1177 0.930 . S
C1193 C1192 1.377 . S
C1193 C1194 1.379 . S
C1194 H1178 0.931 . S
C1194 C1188 1.383 . S
C1194 C1193 1.379 . S
H1195 C1189 0.959 . S
H1196 C1189 0.961 . S
H1197 C1189 0.960 . S
H1198 C1190 0.930 . S
H1199 C1191 0.929 . S
H1200 C1208 0.929 . S
H1201 C1210 0.930 . S
H1202 C1212 0.930 . S
H1203 C1215 0.929 . S
H1204 C1218 0.930 . S
H1205 C1220 0.960 . S
H1206 C1220 0.960 . S
H1207 C1220 0.960 . S
C1208 H1200 0.929 . S
C1208 C1209 1.377 . S
C1208 C1210 1.384 . S
C1209 C1208 1.377 . S
C1209 C1215 1.390 . S
C1210 H1201 0.930 . S
C1210 C1208 1.384 . S
C1210 C1211 1.372 . S
C1211 C1210 1.372 . S
C1211 C1212 1.400 . S
C1211 C1216 1.490 . S
C1212 H1202 0.930 . S
C1212 C1211 1.400 . S
C1212 C1215 1.386 . S
H1213 C1229 0.930 . S
H1214 C1230 0.931 . S
C1215 H1203 0.929 . S
C1215 C1209 1.390 . S
C1215 C1212 1.386 . S
C1216 C1211 1.490 . S
C1216 C1218 1.395 . S
C1216 C1219 1.403 . S
H1217 C1223 0.930 . S
C1218 H1204 0.930 . S
C1218 C1216 1.395 . S
C1218 C1221 1.403 . S
C1219 C1216 1.403 . S
C1219 C1220 1.524 . S
C1219 C1223 1.400 . S
C1220 H1205 0.960 . S
C1220 H1206 0.960 . S
C1220 H1207 0.960 . S
C1220 C1219 1.524 . S
C1221 C1218 1.403 . S
C1221 C1222 1.392 . S
C1221 C1225 1.495 . S
C1222 C1221 1.392 . S
C1222 C1223 1.385 . S
C1222 C1224 1.478 . S
C1223 H1217 0.930 . S
C1223 C1219 1.400 . S
C1223 C1222 1.385 . S
C1224 C1222 1.478 . S
C1224 C1226 1.381 . S
C1224 C1230 1.383 . S
C1225 C1221 1.495 . S
C1225 H1231 0.959 . S
C1225 H1232 0.961 . S
C1225 H1233 0.960 . S
C1226 C1224 1.381 . S
C1226 C1227 1.394 . S
C1226 H1234 0.930 . S
C1227 C1226 1.394 . S
C1227 C1228 1.383 . S
C1227 H1235 0.929 . S
C1228 C1227 1.383 . S
C1228 C1229 1.377 . S
C1229 H1213 0.930 . S
C1229 C1228 1.377 . S
C1229 C1230 1.379 . S
C1230 H1214 0.931 . S
C1230 C1224 1.383 . S
C1230 C1229 1.379 . S
H1231 C1225 0.959 . S
H1232 C1225 0.961 . S
H1233 C1225 0.960 . S
H1234 C1226 0.930 . S
H1235 C1227 0.929 . S
H1236 C1244 0.929 . S
H1237 C1246 0.930 . S
H1238 C1248 0.930 . S
H1239 C1251 0.929 . S
H1240 C1254 0.930 . S
H1241 C1256 0.960 . S
H1242 C1256 0.960 . S
H1243 C1256 0.960 . S
C1244 H1236 0.929 . S
C1244 C1245 1.377 . S
C1244 C1246 1.384 . S
C1245 C1244 1.377 . S
C1245 C1251 1.390 . S
C1246 H1237 0.930 . S
C1246 C1244 1.384 . S
C1246 C1247 1.372 . S
C1247 C1246 1.372 . S
C1247 C1248 1.400 . S
C1247 C1252 1.490 . S
C1248 H1238 0.930 . S
C1248 C1247 1.400 . S
C1248 C1251 1.386 . S
H1249 C1265 0.930 . S
H1250 C1266 0.931 . S
C1251 H1239 0.929 . S
C1251 C1245 1.390 . S
C1251 C1248 1.386 . S
C1252 C1247 1.490 . S
C1252 C1254 1.395 . S
C1252 C1255 1.403 . S
H1253 C1259 0.930 . S
C1254 H1240 0.930 . S
C1254 C1252 1.395 . S
C1254 C1257 1.403 . S
C1255 C1252 1.403 . S
C1255 C1256 1.524 . S
C1255 C1259 1.400 . S
C1256 H1241 0.960 . S
C1256 H1242 0.960 . S
C1256 H1243 0.960 . S
C1256 C1255 1.524 . S
C1257 C1254 1.403 . S
C1257 C1258 1.392 . S
C1257 C1261 1.495 . S
C1258 C1257 1.392 . S
C1258 C1259 1.385 . S
C1258 C1260 1.478 . S
C1259 H1253 0.930 . S
C1259 C1255 1.400 . S
C1259 C1258 1.385 . S
C1260 C1258 1.478 . S
C1260 C1262 1.381 . S
C1260 C1266 1.383 . S
C1261 C1257 1.495 . S
C1261 H1267 0.959 . S
C1261 H1268 0.961 . S
C1261 H1269 0.960 . S
C1262 C1260 1.381 . S
C1262 C1263 1.394 . S
C1262 H1270 0.930 . S
C1263 C1262 1.394 . S
C1263 C1264 1.383 . S
C1263 H1271 0.929 . S
C1264 C1263 1.383 . S
C1264 C1265 1.377 . S
C1265 H1249 0.930 . S
C1265 C1264 1.377 . S
C1265 C1266 1.379 . S
C1266 H1250 0.931 . S
C1266 C1260 1.383 . S
C1266 C1265 1.379 . S
H1267 C1261 0.959 . S
H1268 C1261 0.961 . S
H1269 C1261 0.960 . S
H1270 C1262 0.930 . S
H1271 C1263 0.929 . S
H1272 C1280 0.929 . S
H1273 C1282 0.930 . S
H1274 C1284 0.930 . S
H1275 C1287 0.929 . S
H1276 C1290 0.930 . S
H1277 C1292 0.960 . S
H1278 C1292 0.960 . S
H1279 C1292 0.960 . S
C1280 H1272 0.929 . S
C1280 C1281 1.377 . S
C1280 C1282 1.384 . S
C1281 C1280 1.377 . S
C1281 C1287 1.390 . S
C1282 H1273 0.930 . S
C1282 C1280 1.384 . S
C1282 C1283 1.372 . S
C1283 C1282 1.372 . S
C1283 C1284 1.400 . S
C1283 C1288 1.490 . S
C1284 H1274 0.930 . S
C1284 C1283 1.400 . S
C1284 C1287 1.386 . S
H1285 C1301 0.930 . S
H1286 C1302 0.931 . S
C1287 H1275 0.929 . S
C1287 C1281 1.390 . S
C1287 C1284 1.386 . S
C1288 C1283 1.490 . S
C1288 C1290 1.395 . S
C1288 C1291 1.403 . S
H1289 C1295 0.930 . S
C1290 H1276 0.930 . S
C1290 C1288 1.395 . S
C1290 C1293 1.403 . S
C1291 C1288 1.403 . S
C1291 C1292 1.524 . S
C1291 C1295 1.400 . S
C1292 H1277 0.960 . S
C1292 H1278 0.960 . S
C1292 H1279 0.960 . S
C1292 C1291 1.524 . S
C1293 C1290 1.403 . S
C1293 C1294 1.392 . S
C1293 C1297 1.495 . S
C1294 C1293 1.392 . S
C1294 C1295 1.385 . S
C1294 C1296 1.478 . S
C1295 H1289 0.930 . S
C1295 C1291 1.400 . S
C1295 C1294 1.385 . S
C1296 C1294 1.478 . S
C1296 C1298 1.381 . S
C1296 C1302 1.383 . S
C1297 C1293 1.495 . S
C1297 H1303 0.959 . S
C1297 H1304 0.961 . S
C1297 H1305 0.960 . S
C1298 C1296 1.381 . S
C1298 C1299 1.394 . S
C1298 H1306 0.930 . S
C1299 C1298 1.394 . S
C1299 C1300 1.383 . S
C1299 H1307 0.929 . S
C1300 C1299 1.383 . S
C1300 C1301 1.377 . S
C1301 H1285 0.930 . S
C1301 C1300 1.377 . S
C1301 C1302 1.379 . S
C1302 H1286 0.931 . S
C1302 C1296 1.383 . S
C1302 C1301 1.379 . S
H1303 C1297 0.959 . S
H1304 C1297 0.961 . S
H1305 C1297 0.960 . S
H1306 C1298 0.930 . S
H1307 C1299 0.929 . S
H1308 C1316 0.929 . S
H1309 C1318 0.930 . S
H1310 C1320 0.930 . S
H1311 C1323 0.929 . S
H1312 C1326 0.930 . S
H1313 C1328 0.960 . S
H1314 C1328 0.960 . S
H1315 C1328 0.960 . S
C1316 H1308 0.929 . S
C1316 C1317 1.377 . S
C1316 C1318 1.384 . S
C1317 C1316 1.377 . S
C1317 C1323 1.390 . S
C1318 H1309 0.930 . S
C1318 C1316 1.384 . S
C1318 C1319 1.372 . S
C1319 C1318 1.372 . S
C1319 C1320 1.400 . S
C1319 C1324 1.490 . S
C1320 H1310 0.930 . S
C1320 C1319 1.400 . S
C1320 C1323 1.386 . S
H1321 C1337 0.930 . S
H1322 C1338 0.931 . S
C1323 H1311 0.929 . S
C1323 C1317 1.390 . S
C1323 C1320 1.386 . S
C1324 C1319 1.490 . S
C1324 C1326 1.395 . S
C1324 C1327 1.403 . S
H1325 C1331 0.930 . S
C1326 H1312 0.930 . S
C1326 C1324 1.395 . S
C1326 C1329 1.403 . S
C1327 C1324 1.403 . S
C1327 C1328 1.524 . S
C1327 C1331 1.400 . S
C1328 H1313 0.960 . S
C1328 H1314 0.960 . S
C1328 H1315 0.960 . S
C1328 C1327 1.524 . S
C1329 C1326 1.403 . S
C1329 C1330 1.392 . S
C1329 C1333 1.495 . S
C1330 C1329 1.392 . S
C1330 C1331 1.385 . S
C1330 C1332 1.478 . S
C1331 H1325 0.930 . S
C1331 C1327 1.400 . S
C1331 C1330 1.385 . S
C1332 C1330 1.478 . S
C1332 C1334 1.381 . S
C1332 C1338 1.383 1_556 S
C1333 C1329 1.495 . S
C1333 H1339 0.959 . S
C1333 H1340 0.961 . S
C1333 H1341 0.960 . S
C1334 C1332 1.381 . S
C1334 C1335 1.394 . S
C1334 H1342 0.930 . S
C1335 C1334 1.394 . S
C1335 C1336 1.383 . S
C1335 H1343 0.929 . S
C1336 C1335 1.383 . S
C1336 C1337 1.377 1_556 S
C1337 H1321 0.930 . S
C1337 C1336 1.377 1_554 S
C1337 C1338 1.379 . S
C1338 H1322 0.931 . S
C1338 C1332 1.383 1_554 S
C1338 C1337 1.379 . S
H1339 C1333 0.959 . S
H1340 C1333 0.961 . S
H1341 C1333 0.960 . S
H1342 C1334 0.930 . S
H1343 C1335 0.929 . S
H1344 C1352 0.929 . S
H1345 C1354 0.930 . S
H1346 C1356 0.930 . S
H1347 C1359 0.929 . S
H1348 C1362 0.930 . S
H1349 C1364 0.960 . S
H1350 C1364 0.960 . S
H1351 C1364 0.960 . S
C1352 H1344 0.929 . S
C1352 C1353 1.377 . S
C1352 C1354 1.384 . S
C1353 C1352 1.377 . S
C1353 C1359 1.390 . S
C1354 H1345 0.930 . S
C1354 C1352 1.384 . S
C1354 C1355 1.372 . S
C1355 C1354 1.372 . S
C1355 C1356 1.400 . S
C1355 C1360 1.490 . S
C1356 H1346 0.930 . S
C1356 C1355 1.400 . S
C1356 C1359 1.386 . S
H1357 C1373 0.930 . S
H1358 C1374 0.931 . S
C1359 H1347 0.929 . S
C1359 C1353 1.390 . S
C1359 C1356 1.386 . S
C1360 C1355 1.490 . S
C1360 C1362 1.395 . S
C1360 C1363 1.403 . S
H1361 C1367 0.930 . S
C1362 H1348 0.930 . S
C1362 C1360 1.395 . S
C1362 C1365 1.403 . S
C1363 C1360 1.403 . S
C1363 C1364 1.524 . S
C1363 C1367 1.400 . S
C1364 H1349 0.960 . S
C1364 H1350 0.960 . S
C1364 H1351 0.960 . S
C1364 C1363 1.524 . S
C1365 C1362 1.403 . S
C1365 C1366 1.392 . S
C1365 C1369 1.495 . S
C1366 C1365 1.392 . S
C1366 C1367 1.385 . S
C1366 C1368 1.478 . S
C1367 H1361 0.930 . S
C1367 C1363 1.400 . S
C1367 C1366 1.385 . S
C1368 C1366 1.478 . S
C1368 C1370 1.381 . S
C1368 C1374 1.383 . S
C1369 C1365 1.495 . S
C1369 H1375 0.959 . S
C1369 H1376 0.961 . S
C1369 H1377 0.960 . S
C1370 C1368 1.381 . S
C1370 C1371 1.394 . S
C1370 H1378 0.930 . S
C1371 C1370 1.394 . S
C1371 C1372 1.383 . S
C1371 H1379 0.929 . S
C1372 C1371 1.383 . S
C1372 C1373 1.377 . S
C1373 H1357 0.930 . S
C1373 C1372 1.377 . S
C1373 C1374 1.379 . S
C1374 H1358 0.931 . S
C1374 C1368 1.383 . S
C1374 C1373 1.379 . S
H1375 C1369 0.959 . S
H1376 C1369 0.961 . S
H1377 C1369 0.960 . S
H1378 C1370 0.930 . S
H1379 C1371 0.929 . S
H1380 C1388 0.929 . S
H1381 C1390 0.930 . S
H1382 C1392 0.930 . S
H1383 C1395 0.929 . S
H1384 C1398 0.930 . S
H1385 C1400 0.960 . S
H1386 C1400 0.960 . S
H1387 C1400 0.960 . S
C1388 H1380 0.929 . S
C1388 C1389 1.377 . S
C1388 C1390 1.384 . S
C1389 C1388 1.377 . S
C1389 C1395 1.390 . S
C1390 H1381 0.930 . S
C1390 C1388 1.384 . S
C1390 C1391 1.372 . S
C1391 C1390 1.372 . S
C1391 C1392 1.400 . S
C1391 C1396 1.490 . S
C1392 H1382 0.930 . S
C1392 C1391 1.400 . S
C1392 C1395 1.386 . S
H1393 C1409 0.930 . S
H1394 C1410 0.931 . S
C1395 H1383 0.929 . S
C1395 C1389 1.390 . S
C1395 C1392 1.386 . S
C1396 C1391 1.490 . S
C1396 C1398 1.395 . S
C1396 C1399 1.403 . S
H1397 C1403 0.930 . S
C1398 H1384 0.930 . S
C1398 C1396 1.395 . S
C1398 C1401 1.403 . S
C1399 C1396 1.403 . S
C1399 C1400 1.524 . S
C1399 C1403 1.400 . S
C1400 H1385 0.960 . S
C1400 H1386 0.960 . S
C1400 H1387 0.960 . S
C1400 C1399 1.524 . S
C1401 C1398 1.403 . S
C1401 C1402 1.392 . S
C1401 C1405 1.495 . S
C1402 C1401 1.392 . S
C1402 C1403 1.385 . S
C1402 C1404 1.478 . S
C1403 H1397 0.930 . S
C1403 C1399 1.400 . S
C1403 C1402 1.385 . S
C1404 C1402 1.478 . S
C1404 C1406 1.381 . S
C1404 C1410 1.383 . S
C1405 C1401 1.495 . S
C1405 H1411 0.959 . S
C1405 H1412 0.961 . S
C1405 H1413 0.960 . S
C1406 C1404 1.381 . S
C1406 C1407 1.394 . S
C1406 H1414 0.930 . S
C1407 C1406 1.394 . S
C1407 C1408 1.383 . S
C1407 H1415 0.929 . S
C1408 C1407 1.383 . S
C1408 C1409 1.377 . S
C1409 H1393 0.930 . S
C1409 C1408 1.377 . S
C1409 C1410 1.379 . S
C1410 H1394 0.931 . S
C1410 C1404 1.383 . S
C1410 C1409 1.379 . S
H1411 C1405 0.959 . S
H1412 C1405 0.961 . S
H1413 C1405 0.960 . S
H1414 C1406 0.930 . S
H1415 C1407 0.929 . S
H1416 C1424 0.929 . S
H1417 C1426 0.930 . S
H1418 C1428 0.930 . S
H1419 C1431 0.929 . S
H1420 C1434 0.930 . S
H1421 C1436 0.960 . S
H1422 C1436 0.960 . S
H1423 C1436 0.960 . S
C1424 H1416 0.929 . S
C1424 C1425 1.377 . S
C1424 C1426 1.384 . S
C1425 C1424 1.377 . S
C1425 C1431 1.390 . S
C1426 H1417 0.930 . S
C1426 C1424 1.384 . S
C1426 C1427 1.372 . S
C1427 C1426 1.372 . S
C1427 C1428 1.400 . S
C1427 C1432 1.490 . S
C1428 H1418 0.930 . S
C1428 C1427 1.400 . S
C1428 C1431 1.386 . S
H1429 C1445 0.930 . S
H1430 C1446 0.931 . S
C1431 H1419 0.929 . S
C1431 C1425 1.390 . S
C1431 C1428 1.386 . S
C1432 C1427 1.490 . S
C1432 C1434 1.395 . S
C1432 C1435 1.403 . S
H1433 C1439 0.930 . S
C1434 H1420 0.930 . S
C1434 C1432 1.395 . S
C1434 C1437 1.403 . S
C1435 C1432 1.403 . S
C1435 C1436 1.524 . S
C1435 C1439 1.400 . S
C1436 H1421 0.960 . S
C1436 H1422 0.960 . S
C1436 H1423 0.960 . S
C1436 C1435 1.524 . S
C1437 C1434 1.403 . S
C1437 C1438 1.392 . S
C1437 C1441 1.495 . S
C1438 C1437 1.392 . S
C1438 C1439 1.385 . S
C1438 C1440 1.478 . S
C1439 H1433 0.930 . S
C1439 C1435 1.400 . S
C1439 C1438 1.385 . S
C1440 C1438 1.478 . S
C1440 C1442 1.381 . S
C1440 C1446 1.383 . S
C1441 C1437 1.495 . S
C1441 H1447 0.959 . S
C1441 H1448 0.961 . S
C1441 H1449 0.960 . S
C1442 C1440 1.381 . S
C1442 C1443 1.394 . S
C1442 H1450 0.930 . S
C1443 C1442 1.394 . S
C1443 C1444 1.383 . S
C1443 H1451 0.929 . S
C1444 C1443 1.383 . S
C1444 C1445 1.377 . S
C1445 H1429 0.930 . S
C1445 C1444 1.377 . S
C1445 C1446 1.379 . S
C1446 H1430 0.931 . S
C1446 C1440 1.383 . S
C1446 C1445 1.379 . S
H1447 C1441 0.959 . S
H1448 C1441 0.961 . S
H1449 C1441 0.960 . S
H1450 C1442 0.930 . S
H1451 C1443 0.929 . S
H1452 C1460 0.929 . S
H1453 C1462 0.930 . S
H1454 C1464 0.930 . S
H1455 C1467 0.929 . S
H1456 C1470 0.930 . S
H1457 C1472 0.960 . S
H1458 C1472 0.960 . S
H1459 C1472 0.960 . S
C1460 H1452 0.929 . S
C1460 C1461 1.377 . S
C1460 C1462 1.384 . S
C1461 C1460 1.377 . S
C1461 C1467 1.390 . S
C1462 H1453 0.930 . S
C1462 C1460 1.384 . S
C1462 C1463 1.372 . S
C1463 C1462 1.372 . S
C1463 C1464 1.400 . S
C1463 C1468 1.490 . S
C1464 H1454 0.930 . S
C1464 C1463 1.400 . S
C1464 C1467 1.386 . S
H1465 C1481 0.930 . S
H1466 C1482 0.931 . S
C1467 H1455 0.929 . S
C1467 C1461 1.390 . S
C1467 C1464 1.386 . S
C1468 C1463 1.490 . S
C1468 C1470 1.395 . S
C1468 C1471 1.403 . S
H1469 C1475 0.930 . S
C1470 H1456 0.930 . S
C1470 C1468 1.395 . S
C1470 C1473 1.403 . S
C1471 C1468 1.403 . S
C1471 C1472 1.524 . S
C1471 C1475 1.400 . S
C1472 H1457 0.960 . S
C1472 H1458 0.960 . S
C1472 H1459 0.960 . S
C1472 C1471 1.524 . S
C1473 C1470 1.403 . S
C1473 C1474 1.392 . S
C1473 C1477 1.495 . S
C1474 C1473 1.392 . S
C1474 C1475 1.385 . S
C1474 C1476 1.478 . S
C1475 H1469 0.930 . S
C1475 C1471 1.400 . S
C1475 C1474 1.385 . S
C1476 C1474 1.478 . S
C1476 C1478 1.381 . S
C1476 C1482 1.383 . S
C1477 C1473 1.495 . S
C1477 H1483 0.959 . S
C1477 H1484 0.961 . S
C1477 H1485 0.960 . S
C1478 C1476 1.381 . S
C1478 C1479 1.394 . S
C1478 H1486 0.930 . S
C1479 C1478 1.394 . S
C1479 C1480 1.383 . S
C1479 H1487 0.929 . S
C1480 C1479 1.383 . S
C1480 C1481 1.377 . S
C1481 H1465 0.930 . S
C1481 C1480 1.377 . S
C1481 C1482 1.379 . S
C1482 H1466 0.931 . S
C1482 C1476 1.383 . S
C1482 C1481 1.379 . S
H1483 C1477 0.959 . S
H1484 C1477 0.961 . S
H1485 C1477 0.960 . S
H1486 C1478 0.930 . S
H1487 C1479 0.929 . S
H1488 C1496 0.929 . S
H1489 C1498 0.930 . S
H1490 C1500 0.930 . S
H1491 C1503 0.929 . S
H1492 C1506 0.930 . S
H1493 C1508 0.960 . S
H1494 C1508 0.960 . S
H1495 C1508 0.960 1_556 S
C1496 H1488 0.929 . S
C1496 C1497 1.377 . S
C1496 C1498 1.384 . S
C1497 C1496 1.377 . S
C1497 C1503 1.390 . S
C1498 H1489 0.930 . S
C1498 C1496 1.384 . S
C1498 C1499 1.372 . S
C1499 C1498 1.372 . S
C1499 C1500 1.400 . S
C1499 C1504 1.490 . S
C1500 H1490 0.930 . S
C1500 C1499 1.400 . S
C1500 C1503 1.386 . S
H1501 C1517 0.930 . S
H1502 C1518 0.931 1_556 S
C1503 H1491 0.929 . S
C1503 C1497 1.390 . S
C1503 C1500 1.386 . S
C1504 C1499 1.490 . S
C1504 C1506 1.395 . S
C1504 C1507 1.403 . S
H1505 C1511 0.930 1_554 S
C1506 H1492 0.930 . S
C1506 C1504 1.395 . S
C1506 C1509 1.403 . S
C1507 C1504 1.403 . S
C1507 C1508 1.524 1_556 S
C1507 C1511 1.400 . S
C1508 H1493 0.960 . S
C1508 H1494 0.960 . S
C1508 H1495 0.960 1_554 S
C1508 C1507 1.524 1_554 S
C1509 C1506 1.403 . S
C1509 C1510 1.392 . S
C1509 C1513 1.495 . S
C1510 C1509 1.392 . S
C1510 C1511 1.385 . S
C1510 C1512 1.478 . S
C1511 H1505 0.930 1_556 S
C1511 C1507 1.400 . S
C1511 C1510 1.385 . S
C1512 C1510 1.478 . S
C1512 C1514 1.381 . S
C1512 C1518 1.383 1_556 S
C1513 C1509 1.495 . S
C1513 H1519 0.959 . S
C1513 H1520 0.961 . S
C1513 H1521 0.960 . S
C1514 C1512 1.381 . S
C1514 C1515 1.394 1_556 S
C1514 H1522 0.930 . S
C1515 C1514 1.394 1_554 S
C1515 C1516 1.383 . S
C1515 H1523 0.929 . S
C1516 C1515 1.383 . S
C1516 C1517 1.377 . S
C1517 H1501 0.930 . S
C1517 C1516 1.377 . S
C1517 C1518 1.379 . S
C1518 H1502 0.931 1_554 S
C1518 C1512 1.383 1_554 S
C1518 C1517 1.379 . S
H1519 C1513 0.959 . S
H1520 C1513 0.961 . S
H1521 C1513 0.960 . S
H1522 C1514 0.930 . S
H1523 C1515 0.929 . S
H1524 C1532 0.929 . S
H1525 C1534 0.930 . S
H1526 C1536 0.930 . S
H1527 C1539 0.929 . S
H1528 C1542 0.930 . S
H1529 C1544 0.960 . S
H1530 C1544 0.960 . S
H1531 C1544 0.960 . S
C1532 H1524 0.929 . S
C1532 C1533 1.377 . S
C1532 C1534 1.384 . S
C1533 C1532 1.377 . S
C1533 C1539 1.390 . S
C1534 H1525 0.930 . S
C1534 C1532 1.384 . S
C1534 C1535 1.372 . S
C1535 C1534 1.372 . S
C1535 C1536 1.400 . S
C1535 C1540 1.490 . S
C1536 H1526 0.930 . S
C1536 C1535 1.400 . S
C1536 C1539 1.386 . S
H1537 C1553 0.930 . S
H1538 C1554 0.931 . S
C1539 H1527 0.929 . S
C1539 C1533 1.390 . S
C1539 C1536 1.386 . S
C1540 C1535 1.490 . S
C1540 C1542 1.395 . S
C1540 C1543 1.403 . S
H1541 C1547 0.930 . S
C1542 H1528 0.930 . S
C1542 C1540 1.395 . S
C1542 C1545 1.403 . S
C1543 C1540 1.403 . S
C1543 C1544 1.524 . S
C1543 C1547 1.400 . S
C1544 H1529 0.960 . S
C1544 H1530 0.960 . S
C1544 H1531 0.960 . S
C1544 C1543 1.524 . S
C1545 C1542 1.403 . S
C1545 C1546 1.392 . S
C1545 C1549 1.495 1_554 S
C1546 C1545 1.392 . S
C1546 C1547 1.385 . S
C1546 C1548 1.478 . S
C1547 H1541 0.930 . S
C1547 C1543 1.400 . S
C1547 C1546 1.385 . S
C1548 C1546 1.478 . S
C1548 C1550 1.381 . S
C1548 C1554 1.383 1_554 S
C1549 C1545 1.495 1_556 S
C1549 H1555 0.959 . S
C1549 H1556 0.961 . S
C1549 H1557 0.960 . S
C1550 C1548 1.381 . S
C1550 C1551 1.394 1_554 S
C1550 H1558 0.930 . S
C1551 C1550 1.394 1_556 S
C1551 C1552 1.383 . S
C1551 H1559 0.929 . S
C1552 C1551 1.383 . S
C1552 C1553 1.377 . S
C1553 H1537 0.930 . S
C1553 C1552 1.377 . S
C1553 C1554 1.379 . S
C1554 H1538 0.931 . S
C1554 C1548 1.383 1_556 S
C1554 C1553 1.379 . S
H1555 C1549 0.959 . S
H1556 C1549 0.961 . S
H1557 C1549 0.960 . S
H1558 C1550 0.930 . S
H1559 C1551 0.929 . S
C273 C10 1.290 . S
C292 C21 1.324 . S
C309 C30 1.290 1_556 S
C328 C29 1.323 . S
C345 C65 1.318 . S
C364 C54 1.269 . S
C381 C74 1.289 . S
C400 C73 1.325 . S
C417 C103 1.318 . S
C436 C106 1.269 . S
C453 C118 1.289 . S
C472 C117 1.334 . S
C489 C140 1.298 1_554 S
C508 C139 1.299 . S
C525 C161 1.318 . S
C544 C162 1.265 . S
C561 C183 1.316 1_556 S
C580 C184 1.279 . S
C597 C205 1.314 . S
C616 C206 1.298 . S
C633 C228 1.289 . S
C652 C227 1.324 . S
C669 C249 1.316 . S
C688 C250 1.282 . S
C705 C8 1.386 . S
C724 C172 1.404 . S
C741 C194 1.392 . S
C760 C40 1.374 . S
C777 C216 1.387 . S
C796 C52 1.401 . S
C813 C84 1.386 . S
C832 C238 1.405 . S
C849 C98 1.386 . S
C868 C260 1.399 . S
C885 C128 1.392 . S
C904 C150 1.372 . S
C921 C18 1.029 . S
C940 C230 1.024 . S
C957 C32 1.021 . S
C976 C252 1.047 . S
C993 C142 1.025 . S
C1012 C62 1.042 . S
C1029 C76 1.026 . S
C1048 C164 1.010 . S
C1065 C96 1.031 . S
C1084 C186 1.002 . S
C1101 C208 1.030 . S
C1120 C120 1.000 . S
C1137 C15 1.037 . S
C1156 C197 1.026 . S
C1173 C219 1.036 . S
C1192 C43 1.024 . S
C1209 C241 1.043 . S
C1228 C59 1.047 . S
C1245 C87 1.038 . S
C1264 C263 1.038 . S
C1281 C153 1.040 . S
C1300 C95 1.051 . S
C1317 C131 1.038 . S
C1336 C175 1.039 . S
C1353 C7 1.215 . S
C1372 C235 1.173 . S
C1389 C37 1.209 . S
C1408 C257 1.198 . S
C1425 C51 1.216 . S
C1444 C147 1.170 . S
C1461 C169 1.212 . S
C1480 C81 1.187 . S
C1497 C109 1.204 . S
C1516 C191 1.218 . S
C1533 C213 1.208 . S
C1552 C125 1.208 . S
