# Generated by pormake.
# Topology utg, (3)-cn, num edge types: 1
# Building blocks:
#     Node 0, Type 0, BuildingBlock: WUSLED_clean_sbu_0, # of connection points: 3
#     Node 1, Type 0, BuildingBlock: WUSLED_clean_sbu_0, # of connection points: 3
#     Node 2, Type 0, BuildingBlock: WUSLED_clean_sbu_0, # of connection points: 3
#     Node 3, Type 0, BuildingBlock: WUSLED_clean_sbu_0, # of connection points: 3
#     Node 4, Type 0, BuildingBlock: WUSLED_clean_sbu_0, # of connection points: 3
#     Node 5, Type 0, BuildingBlock: WUSLED_clean_sbu_0, # of connection points: 3
#     Node 6, Type 0, BuildingBlock: WUSLED_clean_sbu_0, # of connection points: 3
#     Node 7, Type 0, BuildingBlock: WUSLED_clean_sbu_0, # of connection points: 3
#     Node 8, Type 0, BuildingBlock: WUSLED_clean_sbu_0, # of connection points: 3
#     Node 9, Type 0, BuildingBlock: WUSLED_clean_sbu_0, # of connection points: 3
#     Node 10, Type 0, BuildingBlock: WUSLED_clean_sbu_0, # of connection points: 3
#     Node 11, Type 0, BuildingBlock: WUSLED_clean_sbu_0, # of connection points: 3
#     Node 12, Type 0, BuildingBlock: WUSLED_clean_sbu_0, # of connection points: 3
#     Node 13, Type 0, BuildingBlock: WUSLED_clean_sbu_0, # of connection points: 3
#     Node 14, Type 0, BuildingBlock: WUSLED_clean_sbu_0, # of connection points: 3
#     Node 15, Type 0, BuildingBlock: WUSLED_clean_sbu_0, # of connection points: 3
#     Edge 16, Type (0, 0), BuildingBlock: UVAHIK_clean_linker_0, # of connection points: 2
#     Edge 17, Type (0, 0), BuildingBlock: UVAHIK_clean_linker_0, # of connection points: 2
#     Edge 18, Type (0, 0), BuildingBlock: UVAHIK_clean_linker_0, # of connection points: 2
#     Edge 19, Type (0, 0), BuildingBlock: UVAHIK_clean_linker_0, # of connection points: 2
#     Edge 20, Type (0, 0), BuildingBlock: UVAHIK_clean_linker_0, # of connection points: 2
#     Edge 21, Type (0, 0), BuildingBlock: UVAHIK_clean_linker_0, # of connection points: 2
#     Edge 22, Type (0, 0), BuildingBlock: UVAHIK_clean_linker_0, # of connection points: 2
#     Edge 23, Type (0, 0), BuildingBlock: UVAHIK_clean_linker_0, # of connection points: 2
#     Edge 24, Type (0, 0), BuildingBlock: UVAHIK_clean_linker_0, # of connection points: 2
#     Edge 25, Type (0, 0), BuildingBlock: UVAHIK_clean_linker_0, # of connection points: 2
#     Edge 26, Type (0, 0), BuildingBlock: UVAHIK_clean_linker_0, # of connection points: 2
#     Edge 27, Type (0, 0), BuildingBlock: UVAHIK_clean_linker_0, # of connection points: 2
#     Edge 28, Type (0, 0), BuildingBlock: UVAHIK_clean_linker_0, # of connection points: 2
#     Edge 29, Type (0, 0), BuildingBlock: UVAHIK_clean_linker_0, # of connection points: 2
#     Edge 30, Type (0, 0), BuildingBlock: UVAHIK_clean_linker_0, # of connection points: 2
#     Edge 31, Type (0, 0), BuildingBlock: UVAHIK_clean_linker_0, # of connection points: 2
#     Edge 32, Type (0, 0), BuildingBlock: UVAHIK_clean_linker_0, # of connection points: 2
#     Edge 33, Type (0, 0), BuildingBlock: UVAHIK_clean_linker_0, # of connection points: 2
#     Edge 34, Type (0, 0), BuildingBlock: UVAHIK_clean_linker_0, # of connection points: 2
#     Edge 35, Type (0, 0), BuildingBlock: UVAHIK_clean_linker_0, # of connection points: 2
#     Edge 36, Type (0, 0), BuildingBlock: UVAHIK_clean_linker_0, # of connection points: 2
#     Edge 37, Type (0, 0), BuildingBlock: UVAHIK_clean_linker_0, # of connection points: 2
#     Edge 38, Type (0, 0), BuildingBlock: UVAHIK_clean_linker_0, # of connection points: 2
#     Edge 39, Type (0, 0), BuildingBlock: UVAHIK_clean_linker_0, # of connection points: 2
# Relax obj value: 0.018
# Max RMSD: 0.034
# Mean RMSD: 0.034
data_MOF--net-utg--node1-WUSLED_clean_sbu_0--edge1-UVAHIK_clean_linker_0
_symmetry_space_group_name_H-M    P1
_symmetry_Int_Tables_number       1
_symmetry_cell_setting            triclinic
loop_
_symmetry_equiv_pos_as_xyz
'x, y, z'
_cell_length_a     61.325564
_cell_length_b     61.453234
_cell_length_c     177.74569
_cell_angle_alpha  90.019094
_cell_angle_beta   90.042783
_cell_angle_gamma 90.100672
loop_
_atom_site_label
_atom_site_type_symbol
_atom_site_fract_x
_atom_site_fract_y
_atom_site_fract_z
_atom_type_partial_charge
C0 C 0.21146 0.16699 0.23509 0.0
C1 C 0.22816 0.18119 0.23285 0.0
C2 C 0.23891 0.18646 0.24592 0.0
C3 C 0.2418 0.19079 0.23821 0.0
C4 C 0.22224 0.17202 0.24812 0.0
C5 C 0.20863 0.16238 0.24274 0.0
U6 U 0.19022 0.16567 0.21516 0.0
O7 O 0.18134 0.13836 0.20773 0.0
O8 O 0.15693 0.16304 0.21068 0.0
C9 C 0.16081 0.14436 0.20734 0.0
C10 C 0.19661 0.15755 0.22948 0.0
C11 C 0.14463 0.12708 0.20862 0.0
C12 C 0.12023 0.10672 0.21679 0.0
C13 C 0.13618 0.12281 0.21581 0.0
C14 C 0.12141 0.09878 0.20344 0.0
C15 C 0.11264 0.09455 0.2106 0.0
C16 C 0.13723 0.1149 0.20246 0.0
C17 C 0.21445 0.20503 0.20093 0.0
C18 C 0.20206 0.20549 0.18795 0.0
C19 C 0.22895 0.23172 0.1922 0.0
C20 C 0.22826 0.22265 0.1994 0.0
C21 C 0.21581 0.22329 0.18639 0.0
C22 C 0.20137 0.19645 0.19516 0.0
C23 C 0.21356 0.19596 0.20856 0.0
O24 O 0.18141 0.17083 0.22702 0.0
O25 O 0.2061 0.14651 0.22405 0.0
O26 O 0.22 0.17566 0.20919 0.0
O27 O 0.19553 0.20006 0.21228 0.0
H28 H 0.23055 0.18496 0.22695 0.0
H29 H 0.25465 0.20157 0.2363 0.0
H30 H 0.21938 0.16854 0.25401 0.0
H31 H 0.19572 0.15154 0.24456 0.0
H32 H 0.11394 0.1037 0.22238 0.0
H33 H 0.14181 0.132 0.22064 0.0
H34 H 0.11571 0.08994 0.19854 0.0
H35 H 0.14354 0.11802 0.19687 0.0
H36 H 0.19156 0.19878 0.18363 0.0
H37 H 0.23991 0.24522 0.19116 0.0
H38 H 0.23848 0.22942 0.2038 0.0
H39 H 0.19052 0.18288 0.19627 0.0
C40 C 0.87722 0.71023 0.48498 0.0
C41 C 0.86167 0.72604 0.48309 0.0
C42 C 0.85849 0.7365 0.49626 0.0
C43 C 0.85241 0.73908 0.48868 0.0
C44 C 0.87437 0.72084 0.49809 0.0
C45 C 0.88363 0.70781 0.49249 0.0
U46 U 0.87794 0.69085 0.46479 0.0
O47 O 0.90495 0.6808 0.45742 0.0
O48 O 0.87855 0.65785 0.46005 0.0
C49 C 0.89753 0.6608 0.45677 0.0
C50 C 0.88609 0.69572 0.47918 0.0
C51 C 0.9135 0.64335 0.45792 0.0
C52 C 0.93703 0.62175 0.46599 0.0
C53 C 0.92249 0.6391 0.46503 0.0
C54 C 0.93377 0.61302 0.45274 0.0
C55 C 0.94264 0.60837 0.45986 0.0
C56 C 0.91934 0.63033 0.45179 0.0
C57 C 0.84022 0.71687 0.45054 0.0
C58 C 0.83893 0.70316 0.43773 0.0
C59 C 0.81484 0.73238 0.44154 0.0
C60 C 0.82376 0.7318 0.44878 0.0
C61 C 0.82222 0.71796 0.43594 0.0
C62 C 0.84784 0.70262 0.44497 0.0
C63 C 0.84895 0.7158 0.45822 0.0
O64 O 0.87217 0.68133 0.47654 0.0
O65 O 0.89758 0.7053 0.47388 0.0
O66 O 0.86959 0.72126 0.45893 0.0
O67 O 0.84383 0.69804 0.46194 0.0
H68 H 0.85646 0.72802 0.4773 0.0
H69 H 0.84005 0.75077 0.48708 0.0
H70 H 0.8796 0.71862 0.50386 0.0
H71 H 0.89563 0.69568 0.49404 0.0
H72 H 0.94348 0.6185 0.47155 0.0
H73 H 0.91808 0.64902 0.46983 0.0
H74 H 0.93805 0.60329 0.44787 0.0
H75 H 0.91258 0.63345 0.44626 0.0
H76 H 0.84519 0.69205 0.43353 0.0
H77 H 0.80183 0.74379 0.44037 0.0
H78 H 0.81764 0.74285 0.45304 0.0
H79 H 0.86058 0.69099 0.44624 0.0
C80 C 0.33017 0.37508 0.73479 0.0
C81 C 0.31314 0.36126 0.73254 0.0
C82 C 0.30319 0.35513 0.74564 0.0
C83 C 0.29974 0.35143 0.73791 0.0
C84 C 0.32009 0.36932 0.74784 0.0
C85 C 0.33347 0.37919 0.74246 0.0
U86 U 0.3505 0.37664 0.71478 0.0
O87 O 0.36077 0.40376 0.70751 0.0
O88 O 0.38371 0.37747 0.71017 0.0
C89 C 0.38082 0.39642 0.7069 0.0
C90 C 0.34509 0.38432 0.72917 0.0
C91 C 0.39829 0.41241 0.70809 0.0
C92 C 0.41995 0.43588 0.71619 0.0
C93 C 0.40258 0.42128 0.71521 0.0
C94 C 0.4286 0.43291 0.70293 0.0
C95 C 0.43329 0.44167 0.71006 0.0
C96 C 0.41128 0.41842 0.70196 0.0
C97 C 0.32466 0.33907 0.70038 0.0
C98 C 0.33874 0.3376 0.68763 0.0
C99 C 0.30902 0.31387 0.69134 0.0
C100 C 0.30953 0.32279 0.69858 0.0
C101 C 0.32372 0.32107 0.68579 0.0
C102 C 0.3392 0.34652 0.69486 0.0
C103 C 0.32565 0.34775 0.70806 0.0
O104 O 0.35964 0.3706 0.72656 0.0
O105 O 0.3358 0.39601 0.72386 0.0
O106 O 0.32019 0.36833 0.70878 0.0
O107 O 0.34336 0.34264 0.71183 0.0
H108 H 0.3104 0.35788 0.72663 0.0
H109 H 0.2867 0.34085 0.73601 0.0
H110 H 0.32337 0.37233 0.75374 0.0
H111 H 0.34665 0.38971 0.74428 0.0
H112 H 0.42322 0.44224 0.72176 0.0
H113 H 0.39268 0.41674 0.72001 0.0
H114 H 0.43829 0.43733 0.69807 0.0
H115 H 0.40813 0.41176 0.69642 0.0
H116 H 0.35007 0.34372 0.68346 0.0
H117 H 0.29744 0.301 0.69014 0.0
H118 H 0.29826 0.31681 0.70279 0.0
H119 H 0.35099 0.35912 0.69617 0.0
C120 C 0.6651 0.83136 0.98487 0.0
C121 C 0.68049 0.81543 0.98296 0.0
C122 C 0.6833 0.8045 0.99609 0.0
C123 C 0.68949 0.80209 0.98852 0.0
C124 C 0.66763 0.82032 0.99795 0.0
C125 C 0.65861 0.83364 0.99238 0.0
U126 U 0.66476 0.85112 0.96474 0.0
O127 O 0.66441 0.88421 0.96007 0.0
O128 O 0.63791 0.86146 0.95734 0.0
C129 C 0.64546 0.88142 0.95675 0.0
C130 C 0.65641 0.84608 0.9791 0.0
C131 C 0.62956 0.89893 0.95789 0.0
C132 C 0.60604 0.92055 0.96595 0.0
C133 C 0.62056 0.90319 0.965 0.0
C134 C 0.60932 0.92928 0.9527 0.0
C135 C 0.60043 0.93393 0.95982 0.0
C136 C 0.62375 0.91196 0.95176 0.0
C137 C 0.70245 0.82494 0.95051 0.0
C138 C 0.70439 0.83901 0.93777 0.0
C139 C 0.7275 0.80895 0.94152 0.0
C140 C 0.71847 0.80957 0.94874 0.0
C141 C 0.72067 0.82376 0.93596 0.0
C142 C 0.69536 0.83959 0.94498 0.0
C143 C 0.69362 0.82603 0.95817 0.0
O144 O 0.67049 0.86039 0.97652 0.0
O145 O 0.64489 0.8367 0.97376 0.0
O146 O 0.67293 0.82073 0.95884 0.0
O147 O 0.69883 0.8437 0.96193 0.0
H148 H 0.68576 0.81355 0.97718 0.0
H149 H 0.70172 0.79029 0.9869 0.0
H150 H 0.66231 0.82241 1.00372 0.0
H151 H 0.64674 0.84586 0.99395 0.0
H152 H 0.59957 0.92379 0.97151 0.0
H153 H 0.62496 0.89326 0.9698 0.0
H154 H 0.60505 0.939 0.94784 0.0
H155 H 0.63051 0.90883 0.94623 0.0
H156 H 0.69856 0.85044 0.93359 0.0
H157 H 0.74017 0.79718 0.94034 0.0
H158 H 0.72417 0.7982 0.95296 0.0
H159 H 0.68295 0.85156 0.94627 0.0
C160 C 0.21063 0.37532 0.06367 0.0
C161 C 0.22784 0.36179 0.06592 0.0
C162 C 0.23745 0.35526 0.05282 0.0
C163 C 0.24116 0.3519 0.06055 0.0
C164 C 0.22037 0.36916 0.05061 0.0
C165 C 0.20706 0.37908 0.056 0.0
U166 U 0.19049 0.3768 0.08369 0.0
O167 O 0.18058 0.40389 0.09103 0.0
O168 O 0.15735 0.37777 0.08836 0.0
C169 C 0.16047 0.39669 0.09164 0.0
C170 C 0.19581 0.3846 0.06931 0.0
C171 C 0.14316 0.4128 0.09048 0.0
C172 C 0.12143 0.4361 0.08237 0.0
C173 C 0.13868 0.42143 0.08333 0.0
C174 C 0.11328 0.43374 0.09569 0.0
C175 C 0.10839 0.44223 0.08853 0.0
C176 C 0.13048 0.41916 0.09664 0.0
C177 C 0.2164 0.33875 0.09794 0.0
C178 C 0.20422 0.33832 0.11093 0.0
C179 C 0.23076 0.31193 0.10663 0.0
C180 C 0.23007 0.32105 0.09943 0.0
C181 C 0.21777 0.3204 0.11246 0.0
C182 C 0.20351 0.34739 0.10372 0.0
C183 C 0.21519 0.34765 0.09029 0.0
O184 O 0.18115 0.37093 0.07192 0.0
O185 O 0.20522 0.39621 0.07462 0.0
O186 O 0.22081 0.3682 0.0896 0.0
O187 O 0.19731 0.3427 0.08658 0.0
H188 H 0.23079 0.35866 0.07183 0.0
H189 H 0.25435 0.34157 0.06245 0.0
H190 H 0.21688 0.37188 0.04471 0.0
H191 H 0.19374 0.38938 0.05417 0.0
H192 H 0.118 0.44226 0.07679 0.0
H193 H 0.14833 0.41661 0.07851 0.0
H194 H 0.10383 0.43841 0.10057 0.0
H195 H 0.13379 0.41269 0.1022 0.0
H196 H 0.19381 0.34506 0.11526 0.0
H197 H 0.24156 0.29831 0.10765 0.0
H198 H 0.24012 0.31419 0.09502 0.0
H199 H 0.19274 0.361 0.10263 0.0
C200 C 0.66702 0.7098 0.31334 0.0
C201 C 0.68314 0.72506 0.31525 0.0
C202 C 0.68562 0.73659 0.30217 0.0
C203 C 0.69234 0.73836 0.30972 0.0
C204 C 0.66928 0.72138 0.30031 0.0
C205 C 0.66007 0.7081 0.30586 0.0
U206 U 0.66612 0.68962 0.33344 0.0
O207 O 0.6388 0.68083 0.34088 0.0
O208 O 0.66372 0.65655 0.33805 0.0
C209 C 0.64494 0.6604 0.34135 0.0
C210 C 0.65782 0.69533 0.3191 0.0
C211 C 0.62775 0.64409 0.3401 0.0
C212 C 0.60754 0.61946 0.33196 0.0
C213 C 0.62354 0.63551 0.33293 0.0
C214 C 0.59957 0.6208 0.34531 0.0
C215 C 0.5954 0.61189 0.33816 0.0
C216 C 0.6156 0.63672 0.34626 0.0
C217 C 0.70526 0.71429 0.34765 0.0
C218 C 0.70688 0.70063 0.36045 0.0
C219 C 0.73041 0.73036 0.35662 0.0
C220 C 0.72146 0.72956 0.34939 0.0
C221 C 0.72329 0.71584 0.36223 0.0
C222 C 0.69794 0.69988 0.35322 0.0
C223 C 0.6963 0.71328 0.33999 0.0
O224 O 0.67125 0.68037 0.32162 0.0
O225 O 0.64686 0.7051 0.32448 0.0
O226 O 0.67593 0.71959 0.33932 0.0
O227 O 0.70055 0.69526 0.3363 0.0
H228 H 0.68876 0.72649 0.32102 0.0
H229 H 0.70507 0.74968 0.31133 0.0
H230 H 0.66356 0.7198 0.29457 0.0
H231 H 0.64761 0.69641 0.3043 0.0
H232 H 0.60456 0.61307 0.32638 0.0
H233 H 0.63271 0.64111 0.32809 0.0
H234 H 0.59074 0.61513 0.35021 0.0
H235 H 0.61867 0.64314 0.35185 0.0
H236 H 0.70084 0.68942 0.36466 0.0
H237 H 0.74319 0.74208 0.35778 0.0
H238 H 0.72732 0.74076 0.34513 0.0
H239 H 0.68536 0.68801 0.35196 0.0
C240 C 0.33328 0.16562 0.56336 0.0
C241 C 0.31781 0.18148 0.56527 0.0
C242 C 0.30733 0.18496 0.55211 0.0
C243 C 0.30492 0.19105 0.55969 0.0
C244 C 0.32271 0.16885 0.55025 0.0
C245 C 0.33557 0.15927 0.55584 0.0
U246 U 0.35278 0.16416 0.58354 0.0
O247 O 0.36122 0.1367 0.59094 0.0
O248 O 0.38576 0.16159 0.58828 0.0
C249 C 0.38171 0.14277 0.59151 0.0
C250 C 0.34747 0.1562 0.56916 0.0
C251 C 0.39799 0.12564 0.59024 0.0
C252 C 0.42233 0.1054 0.58203 0.0
C253 C 0.40629 0.12133 0.58303 0.0
C254 C 0.42155 0.09771 0.5954 0.0
C255 C 0.43017 0.09344 0.58822 0.0
C256 C 0.40563 0.11367 0.59639 0.0
C257 C 0.32797 0.20315 0.59771 0.0
C258 C 0.34131 0.20462 0.61057 0.0
C259 C 0.31196 0.22841 0.60663 0.0
C260 C 0.31284 0.21947 0.5994 0.0
C261 C 0.32627 0.22116 0.61229 0.0
C262 C 0.34214 0.19568 0.60334 0.0
C263 C 0.32912 0.19428 0.59006 0.0
O264 O 0.3625 0.16945 0.57178 0.0
O265 O 0.33738 0.14522 0.57447 0.0
O266 O 0.32267 0.17397 0.58933 0.0
O267 O 0.34731 0.19849 0.58644 0.0
H268 H 0.31593 0.18665 0.57106 0.0
H269 H 0.29346 0.20359 0.5613 0.0
H270 H 0.32478 0.16362 0.54447 0.0
H271 H 0.34743 0.14703 0.55428 0.0
H272 H 0.42849 0.10234 0.57642 0.0
H273 H 0.40047 0.13037 0.5782 0.0
H274 H 0.42744 0.08901 0.60029 0.0
H275 H 0.39943 0.11682 0.60199 0.0
H276 H 0.35236 0.19849 0.61482 0.0
H277 H 0.30037 0.24129 0.60774 0.0
H278 H 0.30182 0.22544 0.5951 0.0
H279 H 0.3539 0.18302 0.60213 0.0
C280 C 0.8762 0.8319 0.81349 0.0
C281 C 0.86027 0.81645 0.81539 0.0
C282 C 0.85756 0.80526 0.80228 0.0
C283 C 0.85105 0.80321 0.80983 0.0
C284 C 0.8737 0.82068 0.80043 0.0
C285 C 0.88294 0.83388 0.806 0.0
U286 U 0.87707 0.85189 0.83362 0.0
O287 O 0.90439 0.86057 0.84109 0.0
O288 O 0.87951 0.88491 0.83828 0.0
C289 C 0.89828 0.88101 0.84158 0.0
C290 C 0.8854 0.8463 0.81928 0.0
C291 C 0.91549 0.89729 0.84035 0.0
C292 C 0.93594 0.92164 0.83219 0.0
C293 C 0.91992 0.90561 0.83315 0.0
C294 C 0.94346 0.92082 0.84558 0.0
C295 C 0.94785 0.92946 0.83841 0.0
C296 C 0.92742 0.90491 0.84653 0.0
C297 C 0.83787 0.8272 0.84777 0.0
C298 C 0.83671 0.84042 0.86063 0.0
C299 C 0.81232 0.81152 0.85667 0.0
C300 C 0.82124 0.81233 0.84944 0.0
C301 C 0.81989 0.82562 0.86235 0.0
C302 C 0.84562 0.84119 0.8534 0.0
C303 C 0.84682 0.82823 0.84012 0.0
O304 O 0.87198 0.86125 0.82181 0.0
O305 O 0.89633 0.83647 0.82465 0.0
O306 O 0.86718 0.82188 0.83945 0.0
O307 O 0.84262 0.84629 0.83645 0.0
H308 H 0.85481 0.8148 0.82116 0.0
H309 H 0.83847 0.79173 0.81143 0.0
H310 H 0.87926 0.82248 0.79468 0.0
H311 H 0.89525 0.84573 0.80445 0.0
H312 H 0.93909 0.92783 0.82659 0.0
H313 H 0.91092 0.89981 0.8283 0.0
H314 H 0.95212 0.92668 0.85049 0.0
H315 H 0.92417 0.89869 0.85212 0.0
H316 H 0.8431 0.8513 0.8649 0.0
H317 H 0.79922 0.80012 0.85778 0.0
H318 H 0.81504 0.80146 0.84514 0.0
H319 H 0.85852 0.85275 0.8522 0.0
C320 C 0.71087 0.66645 0.73493 0.0
C321 C 0.72783 0.68034 0.73269 0.0
C322 C 0.73812 0.68612 0.74578 0.0
C323 C 0.74137 0.69004 0.73806 0.0
C324 C 0.72119 0.67198 0.74798 0.0
C325 C 0.70768 0.66224 0.74259 0.0
U326 U 0.69 0.66473 0.71495 0.0
O327 O 0.68097 0.63728 0.70761 0.0
O328 O 0.65675 0.66228 0.71043 0.0
C329 C 0.6605 0.64345 0.70716 0.0
C330 C 0.69607 0.65697 0.72931 0.0
C331 C 0.64415 0.62636 0.70848 0.0
C332 C 0.61954 0.60642 0.7167 0.0
C333 C 0.63561 0.62238 0.71567 0.0
C334 C 0.62079 0.59807 0.70338 0.0
C335 C 0.61193 0.59411 0.71055 0.0
C336 C 0.63673 0.61405 0.70236 0.0
C337 C 0.71469 0.70342 0.70061 0.0
C338 C 0.70089 0.70503 0.68782 0.0
C339 C 0.73079 0.72843 0.69162 0.0
C340 C 0.73003 0.71953 0.69886 0.0
C341 C 0.71616 0.72135 0.68602 0.0
C342 C 0.70018 0.69613 0.69505 0.0
C343 C 0.71371 0.69459 0.70827 0.0
O344 O 0.68103 0.6703 0.72678 0.0
O345 O 0.70558 0.64571 0.72395 0.0
O346 O 0.71995 0.67425 0.70898 0.0
O347 O 0.6957 0.69897 0.71198 0.0
H348 H 0.73048 0.6838 0.72678 0.0
H349 H 0.75441 0.70058 0.73615 0.0
H350 H 0.71805 0.66883 0.75387 0.0
H351 H 0.69456 0.65166 0.74442 0.0
H352 H 0.61318 0.60362 0.7223 0.0
H353 H 0.64126 0.63167 0.72048 0.0
H354 H 0.61508 0.5891 0.69851 0.0
H355 H 0.64312 0.61694 0.69677 0.0
H356 H 0.68959 0.69902 0.68361 0.0
H357 H 0.74256 0.74115 0.69046 0.0
H358 H 0.7413 0.72537 0.7031 0.0
H359 H 0.68825 0.68363 0.69632 0.0
C360 C 0.37612 0.2095 0.98523 0.0
C361 C 0.36 0.22469 0.98331 0.0
C362 C 0.35681 0.23562 0.99644 0.0
C363 C 0.35045 0.23766 0.98886 0.0
C364 C 0.37319 0.22052 0.9983 0.0
C365 C 0.38275 0.20758 0.99274 0.0
U366 U 0.37759 0.18975 0.96509 0.0
O367 O 0.40512 0.18124 0.9577 0.0
O368 O 0.38017 0.15678 0.9604 0.0
C369 C 0.39903 0.16079 0.95717 0.0
C370 C 0.38556 0.19525 0.97946 0.0
C371 C 0.4162 0.14455 0.95844 0.0
C372 C 0.4362 0.11987 0.9666 0.0
C373 C 0.42023 0.1359 0.96561 0.0
C374 C 0.44449 0.12138 0.95328 0.0
C375 C 0.44847 0.1124 0.96043 0.0
C376 C 0.4285 0.13728 0.9523 0.0
C377 C 0.33858 0.21437 0.95085 0.0
C378 C 0.33703 0.2008 0.93803 0.0
C379 C 0.31352 0.23044 0.94188 0.0
C380 C 0.32241 0.22962 0.94912 0.0
C381 C 0.32065 0.21597 0.93626 0.0
C382 C 0.34593 0.20002 0.94527 0.0
C383 C 0.34744 0.2133 0.95852 0.0
O384 O 0.37227 0.18021 0.97686 0.0
O385 O 0.39657 0.20523 0.97414 0.0
O386 O 0.36778 0.21974 0.95924 0.0
O387 O 0.3432 0.19519 0.96217 0.0
H388 H 0.35463 0.2263 0.97753 0.0
H389 H 0.3377 0.24891 0.98724 0.0
H390 H 0.37864 0.21874 1.00407 0.0
H391 H 0.3952 0.19593 0.99431 0.0
H392 H 0.43903 0.11343 0.97218 0.0
H393 H 0.41095 0.14142 0.97043 0.0
H394 H 0.45343 0.11579 0.9484 0.0
H395 H 0.42556 0.14375 0.94672 0.0
H396 H 0.34308 0.18962 0.93382 0.0
H397 H 0.30075 0.24214 0.94072 0.0
H398 H 0.31654 0.24077 0.95338 0.0
H399 H 0.35849 0.18817 0.94653 0.0
C400 C 0.83192 0.87499 0.23476 0.0
C401 C 0.81451 0.86162 0.23254 0.0
C402 C 0.80453 0.85581 0.24565 0.0
C403 C 0.8009 0.85217 0.23793 0.0
C404 C 0.82187 0.86948 0.24783 0.0
C405 C 0.83546 0.87898 0.24242 0.0
U406 U 0.85233 0.87588 0.21475 0.0
O407 O 0.86254 0.9028 0.20738 0.0
O408 O 0.88555 0.87664 0.21014 0.0
C409 C 0.88261 0.89551 0.20681 0.0
C410 C 0.84692 0.88398 0.22911 0.0
C411 C 0.90001 0.91159 0.20797 0.0
C412 C 0.92165 0.93512 0.21606 0.0
C413 C 0.90438 0.92041 0.2151 0.0
C414 C 0.93007 0.93237 0.20277 0.0
C415 C 0.93483 0.94108 0.20991 0.0
C416 C 0.91284 0.91777 0.20182 0.0
C417 C 0.82628 0.83791 0.20049 0.0
C418 C 0.83861 0.83754 0.18751 0.0
C419 C 0.81183 0.8112 0.19174 0.0
C420 C 0.81251 0.82026 0.19896 0.0
C421 C 0.82494 0.81968 0.18594 0.0
C422 C 0.8393 0.84655 0.19473 0.0
C423 C 0.82744 0.84681 0.20814 0.0
O424 O 0.86142 0.87011 0.22655 0.0
O425 O 0.8377 0.89556 0.22376 0.0
O426 O 0.82198 0.86739 0.20882 0.0
O427 O 0.84522 0.84179 0.21188 0.0
H428 H 0.81158 0.85833 0.22663 0.0
H429 H 0.78753 0.842 0.23604 0.0
H430 H 0.8253 0.87241 0.25372 0.0
H431 H 0.84893 0.88915 0.24422 0.0
H432 H 0.92499 0.94144 0.22163 0.0
H433 H 0.8946 0.91574 0.21991 0.0
H434 H 0.93963 0.93692 0.19789 0.0
H435 H 0.90962 0.91115 0.19628 0.0
H436 H 0.84911 0.84427 0.1832 0.0
H437 H 0.80095 0.79763 0.1907 0.0
H438 H 0.80236 0.81341 0.20335 0.0
H439 H 0.85015 0.86011 0.19585 0.0
C440 C 0.16735 0.3314 0.48495 0.0
C441 C 0.1815 0.31474 0.48268 0.0
C442 C 0.18792 0.3048 0.49576 0.0
C443 C 0.19164 0.30153 0.48803 0.0
C444 C 0.17347 0.32138 0.49799 0.0
C445 C 0.16329 0.33457 0.49263 0.0
U446 U 0.16487 0.35181 0.46496 0.0
O447 O 0.13713 0.36049 0.45768 0.0
O448 O 0.1622 0.38487 0.46037 0.0
C449 C 0.14326 0.38094 0.45717 0.0
C450 C 0.15753 0.34596 0.47935 0.0
C451 C 0.12614 0.3972 0.45849 0.0
C452 C 0.1064 0.42197 0.46669 0.0
C453 C 0.12233 0.40592 0.46567 0.0
C454 C 0.09772 0.42035 0.45339 0.0
C455 C 0.09396 0.42939 0.46055 0.0
C456 C 0.11367 0.40443 0.45238 0.0
C457 C 0.20345 0.32723 0.45056 0.0
C458 C 0.20489 0.3409 0.43776 0.0
C459 C 0.22837 0.31115 0.44155 0.0
C460 C 0.21955 0.31194 0.44879 0.0
C461 C 0.22121 0.3257 0.43595 0.0
C462 C 0.19607 0.34164 0.44501 0.0
C463 C 0.19475 0.32827 0.45824 0.0
O464 O 0.1707 0.36108 0.47674 0.0
O465 O 0.14615 0.33625 0.47404 0.0
O466 O 0.17441 0.3219 0.45901 0.0
O467 O 0.19914 0.34633 0.46191 0.0
H468 H 0.18485 0.3121 0.47676 0.0
H469 H 0.20241 0.28874 0.4861 0.0
H470 H 0.17045 0.32453 0.5039 0.0
H471 H 0.15251 0.34746 0.49447 0.0
H472 H 0.10374 0.42847 0.47227 0.0
H473 H 0.13174 0.40043 0.47047 0.0
H474 H 0.08865 0.42591 0.44853 0.0
H475 H 0.11644 0.39791 0.4468 0.0
H476 H 0.19883 0.35213 0.43356 0.0
H477 H 0.24109 0.29944 0.44037 0.0
H478 H 0.22546 0.30074 0.45303 0.0
H479 H 0.18357 0.35352 0.44629 0.0
C480 C 0.71196 0.87537 0.5636 0.0
C481 C 0.72892 0.86154 0.56585 0.0
C482 C 0.73893 0.85543 0.55276 0.0
C483 C 0.74232 0.85171 0.56049 0.0
C484 C 0.72211 0.86963 0.55055 0.0
C485 C 0.70872 0.8795 0.55593 0.0
U486 U 0.69165 0.87689 0.5836 0.0
O487 O 0.68147 0.90397 0.5909 0.0
O488 O 0.65845 0.87766 0.58823 0.0
C489 C 0.66141 0.8966 0.59151 0.0
C490 C 0.69705 0.88461 0.56922 0.0
C491 C 0.64396 0.91257 0.59037 0.0
C492 C 0.62197 0.93573 0.58229 0.0
C493 C 0.63935 0.92118 0.58323 0.0
C494 C 0.61398 0.93325 0.59562 0.0
C495 C 0.60895 0.94173 0.58848 0.0
C496 C 0.63131 0.91881 0.59655 0.0
C497 C 0.71745 0.83929 0.59797 0.0
C498 C 0.70359 0.83796 0.61075 0.0
C499 C 0.73287 0.8139 0.60696 0.0
C500 C 0.73237 0.82284 0.59973 0.0
C501 C 0.71839 0.82126 0.61254 0.0
C502 C 0.70312 0.84689 0.60352 0.0
C503 C 0.71645 0.848 0.59029 0.0
O504 O 0.68246 0.87087 0.57183 0.0
O505 O 0.70637 0.8963 0.57453 0.0
O506 O 0.72196 0.86858 0.58958 0.0
O507 O 0.69871 0.84288 0.58653 0.0
H508 H 0.73161 0.85814 0.57176 0.0
H509 H 0.75529 0.84112 0.5624 0.0
H510 H 0.71889 0.87265 0.54465 0.0
H511 H 0.6956 0.89003 0.5541 0.0
H512 H 0.61843 0.94188 0.57672 0.0
H513 H 0.64899 0.91646 0.5784 0.0
H514 H 0.60455 0.93784 0.60052 0.0
H515 H 0.63472 0.91236 0.6021 0.0
H516 H 0.69242 0.8442 0.61494 0.0
H517 H 0.74428 0.8009 0.60813 0.0
H518 H 0.74346 0.81674 0.59548 0.0
H519 H 0.69149 0.85963 0.60224 0.0
C520 C 0.16556 0.20996 0.81368 0.0
C521 C 0.1812 0.22576 0.81553 0.0
C522 C 0.18415 0.23619 0.80235 0.0
C523 C 0.1904 0.23879 0.80992 0.0
C524 C 0.16819 0.22053 0.80055 0.0
C525 C 0.15898 0.20752 0.80618 0.0
U526 U 0.16507 0.19068 0.83387 0.0
O527 O 0.13812 0.18068 0.84129 0.0
O528 O 0.16439 0.1577 0.83863 0.0
C529 C 0.14547 0.16069 0.84194 0.0
C530 C 0.15673 0.19547 0.8195 0.0
C531 C 0.12941 0.14325 0.84083 0.0
C532 C 0.10611 0.12122 0.83278 0.0
C533 C 0.12073 0.13858 0.8337 0.0
C534 C 0.10864 0.11333 0.84612 0.0
C535 C 0.10009 0.10826 0.83898 0.0
C536 C 0.12316 0.13065 0.84702 0.0
C537 C 0.20307 0.21676 0.84806 0.0
C538 C 0.20447 0.20308 0.86086 0.0
C539 C 0.22859 0.23232 0.85702 0.0
C540 C 0.21958 0.23171 0.84979 0.0
C541 C 0.22123 0.21791 0.86263 0.0
C542 C 0.19548 0.20251 0.85364 0.0
C543 C 0.19424 0.21565 0.84039 0.0
O544 O 0.17064 0.1811 0.82212 0.0
O545 O 0.14535 0.20509 0.82481 0.0
O546 O 0.17362 0.22112 0.83971 0.0
O547 O 0.19924 0.19788 0.83667 0.0
H548 H 0.18654 0.22776 0.8213 0.0
H549 H 0.20284 0.25048 0.81148 0.0
H550 H 0.16282 0.2183 0.7948 0.0
H551 H 0.14691 0.19539 0.80466 0.0
H552 H 0.09992 0.11764 0.82721 0.0
H553 H 0.12546 0.14817 0.82885 0.0
H554 H 0.10405 0.10394 0.85102 0.0
H555 H 0.12967 0.1341 0.85257 0.0
H556 H 0.19823 0.19198 0.86507 0.0
H557 H 0.24163 0.24376 0.85817 0.0
H558 H 0.22567 0.24276 0.84552 0.0
H559 H 0.18269 0.19087 0.85238 0.0
C560 C 0.83143 0.66688 0.0632 0.0
C561 C 0.81471 0.68098 0.06546 0.0
C562 C 0.80401 0.68638 0.05239 0.0
C563 C 0.80109 0.69059 0.06011 0.0
C564 C 0.82071 0.67204 0.05017 0.0
C565 C 0.83431 0.66238 0.05554 0.0
U566 U 0.85261 0.66549 0.08313 0.0
O567 O 0.86148 0.63817 0.09054 0.0
O568 O 0.88589 0.66297 0.08762 0.0
C569 C 0.88201 0.64426 0.09095 0.0
C570 C 0.84627 0.65744 0.06881 0.0
C571 C 0.89822 0.62706 0.08968 0.0
C572 C 0.92261 0.60675 0.08151 0.0
C573 C 0.90662 0.62276 0.08248 0.0
C574 C 0.92155 0.59897 0.09487 0.0
C575 C 0.93027 0.5947 0.0877 0.0
C576 C 0.90569 0.615 0.09584 0.0
C577 C 0.82832 0.70467 0.09739 0.0
C578 C 0.8406 0.70507 0.11038 0.0
C579 C 0.81391 0.73138 0.10612 0.0
C580 C 0.8146 0.72232 0.09891 0.0
C581 C 0.82696 0.72291 0.11194 0.0
C582 C 0.8413 0.69605 0.10316 0.0
C583 C 0.82924 0.69564 0.08976 0.0
O584 O 0.86147 0.67076 0.07128 0.0
O585 O 0.83678 0.64632 0.07421 0.0
O586 O 0.82281 0.67532 0.0891 0.0
O587 O 0.84727 0.69984 0.08604 0.0
H588 H 0.81229 0.68466 0.07136 0.0
H589 H 0.78822 0.70129 0.06202 0.0
H590 H 0.8236 0.66865 0.04428 0.0
H591 H 0.84724 0.65163 0.05371 0.0
H592 H 0.92886 0.60369 0.07591 0.0
H593 H 0.90094 0.63186 0.07765 0.0
H594 H 0.9273 0.59022 0.09977 0.0
H595 H 0.89941 0.61815 0.10143 0.0
H596 H 0.85104 0.69834 0.11471 0.0
H597 H 0.80303 0.74491 0.10716 0.0
H598 H 0.80445 0.72913 0.09451 0.0
H599 H 0.85207 0.68246 0.10206 0.0
C600 C 0.37772 0.33121 0.31367 0.0
C601 C 0.36231 0.31522 0.31556 0.0
C602 C 0.35955 0.3044 0.3024 0.0
C603 C 0.35332 0.30191 0.30997 0.0
C604 C 0.37523 0.3203 0.30057 0.0
C605 C 0.38423 0.33359 0.30617 0.0
U606 U 0.37784 0.35096 0.33381 0.0
O607 O 0.40464 0.36117 0.34127 0.0
O608 O 0.37838 0.38404 0.33849 0.0
C609 C 0.39725 0.38116 0.34185 0.0
C610 C 0.3864 0.34589 0.31946 0.0
C611 C 0.41331 0.39859 0.34073 0.0
C612 C 0.4369 0.42026 0.33269 0.0
C613 C 0.42225 0.40295 0.33362 0.0
C614 C 0.43389 0.42874 0.34596 0.0
C615 C 0.44271 0.43349 0.33884 0.0
C616 C 0.41933 0.41147 0.34689 0.0
C617 C 0.33971 0.32495 0.34796 0.0
C618 C 0.33812 0.33869 0.36075 0.0
C619 C 0.31405 0.30944 0.35686 0.0
C620 C 0.32317 0.31001 0.34965 0.0
C621 C 0.32133 0.32388 0.36248 0.0
C622 C 0.34722 0.33922 0.35355 0.0
C623 C 0.34866 0.326 0.34031 0.0
O624 O 0.37238 0.36025 0.32202 0.0
O625 O 0.39776 0.33647 0.32482 0.0
O626 O 0.36931 0.32059 0.33968 0.0
O627 O 0.34365 0.3437 0.33655 0.0
H628 H 0.35701 0.31326 0.32133 0.0
H629 H 0.34109 0.29004 0.31157 0.0
H630 H 0.38057 0.32246 0.29481 0.0
H631 H 0.39612 0.34586 0.30462 0.0
H632 H 0.4433 0.42358 0.32713 0.0
H633 H 0.41769 0.39314 0.3288 0.0
H634 H 0.43831 0.43834 0.35084 0.0
H635 H 0.41262 0.40827 0.35242 0.0
H636 H 0.34431 0.34982 0.36497 0.0
H637 H 0.30099 0.29802 0.35798 0.0
H638 H 0.31714 0.29895 0.34538 0.0
H639 H 0.36003 0.35086 0.35232 0.0
C640 C 0.34502 0.26869 0.29759 0.0
C641 C 0.34921 0.29094 0.29642 0.0
C642 C 0.33456 0.25627 0.29206 0.0
C643 C 0.32064 0.25583 0.27175 0.0
H644 H 0.27531 0.21552 0.2779 0.0
C645 C 0.25875 0.21937 0.2508 0.0
C646 C 0.25292 0.19736 0.25164 0.0
C647 C 0.27164 0.22977 0.2562 0.0
C648 C 0.28812 0.22649 0.27609 0.0
H649 H 0.34557 0.31758 0.28852 0.0
H650 H 0.32733 0.29598 0.2789 0.0
H651 H 0.29588 0.23546 0.28742 0.0
H652 H 0.25644 0.16895 0.25877 0.0
H653 H 0.27887 0.18719 0.26823 0.0
H654 H 0.31267 0.24706 0.26042 0.0
C655 C 0.33245 0.28801 0.28404 0.0
C656 C 0.29993 0.23791 0.28155 0.0
C657 C 0.34291 0.30041 0.28956 0.0
C658 C 0.26036 0.186 0.25801 0.0
C659 C 0.27323 0.19643 0.26342 0.0
C660 C 0.30881 0.24443 0.2663 0.0
C661 C 0.32803 0.26581 0.28524 0.0
C662 C 0.3162 0.25287 0.27944 0.0
C663 C 0.27899 0.21846 0.26259 0.0
C664 C 0.29227 0.22978 0.2684 0.0
H665 H 0.34993 0.26082 0.30278 0.0
H666 H 0.3317 0.23915 0.29312 0.0
H667 H 0.33332 0.26693 0.26994 0.0
H668 H 0.25298 0.22874 0.24604 0.0
H669 H 0.27546 0.24685 0.25545 0.0
C670 C 0.75953 0.85467 0.54051 0.0
C671 C 0.75239 0.84394 0.54705 0.0
C672 C 0.77172 0.84359 0.53507 0.0
C673 C 0.78358 0.78799 0.5283 0.0
H674 H 0.83266 0.81546 0.51834 0.0
C675 C 0.84141 0.73969 0.50904 0.0
C676 C 0.84774 0.74954 0.50225 0.0
C677 C 0.83044 0.75162 0.51455 0.0
C678 C 0.81887 0.80764 0.52102 0.0
H679 H 0.75245 0.81306 0.55297 0.0
H680 H 0.77404 0.79393 0.5436 0.0
H681 H 0.81223 0.83557 0.52785 0.0
H682 H 0.84798 0.77987 0.49601 0.0
H683 H 0.82854 0.80064 0.5056 0.0
H684 H 0.79015 0.76009 0.52148 0.0
C685 C 0.77003 0.81086 0.54262 0.0
C686 C 0.80715 0.81917 0.52647 0.0
C687 C 0.75788 0.82192 0.54805 0.0
C688 C 0.84313 0.77173 0.50115 0.0
C689 C 0.83219 0.78369 0.50668 0.0
C690 C 0.79529 0.77648 0.52286 0.0
C691 C 0.77699 0.8215 0.53604 0.0
C692 C 0.78941 0.80944 0.53019 0.0
C693 C 0.82554 0.77372 0.51341 0.0
C694 C 0.81311 0.78613 0.51917 0.0
H695 H 0.75576 0.87168 0.5396 0.0
H696 H 0.77667 0.85223 0.53005 0.0
H697 H 0.76975 0.78014 0.53094 0.0
H698 H 0.84449 0.72258 0.51005 0.0
H699 H 0.82579 0.74351 0.51972 0.0
C700 C 0.28271 0.35436 0.75792 0.0
C701 C 0.28973 0.34364 0.75136 0.0
C702 C 0.27054 0.34327 0.76336 0.0
C703 C 0.25859 0.28765 0.77013 0.0
H704 H 0.2098 0.31513 0.78021 0.0
C705 C 0.20099 0.23936 0.78952 0.0
C706 C 0.19483 0.24922 0.79633 0.0
C707 C 0.21188 0.25129 0.78398 0.0
C708 C 0.22351 0.30731 0.7775 0.0
H709 H 0.28948 0.31278 0.74542 0.0
H710 H 0.26792 0.29364 0.75482 0.0
H711 H 0.23012 0.33524 0.77066 0.0
H712 H 0.19483 0.27956 0.80257 0.0
H713 H 0.21414 0.30032 0.79294 0.0
H714 H 0.25205 0.25975 0.77696 0.0
C715 C 0.272 0.31056 0.7558 0.0
C716 C 0.23517 0.31884 0.77203 0.0
C717 C 0.28414 0.32162 0.75036 0.0
C718 C 0.19954 0.27141 0.79742 0.0
C719 C 0.2104 0.28337 0.79187 0.0
C720 C 0.24694 0.27614 0.77559 0.0
C721 C 0.26517 0.32118 0.76239 0.0
C722 C 0.25281 0.30911 0.76826 0.0
C723 C 0.21688 0.27339 0.78511 0.0
C724 C 0.22922 0.28579 0.77932 0.0
H725 H 0.28655 0.37136 0.75883 0.0
H726 H 0.26569 0.3519 0.7684 0.0
H727 H 0.27235 0.27981 0.76745 0.0
H728 H 0.19782 0.22226 0.78852 0.0
H729 H 0.21639 0.24317 0.77881 0.0
C730 C 0.69787 0.76879 1.00084 0.0
C731 C 0.69367 0.79101 1.00205 0.0
C732 C 0.70835 0.75635 1.00635 0.0
C733 C 0.72229 0.75573 0.02666 0.0
H734 H 0.76766 0.7157 1.02044 0.0
C735 C 0.78418 0.71927 0.04756 0.0
C736 C 0.79003 0.6973 0.04668 0.0
C737 C 0.77129 0.72969 0.04217 0.0
C738 C 0.75483 0.72659 1.02227 0.0
H739 H 0.6973 0.81757 1.00999 0.0
H740 H 0.71557 0.79594 1.01958 0.0
H741 H 0.74707 0.73566 1.01096 0.0
H742 H 0.78656 0.66897 0.03949 0.0
H743 H 0.76414 0.68723 0.03006 0.0
H744 H 0.73026 0.74686 0.03798 0.0
C745 C 0.71045 0.78801 1.01443 0.0
C746 C 0.74301 0.73803 1.01683 0.0
C747 C 0.69996 0.80043 1.00893 0.0
C748 C 0.78262 0.68599 0.04029 0.0
C749 C 0.76975 0.69644 0.03489 0.0
C750 C 0.73413 0.74432 0.0321 0.0
C751 C 0.71488 0.76585 1.01319 0.0
C752 C 0.72673 0.75289 1.01896 0.0
C753 C 0.76396 0.71843 0.03577 0.0
C754 C 0.75068 0.72976 0.02997 0.0
H755 H 0.69295 0.76096 0.99565 0.0
H756 H 0.71122 0.73926 1.00526 0.0
H757 H 0.70959 0.76675 0.0285 0.0
H758 H 0.78992 0.7286 0.05234 0.0
H759 H 0.76745 0.74673 0.04296 0.0
C760 C 0.25756 0.35422 0.04047 0.0
C761 C 0.25084 0.34369 0.0471 0.0
C762 C 0.26969 0.34306 0.03504 0.0
C763 C 0.28215 0.28731 0.02852 0.0
H764 H 0.33031 0.3151 1.01814 0.0
C765 C 0.34007 0.23908 1.00927 0.0
C766 C 0.34592 0.24871 1.00238 0.0
C767 C 0.32908 0.25108 1.01476 0.0
C768 C 0.31677 0.30719 1.02094 0.0
H769 H 0.2516 0.3131 0.05319 0.0
H770 H 0.27311 0.29386 0.04382 0.0
H771 H 0.30997 0.33534 0.02765 0.0
H772 H 0.34527 0.2787 0.99596 0.0
H773 H 0.3258 0.29957 1.00551 0.0
H774 H 0.28891 0.25919 1.02183 0.0
C775 C 0.2688 0.31067 0.04277 0.0
C776 C 0.3051 0.31879 0.02638 0.0
C777 C 0.2567 0.32181 0.04819 0.0
C778 C 0.3408 0.27073 1.00117 0.0
C779 C 0.32984 0.28276 1.00667 0.0
C780 C 0.29382 0.27573 1.0231 0.0
C781 C 0.27534 0.3211 0.0361 0.0
C782 C 0.2877 0.30895 0.03026 0.0
C783 C 0.32368 0.27301 1.0135 0.0
C784 C 0.31131 0.28549 1.01926 0.0
H785 H 0.25351 0.37113 0.03948 0.0
H786 H 0.27431 0.35154 0.02994 0.0
H787 H 0.26857 0.27937 0.03129 0.0
H788 H 0.34357 0.22211 1.01036 0.0
H789 H 0.32481 0.24316 1.01999 0.0
C790 C 0.70149 0.74109 0.28924 0.0
C791 C 0.69599 0.75019 0.29624 0.0
C792 C 0.71184 0.75363 0.28374 0.0
C793 C 0.74538 0.8031 0.28139 0.0
H794 H 0.73044 0.796 0.26032 0.0
C795 C 0.78413 0.8559 0.25794 0.0
C796 C 0.79067 0.84487 0.25139 0.0
C797 C 0.77146 0.84537 0.26339 0.0
C798 C 0.73492 0.79805 0.26618 0.0
H799 H 0.6966 0.77981 0.30288 0.0
H800 H 0.71464 0.80174 0.29327 0.0
H801 H 0.71021 0.77585 0.26986 0.0
H802 H 0.78921 0.81398 0.24549 0.0
H803 H 0.7671 0.79571 0.25495 0.0
H804 H 0.7702 0.82519 0.27769 0.0
C805 C 0.71124 0.78478 0.29208 0.0
C806 C 0.72333 0.7865 0.27165 0.0
C807 C 0.7009 0.77222 0.29758 0.0
C808 C 0.78413 0.8231 0.2504 0.0
C809 C 0.77146 0.81261 0.25583 0.0
C810 C 0.75695 0.81469 0.27592 0.0
C811 C 0.71694 0.77561 0.2851 0.0
C812 C 0.72856 0.78871 0.27931 0.0
C813 C 0.76502 0.82359 0.2624 0.0
C814 C 0.752 0.81213 0.26824 0.0
H815 H 0.69827 0.72409 0.28807 0.0
H816 H 0.71632 0.74594 0.27848 0.0
H817 H 0.75004 0.80498 0.28723 0.0
H818 H 0.78861 0.87276 0.25884 0.0
H819 H 0.76654 0.85437 0.26834 0.0
C820 C 0.30419 0.20212 0.53933 0.0
C821 C 0.29433 0.19588 0.54614 0.0
C822 C 0.29226 0.21315 0.53383 0.0
C823 C 0.23616 0.2249 0.52741 0.0
H824 H 0.26374 0.27391 0.51747 0.0
C825 C 0.18887 0.28416 0.508 0.0
C826 C 0.19956 0.29141 0.50146 0.0
C827 C 0.20006 0.27198 0.51341 0.0
C828 C 0.25587 0.26011 0.52012 0.0
H829 H 0.26401 0.1959 0.55241 0.0
H830 H 0.24324 0.21543 0.54284 0.0
H831 H 0.28387 0.25346 0.52692 0.0
H832 H 0.23047 0.29156 0.49552 0.0
H833 H 0.24977 0.26995 0.50485 0.0
H834 H 0.20814 0.23158 0.52059 0.0
C835 C 0.26019 0.21166 0.54175 0.0
C836 C 0.26742 0.24838 0.52554 0.0
C837 C 0.27215 0.20067 0.54726 0.0
C838 C 0.22165 0.28605 0.50044 0.0
C839 C 0.23281 0.27388 0.50585 0.0
C840 C 0.2246 0.23663 0.52197 0.0
C841 C 0.27016 0.21819 0.53499 0.0
C842 C 0.25774 0.23061 0.52924 0.0
C843 C 0.2222 0.2668 0.51242 0.0
C844 C 0.23434 0.25434 0.51824 0.0
H845 H 0.32129 0.19888 0.53831 0.0
H846 H 0.30036 0.21772 0.52865 0.0
H847 H 0.22832 0.21115 0.53009 0.0
H848 H 0.17181 0.28782 0.50892 0.0
H849 H 0.19144 0.26694 0.51843 0.0
C850 C 0.84254 0.76962 0.79759 0.0
C851 C 0.84716 0.79174 0.79633 0.0
C852 C 0.83214 0.75712 0.79207 0.0
C853 C 0.81926 0.75595 0.77169 0.0
H854 H 0.77316 0.71646 0.77777 0.0
C855 C 0.75809 0.71907 0.75057 0.0
C856 C 0.75199 0.69716 0.7515 0.0
C857 C 0.77081 0.72962 0.75598 0.0
C858 C 0.78618 0.72719 0.77599 0.0
H859 H 0.84432 0.81807 0.78827 0.0
H860 H 0.82616 0.79634 0.77866 0.0
H861 H 0.79343 0.73663 0.78731 0.0
H862 H 0.75488 0.66909 0.75883 0.0
H863 H 0.77701 0.68758 0.7683 0.0
H864 H 0.8118 0.74672 0.76036 0.0
C865 C 0.83091 0.78853 0.78387 0.0
C866 C 0.79782 0.73875 0.78145 0.0
C867 C 0.84132 0.801 0.78938 0.0
C868 C 0.75902 0.68605 0.75798 0.0
C869 C 0.77172 0.69663 0.76341 0.0
C870 C 0.8076 0.74442 0.76622 0.0
C871 C 0.82609 0.76646 0.78516 0.0
C872 C 0.81438 0.75342 0.77937 0.0
C873 C 0.77773 0.71856 0.76247 0.0
C874 C 0.7908 0.73005 0.7683 0.0
H875 H 0.84711 0.76191 0.80284 0.0
H876 H 0.82898 0.74009 0.79321 0.0
H877 H 0.83217 0.76682 0.76989 0.0
H878 H 0.75265 0.72825 0.74572 0.0
H879 H 0.77484 0.74662 0.75515 0.0
C880 C 0.21699 0.25588 0.17787 0.0
C881 C 0.21632 0.23315 0.17875 0.0
C882 C 0.21741 0.2652 0.1707 0.0
C883 C 0.20459 0.25343 0.15078 0.0
H884 H 0.24161 0.30343 0.14695 0.0
C885 C 0.21826 0.28761 0.12089 0.0
C886 C 0.21809 0.31036 0.12007 0.0
C887 C 0.21827 0.27813 0.12803 0.0
C888 C 0.23101 0.28961 0.14795 0.0
H889 H 0.21589 0.20239 0.17277 0.0
H890 H 0.21668 0.21864 0.16026 0.0
H891 H 0.24126 0.28693 0.15942 0.0
H892 H 0.21809 0.341 0.12613 0.0
H893 H 0.21783 0.32446 0.1386 0.0
H894 H 0.19437 0.25611 0.1393 0.0
C895 C 0.21653 0.22928 0.16512 0.0
C896 C 0.2308 0.28015 0.1551 0.0
C897 C 0.21609 0.21996 0.17229 0.0
C898 C 0.21803 0.32342 0.12656 0.0
C899 C 0.21811 0.31394 0.13371 0.0
C900 C 0.20482 0.26287 0.14363 0.0
C901 C 0.21719 0.25202 0.16424 0.0
C902 C 0.21756 0.26197 0.15661 0.0
C903 C 0.21817 0.29118 0.13453 0.0
C904 C 0.21802 0.28109 0.14213 0.0
H905 H 0.21683 0.26651 0.18273 0.0
H906 H 0.21754 0.28277 0.17023 0.0
H907 H 0.19394 0.23965 0.15178 0.0
H908 H 0.21808 0.27709 0.116 0.0
H909 H 0.21854 0.26056 0.12847 0.0
C910 C 0.73781 0.73626 0.37343 0.0
C911 C 0.73317 0.71635 0.36987 0.0
C912 C 0.74741 0.7367 0.38057 0.0
C913 C 0.78009 0.70315 0.39359 0.0
H914 H 0.76 0.7441 0.40866 0.0
C915 C 0.80771 0.69842 0.42458 0.0
C916 C 0.8123 0.71809 0.42831 0.0
C917 C 0.79821 0.69847 0.41743 0.0
C918 C 0.76598 0.73274 0.40448 0.0
H919 H 0.73512 0.68126 0.37102 0.0
H920 H 0.75151 0.68202 0.38351 0.0
H921 H 0.74299 0.74369 0.39624 0.0
H922 H 0.81075 0.75324 0.42739 0.0
H923 H 0.79418 0.75332 0.4149 0.0
H924 H 0.80307 0.69219 0.40182 0.0
C925 C 0.74791 0.69732 0.38075 0.0
C926 C 0.75622 0.7325 0.39737 0.0
C927 C 0.73827 0.69688 0.37363 0.0
C928 C 0.80716 0.7378 0.42471 0.0
C929 C 0.79765 0.73785 0.41756 0.0
C930 C 0.78985 0.7034 0.40069 0.0
C931 C 0.75265 0.71723 0.3843 0.0
C932 C 0.76312 0.71765 0.39185 0.0
C933 C 0.79306 0.71817 0.41383 0.0
C934 C 0.78287 0.71815 0.40624 0.0
H935 H 0.73389 0.75155 0.37072 0.0
H936 H 0.75101 0.75231 0.38311 0.0
H937 H 0.78605 0.69176 0.38942 0.0
H938 H 0.81112 0.68294 0.42724 0.0
H939 H 0.79456 0.68302 0.41477 0.0
C940 C 0.30576 0.23599 0.62341 0.0
C941 C 0.32573 0.23108 0.61992 0.0
C942 C 0.30531 0.24567 0.63052 0.0
C943 C 0.33911 0.27813 0.64358 0.0
H944 H 0.29739 0.25886 0.65855 0.0
C945 C 0.34341 0.30629 0.67452 0.0
C946 C 0.32368 0.31112 0.67817 0.0
C947 C 0.34343 0.29669 0.66739 0.0
C948 C 0.30897 0.26461 0.65441 0.0
H949 H 0.36088 0.23263 0.62117 0.0
H950 H 0.36008 0.24917 0.63363 0.0
H951 H 0.29786 0.24163 0.64619 0.0
H952 H 0.28846 0.30994 0.67712 0.0
H953 H 0.28849 0.29321 0.66467 0.0
H954 H 0.35023 0.30111 0.65178 0.0
C955 C 0.34477 0.24572 0.63084 0.0
C956 C 0.30925 0.25472 0.64732 0.0
C957 C 0.34522 0.23599 0.62373 0.0
C958 C 0.30395 0.30615 0.67451 0.0
C959 C 0.30396 0.29655 0.66737 0.0
C960 C 0.33883 0.28802 0.65066 0.0
C961 C 0.32481 0.25073 0.63431 0.0
C962 C 0.32437 0.26133 0.64183 0.0
C963 C 0.32371 0.29168 0.66373 0.0
C964 C 0.32379 0.28135 0.65616 0.0
H965 H 0.29045 0.23222 0.62065 0.0
H966 H 0.28966 0.24949 0.63301 0.0
H967 H 0.35072 0.28386 0.63944 0.0
H968 H 0.3589 0.30956 0.67723 0.0
H969 H 0.35893 0.29283 0.6648 0.0
C970 C 0.73533 0.80385 0.92469 0.0
C971 C 0.73076 0.82359 0.92836 0.0
C972 C 0.74507 0.80375 0.91758 0.0
C973 C 0.77815 0.83791 0.90483 0.0
H974 H 0.7578 0.79797 0.88945 0.0
C975 C 0.8057 0.84451 0.87388 0.0
C976 C 0.81009 0.82507 0.87 0.0
C977 C 0.79627 0.84405 0.88103 0.0
C978 C 0.76385 0.80905 0.89371 0.0
H979 H 0.73304 0.85872 0.92745 0.0
H980 H 0.74967 0.85856 0.915 0.0
H981 H 0.74078 0.79766 0.90185 0.0
H982 H 0.80834 0.78987 0.87066 0.0
H983 H 0.79191 0.78907 0.88315 0.0
H984 H 0.8012 0.84932 0.8967 0.0
C985 C 0.7459 0.84313 0.91765 0.0
C986 C 0.75409 0.80887 0.90082 0.0
C987 C 0.73612 0.84323 0.92474 0.0
C988 C 0.80488 0.80515 0.87345 0.0
C989 C 0.79545 0.80469 0.88061 0.0
C990 C 0.78792 0.83808 0.89773 0.0
C991 C 0.75053 0.8234 0.91398 0.0
C992 C 0.76108 0.82336 0.90645 0.0
C993 C 0.79101 0.82414 0.88448 0.0
C994 C 0.78084 0.8237 0.89207 0.0
H995 H 0.73123 0.78844 0.92729 0.0
H996 H 0.74859 0.78826 0.91494 0.0
H997 H 0.78417 0.84903 0.90908 0.0
H998 H 0.80918 0.86014 0.87133 0.0
H999 H 0.79274 0.85934 0.8838 0.0
C1000 C 0.73655 0.73584 0.67482 0.0
C1001 C 0.71661 0.73122 0.67839 0.0
C1002 C 0.73694 0.74549 0.6677 0.0
C1003 C 0.70328 0.7784 0.65478 0.0
H1004 H 0.74427 0.75861 0.63966 0.0
C1005 C 0.6987 0.80671 0.62387 0.0
C1006 C 0.71844 0.8113 0.62017 0.0
C1007 C 0.69868 0.79709 0.63099 0.0
C1008 C 0.7329 0.76451 0.64385 0.0
H1009 H 0.68145 0.73324 0.67727 0.0
H1010 H 0.68213 0.74974 0.6648 0.0
H1011 H 0.74383 0.74135 0.65202 0.0
H1012 H 0.75365 0.80967 0.62112 0.0
H1013 H 0.75363 0.7929 0.63356 0.0
H1014 H 0.69235 0.80154 0.64662 0.0
C1015 C 0.69747 0.74608 0.66754 0.0
C1016 C 0.73264 0.7546 0.65093 0.0
C1017 C 0.69708 0.73638 0.67465 0.0
C1018 C 0.73816 0.80607 0.62377 0.0
C1019 C 0.73815 0.79645 0.6309 0.0
C1020 C 0.70355 0.7883 0.6477 0.0
C1021 C 0.7174 0.75082 0.66399 0.0
C1022 C 0.71779 0.7614 0.65647 0.0
C1023 C 0.7184 0.79182 0.63459 0.0
C1024 C 0.71833 0.78145 0.64215 0.0
H1025 H 0.75188 0.73186 0.67751 0.0
H1026 H 0.75257 0.74909 0.66515 0.0
H1027 H 0.69189 0.78427 0.65896 0.0
H1028 H 0.68321 0.81018 0.6212 0.0
H1029 H 0.68318 0.79342 0.63362 0.0
C1030 C 0.30564 0.197 0.92485 0.0
C1031 C 0.31078 0.21647 0.92862 0.0
C1032 C 0.29598 0.19742 0.91773 0.0
C1033 C 0.2876 0.2326 0.90113 0.0
H1034 H 0.24065 0.1922 0.89672 0.0
C1035 C 0.23646 0.2378 0.87384 0.0
C1036 C 0.23124 0.21807 0.87025 0.0
C1037 C 0.24603 0.23787 0.88098 0.0
C1038 C 0.2539 0.20344 0.89783 0.0
H1039 H 0.3101 0.25167 0.92778 0.0
H1040 H 0.29293 0.25241 0.9154 0.0
H1041 H 0.25777 0.1918 0.9091 0.0
H1042 H 0.23237 0.18293 0.87132 0.0
H1043 H 0.24904 0.18304 0.88376 0.0
H1044 H 0.28376 0.2442 0.88986 0.0
C1045 C 0.29653 0.23681 0.91794 0.0
C1046 C 0.26371 0.2032 0.90493 0.0
C1047 C 0.30615 0.23638 0.92507 0.0
C1048 C 0.23583 0.19842 0.87397 0.0
C1049 C 0.24539 0.19848 0.88111 0.0
C1050 C 0.27779 0.23283 0.89403 0.0
C1051 C 0.29125 0.21733 0.9142 0.0
C1052 C 0.28072 0.21774 0.90666 0.0
C1053 C 0.25061 0.2182 0.8847 0.0
C1054 C 0.26086 0.21821 0.89229 0.0
H1055 H 0.30879 0.18138 0.92746 0.0
H1056 H 0.29235 0.18212 0.91497 0.0
H1057 H 0.30086 0.24382 0.90225 0.0
H1058 H 0.23287 0.25322 0.87117 0.0
H1059 H 0.24955 0.25334 0.88364 0.0
C1060 C 0.82424 0.787 0.17745 0.0
C1061 C 0.8246 0.80974 0.17832 0.0
C1062 C 0.82424 0.77763 0.17028 0.0
C1063 C 0.83795 0.78954 0.15045 0.0
H1064 H 0.80199 0.73894 0.14635 0.0
C1065 C 0.82603 0.75554 0.12044 0.0
C1066 C 0.82649 0.7328 0.11957 0.0
C1067 C 0.82568 0.76489 0.12761 0.0
C1068 C 0.8123 0.75293 0.14743 0.0
H1069 H 0.82483 0.84046 0.17232 0.0
H1070 H 0.82474 0.82412 0.15981 0.0
H1071 H 0.80142 0.7554 0.15883 0.0
H1072 H 0.8267 0.70206 0.12556 0.0
H1073 H 0.8264 0.7184 0.13808 0.0
H1074 H 0.84879 0.78709 0.13904 0.0
C1075 C 0.82483 0.81352 0.16468 0.0
C1076 C 0.81198 0.76236 0.15458 0.0
C1077 C 0.82487 0.82289 0.17185 0.0
C1078 C 0.82655 0.71963 0.12604 0.0
C1079 C 0.82614 0.72899 0.13321 0.0
C1080 C 0.83824 0.78013 0.1433 0.0
C1081 C 0.82457 0.79077 0.16381 0.0
C1082 C 0.82481 0.78079 0.15618 0.0
C1083 C 0.82574 0.75173 0.13408 0.0
C1084 C 0.82542 0.76171 0.1417 0.0
H1085 H 0.82437 0.77641 0.18232 0.0
H1086 H 0.82438 0.76006 0.16982 0.0
H1087 H 0.84831 0.8035 0.15153 0.0
H1088 H 0.8262 0.76615 0.11558 0.0
H1089 H 0.82516 0.78245 0.12808 0.0
C1090 C 0.2362 0.34475 0.42457 0.0
C1091 C 0.23103 0.32526 0.42831 0.0
C1092 C 0.24588 0.34437 0.41746 0.0
C1093 C 0.25436 0.30929 0.40083 0.0
H1094 H 0.30143 0.34963 0.39654 0.0
C1095 C 0.30593 0.30403 0.37366 0.0
C1096 C 0.31121 0.32375 0.37008 0.0
C1097 C 0.29625 0.30398 0.38078 0.0
C1098 C 0.28815 0.33841 0.39762 0.0
H1099 H 0.23165 0.29006 0.42743 0.0
H1100 H 0.24885 0.2894 0.41506 0.0
H1101 H 0.28415 0.35002 0.40888 0.0
H1102 H 0.31011 0.35889 0.37115 0.0
H1103 H 0.29324 0.35881 0.38355 0.0
H1104 H 0.25834 0.29771 0.38956 0.0
C1105 C 0.24527 0.30499 0.41761 0.0
C1106 C 0.27824 0.33864 0.40469 0.0
C1107 C 0.23562 0.30537 0.42473 0.0
C1108 C 0.30659 0.34341 0.3738 0.0
C1109 C 0.29692 0.34336 0.38091 0.0
C1110 C 0.26427 0.30907 0.39375 0.0
C1111 C 0.2506 0.32449 0.4139 0.0
C1112 C 0.26119 0.32412 0.40638 0.0
C1113 C 0.29162 0.32365 0.38449 0.0
C1114 C 0.28125 0.32366 0.39205 0.0
H1115 H 0.23308 0.36035 0.42719 0.0
H1116 H 0.24955 0.35969 0.41472 0.0
H1117 H 0.24108 0.29808 0.40191 0.0
H1118 H 0.30954 0.28859 0.371 0.0
H1119 H 0.29267 0.28851 0.38343 0.0
C1120 C 0.09674 0.05788 0.20766 0.0
C1121 C 0.09533 0.07779 0.21152 0.0
C1122 C 0.07981 0.04271 0.20807 0.0
C1123 C 0.03071 0.02688 0.21893 0.0
H1124 H 1.01426 0.99898 0.20019 0.0
C1125 C 0.95197 0.97494 0.21532 0.0
C1126 C 0.95367 0.9561 0.21087 0.0
C1127 C 0.96947 0.98956 0.21585 0.0
C1128 C 1.0188 1.00641 0.20549 0.0
H1129 H 0.07521 0.09716 0.21897 0.0
H1130 H 0.04555 0.07064 0.21967 0.0
H1131 H 0.04444 0.02468 0.20035 0.0
H1132 H 0.97545 0.93729 0.2038 0.0
H1133 H 1.00584 0.96267 0.20473 0.0
H1134 H 1.00485 1.0086 0.22404 0.0
C1135 C 0.05988 0.06669 0.21638 0.0
C1136 C 0.03613 0.02115 0.20559 0.0
C1137 C 0.07687 0.08189 0.21599 0.0
C1138 C 0.97343 0.9519 0.20714 0.0
C1139 C 0.99086 0.96645 0.20767 0.0
C1140 C 1.0133 1.0121 0.21883 0.0
C1141 C 0.06101 0.04706 0.21233 0.0
C1142 C 0.04241 0.03148 0.21231 0.0
C1143 C 0.98901 0.98561 0.21194 0.0
C1144 C 1.00724 1.00159 0.21211 0.0
H1145 H 0.11093 0.05405 0.20429 0.0
H1146 H 0.08142 0.02755 0.20501 0.0
H1147 H 0.03524 0.03443 0.22421 0.0
H1148 H 0.93692 0.97872 0.21822 0.0
H1149 H 0.96745 1.00425 0.21914 0.0
C1150 C 0.05725 0.44544 0.45776 0.0
C1151 C 0.0774 0.44682 0.4615 0.0
C1152 C 0.04227 0.46249 0.45818 0.0
C1153 C 0.02753 0.51206 0.46889 0.0
H1154 H 0.99907 0.52805 0.45021 0.0
C1155 C 0.9765 0.59106 0.4652 0.0
C1156 C 0.95744 0.58943 0.46082 0.0
C1157 C 0.99089 0.57345 0.46574 0.0
C1158 C 1.00665 0.52365 0.4555 0.0
H1159 H 0.09741 0.46702 0.46875 0.0
H1160 H 0.07123 0.49687 0.46947 0.0
H1161 H 0.02438 0.49766 0.45039 0.0
H1162 H 0.93804 0.56769 0.45391 0.0
H1163 H 0.96302 0.5371 0.45486 0.0
H1164 H 1.00979 0.53826 0.47398 0.0
C1165 C 0.06694 0.48248 0.46627 0.0
C1166 C 1.02117 0.5062 0.4556 0.0
C1167 C 0.08194 0.46538 0.46586 0.0
C1168 C 0.95281 0.56965 0.45719 0.0
C1169 C 0.96714 0.5521 0.45773 0.0
C1170 C 1.01296 0.52958 0.46879 0.0
C1171 C 0.04707 0.48137 0.46233 0.0
C1172 C 0.03171 0.50009 0.4623 0.0
C1173 C 0.98651 0.55387 0.46192 0.0
C1174 C 1.00226 0.53549 0.46209 0.0
H1175 H 0.05307 0.43119 0.45447 0.0
H1176 H 0.02692 0.46089 0.45521 0.0
H1177 H 0.03525 0.50766 0.47416 0.0
H1178 H 0.9806 0.60613 0.46803 0.0
H1179 H 1.00575 0.5754 0.46896 0.0
C1180 C 0.57604 0.58181 0.71594 0.0
C1181 C 0.59453 0.57747 0.71151 0.0
C1182 C 0.55897 0.56671 0.71637 0.0
C1183 C 0.53511 0.52098 0.7057 0.0
H1184 H 0.50352 0.50913 0.72415 0.0
C1185 C 0.47202 0.45213 0.70737 0.0
C1186 C 0.45222 0.45656 0.71104 0.0
C1187 C 0.48953 0.46658 0.7079 0.0
C1188 C 0.51206 0.51243 0.71894 0.0
H1189 H 0.61008 0.55342 0.70439 0.0
H1190 H 0.58044 0.52709 0.70518 0.0
H1191 H 0.53405 0.53481 0.72428 0.0
H1192 H 0.43548 0.47945 0.71829 0.0
H1193 H 0.46616 0.50481 0.71921 0.0
H1194 H 0.51319 0.49877 0.70035 0.0
C1195 C 0.57887 0.54236 0.70817 0.0
C1196 C 0.52955 0.52713 0.71902 0.0
C1197 C 0.59588 0.55743 0.70773 0.0
C1198 C 0.45057 0.47551 0.71544 0.0
C1199 C 0.46814 0.49003 0.71597 0.0
C1200 C 0.5177 0.50633 0.70563 0.0
C1201 C 0.56004 0.54695 0.71239 0.0
C1202 C 0.54135 0.53147 0.7124 0.0
C1203 C 0.48772 0.48586 0.71211 0.0
C1204 C 0.50604 0.50176 0.71225 0.0
H1205 H 0.57443 0.59718 0.71886 0.0
H1206 H 0.54463 0.57084 0.71962 0.0
H1207 H 0.5435 0.52431 0.70047 0.0
H1208 H 0.47401 0.43744 0.70408 0.0
H1209 H 0.50454 0.46263 0.705 0.0
C1210 C 0.48514 0.09639 0.95756 0.0
C1211 C 0.46508 0.09501 0.96135 0.0
C1212 C 0.50019 0.0794 0.95798 0.0
C1213 C 0.51527 0.03005 0.96877 0.0
H1214 H 0.54367 1.01393 0.9501 0.0
C1215 C 0.56654 0.95118 0.96514 0.0
C1216 C 0.58558 0.95283 0.96077 0.0
C1217 C 0.55209 0.96874 0.96567 0.0
C1218 C 0.5361 1.01837 0.95539 0.0
H1219 H 0.44528 0.07485 0.96867 0.0
H1220 H 0.47156 0.04509 0.96938 0.0
H1221 H 0.51822 0.04421 0.95025 0.0
H1222 H 0.60491 0.97459 0.95385 0.0
H1223 H 0.57982 1.00511 0.95477 0.0
H1224 H 0.53316 1.00399 0.97388 0.0
C1225 C 0.47574 0.05944 0.96615 0.0
C1226 C 0.5215 0.03576 0.95547 0.0
C1227 C 0.46068 0.07649 0.96575 0.0
C1228 C 0.59015 0.97261 0.95713 0.0
C1229 C 0.57576 0.99011 0.95765 0.0
C1230 C 0.52991 1.01258 0.96868 0.0
C1231 C 0.49554 0.06056 0.96218 0.0
C1232 C 0.51099 0.04192 0.96217 0.0
C1233 C 0.5564 0.98831 0.96184 0.0
C1234 C 0.54059 1.00664 0.96199 0.0
H1235 H 0.4892 0.11061 0.95425 0.0
H1236 H 0.51548 0.08101 0.95498 0.0
H1237 H 0.50758 0.03448 0.97403 0.0
H1238 H 0.56248 0.93611 0.96798 0.0
H1239 H 0.53724 0.96677 0.96889 0.0
C1240 C 0.9463 0.55817 0.09069 0.0
C1241 C 0.94761 0.57803 0.08679 0.0
C1242 C 0.96327 0.5431 0.09029 0.0
C1243 C 1.01231 0.52737 0.07942 0.0
H1244 H 0.02903 0.50003 0.09822 0.0
C1245 C 0.09116 0.47589 0.08305 0.0
C1246 C 0.08954 0.45716 0.08757 0.0
C1247 C 0.07365 0.49041 0.08251 0.0
C1248 C 0.02442 0.5073 0.0929 0.0
H1249 H 0.96761 0.59739 0.07928 0.0
H1250 H 0.99735 0.57105 0.07861 0.0
H1251 H 0.99878 0.52554 0.09802 0.0
H1252 H 0.06788 0.43846 0.09473 0.0
H1253 H 0.03746 0.46367 0.09378 0.0
H1254 H 0.03816 0.50911 0.07433 0.0
C1255 C 0.98306 0.56707 0.08191 0.0
C1256 C 1.00705 0.52193 0.09279 0.0
C1257 C 0.96602 0.58216 0.0823 0.0
C1258 C 0.06984 0.45298 0.09134 0.0
C1259 C 0.0524 0.46744 0.0908 0.0
C1260 C 0.02976 0.51269 0.07954 0.0
C1261 C 0.98202 0.54751 0.086 0.0
C1262 C 1.00067 0.53206 0.08605 0.0
C1263 C 0.05417 0.48649 0.08646 0.0
C1264 C 0.03591 0.50238 0.08628 0.0
H1265 H 0.93214 0.55431 0.09408 0.0
H1266 H 0.96172 0.52799 0.09338 0.0
H1267 H 1.00771 0.53476 0.07413 0.0
H1268 H 0.10617 0.47964 0.08012 0.0
H1269 H 0.07561 0.50502 0.07917 0.0
C1270 C 0.55876 0.59581 0.3411 0.0
C1271 C 0.57873 0.59449 0.33725 0.0
C1272 C 0.54366 0.57882 0.3407 0.0
C1273 C 0.52816 0.5296 0.32987 0.0
H1274 H 0.50015 0.51325 0.34859 0.0
C1275 C 0.47661 0.45074 0.33348 0.0
C1276 C 0.45767 0.45236 0.33791 0.0
C1277 C 0.49114 0.46828 0.33296 0.0
C1278 C 0.50762 0.51775 0.34329 0.0
H1279 H 0.59829 0.57444 0.32984 0.0
H1280 H 0.57191 0.54466 0.32916 0.0
H1281 H 0.52572 0.54352 0.34843 0.0
H1282 H 0.43862 0.47404 0.34493 0.0
H1283 H 0.46386 0.50452 0.34401 0.0
H1284 H 0.51005 0.50361 0.32476 0.0
C1285 C 0.56785 0.55898 0.33242 0.0
C1286 C 0.52228 0.53514 0.3432 0.0
C1287 C 0.58297 0.57604 0.33281 0.0
C1288 C 0.4533 0.47209 0.34161 0.0
C1289 C 0.46778 0.48956 0.34109 0.0
C1290 C 0.51346 0.51213 0.32997 0.0
C1291 C 0.54816 0.56003 0.33646 0.0
C1292 C 0.53265 0.54138 0.33648 0.0
C1293 C 0.48702 0.4878 0.33685 0.0
C1294 C 0.50292 0.5061 0.33668 0.0
H1295 H 0.55481 0.60999 0.34445 0.0
H1296 H 0.52844 0.58038 0.34374 0.0
H1297 H 0.53574 0.5341 0.32459 0.0
H1298 H 0.48052 0.43572 0.3306 0.0
H1299 H 0.50591 0.46634 0.32969 0.0
C1300 C 0.46587 0.08107 0.58273 0.0
C1301 C 0.44758 0.07685 0.58727 0.0
C1302 C 0.48295 0.06604 0.58229 0.0
C1303 C 0.50735 0.02089 0.59306 0.0
H1304 H 0.53805 1.00836 0.57449 0.0
C1305 C 0.57037 0.9522 0.59135 0.0
C1306 C 0.58998 0.95653 0.58755 0.0
C1307 C 0.55284 0.96657 0.59086 0.0
C1308 C 0.52976 1.01186 0.57973 0.0
H1309 H 0.43239 0.05308 0.59461 0.0
H1310 H 0.46204 0.02686 0.59381 0.0
H1311 H 0.50751 0.0339 0.57441 0.0
H1312 H 0.60637 0.97918 0.5801 0.0
H1313 H 0.57565 1.00441 0.57924 0.0
H1314 H 0.52953 0.999 0.59839 0.0
C1315 C 0.46346 0.04199 0.59073 0.0
C1316 C 0.51227 0.02648 0.57969 0.0
C1317 C 0.44644 0.057 0.59117 0.0
C1318 C 0.59143 0.97531 0.58305 0.0
C1319 C 0.57383 0.98975 0.58256 0.0
C1320 C 0.52477 1.00631 0.5931 0.0
C1321 C 0.48208 0.04646 0.58638 0.0
C1322 C 0.50077 0.03106 0.58635 0.0
C1323 C 0.55444 0.98568 0.58655 0.0
C1324 C 0.53612 1.0015 0.58644 0.0
H1325 H 0.46733 0.09631 0.57971 0.0
H1326 H 0.49714 0.07008 0.57894 0.0
H1327 H 0.4992 0.02441 0.59832 0.0
H1328 H 0.56854 0.93763 0.59473 0.0
H1329 H 0.53797 0.96269 0.59387 0.0
C1330 C 0.9604 0.96513 0.83296 0.0
C1331 C 0.96452 0.94686 0.8375 0.0
C1332 C 0.9755 0.9822 0.83257 0.0
C1333 C 1.02064 1.00657 0.84344 0.0
H1334 H 0.03345 0.03737 0.82492 0.0
C1335 C 0.08949 0.06976 0.84189 0.0
C1336 C 0.08521 0.08931 0.83806 0.0
C1337 C 0.07508 0.05222 0.84138 0.0
C1338 C 0.02987 0.02905 0.83014 0.0
H1339 H 0.98822 0.93169 0.84488 0.0
H1340 H 1.01455 0.96133 0.84416 0.0
H1341 H 1.00784 1.00681 0.82477 0.0
H1342 H 0.06259 0.10558 0.83057 0.0
H1343 H 0.03731 0.07485 0.82969 0.0
H1344 H 0.04251 0.02874 0.84883 0.0
C1345 C 0.99944 0.96274 0.84104 0.0
C1346 C 1.01521 1.01155 0.83006 0.0
C1347 C 0.98436 0.94573 0.84145 0.0
C1348 C 0.06643 0.09069 0.83354 0.0
C1349 C 0.05196 0.07308 0.83303 0.0
C1350 C 0.03525 0.024 0.84352 0.0
C1351 C 0.99505 0.98134 0.83669 0.0
C1352 C 1.01052 1.00003 0.8367 0.0
C1353 C 0.05599 0.05375 0.83703 0.0
C1354 C 0.04015 0.03539 0.83687 0.0
H1355 H 0.94518 0.96658 0.82991 0.0
H1356 H 0.97152 0.99637 0.82922 0.0
H1357 H 1.01703 0.99839 0.84869 0.0
H1358 H 0.10406 0.06798 0.84528 0.0
H1359 H 0.07893 0.0374 0.84439 0.0
loop_
_geom_bond_atom_site_label_1
_geom_bond_atom_site_label_2
_geom_bond_distance
_geom_bond_site_symmetry_2
_ccdc_geom_bond_type
C0 C1 1.264 . S
C0 C5 1.479 . S
C0 C10 1.465 . S
C1 C0 1.264 . S
C1 C3 1.339 . S
C1 H28 0.931 . S
C2 C3 1.395 . S
C2 C4 1.320 . S
C3 C1 1.339 . S
C3 C2 1.395 . S
C3 H29 0.929 . S
C4 C2 1.320 . S
C4 C5 1.405 . S
C4 H30 0.930 . S
C5 C0 1.479 . S
C5 C4 1.405 . S
C5 H31 0.931 . S
U6 O7 2.454 . S
U6 O8 2.458 . S
U6 C9 2.984 . S
U6 C10 2.847 . S
U6 C23 2.882 . S
U6 O24 2.441 . S
U6 O25 2.420 . S
U6 O26 2.455 . S
U6 O27 2.449 . S
O7 U6 2.454 . S
O7 C9 1.353 . S
O8 U6 2.458 . S
O8 C9 1.286 . S
C9 U6 2.984 . S
C9 O7 1.353 . S
C9 O8 1.286 . S
C9 C11 1.363 . S
C10 C0 1.465 . S
C10 U6 2.847 . S
C10 O24 1.249 . S
C10 O25 1.202 . S
C11 C9 1.363 . S
C11 C13 1.408 . S
C11 C16 1.342 . S
C12 C13 1.310 . S
C12 C15 1.461 . S
C12 H32 0.932 . S
C13 C11 1.408 . S
C13 C12 1.310 . S
C13 H33 0.930 . S
C14 C15 1.474 . S
C14 C16 1.285 . S
C14 H34 0.929 . S
C15 C12 1.461 . S
C15 C14 1.474 . S
C16 C11 1.342 . S
C16 C14 1.285 . S
C16 H35 0.930 . S
C17 C20 1.424 . S
C17 C22 1.245 . S
C17 C23 1.428 . S
C18 C21 1.260 . S
C18 C22 1.477 . S
C18 H36 0.932 . S
C19 C20 1.384 . S
C19 C21 1.479 . S
C19 H37 0.929 . S
C20 C17 1.424 . S
C20 C19 1.384 . S
C20 H38 0.928 . S
C21 C18 1.260 . S
C21 C19 1.479 . S
C22 C17 1.245 . S
C22 C18 1.477 . S
C22 H39 0.932 . S
C23 U6 2.882 . S
C23 C17 1.428 . S
C23 O26 1.301 . S
C23 O27 1.282 . S
O24 U6 2.441 . S
O24 C10 1.249 . S
O25 U6 2.420 . S
O25 C10 1.202 . S
O26 U6 2.455 . S
O26 C23 1.301 . S
O27 U6 2.449 . S
O27 C23 1.282 . S
H28 C1 0.931 . S
H29 C3 0.929 . S
H30 C4 0.930 . S
H31 C5 0.931 . S
H32 C12 0.932 . S
H33 C13 0.930 . S
H34 C14 0.929 . S
H35 C16 0.930 . S
H36 C18 0.932 . S
H37 C19 0.929 . S
H38 C20 0.928 . S
H39 C22 0.932 . S
C40 C41 1.264 . S
C40 C45 1.479 . S
C40 C50 1.465 . S
C41 C40 1.264 . S
C41 C43 1.339 . S
C41 H68 0.931 . S
C42 C43 1.395 . S
C42 C44 1.320 . S
C43 C41 1.339 . S
C43 C42 1.395 . S
C43 H69 0.929 . S
C44 C42 1.320 . S
C44 C45 1.405 . S
C44 H70 0.930 . S
C45 C40 1.479 . S
C45 C44 1.405 . S
C45 H71 0.931 . S
U46 O47 2.454 . S
U46 O48 2.458 . S
U46 C49 2.984 . S
U46 C50 2.847 . S
U46 C63 2.882 . S
U46 O64 2.441 . S
U46 O65 2.420 . S
U46 O66 2.455 . S
U46 O67 2.449 . S
O47 U46 2.454 . S
O47 C49 1.353 . S
O48 U46 2.458 . S
O48 C49 1.286 . S
C49 U46 2.984 . S
C49 O47 1.353 . S
C49 O48 1.286 . S
C49 C51 1.363 . S
C50 C40 1.465 . S
C50 U46 2.847 . S
C50 O64 1.249 . S
C50 O65 1.202 . S
C51 C49 1.363 . S
C51 C53 1.408 . S
C51 C56 1.342 . S
C52 C53 1.310 . S
C52 C55 1.461 . S
C52 H72 0.932 . S
C53 C51 1.408 . S
C53 C52 1.310 . S
C53 H73 0.930 . S
C54 C55 1.474 . S
C54 C56 1.285 . S
C54 H74 0.929 . S
C55 C52 1.461 . S
C55 C54 1.474 . S
C56 C51 1.342 . S
C56 C54 1.285 . S
C56 H75 0.930 . S
C57 C60 1.424 . S
C57 C62 1.245 . S
C57 C63 1.428 . S
C58 C61 1.260 . S
C58 C62 1.477 . S
C58 H76 0.932 . S
C59 C60 1.384 . S
C59 C61 1.479 . S
C59 H77 0.929 . S
C60 C57 1.424 . S
C60 C59 1.384 . S
C60 H78 0.928 . S
C61 C58 1.260 . S
C61 C59 1.479 . S
C62 C57 1.245 . S
C62 C58 1.477 . S
C62 H79 0.932 . S
C63 U46 2.882 . S
C63 C57 1.428 . S
C63 O66 1.301 . S
C63 O67 1.282 . S
O64 U46 2.441 . S
O64 C50 1.249 . S
O65 U46 2.420 . S
O65 C50 1.202 . S
O66 U46 2.455 . S
O66 C63 1.301 . S
O67 U46 2.449 . S
O67 C63 1.282 . S
H68 C41 0.931 . S
H69 C43 0.929 . S
H70 C44 0.930 . S
H71 C45 0.931 . S
H72 C52 0.932 . S
H73 C53 0.930 . S
H74 C54 0.929 . S
H75 C56 0.930 . S
H76 C58 0.932 . S
H77 C59 0.929 . S
H78 C60 0.928 . S
H79 C62 0.932 . S
C80 C81 1.264 . S
C80 C85 1.479 . S
C80 C90 1.465 . S
C81 C80 1.264 . S
C81 C83 1.339 . S
C81 H108 0.931 . S
C82 C83 1.395 . S
C82 C84 1.320 . S
C83 C81 1.339 . S
C83 C82 1.395 . S
C83 H109 0.929 . S
C84 C82 1.320 . S
C84 C85 1.405 . S
C84 H110 0.930 . S
C85 C80 1.479 . S
C85 C84 1.405 . S
C85 H111 0.931 . S
U86 O87 2.454 . S
U86 O88 2.458 . S
U86 C89 2.984 . S
U86 C90 2.847 . S
U86 C103 2.882 . S
U86 O104 2.441 . S
U86 O105 2.420 . S
U86 O106 2.455 . S
U86 O107 2.449 . S
O87 U86 2.454 . S
O87 C89 1.353 . S
O88 U86 2.458 . S
O88 C89 1.286 . S
C89 U86 2.984 . S
C89 O87 1.353 . S
C89 O88 1.286 . S
C89 C91 1.363 . S
C90 C80 1.465 . S
C90 U86 2.847 . S
C90 O104 1.249 . S
C90 O105 1.202 . S
C91 C89 1.363 . S
C91 C93 1.408 . S
C91 C96 1.342 . S
C92 C93 1.310 . S
C92 C95 1.461 . S
C92 H112 0.932 . S
C93 C91 1.408 . S
C93 C92 1.310 . S
C93 H113 0.930 . S
C94 C95 1.474 . S
C94 C96 1.285 . S
C94 H114 0.929 . S
C95 C92 1.461 . S
C95 C94 1.474 . S
C96 C91 1.342 . S
C96 C94 1.285 . S
C96 H115 0.930 . S
C97 C100 1.424 . S
C97 C102 1.245 . S
C97 C103 1.428 . S
C98 C101 1.260 . S
C98 C102 1.477 . S
C98 H116 0.932 . S
C99 C100 1.384 . S
C99 C101 1.479 . S
C99 H117 0.929 . S
C100 C97 1.424 . S
C100 C99 1.384 . S
C100 H118 0.928 . S
C101 C98 1.260 . S
C101 C99 1.479 . S
C102 C97 1.245 . S
C102 C98 1.477 . S
C102 H119 0.932 . S
C103 U86 2.882 . S
C103 C97 1.428 . S
C103 O106 1.301 . S
C103 O107 1.282 . S
O104 U86 2.441 . S
O104 C90 1.249 . S
O105 U86 2.420 . S
O105 C90 1.202 . S
O106 U86 2.455 . S
O106 C103 1.301 . S
O107 U86 2.449 . S
O107 C103 1.282 . S
H108 C81 0.931 . S
H109 C83 0.929 . S
H110 C84 0.930 . S
H111 C85 0.931 . S
H112 C92 0.932 . S
H113 C93 0.930 . S
H114 C94 0.929 . S
H115 C96 0.930 . S
H116 C98 0.932 . S
H117 C99 0.929 . S
H118 C100 0.928 . S
H119 C102 0.932 . S
C120 C121 1.264 . S
C120 C125 1.479 . S
C120 C130 1.465 . S
C121 C120 1.264 . S
C121 C123 1.339 . S
C121 H148 0.931 . S
C122 C123 1.395 . S
C122 C124 1.320 . S
C123 C121 1.339 . S
C123 C122 1.395 . S
C123 H149 0.929 . S
C124 C122 1.320 . S
C124 C125 1.405 . S
C124 H150 0.930 . S
C125 C120 1.479 . S
C125 C124 1.405 . S
C125 H151 0.931 . S
U126 O127 2.454 . S
U126 O128 2.458 . S
U126 C129 2.984 . S
U126 C130 2.847 . S
U126 C143 2.882 . S
U126 O144 2.441 . S
U126 O145 2.420 . S
U126 O146 2.455 . S
U126 O147 2.449 . S
O127 U126 2.454 . S
O127 C129 1.353 . S
O128 U126 2.458 . S
O128 C129 1.286 . S
C129 U126 2.984 . S
C129 O127 1.353 . S
C129 O128 1.286 . S
C129 C131 1.363 . S
C130 C120 1.465 . S
C130 U126 2.847 . S
C130 O144 1.249 . S
C130 O145 1.202 . S
C131 C129 1.363 . S
C131 C133 1.408 . S
C131 C136 1.342 . S
C132 C133 1.310 . S
C132 C135 1.461 . S
C132 H152 0.932 . S
C133 C131 1.408 . S
C133 C132 1.310 . S
C133 H153 0.930 . S
C134 C135 1.474 . S
C134 C136 1.285 . S
C134 H154 0.929 . S
C135 C132 1.461 . S
C135 C134 1.474 . S
C136 C131 1.342 . S
C136 C134 1.285 . S
C136 H155 0.930 . S
C137 C140 1.424 . S
C137 C142 1.245 . S
C137 C143 1.428 . S
C138 C141 1.260 . S
C138 C142 1.477 . S
C138 H156 0.932 . S
C139 C140 1.384 . S
C139 C141 1.479 . S
C139 H157 0.929 . S
C140 C137 1.424 . S
C140 C139 1.384 . S
C140 H158 0.928 . S
C141 C138 1.260 . S
C141 C139 1.479 . S
C142 C137 1.245 . S
C142 C138 1.477 . S
C142 H159 0.932 . S
C143 U126 2.882 . S
C143 C137 1.428 . S
C143 O146 1.301 . S
C143 O147 1.282 . S
O144 U126 2.441 . S
O144 C130 1.249 . S
O145 U126 2.420 . S
O145 C130 1.202 . S
O146 U126 2.455 . S
O146 C143 1.301 . S
O147 U126 2.449 . S
O147 C143 1.282 . S
H148 C121 0.931 . S
H149 C123 0.929 . S
H150 C124 0.930 . S
H151 C125 0.931 . S
H152 C132 0.932 . S
H153 C133 0.930 . S
H154 C134 0.929 . S
H155 C136 0.930 . S
H156 C138 0.932 . S
H157 C139 0.929 . S
H158 C140 0.928 . S
H159 C142 0.932 . S
C160 C161 1.264 . S
C160 C165 1.479 . S
C160 C170 1.465 . S
C161 C160 1.264 . S
C161 C163 1.339 . S
C161 H188 0.931 . S
C162 C163 1.395 . S
C162 C164 1.320 . S
C163 C161 1.339 . S
C163 C162 1.395 . S
C163 H189 0.929 . S
C164 C162 1.320 . S
C164 C165 1.405 . S
C164 H190 0.930 . S
C165 C160 1.479 . S
C165 C164 1.405 . S
C165 H191 0.931 . S
U166 O167 2.454 . S
U166 O168 2.458 . S
U166 C169 2.984 . S
U166 C170 2.847 . S
U166 C183 2.882 . S
U166 O184 2.441 . S
U166 O185 2.420 . S
U166 O186 2.455 . S
U166 O187 2.449 . S
O167 U166 2.454 . S
O167 C169 1.353 . S
O168 U166 2.458 . S
O168 C169 1.286 . S
C169 U166 2.984 . S
C169 O167 1.353 . S
C169 O168 1.286 . S
C169 C171 1.363 . S
C170 C160 1.465 . S
C170 U166 2.847 . S
C170 O184 1.249 . S
C170 O185 1.202 . S
C171 C169 1.363 . S
C171 C173 1.408 . S
C171 C176 1.342 . S
C172 C173 1.310 . S
C172 C175 1.461 . S
C172 H192 0.932 . S
C173 C171 1.408 . S
C173 C172 1.310 . S
C173 H193 0.930 . S
C174 C175 1.474 . S
C174 C176 1.285 . S
C174 H194 0.929 . S
C175 C172 1.461 . S
C175 C174 1.474 . S
C176 C171 1.342 . S
C176 C174 1.285 . S
C176 H195 0.930 . S
C177 C180 1.424 . S
C177 C182 1.245 . S
C177 C183 1.428 . S
C178 C181 1.260 . S
C178 C182 1.477 . S
C178 H196 0.932 . S
C179 C180 1.384 . S
C179 C181 1.479 . S
C179 H197 0.929 . S
C180 C177 1.424 . S
C180 C179 1.384 . S
C180 H198 0.928 . S
C181 C178 1.260 . S
C181 C179 1.479 . S
C182 C177 1.245 . S
C182 C178 1.477 . S
C182 H199 0.932 . S
C183 U166 2.882 . S
C183 C177 1.428 . S
C183 O186 1.301 . S
C183 O187 1.282 . S
O184 U166 2.441 . S
O184 C170 1.249 . S
O185 U166 2.420 . S
O185 C170 1.202 . S
O186 U166 2.455 . S
O186 C183 1.301 . S
O187 U166 2.449 . S
O187 C183 1.282 . S
H188 C161 0.931 . S
H189 C163 0.929 . S
H190 C164 0.930 . S
H191 C165 0.931 . S
H192 C172 0.932 . S
H193 C173 0.930 . S
H194 C174 0.929 . S
H195 C176 0.930 . S
H196 C178 0.932 . S
H197 C179 0.929 . S
H198 C180 0.928 . S
H199 C182 0.932 . S
C200 C201 1.264 . S
C200 C205 1.479 . S
C200 C210 1.465 . S
C201 C200 1.264 . S
C201 C203 1.339 . S
C201 H228 0.931 . S
C202 C203 1.395 . S
C202 C204 1.320 . S
C203 C201 1.339 . S
C203 C202 1.395 . S
C203 H229 0.929 . S
C204 C202 1.320 . S
C204 C205 1.405 . S
C204 H230 0.930 . S
C205 C200 1.479 . S
C205 C204 1.405 . S
C205 H231 0.931 . S
U206 O207 2.454 . S
U206 O208 2.458 . S
U206 C209 2.984 . S
U206 C210 2.847 . S
U206 C223 2.882 . S
U206 O224 2.441 . S
U206 O225 2.420 . S
U206 O226 2.455 . S
U206 O227 2.449 . S
O207 U206 2.454 . S
O207 C209 1.353 . S
O208 U206 2.458 . S
O208 C209 1.286 . S
C209 U206 2.984 . S
C209 O207 1.353 . S
C209 O208 1.286 . S
C209 C211 1.363 . S
C210 C200 1.465 . S
C210 U206 2.847 . S
C210 O224 1.249 . S
C210 O225 1.202 . S
C211 C209 1.363 . S
C211 C213 1.408 . S
C211 C216 1.342 . S
C212 C213 1.310 . S
C212 C215 1.461 . S
C212 H232 0.932 . S
C213 C211 1.408 . S
C213 C212 1.310 . S
C213 H233 0.930 . S
C214 C215 1.474 . S
C214 C216 1.285 . S
C214 H234 0.929 . S
C215 C212 1.461 . S
C215 C214 1.474 . S
C216 C211 1.342 . S
C216 C214 1.285 . S
C216 H235 0.930 . S
C217 C220 1.424 . S
C217 C222 1.245 . S
C217 C223 1.428 . S
C218 C221 1.260 . S
C218 C222 1.477 . S
C218 H236 0.932 . S
C219 C220 1.384 . S
C219 C221 1.479 . S
C219 H237 0.929 . S
C220 C217 1.424 . S
C220 C219 1.384 . S
C220 H238 0.928 . S
C221 C218 1.260 . S
C221 C219 1.479 . S
C222 C217 1.245 . S
C222 C218 1.477 . S
C222 H239 0.932 . S
C223 U206 2.882 . S
C223 C217 1.428 . S
C223 O226 1.301 . S
C223 O227 1.282 . S
O224 U206 2.441 . S
O224 C210 1.249 . S
O225 U206 2.420 . S
O225 C210 1.202 . S
O226 U206 2.455 . S
O226 C223 1.301 . S
O227 U206 2.449 . S
O227 C223 1.282 . S
H228 C201 0.931 . S
H229 C203 0.929 . S
H230 C204 0.930 . S
H231 C205 0.931 . S
H232 C212 0.932 . S
H233 C213 0.930 . S
H234 C214 0.929 . S
H235 C216 0.930 . S
H236 C218 0.932 . S
H237 C219 0.929 . S
H238 C220 0.928 . S
H239 C222 0.932 . S
C240 C241 1.264 . S
C240 C245 1.479 . S
C240 C250 1.465 . S
C241 C240 1.264 . S
C241 C243 1.339 . S
C241 H268 0.931 . S
C242 C243 1.395 . S
C242 C244 1.320 . S
C243 C241 1.339 . S
C243 C242 1.395 . S
C243 H269 0.929 . S
C244 C242 1.320 . S
C244 C245 1.405 . S
C244 H270 0.930 . S
C245 C240 1.479 . S
C245 C244 1.405 . S
C245 H271 0.931 . S
U246 O247 2.454 . S
U246 O248 2.458 . S
U246 C249 2.984 . S
U246 C250 2.847 . S
U246 C263 2.882 . S
U246 O264 2.441 . S
U246 O265 2.420 . S
U246 O266 2.455 . S
U246 O267 2.449 . S
O247 U246 2.454 . S
O247 C249 1.353 . S
O248 U246 2.458 . S
O248 C249 1.286 . S
C249 U246 2.984 . S
C249 O247 1.353 . S
C249 O248 1.286 . S
C249 C251 1.363 . S
C250 C240 1.465 . S
C250 U246 2.847 . S
C250 O264 1.249 . S
C250 O265 1.202 . S
C251 C249 1.363 . S
C251 C253 1.408 . S
C251 C256 1.342 . S
C252 C253 1.310 . S
C252 C255 1.461 . S
C252 H272 0.932 . S
C253 C251 1.408 . S
C253 C252 1.310 . S
C253 H273 0.930 . S
C254 C255 1.474 . S
C254 C256 1.285 . S
C254 H274 0.929 . S
C255 C252 1.461 . S
C255 C254 1.474 . S
C256 C251 1.342 . S
C256 C254 1.285 . S
C256 H275 0.930 . S
C257 C260 1.424 . S
C257 C262 1.245 . S
C257 C263 1.428 . S
C258 C261 1.260 . S
C258 C262 1.477 . S
C258 H276 0.932 . S
C259 C260 1.384 . S
C259 C261 1.479 . S
C259 H277 0.929 . S
C260 C257 1.424 . S
C260 C259 1.384 . S
C260 H278 0.928 . S
C261 C258 1.260 . S
C261 C259 1.479 . S
C262 C257 1.245 . S
C262 C258 1.477 . S
C262 H279 0.932 . S
C263 U246 2.882 . S
C263 C257 1.428 . S
C263 O266 1.301 . S
C263 O267 1.282 . S
O264 U246 2.441 . S
O264 C250 1.249 . S
O265 U246 2.420 . S
O265 C250 1.202 . S
O266 U246 2.455 . S
O266 C263 1.301 . S
O267 U246 2.449 . S
O267 C263 1.282 . S
H268 C241 0.931 . S
H269 C243 0.929 . S
H270 C244 0.930 . S
H271 C245 0.931 . S
H272 C252 0.932 . S
H273 C253 0.930 . S
H274 C254 0.929 . S
H275 C256 0.930 . S
H276 C258 0.932 . S
H277 C259 0.929 . S
H278 C260 0.928 . S
H279 C262 0.932 . S
C280 C281 1.264 . S
C280 C285 1.479 . S
C280 C290 1.465 . S
C281 C280 1.264 . S
C281 C283 1.339 . S
C281 H308 0.931 . S
C282 C283 1.395 . S
C282 C284 1.320 . S
C283 C281 1.339 . S
C283 C282 1.395 . S
C283 H309 0.929 . S
C284 C282 1.320 . S
C284 C285 1.405 . S
C284 H310 0.930 . S
C285 C280 1.479 . S
C285 C284 1.405 . S
C285 H311 0.931 . S
U286 O287 2.454 . S
U286 O288 2.458 . S
U286 C289 2.984 . S
U286 C290 2.847 . S
U286 C303 2.882 . S
U286 O304 2.441 . S
U286 O305 2.420 . S
U286 O306 2.455 . S
U286 O307 2.449 . S
O287 U286 2.454 . S
O287 C289 1.353 . S
O288 U286 2.458 . S
O288 C289 1.286 . S
C289 U286 2.984 . S
C289 O287 1.353 . S
C289 O288 1.286 . S
C289 C291 1.363 . S
C290 C280 1.465 . S
C290 U286 2.847 . S
C290 O304 1.249 . S
C290 O305 1.202 . S
C291 C289 1.363 . S
C291 C293 1.408 . S
C291 C296 1.342 . S
C292 C293 1.310 . S
C292 C295 1.461 . S
C292 H312 0.932 . S
C293 C291 1.408 . S
C293 C292 1.310 . S
C293 H313 0.930 . S
C294 C295 1.474 . S
C294 C296 1.285 . S
C294 H314 0.929 . S
C295 C292 1.461 . S
C295 C294 1.474 . S
C296 C291 1.342 . S
C296 C294 1.285 . S
C296 H315 0.930 . S
C297 C300 1.424 . S
C297 C302 1.245 . S
C297 C303 1.428 . S
C298 C301 1.260 . S
C298 C302 1.477 . S
C298 H316 0.932 . S
C299 C300 1.384 . S
C299 C301 1.479 . S
C299 H317 0.929 . S
C300 C297 1.424 . S
C300 C299 1.384 . S
C300 H318 0.928 . S
C301 C298 1.260 . S
C301 C299 1.479 . S
C302 C297 1.245 . S
C302 C298 1.477 . S
C302 H319 0.932 . S
C303 U286 2.882 . S
C303 C297 1.428 . S
C303 O306 1.301 . S
C303 O307 1.282 . S
O304 U286 2.441 . S
O304 C290 1.249 . S
O305 U286 2.420 . S
O305 C290 1.202 . S
O306 U286 2.455 . S
O306 C303 1.301 . S
O307 U286 2.449 . S
O307 C303 1.282 . S
H308 C281 0.931 . S
H309 C283 0.929 . S
H310 C284 0.930 . S
H311 C285 0.931 . S
H312 C292 0.932 . S
H313 C293 0.930 . S
H314 C294 0.929 . S
H315 C296 0.930 . S
H316 C298 0.932 . S
H317 C299 0.929 . S
H318 C300 0.928 . S
H319 C302 0.932 . S
C320 C321 1.264 . S
C320 C325 1.479 . S
C320 C330 1.465 . S
C321 C320 1.264 . S
C321 C323 1.339 . S
C321 H348 0.931 . S
C322 C323 1.395 . S
C322 C324 1.320 . S
C323 C321 1.339 . S
C323 C322 1.395 . S
C323 H349 0.929 . S
C324 C322 1.320 . S
C324 C325 1.405 . S
C324 H350 0.930 . S
C325 C320 1.479 . S
C325 C324 1.405 . S
C325 H351 0.931 . S
U326 O327 2.454 . S
U326 O328 2.458 . S
U326 C329 2.984 . S
U326 C330 2.847 . S
U326 C343 2.882 . S
U326 O344 2.441 . S
U326 O345 2.420 . S
U326 O346 2.455 . S
U326 O347 2.449 . S
O327 U326 2.454 . S
O327 C329 1.353 . S
O328 U326 2.458 . S
O328 C329 1.286 . S
C329 U326 2.984 . S
C329 O327 1.353 . S
C329 O328 1.286 . S
C329 C331 1.363 . S
C330 C320 1.465 . S
C330 U326 2.847 . S
C330 O344 1.249 . S
C330 O345 1.202 . S
C331 C329 1.363 . S
C331 C333 1.408 . S
C331 C336 1.342 . S
C332 C333 1.310 . S
C332 C335 1.461 . S
C332 H352 0.932 . S
C333 C331 1.408 . S
C333 C332 1.310 . S
C333 H353 0.930 . S
C334 C335 1.474 . S
C334 C336 1.285 . S
C334 H354 0.929 . S
C335 C332 1.461 . S
C335 C334 1.474 . S
C336 C331 1.342 . S
C336 C334 1.285 . S
C336 H355 0.930 . S
C337 C340 1.424 . S
C337 C342 1.245 . S
C337 C343 1.428 . S
C338 C341 1.260 . S
C338 C342 1.477 . S
C338 H356 0.932 . S
C339 C340 1.384 . S
C339 C341 1.479 . S
C339 H357 0.929 . S
C340 C337 1.424 . S
C340 C339 1.384 . S
C340 H358 0.928 . S
C341 C338 1.260 . S
C341 C339 1.479 . S
C342 C337 1.245 . S
C342 C338 1.477 . S
C342 H359 0.932 . S
C343 U326 2.882 . S
C343 C337 1.428 . S
C343 O346 1.301 . S
C343 O347 1.282 . S
O344 U326 2.441 . S
O344 C330 1.249 . S
O345 U326 2.420 . S
O345 C330 1.202 . S
O346 U326 2.455 . S
O346 C343 1.301 . S
O347 U326 2.449 . S
O347 C343 1.282 . S
H348 C321 0.931 . S
H349 C323 0.929 . S
H350 C324 0.930 . S
H351 C325 0.931 . S
H352 C332 0.932 . S
H353 C333 0.930 . S
H354 C334 0.929 . S
H355 C336 0.930 . S
H356 C338 0.932 . S
H357 C339 0.929 . S
H358 C340 0.928 . S
H359 C342 0.932 . S
C360 C361 1.264 . S
C360 C365 1.479 . S
C360 C370 1.465 . S
C361 C360 1.264 . S
C361 C363 1.339 . S
C361 H388 0.931 . S
C362 C363 1.395 . S
C362 C364 1.320 . S
C363 C361 1.339 . S
C363 C362 1.395 . S
C363 H389 0.929 . S
C364 C362 1.320 . S
C364 C365 1.405 . S
C364 H390 0.930 . S
C365 C360 1.479 . S
C365 C364 1.405 . S
C365 H391 0.931 . S
U366 O367 2.454 . S
U366 O368 2.458 . S
U366 C369 2.984 . S
U366 C370 2.847 . S
U366 C383 2.882 . S
U366 O384 2.441 . S
U366 O385 2.420 . S
U366 O386 2.455 . S
U366 O387 2.449 . S
O367 U366 2.454 . S
O367 C369 1.353 . S
O368 U366 2.458 . S
O368 C369 1.286 . S
C369 U366 2.984 . S
C369 O367 1.353 . S
C369 O368 1.286 . S
C369 C371 1.363 . S
C370 C360 1.465 . S
C370 U366 2.847 . S
C370 O384 1.249 . S
C370 O385 1.202 . S
C371 C369 1.363 . S
C371 C373 1.408 . S
C371 C376 1.342 . S
C372 C373 1.310 . S
C372 C375 1.461 . S
C372 H392 0.932 . S
C373 C371 1.408 . S
C373 C372 1.310 . S
C373 H393 0.930 . S
C374 C375 1.474 . S
C374 C376 1.285 . S
C374 H394 0.929 . S
C375 C372 1.461 . S
C375 C374 1.474 . S
C376 C371 1.342 . S
C376 C374 1.285 . S
C376 H395 0.930 . S
C377 C380 1.424 . S
C377 C382 1.245 . S
C377 C383 1.428 . S
C378 C381 1.260 . S
C378 C382 1.477 . S
C378 H396 0.932 . S
C379 C380 1.384 . S
C379 C381 1.479 . S
C379 H397 0.929 . S
C380 C377 1.424 . S
C380 C379 1.384 . S
C380 H398 0.928 . S
C381 C378 1.260 . S
C381 C379 1.479 . S
C382 C377 1.245 . S
C382 C378 1.477 . S
C382 H399 0.932 . S
C383 U366 2.882 . S
C383 C377 1.428 . S
C383 O386 1.301 . S
C383 O387 1.282 . S
O384 U366 2.441 . S
O384 C370 1.249 . S
O385 U366 2.420 . S
O385 C370 1.202 . S
O386 U366 2.455 . S
O386 C383 1.301 . S
O387 U366 2.449 . S
O387 C383 1.282 . S
H388 C361 0.931 . S
H389 C363 0.929 . S
H390 C364 0.930 . S
H391 C365 0.931 . S
H392 C372 0.932 . S
H393 C373 0.930 . S
H394 C374 0.929 . S
H395 C376 0.930 . S
H396 C378 0.932 . S
H397 C379 0.929 . S
H398 C380 0.928 . S
H399 C382 0.932 . S
C400 C401 1.264 . S
C400 C405 1.479 . S
C400 C410 1.465 . S
C401 C400 1.264 . S
C401 C403 1.339 . S
C401 H428 0.931 . S
C402 C403 1.395 . S
C402 C404 1.320 . S
C403 C401 1.339 . S
C403 C402 1.395 . S
C403 H429 0.929 . S
C404 C402 1.320 . S
C404 C405 1.405 . S
C404 H430 0.930 . S
C405 C400 1.479 . S
C405 C404 1.405 . S
C405 H431 0.931 . S
U406 O407 2.454 . S
U406 O408 2.458 . S
U406 C409 2.984 . S
U406 C410 2.847 . S
U406 C423 2.882 . S
U406 O424 2.441 . S
U406 O425 2.420 . S
U406 O426 2.455 . S
U406 O427 2.449 . S
O407 U406 2.454 . S
O407 C409 1.353 . S
O408 U406 2.458 . S
O408 C409 1.286 . S
C409 U406 2.984 . S
C409 O407 1.353 . S
C409 O408 1.286 . S
C409 C411 1.363 . S
C410 C400 1.465 . S
C410 U406 2.847 . S
C410 O424 1.249 . S
C410 O425 1.202 . S
C411 C409 1.363 . S
C411 C413 1.408 . S
C411 C416 1.342 . S
C412 C413 1.310 . S
C412 C415 1.461 . S
C412 H432 0.932 . S
C413 C411 1.408 . S
C413 C412 1.310 . S
C413 H433 0.930 . S
C414 C415 1.474 . S
C414 C416 1.285 . S
C414 H434 0.929 . S
C415 C412 1.461 . S
C415 C414 1.474 . S
C416 C411 1.342 . S
C416 C414 1.285 . S
C416 H435 0.930 . S
C417 C420 1.424 . S
C417 C422 1.245 . S
C417 C423 1.428 . S
C418 C421 1.260 . S
C418 C422 1.477 . S
C418 H436 0.932 . S
C419 C420 1.384 . S
C419 C421 1.479 . S
C419 H437 0.929 . S
C420 C417 1.424 . S
C420 C419 1.384 . S
C420 H438 0.928 . S
C421 C418 1.260 . S
C421 C419 1.479 . S
C422 C417 1.245 . S
C422 C418 1.477 . S
C422 H439 0.932 . S
C423 U406 2.882 . S
C423 C417 1.428 . S
C423 O426 1.301 . S
C423 O427 1.282 . S
O424 U406 2.441 . S
O424 C410 1.249 . S
O425 U406 2.420 . S
O425 C410 1.202 . S
O426 U406 2.455 . S
O426 C423 1.301 . S
O427 U406 2.449 . S
O427 C423 1.282 . S
H428 C401 0.931 . S
H429 C403 0.929 . S
H430 C404 0.930 . S
H431 C405 0.931 . S
H432 C412 0.932 . S
H433 C413 0.930 . S
H434 C414 0.929 . S
H435 C416 0.930 . S
H436 C418 0.932 . S
H437 C419 0.929 . S
H438 C420 0.928 . S
H439 C422 0.932 . S
C440 C441 1.264 . S
C440 C445 1.479 . S
C440 C450 1.465 . S
C441 C440 1.264 . S
C441 C443 1.339 . S
C441 H468 0.931 . S
C442 C443 1.395 . S
C442 C444 1.320 . S
C443 C441 1.339 . S
C443 C442 1.395 . S
C443 H469 0.929 . S
C444 C442 1.320 . S
C444 C445 1.405 . S
C444 H470 0.930 . S
C445 C440 1.479 . S
C445 C444 1.405 . S
C445 H471 0.931 . S
U446 O447 2.454 . S
U446 O448 2.458 . S
U446 C449 2.984 . S
U446 C450 2.847 . S
U446 C463 2.882 . S
U446 O464 2.441 . S
U446 O465 2.420 . S
U446 O466 2.455 . S
U446 O467 2.449 . S
O447 U446 2.454 . S
O447 C449 1.353 . S
O448 U446 2.458 . S
O448 C449 1.286 . S
C449 U446 2.984 . S
C449 O447 1.353 . S
C449 O448 1.286 . S
C449 C451 1.363 . S
C450 C440 1.465 . S
C450 U446 2.847 . S
C450 O464 1.249 . S
C450 O465 1.202 . S
C451 C449 1.363 . S
C451 C453 1.408 . S
C451 C456 1.342 . S
C452 C453 1.310 . S
C452 C455 1.461 . S
C452 H472 0.932 . S
C453 C451 1.408 . S
C453 C452 1.310 . S
C453 H473 0.930 . S
C454 C455 1.474 . S
C454 C456 1.285 . S
C454 H474 0.929 . S
C455 C452 1.461 . S
C455 C454 1.474 . S
C456 C451 1.342 . S
C456 C454 1.285 . S
C456 H475 0.930 . S
C457 C460 1.424 . S
C457 C462 1.245 . S
C457 C463 1.428 . S
C458 C461 1.260 . S
C458 C462 1.477 . S
C458 H476 0.932 . S
C459 C460 1.384 . S
C459 C461 1.479 . S
C459 H477 0.929 . S
C460 C457 1.424 . S
C460 C459 1.384 . S
C460 H478 0.928 . S
C461 C458 1.260 . S
C461 C459 1.479 . S
C462 C457 1.245 . S
C462 C458 1.477 . S
C462 H479 0.932 . S
C463 U446 2.882 . S
C463 C457 1.428 . S
C463 O466 1.301 . S
C463 O467 1.282 . S
O464 U446 2.441 . S
O464 C450 1.249 . S
O465 U446 2.420 . S
O465 C450 1.202 . S
O466 U446 2.455 . S
O466 C463 1.301 . S
O467 U446 2.449 . S
O467 C463 1.282 . S
H468 C441 0.931 . S
H469 C443 0.929 . S
H470 C444 0.930 . S
H471 C445 0.931 . S
H472 C452 0.932 . S
H473 C453 0.930 . S
H474 C454 0.929 . S
H475 C456 0.930 . S
H476 C458 0.932 . S
H477 C459 0.929 . S
H478 C460 0.928 . S
H479 C462 0.932 . S
C480 C481 1.264 . S
C480 C485 1.479 . S
C480 C490 1.465 . S
C481 C480 1.264 . S
C481 C483 1.339 . S
C481 H508 0.931 . S
C482 C483 1.395 . S
C482 C484 1.320 . S
C483 C481 1.339 . S
C483 C482 1.395 . S
C483 H509 0.929 . S
C484 C482 1.320 . S
C484 C485 1.405 . S
C484 H510 0.930 . S
C485 C480 1.479 . S
C485 C484 1.405 . S
C485 H511 0.931 . S
U486 O487 2.454 . S
U486 O488 2.458 . S
U486 C489 2.984 . S
U486 C490 2.847 . S
U486 C503 2.882 . S
U486 O504 2.441 . S
U486 O505 2.420 . S
U486 O506 2.455 . S
U486 O507 2.449 . S
O487 U486 2.454 . S
O487 C489 1.353 . S
O488 U486 2.458 . S
O488 C489 1.286 . S
C489 U486 2.984 . S
C489 O487 1.353 . S
C489 O488 1.286 . S
C489 C491 1.363 . S
C490 C480 1.465 . S
C490 U486 2.847 . S
C490 O504 1.249 . S
C490 O505 1.202 . S
C491 C489 1.363 . S
C491 C493 1.408 . S
C491 C496 1.342 . S
C492 C493 1.310 . S
C492 C495 1.461 . S
C492 H512 0.932 . S
C493 C491 1.408 . S
C493 C492 1.310 . S
C493 H513 0.930 . S
C494 C495 1.474 . S
C494 C496 1.285 . S
C494 H514 0.929 . S
C495 C492 1.461 . S
C495 C494 1.474 . S
C496 C491 1.342 . S
C496 C494 1.285 . S
C496 H515 0.930 . S
C497 C500 1.424 . S
C497 C502 1.245 . S
C497 C503 1.428 . S
C498 C501 1.260 . S
C498 C502 1.477 . S
C498 H516 0.932 . S
C499 C500 1.384 . S
C499 C501 1.479 . S
C499 H517 0.929 . S
C500 C497 1.424 . S
C500 C499 1.384 . S
C500 H518 0.928 . S
C501 C498 1.260 . S
C501 C499 1.479 . S
C502 C497 1.245 . S
C502 C498 1.477 . S
C502 H519 0.932 . S
C503 U486 2.882 . S
C503 C497 1.428 . S
C503 O506 1.301 . S
C503 O507 1.282 . S
O504 U486 2.441 . S
O504 C490 1.249 . S
O505 U486 2.420 . S
O505 C490 1.202 . S
O506 U486 2.455 . S
O506 C503 1.301 . S
O507 U486 2.449 . S
O507 C503 1.282 . S
H508 C481 0.931 . S
H509 C483 0.929 . S
H510 C484 0.930 . S
H511 C485 0.931 . S
H512 C492 0.932 . S
H513 C493 0.930 . S
H514 C494 0.929 . S
H515 C496 0.930 . S
H516 C498 0.932 . S
H517 C499 0.929 . S
H518 C500 0.928 . S
H519 C502 0.932 . S
C520 C521 1.264 . S
C520 C525 1.479 . S
C520 C530 1.465 . S
C521 C520 1.264 . S
C521 C523 1.339 . S
C521 H548 0.931 . S
C522 C523 1.395 . S
C522 C524 1.320 . S
C523 C521 1.339 . S
C523 C522 1.395 . S
C523 H549 0.929 . S
C524 C522 1.320 . S
C524 C525 1.405 . S
C524 H550 0.930 . S
C525 C520 1.479 . S
C525 C524 1.405 . S
C525 H551 0.931 . S
U526 O527 2.454 . S
U526 O528 2.458 . S
U526 C529 2.984 . S
U526 C530 2.847 . S
U526 C543 2.882 . S
U526 O544 2.441 . S
U526 O545 2.420 . S
U526 O546 2.455 . S
U526 O547 2.449 . S
O527 U526 2.454 . S
O527 C529 1.353 . S
O528 U526 2.458 . S
O528 C529 1.286 . S
C529 U526 2.984 . S
C529 O527 1.353 . S
C529 O528 1.286 . S
C529 C531 1.363 . S
C530 C520 1.465 . S
C530 U526 2.847 . S
C530 O544 1.249 . S
C530 O545 1.202 . S
C531 C529 1.363 . S
C531 C533 1.408 . S
C531 C536 1.342 . S
C532 C533 1.310 . S
C532 C535 1.461 . S
C532 H552 0.932 . S
C533 C531 1.408 . S
C533 C532 1.310 . S
C533 H553 0.930 . S
C534 C535 1.474 . S
C534 C536 1.285 . S
C534 H554 0.929 . S
C535 C532 1.461 . S
C535 C534 1.474 . S
C536 C531 1.342 . S
C536 C534 1.285 . S
C536 H555 0.930 . S
C537 C540 1.424 . S
C537 C542 1.245 . S
C537 C543 1.428 . S
C538 C541 1.260 . S
C538 C542 1.477 . S
C538 H556 0.932 . S
C539 C540 1.384 . S
C539 C541 1.479 . S
C539 H557 0.929 . S
C540 C537 1.424 . S
C540 C539 1.384 . S
C540 H558 0.928 . S
C541 C538 1.260 . S
C541 C539 1.479 . S
C542 C537 1.245 . S
C542 C538 1.477 . S
C542 H559 0.932 . S
C543 U526 2.882 . S
C543 C537 1.428 . S
C543 O546 1.301 . S
C543 O547 1.282 . S
O544 U526 2.441 . S
O544 C530 1.249 . S
O545 U526 2.420 . S
O545 C530 1.202 . S
O546 U526 2.455 . S
O546 C543 1.301 . S
O547 U526 2.449 . S
O547 C543 1.282 . S
H548 C521 0.931 . S
H549 C523 0.929 . S
H550 C524 0.930 . S
H551 C525 0.931 . S
H552 C532 0.932 . S
H553 C533 0.930 . S
H554 C534 0.929 . S
H555 C536 0.930 . S
H556 C538 0.932 . S
H557 C539 0.929 . S
H558 C540 0.928 . S
H559 C542 0.932 . S
C560 C561 1.264 . S
C560 C565 1.479 . S
C560 C570 1.465 . S
C561 C560 1.264 . S
C561 C563 1.339 . S
C561 H588 0.931 . S
C562 C563 1.395 . S
C562 C564 1.320 . S
C563 C561 1.339 . S
C563 C562 1.395 . S
C563 H589 0.929 . S
C564 C562 1.320 . S
C564 C565 1.405 . S
C564 H590 0.930 . S
C565 C560 1.479 . S
C565 C564 1.405 . S
C565 H591 0.931 . S
U566 O567 2.454 . S
U566 O568 2.458 . S
U566 C569 2.984 . S
U566 C570 2.847 . S
U566 C583 2.882 . S
U566 O584 2.441 . S
U566 O585 2.420 . S
U566 O586 2.455 . S
U566 O587 2.449 . S
O567 U566 2.454 . S
O567 C569 1.353 . S
O568 U566 2.458 . S
O568 C569 1.286 . S
C569 U566 2.984 . S
C569 O567 1.353 . S
C569 O568 1.286 . S
C569 C571 1.363 . S
C570 C560 1.465 . S
C570 U566 2.847 . S
C570 O584 1.249 . S
C570 O585 1.202 . S
C571 C569 1.363 . S
C571 C573 1.408 . S
C571 C576 1.342 . S
C572 C573 1.310 . S
C572 C575 1.461 . S
C572 H592 0.932 . S
C573 C571 1.408 . S
C573 C572 1.310 . S
C573 H593 0.930 . S
C574 C575 1.474 . S
C574 C576 1.285 . S
C574 H594 0.929 . S
C575 C572 1.461 . S
C575 C574 1.474 . S
C576 C571 1.342 . S
C576 C574 1.285 . S
C576 H595 0.930 . S
C577 C580 1.424 . S
C577 C582 1.245 . S
C577 C583 1.428 . S
C578 C581 1.260 . S
C578 C582 1.477 . S
C578 H596 0.932 . S
C579 C580 1.384 . S
C579 C581 1.479 . S
C579 H597 0.929 . S
C580 C577 1.424 . S
C580 C579 1.384 . S
C580 H598 0.928 . S
C581 C578 1.260 . S
C581 C579 1.479 . S
C582 C577 1.245 . S
C582 C578 1.477 . S
C582 H599 0.932 . S
C583 U566 2.882 . S
C583 C577 1.428 . S
C583 O586 1.301 . S
C583 O587 1.282 . S
O584 U566 2.441 . S
O584 C570 1.249 . S
O585 U566 2.420 . S
O585 C570 1.202 . S
O586 U566 2.455 . S
O586 C583 1.301 . S
O587 U566 2.449 . S
O587 C583 1.282 . S
H588 C561 0.931 . S
H589 C563 0.929 . S
H590 C564 0.930 . S
H591 C565 0.931 . S
H592 C572 0.932 . S
H593 C573 0.930 . S
H594 C574 0.929 . S
H595 C576 0.930 . S
H596 C578 0.932 . S
H597 C579 0.929 . S
H598 C580 0.928 . S
H599 C582 0.932 . S
C600 C601 1.264 . S
C600 C605 1.479 . S
C600 C610 1.465 . S
C601 C600 1.264 . S
C601 C603 1.339 . S
C601 H628 0.931 . S
C602 C603 1.395 . S
C602 C604 1.320 . S
C603 C601 1.339 . S
C603 C602 1.395 . S
C603 H629 0.929 . S
C604 C602 1.320 . S
C604 C605 1.405 . S
C604 H630 0.930 . S
C605 C600 1.479 . S
C605 C604 1.405 . S
C605 H631 0.931 . S
U606 O607 2.454 . S
U606 O608 2.458 . S
U606 C609 2.984 . S
U606 C610 2.847 . S
U606 C623 2.882 . S
U606 O624 2.441 . S
U606 O625 2.420 . S
U606 O626 2.455 . S
U606 O627 2.449 . S
O607 U606 2.454 . S
O607 C609 1.353 . S
O608 U606 2.458 . S
O608 C609 1.286 . S
C609 U606 2.984 . S
C609 O607 1.353 . S
C609 O608 1.286 . S
C609 C611 1.363 . S
C610 C600 1.465 . S
C610 U606 2.847 . S
C610 O624 1.249 . S
C610 O625 1.202 . S
C611 C609 1.363 . S
C611 C613 1.408 . S
C611 C616 1.342 . S
C612 C613 1.310 . S
C612 C615 1.461 . S
C612 H632 0.932 . S
C613 C611 1.408 . S
C613 C612 1.310 . S
C613 H633 0.930 . S
C614 C615 1.474 . S
C614 C616 1.285 . S
C614 H634 0.929 . S
C615 C612 1.461 . S
C615 C614 1.474 . S
C616 C611 1.342 . S
C616 C614 1.285 . S
C616 H635 0.930 . S
C617 C620 1.424 . S
C617 C622 1.245 . S
C617 C623 1.428 . S
C618 C621 1.260 . S
C618 C622 1.477 . S
C618 H636 0.932 . S
C619 C620 1.384 . S
C619 C621 1.479 . S
C619 H637 0.929 . S
C620 C617 1.424 . S
C620 C619 1.384 . S
C620 H638 0.928 . S
C621 C618 1.260 . S
C621 C619 1.479 . S
C622 C617 1.245 . S
C622 C618 1.477 . S
C622 H639 0.932 . S
C623 U606 2.882 . S
C623 C617 1.428 . S
C623 O626 1.301 . S
C623 O627 1.282 . S
O624 U606 2.441 . S
O624 C610 1.249 . S
O625 U606 2.420 . S
O625 C610 1.202 . S
O626 U606 2.455 . S
O626 C623 1.301 . S
O627 U606 2.449 . S
O627 C623 1.282 . S
H628 C601 0.931 . S
H629 C603 0.929 . S
H630 C604 0.930 . S
H631 C605 0.931 . S
H632 C612 0.932 . S
H633 C613 0.930 . S
H634 C614 0.929 . S
H635 C616 0.930 . S
H636 C618 0.932 . S
H637 C619 0.929 . S
H638 C620 0.928 . S
H639 C622 0.932 . S
C640 C641 1.349 . S
C640 C642 1.327 . S
C640 H665 0.950 . S
C641 C640 1.349 . S
C641 C657 1.349 . S
C642 C640 1.327 . S
C642 C661 1.429 . S
C642 H666 0.950 . S
C643 C660 1.574 . S
C643 C662 1.368 . S
C643 H667 0.949 . S
H644 C648 0.949 . S
C645 C646 1.349 . S
C645 C647 1.327 . S
C645 H668 0.950 . S
C646 C645 1.349 . S
C646 C658 1.349 . S
C647 C645 1.327 . S
C647 C663 1.429 . S
C647 H669 0.950 . S
C648 H644 0.949 . S
C648 C656 1.574 . S
C648 C664 1.368 . S
H649 C657 0.950 . S
H650 C655 0.950 . S
H651 C656 0.949 . S
H652 C658 0.950 . S
H653 C659 0.950 . S
H654 C660 0.949 . S
C655 H650 0.950 . S
C655 C657 1.327 . S
C655 C661 1.429 . S
C656 C648 1.574 . S
C656 H651 0.949 . S
C656 C662 1.368 . S
C657 C641 1.349 . S
C657 H649 0.950 . S
C657 C655 1.327 . S
C658 C646 1.349 . S
C658 H652 0.950 . S
C658 C659 1.327 . S
C659 H653 0.950 . S
C659 C658 1.327 . S
C659 C663 1.429 . S
C660 C643 1.574 . S
C660 H654 0.949 . S
C660 C664 1.368 . S
C661 C642 1.429 . S
C661 C655 1.429 . S
C661 C662 1.523 . S
C662 C643 1.368 . S
C662 C656 1.368 . S
C662 C661 1.523 . S
C663 C647 1.429 . S
C663 C659 1.429 . S
C663 C664 1.523 . S
C664 C648 1.368 . S
C664 C660 1.368 . S
C664 C663 1.523 . S
H665 C640 0.950 . S
H666 C642 0.950 . S
H667 C643 0.949 . S
H668 C645 0.950 . S
H669 C647 0.950 . S
C670 C671 1.349 . S
C670 C672 1.327 . S
C670 H695 0.950 . S
C671 C670 1.349 . S
C671 C687 1.349 . S
C672 C670 1.327 . S
C672 C691 1.429 . S
C672 H696 0.950 . S
C673 C690 1.574 . S
C673 C692 1.368 . S
C673 H697 0.949 . S
H674 C678 0.949 . S
C675 C676 1.349 . S
C675 C677 1.327 . S
C675 H698 0.950 . S
C676 C675 1.349 . S
C676 C688 1.349 . S
C677 C675 1.327 . S
C677 C693 1.429 . S
C677 H699 0.950 . S
C678 H674 0.949 . S
C678 C686 1.574 . S
C678 C694 1.368 . S
H679 C687 0.950 . S
H680 C685 0.950 . S
H681 C686 0.949 . S
H682 C688 0.950 . S
H683 C689 0.950 . S
H684 C690 0.949 . S
C685 H680 0.950 . S
C685 C687 1.327 . S
C685 C691 1.429 . S
C686 C678 1.574 . S
C686 H681 0.949 . S
C686 C692 1.368 . S
C687 C671 1.349 . S
C687 H679 0.950 . S
C687 C685 1.327 . S
C688 C676 1.349 . S
C688 H682 0.950 . S
C688 C689 1.327 . S
C689 H683 0.950 . S
C689 C688 1.327 . S
C689 C693 1.429 . S
C690 C673 1.574 . S
C690 H684 0.949 . S
C690 C694 1.368 . S
C691 C672 1.429 . S
C691 C685 1.429 . S
C691 C692 1.523 . S
C692 C673 1.368 . S
C692 C686 1.368 . S
C692 C691 1.523 . S
C693 C677 1.429 . S
C693 C689 1.429 . S
C693 C694 1.523 . S
C694 C678 1.368 . S
C694 C690 1.368 . S
C694 C693 1.523 . S
H695 C670 0.950 . S
H696 C672 0.950 . S
H697 C673 0.949 . S
H698 C675 0.950 . S
H699 C677 0.950 . S
C700 C701 1.349 . S
C700 C702 1.327 . S
C700 H725 0.950 . S
C701 C700 1.349 . S
C701 C717 1.349 . S
C702 C700 1.327 . S
C702 C721 1.429 . S
C702 H726 0.950 . S
C703 C720 1.574 . S
C703 C722 1.368 . S
C703 H727 0.949 . S
H704 C708 0.949 . S
C705 C706 1.349 . S
C705 C707 1.327 . S
C705 H728 0.950 . S
C706 C705 1.349 . S
C706 C718 1.349 . S
C707 C705 1.327 . S
C707 C723 1.429 . S
C707 H729 0.950 . S
C708 H704 0.949 . S
C708 C716 1.574 . S
C708 C724 1.368 . S
H709 C717 0.950 . S
H710 C715 0.950 . S
H711 C716 0.949 . S
H712 C718 0.950 . S
H713 C719 0.950 . S
H714 C720 0.949 . S
C715 H710 0.950 . S
C715 C717 1.327 . S
C715 C721 1.429 . S
C716 C708 1.574 . S
C716 H711 0.949 . S
C716 C722 1.368 . S
C717 C701 1.349 . S
C717 H709 0.950 . S
C717 C715 1.327 . S
C718 C706 1.349 . S
C718 H712 0.950 . S
C718 C719 1.327 . S
C719 H713 0.950 . S
C719 C718 1.327 . S
C719 C723 1.429 . S
C720 C703 1.574 . S
C720 H714 0.949 . S
C720 C724 1.368 . S
C721 C702 1.429 . S
C721 C715 1.429 . S
C721 C722 1.523 . S
C722 C703 1.368 . S
C722 C716 1.368 . S
C722 C721 1.523 . S
C723 C707 1.429 . S
C723 C719 1.429 . S
C723 C724 1.523 . S
C724 C708 1.368 . S
C724 C720 1.368 . S
C724 C723 1.523 . S
H725 C700 0.950 . S
H726 C702 0.950 . S
H727 C703 0.949 . S
H728 C705 0.950 . S
H729 C707 0.950 . S
C730 C731 1.349 . S
C730 C732 1.327 . S
C730 H755 0.950 . S
C731 C730 1.349 . S
C731 C747 1.349 . S
C732 C730 1.327 . S
C732 C751 1.429 . S
C732 H756 0.950 . S
C733 C750 1.654 . S
C733 C752 1.285 1_554 S
C733 H757 0.948 . S
H734 C738 0.948 . S
C735 C736 1.349 . S
C735 C737 1.327 . S
C735 H758 0.950 . S
C736 C735 1.349 . S
C736 C748 1.349 . S
C737 C735 1.327 . S
C737 C753 1.429 . S
C737 H759 0.950 . S
C738 H734 0.948 . S
C738 C746 1.656 . S
C738 C754 1.282 1_556 S
H739 C747 0.950 . S
H740 C745 0.950 . S
H741 C746 0.949 . S
H742 C748 0.950 . S
H743 C749 0.950 . S
H744 C750 0.949 . S
C745 H740 0.950 . S
C745 C747 1.327 . S
C745 C751 1.429 . S
C746 C738 1.656 . S
C746 H741 0.949 . S
C746 C752 1.368 . S
C747 C731 1.349 . S
C747 H739 0.950 . S
C747 C745 1.327 . S
C748 C736 1.349 . S
C748 H742 0.950 . S
C748 C749 1.327 . S
C749 H743 0.950 . S
C749 C748 1.327 . S
C749 C753 1.429 . S
C750 C733 1.654 . S
C750 H744 0.949 . S
C750 C754 1.368 . S
C751 C732 1.429 . S
C751 C745 1.429 . S
C751 C752 1.523 . S
C752 C733 1.285 1_556 S
C752 C746 1.368 . S
C752 C751 1.523 . S
C753 C737 1.429 . S
C753 C749 1.429 . S
C753 C754 1.523 . S
C754 C738 1.282 1_554 S
C754 C750 1.368 . S
C754 C753 1.523 . S
H755 C730 0.950 . S
H756 C732 0.950 . S
H757 C733 0.948 . S
H758 C735 0.950 . S
H759 C737 0.950 . S
C760 C761 1.349 . S
C760 C762 1.327 . S
C760 H785 0.950 . S
C761 C760 1.349 . S
C761 C777 1.349 . S
C762 C760 1.327 . S
C762 C781 1.429 . S
C762 H786 0.950 . S
C763 C780 1.574 1_554 S
C763 C782 1.368 . S
C763 H787 0.949 . S
H764 C768 0.949 . S
C765 C766 1.349 . S
C765 C767 1.327 . S
C765 H788 0.950 . S
C766 C765 1.349 . S
C766 C778 1.349 . S
C767 C765 1.327 . S
C767 C783 1.429 . S
C767 H789 0.950 . S
C768 H764 0.949 . S
C768 C776 1.574 1_556 S
C768 C784 1.368 . S
H769 C777 0.950 . S
H770 C775 0.950 . S
H771 C776 0.949 . S
H772 C778 0.950 . S
H773 C779 0.950 . S
H774 C780 0.949 . S
C775 H770 0.950 . S
C775 C777 1.327 . S
C775 C781 1.429 . S
C776 C768 1.574 1_554 S
C776 H771 0.949 . S
C776 C782 1.368 . S
C777 C761 1.349 . S
C777 H769 0.950 . S
C777 C775 1.327 . S
C778 C766 1.349 . S
C778 H772 0.950 . S
C778 C779 1.327 . S
C779 H773 0.950 . S
C779 C778 1.327 . S
C779 C783 1.429 . S
C780 C763 1.574 1_556 S
C780 H774 0.949 . S
C780 C784 1.368 . S
C781 C762 1.429 . S
C781 C775 1.429 . S
C781 C782 1.523 . S
C782 C763 1.368 . S
C782 C776 1.368 . S
C782 C781 1.523 . S
C783 C767 1.429 . S
C783 C779 1.429 . S
C783 C784 1.523 . S
C784 C768 1.368 . S
C784 C780 1.368 . S
C784 C783 1.523 . S
H785 C760 0.950 . S
H786 C762 0.950 . S
H787 C763 0.949 . S
H788 C765 0.950 . S
H789 C767 0.950 . S
C790 C791 1.349 . S
C790 C792 1.327 . S
C790 H815 0.950 . S
C791 C790 1.349 . S
C791 C807 1.349 . S
C792 C790 1.327 . S
C792 C811 1.429 . S
C792 H816 0.950 . S
C793 C810 1.574 . S
C793 C812 1.368 . S
C793 H817 0.949 . S
H794 C798 0.949 . S
C795 C796 1.349 . S
C795 C797 1.327 . S
C795 H818 0.950 . S
C796 C795 1.349 . S
C796 C808 1.349 . S
C797 C795 1.327 . S
C797 C813 1.429 . S
C797 H819 0.950 . S
C798 H794 0.949 . S
C798 C806 1.574 . S
C798 C814 1.368 . S
H799 C807 0.950 . S
H800 C805 0.950 . S
H801 C806 0.949 . S
H802 C808 0.950 . S
H803 C809 0.950 . S
H804 C810 0.949 . S
C805 H800 0.950 . S
C805 C807 1.327 . S
C805 C811 1.429 . S
C806 C798 1.574 . S
C806 H801 0.949 . S
C806 C812 1.368 . S
C807 C791 1.349 . S
C807 H799 0.950 . S
C807 C805 1.327 . S
C808 C796 1.349 . S
C808 H802 0.950 . S
C808 C809 1.327 . S
C809 H803 0.950 . S
C809 C808 1.327 . S
C809 C813 1.429 . S
C810 C793 1.574 . S
C810 H804 0.949 . S
C810 C814 1.368 . S
C811 C792 1.429 . S
C811 C805 1.429 . S
C811 C812 1.523 . S
C812 C793 1.368 . S
C812 C806 1.368 . S
C812 C811 1.523 . S
C813 C797 1.429 . S
C813 C809 1.429 . S
C813 C814 1.523 . S
C814 C798 1.368 . S
C814 C810 1.368 . S
C814 C813 1.523 . S
H815 C790 0.950 . S
H816 C792 0.950 . S
H817 C793 0.949 . S
H818 C795 0.950 . S
H819 C797 0.950 . S
C820 C821 1.349 . S
C820 C822 1.327 . S
C820 H845 0.950 . S
C821 C820 1.349 . S
C821 C837 1.349 . S
C822 C820 1.327 . S
C822 C841 1.429 . S
C822 H846 0.950 . S
C823 C840 1.574 . S
C823 C842 1.368 . S
C823 H847 0.949 . S
H824 C828 0.949 . S
C825 C826 1.349 . S
C825 C827 1.327 . S
C825 H848 0.950 . S
C826 C825 1.349 . S
C826 C838 1.349 . S
C827 C825 1.327 . S
C827 C843 1.429 . S
C827 H849 0.950 . S
C828 H824 0.949 . S
C828 C836 1.574 . S
C828 C844 1.368 . S
H829 C837 0.950 . S
H830 C835 0.950 . S
H831 C836 0.949 . S
H832 C838 0.950 . S
H833 C839 0.950 . S
H834 C840 0.949 . S
C835 H830 0.950 . S
C835 C837 1.327 . S
C835 C841 1.429 . S
C836 C828 1.574 . S
C836 H831 0.949 . S
C836 C842 1.368 . S
C837 C821 1.349 . S
C837 H829 0.950 . S
C837 C835 1.327 . S
C838 C826 1.349 . S
C838 H832 0.950 . S
C838 C839 1.327 . S
C839 H833 0.950 . S
C839 C838 1.327 . S
C839 C843 1.429 . S
C840 C823 1.574 . S
C840 H834 0.949 . S
C840 C844 1.368 . S
C841 C822 1.429 . S
C841 C835 1.429 . S
C841 C842 1.523 . S
C842 C823 1.368 . S
C842 C836 1.368 . S
C842 C841 1.523 . S
C843 C827 1.429 . S
C843 C839 1.429 . S
C843 C844 1.523 . S
C844 C828 1.368 . S
C844 C840 1.368 . S
C844 C843 1.523 . S
H845 C820 0.950 . S
H846 C822 0.950 . S
H847 C823 0.949 . S
H848 C825 0.950 . S
H849 C827 0.950 . S
C850 C851 1.349 . S
C850 C852 1.327 . S
C850 H875 0.950 . S
C851 C850 1.349 . S
C851 C867 1.349 . S
C852 C850 1.327 . S
C852 C871 1.429 . S
C852 H876 0.950 . S
C853 C870 1.574 . S
C853 C872 1.368 . S
C853 H877 0.949 . S
H854 C858 0.949 . S
C855 C856 1.349 . S
C855 C857 1.327 . S
C855 H878 0.950 . S
C856 C855 1.349 . S
C856 C868 1.349 . S
C857 C855 1.327 . S
C857 C873 1.429 . S
C857 H879 0.950 . S
C858 H854 0.949 . S
C858 C866 1.574 . S
C858 C874 1.368 . S
H859 C867 0.950 . S
H860 C865 0.950 . S
H861 C866 0.949 . S
H862 C868 0.950 . S
H863 C869 0.950 . S
H864 C870 0.949 . S
C865 H860 0.950 . S
C865 C867 1.327 . S
C865 C871 1.429 . S
C866 C858 1.574 . S
C866 H861 0.949 . S
C866 C872 1.368 . S
C867 C851 1.349 . S
C867 H859 0.950 . S
C867 C865 1.327 . S
C868 C856 1.349 . S
C868 H862 0.950 . S
C868 C869 1.327 . S
C869 H863 0.950 . S
C869 C868 1.327 . S
C869 C873 1.429 . S
C870 C853 1.574 . S
C870 H864 0.949 . S
C870 C874 1.368 . S
C871 C852 1.429 . S
C871 C865 1.429 . S
C871 C872 1.523 . S
C872 C853 1.368 . S
C872 C866 1.368 . S
C872 C871 1.523 . S
C873 C857 1.429 . S
C873 C869 1.429 . S
C873 C874 1.523 . S
C874 C858 1.368 . S
C874 C870 1.368 . S
C874 C873 1.523 . S
H875 C850 0.950 . S
H876 C852 0.950 . S
H877 C853 0.949 . S
H878 C855 0.950 . S
H879 C857 0.950 . S
C880 C881 1.349 . S
C880 C882 1.327 . S
C880 H905 0.950 . S
C881 C880 1.349 . S
C881 C897 1.349 . S
C882 C880 1.327 . S
C882 C901 1.429 . S
C882 H906 0.950 . S
C883 C900 1.574 . S
C883 C902 1.368 . S
C883 H907 0.949 . S
H884 C888 0.949 . S
C885 C886 1.349 . S
C885 C887 1.327 . S
C885 H908 0.950 . S
C886 C885 1.349 . S
C886 C898 1.349 . S
C887 C885 1.327 . S
C887 C903 1.429 . S
C887 H909 0.950 . S
C888 H884 0.949 . S
C888 C896 1.574 . S
C888 C904 1.368 . S
H889 C897 0.950 . S
H890 C895 0.950 . S
H891 C896 0.949 . S
H892 C898 0.950 . S
H893 C899 0.950 . S
H894 C900 0.949 . S
C895 H890 0.950 . S
C895 C897 1.327 . S
C895 C901 1.429 . S
C896 C888 1.574 . S
C896 H891 0.949 . S
C896 C902 1.368 . S
C897 C881 1.349 . S
C897 H889 0.950 . S
C897 C895 1.327 . S
C898 C886 1.349 . S
C898 H892 0.950 . S
C898 C899 1.327 . S
C899 H893 0.950 . S
C899 C898 1.327 . S
C899 C903 1.429 . S
C900 C883 1.574 . S
C900 H894 0.949 . S
C900 C904 1.368 . S
C901 C882 1.429 . S
C901 C895 1.429 . S
C901 C902 1.523 . S
C902 C883 1.368 . S
C902 C896 1.368 . S
C902 C901 1.523 . S
C903 C887 1.429 . S
C903 C899 1.429 . S
C903 C904 1.523 . S
C904 C888 1.368 . S
C904 C900 1.368 . S
C904 C903 1.523 . S
H905 C880 0.950 . S
H906 C882 0.950 . S
H907 C883 0.949 . S
H908 C885 0.950 . S
H909 C887 0.950 . S
C910 C911 1.349 . S
C910 C912 1.327 . S
C910 H935 0.950 . S
C911 C910 1.349 . S
C911 C927 1.349 . S
C912 C910 1.327 . S
C912 C931 1.429 . S
C912 H936 0.950 . S
C913 C930 1.574 . S
C913 C932 1.368 . S
C913 H937 0.949 . S
H914 C918 0.949 . S
C915 C916 1.349 . S
C915 C917 1.327 . S
C915 H938 0.950 . S
C916 C915 1.349 . S
C916 C928 1.349 . S
C917 C915 1.327 . S
C917 C933 1.429 . S
C917 H939 0.950 . S
C918 H914 0.949 . S
C918 C926 1.574 . S
C918 C934 1.368 . S
H919 C927 0.950 . S
H920 C925 0.950 . S
H921 C926 0.949 . S
H922 C928 0.950 . S
H923 C929 0.950 . S
H924 C930 0.949 . S
C925 H920 0.950 . S
C925 C927 1.327 . S
C925 C931 1.429 . S
C926 C918 1.574 . S
C926 H921 0.949 . S
C926 C932 1.368 . S
C927 C911 1.349 . S
C927 H919 0.950 . S
C927 C925 1.327 . S
C928 C916 1.349 . S
C928 H922 0.950 . S
C928 C929 1.327 . S
C929 H923 0.950 . S
C929 C928 1.327 . S
C929 C933 1.429 . S
C930 C913 1.574 . S
C930 H924 0.949 . S
C930 C934 1.368 . S
C931 C912 1.429 . S
C931 C925 1.429 . S
C931 C932 1.523 . S
C932 C913 1.368 . S
C932 C926 1.368 . S
C932 C931 1.523 . S
C933 C917 1.429 . S
C933 C929 1.429 . S
C933 C934 1.523 . S
C934 C918 1.368 . S
C934 C930 1.368 . S
C934 C933 1.523 . S
H935 C910 0.950 . S
H936 C912 0.950 . S
H937 C913 0.949 . S
H938 C915 0.950 . S
H939 C917 0.950 . S
C940 C941 1.349 . S
C940 C942 1.327 . S
C940 H965 0.950 . S
C941 C940 1.349 . S
C941 C957 1.349 . S
C942 C940 1.327 . S
C942 C961 1.429 . S
C942 H966 0.950 . S
C943 C960 1.574 . S
C943 C962 1.368 . S
C943 H967 0.949 . S
H944 C948 0.949 . S
C945 C946 1.349 . S
C945 C947 1.327 . S
C945 H968 0.950 . S
C946 C945 1.349 . S
C946 C958 1.349 . S
C947 C945 1.327 . S
C947 C963 1.429 . S
C947 H969 0.950 . S
C948 H944 0.949 . S
C948 C956 1.574 . S
C948 C964 1.368 . S
H949 C957 0.950 . S
H950 C955 0.950 . S
H951 C956 0.949 . S
H952 C958 0.950 . S
H953 C959 0.950 . S
H954 C960 0.949 . S
C955 H950 0.950 . S
C955 C957 1.327 . S
C955 C961 1.429 . S
C956 C948 1.574 . S
C956 H951 0.949 . S
C956 C962 1.368 . S
C957 C941 1.349 . S
C957 H949 0.950 . S
C957 C955 1.327 . S
C958 C946 1.349 . S
C958 H952 0.950 . S
C958 C959 1.327 . S
C959 H953 0.950 . S
C959 C958 1.327 . S
C959 C963 1.429 . S
C960 C943 1.574 . S
C960 H954 0.949 . S
C960 C964 1.368 . S
C961 C942 1.429 . S
C961 C955 1.429 . S
C961 C962 1.523 . S
C962 C943 1.368 . S
C962 C956 1.368 . S
C962 C961 1.523 . S
C963 C947 1.429 . S
C963 C959 1.429 . S
C963 C964 1.523 . S
C964 C948 1.368 . S
C964 C960 1.368 . S
C964 C963 1.523 . S
H965 C940 0.950 . S
H966 C942 0.950 . S
H967 C943 0.949 . S
H968 C945 0.950 . S
H969 C947 0.950 . S
C970 C971 1.349 . S
C970 C972 1.327 . S
C970 H995 0.950 . S
C971 C970 1.349 . S
C971 C987 1.349 . S
C972 C970 1.327 . S
C972 C991 1.429 . S
C972 H996 0.950 . S
C973 C990 1.574 . S
C973 C992 1.368 . S
C973 H997 0.949 . S
H974 C978 0.949 . S
C975 C976 1.349 . S
C975 C977 1.327 . S
C975 H998 0.950 . S
C976 C975 1.349 . S
C976 C988 1.349 . S
C977 C975 1.327 . S
C977 C993 1.429 . S
C977 H999 0.950 . S
C978 H974 0.949 . S
C978 C986 1.574 . S
C978 C994 1.368 . S
H979 C987 0.950 . S
H980 C985 0.950 . S
H981 C986 0.949 . S
H982 C988 0.950 . S
H983 C989 0.950 . S
H984 C990 0.949 . S
C985 H980 0.950 . S
C985 C987 1.327 . S
C985 C991 1.429 . S
C986 C978 1.574 . S
C986 H981 0.949 . S
C986 C992 1.368 . S
C987 C971 1.349 . S
C987 H979 0.950 . S
C987 C985 1.327 . S
C988 C976 1.349 . S
C988 H982 0.950 . S
C988 C989 1.327 . S
C989 H983 0.950 . S
C989 C988 1.327 . S
C989 C993 1.429 . S
C990 C973 1.574 . S
C990 H984 0.949 . S
C990 C994 1.368 . S
C991 C972 1.429 . S
C991 C985 1.429 . S
C991 C992 1.523 . S
C992 C973 1.368 . S
C992 C986 1.368 . S
C992 C991 1.523 . S
C993 C977 1.429 . S
C993 C989 1.429 . S
C993 C994 1.523 . S
C994 C978 1.368 . S
C994 C990 1.368 . S
C994 C993 1.523 . S
H995 C970 0.950 . S
H996 C972 0.950 . S
H997 C973 0.949 . S
H998 C975 0.950 . S
H999 C977 0.950 . S
C1000 C1001 1.349 . S
C1000 C1002 1.327 . S
C1000 H1025 0.950 . S
C1001 C1000 1.349 . S
C1001 C1017 1.349 . S
C1002 C1000 1.327 . S
C1002 C1021 1.429 . S
C1002 H1026 0.950 . S
C1003 C1020 1.574 . S
C1003 C1022 1.368 . S
C1003 H1027 0.949 . S
H1004 C1008 0.949 . S
C1005 C1006 1.349 . S
C1005 C1007 1.327 . S
C1005 H1028 0.950 . S
C1006 C1005 1.349 . S
C1006 C1018 1.349 . S
C1007 C1005 1.327 . S
C1007 C1023 1.429 . S
C1007 H1029 0.950 . S
C1008 H1004 0.949 . S
C1008 C1016 1.574 . S
C1008 C1024 1.368 . S
H1009 C1017 0.950 . S
H1010 C1015 0.950 . S
H1011 C1016 0.949 . S
H1012 C1018 0.950 . S
H1013 C1019 0.950 . S
H1014 C1020 0.949 . S
C1015 H1010 0.950 . S
C1015 C1017 1.327 . S
C1015 C1021 1.429 . S
C1016 C1008 1.574 . S
C1016 H1011 0.949 . S
C1016 C1022 1.368 . S
C1017 C1001 1.349 . S
C1017 H1009 0.950 . S
C1017 C1015 1.327 . S
C1018 C1006 1.349 . S
C1018 H1012 0.950 . S
C1018 C1019 1.327 . S
C1019 H1013 0.950 . S
C1019 C1018 1.327 . S
C1019 C1023 1.429 . S
C1020 C1003 1.574 . S
C1020 H1014 0.949 . S
C1020 C1024 1.368 . S
C1021 C1002 1.429 . S
C1021 C1015 1.429 . S
C1021 C1022 1.523 . S
C1022 C1003 1.368 . S
C1022 C1016 1.368 . S
C1022 C1021 1.523 . S
C1023 C1007 1.429 . S
C1023 C1019 1.429 . S
C1023 C1024 1.523 . S
C1024 C1008 1.368 . S
C1024 C1020 1.368 . S
C1024 C1023 1.523 . S
H1025 C1000 0.950 . S
H1026 C1002 0.950 . S
H1027 C1003 0.949 . S
H1028 C1005 0.950 . S
H1029 C1007 0.950 . S
C1030 C1031 1.349 . S
C1030 C1032 1.327 . S
C1030 H1055 0.950 . S
C1031 C1030 1.349 . S
C1031 C1047 1.349 . S
C1032 C1030 1.327 . S
C1032 C1051 1.429 . S
C1032 H1056 0.950 . S
C1033 C1050 1.574 . S
C1033 C1052 1.368 . S
C1033 H1057 0.949 . S
H1034 C1038 0.949 . S
C1035 C1036 1.349 . S
C1035 C1037 1.327 . S
C1035 H1058 0.950 . S
C1036 C1035 1.349 . S
C1036 C1048 1.349 . S
C1037 C1035 1.327 . S
C1037 C1053 1.429 . S
C1037 H1059 0.950 . S
C1038 H1034 0.949 . S
C1038 C1046 1.574 . S
C1038 C1054 1.368 . S
H1039 C1047 0.950 . S
H1040 C1045 0.950 . S
H1041 C1046 0.949 . S
H1042 C1048 0.950 . S
H1043 C1049 0.950 . S
H1044 C1050 0.949 . S
C1045 H1040 0.950 . S
C1045 C1047 1.327 . S
C1045 C1051 1.429 . S
C1046 C1038 1.574 . S
C1046 H1041 0.949 . S
C1046 C1052 1.368 . S
C1047 C1031 1.349 . S
C1047 H1039 0.950 . S
C1047 C1045 1.327 . S
C1048 C1036 1.349 . S
C1048 H1042 0.950 . S
C1048 C1049 1.327 . S
C1049 H1043 0.950 . S
C1049 C1048 1.327 . S
C1049 C1053 1.429 . S
C1050 C1033 1.574 . S
C1050 H1044 0.949 . S
C1050 C1054 1.368 . S
C1051 C1032 1.429 . S
C1051 C1045 1.429 . S
C1051 C1052 1.523 . S
C1052 C1033 1.368 . S
C1052 C1046 1.368 . S
C1052 C1051 1.523 . S
C1053 C1037 1.429 . S
C1053 C1049 1.429 . S
C1053 C1054 1.523 . S
C1054 C1038 1.368 . S
C1054 C1050 1.368 . S
C1054 C1053 1.523 . S
H1055 C1030 0.950 . S
H1056 C1032 0.950 . S
H1057 C1033 0.949 . S
H1058 C1035 0.950 . S
H1059 C1037 0.950 . S
C1060 C1061 1.349 . S
C1060 C1062 1.327 . S
C1060 H1085 0.950 . S
C1061 C1060 1.349 . S
C1061 C1077 1.349 . S
C1062 C1060 1.327 . S
C1062 C1081 1.429 . S
C1062 H1086 0.950 . S
C1063 C1080 1.574 . S
C1063 C1082 1.368 . S
C1063 H1087 0.949 . S
H1064 C1068 0.949 . S
C1065 C1066 1.349 . S
C1065 C1067 1.327 . S
C1065 H1088 0.950 . S
C1066 C1065 1.349 . S
C1066 C1078 1.349 . S
C1067 C1065 1.327 . S
C1067 C1083 1.429 . S
C1067 H1089 0.950 . S
C1068 H1064 0.949 . S
C1068 C1076 1.574 . S
C1068 C1084 1.368 . S
H1069 C1077 0.950 . S
H1070 C1075 0.950 . S
H1071 C1076 0.949 . S
H1072 C1078 0.950 . S
H1073 C1079 0.950 . S
H1074 C1080 0.949 . S
C1075 H1070 0.950 . S
C1075 C1077 1.327 . S
C1075 C1081 1.429 . S
C1076 C1068 1.574 . S
C1076 H1071 0.949 . S
C1076 C1082 1.368 . S
C1077 C1061 1.349 . S
C1077 H1069 0.950 . S
C1077 C1075 1.327 . S
C1078 C1066 1.349 . S
C1078 H1072 0.950 . S
C1078 C1079 1.327 . S
C1079 H1073 0.950 . S
C1079 C1078 1.327 . S
C1079 C1083 1.429 . S
C1080 C1063 1.574 . S
C1080 H1074 0.949 . S
C1080 C1084 1.368 . S
C1081 C1062 1.429 . S
C1081 C1075 1.429 . S
C1081 C1082 1.523 . S
C1082 C1063 1.368 . S
C1082 C1076 1.368 . S
C1082 C1081 1.523 . S
C1083 C1067 1.429 . S
C1083 C1079 1.429 . S
C1083 C1084 1.523 . S
C1084 C1068 1.368 . S
C1084 C1080 1.368 . S
C1084 C1083 1.523 . S
H1085 C1060 0.950 . S
H1086 C1062 0.950 . S
H1087 C1063 0.949 . S
H1088 C1065 0.950 . S
H1089 C1067 0.950 . S
C1090 C1091 1.349 . S
C1090 C1092 1.327 . S
C1090 H1115 0.950 . S
C1091 C1090 1.349 . S
C1091 C1107 1.349 . S
C1092 C1090 1.327 . S
C1092 C1111 1.429 . S
C1092 H1116 0.950 . S
C1093 C1110 1.574 . S
C1093 C1112 1.368 . S
C1093 H1117 0.949 . S
H1094 C1098 0.949 . S
C1095 C1096 1.349 . S
C1095 C1097 1.327 . S
C1095 H1118 0.950 . S
C1096 C1095 1.349 . S
C1096 C1108 1.349 . S
C1097 C1095 1.327 . S
C1097 C1113 1.429 . S
C1097 H1119 0.950 . S
C1098 H1094 0.949 . S
C1098 C1106 1.574 . S
C1098 C1114 1.368 . S
H1099 C1107 0.950 . S
H1100 C1105 0.950 . S
H1101 C1106 0.949 . S
H1102 C1108 0.950 . S
H1103 C1109 0.950 . S
H1104 C1110 0.949 . S
C1105 H1100 0.950 . S
C1105 C1107 1.327 . S
C1105 C1111 1.429 . S
C1106 C1098 1.574 . S
C1106 H1101 0.949 . S
C1106 C1112 1.368 . S
C1107 C1091 1.349 . S
C1107 H1099 0.950 . S
C1107 C1105 1.327 . S
C1108 C1096 1.349 . S
C1108 H1102 0.950 . S
C1108 C1109 1.327 . S
C1109 H1103 0.950 . S
C1109 C1108 1.327 . S
C1109 C1113 1.429 . S
C1110 C1093 1.574 . S
C1110 H1104 0.949 . S
C1110 C1114 1.368 . S
C1111 C1092 1.429 . S
C1111 C1105 1.429 . S
C1111 C1112 1.523 . S
C1112 C1093 1.368 . S
C1112 C1106 1.368 . S
C1112 C1111 1.523 . S
C1113 C1097 1.429 . S
C1113 C1109 1.429 . S
C1113 C1114 1.523 . S
C1114 C1098 1.368 . S
C1114 C1110 1.368 . S
C1114 C1113 1.523 . S
H1115 C1090 0.950 . S
H1116 C1092 0.950 . S
H1117 C1093 0.949 . S
H1118 C1095 0.950 . S
H1119 C1097 0.950 . S
C1120 C1121 1.349 . S
C1120 C1122 1.327 . S
C1120 H1145 0.950 . S
C1121 C1120 1.349 . S
C1121 C1137 1.349 . S
C1122 C1120 1.327 . S
C1122 C1141 1.429 . S
C1122 H1146 0.950 . S
C1123 C1140 1.574 1_455 S
C1123 C1142 1.368 . S
C1123 H1147 0.949 . S
H1124 C1128 0.949 . S
C1125 C1126 1.349 . S
C1125 C1127 1.327 . S
C1125 H1148 0.950 . S
C1126 C1125 1.349 . S
C1126 C1138 1.349 . S
C1127 C1125 1.327 . S
C1127 C1143 1.429 . S
C1127 H1149 0.950 . S
C1128 H1124 0.949 . S
C1128 C1136 1.574 1_655 S
C1128 C1144 1.368 . S
H1129 C1137 0.950 . S
H1130 C1135 0.950 . S
H1131 C1136 0.949 . S
H1132 C1138 0.950 . S
H1133 C1139 0.950 . S
H1134 C1140 0.949 . S
C1135 H1130 0.950 . S
C1135 C1137 1.327 . S
C1135 C1141 1.429 . S
C1136 C1128 1.574 1_455 S
C1136 H1131 0.949 . S
C1136 C1142 1.368 1_565 S
C1137 C1121 1.349 . S
C1137 H1129 0.950 . S
C1137 C1135 1.327 . S
C1138 C1126 1.349 . S
C1138 H1132 0.950 . S
C1138 C1139 1.327 . S
C1139 H1133 0.950 . S
C1139 C1138 1.327 . S
C1139 C1143 1.429 . S
C1140 C1123 1.574 1_655 S
C1140 H1134 0.949 . S
C1140 C1144 1.368 1_545 S
C1141 C1122 1.429 . S
C1141 C1135 1.429 . S
C1141 C1142 1.523 . S
C1142 C1123 1.368 . S
C1142 C1136 1.368 1_545 S
C1142 C1141 1.523 . S
C1143 C1127 1.429 . S
C1143 C1139 1.429 . S
C1143 C1144 1.523 . S
C1144 C1128 1.368 . S
C1144 C1140 1.368 1_565 S
C1144 C1143 1.523 . S
H1145 C1120 0.950 . S
H1146 C1122 0.950 . S
H1147 C1123 0.949 . S
H1148 C1125 0.950 . S
H1149 C1127 0.950 . S
C1150 C1151 1.349 . S
C1150 C1152 1.327 . S
C1150 H1175 0.950 . S
C1151 C1150 1.349 . S
C1151 C1167 1.349 . S
C1152 C1150 1.327 . S
C1152 C1171 1.429 . S
C1152 H1176 0.950 . S
C1153 C1170 1.574 . S
C1153 C1172 1.368 . S
C1153 H1177 0.949 . S
H1154 C1158 0.949 . S
C1155 C1156 1.349 . S
C1155 C1157 1.327 . S
C1155 H1178 0.950 . S
C1156 C1155 1.349 . S
C1156 C1168 1.349 . S
C1157 C1155 1.327 . S
C1157 C1173 1.429 . S
C1157 H1179 0.950 . S
C1158 H1154 0.949 . S
C1158 C1166 1.574 . S
C1158 C1174 1.368 . S
H1159 C1167 0.950 . S
H1160 C1165 0.950 . S
H1161 C1166 0.949 . S
H1162 C1168 0.950 . S
H1163 C1169 0.950 . S
H1164 C1170 0.949 . S
C1165 H1160 0.950 . S
C1165 C1167 1.327 . S
C1165 C1171 1.429 . S
C1166 C1158 1.574 . S
C1166 H1161 0.949 . S
C1166 C1172 1.368 1_655 S
C1167 C1151 1.349 . S
C1167 H1159 0.950 . S
C1167 C1165 1.327 . S
C1168 C1156 1.349 . S
C1168 H1162 0.950 . S
C1168 C1169 1.327 . S
C1169 H1163 0.950 . S
C1169 C1168 1.327 . S
C1169 C1173 1.429 . S
C1170 C1153 1.574 . S
C1170 H1164 0.949 . S
C1170 C1174 1.368 1_455 S
C1171 C1152 1.429 . S
C1171 C1165 1.429 . S
C1171 C1172 1.523 . S
C1172 C1153 1.368 . S
C1172 C1166 1.368 1_455 S
C1172 C1171 1.523 . S
C1173 C1157 1.429 . S
C1173 C1169 1.429 . S
C1173 C1174 1.523 . S
C1174 C1158 1.368 . S
C1174 C1170 1.368 1_655 S
C1174 C1173 1.523 . S
H1175 C1150 0.950 . S
H1176 C1152 0.950 . S
H1177 C1153 0.949 . S
H1178 C1155 0.950 . S
H1179 C1157 0.950 . S
C1180 C1181 1.349 . S
C1180 C1182 1.327 . S
C1180 H1205 0.950 . S
C1181 C1180 1.349 . S
C1181 C1197 1.349 . S
C1182 C1180 1.327 . S
C1182 C1201 1.429 . S
C1182 H1206 0.950 . S
C1183 C1200 1.574 . S
C1183 C1202 1.368 . S
C1183 H1207 0.949 . S
H1184 C1188 0.949 . S
C1185 C1186 1.349 . S
C1185 C1187 1.327 . S
C1185 H1208 0.950 . S
C1186 C1185 1.349 . S
C1186 C1198 1.349 . S
C1187 C1185 1.327 . S
C1187 C1203 1.429 . S
C1187 H1209 0.950 . S
C1188 H1184 0.949 . S
C1188 C1196 1.574 . S
C1188 C1204 1.368 . S
H1189 C1197 0.950 . S
H1190 C1195 0.950 . S
H1191 C1196 0.949 . S
H1192 C1198 0.950 . S
H1193 C1199 0.950 . S
H1194 C1200 0.949 . S
C1195 H1190 0.950 . S
C1195 C1197 1.327 . S
C1195 C1201 1.429 . S
C1196 C1188 1.574 . S
C1196 H1191 0.949 . S
C1196 C1202 1.368 . S
C1197 C1181 1.349 . S
C1197 H1189 0.950 . S
C1197 C1195 1.327 . S
C1198 C1186 1.349 . S
C1198 H1192 0.950 . S
C1198 C1199 1.327 . S
C1199 H1193 0.950 . S
C1199 C1198 1.327 . S
C1199 C1203 1.429 . S
C1200 C1183 1.574 . S
C1200 H1194 0.949 . S
C1200 C1204 1.368 . S
C1201 C1182 1.429 . S
C1201 C1195 1.429 . S
C1201 C1202 1.523 . S
C1202 C1183 1.368 . S
C1202 C1196 1.368 . S
C1202 C1201 1.523 . S
C1203 C1187 1.429 . S
C1203 C1199 1.429 . S
C1203 C1204 1.523 . S
C1204 C1188 1.368 . S
C1204 C1200 1.368 . S
C1204 C1203 1.523 . S
H1205 C1180 0.950 . S
H1206 C1182 0.950 . S
H1207 C1183 0.949 . S
H1208 C1185 0.950 . S
H1209 C1187 0.950 . S
C1210 C1211 1.349 . S
C1210 C1212 1.327 . S
C1210 H1235 0.950 . S
C1211 C1210 1.349 . S
C1211 C1227 1.349 . S
C1212 C1210 1.327 . S
C1212 C1231 1.429 . S
C1212 H1236 0.950 . S
C1213 C1230 1.574 1_545 S
C1213 C1232 1.368 . S
C1213 H1237 0.949 . S
H1214 C1218 0.949 . S
C1215 C1216 1.349 . S
C1215 C1217 1.327 . S
C1215 H1238 0.950 . S
C1216 C1215 1.349 . S
C1216 C1228 1.349 . S
C1217 C1215 1.327 . S
C1217 C1233 1.429 . S
C1217 H1239 0.950 . S
C1218 H1214 0.949 . S
C1218 C1226 1.574 1_565 S
C1218 C1234 1.368 . S
H1219 C1227 0.950 . S
H1220 C1225 0.950 . S
H1221 C1226 0.949 . S
H1222 C1228 0.950 . S
H1223 C1229 0.950 . S
H1224 C1230 0.949 . S
C1225 H1220 0.950 . S
C1225 C1227 1.327 . S
C1225 C1231 1.429 . S
C1226 C1218 1.574 1_545 S
C1226 H1221 0.949 . S
C1226 C1232 1.368 . S
C1227 C1211 1.349 . S
C1227 H1219 0.950 . S
C1227 C1225 1.327 . S
C1228 C1216 1.349 . S
C1228 H1222 0.950 . S
C1228 C1229 1.327 . S
C1229 H1223 0.950 . S
C1229 C1228 1.327 . S
C1229 C1233 1.429 . S
C1230 C1213 1.574 1_565 S
C1230 H1224 0.949 . S
C1230 C1234 1.368 . S
C1231 C1212 1.429 . S
C1231 C1225 1.429 . S
C1231 C1232 1.523 . S
C1232 C1213 1.368 . S
C1232 C1226 1.368 . S
C1232 C1231 1.523 . S
C1233 C1217 1.429 . S
C1233 C1229 1.429 . S
C1233 C1234 1.523 . S
C1234 C1218 1.368 . S
C1234 C1230 1.368 . S
C1234 C1233 1.523 . S
H1235 C1210 0.950 . S
H1236 C1212 0.950 . S
H1237 C1213 0.949 . S
H1238 C1215 0.950 . S
H1239 C1217 0.950 . S
C1240 C1241 1.349 . S
C1240 C1242 1.327 . S
C1240 H1265 0.950 . S
C1241 C1240 1.349 . S
C1241 C1257 1.349 . S
C1242 C1240 1.327 . S
C1242 C1261 1.429 . S
C1242 H1266 0.950 . S
C1243 C1260 1.574 1_655 S
C1243 C1262 1.368 . S
C1243 H1267 0.949 . S
H1244 C1248 0.949 . S
C1245 C1246 1.349 . S
C1245 C1247 1.327 . S
C1245 H1268 0.950 . S
C1246 C1245 1.349 . S
C1246 C1258 1.349 . S
C1247 C1245 1.327 . S
C1247 C1263 1.429 . S
C1247 H1269 0.950 . S
C1248 H1244 0.949 . S
C1248 C1256 1.574 1_455 S
C1248 C1264 1.368 . S
H1249 C1257 0.950 . S
H1250 C1255 0.950 . S
H1251 C1256 0.949 . S
H1252 C1258 0.950 . S
H1253 C1259 0.950 . S
H1254 C1260 0.949 . S
C1255 H1250 0.950 . S
C1255 C1257 1.327 . S
C1255 C1261 1.429 . S
C1256 C1248 1.574 1_655 S
C1256 H1251 0.949 . S
C1256 C1262 1.368 . S
C1257 C1241 1.349 . S
C1257 H1249 0.950 . S
C1257 C1255 1.327 . S
C1258 C1246 1.349 . S
C1258 H1252 0.950 . S
C1258 C1259 1.327 . S
C1259 H1253 0.950 . S
C1259 C1258 1.327 . S
C1259 C1263 1.429 . S
C1260 C1243 1.574 1_455 S
C1260 H1254 0.949 . S
C1260 C1264 1.368 . S
C1261 C1242 1.429 . S
C1261 C1255 1.429 . S
C1261 C1262 1.523 . S
C1262 C1243 1.368 . S
C1262 C1256 1.368 . S
C1262 C1261 1.523 . S
C1263 C1247 1.429 . S
C1263 C1259 1.429 . S
C1263 C1264 1.523 . S
C1264 C1248 1.368 . S
C1264 C1260 1.368 . S
C1264 C1263 1.523 . S
H1265 C1240 0.950 . S
H1266 C1242 0.950 . S
H1267 C1243 0.949 . S
H1268 C1245 0.950 . S
H1269 C1247 0.950 . S
C1270 C1271 1.349 . S
C1270 C1272 1.327 . S
C1270 H1295 0.950 . S
C1271 C1270 1.349 . S
C1271 C1287 1.349 . S
C1272 C1270 1.327 . S
C1272 C1291 1.429 . S
C1272 H1296 0.950 . S
C1273 C1290 1.574 . S
C1273 C1292 1.368 . S
C1273 H1297 0.949 . S
H1274 C1278 0.949 . S
C1275 C1276 1.349 . S
C1275 C1277 1.327 . S
C1275 H1298 0.950 . S
C1276 C1275 1.349 . S
C1276 C1288 1.349 . S
C1277 C1275 1.327 . S
C1277 C1293 1.429 . S
C1277 H1299 0.950 . S
C1278 H1274 0.949 . S
C1278 C1286 1.574 . S
C1278 C1294 1.368 . S
H1279 C1287 0.950 . S
H1280 C1285 0.950 . S
H1281 C1286 0.949 . S
H1282 C1288 0.950 . S
H1283 C1289 0.950 . S
H1284 C1290 0.949 . S
C1285 H1280 0.950 . S
C1285 C1287 1.327 . S
C1285 C1291 1.429 . S
C1286 C1278 1.574 . S
C1286 H1281 0.949 . S
C1286 C1292 1.368 . S
C1287 C1271 1.349 . S
C1287 H1279 0.950 . S
C1287 C1285 1.327 . S
C1288 C1276 1.349 . S
C1288 H1282 0.950 . S
C1288 C1289 1.327 . S
C1289 H1283 0.950 . S
C1289 C1288 1.327 . S
C1289 C1293 1.429 . S
C1290 C1273 1.574 . S
C1290 H1284 0.949 . S
C1290 C1294 1.368 . S
C1291 C1272 1.429 . S
C1291 C1285 1.429 . S
C1291 C1292 1.523 . S
C1292 C1273 1.368 . S
C1292 C1286 1.368 . S
C1292 C1291 1.523 . S
C1293 C1277 1.429 . S
C1293 C1289 1.429 . S
C1293 C1294 1.523 . S
C1294 C1278 1.368 . S
C1294 C1290 1.368 . S
C1294 C1293 1.523 . S
H1295 C1270 0.950 . S
H1296 C1272 0.950 . S
H1297 C1273 0.949 . S
H1298 C1275 0.950 . S
H1299 C1277 0.950 . S
C1300 C1301 1.349 . S
C1300 C1302 1.327 . S
C1300 H1325 0.950 . S
C1301 C1300 1.349 . S
C1301 C1317 1.349 . S
C1302 C1300 1.327 . S
C1302 C1321 1.429 . S
C1302 H1326 0.950 . S
C1303 C1320 1.574 . S
C1303 C1322 1.368 1_565 S
C1303 H1327 0.949 . S
H1304 C1308 0.949 . S
C1305 C1306 1.349 . S
C1305 C1307 1.327 . S
C1305 H1328 0.950 . S
C1306 C1305 1.349 . S
C1306 C1318 1.349 . S
C1307 C1305 1.327 . S
C1307 C1323 1.429 . S
C1307 H1329 0.950 . S
C1308 H1304 0.949 . S
C1308 C1316 1.574 . S
C1308 C1324 1.368 1_545 S
H1309 C1317 0.950 . S
H1310 C1315 0.950 . S
H1311 C1316 0.949 . S
H1312 C1318 0.950 . S
H1313 C1319 0.950 . S
H1314 C1320 0.949 . S
C1315 H1310 0.950 . S
C1315 C1317 1.327 . S
C1315 C1321 1.429 . S
C1316 C1308 1.574 . S
C1316 H1311 0.949 . S
C1316 C1322 1.368 . S
C1317 C1301 1.349 . S
C1317 H1309 0.950 . S
C1317 C1315 1.327 . S
C1318 C1306 1.349 . S
C1318 H1312 0.950 . S
C1318 C1319 1.327 . S
C1319 H1313 0.950 . S
C1319 C1318 1.327 . S
C1319 C1323 1.429 . S
C1320 C1303 1.574 . S
C1320 H1314 0.949 . S
C1320 C1324 1.368 . S
C1321 C1302 1.429 . S
C1321 C1315 1.429 . S
C1321 C1322 1.523 . S
C1322 C1303 1.368 1_545 S
C1322 C1316 1.368 . S
C1322 C1321 1.523 . S
C1323 C1307 1.429 . S
C1323 C1319 1.429 . S
C1323 C1324 1.523 . S
C1324 C1308 1.368 1_565 S
C1324 C1320 1.368 . S
C1324 C1323 1.523 . S
H1325 C1300 0.950 . S
H1326 C1302 0.950 . S
H1327 C1303 0.949 . S
H1328 C1305 0.950 . S
H1329 C1307 0.950 . S
C1330 C1331 1.349 . S
C1330 C1332 1.327 . S
C1330 H1355 0.950 . S
C1331 C1330 1.349 . S
C1331 C1347 1.349 . S
C1332 C1330 1.327 . S
C1332 C1351 1.429 . S
C1332 H1356 0.950 . S
C1333 C1350 1.574 1_565 S
C1333 C1352 1.368 1_455 S
C1333 H1357 0.949 . S
H1334 C1338 0.949 . S
C1335 C1336 1.349 . S
C1335 C1337 1.327 . S
C1335 H1358 0.950 . S
C1336 C1335 1.349 . S
C1336 C1348 1.349 . S
C1337 C1335 1.327 . S
C1337 C1353 1.429 . S
C1337 H1359 0.950 . S
C1338 H1334 0.949 . S
C1338 C1346 1.574 1_545 S
C1338 C1354 1.368 1_655 S
H1339 C1347 0.950 . S
H1340 C1345 0.950 . S
H1341 C1346 0.949 . S
H1342 C1348 0.950 . S
H1343 C1349 0.950 . S
H1344 C1350 0.949 . S
C1345 H1340 0.950 . S
C1345 C1347 1.327 . S
C1345 C1351 1.429 . S
C1346 C1338 1.574 1_565 S
C1346 H1341 0.949 . S
C1346 C1352 1.368 . S
C1347 C1331 1.349 . S
C1347 H1339 0.950 . S
C1347 C1345 1.327 . S
C1348 C1336 1.349 . S
C1348 H1342 0.950 . S
C1348 C1349 1.327 . S
C1349 H1343 0.950 . S
C1349 C1348 1.327 . S
C1349 C1353 1.429 . S
C1350 C1333 1.574 1_545 S
C1350 H1344 0.949 . S
C1350 C1354 1.368 . S
C1351 C1332 1.429 . S
C1351 C1345 1.429 . S
C1351 C1352 1.523 . S
C1352 C1333 1.368 1_655 S
C1352 C1346 1.368 . S
C1352 C1351 1.523 . S
C1353 C1337 1.429 . S
C1353 C1349 1.429 . S
C1353 C1354 1.523 . S
C1354 C1338 1.368 1_455 S
C1354 C1350 1.368 . S
C1354 C1353 1.523 . S
H1355 C1330 0.950 . S
H1356 C1332 0.950 . S
H1357 C1333 0.949 . S
H1358 C1335 0.950 . S
H1359 C1337 0.950 . S
C641 C602 1.641 . S
C646 C2 1.641 . S
C671 C482 1.642 . S
C676 C42 1.642 . S
C701 C82 1.641 . S
C706 C522 1.641 . S
C731 C122 1.642 . S
C736 C562 1.642 . S
C761 C162 1.642 . S
C766 C362 1.642 . S
C791 C202 1.641 . S
C796 C402 1.641 . S
C821 C242 1.642 . S
C826 C442 1.642 . S
C851 C282 1.642 . S
C856 C322 1.642 . S
C881 C21 1.678 . S
C886 C181 1.678 . S
C911 C221 1.678 . S
C916 C61 1.678 . S
C941 C261 1.678 . S
C946 C101 1.678 . S
C971 C141 1.677 . S
C976 C301 1.677 . S
C1001 C341 1.677 . S
C1006 C501 1.677 . S
C1031 C381 1.678 . S
C1036 C541 1.678 . S
C1061 C421 1.678 . S
C1066 C581 1.678 . S
C1091 C461 1.677 . S
C1096 C621 1.677 . S
C1121 C15 1.866 . S
C1126 C415 1.866 . S
C1151 C455 1.866 . S
C1156 C55 1.866 . S
C1181 C335 1.866 . S
C1186 C95 1.866 . S
C1211 C375 1.866 . S
C1216 C135 1.866 . S
C1241 C575 1.866 . S
C1246 C175 1.866 . S
C1271 C215 1.866 . S
C1276 C615 1.866 . S
C1301 C255 1.866 . S
C1306 C495 1.866 . S
C1331 C295 1.866 . S
C1336 C535 1.866 . S
