# Generated by pormake.
# Topology cbo, (4)-cn, num edge types: 1
# Building blocks:
#     Node 0, Type 0, BuildingBlock: KUFVIS_clean_sbu_0, # of connection points: 4
#     Node 1, Type 0, BuildingBlock: KUFVIS_clean_sbu_0, # of connection points: 4
#     Node 2, Type 0, BuildingBlock: KUFVIS_clean_sbu_0, # of connection points: 4
#     Node 3, Type 0, BuildingBlock: KUFVIS_clean_sbu_0, # of connection points: 4
#     Node 4, Type 0, BuildingBlock: KUFVIS_clean_sbu_0, # of connection points: 4
#     Node 5, Type 0, BuildingBlock: KUFVIS_clean_sbu_0, # of connection points: 4
#     Node 6, Type 0, BuildingBlock: KUFVIS_clean_sbu_0, # of connection points: 4
#     Node 7, Type 0, BuildingBlock: KUFVIS_clean_sbu_0, # of connection points: 4
#     Node 8, Type 0, BuildingBlock: KUFVIS_clean_sbu_0, # of connection points: 4
#     Node 9, Type 0, BuildingBlock: KUFVIS_clean_sbu_0, # of connection points: 4
#     Node 10, Type 0, BuildingBlock: KUFVIS_clean_sbu_0, # of connection points: 4
#     Node 11, Type 0, BuildingBlock: KUFVIS_clean_sbu_0, # of connection points: 4
#     Node 12, Type 0, BuildingBlock: KUFVIS_clean_sbu_0, # of connection points: 4
#     Node 13, Type 0, BuildingBlock: KUFVIS_clean_sbu_0, # of connection points: 4
#     Node 14, Type 0, BuildingBlock: KUFVIS_clean_sbu_0, # of connection points: 4
#     Node 15, Type 0, BuildingBlock: KUFVIS_clean_sbu_0, # of connection points: 4
#     Node 16, Type 0, BuildingBlock: KUFVIS_clean_sbu_0, # of connection points: 4
#     Node 17, Type 0, BuildingBlock: KUFVIS_clean_sbu_0, # of connection points: 4
#     Node 18, Type 0, BuildingBlock: KUFVIS_clean_sbu_0, # of connection points: 4
#     Node 19, Type 0, BuildingBlock: KUFVIS_clean_sbu_0, # of connection points: 4
#     Node 20, Type 0, BuildingBlock: KUFVIS_clean_sbu_0, # of connection points: 4
#     Node 21, Type 0, BuildingBlock: KUFVIS_clean_sbu_0, # of connection points: 4
#     Node 22, Type 0, BuildingBlock: KUFVIS_clean_sbu_0, # of connection points: 4
#     Node 23, Type 0, BuildingBlock: KUFVIS_clean_sbu_0, # of connection points: 4
#     Edge 24, Type (0, 0), BuildingBlock: UVAHIK_clean_linker_0, # of connection points: 2
#     Edge 25, Type (0, 0), BuildingBlock: UVAHIK_clean_linker_0, # of connection points: 2
#     Edge 26, Type (0, 0), BuildingBlock: UVAHIK_clean_linker_0, # of connection points: 2
#     Edge 27, Type (0, 0), BuildingBlock: UVAHIK_clean_linker_0, # of connection points: 2
#     Edge 28, Type (0, 0), BuildingBlock: UVAHIK_clean_linker_0, # of connection points: 2
#     Edge 29, Type (0, 0), BuildingBlock: UVAHIK_clean_linker_0, # of connection points: 2
#     Edge 30, Type (0, 0), BuildingBlock: UVAHIK_clean_linker_0, # of connection points: 2
#     Edge 31, Type (0, 0), BuildingBlock: UVAHIK_clean_linker_0, # of connection points: 2
#     Edge 32, Type (0, 0), BuildingBlock: UVAHIK_clean_linker_0, # of connection points: 2
#     Edge 33, Type (0, 0), BuildingBlock: UVAHIK_clean_linker_0, # of connection points: 2
#     Edge 34, Type (0, 0), BuildingBlock: UVAHIK_clean_linker_0, # of connection points: 2
#     Edge 35, Type (0, 0), BuildingBlock: UVAHIK_clean_linker_0, # of connection points: 2
#     Edge 36, Type (0, 0), BuildingBlock: UVAHIK_clean_linker_0, # of connection points: 2
#     Edge 37, Type (0, 0), BuildingBlock: UVAHIK_clean_linker_0, # of connection points: 2
#     Edge 38, Type (0, 0), BuildingBlock: UVAHIK_clean_linker_0, # of connection points: 2
#     Edge 39, Type (0, 0), BuildingBlock: UVAHIK_clean_linker_0, # of connection points: 2
#     Edge 40, Type (0, 0), BuildingBlock: UVAHIK_clean_linker_0, # of connection points: 2
#     Edge 41, Type (0, 0), BuildingBlock: UVAHIK_clean_linker_0, # of connection points: 2
#     Edge 42, Type (0, 0), BuildingBlock: UVAHIK_clean_linker_0, # of connection points: 2
#     Edge 43, Type (0, 0), BuildingBlock: UVAHIK_clean_linker_0, # of connection points: 2
#     Edge 44, Type (0, 0), BuildingBlock: UVAHIK_clean_linker_0, # of connection points: 2
#     Edge 45, Type (0, 0), BuildingBlock: UVAHIK_clean_linker_0, # of connection points: 2
#     Edge 46, Type (0, 0), BuildingBlock: UVAHIK_clean_linker_0, # of connection points: 2
#     Edge 47, Type (0, 0), BuildingBlock: UVAHIK_clean_linker_0, # of connection points: 2
#     Edge 48, Type (0, 0), BuildingBlock: UVAHIK_clean_linker_0, # of connection points: 2
#     Edge 49, Type (0, 0), BuildingBlock: UVAHIK_clean_linker_0, # of connection points: 2
#     Edge 50, Type (0, 0), BuildingBlock: UVAHIK_clean_linker_0, # of connection points: 2
#     Edge 51, Type (0, 0), BuildingBlock: UVAHIK_clean_linker_0, # of connection points: 2
#     Edge 52, Type (0, 0), BuildingBlock: UVAHIK_clean_linker_0, # of connection points: 2
#     Edge 53, Type (0, 0), BuildingBlock: UVAHIK_clean_linker_0, # of connection points: 2
#     Edge 54, Type (0, 0), BuildingBlock: UVAHIK_clean_linker_0, # of connection points: 2
#     Edge 55, Type (0, 0), BuildingBlock: UVAHIK_clean_linker_0, # of connection points: 2
#     Edge 56, Type (0, 0), BuildingBlock: UVAHIK_clean_linker_0, # of connection points: 2
#     Edge 57, Type (0, 0), BuildingBlock: UVAHIK_clean_linker_0, # of connection points: 2
#     Edge 58, Type (0, 0), BuildingBlock: UVAHIK_clean_linker_0, # of connection points: 2
#     Edge 59, Type (0, 0), BuildingBlock: UVAHIK_clean_linker_0, # of connection points: 2
#     Edge 60, Type (0, 0), BuildingBlock: UVAHIK_clean_linker_0, # of connection points: 2
#     Edge 61, Type (0, 0), BuildingBlock: UVAHIK_clean_linker_0, # of connection points: 2
#     Edge 62, Type (0, 0), BuildingBlock: UVAHIK_clean_linker_0, # of connection points: 2
#     Edge 63, Type (0, 0), BuildingBlock: UVAHIK_clean_linker_0, # of connection points: 2
#     Edge 64, Type (0, 0), BuildingBlock: UVAHIK_clean_linker_0, # of connection points: 2
#     Edge 65, Type (0, 0), BuildingBlock: UVAHIK_clean_linker_0, # of connection points: 2
#     Edge 66, Type (0, 0), BuildingBlock: UVAHIK_clean_linker_0, # of connection points: 2
#     Edge 67, Type (0, 0), BuildingBlock: UVAHIK_clean_linker_0, # of connection points: 2
#     Edge 68, Type (0, 0), BuildingBlock: UVAHIK_clean_linker_0, # of connection points: 2
#     Edge 69, Type (0, 0), BuildingBlock: UVAHIK_clean_linker_0, # of connection points: 2
#     Edge 70, Type (0, 0), BuildingBlock: UVAHIK_clean_linker_0, # of connection points: 2
#     Edge 71, Type (0, 0), BuildingBlock: UVAHIK_clean_linker_0, # of connection points: 2
# Relax obj value: 0.205
# Max RMSD: 0.223
# Mean RMSD: 0.213
data_MOF--net-cbo--node1-KUFVIS_clean_sbu_0--edge1-UVAHIK_clean_linker_0
_symmetry_space_group_name_H-M    P1
_symmetry_Int_Tables_number       1
_symmetry_cell_setting            triclinic
loop_
_symmetry_equiv_pos_as_xyz
'x, y, z'
_cell_length_a     66.23374
_cell_length_b     65.708673
_cell_length_c     67.164834
_cell_angle_alpha  89.993064
_cell_angle_beta   90.029238
_cell_angle_gamma 90.030787
loop_
_atom_site_label
_atom_site_type_symbol
_atom_site_fract_x
_atom_site_fract_y
_atom_site_fract_z
_atom_type_partial_charge
Mn0 Mn 0.13823 0.16795 0.33359 0.0
Mn1 Mn 0.13793 0.11746 0.3423 0.0
C2 C 0.16795 0.14983 0.33205 0.0
C3 C 0.1337 0.19454 0.31109 0.0
C4 C 0.13382 0.14939 0.37477 0.0
O5 O 0.10867 0.16018 0.33151 0.0
O6 O 0.11048 0.12597 0.33362 0.0
C7 C 0.13113 0.10214 0.30142 0.0
N8 N 0.14267 0.1028 0.31819 0.0
C9 C 0.16704 0.07987 0.30398 0.0
C10 C 0.15535 0.07884 0.28659 0.0
C11 C 0.13734 0.09005 0.28531 0.0
C12 C 0.16 0.09204 0.31962 0.0
H13 H 0.11733 0.11082 0.30034 0.0
C14 C 0.10063 0.14254 0.33087 0.0
O15 O 0.13149 0.19736 0.33012 0.0
O16 O 0.1385 0.17636 0.30528 0.0
N17 N 0.16373 0.10743 0.35061 0.0
C18 C 0.17394 0.11124 0.36782 0.0
C19 C 0.19267 0.10181 0.37114 0.0
C20 C 0.20066 0.08856 0.35676 0.0
C21 C 0.18983 0.0848 0.3392 0.0
C22 C 0.17115 0.09447 0.3368 0.0
H23 H 0.1679 0.12147 0.37889 0.0
O24 O 0.16838 0.16943 0.33442 0.0
O25 O 0.15018 0.14165 0.33042 0.0
O26 O 0.13689 0.16496 0.36384 0.0
O27 O 0.13324 0.13118 0.36809 0.0
C28 C 0.19703 0.07218 0.3238 0.0
C29 C 0.18564 0.06971 0.30621 0.0
H30 H 0.16017 0.06967 0.27407 0.0
H31 H 0.12829 0.08942 0.2719 0.0
H32 H 0.20097 0.10483 0.3847 0.0
H33 H 0.21521 0.08148 0.35928 0.0
H34 H 0.21145 0.06456 0.32521 0.0
H35 H 0.19149 0.06024 0.29435 0.0
Mn36 Mn 0.35518 0.82417 0.83503 0.0
Mn37 Mn 0.35804 0.87502 0.84081 0.0
C38 C 0.32708 0.84391 0.82921 0.0
C39 C 0.36053 0.79595 0.81477 0.0
C40 C 0.35616 0.84514 0.87531 0.0
O41 O 0.38524 0.82986 0.83611 0.0
O42 O 0.3856 0.86417 0.8357 0.0
C43 C 0.37018 0.8869 0.80004 0.0
N44 N 0.35694 0.88823 0.81549 0.0
C45 C 0.33588 0.91159 0.79732 0.0
C46 C 0.34936 0.91057 0.78126 0.0
C47 C 0.36657 0.89815 0.78262 0.0
C48 C 0.34035 0.90016 0.81435 0.0
H49 H 0.38336 0.87727 0.801 0.0
C50 C 0.39452 0.84685 0.83524 0.0
O51 O 0.36008 0.79422 0.83404 0.0
O52 O 0.35782 0.81397 0.80739 0.0
N53 N 0.33232 0.88735 0.84567 0.0
C54 C 0.32022 0.88566 0.86199 0.0
C55 C 0.30205 0.89664 0.86274 0.0
C56 C 0.29655 0.90927 0.84676 0.0
C57 C 0.30933 0.91088 0.8302 0.0
C58 C 0.32735 0.89975 0.83037 0.0
H59 H 0.32434 0.87593 0.87429 0.0
O60 O 0.32515 0.82453 0.83242 0.0
O61 O 0.34542 0.85094 0.82904 0.0
O62 O 0.35314 0.82911 0.86501 0.0
O63 O 0.35892 0.86276 0.8677 0.0
C64 C 0.30469 0.92278 0.81335 0.0
C65 C 0.31795 0.92312 0.79691 0.0
H66 H 0.34655 0.91911 0.76774 0.0
H67 H 0.37699 0.8972 0.77025 0.0
H68 H 0.29225 0.89528 0.87556 0.0
H69 H 0.28242 0.91753 0.8473 0.0
H70 H 0.29082 0.93148 0.81275 0.0
H71 H 0.31406 0.93207 0.78392 0.0
Mn72 Mn 0.63498 0.31978 0.65949 0.0
Mn73 Mn 0.63396 0.37058 0.65248 0.0
C74 C 0.66313 0.33901 0.66679 0.0
C75 C 0.62821 0.29189 0.67979 0.0
C76 C 0.63763 0.34009 0.61877 0.0
O77 O 0.60515 0.32606 0.65691 0.0
O78 O 0.60572 0.36036 0.65486 0.0
C79 C 0.61791 0.38339 0.69162 0.0
N80 N 0.63273 0.38416 0.6776 0.0
C81 C 0.65241 0.40722 0.69757 0.0
C82 C 0.63728 0.4068 0.71216 0.0
C83 C 0.61997 0.39481 0.70918 0.0
C84 C 0.64941 0.39571 0.68028 0.0
H85 H 0.60465 0.37408 0.68943 0.0
C86 C 0.59635 0.34329 0.65581 0.0
O87 O 0.62951 0.28994 0.66058 0.0
O88 O 0.63074 0.30998 0.68709 0.0
N89 N 0.66032 0.38226 0.65009 0.0
C90 C 0.67411 0.37983 0.63524 0.0
C91 C 0.69265 0.39014 0.63633 0.0
C92 C 0.6968 0.40286 0.65263 0.0
C93 C 0.68232 0.40522 0.66768 0.0
C94 C 0.66403 0.39472 0.66569 0.0
H95 H 0.67105 0.36996 0.62274 0.0
O96 O 0.66479 0.31959 0.66366 0.0
O97 O 0.64496 0.34646 0.66575 0.0
O98 O 0.63873 0.32412 0.62952 0.0
O99 O 0.63549 0.358 0.62584 0.0
C100 C 0.68551 0.4172 0.68479 0.0
C101 C 0.67056 0.41821 0.69972 0.0
H102 H 0.6389 0.41543 0.72581 0.0
H103 H 0.60829 0.3943 0.72043 0.0
H104 H 0.70378 0.38819 0.62469 0.0
H105 H 0.71121 0.4106 0.65353 0.0
H106 H 0.69953 0.42545 0.68677 0.0
H107 H 0.67331 0.42723 0.71295 0.0
Mn108 Mn 0.85353 0.67345 0.16202 0.0
Mn109 Mn 0.85515 0.6229 0.15377 0.0
C110 C 0.82483 0.65419 0.16657 0.0
C111 C 0.85983 0.7003 0.18365 0.0
C112 C 0.85421 0.65455 0.12072 0.0
O113 O 0.88338 0.66708 0.16099 0.0
O114 O 0.88299 0.63283 0.15961 0.0
C115 C 0.86681 0.60867 0.19397 0.0
N116 N 0.85365 0.6084 0.17839 0.0
C117 C 0.8321 0.5844 0.19515 0.0
C118 C 0.8455 0.58431 0.21133 0.0
C119 C 0.86291 0.59652 0.21074 0.0
C120 C 0.83686 0.5967 0.17879 0.0
H121 H 0.88015 0.61813 0.19361 0.0
C122 C 0.89228 0.64989 0.16117 0.0
O123 O 0.85931 0.70316 0.16451 0.0
O124 O 0.85635 0.68205 0.19013 0.0
N125 N 0.82922 0.61137 0.14816 0.0
C126 C 0.81723 0.61416 0.13189 0.0
C127 C 0.79888 0.60355 0.13046 0.0
C128 C 0.79309 0.59012 0.1457 0.0
C129 C 0.80576 0.58735 0.16221 0.0
C130 C 0.82396 0.59821 0.16274 0.0
H131 H 0.82158 0.6245 0.12015 0.0
O132 O 0.82349 0.67377 0.16433 0.0
O133 O 0.84298 0.64665 0.1666 0.0
O134 O 0.85175 0.67014 0.13179 0.0
O135 O 0.85633 0.63651 0.12754 0.0
C136 C 0.80085 0.57458 0.17834 0.0
C137 C 0.814 0.57312 0.19482 0.0
H138 H 0.84247 0.57507 0.22435 0.0
H139 H 0.87326 0.59662 0.22321 0.0
H140 H 0.78917 0.60579 0.11768 0.0
H141 H 0.77883 0.58212 0.14463 0.0
H142 H 0.78685 0.56605 0.17838 0.0
H143 H 0.8099 0.5635 0.20727 0.0
Mn144 Mn 0.34017 0.11975 0.17551 0.0
Mn145 Mn 0.34269 0.12506 0.12556 0.0
C146 C 0.33618 0.15139 0.16152 0.0
C147 C 0.32162 0.11194 0.20379 0.0
C148 C 0.37951 0.12006 0.15193 0.0
O149 O 0.33754 0.0909 0.16545 0.0
O150 O 0.33711 0.09607 0.13231 0.0
C151 C 0.30002 0.11608 0.1158 0.0
N152 N 0.31619 0.12886 0.11496 0.0
C153 C 0.2974 0.15337 0.09585 0.0
C154 C 0.28059 0.1404 0.09638 0.0
C155 C 0.28189 0.1217 0.10645 0.0
C156 C 0.31508 0.14691 0.10537 0.0
H157 H 0.30096 0.10172 0.12357 0.0
C158 C 0.33598 0.08447 0.14762 0.0
O159 O 0.34115 0.11011 0.20361 0.0
O160 O 0.31297 0.11819 0.18757 0.0
N161 N 0.34785 0.15226 0.11675 0.0
C162 C 0.36498 0.16357 0.11877 0.0
C163 C 0.36589 0.18304 0.11019 0.0
C164 C 0.3493 0.19059 0.09946 0.0
C165 C 0.33193 0.17856 0.09738 0.0
C166 C 0.33191 0.15925 0.1062 0.0
H167 H 0.37779 0.15784 0.12698 0.0
O168 O 0.34099 0.1496 0.18016 0.0
O169 O 0.33327 0.13455 0.1517 0.0
O170 O 0.37011 0.11967 0.16849 0.0
O171 O 0.37069 0.12167 0.13508 0.0
C172 C 0.31448 0.18514 0.08724 0.0
C173 C 0.2972 0.17259 0.08655 0.0
H174 H 0.26655 0.14473 0.08927 0.0
H175 H 0.26895 0.11167 0.10702 0.0
H176 H 0.37935 0.19224 0.11188 0.0
H177 H 0.35 0.20568 0.09301 0.0
H178 H 0.31408 0.19995 0.08016 0.0
H179 H 0.28376 0.17797 0.07901 0.0
Mn180 Mn 0.1524 0.87675 0.67254 0.0
Mn181 Mn 0.14666 0.87058 0.623 0.0
C182 C 0.1575 0.84522 0.6587 0.0
C183 C 0.1727 0.88619 0.69921 0.0
C184 C 0.11163 0.8741 0.65186 0.0
O185 O 0.15212 0.90555 0.66189 0.0
O186 O 0.15149 0.89992 0.6288 0.0
C187 C 0.18802 0.88099 0.60987 0.0
N188 N 0.17241 0.86752 0.61058 0.0
C189 C 0.19088 0.84307 0.59112 0.0
C190 C 0.20711 0.85674 0.59004 0.0
C191 C 0.20568 0.87576 0.59949 0.0
C192 C 0.17361 0.84918 0.60154 0.0
H193 H 0.187 0.89558 0.61719 0.0
C194 C 0.15244 0.9118 0.64392 0.0
O195 O 0.15313 0.88678 0.70054 0.0
O196 O 0.18034 0.88038 0.68237 0.0
N197 N 0.14195 0.84295 0.61526 0.0
C198 C 0.12554 0.83101 0.61891 0.0
C199 C 0.1249 0.81116 0.61117 0.0
C200 C 0.14106 0.80387 0.59965 0.0
C201 C 0.15769 0.81652 0.59594 0.0
C202 C 0.15743 0.83619 0.60394 0.0
H203 H 0.11311 0.83652 0.62778 0.0
O204 O 0.15408 0.84702 0.67764 0.0
O205 O 0.15843 0.86206 0.6485 0.0
O206 O 0.12202 0.8745 0.66784 0.0
O207 O 0.11933 0.87326 0.63445 0.0
C208 C 0.17472 0.81021 0.585 0.0
C209 C 0.19132 0.82346 0.58263 0.0
H210 H 0.22081 0.85271 0.58218 0.0
H211 H 0.21819 0.88635 0.59883 0.0
H212 H 0.11203 0.80148 0.61413 0.0
H213 H 0.1406 0.78849 0.59387 0.0
H214 H 0.17534 0.79509 0.57861 0.0
H215 H 0.20446 0.81831 0.57447 0.0
Mn216 Mn 0.8456 0.37311 0.8235 0.0
Mn217 Mn 0.8518 0.37101 0.87321 0.0
C218 C 0.83949 0.34313 0.84016 0.0
C219 C 0.82421 0.38112 0.79715 0.0
C220 C 0.88658 0.3709 0.84369 0.0
O221 O 0.84747 0.40274 0.83171 0.0
O222 O 0.84765 0.39986 0.86515 0.0
C223 C 0.81069 0.38335 0.88544 0.0
N224 N 0.82593 0.36945 0.88569 0.0
C225 C 0.80617 0.34627 0.90544 0.0
C226 C 0.79032 0.36041 0.90553 0.0
C227 C 0.79259 0.37902 0.89547 0.0
C228 C 0.8239 0.35149 0.8953 0.0
H229 H 0.81232 0.39759 0.87757 0.0
C230 C 0.84729 0.41048 0.84913 0.0
O231 O 0.84367 0.38064 0.79463 0.0
O232 O 0.81744 0.37714 0.8148 0.0
N233 N 0.85585 0.34394 0.88296 0.0
C234 C 0.87234 0.33173 0.88094 0.0
C235 C 0.87244 0.31245 0.88997 0.0
C236 C 0.85563 0.30596 0.90103 0.0
C237 C 0.83893 0.31889 0.9031 0.0
C238 C 0.83982 0.33805 0.89401 0.0
H239 H 0.88528 0.33661 0.87241 0.0
O240 O 0.84238 0.343 0.82106 0.0
O241 O 0.83972 0.36087 0.84868 0.0
O242 O 0.87603 0.36996 0.82778 0.0
O243 O 0.87904 0.37207 0.8612 0.0
C244 C 0.82132 0.3134 0.91357 0.0
C245 C 0.80493 0.32707 0.9147 0.0
H246 H 0.77628 0.35708 0.91314 0.0
H247 H 0.78038 0.38996 0.89537 0.0
H248 H 0.88539 0.30256 0.88832 0.0
H249 H 0.85566 0.29098 0.90777 0.0
H250 H 0.82013 0.29863 0.92063 0.0
H251 H 0.79139 0.32258 0.9226 0.0
Mn252 Mn 0.65106 0.61665 0.32013 0.0
Mn253 Mn 0.64814 0.61994 0.37013 0.0
C254 C 0.66107 0.64608 0.33581 0.0
C255 C 0.66929 0.60686 0.29214 0.0
C256 C 0.61181 0.62291 0.34271 0.0
O257 O 0.64736 0.58739 0.32891 0.0
O258 O 0.64905 0.59072 0.36228 0.0
C259 C 0.68823 0.60348 0.381 0.0
N260 N 0.6745 0.61888 0.38165 0.0
C261 C 0.69673 0.63954 0.40152 0.0
C262 C 0.71106 0.62384 0.40119 0.0
C263 C 0.70679 0.60575 0.39086 0.0
C264 C 0.6784 0.63633 0.3916 0.0
H265 H 0.68504 0.58959 0.37299 0.0
C266 C 0.64776 0.5799 0.34643 0.0
O267 O 0.64977 0.60881 0.29141 0.0
O268 O 0.67798 0.6102 0.30912 0.0
N269 N 0.64732 0.64739 0.37961 0.0
C270 C 0.63255 0.6616 0.37718 0.0
C271 C 0.63487 0.68092 0.38583 0.0
C272 C 0.65228 0.68538 0.39696 0.0
C273 C 0.6672 0.67046 0.39939 0.0
C274 C 0.66399 0.65143 0.39055 0.0
H275 H 0.61919 0.65828 0.36855 0.0
O276 O 0.65658 0.64625 0.317 0.0
O277 O 0.65992 0.62855 0.34475 0.0
O278 O 0.62138 0.62247 0.32624 0.0
O279 O 0.62032 0.62148 0.35973 0.0
C280 C 0.68537 0.67389 0.40979 0.0
C281 C 0.70011 0.65844 0.41086 0.0
H282 H 0.72547 0.62561 0.40862 0.0
H283 H 0.71783 0.59361 0.39044 0.0
H284 H 0.62331 0.69238 0.38385 0.0
H285 H 0.65411 0.70037 0.40343 0.0
H286 H 0.68829 0.68848 0.41673 0.0
H287 H 0.71415 0.66138 0.41863 0.0
Mn288 Mn 0.18816 0.33788 0.12819 0.0
Mn289 Mn 0.229 0.35984 0.10704 0.0
C290 C 0.21738 0.31947 0.12429 0.0
C291 C 0.16912 0.33084 0.15653 0.0
C292 C 0.19355 0.3437 0.08324 0.0
O293 O 0.18117 0.36779 0.12912 0.0
O294 O 0.20935 0.38103 0.11561 0.0
C295 C 0.24499 0.3801 0.14312 0.0
N296 N 0.24768 0.36712 0.12754 0.0
C297 C 0.28188 0.36017 0.13753 0.0
C298 C 0.27953 0.37357 0.15361 0.0
C299 C 0.26099 0.38355 0.15643 0.0
C300 C 0.26543 0.35741 0.12471 0.0
H301 H 0.23075 0.38774 0.14538 0.0
C302 C 0.19179 0.38285 0.12342 0.0
O303 O 0.16104 0.33026 0.1389 0.0
O304 O 0.18792 0.33619 0.15761 0.0
N305 N 0.24947 0.34144 0.09808 0.0
C306 C 0.24903 0.32844 0.08227 0.0
C307 C 0.26627 0.31693 0.07767 0.0
C308 C 0.28383 0.31906 0.08921 0.0
C309 C 0.28404 0.33281 0.10518 0.0
C310 C 0.26645 0.34397 0.10898 0.0
H311 H 0.23556 0.32666 0.0734 0.0
O312 O 0.20023 0.31031 0.12682 0.0
O313 O 0.21709 0.33928 0.12464 0.0
O314 O 0.18303 0.33756 0.09802 0.0
O315 O 0.2108 0.35226 0.08504 0.0
C316 C 0.30088 0.33557 0.11772 0.0
C317 C 0.29979 0.34922 0.1339 0.0
H318 H 0.2918 0.37621 0.16396 0.0
H319 H 0.25903 0.39384 0.16885 0.0
H320 H 0.26598 0.30635 0.06532 0.0
H321 H 0.29702 0.31 0.08574 0.0
H322 H 0.31467 0.32709 0.11519 0.0
H323 H 0.31276 0.35104 0.14357 0.0
Mn324 Mn 0.6844 0.15497 0.86552 0.0
Mn325 Mn 0.72727 0.1355 0.88503 0.0
C326 C 0.71164 0.17586 0.87111 0.0
C327 C 0.66469 0.16158 0.8376 0.0
C328 C 0.6909 0.14665 0.91005 0.0
O329 O 0.68013 0.12465 0.86259 0.0
O330 O 0.70935 0.11322 0.87548 0.0
C331 C 0.74373 0.11986 0.84704 0.0
N332 N 0.74577 0.13178 0.8635 0.0
C333 C 0.77815 0.14393 0.85242 0.0
C334 C 0.77646 0.13166 0.83541 0.0
C335 C 0.75915 0.1196 0.8327 0.0
C336 C 0.76227 0.14358 0.86617 0.0
H337 H 0.73039 0.11067 0.84482 0.0
C338 C 0.69201 0.1103 0.86755 0.0
O339 O 0.65665 0.16072 0.85523 0.0
O340 O 0.68392 0.15829 0.83624 0.0
N341 N 0.74639 0.15483 0.89502 0.0
C342 C 0.74611 0.16502 0.91269 0.0
C343 C 0.76252 0.17748 0.91791 0.0
C344 C 0.77916 0.1791 0.90505 0.0
C345 C 0.77943 0.16789 0.88729 0.0
C346 C 0.76275 0.15553 0.88301 0.0
H347 H 0.73336 0.16384 0.92263 0.0
O348 O 0.69377 0.1835 0.86873 0.0
O349 O 0.71326 0.1562 0.86926 0.0
O350 O 0.67968 0.15273 0.8957 0.0
O351 O 0.70886 0.13986 0.9077 0.0
C352 C 0.79559 0.16847 0.87368 0.0
C353 C 0.79492 0.15656 0.85621 0.0
H354 H 0.78832 0.13143 0.82432 0.0
H355 H 0.75769 0.11016 0.81957 0.0
H356 H 0.76228 0.18592 0.93174 0.0
H357 H 0.79169 0.1889 0.90901 0.0
H358 H 0.80861 0.17804 0.87649 0.0
H359 H 0.80741 0.15718 0.84583 0.0
Mn360 Mn 0.8149 0.83798 0.36836 0.0
Mn361 Mn 0.77075 0.8533 0.38853 0.0
C362 C 0.78919 0.81491 0.37263 0.0
C363 C 0.83511 0.83358 0.34037 0.0
C364 C 0.80815 0.84417 0.41302 0.0
O365 O 0.81686 0.86861 0.3668 0.0
O366 O 0.78654 0.87735 0.37924 0.0
C367 C 0.75181 0.86908 0.35172 0.0
N368 N 0.75126 0.85644 0.36777 0.0
C369 C 0.71888 0.84318 0.35797 0.0
C370 C 0.71903 0.85617 0.3414 0.0
C371 C 0.73558 0.86915 0.33825 0.0
C372 C 0.73543 0.84386 0.37093 0.0
H373 H 0.76455 0.87902 0.3492 0.0
C374 C 0.80374 0.88185 0.37169 0.0
O375 O 0.84299 0.83465 0.35807 0.0
O376 O 0.81572 0.83581 0.33898 0.0
N377 N 0.75369 0.83192 0.39813 0.0
C378 C 0.75626 0.81975 0.41436 0.0
C379 C 0.74126 0.80552 0.41933 0.0
C380 C 0.72368 0.80411 0.4077 0.0
C381 C 0.72121 0.81705 0.39128 0.0
C382 C 0.73661 0.83103 0.38713 0.0
H383 H 0.76977 0.8207 0.42331 0.0
O384 O 0.80764 0.8088 0.37032 0.0
O385 O 0.78611 0.83448 0.37171 0.0
O386 O 0.81964 0.8392 0.39854 0.0
O387 O 0.78981 0.84984 0.41081 0.0
C388 C 0.70426 0.81632 0.37861 0.0
C389 C 0.70312 0.82935 0.36195 0.0
H390 H 0.70659 0.85619 0.33093 0.0
H391 H 0.73586 0.87915 0.32545 0.0
H392 H 0.74328 0.79559 0.43202 0.0
H393 H 0.71225 0.79295 0.41144 0.0
H394 H 0.69215 0.80561 0.38139 0.0
H395 H 0.69013 0.82847 0.35218 0.0
Mn396 Mn 0.30735 0.65545 0.63089 0.0
Mn397 Mn 0.26507 0.6347 0.61131 0.0
C398 C 0.27885 0.67505 0.62724 0.0
C399 C 0.32733 0.662 0.65866 0.0
C400 C 0.3004 0.64887 0.58619 0.0
O401 O 0.31315 0.62528 0.63233 0.0
O402 O 0.28411 0.61289 0.61979 0.0
C403 C 0.24936 0.6161 0.64833 0.0
N404 N 0.24672 0.62871 0.63245 0.0
C405 C 0.21308 0.63722 0.64307 0.0
C406 C 0.21538 0.62421 0.65946 0.0
C407 C 0.23362 0.61364 0.66212 0.0
C408 C 0.22927 0.63901 0.62978 0.0
H409 H 0.26339 0.60801 0.65046 0.0
C410 C 0.30178 0.61056 0.62722 0.0
O411 O 0.33498 0.66231 0.64084 0.0
O412 O 0.30839 0.65742 0.66028 0.0
N413 N 0.2451 0.65365 0.60237 0.0
C414 C 0.24556 0.66611 0.58615 0.0
C415 C 0.22863 0.67811 0.58163 0.0
C416 C 0.21131 0.67697 0.59365 0.0
C417 C 0.21103 0.66371 0.61 0.0
C418 C 0.22832 0.65204 0.61372 0.0
H419 H 0.25883 0.66705 0.57687 0.0
O420 O 0.29643 0.68347 0.62929 0.0
O421 O 0.27827 0.65524 0.62805 0.0
O422 O 0.31163 0.65503 0.60048 0.0
O423 O 0.28295 0.64099 0.58877 0.0
C424 C 0.19444 0.66192 0.62301 0.0
C425 C 0.19548 0.64873 0.63955 0.0
H426 H 0.20331 0.62233 0.67018 0.0
H427 H 0.23555 0.60365 0.67479 0.0
H428 H 0.22895 0.68828 0.56896 0.0
H429 H 0.19836 0.6864 0.59023 0.0
H430 H 0.1809 0.67082 0.62057 0.0
H431 H 0.18272 0.64766 0.64958 0.0
Mn432 Mn 0.86055 0.83685 0.66102 0.0
Mn433 Mn 0.85496 0.88702 0.65179 0.0
C434 C 0.82969 0.85209 0.66586 0.0
C435 C 0.8701 0.8109 0.6826 0.0
C436 C 0.85679 0.85501 0.6193 0.0
O437 O 0.88925 0.84718 0.65977 0.0
O438 O 0.88418 0.88087 0.65561 0.0
C439 C 0.86751 0.90297 0.6911 0.0
N440 N 0.85335 0.9014 0.67647 0.0
C441 C 0.82996 0.92206 0.69496 0.0
C442 C 0.84434 0.92403 0.71016 0.0
C443 C 0.86319 0.91442 0.70823 0.0
C444 C 0.83518 0.91059 0.67817 0.0
H445 H 0.88195 0.89548 0.68974 0.0
C446 C 0.89567 0.86538 0.65811 0.0
O447 O 0.87012 0.80821 0.66344 0.0
O448 O 0.86452 0.8286 0.68913 0.0
N449 N 0.82747 0.89509 0.64795 0.0
C450 C 0.81492 0.89083 0.63242 0.0
C451 C 0.79527 0.89885 0.6323 0.0
C452 C 0.78877 0.91123 0.6481 0.0
C453 C 0.80203 0.91559 0.66381 0.0
C454 C 0.82151 0.90735 0.663 0.0
H455 H 0.8198 0.88125 0.62028 0.0
O456 O 0.83089 0.83251 0.6636 0.0
O457 O 0.84666 0.86207 0.66555 0.0
O458 O 0.85794 0.8396 0.6308 0.0
O459 O 0.85598 0.87335 0.62561 0.0
C460 C 0.79655 0.92744 0.68043 0.0
C461 C 0.8105 0.93066 0.696 0.0
H462 H 0.84102 0.93272 0.72347 0.0
H463 H 0.87432 0.91577 0.71996 0.0
H464 H 0.78512 0.89541 0.62013 0.0
H465 H 0.77353 0.9172 0.64807 0.0
H466 H 0.78156 0.93393 0.68151 0.0
H467 H 0.80601 0.93956 0.70883 0.0
Mn468 Mn 0.63187 0.15658 0.15722 0.0
Mn469 Mn 0.63617 0.10631 0.14832 0.0
C470 C 0.66143 0.13997 0.16495 0.0
C471 C 0.62162 0.18264 0.1784 0.0
C472 C 0.63819 0.13855 0.11594 0.0
O473 O 0.60304 0.14744 0.15307 0.0
O474 O 0.60699 0.11347 0.15029 0.0
C475 C 0.62024 0.09009 0.18631 0.0
N476 N 0.63554 0.09157 0.17284 0.0
C477 C 0.65694 0.07006 0.19273 0.0
C478 C 0.64136 0.06819 0.20674 0.0
C479 C 0.62294 0.07826 0.20351 0.0
C480 C 0.65329 0.08186 0.17574 0.0
H481 H 0.60612 0.09794 0.18396 0.0
C482 C 0.59595 0.12947 0.1514 0.0
O483 O 0.62338 0.18566 0.15935 0.0
O484 O 0.62565 0.16454 0.18497 0.0
N485 N 0.66367 0.09758 0.14643 0.0
C486 C 0.67761 0.1021 0.13218 0.0
C487 C 0.69711 0.09386 0.13361 0.0
C488 C 0.70207 0.08107 0.14964 0.0
C489 C 0.68744 0.07656 0.16406 0.0
C490 C 0.66819 0.08504 0.16175 0.0
H491 H 0.67393 0.11204 0.1199 0.0
O492 O 0.66131 0.15958 0.16265 0.0
O493 O 0.64416 0.13081 0.16285 0.0
O494 O 0.63721 0.15402 0.12737 0.0
O495 O 0.6374 0.1202 0.12224 0.0
C496 C 0.69135 0.06436 0.18088 0.0
C497 C 0.6761 0.0611 0.19519 0.0
H498 H 0.64345 0.05924 0.22013 0.0
H499 H 0.61089 0.07699 0.21432 0.0
H500 H 0.70834 0.09747 0.12245 0.0
H501 H 0.7172 0.07493 0.15081 0.0
H502 H 0.70611 0.05764 0.1831 0.0
H503 H 0.67937 0.05192 0.2082 0.0
Mn504 Mn 0.35791 0.65966 0.33792 0.0
Mn505 Mn 0.35634 0.60923 0.34684 0.0
C506 C 0.32903 0.64152 0.33065 0.0
C507 C 0.36685 0.68578 0.31627 0.0
C508 C 0.3533 0.64131 0.37933 0.0
O509 O 0.38727 0.65206 0.34145 0.0
O510 O 0.3851 0.61791 0.34445 0.0
C511 C 0.37241 0.5939 0.30858 0.0
N512 N 0.35732 0.59452 0.32232 0.0
C513 C 0.33679 0.57174 0.30287 0.0
C514 C 0.35219 0.57073 0.28858 0.0
C515 C 0.37006 0.58188 0.29144 0.0
C516 C 0.34009 0.58379 0.31976 0.0
H517 H 0.38611 0.60257 0.31065 0.0
C518 C 0.39524 0.63448 0.34301 0.0
O519 O 0.36501 0.68916 0.33526 0.0
O520 O 0.36336 0.66746 0.31005 0.0
N521 N 0.32937 0.59904 0.34919 0.0
C522 C 0.31544 0.60286 0.36363 0.0
C523 C 0.29638 0.59356 0.36254 0.0
C524 C 0.29186 0.58041 0.34666 0.0
C525 C 0.30647 0.57663 0.33203 0.0
C526 C 0.32528 0.58618 0.334 0.0
H527 H 0.31878 0.61305 0.3758 0.0
O528 O 0.32824 0.66112 0.33295 0.0
O529 O 0.34678 0.63327 0.33252 0.0
O530 O 0.35324 0.65694 0.368 0.0
O531 O 0.35484 0.62309 0.37284 0.0
C532 C 0.30296 0.56415 0.31532 0.0
C533 C 0.31811 0.56169 0.30077 0.0
H534 H 0.35035 0.56164 0.27525 0.0
H535 H 0.38196 0.58128 0.28042 0.0
H536 H 0.28515 0.5966 0.37386 0.0
H537 H 0.27706 0.57345 0.34575 0.0
H538 H 0.28854 0.55662 0.31338 0.0
H539 H 0.31512 0.5523 0.28784 0.0
Mn540 Mn 0.1382 0.32853 0.83597 0.0
Mn541 Mn 0.14335 0.37876 0.84509 0.0
C542 C 0.1687 0.34422 0.83009 0.0
C543 C 0.12794 0.3026 0.81469 0.0
C544 C 0.1428 0.34661 0.87755 0.0
O545 O 0.10941 0.3385 0.83828 0.0
O546 O 0.11414 0.37232 0.84162 0.0
C547 C 0.13007 0.39488 0.80608 0.0
N548 N 0.14445 0.39335 0.8205 0.0
C549 C 0.16726 0.41465 0.80197 0.0
C550 C 0.15263 0.41659 0.78698 0.0
C551 C 0.13397 0.40663 0.78904 0.0
C552 C 0.16245 0.40287 0.81868 0.0
H553 H 0.11576 0.38714 0.80755 0.0
C554 C 0.10277 0.35663 0.83969 0.0
O555 O 0.12881 0.29981 0.83382 0.0
O556 O 0.13318 0.32035 0.80799 0.0
N557 N 0.17083 0.38708 0.84857 0.0
C558 C 0.1837 0.38272 0.86382 0.0
C559 C 0.20325 0.39101 0.86373 0.0
C560 C 0.20933 0.40374 0.84804 0.0
C561 C 0.19575 0.40817 0.83261 0.0
C562 C 0.17639 0.39963 0.8336 0.0
H563 H 0.17915 0.37289 0.87589 0.0
O564 O 0.1678 0.32461 0.83226 0.0
O565 O 0.15163 0.35396 0.83104 0.0
O566 O 0.14192 0.33117 0.86607 0.0
O567 O 0.14285 0.36496 0.87124 0.0
C568 C 0.20079 0.42037 0.8161 0.0
C569 C 0.18657 0.42359 0.80077 0.0
H570 H 0.15564 0.42551 0.77375 0.0
H571 H 0.12266 0.40795 0.77749 0.0
H572 H 0.21365 0.3875 0.87568 0.0
H573 H 0.22449 0.40992 0.84791 0.0
H574 H 0.21567 0.4271 0.81489 0.0
H575 H 0.19074 0.43275 0.78801 0.0
Mn576 Mn 0.65113 0.8619 0.82293 0.0
Mn577 Mn 0.64586 0.85853 0.87273 0.0
C578 C 0.66098 0.83269 0.83924 0.0
C579 C 0.67013 0.87237 0.79571 0.0
C580 C 0.61095 0.8548 0.84356 0.0
O581 O 0.64645 0.89112 0.8315 0.0
O582 O 0.64716 0.88774 0.86492 0.0
C583 C 0.68543 0.87514 0.88522 0.0
N584 N 0.67169 0.85972 0.88536 0.0
C585 C 0.69322 0.83908 0.906 0.0
C586 C 0.70751 0.85483 0.90624 0.0
C587 C 0.70361 0.87292 0.89577 0.0
C588 C 0.6753 0.84223 0.89535 0.0
H589 H 0.68258 0.889 0.87706 0.0
C590 C 0.64645 0.89857 0.84904 0.0
O591 O 0.65073 0.86979 0.79428 0.0
O592 O 0.67834 0.86903 0.81294 0.0
N593 N 0.64474 0.83105 0.88218 0.0
C594 C 0.62997 0.81688 0.87943 0.0
C595 C 0.63188 0.79765 0.88837 0.0
C596 C 0.64889 0.79323 0.9001 0.0
C597 C 0.6638 0.80812 0.90285 0.0
C598 C 0.66099 0.82708 0.89373 0.0
H599 H 0.61689 0.82016 0.8704 0.0
O600 O 0.6575 0.83231 0.82023 0.0
O601 O 0.65897 0.85022 0.84795 0.0
O602 O 0.62146 0.85548 0.82769 0.0
O603 O 0.61849 0.85661 0.86101 0.0
C604 C 0.68154 0.80475 0.91396 0.0
C605 C 0.69625 0.82021 0.91551 0.0
H606 H 0.72162 0.85311 0.91422 0.0
H607 H 0.71464 0.88508 0.89576 0.0
H608 H 0.62032 0.78623 0.88615 0.0
H609 H 0.65041 0.77831 0.90679 0.0
H610 H 0.68417 0.79022 0.92112 0.0
H611 H 0.70997 0.81732 0.92382 0.0
Mn612 Mn 0.84312 0.1324 0.32681 0.0
Mn613 Mn 0.85296 0.13518 0.37593 0.0
C614 C 0.83675 0.16213 0.34381 0.0
C615 C 0.82094 0.12311 0.30164 0.0
C616 C 0.88535 0.13637 0.3439 0.0
O617 O 0.84638 0.10296 0.3351 0.0
O618 O 0.84896 0.1061 0.36844 0.0
C619 C 0.8137 0.12133 0.39203 0.0
N620 N 0.82832 0.13585 0.39072 0.0
C621 C 0.80991 0.15822 0.4125 0.0
C622 C 0.79472 0.14345 0.41419 0.0
C623 C 0.79663 0.12493 0.4039 0.0
C624 C 0.82668 0.15369 0.40061 0.0
H625 H 0.81503 0.10714 0.38402 0.0
C626 C 0.84739 0.09536 0.35255 0.0
O627 O 0.84021 0.12448 0.29828 0.0
O628 O 0.81469 0.12718 0.31949 0.0
N629 N 0.85677 0.16256 0.38495 0.0
C630 C 0.8721 0.1757 0.38071 0.0
C631 C 0.87212 0.19518 0.3893 0.0
C632 C 0.85642 0.20094 0.40217 0.0
C633 C 0.84087 0.18712 0.40641 0.0
C634 C 0.84177 0.16782 0.39759 0.0
H635 H 0.88416 0.17141 0.37075 0.0
O636 O 0.83861 0.16236 0.32457 0.0
O637 O 0.83837 0.14446 0.35233 0.0
O638 O 0.87352 0.13663 0.32893 0.0
O639 O 0.8792 0.13508 0.3619 0.0
C640 C 0.82429 0.19188 0.41869 0.0
C641 C 0.80883 0.17745 0.42173 0.0
H642 H 0.78144 0.14624 0.42319 0.0
H643 H 0.78491 0.11351 0.40504 0.0
H644 H 0.88415 0.20578 0.38592 0.0
H645 H 0.85637 0.21606 0.40859 0.0
H646 H 0.82314 0.20672 0.42563 0.0
H647 H 0.79601 0.1814 0.43095 0.0
Mn648 Mn 0.14886 0.62731 0.1702 0.0
Mn649 Mn 0.1397 0.63123 0.12097 0.0
C650 C 0.15969 0.65554 0.15285 0.0
C651 C 0.16965 0.61584 0.19577 0.0
C652 C 0.10776 0.63787 0.15273 0.0
O653 O 0.14158 0.59851 0.16225 0.0
O654 O 0.13849 0.60206 0.12898 0.0
C655 C 0.17595 0.61029 0.10537 0.0
N656 N 0.16414 0.62723 0.10637 0.0
C657 C 0.18631 0.64556 0.08437 0.0
C658 C 0.19863 0.62827 0.08299 0.0
C659 C 0.19343 0.61057 0.09355 0.0
C660 C 0.16896 0.64431 0.09621 0.0
H661 H 0.17209 0.5967 0.11357 0.0
C662 C 0.13879 0.5912 0.14486 0.0
O663 O 0.15068 0.61968 0.19896 0.0
O664 O 0.17631 0.61839 0.17781 0.0
N665 N 0.14083 0.65868 0.11147 0.0
C666 C 0.12807 0.67443 0.11543 0.0
C667 C 0.13158 0.69348 0.10658 0.0
C668 C 0.14812 0.69611 0.09375 0.0
C669 C 0.16096 0.67965 0.08981 0.0
C670 C 0.15659 0.66097 0.09888 0.0
H671 H 0.11542 0.67254 0.12538 0.0
O672 O 0.15754 0.65637 0.17203 0.0
O673 O 0.15552 0.63821 0.14453 0.0
O674 O 0.11927 0.63573 0.16782 0.0
O675 O 0.11384 0.63604 0.13476 0.0
C676 C 0.17817 0.68116 0.07758 0.0
C677 C 0.19083 0.66412 0.07485 0.0
H678 H 0.21223 0.62848 0.07404 0.0
H679 H 0.20293 0.5972 0.09265 0.0
H680 H 0.12163 0.70613 0.10974 0.0
H681 H 0.15091 0.71089 0.08714 0.0
H682 H 0.18197 0.69543 0.07042 0.0
H683 H 0.20417 0.66555 0.06563 0.0
Mn684 Mn 0.34159 0.36227 0.6688 0.0
Mn685 Mn 0.34386 0.35999 0.6188 0.0
C686 C 0.32847 0.33448 0.65227 0.0
C687 C 0.3245 0.37297 0.69719 0.0
C688 C 0.38005 0.3536 0.64593 0.0
O689 O 0.3478 0.39142 0.66058 0.0
O690 O 0.3445 0.389 0.6272 0.0
C691 C 0.30475 0.37896 0.60831 0.0
N692 N 0.31751 0.36273 0.6075 0.0
C693 C 0.2936 0.34338 0.58825 0.0
C694 C 0.28029 0.35995 0.58874 0.0
C695 C 0.28588 0.37781 0.59884 0.0
C696 C 0.31231 0.3455 0.59777 0.0
H697 H 0.30891 0.39264 0.61623 0.0
C698 C 0.34694 0.39935 0.64323 0.0
O699 O 0.34375 0.36915 0.69769 0.0
O700 O 0.31543 0.37094 0.68021 0.0
N701 N 0.34292 0.33258 0.60915 0.0
C702 C 0.35683 0.31747 0.61137 0.0
C703 C 0.35315 0.2983 0.60285 0.0
C704 C 0.33523 0.29487 0.59216 0.0
C705 C 0.32118 0.31066 0.59003 0.0
C706 C 0.32576 0.32952 0.59865 0.0
H707 H 0.37056 0.31997 0.61968 0.0
O708 O 0.3331 0.33311 0.671 0.0
O709 O 0.33161 0.35204 0.64402 0.0
O710 O 0.37048 0.35385 0.66238 0.0
O711 O 0.37171 0.35664 0.62902 0.0
C712 C 0.30258 0.30829 0.58009 0.0
C713 C 0.28882 0.32464 0.57918 0.0
H714 H 0.26563 0.35904 0.58163 0.0
H715 H 0.27563 0.39061 0.59941 0.0
H716 H 0.36404 0.28617 0.60463 0.0
H717 H 0.33234 0.27999 0.58582 0.0
H718 H 0.29859 0.29386 0.57336 0.0
H719 H 0.27444 0.32254 0.57177 0.0
Mn720 Mn 0.8381 0.66865 0.86926 0.0
Mn721 Mn 0.88885 0.66479 0.86968 0.0
C722 C 0.85614 0.67632 0.84102 0.0
C723 C 0.80906 0.68724 0.87576 0.0
C724 C 0.86083 0.62839 0.86664 0.0
O725 O 0.84485 0.66717 0.89857 0.0
O726 O 0.87885 0.66708 0.89767 0.0
C727 C 0.89866 0.70595 0.88477 0.0
N728 N 0.90035 0.69147 0.87036 0.0
C729 C 0.9209 0.7135 0.85014 0.0
C730 C 0.91951 0.72859 0.86484 0.0
C731 C 0.90833 0.72479 0.88222 0.0
C732 C 0.9111 0.69495 0.85359 0.0
H733 H 0.88994 0.70317 0.89808 0.0
C734 C 0.86202 0.66735 0.90714 0.0
O735 O 0.80869 0.66748 0.87511 0.0
O736 O 0.82632 0.6961 0.87282 0.0
N737 N 0.90043 0.66276 0.84365 0.0
C738 C 0.89954 0.64695 0.83054 0.0
C739 C 0.90957 0.6485 0.81219 0.0
C740 C 0.92045 0.66622 0.80753 0.0
C741 C 0.92134 0.68219 0.82134 0.0
C742 C 0.91125 0.67969 0.8395 0.0
H743 H 0.89111 0.63334 0.83398 0.0
O744 O 0.83707 0.67194 0.83984 0.0
O745 O 0.86395 0.67651 0.85881 0.0
O746 O 0.84444 0.63852 0.86621 0.0
O747 O 0.87825 0.63661 0.8684 0.0
C748 C 0.93152 0.70064 0.81765 0.0
C749 C 0.93129 0.71629 0.83204 0.0
H750 H 0.92682 0.7432 0.86286 0.0
H751 H 0.9071 0.73641 0.89357 0.0
H752 H 0.90881 0.63611 0.8016 0.0
H753 H 0.92797 0.66745 0.79326 0.0
H754 H 0.93936 0.70306 0.8037 0.0
H755 H 0.93897 0.7305 0.82893 0.0
Mn756 Mn 0.33503 0.82562 0.12523 0.0
Mn757 Mn 0.38485 0.83577 0.12766 0.0
C758 C 0.35243 0.81953 0.15426 0.0
C759 C 0.30884 0.80365 0.1172 0.0
C760 C 0.35253 0.86835 0.12953 0.0
O761 O 0.34309 0.82818 0.09634 0.0
O762 O 0.37667 0.83329 0.0991 0.0
C763 C 0.40071 0.79684 0.11201 0.0
N764 N 0.39971 0.81087 0.1269 0.0
C765 C 0.42207 0.79115 0.14753 0.0
C766 C 0.42346 0.77656 0.13236 0.0
C767 C 0.41272 0.77942 0.11453 0.0
C768 C 0.41005 0.80832 0.14409 0.0
H769 H 0.39235 0.7989 0.09835 0.0
C770 C 0.36055 0.83077 0.08878 0.0
O771 O 0.306 0.82319 0.11797 0.0
O772 O 0.32689 0.79698 0.12088 0.0
N773 N 0.3946 0.83832 0.15438 0.0
C774 C 0.39056 0.85312 0.16801 0.0
C775 C 0.39952 0.85212 0.18694 0.0
C776 C 0.41255 0.83595 0.19163 0.0
C777 C 0.41657 0.82097 0.17731 0.0
C778 C 0.40736 0.82287 0.15863 0.0
H779 H 0.38044 0.8655 0.16453 0.0
O780 O 0.33297 0.82182 0.15452 0.0
O781 O 0.36107 0.82069 0.13689 0.0
O782 O 0.33744 0.85635 0.12875 0.0
O783 O 0.37084 0.86226 0.129 0.0
C784 C 0.429 0.80398 0.18099 0.0
C785 C 0.43175 0.78909 0.16611 0.0
H786 H 0.43255 0.76301 0.13431 0.0
H787 H 0.41362 0.76817 0.1028 0.0
H788 H 0.39629 0.86371 0.19793 0.0
H789 H 0.41926 0.83511 0.20632 0.0
H790 H 0.43628 0.80208 0.19531 0.0
H791 H 0.44112 0.77596 0.16921 0.0
Mn792 Mn 0.1449 0.17035 0.6226 0.0
Mn793 Mn 0.09498 0.16076 0.62555 0.0
C794 C 0.1284 0.17408 0.65244 0.0
C795 C 0.17145 0.19238 0.61592 0.0
C796 C 0.12667 0.12761 0.62458 0.0
O797 O 0.13614 0.17042 0.59382 0.0
O798 O 0.10273 0.16462 0.59703 0.0
C799 C 0.08016 0.20106 0.61237 0.0
N800 N 0.08094 0.18615 0.62644 0.0
C801 C 0.06008 0.20561 0.64873 0.0
C802 C 0.05892 0.22111 0.63442 0.0
C803 C 0.06902 0.21882 0.61617 0.0
C804 C 0.07126 0.18818 0.64404 0.0
H805 H 0.08805 0.19945 0.59839 0.0
C806 C 0.11855 0.16804 0.58652 0.0
O807 O 0.1738 0.17279 0.61489 0.0
O808 O 0.15363 0.1991 0.6205 0.0
N809 N 0.08548 0.1569 0.6522 0.0
C810 C 0.08873 0.14088 0.66468 0.0
C811 C 0.08001 0.14098 0.68374 0.0
C812 C 0.068 0.1575 0.68972 0.0
C813 C 0.06467 0.17369 0.67652 0.0
C814 C 0.07356 0.17263 0.65763 0.0
H815 H 0.09806 0.12821 0.66021 0.0
O816 O 0.14782 0.17152 0.65202 0.0
O817 O 0.11926 0.17467 0.63529 0.0
O818 O 0.14185 0.1395 0.62369 0.0
O819 O 0.10841 0.13388 0.62527 0.0
C820 C 0.05317 0.19099 0.68149 0.0
C821 C 0.05089 0.20694 0.66761 0.0
H822 H 0.05047 0.23489 0.63735 0.0
H823 H 0.06829 0.23076 0.60509 0.0
H824 H 0.08265 0.12843 0.69384 0.0
H825 H 0.06149 0.15763 0.70451 0.0
H826 H 0.04619 0.19228 0.69601 0.0
H827 H 0.04219 0.22026 0.67167 0.0
Mn828 Mn 0.6591 0.32244 0.36794 0.0
Mn829 Mn 0.60819 0.32481 0.36745 0.0
C830 C 0.64176 0.31426 0.33939 0.0
C831 C 0.68879 0.30513 0.37492 0.0
C832 C 0.635 0.362 0.3645 0.0
O833 O 0.65192 0.32337 0.39714 0.0
O834 O 0.61792 0.32378 0.39561 0.0
C835 C 0.59983 0.28372 0.38351 0.0
N836 N 0.59765 0.29776 0.36876 0.0
C837 C 0.57781 0.27456 0.34909 0.0
C838 C 0.57971 0.2599 0.36415 0.0
C839 C 0.59078 0.2645 0.38142 0.0
C840 C 0.58703 0.2935 0.35208 0.0
H841 H 0.60846 0.28713 0.39674 0.0
C842 C 0.63459 0.3235 0.40534 0.0
O843 O 0.6883 0.32487 0.37426 0.0
O844 O 0.67201 0.29548 0.37157 0.0
N845 N 0.59669 0.32573 0.34132 0.0
C846 C 0.597 0.34125 0.32786 0.0
C847 C 0.58698 0.33893 0.30957 0.0
C848 C 0.57666 0.32075 0.30535 0.0
C849 C 0.57631 0.30511 0.31955 0.0
C850 C 0.58639 0.30837 0.33761 0.0
H851 H 0.60498 0.35522 0.33098 0.0
O852 O 0.66067 0.31938 0.33854 0.0
O853 O 0.63364 0.3137 0.35705 0.0
O854 O 0.65169 0.35238 0.36497 0.0
O855 O 0.61779 0.35326 0.36552 0.0
C856 C 0.5667 0.28626 0.31633 0.0
C857 C 0.56747 0.27099 0.33108 0.0
H858 H 0.57287 0.24501 0.36254 0.0
H859 H 0.59241 0.25322 0.39306 0.0
H860 H 0.58731 0.35108 0.29869 0.0
H861 H 0.56915 0.31893 0.29113 0.0
H862 H 0.55888 0.28325 0.30247 0.0
H863 H 0.56023 0.25647 0.32834 0.0
C864 C 0.16851 0.32293 0.1928 0.0
C865 C 0.15835 0.32356 0.17445 0.0
C866 C 0.16003 0.3129 0.20907 0.0
C867 C 0.13831 0.29389 0.24374 0.0
H868 H 0.1155 0.2416 0.22936 0.0
C869 C 0.12498 0.23071 0.30245 0.0
C870 C 0.13119 0.2112 0.2965 0.0
C871 C 0.12331 0.24645 0.28847 0.0
C872 C 0.12185 0.25614 0.23366 0.0
H873 H 0.13061 0.31562 0.1592 0.0
H874 H 0.1155 0.29844 0.18784 0.0
H875 H 0.12157 0.26681 0.20366 0.0
H876 H 0.14029 0.1928 0.27123 0.0
H877 H 0.13791 0.22012 0.24712 0.0
H878 H 0.14003 0.28254 0.27354 0.0
C879 C 0.13029 0.30527 0.18949 0.0
C880 C 0.12504 0.27078 0.21893 0.0
C881 C 0.13887 0.31523 0.17311 0.0
C882 C 0.13539 0.20765 0.27631 0.0
C883 C 0.13383 0.22332 0.26241 0.0
C884 C 0.13532 0.27914 0.25846 0.0
C885 C 0.14108 0.30336 0.20747 0.0
C886 C 0.13398 0.28959 0.22365 0.0
C887 C 0.12787 0.24296 0.26828 0.0
C888 C 0.12774 0.25981 0.25346 0.0
H889 H 0.18353 0.32926 0.19437 0.0
H890 H 0.16896 0.31159 0.22252 0.0
H891 H 0.14481 0.30837 0.248 0.0
H892 H 0.12154 0.23387 0.31791 0.0
H893 H 0.11852 0.26135 0.29348 0.0
C894 C 0.36906 0.78124 0.78161 0.0
C895 C 0.3635 0.77823 0.80158 0.0
C896 C 0.37035 0.76478 0.76853 0.0
C897 C 0.3467 0.71641 0.75955 0.0
H898 H 0.3884 0.70949 0.71962 0.0
C899 C 0.33333 0.66146 0.69521 0.0
C900 C 0.33874 0.66871 0.67631 0.0
C901 C 0.34101 0.67064 0.71236 0.0
C902 C 0.37656 0.71126 0.73058 0.0
H903 H 0.35557 0.75561 0.82372 0.0
H904 H 0.35728 0.72678 0.80061 0.0
H905 H 0.39321 0.73408 0.74651 0.0
H906 H 0.35725 0.6904 0.66036 0.0
H907 H 0.36994 0.70717 0.69018 0.0
H908 H 0.32933 0.6949 0.74316 0.0
C909 C 0.36082 0.7419 0.7952 0.0
C910 C 0.3794 0.72524 0.74604 0.0
C911 C 0.35988 0.75836 0.8084 0.0
C912 C 0.35296 0.68446 0.67479 0.0
C913 C 0.36027 0.69401 0.69196 0.0
C914 C 0.3437 0.7027 0.74396 0.0
C915 C 0.3658 0.74502 0.77508 0.0
C916 C 0.36431 0.72822 0.76044 0.0
C917 C 0.35379 0.68771 0.71099 0.0
C918 C 0.3584 0.70022 0.72899 0.0
H919 H 0.37207 0.79639 0.77596 0.0
H920 H 0.374 0.76766 0.75307 0.0
H921 H 0.33469 0.71861 0.77029 0.0
H922 H 0.32255 0.64915 0.69674 0.0
H923 H 0.33619 0.66488 0.72669 0.0
C924 C 0.61892 0.27742 0.71287 0.0
C925 C 0.62492 0.27428 0.69305 0.0
C926 C 0.61784 0.26111 0.72616 0.0
C927 C 0.64324 0.21391 0.73595 0.0
H928 H 0.60194 0.20599 0.77611 0.0
C929 C 0.65896 0.16062 0.80105 0.0
C930 C 0.65319 0.1678 0.81986 0.0
C931 C 0.65091 0.16925 0.7838 0.0
C932 C 0.61368 0.20804 0.76509 0.0
H933 H 0.63366 0.25156 0.67132 0.0
H934 H 0.63228 0.22302 0.69478 0.0
H935 H 0.5961 0.22987 0.7488 0.0
H936 H 0.63376 0.1888 0.83559 0.0
H937 H 0.62044 0.20472 0.80557 0.0
H938 H 0.66151 0.19347 0.75266 0.0
C939 C 0.62826 0.23811 0.69992 0.0
C940 C 0.61024 0.22162 0.74939 0.0
C941 C 0.62901 0.2544 0.68653 0.0
C942 C 0.63834 0.18293 0.82121 0.0
C943 C 0.63066 0.19198 0.80393 0.0
C944 C 0.64682 0.20063 0.75177 0.0
C945 C 0.62303 0.24139 0.71995 0.0
C946 C 0.62516 0.22495 0.73489 0.0
C947 C 0.63741 0.18575 0.78497 0.0
C948 C 0.63227 0.1978 0.76681 0.0
H949 H 0.61555 0.29257 0.71828 0.0
H950 H 0.61396 0.26411 0.74155 0.0
H951 H 0.65514 0.21641 0.72515 0.0
H952 H 0.67024 0.14876 0.79966 0.0
H953 H 0.65596 0.16352 0.76954 0.0
C954 C 0.87455 0.7125 0.2155 0.0
C955 C 0.86443 0.71688 0.19767 0.0
C956 C 0.87781 0.72772 0.22962 0.0
C957 C 0.87262 0.78394 0.23881 0.0
H958 H 0.86568 0.76559 0.29325 0.0
C959 C 0.83895 0.83018 0.30364 0.0
C960 C 0.84689 0.82721 0.32282 0.0
C961 C 0.84724 0.82003 0.28732 0.0
C962 C 0.86809 0.77095 0.27818 0.0
H963 H 0.85029 0.74057 0.1802 0.0
H964 H 0.85475 0.767 0.20535 0.0
H965 H 0.86767 0.74079 0.26673 0.0
H966 H 0.87071 0.81269 0.33978 0.0
H967 H 0.88496 0.79456 0.31122 0.0
H968 H 0.87133 0.81432 0.25057 0.0
C969 C 0.86089 0.75204 0.20827 0.0
C970 C 0.86929 0.7567 0.26286 0.0
C971 C 0.85815 0.73687 0.19388 0.0
C972 C 0.8643 0.81526 0.32515 0.0
C973 C 0.8724 0.80483 0.30885 0.0
C974 C 0.87101 0.79825 0.25418 0.0
C975 C 0.87043 0.74757 0.22654 0.0
C976 C 0.87125 0.76294 0.24289 0.0
C977 C 0.86341 0.80651 0.28996 0.0
C978 C 0.86843 0.79186 0.27396 0.0
H979 H 0.87988 0.69724 0.21859 0.0
H980 H 0.88582 0.72376 0.24312 0.0
H981 H 0.87453 0.78938 0.22372 0.0
H982 H 0.82558 0.8394 0.30142 0.0
H983 H 0.83995 0.82152 0.27295 0.0
C984 C 0.31841 0.10867 0.24082 0.0
C985 C 0.30961 0.1078 0.22179 0.0
C986 C 0.30634 0.10709 0.25786 0.0
C987 C 0.27326 0.12228 0.28647 0.0
H988 H 0.227 0.08619 0.28916 0.0
C989 C 0.18586 0.12967 0.30667 0.0
C990 C 0.18616 0.13925 0.32527 0.0
C991 C 0.20327 0.12077 0.29906 0.0
C992 C 0.23995 0.09626 0.28877 0.0
H993 H 0.28166 0.10338 0.20557 0.0
H994 H 0.26071 0.10035 0.23515 0.0
H995 H 0.25437 0.07879 0.26595 0.0
H996 H 0.20484 0.1481 0.35024 0.0
H997 H 0.23574 0.13247 0.33683 0.0
H998 H 0.25817 0.1406 0.30818 0.0
C999 C 0.27685 0.10229 0.23701 0.0
C1000 C 0.2556 0.09199 0.27553 0.0
C1001 C 0.28881 0.10422 0.22006 0.0
C1002 C 0.20428 0.14033 0.33602 0.0
C1003 C 0.22186 0.13144 0.32836 0.0
C1004 C 0.25753 0.12662 0.29965 0.0
C1005 C 0.2854 0.10419 0.25606 0.0
C1006 C 0.27191 0.10551 0.27357 0.0
C1007 C 0.2215 0.12163 0.30974 0.0
C1008 C 0.24025 0.11421 0.30016 0.0
H1009 H 0.33444 0.11144 0.24254 0.0
H1010 H 0.31326 0.10864 0.2724 0.0
H1011 H 0.28562 0.133 0.28519 0.0
H1012 H 0.1722 0.12939 0.2978 0.0
H1013 H 0.2026 0.11392 0.28441 0.0
C1014 C 0.31166 0.86393 0.80202 0.0
C1015 C 0.31 0.85536 0.82103 0.0
C1016 C 0.29507 0.87328 0.79315 0.0
C1017 C 0.25987 0.89884 0.77981 0.0
H1018 H 0.21124 0.86598 0.77933 0.0
C1019 C 0.17825 0.8905 0.73588 0.0
C1020 C 0.18589 0.89064 0.71637 0.0
C1021 C 0.1914 0.89183 0.75216 0.0
C1022 C 0.22448 0.87566 0.77966 0.0
H1023 H 0.28981 0.84896 0.84553 0.0
H1024 H 0.26052 0.86558 0.83008 0.0
H1025 H 0.23851 0.85746 0.80212 0.0
H1026 H 0.21298 0.89372 0.69851 0.0
H1027 H 0.23581 0.89613 0.72676 0.0
H1028 H 0.24625 0.91626 0.75644 0.0
C1029 C 0.27474 0.86532 0.82213 0.0
C1030 C 0.24014 0.87077 0.79275 0.0
C1031 C 0.29142 0.8559 0.83098 0.0
C1032 C 0.20668 0.89343 0.71339 0.0
C1033 C 0.21974 0.895 0.72959 0.0
C1034 C 0.24425 0.90367 0.76666 0.0
C1035 C 0.27636 0.87396 0.80302 0.0
C1036 C 0.25833 0.8818 0.79237 0.0
C1037 C 0.21233 0.89364 0.74914 0.0
C1038 C 0.22674 0.89161 0.76592 0.0
H1039 H 0.32571 0.86298 0.79382 0.0
H1040 H 0.29673 0.87926 0.77822 0.0
H1041 H 0.27355 0.90789 0.77948 0.0
H1042 H 0.16227 0.88839 0.7386 0.0
H1043 H 0.18528 0.89083 0.76708 0.0
C1044 C 0.79031 0.39155 0.78532 0.0
C1045 C 0.80984 0.38474 0.78076 0.0
C1046 C 0.77522 0.39142 0.77089 0.0
C1047 C 0.76326 0.38474 0.71742 0.0
H1048 H 0.71556 0.35846 0.7389 0.0
C1049 C 0.69953 0.34846 0.66934 0.0
C1050 C 0.67976 0.34978 0.67669 0.0
C1051 C 0.71569 0.3563 0.68039 0.0
C1052 C 0.72855 0.36619 0.73266 0.0
H1053 H 0.82938 0.37386 0.7572 0.0
H1054 H 0.80268 0.3732 0.73184 0.0
H1055 H 0.74349 0.36642 0.76076 0.0
H1056 H 0.66127 0.35956 0.70143 0.0
H1057 H 0.68915 0.37404 0.72034 0.0
H1058 H 0.74814 0.38412 0.68912 0.0
C1059 C 0.79915 0.37885 0.74658 0.0
C1060 C 0.74463 0.37073 0.74523 0.0
C1061 C 0.81441 0.37919 0.76107 0.0
C1062 C 0.67632 0.35903 0.69516 0.0
C1063 C 0.69235 0.36701 0.7061 0.0
C1064 C 0.74701 0.38023 0.70475 0.0
C1065 C 0.77922 0.38419 0.75161 0.0
C1066 C 0.76216 0.3801 0.73783 0.0
C1067 C 0.7123 0.36526 0.69913 0.0
C1068 C 0.72946 0.37092 0.71229 0.0
H1069 H 0.78646 0.39622 0.80032 0.0
H1070 H 0.76014 0.39613 0.77509 0.0
H1071 H 0.77659 0.39197 0.71131 0.0
H1072 H 0.70251 0.34093 0.6553 0.0
H1073 H 0.73088 0.35445 0.67472 0.0
C1074 C 0.80819 0.63267 0.19196 0.0
C1075 C 0.80722 0.64274 0.17362 0.0
C1076 C 0.79112 0.62319 0.19978 0.0
C1077 C 0.73651 0.6277 0.19998 0.0
H1078 H 0.74008 0.578 0.23093 0.0
C1079 C 0.67381 0.60604 0.25506 0.0
C1080 C 0.68156 0.60271 0.27426 0.0
C1081 C 0.68665 0.60551 0.2385 0.0
C1082 C 0.73878 0.59182 0.22222 0.0
H1083 H 0.78771 0.65178 0.14936 0.0
H1084 H 0.75754 0.63511 0.16305 0.0
H1085 H 0.76801 0.58777 0.20922 0.0
H1086 H 0.70835 0.59465 0.29107 0.0
H1087 H 0.7306 0.59376 0.26241 0.0
H1088 H 0.70783 0.63239 0.21381 0.0
C1089 C 0.77163 0.63419 0.17119 0.0
C1090 C 0.75476 0.59741 0.20981 0.0
C1091 C 0.7888 0.64366 0.16336 0.0
C1092 C 0.70197 0.59742 0.27646 0.0
C1093 C 0.71471 0.59673 0.25997 0.0
C1094 C 0.72053 0.62213 0.21242 0.0
C1095 C 0.7726 0.62396 0.18957 0.0
C1096 C 0.75414 0.61584 0.19921 0.0
C1097 C 0.70736 0.60142 0.24088 0.0
C1098 C 0.72188 0.60458 0.22432 0.0
H1099 H 0.82209 0.63251 0.20048 0.0
H1100 H 0.79226 0.61593 0.21421 0.0
H1101 H 0.73562 0.64205 0.1921 0.0
H1102 H 0.65811 0.61012 0.25294 0.0
H1103 H 0.68053 0.60903 0.22394 0.0
C1104 C 0.31128 0.17386 0.14498 0.0
C1105 C 0.33026 0.1714 0.15387 0.0
C1106 C 0.3048 0.1931 0.13906 0.0
C1107 C 0.30314 0.24329 0.15412 0.0
H1108 H 0.28809 0.25686 0.09991 0.0
C1109 C 0.25118 0.31126 0.13826 0.0
C1110 C 0.23592 0.30736 0.12432 0.0
C1111 C 0.26778 0.29824 0.13974 0.0
C1112 C 0.29217 0.25331 0.11514 0.0
H1113 H 0.35679 0.18694 0.16499 0.0
H1114 H 0.345 0.22105 0.15522 0.0
H1115 H 0.30803 0.2263 0.10646 0.0
H1116 H 0.2252 0.28659 0.10172 0.0
H1117 H 0.25365 0.2634 0.10465 0.0
H1118 H 0.28588 0.26905 0.1632 0.0
C1119 C 0.33568 0.2079 0.15202 0.0
C1120 C 0.30372 0.23595 0.1188 0.0
C1121 C 0.34234 0.18854 0.15759 0.0
C1122 C 0.23716 0.29011 0.11218 0.0
C1123 C 0.25359 0.27699 0.11376 0.0
C1124 C 0.29125 0.26043 0.15054 0.0
C1125 C 0.3169 0.21023 0.14265 0.0
C1126 C 0.30872 0.23053 0.13835 0.0
C1127 C 0.26903 0.28074 0.12771 0.0
C1128 C 0.28497 0.26521 0.13106 0.0
H1129 H 0.30132 0.16095 0.14294 0.0
H1130 H 0.29003 0.19471 0.13231 0.0
H1131 H 0.30674 0.23919 0.16934 0.0
H1132 H 0.25005 0.32413 0.14827 0.0
H1133 H 0.27939 0.30167 0.15058 0.0
C1134 C 0.81058 0.32614 0.85616 0.0
C1135 C 0.8306 0.32522 0.84964 0.0
C1136 C 0.80086 0.30867 0.86292 0.0
C1137 C 0.80476 0.25209 0.86028 0.0
H1138 H 0.7567 0.25715 0.89263 0.0
C1139 C 0.74293 0.19111 0.85752 0.0
C1140 C 0.72888 0.18962 0.87298 0.0
C1141 C 0.75794 0.20602 0.8581 0.0
C1142 C 0.7703 0.25505 0.88398 0.0
H1143 H 0.85634 0.30567 0.84477 0.0
H1144 H 0.84 0.27521 0.85804 0.0
H1145 H 0.77918 0.28566 0.88959 0.0
H1146 H 0.71895 0.20233 0.90095 0.0
H1147 H 0.74615 0.22708 0.90313 0.0
H1148 H 0.79679 0.22097 0.85604 0.0
C1149 C 0.83142 0.2892 0.85745 0.0
C1150 C 0.78306 0.27179 0.88181 0.0
C1151 C 0.84092 0.30665 0.85007 0.0
C1152 C 0.72994 0.20313 0.88903 0.0
C1153 C 0.74541 0.21752 0.89005 0.0
C1154 C 0.79244 0.23508 0.86314 0.0
C1155 C 0.81106 0.28984 0.86359 0.0
C1156 C 0.79989 0.27091 0.86908 0.0
C1157 C 0.75943 0.21954 0.87437 0.0
C1158 C 0.77446 0.23655 0.87421 0.0
H1159 H 0.8022 0.34028 0.85535 0.0
H1160 H 0.78507 0.30993 0.86683 0.0
H1161 H 0.81754 0.25056 0.85038 0.0
H1162 H 0.74188 0.18117 0.84468 0.0
H1163 H 0.76786 0.20726 0.84537 0.0
C1164 C 0.75729 0.80034 0.35922 0.0
C1165 C 0.77304 0.7997 0.37316 0.0
C1166 C 0.74322 0.78451 0.35833 0.0
C1167 C 0.71114 0.75117 0.37066 0.0
H1168 H 0.73564 0.70051 0.35362 0.0
C1169 C 0.66413 0.68334 0.34146 0.0
C1170 C 0.67161 0.66363 0.34437 0.0
C1171 C 0.67543 0.70021 0.34751 0.0
C1172 C 0.72849 0.71431 0.35887 0.0
H1173 H 0.78735 0.78183 0.39627 0.0
H1174 H 0.76298 0.7538 0.39435 0.0
H1175 H 0.75685 0.72986 0.36032 0.0
H1176 H 0.697 0.64588 0.35471 0.0
H1177 H 0.71613 0.67501 0.36667 0.0
H1178 H 0.68278 0.73558 0.36975 0.0
C1179 C 0.76109 0.76688 0.38471 0.0
C1180 C 0.74069 0.73116 0.36252 0.0
C1181 C 0.77495 0.78281 0.38579 0.0
C1182 C 0.69059 0.66096 0.35313 0.0
C1183 C 0.70172 0.67772 0.35955 0.0
C1184 C 0.69889 0.73413 0.36743 0.0
C1185 C 0.74521 0.76758 0.37091 0.0
C1186 C 0.7321 0.74972 0.36822 0.0
C1187 C 0.69449 0.69763 0.35647 0.0
C1188 C 0.7074 0.71551 0.36126 0.0
H1189 H 0.75616 0.81281 0.34874 0.0
H1190 H 0.73129 0.78509 0.34729 0.0
H1191 H 0.7043 0.76543 0.37515 0.0
H1192 H 0.64972 0.68568 0.33416 0.0
H1193 H 0.66952 0.71524 0.34444 0.0
C1194 C 0.18278 0.82403 0.6411 0.0
C1195 C 0.16419 0.82551 0.65093 0.0
C1196 C 0.19034 0.80505 0.63556 0.0
C1197 C 0.19542 0.76167 0.61783 0.0
H1198 H 0.21114 0.72945 0.66364 0.0
C1199 C 0.24548 0.68548 0.64084 0.0
C1200 C 0.26093 0.68808 0.62684 0.0
C1201 C 0.22949 0.69933 0.64173 0.0
C1202 C 0.20642 0.73782 0.65056 0.0
H1203 H 0.13942 0.80859 0.66388 0.0
H1204 H 0.15307 0.77507 0.65476 0.0
H1205 H 0.18978 0.75917 0.6682 0.0
H1206 H 0.27273 0.70754 0.60365 0.0
H1207 H 0.24547 0.7322 0.60562 0.0
H1208 H 0.2119 0.74044 0.60008 0.0
C1209 C 0.16127 0.78868 0.65058 0.0
C1210 C 0.19425 0.75492 0.65325 0.0
C1211 C 0.15353 0.80773 0.65577 0.0
C1212 C 0.26058 0.70498 0.61416 0.0
C1213 C 0.24481 0.71896 0.61519 0.0
C1214 C 0.2072 0.74429 0.61505 0.0
C1215 C 0.17976 0.78725 0.64049 0.0
C1216 C 0.18926 0.76732 0.637 0.0
C1217 C 0.22909 0.71643 0.62908 0.0
C1218 C 0.21355 0.73259 0.63149 0.0
H1219 H 0.19172 0.83751 0.63816 0.0
H1220 H 0.20487 0.80422 0.62822 0.0
H1221 H 0.19158 0.77102 0.6051 0.0
H1222 H 0.24594 0.67294 0.6513 0.0
H1223 H 0.21763 0.69674 0.65252 0.0
C1224 C 0.87326 0.70567 0.82522 0.0
C1225 C 0.86606 0.68568 0.82379 0.0
C1226 C 0.87973 0.71601 0.80824 0.0
C1227 C 0.86974 0.71672 0.75457 0.0
H1228 H 0.90953 0.76002 0.75555 0.0
C1229 C 0.87707 0.77419 0.69009 0.0
C1230 C 0.87572 0.79449 0.69655 0.0
C1231 C 0.88074 0.75856 0.70377 0.0
C1232 C 0.89847 0.74788 0.75502 0.0
H1233 H 0.85975 0.66069 0.8038 0.0
H1234 H 0.87156 0.67853 0.77399 0.0
H1235 H 0.90787 0.73585 0.78316 0.0
H1236 H 0.87814 0.81446 0.72215 0.0
H1237 H 0.8846 0.78726 0.74593 0.0
H1238 H 0.86001 0.72906 0.7267 0.0
C1239 C 0.87223 0.68629 0.78819 0.0
C1240 C 0.89746 0.73409 0.77084 0.0
C1241 C 0.8656 0.67603 0.8052 0.0
C1242 C 0.87898 0.79895 0.71675 0.0
C1243 C 0.88287 0.78339 0.73035 0.0
C1244 C 0.87088 0.73038 0.73869 0.0
C1245 C 0.87888 0.70661 0.78943 0.0
C1246 C 0.8826 0.71879 0.77113 0.0
C1247 C 0.8834 0.763 0.72408 0.0
C1248 C 0.88479 0.74651 0.73908 0.0
H1249 H 0.87307 0.71361 0.83937 0.0
H1250 H 0.88433 0.73175 0.80977 0.0
H1251 H 0.85792 0.70533 0.75435 0.0
H1252 H 0.87467 0.77032 0.6746 0.0
H1253 H 0.88114 0.74297 0.69855 0.0
C1254 C 0.61195 0.19452 0.21232 0.0
C1255 C 0.61626 0.19915 0.19235 0.0
C1256 C 0.60898 0.21002 0.22619 0.0
C1257 C 0.62512 0.26192 0.23574 0.0
H1258 H 0.5886 0.25747 0.28067 0.0
C1259 C 0.63294 0.31494 0.30339 0.0
C1260 C 0.6323 0.30499 0.32184 0.0
C1261 C 0.62622 0.30505 0.28619 0.0
C1262 C 0.59888 0.25894 0.2682 0.0
H1263 H 0.61988 0.22364 0.17102 0.0
H1264 H 0.61484 0.25087 0.19541 0.0
H1265 H 0.58488 0.23438 0.25238 0.0
H1266 H 0.62519 0.27679 0.33689 0.0
H1267 H 0.6136 0.25935 0.30694 0.0
H1268 H 0.63979 0.28572 0.25187 0.0
C1269 C 0.61384 0.23519 0.20029 0.0
C1270 C 0.59672 0.24576 0.252 0.0
C1271 C 0.61665 0.21962 0.18633 0.0
C1272 C 0.62509 0.28498 0.32289 0.0
C1273 C 0.61845 0.27504 0.30572 0.0
C1274 C 0.62734 0.27503 0.25195 0.0
C1275 C 0.61036 0.23053 0.22044 0.0
C1276 C 0.61021 0.24671 0.23587 0.0
C1277 C 0.61921 0.28485 0.28711 0.0
C1278 C 0.61464 0.27327 0.26865 0.0
H1279 H 0.61144 0.17888 0.2174 0.0
H1280 H 0.60657 0.2059 0.24162 0.0
H1281 H 0.6359 0.2629 0.22365 0.0
H1282 H 0.63885 0.33028 0.30227 0.0
H1283 H 0.62691 0.31306 0.27212 0.0
C1284 C 0.38079 0.69631 0.28358 0.0
C1285 C 0.37232 0.70185 0.30194 0.0
C1286 C 0.38379 0.71081 0.26875 0.0
C1287 C 0.37165 0.73878 0.23588 0.0
H1288 H 0.38693 0.79529 0.24291 0.0
C1289 C 0.37244 0.79149 0.169 0.0
C1290 C 0.3622 0.80996 0.17152 0.0
C1291 C 0.37844 0.78014 0.1855 0.0
C1292 C 0.38265 0.77954 0.24077 0.0
H1293 H 0.36138 0.72705 0.31968 0.0
H1294 H 0.36599 0.7525 0.29336 0.0
H1295 H 0.38862 0.77181 0.27128 0.0
H1296 H 0.35005 0.83114 0.19303 0.0
H1297 H 0.36012 0.81102 0.2221 0.0
H1298 H 0.36519 0.74633 0.2057 0.0
C1299 C 0.37063 0.73696 0.29057 0.0
C1300 C 0.38356 0.76612 0.25699 0.0
C1301 C 0.3679 0.72241 0.30561 0.0
C1302 C 0.35833 0.81711 0.19082 0.0
C1303 C 0.3642 0.80566 0.2074 0.0
C1304 C 0.37079 0.75207 0.21978 0.0
C1305 C 0.37803 0.73116 0.27176 0.0
C1306 C 0.37803 0.74558 0.2547 0.0
C1307 C 0.37371 0.7867 0.20488 0.0
C1308 C 0.37621 0.77261 0.22198 0.0
H1309 H 0.3847 0.68062 0.28048 0.0
H1310 H 0.39006 0.70591 0.25465 0.0
H1311 H 0.36672 0.72322 0.23365 0.0
H1312 H 0.37493 0.78532 0.15425 0.0
H1313 H 0.38596 0.76572 0.18306 0.0
C1314 C 0.11031 0.20108 0.6709 0.0
C1315 C 0.11918 0.18173 0.67081 0.0
C1316 C 0.1051 0.21037 0.68885 0.0
C1317 C 0.12191 0.21001 0.74095 0.0
H1318 H 0.08129 0.25218 0.74584 0.0
C1319 C 0.12082 0.26592 0.80722 0.0
C1320 C 0.12139 0.28633 0.80099 0.0
C1321 C 0.11592 0.25048 0.7937 0.0
C1322 C 0.09259 0.24032 0.74474 0.0
H1323 H 0.12935 0.15666 0.68906 0.0
H1324 H 0.11964 0.17252 0.72058 0.0
H1325 H 0.07996 0.22859 0.71774 0.0
H1326 H 0.11635 0.30671 0.77607 0.0
H1327 H 0.10763 0.27982 0.7526 0.0
H1328 H 0.13475 0.22204 0.76771 0.0
C1329 C 0.11682 0.18067 0.70685 0.0
C1330 C 0.0919 0.22687 0.72863 0.0
C1331 C 0.12225 0.17151 0.68886 0.0
C1332 C 0.11617 0.2911 0.78126 0.0
C1333 C 0.11098 0.27573 0.76787 0.0
C1334 C 0.12243 0.22328 0.75717 0.0
C1335 C 0.10886 0.20054 0.70712 0.0
C1336 C 0.10701 0.21205 0.72612 0.0
C1337 C 0.11115 0.25525 0.77385 0.0
C1338 C 0.10822 0.23901 0.75883 0.0
H1339 H 0.10841 0.20948 0.65715 0.0
H1340 H 0.09937 0.22578 0.68839 0.0
H1341 H 0.13399 0.19903 0.73945 0.0
H1342 H 0.12474 0.26183 0.82235 0.0
H1343 H 0.11613 0.2348 0.79867 0.0
C1344 C 0.70272 0.88413 0.78125 0.0
C1345 C 0.68267 0.87784 0.77838 0.0
C1346 C 0.71548 0.88711 0.76501 0.0
C1347 C 0.72375 0.86688 0.71575 0.0
H1348 H 0.7661 0.90763 0.7141 0.0
C1349 C 0.79249 0.85746 0.66423 0.0
C1350 C 0.81102 0.86092 0.67374 0.0
C1351 C 0.77453 0.86413 0.67299 0.0
C1352 C 0.75433 0.89618 0.71431 0.0
H1353 H 0.65992 0.87065 0.75624 0.0
H1354 H 0.68245 0.87555 0.72771 0.0
H1355 H 0.73791 0.9117 0.7372 0.0
H1356 H 0.82551 0.87292 0.7001 0.0
H1357 H 0.7943 0.88439 0.71557 0.0
H1358 H 0.74069 0.85068 0.69383 0.0
C1359 C 0.68821 0.87822 0.74258 0.0
C1360 C 0.73819 0.89855 0.72748 0.0
C1361 C 0.67533 0.87547 0.75888 0.0
C1362 C 0.8114 0.8708 0.6922 0.0
C1363 C 0.79351 0.87739 0.701 0.0
C1364 C 0.73995 0.86444 0.70268 0.0
C1365 C 0.70852 0.88368 0.74554 0.0
C1366 C 0.72314 0.88354 0.72884 0.0
C1367 C 0.77483 0.87394 0.69162 0.0
C1368 C 0.75582 0.87866 0.70237 0.0
H1369 H 0.70876 0.88619 0.79611 0.0
H1370 H 0.7311 0.89107 0.76779 0.0
H1371 H 0.71247 0.85497 0.71659 0.0
H1372 H 0.79193 0.84948 0.65013 0.0
H1373 H 0.76039 0.86127 0.66539 0.0
C1374 C 0.6748 0.12068 0.19364 0.0
C1375 C 0.6784 0.13055 0.1755 0.0
C1376 C 0.69086 0.11451 0.20558 0.0
C1377 C 0.74636 0.10793 0.20844 0.0
H1378 H 0.73804 0.12603 0.26276 0.0
C1379 C 0.81087 0.12117 0.26572 0.0
C1380 C 0.80638 0.11782 0.28588 0.0
C1381 C 0.79589 0.11864 0.2512 0.0
C1382 C 0.74056 0.12046 0.24779 0.0
H1383 H 0.70135 0.14203 0.15554 0.0
H1384 H 0.72972 0.13154 0.17669 0.0
H1385 H 0.71064 0.12837 0.23907 0.0
H1386 H 0.78344 0.10754 0.30657 0.0
H1387 H 0.75763 0.10247 0.28133 0.0
H1388 H 0.77658 0.1004 0.2173 0.0
C1389 C 0.71448 0.12792 0.18135 0.0
C1390 C 0.7248 0.12182 0.23417 0.0
C1391 C 0.69832 0.13403 0.16933 0.0
C1392 C 0.78719 0.1106 0.29116 0.0
C1393 C 0.77238 0.10777 0.27669 0.0
C1394 C 0.76221 0.10647 0.22218 0.0
C1395 C 0.71085 0.11865 0.19988 0.0
C1396 C 0.7275 0.11568 0.21433 0.0
C1397 C 0.7763 0.11249 0.25665 0.0
C1398 C 0.75948 0.1128 0.24201 0.0
H1399 H 0.65952 0.11848 0.19899 0.0
H1400 H 0.6876 0.10723 0.2197 0.0
H1401 H 0.74882 0.10305 0.19323 0.0
H1402 H 0.8256 0.12672 0.26129 0.0
H1403 H 0.79939 0.12249 0.23591 0.0
C1404 C 0.29234 0.63393 0.32678 0.0
C1405 C 0.31231 0.63122 0.32041 0.0
C1406 C 0.27628 0.62689 0.3151 0.0
C1407 C 0.26554 0.61757 0.26238 0.0
H1408 H 0.21421 0.59691 0.28146 0.0
C1409 C 0.17948 0.61525 0.23184 0.0
C1410 C 0.18371 0.61028 0.21193 0.0
C1411 C 0.19446 0.61325 0.24645 0.0
C1412 C 0.22847 0.60269 0.27595 0.0
H1413 H 0.33133 0.61962 0.29683 0.0
H1414 H 0.30353 0.60648 0.27689 0.0
H1415 H 0.24228 0.60157 0.30487 0.0
H1416 H 0.2061 0.59753 0.19199 0.0
H1417 H 0.23193 0.59354 0.21744 0.0
H1418 H 0.25187 0.61928 0.23371 0.0
C1419 C 0.3001 0.61401 0.29083 0.0
C1420 C 0.24451 0.60537 0.28933 0.0
C1421 C 0.31605 0.62122 0.30238 0.0
C1422 C 0.20254 0.60181 0.20717 0.0
C1423 C 0.21736 0.5996 0.22174 0.0
C1424 C 0.24963 0.61488 0.2491 0.0
C1425 C 0.28 0.61732 0.29672 0.0
C1426 C 0.2632 0.61295 0.28267 0.0
C1427 C 0.21381 0.6061 0.24136 0.0
C1428 C 0.23087 0.60751 0.25568 0.0
H1429 H 0.28916 0.64205 0.34046 0.0
H1430 H 0.26099 0.62994 0.31995 0.0
H1431 H 0.27949 0.62398 0.25679 0.0
H1432 H 0.16506 0.62181 0.2359 0.0
H1433 H 0.19126 0.61844 0.26142 0.0
C1434 C 0.3206 0.37382 0.73434 0.0
C1435 C 0.31284 0.37792 0.71528 0.0
C1436 C 0.30819 0.37553 0.75114 0.0
C1437 C 0.25839 0.39485 0.76867 0.0
H1438 H 0.25706 0.34491 0.79938 0.0
C1439 C 0.18621 0.36371 0.80369 0.0
C1440 C 0.18711 0.35342 0.82193 0.0
C1441 C 0.20382 0.37086 0.79471 0.0
C1442 C 0.25747 0.35919 0.79134 0.0
H1443 H 0.28657 0.38843 0.69897 0.0
H1444 H 0.26507 0.39143 0.72808 0.0
H1445 H 0.28478 0.35099 0.77639 0.0
H1446 H 0.20688 0.34166 0.84483 0.0
H1447 H 0.23794 0.35431 0.82918 0.0
H1448 H 0.23054 0.40258 0.78296 0.0
C1449 C 0.28065 0.38693 0.7302 0.0
C1450 C 0.2734 0.36269 0.77815 0.0
C1451 C 0.29294 0.38504 0.71346 0.0
C1452 C 0.2059 0.34998 0.83093 0.0
C1453 C 0.22359 0.35715 0.82196 0.0
C1454 C 0.24248 0.39136 0.78188 0.0
C1455 C 0.28793 0.38162 0.74915 0.0
C1456 C 0.27362 0.38018 0.7661 0.0
C1457 C 0.22274 0.36752 0.80364 0.0
C1458 C 0.24144 0.37312 0.79277 0.0
H1459 H 0.3359 0.36833 0.73618 0.0
H1460 H 0.31425 0.37149 0.76559 0.0
H1461 H 0.25834 0.40864 0.75983 0.0
H1462 H 0.17191 0.3658 0.79614 0.0
H1463 H 0.20264 0.3783 0.78037 0.0
C1464 C 0.77139 0.69021 0.87714 0.0
C1465 C 0.79054 0.69929 0.87876 0.0
C1466 C 0.75394 0.70216 0.87784 0.0
C1467 C 0.73469 0.7533 0.89117 0.0
H1468 H 0.70008 0.74655 0.84506 0.0
C1469 C 0.69078 0.8192 0.85698 0.0
C1470 C 0.67175 0.81572 0.84856 0.0
C1471 C 0.70201 0.80307 0.86461 0.0
C1472 C 0.70924 0.7484 0.8583 0.0
H1473 H 0.80643 0.72775 0.88347 0.0
H1474 H 0.77608 0.74854 0.88473 0.0
H1475 H 0.72581 0.72115 0.85227 0.0
H1476 H 0.64971 0.79287 0.84055 0.0
H1477 H 0.66929 0.76437 0.85419 0.0
H1478 H 0.71861 0.78093 0.89679 0.0
C1479 C 0.77448 0.73223 0.88297 0.0
C1480 C 0.724 0.73383 0.86242 0.0
C1481 C 0.79189 0.72034 0.88208 0.0
C1482 C 0.66423 0.79582 0.84739 0.0
C1483 C 0.67544 0.77961 0.85511 0.0
C1484 C 0.71987 0.76781 0.88711 0.0
C1485 C 0.75536 0.72334 0.88041 0.0
C1486 C 0.73734 0.73653 0.87847 0.0
C1487 C 0.69452 0.78307 0.86371 0.0
C1488 C 0.70749 0.7659 0.87019 0.0
H1489 H 0.76991 0.674 0.87462 0.0
H1490 H 0.73937 0.69492 0.87593 0.0
H1491 H 0.74457 0.75558 0.90383 0.0
H1492 H 0.69713 0.8344 0.85733 0.0
H1493 H 0.71686 0.80623 0.87061 0.0
C1494 C 0.16792 0.69166 0.14483 0.0
C1495 C 0.17218 0.67087 0.14289 0.0
C1496 C 0.18132 0.70614 0.13718 0.0
C1497 C 0.20997 0.7333 0.11277 0.0
H1498 H 0.26514 0.72315 0.12934 0.0
C1499 C 0.29626 0.76907 0.10853 0.0
C1500 C 0.2921 0.78936 0.11357 0.0
C1501 C 0.28074 0.75477 0.10764 0.0
C1502 C 0.24994 0.7261 0.12416 0.0
H1503 H 0.1938 0.6487 0.13228 0.0
H1504 H 0.21703 0.67387 0.11862 0.0
H1505 H 0.23942 0.69785 0.13587 0.0
H1506 H 0.26839 0.81092 0.12053 0.0
H1507 H 0.24127 0.78577 0.11966 0.0
H1508 H 0.22061 0.76184 0.10135 0.0
C1509 C 0.20332 0.67908 0.12576 0.0
C1510 C 0.23515 0.71157 0.12797 0.0
C1511 C 0.18996 0.66469 0.13337 0.0
C1512 C 0.272 0.79535 0.11663 0.0
C1513 C 0.25645 0.78095 0.11602 0.0
C1514 C 0.22487 0.74789 0.10884 0.0
C1515 C 0.19936 0.69996 0.12794 0.0
C1516 C 0.215 0.71506 0.12248 0.0
C1517 C 0.26076 0.76037 0.11211 0.0
C1518 C 0.245 0.74449 0.11466 0.0
H1519 H 0.15443 0.69666 0.15252 0.0
H1520 H 0.17804 0.72214 0.13933 0.0
H1521 H 0.19454 0.73629 0.10828 0.0
H1522 H 0.31161 0.76411 0.10578 0.0
H1523 H 0.28451 0.73915 0.10406 0.0
C1524 C 0.31873 0.29882 0.64363 0.0
C1525 C 0.31442 0.3197 0.64362 0.0
C1526 C 0.30423 0.28488 0.63696 0.0
C1527 C 0.24949 0.27996 0.63388 0.0
H1528 H 0.25992 0.23342 0.59992 0.0
C1529 C 0.18494 0.22748 0.61154 0.0
C1530 C 0.18854 0.20654 0.61342 0.0
C1531 C 0.20095 0.24126 0.61177 0.0
C1532 C 0.25684 0.2463 0.6095 0.0
H1533 H 0.29166 0.34252 0.63761 0.0
H1534 H 0.26647 0.31834 0.62578 0.0
H1535 H 0.28719 0.2576 0.60716 0.0
H1536 H 0.21176 0.18342 0.61593 0.0
H1537 H 0.23979 0.20757 0.61686 0.0
H1538 H 0.21947 0.26868 0.63677 0.0
C1539 C 0.28101 0.31265 0.63063 0.0
C1540 C 0.27242 0.26009 0.61363 0.0
C1541 C 0.29546 0.32648 0.63719 0.0
C1542 C 0.20855 0.19952 0.61447 0.0
C1543 C 0.22461 0.21335 0.61491 0.0
C1544 C 0.23403 0.26623 0.62984 0.0
C1545 C 0.28511 0.29168 0.63072 0.0
C1546 C 0.26884 0.27706 0.62585 0.0
C1547 C 0.22091 0.23441 0.61416 0.0
C1548 C 0.23746 0.24925 0.61759 0.0
H1549 H 0.33318 0.29334 0.64893 0.0
H1550 H 0.30768 0.26878 0.63743 0.0
H1551 H 0.24639 0.29266 0.6437 0.0
H1552 H 0.16968 0.23331 0.61042 0.0
H1553 H 0.19763 0.25736 0.61064 0.0
C1554 C 0.70724 0.27309 0.38287 0.0
C1555 C 0.70774 0.294 0.37867 0.0
C1556 C 0.72515 0.26212 0.38486 0.0
C1557 C 0.77585 0.26155 0.36553 0.0
H1558 H 0.78264 0.21693 0.40274 0.0
C1559 C 0.83514 0.19915 0.35188 0.0
C1560 C 0.82725 0.17945 0.3538 0.0
C1561 C 0.82465 0.21578 0.35976 0.0
C1562 C 0.78102 0.22939 0.3923 0.0
H1563 H 0.72731 0.32004 0.37398 0.0
H1564 H 0.75872 0.30067 0.37707 0.0
H1565 H 0.75588 0.24189 0.40818 0.0
H1566 H 0.80204 0.16153 0.36437 0.0
H1567 H 0.78363 0.19034 0.37793 0.0
H1568 H 0.80002 0.24838 0.34888 0.0
C1569 C 0.74444 0.29286 0.37892 0.0
C1570 C 0.76576 0.24367 0.39545 0.0
C1571 C 0.72649 0.30391 0.37718 0.0
C1572 C 0.80872 0.17656 0.3634 0.0
C1573 C 0.79823 0.19307 0.3712 0.0
C1574 C 0.79102 0.24718 0.36228 0.0
C1575 C 0.74391 0.2718 0.38249 0.0
C1576 C 0.76254 0.25941 0.38166 0.0
C1577 C 0.80593 0.21292 0.36928 0.0
C1578 C 0.7932 0.23047 0.37518 0.0
H1579 H 0.69301 0.26507 0.3842 0.0
H1580 H 0.72427 0.24585 0.38734 0.0
H1581 H 0.77363 0.27346 0.35459 0.0
H1582 H 0.84927 0.20165 0.34414 0.0
H1583 H 0.83096 0.23088 0.35803 0.0
C1584 C 0.13046 0.1799 0.55322 0.0
C1585 C 0.11656 0.16872 0.56464 0.0
C1586 C 0.12968 0.17934 0.53247 0.0
C1587 C 0.11717 0.14556 0.49239 0.0
H1588 H 0.11874 0.19346 0.45871 0.0
C1589 C 0.11882 0.13829 0.40707 0.0
C1590 C 0.13032 0.15245 0.39627 0.0
C1591 C 0.11526 0.14111 0.42736 0.0
C1592 C 0.1186 0.17991 0.46788 0.0
H1593 H 0.09068 0.14853 0.56333 0.0
H1594 H 0.08972 0.1471 0.52688 0.0
H1595 H 0.11558 0.19733 0.49473 0.0
H1596 H 0.14724 0.1806 0.39823 0.0
H1597 H 0.14191 0.18508 0.43386 0.0
H1598 H 0.12128 0.12806 0.46596 0.0
C1599 C 0.10103 0.15645 0.5341 0.0
C1600 C 0.11661 0.18217 0.48847 0.0
C1601 C 0.10154 0.15734 0.5549 0.0
C1602 C 0.13822 0.1695 0.40617 0.0
C1603 C 0.13501 0.17212 0.42658 0.0
C1604 C 0.11954 0.14329 0.47186 0.0
C1605 C 0.11524 0.16728 0.52275 0.0
C1606 C 0.11594 0.16501 0.50088 0.0
C1607 C 0.12347 0.15795 0.43746 0.0
C1608 C 0.12037 0.16044 0.4593 0.0
H1609 H 0.14212 0.1889 0.56034 0.0
H1610 H 0.14087 0.18771 0.52401 0.0
H1611 H 0.11701 0.1321 0.50172 0.0
H1612 H 0.11227 0.12514 0.39977 0.0
H1613 H 0.10591 0.13011 0.43505 0.0
C1614 C 0.37736 0.84197 0.0572 0.0
C1615 C 0.36207 0.8309 0.06685 0.0
C1616 C 0.37791 0.84301 0.03641 0.0
C1617 C 0.36268 0.81682 0.99109 0.0
H1618 H 0.36113 0.87033 0.96682 0.0
C1619 C 0.34753 0.82713 0.90709 0.0
C1620 C 0.35713 0.84328 0.89721 0.0
C1621 C 0.3487 0.82541 0.92781 0.0
C1622 C 0.36195 0.85525 0.97325 0.0
H1623 H 0.33585 0.81162 0.06235 0.0
H1624 H 0.33718 0.81304 0.02604 0.0
H1625 H 0.36346 0.86726 0.00289 0.0
H1626 H 0.37586 0.87006 0.90122 0.0
H1627 H 0.37863 0.86663 0.93711 0.0
H1628 H 0.36172 0.80468 0.9616 0.0
C1629 C 0.34855 0.82108 0.03458 0.0
C1630 C 0.36321 0.85354 0.99394 0.0
C1631 C 0.34774 0.82038 0.05532 0.0
C1632 C 0.36807 0.85757 0.90843 0.0
C1633 C 0.36956 0.85565 0.92907 0.0
C1634 C 0.36181 0.8185 0.97037 0.0
C1635 C 0.36346 0.83261 0.02496 0.0
C1636 C 0.3634 0.83433 0.00302 0.0
C1637 C 0.35983 0.8396 0.93908 0.0
C1638 C 0.36124 0.83775 0.96116 0.0
H1639 H 0.38856 0.85027 0.06572 0.0
H1640 H 0.38959 0.85194 0.02926 0.0
H1641 H 0.36294 0.80183 -0.0022 0.0
H1642 H 0.33887 0.81596 0.89884 0.0
H1643 H 0.34066 0.81307 0.93497 0.0
C1644 C 0.61799 0.33316 0.43745 0.0
C1645 C 0.63386 0.32349 0.4273 0.0
C1646 C 0.61812 0.33427 0.45824 0.0
C1647 C 0.6355 0.3099 0.50321 0.0
H1648 H 0.63641 0.36375 0.52673 0.0
C1649 C 0.64775 0.32144 0.58773 0.0
C1650 C 0.63786 0.33784 0.59689 0.0
C1651 C 0.64755 0.31939 0.56699 0.0
C1652 C 0.63578 0.34857 0.52053 0.0
H1653 H 0.66182 0.3067 0.43088 0.0
H1654 H 0.66162 0.3081 0.46729 0.0
H1655 H 0.6341 0.36014 0.49073 0.0
H1656 H 0.61957 0.36467 0.59162 0.0
H1657 H 0.61834 0.36063 0.55577 0.0
H1658 H 0.63638 0.29816 0.53286 0.0
C1659 C 0.64932 0.31506 0.45911 0.0
C1660 C 0.63457 0.34656 0.49988 0.0
C1661 C 0.64947 0.31436 0.43833 0.0
C1662 C 0.62761 0.35202 0.58496 0.0
C1663 C 0.62702 0.34975 0.56433 0.0
C1664 C 0.63626 0.31187 0.52392 0.0
C1665 C 0.63382 0.32528 0.46919 0.0
C1666 C 0.63448 0.32723 0.49107 0.0
C1667 C 0.63707 0.33348 0.55499 0.0
C1668 C 0.63645 0.33125 0.53289 0.0
H1669 H 0.60582 0.34038 0.42931 0.0
H1670 H 0.60599 0.34219 0.46578 0.0
H1671 H 0.6354 0.29483 0.49666 0.0
H1672 H 0.65586 0.31034 0.59658 0.0
H1673 H 0.65578 0.30687 0.5604 0.0
C1674 C 0.85448 0.67694 0.09033 0.0
C1675 C 0.85515 0.65738 0.09883 0.0
C1676 C 0.85616 0.67948 0.06972 0.0
C1677 C 0.87441 0.65333 0.02447 0.0
H1678 H 0.83902 0.69081 0.99673 0.0
C1679 C 0.84418 0.66873 0.94 0.0
C1680 C 0.86237 0.66798 0.92921 0.0
C1681 C 0.84432 0.66905 0.96076 0.0
C1682 C 0.84899 0.68025 0.00427 0.0
H1683 H 0.85776 0.62513 0.09216 0.0
H1684 H 0.86045 0.6296 0.05637 0.0
H1685 H 0.837 0.68793 0.03289 0.0
H1686 H 0.89503 0.66729 0.93195 0.0
H1687 H 0.89522 0.66789 0.96829 0.0
H1688 H 0.88597 0.64519 0.99582 0.0
C1689 C 0.859 0.64299 0.06565 0.0
C1690 C 0.84797 0.67876 0.02499 0.0
C1691 C 0.8573 0.64044 0.0862 0.0
C1692 C 0.88073 0.66776 0.93975 0.0
C1693 C 0.88085 0.66804 0.96058 0.0
C1694 C 0.87545 0.65485 0.00375 0.0
C1695 C 0.85857 0.66253 0.05718 0.0
C1696 C 0.86047 0.66507 0.0353 0.0
C1697 C 0.86263 0.66862 0.9713 0.0
C1698 C 0.86256 0.66813 0.9934 0.0
H1699 H 0.85289 0.69034 0.09959 0.0
H1700 H 0.85591 0.69475 0.06364 0.0
H1701 H 0.88445 0.64284 0.03201 0.0
H1702 H 0.82973 0.66893 0.93244 0.0
H1703 H 0.83002 0.6692 0.96857 0.0
C1704 C 0.41289 0.11985 0.13439 0.0
C1705 C 0.40181 0.11882 0.15222 0.0
C1706 C 0.43394 0.11916 0.1347 0.0
C1707 C 0.47691 0.1298 0.16734 0.0
H1708 H 0.50732 0.09973 0.12772 0.0
C1709 C 0.56486 0.10769 0.14911 0.0
C1710 C 0.57374 0.12703 0.15126 0.0
C1711 C 0.54388 0.10549 0.14949 0.0
C1712 C 0.49902 0.10804 0.13898 0.0
H1713 H 0.40425 0.11586 0.18435 0.0
H1714 H 0.44098 0.11461 0.18481 0.0
H1715 H 0.47049 0.09737 0.12818 0.0
H1716 H 0.56742 0.15922 0.15531 0.0
H1717 H 0.53097 0.15531 0.15584 0.0
H1718 H 0.50537 0.14046 0.17817 0.0
C1719 C 0.43333 0.11616 0.17063 0.0
C1720 C 0.47797 0.10685 0.13912 0.0
C1721 C 0.41228 0.11681 0.17034 0.0
C1722 C 0.56116 0.14408 0.15366 0.0
C1723 C 0.54024 0.14186 0.1541 0.0
C1724 C 0.49792 0.13105 0.16715 0.0
C1725 C 0.44437 0.11747 0.15283 0.0
C1726 C 0.46671 0.11785 0.15321 0.0
C1727 C 0.53139 0.12255 0.15212 0.0
C1728 C 0.50917 0.12035 0.15285 0.0
H1729 H 0.40535 0.12143 0.12016 0.0
H1730 H 0.44207 0.12046 0.12076 0.0
H1731 H 0.46864 0.13859 0.17826 0.0
H1732 H 0.57409 0.09422 0.14727 0.0
H1733 H 0.53744 0.0904 0.14805 0.0
C1734 C 0.92667 0.88474 0.64851 0.0
C1735 C 0.91765 0.86867 0.65905 0.0
C1736 C 0.94764 0.88702 0.64849 0.0
C1737 C 0.99333 0.877 0.67609 0.0
H1738 H 0.02009 0.87259 0.62495 0.0
C1739 C 0.07954 0.86657 0.66999 0.0
C1740 C 0.08947 0.87488 0.65343 0.0
C1741 C 0.05848 0.86694 0.67112 0.0
C1742 C 0.01294 0.8743 0.63934 0.0
H1743 H 0.9233 0.8429 0.67847 0.0
H1744 H 0.95997 0.84732 0.67887 0.0
H1745 H 0.98337 0.87239 0.6265 0.0
H1746 H 0.08537 0.89074 0.62543 0.0
H1747 H 0.0488 0.89234 0.62781 0.0
H1748 H 0.0227 0.87951 0.68901 0.0
C1749 C 0.95079 0.85791 0.67044 0.0
C1750 C 0.9919 0.87406 0.64018 0.0
C1751 C 0.92989 0.85534 0.6701 0.0
C1752 C 0.07805 0.88396 0.63824 0.0
C1753 C 0.05706 0.88475 0.63957 0.0
C1754 C 0.01439 0.87768 0.67524 0.0
C1755 C 0.95982 0.87357 0.65941 0.0
C1756 C 0.98198 0.8752 0.65856 0.0
C1757 C 0.04695 0.87604 0.65591 0.0
C1758 C 0.02449 0.87612 0.65686 0.0
H1759 H 0.91757 0.89518 0.63982 0.0
H1760 H 0.95438 0.89921 0.63989 0.0
H1761 H 0.98589 0.87798 0.69042 0.0
H1762 H 0.08802 0.85935 0.68184 0.0
H1763 H 0.05129 0.85973 0.68375 0.0
C1764 C 0.07167 0.37631 0.84843 0.0
C1765 C 0.08072 0.35964 0.83884 0.0
C1766 C 0.0507 0.37862 0.8482 0.0
C1767 C 0.00526 0.36687 0.82054 0.0
H1768 H 0.97768 0.3684 0.87141 0.0
C1769 C 0.91844 0.36052 0.8264 0.0
C1770 C 0.90877 0.37084 0.842 0.0
C1771 C 0.93952 0.3599 0.82544 0.0
C1772 C 0.98508 0.36842 0.85704 0.0
H1773 H 0.07506 0.33274 0.82094 0.0
H1774 H 0.03842 0.33716 0.82014 0.0
H1775 H 0.01439 0.36693 0.87048 0.0
H1776 H 0.91343 0.38928 0.86836 0.0
H1777 H 0.95001 0.3891 0.8662 0.0
H1778 H 0.97615 0.36898 0.80697 0.0
C1779 C 0.04757 0.34822 0.828 0.0
C1780 C 0.00611 0.36746 0.85657 0.0
C1781 C 0.06848 0.34565 0.82859 0.0
C1782 C 0.92051 0.38096 0.85631 0.0
C1783 C 0.94152 0.38072 0.85513 0.0
C1784 C 0.98421 0.36826 0.82098 0.0
C1785 C 0.03852 0.36458 0.83799 0.0
C1786 C 0.01634 0.36653 0.83834 0.0
C1787 C 0.95135 0.36994 0.83986 0.0
C1788 C 0.97381 0.36892 0.83925 0.0
H1789 H 0.08075 0.38729 0.85647 0.0
H1790 H 0.04398 0.39138 0.85597 0.0
H1791 H 0.01292 0.36626 0.8063 0.0
H1792 H 0.90972 0.35248 0.81524 0.0
H1793 H 0.94648 0.35116 0.81364 0.0
C1794 C 0.42758 0.61741 0.35255 0.0
C1795 C 0.41746 0.63322 0.34264 0.0
C1796 C 0.44865 0.61653 0.35239 0.0
C1797 C 0.49268 0.62923 0.32379 0.0
H1798 H 0.52163 0.63117 0.37393 0.0
C1799 C 0.57971 0.63455 0.3266 0.0
C1800 C 0.58962 0.62458 0.34228 0.0
C1801 C 0.55865 0.63612 0.32649 0.0
C1802 C 0.51384 0.63023 0.35978 0.0
H1803 H 0.42132 0.66018 0.32436 0.0
H1804 H 0.4582 0.65821 0.32361 0.0
H1805 H 0.48485 0.63189 0.37386 0.0
H1806 H 0.58537 0.60794 0.36983 0.0
H1807 H 0.54881 0.60974 0.3692 0.0
H1808 H 0.52143 0.62672 0.30961 0.0
C1809 C 0.44978 0.64675 0.33172 0.0
C1810 C 0.49279 0.63078 0.3598 0.0
C1811 C 0.42875 0.64791 0.33226 0.0
C1812 C 0.57813 0.61597 0.35768 0.0
C1813 C 0.55713 0.61714 0.35737 0.0
C1814 C 0.51375 0.62823 0.32376 0.0
C1815 C 0.45986 0.63115 0.34191 0.0
C1816 C 0.48209 0.63032 0.34182 0.0
C1817 C 0.54707 0.62736 0.34186 0.0
C1818 C 0.52463 0.62873 0.34177 0.0
H1819 H 0.41922 0.60593 0.36069 0.0
H1820 H 0.45621 0.60434 0.3603 0.0
H1821 H 0.48463 0.62877 0.30975 0.0
H1822 H 0.58824 0.64144 0.3146 0.0
H1823 H 0.55152 0.64441 0.31447 0.0
C1824 C 0.16329 0.40643 0.13205 0.0
C1825 C 0.1833 0.40356 0.12561 0.0
C1826 C 0.15517 0.426 0.13351 0.0
C1827 C 0.1466 0.46965 0.14647 0.0
H1828 H 0.16088 0.50952 0.1063 0.0
C1829 C 0.14164 0.55606 0.15903 0.0
C1830 C 0.1375 0.56882 0.14272 0.0
C1831 C 0.14321 0.53506 0.15645 0.0
C1832 C 0.15642 0.49853 0.11748 0.0
H1833 H 0.21057 0.41912 0.11602 0.0
H1834 H 0.19651 0.45312 0.11886 0.0
H1835 H 0.17171 0.47443 0.10238 0.0
H1836 H 0.1303 0.5693 0.11118 0.0
H1837 H 0.13271 0.53261 0.10679 0.0
H1838 H 0.13128 0.49383 0.16156 0.0
C1839 C 0.18695 0.44023 0.12238 0.0
C1840 C 0.1629 0.47847 0.11537 0.0
C1841 C 0.19506 0.42071 0.12089 0.0
C1842 C 0.13376 0.55996 0.12402 0.0
C1843 C 0.13522 0.53893 0.12148 0.0
C1844 C 0.14006 0.48975 0.14856 0.0
C1845 C 0.16689 0.44309 0.12858 0.0
C1846 C 0.15844 0.46391 0.13004 0.0
C1847 C 0.14056 0.52632 0.13753 0.0
C1848 C 0.14524 0.5045 0.13427 0.0
H1849 H 0.15378 0.39357 0.13576 0.0
H1850 H 0.13963 0.42772 0.13821 0.0
H1851 H 0.14297 0.45879 0.15806 0.0
H1852 H 0.14459 0.56233 0.17366 0.0
H1853 H 0.14753 0.52581 0.1691 0.0
C1854 C 0.64103 0.93359 0.83523 0.0
C1855 C 0.64681 0.92096 0.85113 0.0
C1856 C 0.64276 0.95472 0.83678 0.0
C1857 C 0.65196 -0.00354 0.87351 0.0
H1858 H 0.67124 0.02552 0.82697 0.0
C1859 C 0.69294 0.07355 0.87684 0.0
C1860 C 0.68517 0.08912 0.86471 0.0
C1861 C 0.68597 0.05363 0.87485 0.0
C1862 C 0.66564 0.0176 0.84 0.0
H1863 H 0.65865 0.92065 0.88125 0.0
H1864 H 0.66242 0.95727 0.8837 0.0
H1865 H 0.6629 0.98946 0.82432 0.0
H1866 H 0.6643 0.09597 0.84072 0.0
H1867 H 0.65256 0.06079 0.83684 0.0
H1868 H 0.65584 0.0245 0.88934 0.0
C1869 C 0.65597 0.95102 0.8702 0.0
C1870 C 0.66074 -0.00303 0.8385 0.0
C1871 C 0.65394 0.92994 0.86876 0.0
C1872 C 0.67051 0.08428 0.85031 0.0
C1873 C 0.66383 0.06422 0.84805 0.0
C1874 C 0.6572 0.01696 0.87506 0.0
C1875 C 0.65059 0.9637 0.85417 0.0
C1876 C 0.65411 0.98605 0.85532 0.0
C1877 C 0.67138 0.04881 0.86045 0.0
C1878 C 0.66432 0.02761 0.85838 0.0
H1879 H 0.63529 0.92713 0.8215 0.0
H1880 H 0.63807 0.96399 0.82428 0.0
H1881 H 0.64643 0.98872 0.88666 0.0
H1882 H 0.70416 0.07682 0.88814 0.0
H1883 H 0.69212 0.04191 0.88445 0.0
C1884 C 0.84201 0.06081 0.33768 0.0
C1885 C 0.84556 0.07299 0.35455 0.0
C1886 C 0.83884 0.03992 0.33963 0.0
C1887 C 0.84212 0.99453 0.34669 0.0
H1888 H 0.80792 0.97621 0.38999 0.0
C1889 C 0.82849 0.90945 0.36336 0.0
C1890 C 0.80886 0.90361 0.36896 0.0
C1891 C 0.83357 0.92999 0.36156 0.0
C1892 C 0.81737 0.9811 0.37773 0.0
H1893 H 0.84916 0.07252 0.38669 0.0
H1894 H 0.84395 0.03598 0.39001 0.0
H1895 H 0.81614 0.01221 0.38698 0.0
H1896 H 0.77904 0.91488 0.3766 0.0
H1897 H 0.78784 0.95068 0.37315 0.0
H1898 H 0.84283 0.9635 0.33709 0.0
C1899 C 0.84326 0.04271 0.37531 0.0
C1900 C 0.82232 0.00169 0.37617 0.0
C1901 C 0.84639 0.06365 0.37338 0.0
C1902 C 0.79435 0.91881 0.37241 0.0
C1903 C 0.79942 0.93935 0.37055 0.0
C1904 C 0.83713 0.97394 0.34823 0.0
C1905 C 0.83921 0.03066 0.35848 0.0
C1906 C 0.83468 0.00865 0.36058 0.0
C1907 C 0.81912 0.94517 0.36524 0.0
C1908 C 0.82462 0.96701 0.36371 0.0
H1909 H 0.84119 0.06746 0.32294 0.0
H1910 H 0.8355 0.03112 0.32639 0.0
H1911 H 0.85184 -0.00062 0.33463 0.0
H1912 H 0.84009 0.89817 0.36066 0.0
H1913 H 0.84894 0.93396 0.35768 0.0
C1914 C 0.35368 0.43397 0.65763 0.0
C1915 C 0.34746 0.42179 0.64155 0.0
C1916 C 0.35264 0.45519 0.65639 0.0
C1917 C 0.34455 0.49772 0.62023 0.0
H1918 H 0.32479 0.52631 0.66683 0.0
C1919 C 0.30225 0.57399 0.61723 0.0
C1920 C 0.30951 0.58963 0.62957 0.0
C1921 C 0.30982 0.55427 0.61903 0.0
C1922 C 0.33055 0.51853 0.6538 0.0
H1923 H 0.3356 0.42242 0.61141 0.0
H1924 H 0.3331 0.4591 0.60952 0.0
H1925 H 0.33315 0.49023 0.66926 0.0
H1926 H 0.33015 0.59688 0.65365 0.0
H1927 H 0.34292 0.56203 0.65718 0.0
H1928 H 0.34073 0.52588 0.60458 0.0
C1929 C 0.33934 0.45244 0.62292 0.0
C1930 C 0.33546 0.49789 0.65517 0.0
C1931 C 0.34064 0.4313 0.62406 0.0
C1932 C 0.32434 0.58512 0.6439 0.0
C1933 C 0.3316 0.56525 0.64597 0.0
C1934 C 0.3393 0.51823 0.6188 0.0
C1935 C 0.34512 0.46468 0.63913 0.0
C1936 C 0.34214 0.48712 0.63829 0.0
C1937 C 0.32449 0.54973 0.63343 0.0
C1938 C 0.33195 0.52868 0.63548 0.0
H1939 H 0.35917 0.42712 0.67127 0.0
H1940 H 0.35756 0.46413 0.66904 0.0
H1941 H 0.35014 0.49009 0.60705 0.0
H1942 H 0.29091 0.57703 0.60599 0.0
H1943 H 0.304 0.54246 0.60933 0.0
C1944 C 0.80272 0.84424 0.44983 0.0
C1945 C 0.81608 0.84293 0.43361 0.0
C1946 C 0.80985 0.84297 0.4693 0.0
C1947 C 0.85406 0.85214 0.50004 0.0
H1948 H 0.82413 0.82057 0.53893 0.0
C1949 C 0.85427 0.83174 0.58973 0.0
C1950 C 0.8559 0.85155 0.59752 0.0
C1951 C 0.8524 0.82864 0.56923 0.0
C1952 C 0.83285 0.82923 0.52823 0.0
H1953 H 0.84752 0.83934 0.42523 0.0
H1954 H 0.86005 0.83741 0.45951 0.0
H1955 H 0.81515 0.81834 0.50379 0.0
H1956 H 0.85749 0.88359 0.58969 0.0
H1957 H 0.85412 0.87814 0.55403 0.0
H1958 H 0.87146 0.8634 0.5246 0.0
C1959 C 0.84401 0.83933 0.45697 0.0
C1960 C 0.82758 0.82809 0.50815 0.0
C1961 C 0.83682 0.84038 0.43738 0.0
C1962 C 0.8562 0.86813 0.58426 0.0
C1963 C 0.85444 0.86501 0.56378 0.0
C1964 C 0.85925 0.85339 0.52018 0.0
C1965 C 0.83055 0.84052 0.47309 0.0
C1966 C 0.83784 0.83986 0.49392 0.0
C1967 C 0.85225 0.84527 0.55607 0.0
C1968 C 0.84842 0.84225 0.53452 0.0
H1969 H 0.78665 0.84621 0.44756 0.0
H1970 H 0.79917 0.84426 0.48144 0.0
H1971 H 0.86216 0.86144 0.48938 0.0
H1972 H 0.85407 0.81861 0.59948 0.0
H1973 H 0.85089 0.81324 0.56368 0.0
C1974 C 0.69616 0.14467 0.94687 0.0
C1975 C 0.68307 0.14795 0.93068 0.0
C1976 C 0.68916 0.14623 0.96636 0.0
C1977 C 0.64413 0.14158 0.99689 0.0
H1978 H 0.67704 0.16917 0.03636 0.0
C1979 C 0.64447 0.16142 0.08661 0.0
C1980 C 0.64051 0.14188 0.09425 0.0
C1981 C 0.64732 0.16431 0.06618 0.0
C1982 C 0.66753 0.16164 0.0255 0.0
H1983 H 0.65222 0.15525 0.9224 0.0
H1984 H 0.63992 0.15766 0.9567 0.0
H1985 H 0.68654 0.17069 0.0013 0.0
H1986 H 0.63591 0.11018 0.08626 0.0
H1987 H 0.64093 0.11528 0.05074 0.0
H1988 H 0.62537 0.13214 0.02119 0.0
C1989 C 0.65565 0.154 0.95411 0.0
C1990 C 0.67307 0.16237 0.00547 0.0
C1991 C 0.66272 0.15266 0.93451 0.0
C1992 C 0.63901 0.12542 0.08094 0.0
C1993 C 0.6417 0.12836 0.06054 0.0
C1994 C 0.63867 0.14072 0.01698 0.0
C1995 C 0.66887 0.15091 0.9702 0.0
C1996 C 0.66165 0.15201 0.99103 0.0
C1997 C 0.64609 0.14778 0.05297 0.0
C1998 C 0.65053 0.15044 0.03151 0.0
H1999 H 0.71191 0.14096 0.94457 0.0
H2000 H 0.69961 0.14344 0.97848 0.0
H2001 H 0.63511 0.1334 0.98607 0.0
H2002 H 0.64568 0.17445 0.09641 0.0
H2003 H 0.65056 0.17948 0.06073 0.0
C2004 C 0.34559 0.66291 0.40941 0.0
C2005 C 0.35118 0.64406 0.40114 0.0
C2006 C 0.34242 0.66479 0.42996 0.0
C2007 C 0.32842 0.63311 0.47277 0.0
H2008 H 0.3436 0.67991 0.50465 0.0
C2009 C 0.32742 0.65694 0.56083 0.0
C2010 C 0.30761 0.65071 0.56535 0.0
C2011 C 0.33407 0.65756 0.54101 0.0
C2012 C 0.33943 0.6667 0.49593 0.0
H2013 H 0.3589 0.61274 0.4082 0.0
H2014 H 0.35361 0.61612 0.44374 0.0
H2015 H 0.35362 0.67825 0.46949 0.0
H2016 H 0.27903 0.64118 0.55237 0.0
H2017 H 0.29057 0.64236 0.51824 0.0
H2018 H 0.31433 0.62145 0.49897 0.0
C2019 C 0.35122 0.62933 0.43437 0.0
C2020 C 0.34498 0.66583 0.47581 0.0
C2021 C 0.35429 0.62742 0.41395 0.0
C2022 C 0.29448 0.64577 0.5496 0.0
C2023 C 0.30109 0.64638 0.52995 0.0
C2024 C 0.32285 0.63401 0.49274 0.0
C2025 C 0.34483 0.64788 0.44259 0.0
C2026 C 0.33948 0.64902 0.46402 0.0
C2027 C 0.32103 0.65191 0.52543 0.0
C2028 C 0.3281 0.65086 0.5045 0.0
H2029 H 0.34312 0.67605 0.39999 0.0
H2030 H 0.3374 0.67927 0.43585 0.0
H2031 H 0.3237 0.62006 0.46408 0.0
H2032 H 0.3379 0.66093 0.57259 0.0
H2033 H 0.34954 0.66186 0.53793 0.0
C2034 C 0.16543 0.3354 0.05932 0.0
C2035 C 0.18575 0.34058 0.0628 0.0
C2036 C 0.15827 0.33293 0.03985 0.0
C2037 C 0.17528 0.32282 0.98857 0.0
H2038 H 0.12794 0.35327 0.97224 0.0
C2039 C 0.14257 0.35967 0.91259 0.0
C2040 C 0.14422 0.3432 0.89932 0.0
C2041 C 0.14476 0.35671 0.93305 0.0
C2042 C 0.14112 0.3446 0.97663 0.0
H2043 H 0.2145 0.34687 0.04846 0.0
H2044 H 0.20205 0.34243 0.01478 0.0
H2045 H 0.13759 0.35247 0.0074 0.0
H2046 H 0.14902 0.31058 0.89728 0.0
H2047 H 0.15301 0.3055 0.93308 0.0
H2048 H 0.17928 0.31555 0.95778 0.0
C2049 C 0.19168 0.3402 0.02706 0.0
C2050 C 0.14652 0.34399 0.99674 0.0
C2051 C 0.19876 0.34291 0.04641 0.0
C2052 C 0.14771 0.32362 0.90706 0.0
C2053 C 0.15005 0.32069 0.92755 0.0
C2054 C 0.16979 0.32329 0.96851 0.0
C2055 C 0.17137 0.33529 0.02355 0.0
C2056 C 0.16397 0.33355 0.00281 0.0
C2057 C 0.14878 0.33725 0.94073 0.0
C2058 C 0.15295 0.3346 0.96226 0.0
H2059 H 0.15501 0.33352 0.07161 0.0
H2060 H 0.14253 0.32912 0.03752 0.0
H2061 H 0.18869 0.31449 0.99289 0.0
H2062 H 0.13984 0.37496 0.90719 0.0
H2063 H 0.14397 0.36981 0.94282 0.0
C2064 C 0.57665 0.85035 0.85872 0.0
C2065 C 0.58885 0.85204 0.84167 0.0
C2066 C 0.55574 0.84839 0.85694 0.0
C2067 C 0.51402 0.8594 0.82261 0.0
H2068 H 0.48389 0.82313 0.85713 0.0
C2069 C 0.42743 0.82802 0.83457 0.0
C2070 C 0.41684 0.84656 0.83399 0.0
C2071 C 0.44851 0.82779 0.83425 0.0
C2072 C 0.4921 0.83318 0.84725 0.0
H2073 H 0.58858 0.85258 0.80933 0.0
H2074 H 0.55212 0.84904 0.80628 0.0
H2075 H 0.52066 0.82373 0.85894 0.0
H2076 H 0.42018 0.8794 0.83219 0.0
H2077 H 0.4569 0.87895 0.83181 0.0
H2078 H 0.48547 0.86878 0.81085 0.0
C2079 C 0.55875 0.84949 0.82102 0.0
C2080 C 0.51314 0.83368 0.84844 0.0
C2081 C 0.57966 0.85141 0.82279 0.0
C2082 C 0.42781 0.86483 0.83269 0.0
C2083 C 0.44888 0.86459 0.83234 0.0
C2084 C 0.49299 0.85893 0.82145 0.0
C2085 C 0.54657 0.8481 0.83807 0.0
C2086 C 0.52431 0.84691 0.83624 0.0
C2087 C 0.45944 0.84608 0.83329 0.0
C2088 C 0.4818 0.84593 0.83386 0.0
H2089 H 0.58319 0.85073 0.8735 0.0
H2090 H 0.54672 0.84758 0.87036 0.0
H2091 H 0.52221 0.86989 0.81313 0.0
H2092 H 0.4195 0.81363 0.83548 0.0
H2093 H 0.45624 0.81328 0.83474 0.0
C2094 C 0.92094 0.13658 0.35642 0.0
C2095 C 0.90738 0.13721 0.34031 0.0
C2096 C 0.94172 0.13657 0.35312 0.0
C2097 C 0.98067 0.15003 0.31664 0.0
H2098 H 0.01358 0.11346 0.34829 0.0
C2099 C 0.06677 0.15888 0.32622 0.0
C2100 C 0.07857 0.14115 0.32758 0.0
C2101 C 0.04577 0.15758 0.32491 0.0
C2102 C 0.0046 0.12357 0.33913 0.0
H2103 H 0.90514 0.13871 0.30807 0.0
H2104 H 0.94152 0.13867 0.30239 0.0
H2105 H 0.97702 0.11274 0.35181 0.0
H2106 H 0.07757 0.1081 0.32749 0.0
H2107 H 0.04096 0.1059 0.3251 0.0
H2108 H 0.00835 0.16088 0.304 0.0
C2109 C 0.93596 0.13825 0.31755 0.0
C2110 C 0.98368 0.12334 0.34134 0.0
C2111 C 0.91513 0.1382 0.32083 0.0
C2112 C 0.06896 0.12208 0.32671 0.0
C2113 C 0.04797 0.1208 0.3254 0.0
C2114 C 0.00165 0.15031 0.31446 0.0
C2115 C 0.94944 0.13724 0.33366 0.0
C2116 C 0.97153 0.13676 0.33034 0.0
C2117 C 0.03614 0.13853 0.32491 0.0
C2118 C 0.01383 0.13723 0.32587 0.0
H2119 H 0.91556 0.13595 0.37163 0.0
H2120 H 0.95176 0.13615 0.36585 0.0
H2121 H 0.97166 0.1606 0.30802 0.0
H2122 H 0.07365 0.17383 0.32676 0.0
H2123 H 0.03706 0.17152 0.32473 0.0
C2124 C 0.07752 0.64047 0.17514 0.0
C2125 C 0.08607 0.64209 0.15604 0.0
C2126 C 0.05676 0.64311 0.17787 0.0
C2127 C 0.01111 0.6643 0.15399 0.0
H2128 H 0.98266 0.62389 0.18539 0.0
C2129 C 0.92543 0.63141 0.1625 0.0
C2130 C 0.91455 0.64977 0.16324 0.0
C2131 C 0.94648 0.63148 0.16381 0.0
C2132 C 0.99041 0.63526 0.17655 0.0
H2133 H 0.07955 0.64845 0.12495 0.0
H2134 H 0.04349 0.6529 0.12973 0.0
H2135 H 0.01946 0.62284 0.18343 0.0
H2136 H 0.91733 0.68255 0.16658 0.0
H2137 H 0.95394 0.68258 0.16897 0.0
H2138 H 0.98209 0.6763 0.14653 0.0
C2139 C 0.05282 0.64971 0.14261 0.0
C2140 C 0.01147 0.63481 0.17562 0.0
C2141 C 0.0735 0.64699 0.13986 0.0
C2142 C 0.92519 0.66813 0.16575 0.0
C2143 C 0.94621 0.66818 0.16707 0.0
C2144 C 0.99007 0.66478 0.15495 0.0
C2145 C 0.04418 0.64756 0.16159 0.0
C2146 C 0.02201 0.64914 0.16408 0.0
C2147 C 0.9571 0.64989 0.1659 0.0
C2148 C 0.97948 0.6501 0.16602 0.0
H2149 H 0.08676 0.63674 0.18794 0.0
H2150 H 0.05053 0.64157 0.1927 0.0
H2151 H 0.01883 0.67568 0.14514 0.0
H2152 H 0.91774 0.61699 0.16062 0.0
H2153 H 0.95447 0.61716 0.16265 0.0
C2154 C 0.41442 0.35865 0.63155 0.0
C2155 C 0.40209 0.35032 0.64645 0.0
C2156 C 0.43537 0.35664 0.63256 0.0
C2157 C 0.47666 0.34437 0.66829 0.0
H2158 H 0.50866 0.34257 0.61996 0.0
C2159 C 0.56295 0.32798 0.66459 0.0
C2160 C 0.57409 0.34353 0.65532 0.0
C2161 C 0.54187 0.32806 0.66383 0.0
C2162 C 0.49984 0.34309 0.63354 0.0
H2163 H 0.40188 0.33268 0.67371 0.0
H2164 H 0.43838 0.32825 0.67501 0.0
H2165 H 0.47192 0.34279 0.61768 0.0
H2166 H 0.572 0.37121 0.63784 0.0
H2167 H 0.53508 0.37094 0.63602 0.0
H2168 H 0.50487 0.34392 0.68402 0.0
C2169 C 0.43201 0.33705 0.66292 0.0
C2170 C 0.4788 0.34336 0.63229 0.0
C2171 C 0.41106 0.33944 0.66212 0.0
C2172 C 0.56378 0.3591 0.64521 0.0
C2173 C 0.54273 0.35891 0.64407 0.0
C2174 C 0.49771 0.34364 0.66951 0.0
C2175 C 0.44449 0.34585 0.64829 0.0
C2176 C 0.4669 0.34431 0.64964 0.0
C2177 C 0.53164 0.34341 0.6534 0.0
C2178 C 0.50942 0.34327 0.65215 0.0
H2179 H 0.40793 0.3673 0.61939 0.0
H2180 H 0.44439 0.36403 0.62123 0.0
H2181 H 0.46813 0.34548 0.68198 0.0
H2182 H 0.57052 0.31584 0.67255 0.0
H2183 H 0.53354 0.31596 0.6711 0.0
C2184 C 0.84057 0.59639 0.86311 0.0
C2185 C 0.8595 0.60595 0.86487 0.0
C2186 C 0.83918 0.57529 0.86133 0.0
C2187 C 0.86689 0.52794 0.87131 0.0
H2188 H 0.82893 0.50476 0.83358 0.0
C2189 C 0.84821 0.44227 0.86978 0.0
C2190 C 0.84734 0.43294 0.85095 0.0
C2191 C 0.84938 0.46341 0.87146 0.0
C2192 C 0.83968 0.51101 0.8441 0.0
H2193 H 0.89184 0.60069 0.86609 0.0
H2194 H 0.88935 0.56379 0.86288 0.0
H2195 H 0.83226 0.54163 0.83617 0.0
H2196 H 0.8466 0.43869 0.8191 0.0
H2197 H 0.84871 0.47554 0.82209 0.0
H2198 H 0.87452 0.49729 0.87903 0.0
C2199 C 0.8756 0.5727 0.86309 0.0
C2200 C 0.84145 0.53211 0.84572 0.0
C2201 C 0.87701 0.59385 0.86484 0.0
C2202 C 0.84725 0.44532 0.83385 0.0
C2203 C 0.84837 0.46646 0.83555 0.0
C2204 C 0.86509 0.50682 0.86973 0.0
C2205 C 0.85666 0.56322 0.86127 0.0
C2206 C 0.85505 0.5408 0.85936 0.0
C2207 C 0.84962 0.47572 0.85436 0.0
C2208 C 0.85145 0.49814 0.85612 0.0
H2209 H 0.82674 0.60517 0.86314 0.0
H2210 H 0.82435 0.56841 0.86024 0.0
H2211 H 0.87737 0.53419 0.88208 0.0
H2212 H 0.84823 0.43325 0.88328 0.0
H2213 H 0.85002 0.47014 0.88617 0.0
C2214 C 0.32882 0.89807 0.13146 0.0
C2215 C 0.34868 0.8905 0.13081 0.0
C2216 C 0.32525 0.919 0.13217 0.0
C2217 C 0.34914 0.96822 0.1208 0.0
H2218 H 0.31003 0.99022 0.15796 0.0
C2219 C 0.33314 0.05411 0.12514 0.0
C2220 C 0.33339 0.06232 0.14448 0.0
C2221 C 0.33229 0.03307 0.12229 0.0
C2222 C 0.32098 0.98428 0.1475 0.0
H2223 H 0.38036 0.8991 0.13063 0.0
H2224 H 0.37407 0.93553 0.132 0.0
H2225 H 0.31454 0.95341 0.15551 0.0
H2226 H 0.33203 0.05482 0.17596 0.0
H2227 H 0.33077 0.01823 0.17094 0.0
H2228 H 0.35609 -0.00096 0.11324 0.0
C2229 C 0.36128 0.92525 0.13167 0.0
C2230 C 0.32344 0.96323 0.14598 0.0
C2231 C 0.36486 0.90435 0.13103 0.0
C2232 C 0.33198 0.04905 0.16085 0.0
C2233 C 0.33109 0.02805 0.15799 0.0
C2234 C 0.34665 0.98924 0.12228 0.0
C2235 C 0.34144 0.9328 0.13217 0.0
C2236 C 0.33779 0.95502 0.13285 0.0
C2237 C 0.3316 0.01982 0.1387 0.0
C2238 C 0.33277 -0.0025 0.13586 0.0
H2239 H 0.31598 0.88785 0.1313 0.0
H2240 H 0.3098 0.9244 0.13242 0.0
H2241 H 0.36012 0.96231 0.11035 0.0
H2242 H 0.33404 0.06387 0.11218 0.0
H2243 H 0.33243 0.02715 0.10724 0.0
C2244 C 0.1549 0.9476 0.65652 0.0
C2245 C 0.15306 0.93404 0.64042 0.0
C2246 C 0.15389 0.96857 0.65347 0.0
C2247 C 0.16072 0.01259 0.64163 0.0
H2248 H 0.11776 0.03236 0.60746 0.0
C2249 C 0.15032 0.09784 0.62413 0.0
C2250 C 0.13047 0.1054 0.62501 0.0
C2251 C 0.15399 0.07694 0.62482 0.0
C2252 C 0.12978 0.02706 0.61709 0.0
H2253 H 0.14942 0.93204 0.60833 0.0
H2254 H 0.14775 0.96871 0.60306 0.0
H2255 H 0.12321 0.9958 0.61091 0.0
H2256 H 0.09889 0.09677 0.62721 0.0
H2257 H 0.10536 0.06031 0.62855 0.0
H2258 H 0.16694 0.04382 0.64825 0.0
C2259 C 0.14973 0.96302 0.61807 0.0
C2260 C 0.13306 0.00615 0.61888 0.0
C2261 C 0.1508 0.94201 0.6211 0.0
C2262 C 0.11437 0.09152 0.62644 0.0
C2263 C 0.11805 0.0706 0.6271 0.0
C2264 C 0.15748 0.0335 0.63979 0.0
C2265 C 0.151 0.97649 0.63426 0.0
C2266 C 0.14844 -0.0013 0.63133 0.0
C2267 C 0.13791 0.06311 0.62638 0.0
C2268 C 0.14185 0.04094 0.62766 0.0
H2269 H 0.15671 0.94204 0.6716 0.0
H2270 H 0.15473 0.97856 0.66627 0.0
H2271 H 0.1728 0.0073 0.6512 0.0
H2272 H 0.16311 0.10805 0.62294 0.0
H2273 H 0.16944 0.07161 0.624 0.0
C2274 C 0.65439 0.39466 0.36245 0.0
C2275 C 0.63572 0.38446 0.36276 0.0
C2276 C 0.6552 0.41581 0.361 0.0
C2277 C 0.65218 0.46081 0.37003 0.0
H2278 H 0.6173 0.48924 0.33293 0.0
C2279 C 0.64687 0.5484 0.36753 0.0
C2280 C 0.6464 0.55751 0.34858 0.0
C2281 C 0.64517 0.52733 0.36956 0.0
C2282 C 0.62721 0.48149 0.34328 0.0
H2283 H 0.60321 0.38862 0.36166 0.0
H2284 H 0.60468 0.42563 0.35928 0.0
H2285 H 0.61514 0.45227 0.33573 0.0
H2286 H 0.64391 0.55145 0.31687 0.0
H2287 H 0.64116 0.51471 0.32046 0.0
H2288 H 0.66458 0.48995 0.37727 0.0
C2289 C 0.61868 0.41716 0.36 0.0
C2290 C 0.62581 0.46036 0.34504 0.0
C2291 C 0.61786 0.39596 0.36147 0.0
C2292 C 0.64428 0.545 0.33171 0.0
C2293 C 0.64256 0.52393 0.33375 0.0
C2294 C 0.65356 0.48193 0.36829 0.0
C2295 C 0.63737 0.4273 0.35982 0.0
C2296 C 0.63837 0.44979 0.35835 0.0
C2297 C 0.64294 0.51487 0.35269 0.0
C2298 C 0.64117 0.49249 0.35482 0.0
H2299 H 0.66848 0.38633 0.36334 0.0
H2300 H 0.66984 0.42316 0.36059 0.0
H2301 H 0.66191 0.45311 0.38059 0.0
H2302 H 0.64845 0.55754 0.38086 0.0
H2303 H 0.64531 0.5208 0.38437 0.0
loop_
_geom_bond_atom_site_label_1
_geom_bond_atom_site_label_2
_geom_bond_distance
_geom_bond_site_symmetry_2
_ccdc_geom_bond_type
Mn0 O5 2.095 . S
Mn0 O15 2.162 . S
Mn0 O16 2.297 . S
Mn0 O24 2.385 . S
Mn0 O25 2.209 . S
Mn0 O26 2.094 . S
Mn1 O6 2.121 . S
Mn1 N8 2.257 . S
Mn1 N17 2.282 . S
Mn1 O25 2.215 . S
Mn1 O27 2.117 . S
C2 O24 1.234 . S
C2 O25 1.283 . S
C3 O15 1.281 . S
C3 O16 1.236 . S
C4 O26 1.240 . S
C4 O27 1.264 . S
O5 Mn0 2.095 . S
O5 C14 1.250 . S
O6 Mn1 2.121 . S
O6 C14 1.258 . S
C7 N8 1.326 . S
C7 C11 1.460 . S
C7 H13 0.929 . S
N8 Mn1 2.257 . S
N8 C7 1.326 . S
N8 C12 1.362 . S
C9 C10 1.258 . S
C9 C12 1.431 . S
C9 C29 1.449 . S
C10 C9 1.258 . S
C10 C11 1.477 . S
C10 H30 0.931 . S
C11 C7 1.460 . S
C11 C10 1.477 . S
C11 H31 0.930 . S
C12 N8 1.362 . S
C12 C9 1.431 . S
C12 C22 1.476 . S
H13 C7 0.929 . S
C14 O5 1.250 . S
C14 O6 1.258 . S
O15 Mn0 2.162 . S
O15 C3 1.281 . S
O16 Mn0 2.297 . S
O16 C3 1.236 . S
N17 Mn1 2.282 . S
N17 C18 1.328 . S
N17 C22 1.318 . S
C18 N17 1.328 . S
C18 C19 1.457 . S
C18 H23 0.929 . S
C19 C18 1.457 . S
C19 C20 1.291 . S
C19 H32 0.931 . S
C20 C19 1.291 . S
C20 C21 1.373 . S
C20 H33 0.929 . S
C21 C20 1.373 . S
C21 C22 1.396 . S
C21 C28 1.403 . S
C22 C12 1.476 . S
C22 N17 1.318 . S
C22 C21 1.396 . S
H23 C18 0.929 . S
O24 Mn0 2.385 . S
O24 C2 1.234 . S
O25 Mn0 2.209 . S
O25 Mn1 2.215 . S
O25 C2 1.283 . S
O26 Mn0 2.094 . S
O26 C4 1.240 . S
O27 Mn1 2.117 . S
O27 C4 1.264 . S
C28 C21 1.403 . S
C28 C29 1.399 . S
C28 H34 0.929 . S
C29 C9 1.449 . S
C29 C28 1.399 . S
C29 H35 0.930 . S
H30 C10 0.931 . S
H31 C11 0.930 . S
H32 C19 0.931 . S
H33 C20 0.929 . S
H34 C28 0.929 . S
H35 C29 0.930 . S
Mn36 O41 2.095 . S
Mn36 O51 2.162 . S
Mn36 O52 2.297 . S
Mn36 O60 2.385 . S
Mn36 O61 2.209 . S
Mn36 O62 2.094 . S
Mn37 O42 2.121 . S
Mn37 N44 2.257 . S
Mn37 N53 2.282 . S
Mn37 O61 2.215 . S
Mn37 O63 2.117 . S
C38 O60 1.234 . S
C38 O61 1.283 . S
C39 O51 1.281 . S
C39 O52 1.236 . S
C40 O62 1.240 . S
C40 O63 1.264 . S
O41 Mn36 2.095 . S
O41 C50 1.250 . S
O42 Mn37 2.121 . S
O42 C50 1.258 . S
C43 N44 1.326 . S
C43 C47 1.460 . S
C43 H49 0.929 . S
N44 Mn37 2.257 . S
N44 C43 1.326 . S
N44 C48 1.362 . S
C45 C46 1.258 . S
C45 C48 1.431 . S
C45 C65 1.449 . S
C46 C45 1.258 . S
C46 C47 1.477 . S
C46 H66 0.931 . S
C47 C43 1.460 . S
C47 C46 1.477 . S
C47 H67 0.930 . S
C48 N44 1.362 . S
C48 C45 1.431 . S
C48 C58 1.476 . S
H49 C43 0.929 . S
C50 O41 1.250 . S
C50 O42 1.258 . S
O51 Mn36 2.162 . S
O51 C39 1.281 . S
O52 Mn36 2.297 . S
O52 C39 1.236 . S
N53 Mn37 2.282 . S
N53 C54 1.328 . S
N53 C58 1.318 . S
C54 N53 1.328 . S
C54 C55 1.457 . S
C54 H59 0.929 . S
C55 C54 1.457 . S
C55 C56 1.291 . S
C55 H68 0.931 . S
C56 C55 1.291 . S
C56 C57 1.373 . S
C56 H69 0.929 . S
C57 C56 1.373 . S
C57 C58 1.396 . S
C57 C64 1.403 . S
C58 C48 1.476 . S
C58 N53 1.318 . S
C58 C57 1.396 . S
H59 C54 0.929 . S
O60 Mn36 2.385 . S
O60 C38 1.234 . S
O61 Mn36 2.209 . S
O61 Mn37 2.215 . S
O61 C38 1.283 . S
O62 Mn36 2.094 . S
O62 C40 1.240 . S
O63 Mn37 2.117 . S
O63 C40 1.264 . S
C64 C57 1.403 . S
C64 C65 1.399 . S
C64 H70 0.929 . S
C65 C45 1.449 . S
C65 C64 1.399 . S
C65 H71 0.930 . S
H66 C46 0.931 . S
H67 C47 0.930 . S
H68 C55 0.931 . S
H69 C56 0.929 . S
H70 C64 0.929 . S
H71 C65 0.930 . S
Mn72 O77 2.095 . S
Mn72 O87 2.162 . S
Mn72 O88 2.297 . S
Mn72 O96 2.385 . S
Mn72 O97 2.209 . S
Mn72 O98 2.094 . S
Mn73 O78 2.121 . S
Mn73 N80 2.257 . S
Mn73 N89 2.282 . S
Mn73 O97 2.215 . S
Mn73 O99 2.117 . S
C74 O96 1.234 . S
C74 O97 1.283 . S
C75 O87 1.281 . S
C75 O88 1.236 . S
C76 O98 1.240 . S
C76 O99 1.264 . S
O77 Mn72 2.095 . S
O77 C86 1.250 . S
O78 Mn73 2.121 . S
O78 C86 1.258 . S
C79 N80 1.326 . S
C79 C83 1.460 . S
C79 H85 0.929 . S
N80 Mn73 2.257 . S
N80 C79 1.326 . S
N80 C84 1.362 . S
C81 C82 1.258 . S
C81 C84 1.431 . S
C81 C101 1.449 . S
C82 C81 1.258 . S
C82 C83 1.477 . S
C82 H102 0.931 . S
C83 C79 1.460 . S
C83 C82 1.477 . S
C83 H103 0.930 . S
C84 N80 1.362 . S
C84 C81 1.431 . S
C84 C94 1.476 . S
H85 C79 0.929 . S
C86 O77 1.250 . S
C86 O78 1.258 . S
O87 Mn72 2.162 . S
O87 C75 1.281 . S
O88 Mn72 2.297 . S
O88 C75 1.236 . S
N89 Mn73 2.282 . S
N89 C90 1.328 . S
N89 C94 1.318 . S
C90 N89 1.328 . S
C90 C91 1.457 . S
C90 H95 0.929 . S
C91 C90 1.457 . S
C91 C92 1.291 . S
C91 H104 0.931 . S
C92 C91 1.291 . S
C92 C93 1.373 . S
C92 H105 0.929 . S
C93 C92 1.373 . S
C93 C94 1.396 . S
C93 C100 1.403 . S
C94 C84 1.476 . S
C94 N89 1.318 . S
C94 C93 1.396 . S
H95 C90 0.929 . S
O96 Mn72 2.385 . S
O96 C74 1.234 . S
O97 Mn72 2.209 . S
O97 Mn73 2.215 . S
O97 C74 1.283 . S
O98 Mn72 2.094 . S
O98 C76 1.240 . S
O99 Mn73 2.117 . S
O99 C76 1.264 . S
C100 C93 1.403 . S
C100 C101 1.399 . S
C100 H106 0.929 . S
C101 C81 1.449 . S
C101 C100 1.399 . S
C101 H107 0.930 . S
H102 C82 0.931 . S
H103 C83 0.930 . S
H104 C91 0.931 . S
H105 C92 0.929 . S
H106 C100 0.929 . S
H107 C101 0.930 . S
Mn108 O113 2.095 . S
Mn108 O123 2.162 . S
Mn108 O124 2.297 . S
Mn108 O132 2.385 . S
Mn108 O133 2.209 . S
Mn108 O134 2.094 . S
Mn109 O114 2.121 . S
Mn109 N116 2.257 . S
Mn109 N125 2.282 . S
Mn109 O133 2.215 . S
Mn109 O135 2.117 . S
C110 O132 1.234 . S
C110 O133 1.283 . S
C111 O123 1.281 . S
C111 O124 1.236 . S
C112 O134 1.240 . S
C112 O135 1.264 . S
O113 Mn108 2.095 . S
O113 C122 1.250 . S
O114 Mn109 2.121 . S
O114 C122 1.258 . S
C115 N116 1.326 . S
C115 C119 1.460 . S
C115 H121 0.929 . S
N116 Mn109 2.257 . S
N116 C115 1.326 . S
N116 C120 1.362 . S
C117 C118 1.258 . S
C117 C120 1.431 . S
C117 C137 1.449 . S
C118 C117 1.258 . S
C118 C119 1.477 . S
C118 H138 0.931 . S
C119 C115 1.460 . S
C119 C118 1.477 . S
C119 H139 0.930 . S
C120 N116 1.362 . S
C120 C117 1.431 . S
C120 C130 1.476 . S
H121 C115 0.929 . S
C122 O113 1.250 . S
C122 O114 1.258 . S
O123 Mn108 2.162 . S
O123 C111 1.281 . S
O124 Mn108 2.297 . S
O124 C111 1.236 . S
N125 Mn109 2.282 . S
N125 C126 1.328 . S
N125 C130 1.318 . S
C126 N125 1.328 . S
C126 C127 1.457 . S
C126 H131 0.929 . S
C127 C126 1.457 . S
C127 C128 1.291 . S
C127 H140 0.931 . S
C128 C127 1.291 . S
C128 C129 1.373 . S
C128 H141 0.929 . S
C129 C128 1.373 . S
C129 C130 1.396 . S
C129 C136 1.403 . S
C130 C120 1.476 . S
C130 N125 1.318 . S
C130 C129 1.396 . S
H131 C126 0.929 . S
O132 Mn108 2.385 . S
O132 C110 1.234 . S
O133 Mn108 2.209 . S
O133 Mn109 2.215 . S
O133 C110 1.283 . S
O134 Mn108 2.094 . S
O134 C112 1.240 . S
O135 Mn109 2.117 . S
O135 C112 1.264 . S
C136 C129 1.403 . S
C136 C137 1.399 . S
C136 H142 0.929 . S
C137 C117 1.449 . S
C137 C136 1.399 . S
C137 H143 0.930 . S
H138 C118 0.931 . S
H139 C119 0.930 . S
H140 C127 0.931 . S
H141 C128 0.929 . S
H142 C136 0.929 . S
H143 C137 0.930 . S
Mn144 O149 2.095 . S
Mn144 O159 2.162 . S
Mn144 O160 2.297 . S
Mn144 O168 2.385 . S
Mn144 O169 2.209 . S
Mn144 O170 2.094 . S
Mn145 O150 2.121 . S
Mn145 N152 2.257 . S
Mn145 N161 2.282 . S
Mn145 O169 2.215 . S
Mn145 O171 2.117 . S
C146 O168 1.234 . S
C146 O169 1.283 . S
C147 O159 1.281 . S
C147 O160 1.236 . S
C148 O170 1.240 . S
C148 O171 1.264 . S
O149 Mn144 2.095 . S
O149 C158 1.250 . S
O150 Mn145 2.121 . S
O150 C158 1.258 . S
C151 N152 1.326 . S
C151 C155 1.460 . S
C151 H157 0.929 . S
N152 Mn145 2.257 . S
N152 C151 1.326 . S
N152 C156 1.362 . S
C153 C154 1.258 . S
C153 C156 1.431 . S
C153 C173 1.449 . S
C154 C153 1.258 . S
C154 C155 1.477 . S
C154 H174 0.931 . S
C155 C151 1.460 . S
C155 C154 1.477 . S
C155 H175 0.930 . S
C156 N152 1.362 . S
C156 C153 1.431 . S
C156 C166 1.476 . S
H157 C151 0.929 . S
C158 O149 1.250 . S
C158 O150 1.258 . S
O159 Mn144 2.162 . S
O159 C147 1.281 . S
O160 Mn144 2.297 . S
O160 C147 1.236 . S
N161 Mn145 2.282 . S
N161 C162 1.328 . S
N161 C166 1.318 . S
C162 N161 1.328 . S
C162 C163 1.457 . S
C162 H167 0.929 . S
C163 C162 1.457 . S
C163 C164 1.291 . S
C163 H176 0.931 . S
C164 C163 1.291 . S
C164 C165 1.373 . S
C164 H177 0.929 . S
C165 C164 1.373 . S
C165 C166 1.396 . S
C165 C172 1.403 . S
C166 C156 1.476 . S
C166 N161 1.318 . S
C166 C165 1.396 . S
H167 C162 0.929 . S
O168 Mn144 2.385 . S
O168 C146 1.234 . S
O169 Mn144 2.209 . S
O169 Mn145 2.215 . S
O169 C146 1.283 . S
O170 Mn144 2.094 . S
O170 C148 1.240 . S
O171 Mn145 2.117 . S
O171 C148 1.264 . S
C172 C165 1.403 . S
C172 C173 1.399 . S
C172 H178 0.929 . S
C173 C153 1.449 . S
C173 C172 1.399 . S
C173 H179 0.930 . S
H174 C154 0.931 . S
H175 C155 0.930 . S
H176 C163 0.931 . S
H177 C164 0.929 . S
H178 C172 0.929 . S
H179 C173 0.930 . S
Mn180 O185 2.095 . S
Mn180 O195 2.162 . S
Mn180 O196 2.297 . S
Mn180 O204 2.385 . S
Mn180 O205 2.209 . S
Mn180 O206 2.094 . S
Mn181 O186 2.121 . S
Mn181 N188 2.257 . S
Mn181 N197 2.282 . S
Mn181 O205 2.215 . S
Mn181 O207 2.117 . S
C182 O204 1.234 . S
C182 O205 1.283 . S
C183 O195 1.281 . S
C183 O196 1.236 . S
C184 O206 1.240 . S
C184 O207 1.264 . S
O185 Mn180 2.095 . S
O185 C194 1.250 . S
O186 Mn181 2.121 . S
O186 C194 1.258 . S
C187 N188 1.326 . S
C187 C191 1.460 . S
C187 H193 0.929 . S
N188 Mn181 2.257 . S
N188 C187 1.326 . S
N188 C192 1.362 . S
C189 C190 1.258 . S
C189 C192 1.431 . S
C189 C209 1.449 . S
C190 C189 1.258 . S
C190 C191 1.477 . S
C190 H210 0.931 . S
C191 C187 1.460 . S
C191 C190 1.477 . S
C191 H211 0.930 . S
C192 N188 1.362 . S
C192 C189 1.431 . S
C192 C202 1.476 . S
H193 C187 0.929 . S
C194 O185 1.250 . S
C194 O186 1.258 . S
O195 Mn180 2.162 . S
O195 C183 1.281 . S
O196 Mn180 2.297 . S
O196 C183 1.236 . S
N197 Mn181 2.282 . S
N197 C198 1.328 . S
N197 C202 1.318 . S
C198 N197 1.328 . S
C198 C199 1.457 . S
C198 H203 0.929 . S
C199 C198 1.457 . S
C199 C200 1.291 . S
C199 H212 0.931 . S
C200 C199 1.291 . S
C200 C201 1.373 . S
C200 H213 0.929 . S
C201 C200 1.373 . S
C201 C202 1.396 . S
C201 C208 1.403 . S
C202 C192 1.476 . S
C202 N197 1.318 . S
C202 C201 1.396 . S
H203 C198 0.929 . S
O204 Mn180 2.385 . S
O204 C182 1.234 . S
O205 Mn180 2.209 . S
O205 Mn181 2.215 . S
O205 C182 1.283 . S
O206 Mn180 2.094 . S
O206 C184 1.240 . S
O207 Mn181 2.117 . S
O207 C184 1.264 . S
C208 C201 1.403 . S
C208 C209 1.399 . S
C208 H214 0.929 . S
C209 C189 1.449 . S
C209 C208 1.399 . S
C209 H215 0.930 . S
H210 C190 0.931 . S
H211 C191 0.930 . S
H212 C199 0.931 . S
H213 C200 0.929 . S
H214 C208 0.929 . S
H215 C209 0.930 . S
Mn216 O221 2.095 . S
Mn216 O231 2.162 . S
Mn216 O232 2.297 . S
Mn216 O240 2.385 . S
Mn216 O241 2.209 . S
Mn216 O242 2.094 . S
Mn217 O222 2.121 . S
Mn217 N224 2.257 . S
Mn217 N233 2.282 . S
Mn217 O241 2.215 . S
Mn217 O243 2.117 . S
C218 O240 1.234 . S
C218 O241 1.283 . S
C219 O231 1.281 . S
C219 O232 1.236 . S
C220 O242 1.240 . S
C220 O243 1.264 . S
O221 Mn216 2.095 . S
O221 C230 1.250 . S
O222 Mn217 2.121 . S
O222 C230 1.258 . S
C223 N224 1.326 . S
C223 C227 1.460 . S
C223 H229 0.929 . S
N224 Mn217 2.257 . S
N224 C223 1.326 . S
N224 C228 1.362 . S
C225 C226 1.258 . S
C225 C228 1.431 . S
C225 C245 1.449 . S
C226 C225 1.258 . S
C226 C227 1.477 . S
C226 H246 0.931 . S
C227 C223 1.460 . S
C227 C226 1.477 . S
C227 H247 0.930 . S
C228 N224 1.362 . S
C228 C225 1.431 . S
C228 C238 1.476 . S
H229 C223 0.929 . S
C230 O221 1.250 . S
C230 O222 1.258 . S
O231 Mn216 2.162 . S
O231 C219 1.281 . S
O232 Mn216 2.297 . S
O232 C219 1.236 . S
N233 Mn217 2.282 . S
N233 C234 1.328 . S
N233 C238 1.318 . S
C234 N233 1.328 . S
C234 C235 1.457 . S
C234 H239 0.929 . S
C235 C234 1.457 . S
C235 C236 1.291 . S
C235 H248 0.931 . S
C236 C235 1.291 . S
C236 C237 1.373 . S
C236 H249 0.929 . S
C237 C236 1.373 . S
C237 C238 1.396 . S
C237 C244 1.403 . S
C238 C228 1.476 . S
C238 N233 1.318 . S
C238 C237 1.396 . S
H239 C234 0.929 . S
O240 Mn216 2.385 . S
O240 C218 1.234 . S
O241 Mn216 2.209 . S
O241 Mn217 2.215 . S
O241 C218 1.283 . S
O242 Mn216 2.094 . S
O242 C220 1.240 . S
O243 Mn217 2.117 . S
O243 C220 1.264 . S
C244 C237 1.403 . S
C244 C245 1.399 . S
C244 H250 0.929 . S
C245 C225 1.449 . S
C245 C244 1.399 . S
C245 H251 0.930 . S
H246 C226 0.931 . S
H247 C227 0.930 . S
H248 C235 0.931 . S
H249 C236 0.929 . S
H250 C244 0.929 . S
H251 C245 0.930 . S
Mn252 O257 2.095 . S
Mn252 O267 2.162 . S
Mn252 O268 2.297 . S
Mn252 O276 2.385 . S
Mn252 O277 2.209 . S
Mn252 O278 2.094 . S
Mn253 O258 2.121 . S
Mn253 N260 2.257 . S
Mn253 N269 2.282 . S
Mn253 O277 2.215 . S
Mn253 O279 2.117 . S
C254 O276 1.234 . S
C254 O277 1.283 . S
C255 O267 1.281 . S
C255 O268 1.236 . S
C256 O278 1.240 . S
C256 O279 1.264 . S
O257 Mn252 2.095 . S
O257 C266 1.250 . S
O258 Mn253 2.121 . S
O258 C266 1.258 . S
C259 N260 1.326 . S
C259 C263 1.460 . S
C259 H265 0.929 . S
N260 Mn253 2.257 . S
N260 C259 1.326 . S
N260 C264 1.362 . S
C261 C262 1.258 . S
C261 C264 1.431 . S
C261 C281 1.449 . S
C262 C261 1.258 . S
C262 C263 1.477 . S
C262 H282 0.931 . S
C263 C259 1.460 . S
C263 C262 1.477 . S
C263 H283 0.930 . S
C264 N260 1.362 . S
C264 C261 1.431 . S
C264 C274 1.476 . S
H265 C259 0.929 . S
C266 O257 1.250 . S
C266 O258 1.258 . S
O267 Mn252 2.162 . S
O267 C255 1.281 . S
O268 Mn252 2.297 . S
O268 C255 1.236 . S
N269 Mn253 2.282 . S
N269 C270 1.328 . S
N269 C274 1.318 . S
C270 N269 1.328 . S
C270 C271 1.457 . S
C270 H275 0.929 . S
C271 C270 1.457 . S
C271 C272 1.291 . S
C271 H284 0.931 . S
C272 C271 1.291 . S
C272 C273 1.373 . S
C272 H285 0.929 . S
C273 C272 1.373 . S
C273 C274 1.396 . S
C273 C280 1.403 . S
C274 C264 1.476 . S
C274 N269 1.318 . S
C274 C273 1.396 . S
H275 C270 0.929 . S
O276 Mn252 2.385 . S
O276 C254 1.234 . S
O277 Mn252 2.209 . S
O277 Mn253 2.215 . S
O277 C254 1.283 . S
O278 Mn252 2.094 . S
O278 C256 1.240 . S
O279 Mn253 2.117 . S
O279 C256 1.264 . S
C280 C273 1.403 . S
C280 C281 1.399 . S
C280 H286 0.929 . S
C281 C261 1.449 . S
C281 C280 1.399 . S
C281 H287 0.930 . S
H282 C262 0.931 . S
H283 C263 0.930 . S
H284 C271 0.931 . S
H285 C272 0.929 . S
H286 C280 0.929 . S
H287 C281 0.930 . S
Mn288 O293 2.095 . S
Mn288 O303 2.162 . S
Mn288 O304 2.297 . S
Mn288 O312 2.385 . S
Mn288 O313 2.209 . S
Mn288 O314 2.094 . S
Mn289 O294 2.121 . S
Mn289 N296 2.257 . S
Mn289 N305 2.282 . S
Mn289 O313 2.215 . S
Mn289 O315 2.117 . S
C290 O312 1.234 . S
C290 O313 1.283 . S
C291 O303 1.281 . S
C291 O304 1.236 . S
C292 O314 1.240 . S
C292 O315 1.264 . S
O293 Mn288 2.095 . S
O293 C302 1.250 . S
O294 Mn289 2.121 . S
O294 C302 1.258 . S
C295 N296 1.326 . S
C295 C299 1.460 . S
C295 H301 0.929 . S
N296 Mn289 2.257 . S
N296 C295 1.326 . S
N296 C300 1.362 . S
C297 C298 1.258 . S
C297 C300 1.431 . S
C297 C317 1.449 . S
C298 C297 1.258 . S
C298 C299 1.477 . S
C298 H318 0.931 . S
C299 C295 1.460 . S
C299 C298 1.477 . S
C299 H319 0.930 . S
C300 N296 1.362 . S
C300 C297 1.431 . S
C300 C310 1.476 . S
H301 C295 0.929 . S
C302 O293 1.250 . S
C302 O294 1.258 . S
O303 Mn288 2.162 . S
O303 C291 1.281 . S
O304 Mn288 2.297 . S
O304 C291 1.236 . S
N305 Mn289 2.282 . S
N305 C306 1.328 . S
N305 C310 1.318 . S
C306 N305 1.328 . S
C306 C307 1.457 . S
C306 H311 0.929 . S
C307 C306 1.457 . S
C307 C308 1.291 . S
C307 H320 0.931 . S
C308 C307 1.291 . S
C308 C309 1.373 . S
C308 H321 0.929 . S
C309 C308 1.373 . S
C309 C310 1.396 . S
C309 C316 1.403 . S
C310 C300 1.476 . S
C310 N305 1.318 . S
C310 C309 1.396 . S
H311 C306 0.929 . S
O312 Mn288 2.385 . S
O312 C290 1.234 . S
O313 Mn288 2.209 . S
O313 Mn289 2.215 . S
O313 C290 1.283 . S
O314 Mn288 2.094 . S
O314 C292 1.240 . S
O315 Mn289 2.117 . S
O315 C292 1.264 . S
C316 C309 1.403 . S
C316 C317 1.399 . S
C316 H322 0.929 . S
C317 C297 1.449 . S
C317 C316 1.399 . S
C317 H323 0.930 . S
H318 C298 0.931 . S
H319 C299 0.930 . S
H320 C307 0.931 . S
H321 C308 0.929 . S
H322 C316 0.929 . S
H323 C317 0.930 . S
Mn324 O329 2.095 . S
Mn324 O339 2.162 . S
Mn324 O340 2.297 . S
Mn324 O348 2.385 . S
Mn324 O349 2.209 . S
Mn324 O350 2.094 . S
Mn325 O330 2.121 . S
Mn325 N332 2.257 . S
Mn325 N341 2.282 . S
Mn325 O349 2.215 . S
Mn325 O351 2.117 . S
C326 O348 1.234 . S
C326 O349 1.283 . S
C327 O339 1.281 . S
C327 O340 1.236 . S
C328 O350 1.240 . S
C328 O351 1.264 . S
O329 Mn324 2.095 . S
O329 C338 1.250 . S
O330 Mn325 2.121 . S
O330 C338 1.258 . S
C331 N332 1.326 . S
C331 C335 1.460 . S
C331 H337 0.929 . S
N332 Mn325 2.257 . S
N332 C331 1.326 . S
N332 C336 1.362 . S
C333 C334 1.258 . S
C333 C336 1.431 . S
C333 C353 1.449 . S
C334 C333 1.258 . S
C334 C335 1.477 . S
C334 H354 0.931 . S
C335 C331 1.460 . S
C335 C334 1.477 . S
C335 H355 0.930 . S
C336 N332 1.362 . S
C336 C333 1.431 . S
C336 C346 1.476 . S
H337 C331 0.929 . S
C338 O329 1.250 . S
C338 O330 1.258 . S
O339 Mn324 2.162 . S
O339 C327 1.281 . S
O340 Mn324 2.297 . S
O340 C327 1.236 . S
N341 Mn325 2.282 . S
N341 C342 1.328 . S
N341 C346 1.318 . S
C342 N341 1.328 . S
C342 C343 1.457 . S
C342 H347 0.929 . S
C343 C342 1.457 . S
C343 C344 1.291 . S
C343 H356 0.931 . S
C344 C343 1.291 . S
C344 C345 1.373 . S
C344 H357 0.929 . S
C345 C344 1.373 . S
C345 C346 1.396 . S
C345 C352 1.403 . S
C346 C336 1.476 . S
C346 N341 1.318 . S
C346 C345 1.396 . S
H347 C342 0.929 . S
O348 Mn324 2.385 . S
O348 C326 1.234 . S
O349 Mn324 2.209 . S
O349 Mn325 2.215 . S
O349 C326 1.283 . S
O350 Mn324 2.094 . S
O350 C328 1.240 . S
O351 Mn325 2.117 . S
O351 C328 1.264 . S
C352 C345 1.403 . S
C352 C353 1.399 . S
C352 H358 0.929 . S
C353 C333 1.449 . S
C353 C352 1.399 . S
C353 H359 0.930 . S
H354 C334 0.931 . S
H355 C335 0.930 . S
H356 C343 0.931 . S
H357 C344 0.929 . S
H358 C352 0.929 . S
H359 C353 0.930 . S
Mn360 O365 2.095 . S
Mn360 O375 2.162 . S
Mn360 O376 2.297 . S
Mn360 O384 2.385 . S
Mn360 O385 2.209 . S
Mn360 O386 2.094 . S
Mn361 O366 2.121 . S
Mn361 N368 2.257 . S
Mn361 N377 2.282 . S
Mn361 O385 2.215 . S
Mn361 O387 2.117 . S
C362 O384 1.234 . S
C362 O385 1.283 . S
C363 O375 1.281 . S
C363 O376 1.236 . S
C364 O386 1.240 . S
C364 O387 1.264 . S
O365 Mn360 2.095 . S
O365 C374 1.250 . S
O366 Mn361 2.121 . S
O366 C374 1.258 . S
C367 N368 1.326 . S
C367 C371 1.460 . S
C367 H373 0.929 . S
N368 Mn361 2.257 . S
N368 C367 1.326 . S
N368 C372 1.362 . S
C369 C370 1.258 . S
C369 C372 1.431 . S
C369 C389 1.449 . S
C370 C369 1.258 . S
C370 C371 1.477 . S
C370 H390 0.931 . S
C371 C367 1.460 . S
C371 C370 1.477 . S
C371 H391 0.930 . S
C372 N368 1.362 . S
C372 C369 1.431 . S
C372 C382 1.476 . S
H373 C367 0.929 . S
C374 O365 1.250 . S
C374 O366 1.258 . S
O375 Mn360 2.162 . S
O375 C363 1.281 . S
O376 Mn360 2.297 . S
O376 C363 1.236 . S
N377 Mn361 2.282 . S
N377 C378 1.328 . S
N377 C382 1.318 . S
C378 N377 1.328 . S
C378 C379 1.457 . S
C378 H383 0.929 . S
C379 C378 1.457 . S
C379 C380 1.291 . S
C379 H392 0.931 . S
C380 C379 1.291 . S
C380 C381 1.373 . S
C380 H393 0.929 . S
C381 C380 1.373 . S
C381 C382 1.396 . S
C381 C388 1.403 . S
C382 C372 1.476 . S
C382 N377 1.318 . S
C382 C381 1.396 . S
H383 C378 0.929 . S
O384 Mn360 2.385 . S
O384 C362 1.234 . S
O385 Mn360 2.209 . S
O385 Mn361 2.215 . S
O385 C362 1.283 . S
O386 Mn360 2.094 . S
O386 C364 1.240 . S
O387 Mn361 2.117 . S
O387 C364 1.264 . S
C388 C381 1.403 . S
C388 C389 1.399 . S
C388 H394 0.929 . S
C389 C369 1.449 . S
C389 C388 1.399 . S
C389 H395 0.930 . S
H390 C370 0.931 . S
H391 C371 0.930 . S
H392 C379 0.931 . S
H393 C380 0.929 . S
H394 C388 0.929 . S
H395 C389 0.930 . S
Mn396 O401 2.095 . S
Mn396 O411 2.162 . S
Mn396 O412 2.297 . S
Mn396 O420 2.385 . S
Mn396 O421 2.209 . S
Mn396 O422 2.094 . S
Mn397 O402 2.121 . S
Mn397 N404 2.257 . S
Mn397 N413 2.282 . S
Mn397 O421 2.215 . S
Mn397 O423 2.117 . S
C398 O420 1.234 . S
C398 O421 1.283 . S
C399 O411 1.281 . S
C399 O412 1.236 . S
C400 O422 1.240 . S
C400 O423 1.264 . S
O401 Mn396 2.095 . S
O401 C410 1.250 . S
O402 Mn397 2.121 . S
O402 C410 1.258 . S
C403 N404 1.326 . S
C403 C407 1.460 . S
C403 H409 0.929 . S
N404 Mn397 2.257 . S
N404 C403 1.326 . S
N404 C408 1.362 . S
C405 C406 1.258 . S
C405 C408 1.431 . S
C405 C425 1.449 . S
C406 C405 1.258 . S
C406 C407 1.477 . S
C406 H426 0.931 . S
C407 C403 1.460 . S
C407 C406 1.477 . S
C407 H427 0.930 . S
C408 N404 1.362 . S
C408 C405 1.431 . S
C408 C418 1.476 . S
H409 C403 0.929 . S
C410 O401 1.250 . S
C410 O402 1.258 . S
O411 Mn396 2.162 . S
O411 C399 1.281 . S
O412 Mn396 2.297 . S
O412 C399 1.236 . S
N413 Mn397 2.282 . S
N413 C414 1.328 . S
N413 C418 1.318 . S
C414 N413 1.328 . S
C414 C415 1.457 . S
C414 H419 0.929 . S
C415 C414 1.457 . S
C415 C416 1.291 . S
C415 H428 0.931 . S
C416 C415 1.291 . S
C416 C417 1.373 . S
C416 H429 0.929 . S
C417 C416 1.373 . S
C417 C418 1.396 . S
C417 C424 1.403 . S
C418 C408 1.476 . S
C418 N413 1.318 . S
C418 C417 1.396 . S
H419 C414 0.929 . S
O420 Mn396 2.385 . S
O420 C398 1.234 . S
O421 Mn396 2.209 . S
O421 Mn397 2.215 . S
O421 C398 1.283 . S
O422 Mn396 2.094 . S
O422 C400 1.240 . S
O423 Mn397 2.117 . S
O423 C400 1.264 . S
C424 C417 1.403 . S
C424 C425 1.399 . S
C424 H430 0.929 . S
C425 C405 1.449 . S
C425 C424 1.399 . S
C425 H431 0.930 . S
H426 C406 0.931 . S
H427 C407 0.930 . S
H428 C415 0.931 . S
H429 C416 0.929 . S
H430 C424 0.929 . S
H431 C425 0.930 . S
Mn432 O437 2.095 . S
Mn432 O447 2.162 . S
Mn432 O448 2.297 . S
Mn432 O456 2.385 . S
Mn432 O457 2.209 . S
Mn432 O458 2.094 . S
Mn433 O438 2.121 . S
Mn433 N440 2.257 . S
Mn433 N449 2.282 . S
Mn433 O457 2.215 . S
Mn433 O459 2.117 . S
C434 O456 1.234 . S
C434 O457 1.283 . S
C435 O447 1.281 . S
C435 O448 1.236 . S
C436 O458 1.240 . S
C436 O459 1.264 . S
O437 Mn432 2.095 . S
O437 C446 1.250 . S
O438 Mn433 2.121 . S
O438 C446 1.258 . S
C439 N440 1.326 . S
C439 C443 1.460 . S
C439 H445 0.929 . S
N440 Mn433 2.257 . S
N440 C439 1.326 . S
N440 C444 1.362 . S
C441 C442 1.258 . S
C441 C444 1.431 . S
C441 C461 1.449 . S
C442 C441 1.258 . S
C442 C443 1.477 . S
C442 H462 0.931 . S
C443 C439 1.460 . S
C443 C442 1.477 . S
C443 H463 0.930 . S
C444 N440 1.362 . S
C444 C441 1.431 . S
C444 C454 1.476 . S
H445 C439 0.929 . S
C446 O437 1.250 . S
C446 O438 1.258 . S
O447 Mn432 2.162 . S
O447 C435 1.281 . S
O448 Mn432 2.297 . S
O448 C435 1.236 . S
N449 Mn433 2.282 . S
N449 C450 1.328 . S
N449 C454 1.318 . S
C450 N449 1.328 . S
C450 C451 1.457 . S
C450 H455 0.929 . S
C451 C450 1.457 . S
C451 C452 1.291 . S
C451 H464 0.931 . S
C452 C451 1.291 . S
C452 C453 1.373 . S
C452 H465 0.929 . S
C453 C452 1.373 . S
C453 C454 1.396 . S
C453 C460 1.403 . S
C454 C444 1.476 . S
C454 N449 1.318 . S
C454 C453 1.396 . S
H455 C450 0.929 . S
O456 Mn432 2.385 . S
O456 C434 1.234 . S
O457 Mn432 2.209 . S
O457 Mn433 2.215 . S
O457 C434 1.283 . S
O458 Mn432 2.094 . S
O458 C436 1.240 . S
O459 Mn433 2.117 . S
O459 C436 1.264 . S
C460 C453 1.403 . S
C460 C461 1.399 . S
C460 H466 0.929 . S
C461 C441 1.449 . S
C461 C460 1.399 . S
C461 H467 0.930 . S
H462 C442 0.931 . S
H463 C443 0.930 . S
H464 C451 0.931 . S
H465 C452 0.929 . S
H466 C460 0.929 . S
H467 C461 0.930 . S
Mn468 O473 2.095 . S
Mn468 O483 2.162 . S
Mn468 O484 2.297 . S
Mn468 O492 2.385 . S
Mn468 O493 2.209 . S
Mn468 O494 2.094 . S
Mn469 O474 2.121 . S
Mn469 N476 2.257 . S
Mn469 N485 2.282 . S
Mn469 O493 2.215 . S
Mn469 O495 2.117 . S
C470 O492 1.234 . S
C470 O493 1.283 . S
C471 O483 1.281 . S
C471 O484 1.236 . S
C472 O494 1.240 . S
C472 O495 1.264 . S
O473 Mn468 2.095 . S
O473 C482 1.250 . S
O474 Mn469 2.121 . S
O474 C482 1.258 . S
C475 N476 1.326 . S
C475 C479 1.460 . S
C475 H481 0.929 . S
N476 Mn469 2.257 . S
N476 C475 1.326 . S
N476 C480 1.362 . S
C477 C478 1.258 . S
C477 C480 1.431 . S
C477 C497 1.449 . S
C478 C477 1.258 . S
C478 C479 1.477 . S
C478 H498 0.931 . S
C479 C475 1.460 . S
C479 C478 1.477 . S
C479 H499 0.930 . S
C480 N476 1.362 . S
C480 C477 1.431 . S
C480 C490 1.476 . S
H481 C475 0.929 . S
C482 O473 1.250 . S
C482 O474 1.258 . S
O483 Mn468 2.162 . S
O483 C471 1.281 . S
O484 Mn468 2.297 . S
O484 C471 1.236 . S
N485 Mn469 2.282 . S
N485 C486 1.328 . S
N485 C490 1.318 . S
C486 N485 1.328 . S
C486 C487 1.457 . S
C486 H491 0.929 . S
C487 C486 1.457 . S
C487 C488 1.291 . S
C487 H500 0.931 . S
C488 C487 1.291 . S
C488 C489 1.373 . S
C488 H501 0.929 . S
C489 C488 1.373 . S
C489 C490 1.396 . S
C489 C496 1.403 . S
C490 C480 1.476 . S
C490 N485 1.318 . S
C490 C489 1.396 . S
H491 C486 0.929 . S
O492 Mn468 2.385 . S
O492 C470 1.234 . S
O493 Mn468 2.209 . S
O493 Mn469 2.215 . S
O493 C470 1.283 . S
O494 Mn468 2.094 . S
O494 C472 1.240 . S
O495 Mn469 2.117 . S
O495 C472 1.264 . S
C496 C489 1.403 . S
C496 C497 1.399 . S
C496 H502 0.929 . S
C497 C477 1.449 . S
C497 C496 1.399 . S
C497 H503 0.930 . S
H498 C478 0.931 . S
H499 C479 0.930 . S
H500 C487 0.931 . S
H501 C488 0.929 . S
H502 C496 0.929 . S
H503 C497 0.930 . S
Mn504 O509 2.095 . S
Mn504 O519 2.162 . S
Mn504 O520 2.297 . S
Mn504 O528 2.385 . S
Mn504 O529 2.209 . S
Mn504 O530 2.094 . S
Mn505 O510 2.121 . S
Mn505 N512 2.257 . S
Mn505 N521 2.282 . S
Mn505 O529 2.215 . S
Mn505 O531 2.117 . S
C506 O528 1.234 . S
C506 O529 1.283 . S
C507 O519 1.281 . S
C507 O520 1.236 . S
C508 O530 1.240 . S
C508 O531 1.264 . S
O509 Mn504 2.095 . S
O509 C518 1.250 . S
O510 Mn505 2.121 . S
O510 C518 1.258 . S
C511 N512 1.326 . S
C511 C515 1.460 . S
C511 H517 0.929 . S
N512 Mn505 2.257 . S
N512 C511 1.326 . S
N512 C516 1.362 . S
C513 C514 1.258 . S
C513 C516 1.431 . S
C513 C533 1.449 . S
C514 C513 1.258 . S
C514 C515 1.477 . S
C514 H534 0.931 . S
C515 C511 1.460 . S
C515 C514 1.477 . S
C515 H535 0.930 . S
C516 N512 1.362 . S
C516 C513 1.431 . S
C516 C526 1.476 . S
H517 C511 0.929 . S
C518 O509 1.250 . S
C518 O510 1.258 . S
O519 Mn504 2.162 . S
O519 C507 1.281 . S
O520 Mn504 2.297 . S
O520 C507 1.236 . S
N521 Mn505 2.282 . S
N521 C522 1.328 . S
N521 C526 1.318 . S
C522 N521 1.328 . S
C522 C523 1.457 . S
C522 H527 0.929 . S
C523 C522 1.457 . S
C523 C524 1.291 . S
C523 H536 0.931 . S
C524 C523 1.291 . S
C524 C525 1.373 . S
C524 H537 0.929 . S
C525 C524 1.373 . S
C525 C526 1.396 . S
C525 C532 1.403 . S
C526 C516 1.476 . S
C526 N521 1.318 . S
C526 C525 1.396 . S
H527 C522 0.929 . S
O528 Mn504 2.385 . S
O528 C506 1.234 . S
O529 Mn504 2.209 . S
O529 Mn505 2.215 . S
O529 C506 1.283 . S
O530 Mn504 2.094 . S
O530 C508 1.240 . S
O531 Mn505 2.117 . S
O531 C508 1.264 . S
C532 C525 1.403 . S
C532 C533 1.399 . S
C532 H538 0.929 . S
C533 C513 1.449 . S
C533 C532 1.399 . S
C533 H539 0.930 . S
H534 C514 0.931 . S
H535 C515 0.930 . S
H536 C523 0.931 . S
H537 C524 0.929 . S
H538 C532 0.929 . S
H539 C533 0.930 . S
Mn540 O545 2.095 . S
Mn540 O555 2.162 . S
Mn540 O556 2.297 . S
Mn540 O564 2.385 . S
Mn540 O565 2.209 . S
Mn540 O566 2.094 . S
Mn541 O546 2.121 . S
Mn541 N548 2.257 . S
Mn541 N557 2.282 . S
Mn541 O565 2.215 . S
Mn541 O567 2.117 . S
C542 O564 1.234 . S
C542 O565 1.283 . S
C543 O555 1.281 . S
C543 O556 1.236 . S
C544 O566 1.240 . S
C544 O567 1.264 . S
O545 Mn540 2.095 . S
O545 C554 1.250 . S
O546 Mn541 2.121 . S
O546 C554 1.258 . S
C547 N548 1.326 . S
C547 C551 1.460 . S
C547 H553 0.929 . S
N548 Mn541 2.257 . S
N548 C547 1.326 . S
N548 C552 1.362 . S
C549 C550 1.258 . S
C549 C552 1.431 . S
C549 C569 1.449 . S
C550 C549 1.258 . S
C550 C551 1.477 . S
C550 H570 0.931 . S
C551 C547 1.460 . S
C551 C550 1.477 . S
C551 H571 0.930 . S
C552 N548 1.362 . S
C552 C549 1.431 . S
C552 C562 1.476 . S
H553 C547 0.929 . S
C554 O545 1.250 . S
C554 O546 1.258 . S
O555 Mn540 2.162 . S
O555 C543 1.281 . S
O556 Mn540 2.297 . S
O556 C543 1.236 . S
N557 Mn541 2.282 . S
N557 C558 1.328 . S
N557 C562 1.318 . S
C558 N557 1.328 . S
C558 C559 1.457 . S
C558 H563 0.929 . S
C559 C558 1.457 . S
C559 C560 1.291 . S
C559 H572 0.931 . S
C560 C559 1.291 . S
C560 C561 1.373 . S
C560 H573 0.929 . S
C561 C560 1.373 . S
C561 C562 1.396 . S
C561 C568 1.403 . S
C562 C552 1.476 . S
C562 N557 1.318 . S
C562 C561 1.396 . S
H563 C558 0.929 . S
O564 Mn540 2.385 . S
O564 C542 1.234 . S
O565 Mn540 2.209 . S
O565 Mn541 2.215 . S
O565 C542 1.283 . S
O566 Mn540 2.094 . S
O566 C544 1.240 . S
O567 Mn541 2.117 . S
O567 C544 1.264 . S
C568 C561 1.403 . S
C568 C569 1.399 . S
C568 H574 0.929 . S
C569 C549 1.449 . S
C569 C568 1.399 . S
C569 H575 0.930 . S
H570 C550 0.931 . S
H571 C551 0.930 . S
H572 C559 0.931 . S
H573 C560 0.929 . S
H574 C568 0.929 . S
H575 C569 0.930 . S
Mn576 O581 2.095 . S
Mn576 O591 2.162 . S
Mn576 O592 2.297 . S
Mn576 O600 2.385 . S
Mn576 O601 2.209 . S
Mn576 O602 2.094 . S
Mn577 O582 2.121 . S
Mn577 N584 2.257 . S
Mn577 N593 2.282 . S
Mn577 O601 2.215 . S
Mn577 O603 2.117 . S
C578 O600 1.234 . S
C578 O601 1.283 . S
C579 O591 1.281 . S
C579 O592 1.236 . S
C580 O602 1.240 . S
C580 O603 1.264 . S
O581 Mn576 2.095 . S
O581 C590 1.250 . S
O582 Mn577 2.121 . S
O582 C590 1.258 . S
C583 N584 1.326 . S
C583 C587 1.460 . S
C583 H589 0.929 . S
N584 Mn577 2.257 . S
N584 C583 1.326 . S
N584 C588 1.362 . S
C585 C586 1.258 . S
C585 C588 1.431 . S
C585 C605 1.449 . S
C586 C585 1.258 . S
C586 C587 1.477 . S
C586 H606 0.931 . S
C587 C583 1.460 . S
C587 C586 1.477 . S
C587 H607 0.930 . S
C588 N584 1.362 . S
C588 C585 1.431 . S
C588 C598 1.476 . S
H589 C583 0.929 . S
C590 O581 1.250 . S
C590 O582 1.258 . S
O591 Mn576 2.162 . S
O591 C579 1.281 . S
O592 Mn576 2.297 . S
O592 C579 1.236 . S
N593 Mn577 2.282 . S
N593 C594 1.328 . S
N593 C598 1.318 . S
C594 N593 1.328 . S
C594 C595 1.457 . S
C594 H599 0.929 . S
C595 C594 1.457 . S
C595 C596 1.291 . S
C595 H608 0.931 . S
C596 C595 1.291 . S
C596 C597 1.373 . S
C596 H609 0.929 . S
C597 C596 1.373 . S
C597 C598 1.396 . S
C597 C604 1.403 . S
C598 C588 1.476 . S
C598 N593 1.318 . S
C598 C597 1.396 . S
H599 C594 0.929 . S
O600 Mn576 2.385 . S
O600 C578 1.234 . S
O601 Mn576 2.209 . S
O601 Mn577 2.215 . S
O601 C578 1.283 . S
O602 Mn576 2.094 . S
O602 C580 1.240 . S
O603 Mn577 2.117 . S
O603 C580 1.264 . S
C604 C597 1.403 . S
C604 C605 1.399 . S
C604 H610 0.929 . S
C605 C585 1.449 . S
C605 C604 1.399 . S
C605 H611 0.930 . S
H606 C586 0.931 . S
H607 C587 0.930 . S
H608 C595 0.931 . S
H609 C596 0.929 . S
H610 C604 0.929 . S
H611 C605 0.930 . S
Mn612 O617 2.095 . S
Mn612 O627 2.162 . S
Mn612 O628 2.297 . S
Mn612 O636 2.385 . S
Mn612 O637 2.209 . S
Mn612 O638 2.094 . S
Mn613 O618 2.121 . S
Mn613 N620 2.257 . S
Mn613 N629 2.282 . S
Mn613 O637 2.215 . S
Mn613 O639 2.117 . S
C614 O636 1.234 . S
C614 O637 1.283 . S
C615 O627 1.281 . S
C615 O628 1.236 . S
C616 O638 1.240 . S
C616 O639 1.264 . S
O617 Mn612 2.095 . S
O617 C626 1.250 . S
O618 Mn613 2.121 . S
O618 C626 1.258 . S
C619 N620 1.326 . S
C619 C623 1.460 . S
C619 H625 0.929 . S
N620 Mn613 2.257 . S
N620 C619 1.326 . S
N620 C624 1.362 . S
C621 C622 1.258 . S
C621 C624 1.431 . S
C621 C641 1.449 . S
C622 C621 1.258 . S
C622 C623 1.477 . S
C622 H642 0.931 . S
C623 C619 1.460 . S
C623 C622 1.477 . S
C623 H643 0.930 . S
C624 N620 1.362 . S
C624 C621 1.431 . S
C624 C634 1.476 . S
H625 C619 0.929 . S
C626 O617 1.250 . S
C626 O618 1.258 . S
O627 Mn612 2.162 . S
O627 C615 1.281 . S
O628 Mn612 2.297 . S
O628 C615 1.236 . S
N629 Mn613 2.282 . S
N629 C630 1.328 . S
N629 C634 1.318 . S
C630 N629 1.328 . S
C630 C631 1.457 . S
C630 H635 0.929 . S
C631 C630 1.457 . S
C631 C632 1.291 . S
C631 H644 0.931 . S
C632 C631 1.291 . S
C632 C633 1.373 . S
C632 H645 0.929 . S
C633 C632 1.373 . S
C633 C634 1.396 . S
C633 C640 1.403 . S
C634 C624 1.476 . S
C634 N629 1.318 . S
C634 C633 1.396 . S
H635 C630 0.929 . S
O636 Mn612 2.385 . S
O636 C614 1.234 . S
O637 Mn612 2.209 . S
O637 Mn613 2.215 . S
O637 C614 1.283 . S
O638 Mn612 2.094 . S
O638 C616 1.240 . S
O639 Mn613 2.117 . S
O639 C616 1.264 . S
C640 C633 1.403 . S
C640 C641 1.399 . S
C640 H646 0.929 . S
C641 C621 1.449 . S
C641 C640 1.399 . S
C641 H647 0.930 . S
H642 C622 0.931 . S
H643 C623 0.930 . S
H644 C631 0.931 . S
H645 C632 0.929 . S
H646 C640 0.929 . S
H647 C641 0.930 . S
Mn648 O653 2.095 . S
Mn648 O663 2.162 . S
Mn648 O664 2.297 . S
Mn648 O672 2.385 . S
Mn648 O673 2.209 . S
Mn648 O674 2.094 . S
Mn649 O654 2.121 . S
Mn649 N656 2.257 . S
Mn649 N665 2.282 . S
Mn649 O673 2.215 . S
Mn649 O675 2.117 . S
C650 O672 1.234 . S
C650 O673 1.283 . S
C651 O663 1.281 . S
C651 O664 1.236 . S
C652 O674 1.240 . S
C652 O675 1.264 . S
O653 Mn648 2.095 . S
O653 C662 1.250 . S
O654 Mn649 2.121 . S
O654 C662 1.258 . S
C655 N656 1.326 . S
C655 C659 1.460 . S
C655 H661 0.929 . S
N656 Mn649 2.257 . S
N656 C655 1.326 . S
N656 C660 1.362 . S
C657 C658 1.258 . S
C657 C660 1.431 . S
C657 C677 1.449 . S
C658 C657 1.258 . S
C658 C659 1.477 . S
C658 H678 0.931 . S
C659 C655 1.460 . S
C659 C658 1.477 . S
C659 H679 0.930 . S
C660 N656 1.362 . S
C660 C657 1.431 . S
C660 C670 1.476 . S
H661 C655 0.929 . S
C662 O653 1.250 . S
C662 O654 1.258 . S
O663 Mn648 2.162 . S
O663 C651 1.281 . S
O664 Mn648 2.297 . S
O664 C651 1.236 . S
N665 Mn649 2.282 . S
N665 C666 1.328 . S
N665 C670 1.318 . S
C666 N665 1.328 . S
C666 C667 1.457 . S
C666 H671 0.929 . S
C667 C666 1.457 . S
C667 C668 1.291 . S
C667 H680 0.931 . S
C668 C667 1.291 . S
C668 C669 1.373 . S
C668 H681 0.929 . S
C669 C668 1.373 . S
C669 C670 1.396 . S
C669 C676 1.403 . S
C670 C660 1.476 . S
C670 N665 1.318 . S
C670 C669 1.396 . S
H671 C666 0.929 . S
O672 Mn648 2.385 . S
O672 C650 1.234 . S
O673 Mn648 2.209 . S
O673 Mn649 2.215 . S
O673 C650 1.283 . S
O674 Mn648 2.094 . S
O674 C652 1.240 . S
O675 Mn649 2.117 . S
O675 C652 1.264 . S
C676 C669 1.403 . S
C676 C677 1.399 . S
C676 H682 0.929 . S
C677 C657 1.449 . S
C677 C676 1.399 . S
C677 H683 0.930 . S
H678 C658 0.931 . S
H679 C659 0.930 . S
H680 C667 0.931 . S
H681 C668 0.929 . S
H682 C676 0.929 . S
H683 C677 0.930 . S
Mn684 O689 2.095 . S
Mn684 O699 2.162 . S
Mn684 O700 2.297 . S
Mn684 O708 2.385 . S
Mn684 O709 2.209 . S
Mn684 O710 2.094 . S
Mn685 O690 2.121 . S
Mn685 N692 2.257 . S
Mn685 N701 2.282 . S
Mn685 O709 2.215 . S
Mn685 O711 2.117 . S
C686 O708 1.234 . S
C686 O709 1.283 . S
C687 O699 1.281 . S
C687 O700 1.236 . S
C688 O710 1.240 . S
C688 O711 1.264 . S
O689 Mn684 2.095 . S
O689 C698 1.250 . S
O690 Mn685 2.121 . S
O690 C698 1.258 . S
C691 N692 1.326 . S
C691 C695 1.460 . S
C691 H697 0.929 . S
N692 Mn685 2.257 . S
N692 C691 1.326 . S
N692 C696 1.362 . S
C693 C694 1.258 . S
C693 C696 1.431 . S
C693 C713 1.449 . S
C694 C693 1.258 . S
C694 C695 1.477 . S
C694 H714 0.931 . S
C695 C691 1.460 . S
C695 C694 1.477 . S
C695 H715 0.930 . S
C696 N692 1.362 . S
C696 C693 1.431 . S
C696 C706 1.476 . S
H697 C691 0.929 . S
C698 O689 1.250 . S
C698 O690 1.258 . S
O699 Mn684 2.162 . S
O699 C687 1.281 . S
O700 Mn684 2.297 . S
O700 C687 1.236 . S
N701 Mn685 2.282 . S
N701 C702 1.328 . S
N701 C706 1.318 . S
C702 N701 1.328 . S
C702 C703 1.457 . S
C702 H707 0.929 . S
C703 C702 1.457 . S
C703 C704 1.291 . S
C703 H716 0.931 . S
C704 C703 1.291 . S
C704 C705 1.373 . S
C704 H717 0.929 . S
C705 C704 1.373 . S
C705 C706 1.396 . S
C705 C712 1.403 . S
C706 C696 1.476 . S
C706 N701 1.318 . S
C706 C705 1.396 . S
H707 C702 0.929 . S
O708 Mn684 2.385 . S
O708 C686 1.234 . S
O709 Mn684 2.209 . S
O709 Mn685 2.215 . S
O709 C686 1.283 . S
O710 Mn684 2.094 . S
O710 C688 1.240 . S
O711 Mn685 2.117 . S
O711 C688 1.264 . S
C712 C705 1.403 . S
C712 C713 1.399 . S
C712 H718 0.929 . S
C713 C693 1.449 . S
C713 C712 1.399 . S
C713 H719 0.930 . S
H714 C694 0.931 . S
H715 C695 0.930 . S
H716 C703 0.931 . S
H717 C704 0.929 . S
H718 C712 0.929 . S
H719 C713 0.930 . S
Mn720 O725 2.095 . S
Mn720 O735 2.162 . S
Mn720 O736 2.297 . S
Mn720 O744 2.385 . S
Mn720 O745 2.209 . S
Mn720 O746 2.094 . S
Mn721 O726 2.121 . S
Mn721 N728 2.257 . S
Mn721 N737 2.282 . S
Mn721 O745 2.215 . S
Mn721 O747 2.117 . S
C722 O744 1.234 . S
C722 O745 1.283 . S
C723 O735 1.281 . S
C723 O736 1.236 . S
C724 O746 1.240 . S
C724 O747 1.264 . S
O725 Mn720 2.095 . S
O725 C734 1.250 . S
O726 Mn721 2.121 . S
O726 C734 1.258 . S
C727 N728 1.326 . S
C727 C731 1.460 . S
C727 H733 0.929 . S
N728 Mn721 2.257 . S
N728 C727 1.326 . S
N728 C732 1.362 . S
C729 C730 1.258 . S
C729 C732 1.431 . S
C729 C749 1.449 . S
C730 C729 1.258 . S
C730 C731 1.477 . S
C730 H750 0.931 . S
C731 C727 1.460 . S
C731 C730 1.477 . S
C731 H751 0.930 . S
C732 N728 1.362 . S
C732 C729 1.431 . S
C732 C742 1.476 . S
H733 C727 0.929 . S
C734 O725 1.250 . S
C734 O726 1.258 . S
O735 Mn720 2.162 . S
O735 C723 1.281 . S
O736 Mn720 2.297 . S
O736 C723 1.236 . S
N737 Mn721 2.282 . S
N737 C738 1.328 . S
N737 C742 1.318 . S
C738 N737 1.328 . S
C738 C739 1.457 . S
C738 H743 0.929 . S
C739 C738 1.457 . S
C739 C740 1.291 . S
C739 H752 0.931 . S
C740 C739 1.291 . S
C740 C741 1.373 . S
C740 H753 0.929 . S
C741 C740 1.373 . S
C741 C742 1.396 . S
C741 C748 1.403 . S
C742 C732 1.476 . S
C742 N737 1.318 . S
C742 C741 1.396 . S
H743 C738 0.929 . S
O744 Mn720 2.385 . S
O744 C722 1.234 . S
O745 Mn720 2.209 . S
O745 Mn721 2.215 . S
O745 C722 1.283 . S
O746 Mn720 2.094 . S
O746 C724 1.240 . S
O747 Mn721 2.117 . S
O747 C724 1.264 . S
C748 C741 1.403 . S
C748 C749 1.399 . S
C748 H754 0.929 . S
C749 C729 1.449 . S
C749 C748 1.399 . S
C749 H755 0.930 . S
H750 C730 0.931 . S
H751 C731 0.930 . S
H752 C739 0.931 . S
H753 C740 0.929 . S
H754 C748 0.929 . S
H755 C749 0.930 . S
Mn756 O761 2.095 . S
Mn756 O771 2.162 . S
Mn756 O772 2.297 . S
Mn756 O780 2.385 . S
Mn756 O781 2.209 . S
Mn756 O782 2.094 . S
Mn757 O762 2.121 . S
Mn757 N764 2.257 . S
Mn757 N773 2.282 . S
Mn757 O781 2.215 . S
Mn757 O783 2.117 . S
C758 O780 1.234 . S
C758 O781 1.283 . S
C759 O771 1.281 . S
C759 O772 1.236 . S
C760 O782 1.240 . S
C760 O783 1.264 . S
O761 Mn756 2.095 . S
O761 C770 1.250 . S
O762 Mn757 2.121 . S
O762 C770 1.258 . S
C763 N764 1.326 . S
C763 C767 1.460 . S
C763 H769 0.929 . S
N764 Mn757 2.257 . S
N764 C763 1.326 . S
N764 C768 1.362 . S
C765 C766 1.258 . S
C765 C768 1.431 . S
C765 C785 1.449 . S
C766 C765 1.258 . S
C766 C767 1.477 . S
C766 H786 0.931 . S
C767 C763 1.460 . S
C767 C766 1.477 . S
C767 H787 0.930 . S
C768 N764 1.362 . S
C768 C765 1.431 . S
C768 C778 1.476 . S
H769 C763 0.929 . S
C770 O761 1.250 . S
C770 O762 1.258 . S
O771 Mn756 2.162 . S
O771 C759 1.281 . S
O772 Mn756 2.297 . S
O772 C759 1.236 . S
N773 Mn757 2.282 . S
N773 C774 1.328 . S
N773 C778 1.318 . S
C774 N773 1.328 . S
C774 C775 1.457 . S
C774 H779 0.929 . S
C775 C774 1.457 . S
C775 C776 1.291 . S
C775 H788 0.931 . S
C776 C775 1.291 . S
C776 C777 1.373 . S
C776 H789 0.929 . S
C777 C776 1.373 . S
C777 C778 1.396 . S
C777 C784 1.403 . S
C778 C768 1.476 . S
C778 N773 1.318 . S
C778 C777 1.396 . S
H779 C774 0.929 . S
O780 Mn756 2.385 . S
O780 C758 1.234 . S
O781 Mn756 2.209 . S
O781 Mn757 2.215 . S
O781 C758 1.283 . S
O782 Mn756 2.094 . S
O782 C760 1.240 . S
O783 Mn757 2.117 . S
O783 C760 1.264 . S
C784 C777 1.403 . S
C784 C785 1.399 . S
C784 H790 0.929 . S
C785 C765 1.449 . S
C785 C784 1.399 . S
C785 H791 0.930 . S
H786 C766 0.931 . S
H787 C767 0.930 . S
H788 C775 0.931 . S
H789 C776 0.929 . S
H790 C784 0.929 . S
H791 C785 0.930 . S
Mn792 O797 2.095 . S
Mn792 O807 2.162 . S
Mn792 O808 2.297 . S
Mn792 O816 2.385 . S
Mn792 O817 2.209 . S
Mn792 O818 2.094 . S
Mn793 O798 2.121 . S
Mn793 N800 2.257 . S
Mn793 N809 2.282 . S
Mn793 O817 2.215 . S
Mn793 O819 2.117 . S
C794 O816 1.234 . S
C794 O817 1.283 . S
C795 O807 1.281 . S
C795 O808 1.236 . S
C796 O818 1.240 . S
C796 O819 1.264 . S
O797 Mn792 2.095 . S
O797 C806 1.250 . S
O798 Mn793 2.121 . S
O798 C806 1.258 . S
C799 N800 1.326 . S
C799 C803 1.460 . S
C799 H805 0.929 . S
N800 Mn793 2.257 . S
N800 C799 1.326 . S
N800 C804 1.362 . S
C801 C802 1.258 . S
C801 C804 1.431 . S
C801 C821 1.449 . S
C802 C801 1.258 . S
C802 C803 1.477 . S
C802 H822 0.931 . S
C803 C799 1.460 . S
C803 C802 1.477 . S
C803 H823 0.930 . S
C804 N800 1.362 . S
C804 C801 1.431 . S
C804 C814 1.476 . S
H805 C799 0.929 . S
C806 O797 1.250 . S
C806 O798 1.258 . S
O807 Mn792 2.162 . S
O807 C795 1.281 . S
O808 Mn792 2.297 . S
O808 C795 1.236 . S
N809 Mn793 2.282 . S
N809 C810 1.328 . S
N809 C814 1.318 . S
C810 N809 1.328 . S
C810 C811 1.457 . S
C810 H815 0.929 . S
C811 C810 1.457 . S
C811 C812 1.291 . S
C811 H824 0.931 . S
C812 C811 1.291 . S
C812 C813 1.373 . S
C812 H825 0.929 . S
C813 C812 1.373 . S
C813 C814 1.396 . S
C813 C820 1.403 . S
C814 C804 1.476 . S
C814 N809 1.318 . S
C814 C813 1.396 . S
H815 C810 0.929 . S
O816 Mn792 2.385 . S
O816 C794 1.234 . S
O817 Mn792 2.209 . S
O817 Mn793 2.215 . S
O817 C794 1.283 . S
O818 Mn792 2.094 . S
O818 C796 1.240 . S
O819 Mn793 2.117 . S
O819 C796 1.264 . S
C820 C813 1.403 . S
C820 C821 1.399 . S
C820 H826 0.929 . S
C821 C801 1.449 . S
C821 C820 1.399 . S
C821 H827 0.930 . S
H822 C802 0.931 . S
H823 C803 0.930 . S
H824 C811 0.931 . S
H825 C812 0.929 . S
H826 C820 0.929 . S
H827 C821 0.930 . S
Mn828 O833 2.095 . S
Mn828 O843 2.162 . S
Mn828 O844 2.297 . S
Mn828 O852 2.385 . S
Mn828 O853 2.209 . S
Mn828 O854 2.094 . S
Mn829 O834 2.121 . S
Mn829 N836 2.257 . S
Mn829 N845 2.282 . S
Mn829 O853 2.215 . S
Mn829 O855 2.117 . S
C830 O852 1.234 . S
C830 O853 1.283 . S
C831 O843 1.281 . S
C831 O844 1.236 . S
C832 O854 1.240 . S
C832 O855 1.264 . S
O833 Mn828 2.095 . S
O833 C842 1.250 . S
O834 Mn829 2.121 . S
O834 C842 1.258 . S
C835 N836 1.326 . S
C835 C839 1.460 . S
C835 H841 0.929 . S
N836 Mn829 2.257 . S
N836 C835 1.326 . S
N836 C840 1.362 . S
C837 C838 1.258 . S
C837 C840 1.431 . S
C837 C857 1.449 . S
C838 C837 1.258 . S
C838 C839 1.477 . S
C838 H858 0.931 . S
C839 C835 1.460 . S
C839 C838 1.477 . S
C839 H859 0.930 . S
C840 N836 1.362 . S
C840 C837 1.431 . S
C840 C850 1.476 . S
H841 C835 0.929 . S
C842 O833 1.250 . S
C842 O834 1.258 . S
O843 Mn828 2.162 . S
O843 C831 1.281 . S
O844 Mn828 2.297 . S
O844 C831 1.236 . S
N845 Mn829 2.282 . S
N845 C846 1.328 . S
N845 C850 1.318 . S
C846 N845 1.328 . S
C846 C847 1.457 . S
C846 H851 0.929 . S
C847 C846 1.457 . S
C847 C848 1.291 . S
C847 H860 0.931 . S
C848 C847 1.291 . S
C848 C849 1.373 . S
C848 H861 0.929 . S
C849 C848 1.373 . S
C849 C850 1.396 . S
C849 C856 1.403 . S
C850 C840 1.476 . S
C850 N845 1.318 . S
C850 C849 1.396 . S
H851 C846 0.929 . S
O852 Mn828 2.385 . S
O852 C830 1.234 . S
O853 Mn828 2.209 . S
O853 Mn829 2.215 . S
O853 C830 1.283 . S
O854 Mn828 2.094 . S
O854 C832 1.240 . S
O855 Mn829 2.117 . S
O855 C832 1.264 . S
C856 C849 1.403 . S
C856 C857 1.399 . S
C856 H862 0.929 . S
C857 C837 1.449 . S
C857 C856 1.399 . S
C857 H863 0.930 . S
H858 C838 0.931 . S
H859 C839 0.930 . S
H860 C847 0.931 . S
H861 C848 0.929 . S
H862 C856 0.929 . S
H863 C857 0.930 . S
C864 C865 1.349 . S
C864 C866 1.327 . S
C864 H889 0.950 . S
C865 C864 1.349 . S
C865 C881 1.349 . S
C866 C864 1.327 . S
C866 C885 1.429 . S
C866 H890 0.950 . S
C867 C884 1.574 . S
C867 C886 1.368 . S
C867 H891 0.949 . S
H868 C872 0.949 . S
C869 C870 1.349 . S
C869 C871 1.327 . S
C869 H892 0.950 . S
C870 C869 1.349 . S
C870 C882 1.349 . S
C871 C869 1.327 . S
C871 C887 1.429 . S
C871 H893 0.950 . S
C872 H868 0.949 . S
C872 C880 1.574 . S
C872 C888 1.368 . S
H873 C881 0.950 . S
H874 C879 0.950 . S
H875 C880 0.949 . S
H876 C882 0.950 . S
H877 C883 0.950 . S
H878 C884 0.949 . S
C879 H874 0.950 . S
C879 C881 1.327 . S
C879 C885 1.429 . S
C880 C872 1.574 . S
C880 H875 0.949 . S
C880 C886 1.368 . S
C881 C865 1.349 . S
C881 H873 0.950 . S
C881 C879 1.327 . S
C882 C870 1.349 . S
C882 H876 0.950 . S
C882 C883 1.327 . S
C883 H877 0.950 . S
C883 C882 1.327 . S
C883 C887 1.429 . S
C884 C867 1.574 . S
C884 H878 0.949 . S
C884 C888 1.368 . S
C885 C866 1.429 . S
C885 C879 1.429 . S
C885 C886 1.523 . S
C886 C867 1.368 . S
C886 C880 1.368 . S
C886 C885 1.523 . S
C887 C871 1.429 . S
C887 C883 1.429 . S
C887 C888 1.523 . S
C888 C872 1.368 . S
C888 C884 1.368 . S
C888 C887 1.523 . S
H889 C864 0.950 . S
H890 C866 0.950 . S
H891 C867 0.949 . S
H892 C869 0.950 . S
H893 C871 0.950 . S
C894 C895 1.349 . S
C894 C896 1.327 . S
C894 H919 0.950 . S
C895 C894 1.349 . S
C895 C911 1.349 . S
C896 C894 1.327 . S
C896 C915 1.429 . S
C896 H920 0.950 . S
C897 C914 1.574 . S
C897 C916 1.368 . S
C897 H921 0.949 . S
H898 C902 0.949 . S
C899 C900 1.349 . S
C899 C901 1.327 . S
C899 H922 0.950 . S
C900 C899 1.349 . S
C900 C912 1.349 . S
C901 C899 1.327 . S
C901 C917 1.429 . S
C901 H923 0.950 . S
C902 H898 0.949 . S
C902 C910 1.574 . S
C902 C918 1.368 . S
H903 C911 0.950 . S
H904 C909 0.950 . S
H905 C910 0.949 . S
H906 C912 0.950 . S
H907 C913 0.950 . S
H908 C914 0.949 . S
C909 H904 0.950 . S
C909 C911 1.327 . S
C909 C915 1.429 . S
C910 C902 1.574 . S
C910 H905 0.949 . S
C910 C916 1.368 . S
C911 C895 1.349 . S
C911 H903 0.950 . S
C911 C909 1.327 . S
C912 C900 1.349 . S
C912 H906 0.950 . S
C912 C913 1.327 . S
C913 H907 0.950 . S
C913 C912 1.327 . S
C913 C917 1.429 . S
C914 C897 1.574 . S
C914 H908 0.949 . S
C914 C918 1.368 . S
C915 C896 1.429 . S
C915 C909 1.429 . S
C915 C916 1.523 . S
C916 C897 1.368 . S
C916 C910 1.368 . S
C916 C915 1.523 . S
C917 C901 1.429 . S
C917 C913 1.429 . S
C917 C918 1.523 . S
C918 C902 1.368 . S
C918 C914 1.368 . S
C918 C917 1.523 . S
H919 C894 0.950 . S
H920 C896 0.950 . S
H921 C897 0.949 . S
H922 C899 0.950 . S
H923 C901 0.950 . S
C924 C925 1.349 . S
C924 C926 1.327 . S
C924 H949 0.950 . S
C925 C924 1.349 . S
C925 C941 1.349 . S
C926 C924 1.327 . S
C926 C945 1.429 . S
C926 H950 0.950 . S
C927 C944 1.574 . S
C927 C946 1.368 . S
C927 H951 0.949 . S
H928 C932 0.949 . S
C929 C930 1.349 . S
C929 C931 1.327 . S
C929 H952 0.950 . S
C930 C929 1.349 . S
C930 C942 1.349 . S
C931 C929 1.327 . S
C931 C947 1.429 . S
C931 H953 0.950 . S
C932 H928 0.949 . S
C932 C940 1.574 . S
C932 C948 1.368 . S
H933 C941 0.950 . S
H934 C939 0.950 . S
H935 C940 0.949 . S
H936 C942 0.950 . S
H937 C943 0.950 . S
H938 C944 0.949 . S
C939 H934 0.950 . S
C939 C941 1.327 . S
C939 C945 1.429 . S
C940 C932 1.574 . S
C940 H935 0.949 . S
C940 C946 1.368 . S
C941 C925 1.349 . S
C941 H933 0.950 . S
C941 C939 1.327 . S
C942 C930 1.349 . S
C942 H936 0.950 . S
C942 C943 1.327 . S
C943 H937 0.950 . S
C943 C942 1.327 . S
C943 C947 1.429 . S
C944 C927 1.574 . S
C944 H938 0.949 . S
C944 C948 1.368 . S
C945 C926 1.429 . S
C945 C939 1.429 . S
C945 C946 1.523 . S
C946 C927 1.368 . S
C946 C940 1.368 . S
C946 C945 1.523 . S
C947 C931 1.429 . S
C947 C943 1.429 . S
C947 C948 1.523 . S
C948 C932 1.368 . S
C948 C944 1.368 . S
C948 C947 1.523 . S
H949 C924 0.950 . S
H950 C926 0.950 . S
H951 C927 0.949 . S
H952 C929 0.950 . S
H953 C931 0.950 . S
C954 C955 1.349 . S
C954 C956 1.327 . S
C954 H979 0.950 . S
C955 C954 1.349 . S
C955 C971 1.349 . S
C956 C954 1.327 . S
C956 C975 1.429 . S
C956 H980 0.950 . S
C957 C974 1.574 . S
C957 C976 1.368 . S
C957 H981 0.949 . S
H958 C962 0.949 . S
C959 C960 1.349 . S
C959 C961 1.327 . S
C959 H982 0.950 . S
C960 C959 1.349 . S
C960 C972 1.349 . S
C961 C959 1.327 . S
C961 C977 1.429 . S
C961 H983 0.950 . S
C962 H958 0.949 . S
C962 C970 1.574 . S
C962 C978 1.368 . S
H963 C971 0.950 . S
H964 C969 0.950 . S
H965 C970 0.949 . S
H966 C972 0.950 . S
H967 C973 0.950 . S
H968 C974 0.949 . S
C969 H964 0.950 . S
C969 C971 1.327 . S
C969 C975 1.429 . S
C970 C962 1.574 . S
C970 H965 0.949 . S
C970 C976 1.368 . S
C971 C955 1.349 . S
C971 H963 0.950 . S
C971 C969 1.327 . S
C972 C960 1.349 . S
C972 H966 0.950 . S
C972 C973 1.327 . S
C973 H967 0.950 . S
C973 C972 1.327 . S
C973 C977 1.429 . S
C974 C957 1.574 . S
C974 H968 0.949 . S
C974 C978 1.368 . S
C975 C956 1.429 . S
C975 C969 1.429 . S
C975 C976 1.523 . S
C976 C957 1.368 . S
C976 C970 1.368 . S
C976 C975 1.523 . S
C977 C961 1.429 . S
C977 C973 1.429 . S
C977 C978 1.523 . S
C978 C962 1.368 . S
C978 C974 1.368 . S
C978 C977 1.523 . S
H979 C954 0.950 . S
H980 C956 0.950 . S
H981 C957 0.949 . S
H982 C959 0.950 . S
H983 C961 0.950 . S
C984 C985 1.349 . S
C984 C986 1.327 . S
C984 H1009 0.950 . S
C985 C984 1.349 . S
C985 C1001 1.349 . S
C986 C984 1.327 . S
C986 C1005 1.429 . S
C986 H1010 0.950 . S
C987 C1004 1.574 . S
C987 C1006 1.368 . S
C987 H1011 0.949 . S
H988 C992 0.949 . S
C989 C990 1.349 . S
C989 C991 1.327 . S
C989 H1012 0.950 . S
C990 C989 1.349 . S
C990 C1002 1.349 . S
C991 C989 1.327 . S
C991 C1007 1.429 . S
C991 H1013 0.950 . S
C992 H988 0.949 . S
C992 C1000 1.574 . S
C992 C1008 1.368 . S
H993 C1001 0.950 . S
H994 C999 0.950 . S
H995 C1000 0.949 . S
H996 C1002 0.950 . S
H997 C1003 0.950 . S
H998 C1004 0.949 . S
C999 H994 0.950 . S
C999 C1001 1.327 . S
C999 C1005 1.429 . S
C1000 C992 1.574 . S
C1000 H995 0.949 . S
C1000 C1006 1.368 . S
C1001 C985 1.349 . S
C1001 H993 0.950 . S
C1001 C999 1.327 . S
C1002 C990 1.349 . S
C1002 H996 0.950 . S
C1002 C1003 1.327 . S
C1003 H997 0.950 . S
C1003 C1002 1.327 . S
C1003 C1007 1.429 . S
C1004 C987 1.574 . S
C1004 H998 0.949 . S
C1004 C1008 1.368 . S
C1005 C986 1.429 . S
C1005 C999 1.429 . S
C1005 C1006 1.523 . S
C1006 C987 1.368 . S
C1006 C1000 1.368 . S
C1006 C1005 1.523 . S
C1007 C991 1.429 . S
C1007 C1003 1.429 . S
C1007 C1008 1.523 . S
C1008 C992 1.368 . S
C1008 C1004 1.368 . S
C1008 C1007 1.523 . S
H1009 C984 0.950 . S
H1010 C986 0.950 . S
H1011 C987 0.949 . S
H1012 C989 0.950 . S
H1013 C991 0.950 . S
C1014 C1015 1.349 . S
C1014 C1016 1.327 . S
C1014 H1039 0.950 . S
C1015 C1014 1.349 . S
C1015 C1031 1.349 . S
C1016 C1014 1.327 . S
C1016 C1035 1.429 . S
C1016 H1040 0.950 . S
C1017 C1034 1.574 . S
C1017 C1036 1.368 . S
C1017 H1041 0.949 . S
H1018 C1022 0.949 . S
C1019 C1020 1.349 . S
C1019 C1021 1.327 . S
C1019 H1042 0.950 . S
C1020 C1019 1.349 . S
C1020 C1032 1.349 . S
C1021 C1019 1.327 . S
C1021 C1037 1.429 . S
C1021 H1043 0.950 . S
C1022 H1018 0.949 . S
C1022 C1030 1.574 . S
C1022 C1038 1.368 . S
H1023 C1031 0.950 . S
H1024 C1029 0.950 . S
H1025 C1030 0.949 . S
H1026 C1032 0.950 . S
H1027 C1033 0.950 . S
H1028 C1034 0.949 . S
C1029 H1024 0.950 . S
C1029 C1031 1.327 . S
C1029 C1035 1.429 . S
C1030 C1022 1.574 . S
C1030 H1025 0.949 . S
C1030 C1036 1.368 . S
C1031 C1015 1.349 . S
C1031 H1023 0.950 . S
C1031 C1029 1.327 . S
C1032 C1020 1.349 . S
C1032 H1026 0.950 . S
C1032 C1033 1.327 . S
C1033 H1027 0.950 . S
C1033 C1032 1.327 . S
C1033 C1037 1.429 . S
C1034 C1017 1.574 . S
C1034 H1028 0.949 . S
C1034 C1038 1.368 . S
C1035 C1016 1.429 . S
C1035 C1029 1.429 . S
C1035 C1036 1.523 . S
C1036 C1017 1.368 . S
C1036 C1030 1.368 . S
C1036 C1035 1.523 . S
C1037 C1021 1.429 . S
C1037 C1033 1.429 . S
C1037 C1038 1.523 . S
C1038 C1022 1.368 . S
C1038 C1034 1.368 . S
C1038 C1037 1.523 . S
H1039 C1014 0.950 . S
H1040 C1016 0.950 . S
H1041 C1017 0.949 . S
H1042 C1019 0.950 . S
H1043 C1021 0.950 . S
C1044 C1045 1.349 . S
C1044 C1046 1.327 . S
C1044 H1069 0.950 . S
C1045 C1044 1.349 . S
C1045 C1061 1.349 . S
C1046 C1044 1.327 . S
C1046 C1065 1.429 . S
C1046 H1070 0.950 . S
C1047 C1064 1.574 . S
C1047 C1066 1.368 . S
C1047 H1071 0.949 . S
H1048 C1052 0.949 . S
C1049 C1050 1.349 . S
C1049 C1051 1.327 . S
C1049 H1072 0.950 . S
C1050 C1049 1.349 . S
C1050 C1062 1.349 . S
C1051 C1049 1.327 . S
C1051 C1067 1.429 . S
C1051 H1073 0.950 . S
C1052 H1048 0.949 . S
C1052 C1060 1.574 . S
C1052 C1068 1.368 . S
H1053 C1061 0.950 . S
H1054 C1059 0.950 . S
H1055 C1060 0.949 . S
H1056 C1062 0.950 . S
H1057 C1063 0.950 . S
H1058 C1064 0.949 . S
C1059 H1054 0.950 . S
C1059 C1061 1.327 . S
C1059 C1065 1.429 . S
C1060 C1052 1.574 . S
C1060 H1055 0.949 . S
C1060 C1066 1.368 . S
C1061 C1045 1.349 . S
C1061 H1053 0.950 . S
C1061 C1059 1.327 . S
C1062 C1050 1.349 . S
C1062 H1056 0.950 . S
C1062 C1063 1.327 . S
C1063 H1057 0.950 . S
C1063 C1062 1.327 . S
C1063 C1067 1.429 . S
C1064 C1047 1.574 . S
C1064 H1058 0.949 . S
C1064 C1068 1.368 . S
C1065 C1046 1.429 . S
C1065 C1059 1.429 . S
C1065 C1066 1.523 . S
C1066 C1047 1.368 . S
C1066 C1060 1.368 . S
C1066 C1065 1.523 . S
C1067 C1051 1.429 . S
C1067 C1063 1.429 . S
C1067 C1068 1.523 . S
C1068 C1052 1.368 . S
C1068 C1064 1.368 . S
C1068 C1067 1.523 . S
H1069 C1044 0.950 . S
H1070 C1046 0.950 . S
H1071 C1047 0.949 . S
H1072 C1049 0.950 . S
H1073 C1051 0.950 . S
C1074 C1075 1.349 . S
C1074 C1076 1.327 . S
C1074 H1099 0.950 . S
C1075 C1074 1.349 . S
C1075 C1091 1.349 . S
C1076 C1074 1.327 . S
C1076 C1095 1.429 . S
C1076 H1100 0.950 . S
C1077 C1094 1.574 . S
C1077 C1096 1.368 . S
C1077 H1101 0.949 . S
H1078 C1082 0.949 . S
C1079 C1080 1.349 . S
C1079 C1081 1.327 . S
C1079 H1102 0.950 . S
C1080 C1079 1.349 . S
C1080 C1092 1.349 . S
C1081 C1079 1.327 . S
C1081 C1097 1.429 . S
C1081 H1103 0.950 . S
C1082 H1078 0.949 . S
C1082 C1090 1.574 . S
C1082 C1098 1.368 . S
H1083 C1091 0.950 . S
H1084 C1089 0.950 . S
H1085 C1090 0.949 . S
H1086 C1092 0.950 . S
H1087 C1093 0.950 . S
H1088 C1094 0.949 . S
C1089 H1084 0.950 . S
C1089 C1091 1.327 . S
C1089 C1095 1.429 . S
C1090 C1082 1.574 . S
C1090 H1085 0.949 . S
C1090 C1096 1.368 . S
C1091 C1075 1.349 . S
C1091 H1083 0.950 . S
C1091 C1089 1.327 . S
C1092 C1080 1.349 . S
C1092 H1086 0.950 . S
C1092 C1093 1.327 . S
C1093 H1087 0.950 . S
C1093 C1092 1.327 . S
C1093 C1097 1.429 . S
C1094 C1077 1.574 . S
C1094 H1088 0.949 . S
C1094 C1098 1.368 . S
C1095 C1076 1.429 . S
C1095 C1089 1.429 . S
C1095 C1096 1.523 . S
C1096 C1077 1.368 . S
C1096 C1090 1.368 . S
C1096 C1095 1.523 . S
C1097 C1081 1.429 . S
C1097 C1093 1.429 . S
C1097 C1098 1.523 . S
C1098 C1082 1.368 . S
C1098 C1094 1.368 . S
C1098 C1097 1.523 . S
H1099 C1074 0.950 . S
H1100 C1076 0.950 . S
H1101 C1077 0.949 . S
H1102 C1079 0.950 . S
H1103 C1081 0.950 . S
C1104 C1105 1.349 . S
C1104 C1106 1.327 . S
C1104 H1129 0.950 . S
C1105 C1104 1.349 . S
C1105 C1121 1.349 . S
C1106 C1104 1.327 . S
C1106 C1125 1.429 . S
C1106 H1130 0.950 . S
C1107 C1124 1.574 . S
C1107 C1126 1.368 . S
C1107 H1131 0.949 . S
H1108 C1112 0.949 . S
C1109 C1110 1.349 . S
C1109 C1111 1.327 . S
C1109 H1132 0.950 . S
C1110 C1109 1.349 . S
C1110 C1122 1.349 . S
C1111 C1109 1.327 . S
C1111 C1127 1.429 . S
C1111 H1133 0.950 . S
C1112 H1108 0.949 . S
C1112 C1120 1.574 . S
C1112 C1128 1.368 . S
H1113 C1121 0.950 . S
H1114 C1119 0.950 . S
H1115 C1120 0.949 . S
H1116 C1122 0.950 . S
H1117 C1123 0.950 . S
H1118 C1124 0.949 . S
C1119 H1114 0.950 . S
C1119 C1121 1.327 . S
C1119 C1125 1.429 . S
C1120 C1112 1.574 . S
C1120 H1115 0.949 . S
C1120 C1126 1.368 . S
C1121 C1105 1.349 . S
C1121 H1113 0.950 . S
C1121 C1119 1.327 . S
C1122 C1110 1.349 . S
C1122 H1116 0.950 . S
C1122 C1123 1.327 . S
C1123 H1117 0.950 . S
C1123 C1122 1.327 . S
C1123 C1127 1.429 . S
C1124 C1107 1.574 . S
C1124 H1118 0.949 . S
C1124 C1128 1.368 . S
C1125 C1106 1.429 . S
C1125 C1119 1.429 . S
C1125 C1126 1.523 . S
C1126 C1107 1.368 . S
C1126 C1120 1.368 . S
C1126 C1125 1.523 . S
C1127 C1111 1.429 . S
C1127 C1123 1.429 . S
C1127 C1128 1.523 . S
C1128 C1112 1.368 . S
C1128 C1124 1.368 . S
C1128 C1127 1.523 . S
H1129 C1104 0.950 . S
H1130 C1106 0.950 . S
H1131 C1107 0.949 . S
H1132 C1109 0.950 . S
H1133 C1111 0.950 . S
C1134 C1135 1.349 . S
C1134 C1136 1.327 . S
C1134 H1159 0.950 . S
C1135 C1134 1.349 . S
C1135 C1151 1.349 . S
C1136 C1134 1.327 . S
C1136 C1155 1.429 . S
C1136 H1160 0.950 . S
C1137 C1154 1.574 . S
C1137 C1156 1.368 . S
C1137 H1161 0.949 . S
H1138 C1142 0.949 . S
C1139 C1140 1.349 . S
C1139 C1141 1.327 . S
C1139 H1162 0.950 . S
C1140 C1139 1.349 . S
C1140 C1152 1.349 . S
C1141 C1139 1.327 . S
C1141 C1157 1.429 . S
C1141 H1163 0.950 . S
C1142 H1138 0.949 . S
C1142 C1150 1.574 . S
C1142 C1158 1.368 . S
H1143 C1151 0.950 . S
H1144 C1149 0.950 . S
H1145 C1150 0.949 . S
H1146 C1152 0.950 . S
H1147 C1153 0.950 . S
H1148 C1154 0.949 . S
C1149 H1144 0.950 . S
C1149 C1151 1.327 . S
C1149 C1155 1.429 . S
C1150 C1142 1.574 . S
C1150 H1145 0.949 . S
C1150 C1156 1.368 . S
C1151 C1135 1.349 . S
C1151 H1143 0.950 . S
C1151 C1149 1.327 . S
C1152 C1140 1.349 . S
C1152 H1146 0.950 . S
C1152 C1153 1.327 . S
C1153 H1147 0.950 . S
C1153 C1152 1.327 . S
C1153 C1157 1.429 . S
C1154 C1137 1.574 . S
C1154 H1148 0.949 . S
C1154 C1158 1.368 . S
C1155 C1136 1.429 . S
C1155 C1149 1.429 . S
C1155 C1156 1.523 . S
C1156 C1137 1.368 . S
C1156 C1150 1.368 . S
C1156 C1155 1.523 . S
C1157 C1141 1.429 . S
C1157 C1153 1.429 . S
C1157 C1158 1.523 . S
C1158 C1142 1.368 . S
C1158 C1154 1.368 . S
C1158 C1157 1.523 . S
H1159 C1134 0.950 . S
H1160 C1136 0.950 . S
H1161 C1137 0.949 . S
H1162 C1139 0.950 . S
H1163 C1141 0.950 . S
C1164 C1165 1.349 . S
C1164 C1166 1.327 . S
C1164 H1189 0.950 . S
C1165 C1164 1.349 . S
C1165 C1181 1.349 . S
C1166 C1164 1.327 . S
C1166 C1185 1.429 . S
C1166 H1190 0.950 . S
C1167 C1184 1.574 . S
C1167 C1186 1.368 . S
C1167 H1191 0.949 . S
H1168 C1172 0.949 . S
C1169 C1170 1.349 . S
C1169 C1171 1.327 . S
C1169 H1192 0.950 . S
C1170 C1169 1.349 . S
C1170 C1182 1.349 . S
C1171 C1169 1.327 . S
C1171 C1187 1.429 . S
C1171 H1193 0.950 . S
C1172 H1168 0.949 . S
C1172 C1180 1.574 . S
C1172 C1188 1.368 . S
H1173 C1181 0.950 . S
H1174 C1179 0.950 . S
H1175 C1180 0.949 . S
H1176 C1182 0.950 . S
H1177 C1183 0.950 . S
H1178 C1184 0.949 . S
C1179 H1174 0.950 . S
C1179 C1181 1.327 . S
C1179 C1185 1.429 . S
C1180 C1172 1.574 . S
C1180 H1175 0.949 . S
C1180 C1186 1.368 . S
C1181 C1165 1.349 . S
C1181 H1173 0.950 . S
C1181 C1179 1.327 . S
C1182 C1170 1.349 . S
C1182 H1176 0.950 . S
C1182 C1183 1.327 . S
C1183 H1177 0.950 . S
C1183 C1182 1.327 . S
C1183 C1187 1.429 . S
C1184 C1167 1.574 . S
C1184 H1178 0.949 . S
C1184 C1188 1.368 . S
C1185 C1166 1.429 . S
C1185 C1179 1.429 . S
C1185 C1186 1.523 . S
C1186 C1167 1.368 . S
C1186 C1180 1.368 . S
C1186 C1185 1.523 . S
C1187 C1171 1.429 . S
C1187 C1183 1.429 . S
C1187 C1188 1.523 . S
C1188 C1172 1.368 . S
C1188 C1184 1.368 . S
C1188 C1187 1.523 . S
H1189 C1164 0.950 . S
H1190 C1166 0.950 . S
H1191 C1167 0.949 . S
H1192 C1169 0.950 . S
H1193 C1171 0.950 . S
C1194 C1195 1.349 . S
C1194 C1196 1.327 . S
C1194 H1219 0.950 . S
C1195 C1194 1.349 . S
C1195 C1211 1.349 . S
C1196 C1194 1.327 . S
C1196 C1215 1.429 . S
C1196 H1220 0.950 . S
C1197 C1214 1.574 . S
C1197 C1216 1.368 . S
C1197 H1221 0.949 . S
H1198 C1202 0.949 . S
C1199 C1200 1.349 . S
C1199 C1201 1.327 . S
C1199 H1222 0.950 . S
C1200 C1199 1.349 . S
C1200 C1212 1.349 . S
C1201 C1199 1.327 . S
C1201 C1217 1.429 . S
C1201 H1223 0.950 . S
C1202 H1198 0.949 . S
C1202 C1210 1.574 . S
C1202 C1218 1.368 . S
H1203 C1211 0.950 . S
H1204 C1209 0.950 . S
H1205 C1210 0.949 . S
H1206 C1212 0.950 . S
H1207 C1213 0.950 . S
H1208 C1214 0.949 . S
C1209 H1204 0.950 . S
C1209 C1211 1.327 . S
C1209 C1215 1.429 . S
C1210 C1202 1.574 . S
C1210 H1205 0.949 . S
C1210 C1216 1.368 . S
C1211 C1195 1.349 . S
C1211 H1203 0.950 . S
C1211 C1209 1.327 . S
C1212 C1200 1.349 . S
C1212 H1206 0.950 . S
C1212 C1213 1.327 . S
C1213 H1207 0.950 . S
C1213 C1212 1.327 . S
C1213 C1217 1.429 . S
C1214 C1197 1.574 . S
C1214 H1208 0.949 . S
C1214 C1218 1.368 . S
C1215 C1196 1.429 . S
C1215 C1209 1.429 . S
C1215 C1216 1.523 . S
C1216 C1197 1.368 . S
C1216 C1210 1.368 . S
C1216 C1215 1.523 . S
C1217 C1201 1.429 . S
C1217 C1213 1.429 . S
C1217 C1218 1.523 . S
C1218 C1202 1.368 . S
C1218 C1214 1.368 . S
C1218 C1217 1.523 . S
H1219 C1194 0.950 . S
H1220 C1196 0.950 . S
H1221 C1197 0.949 . S
H1222 C1199 0.950 . S
H1223 C1201 0.950 . S
C1224 C1225 1.349 . S
C1224 C1226 1.327 . S
C1224 H1249 0.950 . S
C1225 C1224 1.349 . S
C1225 C1241 1.349 . S
C1226 C1224 1.327 . S
C1226 C1245 1.429 . S
C1226 H1250 0.950 . S
C1227 C1244 1.574 . S
C1227 C1246 1.368 . S
C1227 H1251 0.949 . S
H1228 C1232 0.949 . S
C1229 C1230 1.349 . S
C1229 C1231 1.327 . S
C1229 H1252 0.950 . S
C1230 C1229 1.349 . S
C1230 C1242 1.349 . S
C1231 C1229 1.327 . S
C1231 C1247 1.429 . S
C1231 H1253 0.950 . S
C1232 H1228 0.949 . S
C1232 C1240 1.574 . S
C1232 C1248 1.368 . S
H1233 C1241 0.950 . S
H1234 C1239 0.950 . S
H1235 C1240 0.949 . S
H1236 C1242 0.950 . S
H1237 C1243 0.950 . S
H1238 C1244 0.949 . S
C1239 H1234 0.950 . S
C1239 C1241 1.327 . S
C1239 C1245 1.429 . S
C1240 C1232 1.574 . S
C1240 H1235 0.949 . S
C1240 C1246 1.368 . S
C1241 C1225 1.349 . S
C1241 H1233 0.950 . S
C1241 C1239 1.327 . S
C1242 C1230 1.349 . S
C1242 H1236 0.950 . S
C1242 C1243 1.327 . S
C1243 H1237 0.950 . S
C1243 C1242 1.327 . S
C1243 C1247 1.429 . S
C1244 C1227 1.574 . S
C1244 H1238 0.949 . S
C1244 C1248 1.368 . S
C1245 C1226 1.429 . S
C1245 C1239 1.429 . S
C1245 C1246 1.523 . S
C1246 C1227 1.368 . S
C1246 C1240 1.368 . S
C1246 C1245 1.523 . S
C1247 C1231 1.429 . S
C1247 C1243 1.429 . S
C1247 C1248 1.523 . S
C1248 C1232 1.368 . S
C1248 C1244 1.368 . S
C1248 C1247 1.523 . S
H1249 C1224 0.950 . S
H1250 C1226 0.950 . S
H1251 C1227 0.949 . S
H1252 C1229 0.950 . S
H1253 C1231 0.950 . S
C1254 C1255 1.349 . S
C1254 C1256 1.327 . S
C1254 H1279 0.950 . S
C1255 C1254 1.349 . S
C1255 C1271 1.349 . S
C1256 C1254 1.327 . S
C1256 C1275 1.429 . S
C1256 H1280 0.950 . S
C1257 C1274 1.574 . S
C1257 C1276 1.368 . S
C1257 H1281 0.949 . S
H1258 C1262 0.949 . S
C1259 C1260 1.349 . S
C1259 C1261 1.327 . S
C1259 H1282 0.950 . S
C1260 C1259 1.349 . S
C1260 C1272 1.349 . S
C1261 C1259 1.327 . S
C1261 C1277 1.429 . S
C1261 H1283 0.950 . S
C1262 H1258 0.949 . S
C1262 C1270 1.574 . S
C1262 C1278 1.368 . S
H1263 C1271 0.950 . S
H1264 C1269 0.950 . S
H1265 C1270 0.949 . S
H1266 C1272 0.950 . S
H1267 C1273 0.950 . S
H1268 C1274 0.949 . S
C1269 H1264 0.950 . S
C1269 C1271 1.327 . S
C1269 C1275 1.429 . S
C1270 C1262 1.574 . S
C1270 H1265 0.949 . S
C1270 C1276 1.368 . S
C1271 C1255 1.349 . S
C1271 H1263 0.950 . S
C1271 C1269 1.327 . S
C1272 C1260 1.349 . S
C1272 H1266 0.950 . S
C1272 C1273 1.327 . S
C1273 H1267 0.950 . S
C1273 C1272 1.327 . S
C1273 C1277 1.429 . S
C1274 C1257 1.574 . S
C1274 H1268 0.949 . S
C1274 C1278 1.368 . S
C1275 C1256 1.429 . S
C1275 C1269 1.429 . S
C1275 C1276 1.523 . S
C1276 C1257 1.368 . S
C1276 C1270 1.368 . S
C1276 C1275 1.523 . S
C1277 C1261 1.429 . S
C1277 C1273 1.429 . S
C1277 C1278 1.523 . S
C1278 C1262 1.368 . S
C1278 C1274 1.368 . S
C1278 C1277 1.523 . S
H1279 C1254 0.950 . S
H1280 C1256 0.950 . S
H1281 C1257 0.949 . S
H1282 C1259 0.950 . S
H1283 C1261 0.950 . S
C1284 C1285 1.349 . S
C1284 C1286 1.327 . S
C1284 H1309 0.950 . S
C1285 C1284 1.349 . S
C1285 C1301 1.349 . S
C1286 C1284 1.327 . S
C1286 C1305 1.429 . S
C1286 H1310 0.950 . S
C1287 C1304 1.574 . S
C1287 C1306 1.368 . S
C1287 H1311 0.949 . S
H1288 C1292 0.949 . S
C1289 C1290 1.349 . S
C1289 C1291 1.327 . S
C1289 H1312 0.950 . S
C1290 C1289 1.349 . S
C1290 C1302 1.349 . S
C1291 C1289 1.327 . S
C1291 C1307 1.429 . S
C1291 H1313 0.950 . S
C1292 H1288 0.949 . S
C1292 C1300 1.574 . S
C1292 C1308 1.368 . S
H1293 C1301 0.950 . S
H1294 C1299 0.950 . S
H1295 C1300 0.949 . S
H1296 C1302 0.950 . S
H1297 C1303 0.950 . S
H1298 C1304 0.949 . S
C1299 H1294 0.950 . S
C1299 C1301 1.327 . S
C1299 C1305 1.429 . S
C1300 C1292 1.574 . S
C1300 H1295 0.949 . S
C1300 C1306 1.368 . S
C1301 C1285 1.349 . S
C1301 H1293 0.950 . S
C1301 C1299 1.327 . S
C1302 C1290 1.349 . S
C1302 H1296 0.950 . S
C1302 C1303 1.327 . S
C1303 H1297 0.950 . S
C1303 C1302 1.327 . S
C1303 C1307 1.429 . S
C1304 C1287 1.574 . S
C1304 H1298 0.949 . S
C1304 C1308 1.368 . S
C1305 C1286 1.429 . S
C1305 C1299 1.429 . S
C1305 C1306 1.523 . S
C1306 C1287 1.368 . S
C1306 C1300 1.368 . S
C1306 C1305 1.523 . S
C1307 C1291 1.429 . S
C1307 C1303 1.429 . S
C1307 C1308 1.523 . S
C1308 C1292 1.368 . S
C1308 C1304 1.368 . S
C1308 C1307 1.523 . S
H1309 C1284 0.950 . S
H1310 C1286 0.950 . S
H1311 C1287 0.949 . S
H1312 C1289 0.950 . S
H1313 C1291 0.950 . S
C1314 C1315 1.349 . S
C1314 C1316 1.327 . S
C1314 H1339 0.950 . S
C1315 C1314 1.349 . S
C1315 C1331 1.349 . S
C1316 C1314 1.327 . S
C1316 C1335 1.429 . S
C1316 H1340 0.950 . S
C1317 C1334 1.574 . S
C1317 C1336 1.368 . S
C1317 H1341 0.949 . S
H1318 C1322 0.949 . S
C1319 C1320 1.349 . S
C1319 C1321 1.327 . S
C1319 H1342 0.950 . S
C1320 C1319 1.349 . S
C1320 C1332 1.349 . S
C1321 C1319 1.327 . S
C1321 C1337 1.429 . S
C1321 H1343 0.950 . S
C1322 H1318 0.949 . S
C1322 C1330 1.574 . S
C1322 C1338 1.368 . S
H1323 C1331 0.950 . S
H1324 C1329 0.950 . S
H1325 C1330 0.949 . S
H1326 C1332 0.950 . S
H1327 C1333 0.950 . S
H1328 C1334 0.949 . S
C1329 H1324 0.950 . S
C1329 C1331 1.327 . S
C1329 C1335 1.429 . S
C1330 C1322 1.574 . S
C1330 H1325 0.949 . S
C1330 C1336 1.368 . S
C1331 C1315 1.349 . S
C1331 H1323 0.950 . S
C1331 C1329 1.327 . S
C1332 C1320 1.349 . S
C1332 H1326 0.950 . S
C1332 C1333 1.327 . S
C1333 H1327 0.950 . S
C1333 C1332 1.327 . S
C1333 C1337 1.429 . S
C1334 C1317 1.574 . S
C1334 H1328 0.949 . S
C1334 C1338 1.368 . S
C1335 C1316 1.429 . S
C1335 C1329 1.429 . S
C1335 C1336 1.523 . S
C1336 C1317 1.368 . S
C1336 C1330 1.368 . S
C1336 C1335 1.523 . S
C1337 C1321 1.429 . S
C1337 C1333 1.429 . S
C1337 C1338 1.523 . S
C1338 C1322 1.368 . S
C1338 C1334 1.368 . S
C1338 C1337 1.523 . S
H1339 C1314 0.950 . S
H1340 C1316 0.950 . S
H1341 C1317 0.949 . S
H1342 C1319 0.950 . S
H1343 C1321 0.950 . S
C1344 C1345 1.349 . S
C1344 C1346 1.327 . S
C1344 H1369 0.950 . S
C1345 C1344 1.349 . S
C1345 C1361 1.349 . S
C1346 C1344 1.327 . S
C1346 C1365 1.429 . S
C1346 H1370 0.950 . S
C1347 C1364 1.574 . S
C1347 C1366 1.368 . S
C1347 H1371 0.949 . S
H1348 C1352 0.949 . S
C1349 C1350 1.349 . S
C1349 C1351 1.327 . S
C1349 H1372 0.950 . S
C1350 C1349 1.349 . S
C1350 C1362 1.349 . S
C1351 C1349 1.327 . S
C1351 C1367 1.429 . S
C1351 H1373 0.950 . S
C1352 H1348 0.949 . S
C1352 C1360 1.574 . S
C1352 C1368 1.368 . S
H1353 C1361 0.950 . S
H1354 C1359 0.950 . S
H1355 C1360 0.949 . S
H1356 C1362 0.950 . S
H1357 C1363 0.950 . S
H1358 C1364 0.949 . S
C1359 H1354 0.950 . S
C1359 C1361 1.327 . S
C1359 C1365 1.429 . S
C1360 C1352 1.574 . S
C1360 H1355 0.949 . S
C1360 C1366 1.368 . S
C1361 C1345 1.349 . S
C1361 H1353 0.950 . S
C1361 C1359 1.327 . S
C1362 C1350 1.349 . S
C1362 H1356 0.950 . S
C1362 C1363 1.327 . S
C1363 H1357 0.950 . S
C1363 C1362 1.327 . S
C1363 C1367 1.429 . S
C1364 C1347 1.574 . S
C1364 H1358 0.949 . S
C1364 C1368 1.368 . S
C1365 C1346 1.429 . S
C1365 C1359 1.429 . S
C1365 C1366 1.523 . S
C1366 C1347 1.368 . S
C1366 C1360 1.368 . S
C1366 C1365 1.523 . S
C1367 C1351 1.429 . S
C1367 C1363 1.429 . S
C1367 C1368 1.523 . S
C1368 C1352 1.368 . S
C1368 C1364 1.368 . S
C1368 C1367 1.523 . S
H1369 C1344 0.950 . S
H1370 C1346 0.950 . S
H1371 C1347 0.949 . S
H1372 C1349 0.950 . S
H1373 C1351 0.950 . S
C1374 C1375 1.349 . S
C1374 C1376 1.327 . S
C1374 H1399 0.950 . S
C1375 C1374 1.349 . S
C1375 C1391 1.349 . S
C1376 C1374 1.327 . S
C1376 C1395 1.429 . S
C1376 H1400 0.950 . S
C1377 C1394 1.574 . S
C1377 C1396 1.368 . S
C1377 H1401 0.949 . S
H1378 C1382 0.949 . S
C1379 C1380 1.349 . S
C1379 C1381 1.327 . S
C1379 H1402 0.950 . S
C1380 C1379 1.349 . S
C1380 C1392 1.349 . S
C1381 C1379 1.327 . S
C1381 C1397 1.429 . S
C1381 H1403 0.950 . S
C1382 H1378 0.949 . S
C1382 C1390 1.574 . S
C1382 C1398 1.368 . S
H1383 C1391 0.950 . S
H1384 C1389 0.950 . S
H1385 C1390 0.949 . S
H1386 C1392 0.950 . S
H1387 C1393 0.950 . S
H1388 C1394 0.949 . S
C1389 H1384 0.950 . S
C1389 C1391 1.327 . S
C1389 C1395 1.429 . S
C1390 C1382 1.574 . S
C1390 H1385 0.949 . S
C1390 C1396 1.368 . S
C1391 C1375 1.349 . S
C1391 H1383 0.950 . S
C1391 C1389 1.327 . S
C1392 C1380 1.349 . S
C1392 H1386 0.950 . S
C1392 C1393 1.327 . S
C1393 H1387 0.950 . S
C1393 C1392 1.327 . S
C1393 C1397 1.429 . S
C1394 C1377 1.574 . S
C1394 H1388 0.949 . S
C1394 C1398 1.368 . S
C1395 C1376 1.429 . S
C1395 C1389 1.429 . S
C1395 C1396 1.523 . S
C1396 C1377 1.368 . S
C1396 C1390 1.368 . S
C1396 C1395 1.523 . S
C1397 C1381 1.429 . S
C1397 C1393 1.429 . S
C1397 C1398 1.523 . S
C1398 C1382 1.368 . S
C1398 C1394 1.368 . S
C1398 C1397 1.523 . S
H1399 C1374 0.950 . S
H1400 C1376 0.950 . S
H1401 C1377 0.949 . S
H1402 C1379 0.950 . S
H1403 C1381 0.950 . S
C1404 C1405 1.349 . S
C1404 C1406 1.327 . S
C1404 H1429 0.950 . S
C1405 C1404 1.349 . S
C1405 C1421 1.349 . S
C1406 C1404 1.327 . S
C1406 C1425 1.429 . S
C1406 H1430 0.950 . S
C1407 C1424 1.574 . S
C1407 C1426 1.368 . S
C1407 H1431 0.949 . S
H1408 C1412 0.949 . S
C1409 C1410 1.349 . S
C1409 C1411 1.327 . S
C1409 H1432 0.950 . S
C1410 C1409 1.349 . S
C1410 C1422 1.349 . S
C1411 C1409 1.327 . S
C1411 C1427 1.429 . S
C1411 H1433 0.950 . S
C1412 H1408 0.949 . S
C1412 C1420 1.574 . S
C1412 C1428 1.368 . S
H1413 C1421 0.950 . S
H1414 C1419 0.950 . S
H1415 C1420 0.949 . S
H1416 C1422 0.950 . S
H1417 C1423 0.950 . S
H1418 C1424 0.949 . S
C1419 H1414 0.950 . S
C1419 C1421 1.327 . S
C1419 C1425 1.429 . S
C1420 C1412 1.574 . S
C1420 H1415 0.949 . S
C1420 C1426 1.368 . S
C1421 C1405 1.349 . S
C1421 H1413 0.950 . S
C1421 C1419 1.327 . S
C1422 C1410 1.349 . S
C1422 H1416 0.950 . S
C1422 C1423 1.327 . S
C1423 H1417 0.950 . S
C1423 C1422 1.327 . S
C1423 C1427 1.429 . S
C1424 C1407 1.574 . S
C1424 H1418 0.949 . S
C1424 C1428 1.368 . S
C1425 C1406 1.429 . S
C1425 C1419 1.429 . S
C1425 C1426 1.523 . S
C1426 C1407 1.368 . S
C1426 C1420 1.368 . S
C1426 C1425 1.523 . S
C1427 C1411 1.429 . S
C1427 C1423 1.429 . S
C1427 C1428 1.523 . S
C1428 C1412 1.368 . S
C1428 C1424 1.368 . S
C1428 C1427 1.523 . S
H1429 C1404 0.950 . S
H1430 C1406 0.950 . S
H1431 C1407 0.949 . S
H1432 C1409 0.950 . S
H1433 C1411 0.950 . S
C1434 C1435 1.349 . S
C1434 C1436 1.327 . S
C1434 H1459 0.950 . S
C1435 C1434 1.349 . S
C1435 C1451 1.349 . S
C1436 C1434 1.327 . S
C1436 C1455 1.429 . S
C1436 H1460 0.950 . S
C1437 C1454 1.574 . S
C1437 C1456 1.368 . S
C1437 H1461 0.949 . S
H1438 C1442 0.949 . S
C1439 C1440 1.349 . S
C1439 C1441 1.327 . S
C1439 H1462 0.950 . S
C1440 C1439 1.349 . S
C1440 C1452 1.349 . S
C1441 C1439 1.327 . S
C1441 C1457 1.429 . S
C1441 H1463 0.950 . S
C1442 H1438 0.949 . S
C1442 C1450 1.574 . S
C1442 C1458 1.368 . S
H1443 C1451 0.950 . S
H1444 C1449 0.950 . S
H1445 C1450 0.949 . S
H1446 C1452 0.950 . S
H1447 C1453 0.950 . S
H1448 C1454 0.949 . S
C1449 H1444 0.950 . S
C1449 C1451 1.327 . S
C1449 C1455 1.429 . S
C1450 C1442 1.574 . S
C1450 H1445 0.949 . S
C1450 C1456 1.368 . S
C1451 C1435 1.349 . S
C1451 H1443 0.950 . S
C1451 C1449 1.327 . S
C1452 C1440 1.349 . S
C1452 H1446 0.950 . S
C1452 C1453 1.327 . S
C1453 H1447 0.950 . S
C1453 C1452 1.327 . S
C1453 C1457 1.429 . S
C1454 C1437 1.574 . S
C1454 H1448 0.949 . S
C1454 C1458 1.368 . S
C1455 C1436 1.429 . S
C1455 C1449 1.429 . S
C1455 C1456 1.523 . S
C1456 C1437 1.368 . S
C1456 C1450 1.368 . S
C1456 C1455 1.523 . S
C1457 C1441 1.429 . S
C1457 C1453 1.429 . S
C1457 C1458 1.523 . S
C1458 C1442 1.368 . S
C1458 C1454 1.368 . S
C1458 C1457 1.523 . S
H1459 C1434 0.950 . S
H1460 C1436 0.950 . S
H1461 C1437 0.949 . S
H1462 C1439 0.950 . S
H1463 C1441 0.950 . S
C1464 C1465 1.349 . S
C1464 C1466 1.327 . S
C1464 H1489 0.950 . S
C1465 C1464 1.349 . S
C1465 C1481 1.349 . S
C1466 C1464 1.327 . S
C1466 C1485 1.429 . S
C1466 H1490 0.950 . S
C1467 C1484 1.574 . S
C1467 C1486 1.368 . S
C1467 H1491 0.949 . S
H1468 C1472 0.949 . S
C1469 C1470 1.349 . S
C1469 C1471 1.327 . S
C1469 H1492 0.950 . S
C1470 C1469 1.349 . S
C1470 C1482 1.349 . S
C1471 C1469 1.327 . S
C1471 C1487 1.429 . S
C1471 H1493 0.950 . S
C1472 H1468 0.949 . S
C1472 C1480 1.574 . S
C1472 C1488 1.368 . S
H1473 C1481 0.950 . S
H1474 C1479 0.950 . S
H1475 C1480 0.949 . S
H1476 C1482 0.950 . S
H1477 C1483 0.950 . S
H1478 C1484 0.949 . S
C1479 H1474 0.950 . S
C1479 C1481 1.327 . S
C1479 C1485 1.429 . S
C1480 C1472 1.574 . S
C1480 H1475 0.949 . S
C1480 C1486 1.368 . S
C1481 C1465 1.349 . S
C1481 H1473 0.950 . S
C1481 C1479 1.327 . S
C1482 C1470 1.349 . S
C1482 H1476 0.950 . S
C1482 C1483 1.327 . S
C1483 H1477 0.950 . S
C1483 C1482 1.327 . S
C1483 C1487 1.429 . S
C1484 C1467 1.574 . S
C1484 H1478 0.949 . S
C1484 C1488 1.368 . S
C1485 C1466 1.429 . S
C1485 C1479 1.429 . S
C1485 C1486 1.523 . S
C1486 C1467 1.368 . S
C1486 C1480 1.368 . S
C1486 C1485 1.523 . S
C1487 C1471 1.429 . S
C1487 C1483 1.429 . S
C1487 C1488 1.523 . S
C1488 C1472 1.368 . S
C1488 C1484 1.368 . S
C1488 C1487 1.523 . S
H1489 C1464 0.950 . S
H1490 C1466 0.950 . S
H1491 C1467 0.949 . S
H1492 C1469 0.950 . S
H1493 C1471 0.950 . S
C1494 C1495 1.349 . S
C1494 C1496 1.327 . S
C1494 H1519 0.950 . S
C1495 C1494 1.349 . S
C1495 C1511 1.349 . S
C1496 C1494 1.327 . S
C1496 C1515 1.429 . S
C1496 H1520 0.950 . S
C1497 C1514 1.574 . S
C1497 C1516 1.368 . S
C1497 H1521 0.949 . S
H1498 C1502 0.949 . S
C1499 C1500 1.349 . S
C1499 C1501 1.327 . S
C1499 H1522 0.950 . S
C1500 C1499 1.349 . S
C1500 C1512 1.349 . S
C1501 C1499 1.327 . S
C1501 C1517 1.429 . S
C1501 H1523 0.950 . S
C1502 H1498 0.949 . S
C1502 C1510 1.574 . S
C1502 C1518 1.368 . S
H1503 C1511 0.950 . S
H1504 C1509 0.950 . S
H1505 C1510 0.949 . S
H1506 C1512 0.950 . S
H1507 C1513 0.950 . S
H1508 C1514 0.949 . S
C1509 H1504 0.950 . S
C1509 C1511 1.327 . S
C1509 C1515 1.429 . S
C1510 C1502 1.574 . S
C1510 H1505 0.949 . S
C1510 C1516 1.368 . S
C1511 C1495 1.349 . S
C1511 H1503 0.950 . S
C1511 C1509 1.327 . S
C1512 C1500 1.349 . S
C1512 H1506 0.950 . S
C1512 C1513 1.327 . S
C1513 H1507 0.950 . S
C1513 C1512 1.327 . S
C1513 C1517 1.429 . S
C1514 C1497 1.574 . S
C1514 H1508 0.949 . S
C1514 C1518 1.368 . S
C1515 C1496 1.429 . S
C1515 C1509 1.429 . S
C1515 C1516 1.523 . S
C1516 C1497 1.368 . S
C1516 C1510 1.368 . S
C1516 C1515 1.523 . S
C1517 C1501 1.429 . S
C1517 C1513 1.429 . S
C1517 C1518 1.523 . S
C1518 C1502 1.368 . S
C1518 C1514 1.368 . S
C1518 C1517 1.523 . S
H1519 C1494 0.950 . S
H1520 C1496 0.950 . S
H1521 C1497 0.949 . S
H1522 C1499 0.950 . S
H1523 C1501 0.950 . S
C1524 C1525 1.349 . S
C1524 C1526 1.327 . S
C1524 H1549 0.950 . S
C1525 C1524 1.349 . S
C1525 C1541 1.349 . S
C1526 C1524 1.327 . S
C1526 C1545 1.429 . S
C1526 H1550 0.950 . S
C1527 C1544 1.574 . S
C1527 C1546 1.368 . S
C1527 H1551 0.949 . S
H1528 C1532 0.949 . S
C1529 C1530 1.349 . S
C1529 C1531 1.327 . S
C1529 H1552 0.950 . S
C1530 C1529 1.349 . S
C1530 C1542 1.349 . S
C1531 C1529 1.327 . S
C1531 C1547 1.429 . S
C1531 H1553 0.950 . S
C1532 H1528 0.949 . S
C1532 C1540 1.574 . S
C1532 C1548 1.368 . S
H1533 C1541 0.950 . S
H1534 C1539 0.950 . S
H1535 C1540 0.949 . S
H1536 C1542 0.950 . S
H1537 C1543 0.950 . S
H1538 C1544 0.949 . S
C1539 H1534 0.950 . S
C1539 C1541 1.327 . S
C1539 C1545 1.429 . S
C1540 C1532 1.574 . S
C1540 H1535 0.949 . S
C1540 C1546 1.368 . S
C1541 C1525 1.349 . S
C1541 H1533 0.950 . S
C1541 C1539 1.327 . S
C1542 C1530 1.349 . S
C1542 H1536 0.950 . S
C1542 C1543 1.327 . S
C1543 H1537 0.950 . S
C1543 C1542 1.327 . S
C1543 C1547 1.429 . S
C1544 C1527 1.574 . S
C1544 H1538 0.949 . S
C1544 C1548 1.368 . S
C1545 C1526 1.429 . S
C1545 C1539 1.429 . S
C1545 C1546 1.523 . S
C1546 C1527 1.368 . S
C1546 C1540 1.368 . S
C1546 C1545 1.523 . S
C1547 C1531 1.429 . S
C1547 C1543 1.429 . S
C1547 C1548 1.523 . S
C1548 C1532 1.368 . S
C1548 C1544 1.368 . S
C1548 C1547 1.523 . S
H1549 C1524 0.950 . S
H1550 C1526 0.950 . S
H1551 C1527 0.949 . S
H1552 C1529 0.950 . S
H1553 C1531 0.950 . S
C1554 C1555 1.349 . S
C1554 C1556 1.327 . S
C1554 H1579 0.950 . S
C1555 C1554 1.349 . S
C1555 C1571 1.349 . S
C1556 C1554 1.327 . S
C1556 C1575 1.429 . S
C1556 H1580 0.950 . S
C1557 C1574 1.574 . S
C1557 C1576 1.368 . S
C1557 H1581 0.949 . S
H1558 C1562 0.949 . S
C1559 C1560 1.349 . S
C1559 C1561 1.327 . S
C1559 H1582 0.950 . S
C1560 C1559 1.349 . S
C1560 C1572 1.349 . S
C1561 C1559 1.327 . S
C1561 C1577 1.429 . S
C1561 H1583 0.950 . S
C1562 H1558 0.949 . S
C1562 C1570 1.574 . S
C1562 C1578 1.368 . S
H1563 C1571 0.950 . S
H1564 C1569 0.950 . S
H1565 C1570 0.949 . S
H1566 C1572 0.950 . S
H1567 C1573 0.950 . S
H1568 C1574 0.949 . S
C1569 H1564 0.950 . S
C1569 C1571 1.327 . S
C1569 C1575 1.429 . S
C1570 C1562 1.574 . S
C1570 H1565 0.949 . S
C1570 C1576 1.368 . S
C1571 C1555 1.349 . S
C1571 H1563 0.950 . S
C1571 C1569 1.327 . S
C1572 C1560 1.349 . S
C1572 H1566 0.950 . S
C1572 C1573 1.327 . S
C1573 H1567 0.950 . S
C1573 C1572 1.327 . S
C1573 C1577 1.429 . S
C1574 C1557 1.574 . S
C1574 H1568 0.949 . S
C1574 C1578 1.368 . S
C1575 C1556 1.429 . S
C1575 C1569 1.429 . S
C1575 C1576 1.523 . S
C1576 C1557 1.368 . S
C1576 C1570 1.368 . S
C1576 C1575 1.523 . S
C1577 C1561 1.429 . S
C1577 C1573 1.429 . S
C1577 C1578 1.523 . S
C1578 C1562 1.368 . S
C1578 C1574 1.368 . S
C1578 C1577 1.523 . S
H1579 C1554 0.950 . S
H1580 C1556 0.950 . S
H1581 C1557 0.949 . S
H1582 C1559 0.950 . S
H1583 C1561 0.950 . S
C1584 C1585 1.349 . S
C1584 C1586 1.327 . S
C1584 H1609 0.950 . S
C1585 C1584 1.349 . S
C1585 C1601 1.349 . S
C1586 C1584 1.327 . S
C1586 C1605 1.429 . S
C1586 H1610 0.950 . S
C1587 C1604 1.574 . S
C1587 C1606 1.368 . S
C1587 H1611 0.949 . S
H1588 C1592 0.949 . S
C1589 C1590 1.349 . S
C1589 C1591 1.327 . S
C1589 H1612 0.950 . S
C1590 C1589 1.349 . S
C1590 C1602 1.349 . S
C1591 C1589 1.327 . S
C1591 C1607 1.429 . S
C1591 H1613 0.950 . S
C1592 H1588 0.949 . S
C1592 C1600 1.574 . S
C1592 C1608 1.368 . S
H1593 C1601 0.950 . S
H1594 C1599 0.950 . S
H1595 C1600 0.949 . S
H1596 C1602 0.950 . S
H1597 C1603 0.950 . S
H1598 C1604 0.949 . S
C1599 H1594 0.950 . S
C1599 C1601 1.327 . S
C1599 C1605 1.429 . S
C1600 C1592 1.574 . S
C1600 H1595 0.949 . S
C1600 C1606 1.368 . S
C1601 C1585 1.349 . S
C1601 H1593 0.950 . S
C1601 C1599 1.327 . S
C1602 C1590 1.349 . S
C1602 H1596 0.950 . S
C1602 C1603 1.327 . S
C1603 H1597 0.950 . S
C1603 C1602 1.327 . S
C1603 C1607 1.429 . S
C1604 C1587 1.574 . S
C1604 H1598 0.949 . S
C1604 C1608 1.368 . S
C1605 C1586 1.429 . S
C1605 C1599 1.429 . S
C1605 C1606 1.523 . S
C1606 C1587 1.368 . S
C1606 C1600 1.368 . S
C1606 C1605 1.523 . S
C1607 C1591 1.429 . S
C1607 C1603 1.429 . S
C1607 C1608 1.523 . S
C1608 C1592 1.368 . S
C1608 C1604 1.368 . S
C1608 C1607 1.523 . S
H1609 C1584 0.950 . S
H1610 C1586 0.950 . S
H1611 C1587 0.949 . S
H1612 C1589 0.950 . S
H1613 C1591 0.950 . S
C1614 C1615 1.349 . S
C1614 C1616 1.327 . S
C1614 H1639 0.950 . S
C1615 C1614 1.349 . S
C1615 C1631 1.349 . S
C1616 C1614 1.327 . S
C1616 C1635 1.429 . S
C1616 H1640 0.950 . S
C1617 C1634 1.574 . S
C1617 C1636 1.379 . S
C1617 H1641 0.949 . S
H1618 C1622 0.949 . S
C1619 C1620 1.349 . S
C1619 C1621 1.327 . S
C1619 H1642 0.950 . S
C1620 C1619 1.349 . S
C1620 C1632 1.349 . S
C1621 C1619 1.327 . S
C1621 C1637 1.429 . S
C1621 H1643 0.950 . S
C1622 H1618 0.949 . S
C1622 C1630 1.574 . S
C1622 C1638 1.368 . S
H1623 C1631 0.950 . S
H1624 C1629 0.950 . S
H1625 C1630 0.949 1_554 S
H1626 C1632 0.950 . S
H1627 C1633 0.950 . S
H1628 C1634 0.949 . S
C1629 H1624 0.950 . S
C1629 C1631 1.327 . S
C1629 C1635 1.429 . S
C1630 C1622 1.574 . S
C1630 H1625 0.949 1_556 S
C1630 C1636 1.377 . S
C1631 C1615 1.349 . S
C1631 H1623 0.950 . S
C1631 C1629 1.327 . S
C1632 C1620 1.349 . S
C1632 H1626 0.950 . S
C1632 C1633 1.327 . S
C1633 H1627 0.950 . S
C1633 C1632 1.327 . S
C1633 C1637 1.429 . S
C1634 C1617 1.574 . S
C1634 H1628 0.949 . S
C1634 C1638 1.368 . S
C1635 C1616 1.429 . S
C1635 C1629 1.429 . S
C1635 C1636 1.498 1_554 S
C1636 C1617 1.379 . S
C1636 C1630 1.377 . S
C1636 C1635 1.498 1_556 S
C1637 C1621 1.429 . S
C1637 C1633 1.429 . S
C1637 C1638 1.523 . S
C1638 C1622 1.368 . S
C1638 C1634 1.368 . S
C1638 C1637 1.523 . S
H1639 C1614 0.950 . S
H1640 C1616 0.950 . S
H1641 C1617 0.949 . S
H1642 C1619 0.950 . S
H1643 C1621 0.950 . S
C1644 C1645 1.349 . S
C1644 C1646 1.327 . S
C1644 H1669 0.950 . S
C1645 C1644 1.349 . S
C1645 C1661 1.349 . S
C1646 C1644 1.327 . S
C1646 C1665 1.429 . S
C1646 H1670 0.950 . S
C1647 C1664 1.574 . S
C1647 C1666 1.368 . S
C1647 H1671 0.949 . S
H1648 C1652 0.949 . S
C1649 C1650 1.349 . S
C1649 C1651 1.327 . S
C1649 H1672 0.950 . S
C1650 C1649 1.349 . S
C1650 C1662 1.349 . S
C1651 C1649 1.327 . S
C1651 C1667 1.429 . S
C1651 H1673 0.950 . S
C1652 H1648 0.949 . S
C1652 C1660 1.574 . S
C1652 C1668 1.368 . S
H1653 C1661 0.950 . S
H1654 C1659 0.950 . S
H1655 C1660 0.949 . S
H1656 C1662 0.950 . S
H1657 C1663 0.950 . S
H1658 C1664 0.949 . S
C1659 H1654 0.950 . S
C1659 C1661 1.327 . S
C1659 C1665 1.429 . S
C1660 C1652 1.574 . S
C1660 H1655 0.949 . S
C1660 C1666 1.368 . S
C1661 C1645 1.349 . S
C1661 H1653 0.950 . S
C1661 C1659 1.327 . S
C1662 C1650 1.349 . S
C1662 H1656 0.950 . S
C1662 C1663 1.327 . S
C1663 H1657 0.950 . S
C1663 C1662 1.327 . S
C1663 C1667 1.429 . S
C1664 C1647 1.574 . S
C1664 H1658 0.949 . S
C1664 C1668 1.368 . S
C1665 C1646 1.429 . S
C1665 C1659 1.429 . S
C1665 C1666 1.523 . S
C1666 C1647 1.368 . S
C1666 C1660 1.368 . S
C1666 C1665 1.523 . S
C1667 C1651 1.429 . S
C1667 C1663 1.429 . S
C1667 C1668 1.523 . S
C1668 C1652 1.368 . S
C1668 C1664 1.368 . S
C1668 C1667 1.523 . S
H1669 C1644 0.950 . S
H1670 C1646 0.950 . S
H1671 C1647 0.949 . S
H1672 C1649 0.950 . S
H1673 C1651 0.950 . S
C1674 C1675 1.349 . S
C1674 C1676 1.327 . S
C1674 H1699 0.950 . S
C1675 C1674 1.349 . S
C1675 C1691 1.349 . S
C1676 C1674 1.327 . S
C1676 C1695 1.429 . S
C1676 H1700 0.950 . S
C1677 C1694 1.574 . S
C1677 C1696 1.368 . S
C1677 H1701 0.949 . S
H1678 C1682 0.949 1_556 S
C1679 C1680 1.349 . S
C1679 C1681 1.327 . S
C1679 H1702 0.950 . S
C1680 C1679 1.349 . S
C1680 C1692 1.349 . S
C1681 C1679 1.327 . S
C1681 C1697 1.429 . S
C1681 H1703 0.950 . S
C1682 H1678 0.949 1_554 S
C1682 C1690 1.574 . S
C1682 C1698 1.374 . S
H1683 C1691 0.950 . S
H1684 C1689 0.950 . S
H1685 C1690 0.949 . S
H1686 C1692 0.950 . S
H1687 C1693 0.950 . S
H1688 C1694 0.949 . S
C1689 H1684 0.950 . S
C1689 C1691 1.327 . S
C1689 C1695 1.429 . S
C1690 C1682 1.574 . S
C1690 H1685 0.949 . S
C1690 C1696 1.368 . S
C1691 C1675 1.349 . S
C1691 H1683 0.950 . S
C1691 C1689 1.327 . S
C1692 C1680 1.349 . S
C1692 H1686 0.950 . S
C1692 C1693 1.327 . S
C1693 H1687 0.950 . S
C1693 C1692 1.327 . S
C1693 C1697 1.429 . S
C1694 C1677 1.574 . S
C1694 H1688 0.949 . S
C1694 C1698 1.383 . S
C1695 C1676 1.429 . S
C1695 C1689 1.429 . S
C1695 C1696 1.523 . S
C1696 C1677 1.368 . S
C1696 C1690 1.368 . S
C1696 C1695 1.523 . S
C1697 C1681 1.429 . S
C1697 C1693 1.429 . S
C1697 C1698 1.498 1_556 S
C1698 C1682 1.374 . S
C1698 C1694 1.383 . S
C1698 C1697 1.498 1_554 S
H1699 C1674 0.950 . S
H1700 C1676 0.950 . S
H1701 C1677 0.949 . S
H1702 C1679 0.950 . S
H1703 C1681 0.950 . S
C1704 C1705 1.349 . S
C1704 C1706 1.327 . S
C1704 H1729 0.950 . S
C1705 C1704 1.349 . S
C1705 C1721 1.349 . S
C1706 C1704 1.327 . S
C1706 C1725 1.429 . S
C1706 H1730 0.950 . S
C1707 C1724 1.574 . S
C1707 C1726 1.368 . S
C1707 H1731 0.949 . S
H1708 C1712 0.949 . S
C1709 C1710 1.349 . S
C1709 C1711 1.327 . S
C1709 H1732 0.950 . S
C1710 C1709 1.349 . S
C1710 C1722 1.349 . S
C1711 C1709 1.327 . S
C1711 C1727 1.429 . S
C1711 H1733 0.950 . S
C1712 H1708 0.949 . S
C1712 C1720 1.574 . S
C1712 C1728 1.368 . S
H1713 C1721 0.950 . S
H1714 C1719 0.950 . S
H1715 C1720 0.949 . S
H1716 C1722 0.950 . S
H1717 C1723 0.950 . S
H1718 C1724 0.949 . S
C1719 H1714 0.950 . S
C1719 C1721 1.327 . S
C1719 C1725 1.429 . S
C1720 C1712 1.574 . S
C1720 H1715 0.949 . S
C1720 C1726 1.368 . S
C1721 C1705 1.349 . S
C1721 H1713 0.950 . S
C1721 C1719 1.327 . S
C1722 C1710 1.349 . S
C1722 H1716 0.950 . S
C1722 C1723 1.327 . S
C1723 H1717 0.950 . S
C1723 C1722 1.327 . S
C1723 C1727 1.429 . S
C1724 C1707 1.574 . S
C1724 H1718 0.949 . S
C1724 C1728 1.368 . S
C1725 C1706 1.429 . S
C1725 C1719 1.429 . S
C1725 C1726 1.523 . S
C1726 C1707 1.368 . S
C1726 C1720 1.368 . S
C1726 C1725 1.523 . S
C1727 C1711 1.429 . S
C1727 C1723 1.429 . S
C1727 C1728 1.523 . S
C1728 C1712 1.368 . S
C1728 C1724 1.368 . S
C1728 C1727 1.523 . S
H1729 C1704 0.950 . S
H1730 C1706 0.950 . S
H1731 C1707 0.949 . S
H1732 C1709 0.950 . S
H1733 C1711 0.950 . S
C1734 C1735 1.349 . S
C1734 C1736 1.327 . S
C1734 H1759 0.950 . S
C1735 C1734 1.349 . S
C1735 C1751 1.349 . S
C1736 C1734 1.327 . S
C1736 C1755 1.429 . S
C1736 H1760 0.950 . S
C1737 C1754 1.574 . S
C1737 C1756 1.368 . S
C1737 H1761 0.949 . S
H1738 C1742 0.949 . S
C1739 C1740 1.349 . S
C1739 C1741 1.327 . S
C1739 H1762 0.950 . S
C1740 C1739 1.349 . S
C1740 C1752 1.349 . S
C1741 C1739 1.327 . S
C1741 C1757 1.429 . S
C1741 H1763 0.950 . S
C1742 H1738 0.949 . S
C1742 C1750 1.574 . S
C1742 C1758 1.368 . S
H1743 C1751 0.950 . S
H1744 C1749 0.950 . S
H1745 C1750 0.948 . S
H1746 C1752 0.950 . S
H1747 C1753 0.950 . S
H1748 C1754 0.949 . S
C1749 H1744 0.950 . S
C1749 C1751 1.327 . S
C1749 C1755 1.429 . S
C1750 C1742 1.574 . S
C1750 H1745 0.948 . S
C1750 C1756 1.368 . S
C1751 C1735 1.349 . S
C1751 H1743 0.950 . S
C1751 C1749 1.327 . S
C1752 C1740 1.349 . S
C1752 H1746 0.950 . S
C1752 C1753 1.327 . S
C1753 H1747 0.950 . S
C1753 C1752 1.327 . S
C1753 C1757 1.429 . S
C1754 C1737 1.574 . S
C1754 H1748 0.949 . S
C1754 C1758 1.368 . S
C1755 C1736 1.429 . S
C1755 C1749 1.429 . S
C1755 C1756 1.523 1_655 S
C1756 C1737 1.368 . S
C1756 C1750 1.368 . S
C1756 C1755 1.523 1_455 S
C1757 C1741 1.429 . S
C1757 C1753 1.429 . S
C1757 C1758 1.523 . S
C1758 C1742 1.368 . S
C1758 C1754 1.368 . S
C1758 C1757 1.523 . S
H1759 C1734 0.950 . S
H1760 C1736 0.950 . S
H1761 C1737 0.949 . S
H1762 C1739 0.950 . S
H1763 C1741 0.950 . S
C1764 C1765 1.349 . S
C1764 C1766 1.327 . S
C1764 H1789 0.950 . S
C1765 C1764 1.349 . S
C1765 C1781 1.349 . S
C1766 C1764 1.327 . S
C1766 C1785 1.429 . S
C1766 H1790 0.950 . S
C1767 C1784 1.574 . S
C1767 C1786 1.368 . S
C1767 H1791 0.949 . S
H1768 C1772 0.949 . S
C1769 C1770 1.349 . S
C1769 C1771 1.327 . S
C1769 H1792 0.950 . S
C1770 C1769 1.349 . S
C1770 C1782 1.349 . S
C1771 C1769 1.327 . S
C1771 C1787 1.429 . S
C1771 H1793 0.950 . S
C1772 H1768 0.949 . S
C1772 C1780 1.574 . S
C1772 C1788 1.368 . S
H1773 C1781 0.950 . S
H1774 C1779 0.950 . S
H1775 C1780 0.949 . S
H1776 C1782 0.950 . S
H1777 C1783 0.950 . S
H1778 C1784 0.949 . S
C1779 H1774 0.950 . S
C1779 C1781 1.327 . S
C1779 C1785 1.429 . S
C1780 C1772 1.574 . S
C1780 H1775 0.949 . S
C1780 C1786 1.368 . S
C1781 C1765 1.349 . S
C1781 H1773 0.950 . S
C1781 C1779 1.327 . S
C1782 C1770 1.349 . S
C1782 H1776 0.950 . S
C1782 C1783 1.327 . S
C1783 H1777 0.950 . S
C1783 C1782 1.327 . S
C1783 C1787 1.429 . S
C1784 C1767 1.574 . S
C1784 H1778 0.949 . S
C1784 C1788 1.368 . S
C1785 C1766 1.429 . S
C1785 C1779 1.429 . S
C1785 C1786 1.523 1_455 S
C1786 C1767 1.368 . S
C1786 C1780 1.368 . S
C1786 C1785 1.523 1_655 S
C1787 C1771 1.429 . S
C1787 C1783 1.429 . S
C1787 C1788 1.523 . S
C1788 C1772 1.368 . S
C1788 C1784 1.368 . S
C1788 C1787 1.523 . S
H1789 C1764 0.950 . S
H1790 C1766 0.950 . S
H1791 C1767 0.949 . S
H1792 C1769 0.950 . S
H1793 C1771 0.950 . S
C1794 C1795 1.349 . S
C1794 C1796 1.327 . S
C1794 H1819 0.950 . S
C1795 C1794 1.349 . S
C1795 C1811 1.349 . S
C1796 C1794 1.327 . S
C1796 C1815 1.429 . S
C1796 H1820 0.950 . S
C1797 C1814 1.574 . S
C1797 C1816 1.368 . S
C1797 H1821 0.949 . S
H1798 C1802 0.949 . S
C1799 C1800 1.349 . S
C1799 C1801 1.327 . S
C1799 H1822 0.950 . S
C1800 C1799 1.349 . S
C1800 C1812 1.349 . S
C1801 C1799 1.327 . S
C1801 C1817 1.429 . S
C1801 H1823 0.950 . S
C1802 H1798 0.949 . S
C1802 C1810 1.574 . S
C1802 C1818 1.368 . S
H1803 C1811 0.950 . S
H1804 C1809 0.950 . S
H1805 C1810 0.949 . S
H1806 C1812 0.950 . S
H1807 C1813 0.950 . S
H1808 C1814 0.949 . S
C1809 H1804 0.950 . S
C1809 C1811 1.327 . S
C1809 C1815 1.429 . S
C1810 C1802 1.574 . S
C1810 H1805 0.949 . S
C1810 C1816 1.368 . S
C1811 C1795 1.349 . S
C1811 H1803 0.950 . S
C1811 C1809 1.327 . S
C1812 C1800 1.349 . S
C1812 H1806 0.950 . S
C1812 C1813 1.327 . S
C1813 H1807 0.950 . S
C1813 C1812 1.327 . S
C1813 C1817 1.429 . S
C1814 C1797 1.574 . S
C1814 H1808 0.949 . S
C1814 C1818 1.368 . S
C1815 C1796 1.429 . S
C1815 C1809 1.429 . S
C1815 C1816 1.523 . S
C1816 C1797 1.368 . S
C1816 C1810 1.368 . S
C1816 C1815 1.523 . S
C1817 C1801 1.429 . S
C1817 C1813 1.429 . S
C1817 C1818 1.523 . S
C1818 C1802 1.368 . S
C1818 C1814 1.368 . S
C1818 C1817 1.523 . S
H1819 C1794 0.950 . S
H1820 C1796 0.950 . S
H1821 C1797 0.949 . S
H1822 C1799 0.950 . S
H1823 C1801 0.950 . S
C1824 C1825 1.349 . S
C1824 C1826 1.327 . S
C1824 H1849 0.950 . S
C1825 C1824 1.349 . S
C1825 C1841 1.349 . S
C1826 C1824 1.327 . S
C1826 C1845 1.429 . S
C1826 H1850 0.950 . S
C1827 C1844 1.574 . S
C1827 C1846 1.368 . S
C1827 H1851 0.949 . S
H1828 C1832 0.949 . S
C1829 C1830 1.349 . S
C1829 C1831 1.327 . S
C1829 H1852 0.950 . S
C1830 C1829 1.349 . S
C1830 C1842 1.349 . S
C1831 C1829 1.327 . S
C1831 C1847 1.429 . S
C1831 H1853 0.950 . S
C1832 H1828 0.949 . S
C1832 C1840 1.574 . S
C1832 C1848 1.368 . S
H1833 C1841 0.950 . S
H1834 C1839 0.950 . S
H1835 C1840 0.949 . S
H1836 C1842 0.950 . S
H1837 C1843 0.950 . S
H1838 C1844 0.949 . S
C1839 H1834 0.950 . S
C1839 C1841 1.327 . S
C1839 C1845 1.429 . S
C1840 C1832 1.574 . S
C1840 H1835 0.949 . S
C1840 C1846 1.368 . S
C1841 C1825 1.349 . S
C1841 H1833 0.950 . S
C1841 C1839 1.327 . S
C1842 C1830 1.349 . S
C1842 H1836 0.950 . S
C1842 C1843 1.327 . S
C1843 H1837 0.950 . S
C1843 C1842 1.327 . S
C1843 C1847 1.429 . S
C1844 C1827 1.574 . S
C1844 H1838 0.949 . S
C1844 C1848 1.368 . S
C1845 C1826 1.429 . S
C1845 C1839 1.429 . S
C1845 C1846 1.523 . S
C1846 C1827 1.368 . S
C1846 C1840 1.368 . S
C1846 C1845 1.523 . S
C1847 C1831 1.429 . S
C1847 C1843 1.429 . S
C1847 C1848 1.523 . S
C1848 C1832 1.368 . S
C1848 C1844 1.368 . S
C1848 C1847 1.523 . S
H1849 C1824 0.950 . S
H1850 C1826 0.950 . S
H1851 C1827 0.949 . S
H1852 C1829 0.950 . S
H1853 C1831 0.950 . S
C1854 C1855 1.349 . S
C1854 C1856 1.327 . S
C1854 H1879 0.950 . S
C1855 C1854 1.349 . S
C1855 C1871 1.349 . S
C1856 C1854 1.327 . S
C1856 C1875 1.429 . S
C1856 H1880 0.950 . S
C1857 C1874 1.574 . S
C1857 C1876 1.368 . S
C1857 H1881 0.949 1_545 S
H1858 C1862 0.949 . S
C1859 C1860 1.349 . S
C1859 C1861 1.327 . S
C1859 H1882 0.950 . S
C1860 C1859 1.349 . S
C1860 C1872 1.349 . S
C1861 C1859 1.327 . S
C1861 C1877 1.429 . S
C1861 H1883 0.950 . S
C1862 H1858 0.949 . S
C1862 C1870 1.574 . S
C1862 C1878 1.368 . S
H1863 C1871 0.950 . S
H1864 C1869 0.950 . S
H1865 C1870 0.949 . S
H1866 C1872 0.950 . S
H1867 C1873 0.950 . S
H1868 C1874 0.949 . S
C1869 H1864 0.950 . S
C1869 C1871 1.327 . S
C1869 C1875 1.429 . S
C1870 C1862 1.574 . S
C1870 H1865 0.949 . S
C1870 C1876 1.368 . S
C1871 C1855 1.349 . S
C1871 H1863 0.950 . S
C1871 C1869 1.327 . S
C1872 C1860 1.349 . S
C1872 H1866 0.950 . S
C1872 C1873 1.327 . S
C1873 H1867 0.950 . S
C1873 C1872 1.327 . S
C1873 C1877 1.429 . S
C1874 C1857 1.574 . S
C1874 H1868 0.949 . S
C1874 C1878 1.368 . S
C1875 C1856 1.429 . S
C1875 C1869 1.429 . S
C1875 C1876 1.523 1_565 S
C1876 C1857 1.368 . S
C1876 C1870 1.368 . S
C1876 C1875 1.523 1_545 S
C1877 C1861 1.429 . S
C1877 C1873 1.429 . S
C1877 C1878 1.523 . S
C1878 C1862 1.368 . S
C1878 C1874 1.368 . S
C1878 C1877 1.523 . S
H1879 C1854 0.950 . S
H1880 C1856 0.950 . S
H1881 C1857 0.949 1_565 S
H1882 C1859 0.950 . S
H1883 C1861 0.950 . S
C1884 C1885 1.349 . S
C1884 C1886 1.327 . S
C1884 H1909 0.950 . S
C1885 C1884 1.349 . S
C1885 C1901 1.349 . S
C1886 C1884 1.327 . S
C1886 C1905 1.429 . S
C1886 H1910 0.950 . S
C1887 C1904 1.574 . S
C1887 C1906 1.368 . S
C1887 H1911 0.949 . S
H1888 C1892 0.949 . S
C1889 C1890 1.349 . S
C1889 C1891 1.327 . S
C1889 H1912 0.950 . S
C1890 C1889 1.349 . S
C1890 C1902 1.349 . S
C1891 C1889 1.327 . S
C1891 C1907 1.429 . S
C1891 H1913 0.950 . S
C1892 H1888 0.949 . S
C1892 C1900 1.574 . S
C1892 C1908 1.368 . S
H1893 C1901 0.950 . S
H1894 C1899 0.950 . S
H1895 C1900 0.910 1_545 S
H1896 C1902 0.950 . S
H1897 C1903 0.950 . S
H1898 C1904 0.949 . S
C1899 H1894 0.950 . S
C1899 C1901 1.327 . S
C1899 C1905 1.429 . S
C1900 C1892 1.574 . S
C1900 H1895 0.910 1_565 S
C1900 C1906 1.368 . S
C1901 C1885 1.349 . S
C1901 H1893 0.950 . S
C1901 C1899 1.327 . S
C1902 C1890 1.349 . S
C1902 H1896 0.950 . S
C1902 C1903 1.327 . S
C1903 H1897 0.950 . S
C1903 C1902 1.327 . S
C1903 C1907 1.429 . S
C1904 C1887 1.574 . S
C1904 H1898 0.949 . S
C1904 C1908 1.368 . S
C1905 C1886 1.429 . S
C1905 C1899 1.429 . S
C1905 C1906 1.523 1_545 S
C1906 C1887 1.368 . S
C1906 C1900 1.368 . S
C1906 C1905 1.523 1_565 S
C1907 C1891 1.429 . S
C1907 C1903 1.429 . S
C1907 C1908 1.523 . S
C1908 C1892 1.368 . S
C1908 C1904 1.368 . S
C1908 C1907 1.523 . S
H1909 C1884 0.950 . S
H1910 C1886 0.950 . S
H1911 C1887 0.949 . S
H1912 C1889 0.950 . S
H1913 C1891 0.950 . S
C1914 C1915 1.349 . S
C1914 C1916 1.327 . S
C1914 H1939 0.950 . S
C1915 C1914 1.349 . S
C1915 C1931 1.349 . S
C1916 C1914 1.327 . S
C1916 C1935 1.429 . S
C1916 H1940 0.950 . S
C1917 C1934 1.574 . S
C1917 C1936 1.368 . S
C1917 H1941 0.949 . S
H1918 C1922 0.949 . S
C1919 C1920 1.349 . S
C1919 C1921 1.327 . S
C1919 H1942 0.950 . S
C1920 C1919 1.349 . S
C1920 C1932 1.349 . S
C1921 C1919 1.327 . S
C1921 C1937 1.429 . S
C1921 H1943 0.950 . S
C1922 H1918 0.949 . S
C1922 C1930 1.574 . S
C1922 C1938 1.368 . S
H1923 C1931 0.950 . S
H1924 C1929 0.950 . S
H1925 C1930 0.949 . S
H1926 C1932 0.950 . S
H1927 C1933 0.950 . S
H1928 C1934 0.949 . S
C1929 H1924 0.950 . S
C1929 C1931 1.327 . S
C1929 C1935 1.429 . S
C1930 C1922 1.574 . S
C1930 H1925 0.949 . S
C1930 C1936 1.368 . S
C1931 C1915 1.349 . S
C1931 H1923 0.950 . S
C1931 C1929 1.327 . S
C1932 C1920 1.349 . S
C1932 H1926 0.950 . S
C1932 C1933 1.327 . S
C1933 H1927 0.950 . S
C1933 C1932 1.327 . S
C1933 C1937 1.429 . S
C1934 C1917 1.574 . S
C1934 H1928 0.949 . S
C1934 C1938 1.368 . S
C1935 C1916 1.429 . S
C1935 C1929 1.429 . S
C1935 C1936 1.523 . S
C1936 C1917 1.368 . S
C1936 C1930 1.368 . S
C1936 C1935 1.523 . S
C1937 C1921 1.429 . S
C1937 C1933 1.429 . S
C1937 C1938 1.523 . S
C1938 C1922 1.368 . S
C1938 C1934 1.368 . S
C1938 C1937 1.523 . S
H1939 C1914 0.950 . S
H1940 C1916 0.950 . S
H1941 C1917 0.949 . S
H1942 C1919 0.950 . S
H1943 C1921 0.950 . S
C1944 C1945 1.349 . S
C1944 C1946 1.327 . S
C1944 H1969 0.950 . S
C1945 C1944 1.349 . S
C1945 C1961 1.349 . S
C1946 C1944 1.327 . S
C1946 C1965 1.429 . S
C1946 H1970 0.950 . S
C1947 C1964 1.574 . S
C1947 C1966 1.368 . S
C1947 H1971 0.949 . S
H1948 C1952 0.949 . S
C1949 C1950 1.349 . S
C1949 C1951 1.327 . S
C1949 H1972 0.950 . S
C1950 C1949 1.349 . S
C1950 C1962 1.349 . S
C1951 C1949 1.327 . S
C1951 C1967 1.429 . S
C1951 H1973 0.950 . S
C1952 H1948 0.949 . S
C1952 C1960 1.574 . S
C1952 C1968 1.368 . S
H1953 C1961 0.950 . S
H1954 C1959 0.950 . S
H1955 C1960 0.949 . S
H1956 C1962 0.950 . S
H1957 C1963 0.950 . S
H1958 C1964 0.949 . S
C1959 H1954 0.950 . S
C1959 C1961 1.327 . S
C1959 C1965 1.429 . S
C1960 C1952 1.574 . S
C1960 H1955 0.949 . S
C1960 C1966 1.368 . S
C1961 C1945 1.349 . S
C1961 H1953 0.950 . S
C1961 C1959 1.327 . S
C1962 C1950 1.349 . S
C1962 H1956 0.950 . S
C1962 C1963 1.327 . S
C1963 H1957 0.950 . S
C1963 C1962 1.327 . S
C1963 C1967 1.429 . S
C1964 C1947 1.574 . S
C1964 H1958 0.949 . S
C1964 C1968 1.368 . S
C1965 C1946 1.429 . S
C1965 C1959 1.429 . S
C1965 C1966 1.523 . S
C1966 C1947 1.368 . S
C1966 C1960 1.368 . S
C1966 C1965 1.523 . S
C1967 C1951 1.429 . S
C1967 C1963 1.429 . S
C1967 C1968 1.523 . S
C1968 C1952 1.368 . S
C1968 C1964 1.368 . S
C1968 C1967 1.523 . S
H1969 C1944 0.950 . S
H1970 C1946 0.950 . S
H1971 C1947 0.949 . S
H1972 C1949 0.950 . S
H1973 C1951 0.950 . S
C1974 C1975 1.349 . S
C1974 C1976 1.327 . S
C1974 H1999 0.950 . S
C1975 C1974 1.349 . S
C1975 C1991 1.349 . S
C1976 C1974 1.327 . S
C1976 C1995 1.429 . S
C1976 H2000 0.950 . S
C1977 C1994 1.574 . S
C1977 C1996 1.368 . S
C1977 H2001 0.946 . S
H1978 C1982 0.949 . S
C1979 C1980 1.349 . S
C1979 C1981 1.327 . S
C1979 H2002 0.950 . S
C1980 C1979 1.349 . S
C1980 C1992 1.349 . S
C1981 C1979 1.327 . S
C1981 C1997 1.429 . S
C1981 H2003 0.950 . S
C1982 H1978 0.949 . S
C1982 C1990 1.574 . S
C1982 C1998 1.368 . S
H1983 C1991 0.950 . S
H1984 C1989 0.950 . S
H1985 C1990 0.949 . S
H1986 C1992 0.950 . S
H1987 C1993 0.950 . S
H1988 C1994 0.949 . S
C1989 H1984 0.950 . S
C1989 C1991 1.327 . S
C1989 C1995 1.429 . S
C1990 C1982 1.574 . S
C1990 H1985 0.949 . S
C1990 C1996 1.368 . S
C1991 C1975 1.349 . S
C1991 H1983 0.950 . S
C1991 C1989 1.327 . S
C1992 C1980 1.349 . S
C1992 H1986 0.950 . S
C1992 C1993 1.327 . S
C1993 H1987 0.950 . S
C1993 C1992 1.327 . S
C1993 C1997 1.429 . S
C1994 C1977 1.574 . S
C1994 H1988 0.949 . S
C1994 C1998 1.368 . S
C1995 C1976 1.429 . S
C1995 C1989 1.429 . S
C1995 C1996 1.523 1_556 S
C1996 C1977 1.368 . S
C1996 C1990 1.368 . S
C1996 C1995 1.523 1_554 S
C1997 C1981 1.429 . S
C1997 C1993 1.429 . S
C1997 C1998 1.523 . S
C1998 C1982 1.368 . S
C1998 C1994 1.368 . S
C1998 C1997 1.523 . S
H1999 C1974 0.950 . S
H2000 C1976 0.950 . S
H2001 C1977 0.946 . S
H2002 C1979 0.950 . S
H2003 C1981 0.950 . S
C2004 C2005 1.349 . S
C2004 C2006 1.327 . S
C2004 H2029 0.950 . S
C2005 C2004 1.349 . S
C2005 C2021 1.349 . S
C2006 C2004 1.327 . S
C2006 C2025 1.429 . S
C2006 H2030 0.950 . S
C2007 C2024 1.574 . S
C2007 C2026 1.368 . S
C2007 H2031 0.949 . S
H2008 C2012 0.949 . S
C2009 C2010 1.349 . S
C2009 C2011 1.327 . S
C2009 H2032 0.950 . S
C2010 C2009 1.349 . S
C2010 C2022 1.349 . S
C2011 C2009 1.327 . S
C2011 C2027 1.429 . S
C2011 H2033 0.950 . S
C2012 H2008 0.949 . S
C2012 C2020 1.574 . S
C2012 C2028 1.368 . S
H2013 C2021 0.950 . S
H2014 C2019 0.950 . S
H2015 C2020 0.949 . S
H2016 C2022 0.950 . S
H2017 C2023 0.950 . S
H2018 C2024 0.949 . S
C2019 H2014 0.950 . S
C2019 C2021 1.327 . S
C2019 C2025 1.429 . S
C2020 C2012 1.574 . S
C2020 H2015 0.949 . S
C2020 C2026 1.368 . S
C2021 C2005 1.349 . S
C2021 H2013 0.950 . S
C2021 C2019 1.327 . S
C2022 C2010 1.349 . S
C2022 H2016 0.950 . S
C2022 C2023 1.327 . S
C2023 H2017 0.950 . S
C2023 C2022 1.327 . S
C2023 C2027 1.429 . S
C2024 C2007 1.574 . S
C2024 H2018 0.949 . S
C2024 C2028 1.368 . S
C2025 C2006 1.429 . S
C2025 C2019 1.429 . S
C2025 C2026 1.523 . S
C2026 C2007 1.368 . S
C2026 C2020 1.368 . S
C2026 C2025 1.523 . S
C2027 C2011 1.429 . S
C2027 C2023 1.429 . S
C2027 C2028 1.523 . S
C2028 C2012 1.368 . S
C2028 C2024 1.368 . S
C2028 C2027 1.523 . S
H2029 C2004 0.950 . S
H2030 C2006 0.950 . S
H2031 C2007 0.949 . S
H2032 C2009 0.950 . S
H2033 C2011 0.950 . S
C2034 C2035 1.349 . S
C2034 C2036 1.327 . S
C2034 H2059 0.950 . S
C2035 C2034 1.349 . S
C2035 C2051 1.349 . S
C2036 C2034 1.327 . S
C2036 C2055 1.429 . S
C2036 H2060 0.950 . S
C2037 C2054 1.574 . S
C2037 C2056 1.368 . S
C2037 H2061 0.949 . S
H2038 C2042 0.949 . S
C2039 C2040 1.349 . S
C2039 C2041 1.327 . S
C2039 H2062 0.950 . S
C2040 C2039 1.349 . S
C2040 C2052 1.349 . S
C2041 C2039 1.327 . S
C2041 C2057 1.429 . S
C2041 H2063 0.950 . S
C2042 H2038 0.949 . S
C2042 C2050 1.574 . S
C2042 C2058 1.368 . S
H2043 C2051 0.950 . S
H2044 C2049 0.950 . S
H2045 C2050 0.953 . S
H2046 C2052 0.950 . S
H2047 C2053 0.950 . S
H2048 C2054 0.949 . S
C2049 H2044 0.950 . S
C2049 C2051 1.327 . S
C2049 C2055 1.429 . S
C2050 C2042 1.574 . S
C2050 H2045 0.953 . S
C2050 C2056 1.368 . S
C2051 C2035 1.349 . S
C2051 H2043 0.950 . S
C2051 C2049 1.327 . S
C2052 C2040 1.349 . S
C2052 H2046 0.950 . S
C2052 C2053 1.327 . S
C2053 H2047 0.950 . S
C2053 C2052 1.327 . S
C2053 C2057 1.429 . S
C2054 C2037 1.574 . S
C2054 H2048 0.949 . S
C2054 C2058 1.368 . S
C2055 C2036 1.429 . S
C2055 C2049 1.429 . S
C2055 C2056 1.523 1_554 S
C2056 C2037 1.368 . S
C2056 C2050 1.368 . S
C2056 C2055 1.523 1_556 S
C2057 C2041 1.429 . S
C2057 C2053 1.429 . S
C2057 C2058 1.523 . S
C2058 C2042 1.368 . S
C2058 C2054 1.368 . S
C2058 C2057 1.523 . S
H2059 C2034 0.950 . S
H2060 C2036 0.950 . S
H2061 C2037 0.949 . S
H2062 C2039 0.950 . S
H2063 C2041 0.950 . S
C2064 C2065 1.349 . S
C2064 C2066 1.327 . S
C2064 H2089 0.950 . S
C2065 C2064 1.349 . S
C2065 C2081 1.349 . S
C2066 C2064 1.327 . S
C2066 C2085 1.429 . S
C2066 H2090 0.950 . S
C2067 C2084 1.574 . S
C2067 C2086 1.368 . S
C2067 H2091 0.949 . S
H2068 C2072 0.949 . S
C2069 C2070 1.349 . S
C2069 C2071 1.327 . S
C2069 H2092 0.950 . S
C2070 C2069 1.349 . S
C2070 C2082 1.349 . S
C2071 C2069 1.327 . S
C2071 C2087 1.429 . S
C2071 H2093 0.950 . S
C2072 H2068 0.949 . S
C2072 C2080 1.574 . S
C2072 C2088 1.368 . S
H2073 C2081 0.950 . S
H2074 C2079 0.950 . S
H2075 C2080 0.949 . S
H2076 C2082 0.950 . S
H2077 C2083 0.950 . S
H2078 C2084 0.949 . S
C2079 H2074 0.950 . S
C2079 C2081 1.327 . S
C2079 C2085 1.429 . S
C2080 C2072 1.574 . S
C2080 H2075 0.949 . S
C2080 C2086 1.368 . S
C2081 C2065 1.349 . S
C2081 H2073 0.950 . S
C2081 C2079 1.327 . S
C2082 C2070 1.349 . S
C2082 H2076 0.950 . S
C2082 C2083 1.327 . S
C2083 H2077 0.950 . S
C2083 C2082 1.327 . S
C2083 C2087 1.429 . S
C2084 C2067 1.574 . S
C2084 H2078 0.949 . S
C2084 C2088 1.368 . S
C2085 C2066 1.429 . S
C2085 C2079 1.429 . S
C2085 C2086 1.523 . S
C2086 C2067 1.368 . S
C2086 C2080 1.368 . S
C2086 C2085 1.523 . S
C2087 C2071 1.429 . S
C2087 C2083 1.429 . S
C2087 C2088 1.523 . S
C2088 C2072 1.368 . S
C2088 C2084 1.368 . S
C2088 C2087 1.523 . S
H2089 C2064 0.950 . S
H2090 C2066 0.950 . S
H2091 C2067 0.949 . S
H2092 C2069 0.950 . S
H2093 C2071 0.950 . S
C2094 C2095 1.349 . S
C2094 C2096 1.327 . S
C2094 H2119 0.950 . S
C2095 C2094 1.349 . S
C2095 C2111 1.349 . S
C2096 C2094 1.327 . S
C2096 C2115 1.429 . S
C2096 H2120 0.950 . S
C2097 C2114 1.574 . S
C2097 C2116 1.368 . S
C2097 H2121 0.949 . S
H2098 C2102 0.949 1_455 S
C2099 C2100 1.349 . S
C2099 C2101 1.327 . S
C2099 H2122 0.950 . S
C2100 C2099 1.349 . S
C2100 C2112 1.349 . S
C2101 C2099 1.327 . S
C2101 C2117 1.429 . S
C2101 H2123 0.950 . S
C2102 H2098 0.949 1_655 S
C2102 C2110 1.574 . S
C2102 C2118 1.368 . S
H2103 C2111 0.950 . S
H2104 C2109 0.950 . S
H2105 C2110 0.949 . S
H2106 C2112 0.950 . S
H2107 C2113 0.950 . S
H2108 C2114 0.949 . S
C2109 H2104 0.950 . S
C2109 C2111 1.327 . S
C2109 C2115 1.429 . S
C2110 C2102 1.574 . S
C2110 H2105 0.949 . S
C2110 C2116 1.368 . S
C2111 C2095 1.349 . S
C2111 H2103 0.950 . S
C2111 C2109 1.327 . S
C2112 C2100 1.349 . S
C2112 H2106 0.950 . S
C2112 C2113 1.327 . S
C2113 H2107 0.950 . S
C2113 C2112 1.327 . S
C2113 C2117 1.429 . S
C2114 C2097 1.574 . S
C2114 H2108 0.949 . S
C2114 C2118 1.368 . S
C2115 C2096 1.429 . S
C2115 C2109 1.429 . S
C2115 C2116 1.523 . S
C2116 C2097 1.368 . S
C2116 C2110 1.368 . S
C2116 C2115 1.523 . S
C2117 C2101 1.429 . S
C2117 C2113 1.429 . S
C2117 C2118 1.523 1_455 S
C2118 C2102 1.368 . S
C2118 C2114 1.368 . S
C2118 C2117 1.523 1_655 S
H2119 C2094 0.950 . S
H2120 C2096 0.950 . S
H2121 C2097 0.949 . S
H2122 C2099 0.950 . S
H2123 C2101 0.950 . S
C2124 C2125 1.349 . S
C2124 C2126 1.327 . S
C2124 H2149 0.950 . S
C2125 C2124 1.349 . S
C2125 C2141 1.349 . S
C2126 C2124 1.327 . S
C2126 C2145 1.429 . S
C2126 H2150 0.950 . S
C2127 C2144 1.574 . S
C2127 C2146 1.368 . S
C2127 H2151 0.949 . S
H2128 C2132 0.949 . S
C2129 C2130 1.349 . S
C2129 C2131 1.327 . S
C2129 H2152 0.950 . S
C2130 C2129 1.349 . S
C2130 C2142 1.349 . S
C2131 C2129 1.327 . S
C2131 C2147 1.429 . S
C2131 H2153 0.950 . S
C2132 H2128 0.949 . S
C2132 C2140 1.574 . S
C2132 C2148 1.368 . S
H2133 C2141 0.950 . S
H2134 C2139 0.950 . S
H2135 C2140 0.949 . S
H2136 C2142 0.950 . S
H2137 C2143 0.950 . S
H2138 C2144 0.949 1_655 S
C2139 H2134 0.950 . S
C2139 C2141 1.327 . S
C2139 C2145 1.429 . S
C2140 C2132 1.574 . S
C2140 H2135 0.949 . S
C2140 C2146 1.368 . S
C2141 C2125 1.349 . S
C2141 H2133 0.950 . S
C2141 C2139 1.327 . S
C2142 C2130 1.349 . S
C2142 H2136 0.950 . S
C2142 C2143 1.327 . S
C2143 H2137 0.950 . S
C2143 C2142 1.327 . S
C2143 C2147 1.429 . S
C2144 C2127 1.574 . S
C2144 H2138 0.949 1_455 S
C2144 C2148 1.368 . S
C2145 C2126 1.429 . S
C2145 C2139 1.429 . S
C2145 C2146 1.523 . S
C2146 C2127 1.368 . S
C2146 C2140 1.368 . S
C2146 C2145 1.523 . S
C2147 C2131 1.429 . S
C2147 C2143 1.429 . S
C2147 C2148 1.523 1_655 S
C2148 C2132 1.368 . S
C2148 C2144 1.368 . S
C2148 C2147 1.523 1_455 S
H2149 C2124 0.950 . S
H2150 C2126 0.950 . S
H2151 C2127 0.949 . S
H2152 C2129 0.950 . S
H2153 C2131 0.950 . S
C2154 C2155 1.349 . S
C2154 C2156 1.327 . S
C2154 H2179 0.950 . S
C2155 C2154 1.349 . S
C2155 C2171 1.349 . S
C2156 C2154 1.327 . S
C2156 C2175 1.429 . S
C2156 H2180 0.950 . S
C2157 C2174 1.574 . S
C2157 C2176 1.368 . S
C2157 H2181 0.949 . S
H2158 C2162 0.949 . S
C2159 C2160 1.349 . S
C2159 C2161 1.327 . S
C2159 H2182 0.950 . S
C2160 C2159 1.349 . S
C2160 C2172 1.349 . S
C2161 C2159 1.327 . S
C2161 C2177 1.429 . S
C2161 H2183 0.950 . S
C2162 H2158 0.949 . S
C2162 C2170 1.574 . S
C2162 C2178 1.368 . S
H2163 C2171 0.950 . S
H2164 C2169 0.950 . S
H2165 C2170 0.949 . S
H2166 C2172 0.950 . S
H2167 C2173 0.950 . S
H2168 C2174 0.949 . S
C2169 H2164 0.950 . S
C2169 C2171 1.327 . S
C2169 C2175 1.429 . S
C2170 C2162 1.574 . S
C2170 H2165 0.949 . S
C2170 C2176 1.368 . S
C2171 C2155 1.349 . S
C2171 H2163 0.950 . S
C2171 C2169 1.327 . S
C2172 C2160 1.349 . S
C2172 H2166 0.950 . S
C2172 C2173 1.327 . S
C2173 H2167 0.950 . S
C2173 C2172 1.327 . S
C2173 C2177 1.429 . S
C2174 C2157 1.574 . S
C2174 H2168 0.949 . S
C2174 C2178 1.368 . S
C2175 C2156 1.429 . S
C2175 C2169 1.429 . S
C2175 C2176 1.523 . S
C2176 C2157 1.368 . S
C2176 C2170 1.368 . S
C2176 C2175 1.523 . S
C2177 C2161 1.429 . S
C2177 C2173 1.429 . S
C2177 C2178 1.523 . S
C2178 C2162 1.368 . S
C2178 C2174 1.368 . S
C2178 C2177 1.523 . S
H2179 C2154 0.950 . S
H2180 C2156 0.950 . S
H2181 C2157 0.949 . S
H2182 C2159 0.950 . S
H2183 C2161 0.950 . S
C2184 C2185 1.349 . S
C2184 C2186 1.327 . S
C2184 H2209 0.950 . S
C2185 C2184 1.349 . S
C2185 C2201 1.349 . S
C2186 C2184 1.327 . S
C2186 C2205 1.429 . S
C2186 H2210 0.950 . S
C2187 C2204 1.574 . S
C2187 C2206 1.368 . S
C2187 H2211 0.949 . S
H2188 C2192 0.949 . S
C2189 C2190 1.349 . S
C2189 C2191 1.327 . S
C2189 H2212 0.950 . S
C2190 C2189 1.349 . S
C2190 C2202 1.349 . S
C2191 C2189 1.327 . S
C2191 C2207 1.429 . S
C2191 H2213 0.950 . S
C2192 H2188 0.949 . S
C2192 C2200 1.574 . S
C2192 C2208 1.368 . S
H2193 C2201 0.950 . S
H2194 C2199 0.950 . S
H2195 C2200 0.949 . S
H2196 C2202 0.950 . S
H2197 C2203 0.950 . S
H2198 C2204 0.949 . S
C2199 H2194 0.950 . S
C2199 C2201 1.327 . S
C2199 C2205 1.429 . S
C2200 C2192 1.574 . S
C2200 H2195 0.949 . S
C2200 C2206 1.368 . S
C2201 C2185 1.349 . S
C2201 H2193 0.950 . S
C2201 C2199 1.327 . S
C2202 C2190 1.349 . S
C2202 H2196 0.950 . S
C2202 C2203 1.327 . S
C2203 H2197 0.950 . S
C2203 C2202 1.327 . S
C2203 C2207 1.429 . S
C2204 C2187 1.574 . S
C2204 H2198 0.949 . S
C2204 C2208 1.368 . S
C2205 C2186 1.429 . S
C2205 C2199 1.429 . S
C2205 C2206 1.523 . S
C2206 C2187 1.368 . S
C2206 C2200 1.368 . S
C2206 C2205 1.523 . S
C2207 C2191 1.429 . S
C2207 C2203 1.429 . S
C2207 C2208 1.523 . S
C2208 C2192 1.368 . S
C2208 C2204 1.368 . S
C2208 C2207 1.523 . S
H2209 C2184 0.950 . S
H2210 C2186 0.950 . S
H2211 C2187 0.949 . S
H2212 C2189 0.950 . S
H2213 C2191 0.950 . S
C2214 C2215 1.349 . S
C2214 C2216 1.327 . S
C2214 H2239 0.950 . S
C2215 C2214 1.349 . S
C2215 C2231 1.349 . S
C2216 C2214 1.327 . S
C2216 C2235 1.429 . S
C2216 H2240 0.950 . S
C2217 C2234 1.574 . S
C2217 C2236 1.368 . S
C2217 H2241 0.949 . S
H2218 C2222 0.949 . S
C2219 C2220 1.349 . S
C2219 C2221 1.327 . S
C2219 H2242 0.950 . S
C2220 C2219 1.349 . S
C2220 C2232 1.349 . S
C2221 C2219 1.327 . S
C2221 C2237 1.429 . S
C2221 H2243 0.950 . S
C2222 H2218 0.949 . S
C2222 C2230 1.574 . S
C2222 C2238 1.337 1_565 S
H2223 C2231 0.950 . S
H2224 C2229 0.950 . S
H2225 C2230 0.949 . S
H2226 C2232 0.950 . S
H2227 C2233 0.950 . S
H2228 C2234 0.949 1_545 S
C2229 H2224 0.950 . S
C2229 C2231 1.327 . S
C2229 C2235 1.429 . S
C2230 C2222 1.574 . S
C2230 H2225 0.949 . S
C2230 C2236 1.368 . S
C2231 C2215 1.349 . S
C2231 H2223 0.950 . S
C2231 C2229 1.327 . S
C2232 C2220 1.349 . S
C2232 H2226 0.950 . S
C2232 C2233 1.327 . S
C2233 H2227 0.950 . S
C2233 C2232 1.327 . S
C2233 C2237 1.429 . S
C2234 C2217 1.574 . S
C2234 H2228 0.949 1_565 S
C2234 C2238 1.364 1_565 S
C2235 C2216 1.429 . S
C2235 C2229 1.429 . S
C2235 C2236 1.523 . S
C2236 C2217 1.368 . S
C2236 C2230 1.368 . S
C2236 C2235 1.523 . S
C2237 C2221 1.429 . S
C2237 C2233 1.429 . S
C2237 C2238 1.572 . S
C2238 C2222 1.337 1_545 S
C2238 C2234 1.364 1_545 S
C2238 C2237 1.572 . S
H2239 C2214 0.950 . S
H2240 C2216 0.950 . S
H2241 C2217 0.949 . S
H2242 C2219 0.950 . S
H2243 C2221 0.950 . S
C2244 C2245 1.349 . S
C2244 C2246 1.327 . S
C2244 H2269 0.950 . S
C2245 C2244 1.349 . S
C2245 C2261 1.349 . S
C2246 C2244 1.327 . S
C2246 C2265 1.429 . S
C2246 H2270 0.950 . S
C2247 C2264 1.574 . S
C2247 C2266 1.359 1_545 S
C2247 H2271 0.949 1_545 S
H2248 C2252 0.949 . S
C2249 C2250 1.349 . S
C2249 C2251 1.327 . S
C2249 H2272 0.950 . S
C2250 C2249 1.349 . S
C2250 C2262 1.349 . S
C2251 C2249 1.327 . S
C2251 C2267 1.429 . S
C2251 H2273 0.950 . S
C2252 H2248 0.949 . S
C2252 C2260 1.574 . S
C2252 C2268 1.368 . S
H2253 C2261 0.950 . S
H2254 C2259 0.950 . S
H2255 C2260 0.949 . S
H2256 C2262 0.950 . S
H2257 C2263 0.950 . S
H2258 C2264 0.949 . S
C2259 H2254 0.950 . S
C2259 C2261 1.327 . S
C2259 C2265 1.429 . S
C2260 C2252 1.574 . S
C2260 H2255 0.949 . S
C2260 C2266 1.342 1_545 S
C2261 C2245 1.349 . S
C2261 H2253 0.950 . S
C2261 C2259 1.327 . S
C2262 C2250 1.349 . S
C2262 H2256 0.950 . S
C2262 C2263 1.327 . S
C2263 H2257 0.950 . S
C2263 C2262 1.327 . S
C2263 C2267 1.429 . S
C2264 C2247 1.574 . S
C2264 H2258 0.949 . S
C2264 C2268 1.368 . S
C2265 C2246 1.429 . S
C2265 C2259 1.429 . S
C2265 C2266 1.572 . S
C2266 C2247 1.359 1_565 S
C2266 C2260 1.342 1_565 S
C2266 C2265 1.572 . S
C2267 C2251 1.429 . S
C2267 C2263 1.429 . S
C2267 C2268 1.523 . S
C2268 C2252 1.368 . S
C2268 C2264 1.368 . S
C2268 C2267 1.523 . S
H2269 C2244 0.950 . S
H2270 C2246 0.950 . S
H2271 C2247 0.949 1_565 S
H2272 C2249 0.950 . S
H2273 C2251 0.950 . S
C2274 C2275 1.349 . S
C2274 C2276 1.327 . S
C2274 H2299 0.950 . S
C2275 C2274 1.349 . S
C2275 C2291 1.349 . S
C2276 C2274 1.327 . S
C2276 C2295 1.429 . S
C2276 H2300 0.950 . S
C2277 C2294 1.574 . S
C2277 C2296 1.368 . S
C2277 H2301 0.949 . S
H2278 C2282 0.949 . S
C2279 C2280 1.349 . S
C2279 C2281 1.327 . S
C2279 H2302 0.950 . S
C2280 C2279 1.349 . S
C2280 C2292 1.349 . S
C2281 C2279 1.327 . S
C2281 C2297 1.429 . S
C2281 H2303 0.950 . S
C2282 H2278 0.949 . S
C2282 C2290 1.574 . S
C2282 C2298 1.368 . S
H2283 C2291 0.950 . S
H2284 C2289 0.950 . S
H2285 C2290 0.949 . S
H2286 C2292 0.950 . S
H2287 C2293 0.950 . S
H2288 C2294 0.949 . S
C2289 H2284 0.950 . S
C2289 C2291 1.327 . S
C2289 C2295 1.429 . S
C2290 C2282 1.574 . S
C2290 H2285 0.949 . S
C2290 C2296 1.368 . S
C2291 C2275 1.349 . S
C2291 H2283 0.950 . S
C2291 C2289 1.327 . S
C2292 C2280 1.349 . S
C2292 H2286 0.950 . S
C2292 C2293 1.327 . S
C2293 H2287 0.950 . S
C2293 C2292 1.327 . S
C2293 C2297 1.429 . S
C2294 C2277 1.574 . S
C2294 H2288 0.949 . S
C2294 C2298 1.368 . S
C2295 C2276 1.429 . S
C2295 C2289 1.429 . S
C2295 C2296 1.523 . S
C2296 C2277 1.368 . S
C2296 C2290 1.368 . S
C2296 C2295 1.523 . S
C2297 C2281 1.429 . S
C2297 C2293 1.429 . S
C2297 C2298 1.523 . S
C2298 C2282 1.368 . S
C2298 C2294 1.368 . S
C2298 C2297 1.523 . S
H2299 C2274 0.950 . S
H2300 C2276 0.950 . S
H2301 C2277 0.949 . S
H2302 C2279 0.950 . S
H2303 C2281 0.950 . S
C865 C291 0.803 . S
C870 C3 0.801 . S
C895 C39 0.801 . S
C900 C399 0.803 . S
C925 C75 0.801 . S
C930 C327 0.803 . S
C955 C111 0.801 . S
C960 C363 0.803 . S
C985 C147 0.831 . S
C990 C2 0.824 . S
C1015 C38 0.824 . S
C1020 C183 0.831 . S
C1045 C219 0.831 . S
C1050 C74 0.824 . S
C1075 C110 0.824 . S
C1080 C255 0.831 . S
C1105 C146 0.883 . S
C1110 C290 0.875 . S
C1135 C218 0.883 . S
C1140 C326 0.875 . S
C1165 C362 0.875 . S
C1170 C254 0.883 . S
C1195 C182 0.883 . S
C1200 C398 0.875 . S
C1225 C722 0.822 . S
C1230 C435 0.827 . S
C1255 C471 0.827 . S
C1260 C830 0.822 . S
C1285 C507 0.827 . S
C1290 C758 0.822 . S
C1315 C794 0.822 . S
C1320 C543 0.827 . S
C1345 C579 0.850 . S
C1350 C434 0.844 . S
C1375 C470 0.844 . S
C1380 C615 0.850 . S
C1405 C506 0.844 . S
C1410 C651 0.850 . S
C1435 C687 0.850 . S
C1440 C542 0.844 . S
C1465 C723 0.833 . S
C1470 C578 0.828 . S
C1495 C650 0.828 . S
C1500 C759 0.833 . S
C1525 C686 0.828 . S
C1530 C795 0.833 . S
C1555 C831 0.833 . S
C1560 C614 0.828 . S
C1585 C806 1.297 . S
C1590 C4 1.310 . S
C1615 C770 1.297 . S
C1620 C40 1.310 . S
C1645 C842 1.297 . S
C1650 C76 1.310 . S
C1675 C112 1.310 . S
C1680 C734 1.297 . S
C1705 C148 1.335 . S
C1710 C482 1.318 . S
C1735 C446 1.318 . S
C1740 C184 1.335 . S
C1765 C554 1.318 . S
C1770 C220 1.335 . S
C1795 C518 1.318 . S
C1800 C256 1.335 . S
C1825 C302 1.293 . S
C1830 C662 1.284 . S
C1855 C590 1.284 . S
C1860 C338 1.293 . S
C1885 C626 1.284 . S
C1890 C374 1.293 . S
C1915 C698 1.284 . S
C1920 C410 1.293 . S
C1945 C364 1.385 . S
C1950 C436 1.376 . S
C1975 C328 1.385 . S
C1980 C472 1.376 . S
C2005 C508 1.376 . S
C2010 C400 1.385 . S
C2035 C292 1.385 . S
C2040 C544 1.376 . S
C2065 C580 1.344 . S
C2070 C50 1.332 . S
C2095 C616 1.344 . S
C2100 C14 1.332 . S
C2125 C652 1.344 . S
C2130 C122 1.332 . S
C2155 C688 1.344 . S
C2160 C86 1.332 . S
C2185 C724 1.348 . S
C2190 C230 1.334 . S
C2215 C760 1.348 . S
C2220 C158 1.334 . S
C2245 C194 1.334 . S
C2250 C796 1.348 . S
C2275 C832 1.348 . S
C2280 C266 1.334 . S
