# Generated by pormake.
# Topology mmt, (4)-cn, num edge types: 1
# Building blocks:
#     Node 0, Type 0, BuildingBlock: QUQFOY_clean_sbu_1, # of connection points: 4
#     Node 1, Type 0, BuildingBlock: QUQFOY_clean_sbu_1, # of connection points: 4
#     Node 2, Type 0, BuildingBlock: QUQFOY_clean_sbu_1, # of connection points: 4
#     Node 3, Type 0, BuildingBlock: QUQFOY_clean_sbu_1, # of connection points: 4
#     Node 4, Type 0, BuildingBlock: QUQFOY_clean_sbu_1, # of connection points: 4
#     Node 5, Type 0, BuildingBlock: QUQFOY_clean_sbu_1, # of connection points: 4
#     Node 6, Type 0, BuildingBlock: QUQFOY_clean_sbu_1, # of connection points: 4
#     Node 7, Type 0, BuildingBlock: QUQFOY_clean_sbu_1, # of connection points: 4
#     Edge 8, Type (0, 0), BuildingBlock: XUDNAN_clean_linker_2, # of connection points: 2
#     Edge 9, Type (0, 0), BuildingBlock: XUDNAN_clean_linker_2, # of connection points: 2
#     Edge 10, Type (0, 0), BuildingBlock: XUDNAN_clean_linker_2, # of connection points: 2
#     Edge 11, Type (0, 0), BuildingBlock: XUDNAN_clean_linker_2, # of connection points: 2
#     Edge 12, Type (0, 0), BuildingBlock: XUDNAN_clean_linker_2, # of connection points: 2
#     Edge 13, Type (0, 0), BuildingBlock: XUDNAN_clean_linker_2, # of connection points: 2
#     Edge 14, Type (0, 0), BuildingBlock: XUDNAN_clean_linker_2, # of connection points: 2
#     Edge 15, Type (0, 0), BuildingBlock: XUDNAN_clean_linker_2, # of connection points: 2
#     Edge 16, Type (0, 0), BuildingBlock: XUDNAN_clean_linker_2, # of connection points: 2
#     Edge 17, Type (0, 0), BuildingBlock: XUDNAN_clean_linker_2, # of connection points: 2
#     Edge 18, Type (0, 0), BuildingBlock: XUDNAN_clean_linker_2, # of connection points: 2
#     Edge 19, Type (0, 0), BuildingBlock: XUDNAN_clean_linker_2, # of connection points: 2
#     Edge 20, Type (0, 0), BuildingBlock: XUDNAN_clean_linker_2, # of connection points: 2
#     Edge 21, Type (0, 0), BuildingBlock: XUDNAN_clean_linker_2, # of connection points: 2
#     Edge 22, Type (0, 0), BuildingBlock: XUDNAN_clean_linker_2, # of connection points: 2
#     Edge 23, Type (0, 0), BuildingBlock: XUDNAN_clean_linker_2, # of connection points: 2
# Relax obj value: 0.022
# Max RMSD: 0.102
# Mean RMSD: 0.102
data_MOF--net-mmt--node1-QUQFOY_clean_sbu_1--edge1-XUDNAN_clean_linker_2
_symmetry_space_group_name_H-M    P1
_symmetry_Int_Tables_number       1
_symmetry_cell_setting            triclinic
loop_
_symmetry_equiv_pos_as_xyz
'x, y, z'
_cell_length_a     22.10122
_cell_length_b     42.187258
_cell_length_c     46.046452
_cell_angle_alpha  89.86184
_cell_angle_beta   90.004353
_cell_angle_gamma 90.068373
loop_
_atom_site_label
_atom_site_type_symbol
_atom_site_fract_x
_atom_site_fract_y
_atom_site_fract_z
_atom_type_partial_charge
O0 O 0.22105 0.57419 0.33368 0.0
Cd1 Cd 0.14231 0.59861 0.3418 0.0
Cd2 Cd 0.11694 0.53543 0.36469 0.0
O3 O 0.20402 0.52602 0.35093 0.0
O4 O 0.16534 0.64142 0.3266 0.0
O5 O 0.14308 0.6331 0.37259 0.0
C6 C 0.16077 0.65242 0.35252 0.0
C7 C 0.08288 0.51625 0.40969 0.0
C8 C 0.23831 0.5459 0.33826 0.0
C9 C 0.03991 0.56079 0.31514 0.0
O10 O 0.05308 0.53826 0.33239 0.0
O11 O 0.06817 0.58707 0.31626 0.0
O12 O 0.092 0.49764 0.38799 0.0
O13 O 0.09453 0.54604 0.40612 0.0
O14 O 0.28593 0.95233 0.32462 0.0
Cd15 Cd 0.35153 0.92169 0.33932 0.0
Cd16 Cd 0.3708 0.97317 0.37938 0.0
O17 O 0.29496 0.98978 0.35784 0.0
O18 O 0.32845 0.87887 0.32464 0.0
O19 O 0.33185 0.8907 0.37138 0.0
C20 C 0.32042 0.87022 0.35126 0.0
C21 C 0.38918 0.99271 0.42656 0.0
C22 C 0.26939 0.9787 0.33528 0.0
C23 C 0.46978 0.95434 0.33537 0.0
O24 O 0.44951 0.97162 0.35572 0.0
O25 O 0.4385 0.93157 0.32533 0.0
O26 O 0.38966 1.01077 0.40407 0.0
O27 O 0.37569 0.96326 0.42268 0.0
O28 O 0.71416 0.4535 0.19231 0.0
Cd29 Cd 0.63828 0.42693 0.18266 0.0
Cd30 Cd 0.61945 0.48138 0.14894 0.0
O31 O 0.70808 0.49134 0.15928 0.0
O32 O 0.65971 0.38434 0.19865 0.0
O33 O 0.64253 0.39258 0.15204 0.0
C34 C 0.65811 0.37335 0.17259 0.0
C35 C 0.58149 0.49882 0.10377 0.0
C36 C 0.73599 0.47809 0.18016 0.0
C37 C 0.54201 0.46919 0.20307 0.0
O38 O 0.56142 0.48772 0.18336 0.0
O39 O 0.56139 0.4409 0.20494 0.0
O40 O 0.59673 0.51827 0.12394 0.0
O41 O 0.58908 0.46897 0.1088 0.0
O42 O 0.79239 0.0789 0.2128 0.0
Cd43 Cd 0.85466 0.10564 0.19024 0.0
Cd44 Cd 0.86769 0.04852 0.16547 0.0
O45 O 0.78986 0.03485 0.1871 0.0
O46 O 0.83478 0.14966 0.20309 0.0
O47 O 0.82922 0.13482 0.15731 0.0
C48 C 0.82187 0.15665 0.17659 0.0
C49 C 0.88284 0.04553 0.11556 0.0
C50 C 0.77096 0.05137 0.2083 0.0
C51 C 0.96801 0.07163 0.20439 0.0
O52 O 0.94432 0.04845 0.19092 0.0
O53 O 0.94228 0.09859 0.20434 0.0
O54 O 0.88446 0.02041 0.13163 0.0
O55 O 0.86941 0.0722 0.12779 0.0
O56 O 0.7755 0.4524 0.69533 0.0
Cd57 Cd 0.85 0.42413 0.68802 0.0
Cd58 Cd 0.86621 0.47402 0.64899 0.0
O59 O 0.77912 0.48693 0.65933 0.0
O60 O 0.83107 0.38926 0.71576 0.0
O61 O 0.83755 0.3811 0.6687 0.0
C62 C 0.82632 0.37005 0.69428 0.0
C63 C 0.90086 0.47308 0.60099 0.0
C64 C 0.75274 0.4757 0.68162 0.0
C65 C 0.94912 0.46905 0.70125 0.0
O66 O 0.92778 0.4857 0.68063 0.0
O67 O 0.92972 0.44111 0.70582 0.0
O68 O 0.891 0.49943 0.6143 0.0
O69 O 0.8894 0.44702 0.61477 0.0
O70 O 0.70711 0.07308 0.69576 0.0
Cd71 Cd 0.62988 0.10016 0.69298 0.0
Cd72 Cd 0.59954 0.03927 0.66602 0.0
O73 O 0.68667 0.02631 0.67654 0.0
O74 O 0.65722 0.13479 0.7192 0.0
O75 O 0.63732 0.14355 0.67315 0.0
C76 C 0.65565 0.1543 0.69782 0.0
C77 C 0.56278 0.03837 0.61866 0.0
C78 C 0.72307 0.04512 0.6891 0.0
C79 C 0.52637 0.05988 0.71753 0.0
O80 O 0.53813 0.03813 0.69935 0.0
O81 O 0.55516 0.08601 0.71704 0.0
O82 O 0.56801 0.01259 0.63364 0.0
O83 O 0.58012 0.06467 0.63047 0.0
O84 O 0.26785 0.57681 0.83136 0.0
Cd85 Cd 0.34559 0.6028 0.8373 0.0
Cd86 Cd 0.3688 0.54133 0.86382 0.0
O87 O 0.28231 0.52955 0.85089 0.0
O88 O 0.32313 0.63859 0.81121 0.0
O89 O 0.33706 0.64557 0.85797 0.0
C90 C 0.3223 0.65732 0.83309 0.0
C91 C 0.39977 0.5408 0.91212 0.0
C92 C 0.24908 0.54906 0.8372 0.0
C93 C 0.44904 0.56178 0.81456 0.0
O94 O 0.43384 0.5398 0.83203 0.0
O95 O 0.42208 0.58841 0.81488 0.0
O96 O 0.39564 0.51484 0.8974 0.0
O97 O 0.3846 0.56704 0.89946 0.0
O98 O 0.19615 0.95458 0.83759 0.0
Cd99 Cd 0.12154 0.92582 0.84341 0.0
Cd100 Cd 0.0989 0.98218 0.87943 0.0
O101 O 0.18833 0.99191 0.8709 0.0
O102 O 0.14506 0.8918 0.81574 0.0
O103 O 0.13377 0.88233 0.86236 0.0
C104 C 0.14821 0.87208 0.83693 0.0
C105 C 0.05713 0.99994 0.92359 0.0
C106 C 0.21745 0.97879 0.85042 0.0
C107 C 0.02463 0.96966 0.82437 0.0
O108 O 0.04382 0.9884 0.84387 0.0
O109 O 0.04358 0.94129 0.82292 0.0
O110 O 0.07388 0.01924 0.9035 0.0
O111 O 0.06539 0.97007 0.9191 0.0
H112 H 0.26927 0.48761 0.3161 0.0
H113 H 0.33762 0.58267 0.33097 0.0
H114 H 0.42763 0.5706 0.30159 0.0
H115 H 0.42207 0.44688 0.31363 0.0
H116 H 0.39796 0.42072 0.28497 0.0
H117 H 0.34406 0.43459 0.31142 0.0
H118 H 0.27654 0.45602 0.26987 0.0
H119 H 0.33054 0.44278 0.24332 0.0
H120 H 0.30786 0.48379 0.24411 0.0
H121 H 0.49901 0.55265 0.26483 0.0
H122 H 0.55623 0.52745 0.22546 0.0
H123 H 0.4465 0.44251 0.23392 0.0
C124 C 0.30448 0.50536 0.3141 0.0
C125 C 0.29693 0.53599 0.326 0.0
C126 C 0.34279 0.55904 0.32214 0.0
C127 C 0.39407 0.55239 0.30551 0.0
C128 C 0.39897 0.52254 0.29296 0.0
C129 C 0.35613 0.49912 0.29732 0.0
C130 C 0.3702 0.47008 0.27901 0.0
C131 C 0.38444 0.44137 0.29842 0.0
C132 C 0.31819 0.46276 0.25783 0.0
C133 C 0.42624 0.48142 0.26296 0.0
C134 C 0.44181 0.51174 0.27157 0.0
C135 C 0.48821 0.52867 0.25832 0.0
C136 C 0.51999 0.51425 0.23576 0.0
C137 C 0.50576 0.48306 0.22672 0.0
C138 C 0.45869 0.46623 0.24072 0.0
H139 H 0.03448 0.01714 0.20894 0.0
H140 H 0.01909 0.11224 0.24402 0.0
H141 H 0.09503 0.09893 0.28147 0.0
H142 H 0.04421 0.97744 0.27527 0.0
H143 H 0.09841 0.94835 0.26337 0.0
H144 H 0.04739 0.96608 0.23758 0.0
H145 H 0.13791 0.98452 0.20595 0.0
H146 H 0.18923 0.96627 0.23136 0.0
H147 H 0.19755 1.00762 0.22224 0.0
H148 H 0.16591 0.07351 0.31778 0.0
H149 H 0.23426 0.0398 0.34693 0.0
H150 H 0.20245 0.96157 0.28768 0.0
C151 C 0.04791 0.03545 0.22407 0.0
C152 C 0.02079 0.06577 0.22348 0.0
C153 C 0.03947 0.08891 0.24388 0.0
C154 C 0.08233 0.08152 0.26535 0.0
C155 C 0.10638 0.05099 0.26596 0.0
C156 C 0.09055 0.02851 0.24556 0.0
C157 C 0.12156 0.99717 0.2514 0.0
C158 C 0.07511 0.97071 0.25725 0.0
C159 C 0.1641 0.98839 0.22624 0.0
C160 C 0.15664 1.00537 0.27856 0.0
C161 C 0.14728 0.03648 0.28667 0.0
C162 C 0.17401 0.04919 0.31147 0.0
C163 C 0.21245 0.02977 0.328 0.0
C164 C 0.22386 0.99801 0.31962 0.0
C165 C 0.19485 0.98572 0.29471 0.0
H166 H 0.80138 0.45783 0.22702 0.0
H167 H 0.78915 0.53462 0.16433 0.0
H168 H 0.86634 0.56454 0.19189 0.0
H169 H 0.81173 0.50549 0.28866 0.0
H170 H 0.86416 0.48019 0.3077 0.0
H171 H 0.8127 0.46348 0.28159 0.0
H172 H 0.90248 0.43922 0.25307 0.0
H173 H 0.95422 0.45532 0.27942 0.0
H174 H 0.96379 0.46446 0.24144 0.0
H175 H 0.9396 0.58773 0.22889 0.0
H176 H 0.0085 0.60009 0.2697 0.0
H177 H 0.96964 0.50802 0.30781 0.0
C178 C 0.81573 0.48063 0.21862 0.0
C179 C 0.78925 0.49379 0.1934 0.0
C180 C 0.80904 0.5239 0.18347 0.0
C181 C 0.85264 0.54116 0.19907 0.0
C182 C 0.87607 0.52792 0.22446 0.0
C183 C 0.85878 0.49815 0.23392 0.0
C184 C 0.88876 0.4896 0.26239 0.0
C185 C 0.84151 0.4844 0.2865 0.0
C186 C 0.92976 0.46043 0.25885 0.0
C187 C 0.92534 0.51931 0.26766 0.0
C188 C 0.91754 0.54121 0.24562 0.0
C189 C 0.94633 0.57064 0.24616 0.0
C190 C 0.98509 0.57752 0.26952 0.0
C191 C -0.00539 0.55505 0.292 0.0
C192 C 0.96357 0.52577 0.29103 0.0
H193 H 0.68292 1.00457 0.20291 0.0
H194 H 0.77239 0.06591 0.26526 0.0
H195 H 0.71419 0.04163 0.30481 0.0
H196 H 0.53709 1.01046 0.236 0.0
H197 H 0.51531 0.97007 0.2287 0.0
H198 H 0.56838 0.98988 0.2052 0.0
H199 H 0.64548 0.94459 0.21374 0.0
H200 H 0.59281 0.92487 0.23764 0.0
H201 H 0.66773 0.93459 0.2503 0.0
H202 H 0.64671 0.01299 0.33744 0.0
H203 H 0.56073 0.98669 0.36121 0.0
H204 H 0.50819 0.94476 0.27893 0.0
C205 C 0.69027 0.01266 0.22493 0.0
C206 C 0.73225 0.03711 0.231 0.0
C207 C 0.74018 0.04741 0.26002 0.0
C208 C 0.70786 0.03351 0.28274 0.0
C209 C 0.66715 1.00946 0.27619 0.0
C210 C 0.65716 0.9994 0.24805 0.0
C211 C 0.60622 0.97519 0.24712 0.0
C212 C 0.55364 0.98713 0.22814 0.0
C213 C 0.62947 0.94289 0.23657 0.0
C214 C 0.58867 0.97388 0.27903 0.0
C215 C 0.62567 0.99335 0.29533 0.0
C216 C 0.61748 0.99753 0.32501 0.0
C217 C 0.56851 0.98245 0.33832 0.0
C218 C 0.52787 0.96365 0.32195 0.0
C219 C 0.53919 0.95851 0.29207 0.0
H220 H 0.51567 0.50764 0.80737 0.0
H221 H 0.48518 0.60086 0.76994 0.0
H222 H 0.55462 0.58782 0.72967 0.0
H223 H 0.67386 0.50289 0.78984 0.0
H224 H 0.67078 0.46101 0.78231 0.0
H225 H 0.61892 0.47817 0.80796 0.0
H226 H 0.52889 0.45524 0.77857 0.0
H227 H 0.58052 0.43847 0.75255 0.0
H228 H 0.52152 0.46492 0.74058 0.0
H229 H 0.62724 0.56397 0.69299 0.0
H230 H 0.70373 0.5332 0.66579 0.0
H231 H 0.6842 0.45587 0.7275 0.0
C232 C 0.52376 0.52546 0.79085 0.0
C233 C 0.49486 0.55528 0.79186 0.0
C234 C 0.50689 0.57787 0.76972 0.0
C235 C 0.54598 0.57062 0.74664 0.0
C236 C 0.57267 0.54072 0.74603 0.0
C237 C 0.56249 0.51865 0.76773 0.0
C238 C 0.59746 0.48846 0.76241 0.0
C239 C 0.64296 0.48229 0.78709 0.0
C240 C 0.55452 0.4601 0.75828 0.0
C241 C 0.62917 0.49698 0.73437 0.0
C242 C 0.6141 0.5271 0.72508 0.0
C243 C 0.63925 0.5403 0.70003 0.0
C244 C 0.68236 0.52257 0.68461 0.0
C245 C 0.69994 0.49209 0.69444 0.0
C246 C 0.67167 0.47902 0.71926 0.0
H247 H 0.75329 0.9866 0.71095 0.0
H248 H 0.82495 0.08031 0.69274 0.0
H249 H 0.9157 0.06805 0.72155 0.0
H250 H 0.79224 0.9843 0.78185 0.0
H251 H 0.81418 0.94323 0.78416 0.0
H252 H 0.76076 0.95571 0.757 0.0
H253 H 0.82831 0.93261 0.71633 0.0
H254 H 0.8815 0.9193 0.74344 0.0
H255 H 0.90664 0.94431 0.71402 0.0
H256 H 0.98539 0.05119 0.75952 0.0
H257 H 0.04056 0.02723 0.80037 0.0
H258 H 0.92918 0.94272 0.7941 0.0
C259 C 0.78957 1.00384 0.7119 0.0
C260 C 0.78265 0.03427 0.69941 0.0
C261 C 0.82979 0.0568 0.70198 0.0
C262 C 0.88144 0.05006 0.71831 0.0
C263 C 0.8855 0.02058 0.73178 0.0
C264 C 0.8417 0.99746 0.72833 0.0
C265 C 0.8548 0.96901 0.74765 0.0
C266 C 0.80237 0.96272 0.76892 0.0
C267 C 0.86865 0.93956 0.72926 0.0
C268 C 0.91089 0.98054 0.76347 0.0
C269 C 0.92767 1.01032 0.75375 0.0
C270 C 0.97386 0.02754 0.76682 0.0
C271 C 0.00439 0.01388 0.79023 0.0
C272 C 0.98913 0.98315 0.80026 0.0
C273 C 0.94216 0.96608 0.78652 0.0
H274 H 0.21401 0.48972 0.81852 0.0
H275 H 0.15387 0.58728 0.82593 0.0
H276 H 0.06722 0.57567 0.79426 0.0
H277 H 0.18431 0.48091 0.74617 0.0
H278 H 0.15621 0.44079 0.74728 0.0
H279 H 0.20824 0.45432 0.77465 0.0
H280 H 0.13265 0.43882 0.81522 0.0
H281 H 0.0808 0.42448 0.78801 0.0
H282 H 0.05628 0.45373 0.81392 0.0
H283 H 0.00074 0.55746 0.75544 0.0
H284 H 0.94402 0.53052 0.71683 0.0
H285 H 0.0403 0.44306 0.73514 0.0
C286 C 0.18107 0.50818 0.81445 0.0
C287 C 0.19044 0.53939 0.82472 0.0
C288 C 0.14744 0.56324 0.81829 0.0
C289 C 0.09811 0.55689 0.80029 0.0
C290 C 0.09194 0.52647 0.78915 0.0
C291 C 0.13106 0.50218 0.79645 0.0
C292 C 0.1157 0.47222 0.7797 0.0
C293 C 0.16931 0.46145 0.76084 0.0
C294 C 0.09512 0.44574 0.80045 0.0
C295 C 0.06358 0.48399 0.7611 0.0
C296 C 0.05108 0.51541 0.76699 0.0
C297 C 0.00893 0.53264 0.75108 0.0
C298 C 0.97752 0.51721 0.72893 0.0
C299 C 0.98774 0.48472 0.72305 0.0
C300 C 0.03127 0.46783 0.73942 0.0
H301 H 0.28848 0.9569 0.80635 0.0
H302 H 0.2683 0.03603 0.8657 0.0
H303 H 0.34783 0.06525 0.83891 0.0
H304 H 0.45269 0.96445 0.79481 0.0
H305 H 0.44622 0.95373 0.75707 0.0
H306 H 0.39329 0.93805 0.78317 0.0
H307 H 0.30466 0.96008 0.7523 0.0
H308 H 0.35721 0.97638 0.72642 0.0
H309 H 0.30243 1.00176 0.74364 0.0
H310 H 0.42282 0.08765 0.80245 0.0
H311 H 0.4923 0.0997 0.76182 0.0
H312 H 0.46011 1.00584 0.72642 0.0
C313 C 0.30162 0.98007 0.81425 0.0
C314 C 0.27217 0.99412 0.83822 0.0
C315 C 0.2905 0.02465 0.84755 0.0
C316 C 0.33543 0.0415 0.83238 0.0
C317 C 0.36165 0.02738 0.80808 0.0
C318 C 0.34591 0.99717 0.79935 0.0
C319 C 0.37819 0.98785 0.77172 0.0
C320 C 0.4201 0.95934 0.77702 0.0
C321 C 0.33291 0.98114 0.74708 0.0
C322 C 0.41394 0.01774 0.76592 0.0
C323 C 0.40407 0.04027 0.78713 0.0
C324 C 0.43129 0.07006 0.78588 0.0
C325 C 0.47042 0.07673 0.76262 0.0
C326 C 0.48175 0.05373 0.74088 0.0
C327 C 0.45257 0.02399 0.74262 0.0
H328 H 0.04709 0.54965 0.45815 0.0
H329 H 0.06149 0.45427 0.42363 0.0
H330 H 0.01623 0.43288 0.46852 0.0
H331 H 0.08209 0.52946 0.53281 0.0
H332 H 0.02882 0.55734 0.54775 0.0
H333 H 0.06359 0.56512 0.51307 0.0
H334 H 0.95755 0.57072 0.48961 0.0
H335 H 0.92247 0.56279 0.52418 0.0
H336 H 0.90372 0.53879 0.49312 0.0
H337 H 0.96831 0.4217 0.51706 0.0
H338 H 0.92242 0.42174 0.56603 0.0
H339 H 0.938 0.5243 0.56872 0.0
C340 C 0.04112 0.52425 0.46011 0.0
C341 C 0.05804 0.50365 0.43734 0.0
C342 C 0.04901 0.47057 0.44074 0.0
C343 C 0.02326 0.45815 0.46618 0.0
C344 C 0.0066 0.47909 0.48808 0.0
C345 C 0.01525 0.51143 0.48536 0.0
C346 C -0.00725 0.52875 0.51206 0.0
C347 C 0.04493 0.54619 0.52732 0.0
C348 C 0.94105 0.55161 0.50426 0.0
C349 C 0.97006 0.5011 0.53014 0.0
C350 C 0.97853 0.47266 0.51594 0.0
C351 C 0.96143 0.44385 0.5284 0.0
C352 C 0.93533 0.4441 0.55621 0.0
C353 C 0.92641 0.47299 0.57122 0.0
C354 C 0.9439 0.5018 0.55782 0.0
H355 H 0.4188 0.95959 0.47636 0.0
H356 H 0.40306 0.05479 0.44116 0.0
H357 H 0.44384 0.0767 0.48666 0.0
H358 H 0.37964 0.97996 0.55163 0.0
H359 H 0.43353 0.95254 0.56687 0.0
H360 H 0.39918 0.94437 0.53219 0.0
H361 H 0.50559 0.93933 0.50906 0.0
H362 H 0.54024 0.94779 0.54358 0.0
H363 H 0.55848 0.9717 0.51228 0.0
H364 H 0.49177 0.08837 0.53463 0.0
H365 H 0.53953 0.08902 0.5831 0.0
H366 H 0.52474 0.98646 0.58755 0.0
C367 C 0.42289 0.98506 0.47845 0.0
C368 C 0.40747 1.00547 0.4552 0.0
C369 C 0.41444 0.03866 0.45865 0.0
C370 C 0.43763 0.05138 0.48443 0.0
C371 C 0.45369 0.03064 0.50666 0.0
C372 C 0.44627 0.99822 0.50409 0.0
C373 C 0.46907 0.98121 0.53101 0.0
C374 C 0.41726 0.96348 0.54633 0.0
C375 C 0.52146 0.95868 0.52352 0.0
C376 C 0.49089 1.00912 0.5489 0.0
C377 C 0.48152 0.03741 0.53444 0.0
C378 C 0.49899 0.06638 0.54628 0.0
C379 C 0.52629 0.06651 0.57379 0.0
C380 C 0.53588 0.03784 0.58917 0.0
C381 C 0.51798 1.00881 0.5764 0.0
H382 H 0.54574 0.46467 0.05551 0.0
H383 H 0.55598 0.56024 0.09004 0.0
H384 H 0.50881 0.58096 0.04546 0.0
H385 H 0.58021 0.48585 0.98124 0.0
H386 H 0.52873 0.45731 0.96581 0.0
H387 H 0.56304 0.44975 1.00062 0.0
H388 H 0.45681 0.44238 0.02346 0.0
H389 H 0.42216 0.45006 0.98874 0.0
H390 H 0.40146 0.4735 0.01986 0.0
H391 H 0.4601 0.59165 0.99743 0.0
H392 H 0.41615 0.59161 0.94815 0.0
H393 H 0.43773 0.48941 0.94418 0.0
C394 C 0.53816 0.48994 0.05365 0.0
C395 C 0.55463 0.51079 0.07634 0.0
C396 C 0.54391 0.54374 0.07301 0.0
C397 C 0.51698 0.55579 0.04776 0.0
C398 C 0.50101 0.53465 0.0259 0.0
C399 C 0.51138 0.50246 0.02847 0.0
C400 C 0.49039 0.48504 1.00149 0.0
C401 C 0.54378 0.46852 0.9864 0.0
C402 C 0.43969 0.46135 1.00884 0.0
C403 C 0.4667 0.5125 0.98346 0.0
C404 C 0.4731 0.54088 0.99801 0.0
C405 C 0.45483 0.56957 0.98579 0.0
C406 C 0.42981 0.5693 0.95779 0.0
C407 C 0.42337 0.54055 0.94226 0.0
C408 C 0.44184 0.51179 0.95547 0.0
H409 H 0.02504 0.96678 0.97314 0.0
H410 H 0.02314 0.0608 0.93454 0.0
H411 H 0.9734 0.08186 0.97825 0.0
H412 H 0.87995 0.97244 1.00974 0.0
H413 H 0.90491 0.95129 0.04162 0.0
H414 H 0.93878 0.94304 1.00686 0.0
H415 H 0.045 0.95498 0.02803 0.0
H416 H 0.01148 0.96307 0.06287 0.0
H417 H 0.05864 0.99247 0.0456 0.0
H418 H 0.92528 0.09323 0.0262 0.0
H419 H 0.8867 0.09451 0.07649 0.0
H420 H 0.92033 0.99347 0.0846 0.0
C421 C 0.01396 0.99176 0.97386 0.0
C422 C 0.02794 1.0121 0.95033 0.0
C423 C 0.01301 0.04471 0.95225 0.0
C424 C 0.9845 0.05693 0.97696 0.0
C425 C 0.9712 0.03631 0.99971 0.0
C426 C 0.98568 1.00446 0.99852 0.0
C427 C 0.96815 0.98774 0.02649 0.0
C428 C 0.92008 0.96211 0.02083 0.0
C429 C 0.02415 0.97375 0.04164 0.0
C430 C 0.942 0.01522 0.04356 0.0
C431 C 0.94381 0.04296 0.0276 0.0
C432 C 0.92341 0.07164 0.03891 0.0
C433 C 0.90144 0.07212 0.06748 0.0
C434 C 0.90024 0.04411 0.0845 0.0
C435 C 0.92018 0.01526 0.07213 0.0
H436 H 0.19851 0.69732 0.31368 0.0
H437 H 0.16528 0.68243 0.40559 0.0
H438 H 0.2028 0.73667 0.41574 0.0
H439 H 0.33569 0.74024 0.32131 0.0
H440 H 0.32053 0.76673 0.29142 0.0
H441 H 0.28891 0.72739 0.29149 0.0
H442 H 0.18113 0.75071 0.28563 0.0
H443 H 0.21246 0.79014 0.28529 0.0
H444 H 0.15454 0.77983 0.31121 0.0
H445 H 0.24774 0.79262 0.41555 0.0
H446 H 0.29161 0.84543 0.40487 0.0
H447 H 0.29478 0.82245 0.31307 0.0
C448 C 0.19852 0.70547 0.33596 0.0
C449 C 0.17877 0.6856 0.35885 0.0
C450 C 0.17991 0.69725 0.38768 0.0
C451 C 0.20132 0.728 0.39365 0.0
C452 C 0.2213 0.74677 0.37054 0.0
C453 C 0.21966 0.73593 0.34226 0.0
C454 C 0.24421 0.76041 0.32125 0.0
C455 C 0.30068 0.74794 0.30545 0.0
C456 C 0.19515 0.77089 0.29957 0.0
C457 C 0.26022 0.78679 0.34208 0.0
C458 C 0.24683 0.77857 0.37044 0.0
C459 C 0.25819 0.79928 0.3934 0.0
C460 C 0.28328 0.8292 0.38714 0.0
C461 C 0.29669 0.83814 0.35815 0.0
C462 C 0.28513 0.81643 0.33547 0.0
H463 H 0.79784 0.20536 0.21381 0.0
H464 H 0.78939 0.17964 0.12271 0.0
H465 H 0.74451 0.23205 0.11135 0.0
H466 H 0.65733 0.24687 0.21647 0.0
H467 H 0.68465 0.27669 0.24119 0.0
H468 H 0.71698 0.23754 0.24178 0.0
H469 H 0.82392 0.26136 0.23386 0.0
H470 H 0.79198 0.3006 0.23346 0.0
H471 H 0.83717 0.28725 0.2033 0.0
H472 H 0.69962 0.28808 0.11047 0.0
H473 H 0.66154 0.34231 0.12 0.0
H474 H 0.69899 0.32965 0.21181 0.0
C475 C 0.78689 0.21069 0.1914 0.0
C476 C 0.79728 0.18837 0.16912 0.0
C477 C 0.78198 0.19638 0.14013 0.0
C478 C 0.75636 0.22607 0.1335 0.0
C479 C 0.74624 0.24742 0.1561 0.0
C480 C 0.76125 0.24002 0.18445 0.0
C481 C 0.74585 0.26684 0.20491 0.0
C482 C 0.69838 0.25635 0.22741 0.0
C483 C 0.80314 0.27977 0.21974 0.0
C484 C 0.71979 0.2906 0.18371 0.0
C485 C 0.72028 0.2791 0.15563 0.0
C486 C 0.69898 0.29724 0.1324 0.0
C487 C 0.67729 0.32799 0.13802 0.0
C488 C 0.67699 0.34024 0.16666 0.0
C489 C 0.69818 0.32102 0.18968 0.0
H490 H 0.68399 0.1995 0.656 0.0
H491 H 0.67728 0.1834 0.74919 0.0
H492 H 0.72182 0.23591 0.75755 0.0
H493 H 0.82627 0.24024 0.65538 0.0
H494 H 0.80531 0.26861 0.62784 0.0
H495 H 0.77037 0.23 0.62845 0.0
H496 H 0.66428 0.25588 0.6307 0.0
H497 H 0.69886 0.29457 0.62975 0.0
H498 H 0.64794 0.28423 0.65886 0.0
H499 H 0.76975 0.28838 0.7566 0.0
H500 H 0.81322 0.34082 0.74646 0.0
H501 H 0.79039 0.32508 0.65387 0.0
C502 C 0.6912 0.20727 0.67813 0.0
C503 C 0.67711 0.18726 0.70194 0.0
C504 C 0.68777 0.19817 0.73058 0.0
C505 C 0.71318 0.22799 0.73561 0.0
C506 C 0.72779 0.2468 0.7118 0.0
C507 C 0.71686 0.23718 0.68362 0.0
C508 C 0.73765 0.26236 0.66212 0.0
C509 C 0.78789 0.24952 0.64228 0.0
C510 C 0.68397 0.27501 0.64431 0.0
C511 C 0.76198 0.28742 0.68273 0.0
C512 C 0.75583 0.2777 0.71124 0.0
C513 C 0.77466 0.29638 0.73438 0.0
C514 C 0.79946 0.32616 0.72834 0.0
C515 C 0.80529 0.33714 0.69937 0.0
C516 C 0.78689 0.31728 0.67622 0.0
H517 H 0.28884 0.701 0.87517 0.0
H518 H 0.30772 0.68832 0.78199 0.0
H519 H 0.2639 0.74099 0.77367 0.0
H520 H 0.14665 0.74113 0.87273 0.0
H521 H 0.16366 0.76865 0.90149 0.0
H522 H 0.19928 0.73026 0.90096 0.0
H523 H 0.30502 0.75674 0.90238 0.0
H524 H 0.2697 0.7952 0.90327 0.0
H525 H 0.32431 0.78614 0.87544 0.0
H526 H 0.2148 0.79303 0.77452 0.0
H527 H 0.16875 0.84474 0.78462 0.0
H528 H 0.18039 0.82603 0.8773 0.0
C529 C 0.28454 0.70958 0.85308 0.0
C530 C 0.30177 0.69047 0.82922 0.0
C531 C 0.29481 0.7024 0.80062 0.0
C532 C 0.26984 0.73232 0.79562 0.0
C533 C 0.25201 0.75022 0.81943 0.0
C534 C 0.25943 0.73963 0.84762 0.0
C535 C 0.23555 0.76394 0.86909 0.0
C536 C 0.18317 0.75016 0.88713 0.0
C537 C 0.2867 0.77623 0.8887 0.0
C538 C 0.21339 0.78959 0.84843 0.0
C539 C 0.22338 0.78092 0.81993 0.0
C540 C 0.20697 0.80024 0.79674 0.0
C541 C 0.18066 0.82959 0.80276 0.0
C542 C 0.17093 0.83954 0.83176 0.0
C543 C 0.18694 0.81904 0.85492 0.0
loop_
_geom_bond_atom_site_label_1
_geom_bond_atom_site_label_2
_geom_bond_distance
_geom_bond_site_symmetry_2
_ccdc_geom_bond_type
O0 Cd1 2.223 . S
O0 C8 1.315 . S
Cd1 O0 2.223 . S
Cd1 O4 2.297 . S
Cd1 O5 2.439 . S
Cd1 O11 2.240 . S
Cd2 O3 2.240 . S
Cd2 O10 2.223 . S
Cd2 O12 2.297 . S
Cd2 O13 2.439 . S
O3 Cd2 2.240 . S
O3 C8 1.279 . S
O4 Cd1 2.297 . S
O4 C6 1.247 . S
O5 Cd1 2.439 . S
O5 C6 1.208 . S
C6 O4 1.247 . S
C6 O5 1.208 . S
C7 O12 1.247 . S
C7 O13 1.208 . S
C8 O0 1.315 . S
C8 O3 1.279 . S
C9 O10 1.315 . S
C9 O11 1.279 . S
O10 Cd2 2.223 . S
O10 C9 1.315 . S
O11 Cd1 2.240 . S
O11 C9 1.279 . S
O12 Cd2 2.297 . S
O12 C7 1.247 . S
O13 Cd2 2.439 . S
O13 C7 1.208 . S
O14 Cd15 2.223 . S
O14 C22 1.315 . S
Cd15 O14 2.223 . S
Cd15 O18 2.297 . S
Cd15 O19 2.439 . S
Cd15 O25 2.240 . S
Cd16 O17 2.240 . S
Cd16 O24 2.223 . S
Cd16 O26 2.297 . S
Cd16 O27 2.439 . S
O17 Cd16 2.240 . S
O17 C22 1.279 . S
O18 Cd15 2.297 . S
O18 C20 1.247 . S
O19 Cd15 2.439 . S
O19 C20 1.208 . S
C20 O18 1.247 . S
C20 O19 1.208 . S
C21 O26 1.247 . S
C21 O27 1.208 . S
C22 O14 1.315 . S
C22 O17 1.279 . S
C23 O24 1.315 . S
C23 O25 1.279 . S
O24 Cd16 2.223 . S
O24 C23 1.315 . S
O25 Cd15 2.240 . S
O25 C23 1.279 . S
O26 Cd16 2.297 . S
O26 C21 1.247 . S
O27 Cd16 2.439 . S
O27 C21 1.208 . S
O28 Cd29 2.223 . S
O28 C36 1.315 . S
Cd29 O28 2.223 . S
Cd29 O32 2.297 . S
Cd29 O33 2.439 . S
Cd29 O39 2.240 . S
Cd30 O31 2.240 . S
Cd30 O38 2.223 . S
Cd30 O40 2.297 . S
Cd30 O41 2.439 . S
O31 Cd30 2.240 . S
O31 C36 1.279 . S
O32 Cd29 2.297 . S
O32 C34 1.247 . S
O33 Cd29 2.439 . S
O33 C34 1.208 . S
C34 O32 1.247 . S
C34 O33 1.208 . S
C35 O40 1.247 . S
C35 O41 1.208 . S
C36 O28 1.315 . S
C36 O31 1.279 . S
C37 O38 1.315 . S
C37 O39 1.279 . S
O38 Cd30 2.223 . S
O38 C37 1.315 . S
O39 Cd29 2.240 . S
O39 C37 1.279 . S
O40 Cd30 2.297 . S
O40 C35 1.247 . S
O41 Cd30 2.439 . S
O41 C35 1.208 . S
O42 Cd43 2.223 . S
O42 C50 1.315 . S
Cd43 O42 2.223 . S
Cd43 O46 2.297 . S
Cd43 O47 2.439 . S
Cd43 O53 2.240 . S
Cd44 O45 2.240 . S
Cd44 O52 2.223 . S
Cd44 O54 2.297 . S
Cd44 O55 2.439 . S
O45 Cd44 2.240 . S
O45 C50 1.279 . S
O46 Cd43 2.297 . S
O46 C48 1.247 . S
O47 Cd43 2.439 . S
O47 C48 1.208 . S
C48 O46 1.247 . S
C48 O47 1.208 . S
C49 O54 1.247 . S
C49 O55 1.208 . S
C50 O42 1.315 . S
C50 O45 1.279 . S
C51 O52 1.315 . S
C51 O53 1.279 . S
O52 Cd44 2.223 . S
O52 C51 1.315 . S
O53 Cd43 2.240 . S
O53 C51 1.279 . S
O54 Cd44 2.297 . S
O54 C49 1.247 . S
O55 Cd44 2.439 . S
O55 C49 1.208 . S
O56 Cd57 2.223 . S
O56 C64 1.315 . S
Cd57 O56 2.223 . S
Cd57 O60 2.297 . S
Cd57 O61 2.439 . S
Cd57 O67 2.240 . S
Cd58 O59 2.240 . S
Cd58 O66 2.223 . S
Cd58 O68 2.297 . S
Cd58 O69 2.439 . S
O59 Cd58 2.240 . S
O59 C64 1.279 . S
O60 Cd57 2.297 . S
O60 C62 1.247 . S
O61 Cd57 2.439 . S
O61 C62 1.208 . S
C62 O60 1.247 . S
C62 O61 1.208 . S
C63 O68 1.247 . S
C63 O69 1.208 . S
C64 O56 1.315 . S
C64 O59 1.279 . S
C65 O66 1.315 . S
C65 O67 1.279 . S
O66 Cd58 2.223 . S
O66 C65 1.315 . S
O67 Cd57 2.240 . S
O67 C65 1.279 . S
O68 Cd58 2.297 . S
O68 C63 1.247 . S
O69 Cd58 2.439 . S
O69 C63 1.208 . S
O70 Cd71 2.223 . S
O70 C78 1.315 . S
Cd71 O70 2.223 . S
Cd71 O74 2.297 . S
Cd71 O75 2.439 . S
Cd71 O81 2.240 . S
Cd72 O73 2.240 . S
Cd72 O80 2.223 . S
Cd72 O82 2.297 . S
Cd72 O83 2.439 . S
O73 Cd72 2.240 . S
O73 C78 1.279 . S
O74 Cd71 2.297 . S
O74 C76 1.247 . S
O75 Cd71 2.439 . S
O75 C76 1.208 . S
C76 O74 1.247 . S
C76 O75 1.208 . S
C77 O82 1.247 . S
C77 O83 1.208 . S
C78 O70 1.315 . S
C78 O73 1.279 . S
C79 O80 1.315 . S
C79 O81 1.279 . S
O80 Cd72 2.223 . S
O80 C79 1.315 . S
O81 Cd71 2.240 . S
O81 C79 1.279 . S
O82 Cd72 2.297 . S
O82 C77 1.247 . S
O83 Cd72 2.439 . S
O83 C77 1.208 . S
O84 Cd85 2.223 . S
O84 C92 1.315 . S
Cd85 O84 2.223 . S
Cd85 O88 2.297 . S
Cd85 O89 2.439 . S
Cd85 O95 2.240 . S
Cd86 O87 2.240 . S
Cd86 O94 2.223 . S
Cd86 O96 2.297 . S
Cd86 O97 2.439 . S
O87 Cd86 2.240 . S
O87 C92 1.279 . S
O88 Cd85 2.297 . S
O88 C90 1.247 . S
O89 Cd85 2.439 . S
O89 C90 1.208 . S
C90 O88 1.247 . S
C90 O89 1.208 . S
C91 O96 1.247 . S
C91 O97 1.208 . S
C92 O84 1.315 . S
C92 O87 1.279 . S
C93 O94 1.315 . S
C93 O95 1.279 . S
O94 Cd86 2.223 . S
O94 C93 1.315 . S
O95 Cd85 2.240 . S
O95 C93 1.279 . S
O96 Cd86 2.297 . S
O96 C91 1.247 . S
O97 Cd86 2.439 . S
O97 C91 1.208 . S
O98 Cd99 2.223 . S
O98 C106 1.315 . S
Cd99 O98 2.223 . S
Cd99 O102 2.297 . S
Cd99 O103 2.439 . S
Cd99 O109 2.240 . S
Cd100 O101 2.240 . S
Cd100 O108 2.223 . S
Cd100 O110 2.297 . S
Cd100 O111 2.439 . S
O101 Cd100 2.240 . S
O101 C106 1.279 . S
O102 Cd99 2.297 . S
O102 C104 1.247 . S
O103 Cd99 2.439 . S
O103 C104 1.208 . S
C104 O102 1.247 . S
C104 O103 1.208 . S
C105 O110 1.247 . S
C105 O111 1.208 . S
C106 O98 1.315 . S
C106 O101 1.279 . S
C107 O108 1.315 . S
C107 O109 1.279 . S
O108 Cd100 2.223 . S
O108 C107 1.315 . S
O109 Cd99 2.240 . S
O109 C107 1.279 . S
O110 Cd100 2.297 . S
O110 C105 1.247 . S
O111 Cd100 2.439 . S
O111 C105 1.208 . S
H112 C124 0.930 . S
H113 C126 0.930 . S
H114 C127 0.930 . S
H115 C131 0.959 . S
H116 C131 0.959 . S
H117 C131 0.961 . S
H118 C132 0.960 . S
H119 C132 0.961 . S
H120 C132 0.959 . S
H121 C135 0.929 . S
H122 C136 0.931 . S
H123 C138 0.930 . S
C124 H112 0.930 . S
C124 C125 1.399 . S
C124 C129 1.399 . S
C125 C124 1.399 . S
C125 C126 1.376 . S
C126 H113 0.930 . S
C126 C125 1.376 . S
C126 C127 1.388 . S
C127 H114 0.930 . S
C127 C126 1.388 . S
C127 C128 1.390 . S
C128 C127 1.390 . S
C128 C129 1.394 . S
C128 C134 1.465 . S
C129 C124 1.399 . S
C129 C128 1.394 . S
C129 C130 1.516 . S
C130 C129 1.516 . S
C130 C131 1.502 . S
C130 C132 1.561 . S
C130 C133 1.526 . S
C131 H115 0.959 . S
C131 H116 0.959 . S
C131 H117 0.961 . S
C131 C130 1.502 . S
C132 H118 0.960 . S
C132 H119 0.961 . S
C132 H120 0.959 . S
C132 C130 1.561 . S
C133 C130 1.526 . S
C133 C134 1.396 . S
C133 C138 1.390 . S
C134 C128 1.465 . S
C134 C133 1.396 . S
C134 C135 1.399 . S
C135 H121 0.929 . S
C135 C134 1.399 . S
C135 C136 1.385 . S
C136 H122 0.931 . S
C136 C135 1.385 . S
C136 C137 1.389 . S
C137 C136 1.389 . S
C137 C138 1.387 . S
C138 H123 0.930 . S
C138 C133 1.390 . S
C138 C137 1.387 . S
H139 C151 0.930 . S
H140 C153 0.930 . S
H141 C154 0.930 . S
H142 C158 0.959 . S
H143 C158 0.959 . S
H144 C158 0.961 . S
H145 C159 0.960 . S
H146 C159 0.961 . S
H147 C159 0.959 . S
H148 C162 0.923 1_545 S
H149 C163 0.931 . S
H150 C165 0.930 . S
C151 H139 0.930 . S
C151 C152 1.399 . S
C151 C156 1.399 . S
C152 C151 1.399 . S
C152 C153 1.376 1_455 S
C153 H140 0.930 . S
C153 C152 1.376 1_655 S
C153 C154 1.388 1_655 S
C154 H141 0.930 . S
C154 C153 1.388 1_455 S
C154 C155 1.390 . S
C155 C154 1.390 . S
C155 C156 1.394 . S
C155 C161 1.465 1_545 S
C156 C151 1.399 . S
C156 C155 1.394 . S
C156 C157 1.516 1_545 S
C157 C156 1.516 1_565 S
C157 C158 1.502 . S
C157 C159 1.561 1_565 S
C157 C160 1.526 . S
C158 H142 0.959 . S
C158 H143 0.959 . S
C158 H144 0.961 . S
C158 C157 1.502 . S
C159 H145 0.960 . S
C159 H146 0.961 . S
C159 H147 0.959 . S
C159 C157 1.561 1_545 S
C160 C157 1.526 . S
C160 C161 1.396 . S
C160 C165 1.390 . S
C161 C155 1.465 1_565 S
C161 C160 1.396 . S
C161 C162 1.399 . S
C162 H148 0.923 1_565 S
C162 C161 1.399 . S
C162 C163 1.385 . S
C163 H149 0.931 . S
C163 C162 1.385 . S
C163 C164 1.389 . S
C164 C163 1.389 . S
C164 C165 1.387 . S
C165 H150 0.930 . S
C165 C160 1.390 . S
C165 C164 1.387 . S
H166 C178 0.930 . S
H167 C180 0.930 . S
H168 C181 0.930 . S
H169 C185 0.959 . S
H170 C185 0.959 . S
H171 C185 0.961 . S
H172 C186 0.960 . S
H173 C186 0.961 . S
H174 C186 0.959 . S
H175 C189 0.929 1_455 S
H176 C190 0.931 . S
H177 C192 0.930 . S
C178 H166 0.930 . S
C178 C179 1.399 . S
C178 C183 1.399 . S
C179 C178 1.399 . S
C179 C180 1.376 . S
C180 H167 0.930 . S
C180 C179 1.376 . S
C180 C181 1.388 . S
C181 H168 0.930 . S
C181 C180 1.388 . S
C181 C182 1.390 . S
C182 C181 1.390 . S
C182 C183 1.394 . S
C182 C188 1.465 . S
C183 C178 1.399 . S
C183 C182 1.394 . S
C183 C184 1.516 . S
C184 C183 1.516 . S
C184 C185 1.502 . S
C184 C186 1.561 . S
C184 C187 1.526 . S
C185 H169 0.959 . S
C185 H170 0.959 . S
C185 H171 0.961 . S
C185 C184 1.502 . S
C186 H172 0.960 . S
C186 H173 0.961 . S
C186 H174 0.959 . S
C186 C184 1.561 . S
C187 C184 1.526 . S
C187 C188 1.396 . S
C187 C192 1.390 . S
C188 C182 1.465 . S
C188 C187 1.396 . S
C188 C189 1.399 . S
C189 H175 0.929 1_655 S
C189 C188 1.399 . S
C189 C190 1.385 1_655 S
C190 H176 0.931 . S
C190 C189 1.385 1_455 S
C190 C191 1.389 1_455 S
C191 C190 1.389 1_655 S
C191 C192 1.387 . S
C192 H177 0.930 . S
C192 C187 1.390 . S
C192 C191 1.387 . S
H193 C205 0.930 1_565 S
H194 C207 0.930 . S
H195 C208 0.930 . S
H196 C212 0.959 . S
H197 C212 0.959 . S
H198 C212 0.961 . S
H199 C213 0.960 . S
H200 C213 0.961 . S
H201 C213 0.959 . S
H202 C216 0.929 . S
H203 C217 0.931 . S
H204 C219 0.930 . S
C205 H193 0.930 1_545 S
C205 C206 1.399 . S
C205 C210 1.399 . S
C206 C205 1.399 . S
C206 C207 1.376 . S
C207 H194 0.930 . S
C207 C206 1.376 . S
C207 C208 1.388 . S
C208 H195 0.930 . S
C208 C207 1.388 . S
C208 C209 1.390 . S
C209 C208 1.390 . S
C209 C210 1.394 . S
C209 C215 1.465 . S
C210 C205 1.399 . S
C210 C209 1.394 . S
C210 C211 1.516 1_545 S
C211 C210 1.516 1_565 S
C211 C212 1.502 . S
C211 C213 1.561 . S
C211 C214 1.526 . S
C212 H196 0.959 . S
C212 H197 0.959 . S
C212 H198 0.961 . S
C212 C211 1.502 . S
C213 H199 0.960 . S
C213 H200 0.961 . S
C213 H201 0.959 . S
C213 C211 1.561 . S
C214 C211 1.526 . S
C214 C215 1.396 1_565 S
C214 C219 1.390 . S
C215 C209 1.465 . S
C215 C214 1.396 1_545 S
C215 C216 1.399 . S
C216 H202 0.929 . S
C216 C215 1.399 . S
C216 C217 1.385 . S
C217 H203 0.931 . S
C217 C216 1.385 . S
C217 C218 1.389 1_545 S
C218 C217 1.389 1_565 S
C218 C219 1.387 . S
C219 H204 0.930 . S
C219 C214 1.390 . S
C219 C218 1.387 . S
H220 C232 0.930 . S
H221 C234 0.930 . S
H222 C235 0.930 . S
H223 C239 0.959 . S
H224 C239 0.959 . S
H225 C239 0.961 . S
H226 C240 0.960 . S
H227 C240 0.961 . S
H228 C240 0.959 . S
H229 C243 0.929 . S
H230 C244 0.931 . S
H231 C246 0.930 . S
C232 H220 0.930 . S
C232 C233 1.399 . S
C232 C237 1.399 . S
C233 C232 1.399 . S
C233 C234 1.376 . S
C234 H221 0.930 . S
C234 C233 1.376 . S
C234 C235 1.388 . S
C235 H222 0.930 . S
C235 C234 1.388 . S
C235 C236 1.390 . S
C236 C235 1.390 . S
C236 C237 1.394 . S
C236 C242 1.465 . S
C237 C232 1.399 . S
C237 C236 1.394 . S
C237 C238 1.516 . S
C238 C237 1.516 . S
C238 C239 1.502 . S
C238 C240 1.561 . S
C238 C241 1.526 . S
C239 H223 0.959 . S
C239 H224 0.959 . S
C239 H225 0.961 . S
C239 C238 1.502 . S
C240 H226 0.960 . S
C240 H227 0.961 . S
C240 H228 0.959 . S
C240 C238 1.561 . S
C241 C238 1.526 . S
C241 C242 1.396 . S
C241 C246 1.390 . S
C242 C236 1.465 . S
C242 C241 1.396 . S
C242 C243 1.399 . S
C243 H229 0.929 . S
C243 C242 1.399 . S
C243 C244 1.385 . S
C244 H230 0.931 . S
C244 C243 1.385 . S
C244 C245 1.389 . S
C245 C244 1.389 . S
C245 C246 1.387 . S
C246 H231 0.930 . S
C246 C241 1.390 . S
C246 C245 1.387 . S
H247 C259 0.930 1_565 S
H248 C261 0.930 . S
H249 C262 0.930 . S
H250 C266 0.959 . S
H251 C266 0.959 . S
H252 C266 0.961 . S
H253 C267 0.960 . S
H254 C267 0.961 . S
H255 C267 0.959 . S
H256 C270 0.929 . S
H257 C271 0.931 1_455 S
H258 C273 0.930 . S
C259 H247 0.930 1_545 S
C259 C260 1.399 . S
C259 C264 1.399 . S
C260 C259 1.399 . S
C260 C261 1.376 . S
C261 H248 0.930 . S
C261 C260 1.376 . S
C261 C262 1.388 . S
C262 H249 0.930 . S
C262 C261 1.388 . S
C262 C263 1.390 . S
C263 C262 1.390 . S
C263 C264 1.394 . S
C263 C269 1.465 . S
C264 C259 1.399 . S
C264 C263 1.394 . S
C264 C265 1.516 1_545 S
C265 C264 1.516 1_565 S
C265 C266 1.502 . S
C265 C267 1.561 . S
C265 C268 1.526 . S
C266 H250 0.959 . S
C266 H251 0.959 . S
C266 H252 0.961 . S
C266 C265 1.502 . S
C267 H253 0.960 . S
C267 H254 0.961 . S
C267 H255 0.959 . S
C267 C265 1.561 . S
C268 C265 1.526 . S
C268 C269 1.396 1_565 S
C268 C273 1.390 . S
C269 C263 1.465 . S
C269 C268 1.396 1_545 S
C269 C270 1.399 . S
C270 H256 0.929 . S
C270 C269 1.399 . S
C270 C271 1.385 . S
C271 H257 0.931 1_655 S
C271 C270 1.385 . S
C271 C272 1.389 1_545 S
C272 C271 1.389 1_565 S
C272 C273 1.387 . S
C273 H258 0.930 . S
C273 C268 1.390 . S
C273 C272 1.387 . S
H274 C286 0.930 . S
H275 C288 0.930 . S
H276 C289 0.930 . S
H277 C293 0.959 . S
H278 C293 0.959 . S
H279 C293 0.961 . S
H280 C294 0.960 . S
H281 C294 0.961 . S
H282 C294 0.959 . S
H283 C297 0.929 . S
H284 C298 0.931 . S
H285 C300 0.930 . S
C286 H274 0.930 . S
C286 C287 1.399 . S
C286 C291 1.399 . S
C287 C286 1.399 . S
C287 C288 1.376 . S
C288 H275 0.930 . S
C288 C287 1.376 . S
C288 C289 1.388 . S
C289 H276 0.930 . S
C289 C288 1.388 . S
C289 C290 1.390 . S
C290 C289 1.390 . S
C290 C291 1.394 . S
C290 C296 1.465 . S
C291 C286 1.399 . S
C291 C290 1.394 . S
C291 C292 1.516 . S
C292 C291 1.516 . S
C292 C293 1.502 . S
C292 C294 1.561 . S
C292 C295 1.526 . S
C293 H277 0.959 . S
C293 H278 0.959 . S
C293 H279 0.961 . S
C293 C292 1.502 . S
C294 H280 0.960 . S
C294 H281 0.961 . S
C294 H282 0.959 . S
C294 C292 1.561 . S
C295 C292 1.526 . S
C295 C296 1.396 . S
C295 C300 1.390 . S
C296 C290 1.465 . S
C296 C295 1.396 . S
C296 C297 1.399 . S
C297 H283 0.929 . S
C297 C296 1.399 . S
C297 C298 1.385 1_455 S
C298 H284 0.931 . S
C298 C297 1.385 1_655 S
C298 C299 1.389 1_655 S
C299 C298 1.389 1_455 S
C299 C300 1.387 . S
C300 H285 0.930 . S
C300 C295 1.390 . S
C300 C299 1.387 . S
H301 C313 0.930 . S
H302 C315 0.930 1_545 S
H303 C316 0.930 . S
H304 C320 0.959 . S
H305 C320 0.959 . S
H306 C320 0.961 . S
H307 C321 0.960 . S
H308 C321 0.961 . S
H309 C321 0.959 . S
H310 C324 0.929 . S
H311 C325 0.931 . S
H312 C327 0.930 . S
C313 H301 0.930 . S
C313 C314 1.399 . S
C313 C318 1.399 . S
C314 C313 1.399 . S
C314 C315 1.376 . S
C315 H302 0.930 1_565 S
C315 C314 1.376 . S
C315 C316 1.388 1_565 S
C316 H303 0.930 . S
C316 C315 1.388 1_545 S
C316 C317 1.396 . S
C317 C316 1.396 . S
C317 C318 1.380 1_545 S
C317 C323 1.471 . S
C318 C313 1.399 . S
C318 C317 1.380 1_565 S
C318 C319 1.516 . S
C319 C318 1.516 . S
C319 C320 1.502 . S
C319 C321 1.561 . S
C319 C322 1.526 . S
C320 H304 0.959 . S
C320 H305 0.959 . S
C320 H306 0.961 . S
C320 C319 1.502 . S
C321 H307 0.960 . S
C321 H308 0.961 . S
C321 H309 0.959 . S
C321 C319 1.561 . S
C322 C319 1.526 . S
C322 C323 1.396 1_565 S
C322 C327 1.390 . S
C323 C317 1.471 . S
C323 C322 1.396 1_545 S
C323 C324 1.399 . S
C324 H310 0.929 . S
C324 C323 1.399 . S
C324 C325 1.385 . S
C325 H311 0.931 . S
C325 C324 1.385 . S
C325 C326 1.389 . S
C326 C325 1.389 . S
C326 C327 1.387 1_545 S
C327 H312 0.930 . S
C327 C322 1.390 . S
C327 C326 1.387 1_565 S
H328 C340 0.930 . S
H329 C342 0.930 . S
H330 C343 0.930 . S
H331 C347 0.959 . S
H332 C347 0.959 . S
H333 C347 0.961 . S
H334 C348 0.960 . S
H335 C348 0.961 . S
H336 C348 0.959 1_655 S
H337 C351 0.929 . S
H338 C352 0.931 . S
H339 C354 0.930 1_455 S
C340 H328 0.930 . S
C340 C341 1.399 . S
C340 C345 1.399 . S
C341 C340 1.399 . S
C341 C342 1.376 1_455 S
C342 H329 0.930 . S
C342 C341 1.376 1_655 S
C342 C343 1.388 . S
C343 H330 0.930 . S
C343 C342 1.388 . S
C343 C344 1.390 . S
C344 C343 1.390 . S
C344 C345 1.394 1_655 S
C344 C350 1.465 . S
C345 C340 1.399 . S
C345 C344 1.394 1_455 S
C345 C346 1.516 . S
C346 C345 1.516 . S
C346 C347 1.502 . S
C346 C348 1.561 . S
C346 C349 1.526 . S
C347 H331 0.959 . S
C347 H332 0.959 . S
C347 H333 0.961 . S
C347 C346 1.502 . S
C348 H334 0.960 . S
C348 H335 0.961 . S
C348 H336 0.959 1_455 S
C348 C346 1.561 . S
C349 C346 1.526 . S
C349 C350 1.396 1_455 S
C349 C354 1.390 1_455 S
C350 C344 1.465 . S
C350 C349 1.396 1_655 S
C350 C351 1.399 . S
C351 H337 0.929 . S
C351 C350 1.399 . S
C351 C352 1.385 . S
C352 H338 0.931 . S
C352 C351 1.385 . S
C352 C353 1.389 . S
C353 C352 1.389 . S
C353 C354 1.387 . S
C354 H339 0.930 1_655 S
C354 C349 1.390 1_655 S
C354 C353 1.387 . S
H355 C367 0.930 . S
H356 C369 0.928 1_545 S
H357 C370 0.930 . S
H358 C374 0.959 . S
H359 C374 0.959 . S
H360 C374 0.961 . S
H361 C375 0.960 . S
H362 C375 0.961 . S
H363 C375 0.959 . S
H364 C378 0.929 . S
H365 C379 0.931 . S
H366 C381 0.930 1_565 S
C367 H355 0.930 . S
C367 C368 1.399 . S
C367 C372 1.399 . S
C368 C367 1.399 . S
C368 C369 1.381 . S
C369 H356 0.928 1_565 S
C369 C368 1.381 . S
C369 C370 1.386 1_565 S
C370 H357 0.930 . S
C370 C369 1.386 1_545 S
C370 C371 1.390 . S
C371 C370 1.390 . S
C371 C372 1.394 1_545 S
C371 C377 1.465 . S
C372 C367 1.399 . S
C372 C371 1.394 1_565 S
C372 C373 1.516 . S
C373 C372 1.516 . S
C373 C374 1.502 . S
C373 C375 1.561 . S
C373 C376 1.526 . S
C374 H358 0.959 . S
C374 H359 0.959 . S
C374 H360 0.961 . S
C374 C373 1.502 . S
C375 H361 0.960 . S
C375 H362 0.961 . S
C375 H363 0.959 . S
C375 C373 1.561 . S
C376 C373 1.526 . S
C376 C377 1.396 1_565 S
C376 C381 1.390 1_565 S
C377 C371 1.465 . S
C377 C376 1.396 1_545 S
C377 C378 1.399 . S
C378 H364 0.929 . S
C378 C377 1.399 . S
C378 C379 1.385 . S
C379 H365 0.931 . S
C379 C378 1.385 . S
C379 C380 1.389 . S
C380 C379 1.389 . S
C380 C381 1.387 . S
C381 H366 0.930 1_545 S
C381 C376 1.390 1_545 S
C381 C380 1.387 . S
H382 C394 0.930 . S
H383 C396 0.930 . S
H384 C397 0.930 . S
H385 C401 0.959 . S
H386 C401 0.959 . S
H387 C401 0.961 . S
H388 C402 0.960 . S
H389 C402 0.961 . S
H390 C402 0.959 . S
H391 C405 0.922 1_554 S
H392 C406 0.931 . S
H393 C408 0.930 . S
C394 H382 0.930 . S
C394 C395 1.399 . S
C394 C399 1.399 . S
C395 C394 1.399 . S
C395 C396 1.376 . S
C396 H383 0.930 . S
C396 C395 1.376 . S
C396 C397 1.388 . S
C397 H384 0.930 . S
C397 C396 1.388 . S
C397 C398 1.390 . S
C398 C397 1.390 . S
C398 C399 1.394 . S
C398 C404 1.465 1_554 S
C399 C394 1.399 . S
C399 C398 1.394 . S
C399 C400 1.516 1_554 S
C400 C399 1.516 1_556 S
C400 C401 1.502 . S
C400 C402 1.561 . S
C400 C403 1.526 . S
C401 H385 0.959 . S
C401 H386 0.959 . S
C401 H387 0.961 . S
C401 C400 1.502 . S
C402 H388 0.960 . S
C402 H389 0.961 . S
C402 H390 0.959 . S
C402 C400 1.561 . S
C403 C400 1.526 . S
C403 C404 1.396 . S
C403 C408 1.390 . S
C404 C398 1.465 1_556 S
C404 C403 1.396 . S
C404 C405 1.399 . S
C405 H391 0.922 1_556 S
C405 C404 1.399 . S
C405 C406 1.385 . S
C406 H392 0.931 . S
C406 C405 1.385 . S
C406 C407 1.389 . S
C407 C406 1.389 . S
C407 C408 1.387 . S
C408 H393 0.930 . S
C408 C403 1.390 . S
C408 C407 1.387 . S
H409 C421 0.930 1_655 S
H410 C423 0.930 1_545 S
H411 C424 0.930 . S
H412 C428 0.953 1_556 S
H413 C428 0.975 . S
H414 C428 0.948 1_556 S
H415 C429 0.960 . S
H416 C429 0.961 . S
H417 C429 0.959 1_455 S
H418 C432 0.929 . S
H419 C433 0.931 . S
H420 C435 0.930 1_565 S
C421 H409 0.930 1_455 S
C421 C422 1.399 . S
C421 C426 1.398 1_455 S
C422 C421 1.399 . S
C422 C423 1.376 . S
C423 H410 0.930 1_565 S
C423 C422 1.376 . S
C423 C424 1.388 1_565 S
C424 H411 0.930 . S
C424 C423 1.388 1_545 S
C424 C425 1.390 . S
C425 C424 1.390 . S
C425 C426 1.385 1_445 S
C425 C431 1.465 1_556 S
C426 C421 1.398 1_655 S
C426 C425 1.385 1_665 S
C426 C427 1.526 1_556 S
C427 C426 1.526 1_554 S
C427 C428 1.506 . S
C427 C429 1.561 . S
C427 C430 1.526 . S
C428 H412 0.953 1_554 S
C428 H413 0.975 . S
C428 H414 0.948 1_554 S
C428 C427 1.506 . S
C429 H415 0.960 . S
C429 H416 0.961 . S
C429 H417 0.959 1_655 S
C429 C427 1.561 . S
C430 C427 1.526 . S
C430 C431 1.396 1_665 S
C430 C435 1.390 1_565 S
C431 C425 1.465 1_554 S
C431 C430 1.396 1_445 S
C431 C432 1.399 . S
C432 H418 0.929 . S
C432 C431 1.399 . S
C432 C433 1.385 . S
C433 H419 0.931 . S
C433 C432 1.385 . S
C433 C434 1.389 1_455 S
C434 C433 1.389 1_655 S
C434 C435 1.387 . S
C435 H420 0.930 1_545 S
C435 C430 1.390 1_545 S
C435 C434 1.387 . S
H436 C448 0.930 . S
H437 C450 0.930 . S
H438 C451 0.930 . S
H439 C455 0.959 . S
H440 C455 0.959 . S
H441 C455 0.961 . S
H442 C456 0.960 . S
H443 C456 0.961 . S
H444 C456 0.959 . S
H445 C459 0.929 . S
H446 C460 0.931 . S
H447 C462 0.930 . S
C448 H436 0.930 . S
C448 C449 1.399 . S
C448 C453 1.399 . S
C449 C448 1.399 . S
C449 C450 1.376 . S
C450 H437 0.930 . S
C450 C449 1.376 . S
C450 C451 1.388 . S
C451 H438 0.930 . S
C451 C450 1.388 . S
C451 C452 1.390 . S
C452 C451 1.390 . S
C452 C453 1.394 . S
C452 C458 1.465 . S
C453 C448 1.399 . S
C453 C452 1.394 . S
C453 C454 1.516 . S
C454 C453 1.516 . S
C454 C455 1.502 . S
C454 C456 1.561 . S
C454 C457 1.526 . S
C455 H439 0.959 . S
C455 H440 0.959 . S
C455 H441 0.961 . S
C455 C454 1.502 . S
C456 H442 0.960 . S
C456 H443 0.961 . S
C456 H444 0.959 . S
C456 C454 1.561 . S
C457 C454 1.526 . S
C457 C458 1.396 . S
C457 C462 1.390 . S
C458 C452 1.465 . S
C458 C457 1.396 . S
C458 C459 1.399 . S
C459 H445 0.929 . S
C459 C458 1.399 . S
C459 C460 1.385 . S
C460 H446 0.931 . S
C460 C459 1.385 . S
C460 C461 1.389 . S
C461 C460 1.389 . S
C461 C462 1.387 . S
C462 H447 0.930 . S
C462 C457 1.390 . S
C462 C461 1.387 . S
H463 C475 0.930 . S
H464 C477 0.930 . S
H465 C478 0.930 . S
H466 C482 0.959 . S
H467 C482 0.959 . S
H468 C482 0.961 . S
H469 C483 0.960 . S
H470 C483 0.961 . S
H471 C483 0.959 . S
H472 C486 0.929 . S
H473 C487 0.931 . S
H474 C489 0.930 . S
C475 H463 0.930 . S
C475 C476 1.399 . S
C475 C480 1.399 . S
C476 C475 1.399 . S
C476 C477 1.376 . S
C477 H464 0.930 . S
C477 C476 1.376 . S
C477 C478 1.388 . S
C478 H465 0.930 . S
C478 C477 1.388 . S
C478 C479 1.390 . S
C479 C478 1.390 . S
C479 C480 1.394 . S
C479 C485 1.465 . S
C480 C475 1.399 . S
C480 C479 1.394 . S
C480 C481 1.516 . S
C481 C480 1.516 . S
C481 C482 1.502 . S
C481 C483 1.561 . S
C481 C484 1.526 . S
C482 H466 0.959 . S
C482 H467 0.959 . S
C482 H468 0.961 . S
C482 C481 1.502 . S
C483 H469 0.960 . S
C483 H470 0.961 . S
C483 H471 0.959 . S
C483 C481 1.561 . S
C484 C481 1.526 . S
C484 C485 1.396 . S
C484 C489 1.390 . S
C485 C479 1.465 . S
C485 C484 1.396 . S
C485 C486 1.399 . S
C486 H472 0.929 . S
C486 C485 1.399 . S
C486 C487 1.385 . S
C487 H473 0.931 . S
C487 C486 1.385 . S
C487 C488 1.389 . S
C488 C487 1.389 . S
C488 C489 1.387 . S
C489 H474 0.930 . S
C489 C484 1.390 . S
C489 C488 1.387 . S
H490 C502 0.930 . S
H491 C504 0.930 . S
H492 C505 0.930 . S
H493 C509 0.959 . S
H494 C509 0.959 . S
H495 C509 0.961 . S
H496 C510 0.960 . S
H497 C510 0.961 . S
H498 C510 0.959 . S
H499 C513 0.929 . S
H500 C514 0.931 . S
H501 C516 0.930 . S
C502 H490 0.930 . S
C502 C503 1.399 . S
C502 C507 1.399 . S
C503 C502 1.399 . S
C503 C504 1.376 . S
C504 H491 0.930 . S
C504 C503 1.376 . S
C504 C505 1.388 . S
C505 H492 0.930 . S
C505 C504 1.388 . S
C505 C506 1.390 . S
C506 C505 1.390 . S
C506 C507 1.394 . S
C506 C512 1.465 . S
C507 C502 1.399 . S
C507 C506 1.394 . S
C507 C508 1.516 . S
C508 C507 1.516 . S
C508 C509 1.502 . S
C508 C510 1.561 . S
C508 C511 1.526 . S
C509 H493 0.959 . S
C509 H494 0.959 . S
C509 H495 0.961 . S
C509 C508 1.502 . S
C510 H496 0.960 . S
C510 H497 0.961 . S
C510 H498 0.959 . S
C510 C508 1.561 . S
C511 C508 1.526 . S
C511 C512 1.396 . S
C511 C516 1.390 . S
C512 C506 1.465 . S
C512 C511 1.396 . S
C512 C513 1.399 . S
C513 H499 0.929 . S
C513 C512 1.399 . S
C513 C514 1.385 . S
C514 H500 0.931 . S
C514 C513 1.385 . S
C514 C515 1.389 . S
C515 C514 1.389 . S
C515 C516 1.387 . S
C516 H501 0.930 . S
C516 C511 1.390 . S
C516 C515 1.387 . S
H517 C529 0.930 . S
H518 C531 0.930 . S
H519 C532 0.930 . S
H520 C536 0.959 . S
H521 C536 0.959 . S
H522 C536 0.961 . S
H523 C537 0.960 . S
H524 C537 0.961 . S
H525 C537 0.959 . S
H526 C540 0.929 . S
H527 C541 0.931 . S
H528 C543 0.930 . S
C529 H517 0.930 . S
C529 C530 1.399 . S
C529 C534 1.399 . S
C530 C529 1.399 . S
C530 C531 1.376 . S
C531 H518 0.930 . S
C531 C530 1.376 . S
C531 C532 1.388 . S
C532 H519 0.930 . S
C532 C531 1.388 . S
C532 C533 1.390 . S
C533 C532 1.390 . S
C533 C534 1.394 . S
C533 C539 1.465 . S
C534 C529 1.399 . S
C534 C533 1.394 . S
C534 C535 1.516 . S
C535 C534 1.516 . S
C535 C536 1.502 . S
C535 C537 1.561 . S
C535 C538 1.526 . S
C536 H520 0.959 . S
C536 H521 0.959 . S
C536 H522 0.961 . S
C536 C535 1.502 . S
C537 H523 0.960 . S
C537 H524 0.961 . S
C537 H525 0.959 . S
C537 C535 1.561 . S
C538 C535 1.526 . S
C538 C539 1.396 . S
C538 C543 1.390 . S
C539 C533 1.465 . S
C539 C538 1.396 . S
C539 C540 1.399 . S
C540 H526 0.929 . S
C540 C539 1.399 . S
C540 C541 1.385 . S
C541 H527 0.931 . S
C541 C540 1.385 . S
C541 C542 1.389 . S
C542 C541 1.389 . S
C542 C543 1.387 . S
C543 H528 0.930 . S
C543 C538 1.390 . S
C543 C542 1.387 . S
C125 C8 1.654 . S
C137 C37 1.672 . S
C152 C51 1.692 1_455 S
C164 C22 1.682 . S
C179 C36 1.660 . S
C191 C9 1.678 1_655 S
C206 C50 1.656 . S
C218 C23 1.659 . S
C233 C93 1.683 . S
C245 C64 1.678 . S
C260 C78 1.653 . S
C272 C107 1.662 1_655 S
C287 C92 1.657 . S
C299 C65 1.666 1_455 S
C314 C106 1.678 . S
C326 C79 1.681 . S
C341 C7 1.490 . S
C353 C63 1.487 . S
C368 C21 1.475 . S
C380 C77 1.501 . S
C395 C35 1.481 . S
C407 C91 1.496 . S
C422 C105 1.452 . S
C434 C49 1.517 . S
C449 C6 1.480 . S
C461 C20 1.519 . S
C476 C48 1.489 . S
C488 C34 1.520 . S
C503 C76 1.451 . S
C515 C62 1.469 . S
C530 C90 1.451 . S
C542 C104 1.468 . S
