# Generated by pormake.
# Topology wmx, (6)-cn, num edge types: 1
# Building blocks:
#     Node 0, Type 0, BuildingBlock: VOLQOD_clean_sbu_1, # of connection points: 6
#     Node 1, Type 0, BuildingBlock: VOLQOD_clean_sbu_1, # of connection points: 6
#     Node 2, Type 0, BuildingBlock: VOLQOD_clean_sbu_1, # of connection points: 6
#     Node 3, Type 0, BuildingBlock: VOLQOD_clean_sbu_1, # of connection points: 6
#     Node 4, Type 0, BuildingBlock: VOLQOD_clean_sbu_1, # of connection points: 6
#     Node 5, Type 0, BuildingBlock: VOLQOD_clean_sbu_1, # of connection points: 6
#     Node 6, Type 0, BuildingBlock: VOLQOD_clean_sbu_1, # of connection points: 6
#     Node 7, Type 0, BuildingBlock: VOLQOD_clean_sbu_1, # of connection points: 6
#     Node 8, Type 0, BuildingBlock: VOLQOD_clean_sbu_1, # of connection points: 6
#     Node 9, Type 0, BuildingBlock: VOLQOD_clean_sbu_1, # of connection points: 6
#     Node 10, Type 0, BuildingBlock: VOLQOD_clean_sbu_1, # of connection points: 6
#     Node 11, Type 0, BuildingBlock: VOLQOD_clean_sbu_1, # of connection points: 6
#     Node 12, Type 0, BuildingBlock: VOLQOD_clean_sbu_1, # of connection points: 6
#     Node 13, Type 0, BuildingBlock: VOLQOD_clean_sbu_1, # of connection points: 6
#     Node 14, Type 0, BuildingBlock: VOLQOD_clean_sbu_1, # of connection points: 6
#     Node 15, Type 0, BuildingBlock: VOLQOD_clean_sbu_1, # of connection points: 6
#     Node 16, Type 0, BuildingBlock: VOLQOD_clean_sbu_1, # of connection points: 6
#     Node 17, Type 0, BuildingBlock: VOLQOD_clean_sbu_1, # of connection points: 6
#     Node 18, Type 0, BuildingBlock: VOLQOD_clean_sbu_1, # of connection points: 6
#     Node 19, Type 0, BuildingBlock: VOLQOD_clean_sbu_1, # of connection points: 6
#     Node 20, Type 0, BuildingBlock: VOLQOD_clean_sbu_1, # of connection points: 6
#     Node 21, Type 0, BuildingBlock: VOLQOD_clean_sbu_1, # of connection points: 6
#     Node 22, Type 0, BuildingBlock: VOLQOD_clean_sbu_1, # of connection points: 6
#     Node 23, Type 0, BuildingBlock: VOLQOD_clean_sbu_1, # of connection points: 6
#     Node 24, Type 0, BuildingBlock: VOLQOD_clean_sbu_1, # of connection points: 6
#     Node 25, Type 0, BuildingBlock: VOLQOD_clean_sbu_1, # of connection points: 6
#     Node 26, Type 0, BuildingBlock: VOLQOD_clean_sbu_1, # of connection points: 6
#     Node 27, Type 0, BuildingBlock: VOLQOD_clean_sbu_1, # of connection points: 6
#     Node 28, Type 0, BuildingBlock: VOLQOD_clean_sbu_1, # of connection points: 6
#     Node 29, Type 0, BuildingBlock: VOLQOD_clean_sbu_1, # of connection points: 6
#     Node 30, Type 0, BuildingBlock: VOLQOD_clean_sbu_1, # of connection points: 6
#     Node 31, Type 0, BuildingBlock: VOLQOD_clean_sbu_1, # of connection points: 6
#     Node 32, Type 0, BuildingBlock: VOLQOD_clean_sbu_1, # of connection points: 6
#     Node 33, Type 0, BuildingBlock: VOLQOD_clean_sbu_1, # of connection points: 6
#     Node 34, Type 0, BuildingBlock: VOLQOD_clean_sbu_1, # of connection points: 6
#     Node 35, Type 0, BuildingBlock: VOLQOD_clean_sbu_1, # of connection points: 6
#     Edge 36, Type (0, 0), BuildingBlock: AJUNOK_clean_linker_0, # of connection points: 2
#     Edge 37, Type (0, 0), BuildingBlock: AJUNOK_clean_linker_0, # of connection points: 2
#     Edge 38, Type (0, 0), BuildingBlock: AJUNOK_clean_linker_0, # of connection points: 2
#     Edge 39, Type (0, 0), BuildingBlock: AJUNOK_clean_linker_0, # of connection points: 2
#     Edge 40, Type (0, 0), BuildingBlock: AJUNOK_clean_linker_0, # of connection points: 2
#     Edge 41, Type (0, 0), BuildingBlock: AJUNOK_clean_linker_0, # of connection points: 2
#     Edge 42, Type (0, 0), BuildingBlock: AJUNOK_clean_linker_0, # of connection points: 2
#     Edge 43, Type (0, 0), BuildingBlock: AJUNOK_clean_linker_0, # of connection points: 2
#     Edge 44, Type (0, 0), BuildingBlock: AJUNOK_clean_linker_0, # of connection points: 2
#     Edge 45, Type (0, 0), BuildingBlock: AJUNOK_clean_linker_0, # of connection points: 2
#     Edge 46, Type (0, 0), BuildingBlock: AJUNOK_clean_linker_0, # of connection points: 2
#     Edge 47, Type (0, 0), BuildingBlock: AJUNOK_clean_linker_0, # of connection points: 2
#     Edge 48, Type (0, 0), BuildingBlock: AJUNOK_clean_linker_0, # of connection points: 2
#     Edge 49, Type (0, 0), BuildingBlock: AJUNOK_clean_linker_0, # of connection points: 2
#     Edge 50, Type (0, 0), BuildingBlock: AJUNOK_clean_linker_0, # of connection points: 2
#     Edge 51, Type (0, 0), BuildingBlock: AJUNOK_clean_linker_0, # of connection points: 2
#     Edge 52, Type (0, 0), BuildingBlock: AJUNOK_clean_linker_0, # of connection points: 2
#     Edge 53, Type (0, 0), BuildingBlock: AJUNOK_clean_linker_0, # of connection points: 2
#     Edge 54, Type (0, 0), BuildingBlock: AJUNOK_clean_linker_0, # of connection points: 2
#     Edge 55, Type (0, 0), BuildingBlock: AJUNOK_clean_linker_0, # of connection points: 2
#     Edge 56, Type (0, 0), BuildingBlock: AJUNOK_clean_linker_0, # of connection points: 2
#     Edge 57, Type (0, 0), BuildingBlock: AJUNOK_clean_linker_0, # of connection points: 2
#     Edge 58, Type (0, 0), BuildingBlock: AJUNOK_clean_linker_0, # of connection points: 2
#     Edge 59, Type (0, 0), BuildingBlock: AJUNOK_clean_linker_0, # of connection points: 2
#     Edge 60, Type (0, 0), BuildingBlock: AJUNOK_clean_linker_0, # of connection points: 2
#     Edge 61, Type (0, 0), BuildingBlock: AJUNOK_clean_linker_0, # of connection points: 2
#     Edge 62, Type (0, 0), BuildingBlock: AJUNOK_clean_linker_0, # of connection points: 2
#     Edge 63, Type (0, 0), BuildingBlock: AJUNOK_clean_linker_0, # of connection points: 2
#     Edge 64, Type (0, 0), BuildingBlock: AJUNOK_clean_linker_0, # of connection points: 2
#     Edge 65, Type (0, 0), BuildingBlock: AJUNOK_clean_linker_0, # of connection points: 2
#     Edge 66, Type (0, 0), BuildingBlock: AJUNOK_clean_linker_0, # of connection points: 2
#     Edge 67, Type (0, 0), BuildingBlock: AJUNOK_clean_linker_0, # of connection points: 2
#     Edge 68, Type (0, 0), BuildingBlock: AJUNOK_clean_linker_0, # of connection points: 2
#     Edge 69, Type (0, 0), BuildingBlock: AJUNOK_clean_linker_0, # of connection points: 2
#     Edge 70, Type (0, 0), BuildingBlock: AJUNOK_clean_linker_0, # of connection points: 2
#     Edge 71, Type (0, 0), BuildingBlock: AJUNOK_clean_linker_0, # of connection points: 2
#     Edge 72, Type (0, 0), BuildingBlock: AJUNOK_clean_linker_0, # of connection points: 2
#     Edge 73, Type (0, 0), BuildingBlock: AJUNOK_clean_linker_0, # of connection points: 2
#     Edge 74, Type (0, 0), BuildingBlock: AJUNOK_clean_linker_0, # of connection points: 2
#     Edge 75, Type (0, 0), BuildingBlock: AJUNOK_clean_linker_0, # of connection points: 2
#     Edge 76, Type (0, 0), BuildingBlock: AJUNOK_clean_linker_0, # of connection points: 2
#     Edge 77, Type (0, 0), BuildingBlock: AJUNOK_clean_linker_0, # of connection points: 2
#     Edge 78, Type (0, 0), BuildingBlock: AJUNOK_clean_linker_0, # of connection points: 2
#     Edge 79, Type (0, 0), BuildingBlock: AJUNOK_clean_linker_0, # of connection points: 2
#     Edge 80, Type (0, 0), BuildingBlock: AJUNOK_clean_linker_0, # of connection points: 2
#     Edge 81, Type (0, 0), BuildingBlock: AJUNOK_clean_linker_0, # of connection points: 2
#     Edge 82, Type (0, 0), BuildingBlock: AJUNOK_clean_linker_0, # of connection points: 2
#     Edge 83, Type (0, 0), BuildingBlock: AJUNOK_clean_linker_0, # of connection points: 2
#     Edge 84, Type (0, 0), BuildingBlock: AJUNOK_clean_linker_0, # of connection points: 2
#     Edge 85, Type (0, 0), BuildingBlock: AJUNOK_clean_linker_0, # of connection points: 2
#     Edge 86, Type (0, 0), BuildingBlock: AJUNOK_clean_linker_0, # of connection points: 2
#     Edge 87, Type (0, 0), BuildingBlock: AJUNOK_clean_linker_0, # of connection points: 2
#     Edge 88, Type (0, 0), BuildingBlock: AJUNOK_clean_linker_0, # of connection points: 2
#     Edge 89, Type (0, 0), BuildingBlock: AJUNOK_clean_linker_0, # of connection points: 2
#     Edge 90, Type (0, 0), BuildingBlock: AJUNOK_clean_linker_0, # of connection points: 2
#     Edge 91, Type (0, 0), BuildingBlock: AJUNOK_clean_linker_0, # of connection points: 2
#     Edge 92, Type (0, 0), BuildingBlock: AJUNOK_clean_linker_0, # of connection points: 2
#     Edge 93, Type (0, 0), BuildingBlock: AJUNOK_clean_linker_0, # of connection points: 2
#     Edge 94, Type (0, 0), BuildingBlock: AJUNOK_clean_linker_0, # of connection points: 2
#     Edge 95, Type (0, 0), BuildingBlock: AJUNOK_clean_linker_0, # of connection points: 2
#     Edge 96, Type (0, 0), BuildingBlock: AJUNOK_clean_linker_0, # of connection points: 2
#     Edge 97, Type (0, 0), BuildingBlock: AJUNOK_clean_linker_0, # of connection points: 2
#     Edge 98, Type (0, 0), BuildingBlock: AJUNOK_clean_linker_0, # of connection points: 2
#     Edge 99, Type (0, 0), BuildingBlock: AJUNOK_clean_linker_0, # of connection points: 2
#     Edge 100, Type (0, 0), BuildingBlock: AJUNOK_clean_linker_0, # of connection points: 2
#     Edge 101, Type (0, 0), BuildingBlock: AJUNOK_clean_linker_0, # of connection points: 2
#     Edge 102, Type (0, 0), BuildingBlock: AJUNOK_clean_linker_0, # of connection points: 2
#     Edge 103, Type (0, 0), BuildingBlock: AJUNOK_clean_linker_0, # of connection points: 2
#     Edge 104, Type (0, 0), BuildingBlock: AJUNOK_clean_linker_0, # of connection points: 2
#     Edge 105, Type (0, 0), BuildingBlock: AJUNOK_clean_linker_0, # of connection points: 2
#     Edge 106, Type (0, 0), BuildingBlock: AJUNOK_clean_linker_0, # of connection points: 2
#     Edge 107, Type (0, 0), BuildingBlock: AJUNOK_clean_linker_0, # of connection points: 2
#     Edge 108, Type (0, 0), BuildingBlock: AJUNOK_clean_linker_0, # of connection points: 2
#     Edge 109, Type (0, 0), BuildingBlock: AJUNOK_clean_linker_0, # of connection points: 2
#     Edge 110, Type (0, 0), BuildingBlock: AJUNOK_clean_linker_0, # of connection points: 2
#     Edge 111, Type (0, 0), BuildingBlock: AJUNOK_clean_linker_0, # of connection points: 2
#     Edge 112, Type (0, 0), BuildingBlock: AJUNOK_clean_linker_0, # of connection points: 2
#     Edge 113, Type (0, 0), BuildingBlock: AJUNOK_clean_linker_0, # of connection points: 2
#     Edge 114, Type (0, 0), BuildingBlock: AJUNOK_clean_linker_0, # of connection points: 2
#     Edge 115, Type (0, 0), BuildingBlock: AJUNOK_clean_linker_0, # of connection points: 2
#     Edge 116, Type (0, 0), BuildingBlock: AJUNOK_clean_linker_0, # of connection points: 2
#     Edge 117, Type (0, 0), BuildingBlock: AJUNOK_clean_linker_0, # of connection points: 2
#     Edge 118, Type (0, 0), BuildingBlock: AJUNOK_clean_linker_0, # of connection points: 2
#     Edge 119, Type (0, 0), BuildingBlock: AJUNOK_clean_linker_0, # of connection points: 2
#     Edge 120, Type (0, 0), BuildingBlock: AJUNOK_clean_linker_0, # of connection points: 2
#     Edge 121, Type (0, 0), BuildingBlock: AJUNOK_clean_linker_0, # of connection points: 2
#     Edge 122, Type (0, 0), BuildingBlock: AJUNOK_clean_linker_0, # of connection points: 2
#     Edge 123, Type (0, 0), BuildingBlock: AJUNOK_clean_linker_0, # of connection points: 2
#     Edge 124, Type (0, 0), BuildingBlock: AJUNOK_clean_linker_0, # of connection points: 2
#     Edge 125, Type (0, 0), BuildingBlock: AJUNOK_clean_linker_0, # of connection points: 2
#     Edge 126, Type (0, 0), BuildingBlock: AJUNOK_clean_linker_0, # of connection points: 2
#     Edge 127, Type (0, 0), BuildingBlock: AJUNOK_clean_linker_0, # of connection points: 2
#     Edge 128, Type (0, 0), BuildingBlock: AJUNOK_clean_linker_0, # of connection points: 2
#     Edge 129, Type (0, 0), BuildingBlock: AJUNOK_clean_linker_0, # of connection points: 2
#     Edge 130, Type (0, 0), BuildingBlock: AJUNOK_clean_linker_0, # of connection points: 2
#     Edge 131, Type (0, 0), BuildingBlock: AJUNOK_clean_linker_0, # of connection points: 2
#     Edge 132, Type (0, 0), BuildingBlock: AJUNOK_clean_linker_0, # of connection points: 2
#     Edge 133, Type (0, 0), BuildingBlock: AJUNOK_clean_linker_0, # of connection points: 2
#     Edge 134, Type (0, 0), BuildingBlock: AJUNOK_clean_linker_0, # of connection points: 2
#     Edge 135, Type (0, 0), BuildingBlock: AJUNOK_clean_linker_0, # of connection points: 2
#     Edge 136, Type (0, 0), BuildingBlock: AJUNOK_clean_linker_0, # of connection points: 2
#     Edge 137, Type (0, 0), BuildingBlock: AJUNOK_clean_linker_0, # of connection points: 2
#     Edge 138, Type (0, 0), BuildingBlock: AJUNOK_clean_linker_0, # of connection points: 2
#     Edge 139, Type (0, 0), BuildingBlock: AJUNOK_clean_linker_0, # of connection points: 2
#     Edge 140, Type (0, 0), BuildingBlock: AJUNOK_clean_linker_0, # of connection points: 2
#     Edge 141, Type (0, 0), BuildingBlock: AJUNOK_clean_linker_0, # of connection points: 2
#     Edge 142, Type (0, 0), BuildingBlock: AJUNOK_clean_linker_0, # of connection points: 2
#     Edge 143, Type (0, 0), BuildingBlock: AJUNOK_clean_linker_0, # of connection points: 2
# Relax obj value: 0.736
# Max RMSD: 0.287
# Mean RMSD: 0.287
data_MOF--net-wmx--node1-VOLQOD_clean_sbu_1--edge1-AJUNOK_clean_linker_0
_symmetry_space_group_name_H-M    P1
_symmetry_Int_Tables_number       1
_symmetry_cell_setting            triclinic
loop_
_symmetry_equiv_pos_as_xyz
'x, y, z'
_cell_length_a     41.436857
_cell_length_b     41.42089
_cell_length_c     42.288585
_cell_angle_alpha  90.048891
_cell_angle_beta   90.06808
_cell_angle_gamma 120.17543
loop_
_atom_site_label
_atom_site_type_symbol
_atom_site_fract_x
_atom_site_fract_y
_atom_site_fract_z
_atom_type_partial_charge
O0 O 0.19191 0.14378 0.17558 0.0
Zn1 Zn 0.18836 0.11663 0.13466 0.0
O2 O 0.18142 0.14287 0.10198 0.0
Zn3 Zn 0.14247 0.11274 0.0745 0.0
Zn4 Zn 0.17357 0.18131 0.11743 0.0
Zn5 Zn 0.22374 0.16381 0.07596 0.0
O6 O 0.16178 0.1058 0.03251 0.0
O7 O 0.22066 0.12533 0.04544 0.0
O8 O 0.14724 0.06213 0.13605 0.0
O9 O 0.11601 0.06245 0.09353 0.0
O10 O 0.10509 0.13002 0.07294 0.0
O11 O 0.11798 0.15976 0.11909 0.0
O12 O 0.19111 0.22132 0.08443 0.0
O13 O 0.23683 0.12017 0.1254 0.0
O14 O 0.21772 0.2013 0.0502 0.0
O15 O 0.2672 0.17696 0.10389 0.0
C16 C 0.19675 0.176 0.18249 0.0
C17 C 0.19294 0.10751 0.02709 0.0
C18 C 0.09555 0.14299 0.09625 0.0
C19 C 0.11993 0.04541 0.1169 0.0
C20 C 0.19995 0.21843 0.0561 0.0
C21 C 0.26698 0.15021 0.11911 0.0
O22 O 0.19467 0.19707 0.16156 0.0
O23 O 0.83926 0.02828 0.17898 0.0
Zn24 Zn 0.86363 0.05561 0.13826 0.0
O25 O 0.83588 0.0276 0.10353 0.0
Zn26 Zn 0.86444 0.01982 0.07319 0.0
Zn27 Zn 0.79931 0.98209 0.11996 0.0
Zn28 Zn 0.81018 0.04714 0.08212 0.0
O29 O 0.86281 0.04307 0.03028 0.0
O30 O 0.8451 0.08144 0.05024 0.0
O31 O 0.91931 0.07564 0.13312 0.0
O32 O 0.91727 0.05304 0.08512 0.0
O33 O 0.85481 0.96636 0.07923 0.0
O34 O 0.8246 0.95291 0.12554 0.0
O35 O 0.76197 0.95547 0.08609 0.0
O36 O 0.85646 0.09826 0.13873 0.0
O37 O 0.77028 0.00338 0.05658 0.0
O38 O 0.80271 0.08032 0.11292 0.0
C39 C 0.80452 0.00641 0.18452 0.0
C40 C 0.86094 0.07306 0.02872 0.0
C41 C 0.84286 0.94677 0.10457 0.0
C42 C 0.9357 0.07346 0.10837 0.0
C43 C 0.75871 0.9685 0.05978 0.0
C44 C 0.82899 0.10239 0.13167 0.0
O45 O 0.78149 0.98861 0.16232 0.0
O46 O 0.93363 0.77582 0.17425 0.0
Zn47 Zn 0.90972 0.78378 0.13503 0.0
O48 O 0.94204 0.79416 0.10095 0.0
Zn49 Zn 0.94747 0.83385 0.07603 0.0
Zn50 Zn -0.01033 0.80573 0.11537 0.0
Zn51 Zn 0.92153 0.75314 0.07279 0.0
O52 O 0.92663 0.8176 0.03209 0.0
O53 O 0.88617 0.75859 0.04311 0.0
O54 O 0.89446 0.82283 0.14076 0.0
O55 O 0.91546 0.85142 0.09454 0.0
O56 O -0.00079 0.8774 0.0799 0.0
O57 O 0.01897 0.86131 0.1227 0.0
O58 O 0.01414 0.79511 0.07962 0.0
O59 O 0.86425 0.73719 0.12241 0.0
O60 O 0.96623 0.76107 0.04729 0.0
O61 O 0.89007 0.70751 0.09916 0.0
C62 C 0.96322 0.77393 0.1788 0.0
C63 C 0.89565 0.78776 0.02675 0.0
C64 C 0.02102 0.88613 0.10372 0.0
C65 C 0.89741 0.84641 0.12001 0.0
C66 C 0.00134 0.78184 0.05227 0.0
C67 C 0.86327 0.70716 0.11445 0.0
O68 O -0.0134 0.78082 0.15661 0.0
O69 O 0.13939 0.19405 0.31847 0.0
Zn70 Zn 0.10926 0.18884 0.35751 0.0
O71 O 0.1336 0.18103 0.3912 0.0
Zn72 Zn 0.09864 0.14165 0.41582 0.0
Zn73 Zn 0.17191 0.17197 0.37869 0.0
Zn74 Zn 0.15661 0.22564 0.41532 0.0
O75 O 0.08116 0.16402 0.4503 0.0
O76 O 0.11871 0.22534 0.44421 0.0
O77 O 0.05475 0.14911 0.35259 0.0
O78 O 0.05217 0.11294 0.39204 0.0
O79 O 0.11529 0.10335 0.4217 0.0
O80 O 0.14779 0.11655 0.37701 0.0
O81 O 0.20889 0.18677 0.41434 0.0
O82 O 0.11037 0.23553 0.3681 0.0
O83 O 0.19435 0.22244 0.44321 0.0
O84 O 0.16885 0.26788 0.38547 0.0
C85 C 0.17116 0.19709 0.31302 0.0
C86 C 0.09034 0.19784 0.45658 0.0
C87 C 0.12832 0.09334 0.39853 0.0
C88 C 0.03694 0.11946 0.36885 0.0
C89 C 0.20798 0.20089 0.44089 0.0
C90 C 0.14017 0.26633 0.37258 0.0
O91 O 0.19018 0.19288 0.33478 0.0
O92 O 0.77913 0.94012 0.32566 0.0
Zn93 Zn 0.78332 0.91889 0.36674 0.0
O94 O 0.79035 0.95224 0.4005 0.0
Zn95 Zn 0.83084 0.95722 0.42612 0.0
Zn96 Zn 0.80053 -0.00055 0.38214 0.0
Zn97 Zn 0.74681 0.93261 0.42729 0.0
O98 O 0.81362 0.93192 0.46916 0.0
O99 O 0.75224 0.9058 0.46399 0.0
O100 O 0.82237 0.9039 0.36267 0.0
O101 O 0.85068 0.92631 0.40852 0.0
O102 O 0.87495 0.00926 0.42068 0.0
O103 O 0.85602 0.03089 0.38058 0.0
O104 O 0.7786 0.02224 0.41071 0.0
O105 O 0.73649 0.87292 0.37526 0.0
O106 O 0.74164 0.97634 0.44165 0.0
O107 O 0.70355 0.89059 0.40465 0.0
C108 C 0.77806 0.96895 0.31681 0.0
C109 C 0.78044 0.90854 0.47819 0.0
C110 C 0.8818 0.03219 0.3979 0.0
C111 C 0.84627 0.90792 0.38338 0.0
C112 C 0.76926 0.00945 0.43863 0.0
C113 C 0.70625 0.86585 0.38863 0.0
O114 O 0.78262 -0.00576 0.33652 0.0
O115 O 0.0322 0.83389 0.31309 0.0
Zn116 Zn 0.05785 0.86415 0.35278 0.0
O117 O 0.02494 0.84 0.38635 0.0
Zn118 Zn 0.01847 0.87672 0.40647 0.0
Zn119 Zn 0.97729 0.80341 0.37368 0.0
Zn120 Zn 0.04425 0.81853 0.41488 0.0
O121 O 0.05983 0.90097 0.44013 0.0
O122 O 0.07601 0.85748 0.44524 0.0
O123 O 0.07877 0.92123 0.35432 0.0
O124 O 0.02819 0.91589 0.37556 0.0
O125 O 0.96378 0.85771 0.41484 0.0
O126 O 0.9481 0.82929 0.36809 0.0
O127 O 0.95306 0.76939 0.41113 0.0
O128 O 0.10088 0.85831 0.36184 0.0
O129 O 0.00189 0.77875 0.44007 0.0
O130 O 0.08258 0.80977 0.39408 0.0
C131 C 0.00389 0.80105 0.3091 0.0
C132 C 0.08048 0.88925 0.45207 0.0
C133 C 0.94234 0.84613 0.39064 0.0
C134 C 0.0608 0.93633 0.36513 0.0
C135 C 0.96703 0.767 0.43734 0.0
C136 C 0.10739 0.83558 0.37676 0.0
O137 O 0.98119 0.78318 0.33156 0.0
O138 O 0.77082 0.78779 0.83461 0.0
Zn139 Zn 0.76409 0.8094 0.87633 0.0
O140 O 0.79598 0.86226 0.87671 0.0
Zn141 Zn 0.83337 0.88537 0.90571 0.0
Zn142 Zn 0.81479 0.87485 0.83595 0.0
Zn143 Zn 0.77371 0.89023 0.88223 0.0
O144 O 0.8203 0.91447 0.93988 0.0
O145 O 0.76097 0.89175 0.92607 0.0
O146 O 0.77628 0.7883 0.91809 0.0
O147 O 0.826 0.84332 0.9288 0.0
O148 O 0.88334 0.90149 0.88375 0.0
O149 O 0.86054 0.87232 0.83762 0.0
O150 O 0.83281 0.92858 0.82633 0.0
O151 O 0.71407 0.80522 0.86608 0.0
O152 O 0.81154 0.94175 0.86937 0.0
O153 O 0.73244 0.86494 0.85486 0.0
C154 C 0.76932 0.8017 0.80793 0.0
C155 C 0.78725 0.90859 0.94587 0.0
C156 C 0.8869 0.88755 0.85769 0.0
C157 C 0.80551 0.80907 0.9349 0.0
C158 C 0.83376 0.95236 0.84594 0.0
C159 C 0.71177 0.8302 0.84975 0.0
O160 O 0.77965 0.83627 0.80549 0.0
O161 O 0.18244 0.97169 0.82817 0.0
Zn162 Zn 0.16348 0.95571 0.87389 0.0
O163 O 0.11019 0.9345 0.8763 0.0
Zn164 Zn 0.09215 0.95024 0.90998 0.0
Zn165 Zn 0.09635 0.9468 0.83848 0.0
Zn166 Zn 0.08268 0.8828 0.87656 0.0
O167 O 0.06285 0.90704 0.94181 0.0
O168 O 0.07271 0.86398 0.91974 0.0
O169 O 0.18823 -0.00139 0.90708 0.0
O170 O 0.13651 0.98743 0.93269 0.0
O171 O 0.07261 0.98335 0.89187 0.0
O172 O 0.10248 -0.00382 0.8457 0.0
O173 O 0.04303 0.91384 0.82981 0.0
O174 O 0.17152 0.91197 0.87922 0.0
O175 O 0.03144 0.86398 0.8576 0.0
O176 O 0.11645 0.86824 0.85868 0.0
C177 C 0.16272 0.95979 0.80299 0.0
C178 C 0.06192 0.8756 0.94283 0.0
C179 C 0.08719 0.00469 0.86772 0.0
C180 C 0.17172 0.00569 0.92938 0.0
C181 C 0.02032 0.88158 0.84023 0.0
C182 C 0.15053 0.88038 0.86595 0.0
O183 O 0.12757 0.94612 0.80379 0.0
O184 O -0.01296 0.1959 0.83813 0.0
Zn185 Zn 0.0115 0.20698 0.88232 0.0
O186 O 0.03413 0.17779 0.88964 0.0
Zn187 Zn 0.01834 0.14286 0.92192 0.0
Zn188 Zn 0.03558 0.15912 0.84951 0.0
Zn189 Zn 0.08298 0.2026 0.90113 0.0
O190 O 0.06243 0.15407 0.95332 0.0
O191 O 0.0903 0.21503 0.94616 0.0
O192 O 0.97325 0.19387 0.91907 0.0
O193 O 0.9827 0.15184 0.94466 0.0
O194 O -0.01423 0.09243 0.90032 0.0
O195 O -0.00956 0.10905 0.84932 0.0
O196 O 0.07874 0.15144 0.84344 0.0
O197 O 0.05619 0.25886 0.8746 0.0
O198 O 0.10023 0.16613 0.89219 0.0
O199 O 0.10202 0.24489 0.87425 0.0
C200 C 0.0058 0.19761 0.81352 0.0
C201 C 0.08587 0.18748 0.96244 0.0
C202 C 0.97492 0.08524 0.8714 0.0
C203 C 0.96636 0.1707 0.94185 0.0
C204 C 0.09671 0.14867 0.86652 0.0
C205 C 0.0882 0.26469 0.86534 0.0
O206 O 0.03212 0.19036 0.81532 0.0
O207 O 0.7695 0.76303 0.65779 0.0
Zn208 Zn 0.78989 0.7607 0.61357 0.0
O209 O 0.84208 0.79546 0.61193 0.0
Zn210 Zn 0.86185 0.83109 0.58015 0.0
Zn211 Zn 0.85485 0.8202 0.65032 0.0
Zn212 Zn 0.87286 0.77617 0.60674 0.0
O213 O 0.8969 0.82385 0.54963 0.0
O214 O 0.8763 0.7651 0.56244 0.0
O215 O 0.76574 0.77534 0.57647 0.0
O216 O 0.81873 0.82056 0.55538 0.0
O217 O 0.87612 0.88155 0.59919 0.0
O218 O 0.84518 0.8618 0.64462 0.0
O219 O 0.90954 0.84425 0.65732 0.0
O220 O 0.78767 0.71002 0.6144 0.0
O221 O 0.92433 0.81406 0.62234 0.0
O222 O 0.84752 0.72935 0.62678 0.0
C223 C 0.78738 0.76878 0.68386 0.0
C224 C 0.89319 0.79185 0.54334 0.0
C225 C 0.85993 0.88639 0.62307 0.0
C226 C 0.78347 0.80045 0.55532 0.0
C227 C 0.934 0.84052 0.64227 0.0
C228 C 0.81354 0.7039 0.62411 0.0
O229 O 0.82291 0.78642 0.68446 0.0
O230 O 0.19669 0.98692 0.65018 0.0
Zn231 Zn 0.20574 0.01647 0.60908 0.0
O232 O 0.17249 0.03568 0.60796 0.0
Zn233 Zn 0.1377 0.02201 0.57558 0.0
Zn234 Zn 0.15099 0.03092 0.6478 0.0
Zn235 Zn 0.1973 0.08575 0.60002 0.0
O236 O 0.14761 0.06735 0.54761 0.0
O237 O 0.2086 0.09638 0.55481 0.0
O238 O 0.1975 0.98635 0.56775 0.0
O239 O 0.1508 -0.00702 0.54848 0.0
O240 O 0.08628 0.98584 0.59391 0.0
O241 O 0.10082 0.98568 0.6449 0.0
O242 O 0.14049 0.07264 0.65697 0.0
O243 O 0.25728 0.06122 0.6168 0.0
O244 O 0.16237 0.10338 0.61209 0.0
O245 O 0.24147 0.10502 0.62486 0.0
C246 C 0.1938 -0.00058 0.6771 0.0
C247 C 0.18071 0.09183 0.53886 0.0
C248 C 0.07778 0.97254 0.62198 0.0
C249 C 0.17349 0.98101 0.54619 0.0
C250 C 0.14164 0.09554 0.63631 0.0
C251 C 0.26384 0.09272 0.62783 0.0
O252 O 0.18158 0.02211 0.67967 0.0
O253 O 0.97998 0.18899 0.65909 0.0
Zn254 Zn 0.9559 0.17399 0.61443 0.0
O255 O 0.93444 0.1211 0.60808 0.0
Zn256 Zn 0.95194 0.10414 0.57488 0.0
Zn257 Zn 0.93875 0.10131 0.64648 0.0
Zn258 Zn 0.88456 0.0971 0.59682 0.0
O259 O 0.90974 0.06737 0.54445 0.0
O260 O 0.87723 0.09597 0.55063 0.0
O261 O -0.01035 0.20088 0.57573 0.0
O262 O 0.98089 0.14957 0.55046 0.0
O263 O -0.01079 0.09067 0.59291 0.0
O264 O -0.01287 0.10189 0.64421 0.0
O265 O 0.89764 0.0481 0.65052 0.0
O266 O 0.91215 0.18227 0.61965 0.0
O267 O 0.86167 0.04412 0.61001 0.0
O268 O 0.86422 0.12341 0.61855 0.0
C269 C 0.96427 0.16948 0.68385 0.0
C270 C 0.8846 0.07444 0.53481 0.0
C271 C 0.00268 0.09555 0.62094 0.0
C272 C -0.00573 0.1847 0.55169 0.0
C273 C 0.87001 0.02899 0.63225 0.0
C274 C 0.87809 0.15781 0.6249 0.0
O275 O 0.94168 0.13443 0.68182 0.0
O276 O 0.83509 0.47056 0.50662 0.0
Zn277 Zn 0.83881 0.44793 0.4646 0.0
O278 O 0.84093 0.47801 0.42952 0.0
Zn279 Zn 0.80356 0.4498 0.39798 0.0
Zn280 Zn 0.83611 0.51847 0.44594 0.0
Zn281 Zn 0.88726 0.49875 0.40768 0.0
O282 O 0.82575 0.44478 0.35561 0.0
O283 O 0.88252 0.46312 0.37409 0.0
O284 O 0.79926 0.39361 0.45847 0.0
O285 O 0.7771 0.39651 0.41147 0.0
O286 O 0.76404 0.46554 0.3991 0.0
O287 O 0.78217 0.50289 0.44158 0.0
O288 O 0.8688 0.56428 0.42085 0.0
O289 O 0.88732 0.44984 0.46563 0.0
O290 O 0.89511 0.54588 0.38584 0.0
O291 O 0.92571 0.49977 0.43696 0.0
C292 C 0.84432 0.5042 0.51342 0.0
C293 C 0.85715 0.44593 0.35356 0.0
C294 C 0.75776 0.48328 0.42083 0.0
C295 C 0.77781 0.37767 0.4349 0.0
C296 C 0.87617 0.5617 0.39212 0.0
C297 C 0.91985 0.47328 0.4559 0.0
O298 O 0.84949 0.52786 0.49202 0.0
O299 O 0.50023 0.37841 0.50153 0.0
Zn300 Zn 0.52575 0.39773 0.45859 0.0
O301 O 0.49832 0.36338 0.42581 0.0
Zn302 Zn 0.53193 0.36277 0.39598 0.0
Zn303 Zn 0.4642 0.31627 0.44314 0.0
Zn304 Zn 0.47012 0.3816 0.40446 0.0
O305 O 0.52754 0.38314 0.35258 0.0
O306 O 0.50277 0.41621 0.37082 0.0
O307 O 0.58094 0.41478 0.45907 0.0
O308 O 0.5834 0.40118 0.40872 0.0
O309 O 0.53141 0.31365 0.40258 0.0
O310 O 0.48854 0.28555 0.4405 0.0
O311 O 0.41634 0.29594 0.41984 0.0
O312 O 0.52359 0.4421 0.44582 0.0
O313 O 0.42632 0.33681 0.38318 0.0
O314 O 0.46274 0.4132 0.4365 0.0
C315 C 0.47166 0.34707 0.50873 0.0
C316 C 0.52145 0.41049 0.35002 0.0
C317 C 0.51513 0.28811 0.42357 0.0
C318 C 0.5995 0.41792 0.43414 0.0
C319 C 0.41754 0.30351 0.39069 0.0
C320 C 0.4927 0.44127 0.44697 0.0
O321 O 0.45498 0.32158 0.48815 0.0
O322 O 0.59705 0.11448 0.5066 0.0
Zn323 Zn 0.57548 0.12287 0.4659 0.0
O324 O 0.6067 0.12779 0.43183 0.0
Zn325 Zn 0.61154 0.16382 0.40204 0.0
Zn326 Zn 0.65405 0.13892 0.44639 0.0
Zn327 Zn 0.58502 0.08161 0.41068 0.0
O328 O 0.57811 0.1387 0.36318 0.0
O329 O 0.54819 0.0796 0.37942 0.0
O330 O 0.56576 0.16632 0.46823 0.0
O331 O 0.59021 0.19203 0.42175 0.0
O332 O 0.66603 0.2039 0.39786 0.0
O333 O 0.68482 0.19436 0.44447 0.0
O334 O 0.67602 0.11889 0.41568 0.0
O335 O 0.52817 0.07718 0.45567 0.0
O336 O 0.62744 0.08436 0.3847 0.0
O337 O 0.55363 0.04274 0.44305 0.0
C338 C 0.62692 0.11359 0.51236 0.0
C339 C 0.55145 0.10484 0.36054 0.0
C340 C 0.68817 0.21598 0.4217 0.0
C341 C 0.57388 0.19141 0.4473 0.0
C342 C 0.66267 0.1053 0.38856 0.0
C343 C 0.5267 0.04587 0.4545 0.0
O344 O 0.65147 0.1213 0.49102 0.0
O345 O 0.8026 0.53804 0.65307 0.0
Zn346 Zn 0.77529 0.53221 0.69437 0.0
O347 O 0.79647 0.51652 0.72545 0.0
Zn348 Zn 0.7581 0.47851 0.74941 0.0
Zn349 Zn 0.83107 0.50414 0.70855 0.0
Zn350 Zn 0.82502 0.55888 0.75192 0.0
O351 O 0.74905 0.50113 0.78946 0.0
O352 O 0.7909 0.5616 0.78397 0.0
O353 O 0.72001 0.499 0.6878 0.0
O354 O 0.71035 0.46172 0.72853 0.0
O355 O 0.76276 0.43199 0.74528 0.0
O356 O 0.8024 0.44935 0.7044 0.0
O357 O 0.87039 0.51346 0.741 0.0
O358 O 0.78182 0.578 0.7141 0.0
O359 O 0.86014 0.54732 0.7759 0.0
O360 O 0.84206 0.60395 0.72393 0.0
C361 C 0.83054 0.53482 0.64473 0.0
C362 C 0.76253 0.53532 0.79758 0.0
C363 C 0.77778 0.42428 0.72212 0.0
C364 C 0.69843 0.47156 0.70508 0.0
C365 C 0.87188 0.5249 0.76923 0.0
C366 C 0.81415 0.60638 0.71418 0.0
O367 O 0.84761 0.52523 0.66442 0.0
O368 O 0.46564 0.29179 0.64827 0.0
Zn369 Zn 0.46421 0.26494 0.68808 0.0
O370 O 0.46086 0.29033 0.72319 0.0
Zn371 Zn 0.4971 0.29839 0.75417 0.0
Zn372 Zn 0.46544 0.33531 0.70814 0.0
Zn373 Zn 0.41547 0.26471 0.74443 0.0
O374 O 0.47296 0.27519 0.79711 0.0
O375 O 0.41964 0.23165 0.77601 0.0
O376 O 0.50424 0.25088 0.69211 0.0
O377 O 0.51881 0.26687 0.7425 0.0
O378 O 0.53967 0.35214 0.74878 0.0
O379 O 0.51936 0.36927 0.70639 0.0
O380 O 0.44572 0.35517 0.74112 0.0
O381 O 0.41637 0.21866 0.68643 0.0
O382 O 0.41207 0.30447 0.76989 0.0
O383 O 0.3767 0.22953 0.71388 0.0
C384 C 0.45374 0.31407 0.64169 0.0
C385 C 0.44339 0.24286 0.79828 0.0
C386 C 0.54507 0.37411 0.72549 0.0
C387 C 0.52071 0.25085 0.71755 0.0
C388 C 0.43373 0.33987 0.76799 0.0
C389 C 0.38345 0.20965 0.69478 0.0
O390 O 0.44679 0.33121 0.66333 0.0
O391 O 0.69412 0.16572 0.64779 0.0
Zn392 Zn 0.71981 0.19845 0.68556 0.0
O393 O 0.69248 0.17547 0.72212 0.0
Zn394 Zn 0.69069 0.21078 0.74896 0.0
Zn395 Zn 0.64382 0.1388 0.70999 0.0
Zn396 Zn 0.71345 0.15113 0.74484 0.0
O397 O 0.73084 0.22633 0.78389 0.0
O398 O 0.75086 0.1862 0.7759 0.0
O399 O 0.7313 0.25193 0.67959 0.0
O400 O 0.70867 0.25719 0.72556 0.0
O401 O 0.63596 0.19587 0.75507 0.0
O402 O 0.61661 0.1666 0.70853 0.0
O403 O 0.62069 0.10303 0.74591 0.0
O404 O 0.7663 0.19863 0.6917 0.0
O405 O 0.67116 0.11191 0.77197 0.0
O406 O 0.74529 0.14249 0.71365 0.0
C407 C 0.66489 0.13383 0.64379 0.0
C408 C 0.75354 0.21461 0.78977 0.0
C409 C 0.61353 0.18495 0.73135 0.0
C410 C 0.72375 0.27057 0.69915 0.0
C411 C 0.63599 0.09972 0.77088 0.0
C412 C 0.76947 0.17023 0.6973 0.0
O413 O 0.64241 0.11716 0.66659 0.0
O414 O 0.43762 0.12611 0.16912 0.0
Zn415 Zn 0.42868 0.1353 0.21598 0.0
O416 O 0.46249 0.18612 0.22655 0.0
Zn417 Zn 0.49778 0.19822 0.25816 0.0
Zn418 Zn 0.48444 0.20847 0.18864 0.0
Zn419 Zn 0.4415 0.2129 0.24089 0.0
O420 O 0.49416 0.23371 0.2917 0.0
O421 O 0.43298 0.2058 0.2863 0.0
O422 O 0.43748 0.10348 0.24958 0.0
O423 O 0.48177 0.15031 0.27846 0.0
O424 O 0.54632 0.21061 0.23571 0.0
O425 O 0.52806 0.20199 0.18507 0.0
O426 O 0.50472 0.2632 0.18929 0.0
O427 O 0.37814 0.1323 0.2139 0.0
O428 O 0.47776 0.26744 0.23299 0.0
O429 O 0.39563 0.19276 0.2183 0.0
C430 C 0.44127 0.14885 0.14696 0.0
C431 C 0.46211 0.22638 0.30221 0.0
C432 C 0.5515 0.20626 0.20646 0.0
C433 C 0.45976 0.1157 0.27345 0.0
C434 C 0.50157 0.28273 0.2109 0.0
C435 C 0.372 0.15953 0.21033 0.0
O436 O 0.44961 0.18205 0.15369 0.0
O437 O 0.85248 0.3115 0.16577 0.0
Zn438 Zn 0.83805 0.29266 0.21104 0.0
O439 O 0.78519 0.27124 0.2192 0.0
Zn440 Zn 0.77934 0.28713 0.25986 0.0
Zn441 Zn 0.76958 0.28949 0.18607 0.0
Zn442 Zn 0.75559 0.21951 0.2169 0.0
O443 O 0.74141 0.24241 0.28711 0.0
O444 O 0.74147 0.19671 0.25938 0.0
O445 O 0.86485 0.3366 0.24261 0.0
O446 O 0.82788 0.30467 0.28185 0.0
O447 O 0.77556 0.33464 0.25245 0.0
O448 O 0.78137 0.33937 0.19987 0.0
O449 O 0.71543 0.25824 0.17971 0.0
O450 O 0.8465 0.24851 0.21067 0.0
O451 O 0.70626 0.20318 0.19517 0.0
O452 O 0.78805 0.20457 0.19684 0.0
C453 C 0.83047 0.30341 0.14227 0.0
C454 C 0.73327 0.20826 0.28423 0.0
C455 C 0.78142 0.35332 0.22671 0.0
C456 C 0.85592 0.33427 0.27176 0.0
C457 C 0.6941 0.22337 0.18346 0.0
C458 C 0.82298 0.21678 0.19866 0.0
O459 O 0.79587 0.29126 0.14624 0.0
O460 O 0.66819 0.53426 0.16875 0.0
Zn461 Zn 0.68653 0.54689 0.21517 0.0
O462 O 0.7073 0.5174 0.22886 0.0
Zn463 Zn 0.68884 0.48794 0.26516 0.0
Zn464 Zn 0.70482 0.48804 0.19458 0.0
Zn465 Zn 0.75568 0.54339 0.24367 0.0
O466 O 0.73084 0.49654 0.29672 0.0
O467 O 0.75925 0.55702 0.28885 0.0
O468 O 0.642 0.53225 0.24632 0.0
O469 O 0.65501 0.50272 0.28432 0.0
O470 O 0.65408 0.43512 0.25102 0.0
O471 O 0.65557 0.44152 0.19874 0.0
O472 O 0.74485 0.47491 0.19829 0.0
O473 O 0.7322 0.59973 0.21057 0.0
O474 O 0.7784 0.51057 0.23864 0.0
O475 O 0.77807 0.58693 0.2183 0.0
C476 C 0.68303 0.52451 0.14699 0.0
C477 C 0.75458 0.52971 0.30559 0.0
C478 C 0.64005 0.42294 0.22367 0.0
C479 C 0.6351 0.5155 0.2732 0.0
C480 C 0.77091 0.4848 0.21857 0.0
C481 C 0.76645 0.60798 0.2079 0.0
O482 O 0.70485 0.51225 0.15393 0.0
O483 O 0.44397 0.11962 0.99197 0.0
Zn484 Zn 0.45546 0.10548 0.94824 0.0
O485 O 0.50781 0.13003 0.94136 0.0
Zn486 Zn 0.52927 0.16557 0.91038 0.0
Zn487 Zn 0.52407 0.15206 0.9809 0.0
Zn488 Zn 0.53259 0.10425 0.93692 0.0
O489 O 0.56057 0.15186 0.88066 0.0
O490 O 0.53482 0.09164 0.8922 0.0
O491 O 0.43386 0.12354 0.91172 0.0
O492 O 0.48717 0.16251 0.8867 0.0
O493 O 0.55114 0.21611 0.93269 0.0
O494 O 0.51877 0.19598 0.97762 0.0
O495 O 0.5784 0.17211 0.98706 0.0
O496 O 0.44259 0.05189 0.95691 0.0
O497 O 0.58665 0.1388 0.95056 0.0
O498 O 0.50107 0.06211 0.96337 0.0
C499 C 0.45943 0.11676 0.01718 0.0
C500 C 0.55512 0.1191 0.87431 0.0
C501 C 0.5363 0.22143 0.95733 0.0
C502 C 0.45195 0.14709 0.88955 0.0
C503 C 0.60001 0.16533 0.97074 0.0
C504 C 0.46608 0.0437 0.96899 0.0
O505 O 0.49154 0.12002 0.01571 0.0
O506 O 0.86541 0.32717 0.98826 0.0
Zn507 Zn 0.87496 0.35081 0.94413 0.0
O508 O 0.8394 0.36679 0.93819 0.0
Zn509 Zn 0.8047 0.34646 0.90526 0.0
Zn510 Zn 0.81469 0.36388 0.97589 0.0
Zn511 Zn 0.86282 0.41585 0.92531 0.0
O512 O 0.8126 0.38731 0.87267 0.0
O513 O 0.87344 0.4194 0.87999 0.0
O514 O 0.86797 0.31471 0.90663 0.0
O515 O 0.81981 0.31543 0.88331 0.0
O516 O 0.75322 0.3097 0.92349 0.0
O517 O 0.76684 0.31483 0.97489 0.0
O518 O 0.80031 0.40395 0.97733 0.0
O519 O 0.92605 0.39854 0.94942 0.0
O520 O 0.82837 0.43569 0.93384 0.0
O521 O 0.90909 0.44182 0.94768 0.0
C522 C 0.85953 0.34123 0.01309 0.0
C523 C 0.84531 0.4119 0.86314 0.0
C524 C 0.74462 0.29792 0.95199 0.0
C525 C 0.84337 0.30449 0.88456 0.0
C526 C 0.80552 0.4284 0.95651 0.0
C527 C 0.93298 0.43211 0.95371 0.0
O528 O 0.84584 0.36275 0.01154 0.0
O529 O 0.64428 0.52566 0.99309 0.0
Zn530 Zn 0.61767 0.51082 0.94855 0.0
O531 O 0.59799 0.45843 0.93887 0.0
Zn532 Zn 0.61639 0.44518 0.90384 0.0
Zn533 Zn 0.61435 0.44655 0.97501 0.0
Zn534 Zn 0.54674 0.42481 0.93982 0.0
O535 O 0.57292 0.41074 0.87235 0.0
O536 O 0.52609 0.41156 0.89716 0.0
O537 O 0.65543 0.54024 0.91241 0.0
O538 O 0.6473 0.49237 0.88203 0.0
O539 O 0.65631 0.43314 0.92056 0.0
O540 O 0.66681 0.46071 0.96783 0.0
O541 O 0.58902 0.39333 0.98125 0.0
O542 O 0.57027 0.51381 0.95428 0.0
O543 O 0.53377 0.37538 0.96017 0.0
O544 O 0.5268 0.45295 0.95903 0.0
C545 C 0.63007 0.50387 0.01681 0.0
C546 C 0.53888 0.4035 0.87312 0.0
C547 C 0.67691 0.44733 0.9453 0.0
C548 C 0.6624 0.52716 0.8874 0.0
C549 C 0.55638 0.36787 0.9742 0.0
C550 C 0.53711 0.48746 0.96098 0.0
O551 O 0.606 0.47005 0.01196 0.0
O552 O 0.5261 0.80502 0.83936 0.0
Zn553 Zn 0.52453 0.78092 0.79774 0.0
O554 O 0.51285 0.8068 0.76717 0.0
Zn555 Zn 0.4672 0.76803 0.75257 0.0
Zn556 Zn 0.50218 0.84327 0.78284 0.0
Zn557 Zn 0.55069 0.82531 0.735 0.0
O558 O 0.47977 0.74271 0.71788 0.0
O559 O 0.53767 0.78444 0.70372 0.0
O560 O 0.49035 0.72427 0.79581 0.0
O561 O 0.44338 0.73253 0.78746 0.0
O562 O 0.42846 0.7823 0.74472 0.0
O563 O 0.44571 0.82134 0.78535 0.0
O564 O 0.52193 0.88491 0.75048 0.0
O565 O 0.57318 0.78833 0.78665 0.0
O566 O 0.5484 0.86744 0.71367 0.0
O567 O 0.59993 0.83341 0.75096 0.0
C568 C 0.52676 0.83511 0.84754 0.0
C569 C 0.50869 0.75242 0.70083 0.0
C570 C 0.42082 0.79929 0.76587 0.0
C571 C 0.45553 0.71056 0.79216 0.0
C572 C 0.52899 0.88234 0.72144 0.0
C573 C 0.60068 0.80921 0.76914 0.0
O574 O 0.52227 0.8557 0.82751 0.0
O575 O 0.16382 0.67932 0.84422 0.0
Zn576 Zn 0.18751 0.71358 0.80662 0.0
O577 O 0.1619 0.69257 0.76825 0.0
Zn578 Zn 0.19442 0.69154 0.73699 0.0
Zn579 Zn 0.12179 0.64426 0.77985 0.0
Zn580 Zn 0.14103 0.71865 0.74788 0.0
O581 O 0.19493 0.71838 0.69551 0.0
O582 O 0.17799 0.75592 0.71803 0.0
O583 O 0.24329 0.73487 0.80311 0.0
O584 O 0.24698 0.72314 0.75232 0.0
O585 O 0.18591 0.63879 0.73728 0.0
O586 O 0.14227 0.61012 0.77453 0.0
O587 O 0.07908 0.63178 0.75131 0.0
O588 O 0.1788 0.75467 0.81437 0.0
O589 O 0.09974 0.67965 0.71951 0.0
O590 O 0.13436 0.74973 0.78091 0.0
C591 C 0.1293 0.65593 0.84863 0.0
C592 C 0.19349 0.74858 0.69552 0.0
C593 C 0.16759 0.61158 0.75647 0.0
C594 C 0.26235 0.73795 0.77853 0.0
C595 C 0.08575 0.64449 0.72332 0.0
C596 C 0.1561 0.76459 0.8047 0.0
O597 O 0.10656 0.64238 0.82557 0.0
O598 O 0.27511 0.4586 0.84281 0.0
Zn599 Zn 0.247 0.46 0.80348 0.0
O600 O 0.27538 0.46405 0.76705 0.0
Zn601 Zn 0.27953 0.50156 0.7388 0.0
Zn602 Zn 0.32399 0.47557 0.77949 0.0
Zn603 Zn 0.25377 0.41883 0.74357 0.0
O604 O 0.24911 0.47973 0.69829 0.0
O605 O 0.21931 0.41979 0.71158 0.0
O606 O 0.22944 0.49837 0.80432 0.0
O607 O 0.25266 0.52419 0.75773 0.0
O608 O 0.33276 0.54489 0.73784 0.0
O609 O 0.35471 0.53099 0.78055 0.0
O610 O 0.34584 0.45925 0.7451 0.0
O611 O 0.20188 0.41093 0.79949 0.0
O612 O 0.29531 0.41908 0.71826 0.0
O613 O 0.21816 0.37618 0.77088 0.0
C614 C 0.30401 0.45531 0.84668 0.0
C615 C 0.22289 0.44608 0.69396 0.0
C616 C 0.3566 0.55459 0.76029 0.0
C617 C 0.23425 0.52155 0.78243 0.0
C618 C 0.33052 0.44163 0.71968 0.0
C619 C 0.19474 0.37954 0.78825 0.0
O620 O 0.32455 0.45739 0.82342 0.0
O621 O 0.46407 0.84794 0.97934 0.0
Zn622 Zn 0.43472 0.84638 0.01828 0.0
O623 O 0.45972 0.84421 0.05456 0.0
Zn624 Zn 0.42673 0.80447 0.08081 0.0
Zn625 Zn 0.49937 0.83841 0.03997 0.0
Zn626 Zn 0.48176 0.88701 0.07994 0.0
O627 O 0.42596 0.8222 0.12669 0.0
O628 O 0.44529 0.88051 0.11188 0.0
O629 O 0.37922 0.80684 0.01746 0.0
O630 O 0.37584 0.79003 0.0677 0.0
O631 O 0.43115 0.75942 0.06711 0.0
O632 O 0.47668 0.78444 0.0309 0.0
O633 O 0.53562 0.85003 0.07485 0.0
O634 O 0.43673 0.89416 0.02307 0.0
O635 O 0.52211 0.88463 0.10619 0.0
O636 O 0.48387 0.92989 0.05568 0.0
C637 C 0.49887 0.85968 0.97573 0.0
C638 C 0.42839 0.85401 0.13125 0.0
C639 C 0.45 0.75629 0.04443 0.0
C640 C 0.36025 0.79029 0.04201 0.0
C641 C 0.53617 0.86359 0.10198 0.0
C642 C 0.45715 0.92498 0.03718 0.0
O643 O 0.52014 0.86469 -0.00079 0.0
O644 O 0.10509 0.59225 0.99174 0.0
Zn645 Zn 0.11074 0.57527 0.0351 0.0
O646 O 0.11731 0.61247 0.06423 0.0
Zn647 Zn 0.15681 0.62308 0.09224 0.0
Zn648 Zn 0.1242 0.65593 0.04388 0.0
Zn649 Zn 0.07246 0.594 0.08711 0.0
O650 O 0.13498 0.59207 0.13299 0.0
O651 O 0.07418 0.5621 0.12145 0.0
O652 O 0.15297 0.56396 0.03544 0.0
O653 O 0.1856 0.601 0.0751 0.0
O654 O 0.19536 0.67886 0.08896 0.0
O655 O 0.17895 0.68711 0.04054 0.0
O656 O 0.10885 0.68398 0.07381 0.0
O657 O 0.06386 0.53051 0.04826 0.0
O658 O 0.0733 0.63886 0.10722 0.0
O659 O 0.03225 0.55981 0.05675 0.0
C660 C 0.1011 0.61888 0.98097 0.0
C661 C 0.10129 0.56628 0.13852 0.0
C662 C 0.20317 0.69606 0.06235 0.0
C663 C 0.18157 0.57818 0.05335 0.0
C664 C 0.09537 0.6735 0.10149 0.0
C665 C 0.03394 0.5317 0.04624 0.0
O666 O 0.10346 0.64477 -0.00097 0.0
O667 O 0.37802 0.49972 0.98575 0.0
Zn668 Zn 0.39894 0.53086 0.02577 0.0
O669 O 0.3633 0.51051 0.05828 0.0
Zn670 Zn 0.36267 0.54898 0.08134 0.0
Zn671 Zn 0.31544 0.47637 0.04228 0.0
Zn672 Zn 0.37936 0.48497 0.08585 0.0
O673 O 0.39804 0.56382 0.11911 0.0
O674 O 0.41585 0.52131 0.11772 0.0
O675 O 0.41526 0.5846 0.01607 0.0
O676 O 0.38473 0.59404 0.05471 0.0
O677 O 0.30978 0.53777 0.08624 0.0
O678 O 0.28653 0.50325 0.04259 0.0
O679 O 0.28896 0.43409 0.0724 0.0
O680 O 0.44142 0.52842 0.04386 0.0
O681 O 0.33281 0.44769 0.1086 0.0
O682 O 0.40893 0.46931 0.05889 0.0
C683 C 0.34551 0.47315 0.97823 0.0
C684 C 0.41904 0.55139 0.12868 0.0
C685 C 0.28577 0.52477 0.0638 0.0
C686 C 0.40502 0.60503 0.0302 0.0
C687 C 0.29841 0.43189 0.10061 0.0
C688 C 0.43846 0.49666 0.0472 0.0
O689 O 0.31865 0.46061 -0.00201 0.0
O690 O 0.10837 0.45804 0.50271 0.0
Zn691 Zn 0.09702 0.4694 0.54789 0.0
O692 O 0.12772 0.52176 0.55711 0.0
Zn693 Zn 0.16384 0.53767 0.58874 0.0
Zn694 Zn 0.14937 0.5414 0.51837 0.0
Zn695 Zn 0.10312 0.54664 0.56853 0.0
O696 O 0.15822 0.57371 0.62072 0.0
O697 O 0.09684 0.5458 0.6147 0.0
O698 O 0.10691 0.44135 0.58385 0.0
O699 O 0.14929 0.49122 0.61123 0.0
O700 O 0.21357 0.5503 0.56732 0.0
O701 O 0.19538 0.53838 0.51685 0.0
O702 O 0.16484 0.59463 0.51529 0.0
O703 O 0.04476 0.46113 0.54209 0.0
O704 O 0.13496 0.60088 0.55605 0.0
O705 O 0.05661 0.5201 0.54564 0.0
C706 C 0.10956 0.47818 0.47927 0.0
C707 C 0.12602 0.56678 0.63062 0.0
C708 C 0.21927 0.54479 0.53846 0.0
C709 C 0.12859 0.4561 0.60779 0.0
C710 C 0.15846 0.61509 0.53358 0.0
C711 C 0.03611 0.48631 0.53691 0.0
O712 O 0.11571 0.51111 0.48393 0.0
O713 O 0.52303 0.64004 0.50041 0.0
Zn714 Zn 0.50213 0.61723 0.54448 0.0
O715 O 0.44686 0.59746 0.54291 0.0
Zn716 Zn 0.42391 0.61014 0.57442 0.0
Zn717 Zn 0.43436 0.6123 0.50607 0.0
Zn718 Zn 0.4189 0.5464 0.54601 0.0
O719 O 0.39278 0.56797 0.60721 0.0
O720 O 0.41189 0.53001 0.59007 0.0
O721 O 0.52892 0.65327 0.58474 0.0
O722 O 0.47128 0.63589 0.59028 0.0
O723 O 0.41632 0.65373 0.56215 0.0
O724 O 0.44121 0.66295 0.51392 0.0
O725 O 0.37973 0.57827 0.49823 0.0
O726 O 0.50666 0.57064 0.54378 0.0
O727 O 0.36784 0.52974 0.52849 0.0
O728 O 0.44883 0.528 0.52784 0.0
C729 C 0.50494 0.6302 0.47417 0.0
C730 C 0.3966 0.53933 0.61124 0.0
C731 C 0.43019 0.67408 0.53747 0.0
C732 C 0.50332 0.65345 0.60125 0.0
C733 C 0.35668 0.54712 0.51083 0.0
C734 C 0.48304 0.53845 0.53268 0.0
O735 O 0.46944 0.61471 0.47307 0.0
O736 O 0.32402 0.87121 0.50326 0.0
Zn737 Zn 0.34469 0.87903 0.54884 0.0
O738 O 0.36495 0.84723 0.55658 0.0
Zn739 Zn 0.3455 0.81409 0.59052 0.0
Zn740 Zn 0.35865 0.82169 0.51887 0.0
Zn741 Zn 0.4153 0.86978 0.56537 0.0
O742 O 0.38629 0.82224 0.62286 0.0
O743 O 0.42435 0.88132 0.61056 0.0
O744 O 0.3026 0.86547 0.58223 0.0
O745 O 0.31174 0.82635 0.61222 0.0
O746 O 0.3093 0.76267 0.5728 0.0
O747 O 0.30824 0.77771 0.52228 0.0
O748 O 0.39389 0.80266 0.51579 0.0
O749 O 0.39061 0.9314 0.54707 0.0
O750 O 0.43507 0.83475 0.55322 0.0
O751 O 0.43583 0.91665 0.54372 0.0
C752 C 0.33939 0.86603 0.47907 0.0
C753 C 0.41387 0.85456 0.62981 0.0
C754 C 0.29371 0.75546 0.54549 0.0
C755 C 0.2949 0.84416 0.60646 0.0
C756 C 0.4221 0.80892 0.53234 0.0
C757 C 0.42422 0.9397 0.54068 0.0
O758 O 0.36068 0.85236 0.48195 0.0
O759 O 0.11301 0.44396 0.32601 0.0
Zn760 Zn 0.12425 0.43378 0.28048 0.0
O761 O 0.17644 0.46499 0.27179 0.0
Zn762 Zn 0.19185 0.49728 0.237 0.0
Zn763 Zn 0.19707 0.49346 0.30769 0.0
Zn764 Zn 0.20255 0.44074 0.26463 0.0
O765 O 0.22357 0.48664 0.20535 0.0
O766 O 0.20127 0.42802 0.22037 0.0
O767 O 0.09636 0.44629 0.24557 0.0
O768 O 0.1455 0.48434 0.21563 0.0
O769 O 0.20914 0.55026 0.25245 0.0
O770 O 0.18951 0.53649 0.30229 0.0
O771 O 0.25162 0.51244 0.30918 0.0
O772 O 0.11636 0.38097 0.28359 0.0
O773 O 0.2567 0.47395 0.27576 0.0
O774 O 0.17613 0.39492 0.28674 0.0
C775 C 0.13509 0.45206 0.34968 0.0
C776 C 0.21812 0.45375 0.20037 0.0
C777 C 0.19856 0.55798 0.27843 0.0
C778 C 0.11062 0.46652 0.22079 0.0
C779 C 0.27149 0.50241 0.2938 0.0
C780 C 0.14137 0.37216 0.28946 0.0
O781 O 0.16993 0.46544 0.34568 0.0
O782 O 0.52903 0.66138 0.32257 0.0
Zn783 Zn 0.53972 0.69149 0.28168 0.0
O784 O 0.50591 0.7099 0.27671 0.0
Zn785 Zn 0.47459 0.69462 0.24201 0.0
Zn786 Zn 0.47837 0.69585 0.31407 0.0
Zn787 Zn 0.52673 0.76116 0.27606 0.0
O788 O 0.48428 0.74039 0.21499 0.0
O789 O 0.54044 0.7821 0.23334 0.0
O790 O 0.53459 0.65949 0.24164 0.0
O791 O 0.49124 0.66676 0.21636 0.0
O792 O 0.42266 0.65385 0.25665 0.0
O793 O 0.43705 0.64517 0.30566 0.0
O794 O 0.45348 0.72599 0.32115 0.0
O795 O 0.58874 0.7372 0.29484 0.0
O796 O 0.48808 0.77343 0.28949 0.0
O797 O 0.56819 0.77709 0.30417 0.0
C798 C 0.52504 0.67455 0.34867 0.0
C799 C 0.51498 0.77173 0.21253 0.0
C800 C 0.41531 0.63402 0.28181 0.0
C801 C 0.5131 0.65369 0.21775 0.0
C802 C 0.45946 0.75546 0.30682 0.0
C803 C 0.59102 0.76561 0.30921 0.0
O804 O 0.51004 0.69491 0.34939 0.0
O805 O 0.31114 0.85236 0.32552 0.0
Zn806 Zn 0.28565 0.84046 0.28214 0.0
O807 O 0.26069 0.78845 0.27327 0.0
Zn808 Zn 0.27479 0.77049 0.23908 0.0
Zn809 Zn 0.26256 0.76707 0.31175 0.0
Zn810 Zn 0.21076 0.76607 0.2645 0.0
O811 O 0.23024 0.74192 0.20714 0.0
O812 O 0.20043 0.77185 0.21992 0.0
O813 O 0.32395 0.86673 0.24592 0.0
O814 O 0.31152 0.81573 0.21797 0.0
O815 O 0.30708 0.75 0.25688 0.0
O816 O 0.30859 0.76456 0.30803 0.0
O817 O 0.22101 0.71435 0.31571 0.0
O818 O 0.24329 0.85001 0.29225 0.0
O819 O 0.19059 0.71139 0.27179 0.0
O820 O 0.1961 0.79068 0.29457 0.0
C821 C 0.29391 0.83428 0.3503 0.0
C822 C 0.20579 0.75147 0.20067 0.0
C823 C 0.32167 0.75546 0.28461 0.0
C824 C 0.32957 0.85083 0.22217 0.0
C825 C 0.19746 0.6954 0.2943 0.0
C826 C 0.21212 0.82452 0.3037 0.0
O827 O 0.26791 0.80029 0.34832 0.0
C828 C 0.16001 0.15821 0.2312 0.0
C829 C 0.1932 0.18352 0.21587 0.0
C830 C 0.15344 0.16382 0.26243 0.0
C831 C 0.18017 0.19448 0.27988 0.0
H832 H 0.13855 0.13403 0.21872 0.0
H833 H 0.12728 0.14353 0.27322 0.0
S834 S 0.27199 0.26909 0.2508 0.0
N835 N 0.25301 0.24116 0.21995 0.0
N836 N 0.2415 0.25056 0.27998 0.0
C837 C 0.2139 0.22 0.26517 0.0
C838 C 0.22015 0.21487 0.23271 0.0
C839 C 0.80315 0.97065 0.23107 0.0
C840 C 0.79295 -0.00514 0.21723 0.0
C841 C 0.79609 0.96107 0.26289 0.0
C842 C 0.77921 0.97596 0.2824 0.0
H843 H 0.81752 0.95965 0.21728 0.0
H844 H 0.80569 0.94314 0.27254 0.0
S845 S 0.74367 0.03794 0.25622 0.0
N846 N 0.76208 0.03116 0.22398 0.0
N847 N 0.74985 0.01423 0.28473 0.0
C848 C 0.76756 -0.00067 0.2685 0.0
C849 C 0.77416 0.00851 0.23562 0.0
C850 C 0.95665 0.76475 0.26755 0.0
C851 C -0.00563 0.78557 0.27671 0.0
C852 C 0.94659 0.75788 0.23559 0.0
C853 C 0.97388 0.77097 0.21171 0.0
H854 H 0.93466 0.75636 0.28491 0.0
H855 H 0.91724 0.74445 0.22949 0.0
S856 S 0.07659 0.81834 0.22424 0.0
N857 N 0.05903 0.81322 0.26014 0.0
N858 N 0.04036 0.79954 0.20003 0.0
C859 C 0.01169 0.78762 0.22092 0.0
C860 C 0.02189 0.79522 0.25346 0.0
C861 C 0.74517 0.7897 0.75277 0.0
C862 C 0.76084 0.7801 0.77815 0.0
C863 C 0.74879 0.78071 0.72148 0.0
C864 C 0.76856 0.76224 0.7147 0.0
H865 H 0.73306 0.80723 0.75684 0.0
H866 H 0.74001 0.79214 0.7025 0.0
S867 S 0.80579 0.7223 0.7729 0.0
N868 N 0.78958 0.74413 0.79474 0.0
N869 N 0.7971 0.72798 0.73581 0.0
C870 C 0.77961 0.74798 0.74003 0.0
C871 C 0.77549 0.75668 0.77192 0.0
C872 C 0.15756 0.93896 0.74727 0.0
C873 C 0.17967 0.96384 0.7714 0.0
C874 C 0.16595 0.94813 0.71536 0.0
C875 C 0.19668 0.98247 0.70664 0.0
H876 H 0.13163 0.9138 0.75303 0.0
H877 H 0.14587 0.93036 0.69768 0.0
S878 S 0.26964 0.05159 0.76011 0.0
N879 N 0.23838 0.01989 0.78417 0.0
N880 N 0.25394 0.03727 0.72386 0.0
C881 C 0.222 0.00483 0.73025 0.0
C882 C 0.21361 -0.00461 0.76285 0.0
C883 C 0.95646 0.17571 0.77239 0.0
C884 C -0.00659 0.20049 0.78143 0.0
C885 C 0.94679 0.16827 0.74036 0.0
C886 C 0.97353 0.18573 0.7162 0.0
H887 H 0.93568 0.15932 0.79004 0.0
H888 H 0.91861 0.14674 0.73458 0.0
S889 S 0.07246 0.25914 0.72801 0.0
N890 N 0.05568 0.24689 0.76418 0.0
N891 N 0.0373 0.23354 0.70382 0.0
C892 C 0.00962 0.21382 0.72499 0.0
C893 C 0.01961 0.22098 0.7577 0.0
C894 C 0.80502 0.51367 0.59086 0.0
C895 C 0.83663 0.53252 0.6105 0.0
C896 C 0.80807 0.50453 0.55959 0.0
C897 C 0.84288 0.51447 0.54651 0.0
H898 H 0.77733 0.50425 0.60014 0.0
H899 H 0.78289 0.48923 0.54557 0.0
S900 S 0.93481 0.56775 0.58634 0.0
N901 N 0.90433 0.56287 0.61385 0.0
N902 N 0.91011 0.54689 0.55429 0.0
C903 C 0.87505 0.53492 0.56515 0.0
C904 C 0.8719 0.5436 0.59739 0.0
C905 C 0.46719 0.36554 0.56454 0.0
C906 C 0.46042 0.3376 0.54219 0.0
C907 C 0.46177 0.35725 0.59703 0.0
C908 C 0.45019 0.32097 0.608 0.0
H909 H 0.47799 0.39415 0.557 0.0
H910 H 0.46912 0.37981 0.61367 0.0
S911 S 0.42379 0.23692 0.55907 0.0
N912 N 0.43744 0.2713 0.53338 0.0
N913 N 0.42771 0.25618 0.59407 0.0
C914 C 0.44059 0.29238 0.58577 0.0
C915 C 0.44563 0.30058 0.55291 0.0
C916 C 0.67367 0.12976 0.55536 0.0
C917 C 0.6362 0.10958 0.54545 0.0
C918 C 0.68298 0.13457 0.5875 0.0
C919 C 0.65524 0.11905 0.611 0.0
H920 H 0.69586 0.14451 0.53835 0.0
H921 H 0.71201 0.15265 0.59392 0.0
S922 S 0.5541 0.05432 0.59696 0.0
N923 N 0.572 0.06747 0.56121 0.0
N924 N 0.58949 0.07576 0.62183 0.0
C925 C 0.61817 0.09464 0.6013 0.0
C926 C 0.60862 0.09021 0.56844 0.0
C927 C 0.42537 0.10261 0.10207 0.0
C928 C 0.44177 0.13977 0.11295 0.0
C929 C 0.42879 0.09468 0.07018 0.0
C930 C 0.44829 0.12369 0.0483 0.0
H931 H 0.41067 0.07962 0.11839 0.0
H932 H 0.41735 0.06588 0.06288 0.0
S933 S 0.49785 0.22526 0.06444 0.0
N934 N 0.47933 0.20569 0.09865 0.0
N935 N 0.4847 0.19029 0.03943 0.0
C936 C 0.46403 0.16063 0.05864 0.0
C937 C 0.46099 0.16881 0.09078 0.0
C938 C 0.87526 0.34357 0.10053 0.0
C939 C 0.84472 0.3091 0.10964 0.0
C940 C 0.88285 0.35277 0.06839 0.0
C941 C 0.86089 0.32727 0.04466 0.0
H942 H 0.8912 0.36469 0.11816 0.0
H943 H 0.90422 0.38086 0.06207 0.0
S944 S 0.78194 0.23125 0.05653 0.0
N945 N 0.79533 0.24789 0.09267 0.0
N946 N 0.81047 0.26484 0.03237 0.0
C947 C 0.83293 0.29141 0.05358 0.0
C948 C 0.82459 0.28239 0.08614 0.0
C949 C 0.6644 0.54803 0.0986 0.0
C950 C 0.67091 0.52129 0.11346 0.0
C951 C 0.65303 0.54394 0.06652 0.0
C952 C 0.6474 0.51273 0.04873 0.0
H953 H 0.66811 0.5721 0.11177 0.0
H954 H 0.64741 0.56445 0.056 0.0
S955 S 0.65947 0.43451 0.07704 0.0
N956 N 0.66995 0.46241 0.10787 0.0
N957 N 0.64948 0.45508 0.04844 0.0
C958 C 0.65426 0.48628 0.06345 0.0
C959 C 0.6657 0.49042 0.09558 0.0
C960 C 0.53584 0.87897 0.89207 0.0
C961 C 0.52621 0.84285 0.8816 0.0
C962 C 0.52861 0.88516 0.92327 0.0
C963 C 0.51137 0.85532 0.94457 0.0
H964 H 0.54773 0.90228 0.87577 0.0
H965 H 0.53513 0.91294 0.93036 0.0
S966 S 0.48233 0.75626 0.93003 0.0
N967 N 0.50016 0.77738 0.89611 0.0
N968 N 0.48654 0.78937 0.9543 0.0
C969 C 0.50327 0.81968 0.935 0.0
C970 C 0.5108 0.81333 0.90358 0.0
C971 C 0.12994 0.62146 0.89601 0.0
C972 C 0.11643 0.64236 0.88089 0.0
C973 C 0.12227 0.61177 0.92789 0.0
C974 C 0.10168 0.62358 0.94618 0.0
H975 H 0.14747 0.61337 0.88328 0.0
H976 H 0.13458 0.59676 0.93868 0.0
S977 S 0.05692 0.676 0.9165 0.0
N978 N 0.07858 0.67184 0.88529 0.0
N979 N 0.06534 0.65498 0.94594 0.0
C980 C 0.08659 0.64326 0.93093 0.0
C981 C 0.09369 0.65232 0.89806 0.0
C982 C 0.29923 0.4392 0.93503 0.0
C983 C 0.33684 0.46123 0.94456 0.0
C984 C 0.28895 0.43556 0.90308 0.0
C985 C 0.31588 0.45299 0.87929 0.0
H986 H 0.27713 0.4267 0.95242 0.0
H987 H 0.25953 0.42031 0.89707 0.0
S988 S 0.4186 0.50784 0.89089 0.0
N989 N 0.40148 0.4966 0.92701 0.0
N990 N 0.38213 0.4889 0.86696 0.0
C991 C 0.3538 0.47184 0.88812 0.0
C992 C 0.3643 0.47611 0.92075 0.0
C993 C 0.13927 0.49777 0.42706 0.0
C994 C 0.11312 0.46863 0.44624 0.0
C995 C 0.14452 0.49177 0.39563 0.0
C996 C 0.12377 0.45641 0.38167 0.0
H997 H 0.15661 0.52564 0.43657 0.0
H998 H 0.16565 0.51511 0.38218 0.0
S999 S 0.05044 0.37069 0.42074 0.0
N1000 N 0.06516 0.40297 0.44876 0.0
N1001 N 0.07511 0.39164 0.38878 0.0
C1002 C 0.09678 0.42687 0.40005 0.0
C1003 C 0.09159 0.43295 0.43263 0.0
C1004 C 0.50931 0.61365 0.41884 0.0
C1005 C 0.52416 0.64025 0.4434 0.0
C1006 C 0.51379 0.62473 0.38708 0.0
C1007 C 0.53287 0.66273 0.37915 0.0
H1008 H 0.49088 0.58441 0.42434 0.0
H1009 H 0.49879 0.60377 0.36908 0.0
S1010 S 0.58524 0.7424 0.43389 0.0
N1011 N 0.5652 0.70543 0.45721 0.0
N1012 N 0.57309 0.72636 0.39744 0.0
C1013 C 0.55208 0.68912 0.40311 0.0
C1014 C 0.54799 0.67779 0.4354 0.0
C1015 C 0.28969 0.84677 0.43853 0.0
C1016 C 0.32754 0.86852 0.44672 0.0
C1017 C 0.27881 0.83797 0.40682 0.0
C1018 C 0.30536 0.85112 0.38224 0.0
H1019 H 0.26872 0.8337 0.45679 0.0
H1020 H 0.24957 0.819 0.40166 0.0
S1021 S 0.40725 0.91562 0.39138 0.0
N1022 N 0.39104 0.90735 0.42793 0.0
N1023 N 0.37056 0.89196 0.36817 0.0
C1024 C 0.34284 0.87637 0.38999 0.0
C1025 C 0.35395 0.88471 0.42235 0.0
C1026 C 0.30677 0.1277 0.14104 0.0
C1027 C 0.29858 0.15659 0.13827 0.0
C1028 C 0.32857 0.12726 0.16596 0.0
C1029 C 0.34237 0.15553 0.18902 0.0
H1030 H 0.29525 0.10471 0.12432 0.0
H1031 H 0.33531 0.10516 0.16666 0.0
S1032 S 0.32685 0.23645 0.19259 0.0
N1033 N 0.30504 0.21369 0.16019 0.0
N1034 N 0.34501 0.21253 0.20802 0.0
C1035 C 0.33378 0.18437 0.18658 0.0
C1036 C 0.31245 0.1852 0.16075 0.0
C1037 C 0.82762 0.16138 0.13255 0.0
C1038 C 0.82762 0.132 0.14881 0.0
C1039 C 0.83149 0.19227 0.14919 0.0
C1040 C 0.83526 0.19426 0.18233 0.0
H1041 H 0.82478 0.16053 0.10704 0.0
H1042 H 0.82916 0.21367 0.13636 0.0
S1043 S 0.83855 0.12494 0.23515 0.0
N1044 N 0.83355 0.10724 0.19927 0.0
N1045 N 0.83986 0.16519 0.23056 0.0
C1046 C 0.83664 0.16569 0.1986 0.0
C1047 C 0.83287 0.13442 0.18176 0.0
C1048 C 0.79994 0.66409 0.13321 0.0
C1049 C 0.83813 0.67551 0.13362 0.0
C1050 C 0.77687 0.64441 0.15864 0.0
C1051 C 0.79165 0.63648 0.18548 0.0
H1052 H 0.78822 0.67166 0.1136 0.0
H1053 H 0.74728 0.6347 0.15692 0.0
S1054 S 0.89091 0.6634 0.19857 0.0
N1055 N 0.89004 0.67869 0.16276 0.0
N1056 N 0.84751 0.64355 0.2115 0.0
C1057 C 0.83018 0.6487 0.18627 0.0
C1058 C 0.85314 0.66742 0.15996 0.0
C1059 C 0.1143 0.33155 0.33538 0.0
C1060 C 0.13241 0.33813 0.30611 0.0
C1061 C 0.11933 0.31027 0.35837 0.0
C1062 C 0.14322 0.296 0.35277 0.0
H1063 H 0.09827 0.34486 0.34127 0.0
H1064 H 0.10449 0.30485 0.38059 0.0
S1065 S 0.192 0.30065 0.27827 0.0
N1066 N 0.17102 0.32489 0.27124 0.0
N1067 N 0.18139 0.28589 0.3151 0.0
C1068 C 0.15985 0.30082 0.32312 0.0
C1069 C 0.15386 0.32135 0.29948 0.0
C1070 C 0.63922 0.83147 0.37664 0.0
C1071 C 0.67286 0.83152 0.37857 0.0
C1072 C 0.61214 0.80828 0.35511 0.0
C1073 C 0.6178 0.78431 0.335 0.0
H1074 H 0.63525 0.85202 0.3892 0.0
H1075 H 0.58752 0.81095 0.3531 0.0
S1076 S 0.69482 0.76369 0.34112 0.0
N1077 N 0.70582 0.79804 0.36651 0.0
N1078 N 0.65464 0.75447 0.32516 0.0
C1079 C 0.64845 0.77955 0.34074 0.0
C1080 C 0.67603 0.80309 0.36301 0.0
C1081 C 0.19551 0.86612 0.33279 0.0
C1082 C 0.19494 0.83225 0.33052 0.0
C1083 C 0.16992 0.8688 0.35234 0.0
C1084 C 0.14274 0.83733 0.36914 0.0
H1085 H 0.21303 0.88922 0.31733 0.0
H1086 H 0.16879 0.89437 0.35145 0.0
S1087 S 0.14213 0.74856 0.38127 0.0
N1088 N 0.175 0.77157 0.35472 0.0
N1089 N 0.12529 0.77607 0.39025 0.0
C1090 C 0.14702 0.80606 0.3717 0.0
C1091 C 0.17357 0.80359 0.35235 0.0
C1092 C 0.65808 0.78457 0.8172 0.0
C1093 C 0.68906 0.82024 0.82099 0.0
C1094 C 0.63168 0.77846 0.79403 0.0
C1095 C 0.63501 0.80852 0.77573 0.0
H1096 H 0.65245 0.76245 0.8338 0.0
H1097 H 0.60596 0.75173 0.79392 0.0
S1098 S 0.72061 0.9001 0.76527 0.0
N1099 N 0.72952 0.88055 0.79548 0.0
N1100 N 0.67783 0.86948 0.75368 0.0
C1101 C 0.6696 0.84122 0.77431 0.0
C1102 C 0.6971 0.84721 0.79712 0.0
C1103 C 0.17299 0.8603 0.82194 0.0
C1104 C 0.16576 0.85813 0.85452 0.0
C1105 C 0.16854 0.82917 0.80545 0.0
C1106 C 0.15737 0.7956 0.82143 0.0
H1107 H 0.17865 0.88503 0.80871 0.0
H1108 H 0.17337 0.83117 0.78016 0.0
S1109 S 0.14016 0.77764 0.9072 0.0
N1110 N 0.15026 0.82136 0.90258 0.0
N1111 N 0.14332 0.76286 0.87167 0.0
C1112 C 0.15317 0.7941 0.85436 0.0
C1113 C 0.15728 0.82559 0.87101 0.0
C1114 C 0.1352 0.35267 0.81789 0.0
C1115 C 0.1606 0.34685 0.79988 0.0
C1116 C 0.10935 0.32495 0.83781 0.0
C1117 C 0.10803 0.2907 0.8397 0.0
H1118 H 0.13723 0.37978 0.81863 0.0
H1119 H 0.09256 0.33133 0.85339 0.0
S1120 S 0.15757 0.25671 0.7883 0.0
N1121 N 0.17547 0.30114 0.77888 0.0
N1122 N 0.12582 0.24833 0.81552 0.0
C1123 C 0.12866 0.28245 0.81788 0.0
C1124 C 0.15522 0.31076 0.79794 0.0
C1125 C 0.78567 0.66487 0.66982 0.0
C1126 C 0.80472 0.67034 0.64123 0.0
C1127 C 0.79232 0.6474 0.69503 0.0
C1128 C 0.81794 0.63472 0.69223 0.0
H1129 H 0.76794 0.67682 0.67359 0.0
H1130 H 0.77681 0.64307 0.71677 0.0
S1131 S 0.87098 0.63817 0.62075 0.0
N1132 N 0.84744 0.65894 0.61027 0.0
N1133 N 0.85972 0.62559 0.658 0.0
C1134 C 0.8358 0.63846 0.66331 0.0
C1135 C 0.8287 0.65582 0.63753 0.0
C1136 C 0.35976 0.16416 0.65076 0.0
C1137 C 0.35321 0.17608 0.68015 0.0
C1138 C 0.33122 0.13377 0.63482 0.0
C1139 C 0.29562 0.11459 0.648 0.0
H1140 H 0.38663 0.17952 0.63916 0.0
H1141 H 0.33629 0.12712 0.61121 0.0
S1142 S 0.26486 0.13123 0.7255 0.0
N1143 N 0.30933 0.16384 0.72296 0.0
N1144 N 0.25535 0.10652 0.69262 0.0
C1145 C 0.28922 0.12438 0.67817 0.0
C1146 C 0.31813 0.15539 0.69435 0.0
C1147 C 0.84059 0.18761 0.63468 0.0
C1148 C 0.85607 0.16669 0.64568 0.0
C1149 C 0.81281 0.18889 0.65214 0.0
C1150 C 0.79984 0.16912 0.6809 0.0
H1151 H 0.84851 0.20132 0.61187 0.0
H1152 H 0.80043 0.20434 0.64235 0.0
S1153 S 0.83521 0.11339 0.7205 0.0
N1154 N 0.85945 0.12817 0.68743 0.0
N1155 N 0.80681 0.13055 0.7205 0.0
C1156 C 0.81648 0.14945 0.69267 0.0
C1157 C 0.8449 0.14838 0.67496 0.0
C1158 C -0.01453 0.50613 0.47333 0.0
C1159 C 0.95129 0.47279 0.47132 0.0
C1160 C 0.01271 0.50945 0.49434 0.0
C1161 C 0.00693 0.47949 0.51392 0.0
H1162 H -0.00952 0.53063 0.46013 0.0
H1163 H 0.03829 0.53622 0.49567 0.0
S1164 S 0.92591 0.38337 0.51165 0.0
N1165 N 0.91551 0.40694 0.48609 0.0
N1166 N 0.96747 0.41359 0.52602 0.0
C1167 C 0.97458 0.44477 0.50977 0.0
C1168 C 0.94653 0.44132 0.4883 0.0
C1169 C 0.46984 0.45255 0.49664 0.0
C1170 C 0.49159 0.46699 0.4694 0.0
C1171 C 0.47206 0.47639 0.5208 0.0
C1172 C 0.49558 0.5152 0.51795 0.0
H1173 H 0.45105 0.42276 0.49924 0.0
H1174 H 0.45291 0.46479 0.54053 0.0
S1175 S 0.56213 0.56572 0.45328 0.0
N1176 N 0.5409 0.52133 0.44255 0.0
N1177 N 0.54413 0.56662 0.48787 0.0
C1178 C 0.51987 0.52957 0.49216 0.0
C1179 C 0.51777 0.50528 0.46763 0.0
C1180 C 0.48775 0.98735 0.52634 0.0
C1181 C 0.44915 0.97341 0.52312 0.0
C1182 C 0.51247 0.00879 0.50263 0.0
C1183 C 0.49946 0.01781 0.47545 0.0
H1184 H 0.49862 0.97958 0.54646 0.0
H1185 H 0.542 0.01887 0.50579 0.0
S1186 S 0.40205 -0.00713 0.45753 0.0
N1187 N 0.39944 0.97266 0.49185 0.0
N1188 N 0.4467 0.01511 0.44773 0.0
C1189 C 0.46145 0.00656 0.47289 0.0
C1190 C 0.43606 0.98407 0.49683 0.0
C1191 C 0.47968 -0.00728 0.03471 0.0
C1192 C 0.45155 0.9561 0.02838 0.0
C1193 C 0.48114 0.02208 0.01768 0.0
C1194 C 0.45495 0.01541 0.99358 0.0
H1195 H 0.50258 -0.00151 0.05051 0.0
H1196 H 0.50508 0.04973 0.02123 0.0
S1197 S 0.36737 0.92698 0.97826 0.0
N1198 N 0.38988 0.91635 0.00475 0.0
N1199 N 0.39434 0.97207 0.97119 0.0
C1200 C 0.42308 0.98024 0.99128 0.0
C1201 C 0.42103 0.95025 0.00917 0.0
C1202 C -0.0025 0.46876 0.02297 0.0
C1203 C 0.00719 0.50652 0.02301 0.0
C1204 C 0.97638 0.44496 -0.00166 0.0
C1205 C 0.96488 0.4585 0.97288 0.0
H1206 H 0.00602 0.45753 0.04231 0.0
H1207 H 0.96727 0.4155 0.00021 0.0
S1208 S -0.0104 0.55691 0.9592 0.0
N1209 N 0.008 0.55748 0.99398 0.0
N1210 N 0.96911 0.51309 0.94703 0.0
C1211 C 0.97692 0.49692 0.97159 0.0
C1212 C -0.00234 0.52084 -0.00304 0.0
C1213 C 0.5257 0.51863 0.00509 0.0
C1214 C 0.51175 0.49526 0.97857 0.0
C1215 C 0.50162 0.51649 0.02902 0.0
C1216 C 0.46317 0.49075 0.02712 0.0
H1217 H 0.55547 0.53707 0.00823 0.0
H1218 H 0.51299 0.53538 0.049 0.0
S1219 S 0.41259 0.42676 0.96073 0.0
N1220 N 0.45697 0.44817 0.95022 0.0
N1221 N 0.41172 0.44389 0.99579 0.0
C1222 C 0.44874 0.46818 0.00029 0.0
C1223 C 0.47305 0.47081 0.97567 0.0
C1224 C 9e-05 0.10893 0.13199 0.0
C1225 C 0.97681 0.09607 0.1052 0.0
C1226 C 0.03908 0.12692 0.1289 0.0
C1227 C 0.05594 0.13257 0.09893 0.0
H1228 H -0.01187 0.10357 0.15549 0.0
H1229 H 0.05589 0.13436 0.1502 0.0
S1230 S 0.00782 0.11154 0.02127 0.0
N1231 N 0.9739 0.09573 0.04756 0.0
N1232 N 0.04679 0.12911 0.04202 0.0
C1233 C 0.03311 0.12273 0.07199 0.0
C1234 C -0.00637 0.10452 0.07506 0.0
C1235 C 0.87908 0.92469 0.1352 0.0
C1236 C 0.85276 0.91819 0.11136 0.0
C1237 C 0.89127 0.89911 0.14061 0.0
C1238 C 0.87668 0.86617 0.12274 0.0
H1239 H 0.8916 0.95049 0.14863 0.0
H1240 H 0.91375 0.9062 0.15728 0.0
S1241 S 0.80087 0.83238 0.06323 0.0
N1242 N 0.80841 0.87412 0.07349 0.0
N1243 N 0.83076 0.82566 0.08404 0.0
C1244 C 0.84795 0.85792 0.101 0.0
C1245 C 0.83605 0.88411 0.09516 0.0
C1246 C 0.03758 0.95189 0.09658 0.0
C1247 C 0.04597 0.92627 0.11063 0.0
C1248 C 0.06041 -0.00989 0.10095 0.0
C1249 C 0.09319 0.00481 0.1192 0.0
H1250 H 0.0132 0.9425 0.08165 0.0
H1251 H 0.05278 0.00835 0.08881 0.0
S1252 S 0.12487 0.94962 0.16543 0.0
N1253 N 0.08684 0.91789 0.14699 0.0
N1254 N 0.1307 -0.0094 0.15474 0.0
C1255 C 0.10077 0.97962 0.13537 0.0
C1256 C 0.07701 0.94016 0.13111 0.0
C1257 C 0.12622 0.04176 0.36546 0.0
C1258 C 0.11529 0.05311 0.39308 0.0
C1259 C 0.10923 0.00395 0.35658 0.0
C1260 C 0.08029 0.9762 0.37472 0.0
H1261 H 0.14723 0.06231 0.34989 0.0
H1262 H 0.1179 -0.00341 0.33489 0.0
S1263 S 0.04574 -0.0099 0.45191 0.0
N1264 N 0.07716 0.03255 0.44056 0.0
N1265 N 0.04466 0.96209 0.42369 0.0
C1266 C 0.07067 0.98694 0.40333 0.0
C1267 C 0.08836 0.02519 0.41259 0.0
C1268 C 0.9435 0.03876 0.38776 0.0
C1269 C 0.92059 0.05474 0.38684 0.0
C1270 C 0.9804 0.05856 0.37746 0.0
C1271 C -0.00386 0.09544 0.36645 0.0
H1272 H 0.933 0.01081 0.39692 0.0
H1273 H -0.00243 0.04583 0.38032 0.0
S1274 S 0.94606 0.14768 0.35433 0.0
N1275 N 0.91435 0.10739 0.36967 0.0
N1276 N -0.01528 0.14554 0.35137 0.0
C1277 C 0.97269 0.11064 0.36272 0.0
C1278 C 0.93467 0.0901 0.37285 0.0
C1279 C 0.88382 0.84522 0.40485 0.0
C1280 C 0.91557 0.85884 0.38573 0.0
C1281 C 0.85984 0.85969 0.40215 0.0
C1282 C 0.86714 0.88824 0.38044 0.0
H1283 H 0.87802 0.82397 0.42244 0.0
H1284 H 0.8362 0.84953 0.41801 0.0
S1285 S 0.94676 0.93306 0.32501 0.0
N1286 N 0.95283 0.90157 0.34388 0.0
N1287 N 0.90791 0.92932 0.33932 0.0
C1288 C 0.89813 0.90123 0.36047 0.0
C1289 C 0.9224 0.88633 0.36304 0.0
C1290 C 0.96529 0.86784 0.87202 0.0
C1291 C 0.98124 0.87237 0.84182 0.0
C1292 C 0.93543 0.87398 0.87712 0.0
C1293 C 0.91997 0.88396 0.85206 0.0
H1294 H 0.97784 0.86248 0.89236 0.0
H1295 H 0.92448 0.87101 0.90086 0.0
S1296 S 0.94873 0.89485 0.76786 0.0
N1297 N 0.97776 0.88471 0.78619 0.0
N1298 N 0.9205 0.8948 0.79543 0.0
C1299 C 0.93398 0.88605 0.82136 0.0
C1300 C 0.96481 0.88046 0.8163 0.0
C1301 C 0.07219 0.08536 0.88771 0.0
C1302 C 0.09798 0.1141 0.86801 0.0
C1303 C 0.06802 0.0497 0.88687 0.0
C1304 C 0.08967 0.04161 0.86636 0.0
H1305 H 0.05455 0.09034 0.9035 0.0
H1306 H 0.04792 0.02849 0.90258 0.0
S1307 S 0.16035 0.10771 0.80914 0.0
N1308 N 0.14426 0.13241 0.82668 0.0
N1309 N 0.13766 0.06577 0.82524 0.0
C1310 C 0.11529 0.07029 0.8461 0.0
C1311 C 0.11916 0.10648 0.8469 0.0
C1312 C 0.90779 0.04276 0.88208 0.0
C1313 C 0.93938 0.05143 0.86385 0.0
C1314 C 0.87268 0.01281 0.87401 0.0
C1315 C 0.8679 -0.01021 0.84774 0.0
H1316 H 0.91015 0.05948 0.90263 0.0
H1317 H 0.84948 0.00666 0.8895 0.0
S1318 S 0.94219 0.00324 0.79097 0.0
N1319 N 0.96382 0.0371 0.81715 0.0
N1320 N 0.89807 0.97991 0.80217 0.0
C1321 C 0.89925 -0.00053 0.82841 0.0
C1322 C 0.93494 0.03038 0.83651 0.0
C1323 C 0.86868 0.94515 0.59937 0.0
C1324 C 0.85733 0.92064 0.62526 0.0
C1325 C 0.86877 0.97879 0.60108 0.0
C1326 C 0.85813 -0.01051 0.62888 0.0
H1327 H 0.87859 0.93893 0.57781 0.0
H1328 H 0.8798 -0.00223 0.58118 0.0
S1329 S 0.8201 0.93328 0.70148 0.0
N1330 N 0.83001 0.90735 0.67823 0.0
N1331 N 0.83205 0.97195 0.68152 0.0
C1332 C 0.84454 0.96461 0.65428 0.0
C1333 C 0.84362 0.92977 0.65243 0.0
C1334 C -0.00152 0.87268 0.61965 0.0
C1335 C 0.97295 0.87251 0.64179 0.0
C1336 C 0.03199 0.9055 0.61279 0.0
C1337 C 0.04147 0.93916 0.62813 0.0
H1338 H -0.00811 0.8477 0.60643 0.0
H1339 H 0.05066 0.90453 0.59538 0.0
S1340 S -0.01341 0.95417 0.68938 0.0
N1341 N 0.9611 0.90946 0.68021 0.0
N1342 N 0.02448 0.97066 0.66735 0.0
C1343 C 0.01744 0.93932 0.6513 0.0
C1344 C -0.01686 0.90608 0.65821 0.0
C1345 C 0.08526 0.08209 0.60656 0.0
C1346 C 0.10831 0.09916 0.63297 0.0
C1347 C 0.05102 0.0806 0.6032 0.0
C1348 C 0.03842 0.09624 0.62612 0.0
H1349 H 0.09331 0.06879 0.58863 0.0
H1350 H 0.03421 0.06679 0.58253 0.0
S1351 S 0.08982 0.14622 0.699 0.0
N1352 N 0.11711 0.13278 0.68212 0.0
N1353 N 0.05289 0.13109 0.67575 0.0
C1354 C 0.06156 0.1139 0.65264 0.0
C1355 C 0.09646 0.11505 0.65612 0.0
C1356 C 0.66241 0.43985 0.45833 0.0
C1357 C 0.64051 0.44129 0.43362 0.0
C1358 C 0.70121 0.45609 0.45474 0.0
C1359 C 0.71898 0.47397 0.42635 0.0
H1360 H 0.64932 0.42417 0.47961 0.0
H1361 H 0.71702 0.45253 0.47347 0.0
S1362 S 0.67503 0.49247 0.35799 0.0
N1363 N 0.6401 0.46759 0.38235 0.0
N1364 N 0.71278 0.49706 0.37547 0.0
C1365 C 0.6978 0.47819 0.40273 0.0
C1366 C 0.65856 0.46214 0.40646 0.0
C1367 C 0.52258 0.20542 0.4529 0.0
C1368 C 0.56086 0.21833 0.44973 0.0
C1369 C 0.50794 0.22833 0.44465 0.0
C1370 C 0.53103 0.26442 0.4323 0.0
H1371 H 0.50357 0.17678 0.4598 0.0
H1372 H 0.47822 0.21726 0.44702 0.0
S1373 S 0.63452 0.31399 0.42785 0.0
N1374 N 0.62244 0.27134 0.43951 0.0
N1375 N 0.59504 0.31435 0.42368 0.0
C1376 C 0.56982 0.27864 0.43191 0.0
C1377 C 0.58468 0.25556 0.44074 0.0
C1378 C 0.72012 0.28063 0.39961 0.0
C1379 C 0.71418 0.25676 0.42525 0.0
C1380 C 0.74039 0.31945 0.40323 0.0
C1381 C 0.75575 0.33627 0.43266 0.0
H1382 H 0.70849 0.26932 0.37655 0.0
H1383 H 0.74401 0.33637 0.38256 0.0
S1384 S 0.74913 0.28636 0.50738 0.0
N1385 N 0.72613 0.25283 0.48124 0.0
N1386 N 0.76425 0.32587 0.48787 0.0
C1387 C 0.75078 0.3128 0.45843 0.0
C1388 C 0.7301 0.2731 0.45476 0.0
C1389 C 0.77479 0.33591 0.69447 0.0
C1390 C 0.73632 0.3101 0.69449 0.0
C1391 C 0.78818 0.3732 0.70322 0.0
C1392 C 0.76342 0.3853 0.71272 0.0
H1393 H 0.79464 0.32665 0.69019 0.0
H1394 H 0.81806 0.39222 0.70398 0.0
S1395 S 0.6601 0.32998 0.71051 0.0
N1396 N 0.67368 0.30021 0.70007 0.0
N1397 N 0.69881 0.3702 0.71673 0.0
C1398 C 0.72492 0.36044 0.7103 0.0
C1399 C 0.71138 0.32283 0.70098 0.0
C1400 C 0.63906 0.4616 0.72535 0.0
C1401 C 0.65812 0.45339 0.70206 0.0
C1402 C 0.60186 0.43604 0.73268 0.0
C1403 C 0.58299 0.40188 0.71669 0.0
H1404 H 0.65393 0.48657 0.73971 0.0
H1405 H 0.58829 0.44235 0.75161 0.0
S1406 S 0.61919 0.36906 0.6516 0.0
N1407 N 0.65482 0.41021 0.66165 0.0
N1408 N 0.58421 0.36236 0.6747 0.0
C1409 C 0.60079 0.39456 0.69178 0.0
C1410 C 0.6387 0.4204 0.68456 0.0
C1411 C 0.59035 0.2198 0.70012 0.0
C1412 C 0.58758 0.19893 0.72731 0.0
C1413 C 0.56755 0.23553 0.69623 0.0
C1414 C 0.54121 0.23052 0.71936 0.0
H1415 H 0.61116 0.22501 0.68227 0.0
H1416 H 0.57153 0.25283 0.67573 0.0
S1417 S 0.51793 0.17171 0.79129 0.0
N1418 N 0.55338 0.16988 0.77534 0.0
N1419 N 0.50989 0.19888 0.76794 0.0
C1420 C 0.53656 0.20764 0.74557 0.0
C1421 C 0.55997 0.19196 0.74961 0.0
C1422 C 0.59832 0.18647 0.21554 0.0
C1423 C 0.5851 0.20542 0.19687 0.0
C1424 C 0.63194 0.18793 0.20822 0.0
C1425 C 0.65375 0.20925 0.18251 0.0
H1426 H 0.5832 0.17146 0.23649 0.0
H1427 H 0.64251 0.17524 0.22453 0.0
S1428 S 0.62809 0.25861 0.12343 0.0
N1429 N 0.59335 0.24142 0.14907 0.0
N1430 N 0.65736 0.24526 0.13593 0.0
C1431 C 0.63909 0.22541 0.16207 0.0
C1432 C 0.60455 0.22334 0.16918 0.0
C1433 C 0.77632 0.43865 0.25164 0.0
C1434 C 0.78534 0.45934 0.22342 0.0
C1435 C 0.77727 0.40531 0.25339 0.0
C1436 C 0.78731 0.39176 0.22693 0.0
H1437 H 0.7651 0.44632 0.27151 0.0
H1438 H 0.76775 0.38897 0.27488 0.0
S1439 S 0.82117 0.44067 0.14976 0.0
N1440 N 0.80958 0.46729 0.17019 0.0
N1441 N 0.81305 0.40567 0.17338 0.0
C1442 C 0.80026 0.4146 0.19966 0.0
C1443 C 0.79877 0.44814 0.1979 0.0
C1444 C 0.58762 0.37429 0.19093 0.0
C1445 C 0.60336 0.38819 0.22096 0.0
C1446 C 0.55294 0.34152 0.18779 0.0
C1447 C 0.53251 0.32157 0.2145 0.0
H1448 H 0.60246 0.38831 0.16959 0.0
H1449 H 0.54272 0.33095 0.16424 0.0
S1450 S 0.56021 0.34702 0.29844 0.0
N1451 N 0.59462 0.38037 0.27796 0.0
N1452 N 0.53017 0.31861 0.27189 0.0
C1453 C 0.54722 0.33596 0.24459 0.0
C1454 C 0.58251 0.3692 0.24786 0.0
C1455 C 0.57525 0.28985 0.95908 0.0
C1456 C 0.54041 0.25798 0.96347 0.0
C1457 C 0.58008 0.3251 0.96455 0.0
C1458 C 0.54995 0.32975 0.97368 0.0
H1459 H 0.59896 0.28754 0.95142 0.0
H1460 H 0.60749 0.34902 0.9602 0.0
S1461 S 0.45311 0.2545 0.98944 0.0
N1462 N 0.4755 0.23241 0.97934 0.0
N1463 N 0.48428 0.29956 0.98769 0.0
C1464 C 0.51495 0.29804 0.97865 0.0
C1465 C 0.51029 0.26185 0.97413 0.0
C1466 C 0.69301 0.23484 0.93505 0.0
C1467 C 0.70918 0.26265 0.95852 0.0
C1468 C 0.65935 0.20145 0.94041 0.0
C1469 C 0.64007 0.19475 0.96928 0.0
H1470 H 0.70622 0.23906 0.91215 0.0
H1471 H 0.64727 0.18182 0.92101 0.0
S1472 S 0.67225 0.25706 0.03959 0.0
N1473 N 0.70483 0.27987 0.01275 0.0
N1474 N 0.64131 0.21754 0.02257 0.0
C1475 C 0.65693 0.2215 0.99353 0.0
C1476 C 0.69146 0.25531 0.98821 0.0
C1477 C 0.7305 0.44377 0.92175 0.0
C1478 C 0.71267 0.44741 0.94864 0.0
C1479 C 0.76279 0.4411 0.92451 0.0
C1480 C 0.77807 0.44115 0.95428 0.0
H1481 H 0.71903 0.4422 0.89839 0.0
H1482 H 0.77445 0.43654 0.90324 0.0
S1483 S 0.74534 0.455 0.03182 0.0
N1484 N 0.71547 0.45517 0.00602 0.0
N1485 N 0.77543 0.44883 0.0109 0.0
C1486 C 0.76191 0.44688 0.98123 0.0
C1487 C 0.72941 0.45035 0.97847 0.0
C1488 C 0.3264 0.79318 0.77204 0.0
C1489 C 0.30307 0.75552 0.78055 0.0
C1490 C 0.36515 0.80815 0.76845 0.0
C1491 C 0.38115 0.78552 0.77274 0.0
H1492 H 0.31446 0.81067 0.76707 0.0
H1493 H 0.38233 0.83694 0.76108 0.0
S1494 S 0.33197 0.68617 0.79759 0.0
N1495 N 0.29869 0.69685 0.79486 0.0
N1496 N 0.37108 0.7247 0.78834 0.0
C1497 C 0.35809 0.74836 0.78249 0.0
C1498 C 0.31904 0.73336 0.78629 0.0
C1499 C 0.2217 0.60217 0.76225 0.0
C1500 C 0.18284 0.58701 0.76398 0.0
C1501 C 0.23835 0.5817 0.77169 0.0
C1502 C 0.21692 0.54502 0.78301 0.0
H1503 H 0.23966 0.63034 0.75369 0.0
H1504 H 0.26827 0.59415 0.76873 0.0
S1505 S 0.11429 0.49285 0.79411 0.0
N1506 N 0.12341 0.53377 0.77994 0.0
N1507 N 0.15495 0.49457 0.79676 0.0
C1508 C 0.17819 0.5298 0.7862 0.0
C1509 C 0.16109 0.55094 0.77681 0.0
C1510 C 0.41302 0.6053 0.78796 0.0
C1511 C 0.38396 0.59465 0.76567 0.0
C1512 C 0.43647 0.64287 0.79639 0.0
C1513 C 0.43137 0.67101 0.78311 0.0
H1514 H 0.4173 0.58439 0.79948 0.0
H1515 H 0.45813 0.64983 0.81389 0.0
S1516 S 0.36061 0.65845 0.72263 0.0
N1517 N 0.35225 0.61583 0.72999 0.0
N1518 N 0.39678 0.68609 0.74493 0.0
C1519 C 0.40323 0.66089 0.76004 0.0
C1520 C 0.37944 0.62282 0.75152 0.0
C1521 C 0.45669 0.67006 0.02996 0.0
C1522 C 0.41983 0.64399 0.02137 0.0
C1523 C 0.46723 0.70748 0.03535 0.0
C1524 C 0.44075 0.71912 0.03329 0.0
H1525 H 0.47639 0.66089 0.03539 0.0
H1526 H 0.49535 0.72663 0.04343 0.0
S1527 S 0.34458 0.66402 0.00182 0.0
N1528 N 0.3597 0.63398 0.00379 0.0
N1529 N 0.37926 0.70426 0.01479 0.0
C1530 C 0.40532 0.69437 0.02098 0.0
C1531 C 0.39489 0.65663 0.01482 0.0
C1532 C 0.30183 0.77657 0.06868 0.0
C1533 C 0.3193 0.77104 0.04233 0.0
C1534 C 0.26386 0.75283 0.07474 0.0
C1535 C 0.24212 0.72294 0.05446 0.0
H1536 H 0.31814 0.79836 0.08564 0.0
H1537 H 0.25168 0.7573 0.09577 0.0
S1538 S 0.27409 0.69646 0.98213 0.0
N1539 N 0.31187 0.73383 0.9956 0.0
N1540 N 0.24005 0.6892 0.00663 0.0
C1541 C 0.25873 0.718 0.02721 0.0
C1542 C 0.29752 0.74214 0.02115 0.0
C1543 C 0.2237 0.51579 0.04745 0.0
C1544 C 0.25978 0.53893 0.05977 0.0
C1545 C 0.19879 0.52914 0.0436 0.0
C1546 C 0.20954 0.5662 0.05145 0.0
H1547 H 0.21436 0.48695 0.04156 0.0
H1548 H 0.17058 0.50995 0.03572 0.0
S1549 S 0.30338 0.63989 0.07839 0.0
N1550 N 0.30655 0.60181 0.07575 0.0
N1551 N 0.26025 0.62715 0.06773 0.0
C1552 C 0.24644 0.59026 0.06153 0.0
C1553 C 0.27145 0.57656 0.06593 0.0
C1554 C 0.26802 0.52812 0.55113 0.0
C1555 C 0.25291 0.54295 0.52976 0.0
C1556 C 0.29945 0.52549 0.54319 0.0
C1557 C 0.31751 0.53838 0.51381 0.0
H1558 H 0.25568 0.51876 0.5743 0.0
H1559 H 0.31113 0.51567 0.56116 0.0
S1560 S 0.28668 0.57607 0.4483 0.0
N1561 N 0.25624 0.56751 0.47684 0.0
N1562 N 0.31602 0.56359 0.46234 0.0
C1563 C 0.30147 0.5514 0.49161 0.0
C1564 C 0.26909 0.55353 0.49951 0.0
C1565 C 0.41997 0.75394 0.50616 0.0
C1566 C 0.4337 0.78023 0.53106 0.0
C1567 C 0.41981 0.72013 0.50821 0.0
C1568 C 0.43311 0.71105 0.53531 0.0
H1569 H 0.40722 0.75849 0.48554 0.0
H1570 H 0.4076 0.70021 0.48901 0.0
S1571 S 0.48284 0.77433 0.60239 0.0
N1572 N 0.46861 0.79794 0.5806 0.0
N1573 N 0.46782 0.73385 0.58435 0.0
C1574 C 0.45048 0.7384 0.5589 0.0
C1575 C 0.45112 0.77323 0.5567 0.0
C1576 C 0.19764 0.67383 0.56326 0.0
C1577 C 0.18645 0.65526 0.53397 0.0
C1578 C 0.23233 0.70642 0.56675 0.0
C1579 C 0.25675 0.72187 0.54095 0.0
H1580 H 0.18095 0.6616 0.5842 0.0
H1581 H 0.24041 0.71907 0.58999 0.0
S1582 S 0.23758 0.6876 0.45803 0.0
N1583 N 0.20018 0.6574 0.47787 0.0
N1584 N 0.26537 0.71877 0.48429 0.0
C1585 C 0.24444 0.70547 0.51094 0.0
C1586 C 0.2092 0.67223 0.50746 0.0
C1587 C 0.21975 0.6573 0.26857 0.0
C1588 C 0.19284 0.65862 0.2879 0.0
C1589 C 0.221 0.62441 0.26505 0.0
C1590 C 0.19545 0.5918 0.28094 0.0
H1591 H 0.24084 0.68234 0.25689 0.0
H1592 H 0.24285 0.62489 0.25065 0.0
S1593 S 0.11657 0.57973 0.33119 0.0
N1594 N 0.13833 0.62431 0.32109 0.0
N1595 N 0.14001 0.56178 0.31433 0.0
C1596 C 0.1673 0.59236 0.29934 0.0
C1597 C 0.16615 0.62602 0.3029 0.0
C1598 C 0.36417 0.58521 0.31439 0.0
C1599 C 0.38061 0.59759 0.28444 0.0
C1600 C 0.33012 0.55203 0.31778 0.0
C1601 C 0.31165 0.52961 0.29146 0.0
H1602 H 0.37677 0.60218 0.33526 0.0
H1603 H 0.31717 0.54487 0.34091 0.0
S1604 S 0.34596 0.54645 0.20864 0.0
N1605 N 0.37813 0.58281 0.22853 0.0
N1606 N 0.31416 0.51988 0.23491 0.0
C1607 C 0.32927 0.54002 0.26175 0.0
C1608 C 0.36368 0.57429 0.2582 0.0
C1609 C 0.36617 0.74875 0.32012 0.0
C1610 C 0.35711 0.7557 0.28969 0.0
C1611 C 0.40056 0.75115 0.32628 0.0
C1612 C 0.42759 0.76162 0.30246 0.0
H1613 H 0.34623 0.7407 0.33926 0.0
H1614 H 0.40567 0.74384 0.34961 0.0
S1615 S 0.41848 0.78459 0.21917 0.0
N1616 N 0.37849 0.77462 0.23576 0.0
N1617 N 0.44343 0.78011 0.24742 0.0
C1618 C 0.41947 0.77013 0.27224 0.0
C1619 C 0.38411 0.76676 0.26579 0.0
C1620 C 0.21004 0.04197 0.97603 0.0
C1621 C 0.19042 0.0402 0.94832 0.0
C1622 C 0.21357 0.06624 0.00095 0.0
C1623 C 0.19639 0.08819 -0.00091 0.0
H1624 H 0.21985 0.02243 0.97954 0.0
H1625 H 0.22707 0.0655 0.02268 0.0
S1626 S 0.14591 0.0965 0.93051 0.0
N1627 N 0.15783 0.06577 0.91922 0.0
N1628 N 0.16241 0.1091 0.96663 0.0
C1629 C 0.17912 0.08838 0.97078 0.0
C1630 C 0.17678 0.06503 0.94521 0.0
C1631 C 0.87587 0.10021 0.97405 0.0
C1632 C 0.88463 0.10284 0.00635 0.0
C1633 C 0.90027 0.12781 0.95278 0.0
C1634 C 0.93439 0.15834 0.96314 0.0
H1635 H 0.85096 0.07601 0.96505 0.0
H1636 H 0.89445 0.12296 0.92769 0.0
S1637 S 0.96773 0.17951 0.04599 0.0
N1638 N 0.92725 0.1402 0.04829 0.0
N1639 N 0.97368 0.19099 0.00816 0.0
C1640 C 0.94162 0.16264 0.99576 0.0
C1641 C 0.9167 0.13496 0.01738 0.0
C1642 C 0.84245 0.75965 0.98685 0.0
C1643 C 0.86792 0.78989 0.00592 0.0
C1644 C 0.81846 0.76365 0.9653 0.0
C1645 C 0.81814 0.79744 0.96353 0.0
H1646 H 0.84272 0.73364 0.98719 0.0
H1647 H 0.80214 0.74133 0.94873 0.0
S1648 S 0.87489 0.8826 0.01265 0.0
N1649 N 0.88886 0.85334 0.02333 0.0
N1650 N 0.84103 0.85918 0.98701 0.0
C1651 C 0.84023 0.82589 0.98565 0.0
C1652 C 0.86605 0.82273 0.00558 0.0
C1653 C 0.02801 0.18663 0.47222 0.0
C1654 C 0.06658 0.20518 0.47768 0.0
C1655 C 0.00388 0.18749 0.49479 0.0
C1656 C 0.01745 0.20497 0.52433 0.0
H1657 H 0.01625 0.16953 0.45126 0.0
H1658 H 0.9741 0.16967 0.49105 0.0
S1659 S 0.11677 0.26627 0.54582 0.0
N1660 N 0.11801 0.24947 0.51065 0.0
N1661 N 0.07211 0.24837 0.55457 0.0
C1662 C 0.05613 0.22811 0.528 0.0
C1663 C 0.08092 0.22844 0.50436 0.0
C1664 C 0.78168 0.82145 0.50196 0.0
C1665 C 0.76557 0.81326 0.53234 0.0
C1666 C 0.78676 0.85278 0.48519 0.0
C1667 C 0.77425 0.87611 0.49733 0.0
H1668 H 0.79486 0.80639 0.49291 0.0
H1669 H 0.80151 0.85936 0.46286 0.0
S1670 S 0.72071 0.86089 0.57124 0.0
N1671 N 0.73143 0.82744 0.5713 0.0
N1672 N 0.73779 0.88439 0.53803 0.0
C1673 C 0.7532 0.86519 0.52531 0.0
C1674 C 0.74926 0.83394 0.54309 0.0
C1675 C 0.14572 0.91913 0.52242 0.0
C1676 C 0.16727 0.95792 0.51821 0.0
C1677 C 0.11822 0.89682 0.50028 0.0
C1678 C 0.11139 0.91282 0.47357 0.0
H1679 H 0.14679 0.90669 0.54465 0.0
H1680 H 0.10048 0.86733 0.50522 0.0
S1681 S 0.16685 0.01149 0.44818 0.0
N1682 N 0.18532 0.01007 0.48243 0.0
N1683 N 0.13301 0.96831 0.44117 0.0
C1684 C 0.13576 0.9507 0.46726 0.0
C1685 C 0.16436 0.97308 0.4893 0.0
C1686 C 0.7766 0.92634 0.03234 0.0
C1687 C 0.75863 0.94771 0.03099 0.0
C1688 C 0.78692 0.91467 0.00485 0.0
C1689 C 0.77856 0.92287 0.97486 0.0
H1690 H 0.78466 0.92023 0.05486 0.0
H1691 H 0.80129 0.89901 0.00712 0.0
S1692 S 0.72772 0.97354 0.95793 0.0
N1693 N 0.73085 0.9742 -0.0031 0.0
N1694 N 0.74814 0.95048 0.94521 0.0
C1695 C 0.75849 0.94204 0.97309 0.0
C1696 C 0.749 0.95486 0.00108 0.0
C1697 C 0.02453 0.81297 0.96764 0.0
C1698 C 0.04895 0.85166 0.97108 0.0
C1699 C 0.01209 0.78927 0.99399 0.0
C1700 C 0.02436 0.80324 0.02469 0.0
H1701 H 0.01387 0.80115 0.94449 0.0
H1702 H -0.00884 0.76019 0.99047 0.0
S1703 S 0.09472 0.90177 0.04492 0.0
N1704 N 0.0888 0.90228 0.00637 0.0
N1705 N 0.06717 0.85805 0.056 0.0
C1706 C 0.05174 0.84153 0.02786 0.0
C1707 C 0.06339 0.86572 0.00107 0.0
C1708 C 0.11286 0.20775 0.01653 0.0
C1709 C 0.11501 0.19526 0.9862 0.0
C1710 C 0.14226 0.2189 0.03832 0.0
C1711 C 0.17525 0.21854 0.03039 0.0
H1712 H 0.08808 0.20842 0.02362 0.0
H1713 H 0.13817 0.22611 0.06202 0.0
S1714 S 0.1979 0.19745 0.95081 0.0
N1715 N 0.15469 0.18921 0.94735 0.0
N1716 N 0.21023 0.2107 0.98782 0.0
C1717 C 0.17879 0.20926 -0.00099 0.0
C1718 C 0.14863 0.19743 0.97709 0.0
C1719 C 0.91569 0.74256 0.47813 0.0
C1720 C 0.94902 0.77167 0.46572 0.0
C1721 C 0.89751 0.74936 0.50319 0.0
C1722 C 0.91131 0.78571 0.51568 0.0
H1723 H 0.90374 0.71461 0.46851 0.0
H1724 H 0.87224 0.72605 0.51263 0.0
S1725 S -0.00315 0.87129 0.49043 0.0
N1726 N -0.00504 0.8379 0.46774 0.0
N1727 N 0.95985 0.85072 0.5134 0.0
C1728 C 0.94413 0.8149 0.50297 0.0
C1729 C 0.96317 0.80783 0.47836 0.0
C1730 C 0.22922 0.16481 0.47435 0.0
C1731 C 0.20408 0.17764 0.46894 0.0
C1732 C 0.22139 0.1368 0.49688 0.0
C1733 C 0.18739 0.11944 0.51375 0.0
H1734 H 0.25477 0.17609 0.46077 0.0
H1735 H 0.24181 0.12816 0.5007 0.0
S1736 S 0.11205 0.14233 0.50825 0.0
N1737 N 0.14407 0.17099 0.48306 0.0
N1738 N 0.1288 0.11727 0.52371 0.0
C1739 C 0.16205 0.13178 0.50841 0.0
C1740 C 0.17056 0.16116 0.4865 0.0
C1741 C 0.86439 0.06832 0.47854 0.0
C1742 C 0.85851 0.05308 0.50903 0.0
C1743 C 0.83562 0.05373 0.45587 0.0
C1744 C 0.79976 0.02333 0.46283 0.0
H1745 H 0.89084 0.09276 0.47264 0.0
H1746 H 0.84143 0.06715 0.43296 0.0
S1747 S 0.77033 0.97486 0.54028 0.0
N1748 N 0.81463 0.00676 0.54548 0.0
N1749 N 0.76045 0.97921 0.50324 0.0
C1750 C 0.79393 0.00764 0.49332 0.0
C1751 C 0.8233 0.02251 0.51627 0.0
C1752 C 0.85873 0.42251 0.29873 0.0
C1753 C 0.86182 0.42062 0.33169 0.0
C1754 C 0.86177 0.397 0.27858 0.0
C1755 C 0.86687 0.3682 0.29089 0.0
H1756 H 0.8533 0.44331 0.28855 0.0
H1757 H 0.85743 0.39817 0.25346 0.0
S1758 S 0.87863 0.35274 0.37537 0.0
N1759 N 0.87286 0.3894 0.37549 0.0
N1760 N 0.87683 0.34079 0.33786 0.0
C1761 C 0.87161 0.36725 0.32365 0.0
C1762 C 0.86939 0.39354 0.34399 0.0
C1763 C 0.57034 0.47641 0.34039 0.0
C1764 C 0.5441 0.44132 0.3279 0.0
C1765 C 0.59709 0.50461 0.32095 0.0
C1766 C 0.59807 0.49898 0.28824 0.0
H1767 H 0.57221 0.48103 0.36572 0.0
H1768 H 0.61957 0.5293 0.33205 0.0
S1769 S 0.52986 0.41511 0.2433 0.0
N1770 N 0.51682 0.4045 0.28055 0.0
N1771 N 0.5664 0.45788 0.24371 0.0
C1772 C 0.56896 0.4657 0.27512 0.0
C1773 C 0.54232 0.43658 0.29505 0.0
C1774 C 0.48961 0.09784 0.34851 0.0
C1775 C 0.52068 0.09565 0.33828 0.0
C1776 C 0.46286 0.09547 0.32681 0.0
C1777 C 0.4668 0.0915 0.29418 0.0
H1778 H 0.48745 0.1042 0.37302 0.0
H1779 H 0.44207 0.10207 0.33502 0.0
S1780 S 0.53827 0.07502 0.25714 0.0
N1781 N 0.55001 0.08178 0.29495 0.0
N1782 N 0.5 0.07785 0.25393 0.0
C1783 C 0.49476 0.08381 0.28461 0.0
C1784 C 0.52207 0.08635 0.30669 0.0
C1785 C 0.68834 0.55036 0.83483 0.0
C1786 C 0.69511 0.54961 0.86737 0.0
C1787 C 0.71176 0.54794 0.81212 0.0
C1788 C 0.74276 0.54495 0.8213 0.0
H1789 H 0.66235 0.54805 0.82696 0.0
H1790 H 0.70405 0.54566 0.78738 0.0
S1791 S 0.77585 0.54742 0.90294 0.0
N1792 N 0.7378 0.55043 0.90722 0.0
N1793 N 0.78173 0.54596 0.86444 0.0
C1794 C 0.75216 0.54828 0.85339 0.0
C1795 C 0.72854 0.55108 0.87647 0.0
C1796 C 0.42319 0.17799 0.81711 0.0
C1797 C 0.43786 0.21627 0.82398 0.0
C1798 C 0.42277 0.15316 0.84007 0.0
C1799 C 0.43567 0.16552 0.87093 0.0
H1800 H 0.41458 0.16773 0.79323 0.0
H1801 H 0.41521 0.12508 0.83297 0.0
S1802 S 0.47221 0.26174 0.9016 0.0
N1803 N 0.46264 0.26437 0.86416 0.0
N1804 N 0.46026 0.2177 0.90767 0.0
C1805 C 0.44715 0.20292 0.87859 0.0
C1806 C 0.44877 0.22833 0.85504 0.0
C1807 C 0.81192 0.24061 0.86457 0.0
C1808 C 0.83864 0.27835 0.85914 0.0
C1809 C 0.78531 0.21922 0.84132 0.0
C1810 C 0.78472 0.2351 0.81211 0.0
H1811 H 0.8083 0.22915 0.88818 0.0
H1812 H 0.76338 0.1912 0.84713 0.0
S1813 S 0.85433 0.32931 0.78359 0.0
N1814 N 0.86748 0.32777 0.82019 0.0
N1815 N 0.81709 0.28803 0.77683 0.0
C1816 C 0.81414 0.27093 0.80497 0.0
C1817 C 0.84167 0.29221 0.82827 0.0
C1818 C 0.44453 0.29869 0.33893 0.0
C1819 C 0.42973 0.28343 0.36879 0.0
C1820 C 0.45765 0.28129 0.31843 0.0
C1821 C 0.4578 0.24865 0.32717 0.0
H1822 H 0.44531 0.3239 0.33089 0.0
H1823 H 0.46558 0.29235 0.2948 0.0
S1824 S 0.41813 0.19439 0.40047 0.0
N1825 N 0.41294 0.23117 0.40465 0.0
N1826 N 0.43906 0.19968 0.3661 0.0
C1827 C 0.44272 0.23267 0.35655 0.0
C1828 C 0.42849 0.24981 0.37735 0.0
C1829 C 0.71451 0.16468 0.36584 0.0
C1830 C 0.68458 0.12788 0.36079 0.0
C1831 C 0.7292 0.19086 0.34124 0.0
C1832 C 0.71549 0.18112 0.31032 0.0
H1833 H 0.72554 0.17427 0.38938 0.0
H1834 H 0.75164 0.21887 0.34646 0.0
S1835 S 0.64017 0.08806 0.28327 0.0
N1836 N 0.64341 0.08288 0.32166 0.0
N1837 N 0.67204 0.13169 0.27523 0.0
C1838 C 0.68708 0.14405 0.3044 0.0
C1839 C 0.67154 0.11753 0.32959 0.0
C1840 C 0.83613 0.52908 0.34491 0.0
C1841 C 0.84691 0.55634 0.36883 0.0
C1842 C 0.8048 0.51907 0.32584 0.0
C1843 C 0.78372 0.53681 0.32913 0.0
H1844 H 0.85157 0.51474 0.34115 0.0
H1845 H 0.7978 0.49813 0.30769 0.0
S1846 S 0.80144 0.61217 0.38591 0.0
N1847 N 0.83429 0.60184 0.39382 0.0
N1848 N 0.7767 0.58443 0.35649 0.0
C1849 C 0.79484 0.56511 0.35194 0.0
C1850 C 0.82609 0.57456 0.3721 0.0
C1851 C 0.58255 0.07253 0.80979 0.0
C1852 C 0.61794 0.1015 0.80057 0.0
C1853 C 0.56237 0.07814 0.83395 0.0
C1854 C 0.57611 0.11343 0.84851 0.0
H1855 H 0.57015 0.04574 0.7979 0.0
H1856 H 0.53537 0.055 0.84063 0.0
S1857 S 0.6668 0.19836 0.83222 0.0
N1858 N 0.66576 0.16635 0.80826 0.0
N1859 N 0.62728 0.17728 0.85198 0.0
C1860 C 0.6113 0.14239 0.83934 0.0
C1861 C 0.63228 0.13632 0.81581 0.0
C1862 C 0.89407 0.48833 0.8013 0.0
C1863 C 0.86665 0.49762 0.79417 0.0
C1864 C 0.88661 0.45951 0.82291 0.0
C1865 C 0.85104 0.43809 0.83704 0.0
H1866 H 0.92137 0.50355 0.79041 0.0
H1867 H 0.90892 0.45409 0.82872 0.0
S1868 S 0.76907 0.44935 0.82389 0.0
N1869 N 0.80237 0.48212 0.80199 0.0
N1870 N 0.78806 0.4272 0.84093 0.0
C1871 C 0.8232 0.44622 0.82897 0.0
C1872 C 0.83111 0.47617 0.808 0.0
C1873 C 0.52285 0.3997 0.8154 0.0
C1874 C 0.51258 0.38588 0.84624 0.0
C1875 C 0.4964 0.38673 0.79075 0.0
C1876 C 0.45878 0.35858 0.79568 0.0
H1877 H 0.55125 0.42137 0.81044 0.0
H1878 H 0.50598 0.39823 0.7674 0.0
S1879 S 0.41753 0.31435 0.87268 0.0
N1880 N 0.46187 0.34381 0.88084 0.0
N1881 N 0.41279 0.31851 0.83437 0.0
C1882 C 0.44821 0.34494 0.8266 0.0
C1883 C 0.47492 0.35869 0.8518 0.0
C1884 C 0.54166 0.73203 0.66229 0.0
C1885 C 0.5084 0.72605 0.677 0.0
C1886 C 0.54112 0.70742 0.63891 0.0
C1887 C 0.50736 0.67581 0.63003 0.0
H1888 H 0.56819 0.75627 0.6684 0.0
H1889 H 0.56682 0.71392 0.62701 0.0
S1890 S 0.41281 0.64686 0.66246 0.0
N1891 N 0.44114 0.68629 0.68064 0.0
N1892 N 0.44013 0.63858 0.63995 0.0
C1893 C 0.47436 0.66868 0.64613 0.0
C1894 C 0.47481 0.6942 0.66866 0.0
C1895 C 0.20851 0.76841 0.6389 0.0
C1896 C 0.21347 0.77756 0.67117 0.0
C1897 C 0.23104 0.79471 0.61603 0.0
C1898 C 0.26035 0.83045 0.62477 0.0
H1899 H 0.1884 0.74029 0.63143 0.0
H1900 H 0.22876 0.78529 0.59177 0.0
S1901 S 0.28166 0.86931 0.70588 0.0
N1902 N 0.24626 0.82638 0.71042 0.0
N1903 N 0.29015 0.87469 0.6675 0.0
C1904 C 0.26316 0.84088 0.65663 0.0
C1905 C 0.23954 0.81456 0.67987 0.0
C1906 C 0.16183 0.42306 0.62114 0.0
C1907 C 0.1364 0.43432 0.63063 0.0
C1908 C 0.18922 0.42527 0.64216 0.0
C1909 C 0.19156 0.43863 0.67309 0.0
H1910 H 0.16369 0.41719 0.59645 0.0
H1911 H 0.21012 0.41904 0.63358 0.0
S1912 S 0.12661 0.46362 0.71112 0.0
N1913 N 0.11136 0.45284 0.67435 0.0
N1914 N 0.16278 0.45719 0.71374 0.0
C1915 C 0.16353 0.44541 0.68387 0.0
C1916 C 0.13555 0.44267 0.66271 0.0
C1917 C 0.39377 0.86808 0.21022 0.0
C1918 C 0.36195 0.87004 0.20136 0.0
C1919 C 0.41548 0.86279 0.18752 0.0
C1920 C 0.406 0.85944 0.15539 0.0
H1921 H 0.39947 0.86645 0.23501 0.0
H1922 H 0.43907 0.8603 0.19518 0.0
S1923 S 0.33052 0.87074 0.11957 0.0
N1924 N 0.32571 0.87383 0.15804 0.0
N1925 N 0.36701 0.86508 0.11531 0.0
C1926 C 0.377 0.86569 0.14603 0.0
C1927 C 0.35499 0.87094 0.16905 0.0
C1928 C 0.0818 0.50493 0.21099 0.0
C1929 C 0.08975 0.47765 0.19964 0.0
C1930 C 0.08424 0.53328 0.19098 0.0
C1931 C 0.09464 0.53494 0.15917 0.0
H1932 H 0.0781 0.50705 0.23612 0.0
H1933 H 0.08023 0.55515 0.20085 0.0
S1934 S 0.11235 0.46702 0.1169 0.0
N1935 N 0.10342 0.45154 0.15366 0.0
N1936 N 0.10812 0.5046 0.11626 0.0
C1937 C 0.09879 0.50577 0.14689 0.0
C1938 C 0.09586 0.47688 0.16703 0.0
C1939 C 0.45507 0.56292 0.17943 0.0
C1940 C 0.45108 0.57519 0.14946 0.0
C1941 C 0.48205 0.58796 0.201 0.0
C1942 C 0.50587 0.62577 0.19305 0.0
H1943 H 0.43537 0.53482 0.18713 0.0
H1944 H 0.48103 0.57884 0.22517 0.0
S1945 S 0.51269 0.66846 0.11459 0.0
N1946 N 0.4776 0.62523 0.11083 0.0
N1947 N 0.52839 0.67185 0.15108 0.0
C1948 C 0.5054 0.63653 0.16162 0.0
C1949 C 0.47766 0.61146 0.13998 0.0
C1950 C 0.13239 0.62524 0.65346 0.0
C1951 C 0.12136 0.58737 0.65717 0.0
C1952 C 0.11973 0.64311 0.67417 0.0
C1953 C 0.09603 0.62403 0.69987 0.0
H1954 H 0.14942 0.64072 0.63349 0.0
H1955 H 0.12851 0.67212 0.66978 0.0
S1956 S 0.05893 0.52388 0.7194 0.0
N1957 N 0.08499 0.53102 0.68777 0.0
N1958 N 0.06197 0.56438 0.72735 0.0
C1959 C 0.08515 0.58602 0.70389 0.0
C1960 C 0.09768 0.56784 0.68248 0.0
C1961 C 0.35366 0.51547 0.65782 0.0
C1962 C 0.38127 0.51458 0.63936 0.0
C1963 C 0.33686 0.49046 0.68286 0.0
C1964 C 0.34716 0.4639 0.69089 0.0
H1965 H 0.34445 0.53518 0.65263 0.0
H1966 H 0.31581 0.49219 0.69651 0.0
S1967 S 0.41896 0.45041 0.65123 0.0
N1968 N 0.41878 0.48469 0.6314 0.0
N1969 N 0.38729 0.43857 0.67931 0.0
C1970 C 0.37506 0.46284 0.67323 0.0
C1971 C 0.39204 0.48797 0.64726 0.0
C1972 C 0.46228 0.89643 0.66918 0.0
C1973 C 0.43915 0.86027 0.65658 0.0
C1974 C 0.49131 0.9038 0.6905 0.0
C1975 C 0.49897 0.87556 0.69884 0.0
H1976 H 0.45835 0.91933 0.66204 0.0
H1977 H 0.5084 0.93181 0.69977 0.0
S1978 S 0.44522 0.77611 0.67383 0.0
N1979 N 0.42426 0.7958 0.6559 0.0
N1980 N 0.48002 0.80986 0.69397 0.0
C1981 C 0.47554 0.83929 0.68683 0.0
C1982 C 0.44527 0.83157 0.66627 0.0
C1983 C 0.26599 0.43962 0.18151 0.0
C1984 C 0.23641 0.44577 0.17446 0.0
C1985 C 0.28324 0.43015 0.15776 0.0
C1986 C 0.27137 0.42634 0.12605 0.0
H1987 H 0.27651 0.44312 0.2055 0.0
H1988 H 0.30759 0.42824 0.16402 0.0
S1989 S 0.18835 0.43049 0.09761 0.0
N1990 N 0.19151 0.44125 0.13552 0.0
N1991 N 0.22308 0.42277 0.0904 0.0
C1992 C 0.23896 0.42853 0.11955 0.0
C1993 C 0.22186 0.43874 0.14383 0.0
C1994 C 0.54167 0.83486 0.18666 0.0
C1995 C 0.52221 0.79552 0.18437 0.0
C1996 C 0.54795 0.85739 0.15976 0.0
C1997 C 0.53649 0.84134 0.12954 0.0
H1998 H 0.55097 0.84824 0.20951 0.0
H1999 H 0.5612 0.88737 0.16267 0.0
S2000 S 0.48626 0.73937 0.11158 0.0
N2001 N 0.4923 0.74166 0.15012 0.0
N2002 N 0.50579 0.78304 0.09945 0.0
C2003 C 0.51846 0.8019 0.12717 0.0
C2004 C 0.51087 0.77927 0.15458 0.0
C2005 C 0.1421 0.67926 0.14082 0.0
C2006 C 0.12163 0.69459 0.12756 0.0
C2007 C 0.17036 0.69856 0.16314 0.0
C2008 C 0.17894 0.73401 0.17397 0.0
H2009 H 0.1366 0.65213 0.13325 0.0
H2010 H 0.18486 0.68502 0.17259 0.0
S2011 S 0.13349 0.78716 0.14689 0.0
N2012 N 0.11239 0.74795 0.12622 0.0
N2013 N 0.16437 0.7841 0.16958 0.0
C2014 C 0.15855 0.74994 0.16101 0.0
C2015 C 0.13024 0.73037 0.13747 0.0
loop_
_geom_bond_atom_site_label_1
_geom_bond_atom_site_label_2
_geom_bond_distance
_geom_bond_site_symmetry_2
_ccdc_geom_bond_type
O0 Zn1 1.953 . S
O0 C16 1.225 . S
Zn1 O0 1.953 . S
Zn1 O2 1.949 . S
Zn1 O8 1.919 . S
Zn1 O13 1.924 . S
O2 Zn1 1.949 . S
O2 Zn3 1.923 . S
O2 Zn4 1.950 . S
O2 Zn5 1.945 . S
Zn3 O2 1.923 . S
Zn3 O6 1.933 . S
Zn3 O9 1.941 . S
Zn3 O10 1.965 . S
Zn4 O2 1.950 . S
Zn4 O11 1.938 . S
Zn4 O12 1.906 . S
Zn4 O22 1.953 . S
Zn5 O2 1.945 . S
Zn5 O7 1.932 . S
Zn5 O14 1.977 . S
Zn5 O15 1.910 . S
O6 Zn3 1.933 . S
O6 C17 1.226 . S
O7 Zn5 1.932 . S
O7 C17 1.307 . S
O8 Zn1 1.919 . S
O8 C19 1.253 . S
O9 Zn3 1.941 . S
O9 C19 1.283 . S
O10 Zn3 1.965 . S
O10 C18 1.303 . S
O11 Zn4 1.938 . S
O11 C18 1.247 . S
O12 Zn4 1.906 . S
O12 C20 1.304 . S
O13 Zn1 1.924 . S
O13 C21 1.311 . S
O14 Zn5 1.977 . S
O14 C20 1.272 . S
O15 Zn5 1.910 . S
O15 C21 1.231 . S
C16 O0 1.225 . S
C16 O22 1.298 . S
C17 O6 1.226 . S
C17 O7 1.307 . S
C18 O10 1.303 . S
C18 O11 1.247 . S
C19 O8 1.253 . S
C19 O9 1.283 . S
C20 O12 1.304 . S
C20 O14 1.272 . S
C21 O13 1.311 . S
C21 O15 1.231 . S
O22 Zn4 1.953 . S
O22 C16 1.298 . S
O23 Zn24 1.953 . S
O23 C39 1.225 . S
Zn24 O23 1.953 . S
Zn24 O25 1.949 . S
Zn24 O31 1.919 . S
Zn24 O36 1.924 . S
O25 Zn24 1.949 . S
O25 Zn26 1.923 . S
O25 Zn27 1.950 . S
O25 Zn28 1.945 . S
Zn26 O25 1.923 . S
Zn26 O29 1.933 . S
Zn26 O32 1.941 . S
Zn26 O33 1.965 . S
Zn27 O25 1.950 . S
Zn27 O34 1.938 1_545 S
Zn27 O35 1.906 1_545 S
Zn27 O45 1.953 1_545 S
Zn28 O25 1.945 . S
Zn28 O30 1.932 . S
Zn28 O37 1.977 . S
Zn28 O38 1.910 . S
O29 Zn26 1.933 . S
O29 C40 1.226 . S
O30 Zn28 1.932 . S
O30 C40 1.307 . S
O31 Zn24 1.919 . S
O31 C42 1.253 . S
O32 Zn26 1.941 . S
O32 C42 1.283 . S
O33 Zn26 1.965 . S
O33 C41 1.303 1_545 S
O34 Zn27 1.938 1_565 S
O34 C41 1.247 . S
O35 Zn27 1.906 1_565 S
O35 C43 1.304 1_565 S
O36 Zn24 1.924 . S
O36 C44 1.311 . S
O37 Zn28 1.977 . S
O37 C43 1.272 . S
O38 Zn28 1.910 . S
O38 C44 1.231 . S
C39 O23 1.225 . S
C39 O45 1.298 1_545 S
C40 O29 1.226 . S
C40 O30 1.307 . S
C41 O33 1.303 1_565 S
C41 O34 1.247 . S
C42 O31 1.253 . S
C42 O32 1.283 . S
C43 O35 1.304 1_545 S
C43 O37 1.272 . S
C44 O36 1.311 . S
C44 O38 1.231 . S
O45 Zn27 1.953 1_565 S
O45 C39 1.298 1_565 S
O46 Zn47 1.953 . S
O46 C62 1.225 . S
Zn47 O46 1.953 . S
Zn47 O48 1.949 . S
Zn47 O54 1.919 . S
Zn47 O59 1.924 . S
O48 Zn47 1.949 . S
O48 Zn49 1.923 . S
O48 Zn50 1.950 . S
O48 Zn51 1.945 . S
Zn49 O48 1.923 . S
Zn49 O52 1.933 . S
Zn49 O55 1.941 . S
Zn49 O56 1.965 . S
Zn50 O48 1.950 . S
Zn50 O57 1.938 1_655 S
Zn50 O58 1.906 1_655 S
Zn50 O68 1.953 1_655 S
Zn51 O48 1.945 . S
Zn51 O53 1.932 . S
Zn51 O60 1.977 . S
Zn51 O61 1.910 . S
O52 Zn49 1.933 . S
O52 C63 1.226 . S
O53 Zn51 1.932 . S
O53 C63 1.307 . S
O54 Zn47 1.919 . S
O54 C65 1.253 . S
O55 Zn49 1.941 . S
O55 C65 1.283 . S
O56 Zn49 1.965 . S
O56 C64 1.303 1_655 S
O57 Zn50 1.938 1_455 S
O57 C64 1.247 . S
O58 Zn50 1.906 1_455 S
O58 C66 1.304 1_455 S
O59 Zn47 1.924 . S
O59 C67 1.311 . S
O60 Zn51 1.977 . S
O60 C66 1.272 . S
O61 Zn51 1.910 . S
O61 C67 1.231 . S
C62 O46 1.225 . S
C62 O68 1.298 1_655 S
C63 O52 1.226 . S
C63 O53 1.307 . S
C64 O56 1.303 1_455 S
C64 O57 1.247 . S
C65 O54 1.253 . S
C65 O55 1.283 . S
C66 O58 1.304 1_655 S
C66 O60 1.272 . S
C67 O59 1.311 . S
C67 O61 1.231 . S
O68 Zn50 1.953 1_455 S
O68 C62 1.298 1_455 S
O69 Zn70 1.953 . S
O69 C85 1.225 . S
Zn70 O69 1.953 . S
Zn70 O71 1.949 . S
Zn70 O77 1.919 . S
Zn70 O82 1.924 . S
O71 Zn70 1.949 . S
O71 Zn72 1.923 . S
O71 Zn73 1.950 . S
O71 Zn74 1.945 . S
Zn72 O71 1.923 . S
Zn72 O75 1.933 . S
Zn72 O78 1.941 . S
Zn72 O79 1.965 . S
Zn73 O71 1.950 . S
Zn73 O80 1.938 . S
Zn73 O81 1.906 . S
Zn73 O91 1.953 . S
Zn74 O71 1.945 . S
Zn74 O76 1.932 . S
Zn74 O83 1.977 . S
Zn74 O84 1.910 . S
O75 Zn72 1.933 . S
O75 C86 1.226 . S
O76 Zn74 1.932 . S
O76 C86 1.307 . S
O77 Zn70 1.919 . S
O77 C88 1.253 . S
O78 Zn72 1.941 . S
O78 C88 1.283 . S
O79 Zn72 1.965 . S
O79 C87 1.303 . S
O80 Zn73 1.938 . S
O80 C87 1.247 . S
O81 Zn73 1.906 . S
O81 C89 1.304 . S
O82 Zn70 1.924 . S
O82 C90 1.311 . S
O83 Zn74 1.977 . S
O83 C89 1.272 . S
O84 Zn74 1.910 . S
O84 C90 1.231 . S
C85 O69 1.225 . S
C85 O91 1.298 . S
C86 O75 1.226 . S
C86 O76 1.307 . S
C87 O79 1.303 . S
C87 O80 1.247 . S
C88 O77 1.253 . S
C88 O78 1.283 . S
C89 O81 1.304 . S
C89 O83 1.272 . S
C90 O82 1.311 . S
C90 O84 1.231 . S
O91 Zn73 1.953 . S
O91 C85 1.298 . S
O92 Zn93 1.953 . S
O92 C108 1.225 . S
Zn93 O92 1.953 . S
Zn93 O94 1.949 . S
Zn93 O100 1.919 . S
Zn93 O105 1.924 . S
O94 Zn93 1.949 . S
O94 Zn95 1.923 . S
O94 Zn96 1.950 . S
O94 Zn97 1.945 . S
Zn95 O94 1.923 . S
Zn95 O98 1.933 . S
Zn95 O101 1.941 . S
Zn95 O102 1.965 . S
Zn96 O94 1.950 . S
Zn96 O103 1.938 1_565 S
Zn96 O104 1.906 1_565 S
Zn96 O114 1.953 1_565 S
Zn97 O94 1.945 . S
Zn97 O99 1.932 . S
Zn97 O106 1.977 . S
Zn97 O107 1.910 . S
O98 Zn95 1.933 . S
O98 C109 1.226 . S
O99 Zn97 1.932 . S
O99 C109 1.307 . S
O100 Zn93 1.919 . S
O100 C111 1.253 . S
O101 Zn95 1.941 . S
O101 C111 1.283 . S
O102 Zn95 1.965 . S
O102 C110 1.303 1_565 S
O103 Zn96 1.938 1_545 S
O103 C110 1.247 . S
O104 Zn96 1.906 1_545 S
O104 C112 1.304 1_545 S
O105 Zn93 1.924 . S
O105 C113 1.311 . S
O106 Zn97 1.977 . S
O106 C112 1.272 . S
O107 Zn97 1.910 . S
O107 C113 1.231 . S
C108 O92 1.225 . S
C108 O114 1.298 1_565 S
C109 O98 1.226 . S
C109 O99 1.307 . S
C110 O102 1.303 1_545 S
C110 O103 1.247 . S
C111 O100 1.253 . S
C111 O101 1.283 . S
C112 O104 1.304 1_565 S
C112 O106 1.272 . S
C113 O105 1.311 . S
C113 O107 1.231 . S
O114 Zn96 1.953 1_545 S
O114 C108 1.298 1_545 S
O115 Zn116 1.953 . S
O115 C131 1.225 . S
Zn116 O115 1.953 . S
Zn116 O117 1.949 . S
Zn116 O123 1.919 . S
Zn116 O128 1.924 . S
O117 Zn116 1.949 . S
O117 Zn118 1.923 . S
O117 Zn119 1.950 . S
O117 Zn120 1.945 . S
Zn118 O117 1.923 . S
Zn118 O121 1.933 . S
Zn118 O124 1.941 . S
Zn118 O125 1.965 . S
Zn119 O117 1.950 . S
Zn119 O126 1.938 1_455 S
Zn119 O127 1.906 1_455 S
Zn119 O137 1.953 1_455 S
Zn120 O117 1.945 . S
Zn120 O122 1.932 . S
Zn120 O129 1.977 . S
Zn120 O130 1.910 . S
O121 Zn118 1.933 . S
O121 C132 1.226 . S
O122 Zn120 1.932 . S
O122 C132 1.307 . S
O123 Zn116 1.919 . S
O123 C134 1.253 . S
O124 Zn118 1.941 . S
O124 C134 1.283 . S
O125 Zn118 1.965 . S
O125 C133 1.303 1_455 S
O126 Zn119 1.938 1_655 S
O126 C133 1.247 . S
O127 Zn119 1.906 1_655 S
O127 C135 1.304 1_655 S
O128 Zn116 1.924 . S
O128 C136 1.311 . S
O129 Zn120 1.977 . S
O129 C135 1.272 . S
O130 Zn120 1.910 . S
O130 C136 1.231 . S
C131 O115 1.225 . S
C131 O137 1.298 1_455 S
C132 O121 1.226 . S
C132 O122 1.307 . S
C133 O125 1.303 1_655 S
C133 O126 1.247 . S
C134 O123 1.253 . S
C134 O124 1.283 . S
C135 O127 1.304 1_455 S
C135 O129 1.272 . S
C136 O128 1.311 . S
C136 O130 1.231 . S
O137 Zn119 1.953 1_655 S
O137 C131 1.298 1_655 S
O138 Zn139 1.953 . S
O138 C154 1.225 . S
Zn139 O138 1.953 . S
Zn139 O140 1.949 . S
Zn139 O146 1.919 . S
Zn139 O151 1.924 . S
O140 Zn139 1.949 . S
O140 Zn141 1.923 . S
O140 Zn142 1.950 . S
O140 Zn143 1.945 . S
Zn141 O140 1.923 . S
Zn141 O144 1.933 . S
Zn141 O147 1.941 . S
Zn141 O148 1.965 . S
Zn142 O140 1.950 . S
Zn142 O149 1.938 . S
Zn142 O150 1.906 . S
Zn142 O160 1.953 . S
Zn143 O140 1.945 . S
Zn143 O145 1.932 . S
Zn143 O152 1.977 . S
Zn143 O153 1.910 . S
O144 Zn141 1.933 . S
O144 C155 1.226 . S
O145 Zn143 1.932 . S
O145 C155 1.307 . S
O146 Zn139 1.919 . S
O146 C157 1.253 . S
O147 Zn141 1.941 . S
O147 C157 1.283 . S
O148 Zn141 1.965 . S
O148 C156 1.303 . S
O149 Zn142 1.938 . S
O149 C156 1.247 . S
O150 Zn142 1.906 . S
O150 C158 1.304 . S
O151 Zn139 1.924 . S
O151 C159 1.311 . S
O152 Zn143 1.977 . S
O152 C158 1.272 . S
O153 Zn143 1.910 . S
O153 C159 1.231 . S
C154 O138 1.225 . S
C154 O160 1.298 . S
C155 O144 1.226 . S
C155 O145 1.307 . S
C156 O148 1.303 . S
C156 O149 1.247 . S
C157 O146 1.253 . S
C157 O147 1.283 . S
C158 O150 1.304 . S
C158 O152 1.272 . S
C159 O151 1.311 . S
C159 O153 1.231 . S
O160 Zn142 1.953 . S
O160 C154 1.298 . S
O161 Zn162 1.953 . S
O161 C177 1.225 . S
Zn162 O161 1.953 . S
Zn162 O163 1.949 . S
Zn162 O169 1.919 . S
Zn162 O174 1.924 . S
O163 Zn162 1.949 . S
O163 Zn164 1.923 . S
O163 Zn165 1.950 . S
O163 Zn166 1.945 . S
Zn164 O163 1.923 . S
Zn164 O167 1.933 . S
Zn164 O170 1.941 1_565 S
Zn164 O171 1.965 1_565 S
Zn165 O163 1.950 . S
Zn165 O172 1.941 . S
Zn165 O173 1.906 . S
Zn165 O183 1.953 . S
Zn166 O163 1.945 . S
Zn166 O168 1.932 . S
Zn166 O175 1.977 . S
Zn166 O176 1.910 . S
O167 Zn164 1.933 . S
O167 C178 1.226 . S
O168 Zn166 1.932 . S
O168 C178 1.307 . S
O169 Zn162 1.919 . S
O169 C180 1.259 . S
O170 Zn164 1.941 1_545 S
O170 C180 1.276 1_545 S
O171 Zn164 1.965 1_545 S
O171 C179 1.303 . S
O172 Zn165 1.941 . S
O172 C179 1.245 1_565 S
O173 Zn165 1.906 . S
O173 C181 1.304 . S
O174 Zn162 1.924 . S
O174 C182 1.311 . S
O175 Zn166 1.977 . S
O175 C181 1.272 . S
O176 Zn166 1.910 . S
O176 C182 1.231 . S
C177 O161 1.225 . S
C177 O183 1.298 . S
C178 O167 1.226 . S
C178 O168 1.307 . S
C179 O171 1.303 . S
C179 O172 1.245 1_545 S
C180 O169 1.259 . S
C180 O170 1.276 1_565 S
C181 O173 1.304 . S
C181 O175 1.272 . S
C182 O174 1.311 . S
C182 O176 1.231 . S
O183 Zn165 1.953 . S
O183 C177 1.298 . S
O184 Zn185 1.953 . S
O184 C200 1.225 . S
Zn185 O184 1.953 . S
Zn185 O186 1.949 . S
Zn185 O192 1.919 . S
Zn185 O197 1.924 . S
O186 Zn185 1.949 . S
O186 Zn187 1.923 . S
O186 Zn188 1.950 . S
O186 Zn189 1.945 . S
Zn187 O186 1.923 . S
Zn187 O190 1.933 . S
Zn187 O193 1.941 1_455 S
Zn187 O194 1.965 1_455 S
Zn188 O186 1.950 . S
Zn188 O195 1.940 . S
Zn188 O196 1.906 . S
Zn188 O206 1.953 . S
Zn189 O186 1.945 . S
Zn189 O191 1.932 . S
Zn189 O198 1.977 . S
Zn189 O199 1.910 . S
O190 Zn187 1.933 . S
O190 C201 1.226 . S
O191 Zn189 1.932 . S
O191 C201 1.307 . S
O192 Zn185 1.919 . S
O192 C203 1.254 . S
O193 Zn187 1.941 1_655 S
O193 C203 1.288 1_655 S
O194 Zn187 1.965 1_655 S
O194 C202 1.303 . S
O195 Zn188 1.940 . S
O195 C202 1.246 1_455 S
O196 Zn188 1.906 . S
O196 C204 1.304 . S
O197 Zn185 1.924 . S
O197 C205 1.311 . S
O198 Zn189 1.977 . S
O198 C204 1.272 . S
O199 Zn189 1.910 . S
O199 C205 1.231 . S
C200 O184 1.225 . S
C200 O206 1.298 . S
C201 O190 1.226 . S
C201 O191 1.307 . S
C202 O194 1.303 . S
C202 O195 1.246 1_655 S
C203 O192 1.254 . S
C203 O193 1.288 1_455 S
C204 O196 1.304 . S
C204 O198 1.272 . S
C205 O197 1.311 . S
C205 O199 1.231 . S
O206 Zn188 1.953 . S
O206 C200 1.298 . S
O207 Zn208 1.953 . S
O207 C223 1.225 . S
Zn208 O207 1.953 . S
Zn208 O209 1.949 . S
Zn208 O215 1.919 . S
Zn208 O220 1.924 . S
O209 Zn208 1.949 . S
O209 Zn210 1.923 . S
O209 Zn211 1.950 . S
O209 Zn212 1.945 . S
Zn210 O209 1.923 . S
Zn210 O213 1.933 . S
Zn210 O216 1.941 . S
Zn210 O217 1.965 . S
Zn211 O209 1.950 . S
Zn211 O218 1.938 . S
Zn211 O219 1.906 . S
Zn211 O229 1.953 . S
Zn212 O209 1.945 . S
Zn212 O214 1.932 . S
Zn212 O221 1.977 . S
Zn212 O222 1.910 . S
O213 Zn210 1.933 . S
O213 C224 1.226 . S
O214 Zn212 1.932 . S
O214 C224 1.307 . S
O215 Zn208 1.919 . S
O215 C226 1.253 . S
O216 Zn210 1.941 . S
O216 C226 1.283 . S
O217 Zn210 1.965 . S
O217 C225 1.303 . S
O218 Zn211 1.938 . S
O218 C225 1.247 . S
O219 Zn211 1.906 . S
O219 C227 1.304 . S
O220 Zn208 1.924 . S
O220 C228 1.311 . S
O221 Zn212 1.977 . S
O221 C227 1.272 . S
O222 Zn212 1.910 . S
O222 C228 1.231 . S
C223 O207 1.225 . S
C223 O229 1.298 . S
C224 O213 1.226 . S
C224 O214 1.307 . S
C225 O217 1.303 . S
C225 O218 1.247 . S
C226 O215 1.253 . S
C226 O216 1.283 . S
C227 O219 1.304 . S
C227 O221 1.272 . S
C228 O220 1.311 . S
C228 O222 1.231 . S
O229 Zn211 1.953 . S
O229 C223 1.298 . S
O230 Zn231 1.953 . S
O230 C246 1.225 . S
Zn231 O230 1.953 . S
Zn231 O232 1.949 . S
Zn231 O238 1.919 . S
Zn231 O243 1.924 . S
O232 Zn231 1.949 . S
O232 Zn233 1.923 . S
O232 Zn234 1.950 . S
O232 Zn235 1.945 . S
Zn233 O232 1.923 . S
Zn233 O236 1.933 . S
Zn233 O239 1.941 1_545 S
Zn233 O240 1.965 1_545 S
Zn234 O232 1.950 . S
Zn234 O241 1.940 . S
Zn234 O242 1.906 . S
Zn234 O252 1.953 . S
Zn235 O232 1.945 . S
Zn235 O237 1.932 . S
Zn235 O244 1.977 . S
Zn235 O245 1.910 . S
O236 Zn233 1.933 . S
O236 C247 1.226 . S
O237 Zn235 1.932 . S
O237 C247 1.307 . S
O238 Zn231 1.919 . S
O238 C249 1.254 . S
O239 Zn233 1.941 1_565 S
O239 C249 1.288 1_565 S
O240 Zn233 1.965 1_565 S
O240 C248 1.303 . S
O241 Zn234 1.940 . S
O241 C248 1.246 1_545 S
O242 Zn234 1.906 . S
O242 C250 1.304 . S
O243 Zn231 1.924 . S
O243 C251 1.311 . S
O244 Zn235 1.977 . S
O244 C250 1.272 . S
O245 Zn235 1.910 . S
O245 C251 1.231 . S
C246 O230 1.225 . S
C246 O252 1.298 . S
C247 O236 1.226 . S
C247 O237 1.307 . S
C248 O240 1.303 . S
C248 O241 1.246 1_565 S
C249 O238 1.254 . S
C249 O239 1.288 1_545 S
C250 O242 1.304 . S
C250 O244 1.272 . S
C251 O243 1.311 . S
C251 O245 1.231 . S
O252 Zn234 1.953 . S
O252 C246 1.298 . S
O253 Zn254 1.953 . S
O253 C269 1.225 . S
Zn254 O253 1.953 . S
Zn254 O255 1.949 . S
Zn254 O261 1.919 . S
Zn254 O266 1.924 . S
O255 Zn254 1.949 . S
O255 Zn256 1.923 . S
O255 Zn257 1.950 . S
O255 Zn258 1.945 . S
Zn256 O255 1.923 . S
Zn256 O259 1.933 . S
Zn256 O262 1.941 1_655 S
Zn256 O263 1.965 1_655 S
Zn257 O255 1.950 . S
Zn257 O264 1.941 . S
Zn257 O265 1.906 . S
Zn257 O275 1.953 . S
Zn258 O255 1.945 . S
Zn258 O260 1.932 . S
Zn258 O267 1.977 . S
Zn258 O268 1.910 . S
O259 Zn256 1.933 . S
O259 C270 1.226 . S
O260 Zn258 1.932 . S
O260 C270 1.307 . S
O261 Zn254 1.919 . S
O261 C272 1.259 . S
O262 Zn256 1.941 1_455 S
O262 C272 1.276 1_455 S
O263 Zn256 1.965 1_455 S
O263 C271 1.303 . S
O264 Zn257 1.941 . S
O264 C271 1.245 1_655 S
O265 Zn257 1.906 . S
O265 C273 1.304 . S
O266 Zn254 1.924 . S
O266 C274 1.311 . S
O267 Zn258 1.977 . S
O267 C273 1.272 . S
O268 Zn258 1.910 . S
O268 C274 1.231 . S
C269 O253 1.225 . S
C269 O275 1.298 . S
C270 O259 1.226 . S
C270 O260 1.307 . S
C271 O263 1.303 . S
C271 O264 1.245 1_455 S
C272 O261 1.259 . S
C272 O262 1.276 1_655 S
C273 O265 1.304 . S
C273 O267 1.272 . S
C274 O266 1.311 . S
C274 O268 1.231 . S
O275 Zn257 1.953 . S
O275 C269 1.298 . S
O276 Zn277 1.953 . S
O276 C292 1.225 . S
Zn277 O276 1.953 . S
Zn277 O278 1.949 . S
Zn277 O284 1.919 . S
Zn277 O289 1.924 . S
O278 Zn277 1.949 . S
O278 Zn279 1.923 . S
O278 Zn280 1.950 . S
O278 Zn281 1.945 . S
Zn279 O278 1.923 . S
Zn279 O282 1.933 . S
Zn279 O285 1.941 . S
Zn279 O286 1.965 . S
Zn280 O278 1.950 . S
Zn280 O287 1.938 . S
Zn280 O288 1.906 . S
Zn280 O298 1.953 . S
Zn281 O278 1.945 . S
Zn281 O283 1.932 . S
Zn281 O290 1.977 . S
Zn281 O291 1.910 . S
O282 Zn279 1.933 . S
O282 C293 1.226 . S
O283 Zn281 1.932 . S
O283 C293 1.307 . S
O284 Zn277 1.919 . S
O284 C295 1.253 . S
O285 Zn279 1.941 . S
O285 C295 1.283 . S
O286 Zn279 1.965 . S
O286 C294 1.303 . S
O287 Zn280 1.938 . S
O287 C294 1.247 . S
O288 Zn280 1.906 . S
O288 C296 1.304 . S
O289 Zn277 1.924 . S
O289 C297 1.311 . S
O290 Zn281 1.977 . S
O290 C296 1.272 . S
O291 Zn281 1.910 . S
O291 C297 1.231 . S
C292 O276 1.225 . S
C292 O298 1.298 . S
C293 O282 1.226 . S
C293 O283 1.307 . S
C294 O286 1.303 . S
C294 O287 1.247 . S
C295 O284 1.253 . S
C295 O285 1.283 . S
C296 O288 1.304 . S
C296 O290 1.272 . S
C297 O289 1.311 . S
C297 O291 1.231 . S
O298 Zn280 1.953 . S
O298 C292 1.298 . S
O299 Zn300 1.953 . S
O299 C315 1.225 . S
Zn300 O299 1.953 . S
Zn300 O301 1.949 . S
Zn300 O307 1.919 . S
Zn300 O312 1.924 . S
O301 Zn300 1.949 . S
O301 Zn302 1.923 . S
O301 Zn303 1.950 . S
O301 Zn304 1.945 . S
Zn302 O301 1.923 . S
Zn302 O305 1.933 . S
Zn302 O308 1.941 . S
Zn302 O309 1.965 . S
Zn303 O301 1.950 . S
Zn303 O310 1.938 . S
Zn303 O311 1.906 . S
Zn303 O321 1.953 . S
Zn304 O301 1.945 . S
Zn304 O306 1.932 . S
Zn304 O313 1.977 . S
Zn304 O314 1.910 . S
O305 Zn302 1.933 . S
O305 C316 1.226 . S
O306 Zn304 1.932 . S
O306 C316 1.307 . S
O307 Zn300 1.919 . S
O307 C318 1.253 . S
O308 Zn302 1.941 . S
O308 C318 1.283 . S
O309 Zn302 1.965 . S
O309 C317 1.303 . S
O310 Zn303 1.938 . S
O310 C317 1.247 . S
O311 Zn303 1.906 . S
O311 C319 1.304 . S
O312 Zn300 1.924 . S
O312 C320 1.311 . S
O313 Zn304 1.977 . S
O313 C319 1.272 . S
O314 Zn304 1.910 . S
O314 C320 1.231 . S
C315 O299 1.225 . S
C315 O321 1.298 . S
C316 O305 1.226 . S
C316 O306 1.307 . S
C317 O309 1.303 . S
C317 O310 1.247 . S
C318 O307 1.253 . S
C318 O308 1.283 . S
C319 O311 1.304 . S
C319 O313 1.272 . S
C320 O312 1.311 . S
C320 O314 1.231 . S
O321 Zn303 1.953 . S
O321 C315 1.298 . S
O322 Zn323 1.953 . S
O322 C338 1.225 . S
Zn323 O322 1.953 . S
Zn323 O324 1.949 . S
Zn323 O330 1.919 . S
Zn323 O335 1.924 . S
O324 Zn323 1.949 . S
O324 Zn325 1.923 . S
O324 Zn326 1.950 . S
O324 Zn327 1.945 . S
Zn325 O324 1.923 . S
Zn325 O328 1.933 . S
Zn325 O331 1.941 . S
Zn325 O332 1.965 . S
Zn326 O324 1.950 . S
Zn326 O333 1.938 . S
Zn326 O334 1.906 . S
Zn326 O344 1.953 . S
Zn327 O324 1.945 . S
Zn327 O329 1.932 . S
Zn327 O336 1.977 . S
Zn327 O337 1.910 . S
O328 Zn325 1.933 . S
O328 C339 1.226 . S
O329 Zn327 1.932 . S
O329 C339 1.307 . S
O330 Zn323 1.919 . S
O330 C341 1.253 . S
O331 Zn325 1.941 . S
O331 C341 1.283 . S
O332 Zn325 1.965 . S
O332 C340 1.303 . S
O333 Zn326 1.938 . S
O333 C340 1.247 . S
O334 Zn326 1.906 . S
O334 C342 1.304 . S
O335 Zn323 1.924 . S
O335 C343 1.311 . S
O336 Zn327 1.977 . S
O336 C342 1.272 . S
O337 Zn327 1.910 . S
O337 C343 1.231 . S
C338 O322 1.225 . S
C338 O344 1.298 . S
C339 O328 1.226 . S
C339 O329 1.307 . S
C340 O332 1.303 . S
C340 O333 1.247 . S
C341 O330 1.253 . S
C341 O331 1.283 . S
C342 O334 1.304 . S
C342 O336 1.272 . S
C343 O335 1.311 . S
C343 O337 1.231 . S
O344 Zn326 1.953 . S
O344 C338 1.298 . S
O345 Zn346 1.953 . S
O345 C361 1.225 . S
Zn346 O345 1.953 . S
Zn346 O347 1.949 . S
Zn346 O353 1.919 . S
Zn346 O358 1.924 . S
O347 Zn346 1.949 . S
O347 Zn348 1.923 . S
O347 Zn349 1.950 . S
O347 Zn350 1.945 . S
Zn348 O347 1.923 . S
Zn348 O351 1.933 . S
Zn348 O354 1.941 . S
Zn348 O355 1.965 . S
Zn349 O347 1.950 . S
Zn349 O356 1.938 . S
Zn349 O357 1.906 . S
Zn349 O367 1.953 . S
Zn350 O347 1.945 . S
Zn350 O352 1.932 . S
Zn350 O359 1.977 . S
Zn350 O360 1.910 . S
O351 Zn348 1.933 . S
O351 C362 1.226 . S
O352 Zn350 1.932 . S
O352 C362 1.307 . S
O353 Zn346 1.919 . S
O353 C364 1.253 . S
O354 Zn348 1.941 . S
O354 C364 1.283 . S
O355 Zn348 1.965 . S
O355 C363 1.303 . S
O356 Zn349 1.938 . S
O356 C363 1.247 . S
O357 Zn349 1.906 . S
O357 C365 1.304 . S
O358 Zn346 1.924 . S
O358 C366 1.311 . S
O359 Zn350 1.977 . S
O359 C365 1.272 . S
O360 Zn350 1.910 . S
O360 C366 1.231 . S
C361 O345 1.225 . S
C361 O367 1.298 . S
C362 O351 1.226 . S
C362 O352 1.307 . S
C363 O355 1.303 . S
C363 O356 1.247 . S
C364 O353 1.253 . S
C364 O354 1.283 . S
C365 O357 1.304 . S
C365 O359 1.272 . S
C366 O358 1.311 . S
C366 O360 1.231 . S
O367 Zn349 1.953 . S
O367 C361 1.298 . S
O368 Zn369 1.953 . S
O368 C384 1.225 . S
Zn369 O368 1.953 . S
Zn369 O370 1.949 . S
Zn369 O376 1.919 . S
Zn369 O381 1.924 . S
O370 Zn369 1.949 . S
O370 Zn371 1.923 . S
O370 Zn372 1.950 . S
O370 Zn373 1.945 . S
Zn371 O370 1.923 . S
Zn371 O374 1.933 . S
Zn371 O377 1.941 . S
Zn371 O378 1.965 . S
Zn372 O370 1.950 . S
Zn372 O379 1.938 . S
Zn372 O380 1.906 . S
Zn372 O390 1.953 . S
Zn373 O370 1.945 . S
Zn373 O375 1.932 . S
Zn373 O382 1.977 . S
Zn373 O383 1.910 . S
O374 Zn371 1.933 . S
O374 C385 1.226 . S
O375 Zn373 1.932 . S
O375 C385 1.307 . S
O376 Zn369 1.919 . S
O376 C387 1.253 . S
O377 Zn371 1.941 . S
O377 C387 1.283 . S
O378 Zn371 1.965 . S
O378 C386 1.303 . S
O379 Zn372 1.938 . S
O379 C386 1.247 . S
O380 Zn372 1.906 . S
O380 C388 1.304 . S
O381 Zn369 1.924 . S
O381 C389 1.311 . S
O382 Zn373 1.977 . S
O382 C388 1.272 . S
O383 Zn373 1.910 . S
O383 C389 1.231 . S
C384 O368 1.225 . S
C384 O390 1.298 . S
C385 O374 1.226 . S
C385 O375 1.307 . S
C386 O378 1.303 . S
C386 O379 1.247 . S
C387 O376 1.253 . S
C387 O377 1.283 . S
C388 O380 1.304 . S
C388 O382 1.272 . S
C389 O381 1.311 . S
C389 O383 1.231 . S
O390 Zn372 1.953 . S
O390 C384 1.298 . S
O391 Zn392 1.953 . S
O391 C407 1.225 . S
Zn392 O391 1.953 . S
Zn392 O393 1.949 . S
Zn392 O399 1.919 . S
Zn392 O404 1.924 . S
O393 Zn392 1.949 . S
O393 Zn394 1.923 . S
O393 Zn395 1.950 . S
O393 Zn396 1.945 . S
Zn394 O393 1.923 . S
Zn394 O397 1.933 . S
Zn394 O400 1.941 . S
Zn394 O401 1.965 . S
Zn395 O393 1.950 . S
Zn395 O402 1.938 . S
Zn395 O403 1.906 . S
Zn395 O413 1.953 . S
Zn396 O393 1.945 . S
Zn396 O398 1.932 . S
Zn396 O405 1.977 . S
Zn396 O406 1.910 . S
O397 Zn394 1.933 . S
O397 C408 1.226 . S
O398 Zn396 1.932 . S
O398 C408 1.307 . S
O399 Zn392 1.919 . S
O399 C410 1.253 . S
O400 Zn394 1.941 . S
O400 C410 1.283 . S
O401 Zn394 1.965 . S
O401 C409 1.303 . S
O402 Zn395 1.938 . S
O402 C409 1.247 . S
O403 Zn395 1.906 . S
O403 C411 1.304 . S
O404 Zn392 1.924 . S
O404 C412 1.311 . S
O405 Zn396 1.977 . S
O405 C411 1.272 . S
O406 Zn396 1.910 . S
O406 C412 1.231 . S
C407 O391 1.225 . S
C407 O413 1.298 . S
C408 O397 1.226 . S
C408 O398 1.307 . S
C409 O401 1.303 . S
C409 O402 1.247 . S
C410 O399 1.253 . S
C410 O400 1.283 . S
C411 O403 1.304 . S
C411 O405 1.272 . S
C412 O404 1.311 . S
C412 O406 1.231 . S
O413 Zn395 1.953 . S
O413 C407 1.298 . S
O414 Zn415 1.953 . S
O414 C430 1.225 . S
Zn415 O414 1.953 . S
Zn415 O416 1.949 . S
Zn415 O422 1.919 . S
Zn415 O427 1.924 . S
O416 Zn415 1.949 . S
O416 Zn417 1.923 . S
O416 Zn418 1.950 . S
O416 Zn419 1.945 . S
Zn417 O416 1.923 . S
Zn417 O420 1.933 . S
Zn417 O423 1.941 . S
Zn417 O424 1.965 . S
Zn418 O416 1.950 . S
Zn418 O425 1.938 . S
Zn418 O426 1.906 . S
Zn418 O436 1.953 . S
Zn419 O416 1.945 . S
Zn419 O421 1.932 . S
Zn419 O428 1.977 . S
Zn419 O429 1.910 . S
O420 Zn417 1.933 . S
O420 C431 1.226 . S
O421 Zn419 1.932 . S
O421 C431 1.307 . S
O422 Zn415 1.919 . S
O422 C433 1.253 . S
O423 Zn417 1.941 . S
O423 C433 1.283 . S
O424 Zn417 1.965 . S
O424 C432 1.303 . S
O425 Zn418 1.938 . S
O425 C432 1.247 . S
O426 Zn418 1.906 . S
O426 C434 1.304 . S
O427 Zn415 1.924 . S
O427 C435 1.311 . S
O428 Zn419 1.977 . S
O428 C434 1.272 . S
O429 Zn419 1.910 . S
O429 C435 1.231 . S
C430 O414 1.225 . S
C430 O436 1.298 . S
C431 O420 1.226 . S
C431 O421 1.307 . S
C432 O424 1.303 . S
C432 O425 1.247 . S
C433 O422 1.253 . S
C433 O423 1.283 . S
C434 O426 1.304 . S
C434 O428 1.272 . S
C435 O427 1.311 . S
C435 O429 1.231 . S
O436 Zn418 1.953 . S
O436 C430 1.298 . S
O437 Zn438 1.953 . S
O437 C453 1.225 . S
Zn438 O437 1.953 . S
Zn438 O439 1.949 . S
Zn438 O445 1.919 . S
Zn438 O450 1.924 . S
O439 Zn438 1.949 . S
O439 Zn440 1.923 . S
O439 Zn441 1.950 . S
O439 Zn442 1.945 . S
Zn440 O439 1.923 . S
Zn440 O443 1.933 . S
Zn440 O446 1.941 . S
Zn440 O447 1.965 . S
Zn441 O439 1.950 . S
Zn441 O448 1.938 . S
Zn441 O449 1.906 . S
Zn441 O459 1.953 . S
Zn442 O439 1.945 . S
Zn442 O444 1.932 . S
Zn442 O451 1.977 . S
Zn442 O452 1.910 . S
O443 Zn440 1.933 . S
O443 C454 1.226 . S
O444 Zn442 1.932 . S
O444 C454 1.307 . S
O445 Zn438 1.919 . S
O445 C456 1.253 . S
O446 Zn440 1.941 . S
O446 C456 1.283 . S
O447 Zn440 1.965 . S
O447 C455 1.303 . S
O448 Zn441 1.938 . S
O448 C455 1.247 . S
O449 Zn441 1.906 . S
O449 C457 1.304 . S
O450 Zn438 1.924 . S
O450 C458 1.311 . S
O451 Zn442 1.977 . S
O451 C457 1.272 . S
O452 Zn442 1.910 . S
O452 C458 1.231 . S
C453 O437 1.225 . S
C453 O459 1.298 . S
C454 O443 1.226 . S
C454 O444 1.307 . S
C455 O447 1.303 . S
C455 O448 1.247 . S
C456 O445 1.253 . S
C456 O446 1.283 . S
C457 O449 1.304 . S
C457 O451 1.272 . S
C458 O450 1.311 . S
C458 O452 1.231 . S
O459 Zn441 1.953 . S
O459 C453 1.298 . S
O460 Zn461 1.953 . S
O460 C476 1.225 . S
Zn461 O460 1.953 . S
Zn461 O462 1.949 . S
Zn461 O468 1.919 . S
Zn461 O473 1.924 . S
O462 Zn461 1.949 . S
O462 Zn463 1.923 . S
O462 Zn464 1.950 . S
O462 Zn465 1.945 . S
Zn463 O462 1.923 . S
Zn463 O466 1.933 . S
Zn463 O469 1.941 . S
Zn463 O470 1.965 . S
Zn464 O462 1.950 . S
Zn464 O471 1.938 . S
Zn464 O472 1.906 . S
Zn464 O482 1.953 . S
Zn465 O462 1.945 . S
Zn465 O467 1.932 . S
Zn465 O474 1.977 . S
Zn465 O475 1.910 . S
O466 Zn463 1.933 . S
O466 C477 1.226 . S
O467 Zn465 1.932 . S
O467 C477 1.307 . S
O468 Zn461 1.919 . S
O468 C479 1.253 . S
O469 Zn463 1.941 . S
O469 C479 1.283 . S
O470 Zn463 1.965 . S
O470 C478 1.303 . S
O471 Zn464 1.938 . S
O471 C478 1.247 . S
O472 Zn464 1.906 . S
O472 C480 1.304 . S
O473 Zn461 1.924 . S
O473 C481 1.311 . S
O474 Zn465 1.977 . S
O474 C480 1.272 . S
O475 Zn465 1.910 . S
O475 C481 1.231 . S
C476 O460 1.225 . S
C476 O482 1.298 . S
C477 O466 1.226 . S
C477 O467 1.307 . S
C478 O470 1.303 . S
C478 O471 1.247 . S
C479 O468 1.253 . S
C479 O469 1.283 . S
C480 O472 1.304 . S
C480 O474 1.272 . S
C481 O473 1.311 . S
C481 O475 1.231 . S
O482 Zn464 1.953 . S
O482 C476 1.298 . S
O483 Zn484 1.969 . S
O483 C499 1.212 1_556 S
Zn484 O483 1.969 . S
Zn484 O485 1.949 . S
Zn484 O491 1.919 . S
Zn484 O496 1.924 . S
O485 Zn484 1.949 . S
O485 Zn486 1.923 . S
O485 Zn487 1.950 . S
O485 Zn488 1.945 . S
Zn486 O485 1.923 . S
Zn486 O489 1.933 . S
Zn486 O492 1.941 . S
Zn486 O493 1.965 . S
Zn487 O485 1.950 . S
Zn487 O494 1.938 . S
Zn487 O495 1.906 . S
Zn487 O505 1.953 1_556 S
Zn488 O485 1.945 . S
Zn488 O490 1.932 . S
Zn488 O497 1.977 . S
Zn488 O498 1.910 . S
O489 Zn486 1.933 . S
O489 C500 1.226 . S
O490 Zn488 1.932 . S
O490 C500 1.307 . S
O491 Zn484 1.919 . S
O491 C502 1.253 . S
O492 Zn486 1.941 . S
O492 C502 1.283 . S
O493 Zn486 1.965 . S
O493 C501 1.303 . S
O494 Zn487 1.938 . S
O494 C501 1.247 . S
O495 Zn487 1.906 . S
O495 C503 1.304 . S
O496 Zn484 1.924 . S
O496 C504 1.311 . S
O497 Zn488 1.977 . S
O497 C503 1.272 . S
O498 Zn488 1.910 . S
O498 C504 1.231 . S
C499 O483 1.212 1_554 S
C499 O505 1.298 . S
C500 O489 1.226 . S
C500 O490 1.307 . S
C501 O493 1.303 . S
C501 O494 1.247 . S
C502 O491 1.253 . S
C502 O492 1.283 . S
C503 O495 1.304 . S
C503 O497 1.272 . S
C504 O496 1.311 . S
C504 O498 1.231 . S
O505 Zn487 1.953 1_554 S
O505 C499 1.298 . S
O506 Zn507 1.969 . S
O506 C522 1.211 1_556 S
Zn507 O506 1.969 . S
Zn507 O508 1.949 . S
Zn507 O514 1.919 . S
Zn507 O519 1.924 . S
O508 Zn507 1.949 . S
O508 Zn509 1.923 . S
O508 Zn510 1.950 . S
O508 Zn511 1.945 . S
Zn509 O508 1.923 . S
Zn509 O512 1.933 . S
Zn509 O515 1.941 . S
Zn509 O516 1.965 . S
Zn510 O508 1.950 . S
Zn510 O517 1.938 . S
Zn510 O518 1.906 . S
Zn510 O528 1.953 1_556 S
Zn511 O508 1.945 . S
Zn511 O513 1.932 . S
Zn511 O520 1.977 . S
Zn511 O521 1.910 . S
O512 Zn509 1.933 . S
O512 C523 1.226 . S
O513 Zn511 1.932 . S
O513 C523 1.307 . S
O514 Zn507 1.919 . S
O514 C525 1.253 . S
O515 Zn509 1.941 . S
O515 C525 1.283 . S
O516 Zn509 1.965 . S
O516 C524 1.303 . S
O517 Zn510 1.938 . S
O517 C524 1.247 . S
O518 Zn510 1.906 . S
O518 C526 1.304 . S
O519 Zn507 1.924 . S
O519 C527 1.311 . S
O520 Zn511 1.977 . S
O520 C526 1.272 . S
O521 Zn511 1.910 . S
O521 C527 1.231 . S
C522 O506 1.211 1_554 S
C522 O528 1.298 . S
C523 O512 1.226 . S
C523 O513 1.307 . S
C524 O516 1.303 . S
C524 O517 1.247 . S
C525 O514 1.253 . S
C525 O515 1.283 . S
C526 O518 1.304 . S
C526 O520 1.272 . S
C527 O519 1.311 . S
C527 O521 1.231 . S
O528 Zn510 1.953 1_554 S
O528 C522 1.298 . S
O529 Zn530 1.970 . S
O529 C545 1.211 1_556 S
Zn530 O529 1.970 . S
Zn530 O531 1.949 . S
Zn530 O537 1.919 . S
Zn530 O542 1.924 . S
O531 Zn530 1.949 . S
O531 Zn532 1.923 . S
O531 Zn533 1.950 . S
O531 Zn534 1.945 . S
Zn532 O531 1.923 . S
Zn532 O535 1.933 . S
Zn532 O538 1.941 . S
Zn532 O539 1.965 . S
Zn533 O531 1.950 . S
Zn533 O540 1.938 . S
Zn533 O541 1.906 . S
Zn533 O551 1.953 1_556 S
Zn534 O531 1.945 . S
Zn534 O536 1.932 . S
Zn534 O543 1.977 . S
Zn534 O544 1.910 . S
O535 Zn532 1.933 . S
O535 C546 1.226 . S
O536 Zn534 1.932 . S
O536 C546 1.307 . S
O537 Zn530 1.919 . S
O537 C548 1.253 . S
O538 Zn532 1.941 . S
O538 C548 1.283 . S
O539 Zn532 1.965 . S
O539 C547 1.303 . S
O540 Zn533 1.938 . S
O540 C547 1.247 . S
O541 Zn533 1.906 . S
O541 C549 1.304 . S
O542 Zn530 1.924 . S
O542 C550 1.311 . S
O543 Zn534 1.977 . S
O543 C549 1.272 . S
O544 Zn534 1.910 . S
O544 C550 1.231 . S
C545 O529 1.211 1_554 S
C545 O551 1.298 . S
C546 O535 1.226 . S
C546 O536 1.307 . S
C547 O539 1.303 . S
C547 O540 1.247 . S
C548 O537 1.253 . S
C548 O538 1.283 . S
C549 O541 1.304 . S
C549 O543 1.272 . S
C550 O542 1.311 . S
C550 O544 1.231 . S
O551 Zn533 1.953 1_554 S
O551 C545 1.298 . S
O552 Zn553 1.953 . S
O552 C568 1.225 . S
Zn553 O552 1.953 . S
Zn553 O554 1.949 . S
Zn553 O560 1.919 . S
Zn553 O565 1.924 . S
O554 Zn553 1.949 . S
O554 Zn555 1.923 . S
O554 Zn556 1.950 . S
O554 Zn557 1.945 . S
Zn555 O554 1.923 . S
Zn555 O558 1.933 . S
Zn555 O561 1.941 . S
Zn555 O562 1.965 . S
Zn556 O554 1.950 . S
Zn556 O563 1.938 . S
Zn556 O564 1.906 . S
Zn556 O574 1.953 . S
Zn557 O554 1.945 . S
Zn557 O559 1.932 . S
Zn557 O566 1.977 . S
Zn557 O567 1.910 . S
O558 Zn555 1.933 . S
O558 C569 1.226 . S
O559 Zn557 1.932 . S
O559 C569 1.307 . S
O560 Zn553 1.919 . S
O560 C571 1.253 . S
O561 Zn555 1.941 . S
O561 C571 1.283 . S
O562 Zn555 1.965 . S
O562 C570 1.303 . S
O563 Zn556 1.938 . S
O563 C570 1.247 . S
O564 Zn556 1.906 . S
O564 C572 1.304 . S
O565 Zn553 1.924 . S
O565 C573 1.311 . S
O566 Zn557 1.977 . S
O566 C572 1.272 . S
O567 Zn557 1.910 . S
O567 C573 1.231 . S
C568 O552 1.225 . S
C568 O574 1.298 . S
C569 O558 1.226 . S
C569 O559 1.307 . S
C570 O562 1.303 . S
C570 O563 1.247 . S
C571 O560 1.253 . S
C571 O561 1.283 . S
C572 O564 1.304 . S
C572 O566 1.272 . S
C573 O565 1.311 . S
C573 O567 1.231 . S
O574 Zn556 1.953 . S
O574 C568 1.298 . S
O575 Zn576 1.953 . S
O575 C591 1.225 . S
Zn576 O575 1.953 . S
Zn576 O577 1.949 . S
Zn576 O583 1.919 . S
Zn576 O588 1.924 . S
O577 Zn576 1.949 . S
O577 Zn578 1.923 . S
O577 Zn579 1.950 . S
O577 Zn580 1.945 . S
Zn578 O577 1.923 . S
Zn578 O581 1.933 . S
Zn578 O584 1.941 . S
Zn578 O585 1.965 . S
Zn579 O577 1.950 . S
Zn579 O586 1.938 . S
Zn579 O587 1.906 . S
Zn579 O597 1.953 . S
Zn580 O577 1.945 . S
Zn580 O582 1.932 . S
Zn580 O589 1.977 . S
Zn580 O590 1.910 . S
O581 Zn578 1.933 . S
O581 C592 1.226 . S
O582 Zn580 1.932 . S
O582 C592 1.307 . S
O583 Zn576 1.919 . S
O583 C594 1.253 . S
O584 Zn578 1.941 . S
O584 C594 1.283 . S
O585 Zn578 1.965 . S
O585 C593 1.303 . S
O586 Zn579 1.938 . S
O586 C593 1.247 . S
O587 Zn579 1.906 . S
O587 C595 1.304 . S
O588 Zn576 1.924 . S
O588 C596 1.311 . S
O589 Zn580 1.977 . S
O589 C595 1.272 . S
O590 Zn580 1.910 . S
O590 C596 1.231 . S
C591 O575 1.225 . S
C591 O597 1.298 . S
C592 O581 1.226 . S
C592 O582 1.307 . S
C593 O585 1.303 . S
C593 O586 1.247 . S
C594 O583 1.253 . S
C594 O584 1.283 . S
C595 O587 1.304 . S
C595 O589 1.272 . S
C596 O588 1.311 . S
C596 O590 1.231 . S
O597 Zn579 1.953 . S
O597 C591 1.298 . S
O598 Zn599 1.953 . S
O598 C614 1.225 . S
Zn599 O598 1.953 . S
Zn599 O600 1.949 . S
Zn599 O606 1.919 . S
Zn599 O611 1.924 . S
O600 Zn599 1.949 . S
O600 Zn601 1.923 . S
O600 Zn602 1.950 . S
O600 Zn603 1.945 . S
Zn601 O600 1.923 . S
Zn601 O604 1.933 . S
Zn601 O607 1.941 . S
Zn601 O608 1.965 . S
Zn602 O600 1.950 . S
Zn602 O609 1.938 . S
Zn602 O610 1.906 . S
Zn602 O620 1.953 . S
Zn603 O600 1.945 . S
Zn603 O605 1.932 . S
Zn603 O612 1.977 . S
Zn603 O613 1.910 . S
O604 Zn601 1.933 . S
O604 C615 1.226 . S
O605 Zn603 1.932 . S
O605 C615 1.307 . S
O606 Zn599 1.919 . S
O606 C617 1.253 . S
O607 Zn601 1.941 . S
O607 C617 1.283 . S
O608 Zn601 1.965 . S
O608 C616 1.303 . S
O609 Zn602 1.938 . S
O609 C616 1.247 . S
O610 Zn602 1.906 . S
O610 C618 1.304 . S
O611 Zn599 1.924 . S
O611 C619 1.311 . S
O612 Zn603 1.977 . S
O612 C618 1.272 . S
O613 Zn603 1.910 . S
O613 C619 1.231 . S
C614 O598 1.225 . S
C614 O620 1.298 . S
C615 O604 1.226 . S
C615 O605 1.307 . S
C616 O608 1.303 . S
C616 O609 1.247 . S
C617 O606 1.253 . S
C617 O607 1.283 . S
C618 O610 1.304 . S
C618 O612 1.272 . S
C619 O611 1.311 . S
C619 O613 1.231 . S
O620 Zn602 1.953 . S
O620 C614 1.298 . S
O621 Zn622 1.953 1_556 S
O621 C637 1.225 . S
Zn622 O621 1.953 1_554 S
Zn622 O623 1.949 . S
Zn622 O629 1.919 . S
Zn622 O634 1.924 . S
O623 Zn622 1.949 . S
O623 Zn624 1.923 . S
O623 Zn625 1.950 . S
O623 Zn626 1.945 . S
Zn624 O623 1.923 . S
Zn624 O627 1.933 . S
Zn624 O630 1.941 . S
Zn624 O631 1.965 . S
Zn625 O623 1.950 . S
Zn625 O632 1.938 . S
Zn625 O633 1.906 . S
Zn625 O643 1.953 . S
Zn626 O623 1.945 . S
Zn626 O628 1.932 . S
Zn626 O635 1.977 . S
Zn626 O636 1.910 . S
O627 Zn624 1.933 . S
O627 C638 1.226 . S
O628 Zn626 1.932 . S
O628 C638 1.307 . S
O629 Zn622 1.919 . S
O629 C640 1.253 . S
O630 Zn624 1.941 . S
O630 C640 1.283 . S
O631 Zn624 1.965 . S
O631 C639 1.303 . S
O632 Zn625 1.938 . S
O632 C639 1.247 . S
O633 Zn625 1.906 . S
O633 C641 1.304 . S
O634 Zn622 1.924 . S
O634 C642 1.311 . S
O635 Zn626 1.977 . S
O635 C641 1.272 . S
O636 Zn626 1.910 . S
O636 C642 1.231 . S
C637 O621 1.225 . S
C637 O643 1.298 1_556 S
C638 O627 1.226 . S
C638 O628 1.307 . S
C639 O631 1.303 . S
C639 O632 1.247 . S
C640 O629 1.253 . S
C640 O630 1.283 . S
C641 O633 1.304 . S
C641 O635 1.272 . S
C642 O634 1.311 . S
C642 O636 1.231 . S
O643 Zn625 1.953 . S
O643 C637 1.298 1_554 S
O644 Zn645 1.953 1_556 S
O644 C660 1.225 . S
Zn645 O644 1.953 1_554 S
Zn645 O646 1.949 . S
Zn645 O652 1.919 . S
Zn645 O657 1.924 . S
O646 Zn645 1.949 . S
O646 Zn647 1.923 . S
O646 Zn648 1.950 . S
O646 Zn649 1.945 . S
Zn647 O646 1.923 . S
Zn647 O650 1.933 . S
Zn647 O653 1.941 . S
Zn647 O654 1.965 . S
Zn648 O646 1.950 . S
Zn648 O655 1.938 . S
Zn648 O656 1.906 . S
Zn648 O666 1.953 . S
Zn649 O646 1.945 . S
Zn649 O651 1.932 . S
Zn649 O658 1.977 . S
Zn649 O659 1.910 . S
O650 Zn647 1.933 . S
O650 C661 1.226 . S
O651 Zn649 1.932 . S
O651 C661 1.307 . S
O652 Zn645 1.919 . S
O652 C663 1.253 . S
O653 Zn647 1.941 . S
O653 C663 1.283 . S
O654 Zn647 1.965 . S
O654 C662 1.303 . S
O655 Zn648 1.938 . S
O655 C662 1.247 . S
O656 Zn648 1.906 . S
O656 C664 1.304 . S
O657 Zn645 1.924 . S
O657 C665 1.311 . S
O658 Zn649 1.977 . S
O658 C664 1.272 . S
O659 Zn649 1.910 . S
O659 C665 1.231 . S
C660 O644 1.225 . S
C660 O666 1.298 1_556 S
C661 O650 1.226 . S
C661 O651 1.307 . S
C662 O654 1.303 . S
C662 O655 1.247 . S
C663 O652 1.253 . S
C663 O653 1.283 . S
C664 O656 1.304 . S
C664 O658 1.272 . S
C665 O657 1.311 . S
C665 O659 1.231 . S
O666 Zn648 1.953 . S
O666 C660 1.298 1_554 S
O667 Zn668 1.953 1_556 S
O667 C683 1.225 . S
Zn668 O667 1.953 1_554 S
Zn668 O669 1.949 . S
Zn668 O675 1.919 . S
Zn668 O680 1.924 . S
O669 Zn668 1.949 . S
O669 Zn670 1.923 . S
O669 Zn671 1.950 . S
O669 Zn672 1.945 . S
Zn670 O669 1.923 . S
Zn670 O673 1.933 . S
Zn670 O676 1.941 . S
Zn670 O677 1.965 . S
Zn671 O669 1.950 . S
Zn671 O678 1.938 . S
Zn671 O679 1.906 . S
Zn671 O689 1.953 . S
Zn672 O669 1.945 . S
Zn672 O674 1.932 . S
Zn672 O681 1.977 . S
Zn672 O682 1.910 . S
O673 Zn670 1.933 . S
O673 C684 1.226 . S
O674 Zn672 1.932 . S
O674 C684 1.307 . S
O675 Zn668 1.919 . S
O675 C686 1.253 . S
O676 Zn670 1.941 . S
O676 C686 1.283 . S
O677 Zn670 1.965 . S
O677 C685 1.303 . S
O678 Zn671 1.938 . S
O678 C685 1.247 . S
O679 Zn671 1.906 . S
O679 C687 1.304 . S
O680 Zn668 1.924 . S
O680 C688 1.311 . S
O681 Zn672 1.977 . S
O681 C687 1.272 . S
O682 Zn672 1.910 . S
O682 C688 1.231 . S
C683 O667 1.225 . S
C683 O689 1.298 1_556 S
C684 O673 1.226 . S
C684 O674 1.307 . S
C685 O677 1.303 . S
C685 O678 1.247 . S
C686 O675 1.253 . S
C686 O676 1.283 . S
C687 O679 1.304 . S
C687 O681 1.272 . S
C688 O680 1.311 . S
C688 O682 1.231 . S
O689 Zn671 1.953 . S
O689 C683 1.298 1_554 S
O690 Zn691 1.953 . S
O690 C706 1.225 . S
Zn691 O690 1.953 . S
Zn691 O692 1.949 . S
Zn691 O698 1.919 . S
Zn691 O703 1.924 . S
O692 Zn691 1.949 . S
O692 Zn693 1.923 . S
O692 Zn694 1.950 . S
O692 Zn695 1.945 . S
Zn693 O692 1.923 . S
Zn693 O696 1.933 . S
Zn693 O699 1.941 . S
Zn693 O700 1.965 . S
Zn694 O692 1.950 . S
Zn694 O701 1.938 . S
Zn694 O702 1.906 . S
Zn694 O712 1.953 . S
Zn695 O692 1.945 . S
Zn695 O697 1.932 . S
Zn695 O704 1.977 . S
Zn695 O705 1.910 . S
O696 Zn693 1.933 . S
O696 C707 1.226 . S
O697 Zn695 1.932 . S
O697 C707 1.307 . S
O698 Zn691 1.919 . S
O698 C709 1.253 . S
O699 Zn693 1.941 . S
O699 C709 1.283 . S
O700 Zn693 1.965 . S
O700 C708 1.303 . S
O701 Zn694 1.938 . S
O701 C708 1.247 . S
O702 Zn694 1.906 . S
O702 C710 1.304 . S
O703 Zn691 1.924 . S
O703 C711 1.311 . S
O704 Zn695 1.977 . S
O704 C710 1.272 . S
O705 Zn695 1.910 . S
O705 C711 1.231 . S
C706 O690 1.225 . S
C706 O712 1.298 . S
C707 O696 1.226 . S
C707 O697 1.307 . S
C708 O700 1.303 . S
C708 O701 1.247 . S
C709 O698 1.253 . S
C709 O699 1.283 . S
C710 O702 1.304 . S
C710 O704 1.272 . S
C711 O703 1.311 . S
C711 O705 1.231 . S
O712 Zn694 1.953 . S
O712 C706 1.298 . S
O713 Zn714 1.953 . S
O713 C729 1.225 . S
Zn714 O713 1.953 . S
Zn714 O715 1.949 . S
Zn714 O721 1.919 . S
Zn714 O726 1.924 . S
O715 Zn714 1.949 . S
O715 Zn716 1.923 . S
O715 Zn717 1.950 . S
O715 Zn718 1.945 . S
Zn716 O715 1.923 . S
Zn716 O719 1.933 . S
Zn716 O722 1.941 . S
Zn716 O723 1.965 . S
Zn717 O715 1.950 . S
Zn717 O724 1.938 . S
Zn717 O725 1.906 . S
Zn717 O735 1.953 . S
Zn718 O715 1.945 . S
Zn718 O720 1.932 . S
Zn718 O727 1.977 . S
Zn718 O728 1.910 . S
O719 Zn716 1.933 . S
O719 C730 1.226 . S
O720 Zn718 1.932 . S
O720 C730 1.307 . S
O721 Zn714 1.919 . S
O721 C732 1.253 . S
O722 Zn716 1.941 . S
O722 C732 1.283 . S
O723 Zn716 1.965 . S
O723 C731 1.303 . S
O724 Zn717 1.938 . S
O724 C731 1.247 . S
O725 Zn717 1.906 . S
O725 C733 1.304 . S
O726 Zn714 1.924 . S
O726 C734 1.311 . S
O727 Zn718 1.977 . S
O727 C733 1.272 . S
O728 Zn718 1.910 . S
O728 C734 1.231 . S
C729 O713 1.225 . S
C729 O735 1.298 . S
C730 O719 1.226 . S
C730 O720 1.307 . S
C731 O723 1.303 . S
C731 O724 1.247 . S
C732 O721 1.253 . S
C732 O722 1.283 . S
C733 O725 1.304 . S
C733 O727 1.272 . S
C734 O726 1.311 . S
C734 O728 1.231 . S
O735 Zn717 1.953 . S
O735 C729 1.298 . S
O736 Zn737 1.953 . S
O736 C752 1.225 . S
Zn737 O736 1.953 . S
Zn737 O738 1.949 . S
Zn737 O744 1.919 . S
Zn737 O749 1.924 . S
O738 Zn737 1.949 . S
O738 Zn739 1.923 . S
O738 Zn740 1.950 . S
O738 Zn741 1.945 . S
Zn739 O738 1.923 . S
Zn739 O742 1.933 . S
Zn739 O745 1.941 . S
Zn739 O746 1.965 . S
Zn740 O738 1.950 . S
Zn740 O747 1.938 . S
Zn740 O748 1.906 . S
Zn740 O758 1.953 . S
Zn741 O738 1.945 . S
Zn741 O743 1.932 . S
Zn741 O750 1.977 . S
Zn741 O751 1.910 . S
O742 Zn739 1.933 . S
O742 C753 1.226 . S
O743 Zn741 1.932 . S
O743 C753 1.307 . S
O744 Zn737 1.919 . S
O744 C755 1.253 . S
O745 Zn739 1.941 . S
O745 C755 1.283 . S
O746 Zn739 1.965 . S
O746 C754 1.303 . S
O747 Zn740 1.938 . S
O747 C754 1.247 . S
O748 Zn740 1.906 . S
O748 C756 1.304 . S
O749 Zn737 1.924 . S
O749 C757 1.311 . S
O750 Zn741 1.977 . S
O750 C756 1.272 . S
O751 Zn741 1.910 . S
O751 C757 1.231 . S
C752 O736 1.225 . S
C752 O758 1.298 . S
C753 O742 1.226 . S
C753 O743 1.307 . S
C754 O746 1.303 . S
C754 O747 1.247 . S
C755 O744 1.253 . S
C755 O745 1.283 . S
C756 O748 1.304 . S
C756 O750 1.272 . S
C757 O749 1.311 . S
C757 O751 1.231 . S
O758 Zn740 1.953 . S
O758 C752 1.298 . S
O759 Zn760 1.953 . S
O759 C775 1.225 . S
Zn760 O759 1.953 . S
Zn760 O761 1.949 . S
Zn760 O767 1.919 . S
Zn760 O772 1.924 . S
O761 Zn760 1.949 . S
O761 Zn762 1.923 . S
O761 Zn763 1.950 . S
O761 Zn764 1.945 . S
Zn762 O761 1.923 . S
Zn762 O765 1.933 . S
Zn762 O768 1.941 . S
Zn762 O769 1.965 . S
Zn763 O761 1.950 . S
Zn763 O770 1.938 . S
Zn763 O771 1.906 . S
Zn763 O781 1.953 . S
Zn764 O761 1.945 . S
Zn764 O766 1.932 . S
Zn764 O773 1.977 . S
Zn764 O774 1.910 . S
O765 Zn762 1.933 . S
O765 C776 1.226 . S
O766 Zn764 1.932 . S
O766 C776 1.307 . S
O767 Zn760 1.919 . S
O767 C778 1.253 . S
O768 Zn762 1.941 . S
O768 C778 1.283 . S
O769 Zn762 1.965 . S
O769 C777 1.303 . S
O770 Zn763 1.938 . S
O770 C777 1.247 . S
O771 Zn763 1.906 . S
O771 C779 1.304 . S
O772 Zn760 1.924 . S
O772 C780 1.311 . S
O773 Zn764 1.977 . S
O773 C779 1.272 . S
O774 Zn764 1.910 . S
O774 C780 1.231 . S
C775 O759 1.225 . S
C775 O781 1.298 . S
C776 O765 1.226 . S
C776 O766 1.307 . S
C777 O769 1.303 . S
C777 O770 1.247 . S
C778 O767 1.253 . S
C778 O768 1.283 . S
C779 O771 1.304 . S
C779 O773 1.272 . S
C780 O772 1.311 . S
C780 O774 1.231 . S
O781 Zn763 1.953 . S
O781 C775 1.298 . S
O782 Zn783 1.953 . S
O782 C798 1.225 . S
Zn783 O782 1.953 . S
Zn783 O784 1.949 . S
Zn783 O790 1.919 . S
Zn783 O795 1.924 . S
O784 Zn783 1.949 . S
O784 Zn785 1.923 . S
O784 Zn786 1.950 . S
O784 Zn787 1.945 . S
Zn785 O784 1.923 . S
Zn785 O788 1.933 . S
Zn785 O791 1.941 . S
Zn785 O792 1.965 . S
Zn786 O784 1.950 . S
Zn786 O793 1.938 . S
Zn786 O794 1.906 . S
Zn786 O804 1.953 . S
Zn787 O784 1.945 . S
Zn787 O789 1.932 . S
Zn787 O796 1.977 . S
Zn787 O797 1.910 . S
O788 Zn785 1.933 . S
O788 C799 1.226 . S
O789 Zn787 1.932 . S
O789 C799 1.307 . S
O790 Zn783 1.919 . S
O790 C801 1.253 . S
O791 Zn785 1.941 . S
O791 C801 1.283 . S
O792 Zn785 1.965 . S
O792 C800 1.303 . S
O793 Zn786 1.938 . S
O793 C800 1.247 . S
O794 Zn786 1.906 . S
O794 C802 1.304 . S
O795 Zn783 1.924 . S
O795 C803 1.311 . S
O796 Zn787 1.977 . S
O796 C802 1.272 . S
O797 Zn787 1.910 . S
O797 C803 1.231 . S
C798 O782 1.225 . S
C798 O804 1.298 . S
C799 O788 1.226 . S
C799 O789 1.307 . S
C800 O792 1.303 . S
C800 O793 1.247 . S
C801 O790 1.253 . S
C801 O791 1.283 . S
C802 O794 1.304 . S
C802 O796 1.272 . S
C803 O795 1.311 . S
C803 O797 1.231 . S
O804 Zn786 1.953 . S
O804 C798 1.298 . S
O805 Zn806 1.953 . S
O805 C821 1.225 . S
Zn806 O805 1.953 . S
Zn806 O807 1.949 . S
Zn806 O813 1.919 . S
Zn806 O818 1.924 . S
O807 Zn806 1.949 . S
O807 Zn808 1.923 . S
O807 Zn809 1.950 . S
O807 Zn810 1.945 . S
Zn808 O807 1.923 . S
Zn808 O811 1.933 . S
Zn808 O814 1.941 . S
Zn808 O815 1.965 . S
Zn809 O807 1.950 . S
Zn809 O816 1.938 . S
Zn809 O817 1.906 . S
Zn809 O827 1.953 . S
Zn810 O807 1.945 . S
Zn810 O812 1.932 . S
Zn810 O819 1.977 . S
Zn810 O820 1.910 . S
O811 Zn808 1.933 . S
O811 C822 1.226 . S
O812 Zn810 1.932 . S
O812 C822 1.307 . S
O813 Zn806 1.919 . S
O813 C824 1.253 . S
O814 Zn808 1.941 . S
O814 C824 1.283 . S
O815 Zn808 1.965 . S
O815 C823 1.303 . S
O816 Zn809 1.938 . S
O816 C823 1.247 . S
O817 Zn809 1.906 . S
O817 C825 1.304 . S
O818 Zn806 1.924 . S
O818 C826 1.311 . S
O819 Zn810 1.977 . S
O819 C825 1.272 . S
O820 Zn810 1.910 . S
O820 C826 1.231 . S
C821 O805 1.225 . S
C821 O827 1.298 . S
C822 O811 1.226 . S
C822 O812 1.307 . S
C823 O815 1.303 . S
C823 O816 1.247 . S
C824 O813 1.253 . S
C824 O814 1.283 . S
C825 O817 1.304 . S
C825 O819 1.272 . S
C826 O818 1.311 . S
C826 O820 1.231 . S
O827 Zn809 1.953 . S
O827 C821 1.298 . S
C828 C829 1.369 . S
C828 C830 1.419 . S
C828 H832 0.930 . S
C829 C828 1.369 . S
C829 C838 1.429 . S
C830 C828 1.419 . S
C830 C831 1.363 . S
C830 H833 0.929 . S
C831 C830 1.363 . S
C831 C837 1.428 . S
H832 C828 0.930 . S
H833 C830 0.929 . S
S834 N835 1.613 . S
S834 N836 1.610 . S
N835 S834 1.613 . S
N835 C838 1.350 . S
N836 S834 1.610 . S
N836 C837 1.351 . S
C837 C831 1.428 . S
C837 N836 1.351 . S
C837 C838 1.434 . S
C838 C829 1.429 . S
C838 N835 1.350 . S
C838 C837 1.434 . S
C839 C840 1.369 1_565 S
C839 C841 1.419 . S
C839 H843 0.930 . S
C840 C839 1.369 1_545 S
C840 C849 1.429 . S
C841 C839 1.419 . S
C841 C842 1.363 . S
C841 H844 0.929 . S
C842 C841 1.363 . S
C842 C848 1.428 1_565 S
H843 C839 0.930 . S
H844 C841 0.929 . S
S845 N846 1.613 . S
S845 N847 1.610 . S
N846 S845 1.613 . S
N846 C849 1.350 . S
N847 S845 1.610 . S
N847 C848 1.351 . S
C848 C842 1.428 1_545 S
C848 N847 1.351 . S
C848 C849 1.434 . S
C849 C840 1.429 . S
C849 N846 1.350 . S
C849 C848 1.434 . S
C850 C851 1.369 1_655 S
C850 C852 1.419 . S
C850 H854 0.930 . S
C851 C850 1.369 1_455 S
C851 C860 1.429 . S
C852 C850 1.419 . S
C852 C853 1.363 . S
C852 H855 0.929 . S
C853 C852 1.363 . S
C853 C859 1.428 1_655 S
H854 C850 0.930 . S
H855 C852 0.929 . S
S856 N857 1.613 . S
S856 N858 1.610 . S
N857 S856 1.613 . S
N857 C860 1.350 . S
N858 S856 1.610 . S
N858 C859 1.351 . S
C859 C853 1.428 1_455 S
C859 N858 1.351 . S
C859 C860 1.434 . S
C860 C851 1.429 . S
C860 N857 1.350 . S
C860 C859 1.434 . S
C861 C862 1.369 . S
C861 C863 1.419 . S
C861 H865 0.930 . S
C862 C861 1.369 . S
C862 C871 1.429 . S
C863 C861 1.419 . S
C863 C864 1.363 . S
C863 H866 0.929 . S
C864 C863 1.363 . S
C864 C870 1.428 . S
H865 C861 0.930 . S
H866 C863 0.929 . S
S867 N868 1.613 . S
S867 N869 1.610 . S
N868 S867 1.613 . S
N868 C871 1.350 . S
N869 S867 1.610 . S
N869 C870 1.351 . S
C870 C864 1.428 . S
C870 N869 1.351 . S
C870 C871 1.434 . S
C871 C862 1.429 . S
C871 N868 1.350 . S
C871 C870 1.434 . S
C872 C873 1.369 . S
C872 C874 1.419 . S
C872 H876 0.930 . S
C873 C872 1.369 . S
C873 C882 1.429 1_565 S
C874 C872 1.419 . S
C874 C875 1.363 1_565 S
C874 H877 0.929 . S
C875 C874 1.363 1_545 S
C875 C881 1.428 . S
H876 C872 0.930 . S
H877 C874 0.929 . S
S878 N879 1.613 . S
S878 N880 1.610 . S
N879 S878 1.613 . S
N879 C882 1.350 . S
N880 S878 1.610 . S
N880 C881 1.351 . S
C881 C875 1.428 . S
C881 N880 1.351 . S
C881 C882 1.434 . S
C882 C873 1.429 1_545 S
C882 N879 1.350 . S
C882 C881 1.434 . S
C883 C884 1.369 1_655 S
C883 C885 1.419 . S
C883 H887 0.930 . S
C884 C883 1.369 1_455 S
C884 C893 1.429 . S
C885 C883 1.419 . S
C885 C886 1.363 . S
C885 H888 0.929 . S
C886 C885 1.363 . S
C886 C892 1.428 1_655 S
H887 C883 0.930 . S
H888 C885 0.929 . S
S889 N890 1.613 . S
S889 N891 1.610 . S
N890 S889 1.613 . S
N890 C893 1.350 . S
N891 S889 1.610 . S
N891 C892 1.351 . S
C892 C886 1.428 1_455 S
C892 N891 1.351 . S
C892 C893 1.434 . S
C893 C884 1.429 . S
C893 N890 1.350 . S
C893 C892 1.434 . S
C894 C895 1.369 . S
C894 C896 1.419 . S
C894 H898 0.930 . S
C895 C894 1.369 . S
C895 C904 1.429 . S
C896 C894 1.419 . S
C896 C897 1.363 . S
C896 H899 0.929 . S
C897 C896 1.363 . S
C897 C903 1.428 . S
H898 C894 0.930 . S
H899 C896 0.929 . S
S900 N901 1.613 . S
S900 N902 1.610 . S
N901 S900 1.613 . S
N901 C904 1.350 . S
N902 S900 1.610 . S
N902 C903 1.351 . S
C903 C897 1.428 . S
C903 N902 1.351 . S
C903 C904 1.434 . S
C904 C895 1.429 . S
C904 N901 1.350 . S
C904 C903 1.434 . S
C905 C906 1.369 . S
C905 C907 1.419 . S
C905 H909 0.930 . S
C906 C905 1.369 . S
C906 C915 1.429 . S
C907 C905 1.419 . S
C907 C908 1.363 . S
C907 H910 0.929 . S
C908 C907 1.363 . S
C908 C914 1.428 . S
H909 C905 0.930 . S
H910 C907 0.929 . S
S911 N912 1.613 . S
S911 N913 1.610 . S
N912 S911 1.613 . S
N912 C915 1.350 . S
N913 S911 1.610 . S
N913 C914 1.351 . S
C914 C908 1.428 . S
C914 N913 1.351 . S
C914 C915 1.434 . S
C915 C906 1.429 . S
C915 N912 1.350 . S
C915 C914 1.434 . S
C916 C917 1.369 . S
C916 C918 1.419 . S
C916 H920 0.930 . S
C917 C916 1.369 . S
C917 C926 1.429 . S
C918 C916 1.419 . S
C918 C919 1.363 . S
C918 H921 0.929 . S
C919 C918 1.363 . S
C919 C925 1.428 . S
H920 C916 0.930 . S
H921 C918 0.929 . S
S922 N923 1.613 . S
S922 N924 1.610 . S
N923 S922 1.613 . S
N923 C926 1.350 . S
N924 S922 1.610 . S
N924 C925 1.351 . S
C925 C919 1.428 . S
C925 N924 1.351 . S
C925 C926 1.434 . S
C926 C917 1.429 . S
C926 N923 1.350 . S
C926 C925 1.434 . S
C927 C928 1.369 . S
C927 C929 1.419 . S
C927 H931 0.930 . S
C928 C927 1.369 . S
C928 C937 1.429 . S
C929 C927 1.419 . S
C929 C930 1.363 . S
C929 H932 0.929 . S
C930 C929 1.363 . S
C930 C936 1.428 . S
H931 C927 0.930 . S
H932 C929 0.929 . S
S933 N934 1.613 . S
S933 N935 1.610 . S
N934 S933 1.613 . S
N934 C937 1.350 . S
N935 S933 1.610 . S
N935 C936 1.351 . S
C936 C930 1.428 . S
C936 N935 1.351 . S
C936 C937 1.434 . S
C937 C928 1.429 . S
C937 N934 1.350 . S
C937 C936 1.434 . S
C938 C939 1.369 . S
C938 C940 1.419 . S
C938 H942 0.930 . S
C939 C938 1.369 . S
C939 C948 1.429 . S
C940 C938 1.419 . S
C940 C941 1.363 . S
C940 H943 0.929 . S
C941 C940 1.363 . S
C941 C947 1.428 . S
H942 C938 0.930 . S
H943 C940 0.929 . S
S944 N945 1.613 . S
S944 N946 1.610 . S
N945 S944 1.613 . S
N945 C948 1.350 . S
N946 S944 1.610 . S
N946 C947 1.351 . S
C947 C941 1.428 . S
C947 N946 1.351 . S
C947 C948 1.434 . S
C948 C939 1.429 . S
C948 N945 1.350 . S
C948 C947 1.434 . S
C949 C950 1.369 . S
C949 C951 1.419 . S
C949 H953 0.930 . S
C950 C949 1.369 . S
C950 C959 1.429 . S
C951 C949 1.419 . S
C951 C952 1.363 . S
C951 H954 0.929 . S
C952 C951 1.363 . S
C952 C958 1.428 . S
H953 C949 0.930 . S
H954 C951 0.929 . S
S955 N956 1.613 . S
S955 N957 1.610 . S
N956 S955 1.613 . S
N956 C959 1.350 . S
N957 S955 1.610 . S
N957 C958 1.351 . S
C958 C952 1.428 . S
C958 N957 1.351 . S
C958 C959 1.434 . S
C959 C950 1.429 . S
C959 N956 1.350 . S
C959 C958 1.434 . S
C960 C961 1.369 . S
C960 C962 1.419 . S
C960 H964 0.930 . S
C961 C960 1.369 . S
C961 C970 1.429 . S
C962 C960 1.419 . S
C962 C963 1.363 . S
C962 H965 0.929 . S
C963 C962 1.363 . S
C963 C969 1.428 . S
H964 C960 0.930 . S
H965 C962 0.929 . S
S966 N967 1.613 . S
S966 N968 1.610 . S
N967 S966 1.613 . S
N967 C970 1.350 . S
N968 S966 1.610 . S
N968 C969 1.351 . S
C969 C963 1.428 . S
C969 N968 1.351 . S
C969 C970 1.434 . S
C970 C961 1.429 . S
C970 N967 1.350 . S
C970 C969 1.434 . S
C971 C972 1.369 . S
C971 C973 1.419 . S
C971 H975 0.930 . S
C972 C971 1.369 . S
C972 C981 1.429 . S
C973 C971 1.419 . S
C973 C974 1.363 . S
C973 H976 0.929 . S
C974 C973 1.363 . S
C974 C980 1.428 . S
H975 C971 0.930 . S
H976 C973 0.929 . S
S977 N978 1.613 . S
S977 N979 1.610 . S
N978 S977 1.613 . S
N978 C981 1.350 . S
N979 S977 1.610 . S
N979 C980 1.351 . S
C980 C974 1.428 . S
C980 N979 1.351 . S
C980 C981 1.434 . S
C981 C972 1.429 . S
C981 N978 1.350 . S
C981 C980 1.434 . S
C982 C983 1.369 . S
C982 C984 1.419 . S
C982 H986 0.930 . S
C983 C982 1.369 . S
C983 C992 1.429 . S
C984 C982 1.419 . S
C984 C985 1.363 . S
C984 H987 0.929 . S
C985 C984 1.363 . S
C985 C991 1.428 . S
H986 C982 0.930 . S
H987 C984 0.929 . S
S988 N989 1.613 . S
S988 N990 1.610 . S
N989 S988 1.613 . S
N989 C992 1.350 . S
N990 S988 1.610 . S
N990 C991 1.351 . S
C991 C985 1.428 . S
C991 N990 1.351 . S
C991 C992 1.434 . S
C992 C983 1.429 . S
C992 N989 1.350 . S
C992 C991 1.434 . S
C993 C994 1.369 . S
C993 C995 1.419 . S
C993 H997 0.930 . S
C994 C993 1.369 . S
C994 C1003 1.429 . S
C995 C993 1.419 . S
C995 C996 1.363 . S
C995 H998 0.929 . S
C996 C995 1.363 . S
C996 C1002 1.428 . S
H997 C993 0.930 . S
H998 C995 0.929 . S
S999 N1000 1.613 . S
S999 N1001 1.610 . S
N1000 S999 1.613 . S
N1000 C1003 1.350 . S
N1001 S999 1.610 . S
N1001 C1002 1.351 . S
C1002 C996 1.428 . S
C1002 N1001 1.351 . S
C1002 C1003 1.434 . S
C1003 C994 1.429 . S
C1003 N1000 1.350 . S
C1003 C1002 1.434 . S
C1004 C1005 1.369 . S
C1004 C1006 1.419 . S
C1004 H1008 0.930 . S
C1005 C1004 1.369 . S
C1005 C1014 1.429 . S
C1006 C1004 1.419 . S
C1006 C1007 1.363 . S
C1006 H1009 0.929 . S
C1007 C1006 1.363 . S
C1007 C1013 1.428 . S
H1008 C1004 0.930 . S
H1009 C1006 0.929 . S
S1010 N1011 1.613 . S
S1010 N1012 1.610 . S
N1011 S1010 1.613 . S
N1011 C1014 1.350 . S
N1012 S1010 1.610 . S
N1012 C1013 1.351 . S
C1013 C1007 1.428 . S
C1013 N1012 1.351 . S
C1013 C1014 1.434 . S
C1014 C1005 1.429 . S
C1014 N1011 1.350 . S
C1014 C1013 1.434 . S
C1015 C1016 1.369 . S
C1015 C1017 1.419 . S
C1015 H1019 0.930 . S
C1016 C1015 1.369 . S
C1016 C1025 1.429 . S
C1017 C1015 1.419 . S
C1017 C1018 1.363 . S
C1017 H1020 0.929 . S
C1018 C1017 1.363 . S
C1018 C1024 1.428 . S
H1019 C1015 0.930 . S
H1020 C1017 0.929 . S
S1021 N1022 1.613 . S
S1021 N1023 1.610 . S
N1022 S1021 1.613 . S
N1022 C1025 1.350 . S
N1023 S1021 1.610 . S
N1023 C1024 1.351 . S
C1024 C1018 1.428 . S
C1024 N1023 1.351 . S
C1024 C1025 1.434 . S
C1025 C1016 1.429 . S
C1025 N1022 1.350 . S
C1025 C1024 1.434 . S
C1026 C1027 1.369 . S
C1026 C1028 1.419 . S
C1026 H1030 0.930 . S
C1027 C1026 1.369 . S
C1027 C1036 1.429 . S
C1028 C1026 1.419 . S
C1028 C1029 1.363 . S
C1028 H1031 0.929 . S
C1029 C1028 1.363 . S
C1029 C1035 1.428 . S
H1030 C1026 0.930 . S
H1031 C1028 0.929 . S
S1032 N1033 1.613 . S
S1032 N1034 1.610 . S
N1033 S1032 1.613 . S
N1033 C1036 1.350 . S
N1034 S1032 1.610 . S
N1034 C1035 1.351 . S
C1035 C1029 1.428 . S
C1035 N1034 1.351 . S
C1035 C1036 1.434 . S
C1036 C1027 1.429 . S
C1036 N1033 1.350 . S
C1036 C1035 1.434 . S
C1037 C1038 1.369 . S
C1037 C1039 1.419 . S
C1037 H1041 0.930 . S
C1038 C1037 1.369 . S
C1038 C1047 1.429 . S
C1039 C1037 1.419 . S
C1039 C1040 1.363 . S
C1039 H1042 0.929 . S
C1040 C1039 1.363 . S
C1040 C1046 1.428 . S
H1041 C1037 0.930 . S
H1042 C1039 0.929 . S
S1043 N1044 1.613 . S
S1043 N1045 1.610 . S
N1044 S1043 1.613 . S
N1044 C1047 1.350 . S
N1045 S1043 1.610 . S
N1045 C1046 1.351 . S
C1046 C1040 1.428 . S
C1046 N1045 1.351 . S
C1046 C1047 1.434 . S
C1047 C1038 1.429 . S
C1047 N1044 1.350 . S
C1047 C1046 1.434 . S
C1048 C1049 1.369 . S
C1048 C1050 1.419 . S
C1048 H1052 0.930 . S
C1049 C1048 1.369 . S
C1049 C1058 1.429 . S
C1050 C1048 1.419 . S
C1050 C1051 1.363 . S
C1050 H1053 0.929 . S
C1051 C1050 1.363 . S
C1051 C1057 1.428 . S
H1052 C1048 0.930 . S
H1053 C1050 0.929 . S
S1054 N1055 1.613 . S
S1054 N1056 1.610 . S
N1055 S1054 1.613 . S
N1055 C1058 1.350 . S
N1056 S1054 1.610 . S
N1056 C1057 1.351 . S
C1057 C1051 1.428 . S
C1057 N1056 1.351 . S
C1057 C1058 1.434 . S
C1058 C1049 1.429 . S
C1058 N1055 1.350 . S
C1058 C1057 1.434 . S
C1059 C1060 1.369 . S
C1059 C1061 1.419 . S
C1059 H1063 0.930 . S
C1060 C1059 1.369 . S
C1060 C1069 1.429 . S
C1061 C1059 1.419 . S
C1061 C1062 1.363 . S
C1061 H1064 0.929 . S
C1062 C1061 1.363 . S
C1062 C1068 1.428 . S
H1063 C1059 0.930 . S
H1064 C1061 0.929 . S
S1065 N1066 1.613 . S
S1065 N1067 1.610 . S
N1066 S1065 1.613 . S
N1066 C1069 1.350 . S
N1067 S1065 1.610 . S
N1067 C1068 1.351 . S
C1068 C1062 1.428 . S
C1068 N1067 1.351 . S
C1068 C1069 1.434 . S
C1069 C1060 1.429 . S
C1069 N1066 1.350 . S
C1069 C1068 1.434 . S
C1070 C1071 1.369 . S
C1070 C1072 1.419 . S
C1070 H1074 0.930 . S
C1071 C1070 1.369 . S
C1071 C1080 1.429 . S
C1072 C1070 1.419 . S
C1072 C1073 1.363 . S
C1072 H1075 0.929 . S
C1073 C1072 1.363 . S
C1073 C1079 1.428 . S
H1074 C1070 0.930 . S
H1075 C1072 0.929 . S
S1076 N1077 1.613 . S
S1076 N1078 1.610 . S
N1077 S1076 1.613 . S
N1077 C1080 1.350 . S
N1078 S1076 1.610 . S
N1078 C1079 1.351 . S
C1079 C1073 1.428 . S
C1079 N1078 1.351 . S
C1079 C1080 1.434 . S
C1080 C1071 1.429 . S
C1080 N1077 1.350 . S
C1080 C1079 1.434 . S
C1081 C1082 1.369 . S
C1081 C1083 1.419 . S
C1081 H1085 0.930 . S
C1082 C1081 1.369 . S
C1082 C1091 1.429 . S
C1083 C1081 1.419 . S
C1083 C1084 1.363 . S
C1083 H1086 0.929 . S
C1084 C1083 1.363 . S
C1084 C1090 1.428 . S
H1085 C1081 0.930 . S
H1086 C1083 0.929 . S
S1087 N1088 1.613 . S
S1087 N1089 1.610 . S
N1088 S1087 1.613 . S
N1088 C1091 1.350 . S
N1089 S1087 1.610 . S
N1089 C1090 1.351 . S
C1090 C1084 1.428 . S
C1090 N1089 1.351 . S
C1090 C1091 1.434 . S
C1091 C1082 1.429 . S
C1091 N1088 1.350 . S
C1091 C1090 1.434 . S
C1092 C1093 1.369 . S
C1092 C1094 1.419 . S
C1092 H1096 0.930 . S
C1093 C1092 1.369 . S
C1093 C1102 1.429 . S
C1094 C1092 1.419 . S
C1094 C1095 1.363 . S
C1094 H1097 0.929 . S
C1095 C1094 1.363 . S
C1095 C1101 1.428 . S
H1096 C1092 0.930 . S
H1097 C1094 0.929 . S
S1098 N1099 1.613 . S
S1098 N1100 1.610 . S
N1099 S1098 1.613 . S
N1099 C1102 1.350 . S
N1100 S1098 1.610 . S
N1100 C1101 1.351 . S
C1101 C1095 1.428 . S
C1101 N1100 1.351 . S
C1101 C1102 1.434 . S
C1102 C1093 1.429 . S
C1102 N1099 1.350 . S
C1102 C1101 1.434 . S
C1103 C1104 1.369 . S
C1103 C1105 1.419 . S
C1103 H1107 0.930 . S
C1104 C1103 1.369 . S
C1104 C1113 1.429 . S
C1105 C1103 1.419 . S
C1105 C1106 1.363 . S
C1105 H1108 0.929 . S
C1106 C1105 1.363 . S
C1106 C1112 1.428 . S
H1107 C1103 0.930 . S
H1108 C1105 0.929 . S
S1109 N1110 1.613 . S
S1109 N1111 1.610 . S
N1110 S1109 1.613 . S
N1110 C1113 1.350 . S
N1111 S1109 1.610 . S
N1111 C1112 1.351 . S
C1112 C1106 1.428 . S
C1112 N1111 1.351 . S
C1112 C1113 1.434 . S
C1113 C1104 1.429 . S
C1113 N1110 1.350 . S
C1113 C1112 1.434 . S
C1114 C1115 1.369 . S
C1114 C1116 1.419 . S
C1114 H1118 0.930 . S
C1115 C1114 1.369 . S
C1115 C1124 1.429 . S
C1116 C1114 1.419 . S
C1116 C1117 1.363 . S
C1116 H1119 0.929 . S
C1117 C1116 1.363 . S
C1117 C1123 1.428 . S
H1118 C1114 0.930 . S
H1119 C1116 0.929 . S
S1120 N1121 1.613 . S
S1120 N1122 1.610 . S
N1121 S1120 1.613 . S
N1121 C1124 1.350 . S
N1122 S1120 1.610 . S
N1122 C1123 1.351 . S
C1123 C1117 1.428 . S
C1123 N1122 1.351 . S
C1123 C1124 1.434 . S
C1124 C1115 1.429 . S
C1124 N1121 1.350 . S
C1124 C1123 1.434 . S
C1125 C1126 1.369 . S
C1125 C1127 1.419 . S
C1125 H1129 0.930 . S
C1126 C1125 1.369 . S
C1126 C1135 1.429 . S
C1127 C1125 1.419 . S
C1127 C1128 1.363 . S
C1127 H1130 0.929 . S
C1128 C1127 1.363 . S
C1128 C1134 1.428 . S
H1129 C1125 0.930 . S
H1130 C1127 0.929 . S
S1131 N1132 1.613 . S
S1131 N1133 1.610 . S
N1132 S1131 1.613 . S
N1132 C1135 1.350 . S
N1133 S1131 1.610 . S
N1133 C1134 1.351 . S
C1134 C1128 1.428 . S
C1134 N1133 1.351 . S
C1134 C1135 1.434 . S
C1135 C1126 1.429 . S
C1135 N1132 1.350 . S
C1135 C1134 1.434 . S
C1136 C1137 1.369 . S
C1136 C1138 1.419 . S
C1136 H1140 0.930 . S
C1137 C1136 1.369 . S
C1137 C1146 1.429 . S
C1138 C1136 1.419 . S
C1138 C1139 1.363 . S
C1138 H1141 0.929 . S
C1139 C1138 1.363 . S
C1139 C1145 1.428 . S
H1140 C1136 0.930 . S
H1141 C1138 0.929 . S
S1142 N1143 1.613 . S
S1142 N1144 1.610 . S
N1143 S1142 1.613 . S
N1143 C1146 1.350 . S
N1144 S1142 1.610 . S
N1144 C1145 1.351 . S
C1145 C1139 1.428 . S
C1145 N1144 1.351 . S
C1145 C1146 1.434 . S
C1146 C1137 1.429 . S
C1146 N1143 1.350 . S
C1146 C1145 1.434 . S
C1147 C1148 1.369 . S
C1147 C1149 1.419 . S
C1147 H1151 0.930 . S
C1148 C1147 1.369 . S
C1148 C1157 1.429 . S
C1149 C1147 1.419 . S
C1149 C1150 1.363 . S
C1149 H1152 0.929 . S
C1150 C1149 1.363 . S
C1150 C1156 1.428 . S
H1151 C1147 0.930 . S
H1152 C1149 0.929 . S
S1153 N1154 1.613 . S
S1153 N1155 1.610 . S
N1154 S1153 1.613 . S
N1154 C1157 1.350 . S
N1155 S1153 1.610 . S
N1155 C1156 1.351 . S
C1156 C1150 1.428 . S
C1156 N1155 1.351 . S
C1156 C1157 1.434 . S
C1157 C1148 1.429 . S
C1157 N1154 1.350 . S
C1157 C1156 1.434 . S
C1158 C1159 1.369 1_455 S
C1158 C1160 1.419 . S
C1158 H1162 0.930 . S
C1159 C1158 1.369 1_655 S
C1159 C1168 1.429 . S
C1160 C1158 1.419 . S
C1160 C1161 1.363 . S
C1160 H1163 0.929 . S
C1161 C1160 1.363 . S
C1161 C1167 1.428 1_455 S
H1162 C1158 0.930 . S
H1163 C1160 0.929 . S
S1164 N1165 1.613 . S
S1164 N1166 1.610 . S
N1165 S1164 1.613 . S
N1165 C1168 1.350 . S
N1166 S1164 1.610 . S
N1166 C1167 1.351 . S
C1167 C1161 1.428 1_655 S
C1167 N1166 1.351 . S
C1167 C1168 1.434 . S
C1168 C1159 1.429 . S
C1168 N1165 1.350 . S
C1168 C1167 1.434 . S
C1169 C1170 1.369 . S
C1169 C1171 1.419 . S
C1169 H1173 0.930 . S
C1170 C1169 1.369 . S
C1170 C1179 1.429 . S
C1171 C1169 1.419 . S
C1171 C1172 1.363 . S
C1171 H1174 0.929 . S
C1172 C1171 1.363 . S
C1172 C1178 1.428 . S
H1173 C1169 0.930 . S
H1174 C1171 0.929 . S
S1175 N1176 1.613 . S
S1175 N1177 1.610 . S
N1176 S1175 1.613 . S
N1176 C1179 1.350 . S
N1177 S1175 1.610 . S
N1177 C1178 1.351 . S
C1178 C1172 1.428 . S
C1178 N1177 1.351 . S
C1178 C1179 1.434 . S
C1179 C1170 1.429 . S
C1179 N1176 1.350 . S
C1179 C1178 1.434 . S
C1180 C1181 1.369 . S
C1180 C1182 1.419 1_565 S
C1180 H1184 0.930 . S
C1181 C1180 1.369 . S
C1181 C1190 1.429 . S
C1182 C1180 1.419 1_545 S
C1182 C1183 1.363 . S
C1182 H1185 0.929 . S
C1183 C1182 1.363 . S
C1183 C1189 1.428 . S
H1184 C1180 0.930 . S
H1185 C1182 0.929 . S
S1186 N1187 1.613 . S
S1186 N1188 1.610 1_565 S
N1187 S1186 1.613 . S
N1187 C1190 1.350 . S
N1188 S1186 1.610 1_545 S
N1188 C1189 1.351 . S
C1189 C1183 1.428 . S
C1189 N1188 1.351 . S
C1189 C1190 1.434 1_545 S
C1190 C1181 1.429 . S
C1190 N1187 1.350 . S
C1190 C1189 1.434 1_565 S
C1191 C1192 1.369 1_545 S
C1191 C1193 1.419 . S
C1191 H1195 0.930 . S
C1192 C1191 1.369 1_565 S
C1192 C1201 1.429 1_554 S
C1193 C1191 1.419 . S
C1193 C1194 1.363 1_554 S
C1193 H1196 0.929 . S
C1194 C1193 1.363 1_556 S
C1194 C1200 1.428 1_545 S
H1195 C1191 0.930 . S
H1196 C1193 0.929 . S
S1197 N1198 1.613 . S
S1197 N1199 1.610 . S
N1198 S1197 1.613 . S
N1198 C1201 1.350 . S
N1199 S1197 1.610 . S
N1199 C1200 1.351 . S
C1200 C1194 1.428 1_565 S
C1200 N1199 1.351 . S
C1200 C1201 1.434 . S
C1201 C1192 1.429 1_556 S
C1201 N1198 1.350 . S
C1201 C1200 1.434 . S
C1202 C1203 1.369 . S
C1202 C1204 1.419 1_454 S
C1202 H1206 0.930 . S
C1203 C1202 1.369 . S
C1203 C1212 1.429 . S
C1204 C1202 1.419 1_656 S
C1204 C1205 1.363 . S
C1204 H1207 0.929 . S
C1205 C1204 1.363 . S
C1205 C1211 1.428 . S
H1206 C1202 0.930 . S
H1207 C1204 0.929 . S
S1208 N1209 1.589 1_656 S
S1208 N1210 1.610 . S
N1209 S1208 1.589 1_454 S
N1209 C1212 1.366 . S
N1210 S1208 1.610 . S
N1210 C1211 1.351 . S
C1211 C1205 1.428 . S
C1211 N1210 1.351 . S
C1211 C1212 1.434 1_656 S
C1212 C1203 1.429 . S
C1212 N1209 1.366 . S
C1212 C1211 1.434 1_454 S
C1213 C1214 1.369 1_554 S
C1213 C1215 1.419 . S
C1213 H1217 0.930 . S
C1214 C1213 1.369 1_556 S
C1214 C1223 1.429 . S
C1215 C1213 1.419 . S
C1215 C1216 1.363 . S
C1215 H1218 0.929 . S
C1216 C1215 1.363 . S
C1216 C1222 1.428 1_554 S
H1217 C1213 0.930 . S
H1218 C1215 0.929 . S
S1219 N1220 1.613 . S
S1219 N1221 1.610 . S
N1220 S1219 1.613 . S
N1220 C1223 1.350 . S
N1221 S1219 1.610 . S
N1221 C1222 1.351 . S
C1222 C1216 1.428 1_556 S
C1222 N1221 1.351 . S
C1222 C1223 1.434 . S
C1223 C1214 1.429 . S
C1223 N1220 1.350 . S
C1223 C1222 1.434 . S
C1224 C1225 1.369 1_455 S
C1224 C1226 1.419 . S
C1224 H1228 0.930 . S
C1225 C1224 1.369 1_655 S
C1225 C1234 1.429 . S
C1226 C1224 1.419 . S
C1226 C1227 1.363 . S
C1226 H1229 0.929 . S
C1227 C1226 1.363 . S
C1227 C1233 1.428 . S
H1228 C1224 0.930 . S
H1229 C1226 0.929 . S
S1230 N1231 1.613 . S
S1230 N1232 1.610 1_655 S
N1231 S1230 1.613 . S
N1231 C1234 1.350 . S
N1232 S1230 1.610 1_455 S
N1232 C1233 1.351 . S
C1233 C1227 1.428 . S
C1233 N1232 1.351 . S
C1233 C1234 1.434 1_455 S
C1234 C1225 1.429 . S
C1234 N1231 1.350 . S
C1234 C1233 1.434 1_655 S
C1235 C1236 1.369 . S
C1235 C1237 1.419 . S
C1235 H1239 0.930 . S
C1236 C1235 1.369 . S
C1236 C1245 1.429 . S
C1237 C1235 1.419 . S
C1237 C1238 1.363 . S
C1237 H1240 0.929 . S
C1238 C1237 1.363 . S
C1238 C1244 1.428 . S
H1239 C1235 0.930 . S
H1240 C1237 0.929 . S
S1241 N1242 1.613 . S
S1241 N1243 1.610 . S
N1242 S1241 1.613 . S
N1242 C1245 1.350 . S
N1243 S1241 1.610 . S
N1243 C1244 1.351 . S
C1244 C1238 1.428 . S
C1244 N1243 1.351 . S
C1244 C1245 1.434 . S
C1245 C1236 1.429 . S
C1245 N1242 1.350 . S
C1245 C1244 1.434 . S
C1246 C1247 1.369 . S
C1246 C1248 1.419 1_565 S
C1246 H1250 0.930 . S
C1247 C1246 1.369 . S
C1247 C1256 1.429 . S
C1248 C1246 1.419 1_545 S
C1248 C1249 1.363 . S
C1248 H1251 0.929 . S
C1249 C1248 1.363 . S
C1249 C1255 1.428 1_545 S
H1250 C1246 0.930 . S
H1251 C1248 0.929 . S
S1252 N1253 1.613 . S
S1252 N1254 1.610 . S
N1253 S1252 1.613 . S
N1253 C1256 1.350 . S
N1254 S1252 1.610 . S
N1254 C1255 1.351 . S
C1255 C1249 1.428 1_565 S
C1255 N1254 1.351 . S
C1255 C1256 1.434 . S
C1256 C1247 1.429 . S
C1256 N1253 1.350 . S
C1256 C1255 1.434 . S
C1257 C1258 1.369 . S
C1257 C1259 1.419 . S
C1257 H1261 0.930 . S
C1258 C1257 1.369 . S
C1258 C1267 1.429 . S
C1259 C1257 1.419 . S
C1259 C1260 1.363 1_545 S
C1259 H1262 0.929 . S
C1260 C1259 1.363 1_565 S
C1260 C1266 1.428 . S
H1261 C1257 0.930 . S
H1262 C1259 0.929 . S
S1263 N1264 1.613 1_565 S
S1263 N1265 1.610 . S
N1264 S1263 1.613 1_545 S
N1264 C1267 1.350 . S
N1265 S1263 1.610 . S
N1265 C1266 1.351 . S
C1266 C1260 1.428 . S
C1266 N1265 1.351 . S
C1266 C1267 1.434 1_565 S
C1267 C1258 1.429 . S
C1267 N1264 1.350 . S
C1267 C1266 1.434 1_545 S
C1268 C1269 1.369 . S
C1268 C1270 1.419 1_655 S
C1268 H1272 0.930 . S
C1269 C1268 1.369 . S
C1269 C1278 1.429 . S
C1270 C1268 1.419 1_455 S
C1270 C1271 1.363 . S
C1270 H1273 0.929 . S
C1271 C1270 1.363 . S
C1271 C1277 1.428 1_455 S
H1272 C1268 0.930 . S
H1273 C1270 0.929 . S
S1274 N1275 1.613 . S
S1274 N1276 1.610 . S
N1275 S1274 1.613 . S
N1275 C1278 1.350 . S
N1276 S1274 1.610 . S
N1276 C1277 1.351 . S
C1277 C1271 1.428 1_655 S
C1277 N1276 1.351 . S
C1277 C1278 1.434 . S
C1278 C1269 1.429 . S
C1278 N1275 1.350 . S
C1278 C1277 1.434 . S
C1279 C1280 1.369 . S
C1279 C1281 1.419 . S
C1279 H1283 0.930 . S
C1280 C1279 1.369 . S
C1280 C1289 1.429 . S
C1281 C1279 1.419 . S
C1281 C1282 1.363 . S
C1281 H1284 0.929 . S
C1282 C1281 1.363 . S
C1282 C1288 1.428 . S
H1283 C1279 0.930 . S
H1284 C1281 0.929 . S
S1285 N1286 1.613 . S
S1285 N1287 1.610 . S
N1286 S1285 1.613 . S
N1286 C1289 1.350 . S
N1287 S1285 1.610 . S
N1287 C1288 1.351 . S
C1288 C1282 1.428 . S
C1288 N1287 1.351 . S
C1288 C1289 1.434 . S
C1289 C1280 1.429 . S
C1289 N1286 1.350 . S
C1289 C1288 1.434 . S
C1290 C1291 1.369 1_655 S
C1290 C1292 1.419 . S
C1290 H1294 0.930 . S
C1291 C1290 1.369 1_455 S
C1291 C1300 1.429 1_455 S
C1292 C1290 1.419 . S
C1292 C1293 1.363 . S
C1292 H1295 0.929 . S
C1293 C1292 1.363 . S
C1293 C1299 1.428 . S
H1294 C1290 0.930 . S
H1295 C1292 0.929 . S
S1296 N1297 1.613 1_655 S
S1296 N1298 1.610 . S
N1297 S1296 1.613 1_455 S
N1297 C1300 1.350 1_455 S
N1298 S1296 1.610 . S
N1298 C1299 1.351 . S
C1299 C1293 1.428 . S
C1299 N1298 1.351 . S
C1299 C1300 1.434 . S
C1300 C1291 1.429 1_655 S
C1300 N1297 1.350 1_655 S
C1300 C1299 1.434 . S
C1301 C1302 1.369 . S
C1301 C1303 1.419 . S
C1301 H1305 0.930 . S
C1302 C1301 1.369 . S
C1302 C1311 1.429 . S
C1303 C1301 1.419 . S
C1303 C1304 1.363 . S
C1303 H1306 0.929 . S
C1304 C1303 1.363 . S
C1304 C1310 1.428 . S
H1305 C1301 0.930 . S
H1306 C1303 0.929 . S
S1307 N1308 1.613 . S
S1307 N1309 1.610 . S
N1308 S1307 1.613 . S
N1308 C1311 1.350 . S
N1309 S1307 1.610 . S
N1309 C1310 1.351 . S
C1310 C1304 1.428 . S
C1310 N1309 1.351 . S
C1310 C1311 1.434 . S
C1311 C1302 1.429 . S
C1311 N1308 1.350 . S
C1311 C1310 1.434 . S
C1312 C1313 1.369 . S
C1312 C1314 1.419 . S
C1312 H1316 0.930 . S
C1313 C1312 1.369 . S
C1313 C1322 1.429 . S
C1314 C1312 1.419 . S
C1314 C1315 1.363 1_545 S
C1314 H1317 0.929 . S
C1315 C1314 1.363 1_565 S
C1315 C1321 1.443 1_565 S
H1316 C1312 0.930 . S
H1317 C1314 0.929 . S
S1318 N1319 1.613 1_565 S
S1318 N1320 1.610 . S
N1319 S1318 1.613 1_545 S
N1319 C1322 1.350 . S
N1320 S1318 1.610 . S
N1320 C1321 1.324 1_565 S
C1321 C1315 1.443 1_545 S
C1321 N1320 1.324 1_545 S
C1321 C1322 1.447 . S
C1322 C1313 1.429 . S
C1322 N1319 1.350 . S
C1322 C1321 1.447 . S
C1323 C1324 1.369 . S
C1323 C1325 1.419 1_565 S
C1323 H1327 0.930 . S
C1324 C1323 1.369 . S
C1324 C1333 1.429 . S
C1325 C1323 1.419 1_545 S
C1325 C1326 1.363 . S
C1325 H1328 0.929 . S
C1326 C1325 1.363 . S
C1326 C1332 1.428 1_545 S
H1327 C1323 0.930 . S
H1328 C1325 0.929 . S
S1329 N1330 1.613 . S
S1329 N1331 1.610 . S
N1330 S1329 1.613 . S
N1330 C1333 1.350 . S
N1331 S1329 1.610 . S
N1331 C1332 1.351 . S
C1332 C1326 1.428 1_565 S
C1332 N1331 1.351 . S
C1332 C1333 1.434 . S
C1333 C1324 1.429 . S
C1333 N1330 1.350 . S
C1333 C1332 1.434 . S
C1334 C1335 1.369 1_455 S
C1334 C1336 1.419 . S
C1334 H1338 0.930 . S
C1335 C1334 1.369 1_655 S
C1335 C1344 1.429 . S
C1336 C1334 1.419 . S
C1336 C1337 1.363 . S
C1336 H1339 0.929 . S
C1337 C1336 1.363 . S
C1337 C1343 1.428 . S
H1338 C1334 0.930 . S
H1339 C1336 0.929 . S
S1340 N1341 1.613 . S
S1340 N1342 1.610 1_655 S
N1341 S1340 1.613 . S
N1341 C1344 1.350 . S
N1342 S1340 1.610 1_455 S
N1342 C1343 1.351 . S
C1343 C1337 1.428 . S
C1343 N1342 1.351 . S
C1343 C1344 1.434 1_455 S
C1344 C1335 1.429 . S
C1344 N1341 1.350 . S
C1344 C1343 1.434 1_655 S
C1345 C1346 1.369 . S
C1345 C1347 1.419 . S
C1345 H1349 0.930 . S
C1346 C1345 1.369 . S
C1346 C1355 1.429 . S
C1347 C1345 1.419 . S
C1347 C1348 1.363 . S
C1347 H1350 0.929 . S
C1348 C1347 1.363 . S
C1348 C1354 1.428 . S
H1349 C1345 0.930 . S
H1350 C1347 0.929 . S
S1351 N1352 1.613 . S
S1351 N1353 1.610 . S
N1352 S1351 1.613 . S
N1352 C1355 1.350 . S
N1353 S1351 1.610 . S
N1353 C1354 1.351 . S
C1354 C1348 1.428 . S
C1354 N1353 1.351 . S
C1354 C1355 1.434 . S
C1355 C1346 1.429 . S
C1355 N1352 1.350 . S
C1355 C1354 1.434 . S
C1356 C1357 1.369 . S
C1356 C1358 1.419 . S
C1356 H1360 0.930 . S
C1357 C1356 1.369 . S
C1357 C1366 1.429 . S
C1358 C1356 1.419 . S
C1358 C1359 1.363 . S
C1358 H1361 0.929 . S
C1359 C1358 1.363 . S
C1359 C1365 1.428 . S
H1360 C1356 0.930 . S
H1361 C1358 0.929 . S
S1362 N1363 1.613 . S
S1362 N1364 1.610 . S
N1363 S1362 1.613 . S
N1363 C1366 1.350 . S
N1364 S1362 1.610 . S
N1364 C1365 1.351 . S
C1365 C1359 1.428 . S
C1365 N1364 1.351 . S
C1365 C1366 1.434 . S
C1366 C1357 1.429 . S
C1366 N1363 1.350 . S
C1366 C1365 1.434 . S
C1367 C1368 1.369 . S
C1367 C1369 1.419 . S
C1367 H1371 0.930 . S
C1368 C1367 1.369 . S
C1368 C1377 1.429 . S
C1369 C1367 1.419 . S
C1369 C1370 1.363 . S
C1369 H1372 0.929 . S
C1370 C1369 1.363 . S
C1370 C1376 1.428 . S
H1371 C1367 0.930 . S
H1372 C1369 0.929 . S
S1373 N1374 1.613 . S
S1373 N1375 1.610 . S
N1374 S1373 1.613 . S
N1374 C1377 1.350 . S
N1375 S1373 1.610 . S
N1375 C1376 1.351 . S
C1376 C1370 1.428 . S
C1376 N1375 1.351 . S
C1376 C1377 1.434 . S
C1377 C1368 1.429 . S
C1377 N1374 1.350 . S
C1377 C1376 1.434 . S
C1378 C1379 1.369 . S
C1378 C1380 1.419 . S
C1378 H1382 0.930 . S
C1379 C1378 1.369 . S
C1379 C1388 1.429 . S
C1380 C1378 1.419 . S
C1380 C1381 1.363 . S
C1380 H1383 0.929 . S
C1381 C1380 1.363 . S
C1381 C1387 1.428 . S
H1382 C1378 0.930 . S
H1383 C1380 0.929 . S
S1384 N1385 1.613 . S
S1384 N1386 1.610 . S
N1385 S1384 1.613 . S
N1385 C1388 1.350 . S
N1386 S1384 1.610 . S
N1386 C1387 1.351 . S
C1387 C1381 1.428 . S
C1387 N1386 1.351 . S
C1387 C1388 1.434 . S
C1388 C1379 1.429 . S
C1388 N1385 1.350 . S
C1388 C1387 1.434 . S
C1389 C1390 1.369 . S
C1389 C1391 1.419 . S
C1389 H1393 0.930 . S
C1390 C1389 1.369 . S
C1390 C1399 1.429 . S
C1391 C1389 1.419 . S
C1391 C1392 1.363 . S
C1391 H1394 0.929 . S
C1392 C1391 1.363 . S
C1392 C1398 1.428 . S
H1393 C1389 0.930 . S
H1394 C1391 0.929 . S
S1395 N1396 1.613 . S
S1395 N1397 1.610 . S
N1396 S1395 1.613 . S
N1396 C1399 1.350 . S
N1397 S1395 1.610 . S
N1397 C1398 1.351 . S
C1398 C1392 1.428 . S
C1398 N1397 1.351 . S
C1398 C1399 1.434 . S
C1399 C1390 1.429 . S
C1399 N1396 1.350 . S
C1399 C1398 1.434 . S
C1400 C1401 1.369 . S
C1400 C1402 1.419 . S
C1400 H1404 0.930 . S
C1401 C1400 1.369 . S
C1401 C1410 1.429 . S
C1402 C1400 1.419 . S
C1402 C1403 1.363 . S
C1402 H1405 0.929 . S
C1403 C1402 1.363 . S
C1403 C1409 1.428 . S
H1404 C1400 0.930 . S
H1405 C1402 0.929 . S
S1406 N1407 1.613 . S
S1406 N1408 1.610 . S
N1407 S1406 1.613 . S
N1407 C1410 1.350 . S
N1408 S1406 1.610 . S
N1408 C1409 1.351 . S
C1409 C1403 1.428 . S
C1409 N1408 1.351 . S
C1409 C1410 1.434 . S
C1410 C1401 1.429 . S
C1410 N1407 1.350 . S
C1410 C1409 1.434 . S
C1411 C1412 1.369 . S
C1411 C1413 1.419 . S
C1411 H1415 0.930 . S
C1412 C1411 1.369 . S
C1412 C1421 1.429 . S
C1413 C1411 1.419 . S
C1413 C1414 1.363 . S
C1413 H1416 0.929 . S
C1414 C1413 1.363 . S
C1414 C1420 1.428 . S
H1415 C1411 0.930 . S
H1416 C1413 0.929 . S
S1417 N1418 1.613 . S
S1417 N1419 1.610 . S
N1418 S1417 1.613 . S
N1418 C1421 1.350 . S
N1419 S1417 1.610 . S
N1419 C1420 1.351 . S
C1420 C1414 1.428 . S
C1420 N1419 1.351 . S
C1420 C1421 1.434 . S
C1421 C1412 1.429 . S
C1421 N1418 1.350 . S
C1421 C1420 1.434 . S
C1422 C1423 1.369 . S
C1422 C1424 1.419 . S
C1422 H1426 0.930 . S
C1423 C1422 1.369 . S
C1423 C1432 1.429 . S
C1424 C1422 1.419 . S
C1424 C1425 1.363 . S
C1424 H1427 0.929 . S
C1425 C1424 1.363 . S
C1425 C1431 1.428 . S
H1426 C1422 0.930 . S
H1427 C1424 0.929 . S
S1428 N1429 1.613 . S
S1428 N1430 1.610 . S
N1429 S1428 1.613 . S
N1429 C1432 1.350 . S
N1430 S1428 1.610 . S
N1430 C1431 1.351 . S
C1431 C1425 1.428 . S
C1431 N1430 1.351 . S
C1431 C1432 1.434 . S
C1432 C1423 1.429 . S
C1432 N1429 1.350 . S
C1432 C1431 1.434 . S
C1433 C1434 1.369 . S
C1433 C1435 1.419 . S
C1433 H1437 0.930 . S
C1434 C1433 1.369 . S
C1434 C1443 1.429 . S
C1435 C1433 1.419 . S
C1435 C1436 1.363 . S
C1435 H1438 0.929 . S
C1436 C1435 1.363 . S
C1436 C1442 1.428 . S
H1437 C1433 0.930 . S
H1438 C1435 0.929 . S
S1439 N1440 1.613 . S
S1439 N1441 1.610 . S
N1440 S1439 1.613 . S
N1440 C1443 1.350 . S
N1441 S1439 1.610 . S
N1441 C1442 1.351 . S
C1442 C1436 1.428 . S
C1442 N1441 1.351 . S
C1442 C1443 1.434 . S
C1443 C1434 1.429 . S
C1443 N1440 1.350 . S
C1443 C1442 1.434 . S
C1444 C1445 1.369 . S
C1444 C1446 1.419 . S
C1444 H1448 0.930 . S
C1445 C1444 1.369 . S
C1445 C1454 1.429 . S
C1446 C1444 1.419 . S
C1446 C1447 1.363 . S
C1446 H1449 0.929 . S
C1447 C1446 1.363 . S
C1447 C1453 1.428 . S
H1448 C1444 0.930 . S
H1449 C1446 0.929 . S
S1450 N1451 1.613 . S
S1450 N1452 1.610 . S
N1451 S1450 1.613 . S
N1451 C1454 1.350 . S
N1452 S1450 1.610 . S
N1452 C1453 1.351 . S
C1453 C1447 1.428 . S
C1453 N1452 1.351 . S
C1453 C1454 1.434 . S
C1454 C1445 1.429 . S
C1454 N1451 1.350 . S
C1454 C1453 1.434 . S
C1455 C1456 1.369 . S
C1455 C1457 1.419 . S
C1455 H1459 0.930 . S
C1456 C1455 1.369 . S
C1456 C1465 1.429 . S
C1457 C1455 1.419 . S
C1457 C1458 1.363 . S
C1457 H1460 0.929 1_556 S
C1458 C1457 1.363 . S
C1458 C1464 1.428 . S
H1459 C1455 0.930 . S
H1460 C1457 0.929 1_554 S
S1461 N1462 1.613 . S
S1461 N1463 1.610 . S
N1462 S1461 1.613 . S
N1462 C1465 1.350 . S
N1463 S1461 1.610 . S
N1463 C1464 1.351 . S
C1464 C1458 1.428 . S
C1464 N1463 1.351 . S
C1464 C1465 1.434 . S
C1465 C1456 1.429 . S
C1465 N1462 1.350 . S
C1465 C1464 1.434 . S
C1466 C1467 1.369 . S
C1466 C1468 1.419 . S
C1466 H1470 0.930 . S
C1467 C1466 1.369 . S
C1467 C1476 1.429 . S
C1468 C1466 1.419 . S
C1468 C1469 1.363 . S
C1468 H1471 0.929 . S
C1469 C1468 1.363 . S
C1469 C1475 1.428 . S
H1470 C1466 0.930 . S
H1471 C1468 0.929 . S
S1472 N1473 1.613 . S
S1472 N1474 1.610 . S
N1473 S1472 1.613 . S
N1473 C1476 1.350 1_554 S
N1474 S1472 1.610 . S
N1474 C1475 1.351 1_554 S
C1475 C1469 1.428 . S
C1475 N1474 1.351 1_556 S
C1475 C1476 1.434 . S
C1476 C1467 1.429 . S
C1476 N1473 1.350 1_556 S
C1476 C1475 1.434 . S
C1477 C1478 1.369 . S
C1477 C1479 1.419 . S
C1477 H1481 0.930 . S
C1478 C1477 1.369 . S
C1478 C1487 1.429 . S
C1479 C1477 1.419 . S
C1479 C1480 1.363 . S
C1479 H1482 0.929 . S
C1480 C1479 1.363 . S
C1480 C1486 1.453 . S
H1481 C1477 0.930 . S
H1482 C1479 0.929 . S
S1483 N1484 1.613 . S
S1483 N1485 1.610 . S
N1484 S1483 1.613 . S
N1484 C1487 1.350 1_554 S
N1485 S1483 1.610 . S
N1485 C1486 1.315 1_554 S
C1486 C1480 1.453 . S
C1486 N1485 1.315 1_556 S
C1486 C1487 1.445 . S
C1487 C1478 1.429 . S
C1487 N1484 1.350 1_556 S
C1487 C1486 1.445 . S
C1488 C1489 1.369 . S
C1488 C1490 1.419 . S
C1488 H1492 0.930 . S
C1489 C1488 1.369 . S
C1489 C1498 1.429 . S
C1490 C1488 1.419 . S
C1490 C1491 1.363 . S
C1490 H1493 0.929 . S
C1491 C1490 1.363 . S
C1491 C1497 1.428 . S
H1492 C1488 0.930 . S
H1493 C1490 0.929 . S
S1494 N1495 1.613 . S
S1494 N1496 1.610 . S
N1495 S1494 1.613 . S
N1495 C1498 1.350 . S
N1496 S1494 1.610 . S
N1496 C1497 1.351 . S
C1497 C1491 1.428 . S
C1497 N1496 1.351 . S
C1497 C1498 1.434 . S
C1498 C1489 1.429 . S
C1498 N1495 1.350 . S
C1498 C1497 1.434 . S
C1499 C1500 1.369 . S
C1499 C1501 1.419 . S
C1499 H1503 0.930 . S
C1500 C1499 1.369 . S
C1500 C1509 1.429 . S
C1501 C1499 1.419 . S
C1501 C1502 1.363 . S
C1501 H1504 0.929 . S
C1502 C1501 1.363 . S
C1502 C1508 1.428 . S
H1503 C1499 0.930 . S
H1504 C1501 0.929 . S
S1505 N1506 1.613 . S
S1505 N1507 1.610 . S
N1506 S1505 1.613 . S
N1506 C1509 1.350 . S
N1507 S1505 1.610 . S
N1507 C1508 1.351 . S
C1508 C1502 1.428 . S
C1508 N1507 1.351 . S
C1508 C1509 1.434 . S
C1509 C1500 1.429 . S
C1509 N1506 1.350 . S
C1509 C1508 1.434 . S
C1510 C1511 1.369 . S
C1510 C1512 1.419 . S
C1510 H1514 0.930 . S
C1511 C1510 1.369 . S
C1511 C1520 1.429 . S
C1512 C1510 1.419 . S
C1512 C1513 1.363 . S
C1512 H1515 0.929 . S
C1513 C1512 1.363 . S
C1513 C1519 1.428 . S
H1514 C1510 0.930 . S
H1515 C1512 0.929 . S
S1516 N1517 1.613 . S
S1516 N1518 1.610 . S
N1517 S1516 1.613 . S
N1517 C1520 1.350 . S
N1518 S1516 1.610 . S
N1518 C1519 1.351 . S
C1519 C1513 1.428 . S
C1519 N1518 1.351 . S
C1519 C1520 1.434 . S
C1520 C1511 1.429 . S
C1520 N1517 1.350 . S
C1520 C1519 1.434 . S
C1521 C1522 1.369 . S
C1521 C1523 1.419 . S
C1521 H1525 0.930 . S
C1522 C1521 1.369 . S
C1522 C1531 1.429 . S
C1523 C1521 1.419 . S
C1523 C1524 1.363 . S
C1523 H1526 0.929 . S
C1524 C1523 1.363 . S
C1524 C1530 1.428 . S
H1525 C1521 0.930 . S
H1526 C1523 0.929 . S
S1527 N1528 1.613 . S
S1527 N1529 1.610 1_556 S
N1528 S1527 1.613 . S
N1528 C1531 1.350 1_556 S
N1529 S1527 1.610 1_554 S
N1529 C1530 1.351 . S
C1530 C1524 1.428 . S
C1530 N1529 1.351 . S
C1530 C1531 1.434 . S
C1531 C1522 1.429 . S
C1531 N1528 1.350 1_554 S
C1531 C1530 1.434 . S
C1532 C1533 1.369 . S
C1532 C1534 1.419 . S
C1532 H1536 0.930 . S
C1533 C1532 1.369 . S
C1533 C1542 1.429 . S
C1534 C1532 1.419 . S
C1534 C1535 1.363 . S
C1534 H1537 0.929 . S
C1535 C1534 1.363 . S
C1535 C1541 1.428 . S
H1536 C1532 0.930 . S
H1537 C1534 0.929 . S
S1538 N1539 1.613 . S
S1538 N1540 1.610 1_556 S
N1539 S1538 1.613 . S
N1539 C1542 1.350 1_556 S
N1540 S1538 1.610 1_554 S
N1540 C1541 1.351 . S
C1541 C1535 1.428 . S
C1541 N1540 1.351 . S
C1541 C1542 1.434 . S
C1542 C1533 1.429 . S
C1542 N1539 1.350 1_554 S
C1542 C1541 1.434 . S
C1543 C1544 1.369 . S
C1543 C1545 1.419 . S
C1543 H1547 0.930 . S
C1544 C1543 1.369 . S
C1544 C1553 1.429 . S
C1545 C1543 1.419 . S
C1545 C1546 1.363 . S
C1545 H1548 0.929 . S
C1546 C1545 1.363 . S
C1546 C1552 1.428 . S
H1547 C1543 0.930 . S
H1548 C1545 0.929 . S
S1549 N1550 1.613 . S
S1549 N1551 1.610 . S
N1550 S1549 1.613 . S
N1550 C1553 1.350 . S
N1551 S1549 1.610 . S
N1551 C1552 1.351 . S
C1552 C1546 1.428 . S
C1552 N1551 1.351 . S
C1552 C1553 1.434 . S
C1553 C1544 1.429 . S
C1553 N1550 1.350 . S
C1553 C1552 1.434 . S
C1554 C1555 1.369 . S
C1554 C1556 1.419 . S
C1554 H1558 0.930 . S
C1555 C1554 1.369 . S
C1555 C1564 1.429 . S
C1556 C1554 1.419 . S
C1556 C1557 1.363 . S
C1556 H1559 0.929 . S
C1557 C1556 1.363 . S
C1557 C1563 1.428 . S
H1558 C1554 0.930 . S
H1559 C1556 0.929 . S
S1560 N1561 1.613 . S
S1560 N1562 1.610 . S
N1561 S1560 1.613 . S
N1561 C1564 1.350 . S
N1562 S1560 1.610 . S
N1562 C1563 1.351 . S
C1563 C1557 1.428 . S
C1563 N1562 1.351 . S
C1563 C1564 1.434 . S
C1564 C1555 1.429 . S
C1564 N1561 1.350 . S
C1564 C1563 1.434 . S
C1565 C1566 1.369 . S
C1565 C1567 1.419 . S
C1565 H1569 0.930 . S
C1566 C1565 1.369 . S
C1566 C1575 1.429 . S
C1567 C1565 1.419 . S
C1567 C1568 1.363 . S
C1567 H1570 0.929 . S
C1568 C1567 1.363 . S
C1568 C1574 1.428 . S
H1569 C1565 0.930 . S
H1570 C1567 0.929 . S
S1571 N1572 1.613 . S
S1571 N1573 1.610 . S
N1572 S1571 1.613 . S
N1572 C1575 1.350 . S
N1573 S1571 1.610 . S
N1573 C1574 1.351 . S
C1574 C1568 1.428 . S
C1574 N1573 1.351 . S
C1574 C1575 1.434 . S
C1575 C1566 1.429 . S
C1575 N1572 1.350 . S
C1575 C1574 1.434 . S
C1576 C1577 1.369 . S
C1576 C1578 1.419 . S
C1576 H1580 0.930 . S
C1577 C1576 1.369 . S
C1577 C1586 1.429 . S
C1578 C1576 1.419 . S
C1578 C1579 1.363 . S
C1578 H1581 0.929 . S
C1579 C1578 1.363 . S
C1579 C1585 1.428 . S
H1580 C1576 0.930 . S
H1581 C1578 0.929 . S
S1582 N1583 1.613 . S
S1582 N1584 1.610 . S
N1583 S1582 1.613 . S
N1583 C1586 1.350 . S
N1584 S1582 1.610 . S
N1584 C1585 1.351 . S
C1585 C1579 1.428 . S
C1585 N1584 1.351 . S
C1585 C1586 1.434 . S
C1586 C1577 1.429 . S
C1586 N1583 1.350 . S
C1586 C1585 1.434 . S
C1587 C1588 1.369 . S
C1587 C1589 1.419 . S
C1587 H1591 0.930 . S
C1588 C1587 1.369 . S
C1588 C1597 1.429 . S
C1589 C1587 1.419 . S
C1589 C1590 1.363 . S
C1589 H1592 0.929 . S
C1590 C1589 1.363 . S
C1590 C1596 1.428 . S
H1591 C1587 0.930 . S
H1592 C1589 0.929 . S
S1593 N1594 1.613 . S
S1593 N1595 1.610 . S
N1594 S1593 1.613 . S
N1594 C1597 1.350 . S
N1595 S1593 1.610 . S
N1595 C1596 1.351 . S
C1596 C1590 1.428 . S
C1596 N1595 1.351 . S
C1596 C1597 1.434 . S
C1597 C1588 1.429 . S
C1597 N1594 1.350 . S
C1597 C1596 1.434 . S
C1598 C1599 1.369 . S
C1598 C1600 1.419 . S
C1598 H1602 0.930 . S
C1599 C1598 1.369 . S
C1599 C1608 1.429 . S
C1600 C1598 1.419 . S
C1600 C1601 1.363 . S
C1600 H1603 0.929 . S
C1601 C1600 1.363 . S
C1601 C1607 1.428 . S
H1602 C1598 0.930 . S
H1603 C1600 0.929 . S
S1604 N1605 1.613 . S
S1604 N1606 1.610 . S
N1605 S1604 1.613 . S
N1605 C1608 1.350 . S
N1606 S1604 1.610 . S
N1606 C1607 1.351 . S
C1607 C1601 1.428 . S
C1607 N1606 1.351 . S
C1607 C1608 1.434 . S
C1608 C1599 1.429 . S
C1608 N1605 1.350 . S
C1608 C1607 1.434 . S
C1609 C1610 1.369 . S
C1609 C1611 1.419 . S
C1609 H1613 0.930 . S
C1610 C1609 1.369 . S
C1610 C1619 1.429 . S
C1611 C1609 1.419 . S
C1611 C1612 1.363 . S
C1611 H1614 0.929 . S
C1612 C1611 1.363 . S
C1612 C1618 1.428 . S
H1613 C1609 0.930 . S
H1614 C1611 0.929 . S
S1615 N1616 1.613 . S
S1615 N1617 1.610 . S
N1616 S1615 1.613 . S
N1616 C1619 1.350 . S
N1617 S1615 1.610 . S
N1617 C1618 1.351 . S
C1618 C1612 1.428 . S
C1618 N1617 1.351 . S
C1618 C1619 1.434 . S
C1619 C1610 1.429 . S
C1619 N1616 1.350 . S
C1619 C1618 1.434 . S
C1620 C1621 1.369 . S
C1620 C1622 1.419 1_556 S
C1620 H1624 0.930 . S
C1621 C1620 1.369 . S
C1621 C1630 1.429 . S
C1622 C1620 1.419 1_554 S
C1622 C1623 1.363 . S
C1622 H1625 0.929 . S
C1623 C1622 1.363 . S
C1623 C1629 1.428 1_554 S
H1624 C1620 0.930 . S
H1625 C1622 0.929 . S
S1626 N1627 1.613 . S
S1626 N1628 1.610 . S
N1627 S1626 1.613 . S
N1627 C1630 1.350 . S
N1628 S1626 1.610 . S
N1628 C1629 1.351 . S
C1629 C1623 1.428 1_556 S
C1629 N1628 1.351 . S
C1629 C1630 1.434 . S
C1630 C1621 1.429 . S
C1630 N1627 1.350 . S
C1630 C1629 1.434 . S
C1631 C1632 1.369 1_556 S
C1631 C1633 1.419 . S
C1631 H1635 0.930 . S
C1632 C1631 1.369 1_554 S
C1632 C1641 1.429 . S
C1633 C1631 1.419 . S
C1633 C1634 1.363 . S
C1633 H1636 0.929 . S
C1634 C1633 1.363 . S
C1634 C1640 1.428 . S
H1635 C1631 0.930 . S
H1636 C1633 0.929 . S
S1637 N1638 1.613 1_455 S
S1637 N1639 1.610 . S
N1638 S1637 1.613 1_655 S
N1638 C1641 1.350 . S
N1639 S1637 1.610 . S
N1639 C1640 1.351 1_454 S
C1640 C1634 1.428 . S
C1640 N1639 1.351 1_656 S
C1640 C1641 1.434 1_556 S
C1641 C1632 1.429 . S
C1641 N1638 1.350 . S
C1641 C1640 1.434 1_554 S
C1642 C1643 1.369 . S
C1642 C1644 1.419 1_554 S
C1642 H1646 0.930 . S
C1643 C1642 1.369 . S
C1643 C1652 1.429 1_554 S
C1644 C1642 1.419 1_556 S
C1644 C1645 1.363 . S
C1644 H1647 0.929 . S
C1645 C1644 1.363 . S
C1645 C1651 1.428 . S
H1646 C1642 0.930 . S
H1647 C1644 0.929 . S
S1648 N1649 1.613 . S
S1648 N1650 1.610 . S
N1649 S1648 1.613 . S
N1649 C1652 1.350 . S
N1650 S1648 1.610 . S
N1650 C1651 1.351 . S
C1651 C1645 1.428 . S
C1651 N1650 1.351 . S
C1651 C1652 1.434 . S
C1652 C1643 1.429 1_556 S
C1652 N1649 1.350 . S
C1652 C1651 1.434 . S
C1653 C1654 1.369 . S
C1653 C1655 1.419 . S
C1653 H1657 0.930 . S
C1654 C1653 1.369 . S
C1654 C1663 1.429 . S
C1655 C1653 1.419 . S
C1655 C1656 1.363 . S
C1655 H1658 0.929 1_455 S
C1656 C1655 1.363 . S
C1656 C1662 1.428 . S
H1657 C1653 0.930 . S
H1658 C1655 0.929 1_655 S
S1659 N1660 1.613 . S
S1659 N1661 1.610 . S
N1660 S1659 1.613 . S
N1660 C1663 1.350 . S
N1661 S1659 1.610 . S
N1661 C1662 1.351 . S
C1662 C1656 1.428 . S
C1662 N1661 1.351 . S
C1662 C1663 1.434 . S
C1663 C1654 1.429 . S
C1663 N1660 1.350 . S
C1663 C1662 1.434 . S
C1664 C1665 1.369 . S
C1664 C1666 1.419 . S
C1664 H1668 0.930 . S
C1665 C1664 1.369 . S
C1665 C1674 1.429 . S
C1666 C1664 1.419 . S
C1666 C1667 1.363 . S
C1666 H1669 0.929 . S
C1667 C1666 1.363 . S
C1667 C1673 1.428 . S
H1668 C1664 0.930 . S
H1669 C1666 0.929 . S
S1670 N1671 1.613 . S
S1670 N1672 1.610 . S
N1671 S1670 1.613 . S
N1671 C1674 1.350 . S
N1672 S1670 1.610 . S
N1672 C1673 1.351 . S
C1673 C1667 1.428 . S
C1673 N1672 1.351 . S
C1673 C1674 1.434 . S
C1674 C1665 1.429 . S
C1674 N1671 1.350 . S
C1674 C1673 1.434 . S
C1675 C1676 1.369 . S
C1675 C1677 1.419 . S
C1675 H1679 0.930 . S
C1676 C1675 1.369 . S
C1676 C1685 1.429 . S
C1677 C1675 1.419 . S
C1677 C1678 1.363 . S
C1677 H1680 0.929 . S
C1678 C1677 1.363 . S
C1678 C1684 1.428 . S
H1679 C1675 0.930 . S
H1680 C1677 0.929 . S
S1681 N1682 1.613 . S
S1681 N1683 1.610 1_545 S
N1682 S1681 1.613 . S
N1682 C1685 1.350 1_545 S
N1683 S1681 1.610 1_565 S
N1683 C1684 1.351 . S
C1684 C1678 1.428 . S
C1684 N1683 1.351 . S
C1684 C1685 1.434 . S
C1685 C1676 1.429 . S
C1685 N1682 1.350 1_565 S
C1685 C1684 1.434 . S
C1686 C1687 1.369 . S
C1686 C1688 1.419 . S
C1686 H1690 0.930 . S
C1687 C1686 1.369 . S
C1687 C1696 1.429 . S
C1688 C1686 1.419 . S
C1688 C1689 1.363 1_554 S
C1688 H1691 0.929 . S
C1689 C1688 1.363 1_556 S
C1689 C1695 1.428 . S
H1690 C1686 0.930 . S
H1691 C1688 0.929 . S
S1692 N1693 1.613 . S
S1692 N1694 1.610 . S
N1693 S1692 1.613 . S
N1693 C1696 1.350 1_556 S
N1694 S1692 1.610 . S
N1694 C1695 1.351 . S
C1695 C1689 1.428 . S
C1695 N1694 1.351 . S
C1695 C1696 1.434 1_556 S
C1696 C1687 1.429 . S
C1696 N1693 1.350 1_554 S
C1696 C1695 1.434 1_554 S
C1697 C1698 1.369 . S
C1697 C1699 1.419 1_556 S
C1697 H1701 0.930 . S
C1698 C1697 1.369 . S
C1698 C1707 1.429 1_556 S
C1699 C1697 1.419 1_554 S
C1699 C1700 1.363 . S
C1699 H1702 0.929 1_554 S
C1700 C1699 1.363 . S
C1700 C1706 1.428 . S
H1701 C1697 0.930 . S
H1702 C1699 0.929 1_556 S
S1703 N1704 1.613 . S
S1703 N1705 1.610 . S
N1704 S1703 1.613 . S
N1704 C1707 1.350 . S
N1705 S1703 1.610 . S
N1705 C1706 1.351 . S
C1706 C1700 1.428 . S
C1706 N1705 1.351 . S
C1706 C1707 1.434 . S
C1707 C1698 1.429 1_554 S
C1707 N1704 1.350 . S
C1707 C1706 1.434 . S
C1708 C1709 1.369 1_554 S
C1708 C1710 1.419 . S
C1708 H1712 0.930 . S
C1709 C1708 1.369 1_556 S
C1709 C1718 1.429 . S
C1710 C1708 1.419 . S
C1710 C1711 1.363 . S
C1710 H1713 0.929 . S
C1711 C1710 1.363 . S
C1711 C1717 1.428 . S
H1712 C1708 0.930 . S
H1713 C1710 0.929 . S
S1714 N1715 1.613 . S
S1714 N1716 1.610 . S
N1715 S1714 1.613 . S
N1715 C1718 1.350 . S
N1716 S1714 1.610 . S
N1716 C1717 1.351 1_556 S
C1717 C1711 1.428 . S
C1717 N1716 1.351 1_554 S
C1717 C1718 1.434 1_554 S
C1718 C1709 1.429 . S
C1718 N1715 1.350 . S
C1718 C1717 1.434 1_556 S
C1719 C1720 1.369 . S
C1719 C1721 1.419 . S
C1719 H1723 0.930 . S
C1720 C1719 1.369 . S
C1720 C1729 1.429 . S
C1721 C1719 1.419 . S
C1721 C1722 1.363 . S
C1721 H1724 0.929 . S
C1722 C1721 1.363 . S
C1722 C1728 1.428 . S
H1723 C1719 0.930 . S
H1724 C1721 0.929 . S
S1725 N1726 1.613 . S
S1725 N1727 1.610 . S
N1726 S1725 1.613 . S
N1726 C1729 1.350 . S
N1727 S1725 1.610 . S
N1727 C1728 1.351 . S
C1728 C1722 1.428 . S
C1728 N1727 1.351 . S
C1728 C1729 1.434 . S
C1729 C1720 1.429 . S
C1729 N1726 1.350 . S
C1729 C1728 1.434 . S
C1730 C1731 1.369 . S
C1730 C1732 1.419 . S
C1730 H1734 0.930 . S
C1731 C1730 1.369 . S
C1731 C1740 1.429 . S
C1732 C1730 1.419 . S
C1732 C1733 1.363 . S
C1732 H1735 0.929 . S
C1733 C1732 1.363 . S
C1733 C1739 1.428 . S
H1734 C1730 0.930 . S
H1735 C1732 0.929 . S
S1736 N1737 1.613 . S
S1736 N1738 1.610 . S
N1737 S1736 1.613 . S
N1737 C1740 1.350 . S
N1738 S1736 1.610 . S
N1738 C1739 1.351 . S
C1739 C1733 1.428 . S
C1739 N1738 1.351 . S
C1739 C1740 1.434 . S
C1740 C1731 1.429 . S
C1740 N1737 1.350 . S
C1740 C1739 1.434 . S
C1741 C1742 1.369 . S
C1741 C1743 1.419 . S
C1741 H1745 0.930 . S
C1742 C1741 1.369 . S
C1742 C1751 1.429 . S
C1743 C1741 1.419 . S
C1743 C1744 1.363 . S
C1743 H1746 0.929 . S
C1744 C1743 1.363 . S
C1744 C1750 1.428 . S
H1745 C1741 0.930 . S
H1746 C1743 0.929 . S
S1747 N1748 1.613 1_565 S
S1747 N1749 1.610 . S
N1748 S1747 1.613 1_545 S
N1748 C1751 1.350 . S
N1749 S1747 1.610 . S
N1749 C1750 1.351 1_565 S
C1750 C1744 1.428 . S
C1750 N1749 1.351 1_545 S
C1750 C1751 1.434 . S
C1751 C1742 1.429 . S
C1751 N1748 1.350 . S
C1751 C1750 1.434 . S
C1752 C1753 1.369 . S
C1752 C1754 1.419 . S
C1752 H1756 0.930 . S
C1753 C1752 1.369 . S
C1753 C1762 1.429 . S
C1754 C1752 1.419 . S
C1754 C1755 1.363 . S
C1754 H1757 0.929 . S
C1755 C1754 1.363 . S
C1755 C1761 1.428 . S
H1756 C1752 0.930 . S
H1757 C1754 0.929 . S
S1758 N1759 1.613 . S
S1758 N1760 1.610 . S
N1759 S1758 1.613 . S
N1759 C1762 1.350 . S
N1760 S1758 1.610 . S
N1760 C1761 1.351 . S
C1761 C1755 1.428 . S
C1761 N1760 1.351 . S
C1761 C1762 1.434 . S
C1762 C1753 1.429 . S
C1762 N1759 1.350 . S
C1762 C1761 1.434 . S
C1763 C1764 1.369 . S
C1763 C1765 1.419 . S
C1763 H1767 0.930 . S
C1764 C1763 1.369 . S
C1764 C1773 1.429 . S
C1765 C1763 1.419 . S
C1765 C1766 1.363 . S
C1765 H1768 0.929 . S
C1766 C1765 1.363 . S
C1766 C1772 1.428 . S
H1767 C1763 0.930 . S
H1768 C1765 0.929 . S
S1769 N1770 1.613 . S
S1769 N1771 1.610 . S
N1770 S1769 1.613 . S
N1770 C1773 1.350 . S
N1771 S1769 1.610 . S
N1771 C1772 1.351 . S
C1772 C1766 1.428 . S
C1772 N1771 1.351 . S
C1772 C1773 1.434 . S
C1773 C1764 1.429 . S
C1773 N1770 1.350 . S
C1773 C1772 1.434 . S
C1774 C1775 1.369 . S
C1774 C1776 1.419 . S
C1774 H1778 0.930 . S
C1775 C1774 1.369 . S
C1775 C1784 1.429 . S
C1776 C1774 1.419 . S
C1776 C1777 1.363 . S
C1776 H1779 0.929 . S
C1777 C1776 1.363 . S
C1777 C1783 1.428 . S
H1778 C1774 0.930 . S
H1779 C1776 0.929 . S
S1780 N1781 1.613 . S
S1780 N1782 1.610 . S
N1781 S1780 1.613 . S
N1781 C1784 1.350 . S
N1782 S1780 1.610 . S
N1782 C1783 1.351 . S
C1783 C1777 1.428 . S
C1783 N1782 1.351 . S
C1783 C1784 1.434 . S
C1784 C1775 1.429 . S
C1784 N1781 1.350 . S
C1784 C1783 1.434 . S
C1785 C1786 1.369 . S
C1785 C1787 1.419 . S
C1785 H1789 0.930 . S
C1786 C1785 1.369 . S
C1786 C1795 1.429 . S
C1787 C1785 1.419 . S
C1787 C1788 1.363 . S
C1787 H1790 0.929 . S
C1788 C1787 1.363 . S
C1788 C1794 1.428 . S
H1789 C1785 0.930 . S
H1790 C1787 0.929 . S
S1791 N1792 1.613 . S
S1791 N1793 1.610 . S
N1792 S1791 1.613 . S
N1792 C1795 1.350 . S
N1793 S1791 1.610 . S
N1793 C1794 1.351 . S
C1794 C1788 1.428 . S
C1794 N1793 1.351 . S
C1794 C1795 1.434 . S
C1795 C1786 1.429 . S
C1795 N1792 1.350 . S
C1795 C1794 1.434 . S
C1796 C1797 1.369 . S
C1796 C1798 1.419 . S
C1796 H1800 0.930 . S
C1797 C1796 1.369 . S
C1797 C1806 1.429 . S
C1798 C1796 1.419 . S
C1798 C1799 1.363 . S
C1798 H1801 0.929 . S
C1799 C1798 1.363 . S
C1799 C1805 1.428 . S
H1800 C1796 0.930 . S
H1801 C1798 0.929 . S
S1802 N1803 1.613 . S
S1802 N1804 1.610 . S
N1803 S1802 1.613 . S
N1803 C1806 1.350 . S
N1804 S1802 1.610 . S
N1804 C1805 1.351 . S
C1805 C1799 1.428 . S
C1805 N1804 1.351 . S
C1805 C1806 1.434 . S
C1806 C1797 1.429 . S
C1806 N1803 1.350 . S
C1806 C1805 1.434 . S
C1807 C1808 1.369 . S
C1807 C1809 1.419 . S
C1807 H1811 0.930 . S
C1808 C1807 1.369 . S
C1808 C1817 1.429 . S
C1809 C1807 1.419 . S
C1809 C1810 1.363 . S
C1809 H1812 0.929 . S
C1810 C1809 1.363 . S
C1810 C1816 1.428 . S
H1811 C1807 0.930 . S
H1812 C1809 0.929 . S
S1813 N1814 1.613 . S
S1813 N1815 1.610 . S
N1814 S1813 1.613 . S
N1814 C1817 1.350 . S
N1815 S1813 1.610 . S
N1815 C1816 1.351 . S
C1816 C1810 1.428 . S
C1816 N1815 1.351 . S
C1816 C1817 1.434 . S
C1817 C1808 1.429 . S
C1817 N1814 1.350 . S
C1817 C1816 1.434 . S
C1818 C1819 1.369 . S
C1818 C1820 1.419 . S
C1818 H1822 0.930 . S
C1819 C1818 1.369 . S
C1819 C1828 1.429 . S
C1820 C1818 1.419 . S
C1820 C1821 1.363 . S
C1820 H1823 0.929 . S
C1821 C1820 1.363 . S
C1821 C1827 1.428 . S
H1822 C1818 0.930 . S
H1823 C1820 0.929 . S
S1824 N1825 1.613 . S
S1824 N1826 1.610 . S
N1825 S1824 1.613 . S
N1825 C1828 1.350 . S
N1826 S1824 1.610 . S
N1826 C1827 1.351 . S
C1827 C1821 1.428 . S
C1827 N1826 1.351 . S
C1827 C1828 1.434 . S
C1828 C1819 1.429 . S
C1828 N1825 1.350 . S
C1828 C1827 1.434 . S
C1829 C1830 1.369 . S
C1829 C1831 1.419 . S
C1829 H1833 0.930 . S
C1830 C1829 1.369 . S
C1830 C1839 1.429 . S
C1831 C1829 1.419 . S
C1831 C1832 1.363 . S
C1831 H1834 0.929 . S
C1832 C1831 1.363 . S
C1832 C1838 1.428 . S
H1833 C1829 0.930 . S
H1834 C1831 0.929 . S
S1835 N1836 1.613 . S
S1835 N1837 1.610 . S
N1836 S1835 1.613 . S
N1836 C1839 1.350 . S
N1837 S1835 1.610 . S
N1837 C1838 1.351 . S
C1838 C1832 1.428 . S
C1838 N1837 1.351 . S
C1838 C1839 1.434 . S
C1839 C1830 1.429 . S
C1839 N1836 1.350 . S
C1839 C1838 1.434 . S
C1840 C1841 1.369 . S
C1840 C1842 1.419 . S
C1840 H1844 0.930 . S
C1841 C1840 1.369 . S
C1841 C1850 1.429 . S
C1842 C1840 1.419 . S
C1842 C1843 1.363 . S
C1842 H1845 0.929 . S
C1843 C1842 1.363 . S
C1843 C1849 1.428 . S
H1844 C1840 0.930 . S
H1845 C1842 0.929 . S
S1846 N1847 1.613 . S
S1846 N1848 1.610 . S
N1847 S1846 1.613 . S
N1847 C1850 1.350 . S
N1848 S1846 1.610 . S
N1848 C1849 1.351 . S
C1849 C1843 1.428 . S
C1849 N1848 1.351 . S
C1849 C1850 1.434 . S
C1850 C1841 1.429 . S
C1850 N1847 1.350 . S
C1850 C1849 1.434 . S
C1851 C1852 1.369 . S
C1851 C1853 1.419 . S
C1851 H1855 0.930 . S
C1852 C1851 1.369 . S
C1852 C1861 1.429 . S
C1853 C1851 1.419 . S
C1853 C1854 1.363 . S
C1853 H1856 0.929 . S
C1854 C1853 1.363 . S
C1854 C1860 1.428 . S
H1855 C1851 0.930 . S
H1856 C1853 0.929 . S
S1857 N1858 1.613 . S
S1857 N1859 1.610 . S
N1858 S1857 1.613 . S
N1858 C1861 1.350 . S
N1859 S1857 1.610 . S
N1859 C1860 1.351 . S
C1860 C1854 1.428 . S
C1860 N1859 1.351 . S
C1860 C1861 1.434 . S
C1861 C1852 1.429 . S
C1861 N1858 1.350 . S
C1861 C1860 1.434 . S
C1862 C1863 1.369 . S
C1862 C1864 1.419 . S
C1862 H1866 0.930 . S
C1863 C1862 1.369 . S
C1863 C1872 1.429 . S
C1864 C1862 1.419 . S
C1864 C1865 1.363 . S
C1864 H1867 0.929 . S
C1865 C1864 1.363 . S
C1865 C1871 1.428 . S
H1866 C1862 0.930 . S
H1867 C1864 0.929 . S
S1868 N1869 1.613 . S
S1868 N1870 1.610 . S
N1869 S1868 1.613 . S
N1869 C1872 1.350 . S
N1870 S1868 1.610 . S
N1870 C1871 1.351 . S
C1871 C1865 1.428 . S
C1871 N1870 1.351 . S
C1871 C1872 1.434 . S
C1872 C1863 1.429 . S
C1872 N1869 1.350 . S
C1872 C1871 1.434 . S
C1873 C1874 1.369 . S
C1873 C1875 1.419 . S
C1873 H1877 0.930 . S
C1874 C1873 1.369 . S
C1874 C1883 1.429 . S
C1875 C1873 1.419 . S
C1875 C1876 1.363 . S
C1875 H1878 0.929 . S
C1876 C1875 1.363 . S
C1876 C1882 1.428 . S
H1877 C1873 0.930 . S
H1878 C1875 0.929 . S
S1879 N1880 1.613 . S
S1879 N1881 1.610 . S
N1880 S1879 1.613 . S
N1880 C1883 1.350 . S
N1881 S1879 1.610 . S
N1881 C1882 1.351 . S
C1882 C1876 1.428 . S
C1882 N1881 1.351 . S
C1882 C1883 1.434 . S
C1883 C1874 1.429 . S
C1883 N1880 1.350 . S
C1883 C1882 1.434 . S
C1884 C1885 1.369 . S
C1884 C1886 1.419 . S
C1884 H1888 0.930 . S
C1885 C1884 1.369 . S
C1885 C1894 1.429 . S
C1886 C1884 1.419 . S
C1886 C1887 1.363 . S
C1886 H1889 0.929 . S
C1887 C1886 1.363 . S
C1887 C1893 1.428 . S
H1888 C1884 0.930 . S
H1889 C1886 0.929 . S
S1890 N1891 1.613 . S
S1890 N1892 1.610 . S
N1891 S1890 1.613 . S
N1891 C1894 1.350 . S
N1892 S1890 1.610 . S
N1892 C1893 1.351 . S
C1893 C1887 1.428 . S
C1893 N1892 1.351 . S
C1893 C1894 1.434 . S
C1894 C1885 1.429 . S
C1894 N1891 1.350 . S
C1894 C1893 1.434 . S
C1895 C1896 1.369 . S
C1895 C1897 1.419 . S
C1895 H1899 0.930 . S
C1896 C1895 1.369 . S
C1896 C1905 1.429 . S
C1897 C1895 1.419 . S
C1897 C1898 1.363 . S
C1897 H1900 0.929 . S
C1898 C1897 1.363 . S
C1898 C1904 1.428 . S
H1899 C1895 0.930 . S
H1900 C1897 0.929 . S
S1901 N1902 1.613 . S
S1901 N1903 1.610 . S
N1902 S1901 1.613 . S
N1902 C1905 1.350 . S
N1903 S1901 1.610 . S
N1903 C1904 1.351 . S
C1904 C1898 1.428 . S
C1904 N1903 1.351 . S
C1904 C1905 1.434 . S
C1905 C1896 1.429 . S
C1905 N1902 1.350 . S
C1905 C1904 1.434 . S
C1906 C1907 1.369 . S
C1906 C1908 1.419 . S
C1906 H1910 0.930 . S
C1907 C1906 1.369 . S
C1907 C1916 1.429 . S
C1908 C1906 1.419 . S
C1908 C1909 1.363 . S
C1908 H1911 0.929 . S
C1909 C1908 1.363 . S
C1909 C1915 1.428 . S
H1910 C1906 0.930 . S
H1911 C1908 0.929 . S
S1912 N1913 1.613 . S
S1912 N1914 1.610 . S
N1913 S1912 1.613 . S
N1913 C1916 1.350 . S
N1914 S1912 1.610 . S
N1914 C1915 1.351 . S
C1915 C1909 1.428 . S
C1915 N1914 1.351 . S
C1915 C1916 1.434 . S
C1916 C1907 1.429 . S
C1916 N1913 1.350 . S
C1916 C1915 1.434 . S
C1917 C1918 1.369 . S
C1917 C1919 1.419 . S
C1917 H1921 0.930 . S
C1918 C1917 1.369 . S
C1918 C1927 1.429 . S
C1919 C1917 1.419 . S
C1919 C1920 1.363 . S
C1919 H1922 0.929 . S
C1920 C1919 1.363 . S
C1920 C1926 1.428 . S
H1921 C1917 0.930 . S
H1922 C1919 0.929 . S
S1923 N1924 1.613 . S
S1923 N1925 1.610 . S
N1924 S1923 1.613 . S
N1924 C1927 1.350 . S
N1925 S1923 1.610 . S
N1925 C1926 1.351 . S
C1926 C1920 1.428 . S
C1926 N1925 1.351 . S
C1926 C1927 1.434 . S
C1927 C1918 1.429 . S
C1927 N1924 1.350 . S
C1927 C1926 1.434 . S
C1928 C1929 1.369 . S
C1928 C1930 1.419 . S
C1928 H1932 0.930 . S
C1929 C1928 1.369 . S
C1929 C1938 1.429 . S
C1930 C1928 1.419 . S
C1930 C1931 1.363 . S
C1930 H1933 0.929 . S
C1931 C1930 1.363 . S
C1931 C1937 1.428 . S
H1932 C1928 0.930 . S
H1933 C1930 0.929 . S
S1934 N1935 1.613 . S
S1934 N1936 1.610 . S
N1935 S1934 1.613 . S
N1935 C1938 1.350 . S
N1936 S1934 1.610 . S
N1936 C1937 1.351 . S
C1937 C1931 1.428 . S
C1937 N1936 1.351 . S
C1937 C1938 1.434 . S
C1938 C1929 1.429 . S
C1938 N1935 1.350 . S
C1938 C1937 1.434 . S
C1939 C1940 1.369 . S
C1939 C1941 1.419 . S
C1939 H1943 0.930 . S
C1940 C1939 1.369 . S
C1940 C1949 1.429 . S
C1941 C1939 1.419 . S
C1941 C1942 1.363 . S
C1941 H1944 0.929 . S
C1942 C1941 1.363 . S
C1942 C1948 1.428 . S
H1943 C1939 0.930 . S
H1944 C1941 0.929 . S
S1945 N1946 1.613 . S
S1945 N1947 1.610 . S
N1946 S1945 1.613 . S
N1946 C1949 1.350 . S
N1947 S1945 1.610 . S
N1947 C1948 1.351 . S
C1948 C1942 1.428 . S
C1948 N1947 1.351 . S
C1948 C1949 1.434 . S
C1949 C1940 1.429 . S
C1949 N1946 1.350 . S
C1949 C1948 1.434 . S
C1950 C1951 1.369 . S
C1950 C1952 1.419 . S
C1950 H1954 0.930 . S
C1951 C1950 1.369 . S
C1951 C1960 1.429 . S
C1952 C1950 1.419 . S
C1952 C1953 1.363 . S
C1952 H1955 0.929 . S
C1953 C1952 1.363 . S
C1953 C1959 1.428 . S
H1954 C1950 0.930 . S
H1955 C1952 0.929 . S
S1956 N1957 1.613 . S
S1956 N1958 1.610 . S
N1957 S1956 1.613 . S
N1957 C1960 1.350 . S
N1958 S1956 1.610 . S
N1958 C1959 1.351 . S
C1959 C1953 1.428 . S
C1959 N1958 1.351 . S
C1959 C1960 1.434 . S
C1960 C1951 1.429 . S
C1960 N1957 1.350 . S
C1960 C1959 1.434 . S
C1961 C1962 1.369 . S
C1961 C1963 1.419 . S
C1961 H1965 0.930 . S
C1962 C1961 1.369 . S
C1962 C1971 1.429 . S
C1963 C1961 1.419 . S
C1963 C1964 1.363 . S
C1963 H1966 0.929 . S
C1964 C1963 1.363 . S
C1964 C1970 1.428 . S
H1965 C1961 0.930 . S
H1966 C1963 0.929 . S
S1967 N1968 1.613 . S
S1967 N1969 1.610 . S
N1968 S1967 1.613 . S
N1968 C1971 1.350 . S
N1969 S1967 1.610 . S
N1969 C1970 1.351 . S
C1970 C1964 1.428 . S
C1970 N1969 1.351 . S
C1970 C1971 1.434 . S
C1971 C1962 1.429 . S
C1971 N1968 1.350 . S
C1971 C1970 1.434 . S
C1972 C1973 1.369 . S
C1972 C1974 1.419 . S
C1972 H1976 0.930 . S
C1973 C1972 1.369 . S
C1973 C1982 1.429 . S
C1974 C1972 1.419 . S
C1974 C1975 1.363 . S
C1974 H1977 0.929 . S
C1975 C1974 1.363 . S
C1975 C1981 1.428 . S
H1976 C1972 0.930 . S
H1977 C1974 0.929 . S
S1978 N1979 1.613 . S
S1978 N1980 1.610 . S
N1979 S1978 1.613 . S
N1979 C1982 1.350 . S
N1980 S1978 1.610 . S
N1980 C1981 1.351 . S
C1981 C1975 1.428 . S
C1981 N1980 1.351 . S
C1981 C1982 1.434 . S
C1982 C1973 1.429 . S
C1982 N1979 1.350 . S
C1982 C1981 1.434 . S
C1983 C1984 1.369 . S
C1983 C1985 1.419 . S
C1983 H1987 0.930 . S
C1984 C1983 1.369 . S
C1984 C1993 1.429 . S
C1985 C1983 1.419 . S
C1985 C1986 1.363 . S
C1985 H1988 0.929 . S
C1986 C1985 1.363 . S
C1986 C1992 1.428 . S
H1987 C1983 0.930 . S
H1988 C1985 0.929 . S
S1989 N1990 1.613 . S
S1989 N1991 1.610 . S
N1990 S1989 1.613 . S
N1990 C1993 1.350 . S
N1991 S1989 1.610 . S
N1991 C1992 1.351 . S
C1992 C1986 1.428 . S
C1992 N1991 1.351 . S
C1992 C1993 1.434 . S
C1993 C1984 1.429 . S
C1993 N1990 1.350 . S
C1993 C1992 1.434 . S
C1994 C1995 1.369 . S
C1994 C1996 1.419 . S
C1994 H1998 0.930 . S
C1995 C1994 1.369 . S
C1995 C2004 1.429 . S
C1996 C1994 1.419 . S
C1996 C1997 1.363 . S
C1996 H1999 0.929 . S
C1997 C1996 1.363 . S
C1997 C2003 1.428 . S
H1998 C1994 0.930 . S
H1999 C1996 0.929 . S
S2000 N2001 1.613 . S
S2000 N2002 1.610 . S
N2001 S2000 1.613 . S
N2001 C2004 1.350 . S
N2002 S2000 1.610 . S
N2002 C2003 1.351 . S
C2003 C1997 1.428 . S
C2003 N2002 1.351 . S
C2003 C2004 1.434 . S
C2004 C1995 1.429 . S
C2004 N2001 1.350 . S
C2004 C2003 1.434 . S
C2005 C2006 1.369 . S
C2005 C2007 1.419 . S
C2005 H2009 0.930 . S
C2006 C2005 1.369 . S
C2006 C2015 1.429 . S
C2007 C2005 1.419 . S
C2007 C2008 1.363 . S
C2007 H2010 0.929 . S
C2008 C2007 1.363 . S
C2008 C2014 1.428 . S
H2009 C2005 0.930 . S
H2010 C2007 0.929 . S
S2011 N2012 1.613 . S
S2011 N2013 1.610 . S
N2012 S2011 1.613 . S
N2012 C2015 1.350 . S
N2013 S2011 1.610 . S
N2013 C2014 1.351 . S
C2014 C2008 1.428 . S
C2014 N2013 1.351 . S
C2014 C2015 1.434 . S
C2015 C2006 1.429 . S
C2015 N2012 1.350 . S
C2015 C2014 1.434 . S
C829 C16 1.196 . S
C831 C85 1.197 . S
C840 C39 1.192 . S
C842 C108 1.197 . S
C851 C131 1.189 . S
C853 C62 1.195 . S
C862 C154 1.227 . S
C864 C223 1.222 . S
C873 C177 1.227 . S
C875 C246 1.222 . S
C884 C200 1.225 . S
C886 C269 1.227 . S
C895 C361 1.197 . S
C897 C292 1.196 . S
C906 C315 1.196 . S
C908 C384 1.190 . S
C917 C338 1.191 . S
C919 C407 1.197 . S
C928 C430 1.220 . S
C930 C499 1.224 . S
C939 C453 1.221 . S
C941 C522 1.225 . S
C950 C476 1.220 . S
C952 C545 1.224 . S
C961 C568 1.190 . S
C963 C637 1.192 . S
C972 C591 1.193 . S
C974 C660 1.197 . S
C983 C683 1.189 . S
C985 C614 1.196 . S
C994 C706 1.228 . S
C996 C775 1.225 . S
C1005 C729 1.228 . S
C1007 C798 1.223 . S
C1016 C752 1.225 . S
C1018 C821 1.227 . S
C1027 C21 0.999 . S
C1029 C435 1.013 . S
C1038 C44 0.992 . S
C1040 C458 1.015 . S
C1049 C67 0.999 . S
C1051 C481 1.013 . S
C1060 C780 1.015 . S
C1062 C90 0.993 . S
C1071 C113 0.986 . S
C1073 C803 1.017 . S
C1082 C826 1.012 . S
C1084 C136 0.998 . S
C1093 C159 1.012 . S
C1095 C573 0.998 . S
C1104 C182 1.017 . S
C1106 C596 0.989 . S
C1115 C619 0.999 . S
C1117 C205 1.013 . S
C1126 C228 1.016 . S
C1128 C366 0.991 . S
C1137 C389 0.992 . S
C1139 C251 1.015 . S
C1148 C274 1.012 . S
C1150 C412 0.997 . S
C1159 C297 0.987 . S
C1161 C711 1.017 . S
C1170 C320 0.987 . S
C1172 C734 1.016 . S
C1181 C757 1.014 . S
C1183 C343 0.994 . S
C1192 C642 0.987 . S
C1194 C504 1.017 . S
C1203 C665 0.999 . S
C1205 C527 1.013 . S
C1214 C550 1.016 . S
C1216 C688 0.990 . S
C1225 C42 1.194 . S
C1227 C18 1.339 . S
C1236 C41 1.336 . S
C1238 C65 1.201 . S
C1247 C64 1.337 . S
C1249 C19 1.207 . S
C1258 C87 1.337 . S
C1260 C134 1.199 . S
C1269 C110 1.337 . S
C1271 C88 1.207 . S
C1280 C133 1.341 . S
C1282 C111 1.197 . S
C1291 C181 1.313 . S
C1293 C156 1.400 . S
C1302 C204 1.321 . S
C1304 C179 1.400 . S
C1313 C202 1.399 . S
C1315 C158 1.314 . S
C1324 C225 1.402 . S
C1326 C273 1.321 . S
C1335 C227 1.309 . S
C1337 C248 1.400 . S
C1346 C250 1.321 . S
C1348 C271 1.401 . S
C1357 C318 1.201 . S
C1359 C294 1.336 . S
C1368 C341 1.194 . S
C1370 C317 1.340 . S
C1379 C340 1.338 . S
C1381 C295 1.205 . S
C1390 C410 1.193 . S
C1392 C363 1.340 . S
C1401 C364 1.203 . S
C1403 C386 1.339 . S
C1412 C409 1.334 . S
C1414 C387 1.206 . S
C1423 C432 1.399 . S
C1425 C457 1.315 . S
C1434 C480 1.320 . S
C1436 C455 1.400 . S
C1445 C478 1.402 . S
C1447 C434 1.311 . S
C1456 C501 1.404 . S
C1458 C549 1.315 . S
C1467 C524 1.399 . S
C1469 C503 1.316 . S
C1478 C547 1.400 . S
C1480 C526 1.320 . S
C1489 C594 1.193 . S
C1491 C570 1.340 . S
C1500 C593 1.335 . S
C1502 C617 1.209 . S
C1511 C616 1.337 . S
C1513 C571 1.198 . S
C1522 C686 1.200 . S
C1524 C639 1.340 . S
C1533 C640 1.200 . S
C1535 C662 1.340 . S
C1544 C685 1.340 . S
C1546 C663 1.195 . S
C1555 C708 1.399 . S
C1557 C733 1.316 . S
C1566 C756 1.317 . S
C1568 C731 1.403 . S
C1577 C710 1.313 . S
C1579 C754 1.400 . S
C1588 C825 1.322 . S
C1590 C777 1.401 . S
C1599 C800 1.402 . S
C1601 C779 1.311 . S
C1610 C823 1.402 . S
C1612 C802 1.311 . S
C1621 C180 1.505 1_545 S
C1623 C17 1.862 . S
C1632 C40 1.857 . S
C1634 C203 1.521 1_655 S
C1643 C63 1.861 . S
C1645 C157 1.516 . S
C1654 C86 1.859 . S
C1656 C272 1.517 1_455 S
C1665 C226 1.522 . S
C1667 C109 1.859 . S
C1676 C249 1.518 1_565 S
C1678 C132 1.859 . S
C1687 C43 1.646 1_565 S
C1689 C155 1.853 . S
C1698 C178 1.858 . S
C1700 C66 1.636 1_455 S
C1709 C201 1.854 . S
C1711 C20 1.639 . S
C1720 C135 1.632 1_655 S
C1722 C224 1.858 . S
C1731 C89 1.632 . S
C1733 C247 1.858 . S
C1742 C270 1.854 . S
C1744 C112 1.641 1_545 S
C1753 C293 1.857 . S
C1755 C456 1.526 . S
C1764 C316 1.863 . S
C1766 C479 1.514 . S
C1775 C339 1.863 . S
C1777 C433 1.513 . S
C1786 C548 1.512 . S
C1788 C362 1.862 . S
C1797 C385 1.863 . S
C1799 C502 1.513 . S
C1808 C525 1.523 . S
C1810 C408 1.859 . S
C1819 C319 1.633 . S
C1821 C431 1.858 . S
C1830 C342 1.640 . S
C1832 C454 1.854 . S
C1841 C296 1.639 . S
C1843 C477 1.857 . S
C1852 C411 1.633 . S
C1854 C500 1.857 . S
C1863 C365 1.634 . S
C1865 C523 1.857 . S
C1874 C546 1.854 . S
C1876 C388 1.640 . S
C1885 C569 1.862 . S
C1887 C732 1.514 . S
C1896 C592 1.857 . S
C1898 C755 1.526 . S
C1907 C709 1.520 . S
C1909 C615 1.859 . S
C1918 C824 1.522 . S
C1920 C638 1.859 . S
C1929 C778 1.519 . S
C1931 C661 1.860 . S
C1940 C684 1.859 . S
C1942 C801 1.521 . S
C1951 C707 1.856 . S
C1953 C595 1.640 . S
C1962 C730 1.852 . S
C1964 C618 1.645 . S
C1973 C753 1.858 . S
C1975 C572 1.634 . S
C1984 C776 1.857 . S
C1986 C687 1.638 . S
C1995 C799 1.858 . S
C1997 C641 1.636 . S
C2006 C664 1.645 . S
C2008 C822 1.855 . S
