# Generated by pormake.
# Topology lhb, (8)-cn, num edge types: 1
# Building blocks:
#     Node 0, Type 0, BuildingBlock: TAGTUT_clean_sbu_3, # of connection points: 8
#     Node 1, Type 0, BuildingBlock: TAGTUT_clean_sbu_3, # of connection points: 8
#     Node 2, Type 0, BuildingBlock: TAGTUT_clean_sbu_3, # of connection points: 8
#     Node 3, Type 0, BuildingBlock: TAGTUT_clean_sbu_3, # of connection points: 8
#     Node 4, Type 0, BuildingBlock: TAGTUT_clean_sbu_3, # of connection points: 8
#     Node 5, Type 0, BuildingBlock: TAGTUT_clean_sbu_3, # of connection points: 8
#     Node 6, Type 0, BuildingBlock: TAGTUT_clean_sbu_3, # of connection points: 8
#     Node 7, Type 0, BuildingBlock: TAGTUT_clean_sbu_3, # of connection points: 8
#     Edge 8, Type (0, 0), BuildingBlock: KIFKEQ_clean_linker_1, # of connection points: 2
#     Edge 9, Type (0, 0), BuildingBlock: KIFKEQ_clean_linker_1, # of connection points: 2
#     Edge 10, Type (0, 0), BuildingBlock: KIFKEQ_clean_linker_1, # of connection points: 2
#     Edge 11, Type (0, 0), BuildingBlock: KIFKEQ_clean_linker_1, # of connection points: 2
#     Edge 12, Type (0, 0), BuildingBlock: KIFKEQ_clean_linker_1, # of connection points: 2
#     Edge 13, Type (0, 0), BuildingBlock: KIFKEQ_clean_linker_1, # of connection points: 2
#     Edge 14, Type (0, 0), BuildingBlock: KIFKEQ_clean_linker_1, # of connection points: 2
#     Edge 15, Type (0, 0), BuildingBlock: KIFKEQ_clean_linker_1, # of connection points: 2
#     Edge 16, Type (0, 0), BuildingBlock: KIFKEQ_clean_linker_1, # of connection points: 2
#     Edge 17, Type (0, 0), BuildingBlock: KIFKEQ_clean_linker_1, # of connection points: 2
#     Edge 18, Type (0, 0), BuildingBlock: KIFKEQ_clean_linker_1, # of connection points: 2
#     Edge 19, Type (0, 0), BuildingBlock: KIFKEQ_clean_linker_1, # of connection points: 2
#     Edge 20, Type (0, 0), BuildingBlock: KIFKEQ_clean_linker_1, # of connection points: 2
#     Edge 21, Type (0, 0), BuildingBlock: KIFKEQ_clean_linker_1, # of connection points: 2
#     Edge 22, Type (0, 0), BuildingBlock: KIFKEQ_clean_linker_1, # of connection points: 2
#     Edge 23, Type (0, 0), BuildingBlock: KIFKEQ_clean_linker_1, # of connection points: 2
#     Edge 24, Type (0, 0), BuildingBlock: KIFKEQ_clean_linker_1, # of connection points: 2
#     Edge 25, Type (0, 0), BuildingBlock: KIFKEQ_clean_linker_1, # of connection points: 2
#     Edge 26, Type (0, 0), BuildingBlock: KIFKEQ_clean_linker_1, # of connection points: 2
#     Edge 27, Type (0, 0), BuildingBlock: KIFKEQ_clean_linker_1, # of connection points: 2
#     Edge 28, Type (0, 0), BuildingBlock: KIFKEQ_clean_linker_1, # of connection points: 2
#     Edge 29, Type (0, 0), BuildingBlock: KIFKEQ_clean_linker_1, # of connection points: 2
#     Edge 30, Type (0, 0), BuildingBlock: KIFKEQ_clean_linker_1, # of connection points: 2
#     Edge 31, Type (0, 0), BuildingBlock: KIFKEQ_clean_linker_1, # of connection points: 2
#     Edge 32, Type (0, 0), BuildingBlock: KIFKEQ_clean_linker_1, # of connection points: 2
#     Edge 33, Type (0, 0), BuildingBlock: KIFKEQ_clean_linker_1, # of connection points: 2
#     Edge 34, Type (0, 0), BuildingBlock: KIFKEQ_clean_linker_1, # of connection points: 2
#     Edge 35, Type (0, 0), BuildingBlock: KIFKEQ_clean_linker_1, # of connection points: 2
#     Edge 36, Type (0, 0), BuildingBlock: KIFKEQ_clean_linker_1, # of connection points: 2
#     Edge 37, Type (0, 0), BuildingBlock: KIFKEQ_clean_linker_1, # of connection points: 2
#     Edge 38, Type (0, 0), BuildingBlock: KIFKEQ_clean_linker_1, # of connection points: 2
#     Edge 39, Type (0, 0), BuildingBlock: KIFKEQ_clean_linker_1, # of connection points: 2
# Relax obj value: 0.102
# Max RMSD: 0.194
# Mean RMSD: 0.194
data_MOF--net-lhb--node1-TAGTUT_clean_sbu_3--edge1-KIFKEQ_clean_linker_1
_symmetry_space_group_name_H-M    P1
_symmetry_Int_Tables_number       1
_symmetry_cell_setting            triclinic
loop_
_symmetry_equiv_pos_as_xyz
'x, y, z'
_cell_length_a     34.401218
_cell_length_b     15.219533
_cell_length_c     58.500435
_cell_angle_alpha  95.744377
_cell_angle_beta   89.912347
_cell_angle_gamma 90.105458
loop_
_atom_site_label
_atom_site_type_symbol
_atom_site_fract_x
_atom_site_fract_y
_atom_site_fract_z
_atom_type_partial_charge
C0 C 1.00008 0.20644 0.98812 0.0
C1 C 0.91605 0.0513 0.93112 0.0
C2 C 0.88172 0.88145 0.98399 0.0
Mg3 Mg 0.04581 0.16243 0.03324 0.0
Mg4 Mg 0.07552 0.96264 0.03995 0.0
O5 O 0.03477 0.03298 0.0326 0.0
Mg6 Mg 1.00243 0.01338 0.00419 0.0
O7 O 0.96822 0.00632 0.97657 0.0
Mg8 Mg 0.92458 0.08294 0.98879 0.0
Mg9 Mg 0.9568 0.90602 0.9565 0.0
C10 C 0.01428 0.81922 0.02044 0.0
O11 O 0.05017 0.95228 0.98074 0.0
O12 O 0.06872 0.15752 0.07102 0.0
O13 O 0.01776 0.86338 0.95374 0.0
O14 O 0.10902 0.13937 0.01851 0.0
O15 O 0.07958 0.01376 0.07478 0.0
O16 O 0.12547 -0.00094 0.02138 0.0
O17 O 0.95084 0.06868 0.02569 0.0
O18 O 0.98309 0.17515 0.04702 0.0
C19 C 0.95357 0.12355 0.0438 0.0
C20 C 0.07701 0.09426 0.08325 0.0
O21 O 0.99108 0.87408 0.0123 0.0
O22 O 0.90759 0.09253 0.95075 0.0
O23 O 0.04699 0.8407 0.02988 0.0
O24 O 0.88456 0.96385 0.99055 0.0
O25 O 0.93483 -0.02177 0.92914 0.0
O26 O 0.90826 0.84026 0.97188 0.0
O27 O 0.02027 0.14902 0.99691 0.0
O28 O 0.9638 0.19613 0.98488 0.0
C29 C 0.13323 0.07525 0.0153 0.0
C30 C 0.04945 0.89361 0.96335 0.0
C31 C 0.36082 0.28219 0.29337 0.0
C32 C 0.22792 0.30591 0.32984 0.0
C33 C 0.18331 0.31422 0.25983 0.0
Mg34 Mg 0.38806 0.23148 0.23876 0.0
Mg35 Mg 0.34125 0.07416 0.20555 0.0
O36 O 0.33886 0.17763 0.22604 0.0
Mg37 Mg 0.30472 0.19822 0.2534 0.0
O38 O 0.27242 0.22858 0.28147 0.0
Mg39 Mg 0.27331 0.3599 0.2826 0.0
Mg40 Mg 0.22448 0.17673 0.28556 0.0
C41 C 0.24956 0.10482 0.21204 0.0
O42 O 0.30297 0.05972 0.26222 0.0
O43 O 0.40578 0.2365 0.20064 0.0
O44 O 0.24491 0.04394 0.27956 0.0
O45 O 0.41483 0.09563 0.23974 0.0
O46 O 0.36907 0.13841 0.17869 0.0
O47 O 0.38345 -0.01381 0.21921 0.0
O48 O 0.30206 0.33905 0.24744 0.0
O49 O 0.36293 0.36567 0.23784 0.0
C50 C 0.32862 0.39185 0.24267 0.0
C51 C 0.39373 0.20186 0.18096 0.0
O52 O 0.25401 0.16248 0.22942 0.0
O53 O 0.24554 0.36377 0.31903 0.0
O54 O 0.27773 0.05808 0.20274 0.0
O55 O 0.21142 0.36689 0.26604 0.0
O56 O 0.21766 0.23025 0.32026 0.0
O57 O 0.18377 0.23344 0.26385 0.0
O58 O 0.35885 0.22731 0.27526 0.0
O59 O 0.33417 0.34056 0.29799 0.0
C60 C 0.41126 0.01421 0.23251 0.0
C61 C 0.27773 0.01382 0.27192 0.0
C62 C 0.85929 0.80141 0.29291 0.0
C63 C 0.71816 0.76232 0.3237 0.0
C64 C 0.68258 0.81145 0.25516 0.0
Mg65 Mg 0.89094 0.79324 0.23826 0.0
Mg66 Mg 0.8551 0.63975 0.20024 0.0
O67 O 0.84497 0.73543 0.22242 0.0
Mg68 Mg 0.80933 0.72823 0.24908 0.0
O69 O 0.77472 0.72995 0.27685 0.0
Mg70 Mg 0.76785 0.86012 0.28399 0.0
Mg71 Mg 0.72813 0.66845 0.27435 0.0
C72 C 0.76239 0.63167 0.20554 0.0
O73 O 0.81544 0.5831 0.25108 0.0
O74 O 0.91011 0.82328 0.20137 0.0
O75 O 0.754 0.54761 0.26102 0.0
O76 O 0.92558 0.66529 0.23557 0.0
O77 O 0.88078 0.72229 0.17627 0.0
O78 O 0.89995 0.55546 0.21255 0.0
O79 O 0.79928 0.87287 0.25039 0.0
O80 O 0.85841 0.91943 0.24218 0.0
C81 C 0.82409 0.93419 0.24962 0.0
C82 C 0.90143 0.79226 0.18068 0.0
O83 O 0.76133 0.68963 0.22309 0.0
O84 O 0.73742 0.82871 0.31767 0.0
O85 O 0.79411 0.59953 0.19646 0.0
O86 O 0.70606 0.8656 0.26633 0.0
O87 O 0.71102 0.69377 0.30976 0.0
O88 O 0.68882 0.72886 0.25324 0.0
O89 O 0.86062 0.75957 0.27275 0.0
O90 O 0.8289 0.84567 0.29989 0.0
C91 C 0.92636 0.58562 0.22652 0.0
C92 C 0.78882 0.52734 0.25478 0.0
C93 C 0.98087 0.6481 0.48865 0.0
C94 C 0.91479 0.45875 0.4255 0.0
C95 C 0.89348 0.27559 0.47835 0.0
Mg96 Mg 0.03647 0.60995 0.52843 0.0
Mg97 Mg 0.08015 0.42208 0.52907 0.0
O98 O 0.03287 0.47898 0.5277 0.0
Mg99 Mg 1.00114 0.45246 0.49918 0.0
O100 O 0.9681 0.43487 0.47132 0.0
Mg101 Mg 0.91922 0.49169 0.4833 0.0
Mg102 Mg 0.96454 0.3301 0.45148 0.0
C103 C 0.02309 0.26533 0.51795 0.0
O104 O 0.05216 0.41022 0.47588 0.0
O105 O 0.06616 0.60903 0.56457 0.0
O106 O 0.02725 0.30624 0.44953 0.0
O107 O 0.09884 0.60897 0.51165 0.0
O108 O 0.09596 0.47691 0.56237 0.0
O109 O 0.11932 0.4697 0.5054 0.0
O110 O 0.94712 0.4894 0.52024 0.0
O111 O 0.97471 0.59803 0.5435 0.0
C112 C 0.94586 0.54585 0.5381 0.0
C113 C 0.08745 0.55139 0.57327 0.0
O114 O 0.99868 0.31294 0.50819 0.0
O115 O 0.90175 0.49452 0.44487 0.0
O116 O 0.05678 0.29238 0.52481 0.0
O117 O 0.89056 0.35769 0.48501 0.0
O118 O 0.93923 0.39495 0.42411 0.0
O119 O 0.9213 0.24541 0.46536 0.0
O120 O 0.00689 0.59376 0.49336 0.0
O121 O 0.94712 0.62292 0.48202 0.0
C122 C 0.12395 0.55164 0.50355 0.0
C123 C 0.05602 0.35044 0.45893 0.0
C124 C 0.31026 0.92223 0.74189 0.0
C125 C 0.38794 0.7503 0.68364 0.0
C126 C 0.40872 0.56507 0.73529 0.0
Mg127 Mg 0.25762 0.87956 0.78472 0.0
Mg128 Mg 0.21621 0.68691 0.78675 0.0
O129 O 0.26168 0.74773 0.78227 0.0
Mg130 Mg 0.29495 0.72679 0.7543 0.0
O131 O 0.33065 0.71584 0.72738 0.0
Mg132 Mg 0.37745 0.77683 0.74139 0.0
Mg133 Mg 0.33793 0.61395 0.70701 0.0
C134 C 0.26901 0.53228 0.76474 0.0
O135 O 0.24584 0.68462 0.7294 0.0
O136 O 0.23107 0.87054 0.82144 0.0
O137 O 0.27538 0.58613 0.70335 0.0
O138 O 0.19523 0.87747 0.7687 0.0
O139 O 0.21082 0.72992 0.82219 0.0
O140 O 0.17136 0.74091 0.7677 0.0
O141 O 0.34757 0.76431 0.77732 0.0
O142 O 0.31877 0.8731 0.79965 0.0
C143 C 0.34732 0.81978 0.79539 0.0
C144 C 0.21754 0.80713 0.83217 0.0
O145 O 0.29697 0.58286 0.75971 0.0
O146 O 0.39756 0.78671 0.70365 0.0
O147 O 0.23687 0.55998 0.77384 0.0
O148 O 0.40956 0.64671 0.74281 0.0
O149 O 0.3653 0.68309 0.68083 0.0
O150 O 0.382 0.53333 0.72167 0.0
O151 O 0.28617 0.86804 0.74905 0.0
O152 O 0.34583 0.90237 0.73868 0.0
C153 C 0.16827 0.82082 0.76337 0.0
C154 C 0.24486 0.62532 0.71216 0.0
C155 C 0.81945 0.43411 0.73835 0.0
C156 C 0.88206 0.24556 0.67568 0.0
C157 C 0.90867 0.06379 0.72703 0.0
Mg158 Mg 0.76764 0.40297 0.77946 0.0
Mg159 Mg 0.72423 0.21684 0.78666 0.0
O160 O 0.77008 0.27224 0.77997 0.0
Mg161 Mg 0.80003 0.24017 0.75104 0.0
O162 O 0.83202 0.21919 0.72276 0.0
Mg163 Mg 0.88133 0.2786 0.73329 0.0
Mg164 Mg 0.83492 0.11519 0.70274 0.0
C165 C 0.77919 0.05705 0.77279 0.0
O166 O 0.74735 0.19475 0.72886 0.0
O167 O 0.74308 0.41198 0.81671 0.0
O168 O 0.77243 0.08966 0.70282 0.0
O169 O 0.70388 0.39936 0.76482 0.0
O170 O 0.71892 0.27699 0.8209 0.0
O171 O 0.68032 0.2626 0.76525 0.0
O172 O 0.85586 0.27723 0.77101 0.0
O173 O 0.83031 0.39193 0.79305 0.0
C174 C 0.85779 0.33544 0.7885 0.0
C175 C 0.72783 0.35557 0.82899 0.0
O176 O 0.80231 0.10256 0.76141 0.0
O177 O 0.89533 0.28191 0.69486 0.0
O178 O 0.74705 0.08644 0.78159 0.0
O179 O 0.91194 0.14604 0.73344 0.0
O180 O 0.85842 0.18 0.6744 0.0
O181 O 0.8792 0.03199 0.71581 0.0
O182 O 0.79374 0.38015 0.74376 0.0
O183 O 0.8533 0.40879 0.73221 0.0
C184 C 0.67694 0.34173 0.76018 0.0
C185 C 0.7435 0.13245 0.71247 0.0
C186 C 0.48683 0.13586 0.49089 0.0
C187 C 0.41727 0.95474 0.4297 0.0
C188 C 0.39379 0.76994 0.48172 0.0
Mg189 Mg 0.54122 0.10188 0.53069 0.0
Mg190 Mg 0.58448 0.91472 0.53631 0.0
O191 O 0.5385 0.97091 0.53051 0.0
Mg192 Mg 0.50599 0.94044 0.50246 0.0
O193 O 0.47131 0.92145 0.47518 0.0
Mg194 Mg 0.42356 -0.01715 0.48746 0.0
Mg195 Mg 0.46543 0.81997 0.45441 0.0
C196 C 0.52773 0.75657 0.52343 0.0
O197 O 0.55622 0.89236 0.47832 0.0
O198 O 0.56766 0.10795 0.56756 0.0
O199 O 0.52761 0.78955 0.45292 0.0
O200 O 0.60373 0.09759 0.51449 0.0
O201 O 0.59142 0.97216 0.57078 0.0
O202 O 0.62726 0.96071 0.51409 0.0
O203 O 0.4522 -0.0205 0.52422 0.0
O204 O 0.47968 0.09267 0.54583 0.0
C205 C 0.45159 0.03739 0.5418 0.0
C206 C 0.58304 0.05037 0.57938 0.0
O207 O 0.50376 0.80246 0.51278 0.0
O208 O 0.40551 -0.01143 0.44952 0.0
O209 O 0.56059 0.7854 0.53128 0.0
O210 O 0.39261 0.8515 0.48924 0.0
O211 O 0.44086 0.88933 0.42725 0.0
O212 O 0.42062 0.7389 0.4681 0.0
O213 O 0.51266 0.08106 0.4955 0.0
O214 O 0.45258 0.11146 0.48533 0.0
C215 C 0.63027 0.03995 0.50904 0.0
C216 C 0.55782 0.82973 0.46182 0.0
C217 C 0.47104 0.67778 0.00316 0.0
C218 C 0.40026 0.51376 0.93453 0.0
C219 C 0.39365 0.29663 0.97823 0.0
Mg220 Mg 0.53396 0.6137 0.03656 0.0
Mg221 Mg 0.58449 0.43555 0.02365 0.0
O222 O 0.53496 0.48444 0.02763 0.0
Mg223 Mg 0.49894 0.47901 1.0007 0.0
O224 O 0.46184 0.47854 0.97487 0.0
Mg225 Mg 0.41337 0.51445 0.99191 0.0
Mg226 Mg 0.45844 0.38092 0.95243 0.0
C227 C 0.5299 0.28306 0.00399 0.0
O228 O 0.54729 0.46504 0.97404 0.0
O229 O 0.56783 0.58442 0.06903 0.0
O230 O 0.52103 0.36821 0.94641 0.0
O231 O 0.59365 0.64039 0.0189 0.0
O232 O 0.60127 0.45942 0.05903 0.0
O233 O 0.62 0.51394 0.00392 0.0
O234 O 0.4473 0.48671 0.02559 0.0
O235 O 0.4757 0.58026 0.05249 0.0
C236 C 0.44723 0.52951 0.04567 0.0
C237 C 0.591 0.52284 0.07388 0.0
O238 O 0.50218 0.33536 1.00026 0.0
O239 O 0.39089 0.54178 0.95536 0.0
O240 O 0.56435 0.30791 0.01003 0.0
O241 O 0.38836 0.37433 0.98799 0.0
O242 O 0.42497 0.45182 0.92963 0.0
O243 O 0.42137 0.27889 0.96403 0.0
O244 O 0.49929 0.62446 0.00374 0.0
O245 O 0.43706 0.6517 0.99713 0.0
C246 C 0.62048 0.59781 0.00729 0.0
C247 C 0.54996 0.41281 0.95547 0.0
H248 H 0.11368 0.2388 0.10512 0.0
H249 H 0.06104 -0.01082 0.11663 0.0
H250 H 0.14442 0.24521 0.14296 0.0
H251 H 0.09145 -0.00422 0.15433 0.0
H252 H 0.19566 0.2358 0.21268 0.0
H253 H 0.14046 0.24299 0.1868 0.0
H254 H 0.16413 -0.02394 0.15789 0.0
H255 H 0.21913 0.96869 0.18378 0.0
C256 C 0.10748 0.18724 0.11609 0.0
C257 C 0.08594 0.11249 0.10783 0.0
C258 C 0.12496 0.19086 0.13775 0.0
C259 C 0.12085 0.11993 0.15129 0.0
C260 C 0.09558 0.05042 0.14404 0.0
C261 C 0.07829 0.0467 0.12248 0.0
C262 C 0.18822 0.17754 0.20138 0.0
C263 C 0.21178 0.10165 0.20015 0.0
C264 C 0.15683 0.18211 0.18646 0.0
C265 C 0.14821 0.1104 0.17032 0.0
C266 C 0.1699 0.03213 0.17034 0.0
C267 C 0.20155 0.02797 0.18504 0.0
H268 H 0.9717 0.18058 0.08857 0.0
H269 H 0.89591 0.00035 0.04776 0.0
H270 H 0.95905 0.10309 0.12182 0.0
H271 H 0.88131 0.92556 0.08168 0.0
H272 H 0.90638 0.73577 0.1349 0.0
H273 H 0.91324 0.82554 0.10298 0.0
H274 H 0.92007 0.06049 0.15095 0.0
H275 H 0.91525 0.96984 0.18281 0.0
C276 C 0.95119 0.12626 0.08678 0.0
C277 C 0.93555 0.09578 0.06515 0.0
C278 C 0.94387 0.08147 0.10606 0.0
C279 C 0.91994 0.00609 0.10447 0.0
C280 C 0.90108 -0.01877 0.08343 0.0
C281 C 0.90891 0.02522 0.064 0.0
C282 C 0.90994 0.80649 0.13861 0.0
C283 C 0.91062 0.84541 0.16143 0.0
C284 C 0.91324 0.85839 0.12026 0.0
C285 C 0.9166 0.95095 0.12419 0.0
C286 C 0.91796 -0.01041 0.1471 0.0
C287 C 0.91531 0.93745 0.16545 0.0
H288 H 0.1117 0.47654 0.45738 0.0
H289 H 0.08494 0.20542 0.43366 0.0
H290 H 0.16799 0.47192 0.43198 0.0
H291 H 0.14015 0.20151 0.40766 0.0
H292 H 0.23791 0.19547 0.3625 0.0
H293 H 0.20937 0.20936 0.40082 0.0
H294 H 0.16788 0.4701 0.3901 0.0
H295 H 0.19791 0.45697 0.35202 0.0
C296 C 0.11872 0.41491 0.44739 0.0
C297 C 0.09409 0.34115 0.44751 0.0
C298 C 0.15065 0.41272 0.43263 0.0
C299 C 0.15833 0.33676 0.4177 0.0
C300 C 0.13536 0.26085 0.41914 0.0
C301 C 0.10348 0.26314 0.43388 0.0
C302 C 0.22365 0.25672 0.36869 0.0
C303 C 0.21915 0.32451 0.35433 0.0
C304 C 0.20734 0.26463 0.39057 0.0
C305 C 0.1856 0.33977 0.39822 0.0
C306 C 0.18458 0.41138 0.38471 0.0
C307 C 0.20153 0.40393 0.36288 0.0
H308 H 0.90008 0.64648 0.28986 0.0
H309 H 0.86859 0.87033 0.33764 0.0
H310 H 0.9146 0.56177 0.32159 0.0
H311 H 0.88519 0.78654 0.3696 0.0
H312 H 0.85915 0.58271 0.41899 0.0
H313 H 0.85378 0.6716 0.38677 0.0
H314 H 0.95052 0.53011 0.35336 0.0
H315 H 0.95455 0.43872 0.38491 0.0
C316 C 0.8978 0.67916 0.30713 0.0
C317 C 0.88225 0.76483 0.31117 0.0
C318 C 0.90605 0.63006 0.32546 0.0
C319 C 0.89982 0.66613 0.34826 0.0
C320 C 0.88881 0.75539 0.35226 0.0
C321 C 0.88 0.80412 0.33393 0.0
C322 C 0.87879 0.56957 0.40457 0.0
C323 C 0.90711 0.50321 0.40455 0.0
C324 C 0.8762 0.62161 0.38624 0.0
C325 C 0.90224 0.60947 0.36757 0.0
C326 C 0.92979 0.54127 0.36728 0.0
C327 C 0.932 0.48845 0.38543 0.0
H328 H 0.15502 0.48847 0.5875 0.0
H329 H 0.05814 0.65387 0.61111 0.0
H330 H 0.18194 0.50222 0.62565 0.0
H331 H 0.08537 0.6669 0.65029 0.0
H332 H 0.19094 0.7475 0.70314 0.0
H333 H 0.14349 0.7301 0.67196 0.0
H334 H 0.16792 0.45035 0.66251 0.0
H335 H 0.2169 0.469 0.69266 0.0
C336 C 0.13927 0.52747 0.60099 0.0
C337 C 0.10424 0.56929 0.5964 0.0
C338 C 0.15451 0.53451 0.62299 0.0
C339 C 0.13508 0.58304 0.64119 0.0
C340 C 0.10064 0.628 0.63661 0.0
C341 C 0.08526 0.62114 0.61426 0.0
C342 C 0.18514 0.6819 0.69485 0.0
C343 C 0.20816 0.60984 0.69967 0.0
C344 C 0.15789 0.67194 0.67706 0.0
C345 C 0.15309 0.58947 0.66428 0.0
C346 C 0.17207 0.51532 0.67157 0.0
C347 C 0.19992 0.52568 0.68886 0.0
H348 H 0.89024 0.17755 0.63062 0.0
H349 H 0.88336 0.42194 0.67467 0.0
H350 H 0.89569 0.2608 0.59711 0.0
H351 H 0.88531 0.50489 0.64153 0.0
H352 H 0.94625 0.62246 0.58239 0.0
H353 H 0.9268 0.55147 0.61546 0.0
H354 H 0.86739 0.34857 0.57148 0.0
H355 H 0.88956 0.41718 0.53795 0.0
C356 C 0.88985 0.24904 0.63306 0.0
C357 C 0.88761 0.29335 0.65521 0.0
C358 C 0.89222 0.29702 0.61387 0.0
C359 C 0.89107 0.39025 0.61644 0.0
C360 C 0.8875 0.43371 0.63871 0.0
C361 C 0.88645 0.38602 0.65781 0.0
C362 C 0.92821 0.56393 0.57965 0.0
C363 C 0.92073 0.52397 0.55738 0.0
C364 C 0.91683 0.52282 0.59882 0.0
C365 C 0.89649 0.44207 0.5963 0.0
C366 C 0.88445 0.40855 0.57412 0.0
C367 C 0.89655 0.44893 0.55485 0.0
H368 H 0.21696 0.68513 0.86286 0.0
H369 H 0.1973 0.96237 0.85712 0.0
H370 H 0.18888 0.70064 0.90124 0.0
H371 H 0.16848 -0.02241 0.89553 0.0
H372 H 0.11726 -0.01236 0.96504 0.0
H373 H 0.17162 0.96531 0.93819 0.0
H374 H 0.11865 0.7229 0.90831 0.0
H375 H 0.06467 0.74489 0.93504 0.0
C376 C 0.20721 0.74981 0.86999 0.0
C377 C 0.20821 0.82215 0.85682 0.0
C378 C 0.19133 0.75862 0.89198 0.0
C379 C 0.17589 0.83978 0.90116 0.0
C380 C 0.18033 0.91421 0.8889 0.0
C381 C 0.19655 0.90549 0.86686 0.0
C382 C 0.11792 0.92809 0.95324 0.0
C383 C 0.0864 0.86872 0.95176 0.0
C384 C 0.14892 0.91574 0.93781 0.0
C385 C 0.14907 0.84315 0.921 0.0
C386 C 0.11947 0.77935 0.92115 0.0
C387 C 0.08836 0.79218 0.93635 0.0
H388 H 0.85624 0.41665 0.83243 0.0
H389 H 0.90939 0.19834 0.79083 0.0
H390 H 0.8725 0.34957 0.86671 0.0
H391 H 0.92829 0.13358 0.82554 0.0
H392 H 0.90392 -0.02215 0.88697 0.0
H393 H 0.89809 0.05472 0.85249 0.0
H394 H 0.91292 0.30475 0.89381 0.0
H395 H 0.9158 0.22801 0.92812 0.0
C396 C 0.87275 0.3558 0.83055 0.0
C397 C 0.88043 0.31189 0.80868 0.0
C398 C 0.88225 0.31698 0.85043 0.0
C399 C 0.9008 0.23427 0.8491 0.0
C400 C 0.91261 0.19548 0.82731 0.0
C401 C 0.90241 0.23361 0.80733 0.0
C402 C 0.90529 0.04932 0.8886 0.0
C403 C 0.90947 0.0969 0.91028 0.0
C404 C 0.90264 0.09363 0.86879 0.0
C405 C 0.90518 0.18656 0.87012 0.0
C406 C 0.9099 0.23361 0.89192 0.0
C407 C 0.91151 0.18949 0.91171 0.0
H408 H 0.71683 -0.01961 0.68981 0.0
H409 H 0.68451 0.2512 0.70996 0.0
H410 H 0.66392 0.96664 0.66246 0.0
H411 H 0.63064 0.23724 0.68258 0.0
H412 H 0.61042 0.20586 0.60106 0.0
H413 H 0.63576 0.22809 0.64027 0.0
H414 H 0.59626 0.96696 0.65242 0.0
H415 H 0.57258 0.94388 0.61307 0.0
C416 C 0.69748 0.03606 0.68894 0.0
C417 C 0.70516 0.11719 0.70165 0.0
C418 C 0.66688 0.02816 0.67335 0.0
C419 C 0.64341 0.10144 0.67008 0.0
C420 C 0.64865 0.18013 0.6845 0.0
C421 C 0.67923 0.18781 0.70031 0.0
C422 C 0.60642 0.15435 0.61236 0.0
C423 C 0.59073 0.07237 0.60399 0.0
C424 C 0.62057 0.16717 0.63487 0.0
C425 C 0.61864 0.09847 0.6493 0.0
C426 C 0.59897 0.02026 0.64155 0.0
C427 C 0.58554 0.00698 0.61903 0.0
H428 H 0.45756 0.11469 0.58597 0.0
H429 H 0.39699 0.90628 0.54466 0.0
H430 H 0.44136 0.04714 0.62021 0.0
H431 H 0.37808 0.84154 0.57943 0.0
H432 H 0.39888 0.67847 0.63934 0.0
H433 H 0.4071 0.75693 0.60531 0.0
H434 H 0.40125 0.00592 0.64798 0.0
H435 H 0.39598 0.92693 0.68187 0.0
C436 C 0.43946 0.05607 0.58418 0.0
C437 C 0.42957 0.0148 0.56234 0.0
C438 C 0.43 0.01701 0.60405 0.0
C439 C 0.40929 0.93687 0.60277 0.0
C440 C 0.39546 0.90118 0.58112 0.0
C441 C 0.40566 0.93937 0.56113 0.0
C442 C 0.40015 0.74996 0.64137 0.0
C443 C 0.39756 0.79644 0.66328 0.0
C444 C 0.40412 0.79529 0.62182 0.0
C445 C 0.40449 0.88841 0.62364 0.0
C446 C 0.40189 0.9345 0.64571 0.0
C447 C 0.39897 0.88912 0.66525 0.0
H448 H 0.57818 0.27241 0.92852 0.0
H449 H 0.60512 0.5414 0.95441 0.0
H450 H 0.63469 0.26928 0.90355 0.0
H451 H 0.66221 0.53838 0.92923 0.0
H452 H 0.69679 0.51054 0.84824 0.0
H453 H 0.66437 0.5315 0.88564 0.0
H454 H 0.70668 0.27758 0.90158 0.0
H455 H 0.73798 0.25586 0.86406 0.0
C456 C 0.59671 0.33026 0.92916 0.0
C457 C 0.58723 0.40726 0.94317 0.0
C458 C 0.62933 0.3283 0.91507 0.0
C459 C 0.65289 0.40366 0.91453 0.0
C460 C 0.64447 0.47952 0.92936 0.0
C461 C 0.61199 0.48104 0.94376 0.0
C462 C 0.70026 0.46097 0.86013 0.0
C463 C 0.71879 0.38073 0.85323 0.0
C464 C 0.68191 0.47299 0.88156 0.0
C465 C 0.68235 0.40507 0.89621 0.0
C466 C 0.70527 0.33001 0.89037 0.0
C467 C 0.72308 0.31759 0.86895 0.0
H468 H 0.39396 0.69186 0.93526 0.0
H469 H 0.38314 0.44973 0.89065 0.0
H470 H 0.39102 0.77649 0.90214 0.0
H471 H 0.3775 0.53376 0.85755 0.0
H472 H 0.39873 0.68296 0.79852 0.0
H473 H 0.41338 0.61448 0.83333 0.0
H474 H 0.35446 0.82777 0.87375 0.0
H475 H 0.34257 0.89893 0.83945 0.0
C476 C 0.38943 0.65699 0.9184 0.0
C477 C 0.38838 0.56436 0.91551 0.0
C478 C 0.38804 0.70544 0.89931 0.0
C479 C 0.38475 0.66231 0.87692 0.0
C480 C 0.38146 0.56956 0.87432 0.0
C481 C 0.38378 0.52121 0.89334 0.0
C482 C 0.3902 0.7169 0.81492 0.0
C483 C 0.3684 0.79527 0.81599 0.0
C484 C 0.39787 0.67663 0.83492 0.0
C485 C 0.38357 0.71326 0.85639 0.0
C486 C 0.36573 0.79662 0.85766 0.0
C487 C 0.35882 0.83771 0.83779 0.0
H488 H 0.65457 0.43561 0.08703 0.0
H489 H 0.56501 0.61751 0.11327 0.0
H490 H 0.68628 0.45111 0.12392 0.0
H491 H 0.59598 0.6301 0.15101 0.0
H492 H 0.74093 0.4662 0.18923 0.0
H493 H 0.68839 0.42614 0.16229 0.0
H494 H 0.65159 0.69931 0.16757 0.0
H495 H 0.70237 0.7371 0.19581 0.0
C496 C 0.64114 0.47748 0.10089 0.0
C497 C 0.60762 0.52631 0.09715 0.0
C498 C 0.65911 0.48564 0.12226 0.0
C499 C 0.6437 0.54179 0.14061 0.0
C500 C 0.60896 0.5873 0.13719 0.0
C501 C 0.59122 0.58009 0.11559 0.0
C502 C 0.72072 0.51677 0.18507 0.0
C503 C 0.72596 0.60484 0.19397 0.0
C504 C 0.69083 0.49421 0.16955 0.0
C505 C 0.6667 0.56005 0.16202 0.0
C506 C 0.66962 0.64675 0.17284 0.0
C507 C 0.69887 0.66875 0.18893 0.0
H508 H 0.41082 0.13749 0.13658 0.0
H509 H 0.38796 0.37715 0.18024 0.0
H510 H 0.41485 0.22221 0.10327 0.0
H511 H 0.38781 0.46057 0.14722 0.0
H512 H 0.44028 0.601 0.08991 0.0
H513 H 0.42559 0.52161 0.12229 0.0
H514 H 0.38494 0.29941 0.07645 0.0
H515 H 0.40323 0.37738 0.04367 0.0
C516 C 0.40684 0.20841 0.13897 0.0
C517 C 0.40045 0.25137 0.16097 0.0
C518 C 0.40826 0.25702 0.11986 0.0
C519 C 0.40174 0.34909 0.12231 0.0
C520 C 0.39433 0.39081 0.14446 0.0
C521 C 0.39445 0.34291 0.16353 0.0
C522 C 0.42742 0.5359 0.08665 0.0
C523 C 0.42402 0.49483 0.06415 0.0
C524 C 0.41871 0.48988 0.1054 0.0
C525 C 0.40493 0.40234 0.10225 0.0
C526 C 0.39697 0.36523 0.07967 0.0
C527 C 0.40663 0.41082 0.06079 0.0
H528 H 0.586 0.67024 0.44454 0.0
H529 H 0.6122 0.94892 0.45137 0.0
H530 H 0.63591 0.64516 0.41506 0.0
H531 H 0.66 0.9257 0.42071 0.0
H532 H 0.74252 0.86673 0.36199 0.0
H533 H 0.7155 0.87283 0.40077 0.0
H534 H 0.63164 0.67197 0.37697 0.0
H535 H 0.65974 0.66317 0.33899 0.0
C536 C 0.60315 0.72578 0.44003 0.0
C537 C 0.59492 0.81157 0.44981 0.0
C538 C 0.63139 0.71181 0.42294 0.0
C539 C 0.65087 0.78382 0.41473 0.0
C540 C 0.64556 0.8685 0.4264 0.0
C541 C 0.61805 0.88205 0.444 0.0
C542 C 0.71853 0.82343 0.36522 0.0
C543 C 0.70307 0.7649 0.34741 0.0
C544 C 0.70303 0.82689 0.38744 0.0
C545 C 0.67139 0.77275 0.39219 0.0
C546 C 0.65663 0.71312 0.37433 0.0
C547 C 0.67246 0.70874 0.35234 0.0
H548 H 0.4108 0.89181 0.38412 0.0
H549 H 0.40951 0.13152 0.43023 0.0
H550 H 0.40403 -0.0213 0.35141 0.0
H551 H 0.40617 0.2185 0.39795 0.0
H552 H 0.35257 0.34454 0.33861 0.0
H553 H 0.36707 0.26568 0.37109 0.0
H554 H 0.43188 0.0721 0.32721 0.0
H555 H 0.41449 0.1485 0.29403 0.0
C556 C 0.40898 0.96306 0.38722 0.0
C557 C 0.40969 0.00464 0.40974 0.0
C558 C 0.40582 0.01328 0.36847 0.0
C559 C 0.40454 0.10642 0.3718 0.0
C560 C 0.40591 0.14734 0.39445 0.0
C561 C 0.40782 0.09721 0.41311 0.0
C562 C 0.37067 0.28629 0.33579 0.0
C563 C 0.38158 0.25211 0.31346 0.0
C564 C 0.37918 0.24056 0.35465 0.0
C565 C 0.40002 0.16063 0.35197 0.0
C566 C 0.41451 0.13146 0.32996 0.0
C567 C 0.40521 0.17635 0.31092 0.0
H568 H 0.03075 0.68141 0.04436 0.0
H569 H 0.99085 0.75125 0.97867 0.0
H570 H 0.04333 0.53211 0.02755 0.0
H571 H 0.00825 0.60617 0.96092 0.0
H572 H 0.97211 0.31221 0.95791 0.0
H573 H 0.98462 0.46738 0.95925 0.0
H574 H 0.0835 0.43872 0.00369 0.0
H575 H 0.06863 0.28208 0.00368 0.0
C576 C 0.02439 0.66397 0.02633 0.0
C577 C 0.00974 0.72661 0.01274 0.0
C578 C 0.03304 0.57982 0.01643 0.0
C579 C 0.02827 0.55804 0.99263 0.0
C580 C 0.01245 0.62065 0.97925 0.0
C581 C 1.00208 0.70341 0.98942 0.0
C582 C 0.99701 0.33882 0.96763 0.0
C583 C 0.01754 0.28806 0.98224 0.0
C584 C 0.00477 0.42793 0.96804 0.0
C585 C 0.03342 0.46607 0.98294 0.0
C586 C 0.05967 0.41109 0.9932 0.0
C587 C 0.05129 0.32173 0.9932 0.0
H588 H 0.38124 0.49943 0.26516 0.0
H589 H 0.26279 0.48517 0.24034 0.0
H590 H 0.36975 0.64868 0.2829 0.0
H591 H 0.25166 0.63555 0.25726 0.0
H592 H 0.23289 0.89278 0.29111 0.0
H593 H 0.24823 0.73746 0.29275 0.0
H594 H 0.3609 0.77883 0.26257 0.0
H595 H 0.34645 0.93297 0.26159 0.0
C596 C 0.35301 0.52921 0.26319 0.0
C597 C 0.32312 0.4834 0.25084 0.0
C598 C 0.34628 0.61328 0.27369 0.0
C599 C 0.30989 0.65256 0.2715 0.0
C600 C 0.27974 0.60561 0.25961 0.0
C601 C 0.28629 0.521 0.24944 0.0
C602 C 0.26115 0.86875 0.28521 0.0
C603 C 0.28788 0.92351 0.2753 0.0
C604 C 0.26997 0.78054 0.28638 0.0
C605 C 0.30534 0.74689 0.27747 0.0
C606 C 0.33346 0.80353 0.26967 0.0
C607 C 0.32479 0.89145 0.26863 0.0
H608 H 0.75449 0.00384 0.2644 0.0
H609 H 0.87877 0.04721 0.26849 0.0
H610 H 0.74388 0.15417 0.28147 0.0
H611 H 0.86805 0.19766 0.28399 0.0
H612 H 0.84038 0.48142 0.28535 0.0
H613 H 0.84193 0.33772 0.30073 0.0
H614 H 0.76026 0.23677 0.24811 0.0
H615 H 0.75771 0.38047 0.23377 0.0
C616 C 0.77943 0.04469 0.26941 0.0
C617 C 0.81727 0.01715 0.26353 0.0
C618 C 0.77342 0.12977 0.27962 0.0
C619 C 0.80511 0.18805 0.28239 0.0
C620 C 0.84301 0.15472 0.28114 0.0
C621 C 0.84911 0.06941 0.27142 0.0
C622 C 0.82375 0.42699 0.27687 0.0
C623 C 0.7998 0.4391 0.2581 0.0
C624 C 0.82364 0.34647 0.28607 0.0
C625 C 0.80006 0.27769 0.27623 0.0
C626 C 0.77736 0.28986 0.25679 0.0
C627 C 0.77703 0.37042 0.24791 0.0
H628 H 0.04676 0.74471 0.49365 0.0
H629 H 0.92359 0.74889 0.50884 0.0
H630 H 0.05271 0.89459 0.51215 0.0
H631 H 0.92975 0.89741 0.52796 0.0
H632 H 0.95712 0.17909 0.50356 0.0
H633 H 0.94226 0.02565 0.50649 0.0
H634 H 0.04581 0.00069 0.54722 0.0
H635 H 0.06138 0.15474 0.5439 0.0
C636 C 0.02117 0.77784 0.50108 0.0
C637 C 0.98458 0.73795 0.49902 0.0
C638 C 0.02464 0.86223 0.51216 0.0
C639 C 0.99154 0.90662 0.52144 0.0
C640 C 0.95545 0.86411 0.52075 0.0
C641 C 0.9519 0.78039 0.5094 0.0
C642 C 0.97642 0.1414 0.51343 0.0
C643 C 0.01133 0.17704 0.5225 0.0
C644 C 0.96749 0.05405 0.51554 0.0
C645 C 0.99341 0.00185 0.52678 0.0
C646 C 0.0259 0.04014 0.53819 0.0
C647 C 0.03498 0.12752 0.53597 0.0
H648 H 0.35446 0.0507 0.72646 0.0
H649 H 0.23536 -0.01974 0.74038 0.0
H650 H 0.33449 0.19778 0.721 0.0
H651 H 0.21482 0.12908 0.73409 0.0
H652 H 0.23191 0.39548 0.78121 0.0
H653 H 0.22977 0.2444 0.76385 0.0
H654 H 0.30096 0.31636 0.70745 0.0
H655 H 0.30572 0.46592 0.726 0.0
C656 C 0.32378 0.06636 0.72791 0.0
C657 C 0.2967 0.00635 0.73526 0.0
C658 C 0.31211 0.15035 0.72417 0.0
C659 C 0.27319 0.1754 0.72783 0.0
C660 C 0.2452 0.11151 0.73184 0.0
C661 C 0.257 0.02722 0.73581 0.0
C662 C 0.24729 0.37842 0.7652 0.0
C663 C 0.27003 0.44072 0.75528 0.0
C664 C 0.24509 0.29278 0.75484 0.0
C665 C 0.26515 0.26886 0.73421 0.0
C666 C 0.28557 0.33313 0.72346 0.0
C667 C 0.28882 0.41804 0.73424 0.0
H668 H 0.87624 0.5367 0.75834 0.0
H669 H 0.75362 0.5312 0.74184 0.0
H670 H 0.86957 0.68514 0.77724 0.0
H671 H 0.74722 0.68175 0.76005 0.0
H672 H 0.73883 0.93983 0.79598 0.0
H673 H 0.75263 0.78323 0.79604 0.0
H674 H 0.85804 0.81654 0.75738 0.0
H675 H 0.84507 0.97229 0.75773 0.0
C676 C 0.84797 0.56807 0.75846 0.0
C677 C 0.81556 0.5249 0.74796 0.0
C678 C 0.84412 0.65189 0.76965 0.0
C679 C 0.80802 0.69397 0.77003 0.0
C680 C 0.77526 0.64957 0.76028 0.0
C681 C 0.77899 0.56486 0.74941 0.0
C682 C 0.76532 0.91388 0.78788 0.0
C683 C 0.79011 0.96692 0.77598 0.0
C684 C 0.77326 0.82481 0.78813 0.0
C685 C 0.80587 0.78858 0.77641 0.0
C686 C 0.83272 0.84335 0.76663 0.0
C687 C 0.82491 0.93223 0.76646 0.0
H688 H 0.56827 0.64268 0.54734 0.0
H689 H 0.4619 0.6696 0.509 0.0
H690 H 0.55464 0.48653 0.54865 0.0
H691 H 0.44893 0.51417 0.51008 0.0
H692 H 0.43104 0.23635 0.51261 0.0
H693 H 0.4382 0.38447 0.53163 0.0
H694 H 0.55973 0.38326 0.51241 0.0
H695 H 0.55286 0.23306 0.49395 0.0
C696 C 0.54177 0.61564 0.53949 0.0
C697 C 0.51689 0.66686 0.5272 0.0
C698 C 0.5339 0.52689 0.54051 0.0
C699 C 0.50124 0.48918 0.5292 0.0
C700 C 0.47429 0.54231 0.51904 0.0
C701 C 0.48207 0.63091 0.51806 0.0
C702 C 0.45925 0.26803 0.51234 0.0
C703 C 0.49122 0.22584 0.50105 0.0
C704 C 0.4634 0.35158 0.52363 0.0
C705 C 0.49933 0.39431 0.52336 0.0
C706 C 0.53181 0.35052 0.51308 0.0
C707 C 0.52779 0.26606 0.50207 0.0
H708 H 0.4176 0.80902 0.00473 0.0
H709 H 0.53534 0.75103 0.02458 0.0
H710 H 0.42964 0.96395 0.01542 0.0
H711 H 0.54536 0.90336 0.03804 0.0
H712 H 0.57189 0.13443 0.99483 0.0
H713 H 0.55555 -0.00956 0.00656 0.0
H714 H 0.44912 0.09695 0.03792 0.0
H715 H 0.46451 0.23938 0.02488 0.0
C716 C 0.44546 0.82864 0.01222 0.0
C717 C 0.47595 0.76822 0.01316 0.0
C718 C 0.45199 0.91709 0.01893 0.0
C719 C 0.48888 0.94485 0.02691 0.0
C720 C 0.51703 0.88283 0.03137 0.0
C721 C 0.51119 0.7953 0.02364 0.0
C722 C 0.54489 0.12599 0.00395 0.0
C723 C 0.5188 0.19543 0.00832 0.0
C724 C 0.53598 0.04494 0.0113 0.0
C725 C 0.50134 0.03375 0.02356 0.0
C726 C 0.47589 0.10448 0.02852 0.0
C727 C 0.48434 0.18483 0.02065 0.0
H728 H 0.36846 0.23979 0.01813 0.0
H729 H 0.34722 0.2161 0.94514 0.0
H730 H 0.30571 0.16923 0.02429 0.0
H731 H 0.28365 0.14855 0.95137 0.0
H732 H 0.15682 0.20535 0.989 0.0
H733 H 0.22347 0.23704 0.97716 0.0
H734 H 0.26532 0.01414 0.00996 0.0
H735 H 0.19895 -0.01943 0.02123 0.0
C736 C 0.35092 0.21647 0.00338 0.0
C737 C 0.36279 0.23174 0.98116 0.0
C738 C 0.315 0.17679 0.00688 0.0
C739 C 0.28989 0.1543 0.98829 0.0
C740 C 0.30258 0.16546 0.96594 0.0
C741 C 0.33904 0.20293 0.96237 0.0
C742 C 0.18016 0.16234 0.99335 0.0
C743 C 0.1726 0.09076 0.00613 0.0
C744 C 0.21817 0.18013 0.98647 0.0
C745 C 0.24934 0.12781 0.99267 0.0
C746 C 0.24173 0.05516 0.00494 0.0
C747 C 0.20371 0.03612 0.01134 0.0
H748 H 0.81287 0.96217 0.99421 0.0
H749 H 0.86461 0.70327 0.98198 0.0
H750 H 0.74958 0.89664 0.99729 0.0
H751 H 0.80071 0.63621 0.98665 0.0
H752 H 0.6769 0.53889 0.97641 0.0
H753 H 0.73969 0.60675 0.97026 0.0
H754 H 0.70929 0.82514 0.02017 0.0
H755 H 0.64581 0.76034 0.02491 0.0
C756 C 0.81089 0.89077 0.99271 0.0
C757 C 0.84403 0.83795 0.98802 0.0
C758 C 0.7743 0.85292 0.99459 0.0
C759 C 0.76959 0.76075 0.99241 0.0
C760 C 0.80289 0.70749 0.98806 0.0
C761 C 0.83968 0.74573 0.98565 0.0
C762 C 0.6833 0.60262 0.98557 0.0
C763 C 0.65608 0.6447 1.00093 0.0
C764 C 0.71968 0.6409 0.98237 0.0
C765 C 0.73011 0.72138 0.99484 0.0
C766 C 0.70239 0.7641 0.00985 0.0
C767 C 0.66576 0.72683 0.01263 0.0
H768 H 0.11995 0.22103 0.24229 0.0
H769 H 0.16497 0.4867 0.25534 0.0
H770 H 0.05671 0.27988 0.2328 0.0
H771 H 0.10188 0.54506 0.24557 0.0
H772 H 0.95503 0.43666 0.20131 0.0
H773 H 0.01856 0.36737 0.20612 0.0
H774 H 0.03944 0.54737 0.26672 0.0
H775 H 0.97678 0.6159 0.26202 0.0
C776 C 0.1166 0.29194 0.24278 0.0
C777 C 0.14741 0.34922 0.25002 0.0
C778 C 0.08034 0.32552 0.23724 0.0
C779 C 0.07408 0.41704 0.23892 0.0
C780 C 0.10559 0.47413 0.24464 0.0
C781 C 0.14187 0.44065 0.25007 0.0
C782 C 0.97296 0.46016 0.21586 0.0
C783 C 0.96101 0.53239 0.23112 0.0
C784 C 0.00938 0.42091 0.21854 0.0
C785 C 0.03441 0.45354 0.23646 0.0
C786 C 0.0214 0.52248 0.25233 0.0
C787 C 0.98524 0.56124 0.24973 0.0
H788 H 0.34597 0.79138 0.51868 0.0
H789 H 0.36222 0.63217 0.45403 0.0
H790 H 0.27999 0.73539 0.52112 0.0
H791 H 0.29563 0.57633 0.45639 0.0
H792 H 0.18228 0.44795 0.48385 0.0
H793 H 0.24959 0.49046 0.47832 0.0
H794 H 0.22033 0.76236 0.49938 0.0
H795 H 0.15291 0.72002 0.50518 0.0
C796 C 0.33568 0.74284 0.50522 0.0
C797 C 0.35914 0.71666 0.48607 0.0
C798 C 0.29769 0.71176 0.50646 0.0
C799 C 0.28223 0.65374 0.48858 0.0
C800 C 0.30669 0.62166 0.47033 0.0
C801 C 0.34492 0.65289 0.46909 0.0
C802 C 0.18993 0.5172 0.48687 0.0
C803 C 0.16218 0.58051 0.49525 0.0
C804 C 0.22861 0.54138 0.4837 0.0
C805 C 0.24044 0.62929 0.48897 0.0
C806 C 0.21222 0.69357 0.49576 0.0
C807 C 0.17347 0.66951 0.49882 0.0
H808 H 0.86341 0.13104 0.45235 0.0
H809 H 0.84806 0.29575 0.51622 0.0
H810 H 0.79856 0.06716 0.45696 0.0
H811 H 0.78397 0.23243 0.5208 0.0
H812 H 0.65669 0.20808 0.50636 0.0
H813 H 0.72291 0.25272 0.49822 0.0
H814 H 0.75567 -0.02042 0.48271 0.0
H815 H 0.6892 0.93438 0.49063 0.0
C816 C 0.84677 0.15143 0.46769 0.0
C817 C 0.86052 0.21904 0.4838 0.0
C818 C 0.80957 0.11555 0.47022 0.0
C819 C 0.78583 0.14705 0.48886 0.0
C820 C 0.80113 0.20898 0.50589 0.0
C821 C 0.83802 0.2445 0.50339 0.0
C822 C 0.6777 0.1575 0.50076 0.0
C823 C 0.66777 0.06765 0.49954 0.0
C824 C 0.71575 0.18302 0.49632 0.0
C825 C 0.74463 0.11938 0.49042 0.0
C826 C 0.73409 0.02991 0.48741 0.0
C827 C 0.69602 0.00422 0.492 0.0
H828 H 0.97528 0.09312 0.70587 0.0
H829 H 0.92216 0.9196 0.75086 0.0
H830 H 0.03841 0.02649 0.71129 0.0
H831 H 0.98609 0.85327 0.75691 0.0
H832 H 0.10511 0.71812 0.7505 0.0
H833 H 0.04128 0.76656 0.73894 0.0
H834 H 0.08266 0.0359 0.74365 0.0
H835 H 0.14664 -0.01232 0.75492 0.0
C836 C 0.97724 0.03956 0.71672 0.0
C837 C 0.9442 0.01127 0.72802 0.0
C838 C 0.01338 0.00197 0.71997 0.0
C839 C 0.01739 0.93579 0.73484 0.0
C840 C 0.98384 0.90403 0.74527 0.0
C841 C 0.94734 0.94163 0.74185 0.0
C842 C 0.10078 0.78767 0.74884 0.0
C843 C 0.13102 0.84921 0.7538 0.0
C844 C 0.06406 0.8153 0.74237 0.0
C845 C 0.05681 0.90496 0.74052 0.0
C846 C 0.0874 0.96609 0.7447 0.0
C847 C 0.1241 0.93854 0.75123 0.0
H848 H 0.64938 0.50963 0.7587 0.0
H849 H 0.61739 0.23552 0.74286 0.0
H850 H 0.58245 0.55288 0.75209 0.0
H851 H 0.55032 0.27912 0.73649 0.0
H852 H 0.45719 0.59186 0.77181 0.0
H853 H 0.52242 0.53333 0.775 0.0
H854 H 0.50537 0.3629 0.71225 0.0
H855 H 0.43946 0.42181 0.70902 0.0
C856 C 0.6283 0.45869 0.7534 0.0
C857 C 0.63868 0.3691 0.75166 0.0
C858 C 0.58984 0.48338 0.74986 0.0
C859 C 0.56094 0.41916 0.74433 0.0
C860 C 0.57185 0.33001 0.74089 0.0
C861 C 0.6103 0.30519 0.74459 0.0
C862 C 0.46698 0.5406 0.7589 0.0
C863 C 0.44329 0.51209 0.74004 0.0
C864 C 0.50455 0.50786 0.76059 0.0
C865 C 0.51944 0.44557 0.7435 0.0
C866 C 0.49476 0.41152 0.72557 0.0
C867 C 0.45692 0.44463 0.72384 0.0
H868 H 0.62967 0.71717 0.22782 0.0
H869 H 0.64754 0.97201 0.26606 0.0
H870 H 0.56145 0.75217 0.22279 0.0
H871 H 0.57943 0.00808 0.26037 0.0
H872 H 0.45192 0.01367 0.27202 0.0
H873 H 0.51829 0.96153 0.27558 0.0
H874 H 0.51451 0.84265 0.20536 0.0
H875 H 0.44746 0.89329 0.20211 0.0
C876 C 0.61926 0.78153 0.23476 0.0
C877 C 0.64406 0.84141 0.24764 0.0
C878 C 0.58004 0.8015 0.23184 0.0
C879 C 0.56466 0.88195 0.24168 0.0
C880 C 0.59007 0.94428 0.25318 0.0
C881 C 0.62932 0.92427 0.25613 0.0
C882 C 0.46485 0.97369 0.25762 0.0
C883 C 0.44461 0.95745 0.2368 0.0
C884 C 0.50314 0.94526 0.25949 0.0
C885 C 0.52223 0.90056 0.2405 0.0
C886 C 0.50078 0.8774 0.22028 0.0
C887 C 0.4622 0.90544 0.21847 0.0
loop_
_geom_bond_atom_site_label_1
_geom_bond_atom_site_label_2
_geom_bond_distance
_geom_bond_site_symmetry_2
_ccdc_geom_bond_type
C0 O27 1.316 . S
C0 O28 1.207 1_454 S
C1 O22 1.331 . S
C1 O25 1.244 1_545 S
C2 O24 1.264 . S
C2 O26 1.273 . S
Mg3 O5 1.936 1_545 S
Mg3 O12 2.081 . S
Mg3 O14 2.023 . S
Mg3 O18 2.031 . S
Mg3 O27 2.291 . S
Mg4 O5 1.963 . S
Mg4 O15 1.942 . S
Mg4 O16 1.955 1_565 S
Mg4 O23 1.986 . S
O5 Mg3 1.936 1_565 S
O5 Mg4 1.963 . S
O5 Mg6 1.915 . S
Mg6 O5 1.915 . S
Mg6 O7 1.916 1_454 S
Mg6 O11 2.013 1_554 S
Mg6 O17 2.114 1_465 S
Mg6 O21 2.008 . S
Mg6 O27 2.114 1_565 S
O7 Mg6 1.916 1_656 S
O7 Mg8 1.931 1_565 S
O7 Mg9 1.970 . S
Mg8 O7 1.931 1_545 S
Mg8 O17 2.291 1_556 S
Mg8 O22 2.081 . S
Mg8 O24 2.023 1_545 S
Mg8 O28 2.031 . S
Mg9 O7 1.970 . S
Mg9 O13 1.986 1_655 S
Mg9 O25 1.942 . S
Mg9 O26 1.955 . S
C10 O21 1.208 . S
C10 O23 1.307 . S
O11 Mg6 2.013 1_556 S
O11 C30 1.191 . S
O12 Mg3 2.081 . S
O12 C20 1.331 1_545 S
O13 Mg9 1.986 1_455 S
O13 C30 1.307 . S
O14 Mg3 2.023 . S
O14 C29 1.264 . S
O15 Mg4 1.942 . S
O15 C20 1.244 . S
O16 Mg4 1.955 1_545 S
O16 C29 1.273 . S
O17 Mg6 2.114 1_645 S
O17 Mg8 2.291 1_554 S
O17 C19 1.312 . S
O18 Mg3 2.031 . S
O18 C19 1.208 1_455 S
C19 O17 1.312 . S
C19 O18 1.208 1_655 S
C20 O12 1.331 1_565 S
C20 O15 1.244 . S
O21 Mg6 2.008 . S
O21 C10 1.208 . S
O22 C1 1.331 . S
O22 Mg8 2.081 . S
O23 Mg4 1.986 . S
O23 C10 1.307 . S
O24 C2 1.264 . S
O24 Mg8 2.023 1_565 S
O25 C1 1.244 1_565 S
O25 Mg9 1.942 . S
O26 C2 1.273 . S
O26 Mg9 1.955 . S
O27 C0 1.316 . S
O27 Mg3 2.291 . S
O27 Mg6 2.114 1_545 S
O28 C0 1.207 1_656 S
O28 Mg8 2.031 . S
C29 O14 1.264 . S
C29 O16 1.273 . S
C30 O11 1.191 . S
C30 O13 1.307 . S
C31 O58 1.312 . S
C31 O59 1.208 . S
C32 O53 1.331 . S
C32 O56 1.244 . S
C33 O55 1.264 . S
C33 O57 1.273 . S
Mg34 O36 1.936 . S
Mg34 O43 2.081 . S
Mg34 O45 2.023 . S
Mg34 O49 2.031 . S
Mg34 O58 2.291 . S
Mg35 O36 1.963 . S
Mg35 O46 1.942 . S
Mg35 O47 1.955 . S
Mg35 O54 1.986 . S
O36 Mg34 1.936 . S
O36 Mg35 1.963 . S
O36 Mg37 1.915 . S
Mg37 O36 1.915 . S
Mg37 O38 1.915 . S
Mg37 O42 2.013 . S
Mg37 O48 2.114 . S
Mg37 O52 2.013 . S
Mg37 O58 2.114 . S
O38 Mg37 1.915 . S
O38 Mg39 1.936 . S
O38 Mg40 1.963 . S
Mg39 O38 1.936 . S
Mg39 O48 2.291 . S
Mg39 O53 2.081 . S
Mg39 O55 2.023 . S
Mg39 O59 2.031 . S
Mg40 O38 1.963 . S
Mg40 O44 1.986 . S
Mg40 O56 1.942 . S
Mg40 O57 1.955 . S
C41 O52 1.191 . S
C41 O54 1.307 . S
O42 Mg37 2.013 . S
O42 C61 1.191 . S
O43 Mg34 2.081 . S
O43 C51 1.331 . S
O44 Mg40 1.986 . S
O44 C61 1.307 . S
O45 Mg34 2.023 . S
O45 C60 1.264 . S
O46 Mg35 1.942 . S
O46 C51 1.244 . S
O47 Mg35 1.955 . S
O47 C60 1.273 . S
O48 Mg37 2.114 . S
O48 Mg39 2.291 . S
O48 C50 1.312 . S
O49 Mg34 2.031 . S
O49 C50 1.208 . S
C50 O48 1.312 . S
C50 O49 1.208 . S
C51 O43 1.331 . S
C51 O46 1.244 . S
O52 Mg37 2.013 . S
O52 C41 1.191 . S
O53 C32 1.331 . S
O53 Mg39 2.081 . S
O54 Mg35 1.986 . S
O54 C41 1.307 . S
O55 C33 1.264 . S
O55 Mg39 2.023 . S
O56 C32 1.244 . S
O56 Mg40 1.942 . S
O57 C33 1.273 . S
O57 Mg40 1.955 . S
O58 C31 1.312 . S
O58 Mg34 2.291 . S
O58 Mg37 2.114 . S
O59 C31 1.208 . S
O59 Mg39 2.031 . S
C60 O45 1.264 . S
C60 O47 1.273 . S
C61 O42 1.191 . S
C61 O44 1.307 . S
C62 O89 1.312 . S
C62 O90 1.208 . S
C63 O84 1.331 . S
C63 O87 1.244 . S
C64 O86 1.264 . S
C64 O88 1.273 . S
Mg65 O67 1.936 . S
Mg65 O74 2.081 . S
Mg65 O76 2.023 . S
Mg65 O80 2.031 . S
Mg65 O89 2.291 . S
Mg66 O67 1.963 . S
Mg66 O77 1.942 . S
Mg66 O78 1.955 . S
Mg66 O85 1.986 . S
O67 Mg65 1.936 . S
O67 Mg66 1.963 . S
O67 Mg68 1.915 . S
Mg68 O67 1.915 . S
Mg68 O69 1.915 . S
Mg68 O73 2.013 . S
Mg68 O79 2.114 . S
Mg68 O83 2.013 . S
Mg68 O89 2.114 . S
O69 Mg68 1.915 . S
O69 Mg70 1.936 . S
O69 Mg71 1.963 . S
Mg70 O69 1.936 . S
Mg70 O79 2.291 . S
Mg70 O84 2.081 . S
Mg70 O86 2.023 . S
Mg70 O90 2.031 . S
Mg71 O69 1.963 . S
Mg71 O75 1.986 . S
Mg71 O87 1.942 . S
Mg71 O88 1.955 . S
C72 O83 1.191 . S
C72 O85 1.307 . S
O73 Mg68 2.013 . S
O73 C92 1.191 . S
O74 Mg65 2.081 . S
O74 C82 1.331 . S
O75 Mg71 1.986 . S
O75 C92 1.307 . S
O76 Mg65 2.023 . S
O76 C91 1.264 . S
O77 Mg66 1.942 . S
O77 C82 1.244 . S
O78 Mg66 1.955 . S
O78 C91 1.273 . S
O79 Mg68 2.114 . S
O79 Mg70 2.291 . S
O79 C81 1.312 . S
O80 Mg65 2.031 . S
O80 C81 1.208 . S
C81 O79 1.312 . S
C81 O80 1.208 . S
C82 O74 1.331 . S
C82 O77 1.244 . S
O83 Mg68 2.013 . S
O83 C72 1.191 . S
O84 C63 1.331 . S
O84 Mg70 2.081 . S
O85 Mg66 1.986 . S
O85 C72 1.307 . S
O86 C64 1.264 . S
O86 Mg70 2.023 . S
O87 C63 1.244 . S
O87 Mg71 1.942 . S
O88 C64 1.273 . S
O88 Mg71 1.955 . S
O89 C62 1.312 . S
O89 Mg65 2.291 . S
O89 Mg68 2.114 . S
O90 C62 1.208 . S
O90 Mg70 2.031 . S
C91 O76 1.264 . S
C91 O78 1.273 . S
C92 O73 1.191 . S
C92 O75 1.307 . S
C93 O120 1.312 . S
C93 O121 1.208 1_455 S
C94 O115 1.331 . S
C94 O118 1.244 . S
C95 O117 1.264 . S
C95 O119 1.273 . S
Mg96 O98 1.936 . S
Mg96 O105 2.081 . S
Mg96 O107 2.023 . S
Mg96 O111 2.031 . S
Mg96 O120 2.291 . S
Mg97 O98 1.963 . S
Mg97 O108 1.942 . S
Mg97 O109 1.955 . S
Mg97 O116 1.986 . S
O98 Mg96 1.936 . S
O98 Mg97 1.963 . S
O98 Mg99 1.915 . S
Mg99 O98 1.915 . S
Mg99 O100 1.915 1_455 S
Mg99 O104 2.013 . S
Mg99 O110 2.114 1_455 S
Mg99 O114 2.013 . S
Mg99 O120 2.114 . S
O100 Mg99 1.915 1_655 S
O100 Mg101 1.936 . S
O100 Mg102 1.963 . S
Mg101 O100 1.936 . S
Mg101 O110 2.291 . S
Mg101 O115 2.081 . S
Mg101 O117 2.023 . S
Mg101 O121 2.031 . S
Mg102 O100 1.963 . S
Mg102 O106 1.986 1_655 S
Mg102 O118 1.942 . S
Mg102 O119 1.955 . S
C103 O114 1.191 . S
C103 O116 1.307 . S
O104 Mg99 2.013 . S
O104 C123 1.191 . S
O105 Mg96 2.081 . S
O105 C113 1.331 . S
O106 Mg102 1.986 1_455 S
O106 C123 1.307 . S
O107 Mg96 2.023 . S
O107 C122 1.264 . S
O108 Mg97 1.942 . S
O108 C113 1.244 . S
O109 Mg97 1.955 . S
O109 C122 1.273 . S
O110 Mg99 2.114 1_655 S
O110 Mg101 2.291 . S
O110 C112 1.312 . S
O111 Mg96 2.031 . S
O111 C112 1.208 1_455 S
C112 O110 1.312 . S
C112 O111 1.208 1_655 S
C113 O105 1.331 . S
C113 O108 1.244 . S
O114 Mg99 2.013 . S
O114 C103 1.191 . S
O115 C94 1.331 . S
O115 Mg101 2.081 . S
O116 Mg97 1.986 . S
O116 C103 1.307 . S
O117 C95 1.264 . S
O117 Mg101 2.023 . S
O118 C94 1.244 . S
O118 Mg102 1.942 . S
O119 C95 1.273 . S
O119 Mg102 1.955 . S
O120 C93 1.312 . S
O120 Mg96 2.291 . S
O120 Mg99 2.114 . S
O121 C93 1.208 1_655 S
O121 Mg101 2.031 . S
C122 O107 1.264 . S
C122 O109 1.273 . S
C123 O104 1.191 . S
C123 O106 1.307 . S
C124 O151 1.312 . S
C124 O152 1.208 . S
C125 O146 1.331 . S
C125 O149 1.244 . S
C126 O148 1.264 . S
C126 O150 1.273 . S
Mg127 O129 1.936 . S
Mg127 O136 2.081 . S
Mg127 O138 2.023 . S
Mg127 O142 2.031 . S
Mg127 O151 2.291 . S
Mg128 O129 1.963 . S
Mg128 O139 1.942 . S
Mg128 O140 1.955 . S
Mg128 O147 1.986 . S
O129 Mg127 1.936 . S
O129 Mg128 1.963 . S
O129 Mg130 1.915 . S
Mg130 O129 1.915 . S
Mg130 O131 1.915 . S
Mg130 O135 2.013 . S
Mg130 O141 2.114 . S
Mg130 O145 2.013 . S
Mg130 O151 2.114 . S
O131 Mg130 1.915 . S
O131 Mg132 1.936 . S
O131 Mg133 1.963 . S
Mg132 O131 1.936 . S
Mg132 O141 2.291 . S
Mg132 O146 2.081 . S
Mg132 O148 2.023 . S
Mg132 O152 2.031 . S
Mg133 O131 1.963 . S
Mg133 O137 1.986 . S
Mg133 O149 1.942 . S
Mg133 O150 1.955 . S
C134 O145 1.191 . S
C134 O147 1.307 . S
O135 Mg130 2.013 . S
O135 C154 1.191 . S
O136 Mg127 2.081 . S
O136 C144 1.331 . S
O137 Mg133 1.986 . S
O137 C154 1.307 . S
O138 Mg127 2.023 . S
O138 C153 1.264 . S
O139 Mg128 1.942 . S
O139 C144 1.244 . S
O140 Mg128 1.955 . S
O140 C153 1.273 . S
O141 Mg130 2.114 . S
O141 Mg132 2.291 . S
O141 C143 1.312 . S
O142 Mg127 2.031 . S
O142 C143 1.208 . S
C143 O141 1.312 . S
C143 O142 1.208 . S
C144 O136 1.331 . S
C144 O139 1.244 . S
O145 Mg130 2.013 . S
O145 C134 1.191 . S
O146 C125 1.331 . S
O146 Mg132 2.081 . S
O147 Mg128 1.986 . S
O147 C134 1.307 . S
O148 C126 1.264 . S
O148 Mg132 2.023 . S
O149 C125 1.244 . S
O149 Mg133 1.942 . S
O150 C126 1.273 . S
O150 Mg133 1.955 . S
O151 C124 1.312 . S
O151 Mg127 2.291 . S
O151 Mg130 2.114 . S
O152 C124 1.208 . S
O152 Mg132 2.031 . S
C153 O138 1.264 . S
C153 O140 1.273 . S
C154 O135 1.191 . S
C154 O137 1.307 . S
C155 O182 1.312 . S
C155 O183 1.208 . S
C156 O177 1.331 . S
C156 O180 1.244 . S
C157 O179 1.264 . S
C157 O181 1.273 . S
Mg158 O160 1.936 . S
Mg158 O167 2.081 . S
Mg158 O169 2.023 . S
Mg158 O173 2.031 . S
Mg158 O182 2.291 . S
Mg159 O160 1.963 . S
Mg159 O170 1.942 . S
Mg159 O171 1.955 . S
Mg159 O178 1.986 . S
O160 Mg158 1.936 . S
O160 Mg159 1.963 . S
O160 Mg161 1.915 . S
Mg161 O160 1.915 . S
Mg161 O162 1.915 . S
Mg161 O166 2.013 . S
Mg161 O172 2.114 . S
Mg161 O176 2.013 . S
Mg161 O182 2.114 . S
O162 Mg161 1.915 . S
O162 Mg163 1.936 . S
O162 Mg164 1.963 . S
Mg163 O162 1.936 . S
Mg163 O172 2.291 . S
Mg163 O177 2.081 . S
Mg163 O179 2.023 . S
Mg163 O183 2.031 . S
Mg164 O162 1.963 . S
Mg164 O168 1.986 . S
Mg164 O180 1.942 . S
Mg164 O181 1.955 . S
C165 O176 1.191 . S
C165 O178 1.307 . S
O166 Mg161 2.013 . S
O166 C185 1.191 . S
O167 Mg158 2.081 . S
O167 C175 1.331 . S
O168 Mg164 1.986 . S
O168 C185 1.307 . S
O169 Mg158 2.023 . S
O169 C184 1.264 . S
O170 Mg159 1.942 . S
O170 C175 1.244 . S
O171 Mg159 1.955 . S
O171 C184 1.273 . S
O172 Mg161 2.114 . S
O172 Mg163 2.291 . S
O172 C174 1.312 . S
O173 Mg158 2.031 . S
O173 C174 1.208 . S
C174 O172 1.312 . S
C174 O173 1.208 . S
C175 O167 1.331 . S
C175 O170 1.244 . S
O176 Mg161 2.013 . S
O176 C165 1.191 . S
O177 C156 1.331 . S
O177 Mg163 2.081 . S
O178 Mg159 1.986 . S
O178 C165 1.307 . S
O179 C157 1.264 . S
O179 Mg163 2.023 . S
O180 C156 1.244 . S
O180 Mg164 1.942 . S
O181 C157 1.273 . S
O181 Mg164 1.955 . S
O182 C155 1.312 . S
O182 Mg158 2.291 . S
O182 Mg161 2.114 . S
O183 C155 1.208 . S
O183 Mg163 2.031 . S
C184 O169 1.264 . S
C184 O171 1.273 . S
C185 O166 1.191 . S
C185 O168 1.307 . S
C186 O213 1.312 . S
C186 O214 1.208 . S
C187 O208 1.331 . S
C187 O211 1.244 1_545 S
C188 O210 1.264 . S
C188 O212 1.273 . S
Mg189 O191 1.936 1_545 S
Mg189 O198 2.081 . S
Mg189 O200 2.023 . S
Mg189 O204 2.031 . S
Mg189 O213 2.291 . S
Mg190 O191 1.963 . S
Mg190 O201 1.942 . S
Mg190 O202 1.955 1_565 S
Mg190 O209 1.986 . S
O191 Mg189 1.936 1_565 S
O191 Mg190 1.963 . S
O191 Mg192 1.915 . S
Mg192 O191 1.915 . S
Mg192 O193 1.917 . S
Mg192 O197 2.013 . S
Mg192 O203 2.114 1_565 S
Mg192 O207 2.013 . S
Mg192 O213 2.114 1_565 S
O193 Mg192 1.917 . S
O193 Mg194 1.930 1_565 S
O193 Mg195 1.972 . S
Mg194 O193 1.930 1_545 S
Mg194 O203 2.291 . S
Mg194 O208 2.081 . S
Mg194 O210 2.023 1_545 S
Mg194 O214 2.031 . S
Mg195 O193 1.972 . S
Mg195 O199 1.986 . S
Mg195 O211 1.942 . S
Mg195 O212 1.955 . S
C196 O207 1.191 . S
C196 O209 1.307 . S
O197 Mg192 2.013 . S
O197 C216 1.191 . S
O198 Mg189 2.081 . S
O198 C206 1.331 1_545 S
O199 Mg195 1.986 . S
O199 C216 1.307 . S
O200 Mg189 2.023 . S
O200 C215 1.264 . S
O201 Mg190 1.942 . S
O201 C206 1.244 . S
O202 Mg190 1.955 1_545 S
O202 C215 1.273 . S
O203 Mg192 2.114 1_545 S
O203 Mg194 2.291 . S
O203 C205 1.312 . S
O204 Mg189 2.031 . S
O204 C205 1.208 . S
C205 O203 1.312 . S
C205 O204 1.208 . S
C206 O198 1.331 1_565 S
C206 O201 1.244 . S
O207 Mg192 2.013 . S
O207 C196 1.191 . S
O208 C187 1.331 . S
O208 Mg194 2.081 . S
O209 Mg190 1.986 . S
O209 C196 1.307 . S
O210 C188 1.264 . S
O210 Mg194 2.023 1_565 S
O211 C187 1.244 1_565 S
O211 Mg195 1.942 . S
O212 C188 1.273 . S
O212 Mg195 1.955 . S
O213 C186 1.312 . S
O213 Mg189 2.291 . S
O213 Mg192 2.114 1_545 S
O214 C186 1.208 . S
O214 Mg194 2.031 . S
C215 O200 1.264 . S
C215 O202 1.273 . S
C216 O197 1.191 . S
C216 O199 1.307 . S
C217 O244 1.316 . S
C217 O245 1.207 1_554 S
C218 O239 1.331 . S
C218 O242 1.244 . S
C219 O241 1.264 . S
C219 O243 1.273 . S
Mg220 O222 1.936 . S
Mg220 O229 2.081 . S
Mg220 O231 2.023 . S
Mg220 O235 2.031 . S
Mg220 O244 2.291 . S
Mg221 O222 1.963 . S
Mg221 O232 1.942 . S
Mg221 O233 1.955 . S
Mg221 O240 1.986 . S
O222 Mg220 1.936 . S
O222 Mg221 1.963 . S
O222 Mg223 1.915 . S
Mg223 O222 1.915 . S
Mg223 O224 1.915 1_554 S
Mg223 O228 2.013 1_554 S
Mg223 O234 2.114 . S
Mg223 O238 2.008 . S
Mg223 O244 2.114 . S
O224 Mg223 1.915 1_556 S
O224 Mg225 1.936 . S
O224 Mg226 1.963 . S
Mg225 O224 1.936 . S
Mg225 O234 2.291 1_556 S
Mg225 O239 2.081 . S
Mg225 O241 2.023 . S
Mg225 O245 2.031 . S
Mg226 O224 1.963 . S
Mg226 O230 1.986 . S
Mg226 O242 1.942 . S
Mg226 O243 1.955 . S
C227 O238 1.208 . S
C227 O240 1.307 . S
O228 Mg223 2.013 1_556 S
O228 C247 1.191 . S
O229 Mg220 2.081 . S
O229 C237 1.331 . S
O230 Mg226 1.986 . S
O230 C247 1.307 . S
O231 Mg220 2.023 . S
O231 C246 1.264 . S
O232 Mg221 1.942 . S
O232 C237 1.244 . S
O233 Mg221 1.955 . S
O233 C246 1.273 . S
O234 Mg223 2.114 . S
O234 Mg225 2.291 1_554 S
O234 C236 1.312 . S
O235 Mg220 2.031 . S
O235 C236 1.208 . S
C236 O234 1.312 . S
C236 O235 1.208 . S
C237 O229 1.331 . S
C237 O232 1.244 . S
O238 Mg223 2.008 . S
O238 C227 1.208 . S
O239 C218 1.331 . S
O239 Mg225 2.081 . S
O240 Mg221 1.986 . S
O240 C227 1.307 . S
O241 C219 1.264 . S
O241 Mg225 2.023 . S
O242 C218 1.244 . S
O242 Mg226 1.942 . S
O243 C219 1.273 . S
O243 Mg226 1.955 . S
O244 C217 1.316 . S
O244 Mg220 2.291 . S
O244 Mg223 2.114 . S
O245 C217 1.207 1_556 S
O245 Mg225 2.031 . S
C246 O231 1.264 . S
C246 O233 1.273 . S
C247 O228 1.191 . S
C247 O230 1.307 . S
H248 C256 0.950 . S
H249 C261 0.950 . S
H250 C258 0.950 . S
H251 C260 0.950 . S
H252 C262 0.950 . S
H253 C264 0.950 . S
H254 C266 0.950 1_565 S
H255 C267 0.950 . S
C256 H248 0.950 . S
C256 C257 1.386 . S
C256 C258 1.391 . S
C257 C256 1.386 . S
C257 C261 1.393 1_565 S
C258 H250 0.950 . S
C258 C256 1.391 . S
C258 C259 1.400 1_565 S
C259 C258 1.400 1_545 S
C259 C260 1.398 . S
C259 C265 1.491 . S
C260 H251 0.950 . S
C260 C259 1.398 . S
C260 C261 1.391 . S
C261 H249 0.950 . S
C261 C257 1.393 1_545 S
C261 C260 1.391 . S
C262 H252 0.950 . S
C262 C263 1.386 . S
C262 C264 1.391 . S
C263 C262 1.386 . S
C263 C267 1.393 . S
C264 H253 0.950 . S
C264 C262 1.391 . S
C264 C265 1.400 . S
C265 C259 1.491 . S
C265 C264 1.400 . S
C265 C266 1.398 . S
C266 H254 0.950 1_545 S
C266 C265 1.398 . S
C266 C267 1.391 . S
C267 H255 0.950 . S
C267 C263 1.393 . S
C267 C266 1.391 . S
H268 C276 0.950 . S
H269 C281 0.950 . S
H270 C278 0.950 . S
H271 C280 0.950 . S
H272 C282 0.950 . S
H273 C284 0.950 . S
H274 C286 0.950 1_545 S
H275 C287 0.950 . S
C276 H268 0.950 . S
C276 C277 1.386 . S
C276 C278 1.391 . S
C277 C276 1.386 . S
C277 C281 1.393 1_545 S
C278 H270 0.950 . S
C278 C276 1.391 . S
C278 C279 1.400 1_545 S
C279 C278 1.400 1_565 S
C279 C280 1.398 . S
C279 C285 1.491 . S
C280 H271 0.950 . S
C280 C279 1.398 . S
C280 C281 1.391 . S
C281 H269 0.950 . S
C281 C277 1.393 1_565 S
C281 C280 1.391 . S
C282 H272 0.950 . S
C282 C283 1.386 . S
C282 C284 1.391 . S
C283 C282 1.386 . S
C283 C287 1.393 . S
C284 H273 0.950 . S
C284 C282 1.391 . S
C284 C285 1.400 . S
C285 C279 1.491 . S
C285 C284 1.400 . S
C285 C286 1.398 . S
C286 H274 0.950 1_565 S
C286 C285 1.398 . S
C286 C287 1.391 . S
C287 H275 0.950 . S
C287 C283 1.393 . S
C287 C286 1.391 . S
H288 C296 0.950 . S
H289 C301 0.950 . S
H290 C298 0.950 . S
H291 C300 0.950 . S
H292 C302 0.950 . S
H293 C304 0.950 . S
H294 C306 0.950 . S
H295 C307 0.950 . S
C296 H288 0.950 . S
C296 C297 1.386 . S
C296 C298 1.391 . S
C297 C296 1.386 . S
C297 C301 1.393 . S
C298 H290 0.950 . S
C298 C296 1.391 . S
C298 C299 1.400 . S
C299 C298 1.400 . S
C299 C300 1.398 . S
C299 C305 1.491 . S
C300 H291 0.950 . S
C300 C299 1.398 . S
C300 C301 1.391 . S
C301 H289 0.950 . S
C301 C297 1.393 . S
C301 C300 1.391 . S
C302 H292 0.950 . S
C302 C303 1.386 . S
C302 C304 1.391 . S
C303 C302 1.386 . S
C303 C307 1.393 . S
C304 H293 0.950 . S
C304 C302 1.391 . S
C304 C305 1.400 . S
C305 C299 1.491 . S
C305 C304 1.400 . S
C305 C306 1.398 . S
C306 H294 0.950 . S
C306 C305 1.398 . S
C306 C307 1.391 . S
C307 H295 0.950 . S
C307 C303 1.393 . S
C307 C306 1.391 . S
H308 C316 0.950 . S
H309 C321 0.950 . S
H310 C318 0.950 . S
H311 C320 0.950 . S
H312 C322 0.950 . S
H313 C324 0.950 . S
H314 C326 0.950 . S
H315 C327 0.950 . S
C316 H308 0.950 . S
C316 C317 1.386 . S
C316 C318 1.391 . S
C317 C316 1.386 . S
C317 C321 1.393 . S
C318 H310 0.950 . S
C318 C316 1.391 . S
C318 C319 1.400 . S
C319 C318 1.400 . S
C319 C320 1.398 . S
C319 C325 1.491 . S
C320 H311 0.950 . S
C320 C319 1.398 . S
C320 C321 1.391 . S
C321 H309 0.950 . S
C321 C317 1.393 . S
C321 C320 1.391 . S
C322 H312 0.950 . S
C322 C323 1.386 . S
C322 C324 1.391 . S
C323 C322 1.386 . S
C323 C327 1.393 . S
C324 H313 0.950 . S
C324 C322 1.391 . S
C324 C325 1.400 . S
C325 C319 1.491 . S
C325 C324 1.400 . S
C325 C326 1.398 . S
C326 H314 0.950 . S
C326 C325 1.398 . S
C326 C327 1.391 . S
C327 H315 0.950 . S
C327 C323 1.393 . S
C327 C326 1.391 . S
H328 C336 0.950 . S
H329 C341 0.950 . S
H330 C338 0.950 . S
H331 C340 0.950 . S
H332 C342 0.950 . S
H333 C344 0.950 . S
H334 C346 0.950 . S
H335 C347 0.950 . S
C336 H328 0.950 . S
C336 C337 1.386 . S
C336 C338 1.391 . S
C337 C336 1.386 . S
C337 C341 1.393 . S
C338 H330 0.950 . S
C338 C336 1.391 . S
C338 C339 1.400 . S
C339 C338 1.400 . S
C339 C340 1.398 . S
C339 C345 1.491 . S
C340 H331 0.950 . S
C340 C339 1.398 . S
C340 C341 1.391 . S
C341 H329 0.950 . S
C341 C337 1.393 . S
C341 C340 1.391 . S
C342 H332 0.950 . S
C342 C343 1.386 . S
C342 C344 1.391 . S
C343 C342 1.386 . S
C343 C347 1.393 . S
C344 H333 0.950 . S
C344 C342 1.391 . S
C344 C345 1.400 . S
C345 C339 1.491 . S
C345 C344 1.400 . S
C345 C346 1.398 . S
C346 H334 0.950 . S
C346 C345 1.398 . S
C346 C347 1.391 . S
C347 H335 0.950 . S
C347 C343 1.393 . S
C347 C346 1.391 . S
H348 C356 0.950 . S
H349 C361 0.950 . S
H350 C358 0.950 . S
H351 C360 0.950 . S
H352 C362 0.950 . S
H353 C364 0.950 . S
H354 C366 0.950 . S
H355 C367 0.950 . S
C356 H348 0.950 . S
C356 C357 1.386 . S
C356 C358 1.391 . S
C357 C356 1.386 . S
C357 C361 1.393 . S
C358 H350 0.950 . S
C358 C356 1.391 . S
C358 C359 1.400 . S
C359 C358 1.400 . S
C359 C360 1.398 . S
C359 C365 1.491 . S
C360 H351 0.950 . S
C360 C359 1.398 . S
C360 C361 1.391 . S
C361 H349 0.950 . S
C361 C357 1.393 . S
C361 C360 1.391 . S
C362 H352 0.950 . S
C362 C363 1.386 . S
C362 C364 1.391 . S
C363 C362 1.386 . S
C363 C367 1.393 . S
C364 H353 0.950 . S
C364 C362 1.391 . S
C364 C365 1.400 . S
C365 C359 1.491 . S
C365 C364 1.400 . S
C365 C366 1.398 . S
C366 H354 0.950 . S
C366 C365 1.398 . S
C366 C367 1.391 . S
C367 H355 0.950 . S
C367 C363 1.393 . S
C367 C366 1.391 . S
H368 C376 0.950 . S
H369 C381 0.950 . S
H370 C378 0.950 . S
H371 C380 0.950 . S
H372 C382 0.950 1_545 S
H373 C384 0.950 . S
H374 C386 0.950 . S
H375 C387 0.950 . S
C376 H368 0.950 . S
C376 C377 1.386 . S
C376 C378 1.391 . S
C377 C376 1.386 . S
C377 C381 1.393 . S
C378 H370 0.950 . S
C378 C376 1.391 . S
C378 C379 1.400 . S
C379 C378 1.400 . S
C379 C380 1.398 . S
C379 C385 1.491 . S
C380 H371 0.950 . S
C380 C379 1.398 . S
C380 C381 1.391 . S
C381 H369 0.950 . S
C381 C377 1.393 . S
C381 C380 1.391 . S
C382 H372 0.950 1_565 S
C382 C383 1.386 . S
C382 C384 1.391 . S
C383 C382 1.386 . S
C383 C387 1.393 . S
C384 H373 0.950 . S
C384 C382 1.391 . S
C384 C385 1.400 . S
C385 C379 1.491 . S
C385 C384 1.400 . S
C385 C386 1.398 . S
C386 H374 0.950 . S
C386 C385 1.398 . S
C386 C387 1.391 . S
C387 H375 0.950 . S
C387 C383 1.393 . S
C387 C386 1.391 . S
H388 C396 0.950 . S
H389 C401 0.950 . S
H390 C398 0.950 . S
H391 C400 0.950 . S
H392 C402 0.950 . S
H393 C404 0.950 . S
H394 C406 0.950 . S
H395 C407 0.950 . S
C396 H388 0.950 . S
C396 C397 1.386 . S
C396 C398 1.391 . S
C397 C396 1.386 . S
C397 C401 1.393 . S
C398 H390 0.950 . S
C398 C396 1.391 . S
C398 C399 1.400 . S
C399 C398 1.400 . S
C399 C400 1.398 . S
C399 C405 1.491 . S
C400 H391 0.950 . S
C400 C399 1.398 . S
C400 C401 1.391 . S
C401 H389 0.950 . S
C401 C397 1.393 . S
C401 C400 1.391 . S
C402 H392 0.950 . S
C402 C403 1.386 . S
C402 C404 1.391 . S
C403 C402 1.386 . S
C403 C407 1.393 . S
C404 H393 0.950 . S
C404 C402 1.391 . S
C404 C405 1.400 . S
C405 C399 1.491 . S
C405 C404 1.400 . S
C405 C406 1.398 . S
C406 H394 0.950 . S
C406 C405 1.398 . S
C406 C407 1.391 . S
C407 H395 0.950 . S
C407 C403 1.393 . S
C407 C406 1.391 . S
H408 C416 0.950 . S
H409 C421 0.950 . S
H410 C418 0.950 . S
H411 C420 0.950 . S
H412 C422 0.950 . S
H413 C424 0.950 . S
H414 C426 0.950 1_565 S
H415 C427 0.950 . S
C416 H408 0.950 . S
C416 C417 1.386 . S
C416 C418 1.391 . S
C417 C416 1.386 . S
C417 C421 1.393 . S
C418 H410 0.950 . S
C418 C416 1.391 . S
C418 C419 1.400 . S
C419 C418 1.400 . S
C419 C420 1.398 . S
C419 C425 1.491 . S
C420 H411 0.950 . S
C420 C419 1.398 . S
C420 C421 1.391 . S
C421 H409 0.950 . S
C421 C417 1.393 . S
C421 C420 1.391 . S
C422 H412 0.950 . S
C422 C423 1.386 1_545 S
C422 C424 1.391 . S
C423 C422 1.386 1_565 S
C423 C427 1.393 . S
C424 H413 0.950 . S
C424 C422 1.391 . S
C424 C425 1.400 . S
C425 C419 1.491 . S
C425 C424 1.400 . S
C425 C426 1.398 . S
C426 H414 0.950 1_545 S
C426 C425 1.398 . S
C426 C427 1.391 1_545 S
C427 H415 0.950 . S
C427 C423 1.393 . S
C427 C426 1.391 1_565 S
H428 C436 0.950 . S
H429 C441 0.950 . S
H430 C438 0.950 . S
H431 C440 0.950 . S
H432 C442 0.950 . S
H433 C444 0.950 . S
H434 C446 0.950 1_545 S
H435 C447 0.950 . S
C436 H428 0.950 . S
C436 C437 1.386 . S
C436 C438 1.391 . S
C437 C436 1.386 . S
C437 C441 1.393 1_545 S
C438 H430 0.950 . S
C438 C436 1.391 . S
C438 C439 1.400 1_545 S
C439 C438 1.400 1_565 S
C439 C440 1.398 . S
C439 C445 1.491 . S
C440 H431 0.950 . S
C440 C439 1.398 . S
C440 C441 1.391 . S
C441 H429 0.950 . S
C441 C437 1.393 1_565 S
C441 C440 1.391 . S
C442 H432 0.950 . S
C442 C443 1.386 . S
C442 C444 1.391 . S
C443 C442 1.386 . S
C443 C447 1.393 . S
C444 H433 0.950 . S
C444 C442 1.391 . S
C444 C445 1.400 . S
C445 C439 1.491 . S
C445 C444 1.400 . S
C445 C446 1.398 . S
C446 H434 0.950 1_565 S
C446 C445 1.398 . S
C446 C447 1.391 . S
C447 H435 0.950 . S
C447 C443 1.393 . S
C447 C446 1.391 . S
H448 C456 0.950 . S
H449 C461 0.950 . S
H450 C458 0.950 . S
H451 C460 0.950 . S
H452 C462 0.950 . S
H453 C464 0.950 . S
H454 C466 0.950 . S
H455 C467 0.950 . S
C456 H448 0.950 . S
C456 C457 1.386 . S
C456 C458 1.391 . S
C457 C456 1.386 . S
C457 C461 1.393 . S
C458 H450 0.950 . S
C458 C456 1.391 . S
C458 C459 1.400 . S
C459 C458 1.400 . S
C459 C460 1.398 . S
C459 C465 1.491 . S
C460 H451 0.950 . S
C460 C459 1.398 . S
C460 C461 1.391 . S
C461 H449 0.950 . S
C461 C457 1.393 . S
C461 C460 1.391 . S
C462 H452 0.950 . S
C462 C463 1.386 . S
C462 C464 1.391 . S
C463 C462 1.386 . S
C463 C467 1.393 . S
C464 H453 0.950 . S
C464 C462 1.391 . S
C464 C465 1.400 . S
C465 C459 1.491 . S
C465 C464 1.400 . S
C465 C466 1.398 . S
C466 H454 0.950 . S
C466 C465 1.398 . S
C466 C467 1.391 . S
C467 H455 0.950 . S
C467 C463 1.393 . S
C467 C466 1.391 . S
H468 C476 0.950 . S
H469 C481 0.950 . S
H470 C478 0.950 . S
H471 C480 0.950 . S
H472 C482 0.950 . S
H473 C484 0.950 . S
H474 C486 0.950 . S
H475 C487 0.950 . S
C476 H468 0.950 . S
C476 C477 1.386 . S
C476 C478 1.391 . S
C477 C476 1.386 . S
C477 C481 1.393 . S
C478 H470 0.950 . S
C478 C476 1.391 . S
C478 C479 1.400 . S
C479 C478 1.400 . S
C479 C480 1.398 . S
C479 C485 1.491 . S
C480 H471 0.950 . S
C480 C479 1.398 . S
C480 C481 1.391 . S
C481 H469 0.950 . S
C481 C477 1.393 . S
C481 C480 1.391 . S
C482 H472 0.950 . S
C482 C483 1.386 . S
C482 C484 1.391 . S
C483 C482 1.386 . S
C483 C487 1.393 . S
C484 H473 0.950 . S
C484 C482 1.391 . S
C484 C485 1.400 . S
C485 C479 1.491 . S
C485 C484 1.400 . S
C485 C486 1.398 . S
C486 H474 0.950 . S
C486 C485 1.398 . S
C486 C487 1.391 . S
C487 H475 0.950 . S
C487 C483 1.393 . S
C487 C486 1.391 . S
H488 C496 0.950 . S
H489 C501 0.950 . S
H490 C498 0.950 . S
H491 C500 0.950 . S
H492 C502 0.950 . S
H493 C504 0.950 . S
H494 C506 0.950 . S
H495 C507 0.950 . S
C496 H488 0.950 . S
C496 C497 1.386 . S
C496 C498 1.391 . S
C497 C496 1.386 . S
C497 C501 1.393 . S
C498 H490 0.950 . S
C498 C496 1.391 . S
C498 C499 1.400 . S
C499 C498 1.400 . S
C499 C500 1.398 . S
C499 C505 1.491 . S
C500 H491 0.950 . S
C500 C499 1.398 . S
C500 C501 1.391 . S
C501 H489 0.950 . S
C501 C497 1.393 . S
C501 C500 1.391 . S
C502 H492 0.950 . S
C502 C503 1.386 . S
C502 C504 1.391 . S
C503 C502 1.386 . S
C503 C507 1.393 . S
C504 H493 0.950 . S
C504 C502 1.391 . S
C504 C505 1.400 . S
C505 C499 1.491 . S
C505 C504 1.400 . S
C505 C506 1.398 . S
C506 H494 0.950 . S
C506 C505 1.398 . S
C506 C507 1.391 . S
C507 H495 0.950 . S
C507 C503 1.393 . S
C507 C506 1.391 . S
H508 C516 0.950 . S
H509 C521 0.950 . S
H510 C518 0.950 . S
H511 C520 0.950 . S
H512 C522 0.950 . S
H513 C524 0.950 . S
H514 C526 0.950 . S
H515 C527 0.950 . S
C516 H508 0.950 . S
C516 C517 1.386 . S
C516 C518 1.391 . S
C517 C516 1.386 . S
C517 C521 1.393 . S
C518 H510 0.950 . S
C518 C516 1.391 . S
C518 C519 1.400 . S
C519 C518 1.400 . S
C519 C520 1.398 . S
C519 C525 1.491 . S
C520 H511 0.950 . S
C520 C519 1.398 . S
C520 C521 1.391 . S
C521 H509 0.950 . S
C521 C517 1.393 . S
C521 C520 1.391 . S
C522 H512 0.950 . S
C522 C523 1.386 . S
C522 C524 1.391 . S
C523 C522 1.386 . S
C523 C527 1.393 . S
C524 H513 0.950 . S
C524 C522 1.391 . S
C524 C525 1.400 . S
C525 C519 1.491 . S
C525 C524 1.400 . S
C525 C526 1.398 . S
C526 H514 0.950 . S
C526 C525 1.398 . S
C526 C527 1.391 . S
C527 H515 0.950 . S
C527 C523 1.393 . S
C527 C526 1.391 . S
H528 C536 0.950 . S
H529 C541 0.950 1_545 S
H530 C538 0.950 . S
H531 C540 0.950 . S
H532 C542 0.950 . S
H533 C544 0.950 . S
H534 C546 0.950 . S
H535 C547 0.950 . S
C536 H528 0.950 . S
C536 C537 1.386 . S
C536 C538 1.391 . S
C537 C536 1.386 . S
C537 C541 1.393 . S
C538 H530 0.950 . S
C538 C536 1.391 . S
C538 C539 1.400 . S
C539 C538 1.400 . S
C539 C540 1.398 . S
C539 C545 1.491 . S
C540 H531 0.950 . S
C540 C539 1.398 . S
C540 C541 1.391 . S
C541 H529 0.950 1_565 S
C541 C537 1.393 . S
C541 C540 1.391 . S
C542 H532 0.950 . S
C542 C543 1.386 . S
C542 C544 1.391 . S
C543 C542 1.386 . S
C543 C547 1.393 . S
C544 H533 0.950 . S
C544 C542 1.391 . S
C544 C545 1.400 . S
C545 C539 1.491 . S
C545 C544 1.400 . S
C545 C546 1.398 . S
C546 H534 0.950 . S
C546 C545 1.398 . S
C546 C547 1.391 . S
C547 H535 0.950 . S
C547 C543 1.393 . S
C547 C546 1.391 . S
H548 C556 0.950 . S
H549 C561 0.950 . S
H550 C558 0.950 . S
H551 C560 0.950 . S
H552 C562 0.950 . S
H553 C564 0.950 . S
H554 C566 0.950 . S
H555 C567 0.950 . S
C556 H548 0.950 . S
C556 C557 1.386 . S
C556 C558 1.391 . S
C557 C556 1.386 . S
C557 C561 1.393 . S
C558 H550 0.950 . S
C558 C556 1.391 . S
C558 C559 1.400 . S
C559 C558 1.400 . S
C559 C560 1.398 . S
C559 C565 1.491 . S
C560 H551 0.950 . S
C560 C559 1.398 . S
C560 C561 1.391 . S
C561 H549 0.950 . S
C561 C557 1.393 . S
C561 C560 1.391 . S
C562 H552 0.950 . S
C562 C563 1.386 . S
C562 C564 1.391 . S
C563 C562 1.386 . S
C563 C567 1.393 . S
C564 H553 0.950 . S
C564 C562 1.391 . S
C564 C565 1.400 . S
C565 C559 1.491 . S
C565 C564 1.400 . S
C565 C566 1.398 . S
C566 H554 0.950 . S
C566 C565 1.398 . S
C566 C567 1.391 . S
C567 H555 0.950 . S
C567 C563 1.393 . S
C567 C566 1.391 . S
H568 C576 0.950 . S
H569 C581 0.950 1_655 S
H570 C578 0.950 . S
H571 C580 0.950 1_655 S
H572 C582 0.950 . S
H573 C584 0.966 . S
H574 C586 0.950 . S
H575 C587 0.950 . S
C576 H568 0.950 . S
C576 C577 1.386 . S
C576 C578 1.391 . S
C577 C576 1.386 . S
C577 C581 1.393 1_554 S
C578 H570 0.950 . S
C578 C576 1.391 . S
C578 C579 1.400 . S
C579 C578 1.400 . S
C579 C580 1.398 1_554 S
C579 C585 1.491 . S
C580 H571 0.950 1_455 S
C580 C579 1.398 1_556 S
C580 C581 1.391 . S
C581 H569 0.950 1_455 S
C581 C577 1.393 1_556 S
C581 C580 1.391 . S
C582 H572 0.950 . S
C582 C583 1.386 1_655 S
C582 C584 1.393 . S
C583 C582 1.386 1_455 S
C583 C587 1.393 1_556 S
C584 H573 0.966 . S
C584 C582 1.393 . S
C584 C585 1.383 1_656 S
C585 C579 1.491 . S
C585 C584 1.383 1_454 S
C585 C586 1.398 . S
C586 H574 0.950 . S
C586 C585 1.398 . S
C586 C587 1.391 . S
C587 H575 0.950 . S
C587 C583 1.393 1_554 S
C587 C586 1.391 . S
H588 C596 0.950 . S
H589 C601 0.950 . S
H590 C598 0.950 . S
H591 C600 0.950 . S
H592 C602 0.950 . S
H593 C604 0.950 . S
H594 C606 0.950 . S
H595 C607 0.950 . S
C596 H588 0.950 . S
C596 C597 1.386 . S
C596 C598 1.391 . S
C597 C596 1.386 . S
C597 C601 1.393 . S
C598 H590 0.950 . S
C598 C596 1.391 . S
C598 C599 1.400 . S
C599 C598 1.400 . S
C599 C600 1.398 . S
C599 C605 1.491 . S
C600 H591 0.950 . S
C600 C599 1.398 . S
C600 C601 1.391 . S
C601 H589 0.950 . S
C601 C597 1.393 . S
C601 C600 1.391 . S
C602 H592 0.950 . S
C602 C603 1.386 . S
C602 C604 1.391 . S
C603 C602 1.386 . S
C603 C607 1.393 . S
C604 H593 0.950 . S
C604 C602 1.391 . S
C604 C605 1.400 . S
C605 C599 1.491 . S
C605 C604 1.400 . S
C605 C606 1.398 . S
C606 H594 0.950 . S
C606 C605 1.398 . S
C606 C607 1.391 . S
C607 H595 0.950 . S
C607 C603 1.393 . S
C607 C606 1.391 . S
H608 C616 0.950 . S
H609 C621 0.950 . S
H610 C618 0.950 . S
H611 C620 0.950 . S
H612 C622 0.950 . S
H613 C624 0.950 . S
H614 C626 0.950 . S
H615 C627 0.950 . S
C616 H608 0.950 . S
C616 C617 1.383 1_545 S
C616 C618 1.391 . S
C617 C616 1.383 1_565 S
C617 C621 1.390 1_565 S
C618 H610 0.950 . S
C618 C616 1.391 . S
C618 C619 1.400 . S
C619 C618 1.400 . S
C619 C620 1.398 . S
C619 C625 1.491 . S
C620 H611 0.950 . S
C620 C619 1.398 . S
C620 C621 1.391 . S
C621 H609 0.950 . S
C621 C617 1.390 1_545 S
C621 C620 1.391 . S
C622 H612 0.950 . S
C622 C623 1.386 . S
C622 C624 1.391 . S
C623 C622 1.386 . S
C623 C627 1.393 . S
C624 H613 0.950 . S
C624 C622 1.391 . S
C624 C625 1.400 . S
C625 C619 1.491 . S
C625 C624 1.400 . S
C625 C626 1.398 . S
C626 H614 0.950 . S
C626 C625 1.398 . S
C626 C627 1.391 . S
C627 H615 0.950 . S
C627 C623 1.393 . S
C627 C626 1.391 . S
H628 C636 0.950 . S
H629 C641 0.950 . S
H630 C638 0.950 . S
H631 C640 0.950 . S
H632 C642 0.950 1_655 S
H633 C644 0.950 1_655 S
H634 C646 0.950 . S
H635 C647 0.950 . S
C636 H628 0.950 . S
C636 C637 1.386 . S
C636 C638 1.391 . S
C637 C636 1.386 . S
C637 C641 1.393 1_455 S
C638 H630 0.950 . S
C638 C636 1.391 . S
C638 C639 1.400 . S
C639 C638 1.400 . S
C639 C640 1.398 1_455 S
C639 C645 1.491 1_565 S
C640 H631 0.950 . S
C640 C639 1.398 1_655 S
C640 C641 1.391 . S
C641 H629 0.950 . S
C641 C637 1.393 1_655 S
C641 C640 1.391 . S
C642 H632 0.950 1_455 S
C642 C643 1.386 . S
C642 C644 1.391 . S
C643 C642 1.386 . S
C643 C647 1.393 . S
C644 H633 0.950 1_455 S
C644 C642 1.391 . S
C644 C645 1.400 . S
C645 C639 1.491 1_545 S
C645 C644 1.400 . S
C645 C646 1.398 . S
C646 H634 0.950 . S
C646 C645 1.398 . S
C646 C647 1.391 . S
C647 H635 0.950 . S
C647 C643 1.393 . S
C647 C646 1.391 . S
H648 C656 0.950 . S
H649 C661 0.950 . S
H650 C658 0.950 . S
H651 C660 0.950 . S
H652 C662 0.950 . S
H653 C664 0.950 . S
H654 C666 0.950 . S
H655 C667 0.950 . S
C656 H648 0.950 . S
C656 C657 1.381 1_545 S
C656 C658 1.391 . S
C657 C656 1.381 1_565 S
C657 C661 1.389 1_565 S
C658 H650 0.950 . S
C658 C656 1.391 . S
C658 C659 1.400 . S
C659 C658 1.400 . S
C659 C660 1.398 . S
C659 C665 1.491 . S
C660 H651 0.950 . S
C660 C659 1.398 . S
C660 C661 1.391 . S
C661 H649 0.950 . S
C661 C657 1.389 1_545 S
C661 C660 1.391 . S
C662 H652 0.950 . S
C662 C663 1.386 . S
C662 C664 1.391 . S
C663 C662 1.386 . S
C663 C667 1.393 . S
C664 H653 0.950 . S
C664 C662 1.391 . S
C664 C665 1.400 . S
C665 C659 1.491 . S
C665 C664 1.400 . S
C665 C666 1.398 . S
C666 H654 0.950 . S
C666 C665 1.398 . S
C666 C667 1.391 . S
C667 H655 0.950 . S
C667 C663 1.393 . S
C667 C666 1.391 . S
H668 C676 0.950 . S
H669 C681 0.950 . S
H670 C678 0.950 . S
H671 C680 0.950 . S
H672 C682 0.950 . S
H673 C684 0.950 . S
H674 C686 0.950 . S
H675 C687 0.950 . S
C676 H668 0.950 . S
C676 C677 1.386 . S
C676 C678 1.391 . S
C677 C676 1.386 . S
C677 C681 1.393 . S
C678 H670 0.950 . S
C678 C676 1.391 . S
C678 C679 1.400 . S
C679 C678 1.400 . S
C679 C680 1.398 . S
C679 C685 1.491 . S
C680 H671 0.950 . S
C680 C679 1.398 . S
C680 C681 1.391 . S
C681 H669 0.950 . S
C681 C677 1.393 . S
C681 C680 1.391 . S
C682 H672 0.950 . S
C682 C683 1.386 . S
C682 C684 1.391 . S
C683 C682 1.386 . S
C683 C687 1.393 . S
C684 H673 0.950 . S
C684 C682 1.391 . S
C684 C685 1.400 . S
C685 C679 1.491 . S
C685 C684 1.400 . S
C685 C686 1.398 . S
C686 H674 0.950 . S
C686 C685 1.398 . S
C686 C687 1.391 . S
C687 H675 0.950 . S
C687 C683 1.393 . S
C687 C686 1.391 . S
H688 C696 0.950 . S
H689 C701 0.950 . S
H690 C698 0.950 . S
H691 C700 0.950 . S
H692 C702 0.950 . S
H693 C704 0.950 . S
H694 C706 0.950 . S
H695 C707 0.950 . S
C696 H688 0.950 . S
C696 C697 1.386 . S
C696 C698 1.391 . S
C697 C696 1.386 . S
C697 C701 1.393 . S
C698 H690 0.950 . S
C698 C696 1.391 . S
C698 C699 1.400 . S
C699 C698 1.400 . S
C699 C700 1.398 . S
C699 C705 1.491 . S
C700 H691 0.950 . S
C700 C699 1.398 . S
C700 C701 1.391 . S
C701 H689 0.950 . S
C701 C697 1.393 . S
C701 C700 1.391 . S
C702 H692 0.950 . S
C702 C703 1.386 . S
C702 C704 1.391 . S
C703 C702 1.386 . S
C703 C707 1.393 . S
C704 H693 0.950 . S
C704 C702 1.391 . S
C704 C705 1.400 . S
C705 C699 1.491 . S
C705 C704 1.400 . S
C705 C706 1.398 . S
C706 H694 0.950 . S
C706 C705 1.398 . S
C706 C707 1.391 . S
C707 H695 0.950 . S
C707 C703 1.393 . S
C707 C706 1.391 . S
H708 C716 0.950 . S
H709 C721 0.950 . S
H710 C718 0.950 . S
H711 C720 0.950 . S
H712 C722 0.951 . S
H713 C724 0.947 1_556 S
H714 C726 0.950 . S
H715 C727 0.950 . S
C716 H708 0.950 . S
C716 C717 1.386 1_554 S
C716 C718 1.391 . S
C717 C716 1.386 1_556 S
C717 C721 1.393 . S
C718 H710 0.950 . S
C718 C716 1.391 . S
C718 C719 1.400 . S
C719 C718 1.400 . S
C719 C720 1.398 1_554 S
C719 C725 1.491 1_565 S
C720 H711 0.950 . S
C720 C719 1.398 1_556 S
C720 C721 1.391 . S
C721 H709 0.950 . S
C721 C717 1.393 . S
C721 C720 1.391 . S
C722 H712 0.951 . S
C722 C723 1.386 . S
C722 C724 1.390 . S
C723 C722 1.386 . S
C723 C727 1.393 . S
C724 H713 0.947 1_554 S
C724 C722 1.390 . S
C724 C725 1.405 . S
C725 C719 1.491 1_545 S
C725 C724 1.405 . S
C725 C726 1.398 . S
C726 H714 0.950 . S
C726 C725 1.398 . S
C726 C727 1.391 . S
C727 H715 0.950 . S
C727 C723 1.393 . S
C727 C726 1.391 . S
H728 C736 0.950 . S
H729 C741 0.950 . S
H730 C738 0.950 . S
H731 C740 0.950 . S
H732 C742 0.950 . S
H733 C744 0.950 . S
H734 C746 0.950 . S
H735 C747 0.950 . S
C736 H728 0.950 . S
C736 C737 1.386 1_554 S
C736 C738 1.391 . S
C737 C736 1.386 1_556 S
C737 C741 1.393 . S
C738 H730 0.950 . S
C738 C736 1.391 . S
C738 C739 1.400 1_554 S
C739 C738 1.400 1_556 S
C739 C740 1.398 . S
C739 C745 1.491 1_556 S
C740 H731 0.950 . S
C740 C739 1.398 . S
C740 C741 1.391 . S
C741 H729 0.950 . S
C741 C737 1.393 . S
C741 C740 1.391 . S
C742 H732 0.950 . S
C742 C743 1.386 1_556 S
C742 C744 1.391 . S
C743 C742 1.386 1_554 S
C743 C747 1.393 . S
C744 H733 0.950 . S
C744 C742 1.391 . S
C744 C745 1.400 1_556 S
C745 C739 1.491 1_554 S
C745 C744 1.400 1_554 S
C745 C746 1.398 . S
C746 H734 0.950 . S
C746 C745 1.398 . S
C746 C747 1.391 . S
C747 H735 0.950 . S
C747 C743 1.393 . S
C747 C746 1.391 . S
H748 C756 0.950 . S
H749 C761 0.944 1_554 S
H750 C758 0.950 . S
H751 C760 0.950 . S
H752 C762 0.950 . S
H753 C764 0.950 . S
H754 C766 0.950 . S
H755 C767 0.955 . S
C756 H748 0.950 . S
C756 C757 1.386 . S
C756 C758 1.391 . S
C757 C756 1.386 . S
C757 C761 1.402 . S
C758 H750 0.950 . S
C758 C756 1.391 . S
C758 C759 1.400 . S
C759 C758 1.400 . S
C759 C760 1.398 1_556 S
C759 C765 1.491 1_556 S
C760 H751 0.950 . S
C760 C759 1.398 1_554 S
C760 C761 1.388 1_554 S
C761 H749 0.944 1_556 S
C761 C757 1.402 . S
C761 C760 1.388 1_556 S
C762 H752 0.950 . S
C762 C763 1.386 . S
C762 C764 1.391 . S
C763 C762 1.386 . S
C763 C767 1.385 1_554 S
C764 H753 0.950 . S
C764 C762 1.391 . S
C764 C765 1.400 . S
C765 C759 1.491 1_554 S
C765 C764 1.400 . S
C765 C766 1.398 1_554 S
C766 H754 0.950 . S
C766 C765 1.398 1_556 S
C766 C767 1.393 . S
C767 H755 0.955 . S
C767 C763 1.385 1_556 S
C767 C766 1.393 . S
H768 C776 0.950 . S
H769 C781 0.950 . S
H770 C778 0.950 . S
H771 C780 0.950 . S
H772 C782 0.950 . S
H773 C784 0.950 1_455 S
H774 C786 0.950 . S
H775 C787 0.950 . S
C776 H768 0.950 . S
C776 C777 1.386 . S
C776 C778 1.391 . S
C777 C776 1.386 . S
C777 C781 1.393 . S
C778 H770 0.950 . S
C778 C776 1.391 . S
C778 C779 1.400 . S
C779 C778 1.400 . S
C779 C780 1.398 . S
C779 C785 1.476 1_455 S
C780 H771 0.950 . S
C780 C779 1.398 . S
C780 C781 1.391 . S
C781 H769 0.950 . S
C781 C777 1.393 . S
C781 C780 1.391 . S
C782 H772 0.950 . S
C782 C783 1.386 . S
C782 C784 1.391 . S
C783 C782 1.386 . S
C783 C787 1.393 . S
C784 H773 0.950 1_655 S
C784 C782 1.391 . S
C784 C785 1.403 . S
C785 C779 1.476 1_655 S
C785 C784 1.403 . S
C785 C786 1.410 . S
C786 H774 0.950 . S
C786 C785 1.410 . S
C786 C787 1.391 . S
C787 H775 0.950 . S
C787 C783 1.393 . S
C787 C786 1.391 . S
H788 C796 0.950 . S
H789 C801 0.950 . S
H790 C798 0.950 . S
H791 C800 0.950 . S
H792 C802 0.950 . S
H793 C804 0.950 . S
H794 C806 0.950 . S
H795 C807 0.950 . S
C796 H788 0.950 . S
C796 C797 1.386 . S
C796 C798 1.391 . S
C797 C796 1.386 . S
C797 C801 1.393 . S
C798 H790 0.950 . S
C798 C796 1.391 . S
C798 C799 1.400 . S
C799 C798 1.400 . S
C799 C800 1.398 . S
C799 C805 1.491 . S
C800 H791 0.950 . S
C800 C799 1.398 . S
C800 C801 1.391 . S
C801 H789 0.950 . S
C801 C797 1.393 . S
C801 C800 1.391 . S
C802 H792 0.950 . S
C802 C803 1.386 . S
C802 C804 1.391 . S
C803 C802 1.386 . S
C803 C807 1.393 . S
C804 H793 0.950 . S
C804 C802 1.391 . S
C804 C805 1.400 . S
C805 C799 1.491 . S
C805 C804 1.400 . S
C805 C806 1.398 . S
C806 H794 0.950 . S
C806 C805 1.398 . S
C806 C807 1.391 . S
C807 H795 0.950 . S
C807 C803 1.393 . S
C807 C806 1.391 . S
H808 C816 0.950 . S
H809 C821 0.950 . S
H810 C818 0.950 . S
H811 C820 0.950 . S
H812 C822 0.950 . S
H813 C824 0.950 . S
H814 C826 0.950 . S
H815 C827 0.950 . S
C816 H808 0.950 . S
C816 C817 1.386 . S
C816 C818 1.391 . S
C817 C816 1.386 . S
C817 C821 1.393 . S
C818 H810 0.950 . S
C818 C816 1.391 . S
C818 C819 1.400 . S
C819 C818 1.400 . S
C819 C820 1.398 . S
C819 C825 1.491 . S
C820 H811 0.950 . S
C820 C819 1.398 . S
C820 C821 1.391 . S
C821 H809 0.950 . S
C821 C817 1.393 . S
C821 C820 1.391 . S
C822 H812 0.950 . S
C822 C823 1.386 . S
C822 C824 1.391 . S
C823 C822 1.386 . S
C823 C827 1.393 . S
C824 H813 0.950 . S
C824 C822 1.391 . S
C824 C825 1.400 . S
C825 C819 1.491 . S
C825 C824 1.400 . S
C825 C826 1.398 . S
C826 H814 0.950 . S
C826 C825 1.398 . S
C826 C827 1.391 . S
C827 H815 0.950 . S
C827 C823 1.393 . S
C827 C826 1.391 . S
H828 C836 0.950 . S
H829 C841 0.950 . S
H830 C838 0.950 1_455 S
H831 C840 0.950 . S
H832 C842 0.950 . S
H833 C844 0.950 . S
H834 C846 0.950 . S
H835 C847 0.958 . S
C836 H828 0.950 . S
C836 C837 1.386 . S
C836 C838 1.391 . S
C837 C836 1.386 . S
C837 C841 1.393 1_545 S
C838 H830 0.950 1_655 S
C838 C836 1.391 . S
C838 C839 1.403 . S
C839 C838 1.403 . S
C839 C840 1.410 1_545 S
C839 C845 1.477 1_645 S
C840 H831 0.950 . S
C840 C839 1.410 1_565 S
C840 C841 1.391 . S
C841 H829 0.950 . S
C841 C837 1.393 1_565 S
C841 C840 1.391 . S
C842 H832 0.950 . S
C842 C843 1.386 . S
C842 C844 1.391 . S
C843 C842 1.386 . S
C843 C847 1.381 1_565 S
C844 H833 0.950 . S
C844 C842 1.391 . S
C844 C845 1.400 . S
C845 C839 1.477 1_465 S
C845 C844 1.400 . S
C845 C846 1.398 1_565 S
C846 H834 0.950 . S
C846 C845 1.398 1_545 S
C846 C847 1.395 . S
C847 H835 0.958 . S
C847 C843 1.381 1_545 S
C847 C846 1.395 . S
H848 C856 0.950 . S
H849 C861 0.950 . S
H850 C858 0.950 . S
H851 C860 0.950 . S
H852 C862 0.950 . S
H853 C864 0.950 . S
H854 C866 0.950 . S
H855 C867 0.950 . S
C856 H848 0.950 . S
C856 C857 1.386 . S
C856 C858 1.391 . S
C857 C856 1.386 . S
C857 C861 1.393 . S
C858 H850 0.950 . S
C858 C856 1.391 . S
C858 C859 1.400 . S
C859 C858 1.400 . S
C859 C860 1.398 . S
C859 C865 1.491 . S
C860 H851 0.950 . S
C860 C859 1.398 . S
C860 C861 1.391 . S
C861 H849 0.950 . S
C861 C857 1.393 . S
C861 C860 1.391 . S
C862 H852 0.950 . S
C862 C863 1.386 . S
C862 C864 1.391 . S
C863 C862 1.386 . S
C863 C867 1.393 . S
C864 H853 0.950 . S
C864 C862 1.391 . S
C864 C865 1.400 . S
C865 C859 1.491 . S
C865 C864 1.400 . S
C865 C866 1.398 . S
C866 H854 0.950 . S
C866 C865 1.398 . S
C866 C867 1.391 . S
C867 H855 0.950 . S
C867 C863 1.393 . S
C867 C866 1.391 . S
H868 C876 0.950 . S
H869 C881 0.950 . S
H870 C878 0.950 . S
H871 C880 0.950 . S
H872 C882 0.950 . S
H873 C884 0.950 . S
H874 C886 0.950 . S
H875 C887 0.950 . S
C876 H868 0.950 . S
C876 C877 1.386 . S
C876 C878 1.391 . S
C877 C876 1.386 . S
C877 C881 1.393 1_565 S
C878 H870 0.950 . S
C878 C876 1.391 . S
C878 C879 1.400 . S
C879 C878 1.400 . S
C879 C880 1.398 1_565 S
C879 C885 1.491 1_565 S
C880 H871 0.950 . S
C880 C879 1.398 1_545 S
C880 C881 1.391 . S
C881 H869 0.950 . S
C881 C877 1.393 1_545 S
C881 C880 1.391 . S
C882 H872 0.950 . S
C882 C883 1.386 . S
C882 C884 1.391 . S
C883 C882 1.386 . S
C883 C887 1.393 1_545 S
C884 H873 0.950 . S
C884 C882 1.391 . S
C884 C885 1.400 . S
C885 C879 1.491 1_545 S
C885 C884 1.400 . S
C885 C886 1.398 1_545 S
C886 H874 0.950 . S
C886 C885 1.398 1_565 S
C886 C887 1.391 . S
C887 H875 0.950 . S
C887 C883 1.393 1_565 S
C887 C886 1.391 . S
C257 C20 1.245 . S
C263 C41 1.310 . S
C277 C19 1.715 . S
C283 C82 1.725 . S
C297 C123 1.314 . S
C303 C32 1.251 . S
C317 C62 1.713 . S
C323 C94 1.720 . S
C337 C113 1.240 . S
C343 C154 1.303 . S
C357 C156 1.726 . S
C363 C112 1.700 . S
C377 C144 1.259 . S
C383 C30 1.289 . S
C397 C174 1.702 . S
C403 C1 1.724 . S
C417 C185 1.298 . S
C423 C206 1.237 . S
C437 C205 1.713 . S
C443 C125 1.727 . S
C457 C247 1.293 . S
C463 C175 1.267 . S
C477 C218 1.721 . S
C483 C143 1.706 . S
C497 C237 1.256 . S
C503 C72 1.287 . S
C517 C51 1.727 . S
C523 C236 1.700 . S
C537 C216 1.303 . S
C543 C63 1.277 . S
C557 C187 1.720 . S
C563 C31 1.712 . S
C577 C10 0.857 . S
C583 C0 0.856 1_556 S
C597 C50 0.852 . S
C603 C61 0.852 1_565 S
C617 C81 0.848 . S
C623 C92 0.848 . S
C637 C93 0.837 . S
C643 C103 0.841 . S
C657 C124 0.864 . S
C663 C134 0.857 . S
C677 C155 0.858 . S
C683 C165 0.857 1_565 S
C697 C196 0.854 . S
C703 C186 0.855 . S
C717 C217 0.830 1_556 S
C723 C227 0.841 . S
C737 C219 1.619 . S
C743 C29 1.632 . S
C757 C2 1.629 . S
C763 C246 1.638 . S
C777 C33 1.640 . S
C783 C91 1.631 . S
C797 C188 1.618 . S
C803 C122 1.630 . S
C817 C95 1.636 . S
C823 C215 1.647 . S
C837 C157 1.632 . S
C843 C153 1.645 . S
C857 C184 1.633 . S
C863 C126 1.620 . S
C877 C64 1.633 . S
C883 C60 1.623 . S
