# Generated by pormake.
# Topology vbg, (5)-cn, num edge types: 1
# Building blocks:
#     Node 0, Type 0, BuildingBlock: BEQFEK_clean_sbu_0, # of connection points: 5
#     Node 1, Type 0, BuildingBlock: BEQFEK_clean_sbu_0, # of connection points: 5
#     Node 2, Type 0, BuildingBlock: BEQFEK_clean_sbu_0, # of connection points: 5
#     Node 3, Type 0, BuildingBlock: BEQFEK_clean_sbu_0, # of connection points: 5
#     Node 4, Type 0, BuildingBlock: BEQFEK_clean_sbu_0, # of connection points: 5
#     Node 5, Type 0, BuildingBlock: BEQFEK_clean_sbu_0, # of connection points: 5
#     Node 6, Type 0, BuildingBlock: BEQFEK_clean_sbu_0, # of connection points: 5
#     Node 7, Type 0, BuildingBlock: BEQFEK_clean_sbu_0, # of connection points: 5
#     Node 8, Type 0, BuildingBlock: BEQFEK_clean_sbu_0, # of connection points: 5
#     Node 9, Type 0, BuildingBlock: BEQFEK_clean_sbu_0, # of connection points: 5
#     Node 10, Type 0, BuildingBlock: BEQFEK_clean_sbu_0, # of connection points: 5
#     Node 11, Type 0, BuildingBlock: BEQFEK_clean_sbu_0, # of connection points: 5
#     Node 12, Type 0, BuildingBlock: BEQFEK_clean_sbu_0, # of connection points: 5
#     Node 13, Type 0, BuildingBlock: BEQFEK_clean_sbu_0, # of connection points: 5
#     Node 14, Type 0, BuildingBlock: BEQFEK_clean_sbu_0, # of connection points: 5
#     Node 15, Type 0, BuildingBlock: BEQFEK_clean_sbu_0, # of connection points: 5
#     Node 16, Type 0, BuildingBlock: BEQFEK_clean_sbu_0, # of connection points: 5
#     Node 17, Type 0, BuildingBlock: BEQFEK_clean_sbu_0, # of connection points: 5
#     Node 18, Type 0, BuildingBlock: BEQFEK_clean_sbu_0, # of connection points: 5
#     Node 19, Type 0, BuildingBlock: BEQFEK_clean_sbu_0, # of connection points: 5
#     Node 20, Type 0, BuildingBlock: BEQFEK_clean_sbu_0, # of connection points: 5
#     Node 21, Type 0, BuildingBlock: BEQFEK_clean_sbu_0, # of connection points: 5
#     Node 22, Type 0, BuildingBlock: BEQFEK_clean_sbu_0, # of connection points: 5
#     Node 23, Type 0, BuildingBlock: BEQFEK_clean_sbu_0, # of connection points: 5
#     Node 24, Type 0, BuildingBlock: BEQFEK_clean_sbu_0, # of connection points: 5
#     Node 25, Type 0, BuildingBlock: BEQFEK_clean_sbu_0, # of connection points: 5
#     Node 26, Type 0, BuildingBlock: BEQFEK_clean_sbu_0, # of connection points: 5
#     Node 27, Type 0, BuildingBlock: BEQFEK_clean_sbu_0, # of connection points: 5
#     Node 28, Type 0, BuildingBlock: BEQFEK_clean_sbu_0, # of connection points: 5
#     Node 29, Type 0, BuildingBlock: BEQFEK_clean_sbu_0, # of connection points: 5
#     Node 30, Type 0, BuildingBlock: BEQFEK_clean_sbu_0, # of connection points: 5
#     Node 31, Type 0, BuildingBlock: BEQFEK_clean_sbu_0, # of connection points: 5
#     Edge 32, Type (0, 0), BuildingBlock: AJUNOK_clean_linker_0, # of connection points: 2
#     Edge 33, Type (0, 0), BuildingBlock: AJUNOK_clean_linker_0, # of connection points: 2
#     Edge 34, Type (0, 0), BuildingBlock: AJUNOK_clean_linker_0, # of connection points: 2
#     Edge 35, Type (0, 0), BuildingBlock: AJUNOK_clean_linker_0, # of connection points: 2
#     Edge 36, Type (0, 0), BuildingBlock: AJUNOK_clean_linker_0, # of connection points: 2
#     Edge 37, Type (0, 0), BuildingBlock: AJUNOK_clean_linker_0, # of connection points: 2
#     Edge 38, Type (0, 0), BuildingBlock: AJUNOK_clean_linker_0, # of connection points: 2
#     Edge 39, Type (0, 0), BuildingBlock: AJUNOK_clean_linker_0, # of connection points: 2
#     Edge 40, Type (0, 0), BuildingBlock: AJUNOK_clean_linker_0, # of connection points: 2
#     Edge 41, Type (0, 0), BuildingBlock: AJUNOK_clean_linker_0, # of connection points: 2
#     Edge 42, Type (0, 0), BuildingBlock: AJUNOK_clean_linker_0, # of connection points: 2
#     Edge 43, Type (0, 0), BuildingBlock: AJUNOK_clean_linker_0, # of connection points: 2
#     Edge 44, Type (0, 0), BuildingBlock: AJUNOK_clean_linker_0, # of connection points: 2
#     Edge 45, Type (0, 0), BuildingBlock: AJUNOK_clean_linker_0, # of connection points: 2
#     Edge 46, Type (0, 0), BuildingBlock: AJUNOK_clean_linker_0, # of connection points: 2
#     Edge 47, Type (0, 0), BuildingBlock: AJUNOK_clean_linker_0, # of connection points: 2
#     Edge 48, Type (0, 0), BuildingBlock: AJUNOK_clean_linker_0, # of connection points: 2
#     Edge 49, Type (0, 0), BuildingBlock: AJUNOK_clean_linker_0, # of connection points: 2
#     Edge 50, Type (0, 0), BuildingBlock: AJUNOK_clean_linker_0, # of connection points: 2
#     Edge 51, Type (0, 0), BuildingBlock: AJUNOK_clean_linker_0, # of connection points: 2
#     Edge 52, Type (0, 0), BuildingBlock: AJUNOK_clean_linker_0, # of connection points: 2
#     Edge 53, Type (0, 0), BuildingBlock: AJUNOK_clean_linker_0, # of connection points: 2
#     Edge 54, Type (0, 0), BuildingBlock: AJUNOK_clean_linker_0, # of connection points: 2
#     Edge 55, Type (0, 0), BuildingBlock: AJUNOK_clean_linker_0, # of connection points: 2
#     Edge 56, Type (0, 0), BuildingBlock: AJUNOK_clean_linker_0, # of connection points: 2
#     Edge 57, Type (0, 0), BuildingBlock: AJUNOK_clean_linker_0, # of connection points: 2
#     Edge 58, Type (0, 0), BuildingBlock: AJUNOK_clean_linker_0, # of connection points: 2
#     Edge 59, Type (0, 0), BuildingBlock: AJUNOK_clean_linker_0, # of connection points: 2
#     Edge 60, Type (0, 0), BuildingBlock: AJUNOK_clean_linker_0, # of connection points: 2
#     Edge 61, Type (0, 0), BuildingBlock: AJUNOK_clean_linker_0, # of connection points: 2
#     Edge 62, Type (0, 0), BuildingBlock: AJUNOK_clean_linker_0, # of connection points: 2
#     Edge 63, Type (0, 0), BuildingBlock: AJUNOK_clean_linker_0, # of connection points: 2
#     Edge 64, Type (0, 0), BuildingBlock: AJUNOK_clean_linker_0, # of connection points: 2
#     Edge 65, Type (0, 0), BuildingBlock: AJUNOK_clean_linker_0, # of connection points: 2
#     Edge 66, Type (0, 0), BuildingBlock: AJUNOK_clean_linker_0, # of connection points: 2
#     Edge 67, Type (0, 0), BuildingBlock: AJUNOK_clean_linker_0, # of connection points: 2
#     Edge 68, Type (0, 0), BuildingBlock: AJUNOK_clean_linker_0, # of connection points: 2
#     Edge 69, Type (0, 0), BuildingBlock: AJUNOK_clean_linker_0, # of connection points: 2
#     Edge 70, Type (0, 0), BuildingBlock: AJUNOK_clean_linker_0, # of connection points: 2
#     Edge 71, Type (0, 0), BuildingBlock: AJUNOK_clean_linker_0, # of connection points: 2
#     Edge 72, Type (0, 0), BuildingBlock: AJUNOK_clean_linker_0, # of connection points: 2
#     Edge 73, Type (0, 0), BuildingBlock: AJUNOK_clean_linker_0, # of connection points: 2
#     Edge 74, Type (0, 0), BuildingBlock: AJUNOK_clean_linker_0, # of connection points: 2
#     Edge 75, Type (0, 0), BuildingBlock: AJUNOK_clean_linker_0, # of connection points: 2
#     Edge 76, Type (0, 0), BuildingBlock: AJUNOK_clean_linker_0, # of connection points: 2
#     Edge 77, Type (0, 0), BuildingBlock: AJUNOK_clean_linker_0, # of connection points: 2
#     Edge 78, Type (0, 0), BuildingBlock: AJUNOK_clean_linker_0, # of connection points: 2
#     Edge 79, Type (0, 0), BuildingBlock: AJUNOK_clean_linker_0, # of connection points: 2
#     Edge 80, Type (0, 0), BuildingBlock: AJUNOK_clean_linker_0, # of connection points: 2
#     Edge 81, Type (0, 0), BuildingBlock: AJUNOK_clean_linker_0, # of connection points: 2
#     Edge 82, Type (0, 0), BuildingBlock: AJUNOK_clean_linker_0, # of connection points: 2
#     Edge 83, Type (0, 0), BuildingBlock: AJUNOK_clean_linker_0, # of connection points: 2
#     Edge 84, Type (0, 0), BuildingBlock: AJUNOK_clean_linker_0, # of connection points: 2
#     Edge 85, Type (0, 0), BuildingBlock: AJUNOK_clean_linker_0, # of connection points: 2
#     Edge 86, Type (0, 0), BuildingBlock: AJUNOK_clean_linker_0, # of connection points: 2
#     Edge 87, Type (0, 0), BuildingBlock: AJUNOK_clean_linker_0, # of connection points: 2
#     Edge 88, Type (0, 0), BuildingBlock: AJUNOK_clean_linker_0, # of connection points: 2
#     Edge 89, Type (0, 0), BuildingBlock: AJUNOK_clean_linker_0, # of connection points: 2
#     Edge 90, Type (0, 0), BuildingBlock: AJUNOK_clean_linker_0, # of connection points: 2
#     Edge 91, Type (0, 0), BuildingBlock: AJUNOK_clean_linker_0, # of connection points: 2
#     Edge 92, Type (0, 0), BuildingBlock: AJUNOK_clean_linker_0, # of connection points: 2
#     Edge 93, Type (0, 0), BuildingBlock: AJUNOK_clean_linker_0, # of connection points: 2
#     Edge 94, Type (0, 0), BuildingBlock: AJUNOK_clean_linker_0, # of connection points: 2
#     Edge 95, Type (0, 0), BuildingBlock: AJUNOK_clean_linker_0, # of connection points: 2
#     Edge 96, Type (0, 0), BuildingBlock: AJUNOK_clean_linker_0, # of connection points: 2
#     Edge 97, Type (0, 0), BuildingBlock: AJUNOK_clean_linker_0, # of connection points: 2
#     Edge 98, Type (0, 0), BuildingBlock: AJUNOK_clean_linker_0, # of connection points: 2
#     Edge 99, Type (0, 0), BuildingBlock: AJUNOK_clean_linker_0, # of connection points: 2
#     Edge 100, Type (0, 0), BuildingBlock: AJUNOK_clean_linker_0, # of connection points: 2
#     Edge 101, Type (0, 0), BuildingBlock: AJUNOK_clean_linker_0, # of connection points: 2
#     Edge 102, Type (0, 0), BuildingBlock: AJUNOK_clean_linker_0, # of connection points: 2
#     Edge 103, Type (0, 0), BuildingBlock: AJUNOK_clean_linker_0, # of connection points: 2
#     Edge 104, Type (0, 0), BuildingBlock: AJUNOK_clean_linker_0, # of connection points: 2
#     Edge 105, Type (0, 0), BuildingBlock: AJUNOK_clean_linker_0, # of connection points: 2
#     Edge 106, Type (0, 0), BuildingBlock: AJUNOK_clean_linker_0, # of connection points: 2
#     Edge 107, Type (0, 0), BuildingBlock: AJUNOK_clean_linker_0, # of connection points: 2
#     Edge 108, Type (0, 0), BuildingBlock: AJUNOK_clean_linker_0, # of connection points: 2
#     Edge 109, Type (0, 0), BuildingBlock: AJUNOK_clean_linker_0, # of connection points: 2
#     Edge 110, Type (0, 0), BuildingBlock: AJUNOK_clean_linker_0, # of connection points: 2
#     Edge 111, Type (0, 0), BuildingBlock: AJUNOK_clean_linker_0, # of connection points: 2
# Relax obj value: 0.373
# Max RMSD: 0.155
# Mean RMSD: 0.155
data_MOF--net-vbg--node1-BEQFEK_clean_sbu_0--edge1-AJUNOK_clean_linker_0
_symmetry_space_group_name_H-M    P1
_symmetry_Int_Tables_number       1
_symmetry_cell_setting            triclinic
loop_
_symmetry_equiv_pos_as_xyz
'x, y, z'
_cell_length_a     56.053576
_cell_length_b     37.494608
_cell_length_c     31.76961
_cell_angle_alpha  89.96808
_cell_angle_beta   90.172093
_cell_angle_gamma 89.938871
loop_
_atom_site_label
_atom_site_type_symbol
_atom_site_fract_x
_atom_site_fract_y
_atom_site_fract_z
_atom_type_partial_charge
Co0 Co 0.05039 0.18079 0.51093 0.0
Co1 Co 0.05823 0.23257 0.43915 0.0
C2 C 0.0383 0.15495 0.42231 0.0
O3 O 0.03728 0.1492 0.46194 0.0
O4 O 0.0454 0.18576 0.41021 0.0
C5 C 0.02287 0.13931 0.56723 0.0
O6 O 0.01229 0.12878 0.53247 0.0
C7 C 0.03479 0.27359 0.37605 0.0
C8 C 0.06397 0.2927 0.33549 0.0
C9 C 0.03931 0.29043 0.33823 0.0
N10 N 0.05566 0.26605 0.39477 0.0
N11 N 0.07314 0.27803 0.37079 0.0
C12 C 0.01125 0.25983 0.39111 0.0
H13 H 0.01362 0.24171 0.41842 0.0
H14 H 0.9999 0.28265 0.40078 0.0
H15 H 1.00192 0.24561 0.36522 0.0
C16 C 0.03238 0.24942 0.55493 0.0
N17 N 0.03909 0.23072 0.51995 0.0
N18 N 0.04343 0.25358 0.48977 0.0
C19 C 0.04021 0.28741 0.50521 0.0
C20 C 0.03316 0.28651 0.54801 0.0
C21 C 0.02333 0.23201 0.59367 0.0
H22 H 0.03808 0.21737 0.60932 0.0
H23 H 0.00934 0.21326 0.58372 0.0
H24 H 0.01508 0.25114 0.61587 0.0
O25 O 0.08645 0.18158 0.50366 0.0
O26 O 0.09235 0.22247 0.45367 0.0
H27 H 0.06143 0.31495 0.45949 0.0
H28 H 0.05036 0.34288 0.50183 0.0
C29 C 0.04612 0.32022 0.48065 0.0
H30 H 0.03053 0.32753 0.46083 0.0
H31 H 0.09121 0.27395 0.37702 0.0
O32 O 0.04238 0.15637 0.56428 0.0
C33 C 0.10047 0.19989 0.48031 0.0
Co34 Co 0.25375 0.17725 0.48462 0.0
Co35 Co 0.23853 0.12649 0.41816 0.0
C36 C 0.26167 0.19594 0.38862 0.0
O37 O 0.26395 0.20232 0.42816 0.0
O38 O 0.25274 0.16576 0.37781 0.0
C39 C 0.28089 0.19413 0.55877 0.0
O40 O 0.29773 0.17149 0.5481 0.0
C41 C 0.22958 0.078 0.35008 0.0
C42 C 0.19869 1.04705 0.37395 0.0
C43 C 0.21336 1.05188 0.33969 0.0
N44 N 0.22471 0.08883 0.38891 0.0
N45 N 0.20641 0.07022 0.40337 0.0
C46 C 0.24903 0.09318 0.32334 0.0
H47 H 0.26387 0.1029 0.34346 0.0
H48 H 0.25585 0.07302 0.30082 0.0
H49 H 0.24181 0.11605 0.3051 0.0
C50 C 0.26416 0.10328 0.52902 0.0
N51 N 0.2607 0.1251 0.49495 0.0
N52 N 0.25872 0.10462 0.46177 0.0
C53 C 0.26371 0.07011 0.47303 0.0
C54 C 0.26826 0.06772 0.51671 0.0
C55 C 0.25408 0.11173 0.57116 0.0
H56 H 0.24008 0.13224 0.56756 0.0
H57 H 0.26848 0.1204 0.59233 0.0
H58 H 0.24576 0.08786 0.5857 0.0
O59 O 0.21876 0.18591 0.49048 0.0
O60 O 0.20833 0.1463 0.44292 0.0
H61 H 0.24428 1.02743 0.44474 0.0
H62 H 0.27566 1.01878 0.4515 0.0
C63 C 0.26232 1.03949 0.44305 0.0
H64 H 0.26546 1.04877 0.41037 0.0
H65 H 0.19888 0.07382 0.4331 0.0
O66 O 0.26781 0.20695 0.5299 0.0
C67 C 0.20262 0.16953 0.47016 0.0
Co68 Co 0.99686 0.18508 0.77824 0.0
Co69 Co 0.01921 0.13496 0.84089 0.0
C70 C 0.99357 0.20442 0.87171 0.0
O71 O 0.98693 0.21011 0.83378 0.0
O72 O 0.00582 0.17623 0.87915 0.0
C73 C 0.97579 0.21529 0.69661 0.0
O74 O 0.96231 0.24072 0.68087 0.0
C75 C 0.015 0.08697 0.90845 0.0
C76 C 0.05232 0.07221 0.92296 0.0
C77 C 0.02908 0.06938 0.93733 0.0
N78 N 0.02913 0.09985 0.87843 0.0
N79 N 0.0514 0.09033 0.8864 0.0
C80 C 0.98926 0.09693 0.91292 0.0
H81 H 0.98682 0.11317 0.9418 0.0
H82 H 0.98298 0.11222 0.88509 0.0
H83 H 0.9783 0.07248 0.91621 0.0
C84 C 0.97791 0.11206 0.74123 0.0
N85 N 0.9886 0.1332 0.771 0.0
N86 N 1.00008 0.1121 0.79712 0.0
C87 C 0.99842 0.07774 0.78318 0.0
C88 C 0.98439 0.07605 0.74657 0.0
C89 C 0.95861 0.12403 0.7121 0.0
H90 H 0.95387 0.15229 0.71761 0.0
H91 H 0.94248 0.10752 0.71754 0.0
H92 H 0.96403 0.11902 0.67917 0.0
O93 O 0.03354 0.19349 0.77251 0.0
O94 O 0.04831 0.15215 0.81517 0.0
H95 H 0.03068 1.05541 0.80798 0.0
H96 H 0.01139 1.02333 0.78213 0.0
C97 C 0.01189 1.04738 0.80245 0.0
H98 H 0.00389 1.04084 0.83341 0.0
H99 H 0.06608 0.0985 0.86875 0.0
O100 O 0.97971 0.21522 0.73606 0.0
C101 C 0.05142 0.17702 0.78877 0.0
Co102 Co 0.20547 0.18966 0.77479 0.0
Co103 Co 0.19178 0.23681 0.84621 0.0
C104 C 0.21432 0.16016 0.86197 0.0
O105 O 0.21756 0.15695 0.82241 0.0
O106 O 0.2048 0.18923 0.87513 0.0
C107 C 0.23678 0.15668 0.71673 0.0
O108 O 0.25056 0.15239 0.74989 0.0
C109 C 0.21343 0.28115 0.9058 0.0
C110 C 0.18492 0.2971 0.94968 0.0
C111 C 0.20935 0.29904 0.94293 0.0
N112 N 0.19253 0.26966 0.8907 0.0
N113 N 0.17535 0.2796 0.91657 0.0
C114 C 0.23709 0.27003 0.88819 0.0
H115 H 0.25019 0.26485 0.91374 0.0
H116 H 0.23521 0.24578 0.86851 0.0
H117 H 0.24411 0.29182 0.86811 0.0
C118 C 0.22553 0.2598 0.73849 0.0
N119 N 0.21692 0.23937 0.77063 0.0
N120 N 0.20817 0.26073 0.79922 0.0
C121 C 0.20975 0.29511 0.78482 0.0
C122 C 0.22061 0.29606 0.7448 0.0
C123 C 0.23982 0.24569 0.70298 0.0
H124 H 0.25218 0.22502 0.71487 0.0
H125 H 0.2505 0.26695 0.68769 0.0
H126 H 0.2273 0.2347 0.67962 0.0
O127 O 0.16874 0.19022 0.77493 0.0
O128 O 0.15882 0.22773 0.8263 0.0
H129 H 0.18288 0.31753 0.82495 0.0
H130 H 0.19375 0.34746 0.78426 0.0
C131 C 0.19879 0.32621 0.80695 0.0
H132 H 0.21197 0.33731 0.82952 0.0
H133 H 0.15746 0.27254 0.91304 0.0
O134 O 0.2156 0.16774 0.72214 0.0
C135 C 0.15286 0.20716 0.79606 0.0
Co136 Co 0.95454 0.9293 0.53663 0.0
Co137 Co 0.94511 0.8781 0.60826 0.0
C138 C 0.9652 0.95437 0.62633 0.0
O139 O 0.96675 0.95949 0.58672 0.0
O140 O 0.9572 0.92431 0.6389 0.0
C141 C 0.98591 0.96874 0.48505 0.0
O142 O 0.99762 0.97266 0.52062 0.0
C143 C 0.96704 0.84097 0.67511 0.0
C144 C 0.93981 0.80483 0.70121 0.0
C145 C 0.96307 0.81664 0.70683 0.0
N146 N 0.94713 0.84405 0.65201 0.0
N147 N 0.9308 0.82231 0.66748 0.0
C148 C 0.98969 0.86058 0.66592 0.0
H149 H 0.99039 0.86839 0.63226 0.0
H150 H 0.00542 0.84387 0.67397 0.0
H151 H 0.9904 0.88517 0.6853 0.0
C152 C 0.97166 0.86052 0.49342 0.0
N153 N 0.96559 0.87981 0.52825 0.0
N154 N 0.96178 0.85762 0.55936 0.0
C155 C 0.96545 0.82359 0.54521 0.0
C156 C 0.97211 0.8237 0.5023 0.0
C157 C 0.97663 0.87719 0.45179 0.0
H158 H 0.96158 0.89474 0.44239 0.0
H159 H 0.99272 0.89356 0.45567 0.0
H160 H 0.98033 0.85754 0.42669 0.0
O161 O 0.91849 0.92762 0.53927 0.0
O162 O 0.91134 0.88748 0.58957 0.0
H163 H 0.95881 0.76686 0.55096 0.0
H164 H 0.97253 0.78802 0.5962 0.0
C165 C 0.95922 0.79132 0.57056 0.0
H166 H 0.94151 0.7952 0.58537 0.0
H167 H 0.91352 0.81985 0.65555 0.0
O168 O 0.96509 0.95522 0.48602 0.0
C169 C 0.90386 0.90901 0.56111 0.0
Co170 Co 0.74812 0.92663 0.53179 0.0
Co171 Co 0.76617 0.98143 0.59207 0.0
C172 C 0.74137 0.91183 0.62599 0.0
O173 O 0.73624 0.90419 0.58777 0.0
O174 O 0.75242 0.94124 0.63278 0.0
C175 C 0.73201 0.88759 0.4499 0.0
O176 O 0.72056 0.85866 0.43819 0.0
C177 C 0.75803 1.03327 0.65415 0.0
C178 C 0.79415 1.05307 0.66931 0.0
C179 C 0.7705 1.05457 0.68176 0.0
N180 N 0.77348 1.01969 0.62673 0.0
N181 N 0.795 1.03229 0.63486 0.0
C182 C 0.73288 1.02034 0.65848 0.0
H183 H 0.73122 1.00433 0.68774 0.0
H184 H 0.7277 1.00376 0.63101 0.0
H185 H 0.72052 1.04334 0.66093 0.0
C186 C 0.72918 0.99645 0.48474 0.0
N187 N 0.73912 0.9777 0.51764 0.0
N188 N 0.74871 1.0009 0.54347 0.0
C189 C 0.74665 1.03435 0.52662 0.0
C190 C 0.73424 1.03342 0.48797 0.0
C191 C 0.71189 0.98075 0.45404 0.0
H192 H 0.71956 0.98065 0.42203 0.0
H193 H 0.70683 0.95334 0.46353 0.0
H194 H 0.69562 0.99762 0.45264 0.0
O195 O 0.78487 0.91863 0.53456 0.0
O196 O 0.79703 0.96454 0.5727 0.0
H197 H 0.77681 0.05941 0.55557 0.0
H198 H 0.75935 0.08882 0.52259 0.0
C199 C 0.75847 0.06641 0.54532 0.0
H200 H 0.74831 0.07504 0.57346 0.0
H201 H 0.81045 1.02451 0.61907 0.0
O202 O 0.73485 0.89281 0.48921 0.0
C203 C 0.80169 0.93712 0.55097 0.0
Co204 Co 0.00866 0.92424 0.26502 0.0
Co205 Co 0.99314 0.97577 0.19739 0.0
C206 C 0.01696 0.90346 0.17261 0.0
O207 O 0.01937 0.89673 0.21181 0.0
O208 O 0.00826 0.93379 0.16194 0.0
C209 C 0.02548 0.89238 0.35047 0.0
O210 O 0.03691 0.86471 0.36602 0.0
C211 C 0.00346 1.02411 0.1316 0.0
C212 C 0.96793 1.04446 0.11311 0.0
C213 C 0.99183 1.04476 0.10214 0.0
N214 N 0.98728 1.01213 0.15884 0.0
N215 N 0.9661 1.02499 0.14852 0.0
C216 C 0.02859 1.01067 0.12977 0.0
H217 H 0.03056 0.99261 0.10232 0.0
H218 H 0.03327 0.99602 0.15902 0.0
H219 H 0.0411 1.03325 0.1255 0.0
C220 C 0.0279 0.99602 0.30542 0.0
N221 N 0.01857 0.97558 0.27354 0.0
N222 N 0.00904 0.99735 0.2459 0.0
C223 C 0.01004 1.03141 0.261 0.0
C224 C 0.02218 1.03245 0.29989 0.0
C225 C 0.04608 0.98295 0.33617 0.0
H226 H 0.03957 0.98681 0.36865 0.0
H227 H 0.05079 0.95473 0.33003 0.0
H228 H 0.06247 0.99935 0.33324 0.0
O229 O 0.97182 0.91908 0.26253 0.0
O230 O 0.96174 0.96018 0.21548 0.0
H231 H 0.97943 1.05221 0.22871 0.0
H232 H 0.99363 0.08367 0.26368 0.0
C233 C 0.99683 0.06172 0.24098 0.0
H234 H 0.00735 0.072 0.21404 0.0
H235 H 0.95024 1.01847 0.16384 0.0
O236 O 0.02196 0.89342 0.31086 0.0
C237 C 0.95595 0.93615 0.24155 0.0
Co238 Co 0.80405 0.94453 0.25826 0.0
Co239 Co 0.80912 0.89386 0.18645 0.0
C240 C 0.79181 0.97108 0.16807 0.0
O241 O 0.79226 0.97708 0.20776 0.0
O242 O 0.79745 0.93979 0.15576 0.0
C243 C 0.76967 0.96663 0.30948 0.0
O244 O 0.75862 0.96292 0.27321 0.0
C245 C 0.78764 0.85464 0.1216 0.0
C246 C 0.81581 0.82024 0.09502 0.0
C247 C 0.79202 0.8298 0.09091 0.0
N248 N 0.80767 0.8595 0.14372 0.0
N249 N 0.82459 0.83887 0.128 0.0
C250 C 0.76513 0.87547 0.12818 0.0
H251 H 0.76503 0.88806 0.15976 0.0
H252 H 0.74927 0.85806 0.12478 0.0
H253 H 0.76389 0.89664 0.10382 0.0
C254 C 0.78938 0.8748 0.30285 0.0
N255 N 0.79285 0.89508 0.2676 0.0
N256 N 0.79161 0.87425 0.23469 0.0
C257 C 0.78553 0.84066 0.24777 0.0
C258 C 0.78376 0.83933 0.29221 0.0
C259 C 0.79728 0.88604 0.34584 0.0
H260 H 0.80656 0.91208 0.34506 0.0
H261 H 0.78172 0.8873 0.36698 0.0
H262 H 0.80961 0.86574 0.35917 0.0
O263 O 0.83957 0.94163 0.25647 0.0
O264 O 0.84345 0.90136 0.20535 0.0
H265 H 0.79905 0.80034 0.20664 0.0
H266 H 0.77162 0.78826 0.23339 0.0
C267 C 0.78158 0.81026 0.21812 0.0
H268 H 0.77111 0.8195 0.19063 0.0
H269 H 0.84213 0.83811 0.1391 0.0
O270 O 0.79234 0.96791 0.30927 0.0
C271 C 0.85268 0.92158 0.23357 0.0
Co272 Co 0.05173 0.67771 0.01405 0.0
Co273 Co 0.05334 0.72716 0.9391 0.0
C274 C 0.03514 0.64966 0.92669 0.0
O275 O 0.03684 0.64481 0.96649 0.0
O276 O 0.04116 0.68003 0.91212 0.0
C277 C 0.02444 0.64043 0.07248 0.0
O278 O 0.0132 0.62874 0.03891 0.0
C279 C 0.02852 0.76004 0.87152 0.0
C280 C 0.05418 0.7972 0.84254 0.0
C281 C 0.0314 0.78317 0.83813 0.0
N282 N 0.04871 0.75964 0.89422 0.0
N283 N 0.06407 0.78197 0.87697 0.0
C284 C 0.00645 0.73997 0.88347 0.0
H285 H 0.00583 0.73608 0.91809 0.0
H286 H 0.99021 0.75432 0.87269 0.0
H287 H 0.00672 0.71326 0.86853 0.0
C288 C 0.03704 0.74748 0.05819 0.0
N289 N 0.03982 0.72679 0.02312 0.0
N290 N 0.03814 0.74733 0.98987 0.0
C291 C 0.03284 0.78126 1.00281 0.0
C292 C 0.03197 0.7832 0.04739 0.0
C293 C 0.04389 0.73539 0.10139 0.0
H294 H 0.05552 0.71155 0.10019 0.0
H295 H 0.02749 0.72921 0.11907 0.0
H296 H 0.0534 0.75693 0.11852 0.0
O297 O 0.08713 0.68271 1.00643 0.0
O298 O 0.08862 0.72092 0.9528 0.0
H299 H 0.04634 0.82198 0.96232 0.0
H300 H 0.01821 0.83295 0.98736 0.0
C301 C 0.02885 0.81134 0.97269 0.0
H302 H 0.01924 0.80157 0.94446 0.0
H303 H 0.08136 0.78627 0.88812 0.0
O304 O 0.04516 0.65349 0.06798 0.0
C305 C 0.09917 0.70216 0.98112 0.0
Co306 Co 0.25604 0.68846 0.99531 0.0
Co307 Co 0.23434 0.63837 0.93252 0.0
C308 C 0.26233 0.70326 0.89887 0.0
O309 O 0.26617 0.71118 0.93755 0.0
O310 O 0.25123 0.6741 0.89107 0.0
C311 C 0.27708 0.7228 0.07513 0.0
O312 O 0.29037 0.74957 0.08787 0.0
C313 C 0.23218 0.58406 0.87112 0.0
C314 C 0.19347 0.57457 0.86388 0.0
C315 C 0.21554 0.56603 0.84724 0.0
N316 N 0.22061 0.60245 0.90041 0.0
N317 N 0.19751 0.59594 0.89711 0.0
C318 C 0.25808 0.58945 0.86147 0.0
H319 H 0.26694 0.60486 0.88688 0.0
H320 H 0.26707 0.56325 0.85807 0.0
H321 H 0.25988 0.604 0.83119 0.0
C322 C 0.27349 0.61516 0.03556 0.0
N323 N 0.2632 0.6363 1.00518 0.0
N324 N 0.25171 0.61529 0.97905 0.0
C325 C 0.25291 0.581 0.99352 0.0
C326 C 0.26696 0.579 0.03029 0.0
C327 C 0.29161 0.62792 0.06663 0.0
H328 H 0.2977 0.6552 0.05871 0.0
H329 H 0.3072 0.60962 0.06656 0.0
H330 H 0.28408 0.62713 0.09879 0.0
O331 O 0.2198 0.69918 1.00201 0.0
O332 O 0.20621 0.66279 0.95293 0.0
H333 H 0.23679 0.52861 0.99759 0.0
H334 H 0.24692 0.54179 0.94589 0.0
C335 C 0.2384 0.55125 0.97531 0.0
H336 H 0.22025 0.56101 0.9675 0.0
H337 H 0.18439 0.60816 0.91539 0.0
O338 O 0.27349 0.71956 0.03577 0.0
C339 C 0.20247 0.68621 0.98067 0.0
Co340 Co 1.0003 0.69079 0.28075 0.0
Co341 Co 0.0205 0.64043 0.34559 0.0
C342 C 0.99293 0.70753 0.37513 0.0
O343 O 0.98885 0.71441 0.33638 0.0
O344 O 0.00426 0.67882 0.3839 0.0
C345 C 0.98034 0.72588 0.20052 0.0
O346 O 0.96778 0.75325 0.18709 0.0
C347 C 0.01504 0.58822 0.40898 0.0
C348 C 0.05212 0.57455 0.42646 0.0
C349 C 0.02851 0.56912 0.43757 0.0
N350 N 0.02989 0.60414 0.38221 0.0
N351 N 0.05206 0.59531 0.3919 0.0
C352 C 0.98889 0.59632 0.41109 0.0
H353 H 0.98365 0.61565 0.38628 0.0
H354 H 0.97854 0.57147 0.40638 0.0
H355 H 0.98435 0.60716 0.44258 0.0
C356 C 0.98393 0.61786 0.23933 0.0
N357 N 0.99301 0.6389 0.27088 0.0
N358 N 0.00419 0.61795 0.29757 0.0
C359 C 0.00414 0.58392 0.28228 0.0
C360 C 0.9912 0.58199 0.24427 0.0
C361 C 0.96565 0.63 0.20818 0.0
H362 H 0.95934 0.65729 0.21563 0.0
H363 H 0.95019 0.61152 0.20889 0.0
H364 H 0.97303 0.62866 0.17597 0.0
O365 O 0.03694 0.6995 0.27759 0.0
O366 O 0.05002 0.66193 0.32649 0.0
H367 H 0.02221 0.53295 0.27815 0.0
H368 H 0.00931 0.54348 0.32877 0.0
C369 C 0.01882 0.55461 0.30116 0.0
H370 H 0.03617 0.56538 0.31217 0.0
H371 H 0.06712 0.60547 0.37687 0.0
O372 O 0.98399 0.72297 0.23984 0.0
C373 C 0.05404 0.68564 0.299 0.0
Co374 Co 0.20282 0.67456 0.26027 0.0
Co375 Co 0.2051 0.72605 0.333 0.0
C376 C 0.22026 0.64816 0.34921 0.0
O377 O 0.21517 0.64135 0.3106 0.0
O378 O 0.21834 0.68041 0.36143 0.0
C379 C 0.23111 0.63838 0.20395 0.0
O380 O 0.24219 0.62827 0.23843 0.0
C381 C 0.23195 0.76271 0.39463 0.0
C382 C 0.20657 0.79846 0.42669 0.0
C383 C 0.22999 0.78642 0.42747 0.0
N384 N 0.21076 0.76035 0.37525 0.0
N385 N 0.19556 0.78189 0.39428 0.0
C386 C 0.25408 0.74396 0.38023 0.0
H387 H 0.2515 0.73221 0.3485 0.0
H388 H 0.26925 0.76298 0.37964 0.0
H389 H 0.25878 0.7225 0.40261 0.0
C390 C 0.2176 0.74297 0.21266 0.0
N391 N 0.21567 0.72299 0.24856 0.0
N392 N 0.21931 0.74398 0.28086 0.0
C393 C 0.22512 0.77725 0.26647 0.0
C394 C 0.22416 0.77845 0.22196 0.0
C395 C 0.20837 0.731 0.1708 0.0
H396 H 0.19756 0.70643 0.17369 0.0
H397 H 0.22357 0.72622 0.14953 0.0
H398 H 0.19725 0.75228 0.15635 0.0
O399 O 0.16799 0.68178 0.26797 0.0
O400 O 0.16923 0.71959 0.32205 0.0
H401 H 0.21498 0.81862 0.30918 0.0
H402 H 0.24131 0.82865 0.2781 0.0
C403 C 0.23147 0.80745 0.2951 0.0
H404 H 0.24297 0.79768 0.32097 0.0
H405 H 0.17758 0.78446 0.38603 0.0
O406 O 0.20966 0.64898 0.20715 0.0
C407 C 0.15731 0.70148 0.29482 0.0
Co408 Co 0.96992 0.43115 0.03257 0.0
Co409 Co 0.9585 0.38192 0.10486 0.0
C410 C 0.97841 0.45761 0.12366 0.0
O411 O 0.98006 0.46256 0.08401 0.0
O412 O 0.97137 0.42701 0.13611 0.0
C413 C 0.01242 0.44145 0.99238 0.0
O414 O 0.01866 0.42731 0.0286 0.0
C415 C 0.97741 0.3378 0.16893 0.0
C416 C 0.94647 0.32007 0.2062 0.0
C417 C 0.97123 0.31947 0.20504 0.0
N418 N 0.9574 0.3483 0.1493 0.0
N419 N 0.93886 0.33736 0.17134 0.0
C420 C 1.00184 0.34995 0.15636 0.0
H421 H 1.00079 0.37246 0.13378 0.0
H422 H 0.01136 0.32772 0.14068 0.0
H423 H 0.01235 0.35799 0.18447 0.0
C424 C 0.97684 0.35965 0.98885 0.0
N425 N 0.97576 0.37991 0.02453 0.0
N426 N 0.97459 0.35873 0.05714 0.0
C427 C 0.97663 0.32422 0.04327 0.0
C428 C 0.97886 0.32315 0.99884 0.0
C429 C 0.97135 0.37412 0.94587 0.0
H430 H 0.97421 0.40318 0.94404 0.0
H431 H 0.98213 0.36039 0.92155 0.0
H432 H 0.95223 0.36928 0.93877 0.0
O433 O 0.93388 0.43474 0.0304 0.0
O434 O 0.92591 0.39589 0.0824 0.0
H435 H 0.96876 0.26811 0.05184 0.0
H436 H 0.98707 0.28835 0.09223 0.0
C437 C 0.97173 0.29262 0.07068 0.0
H438 H 0.95572 0.29776 0.09016 0.0
H439 H 0.92112 0.34351 0.16401 0.0
O440 O 0.99058 0.45048 0.98696 0.0
C441 C 0.91893 0.41738 0.0533 0.0
Co442 Co 0.76487 0.42995 0.03227 0.0
Co443 Co 0.77783 0.47842 0.10045 0.0
C444 C 0.75281 0.40852 0.12464 0.0
O445 O 0.75236 0.40206 0.08509 0.0
O446 O 0.76149 0.43838 0.13676 0.0
C447 C 0.73163 0.41457 0.96678 0.0
O448 O 0.71676 0.43494 0.98778 0.0
C449 C 0.77388 0.52897 0.16445 0.0
C450 C 0.81111 0.54576 0.17671 0.0
C451 C 0.78778 0.55003 0.18985 0.0
N452 N 0.7881 0.51318 0.1369 0.0
N453 N 0.81033 0.52369 0.14336 0.0
C454 C 0.74807 0.51975 0.16994 0.0
H455 H 0.74144 0.50392 0.14283 0.0
H456 H 0.73728 0.54443 0.17293 0.0
H457 H 0.74584 0.50409 0.19932 0.0
C458 C 0.75517 0.50352 0.98778 0.0
N459 N 0.75816 0.4821 0.02234 0.0
N460 N 0.76021 0.50273 0.05532 0.0
C461 C 0.75649 0.53743 0.04329 0.0
C462 C 0.75228 0.53965 0.99948 0.0
C463 C 0.76153 0.49156 0.94459 0.0
H464 H 0.76603 0.46302 0.94475 0.0
H465 H 0.74702 0.49833 0.9222 0.0
H466 H 0.77802 0.50517 0.9343 0.0
O467 O 0.80048 0.42195 0.02872 0.0
O468 O 0.80899 0.46101 0.07841 0.0
H469 H 0.77984 0.56619 0.08441 0.0
H470 H 0.76049 0.59432 0.05398 0.0
C471 C 0.7616 0.56866 0.07123 0.0
H472 H 0.74874 0.56892 0.09767 0.0
H473 H 0.82504 0.51442 0.12654 0.0
O474 O 0.7508 0.40465 0.9848 0.0
C475 C 0.81577 0.43884 0.05073 0.0
Co476 Co 0.99469 0.42338 0.7681 0.0
Co477 Co 0.98841 0.47468 0.69733 0.0
C478 C 0.01063 0.40252 0.67601 0.0
O479 O 0.00884 0.39534 0.71543 0.0
O480 O 0.00443 0.43365 0.66385 0.0
C481 C 0.03086 0.40954 0.82615 0.0
O482 O 0.04289 0.42696 0.7973 0.0
C483 C 0.99982 0.52137 0.6305 0.0
C484 C 0.96458 0.54184 0.61046 0.0
C485 C 0.98849 0.54082 0.59962 0.0
N486 N 0.98343 0.511 0.6583 0.0
N487 N 0.96244 0.52399 0.64701 0.0
C488 C 0.02488 0.50761 0.62989 0.0
H489 H 0.02958 0.4952 0.66055 0.0
H490 H 0.03746 0.52969 0.62313 0.0
H491 H 0.02669 0.48749 0.60447 0.0
C492 C 1.00257 0.49406 0.81579 0.0
N493 N 1.00159 0.47428 0.77972 0.0
N494 N 0.00335 0.49573 0.74749 0.0
C495 C 0.00777 0.52945 0.76202 0.0
C496 C 0.00796 0.53014 0.80666 0.0
C497 C 0.99274 0.48056 0.85657 0.0
H498 H 0.99384 0.45126 0.8589 0.0
H499 H 1.00161 0.49321 0.88381 0.0
H500 H 0.97347 0.48728 0.85785 0.0
O501 O 0.95854 0.41937 0.76537 0.0
O502 O 0.95547 0.45741 0.71201 0.0
H503 H 0.99038 0.5636 0.71771 0.0
H504 H 0.01114 0.58646 0.75163 0.0
C505 C 0.00788 0.56147 0.7339 0.0
H506 H 0.02174 0.55805 0.70936 0.0
H507 H 0.94644 0.51835 0.66237 0.0
O508 O 0.00944 0.40012 0.81795 0.0
C509 C 0.94575 0.43636 0.73852 0.0
Co510 Co 0.78886 0.4301 0.73893 0.0
Co511 Co 0.80425 0.3851 0.66791 0.0
C512 C 0.77984 0.46059 0.65265 0.0
O513 O 0.77608 0.4637 0.69211 0.0
O514 O 0.7901 0.43199 0.6399 0.0
C515 C 0.75741 0.45722 0.80047 0.0
O516 O 0.74223 0.46082 0.76918 0.0
C517 C 0.78329 0.34247 0.60576 0.0
C518 C 0.81266 0.32752 0.56313 0.0
C519 C 0.78804 0.3263 0.56774 0.0
N520 N 0.80395 0.35282 0.62292 0.0
N521 N 0.82161 0.34343 0.59783 0.0
C522 C 0.75936 0.35313 0.62258 0.0
H523 H 0.76115 0.37415 0.64691 0.0
H524 H 0.75075 0.32952 0.63709 0.0
H525 H 0.74766 0.36287 0.59676 0.0
C526 C 0.76902 0.35909 0.77376 0.0
N527 N 0.77725 0.38005 0.74159 0.0
N528 N 0.78931 0.35987 0.71568 0.0
C529 C 0.79053 0.32614 0.73208 0.0
C530 C 0.77797 0.32422 0.7704 0.0
C531 C 0.7458 0.36572 0.79543 0.0
H532 H 0.73863 0.39241 0.78811 0.0
H533 H 0.7325 0.346 0.78403 0.0
H534 H 0.7476 0.36089 0.82966 0.0
O535 O 0.8262 0.43008 0.73969 0.0
O536 O 0.83684 0.39676 0.68499 0.0
H537 H 0.81192 0.27864 0.73749 0.0
H538 H 0.79299 0.28102 0.69172 0.0
C539 C 0.80478 0.29674 0.71281 0.0
H540 H 0.81956 0.30789 0.69372 0.0
H541 H 0.83949 0.34997 0.60295 0.0
O542 O 0.77915 0.45068 0.79238 0.0
C543 C 0.84246 0.41593 0.71657 0.0
Co544 Co 0.55286 0.18439 1.00502 0.0
Co545 Co 0.55701 0.23433 0.9316 0.0
C546 C 0.53976 0.1566 0.91524 0.0
O547 O 0.54074 0.15088 0.95504 0.0
O548 O 0.54501 0.18792 0.90246 0.0
C549 C 0.51968 0.16096 0.05822 0.0
O550 O 0.50866 0.15966 0.02173 0.0
C551 C 0.53509 0.27267 0.86518 0.0
C552 C 0.56423 0.30226 0.83437 0.0
C553 C 0.54009 0.29455 0.83159 0.0
N554 N 0.55515 0.26775 0.88739 0.0
N555 N 0.57262 0.28563 0.86912 0.0
C556 C 0.51216 0.25354 0.87363 0.0
H557 H 0.51266 0.24021 0.90481 0.0
H558 H 0.49698 0.27252 0.87264 0.0
H559 H 0.50917 0.23327 0.84871 0.0
C560 C 0.5381 0.25466 0.04845 0.0
N561 N 0.54147 0.23406 0.01343 0.0
N562 N 0.53992 0.25459 0.98023 0.0
C563 C 0.53363 0.28822 0.99301 0.0
C564 C 0.53199 0.28992 0.03749 0.0
C565 C 0.54691 0.24431 0.09122 0.0
H566 H 0.55625 0.21831 0.09071 0.0
H567 H 0.53184 0.2436 0.11344 0.0
H568 H 0.55948 0.2649 0.10305 0.0
O569 O 0.58827 0.18746 1.00178 0.0
O570 O 0.59177 0.2267 0.94949 0.0
H571 H 0.54714 0.32897 0.95256 0.0
H572 H 0.51909 0.34007 0.97785 0.0
C573 C 0.52965 0.31843 0.96308 0.0
H574 H 0.51985 0.30886 0.93502 0.0
H575 H 0.59031 0.28532 0.87933 0.0
O576 O 0.54233 0.16203 0.05795 0.0
C577 C 0.60125 0.20683 0.97792 0.0
Co578 Co 0.75829 0.19671 1.00062 0.0
Co579 Co 0.73917 0.14312 0.93989 0.0
C580 C 0.76464 0.21224 0.90665 0.0
O581 O 0.76974 0.21969 0.9449 0.0
O582 O 0.75337 0.18308 0.89959 0.0
C583 C 0.77684 0.23221 0.08277 0.0
O584 O 0.78933 0.26 0.0948 0.0
C585 C 0.74641 0.09273 0.87606 0.0
C586 C 0.70994 0.07448 0.8607 0.0
C587 C 0.73344 0.07325 0.84734 0.0
N588 N 0.73135 0.10541 0.90473 0.0
N589 N 0.70963 0.09365 0.89647 0.0
C590 C 0.77168 0.10511 0.87191 0.0
H591 H 0.77324 0.12291 0.84412 0.0
H592 H 0.77744 0.1197 0.90058 0.0
H593 H 0.78363 0.08191 0.8669 0.0
C594 C 0.77784 0.12663 0.04488 0.0
N595 N 0.76741 0.14574 1.01284 0.0
N596 N 0.75663 0.12303 0.98791 0.0
C597 C 0.75807 0.08968 1.00503 0.0
C598 C 0.77173 0.09013 0.04241 0.0
C599 C 0.79656 0.14116 0.07365 0.0
H600 H 0.79043 0.1398 0.10668 0.0
H601 H 0.8014 0.16879 0.06479 0.0
H602 H 0.81275 0.12416 0.0717 0.0
O603 O 0.72137 0.20491 1.00008 0.0
O604 O 0.7087 0.16057 0.95982 0.0
H605 H 0.72632 0.06797 0.97749 0.0
H606 H 0.74162 1.0379 1.01288 0.0
C607 C 0.74408 0.05874 0.98848 0.0
H608 H 0.75359 1.0471 0.96115 0.0
H609 H 0.69439 0.1012 0.91304 0.0
O610 O 0.77281 0.22873 0.04354 0.0
C611 C 0.70436 0.1872 0.98301 0.0
Co612 Co 0.49878 0.20455 0.27336 0.0
Co613 Co 0.51515 0.1502 0.33637 0.0
C614 C 0.49222 0.2209 0.36838 0.0
O615 O 0.48906 0.22927 0.32977 0.0
O616 O 0.50156 0.19046 0.37642 0.0
C617 C 0.48124 0.24491 0.19429 0.0
O618 O 0.47012 0.27431 0.18311 0.0
C619 C 0.50669 0.09928 0.39977 0.0
C620 C 0.54275 0.07941 0.41558 0.0
C621 C 0.51907 0.07829 0.42793 0.0
N622 N 0.52221 0.11228 0.37204 0.0
N623 N 0.5437 0.09968 0.38067 0.0
C624 C 0.4815 0.11223 0.40351 0.0
H625 H 0.47655 0.12903 0.37607 0.0
H626 H 0.46914 0.08922 0.40528 0.0
H627 H 0.47952 0.12791 0.43293 0.0
C628 C 0.47877 0.13463 0.22853 0.0
N629 N 0.48841 0.15376 0.26133 0.0
N630 N 0.49729 0.13073 0.28833 0.0
C631 C 0.49495 0.09702 0.27245 0.0
C632 C 0.48322 0.09766 0.23322 0.0
C633 C 0.46227 0.15 0.19627 0.0
H634 H 0.45719 0.17767 0.20462 0.0
H635 H 0.44589 0.13345 0.19436 0.0
H636 H 0.47062 0.14903 0.16481 0.0
O637 O 0.53562 0.20862 0.27066 0.0
O638 O 0.54618 0.16631 0.31587 0.0
H639 H 0.50604 1.04161 0.27105 0.0
H640 H 0.49595 1.05806 0.32142 0.0
C641 C 0.50603 0.06491 0.29253 0.0
H642 H 0.52466 0.07107 0.30187 0.0
H643 H 0.5592 0.1071 0.36481 0.0
O644 O 0.48465 0.23948 0.2333 0.0
C645 C 0.55176 0.19056 0.28988 0.0
Co646 Co 0.7051 0.18392 0.27512 0.0
Co647 Co 0.69758 0.23326 0.34802 0.0
C648 C 0.71542 0.15574 0.36536 0.0
O649 O 0.71613 0.15117 0.32543 0.0
O650 O 0.70891 0.18641 0.37869 0.0
C651 C 0.73925 0.15529 0.22343 0.0
O652 O 0.75095 0.15683 0.25929 0.0
C653 C 0.71987 0.27457 0.41028 0.0
C654 C 0.69088 0.30091 0.44543 0.0
C655 C 0.71543 0.29643 0.44408 0.0
N656 N 0.6991 0.26687 0.39164 0.0
N657 N 0.68169 0.28283 0.41239 0.0
C658 C 0.74319 0.25763 0.3988 0.0
H659 H 0.75111 0.24453 0.4269 0.0
H660 H 0.74086 0.2378 0.37326 0.0
H661 H 0.75587 0.27837 0.38806 0.0
C662 C 0.72351 0.25367 0.23365 0.0
N663 N 0.71728 0.2333 0.26771 0.0
N664 N 0.71526 0.2544 0.30039 0.0
C665 C 0.72078 0.28851 0.28817 0.0
C666 C 0.72689 0.28947 0.24515 0.0
C667 C 0.72103 0.24195 0.18895 0.0
H668 H 0.71122 0.21649 0.18649 0.0
H669 H 0.73897 0.23971 0.17495 0.0
H670 H 0.71127 0.26249 0.17049 0.0
O671 O 0.669 0.18734 0.27598 0.0
O672 O 0.66363 0.22613 0.32826 0.0
H673 H 0.70053 0.31968 0.33183 0.0
H674 H 0.71992 0.34564 0.2981 0.0
C675 C 0.71814 0.32039 0.31602 0.0
H676 H 0.73216 0.31969 0.34067 0.0
H677 H 0.66361 0.28019 0.4051 0.0
O678 O 0.71673 0.15951 0.22421 0.0
C679 C 0.65517 0.20644 0.29885 0.0
Co680 Co 0.45483 0.94704 0.0218 0.0
Co681 Co 0.4466 0.898 0.09477 0.0
C682 C 0.46545 0.97496 0.11164 0.0
O683 O 0.46666 0.97935 0.07171 0.0
O684 O 0.45829 0.94465 0.12504 0.0
C685 C 0.4886 0.97472 0.96838 0.0
O686 O 0.50082 0.97354 1.00371 0.0
C687 C 0.46779 0.85595 0.15751 0.0
C688 C 0.43819 0.82931 0.19063 0.0
C689 C 0.46277 0.83343 0.19042 0.0
N690 N 0.44734 0.86433 0.13823 0.0
N691 N 0.42956 0.84819 0.15773 0.0
C692 C 0.49137 0.87264 0.1473 0.0
H693 H 0.49872 0.88591 0.17575 0.0
H694 H 0.48959 0.8923 0.12141 0.0
H695 H 0.50425 0.85177 0.13763 0.0
C696 C 0.47183 0.87619 0.98053 0.0
N697 N 0.46607 0.89701 0.01446 0.0
N698 N 0.46396 0.87618 0.04737 0.0
C699 C 0.46904 0.84183 0.03548 0.0
C700 C 0.47488 0.84037 0.99238 0.0
C701 C 0.46911 0.88762 0.93578 0.0
H702 H 0.45975 0.91348 0.93332 0.0
H703 H 0.48694 0.8889 0.92122 0.0
H704 H 0.45879 0.86736 0.91793 0.0
O705 O 0.41881 0.9458 0.02376 0.0
O706 O 0.41292 0.90635 0.07525 0.0
H707 H 0.44861 0.81104 0.07921 0.0
H708 H 0.46833 0.7848 0.04638 0.0
C709 C 0.46634 0.81024 0.06381 0.0
H710 H 0.48019 0.81129 0.08873 0.0
H711 H 0.41161 0.85112 0.14961 0.0
O712 O 0.46609 0.97086 0.97031 0.0
C713 C 0.40478 0.92706 0.04656 0.0
Co714 Co 0.25012 0.92552 1.0097 0.0
Co715 Co 0.26043 0.97527 0.07928 0.0
C716 C 0.23918 0.89923 0.09761 0.0
O717 O 0.23776 0.89356 0.05807 0.0
O718 O 0.24681 0.92969 0.10984 0.0
C719 C 0.23044 0.89961 0.93198 0.0
O720 O 0.20815 0.89651 0.94407 0.0
C721 C 0.24059 1.01455 0.14417 0.0
C722 C 0.27207 1.03301 0.17993 0.0
C723 C 0.24748 1.02952 0.18152 0.0
N724 N 0.26018 1.00875 0.1215 0.0
N725 N 0.279 1.02074 0.14215 0.0
C726 C 0.21656 0.99952 0.13382 0.0
H727 H 0.21624 0.98822 0.10156 0.0
H728 H 0.20289 1.02083 0.13647 0.0
H729 H 0.21195 0.97844 0.15691 0.0
C730 C 0.22876 0.99784 0.96914 0.0
N731 N 0.23765 0.97626 1.00064 0.0
N732 N 0.24519 0.99745 0.03071 0.0
C733 C 0.24304 1.03218 0.01824 0.0
C734 C 0.23276 1.03421 0.97801 0.0
C735 C 0.21183 0.98622 0.9355 0.0
H736 H 0.221 0.98542 0.90484 0.0
H737 H 0.20365 0.96042 0.94345 0.0
H738 H 0.19726 1.00611 0.93207 0.0
O739 O 0.28674 0.92654 0.01604 0.0
O740 O 0.29385 0.96661 0.06558 0.0
H741 H 0.25488 0.08694 0.02322 0.0
H742 H 0.24013 0.06903 0.06906 0.0
C743 C 0.25267 0.06284 0.04309 0.0
H744 H 0.2701 1.05546 0.05728 0.0
H745 H 0.29661 1.01729 0.13238 0.0
O746 O 0.24691 0.89618 0.95891 0.0
C747 C 0.30139 0.94435 0.03871 0.0
Co748 Co 0.50503 0.93075 0.74678 0.0
Co749 Co 0.48733 0.98512 0.68535 0.0
C750 C 0.51265 0.91579 0.65283 0.0
O751 O 0.51614 0.90728 0.6913 0.0
O752 O 0.50258 0.94584 0.64511 0.0
C753 C 0.52324 0.8943 0.82824 0.0
O754 O 0.53523 0.86602 0.84036 0.0
C755 C 0.49498 1.03611 0.62182 0.0
C756 C 0.45859 1.05501 0.6067 0.0
C757 C 0.4821 1.05611 0.59336 0.0
N758 N 0.47985 1.02328 0.65032 0.0
N759 N 0.45819 1.03541 0.64217 0.0
C760 C 0.52025 1.02369 0.61767 0.0
H761 H 0.52601 1.0091 0.64637 0.0
H762 H 0.5322 1.04685 0.61261 0.0
H763 H 0.5218 1.00588 0.58991 0.0
C764 C 0.52487 1.00064 0.79189 0.0
N765 N 0.51447 0.98175 0.75963 0.0
N766 N 0.50399 1.00476 0.73461 0.0
C767 C 0.50545 1.03801 0.75199 0.0
C768 C 0.51893 1.03729 0.78963 0.0
C769 C 0.54379 0.98592 0.82019 0.0
H770 H 0.54838 0.95817 0.81138 0.0
H771 H 0.56006 1.00263 0.81755 0.0
H772 H 0.53801 0.9876 0.85339 0.0
O773 O 0.46815 0.92295 0.74505 0.0
O774 O 0.4564 0.96682 0.70317 0.0
H775 H 0.48898 0.08981 0.75982 0.0
H776 H 0.5015 0.08098 0.70839 0.0
C777 C 0.49168 0.06918 0.73528 0.0
H778 H 0.47403 0.06015 0.72359 0.0
H779 H 0.44291 1.02792 0.65866 0.0
O780 O 0.51911 0.89781 0.78907 0.0
C781 C 0.4515 0.94042 0.72649 0.0
Co782 Co 0.29791 0.92284 0.72936 0.0
Co783 Co 0.3108 0.872 0.66067 0.0
C784 C 0.28811 0.94632 0.63874 0.0
O785 O 0.28693 0.95266 0.6781 0.0
O786 O 0.29612 0.91587 0.62731 0.0
C787 C 0.26335 0.9574 0.77772 0.0
O788 O 0.25113 0.95491 0.74251 0.0
C789 C 0.29225 0.83058 0.59495 0.0
C790 C 0.32343 0.80926 0.56098 0.0
C791 C 0.29884 0.81289 0.55889 0.0
N792 N 0.31189 0.83774 0.61739 0.0
N793 N 0.33058 0.82455 0.5974 0.0
C794 C 0.26778 0.84345 0.60617 0.0
H795 H 0.26611 0.84673 0.6407 0.0
H796 H 0.25404 0.82454 0.5945 0.0
H797 H 0.26452 0.86973 0.59119 0.0
C798 C 0.28102 0.85346 0.77318 0.0
N799 N 0.28803 0.87249 0.73859 0.0
N800 N 0.29434 0.84993 0.70922 0.0
C801 C 0.29179 0.81595 0.72454 0.0
C802 C 0.28303 0.8164 0.76637 0.0
C803 C 0.2719 0.87056 0.81223 0.0
H804 H 0.25538 0.88475 0.80362 0.0
H805 H 0.26721 0.85121 0.83714 0.0
H806 H 0.28521 0.88988 0.8243 0.0
O807 O 0.33395 0.92421 0.73073 0.0
O808 O 0.34397 0.8856 0.68058 0.0
H809 H 0.31708 0.79034 0.68401 0.0
H810 H 0.30405 0.76127 0.72335 0.0
C811 C 0.30054 0.78377 0.70148 0.0
H812 H 0.28683 0.77554 0.67817 0.0
H813 H 0.34824 0.82805 0.6071 0.0
O814 O 0.28535 0.94902 0.77741 0.0
C815 C 0.34991 0.90765 0.70957 0.0
Co816 Co 0.54521 0.69388 0.48899 0.0
Co817 Co 0.54981 0.74133 0.41535 0.0
C818 C 0.53147 0.66432 0.40152 0.0
O819 O 0.53278 0.6601 0.44136 0.0
O820 O 0.53653 0.69514 0.38689 0.0
C821 C 0.51105 0.6761 0.54532 0.0
O822 O 0.49768 0.68414 0.51263 0.0
C823 C 0.52827 0.78165 0.35155 0.0
C824 C 0.55782 0.80615 0.31604 0.0
C825 C 0.53324 0.80192 0.31664 0.0
N826 N 0.54878 0.77437 0.37128 0.0
N827 N 0.5665 0.78929 0.35038 0.0
C828 C 0.50479 0.76522 0.36289 0.0
H829 H 0.50622 0.74953 0.39238 0.0
H830 H 0.49113 0.78633 0.36705 0.0
H831 H 0.49873 0.74763 0.33688 0.0
C832 C 0.53465 0.76498 0.53225 0.0
N833 N 0.53568 0.74398 0.49723 0.0
N834 N 0.53385 0.7643 0.464 0.0
C835 C 0.52889 0.79842 0.47719 0.0
C836 C 0.52827 0.80011 0.52178 0.0
C837 C 0.5493 0.75703 0.57049 0.0
H838 H 0.55735 0.73011 0.56841 0.0
H839 H 0.53865 0.76063 0.59938 0.0
H840 H 0.56415 0.77655 0.57257 0.0
O841 O 0.58034 0.69433 0.48703 0.0
O842 O 0.58437 0.73049 0.43175 0.0
H843 H 0.54488 0.83517 0.43441 0.0
H844 H 0.52032 0.85364 0.46432 0.0
C845 C 0.52706 0.82955 0.44797 0.0
H846 H 0.5148 0.823 0.4217 0.0
H847 H 0.58451 0.78649 0.35833 0.0
O848 O 0.53337 0.67185 0.53988 0.0
C849 C 0.5935 0.71134 0.46121 0.0
Co850 Co 0.7448 0.69598 0.50387 0.0
Co851 Co 0.7382 0.64852 0.43253 0.0
C852 C 0.7613 0.71944 0.41392 0.0
O853 O 0.7578 0.72592 0.45297 0.0
O854 O 0.75666 0.68811 0.40051 0.0
C855 C 0.77523 0.71223 0.57175 0.0
O856 O 0.79114 0.69388 0.55053 0.0
C857 C 0.74958 0.59925 0.37092 0.0
C858 C 0.71471 0.58147 0.34599 0.0
C859 C 0.73914 0.57849 0.34062 0.0
N860 N 0.73228 0.61367 0.39371 0.0
N861 N 0.71137 0.60247 0.37976 0.0
C862 C 0.77522 0.61032 0.37379 0.0
H863 H 0.77876 0.62458 0.40375 0.0
H864 H 0.78704 0.58665 0.37172 0.0
H865 H 0.7795 0.62819 0.34698 0.0
C866 C 0.75408 0.62301 0.54927 0.0
N867 N 0.75239 0.64445 0.51448 0.0
N868 N 0.75251 0.62402 0.48121 0.0
C869 C 0.75631 0.58942 0.49361 0.0
C870 C 0.75845 0.58709 0.53793 0.0
C871 C 0.74483 0.63438 0.59101 0.0
H872 H 0.73955 0.66264 0.58993 0.0
H873 H 0.75809 0.62857 0.61602 0.0
H874 H 0.72819 0.61968 0.59807 0.0
O875 O 0.7094 0.701 0.50196 0.0
O876 O 0.70548 0.66746 0.44523 0.0
H877 H 0.75216 0.53263 0.48241 0.0
H878 H 0.768 0.55711 0.44215 0.0
C879 C 0.75303 0.55815 0.46486 0.0
H880 H 0.73616 0.56115 0.44698 0.0
H881 H 0.69494 0.61091 0.39151 0.0
O882 O 0.75611 0.72151 0.55313 0.0
C883 C 0.69634 0.6874 0.47333 0.0
Co884 Co 0.51388 0.69809 0.78244 0.0
Co885 Co 0.52006 0.64622 0.85041 0.0
C886 C 0.49882 0.71953 0.87311 0.0
O887 O 0.50077 0.72673 0.83392 0.0
O888 O 0.5047 0.68818 0.8854 0.0
C889 C 0.48631 0.72054 0.71231 0.0
O890 O 0.46863 0.70298 0.72971 0.0
C891 C 0.50939 0.59857 0.91605 0.0
C892 C 0.54378 0.57145 0.9284 0.0
C893 C 0.52053 0.57477 0.94232 0.0
N894 N 0.52513 0.60889 0.88731 0.0
N895 N 0.54557 0.59217 0.89395 0.0
C896 C 0.48526 0.61506 0.92149 0.0
H897 H 0.47935 0.62813 0.89189 0.0
H898 H 0.47207 0.59452 0.93087 0.0
H899 H 0.48615 0.63532 0.94691 0.0
C900 C 0.50125 0.62731 0.73366 0.0
N901 N 0.50414 0.64753 0.76922 0.0
N902 N 0.50312 0.62605 0.8016 0.0
C903 C 0.4973 0.59248 0.78784 0.0
C904 C 0.49521 0.59176 0.74344 0.0
C905 C 0.51192 0.63743 0.69257 0.0
H906 H 0.52554 0.65838 0.69762 0.0
H907 H 0.49766 0.64657 0.67119 0.0
H908 H 0.52064 0.61414 0.67746 0.0
O909 O 0.54961 0.70071 0.78538 0.0
O910 O 0.55391 0.65955 0.83448 0.0
H911 H 0.51333 0.55046 0.82341 0.0
H912 H 0.4843 0.53965 0.80195 0.0
C913 C 0.49524 0.56101 0.81647 0.0
H914 H 0.48687 0.56916 0.84648 0.0
H915 H 0.56111 0.59647 0.87654 0.0
O916 O 0.50471 0.72715 0.73433 0.0
C917 C 0.56305 0.68175 0.8088 0.0
Co918 Co 0.71986 0.69357 0.79915 0.0
Co919 Co 0.70371 0.7403 0.86739 0.0
C920 C 0.72954 0.66552 0.88501 0.0
O921 O 0.73431 0.66244 0.84598 0.0
O922 O 0.718 0.69344 0.89662 0.0
C923 C 0.75059 0.66561 0.73768 0.0
O924 O 0.7662 0.66357 0.76851 0.0
C925 C 0.72483 0.78339 0.92869 0.0
C926 C 0.6955 0.79912 0.97103 0.0
C927 C 0.72013 0.79991 0.96649 0.0
N928 N 0.70412 0.77321 0.91159 0.0
N929 N 0.68649 0.78309 0.93648 0.0
C930 C 0.74869 0.77212 0.91219 0.0
H931 H 0.74677 0.75133 0.88762 0.0
H932 H 0.75772 0.79556 0.8981 0.0
H933 H 0.7601 0.76186 0.93814 0.0
C934 C 0.73837 0.76498 0.76059 0.0
N935 N 0.73024 0.74435 0.79322 0.0
N936 N 0.71834 0.7649 0.81892 0.0
C937 C 0.71701 0.79842 0.80193 0.0
C938 C 0.72938 0.79992 0.76337 0.0
C939 C 0.76143 0.75803 0.73858 0.0
H940 H 0.76879 0.73163 0.7467 0.0
H941 H 0.77472 0.77818 0.74892 0.0
H942 H 0.75933 0.76198 0.70427 0.0
O943 O 0.68261 0.69048 0.80142 0.0
O944 O 0.67108 0.72913 0.85039 0.0
H945 H 0.68806 0.81708 0.84019 0.0
H946 H 0.69572 0.84601 0.79613 0.0
C947 C 0.70284 0.82803 0.82095 0.0
H948 H 0.71468 0.84381 0.84188 0.0
H949 H 0.66856 0.77673 0.93138 0.0
O950 O 0.72884 0.67125 0.74643 0.0
C951 C 0.666 0.70638 0.82206 0.0
Co952 Co 0.45855 0.44412 0.5306 0.0
Co953 Co 0.45477 0.39518 0.60584 0.0
C954 C 0.47442 0.47123 0.61988 0.0
O955 O 0.47103 0.47673 0.58043 0.0
O956 O 0.47052 0.43985 0.63399 0.0
C957 C 0.48942 0.47521 0.47388 0.0
O958 O 0.50196 0.4786 0.50863 0.0
C959 C 0.47712 0.35121 0.66728 0.0
C960 C 0.44747 0.32667 0.70246 0.0
C961 C 0.47214 0.32943 0.70114 0.0
N962 N 0.4565 0.36057 0.64894 0.0
N963 N 0.43876 0.34553 0.66964 0.0
C964 C 0.50081 0.3668 0.6557 0.0
H965 H 0.49907 0.38521 0.62853 0.0
H966 H 0.51343 0.34527 0.64714 0.0
H967 H 0.5084 0.38125 0.68313 0.0
C968 C 0.47356 0.3735 0.4871 0.0
N969 N 0.46942 0.39406 0.52199 0.0
N970 N 0.46855 0.37291 0.55484 0.0
C971 C 0.47268 0.33858 0.54167 0.0
C972 C 0.47654 0.33747 0.49779 0.0
C973 C 0.47038 0.38595 0.4429 0.0
H974 H 0.48824 0.38942 0.4289 0.0
H975 H 0.46099 0.36541 0.42393 0.0
H976 H 0.45999 0.41099 0.44159 0.0
O977 O 0.42314 0.44208 0.53622 0.0
O978 O 0.42 0.40812 0.59358 0.0
H979 H 0.45404 0.30748 0.58747 0.0
H980 H 0.47242 0.28152 0.55191 0.0
C981 C 0.47112 0.30679 0.56994 0.0
H982 H 0.48587 0.3078 0.59324 0.0
H983 H 0.42071 0.34946 0.66262 0.0
O984 O 0.46737 0.46808 0.47738 0.0
C985 C 0.41039 0.42669 0.56413 0.0
Co986 Co 0.25872 0.42918 0.52596 0.0
Co987 Co 0.26208 0.48351 0.59188 0.0
C988 C 0.24138 0.41076 0.61602 0.0
O989 O 0.2433 0.40254 0.57706 0.0
O990 O 0.24747 0.44219 0.62708 0.0
C991 C 0.23362 0.40445 0.45564 0.0
O992 O 0.21553 0.42145 0.47258 0.0
C993 C 0.24466 0.52997 0.65318 0.0
C994 C 0.27663 0.55909 0.67457 0.0
C995 C 0.25274 0.55321 0.68325 0.0
N996 N 0.26279 0.52217 0.62779 0.0
N997 N 0.28179 0.54043 0.6396 0.0
C998 C 0.22137 0.51043 0.6533 0.0
H999 H 0.21784 0.49831 0.62203 0.0
H1000 H 0.20666 0.52892 0.6617 0.0
H1001 H 0.222 0.48903 0.67744 0.0
C1002 C 0.24763 0.49717 0.47198 0.0
N1003 N 0.24927 0.47832 0.50878 0.0
N1004 N 0.24651 0.50063 0.53993 0.0
C1005 C 0.24048 0.53335 0.52392 0.0
C1006 C 0.24065 0.5327 0.47933 0.0
C1007 C 0.25996 0.48599 0.4327 0.0
H1008 H 0.27022 0.46118 0.43812 0.0
H1009 H 0.24675 0.48306 0.40719 0.0
H1010 H 0.27257 0.50713 0.42259 0.0
O1011 O 0.29402 0.42849 0.53325 0.0
O1012 O 0.29684 0.4704 0.58202 0.0
H1013 H 0.25168 0.57685 0.56264 0.0
H1014 H 0.22435 0.58506 0.53346 0.0
C1015 C 0.23483 0.5648 0.55103 0.0
H1016 H 0.22435 0.5561 0.57866 0.0
H1017 H 0.29866 0.53774 0.62614 0.0
O1018 O 0.25199 0.39884 0.4781 0.0
C1019 C 0.30667 0.44754 0.55784 0.0
Co1020 Co 0.50129 0.42684 0.25694 0.0
Co1021 Co 0.48367 0.47558 0.18988 0.0
C1022 C 0.50987 0.40777 0.16261 0.0
O1023 O 0.5107 0.4004 0.20182 0.0
O1024 O 0.50167 0.43831 0.15185 0.0
C1025 C 0.52479 0.39339 0.33536 0.0
O1026 O 0.53809 0.36614 0.34649 0.0
C1027 C 0.48963 0.52862 0.12925 0.0
C1028 C 0.45295 0.54107 0.10821 0.0
C1029 C 0.47681 0.54778 0.09999 0.0
N1030 N 0.47422 0.51139 0.15363 0.0
N1031 N 0.45223 0.51951 0.14202 0.0
C1032 C 0.51595 0.52144 0.12959 0.0
H1033 H 0.52082 0.50268 0.15521 0.0
H1034 H 0.52579 0.54674 0.13449 0.0
H1035 H 0.52152 0.51019 0.09882 0.0
C1036 C 0.52014 0.50046 0.29471 0.0
N1037 N 0.51012 0.47872 0.26469 0.0
N1038 N 0.4992 0.49931 0.23739 0.0
C1039 C 0.5 0.53381 0.25106 0.0
C1040 C 0.51351 0.53646 0.28835 0.0
C1041 C 0.5394 0.48901 0.32433 0.0
H1042 H 0.53307 0.49113 0.35717 0.0
H1043 H 0.54551 0.4616 0.31701 0.0
H1044 H 0.5548 0.50744 0.32151 0.0
O1045 O 0.46461 0.41908 0.26133 0.0
O1046 O 0.45396 0.4534 0.20765 0.0
H1047 H 0.48215 0.58494 0.2543 0.0
H1048 H 0.49523 0.57397 0.20403 0.0
C1049 C 0.48553 0.56308 0.23156 0.0
H1050 H 0.46816 0.55246 0.22048 0.0
H1051 H 0.43692 0.50836 0.15509 0.0
O1052 O 0.51852 0.39565 0.29707 0.0
C1053 C 0.44851 0.43178 0.23672 0.0
Co1054 Co 0.29433 0.42035 0.23128 0.0
Co1055 Co 0.30762 0.37501 0.15998 0.0
C1056 C 0.28592 0.45249 0.1457 0.0
O1057 O 0.28299 0.45577 0.1853 0.0
O1058 O 0.29469 0.42296 0.1325 0.0
C1059 C 0.26349 0.44778 0.29118 0.0
O1060 O 0.24877 0.45059 0.25907 0.0
C1061 C 0.28409 0.33519 0.09872 0.0
C1062 C 0.31137 0.32242 0.05112 0.0
C1063 C 0.28702 0.3214 0.05891 0.0
N1064 N 0.30555 0.3439 0.11403 0.0
N1065 N 0.32198 0.33583 0.08586 0.0
C1066 C 0.26104 0.34598 0.11895 0.0
H1067 H 0.26394 0.3675 0.14229 0.0
H1068 H 0.25338 0.32256 0.13543 0.0
H1069 H 0.24796 0.35519 0.09499 0.0
C1070 C 0.27218 0.34983 0.26572 0.0
N1071 N 0.28115 0.37084 0.23413 0.0
N1072 N 0.29194 0.35011 0.20713 0.0
C1073 C 0.29163 0.31586 0.2221 0.0
C1074 C 0.27942 0.31412 0.26081 0.0
C1075 C 0.24999 0.35879 0.28948 0.0
H1076 H 0.2421 0.38408 0.27836 0.0
H1077 H 0.23647 0.33755 0.28441 0.0
H1078 H 0.25358 0.35905 0.32362 0.0
O1079 O 0.33135 0.41793 0.23233 0.0
O1080 O 0.34075 0.38365 0.178 0.0
H1081 H 0.31889 0.29577 0.18102 0.0
H1082 H 0.3113 0.26659 0.22482 0.0
C1083 C 0.30421 0.28563 0.20109 0.0
H1084 H 0.2913 0.27122 0.18075 0.0
H1085 H 0.34005 0.342 0.08896 0.0
O1086 O 0.28536 0.44171 0.28411 0.0
C1087 C 0.34716 0.40237 0.20959 0.0
C1088 C 0.98407 0.32245 0.2802 0.0
C1089 C 0.98759 0.309 0.2394 0.0
C1090 C 1.00098 0.31653 0.31209 0.0
C1091 C 0.02195 0.2971 0.30409 0.0
H1092 H 0.96853 0.33859 0.28716 0.0
H1093 H 0.99787 0.32783 0.34296 0.0
S1094 S 0.03798 0.25254 0.20396 0.0
N1095 N 0.01236 0.27262 0.19379 0.0
N1096 N 0.04437 0.26205 0.25349 0.0
C1097 C 0.0253 0.28264 0.26378 0.0
C1098 C 0.00801 0.28839 0.23149 0.0
C1099 C 0.21499 1.05286 0.22578 0.0
C1100 C 0.23347 1.0283 0.2198 0.0
C1101 C 0.20437 1.05609 0.26522 0.0
C1102 C 0.21219 1.03482 0.29894 0.0
H1103 H 0.21017 0.07147 0.20106 0.0
H1104 H 0.19234 0.07825 0.27072 0.0
S1105 S 0.25537 0.96042 0.29518 0.0
N1106 N 0.2556 0.9775 0.24723 0.0
N1107 N 0.23568 0.98405 0.32196 0.0
C1108 C 0.22806 1.00681 0.29143 0.0
C1109 C 0.23896 1.00364 0.25152 0.0
C1110 C 0.9923 1.03339 0.02584 0.0
C1111 C 1.00113 1.05257 0.06041 0.0
C1112 C 1.00243 1.03751 0.98612 0.0
C1113 C 0.02162 0.06088 0.98009 0.0
H1114 H 0.97771 1.01473 0.02968 0.0
H1115 H 0.99502 1.02277 0.95983 0.0
S1116 S 0.05044 0.11802 0.06058 0.0
N1117 N 0.02964 0.09598 0.08652 0.0
N1118 N 0.04872 0.10411 1.01132 0.0
C1119 C 0.03068 0.08008 0.01449 0.0
C1120 C 0.02034 0.07588 0.05492 0.0
C1121 C 0.248 0.29445 0.03974 0.0
C1122 C 0.2677 0.31549 0.02833 0.0
C1123 C 0.22835 0.29094 1.01283 0.0
C1124 C 0.22787 0.30836 0.97373 0.0
H1125 H 0.24786 0.28049 0.06961 0.0
H1126 H 0.21385 0.27351 0.02198 0.0
S1127 S 0.27397 0.36894 0.93088 0.0
N1128 N 0.2849 0.35567 0.97664 0.0
N1129 N 0.24788 0.34891 0.92583 0.0
C1130 C 0.24715 0.33015 0.96241 0.0
C1131 C 0.26717 0.33364 0.98973 0.0
C1132 C 0.00823 0.82645 0.79488 0.0
C1133 C 0.01409 0.79095 0.8043 0.0
C1134 C 0.99124 0.83447 0.76388 0.0
C1135 C 0.97974 0.80726 0.74107 0.0
H1136 H 0.01657 0.84811 0.81201 0.0
H1137 H 0.98698 0.8622 0.7579 0.0
S1138 S 0.99029 0.7102 0.7514 0.0
N1139 N 0.00825 0.72843 0.78662 0.0
N1140 N 0.97594 0.74367 0.72882 0.0
C1141 C 0.98553 0.77171 0.75 0.0
C1142 C 1.00291 0.76351 0.7814 0.0
C1143 C 0.7613 1.04492 0.79765 0.0
C1144 C 0.74138 0.06676 0.80445 0.0
C1145 C 0.77159 1.04273 0.75786 0.0
C1146 C 0.76225 0.06249 0.72408 0.0
H1147 H 0.76901 1.02971 0.82333 0.0
H1148 H 0.7865 1.02474 0.7532 0.0
S1149 S 0.71129 0.12513 0.72647 0.0
N1150 N 0.7133 0.10965 0.77505 0.0
N1151 N 0.73276 0.10525 0.69976 0.0
C1152 C 0.74257 0.08472 0.73056 0.0
C1153 C 0.73202 0.08687 0.77098 0.0
C1154 C 0.77675 0.83297 0.01789 0.0
C1155 C 0.77496 0.81884 0.05859 0.0
C1156 C 0.75849 0.82762 0.98847 0.0
C1157 C 0.73796 0.80808 0.99908 0.0
H1158 H 0.792 0.84909 1.00921 0.0
H1159 H 0.76034 0.83906 0.95734 0.0
S1160 S 0.72545 0.76483 0.10158 0.0
N1161 N 0.75166 0.78419 0.10816 0.0
N1162 N 0.71724 0.77382 0.05272 0.0
C1163 C 0.7361 0.79369 0.03972 0.0
C1164 C 0.75472 0.79905 0.06952 0.0
C1165 C 0.21323 0.58068 0.77227 0.0
C1166 C 0.22003 0.55637 0.8038 0.0
C1167 C 0.22415 0.57991 0.7329 0.0
C1168 C 0.24218 0.55508 0.72473 0.0
H1169 H 0.20066 0.6019 0.77903 0.0
H1170 H 0.21898 0.59925 0.70921 0.0
S1171 S 0.26361 0.48277 0.79473 0.0
N1172 N 0.24373 0.50467 0.82304 0.0
N1173 N 0.26442 0.50311 0.74862 0.0
C1174 C 0.24797 0.52922 0.75497 0.0
C1175 C 0.23674 0.52983 0.79475 0.0
C1176 C 0.01798 0.57069 0.55396 0.0
C1177 C 0.99833 0.54789 0.55803 0.0
C1178 C 0.02869 0.57584 0.51482 0.0
C1179 C 0.02007 0.55806 0.47897 0.0
H1180 H 0.02489 0.58488 0.58108 0.0
H1181 H 0.04319 0.59479 0.5123 0.0
S1182 S 0.97084 0.4925 0.4745 0.0
N1183 N 0.97174 0.50542 0.52419 0.0
N1184 N 0.99219 0.51483 0.45036 0.0
C1185 C 1.00102 0.5342 0.483 0.0
C1186 C 0.99 0.52921 0.52271 0.0
C1187 C 0.25955 0.76539 0.48067 0.0
C1188 C 0.24825 0.79387 0.45963 0.0
C1189 C 0.27691 0.77163 0.51156 0.0
C1190 C 0.28336 0.80653 0.52234 0.0
H1191 H 0.25442 0.73812 0.47416 0.0
H1192 H 0.28469 0.74916 0.52812 0.0
S1193 S 0.26008 0.89008 0.47501 0.0
N1194 N 0.2453 0.858 0.45065 0.0
N1195 N 0.27816 0.86987 0.50859 0.0
C1196 C 0.2726 0.8352 0.50095 0.0
C1197 C 0.25487 0.82883 0.4697 0.0
C1198 C 0.74754 0.5917 0.26696 0.0
C1199 C 0.75116 0.56961 0.30198 0.0
C1200 C 0.76173 0.58797 0.23145 0.0
C1201 C 0.77977 0.56214 0.23045 0.0
H1202 H 0.73386 0.61216 0.26726 0.0
H1203 H 0.7578 0.60397 0.20385 0.0
S1204 S 0.79653 0.49886 0.315 0.0
N1205 N 0.77424 0.52229 0.33475 0.0
N1206 N 0.80093 0.51469 0.2671 0.0
C1207 C 0.78403 0.5407 0.2658 0.0
C1208 C 0.76955 0.54445 0.30187 0.0
C1209 C 0.74981 0.29803 0.54594 0.0
C1210 C 0.77021 0.3178 0.53521 0.0
C1211 C 0.73144 0.29262 0.51672 0.0
C1212 C 0.73304 0.30673 0.47596 0.0
H1213 H 0.74808 0.28658 0.57709 0.0
H1214 H 0.71624 0.2765 0.52566 0.0
S1215 S 0.78198 0.36198 0.43298 0.0
N1216 N 0.7905 0.35259 0.48157 0.0
N1217 N 0.75589 0.34226 0.42654 0.0
C1218 C 0.75317 0.32679 0.46492 0.0
C1219 C 0.77187 0.33226 0.49457 0.0
C1220 C 0.48576 0.33064 0.77556 0.0
C1221 C 0.48907 0.31852 0.73417 0.0
C1222 C 0.50275 0.32347 0.80682 0.0
C1223 C 0.52351 0.30405 0.79754 0.0
H1224 H 0.4702 0.34637 0.78358 0.0
H1225 H 0.49969 0.33325 0.83844 0.0
S1226 S 0.53927 0.26346 0.69516 0.0
N1227 N 0.51366 0.28401 0.68624 0.0
N1228 N 0.54585 0.27102 0.7451 0.0
C1229 C 0.52684 0.2913 0.75654 0.0
C1230 C 0.50949 0.29837 0.72477 0.0
C1231 C 0.51004 0.08531 0.54435 0.0
C1232 C 0.49009 0.06347 0.55062 0.0
C1233 C 0.52016 0.08856 0.50449 0.0
C1234 C 0.5106 0.0699 0.47007 0.0
H1235 H 0.51791 0.09972 0.57048 0.0
H1236 H 0.53515 0.10643 0.50032 0.0
S1237 S 0.4595 1.00761 0.47087 0.0
N1238 N 0.46174 1.02175 0.51996 0.0
N1239 N 0.48091 1.02803 0.44463 0.0
C1240 C 0.49087 1.04769 0.476 0.0
C1241 C 0.4805 1.04448 0.51649 0.0
C1242 C 0.47757 0.83617 0.26376 0.0
C1243 C 0.47982 0.82251 0.22289 0.0
C1244 C 0.49549 0.83043 0.29369 0.0
C1245 C 0.51609 0.81094 0.28347 0.0
H1246 H 0.46221 0.85218 0.27223 0.0
H1247 H 0.49329 0.84137 0.325 0.0
S1248 S 0.52944 0.76758 0.18157 0.0
N1249 N 0.50341 0.78735 0.1741 0.0
N1250 N 0.53726 0.77661 0.2306 0.0
C1251 C 0.51839 0.79681 0.24288 0.0
C1252 C 0.50012 0.80252 0.21249 0.0
C1253 C 0.48004 0.53781 0.02392 0.0
C1254 C 0.48652 0.55791 0.05941 0.0
C1255 C 0.49234 0.54176 0.98621 0.0
C1256 C 0.51148 0.56554 0.98345 0.0
H1257 H 0.46585 0.51826 0.02566 0.0
H1258 H 0.48664 0.52667 0.95888 0.0
S1259 S 0.53438 0.6255 0.06672 0.0
N1260 N 0.51242 0.60327 0.08928 0.0
N1261 N 0.53585 0.6105 0.0179 0.0
C1262 C 0.51803 0.58595 0.0185 0.0
C1263 C 0.50537 0.58222 0.05674 0.0
C1264 C 0.02016 0.15401 0.64349 0.0
C1265 C 0.00844 0.14588 0.60542 0.0
C1266 C 0.00896 0.17469 0.67442 0.0
C1267 C 0.98582 0.18802 0.66818 0.0
H1268 H 0.03884 0.14738 0.6476 0.0
H1269 H 0.01922 0.1828 0.70144 0.0
S1270 S 0.9452 0.16603 0.57962 0.0
N1271 N 0.97052 0.146 0.56769 0.0
N1272 N 0.94994 0.18604 0.62513 0.0
C1273 C 0.97301 0.17667 0.63255 0.0
C1274 C 0.9841 0.15471 0.60167 0.0
C1275 C 0.28372 0.17621 0.63439 0.0
C1276 C 0.27006 0.19027 0.60104 0.0
C1277 C 0.27277 0.16288 0.6708 0.0
C1278 C 0.24773 0.16246 0.67485 0.0
H1279 H 0.30294 0.17428 0.63167 0.0
H1280 H 0.28407 0.1533 0.69612 0.0
S1281 S 0.20384 0.19711 0.59693 0.0
N1282 N 0.23013 0.20621 0.57654 0.0
N1283 N 0.20963 0.17605 0.64134 0.0
C1284 C 0.23392 0.17579 0.64125 0.0
C1285 C 0.24507 0.19204 0.60595 0.0
C1286 C 0.03129 0.92735 0.41621 0.0
C1287 C 0.01776 0.92094 0.37956 0.0
C1288 C 0.02257 0.94922 0.44841 0.0
C1289 C 0.9995 0.96396 0.44576 0.0
H1290 H 0.04821 0.91393 0.421 0.0
H1291 H 0.03266 0.95057 0.47749 0.0
S1292 S 0.95959 0.96238 0.35296 0.0
N1293 N 0.98235 0.93678 0.33978 0.0
N1294 N 0.96572 0.97727 0.40061 0.0
C1295 C 0.98735 0.96179 0.40723 0.0
C1296 C 0.99638 0.93993 0.37424 0.0
C1297 C 0.73677 0.93342 0.34426 0.0
C1298 C 0.75757 0.95416 0.34809 0.0
C1299 C 0.72843 0.91296 0.37791 0.0
C1300 C 0.74024 0.91283 0.41705 0.0
H1301 H 0.72764 0.93097 0.31431 0.0
H1302 H 0.71291 0.89632 0.37275 0.0
S1303 S 0.79336 0.96693 0.44503 0.0
N1304 N 0.78822 0.97666 0.39521 0.0
N1305 N 0.77245 0.93816 0.45846 0.0
C1306 C 0.75996 0.93558 0.42216 0.0
C1307 C 0.76855 0.95641 0.38776 0.0
C1308 C 0.02114 0.65872 0.1476 0.0
C1309 C 0.01036 0.65456 0.10788 0.0
C1310 C 0.01091 0.68084 0.17824 0.0
C1311 C 0.98976 0.69982 0.16995 0.0
H1312 H 0.03826 0.64644 0.15414 0.0
H1313 H 0.02022 0.68437 0.20766 0.0
S1314 S 0.95301 0.69458 0.07281 0.0
N1315 N 0.97613 0.66854 0.06344 0.0
N1316 N 0.95711 0.71013 0.12085 0.0
C1317 C 0.97811 0.69419 0.1313 0.0
C1318 C 0.98828 0.67134 0.1004 0.0
C1319 C 0.2356 0.65627 0.12853 0.0
C1320 C 0.24531 0.65384 0.16929 0.0
C1321 C 0.24631 0.67771 0.09765 0.0
C1322 C 0.26689 0.69784 0.10657 0.0
H1323 H 0.21905 0.64276 0.12102 0.0
H1324 H 0.23796 0.67936 0.0672 0.0
S1325 S 0.30056 0.6981 0.20743 0.0
N1326 N 0.27774 0.67138 0.21602 0.0
N1327 N 0.29768 0.7115 0.15823 0.0
C1328 C 0.27737 0.69422 0.14664 0.0
C1329 C 0.2667 0.67214 0.17785 0.0
C1330 C 0.03078 0.38744 0.89965 0.0
C1331 C 0.0374 0.41396 0.87088 0.0
C1332 C 0.02647 0.39608 0.94178 0.0
C1333 C 0.02654 0.4318 0.9551 0.0
H1334 H 0.02694 0.36063 0.88886 0.0
H1335 H 0.02065 0.37522 0.96282 0.0
S1336 S 0.05266 0.50773 0.89718 0.0
N1337 N 0.05256 0.47459 0.86284 0.0
N1338 N 0.04098 0.49151 0.9409 0.0
C1339 C 0.037 0.45727 0.9289 0.0
C1340 C 0.04326 0.448 0.88677 0.0
C1341 C 0.76233 0.42071 0.86452 0.0
C1342 C 0.74864 0.44574 0.84204 0.0
C1343 C 0.75394 0.40529 0.90126 0.0
C1344 C 0.73288 0.41751 0.92037 0.0
H1345 H 0.77947 0.41164 0.85298 0.0
H1346 H 0.76555 0.38649 0.9171 0.0
S1347 S 0.68917 0.48011 0.87254 0.0
N1348 N 0.71119 0.4783 0.83813 0.0
N1349 N 0.69686 0.45321 0.91152 0.0
C1350 C 0.7182 0.44106 0.89731 0.0
C1351 C 0.72603 0.45489 0.8577 0.0
C1352 C 0.51804 0.17615 0.13507 0.0
C1353 C 0.50697 0.17583 0.09518 0.0
C1354 C 0.50922 0.19758 0.1678 0.0
C1355 C 0.48915 0.21951 0.16161 0.0
H1356 H 0.53436 0.16127 0.14034 0.0
H1357 H 0.51879 0.19814 0.19733 0.0
S1358 S 0.45132 0.22391 0.0657 0.0
N1359 N 0.47297 0.19601 0.05344 0.0
N1360 N 0.45672 0.23622 0.11461 0.0
C1361 C 0.47699 0.21748 0.12295 0.0
C1362 C 0.48572 0.19545 0.08992 0.0
C1363 C 0.77363 0.18347 0.18694 0.0
C1364 C 0.75195 0.16468 0.18417 0.0
C1365 C 0.78189 0.20397 0.15318 0.0
C1366 C 0.76907 0.20605 0.11506 0.0
H1367 H 0.7833 0.18499 0.21644 0.0
H1368 H 0.79799 0.21949 0.1577 0.0
S1369 S 0.71408 0.1555 0.08919 0.0
N1370 N 0.72002 0.14445 0.13837 0.0
N1371 N 0.73538 0.18341 0.07514 0.0
C1372 C 0.74871 0.18449 0.11064 0.0
C1373 C 0.74032 0.16345 0.14502 0.0
C1374 C 0.52959 0.92352 0.89762 0.0
C1375 C 0.51616 0.92105 0.86022 0.0
C1376 C 0.52208 0.94496 0.9311 0.0
C1377 C 0.50057 0.96427 0.92879 0.0
H1378 H 0.54561 0.9077 0.90178 0.0
H1379 H 0.53222 0.94382 0.96015 0.0
S1380 S 0.46104 0.97191 0.83563 0.0
N1381 N 0.48189 0.94326 0.82138 0.0
N1382 N 0.46798 0.9841 0.88402 0.0
C1383 C 0.48828 0.9649 0.89021 0.0
C1384 C 0.49588 0.94288 0.85614 0.0
C1385 C 0.26525 0.95565 0.85503 0.0
C1386 C 0.25104 0.95486 0.81861 0.0
C1387 C 0.25834 0.93758 0.89122 0.0
C1388 C 0.23644 0.91917 0.89313 0.0
H1389 H 0.28294 0.9673 0.85432 0.0
H1390 H 0.27062 0.93759 0.91762 0.0
S1391 S 0.18977 0.91786 0.81032 0.0
N1392 N 0.212 0.94047 0.78919 0.0
N1393 N 0.19867 0.90702 0.85825 0.0
C1394 C 0.22068 0.92214 0.85887 0.0
C1395 C 0.22786 0.94049 0.8216 0.0
C1396 C 0.52033 0.69701 0.61679 0.0
C1397 C 0.50296 0.68664 0.58757 0.0
C1398 C 0.51429 0.71471 0.65342 0.0
C1399 C 0.49044 0.71657 0.66674 0.0
H1400 H 0.53907 0.69217 0.61131 0.0
H1401 H 0.5289 0.72278 0.67367 0.0
S1402 S 0.4375 0.69172 0.60303 0.0
N1403 N 0.46046 0.68188 0.57262 0.0
N1404 N 0.44886 0.70763 0.64726 0.0
C1405 C 0.47251 0.70572 0.63844 0.0
C1406 C 0.47881 0.69153 0.59817 0.0
C1407 C 0.74381 0.70068 0.67309 0.0
C1408 C 0.75859 0.67712 0.69568 0.0
C1409 C 0.7516 0.71704 0.63653 0.0
C1410 C 0.77335 0.70738 0.61781 0.0
H1411 H 0.7263 0.70808 0.68453 0.0
H1412 H 0.7392 0.73468 0.62069 0.0
S1413 S 0.8195 0.6487 0.66542 0.0
N1414 N 0.79733 0.6481 0.69958 0.0
N1415 N 0.81077 0.67506 0.62661 0.0
C1416 C 0.78887 0.68493 0.64064 0.0
C1417 C 0.78154 0.6701 0.68002 0.0
C1418 C 0.48823 0.46065 0.39697 0.0
C1419 C 0.50151 0.46394 0.43455 0.0
C1420 C 0.49626 0.43899 0.36382 0.0
C1421 C 0.5179 0.42017 0.36715 0.0
H1422 H 0.47065 0.47251 0.39451 0.0
H1423 H 0.48486 0.4354 0.33661 0.0
S1424 S 0.56203 0.42672 0.45407 0.0
N1425 N 0.53942 0.45164 0.4695 0.0
N1426 N 0.55435 0.41116 0.40743 0.0
C1427 C 0.53243 0.42621 0.40257 0.0
C1428 C 0.52439 0.44839 0.43605 0.0
C1429 C 0.2696 0.41717 0.3592 0.0
C1430 C 0.25432 0.43675 0.33262 0.0
C1431 C 0.26126 0.40137 0.39574 0.0
C1432 C 0.23787 0.40748 0.40993 0.0
H1433 H 0.28815 0.41273 0.35126 0.0
H1434 H 0.27414 0.38716 0.41495 0.0
S1435 S 0.19001 0.4542 0.35061 0.0
N1436 N 0.21381 0.45782 0.32037 0.0
N1437 N 0.19864 0.43135 0.39245 0.0
C1438 C 0.2219 0.42536 0.38285 0.0
C1439 C 0.23015 0.43991 0.34394 0.0
C1440 C 0.13512 0.15768 0.4768 0.0
C1441 C 0.1266 0.19274 0.48167 0.0
C1442 C 0.15971 0.15044 0.47375 0.0
C1443 C 0.17685 0.17781 0.47686 0.0
H1444 H 0.12264 0.13578 0.47371 0.0
H1445 H 0.16535 0.12313 0.46864 0.0
S1446 S 0.16382 0.27393 0.49265 0.0
N1447 N 0.13722 0.25503 0.49063 0.0
N1448 N 0.1834 0.2413 0.48707 0.0
C1449 C 0.16856 0.21283 0.48351 0.0
C1450 C 0.14348 0.22032 0.48527 0.0
C1451 C 0.11841 0.1674 0.77664 0.0
C1452 C 0.12694 0.20159 0.7869 0.0
C1453 C 0.09378 0.16034 0.77412 0.0
C1454 C 0.07662 0.18737 0.78036 0.0
H1455 H 0.13079 0.14541 0.77303 0.0
H1456 H 0.08807 0.13307 0.76906 0.0
S1457 S 0.0896 0.28236 0.80276 0.0
N1458 N 0.1162 0.26347 0.8 0.0
N1459 N 0.07004 0.25027 0.79385 0.0
C1460 C 0.08492 0.22216 0.78761 0.0
C1461 C 0.11001 0.22923 0.79129 0.0
C1462 C 0.84413 0.95376 0.53781 0.0
C1463 C 0.82724 0.92704 0.54669 0.0
C1464 C 0.86877 0.94719 0.54093 0.0
C1465 C 0.87763 0.91389 0.55435 0.0
H1466 H 0.83821 0.98036 0.52942 0.0
H1467 H 0.88094 0.96894 0.5345 0.0
S1468 S 0.84086 0.83438 0.57963 0.0
N1469 N 0.82108 0.86545 0.56738 0.0
N1470 N 0.86733 0.85323 0.57455 0.0
C1471 C 0.86092 0.8866 0.56225 0.0
C1472 C 0.83577 0.89311 0.55803 0.0
C1473 C 0.9149 0.95705 0.25837 0.0
C1474 C 0.93011 0.92896 0.24653 0.0
C1475 C 0.88997 0.95387 0.25545 0.0
C1476 C 0.87916 0.92282 0.23925 0.0
H1477 H 0.9224 0.98217 0.26884 0.0
H1478 H 0.87914 0.97657 0.26435 0.0
S1479 S 0.91123 0.8411 0.20498 0.0
N1480 N 0.93273 0.86863 0.21952 0.0
N1481 N 0.88592 0.8627 0.21288 0.0
C1482 C 0.89424 0.89417 0.22816 0.0
C1483 C 0.91967 0.89722 0.23208 0.0
C1484 C 0.13973 0.71265 0.94926 0.0
C1485 C 0.12592 0.70245 0.98422 0.0
C1486 C 0.16477 0.70997 0.94982 0.0
C1487 C 0.17728 0.69796 0.98569 0.0
H1488 H 0.13111 0.7212 0.92041 0.0
H1489 H 0.17444 0.71593 0.92117 0.0
S1490 S 0.15019 0.67119 0.08703 0.0
N1491 N 0.12712 0.68199 0.05708 0.0
N1492 N 0.17415 0.67764 0.05784 0.0
C1493 C 0.16394 0.68957 0.02164 0.0
C1494 C 0.13833 0.69165 0.02097 0.0
C1495 C 0.09255 0.6879 0.25872 0.0
C1496 C 0.07925 0.69726 0.29446 0.0
C1497 C 0.11768 0.69038 0.25873 0.0
C1498 C 0.13052 0.70251 0.29439 0.0
H1499 H 0.08362 0.67669 0.23149 0.0
H1500 H 0.12714 0.68176 0.23085 0.0
S1501 S 0.10348 0.73236 0.39498 0.0
N1502 N 0.08045 0.72044 0.36568 0.0
N1503 N 0.12733 0.72588 0.36557 0.0
C1504 C 0.11716 0.71358 0.32952 0.0
C1505 C 0.09167 0.71066 0.3296 0.0
C1506 C 0.85188 0.39876 0.04878 0.0
C1507 C 0.84188 0.43308 0.04532 0.0
C1508 C 0.87683 0.39383 0.05047 0.0
C1509 C 0.89273 0.42288 0.04746 0.0
H1510 H 0.84036 0.37578 0.05225 0.0
H1511 H 0.88373 0.36707 0.05473 0.0
S1512 S 0.87549 0.51789 0.03572 0.0
N1513 N 0.8498 0.49643 0.03794 0.0
N1514 N 0.89645 0.48702 0.0392 0.0
C1515 C 0.8829 0.4571 0.04212 0.0
C1516 C 0.85756 0.46222 0.04161 0.0
C1517 C 0.88374 0.4274 0.68993 0.0
C1518 C 0.86844 0.42251 0.72453 0.0
C1519 C 0.90845 0.43194 0.69518 0.0
C1520 C 0.91932 0.43076 0.73523 0.0
H1521 H 0.8765 0.42797 0.65827 0.0
H1522 H 0.91922 0.43589 0.6673 0.0
S1523 S 0.88747 0.41814 0.83642 0.0
N1524 N 0.86601 0.41701 0.80061 0.0
N1525 N 0.91265 0.42425 0.81039 0.0
C1526 C 0.90432 0.42556 0.77025 0.0
C1527 C 0.87889 0.42186 0.76494 0.0
C1528 C 0.63828 0.17456 1.00174 0.0
C1529 C 0.62785 0.20486 0.98279 0.0
C1530 C 0.66316 0.17031 1.00419 0.0
C1531 C 0.67883 0.19658 0.98901 0.0
H1532 H 0.62715 0.15309 0.01327 0.0
H1533 H 0.67023 0.1456 0.01681 0.0
S1534 S 0.66119 0.28207 0.93924 0.0
N1535 N 0.63555 0.26248 0.95021 0.0
N1536 N 0.6823 0.25458 0.9558 0.0
C1537 C 0.66883 0.22772 0.97175 0.0
C1538 C 0.64339 0.23183 0.9684 0.0
C1539 C 0.61809 0.17325 0.27674 0.0
C1540 C 0.6287 0.20476 0.29205 0.0
C1541 C 0.59313 0.16969 0.27374 0.0
C1542 C 0.57767 0.19788 0.28446 0.0
H1543 H 0.62911 0.15047 0.26883 0.0
H1544 H 0.58581 0.14421 0.26416 0.0
S1545 S 0.59604 0.28683 0.32351 0.0
N1546 N 0.62149 0.26534 0.31649 0.0
N1547 N 0.57474 0.25877 0.30954 0.0
C1548 C 0.58796 0.23006 0.29792 0.0
C1549 C 0.61339 0.23347 0.30202 0.0
C1550 C 0.34301 0.96837 0.03397 0.0
C1551 C 0.3276 0.93874 0.0355 0.0
C1552 C 0.36796 0.96424 0.03578 0.0
C1553 C 0.37848 0.93039 0.04081 0.0
H1554 H 0.33568 0.99507 0.03187 0.0
H1555 H 0.37906 0.98787 0.03494 0.0
S1556 S 0.34611 0.84421 0.04607 0.0
N1557 N 0.32474 0.87431 0.04091 0.0
N1558 N 0.37149 0.86659 0.04628 0.0
C1559 C 0.36328 0.90051 0.042 0.0
C1560 C 0.3379 0.90466 0.03881 0.0
C1561 C 0.39349 0.88908 0.70985 0.0
C1562 C 0.37581 0.91502 0.71816 0.0
C1563 C 0.41803 0.89633 0.71585 0.0
C1564 C 0.42588 0.93003 0.72964 0.0
H1565 H 0.38836 0.86309 0.69805 0.0
H1566 H 0.43096 0.87606 0.70753 0.0
S1567 S 0.38726 1.00704 0.75656 0.0
N1568 N 0.36831 0.97552 0.74243 0.0
N1569 N 0.41409 0.98924 0.75219 0.0
C1570 C 0.40844 0.95585 0.73882 0.0
C1571 C 0.38355 0.94834 0.73355 0.0
C1572 C 0.65869 0.69742 0.43197 0.0
C1573 C 0.6703 0.69531 0.47135 0.0
C1574 C 0.63403 0.70401 0.42886 0.0
C1575 C 0.61986 0.70771 0.46504 0.0
H1576 H 0.66877 0.69404 0.4032 0.0
H1577 H 0.6259 0.70508 0.39791 0.0
S1578 S 0.64143 0.70514 0.57561 0.0
N1579 N 0.66571 0.69865 0.54727 0.0
N1580 N 0.61932 0.70965 0.54153 0.0
C1581 C 0.63123 0.70591 0.5046 0.0
C1582 C 0.65644 0.70012 0.50773 0.0
C1583 C 0.62403 0.7273 0.80898 0.0
C1584 C 0.64025 0.69881 0.8137 0.0
C1585 C 0.59926 0.72144 0.80549 0.0
C1586 C 0.58954 0.68688 0.80813 0.0
H1587 H 0.63054 0.7545 0.80845 0.0
H1588 H 0.58755 0.74431 0.80245 0.0
S1589 S 0.62427 0.60304 0.81975 0.0
N1590 N 0.64481 0.63463 0.81931 0.0
N1591 N 0.59833 0.62362 0.81472 0.0
C1592 C 0.6056 0.65811 0.81238 0.0
C1593 C 0.6309 0.66405 0.81462 0.0
C1594 C 0.37066 0.43792 0.59896 0.0
C1595 C 0.38392 0.43102 0.56224 0.0
C1596 C 0.34582 0.44405 0.59722 0.0
C1597 C 0.33312 0.44239 0.55888 0.0
H1598 H 0.37963 0.43938 0.62916 0.0
H1599 H 0.33642 0.44955 0.62625 0.0
S1600 S 0.35936 0.42423 0.45391 0.0
N1601 N 0.3824 0.4229 0.48643 0.0
N1602 N 0.33584 0.43281 0.48341 0.0
C1603 C 0.34615 0.43489 0.5221 0.0
C1604 C 0.37147 0.42966 0.52371 0.0
C1605 C 0.38145 0.42416 0.25598 0.0
C1606 C 0.3734 0.4064 0.21927 0.0
C1607 C 0.40605 0.42995 0.26388 0.0
C1608 C 0.42359 0.41794 0.23557 0.0
H1609 H 0.36864 0.43457 0.27828 0.0
H1610 H 0.41127 0.44538 0.29119 0.0
S1611 S 0.41273 0.36939 0.13569 0.0
N1612 N 0.38582 0.3761 0.15505 0.0
N1613 N 0.43138 0.38709 0.17009 0.0
C1614 C 0.41589 0.39931 0.19965 0.0
C1615 C 0.39106 0.39345 0.19149 0.0
C1616 C 0.02541 0.09027 0.40312 0.0
C1617 C 0.0332 0.12462 0.39016 0.0
C1618 C 0.02202 0.06129 0.37436 0.0
C1619 C 0.02629 0.0643 0.33046 0.0
H1620 H 0.02191 0.08551 0.43614 0.0
H1621 H 0.01558 1.03625 0.38687 0.0
S1622 S 0.04766 0.14754 0.27892 0.0
N1623 N 0.04522 0.15901 0.32891 0.0
N1624 N 0.03957 0.10527 0.27621 0.0
C1625 C 0.03414 0.09841 0.31704 0.0
C1626 C 0.03741 0.12804 0.34625 0.0
C1627 C 0.26807 0.24844 0.28117 0.0
C1628 C 0.27608 0.28301 0.29274 0.0
C1629 C 0.26389 0.22064 0.31149 0.0
C1630 C 0.26775 0.22524 0.3555 0.0
H1631 H 0.26439 0.24296 0.24834 0.0
H1632 H 0.25724 0.19529 0.30017 0.0
S1633 S 0.29093 0.30943 0.4027 0.0
N1634 N 0.2892 0.31876 0.35201 0.0
N1635 N 0.28152 0.26795 0.40768 0.0
C1636 C 0.27642 0.25946 0.36708 0.0
C1637 C 0.28049 0.28766 0.33637 0.0
C1638 C 0.96825 0.28831 0.93022 0.0
C1639 C 0.98137 0.29084 0.96843 0.0
C1640 C 0.97191 0.26047 0.9002 0.0
C1641 C 0.98861 0.2325 0.90641 0.0
H1642 H 0.95479 0.30804 0.92306 0.0
H1643 H 0.96145 0.26107 0.8715 0.0
S1644 S 0.02756 0.2249 1.00124 0.0
N1645 N 0.01205 0.26161 1.01011 0.0
N1646 N 0.01815 0.20935 0.95548 0.0
C1647 C 1.00137 0.23399 0.94506 0.0
C1648 C 0.99791 0.26276 0.97535 0.0
C1649 C 0.21302 0.1284 0.93506 0.0
C1650 C 0.22027 0.12878 0.8922 0.0
C1651 C 0.2172 0.09857 0.96245 0.0
C1652 C 0.2288 0.06695 0.94886 0.0
H1653 H 0.20364 0.15126 0.94764 0.0
H1654 H 0.21084 0.10013 0.99454 0.0
S1655 S 0.25366 1.05439 0.84138 0.0
N1656 N 0.24115 0.09423 0.83904 0.0
N1657 N 0.24911 1.03978 0.88971 0.0
C1658 C 0.23667 0.06738 0.90654 0.0
C1659 C 0.23244 0.09759 0.8787 0.0
C1660 C 0.96798 1.013 0.72872 0.0
C1661 C 0.98013 1.04443 0.71633 0.0
C1662 C 0.96365 0.98404 0.70029 0.0
C1663 C 0.97132 0.98454 0.65769 0.0
H1664 H 0.9614 1.01093 0.76063 0.0
H1665 H 0.95381 0.96122 0.7118 0.0
S1666 S 0.00701 1.05782 0.61074 0.0
N1667 N 1.00173 0.07205 0.65903 0.0
N1668 N 0.99373 1.01878 0.60658 0.0
C1669 C 0.98418 1.01533 0.64558 0.0
C1670 C 0.98851 1.04472 0.6744 0.0
C1671 C 0.74013 0.86437 0.73734 0.0
C1672 C 0.73103 0.82969 0.72935 0.0
C1673 C 0.74297 0.8907 0.70473 0.0
C1674 C 0.73647 0.88444 0.66197 0.0
H1675 H 0.74576 0.87104 0.769 0.0
H1676 H 0.75067 0.91617 0.71321 0.0
S1677 S 0.70941 0.79932 0.62451 0.0
N1678 N 0.71425 0.79188 0.67505 0.0
N1679 N 0.71891 0.84024 0.61532 0.0
C1680 C 0.72659 0.85017 0.65417 0.0
C1681 C 0.72408 0.82337 0.68711 0.0
C1682 C 0.01565 0.81083 0.11631 0.0
C1683 C 0.02832 0.81526 0.07799 0.0
C1684 C 0.01264 0.83883 0.14629 0.0
C1685 C 0.02143 0.87383 0.1398 0.0
H1686 H 0.00765 0.78528 0.12337 0.0
H1687 H 1.00275 0.83306 0.17472 0.0
S1688 S 0.05709 0.90097 0.04678 0.0
N1689 N 0.05132 0.85844 0.03777 0.0
N1690 N 0.04389 0.91089 0.09171 0.0
C1691 C 0.03388 0.87903 0.10162 0.0
C1692 C 0.0377 0.85011 0.07159 0.0
C1693 C 0.77454 0.06395 0.11829 0.0
C1694 C 0.77706 0.05946 0.0741 0.0
C1695 C 0.77896 1.03583 0.14794 0.0
C1696 C 0.78611 1.00101 0.13561 0.0
H1697 H 0.76864 0.08945 0.13035 0.0
H1698 H 0.77667 1.0416 0.18107 0.0
S1699 S 0.79645 0.97456 0.02398 0.0
N1700 N 0.7883 1.01678 0.02034 0.0
N1701 N 0.79583 0.96469 0.07462 0.0
C1702 C 0.78871 0.99623 0.09146 0.0
C1703 C 0.78439 1.02493 0.06139 0.0
C1704 C 0.0335 0.58412 0.83058 0.0
C1705 C 0.01339 0.5618 0.83709 0.0
C1706 C 0.04003 0.61222 0.85884 0.0
C1707 C 0.02734 0.6195 0.89645 0.0
H1708 H 0.04472 0.57949 0.80345 0.0
H1709 H 0.05566 0.62795 0.85151 0.0
S1710 S 0.97148 0.57325 0.92719 0.0
N1711 N 0.97907 0.55338 0.88281 0.0
N1712 N 0.99247 0.60304 0.93676 0.0
C1713 C 0.00704 0.59791 0.90324 0.0
C1714 C 0.99986 0.5701 0.87367 0.0
C1715 C 0.28759 0.7876 0.84058 0.0
C1716 C 0.27905 0.78549 0.79849 0.0
C1717 C 0.28261 0.76113 0.87179 0.0
C1718 C 0.26914 0.7299 0.86326 0.0
H1719 H 0.29825 0.81034 0.84988 0.0
H1720 H 0.28936 0.76551 0.90334 0.0
S1721 S 0.24359 0.70898 0.75763 0.0
N1722 N 0.25678 0.74787 0.75028 0.0
N1723 N 0.24825 0.69829 0.80744 0.0
C1724 C 0.26126 0.72666 0.82083 0.0
C1725 C 0.26606 0.754 0.78912 0.0
C1726 C 0.96512 0.79057 0.43157 0.0
C1727 C 0.97639 0.79219 0.47159 0.0
C1728 C 0.97011 0.76326 0.4015 0.0
C1729 C 0.9863 0.73494 0.4096 0.0
H1730 H 0.95227 0.81092 0.42303 0.0
H1731 H 0.96116 0.76454 0.37129 0.0
S1732 S 0.02032 0.72507 0.50988 0.0
N1733 N 0.00459 0.76182 0.51727 0.0
N1734 N 0.0132 0.7105 0.46242 0.0
C1735 C 0.99711 0.73554 0.45009 0.0
C1736 C 0.99232 0.76379 0.48043 0.0
C1737 C 0.22393 0.55572 0.4078 0.0
C1738 C 0.23645 0.5626 0.44599 0.0
C1739 C 0.21947 0.58257 0.37657 0.0
C1740 C 0.22693 0.6185 0.38139 0.0
H1741 H 0.21698 0.52923 0.40214 0.0
H1742 H 0.20944 0.57514 0.34875 0.0
S1743 S 0.26288 0.6509 0.4725 0.0
N1744 N 0.25846 0.6084 0.48354 0.0
N1745 N 0.24898 0.65828 0.42744 0.0
C1746 C 0.23986 0.62555 0.419 0.0
C1747 C 0.24484 0.59807 0.45034 0.0
C1748 C 0.98918 0.52336 0.1417 0.0
C1749 C 0.98261 0.48861 0.15526 0.0
C1750 C 0.99169 0.55285 0.17001 0.0
C1751 C 0.98779 0.54986 0.214 0.0
H1752 H 0.99235 0.52807 0.10856 0.0
H1753 H 0.99714 0.57828 0.1571 0.0
S1754 S 0.96932 0.46575 0.26696 0.0
N1755 N 0.97189 0.45399 0.21709 0.0
N1756 N 0.97611 0.50856 0.269 0.0
C1757 C 0.98111 0.51538 0.22799 0.0
C1758 C 0.97864 0.4853 0.19924 0.0
C1759 C 0.71814 0.35014 0.20742 0.0
C1760 C 0.73369 0.32106 0.21603 0.0
C1761 C 0.72421 0.37825 0.17863 0.0
C1762 C 0.74622 0.37906 0.15661 0.0
H1763 H 0.70087 0.35093 0.22254 0.0
H1764 H 0.71137 0.39937 0.17323 0.0
S1765 S 0.79445 0.31198 0.17082 0.0
N1766 N 0.77289 0.29693 0.20135 0.0
N1767 N 0.78411 0.34872 0.14853 0.0
C1768 C 0.76201 0.3506 0.16576 0.0
C1769 C 0.75583 0.32209 0.19482 0.0
C1770 C 0.01548 0.34815 0.57035 0.0
C1771 C 0.029 0.31724 0.58034 0.0
C1772 C 0.0103 0.37546 0.60061 0.0
C1773 C 0.01799 0.37373 0.64331 0.0
H1774 H 0.00829 0.35102 0.53887 0.0
H1775 H 0.99952 0.39787 0.59049 0.0
S1776 S 0.05657 0.30128 0.68577 0.0
N1777 N 0.05234 0.28957 0.6362 0.0
N1778 N 0.04148 0.3387 0.69245 0.0
C1779 C 0.03202 0.34347 0.65344 0.0
C1780 C 0.03778 0.31612 0.62242 0.0
C1781 C 0.75119 0.54744 0.60507 0.0
C1782 C 0.76321 0.55371 0.56635 0.0
C1783 C 0.7564 0.51778 0.63198 0.0
C1784 C 0.77364 0.49147 0.62195 0.0
H1785 H 0.7372 0.56513 0.61512 0.0
H1786 H 0.74653 0.51538 0.6611 0.0
S1787 S 0.81136 0.49444 0.52574 0.0
N1788 N 0.79448 0.53037 0.52128 0.0
N1789 N 0.8031 0.47462 0.56978 0.0
C1790 C 0.78563 0.49696 0.58322 0.0
C1791 C 0.78073 0.52767 0.55626 0.0
C1792 C 0.52231 0.06346 0.86571 0.0
C1793 C 0.52449 0.06795 0.82141 0.0
C1794 C 0.52691 0.09158 0.89535 0.0
C1795 C 0.5339 0.12647 0.88296 0.0
H1796 H 0.51655 1.03795 0.87789 0.0
H1797 H 0.52487 0.08576 0.92853 0.0
S1798 S 0.54347 0.15301 0.77107 0.0
N1799 N 0.53539 0.11078 0.76757 0.0
N1800 N 0.54313 0.1628 0.82171 0.0
C1801 C 0.53617 0.13124 0.83871 0.0
C1802 C 0.53172 0.10254 0.80867 0.0
C1803 C 0.76353 0.23352 0.82808 0.0
C1804 C 0.76993 0.23956 0.87092 0.0
C1805 C 0.76674 0.25986 0.79565 0.0
C1806 C 0.77617 0.29427 0.80398 0.0
H1807 H 0.7556 0.20824 0.81941 0.0
H1808 H 0.76111 0.25347 0.76391 0.0
S1809 S 0.79767 0.32393 0.90915 0.0
N1810 N 0.78775 0.28319 0.91803 0.0
N1811 N 0.7931 0.3316 0.85859 0.0
C1812 C 0.78304 0.30033 0.84629 0.0
C1813 C 0.78014 0.27354 0.87904 0.0
C1814 C 0.46354 0.27937 0.45827 0.0
C1815 C 0.48099 0.3058 0.46727 0.0
C1816 C 0.46711 0.25196 0.42724 0.0
C1817 C 0.48843 0.24909 0.40337 0.0
H1818 H 0.44667 0.2803 0.47473 0.0
H1819 H 0.45286 0.23309 0.42156 0.0
S1820 S 0.54074 0.30891 0.41701 0.0
N1821 N 0.52101 0.32531 0.45033 0.0
N1822 N 0.52773 0.27462 0.39376 0.0
C1823 C 0.50612 0.27479 0.41295 0.0
C1824 C 0.50242 0.30271 0.44411 0.0
C1825 C 0.71562 0.12677 0.44023 0.0
C1826 C 0.72089 0.12466 0.39651 0.0
C1827 C 0.71973 0.09778 0.46896 0.0
C1828 C 0.72935 0.06442 0.45621 0.0
H1829 H 0.70797 0.15112 0.4526 0.0
H1830 H 0.71507 0.10157 0.50171 0.0
S1831 S 0.74854 1.04524 0.34643 0.0
N1832 N 0.7376 0.08597 0.34313 0.0
N1833 N 0.74561 1.03301 0.39608 0.0
C1834 C 0.73509 0.0623 0.4128 0.0
C1835 C 0.73086 0.09171 0.38356 0.0
C1836 C 0.46743 1.03424 0.21405 0.0
C1837 C 0.47877 0.06647 0.20183 0.0
C1838 C 0.46359 1.00511 0.18554 0.0
C1839 C 0.47085 1.00599 0.14268 0.0
H1840 H 0.46122 1.03152 0.24612 0.0
H1841 H 0.45449 0.9817 0.19731 0.0
S1842 S 0.50394 0.08171 0.09511 0.0
N1843 N 0.49904 0.0953 0.14376 0.0
N1844 N 0.49158 1.04197 0.09108 0.0
C1845 C 0.48265 1.03773 0.13042 0.0
C1846 C 0.48661 0.0673 0.15944 0.0
C1847 C 0.24174 0.83349 0.12151 0.0
C1848 C 0.23427 0.86899 0.12944 0.0
C1849 C 0.23867 0.80527 0.15127 0.0
C1850 C 0.22731 0.81015 0.19076 0.0
H1851 H 0.25075 0.8275 0.09225 0.0
H1852 H 0.24575 0.77931 0.14325 0.0
S1853 S 0.20183 0.89719 0.22571 0.0
N1854 N 0.21418 0.90681 0.17997 0.0
N1855 N 0.20647 0.85416 0.23339 0.0
C1856 C 0.219 0.84542 0.19838 0.0
C1857 C 0.22292 0.87445 0.16863 0.0
C1858 C 0.53006 0.89329 0.58085 0.0
C1859 C 0.51654 0.88748 0.61801 0.0
C1860 C 0.53376 0.86587 0.54978 0.0
C1861 C 0.52372 0.83113 0.55341 0.0
H1862 H 0.53836 0.91903 0.5761 0.0
H1863 H 0.54503 0.87187 0.52312 0.0
S1864 S 0.4837 0.80371 0.64098 0.0
N1865 N 0.49159 0.84463 0.65398 0.0
N1866 N 0.49735 0.79492 0.59618 0.0
C1867 C 0.50939 0.82584 0.5896 0.0
C1868 C 0.5061 0.85328 0.62137 0.0
C1869 C 0.26947 0.97175 0.56923 0.0
C1870 C 0.28305 0.97645 0.60666 0.0
C1871 C 0.26475 1.00047 0.54032 0.0
C1872 C 0.27389 1.03553 0.5463 0.0
H1873 H 0.2619 0.94579 0.56262 0.0
H1874 H 0.25341 0.99505 0.5135 0.0
S1875 S 0.31375 0.06083 0.6356 0.0
N1876 N 0.30686 1.01893 0.64581 0.0
N1877 N 0.29993 0.07078 0.59118 0.0
C1878 C 0.28848 1.03971 0.5826 0.0
C1879 C 0.29254 1.01101 0.61253 0.0
C1880 C 0.51976 0.59825 0.38772 0.0
C1881 C 0.52598 0.63244 0.37189 0.0
C1882 C 0.51598 0.56797 0.36108 0.0
C1883 C 0.51826 0.56951 0.31663 0.0
H1884 H 0.51779 0.59465 0.42135 0.0
H1885 H 0.51081 0.5431 0.37572 0.0
S1886 S 0.53538 0.65161 0.25801 0.0
N1887 N 0.53459 0.66497 0.30751 0.0
N1888 N 0.52832 0.60887 0.25864 0.0
C1889 C 0.52467 0.60342 0.30039 0.0
C1890 C 0.5283 0.63434 0.32744 0.0
C1891 C 0.7596 0.78476 0.38842 0.0
C1892 C 0.76833 0.74955 0.3832 0.0
C1893 C 0.76441 0.81269 0.35906 0.0
C1894 C 0.77879 0.80782 0.32279 0.0
H1895 H 0.74825 0.7907 0.41503 0.0
H1896 H 0.75625 0.8384 0.36467 0.0
S1897 S 0.80847 0.72172 0.29621 0.0
N1898 N 0.79299 0.71208 0.33889 0.0
N1899 N 0.80349 0.76436 0.28636 0.0
C1900 C 0.78829 0.77291 0.31796 0.0
C1901 C 0.78276 0.74413 0.34725 0.0
C1902 C 0.4711 0.75062 0.92795 0.0
C1903 C 0.49274 0.7494 0.90486 0.0
C1904 C 0.46546 0.77924 0.95631 0.0
C1905 C 0.48117 0.80834 0.96359 0.0
H1906 H 0.45816 0.72951 0.9236 0.0
H1907 H 0.4484 0.77881 0.97219 0.0
S1908 S 0.54155 0.81574 0.91648 0.0
N1909 N 0.53071 0.77904 0.895 0.0
N1910 N 0.52037 0.83157 0.94732 0.0
C1911 C 0.50305 0.80673 0.94162 0.0
C1912 C 0.50874 0.77781 0.91282 0.0
C1913 C 0.75348 0.60897 0.90577 0.0
C1914 C 0.73618 0.63515 0.91613 0.0
C1915 C 0.759 0.57939 0.93255 0.0
C1916 C 0.74729 0.57311 0.97148 0.0
H1917 H 0.76309 0.61134 0.87638 0.0
H1918 H 0.77299 0.56176 0.92232 0.0
S1919 S 0.69981 0.63256 0.01396 0.0
N1920 N 0.70736 0.65216 0.96938 0.0
N1921 N 0.71678 0.59667 0.01794 0.0
C1922 C 0.72994 0.59919 0.98225 0.0
C1923 C 0.72464 0.62978 0.95531 0.0
C1924 C 0.49358 0.49688 0.68855 0.0
C1925 C 0.48067 0.5022 0.65045 0.0
C1926 C 0.4984 0.52514 0.7179 0.0
C1927 C 0.49002 0.56063 0.71198 0.0
H1928 H 0.50035 0.47049 0.6957 0.0
H1929 H 0.50909 0.51896 0.74535 0.0
S1930 S 0.45294 0.58871 0.62006 0.0
N1931 N 0.45882 0.5464 0.61008 0.0
N1932 N 0.46613 0.59769 0.66534 0.0
C1933 C 0.47652 0.56589 0.67451 0.0
C1934 C 0.47229 0.53746 0.64412 0.0
C1935 C 0.23437 0.35988 0.72341 0.0
C1936 C 0.22375 0.32682 0.71265 0.0
C1937 C 0.23925 0.38694 0.69275 0.0
C1938 C 0.23397 0.38269 0.6492 0.0
H1939 H 0.23963 0.3646 0.75575 0.0
H1940 H 0.24793 0.41115 0.70329 0.0
S1941 S 0.20309 0.30341 0.6045 0.0
N1942 N 0.2056 0.29385 0.65505 0.0
N1943 N 0.2156 0.34291 0.59836 0.0
C1944 C 0.22258 0.35027 0.63841 0.0
C1945 C 0.21728 0.32308 0.66962 0.0
C1946 C 0.50784 0.34337 0.13464 0.0
C1947 C 0.51604 0.37886 0.12971 0.0
C1948 C 0.51262 0.3159 0.10469 0.0
C1949 C 0.52662 0.32141 0.06807 0.0
H1950 H 0.49705 0.33678 0.16176 0.0
H1951 H 0.50486 0.28995 0.11028 0.0
S1952 S 0.5545 0.40882 0.04143 0.0
N1953 N 0.53945 0.41757 0.08487 0.0
N1954 N 0.55005 0.36614 0.03116 0.0
C1955 C 0.53541 0.35677 0.06323 0.0
C1956 C 0.52981 0.38513 0.09316 0.0
C1957 C 0.26929 0.54804 0.10347 0.0
C1958 C 0.27211 0.54635 0.05913 0.0
C1959 C 0.27331 0.51804 0.13052 0.0
C1960 C 0.28053 0.48404 0.11533 0.0
H1961 H 0.26348 0.5728 0.11765 0.0
H1962 H 0.27078 0.52175 0.164 0.0
S1963 S 0.29126 0.46453 1.00195 0.0
N1964 N 0.28335 0.50698 1.00187 0.0
N1965 N 0.29044 0.4515 0.05159 0.0
C1966 C 0.28345 0.48202 0.07101 0.0
C1967 C 0.27937 0.51261 0.04349 0.0
loop_
_geom_bond_atom_site_label_1
_geom_bond_atom_site_label_2
_geom_bond_distance
_geom_bond_site_symmetry_2
_ccdc_geom_bond_type
Co0 O3 1.970 . S
Co0 N17 1.989 . S
Co0 O25 1.967 . S
Co0 O32 1.920 . S
Co1 O4 1.966 . S
Co1 N10 2.022 . S
Co1 N18 1.993 . S
Co1 O26 1.941 . S
C2 O3 1.258 . S
C2 O4 1.263 . S
O3 Co0 1.970 . S
O3 C2 1.258 . S
O4 Co1 1.966 . S
O4 C2 1.263 . S
C5 O6 1.235 1_455 S
C5 O32 1.289 . S
O6 C5 1.235 1_655 S
C7 C9 1.400 . S
C7 N10 1.351 . S
C7 C12 1.487 1_455 S
C8 C9 1.387 . S
C8 N11 1.341 . S
C9 C7 1.400 . S
C9 C8 1.387 . S
N10 Co1 2.022 . S
N10 C7 1.351 . S
N10 N11 1.365 . S
N11 C8 1.341 . S
N11 N10 1.365 . S
N11 H31 0.862 . S
C12 C7 1.487 1_655 S
C12 H13 0.956 1_655 S
C12 H14 0.982 . S
C12 H15 0.958 1_655 S
H13 C12 0.956 1_455 S
H14 C12 0.982 . S
H15 C12 0.958 1_455 S
C16 N17 1.342 . S
C16 C20 1.401 . S
C16 C21 1.499 . S
N17 Co0 1.989 . S
N17 C16 1.342 . S
N17 N18 1.388 . S
N18 Co1 1.993 . S
N18 N17 1.388 . S
N18 C19 1.346 . S
C19 N18 1.346 . S
C19 C20 1.396 . S
C19 C29 1.510 . S
C20 C16 1.401 . S
C20 C19 1.396 . S
C21 C16 1.499 . S
C21 H22 0.959 . S
C21 H23 0.979 . S
C21 H24 0.961 . S
H22 C21 0.959 . S
H23 C21 0.979 . S
H24 C21 0.961 . S
O25 Co0 1.967 . S
O25 C33 1.258 . S
O26 Co1 1.941 . S
O26 C33 1.266 . S
H27 C29 0.959 . S
H28 C29 0.961 1_655 S
C29 C19 1.510 . S
C29 H27 0.959 . S
C29 H28 0.961 1_455 S
C29 H30 0.960 . S
H30 C29 0.960 . S
H31 N11 0.862 . S
O32 Co0 1.920 . S
O32 C5 1.289 . S
C33 O25 1.258 . S
C33 O26 1.266 . S
Co34 O37 1.970 . S
Co34 N51 1.989 . S
Co34 O59 1.967 . S
Co34 O66 1.920 . S
Co35 O38 1.966 . S
Co35 N44 2.022 . S
Co35 N52 1.993 . S
Co35 O60 1.941 . S
C36 O37 1.258 . S
C36 O38 1.263 . S
O37 Co34 1.970 . S
O37 C36 1.258 . S
O38 Co35 1.966 . S
O38 C36 1.263 . S
C39 O40 1.235 . S
C39 O66 1.289 . S
O40 C39 1.235 . S
C41 C43 1.400 . S
C41 N44 1.351 . S
C41 C46 1.501 . S
C42 C43 1.387 1_565 S
C42 N45 1.341 1_565 S
C43 C41 1.400 . S
C43 C42 1.387 1_545 S
N44 Co35 2.022 . S
N44 C41 1.351 . S
N44 N45 1.365 . S
N45 C42 1.341 1_545 S
N45 N44 1.365 . S
N45 H65 0.862 . S
C46 C41 1.501 . S
C46 H47 0.961 . S
C46 H48 0.961 . S
C46 H49 0.960 . S
H47 C46 0.961 . S
H48 C46 0.961 . S
H49 C46 0.960 . S
C50 N51 1.342 . S
C50 C54 1.401 . S
C50 C55 1.499 . S
N51 Co34 1.989 . S
N51 C50 1.342 . S
N51 N52 1.388 . S
N52 Co35 1.993 . S
N52 N51 1.388 . S
N52 C53 1.346 . S
C53 N52 1.346 . S
C53 C54 1.396 . S
C53 C63 1.510 1_545 S
C54 C50 1.401 . S
C54 C53 1.396 . S
C55 C50 1.499 . S
C55 H56 0.959 . S
C55 H57 0.960 . S
C55 H58 0.961 . S
H56 C55 0.959 . S
H57 C55 0.960 . S
H58 C55 0.961 . S
O59 Co34 1.967 . S
O59 C67 1.258 . S
O60 Co35 1.941 . S
O60 C67 1.266 . S
H61 C63 0.959 . S
H62 C63 0.961 . S
C63 C53 1.510 1_565 S
C63 H61 0.959 . S
C63 H62 0.961 . S
C63 H64 0.950 1_565 S
H64 C63 0.950 1_545 S
H65 N45 0.862 . S
O66 Co34 1.920 . S
O66 C39 1.289 . S
C67 O59 1.258 . S
C67 O60 1.266 . S
Co68 O71 1.970 . S
Co68 N85 1.989 . S
Co68 O93 1.967 . S
Co68 O100 1.920 . S
Co69 O72 1.966 . S
Co69 N78 2.022 . S
Co69 N86 1.993 . S
Co69 O94 1.941 . S
C70 O71 1.258 . S
C70 O72 1.263 . S
O71 Co68 1.970 . S
O71 C70 1.258 . S
O72 Co69 1.966 . S
O72 C70 1.263 . S
C73 O74 1.235 1_455 S
C73 O100 1.289 . S
O74 C73 1.235 1_655 S
C75 C77 1.400 . S
C75 N78 1.351 . S
C75 C80 1.487 1_455 S
C76 C77 1.387 1_565 S
C76 N79 1.341 1_565 S
C77 C75 1.400 . S
C77 C76 1.387 1_545 S
N78 Co69 2.022 . S
N78 C75 1.351 . S
N78 N79 1.365 . S
N79 C76 1.341 1_545 S
N79 N78 1.365 . S
N79 H99 0.862 . S
C80 C75 1.487 1_655 S
C80 H81 0.956 1_655 S
C80 H82 0.982 . S
C80 H83 0.958 1_655 S
H81 C80 0.956 1_455 S
H82 C80 0.982 . S
H83 C80 0.958 1_455 S
C84 N85 1.342 . S
C84 C88 1.401 . S
C84 C89 1.499 . S
N85 Co68 1.989 . S
N85 C84 1.342 . S
N85 N86 1.388 . S
N86 Co69 1.993 . S
N86 N85 1.388 . S
N86 C87 1.346 . S
C87 N86 1.346 . S
C87 C88 1.396 . S
C87 C97 1.510 1_545 S
C88 C84 1.401 . S
C88 C87 1.396 . S
C89 C84 1.499 . S
C89 H90 0.959 . S
C89 H91 0.979 . S
C89 H92 0.961 . S
H90 C89 0.959 . S
H91 C89 0.979 . S
H92 C89 0.961 . S
O93 Co68 1.967 . S
O93 C101 1.258 . S
O94 Co69 1.941 . S
O94 C101 1.266 . S
H95 C97 0.959 . S
H96 C97 0.961 1_655 S
C97 C87 1.510 1_565 S
C97 H95 0.959 . S
C97 H96 0.961 1_455 S
C97 H98 0.950 1_565 S
H98 C97 0.950 1_545 S
H99 N79 0.862 . S
O100 Co68 1.920 . S
O100 C73 1.289 . S
C101 O93 1.258 . S
C101 O94 1.266 . S
Co102 O105 1.970 . S
Co102 N119 1.989 . S
Co102 O127 1.967 . S
Co102 O134 1.920 . S
Co103 O106 1.966 . S
Co103 N112 2.022 . S
Co103 N120 1.993 . S
Co103 O128 1.941 . S
C104 O105 1.258 . S
C104 O106 1.263 . S
O105 Co102 1.970 . S
O105 C104 1.258 . S
O106 Co103 1.966 . S
O106 C104 1.263 . S
C107 O108 1.235 . S
C107 O134 1.289 . S
O108 C107 1.235 . S
C109 C111 1.400 . S
C109 N112 1.351 . S
C109 C114 1.501 . S
C110 C111 1.387 . S
C110 N113 1.341 . S
C111 C109 1.400 . S
C111 C110 1.387 . S
N112 Co103 2.022 . S
N112 C109 1.351 . S
N112 N113 1.365 . S
N113 C110 1.341 . S
N113 N112 1.365 . S
N113 H133 0.862 . S
C114 C109 1.501 . S
C114 H115 0.961 . S
C114 H116 0.961 . S
C114 H117 0.960 . S
H115 C114 0.961 . S
H116 C114 0.961 . S
H117 C114 0.960 . S
C118 N119 1.342 . S
C118 C122 1.401 . S
C118 C123 1.499 . S
N119 Co102 1.989 . S
N119 C118 1.342 . S
N119 N120 1.388 . S
N120 Co103 1.993 . S
N120 N119 1.388 . S
N120 C121 1.346 . S
C121 N120 1.346 . S
C121 C122 1.396 . S
C121 C131 1.510 . S
C122 C118 1.401 . S
C122 C121 1.396 . S
C123 C118 1.499 . S
C123 H124 0.959 . S
C123 H125 0.960 . S
C123 H126 0.961 . S
H124 C123 0.959 . S
H125 C123 0.960 . S
H126 C123 0.961 . S
O127 Co102 1.967 . S
O127 C135 1.258 . S
O128 Co103 1.941 . S
O128 C135 1.266 . S
H129 C131 0.959 . S
H130 C131 0.961 . S
C131 C121 1.510 . S
C131 H129 0.959 . S
C131 H130 0.961 . S
C131 H132 0.960 . S
H132 C131 0.960 . S
H133 N113 0.862 . S
O134 Co102 1.920 . S
O134 C107 1.289 . S
C135 O127 1.258 . S
C135 O128 1.266 . S
Co136 O139 1.970 . S
Co136 N153 1.989 . S
Co136 O161 1.967 . S
Co136 O168 1.920 . S
Co137 O140 1.966 . S
Co137 N146 2.022 . S
Co137 N154 1.993 . S
Co137 O162 1.941 . S
C138 O139 1.258 . S
C138 O140 1.263 . S
O139 Co136 1.970 . S
O139 C138 1.258 . S
O140 Co137 1.966 . S
O140 C138 1.263 . S
C141 O142 1.235 1_655 S
C141 O168 1.289 . S
O142 C141 1.235 1_455 S
C143 C145 1.400 . S
C143 N146 1.351 . S
C143 C148 1.487 1_655 S
C144 C145 1.387 . S
C144 N147 1.341 . S
C145 C143 1.400 . S
C145 C144 1.387 . S
N146 Co137 2.022 . S
N146 C143 1.351 . S
N146 N147 1.365 . S
N147 C144 1.341 . S
N147 N146 1.365 . S
N147 H167 0.862 . S
C148 C143 1.487 1_455 S
C148 H149 0.956 1_455 S
C148 H150 0.982 . S
C148 H151 0.958 1_455 S
H149 C148 0.956 1_655 S
H150 C148 0.982 . S
H151 C148 0.958 1_655 S
C152 N153 1.342 . S
C152 C156 1.401 . S
C152 C157 1.499 . S
N153 Co136 1.989 . S
N153 C152 1.342 . S
N153 N154 1.388 . S
N154 Co137 1.993 . S
N154 N153 1.388 . S
N154 C155 1.346 . S
C155 N154 1.346 . S
C155 C156 1.396 . S
C155 C165 1.510 . S
C156 C152 1.401 . S
C156 C155 1.396 . S
C157 C152 1.499 . S
C157 H158 0.959 . S
C157 H159 0.979 . S
C157 H160 0.961 . S
H158 C157 0.959 . S
H159 C157 0.979 . S
H160 C157 0.961 . S
O161 Co136 1.967 . S
O161 C169 1.258 . S
O162 Co137 1.941 . S
O162 C169 1.266 . S
H163 C165 0.959 . S
H164 C165 0.961 1_455 S
C165 C155 1.510 . S
C165 H163 0.959 . S
C165 H164 0.961 1_655 S
C165 H166 0.960 . S
H166 C165 0.960 . S
H167 N147 0.862 . S
O168 Co136 1.920 . S
O168 C141 1.289 . S
C169 O161 1.258 . S
C169 O162 1.266 . S
Co170 O173 1.970 . S
Co170 N187 1.989 . S
Co170 O195 1.967 . S
Co170 O202 1.920 . S
Co171 O174 1.966 . S
Co171 N180 2.022 . S
Co171 N188 1.993 . S
Co171 O196 1.941 . S
C172 O173 1.258 . S
C172 O174 1.263 . S
O173 Co170 1.970 . S
O173 C172 1.258 . S
O174 Co171 1.966 . S
O174 C172 1.263 . S
C175 O176 1.235 . S
C175 O202 1.289 . S
O176 C175 1.235 . S
C177 C179 1.400 . S
C177 N180 1.351 . S
C177 C182 1.501 . S
C178 C179 1.387 1_545 S
C178 N181 1.341 1_545 S
C179 C177 1.400 . S
C179 C178 1.387 1_565 S
N180 Co171 2.022 . S
N180 C177 1.351 . S
N180 N181 1.365 . S
N181 C178 1.341 1_565 S
N181 N180 1.365 . S
N181 H201 0.862 . S
C182 C177 1.501 . S
C182 H183 0.961 . S
C182 H184 0.961 . S
C182 H185 0.960 . S
H183 C182 0.961 . S
H184 C182 0.961 . S
H185 C182 0.960 . S
C186 N187 1.342 . S
C186 C190 1.401 . S
C186 C191 1.499 . S
N187 Co170 1.989 . S
N187 C186 1.342 . S
N187 N188 1.388 . S
N188 Co171 1.993 . S
N188 N187 1.388 . S
N188 C189 1.346 . S
C189 N188 1.346 . S
C189 C190 1.396 . S
C189 C199 1.510 1_565 S
C190 C186 1.401 . S
C190 C189 1.396 . S
C191 C186 1.499 . S
C191 H192 0.959 . S
C191 H193 0.960 . S
C191 H194 0.961 . S
H192 C191 0.959 . S
H193 C191 0.960 . S
H194 C191 0.961 . S
O195 Co170 1.967 . S
O195 C203 1.258 . S
O196 Co171 1.941 . S
O196 C203 1.266 . S
H197 C199 0.959 . S
H198 C199 0.961 . S
C199 C189 1.510 1_545 S
C199 H197 0.959 . S
C199 H198 0.961 . S
C199 H200 0.950 1_545 S
H200 C199 0.950 1_565 S
H201 N181 0.862 . S
O202 Co170 1.920 . S
O202 C175 1.289 . S
C203 O195 1.258 . S
C203 O196 1.266 . S
Co204 O207 1.970 . S
Co204 N221 1.989 . S
Co204 O229 1.967 . S
Co204 O236 1.920 . S
Co205 O208 1.966 . S
Co205 N214 2.022 . S
Co205 N222 1.993 . S
Co205 O230 1.941 . S
C206 O207 1.258 . S
C206 O208 1.263 . S
O207 Co204 1.970 . S
O207 C206 1.258 . S
O208 Co205 1.966 . S
O208 C206 1.263 . S
C209 O210 1.235 1_655 S
C209 O236 1.289 . S
O210 C209 1.235 1_455 S
C211 C213 1.400 . S
C211 N214 1.351 . S
C211 C216 1.487 1_655 S
C212 C213 1.387 1_545 S
C212 N215 1.341 1_545 S
C213 C211 1.400 . S
C213 C212 1.387 1_565 S
N214 Co205 2.022 . S
N214 C211 1.351 . S
N214 N215 1.365 . S
N215 C212 1.341 1_565 S
N215 N214 1.365 . S
N215 H235 0.862 . S
C216 C211 1.487 1_455 S
C216 H217 0.956 1_455 S
C216 H218 0.982 . S
C216 H219 0.958 1_455 S
H217 C216 0.956 1_655 S
H218 C216 0.982 . S
H219 C216 0.958 1_655 S
C220 N221 1.342 . S
C220 C224 1.401 . S
C220 C225 1.499 . S
N221 Co204 1.989 . S
N221 C220 1.342 . S
N221 N222 1.388 . S
N222 Co205 1.993 . S
N222 N221 1.388 . S
N222 C223 1.346 . S
C223 N222 1.346 . S
C223 C224 1.396 . S
C223 C233 1.510 1_565 S
C224 C220 1.401 . S
C224 C223 1.396 . S
C225 C220 1.499 . S
C225 H226 0.959 . S
C225 H227 0.979 . S
C225 H228 0.961 . S
H226 C225 0.959 . S
H227 C225 0.979 . S
H228 C225 0.961 . S
O229 Co204 1.967 . S
O229 C237 1.258 . S
O230 Co205 1.941 . S
O230 C237 1.266 . S
H231 C233 0.959 . S
H232 C233 0.961 1_455 S
C233 C223 1.510 1_545 S
C233 H231 0.959 . S
C233 H232 0.961 1_655 S
C233 H234 0.950 1_545 S
H234 C233 0.950 1_565 S
H235 N215 0.862 . S
O236 Co204 1.920 . S
O236 C209 1.289 . S
C237 O229 1.258 . S
C237 O230 1.266 . S
Co238 O241 1.970 . S
Co238 N255 1.989 . S
Co238 O263 1.967 . S
Co238 O270 1.920 . S
Co239 O242 1.966 . S
Co239 N248 2.022 . S
Co239 N256 1.993 . S
Co239 O264 1.941 . S
C240 O241 1.258 . S
C240 O242 1.263 . S
O241 Co238 1.970 . S
O241 C240 1.258 . S
O242 Co239 1.966 . S
O242 C240 1.263 . S
C243 O244 1.235 . S
C243 O270 1.289 . S
O244 C243 1.235 . S
C245 C247 1.400 . S
C245 N248 1.351 . S
C245 C250 1.501 . S
C246 C247 1.387 . S
C246 N249 1.341 . S
C247 C245 1.400 . S
C247 C246 1.387 . S
N248 Co239 2.022 . S
N248 C245 1.351 . S
N248 N249 1.365 . S
N249 C246 1.341 . S
N249 N248 1.365 . S
N249 H269 0.862 . S
C250 C245 1.501 . S
C250 H251 0.961 . S
C250 H252 0.961 . S
C250 H253 0.960 . S
H251 C250 0.961 . S
H252 C250 0.961 . S
H253 C250 0.960 . S
C254 N255 1.342 . S
C254 C258 1.401 . S
C254 C259 1.499 . S
N255 Co238 1.989 . S
N255 C254 1.342 . S
N255 N256 1.388 . S
N256 Co239 1.993 . S
N256 N255 1.388 . S
N256 C257 1.346 . S
C257 N256 1.346 . S
C257 C258 1.396 . S
C257 C267 1.510 . S
C258 C254 1.401 . S
C258 C257 1.396 . S
C259 C254 1.499 . S
C259 H260 0.959 . S
C259 H261 0.960 . S
C259 H262 0.961 . S
H260 C259 0.959 . S
H261 C259 0.960 . S
H262 C259 0.961 . S
O263 Co238 1.967 . S
O263 C271 1.258 . S
O264 Co239 1.941 . S
O264 C271 1.266 . S
H265 C267 0.959 . S
H266 C267 0.961 . S
C267 C257 1.510 . S
C267 H265 0.959 . S
C267 H266 0.961 . S
C267 H268 0.960 . S
H268 C267 0.960 . S
H269 N249 0.862 . S
O270 Co238 1.920 . S
O270 C243 1.289 . S
C271 O263 1.258 . S
C271 O264 1.266 . S
Co272 O275 1.970 . S
Co272 N289 1.989 . S
Co272 O297 1.967 . S
Co272 O304 1.920 1_556 S
Co273 O276 1.966 . S
Co273 N282 2.022 . S
Co273 N290 1.993 . S
Co273 O298 1.941 . S
C274 O275 1.258 . S
C274 O276 1.263 . S
O275 Co272 1.970 . S
O275 C274 1.258 . S
O276 Co273 1.966 . S
O276 C274 1.263 . S
C277 O278 1.235 1_455 S
C277 O304 1.289 . S
O278 C277 1.235 1_655 S
C279 C281 1.400 . S
C279 N282 1.351 . S
C279 C284 1.487 1_455 S
C280 C281 1.387 . S
C280 N283 1.341 . S
C281 C279 1.400 . S
C281 C280 1.387 . S
N282 Co273 2.022 . S
N282 C279 1.351 . S
N282 N283 1.365 . S
N283 C280 1.341 . S
N283 N282 1.365 . S
N283 H303 0.862 . S
C284 C279 1.487 1_655 S
C284 H285 0.956 1_655 S
C284 H286 0.982 . S
C284 H287 0.958 1_655 S
H285 C284 0.956 1_455 S
H286 C284 0.982 . S
H287 C284 0.958 1_455 S
C288 N289 1.342 1_554 S
C288 C292 1.401 . S
C288 C293 1.499 . S
N289 Co272 1.989 . S
N289 C288 1.342 1_556 S
N289 N290 1.388 . S
N290 Co273 1.993 . S
N290 N289 1.388 . S
N290 C291 1.346 . S
C291 N290 1.346 . S
C291 C292 1.396 1_556 S
C291 C301 1.510 . S
C292 C288 1.401 . S
C292 C291 1.396 1_554 S
C293 C288 1.499 . S
C293 H294 0.959 . S
C293 H295 0.979 . S
C293 H296 0.961 . S
H294 C293 0.959 . S
H295 C293 0.979 . S
H296 C293 0.961 . S
O297 Co272 1.967 . S
O297 C305 1.258 . S
O298 Co273 1.941 . S
O298 C305 1.266 . S
H299 C301 0.959 . S
H300 C301 0.961 1_655 S
C301 C291 1.510 . S
C301 H299 0.959 . S
C301 H300 0.961 1_455 S
C301 H302 0.960 . S
H302 C301 0.960 . S
H303 N283 0.862 . S
O304 Co272 1.920 1_554 S
O304 C277 1.289 . S
C305 O297 1.258 . S
C305 O298 1.266 . S
Co306 O309 1.970 . S
Co306 N323 1.989 . S
Co306 O331 1.967 . S
Co306 O338 1.920 1_556 S
Co307 O310 1.966 . S
Co307 N316 2.022 . S
Co307 N324 1.993 . S
Co307 O332 1.941 . S
C308 O309 1.258 . S
C308 O310 1.263 . S
O309 Co306 1.970 . S
O309 C308 1.258 . S
O310 Co307 1.966 . S
O310 C308 1.263 . S
C311 O312 1.235 . S
C311 O338 1.289 . S
O312 C311 1.235 . S
C313 C315 1.400 . S
C313 N316 1.351 . S
C313 C318 1.501 . S
C314 C315 1.387 . S
C314 N317 1.341 . S
C315 C313 1.400 . S
C315 C314 1.387 . S
N316 Co307 2.022 . S
N316 C313 1.351 . S
N316 N317 1.365 . S
N317 C314 1.341 . S
N317 N316 1.365 . S
N317 H337 0.862 . S
C318 C313 1.501 . S
C318 H319 0.961 . S
C318 H320 0.961 . S
C318 H321 0.960 . S
H319 C318 0.961 . S
H320 C318 0.961 . S
H321 C318 0.960 . S
C322 N323 1.342 1_554 S
C322 C326 1.401 . S
C322 C327 1.499 . S
N323 Co306 1.989 . S
N323 C322 1.342 1_556 S
N323 N324 1.388 . S
N324 Co307 1.993 . S
N324 N323 1.388 . S
N324 C325 1.346 . S
C325 N324 1.346 . S
C325 C326 1.396 1_556 S
C325 C335 1.510 . S
C326 C322 1.401 . S
C326 C325 1.396 1_554 S
C327 C322 1.499 . S
C327 H328 0.959 . S
C327 H329 0.960 . S
C327 H330 0.961 . S
H328 C327 0.959 . S
H329 C327 0.960 . S
H330 C327 0.961 . S
O331 Co306 1.967 . S
O331 C339 1.258 . S
O332 Co307 1.941 . S
O332 C339 1.266 . S
H333 C335 0.959 . S
H334 C335 0.961 . S
C335 C325 1.510 . S
C335 H333 0.959 . S
C335 H334 0.961 . S
C335 H336 0.960 . S
H336 C335 0.960 . S
H337 N317 0.862 . S
O338 Co306 1.920 1_554 S
O338 C311 1.289 . S
C339 O331 1.258 . S
C339 O332 1.266 . S
Co340 O343 1.970 . S
Co340 N357 1.989 . S
Co340 O365 1.967 . S
Co340 O372 1.920 . S
Co341 O344 1.966 . S
Co341 N350 2.022 . S
Co341 N358 1.993 . S
Co341 O366 1.941 . S
C342 O343 1.258 . S
C342 O344 1.263 . S
O343 Co340 1.970 . S
O343 C342 1.258 . S
O344 Co341 1.966 . S
O344 C342 1.263 . S
C345 O346 1.235 1_455 S
C345 O372 1.289 . S
O346 C345 1.235 1_655 S
C347 C349 1.400 . S
C347 N350 1.351 . S
C347 C352 1.487 1_455 S
C348 C349 1.387 . S
C348 N351 1.341 . S
C349 C347 1.400 . S
C349 C348 1.387 . S
N350 Co341 2.022 . S
N350 C347 1.351 . S
N350 N351 1.365 . S
N351 C348 1.341 . S
N351 N350 1.365 . S
N351 H371 0.862 . S
C352 C347 1.487 1_655 S
C352 H353 0.956 1_655 S
C352 H354 0.982 . S
C352 H355 0.958 1_655 S
H353 C352 0.956 1_455 S
H354 C352 0.982 . S
H355 C352 0.958 1_455 S
C356 N357 1.342 . S
C356 C360 1.401 . S
C356 C361 1.499 . S
N357 Co340 1.989 . S
N357 C356 1.342 . S
N357 N358 1.388 . S
N358 Co341 1.993 . S
N358 N357 1.388 . S
N358 C359 1.346 . S
C359 N358 1.346 . S
C359 C360 1.396 . S
C359 C369 1.510 . S
C360 C356 1.401 . S
C360 C359 1.396 . S
C361 C356 1.499 . S
C361 H362 0.959 . S
C361 H363 0.979 . S
C361 H364 0.961 . S
H362 C361 0.959 . S
H363 C361 0.979 . S
H364 C361 0.961 . S
O365 Co340 1.967 . S
O365 C373 1.258 . S
O366 Co341 1.941 . S
O366 C373 1.266 . S
H367 C369 0.959 . S
H368 C369 0.961 1_655 S
C369 C359 1.510 . S
C369 H367 0.959 . S
C369 H368 0.961 1_455 S
C369 H370 0.960 . S
H370 C369 0.960 . S
H371 N351 0.862 . S
O372 Co340 1.920 . S
O372 C345 1.289 . S
C373 O365 1.258 . S
C373 O366 1.266 . S
Co374 O377 1.970 . S
Co374 N391 1.989 . S
Co374 O399 1.967 . S
Co374 O406 1.920 . S
Co375 O378 1.966 . S
Co375 N384 2.022 . S
Co375 N392 1.993 . S
Co375 O400 1.941 . S
C376 O377 1.258 . S
C376 O378 1.263 . S
O377 Co374 1.970 . S
O377 C376 1.258 . S
O378 Co375 1.966 . S
O378 C376 1.263 . S
C379 O380 1.235 . S
C379 O406 1.289 . S
O380 C379 1.235 . S
C381 C383 1.400 . S
C381 N384 1.351 . S
C381 C386 1.501 . S
C382 C383 1.387 . S
C382 N385 1.341 . S
C383 C381 1.400 . S
C383 C382 1.387 . S
N384 Co375 2.022 . S
N384 C381 1.351 . S
N384 N385 1.365 . S
N385 C382 1.341 . S
N385 N384 1.365 . S
N385 H405 0.862 . S
C386 C381 1.501 . S
C386 H387 0.961 . S
C386 H388 0.961 . S
C386 H389 0.960 . S
H387 C386 0.961 . S
H388 C386 0.961 . S
H389 C386 0.960 . S
C390 N391 1.342 . S
C390 C394 1.401 . S
C390 C395 1.499 . S
N391 Co374 1.989 . S
N391 C390 1.342 . S
N391 N392 1.388 . S
N392 Co375 1.993 . S
N392 N391 1.388 . S
N392 C393 1.346 . S
C393 N392 1.346 . S
C393 C394 1.396 . S
C393 C403 1.510 . S
C394 C390 1.401 . S
C394 C393 1.396 . S
C395 C390 1.499 . S
C395 H396 0.959 . S
C395 H397 0.960 . S
C395 H398 0.961 . S
H396 C395 0.959 . S
H397 C395 0.960 . S
H398 C395 0.961 . S
O399 Co374 1.967 . S
O399 C407 1.258 . S
O400 Co375 1.941 . S
O400 C407 1.266 . S
H401 C403 0.959 . S
H402 C403 0.961 . S
C403 C393 1.510 . S
C403 H401 0.959 . S
C403 H402 0.961 . S
C403 H404 0.960 . S
H404 C403 0.960 . S
H405 N385 0.862 . S
O406 Co374 1.920 . S
O406 C379 1.289 . S
C407 O399 1.258 . S
C407 O400 1.266 . S
Co408 O411 1.970 . S
Co408 N425 1.989 . S
Co408 O433 1.967 . S
Co408 O440 1.920 1_554 S
Co409 O412 1.966 . S
Co409 N418 2.022 . S
Co409 N426 1.993 . S
Co409 O434 1.941 . S
C410 O411 1.258 . S
C410 O412 1.263 . S
O411 Co408 1.970 . S
O411 C410 1.258 . S
O412 Co409 1.966 . S
O412 C410 1.263 . S
C413 O414 1.235 1_655 S
C413 O440 1.289 . S
O414 C413 1.235 1_455 S
C415 C417 1.400 . S
C415 N418 1.351 . S
C415 C420 1.487 1_655 S
C416 C417 1.387 . S
C416 N419 1.341 . S
C417 C415 1.400 . S
C417 C416 1.387 . S
N418 Co409 2.022 . S
N418 C415 1.351 . S
N418 N419 1.365 . S
N419 C416 1.341 . S
N419 N418 1.365 . S
N419 H439 0.862 . S
C420 C415 1.487 1_455 S
C420 H421 0.956 1_455 S
C420 H422 0.982 . S
C420 H423 0.958 1_455 S
H421 C420 0.956 1_655 S
H422 C420 0.982 . S
H423 C420 0.958 1_655 S
C424 N425 1.342 1_556 S
C424 C428 1.401 . S
C424 C429 1.499 . S
N425 Co408 1.989 . S
N425 C424 1.342 1_554 S
N425 N426 1.388 . S
N426 Co409 1.993 . S
N426 N425 1.388 . S
N426 C427 1.346 . S
C427 N426 1.346 . S
C427 C428 1.396 1_554 S
C427 C437 1.510 . S
C428 C424 1.401 . S
C428 C427 1.396 1_556 S
C429 C424 1.499 . S
C429 H430 0.959 . S
C429 H431 0.979 . S
C429 H432 0.961 . S
H430 C429 0.959 . S
H431 C429 0.979 . S
H432 C429 0.961 . S
O433 Co408 1.967 . S
O433 C441 1.258 . S
O434 Co409 1.941 . S
O434 C441 1.266 . S
H435 C437 0.959 . S
H436 C437 0.961 1_455 S
C437 C427 1.510 . S
C437 H435 0.959 . S
C437 H436 0.961 1_655 S
C437 H438 0.960 . S
H438 C437 0.960 . S
H439 N419 0.862 . S
O440 Co408 1.920 1_556 S
O440 C413 1.289 . S
C441 O433 1.258 . S
C441 O434 1.266 . S
Co442 O445 1.970 . S
Co442 N459 1.989 . S
Co442 O467 1.967 . S
Co442 O474 1.920 1_554 S
Co443 O446 1.966 . S
Co443 N452 2.022 . S
Co443 N460 1.993 . S
Co443 O468 1.941 . S
C444 O445 1.258 . S
C444 O446 1.263 . S
O445 Co442 1.970 . S
O445 C444 1.258 . S
O446 Co443 1.966 . S
O446 C444 1.263 . S
C447 O448 1.235 . S
C447 O474 1.289 . S
O448 C447 1.235 . S
C449 C451 1.400 . S
C449 N452 1.351 . S
C449 C454 1.501 . S
C450 C451 1.387 . S
C450 N453 1.341 . S
C451 C449 1.400 . S
C451 C450 1.387 . S
N452 Co443 2.022 . S
N452 C449 1.351 . S
N452 N453 1.365 . S
N453 C450 1.341 . S
N453 N452 1.365 . S
N453 H473 0.862 . S
C454 C449 1.501 . S
C454 H455 0.961 . S
C454 H456 0.961 . S
C454 H457 0.960 . S
H455 C454 0.961 . S
H456 C454 0.961 . S
H457 C454 0.960 . S
C458 N459 1.342 1_556 S
C458 C462 1.401 . S
C458 C463 1.499 . S
N459 Co442 1.989 . S
N459 C458 1.342 1_554 S
N459 N460 1.388 . S
N460 Co443 1.993 . S
N460 N459 1.388 . S
N460 C461 1.346 . S
C461 N460 1.346 . S
C461 C462 1.396 1_554 S
C461 C471 1.510 . S
C462 C458 1.401 . S
C462 C461 1.396 1_556 S
C463 C458 1.499 . S
C463 H464 0.959 . S
C463 H465 0.960 . S
C463 H466 0.961 . S
H464 C463 0.959 . S
H465 C463 0.960 . S
H466 C463 0.961 . S
O467 Co442 1.967 . S
O467 C475 1.258 . S
O468 Co443 1.941 . S
O468 C475 1.266 . S
H469 C471 0.959 . S
H470 C471 0.961 . S
C471 C461 1.510 . S
C471 H469 0.959 . S
C471 H470 0.961 . S
C471 H472 0.960 . S
H472 C471 0.960 . S
H473 N453 0.862 . S
O474 Co442 1.920 1_556 S
O474 C447 1.289 . S
C475 O467 1.258 . S
C475 O468 1.266 . S
Co476 O479 1.970 . S
Co476 N493 1.989 . S
Co476 O501 1.967 . S
Co476 O508 1.920 . S
Co477 O480 1.966 . S
Co477 N486 2.022 . S
Co477 N494 1.993 . S
Co477 O502 1.941 . S
C478 O479 1.258 . S
C478 O480 1.263 . S
O479 Co476 1.970 . S
O479 C478 1.258 . S
O480 Co477 1.966 . S
O480 C478 1.263 . S
C481 O482 1.235 1_655 S
C481 O508 1.289 . S
O482 C481 1.235 1_455 S
C483 C485 1.400 . S
C483 N486 1.351 . S
C483 C488 1.487 1_655 S
C484 C485 1.387 . S
C484 N487 1.341 . S
C485 C483 1.400 . S
C485 C484 1.387 . S
N486 Co477 2.022 . S
N486 C483 1.351 . S
N486 N487 1.365 . S
N487 C484 1.341 . S
N487 N486 1.365 . S
N487 H507 0.862 . S
C488 C483 1.487 1_455 S
C488 H489 0.956 1_455 S
C488 H490 0.982 . S
C488 H491 0.958 1_455 S
H489 C488 0.956 1_655 S
H490 C488 0.982 . S
H491 C488 0.958 1_655 S
C492 N493 1.342 . S
C492 C496 1.401 . S
C492 C497 1.499 . S
N493 Co476 1.989 . S
N493 C492 1.342 . S
N493 N494 1.388 . S
N494 Co477 1.993 . S
N494 N493 1.388 . S
N494 C495 1.346 . S
C495 N494 1.346 . S
C495 C496 1.396 . S
C495 C505 1.510 . S
C496 C492 1.401 . S
C496 C495 1.396 . S
C497 C492 1.499 . S
C497 H498 0.959 . S
C497 H499 0.979 . S
C497 H500 0.961 . S
H498 C497 0.959 . S
H499 C497 0.979 . S
H500 C497 0.961 . S
O501 Co476 1.967 . S
O501 C509 1.258 . S
O502 Co477 1.941 . S
O502 C509 1.266 . S
H503 C505 0.959 . S
H504 C505 0.961 1_455 S
C505 C495 1.510 . S
C505 H503 0.959 . S
C505 H504 0.961 1_655 S
C505 H506 0.960 . S
H506 C505 0.960 . S
H507 N487 0.862 . S
O508 Co476 1.920 . S
O508 C481 1.289 . S
C509 O501 1.258 . S
C509 O502 1.266 . S
Co510 O513 1.970 . S
Co510 N527 1.989 . S
Co510 O535 1.967 . S
Co510 O542 1.920 . S
Co511 O514 1.966 . S
Co511 N520 2.022 . S
Co511 N528 1.993 . S
Co511 O536 1.941 . S
C512 O513 1.258 . S
C512 O514 1.263 . S
O513 Co510 1.970 . S
O513 C512 1.258 . S
O514 Co511 1.966 . S
O514 C512 1.263 . S
C515 O516 1.235 . S
C515 O542 1.289 . S
O516 C515 1.235 . S
C517 C519 1.400 . S
C517 N520 1.351 . S
C517 C522 1.501 . S
C518 C519 1.387 . S
C518 N521 1.341 . S
C519 C517 1.400 . S
C519 C518 1.387 . S
N520 Co511 2.022 . S
N520 C517 1.351 . S
N520 N521 1.365 . S
N521 C518 1.341 . S
N521 N520 1.365 . S
N521 H541 0.862 . S
C522 C517 1.501 . S
C522 H523 0.961 . S
C522 H524 0.961 . S
C522 H525 0.960 . S
H523 C522 0.961 . S
H524 C522 0.961 . S
H525 C522 0.960 . S
C526 N527 1.342 . S
C526 C530 1.401 . S
C526 C531 1.499 . S
N527 Co510 1.989 . S
N527 C526 1.342 . S
N527 N528 1.388 . S
N528 Co511 1.993 . S
N528 N527 1.388 . S
N528 C529 1.346 . S
C529 N528 1.346 . S
C529 C530 1.396 . S
C529 C539 1.510 . S
C530 C526 1.401 . S
C530 C529 1.396 . S
C531 C526 1.499 . S
C531 H532 0.959 . S
C531 H533 0.960 . S
C531 H534 0.961 . S
H532 C531 0.959 . S
H533 C531 0.960 . S
H534 C531 0.961 . S
O535 Co510 1.967 . S
O535 C543 1.258 . S
O536 Co511 1.941 . S
O536 C543 1.266 . S
H537 C539 0.959 . S
H538 C539 0.961 . S
C539 C529 1.510 . S
C539 H537 0.959 . S
C539 H538 0.961 . S
C539 H540 0.960 . S
H540 C539 0.960 . S
H541 N521 0.862 . S
O542 Co510 1.920 . S
O542 C515 1.289 . S
C543 O535 1.258 . S
C543 O536 1.266 . S
Co544 O547 1.970 . S
Co544 N561 1.989 . S
Co544 O569 1.967 . S
Co544 O576 1.920 1_556 S
Co545 O548 1.966 . S
Co545 N554 2.022 . S
Co545 N562 1.993 . S
Co545 O570 1.941 . S
C546 O547 1.258 . S
C546 O548 1.263 . S
O547 Co544 1.970 . S
O547 C546 1.258 . S
O548 Co545 1.966 . S
O548 C546 1.263 . S
C549 O550 1.235 . S
C549 O576 1.289 . S
O550 C549 1.235 . S
C551 C553 1.400 . S
C551 N554 1.351 . S
C551 C556 1.501 . S
C552 C553 1.387 . S
C552 N555 1.341 . S
C553 C551 1.400 . S
C553 C552 1.387 . S
N554 Co545 2.022 . S
N554 C551 1.351 . S
N554 N555 1.365 . S
N555 C552 1.341 . S
N555 N554 1.365 . S
N555 H575 0.862 . S
C556 C551 1.501 . S
C556 H557 0.961 . S
C556 H558 0.961 . S
C556 H559 0.960 . S
H557 C556 0.961 . S
H558 C556 0.961 . S
H559 C556 0.960 . S
C560 N561 1.342 1_554 S
C560 C564 1.401 . S
C560 C565 1.499 . S
N561 Co544 1.989 . S
N561 C560 1.342 1_556 S
N561 N562 1.388 . S
N562 Co545 1.993 . S
N562 N561 1.388 . S
N562 C563 1.346 . S
C563 N562 1.346 . S
C563 C564 1.396 1_556 S
C563 C573 1.510 . S
C564 C560 1.401 . S
C564 C563 1.396 1_554 S
C565 C560 1.499 . S
C565 H566 0.959 . S
C565 H567 0.960 . S
C565 H568 0.961 . S
H566 C565 0.959 . S
H567 C565 0.960 . S
H568 C565 0.961 . S
O569 Co544 1.967 . S
O569 C577 1.258 . S
O570 Co545 1.941 . S
O570 C577 1.266 . S
H571 C573 0.959 . S
H572 C573 0.961 . S
C573 C563 1.510 . S
C573 H571 0.959 . S
C573 H572 0.961 . S
C573 H574 0.960 . S
H574 C573 0.960 . S
H575 N555 0.862 . S
O576 Co544 1.920 1_554 S
O576 C549 1.289 . S
C577 O569 1.258 . S
C577 O570 1.266 . S
Co578 O581 1.970 . S
Co578 N595 1.989 . S
Co578 O603 1.967 . S
Co578 O610 1.920 1_556 S
Co579 O582 1.966 . S
Co579 N588 2.022 . S
Co579 N596 1.993 . S
Co579 O604 1.941 . S
C580 O581 1.258 . S
C580 O582 1.263 . S
O581 Co578 1.970 . S
O581 C580 1.258 . S
O582 Co579 1.966 . S
O582 C580 1.263 . S
C583 O584 1.235 . S
C583 O610 1.289 . S
O584 C583 1.235 . S
C585 C587 1.400 . S
C585 N588 1.351 . S
C585 C590 1.501 . S
C586 C587 1.387 1_565 S
C586 N589 1.341 1_565 S
C587 C585 1.400 . S
C587 C586 1.387 1_545 S
N588 Co579 2.022 . S
N588 C585 1.351 . S
N588 N589 1.365 . S
N589 C586 1.341 1_545 S
N589 N588 1.365 . S
N589 H609 0.862 . S
C590 C585 1.501 . S
C590 H591 0.961 . S
C590 H592 0.961 . S
C590 H593 0.960 . S
H591 C590 0.961 . S
H592 C590 0.961 . S
H593 C590 0.960 . S
C594 N595 1.342 1_554 S
C594 C598 1.401 . S
C594 C599 1.499 . S
N595 Co578 1.989 . S
N595 C594 1.342 1_556 S
N595 N596 1.388 . S
N596 Co579 1.993 . S
N596 N595 1.388 . S
N596 C597 1.346 . S
C597 N596 1.346 . S
C597 C598 1.396 1_556 S
C597 C607 1.510 1_545 S
C598 C594 1.401 . S
C598 C597 1.396 1_554 S
C599 C594 1.499 . S
C599 H600 0.959 . S
C599 H601 0.960 . S
C599 H602 0.961 . S
H600 C599 0.959 . S
H601 C599 0.960 . S
H602 C599 0.961 . S
O603 Co578 1.967 . S
O603 C611 1.258 . S
O604 Co579 1.941 . S
O604 C611 1.266 . S
H605 C607 0.959 . S
H606 C607 0.961 . S
C607 C597 1.510 1_565 S
C607 H605 0.959 . S
C607 H606 0.961 . S
C607 H608 0.950 1_565 S
H608 C607 0.950 1_545 S
H609 N589 0.862 . S
O610 Co578 1.920 1_554 S
O610 C583 1.289 . S
C611 O603 1.258 . S
C611 O604 1.266 . S
Co612 O615 1.970 . S
Co612 N629 1.989 . S
Co612 O637 1.967 . S
Co612 O644 1.920 . S
Co613 O616 1.966 . S
Co613 N622 2.022 . S
Co613 N630 1.993 . S
Co613 O638 1.941 . S
C614 O615 1.258 . S
C614 O616 1.263 . S
O615 Co612 1.970 . S
O615 C614 1.258 . S
O616 Co613 1.966 . S
O616 C614 1.263 . S
C617 O618 1.235 . S
C617 O644 1.289 . S
O618 C617 1.235 . S
C619 C621 1.400 . S
C619 N622 1.351 . S
C619 C624 1.501 . S
C620 C621 1.387 1_565 S
C620 N623 1.341 1_565 S
C621 C619 1.400 . S
C621 C620 1.387 1_545 S
N622 Co613 2.022 . S
N622 C619 1.351 . S
N622 N623 1.365 . S
N623 C620 1.341 1_545 S
N623 N622 1.365 . S
N623 H643 0.862 . S
C624 C619 1.501 . S
C624 H625 0.961 . S
C624 H626 0.961 . S
C624 H627 0.960 . S
H625 C624 0.961 . S
H626 C624 0.961 . S
H627 C624 0.960 . S
C628 N629 1.342 . S
C628 C632 1.401 . S
C628 C633 1.499 . S
N629 Co612 1.989 . S
N629 C628 1.342 . S
N629 N630 1.388 . S
N630 Co613 1.993 . S
N630 N629 1.388 . S
N630 C631 1.346 . S
C631 N630 1.346 . S
C631 C632 1.396 . S
C631 C641 1.510 1_545 S
C632 C628 1.401 . S
C632 C631 1.396 . S
C633 C628 1.499 . S
C633 H634 0.959 . S
C633 H635 0.960 . S
C633 H636 0.961 . S
H634 C633 0.959 . S
H635 C633 0.960 . S
H636 C633 0.961 . S
O637 Co612 1.967 . S
O637 C645 1.258 . S
O638 Co613 1.941 . S
O638 C645 1.266 . S
H639 C641 0.959 . S
H640 C641 0.961 . S
C641 C631 1.510 1_565 S
C641 H639 0.959 . S
C641 H640 0.961 . S
C641 H642 0.950 1_565 S
H642 C641 0.950 1_545 S
H643 N623 0.862 . S
O644 Co612 1.920 . S
O644 C617 1.289 . S
C645 O637 1.258 . S
C645 O638 1.266 . S
Co646 O649 1.970 . S
Co646 N663 1.989 . S
Co646 O671 1.967 . S
Co646 O678 1.920 . S
Co647 O650 1.966 . S
Co647 N656 2.022 . S
Co647 N664 1.993 . S
Co647 O672 1.941 . S
C648 O649 1.258 . S
C648 O650 1.263 . S
O649 Co646 1.970 . S
O649 C648 1.258 . S
O650 Co647 1.966 . S
O650 C648 1.263 . S
C651 O652 1.235 . S
C651 O678 1.289 . S
O652 C651 1.235 . S
C653 C655 1.400 . S
C653 N656 1.351 . S
C653 C658 1.501 . S
C654 C655 1.387 . S
C654 N657 1.341 . S
C655 C653 1.400 . S
C655 C654 1.387 . S
N656 Co647 2.022 . S
N656 C653 1.351 . S
N656 N657 1.365 . S
N657 C654 1.341 . S
N657 N656 1.365 . S
N657 H677 0.862 . S
C658 C653 1.501 . S
C658 H659 0.961 . S
C658 H660 0.961 . S
C658 H661 0.960 . S
H659 C658 0.961 . S
H660 C658 0.961 . S
H661 C658 0.960 . S
C662 N663 1.342 . S
C662 C666 1.401 . S
C662 C667 1.499 . S
N663 Co646 1.989 . S
N663 C662 1.342 . S
N663 N664 1.388 . S
N664 Co647 1.993 . S
N664 N663 1.388 . S
N664 C665 1.346 . S
C665 N664 1.346 . S
C665 C666 1.396 . S
C665 C675 1.510 . S
C666 C662 1.401 . S
C666 C665 1.396 . S
C667 C662 1.499 . S
C667 H668 0.959 . S
C667 H669 0.960 . S
C667 H670 0.961 . S
H668 C667 0.959 . S
H669 C667 0.960 . S
H670 C667 0.961 . S
O671 Co646 1.967 . S
O671 C679 1.258 . S
O672 Co647 1.941 . S
O672 C679 1.266 . S
H673 C675 0.959 . S
H674 C675 0.961 . S
C675 C665 1.510 . S
C675 H673 0.959 . S
C675 H674 0.961 . S
C675 H676 0.960 . S
H676 C675 0.960 . S
H677 N657 0.862 . S
O678 Co646 1.920 . S
O678 C651 1.289 . S
C679 O671 1.258 . S
C679 O672 1.266 . S
Co680 O683 1.970 . S
Co680 N697 1.989 . S
Co680 O705 1.967 . S
Co680 O712 1.920 1_554 S
Co681 O684 1.966 . S
Co681 N690 2.022 . S
Co681 N698 1.993 . S
Co681 O706 1.941 . S
C682 O683 1.258 . S
C682 O684 1.263 . S
O683 Co680 1.970 . S
O683 C682 1.258 . S
O684 Co681 1.966 . S
O684 C682 1.263 . S
C685 O686 1.235 . S
C685 O712 1.289 . S
O686 C685 1.235 . S
C687 C689 1.400 . S
C687 N690 1.351 . S
C687 C692 1.501 . S
C688 C689 1.387 . S
C688 N691 1.341 . S
C689 C687 1.400 . S
C689 C688 1.387 . S
N690 Co681 2.022 . S
N690 C687 1.351 . S
N690 N691 1.365 . S
N691 C688 1.341 . S
N691 N690 1.365 . S
N691 H711 0.862 . S
C692 C687 1.501 . S
C692 H693 0.961 . S
C692 H694 0.961 . S
C692 H695 0.960 . S
H693 C692 0.961 . S
H694 C692 0.961 . S
H695 C692 0.960 . S
C696 N697 1.342 1_556 S
C696 C700 1.401 . S
C696 C701 1.499 . S
N697 Co680 1.989 . S
N697 C696 1.342 1_554 S
N697 N698 1.388 . S
N698 Co681 1.993 . S
N698 N697 1.388 . S
N698 C699 1.346 . S
C699 N698 1.346 . S
C699 C700 1.396 1_554 S
C699 C709 1.510 . S
C700 C696 1.401 . S
C700 C699 1.396 1_556 S
C701 C696 1.499 . S
C701 H702 0.959 . S
C701 H703 0.960 . S
C701 H704 0.961 . S
H702 C701 0.959 . S
H703 C701 0.960 . S
H704 C701 0.961 . S
O705 Co680 1.967 . S
O705 C713 1.258 . S
O706 Co681 1.941 . S
O706 C713 1.266 . S
H707 C709 0.959 . S
H708 C709 0.961 . S
C709 C699 1.510 . S
C709 H707 0.959 . S
C709 H708 0.961 . S
C709 H710 0.960 . S
H710 C709 0.960 . S
H711 N691 0.862 . S
O712 Co680 1.920 1_556 S
O712 C685 1.289 . S
C713 O705 1.258 . S
C713 O706 1.266 . S
Co714 O717 1.970 . S
Co714 N731 1.989 . S
Co714 O739 1.967 . S
Co714 O746 1.920 1_554 S
Co715 O718 1.966 . S
Co715 N724 2.022 . S
Co715 N732 1.993 . S
Co715 O740 1.941 . S
C716 O717 1.258 . S
C716 O718 1.263 . S
O717 Co714 1.970 . S
O717 C716 1.258 . S
O718 Co715 1.966 . S
O718 C716 1.263 . S
C719 O720 1.235 . S
C719 O746 1.289 . S
O720 C719 1.235 . S
C721 C723 1.400 . S
C721 N724 1.351 . S
C721 C726 1.501 . S
C722 C723 1.387 1_545 S
C722 N725 1.341 1_545 S
C723 C721 1.400 . S
C723 C722 1.387 1_565 S
N724 Co715 2.022 . S
N724 C721 1.351 . S
N724 N725 1.365 . S
N725 C722 1.341 1_565 S
N725 N724 1.365 . S
N725 H745 0.862 . S
C726 C721 1.501 . S
C726 H727 0.961 . S
C726 H728 0.961 . S
C726 H729 0.960 . S
H727 C726 0.961 . S
H728 C726 0.961 . S
H729 C726 0.960 . S
C730 N731 1.342 1_556 S
C730 C734 1.401 . S
C730 C735 1.499 . S
N731 Co714 1.989 . S
N731 C730 1.342 1_554 S
N731 N732 1.388 . S
N732 Co715 1.993 . S
N732 N731 1.388 . S
N732 C733 1.346 . S
C733 N732 1.346 . S
C733 C734 1.396 1_554 S
C733 C743 1.510 1_565 S
C734 C730 1.401 . S
C734 C733 1.396 1_556 S
C735 C730 1.499 . S
C735 H736 0.959 . S
C735 H737 0.960 . S
C735 H738 0.961 . S
H736 C735 0.959 . S
H737 C735 0.960 . S
H738 C735 0.961 . S
O739 Co714 1.967 . S
O739 C747 1.258 . S
O740 Co715 1.941 . S
O740 C747 1.266 . S
H741 C743 0.959 . S
H742 C743 0.961 . S
C743 C733 1.510 1_545 S
C743 H741 0.959 . S
C743 H742 0.961 . S
C743 H744 0.950 1_545 S
H744 C743 0.950 1_565 S
H745 N725 0.862 . S
O746 Co714 1.920 1_556 S
O746 C719 1.289 . S
C747 O739 1.258 . S
C747 O740 1.266 . S
Co748 O751 1.970 . S
Co748 N765 1.989 . S
Co748 O773 1.967 . S
Co748 O780 1.920 . S
Co749 O752 1.966 . S
Co749 N758 2.022 . S
Co749 N766 1.993 . S
Co749 O774 1.941 . S
C750 O751 1.258 . S
C750 O752 1.263 . S
O751 Co748 1.970 . S
O751 C750 1.258 . S
O752 Co749 1.966 . S
O752 C750 1.263 . S
C753 O754 1.235 . S
C753 O780 1.289 . S
O754 C753 1.235 . S
C755 C757 1.400 . S
C755 N758 1.351 . S
C755 C760 1.501 . S
C756 C757 1.387 1_545 S
C756 N759 1.341 1_545 S
C757 C755 1.400 . S
C757 C756 1.387 1_565 S
N758 Co749 2.022 . S
N758 C755 1.351 . S
N758 N759 1.365 . S
N759 C756 1.341 1_565 S
N759 N758 1.365 . S
N759 H779 0.862 . S
C760 C755 1.501 . S
C760 H761 0.961 . S
C760 H762 0.961 . S
C760 H763 0.960 . S
H761 C760 0.961 . S
H762 C760 0.961 . S
H763 C760 0.960 . S
C764 N765 1.342 . S
C764 C768 1.401 . S
C764 C769 1.499 . S
N765 Co748 1.989 . S
N765 C764 1.342 . S
N765 N766 1.388 . S
N766 Co749 1.993 . S
N766 N765 1.388 . S
N766 C767 1.346 . S
C767 N766 1.346 . S
C767 C768 1.396 . S
C767 C777 1.510 1_565 S
C768 C764 1.401 . S
C768 C767 1.396 . S
C769 C764 1.499 . S
C769 H770 0.959 . S
C769 H771 0.960 . S
C769 H772 0.961 . S
H770 C769 0.959 . S
H771 C769 0.960 . S
H772 C769 0.961 . S
O773 Co748 1.967 . S
O773 C781 1.258 . S
O774 Co749 1.941 . S
O774 C781 1.266 . S
H775 C777 0.959 . S
H776 C777 0.961 . S
C777 C767 1.510 1_545 S
C777 H775 0.959 . S
C777 H776 0.961 . S
C777 H778 0.950 1_545 S
H778 C777 0.950 1_565 S
H779 N759 0.862 . S
O780 Co748 1.920 . S
O780 C753 1.289 . S
C781 O773 1.258 . S
C781 O774 1.266 . S
Co782 O785 1.970 . S
Co782 N799 1.989 . S
Co782 O807 1.967 . S
Co782 O814 1.920 . S
Co783 O786 1.966 . S
Co783 N792 2.022 . S
Co783 N800 1.993 . S
Co783 O808 1.941 . S
C784 O785 1.258 . S
C784 O786 1.263 . S
O785 Co782 1.970 . S
O785 C784 1.258 . S
O786 Co783 1.966 . S
O786 C784 1.263 . S
C787 O788 1.235 . S
C787 O814 1.289 . S
O788 C787 1.235 . S
C789 C791 1.400 . S
C789 N792 1.351 . S
C789 C794 1.501 . S
C790 C791 1.387 . S
C790 N793 1.341 . S
C791 C789 1.400 . S
C791 C790 1.387 . S
N792 Co783 2.022 . S
N792 C789 1.351 . S
N792 N793 1.365 . S
N793 C790 1.341 . S
N793 N792 1.365 . S
N793 H813 0.862 . S
C794 C789 1.501 . S
C794 H795 0.961 . S
C794 H796 0.961 . S
C794 H797 0.960 . S
H795 C794 0.961 . S
H796 C794 0.961 . S
H797 C794 0.960 . S
C798 N799 1.342 . S
C798 C802 1.401 . S
C798 C803 1.499 . S
N799 Co782 1.989 . S
N799 C798 1.342 . S
N799 N800 1.388 . S
N800 Co783 1.993 . S
N800 N799 1.388 . S
N800 C801 1.346 . S
C801 N800 1.346 . S
C801 C802 1.396 . S
C801 C811 1.510 . S
C802 C798 1.401 . S
C802 C801 1.396 . S
C803 C798 1.499 . S
C803 H804 0.959 . S
C803 H805 0.960 . S
C803 H806 0.961 . S
H804 C803 0.959 . S
H805 C803 0.960 . S
H806 C803 0.961 . S
O807 Co782 1.967 . S
O807 C815 1.258 . S
O808 Co783 1.941 . S
O808 C815 1.266 . S
H809 C811 0.959 . S
H810 C811 0.961 . S
C811 C801 1.510 . S
C811 H809 0.959 . S
C811 H810 0.961 . S
C811 H812 0.960 . S
H812 C811 0.960 . S
H813 N793 0.862 . S
O814 Co782 1.920 . S
O814 C787 1.289 . S
C815 O807 1.258 . S
C815 O808 1.266 . S
Co816 O819 1.970 . S
Co816 N833 1.989 . S
Co816 O841 1.967 . S
Co816 O848 1.920 . S
Co817 O820 1.966 . S
Co817 N826 2.022 . S
Co817 N834 1.993 . S
Co817 O842 1.941 . S
C818 O819 1.258 . S
C818 O820 1.263 . S
O819 Co816 1.970 . S
O819 C818 1.258 . S
O820 Co817 1.966 . S
O820 C818 1.263 . S
C821 O822 1.235 . S
C821 O848 1.289 . S
O822 C821 1.235 . S
C823 C825 1.400 . S
C823 N826 1.351 . S
C823 C828 1.501 . S
C824 C825 1.387 . S
C824 N827 1.341 . S
C825 C823 1.400 . S
C825 C824 1.387 . S
N826 Co817 2.022 . S
N826 C823 1.351 . S
N826 N827 1.365 . S
N827 C824 1.341 . S
N827 N826 1.365 . S
N827 H847 0.862 . S
C828 C823 1.501 . S
C828 H829 0.961 . S
C828 H830 0.961 . S
C828 H831 0.960 . S
H829 C828 0.961 . S
H830 C828 0.961 . S
H831 C828 0.960 . S
C832 N833 1.342 . S
C832 C836 1.401 . S
C832 C837 1.499 . S
N833 Co816 1.989 . S
N833 C832 1.342 . S
N833 N834 1.388 . S
N834 Co817 1.993 . S
N834 N833 1.388 . S
N834 C835 1.346 . S
C835 N834 1.346 . S
C835 C836 1.396 . S
C835 C845 1.510 . S
C836 C832 1.401 . S
C836 C835 1.396 . S
C837 C832 1.499 . S
C837 H838 0.959 . S
C837 H839 0.960 . S
C837 H840 0.961 . S
H838 C837 0.959 . S
H839 C837 0.960 . S
H840 C837 0.961 . S
O841 Co816 1.967 . S
O841 C849 1.258 . S
O842 Co817 1.941 . S
O842 C849 1.266 . S
H843 C845 0.959 . S
H844 C845 0.961 . S
C845 C835 1.510 . S
C845 H843 0.959 . S
C845 H844 0.961 . S
C845 H846 0.960 . S
H846 C845 0.960 . S
H847 N827 0.862 . S
O848 Co816 1.920 . S
O848 C821 1.289 . S
C849 O841 1.258 . S
C849 O842 1.266 . S
Co850 O853 1.970 . S
Co850 N867 1.989 . S
Co850 O875 1.967 . S
Co850 O882 1.920 . S
Co851 O854 1.966 . S
Co851 N860 2.022 . S
Co851 N868 1.993 . S
Co851 O876 1.941 . S
C852 O853 1.258 . S
C852 O854 1.263 . S
O853 Co850 1.970 . S
O853 C852 1.258 . S
O854 Co851 1.966 . S
O854 C852 1.263 . S
C855 O856 1.235 . S
C855 O882 1.289 . S
O856 C855 1.235 . S
C857 C859 1.400 . S
C857 N860 1.351 . S
C857 C862 1.501 . S
C858 C859 1.387 . S
C858 N861 1.341 . S
C859 C857 1.400 . S
C859 C858 1.387 . S
N860 Co851 2.022 . S
N860 C857 1.351 . S
N860 N861 1.365 . S
N861 C858 1.341 . S
N861 N860 1.365 . S
N861 H881 0.862 . S
C862 C857 1.501 . S
C862 H863 0.961 . S
C862 H864 0.961 . S
C862 H865 0.960 . S
H863 C862 0.961 . S
H864 C862 0.961 . S
H865 C862 0.960 . S
C866 N867 1.342 . S
C866 C870 1.401 . S
C866 C871 1.499 . S
N867 Co850 1.989 . S
N867 C866 1.342 . S
N867 N868 1.388 . S
N868 Co851 1.993 . S
N868 N867 1.388 . S
N868 C869 1.346 . S
C869 N868 1.346 . S
C869 C870 1.396 . S
C869 C879 1.510 . S
C870 C866 1.401 . S
C870 C869 1.396 . S
C871 C866 1.499 . S
C871 H872 0.959 . S
C871 H873 0.960 . S
C871 H874 0.961 . S
H872 C871 0.959 . S
H873 C871 0.960 . S
H874 C871 0.961 . S
O875 Co850 1.967 . S
O875 C883 1.258 . S
O876 Co851 1.941 . S
O876 C883 1.266 . S
H877 C879 0.959 . S
H878 C879 0.961 . S
C879 C869 1.510 . S
C879 H877 0.959 . S
C879 H878 0.961 . S
C879 H880 0.960 . S
H880 C879 0.960 . S
H881 N861 0.862 . S
O882 Co850 1.920 . S
O882 C855 1.289 . S
C883 O875 1.258 . S
C883 O876 1.266 . S
Co884 O887 1.970 . S
Co884 N901 1.989 . S
Co884 O909 1.967 . S
Co884 O916 1.920 . S
Co885 O888 1.966 . S
Co885 N894 2.022 . S
Co885 N902 1.993 . S
Co885 O910 1.941 . S
C886 O887 1.258 . S
C886 O888 1.263 . S
O887 Co884 1.970 . S
O887 C886 1.258 . S
O888 Co885 1.966 . S
O888 C886 1.263 . S
C889 O890 1.235 . S
C889 O916 1.289 . S
O890 C889 1.235 . S
C891 C893 1.400 . S
C891 N894 1.351 . S
C891 C896 1.501 . S
C892 C893 1.387 . S
C892 N895 1.341 . S
C893 C891 1.400 . S
C893 C892 1.387 . S
N894 Co885 2.022 . S
N894 C891 1.351 . S
N894 N895 1.365 . S
N895 C892 1.341 . S
N895 N894 1.365 . S
N895 H915 0.862 . S
C896 C891 1.501 . S
C896 H897 0.961 . S
C896 H898 0.961 . S
C896 H899 0.960 . S
H897 C896 0.961 . S
H898 C896 0.961 . S
H899 C896 0.960 . S
C900 N901 1.342 . S
C900 C904 1.401 . S
C900 C905 1.499 . S
N901 Co884 1.989 . S
N901 C900 1.342 . S
N901 N902 1.388 . S
N902 Co885 1.993 . S
N902 N901 1.388 . S
N902 C903 1.346 . S
C903 N902 1.346 . S
C903 C904 1.396 . S
C903 C913 1.510 . S
C904 C900 1.401 . S
C904 C903 1.396 . S
C905 C900 1.499 . S
C905 H906 0.959 . S
C905 H907 0.960 . S
C905 H908 0.961 . S
H906 C905 0.959 . S
H907 C905 0.960 . S
H908 C905 0.961 . S
O909 Co884 1.967 . S
O909 C917 1.258 . S
O910 Co885 1.941 . S
O910 C917 1.266 . S
H911 C913 0.959 . S
H912 C913 0.961 . S
C913 C903 1.510 . S
C913 H911 0.959 . S
C913 H912 0.961 . S
C913 H914 0.960 . S
H914 C913 0.960 . S
H915 N895 0.862 . S
O916 Co884 1.920 . S
O916 C889 1.289 . S
C917 O909 1.258 . S
C917 O910 1.266 . S
Co918 O921 1.970 . S
Co918 N935 1.989 . S
Co918 O943 1.967 . S
Co918 O950 1.920 . S
Co919 O922 1.966 . S
Co919 N928 2.022 . S
Co919 N936 1.993 . S
Co919 O944 1.941 . S
C920 O921 1.258 . S
C920 O922 1.263 . S
O921 Co918 1.970 . S
O921 C920 1.258 . S
O922 Co919 1.966 . S
O922 C920 1.263 . S
C923 O924 1.235 . S
C923 O950 1.289 . S
O924 C923 1.235 . S
C925 C927 1.400 . S
C925 N928 1.351 . S
C925 C930 1.501 . S
C926 C927 1.387 . S
C926 N929 1.341 . S
C927 C925 1.400 . S
C927 C926 1.387 . S
N928 Co919 2.022 . S
N928 C925 1.351 . S
N928 N929 1.365 . S
N929 C926 1.341 . S
N929 N928 1.365 . S
N929 H949 0.862 . S
C930 C925 1.501 . S
C930 H931 0.961 . S
C930 H932 0.961 . S
C930 H933 0.960 . S
H931 C930 0.961 . S
H932 C930 0.961 . S
H933 C930 0.960 . S
C934 N935 1.342 . S
C934 C938 1.401 . S
C934 C939 1.499 . S
N935 Co918 1.989 . S
N935 C934 1.342 . S
N935 N936 1.388 . S
N936 Co919 1.993 . S
N936 N935 1.388 . S
N936 C937 1.346 . S
C937 N936 1.346 . S
C937 C938 1.396 . S
C937 C947 1.510 . S
C938 C934 1.401 . S
C938 C937 1.396 . S
C939 C934 1.499 . S
C939 H940 0.959 . S
C939 H941 0.960 . S
C939 H942 0.961 . S
H940 C939 0.959 . S
H941 C939 0.960 . S
H942 C939 0.961 . S
O943 Co918 1.967 . S
O943 C951 1.258 . S
O944 Co919 1.941 . S
O944 C951 1.266 . S
H945 C947 0.959 . S
H946 C947 0.961 . S
C947 C937 1.510 . S
C947 H945 0.959 . S
C947 H946 0.961 . S
C947 H948 0.960 . S
H948 C947 0.960 . S
H949 N929 0.862 . S
O950 Co918 1.920 . S
O950 C923 1.289 . S
C951 O943 1.258 . S
C951 O944 1.266 . S
Co952 O955 1.970 . S
Co952 N969 1.989 . S
Co952 O977 1.967 . S
Co952 O984 1.920 . S
Co953 O956 1.966 . S
Co953 N962 2.022 . S
Co953 N970 1.993 . S
Co953 O978 1.941 . S
C954 O955 1.258 . S
C954 O956 1.263 . S
O955 Co952 1.970 . S
O955 C954 1.258 . S
O956 Co953 1.966 . S
O956 C954 1.263 . S
C957 O958 1.235 . S
C957 O984 1.289 . S
O958 C957 1.235 . S
C959 C961 1.400 . S
C959 N962 1.351 . S
C959 C964 1.501 . S
C960 C961 1.387 . S
C960 N963 1.341 . S
C961 C959 1.400 . S
C961 C960 1.387 . S
N962 Co953 2.022 . S
N962 C959 1.351 . S
N962 N963 1.365 . S
N963 C960 1.341 . S
N963 N962 1.365 . S
N963 H983 0.862 . S
C964 C959 1.501 . S
C964 H965 0.961 . S
C964 H966 0.961 . S
C964 H967 0.960 . S
H965 C964 0.961 . S
H966 C964 0.961 . S
H967 C964 0.960 . S
C968 N969 1.342 . S
C968 C972 1.401 . S
C968 C973 1.499 . S
N969 Co952 1.989 . S
N969 C968 1.342 . S
N969 N970 1.388 . S
N970 Co953 1.993 . S
N970 N969 1.388 . S
N970 C971 1.346 . S
C971 N970 1.346 . S
C971 C972 1.396 . S
C971 C981 1.510 . S
C972 C968 1.401 . S
C972 C971 1.396 . S
C973 C968 1.499 . S
C973 H974 0.959 . S
C973 H975 0.960 . S
C973 H976 0.961 . S
H974 C973 0.959 . S
H975 C973 0.960 . S
H976 C973 0.961 . S
O977 Co952 1.967 . S
O977 C985 1.258 . S
O978 Co953 1.941 . S
O978 C985 1.266 . S
H979 C981 0.959 . S
H980 C981 0.961 . S
C981 C971 1.510 . S
C981 H979 0.959 . S
C981 H980 0.961 . S
C981 H982 0.960 . S
H982 C981 0.960 . S
H983 N963 0.862 . S
O984 Co952 1.920 . S
O984 C957 1.289 . S
C985 O977 1.258 . S
C985 O978 1.266 . S
Co986 O989 1.970 . S
Co986 N1003 1.989 . S
Co986 O1011 1.967 . S
Co986 O1018 1.920 . S
Co987 O990 1.966 . S
Co987 N996 2.022 . S
Co987 N1004 1.993 . S
Co987 O1012 1.941 . S
C988 O989 1.258 . S
C988 O990 1.263 . S
O989 Co986 1.970 . S
O989 C988 1.258 . S
O990 Co987 1.966 . S
O990 C988 1.263 . S
C991 O992 1.235 . S
C991 O1018 1.289 . S
O992 C991 1.235 . S
C993 C995 1.400 . S
C993 N996 1.351 . S
C993 C998 1.501 . S
C994 C995 1.387 . S
C994 N997 1.341 . S
C995 C993 1.400 . S
C995 C994 1.387 . S
N996 Co987 2.022 . S
N996 C993 1.351 . S
N996 N997 1.365 . S
N997 C994 1.341 . S
N997 N996 1.365 . S
N997 H1017 0.862 . S
C998 C993 1.501 . S
C998 H999 0.961 . S
C998 H1000 0.961 . S
C998 H1001 0.960 . S
H999 C998 0.961 . S
H1000 C998 0.961 . S
H1001 C998 0.960 . S
C1002 N1003 1.342 . S
C1002 C1006 1.401 . S
C1002 C1007 1.499 . S
N1003 Co986 1.989 . S
N1003 C1002 1.342 . S
N1003 N1004 1.388 . S
N1004 Co987 1.993 . S
N1004 N1003 1.388 . S
N1004 C1005 1.346 . S
C1005 N1004 1.346 . S
C1005 C1006 1.396 . S
C1005 C1015 1.510 . S
C1006 C1002 1.401 . S
C1006 C1005 1.396 . S
C1007 C1002 1.499 . S
C1007 H1008 0.959 . S
C1007 H1009 0.960 . S
C1007 H1010 0.961 . S
H1008 C1007 0.959 . S
H1009 C1007 0.960 . S
H1010 C1007 0.961 . S
O1011 Co986 1.967 . S
O1011 C1019 1.258 . S
O1012 Co987 1.941 . S
O1012 C1019 1.266 . S
H1013 C1015 0.959 . S
H1014 C1015 0.961 . S
C1015 C1005 1.510 . S
C1015 H1013 0.959 . S
C1015 H1014 0.961 . S
C1015 H1016 0.960 . S
H1016 C1015 0.960 . S
H1017 N997 0.862 . S
O1018 Co986 1.920 . S
O1018 C991 1.289 . S
C1019 O1011 1.258 . S
C1019 O1012 1.266 . S
Co1020 O1023 1.970 . S
Co1020 N1037 1.989 . S
Co1020 O1045 1.967 . S
Co1020 O1052 1.920 . S
Co1021 O1024 1.966 . S
Co1021 N1030 2.022 . S
Co1021 N1038 1.993 . S
Co1021 O1046 1.941 . S
C1022 O1023 1.258 . S
C1022 O1024 1.263 . S
O1023 Co1020 1.970 . S
O1023 C1022 1.258 . S
O1024 Co1021 1.966 . S
O1024 C1022 1.263 . S
C1025 O1026 1.235 . S
C1025 O1052 1.289 . S
O1026 C1025 1.235 . S
C1027 C1029 1.400 . S
C1027 N1030 1.351 . S
C1027 C1032 1.501 . S
C1028 C1029 1.387 . S
C1028 N1031 1.341 . S
C1029 C1027 1.400 . S
C1029 C1028 1.387 . S
N1030 Co1021 2.022 . S
N1030 C1027 1.351 . S
N1030 N1031 1.365 . S
N1031 C1028 1.341 . S
N1031 N1030 1.365 . S
N1031 H1051 0.862 . S
C1032 C1027 1.501 . S
C1032 H1033 0.961 . S
C1032 H1034 0.961 . S
C1032 H1035 0.960 . S
H1033 C1032 0.961 . S
H1034 C1032 0.961 . S
H1035 C1032 0.960 . S
C1036 N1037 1.342 . S
C1036 C1040 1.401 . S
C1036 C1041 1.499 . S
N1037 Co1020 1.989 . S
N1037 C1036 1.342 . S
N1037 N1038 1.388 . S
N1038 Co1021 1.993 . S
N1038 N1037 1.388 . S
N1038 C1039 1.346 . S
C1039 N1038 1.346 . S
C1039 C1040 1.396 . S
C1039 C1049 1.510 . S
C1040 C1036 1.401 . S
C1040 C1039 1.396 . S
C1041 C1036 1.499 . S
C1041 H1042 0.959 . S
C1041 H1043 0.960 . S
C1041 H1044 0.961 . S
H1042 C1041 0.959 . S
H1043 C1041 0.960 . S
H1044 C1041 0.961 . S
O1045 Co1020 1.967 . S
O1045 C1053 1.258 . S
O1046 Co1021 1.941 . S
O1046 C1053 1.266 . S
H1047 C1049 0.959 . S
H1048 C1049 0.961 . S
C1049 C1039 1.510 . S
C1049 H1047 0.959 . S
C1049 H1048 0.961 . S
C1049 H1050 0.960 . S
H1050 C1049 0.960 . S
H1051 N1031 0.862 . S
O1052 Co1020 1.920 . S
O1052 C1025 1.289 . S
C1053 O1045 1.258 . S
C1053 O1046 1.266 . S
Co1054 O1057 1.970 . S
Co1054 N1071 1.989 . S
Co1054 O1079 1.967 . S
Co1054 O1086 1.920 . S
Co1055 O1058 1.966 . S
Co1055 N1064 2.022 . S
Co1055 N1072 1.993 . S
Co1055 O1080 1.941 . S
C1056 O1057 1.258 . S
C1056 O1058 1.263 . S
O1057 Co1054 1.970 . S
O1057 C1056 1.258 . S
O1058 Co1055 1.966 . S
O1058 C1056 1.263 . S
C1059 O1060 1.235 . S
C1059 O1086 1.289 . S
O1060 C1059 1.235 . S
C1061 C1063 1.400 . S
C1061 N1064 1.351 . S
C1061 C1066 1.501 . S
C1062 C1063 1.387 . S
C1062 N1065 1.341 . S
C1063 C1061 1.400 . S
C1063 C1062 1.387 . S
N1064 Co1055 2.022 . S
N1064 C1061 1.351 . S
N1064 N1065 1.365 . S
N1065 C1062 1.341 . S
N1065 N1064 1.365 . S
N1065 H1085 0.862 . S
C1066 C1061 1.501 . S
C1066 H1067 0.961 . S
C1066 H1068 0.961 . S
C1066 H1069 0.960 . S
H1067 C1066 0.961 . S
H1068 C1066 0.961 . S
H1069 C1066 0.960 . S
C1070 N1071 1.342 . S
C1070 C1074 1.401 . S
C1070 C1075 1.499 . S
N1071 Co1054 1.989 . S
N1071 C1070 1.342 . S
N1071 N1072 1.388 . S
N1072 Co1055 1.993 . S
N1072 N1071 1.388 . S
N1072 C1073 1.346 . S
C1073 N1072 1.346 . S
C1073 C1074 1.396 . S
C1073 C1083 1.510 . S
C1074 C1070 1.401 . S
C1074 C1073 1.396 . S
C1075 C1070 1.499 . S
C1075 H1076 0.959 . S
C1075 H1077 0.960 . S
C1075 H1078 0.961 . S
H1076 C1075 0.959 . S
H1077 C1075 0.960 . S
H1078 C1075 0.961 . S
O1079 Co1054 1.967 . S
O1079 C1087 1.258 . S
O1080 Co1055 1.941 . S
O1080 C1087 1.266 . S
H1081 C1083 0.959 . S
H1082 C1083 0.961 . S
C1083 C1073 1.510 . S
C1083 H1081 0.959 . S
C1083 H1082 0.961 . S
C1083 H1084 0.960 . S
H1084 C1083 0.960 . S
H1085 N1065 0.862 . S
O1086 Co1054 1.920 . S
O1086 C1059 1.289 . S
C1087 O1079 1.258 . S
C1087 O1080 1.266 . S
C1088 C1089 1.369 . S
C1088 C1090 1.419 . S
C1088 H1092 0.930 . S
C1089 C1088 1.369 . S
C1089 C1098 1.429 1_655 S
C1090 C1088 1.419 . S
C1090 C1091 1.363 1_655 S
C1090 H1093 0.929 . S
C1091 C1090 1.363 1_455 S
C1091 C1097 1.428 . S
H1092 C1088 0.930 . S
H1093 C1090 0.929 . S
S1094 N1095 1.613 . S
S1094 N1096 1.610 . S
N1095 S1094 1.613 . S
N1095 C1098 1.350 . S
N1096 S1094 1.610 . S
N1096 C1097 1.351 . S
C1097 C1091 1.428 . S
C1097 N1096 1.351 . S
C1097 C1098 1.434 . S
C1098 C1089 1.429 1_455 S
C1098 N1095 1.350 . S
C1098 C1097 1.434 . S
C1099 C1100 1.369 1_545 S
C1099 C1101 1.419 . S
C1099 H1103 0.930 . S
C1100 C1099 1.369 1_565 S
C1100 C1109 1.429 . S
C1101 C1099 1.419 . S
C1101 C1102 1.363 . S
C1101 H1104 0.929 . S
C1102 C1101 1.363 . S
C1102 C1108 1.428 1_545 S
H1103 C1099 0.930 . S
H1104 C1101 0.929 . S
S1105 N1106 1.613 . S
S1105 N1107 1.610 . S
N1106 S1105 1.613 . S
N1106 C1109 1.350 . S
N1107 S1105 1.610 . S
N1107 C1108 1.351 . S
C1108 C1102 1.428 1_565 S
C1108 N1107 1.351 . S
C1108 C1109 1.434 . S
C1109 C1100 1.429 . S
C1109 N1106 1.350 . S
C1109 C1108 1.434 . S
C1110 C1111 1.369 1_545 S
C1110 C1112 1.419 1_554 S
C1110 H1114 0.930 . S
C1111 C1110 1.369 1_565 S
C1111 C1120 1.429 1_655 S
C1112 C1110 1.419 1_556 S
C1112 C1113 1.363 1_655 S
C1112 H1115 0.929 . S
C1113 C1112 1.363 1_455 S
C1113 C1119 1.428 1_545 S
H1114 C1110 0.930 . S
H1115 C1112 0.929 . S
S1116 N1117 1.613 . S
S1116 N1118 1.610 1_554 S
N1117 S1116 1.613 . S
N1117 C1120 1.350 . S
N1118 S1116 1.610 1_556 S
N1118 C1119 1.351 . S
C1119 C1113 1.428 1_565 S
C1119 N1118 1.351 . S
C1119 C1120 1.434 1_556 S
C1120 C1111 1.429 1_455 S
C1120 N1117 1.350 . S
C1120 C1119 1.434 1_554 S
C1121 C1122 1.369 . S
C1121 C1123 1.419 1_554 S
C1121 H1125 0.930 . S
C1122 C1121 1.369 . S
C1122 C1131 1.429 . S
C1123 C1121 1.419 1_556 S
C1123 C1124 1.363 . S
C1123 H1126 0.929 . S
C1124 C1123 1.363 . S
C1124 C1130 1.428 . S
H1125 C1121 0.930 . S
H1126 C1123 0.929 . S
S1127 N1128 1.613 1_556 S
S1127 N1129 1.610 . S
N1128 S1127 1.613 1_554 S
N1128 C1131 1.350 . S
N1129 S1127 1.610 . S
N1129 C1130 1.351 . S
C1130 C1124 1.428 . S
C1130 N1129 1.351 . S
C1130 C1131 1.434 1_556 S
C1131 C1122 1.429 . S
C1131 N1128 1.350 . S
C1131 C1130 1.434 1_554 S
C1132 C1133 1.369 . S
C1132 C1134 1.419 1_455 S
C1132 H1136 0.930 . S
C1133 C1132 1.369 . S
C1133 C1142 1.429 . S
C1134 C1132 1.419 1_655 S
C1134 C1135 1.363 . S
C1134 H1137 0.929 . S
C1135 C1134 1.363 . S
C1135 C1141 1.428 . S
H1136 C1132 0.930 . S
H1137 C1134 0.929 . S
S1138 N1139 1.613 1_655 S
S1138 N1140 1.610 . S
N1139 S1138 1.613 1_455 S
N1139 C1142 1.350 . S
N1140 S1138 1.610 . S
N1140 C1141 1.351 . S
C1141 C1135 1.428 . S
C1141 N1140 1.351 . S
C1141 C1142 1.434 1_655 S
C1142 C1133 1.429 . S
C1142 N1139 1.350 . S
C1142 C1141 1.434 1_455 S
C1143 C1144 1.369 . S
C1143 C1145 1.419 . S
C1143 H1147 0.930 . S
C1144 C1143 1.369 . S
C1144 C1153 1.429 1_545 S
C1145 C1143 1.419 . S
C1145 C1146 1.363 1_545 S
C1145 H1148 0.929 . S
C1146 C1145 1.363 1_565 S
C1146 C1152 1.428 . S
H1147 C1143 0.930 . S
H1148 C1145 0.929 . S
S1149 N1150 1.613 . S
S1149 N1151 1.610 . S
N1150 S1149 1.613 . S
N1150 C1153 1.350 . S
N1151 S1149 1.610 . S
N1151 C1152 1.351 . S
C1152 C1146 1.428 . S
C1152 N1151 1.351 . S
C1152 C1153 1.434 . S
C1153 C1144 1.429 1_565 S
C1153 N1150 1.350 . S
C1153 C1152 1.434 . S
C1154 C1155 1.369 . S
C1154 C1156 1.419 1_554 S
C1154 H1158 0.930 . S
C1155 C1154 1.369 . S
C1155 C1164 1.429 . S
C1156 C1154 1.419 1_556 S
C1156 C1157 1.363 . S
C1156 H1159 0.929 . S
C1157 C1156 1.363 . S
C1157 C1163 1.428 . S
H1158 C1154 0.930 . S
H1159 C1156 0.929 . S
S1160 N1161 1.613 . S
S1160 N1162 1.610 1_554 S
N1161 S1160 1.613 . S
N1161 C1164 1.350 . S
N1162 S1160 1.610 1_556 S
N1162 C1163 1.351 . S
C1163 C1157 1.428 . S
C1163 N1162 1.351 . S
C1163 C1164 1.434 1_556 S
C1164 C1155 1.429 . S
C1164 N1161 1.350 . S
C1164 C1163 1.434 1_554 S
C1165 C1166 1.369 . S
C1165 C1167 1.419 . S
C1165 H1169 0.930 . S
C1166 C1165 1.369 . S
C1166 C1175 1.429 . S
C1167 C1165 1.419 . S
C1167 C1168 1.363 . S
C1167 H1170 0.929 . S
C1168 C1167 1.363 . S
C1168 C1174 1.428 . S
H1169 C1165 0.930 . S
H1170 C1167 0.929 . S
S1171 N1172 1.613 . S
S1171 N1173 1.610 . S
N1172 S1171 1.613 . S
N1172 C1175 1.350 . S
N1173 S1171 1.610 . S
N1173 C1174 1.351 . S
C1174 C1168 1.428 . S
C1174 N1173 1.351 . S
C1174 C1175 1.434 . S
C1175 C1166 1.429 . S
C1175 N1172 1.350 . S
C1175 C1174 1.434 . S
C1176 C1177 1.369 1_455 S
C1176 C1178 1.419 . S
C1176 H1180 0.930 . S
C1177 C1176 1.369 1_655 S
C1177 C1186 1.429 . S
C1178 C1176 1.419 . S
C1178 C1179 1.363 . S
C1178 H1181 0.929 . S
C1179 C1178 1.363 . S
C1179 C1185 1.428 1_455 S
H1180 C1176 0.930 . S
H1181 C1178 0.929 . S
S1182 N1183 1.613 . S
S1182 N1184 1.610 . S
N1183 S1182 1.613 . S
N1183 C1186 1.350 . S
N1184 S1182 1.610 . S
N1184 C1185 1.351 . S
C1185 C1179 1.428 1_655 S
C1185 N1184 1.351 . S
C1185 C1186 1.434 . S
C1186 C1177 1.429 . S
C1186 N1183 1.350 . S
C1186 C1185 1.434 . S
C1187 C1188 1.369 . S
C1187 C1189 1.419 . S
C1187 H1191 0.930 . S
C1188 C1187 1.369 . S
C1188 C1197 1.429 . S
C1189 C1187 1.419 . S
C1189 C1190 1.363 . S
C1189 H1192 0.929 . S
C1190 C1189 1.363 . S
C1190 C1196 1.428 . S
H1191 C1187 0.930 . S
H1192 C1189 0.929 . S
S1193 N1194 1.613 . S
S1193 N1195 1.610 . S
N1194 S1193 1.613 . S
N1194 C1197 1.350 . S
N1195 S1193 1.610 . S
N1195 C1196 1.351 . S
C1196 C1190 1.428 . S
C1196 N1195 1.351 . S
C1196 C1197 1.434 . S
C1197 C1188 1.429 . S
C1197 N1194 1.350 . S
C1197 C1196 1.434 . S
C1198 C1199 1.369 . S
C1198 C1200 1.419 . S
C1198 H1202 0.930 . S
C1199 C1198 1.369 . S
C1199 C1208 1.429 . S
C1200 C1198 1.419 . S
C1200 C1201 1.363 . S
C1200 H1203 0.929 . S
C1201 C1200 1.363 . S
C1201 C1207 1.428 . S
H1202 C1198 0.930 . S
H1203 C1200 0.929 . S
S1204 N1205 1.613 . S
S1204 N1206 1.610 . S
N1205 S1204 1.613 . S
N1205 C1208 1.350 . S
N1206 S1204 1.610 . S
N1206 C1207 1.351 . S
C1207 C1201 1.428 . S
C1207 N1206 1.351 . S
C1207 C1208 1.434 . S
C1208 C1199 1.429 . S
C1208 N1205 1.350 . S
C1208 C1207 1.434 . S
C1209 C1210 1.369 . S
C1209 C1211 1.419 . S
C1209 H1213 0.930 . S
C1210 C1209 1.369 . S
C1210 C1219 1.429 . S
C1211 C1209 1.419 . S
C1211 C1212 1.363 . S
C1211 H1214 0.929 . S
C1212 C1211 1.363 . S
C1212 C1218 1.428 . S
H1213 C1209 0.930 . S
H1214 C1211 0.929 . S
S1215 N1216 1.613 . S
S1215 N1217 1.610 . S
N1216 S1215 1.613 . S
N1216 C1219 1.350 . S
N1217 S1215 1.610 . S
N1217 C1218 1.351 . S
C1218 C1212 1.428 . S
C1218 N1217 1.351 . S
C1218 C1219 1.434 . S
C1219 C1210 1.429 . S
C1219 N1216 1.350 . S
C1219 C1218 1.434 . S
C1220 C1221 1.369 . S
C1220 C1222 1.419 . S
C1220 H1224 0.930 . S
C1221 C1220 1.369 . S
C1221 C1230 1.429 . S
C1222 C1220 1.419 . S
C1222 C1223 1.363 . S
C1222 H1225 0.929 . S
C1223 C1222 1.363 . S
C1223 C1229 1.428 . S
H1224 C1220 0.930 . S
H1225 C1222 0.929 . S
S1226 N1227 1.613 . S
S1226 N1228 1.610 . S
N1227 S1226 1.613 . S
N1227 C1230 1.350 . S
N1228 S1226 1.610 . S
N1228 C1229 1.351 . S
C1229 C1223 1.428 . S
C1229 N1228 1.351 . S
C1229 C1230 1.434 . S
C1230 C1221 1.429 . S
C1230 N1227 1.350 . S
C1230 C1229 1.434 . S
C1231 C1232 1.369 . S
C1231 C1233 1.415 1_565 S
C1231 H1235 0.930 . S
C1232 C1231 1.369 . S
C1232 C1241 1.429 . S
C1233 C1231 1.415 1_545 S
C1233 C1234 1.367 . S
C1233 H1236 0.929 . S
C1234 C1233 1.367 . S
C1234 C1240 1.428 . S
H1235 C1231 0.930 . S
H1236 C1233 0.929 . S
S1237 N1238 1.613 1_545 S
S1237 N1239 1.610 . S
N1238 S1237 1.613 1_565 S
N1238 C1241 1.350 . S
N1239 S1237 1.610 . S
N1239 C1240 1.351 . S
C1240 C1234 1.428 . S
C1240 N1239 1.351 . S
C1240 C1241 1.434 1_545 S
C1241 C1232 1.429 . S
C1241 N1238 1.350 . S
C1241 C1240 1.434 1_565 S
C1242 C1243 1.369 . S
C1242 C1244 1.419 . S
C1242 H1246 0.930 . S
C1243 C1242 1.369 . S
C1243 C1252 1.429 . S
C1244 C1242 1.419 . S
C1244 C1245 1.363 . S
C1244 H1247 0.929 . S
C1245 C1244 1.363 . S
C1245 C1251 1.428 . S
H1246 C1242 0.930 . S
H1247 C1244 0.929 . S
S1248 N1249 1.613 . S
S1248 N1250 1.610 . S
N1249 S1248 1.613 . S
N1249 C1252 1.350 . S
N1250 S1248 1.610 . S
N1250 C1251 1.351 . S
C1251 C1245 1.428 . S
C1251 N1250 1.351 . S
C1251 C1252 1.434 . S
C1252 C1243 1.429 . S
C1252 N1249 1.350 . S
C1252 C1251 1.434 . S
C1253 C1254 1.369 . S
C1253 C1255 1.419 1_554 S
C1253 H1257 0.930 . S
C1254 C1253 1.369 . S
C1254 C1263 1.429 . S
C1255 C1253 1.419 1_556 S
C1255 C1256 1.363 . S
C1255 H1258 0.929 . S
C1256 C1255 1.363 . S
C1256 C1262 1.428 . S
H1257 C1253 0.930 . S
H1258 C1255 0.929 . S
S1259 N1260 1.613 . S
S1259 N1261 1.610 1_554 S
N1260 S1259 1.613 . S
N1260 C1263 1.350 . S
N1261 S1259 1.610 1_556 S
N1261 C1262 1.351 . S
C1262 C1256 1.428 . S
C1262 N1261 1.351 . S
C1262 C1263 1.434 1_556 S
C1263 C1254 1.429 . S
C1263 N1260 1.350 . S
C1263 C1262 1.434 1_554 S
C1264 C1265 1.369 . S
C1264 C1266 1.419 . S
C1264 H1268 0.930 . S
C1265 C1264 1.369 . S
C1265 C1274 1.429 . S
C1266 C1264 1.419 . S
C1266 C1267 1.363 . S
C1266 H1269 0.929 . S
C1267 C1266 1.363 . S
C1267 C1273 1.428 . S
H1268 C1264 0.930 . S
H1269 C1266 0.929 . S
S1270 N1271 1.613 . S
S1270 N1272 1.610 . S
N1271 S1270 1.613 . S
N1271 C1274 1.350 1_655 S
N1272 S1270 1.610 . S
N1272 C1273 1.351 1_655 S
C1273 C1267 1.428 . S
C1273 N1272 1.351 1_455 S
C1273 C1274 1.434 . S
C1274 C1265 1.429 . S
C1274 N1271 1.350 1_455 S
C1274 C1273 1.434 . S
C1275 C1276 1.369 . S
C1275 C1277 1.419 . S
C1275 H1279 0.930 . S
C1276 C1275 1.369 . S
C1276 C1285 1.429 . S
C1277 C1275 1.419 . S
C1277 C1278 1.363 . S
C1277 H1280 0.929 . S
C1278 C1277 1.363 . S
C1278 C1284 1.428 . S
H1279 C1275 0.930 . S
H1280 C1277 0.929 . S
S1281 N1282 1.613 . S
S1281 N1283 1.610 . S
N1282 S1281 1.613 . S
N1282 C1285 1.350 . S
N1283 S1281 1.610 . S
N1283 C1284 1.351 . S
C1284 C1278 1.428 . S
C1284 N1283 1.351 . S
C1284 C1285 1.434 . S
C1285 C1276 1.429 . S
C1285 N1282 1.350 . S
C1285 C1284 1.434 . S
C1286 C1287 1.369 . S
C1286 C1288 1.419 . S
C1286 H1290 0.930 . S
C1287 C1286 1.369 . S
C1287 C1296 1.429 . S
C1288 C1286 1.419 . S
C1288 C1289 1.363 . S
C1288 H1291 0.929 . S
C1289 C1288 1.363 . S
C1289 C1295 1.428 . S
H1290 C1286 0.930 . S
H1291 C1288 0.929 . S
S1292 N1293 1.613 . S
S1292 N1294 1.610 . S
N1293 S1292 1.613 . S
N1293 C1296 1.350 . S
N1294 S1292 1.610 . S
N1294 C1295 1.351 . S
C1295 C1289 1.428 . S
C1295 N1294 1.351 . S
C1295 C1296 1.434 . S
C1296 C1287 1.429 . S
C1296 N1293 1.350 . S
C1296 C1295 1.434 . S
C1297 C1298 1.369 . S
C1297 C1299 1.419 . S
C1297 H1301 0.930 . S
C1298 C1297 1.369 . S
C1298 C1307 1.429 . S
C1299 C1297 1.419 . S
C1299 C1300 1.363 . S
C1299 H1302 0.929 . S
C1300 C1299 1.363 . S
C1300 C1306 1.428 . S
H1301 C1297 0.930 . S
H1302 C1299 0.929 . S
S1303 N1304 1.613 . S
S1303 N1305 1.610 . S
N1304 S1303 1.613 . S
N1304 C1307 1.350 . S
N1305 S1303 1.610 . S
N1305 C1306 1.351 . S
C1306 C1300 1.428 . S
C1306 N1305 1.351 . S
C1306 C1307 1.434 . S
C1307 C1298 1.429 . S
C1307 N1304 1.350 . S
C1307 C1306 1.434 . S
C1308 C1309 1.369 . S
C1308 C1310 1.419 . S
C1308 H1312 0.930 . S
C1309 C1308 1.369 . S
C1309 C1318 1.429 . S
C1310 C1308 1.419 . S
C1310 C1311 1.363 . S
C1310 H1313 0.929 . S
C1311 C1310 1.363 . S
C1311 C1317 1.428 . S
H1312 C1308 0.930 . S
H1313 C1310 0.929 . S
S1314 N1315 1.613 1_655 S
S1314 N1316 1.610 1_655 S
N1315 S1314 1.613 1_455 S
N1315 C1318 1.350 . S
N1316 S1314 1.610 1_455 S
N1316 C1317 1.351 . S
C1317 C1311 1.428 . S
C1317 N1316 1.351 . S
C1317 C1318 1.434 . S
C1318 C1309 1.429 . S
C1318 N1315 1.350 . S
C1318 C1317 1.434 . S
C1319 C1320 1.369 . S
C1319 C1321 1.419 . S
C1319 H1323 0.930 . S
C1320 C1319 1.369 . S
C1320 C1329 1.429 . S
C1321 C1319 1.419 . S
C1321 C1322 1.363 . S
C1321 H1324 0.929 . S
C1322 C1321 1.363 . S
C1322 C1328 1.428 . S
H1323 C1319 0.930 . S
H1324 C1321 0.929 . S
S1325 N1326 1.613 . S
S1325 N1327 1.610 . S
N1326 S1325 1.613 . S
N1326 C1329 1.350 . S
N1327 S1325 1.610 . S
N1327 C1328 1.351 . S
C1328 C1322 1.428 . S
C1328 N1327 1.351 . S
C1328 C1329 1.434 . S
C1329 C1320 1.429 . S
C1329 N1326 1.350 . S
C1329 C1328 1.434 . S
C1330 C1331 1.369 . S
C1330 C1332 1.419 . S
C1330 H1334 0.930 . S
C1331 C1330 1.369 . S
C1331 C1340 1.429 . S
C1332 C1330 1.419 . S
C1332 C1333 1.363 . S
C1332 H1335 0.929 . S
C1333 C1332 1.363 . S
C1333 C1339 1.428 . S
H1334 C1330 0.930 . S
H1335 C1332 0.929 . S
S1336 N1337 1.613 . S
S1336 N1338 1.610 . S
N1337 S1336 1.613 . S
N1337 C1340 1.350 . S
N1338 S1336 1.610 . S
N1338 C1339 1.351 . S
C1339 C1333 1.428 . S
C1339 N1338 1.351 . S
C1339 C1340 1.434 . S
C1340 C1331 1.429 . S
C1340 N1337 1.350 . S
C1340 C1339 1.434 . S
C1341 C1342 1.369 . S
C1341 C1343 1.419 . S
C1341 H1345 0.930 . S
C1342 C1341 1.369 . S
C1342 C1351 1.429 . S
C1343 C1341 1.419 . S
C1343 C1344 1.363 . S
C1343 H1346 0.929 . S
C1344 C1343 1.363 . S
C1344 C1350 1.428 . S
H1345 C1341 0.930 . S
H1346 C1343 0.929 . S
S1347 N1348 1.613 . S
S1347 N1349 1.610 . S
N1348 S1347 1.613 . S
N1348 C1351 1.350 . S
N1349 S1347 1.610 . S
N1349 C1350 1.351 . S
C1350 C1344 1.428 . S
C1350 N1349 1.351 . S
C1350 C1351 1.434 . S
C1351 C1342 1.429 . S
C1351 N1348 1.350 . S
C1351 C1350 1.434 . S
C1352 C1353 1.369 . S
C1352 C1354 1.419 . S
C1352 H1356 0.930 . S
C1353 C1352 1.369 . S
C1353 C1362 1.429 . S
C1354 C1352 1.419 . S
C1354 C1355 1.363 . S
C1354 H1357 0.929 . S
C1355 C1354 1.363 . S
C1355 C1361 1.428 . S
H1356 C1352 0.930 . S
H1357 C1354 0.929 . S
S1358 N1359 1.613 . S
S1358 N1360 1.610 . S
N1359 S1358 1.613 . S
N1359 C1362 1.350 . S
N1360 S1358 1.610 . S
N1360 C1361 1.351 . S
C1361 C1355 1.428 . S
C1361 N1360 1.351 . S
C1361 C1362 1.434 . S
C1362 C1353 1.429 . S
C1362 N1359 1.350 . S
C1362 C1361 1.434 . S
C1363 C1364 1.369 . S
C1363 C1365 1.419 . S
C1363 H1367 0.930 . S
C1364 C1363 1.369 . S
C1364 C1373 1.429 . S
C1365 C1363 1.419 . S
C1365 C1366 1.363 . S
C1365 H1368 0.929 . S
C1366 C1365 1.363 . S
C1366 C1372 1.428 . S
H1367 C1363 0.930 . S
H1368 C1365 0.929 . S
S1369 N1370 1.613 . S
S1369 N1371 1.610 . S
N1370 S1369 1.613 . S
N1370 C1373 1.350 . S
N1371 S1369 1.610 . S
N1371 C1372 1.351 . S
C1372 C1366 1.428 . S
C1372 N1371 1.351 . S
C1372 C1373 1.434 . S
C1373 C1364 1.429 . S
C1373 N1370 1.350 . S
C1373 C1372 1.434 . S
C1374 C1375 1.369 . S
C1374 C1376 1.419 . S
C1374 H1378 0.930 . S
C1375 C1374 1.369 . S
C1375 C1384 1.429 . S
C1376 C1374 1.419 . S
C1376 C1377 1.363 . S
C1376 H1379 0.929 . S
C1377 C1376 1.363 . S
C1377 C1383 1.428 . S
H1378 C1374 0.930 . S
H1379 C1376 0.929 . S
S1380 N1381 1.613 . S
S1380 N1382 1.610 . S
N1381 S1380 1.613 . S
N1381 C1384 1.350 . S
N1382 S1380 1.610 . S
N1382 C1383 1.351 . S
C1383 C1377 1.428 . S
C1383 N1382 1.351 . S
C1383 C1384 1.434 . S
C1384 C1375 1.429 . S
C1384 N1381 1.350 . S
C1384 C1383 1.434 . S
C1385 C1386 1.369 . S
C1385 C1387 1.419 . S
C1385 H1389 0.930 . S
C1386 C1385 1.369 . S
C1386 C1395 1.429 . S
C1387 C1385 1.419 . S
C1387 C1388 1.363 . S
C1387 H1390 0.929 . S
C1388 C1387 1.363 . S
C1388 C1394 1.428 . S
H1389 C1385 0.930 . S
H1390 C1387 0.929 . S
S1391 N1392 1.613 . S
S1391 N1393 1.610 . S
N1392 S1391 1.613 . S
N1392 C1395 1.350 . S
N1393 S1391 1.610 . S
N1393 C1394 1.351 . S
C1394 C1388 1.428 . S
C1394 N1393 1.351 . S
C1394 C1395 1.434 . S
C1395 C1386 1.429 . S
C1395 N1392 1.350 . S
C1395 C1394 1.434 . S
C1396 C1397 1.369 . S
C1396 C1398 1.419 . S
C1396 H1400 0.930 . S
C1397 C1396 1.369 . S
C1397 C1406 1.429 . S
C1398 C1396 1.419 . S
C1398 C1399 1.363 . S
C1398 H1401 0.929 . S
C1399 C1398 1.363 . S
C1399 C1405 1.428 . S
H1400 C1396 0.930 . S
H1401 C1398 0.929 . S
S1402 N1403 1.613 . S
S1402 N1404 1.610 . S
N1403 S1402 1.613 . S
N1403 C1406 1.350 . S
N1404 S1402 1.610 . S
N1404 C1405 1.351 . S
C1405 C1399 1.428 . S
C1405 N1404 1.351 . S
C1405 C1406 1.434 . S
C1406 C1397 1.429 . S
C1406 N1403 1.350 . S
C1406 C1405 1.434 . S
C1407 C1408 1.369 . S
C1407 C1409 1.419 . S
C1407 H1411 0.930 . S
C1408 C1407 1.369 . S
C1408 C1417 1.429 . S
C1409 C1407 1.419 . S
C1409 C1410 1.363 . S
C1409 H1412 0.929 . S
C1410 C1409 1.363 . S
C1410 C1416 1.428 . S
H1411 C1407 0.930 . S
H1412 C1409 0.929 . S
S1413 N1414 1.613 . S
S1413 N1415 1.610 . S
N1414 S1413 1.613 . S
N1414 C1417 1.350 . S
N1415 S1413 1.610 . S
N1415 C1416 1.351 . S
C1416 C1410 1.428 . S
C1416 N1415 1.351 . S
C1416 C1417 1.434 . S
C1417 C1408 1.429 . S
C1417 N1414 1.350 . S
C1417 C1416 1.434 . S
C1418 C1419 1.369 . S
C1418 C1420 1.419 . S
C1418 H1422 0.930 . S
C1419 C1418 1.369 . S
C1419 C1428 1.429 . S
C1420 C1418 1.419 . S
C1420 C1421 1.363 . S
C1420 H1423 0.929 . S
C1421 C1420 1.363 . S
C1421 C1427 1.428 . S
H1422 C1418 0.930 . S
H1423 C1420 0.929 . S
S1424 N1425 1.613 . S
S1424 N1426 1.610 . S
N1425 S1424 1.613 . S
N1425 C1428 1.350 . S
N1426 S1424 1.610 . S
N1426 C1427 1.351 . S
C1427 C1421 1.428 . S
C1427 N1426 1.351 . S
C1427 C1428 1.434 . S
C1428 C1419 1.429 . S
C1428 N1425 1.350 . S
C1428 C1427 1.434 . S
C1429 C1430 1.369 . S
C1429 C1431 1.419 . S
C1429 H1433 0.930 . S
C1430 C1429 1.369 . S
C1430 C1439 1.429 . S
C1431 C1429 1.419 . S
C1431 C1432 1.363 . S
C1431 H1434 0.929 . S
C1432 C1431 1.363 . S
C1432 C1438 1.428 . S
H1433 C1429 0.930 . S
H1434 C1431 0.929 . S
S1435 N1436 1.613 . S
S1435 N1437 1.610 . S
N1436 S1435 1.613 . S
N1436 C1439 1.350 . S
N1437 S1435 1.610 . S
N1437 C1438 1.351 . S
C1438 C1432 1.428 . S
C1438 N1437 1.351 . S
C1438 C1439 1.434 . S
C1439 C1430 1.429 . S
C1439 N1436 1.350 . S
C1439 C1438 1.434 . S
C1440 C1441 1.369 . S
C1440 C1442 1.419 . S
C1440 H1444 0.930 . S
C1441 C1440 1.369 . S
C1441 C1450 1.429 . S
C1442 C1440 1.419 . S
C1442 C1443 1.363 . S
C1442 H1445 0.929 . S
C1443 C1442 1.363 . S
C1443 C1449 1.428 . S
H1444 C1440 0.930 . S
H1445 C1442 0.929 . S
S1446 N1447 1.613 . S
S1446 N1448 1.610 . S
N1447 S1446 1.613 . S
N1447 C1450 1.350 . S
N1448 S1446 1.610 . S
N1448 C1449 1.351 . S
C1449 C1443 1.428 . S
C1449 N1448 1.351 . S
C1449 C1450 1.434 . S
C1450 C1441 1.429 . S
C1450 N1447 1.350 . S
C1450 C1449 1.434 . S
C1451 C1452 1.369 . S
C1451 C1453 1.419 . S
C1451 H1455 0.930 . S
C1452 C1451 1.369 . S
C1452 C1461 1.429 . S
C1453 C1451 1.419 . S
C1453 C1454 1.363 . S
C1453 H1456 0.929 . S
C1454 C1453 1.363 . S
C1454 C1460 1.428 . S
H1455 C1451 0.930 . S
H1456 C1453 0.929 . S
S1457 N1458 1.613 . S
S1457 N1459 1.610 . S
N1458 S1457 1.613 . S
N1458 C1461 1.350 . S
N1459 S1457 1.610 . S
N1459 C1460 1.351 . S
C1460 C1454 1.428 . S
C1460 N1459 1.351 . S
C1460 C1461 1.434 . S
C1461 C1452 1.429 . S
C1461 N1458 1.350 . S
C1461 C1460 1.434 . S
C1462 C1463 1.369 . S
C1462 C1464 1.419 . S
C1462 H1466 0.930 . S
C1463 C1462 1.369 . S
C1463 C1472 1.429 . S
C1464 C1462 1.419 . S
C1464 C1465 1.363 . S
C1464 H1467 0.929 . S
C1465 C1464 1.363 . S
C1465 C1471 1.428 . S
H1466 C1462 0.930 . S
H1467 C1464 0.929 . S
S1468 N1469 1.613 . S
S1468 N1470 1.610 . S
N1469 S1468 1.613 . S
N1469 C1472 1.350 . S
N1470 S1468 1.610 . S
N1470 C1471 1.351 . S
C1471 C1465 1.428 . S
C1471 N1470 1.351 . S
C1471 C1472 1.434 . S
C1472 C1463 1.429 . S
C1472 N1469 1.350 . S
C1472 C1471 1.434 . S
C1473 C1474 1.369 . S
C1473 C1475 1.419 . S
C1473 H1477 0.930 . S
C1474 C1473 1.369 . S
C1474 C1483 1.429 . S
C1475 C1473 1.419 . S
C1475 C1476 1.363 . S
C1475 H1478 0.929 . S
C1476 C1475 1.363 . S
C1476 C1482 1.428 . S
H1477 C1473 0.930 . S
H1478 C1475 0.929 . S
S1479 N1480 1.613 . S
S1479 N1481 1.610 . S
N1480 S1479 1.613 . S
N1480 C1483 1.350 . S
N1481 S1479 1.610 . S
N1481 C1482 1.351 . S
C1482 C1476 1.428 . S
C1482 N1481 1.351 . S
C1482 C1483 1.434 . S
C1483 C1474 1.429 . S
C1483 N1480 1.350 . S
C1483 C1482 1.434 . S
C1484 C1485 1.369 . S
C1484 C1486 1.419 . S
C1484 H1488 0.930 . S
C1485 C1484 1.369 . S
C1485 C1494 1.429 . S
C1486 C1484 1.419 . S
C1486 C1487 1.363 . S
C1486 H1489 0.929 . S
C1487 C1486 1.363 . S
C1487 C1493 1.428 . S
H1488 C1484 0.930 . S
H1489 C1486 0.929 . S
S1490 N1491 1.613 . S
S1490 N1492 1.610 . S
N1491 S1490 1.613 . S
N1491 C1494 1.350 . S
N1492 S1490 1.610 . S
N1492 C1493 1.351 . S
C1493 C1487 1.428 . S
C1493 N1492 1.351 . S
C1493 C1494 1.434 . S
C1494 C1485 1.429 . S
C1494 N1491 1.350 . S
C1494 C1493 1.434 . S
C1495 C1496 1.369 . S
C1495 C1497 1.419 . S
C1495 H1499 0.930 . S
C1496 C1495 1.369 . S
C1496 C1505 1.429 . S
C1497 C1495 1.419 . S
C1497 C1498 1.363 . S
C1497 H1500 0.929 . S
C1498 C1497 1.363 . S
C1498 C1504 1.428 . S
H1499 C1495 0.930 . S
H1500 C1497 0.929 . S
S1501 N1502 1.613 . S
S1501 N1503 1.610 . S
N1502 S1501 1.613 . S
N1502 C1505 1.350 . S
N1503 S1501 1.610 . S
N1503 C1504 1.351 . S
C1504 C1498 1.428 . S
C1504 N1503 1.351 . S
C1504 C1505 1.434 . S
C1505 C1496 1.429 . S
C1505 N1502 1.350 . S
C1505 C1504 1.434 . S
C1506 C1507 1.369 . S
C1506 C1508 1.419 . S
C1506 H1510 0.930 . S
C1507 C1506 1.369 . S
C1507 C1516 1.429 . S
C1508 C1506 1.419 . S
C1508 C1509 1.363 . S
C1508 H1511 0.929 . S
C1509 C1508 1.363 . S
C1509 C1515 1.428 . S
H1510 C1506 0.930 . S
H1511 C1508 0.929 . S
S1512 N1513 1.613 . S
S1512 N1514 1.610 . S
N1513 S1512 1.613 . S
N1513 C1516 1.350 . S
N1514 S1512 1.610 . S
N1514 C1515 1.351 . S
C1515 C1509 1.428 . S
C1515 N1514 1.351 . S
C1515 C1516 1.434 . S
C1516 C1507 1.429 . S
C1516 N1513 1.350 . S
C1516 C1515 1.434 . S
C1517 C1518 1.369 . S
C1517 C1519 1.419 . S
C1517 H1521 0.930 . S
C1518 C1517 1.369 . S
C1518 C1527 1.429 . S
C1519 C1517 1.419 . S
C1519 C1520 1.363 . S
C1519 H1522 0.929 . S
C1520 C1519 1.363 . S
C1520 C1526 1.428 . S
H1521 C1517 0.930 . S
H1522 C1519 0.929 . S
S1523 N1524 1.613 . S
S1523 N1525 1.610 . S
N1524 S1523 1.613 . S
N1524 C1527 1.350 . S
N1525 S1523 1.610 . S
N1525 C1526 1.351 . S
C1526 C1520 1.428 . S
C1526 N1525 1.351 . S
C1526 C1527 1.434 . S
C1527 C1518 1.429 . S
C1527 N1524 1.350 . S
C1527 C1526 1.434 . S
C1528 C1529 1.369 . S
C1528 C1530 1.419 . S
C1528 H1532 0.930 . S
C1529 C1528 1.369 . S
C1529 C1538 1.429 . S
C1530 C1528 1.419 . S
C1530 C1531 1.363 . S
C1530 H1533 0.929 . S
C1531 C1530 1.363 . S
C1531 C1537 1.428 . S
H1532 C1528 0.930 . S
H1533 C1530 0.929 . S
S1534 N1535 1.613 . S
S1534 N1536 1.610 . S
N1535 S1534 1.613 . S
N1535 C1538 1.350 . S
N1536 S1534 1.610 . S
N1536 C1537 1.351 . S
C1537 C1531 1.428 . S
C1537 N1536 1.351 . S
C1537 C1538 1.434 . S
C1538 C1529 1.429 . S
C1538 N1535 1.350 . S
C1538 C1537 1.434 . S
C1539 C1540 1.369 . S
C1539 C1541 1.419 . S
C1539 H1543 0.930 . S
C1540 C1539 1.369 . S
C1540 C1549 1.429 . S
C1541 C1539 1.419 . S
C1541 C1542 1.363 . S
C1541 H1544 0.929 . S
C1542 C1541 1.363 . S
C1542 C1548 1.428 . S
H1543 C1539 0.930 . S
H1544 C1541 0.929 . S
S1545 N1546 1.613 . S
S1545 N1547 1.610 . S
N1546 S1545 1.613 . S
N1546 C1549 1.350 . S
N1547 S1545 1.610 . S
N1547 C1548 1.351 . S
C1548 C1542 1.428 . S
C1548 N1547 1.351 . S
C1548 C1549 1.434 . S
C1549 C1540 1.429 . S
C1549 N1546 1.350 . S
C1549 C1548 1.434 . S
C1550 C1551 1.369 . S
C1550 C1552 1.419 . S
C1550 H1554 0.930 . S
C1551 C1550 1.369 . S
C1551 C1560 1.429 . S
C1552 C1550 1.419 . S
C1552 C1553 1.363 . S
C1552 H1555 0.929 . S
C1553 C1552 1.363 . S
C1553 C1559 1.428 . S
H1554 C1550 0.930 . S
H1555 C1552 0.929 . S
S1556 N1557 1.613 . S
S1556 N1558 1.610 . S
N1557 S1556 1.613 . S
N1557 C1560 1.350 . S
N1558 S1556 1.610 . S
N1558 C1559 1.351 . S
C1559 C1553 1.428 . S
C1559 N1558 1.351 . S
C1559 C1560 1.434 . S
C1560 C1551 1.429 . S
C1560 N1557 1.350 . S
C1560 C1559 1.434 . S
C1561 C1562 1.369 . S
C1561 C1563 1.419 . S
C1561 H1565 0.930 . S
C1562 C1561 1.369 . S
C1562 C1571 1.429 . S
C1563 C1561 1.419 . S
C1563 C1564 1.363 . S
C1563 H1566 0.929 . S
C1564 C1563 1.363 . S
C1564 C1570 1.428 . S
H1565 C1561 0.930 . S
H1566 C1563 0.929 . S
S1567 N1568 1.613 . S
S1567 N1569 1.610 . S
N1568 S1567 1.613 . S
N1568 C1571 1.350 . S
N1569 S1567 1.610 . S
N1569 C1570 1.351 . S
C1570 C1564 1.428 . S
C1570 N1569 1.351 . S
C1570 C1571 1.434 . S
C1571 C1562 1.429 . S
C1571 N1568 1.350 . S
C1571 C1570 1.434 . S
C1572 C1573 1.369 . S
C1572 C1574 1.419 . S
C1572 H1576 0.930 . S
C1573 C1572 1.369 . S
C1573 C1582 1.429 . S
C1574 C1572 1.419 . S
C1574 C1575 1.363 . S
C1574 H1577 0.929 . S
C1575 C1574 1.363 . S
C1575 C1581 1.428 . S
H1576 C1572 0.930 . S
H1577 C1574 0.929 . S
S1578 N1579 1.613 . S
S1578 N1580 1.610 . S
N1579 S1578 1.613 . S
N1579 C1582 1.350 . S
N1580 S1578 1.610 . S
N1580 C1581 1.351 . S
C1581 C1575 1.428 . S
C1581 N1580 1.351 . S
C1581 C1582 1.434 . S
C1582 C1573 1.429 . S
C1582 N1579 1.350 . S
C1582 C1581 1.434 . S
C1583 C1584 1.369 . S
C1583 C1585 1.419 . S
C1583 H1587 0.930 . S
C1584 C1583 1.369 . S
C1584 C1593 1.429 . S
C1585 C1583 1.419 . S
C1585 C1586 1.363 . S
C1585 H1588 0.929 . S
C1586 C1585 1.363 . S
C1586 C1592 1.428 . S
H1587 C1583 0.930 . S
H1588 C1585 0.929 . S
S1589 N1590 1.613 . S
S1589 N1591 1.610 . S
N1590 S1589 1.613 . S
N1590 C1593 1.350 . S
N1591 S1589 1.610 . S
N1591 C1592 1.351 . S
C1592 C1586 1.428 . S
C1592 N1591 1.351 . S
C1592 C1593 1.434 . S
C1593 C1584 1.429 . S
C1593 N1590 1.350 . S
C1593 C1592 1.434 . S
C1594 C1595 1.369 . S
C1594 C1596 1.419 . S
C1594 H1598 0.930 . S
C1595 C1594 1.369 . S
C1595 C1604 1.429 . S
C1596 C1594 1.419 . S
C1596 C1597 1.363 . S
C1596 H1599 0.929 . S
C1597 C1596 1.363 . S
C1597 C1603 1.428 . S
H1598 C1594 0.930 . S
H1599 C1596 0.929 . S
S1600 N1601 1.613 . S
S1600 N1602 1.610 . S
N1601 S1600 1.613 . S
N1601 C1604 1.350 . S
N1602 S1600 1.610 . S
N1602 C1603 1.351 . S
C1603 C1597 1.428 . S
C1603 N1602 1.351 . S
C1603 C1604 1.434 . S
C1604 C1595 1.429 . S
C1604 N1601 1.350 . S
C1604 C1603 1.434 . S
C1605 C1606 1.369 . S
C1605 C1607 1.419 . S
C1605 H1609 0.930 . S
C1606 C1605 1.369 . S
C1606 C1615 1.429 . S
C1607 C1605 1.419 . S
C1607 C1608 1.363 . S
C1607 H1610 0.929 . S
C1608 C1607 1.363 . S
C1608 C1614 1.428 . S
H1609 C1605 0.930 . S
H1610 C1607 0.929 . S
S1611 N1612 1.613 . S
S1611 N1613 1.610 . S
N1612 S1611 1.613 . S
N1612 C1615 1.350 . S
N1613 S1611 1.610 . S
N1613 C1614 1.351 . S
C1614 C1608 1.428 . S
C1614 N1613 1.351 . S
C1614 C1615 1.434 . S
C1615 C1606 1.429 . S
C1615 N1612 1.350 . S
C1615 C1614 1.434 . S
C1616 C1617 1.369 1_655 S
C1616 C1618 1.419 . S
C1616 H1620 0.930 . S
C1617 C1616 1.369 1_455 S
C1617 C1626 1.429 . S
C1618 C1616 1.419 . S
C1618 C1619 1.363 . S
C1618 H1621 0.929 . S
C1619 C1618 1.363 . S
C1619 C1625 1.428 1_655 S
H1620 C1616 0.930 . S
H1621 C1618 0.929 . S
S1622 N1623 1.613 . S
S1622 N1624 1.610 . S
N1623 S1622 1.613 . S
N1623 C1626 1.350 . S
N1624 S1622 1.610 . S
N1624 C1625 1.351 . S
C1625 C1619 1.428 1_455 S
C1625 N1624 1.351 . S
C1625 C1626 1.434 . S
C1626 C1617 1.429 . S
C1626 N1623 1.350 . S
C1626 C1625 1.434 . S
C1627 C1628 1.369 . S
C1627 C1629 1.419 . S
C1627 H1631 0.930 . S
C1628 C1627 1.369 . S
C1628 C1637 1.429 . S
C1629 C1627 1.419 . S
C1629 C1630 1.363 . S
C1629 H1632 0.929 . S
C1630 C1629 1.363 . S
C1630 C1636 1.428 . S
H1631 C1627 0.930 . S
H1632 C1629 0.929 . S
S1633 N1634 1.613 . S
S1633 N1635 1.610 . S
N1634 S1633 1.613 . S
N1634 C1637 1.350 . S
N1635 S1633 1.610 . S
N1635 C1636 1.351 . S
C1636 C1630 1.428 . S
C1636 N1635 1.351 . S
C1636 C1637 1.434 . S
C1637 C1628 1.429 . S
C1637 N1634 1.350 . S
C1637 C1636 1.434 . S
C1638 C1639 1.369 . S
C1638 C1640 1.419 . S
C1638 H1642 0.930 . S
C1639 C1638 1.369 . S
C1639 C1648 1.429 1_655 S
C1640 C1638 1.419 . S
C1640 C1641 1.363 1_655 S
C1640 H1643 0.929 . S
C1641 C1640 1.363 1_455 S
C1641 C1647 1.428 . S
H1642 C1638 0.930 . S
H1643 C1640 0.929 . S
S1644 N1645 1.613 . S
S1644 N1646 1.610 . S
N1645 S1644 1.613 . S
N1645 C1648 1.350 . S
N1646 S1644 1.610 . S
N1646 C1647 1.351 . S
C1647 C1641 1.428 . S
C1647 N1646 1.351 . S
C1647 C1648 1.434 . S
C1648 C1639 1.429 1_455 S
C1648 N1645 1.350 . S
C1648 C1647 1.434 . S
C1649 C1650 1.369 . S
C1649 C1651 1.419 . S
C1649 H1653 0.930 . S
C1650 C1649 1.369 . S
C1650 C1659 1.429 . S
C1651 C1649 1.419 . S
C1651 C1652 1.363 . S
C1651 H1654 0.929 . S
C1652 C1651 1.363 . S
C1652 C1658 1.428 . S
H1653 C1649 0.930 . S
H1654 C1651 0.929 . S
S1655 N1656 1.613 . S
S1655 N1657 1.610 . S
N1656 S1655 1.613 . S
N1656 C1659 1.350 . S
N1657 S1655 1.610 . S
N1657 C1658 1.351 . S
C1658 C1652 1.428 . S
C1658 N1657 1.351 . S
C1658 C1659 1.434 . S
C1659 C1650 1.429 . S
C1659 N1656 1.350 . S
C1659 C1658 1.434 . S
C1660 C1661 1.369 1_655 S
C1660 C1662 1.419 . S
C1660 H1664 0.930 . S
C1661 C1660 1.369 1_455 S
C1661 C1670 1.429 . S
C1662 C1660 1.419 . S
C1662 C1663 1.363 . S
C1662 H1665 0.929 . S
C1663 C1662 1.363 . S
C1663 C1669 1.428 1_655 S
H1664 C1660 0.930 . S
H1665 C1662 0.929 . S
S1666 N1667 1.613 . S
S1666 N1668 1.610 . S
N1667 S1666 1.613 . S
N1667 C1670 1.350 . S
N1668 S1666 1.610 . S
N1668 C1669 1.351 . S
C1669 C1663 1.428 1_455 S
C1669 N1668 1.351 . S
C1669 C1670 1.434 . S
C1670 C1661 1.429 . S
C1670 N1667 1.350 . S
C1670 C1669 1.434 . S
C1671 C1672 1.369 . S
C1671 C1673 1.419 . S
C1671 H1675 0.930 . S
C1672 C1671 1.369 . S
C1672 C1681 1.429 . S
C1673 C1671 1.419 . S
C1673 C1674 1.363 . S
C1673 H1676 0.929 . S
C1674 C1673 1.363 . S
C1674 C1680 1.428 . S
H1675 C1671 0.930 . S
H1676 C1673 0.929 . S
S1677 N1678 1.613 . S
S1677 N1679 1.610 . S
N1678 S1677 1.613 . S
N1678 C1681 1.350 . S
N1679 S1677 1.610 . S
N1679 C1680 1.351 . S
C1680 C1674 1.428 . S
C1680 N1679 1.351 . S
C1680 C1681 1.434 . S
C1681 C1672 1.429 . S
C1681 N1678 1.350 . S
C1681 C1680 1.434 . S
C1682 C1683 1.369 1_655 S
C1682 C1684 1.419 . S
C1682 H1686 0.930 . S
C1683 C1682 1.369 1_455 S
C1683 C1692 1.429 . S
C1684 C1682 1.419 . S
C1684 C1685 1.363 . S
C1684 H1687 0.929 . S
C1685 C1684 1.363 . S
C1685 C1691 1.428 1_655 S
H1686 C1682 0.930 . S
H1687 C1684 0.929 . S
S1688 N1689 1.613 . S
S1688 N1690 1.610 . S
N1689 S1688 1.613 . S
N1689 C1692 1.350 . S
N1690 S1688 1.610 . S
N1690 C1691 1.351 . S
C1691 C1685 1.428 1_455 S
C1691 N1690 1.351 . S
C1691 C1692 1.434 . S
C1692 C1683 1.429 . S
C1692 N1689 1.350 . S
C1692 C1691 1.434 . S
C1693 C1694 1.369 . S
C1693 C1695 1.419 . S
C1693 H1697 0.930 . S
C1694 C1693 1.369 . S
C1694 C1703 1.429 . S
C1695 C1693 1.419 . S
C1695 C1696 1.363 . S
C1695 H1698 0.929 . S
C1696 C1695 1.363 . S
C1696 C1702 1.428 . S
H1697 C1693 0.930 . S
H1698 C1695 0.929 . S
S1699 N1700 1.613 . S
S1699 N1701 1.610 . S
N1700 S1699 1.613 . S
N1700 C1703 1.350 . S
N1701 S1699 1.610 . S
N1701 C1702 1.351 . S
C1702 C1696 1.428 . S
C1702 N1701 1.351 . S
C1702 C1703 1.434 . S
C1703 C1694 1.429 . S
C1703 N1700 1.350 . S
C1703 C1702 1.434 . S
C1704 C1705 1.369 1_455 S
C1704 C1706 1.419 . S
C1704 H1708 0.930 . S
C1705 C1704 1.369 1_655 S
C1705 C1714 1.429 . S
C1706 C1704 1.419 . S
C1706 C1707 1.363 . S
C1706 H1709 0.929 . S
C1707 C1706 1.363 . S
C1707 C1713 1.428 1_455 S
H1708 C1704 0.930 . S
H1709 C1706 0.929 . S
S1710 N1711 1.613 . S
S1710 N1712 1.610 . S
N1711 S1710 1.613 . S
N1711 C1714 1.350 . S
N1712 S1710 1.610 . S
N1712 C1713 1.351 . S
C1713 C1707 1.428 1_655 S
C1713 N1712 1.351 . S
C1713 C1714 1.434 . S
C1714 C1705 1.429 . S
C1714 N1711 1.350 . S
C1714 C1713 1.434 . S
C1715 C1716 1.369 . S
C1715 C1717 1.419 . S
C1715 H1719 0.930 . S
C1716 C1715 1.369 . S
C1716 C1725 1.429 . S
C1717 C1715 1.419 . S
C1717 C1718 1.363 . S
C1717 H1720 0.929 . S
C1718 C1717 1.363 . S
C1718 C1724 1.428 . S
H1719 C1715 0.930 . S
H1720 C1717 0.929 . S
S1721 N1722 1.613 . S
S1721 N1723 1.610 . S
N1722 S1721 1.613 . S
N1722 C1725 1.350 . S
N1723 S1721 1.610 . S
N1723 C1724 1.351 . S
C1724 C1718 1.428 . S
C1724 N1723 1.351 . S
C1724 C1725 1.434 . S
C1725 C1716 1.429 . S
C1725 N1722 1.350 . S
C1725 C1724 1.434 . S
C1726 C1727 1.369 . S
C1726 C1728 1.419 . S
C1726 H1730 0.930 . S
C1727 C1726 1.369 . S
C1727 C1736 1.429 1_655 S
C1728 C1726 1.419 . S
C1728 C1729 1.363 1_655 S
C1728 H1731 0.929 . S
C1729 C1728 1.363 1_455 S
C1729 C1735 1.428 . S
H1730 C1726 0.930 . S
H1731 C1728 0.929 . S
S1732 N1733 1.613 . S
S1732 N1734 1.610 . S
N1733 S1732 1.613 . S
N1733 C1736 1.350 . S
N1734 S1732 1.610 . S
N1734 C1735 1.351 . S
C1735 C1729 1.428 . S
C1735 N1734 1.351 . S
C1735 C1736 1.434 . S
C1736 C1727 1.429 1_455 S
C1736 N1733 1.350 . S
C1736 C1735 1.434 . S
C1737 C1738 1.369 . S
C1737 C1739 1.419 . S
C1737 H1741 0.930 . S
C1738 C1737 1.369 . S
C1738 C1747 1.429 . S
C1739 C1737 1.419 . S
C1739 C1740 1.363 . S
C1739 H1742 0.929 . S
C1740 C1739 1.363 . S
C1740 C1746 1.428 . S
H1741 C1737 0.930 . S
H1742 C1739 0.929 . S
S1743 N1744 1.613 . S
S1743 N1745 1.610 . S
N1744 S1743 1.613 . S
N1744 C1747 1.350 . S
N1745 S1743 1.610 . S
N1745 C1746 1.351 . S
C1746 C1740 1.428 . S
C1746 N1745 1.351 . S
C1746 C1747 1.434 . S
C1747 C1738 1.429 . S
C1747 N1744 1.350 . S
C1747 C1746 1.434 . S
C1748 C1749 1.369 1_455 S
C1748 C1750 1.419 . S
C1748 H1752 0.930 . S
C1749 C1748 1.369 1_655 S
C1749 C1758 1.429 . S
C1750 C1748 1.419 . S
C1750 C1751 1.363 . S
C1750 H1753 0.929 . S
C1751 C1750 1.363 . S
C1751 C1757 1.428 1_455 S
H1752 C1748 0.930 . S
H1753 C1750 0.929 . S
S1754 N1755 1.613 . S
S1754 N1756 1.610 . S
N1755 S1754 1.613 . S
N1755 C1758 1.350 . S
N1756 S1754 1.610 . S
N1756 C1757 1.351 . S
C1757 C1751 1.428 1_655 S
C1757 N1756 1.351 . S
C1757 C1758 1.434 . S
C1758 C1749 1.429 . S
C1758 N1755 1.350 . S
C1758 C1757 1.434 . S
C1759 C1760 1.369 . S
C1759 C1761 1.419 . S
C1759 H1763 0.930 . S
C1760 C1759 1.369 . S
C1760 C1769 1.429 . S
C1761 C1759 1.419 . S
C1761 C1762 1.363 . S
C1761 H1764 0.929 . S
C1762 C1761 1.363 . S
C1762 C1768 1.428 . S
H1763 C1759 0.930 . S
H1764 C1761 0.929 . S
S1765 N1766 1.613 . S
S1765 N1767 1.610 . S
N1766 S1765 1.613 . S
N1766 C1769 1.350 . S
N1767 S1765 1.610 . S
N1767 C1768 1.351 . S
C1768 C1762 1.428 . S
C1768 N1767 1.351 . S
C1768 C1769 1.434 . S
C1769 C1760 1.429 . S
C1769 N1766 1.350 . S
C1769 C1768 1.434 . S
C1770 C1771 1.369 1_655 S
C1770 C1772 1.419 . S
C1770 H1774 0.930 . S
C1771 C1770 1.369 1_455 S
C1771 C1780 1.429 . S
C1772 C1770 1.419 . S
C1772 C1773 1.363 . S
C1772 H1775 0.929 . S
C1773 C1772 1.363 . S
C1773 C1779 1.428 1_655 S
H1774 C1770 0.930 . S
H1775 C1772 0.929 . S
S1776 N1777 1.613 . S
S1776 N1778 1.610 . S
N1777 S1776 1.613 . S
N1777 C1780 1.350 . S
N1778 S1776 1.610 . S
N1778 C1779 1.351 . S
C1779 C1773 1.428 1_455 S
C1779 N1778 1.351 . S
C1779 C1780 1.434 . S
C1780 C1771 1.429 . S
C1780 N1777 1.350 . S
C1780 C1779 1.434 . S
C1781 C1782 1.369 . S
C1781 C1783 1.419 . S
C1781 H1785 0.930 . S
C1782 C1781 1.369 . S
C1782 C1791 1.429 . S
C1783 C1781 1.419 . S
C1783 C1784 1.363 . S
C1783 H1786 0.929 . S
C1784 C1783 1.363 . S
C1784 C1790 1.428 . S
H1785 C1781 0.930 . S
H1786 C1783 0.929 . S
S1787 N1788 1.613 . S
S1787 N1789 1.610 . S
N1788 S1787 1.613 . S
N1788 C1791 1.350 . S
N1789 S1787 1.610 . S
N1789 C1790 1.351 . S
C1790 C1784 1.428 . S
C1790 N1789 1.351 . S
C1790 C1791 1.434 . S
C1791 C1782 1.429 . S
C1791 N1788 1.350 . S
C1791 C1790 1.434 . S
C1792 C1793 1.369 . S
C1792 C1794 1.419 . S
C1792 H1796 0.930 . S
C1793 C1792 1.369 . S
C1793 C1802 1.429 . S
C1794 C1792 1.419 . S
C1794 C1795 1.363 . S
C1794 H1797 0.929 . S
C1795 C1794 1.363 . S
C1795 C1801 1.428 . S
H1796 C1792 0.930 . S
H1797 C1794 0.929 . S
S1798 N1799 1.613 . S
S1798 N1800 1.610 . S
N1799 S1798 1.613 . S
N1799 C1802 1.350 . S
N1800 S1798 1.610 . S
N1800 C1801 1.351 . S
C1801 C1795 1.428 . S
C1801 N1800 1.351 . S
C1801 C1802 1.434 . S
C1802 C1793 1.429 . S
C1802 N1799 1.350 . S
C1802 C1801 1.434 . S
C1803 C1804 1.369 . S
C1803 C1805 1.419 . S
C1803 H1807 0.930 . S
C1804 C1803 1.369 . S
C1804 C1813 1.429 . S
C1805 C1803 1.419 . S
C1805 C1806 1.363 . S
C1805 H1808 0.929 . S
C1806 C1805 1.363 . S
C1806 C1812 1.428 . S
H1807 C1803 0.930 . S
H1808 C1805 0.929 . S
S1809 N1810 1.613 . S
S1809 N1811 1.610 . S
N1810 S1809 1.613 . S
N1810 C1813 1.350 . S
N1811 S1809 1.610 . S
N1811 C1812 1.351 . S
C1812 C1806 1.428 . S
C1812 N1811 1.351 . S
C1812 C1813 1.434 . S
C1813 C1804 1.429 . S
C1813 N1810 1.350 . S
C1813 C1812 1.434 . S
C1814 C1815 1.369 . S
C1814 C1816 1.419 . S
C1814 H1818 0.930 . S
C1815 C1814 1.369 . S
C1815 C1824 1.429 . S
C1816 C1814 1.419 . S
C1816 C1817 1.363 . S
C1816 H1819 0.929 . S
C1817 C1816 1.363 . S
C1817 C1823 1.428 . S
H1818 C1814 0.930 . S
H1819 C1816 0.929 . S
S1820 N1821 1.613 . S
S1820 N1822 1.610 . S
N1821 S1820 1.613 . S
N1821 C1824 1.350 . S
N1822 S1820 1.610 . S
N1822 C1823 1.351 . S
C1823 C1817 1.428 . S
C1823 N1822 1.351 . S
C1823 C1824 1.434 . S
C1824 C1815 1.429 . S
C1824 N1821 1.350 . S
C1824 C1823 1.434 . S
C1825 C1826 1.369 . S
C1825 C1827 1.419 . S
C1825 H1829 0.930 . S
C1826 C1825 1.369 . S
C1826 C1835 1.429 . S
C1827 C1825 1.419 . S
C1827 C1828 1.363 . S
C1827 H1830 0.929 . S
C1828 C1827 1.363 . S
C1828 C1834 1.428 . S
H1829 C1825 0.930 . S
H1830 C1827 0.929 . S
S1831 N1832 1.613 . S
S1831 N1833 1.610 . S
N1832 S1831 1.613 . S
N1832 C1835 1.350 . S
N1833 S1831 1.610 . S
N1833 C1834 1.351 . S
C1834 C1828 1.428 . S
C1834 N1833 1.351 . S
C1834 C1835 1.434 . S
C1835 C1826 1.429 . S
C1835 N1832 1.350 . S
C1835 C1834 1.434 . S
C1836 C1837 1.369 . S
C1836 C1838 1.419 . S
C1836 H1840 0.930 . S
C1837 C1836 1.369 . S
C1837 C1846 1.429 . S
C1838 C1836 1.419 . S
C1838 C1839 1.363 . S
C1838 H1841 0.929 . S
C1839 C1838 1.363 . S
C1839 C1845 1.428 . S
H1840 C1836 0.930 . S
H1841 C1838 0.929 . S
S1842 N1843 1.613 . S
S1842 N1844 1.610 1_545 S
N1843 S1842 1.613 . S
N1843 C1846 1.350 1_545 S
N1844 S1842 1.610 1_565 S
N1844 C1845 1.351 . S
C1845 C1839 1.428 . S
C1845 N1844 1.351 . S
C1845 C1846 1.434 . S
C1846 C1837 1.429 . S
C1846 N1843 1.350 1_565 S
C1846 C1845 1.434 . S
C1847 C1848 1.369 . S
C1847 C1849 1.419 . S
C1847 H1851 0.930 . S
C1848 C1847 1.369 . S
C1848 C1857 1.429 . S
C1849 C1847 1.419 . S
C1849 C1850 1.363 . S
C1849 H1852 0.929 . S
C1850 C1849 1.363 . S
C1850 C1856 1.428 . S
H1851 C1847 0.930 . S
H1852 C1849 0.929 . S
S1853 N1854 1.613 . S
S1853 N1855 1.610 . S
N1854 S1853 1.613 . S
N1854 C1857 1.350 . S
N1855 S1853 1.610 . S
N1855 C1856 1.351 . S
C1856 C1850 1.428 . S
C1856 N1855 1.351 . S
C1856 C1857 1.434 . S
C1857 C1848 1.429 . S
C1857 N1854 1.350 . S
C1857 C1856 1.434 . S
C1858 C1859 1.369 . S
C1858 C1860 1.419 . S
C1858 H1862 0.930 . S
C1859 C1858 1.369 . S
C1859 C1868 1.429 . S
C1860 C1858 1.419 . S
C1860 C1861 1.363 . S
C1860 H1863 0.929 . S
C1861 C1860 1.363 . S
C1861 C1867 1.428 . S
H1862 C1858 0.930 . S
H1863 C1860 0.929 . S
S1864 N1865 1.613 . S
S1864 N1866 1.610 . S
N1865 S1864 1.613 . S
N1865 C1868 1.350 . S
N1866 S1864 1.610 . S
N1866 C1867 1.351 . S
C1867 C1861 1.428 . S
C1867 N1866 1.351 . S
C1867 C1868 1.434 . S
C1868 C1859 1.429 . S
C1868 N1865 1.350 . S
C1868 C1867 1.434 . S
C1869 C1870 1.369 . S
C1869 C1871 1.419 . S
C1869 H1873 0.930 . S
C1870 C1869 1.369 . S
C1870 C1879 1.429 . S
C1871 C1869 1.419 . S
C1871 C1872 1.363 . S
C1871 H1874 0.929 . S
C1872 C1871 1.363 . S
C1872 C1878 1.428 . S
H1873 C1869 0.930 . S
H1874 C1871 0.929 . S
S1875 N1876 1.613 . S
S1875 N1877 1.610 . S
N1876 S1875 1.613 . S
N1876 C1879 1.350 . S
N1877 S1875 1.610 . S
N1877 C1878 1.351 . S
C1878 C1872 1.428 . S
C1878 N1877 1.351 . S
C1878 C1879 1.434 . S
C1879 C1870 1.429 . S
C1879 N1876 1.350 . S
C1879 C1878 1.434 . S
C1880 C1881 1.369 . S
C1880 C1882 1.419 . S
C1880 H1884 0.930 . S
C1881 C1880 1.369 . S
C1881 C1890 1.429 . S
C1882 C1880 1.419 . S
C1882 C1883 1.363 . S
C1882 H1885 0.929 . S
C1883 C1882 1.363 . S
C1883 C1889 1.428 . S
H1884 C1880 0.930 . S
H1885 C1882 0.929 . S
S1886 N1887 1.613 . S
S1886 N1888 1.610 . S
N1887 S1886 1.613 . S
N1887 C1890 1.350 . S
N1888 S1886 1.610 . S
N1888 C1889 1.351 . S
C1889 C1883 1.428 . S
C1889 N1888 1.351 . S
C1889 C1890 1.434 . S
C1890 C1881 1.429 . S
C1890 N1887 1.350 . S
C1890 C1889 1.434 . S
C1891 C1892 1.369 . S
C1891 C1893 1.419 . S
C1891 H1895 0.930 . S
C1892 C1891 1.369 . S
C1892 C1901 1.429 . S
C1893 C1891 1.419 . S
C1893 C1894 1.363 . S
C1893 H1896 0.929 . S
C1894 C1893 1.363 . S
C1894 C1900 1.428 . S
H1895 C1891 0.930 . S
H1896 C1893 0.929 . S
S1897 N1898 1.613 . S
S1897 N1899 1.610 . S
N1898 S1897 1.613 . S
N1898 C1901 1.350 . S
N1899 S1897 1.610 . S
N1899 C1900 1.351 . S
C1900 C1894 1.428 . S
C1900 N1899 1.351 . S
C1900 C1901 1.434 . S
C1901 C1892 1.429 . S
C1901 N1898 1.350 . S
C1901 C1900 1.434 . S
C1902 C1903 1.369 . S
C1902 C1904 1.419 . S
C1902 H1906 0.930 . S
C1903 C1902 1.369 . S
C1903 C1912 1.429 . S
C1904 C1902 1.419 . S
C1904 C1905 1.363 . S
C1904 H1907 0.929 . S
C1905 C1904 1.363 . S
C1905 C1911 1.428 . S
H1906 C1902 0.930 . S
H1907 C1904 0.929 . S
S1908 N1909 1.613 . S
S1908 N1910 1.610 . S
N1909 S1908 1.613 . S
N1909 C1912 1.350 . S
N1910 S1908 1.610 . S
N1910 C1911 1.351 . S
C1911 C1905 1.428 . S
C1911 N1910 1.351 . S
C1911 C1912 1.434 . S
C1912 C1903 1.429 . S
C1912 N1909 1.350 . S
C1912 C1911 1.434 . S
C1913 C1914 1.369 . S
C1913 C1915 1.419 . S
C1913 H1917 0.930 . S
C1914 C1913 1.369 . S
C1914 C1923 1.429 . S
C1915 C1913 1.419 . S
C1915 C1916 1.363 . S
C1915 H1918 0.929 . S
C1916 C1915 1.363 . S
C1916 C1922 1.428 . S
H1917 C1913 0.930 . S
H1918 C1915 0.929 . S
S1919 N1920 1.613 . S
S1919 N1921 1.610 . S
N1920 S1919 1.613 . S
N1920 C1923 1.350 . S
N1921 S1919 1.610 . S
N1921 C1922 1.351 . S
C1922 C1916 1.428 . S
C1922 N1921 1.351 . S
C1922 C1923 1.434 . S
C1923 C1914 1.429 . S
C1923 N1920 1.350 . S
C1923 C1922 1.434 . S
C1924 C1925 1.369 . S
C1924 C1926 1.419 . S
C1924 H1928 0.930 . S
C1925 C1924 1.369 . S
C1925 C1934 1.429 . S
C1926 C1924 1.419 . S
C1926 C1927 1.363 . S
C1926 H1929 0.929 . S
C1927 C1926 1.363 . S
C1927 C1933 1.428 . S
H1928 C1924 0.930 . S
H1929 C1926 0.929 . S
S1930 N1931 1.613 . S
S1930 N1932 1.610 . S
N1931 S1930 1.613 . S
N1931 C1934 1.350 . S
N1932 S1930 1.610 . S
N1932 C1933 1.351 . S
C1933 C1927 1.428 . S
C1933 N1932 1.351 . S
C1933 C1934 1.434 . S
C1934 C1925 1.429 . S
C1934 N1931 1.350 . S
C1934 C1933 1.434 . S
C1935 C1936 1.369 . S
C1935 C1937 1.419 . S
C1935 H1939 0.930 . S
C1936 C1935 1.369 . S
C1936 C1945 1.429 . S
C1937 C1935 1.419 . S
C1937 C1938 1.363 . S
C1937 H1940 0.929 . S
C1938 C1937 1.363 . S
C1938 C1944 1.428 . S
H1939 C1935 0.930 . S
H1940 C1937 0.929 . S
S1941 N1942 1.613 . S
S1941 N1943 1.610 . S
N1942 S1941 1.613 . S
N1942 C1945 1.350 . S
N1943 S1941 1.610 . S
N1943 C1944 1.351 . S
C1944 C1938 1.428 . S
C1944 N1943 1.351 . S
C1944 C1945 1.434 . S
C1945 C1936 1.429 . S
C1945 N1942 1.350 . S
C1945 C1944 1.434 . S
C1946 C1947 1.369 . S
C1946 C1948 1.419 . S
C1946 H1950 0.930 . S
C1947 C1946 1.369 . S
C1947 C1956 1.429 . S
C1948 C1946 1.419 . S
C1948 C1949 1.363 . S
C1948 H1951 0.929 . S
C1949 C1948 1.363 . S
C1949 C1955 1.428 . S
H1950 C1946 0.930 . S
H1951 C1948 0.929 . S
S1952 N1953 1.613 . S
S1952 N1954 1.610 . S
N1953 S1952 1.613 . S
N1953 C1956 1.350 . S
N1954 S1952 1.610 . S
N1954 C1955 1.351 . S
C1955 C1949 1.428 . S
C1955 N1954 1.351 . S
C1955 C1956 1.434 . S
C1956 C1947 1.429 . S
C1956 N1953 1.350 . S
C1956 C1955 1.434 . S
C1957 C1958 1.369 . S
C1957 C1959 1.419 . S
C1957 H1961 0.930 . S
C1958 C1957 1.369 . S
C1958 C1967 1.429 . S
C1959 C1957 1.419 . S
C1959 C1960 1.363 . S
C1959 H1962 0.929 . S
C1960 C1959 1.363 . S
C1960 C1966 1.428 . S
H1961 C1957 0.930 . S
H1962 C1959 0.929 . S
S1963 N1964 1.613 . S
S1963 N1965 1.610 . S
N1964 S1963 1.613 . S
N1964 C1967 1.350 . S
N1965 S1963 1.610 . S
N1965 C1966 1.351 . S
C1966 C1960 1.428 . S
C1966 N1965 1.351 . S
C1966 C1967 1.434 . S
C1967 C1958 1.429 . S
C1967 N1964 1.350 . S
C1967 C1966 1.434 . S
C1089 C417 0.696 . S
C1091 C9 0.684 . S
C1100 C723 0.691 . S
C1102 C43 0.688 . S
C1111 C213 0.696 . S
C1113 C77 0.684 . S
C1122 C1063 0.685 . S
C1124 C111 0.692 . S
C1133 C281 0.684 . S
C1135 C145 0.693 . S
C1144 C587 0.689 . S
C1146 C179 0.690 . S
C1155 C247 0.696 . S
C1157 C927 0.684 . S
C1166 C315 0.696 . S
C1168 C995 0.684 . S
C1177 C485 0.684 . S
C1179 C349 0.694 . S
C1188 C383 0.695 . S
C1190 C791 0.686 . S
C1199 C859 0.693 . S
C1201 C451 0.686 . S
C1210 C519 0.682 . S
C1212 C655 0.695 . S
C1221 C961 0.696 . S
C1223 C553 0.684 . S
C1232 C757 0.682 . S
C1234 C621 0.695 . S
C1243 C689 0.696 . S
C1245 C825 0.684 . S
C1254 C1029 0.693 . S
C1256 C893 0.686 . S
C1265 C5 0.747 . S
C1267 C73 0.769 . S
C1276 C39 0.774 . S
C1278 C107 0.750 . S
C1287 C209 0.747 . S
C1289 C141 0.770 . S
C1298 C243 0.756 . S
C1300 C175 0.768 . S
C1309 C277 0.747 . S
C1311 C345 0.771 . S
C1320 C379 0.748 . S
C1322 C311 0.771 . S
C1331 C481 0.747 . S
C1333 C413 0.770 . S
C1342 C515 0.767 . S
C1344 C447 0.753 . S
C1353 C549 0.747 . S
C1355 C617 0.768 . S
C1364 C651 0.749 . S
C1366 C583 0.771 . S
C1375 C753 0.747 . S
C1377 C685 0.771 . S
C1386 C787 0.774 . S
C1388 C719 0.750 . S
C1397 C821 0.748 . S
C1399 C889 0.767 . S
C1408 C923 0.755 . S
C1410 C855 0.759 . S
C1419 C957 0.773 . S
C1421 C1025 0.750 . S
C1430 C1059 0.768 . S
C1432 C991 0.752 . S
C1441 C33 1.519 . S
C1443 C67 1.516 . S
C1452 C135 1.519 . S
C1454 C101 1.516 . S
C1463 C203 1.516 . S
C1465 C169 1.519 . S
C1474 C237 1.516 . S
C1476 C271 1.519 . S
C1485 C305 1.516 . S
C1487 C339 1.519 . S
C1496 C373 1.517 . S
C1498 C407 1.518 . S
C1507 C475 1.520 . S
C1509 C441 1.516 . S
C1518 C543 1.516 . S
C1520 C509 1.519 . S
C1529 C577 1.520 . S
C1531 C611 1.516 . S
C1540 C679 1.519 . S
C1542 C645 1.517 . S
C1551 C747 1.516 . S
C1553 C713 1.519 . S
C1562 C815 1.516 . S
C1564 C781 1.519 . S
C1573 C883 1.517 . S
C1575 C849 1.518 . S
C1584 C951 1.516 . S
C1586 C917 1.519 . S
C1595 C985 1.516 . S
C1597 C1019 1.519 . S
C1606 C1087 1.517 . S
C1608 C1053 1.518 . S
C1617 C2 2.391 . S
C1619 C224 2.388 1_545 S
C1628 C1074 2.386 . S
C1630 C36 2.394 . S
C1639 C428 2.388 . S
C1641 C70 2.392 . S
C1650 C104 2.395 . S
C1652 C734 2.385 1_545 S
C1661 C88 2.385 1_565 S
C1663 C138 2.394 . S
C1672 C938 2.385 . S
C1674 C172 2.394 . S
C1683 C292 2.387 . S
C1685 C206 2.393 . S
C1694 C598 2.389 1_565 S
C1696 C240 2.392 . S
C1705 C496 2.387 . S
C1707 C274 2.393 . S
C1716 C802 2.386 . S
C1718 C308 2.393 . S
C1727 C156 2.388 . S
C1729 C342 2.392 . S
C1738 C1006 2.389 . S
C1740 C376 2.392 . S
C1749 C410 2.391 . S
C1751 C360 2.388 . S
C1760 C666 2.385 . S
C1762 C444 2.393 . S
C1771 C20 2.385 . S
C1773 C478 2.394 . S
C1782 C870 2.389 . S
C1784 C512 2.392 . S
C1793 C768 2.389 1_545 S
C1795 C546 2.392 . S
C1804 C580 2.394 . S
C1806 C530 2.385 . S
C1815 C972 2.386 . S
C1817 C614 2.393 . S
C1826 C648 2.395 . S
C1828 C190 2.386 1_545 S
C1837 C632 2.385 1_565 S
C1839 C682 2.394 . S
C1848 C716 2.393 . S
C1850 C394 2.388 . S
C1859 C750 2.395 . S
C1861 C836 2.385 . S
C1870 C784 2.394 . S
C1872 C54 2.386 1_565 S
C1881 C818 2.391 . S
C1883 C1040 2.388 . S
C1892 C852 2.392 . S
C1894 C258 2.388 . S
C1903 C886 2.393 . S
C1905 C700 2.386 . S
C1914 C920 2.391 . S
C1916 C462 2.388 . S
C1925 C954 2.393 . S
C1927 C904 2.386 . S
C1936 C122 2.385 . S
C1938 C988 2.394 . S
C1947 C1022 2.391 . S
C1949 C564 2.388 . S
C1958 C326 2.388 . S
C1960 C1056 2.393 . S
