# Generated by pormake.
# Topology lcs, (4)-cn, num edge types: 1
# Building blocks:
#     Node 0, Type 0, BuildingBlock: CEKHIL_clean_sbu_0, # of connection points: 4
#     Node 1, Type 0, BuildingBlock: CEKHIL_clean_sbu_0, # of connection points: 4
#     Node 2, Type 0, BuildingBlock: CEKHIL_clean_sbu_0, # of connection points: 4
#     Node 3, Type 0, BuildingBlock: CEKHIL_clean_sbu_0, # of connection points: 4
#     Node 4, Type 0, BuildingBlock: CEKHIL_clean_sbu_0, # of connection points: 4
#     Node 5, Type 0, BuildingBlock: CEKHIL_clean_sbu_0, # of connection points: 4
#     Node 6, Type 0, BuildingBlock: CEKHIL_clean_sbu_0, # of connection points: 4
#     Node 7, Type 0, BuildingBlock: CEKHIL_clean_sbu_0, # of connection points: 4
#     Node 8, Type 0, BuildingBlock: CEKHIL_clean_sbu_0, # of connection points: 4
#     Node 9, Type 0, BuildingBlock: CEKHIL_clean_sbu_0, # of connection points: 4
#     Node 10, Type 0, BuildingBlock: CEKHIL_clean_sbu_0, # of connection points: 4
#     Node 11, Type 0, BuildingBlock: CEKHIL_clean_sbu_0, # of connection points: 4
#     Node 12, Type 0, BuildingBlock: CEKHIL_clean_sbu_0, # of connection points: 4
#     Node 13, Type 0, BuildingBlock: CEKHIL_clean_sbu_0, # of connection points: 4
#     Node 14, Type 0, BuildingBlock: CEKHIL_clean_sbu_0, # of connection points: 4
#     Node 15, Type 0, BuildingBlock: CEKHIL_clean_sbu_0, # of connection points: 4
#     Node 16, Type 0, BuildingBlock: CEKHIL_clean_sbu_0, # of connection points: 4
#     Node 17, Type 0, BuildingBlock: CEKHIL_clean_sbu_0, # of connection points: 4
#     Node 18, Type 0, BuildingBlock: CEKHIL_clean_sbu_0, # of connection points: 4
#     Node 19, Type 0, BuildingBlock: CEKHIL_clean_sbu_0, # of connection points: 4
#     Node 20, Type 0, BuildingBlock: CEKHIL_clean_sbu_0, # of connection points: 4
#     Node 21, Type 0, BuildingBlock: CEKHIL_clean_sbu_0, # of connection points: 4
#     Node 22, Type 0, BuildingBlock: CEKHIL_clean_sbu_0, # of connection points: 4
#     Node 23, Type 0, BuildingBlock: CEKHIL_clean_sbu_0, # of connection points: 4
#     Edge 24, Type (0, 0), BuildingBlock: XUDNAN_clean_linker_2, # of connection points: 2
#     Edge 25, Type (0, 0), BuildingBlock: XUDNAN_clean_linker_2, # of connection points: 2
#     Edge 26, Type (0, 0), BuildingBlock: XUDNAN_clean_linker_2, # of connection points: 2
#     Edge 27, Type (0, 0), BuildingBlock: XUDNAN_clean_linker_2, # of connection points: 2
#     Edge 28, Type (0, 0), BuildingBlock: XUDNAN_clean_linker_2, # of connection points: 2
#     Edge 29, Type (0, 0), BuildingBlock: XUDNAN_clean_linker_2, # of connection points: 2
#     Edge 30, Type (0, 0), BuildingBlock: XUDNAN_clean_linker_2, # of connection points: 2
#     Edge 31, Type (0, 0), BuildingBlock: XUDNAN_clean_linker_2, # of connection points: 2
#     Edge 32, Type (0, 0), BuildingBlock: XUDNAN_clean_linker_2, # of connection points: 2
#     Edge 33, Type (0, 0), BuildingBlock: XUDNAN_clean_linker_2, # of connection points: 2
#     Edge 34, Type (0, 0), BuildingBlock: XUDNAN_clean_linker_2, # of connection points: 2
#     Edge 35, Type (0, 0), BuildingBlock: XUDNAN_clean_linker_2, # of connection points: 2
#     Edge 36, Type (0, 0), BuildingBlock: XUDNAN_clean_linker_2, # of connection points: 2
#     Edge 37, Type (0, 0), BuildingBlock: XUDNAN_clean_linker_2, # of connection points: 2
#     Edge 38, Type (0, 0), BuildingBlock: XUDNAN_clean_linker_2, # of connection points: 2
#     Edge 39, Type (0, 0), BuildingBlock: XUDNAN_clean_linker_2, # of connection points: 2
#     Edge 40, Type (0, 0), BuildingBlock: XUDNAN_clean_linker_2, # of connection points: 2
#     Edge 41, Type (0, 0), BuildingBlock: XUDNAN_clean_linker_2, # of connection points: 2
#     Edge 42, Type (0, 0), BuildingBlock: XUDNAN_clean_linker_2, # of connection points: 2
#     Edge 43, Type (0, 0), BuildingBlock: XUDNAN_clean_linker_2, # of connection points: 2
#     Edge 44, Type (0, 0), BuildingBlock: XUDNAN_clean_linker_2, # of connection points: 2
#     Edge 45, Type (0, 0), BuildingBlock: XUDNAN_clean_linker_2, # of connection points: 2
#     Edge 46, Type (0, 0), BuildingBlock: XUDNAN_clean_linker_2, # of connection points: 2
#     Edge 47, Type (0, 0), BuildingBlock: XUDNAN_clean_linker_2, # of connection points: 2
#     Edge 48, Type (0, 0), BuildingBlock: XUDNAN_clean_linker_2, # of connection points: 2
#     Edge 49, Type (0, 0), BuildingBlock: XUDNAN_clean_linker_2, # of connection points: 2
#     Edge 50, Type (0, 0), BuildingBlock: XUDNAN_clean_linker_2, # of connection points: 2
#     Edge 51, Type (0, 0), BuildingBlock: XUDNAN_clean_linker_2, # of connection points: 2
#     Edge 52, Type (0, 0), BuildingBlock: XUDNAN_clean_linker_2, # of connection points: 2
#     Edge 53, Type (0, 0), BuildingBlock: XUDNAN_clean_linker_2, # of connection points: 2
#     Edge 54, Type (0, 0), BuildingBlock: XUDNAN_clean_linker_2, # of connection points: 2
#     Edge 55, Type (0, 0), BuildingBlock: XUDNAN_clean_linker_2, # of connection points: 2
#     Edge 56, Type (0, 0), BuildingBlock: XUDNAN_clean_linker_2, # of connection points: 2
#     Edge 57, Type (0, 0), BuildingBlock: XUDNAN_clean_linker_2, # of connection points: 2
#     Edge 58, Type (0, 0), BuildingBlock: XUDNAN_clean_linker_2, # of connection points: 2
#     Edge 59, Type (0, 0), BuildingBlock: XUDNAN_clean_linker_2, # of connection points: 2
#     Edge 60, Type (0, 0), BuildingBlock: XUDNAN_clean_linker_2, # of connection points: 2
#     Edge 61, Type (0, 0), BuildingBlock: XUDNAN_clean_linker_2, # of connection points: 2
#     Edge 62, Type (0, 0), BuildingBlock: XUDNAN_clean_linker_2, # of connection points: 2
#     Edge 63, Type (0, 0), BuildingBlock: XUDNAN_clean_linker_2, # of connection points: 2
#     Edge 64, Type (0, 0), BuildingBlock: XUDNAN_clean_linker_2, # of connection points: 2
#     Edge 65, Type (0, 0), BuildingBlock: XUDNAN_clean_linker_2, # of connection points: 2
#     Edge 66, Type (0, 0), BuildingBlock: XUDNAN_clean_linker_2, # of connection points: 2
#     Edge 67, Type (0, 0), BuildingBlock: XUDNAN_clean_linker_2, # of connection points: 2
#     Edge 68, Type (0, 0), BuildingBlock: XUDNAN_clean_linker_2, # of connection points: 2
#     Edge 69, Type (0, 0), BuildingBlock: XUDNAN_clean_linker_2, # of connection points: 2
#     Edge 70, Type (0, 0), BuildingBlock: XUDNAN_clean_linker_2, # of connection points: 2
#     Edge 71, Type (0, 0), BuildingBlock: XUDNAN_clean_linker_2, # of connection points: 2
# Relax obj value: 0.002
# Max RMSD: 0.026
# Mean RMSD: 0.021
data_MOF--net-lcs--node1-CEKHIL_clean_sbu_0--edge1-XUDNAN_clean_linker_2
_symmetry_space_group_name_H-M    P1
_symmetry_Int_Tables_number       1
_symmetry_cell_setting            triclinic
loop_
_symmetry_equiv_pos_as_xyz
'x, y, z'
_cell_length_a     49.357509
_cell_length_b     48.375977
_cell_length_c     48.382464
_cell_angle_alpha  90.918341
_cell_angle_beta   90.403883
_cell_angle_gamma 90.612205
loop_
_atom_site_label
_atom_site_type_symbol
_atom_site_fract_x
_atom_site_fract_y
_atom_site_fract_z
_atom_type_partial_charge
Co0 Co 1.00397 0.26487 0.40037 0.0
O1 O 0.96836 0.27998 0.39406 0.0
O2 O 0.98107 0.25817 0.43177 0.0
C3 C 0.02668 0.30297 0.38605 0.0
O4 O 0.03841 0.24786 0.41614 0.0
Co5 Co 0.04567 0.25438 0.35521 0.0
O6 O 0.07223 0.2492 0.38559 0.0
C7 C 0.99982 0.21504 0.36086 0.0
C8 C 0.96241 0.27155 0.41867 0.0
C9 C 0.06346 0.24456 0.40975 0.0
O10 O 0.99244 0.22825 0.38284 0.0
O11 O 0.01962 0.22315 0.34593 0.0
O12 O 0.01716 0.30161 0.41093 0.0
O13 O 0.02107 0.28204 0.3699 0.0
Co14 Co 0.02665 0.75786 0.64196 0.0
O15 O 0.06195 0.74533 0.65273 0.0
O16 O 0.04227 0.73373 0.61321 0.0
C17 C 0.03715 0.80233 0.65366 0.0
O18 O 0.9902 0.76849 0.62366 0.0
Co19 Co 0.9893 0.78482 0.68449 0.0
O20 O 0.97021 0.79935 0.65187 0.0
C21 C 0.99316 0.72378 0.6821 0.0
C22 C 0.0638 0.73299 0.62896 0.0
C23 C 0.97173 0.78668 0.62871 0.0
O24 O 0.00889 0.72547 0.66102 0.0
O25 O 0.98429 0.74509 0.6951 0.0
O26 O 0.04302 0.79211 0.62955 0.0
O27 O 0.02589 0.78526 0.67051 0.0
Co28 Co 0.51325 0.76773 0.88865 0.0
O29 O 0.47746 0.78316 0.88417 0.0
O30 O 0.49226 0.76227 0.92163 0.0
C31 C 0.53604 0.80477 0.87202 0.0
O32 O 0.54845 0.75104 0.90284 0.0
Co33 Co 0.55096 0.7544 0.8407 0.0
O34 O 0.57841 0.74445 0.86879 0.0
C35 C 0.50511 0.71675 0.85079 0.0
C36 C 0.47291 0.7754 0.90933 0.0
C37 C 0.5719 0.74365 0.89415 0.0
O38 O 0.50009 0.73069 0.87307 0.0
O39 O 0.52354 0.724 0.83383 0.0
O40 O 0.5276 0.8044 0.89735 0.0
O41 O 0.52882 0.78373 0.85662 0.0
Co42 Co 0.52884 0.25555 0.14101 0.0
O43 O 0.56487 0.2402 0.14481 0.0
O44 O 0.53676 0.23104 0.11006 0.0
C45 C 0.54153 0.29951 0.15207 0.0
O46 O 0.49105 0.2682 0.12842 0.0
Co47 Co 0.49806 0.28355 0.18877 0.0
O48 O 0.47466 0.29874 0.15926 0.0
C49 C 0.49872 0.22233 0.18465 0.0
C50 C 0.56037 0.22737 0.12144 0.0
C51 C 0.47355 0.28652 0.13578 0.0
O52 O 0.51235 0.22366 0.16206 0.0
O53 O 0.49213 0.24377 0.19887 0.0
O54 O 0.54453 0.28979 0.1271 0.0
O55 O 0.53256 0.28212 0.16992 0.0
Co56 Co 0.02417 0.7553 0.12992 0.0
O57 O 0.05952 0.77223 0.13461 0.0
O58 O 0.04517 0.75052 0.09649 0.0
C59 C 1.00097 0.79224 0.14645 0.0
O60 O 0.98897 0.73669 0.11633 0.0
Co61 Co 0.98865 0.74192 0.17884 0.0
O62 O 0.96042 0.73062 0.15169 0.0
C63 C 0.03404 0.70519 0.16696 0.0
C64 C 0.06416 0.76456 0.1093 0.0
C65 C 0.96591 0.72905 0.12609 0.0
O66 O 0.03855 0.71938 0.14513 0.0
O67 O 0.01566 0.71161 0.18434 0.0
O68 O 0.0089 0.79062 0.12101 0.0
O69 O 0.00887 0.77232 0.16224 0.0
Co70 Co 0.49716 0.76088 0.38506 0.0
O71 O 0.46422 0.74147 0.37515 0.0
O72 O 0.48641 0.73514 0.41416 0.0
C73 C 0.48001 0.80296 0.37415 0.0
O74 O 0.53197 0.77813 0.40241 0.0
Co75 Co 0.52832 0.79325 0.34092 0.0
O76 O 0.54893 0.80894 0.37266 0.0
C77 C 0.53563 0.73265 0.34459 0.0
C78 C 0.46531 0.72931 0.39873 0.0
C79 C 0.54924 0.79731 0.39608 0.0
O80 O 0.51946 0.73163 0.36537 0.0
O81 O 0.54078 0.75488 0.33151 0.0
O82 O 0.47614 0.7922 0.39818 0.0
O83 O 0.49299 0.78752 0.35678 0.0
Co84 Co 0.51555 0.26373 0.64134 0.0
O85 O 0.55005 0.28111 0.65031 0.0
O86 O 0.53772 0.26563 0.60868 0.0
C87 C 0.4896 0.29536 0.66326 0.0
O88 O 0.48207 0.24584 0.62313 0.0
Co89 Co 0.47686 0.24051 0.68507 0.0
O90 O 0.44994 0.23735 0.65451 0.0
C91 C 0.52619 0.20935 0.67093 0.0
C92 C 0.55578 0.27797 0.62428 0.0
C93 C 0.45781 0.23834 0.62955 0.0
O94 O 0.53088 0.22637 0.65123 0.0
O95 O 0.50648 0.21231 0.68779 0.0
O96 O 0.49882 0.29994 0.63868 0.0
O97 O 0.49788 0.27294 0.67475 0.0
Co98 Co 1.00002 0.26568 0.89319 0.0
O99 O 0.96342 0.2516 0.88882 0.0
O100 O 0.98934 0.24411 0.92523 0.0
C101 C 0.98856 0.30891 0.87999 0.0
O102 O 0.03813 0.27831 0.9063 0.0
Co103 Co 0.03271 0.28849 0.84527 0.0
O104 O 0.05587 0.30593 0.87421 0.0
C105 C 0.02993 0.22811 0.85252 0.0
C106 C 0.96582 0.24114 0.91316 0.0
C107 C 0.05632 0.29578 0.89828 0.0
O108 O 0.01515 0.23172 0.87409 0.0
O109 O 0.03854 0.24801 0.83773 0.0
O110 O 0.98567 0.30091 0.90529 0.0
O111 O 0.99751 0.29032 0.86287 0.0
Co112 Co 0.37888 1.00573 0.27484 0.0
O113 O 0.36753 0.97187 0.29183 0.0
O114 O 0.40878 0.97977 0.27619 0.0
C115 C 0.36021 0.03348 0.30774 0.0
O116 O 0.39873 0.0387 0.25756 0.0
Co117 Co 0.3375 0.04863 0.25435 0.0
O118 O 0.36946 0.07369 0.25336 0.0
C119 C 0.34703 0.99788 0.22072 0.0
C120 C 0.39223 0.96342 0.28911 0.0
C121 C 0.39343 0.06423 0.25254 0.0
O122 O 0.36671 0.99116 0.23696 0.0
O123 O 0.33201 0.01887 0.22536 0.0
O124 O 0.38379 0.02258 0.31174 0.0
O125 O 0.34802 0.02599 0.28508 0.0
Co126 Co 0.25493 0.13691 0.50873 0.0
O127 O 0.21797 0.13192 0.4961 0.0
O128 O 0.23387 0.16926 0.51809 0.0
C129 C 0.27413 0.12301 0.4684 0.0
O130 O 0.29169 0.15053 0.52384 0.0
Co131 Co 0.29471 0.0888 0.51317 0.0
O132 O 0.32274 0.11844 0.51366 0.0
C133 C 0.25411 0.09711 0.55731 0.0
C134 C 0.21372 0.15667 0.50568 0.0
C135 C 0.31647 0.1427 0.52167 0.0
O136 O 0.24573 0.11901 0.54522 0.0
O137 O 0.27269 0.08169 0.54728 0.0
O138 O 0.26553 0.14805 0.47189 0.0
O139 O 0.26919 0.10635 0.48853 0.0
Co140 Co 0.13479 0.01591 0.77488 0.0
O141 O 0.12648 0.9955 0.80789 0.0
O142 O 0.1671 0.99816 0.78905 0.0
C143 C 0.11228 0.05459 0.7878 0.0
O144 O 0.15171 0.0348 0.74144 0.0
Co145 Co 0.09043 0.03564 0.73476 0.0
O146 O 0.12027 0.0535 0.71394 0.0
C147 C 0.10307 0.97642 0.73774 0.0
C148 C 0.15181 0.98864 0.80857 0.0
C149 C 0.14493 0.04866 0.71995 0.0
O150 O 0.12492 0.98229 0.75143 0.0
O151 O 0.08516 0.99439 0.73187 0.0
O152 O 0.137 0.05072 0.79623 0.0
O153 O 0.10165 0.03468 0.77321 0.0
Co154 Co 0.26773 0.87706 0.99666 0.0
O155 O 0.30254 0.88073 0.97859 0.0
O156 O 0.28913 0.84462 1.00264 0.0
C157 C 0.24275 0.89191 0.96038 0.0
O158 O 0.23418 0.86345 0.01678 0.0
Co159 Co 0.22839 0.92393 0.00918 0.0
O160 O 0.20105 0.89461 0.01703 0.0
C161 C 0.27652 0.91708 0.04544 0.0
C162 C 0.30768 0.85618 0.98772 0.0
C163 C 0.2096 0.8704 0.02169 0.0
O164 O 0.28271 0.89487 0.0319 0.0
O165 O 0.25658 0.93233 0.03854 0.0
O166 O 0.25074 0.86644 0.96144 0.0
O167 O 0.25101 0.90804 0.98035 0.0
Co168 Co 0.27654 0.37746 0.01834 0.0
O169 O 0.31158 0.3809 0.03666 0.0
O170 O 0.28767 0.34217 0.03298 0.0
C171 C 0.28864 0.40084 0.98 0.0
O172 O 0.24032 0.36497 1.00049 0.0
Co173 Co 0.24174 0.42817 1.00336 0.0
O174 O 0.21942 0.40124 0.98168 0.0
C175 C 0.24422 0.40967 0.06138 0.0
C176 C 0.30981 0.3546 0.04134 0.0
C177 C 0.22105 0.37539 0.9859 0.0
O178 O 0.25763 0.38805 0.05396 0.0
O179 O 0.23774 0.42877 0.04462 0.0
O180 O 0.29447 0.37486 0.98238 0.0
O181 O 0.27742 0.41217 1.0013 0.0
Co182 Co 0.75662 0.12218 0.01508 0.0
O183 O 0.72116 0.11159 0.02779 0.0
O184 O 0.74155 0.15082 0.03947 0.0
C185 C 0.74767 0.11122 0.9701 0.0
O186 O 0.79266 0.14097 1.00421 0.0
Co187 Co 0.79424 0.079 0.98882 0.0
O188 O 0.81761 0.11088 0.97947 0.0
C189 C 0.78888 0.08108 0.04948 0.0
C190 C 0.71991 0.13523 0.04061 0.0
C191 C 0.81371 0.13497 0.98956 0.0
O192 O 0.77422 0.1029 0.04756 0.0
O193 O 0.79726 0.06753 0.02833 0.0
O194 O 0.74084 0.1349 0.98073 0.0
O195 O 0.75796 0.09394 0.98731 0.0
Co196 Co 0.13866 0.51054 0.27048 0.0
O197 O 0.14786 0.54241 0.24868 0.0
O198 O 0.10933 0.51896 0.24495 0.0
C199 C 0.15086 0.53058 0.3114 0.0
O200 O 0.12108 0.47757 0.29013 0.0
Co201 Co 0.1817 0.47964 0.30433 0.0
O202 O 0.15131 0.45674 0.31772 0.0
C203 C 0.17875 0.47078 0.24382 0.0
C204 C 0.12401 0.54001 0.23747 0.0
C205 C 0.12752 0.459 0.30783 0.0
O206 O 0.15699 0.48529 0.24252 0.0
O207 O 0.1924 0.46785 0.26614 0.0
O208 O 0.12722 0.53476 0.30047 0.0
O209 O 0.16717 0.5158 0.29663 0.0
Co210 Co 0.77602 0.87206 0.50809 0.0
O211 O 0.81029 0.87584 0.52766 0.0
O212 O 0.78248 0.84014 0.53125 0.0
C213 C 0.79418 0.8834 0.46659 0.0
O214 O 0.73938 0.85997 0.49056 0.0
Co215 Co 0.74998 0.92086 0.47782 0.0
O216 O 0.72449 0.89291 0.46222 0.0
C217 C 0.74375 0.91616 0.53868 0.0
C218 C 0.80581 0.85147 0.53749 0.0
C219 C 0.72217 0.86902 0.47266 0.0
O220 O 0.75646 0.89296 0.53871 0.0
O221 O 0.74079 0.93072 0.517 0.0
O222 O 0.7952 0.85836 0.47566 0.0
O223 O 0.78331 0.9012 0.48319 0.0
Co224 Co 0.90038 0.98576 0.2679 0.0
O225 O 0.91073 0.96789 0.30151 0.0
O226 O 0.86993 0.98436 0.29326 0.0
C227 C 0.91897 0.95302 0.23998 0.0
O228 O 0.88163 1.00406 0.23492 0.0
Co229 Co 0.94324 0.00634 0.22638 0.0
O230 O 0.91191 0.0084 0.20073 0.0
C231 C 0.93306 0.03925 0.27741 0.0
C232 C 0.88589 0.97075 0.30953 0.0
C233 C 0.88772 0.00949 0.20966 0.0
O234 O 0.91296 0.02315 0.2834 0.0
O235 O 0.94853 0.03479 0.25669 0.0
O236 O 0.89504 0.94927 0.25028 0.0
O237 O 0.93147 0.97534 0.2481 0.0
Co238 Co 0.25702 0.63134 0.51515 0.0
O239 O 0.22264 0.62877 0.53381 0.0
O240 O 0.25103 0.66413 0.53824 0.0
C241 C 0.23944 0.61828 0.47361 0.0
O242 O 0.29355 0.64201 0.49716 0.0
Co243 Co 0.28257 0.57963 0.48935 0.0
O244 O 0.30378 0.60685 0.46826 0.0
C245 C 0.28723 0.5885 0.54946 0.0
C246 C 0.22762 0.65312 0.54418 0.0
C247 C 0.30748 0.63153 0.47708 0.0
O248 O 0.27567 0.61208 0.54686 0.0
O249 O 0.29085 0.57176 0.5291 0.0
O250 O 0.23846 0.64375 0.48229 0.0
O251 O 0.2495 0.60094 0.49095 0.0
Co252 Co 0.38547 0.49284 0.77295 0.0
O253 O 0.38943 0.47638 0.80888 0.0
O254 O 0.35427 0.50095 0.79559 0.0
C255 C 0.3979 0.45431 0.74911 0.0
O256 O 0.37262 0.51163 0.73766 0.0
Co257 Co 0.43244 0.50111 0.73304 0.0
O258 O 0.4041 0.50771 0.70474 0.0
C259 C 0.42655 0.54043 0.77992 0.0
C260 C 0.36565 0.48611 0.81449 0.0
C261 C 0.38037 0.51415 0.71245 0.0
O262 O 0.40432 0.52801 0.78645 0.0
O263 O 0.44158 0.53199 0.76009 0.0
O264 O 0.37331 0.45732 0.7579 0.0
O265 O 0.41483 0.47388 0.75621 0.0
Co266 Co 0.64724 0.01528 0.76165 0.0
O267 O 0.65402 0.04938 0.74241 0.0
O268 O 0.61451 0.02755 0.74303 0.0
C269 C 0.66747 0.02949 0.80174 0.0
O270 O 0.63152 0.98068 0.77995 0.0
Co271 Co 0.69273 0.97814 0.78084 0.0
O272 O 0.66451 0.95446 0.79747 0.0
C273 C 0.68009 0.97952 0.72171 0.0
C274 C 0.6287 0.04874 0.73505 0.0
C275 C 0.63957 0.95935 0.79328 0.0
O276 O 0.6588 0.99354 0.7277 0.0
O277 O 0.69767 0.97294 0.73993 0.0
O278 O 0.64257 0.03568 0.79598 0.0
O279 O 0.68029 0.0163 0.7824 0.0
Co280 Co 0.75551 0.63012 0.0085 0.0
O281 O 0.72008 0.62729 0.99133 0.0
O282 O 0.73762 0.66544 0.01039 0.0
C283 C 0.77796 0.60736 0.97463 0.0
O284 O 0.79156 0.64222 0.02608 0.0
Co285 Co 0.78687 0.57906 0.02755 0.0
O286 O 0.81707 0.60536 0.03585 0.0
C287 C 0.74124 0.59827 0.06111 0.0
C288 C 0.71766 0.65346 0.99708 0.0
C289 C 0.81372 0.63137 0.03468 0.0
O290 O 0.73984 0.61978 0.04574 0.0
O291 O 0.75736 0.57831 0.05599 0.0
O292 O 0.77194 0.63327 0.97209 0.0
O293 O 0.76824 0.59541 0.99625 0.0
Co294 Co 0.88137 0.50339 0.77298 0.0
O295 O 0.8723 0.46923 0.79046 0.0
O296 O 0.91157 0.47763 0.77061 0.0
C297 C 0.86699 0.5291 0.80984 0.0
O298 O 0.8989 0.53696 0.75448 0.0
Co299 Co 0.83859 0.54547 0.75908 0.0
O300 O 0.8693 0.57172 0.75571 0.0
C301 C 0.84464 0.49702 0.72191 0.0
C302 C 0.8968 0.46132 0.78563 0.0
C303 C 0.89303 0.56266 0.7515 0.0
O304 O 0.8652 0.48953 0.73649 0.0
O305 O 0.83031 0.51803 0.72842 0.0
O306 O 0.89118 0.51909 0.8088 0.0
O307 O 0.85141 0.5226 0.78898 0.0
Co308 Co 0.75787 0.37928 0.49974 0.0
O309 O 0.79225 0.38048 0.48063 0.0
O310 O 0.77852 0.34677 0.50772 0.0
C311 C 0.73248 0.39181 0.46262 0.0
O312 O 0.72458 0.36854 0.52193 0.0
Co313 Co 0.72082 0.42822 0.50977 0.0
O314 O 0.69261 0.40092 0.52067 0.0
C315 C 0.76868 0.42165 0.54626 0.0
C316 C 0.79698 0.35658 0.4915 0.0
C317 C 0.70053 0.37693 0.52713 0.0
O318 O 0.77421 0.39901 0.53322 0.0
O319 O 0.74893 0.4371 0.53925 0.0
O320 O 0.73991 0.36639 0.4659 0.0
O321 O 0.74156 0.40938 0.48107 0.0
Co322 Co 0.62777 0.51207 0.27403 0.0
O323 O 0.62308 0.491 0.30735 0.0
O324 O 0.65907 0.4888 0.28047 0.0
C325 C 0.61498 0.55313 0.29278 0.0
O326 O 0.64054 0.5318 0.23888 0.0
Co327 Co 0.57926 0.54094 0.24604 0.0
O328 O 0.60819 0.56185 0.22705 0.0
C329 C 0.58802 0.48127 0.23523 0.0
C330 C 0.64687 0.48093 0.3028 0.0
C331 C 0.63204 0.55234 0.22456 0.0
O332 O 0.6093 0.48176 0.25088 0.0
O333 O 0.57301 0.50232 0.23149 0.0
O334 O 0.63952 0.54426 0.29598 0.0
O335 O 0.59835 0.53602 0.28058 0.0
H336 H 0.13148 0.40292 0.30981 0.0
H337 H 0.07734 0.47057 0.32822 0.0
H338 H 0.04526 0.43774 0.34999 0.0
H339 H 0.07714 0.35227 0.29262 0.0
H340 H 0.0956 0.32386 0.30696 0.0
H341 H 0.11366 0.35264 0.29236 0.0
H342 H 0.14014 0.35967 0.33839 0.0
H343 H 0.12195 0.33115 0.35326 0.0
H344 H 0.12171 0.36466 0.3701 0.0
H345 H 0.02215 0.39824 0.3746 0.0
H346 H 1.00565 0.35399 0.3936 0.0
H347 H 0.07216 0.31103 0.35453 0.0
C348 C 0.11264 0.41068 0.31808 0.0
C349 C 0.10676 0.43921 0.31746 0.0
C350 C 0.082 0.44874 0.32836 0.0
C351 C 0.06381 0.43027 0.34088 0.0
C352 C 0.07045 0.40229 0.34165 0.0
C353 C 0.09394 0.39242 0.32988 0.0
C354 C 0.09605 0.36134 0.33296 0.0
C355 C 0.09558 0.34666 0.30453 0.0
C356 C 0.12147 0.35378 0.34967 0.0
C357 C 0.07041 0.35528 0.34895 0.0
C358 C 0.05614 0.37928 0.35408 0.0
C359 C 0.03286 0.37929 0.37022 0.0
C360 C 0.02375 0.35413 0.38106 0.0
C361 C 0.03752 0.32921 0.37526 0.0
C362 C 0.06108 0.32979 0.35888 0.0
H363 H 0.94755 0.83556 0.61671 0.0
H364 H 0.94345 0.74776 0.59788 0.0
H365 H 0.89963 0.75436 0.57351 0.0
H366 H 0.8789 0.84599 0.62993 0.0
H367 H 0.87689 0.87917 0.61365 0.0
H368 H 0.90859 0.86791 0.628 0.0
H369 H 0.93211 0.87445 0.58083 0.0
H370 H 0.90064 0.88638 0.56649 0.0
H371 H 0.91795 0.85785 0.55031 0.0
H372 H 0.85321 0.77044 0.55591 0.0
H373 H 0.81293 0.7954 0.53898 0.0
H374 H 0.8493 0.8731 0.56654 0.0
C375 C 0.93775 0.81782 0.60684 0.0
C376 C 0.949 0.79114 0.60901 0.0
C377 C 0.93546 0.76842 0.59607 0.0
C378 C 0.91039 0.77197 0.58247 0.0
C379 C 0.8994 0.79846 0.58155 0.0
C380 C 0.91309 0.82111 0.59274 0.0
C381 C 0.8972 0.84746 0.58878 0.0
C382 C 0.88998 0.86091 0.61676 0.0
C383 C 0.91291 0.86773 0.57051 0.0
C384 C 0.87214 0.83614 0.57406 0.0
C385 C 0.87355 0.80778 0.5704 0.0
C386 C 0.85215 0.79268 0.55836 0.0
C387 C 0.82919 0.807 0.54906 0.0
C388 C 0.82792 0.83619 0.55143 0.0
C389 C 0.84966 0.85078 0.56437 0.0
H390 H 0.46871 0.5762 0.76855 0.0
H391 H 0.40286 0.56339 0.82617 0.0
H392 H 0.41571 0.6068 0.85076 0.0
H393 H 0.51689 0.60503 0.81789 0.0
H394 H 0.53059 0.62953 0.79389 0.0
H395 H 0.51649 0.59717 0.78134 0.0
H396 H 0.4839 0.6236 0.74919 0.0
H397 H 0.49782 0.65604 0.76171 0.0
H398 H 0.46189 0.64943 0.76379 0.0
H399 H 0.43586 0.65234 0.86897 0.0
H400 H 0.46132 0.6957 0.87894 0.0
H401 H 0.51338 0.67865 0.80884 0.0
C402 C 0.45702 0.58233 0.78644 0.0
C403 C 0.43475 0.56615 0.79539 0.0
C404 C 0.42 0.57527 0.81883 0.0
C405 C 0.42716 0.59995 0.83297 0.0
C406 C 0.4491 0.61543 0.82345 0.0
C407 C 0.4638 0.60693 0.80071 0.0
C408 C 0.48624 0.62746 0.79435 0.0
C409 C 0.5142 0.61399 0.79704 0.0
C410 C 0.48221 0.63986 0.76555 0.0
C411 C 0.48188 0.64889 0.81703 0.0
C412 C 0.46042 0.64159 0.83367 0.0
C413 C 0.4527 0.65822 0.85603 0.0
C414 C 0.46731 0.68286 0.86154 0.0
C415 C 0.4894 0.6908 0.8447 0.0
C416 C 0.49659 0.67342 0.82213 0.0
H417 H 0.61601 0.23289 0.12434 0.0
H418 H 0.55157 0.18198 0.08849 0.0
H419 H 0.58565 0.15199 0.06632 0.0
H420 H 0.65843 0.23052 0.06399 0.0
H421 H 0.68984 0.22997 0.08319 0.0
H422 H 0.66059 0.24641 0.09791 0.0
H423 H 0.66439 0.21546 0.14089 0.0
H424 H 0.69362 0.19886 0.12627 0.0
H425 H 0.66474 0.17839 0.13641 0.0
H426 H 0.6262 0.12712 0.04886 0.0
H427 H 0.6705 0.11135 0.03254 0.0
H428 H 0.70988 0.18017 0.07599 0.0
C429 C 0.60916 0.21525 0.11202 0.0
C430 C 0.58111 0.20952 0.10836 0.0
C431 C 0.57289 0.18667 0.09161 0.0
C432 C 0.59212 0.16948 0.07904 0.0
C433 C 0.61956 0.17567 0.08298 0.0
C434 C 0.62815 0.19821 0.09869 0.0
C435 C 0.6589 0.20113 0.09802 0.0
C436 C 0.66744 0.22864 0.085 0.0
C437 C 0.67113 0.19829 0.12713 0.0
C438 C 0.66622 0.17663 0.07953 0.0
C439 C 0.64313 0.16207 0.07153 0.0
C440 C 0.64439 0.13843 0.05488 0.0
C441 C 0.66979 0.12958 0.04579 0.0
C442 C 0.69383 0.14447 0.05289 0.0
C443 C 0.69195 0.16833 0.07015 0.0
H444 H 0.07298 0.5618 0.23754 0.0
H445 H 0.15172 0.56961 0.19926 0.0
H446 H 0.13619 0.61098 0.17447 0.0
H447 H 0.0314 0.5879 0.17966 0.0
H448 H 0.00916 0.60658 0.20249 0.0
H449 H 0.02516 0.57543 0.21397 0.0
H450 H 0.04522 0.60226 0.25626 0.0
H451 H 0.02952 0.63351 0.2448 0.0
H452 H 0.06559 0.63283 0.25084 0.0
H453 H 0.11274 0.65299 0.15565 0.0
H454 H 0.08423 0.69348 0.14611 0.0
H455 H 0.0219 0.66055 0.1996 0.0
C456 C 0.08661 0.57174 0.22323 0.0
C457 C 0.11335 0.56215 0.21973 0.0
C458 C 0.13103 0.57639 0.20183 0.0
C459 C 0.12237 0.59991 0.1877 0.0
C460 C 0.09608 0.60927 0.19206 0.0
C461 C 0.07848 0.5957 0.2095 0.0
C462 C 0.05225 0.61154 0.21266 0.0
C463 C 0.02806 0.59433 0.20153 0.0
C464 C 0.0479 0.62056 0.24294 0.0
C465 C 0.05794 0.63622 0.19452 0.0
C466 C 0.08316 0.63429 0.18248 0.0
C467 C 0.09293 0.65466 0.16494 0.0
C468 C 0.07657 0.67761 0.15963 0.0
C469 C 0.05084 0.68036 0.17217 0.0
C470 C 0.04151 0.65923 0.18981 0.0
H471 H 0.58221 0.84279 0.39339 0.0
H472 H 0.56985 0.76814 0.44037 0.0
H473 H 0.61293 0.77777 0.4658 0.0
H474 H 0.65199 0.83576 0.38408 0.0
H475 H 0.65945 0.87225 0.38702 0.0
H476 H 0.62673 0.86063 0.37465 0.0
H477 H 0.6032 0.8894 0.41305 0.0
H478 H 0.63583 0.90151 0.42526 0.0
H479 H 0.61288 0.88476 0.44865 0.0
H480 H 0.66028 0.79512 0.48389 0.0
H481 H 0.70372 0.81953 0.49453 0.0
H482 H 0.6836 0.88146 0.43402 0.0
C483 C 0.5882 0.82856 0.40932 0.0
C484 C 0.57246 0.80468 0.41485 0.0
C485 C 0.58131 0.78673 0.4359 0.0
C486 C 0.6059 0.79195 0.4503 0.0
C487 C 0.62135 0.81528 0.44354 0.0
C488 C 0.61251 0.8334 0.4237 0.0
C489 C 0.63277 0.85658 0.41936 0.0
C490 C 0.64335 0.85626 0.38951 0.0
C491 C 0.62043 0.88472 0.42705 0.0
C492 C 0.65469 0.8487 0.43964 0.0
C493 C 0.64795 0.82488 0.45353 0.0
C494 C 0.66557 0.81385 0.47314 0.0
C495 C 0.69033 0.82778 0.47895 0.0
C496 C 0.69732 0.8525 0.46517 0.0
C497 C 0.67914 0.86269 0.44507 0.0
H498 H 0.49243 0.35174 0.66176 0.0
H499 H 0.44741 0.28392 0.69758 0.0
H500 H 0.41759 0.31745 0.72143 0.0
H501 H 0.49183 0.39451 0.72322 0.0
H502 H 0.48927 0.4265 0.70483 0.0
H503 H 0.50562 0.39725 0.68895 0.0
H504 H 0.47302 0.40004 0.64692 0.0
H505 H 0.45649 0.42926 0.66272 0.0
H506 H 0.43693 0.39911 0.65242 0.0
H507 H 0.39188 0.35839 0.73999 0.0
H508 H 0.37568 0.40352 0.75725 0.0
H509 H 0.44044 0.44504 0.71355 0.0
C510 C 0.4761 0.34403 0.67444 0.0
C511 C 0.47186 0.3153 0.6776 0.0
C512 C 0.45082 0.30586 0.69486 0.0
C513 C 0.43377 0.32474 0.70835 0.0
C514 C 0.43846 0.35298 0.70484 0.0
C515 C 0.45942 0.36261 0.68872 0.0
C516 C 0.46132 0.39396 0.69002 0.0
C517 C 0.48863 0.40362 0.7025 0.0
C518 C 0.45666 0.40631 0.66131 0.0
C519 C 0.43806 0.40049 0.70929 0.0
C520 C 0.42484 0.37655 0.71714 0.0
C521 C 0.40221 0.37723 0.73416 0.0
C522 C 0.39309 0.40299 0.74375 0.0
C523 C 0.40689 0.42774 0.73684 0.0
C524 C 0.42964 0.42642 0.71931 0.0
H525 H 0.95794 0.19015 0.93724 0.0
H526 H 0.91874 0.26785 0.92044 0.0
H527 H 0.87682 0.25087 0.94246 0.0
H528 H 0.90032 0.14852 0.9199 0.0
H529 H 0.90644 0.12289 0.94579 0.0
H530 H 0.93436 0.14229 0.93187 0.0
H531 H 0.94852 0.15812 0.98135 0.0
H532 H 0.92052 0.13882 0.99541 0.0
H533 H 0.92422 0.17524 1.00318 0.0
H534 H 0.83859 0.22508 0.96557 0.0
H535 H 0.80554 0.19052 0.98265 0.0
H536 H 0.86807 0.12821 0.98083 0.0
C537 C 0.94063 0.20365 0.93871 0.0
C538 C 0.9416 0.23046 0.92759 0.0
C539 C 0.91837 0.24732 0.92907 0.0
C540 C 0.89453 0.2379 0.94164 0.0
C541 C 0.894 0.2113 0.95226 0.0
C542 C 0.91631 0.19424 0.9506 0.0
C543 C 0.90946 0.16566 0.96122 0.0
C544 C 0.91284 0.14354 0.93833 0.0
C545 C 0.92671 0.15908 0.98681 0.0
C546 C 0.87986 0.16927 0.96877 0.0
C547 C 0.87148 0.19592 0.96404 0.0
C548 C 0.84494 0.20413 0.96937 0.0
C549 C 0.82631 0.18442 0.97921 0.0
C550 C 0.83415 0.15669 0.98305 0.0
C551 C 0.86142 0.14926 0.97806 0.0
H552 H 0.30923 0.07975 0.4584 0.0
H553 H 0.26618 0.14594 0.41829 0.0
H554 H 0.2844 0.131 0.37323 0.0
H555 H 0.36994 0.08556 0.41573 0.0
H556 H 0.3759 0.04886 0.41486 0.0
H557 H 0.35932 0.0645 0.44417 0.0
H558 H 0.31868 0.03066 0.43754 0.0
H559 H 0.33513 0.01493 0.40824 0.0
H560 H 0.30149 0.0286 0.40455 0.0
H561 H 0.3042 0.10687 0.33204 0.0
H562 H 0.328 0.07757 0.2978 0.0
H563 H 0.36217 0.02967 0.36425 0.0
C564 C 0.30372 0.09105 0.4401 0.0
C565 C 0.28615 0.11392 0.44181 0.0
C566 C 0.27963 0.12841 0.41748 0.0
C567 C 0.28984 0.12004 0.39175 0.0
C568 C 0.30703 0.09743 0.39066 0.0
C569 C 0.31431 0.08336 0.41419 0.0
C570 C 0.3337 0.06014 0.40716 0.0
C571 C 0.36136 0.06507 0.42132 0.0
C572 C 0.32152 0.03191 0.41482 0.0
C573 C 0.33571 0.06309 0.37602 0.0
C574 C 0.31992 0.08459 0.36695 0.0
C575 C 0.31701 0.09029 0.33892 0.0
C576 C 0.33054 0.07354 0.31962 0.0
C577 C 0.34724 0.05176 0.32843 0.0
C578 C 0.35003 0.04666 0.35702 0.0
H579 H 0.13969 0.08058 0.67324 0.0
H580 H 0.19876 0.03513 0.72098 0.0
H581 H 0.23318 0.04432 0.68555 0.0
H582 H 0.16002 0.05714 0.60739 0.0
H583 H 0.15513 0.08959 0.59035 0.0
H584 H 0.13539 0.08129 0.6203 0.0
H585 H 0.15179 0.12655 0.64469 0.0
H586 H 0.17144 0.13509 0.61469 0.0
H587 H 0.18762 0.13355 0.64814 0.0
H588 H 0.26 0.05437 0.64304 0.0
H589 H 0.27863 0.06793 0.59803 0.0
H590 H 0.20327 0.10882 0.57813 0.0
C591 C 0.15997 0.07291 0.67652 0.0
C592 C 0.16639 0.05708 0.70009 0.0
C593 C 0.19322 0.04739 0.70332 0.0
C594 C 0.21297 0.05244 0.68321 0.0
C595 C 0.20579 0.06753 0.66003 0.0
C596 C 0.18006 0.07799 0.65673 0.0
C597 C 0.17755 0.09308 0.62951 0.0
C598 C 0.15573 0.07945 0.61079 0.0
C599 C 0.17176 0.1239 0.63457 0.0
C600 C 0.20571 0.08895 0.61778 0.0
C601 C 0.22161 0.07408 0.63575 0.0
C602 C 0.24787 0.06634 0.62898 0.0
C603 C 0.25822 0.07403 0.60326 0.0
C604 C 0.24251 0.08957 0.58453 0.0
C605 C 0.21593 0.09727 0.5921 0.0
H606 H 0.19682 0.9959 0.84182 0.0
H607 H 0.12964 0.93986 0.82418 0.0
H608 H 0.14608 0.90835 0.86035 0.0
H609 H 0.24747 0.94511 0.85848 0.0
H610 H 0.26195 0.96518 0.88672 0.0
H611 H 0.24598 0.98232 0.85822 0.0
H612 H 0.21419 0.00777 0.89231 0.0
H613 H 0.23003 0.99067 0.9209 0.0
H614 H 0.19388 0.98795 0.91583 0.0
H615 H 0.17123 0.88191 0.8971 0.0
H616 H 0.19999 0.8652 0.93545 0.0
H617 H 0.24746 0.941 0.93333 0.0
C618 C 0.1858 0.97684 0.84548 0.0
C619 C 0.16222 0.96998 0.83001 0.0
C620 C 0.14785 0.94529 0.83575 0.0
C621 C 0.15707 0.92729 0.85619 0.0
C622 C 0.18034 0.93462 0.87122 0.0
C623 C 0.19426 0.95905 0.86648 0.0
C624 C 0.21761 0.96289 0.88682 0.0
C625 C 0.24487 0.96393 0.87165 0.0
C626 C 0.21368 0.98886 0.90504 0.0
C627 C 0.21482 0.93672 0.90353 0.0
C628 C 0.19348 0.92046 0.89387 0.0
C629 C 0.18776 0.89465 0.90506 0.0
C630 C 0.20419 0.88529 0.92677 0.0
C631 C 0.22561 0.90197 0.93751 0.0
C632 C 0.23086 0.92806 0.92579 0.0
H633 H 0.26822 0.96158 0.08016 0.0
H634 H 0.32035 0.89064 0.06878 0.0
H635 H 0.34471 0.90334 0.11217 0.0
H636 H 0.31914 0.00832 0.10816 0.0
H637 H 0.29602 0.02439 0.13203 0.0
H638 H 0.28353 0.00989 0.09983 0.0
H639 H 0.24944 0.97936 0.12654 0.0
H640 H 0.2619 0.99368 0.15882 0.0
H641 H 0.26178 0.95678 0.153 0.0
H642 H 0.36285 0.92408 0.15836 0.0
H643 H 0.37285 0.95078 0.20149 0.0
H644 H 0.3081 0.00726 0.18137 0.0
C645 C 0.28486 0.9487 0.08654 0.0
C646 C 0.2923 0.92508 0.07083 0.0
C647 C 0.3142 0.90888 0.0803 0.0
C648 C 0.32818 0.91592 0.10498 0.0
C649 C 0.32006 0.93924 0.12004 0.0
C650 C 0.29891 0.95537 0.11102 0.0
C651 C 0.29369 0.97914 0.13092 0.0
C652 C 0.29839 0.00708 0.11689 0.0
C653 C 0.26501 0.9771 0.14303 0.0
C654 C 0.31511 0.97392 0.15268 0.0
C655 C 0.33023 0.95088 0.14618 0.0
C656 C 0.35111 0.94218 0.16355 0.0
C657 C 0.35664 0.95747 0.18806 0.0
C658 C 0.34133 0.9812 0.19504 0.0
C659 C 0.32031 0.98928 0.1769 0.0
H660 H 0.34993 0.37472 0.07628 0.0
H661 H 0.32155 0.29988 0.03436 0.0
H662 H 0.36132 0.27482 0.05216 0.0
H663 H 0.42123 0.36512 0.06676 0.0
H664 H 0.43067 0.37795 0.1007 0.0
H665 H 0.40037 0.39023 0.08417 0.0
H666 H 0.3719 0.3754 0.1263 0.0
H667 H 0.40214 0.36333 0.14307 0.0
H668 H 0.37358 0.34024 0.13795 0.0
H669 H 0.40591 0.25858 0.07262 0.0
H670 H 0.44796 0.25068 0.09945 0.0
H671 H 0.44527 0.33492 0.13127 0.0
C672 C 0.35208 0.35304 0.07092 0.0
C673 C 0.33269 0.33927 0.05379 0.0
C674 C 0.33607 0.31082 0.04751 0.0
C675 C 0.3587 0.29646 0.05739 0.0
C676 C 0.37761 0.31069 0.07399 0.0
C677 C 0.37424 0.33821 0.08117 0.0
C678 C 0.39681 0.34832 0.1004 0.0
C679 C 0.41324 0.37179 0.08721 0.0
C680 C 0.38542 0.35735 0.1286 0.0
C681 C 0.41351 0.32228 0.10275 0.0
C682 C 0.40235 0.30092 0.08699 0.0
C683 C 0.41466 0.27511 0.08523 0.0
C684 C 0.43866 0.27085 0.10039 0.0
C685 C 0.44987 0.2921 0.11755 0.0
C686 C 0.4371 0.31819 0.1185 0.0
H687 H 0.96567 0.80164 0.19015 0.0
H688 H 0.01238 0.843 0.12703 0.0
H689 H 0.99599 0.88804 0.14366 0.0
H690 H 0.90735 0.84697 0.1848 0.0
H691 H 0.9002 0.84686 0.22128 0.0
H692 H 0.91612 0.81744 0.20517 0.0
H693 H 0.95586 0.8214 0.2403 0.0
H694 H 0.94002 0.85078 0.25655 0.0
H695 H 0.97422 0.85368 0.24403 0.0
H696 H 0.97704 0.92882 0.16826 0.0
H697 H 0.95324 0.96303 0.19751 0.0
H698 H 0.91493 0.89642 0.24228 0.0
C699 C 0.97243 0.82024 0.17998 0.0
C700 C 0.9904 0.8188 0.15735 0.0
C701 C 0.99855 0.84354 0.14431 0.0
C702 C 0.98942 0.86929 0.15365 0.0
C703 C 0.97167 0.87011 0.17582 0.0
C704 C 0.96292 0.84632 0.18867 0.0
C705 C 0.94302 0.85332 0.21152 0.0
C706 C 0.91501 0.84038 0.20531 0.0
C707 C 0.95394 0.84426 0.23977 0.0
C708 C 0.94235 0.88466 0.20961 0.0
C709 C 0.9593 0.89384 0.18903 0.0
C710 C 0.96338 0.92192 0.18419 0.0
C711 C 0.94984 0.9412 0.20089 0.0
C712 C 0.93199 0.93234 0.22176 0.0
C713 C 0.92803 0.90369 0.22601 0.0
H714 H 0.17257 0.64655 0.54013 0.0
H715 H 0.23514 0.69338 0.58415 0.0
H716 H 0.19978 0.71758 0.61113 0.0
H717 H 0.12612 0.70342 0.5344 0.0
H718 H 0.0962 0.68217 0.53827 0.0
H719 H 0.12635 0.66763 0.52342 0.0
H720 H 0.126 0.62935 0.5602 0.0
H721 H 0.09589 0.64379 0.57522 0.0
H722 H 0.12562 0.63892 0.59636 0.0
H723 H 0.15798 0.73519 0.63428 0.0
H724 H 0.11265 0.74914 0.64928 0.0
H725 H 0.07601 0.69394 0.58766 0.0
C726 C 0.17882 0.66178 0.55561 0.0
C727 C 0.20665 0.66789 0.56036 0.0
C728 C 0.214 0.68834 0.5803 0.0
C729 C 0.19404 0.70209 0.59573 0.0
C730 C 0.16681 0.69553 0.59057 0.0
C731 C 0.15913 0.67616 0.57071 0.0
C732 C 0.1284 0.674 0.56833 0.0
C733 C 0.1187 0.68231 0.53938 0.0
C734 C 0.11839 0.64478 0.57546 0.0
C735 C 0.11993 0.69504 0.59016 0.0
C736 C 0.14252 0.70687 0.60292 0.0
C737 C 0.14019 0.7262 0.6243 0.0
C738 C 0.11423 0.73388 0.63276 0.0
C739 C 0.09063 0.72267 0.61969 0.0
C740 C 0.09359 0.70297 0.59799 0.0
H741 H 0.94984 0.7121 0.71504 0.0
H742 H 0.01486 0.67274 0.6697 0.0
H743 H 0.99809 0.62691 0.68463 0.0
H744 H 0.94816 0.66563 0.77293 0.0
H745 H 0.91175 0.66644 0.77538 0.0
H746 H 0.93001 0.69591 0.76246 0.0
H747 H 0.90098 0.69398 0.71759 0.0
H748 H 0.88262 0.66457 0.73038 0.0
H749 H 0.89929 0.66236 0.6974 0.0
H750 H 0.9731 0.5849 0.70457 0.0
H751 H 0.94087 0.55121 0.72464 0.0
H752 H 0.89196 0.61907 0.75504 0.0
C753 C 0.96084 0.69393 0.70847 0.0
C754 C 0.98386 0.69611 0.69137 0.0
C755 C 0.99724 0.67165 0.68285 0.0
C756 C 0.9879 0.64552 0.69132 0.0
C757 C 0.96505 0.64418 0.70813 0.0
C758 C 0.95166 0.66782 0.71642 0.0
C759 C 0.92678 0.66097 0.73319 0.0
C760 C 0.92934 0.67295 0.76274 0.0
C761 C 0.9009 0.67106 0.71877 0.0
C762 C 0.92809 0.62975 0.73298 0.0
C763 C 0.95043 0.62034 0.71873 0.0
C764 C 0.95557 0.59212 0.71577 0.0
C765 C 0.93721 0.57312 0.72732 0.0
C766 C 0.9138 0.58243 0.74134 0.0
C767 C 0.90954 0.61118 0.74435 0.0
H768 H 0.20701 0.19713 0.46841 0.0
H769 H 0.16347 0.14661 0.52668 0.0
H770 H 0.12011 0.1673 0.51145 0.0
H771 H 0.16338 0.2588 0.47151 0.0
H772 H 0.16591 0.26441 0.43488 0.0
H773 H 0.1935 0.24869 0.45324 0.0
H774 H 0.19145 0.20673 0.41929 0.0
H775 H 0.16383 0.22223 0.40092 0.0
H776 H 0.15995 0.18797 0.41456 0.0
H777 H 0.08146 0.19196 0.48793 0.0
H778 H 0.05031 0.21522 0.45583 0.0
H779 H 0.11918 0.24691 0.4104 0.0
C780 C 0.18835 0.19111 0.47845 0.0
C781 C 0.18837 0.17097 0.4992 0.0
C782 C 0.16368 0.16251 0.51116 0.0
C783 C 0.13907 0.17414 0.50263 0.0
C784 C 0.1396 0.19381 0.4818 0.0
C785 C 0.16363 0.20207 0.46973 0.0
C786 C 0.15851 0.22127 0.44584 0.0
C787 C 0.17107 0.25 0.45173 0.0
C788 C 0.16906 0.2088 0.41855 0.0
C789 C 0.12785 0.22225 0.44604 0.0
C790 C 0.11734 0.20673 0.46726 0.0
C791 C 0.08949 0.20424 0.47132 0.0
C792 C 0.07195 0.2176 0.45299 0.0
C793 C 0.08225 0.23287 0.43053 0.0
C794 C 0.11063 0.23537 0.42731 0.0
H795 H 0.58661 0.42662 0.25156 0.0
H796 H 0.57426 0.47953 0.18116 0.0
H797 H 0.5621 0.43882 0.15214 0.0
H798 H 0.61365 0.3673 0.21414 0.0
H799 H 0.59585 0.3422 0.23456 0.0
H800 H 0.60529 0.37527 0.24957 0.0
H801 H 0.55526 0.38384 0.26269 0.0
H802 H 0.54566 0.35084 0.24764 0.0
H803 H 0.5294 0.38186 0.2362 0.0
H804 H 0.55216 0.39263 0.13035 0.0
H805 H 0.54156 0.34387 0.11805 0.0
H806 H 0.55617 0.32074 0.20307 0.0
C807 C 0.58158 0.42947 0.22998 0.0
C808 C 0.58153 0.45616 0.21849 0.0
C809 C 0.57437 0.45924 0.19032 0.0
C810 C 0.56752 0.43625 0.17365 0.0
C811 C 0.56745 0.41025 0.18554 0.0
C812 C 0.57397 0.40668 0.21311 0.0
C813 C 0.57078 0.37654 0.22092 0.0
C814 C 0.59802 0.36463 0.23035 0.0
C815 C 0.54898 0.37308 0.24318 0.0
C816 C 0.56159 0.36385 0.19344 0.0
C817 C 0.56018 0.38365 0.17325 0.0
C818 C 0.553 0.37693 0.14601 0.0
C819 C 0.54706 0.34922 0.1392 0.0
C820 C 0.54783 0.32864 0.15962 0.0
C821 C 0.5551 0.33614 0.18711 0.0
H822 H 0.34243 0.86591 0.94463 0.0
H823 H 0.32931 0.81243 0.01453 0.0
H824 H 0.36983 0.78571 1.00179 0.0
H825 H 0.36332 0.81216 0.8977 0.0
H826 H 0.38834 0.83318 0.88072 0.0
H827 H 0.35905 0.84906 0.89596 0.0
H828 H 0.39014 0.8815 0.92556 0.0
H829 H 0.41952 0.86587 0.91025 0.0
H830 H 0.41588 0.86679 0.9473 0.0
H831 H 0.41196 0.76506 0.98186 0.0
H832 H 0.45245 0.75131 0.95543 0.0
H833 H 0.43696 0.81639 0.89688 0.0
C834 C 0.34829 0.84877 0.9574 0.0
C835 C 0.33286 0.84135 0.9807 0.0
C836 C 0.34088 0.8185 0.99664 0.0
C837 C 0.36386 0.80319 0.98957 0.0
C838 C 0.37845 0.81079 0.9663 0.0
C839 C 0.37098 0.83297 0.95038 0.0
C840 C 0.38976 0.83621 0.92592 0.0
C841 C 0.37418 0.83242 0.89846 0.0
C842 C 0.40471 0.86426 0.92736 0.0
C843 C 0.409 0.81249 0.93068 0.0
C844 C 0.40218 0.7982 0.95418 0.0
C845 C 0.4174 0.77598 0.96332 0.0
C846 C 0.44034 0.76831 0.94818 0.0
C847 C 0.44768 0.7826 0.924 0.0
C848 C 0.4316 0.80481 0.91506 0.0
H849 H 0.93775 0.42376 0.77248 0.0
H850 H 0.88249 0.44906 0.83737 0.0
H851 H 0.9025 0.41537 0.8686 0.0
H852 H 0.93357 0.3504 0.78872 0.0
H853 H 0.96857 0.34363 0.78098 0.0
H854 H 0.9511 0.3709 0.76355 0.0
H855 H 0.98823 0.40579 0.77991 0.0
H856 H 1.00566 0.37865 0.79763 0.0
H857 H 0.99584 0.40945 0.81629 0.0
H858 H 0.92883 0.38129 0.89376 0.0
H859 H 0.95547 0.3421 0.90986 0.0
H860 H 0.99183 0.33379 0.82865 0.0
C861 C 0.92992 0.42203 0.79323 0.0
C862 C 0.90852 0.43905 0.80247 0.0
C863 C 0.89864 0.43609 0.8297 0.0
C864 C 0.91005 0.41718 0.84776 0.0
C865 C 0.9311 0.40084 0.83826 0.0
C866 C 0.94065 0.40245 0.81153 0.0
C867 C 0.96231 0.38078 0.8065 0.0
C868 C 0.95334 0.36021 0.78358 0.0
C869 C 0.98963 0.3945 0.79968 0.0
C870 C 0.9633 0.367 0.83458 0.0
C871 C 0.94545 0.37947 0.85261 0.0
C872 C 0.94275 0.37113 0.87983 0.0
C873 C 0.95812 0.34887 0.88881 0.0
C874 C 0.97567 0.3347 0.87054 0.0
C875 C 0.97855 0.34417 0.8431 0.0
H876 H 0.31931 0.17458 0.5689 0.0
H877 H 0.36436 0.15137 0.49573 0.0
H878 H 0.40407 0.17809 0.51328 0.0
H879 H 0.35023 0.24446 0.58055 0.0
H880 H 0.35114 0.2405 0.61753 0.0
H881 H 0.32491 0.22353 0.59722 0.0
H882 H 0.33839 0.17644 0.61773 0.0
H883 H 0.36469 0.19321 0.63796 0.0
H884 H 0.37293 0.16502 0.6148 0.0
H885 H 0.43986 0.20419 0.54025 0.0
H886 H 0.47014 0.225 0.57582 0.0
H887 H 0.40283 0.22873 0.63305 0.0
C888 C 0.33728 0.17592 0.55625 0.0
C889 C 0.33871 0.16147 0.53072 0.0
C890 C 0.36286 0.16265 0.51518 0.0
C891 C 0.38544 0.17781 0.52495 0.0
C892 C 0.38367 0.19137 0.55051 0.0
C893 C 0.36025 0.19046 0.56604 0.0
C894 C 0.36468 0.20415 0.59416 0.0
C895 C 0.34667 0.22968 0.59755 0.0
C896 C 0.3599 0.18347 0.61753 0.0
C897 C 0.39435 0.21235 0.59222 0.0
C898 C 0.40475 0.20528 0.56667 0.0
C899 C 0.43188 0.21 0.56027 0.0
C900 C 0.44894 0.22187 0.58064 0.0
C901 C 0.43896 0.22851 0.60731 0.0
C902 C 0.41115 0.22395 0.6129 0.0
H903 H 0.51838 0.67791 0.34015 0.0
H904 H 0.58855 0.73171 0.33107 0.0
H905 H 0.61623 0.69164 0.31775 0.0
H906 H 0.55358 0.6183 0.36651 0.0
H907 H 0.53346 0.59338 0.34707 0.0
H908 H 0.51908 0.62606 0.35721 0.0
H909 H 0.50709 0.63573 0.30609 0.0
H910 H 0.52144 0.60309 0.29581 0.0
H911 H 0.53339 0.6346 0.28043 0.0
H912 H 0.63689 0.64619 0.307 0.0
H913 H 0.64854 0.59793 0.29529 0.0
H914 H 0.56473 0.57306 0.30693 0.0
C915 C 0.5396 0.6811 0.33549 0.0
C916 C 0.55139 0.70789 0.33674 0.0
C917 C 0.57911 0.71138 0.33012 0.0
C918 C 0.59504 0.68875 0.32264 0.0
C919 C 0.5829 0.66267 0.32138 0.0
C920 C 0.55576 0.65866 0.32724 0.0
C921 C 0.54769 0.62848 0.32289 0.0
C922 C 0.53788 0.61581 0.35004 0.0
C923 C 0.52612 0.6253 0.29994 0.0
C924 C 0.57456 0.61627 0.31394 0.0
C925 C 0.59462 0.6364 0.31359 0.0
C926 C 0.62134 0.63025 0.30697 0.0
C927 C 0.62778 0.60278 0.30044 0.0
C928 C 0.60754 0.58186 0.30007 0.0
C929 C 0.58054 0.58875 0.30678 0.0
H930 H 0.06857 0.80377 0.06997 0.0
H931 H 0.11545 0.74722 0.11907 0.0
H932 H 0.15788 0.76627 0.0994 0.0
H933 H 0.1129 0.80518 0.00878 0.0
H934 H 0.10821 0.84166 1.00378 0.0
H935 H 0.08164 0.82122 0.019 0.0
H936 H 0.08134 0.85448 0.06149 0.0
H937 H 0.10799 0.8749 0.04653 0.0
H938 H 0.11234 0.86092 0.08056 0.0
H939 H 0.19495 0.79258 0.07569 0.0
H940 H 0.22451 0.82605 0.05216 0.0
H941 H 0.15364 0.86827 0.02106 0.0
C942 C 0.08781 0.79499 0.07591 0.0
C943 C 0.089 0.7736 0.09536 0.0
C944 C 0.11436 0.76323 0.10371 0.0
C945 C 0.13845 0.77395 0.09268 0.0
C946 C 0.13672 0.79532 0.07372 0.0
C947 C 0.11206 0.80587 0.06552 0.0
C948 C 0.11592 0.83043 0.04676 0.0
C949 C 0.10396 0.82424 0.01787 0.0
C950 C 0.10367 0.85673 0.05961 0.0
C951 C 0.14659 0.83229 0.04597 0.0
C952 C 0.15814 0.81153 0.06127 0.0
C953 C 0.18612 0.80889 0.06363 0.0
C954 C 0.20275 0.82801 0.05013 0.0
C955 C 0.19143 0.84986 0.03481 0.0
C956 C 0.16292 0.85191 0.03273 0.0
H957 H 0.75665 0.90676 0.5939 0.0
H958 H 0.69959 0.94888 0.54081 0.0
H959 H 0.67646 0.96767 0.58159 0.0
H960 H 0.70855 0.89004 0.64868 0.0
H961 H 0.7326 0.89665 0.67627 0.0
H962 H 0.74421 0.8849 0.6429 0.0
H963 H 0.77637 0.92743 0.64034 0.0
H964 H 0.76486 0.93929 0.67367 0.0
H965 H 0.7627 0.96166 0.64432 0.0
H966 H 0.65968 0.98293 0.62736 0.0
H967 H 0.65129 0.9952 0.6761 0.0
H968 H 0.71946 0.94483 0.70077 0.0
C969 C 0.73915 0.91972 0.59095 0.0
C970 C 0.73003 0.92634 0.56406 0.0
C971 C 0.70719 0.94365 0.5611 0.0
C972 C 0.69375 0.95436 0.58417 0.0
C973 C 0.70335 0.94779 0.61029 0.0
C974 C 0.72556 0.931 0.61394 0.0
C975 C 0.7322 0.92836 0.64449 0.0
C976 C 0.72921 0.89819 0.65362 0.0
C977 C 0.76072 0.93988 0.65109 0.0
C978 C 0.7104 0.94643 0.65721 0.0
C979 C 0.69387 0.95717 0.63702 0.0
C980 C 0.67243 0.9746 0.64342 0.0
C981 C 0.66781 0.98144 0.67124 0.0
C982 C 0.68465 0.97105 0.69243 0.0
C983 C 0.70617 0.95317 0.68516 0.0
H984 H 0.84104 0.98149 0.34236 0.0
H985 H 0.90788 0.92488 0.33107 0.0
H986 H 0.89032 0.89596 0.36836 0.0
H987 H 0.84097 0.97701 0.41785 0.0
H988 H 0.80466 0.97931 0.42052 0.0
H989 H 0.82196 0.99556 0.39231 0.0
H990 H 0.79139 0.96833 0.35745 0.0
H991 H 0.77419 0.95178 0.38555 0.0
H992 H 0.78982 0.93113 0.35886 0.0
H993 H 0.86455 0.87138 0.40426 0.0
H994 H 0.83572 0.85603 0.44253 0.0
H995 H 0.78732 0.92996 0.4349 0.0
C996 C 0.85199 0.9631 0.34793 0.0
C997 C 0.87583 0.95542 0.33374 0.0
C998 C 0.88971 0.9313 0.34171 0.0
C999 C 0.87979 0.91458 0.36276 0.0
C1000 C 0.85617 0.92244 0.37611 0.0
C1001 C 0.84271 0.94639 0.36955 0.0
C1002 C 0.81845 0.95049 0.38834 0.0
C1003 C 0.82171 0.97718 0.40579 0.0
C1004 C 0.79189 0.95043 0.37154 0.0
C1005 C 0.82037 0.92497 0.40618 0.0
C1006 C 0.84205 0.90892 0.39832 0.0
C1007 C 0.84766 0.88389 0.41085 0.0
C1008 C 0.83105 0.87526 0.43247 0.0
C1009 C 0.80936 0.89183 0.44177 0.0
C1010 C 0.80387 0.91696 0.42829 0.0
H1011 H 0.83139 0.04742 0.06102 0.0
H1012 H 0.76711 0.09352 0.10069 0.0
H1013 H 0.78319 0.07757 0.1464 0.0
H1014 H 0.83164 0.98884 0.10659 0.0
H1015 H 0.86799 0.98584 0.10579 0.0
H1016 H 0.85014 0.99945 0.07649 0.0
H1017 H 0.87994 0.0439 0.07907 0.0
H1018 H 0.89794 0.03038 0.10826 0.0
H1019 H 0.88188 0.06359 0.11098 0.0
H1020 H 0.80756 0.05624 0.18833 0.0
H1021 H 0.83966 0.0356 0.22169 0.0
H1022 H 0.88828 1.0057 0.15338 0.0
C1023 C 0.82038 0.05395 0.07923 0.0
C1024 C 0.79775 0.07152 0.07717 0.0
C1025 C 0.78442 0.08 0.10169 0.0
C1026 C 0.79336 0.07093 0.12774 0.0
C1027 C 0.81579 0.05359 0.12893 0.0
C1028 C 0.82919 0.04544 0.10522 0.0
C1029 C 0.85372 0.0282 0.11183 0.0
C1030 C 0.85067 0.99884 0.09944 0.0
C1031 C 0.87991 0.04237 0.10196 0.0
C1032 C 0.85227 0.02797 0.14302 0.0
C1033 C 0.8301 0.04235 0.15264 0.0
C1034 C 0.82494 0.04495 0.18092 0.0
C1035 C 0.8432 0.03304 0.19974 0.0
C1036 C 0.86653 0.0191 0.19018 0.0
C1037 C 0.87072 0.01631 0.16141 0.0
H1038 H 0.69738 0.01065 0.8461 0.0
H1039 H 0.66974 0.08483 0.80601 0.0
H1040 H 0.69185 0.1136 0.84237 0.0
H1041 H 0.68463 0.03485 0.91427 0.0
H1042 H 0.71362 0.01883 0.92994 0.0
H1043 H 0.69857 1.00388 0.8991 0.0
H1044 H 0.74498 0.00641 0.87457 0.0
H1045 H 0.76016 0.02148 0.90537 0.0
H1046 H 0.76277 0.03908 0.87292 0.0
H1047 H 0.71393 0.13432 0.88367 0.0
H1048 H 0.73237 0.14619 0.92978 0.0
H1049 H 0.74504 0.05915 0.94548 0.0
C1050 C 0.69652 0.03296 0.84488 0.0
C1051 C 0.68216 0.04569 0.82323 0.0
C1052 C 0.68076 0.07484 0.82246 0.0
C1053 C 0.69336 0.09131 0.84291 0.0
C1054 C 0.70711 0.07832 0.8642 0.0
C1055 C 0.70868 0.04984 0.86556 0.0
C1056 C 0.72274 0.04137 0.89214 0.0
C1057 C 0.70375 0.02369 0.90991 0.0
C1058 C 0.74924 0.02619 0.88586 0.0
C1059 C 0.72833 0.06951 0.90559 0.0
C1060 C 0.71946 0.09046 0.88879 0.0
C1061 C 0.72116 0.11815 0.89694 0.0
C1062 C 0.73165 0.12468 0.92321 0.0
C1063 C 0.74022 0.10365 0.94121 0.0
C1064 C 0.739 0.0757 0.93203 0.0
H1065 H 0.60751 0.70128 0.8869 0.0
H1066 H 0.58102 0.76254 0.94696 0.0
H1067 H 0.61513 0.74585 0.98045 0.0
H1068 H 0.6173 0.64688 0.93665 0.0
H1069 H 0.64623 0.63279 0.91905 0.0
H1070 H 0.6203 0.65011 0.89972 0.0
H1071 H 0.65645 0.68345 0.87989 0.0
H1072 H 0.68247 0.66622 0.89912 0.0
H1073 H 0.67817 0.703 0.90327 0.0
H1074 H 0.65464 0.72441 0.00599 0.0
H1075 H 0.69304 0.69676 0.02332 0.0
H1076 H 0.6901 0.64644 0.94842 0.0
C1077 C 0.60899 0.71121 0.90709 0.0
C1078 C 0.59191 0.73339 0.91432 0.0
C1079 C 0.594 0.74555 0.94107 0.0
C1080 C 0.61333 0.73625 0.96016 0.0
C1081 C 0.62993 0.71435 0.95237 0.0
C1082 C 0.62762 0.70169 0.92662 0.0
C1083 C 0.64716 0.6779 0.9237 0.0
C1084 C 0.63183 0.65029 0.91954 0.0
C1085 C 0.66725 0.68296 0.9001 0.0
C1086 C 0.66119 0.67941 0.95164 0.0
C1087 C 0.65121 0.70079 0.96778 0.0
C1088 C 0.66227 0.70733 0.99372 0.0
C1089 C 0.68406 0.6916 1.00338 0.0
C1090 C 0.69409 0.66926 0.98739 0.0
C1091 C 0.68234 0.66302 0.96132 0.0
H1092 H 0.12838 0.10859 0.79815 0.0
H1093 H 0.05868 0.05329 0.79927 0.0
H1094 H 0.03037 0.09122 0.81723 0.0
H1095 H 0.11287 0.14908 0.85903 0.0
H1096 H 0.12351 0.18151 0.84458 0.0
H1097 H 0.13876 0.14976 0.83293 0.0
H1098 H 0.12557 0.16068 0.78237 0.0
H1099 H 0.11038 0.19251 0.79386 0.0
H1100 H 0.09069 0.16762 0.77393 0.0
H1101 H 0.0102 0.13439 0.83765 0.0
H1102 H 0.998 0.18171 0.85306 0.0
H1103 H 0.07915 0.21045 0.83394 0.0
C1104 C 0.10718 0.10457 0.80226 0.0
C1105 C 0.09571 0.07801 0.79757 0.0
C1106 C 0.06782 0.07353 0.80272 0.0
C1107 C 0.05161 0.09489 0.81305 0.0
C1108 C 0.06344 0.12084 0.81756 0.0
C1109 C 0.09045 0.12595 0.81184 0.0
C1110 C 0.09765 0.15616 0.81706 0.0
C1111 C 0.11949 0.1593 0.83975 0.0
C1112 C 0.10659 0.17006 0.7902 0.0
C1113 C 0.07058 0.16708 0.82684 0.0
C1114 C 0.05125 0.14624 0.82744 0.0
C1115 C 0.02505 0.15098 0.83694 0.0
C1116 C 0.01832 0.17783 0.84573 0.0
C1117 C 0.03752 0.19967 0.84435 0.0
C1118 C 0.06397 0.19415 0.83479 0.0
H1119 H 0.92729 0.31257 0.40445 0.0
H1120 H 0.93975 0.24759 0.46385 0.0
H1121 H 0.89851 0.26204 0.48866 0.0
H1122 H 0.90584 0.36333 0.45331 0.0
H1123 H 0.88112 0.37849 0.43071 0.0
H1124 H 0.91045 0.36188 0.41639 0.0
H1125 H 0.87949 0.32968 0.38639 0.0
H1126 H 0.85006 0.34635 0.40043 0.0
H1127 H 0.85347 0.3094 0.40275 0.0
H1128 H 0.8564 0.28401 0.5074 0.0
H1129 H 0.81656 0.31221 0.5191 0.0
H1130 H 0.83266 0.36443 0.44886 0.0
C1131 C 0.92107 0.30109 0.42241 0.0
C1132 C 0.93654 0.27876 0.4321 0.0
C1133 C 0.9281 0.26465 0.45602 0.0
C1134 C 0.90473 0.27273 0.47024 0.0
C1135 C 0.89017 0.29512 0.46043 0.0
C1136 C 0.898 0.30914 0.43709 0.0
C1137 C 0.87944 0.33325 0.43159 0.0
C1138 C 0.89516 0.36087 0.4331 0.0
C1139 C 0.86474 0.32943 0.40363 0.0
C1140 C 0.85996 0.33061 0.4555 0.0
C1141 C 0.86642 0.30837 0.47177 0.0
C1142 C 0.85117 0.3015 0.49483 0.0
C1143 C 0.82859 0.31766 0.50133 0.0
C1144 C 0.8216 0.3406 0.485 0.0
C1145 C 0.83766 0.3472 0.46189 0.0
H1146 H 0.64439 0.90325 0.79869 0.0
H1147 H 0.58898 0.97093 0.81282 0.0
H1148 H 0.55623 0.93845 0.83384 0.0
H1149 H 0.59191 0.85224 0.77998 0.0
H1150 H 0.60941 0.82415 0.79609 0.0
H1151 H 0.62839 0.85269 0.78221 0.0
H1152 H 0.65179 0.86083 0.82978 0.0
H1153 H 0.63282 0.83239 0.84383 0.0
H1154 H 0.63131 0.86613 0.86007 0.0
H1155 H 0.53151 0.89938 0.857 0.0
H1156 H 0.5139 0.85548 0.87576 0.0
H1157 H 0.58305 0.81206 0.84252 0.0
C1158 C 0.62531 0.9112 0.80614 0.0
C1159 C 0.61926 0.93967 0.80434 0.0
C1160 C 0.59397 0.94922 0.81396 0.0
C1161 C 0.57532 0.93094 0.826 0.0
C1162 C 0.58201 0.90305 0.8277 0.0
C1163 C 0.60618 0.89311 0.81757 0.0
C1164 C 0.60813 0.86207 0.82134 0.0
C1165 C 0.60954 0.8469 0.79323 0.0
C1166 C 0.63246 0.85495 0.83986 0.0
C1167 C 0.58151 0.85616 0.83568 0.0
C1168 C 0.56692 0.88019 0.83942 0.0
C1169 C 0.54253 0.88039 0.85375 0.0
C1170 C 0.53274 0.85543 0.8644 0.0
C1171 C 0.54698 0.8305 0.86022 0.0
C1172 C 0.57158 0.83082 0.84551 0.0
H1173 H 0.01094 0.17996 0.31719 0.0
H1174 H 0.95579 0.19062 0.38598 0.0
H1175 H 0.93254 0.14681 0.37263 0.0
H1176 H 0.96223 0.15144 0.26882 0.0
H1177 H 0.98595 0.12773 0.25352 0.0
H1178 H 0.99788 0.15993 0.26856 0.0
H1179 H 0.03078 0.13328 0.30022 0.0
H1180 H 0.01889 0.10099 0.28534 0.0
H1181 H 0.01759 0.10665 0.32221 0.0
H1182 H 0.91532 0.10084 0.35125 0.0
H1183 H 0.90595 0.05802 0.32387 0.0
H1184 H 0.97288 0.07838 0.2698 0.0
C1185 C 0.99393 0.17324 0.32949 0.0
C1186 C 0.98527 0.18894 0.35268 0.0
C1187 C 0.9629 0.1791 0.36812 0.0
C1188 C 0.94953 0.15418 0.3607 0.0
C1189 C 0.95873 0.13922 0.33779 0.0
C1190 C 0.98043 0.14848 0.32244 0.0
C1191 C 0.98655 0.12868 0.29881 0.0
C1192 C 0.98293 0.14279 0.27077 0.0
C1193 C 0.01515 0.11669 0.30184 0.0
C1194 C 0.96494 0.10678 0.30318 0.0
C1195 C 0.94902 0.1131 0.32572 0.0
C1196 C 0.92771 0.09574 0.33355 0.0
C1197 C 0.92253 0.07142 0.31787 0.0
C1198 C 0.93861 0.06462 0.2946 0.0
C1199 C 0.96011 0.08271 0.28742 0.0
H1200 H 0.57617 0.0672 0.73653 0.0
H1201 H 0.65446 0.08334 0.69969 0.0
H1202 H 0.6359 0.12438 0.67669 0.0
H1203 H 0.5337 0.09126 0.67906 0.0
H1204 H 0.50933 0.10706 0.70177 0.0
H1205 H 0.52792 0.0773 0.71286 0.0
H1206 H 0.54468 0.10466 0.75628 0.0
H1207 H 0.52624 0.13449 0.74528 0.0
H1208 H 0.56212 0.13725 0.75214 0.0
H1209 H 0.60921 0.16475 0.65896 0.0
H1210 H 0.57741 0.20277 0.65019 0.0
H1211 H 0.51715 0.1621 0.70084 0.0
C1212 C 0.58919 0.07905 0.72313 0.0
C1213 C 0.61667 0.07187 0.71954 0.0
C1214 C 0.63331 0.08837 0.70254 0.0
C1215 C 0.62293 0.11168 0.68935 0.0
C1216 C 0.59589 0.11851 0.69362 0.0
C1217 C 0.57927 0.10277 0.71023 0.0
C1218 C 0.55159 0.11586 0.71314 0.0
C1219 C 0.52932 0.09673 0.70098 0.0
C1220 C 0.54583 0.12352 0.74351 0.0
C1221 C 0.55533 0.14149 0.6958 0.0
C1222 C 0.58089 0.14241 0.68439 0.0
C1223 C 0.58912 0.16419 0.66775 0.0
C1224 C 0.57086 0.18571 0.66283 0.0
C1225 C 0.54473 0.18557 0.67483 0.0
C1226 C 0.53696 0.16296 0.6914 0.0
H1227 H 0.1853 0.38651 0.94409 0.0
H1228 H 0.20522 0.32384 1.00383 0.0
H1229 H 0.16458 0.29673 0.98905 0.0
H1230 H 0.11405 0.38429 0.95217 0.0
H1231 H 0.10667 0.38901 0.91602 0.0
H1232 H 0.13761 0.40287 0.93083 0.0
H1233 H 0.16565 0.37603 0.89433 0.0
H1234 H 0.13478 0.36237 0.87919 0.0
H1235 H 0.16087 0.33918 0.89035 0.0
H1236 H 0.11929 0.27786 0.96894 0.0
H1237 H 0.07737 0.26684 0.94215 0.0
H1238 H 0.08897 0.34159 0.89514 0.0
C1239 C 0.18131 0.36698 0.95398 0.0
C1240 C 0.19851 0.35738 0.97521 0.0
C1241 C 0.19251 0.33159 0.98741 0.0
C1242 C 0.16934 0.31613 0.97927 0.0
C1243 C 0.1525 0.32656 0.95867 0.0
C1244 C 0.15854 0.35123 0.94593 0.0
C1245 C 0.13758 0.35794 0.92411 0.0
C1246 C 0.12313 0.38514 0.93122 0.0
C1247 C 0.15049 0.35893 0.89529 0.0
C1248 C 0.1186 0.33334 0.92661 0.0
C1249 C 0.12729 0.31551 0.94678 0.0
C1250 C 0.11249 0.29163 0.95298 0.0
C1251 C 0.08858 0.28562 0.93779 0.0
C1252 C 0.07987 0.30325 0.91644 0.0
C1253 C 0.0951 0.32752 0.91116 0.0
H1254 H 0.44619 0.71792 0.45171 0.0
H1255 H 0.43167 0.70071 0.36449 0.0
H1256 H 0.38951 0.67607 0.3757 0.0
H1257 H 0.41839 0.65158 0.47668 0.0
H1258 H 0.40309 0.66701 0.50684 0.0
H1259 H 0.43319 0.68227 0.49242 0.0
H1260 H 0.40837 0.72891 0.48837 0.0
H1261 H 0.37806 0.71366 0.50237 0.0
H1262 H 0.37691 0.73027 0.4693 0.0
H1263 H 0.34858 0.65506 0.3949 0.0
H1264 H 0.31176 0.63459 0.42204 0.0
H1265 H 0.3501 0.66464 0.49788 0.0
C1266 C 0.43438 0.70841 0.43512 0.0
C1267 C 0.44238 0.71116 0.40715 0.0
C1268 C 0.42606 0.69891 0.386 0.0
C1269 C 0.40197 0.68491 0.39215 0.0
C1270 C 0.39417 0.68328 0.41965 0.0
C1271 C 0.40987 0.69433 0.44093 0.0
C1272 C 0.39611 0.68962 0.46864 0.0
C1273 C 0.41374 0.67154 0.48725 0.0
C1274 C 0.38947 0.71727 0.48302 0.0
C1275 C 0.37032 0.6743 0.45943 0.0
C1276 C 0.36984 0.67108 0.43099 0.0
C1277 C 0.3487 0.65741 0.41719 0.0
C1278 C 0.3278 0.64594 0.43279 0.0
C1279 C 0.32788 0.64821 0.46201 0.0
C1280 C 0.34924 0.66305 0.47554 0.0
H1281 H 0.83328 0.57295 0.82227 0.0
H1282 H 0.87577 0.50422 0.85849 0.0
H1283 H 0.85749 0.51654 0.90431 0.0
H1284 H 0.84594 0.62013 0.88055 0.0
H1285 H 0.81358 0.63684 0.87782 0.0
H1286 H 0.82913 0.62215 0.84745 0.0
H1287 H 0.78603 0.59242 0.83784 0.0
H1288 H 0.77037 0.60701 0.86818 0.0
H1289 H 0.77337 0.57005 0.86437 0.0
H1290 H 0.83314 0.53472 0.9458 0.0
H1291 H 0.80727 0.56038 0.98131 0.0
H1292 H 0.78356 0.61995 0.91983 0.0
C1293 C 0.8386 0.56057 0.83991 0.0
C1294 C 0.85583 0.5376 0.83691 0.0
C1295 C 0.86269 0.52199 0.86043 0.0
C1296 C 0.85233 0.52874 0.88651 0.0
C1297 C 0.83551 0.55153 0.88894 0.0
C1298 C 0.82896 0.5675 0.86642 0.0
C1299 C 0.81137 0.59163 0.87518 0.0
C1300 C 0.82588 0.61933 0.86994 0.0
C1301 C 0.78364 0.59018 0.86052 0.0
C1302 C 0.80876 0.58638 0.90594 0.0
C1303 C 0.82264 0.56298 0.91334 0.0
C1304 C 0.82241 0.55326 0.94034 0.0
C1305 C 0.80763 0.56791 0.96036 0.0
C1306 C 0.79367 0.59223 0.95339 0.0
C1307 C 0.79439 0.60161 0.92583 0.0
H1308 H 0.67367 0.52852 0.19436 0.0
H1309 H 0.62908 0.60472 0.20542 0.0
H1310 H 0.65318 0.625 0.16615 0.0
H1311 H 0.7382 0.56123 0.17264 0.0
H1312 H 0.74513 0.53437 0.14751 0.0
H1313 H 0.7261 0.52646 0.1781 0.0
H1314 H 0.68706 0.50659 0.14748 0.0
H1315 H 0.70584 0.51467 0.11682 0.0
H1316 H 0.67215 0.52795 0.12136 0.0
H1317 H 0.6793 0.63617 0.12371 0.0
H1318 H 0.70751 0.63816 0.08193 0.0
H1319 H 0.73566 0.555 0.0975 0.0
C1320 C 0.66947 0.54967 0.18889 0.0
C1321 C 0.64947 0.56502 0.2031 0.0
C1322 C 0.64421 0.59248 0.19488 0.0
C1323 C 0.65783 0.60424 0.17257 0.0
C1324 C 0.6768 0.58839 0.1585 0.0
C1325 C 0.68285 0.56178 0.1664 0.0
C1326 C 0.70329 0.54894 0.14681 0.0
C1327 C 0.72975 0.54236 0.16219 0.0
C1328 C 0.69136 0.52301 0.13226 0.0
C1329 C 0.70741 0.57232 0.12658 0.0
C1330 C 0.69197 0.59489 0.13381 0.0
C1331 C 0.69169 0.6187 0.11795 0.0
C1332 C 0.70775 0.61959 0.09414 0.0
C1333 C 0.72397 0.59681 0.08626 0.0
C1334 C 0.72367 0.57288 0.10287 0.0
H1335 H 0.72444 0.44454 0.44325 0.0
H1336 H 0.70633 0.35819 0.42496 0.0
H1337 H 0.68332 0.3714 0.38172 0.0
H1338 H 0.66194 0.47253 0.41638 0.0
H1339 H 0.67816 0.50264 0.40216 0.0
H1340 H 0.69257 0.48636 0.432 0.0
H1341 H 0.73811 0.48116 0.40625 0.0
H1342 H 0.72376 0.49718 0.37624 0.0
H1343 H 0.73869 0.46345 0.3732 0.0
H1344 H 0.6626 0.39401 0.33982 0.0
H1345 H 0.6447 0.42468 0.30345 0.0
H1346 H 0.67661 0.49612 0.34838 0.0
C1347 C 0.71539 0.42845 0.43029 0.0
C1348 C 0.71712 0.40029 0.43761 0.0
C1349 C 0.70527 0.37988 0.41986 0.0
C1350 C 0.69217 0.38718 0.39519 0.0
C1351 C 0.69116 0.41504 0.38835 0.0
C1352 C 0.70239 0.43538 0.40541 0.0
C1353 C 0.69886 0.46376 0.39301 0.0
C1354 C 0.68186 0.48242 0.41202 0.0
C1355 C 0.7265 0.47717 0.38681 0.0
C1356 C 0.68365 0.45625 0.3665 0.0
C1357 C 0.67952 0.428 0.36412 0.0
C1358 C 0.66582 0.41614 0.34144 0.0
C1359 C 0.65584 0.43362 0.32083 0.0
C1360 C 0.65968 0.46255 0.32304 0.0
C1361 C 0.67379 0.47397 0.34611 0.0
H1362 H 0.80376 0.50791 0.68472 0.0
H1363 H 0.86925 0.45074 0.69989 0.0
H1364 H 0.85778 0.42583 0.65624 0.0
H1365 H 0.75662 0.45819 0.65572 0.0
H1366 H 0.7433 0.48172 0.63065 0.0
H1367 H 0.7568 0.49486 0.66299 0.0
H1368 H 0.78979 0.52677 0.63651 0.0
H1369 H 0.77647 0.51362 0.60407 0.0
H1370 H 0.81229 0.5119 0.61127 0.0
H1371 H 0.83872 0.40701 0.61041 0.0
H1372 H 0.81342 0.39551 0.56744 0.0
H1373 H 0.76075 0.46542 0.58249 0.0
C1374 C 0.81574 0.49012 0.67902 0.0
C1375 C 0.83747 0.48136 0.69597 0.0
C1376 C 0.85252 0.45794 0.68743 0.0
C1377 C 0.84617 0.44366 0.66259 0.0
C1378 C 0.82473 0.453 0.64639 0.0
C1379 C 0.80973 0.47568 0.65433 0.0
C1380 C 0.78762 0.48155 0.63337 0.0
C1381 C 0.75942 0.47891 0.64647 0.0
C1382 C 0.79181 0.51016 0.62055 0.0
C1383 C 0.7924 0.45858 0.61236 0.0
C1384 C 0.81392 0.44233 0.62017 0.0
C1385 C 0.82188 0.41966 0.60412 0.0
C1386 C 0.80735 0.41331 0.57967 0.0
C1387 C 0.78503 0.42954 0.57133 0.0
C1388 C 0.77774 0.4526 0.588 0.0
H1389 H 0.39419 0.12056 0.25685 0.0
H1390 H 0.44189 0.05135 0.22767 0.0
H1391 H 0.47552 0.08411 0.20835 0.0
H1392 H 0.40358 0.16315 0.19977 0.0
H1393 H 0.40572 0.19491 0.21969 0.0
H1394 H 0.38663 0.16602 0.23256 0.0
H1395 H 0.41512 0.16734 0.27779 0.0
H1396 H 0.4342 0.1964 0.26514 0.0
H1397 H 0.45154 0.16575 0.27591 0.0
H1398 H 0.50151 0.12538 0.18803 0.0
H1399 H 0.51929 0.17072 0.17266 0.0
H1400 H 0.4552 0.21199 0.21762 0.0
C1401 C 0.41187 0.11222 0.24669 0.0
C1402 C 0.41536 0.08336 0.24371 0.0
C1403 C 0.43886 0.07337 0.23037 0.0
C1404 C 0.458 0.09184 0.21922 0.0
C1405 C 0.45356 0.12022 0.22201 0.0
C1406 C 0.43124 0.13028 0.23585 0.0
C1407 C 0.43071 0.16155 0.23583 0.0
C1408 C 0.40515 0.17201 0.22108 0.0
C1409 C 0.43304 0.17345 0.26543 0.0
C1410 C 0.45596 0.16765 0.21937 0.0
C1411 C 0.46888 0.14363 0.21139 0.0
C1412 C 0.49176 0.14429 0.19458 0.0
C1413 C 0.50167 0.17012 0.18586 0.0
C1414 C 0.4889 0.19496 0.19421 0.0
C1415 C 0.46582 0.19348 0.2113 0.0
H1416 H 0.01676 0.84412 0.68641 0.0
H1417 H 0.08927 0.81677 0.64443 0.0
H1418 H 0.11478 0.85673 0.66407 0.0
H1419 H 0.02863 0.9169 0.67363 0.0
H1420 H 0.01487 0.92824 0.70625 0.0
H1421 H 1.00272 0.89661 0.69015 0.0
H1422 H 0.01453 0.87006 0.73468 0.0
H1423 H 0.027 0.90158 0.75079 0.0
H1424 H 0.04859 0.87184 0.74833 0.0
H1425 H 0.13302 0.89821 0.6901 0.0
H1426 H 0.14096 0.94311 0.71426 0.0
H1427 H 0.05579 0.9465 0.73528 0.0
C1428 C 0.03798 0.84671 0.68139 0.0
C1429 C 0.05115 0.82749 0.66401 0.0
C1430 C 0.07884 0.83149 0.65757 0.0
C1431 C 0.09354 0.85395 0.66881 0.0
C1432 C 0.0801 0.87252 0.68603 0.0
C1433 C 0.05281 0.86956 0.69179 0.0
C1434 C 0.04292 0.89361 0.70933 0.0
C1435 C 0.02099 0.9098 0.69391 0.0
C1436 C 0.03266 0.88366 0.73745 0.0
C1437 C 0.06891 0.9104 0.71255 0.0
C1438 C 0.09024 0.89753 0.69948 0.0
C1439 C 0.11644 0.90864 0.70022 0.0
C1440 C 0.12081 0.934 0.71411 0.0
C1441 C 0.09898 0.94818 0.72645 0.0
C1442 C 0.07278 0.93607 0.72584 0.0
H1443 H 0.48951 0.83702 0.32949 0.0
H1444 H 0.43621 0.82493 0.39939 0.0
H1445 H 0.40794 0.86337 0.38401 0.0
H1446 H 0.48605 0.91283 0.33195 0.0
H1447 H 0.48703 0.9162 0.29492 0.0
H1448 H 0.50328 0.8874 0.31109 0.0
H1449 H 0.47522 0.85354 0.28002 0.0
H1450 H 0.45868 0.88223 0.26396 0.0
H1451 H 0.43876 0.85553 0.27995 0.0
H1452 H 0.38349 0.90021 0.35991 0.0
H1453 H 0.36749 0.93895 0.33215 0.0
H1454 H 0.43794 0.93154 0.27938 0.0
C1455 C 0.472 0.84267 0.3416 0.0
C1456 C 0.46502 0.82786 0.36561 0.0
C1457 C 0.44206 0.83596 0.38102 0.0
C1458 C 0.42573 0.8577 0.37236 0.0
C1459 C 0.43284 0.87158 0.34847 0.0
C1460 C 0.45569 0.86491 0.33356 0.0
C1461 C 0.45901 0.88416 0.3092 0.0
C1462 C 0.48541 0.90116 0.31197 0.0
C1463 C 0.45784 0.86789 0.28165 0.0
C1464 C 0.43427 0.90236 0.31267 0.0
C1465 C 0.41934 0.8943 0.33527 0.0
C1466 C 0.39513 0.90696 0.34234 0.0
C1467 C 0.38612 0.92887 0.32628 0.0
C1468 C 0.40145 0.93837 0.3036 0.0
C1469 C 0.42585 0.92481 0.29666 0.0
H1470 H 0.84627 0.6258 0.08002 0.0
H1471 H 0.83168 0.67847 0.00997 0.0
H1472 H 0.8706 0.70835 0.02438 0.0
H1473 H 0.86205 0.68166 0.12772 0.0
H1474 H 0.88714 0.6624 0.14633 0.0
H1475 H 0.85929 0.64454 0.12943 0.0
H1476 H 0.89319 0.61415 0.10221 0.0
H1477 H 0.92116 0.63204 0.11892 0.0
H1478 H 0.91899 0.63048 0.08172 0.0
H1479 H 0.91289 0.73109 0.04569 0.0
H1480 H 0.95057 0.7486 0.07563 0.0
H1481 H 0.93393 0.68373 0.13406 0.0
C1482 C 0.8514 0.64357 0.06768 0.0
C1483 C 0.83628 0.64976 0.04374 0.0
C1484 C 0.84313 0.67345 0.02837 0.0
C1485 C 0.86524 0.6904 0.03632 0.0
C1486 C 0.87987 0.68367 0.06002 0.0
C1487 C 0.87287 0.66111 0.07576 0.0
C1488 C 0.89067 0.65932 0.10127 0.0
C1489 C 0.87378 0.66216 0.12775 0.0
C1490 C 0.90697 0.6324 0.101 0.0
C1491 C 0.90893 0.68429 0.09739 0.0
C1492 C 0.90277 0.69779 0.07321 0.0
C1493 C 0.91767 0.72084 0.06481 0.0
C1494 C 0.93907 0.73056 0.08181 0.0
C1495 C 0.94488 0.71762 0.10715 0.0
C1496 C 0.92966 0.69416 0.1149 0.0
H1497 H 0.56145 0.30753 0.57711 0.0
H1498 H 0.60665 0.27463 0.64605 0.0
H1499 H 0.64904 0.29455 0.62722 0.0
H1500 H 0.61276 0.30011 0.52414 0.0
H1501 H 0.60524 0.33269 0.5084 0.0
H1502 H 0.57899 0.31383 0.52592 0.0
H1503 H 0.56985 0.35667 0.55716 0.0
H1504 H 0.59606 0.37566 0.53975 0.0
H1505 H 0.59738 0.37223 0.57677 0.0
H1506 H 0.6864 0.31702 0.60017 0.0
H1507 H 0.71563 0.34534 0.57026 0.0
H1508 H 0.64541 0.36837 0.52177 0.0
C1509 C 0.5804 0.30425 0.58796 0.0
C1510 C 0.58108 0.28918 0.61272 0.0
C1511 C 0.60593 0.28594 0.62692 0.0
C1512 C 0.63002 0.2971 0.61634 0.0
C1513 C 0.62871 0.31199 0.59191 0.0
C1514 C 0.60448 0.316 0.57814 0.0
C1515 C 0.60831 0.33471 0.55355 0.0
C1516 C 0.60089 0.31941 0.5264 0.0
C1517 C 0.59193 0.3614 0.55703 0.0
C1518 C 0.63851 0.3405 0.55555 0.0
C1519 C 0.64994 0.32673 0.57752 0.0
C1520 C 0.67765 0.32806 0.58307 0.0
C1521 C 0.69409 0.3441 0.56591 0.0
C1522 C 0.68272 0.35912 0.54386 0.0
C1523 C 0.65455 0.35729 0.53866 0.0
H1524 H 0.20955 0.44831 0.08309 0.0
H1525 H 0.25954 0.37883 0.10607 0.0
H1526 H 0.24634 0.38575 0.15485 0.0
H1527 H 0.22463 0.49086 0.14158 0.0
H1528 H 0.19092 0.50451 0.14455 0.0
H1529 H 0.20331 0.49336 0.11133 0.0
H1530 H 0.16204 0.4602 0.10542 0.0
H1531 H 0.1495 0.47126 0.13865 0.0
H1532 H 0.15509 0.43507 0.13163 0.0
H1533 H 0.22983 0.40184 0.20122 0.0
H1534 H 0.21052 0.42512 0.24206 0.0
H1535 H 0.17017 0.4836 0.18896 0.0
C1536 C 0.21768 0.43439 0.09829 0.0
C1537 C 0.23569 0.41299 0.09064 0.0
C1538 C 0.24571 0.39529 0.11131 0.0
C1539 C 0.23831 0.39907 0.13908 0.0
C1540 C 0.22071 0.42048 0.14584 0.0
C1541 C 0.21039 0.43775 0.12603 0.0
C1542 C 0.19222 0.45953 0.13881 0.0
C1543 C 0.20345 0.48879 0.13377 0.0
C1544 C 0.16298 0.45631 0.12798 0.0
C1545 C 0.19425 0.4521 0.16905 0.0
C1546 C 0.21077 0.42949 0.17259 0.0
C1547 C 0.2167 0.41941 0.19867 0.0
C1548 C 0.20568 0.43288 0.22176 0.0
C1549 C 0.18876 0.45619 0.21875 0.0
C1550 C 0.18274 0.46566 0.19193 0.0
H1551 H 0.37486 0.44157 0.84723 0.0
H1552 H 0.3235 0.5132 0.83903 0.0
H1553 H 0.29797 0.4991 0.88047 0.0
H1554 H 0.32181 0.39497 0.86675 0.0
H1555 H 0.34263 0.37605 0.89049 0.0
H1556 H 0.3578 0.3926 0.86123 0.0
H1557 H 0.39085 0.4196 0.89388 0.0
H1558 H 0.37592 0.40298 0.92322 0.0
H1559 H 0.37748 0.44018 0.92191 0.0
H1560 H 0.27859 0.47737 0.92334 0.0
H1561 H 0.26569 0.4489 0.96324 0.0
H1562 H 0.32762 0.38965 0.94137 0.0
C1563 C 0.35847 0.45449 0.85438 0.0
C1564 C 0.35134 0.47869 0.84015 0.0
C1565 C 0.32937 0.49469 0.84975 0.0
C1566 C 0.31477 0.48683 0.87323 0.0
C1567 C 0.32214 0.46267 0.88661 0.0
C1568 C 0.34337 0.44665 0.87743 0.0
C1569 C 0.34651 0.42106 0.89482 0.0
C1570 C 0.3419 0.39461 0.87727 0.0
C1571 C 0.37434 0.42096 0.90932 0.0
C1572 C 0.32384 0.42525 0.91537 0.0
C1573 C 0.31016 0.44949 0.91041 0.0
C1574 C 0.28903 0.45826 0.92727 0.0
C1575 C 0.28185 0.44196 0.94987 0.0
C1576 C 0.29547 0.41696 0.95521 0.0
C1577 C 0.31657 0.40844 0.93753 0.0
H1578 H 0.32793 0.55238 0.56136 0.0
H1579 H 0.26909 0.6062 0.60021 0.0
H1580 H 0.28521 0.59169 0.64629 0.0
H1581 H 0.32454 0.4969 0.60997 0.0
H1582 H 0.36041 0.49036 0.60896 0.0
H1583 H 0.34352 0.50421 0.57919 0.0
H1584 H 0.37723 0.54566 0.57932 0.0
H1585 H 0.39428 0.53188 0.60901 0.0
H1586 H 0.3814 0.5666 0.61025 0.0
H1587 H 0.30738 0.57016 0.68829 0.0
H1588 H 0.33644 0.54704 0.72257 0.0
H1589 H 0.3823 0.5095 0.65588 0.0
C1590 C 0.31829 0.56101 0.57954 0.0
C1591 C 0.29707 0.58027 0.57717 0.0
C1592 C 0.28536 0.59142 0.60152 0.0
C1593 C 0.29431 0.5832 0.62777 0.0
C1594 C 0.31521 0.56408 0.62933 0.0
C1595 C 0.32726 0.5534 0.60584 0.0
C1596 C 0.35018 0.53416 0.61308 0.0
C1597 C 0.3443 0.50466 0.60215 0.0
C1598 C 0.37738 0.54525 0.60228 0.0
C1599 C 0.34915 0.53559 0.64435 0.0
C1600 C 0.32864 0.55268 0.65336 0.0
C1601 C 0.32357 0.55685 0.68143 0.0
C1602 C 0.34012 0.54352 0.70076 0.0
C1603 C 0.36174 0.52654 0.69195 0.0
C1604 C 0.36608 0.52249 0.66331 0.0
H1605 H 0.19393 0.51937 0.34612 0.0
H1606 H 0.12839 0.57695 0.33293 0.0
H1607 H 0.1449 0.60564 0.37212 0.0
H1608 H 0.19179 0.52404 0.42172 0.0
H1609 H 0.22798 0.52128 0.42584 0.0
H1610 H 0.21123 0.50509 0.3965 0.0
H1611 H 0.24303 0.53172 0.36363 0.0
H1612 H 0.2597 0.54819 0.39286 0.0
H1613 H 0.24504 0.56891 0.3661 0.0
H1614 H 0.16982 0.62984 0.40989 0.0
H1615 H 0.1982 0.64535 0.44925 0.0
H1616 H 0.24598 0.5708 0.44179 0.0
C1617 C 0.18303 0.53793 0.35167 0.0
C1618 C 0.15994 0.54602 0.33643 0.0
C1619 C 0.14604 0.5703 0.34436 0.0
C1620 C 0.15535 0.58684 0.3665 0.0
C1621 C 0.17832 0.57857 0.38086 0.0
C1622 C 0.19172 0.55446 0.37423 0.0
C1623 C 0.21541 0.5501 0.39387 0.0
C1624 C 0.21135 0.52355 0.41047 0.0
C1625 C 0.24239 0.54971 0.37817 0.0
C1626 C 0.21333 0.57571 0.41226 0.0
C1627 C 0.19198 0.59196 0.40399 0.0
C1628 C 0.18641 0.61718 0.41681 0.0
C1629 C 0.20278 0.62588 0.43905 0.0
C1630 C 0.2242 0.60922 0.44863 0.0
C1631 C 0.2296 0.58382 0.43498 0.0
loop_
_geom_bond_atom_site_label_1
_geom_bond_atom_site_label_2
_geom_bond_distance
_geom_bond_site_symmetry_2
_ccdc_geom_bond_type
Co0 O1 2.216 1_455 S
Co0 O2 2.091 1_455 S
Co0 O4 2.004 . S
Co0 O10 2.021 1_455 S
Co0 O12 2.137 . S
Co0 O13 2.244 . S
O1 Co0 2.216 1_655 S
O1 C8 1.247 . S
O2 Co0 2.091 1_655 S
O2 C8 1.261 . S
C3 O12 1.247 . S
C3 O13 1.272 . S
O4 Co0 2.004 . S
O4 C9 1.259 . S
Co5 O6 2.061 . S
Co5 O11 2.052 . S
Co5 O13 2.135 . S
O6 Co5 2.061 . S
O6 C9 1.235 . S
C7 O10 1.238 . S
C7 O11 1.241 1_655 S
C8 O1 1.247 . S
C8 O2 1.261 . S
C9 O4 1.259 . S
C9 O6 1.235 . S
O10 Co0 2.021 1_655 S
O10 C7 1.238 . S
O11 Co5 2.052 . S
O11 C7 1.241 1_455 S
O12 Co0 2.137 . S
O12 C3 1.247 . S
O13 Co0 2.244 . S
O13 C3 1.272 . S
O13 Co5 2.135 . S
Co14 O15 2.216 . S
Co14 O16 2.091 . S
Co14 O18 2.004 1_455 S
Co14 O24 2.021 1_455 S
Co14 O26 2.137 . S
Co14 O27 2.244 . S
O15 Co14 2.216 . S
O15 C22 1.247 . S
O16 Co14 2.091 . S
O16 C22 1.261 . S
C17 O26 1.247 . S
C17 O27 1.272 . S
O18 Co14 2.004 1_655 S
O18 C23 1.259 . S
Co19 O20 2.061 . S
Co19 O25 2.052 . S
Co19 O27 2.135 1_655 S
O20 Co19 2.061 . S
O20 C23 1.235 . S
C21 O24 1.238 . S
C21 O25 1.241 . S
C22 O15 1.247 . S
C22 O16 1.261 . S
C23 O18 1.259 . S
C23 O20 1.235 . S
O24 Co14 2.021 1_655 S
O24 C21 1.238 . S
O25 Co19 2.052 . S
O25 C21 1.241 . S
O26 Co14 2.137 . S
O26 C17 1.247 . S
O27 Co14 2.244 . S
O27 C17 1.272 . S
O27 Co19 2.135 1_455 S
Co28 O29 2.216 . S
Co28 O30 2.091 . S
Co28 O32 2.004 . S
Co28 O38 2.021 . S
Co28 O40 2.137 . S
Co28 O41 2.244 . S
O29 Co28 2.216 . S
O29 C36 1.247 . S
O30 Co28 2.091 . S
O30 C36 1.261 . S
C31 O40 1.247 . S
C31 O41 1.272 . S
O32 Co28 2.004 . S
O32 C37 1.259 . S
Co33 O34 2.061 . S
Co33 O39 2.052 . S
Co33 O41 2.135 . S
O34 Co33 2.061 . S
O34 C37 1.235 . S
C35 O38 1.238 . S
C35 O39 1.241 . S
C36 O29 1.247 . S
C36 O30 1.261 . S
C37 O32 1.259 . S
C37 O34 1.235 . S
O38 Co28 2.021 . S
O38 C35 1.238 . S
O39 Co33 2.052 . S
O39 C35 1.241 . S
O40 Co28 2.137 . S
O40 C31 1.247 . S
O41 Co28 2.244 . S
O41 C31 1.272 . S
O41 Co33 2.135 . S
Co42 O43 2.216 . S
Co42 O44 2.091 . S
Co42 O46 2.004 . S
Co42 O52 2.021 . S
Co42 O54 2.137 . S
Co42 O55 2.244 . S
O43 Co42 2.216 . S
O43 C50 1.247 . S
O44 Co42 2.091 . S
O44 C50 1.261 . S
C45 O54 1.247 . S
C45 O55 1.272 . S
O46 Co42 2.004 . S
O46 C51 1.259 . S
Co47 O48 2.061 . S
Co47 O53 2.052 . S
Co47 O55 2.135 . S
O48 Co47 2.061 . S
O48 C51 1.235 . S
C49 O52 1.238 . S
C49 O53 1.241 . S
C50 O43 1.247 . S
C50 O44 1.261 . S
C51 O46 1.259 . S
C51 O48 1.235 . S
O52 Co42 2.021 . S
O52 C49 1.238 . S
O53 Co47 2.052 . S
O53 C49 1.241 . S
O54 Co42 2.137 . S
O54 C45 1.247 . S
O55 Co42 2.244 . S
O55 C45 1.272 . S
O55 Co47 2.135 . S
Co56 O57 2.216 . S
Co56 O58 2.091 . S
Co56 O60 2.004 1_455 S
Co56 O66 2.021 . S
Co56 O68 2.137 1_455 S
Co56 O69 2.244 1_455 S
O57 Co56 2.216 . S
O57 C64 1.247 . S
O58 Co56 2.091 . S
O58 C64 1.261 . S
C59 O68 1.247 . S
C59 O69 1.272 . S
O60 Co56 2.004 1_655 S
O60 C65 1.259 . S
Co61 O62 2.061 . S
Co61 O67 2.052 1_655 S
Co61 O69 2.135 . S
O62 Co61 2.061 . S
O62 C65 1.235 . S
C63 O66 1.238 . S
C63 O67 1.241 . S
C64 O57 1.247 . S
C64 O58 1.261 . S
C65 O60 1.259 . S
C65 O62 1.235 . S
O66 Co56 2.021 . S
O66 C63 1.238 . S
O67 Co61 2.052 1_455 S
O67 C63 1.241 . S
O68 Co56 2.137 1_655 S
O68 C59 1.247 . S
O69 Co56 2.244 1_655 S
O69 C59 1.272 . S
O69 Co61 2.135 . S
Co70 O71 2.216 . S
Co70 O72 2.091 . S
Co70 O74 2.004 . S
Co70 O80 2.021 . S
Co70 O82 2.137 . S
Co70 O83 2.244 . S
O71 Co70 2.216 . S
O71 C78 1.247 . S
O72 Co70 2.091 . S
O72 C78 1.261 . S
C73 O82 1.247 . S
C73 O83 1.272 . S
O74 Co70 2.004 . S
O74 C79 1.259 . S
Co75 O76 2.061 . S
Co75 O81 2.052 . S
Co75 O83 2.135 . S
O76 Co75 2.061 . S
O76 C79 1.235 . S
C77 O80 1.238 . S
C77 O81 1.241 . S
C78 O71 1.247 . S
C78 O72 1.261 . S
C79 O74 1.259 . S
C79 O76 1.235 . S
O80 Co70 2.021 . S
O80 C77 1.238 . S
O81 Co75 2.052 . S
O81 C77 1.241 . S
O82 Co70 2.137 . S
O82 C73 1.247 . S
O83 Co70 2.244 . S
O83 C73 1.272 . S
O83 Co75 2.135 . S
Co84 O85 2.216 . S
Co84 O86 2.091 . S
Co84 O88 2.004 . S
Co84 O94 2.021 . S
Co84 O96 2.137 . S
Co84 O97 2.244 . S
O85 Co84 2.216 . S
O85 C92 1.247 . S
O86 Co84 2.091 . S
O86 C92 1.261 . S
C87 O96 1.247 . S
C87 O97 1.272 . S
O88 Co84 2.004 . S
O88 C93 1.259 . S
Co89 O90 2.061 . S
Co89 O95 2.052 . S
Co89 O97 2.135 . S
O90 Co89 2.061 . S
O90 C93 1.235 . S
C91 O94 1.238 . S
C91 O95 1.241 . S
C92 O85 1.247 . S
C92 O86 1.261 . S
C93 O88 1.259 . S
C93 O90 1.235 . S
O94 Co84 2.021 . S
O94 C91 1.238 . S
O95 Co89 2.052 . S
O95 C91 1.241 . S
O96 Co84 2.137 . S
O96 C87 1.247 . S
O97 Co84 2.244 . S
O97 C87 1.272 . S
O97 Co89 2.135 . S
Co98 O99 2.216 . S
Co98 O100 2.091 . S
Co98 O102 2.004 1_655 S
Co98 O108 2.021 1_655 S
Co98 O110 2.137 . S
Co98 O111 2.244 1_655 S
O99 Co98 2.216 . S
O99 C106 1.247 . S
O100 Co98 2.091 . S
O100 C106 1.261 . S
C101 O110 1.247 . S
C101 O111 1.272 1_655 S
O102 Co98 2.004 1_455 S
O102 C107 1.259 . S
Co103 O104 2.061 . S
Co103 O109 2.052 . S
Co103 O111 2.135 . S
O104 Co103 2.061 . S
O104 C107 1.235 . S
C105 O108 1.238 . S
C105 O109 1.241 . S
C106 O99 1.247 . S
C106 O100 1.261 . S
C107 O102 1.259 . S
C107 O104 1.235 . S
O108 Co98 2.021 1_455 S
O108 C105 1.238 . S
O109 Co103 2.052 . S
O109 C105 1.241 . S
O110 Co98 2.137 . S
O110 C101 1.247 . S
O111 Co98 2.244 1_455 S
O111 C101 1.272 1_455 S
O111 Co103 2.135 . S
Co112 O113 2.216 . S
Co112 O114 2.091 . S
Co112 O116 2.004 1_565 S
Co112 O122 2.021 . S
Co112 O124 2.137 1_565 S
Co112 O125 2.244 1_565 S
O113 Co112 2.216 . S
O113 C120 1.247 . S
O114 Co112 2.091 . S
O114 C120 1.261 . S
C115 O124 1.247 . S
C115 O125 1.272 . S
O116 Co112 2.004 1_545 S
O116 C121 1.259 . S
Co117 O118 2.061 . S
Co117 O123 2.052 . S
Co117 O125 2.135 . S
O118 Co117 2.061 . S
O118 C121 1.235 . S
C119 O122 1.238 . S
C119 O123 1.241 1_565 S
C120 O113 1.247 . S
C120 O114 1.261 . S
C121 O116 1.259 . S
C121 O118 1.235 . S
O122 Co112 2.021 . S
O122 C119 1.238 . S
O123 Co117 2.052 . S
O123 C119 1.241 1_545 S
O124 Co112 2.137 1_545 S
O124 C115 1.247 . S
O125 Co112 2.244 1_545 S
O125 C115 1.272 . S
O125 Co117 2.135 . S
Co126 O127 2.216 . S
Co126 O128 2.091 . S
Co126 O130 2.004 . S
Co126 O136 2.021 . S
Co126 O138 2.137 . S
Co126 O139 2.244 . S
O127 Co126 2.216 . S
O127 C134 1.247 . S
O128 Co126 2.091 . S
O128 C134 1.261 . S
C129 O138 1.247 . S
C129 O139 1.272 . S
O130 Co126 2.004 . S
O130 C135 1.259 . S
Co131 O132 2.061 . S
Co131 O137 2.052 . S
Co131 O139 2.135 . S
O132 Co131 2.061 . S
O132 C135 1.235 . S
C133 O136 1.238 . S
C133 O137 1.241 . S
C134 O127 1.247 . S
C134 O128 1.261 . S
C135 O130 1.259 . S
C135 O132 1.235 . S
O136 Co126 2.021 . S
O136 C133 1.238 . S
O137 Co131 2.052 . S
O137 C133 1.241 . S
O138 Co126 2.137 . S
O138 C129 1.247 . S
O139 Co126 2.244 . S
O139 C129 1.272 . S
O139 Co131 2.135 . S
Co140 O141 2.216 1_545 S
Co140 O142 2.091 1_545 S
Co140 O144 2.004 . S
Co140 O150 2.021 1_545 S
Co140 O152 2.137 . S
Co140 O153 2.244 . S
O141 Co140 2.216 1_565 S
O141 C148 1.247 . S
O142 Co140 2.091 1_565 S
O142 C148 1.261 . S
C143 O152 1.247 . S
C143 O153 1.272 . S
O144 Co140 2.004 . S
O144 C149 1.259 . S
Co145 O146 2.061 . S
Co145 O151 2.052 1_545 S
Co145 O153 2.135 . S
O146 Co145 2.061 . S
O146 C149 1.235 . S
C147 O150 1.238 . S
C147 O151 1.241 . S
C148 O141 1.247 . S
C148 O142 1.261 . S
C149 O144 1.259 . S
C149 O146 1.235 . S
O150 Co140 2.021 1_565 S
O150 C147 1.238 . S
O151 Co145 2.052 1_565 S
O151 C147 1.241 . S
O152 Co140 2.137 . S
O152 C143 1.247 . S
O153 Co140 2.244 . S
O153 C143 1.272 . S
O153 Co145 2.135 . S
Co154 O155 2.216 1_554 S
Co154 O156 2.091 1_554 S
Co154 O158 2.004 . S
Co154 O164 2.021 . S
Co154 O166 2.137 1_554 S
Co154 O167 2.244 1_554 S
O155 Co154 2.216 1_556 S
O155 C162 1.247 . S
O156 Co154 2.091 1_556 S
O156 C162 1.261 . S
C157 O166 1.247 . S
C157 O167 1.272 . S
O158 Co154 2.004 . S
O158 C163 1.259 . S
Co159 O160 2.061 . S
Co159 O165 2.052 . S
Co159 O167 2.135 1_554 S
O160 Co159 2.061 . S
O160 C163 1.235 . S
C161 O164 1.238 . S
C161 O165 1.241 . S
C162 O155 1.247 . S
C162 O156 1.261 . S
C163 O158 1.259 . S
C163 O160 1.235 . S
O164 Co154 2.021 . S
O164 C161 1.238 . S
O165 Co159 2.052 . S
O165 C161 1.241 . S
O166 Co154 2.137 1_556 S
O166 C157 1.247 . S
O167 Co154 2.244 1_556 S
O167 C157 1.272 . S
O167 Co159 2.135 1_556 S
Co168 O169 2.216 . S
Co168 O170 2.091 . S
Co168 O172 2.004 1_554 S
Co168 O178 2.021 . S
Co168 O180 2.137 1_554 S
Co168 O181 2.244 1_554 S
O169 Co168 2.216 . S
O169 C176 1.247 . S
O170 Co168 2.091 . S
O170 C176 1.261 . S
C171 O180 1.247 . S
C171 O181 1.272 . S
O172 Co168 2.004 1_556 S
O172 C177 1.259 . S
Co173 O174 2.061 . S
Co173 O179 2.052 1_556 S
Co173 O181 2.135 . S
O174 Co173 2.061 . S
O174 C177 1.235 . S
C175 O178 1.238 . S
C175 O179 1.241 . S
C176 O169 1.247 . S
C176 O170 1.261 . S
C177 O172 1.259 . S
C177 O174 1.235 . S
O178 Co168 2.021 . S
O178 C175 1.238 . S
O179 Co173 2.052 1_554 S
O179 C175 1.241 . S
O180 Co168 2.137 1_556 S
O180 C171 1.247 . S
O181 Co168 2.244 1_556 S
O181 C171 1.272 . S
O181 Co173 2.135 . S
Co182 O183 2.216 . S
Co182 O184 2.091 . S
Co182 O186 2.004 1_554 S
Co182 O192 2.021 . S
Co182 O194 2.137 1_554 S
Co182 O195 2.244 1_554 S
O183 Co182 2.216 . S
O183 C190 1.247 . S
O184 Co182 2.091 . S
O184 C190 1.261 . S
C185 O194 1.247 . S
C185 O195 1.272 . S
O186 Co182 2.004 1_556 S
O186 C191 1.259 . S
Co187 O188 2.061 . S
Co187 O193 2.052 1_556 S
Co187 O195 2.135 . S
O188 Co187 2.061 . S
O188 C191 1.235 . S
C189 O192 1.238 . S
C189 O193 1.241 . S
C190 O183 1.247 . S
C190 O184 1.261 . S
C191 O186 1.259 . S
C191 O188 1.235 . S
O192 Co182 2.021 . S
O192 C189 1.238 . S
O193 Co187 2.052 1_554 S
O193 C189 1.241 . S
O194 Co182 2.137 1_556 S
O194 C185 1.247 . S
O195 Co182 2.244 1_556 S
O195 C185 1.272 . S
O195 Co187 2.135 . S
Co196 O197 2.216 . S
Co196 O198 2.091 . S
Co196 O200 2.004 . S
Co196 O206 2.021 . S
Co196 O208 2.137 . S
Co196 O209 2.244 . S
O197 Co196 2.216 . S
O197 C204 1.247 . S
O198 Co196 2.091 . S
O198 C204 1.261 . S
C199 O208 1.247 . S
C199 O209 1.272 . S
O200 Co196 2.004 . S
O200 C205 1.259 . S
Co201 O202 2.061 . S
Co201 O207 2.052 . S
Co201 O209 2.135 . S
O202 Co201 2.061 . S
O202 C205 1.235 . S
C203 O206 1.238 . S
C203 O207 1.241 . S
C204 O197 1.247 . S
C204 O198 1.261 . S
C205 O200 1.259 . S
C205 O202 1.235 . S
O206 Co196 2.021 . S
O206 C203 1.238 . S
O207 Co201 2.052 . S
O207 C203 1.241 . S
O208 Co196 2.137 . S
O208 C199 1.247 . S
O209 Co196 2.244 . S
O209 C199 1.272 . S
O209 Co201 2.135 . S
Co210 O211 2.216 . S
Co210 O212 2.091 . S
Co210 O214 2.004 . S
Co210 O220 2.021 . S
Co210 O222 2.137 . S
Co210 O223 2.244 . S
O211 Co210 2.216 . S
O211 C218 1.247 . S
O212 Co210 2.091 . S
O212 C218 1.261 . S
C213 O222 1.247 . S
C213 O223 1.272 . S
O214 Co210 2.004 . S
O214 C219 1.259 . S
Co215 O216 2.061 . S
Co215 O221 2.052 . S
Co215 O223 2.135 . S
O216 Co215 2.061 . S
O216 C219 1.235 . S
C217 O220 1.238 . S
C217 O221 1.241 . S
C218 O211 1.247 . S
C218 O212 1.261 . S
C219 O214 1.259 . S
C219 O216 1.235 . S
O220 Co210 2.021 . S
O220 C217 1.238 . S
O221 Co215 2.052 . S
O221 C217 1.241 . S
O222 Co210 2.137 . S
O222 C213 1.247 . S
O223 Co210 2.244 . S
O223 C213 1.272 . S
O223 Co215 2.135 . S
Co224 O225 2.216 . S
Co224 O226 2.091 . S
Co224 O228 2.004 1_565 S
Co224 O234 2.021 1_565 S
Co224 O236 2.137 . S
Co224 O237 2.244 . S
O225 Co224 2.216 . S
O225 C232 1.247 . S
O226 Co224 2.091 . S
O226 C232 1.261 . S
C227 O236 1.247 . S
C227 O237 1.272 . S
O228 Co224 2.004 1_545 S
O228 C233 1.259 . S
Co229 O230 2.061 . S
Co229 O235 2.052 . S
Co229 O237 2.135 1_545 S
O230 Co229 2.061 . S
O230 C233 1.235 . S
C231 O234 1.238 . S
C231 O235 1.241 . S
C232 O225 1.247 . S
C232 O226 1.261 . S
C233 O228 1.259 . S
C233 O230 1.235 . S
O234 Co224 2.021 1_545 S
O234 C231 1.238 . S
O235 Co229 2.052 . S
O235 C231 1.241 . S
O236 Co224 2.137 . S
O236 C227 1.247 . S
O237 Co224 2.244 . S
O237 C227 1.272 . S
O237 Co229 2.135 1_565 S
Co238 O239 2.216 . S
Co238 O240 2.091 . S
Co238 O242 2.004 . S
Co238 O248 2.021 . S
Co238 O250 2.137 . S
Co238 O251 2.244 . S
O239 Co238 2.216 . S
O239 C246 1.247 . S
O240 Co238 2.091 . S
O240 C246 1.261 . S
C241 O250 1.247 . S
C241 O251 1.272 . S
O242 Co238 2.004 . S
O242 C247 1.259 . S
Co243 O244 2.061 . S
Co243 O249 2.052 . S
Co243 O251 2.135 . S
O244 Co243 2.061 . S
O244 C247 1.235 . S
C245 O248 1.238 . S
C245 O249 1.241 . S
C246 O239 1.247 . S
C246 O240 1.261 . S
C247 O242 1.259 . S
C247 O244 1.235 . S
O248 Co238 2.021 . S
O248 C245 1.238 . S
O249 Co243 2.052 . S
O249 C245 1.241 . S
O250 Co238 2.137 . S
O250 C241 1.247 . S
O251 Co238 2.244 . S
O251 C241 1.272 . S
O251 Co243 2.135 . S
Co252 O253 2.216 . S
Co252 O254 2.091 . S
Co252 O256 2.004 . S
Co252 O262 2.021 . S
Co252 O264 2.137 . S
Co252 O265 2.244 . S
O253 Co252 2.216 . S
O253 C260 1.247 . S
O254 Co252 2.091 . S
O254 C260 1.261 . S
C255 O264 1.247 . S
C255 O265 1.272 . S
O256 Co252 2.004 . S
O256 C261 1.259 . S
Co257 O258 2.061 . S
Co257 O263 2.052 . S
Co257 O265 2.135 . S
O258 Co257 2.061 . S
O258 C261 1.235 . S
C259 O262 1.238 . S
C259 O263 1.241 . S
C260 O253 1.247 . S
C260 O254 1.261 . S
C261 O256 1.259 . S
C261 O258 1.235 . S
O262 Co252 2.021 . S
O262 C259 1.238 . S
O263 Co257 2.052 . S
O263 C259 1.241 . S
O264 Co252 2.137 . S
O264 C255 1.247 . S
O265 Co252 2.244 . S
O265 C255 1.272 . S
O265 Co257 2.135 . S
Co266 O267 2.216 . S
Co266 O268 2.091 . S
Co266 O270 2.004 1_545 S
Co266 O276 2.021 1_545 S
Co266 O278 2.137 . S
Co266 O279 2.244 . S
O267 Co266 2.216 . S
O267 C274 1.247 . S
O268 Co266 2.091 . S
O268 C274 1.261 . S
C269 O278 1.247 . S
C269 O279 1.272 . S
O270 Co266 2.004 1_565 S
O270 C275 1.259 . S
Co271 O272 2.061 . S
Co271 O277 2.052 . S
Co271 O279 2.135 1_565 S
O272 Co271 2.061 . S
O272 C275 1.235 . S
C273 O276 1.238 . S
C273 O277 1.241 . S
C274 O267 1.247 . S
C274 O268 1.261 . S
C275 O270 1.259 . S
C275 O272 1.235 . S
O276 Co266 2.021 1_565 S
O276 C273 1.238 . S
O277 Co271 2.052 . S
O277 C273 1.241 . S
O278 Co266 2.137 . S
O278 C269 1.247 . S
O279 Co266 2.244 . S
O279 C269 1.272 . S
O279 Co271 2.135 1_545 S
Co280 O281 2.228 . S
Co280 O282 2.097 . S
Co280 O284 1.994 1_556 S
Co280 O290 1.995 1_556 S
Co280 O292 2.164 . S
Co280 O293 2.251 . S
O281 Co280 2.228 . S
O281 C288 1.247 . S
O282 Co280 2.097 . S
O282 C288 1.261 . S
C283 O292 1.247 . S
C283 O293 1.272 . S
O284 Co280 1.994 1_554 S
O284 C289 1.259 . S
Co285 O286 2.061 . S
Co285 O291 2.052 . S
Co285 O293 2.135 1_554 S
O286 Co285 2.061 . S
O286 C289 1.235 . S
C287 O290 1.238 . S
C287 O291 1.241 . S
C288 O281 1.247 . S
C288 O282 1.261 . S
C289 O284 1.259 . S
C289 O286 1.235 . S
O290 Co280 1.995 1_554 S
O290 C287 1.238 . S
O291 Co285 2.052 . S
O291 C287 1.241 . S
O292 Co280 2.164 . S
O292 C283 1.247 . S
O293 Co280 2.251 . S
O293 C283 1.272 . S
O293 Co285 2.135 1_556 S
Co294 O295 2.216 . S
Co294 O296 2.091 . S
Co294 O298 2.004 . S
Co294 O304 2.021 . S
Co294 O306 2.137 . S
Co294 O307 2.244 . S
O295 Co294 2.216 . S
O295 C302 1.247 . S
O296 Co294 2.091 . S
O296 C302 1.261 . S
C297 O306 1.247 . S
C297 O307 1.272 . S
O298 Co294 2.004 . S
O298 C303 1.259 . S
Co299 O300 2.061 . S
Co299 O305 2.052 . S
Co299 O307 2.135 . S
O300 Co299 2.061 . S
O300 C303 1.235 . S
C301 O304 1.238 . S
C301 O305 1.241 . S
C302 O295 1.247 . S
C302 O296 1.261 . S
C303 O298 1.259 . S
C303 O300 1.235 . S
O304 Co294 2.021 . S
O304 C301 1.238 . S
O305 Co299 2.052 . S
O305 C301 1.241 . S
O306 Co294 2.137 . S
O306 C297 1.247 . S
O307 Co294 2.244 . S
O307 C297 1.272 . S
O307 Co299 2.135 . S
Co308 O309 2.216 . S
Co308 O310 2.091 . S
Co308 O312 2.004 . S
Co308 O318 2.021 . S
Co308 O320 2.137 . S
Co308 O321 2.244 . S
O309 Co308 2.216 . S
O309 C316 1.247 . S
O310 Co308 2.091 . S
O310 C316 1.261 . S
C311 O320 1.247 . S
C311 O321 1.272 . S
O312 Co308 2.004 . S
O312 C317 1.259 . S
Co313 O314 2.061 . S
Co313 O319 2.052 . S
Co313 O321 2.135 . S
O314 Co313 2.061 . S
O314 C317 1.235 . S
C315 O318 1.238 . S
C315 O319 1.241 . S
C316 O309 1.247 . S
C316 O310 1.261 . S
C317 O312 1.259 . S
C317 O314 1.235 . S
O318 Co308 2.021 . S
O318 C315 1.238 . S
O319 Co313 2.052 . S
O319 C315 1.241 . S
O320 Co308 2.137 . S
O320 C311 1.247 . S
O321 Co308 2.244 . S
O321 C311 1.272 . S
O321 Co313 2.135 . S
Co322 O323 2.216 . S
Co322 O324 2.091 . S
Co322 O326 2.004 . S
Co322 O332 2.021 . S
Co322 O334 2.137 . S
Co322 O335 2.244 . S
O323 Co322 2.216 . S
O323 C330 1.247 . S
O324 Co322 2.091 . S
O324 C330 1.261 . S
C325 O334 1.247 . S
C325 O335 1.272 . S
O326 Co322 2.004 . S
O326 C331 1.259 . S
Co327 O328 2.061 . S
Co327 O333 2.052 . S
Co327 O335 2.135 . S
O328 Co327 2.061 . S
O328 C331 1.235 . S
C329 O332 1.238 . S
C329 O333 1.241 . S
C330 O323 1.247 . S
C330 O324 1.261 . S
C331 O326 1.259 . S
C331 O328 1.235 . S
O332 Co322 2.021 . S
O332 C329 1.238 . S
O333 Co327 2.052 . S
O333 C329 1.241 . S
O334 Co322 2.137 . S
O334 C325 1.247 . S
O335 Co322 2.244 . S
O335 C325 1.272 . S
O335 Co327 2.135 . S
H336 C348 0.930 . S
H337 C350 0.930 . S
H338 C351 0.930 . S
H339 C355 0.959 . S
H340 C355 0.959 . S
H341 C355 0.961 . S
H342 C356 0.960 . S
H343 C356 0.961 . S
H344 C356 0.959 . S
H345 C359 0.929 . S
H346 C360 0.931 . S
H347 C362 0.930 . S
C348 H336 0.930 . S
C348 C349 1.399 . S
C348 C353 1.399 . S
C349 C348 1.399 . S
C349 C350 1.376 . S
C350 H337 0.930 . S
C350 C349 1.376 . S
C350 C351 1.388 . S
C351 H338 0.930 . S
C351 C350 1.388 . S
C351 C352 1.390 . S
C352 C351 1.390 . S
C352 C353 1.394 . S
C352 C358 1.465 . S
C353 C348 1.399 . S
C353 C352 1.394 . S
C353 C354 1.516 . S
C354 C353 1.516 . S
C354 C355 1.502 . S
C354 C356 1.561 . S
C354 C357 1.526 . S
C355 H339 0.959 . S
C355 H340 0.959 . S
C355 H341 0.961 . S
C355 C354 1.502 . S
C356 H342 0.960 . S
C356 H343 0.961 . S
C356 H344 0.959 . S
C356 C354 1.561 . S
C357 C354 1.526 . S
C357 C358 1.396 . S
C357 C362 1.390 . S
C358 C352 1.465 . S
C358 C357 1.396 . S
C358 C359 1.399 . S
C359 H345 0.929 . S
C359 C358 1.399 . S
C359 C360 1.385 . S
C360 H346 0.931 . S
C360 C359 1.385 . S
C360 C361 1.389 . S
C361 C360 1.389 . S
C361 C362 1.387 . S
C362 H347 0.930 . S
C362 C357 1.390 . S
C362 C361 1.387 . S
H363 C375 0.930 . S
H364 C377 0.930 . S
H365 C378 0.930 . S
H366 C382 0.959 . S
H367 C382 0.959 . S
H368 C382 0.961 . S
H369 C383 0.960 . S
H370 C383 0.961 . S
H371 C383 0.959 . S
H372 C386 0.929 . S
H373 C387 0.931 . S
H374 C389 0.930 . S
C375 H363 0.930 . S
C375 C376 1.399 . S
C375 C380 1.399 . S
C376 C375 1.399 . S
C376 C377 1.376 . S
C377 H364 0.930 . S
C377 C376 1.376 . S
C377 C378 1.388 . S
C378 H365 0.930 . S
C378 C377 1.388 . S
C378 C379 1.390 . S
C379 C378 1.390 . S
C379 C380 1.394 . S
C379 C385 1.465 . S
C380 C375 1.399 . S
C380 C379 1.394 . S
C380 C381 1.516 . S
C381 C380 1.516 . S
C381 C382 1.502 . S
C381 C383 1.561 . S
C381 C384 1.526 . S
C382 H366 0.959 . S
C382 H367 0.959 . S
C382 H368 0.961 . S
C382 C381 1.502 . S
C383 H369 0.960 . S
C383 H370 0.961 . S
C383 H371 0.959 . S
C383 C381 1.561 . S
C384 C381 1.526 . S
C384 C385 1.396 . S
C384 C389 1.390 . S
C385 C379 1.465 . S
C385 C384 1.396 . S
C385 C386 1.399 . S
C386 H372 0.929 . S
C386 C385 1.399 . S
C386 C387 1.385 . S
C387 H373 0.931 . S
C387 C386 1.385 . S
C387 C388 1.389 . S
C388 C387 1.389 . S
C388 C389 1.387 . S
C389 H374 0.930 . S
C389 C384 1.390 . S
C389 C388 1.387 . S
H390 C402 0.930 . S
H391 C404 0.930 . S
H392 C405 0.930 . S
H393 C409 0.959 . S
H394 C409 0.959 . S
H395 C409 0.961 . S
H396 C410 0.960 . S
H397 C410 0.961 . S
H398 C410 0.959 . S
H399 C413 0.929 . S
H400 C414 0.931 . S
H401 C416 0.930 . S
C402 H390 0.930 . S
C402 C403 1.399 . S
C402 C407 1.399 . S
C403 C402 1.399 . S
C403 C404 1.376 . S
C404 H391 0.930 . S
C404 C403 1.376 . S
C404 C405 1.388 . S
C405 H392 0.930 . S
C405 C404 1.388 . S
C405 C406 1.390 . S
C406 C405 1.390 . S
C406 C407 1.394 . S
C406 C412 1.465 . S
C407 C402 1.399 . S
C407 C406 1.394 . S
C407 C408 1.516 . S
C408 C407 1.516 . S
C408 C409 1.502 . S
C408 C410 1.561 . S
C408 C411 1.526 . S
C409 H393 0.959 . S
C409 H394 0.959 . S
C409 H395 0.961 . S
C409 C408 1.502 . S
C410 H396 0.960 . S
C410 H397 0.961 . S
C410 H398 0.959 . S
C410 C408 1.561 . S
C411 C408 1.526 . S
C411 C412 1.396 . S
C411 C416 1.390 . S
C412 C406 1.465 . S
C412 C411 1.396 . S
C412 C413 1.399 . S
C413 H399 0.929 . S
C413 C412 1.399 . S
C413 C414 1.385 . S
C414 H400 0.931 . S
C414 C413 1.385 . S
C414 C415 1.389 . S
C415 C414 1.389 . S
C415 C416 1.387 . S
C416 H401 0.930 . S
C416 C411 1.390 . S
C416 C415 1.387 . S
H417 C429 0.930 . S
H418 C431 0.930 . S
H419 C432 0.930 . S
H420 C436 0.959 . S
H421 C436 0.959 . S
H422 C436 0.961 . S
H423 C437 0.960 . S
H424 C437 0.961 . S
H425 C437 0.959 . S
H426 C440 0.929 . S
H427 C441 0.931 . S
H428 C443 0.930 . S
C429 H417 0.930 . S
C429 C430 1.399 . S
C429 C434 1.399 . S
C430 C429 1.399 . S
C430 C431 1.376 . S
C431 H418 0.930 . S
C431 C430 1.376 . S
C431 C432 1.388 . S
C432 H419 0.930 . S
C432 C431 1.388 . S
C432 C433 1.390 . S
C433 C432 1.390 . S
C433 C434 1.394 . S
C433 C439 1.465 . S
C434 C429 1.399 . S
C434 C433 1.394 . S
C434 C435 1.516 . S
C435 C434 1.516 . S
C435 C436 1.502 . S
C435 C437 1.561 . S
C435 C438 1.526 . S
C436 H420 0.959 . S
C436 H421 0.959 . S
C436 H422 0.961 . S
C436 C435 1.502 . S
C437 H423 0.960 . S
C437 H424 0.961 . S
C437 H425 0.959 . S
C437 C435 1.561 . S
C438 C435 1.526 . S
C438 C439 1.396 . S
C438 C443 1.390 . S
C439 C433 1.465 . S
C439 C438 1.396 . S
C439 C440 1.399 . S
C440 H426 0.929 . S
C440 C439 1.399 . S
C440 C441 1.385 . S
C441 H427 0.931 . S
C441 C440 1.385 . S
C441 C442 1.389 . S
C442 C441 1.389 . S
C442 C443 1.387 . S
C443 H428 0.930 . S
C443 C438 1.390 . S
C443 C442 1.387 . S
H444 C456 0.930 . S
H445 C458 0.930 . S
H446 C459 0.930 . S
H447 C463 0.959 . S
H448 C463 0.979 . S
H449 C463 0.961 . S
H450 C464 0.960 . S
H451 C464 0.961 . S
H452 C464 0.959 . S
H453 C467 0.929 . S
H454 C468 0.931 . S
H455 C470 0.930 . S
C456 H444 0.930 . S
C456 C457 1.399 . S
C456 C461 1.399 . S
C457 C456 1.399 . S
C457 C458 1.376 . S
C458 H445 0.930 . S
C458 C457 1.376 . S
C458 C459 1.388 . S
C459 H446 0.930 . S
C459 C458 1.388 . S
C459 C460 1.390 . S
C460 C459 1.390 . S
C460 C461 1.394 . S
C460 C466 1.465 . S
C461 C456 1.399 . S
C461 C460 1.394 . S
C461 C462 1.516 . S
C462 C461 1.516 . S
C462 C463 1.502 . S
C462 C464 1.561 . S
C462 C465 1.526 . S
C463 H447 0.959 . S
C463 H448 0.979 . S
C463 H449 0.961 . S
C463 C462 1.502 . S
C464 H450 0.960 . S
C464 H451 0.961 . S
C464 H452 0.959 . S
C464 C462 1.561 . S
C465 C462 1.526 . S
C465 C466 1.396 . S
C465 C470 1.390 . S
C466 C460 1.465 . S
C466 C465 1.396 . S
C466 C467 1.399 . S
C467 H453 0.929 . S
C467 C466 1.399 . S
C467 C468 1.385 . S
C468 H454 0.931 . S
C468 C467 1.385 . S
C468 C469 1.389 . S
C469 C468 1.389 . S
C469 C470 1.387 . S
C470 H455 0.930 . S
C470 C465 1.390 . S
C470 C469 1.387 . S
H471 C483 0.930 . S
H472 C485 0.930 . S
H473 C486 0.930 . S
H474 C490 0.959 . S
H475 C490 0.959 . S
H476 C490 0.961 . S
H477 C491 0.960 . S
H478 C491 0.961 . S
H479 C491 0.959 . S
H480 C494 0.929 . S
H481 C495 0.931 . S
H482 C497 0.930 . S
C483 H471 0.930 . S
C483 C484 1.399 . S
C483 C488 1.399 . S
C484 C483 1.399 . S
C484 C485 1.376 . S
C485 H472 0.930 . S
C485 C484 1.376 . S
C485 C486 1.388 . S
C486 H473 0.930 . S
C486 C485 1.388 . S
C486 C487 1.390 . S
C487 C486 1.390 . S
C487 C488 1.394 . S
C487 C493 1.465 . S
C488 C483 1.399 . S
C488 C487 1.394 . S
C488 C489 1.516 . S
C489 C488 1.516 . S
C489 C490 1.502 . S
C489 C491 1.561 . S
C489 C492 1.526 . S
C490 H474 0.959 . S
C490 H475 0.959 . S
C490 H476 0.961 . S
C490 C489 1.502 . S
C491 H477 0.960 . S
C491 H478 0.961 . S
C491 H479 0.959 . S
C491 C489 1.561 . S
C492 C489 1.526 . S
C492 C493 1.396 . S
C492 C497 1.390 . S
C493 C487 1.465 . S
C493 C492 1.396 . S
C493 C494 1.399 . S
C494 H480 0.929 . S
C494 C493 1.399 . S
C494 C495 1.385 . S
C495 H481 0.931 . S
C495 C494 1.385 . S
C495 C496 1.389 . S
C496 C495 1.389 . S
C496 C497 1.387 . S
C497 H482 0.930 . S
C497 C492 1.390 . S
C497 C496 1.387 . S
H498 C510 0.930 . S
H499 C512 0.930 . S
H500 C513 0.930 . S
H501 C517 0.959 . S
H502 C517 0.959 . S
H503 C517 0.961 . S
H504 C518 0.960 . S
H505 C518 0.961 . S
H506 C518 0.959 . S
H507 C521 0.929 . S
H508 C522 0.931 . S
H509 C524 0.930 . S
C510 H498 0.930 . S
C510 C511 1.399 . S
C510 C515 1.399 . S
C511 C510 1.399 . S
C511 C512 1.376 . S
C512 H499 0.930 . S
C512 C511 1.376 . S
C512 C513 1.388 . S
C513 H500 0.930 . S
C513 C512 1.388 . S
C513 C514 1.390 . S
C514 C513 1.390 . S
C514 C515 1.394 . S
C514 C520 1.465 . S
C515 C510 1.399 . S
C515 C514 1.394 . S
C515 C516 1.516 . S
C516 C515 1.516 . S
C516 C517 1.502 . S
C516 C518 1.561 . S
C516 C519 1.526 . S
C517 H501 0.959 . S
C517 H502 0.959 . S
C517 H503 0.961 . S
C517 C516 1.502 . S
C518 H504 0.960 . S
C518 H505 0.961 . S
C518 H506 0.959 . S
C518 C516 1.561 . S
C519 C516 1.526 . S
C519 C520 1.396 . S
C519 C524 1.390 . S
C520 C514 1.465 . S
C520 C519 1.396 . S
C520 C521 1.399 . S
C521 H507 0.929 . S
C521 C520 1.399 . S
C521 C522 1.385 . S
C522 H508 0.931 . S
C522 C521 1.385 . S
C522 C523 1.389 . S
C523 C522 1.389 . S
C523 C524 1.387 . S
C524 H509 0.930 . S
C524 C519 1.390 . S
C524 C523 1.387 . S
H525 C537 0.930 . S
H526 C539 0.930 . S
H527 C540 0.930 . S
H528 C544 0.959 . S
H529 C544 0.959 1_554 S
H530 C544 0.961 . S
H531 C545 0.960 . S
H532 C545 0.961 . S
H533 C545 0.959 . S
H534 C548 0.929 . S
H535 C549 0.931 . S
H536 C551 0.930 . S
C537 H525 0.930 . S
C537 C538 1.399 . S
C537 C542 1.399 . S
C538 C537 1.399 . S
C538 C539 1.376 . S
C539 H526 0.930 . S
C539 C538 1.376 . S
C539 C540 1.388 . S
C540 H527 0.930 . S
C540 C539 1.388 . S
C540 C541 1.390 . S
C541 C540 1.390 . S
C541 C542 1.394 . S
C541 C547 1.465 . S
C542 C537 1.399 . S
C542 C541 1.394 . S
C542 C543 1.516 . S
C543 C542 1.516 . S
C543 C544 1.502 . S
C543 C545 1.561 . S
C543 C546 1.526 . S
C544 H528 0.959 . S
C544 H529 0.959 1_556 S
C544 H530 0.961 . S
C544 C543 1.502 . S
C545 H531 0.960 . S
C545 H532 0.961 . S
C545 H533 0.959 . S
C545 C543 1.561 . S
C546 C543 1.526 . S
C546 C547 1.396 . S
C546 C551 1.390 . S
C547 C541 1.465 . S
C547 C546 1.396 . S
C547 C548 1.399 . S
C548 H534 0.929 . S
C548 C547 1.399 . S
C548 C549 1.385 . S
C549 H535 0.931 . S
C549 C548 1.385 . S
C549 C550 1.389 . S
C550 C549 1.389 . S
C550 C551 1.387 . S
C551 H536 0.930 . S
C551 C546 1.390 . S
C551 C550 1.387 . S
H552 C564 0.930 . S
H553 C566 0.930 . S
H554 C567 0.930 . S
H555 C571 0.959 . S
H556 C571 0.959 1_565 S
H557 C571 0.961 . S
H558 C572 0.960 . S
H559 C572 0.961 . S
H560 C572 0.959 . S
H561 C575 0.929 . S
H562 C576 0.931 . S
H563 C578 0.930 . S
C564 H552 0.930 . S
C564 C565 1.399 . S
C564 C569 1.399 . S
C565 C564 1.399 . S
C565 C566 1.376 . S
C566 H553 0.930 . S
C566 C565 1.376 . S
C566 C567 1.388 . S
C567 H554 0.930 . S
C567 C566 1.388 . S
C567 C568 1.390 . S
C568 C567 1.390 . S
C568 C569 1.394 . S
C568 C574 1.465 . S
C569 C564 1.399 . S
C569 C568 1.394 . S
C569 C570 1.516 . S
C570 C569 1.516 . S
C570 C571 1.502 . S
C570 C572 1.561 . S
C570 C573 1.526 . S
C571 H555 0.959 . S
C571 H556 0.959 1_545 S
C571 H557 0.961 . S
C571 C570 1.502 . S
C572 H558 0.960 . S
C572 H559 0.961 . S
C572 H560 0.959 . S
C572 C570 1.561 . S
C573 C570 1.526 . S
C573 C574 1.396 . S
C573 C578 1.390 . S
C574 C568 1.465 . S
C574 C573 1.396 . S
C574 C575 1.399 . S
C575 H561 0.929 . S
C575 C574 1.399 . S
C575 C576 1.385 . S
C576 H562 0.931 . S
C576 C575 1.385 . S
C576 C577 1.389 . S
C577 C576 1.389 . S
C577 C578 1.387 . S
C578 H563 0.930 . S
C578 C573 1.390 . S
C578 C577 1.387 . S
H579 C591 0.930 . S
H580 C593 0.902 1_565 S
H581 C594 0.930 . S
H582 C598 0.959 . S
H583 C598 0.959 . S
H584 C598 0.961 . S
H585 C599 0.960 . S
H586 C599 0.961 . S
H587 C599 0.959 . S
H588 C602 0.929 . S
H589 C603 0.931 . S
H590 C605 0.930 . S
C591 H579 0.930 . S
C591 C592 1.399 . S
C591 C596 1.399 . S
C592 C591 1.399 . S
C592 C593 1.376 . S
C593 H580 0.902 1_545 S
C593 C592 1.376 . S
C593 C594 1.388 . S
C594 H581 0.930 . S
C594 C593 1.388 . S
C594 C595 1.390 . S
C595 C594 1.390 . S
C595 C596 1.394 . S
C595 C601 1.465 . S
C596 C591 1.399 . S
C596 C595 1.394 . S
C596 C597 1.516 . S
C597 C596 1.516 . S
C597 C598 1.502 . S
C597 C599 1.561 . S
C597 C600 1.526 . S
C598 H582 0.959 . S
C598 H583 0.959 . S
C598 H584 0.961 . S
C598 C597 1.502 . S
C599 H585 0.960 . S
C599 H586 0.961 . S
C599 H587 0.959 . S
C599 C597 1.561 . S
C600 C597 1.526 . S
C600 C601 1.396 . S
C600 C605 1.390 . S
C601 C595 1.465 . S
C601 C600 1.396 . S
C601 C602 1.399 . S
C602 H588 0.929 . S
C602 C601 1.399 . S
C602 C603 1.385 . S
C603 H589 0.931 . S
C603 C602 1.385 . S
C603 C604 1.389 . S
C604 C603 1.389 . S
C604 C605 1.387 . S
C605 H590 0.930 . S
C605 C600 1.390 . S
C605 C604 1.387 . S
H606 C618 0.930 . S
H607 C620 0.930 . S
H608 C621 0.930 . S
H609 C625 0.959 . S
H610 C625 0.959 . S
H611 C625 0.961 1_545 S
H612 C626 0.960 . S
H613 C626 0.961 . S
H614 C626 0.959 . S
H615 C629 0.929 . S
H616 C630 0.931 . S
H617 C632 0.930 . S
C618 H606 0.930 . S
C618 C619 1.399 . S
C618 C623 1.399 . S
C619 C618 1.399 . S
C619 C620 1.376 . S
C620 H607 0.930 . S
C620 C619 1.376 . S
C620 C621 1.388 . S
C621 H608 0.930 . S
C621 C620 1.388 . S
C621 C622 1.390 . S
C622 C621 1.390 . S
C622 C623 1.394 . S
C622 C628 1.465 . S
C623 C618 1.399 . S
C623 C622 1.394 . S
C623 C624 1.516 . S
C624 C623 1.516 . S
C624 C625 1.502 . S
C624 C626 1.561 . S
C624 C627 1.526 . S
C625 H609 0.959 . S
C625 H610 0.959 . S
C625 H611 0.961 1_565 S
C625 C624 1.502 . S
C626 H612 0.960 . S
C626 H613 0.961 . S
C626 H614 0.959 . S
C626 C624 1.561 . S
C627 C624 1.526 . S
C627 C628 1.396 . S
C627 C632 1.390 . S
C628 C622 1.465 . S
C628 C627 1.396 . S
C628 C629 1.399 . S
C629 H615 0.929 . S
C629 C628 1.399 . S
C629 C630 1.385 . S
C630 H616 0.931 . S
C630 C629 1.385 . S
C630 C631 1.389 . S
C631 C630 1.389 . S
C631 C632 1.387 . S
C632 H617 0.930 . S
C632 C627 1.390 . S
C632 C631 1.387 . S
H633 C645 0.930 . S
H634 C647 0.930 . S
H635 C648 0.930 . S
H636 C652 0.959 . S
H637 C652 0.959 . S
H638 C652 0.961 . S
H639 C653 0.960 . S
H640 C653 0.961 1_545 S
H641 C653 0.959 . S
H642 C656 0.929 . S
H643 C657 0.931 . S
H644 C659 0.930 . S
C645 H633 0.930 . S
C645 C646 1.399 . S
C645 C650 1.399 . S
C646 C645 1.399 . S
C646 C647 1.376 . S
C647 H634 0.930 . S
C647 C646 1.376 . S
C647 C648 1.388 . S
C648 H635 0.930 . S
C648 C647 1.388 . S
C648 C649 1.390 . S
C649 C648 1.390 . S
C649 C650 1.394 . S
C649 C655 1.465 . S
C650 C645 1.399 . S
C650 C649 1.394 . S
C650 C651 1.516 . S
C651 C650 1.516 . S
C651 C652 1.502 . S
C651 C653 1.561 . S
C651 C654 1.526 . S
C652 H636 0.959 . S
C652 H637 0.959 . S
C652 H638 0.961 . S
C652 C651 1.502 . S
C653 H639 0.960 . S
C653 H640 0.961 1_565 S
C653 H641 0.959 . S
C653 C651 1.561 . S
C654 C651 1.526 . S
C654 C655 1.396 . S
C654 C659 1.390 . S
C655 C649 1.465 . S
C655 C654 1.396 . S
C655 C656 1.399 . S
C656 H642 0.929 . S
C656 C655 1.399 . S
C656 C657 1.385 . S
C657 H643 0.931 . S
C657 C656 1.385 . S
C657 C658 1.389 . S
C658 C657 1.389 . S
C658 C659 1.387 . S
C659 H644 0.930 . S
C659 C654 1.390 . S
C659 C658 1.387 . S
H660 C672 0.930 . S
H661 C674 0.930 . S
H662 C675 0.930 . S
H663 C679 0.959 . S
H664 C679 0.959 . S
H665 C679 0.961 . S
H666 C680 0.960 . S
H667 C680 0.961 . S
H668 C680 0.959 . S
H669 C683 0.929 . S
H670 C684 0.931 . S
H671 C686 0.930 . S
C672 H660 0.930 . S
C672 C673 1.399 . S
C672 C677 1.399 . S
C673 C672 1.399 . S
C673 C674 1.376 . S
C674 H661 0.930 . S
C674 C673 1.376 . S
C674 C675 1.388 . S
C675 H662 0.930 . S
C675 C674 1.388 . S
C675 C676 1.390 . S
C676 C675 1.390 . S
C676 C677 1.394 . S
C676 C682 1.465 . S
C677 C672 1.399 . S
C677 C676 1.394 . S
C677 C678 1.516 . S
C678 C677 1.516 . S
C678 C679 1.502 . S
C678 C680 1.561 . S
C678 C681 1.526 . S
C679 H663 0.959 . S
C679 H664 0.959 . S
C679 H665 0.961 . S
C679 C678 1.502 . S
C680 H666 0.960 . S
C680 H667 0.961 . S
C680 H668 0.959 . S
C680 C678 1.561 . S
C681 C678 1.526 . S
C681 C682 1.396 . S
C681 C686 1.390 . S
C682 C676 1.465 . S
C682 C681 1.396 . S
C682 C683 1.399 . S
C683 H669 0.929 . S
C683 C682 1.399 . S
C683 C684 1.385 . S
C684 H670 0.931 . S
C684 C683 1.385 . S
C684 C685 1.389 . S
C685 C684 1.389 . S
C685 C686 1.387 . S
C686 H671 0.930 . S
C686 C681 1.390 . S
C686 C685 1.387 . S
H687 C699 0.930 . S
H688 C701 0.930 . S
H689 C702 0.930 . S
H690 C706 0.959 . S
H691 C706 0.959 . S
H692 C706 0.961 . S
H693 C707 0.960 . S
H694 C707 0.961 . S
H695 C707 0.959 . S
H696 C710 0.929 . S
H697 C711 0.931 . S
H698 C713 0.930 . S
C699 H687 0.930 . S
C699 C700 1.399 . S
C699 C704 1.399 . S
C700 C699 1.399 . S
C700 C701 1.376 . S
C701 H688 0.930 . S
C701 C700 1.376 . S
C701 C702 1.388 . S
C702 H689 0.930 . S
C702 C701 1.388 . S
C702 C703 1.390 . S
C703 C702 1.390 . S
C703 C704 1.394 . S
C703 C709 1.465 . S
C704 C699 1.399 . S
C704 C703 1.394 . S
C704 C705 1.516 . S
C705 C704 1.516 . S
C705 C706 1.502 . S
C705 C707 1.561 . S
C705 C708 1.526 . S
C706 H690 0.959 . S
C706 H691 0.959 . S
C706 H692 0.961 . S
C706 C705 1.502 . S
C707 H693 0.960 . S
C707 H694 0.961 . S
C707 H695 0.959 . S
C707 C705 1.561 . S
C708 C705 1.526 . S
C708 C709 1.396 . S
C708 C713 1.390 . S
C709 C703 1.465 . S
C709 C708 1.396 . S
C709 C710 1.399 . S
C710 H696 0.929 . S
C710 C709 1.399 . S
C710 C711 1.385 . S
C711 H697 0.931 . S
C711 C710 1.385 . S
C711 C712 1.389 . S
C712 C711 1.389 . S
C712 C713 1.387 . S
C713 H698 0.930 . S
C713 C708 1.390 . S
C713 C712 1.387 . S
H714 C726 0.930 . S
H715 C728 0.930 . S
H716 C729 0.930 . S
H717 C733 0.959 . S
H718 C733 0.959 . S
H719 C733 0.961 . S
H720 C734 0.960 . S
H721 C734 0.961 . S
H722 C734 0.959 . S
H723 C737 0.929 . S
H724 C738 0.931 . S
H725 C740 0.930 . S
C726 H714 0.930 . S
C726 C727 1.399 . S
C726 C731 1.399 . S
C727 C726 1.399 . S
C727 C728 1.376 . S
C728 H715 0.930 . S
C728 C727 1.376 . S
C728 C729 1.388 . S
C729 H716 0.930 . S
C729 C728 1.388 . S
C729 C730 1.390 . S
C730 C729 1.390 . S
C730 C731 1.394 . S
C730 C736 1.465 . S
C731 C726 1.399 . S
C731 C730 1.394 . S
C731 C732 1.516 . S
C732 C731 1.516 . S
C732 C733 1.502 . S
C732 C734 1.561 . S
C732 C735 1.526 . S
C733 H717 0.959 . S
C733 H718 0.959 . S
C733 H719 0.961 . S
C733 C732 1.502 . S
C734 H720 0.960 . S
C734 H721 0.961 . S
C734 H722 0.959 . S
C734 C732 1.561 . S
C735 C732 1.526 . S
C735 C736 1.396 . S
C735 C740 1.390 . S
C736 C730 1.465 . S
C736 C735 1.396 . S
C736 C737 1.399 . S
C737 H723 0.929 . S
C737 C736 1.399 . S
C737 C738 1.385 . S
C738 H724 0.931 . S
C738 C737 1.385 . S
C738 C739 1.389 . S
C739 C738 1.389 . S
C739 C740 1.387 . S
C740 H725 0.930 . S
C740 C735 1.390 . S
C740 C739 1.387 . S
H741 C753 0.930 . S
H742 C755 0.930 1_455 S
H743 C756 0.930 . S
H744 C760 0.959 . S
H745 C760 0.959 . S
H746 C760 0.961 . S
H747 C761 0.960 . S
H748 C761 0.961 . S
H749 C761 0.959 . S
H750 C764 0.929 . S
H751 C765 0.931 . S
H752 C767 0.930 . S
C753 H741 0.930 . S
C753 C754 1.399 . S
C753 C758 1.399 . S
C754 C753 1.399 . S
C754 C755 1.376 . S
C755 H742 0.930 1_655 S
C755 C754 1.376 . S
C755 C756 1.388 . S
C756 H743 0.930 . S
C756 C755 1.388 . S
C756 C757 1.390 . S
C757 C756 1.390 . S
C757 C758 1.394 . S
C757 C763 1.465 . S
C758 C753 1.399 . S
C758 C757 1.394 . S
C758 C759 1.516 . S
C759 C758 1.516 . S
C759 C760 1.502 . S
C759 C761 1.561 . S
C759 C762 1.526 . S
C760 H744 0.959 . S
C760 H745 0.959 . S
C760 H746 0.961 . S
C760 C759 1.502 . S
C761 H747 0.960 . S
C761 H748 0.961 . S
C761 H749 0.959 . S
C761 C759 1.561 . S
C762 C759 1.526 . S
C762 C763 1.396 . S
C762 C767 1.390 . S
C763 C757 1.465 . S
C763 C762 1.396 . S
C763 C764 1.399 . S
C764 H750 0.929 . S
C764 C763 1.399 . S
C764 C765 1.385 . S
C765 H751 0.931 . S
C765 C764 1.385 . S
C765 C766 1.389 . S
C766 C765 1.389 . S
C766 C767 1.387 . S
C767 H752 0.930 . S
C767 C762 1.390 . S
C767 C766 1.387 . S
H768 C780 0.930 . S
H769 C782 0.930 . S
H770 C783 0.930 . S
H771 C787 0.959 . S
H772 C787 0.959 . S
H773 C787 0.961 . S
H774 C788 0.960 . S
H775 C788 0.961 . S
H776 C788 0.959 . S
H777 C791 0.929 . S
H778 C792 0.931 . S
H779 C794 0.930 . S
C780 H768 0.930 . S
C780 C781 1.399 . S
C780 C785 1.399 . S
C781 C780 1.399 . S
C781 C782 1.376 . S
C782 H769 0.930 . S
C782 C781 1.376 . S
C782 C783 1.388 . S
C783 H770 0.930 . S
C783 C782 1.388 . S
C783 C784 1.390 . S
C784 C783 1.390 . S
C784 C785 1.394 . S
C784 C790 1.465 . S
C785 C780 1.399 . S
C785 C784 1.394 . S
C785 C786 1.516 . S
C786 C785 1.516 . S
C786 C787 1.502 . S
C786 C788 1.561 . S
C786 C789 1.526 . S
C787 H771 0.959 . S
C787 H772 0.959 . S
C787 H773 0.961 . S
C787 C786 1.502 . S
C788 H774 0.960 . S
C788 H775 0.961 . S
C788 H776 0.959 . S
C788 C786 1.561 . S
C789 C786 1.526 . S
C789 C790 1.396 . S
C789 C794 1.390 . S
C790 C784 1.465 . S
C790 C789 1.396 . S
C790 C791 1.399 . S
C791 H777 0.929 . S
C791 C790 1.399 . S
C791 C792 1.385 . S
C792 H778 0.931 . S
C792 C791 1.385 . S
C792 C793 1.389 . S
C793 C792 1.389 . S
C793 C794 1.387 . S
C794 H779 0.930 . S
C794 C789 1.390 . S
C794 C793 1.387 . S
H795 C807 0.930 . S
H796 C809 0.930 . S
H797 C810 0.930 . S
H798 C814 0.959 . S
H799 C814 0.959 . S
H800 C814 0.961 . S
H801 C815 0.960 . S
H802 C815 0.961 . S
H803 C815 0.959 . S
H804 C818 0.929 . S
H805 C819 0.931 . S
H806 C821 0.930 . S
C807 H795 0.930 . S
C807 C808 1.399 . S
C807 C812 1.399 . S
C808 C807 1.399 . S
C808 C809 1.376 . S
C809 H796 0.930 . S
C809 C808 1.376 . S
C809 C810 1.388 . S
C810 H797 0.930 . S
C810 C809 1.388 . S
C810 C811 1.390 . S
C811 C810 1.390 . S
C811 C812 1.394 . S
C811 C817 1.465 . S
C812 C807 1.399 . S
C812 C811 1.394 . S
C812 C813 1.516 . S
C813 C812 1.516 . S
C813 C814 1.502 . S
C813 C815 1.561 . S
C813 C816 1.526 . S
C814 H798 0.959 . S
C814 H799 0.959 . S
C814 H800 0.961 . S
C814 C813 1.502 . S
C815 H801 0.960 . S
C815 H802 0.961 . S
C815 H803 0.959 . S
C815 C813 1.561 . S
C816 C813 1.526 . S
C816 C817 1.396 . S
C816 C821 1.390 . S
C817 C811 1.465 . S
C817 C816 1.396 . S
C817 C818 1.399 . S
C818 H804 0.929 . S
C818 C817 1.399 . S
C818 C819 1.385 . S
C819 H805 0.931 . S
C819 C818 1.385 . S
C819 C820 1.389 . S
C820 C819 1.389 . S
C820 C821 1.387 . S
C821 H806 0.930 . S
C821 C816 1.390 . S
C821 C820 1.387 . S
H822 C834 0.930 . S
H823 C836 0.930 1_554 S
H824 C837 0.930 1_554 S
H825 C841 0.959 . S
H826 C841 0.959 . S
H827 C841 0.961 . S
H828 C842 0.960 . S
H829 C842 0.961 . S
H830 C842 0.959 . S
H831 C845 0.929 . S
H832 C846 0.931 . S
H833 C848 0.930 . S
C834 H822 0.930 . S
C834 C835 1.399 . S
C834 C839 1.399 . S
C835 C834 1.399 . S
C835 C836 1.376 . S
C836 H823 0.930 1_556 S
C836 C835 1.376 . S
C836 C837 1.388 . S
C837 H824 0.930 1_556 S
C837 C836 1.388 . S
C837 C838 1.390 . S
C838 C837 1.390 . S
C838 C839 1.394 . S
C838 C844 1.465 . S
C839 C834 1.399 . S
C839 C838 1.394 . S
C839 C840 1.516 . S
C840 C839 1.516 . S
C840 C841 1.502 . S
C840 C842 1.561 . S
C840 C843 1.526 . S
C841 H825 0.959 . S
C841 H826 0.959 . S
C841 H827 0.961 . S
C841 C840 1.502 . S
C842 H828 0.960 . S
C842 H829 0.961 . S
C842 H830 0.959 . S
C842 C840 1.561 . S
C843 C840 1.526 . S
C843 C844 1.396 . S
C843 C848 1.390 . S
C844 C838 1.465 . S
C844 C843 1.396 . S
C844 C845 1.399 . S
C845 H831 0.929 . S
C845 C844 1.399 . S
C845 C846 1.385 . S
C846 H832 0.931 . S
C846 C845 1.385 . S
C846 C847 1.389 . S
C847 C846 1.389 . S
C847 C848 1.387 . S
C848 H833 0.930 . S
C848 C843 1.390 . S
C848 C847 1.387 . S
H849 C861 0.930 . S
H850 C863 0.930 . S
H851 C864 0.930 . S
H852 C868 0.959 . S
H853 C868 0.959 . S
H854 C868 0.961 . S
H855 C869 0.960 . S
H856 C869 0.961 . S
H857 C869 0.959 . S
H858 C872 0.929 . S
H859 C873 0.931 . S
H860 C875 0.930 . S
C861 H849 0.930 . S
C861 C862 1.399 . S
C861 C866 1.399 . S
C862 C861 1.399 . S
C862 C863 1.376 . S
C863 H850 0.930 . S
C863 C862 1.376 . S
C863 C864 1.388 . S
C864 H851 0.930 . S
C864 C863 1.388 . S
C864 C865 1.390 . S
C865 C864 1.390 . S
C865 C866 1.394 . S
C865 C871 1.465 . S
C866 C861 1.399 . S
C866 C865 1.394 . S
C866 C867 1.516 . S
C867 C866 1.516 . S
C867 C868 1.502 . S
C867 C869 1.561 . S
C867 C870 1.526 . S
C868 H852 0.959 . S
C868 H853 0.959 . S
C868 H854 0.961 . S
C868 C867 1.502 . S
C869 H855 0.960 . S
C869 H856 0.961 . S
C869 H857 0.959 . S
C869 C867 1.561 . S
C870 C867 1.526 . S
C870 C871 1.396 . S
C870 C875 1.390 . S
C871 C865 1.465 . S
C871 C870 1.396 . S
C871 C872 1.399 . S
C872 H858 0.929 . S
C872 C871 1.399 . S
C872 C873 1.385 . S
C873 H859 0.931 . S
C873 C872 1.385 . S
C873 C874 1.389 . S
C874 C873 1.389 . S
C874 C875 1.387 . S
C875 H860 0.930 . S
C875 C870 1.390 . S
C875 C874 1.387 . S
H876 C888 0.930 . S
H877 C890 0.930 . S
H878 C891 0.930 . S
H879 C895 0.959 . S
H880 C895 0.959 . S
H881 C895 0.961 . S
H882 C896 0.960 . S
H883 C896 0.961 . S
H884 C896 0.959 . S
H885 C899 0.929 . S
H886 C900 0.931 . S
H887 C902 0.930 . S
C888 H876 0.930 . S
C888 C889 1.399 . S
C888 C893 1.399 . S
C889 C888 1.399 . S
C889 C890 1.376 . S
C890 H877 0.930 . S
C890 C889 1.376 . S
C890 C891 1.388 . S
C891 H878 0.930 . S
C891 C890 1.388 . S
C891 C892 1.390 . S
C892 C891 1.390 . S
C892 C893 1.394 . S
C892 C898 1.465 . S
C893 C888 1.399 . S
C893 C892 1.394 . S
C893 C894 1.516 . S
C894 C893 1.516 . S
C894 C895 1.502 . S
C894 C896 1.561 . S
C894 C897 1.526 . S
C895 H879 0.959 . S
C895 H880 0.959 . S
C895 H881 0.961 . S
C895 C894 1.502 . S
C896 H882 0.960 . S
C896 H883 0.961 . S
C896 H884 0.959 . S
C896 C894 1.561 . S
C897 C894 1.526 . S
C897 C898 1.396 . S
C897 C902 1.390 . S
C898 C892 1.465 . S
C898 C897 1.396 . S
C898 C899 1.399 . S
C899 H885 0.929 . S
C899 C898 1.399 . S
C899 C900 1.385 . S
C900 H886 0.931 . S
C900 C899 1.385 . S
C900 C901 1.389 . S
C901 C900 1.389 . S
C901 C902 1.387 . S
C902 H887 0.930 . S
C902 C897 1.390 . S
C902 C901 1.387 . S
H903 C915 0.930 . S
H904 C917 0.930 . S
H905 C918 0.930 . S
H906 C922 0.959 . S
H907 C922 0.959 . S
H908 C922 0.961 . S
H909 C923 0.960 . S
H910 C923 0.961 . S
H911 C923 0.959 . S
H912 C926 0.929 . S
H913 C927 0.931 . S
H914 C929 0.930 . S
C915 H903 0.930 . S
C915 C916 1.399 . S
C915 C920 1.399 . S
C916 C915 1.399 . S
C916 C917 1.376 . S
C917 H904 0.930 . S
C917 C916 1.376 . S
C917 C918 1.388 . S
C918 H905 0.930 . S
C918 C917 1.388 . S
C918 C919 1.390 . S
C919 C918 1.390 . S
C919 C920 1.394 . S
C919 C925 1.465 . S
C920 C915 1.399 . S
C920 C919 1.394 . S
C920 C921 1.516 . S
C921 C920 1.516 . S
C921 C922 1.502 . S
C921 C923 1.561 . S
C921 C924 1.526 . S
C922 H906 0.959 . S
C922 H907 0.959 . S
C922 H908 0.961 . S
C922 C921 1.502 . S
C923 H909 0.960 . S
C923 H910 0.961 . S
C923 H911 0.959 . S
C923 C921 1.561 . S
C924 C921 1.526 . S
C924 C925 1.396 . S
C924 C929 1.390 . S
C925 C919 1.465 . S
C925 C924 1.396 . S
C925 C926 1.399 . S
C926 H912 0.929 . S
C926 C925 1.399 . S
C926 C927 1.385 . S
C927 H913 0.931 . S
C927 C926 1.385 . S
C927 C928 1.389 . S
C928 C927 1.389 . S
C928 C929 1.387 . S
C929 H914 0.930 . S
C929 C924 1.390 . S
C929 C928 1.387 . S
H930 C942 0.930 . S
H931 C944 0.930 . S
H932 C945 0.930 . S
H933 C949 0.959 . S
H934 C949 0.959 . S
H935 C949 0.961 . S
H936 C950 0.960 . S
H937 C950 0.961 . S
H938 C950 0.959 . S
H939 C953 0.929 . S
H940 C954 0.931 . S
H941 C956 0.930 . S
C942 H930 0.930 . S
C942 C943 1.399 . S
C942 C947 1.399 . S
C943 C942 1.399 . S
C943 C944 1.376 . S
C944 H931 0.930 . S
C944 C943 1.376 . S
C944 C945 1.388 . S
C945 H932 0.930 . S
C945 C944 1.388 . S
C945 C946 1.390 . S
C946 C945 1.390 . S
C946 C947 1.394 . S
C946 C952 1.465 . S
C947 C942 1.399 . S
C947 C946 1.394 . S
C947 C948 1.516 . S
C948 C947 1.516 . S
C948 C949 1.502 . S
C948 C950 1.561 . S
C948 C951 1.526 . S
C949 H933 0.959 . S
C949 H934 0.959 . S
C949 H935 0.961 . S
C949 C948 1.502 . S
C950 H936 0.960 . S
C950 H937 0.961 . S
C950 H938 0.959 . S
C950 C948 1.561 . S
C951 C948 1.526 . S
C951 C952 1.396 . S
C951 C956 1.390 . S
C952 C946 1.465 . S
C952 C951 1.396 . S
C952 C953 1.399 . S
C953 H939 0.929 . S
C953 C952 1.399 . S
C953 C954 1.385 . S
C954 H940 0.931 . S
C954 C953 1.385 . S
C954 C955 1.389 . S
C955 C954 1.389 . S
C955 C956 1.387 . S
C956 H941 0.930 . S
C956 C951 1.390 . S
C956 C955 1.387 . S
H957 C969 0.930 . S
H958 C971 0.930 . S
H959 C972 0.930 . S
H960 C976 0.959 . S
H961 C976 0.959 . S
H962 C976 0.961 . S
H963 C977 0.960 . S
H964 C977 0.961 . S
H965 C977 0.959 . S
H966 C980 0.929 1_545 S
H967 C981 0.931 1_545 S
H968 C983 0.930 . S
C969 H957 0.930 . S
C969 C970 1.399 . S
C969 C974 1.399 . S
C970 C969 1.399 . S
C970 C971 1.376 . S
C971 H958 0.930 . S
C971 C970 1.376 . S
C971 C972 1.388 . S
C972 H959 0.930 . S
C972 C971 1.388 . S
C972 C973 1.390 . S
C973 C972 1.390 . S
C973 C974 1.394 . S
C973 C979 1.465 . S
C974 C969 1.399 . S
C974 C973 1.394 . S
C974 C975 1.516 . S
C975 C974 1.516 . S
C975 C976 1.502 . S
C975 C977 1.561 . S
C975 C978 1.526 . S
C976 H960 0.959 . S
C976 H961 0.959 . S
C976 H962 0.961 . S
C976 C975 1.502 . S
C977 H963 0.960 . S
C977 H964 0.961 . S
C977 H965 0.959 . S
C977 C975 1.561 . S
C978 C975 1.526 . S
C978 C979 1.396 . S
C978 C983 1.390 . S
C979 C973 1.465 . S
C979 C978 1.396 . S
C979 C980 1.399 . S
C980 H966 0.929 1_565 S
C980 C979 1.399 . S
C980 C981 1.385 . S
C981 H967 0.931 1_565 S
C981 C980 1.385 . S
C981 C982 1.389 . S
C982 C981 1.389 . S
C982 C983 1.387 . S
C983 H968 0.930 . S
C983 C978 1.390 . S
C983 C982 1.387 . S
H984 C996 0.930 . S
H985 C998 0.930 . S
H986 C999 0.930 . S
H987 C1003 0.959 . S
H988 C1003 0.959 . S
H989 C1003 0.961 . S
H990 C1004 0.960 1_545 S
H991 C1004 0.961 . S
H992 C1004 0.959 . S
H993 C1007 0.929 . S
H994 C1008 0.931 . S
H995 C1010 0.930 . S
C996 H984 0.930 . S
C996 C997 1.399 . S
C996 C1001 1.399 . S
C997 C996 1.399 . S
C997 C998 1.376 . S
C998 H985 0.930 . S
C998 C997 1.376 . S
C998 C999 1.388 . S
C999 H986 0.930 . S
C999 C998 1.388 . S
C999 C1000 1.390 . S
C1000 C999 1.390 . S
C1000 C1001 1.394 . S
C1000 C1006 1.465 . S
C1001 C996 1.399 . S
C1001 C1000 1.394 . S
C1001 C1002 1.516 . S
C1002 C1001 1.516 . S
C1002 C1003 1.502 . S
C1002 C1004 1.561 . S
C1002 C1005 1.526 . S
C1003 H987 0.959 . S
C1003 H988 0.959 . S
C1003 H989 0.961 . S
C1003 C1002 1.502 . S
C1004 H990 0.960 1_565 S
C1004 H991 0.961 . S
C1004 H992 0.959 . S
C1004 C1002 1.561 . S
C1005 C1002 1.526 . S
C1005 C1006 1.396 . S
C1005 C1010 1.390 . S
C1006 C1000 1.465 . S
C1006 C1005 1.396 . S
C1006 C1007 1.399 . S
C1007 H993 0.929 . S
C1007 C1006 1.399 . S
C1007 C1008 1.385 . S
C1008 H994 0.931 . S
C1008 C1007 1.385 . S
C1008 C1009 1.389 . S
C1009 C1008 1.389 . S
C1009 C1010 1.387 . S
C1010 H995 0.930 . S
C1010 C1005 1.390 . S
C1010 C1009 1.387 . S
H1011 C1023 0.930 . S
H1012 C1025 0.930 . S
H1013 C1026 0.930 . S
H1014 C1030 0.959 . S
H1015 C1030 0.959 . S
H1016 C1030 0.961 . S
H1017 C1031 0.960 . S
H1018 C1031 0.961 . S
H1019 C1031 0.959 . S
H1020 C1034 0.929 . S
H1021 C1035 0.940 . S
H1022 C1037 0.930 . S
C1023 H1011 0.930 . S
C1023 C1024 1.399 . S
C1023 C1028 1.399 . S
C1024 C1023 1.399 . S
C1024 C1025 1.376 . S
C1025 H1012 0.930 . S
C1025 C1024 1.376 . S
C1025 C1026 1.388 . S
C1026 H1013 0.930 . S
C1026 C1025 1.388 . S
C1026 C1027 1.390 . S
C1027 C1026 1.390 . S
C1027 C1028 1.394 . S
C1027 C1033 1.465 . S
C1028 C1023 1.399 . S
C1028 C1027 1.394 . S
C1028 C1029 1.516 . S
C1029 C1028 1.516 . S
C1029 C1030 1.502 . S
C1029 C1031 1.561 . S
C1029 C1032 1.526 . S
C1030 H1014 0.959 . S
C1030 H1015 0.959 . S
C1030 H1016 0.961 . S
C1030 C1029 1.502 . S
C1031 H1017 0.960 . S
C1031 H1018 0.961 . S
C1031 H1019 0.959 . S
C1031 C1029 1.561 . S
C1032 C1029 1.526 . S
C1032 C1033 1.396 . S
C1032 C1037 1.390 . S
C1033 C1027 1.465 . S
C1033 C1032 1.396 . S
C1033 C1034 1.399 . S
C1034 H1020 0.929 . S
C1034 C1033 1.399 . S
C1034 C1035 1.385 . S
C1035 H1021 0.940 . S
C1035 C1034 1.385 . S
C1035 C1036 1.389 . S
C1036 C1035 1.389 . S
C1036 C1037 1.387 . S
C1037 H1022 0.930 . S
C1037 C1032 1.390 . S
C1037 C1036 1.387 . S
H1038 C1050 0.930 . S
H1039 C1052 0.930 . S
H1040 C1053 0.930 . S
H1041 C1057 0.959 . S
H1042 C1057 0.959 . S
H1043 C1057 0.961 . S
H1044 C1058 0.960 1_565 S
H1045 C1058 0.961 . S
H1046 C1058 0.959 . S
H1047 C1061 0.929 . S
H1048 C1062 0.931 . S
H1049 C1064 0.930 . S
C1050 H1038 0.930 . S
C1050 C1051 1.399 . S
C1050 C1055 1.399 . S
C1051 C1050 1.399 . S
C1051 C1052 1.376 . S
C1052 H1039 0.930 . S
C1052 C1051 1.376 . S
C1052 C1053 1.388 . S
C1053 H1040 0.930 . S
C1053 C1052 1.388 . S
C1053 C1054 1.390 . S
C1054 C1053 1.390 . S
C1054 C1055 1.394 . S
C1054 C1060 1.465 . S
C1055 C1050 1.399 . S
C1055 C1054 1.394 . S
C1055 C1056 1.516 . S
C1056 C1055 1.516 . S
C1056 C1057 1.502 . S
C1056 C1058 1.561 . S
C1056 C1059 1.526 . S
C1057 H1041 0.959 . S
C1057 H1042 0.959 . S
C1057 H1043 0.961 . S
C1057 C1056 1.502 . S
C1058 H1044 0.960 1_545 S
C1058 H1045 0.961 . S
C1058 H1046 0.959 . S
C1058 C1056 1.561 . S
C1059 C1056 1.526 . S
C1059 C1060 1.396 . S
C1059 C1064 1.390 . S
C1060 C1054 1.465 . S
C1060 C1059 1.396 . S
C1060 C1061 1.399 . S
C1061 H1047 0.929 . S
C1061 C1060 1.399 . S
C1061 C1062 1.385 . S
C1062 H1048 0.931 . S
C1062 C1061 1.385 . S
C1062 C1063 1.389 . S
C1063 C1062 1.389 . S
C1063 C1064 1.387 . S
C1064 H1049 0.930 . S
C1064 C1059 1.390 . S
C1064 C1063 1.387 . S
H1065 C1077 0.930 . S
H1066 C1079 0.930 . S
H1067 C1080 0.930 . S
H1068 C1084 0.959 . S
H1069 C1084 0.959 . S
H1070 C1084 0.961 . S
H1071 C1085 0.960 . S
H1072 C1085 0.961 . S
H1073 C1085 0.959 . S
H1074 C1088 0.929 . S
H1075 C1089 0.931 . S
H1076 C1091 0.930 . S
C1077 H1065 0.930 . S
C1077 C1078 1.399 . S
C1077 C1082 1.399 . S
C1078 C1077 1.399 . S
C1078 C1079 1.376 . S
C1079 H1066 0.930 . S
C1079 C1078 1.376 . S
C1079 C1080 1.388 . S
C1080 H1067 0.930 . S
C1080 C1079 1.388 . S
C1080 C1081 1.390 . S
C1081 C1080 1.390 . S
C1081 C1082 1.394 . S
C1081 C1087 1.465 . S
C1082 C1077 1.399 . S
C1082 C1081 1.394 . S
C1082 C1083 1.516 . S
C1083 C1082 1.516 . S
C1083 C1084 1.502 . S
C1083 C1085 1.561 . S
C1083 C1086 1.526 . S
C1084 H1068 0.959 . S
C1084 H1069 0.959 . S
C1084 H1070 0.961 . S
C1084 C1083 1.502 . S
C1085 H1071 0.960 . S
C1085 H1072 0.961 . S
C1085 H1073 0.959 . S
C1085 C1083 1.561 . S
C1086 C1083 1.526 . S
C1086 C1087 1.396 . S
C1086 C1091 1.390 . S
C1087 C1081 1.465 . S
C1087 C1086 1.396 . S
C1087 C1088 1.399 . S
C1088 H1074 0.929 . S
C1088 C1087 1.399 . S
C1088 C1089 1.385 . S
C1089 H1075 0.931 . S
C1089 C1088 1.385 . S
C1089 C1090 1.389 . S
C1090 C1089 1.389 . S
C1090 C1091 1.387 . S
C1091 H1076 0.930 . S
C1091 C1086 1.390 . S
C1091 C1090 1.387 . S
H1092 C1104 0.930 . S
H1093 C1106 0.930 . S
H1094 C1107 0.930 . S
H1095 C1111 0.959 . S
H1096 C1111 0.959 . S
H1097 C1111 0.961 . S
H1098 C1112 0.960 . S
H1099 C1112 0.961 . S
H1100 C1112 0.959 . S
H1101 C1115 0.929 . S
H1102 C1116 0.936 . S
H1103 C1118 0.930 . S
C1104 H1092 0.930 . S
C1104 C1105 1.399 . S
C1104 C1109 1.399 . S
C1105 C1104 1.399 . S
C1105 C1106 1.376 . S
C1106 H1093 0.930 . S
C1106 C1105 1.376 . S
C1106 C1107 1.388 . S
C1107 H1094 0.930 . S
C1107 C1106 1.388 . S
C1107 C1108 1.390 . S
C1108 C1107 1.390 . S
C1108 C1109 1.394 . S
C1108 C1114 1.465 . S
C1109 C1104 1.399 . S
C1109 C1108 1.394 . S
C1109 C1110 1.516 . S
C1110 C1109 1.516 . S
C1110 C1111 1.502 . S
C1110 C1112 1.561 . S
C1110 C1113 1.526 . S
C1111 H1095 0.959 . S
C1111 H1096 0.959 . S
C1111 H1097 0.961 . S
C1111 C1110 1.502 . S
C1112 H1098 0.960 . S
C1112 H1099 0.961 . S
C1112 H1100 0.959 . S
C1112 C1110 1.561 . S
C1113 C1110 1.526 . S
C1113 C1114 1.396 . S
C1113 C1118 1.390 . S
C1114 C1108 1.465 . S
C1114 C1113 1.396 . S
C1114 C1115 1.399 . S
C1115 H1101 0.929 . S
C1115 C1114 1.399 . S
C1115 C1116 1.385 . S
C1116 H1102 0.936 . S
C1116 C1115 1.385 . S
C1116 C1117 1.389 . S
C1117 C1116 1.389 . S
C1117 C1118 1.387 . S
C1118 H1103 0.930 . S
C1118 C1113 1.390 . S
C1118 C1117 1.387 . S
H1119 C1131 0.930 . S
H1120 C1133 0.930 . S
H1121 C1134 0.930 . S
H1122 C1138 0.959 . S
H1123 C1138 0.959 . S
H1124 C1138 0.961 . S
H1125 C1139 0.960 . S
H1126 C1139 0.961 . S
H1127 C1139 0.959 . S
H1128 C1142 0.929 . S
H1129 C1143 0.931 . S
H1130 C1145 0.930 . S
C1131 H1119 0.930 . S
C1131 C1132 1.399 . S
C1131 C1136 1.399 . S
C1132 C1131 1.399 . S
C1132 C1133 1.376 . S
C1133 H1120 0.930 . S
C1133 C1132 1.376 . S
C1133 C1134 1.388 . S
C1134 H1121 0.930 . S
C1134 C1133 1.388 . S
C1134 C1135 1.390 . S
C1135 C1134 1.390 . S
C1135 C1136 1.394 . S
C1135 C1141 1.465 . S
C1136 C1131 1.399 . S
C1136 C1135 1.394 . S
C1136 C1137 1.516 . S
C1137 C1136 1.516 . S
C1137 C1138 1.502 . S
C1137 C1139 1.561 . S
C1137 C1140 1.526 . S
C1138 H1122 0.959 . S
C1138 H1123 0.959 . S
C1138 H1124 0.961 . S
C1138 C1137 1.502 . S
C1139 H1125 0.960 . S
C1139 H1126 0.961 . S
C1139 H1127 0.959 . S
C1139 C1137 1.561 . S
C1140 C1137 1.526 . S
C1140 C1141 1.396 . S
C1140 C1145 1.390 . S
C1141 C1135 1.465 . S
C1141 C1140 1.396 . S
C1141 C1142 1.399 . S
C1142 H1128 0.929 . S
C1142 C1141 1.399 . S
C1142 C1143 1.385 . S
C1143 H1129 0.931 . S
C1143 C1142 1.385 . S
C1143 C1144 1.389 . S
C1144 C1143 1.389 . S
C1144 C1145 1.387 . S
C1145 H1130 0.930 . S
C1145 C1140 1.390 . S
C1145 C1144 1.387 . S
H1146 C1158 0.930 . S
H1147 C1160 0.930 . S
H1148 C1161 0.930 . S
H1149 C1165 0.959 . S
H1150 C1165 0.959 . S
H1151 C1165 0.961 . S
H1152 C1166 0.960 . S
H1153 C1166 0.961 . S
H1154 C1166 0.959 . S
H1155 C1169 0.929 . S
H1156 C1170 0.931 . S
H1157 C1172 0.930 . S
C1158 H1146 0.930 . S
C1158 C1159 1.399 . S
C1158 C1163 1.399 . S
C1159 C1158 1.399 . S
C1159 C1160 1.376 . S
C1160 H1147 0.930 . S
C1160 C1159 1.376 . S
C1160 C1161 1.388 . S
C1161 H1148 0.930 . S
C1161 C1160 1.388 . S
C1161 C1162 1.390 . S
C1162 C1161 1.390 . S
C1162 C1163 1.394 . S
C1162 C1168 1.465 . S
C1163 C1158 1.399 . S
C1163 C1162 1.394 . S
C1163 C1164 1.516 . S
C1164 C1163 1.516 . S
C1164 C1165 1.502 . S
C1164 C1166 1.561 . S
C1164 C1167 1.526 . S
C1165 H1149 0.959 . S
C1165 H1150 0.959 . S
C1165 H1151 0.961 . S
C1165 C1164 1.502 . S
C1166 H1152 0.960 . S
C1166 H1153 0.961 . S
C1166 H1154 0.959 . S
C1166 C1164 1.561 . S
C1167 C1164 1.526 . S
C1167 C1168 1.396 . S
C1167 C1172 1.390 . S
C1168 C1162 1.465 . S
C1168 C1167 1.396 . S
C1168 C1169 1.399 . S
C1169 H1155 0.929 . S
C1169 C1168 1.399 . S
C1169 C1170 1.385 . S
C1170 H1156 0.931 . S
C1170 C1169 1.385 . S
C1170 C1171 1.389 . S
C1171 C1170 1.389 . S
C1171 C1172 1.387 . S
C1172 H1157 0.930 . S
C1172 C1167 1.390 . S
C1172 C1171 1.387 . S
H1173 C1185 0.930 . S
H1174 C1187 0.930 . S
H1175 C1188 0.930 . S
H1176 C1192 0.959 . S
H1177 C1192 0.959 . S
H1178 C1192 0.961 . S
H1179 C1193 0.960 . S
H1180 C1193 0.961 . S
H1181 C1193 0.959 . S
H1182 C1196 0.929 . S
H1183 C1197 0.931 . S
H1184 C1199 0.930 . S
C1185 H1173 0.930 . S
C1185 C1186 1.399 . S
C1185 C1190 1.399 . S
C1186 C1185 1.399 . S
C1186 C1187 1.376 . S
C1187 H1174 0.930 . S
C1187 C1186 1.376 . S
C1187 C1188 1.388 . S
C1188 H1175 0.930 . S
C1188 C1187 1.388 . S
C1188 C1189 1.390 . S
C1189 C1188 1.390 . S
C1189 C1190 1.394 . S
C1189 C1195 1.465 . S
C1190 C1185 1.399 . S
C1190 C1189 1.394 . S
C1190 C1191 1.516 . S
C1191 C1190 1.516 . S
C1191 C1192 1.502 . S
C1191 C1193 1.561 . S
C1191 C1194 1.526 . S
C1192 H1176 0.959 . S
C1192 H1177 0.959 . S
C1192 H1178 0.961 . S
C1192 C1191 1.502 . S
C1193 H1179 0.960 . S
C1193 H1180 0.961 . S
C1193 H1181 0.959 . S
C1193 C1191 1.561 . S
C1194 C1191 1.526 . S
C1194 C1195 1.396 . S
C1194 C1199 1.390 . S
C1195 C1189 1.465 . S
C1195 C1194 1.396 . S
C1195 C1196 1.399 . S
C1196 H1182 0.929 . S
C1196 C1195 1.399 . S
C1196 C1197 1.385 . S
C1197 H1183 0.931 . S
C1197 C1196 1.385 . S
C1197 C1198 1.389 . S
C1198 C1197 1.389 . S
C1198 C1199 1.387 . S
C1199 H1184 0.930 . S
C1199 C1194 1.390 . S
C1199 C1198 1.387 . S
H1200 C1212 0.930 . S
H1201 C1214 0.930 . S
H1202 C1215 0.930 . S
H1203 C1219 0.959 . S
H1204 C1219 0.959 . S
H1205 C1219 0.961 . S
H1206 C1220 0.960 . S
H1207 C1220 0.961 . S
H1208 C1220 0.959 . S
H1209 C1223 0.929 . S
H1210 C1224 0.931 . S
H1211 C1226 0.930 . S
C1212 H1200 0.930 . S
C1212 C1213 1.399 . S
C1212 C1217 1.399 . S
C1213 C1212 1.399 . S
C1213 C1214 1.376 . S
C1214 H1201 0.930 . S
C1214 C1213 1.376 . S
C1214 C1215 1.388 . S
C1215 H1202 0.930 . S
C1215 C1214 1.388 . S
C1215 C1216 1.390 . S
C1216 C1215 1.390 . S
C1216 C1217 1.394 . S
C1216 C1222 1.465 . S
C1217 C1212 1.399 . S
C1217 C1216 1.394 . S
C1217 C1218 1.516 . S
C1218 C1217 1.516 . S
C1218 C1219 1.502 . S
C1218 C1220 1.561 . S
C1218 C1221 1.526 . S
C1219 H1203 0.959 . S
C1219 H1204 0.959 . S
C1219 H1205 0.961 . S
C1219 C1218 1.502 . S
C1220 H1206 0.960 . S
C1220 H1207 0.961 . S
C1220 H1208 0.959 . S
C1220 C1218 1.561 . S
C1221 C1218 1.526 . S
C1221 C1222 1.396 . S
C1221 C1226 1.390 . S
C1222 C1216 1.465 . S
C1222 C1221 1.396 . S
C1222 C1223 1.399 . S
C1223 H1209 0.929 . S
C1223 C1222 1.399 . S
C1223 C1224 1.385 . S
C1224 H1210 0.931 . S
C1224 C1223 1.385 . S
C1224 C1225 1.389 . S
C1225 C1224 1.389 . S
C1225 C1226 1.387 . S
C1226 H1211 0.930 . S
C1226 C1221 1.390 . S
C1226 C1225 1.387 . S
H1227 C1239 0.930 . S
H1228 C1241 0.930 . S
H1229 C1242 0.930 . S
H1230 C1246 0.959 . S
H1231 C1246 0.959 . S
H1232 C1246 0.961 . S
H1233 C1247 0.960 . S
H1234 C1247 0.961 . S
H1235 C1247 0.959 . S
H1236 C1250 0.929 . S
H1237 C1251 0.931 . S
H1238 C1253 0.930 . S
C1239 H1227 0.930 . S
C1239 C1240 1.399 . S
C1239 C1244 1.399 . S
C1240 C1239 1.399 . S
C1240 C1241 1.376 . S
C1241 H1228 0.930 . S
C1241 C1240 1.376 . S
C1241 C1242 1.388 . S
C1242 H1229 0.930 . S
C1242 C1241 1.388 . S
C1242 C1243 1.390 . S
C1243 C1242 1.390 . S
C1243 C1244 1.394 . S
C1243 C1249 1.465 . S
C1244 C1239 1.399 . S
C1244 C1243 1.394 . S
C1244 C1245 1.516 . S
C1245 C1244 1.516 . S
C1245 C1246 1.502 . S
C1245 C1247 1.561 . S
C1245 C1248 1.526 . S
C1246 H1230 0.959 . S
C1246 H1231 0.959 . S
C1246 H1232 0.961 . S
C1246 C1245 1.502 . S
C1247 H1233 0.960 . S
C1247 H1234 0.961 . S
C1247 H1235 0.959 . S
C1247 C1245 1.561 . S
C1248 C1245 1.526 . S
C1248 C1249 1.396 . S
C1248 C1253 1.390 . S
C1249 C1243 1.465 . S
C1249 C1248 1.396 . S
C1249 C1250 1.399 . S
C1250 H1236 0.929 . S
C1250 C1249 1.399 . S
C1250 C1251 1.385 . S
C1251 H1237 0.931 . S
C1251 C1250 1.385 . S
C1251 C1252 1.389 . S
C1252 C1251 1.389 . S
C1252 C1253 1.387 . S
C1253 H1238 0.930 . S
C1253 C1248 1.390 . S
C1253 C1252 1.387 . S
H1254 C1266 0.930 . S
H1255 C1268 0.930 . S
H1256 C1269 0.930 . S
H1257 C1273 0.959 . S
H1258 C1273 0.959 . S
H1259 C1273 0.961 . S
H1260 C1274 0.960 . S
H1261 C1274 0.961 . S
H1262 C1274 0.959 . S
H1263 C1277 0.929 . S
H1264 C1278 0.931 . S
H1265 C1280 0.930 . S
C1266 H1254 0.930 . S
C1266 C1267 1.399 . S
C1266 C1271 1.399 . S
C1267 C1266 1.399 . S
C1267 C1268 1.376 . S
C1268 H1255 0.930 . S
C1268 C1267 1.376 . S
C1268 C1269 1.388 . S
C1269 H1256 0.930 . S
C1269 C1268 1.388 . S
C1269 C1270 1.390 . S
C1270 C1269 1.390 . S
C1270 C1271 1.394 . S
C1270 C1276 1.465 . S
C1271 C1266 1.399 . S
C1271 C1270 1.394 . S
C1271 C1272 1.516 . S
C1272 C1271 1.516 . S
C1272 C1273 1.502 . S
C1272 C1274 1.561 . S
C1272 C1275 1.526 . S
C1273 H1257 0.959 . S
C1273 H1258 0.959 . S
C1273 H1259 0.961 . S
C1273 C1272 1.502 . S
C1274 H1260 0.960 . S
C1274 H1261 0.961 . S
C1274 H1262 0.959 . S
C1274 C1272 1.561 . S
C1275 C1272 1.526 . S
C1275 C1276 1.396 . S
C1275 C1280 1.390 . S
C1276 C1270 1.465 . S
C1276 C1275 1.396 . S
C1276 C1277 1.399 . S
C1277 H1263 0.929 . S
C1277 C1276 1.399 . S
C1277 C1278 1.385 . S
C1278 H1264 0.931 . S
C1278 C1277 1.385 . S
C1278 C1279 1.389 . S
C1279 C1278 1.389 . S
C1279 C1280 1.387 . S
C1280 H1265 0.930 . S
C1280 C1275 1.390 . S
C1280 C1279 1.387 . S
H1281 C1293 0.930 . S
H1282 C1295 0.930 . S
H1283 C1296 0.930 . S
H1284 C1300 0.959 . S
H1285 C1300 0.959 . S
H1286 C1300 0.961 . S
H1287 C1301 0.960 . S
H1288 C1301 0.961 . S
H1289 C1301 0.959 . S
H1290 C1304 0.929 . S
H1291 C1305 0.931 . S
H1292 C1307 0.930 . S
C1293 H1281 0.930 . S
C1293 C1294 1.399 . S
C1293 C1298 1.399 . S
C1294 C1293 1.399 . S
C1294 C1295 1.376 . S
C1295 H1282 0.930 . S
C1295 C1294 1.376 . S
C1295 C1296 1.388 . S
C1296 H1283 0.930 . S
C1296 C1295 1.388 . S
C1296 C1297 1.390 . S
C1297 C1296 1.390 . S
C1297 C1298 1.394 . S
C1297 C1303 1.465 . S
C1298 C1293 1.399 . S
C1298 C1297 1.394 . S
C1298 C1299 1.516 . S
C1299 C1298 1.516 . S
C1299 C1300 1.502 . S
C1299 C1301 1.561 . S
C1299 C1302 1.526 . S
C1300 H1284 0.959 . S
C1300 H1285 0.959 . S
C1300 H1286 0.961 . S
C1300 C1299 1.502 . S
C1301 H1287 0.960 . S
C1301 H1288 0.961 . S
C1301 H1289 0.959 . S
C1301 C1299 1.561 . S
C1302 C1299 1.526 . S
C1302 C1303 1.396 . S
C1302 C1307 1.390 . S
C1303 C1297 1.465 . S
C1303 C1302 1.396 . S
C1303 C1304 1.399 . S
C1304 H1290 0.929 . S
C1304 C1303 1.399 . S
C1304 C1305 1.385 . S
C1305 H1291 0.931 . S
C1305 C1304 1.385 . S
C1305 C1306 1.389 . S
C1306 C1305 1.389 . S
C1306 C1307 1.387 . S
C1307 H1292 0.930 . S
C1307 C1302 1.390 . S
C1307 C1306 1.387 . S
H1308 C1320 0.930 . S
H1309 C1322 0.930 . S
H1310 C1323 0.930 . S
H1311 C1327 0.959 . S
H1312 C1327 0.959 . S
H1313 C1327 0.961 . S
H1314 C1328 0.960 . S
H1315 C1328 0.961 . S
H1316 C1328 0.959 . S
H1317 C1331 0.929 . S
H1318 C1332 0.931 . S
H1319 C1334 0.930 . S
C1320 H1308 0.930 . S
C1320 C1321 1.399 . S
C1320 C1325 1.399 . S
C1321 C1320 1.399 . S
C1321 C1322 1.376 . S
C1322 H1309 0.930 . S
C1322 C1321 1.376 . S
C1322 C1323 1.388 . S
C1323 H1310 0.930 . S
C1323 C1322 1.388 . S
C1323 C1324 1.390 . S
C1324 C1323 1.390 . S
C1324 C1325 1.394 . S
C1324 C1330 1.465 . S
C1325 C1320 1.399 . S
C1325 C1324 1.394 . S
C1325 C1326 1.516 . S
C1326 C1325 1.516 . S
C1326 C1327 1.502 . S
C1326 C1328 1.561 . S
C1326 C1329 1.526 . S
C1327 H1311 0.959 . S
C1327 H1312 0.959 . S
C1327 H1313 0.961 . S
C1327 C1326 1.502 . S
C1328 H1314 0.960 . S
C1328 H1315 0.961 . S
C1328 H1316 0.959 . S
C1328 C1326 1.561 . S
C1329 C1326 1.526 . S
C1329 C1330 1.396 . S
C1329 C1334 1.390 . S
C1330 C1324 1.465 . S
C1330 C1329 1.396 . S
C1330 C1331 1.399 . S
C1331 H1317 0.929 . S
C1331 C1330 1.399 . S
C1331 C1332 1.385 . S
C1332 H1318 0.931 . S
C1332 C1331 1.385 . S
C1332 C1333 1.389 . S
C1333 C1332 1.389 . S
C1333 C1334 1.387 . S
C1334 H1319 0.930 . S
C1334 C1329 1.390 . S
C1334 C1333 1.387 . S
H1335 C1347 0.930 . S
H1336 C1349 0.930 . S
H1337 C1350 0.930 . S
H1338 C1354 0.959 . S
H1339 C1354 0.959 . S
H1340 C1354 0.961 . S
H1341 C1355 0.960 . S
H1342 C1355 0.961 . S
H1343 C1355 0.959 . S
H1344 C1358 0.929 . S
H1345 C1359 0.931 . S
H1346 C1361 0.930 . S
C1347 H1335 0.930 . S
C1347 C1348 1.399 . S
C1347 C1352 1.399 . S
C1348 C1347 1.399 . S
C1348 C1349 1.376 . S
C1349 H1336 0.930 . S
C1349 C1348 1.376 . S
C1349 C1350 1.388 . S
C1350 H1337 0.930 . S
C1350 C1349 1.388 . S
C1350 C1351 1.390 . S
C1351 C1350 1.390 . S
C1351 C1352 1.394 . S
C1351 C1357 1.465 . S
C1352 C1347 1.399 . S
C1352 C1351 1.394 . S
C1352 C1353 1.516 . S
C1353 C1352 1.516 . S
C1353 C1354 1.502 . S
C1353 C1355 1.561 . S
C1353 C1356 1.526 . S
C1354 H1338 0.959 . S
C1354 H1339 0.959 . S
C1354 H1340 0.961 . S
C1354 C1353 1.502 . S
C1355 H1341 0.960 . S
C1355 H1342 0.961 . S
C1355 H1343 0.959 . S
C1355 C1353 1.561 . S
C1356 C1353 1.526 . S
C1356 C1357 1.396 . S
C1356 C1361 1.390 . S
C1357 C1351 1.465 . S
C1357 C1356 1.396 . S
C1357 C1358 1.399 . S
C1358 H1344 0.929 . S
C1358 C1357 1.399 . S
C1358 C1359 1.385 . S
C1359 H1345 0.931 . S
C1359 C1358 1.385 . S
C1359 C1360 1.389 . S
C1360 C1359 1.389 . S
C1360 C1361 1.387 . S
C1361 H1346 0.930 . S
C1361 C1356 1.390 . S
C1361 C1360 1.387 . S
H1362 C1374 0.930 . S
H1363 C1376 0.930 . S
H1364 C1377 0.930 . S
H1365 C1381 0.959 . S
H1366 C1381 0.959 . S
H1367 C1381 0.961 . S
H1368 C1382 0.960 . S
H1369 C1382 0.961 . S
H1370 C1382 0.959 . S
H1371 C1385 0.929 . S
H1372 C1386 0.931 . S
H1373 C1388 0.930 . S
C1374 H1362 0.930 . S
C1374 C1375 1.399 . S
C1374 C1379 1.399 . S
C1375 C1374 1.399 . S
C1375 C1376 1.376 . S
C1376 H1363 0.930 . S
C1376 C1375 1.376 . S
C1376 C1377 1.388 . S
C1377 H1364 0.930 . S
C1377 C1376 1.388 . S
C1377 C1378 1.390 . S
C1378 C1377 1.390 . S
C1378 C1379 1.394 . S
C1378 C1384 1.465 . S
C1379 C1374 1.399 . S
C1379 C1378 1.394 . S
C1379 C1380 1.516 . S
C1380 C1379 1.516 . S
C1380 C1381 1.502 . S
C1380 C1382 1.561 . S
C1380 C1383 1.526 . S
C1381 H1365 0.959 . S
C1381 H1366 0.959 . S
C1381 H1367 0.961 . S
C1381 C1380 1.502 . S
C1382 H1368 0.960 . S
C1382 H1369 0.961 . S
C1382 H1370 0.959 . S
C1382 C1380 1.561 . S
C1383 C1380 1.526 . S
C1383 C1384 1.396 . S
C1383 C1388 1.390 . S
C1384 C1378 1.465 . S
C1384 C1383 1.396 . S
C1384 C1385 1.399 . S
C1385 H1371 0.929 . S
C1385 C1384 1.399 . S
C1385 C1386 1.385 . S
C1386 H1372 0.931 . S
C1386 C1385 1.385 . S
C1386 C1387 1.389 . S
C1387 C1386 1.389 . S
C1387 C1388 1.387 . S
C1388 H1373 0.930 . S
C1388 C1383 1.390 . S
C1388 C1387 1.387 . S
H1389 C1401 0.930 . S
H1390 C1403 0.930 . S
H1391 C1404 0.930 . S
H1392 C1408 0.959 . S
H1393 C1408 0.959 . S
H1394 C1408 0.961 . S
H1395 C1409 0.960 . S
H1396 C1409 0.961 . S
H1397 C1409 0.959 . S
H1398 C1412 0.929 . S
H1399 C1413 0.931 . S
H1400 C1415 0.930 . S
C1401 H1389 0.930 . S
C1401 C1402 1.399 . S
C1401 C1406 1.399 . S
C1402 C1401 1.399 . S
C1402 C1403 1.376 . S
C1403 H1390 0.930 . S
C1403 C1402 1.376 . S
C1403 C1404 1.388 . S
C1404 H1391 0.930 . S
C1404 C1403 1.388 . S
C1404 C1405 1.390 . S
C1405 C1404 1.390 . S
C1405 C1406 1.394 . S
C1405 C1411 1.465 . S
C1406 C1401 1.399 . S
C1406 C1405 1.394 . S
C1406 C1407 1.516 . S
C1407 C1406 1.516 . S
C1407 C1408 1.502 . S
C1407 C1409 1.561 . S
C1407 C1410 1.526 . S
C1408 H1392 0.959 . S
C1408 H1393 0.959 . S
C1408 H1394 0.961 . S
C1408 C1407 1.502 . S
C1409 H1395 0.960 . S
C1409 H1396 0.961 . S
C1409 H1397 0.959 . S
C1409 C1407 1.561 . S
C1410 C1407 1.526 . S
C1410 C1411 1.396 . S
C1410 C1415 1.390 . S
C1411 C1405 1.465 . S
C1411 C1410 1.396 . S
C1411 C1412 1.399 . S
C1412 H1398 0.929 . S
C1412 C1411 1.399 . S
C1412 C1413 1.385 . S
C1413 H1399 0.931 . S
C1413 C1412 1.385 . S
C1413 C1414 1.389 . S
C1414 C1413 1.389 . S
C1414 C1415 1.387 . S
C1415 H1400 0.930 . S
C1415 C1410 1.390 . S
C1415 C1414 1.387 . S
H1416 C1428 0.930 . S
H1417 C1430 0.930 . S
H1418 C1431 0.930 . S
H1419 C1435 0.959 . S
H1420 C1435 0.959 . S
H1421 C1435 0.961 . S
H1422 C1436 0.960 . S
H1423 C1436 0.961 . S
H1424 C1436 0.959 . S
H1425 C1439 0.929 . S
H1426 C1440 0.931 . S
H1427 C1442 0.930 . S
C1428 H1416 0.930 . S
C1428 C1429 1.399 . S
C1428 C1433 1.399 . S
C1429 C1428 1.399 . S
C1429 C1430 1.376 . S
C1430 H1417 0.930 . S
C1430 C1429 1.376 . S
C1430 C1431 1.388 . S
C1431 H1418 0.930 . S
C1431 C1430 1.388 . S
C1431 C1432 1.390 . S
C1432 C1431 1.390 . S
C1432 C1433 1.394 . S
C1432 C1438 1.465 . S
C1433 C1428 1.399 . S
C1433 C1432 1.394 . S
C1433 C1434 1.516 . S
C1434 C1433 1.516 . S
C1434 C1435 1.502 . S
C1434 C1436 1.561 . S
C1434 C1437 1.526 . S
C1435 H1419 0.959 . S
C1435 H1420 0.959 . S
C1435 H1421 0.961 . S
C1435 C1434 1.502 . S
C1436 H1422 0.960 . S
C1436 H1423 0.961 . S
C1436 H1424 0.959 . S
C1436 C1434 1.561 . S
C1437 C1434 1.526 . S
C1437 C1438 1.396 . S
C1437 C1442 1.390 . S
C1438 C1432 1.465 . S
C1438 C1437 1.396 . S
C1438 C1439 1.399 . S
C1439 H1425 0.929 . S
C1439 C1438 1.399 . S
C1439 C1440 1.385 . S
C1440 H1426 0.931 . S
C1440 C1439 1.385 . S
C1440 C1441 1.389 . S
C1441 C1440 1.389 . S
C1441 C1442 1.387 . S
C1442 H1427 0.930 . S
C1442 C1437 1.390 . S
C1442 C1441 1.387 . S
H1443 C1455 0.930 . S
H1444 C1457 0.930 . S
H1445 C1458 0.930 . S
H1446 C1462 0.959 . S
H1447 C1462 0.959 . S
H1448 C1462 0.961 . S
H1449 C1463 0.960 . S
H1450 C1463 0.961 . S
H1451 C1463 0.959 . S
H1452 C1466 0.929 . S
H1453 C1467 0.931 . S
H1454 C1469 0.930 . S
C1455 H1443 0.930 . S
C1455 C1456 1.399 . S
C1455 C1460 1.399 . S
C1456 C1455 1.399 . S
C1456 C1457 1.376 . S
C1457 H1444 0.930 . S
C1457 C1456 1.376 . S
C1457 C1458 1.388 . S
C1458 H1445 0.930 . S
C1458 C1457 1.388 . S
C1458 C1459 1.390 . S
C1459 C1458 1.390 . S
C1459 C1460 1.394 . S
C1459 C1465 1.465 . S
C1460 C1455 1.399 . S
C1460 C1459 1.394 . S
C1460 C1461 1.516 . S
C1461 C1460 1.516 . S
C1461 C1462 1.502 . S
C1461 C1463 1.561 . S
C1461 C1464 1.526 . S
C1462 H1446 0.959 . S
C1462 H1447 0.959 . S
C1462 H1448 0.961 . S
C1462 C1461 1.502 . S
C1463 H1449 0.960 . S
C1463 H1450 0.961 . S
C1463 H1451 0.959 . S
C1463 C1461 1.561 . S
C1464 C1461 1.526 . S
C1464 C1465 1.396 . S
C1464 C1469 1.390 . S
C1465 C1459 1.465 . S
C1465 C1464 1.396 . S
C1465 C1466 1.399 . S
C1466 H1452 0.929 . S
C1466 C1465 1.399 . S
C1466 C1467 1.385 . S
C1467 H1453 0.931 . S
C1467 C1466 1.385 . S
C1467 C1468 1.389 . S
C1468 C1467 1.389 . S
C1468 C1469 1.387 . S
C1469 H1454 0.930 . S
C1469 C1464 1.390 . S
C1469 C1468 1.387 . S
H1470 C1482 0.930 . S
H1471 C1484 0.930 . S
H1472 C1485 0.930 . S
H1473 C1489 0.959 . S
H1474 C1489 0.959 . S
H1475 C1489 0.961 . S
H1476 C1490 0.960 . S
H1477 C1490 0.961 . S
H1478 C1490 0.959 . S
H1479 C1493 0.929 . S
H1480 C1494 0.931 . S
H1481 C1496 0.930 . S
C1482 H1470 0.930 . S
C1482 C1483 1.399 . S
C1482 C1487 1.399 . S
C1483 C1482 1.399 . S
C1483 C1484 1.376 . S
C1484 H1471 0.930 . S
C1484 C1483 1.376 . S
C1484 C1485 1.388 . S
C1485 H1472 0.930 . S
C1485 C1484 1.388 . S
C1485 C1486 1.390 . S
C1486 C1485 1.390 . S
C1486 C1487 1.394 . S
C1486 C1492 1.465 . S
C1487 C1482 1.399 . S
C1487 C1486 1.394 . S
C1487 C1488 1.516 . S
C1488 C1487 1.516 . S
C1488 C1489 1.502 . S
C1488 C1490 1.561 . S
C1488 C1491 1.526 . S
C1489 H1473 0.959 . S
C1489 H1474 0.959 . S
C1489 H1475 0.961 . S
C1489 C1488 1.502 . S
C1490 H1476 0.960 . S
C1490 H1477 0.961 . S
C1490 H1478 0.959 . S
C1490 C1488 1.561 . S
C1491 C1488 1.526 . S
C1491 C1492 1.396 . S
C1491 C1496 1.390 . S
C1492 C1486 1.465 . S
C1492 C1491 1.396 . S
C1492 C1493 1.399 . S
C1493 H1479 0.929 . S
C1493 C1492 1.399 . S
C1493 C1494 1.385 . S
C1494 H1480 0.931 . S
C1494 C1493 1.385 . S
C1494 C1495 1.389 . S
C1495 C1494 1.389 . S
C1495 C1496 1.387 . S
C1496 H1481 0.930 . S
C1496 C1491 1.390 . S
C1496 C1495 1.387 . S
H1497 C1509 0.930 . S
H1498 C1511 0.930 . S
H1499 C1512 0.930 . S
H1500 C1516 0.959 . S
H1501 C1516 0.959 . S
H1502 C1516 0.961 . S
H1503 C1517 0.960 . S
H1504 C1517 0.961 . S
H1505 C1517 0.959 . S
H1506 C1520 0.929 . S
H1507 C1521 0.931 . S
H1508 C1523 0.930 . S
C1509 H1497 0.930 . S
C1509 C1510 1.399 . S
C1509 C1514 1.399 . S
C1510 C1509 1.399 . S
C1510 C1511 1.376 . S
C1511 H1498 0.930 . S
C1511 C1510 1.376 . S
C1511 C1512 1.388 . S
C1512 H1499 0.930 . S
C1512 C1511 1.388 . S
C1512 C1513 1.390 . S
C1513 C1512 1.390 . S
C1513 C1514 1.394 . S
C1513 C1519 1.465 . S
C1514 C1509 1.399 . S
C1514 C1513 1.394 . S
C1514 C1515 1.516 . S
C1515 C1514 1.516 . S
C1515 C1516 1.502 . S
C1515 C1517 1.561 . S
C1515 C1518 1.526 . S
C1516 H1500 0.959 . S
C1516 H1501 0.959 . S
C1516 H1502 0.961 . S
C1516 C1515 1.502 . S
C1517 H1503 0.960 . S
C1517 H1504 0.961 . S
C1517 H1505 0.959 . S
C1517 C1515 1.561 . S
C1518 C1515 1.526 . S
C1518 C1519 1.396 . S
C1518 C1523 1.390 . S
C1519 C1513 1.465 . S
C1519 C1518 1.396 . S
C1519 C1520 1.399 . S
C1520 H1506 0.929 . S
C1520 C1519 1.399 . S
C1520 C1521 1.385 . S
C1521 H1507 0.931 . S
C1521 C1520 1.385 . S
C1521 C1522 1.389 . S
C1522 C1521 1.389 . S
C1522 C1523 1.387 . S
C1523 H1508 0.930 . S
C1523 C1518 1.390 . S
C1523 C1522 1.387 . S
H1524 C1536 0.930 . S
H1525 C1538 0.930 . S
H1526 C1539 0.930 . S
H1527 C1543 0.959 . S
H1528 C1543 0.959 . S
H1529 C1543 0.961 . S
H1530 C1544 0.960 . S
H1531 C1544 0.961 . S
H1532 C1544 0.959 . S
H1533 C1547 0.929 . S
H1534 C1548 0.931 . S
H1535 C1550 0.930 . S
C1536 H1524 0.930 . S
C1536 C1537 1.399 . S
C1536 C1541 1.399 . S
C1537 C1536 1.399 . S
C1537 C1538 1.376 . S
C1538 H1525 0.930 . S
C1538 C1537 1.376 . S
C1538 C1539 1.388 . S
C1539 H1526 0.930 . S
C1539 C1538 1.388 . S
C1539 C1540 1.390 . S
C1540 C1539 1.390 . S
C1540 C1541 1.394 . S
C1540 C1546 1.465 . S
C1541 C1536 1.399 . S
C1541 C1540 1.394 . S
C1541 C1542 1.516 . S
C1542 C1541 1.516 . S
C1542 C1543 1.502 . S
C1542 C1544 1.561 . S
C1542 C1545 1.526 . S
C1543 H1527 0.959 . S
C1543 H1528 0.959 . S
C1543 H1529 0.961 . S
C1543 C1542 1.502 . S
C1544 H1530 0.960 . S
C1544 H1531 0.961 . S
C1544 H1532 0.959 . S
C1544 C1542 1.561 . S
C1545 C1542 1.526 . S
C1545 C1546 1.396 . S
C1545 C1550 1.390 . S
C1546 C1540 1.465 . S
C1546 C1545 1.396 . S
C1546 C1547 1.399 . S
C1547 H1533 0.929 . S
C1547 C1546 1.399 . S
C1547 C1548 1.385 . S
C1548 H1534 0.931 . S
C1548 C1547 1.385 . S
C1548 C1549 1.389 . S
C1549 C1548 1.389 . S
C1549 C1550 1.387 . S
C1550 H1535 0.930 . S
C1550 C1545 1.390 . S
C1550 C1549 1.387 . S
H1551 C1563 0.930 . S
H1552 C1565 0.930 . S
H1553 C1566 0.930 . S
H1554 C1570 0.959 . S
H1555 C1570 0.959 . S
H1556 C1570 0.961 . S
H1557 C1571 0.960 . S
H1558 C1571 0.961 . S
H1559 C1571 0.959 . S
H1560 C1574 0.929 . S
H1561 C1575 0.931 . S
H1562 C1577 0.930 . S
C1563 H1551 0.930 . S
C1563 C1564 1.399 . S
C1563 C1568 1.399 . S
C1564 C1563 1.399 . S
C1564 C1565 1.376 . S
C1565 H1552 0.930 . S
C1565 C1564 1.376 . S
C1565 C1566 1.388 . S
C1566 H1553 0.930 . S
C1566 C1565 1.388 . S
C1566 C1567 1.390 . S
C1567 C1566 1.390 . S
C1567 C1568 1.394 . S
C1567 C1573 1.465 . S
C1568 C1563 1.399 . S
C1568 C1567 1.394 . S
C1568 C1569 1.516 . S
C1569 C1568 1.516 . S
C1569 C1570 1.502 . S
C1569 C1571 1.561 . S
C1569 C1572 1.526 . S
C1570 H1554 0.959 . S
C1570 H1555 0.959 . S
C1570 H1556 0.961 . S
C1570 C1569 1.502 . S
C1571 H1557 0.960 . S
C1571 H1558 0.961 . S
C1571 H1559 0.959 . S
C1571 C1569 1.561 . S
C1572 C1569 1.526 . S
C1572 C1573 1.396 . S
C1572 C1577 1.390 . S
C1573 C1567 1.465 . S
C1573 C1572 1.396 . S
C1573 C1574 1.399 . S
C1574 H1560 0.929 . S
C1574 C1573 1.399 . S
C1574 C1575 1.385 . S
C1575 H1561 0.931 . S
C1575 C1574 1.385 . S
C1575 C1576 1.389 . S
C1576 C1575 1.389 . S
C1576 C1577 1.387 . S
C1577 H1562 0.930 . S
C1577 C1572 1.390 . S
C1577 C1576 1.387 . S
H1578 C1590 0.930 . S
H1579 C1592 0.930 . S
H1580 C1593 0.930 . S
H1581 C1597 0.959 . S
H1582 C1597 0.959 . S
H1583 C1597 0.961 . S
H1584 C1598 0.960 . S
H1585 C1598 0.961 . S
H1586 C1598 0.959 . S
H1587 C1601 0.929 . S
H1588 C1602 0.931 . S
H1589 C1604 0.930 . S
C1590 H1578 0.930 . S
C1590 C1591 1.399 . S
C1590 C1595 1.399 . S
C1591 C1590 1.399 . S
C1591 C1592 1.376 . S
C1592 H1579 0.930 . S
C1592 C1591 1.376 . S
C1592 C1593 1.388 . S
C1593 H1580 0.930 . S
C1593 C1592 1.388 . S
C1593 C1594 1.390 . S
C1594 C1593 1.390 . S
C1594 C1595 1.394 . S
C1594 C1600 1.465 . S
C1595 C1590 1.399 . S
C1595 C1594 1.394 . S
C1595 C1596 1.516 . S
C1596 C1595 1.516 . S
C1596 C1597 1.502 . S
C1596 C1598 1.561 . S
C1596 C1599 1.526 . S
C1597 H1581 0.959 . S
C1597 H1582 0.959 . S
C1597 H1583 0.961 . S
C1597 C1596 1.502 . S
C1598 H1584 0.960 . S
C1598 H1585 0.961 . S
C1598 H1586 0.959 . S
C1598 C1596 1.561 . S
C1599 C1596 1.526 . S
C1599 C1600 1.396 . S
C1599 C1604 1.390 . S
C1600 C1594 1.465 . S
C1600 C1599 1.396 . S
C1600 C1601 1.399 . S
C1601 H1587 0.929 . S
C1601 C1600 1.399 . S
C1601 C1602 1.385 . S
C1602 H1588 0.931 . S
C1602 C1601 1.385 . S
C1602 C1603 1.389 . S
C1603 C1602 1.389 . S
C1603 C1604 1.387 . S
C1604 H1589 0.930 . S
C1604 C1599 1.390 . S
C1604 C1603 1.387 . S
H1605 C1617 0.930 . S
H1606 C1619 0.930 . S
H1607 C1620 0.930 . S
H1608 C1624 0.959 . S
H1609 C1624 0.959 . S
H1610 C1624 0.961 . S
H1611 C1625 0.960 . S
H1612 C1625 0.961 . S
H1613 C1625 0.959 . S
H1614 C1628 0.929 . S
H1615 C1629 0.931 . S
H1616 C1631 0.930 . S
C1617 H1605 0.930 . S
C1617 C1618 1.399 . S
C1617 C1622 1.399 . S
C1618 C1617 1.399 . S
C1618 C1619 1.376 . S
C1619 H1606 0.930 . S
C1619 C1618 1.376 . S
C1619 C1620 1.388 . S
C1620 H1607 0.930 . S
C1620 C1619 1.388 . S
C1620 C1621 1.390 . S
C1621 C1620 1.390 . S
C1621 C1622 1.394 . S
C1621 C1627 1.465 . S
C1622 C1617 1.399 . S
C1622 C1621 1.394 . S
C1622 C1623 1.516 . S
C1623 C1622 1.516 . S
C1623 C1624 1.502 . S
C1623 C1625 1.561 . S
C1623 C1626 1.526 . S
C1624 H1608 0.959 . S
C1624 H1609 0.959 . S
C1624 H1610 0.961 . S
C1624 C1623 1.502 . S
C1625 H1611 0.960 . S
C1625 H1612 0.961 . S
C1625 H1613 0.959 . S
C1625 C1623 1.561 . S
C1626 C1623 1.526 . S
C1626 C1627 1.396 . S
C1626 C1631 1.390 . S
C1627 C1621 1.465 . S
C1627 C1626 1.396 . S
C1627 C1628 1.399 . S
C1628 H1614 0.929 . S
C1628 C1627 1.399 . S
C1628 C1629 1.385 . S
C1629 H1615 0.931 . S
C1629 C1628 1.385 . S
C1629 C1630 1.389 . S
C1630 C1629 1.389 . S
C1630 C1631 1.387 . S
C1631 H1616 0.930 . S
C1631 C1626 1.390 . S
C1631 C1630 1.387 . S
C349 C205 1.507 . S
C361 C3 1.516 . S
C376 C23 1.488 . S
C388 C218 1.512 . S
C403 C259 1.529 . S
C415 C35 1.528 . S
C430 C50 1.506 . S
C442 C190 1.503 . S
C457 C204 1.564 . S
C469 C63 1.562 . S
C484 C79 1.520 . S
C496 C219 1.530 . S
C511 C87 1.534 . S
C523 C255 1.521 . S
C538 C106 1.512 . S
C550 C191 1.486 . S
C565 C129 1.516 . S
C577 C115 1.534 . S
C592 C149 1.588 . S
C604 C133 1.543 . S
C619 C148 1.515 . S
C631 C157 1.494 . S
C646 C161 1.490 . S
C658 C119 1.506 . S
C673 C176 1.504 . S
C685 C51 1.507 . S
C700 C59 1.515 . S
C712 C227 1.535 . S
C727 C246 1.516 . S
C739 C22 1.514 . S
C754 C21 1.451 . S
C766 C303 1.462 . S
C781 C134 1.419 . S
C793 C9 1.396 . S
C808 C329 1.397 . S
C820 C45 1.431 . S
C835 C162 1.419 . S
C847 C36 1.407 . S
C862 C302 1.453 . S
C874 C101 1.444 . S
C889 C135 1.422 . S
C901 C93 1.454 . S
C916 C77 1.395 . S
C928 C325 1.437 . S
C943 C64 1.409 . S
C955 C163 1.383 . S
C970 C217 1.420 . S
C982 C273 1.437 . S
C997 C232 1.452 . S
C1009 C213 1.450 . S
C1024 C189 1.456 . S
C1036 C233 1.464 . S
C1051 C269 1.441 . S
C1063 C185 1.426 . S
C1078 C37 1.413 . S
C1090 C288 1.422 . S
C1105 C143 1.445 . S
C1117 C105 1.423 . S
C1132 C8 1.405 . S
C1144 C316 1.420 . S
C1159 C275 1.526 . S
C1171 C31 1.518 . S
C1186 C7 1.526 . S
C1198 C231 1.498 . S
C1213 C274 1.569 . S
C1225 C91 1.560 . S
C1240 C177 1.531 . S
C1252 C107 1.522 . S
C1267 C78 1.514 . S
C1279 C247 1.479 . S
C1294 C297 1.537 . S
C1306 C283 1.533 . S
C1321 C331 1.561 . S
C1333 C287 1.580 . S
C1348 C311 1.501 . S
C1360 C330 1.514 . S
C1375 C301 1.523 . S
C1387 C315 1.511 . S
C1402 C121 1.430 . S
C1414 C49 1.416 . S
C1429 C17 1.427 . S
C1441 C147 1.413 . S
C1456 C73 1.446 . S
C1468 C120 1.463 . S
C1483 C289 1.441 . S
C1495 C65 1.448 . S
C1510 C92 1.411 . S
C1522 C317 1.385 . S
C1537 C175 1.445 . S
C1549 C203 1.409 . S
C1564 C260 1.465 . S
C1576 C171 1.455 . S
C1591 C245 1.455 . S
C1603 C261 1.458 . S
C1618 C199 1.438 . S
C1630 C241 1.422 . S
