# Generated by pormake.
# Topology fnd, (5)-cn, num edge types: 1
# Building blocks:
#     Node 0, Type 0, BuildingBlock: BEQFEK_clean_sbu_0, # of connection points: 5
#     Node 1, Type 0, BuildingBlock: BEQFEK_clean_sbu_0, # of connection points: 5
#     Node 2, Type 0, BuildingBlock: BEQFEK_clean_sbu_0, # of connection points: 5
#     Node 3, Type 0, BuildingBlock: BEQFEK_clean_sbu_0, # of connection points: 5
#     Node 4, Type 0, BuildingBlock: BEQFEK_clean_sbu_0, # of connection points: 5
#     Node 5, Type 0, BuildingBlock: BEQFEK_clean_sbu_0, # of connection points: 5
#     Node 6, Type 0, BuildingBlock: BEQFEK_clean_sbu_0, # of connection points: 5
#     Node 7, Type 0, BuildingBlock: BEQFEK_clean_sbu_0, # of connection points: 5
#     Node 8, Type 0, BuildingBlock: BEQFEK_clean_sbu_0, # of connection points: 5
#     Node 9, Type 0, BuildingBlock: BEQFEK_clean_sbu_0, # of connection points: 5
#     Node 10, Type 0, BuildingBlock: BEQFEK_clean_sbu_0, # of connection points: 5
#     Node 11, Type 0, BuildingBlock: BEQFEK_clean_sbu_0, # of connection points: 5
#     Node 12, Type 0, BuildingBlock: BEQFEK_clean_sbu_0, # of connection points: 5
#     Node 13, Type 0, BuildingBlock: BEQFEK_clean_sbu_0, # of connection points: 5
#     Node 14, Type 0, BuildingBlock: BEQFEK_clean_sbu_0, # of connection points: 5
#     Node 15, Type 0, BuildingBlock: BEQFEK_clean_sbu_0, # of connection points: 5
#     Node 16, Type 0, BuildingBlock: BEQFEK_clean_sbu_0, # of connection points: 5
#     Node 17, Type 0, BuildingBlock: BEQFEK_clean_sbu_0, # of connection points: 5
#     Edge 18, Type (0, 0), BuildingBlock: XIVTED_clean_linker_0, # of connection points: 2
#     Edge 19, Type (0, 0), BuildingBlock: XIVTED_clean_linker_0, # of connection points: 2
#     Edge 20, Type (0, 0), BuildingBlock: XIVTED_clean_linker_0, # of connection points: 2
#     Edge 21, Type (0, 0), BuildingBlock: XIVTED_clean_linker_0, # of connection points: 2
#     Edge 22, Type (0, 0), BuildingBlock: XIVTED_clean_linker_0, # of connection points: 2
#     Edge 23, Type (0, 0), BuildingBlock: XIVTED_clean_linker_0, # of connection points: 2
#     Edge 24, Type (0, 0), BuildingBlock: XIVTED_clean_linker_0, # of connection points: 2
#     Edge 25, Type (0, 0), BuildingBlock: XIVTED_clean_linker_0, # of connection points: 2
#     Edge 26, Type (0, 0), BuildingBlock: XIVTED_clean_linker_0, # of connection points: 2
#     Edge 27, Type (0, 0), BuildingBlock: XIVTED_clean_linker_0, # of connection points: 2
#     Edge 28, Type (0, 0), BuildingBlock: XIVTED_clean_linker_0, # of connection points: 2
#     Edge 29, Type (0, 0), BuildingBlock: XIVTED_clean_linker_0, # of connection points: 2
#     Edge 30, Type (0, 0), BuildingBlock: XIVTED_clean_linker_0, # of connection points: 2
#     Edge 31, Type (0, 0), BuildingBlock: XIVTED_clean_linker_0, # of connection points: 2
#     Edge 32, Type (0, 0), BuildingBlock: XIVTED_clean_linker_0, # of connection points: 2
#     Edge 33, Type (0, 0), BuildingBlock: XIVTED_clean_linker_0, # of connection points: 2
#     Edge 34, Type (0, 0), BuildingBlock: XIVTED_clean_linker_0, # of connection points: 2
#     Edge 35, Type (0, 0), BuildingBlock: XIVTED_clean_linker_0, # of connection points: 2
#     Edge 36, Type (0, 0), BuildingBlock: XIVTED_clean_linker_0, # of connection points: 2
#     Edge 37, Type (0, 0), BuildingBlock: XIVTED_clean_linker_0, # of connection points: 2
#     Edge 38, Type (0, 0), BuildingBlock: XIVTED_clean_linker_0, # of connection points: 2
#     Edge 39, Type (0, 0), BuildingBlock: XIVTED_clean_linker_0, # of connection points: 2
#     Edge 40, Type (0, 0), BuildingBlock: XIVTED_clean_linker_0, # of connection points: 2
#     Edge 41, Type (0, 0), BuildingBlock: XIVTED_clean_linker_0, # of connection points: 2
#     Edge 42, Type (0, 0), BuildingBlock: XIVTED_clean_linker_0, # of connection points: 2
#     Edge 43, Type (0, 0), BuildingBlock: XIVTED_clean_linker_0, # of connection points: 2
#     Edge 44, Type (0, 0), BuildingBlock: XIVTED_clean_linker_0, # of connection points: 2
#     Edge 45, Type (0, 0), BuildingBlock: XIVTED_clean_linker_0, # of connection points: 2
#     Edge 46, Type (0, 0), BuildingBlock: XIVTED_clean_linker_0, # of connection points: 2
#     Edge 47, Type (0, 0), BuildingBlock: XIVTED_clean_linker_0, # of connection points: 2
#     Edge 48, Type (0, 0), BuildingBlock: XIVTED_clean_linker_0, # of connection points: 2
#     Edge 49, Type (0, 0), BuildingBlock: XIVTED_clean_linker_0, # of connection points: 2
#     Edge 50, Type (0, 0), BuildingBlock: XIVTED_clean_linker_0, # of connection points: 2
#     Edge 51, Type (0, 0), BuildingBlock: XIVTED_clean_linker_0, # of connection points: 2
#     Edge 52, Type (0, 0), BuildingBlock: XIVTED_clean_linker_0, # of connection points: 2
#     Edge 53, Type (0, 0), BuildingBlock: XIVTED_clean_linker_0, # of connection points: 2
#     Edge 54, Type (0, 0), BuildingBlock: XIVTED_clean_linker_0, # of connection points: 2
#     Edge 55, Type (0, 0), BuildingBlock: XIVTED_clean_linker_0, # of connection points: 2
#     Edge 56, Type (0, 0), BuildingBlock: XIVTED_clean_linker_0, # of connection points: 2
#     Edge 57, Type (0, 0), BuildingBlock: XIVTED_clean_linker_0, # of connection points: 2
#     Edge 58, Type (0, 0), BuildingBlock: XIVTED_clean_linker_0, # of connection points: 2
#     Edge 59, Type (0, 0), BuildingBlock: XIVTED_clean_linker_0, # of connection points: 2
#     Edge 60, Type (0, 0), BuildingBlock: XIVTED_clean_linker_0, # of connection points: 2
#     Edge 61, Type (0, 0), BuildingBlock: XIVTED_clean_linker_0, # of connection points: 2
#     Edge 62, Type (0, 0), BuildingBlock: XIVTED_clean_linker_0, # of connection points: 2
# Relax obj value: 0.146
# Max RMSD: 0.197
# Mean RMSD: 0.197
data_MOF--net-fnd--node1-BEQFEK_clean_sbu_0--edge1-XIVTED_clean_linker_0
_symmetry_space_group_name_H-M    P1
_symmetry_Int_Tables_number       1
_symmetry_cell_setting            triclinic
loop_
_symmetry_equiv_pos_as_xyz
'x, y, z'
_cell_length_a     81.058189
_cell_length_b     81.028776
_cell_length_c     19.39233
_cell_angle_alpha  90.035338
_cell_angle_beta   89.996635
_cell_angle_gamma 119.98327
loop_
_atom_site_label
_atom_site_type_symbol
_atom_site_fract_x
_atom_site_fract_y
_atom_site_fract_z
_atom_type_partial_charge
Co0 Co 0.10155 0.21453 0.53094 0.0
Co1 Co 0.09617 0.20541 0.37294 0.0
C2 C 0.1183 0.1932 0.45865 0.0
O3 O 0.11472 0.20018 0.5115 0.0
O4 O 0.11237 0.19438 0.39897 0.0
C5 C 0.12085 0.22421 0.66159 0.0
O6 O 0.13274 0.21997 0.63119 0.0
C7 C 0.10351 0.20684 0.22298 0.0
C8 C 0.07625 0.20303 0.18325 0.0
C9 C 0.09418 0.20681 0.16276 0.0
N10 N 0.09169 0.20367 0.27637 0.0
N11 N 0.07532 0.20101 0.25205 0.0
C12 C 0.12381 0.21168 0.23091 0.0
H13 H 0.12868 0.21594 0.28483 0.0
H14 H 0.13313 0.22334 0.19514 0.0
H15 H 0.12497 0.19895 0.21815 0.0
C16 C 0.11717 0.25382 0.47876 0.0
N17 N 0.10932 0.23494 0.46871 0.0
N18 N 0.10707 0.23126 0.40216 0.0
C19 C 0.11331 0.24778 0.36767 0.0
C20 C 0.1199 0.26258 0.41507 0.0
C21 C 0.12152 0.26309 0.54824 0.0
H22 H 0.10893 0.25538 0.5823 0.0
H23 H 0.13346 0.26207 0.57171 0.0
H24 H 0.12541 0.27828 0.54496 0.0
O25 O 0.0738 0.19723 0.52509 0.0
O26 O 0.07057 0.1901 0.41378 0.0
H27 H 0.0996 0.2406 0.26907 0.0
H28 H 0.11991 0.26435 0.273 0.0
C29 C 0.11409 0.24948 0.29071 0.0
H30 H 0.1234 0.24428 0.27037 0.0
H31 H 0.06379 0.19869 0.28279 0.0
O32 O 0.10718 0.22357 0.62728 0.0
C33 C 0.06345 0.18827 0.47362 0.0
Co34 Co 0.77344 0.88742 0.52565 0.0
Co35 Co 0.78496 0.8928 0.36964 0.0
C36 C 0.79619 0.92618 0.4616 0.0
O37 O 0.78819 0.91517 0.51259 0.0
O38 O 0.79595 0.91962 0.40157 0.0
C39 C 0.7617 0.89444 0.65743 0.0
O40 O 0.76307 0.90967 0.62795 0.0
C41 C 0.78553 0.9004 0.21906 0.0
C42 C 0.79255 0.87904 0.17972 0.0
C43 C 0.78794 0.89255 0.15851 0.0
N44 N 0.78822 0.89152 0.27293 0.0
N45 N 0.79265 0.87898 0.24883 0.0
C46 C 0.78145 0.91641 0.22626 0.0
H47 H 0.78646 0.92352 0.27694 0.0
H48 H 0.76589 0.91078 0.2231 0.0
H49 H 0.78848 0.92696 0.18426 0.0
C50 C 0.73478 0.86568 0.46458 0.0
N51 N 0.75387 0.87609 0.4591 0.0
N52 N 0.7587 0.87791 0.39352 0.0
C53 C 0.74279 0.86831 0.35525 0.0
C54 C 0.72714 0.8605 0.3988 0.0
C55 C 0.72426 0.86169 0.53143 0.0
H56 H 0.72946 0.87518 0.56048 0.0
H57 H 0.70867 0.85504 0.52348 0.0
H58 H 0.72729 0.85209 0.56297 0.0
O59 O 0.79058 0.87671 0.52028 0.0
O60 O 0.79928 0.88154 0.41065 0.0
H61 H 0.75382 0.86211 0.2645 0.0
H62 H 0.72865 0.85338 0.26149 0.0
C63 C 0.74253 0.86535 0.27895 0.0
H64 H 0.74512 0.87847 0.25204 0.0
H65 H 0.7952 0.86993 0.27963 0.0
O66 O 0.76391 0.88261 0.62124 0.0
C67 C 0.80012 0.87556 0.47034 0.0
Co68 Co 0.10006 0.88525 0.51126 0.0
Co69 Co 0.094 0.89088 0.35552 0.0
C70 C 0.06105 0.86845 0.44858 0.0
O71 O 0.07231 0.87182 0.49907 0.0
O72 O 0.06731 0.87466 0.3882 0.0
C73 C 0.09368 0.86678 0.64315 0.0
O74 O 0.07835 0.85288 0.61434 0.0
C75 C 0.08622 0.88336 0.20539 0.0
C76 C 0.10724 0.91172 0.16501 0.0
C77 C 0.09397 0.89342 0.14445 0.0
N78 N 0.09497 0.8952 0.2588 0.0
N79 N 0.10727 0.91216 0.2341 0.0
C80 C 0.07046 0.8632 0.21346 0.0
H81 H 0.06329 0.86123 0.26392 0.0
H82 H 0.07633 0.85345 0.21153 0.0
H83 H 0.0599 0.85931 0.17125 0.0
C84 C 0.12214 0.86879 0.44988 0.0
N85 N 0.1115 0.87724 0.44452 0.0
N86 N 0.10945 0.88006 0.37897 0.0
C87 C 0.11915 0.87388 0.34057 0.0
C88 C 0.12726 0.86632 0.38404 0.0
C89 C 0.1263 0.86239 0.51669 0.0
H90 H 0.11285 0.85401 0.54586 0.0
H91 H 0.13307 0.85355 0.50873 0.0
H92 H 0.13583 0.87507 0.54815 0.0
O93 O 0.11017 0.913 0.50552 0.0
O94 O 0.10479 0.91651 0.39613 0.0
H95 H 0.12477 0.8908 0.24931 0.0
H96 H 0.13402 0.87477 0.24659 0.0
C97 C 0.1219 0.87642 0.26416 0.0
H98 H 0.10883 0.86562 0.2377 0.0
H99 H 0.11619 0.92391 0.26449 0.0
O100 O 0.10532 0.88081 0.60655 0.0
C101 C 0.11083 0.92347 0.45562 0.0
Co102 Co 0.20728 0.1025 0.47091 0.0
Co103 Co 0.19702 0.09719 0.62742 0.0
C104 C 0.1863 0.12011 0.53831 0.0
O105 O 0.19361 0.11656 0.48634 0.0
O106 O 0.18665 0.11373 0.59806 0.0
C107 C 0.21936 0.12123 0.33934 0.0
O108 O 0.21813 0.13524 0.3682 0.0
C109 C 0.19596 0.1034 0.77839 0.0
C110 C 0.19387 0.07666 0.81597 0.0
C111 C 0.19574 0.09376 0.83813 0.0
N112 N 0.1948 0.09257 0.72386 0.0
N113 N 0.19324 0.07652 0.7469 0.0
C114 C 0.19685 0.12225 0.7727 0.0
H115 H 0.18959 0.12281 0.72514 0.0
H116 H 0.21193 0.13379 0.76998 0.0
H117 H 0.19005 0.12476 0.81811 0.0
C118 C 0.24615 0.1175 0.52719 0.0
N119 N 0.22722 0.10996 0.53486 0.0
N120 N 0.22298 0.10778 0.60094 0.0
C121 C 0.23912 0.11381 0.63754 0.0
C122 C 0.25429 0.12009 0.59205 0.0
C123 C 0.25601 0.1216 0.45892 0.0
H124 H 0.24834 0.10905 0.42461 0.0
H125 H 0.25558 0.13375 0.43439 0.0
H126 H 0.27104 0.12511 0.46437 0.0
O127 O 0.18941 0.07489 0.47666 0.0
O128 O 0.18164 0.07153 0.58718 0.0
H129 H 0.23265 0.09999 0.73573 0.0
H130 H 0.25506 0.1221 0.73367 0.0
C131 C 0.24018 0.11466 0.71462 0.0
H132 H 0.23309 0.12239 0.7339 0.0
H133 H 0.19239 0.0657 0.71524 0.0
O134 O 0.21651 0.10698 0.37551 0.0
C135 C 0.18007 0.06449 0.52738 0.0
Co136 Co 0.88373 0.10566 0.46584 0.0
Co137 Co 0.88883 0.10173 0.62401 0.0
C138 C 0.86699 0.06749 0.53783 0.0
O139 O 0.87072 0.07819 0.48537 0.0
O140 O 0.87269 0.07444 0.5979 0.0
C141 C 0.86428 0.09583 0.33549 0.0
O142 O 0.85224 0.07991 0.36669 0.0
C143 C 0.8819 0.09619 0.77468 0.0
C144 C 0.90906 0.12021 0.8126 0.0
C145 C 0.89134 0.10593 0.83421 0.0
N146 N 0.89347 0.10475 0.72056 0.0
N147 N 0.90979 0.11879 0.74387 0.0
C148 C 0.86171 0.0804 0.76808 0.0
H149 H 0.85664 0.07929 0.71421 0.0
H150 H 0.85235 0.08276 0.80361 0.0
H151 H 0.86089 0.06675 0.7822 0.0
C152 C 0.868 0.12926 0.51789 0.0
N153 N 0.8758 0.11819 0.52799 0.0
N154 N 0.87783 0.11659 0.59458 0.0
C155 C 0.87143 0.12675 0.62906 0.0
C156 C 0.86503 0.13511 0.58161 0.0
C157 C 0.86401 0.13446 0.44833 0.0
H158 H 0.87662 0.13906 0.41458 0.0
H159 H 0.8519 0.12169 0.42453 0.0
H160 H 0.86051 0.14604 0.45162 0.0
O161 O 0.91146 0.11622 0.47197 0.0
O162 O 0.91448 0.11207 0.58319 0.0
H163 H 0.88481 0.13348 0.72823 0.0
H164 H 0.86393 0.13598 0.72361 0.0
C165 C 0.87034 0.12743 0.70599 0.0
H166 H 0.86139 0.11278 0.72573 0.0
H167 H 0.92112 0.12802 0.71243 0.0
O168 O 0.87809 0.10888 0.36928 0.0
C169 C 0.9217 0.11749 0.52357 0.0
Co170 Co 0.88147 0.77706 0.47471 0.0
Co171 Co 0.88745 0.7887 0.63054 0.0
C172 C 0.92045 0.79932 0.53745 0.0
O173 O 0.9092 0.79143 0.48694 0.0
O174 O 0.91418 0.79927 0.59783 0.0
C175 C 0.88794 0.765 0.34281 0.0
O176 O 0.90327 0.76646 0.3717 0.0
C177 C 0.89528 0.78891 0.78062 0.0
C178 C 0.87423 0.79619 0.82128 0.0
C179 C 0.88754 0.7912 0.84166 0.0
N180 N 0.8865 0.79199 0.72732 0.0
N181 N 0.87417 0.7966 0.75221 0.0
C182 C 0.91107 0.78455 0.77236 0.0
H183 H 0.9182 0.78974 0.72185 0.0
H184 H 0.90522 0.76893 0.77429 0.0
H185 H 0.92165 0.79125 0.81449 0.0
C186 C 0.8596 0.73851 0.53573 0.0
N187 N 0.87012 0.75759 0.54127 0.0
N188 N 0.87211 0.76245 0.60686 0.0
C189 C 0.86246 0.74654 0.64511 0.0
C190 C 0.85446 0.73088 0.60149 0.0
C191 C 0.85562 0.72798 0.46885 0.0
H192 H 0.86913 0.73317 0.43993 0.0
H193 H 0.84898 0.71238 0.47667 0.0
H194 H 0.84604 0.73102 0.43721 0.0
O195 O 0.87117 0.79453 0.48079 0.0
O196 O 0.87644 0.80338 0.59027 0.0
H197 H 0.84757 0.73247 0.7389 0.0
H198 H 0.87274 0.74857 0.748 0.0
C199 C 0.85967 0.74628 0.72151 0.0
H200 H 0.85674 0.75775 0.73649 0.0
H201 H 0.86522 0.79941 0.72194 0.0
O202 O 0.87628 0.76739 0.37936 0.0
C203 C 0.87035 0.80423 0.53082 0.0
Co204 Co 0.77011 0.54666 0.865 0.0
Co205 Co 0.76582 0.53747 0.70793 0.0
C206 C 0.78855 0.52654 0.7959 0.0
O207 O 0.78449 0.53337 0.84807 0.0
O208 O 0.78254 0.52722 0.73577 0.0
C209 C 0.78907 0.55884 -0.00396 0.0
O210 O 0.80345 0.55857 0.96588 0.0
C211 C 0.77137 0.53638 0.55638 0.0
C212 C 0.74506 0.53563 0.52101 0.0
C213 C 0.7616 0.53649 0.49758 0.0
N214 N 0.76113 0.5359 0.61177 0.0
N215 N 0.74535 0.53521 0.59006 0.0
C216 C 0.78974 0.53626 0.5603 0.0
H217 H 0.80177 0.55112 0.56287 0.0
H218 H 0.79162 0.52924 0.51418 0.0
H219 H 0.79013 0.52872 0.60733 0.0
C220 C 0.78478 0.58581 0.81226 0.0
N221 N 0.77749 0.56697 0.80301 0.0
N222 N 0.77611 0.56321 0.73661 0.0
C223 C 0.78263 0.57962 0.70129 0.0
C224 C 0.78823 0.59446 0.74803 0.0
C225 C 0.78793 0.59514 0.88136 0.0
H226 H 0.77551 0.58647 0.91515 0.0
H227 H 0.80066 0.59586 0.90568 0.0
H228 H 0.7901 0.60975 0.87704 0.0
O229 O 0.74266 0.52853 0.85813 0.0
O230 O 0.74011 0.52147 0.74706 0.0
H231 H 0.77073 0.5751 0.60001 0.0
H232 H 0.79391 0.59618 0.60752 0.0
C233 C 0.78494 0.58122 0.62458 0.0
H234 H 0.79174 0.57303 0.60707 0.0
H235 H 0.73498 0.53494 0.62263 0.0
O236 O 0.77445 0.55532 0.96089 0.0
C237 C 0.73269 0.51935 0.80638 0.0
Co238 Co 0.43797 0.21834 0.85833 0.0
Co239 Co 0.44836 0.22233 0.70093 0.0
C240 C 0.46096 0.25649 0.78938 0.0
O241 O 0.45336 0.24582 0.84148 0.0
O242 O 0.45988 0.24952 0.72947 0.0
C243 C 0.42837 0.22788 0.98955 0.0
O244 O 0.43278 0.24408 0.95932 0.0
C245 C 0.44583 0.22779 0.55122 0.0
C246 C 0.45448 0.2078 0.50996 0.0
C247 C 0.4476 0.21968 0.49043 0.0
N248 N 0.45103 0.22061 0.60403 0.0
N249 N 0.45656 0.20901 0.57876 0.0
C250 C 0.43756 0.24053 0.56022 0.0
H251 H 0.43293 0.24012 0.61439 0.0
H252 H 0.42536 0.23629 0.52461 0.0
H253 H 0.44861 0.25538 0.54776 0.0
C254 C 0.39893 0.19662 0.80125 0.0
N255 N 0.41796 0.20693 0.79344 0.0
N256 N 0.42224 0.20779 0.72751 0.0
C257 C 0.406 0.19743 0.69152 0.0
C258 C 0.39072 0.1903 0.73679 0.0
C259 C 0.38899 0.19359 0.86901 0.0
H260 H 0.39113 0.18332 0.90011 0.0
H261 H 0.39533 0.20724 0.89775 0.0
H262 H 0.37352 0.18809 0.86228 0.0
O263 O 0.45447 0.20682 0.85292 0.0
O264 O 0.46263 0.21109 0.74256 0.0
H265 H 0.41725 0.19063 0.60253 0.0
H266 H 0.39172 0.17919 0.60421 0.0
C267 C 0.40509 0.19255 0.61659 0.0
H268 H 0.40552 0.20418 0.58525 0.0
H269 H 0.46088 0.20117 0.60879 0.0
O270 O 0.4286 0.2147 0.95467 0.0
C271 C 0.46363 0.20528 0.80243 0.0
Co272 Co 0.76722 0.22068 0.84757 0.0
Co273 Co 0.76294 0.22802 0.69106 0.0
C274 C 0.72896 0.20627 0.78067 0.0
O275 O 0.7397 0.20881 0.8321 0.0
O276 O 0.73583 0.21254 0.72096 0.0
C277 C 0.75803 0.20183 0.97928 0.0
O278 O 0.74157 0.19036 0.95011 0.0
C279 C 0.75664 0.22017 0.5414 0.0
C280 C 0.77662 0.24872 0.49976 0.0
C281 C 0.7645 0.22999 0.4803 0.0
N282 N 0.76419 0.23254 0.59418 0.0
N283 N 0.77578 0.24963 0.5687 0.0
C284 C 0.74374 0.19919 0.55068 0.0
H285 H 0.74434 0.19498 0.60468 0.0
H286 H 0.74768 0.19109 0.51458 0.0
H287 H 0.7289 0.19558 0.5392 0.0
C288 C 0.78833 0.20317 0.7865 0.0
N289 N 0.77833 0.21228 0.7807 0.0
N290 N 0.77728 0.216 0.71522 0.0
C291 C 0.78714 0.20984 0.67755 0.0
C292 C 0.79415 0.20124 0.72118 0.0
C293 C 0.7915 0.19589 0.85317 0.0
H294 H 0.80175 0.20815 0.88499 0.0
H295 H 0.7779 0.18838 0.88207 0.0
H296 H 0.79711 0.18605 0.84486 0.0
O297 O 0.77874 0.24866 0.84359 0.0
O298 O 0.77465 0.25348 0.73397 0.0
H299 H 0.79367 0.22791 0.58877 0.0
H300 H 0.80468 0.21339 0.58859 0.0
C301 C 0.79156 0.21372 0.60234 0.0
H302 H 0.77965 0.20263 0.57168 0.0
H303 H 0.78387 0.26177 0.59862 0.0
O304 O 0.77129 0.21483 0.94338 0.0
C305 C 0.78045 0.25979 0.79443 0.0
Co306 Co 0.88075 0.43934 0.81787 0.0
Co307 Co 0.8689 0.43276 0.97348 0.0
C308 C 0.8588 0.45605 0.88244 0.0
O309 O 0.86675 0.45306 0.83123 0.0
O310 O 0.8586 0.44924 0.94189 0.0
C311 C 0.89277 0.45777 0.6856 0.0
O312 O 0.89111 0.47162 0.71382 0.0
C313 C 0.86883 0.44027 0.12353 0.0
C314 C 0.86126 0.41185 0.16405 0.0
C315 C 0.86651 0.43023 0.18454 0.0
N316 N 0.86555 0.42836 0.07018 0.0
N317 N 0.86075 0.41137 0.09496 0.0
C318 C 0.87343 0.4605 0.11535 0.0
H319 H 0.86819 0.46251 0.06507 0.0
H320 H 0.88908 0.4701 0.11685 0.0
H321 H 0.86693 0.46455 0.1577 0.0
C322 C 0.91916 0.45521 0.87948 0.0
N323 N 0.90009 0.4468 0.8847 0.0
N324 N 0.89514 0.44356 0.95012 0.0
C325 C 0.91097 0.44944 0.98853 0.0
C326 C 0.92668 0.45722 0.94525 0.0
C327 C 0.92981 0.46206 0.81298 0.0
H328 H 0.92467 0.4705 0.7846 0.0
H329 H 0.94539 0.47094 0.82137 0.0
H330 H 0.92683 0.44958 0.78057 0.0
O331 O 0.86293 0.41164 0.82229 0.0
O332 O 0.85409 0.40725 0.93183 0.0
H333 H 0.92484 0.44795 0.08184 0.0
H334 H 0.90896 0.45724 0.09217 0.0
C335 C 0.91112 0.44649 0.06469 0.0
H336 H 0.89953 0.43208 0.07875 0.0
H337 H 0.85775 0.39956 0.06459 0.0
O338 O 0.89053 0.44387 0.72266 0.0
C339 C 0.85318 0.40076 0.87146 0.0
Co340 Co 0.5531 0.43651 0.80138 0.0
Co341 Co 0.55867 0.43082 0.95755 0.0
C342 C 0.53576 0.39765 0.86597 0.0
O343 O 0.53928 0.40876 0.81485 0.0
O344 O 0.5421 0.40409 0.9261 0.0
C345 C 0.5344 0.43004 0.66975 0.0
O346 O 0.52024 0.41507 0.69929 0.0
C347 C 0.55173 0.42343 0.10832 0.0
C348 C 0.58014 0.44486 0.14707 0.0
C349 C 0.56205 0.43138 0.16862 0.0
N350 N 0.56323 0.43222 0.05421 0.0
N351 N 0.58022 0.4448 0.07797 0.0
C352 C 0.53165 0.40739 0.10164 0.0
H353 H 0.52952 0.4001 0.05133 0.0
H354 H 0.52171 0.41302 0.10434 0.0
H355 H 0.52817 0.39699 0.14414 0.0
C356 C 0.53705 0.45912 0.8615 0.0
N357 N 0.54542 0.44842 0.86741 0.0
N358 N 0.54812 0.44641 0.93312 0.0
C359 C 0.54186 0.45611 0.97108 0.0
C360 C 0.53444 0.46425 0.92715 0.0
C361 C 0.53066 0.46317 0.79442 0.0
H362 H 0.54329 0.47176 0.76138 0.0
H363 H 0.52145 0.44954 0.76722 0.0
H364 H 0.52269 0.47086 0.80177 0.0
O365 O 0.58079 0.44635 0.80694 0.0
O366 O 0.58416 0.44116 0.91664 0.0
H367 H 0.55827 0.46175 0.06368 0.0
H368 H 0.54161 0.47025 0.06562 0.0
C369 C 0.54384 0.4585 0.04773 0.0
H370 H 0.53317 0.44513 0.0729 0.0
H371 H 0.59176 0.45379 0.0469 0.0
O372 O 0.54865 0.44152 0.70582 0.0
C373 C 0.59117 0.447 0.85712 0.0
Co374 Co 0.55015 0.11143 0.79885 0.0
Co375 Co 0.55401 0.12084 0.95671 0.0
C376 C 0.58826 0.13513 0.86917 0.0
O377 O 0.57757 0.12748 0.81709 0.0
O378 O 0.58132 0.13354 0.92942 0.0
C379 C 0.56076 0.10271 0.66844 0.0
O380 O 0.57708 0.10788 0.69913 0.0
C381 C 0.56047 0.12026 0.10693 0.0
C382 C 0.53575 0.12195 0.14631 0.0
C383 C 0.55077 0.11955 0.16706 0.0
N384 N 0.55121 0.12249 0.05336 0.0
N385 N 0.53674 0.12391 0.0775 0.0
C386 C 0.57696 0.11695 0.09932 0.0
H387 H 0.57807 0.11302 0.04538 0.0
H388 H 0.57545 0.10555 0.13495 0.0
H389 H 0.59029 0.13025 0.11257 0.0
C390 C 0.52877 0.07204 0.85227 0.0
N391 N 0.53896 0.09102 0.86175 0.0
N392 N 0.54053 0.0948 0.92823 0.0
C393 C 0.53122 0.07825 0.96326 0.0
C394 C 0.52347 0.06331 0.91629 0.0
C395 C 0.52369 0.06266 0.78298 0.0
H396 H 0.51829 0.07002 0.74951 0.0
H397 H 0.5367 0.06405 0.75846 0.0
H398 H 0.51275 0.04736 0.78684 0.0
O399 O 0.53789 0.1271 0.80511 0.0
O400 O 0.54192 0.13459 0.91612 0.0
H401 H 0.52395 0.08455 0.06208 0.0
H402 H 0.52283 0.06175 0.05833 0.0
C403 C 0.53068 0.0767 0.04025 0.0
H404 H 0.54541 0.08316 0.05996 0.0
H405 H 0.52696 0.12531 0.04663 0.0
O406 O 0.5472 0.10238 0.70256 0.0
C407 C 0.53598 0.13572 0.85661 0.0
Co408 Co 0.43708 0.87906 0.17866 0.0
Co409 Co 0.43058 0.86865 0.02126 0.0
C410 C 0.45224 0.85608 0.10898 0.0
O411 O 0.44921 0.86369 0.16122 0.0
O412 O 0.44626 0.85711 0.0492 0.0
C413 C 0.45623 0.88856 0.30986 0.0
O414 O 0.46791 0.88401 0.27962 0.0
C415 C 0.43823 0.87072 0.8713 0.0
C416 C 0.40981 0.86317 0.83086 0.0
C417 C 0.42839 0.86932 0.81078 0.0
N418 N 0.42602 0.86603 0.92445 0.0
N419 N 0.409 0.86114 0.89966 0.0
C420 C 0.45913 0.8782 0.87975 0.0
H421 H 0.46357 0.88279 0.93381 0.0
H422 H 0.4674 0.89026 0.84397 0.0
H423 H 0.46228 0.86669 0.86718 0.0
C424 C 0.45459 0.91812 0.12177 0.0
N425 N 0.4456 0.89907 0.11393 0.0
N426 N 0.44236 0.89482 0.0479 0.0
C427 C 0.44878 0.91112 0.01184 0.0
C428 C 0.45699 0.92637 0.0572 0.0
C429 C 0.46142 0.92804 0.18964 0.0
H430 H 0.46952 0.9223 0.21688 0.0
H431 H 0.47063 0.94366 0.18335 0.0
H432 H 0.44894 0.92502 0.22203 0.0
O433 O 0.40911 0.86256 0.1737 0.0
O434 O 0.40509 0.8544 0.06332 0.0
H435 H 0.44661 0.92597 0.92278 0.0
H436 H 0.45682 0.91113 0.90688 0.0
C437 C 0.4457 0.91223 0.93625 0.0
H438 H 0.43148 0.90053 0.92087 0.0
H439 H 0.39699 0.85732 0.93004 0.0
O440 O 0.44289 0.88846 0.27497 0.0
C441 C 0.39835 0.85339 0.12334 0.0
Co442 Co 0.11207 0.55547 0.19453 0.0
Co443 Co 0.1206 0.55875 0.03631 0.0
C444 C 0.13215 0.59329 0.12063 0.0
O445 O 0.12558 0.58292 0.17406 0.0
O446 O 0.13105 0.58601 0.06133 0.0
C447 C 0.10215 0.56483 0.32526 0.0
O448 O 0.10597 0.58085 0.29496 0.0
C449 C 0.1185 0.56426 0.88664 0.0
C450 C 0.12278 0.54112 0.84652 0.0
C451 C 0.11861 0.55503 0.82634 0.0
N452 N 0.12204 0.55583 0.9398 0.0
N453 N 0.12495 0.54229 0.91527 0.0
C454 C 0.11325 0.57942 0.89493 0.0
H455 H 0.10886 0.57983 0.94884 0.0
H456 H 0.10155 0.57693 0.85905 0.0
H457 H 0.12581 0.59347 0.88264 0.0
C458 C 0.07277 0.53072 0.14449 0.0
N459 N 0.09154 0.54212 0.13342 0.0
N460 N 0.09495 0.54338 0.06671 0.0
C461 C 0.07836 0.53263 0.03312 0.0
C462 C 0.0638 0.52428 0.08133 0.0
C463 C 0.06382 0.52581 0.21448 0.0
H464 H 0.07193 0.52134 0.24821 0.0
H465 H 0.06454 0.53867 0.23774 0.0
H466 H 0.04874 0.51421 0.21207 0.0
O467 O 0.12999 0.54577 0.18839 0.0
O468 O 0.13658 0.54916 0.07666 0.0
H469 H 0.08536 0.52595 0.93447 0.0
H470 H 0.06144 0.52202 0.93941 0.0
C471 C 0.07634 0.53138 0.95626 0.0
H472 H 0.08119 0.54577 0.93527 0.0
H473 H 0.1276 0.53327 0.94585 0.0
O474 O 0.10324 0.55203 0.29099 0.0
C475 C 0.13886 0.54435 0.13673 0.0
Co476 Co 0.43622 0.55042 0.18662 0.0
Co477 Co 0.43216 0.55584 0.0288 0.0
C478 C 0.39806 0.53306 0.11499 0.0
O479 O 0.40873 0.53679 0.16756 0.0
O480 O 0.40501 0.53914 0.05525 0.0
C481 C 0.42706 0.53113 0.31729 0.0
O482 O 0.41103 0.51898 0.28698 0.0
C483 C 0.42631 0.54844 0.87882 0.0
C484 C 0.44896 0.57614 0.83901 0.0
C485 C 0.43532 0.55798 0.81853 0.0
N486 N 0.43464 0.56038 0.93222 0.0
N487 N 0.44787 0.577 0.90784 0.0
C488 C 0.41145 0.5279 0.8868 0.0
H489 H 0.41108 0.52314 0.94071 0.0
H490 H 0.41426 0.5189 0.85096 0.0
H491 H 0.39731 0.52612 0.87412 0.0
C492 C 0.46048 0.53564 0.13334 0.0
N493 N 0.44911 0.54312 0.12376 0.0
N494 N 0.44763 0.54545 0.05732 0.0
C495 C 0.45827 0.5397 0.02245 0.0
C496 C 0.46672 0.53329 0.06948 0.0
C497 C 0.46554 0.53132 0.20258 0.0
H498 H 0.4703 0.54387 0.23686 0.0
H499 H 0.45267 0.51927 0.22604 0.0
H500 H 0.47697 0.52762 0.19894 0.0
O501 O 0.44609 0.57807 0.18121 0.0
O502 O 0.44198 0.58135 0.07013 0.0
H503 H 0.46436 0.55376 0.92461 0.0
H504 H 0.46917 0.53432 0.92755 0.0
C505 C 0.45944 0.53932 0.94547 0.0
H506 H 0.44513 0.52947 0.92456 0.0
H507 H 0.45677 0.58869 0.93855 0.0
O508 O 0.4399 0.54492 0.28285 0.0
C509 C 0.4472 0.58841 0.13012 0.0
Co510 Co 0.54374 0.76799 0.12735 0.0
Co511 Co 0.53365 0.76296 0.28392 0.0
C512 C 0.52191 0.78486 0.19447 0.0
O513 O 0.52938 0.78139 0.1428 0.0
O514 O 0.52257 0.77886 0.25463 0.0
C515 C 0.55533 0.7868 -0.0041 0.0
O516 O 0.55366 0.80054 0.02499 0.0
C517 C 0.53198 0.7686 0.43512 0.0
C518 C 0.53213 0.74285 0.47184 0.0
C519 C 0.53257 0.75927 0.49451 0.0
N520 N 0.53174 0.7583 0.38025 0.0
N521 N 0.53152 0.74281 0.40278 0.0
C522 C 0.53123 0.78665 0.43008 0.0
H523 H 0.52347 0.78655 0.38297 0.0
H524 H 0.54592 0.79897 0.42686 0.0
H525 H 0.5241 0.78845 0.47598 0.0
C526 C 0.58281 0.78421 0.18331 0.0
N527 N 0.56382 0.77607 0.19105 0.0
N528 N 0.55965 0.77424 0.25716 0.0
C529 C 0.57592 0.78126 0.29376 0.0
C530 C 0.5911 0.7877 0.24822 0.0
C531 C 0.59262 0.78817 0.11497 0.0
H532 H 0.58482 0.77566 0.0806 0.0
H533 H 0.59243 0.80046 0.09058 0.0
H534 H 0.60759 0.79146 0.12042 0.0
O535 O 0.52641 0.74032 0.13344 0.0
O536 O 0.51869 0.73719 0.24395 0.0
H537 H 0.57088 0.76891 0.39439 0.0
H538 H 0.59183 0.79225 0.38911 0.0
C539 C 0.57701 0.78323 0.37063 0.0
H540 H 0.5686 0.78982 0.38763 0.0
H541 H 0.53159 0.73249 0.37076 0.0
O542 O 0.55288 0.77266 0.03188 0.0
C543 C 0.5172 0.73001 0.18447 0.0
Co544 Co 0.21865 0.77301 0.1232 0.0
Co545 Co 0.22385 0.76886 0.28015 0.0
C546 C 0.20167 0.73472 0.19297 0.0
O547 O 0.20508 0.74532 0.14035 0.0
O548 O 0.20785 0.74175 0.25258 0.0
C549 C 0.19962 0.76545 0.99191 0.0
O550 O 0.18566 0.75037 0.02172 0.0
C551 C 0.21847 0.76208 0.4316 0.0
C552 C 0.24434 0.78804 0.46735 0.0
C553 C 0.22802 0.77207 0.49056 0.0
N554 N 0.22858 0.77206 0.37634 0.0
N555 N 0.2441 0.78738 0.39828 0.0
C556 C 0.20041 0.74329 0.42741 0.0
H557 H 0.20036 0.73548 0.38049 0.0
H558 H 0.1881 0.74568 0.42446 0.0
H559 H 0.19873 0.73448 0.47356 0.0
C560 C 0.20264 0.79634 0.17662 0.0
N561 N 0.21072 0.78547 0.18554 0.0
N562 N 0.2126 0.78347 0.25189 0.0
C563 C 0.20565 0.79295 0.28749 0.0
C564 C 0.19922 0.8015 0.241 0.0
C565 C 0.19869 0.80189 0.10766 0.0
H566 H 0.21113 0.80626 0.07328 0.0
H567 H 0.18629 0.78936 0.08399 0.0
H568 H 0.19559 0.81373 0.11201 0.0
O569 O 0.24633 0.7833 0.12928 0.0
O570 O 0.24959 0.77943 0.24033 0.0
H571 H 0.2181 0.8009 0.38785 0.0
H572 H 0.19467 0.7983 0.38202 0.0
C573 C 0.20377 0.7925 0.36435 0.0
H574 H 0.19732 0.7776 0.38246 0.0
H575 H 0.25433 0.79769 0.36586 0.0
O576 O 0.21394 0.77703 0.02737 0.0
C577 C 0.25671 0.78474 0.18059 0.0
Co578 Co 0.21851 0.44457 0.13746 0.0
Co579 Co 0.22449 0.45613 0.29332 0.0
C580 C 0.25742 0.46545 0.20133 0.0
O581 O 0.24629 0.45793 0.15022 0.0
O582 O 0.25105 0.46566 0.26126 0.0
C583 C 0.22428 0.43197 0.00541 0.0
O584 O 0.2394 0.43286 0.03397 0.0
C585 C 0.23204 0.4561 0.44345 0.0
C586 C 0.2115 0.46411 0.48379 0.0
C587 C 0.22442 0.45861 0.50437 0.0
N588 N 0.22355 0.45951 0.39003 0.0
N589 N 0.21154 0.46457 0.41471 0.0
C590 C 0.24747 0.4512 0.43545 0.0
H591 H 0.25478 0.45638 0.38526 0.0
H592 H 0.24122 0.43552 0.43686 0.0
H593 H 0.25798 0.45756 0.47796 0.0
C594 C 0.19522 0.40612 0.19843 0.0
N595 N 0.20632 0.42516 0.20394 0.0
N596 N 0.20838 0.43003 0.26951 0.0
C597 C 0.19826 0.41422 0.30776 0.0
C598 C 0.18983 0.39857 0.2642 0.0
C599 C 0.19093 0.39551 0.13164 0.0
H600 H 0.20443 0.39989 0.10366 0.0
H601 H 0.18333 0.37987 0.13951 0.0
H602 H 0.18212 0.39939 0.09906 0.0
O603 O 0.20933 0.46299 0.14294 0.0
O604 O 0.21457 0.47167 0.25257 0.0
H605 H 0.18331 0.40038 0.40176 0.0
H606 H 0.20858 0.41604 0.41047 0.0
C607 C 0.19559 0.41404 0.38421 0.0
H608 H 0.19301 0.42574 0.39926 0.0
H609 H 0.20286 0.46772 0.38428 0.0
O610 O 0.213 0.43488 0.04218 0.0
C611 C 0.20887 0.47292 0.19285 0.0
H612 H 0.17104 0.13318 0.636 0.0
H613 H 0.13171 0.17852 0.35961 0.0
H614 H 0.18023 0.13323 0.41651 0.0
H615 H 0.12958 0.18492 0.5801 0.0
H616 H 0.14893 0.16126 0.37887 0.0
H617 H 0.15512 0.1516 0.61611 0.0
C618 C 0.16975 0.13707 0.58369 0.0
C619 C 0.17697 0.13161 0.5279 0.0
C620 C 0.14473 0.16652 0.42294 0.0
C621 C 0.15871 0.15264 0.5047 0.0
C622 C 0.13488 0.17634 0.41196 0.0
C623 C 0.12916 0.18317 0.46826 0.0
C624 C 0.14877 0.16342 0.49066 0.0
C625 C 0.13371 0.17997 0.53502 0.0
C626 C 0.16068 0.14761 0.57234 0.0
C627 C 0.1749 0.13711 0.46117 0.0
N628 N 0.14317 0.17028 0.54432 0.0
N629 N 0.16591 0.14726 0.45144 0.0
H630 H 0.85627 0.04844 0.4153 0.0
H631 H 0.80214 0.94488 0.58459 0.0
H632 H 0.85295 0.03896 0.63534 0.0
H633 H 0.81299 0.95495 0.36615 0.0
H634 H 0.81898 0.97917 0.60412 0.0
H635 H 0.83872 0.01422 0.39684 0.0
C636 C 0.85181 0.03917 0.45993 0.0
C637 C 0.85612 0.04664 0.52714 0.0
C638 C 0.81769 0.97389 0.55195 0.0
C639 C 0.83596 0.00724 0.50596 0.0
C640 C 0.80803 0.95428 0.5406 0.0
C641 C 0.80616 0.94698 0.47349 0.0
C642 C 0.82548 0.98633 0.49583 0.0
C643 C 0.81411 0.95991 0.41872 0.0
C644 C 0.84181 0.01958 0.44919 0.0
C645 C 0.84999 0.03384 0.58269 0.0
N646 N 0.82341 0.97896 0.43113 0.0
N647 N 0.84019 0.01474 0.57084 0.0
H648 H 0.93837 0.80517 0.41315 0.0
H649 H 0.0431 0.85632 0.57284 0.0
H650 H 0.94979 0.8153 0.63134 0.0
H651 H 0.03173 0.85561 0.35484 0.0
H652 H 0.00897 0.83901 0.59495 0.0
H653 H 0.97247 0.82132 0.39115 0.0
C654 C 0.94803 0.81076 0.45659 0.0
C655 C 0.94117 0.8089 0.52434 0.0
C656 C 0.01393 0.84264 0.5423 0.0
C657 C 0.98034 0.82745 0.49913 0.0
C658 C 0.03344 0.85249 0.52947 0.0
C659 C 0.04033 0.8575 0.46174 0.0
C660 C 0.00115 0.83763 0.48707 0.0
C661 C 0.02708 0.85212 0.40783 0.0
C662 C 0.96753 0.82003 0.44382 0.0
C663 C 0.95443 0.81646 0.57833 0.0
N664 N 0.00811 0.84246 0.42169 0.0
N665 N 0.9734 0.8254 0.56453 0.0
H666 H 0.80882 0.86445 0.59212 0.0
H667 H 0.85948 0.81325 0.40929 0.0
H668 H 0.81825 0.86612 0.37235 0.0
H669 H 0.86112 0.82246 0.62923 0.0
H670 H 0.84363 0.83193 0.39468 0.0
H671 H 0.82726 0.84834 0.60701 0.0
C672 C 0.81481 0.86149 0.54704 0.0
C673 C 0.81191 0.86658 0.48087 0.0
C674 C 0.84756 0.82995 0.44609 0.0
C675 C 0.83293 0.84808 0.49753 0.0
C676 C 0.85657 0.81925 0.45448 0.0
C677 C 0.86157 0.81622 0.5206 0.0
C678 C 0.84336 0.83752 0.50426 0.0
C679 C 0.85751 0.82441 0.57727 0.0
C680 C 0.82537 0.85234 0.55559 0.0
C681 C 0.82008 0.86245 0.42434 0.0
N682 N 0.84853 0.83458 0.56783 0.0
N683 N 0.83011 0.85334 0.43394 0.0
H684 H 0.16231 0.03715 0.6265 0.0
H685 H 0.1186 0.95075 0.35791 0.0
H686 H 0.17 0.04449 0.40597 0.0
H687 H 0.12218 0.94347 0.57705 0.0
H688 H 0.1337 0.98508 0.37539 0.0
H689 H 0.14377 0.00271 0.60963 0.0
C690 C 0.16 0.03155 0.57447 0.0
C691 C 0.16783 0.04373 0.51754 0.0
C692 C 0.13114 0.97596 0.41965 0.0
C693 C 0.14664 0.00434 0.49805 0.0
C694 C 0.12248 0.95634 0.40979 0.0
C695 C 0.11923 0.9442 0.4661 0.0
C696 C 0.1365 0.98352 0.48631 0.0
C697 C 0.12453 0.95229 0.5321 0.0
C698 C 0.14947 0.01188 0.56496 0.0
C699 C 0.16435 0.03564 0.45138 0.0
N700 N 0.13294 0.97147 0.54037 0.0
N701 N 0.15404 0.01644 0.44347 0.0
H702 H 0.94224 0.12769 0.40336 0.0
H703 H 0.04299 0.17823 0.5941 0.0
H704 H 0.94861 0.12692 0.62432 0.0
H705 H 0.03649 0.17053 0.37332 0.0
H706 H 0.00842 0.15938 0.60643 0.0
H707 H 0.9768 0.14336 0.39129 0.0
C708 C 0.95088 0.13075 0.44932 0.0
C709 C 0.9425 0.12607 0.51496 0.0
C710 C 0.01458 0.16173 0.55534 0.0
C711 C 0.98207 0.14408 0.50152 0.0
C712 C 0.03432 0.17252 0.54825 0.0
C713 C 0.04266 0.17606 0.48256 0.0
C714 C 0.0031 0.15457 0.49631 0.0
C715 C 0.0307 0.16822 0.425 0.0
C716 C 0.97062 0.13966 0.44238 0.0
C717 C 0.95443 0.13029 0.57267 0.0
N718 N 0.01153 0.15795 0.43321 0.0
N719 N 0.97362 0.13917 0.56461 0.0
H720 H 0.84285 0.4687 0.97904 0.0
H721 H 0.80238 0.51183 0.69872 0.0
H722 H 0.85306 0.46917 0.76017 0.0
H723 H 0.80076 0.51984 0.91841 0.0
H724 H 0.82031 0.49542 0.71995 0.0
H725 H 0.82656 0.48673 0.95772 0.0
C726 C 0.8417 0.4726 0.92659 0.0
C727 C 0.84929 0.46736 0.87136 0.0
C728 C 0.81608 0.50084 0.76342 0.0
C729 C 0.83064 0.48793 0.84657 0.0
C730 C 0.80583 0.5102 0.75132 0.0
C731 C 0.8 0.51718 0.80681 0.0
C732 C 0.8204 0.49835 0.83148 0.0
C733 C 0.80491 0.51468 0.87394 0.0
C734 C 0.83244 0.48293 0.91444 0.0
C735 C 0.84743 0.47288 0.80442 0.0
N736 N 0.81474 0.5054 0.88437 0.0
N737 N 0.83823 0.48278 0.79391 0.0
H738 H 0.46909 0.27553 0.91196 0.0
H739 H 0.52284 0.37911 0.74288 0.0
H740 H 0.47693 0.28501 0.69222 0.0
H741 H 0.52251 0.36883 0.96161 0.0
H742 H 0.50429 0.34486 0.72338 0.0
H743 H 0.4868 0.30976 0.93061 0.0
C744 C 0.47448 0.2848 0.86745 0.0
C745 C 0.4715 0.27734 0.80026 0.0
C746 C 0.50828 0.35009 0.77561 0.0
C747 C 0.49192 0.31671 0.82164 0.0
C748 C 0.51885 0.36967 0.78693 0.0
C749 C 0.52429 0.37689 0.85412 0.0
C750 C 0.503 0.3376 0.83182 0.0
C751 C 0.51869 0.36392 0.90899 0.0
C752 C 0.48467 0.30439 0.87829 0.0
C753 C 0.47892 0.29012 0.74485 0.0
N754 N 0.50833 0.34489 0.8966 0.0
N755 N 0.48879 0.30922 0.75679 0.0
H756 H 0.70035 0.19449 0.68426 0.0
H757 H 0.61684 0.15045 0.96619 0.0
H758 H 0.71009 0.19477 0.90342 0.0
H759 H 0.60714 0.14481 0.74619 0.0
H760 H 0.65119 0.16815 0.94447 0.0
H761 H 0.66602 0.17754 0.70614 0.0
C762 C 0.6953 0.19101 0.73688 0.0
C763 C 0.70814 0.19602 0.79198 0.0
C764 C 0.6415 0.16301 0.90102 0.0
C765 C 0.66894 0.17669 0.81744 0.0
C766 C 0.62191 0.15295 0.91343 0.0
C767 C 0.60908 0.14607 0.85802 0.0
C768 C 0.64828 0.16629 0.83277 0.0
C769 C 0.61646 0.14972 0.79063 0.0
C770 C 0.67571 0.18132 0.74937 0.0
C771 C 0.70076 0.19113 0.85919 0.0
N772 N 0.63555 0.15957 0.77996 0.0
N773 N 0.68168 0.18176 0.86998 0.0
H774 H 0.47195 0.19344 0.92356 0.0
H775 H 0.52496 0.14508 0.7362 0.0
H776 H 0.48177 0.19607 0.70384 0.0
H777 H 0.52483 0.15181 0.95716 0.0
H778 H 0.50814 0.16285 0.7235 0.0
H779 H 0.4904 0.17728 0.9373 0.0
C780 C 0.47801 0.19067 0.87826 0.0
C781 C 0.47525 0.19608 0.81244 0.0
C782 C 0.51186 0.1605 0.77475 0.0
C783 C 0.49628 0.17754 0.82778 0.0
C784 C 0.52143 0.15032 0.78204 0.0
C785 C 0.52629 0.14692 0.84784 0.0
C786 C 0.50697 0.16721 0.83368 0.0
C787 C 0.52139 0.15411 0.9054 0.0
C788 C 0.48856 0.18148 0.88616 0.0
C789 C 0.48349 0.19216 0.7556 0.0
N790 N 0.51192 0.16384 0.89699 0.0
N791 N 0.49354 0.18306 0.76457 0.0
H792 H 0.79116 0.27855 0.91833 0.0
H793 H 0.84426 0.38195 0.74762 0.0
H794 H 0.79107 0.28828 0.69937 0.0
H795 H 0.83452 0.37248 0.96671 0.0
H796 H 0.82534 0.34761 0.72884 0.0
H797 H 0.80765 0.31295 0.93723 0.0
C798 C 0.79456 0.2879 0.87424 0.0
C799 C 0.78978 0.28051 0.80713 0.0
C800 C 0.82726 0.35306 0.78098 0.0
C801 C 0.80871 0.31987 0.82842 0.0
C802 C 0.8381 0.37267 0.79176 0.0
C803 C 0.84105 0.38011 0.85887 0.0
C804 C 0.81946 0.3408 0.83772 0.0
C805 C 0.83264 0.36739 0.91408 0.0
C806 C 0.80393 0.30753 0.8851 0.0
C807 C 0.79448 0.29332 0.752 0.0
N808 N 0.82233 0.34834 0.9023 0.0
N809 N 0.80378 0.31238 0.76385 0.0
H810 H 0.61149 0.45874 0.73644 0.0
H811 H 0.71218 0.50753 0.92629 0.0
H812 H 0.61817 0.45458 0.95566 0.0
H813 H 0.70596 0.50219 0.70485 0.0
H814 H 0.67768 0.48797 0.93794 0.0
H815 H 0.64606 0.47452 0.72332 0.0
C816 C 0.6202 0.46105 0.78175 0.0
C817 C 0.61192 0.45544 0.84731 0.0
C818 C 0.68388 0.49097 0.88682 0.0
C819 C 0.65145 0.47356 0.83269 0.0
C820 C 0.70358 0.50218 0.88013 0.0
C821 C 0.71197 0.5066 0.8145 0.0
C822 C 0.67246 0.4843 0.82746 0.0
C823 C 0.70011 0.49917 0.75649 0.0
C824 C 0.63993 0.47002 0.7742 0.0
C825 C 0.62391 0.45871 0.90414 0.0
N826 N 0.68093 0.48851 0.76433 0.0
N827 N 0.64307 0.46768 0.89556 0.0
H828 H 0.46534 0.84079 0.01109 0.0
H829 H 0.50594 0.79747 0.29103 0.0
H830 H 0.46305 0.84771 0.2312 0.0
H831 H 0.5152 0.79705 0.07177 0.0
H832 H 0.48912 0.81496 0.26966 0.0
H833 H 0.48261 0.82363 0.03176 0.0
C834 C 0.46845 0.83871 0.06365 0.0
C835 C 0.46275 0.84572 0.11941 0.0
C836 C 0.49488 0.81106 0.22626 0.0
C837 C 0.48242 0.82612 0.14342 0.0
C838 C 0.50446 0.80106 0.23846 0.0
C839 C 0.51199 0.79576 0.18319 0.0
C840 C 0.49271 0.81571 0.15829 0.0
C841 C 0.50966 0.80084 0.11608 0.0
C842 C 0.47833 0.82895 0.07543 0.0
C843 C 0.46721 0.84264 0.18649 0.0
N844 N 0.50018 0.81048 0.10553 0.0
N845 N 0.47673 0.83305 0.19656 0.0
H846 H 0.18922 0.70684 0.29208 0.0
H847 H 0.14591 0.62095 0.02007 0.0
H848 H 0.1889 0.71493 0.07199 0.0
H849 H 0.14004 0.61332 0.24097 0.0
H850 H 0.16221 0.65549 0.03745 0.0
H851 H 0.17162 0.67241 0.27392 0.0
C852 C 0.18544 0.7014 0.24 0.0
C853 C 0.1906 0.71382 0.18354 0.0
C854 C 0.15728 0.64621 0.08202 0.0
C855 C 0.1705 0.67442 0.1623 0.0
C856 C 0.148 0.62651 0.07211 0.0
C857 C 0.14161 0.6142 0.12908 0.0
C858 C 0.16026 0.65363 0.14934 0.0
C859 C 0.14467 0.62221 0.1954 0.0
C860 C 0.17536 0.68173 0.22962 0.0
C861 C 0.18525 0.70593 0.11714 0.0
N862 N 0.15382 0.64139 0.20365 0.0
N863 N 0.17556 0.68674 0.10837 0.0
H864 H 0.36968 0.51958 0.01697 0.0
H865 H 0.28611 0.48046 0.29743 0.0
H866 H 0.37888 0.52127 0.23694 0.0
H867 H 0.27601 0.47099 0.07841 0.0
H868 H 0.32032 0.49603 0.27567 0.0
H869 H 0.33526 0.50219 0.03767 0.0
C870 C 0.3645 0.51626 0.06948 0.0
C871 C 0.37721 0.52194 0.12523 0.0
C872 C 0.31061 0.49048 0.2324 0.0
C873 C 0.33795 0.50216 0.14927 0.0
C874 C 0.29107 0.48162 0.24483 0.0
C875 C 0.27816 0.47446 0.18972 0.0
C876 C 0.31729 0.4923 0.16436 0.0
C877 C 0.28542 0.47631 0.12256 0.0
C878 C 0.34486 0.50632 0.08128 0.0
C879 C 0.36967 0.5172 0.19224 0.0
N880 N 0.3045 0.48512 0.11176 0.0
N881 N 0.35058 0.50768 0.20233 0.0
H882 H 0.15048 0.53582 0.2576 0.0
H883 H 0.19766 0.48176 0.07152 0.0
H884 H 0.15573 0.53405 0.03639 0.0
H885 H 0.20165 0.49283 0.2906 0.0
H886 H 0.18255 0.50114 0.05722 0.0
H887 H 0.16951 0.52033 0.27068 0.0
C888 C 0.15571 0.53227 0.21179 0.0
C889 C 0.15139 0.53614 0.1458 0.0
C890 C 0.18686 0.49943 0.10834 0.0
C891 C 0.17309 0.51831 0.16041 0.0
C892 C 0.19546 0.48833 0.11656 0.0
C893 C 0.20082 0.48555 0.18241 0.0
C894 C 0.18346 0.50766 0.16644 0.0
C895 C 0.19769 0.49451 0.23886 0.0
C896 C 0.16661 0.52345 0.2193 0.0
C897 C 0.15865 0.5313 0.08829 0.0
N898 N 0.18909 0.50504 0.22963 0.0
N899 N 0.16902 0.5225 0.09693 0.0
H900 H 0.5072 0.70973 0.06372 0.0
H901 H 0.45716 0.6086 0.25122 0.0
H902 H 0.49953 0.70291 0.28438 0.0
H903 H 0.45613 0.61552 0.03066 0.0
H904 H 0.47254 0.64313 0.26467 0.0
H905 H 0.48839 0.67518 0.05057 0.0
C906 C 0.50151 0.70098 0.10939 0.0
C907 C 0.50504 0.70923 0.17528 0.0
C908 C 0.46883 0.63707 0.21338 0.0
C909 C 0.48356 0.66968 0.16059 0.0
C910 C 0.46008 0.61736 0.20565 0.0
C911 C 0.45545 0.60915 0.13969 0.0
C912 C 0.47313 0.64866 0.15471 0.0
C913 C 0.45949 0.6212 0.08252 0.0
C914 C 0.49073 0.68126 0.10183 0.0
C915 C 0.4972 0.69718 0.23258 0.0
N916 N 0.46822 0.64036 0.09134 0.0
N917 N 0.48695 0.67801 0.22392 0.0
H918 H 0.37842 0.84525 0.24488 0.0
H919 H 0.27684 0.79412 0.05962 0.0
H920 H 0.37081 0.83519 0.02534 0.0
H921 H 0.28395 0.79498 0.2806 0.0
H922 H 0.31134 0.80956 0.04614 0.0
H923 H 0.34385 0.82721 0.25936 0.0
C924 C 0.36951 0.83921 0.19976 0.0
C925 C 0.37754 0.84182 0.13376 0.0
C926 C 0.30534 0.80628 0.09757 0.0
C927 C 0.338 0.82125 0.14996 0.0
C928 C 0.28564 0.7975 0.10531 0.0
C929 C 0.27748 0.79331 0.17135 0.0
C930 C 0.317 0.81106 0.15628 0.0
C931 C 0.28961 0.79794 0.22868 0.0
C932 C 0.34977 0.82888 0.20809 0.0
C933 C 0.36527 0.83359 0.07721 0.0
N934 N 0.30876 0.80668 0.21982 0.0
N935 N 0.34613 0.82378 0.08658 0.0
H936 H 0.15514 0.29004 0.45571 0.0
H937 H 0.1544 0.37115 0.22187 0.0
H938 H 0.10614 0.28148 0.33972 0.0
H939 H 0.20094 0.38059 0.35476 0.0
H940 H 0.13644 0.33806 0.26273 0.0
H941 H 0.172 0.32351 0.42046 0.0
C942 C 0.14791 0.29535 0.42343 0.0
C943 C 0.12937 0.28313 0.4 0.0
C944 C 0.15058 0.34738 0.28297 0.0
C945 C 0.14852 0.32114 0.35851 0.0
C946 C 0.16083 0.36614 0.25928 0.0
C947 C 0.17908 0.37842 0.2851 0.0
C948 C 0.15877 0.34096 0.3325 0.0
C949 C 0.18682 0.37148 0.33399 0.0
C950 C 0.15752 0.31438 0.40294 0.0
C951 C 0.12055 0.29053 0.35804 0.0
N952 N 0.17663 0.3532 0.35611 0.0
N953 N 0.13026 0.30907 0.3381 0.0
H954 H 0.60895 0.77517 0.33469 0.0
H955 H 0.70956 0.87148 0.30585 0.0
H956 H 0.61927 0.82214 0.20269 0.0
H957 H 0.69923 0.82559 0.44362 0.0
H958 H 0.67666 0.85321 0.26541 0.0
H959 H 0.64227 0.79274 0.37225 0.0
C960 C 0.61835 0.78916 0.31338 0.0
C961 C 0.6115 0.79733 0.26591 0.0
C962 C 0.68151 0.8471 0.30461 0.0
C963 C 0.64942 0.8175 0.30842 0.0
C964 C 0.70025 0.85753 0.32765 0.0
C965 C 0.70696 0.84995 0.37799 0.0
C966 C 0.6694 0.82894 0.33215 0.0
C967 C 0.69444 0.83192 0.40508 0.0
C968 C 0.6373 0.79919 0.33481 0.0
C969 C 0.62412 0.81537 0.23918 0.0
N970 N 0.67622 0.82196 0.38166 0.0
N971 N 0.64249 0.82492 0.26109 0.0
H972 H 0.21194 0.83227 0.32579 0.0
H973 H 0.11631 0.83766 0.29132 0.0
H974 H 0.16495 0.79542 0.1941 0.0
H975 H 0.16222 0.87344 0.42881 0.0
H976 H 0.13443 0.82272 0.25233 0.0
H977 H 0.19468 0.84857 0.36075 0.0
C978 C 0.19801 0.82774 0.30402 0.0
C979 C 0.18974 0.81251 0.25738 0.0
C980 C 0.14058 0.83381 0.2911 0.0
C981 C 0.16995 0.83092 0.29687 0.0
C982 C 0.13025 0.84231 0.31327 0.0
C983 C 0.13785 0.85672 0.36323 0.0
C984 C 0.15868 0.83979 0.31915 0.0
C985 C 0.15586 0.86223 0.39057 0.0
C986 C 0.18817 0.83699 0.32394 0.0
C987 C 0.17179 0.8072 0.22997 0.0
N988 N 0.16572 0.85375 0.36807 0.0
N989 N 0.16243 0.81634 0.25041 0.0
H990 H 0.36357 0.1571 0.79596 0.0
H991 H 0.27079 0.10423 0.66894 0.0
H992 H 0.37186 0.19757 0.63655 0.0
H993 H 0.2835 0.15496 0.55586 0.0
H994 H 0.30387 0.11935 0.70667 0.0
H995 H 0.33016 0.13817 0.76294 0.0
C996 C 0.35826 0.16193 0.75387 0.0
C997 C 0.37037 0.17883 0.7188 0.0
C998 C 0.29956 0.1274 0.67446 0.0
C999 C 0.33235 0.15693 0.67827 0.0
C1000 C 0.28068 0.11863 0.6523 0.0
C1001 C 0.27456 0.1285 0.6099 0.0
C1002 C 0.31231 0.14629 0.65447 0.0
C1003 C 0.28779 0.14695 0.58866 0.0
C1004 C 0.33922 0.15096 0.73406 0.0
C1005 C 0.36295 0.18448 0.66434 0.0
N1006 N 0.30605 0.15531 0.6115 0.0
N1007 N 0.34443 0.17356 0.64579 0.0
H1008 H 0.78388 0.17388 0.62362 0.0
H1009 H 0.87882 0.16736 0.65932 0.0
H1010 H 0.82811 0.20673 0.77108 0.0
H1011 H 0.83028 0.12832 0.53812 0.0
H1012 H 0.86182 0.18403 0.6932 0.0
H1013 H 0.80184 0.15875 0.58482 0.0
C1014 C 0.7974 0.17784 0.64783 0.0
C1015 C 0.80458 0.19147 0.70059 0.0
C1016 C 0.85491 0.17187 0.65899 0.0
C1017 C 0.82523 0.17434 0.65659 0.0
C1018 C 0.8646 0.16242 0.63963 0.0
C1019 C 0.85578 0.14642 0.59655 0.0
C1020 C 0.83634 0.1653 0.63455 0.0
C1021 C 0.8375 0.14064 0.57145 0.0
C1022 C 0.80763 0.16922 0.62579 0.0
C1023 C 0.82208 0.19611 0.73068 0.0
N1024 N 0.82832 0.15003 0.59109 0.0
N1025 N 0.83187 0.18758 0.70809 0.0
H1026 H 0.82146 0.6234 0.79868 0.0
H1027 H 0.8198 0.70263 0.55609 0.0
H1028 H 0.77517 0.61171 0.66082 0.0
H1029 H 0.86581 0.71357 0.6943 0.0
H1030 H 0.80272 0.66935 0.59497 0.0
H1031 H 0.83727 0.65694 0.76464 0.0
C1032 C 0.81456 0.62801 0.7618 0.0
C1033 C 0.7971 0.61492 0.7322 0.0
C1034 C 0.81655 0.67903 0.61681 0.0
C1035 C 0.8151 0.65304 0.69212 0.0
C1036 C 0.8263 0.69792 0.59431 0.0
C1037 C 0.84416 0.71068 0.62211 0.0
C1038 C 0.82482 0.67298 0.66734 0.0
C1039 C 0.85198 0.7041 0.67204 0.0
C1040 C 0.82361 0.64709 0.74198 0.0
C1041 C 0.78876 0.62146 0.68418 0.0
N1042 N 0.84226 0.68569 0.69309 0.0
N1043 N 0.79788 0.64008 0.66529 0.0
H1044 H 0.04526 0.4913 0.00748 0.0
H1045 H 0.94407 0.48563 0.0389 0.0
H1046 H 0.0359 0.53126 0.12348 0.0
H1047 H 0.9547 0.45042 0.90008 0.0
H1048 H 0.97717 0.50086 0.07754 0.0
H1049 H 0.01147 0.47417 0.97532 0.0
C1050 C 0.03598 0.49634 0.02641 0.0
C1051 C 0.04323 0.51272 0.06749 0.0
C1052 C 0.97233 0.48983 0.03856 0.0
C1053 C 0.0048 0.49335 0.03143 0.0
C1054 C 0.95347 0.48115 0.01663 0.0
C1055 C 0.94682 0.46685 0.96631 0.0
C1056 C 0.9846 0.48411 0.01001 0.0
C1057 C 0.95945 0.46155 0.93861 0.0
C1058 C 0.01677 0.48662 0.00806 0.0
C1059 C 0.03075 0.51864 0.09168 0.0
N1060 N 0.9778 0.47019 0.96093 0.0
N1061 N 0.01213 0.50901 0.07298 0.0
H1062 H 0.49977 0.54812 -0.00389 0.0
H1063 H 0.50466 0.45196 0.0151 0.0
H1064 H 0.45945 0.49803 0.10736 0.0
H1065 H 0.5417 0.49957 0.88633 0.0
H1066 H 0.48902 0.46938 0.05438 0.0
H1067 H 0.51681 0.53156 0.96125 0.0
C1068 C 0.49463 0.53365 0.01341 0.0
C1069 C 0.47819 0.52428 0.05398 0.0
C1070 C 0.50053 0.47606 0.01741 0.0
C1071 C 0.49744 0.50531 0.01477 0.0
C1072 C 0.50942 0.46611 0.99506 0.0
C1073 C 0.52439 0.47441 0.94753 0.0
C1074 C 0.50671 0.49446 0.99209 0.0
C1075 C 0.53007 0.4927 0.92269 0.0
C1076 C 0.50429 0.52421 0.99352 0.0
C1077 C 0.47212 0.50567 0.076 0.0
N1078 N 0.52123 0.50218 0.94542 0.0
N1079 N 0.4817 0.49674 0.0558 0.0
H1080 H 0.53142 0.03608 0.87335 0.0
H1081 H 0.45065 0.9542 0.10795 0.0
H1082 H 0.49147 0.04417 0.99465 0.0
H1083 H 0.48537 0.94444 0.96392 0.0
H1084 H 0.46627 0.98764 0.07111 0.0
H1085 H 0.51504 0.00247 0.90736 0.0
C1086 C 0.51906 0.03065 0.90665 0.0
C1087 C 0.51279 0.04277 0.93179 0.0
C1088 C 0.47048 0.97818 0.04759 0.0
C1089 C 0.49419 0.00462 0.97172 0.0
C1090 C 0.46169 0.95921 0.06899 0.0
C1091 C 0.46684 0.94673 0.03886 0.0
C1092 C 0.48454 0.98462 -0.00402 0.0
C1093 C 0.48101 0.9537 0.98804 0.0
C1094 C 0.50979 0.01155 0.92638 0.0
C1095 C 0.49681 0.03522 0.97502 0.0
N1096 N 0.48939 0.9722 0.96818 0.0
N1097 N 0.48811 0.01661 0.99407 0.0
H1098 H 0.10236 0.23823 0.73803 0.0
H1099 H 0.11955 0.19948 0.09274 0.0
H1100 H 0.1401 0.21529 0.75697 0.0
H1101 H 0.08566 0.22669 0.07151 0.0
H1102 H 0.12996 0.20783 0.9729 0.0
H1103 H 0.09904 0.23722 0.86301 0.0
C1104 C 0.11014 0.23319 0.76863 0.0
C1105 C 0.12131 0.22659 0.73709 0.0
C1106 C 0.12043 0.21217 0.99486 0.0
C1107 C 0.11737 0.22511 0.88031 0.0
C1108 C 0.11458 0.2075 0.06339 0.0
C1109 C 0.10176 0.21245 0.09216 0.0
C1110 C 0.1133 0.22172 0.95504 0.0
C1111 C 0.09541 0.22242 0.05117 0.0
C1112 C 0.10823 0.23259 0.84006 0.0
C1113 C 0.13125 0.22041 0.77925 0.0
N1114 N 0.10116 0.22663 0.98474 0.0
N1115 N 0.12882 0.21955 0.84879 0.0
H1116 H 0.75671 0.91642 0.75441 0.0
H1117 H 0.80419 0.88662 0.0466 0.0
H1118 H 0.76788 0.86981 0.73356 0.0
H1119 H 0.76361 0.90408 0.10301 0.0
H1120 H 0.79591 0.88659 0.92602 0.0
H1121 H 0.76272 0.91709 0.87909 0.0
C1122 C 0.76014 0.90618 0.77604 0.0
C1123 C 0.76195 0.89314 0.73338 0.0
C1124 C 0.78896 0.89061 0.96491 0.0
C1125 C 0.76928 0.89424 0.87446 0.0
C1126 C 0.79374 0.89074 0.03375 0.0
C1127 C 0.78474 0.89552 0.08544 0.0
C1128 C 0.77518 0.89546 0.94706 0.0
C1129 C 0.77133 0.90078 0.0653 0.0
C1130 C 0.76359 0.90662 0.84692 0.0
C1131 C 0.76641 0.88018 0.76415 0.0
N1132 N 0.76694 0.90063 -0.00258 0.0
N1133 N 0.77021 0.88127 0.83255 0.0
H1134 H 0.11952 0.89718 0.71844 0.0
H1135 H 0.08249 0.85724 0.09144 0.0
H1136 H 0.07147 0.84028 0.74087 0.0
H1137 H 0.10076 0.91518 0.03068 0.0
H1138 H 0.08249 0.849 0.97002 0.0
H1139 H 0.11865 0.90207 0.84191 0.0
C1140 C 0.10896 0.88557 0.74939 0.0
C1141 C 0.09536 0.86836 0.71903 0.0
C1142 C 0.08624 0.86342 0.98376 0.0
C1143 C 0.09435 0.87398 0.86049 0.0
C1144 C 0.08598 0.86813 0.05304 0.0
C1145 C 0.09133 0.88693 0.07172 0.0
C1146 C 0.09242 0.87773 0.93353 0.0
C1147 C 0.09657 0.90053 0.01905 0.0
C1148 C 0.10841 0.88846 0.81978 0.0
C1149 C 0.0821 0.85383 0.76214 0.0
N1150 N 0.09718 0.89571 0.95261 0.0
N1151 N 0.08185 0.85698 0.83101 0.0
H1152 H 0.21692 0.13038 0.89158 0.0
H1153 H 0.21819 0.0922 0.26473 0.0
H1154 H 0.18309 0.07127 0.95099 0.0
H1155 H 0.22153 0.14682 0.24124 0.0
H1156 H 0.21309 0.08702 0.1412 0.0
H1157 H 0.22456 0.13895 0.01317 0.0
C1158 C 0.21063 0.11925 0.92987 0.0
C1159 C 0.19897 0.10005 0.91091 0.0
C1160 C 0.21508 0.1002 0.16311 0.0
C1161 C 0.20868 0.10974 0.04901 0.0
C1162 C 0.21813 0.10325 0.23355 0.0
C1163 C 0.21996 0.11984 0.2636 0.0
C1164 C 0.21408 0.11389 0.12209 0.0
C1165 C 0.21998 0.13374 0.22021 0.0
C1166 C 0.21528 0.12417 -0.00084 0.0
C1167 C 0.1921 0.08623 0.96307 0.0
N1168 N 0.21693 0.13041 0.15129 0.0
N1169 N 0.19719 0.09132 0.02956 0.0
H1170 H 0.89936 0.13483 0.92254 0.0
H1171 H 0.84396 0.06746 0.24165 0.0
H1172 H 0.86684 0.07352 0.90739 0.0
H1173 H 0.88372 0.12782 0.25704 0.0
H1174 H 0.84744 0.06978 0.11601 0.0
H1175 H 0.88928 0.13272 0.04186 0.0
C1176 C 0.88999 0.12088 0.9443 0.0
C1177 C 0.88394 0.10431 0.90496 0.0
C1178 C 0.85521 0.08253 0.14693 0.0
C1179 C 0.87235 0.10178 0.04205 0.0
C1180 C 0.85317 0.08125 0.21858 0.0
C1181 C 0.86377 0.09744 0.25984 0.0
C1182 C 0.86786 0.10014 0.11661 0.0
C1183 C 0.87546 0.11493 0.22726 0.0
C1184 C 0.88418 0.1197 0.01243 0.0
C1185 C 0.87163 0.08666 0.93555 0.0
N1186 N 0.8773 0.11578 0.15765 0.0
N1187 N 0.86635 0.08584 0.00266 0.0
H1188 H 0.86201 0.76937 0.26742 0.0
H1189 H 0.8991 0.76655 0.89442 0.0
H1190 H 0.91025 0.7608 0.24519 0.0
H1191 H 0.88081 0.80619 0.95555 0.0
H1192 H 0.89915 0.75833 0.01581 0.0
H1193 H 0.86288 0.77508 0.14395 0.0
C1194 C 0.87261 0.76837 0.23652 0.0
C1195 C 0.88627 0.76487 0.26693 0.0
C1196 C 0.89538 0.76899 0.00215 0.0
C1197 C 0.88728 0.77144 0.12548 0.0
C1198 C 0.89561 0.77395 0.93289 0.0
C1199 C 0.89023 0.78738 0.91433 0.0
C1200 C 0.8892 0.77711 0.05246 0.0
C1201 C 0.88501 0.79574 0.96709 0.0
C1202 C 0.87316 0.77178 0.16613 0.0
C1203 C 0.89958 0.76364 0.22388 0.0
N1204 N 0.88443 0.79033 0.0335 0.0
N1205 N 0.89982 0.76702 0.155 0.0
H1206 H 0.81547 0.56195 0.09237 0.0
H1207 H 0.73818 0.52257 0.3876 0.0
H1208 H 0.75973 0.55619 0.07253 0.0
H1209 H 0.79771 0.55677 0.44061 0.0
H1210 H 0.74646 0.52995 0.26654 0.0
H1211 H 0.81016 0.55678 0.21731 0.0
C1212 C 0.80228 0.55989 0.11425 0.0
C1213 C 0.78791 0.55923 0.07185 0.0
C1214 C 0.75772 0.5357 0.30472 0.0
C1215 C 0.78169 0.55292 0.21314 0.0
C1216 C 0.75304 0.53141 0.37373 0.0
C1217 C 0.76727 0.53886 0.42435 0.0
C1218 C 0.77681 0.54748 0.28586 0.0
C1219 C 0.78631 0.55024 0.40334 0.0
C1220 C 0.79927 0.5569 0.18527 0.0
C1221 C 0.77112 0.55658 0.10291 0.0
N1222 N 0.79057 0.55424 0.33534 0.0
N1223 N 0.76838 0.55324 0.17145 0.0
H1224 H 0.43042 0.19052 0.39991 0.0
H1225 H 0.43478 0.25567 0.08414 0.0
H1226 H 0.45007 0.25055 0.42051 0.0
H1227 H 0.41748 0.19604 0.06776 0.0
H1228 H 0.43614 0.25338 0.20963 0.0
H1229 H 0.42166 0.1917 0.28085 0.0
C1230 C 0.4328 0.20397 0.37936 0.0
C1231 C 0.44102 0.22047 0.42011 0.0
C1232 C 0.43182 0.24076 0.17857 0.0
C1233 C 0.43111 0.22198 0.28319 0.0
C1234 C 0.43096 0.24202 0.10693 0.0
C1235 C 0.42626 0.22607 0.06531 0.0
C1236 C 0.42792 0.22342 0.20865 0.0
C1237 C 0.42141 0.20876 0.0977 0.0
C1238 C 0.42772 0.20462 0.31136 0.0
C1239 C 0.44357 0.23745 0.39111 0.0
N1240 N 0.42255 0.20795 0.1673 0.0
N1241 N 0.4388 0.23782 0.32402 0.0
H1242 H 0.73348 0.20106 0.41245 0.0
H1243 H 0.79026 0.2225 0.05618 0.0
H1244 H 0.79306 0.24238 0.38684 0.0
H1245 H 0.73025 0.18181 0.07535 0.0
H1246 H 0.79221 0.22662 0.18096 0.0
H1247 H 0.73253 0.19079 0.2928 0.0
C1248 C 0.74642 0.20774 0.38216 0.0
C1249 C 0.76339 0.22256 0.40971 0.0
C1250 C 0.77863 0.21663 0.15807 0.0
C1251 C 0.76236 0.21112 0.27282 0.0
C1252 C 0.77753 0.21424 0.08672 0.0
C1253 C 0.76002 0.20198 0.05513 0.0
C1254 C 0.76207 0.20682 0.1983 0.0
C1255 C 0.74403 0.19152 0.09747 0.0
C1256 C 0.74585 0.20196 0.31373 0.0
C1257 C 0.77961 0.23102 0.36753 0.0
N1258 N 0.74538 0.19435 0.16686 0.0
N1259 N 0.77868 0.22523 0.30132 0.0
H1260 H 0.88834 0.42724 0.61143 0.0
H1261 H 0.89137 0.46643 0.23699 0.0
H1262 H 0.89703 0.48404 0.58688 0.0
H1263 H 0.8517 0.4086 0.29876 0.0
H1264 H 0.89958 0.47486 0.35824 0.0
H1265 H 0.88266 0.42208 0.488 0.0
C1266 C 0.88938 0.43877 0.58003 0.0
C1267 C 0.8929 0.45603 0.60978 0.0
C1268 C 0.88892 0.46042 0.34476 0.0
C1269 C 0.88639 0.45011 0.46836 0.0
C1270 C 0.88396 0.4556 0.27555 0.0
C1271 C 0.87049 0.43678 0.25719 0.0
C1272 C 0.88078 0.44621 0.39529 0.0
C1273 C 0.86216 0.42327 0.31012 0.0
C1274 C 0.88598 0.43573 0.50966 0.0
C1275 C 0.89417 0.47046 0.5661 0.0
N1276 N 0.86758 0.42819 0.37652 0.0
N1277 N 0.89082 0.46716 0.49726 0.0
H1278 H 0.50724 0.40837 0.5729 0.0
H1279 H 0.58428 0.43727 0.28029 0.0
H1280 H 0.56529 0.4544 0.5935 0.0
H1281 H 0.52633 0.42021 0.22433 0.0
H1282 H 0.57615 0.43749 0.4009 0.0
H1283 H 0.51248 0.40762 0.44818 0.0
C1284 C 0.52096 0.41847 0.55121 0.0
C1285 C 0.53591 0.43135 0.59381 0.0
C1286 C 0.56518 0.43352 0.36212 0.0
C1287 C 0.54201 0.43016 0.4527 0.0
C1288 C 0.56976 0.43328 0.29327 0.0
C1289 C 0.55596 0.42854 0.24173 0.0
C1290 C 0.54661 0.42884 0.38009 0.0
C1291 C 0.53734 0.42345 0.26198 0.0
C1292 C 0.52391 0.41798 0.48031 0.0
C1293 C 0.55337 0.44414 0.56297 0.0
N1294 N 0.53318 0.42372 0.32987 0.0
N1295 N 0.55601 0.44301 0.49455 0.0
H1296 H 0.52833 0.08705 0.59112 0.0
H1297 H 0.58398 0.12915 0.23796 0.0
H1298 H 0.58945 0.1136 0.57374 0.0
H1299 H 0.52276 0.0981 0.25752 0.0
H1300 H 0.58657 0.12119 0.3579 0.0
H1301 H 0.52613 0.08814 0.46611 0.0
C1302 C 0.54128 0.0929 0.56085 0.0
C1303 C 0.55911 0.10047 0.59285 0.0
C1304 C 0.57258 0.11593 0.33554 0.0
C1305 C 0.55676 0.10205 0.4496 0.0
C1306 C 0.5711 0.12039 0.26696 0.0
C1307 C 0.55313 0.11424 0.23771 0.0
C1308 C 0.55595 0.10537 0.37488 0.0
C1309 C 0.53691 0.10331 0.27824 0.0
C1310 C 0.54004 0.09355 0.48941 0.0
C1311 C 0.57541 0.1077 0.5511 0.0
N1312 N 0.53872 0.09931 0.3447 0.0
N1313 N 0.57388 0.10858 0.48155 0.0
H1314 H 0.47724 0.88166 0.40444 0.0
H1315 H 0.41707 0.88714 0.72057 0.0
H1316 H 0.4355 0.89972 0.38817 0.0
H1317 H 0.4561 0.86579 0.74015 0.0
H1318 H 0.42709 0.89579 0.60152 0.0
H1319 H 0.47342 0.88013 0.52988 0.0
C1320 C 0.4675 0.8856 0.42725 0.0
C1321 C 0.45647 0.89058 0.38567 0.0
C1322 C 0.43363 0.88937 0.63182 0.0
C1323 C 0.45196 0.88873 0.52893 0.0
C1324 C 0.42786 0.88436 0.69981 0.0
C1325 C 0.43575 0.87571 0.74031 0.0
C1326 C 0.44727 0.88552 0.60341 0.0
C1327 C 0.44982 0.87264 0.71101 0.0
C1328 C 0.46527 0.88465 0.49886 0.0
C1329 C 0.44412 0.89559 0.41808 0.0
N1330 N 0.45502 0.87739 0.64396 0.0
N1331 N 0.44208 0.89436 0.48765 0.0
H1332 H 0.08835 0.53223 0.40077 0.0
H1333 H 0.12552 0.58766 0.75709 0.0
H1334 H 0.11033 0.59274 0.42118 0.0
H1335 H 0.09907 0.52666 0.73454 0.0
H1336 H 0.11727 0.58977 0.63719 0.0
H1337 H 0.08895 0.5297 0.52576 0.0
C1338 C 0.0931 0.54496 0.4317 0.0
C1339 C 0.09955 0.56276 0.40061 0.0
C1340 C 0.11306 0.57591 0.65887 0.0
C1341 C 0.10057 0.56004 0.54382 0.0
C1342 C 0.11767 0.57469 0.72744 0.0
C1343 C 0.11292 0.55695 0.75583 0.0
C1344 C 0.10378 0.55928 0.61863 0.0
C1345 C 0.10318 0.54066 0.71447 0.0
C1346 C 0.09346 0.54352 0.50313 0.0
C1347 C 0.10534 0.57875 0.44314 0.0
N1348 N 0.09903 0.54223 0.64799 0.0
N1349 N 0.10599 0.57707 0.51269 0.0
H1350 H 0.40306 0.53166 0.74864 0.0
H1351 H 0.45943 0.55053 0.39388 0.0
H1352 H 0.4639 0.56762 0.72701 0.0
H1353 H 0.39906 0.51133 0.41268 0.0
H1354 H 0.46161 0.55402 0.51882 0.0
H1355 H 0.40138 0.52134 0.62879 0.0
C1356 C 0.41608 0.53711 0.71921 0.0
C1357 C 0.43365 0.55048 0.74788 0.0
C1358 C 0.44789 0.54448 0.49585 0.0
C1359 C 0.43182 0.53903 0.61075 0.0
C1360 C 0.44666 0.54247 0.42444 0.0
C1361 C 0.429 0.53083 0.39284 0.0
C1362 C 0.4313 0.53495 0.53605 0.0
C1363 C 0.41295 0.52055 0.43498 0.0
C1364 C 0.41512 0.53131 0.65066 0.0
C1365 C 0.45002 0.55744 0.70676 0.0
N1366 N 0.41443 0.52306 0.5045 0.0
N1367 N 0.44869 0.55171 0.64035 0.0
H1368 H 0.55557 0.7585 0.92098 0.0
H1369 H 0.55177 0.79591 0.54861 0.0
H1370 H 0.55621 0.81187 0.89814 0.0
H1371 H 0.52107 0.73652 0.60682 0.0
H1372 H 0.55914 0.80452 0.67033 0.0
H1373 H 0.55054 0.75326 0.79746 0.0
C1374 C 0.55492 0.76928 0.88993 0.0
C1375 C 0.55598 0.78551 0.92016 0.0
C1376 C 0.55059 0.78965 0.65605 0.0
C1377 C 0.55016 0.77948 0.77867 0.0
C1378 C 0.54609 0.7847 0.58672 0.0
C1379 C 0.53541 0.76542 0.56739 0.0
C1380 C 0.54483 0.77521 0.70557 0.0
C1381 C 0.52931 0.75154 0.61923 0.0
C1382 C 0.55192 0.76618 0.81949 0.0
C1383 C 0.55527 0.79907 0.87695 0.0
N1384 N 0.53425 0.7567 0.68577 0.0
N1385 N 0.55227 0.79569 0.80805 0.0
H1386 H 0.25139 0.78219 0.60092 0.0
H1387 H 0.17381 0.7416 0.89502 0.0
H1388 H 0.19179 0.75519 0.54707 0.0
H1389 H 0.22851 0.79288 0.91599 0.0
H1390 H 0.17938 0.7421 0.77014 0.0
H1391 H 0.24285 0.78084 0.72192 0.0
C1392 C 0.23647 0.77571 0.61458 0.0
C1393 C 0.22229 0.76858 0.56373 0.0
C1394 C 0.18998 0.7533 0.80241 0.0
C1395 C 0.21245 0.76714 0.70217 0.0
C1396 C 0.18682 0.75308 0.8734 0.0
C1397 C 0.20083 0.76708 0.9161 0.0
C1398 C 0.20736 0.76739 0.77487 0.0
C1399 C 0.21739 0.78166 0.88537 0.0
C1400 C 0.23163 0.77506 0.68356 0.0
C1401 C 0.20316 0.76034 0.58449 0.0
N1402 N 0.22031 0.78126 0.81684 0.0
N1403 N 0.19876 0.75982 0.65246 0.0
H1404 H 0.23492 0.43316 0.55701 0.0
H1405 H 0.19888 0.43734 0.93064 0.0
H1406 H 0.21814 0.47394 0.61833 0.0
H1407 H 0.24587 0.42684 0.90723 0.0
H1408 H 0.19977 0.44309 0.8072 0.0
H1409 H 0.23474 0.42479 0.67833 0.0
C1410 C 0.23172 0.44077 0.59551 0.0
C1411 C 0.22687 0.45459 0.57703 0.0
C1412 C 0.20977 0.43936 0.82911 0.0
C1413 C 0.22553 0.44415 0.71511 0.0
C1414 C 0.2092 0.43592 0.89949 0.0
C1415 C 0.22252 0.43187 0.92956 0.0
C1416 C 0.22354 0.43848 0.78814 0.0
C1417 C 0.23547 0.43012 0.88619 0.0
C1418 C 0.23135 0.43573 0.66474 0.0
C1419 C 0.22196 0.46321 0.62982 0.0
N1420 N 0.23573 0.43353 0.81734 0.0
N1421 N 0.22122 0.45771 0.69621 0.0
loop_
_geom_bond_atom_site_label_1
_geom_bond_atom_site_label_2
_geom_bond_distance
_geom_bond_site_symmetry_2
_ccdc_geom_bond_type
Co0 O3 1.970 . S
Co0 N17 1.989 . S
Co0 O25 1.967 . S
Co0 O32 1.920 . S
Co1 O4 1.966 . S
Co1 N10 2.022 . S
Co1 N18 1.993 . S
Co1 O26 1.941 . S
C2 O3 1.258 . S
C2 O4 1.263 . S
O3 Co0 1.970 . S
O3 C2 1.258 . S
O4 Co1 1.966 . S
O4 C2 1.263 . S
C5 O6 1.235 . S
C5 O32 1.289 . S
O6 C5 1.235 . S
C7 C9 1.400 . S
C7 N10 1.351 . S
C7 C12 1.501 . S
C8 C9 1.387 . S
C8 N11 1.341 . S
C9 C7 1.400 . S
C9 C8 1.387 . S
N10 Co1 2.022 . S
N10 C7 1.351 . S
N10 N11 1.365 . S
N11 C8 1.341 . S
N11 N10 1.365 . S
N11 H31 0.862 . S
C12 C7 1.501 . S
C12 H13 0.961 . S
C12 H14 0.961 . S
C12 H15 0.960 . S
H13 C12 0.961 . S
H14 C12 0.961 . S
H15 C12 0.960 . S
C16 N17 1.342 . S
C16 C20 1.401 . S
C16 C21 1.499 . S
N17 Co0 1.989 . S
N17 C16 1.342 . S
N17 N18 1.388 . S
N18 Co1 1.993 . S
N18 N17 1.388 . S
N18 C19 1.346 . S
C19 N18 1.346 . S
C19 C20 1.396 . S
C19 C29 1.510 . S
C20 C16 1.401 . S
C20 C19 1.396 . S
C21 C16 1.499 . S
C21 H22 0.959 . S
C21 H23 0.960 . S
C21 H24 0.961 . S
H22 C21 0.959 . S
H23 C21 0.960 . S
H24 C21 0.961 . S
O25 Co0 1.967 . S
O25 C33 1.258 . S
O26 Co1 1.941 . S
O26 C33 1.266 . S
H27 C29 0.959 . S
H28 C29 0.961 . S
C29 C19 1.510 . S
C29 H27 0.959 . S
C29 H28 0.961 . S
C29 H30 0.960 . S
H30 C29 0.960 . S
H31 N11 0.862 . S
O32 Co0 1.920 . S
O32 C5 1.289 . S
C33 O25 1.258 . S
C33 O26 1.266 . S
Co34 O37 1.970 . S
Co34 N51 1.989 . S
Co34 O59 1.967 . S
Co34 O66 1.920 . S
Co35 O38 1.966 . S
Co35 N44 2.022 . S
Co35 N52 1.993 . S
Co35 O60 1.941 . S
C36 O37 1.258 . S
C36 O38 1.263 . S
O37 Co34 1.970 . S
O37 C36 1.258 . S
O38 Co35 1.966 . S
O38 C36 1.263 . S
C39 O40 1.235 . S
C39 O66 1.289 . S
O40 C39 1.235 . S
C41 C43 1.400 . S
C41 N44 1.351 . S
C41 C46 1.501 . S
C42 C43 1.387 . S
C42 N45 1.341 . S
C43 C41 1.400 . S
C43 C42 1.387 . S
N44 Co35 2.022 . S
N44 C41 1.351 . S
N44 N45 1.365 . S
N45 C42 1.341 . S
N45 N44 1.365 . S
N45 H65 0.862 . S
C46 C41 1.501 . S
C46 H47 0.961 . S
C46 H48 0.961 . S
C46 H49 0.960 . S
H47 C46 0.961 . S
H48 C46 0.961 . S
H49 C46 0.960 . S
C50 N51 1.342 . S
C50 C54 1.401 . S
C50 C55 1.499 . S
N51 Co34 1.989 . S
N51 C50 1.342 . S
N51 N52 1.388 . S
N52 Co35 1.993 . S
N52 N51 1.388 . S
N52 C53 1.346 . S
C53 N52 1.346 . S
C53 C54 1.396 . S
C53 C63 1.510 . S
C54 C50 1.401 . S
C54 C53 1.396 . S
C55 C50 1.499 . S
C55 H56 0.959 . S
C55 H57 0.960 . S
C55 H58 0.961 . S
H56 C55 0.959 . S
H57 C55 0.960 . S
H58 C55 0.961 . S
O59 Co34 1.967 . S
O59 C67 1.258 . S
O60 Co35 1.941 . S
O60 C67 1.266 . S
H61 C63 0.959 . S
H62 C63 0.961 . S
C63 C53 1.510 . S
C63 H61 0.959 . S
C63 H62 0.961 . S
C63 H64 0.960 . S
H64 C63 0.960 . S
H65 N45 0.862 . S
O66 Co34 1.920 . S
O66 C39 1.289 . S
C67 O59 1.258 . S
C67 O60 1.266 . S
Co68 O71 1.970 . S
Co68 N85 1.989 . S
Co68 O93 1.967 . S
Co68 O100 1.920 . S
Co69 O72 1.966 . S
Co69 N78 2.022 . S
Co69 N86 1.993 . S
Co69 O94 1.941 . S
C70 O71 1.258 . S
C70 O72 1.263 . S
O71 Co68 1.970 . S
O71 C70 1.258 . S
O72 Co69 1.966 . S
O72 C70 1.263 . S
C73 O74 1.235 . S
C73 O100 1.289 . S
O74 C73 1.235 . S
C75 C77 1.400 . S
C75 N78 1.351 . S
C75 C80 1.501 . S
C76 C77 1.387 . S
C76 N79 1.341 . S
C77 C75 1.400 . S
C77 C76 1.387 . S
N78 Co69 2.022 . S
N78 C75 1.351 . S
N78 N79 1.365 . S
N79 C76 1.341 . S
N79 N78 1.365 . S
N79 H99 0.862 . S
C80 C75 1.501 . S
C80 H81 0.961 . S
C80 H82 0.961 . S
C80 H83 0.960 . S
H81 C80 0.961 . S
H82 C80 0.961 . S
H83 C80 0.960 . S
C84 N85 1.342 . S
C84 C88 1.401 . S
C84 C89 1.499 . S
N85 Co68 1.989 . S
N85 C84 1.342 . S
N85 N86 1.388 . S
N86 Co69 1.993 . S
N86 N85 1.388 . S
N86 C87 1.346 . S
C87 N86 1.346 . S
C87 C88 1.396 . S
C87 C97 1.510 . S
C88 C84 1.401 . S
C88 C87 1.396 . S
C89 C84 1.499 . S
C89 H90 0.959 . S
C89 H91 0.960 . S
C89 H92 0.961 . S
H90 C89 0.959 . S
H91 C89 0.960 . S
H92 C89 0.961 . S
O93 Co68 1.967 . S
O93 C101 1.258 . S
O94 Co69 1.941 . S
O94 C101 1.266 . S
H95 C97 0.959 . S
H96 C97 0.961 . S
C97 C87 1.510 . S
C97 H95 0.959 . S
C97 H96 0.961 . S
C97 H98 0.960 . S
H98 C97 0.960 . S
H99 N79 0.862 . S
O100 Co68 1.920 . S
O100 C73 1.289 . S
C101 O93 1.258 . S
C101 O94 1.266 . S
Co102 O105 1.970 . S
Co102 N119 1.989 . S
Co102 O127 1.967 . S
Co102 O134 1.920 . S
Co103 O106 1.966 . S
Co103 N112 2.022 . S
Co103 N120 1.993 . S
Co103 O128 1.941 . S
C104 O105 1.258 . S
C104 O106 1.263 . S
O105 Co102 1.970 . S
O105 C104 1.258 . S
O106 Co103 1.966 . S
O106 C104 1.263 . S
C107 O108 1.235 . S
C107 O134 1.289 . S
O108 C107 1.235 . S
C109 C111 1.400 . S
C109 N112 1.351 . S
C109 C114 1.501 . S
C110 C111 1.387 . S
C110 N113 1.341 . S
C111 C109 1.400 . S
C111 C110 1.387 . S
N112 Co103 2.022 . S
N112 C109 1.351 . S
N112 N113 1.365 . S
N113 C110 1.341 . S
N113 N112 1.365 . S
N113 H133 0.862 . S
C114 C109 1.501 . S
C114 H115 0.961 . S
C114 H116 0.961 . S
C114 H117 0.960 . S
H115 C114 0.961 . S
H116 C114 0.961 . S
H117 C114 0.960 . S
C118 N119 1.342 . S
C118 C122 1.401 . S
C118 C123 1.499 . S
N119 Co102 1.989 . S
N119 C118 1.342 . S
N119 N120 1.388 . S
N120 Co103 1.993 . S
N120 N119 1.388 . S
N120 C121 1.346 . S
C121 N120 1.346 . S
C121 C122 1.396 . S
C121 C131 1.510 . S
C122 C118 1.401 . S
C122 C121 1.396 . S
C123 C118 1.499 . S
C123 H124 0.959 . S
C123 H125 0.960 . S
C123 H126 0.961 . S
H124 C123 0.959 . S
H125 C123 0.960 . S
H126 C123 0.961 . S
O127 Co102 1.967 . S
O127 C135 1.258 . S
O128 Co103 1.941 . S
O128 C135 1.266 . S
H129 C131 0.959 . S
H130 C131 0.961 . S
C131 C121 1.510 . S
C131 H129 0.959 . S
C131 H130 0.961 . S
C131 H132 0.960 . S
H132 C131 0.960 . S
H133 N113 0.862 . S
O134 Co102 1.920 . S
O134 C107 1.289 . S
C135 O127 1.258 . S
C135 O128 1.266 . S
Co136 O139 1.970 . S
Co136 N153 1.989 . S
Co136 O161 1.967 . S
Co136 O168 1.920 . S
Co137 O140 1.966 . S
Co137 N146 2.022 . S
Co137 N154 1.993 . S
Co137 O162 1.941 . S
C138 O139 1.258 . S
C138 O140 1.263 . S
O139 Co136 1.970 . S
O139 C138 1.258 . S
O140 Co137 1.966 . S
O140 C138 1.263 . S
C141 O142 1.235 . S
C141 O168 1.289 . S
O142 C141 1.235 . S
C143 C145 1.400 . S
C143 N146 1.351 . S
C143 C148 1.501 . S
C144 C145 1.387 . S
C144 N147 1.341 . S
C145 C143 1.400 . S
C145 C144 1.387 . S
N146 Co137 2.022 . S
N146 C143 1.351 . S
N146 N147 1.365 . S
N147 C144 1.341 . S
N147 N146 1.365 . S
N147 H167 0.862 . S
C148 C143 1.501 . S
C148 H149 0.961 . S
C148 H150 0.961 . S
C148 H151 0.960 . S
H149 C148 0.961 . S
H150 C148 0.961 . S
H151 C148 0.960 . S
C152 N153 1.342 . S
C152 C156 1.401 . S
C152 C157 1.499 . S
N153 Co136 1.989 . S
N153 C152 1.342 . S
N153 N154 1.388 . S
N154 Co137 1.993 . S
N154 N153 1.388 . S
N154 C155 1.346 . S
C155 N154 1.346 . S
C155 C156 1.396 . S
C155 C165 1.510 . S
C156 C152 1.401 . S
C156 C155 1.396 . S
C157 C152 1.499 . S
C157 H158 0.959 . S
C157 H159 0.960 . S
C157 H160 0.961 . S
H158 C157 0.959 . S
H159 C157 0.960 . S
H160 C157 0.961 . S
O161 Co136 1.967 . S
O161 C169 1.258 . S
O162 Co137 1.941 . S
O162 C169 1.266 . S
H163 C165 0.959 . S
H164 C165 0.961 . S
C165 C155 1.510 . S
C165 H163 0.959 . S
C165 H164 0.961 . S
C165 H166 0.960 . S
H166 C165 0.960 . S
H167 N147 0.862 . S
O168 Co136 1.920 . S
O168 C141 1.289 . S
C169 O161 1.258 . S
C169 O162 1.266 . S
Co170 O173 1.970 . S
Co170 N187 1.989 . S
Co170 O195 1.967 . S
Co170 O202 1.920 . S
Co171 O174 1.966 . S
Co171 N180 2.022 . S
Co171 N188 1.993 . S
Co171 O196 1.941 . S
C172 O173 1.258 . S
C172 O174 1.263 . S
O173 Co170 1.970 . S
O173 C172 1.258 . S
O174 Co171 1.966 . S
O174 C172 1.263 . S
C175 O176 1.235 . S
C175 O202 1.289 . S
O176 C175 1.235 . S
C177 C179 1.400 . S
C177 N180 1.351 . S
C177 C182 1.501 . S
C178 C179 1.387 . S
C178 N181 1.341 . S
C179 C177 1.400 . S
C179 C178 1.387 . S
N180 Co171 2.022 . S
N180 C177 1.351 . S
N180 N181 1.365 . S
N181 C178 1.341 . S
N181 N180 1.365 . S
N181 H201 0.862 . S
C182 C177 1.501 . S
C182 H183 0.961 . S
C182 H184 0.961 . S
C182 H185 0.960 . S
H183 C182 0.961 . S
H184 C182 0.961 . S
H185 C182 0.960 . S
C186 N187 1.342 . S
C186 C190 1.401 . S
C186 C191 1.499 . S
N187 Co170 1.989 . S
N187 C186 1.342 . S
N187 N188 1.388 . S
N188 Co171 1.993 . S
N188 N187 1.388 . S
N188 C189 1.346 . S
C189 N188 1.346 . S
C189 C190 1.396 . S
C189 C199 1.510 . S
C190 C186 1.401 . S
C190 C189 1.396 . S
C191 C186 1.499 . S
C191 H192 0.959 . S
C191 H193 0.960 . S
C191 H194 0.961 . S
H192 C191 0.959 . S
H193 C191 0.960 . S
H194 C191 0.961 . S
O195 Co170 1.967 . S
O195 C203 1.258 . S
O196 Co171 1.941 . S
O196 C203 1.266 . S
H197 C199 0.959 . S
H198 C199 0.961 . S
C199 C189 1.510 . S
C199 H197 0.959 . S
C199 H198 0.961 . S
C199 H200 0.960 . S
H200 C199 0.960 . S
H201 N181 0.862 . S
O202 Co170 1.920 . S
O202 C175 1.289 . S
C203 O195 1.258 . S
C203 O196 1.266 . S
Co204 O207 1.970 . S
Co204 N221 1.989 . S
Co204 O229 1.967 . S
Co204 O236 1.920 . S
Co205 O208 1.966 . S
Co205 N214 2.022 . S
Co205 N222 1.993 . S
Co205 O230 1.941 . S
C206 O207 1.258 . S
C206 O208 1.263 . S
O207 Co204 1.970 . S
O207 C206 1.258 . S
O208 Co205 1.966 . S
O208 C206 1.263 . S
C209 O210 1.235 . S
C209 O236 1.289 . S
O210 C209 1.235 . S
C211 C213 1.400 . S
C211 N214 1.351 . S
C211 C216 1.501 . S
C212 C213 1.387 . S
C212 N215 1.341 . S
C213 C211 1.400 . S
C213 C212 1.387 . S
N214 Co205 2.022 . S
N214 C211 1.351 . S
N214 N215 1.365 . S
N215 C212 1.341 . S
N215 N214 1.365 . S
N215 H235 0.862 . S
C216 C211 1.501 . S
C216 H217 0.961 . S
C216 H218 0.961 . S
C216 H219 0.960 . S
H217 C216 0.961 . S
H218 C216 0.961 . S
H219 C216 0.960 . S
C220 N221 1.342 . S
C220 C224 1.401 . S
C220 C225 1.499 . S
N221 Co204 1.989 . S
N221 C220 1.342 . S
N221 N222 1.388 . S
N222 Co205 1.993 . S
N222 N221 1.388 . S
N222 C223 1.346 . S
C223 N222 1.346 . S
C223 C224 1.396 . S
C223 C233 1.510 . S
C224 C220 1.401 . S
C224 C223 1.396 . S
C225 C220 1.499 . S
C225 H226 0.959 . S
C225 H227 0.960 . S
C225 H228 0.961 . S
H226 C225 0.959 . S
H227 C225 0.960 . S
H228 C225 0.961 . S
O229 Co204 1.967 . S
O229 C237 1.258 . S
O230 Co205 1.941 . S
O230 C237 1.266 . S
H231 C233 0.959 . S
H232 C233 0.961 . S
C233 C223 1.510 . S
C233 H231 0.959 . S
C233 H232 0.961 . S
C233 H234 0.960 . S
H234 C233 0.960 . S
H235 N215 0.862 . S
O236 Co204 1.920 . S
O236 C209 1.289 . S
C237 O229 1.258 . S
C237 O230 1.266 . S
Co238 O241 1.970 . S
Co238 N255 1.989 . S
Co238 O263 1.967 . S
Co238 O270 1.920 . S
Co239 O242 1.966 . S
Co239 N248 2.022 . S
Co239 N256 1.993 . S
Co239 O264 1.941 . S
C240 O241 1.258 . S
C240 O242 1.263 . S
O241 Co238 1.970 . S
O241 C240 1.258 . S
O242 Co239 1.966 . S
O242 C240 1.263 . S
C243 O244 1.235 . S
C243 O270 1.289 . S
O244 C243 1.235 . S
C245 C247 1.400 . S
C245 N248 1.351 . S
C245 C250 1.501 . S
C246 C247 1.387 . S
C246 N249 1.341 . S
C247 C245 1.400 . S
C247 C246 1.387 . S
N248 Co239 2.022 . S
N248 C245 1.351 . S
N248 N249 1.365 . S
N249 C246 1.341 . S
N249 N248 1.365 . S
N249 H269 0.862 . S
C250 C245 1.501 . S
C250 H251 0.961 . S
C250 H252 0.961 . S
C250 H253 0.960 . S
H251 C250 0.961 . S
H252 C250 0.961 . S
H253 C250 0.960 . S
C254 N255 1.342 . S
C254 C258 1.401 . S
C254 C259 1.499 . S
N255 Co238 1.989 . S
N255 C254 1.342 . S
N255 N256 1.388 . S
N256 Co239 1.993 . S
N256 N255 1.388 . S
N256 C257 1.346 . S
C257 N256 1.346 . S
C257 C258 1.396 . S
C257 C267 1.510 . S
C258 C254 1.401 . S
C258 C257 1.396 . S
C259 C254 1.499 . S
C259 H260 0.959 . S
C259 H261 0.960 . S
C259 H262 0.961 . S
H260 C259 0.959 . S
H261 C259 0.960 . S
H262 C259 0.961 . S
O263 Co238 1.967 . S
O263 C271 1.258 . S
O264 Co239 1.941 . S
O264 C271 1.266 . S
H265 C267 0.959 . S
H266 C267 0.961 . S
C267 C257 1.510 . S
C267 H265 0.959 . S
C267 H266 0.961 . S
C267 H268 0.960 . S
H268 C267 0.960 . S
H269 N249 0.862 . S
O270 Co238 1.920 . S
O270 C243 1.289 . S
C271 O263 1.258 . S
C271 O264 1.266 . S
Co272 O275 1.970 . S
Co272 N289 1.989 . S
Co272 O297 1.967 . S
Co272 O304 1.920 . S
Co273 O276 1.966 . S
Co273 N282 2.022 . S
Co273 N290 1.993 . S
Co273 O298 1.941 . S
C274 O275 1.258 . S
C274 O276 1.263 . S
O275 Co272 1.970 . S
O275 C274 1.258 . S
O276 Co273 1.966 . S
O276 C274 1.263 . S
C277 O278 1.235 . S
C277 O304 1.289 . S
O278 C277 1.235 . S
C279 C281 1.400 . S
C279 N282 1.351 . S
C279 C284 1.501 . S
C280 C281 1.387 . S
C280 N283 1.341 . S
C281 C279 1.400 . S
C281 C280 1.387 . S
N282 Co273 2.022 . S
N282 C279 1.351 . S
N282 N283 1.365 . S
N283 C280 1.341 . S
N283 N282 1.365 . S
N283 H303 0.862 . S
C284 C279 1.501 . S
C284 H285 0.961 . S
C284 H286 0.961 . S
C284 H287 0.960 . S
H285 C284 0.961 . S
H286 C284 0.961 . S
H287 C284 0.960 . S
C288 N289 1.342 . S
C288 C292 1.401 . S
C288 C293 1.499 . S
N289 Co272 1.989 . S
N289 C288 1.342 . S
N289 N290 1.388 . S
N290 Co273 1.993 . S
N290 N289 1.388 . S
N290 C291 1.346 . S
C291 N290 1.346 . S
C291 C292 1.396 . S
C291 C301 1.510 . S
C292 C288 1.401 . S
C292 C291 1.396 . S
C293 C288 1.499 . S
C293 H294 0.959 . S
C293 H295 0.960 . S
C293 H296 0.961 . S
H294 C293 0.959 . S
H295 C293 0.960 . S
H296 C293 0.961 . S
O297 Co272 1.967 . S
O297 C305 1.258 . S
O298 Co273 1.941 . S
O298 C305 1.266 . S
H299 C301 0.959 . S
H300 C301 0.961 . S
C301 C291 1.510 . S
C301 H299 0.959 . S
C301 H300 0.961 . S
C301 H302 0.960 . S
H302 C301 0.960 . S
H303 N283 0.862 . S
O304 Co272 1.920 . S
O304 C277 1.289 . S
C305 O297 1.258 . S
C305 O298 1.266 . S
Co306 O309 1.970 . S
Co306 N323 1.989 . S
Co306 O331 1.967 . S
Co306 O338 1.920 . S
Co307 O310 1.966 . S
Co307 N316 2.022 1_556 S
Co307 N324 1.993 . S
Co307 O332 1.941 . S
C308 O309 1.258 . S
C308 O310 1.263 . S
O309 Co306 1.970 . S
O309 C308 1.258 . S
O310 Co307 1.966 . S
O310 C308 1.263 . S
C311 O312 1.235 . S
C311 O338 1.289 . S
O312 C311 1.235 . S
C313 C315 1.400 . S
C313 N316 1.351 . S
C313 C318 1.501 . S
C314 C315 1.387 . S
C314 N317 1.341 . S
C315 C313 1.400 . S
C315 C314 1.387 . S
N316 Co307 2.022 1_554 S
N316 C313 1.351 . S
N316 N317 1.365 . S
N317 C314 1.341 . S
N317 N316 1.365 . S
N317 H337 0.862 . S
C318 C313 1.501 . S
C318 H319 0.961 . S
C318 H320 0.961 . S
C318 H321 0.960 . S
H319 C318 0.961 . S
H320 C318 0.961 . S
H321 C318 0.960 . S
C322 N323 1.342 . S
C322 C326 1.401 . S
C322 C327 1.499 . S
N323 Co306 1.989 . S
N323 C322 1.342 . S
N323 N324 1.388 . S
N324 Co307 1.993 . S
N324 N323 1.388 . S
N324 C325 1.346 . S
C325 N324 1.346 . S
C325 C326 1.396 . S
C325 C335 1.510 1_556 S
C326 C322 1.401 . S
C326 C325 1.396 . S
C327 C322 1.499 . S
C327 H328 0.959 . S
C327 H329 0.960 . S
C327 H330 0.961 . S
H328 C327 0.959 . S
H329 C327 0.960 . S
H330 C327 0.961 . S
O331 Co306 1.967 . S
O331 C339 1.258 . S
O332 Co307 1.941 . S
O332 C339 1.266 . S
H333 C335 0.959 . S
H334 C335 0.961 . S
C335 C325 1.510 1_554 S
C335 H333 0.959 . S
C335 H334 0.961 . S
C335 H336 0.960 . S
H336 C335 0.960 . S
H337 N317 0.862 . S
O338 Co306 1.920 . S
O338 C311 1.289 . S
C339 O331 1.258 . S
C339 O332 1.266 . S
Co340 O343 1.970 . S
Co340 N357 1.989 . S
Co340 O365 1.967 . S
Co340 O372 1.920 . S
Co341 O344 1.966 . S
Co341 N350 2.022 1_556 S
Co341 N358 1.993 . S
Co341 O366 1.941 . S
C342 O343 1.258 . S
C342 O344 1.263 . S
O343 Co340 1.970 . S
O343 C342 1.258 . S
O344 Co341 1.966 . S
O344 C342 1.263 . S
C345 O346 1.235 . S
C345 O372 1.289 . S
O346 C345 1.235 . S
C347 C349 1.400 . S
C347 N350 1.351 . S
C347 C352 1.501 . S
C348 C349 1.387 . S
C348 N351 1.341 . S
C349 C347 1.400 . S
C349 C348 1.387 . S
N350 Co341 2.022 1_554 S
N350 C347 1.351 . S
N350 N351 1.365 . S
N351 C348 1.341 . S
N351 N350 1.365 . S
N351 H371 0.862 . S
C352 C347 1.501 . S
C352 H353 0.961 . S
C352 H354 0.961 . S
C352 H355 0.960 . S
H353 C352 0.961 . S
H354 C352 0.961 . S
H355 C352 0.960 . S
C356 N357 1.342 . S
C356 C360 1.401 . S
C356 C361 1.499 . S
N357 Co340 1.989 . S
N357 C356 1.342 . S
N357 N358 1.388 . S
N358 Co341 1.993 . S
N358 N357 1.388 . S
N358 C359 1.346 . S
C359 N358 1.346 . S
C359 C360 1.396 . S
C359 C369 1.510 1_556 S
C360 C356 1.401 . S
C360 C359 1.396 . S
C361 C356 1.499 . S
C361 H362 0.959 . S
C361 H363 0.960 . S
C361 H364 0.961 . S
H362 C361 0.959 . S
H363 C361 0.960 . S
H364 C361 0.961 . S
O365 Co340 1.967 . S
O365 C373 1.258 . S
O366 Co341 1.941 . S
O366 C373 1.266 . S
H367 C369 0.959 . S
H368 C369 0.961 . S
C369 C359 1.510 1_554 S
C369 H367 0.959 . S
C369 H368 0.961 . S
C369 H370 0.960 . S
H370 C369 0.960 . S
H371 N351 0.862 . S
O372 Co340 1.920 . S
O372 C345 1.289 . S
C373 O365 1.258 . S
C373 O366 1.266 . S
Co374 O377 1.970 . S
Co374 N391 1.989 . S
Co374 O399 1.967 . S
Co374 O406 1.920 . S
Co375 O378 1.966 . S
Co375 N384 2.022 1_556 S
Co375 N392 1.993 . S
Co375 O400 1.941 . S
C376 O377 1.258 . S
C376 O378 1.263 . S
O377 Co374 1.970 . S
O377 C376 1.258 . S
O378 Co375 1.966 . S
O378 C376 1.263 . S
C379 O380 1.235 . S
C379 O406 1.289 . S
O380 C379 1.235 . S
C381 C383 1.400 . S
C381 N384 1.351 . S
C381 C386 1.501 . S
C382 C383 1.387 . S
C382 N385 1.341 . S
C383 C381 1.400 . S
C383 C382 1.387 . S
N384 Co375 2.022 1_554 S
N384 C381 1.351 . S
N384 N385 1.365 . S
N385 C382 1.341 . S
N385 N384 1.365 . S
N385 H405 0.862 . S
C386 C381 1.501 . S
C386 H387 0.961 . S
C386 H388 0.961 . S
C386 H389 0.960 . S
H387 C386 0.961 . S
H388 C386 0.961 . S
H389 C386 0.960 . S
C390 N391 1.342 . S
C390 C394 1.401 . S
C390 C395 1.499 . S
N391 Co374 1.989 . S
N391 C390 1.342 . S
N391 N392 1.388 . S
N392 Co375 1.993 . S
N392 N391 1.388 . S
N392 C393 1.346 . S
C393 N392 1.346 . S
C393 C394 1.396 . S
C393 C403 1.510 1_556 S
C394 C390 1.401 . S
C394 C393 1.396 . S
C395 C390 1.499 . S
C395 H396 0.959 . S
C395 H397 0.960 . S
C395 H398 0.961 . S
H396 C395 0.959 . S
H397 C395 0.960 . S
H398 C395 0.961 . S
O399 Co374 1.967 . S
O399 C407 1.258 . S
O400 Co375 1.941 . S
O400 C407 1.266 . S
H401 C403 0.959 . S
H402 C403 0.961 . S
C403 C393 1.510 1_554 S
C403 H401 0.959 . S
C403 H402 0.961 . S
C403 H404 0.960 . S
H404 C403 0.960 . S
H405 N385 0.862 . S
O406 Co374 1.920 . S
O406 C379 1.289 . S
C407 O399 1.258 . S
C407 O400 1.266 . S
Co408 O411 1.970 . S
Co408 N425 1.989 . S
Co408 O433 1.967 . S
Co408 O440 1.920 . S
Co409 O412 1.966 . S
Co409 N418 2.022 1_554 S
Co409 N426 1.993 . S
Co409 O434 1.941 . S
C410 O411 1.258 . S
C410 O412 1.263 . S
O411 Co408 1.970 . S
O411 C410 1.258 . S
O412 Co409 1.966 . S
O412 C410 1.263 . S
C413 O414 1.235 . S
C413 O440 1.289 . S
O414 C413 1.235 . S
C415 C417 1.400 . S
C415 N418 1.351 . S
C415 C420 1.501 . S
C416 C417 1.387 . S
C416 N419 1.341 . S
C417 C415 1.400 . S
C417 C416 1.387 . S
N418 Co409 2.022 1_556 S
N418 C415 1.351 . S
N418 N419 1.365 . S
N419 C416 1.341 . S
N419 N418 1.365 . S
N419 H439 0.862 . S
C420 C415 1.501 . S
C420 H421 0.961 . S
C420 H422 0.961 . S
C420 H423 0.960 . S
H421 C420 0.961 . S
H422 C420 0.961 . S
H423 C420 0.960 . S
C424 N425 1.342 . S
C424 C428 1.401 . S
C424 C429 1.499 . S
N425 Co408 1.989 . S
N425 C424 1.342 . S
N425 N426 1.388 . S
N426 Co409 1.993 . S
N426 N425 1.388 . S
N426 C427 1.346 . S
C427 N426 1.346 . S
C427 C428 1.396 . S
C427 C437 1.510 1_554 S
C428 C424 1.401 . S
C428 C427 1.396 . S
C429 C424 1.499 . S
C429 H430 0.959 . S
C429 H431 0.960 . S
C429 H432 0.961 . S
H430 C429 0.959 . S
H431 C429 0.960 . S
H432 C429 0.961 . S
O433 Co408 1.967 . S
O433 C441 1.258 . S
O434 Co409 1.941 . S
O434 C441 1.266 . S
H435 C437 0.959 . S
H436 C437 0.961 . S
C437 C427 1.510 1_556 S
C437 H435 0.959 . S
C437 H436 0.961 . S
C437 H438 0.960 . S
H438 C437 0.960 . S
H439 N419 0.862 . S
O440 Co408 1.920 . S
O440 C413 1.289 . S
C441 O433 1.258 . S
C441 O434 1.266 . S
Co442 O445 1.970 . S
Co442 N459 1.989 . S
Co442 O467 1.967 . S
Co442 O474 1.920 . S
Co443 O446 1.966 . S
Co443 N452 2.022 1_554 S
Co443 N460 1.993 . S
Co443 O468 1.941 . S
C444 O445 1.258 . S
C444 O446 1.263 . S
O445 Co442 1.970 . S
O445 C444 1.258 . S
O446 Co443 1.966 . S
O446 C444 1.263 . S
C447 O448 1.235 . S
C447 O474 1.289 . S
O448 C447 1.235 . S
C449 C451 1.400 . S
C449 N452 1.351 . S
C449 C454 1.501 . S
C450 C451 1.387 . S
C450 N453 1.341 . S
C451 C449 1.400 . S
C451 C450 1.387 . S
N452 Co443 2.022 1_556 S
N452 C449 1.351 . S
N452 N453 1.365 . S
N453 C450 1.341 . S
N453 N452 1.365 . S
N453 H473 0.862 . S
C454 C449 1.501 . S
C454 H455 0.961 . S
C454 H456 0.961 . S
C454 H457 0.960 . S
H455 C454 0.961 . S
H456 C454 0.961 . S
H457 C454 0.960 . S
C458 N459 1.342 . S
C458 C462 1.401 . S
C458 C463 1.499 . S
N459 Co442 1.989 . S
N459 C458 1.342 . S
N459 N460 1.388 . S
N460 Co443 1.993 . S
N460 N459 1.388 . S
N460 C461 1.346 . S
C461 N460 1.346 . S
C461 C462 1.396 . S
C461 C471 1.510 1_554 S
C462 C458 1.401 . S
C462 C461 1.396 . S
C463 C458 1.499 . S
C463 H464 0.959 . S
C463 H465 0.960 . S
C463 H466 0.961 . S
H464 C463 0.959 . S
H465 C463 0.960 . S
H466 C463 0.961 . S
O467 Co442 1.967 . S
O467 C475 1.258 . S
O468 Co443 1.941 . S
O468 C475 1.266 . S
H469 C471 0.959 . S
H470 C471 0.961 . S
C471 C461 1.510 1_556 S
C471 H469 0.959 . S
C471 H470 0.961 . S
C471 H472 0.960 . S
H472 C471 0.960 . S
H473 N453 0.862 . S
O474 Co442 1.920 . S
O474 C447 1.289 . S
C475 O467 1.258 . S
C475 O468 1.266 . S
Co476 O479 1.970 . S
Co476 N493 1.989 . S
Co476 O501 1.967 . S
Co476 O508 1.920 . S
Co477 O480 1.966 . S
Co477 N486 2.022 1_554 S
Co477 N494 1.993 . S
Co477 O502 1.941 . S
C478 O479 1.258 . S
C478 O480 1.263 . S
O479 Co476 1.970 . S
O479 C478 1.258 . S
O480 Co477 1.966 . S
O480 C478 1.263 . S
C481 O482 1.235 . S
C481 O508 1.289 . S
O482 C481 1.235 . S
C483 C485 1.400 . S
C483 N486 1.351 . S
C483 C488 1.501 . S
C484 C485 1.387 . S
C484 N487 1.341 . S
C485 C483 1.400 . S
C485 C484 1.387 . S
N486 Co477 2.022 1_556 S
N486 C483 1.351 . S
N486 N487 1.365 . S
N487 C484 1.341 . S
N487 N486 1.365 . S
N487 H507 0.862 . S
C488 C483 1.501 . S
C488 H489 0.961 . S
C488 H490 0.961 . S
C488 H491 0.960 . S
H489 C488 0.961 . S
H490 C488 0.961 . S
H491 C488 0.960 . S
C492 N493 1.342 . S
C492 C496 1.401 . S
C492 C497 1.499 . S
N493 Co476 1.989 . S
N493 C492 1.342 . S
N493 N494 1.388 . S
N494 Co477 1.993 . S
N494 N493 1.388 . S
N494 C495 1.346 . S
C495 N494 1.346 . S
C495 C496 1.396 . S
C495 C505 1.510 1_554 S
C496 C492 1.401 . S
C496 C495 1.396 . S
C497 C492 1.499 . S
C497 H498 0.959 . S
C497 H499 0.960 . S
C497 H500 0.961 . S
H498 C497 0.959 . S
H499 C497 0.960 . S
H500 C497 0.961 . S
O501 Co476 1.967 . S
O501 C509 1.258 . S
O502 Co477 1.941 . S
O502 C509 1.266 . S
H503 C505 0.959 . S
H504 C505 0.961 . S
C505 C495 1.510 1_556 S
C505 H503 0.959 . S
C505 H504 0.961 . S
C505 H506 0.960 . S
H506 C505 0.960 . S
H507 N487 0.862 . S
O508 Co476 1.920 . S
O508 C481 1.289 . S
C509 O501 1.258 . S
C509 O502 1.266 . S
Co510 O513 1.970 . S
Co510 N527 1.989 . S
Co510 O535 1.967 . S
Co510 O542 1.920 . S
Co511 O514 1.966 . S
Co511 N520 2.022 . S
Co511 N528 1.993 . S
Co511 O536 1.941 . S
C512 O513 1.258 . S
C512 O514 1.263 . S
O513 Co510 1.970 . S
O513 C512 1.258 . S
O514 Co511 1.966 . S
O514 C512 1.263 . S
C515 O516 1.235 . S
C515 O542 1.289 . S
O516 C515 1.235 . S
C517 C519 1.400 . S
C517 N520 1.351 . S
C517 C522 1.501 . S
C518 C519 1.387 . S
C518 N521 1.341 . S
C519 C517 1.400 . S
C519 C518 1.387 . S
N520 Co511 2.022 . S
N520 C517 1.351 . S
N520 N521 1.365 . S
N521 C518 1.341 . S
N521 N520 1.365 . S
N521 H541 0.862 . S
C522 C517 1.501 . S
C522 H523 0.961 . S
C522 H524 0.961 . S
C522 H525 0.960 . S
H523 C522 0.961 . S
H524 C522 0.961 . S
H525 C522 0.960 . S
C526 N527 1.342 . S
C526 C530 1.401 . S
C526 C531 1.499 . S
N527 Co510 1.989 . S
N527 C526 1.342 . S
N527 N528 1.388 . S
N528 Co511 1.993 . S
N528 N527 1.388 . S
N528 C529 1.346 . S
C529 N528 1.346 . S
C529 C530 1.396 . S
C529 C539 1.510 . S
C530 C526 1.401 . S
C530 C529 1.396 . S
C531 C526 1.499 . S
C531 H532 0.959 . S
C531 H533 0.960 . S
C531 H534 0.961 . S
H532 C531 0.959 . S
H533 C531 0.960 . S
H534 C531 0.961 . S
O535 Co510 1.967 . S
O535 C543 1.258 . S
O536 Co511 1.941 . S
O536 C543 1.266 . S
H537 C539 0.959 . S
H538 C539 0.961 . S
C539 C529 1.510 . S
C539 H537 0.959 . S
C539 H538 0.961 . S
C539 H540 0.960 . S
H540 C539 0.960 . S
H541 N521 0.862 . S
O542 Co510 1.920 . S
O542 C515 1.289 . S
C543 O535 1.258 . S
C543 O536 1.266 . S
Co544 O547 1.970 . S
Co544 N561 1.989 . S
Co544 O569 1.967 . S
Co544 O576 1.920 . S
Co545 O548 1.966 . S
Co545 N554 2.022 . S
Co545 N562 1.993 . S
Co545 O570 1.941 . S
C546 O547 1.258 . S
C546 O548 1.263 . S
O547 Co544 1.970 . S
O547 C546 1.258 . S
O548 Co545 1.966 . S
O548 C546 1.263 . S
C549 O550 1.235 . S
C549 O576 1.289 . S
O550 C549 1.235 . S
C551 C553 1.400 . S
C551 N554 1.351 . S
C551 C556 1.501 . S
C552 C553 1.387 . S
C552 N555 1.341 . S
C553 C551 1.400 . S
C553 C552 1.387 . S
N554 Co545 2.022 . S
N554 C551 1.351 . S
N554 N555 1.365 . S
N555 C552 1.341 . S
N555 N554 1.365 . S
N555 H575 0.862 . S
C556 C551 1.501 . S
C556 H557 0.961 . S
C556 H558 0.961 . S
C556 H559 0.960 . S
H557 C556 0.961 . S
H558 C556 0.961 . S
H559 C556 0.960 . S
C560 N561 1.342 . S
C560 C564 1.401 . S
C560 C565 1.499 . S
N561 Co544 1.989 . S
N561 C560 1.342 . S
N561 N562 1.388 . S
N562 Co545 1.993 . S
N562 N561 1.388 . S
N562 C563 1.346 . S
C563 N562 1.346 . S
C563 C564 1.396 . S
C563 C573 1.510 . S
C564 C560 1.401 . S
C564 C563 1.396 . S
C565 C560 1.499 . S
C565 H566 0.959 . S
C565 H567 0.960 . S
C565 H568 0.961 . S
H566 C565 0.959 . S
H567 C565 0.960 . S
H568 C565 0.961 . S
O569 Co544 1.967 . S
O569 C577 1.258 . S
O570 Co545 1.941 . S
O570 C577 1.266 . S
H571 C573 0.959 . S
H572 C573 0.961 . S
C573 C563 1.510 . S
C573 H571 0.959 . S
C573 H572 0.961 . S
C573 H574 0.960 . S
H574 C573 0.960 . S
H575 N555 0.862 . S
O576 Co544 1.920 . S
O576 C549 1.289 . S
C577 O569 1.258 . S
C577 O570 1.266 . S
Co578 O581 1.970 . S
Co578 N595 1.989 . S
Co578 O603 1.967 . S
Co578 O610 1.920 . S
Co579 O582 1.966 . S
Co579 N588 2.022 . S
Co579 N596 1.993 . S
Co579 O604 1.941 . S
C580 O581 1.258 . S
C580 O582 1.263 . S
O581 Co578 1.970 . S
O581 C580 1.258 . S
O582 Co579 1.966 . S
O582 C580 1.263 . S
C583 O584 1.235 . S
C583 O610 1.289 . S
O584 C583 1.235 . S
C585 C587 1.400 . S
C585 N588 1.351 . S
C585 C590 1.501 . S
C586 C587 1.387 . S
C586 N589 1.341 . S
C587 C585 1.400 . S
C587 C586 1.387 . S
N588 Co579 2.022 . S
N588 C585 1.351 . S
N588 N589 1.365 . S
N589 C586 1.341 . S
N589 N588 1.365 . S
N589 H609 0.862 . S
C590 C585 1.501 . S
C590 H591 0.961 . S
C590 H592 0.961 . S
C590 H593 0.960 . S
H591 C590 0.961 . S
H592 C590 0.961 . S
H593 C590 0.960 . S
C594 N595 1.342 . S
C594 C598 1.401 . S
C594 C599 1.499 . S
N595 Co578 1.989 . S
N595 C594 1.342 . S
N595 N596 1.388 . S
N596 Co579 1.993 . S
N596 N595 1.388 . S
N596 C597 1.346 . S
C597 N596 1.346 . S
C597 C598 1.396 . S
C597 C607 1.510 . S
C598 C594 1.401 . S
C598 C597 1.396 . S
C599 C594 1.499 . S
C599 H600 0.959 . S
C599 H601 0.960 . S
C599 H602 0.961 . S
H600 C599 0.959 . S
H601 C599 0.960 . S
H602 C599 0.961 . S
O603 Co578 1.967 . S
O603 C611 1.258 . S
O604 Co579 1.941 . S
O604 C611 1.266 . S
H605 C607 0.959 . S
H606 C607 0.961 . S
C607 C597 1.510 . S
C607 H605 0.959 . S
C607 H606 0.961 . S
C607 H608 0.960 . S
H608 C607 0.960 . S
H609 N589 0.862 . S
O610 Co578 1.920 . S
O610 C583 1.289 . S
C611 O603 1.258 . S
C611 O604 1.266 . S
H612 C618 0.930 . S
H613 C622 0.930 . S
H614 C627 0.929 . S
H615 C625 0.929 . S
H616 C620 0.929 . S
H617 C626 0.929 . S
C618 H612 0.930 . S
C618 C619 1.367 . S
C618 C626 1.378 . S
C619 C618 1.367 . S
C619 C627 1.433 . S
C620 H616 0.929 . S
C620 C622 1.378 . S
C620 C624 1.350 . S
C621 C624 1.463 . S
C621 C626 1.350 . S
C621 N629 1.427 . S
C622 H613 0.930 . S
C622 C620 1.378 . S
C622 C623 1.367 . S
C623 C622 1.367 . S
C623 C625 1.433 . S
C624 C620 1.350 . S
C624 C621 1.463 . S
C624 N628 1.427 . S
C625 H615 0.929 . S
C625 C623 1.433 . S
C625 N628 1.384 . S
C626 H617 0.929 . S
C626 C618 1.378 . S
C626 C621 1.350 . S
C627 H614 0.929 . S
C627 C619 1.433 . S
C627 N629 1.384 . S
N628 C624 1.427 . S
N628 C625 1.384 . S
N629 C621 1.427 . S
N629 C627 1.384 . S
H630 C636 0.930 . S
H631 C640 0.930 . S
H632 C645 0.929 . S
H633 C643 0.929 . S
H634 C638 0.929 . S
H635 C644 0.929 . S
C636 H630 0.930 . S
C636 C637 1.367 . S
C636 C644 1.378 . S
C637 C636 1.367 . S
C637 C645 1.433 . S
C638 H634 0.929 . S
C638 C640 1.378 . S
C638 C642 1.350 . S
C639 C642 1.463 1_545 S
C639 C644 1.350 . S
C639 N647 1.427 . S
C640 H631 0.930 . S
C640 C638 1.378 . S
C640 C641 1.367 . S
C641 C640 1.367 . S
C641 C643 1.433 . S
C642 C638 1.350 . S
C642 C639 1.463 1_565 S
C642 N646 1.427 . S
C643 H633 0.929 . S
C643 C641 1.433 . S
C643 N646 1.384 . S
C644 H635 0.929 . S
C644 C636 1.378 . S
C644 C639 1.350 . S
C645 H632 0.929 . S
C645 C637 1.433 . S
C645 N647 1.384 . S
N646 C642 1.427 . S
N646 C643 1.384 . S
N647 C639 1.427 . S
N647 C645 1.384 . S
H648 C654 0.930 . S
H649 C658 0.930 . S
H650 C663 0.929 . S
H651 C661 0.929 . S
H652 C656 0.929 . S
H653 C662 0.929 . S
C654 H648 0.930 . S
C654 C655 1.367 . S
C654 C662 1.378 . S
C655 C654 1.367 . S
C655 C663 1.433 . S
C656 H652 0.929 . S
C656 C658 1.378 . S
C656 C660 1.350 . S
C657 C660 1.463 1_655 S
C657 C662 1.350 . S
C657 N665 1.427 . S
C658 H649 0.930 . S
C658 C656 1.378 . S
C658 C659 1.367 . S
C659 C658 1.367 . S
C659 C661 1.433 . S
C660 C656 1.350 . S
C660 C657 1.463 1_455 S
C660 N664 1.427 . S
C661 H651 0.929 . S
C661 C659 1.433 . S
C661 N664 1.384 . S
C662 H653 0.929 . S
C662 C654 1.378 . S
C662 C657 1.350 . S
C663 H650 0.929 . S
C663 C655 1.433 . S
C663 N665 1.384 . S
N664 C660 1.427 . S
N664 C661 1.384 . S
N665 C657 1.427 . S
N665 C663 1.384 . S
H666 C672 0.930 . S
H667 C676 0.930 . S
H668 C681 0.929 . S
H669 C679 0.929 . S
H670 C674 0.929 . S
H671 C680 0.929 . S
C672 H666 0.930 . S
C672 C673 1.367 . S
C672 C680 1.378 . S
C673 C672 1.367 . S
C673 C681 1.433 . S
C674 H670 0.929 . S
C674 C676 1.378 . S
C674 C678 1.350 . S
C675 C678 1.463 . S
C675 C680 1.350 . S
C675 N683 1.427 . S
C676 H667 0.930 . S
C676 C674 1.378 . S
C676 C677 1.367 . S
C677 C676 1.367 . S
C677 C679 1.433 . S
C678 C674 1.350 . S
C678 C675 1.463 . S
C678 N682 1.427 . S
C679 H669 0.929 . S
C679 C677 1.433 . S
C679 N682 1.384 . S
C680 H671 0.929 . S
C680 C672 1.378 . S
C680 C675 1.350 . S
C681 H668 0.929 . S
C681 C673 1.433 . S
C681 N683 1.384 . S
N682 C678 1.427 . S
N682 C679 1.384 . S
N683 C675 1.427 . S
N683 C681 1.384 . S
H684 C690 0.930 . S
H685 C694 0.930 . S
H686 C699 0.929 . S
H687 C697 0.929 . S
H688 C692 0.929 . S
H689 C698 0.929 . S
C690 H684 0.930 . S
C690 C691 1.367 . S
C690 C698 1.378 . S
C691 C690 1.367 . S
C691 C699 1.433 . S
C692 H688 0.929 . S
C692 C694 1.378 . S
C692 C696 1.350 . S
C693 C696 1.463 1_545 S
C693 C698 1.350 . S
C693 N701 1.427 . S
C694 H685 0.930 . S
C694 C692 1.378 . S
C694 C695 1.367 . S
C695 C694 1.367 . S
C695 C697 1.433 . S
C696 C692 1.350 . S
C696 C693 1.463 1_565 S
C696 N700 1.427 . S
C697 H687 0.929 . S
C697 C695 1.433 . S
C697 N700 1.384 . S
C698 H689 0.929 . S
C698 C690 1.378 . S
C698 C693 1.350 . S
C699 H686 0.929 . S
C699 C691 1.433 . S
C699 N701 1.384 . S
N700 C696 1.427 . S
N700 C697 1.384 . S
N701 C693 1.427 . S
N701 C699 1.384 . S
H702 C708 0.930 . S
H703 C712 0.930 . S
H704 C717 0.929 . S
H705 C715 0.929 . S
H706 C710 0.929 . S
H707 C716 0.929 . S
C708 H702 0.930 . S
C708 C709 1.367 . S
C708 C716 1.378 . S
C709 C708 1.367 . S
C709 C717 1.433 . S
C710 H706 0.929 . S
C710 C712 1.378 . S
C710 C714 1.350 . S
C711 C714 1.463 1_655 S
C711 C716 1.350 . S
C711 N719 1.427 . S
C712 H703 0.930 . S
C712 C710 1.378 . S
C712 C713 1.367 . S
C713 C712 1.367 . S
C713 C715 1.433 . S
C714 C710 1.350 . S
C714 C711 1.463 1_455 S
C714 N718 1.427 . S
C715 H705 0.929 . S
C715 C713 1.433 . S
C715 N718 1.384 . S
C716 H707 0.929 . S
C716 C708 1.378 . S
C716 C711 1.350 . S
C717 H704 0.929 . S
C717 C709 1.433 . S
C717 N719 1.384 . S
N718 C714 1.427 . S
N718 C715 1.384 . S
N719 C711 1.427 . S
N719 C717 1.384 . S
H720 C726 0.930 . S
H721 C730 0.930 . S
H722 C735 0.929 . S
H723 C733 0.929 . S
H724 C728 0.929 . S
H725 C734 0.929 . S
C726 H720 0.930 . S
C726 C727 1.367 . S
C726 C734 1.378 . S
C727 C726 1.367 . S
C727 C735 1.433 . S
C728 H724 0.929 . S
C728 C730 1.378 . S
C728 C732 1.350 . S
C729 C732 1.463 . S
C729 C734 1.350 . S
C729 N737 1.427 . S
C730 H721 0.930 . S
C730 C728 1.378 . S
C730 C731 1.367 . S
C731 C730 1.367 . S
C731 C733 1.433 . S
C732 C728 1.350 . S
C732 C729 1.463 . S
C732 N736 1.427 . S
C733 H723 0.929 . S
C733 C731 1.433 . S
C733 N736 1.384 . S
C734 H725 0.929 . S
C734 C726 1.378 . S
C734 C729 1.350 . S
C735 H722 0.929 . S
C735 C727 1.433 . S
C735 N737 1.384 . S
N736 C732 1.427 . S
N736 C733 1.384 . S
N737 C729 1.427 . S
N737 C735 1.384 . S
H738 C744 0.930 . S
H739 C748 0.930 . S
H740 C753 0.929 . S
H741 C751 0.929 . S
H742 C746 0.929 . S
H743 C752 0.929 . S
C744 H738 0.930 . S
C744 C745 1.367 . S
C744 C752 1.378 . S
C745 C744 1.367 . S
C745 C753 1.433 . S
C746 H742 0.929 . S
C746 C748 1.378 . S
C746 C750 1.350 . S
C747 C750 1.463 . S
C747 C752 1.350 . S
C747 N755 1.427 . S
C748 H739 0.930 . S
C748 C746 1.378 . S
C748 C749 1.367 . S
C749 C748 1.367 . S
C749 C751 1.433 . S
C750 C746 1.350 . S
C750 C747 1.463 . S
C750 N754 1.427 . S
C751 H741 0.929 . S
C751 C749 1.433 . S
C751 N754 1.384 . S
C752 H743 0.929 . S
C752 C744 1.378 . S
C752 C747 1.350 . S
C753 H740 0.929 . S
C753 C745 1.433 . S
C753 N755 1.384 . S
N754 C750 1.427 . S
N754 C751 1.384 . S
N755 C747 1.427 . S
N755 C753 1.384 . S
H756 C762 0.930 . S
H757 C766 0.930 . S
H758 C771 0.929 . S
H759 C769 0.929 . S
H760 C764 0.929 . S
H761 C770 0.929 . S
C762 H756 0.930 . S
C762 C763 1.367 . S
C762 C770 1.378 . S
C763 C762 1.367 . S
C763 C771 1.433 . S
C764 H760 0.929 . S
C764 C766 1.378 . S
C764 C768 1.350 . S
C765 C768 1.463 . S
C765 C770 1.350 . S
C765 N773 1.427 . S
C766 H757 0.930 . S
C766 C764 1.378 . S
C766 C767 1.367 . S
C767 C766 1.367 . S
C767 C769 1.433 . S
C768 C764 1.350 . S
C768 C765 1.463 . S
C768 N772 1.427 . S
C769 H759 0.929 . S
C769 C767 1.433 . S
C769 N772 1.384 . S
C770 H761 0.929 . S
C770 C762 1.378 . S
C770 C765 1.350 . S
C771 H758 0.929 . S
C771 C763 1.433 . S
C771 N773 1.384 . S
N772 C768 1.427 . S
N772 C769 1.384 . S
N773 C765 1.427 . S
N773 C771 1.384 . S
H774 C780 0.930 . S
H775 C784 0.930 . S
H776 C789 0.929 . S
H777 C787 0.929 . S
H778 C782 0.929 . S
H779 C788 0.929 . S
C780 H774 0.930 . S
C780 C781 1.367 . S
C780 C788 1.378 . S
C781 C780 1.367 . S
C781 C789 1.433 . S
C782 H778 0.929 . S
C782 C784 1.378 . S
C782 C786 1.350 . S
C783 C786 1.463 . S
C783 C788 1.350 . S
C783 N791 1.427 . S
C784 H775 0.930 . S
C784 C782 1.378 . S
C784 C785 1.367 . S
C785 C784 1.367 . S
C785 C787 1.433 . S
C786 C782 1.350 . S
C786 C783 1.463 . S
C786 N790 1.427 . S
C787 H777 0.929 . S
C787 C785 1.433 . S
C787 N790 1.384 . S
C788 H779 0.929 . S
C788 C780 1.378 . S
C788 C783 1.350 . S
C789 H776 0.929 . S
C789 C781 1.433 . S
C789 N791 1.384 . S
N790 C786 1.427 . S
N790 C787 1.384 . S
N791 C783 1.427 . S
N791 C789 1.384 . S
H792 C798 0.930 . S
H793 C802 0.930 . S
H794 C807 0.929 . S
H795 C805 0.929 . S
H796 C800 0.929 . S
H797 C806 0.929 . S
C798 H792 0.930 . S
C798 C799 1.367 . S
C798 C806 1.378 . S
C799 C798 1.367 . S
C799 C807 1.433 . S
C800 H796 0.929 . S
C800 C802 1.378 . S
C800 C804 1.350 . S
C801 C804 1.463 . S
C801 C806 1.350 . S
C801 N809 1.427 . S
C802 H793 0.930 . S
C802 C800 1.378 . S
C802 C803 1.367 . S
C803 C802 1.367 . S
C803 C805 1.433 . S
C804 C800 1.350 . S
C804 C801 1.463 . S
C804 N808 1.427 . S
C805 H795 0.929 . S
C805 C803 1.433 . S
C805 N808 1.384 . S
C806 H797 0.929 . S
C806 C798 1.378 . S
C806 C801 1.350 . S
C807 H794 0.929 . S
C807 C799 1.433 . S
C807 N809 1.384 . S
N808 C804 1.427 . S
N808 C805 1.384 . S
N809 C801 1.427 . S
N809 C807 1.384 . S
H810 C816 0.930 . S
H811 C820 0.930 . S
H812 C825 0.929 . S
H813 C823 0.929 . S
H814 C818 0.929 . S
H815 C824 0.929 . S
C816 H810 0.930 . S
C816 C817 1.367 . S
C816 C824 1.378 . S
C817 C816 1.367 . S
C817 C825 1.433 . S
C818 H814 0.929 . S
C818 C820 1.378 . S
C818 C822 1.350 . S
C819 C822 1.463 . S
C819 C824 1.350 . S
C819 N827 1.427 . S
C820 H811 0.930 . S
C820 C818 1.378 . S
C820 C821 1.367 . S
C821 C820 1.367 . S
C821 C823 1.433 . S
C822 C818 1.350 . S
C822 C819 1.463 . S
C822 N826 1.427 . S
C823 H813 0.929 . S
C823 C821 1.433 . S
C823 N826 1.384 . S
C824 H815 0.929 . S
C824 C816 1.378 . S
C824 C819 1.350 . S
C825 H812 0.929 . S
C825 C817 1.433 . S
C825 N827 1.384 . S
N826 C822 1.427 . S
N826 C823 1.384 . S
N827 C819 1.427 . S
N827 C825 1.384 . S
H828 C834 0.930 . S
H829 C838 0.930 . S
H830 C843 0.929 . S
H831 C841 0.929 . S
H832 C836 0.929 . S
H833 C842 0.929 . S
C834 H828 0.930 . S
C834 C835 1.367 . S
C834 C842 1.378 . S
C835 C834 1.367 . S
C835 C843 1.433 . S
C836 H832 0.929 . S
C836 C838 1.378 . S
C836 C840 1.350 . S
C837 C840 1.463 . S
C837 C842 1.350 . S
C837 N845 1.427 . S
C838 H829 0.930 . S
C838 C836 1.378 . S
C838 C839 1.367 . S
C839 C838 1.367 . S
C839 C841 1.433 . S
C840 C836 1.350 . S
C840 C837 1.463 . S
C840 N844 1.427 . S
C841 H831 0.929 . S
C841 C839 1.433 . S
C841 N844 1.384 . S
C842 H833 0.929 . S
C842 C834 1.378 . S
C842 C837 1.350 . S
C843 H830 0.929 . S
C843 C835 1.433 . S
C843 N845 1.384 . S
N844 C840 1.427 . S
N844 C841 1.384 . S
N845 C837 1.427 . S
N845 C843 1.384 . S
H846 C852 0.930 . S
H847 C856 0.930 . S
H848 C861 0.929 . S
H849 C859 0.929 . S
H850 C854 0.929 . S
H851 C860 0.929 . S
C852 H846 0.930 . S
C852 C853 1.367 . S
C852 C860 1.378 . S
C853 C852 1.367 . S
C853 C861 1.433 . S
C854 H850 0.929 . S
C854 C856 1.378 . S
C854 C858 1.350 . S
C855 C858 1.463 . S
C855 C860 1.350 . S
C855 N863 1.427 . S
C856 H847 0.930 . S
C856 C854 1.378 . S
C856 C857 1.367 . S
C857 C856 1.367 . S
C857 C859 1.433 . S
C858 C854 1.350 . S
C858 C855 1.463 . S
C858 N862 1.427 . S
C859 H849 0.929 . S
C859 C857 1.433 . S
C859 N862 1.384 . S
C860 H851 0.929 . S
C860 C852 1.378 . S
C860 C855 1.350 . S
C861 H848 0.929 . S
C861 C853 1.433 . S
C861 N863 1.384 . S
N862 C858 1.427 . S
N862 C859 1.384 . S
N863 C855 1.427 . S
N863 C861 1.384 . S
H864 C870 0.930 . S
H865 C874 0.930 . S
H866 C879 0.929 . S
H867 C877 0.929 . S
H868 C872 0.929 . S
H869 C878 0.929 . S
C870 H864 0.930 . S
C870 C871 1.367 . S
C870 C878 1.378 . S
C871 C870 1.367 . S
C871 C879 1.433 . S
C872 H868 0.929 . S
C872 C874 1.378 . S
C872 C876 1.350 . S
C873 C876 1.463 . S
C873 C878 1.350 . S
C873 N881 1.427 . S
C874 H865 0.930 . S
C874 C872 1.378 . S
C874 C875 1.367 . S
C875 C874 1.367 . S
C875 C877 1.433 . S
C876 C872 1.350 . S
C876 C873 1.463 . S
C876 N880 1.427 . S
C877 H867 0.929 . S
C877 C875 1.433 . S
C877 N880 1.384 . S
C878 H869 0.929 . S
C878 C870 1.378 . S
C878 C873 1.350 . S
C879 H866 0.929 . S
C879 C871 1.433 . S
C879 N881 1.384 . S
N880 C876 1.427 . S
N880 C877 1.384 . S
N881 C873 1.427 . S
N881 C879 1.384 . S
H882 C888 0.930 . S
H883 C892 0.930 . S
H884 C897 0.929 . S
H885 C895 0.929 . S
H886 C890 0.929 . S
H887 C896 0.929 . S
C888 H882 0.930 . S
C888 C889 1.367 . S
C888 C896 1.378 . S
C889 C888 1.367 . S
C889 C897 1.433 . S
C890 H886 0.929 . S
C890 C892 1.378 . S
C890 C894 1.350 . S
C891 C894 1.463 . S
C891 C896 1.350 . S
C891 N899 1.427 . S
C892 H883 0.930 . S
C892 C890 1.378 . S
C892 C893 1.367 . S
C893 C892 1.367 . S
C893 C895 1.433 . S
C894 C890 1.350 . S
C894 C891 1.463 . S
C894 N898 1.427 . S
C895 H885 0.929 . S
C895 C893 1.433 . S
C895 N898 1.384 . S
C896 H887 0.929 . S
C896 C888 1.378 . S
C896 C891 1.350 . S
C897 H884 0.929 . S
C897 C889 1.433 . S
C897 N899 1.384 . S
N898 C894 1.427 . S
N898 C895 1.384 . S
N899 C891 1.427 . S
N899 C897 1.384 . S
H900 C906 0.930 . S
H901 C910 0.930 . S
H902 C915 0.929 . S
H903 C913 0.929 . S
H904 C908 0.929 . S
H905 C914 0.929 . S
C906 H900 0.930 . S
C906 C907 1.367 . S
C906 C914 1.378 . S
C907 C906 1.367 . S
C907 C915 1.433 . S
C908 H904 0.929 . S
C908 C910 1.378 . S
C908 C912 1.350 . S
C909 C912 1.463 . S
C909 C914 1.350 . S
C909 N917 1.427 . S
C910 H901 0.930 . S
C910 C908 1.378 . S
C910 C911 1.367 . S
C911 C910 1.367 . S
C911 C913 1.433 . S
C912 C908 1.350 . S
C912 C909 1.463 . S
C912 N916 1.427 . S
C913 H903 0.929 . S
C913 C911 1.433 . S
C913 N916 1.384 . S
C914 H905 0.929 . S
C914 C906 1.378 . S
C914 C909 1.350 . S
C915 H902 0.929 . S
C915 C907 1.433 . S
C915 N917 1.384 . S
N916 C912 1.427 . S
N916 C913 1.384 . S
N917 C909 1.427 . S
N917 C915 1.384 . S
H918 C924 0.930 . S
H919 C928 0.930 . S
H920 C933 0.929 . S
H921 C931 0.929 . S
H922 C926 0.929 . S
H923 C932 0.929 . S
C924 H918 0.930 . S
C924 C925 1.367 . S
C924 C932 1.378 . S
C925 C924 1.367 . S
C925 C933 1.433 . S
C926 H922 0.929 . S
C926 C928 1.378 . S
C926 C930 1.350 . S
C927 C930 1.463 . S
C927 C932 1.350 . S
C927 N935 1.427 . S
C928 H919 0.930 . S
C928 C926 1.378 . S
C928 C929 1.367 . S
C929 C928 1.367 . S
C929 C931 1.433 . S
C930 C926 1.350 . S
C930 C927 1.463 . S
C930 N934 1.427 . S
C931 H921 0.929 . S
C931 C929 1.433 . S
C931 N934 1.384 . S
C932 H923 0.929 . S
C932 C924 1.378 . S
C932 C927 1.350 . S
C933 H920 0.929 . S
C933 C925 1.433 . S
C933 N935 1.384 . S
N934 C930 1.427 . S
N934 C931 1.384 . S
N935 C927 1.427 . S
N935 C933 1.384 . S
H936 C942 0.930 . S
H937 C946 0.930 . S
H938 C951 0.929 . S
H939 C949 0.929 . S
H940 C944 0.929 . S
H941 C950 0.929 . S
C942 H936 0.930 . S
C942 C943 1.367 . S
C942 C950 1.378 . S
C943 C942 1.367 . S
C943 C951 1.433 . S
C944 H940 0.929 . S
C944 C946 1.378 . S
C944 C948 1.350 . S
C945 C948 1.463 . S
C945 C950 1.350 . S
C945 N953 1.427 . S
C946 H937 0.930 . S
C946 C944 1.378 . S
C946 C947 1.367 . S
C947 C946 1.367 . S
C947 C949 1.433 . S
C948 C944 1.350 . S
C948 C945 1.463 . S
C948 N952 1.427 . S
C949 H939 0.929 . S
C949 C947 1.433 . S
C949 N952 1.384 . S
C950 H941 0.929 . S
C950 C942 1.378 . S
C950 C945 1.350 . S
C951 H938 0.929 . S
C951 C943 1.433 . S
C951 N953 1.384 . S
N952 C948 1.427 . S
N952 C949 1.384 . S
N953 C945 1.427 . S
N953 C951 1.384 . S
H954 C960 0.930 . S
H955 C964 0.930 . S
H956 C969 0.929 . S
H957 C967 0.929 . S
H958 C962 0.929 . S
H959 C968 0.929 . S
C960 H954 0.930 . S
C960 C961 1.367 . S
C960 C968 1.378 . S
C961 C960 1.367 . S
C961 C969 1.433 . S
C962 H958 0.929 . S
C962 C964 1.378 . S
C962 C966 1.350 . S
C963 C966 1.463 . S
C963 C968 1.350 . S
C963 N971 1.427 . S
C964 H955 0.930 . S
C964 C962 1.378 . S
C964 C965 1.367 . S
C965 C964 1.367 . S
C965 C967 1.433 . S
C966 C962 1.350 . S
C966 C963 1.463 . S
C966 N970 1.427 . S
C967 H957 0.929 . S
C967 C965 1.433 . S
C967 N970 1.384 . S
C968 H959 0.929 . S
C968 C960 1.378 . S
C968 C963 1.350 . S
C969 H956 0.929 . S
C969 C961 1.433 . S
C969 N971 1.384 . S
N970 C966 1.427 . S
N970 C967 1.384 . S
N971 C963 1.427 . S
N971 C969 1.384 . S
H972 C978 0.930 . S
H973 C982 0.930 . S
H974 C987 0.929 . S
H975 C985 0.929 . S
H976 C980 0.929 . S
H977 C986 0.929 . S
C978 H972 0.930 . S
C978 C979 1.367 . S
C978 C986 1.378 . S
C979 C978 1.367 . S
C979 C987 1.433 . S
C980 H976 0.929 . S
C980 C982 1.378 . S
C980 C984 1.350 . S
C981 C984 1.463 . S
C981 C986 1.350 . S
C981 N989 1.427 . S
C982 H973 0.930 . S
C982 C980 1.378 . S
C982 C983 1.367 . S
C983 C982 1.367 . S
C983 C985 1.433 . S
C984 C980 1.350 . S
C984 C981 1.463 . S
C984 N988 1.427 . S
C985 H975 0.929 . S
C985 C983 1.433 . S
C985 N988 1.384 . S
C986 H977 0.929 . S
C986 C978 1.378 . S
C986 C981 1.350 . S
C987 H974 0.929 . S
C987 C979 1.433 . S
C987 N989 1.384 . S
N988 C984 1.427 . S
N988 C985 1.384 . S
N989 C981 1.427 . S
N989 C987 1.384 . S
H990 C996 0.930 . S
H991 C1000 0.930 . S
H992 C1005 0.929 . S
H993 C1003 0.929 . S
H994 C998 0.929 . S
H995 C1004 0.929 . S
C996 H990 0.930 . S
C996 C997 1.367 . S
C996 C1004 1.378 . S
C997 C996 1.367 . S
C997 C1005 1.433 . S
C998 H994 0.929 . S
C998 C1000 1.378 . S
C998 C1002 1.350 . S
C999 C1002 1.463 . S
C999 C1004 1.350 . S
C999 N1007 1.427 . S
C1000 H991 0.930 . S
C1000 C998 1.378 . S
C1000 C1001 1.367 . S
C1001 C1000 1.367 . S
C1001 C1003 1.433 . S
C1002 C998 1.350 . S
C1002 C999 1.463 . S
C1002 N1006 1.427 . S
C1003 H993 0.929 . S
C1003 C1001 1.433 . S
C1003 N1006 1.384 . S
C1004 H995 0.929 . S
C1004 C996 1.378 . S
C1004 C999 1.350 . S
C1005 H992 0.929 . S
C1005 C997 1.433 . S
C1005 N1007 1.384 . S
N1006 C1002 1.427 . S
N1006 C1003 1.384 . S
N1007 C999 1.427 . S
N1007 C1005 1.384 . S
H1008 C1014 0.930 . S
H1009 C1018 0.930 . S
H1010 C1023 0.929 . S
H1011 C1021 0.929 . S
H1012 C1016 0.929 . S
H1013 C1022 0.929 . S
C1014 H1008 0.930 . S
C1014 C1015 1.367 . S
C1014 C1022 1.378 . S
C1015 C1014 1.367 . S
C1015 C1023 1.433 . S
C1016 H1012 0.929 . S
C1016 C1018 1.378 . S
C1016 C1020 1.350 . S
C1017 C1020 1.463 . S
C1017 C1022 1.350 . S
C1017 N1025 1.427 . S
C1018 H1009 0.930 . S
C1018 C1016 1.378 . S
C1018 C1019 1.367 . S
C1019 C1018 1.367 . S
C1019 C1021 1.433 . S
C1020 C1016 1.350 . S
C1020 C1017 1.463 . S
C1020 N1024 1.427 . S
C1021 H1011 0.929 . S
C1021 C1019 1.433 . S
C1021 N1024 1.384 . S
C1022 H1013 0.929 . S
C1022 C1014 1.378 . S
C1022 C1017 1.350 . S
C1023 H1010 0.929 . S
C1023 C1015 1.433 . S
C1023 N1025 1.384 . S
N1024 C1020 1.427 . S
N1024 C1021 1.384 . S
N1025 C1017 1.427 . S
N1025 C1023 1.384 . S
H1026 C1032 0.930 . S
H1027 C1036 0.930 . S
H1028 C1041 0.929 . S
H1029 C1039 0.929 . S
H1030 C1034 0.929 . S
H1031 C1040 0.929 . S
C1032 H1026 0.930 . S
C1032 C1033 1.367 . S
C1032 C1040 1.378 . S
C1033 C1032 1.367 . S
C1033 C1041 1.433 . S
C1034 H1030 0.929 . S
C1034 C1036 1.378 . S
C1034 C1038 1.350 . S
C1035 C1038 1.463 . S
C1035 C1040 1.350 . S
C1035 N1043 1.427 . S
C1036 H1027 0.930 . S
C1036 C1034 1.378 . S
C1036 C1037 1.367 . S
C1037 C1036 1.367 . S
C1037 C1039 1.433 . S
C1038 C1034 1.350 . S
C1038 C1035 1.463 . S
C1038 N1042 1.427 . S
C1039 H1029 0.929 . S
C1039 C1037 1.433 . S
C1039 N1042 1.384 . S
C1040 H1031 0.929 . S
C1040 C1032 1.378 . S
C1040 C1035 1.350 . S
C1041 H1028 0.929 . S
C1041 C1033 1.433 . S
C1041 N1043 1.384 . S
N1042 C1038 1.427 . S
N1042 C1039 1.384 . S
N1043 C1035 1.427 . S
N1043 C1041 1.384 . S
H1044 C1050 0.930 . S
H1045 C1054 0.930 . S
H1046 C1059 0.929 . S
H1047 C1057 0.929 . S
H1048 C1052 0.929 . S
H1049 C1058 0.929 . S
C1050 H1044 0.930 . S
C1050 C1051 1.367 1_556 S
C1050 C1058 1.378 . S
C1051 C1050 1.367 1_554 S
C1051 C1059 1.433 . S
C1052 H1048 0.929 . S
C1052 C1054 1.378 . S
C1052 C1056 1.350 1_554 S
C1053 C1056 1.463 1_454 S
C1053 C1058 1.350 1_554 S
C1053 N1061 1.427 . S
C1054 H1045 0.930 . S
C1054 C1052 1.378 . S
C1054 C1055 1.367 1_554 S
C1055 C1054 1.367 1_556 S
C1055 C1057 1.433 . S
C1056 C1052 1.350 1_556 S
C1056 C1053 1.463 1_656 S
C1056 N1060 1.427 . S
C1057 H1047 0.929 . S
C1057 C1055 1.433 . S
C1057 N1060 1.384 . S
C1058 H1049 0.929 . S
C1058 C1050 1.378 . S
C1058 C1053 1.350 1_556 S
C1059 H1046 0.929 . S
C1059 C1051 1.433 . S
C1059 N1061 1.384 . S
N1060 C1056 1.427 . S
N1060 C1057 1.384 . S
N1061 C1053 1.427 . S
N1061 C1059 1.384 . S
H1062 C1068 0.930 . S
H1063 C1072 0.930 . S
H1064 C1077 0.929 . S
H1065 C1075 0.929 . S
H1066 C1070 0.929 . S
H1067 C1076 0.929 . S
C1068 H1062 0.930 . S
C1068 C1069 1.367 . S
C1068 C1076 1.378 . S
C1069 C1068 1.367 . S
C1069 C1077 1.433 . S
C1070 H1066 0.929 . S
C1070 C1072 1.378 . S
C1070 C1074 1.350 . S
C1071 C1074 1.463 1_554 S
C1071 C1076 1.350 . S
C1071 N1079 1.427 . S
C1072 H1063 0.930 . S
C1072 C1070 1.378 . S
C1072 C1073 1.367 . S
C1073 C1072 1.367 . S
C1073 C1075 1.433 . S
C1074 C1070 1.350 . S
C1074 C1071 1.463 1_556 S
C1074 N1078 1.427 . S
C1075 H1065 0.929 . S
C1075 C1073 1.433 . S
C1075 N1078 1.384 . S
C1076 H1067 0.929 . S
C1076 C1068 1.378 . S
C1076 C1071 1.350 . S
C1077 H1064 0.929 . S
C1077 C1069 1.433 . S
C1077 N1079 1.384 . S
N1078 C1074 1.427 . S
N1078 C1075 1.384 . S
N1079 C1071 1.427 . S
N1079 C1077 1.384 . S
H1080 C1086 0.930 . S
H1081 C1090 0.930 . S
H1082 C1095 0.929 . S
H1083 C1093 0.929 . S
H1084 C1088 0.929 . S
H1085 C1094 0.929 . S
C1086 H1080 0.930 . S
C1086 C1087 1.367 . S
C1086 C1094 1.378 . S
C1087 C1086 1.367 . S
C1087 C1095 1.433 1_556 S
C1088 H1084 0.929 . S
C1088 C1090 1.378 . S
C1088 C1092 1.350 . S
C1089 C1092 1.463 1_546 S
C1089 C1094 1.350 . S
C1089 N1097 1.427 1_556 S
C1090 H1081 0.930 . S
C1090 C1088 1.378 . S
C1090 C1091 1.367 . S
C1091 C1090 1.367 . S
C1091 C1093 1.433 1_554 S
C1092 C1088 1.350 . S
C1092 C1089 1.463 1_564 S
C1092 N1096 1.427 1_554 S
C1093 H1083 0.929 . S
C1093 C1091 1.433 1_556 S
C1093 N1096 1.384 . S
C1094 H1085 0.929 . S
C1094 C1086 1.378 . S
C1094 C1089 1.350 . S
C1095 H1082 0.929 . S
C1095 C1087 1.433 1_554 S
C1095 N1097 1.384 . S
N1096 C1092 1.427 1_556 S
N1096 C1093 1.384 . S
N1097 C1089 1.427 1_554 S
N1097 C1095 1.384 . S
H1098 C1104 0.930 . S
H1099 C1108 0.930 . S
H1100 C1113 0.929 . S
H1101 C1111 0.929 . S
H1102 C1106 0.929 . S
H1103 C1112 0.929 . S
C1104 H1098 0.930 . S
C1104 C1105 1.367 . S
C1104 C1112 1.378 . S
C1105 C1104 1.367 . S
C1105 C1113 1.433 . S
C1106 H1102 0.929 . S
C1106 C1108 1.378 1_556 S
C1106 C1110 1.350 . S
C1107 C1110 1.463 . S
C1107 C1112 1.350 . S
C1107 N1115 1.427 . S
C1108 H1099 0.930 . S
C1108 C1106 1.378 1_554 S
C1108 C1109 1.367 . S
C1109 C1108 1.367 . S
C1109 C1111 1.433 . S
C1110 C1106 1.350 . S
C1110 C1107 1.463 . S
C1110 N1114 1.427 . S
C1111 H1101 0.929 . S
C1111 C1109 1.433 . S
C1111 N1114 1.384 1_554 S
C1112 H1103 0.929 . S
C1112 C1104 1.378 . S
C1112 C1107 1.350 . S
C1113 H1100 0.929 . S
C1113 C1105 1.433 . S
C1113 N1115 1.384 . S
N1114 C1110 1.427 . S
N1114 C1111 1.384 1_556 S
N1115 C1107 1.427 . S
N1115 C1113 1.384 . S
H1116 C1122 0.930 . S
H1117 C1126 0.930 . S
H1118 C1131 0.929 . S
H1119 C1129 0.929 . S
H1120 C1124 0.929 . S
H1121 C1130 0.929 . S
C1122 H1116 0.930 . S
C1122 C1123 1.367 . S
C1122 C1130 1.378 . S
C1123 C1122 1.367 . S
C1123 C1131 1.433 . S
C1124 H1120 0.929 . S
C1124 C1126 1.378 1_556 S
C1124 C1128 1.350 . S
C1125 C1128 1.463 . S
C1125 C1130 1.350 . S
C1125 N1133 1.427 . S
C1126 H1117 0.930 . S
C1126 C1124 1.378 1_554 S
C1126 C1127 1.367 . S
C1127 C1126 1.367 . S
C1127 C1129 1.433 . S
C1128 C1124 1.350 . S
C1128 C1125 1.463 . S
C1128 N1132 1.427 . S
C1129 H1119 0.929 . S
C1129 C1127 1.433 . S
C1129 N1132 1.384 1_554 S
C1130 H1121 0.929 . S
C1130 C1122 1.378 . S
C1130 C1125 1.350 . S
C1131 H1118 0.929 . S
C1131 C1123 1.433 . S
C1131 N1133 1.384 . S
N1132 C1128 1.427 . S
N1132 C1129 1.384 1_556 S
N1133 C1125 1.427 . S
N1133 C1131 1.384 . S
H1134 C1140 0.930 . S
H1135 C1144 0.930 . S
H1136 C1149 0.929 . S
H1137 C1147 0.929 . S
H1138 C1142 0.929 . S
H1139 C1148 0.929 . S
C1140 H1134 0.930 . S
C1140 C1141 1.367 . S
C1140 C1148 1.378 . S
C1141 C1140 1.367 . S
C1141 C1149 1.433 . S
C1142 H1138 0.929 . S
C1142 C1144 1.378 1_556 S
C1142 C1146 1.350 . S
C1143 C1146 1.463 . S
C1143 C1148 1.350 . S
C1143 N1151 1.427 . S
C1144 H1135 0.930 . S
C1144 C1142 1.378 1_554 S
C1144 C1145 1.367 . S
C1145 C1144 1.367 . S
C1145 C1147 1.433 . S
C1146 C1142 1.350 . S
C1146 C1143 1.463 . S
C1146 N1150 1.427 . S
C1147 H1137 0.929 . S
C1147 C1145 1.433 . S
C1147 N1150 1.384 1_554 S
C1148 H1139 0.929 . S
C1148 C1140 1.378 . S
C1148 C1143 1.350 . S
C1149 H1136 0.929 . S
C1149 C1141 1.433 . S
C1149 N1151 1.384 . S
N1150 C1146 1.427 . S
N1150 C1147 1.384 1_556 S
N1151 C1143 1.427 . S
N1151 C1149 1.384 . S
H1152 C1158 0.930 . S
H1153 C1162 0.930 . S
H1154 C1167 0.929 . S
H1155 C1165 0.929 . S
H1156 C1160 0.929 . S
H1157 C1166 0.929 . S
C1158 H1152 0.930 . S
C1158 C1159 1.367 . S
C1158 C1166 1.378 1_556 S
C1159 C1158 1.367 . S
C1159 C1167 1.433 . S
C1160 H1156 0.929 . S
C1160 C1162 1.378 . S
C1160 C1164 1.350 . S
C1161 C1164 1.463 . S
C1161 C1166 1.350 . S
C1161 N1169 1.427 . S
C1162 H1153 0.930 . S
C1162 C1160 1.378 . S
C1162 C1163 1.367 . S
C1163 C1162 1.367 . S
C1163 C1165 1.433 . S
C1164 C1160 1.350 . S
C1164 C1161 1.463 . S
C1164 N1168 1.427 . S
C1165 H1155 0.929 . S
C1165 C1163 1.433 . S
C1165 N1168 1.384 . S
C1166 H1157 0.929 . S
C1166 C1158 1.378 1_554 S
C1166 C1161 1.350 . S
C1167 H1154 0.929 . S
C1167 C1159 1.433 . S
C1167 N1169 1.384 1_556 S
N1168 C1164 1.427 . S
N1168 C1165 1.384 . S
N1169 C1161 1.427 . S
N1169 C1167 1.384 1_554 S
H1170 C1176 0.930 . S
H1171 C1180 0.930 . S
H1172 C1185 0.929 . S
H1173 C1183 0.929 . S
H1174 C1178 0.929 . S
H1175 C1184 0.929 . S
C1176 H1170 0.930 . S
C1176 C1177 1.367 . S
C1176 C1184 1.378 1_556 S
C1177 C1176 1.367 . S
C1177 C1185 1.433 . S
C1178 H1174 0.929 . S
C1178 C1180 1.378 . S
C1178 C1182 1.350 . S
C1179 C1182 1.463 . S
C1179 C1184 1.350 . S
C1179 N1187 1.427 . S
C1180 H1171 0.930 . S
C1180 C1178 1.378 . S
C1180 C1181 1.367 . S
C1181 C1180 1.367 . S
C1181 C1183 1.433 . S
C1182 C1178 1.350 . S
C1182 C1179 1.463 . S
C1182 N1186 1.427 . S
C1183 H1173 0.929 . S
C1183 C1181 1.433 . S
C1183 N1186 1.384 . S
C1184 H1175 0.929 . S
C1184 C1176 1.378 1_554 S
C1184 C1179 1.350 . S
C1185 H1172 0.929 . S
C1185 C1177 1.433 . S
C1185 N1187 1.384 1_556 S
N1186 C1182 1.427 . S
N1186 C1183 1.384 . S
N1187 C1179 1.427 . S
N1187 C1185 1.384 1_554 S
H1188 C1194 0.930 . S
H1189 C1198 0.930 . S
H1190 C1203 0.929 . S
H1191 C1201 0.929 . S
H1192 C1196 0.929 . S
H1193 C1202 0.929 . S
C1194 H1188 0.930 . S
C1194 C1195 1.367 . S
C1194 C1202 1.378 . S
C1195 C1194 1.367 . S
C1195 C1203 1.433 . S
C1196 H1192 0.929 . S
C1196 C1198 1.378 1_554 S
C1196 C1200 1.350 . S
C1197 C1200 1.463 . S
C1197 C1202 1.350 . S
C1197 N1205 1.427 . S
C1198 H1189 0.930 . S
C1198 C1196 1.378 1_556 S
C1198 C1199 1.367 . S
C1199 C1198 1.367 . S
C1199 C1201 1.433 . S
C1200 C1196 1.350 . S
C1200 C1197 1.463 . S
C1200 N1204 1.427 . S
C1201 H1191 0.929 . S
C1201 C1199 1.433 . S
C1201 N1204 1.384 1_556 S
C1202 H1193 0.929 . S
C1202 C1194 1.378 . S
C1202 C1197 1.350 . S
C1203 H1190 0.929 . S
C1203 C1195 1.433 . S
C1203 N1205 1.384 . S
N1204 C1200 1.427 . S
N1204 C1201 1.384 1_554 S
N1205 C1197 1.427 . S
N1205 C1203 1.384 . S
H1206 C1212 0.930 . S
H1207 C1216 0.930 . S
H1208 C1221 0.929 . S
H1209 C1219 0.929 . S
H1210 C1214 0.929 . S
H1211 C1220 0.929 . S
C1212 H1206 0.930 . S
C1212 C1213 1.367 . S
C1212 C1220 1.378 . S
C1213 C1212 1.367 . S
C1213 C1221 1.433 . S
C1214 H1210 0.929 . S
C1214 C1216 1.378 . S
C1214 C1218 1.350 . S
C1215 C1218 1.463 . S
C1215 C1220 1.350 . S
C1215 N1223 1.427 . S
C1216 H1207 0.930 . S
C1216 C1214 1.378 . S
C1216 C1217 1.367 . S
C1217 C1216 1.367 . S
C1217 C1219 1.433 . S
C1218 C1214 1.350 . S
C1218 C1215 1.463 . S
C1218 N1222 1.427 . S
C1219 H1209 0.929 . S
C1219 C1217 1.433 . S
C1219 N1222 1.384 . S
C1220 H1211 0.929 . S
C1220 C1212 1.378 . S
C1220 C1215 1.350 . S
C1221 H1208 0.929 . S
C1221 C1213 1.433 . S
C1221 N1223 1.384 . S
N1222 C1218 1.427 . S
N1222 C1219 1.384 . S
N1223 C1215 1.427 . S
N1223 C1221 1.384 . S
H1224 C1230 0.930 . S
H1225 C1234 0.930 . S
H1226 C1239 0.929 . S
H1227 C1237 0.929 . S
H1228 C1232 0.929 . S
H1229 C1238 0.929 . S
C1230 H1224 0.930 . S
C1230 C1231 1.367 . S
C1230 C1238 1.378 . S
C1231 C1230 1.367 . S
C1231 C1239 1.433 . S
C1232 H1228 0.929 . S
C1232 C1234 1.378 . S
C1232 C1236 1.350 . S
C1233 C1236 1.463 . S
C1233 C1238 1.350 . S
C1233 N1241 1.427 . S
C1234 H1225 0.930 . S
C1234 C1232 1.378 . S
C1234 C1235 1.367 . S
C1235 C1234 1.367 . S
C1235 C1237 1.433 . S
C1236 C1232 1.350 . S
C1236 C1233 1.463 . S
C1236 N1240 1.427 . S
C1237 H1227 0.929 . S
C1237 C1235 1.433 . S
C1237 N1240 1.384 . S
C1238 H1229 0.929 . S
C1238 C1230 1.378 . S
C1238 C1233 1.350 . S
C1239 H1226 0.929 . S
C1239 C1231 1.433 . S
C1239 N1241 1.384 . S
N1240 C1236 1.427 . S
N1240 C1237 1.384 . S
N1241 C1233 1.427 . S
N1241 C1239 1.384 . S
H1242 C1248 0.930 . S
H1243 C1252 0.930 . S
H1244 C1257 0.929 . S
H1245 C1255 0.929 . S
H1246 C1250 0.929 . S
H1247 C1256 0.929 . S
C1248 H1242 0.930 . S
C1248 C1249 1.367 . S
C1248 C1256 1.378 . S
C1249 C1248 1.367 . S
C1249 C1257 1.433 . S
C1250 H1246 0.929 . S
C1250 C1252 1.378 . S
C1250 C1254 1.350 . S
C1251 C1254 1.463 . S
C1251 C1256 1.350 . S
C1251 N1259 1.427 . S
C1252 H1243 0.930 . S
C1252 C1250 1.378 . S
C1252 C1253 1.367 . S
C1253 C1252 1.367 . S
C1253 C1255 1.433 . S
C1254 C1250 1.350 . S
C1254 C1251 1.463 . S
C1254 N1258 1.427 . S
C1255 H1245 0.929 . S
C1255 C1253 1.433 . S
C1255 N1258 1.384 . S
C1256 H1247 0.929 . S
C1256 C1248 1.378 . S
C1256 C1251 1.350 . S
C1257 H1244 0.929 . S
C1257 C1249 1.433 . S
C1257 N1259 1.384 . S
N1258 C1254 1.427 . S
N1258 C1255 1.384 . S
N1259 C1251 1.427 . S
N1259 C1257 1.384 . S
H1260 C1266 0.930 . S
H1261 C1270 0.930 . S
H1262 C1275 0.929 . S
H1263 C1273 0.929 . S
H1264 C1268 0.929 . S
H1265 C1274 0.929 . S
C1266 H1260 0.930 . S
C1266 C1267 1.367 . S
C1266 C1274 1.378 . S
C1267 C1266 1.367 . S
C1267 C1275 1.433 . S
C1268 H1264 0.929 . S
C1268 C1270 1.378 . S
C1268 C1272 1.350 . S
C1269 C1272 1.463 . S
C1269 C1274 1.350 . S
C1269 N1277 1.427 . S
C1270 H1261 0.930 . S
C1270 C1268 1.378 . S
C1270 C1271 1.367 . S
C1271 C1270 1.367 . S
C1271 C1273 1.433 . S
C1272 C1268 1.350 . S
C1272 C1269 1.463 . S
C1272 N1276 1.427 . S
C1273 H1263 0.929 . S
C1273 C1271 1.433 . S
C1273 N1276 1.384 . S
C1274 H1265 0.929 . S
C1274 C1266 1.378 . S
C1274 C1269 1.350 . S
C1275 H1262 0.929 . S
C1275 C1267 1.433 . S
C1275 N1277 1.384 . S
N1276 C1272 1.427 . S
N1276 C1273 1.384 . S
N1277 C1269 1.427 . S
N1277 C1275 1.384 . S
H1278 C1284 0.930 . S
H1279 C1288 0.930 . S
H1280 C1293 0.929 . S
H1281 C1291 0.929 . S
H1282 C1286 0.929 . S
H1283 C1292 0.929 . S
C1284 H1278 0.930 . S
C1284 C1285 1.367 . S
C1284 C1292 1.378 . S
C1285 C1284 1.367 . S
C1285 C1293 1.433 . S
C1286 H1282 0.929 . S
C1286 C1288 1.378 . S
C1286 C1290 1.350 . S
C1287 C1290 1.463 . S
C1287 C1292 1.350 . S
C1287 N1295 1.427 . S
C1288 H1279 0.930 . S
C1288 C1286 1.378 . S
C1288 C1289 1.367 . S
C1289 C1288 1.367 . S
C1289 C1291 1.433 . S
C1290 C1286 1.350 . S
C1290 C1287 1.463 . S
C1290 N1294 1.427 . S
C1291 H1281 0.929 . S
C1291 C1289 1.433 . S
C1291 N1294 1.384 . S
C1292 H1283 0.929 . S
C1292 C1284 1.378 . S
C1292 C1287 1.350 . S
C1293 H1280 0.929 . S
C1293 C1285 1.433 . S
C1293 N1295 1.384 . S
N1294 C1290 1.427 . S
N1294 C1291 1.384 . S
N1295 C1287 1.427 . S
N1295 C1293 1.384 . S
H1296 C1302 0.930 . S
H1297 C1306 0.930 . S
H1298 C1311 0.929 . S
H1299 C1309 0.929 . S
H1300 C1304 0.929 . S
H1301 C1310 0.929 . S
C1302 H1296 0.930 . S
C1302 C1303 1.367 . S
C1302 C1310 1.378 . S
C1303 C1302 1.367 . S
C1303 C1311 1.433 . S
C1304 H1300 0.929 . S
C1304 C1306 1.378 . S
C1304 C1308 1.350 . S
C1305 C1308 1.463 . S
C1305 C1310 1.350 . S
C1305 N1313 1.427 . S
C1306 H1297 0.930 . S
C1306 C1304 1.378 . S
C1306 C1307 1.367 . S
C1307 C1306 1.367 . S
C1307 C1309 1.433 . S
C1308 C1304 1.350 . S
C1308 C1305 1.463 . S
C1308 N1312 1.427 . S
C1309 H1299 0.929 . S
C1309 C1307 1.433 . S
C1309 N1312 1.384 . S
C1310 H1301 0.929 . S
C1310 C1302 1.378 . S
C1310 C1305 1.350 . S
C1311 H1298 0.929 . S
C1311 C1303 1.433 . S
C1311 N1313 1.384 . S
N1312 C1308 1.427 . S
N1312 C1309 1.384 . S
N1313 C1305 1.427 . S
N1313 C1311 1.384 . S
H1314 C1320 0.930 . S
H1315 C1324 0.930 . S
H1316 C1329 0.929 . S
H1317 C1327 0.929 . S
H1318 C1322 0.929 . S
H1319 C1328 0.929 . S
C1320 H1314 0.930 . S
C1320 C1321 1.367 . S
C1320 C1328 1.378 . S
C1321 C1320 1.367 . S
C1321 C1329 1.433 . S
C1322 H1318 0.929 . S
C1322 C1324 1.378 . S
C1322 C1326 1.350 . S
C1323 C1326 1.463 . S
C1323 C1328 1.350 . S
C1323 N1331 1.427 . S
C1324 H1315 0.930 . S
C1324 C1322 1.378 . S
C1324 C1325 1.367 . S
C1325 C1324 1.367 . S
C1325 C1327 1.433 . S
C1326 C1322 1.350 . S
C1326 C1323 1.463 . S
C1326 N1330 1.427 . S
C1327 H1317 0.929 . S
C1327 C1325 1.433 . S
C1327 N1330 1.384 . S
C1328 H1319 0.929 . S
C1328 C1320 1.378 . S
C1328 C1323 1.350 . S
C1329 H1316 0.929 . S
C1329 C1321 1.433 . S
C1329 N1331 1.384 . S
N1330 C1326 1.427 . S
N1330 C1327 1.384 . S
N1331 C1323 1.427 . S
N1331 C1329 1.384 . S
H1332 C1338 0.930 . S
H1333 C1342 0.930 . S
H1334 C1347 0.929 . S
H1335 C1345 0.929 . S
H1336 C1340 0.929 . S
H1337 C1346 0.929 . S
C1338 H1332 0.930 . S
C1338 C1339 1.367 . S
C1338 C1346 1.378 . S
C1339 C1338 1.367 . S
C1339 C1347 1.433 . S
C1340 H1336 0.929 . S
C1340 C1342 1.378 . S
C1340 C1344 1.350 . S
C1341 C1344 1.463 . S
C1341 C1346 1.350 . S
C1341 N1349 1.427 . S
C1342 H1333 0.930 . S
C1342 C1340 1.378 . S
C1342 C1343 1.367 . S
C1343 C1342 1.367 . S
C1343 C1345 1.433 . S
C1344 C1340 1.350 . S
C1344 C1341 1.463 . S
C1344 N1348 1.427 . S
C1345 H1335 0.929 . S
C1345 C1343 1.433 . S
C1345 N1348 1.384 . S
C1346 H1337 0.929 . S
C1346 C1338 1.378 . S
C1346 C1341 1.350 . S
C1347 H1334 0.929 . S
C1347 C1339 1.433 . S
C1347 N1349 1.384 . S
N1348 C1344 1.427 . S
N1348 C1345 1.384 . S
N1349 C1341 1.427 . S
N1349 C1347 1.384 . S
H1350 C1356 0.930 . S
H1351 C1360 0.930 . S
H1352 C1365 0.929 . S
H1353 C1363 0.929 . S
H1354 C1358 0.929 . S
H1355 C1364 0.929 . S
C1356 H1350 0.930 . S
C1356 C1357 1.367 . S
C1356 C1364 1.378 . S
C1357 C1356 1.367 . S
C1357 C1365 1.433 . S
C1358 H1354 0.929 . S
C1358 C1360 1.378 . S
C1358 C1362 1.350 . S
C1359 C1362 1.463 . S
C1359 C1364 1.350 . S
C1359 N1367 1.427 . S
C1360 H1351 0.930 . S
C1360 C1358 1.378 . S
C1360 C1361 1.367 . S
C1361 C1360 1.367 . S
C1361 C1363 1.433 . S
C1362 C1358 1.350 . S
C1362 C1359 1.463 . S
C1362 N1366 1.427 . S
C1363 H1353 0.929 . S
C1363 C1361 1.433 . S
C1363 N1366 1.384 . S
C1364 H1355 0.929 . S
C1364 C1356 1.378 . S
C1364 C1359 1.350 . S
C1365 H1352 0.929 . S
C1365 C1357 1.433 . S
C1365 N1367 1.384 . S
N1366 C1362 1.427 . S
N1366 C1363 1.384 . S
N1367 C1359 1.427 . S
N1367 C1365 1.384 . S
H1368 C1374 0.930 . S
H1369 C1378 0.930 . S
H1370 C1383 0.929 . S
H1371 C1381 0.929 . S
H1372 C1376 0.929 . S
H1373 C1382 0.929 . S
C1374 H1368 0.930 . S
C1374 C1375 1.367 . S
C1374 C1382 1.378 . S
C1375 C1374 1.367 . S
C1375 C1383 1.433 . S
C1376 H1372 0.929 . S
C1376 C1378 1.378 . S
C1376 C1380 1.350 . S
C1377 C1380 1.463 . S
C1377 C1382 1.350 . S
C1377 N1385 1.427 . S
C1378 H1369 0.930 . S
C1378 C1376 1.378 . S
C1378 C1379 1.367 . S
C1379 C1378 1.367 . S
C1379 C1381 1.433 . S
C1380 C1376 1.350 . S
C1380 C1377 1.463 . S
C1380 N1384 1.427 . S
C1381 H1371 0.929 . S
C1381 C1379 1.433 . S
C1381 N1384 1.384 . S
C1382 H1373 0.929 . S
C1382 C1374 1.378 . S
C1382 C1377 1.350 . S
C1383 H1370 0.929 . S
C1383 C1375 1.433 . S
C1383 N1385 1.384 . S
N1384 C1380 1.427 . S
N1384 C1381 1.384 . S
N1385 C1377 1.427 . S
N1385 C1383 1.384 . S
H1386 C1392 0.930 . S
H1387 C1396 0.930 . S
H1388 C1401 0.929 . S
H1389 C1399 0.929 . S
H1390 C1394 0.929 . S
H1391 C1400 0.929 . S
C1392 H1386 0.930 . S
C1392 C1393 1.367 . S
C1392 C1400 1.378 . S
C1393 C1392 1.367 . S
C1393 C1401 1.433 . S
C1394 H1390 0.929 . S
C1394 C1396 1.378 . S
C1394 C1398 1.350 . S
C1395 C1398 1.463 . S
C1395 C1400 1.350 . S
C1395 N1403 1.427 . S
C1396 H1387 0.930 . S
C1396 C1394 1.378 . S
C1396 C1397 1.367 . S
C1397 C1396 1.367 . S
C1397 C1399 1.433 . S
C1398 C1394 1.350 . S
C1398 C1395 1.463 . S
C1398 N1402 1.427 . S
C1399 H1389 0.929 . S
C1399 C1397 1.433 . S
C1399 N1402 1.384 . S
C1400 H1391 0.929 . S
C1400 C1392 1.378 . S
C1400 C1395 1.350 . S
C1401 H1388 0.929 . S
C1401 C1393 1.433 . S
C1401 N1403 1.384 . S
N1402 C1398 1.427 . S
N1402 C1399 1.384 . S
N1403 C1395 1.427 . S
N1403 C1401 1.384 . S
H1404 C1410 0.930 . S
H1405 C1414 0.930 . S
H1406 C1419 0.929 . S
H1407 C1417 0.929 . S
H1408 C1412 0.929 . S
H1409 C1418 0.929 . S
C1410 H1404 0.930 . S
C1410 C1411 1.367 . S
C1410 C1418 1.378 . S
C1411 C1410 1.367 . S
C1411 C1419 1.433 . S
C1412 H1408 0.929 . S
C1412 C1414 1.378 . S
C1412 C1416 1.350 . S
C1413 C1416 1.463 . S
C1413 C1418 1.350 . S
C1413 N1421 1.427 . S
C1414 H1405 0.930 . S
C1414 C1412 1.378 . S
C1414 C1415 1.367 . S
C1415 C1414 1.367 . S
C1415 C1417 1.433 . S
C1416 C1412 1.350 . S
C1416 C1413 1.463 . S
C1416 N1420 1.427 . S
C1417 H1407 0.929 . S
C1417 C1415 1.433 . S
C1417 N1420 1.384 . S
C1418 H1409 0.929 . S
C1418 C1410 1.378 . S
C1418 C1413 1.350 . S
C1419 H1406 0.929 . S
C1419 C1411 1.433 . S
C1419 N1421 1.384 . S
N1420 C1416 1.427 . S
N1420 C1417 1.384 . S
N1421 C1413 1.427 . S
N1421 C1419 1.384 . S
C619 C104 1.679 . S
C623 C2 1.685 . S
C637 C138 1.676 . S
C641 C36 1.678 . S
C655 C172 1.676 . S
C659 C70 1.679 . S
C673 C67 1.169 . S
C677 C203 1.169 . S
C691 C135 1.172 . S
C695 C101 1.172 . S
C709 C169 1.171 . S
C713 C33 1.169 . S
C727 C308 1.677 . S
C731 C206 1.684 . S
C745 C240 1.679 . S
C749 C342 1.676 . S
C763 C274 1.684 . S
C767 C376 1.678 . S
C781 C271 1.169 . S
C785 C407 1.171 . S
C799 C305 1.169 . S
C803 C339 1.171 . S
C817 C373 1.169 . S
C821 C237 1.169 . S
C835 C410 1.680 . S
C839 C512 1.685 . S
C853 C546 1.680 . S
C857 C444 1.685 . S
C871 C478 1.684 . S
C875 C580 1.682 . S
C889 C475 1.170 . S
C893 C611 1.169 . S
C907 C543 1.171 . S
C911 C509 1.169 . S
C925 C441 1.170 . S
C929 C577 1.169 . S
C943 C20 1.793 . S
C947 C598 1.796 . S
C961 C530 1.796 . S
C965 C54 1.792 . S
C979 C564 1.796 . S
C983 C88 1.792 . S
C997 C258 1.794 . S
C1001 C122 1.793 . S
C1015 C292 1.791 . S
C1019 C156 1.797 . S
C1033 C224 1.793 . S
C1037 C190 1.796 . S
C1051 C462 1.795 . S
C1055 C326 1.792 . S
C1069 C496 1.797 . S
C1073 C360 1.792 . S
C1087 C394 1.793 . S
C1091 C428 1.796 . S
C1105 C5 1.373 . S
C1109 C9 1.303 . S
C1123 C39 1.366 . S
C1127 C43 1.284 . S
C1141 C73 1.367 . S
C1145 C77 1.297 . S
C1159 C111 1.304 . S
C1163 C107 1.371 . S
C1177 C145 1.289 . S
C1181 C141 1.364 . S
C1195 C175 1.371 . S
C1199 C179 1.305 . S
C1213 C209 1.372 1_554 S
C1217 C213 1.295 . S
C1231 C247 1.291 . S
C1235 C243 1.365 1_554 S
C1249 C281 1.305 . S
C1253 C277 1.373 1_554 S
C1267 C311 1.372 . S
C1271 C315 1.305 . S
C1285 C345 1.365 . S
C1289 C349 1.283 . S
C1303 C379 1.373 . S
C1307 C383 1.300 . S
C1321 C413 1.364 . S
C1325 C417 1.284 . S
C1339 C447 1.373 . S
C1343 C451 1.304 . S
C1357 C485 1.305 . S
C1361 C481 1.372 . S
C1375 C515 1.368 1_556 S
C1379 C519 1.301 . S
C1393 C553 1.284 . S
C1397 C549 1.366 1_556 S
C1411 C587 1.297 . S
C1415 C583 1.367 1_556 S
