# Generated by pormake.
# Topology ato, (4)-cn, num edge types: 1
# Building blocks:
#     Node 0, Type 0, BuildingBlock: NAHDIM_clean_sbu_0, # of connection points: 4
#     Node 1, Type 0, BuildingBlock: NAHDIM_clean_sbu_0, # of connection points: 4
#     Node 2, Type 0, BuildingBlock: NAHDIM_clean_sbu_0, # of connection points: 4
#     Node 3, Type 0, BuildingBlock: NAHDIM_clean_sbu_0, # of connection points: 4
#     Node 4, Type 0, BuildingBlock: NAHDIM_clean_sbu_0, # of connection points: 4
#     Node 5, Type 0, BuildingBlock: NAHDIM_clean_sbu_0, # of connection points: 4
#     Node 6, Type 0, BuildingBlock: NAHDIM_clean_sbu_0, # of connection points: 4
#     Node 7, Type 0, BuildingBlock: NAHDIM_clean_sbu_0, # of connection points: 4
#     Node 8, Type 0, BuildingBlock: NAHDIM_clean_sbu_0, # of connection points: 4
#     Node 9, Type 0, BuildingBlock: NAHDIM_clean_sbu_0, # of connection points: 4
#     Node 10, Type 0, BuildingBlock: NAHDIM_clean_sbu_0, # of connection points: 4
#     Node 11, Type 0, BuildingBlock: NAHDIM_clean_sbu_0, # of connection points: 4
#     Node 12, Type 0, BuildingBlock: NAHDIM_clean_sbu_0, # of connection points: 4
#     Node 13, Type 0, BuildingBlock: NAHDIM_clean_sbu_0, # of connection points: 4
#     Node 14, Type 0, BuildingBlock: NAHDIM_clean_sbu_0, # of connection points: 4
#     Node 15, Type 0, BuildingBlock: NAHDIM_clean_sbu_0, # of connection points: 4
#     Node 16, Type 0, BuildingBlock: NAHDIM_clean_sbu_0, # of connection points: 4
#     Node 17, Type 0, BuildingBlock: NAHDIM_clean_sbu_0, # of connection points: 4
#     Node 18, Type 0, BuildingBlock: NAHDIM_clean_sbu_0, # of connection points: 4
#     Node 19, Type 0, BuildingBlock: NAHDIM_clean_sbu_0, # of connection points: 4
#     Node 20, Type 0, BuildingBlock: NAHDIM_clean_sbu_0, # of connection points: 4
#     Node 21, Type 0, BuildingBlock: NAHDIM_clean_sbu_0, # of connection points: 4
#     Node 22, Type 0, BuildingBlock: NAHDIM_clean_sbu_0, # of connection points: 4
#     Node 23, Type 0, BuildingBlock: NAHDIM_clean_sbu_0, # of connection points: 4
#     Node 24, Type 0, BuildingBlock: NAHDIM_clean_sbu_0, # of connection points: 4
#     Node 25, Type 0, BuildingBlock: NAHDIM_clean_sbu_0, # of connection points: 4
#     Node 26, Type 0, BuildingBlock: NAHDIM_clean_sbu_0, # of connection points: 4
#     Node 27, Type 0, BuildingBlock: NAHDIM_clean_sbu_0, # of connection points: 4
#     Node 28, Type 0, BuildingBlock: NAHDIM_clean_sbu_0, # of connection points: 4
#     Node 29, Type 0, BuildingBlock: NAHDIM_clean_sbu_0, # of connection points: 4
#     Node 30, Type 0, BuildingBlock: NAHDIM_clean_sbu_0, # of connection points: 4
#     Node 31, Type 0, BuildingBlock: NAHDIM_clean_sbu_0, # of connection points: 4
#     Node 32, Type 0, BuildingBlock: NAHDIM_clean_sbu_0, # of connection points: 4
#     Node 33, Type 0, BuildingBlock: NAHDIM_clean_sbu_0, # of connection points: 4
#     Node 34, Type 0, BuildingBlock: NAHDIM_clean_sbu_0, # of connection points: 4
#     Node 35, Type 0, BuildingBlock: NAHDIM_clean_sbu_0, # of connection points: 4
#     Edge 36, Type (0, 0), BuildingBlock: OJICUG_clean_linker_0, # of connection points: 2
#     Edge 37, Type (0, 0), BuildingBlock: OJICUG_clean_linker_0, # of connection points: 2
#     Edge 38, Type (0, 0), BuildingBlock: OJICUG_clean_linker_0, # of connection points: 2
#     Edge 39, Type (0, 0), BuildingBlock: OJICUG_clean_linker_0, # of connection points: 2
#     Edge 40, Type (0, 0), BuildingBlock: OJICUG_clean_linker_0, # of connection points: 2
#     Edge 41, Type (0, 0), BuildingBlock: OJICUG_clean_linker_0, # of connection points: 2
#     Edge 42, Type (0, 0), BuildingBlock: OJICUG_clean_linker_0, # of connection points: 2
#     Edge 43, Type (0, 0), BuildingBlock: OJICUG_clean_linker_0, # of connection points: 2
#     Edge 44, Type (0, 0), BuildingBlock: OJICUG_clean_linker_0, # of connection points: 2
#     Edge 45, Type (0, 0), BuildingBlock: OJICUG_clean_linker_0, # of connection points: 2
#     Edge 46, Type (0, 0), BuildingBlock: OJICUG_clean_linker_0, # of connection points: 2
#     Edge 47, Type (0, 0), BuildingBlock: OJICUG_clean_linker_0, # of connection points: 2
#     Edge 48, Type (0, 0), BuildingBlock: OJICUG_clean_linker_0, # of connection points: 2
#     Edge 49, Type (0, 0), BuildingBlock: OJICUG_clean_linker_0, # of connection points: 2
#     Edge 50, Type (0, 0), BuildingBlock: OJICUG_clean_linker_0, # of connection points: 2
#     Edge 51, Type (0, 0), BuildingBlock: OJICUG_clean_linker_0, # of connection points: 2
#     Edge 52, Type (0, 0), BuildingBlock: OJICUG_clean_linker_0, # of connection points: 2
#     Edge 53, Type (0, 0), BuildingBlock: OJICUG_clean_linker_0, # of connection points: 2
#     Edge 54, Type (0, 0), BuildingBlock: OJICUG_clean_linker_0, # of connection points: 2
#     Edge 55, Type (0, 0), BuildingBlock: OJICUG_clean_linker_0, # of connection points: 2
#     Edge 56, Type (0, 0), BuildingBlock: OJICUG_clean_linker_0, # of connection points: 2
#     Edge 57, Type (0, 0), BuildingBlock: OJICUG_clean_linker_0, # of connection points: 2
#     Edge 58, Type (0, 0), BuildingBlock: OJICUG_clean_linker_0, # of connection points: 2
#     Edge 59, Type (0, 0), BuildingBlock: OJICUG_clean_linker_0, # of connection points: 2
#     Edge 60, Type (0, 0), BuildingBlock: OJICUG_clean_linker_0, # of connection points: 2
#     Edge 61, Type (0, 0), BuildingBlock: OJICUG_clean_linker_0, # of connection points: 2
#     Edge 62, Type (0, 0), BuildingBlock: OJICUG_clean_linker_0, # of connection points: 2
#     Edge 63, Type (0, 0), BuildingBlock: OJICUG_clean_linker_0, # of connection points: 2
#     Edge 64, Type (0, 0), BuildingBlock: OJICUG_clean_linker_0, # of connection points: 2
#     Edge 65, Type (0, 0), BuildingBlock: OJICUG_clean_linker_0, # of connection points: 2
#     Edge 66, Type (0, 0), BuildingBlock: OJICUG_clean_linker_0, # of connection points: 2
#     Edge 67, Type (0, 0), BuildingBlock: OJICUG_clean_linker_0, # of connection points: 2
#     Edge 68, Type (0, 0), BuildingBlock: OJICUG_clean_linker_0, # of connection points: 2
#     Edge 69, Type (0, 0), BuildingBlock: OJICUG_clean_linker_0, # of connection points: 2
#     Edge 70, Type (0, 0), BuildingBlock: OJICUG_clean_linker_0, # of connection points: 2
#     Edge 71, Type (0, 0), BuildingBlock: OJICUG_clean_linker_0, # of connection points: 2
#     Edge 72, Type (0, 0), BuildingBlock: OJICUG_clean_linker_0, # of connection points: 2
#     Edge 73, Type (0, 0), BuildingBlock: OJICUG_clean_linker_0, # of connection points: 2
#     Edge 74, Type (0, 0), BuildingBlock: OJICUG_clean_linker_0, # of connection points: 2
#     Edge 75, Type (0, 0), BuildingBlock: OJICUG_clean_linker_0, # of connection points: 2
#     Edge 76, Type (0, 0), BuildingBlock: OJICUG_clean_linker_0, # of connection points: 2
#     Edge 77, Type (0, 0), BuildingBlock: OJICUG_clean_linker_0, # of connection points: 2
#     Edge 78, Type (0, 0), BuildingBlock: OJICUG_clean_linker_0, # of connection points: 2
#     Edge 79, Type (0, 0), BuildingBlock: OJICUG_clean_linker_0, # of connection points: 2
#     Edge 80, Type (0, 0), BuildingBlock: OJICUG_clean_linker_0, # of connection points: 2
#     Edge 81, Type (0, 0), BuildingBlock: OJICUG_clean_linker_0, # of connection points: 2
#     Edge 82, Type (0, 0), BuildingBlock: OJICUG_clean_linker_0, # of connection points: 2
#     Edge 83, Type (0, 0), BuildingBlock: OJICUG_clean_linker_0, # of connection points: 2
#     Edge 84, Type (0, 0), BuildingBlock: OJICUG_clean_linker_0, # of connection points: 2
#     Edge 85, Type (0, 0), BuildingBlock: OJICUG_clean_linker_0, # of connection points: 2
#     Edge 86, Type (0, 0), BuildingBlock: OJICUG_clean_linker_0, # of connection points: 2
#     Edge 87, Type (0, 0), BuildingBlock: OJICUG_clean_linker_0, # of connection points: 2
#     Edge 88, Type (0, 0), BuildingBlock: OJICUG_clean_linker_0, # of connection points: 2
#     Edge 89, Type (0, 0), BuildingBlock: OJICUG_clean_linker_0, # of connection points: 2
#     Edge 90, Type (0, 0), BuildingBlock: OJICUG_clean_linker_0, # of connection points: 2
#     Edge 91, Type (0, 0), BuildingBlock: OJICUG_clean_linker_0, # of connection points: 2
#     Edge 92, Type (0, 0), BuildingBlock: OJICUG_clean_linker_0, # of connection points: 2
#     Edge 93, Type (0, 0), BuildingBlock: OJICUG_clean_linker_0, # of connection points: 2
#     Edge 94, Type (0, 0), BuildingBlock: OJICUG_clean_linker_0, # of connection points: 2
#     Edge 95, Type (0, 0), BuildingBlock: OJICUG_clean_linker_0, # of connection points: 2
#     Edge 96, Type (0, 0), BuildingBlock: OJICUG_clean_linker_0, # of connection points: 2
#     Edge 97, Type (0, 0), BuildingBlock: OJICUG_clean_linker_0, # of connection points: 2
#     Edge 98, Type (0, 0), BuildingBlock: OJICUG_clean_linker_0, # of connection points: 2
#     Edge 99, Type (0, 0), BuildingBlock: OJICUG_clean_linker_0, # of connection points: 2
#     Edge 100, Type (0, 0), BuildingBlock: OJICUG_clean_linker_0, # of connection points: 2
#     Edge 101, Type (0, 0), BuildingBlock: OJICUG_clean_linker_0, # of connection points: 2
#     Edge 102, Type (0, 0), BuildingBlock: OJICUG_clean_linker_0, # of connection points: 2
#     Edge 103, Type (0, 0), BuildingBlock: OJICUG_clean_linker_0, # of connection points: 2
#     Edge 104, Type (0, 0), BuildingBlock: OJICUG_clean_linker_0, # of connection points: 2
#     Edge 105, Type (0, 0), BuildingBlock: OJICUG_clean_linker_0, # of connection points: 2
#     Edge 106, Type (0, 0), BuildingBlock: OJICUG_clean_linker_0, # of connection points: 2
#     Edge 107, Type (0, 0), BuildingBlock: OJICUG_clean_linker_0, # of connection points: 2
# Relax obj value: 0.056
# Max RMSD: 0.062
# Mean RMSD: 0.062
data_MOF--net-ato--node1-NAHDIM_clean_sbu_0--edge1-OJICUG_clean_linker_0
_symmetry_space_group_name_H-M    P1
_symmetry_Int_Tables_number       1
_symmetry_cell_setting            triclinic
loop_
_symmetry_equiv_pos_as_xyz
'x, y, z'
_cell_length_a     73.849764
_cell_length_b     73.963176
_cell_length_c     18.038203
_cell_angle_alpha  90.097789
_cell_angle_beta   90.010262
_cell_angle_gamma 119.959
loop_
_atom_site_label
_atom_site_type_symbol
_atom_site_fract_x
_atom_site_fract_y
_atom_site_fract_z
_atom_type_partial_charge
C0 C 0.21965 0.02596 0.38913 0.0
O1 O 0.20643 0.0298 0.35344 0.0
O2 O 0.2417 0.07301 0.27147 0.0
Zn3 Zn 0.24641 0.04853 0.26672 0.0
O4 O 0.23048 0.02941 0.18207 0.0
C5 C 0.28474 0.06438 0.18499 0.0
O6 O 0.27216 0.06133 0.12891 0.0
O7 O 0.23787 0.03272 0.36287 0.0
C8 C 0.22484 0.01015 0.18554 0.0
O9 O 0.22892 0.00289 0.24586 0.0
C10 C 0.22615 0.07356 0.24379 0.0
O11 O 0.21144 0.05699 0.20977 0.0
O12 O 0.27717 0.05976 0.25005 0.0
C13 C 0.97196 0.19554 0.37579 0.0
O14 O 0.9704 0.18021 0.33428 0.0
O15 O 0.92432 0.16628 0.26268 0.0
Zn16 Zn 0.94651 0.19661 0.2605 0.0
O17 O 0.96781 0.20303 0.1808 0.0
C18 C 0.93551 0.22609 0.19385 0.0
O19 O 0.95119 0.2308 0.14872 0.0
O20 O 0.96225 0.20493 0.35658 0.0
C21 C 0.9639 0.19783 0.11309 0.0
O22 O 0.94438 0.18693 0.09092 0.0
C23 C 0.92474 0.15084 0.23347 0.0
O24 O 0.94159 0.15381 0.19834 0.0
O25 O 0.93147 0.21282 0.24504 0.0
C26 C 0.80048 0.77124 0.38093 0.0
O27 O 0.81661 0.78492 0.34232 0.0
O28 O 0.8297 0.7544 0.26561 0.0
Zn29 Zn 0.79931 0.74649 0.2605 0.0
O30 O 0.79379 0.76285 0.18405 0.0
C31 C 0.7903 0.70847 0.18923 0.0
O32 O 0.80932 0.72079 0.16452 0.0
O33 O 0.79025 0.75251 0.35794 0.0
C34 C 0.79911 0.76445 0.11641 0.0
O35 O 0.80983 0.75573 0.09341 0.0
C36 C 0.84526 0.7706 0.23882 0.0
O37 O 0.84234 0.78472 0.20558 0.0
O38 O 0.78226 0.71586 0.23377 0.0
C39 C 0.02622 0.22278 0.63199 0.0
O40 O 0.03018 0.20957 0.66708 0.0
O41 O 0.07171 0.24076 0.75095 0.0
Zn42 Zn 0.04862 0.24777 0.75502 0.0
O43 O 0.02736 0.23123 0.83252 0.0
C44 C 0.07949 0.29095 0.7517 0.0
O45 O 0.08832 0.28358 0.70702 0.0
O46 O 0.0333 0.24105 0.65815 0.0
C47 C 0.03131 0.23441 0.90128 0.0
O48 O 0.05021 0.24844 0.92272 0.0
C49 C 0.07238 0.22612 0.78534 0.0
O50 O 0.0565 0.21332 0.82683 0.0
O51 O 0.06163 0.27845 0.77867 0.0
C52 C 0.77397 0.79867 0.638 0.0
O53 O 0.78754 0.81537 0.67462 0.0
O54 O 0.75576 0.82792 0.74789 0.0
Zn55 Zn 0.74897 0.79806 0.75698 0.0
O56 O 0.76591 0.7944 0.83588 0.0
C57 C 0.70548 0.78415 0.74754 0.0
O58 O 0.71237 0.79815 0.69442 0.0
O59 O 0.75532 0.78835 0.66173 0.0
C60 C 0.76267 0.79531 0.9045 0.0
O61 O 0.74825 0.79971 0.92528 0.0
C62 C 0.77005 0.84346 0.7827 0.0
O63 O 0.78245 0.84072 0.82771 0.0
O64 O 0.71844 0.78075 0.7823 0.0
C65 C 0.19384 0.97477 0.65287 0.0
O66 O 0.17581 0.96937 0.68443 0.0
O67 O 0.16675 0.92623 0.75719 0.0
Zn68 Zn 0.1962 0.9499 0.77032 0.0
O69 O 0.19875 0.96684 0.86065 0.0
C70 C 0.21042 0.92042 0.75346 0.0
O71 O 0.19451 0.91188 0.7074 0.0
O72 O 0.20538 0.96824 0.68011 0.0
C73 C 0.19661 0.95843 0.92379 0.0
O74 O 0.19177 0.93878 0.92721 0.0
C75 C 0.15028 0.92503 0.78405 0.0
O76 O 0.15165 0.94061 0.82353 0.0
O77 O 0.21471 0.9374 0.7857 0.0
C78 C 0.77881 0.97044 0.62288 0.0
O79 O 0.79134 0.96518 0.6561 0.0
O80 O 0.75629 0.92272 0.7357 0.0
Zn81 Zn 0.7504 0.94645 0.74065 0.0
O82 O 0.76331 0.96425 0.83135 0.0
C83 C 0.71005 0.92379 0.8058 0.0
O84 O 0.72112 0.92099 0.85682 0.0
O85 O 0.76068 0.96412 0.64923 0.0
C86 C 0.75514 0.97491 0.85312 0.0
O87 O 0.73989 0.97444 0.81409 0.0
C88 C 0.77001 0.92152 0.77455 0.0
O89 O 0.78185 0.93688 0.81979 0.0
O90 O 0.71922 0.93415 0.74806 0.0
C91 C 0.02583 0.8021 0.62227 0.0
O92 O 0.02707 0.81723 0.6642 0.0
O93 O 0.07362 0.83085 0.73785 0.0
Zn94 Zn 0.05095 0.80068 0.73879 0.0
O95 O 0.02952 0.79468 0.81793 0.0
C96 C 0.06401 0.77361 0.81225 0.0
O97 O 0.05165 0.77268 0.8662 0.0
O98 O 0.03553 0.79274 0.64182 0.0
C99 C 0.03323 0.80154 0.88402 0.0
O100 O 0.05265 0.81373 0.90542 0.0
C101 C 0.0728 0.84662 0.76165 0.0
O102 O 0.05525 0.84414 0.78928 0.0
O103 O 0.06538 0.78385 0.75394 0.0
C104 C 0.19369 0.2216 0.63934 0.0
O105 O 0.17614 0.20838 0.67234 0.0
O106 O 0.16594 0.23989 0.75597 0.0
Zn107 Zn 0.19582 0.24634 0.76297 0.0
O108 O 0.19965 0.22943 0.84147 0.0
C109 C 0.20929 0.28971 0.75639 0.0
O110 O 0.19372 0.28255 0.70887 0.0
O111 O 0.20488 0.23966 0.66711 0.0
C112 C 0.19938 0.2332 0.90997 0.0
O113 O 0.19559 0.24805 0.93033 0.0
C114 C 0.15032 0.22549 0.78991 0.0
O115 O 0.15292 0.21265 0.83291 0.0
O116 O 0.21378 0.27696 0.78684 0.0
C117 C 0.9724 0.77559 0.36379 0.0
O118 O 0.96823 0.78881 0.32991 0.0
O119 O 0.92582 0.75788 0.25484 0.0
Zn120 Zn 0.94899 0.75122 0.24212 0.0
O121 O 0.96969 0.76865 0.16364 0.0
C122 C 0.91916 0.7125 0.17599 0.0
O123 O 0.91094 0.72402 0.15736 0.0
O124 O 0.96517 0.75735 0.33714 0.0
C125 C 0.96554 0.76676 0.09481 0.0
O126 O 0.94643 0.75363 0.07263 0.0
C127 C 0.92445 0.77271 0.22508 0.0
O128 O 0.93971 0.78618 0.18281 0.0
O129 O 0.93591 0.72069 0.21415 0.0
C130 C 0.22182 0.19593 0.38211 0.0
O131 O 0.20818 0.18105 0.3388 0.0
O132 O 0.24219 0.16784 0.26902 0.0
Zn133 Zn 0.24893 0.19777 0.26748 0.0
O134 O 0.2334 0.20362 0.18842 0.0
C135 C 0.28866 0.22498 0.19296 0.0
O136 O 0.27685 0.22504 0.13868 0.0
O137 O 0.24102 0.20533 0.36417 0.0
C138 C 0.2297 0.19643 0.12279 0.0
O139 O 0.23619 0.18361 0.10165 0.0
C140 C 0.22578 0.15156 0.24719 0.0
O141 O 0.21012 0.15314 0.22005 0.0
O142 O 0.28014 0.21517 0.25236 0.0
C143 C 0.80535 0.02265 0.3617 0.0
O144 O 0.82343 0.02826 0.33022 0.0
O145 O 0.83133 0.07085 0.25346 0.0
Zn146 Zn 0.80176 0.04724 0.24441 0.0
O147 O 0.79722 0.03 0.15241 0.0
C148 C 0.78451 0.07013 0.17825 0.0
O149 O 0.79828 0.07259 0.12734 0.0
O150 O 0.79361 0.02895 0.33443 0.0
C151 C 0.77827 0.01924 0.13186 0.0
O152 O 0.76364 0.01938 0.17286 0.0
C153 C 0.84716 0.07233 0.22009 0.0
O154 O 0.84488 0.05716 0.17607 0.0
O155 O 0.78318 0.05987 0.23642 0.0
C156 C 0.88454 0.35881 0.70151 0.0
O157 O 0.87177 0.36388 0.66899 0.0
O158 O 0.90649 0.40685 0.59153 0.0
Zn159 Zn 0.91248 0.38327 0.5836 0.0
O160 O 0.89942 0.36561 0.49285 0.0
C161 C 0.95253 0.40467 0.5144 0.0
O162 O 0.9411 0.40552 0.46017 0.0
O163 O 0.90266 0.36539 0.67464 0.0
C164 C 0.90707 0.35426 0.47392 0.0
O165 O 0.9216 0.35417 0.51573 0.0
C166 C 0.89195 0.4081 0.5585 0.0
O167 O 0.87888 0.39269 0.51568 0.0
O168 O 0.94369 0.39594 0.57491 0.0
C169 C 0.64015 0.52974 0.70872 0.0
O170 O 0.64049 0.51634 0.66166 0.0
O171 O 0.59035 0.50087 0.59576 0.0
Zn172 Zn 0.61371 0.5308 0.59665 0.0
O173 O 0.63532 0.53706 0.51787 0.0
C174 C 0.59764 0.55383 0.51717 0.0
O175 O 0.6044 0.54815 0.45931 0.0
O176 O 0.62896 0.5379 0.69407 0.0
C177 C 0.63245 0.52855 0.45448 0.0
O178 O 0.61362 0.51388 0.43505 0.0
C179 C 0.59097 0.48451 0.57852 0.0
O180 O 0.60878 0.486 0.55871 0.0
O181 O 0.6004 0.54868 0.58166 0.0
C182 C 0.47083 0.10788 0.69193 0.0
O183 O 0.48925 0.12083 0.66371 0.0
O184 O 0.49899 0.09091 0.57303 0.0
Zn185 Zn 0.46909 0.08436 0.56442 0.0
O186 O 0.46566 0.10139 0.48548 0.0
C187 C 0.45613 0.04094 0.56521 0.0
O188 O 0.47187 0.04771 0.61185 0.0
O189 O 0.45931 0.09054 0.65977 0.0
C190 C 0.46519 0.09678 0.41745 0.0
O191 O 0.46803 0.0812 0.39877 0.0
C192 C 0.51453 0.10519 0.53838 0.0
O193 O 0.51178 0.11775 0.49434 0.0
O194 O 0.45137 0.05388 0.53819 0.0
C195 C 0.6936 0.55496 0.96709 0.0
O196 O 0.69901 0.54213 -0.00321 0.0
O197 O 0.73907 0.57273 0.08481 0.0
Zn198 Zn 0.71546 0.57889 0.09347 0.0
O199 O 0.69505 0.56159 0.17222 0.0
C200 C 0.74551 0.62236 0.09192 0.0
O201 O 0.75426 0.61569 0.044 0.0
O202 O 0.69949 0.57249 -0.00208 0.0
C203 C 0.6991 0.56603 0.24039 0.0
O204 O 0.71743 0.5817 0.25954 0.0
C205 C 0.74064 0.55865 0.11954 0.0
O206 O 0.72548 0.54595 0.16378 0.0
O207 O 0.72799 0.60933 0.12001 0.0
C208 C 0.44128 0.13149 0.95065 0.0
O209 O 0.45478 0.1443 -0.00039 0.0
O210 O 0.41917 0.1597 0.06327 0.0
Zn211 Zn 0.41316 0.12993 0.06111 0.0
O212 O 0.42872 0.12395 0.13989 0.0
C213 C 0.37418 0.10663 0.14008 0.0
O214 O 0.38667 0.11363 0.19778 0.0
O215 O 0.42185 0.12347 0.96358 0.0
C216 C 0.43447 0.13269 0.20291 0.0
O217 O 0.43022 0.14733 0.22185 0.0
C218 C 0.43628 0.17609 0.0792 0.0
O219 O 0.45278 0.17462 0.09644 0.0
O220 O 0.382 0.11123 0.07534 0.0
C221 C 0.85919 0.30675 0.96304 0.0
O222 O 0.84112 0.30095 0.99497 0.0
O223 O 0.83382 0.2586 0.07111 0.0
Zn224 Zn 0.86324 0.28248 0.08019 0.0
O225 O 0.8673 0.29962 0.17207 0.0
C226 C 0.88026 0.25934 0.14578 0.0
O227 O 0.86576 0.25604 0.19476 0.0
O228 O 0.87116 0.3007 0.99002 0.0
C229 C 0.88606 0.3102 0.19475 0.0
O230 O 0.90099 0.30998 0.15585 0.0
C231 C 0.81782 0.25729 0.1026 0.0
O232 O 0.81984 0.27278 0.14428 0.0
O233 O 0.88215 0.27024 0.08882 0.0
C234 C 0.44534 0.30462 0.95985 0.0
O235 O 0.45819 0.29986 0.9935 0.0
O236 O 0.42179 0.25574 0.07004 0.0
Zn237 Zn 0.41711 0.2802 0.07762 0.0
O238 O 0.43082 0.29787 0.16797 0.0
C239 C 0.37748 0.25972 0.14862 0.0
O240 O 0.38902 0.2582 0.201 0.0
O241 O 0.4271 0.29786 0.98589 0.0
C242 C 0.42372 0.30975 0.18625 0.0
O243 O 0.40955 0.31033 0.14388 0.0
C244 C 0.43732 0.25472 0.09523 0.0
O245 O 0.4525 0.27101 0.12894 0.0
O246 O 0.38609 0.26855 0.08798 0.0
C247 C 0.69292 0.13437 0.94935 0.0
O248 O 0.69439 0.14954 0.99155 0.0
O249 O 0.7407 0.16315 0.06287 0.0
Zn250 Zn 0.71825 0.13292 0.06442 0.0
O251 O 0.69689 0.12661 0.14385 0.0
C252 C 0.72992 0.10432 0.134 0.0
O253 O 0.71559 0.10124 0.18332 0.0
O254 O 0.70262 0.12494 0.96809 0.0
C255 C 0.70067 0.13266 0.21082 0.0
O256 O 0.72013 0.14439 0.23262 0.0
C257 C 0.74017 0.17882 0.08934 0.0
O258 O 0.72303 0.17622 0.12111 0.0
O259 O 0.73293 0.11635 0.07938 0.0
C260 C 0.8629 0.55793 0.96358 0.0
O261 O 0.84565 0.54466 -0.00194 0.0
O262 O 0.83517 0.57556 0.0824 0.0
Zn263 Zn 0.86529 0.58267 0.08707 0.0
O264 O 0.86991 0.56606 0.16452 0.0
C265 C 0.8777 0.6259 0.08463 0.0
O266 O 0.86151 0.61868 0.03988 0.0
O267 O 0.87406 0.57613 0.99034 0.0
C268 C 0.86933 0.56946 0.23319 0.0
O269 O 0.86472 0.5837 0.25426 0.0
C270 C 0.81989 0.56069 0.1161 0.0
O271 O 0.8231 0.54788 0.15705 0.0
O272 O 0.88294 0.61329 0.1113 0.0
C273 C 0.63885 0.10783 0.69272 0.0
O274 O 0.63481 0.12107 0.65837 0.0
O275 O 0.59316 0.08988 0.57491 0.0
Zn276 Zn 0.61633 0.08302 0.56953 0.0
O277 O 0.63741 0.09974 0.49177 0.0
C278 C 0.5858 0.03974 0.5732 0.0
O279 O 0.57708 0.04691 0.61928 0.0
O280 O 0.63179 0.08962 0.666 0.0
C281 C 0.63341 0.09625 0.42313 0.0
O282 O 0.61461 0.08184 0.40223 0.0
C283 C 0.59245 0.10456 0.54096 0.0
O284 O 0.60826 0.11737 0.49924 0.0
O285 O 0.60345 0.05242 0.54519 0.0
C286 C 0.8904 0.53135 0.70711 0.0
O287 O 0.87671 0.51611 0.66511 0.0
O288 O 0.90899 0.50224 0.59506 0.0
Zn289 Zn 0.91712 0.53255 0.59255 0.0
O290 O 0.90227 0.53895 0.51265 0.0
C291 C 0.95763 0.5611 0.52409 0.0
O292 O 0.94661 0.56474 0.47547 0.0
O293 O 0.90954 0.54078 0.68843 0.0
C294 C 0.90029 0.53313 0.44547 0.0
O295 O 0.90824 0.52159 0.42368 0.0
C296 C 0.89293 0.48664 0.56753 0.0
O297 O 0.87875 0.48939 0.53353 0.0
O298 O 0.94839 0.54878 0.57783 0.0
C299 C 0.47125 0.3568 0.69851 0.0
O300 O 0.48936 0.36255 0.66698 0.0
O301 O 0.49653 0.4054 0.58989 0.0
Zn302 Zn 0.46724 0.3812 0.58105 0.0
O303 O 0.46339 0.36415 0.48894 0.0
C304 C 0.44979 0.40399 0.5157 0.0
O305 O 0.46425 0.40735 0.46644 0.0
O306 O 0.45938 0.36294 0.67127 0.0
C307 C 0.44464 0.35347 0.46617 0.0
O308 O 0.42964 0.35351 0.50514 0.0
C309 C 0.51289 0.40635 0.56307 0.0
O310 O 0.51141 0.39022 0.52699 0.0
O311 O 0.44806 0.39315 0.57265 0.0
C312 C 0.55306 0.69005 0.01546 0.0
O313 O 0.54005 0.69439 0.98077 0.0
O314 O 0.57226 0.73812 0.91303 0.0
Zn315 Zn 0.58011 0.71591 0.90072 0.0
O316 O 0.5671 0.69838 0.80946 0.0
C317 C 0.61813 0.74253 0.82981 0.0
O318 O 0.60474 0.7446 0.78779 0.0
O319 O 0.5716 0.69763 0.99109 0.0
C320 C 0.57655 0.6893 0.78407 0.0
O321 O 0.5928 0.69108 0.82025 0.0
C322 C 0.55802 0.73938 0.87785 0.0
O323 O 0.54643 0.72478 0.82973 0.0
O324 O 0.61135 0.73074 0.88631 0.0
C325 C 0.30733 0.86617 0.01954 0.0
O326 O 0.30448 0.84977 0.98159 0.0
O327 O 0.25992 0.83664 0.91125 0.0
Zn328 Zn 0.28277 0.86665 0.90129 0.0
O329 O 0.30374 0.87062 0.82283 0.0
C330 C 0.25335 0.87585 0.83362 0.0
O331 O 0.24586 0.85656 0.81054 0.0
O332 O 0.29878 0.87639 -0.00314 0.0
C333 C 0.29958 0.86641 0.75455 0.0
O334 O 0.28013 0.85799 0.73184 0.0
C335 C 0.25951 0.82079 0.882 0.0
O336 O 0.27552 0.8232 0.8426 0.0
O337 O 0.26945 0.88396 0.8751 0.0
C338 C 0.13591 0.44092 0.02963 0.0
O339 O 0.15358 0.45403 -0.00294 0.0
O340 O 0.16438 0.42385 0.91549 0.0
Zn341 Zn 0.13431 0.41673 0.90565 0.0
O342 O 0.13046 0.43384 0.8273 0.0
C343 C 0.12528 0.37773 0.84096 0.0
O344 O 0.14498 0.38914 0.82162 0.0
O345 O 0.1246 0.42293 0.00139 0.0
C346 C 0.13218 0.43147 0.75842 0.0
O347 O 0.13769 0.41797 0.73646 0.0
C348 C 0.18 0.4386 0.88271 0.0
O349 O 0.17726 0.45142 0.84012 0.0
O350 O 0.11686 0.38608 0.87893 0.0
C351 C 0.361 0.89242 0.27749 0.0
O352 O 0.36377 0.87866 0.31423 0.0
O353 O 0.40729 0.90899 0.39098 0.0
Zn354 Zn 0.3847 0.91665 0.39881 0.0
O355 O 0.3632 0.89975 0.47574 0.0
C356 C 0.41437 0.9548 0.46844 0.0
O357 O 0.42174 0.94274 0.48967 0.0
O358 O 0.3693 0.91098 0.30208 0.0
C359 C 0.36724 0.89954 0.54405 0.0
O360 O 0.3867 0.9102 0.56698 0.0
C361 C 0.40714 0.89323 0.41969 0.0
O362 O 0.39056 0.87948 0.45614 0.0
O363 O 0.39826 0.94719 0.42702 0.0
C364 C 0.10868 0.46725 0.28779 0.0
O365 O 0.12256 0.4818 0.33151 0.0
O366 O 0.08906 0.49646 0.40033 0.0
Zn367 Zn 0.08174 0.46633 0.40186 0.0
O368 O 0.09704 0.46031 0.48152 0.0
C369 C 0.04178 0.44058 0.47725 0.0
O370 O 0.05347 0.44162 0.53374 0.0
O371 O 0.08947 0.45843 0.30526 0.0
C372 C 0.10087 0.46765 0.54698 0.0
O373 O 0.09455 0.48063 0.56785 0.0
C374 C 0.1057 0.51245 0.42256 0.0
O375 O 0.12106 0.5103 0.44942 0.0
O376 O 0.05045 0.44927 0.41643 0.0
C377 C 0.52653 0.63806 0.27735 0.0
O378 O 0.50833 0.63245 0.30797 0.0
O379 O 0.49991 0.59148 0.39136 0.0
Zn380 Zn 0.52976 0.61464 0.39884 0.0
O381 O 0.53453 0.63289 0.48801 0.0
C382 C 0.5482 0.59376 0.47349 0.0
O383 O 0.53695 0.59468 0.52821 0.0
O384 O 0.53836 0.63216 0.30655 0.0
C385 C 0.55356 0.64453 0.50614 0.0
O386 O 0.56815 0.64454 0.4644 0.0
C387 C 0.48455 0.5905 0.42661 0.0
O388 O 0.4876 0.60589 0.47088 0.0
O389 O 0.54763 0.60129 0.41078 0.0
C390 C 0.11482 0.64056 0.29653 0.0
O391 O 0.1271 0.63462 0.32748 0.0
O392 O 0.09171 0.59225 0.40604 0.0
Zn393 Zn 0.08648 0.61636 0.41454 0.0
O394 O 0.09944 0.63351 0.50662 0.0
C395 C 0.04622 0.59396 0.48025 0.0
O396 O 0.05732 0.59104 0.53083 0.0
O397 O 0.0969 0.6346 0.32431 0.0
C398 C 0.09147 0.6444 0.52776 0.0
O399 O 0.07672 0.64448 0.48724 0.0
C400 C 0.10674 0.59107 0.43523 0.0
O401 O 0.1209 0.6069 0.47395 0.0
O402 O 0.05534 0.60433 0.42245 0.0
C403 C 0.35818 0.46749 0.28515 0.0
O404 O 0.36025 0.4833 0.32502 0.0
O405 O 0.40602 0.49692 0.39534 0.0
Zn406 Zn 0.38357 0.46674 0.40116 0.0
O407 O 0.36265 0.46132 0.48149 0.0
C408 C 0.39451 0.4373 0.46958 0.0
O409 O 0.37902 0.43282 0.5154 0.0
O410 O 0.3675 0.45783 0.30578 0.0
C411 C 0.36674 0.46639 0.54926 0.0
O412 O 0.3863 0.47643 0.57151 0.0
C413 C 0.40619 0.51266 0.42453 0.0
O414 O 0.3899 0.51014 0.46236 0.0
O415 O 0.3984 0.45039 0.41786 0.0
C416 C 0.52944 0.88989 0.29306 0.0
O417 O 0.51238 0.87673 0.32874 0.0
O418 O 0.50108 0.90778 0.4034 0.0
Zn419 Zn 0.53098 0.91453 0.4142 0.0
O420 O 0.5347 0.89718 0.49177 0.0
C421 C 0.5403 0.95313 0.48204 0.0
O422 O 0.52074 0.9415 0.50272 0.0
O423 O 0.54053 0.90828 0.31837 0.0
C424 C 0.53128 0.89785 0.56041 0.0
O425 O 0.52381 0.90969 0.58335 0.0
C426 C 0.48492 0.89249 0.43157 0.0
O427 O 0.48685 0.87866 0.4712 0.0
O428 O 0.54858 0.94507 0.44181 0.0
C429 C 0.30433 0.44037 0.02781 0.0
O430 O 0.30063 0.4537 0.99237 0.0
O431 O 0.25856 0.42313 0.91394 0.0
Zn432 Zn 0.28137 0.41576 0.90569 0.0
O433 O 0.30275 0.43256 0.8281 0.0
C434 C 0.25164 0.37696 0.83973 0.0
O435 O 0.24401 0.3887 0.81721 0.0
O436 O 0.29693 0.42201 0.00206 0.0
C437 C 0.2988 0.43163 0.75925 0.0
O438 O 0.2795 0.4198 0.73608 0.0
C439 C 0.25804 0.43825 0.8827 0.0
O440 O 0.27394 0.45143 0.84208 0.0
O441 O 0.26797 0.38506 0.88007 0.0
C442 C 0.55513 0.862 0.03517 0.0
O443 O 0.54117 0.84626 -0.00444 0.0
O444 O 0.57269 0.83223 0.92262 0.0
Zn445 Zn 0.58093 0.86255 0.91816 0.0
O446 O 0.56562 0.86839 0.83824 0.0
C447 C 0.62145 0.89115 0.84883 0.0
O448 O 0.61057 0.89536 0.80146 0.0
O449 O 0.57405 0.87149 0.01398 0.0
C450 C 0.56429 0.86303 0.77067 0.0
O451 O 0.57338 0.85256 0.74857 0.0
C452 C 0.55692 0.81674 0.89317 0.0
O453 O 0.54323 0.81966 0.85651 0.0
O454 O 0.61212 0.87852 0.90169 0.0
C455 C 0.14093 0.69285 0.03545 0.0
O456 O 0.15852 0.69767 0.00157 0.0
O457 O 0.16648 0.74115 0.92394 0.0
Zn458 Zn 0.13693 0.71729 0.91825 0.0
O459 O 0.13221 0.69952 0.82758 0.0
C460 C 0.11842 0.73897 0.85082 0.0
O461 O 0.13138 0.74068 0.79776 0.0
O462 O 0.1294 0.6996 0.00974 0.0
C463 C 0.1133 0.68844 0.80712 0.0
O464 O 0.09854 0.68855 0.84741 0.0
C465 C 0.18185 0.74225 0.88839 0.0
O466 O 0.17896 0.72659 0.84584 0.0
O467 O 0.11806 0.72961 0.9103 0.0
C468 C 0.22039 0.99502 0.5551 0.0
C469 C 0.20055 0.98816 0.58612 0.0
H470 H 0.24201 0.01239 0.46895 0.0
C471 C 0.18716 0.99412 0.55248 0.0
H472 H 0.2311 0.99075 0.57973 0.0
C473 C 0.1934 0.0065 0.48876 0.0
C474 C 0.2132 0.01326 0.45755 0.0
H475 H 0.17178 0.9891 0.57499 0.0
H476 H 0.18267 0.01071 0.4639 0.0
C477 C 0.22666 0.00746 0.49162 0.0
C478 C 0.00723 0.19698 0.53074 0.0
C479 C 0.01266 0.21603 0.56562 0.0
H480 H 0.99014 0.17559 0.44332 0.0
C481 C 0.0045 0.22824 0.53784 0.0
H482 H 0.01326 0.18722 0.55086 0.0
C483 C 0.99105 0.22146 0.47678 0.0
C484 C 0.98568 0.20244 0.44174 0.0
H485 H 0.00831 0.24295 0.56374 0.0
H486 H 0.98501 0.23121 0.45669 0.0
C487 C 0.99397 0.19031 0.46917 0.0
C488 C 0.77418 0.76491 0.48005 0.0
C489 C 0.79379 0.77795 0.4477 0.0
H490 H 0.75239 0.76133 0.56506 0.0
C491 C 0.80675 0.79782 0.47832 0.0
H492 H 0.76379 0.74954 0.45749 0.0
C493 C 0.80028 0.80452 0.54005 0.0
C494 C 0.7806 0.79158 0.57204 0.0
H495 H 0.82195 0.80824 0.45469 0.0
H496 H 0.81067 0.81992 0.5624 0.0
C497 C 0.7676 0.77171 0.54139 0.0
C498 C 0.77249 0.98998 0.52267 0.0
C499 C 0.78568 0.9837 0.55582 0.0
H500 H 0.76833 0.00716 0.43572 0.0
C501 C 0.80542 0.99027 0.52443 0.0
H502 H 0.75718 0.98521 0.54542 0.0
C503 C 0.81183 0.00288 0.46121 0.0
C504 C 0.79864 0.00921 0.42828 0.0
H505 H 0.81595 0.98569 0.54861 0.0
H506 H 0.82713 0.00771 0.43835 0.0
C507 C 0.7789 0.0026 0.45971 0.0
C508 C 0.00424 0.80761 0.52797 0.0
C509 C 0.01246 0.79543 0.55538 0.0
H510 H 0.98518 0.81091 0.44592 0.0
C511 C 0.00733 0.77658 0.51948 0.0
H512 H 0.0079 0.82221 0.55439 0.0
C513 C 0.9941 0.76997 0.45774 0.0
C514 C 0.98595 0.78221 0.4302 0.0
H515 H 0.01335 0.76679 0.5395 0.0
H516 H 0.99042 0.75537 0.43128 0.0
C517 C 0.99121 0.80112 0.4658 0.0
C518 C 0.19414 0.19017 0.47427 0.0
C519 C 0.21475 0.20235 0.44858 0.0
H520 H 0.17134 0.18667 0.5548 0.0
C521 C 0.22833 0.221 0.48579 0.0
H522 H 0.1833 0.17572 0.44676 0.0
C523 C 0.22141 0.22741 0.54715 0.0
C524 C 0.20083 0.21517 0.57306 0.0
H525 H 0.24427 0.23079 0.4671 0.0
H526 H 0.23225 0.24186 0.57465 0.0
C527 C 0.18729 0.19645 0.53614 0.0
C528 C 0.85825 0.33875 0.80054 0.0
C529 C 0.87796 0.34554 0.76853 0.0
H530 H 0.83685 0.32119 0.88721 0.0
C531 C 0.89142 0.33951 0.80113 0.0
H532 H 0.84753 0.34313 0.7768 0.0
C533 C 0.8853 0.32693 0.8642 0.0
C534 C 0.8656 0.32012 0.89629 0.0
H535 H 0.90671 0.34445 0.77788 0.0
H536 H 0.89606 0.32257 0.88779 0.0
C537 C 0.85214 0.32618 0.86386 0.0
C538 C 0.65712 0.55367 0.81681 0.0
C539 C 0.65349 0.53602 0.77564 0.0
H540 H 0.67288 0.57368 0.90904 0.0
C541 C 0.66324 0.52473 0.79771 0.0
H542 H 0.64992 0.56275 0.80097 0.0
C543 C 0.67629 0.53091 0.85985 0.0
C544 C 0.68006 0.54865 0.90069 0.0
H545 H 0.66076 0.51106 0.76712 0.0
H546 H 0.6835 0.52184 0.87559 0.0
C547 C 0.67038 0.56 0.87846 0.0
C548 C 0.44208 0.10246 0.77868 0.0
C549 C 0.46326 0.11383 0.75829 0.0
H550 H 0.41845 0.09931 0.85485 0.0
C551 C 0.47706 0.13121 0.80103 0.0
H552 H 0.43103 0.08906 0.7466 0.0
C553 C 0.46987 0.13699 0.86329 0.0
C554 C 0.44869 0.12567 0.88356 0.0
H555 H 0.49346 0.14029 0.78671 0.0
H556 H 0.48093 0.15038 0.89541 0.0
C557 C 0.43484 0.10841 0.84042 0.0
C558 C 0.47809 0.33735 0.79823 0.0
C559 C 0.46468 0.34336 0.76513 0.0
H560 H 0.48254 0.32042 0.88576 0.0
C561 C 0.44486 0.33645 0.79643 0.0
H562 H 0.49346 0.34241 0.77549 0.0
C563 C 0.4386 0.32383 0.85942 0.0
C564 C 0.45202 0.31786 0.89274 0.0
H565 H 0.43413 0.34077 0.7723 0.0
H566 H 0.42323 0.31881 0.88209 0.0
C567 C 0.47183 0.32475 0.86147 0.0
C568 C 0.67101 0.13987 0.85638 0.0
C569 C 0.67929 0.12768 0.88319 0.0
H570 H 0.65175 0.14317 0.77508 0.0
C571 C 0.67399 0.10878 0.84736 0.0
H572 H 0.67479 0.15451 0.88283 0.0
C573 C 0.66058 0.10216 0.78618 0.0
C574 C 0.65241 0.11443 0.75907 0.0
H575 H 0.68003 0.09898 0.86695 0.0
H576 H 0.65681 0.08754 0.7597 0.0
C577 C 0.65779 0.13337 0.79468 0.0
C578 C 0.86298 0.52589 0.79993 0.0
C579 C 0.88345 0.53809 0.77309 0.0
H580 H 0.84043 0.52258 0.88127 0.0
C581 C 0.89703 0.55701 0.80879 0.0
H582 H 0.85213 0.51123 0.77357 0.0
C583 C 0.89025 0.56364 0.86994 0.0
C584 C 0.86982 0.55135 0.89714 0.0
H585 H 0.91287 0.56682 0.78915 0.0
H586 H 0.9011 0.57828 0.89636 0.0
C587 C 0.85627 0.5324 0.8616 0.0
C588 C 0.51978 0.65687 0.17517 0.0
C589 C 0.53326 0.65124 0.21005 0.0
H590 H 0.51542 0.67347 0.08637 0.0
C591 C 0.55329 0.65842 0.18019 0.0
H592 H 0.50424 0.65159 0.1967 0.0
C593 C 0.55973 0.67101 0.11704 0.0
C594 C 0.54625 0.67665 0.08218 0.0
H595 H 0.56408 0.65438 0.20574 0.0
H596 H 0.57527 0.67631 0.09556 0.0
C597 C 0.52619 0.6694 0.11185 0.0
C598 C 0.34091 0.86638 0.17833 0.0
C599 C 0.34758 0.88601 0.21071 0.0
H600 H 0.32301 0.84477 0.09266 0.0
C601 C 0.34084 0.89909 0.17993 0.0
H602 H 0.34582 0.85594 0.20071 0.0
C603 C 0.32754 0.89258 0.11831 0.0
C604 C 0.32093 0.87296 0.08585 0.0
H605 H 0.34564 0.91427 0.20386 0.0
H606 H 0.32258 0.90299 0.09582 0.0
C607 C 0.32781 0.85998 0.11637 0.0
C608 C 0.10158 0.44216 0.18337 0.0
C609 C 0.11549 0.46059 0.22117 0.0
H610 H 0.09719 0.42132 0.09375 0.0
C611 C 0.13618 0.47236 0.19585 0.0
H612 H 0.08556 0.43269 0.20178 0.0
C613 C 0.1428 0.46591 0.13377 0.0
C614 C 0.12894 0.44744 0.09619 0.0
H615 H 0.14728 0.48662 0.22378 0.0
H616 H 0.15882 0.47539 0.11545 0.0
C617 C 0.10827 0.43558 0.12175 0.0
C618 C 0.1088 0.66105 0.19917 0.0
C619 C 0.12165 0.65401 0.22994 0.0
H620 H 0.10479 0.67881 0.11403 0.0
C621 C 0.141 0.65993 0.19637 0.0
H622 H 0.0938 0.65681 0.22366 0.0
C623 C 0.14731 0.67256 0.1332 0.0
C624 C 0.13442 0.67957 0.10247 0.0
H625 H 0.15127 0.65476 0.2187 0.0
H626 H 0.16228 0.67681 0.10852 0.0
C627 C 0.11511 0.67369 0.13626 0.0
C628 C 0.33664 0.4729 0.19036 0.0
C629 C 0.34452 0.46055 0.21905 0.0
H630 H 0.3178 0.47622 0.10745 0.0
C631 C 0.33886 0.44134 0.18491 0.0
H632 H 0.3407 0.48777 0.21545 0.0
C633 C 0.32553 0.43461 0.12346 0.0
C634 C 0.31779 0.44705 0.09445 0.0
H635 H 0.34459 0.43142 0.20596 0.0
H636 H 0.32149 0.41975 0.09825 0.0
C637 C 0.3235 0.46627 0.12848 0.0
C638 C 0.52226 0.86377 0.19285 0.0
C639 C 0.536 0.88299 0.22645 0.0
H640 H 0.51753 0.84209 0.10605 0.0
C641 C 0.55615 0.89524 0.19692 0.0
H642 H 0.50663 0.85397 0.21428 0.0
C643 C 0.56248 0.88831 0.13531 0.0
C644 C 0.5487 0.86911 0.10155 0.0
H645 H 0.56712 0.91008 0.2218 0.0
H646 H 0.57811 0.89809 0.11381 0.0
C647 C 0.52851 0.85695 0.13082 0.0
C648 C 0.20227 0.96261 0.06093 0.0
C649 C 0.20168 0.97115 0.99207 0.0
H650 H 0.20999 0.96821 0.17611 0.0
C651 C 0.20728 0.9923 0.9885 0.0
H652 H 0.19798 0.94635 0.06565 0.0
C653 C 0.21412 0.00483 0.05194 0.0
C654 C 0.21558 0.99648 0.12015 0.0
H655 H 0.20689 -0.00067 0.93634 0.0
H656 H 0.21884 0.02119 0.04696 0.0
C657 C 0.20919 0.97515 0.12428 0.0
C658 C 0.00202 0.21861 0.08319 0.0
C659 C 0.98129 0.20569 0.05928 0.0
H660 H 0.03406 0.23775 0.05216 0.0
C661 C 0.97735 0.20123 0.98337 0.0
H662 H 0.00562 0.22229 0.14138 0.0
C663 C 0.9937 0.21008 0.93221 0.0
C664 C 0.01433 0.22361 0.95593 0.0
H665 H 0.96158 0.19127 0.96321 0.0
H666 H 0.99008 0.20669 0.87388 0.0
C667 C 0.01835 0.2275 0.03205 0.0
C668 C 0.76945 0.78929 0.0356 0.0
C669 C 0.77368 0.7895 0.95963 0.0
H670 H 0.77431 0.78138 0.14486 0.0
C671 C 0.78764 0.78291 0.93632 0.0
H672 H 0.75886 0.79438 0.05538 0.0
C673 C 0.79646 0.7754 0.98755 0.0
C674 C 0.79155 0.77438 0.06317 0.0
H675 H 0.79133 0.78298 0.87817 0.0
H676 H 0.8067 0.7699 0.96756 0.0
C677 C 0.77832 0.78184 0.08687 0.0
C678 C 0.78071 0.9918 0.95751 0.0
C679 C 0.7615 0.98649 0.9239 0.0
H680 H 0.80129 0.00666 0.04973 0.0
C681 C 0.748 0.99199 0.95924 0.0
H682 H 0.79141 0.98774 0.93137 0.0
C683 C 0.75345 0.00239 0.02714 0.0
C684 C 0.77268 0.00787 0.06065 0.0
H685 H 0.73304 0.988 0.93497 0.0
H686 H 0.74264 0.00635 0.05297 0.0
C687 C 0.78636 0.00261 0.02505 0.0
C688 C 0.01967 0.79922 0.01308 0.0
C689 C 0.01579 0.79435 0.93738 0.0
H690 H 0.00681 0.79442 0.12232 0.0
C691 C 0.99504 0.78165 0.91333 0.0
H692 H 0.03546 0.80903 0.03333 0.0
C693 C 0.97862 0.77333 0.96421 0.0
C694 C 0.98259 0.77747 0.04029 0.0
H695 H 0.99148 0.77773 0.85526 0.0
H696 H 0.9629 0.76316 0.94401 0.0
C697 C 0.00324 0.79084 0.06406 0.0
C698 C 0.21381 0.21848 0.09223 0.0
C699 C 0.22006 0.20423 0.06924 0.0
H700 H 0.20228 0.23871 0.06012 0.0
C701 C 0.21799 0.19845 0.99421 0.0
H702 H 0.21507 0.22318 0.14978 0.0
C703 C 0.21062 0.20737 0.94276 0.0
C704 C 0.20517 0.22225 0.96536 0.0
H705 H 0.22257 0.18745 0.97478 0.0
H706 H 0.20971 0.20298 0.88498 0.0
C707 C 0.20645 0.22739 0.04084 0.0
C708 C 0.8825 0.33789 0.36656 0.0
C709 C 0.9012 0.3427 0.4031 0.0
H710 H 0.86281 0.32347 0.27189 0.0
C711 C 0.91471 0.33675 0.37061 0.0
H712 H 0.8718 0.3423 0.39049 0.0
C713 C 0.90979 0.32642 0.30258 0.0
C714 C 0.89107 0.32145 0.26613 0.0
H715 H 0.92929 0.34036 0.39718 0.0
H716 H 0.92061 0.32213 0.27896 0.0
C717 C 0.87736 0.32712 0.29891 0.0
C718 C 0.66273 0.53877 0.2754 0.0
C719 C 0.68263 0.55496 0.29653 0.0
H720 H 0.63126 0.51763 0.30878 0.0
C721 C 0.68623 0.56129 0.37106 0.0
H722 H 0.65947 0.53346 0.21841 0.0
C723 C 0.67006 0.55224 0.42275 0.0
C724 C 0.64994 0.53664 0.40105 0.0
H725 H 0.7014 0.57365 0.38922 0.0
H726 H 0.67324 0.55785 0.47942 0.0
C727 C 0.64655 0.52969 0.32718 0.0
C728 C 0.44894 0.1095 0.23507 0.0
C729 C 0.44423 0.125 0.25636 0.0
H730 H 0.45942 0.08857 0.26906 0.0
C731 C 0.44799 0.13225 0.32986 0.0
H732 H 0.44638 0.10368 0.17866 0.0
C733 C 0.45548 0.12356 0.38174 0.0
C734 C 0.4594 0.10747 0.36107 0.0
H735 H 0.44462 0.14423 0.34791 0.0
H736 H 0.45769 0.12909 0.43847 0.0
C737 C 0.45646 0.10085 0.28686 0.0
C738 C 0.41626 0.32742 0.28938 0.0
C739 C 0.42964 0.32125 0.25721 0.0
H740 H 0.41042 0.34212 0.38094 0.0
C741 C 0.44819 0.32577 0.29424 0.0
H742 H 0.40179 0.32404 0.26245 0.0
C743 C 0.45332 0.33647 0.36206 0.0
C744 C 0.43971 0.34234 0.39454 0.0
H745 H 0.45878 0.32118 0.27056 0.0
H746 H 0.46774 0.3399 0.38949 0.0
C747 C 0.42114 0.33766 0.35757 0.0
C748 C 0.66262 0.11137 0.24104 0.0
C749 C 0.68327 0.12487 0.26454 0.0
H750 H 0.63068 0.09182 0.27256 0.0
C751 C 0.68714 0.12998 0.34007 0.0
H752 H 0.65907 0.1072 0.18312 0.0
C753 C 0.67081 0.12117 0.39136 0.0
C754 C 0.65029 0.10705 0.36814 0.0
H755 H 0.70285 0.1404 0.3599 0.0
H756 H 0.67439 0.12505 0.44945 0.0
C757 C 0.64631 0.10254 0.2923 0.0
C758 C 0.88336 0.55425 0.41524 0.0
C759 C 0.89072 0.54094 0.39165 0.0
H760 H 0.87074 0.57361 0.38384 0.0
C761 C 0.88971 0.53602 0.31601 0.0
H762 H 0.8838 0.55827 0.47324 0.0
C763 C 0.88217 0.54481 0.26472 0.0
C764 C 0.87551 0.55872 0.28808 0.0
H765 H 0.89518 0.52576 0.2961 0.0
H766 H 0.88202 0.54107 0.20656 0.0
C767 C 0.87585 0.56305 0.364 0.0
C768 C 0.54495 0.66028 0.61442 0.0
C769 C 0.55929 0.65642 0.57631 0.0
H770 H 0.53924 0.674 0.71013 0.0
C771 C 0.57921 0.66354 0.60689 0.0
H772 H 0.52947 0.65496 0.59205 0.0
C773 C 0.58462 0.67404 0.67462 0.0
C774 C 0.57037 0.67797 0.71279 0.0
H775 H 0.59057 0.66072 0.57912 0.0
H776 H 0.60009 0.67922 0.69675 0.0
C777 C 0.55052 0.67116 0.68184 0.0
C778 C 0.31266 0.87043 0.6242 0.0
C779 C 0.31678 0.8728 0.70067 0.0
H780 H 0.32537 0.87691 0.51465 0.0
C781 C 0.33765 0.88253 0.72514 0.0
H782 H 0.29676 0.86292 0.60355 0.0
C783 C 0.35406 0.89056 0.67419 0.0
C784 C 0.34995 0.88904 0.59775 0.0
H785 H 0.34136 0.88448 0.78374 0.0
H786 H 0.36996 0.8985 0.69487 0.0
C787 C 0.32907 0.87848 0.57325 0.0
C788 C 0.12555 0.4379 0.62783 0.0
C789 C 0.12611 0.44236 0.70375 0.0
H790 H 0.11723 0.44244 0.51884 0.0
C791 C 0.11964 0.4564 0.72719 0.0
H792 H 0.1305 0.42722 0.60788 0.0
C793 C 0.11204 0.46518 0.67603 0.0
C794 C 0.11069 0.46003 0.60049 0.0
H795 H 0.11998 0.46025 0.78533 0.0
H796 H 0.10669 0.47553 0.69601 0.0
C797 C 0.1179 0.44661 0.57678 0.0
C798 C 0.08877 0.67127 0.70189 0.0
C799 C 0.10793 0.6769 0.73625 0.0
H800 H 0.06876 0.65689 0.60877 0.0
C801 C 0.12183 0.67178 0.70153 0.0
H802 H 0.07779 0.67511 0.72704 0.0
C803 C 0.1165 0.66102 0.63384 0.0
C804 C 0.09741 0.65566 0.5992 0.0
H805 H 0.13671 0.67594 0.7269 0.0
H806 H 0.12738 0.65712 0.60826 0.0
C807 C 0.08365 0.66094 0.63384 0.0
C808 C 0.33691 0.45396 0.73024 0.0
C809 C 0.31609 0.44227 0.70557 0.0
H810 H 0.36927 0.47085 0.70025 0.0
C811 C 0.31207 0.43986 0.62906 0.0
H812 H 0.34054 0.45619 0.78889 0.0
C813 C 0.32854 0.44826 0.57836 0.0
C814 C 0.34939 0.45926 0.60304 0.0
H815 H 0.29623 0.43104 0.6082 0.0
H816 H 0.32489 0.44569 0.51978 0.0
C817 C 0.3534 0.46238 0.67946 0.0
C818 C 0.55474 0.86681 0.64059 0.0
C819 C 0.55407 0.87015 0.71694 0.0
H820 H 0.54794 0.87284 0.53113 0.0
C821 C 0.54438 0.88132 0.74152 0.0
H822 H 0.562 0.8582 0.61989 0.0
C823 C 0.5363 0.88968 0.69073 0.0
C824 C 0.53775 0.88709 0.61426 0.0
H825 H 0.54346 0.88405 0.80006 0.0
H826 H 0.52944 0.89867 0.71148 0.0
C827 C 0.54668 0.87521 0.58974 0.0
C828 C 0.34282 0.08922 0.22256 0.0
C829 C 0.35125 0.09465 0.15081 0.0
H830 H 0.31527 0.07534 0.28965 0.0
C831 C 0.33757 0.08923 0.09007 0.0
H832 H 0.35291 0.0931 0.27058 0.0
C833 C 0.31594 0.07908 0.10107 0.0
C834 C 0.30755 0.07407 0.17299 0.0
H835 H 0.34355 0.09316 0.03407 0.0
H836 H 0.30584 0.07541 0.05318 0.0
C837 C 0.32122 0.07902 0.23353 0.0
C838 C 0.91115 0.25586 0.10916 0.0
C839 C 0.89455 0.25103 0.15817 0.0
H840 H 0.93721 0.25192 0.08225 0.0
C841 C 0.89183 0.23833 0.21981 0.0
H842 H 0.91372 0.26568 0.0613 0.0
C843 C 0.90528 0.23046 0.23183 0.0
C844 C 0.92181 0.23516 0.18261 0.0
H845 H 0.87923 0.23435 0.25876 0.0
H846 H 0.90263 0.22058 0.27959 0.0
C847 C 0.92466 0.24803 0.12133 0.0
C848 C 0.74754 0.65189 0.16774 0.0
C849 C 0.75651 0.6445 0.11568 0.0
H850 H 0.75115 0.67791 0.23197 0.0
C851 C 0.7765 0.65836 0.08783 0.0
H852 H 0.73217 0.64159 0.19035 0.0
C853 C 0.78737 0.67907 0.11186 0.0
C854 C 0.77851 0.68646 0.16421 0.0
H855 H 0.7839 0.6532 0.04779 0.0
H856 H 0.80278 0.68926 0.08932 0.0
C857 C 0.75842 0.67268 0.19168 0.0
C858 C 0.08147 0.32158 0.81993 0.0
C859 C 0.09076 0.31328 0.77317 0.0
H860 H 0.08503 0.34849 0.87806 0.0
C861 C 0.1113 0.32641 0.74842 0.0
H862 H 0.06566 0.31186 0.84 0.0
C863 C 0.12239 0.34728 0.77049 0.0
C864 C 0.1132 0.35559 0.81761 0.0
H865 H 0.11896 0.32054 0.71247 0.0
H866 H 0.13823 0.35688 0.75056 0.0
C867 C 0.09257 0.34255 0.84179 0.0
C868 C 0.67587 0.75957 0.8294 0.0
C869 C 0.68311 0.7732 0.7684 0.0
H870 H 0.64967 0.73926 0.89704 0.0
C871 C 0.66883 0.77667 0.72823 0.0
H872 H 0.68649 0.75661 0.86165 0.0
C873 C 0.64779 0.76675 0.74849 0.0
C874 C 0.64053 0.75318 0.80956 0.0
H875 H 0.67389 0.78708 0.68102 0.0
H876 H 0.63723 0.76978 0.71618 0.0
C877 C 0.65479 0.74968 0.84985 0.0
C878 C 0.23913 0.91849 0.8212 0.0
C879 C 0.22217 0.90962 0.77151 0.0
H880 H 0.26235 0.91484 0.87979 0.0
C881 C 0.21597 0.88986 0.74122 0.0
H882 H 0.24429 0.9337 0.84552 0.0
C883 C 0.22622 0.87904 0.76113 0.0
C884 C 0.24298 0.88774 0.81158 0.0
H885 H 0.20298 0.88255 0.70282 0.0
H886 H 0.22088 0.86375 0.73718 0.0
C887 C 0.24946 0.90768 0.84091 0.0
C888 C 0.67727 0.9036 0.87962 0.0
C889 C 0.68742 0.91559 0.81676 0.0
H890 H 0.64858 0.88657 0.9392 0.0
C891 C 0.67577 0.91985 0.76516 0.0
H892 H 0.68579 0.90007 0.92056 0.0
C893 C 0.6544 0.91218 0.77604 0.0
C894 C 0.64423 0.90003 0.83862 0.0
H895 H 0.68314 0.92912 0.71627 0.0
H896 H 0.64585 0.91562 0.73501 0.0
C897 C 0.65592 0.89588 0.89038 0.0
C898 C 0.0912 0.76571 0.76463 0.0
C899 C 0.07733 0.76402 0.82114 0.0
H900 H 0.11504 0.7592 0.72974 0.0
C901 C 0.07687 0.75374 0.88719 0.0
H902 H 0.09196 0.77353 0.71305 0.0
C903 C 0.09016 0.74555 0.89685 0.0
C904 C 0.1042 0.74746 0.84064 0.0
H905 H 0.06639 0.75218 0.93187 0.0
H906 H 0.08951 0.73781 0.94855 0.0
C907 C 0.10448 0.75752 0.77428 0.0
C908 C 0.23774 0.32021 0.82571 0.0
C909 C 0.22067 0.31212 0.77651 0.0
H910 H 0.261 0.34708 0.88426 0.0
C911 C 0.21416 0.32559 0.74776 0.0
H912 H 0.24314 0.31023 0.84885 0.0
C913 C 0.22428 0.3466 0.76828 0.0
C914 C 0.24125 0.3547 0.81782 0.0
H915 H 0.20106 0.3199 0.70981 0.0
H916 H 0.21873 0.35647 0.74528 0.0
C917 C 0.24797 0.34131 0.84602 0.0
C918 C 0.91647 0.67723 0.17568 0.0
C919 C 0.90901 0.69042 0.15192 0.0
H920 H 0.91243 0.64646 0.17312 0.0
C921 C 0.89154 0.68231 0.10467 0.0
H922 H 0.92991 0.68302 0.21203 0.0
C923 C 0.88163 0.66148 0.08213 0.0
C924 C 0.88888 0.64819 0.10652 0.0
H925 H 0.88542 0.69205 0.08505 0.0
H926 H 0.86813 0.65576 0.04611 0.0
C927 C 0.90646 0.6563 0.15334 0.0
C928 C 0.34553 0.24192 0.22817 0.0
C929 C 0.35487 0.25143 0.16058 0.0
H930 H 0.31738 0.22627 0.29165 0.0
C931 C 0.34238 0.25286 0.1047 0.0
H932 H 0.35472 0.24064 0.27251 0.0
C933 C 0.32094 0.24464 0.11575 0.0
C934 C 0.31155 0.23482 0.18291 0.0
H935 H 0.3491 0.26016 0.05209 0.0
H936 H 0.31171 0.24576 0.07121 0.0
C937 C 0.32411 0.23372 0.23922 0.0
C938 C 0.74148 0.08319 0.20791 0.0
C939 C 0.7434 0.09497 0.14428 0.0
H940 H 0.753 0.06619 0.26882 0.0
C941 C 0.75882 0.09833 0.09173 0.0
H942 H 0.72979 0.08034 0.24956 0.0
C943 C 0.77213 0.09025 0.10282 0.0
C944 C 0.77036 0.07865 0.16678 0.0
H945 H 0.76074 0.10734 0.0421 0.0
H946 H 0.78388 0.09319 0.0613 0.0
C947 C 0.75483 0.07514 0.21908 0.0
C948 C 0.00636 0.43072 0.42712 0.0
C949 C 0.01884 0.43063 0.48582 0.0
H950 H 0.97571 0.42267 0.39015 0.0
C951 C 0.00926 0.42161 0.55371 0.0
H952 H 0.01323 0.43755 0.3741 0.0
C953 C 0.98772 0.41309 0.56295 0.0
C954 C 0.9753 0.41343 0.50453 0.0
H955 H 0.01841 0.42129 0.60009 0.0
H956 H 0.98085 0.40637 0.61609 0.0
C957 C 0.98484 0.42223 0.4364 0.0
C958 C 0.5838 0.57159 0.43582 0.0
C959 C 0.5858 0.56492 0.50675 0.0
H960 H 0.57044 0.58597 0.36965 0.0
C961 C 0.57573 0.56827 0.56691 0.0
H962 H 0.59139 0.56929 0.38829 0.0
C963 C 0.56361 0.57772 0.5561 0.0
C964 C 0.56139 0.58414 0.485 0.0
H965 H 0.57693 0.5633 0.62225 0.0
H966 H 0.5559 0.5799 0.60352 0.0
C967 C 0.57178 0.58115 0.42509 0.0
C968 C 0.42797 0.01124 0.49207 0.0
C969 C 0.44491 0.01879 0.54171 0.0
H970 H 0.40496 0.98507 0.42989 0.0
C971 C 0.45148 0.00507 0.56741 0.0
H972 H 0.42253 0.02142 0.47118 0.0
C973 C 0.44151 0.98435 0.54354 0.0
C974 C 0.42467 0.97679 0.49356 0.0
H975 H 0.46448 0.01036 0.60558 0.0
H976 H 0.44708 0.97427 0.56431 0.0
C977 C 0.41791 0.99043 0.46834 0.0
C978 C 0.58378 0.00943 0.50269 0.0
C979 C 0.57463 0.01745 0.55137 0.0
H980 H 0.58017 0.98278 0.44257 0.0
C981 C 0.55432 0.00407 0.57765 0.0
H982 H 0.59941 0.01934 0.48141 0.0
C983 C 0.5433 0.98323 0.55516 0.0
C984 C 0.55233 0.97521 0.50605 0.0
H985 H 0.54677 0.00972 0.61513 0.0
H986 H 0.52762 0.97343 0.57627 0.0
C987 C 0.57276 0.98849 0.48038 0.0
C988 C 0.99223 0.56623 0.566 0.0
C989 C 0.98043 0.57013 0.51396 0.0
H990 H 0.02218 0.57064 0.59611 0.0
C991 C 0.9905 0.58213 0.45096 0.0
H992 H 0.98497 0.55705 0.61514 0.0
C993 C 0.01186 0.58986 0.43988 0.0
C994 C 0.02361 0.5858 0.49165 0.0
H995 H 0.98186 0.58539 0.40972 0.0
H996 H 0.01914 0.59898 0.39063 0.0
C997 C 0.01358 0.574 0.55501 0.0
C998 C 0.40556 0.41549 0.54203 0.0
C999 C 0.40818 0.42818 0.48041 0.0
H1000 H 0.4167 0.39797 0.60184 0.0
C1001 C 0.42447 0.43266 0.4303 0.0
H1002 H 0.3932 0.41178 0.58178 0.0
C1003 C 0.43792 0.42476 0.44181 0.0
C1004 C 0.43545 0.41226 0.50379 0.0
H1005 H 0.42693 0.44238 0.38223 0.0
H1006 H 0.45033 0.42858 0.40218 0.0
C1007 C 0.41907 0.40764 0.55367 0.0
C1008 C 0.20858 0.09442 0.21568 0.0
C1009 C 0.22527 0.0931 0.24748 0.0
H1010 H 0.19554 0.11394 0.19082 0.0
C1011 C 0.24158 0.1109 0.28152 0.0
H1012 H 0.19575 0.08097 0.18917 0.0
C1013 C 0.24147 0.12969 0.28236 0.0
C1014 C 0.22503 0.13119 0.24934 0.0
H1015 H 0.25465 0.11045 0.3068 0.0
H1016 H 0.25446 0.14313 0.30833 0.0
C1017 C 0.20844 0.1133 0.2167 0.0
C1018 C 0.88519 0.09451 0.18746 0.0
C1019 C 0.86763 0.0917 0.22753 0.0
H1020 H 0.91715 0.11542 0.15814 0.0
C1021 C 0.86951 0.10801 0.27294 0.0
H1022 H 0.88427 0.08222 0.15217 0.0
C1023 C 0.88824 0.12694 0.27626 0.0
C1024 C 0.90562 0.13005 0.23442 0.0
H1025 H 0.85636 0.10635 0.30495 0.0
H1026 H 0.88895 0.13928 0.31074 0.0
C1027 C 0.90403 0.11352 0.19096 0.0
C1028 C 0.90216 0.78873 0.19676 0.0
C1029 C 0.90491 0.7735 0.23339 0.0
H1030 H 0.88116 0.79988 0.17 0.0
C1031 C 0.88831 0.75822 0.27547 0.0
H1032 H 0.91466 0.80075 0.16404 0.0
C1033 C 0.86919 0.75769 0.27875 0.0
C1034 C 0.86617 0.77247 0.2402 0.0
H1035 H 0.88989 0.74629 0.30471 0.0
H1036 H 0.85663 0.7454 0.31045 0.0
C1037 C 0.88298 0.78824 0.20023 0.0
C1038 C 0.09378 0.2101 0.82617 0.0
C1039 C 0.09165 0.22466 0.78252 0.0
H1040 H 0.11399 0.19885 0.8627 0.0
C1041 C 0.10855 0.23861 0.73831 0.0
H1042 H 0.08104 0.19912 0.86074 0.0
C1043 C 0.12736 0.23846 0.73942 0.0
C1044 C 0.12976 0.22436 0.78478 0.0
H1045 H 0.10744 0.24997 0.70373 0.0
H1046 H 0.14016 0.24971 0.70566 0.0
C1047 C 0.11267 0.20995 0.8273 0.0
C1048 C 0.75812 0.86677 0.72792 0.0
C1049 C 0.77145 0.86408 0.77655 0.0
H1050 H 0.74731 0.88697 0.68881 0.0
C1051 C 0.78527 0.88091 0.82149 0.0
H1052 H 0.74734 0.85417 0.69223 0.0
C1053 C 0.78524 0.89981 0.81958 0.0
C1054 C 0.7714 0.90224 0.77263 0.0
H1055 H 0.79578 0.87935 0.85945 0.0
H1056 H 0.79573 0.91234 0.85607 0.0
C1057 C 0.7581 0.88562 0.72594 0.0
C1058 C 0.12907 0.88876 0.73475 0.0
C1059 C 0.12999 0.90559 0.77424 0.0
H1060 H 0.11038 0.85712 0.6995 0.0
C1061 C 0.11159 0.90328 0.80621 0.0
H1062 H 0.14291 0.89 0.70909 0.0
C1063 C 0.09279 0.88429 0.8005 0.0
C1064 C 0.09209 0.86728 0.76294 0.0
H1065 H 0.11177 0.91598 0.83681 0.0
H1066 H 0.07895 0.88282 0.82701 0.0
C1067 C 0.11038 0.86985 0.72926 0.0
C1068 C 0.87594 0.43008 0.52504 0.0
C1069 C 0.89087 0.42749 0.56485 0.0
H1070 H 0.86475 0.45083 0.49488 0.0
C1071 C 0.90551 0.44406 0.60889 0.0
H1072 H 0.8644 0.41759 0.49079 0.0
C1073 C 0.90573 0.463 0.61111 0.0
C1074 C 0.89128 0.46588 0.56952 0.0
H1075 H 0.91715 0.44259 0.64068 0.0
H1076 H 0.91752 0.47553 0.64457 0.0
C1077 C 0.87612 0.4491 0.52746 0.0
C1078 C 0.53407 0.44364 0.60241 0.0
C1079 C 0.53319 0.42594 0.56986 0.0
H1080 H 0.55288 0.47584 0.63071 0.0
C1081 C 0.55171 0.42741 0.54251 0.0
H1082 H 0.52013 0.44307 0.6242 0.0
C1083 C 0.57064 0.44632 0.54657 0.0
C1084 C 0.57136 0.46411 0.57764 0.0
H1085 H 0.55157 0.41404 0.51728 0.0
H1086 H 0.58461 0.44707 0.52416 0.0
C1087 C 0.55289 0.46248 0.60607 0.0
C1088 C 0.571 0.12058 0.50095 0.0
C1089 C 0.57321 0.10605 0.5445 0.0
H1090 H 0.55072 0.13179 0.46494 0.0
C1091 C 0.55641 0.09218 0.58925 0.0
H1092 H 0.58366 0.13152 0.46599 0.0
C1093 C 0.53761 0.09235 0.5887 0.0
C1094 C 0.53511 0.10638 0.54333 0.0
H1095 H 0.5576 0.08085 0.62379 0.0
H1096 H 0.52487 0.08113 0.62278 0.0
C1097 C 0.55212 0.12074 0.50035 0.0
C1098 C 0.77667 0.57211 0.06921 0.0
C1099 C 0.76024 0.55784 0.11444 0.0
H1100 H 0.80824 0.58412 0.03404 0.0
C1101 C 0.76318 0.54362 0.15713 0.0
H1102 H 0.77493 0.58324 0.03536 0.0
C1103 C 0.78239 0.54413 0.15633 0.0
C1104 C 0.79901 0.55887 0.11289 0.0
H1105 H 0.75082 0.5324 0.19243 0.0
H1106 H 0.78433 0.53328 0.19103 0.0
C1107 C 0.79581 0.57263 0.06848 0.0
C1108 C 0.42003 0.19814 0.0555 0.0
C1109 C 0.43714 0.19651 0.08089 0.0
H1110 H 0.40673 0.21768 0.0397 0.0
C1111 C 0.45469 0.2144 0.10931 0.0
H1112 H 0.40629 0.1847 0.033 0.0
C1113 C 0.45492 0.23342 0.11348 0.0
C1114 C 0.43765 0.23493 0.08889 0.0
H1115 H 0.46813 0.21365 0.12936 0.0
H1116 H 0.46854 0.24688 0.13644 0.0
C1117 C 0.4203 0.2171 0.05926 0.0
C1118 C 0.76072 0.2164 0.12903 0.0
C1119 C 0.75941 0.19951 0.08861 0.0
H1120 H 0.78026 0.248 0.16535 0.0
C1121 C 0.7771 0.20223 0.04986 0.0
H1122 H 0.74736 0.21481 0.15943 0.0
C1123 C 0.79584 0.22115 0.05313 0.0
C1124 C 0.79741 0.23785 0.09542 0.0
H1125 H 0.77661 0.1896 0.01777 0.0
H1126 H 0.80922 0.2225 0.02349 0.0
C1127 C 0.77958 0.2354 0.13251 0.0
C1128 C 0.56938 0.77414 0.93559 0.0
C1129 C 0.556 0.75819 0.88677 0.0
H1130 H 0.58002 0.80496 0.97622 0.0
C1131 C 0.54165 0.76101 0.84415 0.0
H1132 H 0.58053 0.77246 0.96968 0.0
C1133 C 0.54131 0.77975 0.84815 0.0
C1134 C 0.55538 0.79602 0.89459 0.0
H1135 H 0.53107 0.74898 0.80625 0.0
H1136 H 0.53053 0.78173 0.81306 0.0
C1137 C 0.5691 0.79282 0.93934 0.0
C1138 C 0.20488 0.77872 0.93371 0.0
C1139 C 0.20237 0.76171 0.89097 0.0
H1140 H 0.22483 0.81057 0.96465 0.0
C1141 C 0.21931 0.7639 0.84851 0.0
H1142 H 0.1922 0.77758 0.96734 0.0
C1143 C 0.23815 0.78292 0.84709 0.0
C1144 C 0.24037 0.80012 0.88795 0.0
H1145 H 0.21791 0.75107 0.81514 0.0
H1146 H 0.25077 0.78427 0.81257 0.0
C1147 C 0.22363 0.79769 0.93214 0.0
C1148 C 0.21772 0.45467 0.84564 0.0
C1149 C 0.20066 0.43996 0.88757 0.0
H1150 H 0.24933 0.46577 0.81134 0.0
C1151 C 0.20315 0.42567 0.93144 0.0
H1152 H 0.21632 0.46592 0.81138 0.0
C1153 C 0.22199 0.42557 0.93137 0.0
C1154 C 0.23883 0.43977 0.88748 0.0
H1155 H 0.19038 0.41418 0.96472 0.0
H1156 H 0.22317 0.41402 0.96464 0.0
C1157 C 0.23664 0.45459 0.84562 0.0
C1158 C 0.44398 0.90661 0.37875 0.0
C1159 C 0.42635 0.89167 0.41764 0.0
H1160 H 0.47613 0.9185 0.35231 0.0
C1161 C 0.42774 0.8761 0.45759 0.0
H1162 H 0.44345 0.91877 0.3471 0.0
C1163 C 0.44662 0.87595 0.46066 0.0
C1164 C 0.46443 0.89136 0.4238 0.0
H1165 H 0.41443 0.86434 0.48807 0.0
H1166 H 0.44737 0.86407 0.49333 0.0
C1167 C 0.46277 0.90646 0.38178 0.0
C1168 C 0.12361 0.56943 0.46123 0.0
C1169 C 0.10743 0.57147 0.42856 0.0
H1170 H 0.13588 0.54918 0.48466 0.0
C1171 C 0.09135 0.55426 0.39106 0.0
H1172 H 0.13626 0.58241 0.49034 0.0
C1173 C 0.0911 0.53531 0.38798 0.0
C1174 C 0.10698 0.53306 0.42207 0.0
H1175 H 0.07867 0.55527 0.36499 0.0
H1176 H 0.07826 0.52231 0.35957 0.0
C1177 C 0.12341 0.5504 0.45787 0.0
C1178 C 0.44685 0.56905 0.46435 0.0
C1179 C 0.46381 0.57135 0.42168 0.0
H1180 H 0.4152 0.54869 0.49851 0.0
C1181 C 0.46111 0.5547 0.37642 0.0
H1182 H 0.4484 0.58162 0.4996 0.0
C1183 C 0.44219 0.53592 0.3759 0.0
C1184 C 0.42545 0.5333 0.42047 0.0
H1185 H 0.47378 0.55596 0.34245 0.0
H1186 H 0.44086 0.52329 0.3415 0.0
C1187 C 0.42782 0.5502 0.46366 0.0
loop_
_geom_bond_atom_site_label_1
_geom_bond_atom_site_label_2
_geom_bond_distance
_geom_bond_site_symmetry_2
_ccdc_geom_bond_type
C0 O1 1.160 . S
C0 O7 1.185 . S
O1 C0 1.160 . S
O2 Zn3 1.899 . S
O2 C10 1.284 . S
Zn3 O2 1.899 . S
Zn3 O4 2.032 . S
Zn3 O7 2.086 . S
Zn3 O12 1.977 . S
O4 Zn3 2.032 . S
O4 C8 1.278 . S
C5 O6 1.203 . S
C5 O12 1.267 . S
O6 C5 1.203 . S
O7 C0 1.185 . S
O7 Zn3 2.086 . S
C8 O4 1.278 . S
C8 O9 1.211 . S
O9 C8 1.211 . S
C10 O2 1.284 . S
C10 O11 1.273 . S
O11 C10 1.273 . S
O12 Zn3 1.977 . S
O12 C5 1.267 . S
C13 O14 1.160 . S
C13 O20 1.185 . S
O14 C13 1.160 . S
O15 Zn16 1.899 . S
O15 C23 1.284 . S
Zn16 O15 1.899 . S
Zn16 O17 2.032 . S
Zn16 O20 2.086 . S
Zn16 O25 1.977 . S
O17 Zn16 2.032 . S
O17 C21 1.278 . S
C18 O19 1.203 . S
C18 O25 1.267 . S
O19 C18 1.203 . S
O20 C13 1.185 . S
O20 Zn16 2.086 . S
C21 O17 1.278 . S
C21 O22 1.211 . S
O22 C21 1.211 . S
C23 O15 1.284 . S
C23 O24 1.273 . S
O24 C23 1.273 . S
O25 Zn16 1.977 . S
O25 C18 1.267 . S
C26 O27 1.160 . S
C26 O33 1.185 . S
O27 C26 1.160 . S
O28 Zn29 1.899 . S
O28 C36 1.284 . S
Zn29 O28 1.899 . S
Zn29 O30 2.032 . S
Zn29 O33 2.086 . S
Zn29 O38 1.977 . S
O30 Zn29 2.032 . S
O30 C34 1.278 . S
C31 O32 1.203 . S
C31 O38 1.267 . S
O32 C31 1.203 . S
O33 C26 1.185 . S
O33 Zn29 2.086 . S
C34 O30 1.278 . S
C34 O35 1.211 . S
O35 C34 1.211 . S
C36 O28 1.284 . S
C36 O37 1.273 . S
O37 C36 1.273 . S
O38 Zn29 1.977 . S
O38 C31 1.267 . S
C39 O40 1.160 . S
C39 O46 1.185 . S
O40 C39 1.160 . S
O41 Zn42 1.899 . S
O41 C49 1.284 . S
Zn42 O41 1.899 . S
Zn42 O43 2.032 . S
Zn42 O46 2.086 . S
Zn42 O51 1.977 . S
O43 Zn42 2.032 . S
O43 C47 1.278 . S
C44 O45 1.203 . S
C44 O51 1.267 . S
O45 C44 1.203 . S
O46 C39 1.185 . S
O46 Zn42 2.086 . S
C47 O43 1.278 . S
C47 O48 1.211 . S
O48 C47 1.211 . S
C49 O41 1.284 . S
C49 O50 1.273 . S
O50 C49 1.273 . S
O51 Zn42 1.977 . S
O51 C44 1.267 . S
C52 O53 1.160 . S
C52 O59 1.185 . S
O53 C52 1.160 . S
O54 Zn55 1.899 . S
O54 C62 1.284 . S
Zn55 O54 1.899 . S
Zn55 O56 2.032 . S
Zn55 O59 2.086 . S
Zn55 O64 1.977 . S
O56 Zn55 2.032 . S
O56 C60 1.278 . S
C57 O58 1.203 . S
C57 O64 1.267 . S
O58 C57 1.203 . S
O59 C52 1.185 . S
O59 Zn55 2.086 . S
C60 O56 1.278 . S
C60 O61 1.211 . S
O61 C60 1.211 . S
C62 O54 1.284 . S
C62 O63 1.273 . S
O63 C62 1.273 . S
O64 Zn55 1.977 . S
O64 C57 1.267 . S
C65 O66 1.160 . S
C65 O72 1.185 . S
O66 C65 1.160 . S
O67 Zn68 1.899 . S
O67 C75 1.284 . S
Zn68 O67 1.899 . S
Zn68 O69 2.032 . S
Zn68 O72 2.086 . S
Zn68 O77 1.977 . S
O69 Zn68 2.032 . S
O69 C73 1.278 . S
C70 O71 1.203 . S
C70 O77 1.267 . S
O71 C70 1.203 . S
O72 C65 1.185 . S
O72 Zn68 2.086 . S
C73 O69 1.278 . S
C73 O74 1.211 . S
O74 C73 1.211 . S
C75 O67 1.284 . S
C75 O76 1.273 . S
O76 C75 1.273 . S
O77 Zn68 1.977 . S
O77 C70 1.267 . S
C78 O79 1.160 . S
C78 O85 1.185 . S
O79 C78 1.160 . S
O80 Zn81 1.899 . S
O80 C88 1.284 . S
Zn81 O80 1.899 . S
Zn81 O82 2.032 . S
Zn81 O85 2.086 . S
Zn81 O90 1.977 . S
O82 Zn81 2.032 . S
O82 C86 1.278 . S
C83 O84 1.203 . S
C83 O90 1.267 . S
O84 C83 1.203 . S
O85 C78 1.185 . S
O85 Zn81 2.086 . S
C86 O82 1.278 . S
C86 O87 1.211 . S
O87 C86 1.211 . S
C88 O80 1.284 . S
C88 O89 1.273 . S
O89 C88 1.273 . S
O90 Zn81 1.977 . S
O90 C83 1.267 . S
C91 O92 1.160 . S
C91 O98 1.185 . S
O92 C91 1.160 . S
O93 Zn94 1.899 . S
O93 C101 1.284 . S
Zn94 O93 1.899 . S
Zn94 O95 2.032 . S
Zn94 O98 2.086 . S
Zn94 O103 1.977 . S
O95 Zn94 2.032 . S
O95 C99 1.278 . S
C96 O97 1.203 . S
C96 O103 1.267 . S
O97 C96 1.203 . S
O98 C91 1.185 . S
O98 Zn94 2.086 . S
C99 O95 1.278 . S
C99 O100 1.211 . S
O100 C99 1.211 . S
C101 O93 1.284 . S
C101 O102 1.273 . S
O102 C101 1.273 . S
O103 Zn94 1.977 . S
O103 C96 1.267 . S
C104 O105 1.160 . S
C104 O111 1.185 . S
O105 C104 1.160 . S
O106 Zn107 1.899 . S
O106 C114 1.284 . S
Zn107 O106 1.899 . S
Zn107 O108 2.032 . S
Zn107 O111 2.086 . S
Zn107 O116 1.977 . S
O108 Zn107 2.032 . S
O108 C112 1.278 . S
C109 O110 1.203 . S
C109 O116 1.267 . S
O110 C109 1.203 . S
O111 C104 1.185 . S
O111 Zn107 2.086 . S
C112 O108 1.278 . S
C112 O113 1.211 . S
O113 C112 1.211 . S
C114 O106 1.284 . S
C114 O115 1.273 . S
O115 C114 1.273 . S
O116 Zn107 1.977 . S
O116 C109 1.267 . S
C117 O118 1.160 . S
C117 O124 1.185 . S
O118 C117 1.160 . S
O119 Zn120 1.899 . S
O119 C127 1.284 . S
Zn120 O119 1.899 . S
Zn120 O121 2.032 . S
Zn120 O124 2.086 . S
Zn120 O129 1.977 . S
O121 Zn120 2.032 . S
O121 C125 1.278 . S
C122 O123 1.203 . S
C122 O129 1.267 . S
O123 C122 1.203 . S
O124 C117 1.185 . S
O124 Zn120 2.086 . S
C125 O121 1.278 . S
C125 O126 1.211 . S
O126 C125 1.211 . S
C127 O119 1.284 . S
C127 O128 1.273 . S
O128 C127 1.273 . S
O129 Zn120 1.977 . S
O129 C122 1.267 . S
C130 O131 1.160 . S
C130 O137 1.185 . S
O131 C130 1.160 . S
O132 Zn133 1.899 . S
O132 C140 1.284 . S
Zn133 O132 1.899 . S
Zn133 O134 2.032 . S
Zn133 O137 2.086 . S
Zn133 O142 1.977 . S
O134 Zn133 2.032 . S
O134 C138 1.278 . S
C135 O136 1.203 . S
C135 O142 1.267 . S
O136 C135 1.203 . S
O137 C130 1.185 . S
O137 Zn133 2.086 . S
C138 O134 1.278 . S
C138 O139 1.211 . S
O139 C138 1.211 . S
C140 O132 1.284 . S
C140 O141 1.273 . S
O141 C140 1.273 . S
O142 Zn133 1.977 . S
O142 C135 1.267 . S
C143 O144 1.160 . S
C143 O150 1.185 . S
O144 C143 1.160 . S
O145 Zn146 1.899 . S
O145 C153 1.284 . S
Zn146 O145 1.899 . S
Zn146 O147 2.032 . S
Zn146 O150 2.086 . S
Zn146 O155 1.977 . S
O147 Zn146 2.032 . S
O147 C151 1.278 . S
C148 O149 1.203 . S
C148 O155 1.267 . S
O149 C148 1.203 . S
O150 C143 1.185 . S
O150 Zn146 2.086 . S
C151 O147 1.278 . S
C151 O152 1.211 . S
O152 C151 1.211 . S
C153 O145 1.284 . S
C153 O154 1.273 . S
O154 C153 1.273 . S
O155 Zn146 1.977 . S
O155 C148 1.267 . S
C156 O157 1.160 . S
C156 O163 1.185 . S
O157 C156 1.160 . S
O158 Zn159 1.899 . S
O158 C166 1.284 . S
Zn159 O158 1.899 . S
Zn159 O160 2.032 . S
Zn159 O163 2.086 . S
Zn159 O168 1.977 . S
O160 Zn159 2.032 . S
O160 C164 1.278 . S
C161 O162 1.203 . S
C161 O168 1.267 . S
O162 C161 1.203 . S
O163 C156 1.185 . S
O163 Zn159 2.086 . S
C164 O160 1.278 . S
C164 O165 1.211 . S
O165 C164 1.211 . S
C166 O158 1.284 . S
C166 O167 1.273 . S
O167 C166 1.273 . S
O168 Zn159 1.977 . S
O168 C161 1.267 . S
C169 O170 1.160 . S
C169 O176 1.185 . S
O170 C169 1.160 . S
O171 Zn172 1.899 . S
O171 C179 1.284 . S
Zn172 O171 1.899 . S
Zn172 O173 2.032 . S
Zn172 O176 2.086 . S
Zn172 O181 1.977 . S
O173 Zn172 2.032 . S
O173 C177 1.278 . S
C174 O175 1.203 . S
C174 O181 1.267 . S
O175 C174 1.203 . S
O176 C169 1.185 . S
O176 Zn172 2.086 . S
C177 O173 1.278 . S
C177 O178 1.211 . S
O178 C177 1.211 . S
C179 O171 1.284 . S
C179 O180 1.273 . S
O180 C179 1.273 . S
O181 Zn172 1.977 . S
O181 C174 1.267 . S
C182 O183 1.160 . S
C182 O189 1.185 . S
O183 C182 1.160 . S
O184 Zn185 1.899 . S
O184 C192 1.284 . S
Zn185 O184 1.899 . S
Zn185 O186 2.032 . S
Zn185 O189 2.086 . S
Zn185 O194 1.977 . S
O186 Zn185 2.032 . S
O186 C190 1.278 . S
C187 O188 1.203 . S
C187 O194 1.267 . S
O188 C187 1.203 . S
O189 C182 1.185 . S
O189 Zn185 2.086 . S
C190 O186 1.278 . S
C190 O191 1.211 . S
O191 C190 1.211 . S
C192 O184 1.284 . S
C192 O193 1.273 . S
O193 C192 1.273 . S
O194 Zn185 1.977 . S
O194 C187 1.267 . S
C195 O196 1.160 . S
C195 O202 1.185 . S
O196 C195 1.160 . S
O197 Zn198 1.899 . S
O197 C205 1.284 . S
Zn198 O197 1.899 . S
Zn198 O199 2.032 . S
Zn198 O202 2.086 1_554 S
Zn198 O207 1.977 . S
O199 Zn198 2.032 . S
O199 C203 1.278 . S
C200 O201 1.203 . S
C200 O207 1.267 . S
O201 C200 1.203 . S
O202 C195 1.185 . S
O202 Zn198 2.086 1_556 S
C203 O199 1.278 . S
C203 O204 1.211 . S
O204 C203 1.211 . S
C205 O197 1.284 . S
C205 O206 1.273 . S
O206 C205 1.273 . S
O207 Zn198 1.977 . S
O207 C200 1.267 . S
C208 O209 1.160 . S
C208 O215 1.185 . S
O209 C208 1.160 . S
O210 Zn211 1.899 . S
O210 C218 1.284 . S
Zn211 O210 1.899 . S
Zn211 O212 2.032 . S
Zn211 O215 2.086 1_554 S
Zn211 O220 1.977 . S
O212 Zn211 2.032 . S
O212 C216 1.278 . S
C213 O214 1.203 . S
C213 O220 1.267 . S
O214 C213 1.203 . S
O215 C208 1.185 . S
O215 Zn211 2.086 1_556 S
C216 O212 1.278 . S
C216 O217 1.211 . S
O217 C216 1.211 . S
C218 O210 1.284 . S
C218 O219 1.273 . S
O219 C218 1.273 . S
O220 Zn211 1.977 . S
O220 C213 1.267 . S
C221 O222 1.160 . S
C221 O228 1.185 . S
O222 C221 1.160 . S
O223 Zn224 1.899 . S
O223 C231 1.284 . S
Zn224 O223 1.899 . S
Zn224 O225 2.032 . S
Zn224 O228 2.086 1_554 S
Zn224 O233 1.977 . S
O225 Zn224 2.032 . S
O225 C229 1.278 . S
C226 O227 1.203 . S
C226 O233 1.267 . S
O227 C226 1.203 . S
O228 C221 1.185 . S
O228 Zn224 2.086 1_556 S
C229 O225 1.278 . S
C229 O230 1.211 . S
O230 C229 1.211 . S
C231 O223 1.284 . S
C231 O232 1.273 . S
O232 C231 1.273 . S
O233 Zn224 1.977 . S
O233 C226 1.267 . S
C234 O235 1.160 . S
C234 O241 1.185 . S
O235 C234 1.160 . S
O236 Zn237 1.899 . S
O236 C244 1.284 . S
Zn237 O236 1.899 . S
Zn237 O238 2.032 . S
Zn237 O241 2.086 1_554 S
Zn237 O246 1.977 . S
O238 Zn237 2.032 . S
O238 C242 1.278 . S
C239 O240 1.203 . S
C239 O246 1.267 . S
O240 C239 1.203 . S
O241 C234 1.185 . S
O241 Zn237 2.086 1_556 S
C242 O238 1.278 . S
C242 O243 1.211 . S
O243 C242 1.211 . S
C244 O236 1.284 . S
C244 O245 1.273 . S
O245 C244 1.273 . S
O246 Zn237 1.977 . S
O246 C239 1.267 . S
C247 O248 1.160 . S
C247 O254 1.185 . S
O248 C247 1.160 . S
O249 Zn250 1.899 . S
O249 C257 1.284 . S
Zn250 O249 1.899 . S
Zn250 O251 2.032 . S
Zn250 O254 2.086 1_554 S
Zn250 O259 1.977 . S
O251 Zn250 2.032 . S
O251 C255 1.278 . S
C252 O253 1.203 . S
C252 O259 1.267 . S
O253 C252 1.203 . S
O254 C247 1.185 . S
O254 Zn250 2.086 1_556 S
C255 O251 1.278 . S
C255 O256 1.211 . S
O256 C255 1.211 . S
C257 O249 1.284 . S
C257 O258 1.273 . S
O258 C257 1.273 . S
O259 Zn250 1.977 . S
O259 C252 1.267 . S
C260 O261 1.160 . S
C260 O267 1.185 . S
O261 C260 1.160 . S
O262 Zn263 1.899 . S
O262 C270 1.284 . S
Zn263 O262 1.899 . S
Zn263 O264 2.032 . S
Zn263 O267 2.086 1_554 S
Zn263 O272 1.977 . S
O264 Zn263 2.032 . S
O264 C268 1.278 . S
C265 O266 1.203 . S
C265 O272 1.267 . S
O266 C265 1.203 . S
O267 C260 1.185 . S
O267 Zn263 2.086 1_556 S
C268 O264 1.278 . S
C268 O269 1.211 . S
O269 C268 1.211 . S
C270 O262 1.284 . S
C270 O271 1.273 . S
O271 C270 1.273 . S
O272 Zn263 1.977 . S
O272 C265 1.267 . S
C273 O274 1.160 . S
C273 O280 1.185 . S
O274 C273 1.160 . S
O275 Zn276 1.899 . S
O275 C283 1.284 . S
Zn276 O275 1.899 . S
Zn276 O277 2.032 . S
Zn276 O280 2.086 . S
Zn276 O285 1.977 . S
O277 Zn276 2.032 . S
O277 C281 1.278 . S
C278 O279 1.203 . S
C278 O285 1.267 . S
O279 C278 1.203 . S
O280 C273 1.185 . S
O280 Zn276 2.086 . S
C281 O277 1.278 . S
C281 O282 1.211 . S
O282 C281 1.211 . S
C283 O275 1.284 . S
C283 O284 1.273 . S
O284 C283 1.273 . S
O285 Zn276 1.977 . S
O285 C278 1.267 . S
C286 O287 1.160 . S
C286 O293 1.185 . S
O287 C286 1.160 . S
O288 Zn289 1.899 . S
O288 C296 1.284 . S
Zn289 O288 1.899 . S
Zn289 O290 2.032 . S
Zn289 O293 2.086 . S
Zn289 O298 1.977 . S
O290 Zn289 2.032 . S
O290 C294 1.278 . S
C291 O292 1.203 . S
C291 O298 1.267 . S
O292 C291 1.203 . S
O293 C286 1.185 . S
O293 Zn289 2.086 . S
C294 O290 1.278 . S
C294 O295 1.211 . S
O295 C294 1.211 . S
C296 O288 1.284 . S
C296 O297 1.273 . S
O297 C296 1.273 . S
O298 Zn289 1.977 . S
O298 C291 1.267 . S
C299 O300 1.160 . S
C299 O306 1.185 . S
O300 C299 1.160 . S
O301 Zn302 1.899 . S
O301 C309 1.284 . S
Zn302 O301 1.899 . S
Zn302 O303 2.032 . S
Zn302 O306 2.086 . S
Zn302 O311 1.977 . S
O303 Zn302 2.032 . S
O303 C307 1.278 . S
C304 O305 1.203 . S
C304 O311 1.267 . S
O305 C304 1.203 . S
O306 C299 1.185 . S
O306 Zn302 2.086 . S
C307 O303 1.278 . S
C307 O308 1.211 . S
O308 C307 1.211 . S
C309 O301 1.284 . S
C309 O310 1.273 . S
O310 C309 1.273 . S
O311 Zn302 1.977 . S
O311 C304 1.267 . S
C312 O313 1.160 . S
C312 O319 1.185 . S
O313 C312 1.160 . S
O314 Zn315 1.899 . S
O314 C322 1.284 . S
Zn315 O314 1.899 . S
Zn315 O316 2.032 . S
Zn315 O319 2.086 1_556 S
Zn315 O324 1.977 . S
O316 Zn315 2.032 . S
O316 C320 1.278 . S
C317 O318 1.203 . S
C317 O324 1.267 . S
O318 C317 1.203 . S
O319 C312 1.185 . S
O319 Zn315 2.086 1_554 S
C320 O316 1.278 . S
C320 O321 1.211 . S
O321 C320 1.211 . S
C322 O314 1.284 . S
C322 O323 1.273 . S
O323 C322 1.273 . S
O324 Zn315 1.977 . S
O324 C317 1.267 . S
C325 O326 1.160 . S
C325 O332 1.185 . S
O326 C325 1.160 . S
O327 Zn328 1.899 . S
O327 C335 1.284 . S
Zn328 O327 1.899 . S
Zn328 O329 2.032 . S
Zn328 O332 2.086 1_556 S
Zn328 O337 1.977 . S
O329 Zn328 2.032 . S
O329 C333 1.278 . S
C330 O331 1.203 . S
C330 O337 1.267 . S
O331 C330 1.203 . S
O332 C325 1.185 . S
O332 Zn328 2.086 1_554 S
C333 O329 1.278 . S
C333 O334 1.211 . S
O334 C333 1.211 . S
C335 O327 1.284 . S
C335 O336 1.273 . S
O336 C335 1.273 . S
O337 Zn328 1.977 . S
O337 C330 1.267 . S
C338 O339 1.160 . S
C338 O345 1.185 . S
O339 C338 1.160 . S
O340 Zn341 1.899 . S
O340 C348 1.284 . S
Zn341 O340 1.899 . S
Zn341 O342 2.032 . S
Zn341 O345 2.086 1_556 S
Zn341 O350 1.977 . S
O342 Zn341 2.032 . S
O342 C346 1.278 . S
C343 O344 1.203 . S
C343 O350 1.267 . S
O344 C343 1.203 . S
O345 C338 1.185 . S
O345 Zn341 2.086 1_554 S
C346 O342 1.278 . S
C346 O347 1.211 . S
O347 C346 1.211 . S
C348 O340 1.284 . S
C348 O349 1.273 . S
O349 C348 1.273 . S
O350 Zn341 1.977 . S
O350 C343 1.267 . S
C351 O352 1.160 . S
C351 O358 1.185 . S
O352 C351 1.160 . S
O353 Zn354 1.899 . S
O353 C361 1.284 . S
Zn354 O353 1.899 . S
Zn354 O355 2.032 . S
Zn354 O358 2.086 . S
Zn354 O363 1.977 . S
O355 Zn354 2.032 . S
O355 C359 1.278 . S
C356 O357 1.203 . S
C356 O363 1.267 . S
O357 C356 1.203 . S
O358 C351 1.185 . S
O358 Zn354 2.086 . S
C359 O355 1.278 . S
C359 O360 1.211 . S
O360 C359 1.211 . S
C361 O353 1.284 . S
C361 O362 1.273 . S
O362 C361 1.273 . S
O363 Zn354 1.977 . S
O363 C356 1.267 . S
C364 O365 1.160 . S
C364 O371 1.185 . S
O365 C364 1.160 . S
O366 Zn367 1.899 . S
O366 C374 1.284 . S
Zn367 O366 1.899 . S
Zn367 O368 2.032 . S
Zn367 O371 2.086 . S
Zn367 O376 1.977 . S
O368 Zn367 2.032 . S
O368 C372 1.278 . S
C369 O370 1.203 . S
C369 O376 1.267 . S
O370 C369 1.203 . S
O371 C364 1.185 . S
O371 Zn367 2.086 . S
C372 O368 1.278 . S
C372 O373 1.211 . S
O373 C372 1.211 . S
C374 O366 1.284 . S
C374 O375 1.273 . S
O375 C374 1.273 . S
O376 Zn367 1.977 . S
O376 C369 1.267 . S
C377 O378 1.160 . S
C377 O384 1.185 . S
O378 C377 1.160 . S
O379 Zn380 1.899 . S
O379 C387 1.284 . S
Zn380 O379 1.899 . S
Zn380 O381 2.032 . S
Zn380 O384 2.086 . S
Zn380 O389 1.977 . S
O381 Zn380 2.032 . S
O381 C385 1.278 . S
C382 O383 1.203 . S
C382 O389 1.267 . S
O383 C382 1.203 . S
O384 C377 1.185 . S
O384 Zn380 2.086 . S
C385 O381 1.278 . S
C385 O386 1.211 . S
O386 C385 1.211 . S
C387 O379 1.284 . S
C387 O388 1.273 . S
O388 C387 1.273 . S
O389 Zn380 1.977 . S
O389 C382 1.267 . S
C390 O391 1.160 . S
C390 O397 1.185 . S
O391 C390 1.160 . S
O392 Zn393 1.899 . S
O392 C400 1.284 . S
Zn393 O392 1.899 . S
Zn393 O394 2.032 . S
Zn393 O397 2.086 . S
Zn393 O402 1.977 . S
O394 Zn393 2.032 . S
O394 C398 1.278 . S
C395 O396 1.203 . S
C395 O402 1.267 . S
O396 C395 1.203 . S
O397 C390 1.185 . S
O397 Zn393 2.086 . S
C398 O394 1.278 . S
C398 O399 1.211 . S
O399 C398 1.211 . S
C400 O392 1.284 . S
C400 O401 1.273 . S
O401 C400 1.273 . S
O402 Zn393 1.977 . S
O402 C395 1.267 . S
C403 O404 1.160 . S
C403 O410 1.185 . S
O404 C403 1.160 . S
O405 Zn406 1.899 . S
O405 C413 1.284 . S
Zn406 O405 1.899 . S
Zn406 O407 2.032 . S
Zn406 O410 2.086 . S
Zn406 O415 1.977 . S
O407 Zn406 2.032 . S
O407 C411 1.278 . S
C408 O409 1.203 . S
C408 O415 1.267 . S
O409 C408 1.203 . S
O410 C403 1.185 . S
O410 Zn406 2.086 . S
C411 O407 1.278 . S
C411 O412 1.211 . S
O412 C411 1.211 . S
C413 O405 1.284 . S
C413 O414 1.273 . S
O414 C413 1.273 . S
O415 Zn406 1.977 . S
O415 C408 1.267 . S
C416 O417 1.160 . S
C416 O423 1.185 . S
O417 C416 1.160 . S
O418 Zn419 1.899 . S
O418 C426 1.284 . S
Zn419 O418 1.899 . S
Zn419 O420 2.032 . S
Zn419 O423 2.086 . S
Zn419 O428 1.977 . S
O420 Zn419 2.032 . S
O420 C424 1.278 . S
C421 O422 1.203 . S
C421 O428 1.267 . S
O422 C421 1.203 . S
O423 C416 1.185 . S
O423 Zn419 2.086 . S
C424 O420 1.278 . S
C424 O425 1.211 . S
O425 C424 1.211 . S
C426 O418 1.284 . S
C426 O427 1.273 . S
O427 C426 1.273 . S
O428 Zn419 1.977 . S
O428 C421 1.267 . S
C429 O430 1.160 . S
C429 O436 1.185 . S
O430 C429 1.160 . S
O431 Zn432 1.899 . S
O431 C439 1.284 . S
Zn432 O431 1.899 . S
Zn432 O433 2.032 . S
Zn432 O436 2.086 1_556 S
Zn432 O441 1.977 . S
O433 Zn432 2.032 . S
O433 C437 1.278 . S
C434 O435 1.203 . S
C434 O441 1.267 . S
O435 C434 1.203 . S
O436 C429 1.185 . S
O436 Zn432 2.086 1_554 S
C437 O433 1.278 . S
C437 O438 1.211 . S
O438 C437 1.211 . S
C439 O431 1.284 . S
C439 O440 1.273 . S
O440 C439 1.273 . S
O441 Zn432 1.977 . S
O441 C434 1.267 . S
C442 O443 1.160 . S
C442 O449 1.185 . S
O443 C442 1.160 . S
O444 Zn445 1.899 . S
O444 C452 1.284 . S
Zn445 O444 1.899 . S
Zn445 O446 2.032 . S
Zn445 O449 2.086 1_556 S
Zn445 O454 1.977 . S
O446 Zn445 2.032 . S
O446 C450 1.278 . S
C447 O448 1.203 . S
C447 O454 1.267 . S
O448 C447 1.203 . S
O449 C442 1.185 . S
O449 Zn445 2.086 1_554 S
C450 O446 1.278 . S
C450 O451 1.211 . S
O451 C450 1.211 . S
C452 O444 1.284 . S
C452 O453 1.273 . S
O453 C452 1.273 . S
O454 Zn445 1.977 . S
O454 C447 1.267 . S
C455 O456 1.160 . S
C455 O462 1.185 . S
O456 C455 1.160 . S
O457 Zn458 1.899 . S
O457 C465 1.284 . S
Zn458 O457 1.899 . S
Zn458 O459 2.032 . S
Zn458 O462 2.086 1_556 S
Zn458 O467 1.977 . S
O459 Zn458 2.032 . S
O459 C463 1.278 . S
C460 O461 1.203 . S
C460 O467 1.267 . S
O461 C460 1.203 . S
O462 C455 1.185 . S
O462 Zn458 2.086 1_554 S
C463 O459 1.278 . S
C463 O464 1.211 . S
O464 C463 1.211 . S
C465 O457 1.284 . S
C465 O466 1.273 . S
O466 C465 1.273 . S
O467 Zn458 1.977 . S
O467 C460 1.267 . S
C468 C469 1.387 . S
C468 H472 0.950 . S
C468 C477 1.390 1_565 S
C469 C468 1.387 . S
C469 C471 1.387 . S
H470 C477 0.950 . S
C471 C469 1.387 . S
C471 C473 1.390 1_565 S
C471 H475 0.950 . S
H472 C468 0.950 . S
C473 C471 1.390 1_545 S
C473 C474 1.387 . S
C473 H476 0.950 . S
C474 C473 1.387 . S
C474 C477 1.387 . S
H475 C471 0.950 . S
H476 C473 0.950 . S
C477 C468 1.390 1_545 S
C477 H470 0.950 . S
C477 C474 1.387 . S
C478 C479 1.387 . S
C478 H482 0.950 . S
C478 C487 1.390 . S
C479 C478 1.387 . S
C479 C481 1.387 1_455 S
H480 C487 0.950 . S
C481 C479 1.387 1_655 S
C481 C483 1.390 . S
C481 H485 0.950 . S
H482 C478 0.950 . S
C483 C481 1.390 . S
C483 C484 1.387 . S
C483 H486 0.950 . S
C484 C483 1.387 . S
C484 C487 1.387 1_655 S
H485 C481 0.950 . S
H486 C483 0.950 . S
C487 C478 1.390 . S
C487 H480 0.950 . S
C487 C484 1.387 1_455 S
C488 C489 1.387 . S
C488 H492 0.950 . S
C488 C497 1.390 . S
C489 C488 1.387 . S
C489 C491 1.387 . S
H490 C497 0.950 . S
C491 C489 1.387 . S
C491 C493 1.390 . S
C491 H495 0.950 . S
H492 C488 0.950 . S
C493 C491 1.390 . S
C493 C494 1.387 . S
C493 H496 0.950 . S
C494 C493 1.387 . S
C494 C497 1.387 . S
H495 C491 0.950 . S
H496 C493 0.950 . S
C497 C488 1.390 . S
C497 H490 0.950 . S
C497 C494 1.387 . S
C498 C499 1.387 . S
C498 H502 0.950 . S
C498 C507 1.390 1_565 S
C499 C498 1.387 . S
C499 C501 1.387 . S
H500 C507 0.950 . S
C501 C499 1.387 . S
C501 C503 1.390 1_565 S
C501 H505 0.950 . S
H502 C498 0.950 . S
C503 C501 1.390 1_545 S
C503 C504 1.387 . S
C503 H506 0.950 . S
C504 C503 1.387 . S
C504 C507 1.387 . S
H505 C501 0.950 . S
H506 C503 0.950 . S
C507 C498 1.390 1_545 S
C507 H500 0.950 . S
C507 C504 1.387 . S
C508 C509 1.387 . S
C508 H512 0.950 . S
C508 C517 1.390 . S
C509 C508 1.387 . S
C509 C511 1.387 1_455 S
H510 C517 0.950 . S
C511 C509 1.387 1_655 S
C511 C513 1.390 . S
C511 H515 0.950 . S
H512 C508 0.950 . S
C513 C511 1.390 . S
C513 C514 1.387 . S
C513 H516 0.950 . S
C514 C513 1.387 . S
C514 C517 1.387 1_655 S
H515 C511 0.950 . S
H516 C513 0.950 . S
C517 C508 1.390 . S
C517 H510 0.950 . S
C517 C514 1.387 1_455 S
C518 C519 1.387 . S
C518 H522 0.950 . S
C518 C527 1.390 . S
C519 C518 1.387 . S
C519 C521 1.387 . S
H520 C527 0.950 . S
C521 C519 1.387 . S
C521 C523 1.390 . S
C521 H525 0.950 . S
H522 C518 0.950 . S
C523 C521 1.390 . S
C523 C524 1.387 . S
C523 H526 0.950 . S
C524 C523 1.387 . S
C524 C527 1.387 . S
H525 C521 0.950 . S
H526 C523 0.950 . S
C527 C518 1.390 . S
C527 H520 0.950 . S
C527 C524 1.387 . S
C528 C529 1.387 . S
C528 H532 0.950 . S
C528 C537 1.390 . S
C529 C528 1.387 . S
C529 C531 1.387 . S
H530 C537 0.950 . S
C531 C529 1.387 . S
C531 C533 1.390 . S
C531 H535 0.950 . S
H532 C528 0.950 . S
C533 C531 1.390 . S
C533 C534 1.387 . S
C533 H536 0.950 . S
C534 C533 1.387 . S
C534 C537 1.387 . S
H535 C531 0.950 . S
H536 C533 0.950 . S
C537 C528 1.390 . S
C537 H530 0.950 . S
C537 C534 1.387 . S
C538 C539 1.387 . S
C538 H542 0.950 . S
C538 C547 1.390 . S
C539 C538 1.387 . S
C539 C541 1.387 . S
H540 C547 0.950 . S
C541 C539 1.387 . S
C541 C543 1.390 . S
C541 H545 0.950 . S
H542 C538 0.950 . S
C543 C541 1.390 . S
C543 C544 1.387 . S
C543 H546 0.950 . S
C544 C543 1.387 . S
C544 C547 1.387 . S
H545 C541 0.950 . S
H546 C543 0.950 . S
C547 C538 1.390 . S
C547 H540 0.950 . S
C547 C544 1.387 . S
C548 C549 1.387 . S
C548 H552 0.950 . S
C548 C557 1.390 . S
C549 C548 1.387 . S
C549 C551 1.387 . S
H550 C557 0.950 . S
C551 C549 1.387 . S
C551 C553 1.390 . S
C551 H555 0.950 . S
H552 C548 0.950 . S
C553 C551 1.390 . S
C553 C554 1.387 . S
C553 H556 0.950 . S
C554 C553 1.387 . S
C554 C557 1.387 . S
H555 C551 0.950 . S
H556 C553 0.950 . S
C557 C548 1.390 . S
C557 H550 0.950 . S
C557 C554 1.387 . S
C558 C559 1.387 . S
C558 H562 0.950 . S
C558 C567 1.390 . S
C559 C558 1.387 . S
C559 C561 1.387 . S
H560 C567 0.950 . S
C561 C559 1.387 . S
C561 C563 1.390 . S
C561 H565 0.950 . S
H562 C558 0.950 . S
C563 C561 1.390 . S
C563 C564 1.387 . S
C563 H566 0.950 . S
C564 C563 1.387 . S
C564 C567 1.387 . S
H565 C561 0.950 . S
H566 C563 0.950 . S
C567 C558 1.390 . S
C567 H560 0.950 . S
C567 C564 1.387 . S
C568 C569 1.387 . S
C568 H572 0.950 . S
C568 C577 1.390 . S
C569 C568 1.387 . S
C569 C571 1.387 . S
H570 C577 0.950 . S
C571 C569 1.387 . S
C571 C573 1.390 . S
C571 H575 0.950 . S
H572 C568 0.950 . S
C573 C571 1.390 . S
C573 C574 1.387 . S
C573 H576 0.950 . S
C574 C573 1.387 . S
C574 C577 1.387 . S
H575 C571 0.950 . S
H576 C573 0.950 . S
C577 C568 1.390 . S
C577 H570 0.950 . S
C577 C574 1.387 . S
C578 C579 1.387 . S
C578 H582 0.950 . S
C578 C587 1.390 . S
C579 C578 1.387 . S
C579 C581 1.387 . S
H580 C587 0.950 . S
C581 C579 1.387 . S
C581 C583 1.390 . S
C581 H585 0.950 . S
H582 C578 0.950 . S
C583 C581 1.390 . S
C583 C584 1.387 . S
C583 H586 0.950 . S
C584 C583 1.387 . S
C584 C587 1.387 . S
H585 C581 0.950 . S
H586 C583 0.950 . S
C587 C578 1.390 . S
C587 H580 0.950 . S
C587 C584 1.387 . S
C588 C589 1.387 . S
C588 H592 0.950 . S
C588 C597 1.390 . S
C589 C588 1.387 . S
C589 C591 1.387 . S
H590 C597 0.950 . S
C591 C589 1.387 . S
C591 C593 1.390 . S
C591 H595 0.950 . S
H592 C588 0.950 . S
C593 C591 1.390 . S
C593 C594 1.387 . S
C593 H596 0.950 . S
C594 C593 1.387 . S
C594 C597 1.387 . S
H595 C591 0.950 . S
H596 C593 0.950 . S
C597 C588 1.390 . S
C597 H590 0.950 . S
C597 C594 1.387 . S
C598 C599 1.387 . S
C598 H602 0.950 . S
C598 C607 1.390 . S
C599 C598 1.387 . S
C599 C601 1.387 . S
H600 C607 0.950 . S
C601 C599 1.387 . S
C601 C603 1.390 . S
C601 H605 0.950 . S
H602 C598 0.950 . S
C603 C601 1.390 . S
C603 C604 1.387 . S
C603 H606 0.950 . S
C604 C603 1.387 . S
C604 C607 1.387 . S
H605 C601 0.950 . S
H606 C603 0.950 . S
C607 C598 1.390 . S
C607 H600 0.950 . S
C607 C604 1.387 . S
C608 C609 1.387 . S
C608 H612 0.950 . S
C608 C617 1.390 . S
C609 C608 1.387 . S
C609 C611 1.387 . S
H610 C617 0.950 . S
C611 C609 1.387 . S
C611 C613 1.390 . S
C611 H615 0.950 . S
H612 C608 0.950 . S
C613 C611 1.390 . S
C613 C614 1.387 . S
C613 H616 0.950 . S
C614 C613 1.387 . S
C614 C617 1.387 . S
H615 C611 0.950 . S
H616 C613 0.950 . S
C617 C608 1.390 . S
C617 H610 0.950 . S
C617 C614 1.387 . S
C618 C619 1.387 . S
C618 H622 0.950 . S
C618 C627 1.390 . S
C619 C618 1.387 . S
C619 C621 1.387 . S
H620 C627 0.950 . S
C621 C619 1.387 . S
C621 C623 1.390 . S
C621 H625 0.950 . S
H622 C618 0.950 . S
C623 C621 1.390 . S
C623 C624 1.387 . S
C623 H626 0.950 . S
C624 C623 1.387 . S
C624 C627 1.387 . S
H625 C621 0.950 . S
H626 C623 0.950 . S
C627 C618 1.390 . S
C627 H620 0.950 . S
C627 C624 1.387 . S
C628 C629 1.387 . S
C628 H632 0.950 . S
C628 C637 1.390 . S
C629 C628 1.387 . S
C629 C631 1.387 . S
H630 C637 0.950 . S
C631 C629 1.387 . S
C631 C633 1.390 . S
C631 H635 0.950 . S
H632 C628 0.950 . S
C633 C631 1.390 . S
C633 C634 1.387 . S
C633 H636 0.950 . S
C634 C633 1.387 . S
C634 C637 1.387 . S
H635 C631 0.950 . S
H636 C633 0.950 . S
C637 C628 1.390 . S
C637 H630 0.950 . S
C637 C634 1.387 . S
C638 C639 1.387 . S
C638 H642 0.950 . S
C638 C647 1.390 . S
C639 C638 1.387 . S
C639 C641 1.387 . S
H640 C647 0.950 . S
C641 C639 1.387 . S
C641 C643 1.390 . S
C641 H645 0.950 . S
H642 C638 0.950 . S
C643 C641 1.390 . S
C643 C644 1.387 . S
C643 H646 0.950 . S
C644 C643 1.387 . S
C644 C647 1.387 . S
H645 C641 0.950 . S
H646 C643 0.950 . S
C647 C638 1.390 . S
C647 H640 0.950 . S
C647 C644 1.387 . S
C648 C649 1.387 . S
C648 H652 0.950 . S
C648 C657 1.390 1_566 S
C649 C648 1.387 . S
C649 C651 1.387 . S
H650 C657 0.950 . S
C651 C649 1.387 . S
C651 C653 1.390 1_566 S
C651 H655 0.950 . S
H652 C648 0.950 . S
C653 C651 1.390 1_544 S
C653 C654 1.387 . S
C653 H656 0.950 . S
C654 C653 1.387 . S
C654 C657 1.387 . S
H655 C651 0.950 . S
H656 C653 0.950 . S
C657 C648 1.390 1_544 S
C657 H650 0.950 . S
C657 C654 1.387 . S
C658 C659 1.387 1_455 S
C658 H662 0.950 . S
C658 C667 1.390 1_554 S
C659 C658 1.387 1_655 S
C659 C661 1.387 . S
H660 C667 0.950 . S
C661 C659 1.387 . S
C661 C663 1.390 1_554 S
C661 H665 0.950 . S
H662 C658 0.950 . S
C663 C661 1.390 1_556 S
C663 C664 1.387 1_655 S
C663 H666 0.950 . S
C664 C663 1.387 1_455 S
C664 C667 1.387 . S
H665 C661 0.950 . S
H666 C663 0.950 . S
C667 C658 1.390 1_556 S
C667 H660 0.950 . S
C667 C664 1.387 . S
C668 C669 1.387 . S
C668 H672 0.950 . S
C668 C677 1.390 1_556 S
C669 C668 1.387 . S
C669 C671 1.387 . S
H670 C677 0.950 . S
C671 C669 1.387 . S
C671 C673 1.390 1_556 S
C671 H675 0.950 . S
H672 C668 0.950 . S
C673 C671 1.390 1_554 S
C673 C674 1.387 . S
C673 H676 0.950 . S
C674 C673 1.387 . S
C674 C677 1.387 . S
H675 C671 0.950 . S
H676 C673 0.950 . S
C677 C668 1.390 1_554 S
C677 H670 0.950 . S
C677 C674 1.387 . S
C678 C679 1.387 . S
C678 H682 0.950 . S
C678 C687 1.390 1_566 S
C679 C678 1.387 . S
C679 C681 1.387 . S
H680 C687 0.950 . S
C681 C679 1.387 . S
C681 C683 1.390 1_566 S
C681 H685 0.950 . S
H682 C678 0.950 . S
C683 C681 1.390 1_544 S
C683 C684 1.387 . S
C683 H686 0.950 . S
C684 C683 1.387 . S
C684 C687 1.387 . S
H685 C681 0.950 . S
H686 C683 0.950 . S
C687 C678 1.390 1_544 S
C687 H680 0.950 . S
C687 C684 1.387 . S
C688 C689 1.387 . S
C688 H692 0.950 . S
C688 C697 1.390 1_556 S
C689 C688 1.387 . S
C689 C691 1.387 1_455 S
H690 C697 0.950 . S
C691 C689 1.387 1_655 S
C691 C693 1.390 1_556 S
C691 H695 0.950 . S
H692 C688 0.950 . S
C693 C691 1.390 1_554 S
C693 C694 1.387 . S
C693 H696 0.950 . S
C694 C693 1.387 . S
C694 C697 1.387 1_655 S
H695 C691 0.950 . S
H696 C693 0.950 . S
C697 C688 1.390 1_554 S
C697 H690 0.950 . S
C697 C694 1.387 1_455 S
C698 C699 1.387 . S
C698 H702 0.950 . S
C698 C707 1.379 1_554 S
C699 C698 1.387 . S
C699 C701 1.399 . S
H700 C707 0.950 . S
C701 C699 1.399 . S
C701 C703 1.379 1_554 S
C701 H705 0.950 . S
H702 C698 0.950 . S
C703 C701 1.379 1_556 S
C703 C704 1.387 . S
C703 H706 0.950 . S
C704 C703 1.387 . S
C704 C707 1.399 . S
H705 C701 0.950 . S
H706 C703 0.950 . S
C707 C698 1.379 1_556 S
C707 H700 0.950 . S
C707 C704 1.399 . S
C708 C709 1.387 . S
C708 H712 0.950 . S
C708 C717 1.390 . S
C709 C708 1.387 . S
C709 C711 1.387 . S
H710 C717 0.950 . S
C711 C709 1.387 . S
C711 C713 1.390 . S
C711 H715 0.950 . S
H712 C708 0.950 . S
C713 C711 1.390 . S
C713 C714 1.387 . S
C713 H716 0.950 . S
C714 C713 1.387 . S
C714 C717 1.387 . S
H715 C711 0.950 . S
H716 C713 0.950 . S
C717 C708 1.390 . S
C717 H710 0.950 . S
C717 C714 1.387 . S
C718 C719 1.387 . S
C718 H722 0.950 . S
C718 C727 1.390 . S
C719 C718 1.387 . S
C719 C721 1.387 . S
H720 C727 0.950 . S
C721 C719 1.387 . S
C721 C723 1.390 . S
C721 H725 0.950 . S
H722 C718 0.950 . S
C723 C721 1.390 . S
C723 C724 1.387 . S
C723 H726 0.950 . S
C724 C723 1.387 . S
C724 C727 1.387 . S
H725 C721 0.950 . S
H726 C723 0.950 . S
C727 C718 1.390 . S
C727 H720 0.950 . S
C727 C724 1.387 . S
C728 C729 1.387 . S
C728 H732 0.950 . S
C728 C737 1.390 . S
C729 C728 1.387 . S
C729 C731 1.387 . S
H730 C737 0.950 . S
C731 C729 1.387 . S
C731 C733 1.390 . S
C731 H735 0.950 . S
H732 C728 0.950 . S
C733 C731 1.390 . S
C733 C734 1.387 . S
C733 H736 0.950 . S
C734 C733 1.387 . S
C734 C737 1.387 . S
H735 C731 0.950 . S
H736 C733 0.950 . S
C737 C728 1.390 . S
C737 H730 0.950 . S
C737 C734 1.387 . S
C738 C739 1.387 . S
C738 H742 0.950 . S
C738 C747 1.390 . S
C739 C738 1.387 . S
C739 C741 1.387 . S
H740 C747 0.950 . S
C741 C739 1.387 . S
C741 C743 1.390 . S
C741 H745 0.950 . S
H742 C738 0.950 . S
C743 C741 1.390 . S
C743 C744 1.387 . S
C743 H746 0.950 . S
C744 C743 1.387 . S
C744 C747 1.387 . S
H745 C741 0.950 . S
H746 C743 0.950 . S
C747 C738 1.390 . S
C747 H740 0.950 . S
C747 C744 1.387 . S
C748 C749 1.387 . S
C748 H752 0.950 . S
C748 C757 1.390 . S
C749 C748 1.387 . S
C749 C751 1.387 . S
H750 C757 0.950 . S
C751 C749 1.387 . S
C751 C753 1.390 . S
C751 H755 0.950 . S
H752 C748 0.950 . S
C753 C751 1.390 . S
C753 C754 1.387 . S
C753 H756 0.950 . S
C754 C753 1.387 . S
C754 C757 1.387 . S
H755 C751 0.950 . S
H756 C753 0.950 . S
C757 C748 1.390 . S
C757 H750 0.950 . S
C757 C754 1.387 . S
C758 C759 1.387 . S
C758 H762 0.950 . S
C758 C767 1.390 . S
C759 C758 1.387 . S
C759 C761 1.387 . S
H760 C767 0.950 . S
C761 C759 1.387 . S
C761 C763 1.390 . S
C761 H765 0.950 . S
H762 C758 0.950 . S
C763 C761 1.390 . S
C763 C764 1.387 . S
C763 H766 0.950 . S
C764 C763 1.387 . S
C764 C767 1.387 . S
H765 C761 0.950 . S
H766 C763 0.950 . S
C767 C758 1.390 . S
C767 H760 0.950 . S
C767 C764 1.387 . S
C768 C769 1.387 . S
C768 H772 0.950 . S
C768 C777 1.390 . S
C769 C768 1.387 . S
C769 C771 1.387 . S
H770 C777 0.950 . S
C771 C769 1.387 . S
C771 C773 1.390 . S
C771 H775 0.950 . S
H772 C768 0.950 . S
C773 C771 1.390 . S
C773 C774 1.387 . S
C773 H776 0.950 . S
C774 C773 1.387 . S
C774 C777 1.387 . S
H775 C771 0.950 . S
H776 C773 0.950 . S
C777 C768 1.390 . S
C777 H770 0.950 . S
C777 C774 1.387 . S
C778 C779 1.387 . S
C778 H782 0.950 . S
C778 C787 1.390 . S
C779 C778 1.387 . S
C779 C781 1.387 . S
H780 C787 0.950 . S
C781 C779 1.387 . S
C781 C783 1.390 . S
C781 H785 0.950 . S
H782 C778 0.950 . S
C783 C781 1.390 . S
C783 C784 1.387 . S
C783 H786 0.950 . S
C784 C783 1.387 . S
C784 C787 1.387 . S
H785 C781 0.950 . S
H786 C783 0.950 . S
C787 C778 1.390 . S
C787 H780 0.950 . S
C787 C784 1.387 . S
C788 C789 1.387 . S
C788 H792 0.950 . S
C788 C797 1.390 . S
C789 C788 1.387 . S
C789 C791 1.387 . S
H790 C797 0.950 . S
C791 C789 1.387 . S
C791 C793 1.390 . S
C791 H795 0.950 . S
H792 C788 0.950 . S
C793 C791 1.390 . S
C793 C794 1.387 . S
C793 H796 0.950 . S
C794 C793 1.387 . S
C794 C797 1.387 . S
H795 C791 0.950 . S
H796 C793 0.950 . S
C797 C788 1.390 . S
C797 H790 0.950 . S
C797 C794 1.387 . S
C798 C799 1.387 . S
C798 H802 0.950 . S
C798 C807 1.390 . S
C799 C798 1.387 . S
C799 C801 1.387 . S
H800 C807 0.950 . S
C801 C799 1.387 . S
C801 C803 1.390 . S
C801 H805 0.950 . S
H802 C798 0.950 . S
C803 C801 1.390 . S
C803 C804 1.387 . S
C803 H806 0.950 . S
C804 C803 1.387 . S
C804 C807 1.387 . S
H805 C801 0.950 . S
H806 C803 0.950 . S
C807 C798 1.390 . S
C807 H800 0.950 . S
C807 C804 1.387 . S
C808 C809 1.387 . S
C808 H812 0.950 . S
C808 C817 1.390 . S
C809 C808 1.387 . S
C809 C811 1.387 . S
H810 C817 0.950 . S
C811 C809 1.387 . S
C811 C813 1.390 . S
C811 H815 0.950 . S
H812 C808 0.950 . S
C813 C811 1.390 . S
C813 C814 1.387 . S
C813 H816 0.950 . S
C814 C813 1.387 . S
C814 C817 1.387 . S
H815 C811 0.950 . S
H816 C813 0.950 . S
C817 C808 1.390 . S
C817 H810 0.950 . S
C817 C814 1.387 . S
C818 C819 1.387 . S
C818 H822 0.950 . S
C818 C827 1.390 . S
C819 C818 1.387 . S
C819 C821 1.387 . S
H820 C827 0.950 . S
C821 C819 1.387 . S
C821 C823 1.390 . S
C821 H825 0.950 . S
H822 C818 0.950 . S
C823 C821 1.390 . S
C823 C824 1.387 . S
C823 H826 0.950 . S
C824 C823 1.387 . S
C824 C827 1.387 . S
H825 C821 0.950 . S
H826 C823 0.950 . S
C827 C818 1.390 . S
C827 H820 0.950 . S
C827 C824 1.387 . S
C828 C829 1.387 . S
C828 H832 0.950 . S
C828 C837 1.390 . S
C829 C828 1.387 . S
C829 C831 1.387 . S
H830 C837 0.950 . S
C831 C829 1.387 . S
C831 C833 1.390 . S
C831 H835 0.950 . S
H832 C828 0.950 . S
C833 C831 1.390 . S
C833 C834 1.387 . S
C833 H836 0.950 . S
C834 C833 1.387 . S
C834 C837 1.387 . S
H835 C831 0.950 . S
H836 C833 0.950 . S
C837 C828 1.390 . S
C837 H830 0.950 . S
C837 C834 1.387 . S
C838 C839 1.387 . S
C838 H842 0.950 . S
C838 C847 1.390 . S
C839 C838 1.387 . S
C839 C841 1.387 . S
H840 C847 0.950 . S
C841 C839 1.387 . S
C841 C843 1.390 . S
C841 H845 0.950 . S
H842 C838 0.950 . S
C843 C841 1.390 . S
C843 C844 1.387 . S
C843 H846 0.950 . S
C844 C843 1.387 . S
C844 C847 1.387 . S
H845 C841 0.950 . S
H846 C843 0.950 . S
C847 C838 1.390 . S
C847 H840 0.950 . S
C847 C844 1.387 . S
C848 C849 1.387 . S
C848 H852 0.950 . S
C848 C857 1.390 . S
C849 C848 1.387 . S
C849 C851 1.387 . S
H850 C857 0.950 . S
C851 C849 1.387 . S
C851 C853 1.390 . S
C851 H855 0.950 . S
H852 C848 0.950 . S
C853 C851 1.390 . S
C853 C854 1.387 . S
C853 H856 0.950 . S
C854 C853 1.387 . S
C854 C857 1.387 . S
H855 C851 0.950 . S
H856 C853 0.950 . S
C857 C848 1.390 . S
C857 H850 0.950 . S
C857 C854 1.387 . S
C858 C859 1.387 . S
C858 H862 0.950 . S
C858 C867 1.390 . S
C859 C858 1.387 . S
C859 C861 1.387 . S
H860 C867 0.950 . S
C861 C859 1.387 . S
C861 C863 1.390 . S
C861 H865 0.950 . S
H862 C858 0.950 . S
C863 C861 1.390 . S
C863 C864 1.387 . S
C863 H866 0.950 . S
C864 C863 1.387 . S
C864 C867 1.387 . S
H865 C861 0.950 . S
H866 C863 0.950 . S
C867 C858 1.390 . S
C867 H860 0.950 . S
C867 C864 1.387 . S
C868 C869 1.387 . S
C868 H872 0.950 . S
C868 C877 1.390 . S
C869 C868 1.387 . S
C869 C871 1.387 . S
H870 C877 0.950 . S
C871 C869 1.387 . S
C871 C873 1.390 . S
C871 H875 0.950 . S
H872 C868 0.950 . S
C873 C871 1.390 . S
C873 C874 1.387 . S
C873 H876 0.950 . S
C874 C873 1.387 . S
C874 C877 1.387 . S
H875 C871 0.950 . S
H876 C873 0.950 . S
C877 C868 1.390 . S
C877 H870 0.950 . S
C877 C874 1.387 . S
C878 C879 1.387 . S
C878 H882 0.950 . S
C878 C887 1.390 . S
C879 C878 1.387 . S
C879 C881 1.387 . S
H880 C887 0.950 . S
C881 C879 1.387 . S
C881 C883 1.390 . S
C881 H885 0.950 . S
H882 C878 0.950 . S
C883 C881 1.390 . S
C883 C884 1.387 . S
C883 H886 0.950 . S
C884 C883 1.387 . S
C884 C887 1.387 . S
H885 C881 0.950 . S
H886 C883 0.950 . S
C887 C878 1.390 . S
C887 H880 0.950 . S
C887 C884 1.387 . S
C888 C889 1.387 . S
C888 H892 0.950 . S
C888 C897 1.390 . S
C889 C888 1.387 . S
C889 C891 1.387 . S
H890 C897 0.950 . S
C891 C889 1.387 . S
C891 C893 1.390 . S
C891 H895 0.950 . S
H892 C888 0.950 . S
C893 C891 1.390 . S
C893 C894 1.387 . S
C893 H896 0.950 . S
C894 C893 1.387 . S
C894 C897 1.387 . S
H895 C891 0.950 . S
H896 C893 0.950 . S
C897 C888 1.390 . S
C897 H890 0.950 . S
C897 C894 1.387 . S
C898 C899 1.387 . S
C898 H902 0.950 . S
C898 C907 1.390 . S
C899 C898 1.387 . S
C899 C901 1.387 . S
H900 C907 0.950 . S
C901 C899 1.387 . S
C901 C903 1.390 . S
C901 H905 0.950 . S
H902 C898 0.950 . S
C903 C901 1.390 . S
C903 C904 1.387 . S
C903 H906 0.950 . S
C904 C903 1.387 . S
C904 C907 1.387 . S
H905 C901 0.950 . S
H906 C903 0.950 . S
C907 C898 1.390 . S
C907 H900 0.950 . S
C907 C904 1.387 . S
C908 C909 1.387 . S
C908 H912 0.950 . S
C908 C917 1.390 . S
C909 C908 1.387 . S
C909 C911 1.387 . S
H910 C917 0.950 . S
C911 C909 1.387 . S
C911 C913 1.390 . S
C911 H915 0.950 . S
H912 C908 0.950 . S
C913 C911 1.390 . S
C913 C914 1.387 . S
C913 H916 0.950 . S
C914 C913 1.387 . S
C914 C917 1.387 . S
H915 C911 0.950 . S
H916 C913 0.950 . S
C917 C908 1.390 . S
C917 H910 0.950 . S
C917 C914 1.387 . S
C918 C919 1.387 . S
C918 H922 0.950 . S
C918 C927 1.390 . S
C919 C918 1.387 . S
C919 C921 1.387 . S
H920 C927 0.950 . S
C921 C919 1.387 . S
C921 C923 1.390 . S
C921 H925 0.950 . S
H922 C918 0.950 . S
C923 C921 1.390 . S
C923 C924 1.387 . S
C923 H926 0.950 . S
C924 C923 1.387 . S
C924 C927 1.387 . S
H925 C921 0.950 . S
H926 C923 0.950 . S
C927 C918 1.390 . S
C927 H920 0.950 . S
C927 C924 1.387 . S
C928 C929 1.387 . S
C928 H932 0.950 . S
C928 C937 1.390 . S
C929 C928 1.387 . S
C929 C931 1.387 . S
H930 C937 0.950 . S
C931 C929 1.387 . S
C931 C933 1.390 . S
C931 H935 0.950 . S
H932 C928 0.950 . S
C933 C931 1.390 . S
C933 C934 1.387 . S
C933 H936 0.950 . S
C934 C933 1.387 . S
C934 C937 1.387 . S
H935 C931 0.950 . S
H936 C933 0.950 . S
C937 C928 1.390 . S
C937 H930 0.950 . S
C937 C934 1.387 . S
C938 C939 1.387 . S
C938 H942 0.950 . S
C938 C947 1.390 . S
C939 C938 1.387 . S
C939 C941 1.387 . S
H940 C947 0.950 . S
C941 C939 1.387 . S
C941 C943 1.390 . S
C941 H945 0.950 . S
H942 C938 0.950 . S
C943 C941 1.390 . S
C943 C944 1.387 . S
C943 H946 0.950 . S
C944 C943 1.387 . S
C944 C947 1.387 . S
H945 C941 0.950 . S
H946 C943 0.950 . S
C947 C938 1.390 . S
C947 H940 0.950 . S
C947 C944 1.387 . S
C948 C949 1.387 . S
C948 H952 0.950 . S
C948 C957 1.390 1_455 S
C949 C948 1.387 . S
C949 C951 1.387 . S
H950 C957 0.950 . S
C951 C949 1.387 . S
C951 C953 1.390 1_455 S
C951 H955 0.950 . S
H952 C948 0.950 . S
C953 C951 1.390 1_655 S
C953 C954 1.387 . S
C953 H956 0.950 . S
C954 C953 1.387 . S
C954 C957 1.387 . S
H955 C951 0.950 . S
H956 C953 0.950 . S
C957 C948 1.390 1_655 S
C957 H950 0.950 . S
C957 C954 1.387 . S
C958 C959 1.387 . S
C958 H962 0.950 . S
C958 C967 1.390 . S
C959 C958 1.387 . S
C959 C961 1.387 . S
H960 C967 0.950 . S
C961 C959 1.387 . S
C961 C963 1.390 . S
C961 H965 0.950 . S
H962 C958 0.950 . S
C963 C961 1.390 . S
C963 C964 1.387 . S
C963 H966 0.950 . S
C964 C963 1.387 . S
C964 C967 1.387 . S
H965 C961 0.950 . S
H966 C963 0.950 . S
C967 C958 1.390 . S
C967 H960 0.950 . S
C967 C964 1.387 . S
C968 C969 1.387 . S
C968 H972 0.950 . S
C968 C977 1.390 1_545 S
C969 C968 1.387 . S
C969 C971 1.387 . S
H970 C977 0.950 . S
C971 C969 1.387 . S
C971 C973 1.390 1_545 S
C971 H975 0.950 . S
H972 C968 0.950 . S
C973 C971 1.390 1_565 S
C973 C974 1.387 . S
C973 H976 0.950 . S
C974 C973 1.387 . S
C974 C977 1.387 . S
H975 C971 0.950 . S
H976 C973 0.950 . S
C977 C968 1.390 1_565 S
C977 H970 0.950 . S
C977 C974 1.387 . S
C978 C979 1.387 . S
C978 H982 0.950 . S
C978 C987 1.390 1_545 S
C979 C978 1.387 . S
C979 C981 1.387 . S
H980 C987 0.950 . S
C981 C979 1.387 . S
C981 C983 1.390 1_545 S
C981 H985 0.950 . S
H982 C978 0.950 . S
C983 C981 1.390 1_565 S
C983 C984 1.387 . S
C983 H986 0.950 . S
C984 C983 1.387 . S
C984 C987 1.387 . S
H985 C981 0.950 . S
H986 C983 0.950 . S
C987 C978 1.390 1_565 S
C987 H980 0.950 . S
C987 C984 1.387 . S
C988 C989 1.387 . S
C988 H992 0.950 . S
C988 C997 1.390 1_655 S
C989 C988 1.387 . S
C989 C991 1.387 . S
H990 C997 0.950 . S
C991 C989 1.387 . S
C991 C993 1.390 1_655 S
C991 H995 0.950 . S
H992 C988 0.950 . S
C993 C991 1.390 1_455 S
C993 C994 1.387 . S
C993 H996 0.950 . S
C994 C993 1.387 . S
C994 C997 1.387 . S
H995 C991 0.950 . S
H996 C993 0.950 . S
C997 C988 1.390 1_455 S
C997 H990 0.950 . S
C997 C994 1.387 . S
C998 C999 1.387 . S
C998 H1002 0.950 . S
C998 C1007 1.390 . S
C999 C998 1.387 . S
C999 C1001 1.387 . S
H1000 C1007 0.950 . S
C1001 C999 1.387 . S
C1001 C1003 1.390 . S
C1001 H1005 0.950 . S
H1002 C998 0.950 . S
C1003 C1001 1.390 . S
C1003 C1004 1.387 . S
C1003 H1006 0.950 . S
C1004 C1003 1.387 . S
C1004 C1007 1.387 . S
H1005 C1001 0.950 . S
H1006 C1003 0.950 . S
C1007 C998 1.390 . S
C1007 H1000 0.950 . S
C1007 C1004 1.387 . S
C1008 C1009 1.387 . S
C1008 H1012 0.950 . S
C1008 C1017 1.390 . S
C1009 C1008 1.387 . S
C1009 C1011 1.387 . S
H1010 C1017 0.950 . S
C1011 C1009 1.387 . S
C1011 C1013 1.390 . S
C1011 H1015 0.950 . S
H1012 C1008 0.950 . S
C1013 C1011 1.390 . S
C1013 C1014 1.387 . S
C1013 H1016 0.950 . S
C1014 C1013 1.387 . S
C1014 C1017 1.387 . S
H1015 C1011 0.950 . S
H1016 C1013 0.950 . S
C1017 C1008 1.390 . S
C1017 H1010 0.950 . S
C1017 C1014 1.387 . S
C1018 C1019 1.387 . S
C1018 H1022 0.950 . S
C1018 C1027 1.390 . S
C1019 C1018 1.387 . S
C1019 C1021 1.387 . S
H1020 C1027 0.950 . S
C1021 C1019 1.387 . S
C1021 C1023 1.390 . S
C1021 H1025 0.950 . S
H1022 C1018 0.950 . S
C1023 C1021 1.390 . S
C1023 C1024 1.387 . S
C1023 H1026 0.950 . S
C1024 C1023 1.387 . S
C1024 C1027 1.387 . S
H1025 C1021 0.950 . S
H1026 C1023 0.950 . S
C1027 C1018 1.390 . S
C1027 H1020 0.950 . S
C1027 C1024 1.387 . S
C1028 C1029 1.387 . S
C1028 H1032 0.950 . S
C1028 C1037 1.390 . S
C1029 C1028 1.387 . S
C1029 C1031 1.387 . S
H1030 C1037 0.950 . S
C1031 C1029 1.387 . S
C1031 C1033 1.390 . S
C1031 H1035 0.950 . S
H1032 C1028 0.950 . S
C1033 C1031 1.390 . S
C1033 C1034 1.387 . S
C1033 H1036 0.950 . S
C1034 C1033 1.387 . S
C1034 C1037 1.387 . S
H1035 C1031 0.950 . S
H1036 C1033 0.950 . S
C1037 C1028 1.390 . S
C1037 H1030 0.950 . S
C1037 C1034 1.387 . S
C1038 C1039 1.387 . S
C1038 H1042 0.950 . S
C1038 C1047 1.390 . S
C1039 C1038 1.387 . S
C1039 C1041 1.387 . S
H1040 C1047 0.950 . S
C1041 C1039 1.387 . S
C1041 C1043 1.390 . S
C1041 H1045 0.950 . S
H1042 C1038 0.950 . S
C1043 C1041 1.390 . S
C1043 C1044 1.387 . S
C1043 H1046 0.950 . S
C1044 C1043 1.387 . S
C1044 C1047 1.387 . S
H1045 C1041 0.950 . S
H1046 C1043 0.950 . S
C1047 C1038 1.390 . S
C1047 H1040 0.950 . S
C1047 C1044 1.387 . S
C1048 C1049 1.387 . S
C1048 H1052 0.950 . S
C1048 C1057 1.390 . S
C1049 C1048 1.387 . S
C1049 C1051 1.387 . S
H1050 C1057 0.950 . S
C1051 C1049 1.387 . S
C1051 C1053 1.390 . S
C1051 H1055 0.950 . S
H1052 C1048 0.950 . S
C1053 C1051 1.390 . S
C1053 C1054 1.387 . S
C1053 H1056 0.950 . S
C1054 C1053 1.387 . S
C1054 C1057 1.387 . S
H1055 C1051 0.950 . S
H1056 C1053 0.950 . S
C1057 C1048 1.390 . S
C1057 H1050 0.950 . S
C1057 C1054 1.387 . S
C1058 C1059 1.387 . S
C1058 H1062 0.950 . S
C1058 C1067 1.390 . S
C1059 C1058 1.387 . S
C1059 C1061 1.387 . S
H1060 C1067 0.950 . S
C1061 C1059 1.387 . S
C1061 C1063 1.390 . S
C1061 H1065 0.950 . S
H1062 C1058 0.950 . S
C1063 C1061 1.390 . S
C1063 C1064 1.387 . S
C1063 H1066 0.950 . S
C1064 C1063 1.387 . S
C1064 C1067 1.387 . S
H1065 C1061 0.950 . S
H1066 C1063 0.950 . S
C1067 C1058 1.390 . S
C1067 H1060 0.950 . S
C1067 C1064 1.387 . S
C1068 C1069 1.387 . S
C1068 H1072 0.950 . S
C1068 C1077 1.390 . S
C1069 C1068 1.387 . S
C1069 C1071 1.387 . S
H1070 C1077 0.950 . S
C1071 C1069 1.387 . S
C1071 C1073 1.390 . S
C1071 H1075 0.950 . S
H1072 C1068 0.950 . S
C1073 C1071 1.390 . S
C1073 C1074 1.387 . S
C1073 H1076 0.950 . S
C1074 C1073 1.387 . S
C1074 C1077 1.387 . S
H1075 C1071 0.950 . S
H1076 C1073 0.950 . S
C1077 C1068 1.390 . S
C1077 H1070 0.950 . S
C1077 C1074 1.387 . S
C1078 C1079 1.387 . S
C1078 H1082 0.950 . S
C1078 C1087 1.390 . S
C1079 C1078 1.387 . S
C1079 C1081 1.387 . S
H1080 C1087 0.950 . S
C1081 C1079 1.387 . S
C1081 C1083 1.390 . S
C1081 H1085 0.950 . S
H1082 C1078 0.950 . S
C1083 C1081 1.390 . S
C1083 C1084 1.387 . S
C1083 H1086 0.950 . S
C1084 C1083 1.387 . S
C1084 C1087 1.387 . S
H1085 C1081 0.950 . S
H1086 C1083 0.950 . S
C1087 C1078 1.390 . S
C1087 H1080 0.950 . S
C1087 C1084 1.387 . S
C1088 C1089 1.387 . S
C1088 H1092 0.950 . S
C1088 C1097 1.390 . S
C1089 C1088 1.387 . S
C1089 C1091 1.387 . S
H1090 C1097 0.950 . S
C1091 C1089 1.387 . S
C1091 C1093 1.390 . S
C1091 H1095 0.950 . S
H1092 C1088 0.950 . S
C1093 C1091 1.390 . S
C1093 C1094 1.387 . S
C1093 H1096 0.950 . S
C1094 C1093 1.387 . S
C1094 C1097 1.387 . S
H1095 C1091 0.950 . S
H1096 C1093 0.950 . S
C1097 C1088 1.390 . S
C1097 H1090 0.950 . S
C1097 C1094 1.387 . S
C1098 C1099 1.387 . S
C1098 H1102 0.950 . S
C1098 C1107 1.390 . S
C1099 C1098 1.387 . S
C1099 C1101 1.387 . S
H1100 C1107 0.950 . S
C1101 C1099 1.387 . S
C1101 C1103 1.390 . S
C1101 H1105 0.950 . S
H1102 C1098 0.950 . S
C1103 C1101 1.390 . S
C1103 C1104 1.387 . S
C1103 H1106 0.950 . S
C1104 C1103 1.387 . S
C1104 C1107 1.387 . S
H1105 C1101 0.950 . S
H1106 C1103 0.950 . S
C1107 C1098 1.390 . S
C1107 H1100 0.950 . S
C1107 C1104 1.387 . S
C1108 C1109 1.387 . S
C1108 H1112 0.950 1_554 S
C1108 C1117 1.390 . S
C1109 C1108 1.387 . S
C1109 C1111 1.387 . S
H1110 C1117 0.950 1_556 S
C1111 C1109 1.387 . S
C1111 C1113 1.390 . S
C1111 H1115 0.950 . S
H1112 C1108 0.950 1_556 S
C1113 C1111 1.390 . S
C1113 C1114 1.387 . S
C1113 H1116 0.950 . S
C1114 C1113 1.387 . S
C1114 C1117 1.387 . S
H1115 C1111 0.950 . S
H1116 C1113 0.950 . S
C1117 C1108 1.390 . S
C1117 H1110 0.950 1_554 S
C1117 C1114 1.387 . S
C1118 C1119 1.387 . S
C1118 H1122 0.950 . S
C1118 C1127 1.390 . S
C1119 C1118 1.387 . S
C1119 C1121 1.387 . S
H1120 C1127 0.950 . S
C1121 C1119 1.387 . S
C1121 C1123 1.390 . S
C1121 H1125 0.950 1_554 S
H1122 C1118 0.950 . S
C1123 C1121 1.390 . S
C1123 C1124 1.387 . S
C1123 H1126 0.950 1_554 S
C1124 C1123 1.387 . S
C1124 C1127 1.387 . S
H1125 C1121 0.950 1_556 S
H1126 C1123 0.950 1_556 S
C1127 C1118 1.390 . S
C1127 H1120 0.950 . S
C1127 C1124 1.387 . S
C1128 C1129 1.387 . S
C1128 H1132 0.950 1_556 S
C1128 C1137 1.390 . S
C1129 C1128 1.387 . S
C1129 C1131 1.387 . S
H1130 C1137 0.950 1_554 S
C1131 C1129 1.387 . S
C1131 C1133 1.390 . S
C1131 H1135 0.950 . S
H1132 C1128 0.950 1_554 S
C1133 C1131 1.390 . S
C1133 C1134 1.387 . S
C1133 H1136 0.950 . S
C1134 C1133 1.387 . S
C1134 C1137 1.387 . S
H1135 C1131 0.950 . S
H1136 C1133 0.950 . S
C1137 C1128 1.390 . S
C1137 H1130 0.950 1_556 S
C1137 C1134 1.387 . S
C1138 C1139 1.387 . S
C1138 H1142 0.950 1_556 S
C1138 C1147 1.390 . S
C1139 C1138 1.387 . S
C1139 C1141 1.387 . S
H1140 C1147 0.950 1_554 S
C1141 C1139 1.387 . S
C1141 C1143 1.390 . S
C1141 H1145 0.950 . S
H1142 C1138 0.950 1_554 S
C1143 C1141 1.390 . S
C1143 C1144 1.387 . S
C1143 H1146 0.950 . S
C1144 C1143 1.387 . S
C1144 C1147 1.387 . S
H1145 C1141 0.950 . S
H1146 C1143 0.950 . S
C1147 C1138 1.390 . S
C1147 H1140 0.950 1_556 S
C1147 C1144 1.387 . S
C1148 C1149 1.387 . S
C1148 H1152 0.950 . S
C1148 C1157 1.390 . S
C1149 C1148 1.387 . S
C1149 C1151 1.387 . S
H1150 C1157 0.950 . S
C1151 C1149 1.387 . S
C1151 C1153 1.390 . S
C1151 H1155 0.950 . S
H1152 C1148 0.950 . S
C1153 C1151 1.390 . S
C1153 C1154 1.387 . S
C1153 H1156 0.950 . S
C1154 C1153 1.387 . S
C1154 C1157 1.387 . S
H1155 C1151 0.950 . S
H1156 C1153 0.950 . S
C1157 C1148 1.390 . S
C1157 H1150 0.950 . S
C1157 C1154 1.387 . S
C1158 C1159 1.387 . S
C1158 H1162 0.950 . S
C1158 C1167 1.390 . S
C1159 C1158 1.387 . S
C1159 C1161 1.387 . S
H1160 C1167 0.950 . S
C1161 C1159 1.387 . S
C1161 C1163 1.390 . S
C1161 H1165 0.950 . S
H1162 C1158 0.950 . S
C1163 C1161 1.390 . S
C1163 C1164 1.387 . S
C1163 H1166 0.950 . S
C1164 C1163 1.387 . S
C1164 C1167 1.387 . S
H1165 C1161 0.950 . S
H1166 C1163 0.950 . S
C1167 C1158 1.390 . S
C1167 H1160 0.950 . S
C1167 C1164 1.387 . S
C1168 C1169 1.387 . S
C1168 H1172 0.950 . S
C1168 C1177 1.390 . S
C1169 C1168 1.387 . S
C1169 C1171 1.387 . S
H1170 C1177 0.950 . S
C1171 C1169 1.387 . S
C1171 C1173 1.390 . S
C1171 H1175 0.950 . S
H1172 C1168 0.950 . S
C1173 C1171 1.390 . S
C1173 C1174 1.387 . S
C1173 H1176 0.950 . S
C1174 C1173 1.387 . S
C1174 C1177 1.387 . S
H1175 C1171 0.950 . S
H1176 C1173 0.950 . S
C1177 C1168 1.390 . S
C1177 H1170 0.950 . S
C1177 C1174 1.387 . S
C1178 C1179 1.387 . S
C1178 H1182 0.950 . S
C1178 C1187 1.390 . S
C1179 C1178 1.387 . S
C1179 C1181 1.387 . S
H1180 C1187 0.950 . S
C1181 C1179 1.387 . S
C1181 C1183 1.390 . S
C1181 H1185 0.950 . S
H1182 C1178 0.950 . S
C1183 C1181 1.390 . S
C1183 C1184 1.387 . S
C1183 H1186 0.950 . S
C1184 C1183 1.387 . S
C1184 C1187 1.387 . S
H1185 C1181 0.950 . S
H1186 C1183 0.950 . S
C1187 C1178 1.390 . S
C1187 H1180 0.950 . S
C1187 C1184 1.387 . S
C469 C65 1.513 . S
C474 C0 1.513 . S
C479 C39 1.512 . S
C484 C13 1.512 . S
C489 C26 1.513 . S
C494 C52 1.512 . S
C499 C78 1.512 . S
C504 C143 1.512 . S
C509 C91 1.512 . S
C514 C117 1.513 . S
C519 C130 1.513 . S
C524 C104 1.514 . S
C529 C156 1.512 . S
C534 C221 1.512 . S
C539 C169 1.513 . S
C544 C195 1.513 . S
C549 C182 1.514 . S
C554 C208 1.513 . S
C559 C299 1.513 . S
C564 C234 1.513 . S
C569 C247 1.513 . S
C574 C273 1.513 . S
C579 C286 1.513 . S
C584 C260 1.514 . S
C589 C377 1.512 . S
C594 C312 1.512 . S
C599 C351 1.511 . S
C604 C325 1.512 . S
C609 C364 1.513 . S
C614 C338 1.514 . S
C619 C390 1.512 . S
C624 C455 1.512 . S
C629 C403 1.513 . S
C634 C429 1.513 . S
C639 C416 1.513 . S
C644 C442 1.513 . S
C649 C73 1.302 . S
C654 C8 1.302 . S
C659 C21 1.301 . S
C664 C47 1.303 . S
C669 C60 1.303 . S
C674 C34 1.302 . S
C679 C86 1.302 . S
C684 C151 1.302 . S
C689 C99 1.302 . S
C694 C125 1.303 . S
C699 C138 1.305 . S
C704 C112 1.303 . S
C709 C164 1.304 . S
C714 C229 1.304 . S
C719 C203 1.303 . S
C724 C177 1.305 . S
C729 C216 1.302 . S
C734 C190 1.303 . S
C739 C242 1.304 . S
C744 C307 1.304 . S
C749 C255 1.304 . S
C754 C281 1.303 . S
C759 C294 1.305 . S
C764 C268 1.303 . S
C769 C385 1.304 . S
C774 C320 1.304 . S
C779 C333 1.303 . S
C784 C359 1.301 . S
C789 C346 1.304 . S
C794 C372 1.301 . S
C799 C463 1.304 . S
C804 C398 1.304 . S
C809 C437 1.303 . S
C814 C411 1.301 . S
C819 C450 1.302 . S
C824 C424 1.303 . S
C829 C213 1.545 . S
C834 C5 1.543 . S
C839 C226 1.544 . S
C844 C18 1.545 . S
C849 C200 1.545 . S
C854 C31 1.545 . S
C859 C44 1.545 . S
C864 C343 1.545 . S
C869 C57 1.545 . S
C874 C317 1.545 . S
C879 C70 1.545 . S
C884 C330 1.544 . S
C889 C83 1.544 . S
C894 C447 1.545 . S
C899 C96 1.545 . S
C904 C460 1.543 . S
C909 C109 1.544 . S
C914 C434 1.544 . S
C919 C122 1.544 . S
C924 C265 1.544 . S
C929 C239 1.543 . S
C934 C135 1.545 . S
C939 C252 1.543 . S
C944 C148 1.545 . S
C949 C369 1.544 . S
C954 C161 1.545 . S
C959 C174 1.545 . S
C964 C382 1.543 . S
C969 C187 1.545 . S
C974 C356 1.545 . S
C979 C278 1.544 . S
C984 C421 1.544 . S
C989 C291 1.545 . S
C994 C395 1.543 . S
C999 C408 1.544 . S
C1004 C304 1.546 . S
C1009 C10 1.365 . S
C1014 C140 1.365 . S
C1019 C153 1.365 . S
C1024 C23 1.365 . S
C1029 C127 1.365 . S
C1034 C36 1.364 . S
C1039 C49 1.364 . S
C1044 C114 1.366 . S
C1049 C62 1.365 . S
C1054 C88 1.365 . S
C1059 C75 1.365 . S
C1064 C101 1.365 . S
C1069 C166 1.365 . S
C1074 C296 1.365 . S
C1079 C309 1.365 . S
C1084 C179 1.365 . S
C1089 C283 1.365 . S
C1094 C192 1.364 . S
C1099 C205 1.365 . S
C1104 C270 1.364 . S
C1109 C218 1.365 . S
C1114 C244 1.365 . S
C1119 C257 1.365 . S
C1124 C231 1.365 . S
C1129 C322 1.365 . S
C1134 C452 1.365 . S
C1139 C465 1.365 . S
C1144 C335 1.365 . S
C1149 C348 1.364 . S
C1154 C439 1.366 . S
C1159 C361 1.365 . S
C1164 C426 1.364 . S
C1169 C400 1.365 . S
C1174 C374 1.365 . S
C1179 C387 1.365 . S
C1184 C413 1.365 . S
