# Generated by pormake.
# Topology whp, (6)-cn, num edge types: 1
# Building blocks:
#     Node 0, Type 0, BuildingBlock: OJICUG_clean_sbu_0, # of connection points: 6
#     Node 1, Type 0, BuildingBlock: OJICUG_clean_sbu_0, # of connection points: 6
#     Node 2, Type 0, BuildingBlock: OJICUG_clean_sbu_0, # of connection points: 6
#     Node 3, Type 0, BuildingBlock: OJICUG_clean_sbu_0, # of connection points: 6
#     Node 4, Type 0, BuildingBlock: OJICUG_clean_sbu_0, # of connection points: 6
#     Node 5, Type 0, BuildingBlock: OJICUG_clean_sbu_0, # of connection points: 6
#     Node 6, Type 0, BuildingBlock: OJICUG_clean_sbu_0, # of connection points: 6
#     Node 7, Type 0, BuildingBlock: OJICUG_clean_sbu_0, # of connection points: 6
#     Node 8, Type 0, BuildingBlock: OJICUG_clean_sbu_0, # of connection points: 6
#     Node 9, Type 0, BuildingBlock: OJICUG_clean_sbu_0, # of connection points: 6
#     Node 10, Type 0, BuildingBlock: OJICUG_clean_sbu_0, # of connection points: 6
#     Node 11, Type 0, BuildingBlock: OJICUG_clean_sbu_0, # of connection points: 6
#     Node 12, Type 0, BuildingBlock: OJICUG_clean_sbu_0, # of connection points: 6
#     Node 13, Type 0, BuildingBlock: OJICUG_clean_sbu_0, # of connection points: 6
#     Node 14, Type 0, BuildingBlock: OJICUG_clean_sbu_0, # of connection points: 6
#     Node 15, Type 0, BuildingBlock: OJICUG_clean_sbu_0, # of connection points: 6
#     Edge 16, Type (0, 0), BuildingBlock: EZIPEK_clean_linker_0, # of connection points: 2
#     Edge 17, Type (0, 0), BuildingBlock: EZIPEK_clean_linker_0, # of connection points: 2
#     Edge 18, Type (0, 0), BuildingBlock: EZIPEK_clean_linker_0, # of connection points: 2
#     Edge 19, Type (0, 0), BuildingBlock: EZIPEK_clean_linker_0, # of connection points: 2
#     Edge 20, Type (0, 0), BuildingBlock: EZIPEK_clean_linker_0, # of connection points: 2
#     Edge 21, Type (0, 0), BuildingBlock: EZIPEK_clean_linker_0, # of connection points: 2
#     Edge 22, Type (0, 0), BuildingBlock: EZIPEK_clean_linker_0, # of connection points: 2
#     Edge 23, Type (0, 0), BuildingBlock: EZIPEK_clean_linker_0, # of connection points: 2
#     Edge 24, Type (0, 0), BuildingBlock: EZIPEK_clean_linker_0, # of connection points: 2
#     Edge 25, Type (0, 0), BuildingBlock: EZIPEK_clean_linker_0, # of connection points: 2
#     Edge 26, Type (0, 0), BuildingBlock: EZIPEK_clean_linker_0, # of connection points: 2
#     Edge 27, Type (0, 0), BuildingBlock: EZIPEK_clean_linker_0, # of connection points: 2
#     Edge 28, Type (0, 0), BuildingBlock: EZIPEK_clean_linker_0, # of connection points: 2
#     Edge 29, Type (0, 0), BuildingBlock: EZIPEK_clean_linker_0, # of connection points: 2
#     Edge 30, Type (0, 0), BuildingBlock: EZIPEK_clean_linker_0, # of connection points: 2
#     Edge 31, Type (0, 0), BuildingBlock: EZIPEK_clean_linker_0, # of connection points: 2
#     Edge 32, Type (0, 0), BuildingBlock: EZIPEK_clean_linker_0, # of connection points: 2
#     Edge 33, Type (0, 0), BuildingBlock: EZIPEK_clean_linker_0, # of connection points: 2
#     Edge 34, Type (0, 0), BuildingBlock: EZIPEK_clean_linker_0, # of connection points: 2
#     Edge 35, Type (0, 0), BuildingBlock: EZIPEK_clean_linker_0, # of connection points: 2
#     Edge 36, Type (0, 0), BuildingBlock: EZIPEK_clean_linker_0, # of connection points: 2
#     Edge 37, Type (0, 0), BuildingBlock: EZIPEK_clean_linker_0, # of connection points: 2
#     Edge 38, Type (0, 0), BuildingBlock: EZIPEK_clean_linker_0, # of connection points: 2
#     Edge 39, Type (0, 0), BuildingBlock: EZIPEK_clean_linker_0, # of connection points: 2
#     Edge 40, Type (0, 0), BuildingBlock: EZIPEK_clean_linker_0, # of connection points: 2
#     Edge 41, Type (0, 0), BuildingBlock: EZIPEK_clean_linker_0, # of connection points: 2
#     Edge 42, Type (0, 0), BuildingBlock: EZIPEK_clean_linker_0, # of connection points: 2
#     Edge 43, Type (0, 0), BuildingBlock: EZIPEK_clean_linker_0, # of connection points: 2
#     Edge 44, Type (0, 0), BuildingBlock: EZIPEK_clean_linker_0, # of connection points: 2
#     Edge 45, Type (0, 0), BuildingBlock: EZIPEK_clean_linker_0, # of connection points: 2
#     Edge 46, Type (0, 0), BuildingBlock: EZIPEK_clean_linker_0, # of connection points: 2
#     Edge 47, Type (0, 0), BuildingBlock: EZIPEK_clean_linker_0, # of connection points: 2
#     Edge 48, Type (0, 0), BuildingBlock: EZIPEK_clean_linker_0, # of connection points: 2
#     Edge 49, Type (0, 0), BuildingBlock: EZIPEK_clean_linker_0, # of connection points: 2
#     Edge 50, Type (0, 0), BuildingBlock: EZIPEK_clean_linker_0, # of connection points: 2
#     Edge 51, Type (0, 0), BuildingBlock: EZIPEK_clean_linker_0, # of connection points: 2
#     Edge 52, Type (0, 0), BuildingBlock: EZIPEK_clean_linker_0, # of connection points: 2
#     Edge 53, Type (0, 0), BuildingBlock: EZIPEK_clean_linker_0, # of connection points: 2
#     Edge 54, Type (0, 0), BuildingBlock: EZIPEK_clean_linker_0, # of connection points: 2
#     Edge 55, Type (0, 0), BuildingBlock: EZIPEK_clean_linker_0, # of connection points: 2
#     Edge 56, Type (0, 0), BuildingBlock: EZIPEK_clean_linker_0, # of connection points: 2
#     Edge 57, Type (0, 0), BuildingBlock: EZIPEK_clean_linker_0, # of connection points: 2
#     Edge 58, Type (0, 0), BuildingBlock: EZIPEK_clean_linker_0, # of connection points: 2
#     Edge 59, Type (0, 0), BuildingBlock: EZIPEK_clean_linker_0, # of connection points: 2
#     Edge 60, Type (0, 0), BuildingBlock: EZIPEK_clean_linker_0, # of connection points: 2
#     Edge 61, Type (0, 0), BuildingBlock: EZIPEK_clean_linker_0, # of connection points: 2
#     Edge 62, Type (0, 0), BuildingBlock: EZIPEK_clean_linker_0, # of connection points: 2
#     Edge 63, Type (0, 0), BuildingBlock: EZIPEK_clean_linker_0, # of connection points: 2
# Relax obj value: 0.276
# Max RMSD: 0.243
# Mean RMSD: 0.243
data_MOF--net-whp--node1-OJICUG_clean_sbu_0--edge1-EZIPEK_clean_linker_0
_symmetry_space_group_name_H-M    P1
_symmetry_Int_Tables_number       1
_symmetry_cell_setting            triclinic
loop_
_symmetry_equiv_pos_as_xyz
'x, y, z'
_cell_length_a     36.325662
_cell_length_b     36.360488
_cell_length_c     22.987888
_cell_angle_alpha  90.011373
_cell_angle_beta   90.006474
_cell_angle_gamma 89.941728
loop_
_atom_site_label
_atom_site_type_symbol
_atom_site_fract_x
_atom_site_fract_y
_atom_site_fract_z
_atom_type_partial_charge
Sc0 Sc 0.3034 0.56901 0.38046 0.0
Sc1 Sc 0.35634 0.50939 0.29426 0.0
Sc2 Sc 0.26297 0.48817 0.32444 0.0
O3 O 0.30755 0.52211 0.33314 0.0
C4 C 0.25709 0.51192 0.45762 0.0
C5 C 0.38293 0.53886 0.41691 0.0
C6 C 0.3284 0.43028 0.33459 0.0
C7 C 0.35481 0.59661 0.27767 0.0
C8 C 0.2261 0.56774 0.31564 0.0
C9 C 0.29713 0.49144 0.19604 0.0
O10 O 0.27598 0.54101 0.45058 0.0
O11 O 0.38767 0.51798 0.37316 0.0
O12 O 0.29465 0.43862 0.34091 0.0
O13 O 0.33081 0.60278 0.31663 0.0
O14 O 0.22574 0.53325 0.3067 0.0
O15 O 0.32951 0.5001 0.2121 0.0
O16 O 0.25219 0.5844 0.34108 0.0
O17 O 0.3671 0.56475 0.26628 0.0
O18 O 0.271 0.48473 0.2314 0.0
O19 O 0.35442 0.55862 0.42408 0.0
O20 O 0.24975 0.48971 0.41638 0.0
O21 O 0.35262 0.45277 0.31732 0.0
Sc22 Sc 0.93046 0.30252 0.89071 0.0
Sc23 Sc 0.98723 0.35374 0.79697 0.0
Sc24 Sc 0.01168 0.26284 0.83473 0.0
O25 O 0.97656 0.30647 0.84121 0.0
C26 C 0.98885 0.25806 0.96765 0.0
C27 C 0.96088 0.38357 0.91886 0.0
C28 C 0.06824 0.32858 0.83527 0.0
C29 C 0.89971 0.3523 0.78852 0.0
C30 C 0.93191 0.22482 0.82816 0.0
C31 C 0.00474 0.29191 0.70426 0.0
O32 O 0.959 0.27568 0.96035 0.0
O33 O 0.98071 0.38723 0.87362 0.0
O34 O 0.06045 0.29558 0.84828 0.0
O35 O 0.89506 0.32844 0.82803 0.0
O36 O 0.96652 0.22541 0.81926 0.0
O37 O 0.99273 0.32373 0.71707 0.0
O38 O 0.91487 0.25037 0.85456 0.0
O39 O 0.93106 0.36413 0.77343 0.0
O40 O 0.01538 0.26856 0.74187 0.0
O41 O 0.94178 0.35504 0.93007 0.0
O42 O 0.01166 0.25208 0.92691 0.0
O43 O 0.0451 0.35114 0.81449 0.0
Sc44 Sc 0.23652 0.00994 0.31726 0.0
Sc45 Sc 0.14522 0.98349 0.28565 0.0
Sc46 Sc 0.20104 0.92754 0.37244 0.0
O47 O 0.19424 0.97382 0.32518 0.0
C48 C 0.27669 0.9313 0.30763 0.0
C49 C 0.20364 0.00925 0.18849 0.0
C50 C 0.1542 0.89816 0.2634 0.0
C51 C 0.16674 0.06299 0.32994 0.0
C52 C 0.24457 0.98646 0.44983 0.0
C53 C 0.11997 0.94971 0.40766 0.0
O54 O 0.27654 0.96629 0.30403 0.0
O55 O 0.17148 0.00164 0.20641 0.0
O56 O 0.17191 0.89368 0.31056 0.0
O57 O 0.20134 0.05765 0.32797 0.0
O58 O 0.23208 0.95452 0.43942 0.0
O59 O 0.11239 0.96463 0.35902 0.0
O60 O 0.24556 0.01149 0.41104 0.0
O61 O 0.14303 0.03822 0.31952 0.0
O62 O 0.15196 0.93827 0.42067 0.0
O63 O 0.23085 0.01129 0.22338 0.0
O64 O 0.25038 0.91297 0.32904 0.0
O65 O 0.14317 0.92972 0.24756 0.0
Sc66 Sc 0.48507 0.24184 0.81871 0.0
Sc67 Sc 0.51561 0.15176 0.78827 0.0
Sc68 Sc 0.56152 0.20488 0.88651 0.0
O69 O 0.52066 0.20017 0.8295 0.0
C70 C 0.56724 0.27716 0.81751 0.0
C71 C 0.49344 0.2109 0.69105 0.0
C72 C 0.59867 0.15349 0.78776 0.0
C73 C 0.43346 0.17083 0.8234 0.0
C74 C 0.50126 0.25341 0.95009 0.0
C75 C 0.54047 0.12891 0.91801 0.0
O76 O 0.53204 0.27991 0.81321 0.0
O77 O 0.50051 0.17807 0.70695 0.0
O78 O 0.59813 0.16653 0.83923 0.0
O79 O 0.43776 0.20566 0.8223 0.0
O80 O 0.53415 0.24252 0.94423 0.0
O81 O 0.53593 0.11999 0.86457 0.0
O82 O 0.47761 0.2508 0.91004 0.0
O83 O 0.45944 0.14764 0.81653 0.0
O84 O 0.53563 0.16164 0.93413 0.0
O85 O 0.48697 0.23662 0.72681 0.0
O86 O 0.58386 0.24955 0.83912 0.0
O87 O 0.57043 0.1544 0.75575 0.0
Sc88 Sc 0.80039 0.42565 0.11582 0.0
Sc89 Sc 0.85325 0.48234 0.20727 0.0
Sc90 Sc 0.76324 0.50891 0.16603 0.0
O91 O 0.80583 0.47252 0.16262 0.0
C92 C 0.75968 0.48563 0.03408 0.0
C93 C 0.88228 0.45139 0.08645 0.0
C94 C 0.83192 0.5631 0.16696 0.0
C95 C 0.84609 0.39577 0.22581 0.0
C96 C 0.72102 0.43155 0.17079 0.0
C97 C 0.79067 0.50334 0.29851 0.0
O98 O 0.77266 0.45364 0.04418 0.0
O99 O 0.88698 0.46975 0.13293 0.0
O100 O 0.79777 0.55707 0.16079 0.0
O101 O 0.82651 0.39118 0.18063 0.0
O102 O 0.72176 0.46643 0.17004 0.0
O103 O 0.8237 0.49498 0.28589 0.0
O104 O 0.74878 0.4122 0.15676 0.0
O105 O 0.85827 0.42725 0.23943 0.0
O106 O 0.76566 0.5088 0.26037 0.0
O107 O 0.85238 0.43505 0.07336 0.0
O108 O 0.75741 0.51061 0.07271 0.0
O109 O 0.85492 0.53867 0.18174 0.0
Sc110 Sc 0.98468 0.75806 0.6807 0.0
Sc111 Sc 0.01202 0.84981 0.70781 0.0
Sc112 Sc 0.0633 0.79364 0.61899 0.0
O113 O 0.02015 0.80005 0.67117 0.0
C114 C 0.06596 0.72236 0.69092 0.0
C115 C 0.98967 0.79173 0.80714 0.0
C116 C 0.09613 0.84881 0.71584 0.0
C117 C 0.9315 0.82787 0.66931 0.0
C118 C 0.0048 0.74569 0.55033 0.0
C119 C 0.04012 0.86899 0.57933 0.0
O120 O 0.03078 0.71952 0.68948 0.0
O121 O 0.99473 0.82466 0.78948 0.0
O122 O 0.09809 0.8327 0.6667 0.0
O123 O 0.93646 0.79328 0.67405 0.0
O124 O 0.03784 0.75472 0.56072 0.0
O125 O 0.03253 0.88004 0.63075 0.0
O126 O 0.97949 0.74909 0.58795 0.0
O127 O 0.95699 0.85151 0.67517 0.0
O128 O 0.03907 0.83525 0.56698 0.0
O129 O 0.98676 0.7643 0.77324 0.0
O130 O 0.08355 0.75018 0.67203 0.0
O131 O 0.0662 0.85195 0.74353 0.0
Sc132 Sc 0.73965 0.9865 0.18633 0.0
Sc133 Sc 0.64768 0.01431 0.20681 0.0
Sc134 Sc 0.70469 0.0618 0.11465 0.0
O135 O 0.69791 0.02123 0.17128 0.0
C136 C 0.77593 0.06724 0.18609 0.0
C137 C 0.70375 0.99514 0.31066 0.0
C138 C 0.65022 0.09815 0.21043 0.0
C139 C 0.66986 0.93361 0.17472 0.0
C140 C 0.75267 1e-05 0.05355 0.0
C141 C 0.62903 0.04044 0.07695 0.0
O142 O 0.77834 0.03223 0.19029 0.0
O143 O 0.67103 0.99613 0.29013 0.0
O144 O 0.66684 0.09855 0.16152 0.0
O145 O 0.70406 0.93852 0.18458 0.0
O146 O 0.74296 0.03329 0.05935 0.0
O147 O 0.61825 0.0355 0.12928 0.0
O148 O 0.74966 0.97672 0.09445 0.0
O149 O 0.64611 0.95933 0.1744 0.0
O150 O 0.66241 0.03647 0.06393 0.0
O151 O 0.73216 0.99389 0.27834 0.0
O152 O 0.74852 0.08403 0.16436 0.0
O153 O 0.64666 0.06902 0.24017 0.0
Sc154 Sc 0.4263 0.69839 0.61883 0.0
Sc155 Sc 0.48512 0.64595 0.7067 0.0
Sc156 Sc 0.50994 0.73567 0.66364 0.0
O157 O 0.47403 0.69297 0.66274 0.0
C158 C 0.48515 0.73759 0.53408 0.0
C159 C 0.45071 0.61698 0.58738 0.0
C160 C 0.5647 0.66725 0.6626 0.0
C161 C 0.39919 0.65283 0.73005 0.0
C162 C 0.43242 0.77665 0.67458 0.0
C163 C 0.50681 0.70971 0.79544 0.0
O164 O 0.45249 0.72809 0.54792 0.0
O165 O 0.46869 0.61188 0.63426 0.0
O166 O 0.55846 0.70152 0.66017 0.0
O167 O 0.39359 0.6704 0.68319 0.0
O168 O 0.46705 0.77749 0.66638 0.0
O169 O 0.50122 0.67602 0.78341 0.0
O170 O 0.41324 0.7483 0.664 0.0
O171 O 0.43122 0.64238 0.74441 0.0
O172 O 0.50946 0.735 0.75728 0.0
O173 O 0.43557 0.64737 0.57355 0.0
O174 O 0.51156 0.73751 0.57031 0.0
O175 O 0.54032 0.64362 0.67489 0.0
Sc176 Sc 0.73873 0.50784 0.67138 0.0
Sc177 Sc 0.64622 0.48363 0.69955 0.0
Sc178 Sc 0.70235 0.42501 0.61643 0.0
O179 O 0.69565 0.47226 0.66218 0.0
C180 C 0.74671 0.48394 0.53928 0.0
C181 C 0.67193 0.56364 0.66092 0.0
C182 C 0.62183 0.45176 0.57621 0.0
C183 C 0.70445 0.50505 0.79997 0.0
C184 C 0.77816 0.42931 0.68295 0.0
C185 C 0.64884 0.39702 0.71656 0.0
O186 O 0.74947 0.50827 0.5788 0.0
O187 O 0.64796 0.54005 0.67493 0.0
O188 O 0.65161 0.43377 0.56882 0.0
O189 O 0.73098 0.51026 0.76458 0.0
O190 O 0.75237 0.41089 0.6601 0.0
O191 O 0.63621 0.42864 0.72821 0.0
O192 O 0.77775 0.46415 0.68736 0.0
O193 O 0.67272 0.49504 0.78239 0.0
O194 O 0.67417 0.39165 0.67949 0.0
O195 O 0.70607 0.55667 0.6577 0.0
O196 O 0.73238 0.45251 0.54836 0.0
O197 O 0.61574 0.47211 0.62037 0.0
Sc198 Sc 0.99283 0.73626 0.17731 0.0
Sc199 Sc 0.01989 0.64539 0.21253 0.0
Sc200 Sc 0.07294 0.69765 0.11566 0.0
O201 O 0.02839 0.69304 0.16817 0.0
C202 C 0.01292 0.74127 0.04213 0.0
C203 C 0.93859 0.66864 0.17255 0.0
C204 C 0.04756 0.61494 0.09061 0.0
C205 C 0.99812 0.7051 0.30764 0.0
C206 C 0.07069 0.77591 0.17841 0.0
C207 C 0.10726 0.65307 0.22207 0.0
O208 O 0.99349 0.75017 0.0859 0.0
O209 O 0.96207 0.64627 0.19327 0.0
O210 O 0.06489 0.64421 0.07809 0.0
O211 O 0.98756 0.72862 0.27019 0.0
O212 O 0.08646 0.75113 0.14853 0.0
O213 O 0.07666 0.63892 0.23662 0.0
O214 O 0.03718 0.77437 0.19436 0.0
O215 O 0.01211 0.67428 0.29368 0.0
O216 O 0.10987 0.67522 0.1797 0.0
O217 O 0.94547 0.70211 0.16104 0.0
O218 O 0.04132 0.72095 0.04565 0.0
O219 O 0.02829 0.61113 0.13647 0.0
Sc220 Sc 0.79854 0.07267 0.62457 0.0
Sc221 Sc 0.85083 0.01562 0.71628 0.0
Sc222 Sc 0.75998 0.99069 0.68118 0.0
O223 O 0.80314 0.02627 0.67373 0.0
C224 C 0.72285 0.07073 0.69503 0.0
C225 C 0.85091 0.10245 0.72663 0.0
C226 C 0.79168 0.99194 0.81137 0.0
C227 C 0.87833 0.04363 0.59069 0.0
C228 C 0.75095 0.01546 0.54913 0.0
C229 C 0.82705 0.93563 0.67163 0.0
O230 O 0.74837 0.08843 0.66914 0.0
O231 O 0.85759 0.07078 0.74696 0.0
O232 O 0.76752 0.9835 0.77364 0.0
O233 O 0.84835 0.06009 0.57832 0.0
O234 O 0.74654 0.9923 0.58979 0.0
O235 O 0.84993 0.95874 0.69171 0.0
O236 O 0.7678 0.04573 0.5561 0.0
O237 O 0.88347 0.02657 0.63856 0.0
O238 O 0.79328 0.94285 0.66277 0.0
O239 O 0.83052 0.1073 0.68235 0.0
O240 O 0.72304 0.03582 0.70101 0.0
O241 O 0.82296 0.00498 0.79765 0.0
Sc242 Sc 0.42751 0.79571 0.11583 0.0
Sc243 Sc 0.48377 0.8471 0.20608 0.0
Sc244 Sc 0.50984 0.75891 0.16166 0.0
O245 O 0.47426 0.80117 0.16079 0.0
C246 C 0.4323 0.71975 0.17451 0.0
C247 C 0.39981 0.84669 0.22012 0.0
C248 C 0.50534 0.78245 0.2938 0.0
C249 C 0.45063 0.87519 0.08294 0.0
C250 C 0.48607 0.75529 0.03446 0.0
C251 C 0.56368 0.8279 0.1646 0.0
O252 O 0.4135 0.74913 0.16909 0.0
O253 O 0.43056 0.84648 0.24571 0.0
O254 O 0.50717 0.75742 0.25509 0.0
O255 O 0.44073 0.84344 0.06533 0.0
O256 O 0.5131 0.76023 0.06854 0.0
O257 O 0.53838 0.85142 0.17259 0.0
O258 O 0.45287 0.75993 0.05103 0.0
O259 O 0.46431 0.88119 0.13349 0.0
O260 O 0.55822 0.79341 0.16434 0.0
O261 O 0.39528 0.83173 0.17075 0.0
O262 O 0.46583 0.71799 0.15835 0.0
O263 O 0.50182 0.81656 0.28197 0.0
Sc264 Sc 0.24056 0.49087 0.82498 0.0
Sc265 Sc 0.14799 0.51525 0.79473 0.0
Sc266 Sc 0.20094 0.57018 0.88848 0.0
O267 O 0.19651 0.52543 0.83605 0.0
C268 C 0.24706 0.51029 0.95973 0.0
C269 C 0.17408 0.43437 0.83077 0.0
C270 C 0.12031 0.54098 0.91983 0.0
C271 C 0.2074 0.49712 0.69612 0.0
C272 C 0.27831 0.57014 0.82292 0.0
C273 C 0.14997 0.60305 0.78893 0.0
O274 O 0.25416 0.48957 0.91659 0.0
O275 O 0.15046 0.45774 0.81386 0.0
O276 O 0.14955 0.55887 0.93086 0.0
O277 O 0.23291 0.48888 0.73175 0.0
O278 O 0.25252 0.58616 0.85041 0.0
O279 O 0.13857 0.57195 0.77146 0.0
O280 O 0.27807 0.53607 0.8103 0.0
O281 O 0.17546 0.50755 0.71209 0.0
O282 O 0.17344 0.60694 0.82933 0.0
O283 O 0.20788 0.44185 0.83869 0.0
O284 O 0.22825 0.53961 0.95561 0.0
O285 O 0.11572 0.52239 0.87344 0.0
Sc286 Sc 0.92464 0.19824 0.39179 0.0
Sc287 Sc 0.98107 0.1466 0.29836 0.0
Sc288 Sc 0.00646 0.23724 0.3364 0.0
O289 O 0.97083 0.19391 0.34252 0.0
C290 C 0.92684 0.27576 0.32885 0.0
C291 C 0.894 0.14898 0.28911 0.0
C292 C 0.00102 0.20858 0.20565 0.0
C293 C 0.95276 0.1166 0.42066 0.0
C294 C 0.98339 0.24204 0.46868 0.0
C295 C 0.06199 0.17032 0.33843 0.0
O296 O 0.90967 0.24963 0.35327 0.0
O297 O 0.92528 0.13762 0.2729 0.0
O298 O 0.01111 0.23176 0.2438 0.0
O299 O 0.93502 0.14587 0.43286 0.0
O300 O 0.0065 0.24712 0.42823 0.0
O301 O 0.03855 0.14792 0.31826 0.0
O302 O 0.9529 0.22567 0.46115 0.0
O303 O 0.97228 0.11273 0.3749 0.0
O304 O 0.05479 0.20369 0.35004 0.0
O305 O 0.88939 0.1721 0.32965 0.0
O306 O 0.96164 0.27597 0.32143 0.0
O307 O 0.98854 0.17683 0.21819 0.0
Sc308 Sc 0.29647 0.92614 0.87426 0.0
Sc309 Sc 0.35164 0.98371 0.78797 0.0
Sc310 Sc 0.2599 0.00869 0.82123 0.0
O311 O 0.30298 0.97304 0.82818 0.0
C312 C 0.2191 0.93097 0.8125 0.0
C313 C 0.34866 0.89713 0.77215 0.0
C314 C 0.29082 0.00207 0.69106 0.0
C315 C 0.37701 0.95273 0.91215 0.0
C316 C 0.25399 0.98676 0.95284 0.0
C317 C 0.32743 0.06441 0.82356 0.0
O318 O 0.24707 0.9121 0.82716 0.0
O319 O 0.35972 0.92876 0.75751 0.0
O320 O 0.26464 0.00695 0.72737 0.0
O321 O 0.3467 0.93606 0.92169 0.0
O322 O 0.25286 0.01166 0.91402 0.0
O323 O 0.35142 0.04018 0.81258 0.0
O324 O 0.26614 0.95434 0.94326 0.0
O325 O 0.38302 0.97179 0.8665 0.0
O326 O 0.29322 0.05778 0.82609 0.0
O327 O 0.32613 0.89164 0.81349 0.0
O328 O 0.21856 0.96579 0.8168 0.0
O329 O 0.32392 0.99517 0.70616 0.0
Sc330 Sc 0.48962 0.25963 0.32063 0.0
Sc331 Sc 0.51342 0.35045 0.2834 0.0
Sc332 Sc 0.57301 0.29844 0.37068 0.0
O333 O 0.52523 0.30296 0.3256 0.0
C334 C 0.51783 0.25278 0.45094 0.0
C335 C 0.43417 0.32539 0.33158 0.0
C336 C 0.54501 0.3801 0.40363 0.0
C337 C 0.48896 0.29031 0.19119 0.0
C338 C 0.56892 0.22171 0.30462 0.0
C339 C 0.60021 0.34735 0.26505 0.0
O340 O 0.4951 0.24553 0.41078 0.0
O341 O 0.45606 0.34757 0.30659 0.0
O342 O 0.56422 0.3512 0.41217 0.0
O343 O 0.47734 0.2686 0.23018 0.0
O344 O 0.58628 0.24637 0.33243 0.0
O345 O 0.56861 0.36049 0.25469 0.0
O346 O 0.53424 0.22279 0.29551 0.0
O347 O 0.50511 0.32041 0.20333 0.0
O348 O 0.6062 0.32338 0.30397 0.0
O349 O 0.44266 0.29253 0.3447 0.0
O350 O 0.54652 0.27213 0.44304 0.0
O351 O 0.52325 0.38399 0.36042 0.0
C352 C 0.44466 0.56052 0.45018 0.0
C353 C 0.4114 0.54195 0.46261 0.0
C354 C 0.415 0.56024 0.56464 0.0
C355 C 0.44352 0.58515 0.54927 0.0
N356 N 0.48956 0.60598 0.48179 0.0
N357 N 0.37304 0.51203 0.53256 0.0
C358 C 0.46023 0.58368 0.49358 0.0
C359 C 0.39965 0.53749 0.52071 0.0
N360 N 0.46091 0.55602 0.39713 0.0
N361 N 0.40075 0.56067 0.61972 0.0
H362 H 0.36207 0.49529 0.49993 0.0
H363 H 0.36394 0.50542 0.57414 0.0
H364 H 0.41173 0.57661 0.65316 0.0
H365 H 0.37748 0.5461 0.63241 0.0
H366 H 0.48629 0.56713 0.38581 0.0
H367 H 0.4502 0.53838 0.36568 0.0
H368 H 0.50078 0.6096 0.44056 0.0
H369 H 0.50225 0.62184 0.5139 0.0
C370 C 0.90896 0.45971 0.98805 0.0
C371 C 0.91338 0.44709 0.04584 0.0
C372 C 0.96686 0.41106 0.01612 0.0
C373 C 0.95548 0.41516 0.95798 0.0
N374 N 0.92104 0.44842 0.88568 0.0
N375 N 0.94876 0.41331 0.1173 0.0
C376 C 0.92886 0.44198 0.94288 0.0
C377 C 0.94379 0.42447 0.06109 0.0
N378 N 0.88521 0.488 0.97698 0.0
N379 N 0.99925 0.39351 0.02754 0.0
H380 H 0.93258 0.42267 0.15166 0.0
H381 H 0.96789 0.3934 0.12949 0.0
H382 H 0.01596 0.38365 0.99396 0.0
H383 H 0.01091 0.39196 0.06886 0.0
H384 H 0.88195 0.50016 0.93633 0.0
H385 H 0.87106 0.50143 0.01035 0.0
H386 H 0.89915 0.46455 0.87144 0.0
H387 H 0.93628 0.43664 0.85204 0.0
C388 C 0.05029 0.93176 0.52868 0.0
C389 C 0.05746 0.89327 0.53443 0.0
C390 C 0.08927 0.89458 0.44154 0.0
C391 C 0.09012 0.93315 0.44242 0.0
N392 N 0.07292 0.98978 0.48913 0.0
N393 N 0.09996 0.84445 0.50559 0.0
C394 C 0.07093 0.95239 0.48668 0.0
C395 C 0.08136 0.87621 0.49329 0.0
N396 N 0.02365 0.94837 0.5612 0.0
N397 N 0.09883 0.87554 0.39272 0.0
H398 H 0.10139 0.83338 0.54734 0.0
H399 H 0.11879 0.83278 0.47666 0.0
H400 H 0.10365 0.88887 0.35331 0.0
H401 H 0.09741 0.84689 0.3905 0.0
H402 H 0.01594 0.97573 0.5552 0.0
H403 H 0.00674 0.93398 0.5898 0.0
H404 H 0.06238 0.00506 0.52371 0.0
H405 H 0.08686 0.00503 0.45758 0.0
C406 C 0.59671 0.11845 0.9798 0.0
C407 C 0.56266 0.10495 0.95752 0.0
C408 C 0.57067 0.04881 0.01686 0.0
C409 C 0.60587 0.0616 0.03502 0.0
N410 N 0.65528 0.10633 0.02141 0.0
N411 N 0.51833 0.05588 0.95122 0.0
C412 C 0.61973 0.0953 0.01239 0.0
C413 C 0.55004 0.06954 0.97477 0.0
N414 N 0.60741 0.15425 0.97291 0.0
N415 N 0.55709 0.01687 0.03964 0.0
H416 H 0.50172 0.07107 0.92305 0.0
H417 H 0.5093 0.02898 0.95703 0.0
H418 H 0.57238 5e-05 0.06735 0.0
H419 H 0.53026 0.00772 0.03334 0.0
H420 H 0.6274 0.16662 0.99901 0.0
H421 H 0.59615 0.17281 0.94429 0.0
H422 H 0.66835 0.12549 0.99464 0.0
H423 H 0.67228 0.09707 0.0542 0.0
C424 C 0.54037 0.40575 0.50345 0.0
C425 C 0.55093 0.41093 0.44514 0.0
C426 C 0.59436 0.45854 0.47656 0.0
C427 C 0.59157 0.44484 0.5341 0.0
N428 N 0.55919 0.4074 0.60429 0.0
N429 N 0.5809 0.44877 0.37384 0.0
C430 C 0.56305 0.41976 0.54854 0.0
C431 C 0.57531 0.43996 0.43084 0.0
N432 N 0.50817 0.38809 0.5151 0.0
N433 N 0.61507 0.48916 0.4664 0.0
H434 H 0.56615 0.43629 0.3403 0.0
H435 H 0.60029 0.46777 0.35963 0.0
H436 H 0.62805 0.50333 0.50018 0.0
H437 H 0.61711 0.50209 0.42618 0.0
H438 H 0.49669 0.38693 0.5566 0.0
H439 H 0.49128 0.37837 0.48167 0.0
H440 H 0.54162 0.38591 0.61556 0.0
H441 H 0.57492 0.41737 0.63879 0.0
C442 C 0.05812 0.56502 0.94959 0.0
C443 C 0.09024 0.5444 0.96324 0.0
C444 C 0.08244 0.55777 0.06677 0.0
C445 C 0.05415 0.58302 0.05207 0.0
N446 N 0.00745 0.60285 0.98554 0.0
N447 N 0.12435 0.50984 0.03375 0.0
C448 C 0.03916 0.5836 0.99528 0.0
C449 C 0.09911 0.53669 0.02188 0.0
N450 N 0.04734 0.5687 0.89296 0.0
N451 N 0.09524 0.55623 0.12263 0.0
H452 H 0.13659 0.49437 0.00069 0.0
H453 H 0.13065 0.50076 0.07552 0.0
H454 H 0.08279 0.5705 0.15673 0.0
H455 H 0.11876 0.54188 0.13505 0.0
H456 H 0.02655 0.58626 0.87898 0.0
H457 H 0.05967 0.55424 0.85906 0.0
H458 H 0.99341 0.60336 0.94612 0.0
H459 H 0.99364 0.61641 0.01912 0.0
C460 C 0.91908 0.05853 0.44298 0.0
C461 C 0.94622 0.08456 0.4592 0.0
C462 C 0.94191 0.06425 0.56059 0.0
C463 C 0.90832 0.04629 0.54652 0.0
N464 N 0.86968 0.01795 0.47466 0.0
N465 N 0.99004 0.10646 0.52876 0.0
C466 C 0.899 0.04009 0.4874 0.0
C467 C 0.9601 0.08512 0.51666 0.0
N468 N 0.91205 0.05242 0.38539 0.0
N469 N 0.95596 0.06159 0.61551 0.0
H470 H 0.00463 0.11994 0.49595 0.0
H471 H 0.00029 0.1112 0.57031 0.0
H472 H 0.94468 0.04437 0.64689 0.0
H473 H 0.9807 0.07328 0.62866 0.0
H474 H 0.8939 0.03261 0.36991 0.0
H475 H 0.92642 0.06579 0.35235 0.0
H476 H 0.85833 0.01491 0.43342 0.0
H477 H 0.85633 0.00259 0.50671 0.0
C478 C 0.39606 0.95302 0.01546 0.0
C479 C 0.40635 0.94777 0.95687 0.0
C480 C 0.45782 0.90878 0.98861 0.0
C481 C 0.44139 0.90668 0.04449 0.0
N482 N 0.39558 0.92821 0.11287 0.0
N483 N 0.45258 0.92878 0.88782 0.0
C484 C 0.41141 0.93009 0.05906 0.0
C485 C 0.43953 0.92878 0.94353 0.0
N486 N 0.37107 0.9798 0.02861 0.0
N487 N 0.49046 0.89102 0.97912 0.0
H488 H 0.44108 0.94478 0.85498 0.0
H489 H 0.47471 0.91308 0.8735 0.0
H490 H 0.50417 0.87684 0.01218 0.0
H491 H 0.50524 0.89203 0.94045 0.0
H492 H 0.36405 0.98728 0.07091 0.0
H493 H 0.36059 0.99717 0.99647 0.0
H494 H 0.37087 0.94109 0.12353 0.0
H495 H 0.40602 0.91202 0.14627 0.0
C496 C 0.34105 0.3662 0.30384 0.0
C497 C 0.34182 0.39298 0.34841 0.0
C498 C 0.39246 0.36055 0.39638 0.0
C499 C 0.39711 0.33953 0.34516 0.0
N500 N 0.37405 0.31726 0.25377 0.0
N501 N 0.36333 0.4136 0.44161 0.0
C502 C 0.37016 0.34009 0.3006 0.0
C503 C 0.3654 0.3888 0.39707 0.0
N504 N 0.31332 0.36703 0.26376 0.0
N505 N 0.4149 0.35411 0.44299 0.0
H506 H 0.34281 0.4337 0.44321 0.0
H507 H 0.38193 0.41493 0.47595 0.0
H508 H 0.43484 0.3334 0.44254 0.0
H509 H 0.41217 0.36708 0.48309 0.0
H510 H 0.30977 0.34744 0.23128 0.0
H511 H 0.29196 0.3862 0.26613 0.0
H512 H 0.35777 0.3185 0.21661 0.0
H513 H 0.39453 0.29712 0.25194 0.0
C514 C 0.11167 0.36393 0.89633 0.0
C515 C 0.10561 0.34289 0.84552 0.0
C516 C 0.1595 0.37068 0.79942 0.0
C517 C 0.15986 0.39735 0.84419 0.0
N518 N 0.14061 0.41787 0.93882 0.0
N519 N 0.12536 0.3217 0.7516 0.0
C520 C 0.13789 0.39287 0.89464 0.0
C521 C 0.13073 0.34418 0.79846 0.0
N522 N 0.09128 0.35684 0.94499 0.0
N523 N 0.18595 0.37176 0.75727 0.0
H524 H 0.10517 0.30128 0.75134 0.0
H525 H 0.14005 0.32366 0.71287 0.0
H526 H 0.20719 0.39106 0.75814 0.0
H527 H 0.18873 0.35213 0.72464 0.0
H528 H 0.09539 0.36967 0.98492 0.0
H529 H 0.07189 0.33567 0.9463 0.0
H530 H 0.12289 0.4189 0.97432 0.0
H531 H 0.16051 0.43855 0.93885 0.0
C532 C 0.1504 0.12649 0.29775 0.0
C533 C 0.15228 0.09999 0.34293 0.0
C534 C 0.10439 0.13213 0.39759 0.0
C535 C 0.0991 0.15543 0.34898 0.0
N536 N 0.12278 0.18325 0.26216 0.0
N537 N 0.14029 0.08301 0.44201 0.0
C538 C 0.12455 0.15572 0.30248 0.0
C539 C 0.13253 0.105 0.39539 0.0
N540 N 0.17125 0.12197 0.24876 0.0
N541 N 0.08093 0.13474 0.44388 0.0
H542 H 0.16111 0.06319 0.44061 0.0
H543 H 0.12837 0.08602 0.48287 0.0
H544 H 0.06125 0.15561 0.44691 0.0
H545 H 0.08038 0.11629 0.47843 0.0
H546 H 0.16837 0.13777 0.21132 0.0
H547 H 0.19109 0.10136 0.24495 0.0
H548 H 0.14177 0.18672 0.22874 0.0
H549 H 0.10364 0.2046 0.26531 0.0
C550 C 0.34626 0.1239 0.78007 0.0
C551 C 0.34099 0.10227 0.83056 0.0
C552 C 0.38718 0.13769 0.88337 0.0
C553 C 0.39619 0.15561 0.83057 0.0
N554 N 0.37905 0.17439 0.73389 0.0
N555 N 0.34663 0.09495 0.93368 0.0
C556 C 0.37348 0.15195 0.78077 0.0
C557 C 0.35803 0.11172 0.88372 0.0
N558 N 0.32687 0.11571 0.73078 0.0
N559 N 0.40782 0.14438 0.93191 0.0
H560 H 0.32474 0.0764 0.93367 0.0
H561 H 0.3565 0.10126 0.97497 0.0
H562 H 0.42813 0.16465 0.93276 0.0
H563 H 0.4054 0.12987 0.97071 0.0
H564 H 0.33172 0.12747 0.69028 0.0
H565 H 0.30578 0.09622 0.73054 0.0
H566 H 0.36238 0.17473 0.69711 0.0
H567 H 0.39923 0.19477 0.73342 0.0
C568 C 0.89599 0.63329 0.10913 0.0
C569 C 0.90171 0.65374 0.1608 0.0
C570 C 0.84913 0.62407 0.20727 0.0
C571 C 0.84657 0.6004 0.15853 0.0
N572 N 0.85825 0.58862 0.05759 0.0
N573 N 0.87867 0.6773 0.25134 0.0
C574 C 0.8667 0.60753 0.10717 0.0
C575 C 0.87611 0.65233 0.2071 0.0
N576 N 0.92007 0.63699 0.06385 0.0
N577 N 0.82752 0.61768 0.25486 0.0
H578 H 0.89856 0.698 0.25158 0.0
H579 H 0.85973 0.67942 0.28512 0.0
H580 H 0.80671 0.5979 0.25479 0.0
H581 H 0.83055 0.6311 0.29454 0.0
H582 H 0.91996 0.62042 0.02696 0.0
H583 H 0.94115 0.65646 0.06415 0.0
H584 H 0.87033 0.5935 0.01731 0.0
H585 H 0.83664 0.56974 0.05625 0.0
C586 C 0.86779 0.8437 0.7025 0.0
C587 C 0.89441 0.84274 0.65738 0.0
C588 C 0.86521 0.89493 0.60904 0.0
C589 C 0.8417 0.89885 0.65778 0.0
N590 N 0.81206 0.87194 0.74088 0.0
N591 N 0.91124 0.8578 0.55937 0.0
C592 C 0.83981 0.87109 0.7008 0.0
C593 C 0.89024 0.86498 0.60736 0.0
N594 N 0.87106 0.82041 0.74882 0.0
N595 N 0.8651 0.92123 0.56658 0.0
H596 H 0.92961 0.83569 0.55809 0.0
H597 H 0.90827 0.8714 0.51981 0.0
H598 H 0.84616 0.94281 0.56637 0.0
H599 H 0.88429 0.9225 0.53303 0.0
H600 H 0.85554 0.82255 0.7867 0.0
H601 H 0.89023 0.7991 0.74981 0.0
H602 H 0.80739 0.85125 0.77126 0.0
H603 H 0.79168 0.89218 0.74044 0.0
C604 C 0.62425 0.8435 0.20774 0.0
C605 C 0.60128 0.84229 0.15803 0.0
C606 C 0.63902 0.88884 0.11031 0.0
C607 C 0.65572 0.89622 0.16465 0.0
N608 N 0.66797 0.8792 0.26407 0.0
N609 N 0.58882 0.85897 0.05885 0.0
C610 C 0.65038 0.87236 0.21265 0.0
C611 C 0.60991 0.86292 0.10769 0.0
N612 N 0.61998 0.81794 0.25075 0.0
N613 N 0.65063 0.90749 0.06212 0.0
H614 H 0.56848 0.8388 0.05555 0.0
H615 H 0.59074 0.87591 0.02251 0.0
H616 H 0.67228 0.92635 0.06396 0.0
H617 H 0.64122 0.90227 0.02018 0.0
H618 H 0.63751 0.81557 0.28637 0.0
H619 H 0.60061 0.79686 0.24815 0.0
H620 H 0.66192 0.86584 0.30293 0.0
H621 H 0.68803 0.89948 0.26838 0.0
C622 C 0.60797 0.6324 0.59976 0.0
C623 C 0.60202 0.65327 0.65093 0.0
C624 C 0.65609 0.62594 0.69694 0.0
C625 C 0.65823 0.60103 0.64973 0.0
N626 N 0.64533 0.58633 0.5502 0.0
N627 N 0.62528 0.67876 0.7402 0.0
C628 C 0.63742 0.60671 0.59857 0.0
C629 C 0.62821 0.65339 0.69657 0.0
N630 N 0.58415 0.63603 0.55408 0.0
N631 N 0.67895 0.62128 0.74359 0.0
H632 H 0.60472 0.6988 0.7407 0.0
H633 H 0.64435 0.68179 0.77359 0.0
H634 H 0.70031 0.60206 0.74337 0.0
H635 H 0.67675 0.63575 0.78246 0.0
H636 H 0.58449 0.61955 0.51712 0.0
H637 H 0.56344 0.65598 0.55364 0.0
H638 H 0.63226 0.58941 0.51025 0.0
H639 H 0.66717 0.56762 0.54947 0.0
C640 C 0.2559 0.46942 0.0477 0.0
C641 C 0.26403 0.50233 0.01702 0.0
C642 C 0.29427 0.52761 0.10324 0.0
C643 C 0.28808 0.49399 0.13323 0.0
N644 N 0.27026 0.43019 0.13012 0.0
N645 N 0.29981 0.55807 0.0103 0.0
C646 C 0.2711 0.464 0.10421 0.0
C647 C 0.28613 0.52986 0.04315 0.0
N648 N 0.23234 0.44419 0.02422 0.0
N649 N 0.30556 0.55831 0.13261 0.0
H650 H 0.29457 0.56072 0.96591 0.0
H651 H 0.31934 0.57664 0.02576 0.0
H652 H 0.31043 0.55887 0.17723 0.0
H653 H 0.30631 0.58435 0.11375 0.0
H654 H 0.22205 0.42181 0.0473 0.0
H655 H 0.22088 0.44707 0.98292 0.0
H656 H 0.26143 0.40645 0.10897 0.0
H657 H 0.28171 0.42525 0.17101 0.0
C658 C 0.98257 0.24596 0.6319 0.0
C659 C 0.00137 0.2793 0.6435 0.0
C660 C 0.00672 0.29034 0.53901 0.0
C661 C 0.99247 0.2545 0.52823 0.0
N662 N 0.97814 0.19432 0.56707 0.0
N663 N 0.03827 0.32967 0.60793 0.0
C664 C 0.98406 0.23102 0.57553 0.0
C665 C 0.01569 0.30047 0.597 0.0
N666 N 0.96111 0.22975 0.67336 0.0
N667 N 0.00969 0.31548 0.49511 0.0
H668 H 0.04605 0.33732 0.64992 0.0
H669 H 0.0521 0.34385 0.57516 0.0
H670 H 0.00158 0.31022 0.45248 0.0
H671 H 0.01656 0.34292 0.50238 0.0
H672 H 0.94471 0.20682 0.66496 0.0
H673 H 0.95574 0.24217 0.71324 0.0
H674 H 0.97453 0.17594 0.60143 0.0
H675 H 0.98131 0.18173 0.52664 0.0
C676 C 0.20463 0.98112 0.02889 0.0
C677 C 0.23909 0.99575 0.01147 0.0
C678 C 0.2432 0.02981 0.10377 0.0
C679 C 0.21093 0.01177 0.12385 0.0
N680 N 0.15203 0.98761 0.09216 0.0
N681 N 0.29206 0.03333 0.03194 0.0
C682 C 0.18889 0.99225 0.08281 0.0
C683 C 0.25837 0.02037 0.04851 0.0
N684 N 0.18686 0.95635 0.99403 0.0
N685 N 0.2575 0.05808 0.13578 0.0
H686 H 0.30366 0.02728 0.99161 0.0
H687 H 0.30971 0.04778 0.05929 0.0
H688 H 0.24453 0.06801 0.17313 0.0
H689 H 0.27919 0.07461 0.12207 0.0
H690 H 0.1644 0.94087 0.00795 0.0
H691 H 0.19606 0.9492 0.95257 0.0
H692 H 0.13436 0.97551 0.06209 0.0
H693 H 0.13762 0.00146 0.12454 0.0
C694 C 0.49732 0.20523 0.52502 0.0
C695 C 0.50877 0.24155 0.51119 0.0
C696 C 0.51354 0.25578 0.6141 0.0
C697 C 0.49755 0.22122 0.62869 0.0
N698 N 0.46509 0.16718 0.59481 0.0
N699 N 0.51411 0.30445 0.54369 0.0
C700 C 0.48667 0.19702 0.58321 0.0
C701 C 0.51249 0.26779 0.55604 0.0
N702 N 0.49796 0.17823 0.48374 0.0
N703 N 0.53189 0.2765 0.65429 0.0
H704 H 0.51091 0.31476 0.50169 0.0
H705 H 0.51381 0.32442 0.5762 0.0
H706 H 0.5376 0.26753 0.69619 0.0
H707 H 0.54598 0.3005 0.64344 0.0
H708 H 0.49303 0.15066 0.49343 0.0
H709 H 0.50708 0.18267 0.44133 0.0
H710 H 0.45411 0.15057 0.5622 0.0
H711 H 0.45459 0.16166 0.6361 0.0
C712 C 0.79853 0.52044 0.40485 0.0
C713 C 0.77961 0.50086 0.36051 0.0
C714 C 0.73596 0.47869 0.4323 0.0
C715 C 0.75778 0.49273 0.47827 0.0
N716 N 0.81518 0.52151 0.50693 0.0
N717 N 0.73952 0.44971 0.33895 0.0
C718 C 0.79058 0.51241 0.46441 0.0
C719 C 0.7509 0.47668 0.37602 0.0
N720 N 0.82366 0.54677 0.39033 0.0
N721 N 0.70031 0.46852 0.44133 0.0
H722 H 0.75129 0.44542 0.29811 0.0
H723 H 0.72133 0.42916 0.35223 0.0
H724 H 0.68691 0.47235 0.48091 0.0
H725 H 0.68304 0.46135 0.40704 0.0
H726 H 0.83574 0.56414 0.42092 0.0
H727 H 0.82973 0.55346 0.34725 0.0
H728 H 0.84089 0.53288 0.49796 0.0
H729 H 0.81179 0.51417 0.55037 0.0
C730 C 0.96369 0.76746 0.90093 0.0
C731 C 0.99336 0.78362 0.87007 0.0
C732 C 0.03211 0.77914 0.95694 0.0
C733 C 0.00447 0.75807 0.98486 0.0
N734 N 0.94467 0.72925 0.98205 0.0
N735 N 0.05831 0.79791 0.86538 0.0
C736 C 0.97021 0.75172 0.95678 0.0
C737 C 0.02819 0.78793 0.89728 0.0
N738 N 0.92926 0.76759 0.87703 0.0
N739 N 0.06191 0.79139 0.98768 0.0
H740 H 0.05729 0.80282 0.82082 0.0
H741 H 0.08502 0.79741 0.88189 0.0
H742 H 0.06559 0.78604 0.03187 0.0
H743 H 0.0809 0.81004 0.97084 0.0
H744 H 0.90573 0.75946 0.89944 0.0
H745 H 0.92383 0.77899 0.83629 0.0
H746 H 0.92101 0.72021 0.96088 0.0
H747 H 0.9484 0.71737 0.02287 0.0
C748 C 0.73512 0.97105 0.40048 0.0
C749 C 0.71003 0.99641 0.37509 0.0
C750 C 0.70582 0.02872 0.46916 0.0
C751 C 0.7353 0.00716 0.49079 0.0
N752 N 0.78042 0.95945 0.47574 0.0
N753 N 0.67328 0.0517 0.38514 0.0
C754 C 0.7504 0.97851 0.45631 0.0
C755 C 0.69538 0.02556 0.40963 0.0
N756 N 0.7436 0.93925 0.37174 0.0
N757 N 0.68746 0.05198 0.50585 0.0
H758 H 0.6648 0.05105 0.34208 0.0
H759 H 0.66537 0.07568 0.40647 0.0
H760 H 0.69492 0.05563 0.54927 0.0
H761 H 0.66292 0.06512 0.49494 0.0
H762 H 0.75892 0.91802 0.39018 0.0
H763 H 0.732 0.93242 0.33166 0.0
H764 H 0.79541 0.94133 0.44982 0.0
H765 H 0.79217 0.9639 0.5165 0.0
C766 C 0.51986 0.71657 0.95937 0.0
C767 C 0.49287 0.7437 0.97323 0.0
C768 C 0.47186 0.74262 0.87232 0.0
C769 C 0.50263 0.72091 0.85672 0.0
N770 N 0.55881 0.69028 0.88427 0.0
N771 N 0.44987 0.78939 0.93738 0.0
C772 C 0.52765 0.70885 0.89991 0.0
C773 C 0.47074 0.7587 0.92813 0.0
N774 N 0.53625 0.69639 0.00232 0.0
N775 N 0.44292 0.74678 0.83486 0.0
H776 H 0.45145 0.80488 0.97533 0.0
H777 H 0.43457 0.80189 0.90462 0.0
H778 H 0.44205 0.7345 0.79386 0.0
H779 H 0.4183 0.75942 0.84693 0.0
H780 H 0.5536 0.67419 0.99383 0.0
H781 H 0.52925 0.69878 0.0461 0.0
H782 H 0.5798 0.68404 0.91357 0.0
H783 H 0.565 0.68391 0.84109 0.0
C784 C 0.69216 0.48744 0.90654 0.0
C785 C 0.71272 0.50758 0.86442 0.0
C786 C 0.76156 0.51783 0.93713 0.0
C787 C 0.74355 0.4934 0.9758 0.0
N788 N 0.69213 0.45392 0.99781 0.0
N789 N 0.75676 0.55638 0.85151 0.0
C790 C 0.70897 0.47791 0.96057 0.0
C791 C 0.74461 0.52699 0.88317 0.0
N792 N 0.65551 0.4808 0.89807 0.0
N793 N 0.79569 0.53101 0.95084 0.0
H794 H 0.7423 0.56642 0.81565 0.0
H795 H 0.77788 0.57373 0.86496 0.0
H796 H 0.80876 0.52503 0.99009 0.0
H797 H 0.81227 0.5453 0.92164 0.0
H798 H 0.63865 0.46806 0.92858 0.0
H799 H 0.64018 0.49347 0.86555 0.0
H800 H 0.66992 0.43744 0.98599 0.0
H801 H 0.70177 0.44871 0.0397 0.0
C802 C 0.00881 0.75078 0.38801 0.0
C803 C 0.99643 0.71544 0.37036 0.0
C804 C 0.98613 0.6994 0.47317 0.0
C805 C 0.99576 0.73575 0.4893 0.0
N806 N 0.00208 0.79883 0.45951 0.0
N807 N 0.96455 0.65935 0.39594 0.0
C808 C 0.00252 0.76234 0.44578 0.0
C809 C 0.98246 0.69057 0.4129 0.0
N810 N 0.0287 0.77256 0.35117 0.0
N811 N 0.98154 0.67317 0.51499 0.0
H812 H 0.95982 0.65283 0.3524 0.0
H813 H 0.9511 0.64197 0.42502 0.0
H814 H 0.98318 0.67908 0.55934 0.0
H815 H 0.97847 0.64532 0.50552 0.0
H816 H 0.04077 0.79718 0.36443 0.0
H817 H 0.03717 0.764 0.31005 0.0
H818 H 0.00469 0.81957 0.42845 0.0
H819 H 0.99384 0.80794 0.50049 0.0
C820 C 0.79845 0.97927 0.97682 0.0
C821 C 0.762 0.98818 0.99351 0.0
C822 C 0.74585 0.00048 0.89256 0.0
C823 C 0.7815 0.98916 0.8742 0.0
N824 N 0.83829 0.95801 0.89904 0.0
N825 N 0.69849 0.99234 0.96493 0.0
C826 C 0.8069 0.97553 0.91639 0.0
C827 C 0.73486 0.9936 0.9504 0.0
N828 N 0.82511 0.97552 0.01821 0.0
N829 N 0.72341 0.02049 0.85683 0.0
H830 H 0.68996 0.98477 0.00657 0.0
H831 H 0.67745 0.99394 0.93415 0.0
H832 H 0.73176 0.03044 0.81648 0.0
H833 H 0.6984 0.03152 0.87076 0.0
H834 H 0.85299 0.97303 0.00822 0.0
H835 H 0.81938 0.97708 0.06262 0.0
H836 H 0.85615 0.94504 0.928 0.0
H837 H 0.8444 0.95295 0.85544 0.0
C838 C 0.52377 0.78677 0.39967 0.0
C839 C 0.50172 0.77089 0.35544 0.0
C840 C 0.47472 0.72926 0.42687 0.0
C841 C 0.49243 0.74856 0.47265 0.0
N842 N 0.52716 0.8025 0.50166 0.0
N843 N 0.4468 0.73614 0.3327 0.0
C844 C 0.51534 0.77919 0.45897 0.0
C845 C 0.47446 0.74471 0.37055 0.0
N846 N 0.55294 0.80862 0.38533 0.0
N847 N 0.45919 0.69558 0.43618 0.0
H848 H 0.44378 0.74888 0.29234 0.0
H849 H 0.42457 0.71958 0.34443 0.0
H850 H 0.46159 0.68149 0.47546 0.0
H851 H 0.44806 0.67986 0.4026 0.0
H852 H 0.57191 0.81802 0.41593 0.0
H853 H 0.56015 0.81434 0.34236 0.0
H854 H 0.54116 0.82687 0.49281 0.0
H855 H 0.51932 0.80003 0.54506 0.0
C856 C 0.23192 0.468 0.60403 0.0
C857 C 0.21697 0.49904 0.63321 0.0
C858 C 0.22108 0.53466 0.54302 0.0
C859 C 0.24093 0.50562 0.51627 0.0
N860 N 0.26967 0.44589 0.52432 0.0
N861 N 0.20543 0.56445 0.63309 0.0
C862 C 0.24735 0.47241 0.54736 0.0
C863 C 0.21348 0.53298 0.60333 0.0
N864 N 0.23067 0.43422 0.62992 0.0
N865 N 0.20878 0.56374 0.51069 0.0
H866 H 0.20108 0.56504 0.67784 0.0
H867 H 0.20733 0.59043 0.61424 0.0
H868 H 0.2134 0.56609 0.46612 0.0
H869 H 0.1908 0.58358 0.52704 0.0
H870 H 0.23786 0.40996 0.60864 0.0
H871 H 0.2191 0.43009 0.67092 0.0
H872 H 0.2786 0.42302 0.54769 0.0
H873 H 0.28186 0.44821 0.48347 0.0
C874 C 0.01405 0.19817 0.09878 0.0
C875 C 0.00055 0.22102 0.14414 0.0
C876 C 0.99077 0.27037 0.07387 0.0
C877 C 0.99738 0.2456 0.02758 0.0
N878 N 0.00995 0.18314 0.99652 0.0
N879 N 0.96634 0.27593 0.17035 0.0
C880 C 0.00783 0.20869 0.03994 0.0
C881 C 0.98634 0.25642 0.13059 0.0
N882 N 0.03365 0.16714 0.11155 0.0
N883 N 0.98911 0.30735 0.06391 0.0
H884 H 0.95908 0.26539 0.21076 0.0
H885 H 0.95288 0.30045 0.16018 0.0
H886 H 0.99415 0.31877 0.02306 0.0
H887 H 0.98714 0.32656 0.09745 0.0
H888 H 0.04687 0.15144 0.07986 0.0
H889 H 0.04004 0.15934 0.15403 0.0
H890 H 0.01369 0.15517 0.00455 0.0
H891 H 0.00456 0.18911 0.95307 0.0
C892 C 0.23737 0.97573 0.55694 0.0
C893 C 0.2563 0.9941 0.51126 0.0
C894 C 0.29699 0.02172 0.58517 0.0
C895 C 0.2809 0.99897 0.62844 0.0
N896 N 0.24589 0.94397 0.6477 0.0
N897 N 0.31061 0.02842 0.48255 0.0
C898 C 0.25415 0.9728 0.61203 0.0
C899 C 0.28791 0.01566 0.52535 0.0
N900 N 0.20265 0.96229 0.54883 0.0
N901 N 0.32054 0.04919 0.60093 0.0
H902 H 0.30673 0.02267 0.43863 0.0
H903 H 0.33562 0.04131 0.49126 0.0
H904 H 0.32799 0.05401 0.64408 0.0
H905 H 0.33015 0.06888 0.57171 0.0
H906 H 0.18773 0.94957 0.58189 0.0
H907 H 0.18713 0.96818 0.51183 0.0
H908 H 0.22889 0.92239 0.63453 0.0
H909 H 0.25888 0.93982 0.68768 0.0
C910 C 0.48582 0.23418 0.05007 0.0
C911 C 0.4892 0.26293 0.00929 0.0
C912 C 0.47832 0.30767 0.08646 0.0
C913 C 0.48442 0.2797 0.12881 0.0
N914 N 0.49749 0.21468 0.14784 0.0
N915 N 0.48916 0.3276 0.98725 0.0
C916 C 0.48845 0.24233 0.11009 0.0
C917 C 0.48531 0.29992 0.0269 0.0
N918 N 0.4804 0.19893 0.03127 0.0
N919 N 0.46438 0.34103 0.10275 0.0
H920 H 0.49305 0.32261 0.94296 0.0
H921 H 0.4907 0.35525 0.99898 0.0
H922 H 0.45596 0.34661 0.14524 0.0
H923 H 0.45689 0.36132 0.07301 0.0
H924 H 0.47389 0.17728 0.05912 0.0
H925 H 0.47823 0.19226 0.98728 0.0
H926 H 0.50473 0.18835 0.13403 0.0
H927 H 0.50212 0.21794 0.192 0.0
C928 C 0.1635 0.59573 0.32583 0.0
C929 C 0.19582 0.5905 0.29247 0.0
C930 C 0.17575 0.63781 0.22358 0.0
C931 C 0.14122 0.63962 0.25263 0.0
N932 N 0.11024 0.63414 0.34474 0.0
N933 N 0.23091 0.60213 0.20556 0.0
C934 C 0.13739 0.62253 0.30788 0.0
C935 C 0.20151 0.61041 0.2403 0.0
N936 N 0.15704 0.57396 0.37318 0.0
N937 N 0.18553 0.66412 0.18409 0.0
H938 H 0.25013 0.58192 0.21632 0.0
H939 H 0.23425 0.61266 0.16375 0.0
H940 H 0.17072 0.68835 0.17836 0.0
H941 H 0.21138 0.66527 0.1646 0.0
H942 H 0.13231 0.57387 0.39606 0.0
H943 H 0.17521 0.55336 0.38633 0.0
H944 H 0.10758 0.62512 0.38751 0.0
H945 H 0.09323 0.65642 0.33478 0.0
C946 C 0.90776 0.12962 0.77296 0.0
C947 C 0.87096 0.13438 0.75271 0.0
C948 C 0.87655 0.20022 0.7738 0.0
C949 C 0.91022 0.19372 0.80381 0.0
N950 N 0.95221 0.14892 0.84446 0.0
N951 N 0.81778 0.17459 0.74673 0.0
C952 C 0.92407 0.1574 0.8074 0.0
C953 C 0.85448 0.16978 0.75695 0.0
N954 N 0.92835 0.09996 0.75635 0.0
N955 N 0.86644 0.23505 0.75814 0.0
H956 H 0.80007 0.15304 0.73686 0.0
H957 H 0.80433 0.19946 0.75456 0.0
H958 H 0.88306 0.258 0.76489 0.0
H959 H 0.84367 0.24041 0.73185 0.0
H960 H 0.95616 0.09732 0.76691 0.0
H961 H 0.91952 0.08092 0.72556 0.0
H962 H 0.96106 0.12196 0.85129 0.0
H963 H 0.96352 0.16796 0.87325 0.0
C964 C 0.34498 0.92075 0.30002 0.0
C965 C 0.3086 0.91029 0.28532 0.0
C966 C 0.3324 0.85416 0.2405 0.0
C967 C 0.36882 0.86767 0.24613 0.0
N968 N 0.40807 0.92013 0.26855 0.0
N969 N 0.26883 0.8713 0.2274 0.0
C970 C 0.37483 0.90272 0.27246 0.0
C971 C 0.30256 0.8782 0.25139 0.0
N972 N 0.35135 0.94685 0.34158 0.0
N973 N 0.32609 0.81815 0.22676 0.0
H974 H 0.24674 0.88953 0.23059 0.0
H975 H 0.26423 0.84964 0.19857 0.0
H976 H 0.34721 0.79888 0.2225 0.0
H977 H 0.29981 0.80664 0.22681 0.0
H978 H 0.37766 0.95271 0.35716 0.0
H979 H 0.33038 0.95954 0.36518 0.0
H980 H 0.412 0.94708 0.28277 0.0
H981 H 0.43035 0.91006 0.24498 0.0
C982 C 0.59672 0.33915 0.82673 0.0
C983 C 0.59037 0.30681 0.79395 0.0
C984 C 0.62168 0.33348 0.7105 0.0
C985 C 0.63098 0.36486 0.74436 0.0
N986 N 0.63602 0.39225 0.83994 0.0
N987 N 0.6085 0.26853 0.71279 0.0
C988 C 0.62101 0.36624 0.80417 0.0
C989 C 0.60688 0.30232 0.73867 0.0
N990 N 0.57984 0.34391 0.8793 0.0
N991 N 0.62398 0.33407 0.65113 0.0
H992 H 0.59752 0.24485 0.7316 0.0
H993 H 0.62341 0.26373 0.67476 0.0
H994 H 0.63069 0.35747 0.62729 0.0
H995 H 0.61454 0.31253 0.62517 0.0
H996 H 0.58053 0.36865 0.90217 0.0
H997 H 0.56307 0.32389 0.89814 0.0
H998 H 0.63201 0.39258 0.88481 0.0
H999 H 0.65587 0.41095 0.82584 0.0
C1000 C 0.67009 0.42197 0.24433 0.0
C1001 C 0.68686 0.41233 0.19041 0.0
C1002 C 0.64359 0.36025 0.18213 0.0
C1003 C 0.63194 0.36692 0.23989 0.0
N1004 N 0.64024 0.39903 0.33052 0.0
N1005 N 0.6882 0.37242 0.10605 0.0
C1006 C 0.64715 0.39611 0.27229 0.0
C1007 C 0.67325 0.38134 0.15875 0.0
N1008 N 0.67428 0.45604 0.26856 0.0
N1009 N 0.62593 0.33422 0.14956 0.0
H1010 H 0.70669 0.38934 0.08412 0.0
H1011 H 0.68299 0.34776 0.08457 0.0
H1012 H 0.60524 0.31747 0.16656 0.0
H1013 H 0.63017 0.33059 0.10515 0.0
H1014 H 0.6587 0.46481 0.30402 0.0
H1015 H 0.69022 0.47709 0.25162 0.0
H1016 H 0.65418 0.41737 0.35727 0.0
H1017 H 0.62323 0.38109 0.35337 0.0
C1018 C 0.08292 0.683 0.77639 0.0
C1019 C 0.0877 0.6922 0.71683 0.0
C1020 C 0.13969 0.64973 0.7107 0.0
C1021 C 0.13108 0.6362 0.76663 0.0
N1022 N 0.09336 0.63851 0.85303 0.0
N1023 N 0.11737 0.68058 0.62456 0.0
C1024 C 0.10237 0.65247 0.79971 0.0
C1025 C 0.11525 0.67457 0.68315 0.0
N1026 N 0.06129 0.70446 0.81131 0.0
N1027 N 0.17223 0.64034 0.68527 0.0
H1028 H 0.09932 0.69795 0.60235 0.0
H1029 H 0.13473 0.66561 0.59729 0.0
H1030 H 0.19165 0.62437 0.70699 0.0
H1031 H 0.18169 0.65207 0.64672 0.0
H1032 H 0.05982 0.70144 0.8563 0.0
H1033 H 0.04751 0.72768 0.79615 0.0
H1034 H 0.07002 0.64647 0.87615 0.0
H1035 H 0.10805 0.61728 0.87279 0.0
C1036 C 0.8072 0.09216 0.27356 0.0
C1037 C 0.80508 0.0897 0.21219 0.0
C1038 C 0.85621 0.13287 0.20224 0.0
C1039 C 0.86145 0.13134 0.2633 0.0
N1040 N 0.84541 0.10514 0.35688 0.0
N1041 N 0.82876 0.1046 0.11711 0.0
C1042 C 0.83775 0.11003 0.29911 0.0
C1043 C 0.82981 0.10934 0.1761 0.0
N1044 N 0.77951 0.07828 0.30739 0.0
N1045 N 0.87579 0.1575 0.16967 0.0
H1046 H 0.80952 0.08773 0.09654 0.0
H1047 H 0.84859 0.11509 0.08895 0.0
H1048 H 0.89491 0.17557 0.18784 0.0
H1049 H 0.87074 0.16243 0.12577 0.0
H1050 H 0.77767 0.08279 0.35206 0.0
H1051 H 0.7564 0.0652 0.29018 0.0
H1052 H 0.83159 0.08626 0.38301 0.0
H1053 H 0.86767 0.11731 0.37792 0.0
C1054 C 0.35823 0.85003 0.69373 0.0
C1055 C 0.36894 0.8655 0.74758 0.0
C1056 C 0.42442 0.82693 0.7498 0.0
C1057 C 0.41298 0.80992 0.69693 0.0
N1058 N 0.37439 0.81122 0.61154 0.0
N1059 N 0.40871 0.86635 0.83122 0.0
C1060 C 0.38116 0.82299 0.66706 0.0
C1061 C 0.40121 0.85346 0.77655 0.0
N1062 N 0.32558 0.86056 0.66916 0.0
N1063 N 0.45773 0.81846 0.77415 0.0
H1064 H 0.39203 0.88521 0.85286 0.0
H1065 H 0.42995 0.85684 0.85745 0.0
H1066 H 0.47479 0.79747 0.75975 0.0
H1067 H 0.47002 0.83369 0.80715 0.0
H1068 H 0.3139 0.84798 0.63296 0.0
H1069 H 0.30859 0.88057 0.68762 0.0
H1070 H 0.35359 0.82157 0.58512 0.0
H1071 H 0.39188 0.79328 0.58934 0.0
C1072 C 0.86121 0.36673 0.70122 0.0
C1073 C 0.86703 0.3697 0.76204 0.0
C1074 C 0.81222 0.40858 0.77131 0.0
C1075 C 0.80884 0.40888 0.70984 0.0
N1076 N 0.83209 0.39221 0.6152 0.0
N1077 N 0.85156 0.39764 0.85439 0.0
C1078 C 0.8338 0.38891 0.6744 0.0
C1079 C 0.84339 0.39163 0.79707 0.0
N1080 N 0.88119 0.34191 0.66952 0.0
N1081 N 0.78502 0.42344 0.80519 0.0
H1082 H 0.874 0.38572 0.87543 0.0
H1083 H 0.83794 0.41696 0.88003 0.0
H1084 H 0.7616 0.43603 0.78806 0.0
H1085 H 0.78398 0.42048 0.85022 0.0
H1086 H 0.87578 0.33575 0.62612 0.0
H1087 H 0.9012 0.32494 0.68805 0.0
H1088 H 0.85191 0.38151 0.58718 0.0
H1089 H 0.81236 0.40826 0.59411 0.0
C1090 C 0.14661 0.82908 0.25345 0.0
C1091 C 0.14071 0.86493 0.23081 0.0
C1092 C 0.09178 0.84106 0.16768 0.0
C1093 C 0.09368 0.80703 0.19757 0.0
N1094 N 0.12113 0.76867 0.2715 0.0
N1095 N 0.12308 0.89795 0.1443 0.0
C1096 C 0.1208 0.80093 0.24091 0.0
C1097 C 0.11762 0.8691 0.18136 0.0
N1098 N 0.17867 0.82103 0.28182 0.0
N1099 N 0.06493 0.84682 0.12703 0.0
H1100 H 0.14561 0.91553 0.1484 0.0
H1101 H 0.10905 0.90123 0.10515 0.0
H1102 H 0.04599 0.82663 0.11511 0.0
H1103 H 0.05962 0.87239 0.10842 0.0
H1104 H 0.18574 0.79465 0.29552 0.0
H1105 H 0.20068 0.83938 0.28331 0.0
H1106 H 0.13749 0.76445 0.30812 0.0
H1107 H 0.10274 0.74723 0.26348 0.0
C1108 C 0.65464 0.08029 0.70906 0.0
C1109 C 0.69131 0.09173 0.72009 0.0
C1110 C 0.66751 0.14562 0.77269 0.0
C1111 C 0.63109 0.13197 0.76685 0.0
N1112 N 0.59253 0.07926 0.74579 0.0
N1113 N 0.73202 0.12939 0.77794 0.0
C1114 C 0.62534 0.09723 0.73978 0.0
C1115 C 0.69765 0.12277 0.75637 0.0
N1116 N 0.64737 0.05415 0.66794 0.0
N1117 N 0.67352 0.18069 0.7917 0.0
H1118 H 0.75416 0.1117 0.77058 0.0
H1119 H 0.7374 0.14984 0.80857 0.0
H1120 H 0.65226 0.19882 0.80202 0.0
H1121 H 0.6995 0.19285 0.79143 0.0
H1122 H 0.6207 0.04773 0.65461 0.0
H1123 H 0.66773 0.04175 0.64276 0.0
H1124 H 0.58839 0.05245 0.7311 0.0
H1125 H 0.57112 0.08904 0.7717 0.0
C1126 C 0.43082 0.66465 0.2426 0.0
C1127 C 0.41382 0.68621 0.1981 0.0
C1128 C 0.3573 0.64926 0.20686 0.0
C1129 C 0.37417 0.62825 0.25126 0.0
N1130 N 0.42375 0.6193 0.31917 0.0
N1131 N 0.36543 0.6915 0.12649 0.0
C1132 C 0.41025 0.63655 0.27068 0.0
C1133 C 0.37816 0.67658 0.17731 0.0
N1134 N 0.46673 0.67044 0.25797 0.0
N1135 N 0.32097 0.64379 0.1941 0.0
H1136 H 0.38101 0.70937 0.10098 0.0
H1137 H 0.34136 0.68304 0.10591 0.0
H1138 H 0.30514 0.62376 0.21465 0.0
H1139 H 0.30573 0.66092 0.16694 0.0
H1140 H 0.48227 0.65191 0.28221 0.0
H1141 H 0.48224 0.69285 0.24489 0.0
H1142 H 0.44807 0.62648 0.34011 0.0
H1143 H 0.40901 0.5995 0.34217 0.0
C1144 C 0.37201 0.61643 0.81402 0.0
C1145 C 0.36674 0.6395 0.76482 0.0
C1146 C 0.30238 0.62003 0.75886 0.0
C1147 C 0.30916 0.59318 0.80228 0.0
N1148 N 0.35088 0.56385 0.86952 0.0
N1149 N 0.32171 0.67767 0.71668 0.0
C1150 C 0.34408 0.59089 0.82963 0.0
C1151 C 0.33034 0.64565 0.7446 0.0
N1152 N 0.40186 0.62166 0.84921 0.0
N1153 N 0.2698 0.61993 0.72915 0.0
H1154 H 0.34015 0.69958 0.71397 0.0
H1155 H 0.29497 0.68482 0.70477 0.0
H1156 H 0.24897 0.60094 0.7375 0.0
H1157 H 0.26495 0.6362 0.69263 0.0
H1158 H 0.40593 0.60766 0.88819 0.0
H1159 H 0.41956 0.64401 0.84409 0.0
H1160 H 0.37699 0.55828 0.88605 0.0
H1161 H 0.33099 0.54494 0.88261 0.0
C1162 C 0.85463 0.32655 0.23987 0.0
C1163 C 0.85899 0.36307 0.2608 0.0
C1164 C 0.90424 0.34105 0.33252 0.0
C1165 C 0.90426 0.30618 0.30497 0.0
N1166 N 0.88102 0.26569 0.23017 0.0
N1167 N 0.87161 0.3984 0.34728 0.0
C1168 C 0.87969 0.29884 0.25826 0.0
C1169 C 0.87928 0.36861 0.31305 0.0
N1170 N 0.82436 0.31735 0.20776 0.0
N1171 N 0.92821 0.34794 0.37702 0.0
H1172 H 0.84945 0.41588 0.33881 0.0
H1173 H 0.88327 0.40274 0.38807 0.0
H1174 H 0.94556 0.3279 0.39442 0.0
H1175 H 0.93268 0.3741 0.39409 0.0
H1176 H 0.81839 0.29058 0.19478 0.0
H1177 H 0.80199 0.33501 0.20269 0.0
H1178 H 0.86719 0.26051 0.19133 0.0
H1179 H 0.89844 0.24429 0.24269 0.0
C1180 C 0.1355 0.9054 0.71802 0.0
C1181 C 0.12845 0.86926 0.73839 0.0
C1182 C 0.17501 0.87731 0.8144 0.0
C1183 C 0.18593 0.91139 0.78913 0.0
N1184 N 0.17709 0.95692 0.71265 0.0
N1185 N 0.14455 0.81861 0.8007 0.0
C1186 C 0.16611 0.9254 0.74011 0.0
C1187 C 0.14921 0.85455 0.78495 0.0
N1188 N 0.11252 0.92095 0.67785 0.0
N1189 N 0.1873 0.86781 0.86858 0.0
H1190 H 0.12575 0.80126 0.78009 0.0
H1191 H 0.16156 0.80523 0.83045 0.0
H1192 H 0.20361 0.8851 0.89396 0.0
H1193 H 0.17762 0.845 0.8913 0.0
H1194 H 0.11215 0.94888 0.66792 0.0
H1195 H 0.09188 0.90632 0.65695 0.0
H1196 H 0.16561 0.96652 0.6741 0.0
H1197 H 0.19979 0.97249 0.72429 0.0
C1198 C 0.60718 0.15231 0.19693 0.0
C1199 C 0.63215 0.13219 0.2324 0.0
C1200 C 0.61359 0.16924 0.31646 0.0
C1201 C 0.59091 0.19107 0.27988 0.0
N1202 N 0.57761 0.21107 0.18204 0.0
N1203 N 0.66735 0.13004 0.32124 0.0
C1204 C 0.59111 0.18498 0.21904 0.0
C1205 C 0.63785 0.1432 0.29089 0.0
N1206 N 0.59704 0.13948 0.14352 0.0
N1207 N 0.61125 0.17241 0.37556 0.0
H1208 H 0.68675 0.11237 0.30269 0.0
H1209 H 0.6747 0.1399 0.3622 0.0
H1210 H 0.59307 0.19044 0.39613 0.0
H1211 H 0.62479 0.15459 0.40394 0.0
H1212 H 0.5765 0.15183 0.11853 0.0
H1213 H 0.60603 0.11437 0.12726 0.0
H1214 H 0.58031 0.20918 0.13697 0.0
H1215 H 0.56732 0.23625 0.19657 0.0
loop_
_geom_bond_atom_site_label_1
_geom_bond_atom_site_label_2
_geom_bond_distance
_geom_bond_site_symmetry_2
_ccdc_geom_bond_type
Sc0 O3 2.025 . S
Sc0 O10 2.105 . S
Sc0 O13 2.105 . S
Sc0 O16 2.105 . S
Sc0 O19 2.105 . S
Sc1 O3 2.025 . S
Sc1 O11 2.105 . S
Sc1 O15 2.105 . S
Sc1 O17 2.105 . S
Sc1 O21 2.105 . S
Sc2 O3 2.025 . S
Sc2 O12 2.105 . S
Sc2 O14 2.105 . S
Sc2 O18 2.105 . S
Sc2 O20 2.105 . S
O3 Sc0 2.025 . S
O3 Sc1 2.025 . S
O3 Sc2 2.025 . S
C4 O10 1.268 . S
C4 O20 1.268 . S
C5 O11 1.268 . S
C5 O19 1.268 . S
C6 O12 1.268 . S
C6 O21 1.268 . S
C7 O13 1.268 . S
C7 O17 1.268 . S
C8 O14 1.268 . S
C8 O16 1.268 . S
C9 O15 1.268 . S
C9 O18 1.268 . S
O10 Sc0 2.105 . S
O10 C4 1.268 . S
O11 Sc1 2.105 . S
O11 C5 1.268 . S
O12 Sc2 2.105 . S
O12 C6 1.268 . S
O13 Sc0 2.105 . S
O13 C7 1.268 . S
O14 Sc2 2.105 . S
O14 C8 1.268 . S
O15 Sc1 2.105 . S
O15 C9 1.268 . S
O16 Sc0 2.105 . S
O16 C8 1.268 . S
O17 Sc1 2.105 . S
O17 C7 1.268 . S
O18 Sc2 2.105 . S
O18 C9 1.268 . S
O19 Sc0 2.105 . S
O19 C5 1.268 . S
O20 Sc2 2.105 . S
O20 C4 1.268 . S
O21 Sc1 2.105 . S
O21 C6 1.268 . S
Sc22 O25 2.025 . S
Sc22 O32 2.105 . S
Sc22 O35 2.105 . S
Sc22 O38 2.105 . S
Sc22 O41 2.105 . S
Sc23 O25 2.025 . S
Sc23 O33 2.105 . S
Sc23 O37 2.105 . S
Sc23 O39 2.105 . S
Sc23 O43 2.105 1_655 S
Sc24 O25 2.025 1_455 S
Sc24 O34 2.105 . S
Sc24 O36 2.105 1_455 S
Sc24 O40 2.105 . S
Sc24 O42 2.105 . S
O25 Sc22 2.025 . S
O25 Sc23 2.025 . S
O25 Sc24 2.025 1_655 S
C26 O32 1.268 . S
C26 O42 1.268 1_655 S
C27 O33 1.268 . S
C27 O41 1.268 . S
C28 O34 1.268 . S
C28 O43 1.268 . S
C29 O35 1.268 . S
C29 O39 1.268 . S
C30 O36 1.268 . S
C30 O38 1.268 . S
C31 O37 1.268 . S
C31 O40 1.268 1_655 S
O32 Sc22 2.105 . S
O32 C26 1.268 . S
O33 Sc23 2.105 . S
O33 C27 1.268 . S
O34 Sc24 2.105 . S
O34 C28 1.268 . S
O35 Sc22 2.105 . S
O35 C29 1.268 . S
O36 Sc24 2.105 1_655 S
O36 C30 1.268 . S
O37 Sc23 2.105 . S
O37 C31 1.268 . S
O38 Sc22 2.105 . S
O38 C30 1.268 . S
O39 Sc23 2.105 . S
O39 C29 1.268 . S
O40 Sc24 2.105 . S
O40 C31 1.268 1_455 S
O41 Sc22 2.105 . S
O41 C27 1.268 . S
O42 Sc24 2.105 . S
O42 C26 1.268 1_455 S
O43 Sc23 2.105 1_455 S
O43 C28 1.268 . S
Sc44 O47 2.025 1_545 S
Sc44 O54 2.105 1_545 S
Sc44 O57 2.105 . S
Sc44 O60 2.105 . S
Sc44 O63 2.105 . S
Sc45 O47 2.025 . S
Sc45 O55 2.105 . S
Sc45 O59 2.105 . S
Sc45 O61 2.105 1_565 S
Sc45 O65 2.105 . S
Sc46 O47 2.025 . S
Sc46 O56 2.105 . S
Sc46 O58 2.105 . S
Sc46 O62 2.105 . S
Sc46 O64 2.105 . S
O47 Sc44 2.025 1_565 S
O47 Sc45 2.025 . S
O47 Sc46 2.025 . S
C48 O54 1.268 . S
C48 O64 1.268 . S
C49 O55 1.268 . S
C49 O63 1.268 1_565 S
C50 O56 1.268 . S
C50 O65 1.268 . S
C51 O57 1.268 . S
C51 O61 1.268 . S
C52 O58 1.268 . S
C52 O60 1.268 1_565 S
C53 O59 1.268 . S
C53 O62 1.268 . S
O54 Sc44 2.105 1_565 S
O54 C48 1.268 . S
O55 Sc45 2.105 . S
O55 C49 1.268 . S
O56 Sc46 2.105 . S
O56 C50 1.268 . S
O57 Sc44 2.105 . S
O57 C51 1.268 . S
O58 Sc46 2.105 . S
O58 C52 1.268 . S
O59 Sc45 2.105 . S
O59 C53 1.268 . S
O60 Sc44 2.105 . S
O60 C52 1.268 1_545 S
O61 Sc45 2.105 1_545 S
O61 C51 1.268 . S
O62 Sc46 2.105 . S
O62 C53 1.268 . S
O63 Sc44 2.105 . S
O63 C49 1.268 1_545 S
O64 Sc46 2.105 . S
O64 C48 1.268 . S
O65 Sc45 2.105 . S
O65 C50 1.268 . S
Sc66 O69 2.025 . S
Sc66 O76 2.105 . S
Sc66 O79 2.105 . S
Sc66 O82 2.105 . S
Sc66 O85 2.105 . S
Sc67 O69 2.025 . S
Sc67 O77 2.105 . S
Sc67 O81 2.105 . S
Sc67 O83 2.105 . S
Sc67 O87 2.105 . S
Sc68 O69 2.025 . S
Sc68 O78 2.105 . S
Sc68 O80 2.105 . S
Sc68 O84 2.105 . S
Sc68 O86 2.105 . S
O69 Sc66 2.025 . S
O69 Sc67 2.025 . S
O69 Sc68 2.025 . S
C70 O76 1.268 . S
C70 O86 1.268 . S
C71 O77 1.268 . S
C71 O85 1.268 . S
C72 O78 1.268 . S
C72 O87 1.268 . S
C73 O79 1.268 . S
C73 O83 1.268 . S
C74 O80 1.268 . S
C74 O82 1.268 . S
C75 O81 1.268 . S
C75 O84 1.268 . S
O76 Sc66 2.105 . S
O76 C70 1.268 . S
O77 Sc67 2.105 . S
O77 C71 1.268 . S
O78 Sc68 2.105 . S
O78 C72 1.268 . S
O79 Sc66 2.105 . S
O79 C73 1.268 . S
O80 Sc68 2.105 . S
O80 C74 1.268 . S
O81 Sc67 2.105 . S
O81 C75 1.268 . S
O82 Sc66 2.105 . S
O82 C74 1.268 . S
O83 Sc67 2.105 . S
O83 C73 1.268 . S
O84 Sc68 2.105 . S
O84 C75 1.268 . S
O85 Sc66 2.105 . S
O85 C71 1.268 . S
O86 Sc68 2.105 . S
O86 C70 1.268 . S
O87 Sc67 2.105 . S
O87 C72 1.268 . S
Sc88 O91 2.025 . S
Sc88 O98 2.105 . S
Sc88 O101 2.105 . S
Sc88 O104 2.105 . S
Sc88 O107 2.105 . S
Sc89 O91 2.025 . S
Sc89 O99 2.105 . S
Sc89 O103 2.105 . S
Sc89 O105 2.105 . S
Sc89 O109 2.105 . S
Sc90 O91 2.025 . S
Sc90 O100 2.105 . S
Sc90 O102 2.105 . S
Sc90 O106 2.105 . S
Sc90 O108 2.105 . S
O91 Sc88 2.025 . S
O91 Sc89 2.025 . S
O91 Sc90 2.025 . S
C92 O98 1.268 . S
C92 O108 1.268 . S
C93 O99 1.268 . S
C93 O107 1.268 . S
C94 O100 1.268 . S
C94 O109 1.268 . S
C95 O101 1.268 . S
C95 O105 1.268 . S
C96 O102 1.268 . S
C96 O104 1.268 . S
C97 O103 1.268 . S
C97 O106 1.268 . S
O98 Sc88 2.105 . S
O98 C92 1.268 . S
O99 Sc89 2.105 . S
O99 C93 1.268 . S
O100 Sc90 2.105 . S
O100 C94 1.268 . S
O101 Sc88 2.105 . S
O101 C95 1.268 . S
O102 Sc90 2.105 . S
O102 C96 1.268 . S
O103 Sc89 2.105 . S
O103 C97 1.268 . S
O104 Sc88 2.105 . S
O104 C96 1.268 . S
O105 Sc89 2.105 . S
O105 C95 1.268 . S
O106 Sc90 2.105 . S
O106 C97 1.268 . S
O107 Sc88 2.105 . S
O107 C93 1.268 . S
O108 Sc90 2.105 . S
O108 C92 1.268 . S
O109 Sc89 2.105 . S
O109 C94 1.268 . S
Sc110 O113 2.025 1_655 S
Sc110 O120 2.105 1_655 S
Sc110 O123 2.105 . S
Sc110 O126 2.105 . S
Sc110 O129 2.105 . S
Sc111 O113 2.025 . S
Sc111 O121 2.105 . S
Sc111 O125 2.105 . S
Sc111 O127 2.105 1_455 S
Sc111 O131 2.105 . S
Sc112 O113 2.025 . S
Sc112 O122 2.105 . S
Sc112 O124 2.105 . S
Sc112 O128 2.105 . S
Sc112 O130 2.105 . S
O113 Sc110 2.025 1_455 S
O113 Sc111 2.025 . S
O113 Sc112 2.025 . S
C114 O120 1.268 . S
C114 O130 1.268 . S
C115 O121 1.268 . S
C115 O129 1.268 1_455 S
C116 O122 1.268 . S
C116 O131 1.268 . S
C117 O123 1.268 . S
C117 O127 1.268 . S
C118 O124 1.268 . S
C118 O126 1.268 1_455 S
C119 O125 1.268 . S
C119 O128 1.268 . S
O120 Sc110 2.105 1_455 S
O120 C114 1.268 . S
O121 Sc111 2.105 . S
O121 C115 1.268 . S
O122 Sc112 2.105 . S
O122 C116 1.268 . S
O123 Sc110 2.105 . S
O123 C117 1.268 . S
O124 Sc112 2.105 . S
O124 C118 1.268 . S
O125 Sc111 2.105 . S
O125 C119 1.268 . S
O126 Sc110 2.105 . S
O126 C118 1.268 1_655 S
O127 Sc111 2.105 1_655 S
O127 C117 1.268 . S
O128 Sc112 2.105 . S
O128 C119 1.268 . S
O129 Sc110 2.105 . S
O129 C115 1.268 1_655 S
O130 Sc112 2.105 . S
O130 C114 1.268 . S
O131 Sc111 2.105 . S
O131 C116 1.268 . S
Sc132 O135 2.025 1_565 S
Sc132 O142 2.105 1_565 S
Sc132 O145 2.105 . S
Sc132 O148 2.105 . S
Sc132 O151 2.105 . S
Sc133 O135 2.025 . S
Sc133 O143 2.105 . S
Sc133 O147 2.105 . S
Sc133 O149 2.105 1_545 S
Sc133 O153 2.105 . S
Sc134 O135 2.025 . S
Sc134 O144 2.105 . S
Sc134 O146 2.105 . S
Sc134 O150 2.105 . S
Sc134 O152 2.105 . S
O135 Sc132 2.025 1_545 S
O135 Sc133 2.025 . S
O135 Sc134 2.025 . S
C136 O142 1.268 . S
C136 O152 1.268 . S
C137 O143 1.268 . S
C137 O151 1.268 1_545 S
C138 O144 1.268 . S
C138 O153 1.268 . S
C139 O145 1.268 . S
C139 O149 1.268 . S
C140 O146 1.268 . S
C140 O148 1.268 1_545 S
C141 O147 1.268 . S
C141 O150 1.268 . S
O142 Sc132 2.105 1_545 S
O142 C136 1.268 . S
O143 Sc133 2.105 . S
O143 C137 1.268 . S
O144 Sc134 2.105 . S
O144 C138 1.268 . S
O145 Sc132 2.105 . S
O145 C139 1.268 . S
O146 Sc134 2.105 . S
O146 C140 1.268 . S
O147 Sc133 2.105 . S
O147 C141 1.268 . S
O148 Sc132 2.105 . S
O148 C140 1.268 1_565 S
O149 Sc133 2.105 1_565 S
O149 C139 1.268 . S
O150 Sc134 2.105 . S
O150 C141 1.268 . S
O151 Sc132 2.105 . S
O151 C137 1.268 1_565 S
O152 Sc134 2.105 . S
O152 C136 1.268 . S
O153 Sc133 2.105 . S
O153 C138 1.268 . S
Sc154 O157 2.025 . S
Sc154 O164 2.105 . S
Sc154 O167 2.105 . S
Sc154 O170 2.105 . S
Sc154 O173 2.105 . S
Sc155 O157 2.025 . S
Sc155 O165 2.105 . S
Sc155 O169 2.105 . S
Sc155 O171 2.105 . S
Sc155 O175 2.105 . S
Sc156 O157 2.025 . S
Sc156 O166 2.105 . S
Sc156 O168 2.105 . S
Sc156 O172 2.105 . S
Sc156 O174 2.105 . S
O157 Sc154 2.025 . S
O157 Sc155 2.025 . S
O157 Sc156 2.025 . S
C158 O164 1.268 . S
C158 O174 1.268 . S
C159 O165 1.268 . S
C159 O173 1.268 . S
C160 O166 1.268 . S
C160 O175 1.268 . S
C161 O167 1.268 . S
C161 O171 1.268 . S
C162 O168 1.268 . S
C162 O170 1.268 . S
C163 O169 1.268 . S
C163 O172 1.268 . S
O164 Sc154 2.105 . S
O164 C158 1.268 . S
O165 Sc155 2.105 . S
O165 C159 1.268 . S
O166 Sc156 2.105 . S
O166 C160 1.268 . S
O167 Sc154 2.105 . S
O167 C161 1.268 . S
O168 Sc156 2.105 . S
O168 C162 1.268 . S
O169 Sc155 2.105 . S
O169 C163 1.268 . S
O170 Sc154 2.105 . S
O170 C162 1.268 . S
O171 Sc155 2.105 . S
O171 C161 1.268 . S
O172 Sc156 2.105 . S
O172 C163 1.268 . S
O173 Sc154 2.105 . S
O173 C159 1.268 . S
O174 Sc156 2.105 . S
O174 C158 1.268 . S
O175 Sc155 2.105 . S
O175 C160 1.268 . S
Sc176 O179 2.025 . S
Sc176 O186 2.105 . S
Sc176 O189 2.105 . S
Sc176 O192 2.105 . S
Sc176 O195 2.105 . S
Sc177 O179 2.025 . S
Sc177 O187 2.105 . S
Sc177 O191 2.105 . S
Sc177 O193 2.105 . S
Sc177 O197 2.105 . S
Sc178 O179 2.025 . S
Sc178 O188 2.105 . S
Sc178 O190 2.105 . S
Sc178 O194 2.105 . S
Sc178 O196 2.105 . S
O179 Sc176 2.025 . S
O179 Sc177 2.025 . S
O179 Sc178 2.025 . S
C180 O186 1.268 . S
C180 O196 1.268 . S
C181 O187 1.268 . S
C181 O195 1.268 . S
C182 O188 1.268 . S
C182 O197 1.268 . S
C183 O189 1.268 . S
C183 O193 1.268 . S
C184 O190 1.268 . S
C184 O192 1.268 . S
C185 O191 1.268 . S
C185 O194 1.268 . S
O186 Sc176 2.105 . S
O186 C180 1.268 . S
O187 Sc177 2.105 . S
O187 C181 1.268 . S
O188 Sc178 2.105 . S
O188 C182 1.268 . S
O189 Sc176 2.105 . S
O189 C183 1.268 . S
O190 Sc178 2.105 . S
O190 C184 1.268 . S
O191 Sc177 2.105 . S
O191 C185 1.268 . S
O192 Sc176 2.105 . S
O192 C184 1.268 . S
O193 Sc177 2.105 . S
O193 C183 1.268 . S
O194 Sc178 2.105 . S
O194 C185 1.268 . S
O195 Sc176 2.105 . S
O195 C181 1.268 . S
O196 Sc178 2.105 . S
O196 C180 1.268 . S
O197 Sc177 2.105 . S
O197 C182 1.268 . S
Sc198 O201 2.025 1_655 S
Sc198 O208 2.105 . S
Sc198 O211 2.105 . S
Sc198 O214 2.105 1_655 S
Sc198 O217 2.105 . S
Sc199 O201 2.025 . S
Sc199 O209 2.105 1_455 S
Sc199 O213 2.105 . S
Sc199 O215 2.105 . S
Sc199 O219 2.105 . S
Sc200 O201 2.025 . S
Sc200 O210 2.105 . S
Sc200 O212 2.105 . S
Sc200 O216 2.105 . S
Sc200 O218 2.105 . S
O201 Sc198 2.025 1_455 S
O201 Sc199 2.025 . S
O201 Sc200 2.025 . S
C202 O208 1.268 1_455 S
C202 O218 1.268 . S
C203 O209 1.268 . S
C203 O217 1.268 . S
C204 O210 1.268 . S
C204 O219 1.268 . S
C205 O211 1.268 1_455 S
C205 O215 1.268 . S
C206 O212 1.268 . S
C206 O214 1.268 . S
C207 O213 1.268 . S
C207 O216 1.268 . S
O208 Sc198 2.105 . S
O208 C202 1.268 1_655 S
O209 Sc199 2.105 1_655 S
O209 C203 1.268 . S
O210 Sc200 2.105 . S
O210 C204 1.268 . S
O211 Sc198 2.105 . S
O211 C205 1.268 1_655 S
O212 Sc200 2.105 . S
O212 C206 1.268 . S
O213 Sc199 2.105 . S
O213 C207 1.268 . S
O214 Sc198 2.105 1_455 S
O214 C206 1.268 . S
O215 Sc199 2.105 . S
O215 C205 1.268 . S
O216 Sc200 2.105 . S
O216 C207 1.268 . S
O217 Sc198 2.105 . S
O217 C203 1.268 . S
O218 Sc200 2.105 . S
O218 C202 1.268 . S
O219 Sc199 2.105 . S
O219 C204 1.268 . S
Sc220 O223 2.025 . S
Sc220 O230 2.105 . S
Sc220 O233 2.105 . S
Sc220 O236 2.105 . S
Sc220 O239 2.105 . S
Sc221 O223 2.025 . S
Sc221 O231 2.105 . S
Sc221 O235 2.105 1_545 S
Sc221 O237 2.105 . S
Sc221 O241 2.105 . S
Sc222 O223 2.025 1_565 S
Sc222 O232 2.105 . S
Sc222 O234 2.105 . S
Sc222 O238 2.105 . S
Sc222 O240 2.105 1_565 S
O223 Sc220 2.025 . S
O223 Sc221 2.025 . S
O223 Sc222 2.025 1_545 S
C224 O230 1.268 . S
C224 O240 1.268 . S
C225 O231 1.268 . S
C225 O239 1.268 . S
C226 O232 1.268 1_545 S
C226 O241 1.268 . S
C227 O233 1.268 . S
C227 O237 1.268 . S
C228 O234 1.268 1_545 S
C228 O236 1.268 . S
C229 O235 1.268 . S
C229 O238 1.268 . S
O230 Sc220 2.105 . S
O230 C224 1.268 . S
O231 Sc221 2.105 . S
O231 C225 1.268 . S
O232 Sc222 2.105 . S
O232 C226 1.268 1_565 S
O233 Sc220 2.105 . S
O233 C227 1.268 . S
O234 Sc222 2.105 . S
O234 C228 1.268 1_565 S
O235 Sc221 2.105 1_565 S
O235 C229 1.268 . S
O236 Sc220 2.105 . S
O236 C228 1.268 . S
O237 Sc221 2.105 . S
O237 C227 1.268 . S
O238 Sc222 2.105 . S
O238 C229 1.268 . S
O239 Sc220 2.105 . S
O239 C225 1.268 . S
O240 Sc222 2.105 1_545 S
O240 C224 1.268 . S
O241 Sc221 2.105 . S
O241 C226 1.268 . S
Sc242 O245 2.025 . S
Sc242 O252 2.105 . S
Sc242 O255 2.105 . S
Sc242 O258 2.105 . S
Sc242 O261 2.105 . S
Sc243 O245 2.025 . S
Sc243 O253 2.105 . S
Sc243 O257 2.105 . S
Sc243 O259 2.105 . S
Sc243 O263 2.105 . S
Sc244 O245 2.025 . S
Sc244 O254 2.105 . S
Sc244 O256 2.105 . S
Sc244 O260 2.105 . S
Sc244 O262 2.105 . S
O245 Sc242 2.025 . S
O245 Sc243 2.025 . S
O245 Sc244 2.025 . S
C246 O252 1.268 . S
C246 O262 1.268 . S
C247 O253 1.268 . S
C247 O261 1.268 . S
C248 O254 1.268 . S
C248 O263 1.268 . S
C249 O255 1.268 . S
C249 O259 1.268 . S
C250 O256 1.268 . S
C250 O258 1.268 . S
C251 O257 1.268 . S
C251 O260 1.268 . S
O252 Sc242 2.105 . S
O252 C246 1.268 . S
O253 Sc243 2.105 . S
O253 C247 1.268 . S
O254 Sc244 2.105 . S
O254 C248 1.268 . S
O255 Sc242 2.105 . S
O255 C249 1.268 . S
O256 Sc244 2.105 . S
O256 C250 1.268 . S
O257 Sc243 2.105 . S
O257 C251 1.268 . S
O258 Sc242 2.105 . S
O258 C250 1.268 . S
O259 Sc243 2.105 . S
O259 C249 1.268 . S
O260 Sc244 2.105 . S
O260 C251 1.268 . S
O261 Sc242 2.105 . S
O261 C247 1.268 . S
O262 Sc244 2.105 . S
O262 C246 1.268 . S
O263 Sc243 2.105 . S
O263 C248 1.268 . S
Sc264 O267 2.025 . S
Sc264 O274 2.105 . S
Sc264 O277 2.105 . S
Sc264 O280 2.105 . S
Sc264 O283 2.105 . S
Sc265 O267 2.025 . S
Sc265 O275 2.105 . S
Sc265 O279 2.105 . S
Sc265 O281 2.105 . S
Sc265 O285 2.105 . S
Sc266 O267 2.025 . S
Sc266 O276 2.105 . S
Sc266 O278 2.105 . S
Sc266 O282 2.105 . S
Sc266 O284 2.105 . S
O267 Sc264 2.025 . S
O267 Sc265 2.025 . S
O267 Sc266 2.025 . S
C268 O274 1.268 . S
C268 O284 1.268 . S
C269 O275 1.268 . S
C269 O283 1.268 . S
C270 O276 1.268 . S
C270 O285 1.268 . S
C271 O277 1.268 . S
C271 O281 1.268 . S
C272 O278 1.268 . S
C272 O280 1.268 . S
C273 O279 1.268 . S
C273 O282 1.268 . S
O274 Sc264 2.105 . S
O274 C268 1.268 . S
O275 Sc265 2.105 . S
O275 C269 1.268 . S
O276 Sc266 2.105 . S
O276 C270 1.268 . S
O277 Sc264 2.105 . S
O277 C271 1.268 . S
O278 Sc266 2.105 . S
O278 C272 1.268 . S
O279 Sc265 2.105 . S
O279 C273 1.268 . S
O280 Sc264 2.105 . S
O280 C272 1.268 . S
O281 Sc265 2.105 . S
O281 C271 1.268 . S
O282 Sc266 2.105 . S
O282 C273 1.268 . S
O283 Sc264 2.105 . S
O283 C269 1.268 . S
O284 Sc266 2.105 . S
O284 C268 1.268 . S
O285 Sc265 2.105 . S
O285 C270 1.268 . S
Sc286 O289 2.025 . S
Sc286 O296 2.105 . S
Sc286 O299 2.105 . S
Sc286 O302 2.105 . S
Sc286 O305 2.105 . S
Sc287 O289 2.025 . S
Sc287 O297 2.105 . S
Sc287 O301 2.105 1_655 S
Sc287 O303 2.105 . S
Sc287 O307 2.105 . S
Sc288 O289 2.025 1_455 S
Sc288 O298 2.105 . S
Sc288 O300 2.105 . S
Sc288 O304 2.105 . S
Sc288 O306 2.105 1_455 S
O289 Sc286 2.025 . S
O289 Sc287 2.025 . S
O289 Sc288 2.025 1_655 S
C290 O296 1.268 . S
C290 O306 1.268 . S
C291 O297 1.268 . S
C291 O305 1.268 . S
C292 O298 1.268 1_655 S
C292 O307 1.268 . S
C293 O299 1.268 . S
C293 O303 1.268 . S
C294 O300 1.268 1_655 S
C294 O302 1.268 . S
C295 O301 1.268 . S
C295 O304 1.268 . S
O296 Sc286 2.105 . S
O296 C290 1.268 . S
O297 Sc287 2.105 . S
O297 C291 1.268 . S
O298 Sc288 2.105 . S
O298 C292 1.268 1_455 S
O299 Sc286 2.105 . S
O299 C293 1.268 . S
O300 Sc288 2.105 . S
O300 C294 1.268 1_455 S
O301 Sc287 2.105 1_455 S
O301 C295 1.268 . S
O302 Sc286 2.105 . S
O302 C294 1.268 . S
O303 Sc287 2.105 . S
O303 C293 1.268 . S
O304 Sc288 2.105 . S
O304 C295 1.268 . S
O305 Sc286 2.105 . S
O305 C291 1.268 . S
O306 Sc288 2.105 1_655 S
O306 C290 1.268 . S
O307 Sc287 2.105 . S
O307 C292 1.268 . S
Sc308 O311 2.025 . S
Sc308 O318 2.105 . S
Sc308 O321 2.105 . S
Sc308 O324 2.105 . S
Sc308 O327 2.105 . S
Sc309 O311 2.025 . S
Sc309 O319 2.105 . S
Sc309 O323 2.105 1_565 S
Sc309 O325 2.105 . S
Sc309 O329 2.105 . S
Sc310 O311 2.025 1_545 S
Sc310 O320 2.105 . S
Sc310 O322 2.105 . S
Sc310 O326 2.105 . S
Sc310 O328 2.105 1_545 S
O311 Sc308 2.025 . S
O311 Sc309 2.025 . S
O311 Sc310 2.025 1_565 S
C312 O318 1.268 . S
C312 O328 1.268 . S
C313 O319 1.268 . S
C313 O327 1.268 . S
C314 O320 1.268 1_565 S
C314 O329 1.268 . S
C315 O321 1.268 . S
C315 O325 1.268 . S
C316 O322 1.268 1_565 S
C316 O324 1.268 . S
C317 O323 1.268 . S
C317 O326 1.268 . S
O318 Sc308 2.105 . S
O318 C312 1.268 . S
O319 Sc309 2.105 . S
O319 C313 1.268 . S
O320 Sc310 2.105 . S
O320 C314 1.268 1_545 S
O321 Sc308 2.105 . S
O321 C315 1.268 . S
O322 Sc310 2.105 . S
O322 C316 1.268 1_545 S
O323 Sc309 2.105 1_545 S
O323 C317 1.268 . S
O324 Sc308 2.105 . S
O324 C316 1.268 . S
O325 Sc309 2.105 . S
O325 C315 1.268 . S
O326 Sc310 2.105 . S
O326 C317 1.268 . S
O327 Sc308 2.105 . S
O327 C313 1.268 . S
O328 Sc310 2.105 1_565 S
O328 C312 1.268 . S
O329 Sc309 2.105 . S
O329 C314 1.268 . S
Sc330 O333 2.025 . S
Sc330 O340 2.105 . S
Sc330 O343 2.105 . S
Sc330 O346 2.105 . S
Sc330 O349 2.105 . S
Sc331 O333 2.025 . S
Sc331 O341 2.105 . S
Sc331 O345 2.105 . S
Sc331 O347 2.105 . S
Sc331 O351 2.105 . S
Sc332 O333 2.025 . S
Sc332 O342 2.105 . S
Sc332 O344 2.105 . S
Sc332 O348 2.105 . S
Sc332 O350 2.105 . S
O333 Sc330 2.025 . S
O333 Sc331 2.025 . S
O333 Sc332 2.025 . S
C334 O340 1.268 . S
C334 O350 1.268 . S
C335 O341 1.268 . S
C335 O349 1.268 . S
C336 O342 1.268 . S
C336 O351 1.268 . S
C337 O343 1.268 . S
C337 O347 1.268 . S
C338 O344 1.268 . S
C338 O346 1.268 . S
C339 O345 1.268 . S
C339 O348 1.268 . S
O340 Sc330 2.105 . S
O340 C334 1.268 . S
O341 Sc331 2.105 . S
O341 C335 1.268 . S
O342 Sc332 2.105 . S
O342 C336 1.268 . S
O343 Sc330 2.105 . S
O343 C337 1.268 . S
O344 Sc332 2.105 . S
O344 C338 1.268 . S
O345 Sc331 2.105 . S
O345 C339 1.268 . S
O346 Sc330 2.105 . S
O346 C338 1.268 . S
O347 Sc331 2.105 . S
O347 C337 1.268 . S
O348 Sc332 2.105 . S
O348 C339 1.268 . S
O349 Sc330 2.105 . S
O349 C335 1.268 . S
O350 Sc332 2.105 . S
O350 C334 1.268 . S
O351 Sc331 2.105 . S
O351 C336 1.268 . S
C352 C353 1.363 . S
C352 C358 1.379 . S
C352 N360 1.356 . S
C353 C352 1.363 . S
C353 C359 1.363 . S
C354 C355 1.363 . S
C354 C359 1.379 . S
C354 N361 1.356 . S
C355 C354 1.363 . S
C355 C358 1.363 . S
N356 C358 1.356 . S
N356 H368 0.984 . S
N356 H369 0.985 . S
N357 C359 1.356 . S
N357 H362 0.984 . S
N357 H363 0.985 . S
C358 C352 1.379 . S
C358 C355 1.363 . S
C358 N356 1.356 . S
C359 C353 1.363 . S
C359 C354 1.379 . S
C359 N357 1.356 . S
N360 C352 1.356 . S
N360 H366 0.984 . S
N360 H367 0.984 . S
N361 C354 1.356 . S
N361 H364 0.984 . S
N361 H365 0.985 . S
H362 N357 0.984 . S
H363 N357 0.985 . S
H364 N361 0.984 . S
H365 N361 0.985 . S
H366 N360 0.984 . S
H367 N360 0.984 . S
H368 N356 0.984 . S
H369 N356 0.985 . S
C370 C371 1.363 1_556 S
C370 C376 1.379 . S
C370 N378 1.356 . S
C371 C370 1.363 1_554 S
C371 C377 1.363 . S
C372 C373 1.363 1_554 S
C372 C377 1.379 . S
C372 N379 1.356 . S
C373 C372 1.363 1_556 S
C373 C376 1.363 . S
N374 C376 1.356 . S
N374 H386 0.984 . S
N374 H387 0.985 . S
N375 C377 1.356 . S
N375 H380 0.984 . S
N375 H381 0.985 . S
C376 C370 1.379 . S
C376 C373 1.363 . S
C376 N374 1.356 . S
C377 C371 1.363 . S
C377 C372 1.379 . S
C377 N375 1.356 . S
N378 C370 1.356 . S
N378 H384 0.984 . S
N378 H385 0.984 1_556 S
N379 C372 1.356 . S
N379 H382 0.984 1_554 S
N379 H383 0.985 . S
H380 N375 0.984 . S
H381 N375 0.985 . S
H382 N379 0.984 1_556 S
H383 N379 0.985 . S
H384 N378 0.984 . S
H385 N378 0.984 1_554 S
H386 N374 0.984 . S
H387 N374 0.985 . S
C388 C389 1.363 . S
C388 C394 1.379 . S
C388 N396 1.356 . S
C389 C388 1.363 . S
C389 C395 1.363 . S
C390 C391 1.363 . S
C390 C395 1.379 . S
C390 N397 1.356 . S
C391 C390 1.363 . S
C391 C394 1.363 . S
N392 C394 1.356 . S
N392 H404 0.984 . S
N392 H405 0.985 . S
N393 C395 1.356 . S
N393 H398 0.984 . S
N393 H399 0.985 . S
C394 C388 1.379 . S
C394 C391 1.363 . S
C394 N392 1.356 . S
C395 C389 1.363 . S
C395 C390 1.379 . S
C395 N393 1.356 . S
N396 C388 1.356 . S
N396 H402 0.984 . S
N396 H403 0.984 . S
N397 C390 1.356 . S
N397 H400 0.984 . S
N397 H401 0.985 . S
H398 N393 0.984 . S
H399 N393 0.985 . S
H400 N397 0.984 . S
H401 N397 0.985 . S
H402 N396 0.984 . S
H403 N396 0.984 . S
H404 N392 0.984 . S
H405 N392 0.985 . S
C406 C407 1.363 . S
C406 C412 1.379 1_556 S
C406 N414 1.356 . S
C407 C406 1.363 . S
C407 C413 1.363 . S
C408 C409 1.363 . S
C408 C413 1.379 1_554 S
C408 N415 1.356 . S
C409 C408 1.363 . S
C409 C412 1.363 . S
N410 C412 1.356 . S
N410 H422 0.984 . S
N410 H423 0.985 . S
N411 C413 1.356 . S
N411 H416 0.984 . S
N411 H417 0.985 . S
C412 C406 1.379 1_554 S
C412 C409 1.363 . S
C412 N410 1.356 . S
C413 C407 1.363 . S
C413 C408 1.379 1_556 S
C413 N411 1.356 . S
N414 C406 1.356 . S
N414 H420 0.984 . S
N414 H421 0.984 . S
N415 C408 1.356 . S
N415 H418 0.984 . S
N415 H419 0.985 . S
H416 N411 0.984 . S
H417 N411 0.985 . S
H418 N415 0.984 . S
H419 N415 0.985 . S
H420 N414 0.984 . S
H421 N414 0.984 . S
H422 N410 0.984 . S
H423 N410 0.985 . S
C424 C425 1.363 . S
C424 C430 1.379 . S
C424 N432 1.356 . S
C425 C424 1.363 . S
C425 C431 1.363 . S
C426 C427 1.363 . S
C426 C431 1.379 . S
C426 N433 1.356 . S
C427 C426 1.363 . S
C427 C430 1.363 . S
N428 C430 1.356 . S
N428 H440 0.984 . S
N428 H441 0.985 . S
N429 C431 1.356 . S
N429 H434 0.984 . S
N429 H435 0.985 . S
C430 C424 1.379 . S
C430 C427 1.363 . S
C430 N428 1.356 . S
C431 C425 1.363 . S
C431 C426 1.379 . S
C431 N429 1.356 . S
N432 C424 1.356 . S
N432 H438 0.984 . S
N432 H439 0.984 . S
N433 C426 1.356 . S
N433 H436 0.984 . S
N433 H437 0.985 . S
H434 N429 0.984 . S
H435 N429 0.985 . S
H436 N433 0.984 . S
H437 N433 0.985 . S
H438 N432 0.984 . S
H439 N432 0.984 . S
H440 N428 0.984 . S
H441 N428 0.985 . S
C442 C443 1.363 . S
C442 C448 1.379 1_556 S
C442 N450 1.356 . S
C443 C442 1.363 . S
C443 C449 1.363 . S
C444 C445 1.363 . S
C444 C449 1.379 1_554 S
C444 N451 1.356 . S
C445 C444 1.363 . S
C445 C448 1.363 . S
N446 C448 1.356 . S
N446 H458 0.984 1_455 S
N446 H459 0.985 . S
N447 C449 1.356 . S
N447 H452 0.984 . S
N447 H453 0.985 . S
C448 C442 1.379 1_554 S
C448 C445 1.363 . S
C448 N446 1.356 . S
C449 C443 1.363 . S
C449 C444 1.379 1_556 S
C449 N447 1.356 . S
N450 C442 1.356 . S
N450 H456 0.984 . S
N450 H457 0.984 . S
N451 C444 1.356 . S
N451 H454 0.984 . S
N451 H455 0.985 . S
H452 N447 0.984 . S
H453 N447 0.985 . S
H454 N451 0.984 . S
H455 N451 0.985 . S
H456 N450 0.984 . S
H457 N450 0.984 . S
H458 N446 0.984 1_655 S
H459 N446 0.985 . S
C460 C461 1.363 . S
C460 C466 1.379 . S
C460 N468 1.356 . S
C461 C460 1.363 . S
C461 C467 1.363 . S
C462 C463 1.363 . S
C462 C467 1.379 . S
C462 N469 1.356 . S
C463 C462 1.363 . S
C463 C466 1.363 . S
N464 C466 1.356 . S
N464 H476 0.984 . S
N464 H477 0.985 . S
N465 C467 1.356 . S
N465 H470 0.984 . S
N465 H471 0.985 1_655 S
C466 C460 1.379 . S
C466 C463 1.363 . S
C466 N464 1.356 . S
C467 C461 1.363 . S
C467 C462 1.379 . S
C467 N465 1.356 . S
N468 C460 1.356 . S
N468 H474 0.984 . S
N468 H475 0.984 . S
N469 C462 1.356 . S
N469 H472 0.984 . S
N469 H473 0.985 . S
H470 N465 0.984 . S
H471 N465 0.985 1_455 S
H472 N469 0.984 . S
H473 N469 0.985 . S
H474 N468 0.984 . S
H475 N468 0.984 . S
H476 N464 0.984 . S
H477 N464 0.985 . S
C478 C479 1.371 . S
C478 C484 1.371 1_556 S
C478 N486 1.359 . S
C479 C478 1.371 . S
C479 C485 1.363 . S
C480 C481 1.371 . S
C480 C485 1.371 1_554 S
C480 N487 1.359 . S
C481 C480 1.371 . S
C481 C484 1.363 . S
N482 C484 1.356 . S
N482 H494 0.984 . S
N482 H495 0.985 . S
N483 C485 1.356 . S
N483 H488 0.984 . S
N483 H489 0.985 . S
C484 C478 1.371 1_554 S
C484 C481 1.363 . S
C484 N482 1.356 . S
C485 C479 1.363 . S
C485 C480 1.371 1_556 S
C485 N483 1.356 . S
N486 C478 1.359 . S
N486 H492 0.984 1_566 S
N486 H493 0.984 . S
N487 C480 1.359 . S
N487 H490 0.984 . S
N487 H491 0.985 1_554 S
H488 N483 0.984 . S
H489 N483 0.985 . S
H490 N487 0.984 . S
H491 N487 0.985 1_556 S
H492 N486 0.984 1_544 S
H493 N486 0.984 . S
H494 N482 0.984 . S
H495 N482 0.985 . S
C496 C497 1.363 . S
C496 C502 1.379 . S
C496 N504 1.356 . S
C497 C496 1.363 . S
C497 C503 1.363 . S
C498 C499 1.363 . S
C498 C503 1.379 . S
C498 N505 1.356 . S
C499 C498 1.363 . S
C499 C502 1.363 . S
N500 C502 1.356 . S
N500 H512 0.984 . S
N500 H513 0.985 . S
N501 C503 1.356 . S
N501 H506 0.984 . S
N501 H507 0.985 . S
C502 C496 1.379 . S
C502 C499 1.363 . S
C502 N500 1.356 . S
C503 C497 1.363 . S
C503 C498 1.379 . S
C503 N501 1.356 . S
N504 C496 1.356 . S
N504 H510 0.984 . S
N504 H511 0.984 . S
N505 C498 1.356 . S
N505 H508 0.984 . S
N505 H509 0.985 . S
H506 N501 0.984 . S
H507 N501 0.985 . S
H508 N505 0.984 . S
H509 N505 0.985 . S
H510 N504 0.984 . S
H511 N504 0.984 . S
H512 N500 0.984 . S
H513 N500 0.985 . S
C514 C515 1.363 . S
C514 C520 1.379 . S
C514 N522 1.356 . S
C515 C514 1.363 . S
C515 C521 1.363 . S
C516 C517 1.363 . S
C516 C521 1.379 . S
C516 N523 1.356 . S
C517 C516 1.363 . S
C517 C520 1.363 . S
N518 C520 1.356 . S
N518 H530 0.984 . S
N518 H531 0.985 . S
N519 C521 1.356 . S
N519 H524 0.984 . S
N519 H525 0.985 . S
C520 C514 1.379 . S
C520 C517 1.363 . S
C520 N518 1.356 . S
C521 C515 1.363 . S
C521 C516 1.379 . S
C521 N519 1.356 . S
N522 C514 1.356 . S
N522 H528 0.984 . S
N522 H529 0.984 . S
N523 C516 1.356 . S
N523 H526 0.984 . S
N523 H527 0.985 . S
H524 N519 0.984 . S
H525 N519 0.985 . S
H526 N523 0.984 . S
H527 N523 0.985 . S
H528 N522 0.984 . S
H529 N522 0.984 . S
H530 N518 0.984 . S
H531 N518 0.985 . S
C532 C533 1.363 . S
C532 C538 1.379 . S
C532 N540 1.356 . S
C533 C532 1.363 . S
C533 C539 1.363 . S
C534 C535 1.363 . S
C534 C539 1.379 . S
C534 N541 1.356 . S
C535 C534 1.363 . S
C535 C538 1.363 . S
N536 C538 1.356 . S
N536 H548 0.984 . S
N536 H549 0.985 . S
N537 C539 1.356 . S
N537 H542 0.984 . S
N537 H543 0.985 . S
C538 C532 1.379 . S
C538 C535 1.363 . S
C538 N536 1.356 . S
C539 C533 1.363 . S
C539 C534 1.379 . S
C539 N537 1.356 . S
N540 C532 1.356 . S
N540 H546 0.984 . S
N540 H547 0.984 . S
N541 C534 1.356 . S
N541 H544 0.984 . S
N541 H545 0.985 . S
H542 N537 0.984 . S
H543 N537 0.985 . S
H544 N541 0.984 . S
H545 N541 0.985 . S
H546 N540 0.984 . S
H547 N540 0.984 . S
H548 N536 0.984 . S
H549 N536 0.985 . S
C550 C551 1.363 . S
C550 C556 1.379 . S
C550 N558 1.356 . S
C551 C550 1.363 . S
C551 C557 1.363 . S
C552 C553 1.363 . S
C552 C557 1.379 . S
C552 N559 1.356 . S
C553 C552 1.363 . S
C553 C556 1.363 . S
N554 C556 1.356 . S
N554 H566 0.984 . S
N554 H567 0.985 . S
N555 C557 1.356 . S
N555 H560 0.984 . S
N555 H561 0.985 . S
C556 C550 1.379 . S
C556 C553 1.363 . S
C556 N554 1.356 . S
C557 C551 1.363 . S
C557 C552 1.379 . S
C557 N555 1.356 . S
N558 C550 1.356 . S
N558 H564 0.984 . S
N558 H565 0.984 . S
N559 C552 1.356 . S
N559 H562 0.984 . S
N559 H563 0.985 . S
H560 N555 0.984 . S
H561 N555 0.985 . S
H562 N559 0.984 . S
H563 N559 0.985 . S
H564 N558 0.984 . S
H565 N558 0.984 . S
H566 N554 0.984 . S
H567 N554 0.985 . S
C568 C569 1.363 . S
C568 C574 1.379 . S
C568 N576 1.356 . S
C569 C568 1.363 . S
C569 C575 1.363 . S
C570 C571 1.363 . S
C570 C575 1.379 . S
C570 N577 1.356 . S
C571 C570 1.363 . S
C571 C574 1.363 . S
N572 C574 1.356 . S
N572 H584 0.984 . S
N572 H585 0.985 . S
N573 C575 1.356 . S
N573 H578 0.984 . S
N573 H579 0.985 . S
C574 C568 1.379 . S
C574 C571 1.363 . S
C574 N572 1.356 . S
C575 C569 1.363 . S
C575 C570 1.379 . S
C575 N573 1.356 . S
N576 C568 1.356 . S
N576 H582 0.984 . S
N576 H583 0.984 . S
N577 C570 1.356 . S
N577 H580 0.984 . S
N577 H581 0.985 . S
H578 N573 0.984 . S
H579 N573 0.985 . S
H580 N577 0.984 . S
H581 N577 0.985 . S
H582 N576 0.984 . S
H583 N576 0.984 . S
H584 N572 0.984 . S
H585 N572 0.985 . S
C586 C587 1.363 . S
C586 C592 1.379 . S
C586 N594 1.356 . S
C587 C586 1.363 . S
C587 C593 1.363 . S
C588 C589 1.363 . S
C588 C593 1.379 . S
C588 N595 1.356 . S
C589 C588 1.363 . S
C589 C592 1.363 . S
N590 C592 1.356 . S
N590 H602 0.984 . S
N590 H603 0.985 . S
N591 C593 1.356 . S
N591 H596 0.984 . S
N591 H597 0.985 . S
C592 C586 1.379 . S
C592 C589 1.363 . S
C592 N590 1.356 . S
C593 C587 1.363 . S
C593 C588 1.379 . S
C593 N591 1.356 . S
N594 C586 1.356 . S
N594 H600 0.984 . S
N594 H601 0.984 . S
N595 C588 1.356 . S
N595 H598 0.984 . S
N595 H599 0.985 . S
H596 N591 0.984 . S
H597 N591 0.985 . S
H598 N595 0.984 . S
H599 N595 0.985 . S
H600 N594 0.984 . S
H601 N594 0.984 . S
H602 N590 0.984 . S
H603 N590 0.985 . S
C604 C605 1.363 . S
C604 C610 1.379 . S
C604 N612 1.356 . S
C605 C604 1.363 . S
C605 C611 1.363 . S
C606 C607 1.363 . S
C606 C611 1.379 . S
C606 N613 1.356 . S
C607 C606 1.363 . S
C607 C610 1.363 . S
N608 C610 1.356 . S
N608 H620 0.984 . S
N608 H621 0.985 . S
N609 C611 1.356 . S
N609 H614 0.984 . S
N609 H615 0.985 . S
C610 C604 1.379 . S
C610 C607 1.363 . S
C610 N608 1.356 . S
C611 C605 1.363 . S
C611 C606 1.379 . S
C611 N609 1.356 . S
N612 C604 1.356 . S
N612 H618 0.984 . S
N612 H619 0.984 . S
N613 C606 1.356 . S
N613 H616 0.984 . S
N613 H617 0.985 . S
H614 N609 0.984 . S
H615 N609 0.985 . S
H616 N613 0.984 . S
H617 N613 0.985 . S
H618 N612 0.984 . S
H619 N612 0.984 . S
H620 N608 0.984 . S
H621 N608 0.985 . S
C622 C623 1.363 . S
C622 C628 1.379 . S
C622 N630 1.356 . S
C623 C622 1.363 . S
C623 C629 1.363 . S
C624 C625 1.363 . S
C624 C629 1.379 . S
C624 N631 1.356 . S
C625 C624 1.363 . S
C625 C628 1.363 . S
N626 C628 1.356 . S
N626 H638 0.984 . S
N626 H639 0.985 . S
N627 C629 1.356 . S
N627 H632 0.984 . S
N627 H633 0.985 . S
C628 C622 1.379 . S
C628 C625 1.363 . S
C628 N626 1.356 . S
C629 C623 1.363 . S
C629 C624 1.379 . S
C629 N627 1.356 . S
N630 C622 1.356 . S
N630 H636 0.984 . S
N630 H637 0.984 . S
N631 C624 1.356 . S
N631 H634 0.984 . S
N631 H635 0.985 . S
H632 N627 0.984 . S
H633 N627 0.985 . S
H634 N631 0.984 . S
H635 N631 0.985 . S
H636 N630 0.984 . S
H637 N630 0.984 . S
H638 N626 0.984 . S
H639 N626 0.985 . S
C640 C641 1.363 . S
C640 C646 1.379 . S
C640 N648 1.356 . S
C641 C640 1.363 . S
C641 C647 1.363 . S
C642 C643 1.363 . S
C642 C647 1.379 . S
C642 N649 1.356 . S
C643 C642 1.363 . S
C643 C646 1.363 . S
N644 C646 1.356 . S
N644 H656 0.984 . S
N644 H657 0.985 . S
N645 C647 1.356 1_556 S
N645 H650 0.984 . S
N645 H651 0.985 . S
C646 C640 1.379 . S
C646 C643 1.363 . S
C646 N644 1.356 . S
C647 C641 1.363 . S
C647 C642 1.379 . S
C647 N645 1.356 1_554 S
N648 C640 1.356 . S
N648 H654 0.984 . S
N648 H655 0.984 1_554 S
N649 C642 1.356 . S
N649 H652 0.984 . S
N649 H653 0.985 . S
H650 N645 0.984 . S
H651 N645 0.985 . S
H652 N649 0.984 . S
H653 N649 0.985 . S
H654 N648 0.984 . S
H655 N648 0.984 1_556 S
H656 N644 0.984 . S
H657 N644 0.985 . S
C658 C659 1.363 . S
C658 C664 1.379 . S
C658 N666 1.356 . S
C659 C658 1.363 . S
C659 C665 1.363 1_655 S
C660 C661 1.361 1_455 S
C660 C665 1.379 . S
C660 N667 1.358 . S
C661 C660 1.361 1_655 S
C661 C664 1.363 . S
N662 C664 1.356 . S
N662 H674 0.984 . S
N662 H675 0.985 . S
N663 C665 1.356 . S
N663 H668 0.984 . S
N663 H669 0.985 . S
C664 C658 1.379 . S
C664 C661 1.363 . S
C664 N662 1.356 . S
C665 C659 1.363 1_455 S
C665 C660 1.379 . S
C665 N663 1.356 . S
N666 C658 1.356 . S
N666 H672 0.984 . S
N666 H673 0.984 . S
N667 C660 1.358 . S
N667 H670 0.984 . S
N667 H671 0.985 . S
H668 N663 0.984 . S
H669 N663 0.985 . S
H670 N667 0.984 . S
H671 N667 0.985 . S
H672 N666 0.984 . S
H673 N666 0.984 . S
H674 N662 0.984 . S
H675 N662 0.985 . S
C676 C677 1.363 . S
C676 C682 1.379 . S
C676 N684 1.356 1_554 S
C677 C676 1.363 . S
C677 C683 1.363 1_565 S
C678 C679 1.363 1_545 S
C678 C683 1.379 . S
C678 N685 1.356 . S
C679 C678 1.363 1_565 S
C679 C682 1.363 . S
N680 C682 1.356 . S
N680 H692 0.984 . S
N680 H693 0.985 . S
N681 C683 1.356 . S
N681 H686 0.984 1_554 S
N681 H687 0.985 . S
C682 C676 1.379 . S
C682 C679 1.363 . S
C682 N680 1.356 . S
C683 C677 1.363 1_545 S
C683 C678 1.379 . S
C683 N681 1.356 . S
N684 C676 1.356 1_556 S
N684 H690 0.984 . S
N684 H691 0.984 . S
N685 C678 1.356 . S
N685 H688 0.984 . S
N685 H689 0.985 . S
H686 N681 0.984 1_556 S
H687 N681 0.985 . S
H688 N685 0.984 . S
H689 N685 0.985 . S
H690 N684 0.984 . S
H691 N684 0.984 . S
H692 N680 0.984 . S
H693 N680 0.985 . S
C694 C695 1.363 . S
C694 C700 1.379 . S
C694 N702 1.356 . S
C695 C694 1.363 . S
C695 C701 1.363 . S
C696 C697 1.363 . S
C696 C701 1.379 . S
C696 N703 1.356 . S
C697 C696 1.363 . S
C697 C700 1.363 . S
N698 C700 1.356 . S
N698 H710 0.984 . S
N698 H711 0.985 . S
N699 C701 1.356 . S
N699 H704 0.984 . S
N699 H705 0.985 . S
C700 C694 1.379 . S
C700 C697 1.363 . S
C700 N698 1.356 . S
C701 C695 1.363 . S
C701 C696 1.379 . S
C701 N699 1.356 . S
N702 C694 1.356 . S
N702 H708 0.984 . S
N702 H709 0.984 . S
N703 C696 1.356 . S
N703 H706 0.984 . S
N703 H707 0.985 . S
H704 N699 0.984 . S
H705 N699 0.985 . S
H706 N703 0.984 . S
H707 N703 0.985 . S
H708 N702 0.984 . S
H709 N702 0.984 . S
H710 N698 0.984 . S
H711 N698 0.985 . S
C712 C713 1.363 . S
C712 C718 1.379 . S
C712 N720 1.356 . S
C713 C712 1.363 . S
C713 C719 1.363 . S
C714 C715 1.363 . S
C714 C719 1.379 . S
C714 N721 1.356 . S
C715 C714 1.363 . S
C715 C718 1.363 . S
N716 C718 1.356 . S
N716 H728 0.984 . S
N716 H729 0.985 . S
N717 C719 1.356 . S
N717 H722 0.984 . S
N717 H723 0.985 . S
C718 C712 1.379 . S
C718 C715 1.363 . S
C718 N716 1.356 . S
C719 C713 1.363 . S
C719 C714 1.379 . S
C719 N717 1.356 . S
N720 C712 1.356 . S
N720 H726 0.984 . S
N720 H727 0.984 . S
N721 C714 1.356 . S
N721 H724 0.984 . S
N721 H725 0.985 . S
H722 N717 0.984 . S
H723 N717 0.985 . S
H724 N721 0.984 . S
H725 N721 0.985 . S
H726 N720 0.984 . S
H727 N720 0.984 . S
H728 N716 0.984 . S
H729 N716 0.985 . S
C730 C731 1.363 1_655 S
C730 C736 1.379 . S
C730 N738 1.356 . S
C731 C730 1.363 1_455 S
C731 C737 1.363 . S
C732 C733 1.363 . S
C732 C737 1.379 . S
C732 N739 1.356 1_556 S
C733 C732 1.363 . S
C733 C736 1.363 1_455 S
N734 C736 1.356 . S
N734 H746 0.984 . S
N734 H747 0.985 . S
N735 C737 1.356 . S
N735 H740 0.984 . S
N735 H741 0.985 . S
C736 C730 1.379 . S
C736 C733 1.363 1_655 S
C736 N734 1.356 . S
C737 C731 1.363 . S
C737 C732 1.379 . S
C737 N735 1.356 . S
N738 C730 1.356 . S
N738 H744 0.984 . S
N738 H745 0.984 . S
N739 C732 1.356 1_554 S
N739 H742 0.984 . S
N739 H743 0.985 . S
H740 N735 0.984 . S
H741 N735 0.985 . S
H742 N739 0.984 . S
H743 N739 0.985 . S
H744 N738 0.984 . S
H745 N738 0.984 . S
H746 N734 0.984 . S
H747 N734 0.985 . S
C748 C749 1.363 1_565 S
C748 C754 1.379 . S
C748 N756 1.356 . S
C749 C748 1.363 1_545 S
C749 C755 1.363 . S
C750 C751 1.363 . S
C750 C755 1.379 . S
C750 N757 1.356 . S
C751 C750 1.363 . S
C751 C754 1.363 1_545 S
N752 C754 1.356 . S
N752 H764 0.984 . S
N752 H765 0.985 . S
N753 C755 1.356 . S
N753 H758 0.984 . S
N753 H759 0.985 . S
C754 C748 1.379 . S
C754 C751 1.363 1_565 S
C754 N752 1.356 . S
C755 C749 1.363 . S
C755 C750 1.379 . S
C755 N753 1.356 . S
N756 C748 1.356 . S
N756 H762 0.984 . S
N756 H763 0.984 . S
N757 C750 1.356 . S
N757 H760 0.984 . S
N757 H761 0.985 . S
H758 N753 0.984 . S
H759 N753 0.985 . S
H760 N757 0.984 . S
H761 N757 0.985 . S
H762 N756 0.984 . S
H763 N756 0.984 . S
H764 N752 0.984 . S
H765 N752 0.985 . S
C766 C767 1.363 . S
C766 C772 1.379 . S
C766 N774 1.356 1_556 S
C767 C766 1.363 . S
C767 C773 1.363 . S
C768 C769 1.363 . S
C768 C773 1.379 . S
C768 N775 1.356 . S
C769 C768 1.363 . S
C769 C772 1.363 . S
N770 C772 1.356 . S
N770 H782 0.984 . S
N770 H783 0.985 . S
N771 C773 1.356 . S
N771 H776 0.984 . S
N771 H777 0.985 . S
C772 C766 1.379 . S
C772 C769 1.363 . S
C772 N770 1.356 . S
C773 C767 1.363 . S
C773 C768 1.379 . S
C773 N771 1.356 . S
N774 C766 1.356 1_554 S
N774 H780 0.984 . S
N774 H781 0.984 . S
N775 C768 1.356 . S
N775 H778 0.984 . S
N775 H779 0.985 . S
H776 N771 0.984 . S
H777 N771 0.985 . S
H778 N775 0.984 . S
H779 N775 0.985 . S
H780 N774 0.984 . S
H781 N774 0.984 . S
H782 N770 0.984 . S
H783 N770 0.985 . S
C784 C785 1.363 . S
C784 C790 1.379 . S
C784 N792 1.356 . S
C785 C784 1.363 . S
C785 C791 1.363 . S
C786 C787 1.363 . S
C786 C791 1.379 . S
C786 N793 1.356 . S
C787 C786 1.363 . S
C787 C790 1.363 . S
N788 C790 1.356 1_554 S
N788 H800 0.984 . S
N788 H801 0.985 . S
N789 C791 1.356 . S
N789 H794 0.984 . S
N789 H795 0.985 . S
C790 C784 1.379 . S
C790 C787 1.363 . S
C790 N788 1.356 1_556 S
C791 C785 1.363 . S
C791 C786 1.379 . S
C791 N789 1.356 . S
N792 C784 1.356 . S
N792 H798 0.984 . S
N792 H799 0.984 . S
N793 C786 1.356 . S
N793 H796 0.984 1_556 S
N793 H797 0.985 . S
H794 N789 0.984 . S
H795 N789 0.985 . S
H796 N793 0.984 1_554 S
H797 N793 0.985 . S
H798 N792 0.984 . S
H799 N792 0.984 . S
H800 N788 0.984 . S
H801 N788 0.985 . S
C802 C803 1.363 . S
C802 C808 1.379 . S
C802 N810 1.356 . S
C803 C802 1.363 . S
C803 C809 1.363 1_455 S
C804 C805 1.363 1_655 S
C804 C809 1.379 . S
C804 N811 1.356 . S
C805 C804 1.363 1_455 S
C805 C808 1.363 . S
N806 C808 1.356 . S
N806 H818 0.984 . S
N806 H819 0.985 . S
N807 C809 1.356 . S
N807 H812 0.984 . S
N807 H813 0.985 . S
C808 C802 1.379 . S
C808 C805 1.363 . S
C808 N806 1.356 . S
C809 C803 1.363 1_655 S
C809 C804 1.379 . S
C809 N807 1.356 . S
N810 C802 1.356 . S
N810 H816 0.984 . S
N810 H817 0.984 . S
N811 C804 1.356 . S
N811 H814 0.984 . S
N811 H815 0.985 . S
H812 N807 0.984 . S
H813 N807 0.985 . S
H814 N811 0.984 . S
H815 N811 0.985 . S
H816 N810 0.984 . S
H817 N810 0.984 . S
H818 N806 0.984 . S
H819 N806 0.985 . S
C820 C821 1.363 1_565 S
C820 C826 1.379 . S
C820 N828 1.356 1_556 S
C821 C820 1.363 1_545 S
C821 C827 1.363 . S
C822 C823 1.363 . S
C822 C827 1.379 . S
C822 N829 1.356 . S
C823 C822 1.363 . S
C823 C826 1.363 1_545 S
N824 C826 1.356 . S
N824 H836 0.984 . S
N824 H837 0.985 . S
N825 C827 1.356 . S
N825 H830 0.984 1_556 S
N825 H831 0.985 . S
C826 C820 1.379 . S
C826 C823 1.363 1_565 S
C826 N824 1.356 . S
C827 C821 1.363 . S
C827 C822 1.379 . S
C827 N825 1.356 . S
N828 C820 1.356 1_554 S
N828 H834 0.984 . S
N828 H835 0.984 . S
N829 C822 1.356 . S
N829 H832 0.984 . S
N829 H833 0.985 . S
H830 N825 0.984 1_554 S
H831 N825 0.985 . S
H832 N829 0.984 . S
H833 N829 0.985 . S
H834 N828 0.984 . S
H835 N828 0.984 . S
H836 N824 0.984 . S
H837 N824 0.985 . S
C838 C839 1.363 . S
C838 C844 1.379 . S
C838 N846 1.356 . S
C839 C838 1.363 . S
C839 C845 1.363 . S
C840 C841 1.363 . S
C840 C845 1.379 . S
C840 N847 1.356 . S
C841 C840 1.363 . S
C841 C844 1.363 . S
N842 C844 1.356 . S
N842 H854 0.984 . S
N842 H855 0.985 . S
N843 C845 1.356 . S
N843 H848 0.984 . S
N843 H849 0.985 . S
C844 C838 1.379 . S
C844 C841 1.363 . S
C844 N842 1.356 . S
C845 C839 1.363 . S
C845 C840 1.379 . S
C845 N843 1.356 . S
N846 C838 1.356 . S
N846 H852 0.984 . S
N846 H853 0.984 . S
N847 C840 1.356 . S
N847 H850 0.984 . S
N847 H851 0.985 . S
H848 N843 0.984 . S
H849 N843 0.985 . S
H850 N847 0.984 . S
H851 N847 0.985 . S
H852 N846 0.984 . S
H853 N846 0.984 . S
H854 N842 0.984 . S
H855 N842 0.985 . S
C856 C857 1.363 . S
C856 C862 1.379 . S
C856 N864 1.356 . S
C857 C856 1.363 . S
C857 C863 1.363 . S
C858 C859 1.363 . S
C858 C863 1.379 . S
C858 N865 1.356 . S
C859 C858 1.363 . S
C859 C862 1.363 . S
N860 C862 1.356 . S
N860 H872 0.984 . S
N860 H873 0.985 . S
N861 C863 1.356 . S
N861 H866 0.984 . S
N861 H867 0.985 . S
C862 C856 1.379 . S
C862 C859 1.363 . S
C862 N860 1.356 . S
C863 C857 1.363 . S
C863 C858 1.379 . S
C863 N861 1.356 . S
N864 C856 1.356 . S
N864 H870 0.984 . S
N864 H871 0.984 . S
N865 C858 1.356 . S
N865 H868 0.984 . S
N865 H869 0.985 . S
H866 N861 0.984 . S
H867 N861 0.985 . S
H868 N865 0.984 . S
H869 N865 0.985 . S
H870 N864 0.984 . S
H871 N864 0.984 . S
H872 N860 0.984 . S
H873 N860 0.985 . S
C874 C875 1.363 1_455 S
C874 C880 1.379 . S
C874 N882 1.356 . S
C875 C874 1.363 1_655 S
C875 C881 1.363 . S
C876 C877 1.363 . S
C876 C881 1.379 . S
C876 N883 1.356 . S
C877 C876 1.363 . S
C877 C880 1.363 1_655 S
N878 C880 1.356 1_556 S
N878 H890 0.984 . S
N878 H891 0.985 . S
N879 C881 1.356 . S
N879 H884 0.984 . S
N879 H885 0.985 . S
C880 C874 1.379 . S
C880 C877 1.363 1_455 S
C880 N878 1.356 1_554 S
C881 C875 1.363 . S
C881 C876 1.379 . S
C881 N879 1.356 . S
N882 C874 1.356 . S
N882 H888 0.984 . S
N882 H889 0.984 . S
N883 C876 1.356 . S
N883 H886 0.988 . S
N883 H887 0.985 . S
H884 N879 0.984 . S
H885 N879 0.985 . S
H886 N883 0.988 . S
H887 N883 0.985 . S
H888 N882 0.984 . S
H889 N882 0.984 . S
H890 N878 0.984 . S
H891 N878 0.985 . S
C892 C893 1.363 . S
C892 C898 1.379 . S
C892 N900 1.356 . S
C893 C892 1.363 . S
C893 C899 1.363 1_565 S
C894 C895 1.363 1_545 S
C894 C899 1.379 . S
C894 N901 1.356 . S
C895 C894 1.363 1_565 S
C895 C898 1.363 . S
N896 C898 1.356 . S
N896 H908 0.984 . S
N896 H909 0.985 . S
N897 C899 1.356 . S
N897 H902 0.984 . S
N897 H903 0.985 . S
C898 C892 1.379 . S
C898 C895 1.363 . S
C898 N896 1.356 . S
C899 C893 1.363 1_545 S
C899 C894 1.379 . S
C899 N897 1.356 . S
N900 C892 1.356 . S
N900 H906 0.984 . S
N900 H907 0.984 . S
N901 C894 1.356 . S
N901 H904 0.984 . S
N901 H905 0.985 . S
H902 N897 0.984 . S
H903 N897 0.985 . S
H904 N901 0.984 . S
H905 N901 0.985 . S
H906 N900 0.984 . S
H907 N900 0.984 . S
H908 N896 0.984 . S
H909 N896 0.985 . S
C910 C911 1.363 . S
C910 C916 1.379 . S
C910 N918 1.356 . S
C911 C910 1.363 . S
C911 C917 1.363 . S
C912 C913 1.363 . S
C912 C917 1.379 . S
C912 N919 1.356 . S
C913 C912 1.363 . S
C913 C916 1.363 . S
N914 C916 1.356 . S
N914 H926 0.984 . S
N914 H927 0.985 . S
N915 C917 1.356 1_556 S
N915 H920 0.984 . S
N915 H921 0.985 . S
C916 C910 1.379 . S
C916 C913 1.363 . S
C916 N914 1.356 . S
C917 C911 1.363 . S
C917 C912 1.379 . S
C917 N915 1.356 1_554 S
N918 C910 1.356 . S
N918 H924 0.984 . S
N918 H925 0.984 . S
N919 C912 1.356 . S
N919 H922 0.984 . S
N919 H923 0.985 . S
H920 N915 0.984 . S
H921 N915 0.985 . S
H922 N919 0.984 . S
H923 N919 0.985 . S
H924 N918 0.984 . S
H925 N918 0.984 . S
H926 N914 0.984 . S
H927 N914 0.985 . S
C928 C929 1.363 . S
C928 C934 1.379 . S
C928 N936 1.356 . S
C929 C928 1.363 . S
C929 C935 1.363 . S
C930 C931 1.363 . S
C930 C935 1.379 . S
C930 N937 1.356 . S
C931 C930 1.363 . S
C931 C934 1.363 . S
N932 C934 1.356 . S
N932 H944 0.984 . S
N932 H945 0.985 . S
N933 C935 1.356 . S
N933 H938 0.984 . S
N933 H939 0.985 . S
C934 C928 1.379 . S
C934 C931 1.363 . S
C934 N932 1.356 . S
C935 C929 1.363 . S
C935 C930 1.379 . S
C935 N933 1.356 . S
N936 C928 1.356 . S
N936 H942 0.984 . S
N936 H943 0.984 . S
N937 C930 1.356 . S
N937 H940 0.984 . S
N937 H941 0.985 . S
H938 N933 0.984 . S
H939 N933 0.985 . S
H940 N937 0.984 . S
H941 N937 0.985 . S
H942 N936 0.984 . S
H943 N936 0.984 . S
H944 N932 0.984 . S
H945 N932 0.985 . S
C946 C947 1.363 . S
C946 C952 1.379 . S
C946 N954 1.356 . S
C947 C946 1.363 . S
C947 C953 1.363 . S
C948 C949 1.363 . S
C948 C953 1.379 . S
C948 N955 1.356 . S
C949 C948 1.363 . S
C949 C952 1.363 . S
N950 C952 1.356 . S
N950 H962 0.984 . S
N950 H963 0.985 . S
N951 C953 1.356 . S
N951 H956 0.984 . S
N951 H957 0.985 . S
C952 C946 1.379 . S
C952 C949 1.363 . S
C952 N950 1.356 . S
C953 C947 1.363 . S
C953 C948 1.379 . S
C953 N951 1.356 . S
N954 C946 1.356 . S
N954 H960 0.984 . S
N954 H961 0.984 . S
N955 C948 1.356 . S
N955 H958 0.984 . S
N955 H959 0.985 . S
H956 N951 0.984 . S
H957 N951 0.985 . S
H958 N955 0.984 . S
H959 N955 0.985 . S
H960 N954 0.984 . S
H961 N954 0.984 . S
H962 N950 0.984 . S
H963 N950 0.985 . S
C964 C965 1.363 . S
C964 C970 1.379 . S
C964 N972 1.356 . S
C965 C964 1.363 . S
C965 C971 1.363 . S
C966 C967 1.363 . S
C966 C971 1.379 . S
C966 N973 1.356 . S
C967 C966 1.363 . S
C967 C970 1.363 . S
N968 C970 1.356 . S
N968 H980 0.984 . S
N968 H981 0.985 . S
N969 C971 1.356 . S
N969 H974 0.984 . S
N969 H975 0.985 . S
C970 C964 1.379 . S
C970 C967 1.363 . S
C970 N968 1.356 . S
C971 C965 1.363 . S
C971 C966 1.379 . S
C971 N969 1.356 . S
N972 C964 1.356 . S
N972 H978 0.984 . S
N972 H979 0.984 . S
N973 C966 1.356 . S
N973 H976 0.984 . S
N973 H977 0.985 . S
H974 N969 0.984 . S
H975 N969 0.985 . S
H976 N973 0.984 . S
H977 N973 0.985 . S
H978 N972 0.984 . S
H979 N972 0.984 . S
H980 N968 0.984 . S
H981 N968 0.985 . S
C982 C983 1.363 . S
C982 C988 1.379 . S
C982 N990 1.356 . S
C983 C982 1.363 . S
C983 C989 1.363 . S
C984 C985 1.363 . S
C984 C989 1.379 . S
C984 N991 1.356 . S
C985 C984 1.363 . S
C985 C988 1.363 . S
N986 C988 1.356 . S
N986 H998 0.984 . S
N986 H999 0.985 . S
N987 C989 1.356 . S
N987 H992 0.984 . S
N987 H993 0.985 . S
C988 C982 1.379 . S
C988 C985 1.363 . S
C988 N986 1.356 . S
C989 C983 1.363 . S
C989 C984 1.379 . S
C989 N987 1.356 . S
N990 C982 1.356 . S
N990 H996 0.984 . S
N990 H997 0.984 . S
N991 C984 1.356 . S
N991 H994 0.984 . S
N991 H995 0.985 . S
H992 N987 0.984 . S
H993 N987 0.985 . S
H994 N991 0.984 . S
H995 N991 0.985 . S
H996 N990 0.984 . S
H997 N990 0.984 . S
H998 N986 0.984 . S
H999 N986 0.985 . S
C1000 C1001 1.363 . S
C1000 C1006 1.379 . S
C1000 N1008 1.356 . S
C1001 C1000 1.363 . S
C1001 C1007 1.363 . S
C1002 C1003 1.363 . S
C1002 C1007 1.379 . S
C1002 N1009 1.356 . S
C1003 C1002 1.363 . S
C1003 C1006 1.363 . S
N1004 C1006 1.356 . S
N1004 H1016 0.984 . S
N1004 H1017 0.985 . S
N1005 C1007 1.356 . S
N1005 H1010 0.984 . S
N1005 H1011 0.985 . S
C1006 C1000 1.379 . S
C1006 C1003 1.363 . S
C1006 N1004 1.356 . S
C1007 C1001 1.363 . S
C1007 C1002 1.379 . S
C1007 N1005 1.356 . S
N1008 C1000 1.356 . S
N1008 H1014 0.984 . S
N1008 H1015 0.984 . S
N1009 C1002 1.356 . S
N1009 H1012 0.984 . S
N1009 H1013 0.985 . S
H1010 N1005 0.984 . S
H1011 N1005 0.985 . S
H1012 N1009 0.984 . S
H1013 N1009 0.985 . S
H1014 N1008 0.984 . S
H1015 N1008 0.984 . S
H1016 N1004 0.984 . S
H1017 N1004 0.985 . S
C1018 C1019 1.363 . S
C1018 C1024 1.379 . S
C1018 N1026 1.356 . S
C1019 C1018 1.363 . S
C1019 C1025 1.363 . S
C1020 C1021 1.363 . S
C1020 C1025 1.379 . S
C1020 N1027 1.356 . S
C1021 C1020 1.363 . S
C1021 C1024 1.363 . S
N1022 C1024 1.356 . S
N1022 H1034 0.984 . S
N1022 H1035 0.985 . S
N1023 C1025 1.356 . S
N1023 H1028 0.984 . S
N1023 H1029 0.985 . S
C1024 C1018 1.379 . S
C1024 C1021 1.363 . S
C1024 N1022 1.356 . S
C1025 C1019 1.363 . S
C1025 C1020 1.379 . S
C1025 N1023 1.356 . S
N1026 C1018 1.356 . S
N1026 H1032 0.984 . S
N1026 H1033 0.984 . S
N1027 C1020 1.356 . S
N1027 H1030 0.984 . S
N1027 H1031 0.985 . S
H1028 N1023 0.984 . S
H1029 N1023 0.985 . S
H1030 N1027 0.984 . S
H1031 N1027 0.985 . S
H1032 N1026 0.984 . S
H1033 N1026 0.984 . S
H1034 N1022 0.984 . S
H1035 N1022 0.985 . S
C1036 C1037 1.363 . S
C1036 C1042 1.379 . S
C1036 N1044 1.356 . S
C1037 C1036 1.363 . S
C1037 C1043 1.363 . S
C1038 C1039 1.363 . S
C1038 C1043 1.379 . S
C1038 N1045 1.356 . S
C1039 C1038 1.363 . S
C1039 C1042 1.363 . S
N1040 C1042 1.356 . S
N1040 H1052 0.984 . S
N1040 H1053 0.985 . S
N1041 C1043 1.356 . S
N1041 H1046 0.984 . S
N1041 H1047 0.985 . S
C1042 C1036 1.379 . S
C1042 C1039 1.363 . S
C1042 N1040 1.356 . S
C1043 C1037 1.363 . S
C1043 C1038 1.379 . S
C1043 N1041 1.356 . S
N1044 C1036 1.356 . S
N1044 H1050 0.984 . S
N1044 H1051 0.984 . S
N1045 C1038 1.356 . S
N1045 H1048 0.984 . S
N1045 H1049 0.985 . S
H1046 N1041 0.984 . S
H1047 N1041 0.985 . S
H1048 N1045 0.984 . S
H1049 N1045 0.985 . S
H1050 N1044 0.984 . S
H1051 N1044 0.984 . S
H1052 N1040 0.984 . S
H1053 N1040 0.985 . S
C1054 C1055 1.363 . S
C1054 C1060 1.379 . S
C1054 N1062 1.356 . S
C1055 C1054 1.363 . S
C1055 C1061 1.363 . S
C1056 C1057 1.363 . S
C1056 C1061 1.379 . S
C1056 N1063 1.356 . S
C1057 C1056 1.363 . S
C1057 C1060 1.363 . S
N1058 C1060 1.356 . S
N1058 H1070 0.984 . S
N1058 H1071 0.985 . S
N1059 C1061 1.356 . S
N1059 H1064 0.984 . S
N1059 H1065 0.985 . S
C1060 C1054 1.379 . S
C1060 C1057 1.363 . S
C1060 N1058 1.356 . S
C1061 C1055 1.363 . S
C1061 C1056 1.379 . S
C1061 N1059 1.356 . S
N1062 C1054 1.356 . S
N1062 H1068 0.984 . S
N1062 H1069 0.984 . S
N1063 C1056 1.356 . S
N1063 H1066 0.984 . S
N1063 H1067 0.985 . S
H1064 N1059 0.984 . S
H1065 N1059 0.985 . S
H1066 N1063 0.984 . S
H1067 N1063 0.985 . S
H1068 N1062 0.984 . S
H1069 N1062 0.984 . S
H1070 N1058 0.984 . S
H1071 N1058 0.985 . S
C1072 C1073 1.363 . S
C1072 C1078 1.379 . S
C1072 N1080 1.356 . S
C1073 C1072 1.363 . S
C1073 C1079 1.363 . S
C1074 C1075 1.363 . S
C1074 C1079 1.379 . S
C1074 N1081 1.356 . S
C1075 C1074 1.363 . S
C1075 C1078 1.363 . S
N1076 C1078 1.356 . S
N1076 H1088 0.984 . S
N1076 H1089 0.985 . S
N1077 C1079 1.356 . S
N1077 H1082 0.984 . S
N1077 H1083 0.985 . S
C1078 C1072 1.379 . S
C1078 C1075 1.363 . S
C1078 N1076 1.356 . S
C1079 C1073 1.363 . S
C1079 C1074 1.379 . S
C1079 N1077 1.356 . S
N1080 C1072 1.356 . S
N1080 H1086 0.984 . S
N1080 H1087 0.984 . S
N1081 C1074 1.356 . S
N1081 H1084 0.984 . S
N1081 H1085 0.985 . S
H1082 N1077 0.984 . S
H1083 N1077 0.985 . S
H1084 N1081 0.984 . S
H1085 N1081 0.985 . S
H1086 N1080 0.984 . S
H1087 N1080 0.984 . S
H1088 N1076 0.984 . S
H1089 N1076 0.985 . S
C1090 C1091 1.363 . S
C1090 C1096 1.379 . S
C1090 N1098 1.356 . S
C1091 C1090 1.363 . S
C1091 C1097 1.363 . S
C1092 C1093 1.363 . S
C1092 C1097 1.379 . S
C1092 N1099 1.356 . S
C1093 C1092 1.363 . S
C1093 C1096 1.363 . S
N1094 C1096 1.356 . S
N1094 H1106 0.984 . S
N1094 H1107 0.985 . S
N1095 C1097 1.356 . S
N1095 H1100 0.984 . S
N1095 H1101 0.985 . S
C1096 C1090 1.379 . S
C1096 C1093 1.363 . S
C1096 N1094 1.356 . S
C1097 C1091 1.363 . S
C1097 C1092 1.379 . S
C1097 N1095 1.356 . S
N1098 C1090 1.356 . S
N1098 H1104 0.984 . S
N1098 H1105 0.984 . S
N1099 C1092 1.356 . S
N1099 H1102 0.984 . S
N1099 H1103 0.985 . S
H1100 N1095 0.984 . S
H1101 N1095 0.985 . S
H1102 N1099 0.984 . S
H1103 N1099 0.985 . S
H1104 N1098 0.984 . S
H1105 N1098 0.984 . S
H1106 N1094 0.984 . S
H1107 N1094 0.985 . S
C1108 C1109 1.363 . S
C1108 C1114 1.379 . S
C1108 N1116 1.356 . S
C1109 C1108 1.363 . S
C1109 C1115 1.363 . S
C1110 C1111 1.363 . S
C1110 C1115 1.379 . S
C1110 N1117 1.356 . S
C1111 C1110 1.363 . S
C1111 C1114 1.363 . S
N1112 C1114 1.356 . S
N1112 H1124 0.984 . S
N1112 H1125 0.985 . S
N1113 C1115 1.356 . S
N1113 H1118 0.984 . S
N1113 H1119 0.985 . S
C1114 C1108 1.379 . S
C1114 C1111 1.363 . S
C1114 N1112 1.356 . S
C1115 C1109 1.363 . S
C1115 C1110 1.379 . S
C1115 N1113 1.356 . S
N1116 C1108 1.356 . S
N1116 H1122 0.984 . S
N1116 H1123 0.984 . S
N1117 C1110 1.356 . S
N1117 H1120 0.984 . S
N1117 H1121 0.985 . S
H1118 N1113 0.984 . S
H1119 N1113 0.985 . S
H1120 N1117 0.984 . S
H1121 N1117 0.985 . S
H1122 N1116 0.984 . S
H1123 N1116 0.984 . S
H1124 N1112 0.984 . S
H1125 N1112 0.985 . S
C1126 C1127 1.363 . S
C1126 C1132 1.379 . S
C1126 N1134 1.356 . S
C1127 C1126 1.363 . S
C1127 C1133 1.363 . S
C1128 C1129 1.363 . S
C1128 C1133 1.379 . S
C1128 N1135 1.356 . S
C1129 C1128 1.363 . S
C1129 C1132 1.363 . S
N1130 C1132 1.356 . S
N1130 H1142 0.984 . S
N1130 H1143 0.985 . S
N1131 C1133 1.356 . S
N1131 H1136 0.984 . S
N1131 H1137 0.985 . S
C1132 C1126 1.379 . S
C1132 C1129 1.363 . S
C1132 N1130 1.356 . S
C1133 C1127 1.363 . S
C1133 C1128 1.379 . S
C1133 N1131 1.356 . S
N1134 C1126 1.356 . S
N1134 H1140 0.984 . S
N1134 H1141 0.984 . S
N1135 C1128 1.356 . S
N1135 H1138 0.984 . S
N1135 H1139 0.985 . S
H1136 N1131 0.984 . S
H1137 N1131 0.985 . S
H1138 N1135 0.984 . S
H1139 N1135 0.985 . S
H1140 N1134 0.984 . S
H1141 N1134 0.984 . S
H1142 N1130 0.984 . S
H1143 N1130 0.985 . S
C1144 C1145 1.363 . S
C1144 C1150 1.379 . S
C1144 N1152 1.356 . S
C1145 C1144 1.363 . S
C1145 C1151 1.363 . S
C1146 C1147 1.363 . S
C1146 C1151 1.379 . S
C1146 N1153 1.356 . S
C1147 C1146 1.363 . S
C1147 C1150 1.363 . S
N1148 C1150 1.356 . S
N1148 H1160 0.984 . S
N1148 H1161 0.985 . S
N1149 C1151 1.356 . S
N1149 H1154 0.984 . S
N1149 H1155 0.985 . S
C1150 C1144 1.379 . S
C1150 C1147 1.363 . S
C1150 N1148 1.356 . S
C1151 C1145 1.363 . S
C1151 C1146 1.379 . S
C1151 N1149 1.356 . S
N1152 C1144 1.356 . S
N1152 H1158 0.984 . S
N1152 H1159 0.984 . S
N1153 C1146 1.356 . S
N1153 H1156 0.984 . S
N1153 H1157 0.985 . S
H1154 N1149 0.984 . S
H1155 N1149 0.985 . S
H1156 N1153 0.984 . S
H1157 N1153 0.985 . S
H1158 N1152 0.984 . S
H1159 N1152 0.984 . S
H1160 N1148 0.984 . S
H1161 N1148 0.985 . S
C1162 C1163 1.363 . S
C1162 C1168 1.379 . S
C1162 N1170 1.356 . S
C1163 C1162 1.363 . S
C1163 C1169 1.363 . S
C1164 C1165 1.363 . S
C1164 C1169 1.379 . S
C1164 N1171 1.356 . S
C1165 C1164 1.363 . S
C1165 C1168 1.363 . S
N1166 C1168 1.356 . S
N1166 H1178 0.984 . S
N1166 H1179 0.985 . S
N1167 C1169 1.356 . S
N1167 H1172 0.984 . S
N1167 H1173 0.985 . S
C1168 C1162 1.379 . S
C1168 C1165 1.363 . S
C1168 N1166 1.356 . S
C1169 C1163 1.363 . S
C1169 C1164 1.379 . S
C1169 N1167 1.356 . S
N1170 C1162 1.356 . S
N1170 H1176 0.984 . S
N1170 H1177 0.984 . S
N1171 C1164 1.356 . S
N1171 H1174 0.984 . S
N1171 H1175 0.985 . S
H1172 N1167 0.984 . S
H1173 N1167 0.985 . S
H1174 N1171 0.984 . S
H1175 N1171 0.985 . S
H1176 N1170 0.984 . S
H1177 N1170 0.984 . S
H1178 N1166 0.984 . S
H1179 N1166 0.985 . S
C1180 C1181 1.363 . S
C1180 C1186 1.379 . S
C1180 N1188 1.356 . S
C1181 C1180 1.363 . S
C1181 C1187 1.363 . S
C1182 C1183 1.363 . S
C1182 C1187 1.379 . S
C1182 N1189 1.356 . S
C1183 C1182 1.363 . S
C1183 C1186 1.363 . S
N1184 C1186 1.356 . S
N1184 H1196 0.984 . S
N1184 H1197 0.985 . S
N1185 C1187 1.356 . S
N1185 H1190 0.984 . S
N1185 H1191 0.985 . S
C1186 C1180 1.379 . S
C1186 C1183 1.363 . S
C1186 N1184 1.356 . S
C1187 C1181 1.363 . S
C1187 C1182 1.379 . S
C1187 N1185 1.356 . S
N1188 C1180 1.356 . S
N1188 H1194 0.984 . S
N1188 H1195 0.984 . S
N1189 C1182 1.356 . S
N1189 H1192 0.984 . S
N1189 H1193 0.985 . S
H1190 N1185 0.984 . S
H1191 N1185 0.985 . S
H1192 N1189 0.984 . S
H1193 N1189 0.985 . S
H1194 N1188 0.984 . S
H1195 N1188 0.984 . S
H1196 N1184 0.984 . S
H1197 N1184 0.985 . S
C1198 C1199 1.363 . S
C1198 C1204 1.379 . S
C1198 N1206 1.356 . S
C1199 C1198 1.363 . S
C1199 C1205 1.363 . S
C1200 C1201 1.363 . S
C1200 C1205 1.379 . S
C1200 N1207 1.356 . S
C1201 C1200 1.363 . S
C1201 C1204 1.363 . S
N1202 C1204 1.356 . S
N1202 H1214 0.984 . S
N1202 H1215 0.985 . S
N1203 C1205 1.356 . S
N1203 H1208 0.984 . S
N1203 H1209 0.985 . S
C1204 C1198 1.379 . S
C1204 C1201 1.363 . S
C1204 N1202 1.356 . S
C1205 C1199 1.363 . S
C1205 C1200 1.379 . S
C1205 N1203 1.356 . S
N1206 C1198 1.356 . S
N1206 H1212 0.984 . S
N1206 H1213 0.984 . S
N1207 C1200 1.356 . S
N1207 H1210 0.984 . S
N1207 H1211 0.985 . S
H1208 N1203 0.984 . S
H1209 N1203 0.985 . S
H1210 N1207 0.984 . S
H1211 N1207 0.985 . S
H1212 N1206 0.984 . S
H1213 N1206 0.984 . S
H1214 N1202 0.984 . S
H1215 N1202 0.985 . S
C353 C5 1.085 . S
C355 C159 1.085 . S
C371 C93 1.085 . S
C373 C27 1.085 . S
C389 C119 1.085 . S
C391 C53 1.085 . S
C407 C75 1.085 . S
C409 C141 1.085 . S
C425 C336 1.085 . S
C427 C182 1.085 . S
C443 C270 1.085 . S
C445 C204 1.085 . S
C461 C293 1.085 . S
C463 C227 1.085 . S
C479 C315 1.085 . S
C481 C249 1.085 . S
C497 C6 1.449 . S
C499 C335 1.449 . S
C515 C28 1.449 . S
C517 C269 1.449 . S
C533 C51 1.449 . S
C535 C295 1.449 . S
C551 C317 1.449 . S
C553 C73 1.449 . S
C569 C203 1.449 . S
C571 C94 1.449 . S
C587 C117 1.449 . S
C589 C229 1.449 . S
C605 C251 1.449 . S
C607 C139 1.449 . S
C623 C160 1.449 . S
C625 C181 1.449 . S
C641 C268 1.623 1_554 S
C643 C9 1.652 . S
C659 C31 1.652 . S
C661 C294 1.622 . S
C677 C316 1.622 1_554 S
C679 C49 1.652 . S
C695 C334 1.622 . S
C697 C71 1.652 . S
C713 C97 1.652 . S
C715 C180 1.622 . S
C731 C115 1.652 . S
C733 C202 1.622 1_556 S
C749 C137 1.652 . S
C751 C228 1.622 . S
C767 C250 1.623 1_556 S
C769 C163 1.652 . S
C785 C183 1.652 . S
C787 C92 1.623 1_556 S
C803 C205 1.652 . S
C805 C118 1.622 . S
C821 C140 1.622 1_556 S
C823 C226 1.652 . S
C839 C248 1.652 . S
C841 C158 1.622 . S
C857 C271 1.652 . S
C859 C4 1.622 . S
C875 C292 1.652 . S
C877 C26 1.622 1_554 S
C893 C52 1.622 . S
C895 C314 1.652 . S
C911 C74 1.623 1_554 S
C913 C337 1.652 . S
C929 C8 1.565 . S
C931 C207 1.459 . S
C947 C225 1.459 . S
C949 C30 1.565 . S
C965 C48 1.565 . S
C967 C247 1.459 . S
C983 C70 1.565 . S
C985 C185 1.459 . S
C1001 C96 1.565 . S
C1003 C339 1.459 . S
C1019 C114 1.565 . S
C1021 C273 1.459 . S
C1037 C136 1.565 . S
C1039 C291 1.459 . S
C1055 C313 1.459 . S
C1057 C162 1.565 . S
C1073 C29 1.459 . S
C1075 C184 1.565 . S
C1091 C50 1.459 . S
C1093 C206 1.565 . S
C1109 C224 1.565 . S
C1111 C72 1.459 . S
C1127 C246 1.565 . S
C1129 C7 1.459 . S
C1145 C161 1.459 . S
C1147 C272 1.565 . S
C1163 C95 1.459 . S
C1165 C290 1.565 . S
C1181 C116 1.459 . S
C1183 C312 1.565 . S
C1199 C138 1.459 . S
C1201 C338 1.565 . S
