# Generated by pormake.
# Topology smg, (6)-cn, num edge types: 1
# Building blocks:
#     Node 0, Type 0, BuildingBlock: OJICUG_clean_sbu_0, # of connection points: 6
#     Node 1, Type 0, BuildingBlock: OJICUG_clean_sbu_0, # of connection points: 6
#     Node 2, Type 0, BuildingBlock: OJICUG_clean_sbu_0, # of connection points: 6
#     Node 3, Type 0, BuildingBlock: OJICUG_clean_sbu_0, # of connection points: 6
#     Node 4, Type 0, BuildingBlock: OJICUG_clean_sbu_0, # of connection points: 6
#     Node 5, Type 0, BuildingBlock: OJICUG_clean_sbu_0, # of connection points: 6
#     Node 6, Type 0, BuildingBlock: OJICUG_clean_sbu_0, # of connection points: 6
#     Node 7, Type 0, BuildingBlock: OJICUG_clean_sbu_0, # of connection points: 6
#     Node 8, Type 0, BuildingBlock: OJICUG_clean_sbu_0, # of connection points: 6
#     Node 9, Type 0, BuildingBlock: OJICUG_clean_sbu_0, # of connection points: 6
#     Node 10, Type 0, BuildingBlock: OJICUG_clean_sbu_0, # of connection points: 6
#     Node 11, Type 0, BuildingBlock: OJICUG_clean_sbu_0, # of connection points: 6
#     Node 12, Type 0, BuildingBlock: OJICUG_clean_sbu_0, # of connection points: 6
#     Node 13, Type 0, BuildingBlock: OJICUG_clean_sbu_0, # of connection points: 6
#     Node 14, Type 0, BuildingBlock: OJICUG_clean_sbu_0, # of connection points: 6
#     Node 15, Type 0, BuildingBlock: OJICUG_clean_sbu_0, # of connection points: 6
#     Node 16, Type 0, BuildingBlock: OJICUG_clean_sbu_0, # of connection points: 6
#     Node 17, Type 0, BuildingBlock: OJICUG_clean_sbu_0, # of connection points: 6
#     Edge 18, Type (0, 0), BuildingBlock: ZUJKAS_clean_linker_0, # of connection points: 2
#     Edge 19, Type (0, 0), BuildingBlock: ZUJKAS_clean_linker_0, # of connection points: 2
#     Edge 20, Type (0, 0), BuildingBlock: ZUJKAS_clean_linker_0, # of connection points: 2
#     Edge 21, Type (0, 0), BuildingBlock: ZUJKAS_clean_linker_0, # of connection points: 2
#     Edge 22, Type (0, 0), BuildingBlock: ZUJKAS_clean_linker_0, # of connection points: 2
#     Edge 23, Type (0, 0), BuildingBlock: ZUJKAS_clean_linker_0, # of connection points: 2
#     Edge 24, Type (0, 0), BuildingBlock: ZUJKAS_clean_linker_0, # of connection points: 2
#     Edge 25, Type (0, 0), BuildingBlock: ZUJKAS_clean_linker_0, # of connection points: 2
#     Edge 26, Type (0, 0), BuildingBlock: ZUJKAS_clean_linker_0, # of connection points: 2
#     Edge 27, Type (0, 0), BuildingBlock: ZUJKAS_clean_linker_0, # of connection points: 2
#     Edge 28, Type (0, 0), BuildingBlock: ZUJKAS_clean_linker_0, # of connection points: 2
#     Edge 29, Type (0, 0), BuildingBlock: ZUJKAS_clean_linker_0, # of connection points: 2
#     Edge 30, Type (0, 0), BuildingBlock: ZUJKAS_clean_linker_0, # of connection points: 2
#     Edge 31, Type (0, 0), BuildingBlock: ZUJKAS_clean_linker_0, # of connection points: 2
#     Edge 32, Type (0, 0), BuildingBlock: ZUJKAS_clean_linker_0, # of connection points: 2
#     Edge 33, Type (0, 0), BuildingBlock: ZUJKAS_clean_linker_0, # of connection points: 2
#     Edge 34, Type (0, 0), BuildingBlock: ZUJKAS_clean_linker_0, # of connection points: 2
#     Edge 35, Type (0, 0), BuildingBlock: ZUJKAS_clean_linker_0, # of connection points: 2
#     Edge 36, Type (0, 0), BuildingBlock: ZUJKAS_clean_linker_0, # of connection points: 2
#     Edge 37, Type (0, 0), BuildingBlock: ZUJKAS_clean_linker_0, # of connection points: 2
#     Edge 38, Type (0, 0), BuildingBlock: ZUJKAS_clean_linker_0, # of connection points: 2
#     Edge 39, Type (0, 0), BuildingBlock: ZUJKAS_clean_linker_0, # of connection points: 2
#     Edge 40, Type (0, 0), BuildingBlock: ZUJKAS_clean_linker_0, # of connection points: 2
#     Edge 41, Type (0, 0), BuildingBlock: ZUJKAS_clean_linker_0, # of connection points: 2
#     Edge 42, Type (0, 0), BuildingBlock: ZUJKAS_clean_linker_0, # of connection points: 2
#     Edge 43, Type (0, 0), BuildingBlock: ZUJKAS_clean_linker_0, # of connection points: 2
#     Edge 44, Type (0, 0), BuildingBlock: ZUJKAS_clean_linker_0, # of connection points: 2
#     Edge 45, Type (0, 0), BuildingBlock: ZUJKAS_clean_linker_0, # of connection points: 2
#     Edge 46, Type (0, 0), BuildingBlock: ZUJKAS_clean_linker_0, # of connection points: 2
#     Edge 47, Type (0, 0), BuildingBlock: ZUJKAS_clean_linker_0, # of connection points: 2
#     Edge 48, Type (0, 0), BuildingBlock: ZUJKAS_clean_linker_0, # of connection points: 2
#     Edge 49, Type (0, 0), BuildingBlock: ZUJKAS_clean_linker_0, # of connection points: 2
#     Edge 50, Type (0, 0), BuildingBlock: ZUJKAS_clean_linker_0, # of connection points: 2
#     Edge 51, Type (0, 0), BuildingBlock: ZUJKAS_clean_linker_0, # of connection points: 2
#     Edge 52, Type (0, 0), BuildingBlock: ZUJKAS_clean_linker_0, # of connection points: 2
#     Edge 53, Type (0, 0), BuildingBlock: ZUJKAS_clean_linker_0, # of connection points: 2
#     Edge 54, Type (0, 0), BuildingBlock: ZUJKAS_clean_linker_0, # of connection points: 2
#     Edge 55, Type (0, 0), BuildingBlock: ZUJKAS_clean_linker_0, # of connection points: 2
#     Edge 56, Type (0, 0), BuildingBlock: ZUJKAS_clean_linker_0, # of connection points: 2
#     Edge 57, Type (0, 0), BuildingBlock: ZUJKAS_clean_linker_0, # of connection points: 2
#     Edge 58, Type (0, 0), BuildingBlock: ZUJKAS_clean_linker_0, # of connection points: 2
#     Edge 59, Type (0, 0), BuildingBlock: ZUJKAS_clean_linker_0, # of connection points: 2
#     Edge 60, Type (0, 0), BuildingBlock: ZUJKAS_clean_linker_0, # of connection points: 2
#     Edge 61, Type (0, 0), BuildingBlock: ZUJKAS_clean_linker_0, # of connection points: 2
#     Edge 62, Type (0, 0), BuildingBlock: ZUJKAS_clean_linker_0, # of connection points: 2
#     Edge 63, Type (0, 0), BuildingBlock: ZUJKAS_clean_linker_0, # of connection points: 2
#     Edge 64, Type (0, 0), BuildingBlock: ZUJKAS_clean_linker_0, # of connection points: 2
#     Edge 65, Type (0, 0), BuildingBlock: ZUJKAS_clean_linker_0, # of connection points: 2
#     Edge 66, Type (0, 0), BuildingBlock: ZUJKAS_clean_linker_0, # of connection points: 2
#     Edge 67, Type (0, 0), BuildingBlock: ZUJKAS_clean_linker_0, # of connection points: 2
#     Edge 68, Type (0, 0), BuildingBlock: ZUJKAS_clean_linker_0, # of connection points: 2
#     Edge 69, Type (0, 0), BuildingBlock: ZUJKAS_clean_linker_0, # of connection points: 2
#     Edge 70, Type (0, 0), BuildingBlock: ZUJKAS_clean_linker_0, # of connection points: 2
#     Edge 71, Type (0, 0), BuildingBlock: ZUJKAS_clean_linker_0, # of connection points: 2
# Relax obj value: 0.210
# Max RMSD: 0.238
# Mean RMSD: 0.238
data_MOF--net-smg--node1-OJICUG_clean_sbu_0--edge1-ZUJKAS_clean_linker_0
_symmetry_space_group_name_H-M    P1
_symmetry_Int_Tables_number       1
_symmetry_cell_setting            triclinic
loop_
_symmetry_equiv_pos_as_xyz
'x, y, z'
_cell_length_a     57.529628
_cell_length_b     57.541405
_cell_length_c     57.625701
_cell_angle_alpha  90.030136
_cell_angle_beta   89.970831
_cell_angle_gamma 119.98158
loop_
_atom_site_label
_atom_site_type_symbol
_atom_site_fract_x
_atom_site_fract_y
_atom_site_fract_z
_atom_type_partial_charge
Sc0 Sc 0.0073 0.62313 0.24219 0.0
Sc1 Sc 0.97367 0.55563 0.22447 0.0
Sc2 Sc 0.02938 0.57968 0.26209 0.0
O3 O 0.00347 0.58613 0.24291 0.0
C4 C 0.06854 0.63739 0.24195 0.0
C5 C 0.993 0.60542 0.18975 0.0
C6 C 0.02309 0.54622 0.21592 0.0
C7 C 0.94358 0.5851 0.24368 0.0
C8 C 0.01875 0.61815 0.29514 0.0
C9 C 0.97378 0.52633 0.27149 0.0
O10 O 0.05008 0.64318 0.23977 0.0
O11 O 0.97997 0.58051 0.19451 0.0
O12 O 0.03452 0.55706 0.23496 0.0
O13 O 0.96498 0.60769 0.24481 0.0
O14 O 0.02733 0.60197 0.29134 0.0
O15 O 0.96342 0.52729 0.25232 0.0
O16 O 0.00966 0.62671 0.27924 0.0
O17 O 0.94327 0.56362 0.23788 0.0
O18 O 0.99721 0.54415 0.27772 0.0
O19 O 0.0054 0.62339 0.20501 0.0
O20 O 0.0644 0.61456 0.24845 0.0
O21 O 0.00124 0.54469 0.20935 0.0
Sc22 Sc 0.45981 0.40104 0.22433 0.0
Sc23 Sc 0.42625 0.43056 0.25206 0.0
Sc24 Sc 0.39267 0.36086 0.24271 0.0
O25 O 0.42627 0.39749 0.23968 0.0
C26 C 0.41265 0.3584 0.1918 0.0
C27 C 0.4595 0.4529 0.20508 0.0
C28 C 0.36775 0.39812 0.23055 0.0
C29 C 0.48439 0.44164 0.26689 0.0
C30 C 0.43878 0.34664 0.25242 0.0
C31 C 0.39396 0.38709 0.29154 0.0
O32 O 0.43713 0.37549 0.19582 0.0
O33 O 0.44555 0.45389 0.22172 0.0
O34 O 0.3663 0.37549 0.23288 0.0
O35 O 0.48584 0.42698 0.25111 0.0
O36 O 0.41461 0.34149 0.25271 0.0
O37 O 0.40682 0.41097 0.28385 0.0
O38 O 0.45782 0.36786 0.24359 0.0
O39 O 0.46407 0.44463 0.26949 0.0
O40 O 0.38797 0.36669 0.27897 0.0
O41 O 0.46612 0.43491 0.20351 0.0
O42 O 0.39418 0.35144 0.20686 0.0
O43 O 0.38852 0.42013 0.23588 0.0
Sc44 Sc 0.57427 0.01255 0.24052 0.0
Sc45 Sc 0.55127 0.95238 0.27197 0.0
Sc46 Sc 0.61637 0.98512 0.24777 0.0
O47 O 0.58063 0.98333 0.25343 0.0
C48 C 0.60573 0.00362 0.19896 0.0
C49 C 0.51822 0.95934 0.23097 0.0
C50 C 0.57533 0.92232 0.24286 0.0
C51 C 0.54638 0.00219 0.29015 0.0
C52 C 0.63492 0.04673 0.25688 0.0
C53 C 0.60429 0.96612 0.30039 0.0
O54 O 0.59083 0.01205 0.20726 0.0
O55 O 0.52082 0.9457 0.24703 0.0
O56 O 0.598 0.94324 0.23985 0.0
O57 O 0.55722 0.01646 0.2723 0.0
O58 O 0.6392 0.02719 0.25516 0.0
O59 O 0.57897 0.95573 0.29861 0.0
O60 O 0.61222 0.04457 0.25283 0.0
O61 O 0.54263 0.97858 0.2925 0.0
O62 O 0.62034 0.97774 0.28363 0.0
O63 O 0.53571 0.98362 0.2268 0.0
O64 O 0.61611 0.99287 0.2113 0.0
O65 O 0.5561 0.9224 0.25361 0.0
Sc66 Sc 0.00135 0.39006 0.74357 0.0
Sc67 Sc 0.03046 0.45668 0.76327 0.0
Sc68 Sc 0.97475 0.43041 0.72568 0.0
O69 O 0.00217 0.42572 0.74419 0.0
C70 C 0.98917 0.39597 0.69121 0.0
C71 C 0.06429 0.43208 0.742 0.0
C72 C 0.02834 0.48596 0.717 0.0
C73 C 0.01422 0.40632 0.79632 0.0
C74 C 0.93895 0.37147 0.74544 0.0
C75 C 0.97841 0.46125 0.77282 0.0
O76 O -0.00091 0.38773 0.70659 0.0
O77 O 0.06265 0.45215 0.749 0.0
O78 O 0.00543 0.4673 0.71046 0.0
O79 O 0.00343 0.38879 0.7805 0.0
O80 O 0.94152 0.39383 0.73923 0.0
O81 O 0.0009 0.46418 0.77917 0.0
O82 O 0.95854 0.36721 0.74662 0.0
O83 O 0.02574 0.43139 0.79243 0.0
O84 O 0.96758 0.45086 0.7535 0.0
O85 O 0.04411 0.40861 0.7404 0.0
O86 O 0.97871 0.41037 0.69574 0.0
O87 O 0.03881 0.48541 0.73623 0.0
Sc88 Sc 0.56165 0.59645 0.76602 0.0
Sc89 Sc 0.58261 0.56343 0.72666 0.0
Sc90 Sc 0.62464 0.63184 0.73879 0.0
O91 O 0.58956 0.59724 0.74382 0.0
C92 C 0.58321 0.65323 0.74229 0.0
C93 C 0.52676 0.56218 0.72252 0.0
C94 C 0.61252 0.6086 0.68792 0.0
C95 C 0.55666 0.53984 0.77603 0.0
C96 C 0.61644 0.63223 0.7933 0.0
C97 C 0.64353 0.58816 0.74099 0.0
O98 O 0.56509 0.63315 0.75312 0.0
O99 O 0.54427 0.5567 0.71491 0.0
O100 O 0.62167 0.62818 0.70194 0.0
O101 O 0.55509 0.56013 0.78229 0.0
O102 O 0.63121 0.63903 0.77534 0.0
O103 O 0.62048 0.56779 0.73756 0.0
O104 O 0.59104 0.61753 0.79253 0.0
O105 O 0.5648 0.53767 0.75613 0.0
O106 O 0.64791 0.61211 0.74052 0.0
O107 O 0.52976 0.57529 0.74118 0.0
O108 O 0.60541 0.65543 0.73625 0.0
O109 O 0.5995 0.58429 0.6945 0.0
Sc110 Sc 0.42917 0.9765 0.75908 0.0
Sc111 Sc 0.44419 0.02765 0.71805 0.0
Sc112 Sc 0.38065 0.99381 0.74454 0.0
O113 O 0.41809 -0.00061 0.74053 0.0
C114 C 0.36969 0.9336 0.74607 0.0
C115 C 0.45728 0.98059 0.71032 0.0
C116 C 0.38869 -0.00017 0.69007 0.0
C117 C 0.48071 0.03508 0.76229 0.0
C118 C 0.39531 0.98893 0.79618 0.0
C119 C 0.41475 0.05742 0.73832 0.0
O120 O 0.39396 0.93961 0.74894 0.0
O121 O 0.45645 0.00109 0.70334 0.0
O122 O 0.37388 0.99026 0.70789 0.0
O123 O 0.46536 0.01166 0.77037 0.0
O124 O 0.38445 0.99692 0.78144 0.0
O125 O 0.43539 0.05799 0.72982 0.0
O126 O 0.41026 0.97941 0.79045 0.0
O127 O 0.47625 0.04321 0.74316 0.0
O128 O 0.39367 0.03576 0.74362 0.0
O129 O 0.44907 0.97031 0.73023 0.0
O130 O 0.36225 0.95098 0.74594 0.0
O131 O 0.41413 0.01452 0.69115 0.0
Sc132 Sc 0.69149 0.97111 0.58019 0.0
Sc133 Sc 0.66681 0.9025 0.57141 0.0
Sc134 Sc 0.7216 0.93896 0.60891 0.0
O135 O 0.69334 0.93752 0.58686 0.0
C136 C 0.75483 0.99409 0.58256 0.0
C137 C 0.68063 0.9451 0.5305 0.0
C138 C 0.72142 0.9016 0.5677 0.0
C139 C 0.62934 0.92625 0.58321 0.0
C140 C 0.7019 0.97566 0.63426 0.0
C141 C 0.67096 0.88325 0.6224 0.0
O142 O 0.73428 0.9962 0.57845 0.0
O143 O 0.66943 0.92132 0.53845 0.0
O144 O 0.73145 0.91521 0.58613 0.0
O145 O 0.64834 0.95034 0.58119 0.0
O146 O 0.71482 0.96303 0.63382 0.0
O147 O 0.66065 0.87923 0.60228 0.0
O148 O 0.69122 0.97925 0.61636 0.0
O149 O 0.6329 0.90621 0.58184 0.0
O150 O 0.69247 0.90445 0.62791 0.0
O151 O 0.6915 0.96573 0.54342 0.0
O152 O 0.7536 0.97372 0.59228 0.0
O153 O 0.69859 0.89614 0.55986 0.0
Sc154 Sc 0.06007 0.71455 0.57792 0.0
Sc155 Sc 0.12609 0.75845 0.55923 0.0
Sc156 Sc 0.09555 0.7801 0.60039 0.0
O157 O 0.09391 0.75105 0.57917 0.0
C158 C 0.03603 0.7539 0.58139 0.0
C159 C 0.07682 0.72435 0.52492 0.0
C160 C 0.12518 0.8132 0.55479 0.0
C161 C 0.10589 0.69873 0.57534 0.0
C162 C 0.06423 0.72738 0.63172 0.0
C163 C 0.15365 0.78699 0.60703 0.0
O164 O 0.03417 0.73128 0.57774 0.0
O165 O 0.10165 0.73964 0.52912 0.0
O166 O 0.11387 0.81073 0.57429 0.0
O167 O 0.08182 0.69341 0.57792 0.0
O168 O 0.07699 0.75267 0.62881 0.0
O169 O 0.15407 0.77777 0.58709 0.0
O170 O 0.05756 0.71084 0.61502 0.0
O171 O 0.1249 0.72184 0.56975 0.0
O172 O 0.13375 0.78872 0.61446 0.0
O173 O 0.0591 0.71444 0.54073 0.0
O174 O 0.05741 0.77426 0.58854 0.0
O175 O 0.13051 0.79576 0.54683 0.0
Sc176 Sc 0.29775 0.35587 0.57746 0.0
Sc177 Sc 0.25967 0.38282 0.55392 0.0
Sc178 Sc 0.22835 0.32425 0.58816 0.0
O179 O 0.26192 0.35432 0.57316 0.0
C180 C 0.25802 0.29278 0.5725 0.0
C181 C 0.29956 0.37081 0.52417 0.0
C182 C 0.2066 0.32913 0.53864 0.0
C183 C 0.31501 0.41791 0.58002 0.0
C184 C 0.27243 0.34032 0.62797 0.0
C185 C 0.22057 0.37491 0.5961 0.0
O186 O 0.28113 0.31357 0.5727 0.0
O187 O 0.28402 0.38043 0.5266 0.0
O188 O 0.20512 0.31638 0.55708 0.0
O189 O 0.3192 0.39842 0.58267 0.0
O190 O 0.24834 0.32926 0.62078 0.0
O191 O 0.23543 0.38843 0.57925 0.0
O192 O 0.29266 0.35114 0.61452 0.0
O193 O 0.29389 0.41548 0.57076 0.0
O194 O 0.21606 0.35152 0.60112 0.0
O195 O 0.3059 0.3606 0.54085 0.0
O196 O 0.23674 0.29343 0.57701 0.0
O197 O 0.22496 0.35326 0.53511 0.0
Sc198 Sc 0.7007 0.78788 0.08689 0.0
Sc199 Sc 0.64255 0.74542 0.05462 0.0
Sc200 Sc 0.68521 0.72199 0.07425 0.0
O201 O 0.67609 0.75176 0.07194 0.0
C202 C 0.74341 0.77347 0.06767 0.0
C203 C 0.68456 0.80583 0.0402 0.0
C204 C 0.66768 0.71891 0.02163 0.0
C205 C 0.64203 0.77774 0.09923 0.0
C206 C 0.69874 0.74629 0.12481 0.0
C207 C 0.62134 0.6882 0.07796 0.0
O208 O 0.7367 0.7909 0.07227 0.0
O209 O 0.66306 0.78364 0.03701 0.0
O210 O 0.68112 0.7156 0.03747 0.0
O211 O 0.66718 0.78864 0.1028 0.0
O212 O 0.69035 0.72637 0.11113 0.0
O213 O 0.6173 0.7064 0.06987 0.0
O214 O 0.70432 0.7696 0.1182 0.0
O215 O 0.63023 0.76187 0.08238 0.0
O216 O 0.64459 0.6911 0.07997 0.0
O217 O 0.69993 0.81012 0.05741 0.0
O218 O 0.72716 0.74844 0.06883 0.0
O219 O 0.6523 0.72849 0.02543 0.0
Sc220 Sc 0.22636 0.91838 0.09402 0.0
Sc221 Sc 0.25478 0.88786 0.06015 0.0
Sc222 Sc 0.29468 0.95475 0.07894 0.0
O223 O 0.25862 0.92032 0.07772 0.0
C224 C 0.25402 0.9768 0.07235 0.0
C225 C 0.20064 0.88682 0.04681 0.0
C226 C 0.29362 0.93626 0.02691 0.0
C227 C 0.21949 0.86123 0.10548 0.0
C228 C 0.2735 0.95239 0.1301 0.0
C229 C 0.31139 0.90976 0.08447 0.0
O230 O 0.23323 0.95554 0.07903 0.0
O231 O 0.21936 0.88188 0.04225 0.0
O232 O 0.30087 0.95426 0.04238 0.0
O233 O 0.21649 0.88107 0.11054 0.0
O234 O 0.29248 0.95932 0.11564 0.0
O235 O 0.28975 0.89057 0.07636 0.0
O236 O 0.2489 0.93825 0.12463 0.0
O237 O 0.2316 0.86043 0.08732 0.0
O238 O 0.31601 0.93376 0.08575 0.0
O239 O 0.20007 0.89864 0.06524 0.0
O240 O 0.27731 0.97946 0.07218 0.0
O241 O 0.27779 0.91152 0.03096 0.0
Sc242 Sc 0.07748 0.29739 0.09326 0.0
Sc243 Sc 0.11018 0.35444 0.05741 0.0
Sc244 Sc 0.04431 0.33126 0.07492 0.0
O245 O 0.0774 0.32762 0.07525 0.0
C246 C 0.01806 0.26749 0.07464 0.0
C247 C 0.10721 0.29909 0.04596 0.0
C248 C 0.06182 0.34341 0.02325 0.0
C249 C 0.13649 0.34511 0.10278 0.0
C250 C 0.04826 0.31889 0.12732 0.0
C251 C 0.09094 0.39261 0.07708 0.0
O252 O 0.03949 0.26719 0.07921 0.0
O253 O 0.11222 0.32245 0.04001 0.0
O254 O 0.04327 0.33099 0.03799 0.0
O255 O 0.11548 0.32387 0.10916 0.0
O256 O 0.04354 0.33165 0.11181 0.0
O257 O 0.11027 0.38827 0.07368 0.0
O258 O 0.0584 0.30406 0.12293 0.0
O259 O 0.1378 0.35725 0.08398 0.0
O260 O 0.06652 0.37434 0.07554 0.0
O261 O 0.09667 0.28828 0.06531 0.0
O262 O 0.01691 0.28892 0.07424 0.0
O263 O 0.08663 0.35512 0.02849 0.0
Sc264 Sc 0.32376 0.28062 0.90865 0.0
Sc265 Sc 0.29822 0.21787 0.88165 0.0
Sc266 Sc 0.35911 0.24573 0.91282 0.0
O267 O 0.32708 0.24807 0.90101 0.0
C268 C 0.38561 0.30693 0.89686 0.0
C269 C 0.30361 0.26858 0.85586 0.0
C270 C 0.35191 0.22077 0.86251 0.0
C271 C 0.26388 0.23409 0.91452 0.0
C272 C 0.34751 0.2723 0.95607 0.0
C273 C 0.30961 0.18631 0.92083 0.0
O274 O 0.36367 0.30722 0.897 0.0
O275 O 0.30016 0.245 0.8554 0.0
O276 O 0.36643 0.23397 0.87959 0.0
O277 O 0.2837 0.25619 0.92104 0.0
O278 O 0.35543 0.2572 0.94739 0.0
O279 O 0.29395 0.18842 0.90656 0.0
O280 O 0.33699 0.28312 0.94402 0.0
O281 O 0.26548 0.21924 0.899 0.0
O282 O 0.33391 0.20465 0.92382 0.0
O283 O 0.31018 0.28283 0.87417 0.0
O284 O 0.38753 0.28679 0.90329 0.0
O285 O 0.32688 0.21248 0.86155 0.0
Sc286 Sc 0.76057 0.09684 0.89864 0.0
Sc287 Sc 0.73715 0.13095 0.93391 0.0
Sc288 Sc 0.69198 0.06633 0.91249 0.0
O289 O 0.72991 0.09804 0.91505 0.0
C290 C 0.71345 0.07033 0.86112 0.0
C291 C 0.77447 0.15715 0.88953 0.0
C292 C 0.68178 0.11595 0.90984 0.0
C293 C 0.78765 0.12455 0.94676 0.0
C294 C 0.72638 0.03686 0.91687 0.0
C295 C 0.69477 0.08251 0.96549 0.0
O296 O 0.73789 0.08122 0.86728 0.0
O297 O 0.76208 0.15834 0.90735 0.0
O298 O 0.6747 0.09136 0.90754 0.0
O299 O 0.78659 0.11218 0.92819 0.0
O300 O 0.70449 0.03721 0.91726 0.0
O301 O 0.71269 0.10692 0.96244 0.0
O302 O 0.74868 0.05718 0.91132 0.0
O303 O 0.77109 0.13247 0.95138 0.0
O304 O 0.68576 0.06534 0.9492 0.0
O305 O 0.77564 0.13632 0.88415 0.0
O306 O 0.69442 0.06428 0.87539 0.0
O307 O 0.70426 0.13327 0.91826 0.0
Sc308 Sc 0.92381 0.70503 0.88695 0.0
Sc309 Sc 0.89148 0.65153 0.92667 0.0
Sc310 Sc 0.95798 0.67392 0.9099 0.0
O311 O 0.92439 0.67686 0.90784 0.0
C312 C 0.95534 0.6833 0.85614 0.0
C313 C 0.86553 0.6551 0.87864 0.0
C314 C 0.91168 0.61229 0.91043 0.0
C315 C 0.8929 0.70727 0.93227 0.0
C316 C 0.98264 0.73744 0.90726 0.0
C317 C 0.93951 0.66499 0.96221 0.0
O318 O 0.94338 0.6967 0.85878 0.0
O319 O 0.86427 0.64484 0.89846 0.0
O320 O 0.93602 0.63093 0.9097 0.0
O321 O 0.9044 0.71643 0.91286 0.0
O322 O 0.98438 0.71652 0.91032 0.0
O323 O 0.91475 0.65466 0.95717 0.0
O324 O 0.9614 0.73673 0.90017 0.0
O325 O 0.88764 0.68445 0.94006 0.0
O326 O 0.95797 0.67474 0.94703 0.0
O327 O 0.8861 0.67641 0.87167 0.0
O328 O 0.96092 0.67267 0.87295 0.0
O329 O 0.89241 0.61647 0.91472 0.0
Sc330 Sc 0.3179 0.03436 0.41582 0.0
Sc331 Sc 0.35528 0.09915 0.43967 0.0
Sc332 Sc 0.30244 0.08416 0.40049 0.0
O333 O 0.32526 0.07262 0.41865 0.0
C334 C 0.31134 0.0475 0.36384 0.0
C335 C 0.38192 0.06698 0.41864 0.0
C336 C 0.36132 0.13494 0.39529 0.0
C337 C 0.32815 0.0451 0.46972 0.0
C338 C 0.25852 0.02562 0.41579 0.0
C339 C 0.30951 0.11386 0.44896 0.0
O340 O 0.31806 0.03573 0.37878 0.0
O341 O 0.38388 0.08844 0.42669 0.0
O342 O 0.33741 0.11982 0.38818 0.0
O343 O 0.3169 0.02949 0.45266 0.0
O344 O 0.2652 0.04979 0.41141 0.0
O345 O 0.33029 0.11302 0.45513 0.0
O346 O 0.27527 0.01742 0.41671 0.0
O347 O 0.34324 0.07036 0.46752 0.0
O348 O 0.29797 0.10494 0.42957 0.0
O349 O 0.35955 0.04606 0.41465 0.0
O350 O 0.30418 0.06446 0.3692 0.0
O351 O 0.37031 0.13046 0.4139 0.0
Sc352 Sc 0.8901 0.25461 0.42861 0.0
Sc353 Sc 0.92151 0.23072 0.39051 0.0
Sc354 Sc 0.95538 0.29825 0.40836 0.0
O355 O 0.92231 0.26117 0.40915 0.0
C356 C 0.90823 0.31237 0.40856 0.0
C357 C 0.86212 0.22037 0.38318 0.0
C358 C 0.94975 0.2805 0.35576 0.0
C359 C 0.89396 0.20201 0.43812 0.0
C360 C 0.93959 0.29266 0.46131 0.0
C361 C 0.98177 0.26082 0.40822 0.0
O362 O 0.88976 0.28947 0.41522 0.0
O363 O 0.88223 0.21842 0.37678 0.0
O364 O 0.95668 0.2984 0.37131 0.0
O365 O 0.88726 0.21919 0.44392 0.0
O366 O 0.95708 0.30153 0.4453 0.0
O367 O 0.96072 0.23952 0.40205 0.0
O368 O 0.91478 0.27665 0.45766 0.0
O369 O 0.9055 0.20306 0.41903 0.0
O370 O 0.98266 0.28319 0.41042 0.0
O371 O 0.8619 0.23208 0.40178 0.0
O372 O 0.93252 0.31826 0.40633 0.0
O373 O 0.93784 0.25551 0.36022 0.0
Sc374 Sc 0.762 0.65608 0.42666 0.0
Sc375 Sc 0.79915 0.71714 0.39637 0.0
Sc376 Sc 0.73157 0.69379 0.41088 0.0
O377 O 0.76423 0.68899 0.41129 0.0
C378 C 0.70603 0.63126 0.40012 0.0
C379 C 0.79727 0.66284 0.38167 0.0
C380 C 0.75588 0.71462 0.36057 0.0
C381 C 0.81937 0.70291 0.44293 0.0
C382 C 0.72663 0.66905 0.46113 0.0
C383 C 0.77892 0.75311 0.42162 0.0
O384 O 0.72514 0.62908 0.40891 0.0
O385 O 0.80455 0.68738 0.37823 0.0
O386 O 0.73672 0.70509 0.37506 0.0
O387 O 0.79853 0.68009 0.44599 0.0
O388 O 0.72217 0.68298 0.44667 0.0
O389 O 0.79751 0.74984 0.41318 0.0
O390 O 0.74044 0.65807 0.45624 0.0
O391 O 0.82254 0.71757 0.42541 0.0
O392 O 0.75439 0.73484 0.42168 0.0
O393 O 0.78288 0.64962 0.39882 0.0
O394 O 0.70566 0.65317 0.39999 0.0
O395 O 0.77953 0.72007 0.36572 0.0
H396 H 0.06108 0.41598 0.0685 0.0
H397 H 0.06227 0.45311 0.08971 0.0
H398 H 0.13294 0.4656 0.12643 0.0
H399 H 0.13175 0.42803 0.10513 0.0
H400 H 0.09031 0.45457 0.15492 0.0
H401 H 0.1052 0.53427 0.09331 0.0
H402 H 0.08048 0.50184 0.08286 0.0
H403 H 0.11467 0.50944 0.08658 0.0
C404 C 0.07742 0.4272 0.08053 0.0
C405 C 0.0962 0.41904 0.08534 0.0
C406 C 0.07822 0.4486 0.09251 0.0
C407 C 0.09782 0.46227 0.10952 0.0
C408 C 0.1178 0.45543 0.1132 0.0
H409 H 0.07189 0.54972 0.22226 0.0
H410 H 0.09413 0.53285 0.19693 0.0
C411 C 0.11716 0.43406 0.10099 0.0
C412 C 0.09409 0.47989 0.12597 0.0
H413 H 0.07914 0.53026 0.12793 0.0
C414 C 0.08858 0.4716 0.14921 0.0
C415 C 0.09163 0.50193 0.1184 0.0
C416 C 0.09859 0.51254 0.09395 0.0
C417 C 0.07883 0.48353 0.16468 0.0
C418 C 0.07497 0.50461 0.15674 0.0
C419 C 0.08189 0.5139 0.13387 0.0
C420 C 0.0622 0.51607 0.17154 0.0
C421 C 0.07118 0.47238 0.18895 0.0
C422 C 0.03711 0.51272 0.16537 0.0
C423 C 0.02429 0.52241 0.17976 0.0
C424 C 0.0364 0.53568 0.2006 0.0
C425 C 0.06179 0.53934 0.20649 0.0
C426 C 0.07459 0.52971 0.19205 0.0
H427 H 0.07043 0.4528 0.19083 0.0
H428 H 0.08624 0.4867 0.20141 0.0
H429 H 0.0513 0.4697 0.19381 0.0
H430 H 0.02726 0.50223 0.14955 0.0
H431 H 0.00486 0.51937 0.1746 0.0
H432 H 0.49985 0.46659 0.17344 0.0
H433 H 0.51921 0.5053 0.14739 0.0
H434 H 0.46057 0.52619 0.17019 0.0
H435 H 0.44146 0.48796 0.1967 0.0
H436 H 0.49897 0.52199 0.11129 0.0
H437 H 0.53106 0.59339 0.18551 0.0
H438 H 0.51898 0.55808 0.18939 0.0
H439 H 0.49574 0.56977 0.18412 0.0
C440 C 0.4909 0.47927 0.17278 0.0
C441 C 0.4694 0.47444 0.18743 0.0
C442 C 0.50197 0.50135 0.15786 0.0
C443 C 0.49165 0.51889 0.15724 0.0
C444 C 0.46923 0.51327 0.17084 0.0
H445 H 0.57102 0.67789 0.09063 0.0
H446 H 0.53465 0.63594 0.10693 0.0
C447 C 0.45832 0.49136 0.18593 0.0
C448 C 0.50538 0.54377 0.14328 0.0
H449 H 0.54227 0.61197 0.14815 0.0
C450 C 0.5082 0.54168 0.1193 0.0
C451 C 0.51733 0.56945 0.15379 0.0
C452 C 0.51588 0.57295 0.17963 0.0
C453 C 0.52336 0.56459 0.10564 0.0
C454 C 0.53611 0.59011 0.11632 0.0
C455 C 0.53227 0.59231 0.14006 0.0
C456 C 0.55634 0.61435 0.104 0.0
C457 C 0.52615 0.56131 0.08 0.0
C458 C 0.58043 0.61595 0.09704 0.0
C459 C 0.60121 0.63978 0.08805 0.0
C460 C 0.5983 0.66253 0.08578 0.0
C461 C 0.5738 0.66066 0.09208 0.0
C462 C 0.55304 0.63678 0.10137 0.0
H463 H 0.50932 0.5421 0.07338 0.0
H464 H 0.52688 0.57816 0.07001 0.0
H465 H 0.54512 0.56119 0.07683 0.0
H466 H 0.58354 0.59901 0.09935 0.0
H467 H 0.61976 0.64049 0.08325 0.0
H468 H 0.50476 0.98163 0.19532 0.0
H469 H 0.46693 0.95915 0.1688 0.0
H470 H 0.44042 0.88424 0.20457 0.0
H471 H 0.47819 0.90656 0.2315 0.0
H472 H 0.45421 0.91277 0.13955 0.0
H473 H 0.37384 0.89495 0.20328 0.0
H474 H 0.40861 0.91922 0.20874 0.0
H475 H 0.39733 0.88404 0.21049 0.0
C476 C 0.49087 0.96041 0.19772 0.0
C477 C 0.49448 0.94595 0.21565 0.0
C478 C 0.46934 0.94758 0.18246 0.0
C479 C 0.45098 0.92011 0.18481 0.0
C480 C 0.45433 0.90553 0.20265 0.0
H481 H 0.30358 0.86268 0.10323 0.0
H482 H 0.33659 0.85613 0.12496 0.0
C483 C 0.47591 0.91836 0.21801 0.0
C484 C 0.42825 0.90728 0.16852 0.0
H485 H 0.36207 0.88829 0.164 0.0
C486 C 0.43389 0.90677 0.1449 0.0
C487 C 0.40177 0.89912 0.17567 0.0
C488 C 0.39482 0.89936 0.20089 0.0
C489 C 0.41408 0.90033 0.12802 0.0
C490 C 0.38825 0.89467 0.13503 0.0
C491 C 0.38197 0.8927 0.15874 0.0
C492 C 0.36949 0.89625 0.11855 0.0
C493 C 0.42134 0.90108 0.10278 0.0
C494 C 0.37724 0.92083 0.10763 0.0
C495 C 0.35853 0.92471 0.09556 0.0
C496 C 0.33169 0.90404 0.09414 0.0
C497 C 0.32421 0.87889 0.10397 0.0
C498 C 0.34297 0.87512 0.11636 0.0
H499 H 0.43747 0.89599 0.10055 0.0
H500 H 0.40366 0.88697 0.0923 0.0
H501 H 0.42896 0.92168 0.09596 0.0
H502 H 0.39747 0.93757 0.10956 0.0
H503 H 0.36488 0.94425 0.08806 0.0
H504 H 0.38747 0.02289 0.41605 0.0
H505 H 0.42571 0.02024 0.40119 0.0
H506 H 0.47002 0.10617 0.39248 0.0
H507 H 0.43158 0.10906 0.40752 0.0
H508 H 0.46356 0.0753 0.35186 0.0
H509 H 0.50139 0.04132 0.42508 0.0
H510 H 0.4655 0.02274 0.4224 0.0
H511 H 0.48206 0.05794 0.42921 0.0
C512 C 0.40551 0.04132 0.4114 0.0
C513 C 0.40647 0.06617 0.41275 0.0
C514 C 0.42746 0.03979 0.40315 0.0
C515 C 0.45077 0.06304 0.39604 0.0
C516 C 0.45227 0.08805 0.39818 0.0
H517 H 0.5637 0.055 0.29857 0.0
H518 H 0.54559 0.07371 0.32659 0.0
C519 C 0.43034 0.08966 0.40673 0.0
C520 C 0.47154 0.06032 0.38326 0.0
H521 H 0.51066 0.03135 0.38663 0.0
C522 C 0.47444 0.06632 0.3595 0.0
C523 C 0.4854 0.04838 0.39335 0.0
C524 C 0.48365 0.04244 0.41898 0.0
C525 C 0.48939 0.05897 0.34517 0.0
C526 C 0.50238 0.04596 0.35508 0.0
C527 C 0.50062 0.04125 0.37909 0.0
C528 C 0.51597 0.03519 0.34046 0.0
C529 C 0.4896 0.06361 0.31935 0.0
C530 C 0.50628 0.00744 0.33988 0.0
C531 C 0.51684 0.99668 0.32412 0.0
C532 C 0.53712 0.01353 0.30857 0.0
C533 C 0.5477 0.04145 0.31002 0.0
C534 C 0.53738 0.05218 0.32599 0.0
H535 H 0.47373 0.06818 0.3141 0.0
H536 H 0.50927 0.08093 0.31433 0.0
H537 H 0.48667 0.04577 0.30947 0.0
H538 H 0.48982 0.994 0.35101 0.0
H539 H 0.50838 0.97513 0.32349 0.0
H540 H 0.98982 0.51423 0.31221 0.0
H541 H 0.96356 0.4761 0.33775 0.0
H542 H 0.89485 0.44926 0.2929 0.0
H543 H 0.92104 0.48715 0.26694 0.0
H544 H 0.91391 0.4592 0.36154 0.0
H545 H 0.90701 0.38471 0.29587 0.0
H546 H 0.93016 0.42015 0.29266 0.0
H547 H 0.89498 0.40697 0.28762 0.0
C548 C 0.96912 0.50029 0.30773 0.0
C549 C 0.95767 0.50359 0.28734 0.0
C550 C 0.9541 0.47859 0.32243 0.0
C551 C 0.92737 0.4598 0.31707 0.0
C552 C 0.91557 0.46337 0.29714 0.0
H553 H 0.8626 0.30498 0.38705 0.0
H554 H 0.85699 0.33982 0.36749 0.0
C555 C 0.93062 0.48503 0.28234 0.0
C556 C 0.9127 0.43581 0.33188 0.0
H557 H 0.89333 0.36936 0.3336 0.0
C558 C 0.90883 0.4394 0.35537 0.0
C559 C 0.90573 0.40996 0.32367 0.0
C560 C 0.90974 0.40504 0.29863 0.0
C561 C 0.90001 0.41817 0.37122 0.0
C562 C 0.89538 0.39294 0.36337 0.0
C563 C 0.89689 0.38876 0.33956 0.0
C564 C 0.89481 0.37273 0.37954 0.0
C565 C 0.89703 0.42329 0.39641 0.0
C566 C 0.91756 0.37982 0.39322 0.0
C567 C 0.9209 0.3601 0.40407 0.0
C568 C 0.90153 0.33291 0.40152 0.0
C569 C 0.87773 0.32586 0.38938 0.0
C570 C 0.87452 0.34569 0.37822 0.0
H571 H 0.89083 0.43865 0.39819 0.0
H572 H 0.8821 0.40464 0.40536 0.0
H573 H 0.91669 0.43111 0.40524 0.0
H574 H 0.93376 0.40044 0.39406 0.0
H575 H 0.93938 0.36604 0.41342 0.0
H576 H 0.48811 0.47194 0.30487 0.0
H577 H 0.52756 0.49862 0.32905 0.0
H578 H 0.57265 0.4714 0.28892 0.0
H579 H 0.5334 0.44466 0.2645 0.0
H580 H 0.56212 0.48266 0.35536 0.0
H581 H 0.61331 0.55574 0.28361 0.0
H582 H 0.57761 0.53257 0.28357 0.0
H583 H 0.60051 0.5208 0.27725 0.0
C584 C 0.50633 0.47145 0.30122 0.0
C585 C 0.50765 0.45639 0.28255 0.0
C586 C 0.52879 0.48659 0.31515 0.0
C587 C 0.55293 0.48704 0.31059 0.0
C588 C 0.55416 0.47138 0.29253 0.0
H589 H 0.6997 0.58103 0.39354 0.0
H590 H 0.66331 0.54327 0.37255 0.0
C591 C 0.53169 0.45614 0.27862 0.0
C592 C 0.57723 0.50536 0.32381 0.0
H593 H 0.63559 0.56513 0.31943 0.0
C594 C 0.57841 0.50053 0.34752 0.0
C595 C 0.59822 0.52865 0.31341 0.0
C596 C 0.59747 0.53501 0.2881 0.0
C597 C 0.59992 0.51887 0.3613 0.0
C598 C 0.62054 0.54245 0.35098 0.0
C599 C 0.61971 0.54687 0.32716 0.0
C600 C 0.64174 0.56419 0.3649 0.0
C601 C 0.59998 0.51363 0.38693 0.0
C602 C 0.64144 0.58822 0.36749 0.0
C603 C 0.66203 0.60972 0.37936 0.0
C604 C 0.68348 0.60766 0.38881 0.0
C605 C 0.68348 0.58328 0.38653 0.0
C606 C 0.66272 0.56168 0.37461 0.0
H607 H 0.58124 0.49548 0.39261 0.0
H608 H 0.61724 0.51081 0.39108 0.0
H609 H 0.60245 0.53117 0.39703 0.0
H610 H 0.62535 0.59044 0.36007 0.0
H611 H 0.66126 0.62809 0.3808 0.0
H612 H 0.94442 0.59142 0.91555 0.0
H613 H 0.94099 0.55274 0.89523 0.0
H614 H 0.86319 0.53346 0.8689 0.0
H615 H 0.86664 0.57264 0.88912 0.0
H616 H 0.90398 0.49633 0.89074 0.0
H617 H 0.91257 0.55537 0.81112 0.0
H618 H 0.91797 0.56994 0.83969 0.0
H619 H 0.88458 0.5465 0.83014 0.0
C620 C 0.92625 0.57857 0.90593 0.0
C621 C 0.90603 0.58531 0.9035 0.0
C622 C 0.92425 0.55638 0.89444 0.0
C623 C 0.90209 0.54063 0.88023 0.0
C624 C 0.88061 0.54566 0.87958 0.0
H625 H 0.92872 0.45569 0.76646 0.0
H626 H 0.90422 0.46894 0.79287 0.0
C627 C 0.88254 0.56792 0.89123 0.0
C628 C 0.90407 0.52213 0.86364 0.0
H629 H 0.92076 0.51982 0.80723 0.0
C630 C 0.90701 0.50098 0.87236 0.0
C631 C 0.90807 0.52836 0.8397 0.0
C632 C 0.90581 0.55133 0.82948 0.0
C633 C 0.9153 0.48682 0.85795 0.0
C634 C 0.92119 0.4944 0.83441 0.0
C635 C 0.91636 0.51421 0.82535 0.0
C636 C 0.93492 0.48415 0.81939 0.0
C637 C 0.91845 0.46445 0.86822 0.0
C638 C 0.96047 0.48864 0.82546 0.0
C639 C 0.97464 0.48122 0.81038 0.0
C640 C 0.96361 0.46938 0.78883 0.0
C641 C 0.93793 0.46486 0.78286 0.0
C642 C 0.92378 0.47226 0.79798 0.0
H643 H 0.90499 0.45528 0.8834 0.0
H644 H 0.91409 0.44855 0.85519 0.0
H645 H 0.93942 0.47269 0.8743 0.0
H646 H 0.96975 0.4985 0.84163 0.0
H647 H 0.99434 0.48502 0.81554 0.0
H648 H 0.53119 0.48666 0.76595 0.0
H649 H 0.51232 0.44935 0.79341 0.0
H650 H 0.54546 0.50525 0.85044 0.0
H651 H 0.56289 0.54274 0.82297 0.0
H652 H 0.52978 0.42964 0.82603 0.0
H653 H 0.46825 0.4685 0.86707 0.0
H654 H 0.4878 0.48338 0.84132 0.0
H655 H 0.50382 0.49029 0.86931 0.0
C656 C 0.53455 0.49093 0.78435 0.0
C657 C 0.54793 0.51746 0.79245 0.0
C658 C 0.5239 0.46964 0.80003 0.0
C659 C 0.52694 0.47453 0.82403 0.0
C660 C 0.54211 0.50104 0.83205 0.0
H661 H 0.43862 0.32474 0.90697 0.0
H662 H 0.47775 0.36654 0.8934 0.0
C663 C 0.5521 0.52239 0.81638 0.0
C664 C 0.51214 0.45188 0.84028 0.0
H665 H 0.46052 0.42664 0.87914 0.0
C666 C 0.51484 0.42903 0.83789 0.0
C667 C 0.49271 0.45124 0.85579 0.0
C668 C 0.48774 0.47453 0.85846 0.0
C669 C 0.49732 0.40493 0.84925 0.0
C670 C 0.4772 0.40406 0.8639 0.0
C671 C 0.476 0.42749 0.8678 0.0
C672 C 0.45443 0.37849 0.87221 0.0
C673 C 0.49924 0.38022 0.84419 0.0
C674 C 0.42851 0.3716 0.86496 0.0
C675 C 0.40635 0.34828 0.87293 0.0
C676 C 0.4096 0.3311 0.88818 0.0
C677 C 0.43561 0.33762 0.89513 0.0
C678 C 0.45792 0.36137 0.88735 0.0
H679 H 0.51333 0.38345 0.82973 0.0
H680 H 0.50649 0.37463 0.85989 0.0
H681 H 0.47921 0.36307 0.83966 0.0
H682 H 0.42538 0.38443 0.85313 0.0
H683 H 0.38661 0.34367 0.86703 0.0
H684 H 0.51831 0.08727 0.75192 0.0
H685 H 0.5558 0.11896 0.77622 0.0
H686 H 0.5332 0.05805 0.82874 0.0
H687 H 0.49579 0.02634 0.80486 0.0
H688 H 0.54461 0.11235 0.8445 0.0
H689 H 0.62434 0.1123 0.78925 0.0
H690 H 0.59933 0.11825 0.77621 0.0
H691 H 0.58991 0.08557 0.7872 0.0
C692 C 0.52135 0.08056 0.76861 0.0
C693 C 0.50408 0.05415 0.77636 0.0
C694 C 0.54274 0.09874 0.78245 0.0
C695 C 0.54714 0.09077 0.80421 0.0
C696 C 0.52996 0.06456 0.81201 0.0
H697 H 0.6278 0.08948 0.91301 0.0
H698 H 0.59711 0.09593 0.88851 0.0
C699 C 0.50869 0.04641 0.79824 0.0
C700 C 0.5701 0.10902 0.8189 0.0
H701 H 0.63591 0.12842 0.82717 0.0
C702 C 0.5648 0.11663 0.84051 0.0
C703 C 0.59645 0.115 0.81343 0.0
C704 C 0.60308 0.10741 0.79031 0.0
C705 C 0.58469 0.12777 0.85766 0.0
C706 C 0.61019 0.13078 0.85314 0.0
C707 C 0.61629 0.126 0.83065 0.0
C708 C 0.62809 0.13217 0.87218 0.0
C709 C 0.5777 0.13456 0.88096 0.0
C710 C 0.65572 0.15083 0.87168 0.0
C711 C 0.67339 0.14716 0.88587 0.0
C712 C 0.66356 0.12449 0.90027 0.0
C713 C 0.63579 0.10712 0.90204 0.0
C714 C 0.61822 0.11096 0.88818 0.0
H715 H 0.5633 0.14197 0.87895 0.0
H716 H 0.56785 0.11617 0.89179 0.0
H717 H 0.59583 0.14999 0.89019 0.0
H718 H 0.66375 0.16713 0.85925 0.0
H719 H 0.69479 0.16066 0.88408 0.0
H720 H 0.58859 0.88293 0.60535 0.0
H721 H 0.54843 0.88038 0.62258 0.0
H722 H 0.57014 0.95757 0.59327 0.0
H723 H 0.61007 0.96027 0.57603 0.0
H724 H 0.55569 0.91978 0.65491 0.0
H725 H 0.48852 0.91522 0.58424 0.0
H726 H 0.51352 0.90529 0.58027 0.0
H727 H 0.52292 0.94016 0.57922 0.0
C728 C 0.58433 0.89894 0.60197 0.0
C729 C 0.6026 0.92194 0.58955 0.0
C730 C 0.56141 0.89745 0.61183 0.0
C731 C 0.55623 0.91867 0.60901 0.0
C732 C 0.57348 0.94075 0.59528 0.0
H733 H 0.4868 0.00169 0.6708 0.0
H734 H 0.50673 0.98172 0.64614 0.0
C735 C 0.59646 0.94238 0.58563 0.0
C736 C 0.53585 0.92028 0.62342 0.0
H737 H 0.48492 0.93432 0.62056 0.0
C738 C 0.53973 0.92227 0.64752 0.0
C739 C 0.51528 0.92374 0.61362 0.0
C740 C 0.50962 0.92073 0.58792 0.0
C741 C 0.52484 0.92955 0.66199 0.0
C742 C 0.50507 0.93425 0.65206 0.0
C743 C 0.50017 0.9308 0.62809 0.0
C744 C 0.49098 0.945 0.66601 0.0
C745 C 0.53167 0.93387 0.68751 0.0
C746 C 0.47511 0.93072 0.68507 0.0
C747 C 0.464 0.94222 0.69939 0.0
C748 C 0.46826 0.96806 0.69467 0.0
C749 C 0.48325 0.98183 0.67498 0.0
C750 C 0.49456 0.97041 0.66082 0.0
H751 H 0.55114 0.93501 0.69135 0.0
H752 H 0.53266 0.95261 0.69372 0.0
H753 H 0.51583 0.91685 0.69753 0.0
H754 H 0.47165 0.91085 0.68906 0.0
H755 H 0.45217 0.93088 0.71419 0.0
H756 H 0.01449 0.49457 0.67366 0.0
H757 H 0.04184 0.53122 0.64706 0.0
H758 H 0.10615 0.56475 0.69709 0.0
H759 H 0.07891 0.52844 0.72401 0.0
H760 H 0.09391 0.60136 0.68012 0.0
H761 H 0.10661 0.54603 0.60747 0.0
H762 H 0.07207 0.53162 0.61578 0.0
H763 H 0.09589 0.53161 0.63604 0.0
C764 C 0.03446 0.50968 0.67904 0.0
C765 C 0.04442 0.50857 0.70103 0.0
C766 C 0.05021 0.53041 0.66367 0.0
C767 C 0.07626 0.55028 0.66991 0.0
C768 C 0.08623 0.54937 0.69185 0.0
H769 H 0.15128 0.7041 0.59586 0.0
H770 H 0.15428 0.6685 0.61677 0.0
C771 C 0.07051 0.52867 0.70725 0.0
C772 C 0.09189 0.57336 0.65434 0.0
H773 H 0.11088 0.58913 0.59783 0.0
C774 C 0.09838 0.59892 0.66229 0.0
C775 C 0.09792 0.57005 0.63121 0.0
C776 C 0.09301 0.54336 0.6222 0.0
C777 C 0.1083 0.62083 0.64712 0.0
C778 C 0.11228 0.61705 0.62347 0.0
C779 C 0.10788 0.59196 0.61597 0.0
C780 C 0.11511 0.63691 0.60583 0.0
C781 C 0.11211 0.64719 0.65609 0.0
C782 C 0.0931 0.63044 0.5914 0.0
C783 C 0.0914 0.65054 0.57949 0.0
C784 C 0.11175 0.67743 0.58174 0.0
C785 C 0.13528 0.68351 0.59392 0.0
C786 C 0.13694 0.66326 0.60597 0.0
H787 H 0.10535 0.64579 0.67436 0.0
H788 H 0.13368 0.66267 0.65525 0.0
H789 H 0.10079 0.65408 0.6452 0.0
H790 H 0.07611 0.6102 0.59096 0.0
H791 H 0.07321 0.6453 0.56993 0.0
H792 H 0.30656 0.45518 0.60203 0.0
H793 H 0.33979 0.49371 0.6248 0.0
H794 H 0.40163 0.47703 0.60263 0.0
H795 H 0.36875 0.43869 0.5803 0.0
H796 H 0.36758 0.48427 0.66096 0.0
H797 H 0.43934 0.55934 0.59946 0.0
H798 H 0.40531 0.53492 0.5914 0.0
H799 H 0.43118 0.52598 0.59141 0.0
C800 C 0.32743 0.46037 0.60147 0.0
C801 C 0.33519 0.44401 0.58956 0.0
C802 C 0.34632 0.48228 0.61447 0.0
C803 C 0.37318 0.48837 0.61513 0.0
C804 C 0.38113 0.47303 0.60196 0.0
H805 H 0.5118 0.53191 0.68303 0.0
H806 H 0.47274 0.51977 0.65879 0.0
C807 C 0.3623 0.451 0.58937 0.0
C808 C 0.39223 0.50745 0.63226 0.0
H809 H 0.45807 0.55569 0.6365 0.0
C810 C 0.3871 0.50059 0.65582 0.0
C811 C 0.41756 0.52871 0.62543 0.0
C812 C 0.42358 0.53784 0.60054 0.0
C813 C 0.40764 0.51244 0.67239 0.0
C814 C 0.4337 0.53183 0.6651 0.0
C815 C 0.43809 0.54057 0.64195 0.0
C816 C 0.45732 0.53998 0.68013 0.0
C817 C 0.40196 0.50243 0.6971 0.0
C818 C 0.46145 0.55526 0.70025 0.0
C819 C 0.48378 0.56214 0.71433 0.0
C820 C 0.50235 0.55392 0.70841 0.0
C821 C 0.49798 0.53858 0.68819 0.0
C822 C 0.47572 0.53172 0.67422 0.0
H823 H 0.38118 0.48541 0.69937 0.0
H824 H 0.41627 0.49586 0.70263 0.0
H825 H 0.40471 0.51896 0.70876 0.0
H826 H 0.44754 0.56199 0.70496 0.0
H827 H 0.48663 0.57415 0.72968 0.0
H828 H 0.82628 0.7882 0.44304 0.0
H829 H 0.83432 0.82598 0.46829 0.0
H830 H 0.75526 0.81246 0.45237 0.0
H831 H 0.74707 0.77496 0.42736 0.0
H832 H 0.80031 0.86976 0.4545 0.0
H833 H 0.79013 0.80635 0.53141 0.0
H834 H 0.81364 0.81117 0.50865 0.0
H835 H 0.7783 0.79128 0.50326 0.0
C836 C 0.81091 0.79376 0.44452 0.0
C837 C 0.78593 0.77852 0.43345 0.0
C838 C 0.8155 0.81521 0.45899 0.0
C839 C 0.79528 0.82174 0.46226 0.0
C840 C 0.7711 0.80766 0.45002 0.0
H841 H 0.70862 0.87645 0.52571 0.0
H842 H 0.73543 0.86385 0.50195 0.0
C843 C 0.7664 0.78618 0.43583 0.0
C844 C 0.79742 0.84115 0.48005 0.0
H845 H 0.78191 0.84196 0.53705 0.0
C846 C 0.79724 0.86427 0.47272 0.0
C847 C 0.79363 0.83398 0.50379 0.0
C848 C 0.79388 0.80936 0.51244 0.0
C849 C 0.79081 0.87901 0.48818 0.0
C850 C 0.78394 0.86999 0.51131 0.0
C851 C 0.78699 0.84864 0.51922 0.0
C852 C 0.76877 0.87889 0.52594 0.0
C853 C 0.78968 0.90306 0.47926 0.0
C854 C 0.77828 0.8907 0.54774 0.0
C855 C 0.76284 0.89789 0.56158 0.0
C856 C 0.73751 0.89297 0.55391 0.0
C857 C 0.72799 0.88062 0.53223 0.0
C858 C 0.74343 0.87365 0.51845 0.0
H859 H 0.80401 0.91281 0.46471 0.0
H860 H 0.7692 0.89645 0.47261 0.0
H861 H 0.79427 0.91807 0.49322 0.0
H862 H 0.79763 0.89448 0.55393 0.0
H863 H 0.77077 0.90735 0.57819 0.0
H864 H 0.23068 0.97246 0.40672 0.0
H865 H 0.19253 0.93894 0.42863 0.0
H866 H 0.18643 0.00158 0.46441 0.0
H867 H 0.22506 0.03547 0.44238 0.0
H868 H 0.19704 0.97126 0.49322 0.0
H869 H 0.11265 0.9031 0.43746 0.0
H870 H 0.1435 0.90872 0.42485 0.0
H871 H 0.13749 0.93645 0.4282 0.0
C872 C 0.22048 0.97907 0.41853 0.0
C873 C 0.2309 0.00647 0.42306 0.0
C874 C 0.19847 0.95987 0.43093 0.0
C875 C 0.18649 0.96771 0.44811 0.0
C876 C 0.19526 0.99512 0.45109 0.0
H877 H 0.11498 0.85392 0.56464 0.0
H878 H 0.12441 0.89245 0.54027 0.0
C879 C 0.21724 0.01444 0.43846 0.0
C880 C 0.16973 0.94782 0.46592 0.0
H881 H 0.12156 0.88198 0.47103 0.0
C882 C 0.17989 0.95203 0.48864 0.0
C883 C 0.14741 0.92276 0.45992 0.0
C884 C 0.13451 0.91765 0.4363 0.0
C885 C 0.17014 0.931 0.50477 0.0
C886 C 0.14945 0.90529 0.49802 0.0
C887 C 0.13768 0.90168 0.47602 0.0
C888 C 0.14219 0.88139 0.51242 0.0
C889 C 0.18354 0.93587 0.52819 0.0
C890 C 0.1488 0.86232 0.50464 0.0
C891 C 0.14351 0.84031 0.51846 0.0
C892 C 0.13142 0.83693 0.54036 0.0
C893 C 0.12454 0.856 0.54797 0.0
C894 C 0.12985 0.87802 0.53409 0.0
H895 H 0.20154 0.95618 0.52956 0.0
H896 H 0.16913 0.93392 0.54192 0.0
H897 H 0.18964 0.92069 0.53165 0.0
H898 H 0.15845 0.8647 0.48796 0.0
H899 H 0.14894 0.826 0.51195 0.0
H900 H 0.98564 0.21656 0.41981 0.0
H901 H 0.0251 0.21647 0.43592 0.0
H902 H 0.07179 0.30228 0.42708 0.0
H903 H 0.03288 0.3026 0.41091 0.0
H904 H 0.09992 0.27291 0.41684 0.0
H905 H 0.04771 0.2485 0.50256 0.0
H906 H 0.03117 0.22638 0.47849 0.0
H907 H 0.03596 0.25968 0.47835 0.0
C908 C 0.00448 0.2353 0.42084 0.0
C909 C 0.00606 0.25966 0.41447 0.0
C910 C 0.02693 0.23521 0.43008 0.0
C911 C 0.05116 0.25942 0.4329 0.0
C912 C 0.05322 0.2834 0.42504 0.0
H913 H 0.19656 0.35097 0.50041 0.0
H914 H 0.15999 0.32839 0.47263 0.0
C915 C 0.0309 0.28356 0.41597 0.0
C916 C 0.07358 0.26085 0.44646 0.0
H917 H 0.0936 0.26368 0.50252 0.0
C918 C 0.09851 0.2703 0.43553 0.0
C919 C 0.07155 0.25731 0.47079 0.0
C920 C 0.04526 0.24753 0.4834 0.0
C921 C 0.12182 0.27775 0.44851 0.0
C922 C 0.1201 0.27625 0.47299 0.0
C923 C 0.09487 0.26495 0.48374 0.0
C924 C 0.14418 0.28899 0.488 0.0
C925 C 0.14811 0.28786 0.43591 0.0
C926 C 0.14723 0.27444 0.50609 0.0
C927 C 0.16784 0.2874 0.52226 0.0
C928 C 0.18579 0.3152 0.52067 0.0
C929 C 0.18316 0.32956 0.50211 0.0
C930 C 0.16242 0.3166 0.48604 0.0
H931 H 0.14494 0.27868 0.41839 0.0
H932 H 0.15769 0.30989 0.43357 0.0
H933 H 0.16208 0.28349 0.44575 0.0
H934 H 0.13324 0.25317 0.50801 0.0
H935 H 0.16942 0.27567 0.53622 0.0
H936 H 0.08124 0.39577 0.7416 0.0
H937 H 0.11894 0.39866 0.71991 0.0
H938 H 0.1429 0.47978 0.69978 0.0
H939 H 0.10495 0.47703 0.72165 0.0
H940 H 0.1326 0.44424 0.66267 0.0
H941 H 0.20073 0.43686 0.72592 0.0
H942 H 0.16628 0.41259 0.73156 0.0
H943 H 0.17734 0.44781 0.73396 0.0
C944 C 0.09496 0.4145 0.7331 0.0
C945 C 0.09011 0.43612 0.73319 0.0
C946 C 0.11663 0.41621 0.72087 0.0
C947 C 0.13384 0.43953 0.70845 0.0
C948 C 0.12996 0.46173 0.70949 0.0
H949 H 0.22979 0.42655 0.59465 0.0
H950 H 0.21286 0.44766 0.62146 0.0
C951 C 0.10837 0.46015 0.72202 0.0
C952 C 0.15285 0.43866 0.69171 0.0
H953 H 0.19979 0.41924 0.68737 0.0
C954 C 0.14789 0.43955 0.66797 0.0
C955 C 0.17268 0.43252 0.69875 0.0
C956 C 0.17977 0.43265 0.72396 0.0
C957 C 0.16062 0.43217 0.65114 0.0
C958 C 0.17904 0.42415 0.65833 0.0
C959 C 0.18544 0.42517 0.68195 0.0
C960 C 0.18963 0.41189 0.64201 0.0
C961 C 0.15283 0.43112 0.62599 0.0
C962 C 0.18231 0.38488 0.64486 0.0
C963 C 0.19192 0.37275 0.62967 0.0
C964 C 0.20915 0.38745 0.61132 0.0
C965 C 0.21637 0.41455 0.60846 0.0
C966 C 0.20674 0.42669 0.62374 0.0
H967 H 0.13528 0.43405 0.62378 0.0
H968 H 0.16996 0.44717 0.61623 0.0
H969 H 0.14798 0.41157 0.61815 0.0
H970 H 0.16903 0.37312 0.65885 0.0
H971 H 0.18598 0.3519 0.63247 0.0
H972 H 0.58138 0.68931 0.77144 0.0
H973 H 0.5854 0.7324 0.76001 0.0
H974 H 0.58024 0.70984 0.68797 0.0
H975 H 0.57692 0.66736 0.69933 0.0
H976 H 0.63108 0.76552 0.73057 0.0
H977 H 0.53616 0.74956 0.69199 0.0
H978 H 0.5374 0.72726 0.71347 0.0
H979 H 0.54457 0.72461 0.68351 0.0
C980 C 0.58009 0.6933 0.75326 0.0
C981 C 0.57872 0.67529 0.73617 0.0
C982 C 0.58236 0.71778 0.74677 0.0
C983 C 0.58271 0.72405 0.72319 0.0
C984 C 0.57937 0.70509 0.70626 0.0
H985 H 0.63725 0.82998 0.61528 0.0
H986 H 0.61405 0.79522 0.64444 0.0
C987 C 0.57762 0.68095 0.7127 0.0
C988 C 0.59205 0.75183 0.71574 0.0
H989 H 0.57708 0.78705 0.67697 0.0
C990 C 0.61917 0.77072 0.71941 0.0
C991 C 0.57636 0.75828 0.70123 0.0
C992 C 0.54691 0.73893 0.69746 0.0
C993 C 0.63181 0.79485 0.70694 0.0
C994 C 0.61654 0.80045 0.69099 0.0
C995 C 0.58879 0.78262 0.68906 0.0
C996 C 0.62952 0.82233 0.67376 0.0
C997 C 0.66179 0.8128 0.70943 0.0
C998 C 0.6458 0.84918 0.68055 0.0
C999 C 0.65966 0.86904 0.66388 0.0
C1000 C 0.65687 0.86241 0.64017 0.0
C1001 C 0.63984 0.83568 0.63342 0.0
C1002 C 0.62644 0.81583 0.65007 0.0
H1003 H 0.67115 0.80292 0.71916 0.0
H1004 H 0.67155 0.81885 0.69215 0.0
H1005 H 0.66601 0.83122 0.71903 0.0
H1006 H 0.64795 0.85474 0.69871 0.0
H1007 H 0.67227 0.88961 0.66952 0.0
H1008 H 0.19965 0.78552 0.59786 0.0
H1009 H 0.23783 0.79825 0.62365 0.0
H1010 H 0.19897 0.81937 0.67689 0.0
H1011 H 0.16053 0.80643 0.65143 0.0
H1012 H 0.26989 0.84834 0.64181 0.0
H1013 H 0.2238 0.77447 0.71276 0.0
H1014 H 0.20811 0.76997 0.68469 0.0
H1015 H 0.20511 0.79097 0.70625 0.0
C1016 C 0.19909 0.79273 0.6151 0.0
C1017 C 0.17699 0.79503 0.62253 0.0
C1018 C 0.2209 0.79984 0.62984 0.0
C1019 C 0.22094 0.80916 0.65232 0.0
C1020 C 0.19898 0.81149 0.65982 0.0
H1021 H 0.31619 0.90862 0.75432 0.0
H1022 H 0.28169 0.87061 0.73275 0.0
C1023 C 0.17716 0.8044 0.64511 0.0
C1024 C 0.24497 0.81901 0.66721 0.0
H1025 H 0.26465 0.81564 0.72236 0.0
C1026 C 0.26904 0.84078 0.65922 0.0
C1027 C 0.24373 0.80895 0.68983 0.0
C1028 C 0.21885 0.78461 0.69881 0.0
C1029 C 0.29127 0.85424 0.6739 0.0
C1030 C 0.28946 0.84525 0.69706 0.0
C1031 C 0.26598 0.82236 0.70457 0.0
C1032 C 0.30963 0.8623 0.71451 0.0
C1033 C 0.31569 0.87925 0.66508 0.0
C1034 C 0.3366 0.86897 0.71256 0.0
C1035 C 0.35647 0.89081 0.72495 0.0
C1036 C 0.34943 0.90612 0.73927 0.0
C1037 C 0.32217 0.89735 0.74316 0.0
C1038 C 0.30242 0.87557 0.73091 0.0
H1039 H 0.31243 0.88526 0.6476 0.0
H1040 H 0.32128 0.89625 0.6772 0.0
H1041 H 0.33289 0.87565 0.66395 0.0
H1042 H 0.34244 0.85865 0.70019 0.0
H1043 H 0.37734 0.89714 0.72166 0.0
H1044 H 0.52886 0.87972 0.22628 0.0
H1045 H 0.52454 0.84045 0.20535 0.0
H1046 H 0.60877 0.86916 0.21628 0.0
H1047 H 0.61327 0.90821 0.23675 0.0
H1048 H 0.5564 0.84749 0.16434 0.0
H1049 H 0.57236 0.7879 0.23092 0.0
H1050 H 0.56024 0.81067 0.23784 0.0
H1051 H 0.59559 0.82315 0.23393 0.0
C1052 C 0.54625 0.87725 0.22461 0.0
C1053 C 0.57144 0.89702 0.23296 0.0
C1054 C 0.54375 0.85488 0.2127 0.0
C1055 C 0.56625 0.85177 0.20963 0.0
C1056 C 0.59106 0.87092 0.21889 0.0
H1057 H 0.6598 0.8112 0.13674 0.0
H1058 H 0.63348 0.82183 0.16323 0.0
C1059 C 0.59366 0.89336 0.23038 0.0
C1060 C 0.56543 0.83095 0.19417 0.0
H1061 H 0.5886 0.78688 0.19199 0.0
C1062 C 0.56246 0.83343 0.1703 0.0
C1063 C 0.57322 0.81265 0.20213 0.0
C1064 C 0.57527 0.80821 0.22765 0.0
C1065 C 0.57013 0.82037 0.15404 0.0
C1066 C 0.58056 0.80418 0.16206 0.0
C1067 C 0.58084 0.79954 0.18593 0.0
C1068 C 0.59547 0.7959 0.14645 0.0
C1069 C 0.56942 0.82596 0.12855 0.0
C1070 C 0.58272 0.77762 0.12833 0.0
C1071 C 0.59779 0.77159 0.11295 0.0
C1072 C 0.62582 0.78371 0.11556 0.0
C1073 C 0.63832 0.80159 0.13409 0.0
C1074 C 0.62328 0.80759 0.14935 0.0
H1075 H 0.56322 0.84115 0.12542 0.0
H1076 H 0.58949 0.83322 0.12063 0.0
H1077 H 0.555 0.80715 0.11956 0.0
H1078 H 0.56121 0.76819 0.12599 0.0
H1079 H 0.58747 0.75755 0.09899 0.0
H1080 H 0.10067 0.63504 0.20854 0.0
H1081 H 0.13688 0.67426 0.1888 0.0
H1082 H 0.13223 0.72614 0.24038 0.0
H1083 H 0.09572 0.68719 0.25967 0.0
H1084 H 0.11565 0.72937 0.19407 0.0
H1085 H 0.21644 0.73798 0.19595 0.0
H1086 H 0.18778 0.70516 0.19127 0.0
H1087 H 0.19195 0.72146 0.21873 0.0
C1088 C 0.1084 0.65473 0.21624 0.0
C1089 C 0.09557 0.65836 0.23545 0.0
C1090 C 0.12907 0.67708 0.20501 0.0
C1091 C 0.13715 0.70302 0.21319 0.0
C1092 C 0.12633 0.70625 0.23393 0.0
H1093 H 0.20153 0.85887 0.1498 0.0
H1094 H 0.18385 0.82081 0.17641 0.0
C1095 C 0.10553 0.68406 0.24491 0.0
C1096 C 0.1513 0.72631 0.19763 0.0
H1097 H 0.21083 0.76742 0.17072 0.0
C1098 C 0.13653 0.73783 0.18909 0.0
C1099 C 0.17828 0.73678 0.19087 0.0
C1100 C 0.19473 0.7249 0.19971 0.0
C1101 C 0.14804 0.75972 0.17398 0.0
C1102 C 0.17527 0.77076 0.16765 0.0
C1103 C 0.19001 0.759 0.17585 0.0
C1104 C 0.18844 0.79446 0.15239 0.0
C1105 C 0.13075 0.77047 0.16459 0.0
C1106 C 0.19761 0.7924 0.13038 0.0
C1107 C 0.20785 0.81415 0.11514 0.0
C1108 C 0.20901 0.83829 0.12168 0.0
C1109 C 0.20048 0.84045 0.14405 0.0
C1110 C 0.19046 0.81877 0.15931 0.0
H1111 H 0.10902 0.75557 0.16617 0.0
H1112 H 0.13471 0.78857 0.1746 0.0
H1113 H 0.13536 0.77625 0.14606 0.0
H1114 H 0.19619 0.77375 0.12479 0.0
H1115 H 0.21442 0.81188 0.0981 0.0
H1116 H 0.18193 0.3945 0.10024 0.0
H1117 H 0.22238 0.41149 0.12402 0.0
H1118 H 0.1864 0.33719 0.16236 0.0
H1119 H 0.14566 0.32028 0.13915 0.0
H1120 H 0.21263 0.38126 0.19061 0.0
H1121 H 0.27735 0.38761 0.11626 0.0
H1122 H 0.2606 0.40666 0.11301 0.0
H1123 H 0.24127 0.37066 0.11416 0.0
C1124 C 0.1826 0.38177 0.11375 0.0
C1125 C 0.16065 0.35591 0.11764 0.0
C1126 C 0.20577 0.3915 0.12727 0.0
C1127 C 0.20754 0.37541 0.14465 0.0
C1128 C 0.18544 0.3499 0.14897 0.0
H1129 H 0.31615 0.35692 0.22868 0.0
H1130 H 0.27806 0.35637 0.20956 0.0
C1131 C 0.16219 0.34025 0.13564 0.0
C1132 C 0.23255 0.38462 0.15807 0.0
H1133 H 0.29785 0.40005 0.15292 0.0
C1134 C 0.23134 0.38563 0.18236 0.0
C1135 C 0.25695 0.39037 0.14723 0.0
C1136 C 0.2592 0.38859 0.12126 0.0
C1137 C 0.25367 0.39142 0.19615 0.0
C1138 C 0.27769 0.39624 0.18533 0.0
C1139 C 0.27934 0.39647 0.16106 0.0
C1140 C 0.30026 0.3979 0.19879 0.0
C1141 C 0.25129 0.39173 0.2222 0.0
C1142 C 0.32532 0.4215 0.19899 0.0
C1143 C 0.34719 0.42195 0.21003 0.0
C1144 C 0.34435 0.39863 0.22059 0.0
C1145 C 0.31903 0.37519 0.22062 0.0
C1146 C 0.2972 0.37486 0.20986 0.0
H1147 H 0.23423 0.39442 0.22756 0.0
H1148 H 0.24785 0.37234 0.22931 0.0
H1149 H 0.27006 0.40801 0.22997 0.0
H1150 H 0.32802 0.43937 0.1903 0.0
H1151 H 0.36648 0.44027 0.20962 0.0
H1152 H 0.12882 0.26771 0.05597 0.0
H1153 H 0.1443 0.24605 0.02832 0.0
H1154 H 0.11436 0.27271 0.97163 0.0
H1155 H 0.1006 0.29597 -0.00081 0.0
H1156 H 0.12335 0.20839 -0.00357 0.0
H1157 H 0.1906 0.30583 0.95312 0.0
H1158 H 0.17257 0.30369 0.97929 0.0
H1159 H 0.15576 0.29593 0.95162 0.0
C1160 C 0.12554 0.26885 0.03759 0.0
C1161 C 0.11412 0.28391 0.02957 0.0
C1162 C 0.13423 0.25638 0.02182 0.0
C1163 C 0.1311 0.25833 -0.00216 0.0
C1164 C 0.11786 0.27175 0.98997 0.0
H1165 H 0.21635 0.21843 0.89261 0.0
H1166 H 0.17633 0.21636 0.91016 0.0
C1167 C 0.10993 0.28492 0.00569 0.0
C1168 C 0.1435 0.24797 0.98129 0.0
H1169 H 0.19176 0.26824 0.93942 0.0
C1170 C 0.13805 0.22139 0.98374 0.0
C1171 C 0.16277 0.26498 0.96474 0.0
C1172 C 0.17099 0.29423 0.96213 0.0
C1173 C 0.15228 0.21182 0.97091 0.0
C1174 C 0.17197 0.2291 0.95502 0.0
C1175 C 0.17626 0.25502 0.95146 0.0
C1176 C 0.19192 0.22299 0.94517 0.0
C1177 C 0.14718 0.1838 0.97507 0.0
C1178 C 0.21345 0.22686 0.9592 0.0
C1179 C 0.23637 0.22874 0.94923 0.0
C1180 C 0.23783 0.22625 0.92514 0.0
C1181 C 0.21543 0.22013 0.91127 0.0
C1182 C 0.19265 0.21891 0.92123 0.0
H1183 H 0.12793 0.17121 0.98434 0.0
H1184 H 0.14687 0.17402 0.95836 0.0
H1185 H 0.16372 0.18483 0.98576 0.0
H1186 H 0.21334 0.23049 0.97765 0.0
H1187 H 0.25349 0.23349 0.96018 0.0
H1188 H 0.73379 0.85016 0.03392 0.0
H1189 H 0.74539 0.88845 0.00864 0.0
H1190 H 0.66375 0.85047 0.98396 0.0
H1191 H 0.65207 0.81163 0.00879 0.0
H1192 H 0.70092 0.87556 0.94891 0.0
H1193 H 0.72369 0.94359 0.0245 0.0
H1194 H 0.74304 0.92698 0.02359 0.0
H1195 H 0.70727 0.90763 0.02753 0.0
C1196 C 0.71829 0.84987 0.02306 0.0
C1197 C 0.69189 0.82802 0.02361 0.0
C1198 C 0.72496 0.87181 0.00867 0.0
C1199 C 0.70528 0.87255 -0.00513 0.0
C1200 C 0.67918 0.85033 -0.00538 0.0
H1201 H 0.68277 0.98657 0.91935 0.0
H1202 H 0.68067 0.94637 0.93546 0.0
C1203 C 0.67254 0.82819 0.00883 0.0
C1204 C 0.71161 0.89692 0.98142 0.0
H1205 H 0.73177 0.96337 0.98738 0.0
C1206 C 0.70776 0.89479 0.95729 0.0
C1207 C 0.72049 0.92196 0.99244 0.0
C1208 C 0.72364 0.92523 0.01846 0.0
C1209 C 0.71243 0.91708 0.94388 0.0
C1210 C 0.72101 0.94196 0.95497 0.0
C1211 C 0.72544 0.94425 0.97898 0.0
C1212 C 0.72322 0.96536 0.94246 0.0
C1213 C 0.70801 0.91388 0.91801 0.0
C1214 C 0.74792 0.98931 0.94104 0.0
C1215 C 0.74924 0.01241 0.93178 0.0
C1216 C 0.72576 0.01194 0.92422 0.0
C1217 C 0.7012 0.98765 0.92512 0.0
C1218 C 0.69997 0.96458 0.93414 0.0
H1219 H 0.708 0.89571 0.91147 0.0
H1220 H 0.68826 0.91189 0.91385 0.0
H1221 H 0.72372 0.93174 0.90869 0.0
H1222 H 0.76602 0.99028 0.94762 0.0
H1223 H 0.76843 0.03083 0.93142 0.0
H1224 H 0.163 0.90262 0.04559 0.0
H1225 H 0.12652 0.88924 0.01769 0.0
H1226 H 0.1521 0.8401 0.98174 0.0
H1227 H 0.18899 0.85376 0.00921 0.0
H1228 H 0.13843 0.87014 0.95193 0.0
H1229 H 0.05954 0.81502 0.01874 0.0
H1230 H 0.0825 0.84989 0.02439 0.0
H1231 H 0.09451 0.82646 0.02408 0.0
C1232 C 0.16087 0.88892 0.03177 0.0
C1233 C 0.17872 0.87897 0.0298 0.0
C1234 C 0.14001 0.88134 0.01585 0.0
C1235 C 0.13645 0.86344 -0.00212 0.0
C1236 C 0.15456 0.85397 -0.00447 0.0
H1237 H 0.03493 0.7507 0.90623 0.0
H1238 H 0.07251 0.7893 0.92454 0.0
C1239 C 0.17555 0.86169 0.01131 0.0
C1240 C 0.11322 0.85341 0.98204 0.0
H1241 H 0.0455 0.8114 0.98023 0.0
C1242 C 0.11804 0.85766 0.95811 0.0
C1243 C 0.08663 0.83741 0.99021 0.0
C1244 C 0.08034 0.83169 0.01572 0.0
C1245 C 0.09708 0.84502 0.94203 0.0
C1246 C 0.07082 0.82756 0.95016 0.0
C1247 C 0.0657 0.82492 0.9741 0.0
C1248 C 0.04952 0.80809 0.93469 0.0
C1249 C 0.10336 0.84959 0.91648 0.0
C1250 C 0.02418 0.80606 0.93399 0.0
C1251 C 0.00254 0.7839 0.92344 0.0
C1252 C 0.00598 0.7633 0.91396 0.0
C1253 C 0.03171 0.76623 0.91352 0.0
C1254 C 0.05328 0.78844 0.92377 0.0
H1255 H 0.1211 0.8697 0.91326 0.0
H1256 H 0.10816 0.83433 0.9099 0.0
H1257 H 0.08603 0.84779 0.9065 0.0
H1258 H 0.02087 0.8209 0.9426 0.0
H1259 H 0.98286 0.78203 0.92411 0.0
H1260 H 0.40555 0.24127 0.85446 0.0
H1261 H 0.42632 0.22671 0.82524 0.0
H1262 H 0.34802 0.16985 0.79866 0.0
H1263 H 0.32712 0.18469 0.82737 0.0
H1264 H 0.4194 0.17784 0.82391 0.0
H1265 H 0.3888 0.19792 0.73912 0.0
H1266 H 0.38632 0.2134 0.76559 0.0
H1267 H 0.36009 0.18026 0.75754 0.0
C1268 C 0.39274 0.22599 0.84213 0.0
C1269 C 0.36463 0.21396 0.84338 0.0
C1270 C 0.40469 0.2178 0.82537 0.0
C1271 C 0.38878 0.19749 0.80954 0.0
C1272 C 0.36078 0.18611 0.81024 0.0
H1273 H 0.37188 0.06433 0.74534 0.0
H1274 H 0.37225 0.1047 0.75848 0.0
C1275 C 0.34881 0.19442 0.82687 0.0
C1276 C 0.40087 0.18539 0.7946 0.0
H1277 H 0.39689 0.15995 0.74034 0.0
C1278 C 0.41524 0.17464 0.80546 0.0
C1279 C 0.39561 0.18141 0.77052 0.0
C1280 C 0.38211 0.19415 0.75751 0.0
C1281 C 0.42226 0.1579 0.79339 0.0
C1282 C 0.41488 0.15203 0.76981 0.0
C1283 C 0.40241 0.16446 0.75846 0.0
C1284 C 0.4155 0.1295 0.75819 0.0
C1285 C 0.43551 0.14485 0.8064 0.0
C1286 C 0.43976 0.13037 0.75303 0.0
C1287 C 0.43965 0.10717 0.74551 0.0
C1288 C 0.41526 0.08287 0.74323 0.0
C1289 C 0.39103 0.08262 0.74722 0.0
C1290 C 0.39117 0.10572 0.75456 0.0
H1291 H 0.43785 0.14988 0.82519 0.0
H1292 H 0.42355 0.1227 0.80451 0.0
H1293 H 0.4557 0.15163 0.79898 0.0
H1294 H 0.45872 0.14866 0.75564 0.0
H1295 H 0.45863 0.108 0.74248 0.0
H1296 H 0.80655 0.16477 0.85186 0.0
H1297 H 0.82615 0.203 0.82539 0.0
H1298 H 0.78975 0.24049 0.86439 0.0
H1299 H 0.77039 0.20258 0.89125 0.0
H1300 H 0.80022 0.22352 0.79761 0.0
H1301 H 0.86893 0.2987 0.86205 0.0
H1302 H 0.85246 0.26307 0.86742 0.0
H1303 H 0.83399 0.28055 0.86974 0.0
C1304 C 0.80281 0.18118 0.85494 0.0
C1305 C 0.78708 0.18068 0.87384 0.0
C1306 C 0.81393 0.20296 0.83972 0.0
C1307 C 0.80957 0.22464 0.84307 0.0
C1308 C 0.79371 0.22415 0.86174 0.0
H1309 H 0.89939 0.37645 0.76729 0.0
H1310 H 0.86106 0.34103 0.78861 0.0
C1311 C 0.78266 0.20243 0.87706 0.0
C1312 C 0.82201 0.24777 0.82703 0.0
H1313 H 0.87096 0.31353 0.82385 0.0
C1314 C 0.81546 0.2433 0.80337 0.0
C1315 C 0.84164 0.27361 0.83465 0.0
C1316 C 0.8499 0.27938 0.8598 0.0
C1317 C 0.8289 0.26374 0.78695 0.0
C1318 C 0.84955 0.28912 0.79442 0.0
C1319 C 0.85498 0.29404 0.81822 0.0
C1320 C 0.86862 0.30934 0.77793 0.0
C1321 C 0.82142 0.25779 0.76169 0.0
C1322 C 0.88507 0.30306 0.76451 0.0
C1323 C 0.90693 0.32314 0.75256 0.0
C1324 C 0.91275 0.3499 0.75379 0.0
C1325 C 0.89521 0.35594 0.76591 0.0
C1326 C 0.87341 0.33578 0.77813 0.0
H1327 H 0.80019 0.24163 0.75965 0.0
H1328 H 0.8244 0.27595 0.75233 0.0
H1329 H 0.8343 0.25083 0.75346 0.0
H1330 H 0.88207 0.28291 0.76448 0.0
H1331 H 0.9201 0.31793 0.74331 0.0
H1332 H 0.85672 0.67399 0.83796 0.0
H1333 H 0.81773 0.6517 0.81249 0.0
H1334 H 0.78288 0.58263 0.85755 0.0
H1335 H 0.82155 0.60496 0.88347 0.0
H1336 H 0.7958 0.60307 0.78848 0.0
H1337 H 0.7243 0.60259 0.85395 0.0
H1338 H 0.76018 0.6221 0.85773 0.0
H1339 H 0.7428 0.5865 0.86262 0.0
C1340 C 0.84079 0.65407 0.84251 0.0
C1341 C 0.84213 0.64142 0.86293 0.0
C1342 C 0.81857 0.64131 0.82787 0.0
C1343 C 0.7973 0.61567 0.8333 0.0
C1344 C 0.79886 0.60264 0.85329 0.0
H1345 H 0.64081 0.5457 0.76473 0.0
H1346 H 0.67801 0.54495 0.78483 0.0
C1347 C 0.821 0.61545 0.86807 0.0
C1348 C 0.77322 0.60318 0.81829 0.0
H1349 H 0.7072 0.58576 0.81704 0.0
C1350 C 0.77632 0.59893 0.79477 0.0
C1351 C 0.7478 0.59762 0.8266 0.0
C1352 C 0.74346 0.60259 0.85155 0.0
C1353 C 0.7549 0.59033 0.77911 0.0
C1354 C 0.72991 0.58613 0.78721 0.0
C1355 C 0.72639 0.58885 0.81095 0.0
C1356 C 0.70855 0.58317 0.77118 0.0
C1357 C 0.75939 0.58657 0.75394 0.0
C1358 C 0.71359 0.60454 0.75641 0.0
C1359 C 0.69248 0.60513 0.74513 0.0
C1360 C 0.66593 0.58432 0.74839 0.0
C1361 C 0.6611 0.56192 0.76177 0.0
C1362 C 0.68228 0.56149 0.7733 0.0
H1363 H 0.77566 0.58164 0.75194 0.0
H1364 H 0.74079 0.57041 0.74583 0.0
H1365 H 0.76551 0.60553 0.74442 0.0
H1366 H 0.73361 0.62172 0.75488 0.0
H1367 H 0.69678 0.62261 0.73487 0.0
H1368 H 0.89674 0.75524 0.92043 0.0
H1369 H 0.88435 0.78275 0.94398 0.0
H1370 H 0.86062 0.7254 -0.00024 0.0
H1371 H 0.87304 0.69784 0.97655 0.0
H1372 H 0.83321 0.76571 0.96095 0.0
H1373 H 0.90576 0.79725 0.03321 0.0
H1374 H 0.91101 0.78511 0.00588 0.0
H1375 H 0.88999 0.76185 0.02788 0.0
C1376 C 0.88911 0.74856 0.93779 0.0
C1377 C 0.8858 0.72423 0.94656 0.0
C1378 C 0.88217 0.7644 0.95123 0.0
C1379 C 0.87213 0.75639 0.97375 0.0
C1380 C 0.86902 0.73229 0.98263 0.0
H1381 H 0.77131 0.74753 0.07322 0.0
H1382 H 0.80989 0.75407 0.05072 0.0
C1383 C 0.87582 0.71639 0.96921 0.0
C1384 C 0.86213 0.77147 0.98724 0.0
H1385 H 0.86327 0.79507 0.04175 0.0
C1386 C 0.84023 0.77295 0.97837 0.0
C1387 C 0.87159 0.7811 0.00983 0.0
C1388 C 0.89608 0.78152 0.01967 0.0
C1389 C 0.82572 0.78117 0.99238 0.0
C1390 C 0.83376 0.78855 0.01571 0.0
C1391 C 0.85716 0.78941 0.02387 0.0
C1392 C 0.8151 0.78944 0.03285 0.0
C1393 C 0.80048 0.77945 0.98277 0.0
C1394 C 0.80617 0.80808 0.03118 0.0
C1395 C 0.78391 0.80433 0.04411 0.0
C1396 C 0.77045 0.78185 0.05869 0.0
C1397 C 0.7811 0.76481 0.06187 0.0
C1398 C 0.80325 0.76861 0.04911 0.0
H1399 H 0.79575 0.77082 0.96499 0.0
H1400 H 0.78312 0.76688 0.99421 0.0
H1401 H 0.80293 0.79982 0.98207 0.0
H1402 H 0.81535 0.8245 0.01893 0.0
H1403 H 0.7761 0.81778 0.0414 0.0
H1404 H 0.33564 0.17442 0.95443 0.0
H1405 H 0.316 0.13705 0.98174 0.0
H1406 H 0.23854 0.10716 0.94962 0.0
H1407 H 0.25793 0.14428 0.92197 0.0
H1408 H 0.2719 0.12515 0.013 0.0
H1409 H 0.2501 0.04153 0.95182 0.0
H1410 H 0.27341 0.07613 0.94473 0.0
H1411 H 0.23798 0.06392 0.94421 0.0
C1412 C 0.3145 0.15977 0.95293 0.0
C1413 C 0.2984 0.16236 0.93595 0.0
C1414 C 0.3033 0.13852 0.96863 0.0
C1415 C 0.27589 0.11944 0.9676 0.0
C1416 C 0.2598 0.1216 0.95049 0.0
H1417 H 0.20943 0.97371 0.05232 0.0
H1418 H 0.2077 0.00882 0.02954 0.0
C1419 C 0.27097 0.14284 0.93473 0.0
C1420 C 0.26433 0.09763 0.98482 0.0
H1421 H 0.24175 0.03085 0.9913 0.0
C1422 C 0.26491 0.10444 0.00828 0.0
C1423 C 0.25486 0.07065 0.97848 0.0
C1424 C 0.2541 0.06246 0.95348 0.0
C1425 C 0.25761 0.0851 0.02574 0.0
C1426 C 0.24996 0.0585 0.01949 0.0
C1427 C 0.24759 0.05132 -0.00403 0.0
C1428 C 0.24883 0.03903 0.03672 0.0
C1429 C 0.25906 0.09349 0.05074 0.0
C1430 C 0.27236 0.04467 0.04856 0.0
C1431 C 0.27348 0.02475 0.06134 0.0
C1432 C 0.25108 -0.0012 0.06249 0.0
C1433 C 0.22696 0.9936 0.05182 0.0
C1434 C 0.22594 0.01356 0.0388 0.0
H1435 H 0.25585 0.11093 0.05235 0.0
H1436 H 0.24395 0.07677 0.06154 0.0
H1437 H 0.27931 0.09963 0.05769 0.0
H1438 H 0.29041 0.06403 0.04677 0.0
H1439 H 0.29229 0.02936 0.06947 0.0
H1440 H 0.82405 0.10717 0.94485 0.0
H1441 H 0.86142 0.11842 0.97118 0.0
H1442 H 0.8382 0.16595 0.01261 0.0
H1443 H 0.80051 0.15452 0.98661 0.0
H1444 H 0.90237 0.16864 0.97828 0.0
H1445 H 0.85346 0.12532 0.06216 0.0
H1446 H 0.83558 0.11534 0.0349 0.0
H1447 H 0.84076 0.14524 0.04954 0.0
C1448 C 0.82665 0.11977 0.95971 0.0
C1449 C 0.80934 0.1301 0.96352 0.0
C1450 C 0.84796 0.12605 0.9748 0.0
C1451 C 0.85232 0.14263 0.99405 0.0
C1452 C 0.83478 0.15251 -0.0018 0.0
H1453 H 0.9668 0.25755 0.07686 0.0
H1454 H 0.92717 0.22019 0.0596 0.0
C1455 C 0.81339 0.14619 0.98316 0.0
C1456 C 0.87688 0.15226 0.00822 0.0
H1457 H 0.89907 0.163 0.06421 0.0
C1458 C 0.90176 0.16681 -0.00297 0.0
C1459 C 0.87598 0.14963 0.03264 0.0
C1460 C 0.84999 0.13277 0.04548 0.0
C1461 C 0.92562 0.18082 0.00973 0.0
C1462 C 0.92449 0.17984 0.03426 0.0
C1463 C 0.89983 0.16368 0.04539 0.0
C1464 C 0.94757 0.19916 0.04833 0.0
C1465 C 0.95152 0.19826 -0.00312 0.0
C1466 C 0.97197 0.19914 0.04853 0.0
C1467 C 0.99488 0.22068 0.05839 0.0
C1468 C 0.99354 0.24244 0.06803 0.0
C1469 C 0.96858 0.24129 0.06924 0.0
C1470 C 0.94584 0.21985 0.05953 0.0
H1471 H 0.94831 0.19908 0.97795 0.0
H1472 H 0.96156 0.21903 0.00385 0.0
H1473 H 0.96529 0.1902 -0.00067 0.0
H1474 H 0.97356 0.18313 0.04018 0.0
H1475 H 0.01382 0.22098 0.05731 0.0
H1476 H 0.33305 0.14466 0.48745 0.0
H1477 H 0.3151 0.16626 0.51239 0.0
H1478 H 0.2422 0.13112 0.47205 0.0
H1479 H 0.26023 0.10998 0.44663 0.0
H1480 H 0.26233 0.1835 0.47744 0.0
H1481 H 0.25965 0.13924 0.56312 0.0
H1482 H 0.29218 0.15306 0.55005 0.0
H1483 H 0.2637 0.12519 0.53643 0.0
C1484 C 0.31307 0.14126 0.48403 0.0
C1485 C 0.29816 0.12574 0.46495 0.0
C1486 C 0.30272 0.1534 0.49846 0.0
C1487 C 0.27709 0.14987 0.49435 0.0
C1488 C 0.26194 0.13394 0.47562 0.0
H1489 H 0.2138 0.24734 0.55629 0.0
H1490 H 0.21286 0.20771 0.53941 0.0
C1491 C 0.27235 0.12198 0.46105 0.0
C1492 C 0.26739 0.16508 0.5081 0.0
H1493 H 0.26072 0.18193 0.56351 0.0
C1494 C 0.26134 0.1827 0.49624 0.0
C1495 C 0.266 0.1639 0.53262 0.0
C1496 C 0.27045 0.1441 0.54626 0.0
C1497 C 0.25568 0.20044 0.50828 0.0
C1498 C 0.25589 0.20037 0.53279 0.0
C1499 C 0.26061 0.18187 0.54469 0.0
C1500 C 0.25481 0.22171 0.54608 0.0
C1501 C 0.2511 0.22027 0.49476 0.0
C1502 C 0.27846 0.24206 0.55603 0.0
C1503 C 0.27913 0.26465 0.56552 0.0
C1504 C 0.25606 0.2672 0.56536 0.0
C1505 C 0.2319 0.24597 0.55664 0.0
C1506 C 0.23132 0.22338 0.54696 0.0
H1507 H 0.25434 0.21948 0.47583 0.0
H1508 H 0.23019 0.21587 0.49749 0.0
H1509 H 0.26477 0.241 0.50103 0.0
H1510 H 0.29677 0.24105 0.55548 0.0
H1511 H 0.29798 0.2805 0.57234 0.0
H1512 H 0.86893 0.19209 0.48024 0.0
H1513 H 0.86067 0.15658 0.50756 0.0
H1514 H 0.89981 0.12764 0.46156 0.0
H1515 H 0.9079 0.16302 0.43375 0.0
H1516 H 0.85151 0.08818 0.47597 0.0
H1517 H 0.90881 0.14608 0.55225 0.0
H1518 H 0.88822 0.159 0.54164 0.0
H1519 H 0.91458 0.16061 0.52355 0.0
C1520 C 0.87598 0.17835 0.47591 0.0
C1521 C 0.88899 0.1804 0.45473 0.0
C1522 C 0.87157 0.15825 0.49173 0.0
C1523 C 0.8803 0.13994 0.48686 0.0
C1524 C 0.89331 0.14186 0.46578 0.0
H1525 H 0.79853 0.9905 0.56871 0.0
H1526 H 0.83797 0.025 0.54774 0.0
C1527 C 0.89773 0.16199 0.44987 0.0
C1528 C 0.87291 0.11718 0.50279 0.0
H1529 H 0.86806 0.10298 0.5606 0.0
C1530 C 0.85588 0.09119 0.49439 0.0
C1531 C 0.87899 0.12114 0.52674 0.0
C1532 C 0.89892 0.14823 0.53649 0.0
C1533 C 0.84223 0.06956 0.50965 0.0
C1534 C 0.84598 0.0742 0.53381 0.0
C1535 C 0.86515 0.09959 0.54204 0.0
C1536 C 0.826 0.05507 0.55029 0.0
C1537 C 0.82191 0.04251 0.50001 0.0
C1538 C 0.80702 0.06109 0.55935 0.0
C1539 C 0.78459 0.04157 0.57105 0.0
C1540 C 0.78087 0.01573 0.57408 0.0
C1541 C 0.80095 0.0103 0.56659 0.0
C1542 C 0.82339 0.02988 0.5546 0.0
H1543 H 0.82088 0.04253 0.48075 0.0
H1544 H 0.82722 0.02723 0.50538 0.0
H1545 H 0.80168 0.03636 0.50708 0.0
H1546 H 0.80872 0.08044 0.55613 0.0
H1547 H 0.76957 0.04639 0.57687 0.0
H1548 H 0.98402 0.71414 0.57955 0.0
H1549 H 0.9467 0.71625 0.56191 0.0
H1550 H 0.9972 0.80148 0.55164 0.0
H1551 H 0.03508 0.79953 0.5692 0.0
H1552 H 0.92016 0.74739 0.5683 0.0
H1553 H 0.97751 0.76813 0.48545 0.0
H1554 H 0.98705 0.75709 0.51117 0.0
H1555 H 0.99331 0.79087 0.50928 0.0
C1556 C 0.98712 0.73346 0.57396 0.0
C1557 C 0.01259 0.75659 0.57531 0.0
C1558 C 0.96571 0.73465 0.56404 0.0
C1559 C 0.96938 0.75892 0.5552 0.0
C1560 C 0.99415 0.78252 0.5582 0.0
H1561 H 0.86127 0.75413 0.4468 0.0
H1562 H 0.89655 0.7721 0.47605 0.0
C1563 C 0.01569 0.78138 0.56828 0.0
C1564 C 0.94832 0.75821 0.54014 0.0
H1565 H 0.93247 0.75623 0.48292 0.0
C1566 C 0.9229 0.74987 0.54966 0.0
C1567 C 0.95206 0.7614 0.51585 0.0
C1568 C 0.97886 0.76972 0.50468 0.0
C1569 C 0.90077 0.74353 0.53538 0.0
C1570 C 0.90419 0.74506 0.51102 0.0
C1571 C 0.92993 0.75494 0.50162 0.0
C1572 C 0.88126 0.73472 0.49479 0.0
C1573 C 0.87389 0.73476 0.54648 0.0
C1574 C 0.86101 0.70764 0.49558 0.0
C1575 C 0.84072 0.69722 0.47885 0.0
C1576 C 0.8406 0.71364 0.46086 0.0
C1577 C 0.86086 0.74081 0.46027 0.0
C1578 C 0.88098 0.75121 0.47706 0.0
H1579 H 0.87627 0.74314 0.56426 0.0
H1580 H 0.86181 0.74106 0.53598 0.0
H1581 H 0.86262 0.71256 0.54792 0.0
H1582 H 0.86129 0.69437 0.50875 0.0
H1583 H 0.82545 0.67623 0.47979 0.0
H1584 H 0.93293 0.62596 0.24311 0.0
H1585 H 0.89622 0.6276 0.26252 0.0
H1586 H 0.8608 0.544 0.28078 0.0
H1587 H 0.89798 0.54223 0.26147 0.0
H1588 H 0.83888 0.59823 0.26035 0.0
H1589 H 0.88016 0.58451 0.34357 0.0
H1590 H 0.89856 0.59165 0.3167 0.0
H1591 H 0.87029 0.55889 0.32179 0.0
C1592 C 0.91711 0.60775 0.25089 0.0
C1593 C 0.91857 0.58409 0.25117 0.0
C1594 C 0.89605 0.60869 0.26185 0.0
C1595 C 0.8761 0.58606 0.27338 0.0
C1596 C 0.87626 0.56176 0.27218 0.0
H1597 H 0.78381 0.61 0.38213 0.0
H1598 H 0.7973 0.5867 0.3546 0.0
C1599 C 0.89739 0.56075 0.26106 0.0
C1600 C 0.8575 0.58943 0.28881 0.0
H1601 H 0.84867 0.59869 0.3459 0.0
C1602 C 0.84052 0.59778 0.27908 0.0
C1603 C 0.85979 0.58886 0.31322 0.0
C1604 C 0.87825 0.58065 0.32458 0.0
C1605 C 0.82673 0.60682 0.29313 0.0
C1606 C 0.83046 0.60793 0.31743 0.0
C1607 C 0.84602 0.59794 0.32722 0.0
C1608 C 0.82043 0.62148 0.33293 0.0
C1609 C 0.80886 0.61574 0.28179 0.0
C1610 C 0.82922 0.64886 0.32996 0.0
C1611 C 0.82164 0.66233 0.3457 0.0
C1612 C 0.80531 0.64869 0.36483 0.0
C1613 C 0.79648 0.6212 0.36766 0.0
C1614 C 0.80404 0.60777 0.35189 0.0
H1615 H 0.80126 0.60567 0.26478 0.0
H1616 H 0.79149 0.61147 0.29304 0.0
H1617 H 0.82059 0.63768 0.27864 0.0
H1618 H 0.84249 0.65998 0.31576 0.0
H1619 H 0.82885 0.68348 0.34299 0.0
H1620 H 0.48274 0.3563 0.27825 0.0
H1621 H 0.48737 0.32342 0.30223 0.0
H1622 H 0.41192 0.26034 0.27566 0.0
H1623 H 0.40712 0.2928 0.25214 0.0
H1624 H 0.44816 0.29366 0.33624 0.0
H1625 H 0.45864 0.22506 0.27594 0.0
H1626 H 0.46765 0.25896 0.26801 0.0
H1627 H 0.43329 0.2322 0.26612 0.0
C1628 C 0.46761 0.33527 0.2771 0.0
C1629 C 0.4445 0.327 0.26351 0.0
C1630 C 0.47027 0.31658 0.29076 0.0
C1631 C 0.45018 0.28942 0.29043 0.0
C1632 C 0.42795 0.28107 0.27579 0.0
H1633 H 0.35034 0.15019 0.35374 0.0
H1634 H 0.37993 0.18921 0.33041 0.0
C1635 C 0.42508 0.29967 0.26253 0.0
C1636 C 0.44956 0.27019 0.30775 0.0
H1637 H 0.43282 0.20453 0.31143 0.0
C1638 C 0.44582 0.27447 0.33109 0.0
C1639 C 0.44665 0.24529 0.30093 0.0
C1640 C 0.45206 0.24022 0.27639 0.0
C1641 C 0.43613 0.25343 0.34724 0.0
C1642 C 0.43046 0.22771 0.33976 0.0
C1643 C 0.43691 0.22423 0.31702 0.0
C1644 C 0.41371 0.20355 0.35384 0.0
C1645 C 0.42963 0.25816 0.37155 0.0
C1646 C 0.42303 0.19867 0.37471 0.0
C1647 C 0.40606 0.17634 0.38824 0.0
C1648 C 0.37953 0.15857 0.38106 0.0
C1649 C 0.37054 0.16346 0.35992 0.0
C1650 C 0.38748 0.18568 0.34647 0.0
H1651 H 0.43329 0.27887 0.374 0.0
H1652 H 0.40829 0.24375 0.37566 0.0
H1653 H 0.44222 0.25477 0.38415 0.0
H1654 H 0.44332 0.21216 0.38056 0.0
H1655 H 0.41372 0.1731 0.40435 0.0
H1656 H 0.85248 0.1901 0.34391 0.0
H1657 H 0.81236 0.17063 0.31972 0.0
H1658 H 0.77734 0.20564 0.36374 0.0
H1659 H 0.81722 0.22489 0.38837 0.0
H1660 H 0.74367 0.15294 0.35606 0.0
H1661 H 0.78529 0.20347 0.27236 0.0
H1662 H 0.80404 0.18881 0.28373 0.0
H1663 H 0.8033 0.21554 0.2994 0.0
C1664 C 0.83637 0.19388 0.34839 0.0
C1665 C 0.83806 0.20898 0.36815 0.0
C1666 C 0.81356 0.18297 0.33437 0.0
C1667 C 0.79215 0.18721 0.33966 0.0
C1668 C 0.7938 0.2024 0.35925 0.0
H1669 H 0.63214 0.08893 0.27616 0.0
H1670 H 0.66891 0.12884 0.29465 0.0
C1671 C 0.81656 0.21325 0.37335 0.0
C1672 C 0.76713 0.17354 0.32595 0.0
H1673 H 0.74394 0.16047 0.27029 0.0
C1674 C 0.74348 0.15507 0.33737 0.0
C1675 C 0.76695 0.17657 0.30161 0.0
C1676 C 0.79122 0.19741 0.28861 0.0
C1677 C 0.72023 0.13792 0.32487 0.0
C1678 C 0.7207 0.13959 0.30039 0.0
C1679 C 0.74375 0.15928 0.28908 0.0
C1680 C 0.69918 0.11832 0.28634 0.0
C1681 C 0.69597 0.11684 0.33778 0.0
C1682 C 0.70439 0.09992 0.27492 0.0
C1683 C 0.6836 0.07723 0.26449 0.0
C1684 C 0.6572 0.07259 0.26517 0.0
C1685 C 0.65227 0.09194 0.2754 0.0
C1686 C 0.67318 0.11466 0.28601 0.0
H1687 H 0.69984 0.11668 0.35665 0.0
H1688 H 0.67905 0.12072 0.33557 0.0
H1689 H 0.68962 0.09663 0.33057 0.0
H1690 H 0.72438 0.10248 0.27501 0.0
H1691 H 0.68812 0.06289 0.25651 0.0
H1692 H 0.10456 0.74941 0.48557 0.0
H1693 H 0.09194 0.73454 0.44549 0.0
H1694 H 0.01806 0.66667 0.46938 0.0
H1695 H 0.03007 0.68182 0.50935 0.0
H1696 H 0.08543 0.68939 0.42786 0.0
H1697 H 0.99104 0.69141 0.41616 0.0
H1698 H 0.01333 0.70759 0.44033 0.0
H1699 H 0.98963 0.67212 0.4411 0.0
C1700 C 0.08544 0.73154 0.48225 0.0
C1701 C 0.06833 0.71675 0.50061 0.0
C1702 C 0.07824 0.72311 0.45936 0.0
C1703 C 0.05392 0.6997 0.45444 0.0
C1704 C 0.03658 0.68518 0.47271 0.0
H1705 H 0.02645 0.59804 0.33554 0.0
H1706 H 0.03374 0.61786 0.37424 0.0
C1707 C 0.04359 0.69378 0.49558 0.0
C1708 C 0.04789 0.68904 0.43051 0.0
H1709 H -0.00054 0.66502 0.38867 0.0
C1710 C 0.06675 0.68434 0.41919 0.0
C1711 C 0.02364 0.68274 0.41913 0.0
C1712 C 0.0034 0.689 0.42973 0.0
C1713 C 0.06179 0.67291 0.39703 0.0
C1714 C 0.0369 0.66516 0.38622 0.0
C1715 C 0.01832 0.67054 0.39722 0.0
C1716 C 0.03006 0.65187 0.36331 0.0
C1717 C 0.08344 0.66958 0.38532 0.0
C1718 C 0.0242 0.66371 0.34466 0.0
C1719 C 0.01958 0.65221 0.32262 0.0
C1720 C 0.0209 0.62874 0.31886 0.0
C1721 C 0.0257 0.61634 0.33781 0.0
C1722 C 0.03 0.6277 0.35989 0.0
H1723 H 0.10357 0.68343 0.39271 0.0
H1724 H 0.07932 0.64876 0.38802 0.0
H1725 H 0.08404 0.6733 0.36637 0.0
H1726 H 0.02397 0.68228 0.34701 0.0
H1727 H 0.01589 0.66225 0.3084 0.0
H1728 H 0.33 0.34867 0.51071 0.0
H1729 H 0.34673 0.34827 0.47181 0.0
H1730 H 0.31031 0.39286 0.44582 0.0
H1731 H 0.29315 0.39311 0.48449 0.0
H1732 H 0.30015 0.34844 0.41854 0.0
H1733 H 0.40879 0.41237 0.43847 0.0
H1734 H 0.39073 0.38347 0.45675 0.0
H1735 H 0.38283 0.40996 0.45762 0.0
C1736 C 0.32564 0.35854 0.49677 0.0
C1737 C 0.31032 0.37105 0.50078 0.0
C1738 C 0.3353 0.35833 0.47457 0.0
C1739 C 0.33 0.3708 0.45607 0.0
C1740 C 0.31465 0.38318 0.45994 0.0
H1741 H 0.40189 0.42554 0.32341 0.0
H1742 H 0.38637 0.41908 0.36346 0.0
C1743 C 0.30492 0.38334 0.48208 0.0
C1744 C 0.34011 0.37077 0.43251 0.0
H1745 H 0.39748 0.3947 0.40054 0.0
C1746 C 0.32142 0.35841 0.41457 0.0
C1747 C 0.36787 0.38397 0.4275 0.0
C1748 C 0.38879 0.39841 0.44602 0.0
C1749 C 0.32975 0.35924 0.39157 0.0
C1750 C 0.35751 0.37242 0.38655 0.0
C1751 C 0.37621 0.38443 0.40456 0.0
C1752 C 0.36755 0.37582 0.36249 0.0
C1753 C 0.30882 0.34691 0.37273 0.0
C1754 C 0.3624 0.35358 0.3488 0.0
C1755 C 0.37115 0.35716 0.32576 0.0
C1756 C 0.38532 0.38307 0.31612 0.0
C1757 C 0.39094 0.40529 0.33016 0.0
C1758 C 0.38215 0.40167 0.35311 0.0
H1759 H 0.28868 0.34244 0.37887 0.0
H1760 H 0.31447 0.36046 0.35748 0.0
H1761 H 0.30732 0.32781 0.36696 0.0
H1762 H 0.35153 0.33349 0.3559 0.0
H1763 H 0.36666 0.33962 0.31551 0.0
H1764 H 0.70464 0.99229 0.50614 0.0
H1765 H 0.69829 -0.00137 0.46518 0.0
H1766 H 0.64761 0.91313 0.45689 0.0
H1767 H 0.6541 0.90643 0.49763 0.0
H1768 H 0.68289 0.93874 0.41917 0.0
H1769 H 0.62531 0.98887 0.44472 0.0
H1770 H 0.65882 0.00371 0.45607 0.0
H1771 H 0.6339 0.97061 0.46515 0.0
C1772 C 0.69237 0.97479 0.49556 0.0
C1773 C 0.67949 0.94887 0.50526 0.0
C1774 C 0.68877 0.97848 0.4722 0.0
C1775 C 0.6721 0.95638 0.45825 0.0
C1776 C 0.66046 0.93042 0.46749 0.0
H1777 H 0.57695 0.94105 0.33991 0.0
H1778 H 0.59573 0.9396 0.37745 0.0
C1779 C 0.66414 0.92667 0.4908 0.0
C1780 C 0.66502 0.96021 0.43455 0.0
H1781 H 0.63017 0.98413 0.40478 0.0
C1782 C 0.67156 0.94885 0.41592 0.0
C1783 C 0.64993 0.9731 0.43059 0.0
C1784 C 0.64134 0.9846 0.45016 0.0
C1785 C 0.66308 0.94976 0.3933 0.0
C1786 C 0.648 0.96265 0.38938 0.0
C1787 C 0.64185 0.97437 0.40796 0.0
C1788 C 0.63709 0.96301 0.36635 0.0
C1789 C 0.66943 0.93613 0.37396 0.0
C1790 C 0.65423 0.97677 0.3478 0.0
C1791 C 0.64359 0.97762 0.32627 0.0
C1792 C 0.61562 0.96485 0.32303 0.0
C1793 C 0.59856 0.9511 0.34176 0.0
C1794 C 0.60923 0.95023 0.36323 0.0
H1795 H 0.67637 0.92252 0.38067 0.0
H1796 H 0.65156 0.92436 0.3628 0.0
H1797 H 0.6856 0.95157 0.36295 0.0
H1798 H 0.6758 0.98714 0.35006 0.0
H1799 H 0.65731 0.98851 0.31226 0.0
H1800 H 0.64902 0.0366 0.9777 0.0
H1801 H 0.63142 0.02147 0.01672 0.0
H1802 H 0.69899 0.09209 0.04565 0.0
H1803 H 0.7164 0.1078 0.00664 0.0
H1804 H 0.65312 0.00922 0.05265 0.0
H1805 H 0.6367 0.09316 0.07677 0.0
H1806 H 0.64372 0.08772 0.04738 0.0
H1807 H 0.6706 0.10438 0.06799 0.0
C1808 C 0.66008 0.04902 0.99235 0.0
C1809 C 0.68402 0.07351 0.98908 0.0
C1810 C 0.64999 0.04032 0.01462 0.0
C1811 C 0.66368 0.05587 0.034 0.0
C1812 C 0.68776 0.08014 0.03085 0.0
H1813 H 0.6477 0.00388 0.17647 0.0
H1814 H 0.66017 0.01447 0.13571 0.0
C1815 C 0.69774 0.08902 0.00856 0.0
C1816 C 0.65308 0.04633 0.05756 0.0
H1817 H 0.63436 0.0643 0.10748 0.0
C1818 C 0.64881 0.02114 0.06462 0.0
C1819 C 0.64706 0.06175 0.07294 0.0
C1820 C 0.64948 0.08812 0.06583 0.0
C1821 C 0.63923 0.01119 0.08689 0.0
C1822 C 0.6345 0.02723 0.10265 0.0
C1823 C 0.63823 0.05215 0.09541 0.0
C1824 C 0.62595 0.01882 0.12685 0.0
C1825 C 0.63393 0.98351 0.09318 0.0
C1826 C 0.6028 0.01813 0.13545 0.0
C1827 C 0.5959 0.01258 0.15879 0.0
C1828 C 0.61198 0.00749 0.17395 0.0
C1829 C 0.63478 0.00748 0.16517 0.0
C1830 C 0.64185 0.01338 0.14185 0.0
H1831 H 0.63039 0.97094 0.07748 0.0
H1832 H 0.65172 0.98523 0.10228 0.0
H1833 H 0.61628 0.97308 0.10483 0.0
H1834 H 0.5903 0.02232 0.12414 0.0
H1835 H 0.57812 0.01256 0.16501 0.0
H1836 H 0.01774 0.6566 0.17233 0.0
H1837 H 0.01258 0.67066 0.13358 0.0
H1838 H 0.96102 0.58796 0.1141 0.0
H1839 H 0.96626 0.57358 0.1526 0.0
H1840 H -0.00114 0.61898 0.08009 0.0
H1841 H 0.94256 0.66763 0.11282 0.0
H1842 H 0.9749 0.67916 0.12582 0.0
H1843 H 0.94856 0.64518 0.13036 0.0
C1844 C 0.00547 0.64135 0.15977 0.0
C1845 C 0.99217 0.61394 0.16569 0.0
C1846 C 0.00245 0.64946 0.13769 0.0
C1847 C 0.98601 0.63035 0.12123 0.0
C1848 C 0.97365 0.603 0.12669 0.0
H1849 H 0.90627 0.63982 -0.00089 0.0
H1850 H 0.91926 0.63385 0.03804 0.0
C1851 C 0.97668 0.59484 0.14872 0.0
C1852 C 0.981 0.63872 0.09845 0.0
H1853 H 0.95146 0.67079 0.07259 0.0
C1854 C 0.98865 0.63044 0.07839 0.0
C1855 C 0.96734 0.65336 0.09644 0.0
C1856 C 0.95762 0.6617 0.11746 0.0
C1857 C 0.98286 0.63628 0.05626 0.0
C1858 C 0.96949 0.65119 0.05424 0.0
C1859 C 0.96195 0.65959 0.07429 0.0
C1860 C 0.96194 0.65702 0.03141 0.0
C1861 C 0.99032 0.62571 0.03525 0.0
C1862 C 0.9817 0.67275 0.01514 0.0
C1863 C 0.97439 0.67615 0.99286 0.0
C1864 C 0.94715 0.66398 0.98654 0.0
C1865 C 0.92741 0.64937 0.00333 0.0
C1866 C 0.93478 0.64593 0.02559 0.0
H1867 H 0.99497 0.60974 0.03991 0.0
H1868 H 0.97383 0.61753 0.02229 0.0
H1869 H 0.00839 0.64236 0.02697 0.0
H1870 H 0.00278 0.68192 0.01953 0.0
H1871 H 0.99013 0.6878 0.98046 0.0
H1872 H 0.36708 0.31252 0.17899 0.0
H1873 H 0.3544 0.2934 0.14006 0.0
H1874 H 0.42795 0.35873 0.11271 0.0
H1875 H 0.44119 0.37747 0.15164 0.0
H1876 H 0.34488 0.31369 0.10252 0.0
H1877 H 0.429 0.29582 0.0841 0.0
H1878 H 0.42257 0.30391 0.11277 0.0
H1879 H 0.44083 0.33011 0.09186 0.0
C1880 C 0.38066 0.32269 0.16471 0.0
C1881 C 0.40521 0.34642 0.1684 0.0
C1882 C 0.37339 0.31173 0.14249 0.0
C1883 C 0.39044 0.32437 0.12356 0.0
C1884 C 0.41485 0.34819 0.12717 0.0
H1885 H 0.34766 0.31366 0.97951 0.0
H1886 H 0.35618 0.3241 0.02077 0.0
C1887 C 0.42231 0.35897 0.14942 0.0
C1888 C 0.38212 0.31344 0.09985 0.0
H1889 H 0.40345 0.29586 0.0512 0.0
C1890 C 0.35753 0.30949 0.09137 0.0
C1891 C 0.39841 0.30748 0.08548 0.0
C1892 C 0.42402 0.30927 0.09411 0.0
C1893 C 0.3492 0.30061 0.06862 0.0
C1894 C 0.36635 0.29641 0.05377 0.0
C1895 C 0.39049 0.29946 0.06251 0.0
C1896 C 0.36001 0.28943 0.02897 0.0
C1897 C 0.32205 0.29565 0.06084 0.0
C1898 C 0.36003 0.26686 0.01976 0.0
C1899 C 0.3557 0.26115 -0.0039 0.0
C1900 C 0.35115 0.27785 0.98123 0.0
C1901 C 0.35083 0.30026 0.99055 0.0
C1902 C 0.35551 0.30615 0.01417 0.0
H1903 H 0.30823 0.29103 0.07581 0.0
H1904 H 0.3244 0.31401 0.05234 0.0
H1905 H 0.31265 0.2788 0.04827 0.0
H1906 H 0.36357 0.25376 0.03086 0.0
H1907 H 0.35596 0.24366 0.98946 0.0
H1908 H 0.99332 0.35344 0.67576 0.0
H1909 H 0.98997 0.33816 0.63578 0.0
H1910 H 0.98263 0.40534 0.61205 0.0
H1911 H 0.98504 0.42029 0.65212 0.0
H1912 H 0.94403 0.35951 0.59517 0.0
H1913 H 0.04151 0.36394 0.58215 0.0
H1914 H 0.02414 0.34465 0.60725 0.0
H1915 H 0.03526 0.37996 0.60638 0.0
C1916 C 0.99135 0.36516 0.662 0.0
C1917 C 0.98926 0.38795 0.66701 0.0
C1918 C 0.98969 0.35654 0.63916 0.0
C1919 C 0.9865 0.37088 0.62098 0.0
C1920 C 0.9852 0.39409 0.62589 0.0
H1921 H 0.98601 0.3371 0.4746 0.0
H1922 H -0.0017 0.35583 0.51363 0.0
C1923 C 0.98647 0.40252 0.64875 0.0
C1924 C 0.98179 0.36021 0.59716 0.0
H1925 H 0.00676 0.33751 0.55471 0.0
C1926 C 0.95788 0.35496 0.58622 0.0
C1927 C 2e-05 0.35454 0.58552 0.0
C1928 C 0.02679 0.36133 0.59584 0.0
C1929 C 0.95141 0.34369 0.56404 0.0
C1930 C 0.96895 0.33669 0.55291 0.0
C1931 C 0.99317 0.34249 0.56357 0.0
C1932 C 0.96268 0.32396 0.52987 0.0
C1933 C 0.92605 0.33977 0.55267 0.0
C1934 C 0.93901 0.29944 0.52635 0.0
C1935 C 0.93173 0.28887 0.50407 0.0
C1936 C 0.94831 0.30246 0.48508 0.0
C1937 C 0.97278 0.32623 0.48889 0.0
C1938 C 0.97986 0.33695 0.51115 0.0
H1939 H 0.91913 0.3529 0.56053 0.0
H1940 H 0.92903 0.34403 0.53377 0.0
H1941 H 0.90987 0.31865 0.55503 0.0
H1942 H 0.92588 0.28882 0.54077 0.0
H1943 H 0.91298 0.27027 0.50168 0.0
H1944 H 0.60606 0.57347 0.65306 0.0
H1945 H 0.62261 0.58476 0.6132 0.0
H1946 H 0.64978 0.66819 0.62669 0.0
H1947 H 0.63359 0.6573 0.66654 0.0
H1948 H 0.61327 0.61351 0.5762 0.0
H1949 H 0.71829 0.66498 0.60893 0.0
H1950 H 0.69002 0.64267 0.62673 0.0
H1951 H 0.697 0.6763 0.62133 0.0
C1952 C 0.61521 0.59417 0.64747 0.0
C1953 C 0.61896 0.61456 0.66308 0.0
C1954 C 0.6246 0.60055 0.62472 0.0
C1955 C 0.63778 0.62733 0.61731 0.0
C1956 C 0.64004 0.64747 0.63234 0.0
H1957 H 0.69408 0.68722 0.47806 0.0
H1958 H 0.67196 0.6775 0.51589 0.0
C1959 C 0.63077 0.64117 0.65507 0.0
C1960 C 0.65087 0.63445 0.59444 0.0
H1961 H 0.71239 0.66737 0.56864 0.0
C1962 C 0.63492 0.62533 0.57445 0.0
C1963 C 0.67913 0.64956 0.59244 0.0
C1964 C 0.6972 0.65879 0.61347 0.0
C1965 C 0.64658 0.63114 0.55232 0.0
C1966 C 0.67481 0.64668 0.55034 0.0
C1967 C 0.69073 0.65566 0.57034 0.0
C1968 C 0.68839 0.65298 0.52766 0.0
C1969 C 0.62873 0.62014 0.53127 0.0
C1970 C 0.7055 0.64301 0.52218 0.0
C1971 C 0.71831 0.64863 0.50071 0.0
C1972 C 0.71427 0.66442 0.48437 0.0
C1973 C 0.69753 0.67488 0.49019 0.0
C1974 C 0.68472 0.66923 0.5117 0.0
H1975 H 0.6082 0.60397 0.53592 0.0
H1976 H 0.62706 0.63653 0.52275 0.0
H1977 H 0.6374 0.61211 0.5185 0.0
H1978 H 0.70867 0.63059 0.53444 0.0
H1979 H 0.73112 0.64032 0.49686 0.0
H1980 H 0.33502 0.96936 0.68042 0.0
H1981 H 0.31314 0.96343 0.64283 0.0
H1982 H 0.39036 0.01177 0.61043 0.0
H1983 H 0.41248 0.01766 0.64774 0.0
H1984 H 0.31648 0.00532 0.61745 0.0
H1985 H 0.35269 0.9493 0.56526 0.0
H1986 H 0.35406 0.95021 0.5966 0.0
H1987 H 0.37994 0.97712 0.57982 0.0
C1988 C 0.34742 0.97844 0.66525 0.0
C1989 C 0.37554 0.99423 0.66712 0.0
C1990 C 0.33484 0.9749 0.64381 0.0
C1991 C 0.35017 0.98683 0.62389 0.0
C1992 C 0.37823 0.00186 0.62556 0.0
H1993 H 0.34735 0.07123 0.51097 0.0
H1994 H 0.34445 0.05126 0.54886 0.0
C1995 C 0.39083 0.00544 0.64695 0.0
C1996 C 0.33709 0.98659 0.60185 0.0
H1997 H 0.34149 0.97887 0.54374 0.0
C1998 C 0.3213 -0.00112 0.60135 0.0
C1999 C 0.34293 0.97766 0.58098 0.0
C2000 C 0.35809 0.96256 0.58071 0.0
C2001 C 0.31338 0.00481 0.58025 0.0
C2002 C 0.32186 -0.00139 0.55932 0.0
C2003 C 0.33538 0.98399 0.55987 0.0
C2004 C 0.32032 0.01024 0.537 0.0
C2005 C 0.29705 0.01872 0.58055 0.0
C2006 C 0.30785 0.99374 0.51779 0.0
C2007 C 0.30965 0.0051 0.496 0.0
C2008 C 0.32424 0.03315 0.49308 0.0
C2009 C 0.33602 0.04958 0.51257 0.0
C2010 C 0.33415 0.03821 0.53431 0.0
H2011 H 0.28452 0.01356 0.59646 0.0
H2012 H 0.31081 0.04076 0.58051 0.0
H2013 H 0.2838 0.01331 0.5651 0.0
H2014 H 0.29731 0.9721 0.51956 0.0
H2015 H 0.30025 0.99183 0.48137 0.0
H2016 H 0.36968 0.01322 0.81584 0.0
H2017 H 0.35554 0.01038 0.85616 0.0
H2018 H 0.39188 0.96256 0.87273 0.0
H2019 H 0.40655 0.96563 0.83256 0.0
H2020 H 0.32109 0.96349 0.87774 0.0
H2021 H 0.41713 0.01613 0.92595 0.0
H2022 H 0.41507 0.01948 0.89497 0.0
H2023 H 0.41538 0.9907 0.9068 0.0
C2024 C 0.37502 0.00241 0.82811 0.0
C2025 C 0.38911 0.98949 0.82095 0.0
C2026 C 0.36697 0.00087 0.85113 0.0
C2027 C 0.37291 0.98649 0.86739 0.0
C2028 C 0.38761 0.97424 0.86051 0.0
H2029 H 0.28666 0.904 0.98956 0.0
H2030 H 0.3056 0.91792 0.95075 0.0
C2031 C 0.39582 0.97587 0.8375 0.0
C2032 C 0.36151 0.9821 0.89097 0.0
H2033 H 0.37784 0.98763 0.94833 0.0
C2034 C 0.33349 0.96905 0.8932 0.0
C2035 C 0.37779 0.98964 0.91102 0.0
C2036 C 0.40802 0.00501 0.90962 0.0
C2037 C 0.32123 0.96249 0.91504 0.0
C2038 C 0.33745 0.96872 0.93503 0.0
C2039 C 0.3655 0.98263 0.93287 0.0
C2040 C 0.32568 0.96043 0.95836 0.0
C2041 C 0.29104 0.94895 0.9165 0.0
C2042 C 0.33121 0.97976 0.9755 0.0
C2043 C 0.32061 0.97191 -0.00226 0.0
C2044 C 0.30438 0.94455 0.00321 0.0
C2045 C 0.29893 0.92523 0.98591 0.0
C2046 C 0.30961 0.93313 0.9637 0.0
H2047 H 0.28231 0.95247 0.90059 0.0
H2048 H 0.2826 0.92699 0.91835 0.0
H2049 H 0.28467 0.95619 0.93176 0.0
H2050 H 0.34369 0.00093 0.97165 0.0
H2051 H 0.32521 0.98733 0.01063 0.0
H2052 H 0.09492 0.37188 0.98737 0.0
H2053 H 0.08174 0.37766 0.94852 0.0
H2054 H -0.0015 0.32484 0.9657 0.0
H2055 H 0.01131 0.31908 0.00473 0.0
H2056 H 0.05123 0.33889 0.91394 0.0
H2057 H 0.00259 0.39586 0.94538 0.0
H2058 H 0.02482 0.3899 0.9633 0.0
H2059 H 0.99099 0.36348 0.95835 0.0
C2060 C 0.07381 0.36135 0.9829 0.0
C2061 C 0.05414 0.3453 -0.00076 0.0
C2062 C 0.06635 0.36466 0.96071 0.0
C2063 C 0.03918 0.35198 0.95455 0.0
C2064 C 0.01954 0.33512 0.97041 0.0
H2065 H 0.98869 0.35469 0.81234 0.0
H2066 H 0.99158 0.33935 0.85116 0.0
C2067 C 0.02695 0.33183 0.99265 0.0
C2068 C 0.03153 0.35721 0.93167 0.0
H2069 H 0.00169 0.38845 0.90509 0.0
C2070 C 0.04021 0.34952 0.91191 0.0
C2071 C 0.01739 0.37131 0.92935 0.0
C2072 C 0.00854 0.38085 0.95018 0.0
C2073 C 0.03549 0.356 0.88968 0.0
C2074 C 0.02138 0.37013 0.88736 0.0
C2075 C 0.0123 0.37742 0.90711 0.0
C2076 C 0.01763 0.37925 0.8646 0.0
C2077 C 0.04653 0.34863 0.86893 0.0
C2078 C 0.03057 0.40677 0.85978 0.0
C2079 C 0.0289 0.41566 0.83771 0.0
C2080 C 0.01424 0.39709 0.82016 0.0
C2081 C 0.00043 0.36951 0.82539 0.0
C2082 C 0.00206 0.36067 0.84751 0.0
H2083 H 0.06133 0.34253 0.87403 0.0
H2084 H 0.02981 0.33158 0.85964 0.0
H2085 H 0.05632 0.36575 0.85666 0.0
H2086 H 0.04259 0.42134 0.87292 0.0
H2087 H 0.03965 0.43703 0.8343 0.0
H2088 H 0.66994 0.66507 0.80258 0.0
H2089 H 0.691 0.68043 0.84063 0.0
H2090 H 0.61352 0.63583 0.87349 0.0
H2091 H 0.59232 0.62016 0.83582 0.0
H2092 H 0.6804 0.71041 0.87168 0.0
H2093 H 0.65977 0.61499 0.91204 0.0
H2094 H 0.65808 0.61872 0.88105 0.0
H2095 H 0.62996 0.612 0.8993 0.0
C2096 C 0.65739 0.65834 0.81792 0.0
C2097 C 0.62941 0.64142 0.81616 0.0
C2098 C 0.6695 0.66706 0.8396 0.0
C2099 C 0.65385 0.65877 0.85979 0.0
C2100 C 0.62601 0.64184 0.8581 0.0
H2101 H 0.64233 0.7226 0.98295 0.0
H2102 H 0.64684 0.71086 0.94331 0.0
C2103 C 0.61389 0.63315 0.83651 0.0
C2104 C 0.66585 0.6696 0.88263 0.0
H2105 H 0.66383 0.64986 0.93862 0.0
C2106 C 0.6775 0.6973 0.88626 0.0
C2107 C 0.66262 0.65255 0.90147 0.0
C2108 C 0.6522 0.62294 0.89821 0.0
C2109 C 0.6835 0.70803 0.90869 0.0
C2110 C 0.67721 0.69047 0.92777 0.0
C2111 C 0.66815 0.6632 0.92394 0.0
C2112 C 0.6763 0.6992 0.95161 0.0
C2113 C 0.69533 0.73787 0.91183 0.0
C2114 C 0.69086 0.69581 0.96946 0.0
C2115 C 0.68811 0.70224 0.99228 0.0
C2116 C 0.67057 0.71193 -0.00244 0.0
C2117 C 0.65605 0.71526 0.97953 0.0
C2118 C 0.65882 0.70884 0.9568 0.0
H2119 H 0.7075 0.74906 0.8965 0.0
H2120 H 0.67883 0.74246 0.91366 0.0
H2121 H 0.70812 0.74517 0.92758 0.0
H2122 H 0.70418 0.68806 0.96574 0.0
H2123 H 0.69965 0.69949 0.00574 0.0
H2124 H 0.72095 0.97202 0.67681 0.0
H2125 H 0.71463 0.98874 0.71381 0.0
H2126 H 0.66862 0.01925 0.67975 0.0
H2127 H 0.67503 0.00292 0.64253 0.0
H2128 H 0.70761 0.05599 0.70941 0.0
H2129 H 0.64614 0.95813 0.75297 0.0
H2130 H 0.67635 0.96143 0.74076 0.0
H2131 H 0.65127 0.9612 0.72194 0.0
C2132 C 0.70943 0.98223 0.67713 0.0
C2133 C 0.69848 0.98609 0.65668 0.0
C2134 C 0.70566 0.99156 0.69832 0.0
C2135 C 0.69072 0.00472 0.69949 0.0
C2136 C 0.67999 0.0089 0.67916 0.0
H2137 H 0.66373 0.04281 0.84079 0.0
H2138 H 0.65372 0.02921 0.80009 0.0
C2139 C 0.68375 -0.00042 0.65793 0.0
C2140 C 0.68754 0.01522 0.72188 0.0
H2141 H 0.66884 0.99673 0.77799 0.0
C2142 C 0.69869 0.04303 0.72434 0.0
C2143 C 0.67531 -0.0018 0.74113 0.0
C2144 C 0.66133 0.96805 0.73904 0.0
C2145 C 0.69971 0.05445 0.74606 0.0
C2146 C 0.68973 0.03758 0.76571 0.0
C2147 C 0.67677 0.00965 0.76291 0.0
C2148 C 0.69534 0.04844 0.78952 0.0
C2149 C 0.71214 0.0845 0.74787 0.0
C2150 C 0.72202 0.06375 0.79692 0.0
C2151 C 0.72783 0.07147 0.82005 0.0
C2152 C 0.70702 0.06381 0.83631 0.0
C2153 C 0.68023 0.04901 0.82872 0.0
C2154 C 0.67445 0.04126 0.80549 0.0
H2155 H 0.70995 0.09318 0.73135 0.0
H2156 H 0.70293 0.09017 0.76211 0.0
H2157 H 0.73392 0.09356 0.75145 0.0
H2158 H 0.73844 0.06892 0.78497 0.0
H2159 H 0.74869 0.08289 0.82524 0.0
H2160 H 0.0753 0.75602 0.67202 0.0
H2161 H 0.05694 0.7392 0.71039 0.0
H2162 H 0.01513 0.65826 0.68393 0.0
H2163 H 0.03313 0.6749 0.6452 0.0
H2164 H 0.98226 0.67201 0.70754 0.0
H2165 H 0.07282 0.69838 0.75957 0.0
H2166 H 0.0766 0.72645 0.74302 0.0
H2167 H 0.07273 0.69714 0.72824 0.0
C2168 C 0.06253 0.73458 0.67434 0.0
C2169 C 0.05555 0.71684 0.65546 0.0
C2170 C 0.05224 0.72499 0.69637 0.0
C2171 C 0.03499 0.69747 0.70002 0.0
C2172 C 0.02858 0.67956 0.68143 0.0
H2173 H 0.97803 0.65338 0.84287 0.0
H2174 H 0.99461 0.65107 0.80442 0.0
C2175 C 0.03889 0.68914 0.65933 0.0
C2176 C 0.02159 0.68806 0.7227 0.0
H2177 H 0.03428 0.69349 0.78078 0.0
C2178 C 0.99355 0.67616 0.72356 0.0
C2179 C 0.03632 0.69312 0.74351 0.0
C2180 C 0.06626 0.70421 0.74355 0.0
C2181 C 0.98002 0.67088 0.74482 0.0
C2182 C 0.99504 0.67815 0.76561 0.0
C2183 C 0.02285 0.6883 0.76477 0.0
C2184 C 0.98273 0.67745 0.78827 0.0
C2185 C 0.94987 0.65816 0.7448 0.0
C2186 C 0.97054 0.69304 0.79185 0.0
C2187 C 0.96103 0.69444 0.81376 0.0
C2188 C 0.96382 0.68049 0.83258 0.0
C2189 C 0.97566 0.6645 0.82881 0.0
C2190 C 0.9851 0.66307 0.80685 0.0
H2191 H 0.94096 0.646 0.72888 0.0
H2192 H 0.94082 0.64513 0.76022 0.0
H2193 H 0.94446 0.67417 0.74514 0.0
H2194 H 0.9691 0.7048 0.77783 0.0
H2195 H 0.95211 0.70701 0.81605 0.0
H2196 H 0.23844 0.33585 0.6628 0.0
H2197 H 0.24396 0.33172 0.70432 0.0
H2198 H 0.3212 0.3389 0.69145 0.0
H2199 H 0.31623 0.34402 0.64997 0.0
H2200 H 0.24645 0.29212 0.72351 0.0
H2201 H 0.33844 0.38595 0.74738 0.0
H2202 H 0.32115 0.38219 0.72028 0.0
H2203 H 0.3445 0.37012 0.72317 0.0
C2204 C 0.25678 0.33695 0.66887 0.0
C2205 C 0.27685 0.34007 0.65315 0.0
C2206 C 0.25995 0.3347 0.69259 0.0
C2207 C 0.28312 0.33533 0.70104 0.0
C2208 C 0.30348 0.33912 0.68543 0.0
H2209 H 0.29668 0.24745 0.81235 0.0
H2210 H 0.29058 0.26573 0.7763 0.0
C2211 C 0.30051 0.34179 0.6617 0.0
C2212 C 0.28455 0.32882 0.72564 0.0
H2213 H 0.32588 0.34792 0.77282 0.0
C2214 C 0.26362 0.3046 0.73441 0.0
C2215 C 0.30671 0.34527 0.74003 0.0
C2216 C 0.3288 0.37247 0.73229 0.0
C2217 C 0.26489 0.29569 0.75669 0.0
C2218 C 0.28806 0.31104 0.77031 0.0
C2219 C 0.30833 0.33598 0.76214 0.0
C2220 C 0.29231 0.30059 0.79233 0.0
C2221 C 0.24152 0.26971 0.76531 0.0
C2222 C 0.29623 0.31465 0.81317 0.0
C2223 C 0.30001 0.30437 0.83391 0.0
C2224 C 0.29995 0.27987 0.83404 0.0
C2225 C 0.29648 0.26616 0.81297 0.0
C2226 C 0.29287 0.27652 0.79233 0.0
H2227 H 0.22254 0.2653 0.75655 0.0
H2228 H 0.24527 0.25299 0.76137 0.0
H2229 H 0.23883 0.27027 0.78434 0.0
H2230 H 0.29608 0.3334 0.81343 0.0
H2231 H 0.30275 0.31549 0.84981 0.0
H2232 H 0.02915 0.35073 0.14354 0.0
H2233 H 0.01423 0.35226 0.18279 0.0
H2234 H 0.03544 0.29363 0.20483 0.0
H2235 H 0.05067 0.29198 0.1656 0.0
H2236 H 0.97298 0.30757 0.20545 0.0
H2237 H 0.06824 0.35246 0.25511 0.0
H2238 H 0.06722 0.35504 0.22392 0.0
H2239 H 0.06311 0.32485 0.23703 0.0
C2240 C 0.03092 0.3383 0.15674 0.0
C2241 C 0.04095 0.32106 0.15141 0.0
C2242 C 0.02244 0.3393 0.17914 0.0
C2243 C 0.02403 0.32328 0.19659 0.0
C2244 C 0.03456 0.30651 0.19156 0.0
H2245 H 0.93719 0.24896 0.3171 0.0
H2246 H 0.95358 0.26334 0.27774 0.0
C2247 C 0.04307 0.30546 0.16913 0.0
C2248 C 0.01261 0.32235 0.21959 0.0
H2249 H 0.02757 0.32909 0.2772 0.0
C2250 C 0.98493 0.31267 0.22116 0.0
C2251 C 0.02842 0.32944 0.23989 0.0
C2252 C 0.05845 0.34129 0.23896 0.0
C2253 C 0.97232 0.30842 0.24275 0.0
C2254 C 0.98785 0.31373 0.26306 0.0
C2255 C 0.01575 0.32487 0.26148 0.0
C2256 C 0.97539 0.30567 0.28608 0.0
C2257 C 0.94246 0.29775 0.24366 0.0
C2258 C 0.9823 0.32482 0.30366 0.0
C2259 C 0.97311 0.3167 0.32621 0.0
C2260 C 0.95712 0.28926 0.33152 0.0
C2261 C 0.94953 0.27023 0.31362 0.0
C2262 C 0.95869 0.2784 0.29108 0.0
H2263 H 0.93511 0.30235 0.22744 0.0
H2264 H 0.93194 0.27562 0.24567 0.0
H2265 H 0.93705 0.30627 0.25862 0.0
H2266 H 0.99535 0.34595 0.30002 0.0
H2267 H 0.97927 0.33189 0.33958 0.0
H2268 H 0.78661 0.7228 0.32191 0.0
H2269 H 0.77605 0.72864 0.28203 0.0
H2270 H 0.702 0.72284 0.30518 0.0
H2271 H 0.712 0.71632 0.34498 0.0
H2272 H 0.69485 0.69176 0.26761 0.0
H2273 H 0.77998 0.79468 0.25318 0.0
H2274 H 0.79037 0.77143 0.26225 0.0
H2275 H 0.77097 0.77962 0.28161 0.0
C2276 C 0.76819 0.72299 0.31854 0.0
C2277 C 0.75017 0.71918 0.33659 0.0
C2278 C 0.76225 0.72644 0.29578 0.0
C2279 C 0.73847 0.72658 0.29079 0.0
C2280 C 0.7205 0.72287 0.30875 0.0
H2281 H 0.7047 0.77932 0.16108 0.0
H2282 H 0.71253 0.77357 0.20175 0.0
C2283 C 0.72627 0.71915 0.33146 0.0
C2284 C 0.73178 0.72967 0.26672 0.0
H2285 H 0.75461 0.77126 0.21985 0.0
C2286 C 0.70781 0.7092 0.25717 0.0
C2287 C 0.74859 0.75263 0.25335 0.0
C2288 C 0.77378 0.77597 0.26317 0.0
C2289 C 0.70034 0.71088 0.23439 0.0
C2290 C 0.71771 0.73332 0.22071 0.0
C2291 C 0.74148 0.75398 0.23038 0.0
C2292 C 0.71164 0.73591 0.19632 0.0
C2293 C 0.67377 0.68885 0.22535 0.0
C2294 C 0.70858 0.71661 0.17987 0.0
C2295 C 0.70386 0.71969 0.15665 0.0
C2296 C 0.7026 0.74239 0.14948 0.0
C2297 C 0.70569 0.76168 0.16604 0.0
C2298 C 0.71014 0.75843 0.18927 0.0
H2299 H 0.65973 0.67761 0.23972 0.0
H2300 H 0.6641 0.69704 0.21384 0.0
H2301 H 0.67713 0.67441 0.21518 0.0
H2302 H 0.71032 0.69941 0.18491 0.0
H2303 H 0.7018 0.70461 0.14427 0.0
H2304 H 0.31097 0.07546 0.32556 0.0
H2305 H 0.30849 0.06216 0.28487 0.0
H2306 H 0.30772 0.98986 0.30604 0.0
H2307 H 0.31106 0.00332 0.34653 0.0
H2308 H 0.3397 0.01252 0.26907 0.0
H2309 H 0.24057 0.00476 0.25478 0.0
H2310 H 0.26634 0.03738 0.26398 0.0
H2311 H 0.25524 0.00917 0.28322 0.0
C2312 C 0.31033 0.05677 0.32151 0.0
C2313 C 0.31096 0.04032 0.33923 0.0
C2314 C 0.30882 0.04917 0.2983 0.0
C2315 C 0.30739 0.02479 0.29254 0.0
C2316 C 0.30873 0.00872 0.31015 0.0
H2317 H 0.24218 0.93178 0.16858 0.0
H2318 H 0.25232 0.94963 0.20803 0.0
C2319 C 0.3106 0.01644 0.33329 0.0
C2320 C 0.30382 0.01546 0.26826 0.0
H2321 H 0.26109 0.99754 0.22222 0.0
C2322 C 0.32255 0.00926 0.25877 0.0
C2323 C 0.28119 0.01089 0.25508 0.0
C2324 C 0.25954 0.01564 0.26481 0.0
C2325 C 0.31914 -0.00165 0.23645 0.0
C2326 C 0.2968 0.9943 0.22311 0.0
C2327 C 0.27825 0.00077 0.23251 0.0
C2328 C 0.29173 0.9827 0.19956 0.0
C2329 C 0.33899 0.99047 0.22773 0.0
C2330 C 0.31064 0.9953 0.18181 0.0
C2331 C 0.30506 0.98493 0.15933 0.0
C2332 C 0.28023 0.96212 0.15417 0.0
C2333 C 0.26142 0.94945 0.17202 0.0
C2334 C 0.26717 0.95962 0.19454 0.0
H2335 H 0.35012 0.98772 0.24223 0.0
H2336 H 0.32881 0.97159 0.21752 0.0
H2337 H 0.35387 0.00659 0.21634 0.0
H2338 H 0.32943 0.0135 0.1852 0.0
H2339 H 0.31983 0.99529 0.14586 0.0
loop_
_geom_bond_atom_site_label_1
_geom_bond_atom_site_label_2
_geom_bond_distance
_geom_bond_site_symmetry_2
_ccdc_geom_bond_type
Sc0 O3 2.025 . S
Sc0 O10 2.105 . S
Sc0 O13 2.105 1_455 S
Sc0 O16 2.105 . S
Sc0 O19 2.105 1_455 S
Sc1 O3 2.025 1_655 S
Sc1 O11 2.105 . S
Sc1 O15 2.105 . S
Sc1 O17 2.105 . S
Sc1 O21 2.105 . S
Sc2 O3 2.025 . S
Sc2 O12 2.105 . S
Sc2 O14 2.105 . S
Sc2 O18 2.105 . S
Sc2 O20 2.105 . S
O3 Sc0 2.025 . S
O3 Sc1 2.025 1_455 S
O3 Sc2 2.025 . S
C4 O10 1.268 . S
C4 O20 1.268 . S
C5 O11 1.268 . S
C5 O19 1.268 . S
C6 O12 1.268 . S
C6 O21 1.268 1_455 S
C7 O13 1.268 . S
C7 O17 1.268 . S
C8 O14 1.268 . S
C8 O16 1.268 . S
C9 O15 1.268 . S
C9 O18 1.268 1_655 S
O10 Sc0 2.105 . S
O10 C4 1.268 . S
O11 Sc1 2.105 . S
O11 C5 1.268 . S
O12 Sc2 2.105 . S
O12 C6 1.268 . S
O13 Sc0 2.105 1_655 S
O13 C7 1.268 . S
O14 Sc2 2.105 . S
O14 C8 1.268 . S
O15 Sc1 2.105 . S
O15 C9 1.268 . S
O16 Sc0 2.105 . S
O16 C8 1.268 . S
O17 Sc1 2.105 . S
O17 C7 1.268 . S
O18 Sc2 2.105 . S
O18 C9 1.268 1_455 S
O19 Sc0 2.105 1_655 S
O19 C5 1.268 . S
O20 Sc2 2.105 . S
O20 C4 1.268 . S
O21 Sc1 2.105 . S
O21 C6 1.268 1_655 S
Sc22 O25 2.025 . S
Sc22 O32 2.105 . S
Sc22 O35 2.105 . S
Sc22 O38 2.105 . S
Sc22 O41 2.105 . S
Sc23 O25 2.025 . S
Sc23 O33 2.105 . S
Sc23 O37 2.105 . S
Sc23 O39 2.105 . S
Sc23 O43 2.105 . S
Sc24 O25 2.025 . S
Sc24 O34 2.105 . S
Sc24 O36 2.105 . S
Sc24 O40 2.105 . S
Sc24 O42 2.105 . S
O25 Sc22 2.025 . S
O25 Sc23 2.025 . S
O25 Sc24 2.025 . S
C26 O32 1.268 . S
C26 O42 1.268 . S
C27 O33 1.268 . S
C27 O41 1.268 . S
C28 O34 1.268 . S
C28 O43 1.268 . S
C29 O35 1.268 . S
C29 O39 1.268 . S
C30 O36 1.268 . S
C30 O38 1.268 . S
C31 O37 1.268 . S
C31 O40 1.268 . S
O32 Sc22 2.105 . S
O32 C26 1.268 . S
O33 Sc23 2.105 . S
O33 C27 1.268 . S
O34 Sc24 2.105 . S
O34 C28 1.268 . S
O35 Sc22 2.105 . S
O35 C29 1.268 . S
O36 Sc24 2.105 . S
O36 C30 1.268 . S
O37 Sc23 2.105 . S
O37 C31 1.268 . S
O38 Sc22 2.105 . S
O38 C30 1.268 . S
O39 Sc23 2.105 . S
O39 C29 1.268 . S
O40 Sc24 2.105 . S
O40 C31 1.268 . S
O41 Sc22 2.105 . S
O41 C27 1.268 . S
O42 Sc24 2.105 . S
O42 C26 1.268 . S
O43 Sc23 2.105 . S
O43 C28 1.268 . S
Sc44 O47 2.025 . S
Sc44 O54 2.105 . S
Sc44 O57 2.105 . S
Sc44 O60 2.105 . S
Sc44 O63 2.105 . S
Sc45 O47 2.025 1_565 S
Sc45 O55 2.105 . S
Sc45 O59 2.105 . S
Sc45 O61 2.105 . S
Sc45 O65 2.105 . S
Sc46 O47 2.025 . S
Sc46 O56 2.105 1_545 S
Sc46 O58 2.105 . S
Sc46 O62 2.105 1_545 S
Sc46 O64 2.105 . S
O47 Sc44 2.025 . S
O47 Sc45 2.025 1_545 S
O47 Sc46 2.025 . S
C48 O54 1.268 . S
C48 O64 1.268 . S
C49 O55 1.268 . S
C49 O63 1.268 1_565 S
C50 O56 1.268 . S
C50 O65 1.268 . S
C51 O57 1.268 . S
C51 O61 1.268 1_545 S
C52 O58 1.268 . S
C52 O60 1.268 . S
C53 O59 1.268 . S
C53 O62 1.268 . S
O54 Sc44 2.105 . S
O54 C48 1.268 . S
O55 Sc45 2.105 . S
O55 C49 1.268 . S
O56 Sc46 2.105 1_565 S
O56 C50 1.268 . S
O57 Sc44 2.105 . S
O57 C51 1.268 . S
O58 Sc46 2.105 . S
O58 C52 1.268 . S
O59 Sc45 2.105 . S
O59 C53 1.268 . S
O60 Sc44 2.105 . S
O60 C52 1.268 . S
O61 Sc45 2.105 . S
O61 C51 1.268 1_565 S
O62 Sc46 2.105 1_565 S
O62 C53 1.268 . S
O63 Sc44 2.105 . S
O63 C49 1.268 1_545 S
O64 Sc46 2.105 . S
O64 C48 1.268 . S
O65 Sc45 2.105 . S
O65 C50 1.268 . S
Sc66 O69 2.025 . S
Sc66 O76 2.105 1_455 S
Sc66 O79 2.105 . S
Sc66 O82 2.105 1_455 S
Sc66 O85 2.105 . S
Sc67 O69 2.025 . S
Sc67 O77 2.105 . S
Sc67 O81 2.105 . S
Sc67 O83 2.105 . S
Sc67 O87 2.105 . S
Sc68 O69 2.025 1_655 S
Sc68 O78 2.105 . S
Sc68 O80 2.105 . S
Sc68 O84 2.105 . S
Sc68 O86 2.105 . S
O69 Sc66 2.025 . S
O69 Sc67 2.025 . S
O69 Sc68 2.025 1_455 S
C70 O76 1.268 . S
C70 O86 1.268 . S
C71 O77 1.268 . S
C71 O85 1.268 . S
C72 O78 1.268 1_455 S
C72 O87 1.268 . S
C73 O79 1.268 . S
C73 O83 1.268 . S
C74 O80 1.268 . S
C74 O82 1.268 . S
C75 O81 1.268 1_655 S
C75 O84 1.268 . S
O76 Sc66 2.105 1_655 S
O76 C70 1.268 . S
O77 Sc67 2.105 . S
O77 C71 1.268 . S
O78 Sc68 2.105 . S
O78 C72 1.268 1_655 S
O79 Sc66 2.105 . S
O79 C73 1.268 . S
O80 Sc68 2.105 . S
O80 C74 1.268 . S
O81 Sc67 2.105 . S
O81 C75 1.268 1_455 S
O82 Sc66 2.105 1_655 S
O82 C74 1.268 . S
O83 Sc67 2.105 . S
O83 C73 1.268 . S
O84 Sc68 2.105 . S
O84 C75 1.268 . S
O85 Sc66 2.105 . S
O85 C71 1.268 . S
O86 Sc68 2.105 . S
O86 C70 1.268 . S
O87 Sc67 2.105 . S
O87 C72 1.268 . S
Sc88 O91 2.025 . S
Sc88 O98 2.105 . S
Sc88 O101 2.105 . S
Sc88 O104 2.105 . S
Sc88 O107 2.105 . S
Sc89 O91 2.025 . S
Sc89 O99 2.105 . S
Sc89 O103 2.105 . S
Sc89 O105 2.105 . S
Sc89 O109 2.105 . S
Sc90 O91 2.025 . S
Sc90 O100 2.105 . S
Sc90 O102 2.105 . S
Sc90 O106 2.105 . S
Sc90 O108 2.105 . S
O91 Sc88 2.025 . S
O91 Sc89 2.025 . S
O91 Sc90 2.025 . S
C92 O98 1.268 . S
C92 O108 1.268 . S
C93 O99 1.268 . S
C93 O107 1.268 . S
C94 O100 1.268 . S
C94 O109 1.268 . S
C95 O101 1.268 . S
C95 O105 1.268 . S
C96 O102 1.268 . S
C96 O104 1.268 . S
C97 O103 1.268 . S
C97 O106 1.268 . S
O98 Sc88 2.105 . S
O98 C92 1.268 . S
O99 Sc89 2.105 . S
O99 C93 1.268 . S
O100 Sc90 2.105 . S
O100 C94 1.268 . S
O101 Sc88 2.105 . S
O101 C95 1.268 . S
O102 Sc90 2.105 . S
O102 C96 1.268 . S
O103 Sc89 2.105 . S
O103 C97 1.268 . S
O104 Sc88 2.105 . S
O104 C96 1.268 . S
O105 Sc89 2.105 . S
O105 C95 1.268 . S
O106 Sc90 2.105 . S
O106 C97 1.268 . S
O107 Sc88 2.105 . S
O107 C93 1.268 . S
O108 Sc90 2.105 . S
O108 C92 1.268 . S
O109 Sc89 2.105 . S
O109 C94 1.268 . S
Sc110 O113 2.025 1_565 S
Sc110 O120 2.105 . S
Sc110 O123 2.105 . S
Sc110 O126 2.105 . S
Sc110 O129 2.105 . S
Sc111 O113 2.025 . S
Sc111 O121 2.105 . S
Sc111 O125 2.105 . S
Sc111 O127 2.105 . S
Sc111 O131 2.105 . S
Sc112 O113 2.025 . S
Sc112 O122 2.105 . S
Sc112 O124 2.105 1_545 S
Sc112 O128 2.105 . S
Sc112 O130 2.105 1_545 S
O113 Sc110 2.025 1_545 S
O113 Sc111 2.025 . S
O113 Sc112 2.025 . S
C114 O120 1.268 . S
C114 O130 1.268 . S
C115 O121 1.268 1_565 S
C115 O129 1.268 . S
C116 O122 1.268 . S
C116 O131 1.268 . S
C117 O123 1.268 1_545 S
C117 O127 1.268 . S
C118 O124 1.268 . S
C118 O126 1.268 . S
C119 O125 1.268 . S
C119 O128 1.268 . S
O120 Sc110 2.105 . S
O120 C114 1.268 . S
O121 Sc111 2.105 . S
O121 C115 1.268 1_545 S
O122 Sc112 2.105 . S
O122 C116 1.268 . S
O123 Sc110 2.105 . S
O123 C117 1.268 1_565 S
O124 Sc112 2.105 1_565 S
O124 C118 1.268 . S
O125 Sc111 2.105 . S
O125 C119 1.268 . S
O126 Sc110 2.105 . S
O126 C118 1.268 . S
O127 Sc111 2.105 . S
O127 C117 1.268 . S
O128 Sc112 2.105 . S
O128 C119 1.268 . S
O129 Sc110 2.105 . S
O129 C115 1.268 . S
O130 Sc112 2.105 1_565 S
O130 C114 1.268 . S
O131 Sc111 2.105 . S
O131 C116 1.268 . S
Sc132 O135 2.025 . S
Sc132 O142 2.105 . S
Sc132 O145 2.105 . S
Sc132 O148 2.105 . S
Sc132 O151 2.105 . S
Sc133 O135 2.025 . S
Sc133 O143 2.105 . S
Sc133 O147 2.105 . S
Sc133 O149 2.105 . S
Sc133 O153 2.105 . S
Sc134 O135 2.025 . S
Sc134 O144 2.105 . S
Sc134 O146 2.105 . S
Sc134 O150 2.105 . S
Sc134 O152 2.105 . S
O135 Sc132 2.025 . S
O135 Sc133 2.025 . S
O135 Sc134 2.025 . S
C136 O142 1.268 . S
C136 O152 1.268 . S
C137 O143 1.268 . S
C137 O151 1.268 . S
C138 O144 1.268 . S
C138 O153 1.268 . S
C139 O145 1.268 . S
C139 O149 1.268 . S
C140 O146 1.268 . S
C140 O148 1.268 . S
C141 O147 1.268 . S
C141 O150 1.268 . S
O142 Sc132 2.105 . S
O142 C136 1.268 . S
O143 Sc133 2.105 . S
O143 C137 1.268 . S
O144 Sc134 2.105 . S
O144 C138 1.268 . S
O145 Sc132 2.105 . S
O145 C139 1.268 . S
O146 Sc134 2.105 . S
O146 C140 1.268 . S
O147 Sc133 2.105 . S
O147 C141 1.268 . S
O148 Sc132 2.105 . S
O148 C140 1.268 . S
O149 Sc133 2.105 . S
O149 C139 1.268 . S
O150 Sc134 2.105 . S
O150 C141 1.268 . S
O151 Sc132 2.105 . S
O151 C137 1.268 . S
O152 Sc134 2.105 . S
O152 C136 1.268 . S
O153 Sc133 2.105 . S
O153 C138 1.268 . S
Sc154 O157 2.025 . S
Sc154 O164 2.105 . S
Sc154 O167 2.105 . S
Sc154 O170 2.105 . S
Sc154 O173 2.105 . S
Sc155 O157 2.025 . S
Sc155 O165 2.105 . S
Sc155 O169 2.105 . S
Sc155 O171 2.105 . S
Sc155 O175 2.105 . S
Sc156 O157 2.025 . S
Sc156 O166 2.105 . S
Sc156 O168 2.105 . S
Sc156 O172 2.105 . S
Sc156 O174 2.105 . S
O157 Sc154 2.025 . S
O157 Sc155 2.025 . S
O157 Sc156 2.025 . S
C158 O164 1.268 . S
C158 O174 1.268 . S
C159 O165 1.268 . S
C159 O173 1.268 . S
C160 O166 1.268 . S
C160 O175 1.268 . S
C161 O167 1.268 . S
C161 O171 1.268 . S
C162 O168 1.268 . S
C162 O170 1.268 . S
C163 O169 1.268 . S
C163 O172 1.268 . S
O164 Sc154 2.105 . S
O164 C158 1.268 . S
O165 Sc155 2.105 . S
O165 C159 1.268 . S
O166 Sc156 2.105 . S
O166 C160 1.268 . S
O167 Sc154 2.105 . S
O167 C161 1.268 . S
O168 Sc156 2.105 . S
O168 C162 1.268 . S
O169 Sc155 2.105 . S
O169 C163 1.268 . S
O170 Sc154 2.105 . S
O170 C162 1.268 . S
O171 Sc155 2.105 . S
O171 C161 1.268 . S
O172 Sc156 2.105 . S
O172 C163 1.268 . S
O173 Sc154 2.105 . S
O173 C159 1.268 . S
O174 Sc156 2.105 . S
O174 C158 1.268 . S
O175 Sc155 2.105 . S
O175 C160 1.268 . S
Sc176 O179 2.025 . S
Sc176 O186 2.105 . S
Sc176 O189 2.105 . S
Sc176 O192 2.105 . S
Sc176 O195 2.105 . S
Sc177 O179 2.025 . S
Sc177 O187 2.105 . S
Sc177 O191 2.105 . S
Sc177 O193 2.105 . S
Sc177 O197 2.105 . S
Sc178 O179 2.025 . S
Sc178 O188 2.105 . S
Sc178 O190 2.105 . S
Sc178 O194 2.105 . S
Sc178 O196 2.105 . S
O179 Sc176 2.025 . S
O179 Sc177 2.025 . S
O179 Sc178 2.025 . S
C180 O186 1.268 . S
C180 O196 1.268 . S
C181 O187 1.268 . S
C181 O195 1.268 . S
C182 O188 1.268 . S
C182 O197 1.268 . S
C183 O189 1.268 . S
C183 O193 1.268 . S
C184 O190 1.268 . S
C184 O192 1.268 . S
C185 O191 1.268 . S
C185 O194 1.268 . S
O186 Sc176 2.105 . S
O186 C180 1.268 . S
O187 Sc177 2.105 . S
O187 C181 1.268 . S
O188 Sc178 2.105 . S
O188 C182 1.268 . S
O189 Sc176 2.105 . S
O189 C183 1.268 . S
O190 Sc178 2.105 . S
O190 C184 1.268 . S
O191 Sc177 2.105 . S
O191 C185 1.268 . S
O192 Sc176 2.105 . S
O192 C184 1.268 . S
O193 Sc177 2.105 . S
O193 C183 1.268 . S
O194 Sc178 2.105 . S
O194 C185 1.268 . S
O195 Sc176 2.105 . S
O195 C181 1.268 . S
O196 Sc178 2.105 . S
O196 C180 1.268 . S
O197 Sc177 2.105 . S
O197 C182 1.268 . S
Sc198 O201 2.025 . S
Sc198 O208 2.105 . S
Sc198 O211 2.105 . S
Sc198 O214 2.105 . S
Sc198 O217 2.105 . S
Sc199 O201 2.025 . S
Sc199 O209 2.105 . S
Sc199 O213 2.105 . S
Sc199 O215 2.105 . S
Sc199 O219 2.105 . S
Sc200 O201 2.025 . S
Sc200 O210 2.105 . S
Sc200 O212 2.105 . S
Sc200 O216 2.105 . S
Sc200 O218 2.105 . S
O201 Sc198 2.025 . S
O201 Sc199 2.025 . S
O201 Sc200 2.025 . S
C202 O208 1.268 . S
C202 O218 1.268 . S
C203 O209 1.268 . S
C203 O217 1.268 . S
C204 O210 1.268 . S
C204 O219 1.268 . S
C205 O211 1.268 . S
C205 O215 1.268 . S
C206 O212 1.268 . S
C206 O214 1.268 . S
C207 O213 1.268 . S
C207 O216 1.268 . S
O208 Sc198 2.105 . S
O208 C202 1.268 . S
O209 Sc199 2.105 . S
O209 C203 1.268 . S
O210 Sc200 2.105 . S
O210 C204 1.268 . S
O211 Sc198 2.105 . S
O211 C205 1.268 . S
O212 Sc200 2.105 . S
O212 C206 1.268 . S
O213 Sc199 2.105 . S
O213 C207 1.268 . S
O214 Sc198 2.105 . S
O214 C206 1.268 . S
O215 Sc199 2.105 . S
O215 C205 1.268 . S
O216 Sc200 2.105 . S
O216 C207 1.268 . S
O217 Sc198 2.105 . S
O217 C203 1.268 . S
O218 Sc200 2.105 . S
O218 C202 1.268 . S
O219 Sc199 2.105 . S
O219 C204 1.268 . S
Sc220 O223 2.025 . S
Sc220 O230 2.105 . S
Sc220 O233 2.105 . S
Sc220 O236 2.105 . S
Sc220 O239 2.105 . S
Sc221 O223 2.025 . S
Sc221 O231 2.105 . S
Sc221 O235 2.105 . S
Sc221 O237 2.105 . S
Sc221 O241 2.105 . S
Sc222 O223 2.025 . S
Sc222 O232 2.105 . S
Sc222 O234 2.105 . S
Sc222 O238 2.105 . S
Sc222 O240 2.105 . S
O223 Sc220 2.025 . S
O223 Sc221 2.025 . S
O223 Sc222 2.025 . S
C224 O230 1.268 . S
C224 O240 1.268 . S
C225 O231 1.268 . S
C225 O239 1.268 . S
C226 O232 1.268 . S
C226 O241 1.268 . S
C227 O233 1.268 . S
C227 O237 1.268 . S
C228 O234 1.268 . S
C228 O236 1.268 . S
C229 O235 1.268 . S
C229 O238 1.268 . S
O230 Sc220 2.105 . S
O230 C224 1.268 . S
O231 Sc221 2.105 . S
O231 C225 1.268 . S
O232 Sc222 2.105 . S
O232 C226 1.268 . S
O233 Sc220 2.105 . S
O233 C227 1.268 . S
O234 Sc222 2.105 . S
O234 C228 1.268 . S
O235 Sc221 2.105 . S
O235 C229 1.268 . S
O236 Sc220 2.105 . S
O236 C228 1.268 . S
O237 Sc221 2.105 . S
O237 C227 1.268 . S
O238 Sc222 2.105 . S
O238 C229 1.268 . S
O239 Sc220 2.105 . S
O239 C225 1.268 . S
O240 Sc222 2.105 . S
O240 C224 1.268 . S
O241 Sc221 2.105 . S
O241 C226 1.268 . S
Sc242 O245 2.025 . S
Sc242 O252 2.105 . S
Sc242 O255 2.105 . S
Sc242 O258 2.105 . S
Sc242 O261 2.105 . S
Sc243 O245 2.025 . S
Sc243 O253 2.105 . S
Sc243 O257 2.105 . S
Sc243 O259 2.105 . S
Sc243 O263 2.105 . S
Sc244 O245 2.025 . S
Sc244 O254 2.105 . S
Sc244 O256 2.105 . S
Sc244 O260 2.105 . S
Sc244 O262 2.105 . S
O245 Sc242 2.025 . S
O245 Sc243 2.025 . S
O245 Sc244 2.025 . S
C246 O252 1.268 . S
C246 O262 1.268 . S
C247 O253 1.268 . S
C247 O261 1.268 . S
C248 O254 1.268 . S
C248 O263 1.268 . S
C249 O255 1.268 . S
C249 O259 1.268 . S
C250 O256 1.268 . S
C250 O258 1.268 . S
C251 O257 1.268 . S
C251 O260 1.268 . S
O252 Sc242 2.105 . S
O252 C246 1.268 . S
O253 Sc243 2.105 . S
O253 C247 1.268 . S
O254 Sc244 2.105 . S
O254 C248 1.268 . S
O255 Sc242 2.105 . S
O255 C249 1.268 . S
O256 Sc244 2.105 . S
O256 C250 1.268 . S
O257 Sc243 2.105 . S
O257 C251 1.268 . S
O258 Sc242 2.105 . S
O258 C250 1.268 . S
O259 Sc243 2.105 . S
O259 C249 1.268 . S
O260 Sc244 2.105 . S
O260 C251 1.268 . S
O261 Sc242 2.105 . S
O261 C247 1.268 . S
O262 Sc244 2.105 . S
O262 C246 1.268 . S
O263 Sc243 2.105 . S
O263 C248 1.268 . S
Sc264 O267 2.025 . S
Sc264 O274 2.105 . S
Sc264 O277 2.105 . S
Sc264 O280 2.105 . S
Sc264 O283 2.105 . S
Sc265 O267 2.025 . S
Sc265 O275 2.105 . S
Sc265 O279 2.105 . S
Sc265 O281 2.105 . S
Sc265 O285 2.105 . S
Sc266 O267 2.025 . S
Sc266 O276 2.105 . S
Sc266 O278 2.105 . S
Sc266 O282 2.105 . S
Sc266 O284 2.105 . S
O267 Sc264 2.025 . S
O267 Sc265 2.025 . S
O267 Sc266 2.025 . S
C268 O274 1.268 . S
C268 O284 1.268 . S
C269 O275 1.268 . S
C269 O283 1.268 . S
C270 O276 1.268 . S
C270 O285 1.268 . S
C271 O277 1.268 . S
C271 O281 1.268 . S
C272 O278 1.268 . S
C272 O280 1.268 . S
C273 O279 1.268 . S
C273 O282 1.268 . S
O274 Sc264 2.105 . S
O274 C268 1.268 . S
O275 Sc265 2.105 . S
O275 C269 1.268 . S
O276 Sc266 2.105 . S
O276 C270 1.268 . S
O277 Sc264 2.105 . S
O277 C271 1.268 . S
O278 Sc266 2.105 . S
O278 C272 1.268 . S
O279 Sc265 2.105 . S
O279 C273 1.268 . S
O280 Sc264 2.105 . S
O280 C272 1.268 . S
O281 Sc265 2.105 . S
O281 C271 1.268 . S
O282 Sc266 2.105 . S
O282 C273 1.268 . S
O283 Sc264 2.105 . S
O283 C269 1.268 . S
O284 Sc266 2.105 . S
O284 C268 1.268 . S
O285 Sc265 2.105 . S
O285 C270 1.268 . S
Sc286 O289 2.025 . S
Sc286 O296 2.105 . S
Sc286 O299 2.105 . S
Sc286 O302 2.105 . S
Sc286 O305 2.105 . S
Sc287 O289 2.025 . S
Sc287 O297 2.105 . S
Sc287 O301 2.105 . S
Sc287 O303 2.105 . S
Sc287 O307 2.105 . S
Sc288 O289 2.025 . S
Sc288 O298 2.105 . S
Sc288 O300 2.105 . S
Sc288 O304 2.105 . S
Sc288 O306 2.105 . S
O289 Sc286 2.025 . S
O289 Sc287 2.025 . S
O289 Sc288 2.025 . S
C290 O296 1.268 . S
C290 O306 1.268 . S
C291 O297 1.268 . S
C291 O305 1.268 . S
C292 O298 1.268 . S
C292 O307 1.268 . S
C293 O299 1.268 . S
C293 O303 1.268 . S
C294 O300 1.268 . S
C294 O302 1.268 . S
C295 O301 1.268 . S
C295 O304 1.268 . S
O296 Sc286 2.105 . S
O296 C290 1.268 . S
O297 Sc287 2.105 . S
O297 C291 1.268 . S
O298 Sc288 2.105 . S
O298 C292 1.268 . S
O299 Sc286 2.105 . S
O299 C293 1.268 . S
O300 Sc288 2.105 . S
O300 C294 1.268 . S
O301 Sc287 2.105 . S
O301 C295 1.268 . S
O302 Sc286 2.105 . S
O302 C294 1.268 . S
O303 Sc287 2.105 . S
O303 C293 1.268 . S
O304 Sc288 2.105 . S
O304 C295 1.268 . S
O305 Sc286 2.105 . S
O305 C291 1.268 . S
O306 Sc288 2.105 . S
O306 C290 1.268 . S
O307 Sc287 2.105 . S
O307 C292 1.268 . S
Sc308 O311 2.025 . S
Sc308 O318 2.105 . S
Sc308 O321 2.105 . S
Sc308 O324 2.105 . S
Sc308 O327 2.105 . S
Sc309 O311 2.025 . S
Sc309 O319 2.105 . S
Sc309 O323 2.105 . S
Sc309 O325 2.105 . S
Sc309 O329 2.105 . S
Sc310 O311 2.025 . S
Sc310 O320 2.105 . S
Sc310 O322 2.105 . S
Sc310 O326 2.105 . S
Sc310 O328 2.105 . S
O311 Sc308 2.025 . S
O311 Sc309 2.025 . S
O311 Sc310 2.025 . S
C312 O318 1.268 . S
C312 O328 1.268 . S
C313 O319 1.268 . S
C313 O327 1.268 . S
C314 O320 1.268 . S
C314 O329 1.268 . S
C315 O321 1.268 . S
C315 O325 1.268 . S
C316 O322 1.268 . S
C316 O324 1.268 . S
C317 O323 1.268 . S
C317 O326 1.268 . S
O318 Sc308 2.105 . S
O318 C312 1.268 . S
O319 Sc309 2.105 . S
O319 C313 1.268 . S
O320 Sc310 2.105 . S
O320 C314 1.268 . S
O321 Sc308 2.105 . S
O321 C315 1.268 . S
O322 Sc310 2.105 . S
O322 C316 1.268 . S
O323 Sc309 2.105 . S
O323 C317 1.268 . S
O324 Sc308 2.105 . S
O324 C316 1.268 . S
O325 Sc309 2.105 . S
O325 C315 1.268 . S
O326 Sc310 2.105 . S
O326 C317 1.268 . S
O327 Sc308 2.105 . S
O327 C313 1.268 . S
O328 Sc310 2.105 . S
O328 C312 1.268 . S
O329 Sc309 2.105 . S
O329 C314 1.268 . S
Sc330 O333 2.025 . S
Sc330 O340 2.105 . S
Sc330 O343 2.105 . S
Sc330 O346 2.105 . S
Sc330 O349 2.105 . S
Sc331 O333 2.025 . S
Sc331 O341 2.105 . S
Sc331 O345 2.105 . S
Sc331 O347 2.105 . S
Sc331 O351 2.105 . S
Sc332 O333 2.025 . S
Sc332 O342 2.105 . S
Sc332 O344 2.105 . S
Sc332 O348 2.105 . S
Sc332 O350 2.105 . S
O333 Sc330 2.025 . S
O333 Sc331 2.025 . S
O333 Sc332 2.025 . S
C334 O340 1.268 . S
C334 O350 1.268 . S
C335 O341 1.268 . S
C335 O349 1.268 . S
C336 O342 1.268 . S
C336 O351 1.268 . S
C337 O343 1.268 . S
C337 O347 1.268 . S
C338 O344 1.268 . S
C338 O346 1.268 . S
C339 O345 1.268 . S
C339 O348 1.268 . S
O340 Sc330 2.105 . S
O340 C334 1.268 . S
O341 Sc331 2.105 . S
O341 C335 1.268 . S
O342 Sc332 2.105 . S
O342 C336 1.268 . S
O343 Sc330 2.105 . S
O343 C337 1.268 . S
O344 Sc332 2.105 . S
O344 C338 1.268 . S
O345 Sc331 2.105 . S
O345 C339 1.268 . S
O346 Sc330 2.105 . S
O346 C338 1.268 . S
O347 Sc331 2.105 . S
O347 C337 1.268 . S
O348 Sc332 2.105 . S
O348 C339 1.268 . S
O349 Sc330 2.105 . S
O349 C335 1.268 . S
O350 Sc332 2.105 . S
O350 C334 1.268 . S
O351 Sc331 2.105 . S
O351 C336 1.268 . S
Sc352 O355 2.025 . S
Sc352 O362 2.105 . S
Sc352 O365 2.105 . S
Sc352 O368 2.105 . S
Sc352 O371 2.105 . S
Sc353 O355 2.025 . S
Sc353 O363 2.105 . S
Sc353 O367 2.105 . S
Sc353 O369 2.105 . S
Sc353 O373 2.105 . S
Sc354 O355 2.025 . S
Sc354 O364 2.105 . S
Sc354 O366 2.105 . S
Sc354 O370 2.105 . S
Sc354 O372 2.105 . S
O355 Sc352 2.025 . S
O355 Sc353 2.025 . S
O355 Sc354 2.025 . S
C356 O362 1.268 . S
C356 O372 1.268 . S
C357 O363 1.268 . S
C357 O371 1.268 . S
C358 O364 1.268 . S
C358 O373 1.268 . S
C359 O365 1.268 . S
C359 O369 1.268 . S
C360 O366 1.268 . S
C360 O368 1.268 . S
C361 O367 1.268 . S
C361 O370 1.268 . S
O362 Sc352 2.105 . S
O362 C356 1.268 . S
O363 Sc353 2.105 . S
O363 C357 1.268 . S
O364 Sc354 2.105 . S
O364 C358 1.268 . S
O365 Sc352 2.105 . S
O365 C359 1.268 . S
O366 Sc354 2.105 . S
O366 C360 1.268 . S
O367 Sc353 2.105 . S
O367 C361 1.268 . S
O368 Sc352 2.105 . S
O368 C360 1.268 . S
O369 Sc353 2.105 . S
O369 C359 1.268 . S
O370 Sc354 2.105 . S
O370 C361 1.268 . S
O371 Sc352 2.105 . S
O371 C357 1.268 . S
O372 Sc354 2.105 . S
O372 C356 1.268 . S
O373 Sc353 2.105 . S
O373 C358 1.268 . S
Sc374 O377 2.025 . S
Sc374 O384 2.105 . S
Sc374 O387 2.105 . S
Sc374 O390 2.105 . S
Sc374 O393 2.105 . S
Sc375 O377 2.025 . S
Sc375 O385 2.105 . S
Sc375 O389 2.105 . S
Sc375 O391 2.105 . S
Sc375 O395 2.105 . S
Sc376 O377 2.025 . S
Sc376 O386 2.105 . S
Sc376 O388 2.105 . S
Sc376 O392 2.105 . S
Sc376 O394 2.105 . S
O377 Sc374 2.025 . S
O377 Sc375 2.025 . S
O377 Sc376 2.025 . S
C378 O384 1.268 . S
C378 O394 1.268 . S
C379 O385 1.268 . S
C379 O393 1.268 . S
C380 O386 1.268 . S
C380 O395 1.268 . S
C381 O387 1.268 . S
C381 O391 1.268 . S
C382 O388 1.268 . S
C382 O390 1.268 . S
C383 O389 1.268 . S
C383 O392 1.268 . S
O384 Sc374 2.105 . S
O384 C378 1.268 . S
O385 Sc375 2.105 . S
O385 C379 1.268 . S
O386 Sc376 2.105 . S
O386 C380 1.268 . S
O387 Sc374 2.105 . S
O387 C381 1.268 . S
O388 Sc376 2.105 . S
O388 C382 1.268 . S
O389 Sc375 2.105 . S
O389 C383 1.268 . S
O390 Sc374 2.105 . S
O390 C382 1.268 . S
O391 Sc375 2.105 . S
O391 C381 1.268 . S
O392 Sc376 2.105 . S
O392 C383 1.268 . S
O393 Sc374 2.105 . S
O393 C379 1.268 . S
O394 Sc376 2.105 . S
O394 C378 1.268 . S
O395 Sc375 2.105 . S
O395 C380 1.268 . S
H396 C404 0.929 . S
H397 C406 0.930 . S
H398 C408 0.930 . S
H399 C411 0.929 . S
H400 C414 0.930 . S
H401 C416 0.960 . S
H402 C416 0.960 . S
H403 C416 0.960 . S
C404 H396 0.929 . S
C404 C405 1.377 . S
C404 C406 1.384 . S
C405 C404 1.377 . S
C405 C411 1.390 . S
C406 H397 0.930 . S
C406 C404 1.384 . S
C406 C407 1.372 . S
C407 C406 1.372 . S
C407 C408 1.400 . S
C407 C412 1.490 . S
C408 H398 0.930 . S
C408 C407 1.400 . S
C408 C411 1.386 . S
H409 C425 0.930 . S
H410 C426 0.931 . S
C411 H399 0.929 . S
C411 C405 1.390 . S
C411 C408 1.386 . S
C412 C407 1.490 . S
C412 C414 1.395 . S
C412 C415 1.403 . S
H413 C419 0.930 . S
C414 H400 0.930 . S
C414 C412 1.395 . S
C414 C417 1.403 . S
C415 C412 1.403 . S
C415 C416 1.524 . S
C415 C419 1.400 . S
C416 H401 0.960 . S
C416 H402 0.960 . S
C416 H403 0.960 . S
C416 C415 1.524 . S
C417 C414 1.403 . S
C417 C418 1.392 . S
C417 C421 1.495 . S
C418 C417 1.392 . S
C418 C419 1.385 . S
C418 C420 1.478 . S
C419 H413 0.930 . S
C419 C415 1.400 . S
C419 C418 1.385 . S
C420 C418 1.478 . S
C420 C422 1.381 . S
C420 C426 1.383 . S
C421 C417 1.495 . S
C421 H427 0.959 . S
C421 H428 0.961 . S
C421 H429 0.960 . S
C422 C420 1.381 . S
C422 C423 1.394 . S
C422 H430 0.930 . S
C423 C422 1.394 . S
C423 C424 1.383 . S
C423 H431 0.929 . S
C424 C423 1.383 . S
C424 C425 1.377 . S
C425 H409 0.930 . S
C425 C424 1.377 . S
C425 C426 1.379 . S
C426 H410 0.931 . S
C426 C420 1.383 . S
C426 C425 1.379 . S
H427 C421 0.959 . S
H428 C421 0.961 . S
H429 C421 0.960 . S
H430 C422 0.930 . S
H431 C423 0.929 . S
H432 C440 0.929 . S
H433 C442 0.930 . S
H434 C444 0.930 . S
H435 C447 0.929 . S
H436 C450 0.930 . S
H437 C452 0.960 . S
H438 C452 0.960 . S
H439 C452 0.960 . S
C440 H432 0.929 . S
C440 C441 1.377 . S
C440 C442 1.384 . S
C441 C440 1.377 . S
C441 C447 1.390 . S
C442 H433 0.930 . S
C442 C440 1.384 . S
C442 C443 1.372 . S
C443 C442 1.372 . S
C443 C444 1.400 . S
C443 C448 1.490 . S
C444 H434 0.930 . S
C444 C443 1.400 . S
C444 C447 1.386 . S
H445 C461 0.930 . S
H446 C462 0.931 . S
C447 H435 0.929 . S
C447 C441 1.390 . S
C447 C444 1.386 . S
C448 C443 1.490 . S
C448 C450 1.395 . S
C448 C451 1.403 . S
H449 C455 0.930 . S
C450 H436 0.930 . S
C450 C448 1.395 . S
C450 C453 1.403 . S
C451 C448 1.403 . S
C451 C452 1.524 . S
C451 C455 1.400 . S
C452 H437 0.960 . S
C452 H438 0.960 . S
C452 H439 0.960 . S
C452 C451 1.524 . S
C453 C450 1.403 . S
C453 C454 1.392 . S
C453 C457 1.495 . S
C454 C453 1.392 . S
C454 C455 1.385 . S
C454 C456 1.478 . S
C455 H449 0.930 . S
C455 C451 1.400 . S
C455 C454 1.385 . S
C456 C454 1.478 . S
C456 C458 1.381 . S
C456 C462 1.383 . S
C457 C453 1.495 . S
C457 H463 0.959 . S
C457 H464 0.961 . S
C457 H465 0.960 . S
C458 C456 1.381 . S
C458 C459 1.394 . S
C458 H466 0.930 . S
C459 C458 1.394 . S
C459 C460 1.383 . S
C459 H467 0.929 . S
C460 C459 1.383 . S
C460 C461 1.377 . S
C461 H445 0.930 . S
C461 C460 1.377 . S
C461 C462 1.379 . S
C462 H446 0.931 . S
C462 C456 1.383 . S
C462 C461 1.379 . S
H463 C457 0.959 . S
H464 C457 0.961 . S
H465 C457 0.960 . S
H466 C458 0.930 . S
H467 C459 0.929 . S
H468 C476 0.929 . S
H469 C478 0.930 1_545 S
H470 C480 0.930 . S
H471 C483 0.929 . S
H472 C486 0.930 . S
H473 C488 0.960 . S
H474 C488 0.960 . S
H475 C488 0.960 . S
C476 H468 0.929 . S
C476 C477 1.377 1_545 S
C476 C478 1.384 1_545 S
C477 C476 1.377 1_565 S
C477 C483 1.390 . S
C478 H469 0.930 1_565 S
C478 C476 1.384 1_565 S
C478 C479 1.372 . S
C479 C478 1.372 . S
C479 C480 1.400 . S
C479 C484 1.490 . S
C480 H470 0.930 . S
C480 C479 1.400 . S
C480 C483 1.386 . S
H481 C497 0.930 . S
H482 C498 0.931 . S
C483 H471 0.929 . S
C483 C477 1.390 . S
C483 C480 1.386 . S
C484 C479 1.490 . S
C484 C486 1.395 . S
C484 C487 1.403 . S
H485 C491 0.930 . S
C486 H472 0.930 . S
C486 C484 1.395 . S
C486 C489 1.403 . S
C487 C484 1.403 . S
C487 C488 1.524 . S
C487 C491 1.400 . S
C488 H473 0.960 . S
C488 H474 0.960 . S
C488 H475 0.960 . S
C488 C487 1.524 . S
C489 C486 1.403 . S
C489 C490 1.392 . S
C489 C493 1.495 . S
C490 C489 1.392 . S
C490 C491 1.385 . S
C490 C492 1.478 . S
C491 H485 0.930 . S
C491 C487 1.400 . S
C491 C490 1.385 . S
C492 C490 1.478 . S
C492 C494 1.381 . S
C492 C498 1.383 . S
C493 C489 1.495 . S
C493 H499 0.959 . S
C493 H500 0.961 . S
C493 H501 0.960 . S
C494 C492 1.381 . S
C494 C495 1.394 . S
C494 H502 0.930 . S
C495 C494 1.394 . S
C495 C496 1.383 . S
C495 H503 0.929 . S
C496 C495 1.383 . S
C496 C497 1.377 . S
C497 H481 0.930 . S
C497 C496 1.377 . S
C497 C498 1.379 . S
C498 H482 0.931 . S
C498 C492 1.383 . S
C498 C497 1.379 . S
H499 C493 0.959 . S
H500 C493 0.961 . S
H501 C493 0.960 . S
H502 C494 0.930 . S
H503 C495 0.929 . S
H504 C512 0.929 . S
H505 C514 0.930 . S
H506 C516 0.930 . S
H507 C519 0.929 . S
H508 C522 0.930 . S
H509 C524 0.960 . S
H510 C524 0.960 . S
H511 C524 0.960 . S
C512 H504 0.929 . S
C512 C513 1.377 . S
C512 C514 1.384 . S
C513 C512 1.377 . S
C513 C519 1.390 . S
C514 H505 0.930 . S
C514 C512 1.384 . S
C514 C515 1.372 . S
C515 C514 1.372 . S
C515 C516 1.400 . S
C515 C520 1.490 . S
C516 H506 0.930 . S
C516 C515 1.400 . S
C516 C519 1.386 . S
H517 C533 0.930 . S
H518 C534 0.931 . S
C519 H507 0.929 . S
C519 C513 1.390 . S
C519 C516 1.386 . S
C520 C515 1.490 . S
C520 C522 1.395 . S
C520 C523 1.403 . S
H521 C527 0.930 . S
C522 H508 0.930 . S
C522 C520 1.395 . S
C522 C525 1.403 . S
C523 C520 1.403 . S
C523 C524 1.524 . S
C523 C527 1.400 . S
C524 H509 0.960 . S
C524 H510 0.960 . S
C524 H511 0.960 . S
C524 C523 1.524 . S
C525 C522 1.403 . S
C525 C526 1.392 . S
C525 C529 1.495 . S
C526 C525 1.392 . S
C526 C527 1.385 . S
C526 C528 1.478 . S
C527 H521 0.930 . S
C527 C523 1.400 . S
C527 C526 1.385 . S
C528 C526 1.478 . S
C528 C530 1.381 . S
C528 C534 1.383 . S
C529 C525 1.495 . S
C529 H535 0.959 . S
C529 H536 0.961 . S
C529 H537 0.960 . S
C530 C528 1.381 . S
C530 C531 1.394 . S
C530 H538 0.930 . S
C531 C530 1.394 . S
C531 C532 1.383 . S
C531 H539 0.929 . S
C532 C531 1.383 . S
C532 C533 1.377 . S
C533 H517 0.930 . S
C533 C532 1.377 . S
C533 C534 1.379 . S
C534 H518 0.931 . S
C534 C528 1.383 . S
C534 C533 1.379 . S
H535 C529 0.959 . S
H536 C529 0.961 . S
H537 C529 0.960 . S
H538 C530 0.930 . S
H539 C531 0.929 . S
H540 C548 0.929 . S
H541 C550 0.930 . S
H542 C552 0.930 . S
H543 C555 0.929 . S
H544 C558 0.930 . S
H545 C560 0.960 . S
H546 C560 0.960 . S
H547 C560 0.960 . S
C548 H540 0.929 . S
C548 C549 1.377 . S
C548 C550 1.384 . S
C549 C548 1.377 . S
C549 C555 1.390 . S
C550 H541 0.930 . S
C550 C548 1.384 . S
C550 C551 1.372 . S
C551 C550 1.372 . S
C551 C552 1.400 . S
C551 C556 1.490 . S
C552 H542 0.930 . S
C552 C551 1.400 . S
C552 C555 1.386 . S
H553 C569 0.930 . S
H554 C570 0.931 . S
C555 H543 0.929 . S
C555 C549 1.390 . S
C555 C552 1.386 . S
C556 C551 1.490 . S
C556 C558 1.395 . S
C556 C559 1.403 . S
H557 C563 0.930 . S
C558 H544 0.930 . S
C558 C556 1.395 . S
C558 C561 1.403 . S
C559 C556 1.403 . S
C559 C560 1.524 1_655 S
C559 C563 1.400 . S
C560 H545 0.960 . S
C560 H546 0.960 . S
C560 H547 0.960 . S
C560 C559 1.524 1_455 S
C561 C558 1.403 . S
C561 C562 1.392 . S
C561 C565 1.495 . S
C562 C561 1.392 . S
C562 C563 1.385 . S
C562 C564 1.478 . S
C563 H557 0.930 . S
C563 C559 1.400 . S
C563 C562 1.385 . S
C564 C562 1.478 . S
C564 C566 1.381 . S
C564 C570 1.383 . S
C565 C561 1.495 . S
C565 H571 0.959 . S
C565 H572 0.961 . S
C565 H573 0.960 . S
C566 C564 1.381 . S
C566 C567 1.394 . S
C566 H574 0.930 . S
C567 C566 1.394 . S
C567 C568 1.383 . S
C567 H575 0.929 . S
C568 C567 1.383 . S
C568 C569 1.377 . S
C569 H553 0.930 . S
C569 C568 1.377 . S
C569 C570 1.379 . S
C570 H554 0.931 . S
C570 C564 1.383 . S
C570 C569 1.379 . S
H571 C565 0.959 . S
H572 C565 0.961 . S
H573 C565 0.960 . S
H574 C566 0.930 . S
H575 C567 0.929 . S
H576 C584 0.929 . S
H577 C586 0.930 . S
H578 C588 0.930 . S
H579 C591 0.929 . S
H580 C594 0.930 . S
H581 C596 0.960 . S
H582 C596 0.960 . S
H583 C596 0.960 . S
C584 H576 0.929 . S
C584 C585 1.377 . S
C584 C586 1.384 . S
C585 C584 1.377 . S
C585 C591 1.390 . S
C586 H577 0.930 . S
C586 C584 1.384 . S
C586 C587 1.372 . S
C587 C586 1.372 . S
C587 C588 1.400 . S
C587 C592 1.490 . S
C588 H578 0.930 . S
C588 C587 1.400 . S
C588 C591 1.386 . S
H589 C605 0.930 . S
H590 C606 0.931 . S
C591 H579 0.929 . S
C591 C585 1.390 . S
C591 C588 1.386 . S
C592 C587 1.490 . S
C592 C594 1.395 . S
C592 C595 1.403 . S
H593 C599 0.930 . S
C594 H580 0.930 . S
C594 C592 1.395 . S
C594 C597 1.403 . S
C595 C592 1.403 . S
C595 C596 1.524 . S
C595 C599 1.400 . S
C596 H581 0.960 . S
C596 H582 0.960 . S
C596 H583 0.960 . S
C596 C595 1.524 . S
C597 C594 1.403 . S
C597 C598 1.392 . S
C597 C601 1.495 . S
C598 C597 1.392 . S
C598 C599 1.385 . S
C598 C600 1.478 . S
C599 H593 0.930 . S
C599 C595 1.400 . S
C599 C598 1.385 . S
C600 C598 1.478 . S
C600 C602 1.381 . S
C600 C606 1.383 . S
C601 C597 1.495 . S
C601 H607 0.959 . S
C601 H608 0.961 . S
C601 H609 0.960 . S
C602 C600 1.381 . S
C602 C603 1.394 . S
C602 H610 0.930 . S
C603 C602 1.394 . S
C603 C604 1.383 . S
C603 H611 0.929 . S
C604 C603 1.383 . S
C604 C605 1.377 . S
C605 H589 0.930 . S
C605 C604 1.377 . S
C605 C606 1.379 . S
C606 H590 0.931 . S
C606 C600 1.383 . S
C606 C605 1.379 . S
H607 C601 0.959 . S
H608 C601 0.961 . S
H609 C601 0.960 . S
H610 C602 0.930 . S
H611 C603 0.929 . S
H612 C620 0.929 . S
H613 C622 0.930 . S
H614 C624 0.930 . S
H615 C627 0.929 . S
H616 C630 0.930 . S
H617 C632 0.960 1_455 S
H618 C632 0.960 . S
H619 C632 0.960 . S
C620 H612 0.929 . S
C620 C621 1.377 . S
C620 C622 1.384 . S
C621 C620 1.377 . S
C621 C627 1.390 . S
C622 H613 0.930 . S
C622 C620 1.384 . S
C622 C623 1.372 . S
C623 C622 1.372 . S
C623 C624 1.400 . S
C623 C628 1.490 . S
C624 H614 0.930 . S
C624 C623 1.400 . S
C624 C627 1.386 . S
H625 C641 0.930 1_455 S
H626 C642 0.931 . S
C627 H615 0.929 . S
C627 C621 1.390 . S
C627 C624 1.386 . S
C628 C623 1.490 . S
C628 C630 1.395 . S
C628 C631 1.403 . S
H629 C635 0.930 . S
C630 H616 0.930 . S
C630 C628 1.395 . S
C630 C633 1.403 . S
C631 C628 1.403 . S
C631 C632 1.524 . S
C631 C635 1.400 . S
C632 H617 0.960 1_655 S
C632 H618 0.960 . S
C632 H619 0.960 . S
C632 C631 1.524 . S
C633 C630 1.403 . S
C633 C634 1.392 . S
C633 C637 1.495 . S
C634 C633 1.392 . S
C634 C635 1.385 . S
C634 C636 1.478 . S
C635 H629 0.930 . S
C635 C631 1.400 . S
C635 C634 1.385 . S
C636 C634 1.478 . S
C636 C638 1.381 . S
C636 C642 1.383 . S
C637 C633 1.495 . S
C637 H643 0.959 . S
C637 H644 0.961 . S
C637 H645 0.960 . S
C638 C636 1.381 . S
C638 C639 1.394 . S
C638 H646 0.930 . S
C639 C638 1.394 . S
C639 C640 1.383 . S
C639 H647 0.929 . S
C640 C639 1.383 . S
C640 C641 1.377 . S
C641 H625 0.930 1_655 S
C641 C640 1.377 . S
C641 C642 1.379 . S
C642 H626 0.931 . S
C642 C636 1.383 . S
C642 C641 1.379 . S
H643 C637 0.959 . S
H644 C637 0.961 . S
H645 C637 0.960 . S
H646 C638 0.930 . S
H647 C639 0.929 . S
H648 C656 0.929 . S
H649 C658 0.930 . S
H650 C660 0.930 . S
H651 C663 0.929 . S
H652 C666 0.930 . S
H653 C668 0.960 . S
H654 C668 0.960 . S
H655 C668 0.960 . S
C656 H648 0.929 . S
C656 C657 1.377 . S
C656 C658 1.384 . S
C657 C656 1.377 . S
C657 C663 1.390 . S
C658 H649 0.930 . S
C658 C656 1.384 . S
C658 C659 1.372 . S
C659 C658 1.372 . S
C659 C660 1.400 . S
C659 C664 1.490 . S
C660 H650 0.930 . S
C660 C659 1.400 . S
C660 C663 1.386 . S
H661 C677 0.930 . S
H662 C678 0.931 . S
C663 H651 0.929 . S
C663 C657 1.390 . S
C663 C660 1.386 . S
C664 C659 1.490 . S
C664 C666 1.395 . S
C664 C667 1.403 . S
H665 C671 0.930 . S
C666 H652 0.930 . S
C666 C664 1.395 . S
C666 C669 1.403 . S
C667 C664 1.403 . S
C667 C668 1.524 . S
C667 C671 1.400 . S
C668 H653 0.960 . S
C668 H654 0.960 . S
C668 H655 0.960 . S
C668 C667 1.524 . S
C669 C666 1.403 . S
C669 C670 1.392 . S
C669 C673 1.495 . S
C670 C669 1.392 . S
C670 C671 1.385 . S
C670 C672 1.478 . S
C671 H665 0.930 . S
C671 C667 1.400 . S
C671 C670 1.385 . S
C672 C670 1.478 . S
C672 C674 1.381 . S
C672 C678 1.383 . S
C673 C669 1.495 . S
C673 H679 0.959 . S
C673 H680 0.961 . S
C673 H681 0.960 . S
C674 C672 1.381 . S
C674 C675 1.394 . S
C674 H682 0.930 . S
C675 C674 1.394 . S
C675 C676 1.383 . S
C675 H683 0.929 . S
C676 C675 1.383 . S
C676 C677 1.377 . S
C677 H661 0.930 . S
C677 C676 1.377 . S
C677 C678 1.379 . S
C678 H662 0.931 . S
C678 C672 1.383 . S
C678 C677 1.379 . S
H679 C673 0.959 . S
H680 C673 0.961 . S
H681 C673 0.960 . S
H682 C674 0.930 . S
H683 C675 0.929 . S
H684 C692 0.929 . S
H685 C694 0.930 . S
H686 C696 0.930 . S
H687 C699 0.929 . S
H688 C702 0.930 . S
H689 C704 0.960 1_565 S
H690 C704 0.960 1_565 S
H691 C704 0.960 . S
C692 H684 0.929 . S
C692 C693 1.377 . S
C692 C694 1.384 . S
C693 C692 1.377 . S
C693 C699 1.390 . S
C694 H685 0.930 . S
C694 C692 1.384 . S
C694 C695 1.372 . S
C695 C694 1.372 . S
C695 C696 1.400 . S
C695 C700 1.490 . S
C696 H686 0.930 . S
C696 C695 1.400 . S
C696 C699 1.386 . S
H697 C713 0.930 . S
H698 C714 0.931 . S
C699 H687 0.929 . S
C699 C693 1.390 . S
C699 C696 1.386 . S
C700 C695 1.490 . S
C700 C702 1.395 . S
C700 C703 1.403 . S
H701 C707 0.930 . S
C702 H688 0.930 . S
C702 C700 1.395 . S
C702 C705 1.403 . S
C703 C700 1.403 . S
C703 C704 1.524 . S
C703 C707 1.400 . S
C704 H689 0.960 1_545 S
C704 H690 0.960 1_545 S
C704 H691 0.960 . S
C704 C703 1.524 . S
C705 C702 1.403 . S
C705 C706 1.392 . S
C705 C709 1.495 . S
C706 C705 1.392 . S
C706 C707 1.385 . S
C706 C708 1.478 . S
C707 H701 0.930 . S
C707 C703 1.400 . S
C707 C706 1.385 . S
C708 C706 1.478 . S
C708 C710 1.381 . S
C708 C714 1.383 . S
C709 C705 1.495 . S
C709 H715 0.959 . S
C709 H716 0.961 . S
C709 H717 0.960 . S
C710 C708 1.381 . S
C710 C711 1.394 . S
C710 H718 0.930 . S
C711 C710 1.394 . S
C711 C712 1.383 . S
C711 H719 0.929 . S
C712 C711 1.383 . S
C712 C713 1.377 . S
C713 H697 0.930 . S
C713 C712 1.377 . S
C713 C714 1.379 . S
C714 H698 0.931 . S
C714 C708 1.383 . S
C714 C713 1.379 . S
H715 C709 0.959 . S
H716 C709 0.961 . S
H717 C709 0.960 . S
H718 C710 0.930 . S
H719 C711 0.929 . S
H720 C728 0.929 . S
H721 C730 0.930 . S
H722 C732 0.930 . S
H723 C735 0.929 . S
H724 C738 0.930 . S
H725 C740 0.960 . S
H726 C740 0.960 . S
H727 C740 0.960 . S
C728 H720 0.929 . S
C728 C729 1.377 . S
C728 C730 1.384 . S
C729 C728 1.377 . S
C729 C735 1.390 . S
C730 H721 0.930 . S
C730 C728 1.384 . S
C730 C731 1.372 . S
C731 C730 1.372 . S
C731 C732 1.400 . S
C731 C736 1.490 . S
C732 H722 0.930 . S
C732 C731 1.400 . S
C732 C735 1.386 . S
H733 C749 0.930 . S
H734 C750 0.931 . S
C735 H723 0.929 . S
C735 C729 1.390 . S
C735 C732 1.386 . S
C736 C731 1.490 . S
C736 C738 1.395 . S
C736 C739 1.403 . S
H737 C743 0.930 . S
C738 H724 0.930 . S
C738 C736 1.395 . S
C738 C741 1.403 . S
C739 C736 1.403 . S
C739 C740 1.524 . S
C739 C743 1.400 . S
C740 H725 0.960 . S
C740 H726 0.960 . S
C740 H727 0.960 . S
C740 C739 1.524 . S
C741 C738 1.403 . S
C741 C742 1.392 . S
C741 C745 1.495 1_565 S
C742 C741 1.392 . S
C742 C743 1.385 . S
C742 C744 1.478 . S
C743 H737 0.930 . S
C743 C739 1.400 . S
C743 C742 1.385 . S
C744 C742 1.478 . S
C744 C746 1.381 . S
C744 C750 1.383 . S
C745 C741 1.495 1_545 S
C745 H751 0.959 . S
C745 H752 0.961 . S
C745 H753 0.960 . S
C746 C744 1.381 . S
C746 C747 1.394 . S
C746 H754 0.930 . S
C747 C746 1.394 . S
C747 C748 1.383 . S
C747 H755 0.929 . S
C748 C747 1.383 . S
C748 C749 1.377 . S
C749 H733 0.930 . S
C749 C748 1.377 . S
C749 C750 1.379 . S
C750 H734 0.931 . S
C750 C744 1.383 . S
C750 C749 1.379 . S
H751 C745 0.959 . S
H752 C745 0.961 . S
H753 C745 0.960 . S
H754 C746 0.930 . S
H755 C747 0.929 . S
H756 C764 0.929 1_655 S
H757 C766 0.930 . S
H758 C768 0.930 . S
H759 C771 0.929 . S
H760 C774 0.930 . S
H761 C776 0.960 . S
H762 C776 0.960 . S
H763 C776 0.960 . S
C764 H756 0.929 1_455 S
C764 C765 1.377 . S
C764 C766 1.384 . S
C765 C764 1.377 . S
C765 C771 1.390 . S
C766 H757 0.930 . S
C766 C764 1.384 . S
C766 C767 1.372 . S
C767 C766 1.372 . S
C767 C768 1.400 . S
C767 C772 1.490 . S
C768 H758 0.930 . S
C768 C767 1.400 . S
C768 C771 1.386 . S
H769 C785 0.930 . S
H770 C786 0.931 . S
C771 H759 0.929 . S
C771 C765 1.390 . S
C771 C768 1.386 . S
C772 C767 1.490 . S
C772 C774 1.395 . S
C772 C775 1.403 . S
H773 C779 0.930 . S
C774 H760 0.930 . S
C774 C772 1.395 . S
C774 C777 1.403 . S
C775 C772 1.403 . S
C775 C776 1.524 . S
C775 C779 1.400 . S
C776 H761 0.960 . S
C776 H762 0.960 . S
C776 H763 0.960 . S
C776 C775 1.524 . S
C777 C774 1.403 . S
C777 C778 1.392 . S
C777 C781 1.495 . S
C778 C777 1.392 . S
C778 C779 1.385 . S
C778 C780 1.478 . S
C779 H773 0.930 . S
C779 C775 1.400 . S
C779 C778 1.385 . S
C780 C778 1.478 . S
C780 C782 1.381 . S
C780 C786 1.383 . S
C781 C777 1.495 . S
C781 H787 0.959 . S
C781 H788 0.961 . S
C781 H789 0.960 . S
C782 C780 1.381 . S
C782 C783 1.394 . S
C782 H790 0.930 . S
C783 C782 1.394 . S
C783 C784 1.383 . S
C783 H791 0.929 . S
C784 C783 1.383 . S
C784 C785 1.377 . S
C785 H769 0.930 . S
C785 C784 1.377 . S
C785 C786 1.379 . S
C786 H770 0.931 . S
C786 C780 1.383 . S
C786 C785 1.379 . S
H787 C781 0.959 . S
H788 C781 0.961 . S
H789 C781 0.960 . S
H790 C782 0.930 . S
H791 C783 0.929 . S
H792 C800 0.929 . S
H793 C802 0.930 . S
H794 C804 0.930 . S
H795 C807 0.929 . S
H796 C810 0.930 . S
H797 C812 0.960 . S
H798 C812 0.960 . S
H799 C812 0.960 . S
C800 H792 0.929 . S
C800 C801 1.377 . S
C800 C802 1.384 . S
C801 C800 1.377 . S
C801 C807 1.390 . S
C802 H793 0.930 . S
C802 C800 1.384 . S
C802 C803 1.372 . S
C803 C802 1.372 . S
C803 C804 1.400 . S
C803 C808 1.490 . S
C804 H794 0.930 . S
C804 C803 1.400 . S
C804 C807 1.386 . S
H805 C821 0.930 . S
H806 C822 0.931 . S
C807 H795 0.929 . S
C807 C801 1.390 . S
C807 C804 1.386 . S
C808 C803 1.490 . S
C808 C810 1.395 . S
C808 C811 1.403 . S
H809 C815 0.930 . S
C810 H796 0.930 . S
C810 C808 1.395 . S
C810 C813 1.403 . S
C811 C808 1.403 . S
C811 C812 1.524 . S
C811 C815 1.400 . S
C812 H797 0.960 . S
C812 H798 0.960 . S
C812 H799 0.960 . S
C812 C811 1.524 . S
C813 C810 1.403 . S
C813 C814 1.392 . S
C813 C817 1.495 . S
C814 C813 1.392 . S
C814 C815 1.385 . S
C814 C816 1.478 . S
C815 H809 0.930 . S
C815 C811 1.400 . S
C815 C814 1.385 . S
C816 C814 1.478 . S
C816 C818 1.381 . S
C816 C822 1.383 . S
C817 C813 1.495 . S
C817 H823 0.959 . S
C817 H824 0.961 . S
C817 H825 0.960 . S
C818 C816 1.381 . S
C818 C819 1.394 . S
C818 H826 0.930 . S
C819 C818 1.394 . S
C819 C820 1.383 . S
C819 H827 0.929 . S
C820 C819 1.383 . S
C820 C821 1.377 . S
C821 H805 0.930 . S
C821 C820 1.377 . S
C821 C822 1.379 . S
C822 H806 0.931 . S
C822 C816 1.383 . S
C822 C821 1.379 . S
H823 C817 0.959 . S
H824 C817 0.961 . S
H825 C817 0.960 . S
H826 C818 0.930 . S
H827 C819 0.929 . S
H828 C836 0.929 . S
H829 C838 0.930 . S
H830 C840 0.930 . S
H831 C843 0.929 . S
H832 C846 0.930 . S
H833 C848 0.960 . S
H834 C848 0.960 . S
H835 C848 0.960 . S
C836 H828 0.929 . S
C836 C837 1.377 . S
C836 C838 1.384 . S
C837 C836 1.377 . S
C837 C843 1.390 . S
C838 H829 0.930 . S
C838 C836 1.384 . S
C838 C839 1.372 . S
C839 C838 1.372 . S
C839 C840 1.400 . S
C839 C844 1.490 . S
C840 H830 0.930 . S
C840 C839 1.400 . S
C840 C843 1.386 . S
H841 C857 0.930 . S
H842 C858 0.931 . S
C843 H831 0.929 . S
C843 C837 1.390 . S
C843 C840 1.386 . S
C844 C839 1.490 . S
C844 C846 1.395 . S
C844 C847 1.403 . S
H845 C851 0.930 . S
C846 H832 0.930 . S
C846 C844 1.395 . S
C846 C849 1.403 . S
C847 C844 1.403 . S
C847 C848 1.524 . S
C847 C851 1.400 . S
C848 H833 0.960 . S
C848 H834 0.960 . S
C848 H835 0.960 . S
C848 C847 1.524 . S
C849 C846 1.403 . S
C849 C850 1.392 . S
C849 C853 1.495 . S
C850 C849 1.392 . S
C850 C851 1.385 . S
C850 C852 1.478 . S
C851 H845 0.930 . S
C851 C847 1.400 . S
C851 C850 1.385 . S
C852 C850 1.478 . S
C852 C854 1.381 . S
C852 C858 1.383 . S
C853 C849 1.495 . S
C853 H859 0.959 . S
C853 H860 0.961 . S
C853 H861 0.960 . S
C854 C852 1.381 . S
C854 C855 1.394 . S
C854 H862 0.930 . S
C855 C854 1.394 . S
C855 C856 1.383 . S
C855 H863 0.929 . S
C856 C855 1.383 . S
C856 C857 1.377 . S
C857 H841 0.930 . S
C857 C856 1.377 . S
C857 C858 1.379 . S
C858 H842 0.931 . S
C858 C852 1.383 . S
C858 C857 1.379 . S
H859 C853 0.959 . S
H860 C853 0.961 . S
H861 C853 0.960 . S
H862 C854 0.930 . S
H863 C855 0.929 . S
H864 C872 0.929 . S
H865 C874 0.930 . S
H866 C876 0.930 . S
H867 C879 0.929 . S
H868 C882 0.930 . S
H869 C884 0.960 . S
H870 C884 0.960 . S
H871 C884 0.960 . S
C872 H864 0.929 . S
C872 C873 1.377 1_565 S
C872 C874 1.384 . S
C873 C872 1.377 1_545 S
C873 C879 1.390 . S
C874 H865 0.930 . S
C874 C872 1.384 . S
C874 C875 1.372 . S
C875 C874 1.372 . S
C875 C876 1.400 . S
C875 C880 1.490 . S
C876 H866 0.930 . S
C876 C875 1.400 . S
C876 C879 1.386 1_565 S
H877 C893 0.930 . S
H878 C894 0.931 . S
C879 H867 0.929 . S
C879 C873 1.390 . S
C879 C876 1.386 1_545 S
C880 C875 1.490 . S
C880 C882 1.395 . S
C880 C883 1.403 . S
H881 C887 0.930 . S
C882 H868 0.930 . S
C882 C880 1.395 . S
C882 C885 1.403 . S
C883 C880 1.403 . S
C883 C884 1.524 . S
C883 C887 1.400 . S
C884 H869 0.960 . S
C884 H870 0.960 . S
C884 H871 0.960 . S
C884 C883 1.524 . S
C885 C882 1.403 . S
C885 C886 1.392 . S
C885 C889 1.495 . S
C886 C885 1.392 . S
C886 C887 1.385 . S
C886 C888 1.478 . S
C887 H881 0.930 . S
C887 C883 1.400 . S
C887 C886 1.385 . S
C888 C886 1.478 . S
C888 C890 1.381 . S
C888 C894 1.383 . S
C889 C885 1.495 . S
C889 H895 0.959 . S
C889 H896 0.961 . S
C889 H897 0.960 . S
C890 C888 1.381 . S
C890 C891 1.394 . S
C890 H898 0.930 . S
C891 C890 1.394 . S
C891 C892 1.383 . S
C891 H899 0.929 . S
C892 C891 1.383 . S
C892 C893 1.377 . S
C893 H877 0.930 . S
C893 C892 1.377 . S
C893 C894 1.379 . S
C894 H878 0.931 . S
C894 C888 1.383 . S
C894 C893 1.379 . S
H895 C889 0.959 . S
H896 C889 0.961 . S
H897 C889 0.960 . S
H898 C890 0.930 . S
H899 C891 0.929 . S
H900 C908 0.929 1_655 S
H901 C910 0.930 . S
H902 C912 0.930 . S
H903 C915 0.929 . S
H904 C918 0.930 . S
H905 C920 0.960 . S
H906 C920 0.960 . S
H907 C920 0.960 . S
C908 H900 0.929 1_455 S
C908 C909 1.377 1_455 S
C908 C910 1.384 . S
C909 C908 1.377 1_655 S
C909 C915 1.390 1_655 S
C910 H901 0.930 . S
C910 C908 1.384 . S
C910 C911 1.372 . S
C911 C910 1.372 . S
C911 C912 1.400 . S
C911 C916 1.490 . S
C912 H902 0.930 . S
C912 C911 1.400 . S
C912 C915 1.386 . S
H913 C929 0.930 . S
H914 C930 0.931 . S
C915 H903 0.929 . S
C915 C909 1.390 1_455 S
C915 C912 1.386 . S
C916 C911 1.490 . S
C916 C918 1.395 . S
C916 C919 1.403 . S
H917 C923 0.930 . S
C918 H904 0.930 . S
C918 C916 1.395 . S
C918 C921 1.403 . S
C919 C916 1.403 . S
C919 C920 1.524 . S
C919 C923 1.400 . S
C920 H905 0.960 . S
C920 H906 0.960 . S
C920 H907 0.960 . S
C920 C919 1.524 . S
C921 C918 1.403 . S
C921 C922 1.392 . S
C921 C925 1.495 . S
C922 C921 1.392 . S
C922 C923 1.385 . S
C922 C924 1.478 . S
C923 H917 0.930 . S
C923 C919 1.400 . S
C923 C922 1.385 . S
C924 C922 1.478 . S
C924 C926 1.381 . S
C924 C930 1.383 . S
C925 C921 1.495 . S
C925 H931 0.959 . S
C925 H932 0.961 . S
C925 H933 0.960 . S
C926 C924 1.381 . S
C926 C927 1.394 . S
C926 H934 0.930 . S
C927 C926 1.394 . S
C927 C928 1.383 . S
C927 H935 0.929 . S
C928 C927 1.383 . S
C928 C929 1.377 . S
C929 H913 0.930 . S
C929 C928 1.377 . S
C929 C930 1.379 . S
C930 H914 0.931 . S
C930 C924 1.383 . S
C930 C929 1.379 . S
H931 C925 0.959 . S
H932 C925 0.961 . S
H933 C925 0.960 . S
H934 C926 0.930 . S
H935 C927 0.929 . S
H936 C944 0.929 . S
H937 C946 0.930 . S
H938 C948 0.930 . S
H939 C951 0.929 . S
H940 C954 0.930 . S
H941 C956 0.960 . S
H942 C956 0.960 . S
H943 C956 0.960 . S
C944 H936 0.929 . S
C944 C945 1.377 . S
C944 C946 1.384 . S
C945 C944 1.377 . S
C945 C951 1.390 . S
C946 H937 0.930 . S
C946 C944 1.384 . S
C946 C947 1.372 . S
C947 C946 1.372 . S
C947 C948 1.400 . S
C947 C952 1.490 . S
C948 H938 0.930 . S
C948 C947 1.400 . S
C948 C951 1.386 . S
H949 C965 0.930 . S
H950 C966 0.931 . S
C951 H939 0.929 . S
C951 C945 1.390 . S
C951 C948 1.386 . S
C952 C947 1.490 . S
C952 C954 1.395 . S
C952 C955 1.403 . S
H953 C959 0.930 . S
C954 H940 0.930 . S
C954 C952 1.395 . S
C954 C957 1.403 . S
C955 C952 1.403 . S
C955 C956 1.524 . S
C955 C959 1.400 . S
C956 H941 0.960 . S
C956 H942 0.960 . S
C956 H943 0.960 . S
C956 C955 1.524 . S
C957 C954 1.403 . S
C957 C958 1.392 . S
C957 C961 1.495 . S
C958 C957 1.392 . S
C958 C959 1.385 . S
C958 C960 1.478 . S
C959 H953 0.930 . S
C959 C955 1.400 . S
C959 C958 1.385 . S
C960 C958 1.478 . S
C960 C962 1.381 . S
C960 C966 1.383 . S
C961 C957 1.495 . S
C961 H967 0.959 . S
C961 H968 0.961 . S
C961 H969 0.960 . S
C962 C960 1.381 . S
C962 C963 1.394 . S
C962 H970 0.930 . S
C963 C962 1.394 . S
C963 C964 1.383 . S
C963 H971 0.929 . S
C964 C963 1.383 . S
C964 C965 1.377 . S
C965 H949 0.930 . S
C965 C964 1.377 . S
C965 C966 1.379 . S
C966 H950 0.931 . S
C966 C960 1.383 . S
C966 C965 1.379 . S
H967 C961 0.959 . S
H968 C961 0.961 . S
H969 C961 0.960 . S
H970 C962 0.930 . S
H971 C963 0.929 . S
H972 C980 0.929 . S
H973 C982 0.930 . S
H974 C984 0.930 . S
H975 C987 0.929 . S
H976 C990 0.930 . S
H977 C992 0.960 . S
H978 C992 0.960 . S
H979 C992 0.960 . S
C980 H972 0.929 . S
C980 C981 1.377 . S
C980 C982 1.384 . S
C981 C980 1.377 . S
C981 C987 1.390 . S
C982 H973 0.930 . S
C982 C980 1.384 . S
C982 C983 1.372 . S
C983 C982 1.372 . S
C983 C984 1.400 . S
C983 C988 1.490 . S
C984 H974 0.930 . S
C984 C983 1.400 . S
C984 C987 1.386 . S
H985 C1001 0.930 . S
H986 C1002 0.931 . S
C987 H975 0.929 . S
C987 C981 1.390 . S
C987 C984 1.386 . S
C988 C983 1.490 . S
C988 C990 1.395 . S
C988 C991 1.403 . S
H989 C995 0.930 . S
C990 H976 0.930 . S
C990 C988 1.395 . S
C990 C993 1.403 . S
C991 C988 1.403 . S
C991 C992 1.524 . S
C991 C995 1.400 . S
C992 H977 0.960 . S
C992 H978 0.960 . S
C992 H979 0.960 . S
C992 C991 1.524 . S
C993 C990 1.403 . S
C993 C994 1.392 . S
C993 C997 1.495 . S
C994 C993 1.392 . S
C994 C995 1.385 . S
C994 C996 1.478 . S
C995 H989 0.930 . S
C995 C991 1.400 . S
C995 C994 1.385 . S
C996 C994 1.478 . S
C996 C998 1.381 . S
C996 C1002 1.383 . S
C997 C993 1.495 . S
C997 H1003 0.959 . S
C997 H1004 0.961 . S
C997 H1005 0.960 . S
C998 C996 1.381 . S
C998 C999 1.394 . S
C998 H1006 0.930 . S
C999 C998 1.394 . S
C999 C1000 1.383 . S
C999 H1007 0.929 . S
C1000 C999 1.383 . S
C1000 C1001 1.377 . S
C1001 H985 0.930 . S
C1001 C1000 1.377 . S
C1001 C1002 1.379 . S
C1002 H986 0.931 . S
C1002 C996 1.383 . S
C1002 C1001 1.379 . S
H1003 C997 0.959 . S
H1004 C997 0.961 . S
H1005 C997 0.960 . S
H1006 C998 0.930 . S
H1007 C999 0.929 . S
H1008 C1016 0.929 . S
H1009 C1018 0.930 . S
H1010 C1020 0.930 . S
H1011 C1023 0.929 . S
H1012 C1026 0.930 . S
H1013 C1028 0.960 . S
H1014 C1028 0.960 . S
H1015 C1028 0.960 . S
C1016 H1008 0.929 . S
C1016 C1017 1.377 . S
C1016 C1018 1.384 . S
C1017 C1016 1.377 . S
C1017 C1023 1.390 . S
C1018 H1009 0.930 . S
C1018 C1016 1.384 . S
C1018 C1019 1.372 . S
C1019 C1018 1.372 . S
C1019 C1020 1.400 . S
C1019 C1024 1.490 . S
C1020 H1010 0.930 . S
C1020 C1019 1.400 . S
C1020 C1023 1.386 . S
H1021 C1037 0.930 . S
H1022 C1038 0.931 . S
C1023 H1011 0.929 . S
C1023 C1017 1.390 . S
C1023 C1020 1.386 . S
C1024 C1019 1.490 . S
C1024 C1026 1.395 . S
C1024 C1027 1.403 . S
H1025 C1031 0.930 . S
C1026 H1012 0.930 . S
C1026 C1024 1.395 . S
C1026 C1029 1.403 . S
C1027 C1024 1.403 . S
C1027 C1028 1.524 . S
C1027 C1031 1.400 . S
C1028 H1013 0.960 . S
C1028 H1014 0.960 . S
C1028 H1015 0.960 . S
C1028 C1027 1.524 . S
C1029 C1026 1.403 . S
C1029 C1030 1.392 . S
C1029 C1033 1.495 . S
C1030 C1029 1.392 . S
C1030 C1031 1.385 . S
C1030 C1032 1.478 . S
C1031 H1025 0.930 . S
C1031 C1027 1.400 . S
C1031 C1030 1.385 . S
C1032 C1030 1.478 . S
C1032 C1034 1.381 . S
C1032 C1038 1.383 . S
C1033 C1029 1.495 . S
C1033 H1039 0.959 . S
C1033 H1040 0.961 . S
C1033 H1041 0.960 . S
C1034 C1032 1.381 . S
C1034 C1035 1.394 . S
C1034 H1042 0.930 . S
C1035 C1034 1.394 . S
C1035 C1036 1.383 . S
C1035 H1043 0.929 . S
C1036 C1035 1.383 . S
C1036 C1037 1.377 . S
C1037 H1021 0.930 . S
C1037 C1036 1.377 . S
C1037 C1038 1.379 . S
C1038 H1022 0.931 . S
C1038 C1032 1.383 . S
C1038 C1037 1.379 . S
H1039 C1033 0.959 . S
H1040 C1033 0.961 . S
H1041 C1033 0.960 . S
H1042 C1034 0.930 . S
H1043 C1035 0.929 . S
H1044 C1052 0.929 . S
H1045 C1054 0.930 . S
H1046 C1056 0.930 . S
H1047 C1059 0.929 . S
H1048 C1062 0.930 . S
H1049 C1064 0.960 . S
H1050 C1064 0.960 . S
H1051 C1064 0.960 . S
C1052 H1044 0.929 . S
C1052 C1053 1.377 . S
C1052 C1054 1.384 . S
C1053 C1052 1.377 . S
C1053 C1059 1.390 . S
C1054 H1045 0.930 . S
C1054 C1052 1.384 . S
C1054 C1055 1.372 . S
C1055 C1054 1.372 . S
C1055 C1056 1.400 . S
C1055 C1060 1.490 . S
C1056 H1046 0.930 . S
C1056 C1055 1.400 . S
C1056 C1059 1.386 . S
H1057 C1073 0.930 . S
H1058 C1074 0.931 . S
C1059 H1047 0.929 . S
C1059 C1053 1.390 . S
C1059 C1056 1.386 . S
C1060 C1055 1.490 . S
C1060 C1062 1.395 . S
C1060 C1063 1.403 . S
H1061 C1067 0.930 . S
C1062 H1048 0.930 . S
C1062 C1060 1.395 . S
C1062 C1065 1.403 . S
C1063 C1060 1.403 . S
C1063 C1064 1.524 . S
C1063 C1067 1.400 . S
C1064 H1049 0.960 . S
C1064 H1050 0.960 . S
C1064 H1051 0.960 . S
C1064 C1063 1.524 . S
C1065 C1062 1.403 . S
C1065 C1066 1.392 . S
C1065 C1069 1.495 . S
C1066 C1065 1.392 . S
C1066 C1067 1.385 . S
C1066 C1068 1.478 . S
C1067 H1061 0.930 . S
C1067 C1063 1.400 . S
C1067 C1066 1.385 . S
C1068 C1066 1.478 . S
C1068 C1070 1.381 . S
C1068 C1074 1.383 . S
C1069 C1065 1.495 . S
C1069 H1075 0.959 . S
C1069 H1076 0.961 . S
C1069 H1077 0.960 . S
C1070 C1068 1.381 . S
C1070 C1071 1.394 . S
C1070 H1078 0.930 . S
C1071 C1070 1.394 . S
C1071 C1072 1.383 . S
C1071 H1079 0.929 . S
C1072 C1071 1.383 . S
C1072 C1073 1.377 . S
C1073 H1057 0.930 . S
C1073 C1072 1.377 . S
C1073 C1074 1.379 . S
C1074 H1058 0.931 . S
C1074 C1068 1.383 . S
C1074 C1073 1.379 . S
H1075 C1069 0.959 . S
H1076 C1069 0.961 . S
H1077 C1069 0.960 . S
H1078 C1070 0.930 . S
H1079 C1071 0.929 . S
H1080 C1088 0.929 . S
H1081 C1090 0.930 . S
H1082 C1092 0.930 . S
H1083 C1095 0.929 . S
H1084 C1098 0.930 . S
H1085 C1100 0.960 . S
H1086 C1100 0.960 . S
H1087 C1100 0.960 . S
C1088 H1080 0.929 . S
C1088 C1089 1.377 . S
C1088 C1090 1.384 . S
C1089 C1088 1.377 . S
C1089 C1095 1.390 . S
C1090 H1081 0.930 . S
C1090 C1088 1.384 . S
C1090 C1091 1.372 . S
C1091 C1090 1.372 . S
C1091 C1092 1.400 . S
C1091 C1096 1.490 . S
C1092 H1082 0.930 . S
C1092 C1091 1.400 . S
C1092 C1095 1.386 . S
H1093 C1109 0.930 . S
H1094 C1110 0.931 . S
C1095 H1083 0.929 . S
C1095 C1089 1.390 . S
C1095 C1092 1.386 . S
C1096 C1091 1.490 . S
C1096 C1098 1.395 . S
C1096 C1099 1.403 . S
H1097 C1103 0.930 . S
C1098 H1084 0.930 . S
C1098 C1096 1.395 . S
C1098 C1101 1.403 . S
C1099 C1096 1.403 . S
C1099 C1100 1.524 . S
C1099 C1103 1.400 . S
C1100 H1085 0.960 . S
C1100 H1086 0.960 . S
C1100 H1087 0.960 . S
C1100 C1099 1.524 . S
C1101 C1098 1.403 . S
C1101 C1102 1.392 . S
C1101 C1105 1.495 . S
C1102 C1101 1.392 . S
C1102 C1103 1.385 . S
C1102 C1104 1.478 . S
C1103 H1097 0.930 . S
C1103 C1099 1.400 . S
C1103 C1102 1.385 . S
C1104 C1102 1.478 . S
C1104 C1106 1.381 . S
C1104 C1110 1.383 . S
C1105 C1101 1.495 . S
C1105 H1111 0.959 . S
C1105 H1112 0.961 . S
C1105 H1113 0.960 . S
C1106 C1104 1.381 . S
C1106 C1107 1.394 . S
C1106 H1114 0.930 . S
C1107 C1106 1.394 . S
C1107 C1108 1.383 . S
C1107 H1115 0.929 . S
C1108 C1107 1.383 . S
C1108 C1109 1.377 . S
C1109 H1093 0.930 . S
C1109 C1108 1.377 . S
C1109 C1110 1.379 . S
C1110 H1094 0.931 . S
C1110 C1104 1.383 . S
C1110 C1109 1.379 . S
H1111 C1105 0.959 . S
H1112 C1105 0.961 . S
H1113 C1105 0.960 . S
H1114 C1106 0.930 . S
H1115 C1107 0.929 . S
H1116 C1124 0.929 . S
H1117 C1126 0.930 . S
H1118 C1128 0.930 . S
H1119 C1131 0.929 . S
H1120 C1134 0.930 . S
H1121 C1136 0.960 . S
H1122 C1136 0.960 . S
H1123 C1136 0.960 . S
C1124 H1116 0.929 . S
C1124 C1125 1.377 . S
C1124 C1126 1.384 . S
C1125 C1124 1.377 . S
C1125 C1131 1.390 . S
C1126 H1117 0.930 . S
C1126 C1124 1.384 . S
C1126 C1127 1.372 . S
C1127 C1126 1.372 . S
C1127 C1128 1.400 . S
C1127 C1132 1.490 . S
C1128 H1118 0.930 . S
C1128 C1127 1.400 . S
C1128 C1131 1.386 . S
H1129 C1145 0.930 . S
H1130 C1146 0.931 . S
C1131 H1119 0.929 . S
C1131 C1125 1.390 . S
C1131 C1128 1.386 . S
C1132 C1127 1.490 . S
C1132 C1134 1.395 . S
C1132 C1135 1.403 . S
H1133 C1139 0.930 . S
C1134 H1120 0.930 . S
C1134 C1132 1.395 . S
C1134 C1137 1.403 . S
C1135 C1132 1.403 . S
C1135 C1136 1.524 . S
C1135 C1139 1.400 . S
C1136 H1121 0.960 . S
C1136 H1122 0.960 . S
C1136 H1123 0.960 . S
C1136 C1135 1.524 . S
C1137 C1134 1.403 . S
C1137 C1138 1.392 . S
C1137 C1141 1.495 . S
C1138 C1137 1.392 . S
C1138 C1139 1.385 . S
C1138 C1140 1.478 . S
C1139 H1133 0.930 . S
C1139 C1135 1.400 . S
C1139 C1138 1.385 . S
C1140 C1138 1.478 . S
C1140 C1142 1.381 . S
C1140 C1146 1.383 . S
C1141 C1137 1.495 . S
C1141 H1147 0.959 . S
C1141 H1148 0.961 . S
C1141 H1149 0.960 . S
C1142 C1140 1.381 . S
C1142 C1143 1.394 . S
C1142 H1150 0.930 . S
C1143 C1142 1.394 . S
C1143 C1144 1.383 . S
C1143 H1151 0.929 . S
C1144 C1143 1.383 . S
C1144 C1145 1.377 . S
C1145 H1129 0.930 . S
C1145 C1144 1.377 . S
C1145 C1146 1.379 . S
C1146 H1130 0.931 . S
C1146 C1140 1.383 . S
C1146 C1145 1.379 . S
H1147 C1141 0.959 . S
H1148 C1141 0.961 . S
H1149 C1141 0.960 . S
H1150 C1142 0.930 . S
H1151 C1143 0.929 . S
H1152 C1160 0.929 . S
H1153 C1162 0.930 . S
H1154 C1164 0.930 1_556 S
H1155 C1167 0.929 . S
H1156 C1170 0.930 . S
H1157 C1172 0.960 . S
H1158 C1172 0.960 . S
H1159 C1172 0.960 . S
C1160 H1152 0.929 . S
C1160 C1161 1.377 . S
C1160 C1162 1.384 . S
C1161 C1160 1.377 . S
C1161 C1167 1.390 . S
C1162 H1153 0.930 . S
C1162 C1160 1.384 . S
C1162 C1163 1.372 . S
C1163 C1162 1.372 . S
C1163 C1164 1.400 . S
C1163 C1168 1.490 . S
C1164 H1154 0.930 1_554 S
C1164 C1163 1.400 . S
C1164 C1167 1.386 . S
H1165 C1181 0.930 . S
H1166 C1182 0.931 . S
C1167 H1155 0.929 . S
C1167 C1161 1.390 . S
C1167 C1164 1.386 . S
C1168 C1163 1.490 . S
C1168 C1170 1.395 . S
C1168 C1171 1.403 1_554 S
H1169 C1175 0.930 . S
C1170 H1156 0.930 . S
C1170 C1168 1.395 . S
C1170 C1173 1.403 . S
C1171 C1168 1.403 1_556 S
C1171 C1172 1.524 . S
C1171 C1175 1.400 . S
C1172 H1157 0.960 . S
C1172 H1158 0.960 . S
C1172 H1159 0.960 . S
C1172 C1171 1.524 . S
C1173 C1170 1.403 . S
C1173 C1174 1.392 1_554 S
C1173 C1177 1.495 . S
C1174 C1173 1.392 1_556 S
C1174 C1175 1.385 . S
C1174 C1176 1.478 . S
C1175 H1169 0.930 . S
C1175 C1171 1.400 . S
C1175 C1174 1.385 . S
C1176 C1174 1.478 . S
C1176 C1178 1.381 . S
C1176 C1182 1.383 . S
C1177 C1173 1.495 . S
C1177 H1183 0.959 . S
C1177 H1184 0.961 . S
C1177 H1185 0.960 . S
C1178 C1176 1.381 . S
C1178 C1179 1.394 . S
C1178 H1186 0.930 . S
C1179 C1178 1.394 . S
C1179 C1180 1.383 . S
C1179 H1187 0.929 . S
C1180 C1179 1.383 . S
C1180 C1181 1.377 . S
C1181 H1165 0.930 . S
C1181 C1180 1.377 . S
C1181 C1182 1.379 . S
C1182 H1166 0.931 . S
C1182 C1176 1.383 . S
C1182 C1181 1.379 . S
H1183 C1177 0.959 . S
H1184 C1177 0.961 . S
H1185 C1177 0.960 . S
H1186 C1178 0.930 . S
H1187 C1179 0.929 . S
H1188 C1196 0.929 . S
H1189 C1198 0.930 1_556 S
H1190 C1200 0.930 . S
H1191 C1203 0.929 . S
H1192 C1206 0.930 . S
H1193 C1208 0.960 . S
H1194 C1208 0.960 . S
H1195 C1208 0.960 . S
C1196 H1188 0.929 . S
C1196 C1197 1.377 . S
C1196 C1198 1.384 . S
C1197 C1196 1.377 . S
C1197 C1203 1.390 . S
C1198 H1189 0.930 1_554 S
C1198 C1196 1.384 . S
C1198 C1199 1.372 . S
C1199 C1198 1.372 . S
C1199 C1200 1.400 . S
C1199 C1204 1.490 . S
C1200 H1190 0.930 . S
C1200 C1199 1.400 . S
C1200 C1203 1.386 . S
H1201 C1217 0.930 . S
H1202 C1218 0.931 . S
C1203 H1191 0.929 . S
C1203 C1197 1.390 . S
C1203 C1200 1.386 . S
C1204 C1199 1.490 . S
C1204 C1206 1.395 1_554 S
C1204 C1207 1.403 . S
H1205 C1211 0.929 1_554 S
C1206 H1192 0.930 . S
C1206 C1204 1.395 1_556 S
C1206 C1209 1.403 . S
C1207 C1204 1.403 . S
C1207 C1208 1.524 . S
C1207 C1211 1.399 1_554 S
C1208 H1193 0.960 . S
C1208 H1194 0.960 . S
C1208 H1195 0.960 . S
C1208 C1207 1.524 . S
C1209 C1206 1.403 . S
C1209 C1210 1.392 . S
C1209 C1213 1.495 . S
C1210 C1209 1.392 . S
C1210 C1211 1.387 . S
C1210 C1212 1.478 . S
C1211 H1205 0.929 1_556 S
C1211 C1207 1.399 1_556 S
C1211 C1210 1.387 . S
C1212 C1210 1.478 . S
C1212 C1214 1.381 . S
C1212 C1218 1.383 . S
C1213 C1209 1.495 . S
C1213 H1219 0.959 . S
C1213 H1220 0.961 . S
C1213 H1221 0.960 . S
C1214 C1212 1.381 . S
C1214 C1215 1.350 1_565 S
C1214 H1222 0.930 . S
C1215 C1214 1.350 1_545 S
C1215 C1216 1.426 . S
C1215 H1223 0.933 . S
C1216 C1215 1.426 . S
C1216 C1217 1.377 . S
C1217 H1201 0.930 . S
C1217 C1216 1.377 . S
C1217 C1218 1.379 1_545 S
C1218 H1202 0.931 . S
C1218 C1212 1.383 . S
C1218 C1217 1.379 1_565 S
H1219 C1213 0.959 . S
H1220 C1213 0.961 . S
H1221 C1213 0.960 . S
H1222 C1214 0.930 . S
H1223 C1215 0.933 . S
H1224 C1232 0.929 . S
H1225 C1234 0.930 . S
H1226 C1236 0.930 . S
H1227 C1239 0.929 . S
H1228 C1242 0.930 . S
H1229 C1244 0.960 . S
H1230 C1244 0.960 . S
H1231 C1244 0.960 . S
C1232 H1224 0.929 . S
C1232 C1233 1.377 . S
C1232 C1234 1.384 . S
C1233 C1232 1.377 . S
C1233 C1239 1.390 . S
C1234 H1225 0.930 . S
C1234 C1232 1.384 . S
C1234 C1235 1.372 . S
C1235 C1234 1.372 . S
C1235 C1236 1.400 . S
C1235 C1240 1.490 . S
C1236 H1226 0.930 . S
C1236 C1235 1.400 . S
C1236 C1239 1.386 . S
H1237 C1253 0.930 . S
H1238 C1254 0.931 . S
C1239 H1227 0.929 . S
C1239 C1233 1.390 . S
C1239 C1236 1.386 . S
C1240 C1235 1.490 . S
C1240 C1242 1.395 1_554 S
C1240 C1243 1.403 . S
H1241 C1247 0.931 . S
C1242 H1228 0.930 . S
C1242 C1240 1.395 1_556 S
C1242 C1245 1.403 . S
C1243 C1240 1.403 . S
C1243 C1244 1.524 . S
C1243 C1247 1.401 . S
C1244 H1229 0.960 . S
C1244 H1230 0.960 . S
C1244 H1231 0.960 . S
C1244 C1243 1.524 . S
C1245 C1242 1.403 . S
C1245 C1246 1.392 . S
C1245 C1249 1.495 . S
C1246 C1245 1.392 . S
C1246 C1247 1.383 1_556 S
C1246 C1248 1.478 . S
C1247 H1241 0.931 . S
C1247 C1243 1.401 . S
C1247 C1246 1.383 1_554 S
C1248 C1246 1.478 . S
C1248 C1250 1.381 . S
C1248 C1254 1.383 . S
C1249 C1245 1.495 . S
C1249 H1255 0.959 . S
C1249 H1256 0.961 . S
C1249 H1257 0.960 . S
C1250 C1248 1.381 . S
C1250 C1251 1.394 . S
C1250 H1258 0.930 . S
C1251 C1250 1.394 . S
C1251 C1252 1.387 1_455 S
C1251 H1259 0.938 . S
C1252 C1251 1.387 1_655 S
C1252 C1253 1.355 1_655 S
C1253 H1237 0.930 . S
C1253 C1252 1.355 1_455 S
C1253 C1254 1.379 . S
C1254 H1238 0.931 . S
C1254 C1248 1.383 . S
C1254 C1253 1.379 . S
H1255 C1249 0.959 . S
H1256 C1249 0.961 . S
H1257 C1249 0.960 . S
H1258 C1250 0.930 . S
H1259 C1251 0.938 . S
H1260 C1268 0.929 . S
H1261 C1270 0.930 . S
H1262 C1272 0.930 . S
H1263 C1275 0.929 . S
H1264 C1278 0.930 . S
H1265 C1280 0.960 . S
H1266 C1280 0.960 . S
H1267 C1280 0.960 . S
C1268 H1260 0.929 . S
C1268 C1269 1.377 . S
C1268 C1270 1.384 . S
C1269 C1268 1.377 . S
C1269 C1275 1.390 . S
C1270 H1261 0.930 . S
C1270 C1268 1.384 . S
C1270 C1271 1.372 . S
C1271 C1270 1.372 . S
C1271 C1272 1.400 . S
C1271 C1276 1.490 . S
C1272 H1262 0.930 . S
C1272 C1271 1.400 . S
C1272 C1275 1.386 . S
H1273 C1289 0.930 . S
H1274 C1290 0.931 . S
C1275 H1263 0.929 . S
C1275 C1269 1.390 . S
C1275 C1272 1.386 . S
C1276 C1271 1.490 . S
C1276 C1278 1.395 . S
C1276 C1279 1.403 . S
H1277 C1283 0.930 . S
C1278 H1264 0.930 . S
C1278 C1276 1.395 . S
C1278 C1281 1.403 . S
C1279 C1276 1.403 . S
C1279 C1280 1.524 . S
C1279 C1283 1.400 . S
C1280 H1265 0.960 . S
C1280 H1266 0.960 . S
C1280 H1267 0.960 . S
C1280 C1279 1.524 . S
C1281 C1278 1.403 . S
C1281 C1282 1.392 . S
C1281 C1285 1.495 . S
C1282 C1281 1.392 . S
C1282 C1283 1.385 . S
C1282 C1284 1.478 . S
C1283 H1277 0.930 . S
C1283 C1279 1.400 . S
C1283 C1282 1.385 . S
C1284 C1282 1.478 . S
C1284 C1286 1.381 . S
C1284 C1290 1.383 . S
C1285 C1281 1.495 . S
C1285 H1291 0.959 . S
C1285 H1292 0.961 . S
C1285 H1293 0.960 . S
C1286 C1284 1.381 . S
C1286 C1287 1.394 . S
C1286 H1294 0.930 . S
C1287 C1286 1.394 . S
C1287 C1288 1.383 . S
C1287 H1295 0.929 . S
C1288 C1287 1.383 . S
C1288 C1289 1.377 . S
C1289 H1273 0.930 . S
C1289 C1288 1.377 . S
C1289 C1290 1.379 . S
C1290 H1274 0.931 . S
C1290 C1284 1.383 . S
C1290 C1289 1.379 . S
H1291 C1285 0.959 . S
H1292 C1285 0.961 . S
H1293 C1285 0.960 . S
H1294 C1286 0.930 . S
H1295 C1287 0.929 . S
H1296 C1304 0.929 . S
H1297 C1306 0.930 . S
H1298 C1308 0.930 . S
H1299 C1311 0.929 . S
H1300 C1314 0.930 . S
H1301 C1316 0.960 . S
H1302 C1316 0.960 . S
H1303 C1316 0.960 . S
C1304 H1296 0.929 . S
C1304 C1305 1.377 . S
C1304 C1306 1.384 . S
C1305 C1304 1.377 . S
C1305 C1311 1.390 . S
C1306 H1297 0.930 . S
C1306 C1304 1.384 . S
C1306 C1307 1.372 . S
C1307 C1306 1.372 . S
C1307 C1308 1.400 . S
C1307 C1312 1.490 . S
C1308 H1298 0.930 . S
C1308 C1307 1.400 . S
C1308 C1311 1.386 . S
H1309 C1325 0.930 . S
H1310 C1326 0.931 . S
C1311 H1299 0.929 . S
C1311 C1305 1.390 . S
C1311 C1308 1.386 . S
C1312 C1307 1.490 . S
C1312 C1314 1.395 . S
C1312 C1315 1.403 . S
H1313 C1319 0.930 . S
C1314 H1300 0.930 . S
C1314 C1312 1.395 . S
C1314 C1317 1.403 . S
C1315 C1312 1.403 . S
C1315 C1316 1.524 . S
C1315 C1319 1.400 . S
C1316 H1301 0.960 . S
C1316 H1302 0.960 . S
C1316 H1303 0.960 . S
C1316 C1315 1.524 . S
C1317 C1314 1.403 . S
C1317 C1318 1.392 . S
C1317 C1321 1.495 . S
C1318 C1317 1.392 . S
C1318 C1319 1.385 . S
C1318 C1320 1.478 . S
C1319 H1313 0.930 . S
C1319 C1315 1.400 . S
C1319 C1318 1.385 . S
C1320 C1318 1.478 . S
C1320 C1322 1.381 . S
C1320 C1326 1.383 . S
C1321 C1317 1.495 . S
C1321 H1327 0.959 . S
C1321 H1328 0.961 . S
C1321 H1329 0.960 . S
C1322 C1320 1.381 . S
C1322 C1323 1.394 . S
C1322 H1330 0.930 . S
C1323 C1322 1.394 . S
C1323 C1324 1.383 . S
C1323 H1331 0.929 . S
C1324 C1323 1.383 . S
C1324 C1325 1.377 . S
C1325 H1309 0.930 . S
C1325 C1324 1.377 . S
C1325 C1326 1.379 . S
C1326 H1310 0.931 . S
C1326 C1320 1.383 . S
C1326 C1325 1.379 . S
H1327 C1321 0.959 . S
H1328 C1321 0.961 . S
H1329 C1321 0.960 . S
H1330 C1322 0.930 . S
H1331 C1323 0.929 . S
H1332 C1340 0.929 . S
H1333 C1342 0.930 . S
H1334 C1344 0.930 . S
H1335 C1347 0.929 . S
H1336 C1350 0.930 . S
H1337 C1352 0.960 . S
H1338 C1352 0.960 . S
H1339 C1352 0.960 . S
C1340 H1332 0.929 . S
C1340 C1341 1.377 . S
C1340 C1342 1.384 . S
C1341 C1340 1.377 . S
C1341 C1347 1.390 . S
C1342 H1333 0.930 . S
C1342 C1340 1.384 . S
C1342 C1343 1.372 . S
C1343 C1342 1.372 . S
C1343 C1344 1.400 . S
C1343 C1348 1.490 . S
C1344 H1334 0.930 . S
C1344 C1343 1.400 . S
C1344 C1347 1.386 . S
H1345 C1361 0.930 . S
H1346 C1362 0.931 . S
C1347 H1335 0.929 . S
C1347 C1341 1.390 . S
C1347 C1344 1.386 . S
C1348 C1343 1.490 . S
C1348 C1350 1.395 . S
C1348 C1351 1.403 . S
H1349 C1355 0.930 . S
C1350 H1336 0.930 . S
C1350 C1348 1.395 . S
C1350 C1353 1.403 . S
C1351 C1348 1.403 . S
C1351 C1352 1.524 . S
C1351 C1355 1.400 . S
C1352 H1337 0.960 . S
C1352 H1338 0.960 . S
C1352 H1339 0.960 . S
C1352 C1351 1.524 . S
C1353 C1350 1.403 . S
C1353 C1354 1.392 . S
C1353 C1357 1.495 . S
C1354 C1353 1.392 . S
C1354 C1355 1.385 . S
C1354 C1356 1.478 . S
C1355 H1349 0.930 . S
C1355 C1351 1.400 . S
C1355 C1354 1.385 . S
C1356 C1354 1.478 . S
C1356 C1358 1.381 . S
C1356 C1362 1.383 . S
C1357 C1353 1.495 . S
C1357 H1363 0.959 . S
C1357 H1364 0.961 . S
C1357 H1365 0.960 . S
C1358 C1356 1.381 . S
C1358 C1359 1.394 . S
C1358 H1366 0.930 . S
C1359 C1358 1.394 . S
C1359 C1360 1.383 . S
C1359 H1367 0.929 . S
C1360 C1359 1.383 . S
C1360 C1361 1.377 . S
C1361 H1345 0.930 . S
C1361 C1360 1.377 . S
C1361 C1362 1.379 . S
C1362 H1346 0.931 . S
C1362 C1356 1.383 . S
C1362 C1361 1.379 . S
H1363 C1357 0.959 . S
H1364 C1357 0.961 . S
H1365 C1357 0.960 . S
H1366 C1358 0.930 . S
H1367 C1359 0.929 . S
H1368 C1376 0.929 . S
H1369 C1378 0.930 . S
H1370 C1380 0.930 . S
H1371 C1383 0.929 . S
H1372 C1386 0.930 . S
H1373 C1388 0.960 . S
H1374 C1388 0.960 . S
H1375 C1388 0.960 . S
C1376 H1368 0.929 . S
C1376 C1377 1.377 . S
C1376 C1378 1.384 . S
C1377 C1376 1.377 . S
C1377 C1383 1.390 . S
C1378 H1369 0.930 . S
C1378 C1376 1.384 . S
C1378 C1379 1.372 . S
C1379 C1378 1.372 . S
C1379 C1380 1.400 . S
C1379 C1384 1.490 . S
C1380 H1370 0.930 . S
C1380 C1379 1.400 . S
C1380 C1383 1.386 . S
H1381 C1397 0.930 . S
H1382 C1398 0.931 . S
C1383 H1371 0.929 . S
C1383 C1377 1.390 . S
C1383 C1380 1.386 . S
C1384 C1379 1.490 . S
C1384 C1386 1.395 . S
C1384 C1387 1.403 1_556 S
H1385 C1391 0.930 . S
C1386 H1372 0.930 . S
C1386 C1384 1.395 . S
C1386 C1389 1.403 . S
C1387 C1384 1.403 1_554 S
C1387 C1388 1.524 . S
C1387 C1391 1.400 . S
C1388 H1373 0.960 . S
C1388 H1374 0.960 . S
C1388 H1375 0.960 . S
C1388 C1387 1.524 . S
C1389 C1386 1.403 . S
C1389 C1390 1.392 1_556 S
C1389 C1393 1.495 . S
C1390 C1389 1.392 1_554 S
C1390 C1391 1.385 . S
C1390 C1392 1.478 . S
C1391 H1385 0.930 . S
C1391 C1387 1.400 . S
C1391 C1390 1.385 . S
C1392 C1390 1.478 . S
C1392 C1394 1.381 . S
C1392 C1398 1.383 . S
C1393 C1389 1.495 . S
C1393 H1399 0.959 . S
C1393 H1400 0.961 . S
C1393 H1401 0.960 . S
C1394 C1392 1.381 . S
C1394 C1395 1.394 . S
C1394 H1402 0.930 . S
C1395 C1394 1.394 . S
C1395 C1396 1.383 . S
C1395 H1403 0.929 . S
C1396 C1395 1.383 . S
C1396 C1397 1.377 . S
C1397 H1381 0.930 . S
C1397 C1396 1.377 . S
C1397 C1398 1.379 . S
C1398 H1382 0.931 . S
C1398 C1392 1.383 . S
C1398 C1397 1.379 . S
H1399 C1393 0.959 . S
H1400 C1393 0.961 . S
H1401 C1393 0.960 . S
H1402 C1394 0.930 . S
H1403 C1395 0.929 . S
H1404 C1412 0.929 . S
H1405 C1414 0.930 . S
H1406 C1416 0.929 . S
H1407 C1419 0.929 . S
H1408 C1422 0.930 . S
H1409 C1424 0.960 . S
H1410 C1424 0.960 . S
H1411 C1424 0.960 . S
C1412 H1404 0.929 . S
C1412 C1413 1.377 . S
C1412 C1414 1.384 . S
C1413 C1412 1.377 . S
C1413 C1419 1.390 . S
C1414 H1405 0.930 . S
C1414 C1412 1.384 . S
C1414 C1415 1.372 . S
C1415 C1414 1.372 . S
C1415 C1416 1.400 . S
C1415 C1420 1.490 . S
C1416 H1406 0.929 . S
C1416 C1415 1.400 . S
C1416 C1419 1.386 . S
H1417 C1433 0.930 . S
H1418 C1434 0.931 . S
C1419 H1407 0.929 . S
C1419 C1413 1.390 . S
C1419 C1416 1.386 . S
C1420 C1415 1.490 . S
C1420 C1422 1.395 1_556 S
C1420 C1423 1.403 . S
H1421 C1427 0.930 . S
C1422 H1408 0.930 . S
C1422 C1420 1.395 1_554 S
C1422 C1425 1.403 . S
C1423 C1420 1.403 . S
C1423 C1424 1.524 . S
C1423 C1427 1.400 1_556 S
C1424 H1409 0.960 . S
C1424 H1410 0.960 . S
C1424 H1411 0.960 . S
C1424 C1423 1.524 . S
C1425 C1422 1.403 . S
C1425 C1426 1.392 . S
C1425 C1429 1.495 . S
C1426 C1425 1.392 . S
C1426 C1427 1.385 . S
C1426 C1428 1.478 . S
C1427 H1421 0.930 . S
C1427 C1423 1.400 1_554 S
C1427 C1426 1.385 . S
C1428 C1426 1.478 . S
C1428 C1430 1.381 . S
C1428 C1434 1.383 . S
C1429 C1425 1.495 . S
C1429 H1435 0.959 . S
C1429 H1436 0.961 . S
C1429 H1437 0.960 . S
C1430 C1428 1.381 . S
C1430 C1431 1.394 . S
C1430 H1438 0.930 . S
C1431 C1430 1.394 . S
C1431 C1432 1.385 1_545 S
C1431 H1439 0.929 1_545 S
C1432 C1431 1.385 1_565 S
C1432 C1433 1.350 1_565 S
C1433 H1417 0.930 . S
C1433 C1432 1.350 1_545 S
C1433 C1434 1.379 . S
C1434 H1418 0.931 . S
C1434 C1428 1.383 . S
C1434 C1433 1.379 . S
H1435 C1429 0.959 . S
H1436 C1429 0.961 . S
H1437 C1429 0.960 . S
H1438 C1430 0.930 . S
H1439 C1431 0.929 1_565 S
H1440 C1448 0.929 . S
H1441 C1450 0.930 . S
H1442 C1452 0.930 1_554 S
H1443 C1455 0.929 . S
H1444 C1458 0.930 . S
H1445 C1460 0.960 . S
H1446 C1460 0.960 . S
H1447 C1460 0.960 . S
C1448 H1440 0.929 . S
C1448 C1449 1.377 . S
C1448 C1450 1.384 . S
C1449 C1448 1.377 . S
C1449 C1455 1.390 . S
C1450 H1441 0.930 . S
C1450 C1448 1.384 . S
C1450 C1451 1.372 . S
C1451 C1450 1.372 . S
C1451 C1452 1.400 . S
C1451 C1456 1.490 . S
C1452 H1442 0.930 1_556 S
C1452 C1451 1.400 . S
C1452 C1455 1.386 . S
H1453 C1469 0.930 . S
H1454 C1470 0.931 . S
C1455 H1443 0.929 . S
C1455 C1449 1.390 . S
C1455 C1452 1.386 . S
C1456 C1451 1.490 . S
C1456 C1458 1.395 . S
C1456 C1459 1.403 1_556 S
H1457 C1463 0.930 . S
C1458 H1444 0.930 . S
C1458 C1456 1.395 . S
C1458 C1461 1.403 . S
C1459 C1456 1.403 1_554 S
C1459 C1460 1.524 . S
C1459 C1463 1.400 . S
C1460 H1445 0.960 . S
C1460 H1446 0.960 . S
C1460 H1447 0.960 . S
C1460 C1459 1.524 . S
C1461 C1458 1.403 . S
C1461 C1462 1.392 1_556 S
C1461 C1465 1.495 . S
C1462 C1461 1.392 1_554 S
C1462 C1463 1.385 . S
C1462 C1464 1.478 . S
C1463 H1457 0.930 . S
C1463 C1459 1.400 . S
C1463 C1462 1.385 . S
C1464 C1462 1.478 . S
C1464 C1466 1.381 . S
C1464 C1470 1.383 . S
C1465 C1461 1.495 . S
C1465 H1471 0.959 . S
C1465 H1472 0.961 . S
C1465 H1473 0.960 . S
C1466 C1464 1.381 . S
C1466 C1467 1.394 1_655 S
C1466 H1474 0.930 . S
C1467 C1466 1.394 1_455 S
C1467 C1468 1.383 . S
C1467 H1475 0.929 . S
C1468 C1467 1.383 . S
C1468 C1469 1.377 1_455 S
C1469 H1453 0.930 . S
C1469 C1468 1.377 1_655 S
C1469 C1470 1.379 . S
C1470 H1454 0.931 . S
C1470 C1464 1.383 . S
C1470 C1469 1.379 . S
H1471 C1465 0.959 . S
H1472 C1465 0.961 . S
H1473 C1465 0.960 . S
H1474 C1466 0.930 . S
H1475 C1467 0.929 . S
H1476 C1484 0.929 . S
H1477 C1486 0.930 . S
H1478 C1488 0.930 . S
H1479 C1491 0.929 . S
H1480 C1494 0.930 . S
H1481 C1496 0.960 . S
H1482 C1496 0.960 . S
H1483 C1496 0.960 . S
C1484 H1476 0.929 . S
C1484 C1485 1.377 . S
C1484 C1486 1.384 . S
C1485 C1484 1.377 . S
C1485 C1491 1.390 . S
C1486 H1477 0.930 . S
C1486 C1484 1.384 . S
C1486 C1487 1.372 . S
C1487 C1486 1.372 . S
C1487 C1488 1.400 . S
C1487 C1492 1.490 . S
C1488 H1478 0.930 . S
C1488 C1487 1.400 . S
C1488 C1491 1.386 . S
H1489 C1505 0.930 . S
H1490 C1506 0.931 . S
C1491 H1479 0.929 . S
C1491 C1485 1.390 . S
C1491 C1488 1.386 . S
C1492 C1487 1.490 . S
C1492 C1494 1.395 . S
C1492 C1495 1.403 . S
H1493 C1499 0.930 . S
C1494 H1480 0.930 . S
C1494 C1492 1.395 . S
C1494 C1497 1.403 . S
C1495 C1492 1.403 . S
C1495 C1496 1.524 . S
C1495 C1499 1.400 . S
C1496 H1481 0.960 . S
C1496 H1482 0.960 . S
C1496 H1483 0.960 . S
C1496 C1495 1.524 . S
C1497 C1494 1.403 . S
C1497 C1498 1.392 . S
C1497 C1501 1.495 . S
C1498 C1497 1.392 . S
C1498 C1499 1.385 . S
C1498 C1500 1.478 . S
C1499 H1493 0.930 . S
C1499 C1495 1.400 . S
C1499 C1498 1.385 . S
C1500 C1498 1.478 . S
C1500 C1502 1.381 . S
C1500 C1506 1.383 . S
C1501 C1497 1.495 . S
C1501 H1507 0.959 . S
C1501 H1508 0.961 . S
C1501 H1509 0.960 . S
C1502 C1500 1.381 . S
C1502 C1503 1.394 . S
C1502 H1510 0.930 . S
C1503 C1502 1.394 . S
C1503 C1504 1.383 . S
C1503 H1511 0.929 . S
C1504 C1503 1.383 . S
C1504 C1505 1.377 . S
C1505 H1489 0.930 . S
C1505 C1504 1.377 . S
C1505 C1506 1.379 . S
C1506 H1490 0.931 . S
C1506 C1500 1.383 . S
C1506 C1505 1.379 . S
H1507 C1501 0.959 . S
H1508 C1501 0.961 . S
H1509 C1501 0.960 . S
H1510 C1502 0.930 . S
H1511 C1503 0.929 . S
H1512 C1520 0.929 . S
H1513 C1522 0.930 . S
H1514 C1524 0.930 . S
H1515 C1527 0.929 . S
H1516 C1530 0.930 . S
H1517 C1532 0.960 . S
H1518 C1532 0.960 . S
H1519 C1532 0.960 . S
C1520 H1512 0.929 . S
C1520 C1521 1.377 . S
C1520 C1522 1.384 . S
C1521 C1520 1.377 . S
C1521 C1527 1.390 . S
C1522 H1513 0.930 . S
C1522 C1520 1.384 . S
C1522 C1523 1.372 . S
C1523 C1522 1.372 . S
C1523 C1524 1.400 . S
C1523 C1528 1.490 . S
C1524 H1514 0.930 . S
C1524 C1523 1.400 . S
C1524 C1527 1.386 . S
H1525 C1541 0.930 . S
H1526 C1542 0.931 . S
C1527 H1515 0.929 . S
C1527 C1521 1.390 . S
C1527 C1524 1.386 . S
C1528 C1523 1.490 . S
C1528 C1530 1.395 . S
C1528 C1531 1.403 . S
H1529 C1535 0.930 . S
C1530 H1516 0.930 . S
C1530 C1528 1.395 . S
C1530 C1533 1.403 . S
C1531 C1528 1.403 . S
C1531 C1532 1.524 . S
C1531 C1535 1.400 . S
C1532 H1517 0.960 . S
C1532 H1518 0.960 . S
C1532 H1519 0.960 . S
C1532 C1531 1.524 . S
C1533 C1530 1.403 . S
C1533 C1534 1.392 . S
C1533 C1537 1.495 . S
C1534 C1533 1.392 . S
C1534 C1535 1.385 . S
C1534 C1536 1.478 . S
C1535 H1529 0.930 . S
C1535 C1531 1.400 . S
C1535 C1534 1.385 . S
C1536 C1534 1.478 . S
C1536 C1538 1.381 . S
C1536 C1542 1.383 . S
C1537 C1533 1.495 . S
C1537 H1543 0.959 . S
C1537 H1544 0.961 . S
C1537 H1545 0.960 . S
C1538 C1536 1.381 . S
C1538 C1539 1.394 . S
C1538 H1546 0.930 . S
C1539 C1538 1.394 . S
C1539 C1540 1.383 1_545 S
C1539 H1547 0.929 1_545 S
C1540 C1539 1.383 1_565 S
C1540 C1541 1.377 1_565 S
C1541 H1525 0.930 . S
C1541 C1540 1.377 1_545 S
C1541 C1542 1.379 . S
C1542 H1526 0.931 . S
C1542 C1536 1.383 . S
C1542 C1541 1.379 . S
H1543 C1537 0.959 . S
H1544 C1537 0.961 . S
H1545 C1537 0.960 . S
H1546 C1538 0.930 . S
H1547 C1539 0.929 1_565 S
H1548 C1556 0.929 . S
H1549 C1558 0.930 . S
H1550 C1560 0.930 . S
H1551 C1563 0.929 . S
H1552 C1566 0.930 . S
H1553 C1568 0.960 . S
H1554 C1568 0.960 . S
H1555 C1568 0.960 . S
C1556 H1548 0.929 . S
C1556 C1557 1.377 1_655 S
C1556 C1558 1.384 . S
C1557 C1556 1.377 1_455 S
C1557 C1563 1.390 . S
C1558 H1549 0.930 . S
C1558 C1556 1.384 . S
C1558 C1559 1.372 . S
C1559 C1558 1.372 . S
C1559 C1560 1.400 . S
C1559 C1564 1.490 . S
C1560 H1550 0.930 . S
C1560 C1559 1.400 . S
C1560 C1563 1.386 1_655 S
H1561 C1577 0.930 . S
H1562 C1578 0.931 . S
C1563 H1551 0.929 . S
C1563 C1557 1.390 . S
C1563 C1560 1.386 1_455 S
C1564 C1559 1.490 . S
C1564 C1566 1.395 . S
C1564 C1567 1.403 . S
H1565 C1571 0.930 . S
C1566 H1552 0.930 . S
C1566 C1564 1.395 . S
C1566 C1569 1.403 . S
C1567 C1564 1.403 . S
C1567 C1568 1.524 . S
C1567 C1571 1.400 . S
C1568 H1553 0.960 . S
C1568 H1554 0.960 . S
C1568 H1555 0.960 . S
C1568 C1567 1.524 . S
C1569 C1566 1.403 . S
C1569 C1570 1.392 . S
C1569 C1573 1.495 . S
C1570 C1569 1.392 . S
C1570 C1571 1.385 . S
C1570 C1572 1.478 . S
C1571 H1565 0.930 . S
C1571 C1567 1.400 . S
C1571 C1570 1.385 . S
C1572 C1570 1.478 . S
C1572 C1574 1.381 . S
C1572 C1578 1.383 . S
C1573 C1569 1.495 . S
C1573 H1579 0.959 . S
C1573 H1580 0.961 . S
C1573 H1581 0.960 . S
C1574 C1572 1.381 . S
C1574 C1575 1.394 . S
C1574 H1582 0.930 . S
C1575 C1574 1.394 . S
C1575 C1576 1.383 . S
C1575 H1583 0.929 . S
C1576 C1575 1.383 . S
C1576 C1577 1.377 . S
C1577 H1561 0.930 . S
C1577 C1576 1.377 . S
C1577 C1578 1.379 . S
C1578 H1562 0.931 . S
C1578 C1572 1.383 . S
C1578 C1577 1.379 . S
H1579 C1573 0.959 . S
H1580 C1573 0.961 . S
H1581 C1573 0.960 . S
H1582 C1574 0.930 . S
H1583 C1575 0.929 . S
H1584 C1592 0.929 . S
H1585 C1594 0.930 . S
H1586 C1596 0.930 . S
H1587 C1599 0.929 . S
H1588 C1602 0.930 . S
H1589 C1604 0.960 . S
H1590 C1604 0.960 . S
H1591 C1604 0.960 . S
C1592 H1584 0.929 . S
C1592 C1593 1.377 . S
C1592 C1594 1.384 . S
C1593 C1592 1.377 . S
C1593 C1599 1.390 . S
C1594 H1585 0.930 . S
C1594 C1592 1.384 . S
C1594 C1595 1.372 . S
C1595 C1594 1.372 . S
C1595 C1596 1.400 . S
C1595 C1600 1.490 . S
C1596 H1586 0.930 . S
C1596 C1595 1.400 . S
C1596 C1599 1.386 . S
H1597 C1613 0.930 . S
H1598 C1614 0.931 . S
C1599 H1587 0.929 . S
C1599 C1593 1.390 . S
C1599 C1596 1.386 . S
C1600 C1595 1.490 . S
C1600 C1602 1.395 . S
C1600 C1603 1.403 . S
H1601 C1607 0.930 . S
C1602 H1588 0.930 . S
C1602 C1600 1.395 . S
C1602 C1605 1.403 . S
C1603 C1600 1.403 . S
C1603 C1604 1.524 . S
C1603 C1607 1.400 . S
C1604 H1589 0.960 . S
C1604 H1590 0.960 . S
C1604 H1591 0.960 . S
C1604 C1603 1.524 . S
C1605 C1602 1.403 . S
C1605 C1606 1.392 . S
C1605 C1609 1.495 . S
C1606 C1605 1.392 . S
C1606 C1607 1.385 . S
C1606 C1608 1.478 . S
C1607 H1601 0.930 . S
C1607 C1603 1.400 . S
C1607 C1606 1.385 . S
C1608 C1606 1.478 . S
C1608 C1610 1.381 . S
C1608 C1614 1.383 . S
C1609 C1605 1.495 . S
C1609 H1615 0.959 . S
C1609 H1616 0.961 . S
C1609 H1617 0.960 . S
C1610 C1608 1.381 . S
C1610 C1611 1.394 . S
C1610 H1618 0.930 . S
C1611 C1610 1.394 . S
C1611 C1612 1.383 . S
C1611 H1619 0.929 . S
C1612 C1611 1.383 . S
C1612 C1613 1.377 . S
C1613 H1597 0.930 . S
C1613 C1612 1.377 . S
C1613 C1614 1.379 . S
C1614 H1598 0.931 . S
C1614 C1608 1.383 . S
C1614 C1613 1.379 . S
H1615 C1609 0.959 . S
H1616 C1609 0.961 . S
H1617 C1609 0.960 . S
H1618 C1610 0.930 . S
H1619 C1611 0.929 . S
H1620 C1628 0.929 . S
H1621 C1630 0.930 . S
H1622 C1632 0.930 . S
H1623 C1635 0.929 . S
H1624 C1638 0.930 . S
H1625 C1640 0.960 . S
H1626 C1640 0.960 . S
H1627 C1640 0.960 . S
C1628 H1620 0.929 . S
C1628 C1629 1.377 . S
C1628 C1630 1.384 . S
C1629 C1628 1.377 . S
C1629 C1635 1.390 . S
C1630 H1621 0.930 . S
C1630 C1628 1.384 . S
C1630 C1631 1.372 . S
C1631 C1630 1.372 . S
C1631 C1632 1.400 . S
C1631 C1636 1.490 . S
C1632 H1622 0.930 . S
C1632 C1631 1.400 . S
C1632 C1635 1.386 . S
H1633 C1649 0.930 . S
H1634 C1650 0.931 . S
C1635 H1623 0.929 . S
C1635 C1629 1.390 . S
C1635 C1632 1.386 . S
C1636 C1631 1.490 . S
C1636 C1638 1.395 . S
C1636 C1639 1.403 . S
H1637 C1643 0.930 . S
C1638 H1624 0.930 . S
C1638 C1636 1.395 . S
C1638 C1641 1.403 . S
C1639 C1636 1.403 . S
C1639 C1640 1.524 . S
C1639 C1643 1.400 . S
C1640 H1625 0.960 . S
C1640 H1626 0.960 . S
C1640 H1627 0.960 . S
C1640 C1639 1.524 . S
C1641 C1638 1.403 . S
C1641 C1642 1.392 . S
C1641 C1645 1.495 . S
C1642 C1641 1.392 . S
C1642 C1643 1.385 . S
C1642 C1644 1.478 . S
C1643 H1637 0.930 . S
C1643 C1639 1.400 . S
C1643 C1642 1.385 . S
C1644 C1642 1.478 . S
C1644 C1646 1.381 . S
C1644 C1650 1.383 . S
C1645 C1641 1.495 . S
C1645 H1651 0.959 . S
C1645 H1652 0.961 . S
C1645 H1653 0.960 . S
C1646 C1644 1.381 . S
C1646 C1647 1.394 . S
C1646 H1654 0.930 . S
C1647 C1646 1.394 . S
C1647 C1648 1.383 . S
C1647 H1655 0.929 . S
C1648 C1647 1.383 . S
C1648 C1649 1.377 . S
C1649 H1633 0.930 . S
C1649 C1648 1.377 . S
C1649 C1650 1.379 . S
C1650 H1634 0.931 . S
C1650 C1644 1.383 . S
C1650 C1649 1.379 . S
H1651 C1645 0.959 . S
H1652 C1645 0.961 . S
H1653 C1645 0.960 . S
H1654 C1646 0.930 . S
H1655 C1647 0.929 . S
H1656 C1664 0.929 . S
H1657 C1666 0.930 . S
H1658 C1668 0.930 . S
H1659 C1671 0.929 . S
H1660 C1674 0.930 . S
H1661 C1676 0.960 . S
H1662 C1676 0.960 . S
H1663 C1676 0.960 . S
C1664 H1656 0.929 . S
C1664 C1665 1.377 . S
C1664 C1666 1.384 . S
C1665 C1664 1.377 . S
C1665 C1671 1.390 . S
C1666 H1657 0.930 . S
C1666 C1664 1.384 . S
C1666 C1667 1.372 . S
C1667 C1666 1.372 . S
C1667 C1668 1.400 . S
C1667 C1672 1.490 . S
C1668 H1658 0.930 . S
C1668 C1667 1.400 . S
C1668 C1671 1.386 . S
H1669 C1685 0.930 . S
H1670 C1686 0.931 . S
C1671 H1659 0.929 . S
C1671 C1665 1.390 . S
C1671 C1668 1.386 . S
C1672 C1667 1.490 . S
C1672 C1674 1.395 . S
C1672 C1675 1.403 . S
H1673 C1679 0.930 . S
C1674 H1660 0.930 . S
C1674 C1672 1.395 . S
C1674 C1677 1.403 . S
C1675 C1672 1.403 . S
C1675 C1676 1.524 . S
C1675 C1679 1.400 . S
C1676 H1661 0.960 . S
C1676 H1662 0.960 . S
C1676 H1663 0.960 . S
C1676 C1675 1.524 . S
C1677 C1674 1.403 . S
C1677 C1678 1.392 . S
C1677 C1681 1.495 . S
C1678 C1677 1.392 . S
C1678 C1679 1.385 . S
C1678 C1680 1.478 . S
C1679 H1673 0.930 . S
C1679 C1675 1.400 . S
C1679 C1678 1.385 . S
C1680 C1678 1.478 . S
C1680 C1682 1.381 . S
C1680 C1686 1.383 . S
C1681 C1677 1.495 . S
C1681 H1687 0.959 . S
C1681 H1688 0.961 . S
C1681 H1689 0.960 . S
C1682 C1680 1.381 . S
C1682 C1683 1.394 . S
C1682 H1690 0.930 . S
C1683 C1682 1.394 . S
C1683 C1684 1.383 . S
C1683 H1691 0.929 . S
C1684 C1683 1.383 . S
C1684 C1685 1.377 . S
C1685 H1669 0.930 . S
C1685 C1684 1.377 . S
C1685 C1686 1.379 . S
C1686 H1670 0.931 . S
C1686 C1680 1.383 . S
C1686 C1685 1.379 . S
H1687 C1681 0.959 . S
H1688 C1681 0.961 . S
H1689 C1681 0.960 . S
H1690 C1682 0.930 . S
H1691 C1683 0.929 . S
H1692 C1700 0.929 . S
H1693 C1702 0.930 . S
H1694 C1704 0.930 . S
H1695 C1707 0.929 . S
H1696 C1710 0.930 . S
H1697 C1712 0.960 1_655 S
H1698 C1712 0.960 . S
H1699 C1712 0.960 . S
C1700 H1692 0.929 . S
C1700 C1701 1.377 . S
C1700 C1702 1.384 . S
C1701 C1700 1.377 . S
C1701 C1707 1.390 . S
C1702 H1693 0.930 . S
C1702 C1700 1.384 . S
C1702 C1703 1.372 . S
C1703 C1702 1.372 . S
C1703 C1704 1.400 . S
C1703 C1708 1.490 . S
C1704 H1694 0.930 . S
C1704 C1703 1.400 . S
C1704 C1707 1.386 . S
H1705 C1721 0.930 . S
H1706 C1722 0.931 . S
C1707 H1695 0.929 . S
C1707 C1701 1.390 . S
C1707 C1704 1.386 . S
C1708 C1703 1.490 . S
C1708 C1710 1.395 . S
C1708 C1711 1.403 . S
H1709 C1715 0.930 . S
C1710 H1696 0.930 . S
C1710 C1708 1.395 . S
C1710 C1713 1.403 . S
C1711 C1708 1.403 . S
C1711 C1712 1.524 . S
C1711 C1715 1.400 . S
C1712 H1697 0.960 1_455 S
C1712 H1698 0.960 . S
C1712 H1699 0.960 . S
C1712 C1711 1.524 . S
C1713 C1710 1.403 . S
C1713 C1714 1.392 . S
C1713 C1717 1.495 . S
C1714 C1713 1.392 . S
C1714 C1715 1.385 . S
C1714 C1716 1.478 . S
C1715 H1709 0.930 . S
C1715 C1711 1.400 . S
C1715 C1714 1.385 . S
C1716 C1714 1.478 . S
C1716 C1718 1.381 . S
C1716 C1722 1.383 . S
C1717 C1713 1.495 . S
C1717 H1723 0.959 . S
C1717 H1724 0.961 . S
C1717 H1725 0.960 . S
C1718 C1716 1.381 . S
C1718 C1719 1.394 . S
C1718 H1726 0.930 . S
C1719 C1718 1.394 . S
C1719 C1720 1.383 . S
C1719 H1727 0.929 . S
C1720 C1719 1.383 . S
C1720 C1721 1.377 . S
C1721 H1705 0.930 . S
C1721 C1720 1.377 . S
C1721 C1722 1.379 . S
C1722 H1706 0.931 . S
C1722 C1716 1.383 . S
C1722 C1721 1.379 . S
H1723 C1717 0.959 . S
H1724 C1717 0.961 . S
H1725 C1717 0.960 . S
H1726 C1718 0.930 . S
H1727 C1719 0.929 . S
H1728 C1736 0.929 . S
H1729 C1738 0.930 . S
H1730 C1740 0.930 . S
H1731 C1743 0.929 . S
H1732 C1746 0.930 . S
H1733 C1748 0.960 . S
H1734 C1748 0.960 . S
H1735 C1748 0.960 . S
C1736 H1728 0.929 . S
C1736 C1737 1.377 . S
C1736 C1738 1.384 . S
C1737 C1736 1.377 . S
C1737 C1743 1.390 . S
C1738 H1729 0.930 . S
C1738 C1736 1.384 . S
C1738 C1739 1.372 . S
C1739 C1738 1.372 . S
C1739 C1740 1.400 . S
C1739 C1744 1.490 . S
C1740 H1730 0.930 . S
C1740 C1739 1.400 . S
C1740 C1743 1.386 . S
H1741 C1757 0.930 . S
H1742 C1758 0.931 . S
C1743 H1731 0.929 . S
C1743 C1737 1.390 . S
C1743 C1740 1.386 . S
C1744 C1739 1.490 . S
C1744 C1746 1.395 . S
C1744 C1747 1.403 . S
H1745 C1751 0.930 . S
C1746 H1732 0.930 . S
C1746 C1744 1.395 . S
C1746 C1749 1.403 . S
C1747 C1744 1.403 . S
C1747 C1748 1.524 . S
C1747 C1751 1.400 . S
C1748 H1733 0.960 . S
C1748 H1734 0.960 . S
C1748 H1735 0.960 . S
C1748 C1747 1.524 . S
C1749 C1746 1.403 . S
C1749 C1750 1.392 . S
C1749 C1753 1.495 . S
C1750 C1749 1.392 . S
C1750 C1751 1.385 . S
C1750 C1752 1.478 . S
C1751 H1745 0.930 . S
C1751 C1747 1.400 . S
C1751 C1750 1.385 . S
C1752 C1750 1.478 . S
C1752 C1754 1.381 . S
C1752 C1758 1.383 . S
C1753 C1749 1.495 . S
C1753 H1759 0.959 . S
C1753 H1760 0.961 . S
C1753 H1761 0.960 . S
C1754 C1752 1.381 . S
C1754 C1755 1.394 . S
C1754 H1762 0.930 . S
C1755 C1754 1.394 . S
C1755 C1756 1.383 . S
C1755 H1763 0.929 . S
C1756 C1755 1.383 . S
C1756 C1757 1.377 . S
C1757 H1741 0.930 . S
C1757 C1756 1.377 . S
C1757 C1758 1.379 . S
C1758 H1742 0.931 . S
C1758 C1752 1.383 . S
C1758 C1757 1.379 . S
H1759 C1753 0.959 . S
H1760 C1753 0.961 . S
H1761 C1753 0.960 . S
H1762 C1754 0.930 . S
H1763 C1755 0.929 . S
H1764 C1772 0.929 . S
H1765 C1774 0.930 . S
H1766 C1776 0.930 . S
H1767 C1779 0.929 . S
H1768 C1782 0.930 . S
H1769 C1784 0.960 . S
H1770 C1784 0.960 . S
H1771 C1784 0.960 . S
C1772 H1764 0.929 . S
C1772 C1773 1.377 . S
C1772 C1774 1.384 . S
C1773 C1772 1.377 . S
C1773 C1779 1.390 . S
C1774 H1765 0.930 . S
C1774 C1772 1.384 . S
C1774 C1775 1.372 . S
C1775 C1774 1.372 . S
C1775 C1776 1.400 . S
C1775 C1780 1.490 . S
C1776 H1766 0.930 . S
C1776 C1775 1.400 . S
C1776 C1779 1.386 . S
H1777 C1793 0.930 . S
H1778 C1794 0.931 . S
C1779 H1767 0.929 . S
C1779 C1773 1.390 . S
C1779 C1776 1.386 . S
C1780 C1775 1.490 . S
C1780 C1782 1.395 . S
C1780 C1783 1.403 . S
H1781 C1787 0.930 . S
C1782 H1768 0.930 . S
C1782 C1780 1.395 . S
C1782 C1785 1.403 . S
C1783 C1780 1.403 . S
C1783 C1784 1.524 . S
C1783 C1787 1.400 . S
C1784 H1769 0.960 . S
C1784 H1770 0.960 . S
C1784 H1771 0.960 . S
C1784 C1783 1.524 . S
C1785 C1782 1.403 . S
C1785 C1786 1.392 . S
C1785 C1789 1.495 . S
C1786 C1785 1.392 . S
C1786 C1787 1.385 . S
C1786 C1788 1.478 . S
C1787 H1781 0.930 . S
C1787 C1783 1.400 . S
C1787 C1786 1.385 . S
C1788 C1786 1.478 . S
C1788 C1790 1.381 . S
C1788 C1794 1.383 . S
C1789 C1785 1.495 . S
C1789 H1795 0.959 . S
C1789 H1796 0.961 . S
C1789 H1797 0.960 1_565 S
C1790 C1788 1.381 . S
C1790 C1791 1.398 . S
C1790 H1798 0.930 1_565 S
C1791 C1790 1.398 . S
C1791 C1792 1.394 . S
C1791 H1799 0.914 1_565 S
C1792 C1791 1.394 . S
C1792 C1793 1.377 . S
C1793 H1777 0.930 . S
C1793 C1792 1.377 . S
C1793 C1794 1.379 . S
C1794 H1778 0.931 . S
C1794 C1788 1.383 . S
C1794 C1793 1.379 . S
H1795 C1789 0.959 . S
H1796 C1789 0.961 . S
H1797 C1789 0.960 1_545 S
H1798 C1790 0.930 1_545 S
H1799 C1791 0.914 1_545 S
H1800 C1808 0.929 . S
H1801 C1810 0.930 . S
H1802 C1812 0.930 . S
H1803 C1815 0.929 . S
H1804 C1818 0.930 . S
H1805 C1820 0.960 . S
H1806 C1820 0.960 . S
H1807 C1820 0.960 . S
C1808 H1800 0.929 . S
C1808 C1809 1.377 . S
C1808 C1810 1.384 1_556 S
C1809 C1808 1.377 . S
C1809 C1815 1.390 1_556 S
C1810 H1801 0.930 . S
C1810 C1808 1.384 1_554 S
C1810 C1811 1.372 . S
C1811 C1810 1.372 . S
C1811 C1812 1.400 . S
C1811 C1816 1.490 . S
C1812 H1802 0.930 . S
C1812 C1811 1.400 . S
C1812 C1815 1.386 . S
H1813 C1829 0.930 . S
H1814 C1830 0.931 . S
C1815 H1803 0.929 . S
C1815 C1809 1.390 1_554 S
C1815 C1812 1.386 . S
C1816 C1811 1.490 . S
C1816 C1818 1.395 . S
C1816 C1819 1.403 . S
H1817 C1823 0.930 . S
C1818 H1804 0.930 . S
C1818 C1816 1.395 . S
C1818 C1821 1.403 . S
C1819 C1816 1.403 . S
C1819 C1820 1.524 . S
C1819 C1823 1.400 . S
C1820 H1805 0.960 . S
C1820 H1806 0.960 . S
C1820 H1807 0.960 . S
C1820 C1819 1.524 . S
C1821 C1818 1.403 . S
C1821 C1822 1.392 . S
C1821 C1825 1.495 1_545 S
C1822 C1821 1.392 . S
C1822 C1823 1.385 . S
C1822 C1824 1.478 . S
C1823 H1817 0.930 . S
C1823 C1819 1.400 . S
C1823 C1822 1.385 . S
C1824 C1822 1.478 . S
C1824 C1826 1.381 . S
C1824 C1830 1.383 . S
C1825 C1821 1.495 1_565 S
C1825 H1831 0.959 . S
C1825 H1832 0.961 . S
C1825 H1833 0.960 . S
C1826 C1824 1.381 . S
C1826 C1827 1.394 . S
C1826 H1834 0.930 . S
C1827 C1826 1.394 . S
C1827 C1828 1.383 . S
C1827 H1835 0.929 . S
C1828 C1827 1.383 . S
C1828 C1829 1.377 . S
C1829 H1813 0.930 . S
C1829 C1828 1.377 . S
C1829 C1830 1.379 . S
C1830 H1814 0.931 . S
C1830 C1824 1.383 . S
C1830 C1829 1.379 . S
H1831 C1825 0.959 . S
H1832 C1825 0.961 . S
H1833 C1825 0.960 . S
H1834 C1826 0.930 . S
H1835 C1827 0.929 . S
H1836 C1844 0.929 1_455 S
H1837 C1846 0.930 . S
H1838 C1848 0.930 . S
H1839 C1851 0.929 . S
H1840 C1854 0.930 1_455 S
H1841 C1856 0.960 . S
H1842 C1856 0.960 . S
H1843 C1856 0.960 . S
C1844 H1836 0.929 1_655 S
C1844 C1845 1.377 . S
C1844 C1846 1.384 . S
C1845 C1844 1.377 . S
C1845 C1851 1.390 . S
C1846 H1837 0.930 . S
C1846 C1844 1.384 . S
C1846 C1847 1.372 . S
C1847 C1846 1.372 . S
C1847 C1848 1.400 . S
C1847 C1852 1.490 . S
C1848 H1838 0.930 . S
C1848 C1847 1.400 . S
C1848 C1851 1.386 . S
H1849 C1865 0.930 . S
H1850 C1866 0.931 . S
C1851 H1839 0.929 . S
C1851 C1845 1.390 . S
C1851 C1848 1.386 . S
C1852 C1847 1.490 . S
C1852 C1854 1.395 . S
C1852 C1855 1.403 . S
H1853 C1859 0.930 . S
C1854 H1840 0.930 1_655 S
C1854 C1852 1.395 . S
C1854 C1857 1.403 . S
C1855 C1852 1.403 . S
C1855 C1856 1.524 . S
C1855 C1859 1.400 . S
C1856 H1841 0.960 . S
C1856 H1842 0.960 . S
C1856 H1843 0.960 . S
C1856 C1855 1.524 . S
C1857 C1854 1.403 . S
C1857 C1858 1.392 . S
C1857 C1861 1.495 1_655 S
C1858 C1857 1.392 . S
C1858 C1859 1.385 . S
C1858 C1860 1.478 . S
C1859 H1853 0.930 . S
C1859 C1855 1.400 . S
C1859 C1858 1.385 . S
C1860 C1858 1.478 . S
C1860 C1862 1.381 . S
C1860 C1866 1.383 . S
C1861 C1857 1.495 1_455 S
C1861 H1867 0.959 . S
C1861 H1868 0.961 . S
C1861 H1869 0.960 . S
C1862 C1860 1.381 . S
C1862 C1863 1.404 . S
C1862 H1870 0.930 . S
C1863 C1862 1.404 . S
C1863 C1864 1.378 1_554 S
C1863 H1871 0.925 1_554 S
C1864 C1863 1.378 1_556 S
C1864 C1865 1.377 . S
C1865 H1849 0.930 . S
C1865 C1864 1.377 . S
C1865 C1866 1.379 1_556 S
C1866 H1850 0.931 . S
C1866 C1860 1.383 . S
C1866 C1865 1.379 1_554 S
H1867 C1861 0.959 . S
H1868 C1861 0.961 . S
H1869 C1861 0.960 . S
H1870 C1862 0.930 . S
H1871 C1863 0.925 1_556 S
H1872 C1880 0.929 . S
H1873 C1882 0.930 . S
H1874 C1884 0.930 . S
H1875 C1887 0.929 . S
H1876 C1890 0.930 . S
H1877 C1892 0.960 . S
H1878 C1892 0.960 . S
H1879 C1892 0.960 . S
C1880 H1872 0.929 . S
C1880 C1881 1.377 . S
C1880 C1882 1.384 . S
C1881 C1880 1.377 . S
C1881 C1887 1.390 . S
C1882 H1873 0.930 . S
C1882 C1880 1.384 . S
C1882 C1883 1.372 . S
C1883 C1882 1.372 . S
C1883 C1884 1.400 . S
C1883 C1888 1.490 . S
C1884 H1874 0.930 . S
C1884 C1883 1.400 . S
C1884 C1887 1.386 . S
H1885 C1901 0.930 . S
H1886 C1902 0.931 . S
C1887 H1875 0.929 . S
C1887 C1881 1.390 . S
C1887 C1884 1.386 . S
C1888 C1883 1.490 . S
C1888 C1890 1.395 . S
C1888 C1891 1.403 . S
H1889 C1895 0.930 . S
C1890 H1876 0.930 . S
C1890 C1888 1.395 . S
C1890 C1893 1.403 . S
C1891 C1888 1.403 . S
C1891 C1892 1.524 . S
C1891 C1895 1.400 . S
C1892 H1877 0.960 . S
C1892 H1878 0.960 . S
C1892 H1879 0.960 . S
C1892 C1891 1.524 . S
C1893 C1890 1.403 . S
C1893 C1894 1.392 . S
C1893 C1897 1.495 . S
C1894 C1893 1.392 . S
C1894 C1895 1.385 . S
C1894 C1896 1.478 . S
C1895 H1889 0.930 . S
C1895 C1891 1.400 . S
C1895 C1894 1.385 . S
C1896 C1894 1.478 . S
C1896 C1898 1.381 . S
C1896 C1902 1.383 . S
C1897 C1893 1.495 . S
C1897 H1903 0.959 . S
C1897 H1904 0.961 . S
C1897 H1905 0.960 . S
C1898 C1896 1.381 . S
C1898 C1899 1.394 . S
C1898 H1906 0.930 . S
C1899 C1898 1.394 . S
C1899 C1900 1.383 1_554 S
C1899 H1907 0.929 . S
C1900 C1899 1.383 1_556 S
C1900 C1901 1.377 . S
C1901 H1885 0.930 . S
C1901 C1900 1.377 . S
C1901 C1902 1.379 1_556 S
C1902 H1886 0.931 . S
C1902 C1896 1.383 . S
C1902 C1901 1.379 1_554 S
H1903 C1897 0.959 . S
H1904 C1897 0.961 . S
H1905 C1897 0.960 . S
H1906 C1898 0.930 . S
H1907 C1899 0.929 . S
H1908 C1916 0.929 . S
H1909 C1918 0.930 . S
H1910 C1920 0.930 . S
H1911 C1923 0.929 . S
H1912 C1926 0.930 . S
H1913 C1928 0.960 . S
H1914 C1928 0.960 . S
H1915 C1928 0.960 . S
C1916 H1908 0.929 . S
C1916 C1917 1.377 . S
C1916 C1918 1.384 . S
C1917 C1916 1.377 . S
C1917 C1923 1.390 . S
C1918 H1909 0.930 . S
C1918 C1916 1.384 . S
C1918 C1919 1.372 . S
C1919 C1918 1.372 . S
C1919 C1920 1.400 . S
C1919 C1924 1.490 . S
C1920 H1910 0.930 . S
C1920 C1919 1.400 . S
C1920 C1923 1.386 . S
H1921 C1937 0.930 . S
H1922 C1938 0.931 . S
C1923 H1911 0.929 . S
C1923 C1917 1.390 . S
C1923 C1920 1.386 . S
C1924 C1919 1.490 . S
C1924 C1926 1.395 . S
C1924 C1927 1.403 . S
H1925 C1931 0.930 . S
C1926 H1912 0.930 . S
C1926 C1924 1.395 . S
C1926 C1929 1.403 . S
C1927 C1924 1.403 . S
C1927 C1928 1.524 1_655 S
C1927 C1931 1.400 . S
C1928 H1913 0.960 . S
C1928 H1914 0.960 . S
C1928 H1915 0.960 . S
C1928 C1927 1.524 1_455 S
C1929 C1926 1.403 . S
C1929 C1930 1.392 . S
C1929 C1933 1.495 . S
C1930 C1929 1.392 . S
C1930 C1931 1.385 . S
C1930 C1932 1.478 . S
C1931 H1925 0.930 . S
C1931 C1927 1.400 . S
C1931 C1930 1.385 . S
C1932 C1930 1.478 . S
C1932 C1934 1.381 . S
C1932 C1938 1.383 . S
C1933 C1929 1.495 . S
C1933 H1939 0.959 . S
C1933 H1940 0.961 . S
C1933 H1941 0.960 . S
C1934 C1932 1.381 . S
C1934 C1935 1.394 . S
C1934 H1942 0.930 . S
C1935 C1934 1.394 . S
C1935 C1936 1.383 . S
C1935 H1943 0.929 . S
C1936 C1935 1.383 . S
C1936 C1937 1.377 . S
C1937 H1921 0.930 . S
C1937 C1936 1.377 . S
C1937 C1938 1.379 . S
C1938 H1922 0.931 . S
C1938 C1932 1.383 . S
C1938 C1937 1.379 . S
H1939 C1933 0.959 . S
H1940 C1933 0.961 . S
H1941 C1933 0.960 . S
H1942 C1934 0.930 . S
H1943 C1935 0.929 . S
H1944 C1952 0.929 . S
H1945 C1954 0.930 . S
H1946 C1956 0.930 . S
H1947 C1959 0.929 . S
H1948 C1962 0.930 . S
H1949 C1964 0.960 . S
H1950 C1964 0.960 . S
H1951 C1964 0.960 . S
C1952 H1944 0.929 . S
C1952 C1953 1.377 . S
C1952 C1954 1.384 . S
C1953 C1952 1.377 . S
C1953 C1959 1.390 . S
C1954 H1945 0.930 . S
C1954 C1952 1.384 . S
C1954 C1955 1.372 . S
C1955 C1954 1.372 . S
C1955 C1956 1.400 . S
C1955 C1960 1.490 . S
C1956 H1946 0.930 . S
C1956 C1955 1.400 . S
C1956 C1959 1.386 . S
H1957 C1973 0.930 . S
H1958 C1974 0.931 . S
C1959 H1947 0.929 . S
C1959 C1953 1.390 . S
C1959 C1956 1.386 . S
C1960 C1955 1.490 . S
C1960 C1962 1.395 . S
C1960 C1963 1.403 . S
H1961 C1967 0.930 . S
C1962 H1948 0.930 . S
C1962 C1960 1.395 . S
C1962 C1965 1.403 . S
C1963 C1960 1.403 . S
C1963 C1964 1.524 . S
C1963 C1967 1.400 . S
C1964 H1949 0.960 . S
C1964 H1950 0.960 . S
C1964 H1951 0.960 . S
C1964 C1963 1.524 . S
C1965 C1962 1.403 . S
C1965 C1966 1.392 . S
C1965 C1969 1.495 . S
C1966 C1965 1.392 . S
C1966 C1967 1.385 . S
C1966 C1968 1.478 . S
C1967 H1961 0.930 . S
C1967 C1963 1.400 . S
C1967 C1966 1.385 . S
C1968 C1966 1.478 . S
C1968 C1970 1.381 . S
C1968 C1974 1.383 . S
C1969 C1965 1.495 . S
C1969 H1975 0.959 . S
C1969 H1976 0.961 . S
C1969 H1977 0.960 . S
C1970 C1968 1.381 . S
C1970 C1971 1.394 . S
C1970 H1978 0.930 . S
C1971 C1970 1.394 . S
C1971 C1972 1.383 . S
C1971 H1979 0.929 . S
C1972 C1971 1.383 . S
C1972 C1973 1.377 . S
C1973 H1957 0.930 . S
C1973 C1972 1.377 . S
C1973 C1974 1.379 . S
C1974 H1958 0.931 . S
C1974 C1968 1.383 . S
C1974 C1973 1.379 . S
H1975 C1969 0.959 . S
H1976 C1969 0.961 . S
H1977 C1969 0.960 . S
H1978 C1970 0.930 . S
H1979 C1971 0.929 . S
H1980 C1988 0.929 . S
H1981 C1990 0.930 . S
H1982 C1992 0.930 . S
H1983 C1995 0.929 . S
H1984 C1998 0.930 . S
H1985 C2000 0.960 . S
H1986 C2000 0.960 . S
H1987 C2000 0.960 . S
C1988 H1980 0.929 . S
C1988 C1989 1.377 . S
C1988 C1990 1.384 . S
C1989 C1988 1.377 . S
C1989 C1995 1.390 . S
C1990 H1981 0.930 . S
C1990 C1988 1.384 . S
C1990 C1991 1.372 . S
C1991 C1990 1.372 . S
C1991 C1992 1.400 . S
C1991 C1996 1.490 . S
C1992 H1982 0.930 . S
C1992 C1991 1.400 . S
C1992 C1995 1.386 . S
H1993 C2009 0.930 . S
H1994 C2010 0.931 . S
C1995 H1983 0.929 . S
C1995 C1989 1.390 . S
C1995 C1992 1.386 . S
C1996 C1991 1.490 . S
C1996 C1998 1.395 . S
C1996 C1999 1.403 . S
H1997 C2003 0.930 . S
C1998 H1984 0.930 . S
C1998 C1996 1.395 . S
C1998 C2001 1.403 . S
C1999 C1996 1.403 . S
C1999 C2000 1.524 . S
C1999 C2003 1.400 . S
C2000 H1985 0.960 . S
C2000 H1986 0.960 . S
C2000 H1987 0.960 . S
C2000 C1999 1.524 . S
C2001 C1998 1.403 . S
C2001 C2002 1.392 . S
C2001 C2005 1.495 . S
C2002 C2001 1.392 . S
C2002 C2003 1.385 . S
C2002 C2004 1.478 . S
C2003 H1997 0.930 . S
C2003 C1999 1.400 . S
C2003 C2002 1.385 . S
C2004 C2002 1.478 . S
C2004 C2006 1.381 . S
C2004 C2010 1.383 . S
C2005 C2001 1.495 . S
C2005 H2011 0.959 1_545 S
C2005 H2012 0.961 . S
C2005 H2013 0.960 1_545 S
C2006 C2004 1.381 . S
C2006 C2007 1.394 . S
C2006 H2014 0.930 . S
C2007 C2006 1.394 . S
C2007 C2008 1.383 . S
C2007 H2015 0.929 . S
C2008 C2007 1.383 . S
C2008 C2009 1.377 . S
C2009 H1993 0.930 . S
C2009 C2008 1.377 . S
C2009 C2010 1.379 . S
C2010 H1994 0.931 . S
C2010 C2004 1.383 . S
C2010 C2009 1.379 . S
H2011 C2005 0.959 1_565 S
H2012 C2005 0.961 . S
H2013 C2005 0.960 1_565 S
H2014 C2006 0.930 . S
H2015 C2007 0.929 . S
H2016 C2024 0.929 1_545 S
H2017 C2026 0.930 1_545 S
H2018 C2028 0.930 . S
H2019 C2031 0.929 . S
H2020 C2034 0.930 . S
H2021 C2036 0.960 . S
H2022 C2036 0.960 . S
H2023 C2036 0.960 . S
C2024 H2016 0.929 1_565 S
C2024 C2025 1.377 . S
C2024 C2026 1.384 . S
C2025 C2024 1.377 . S
C2025 C2031 1.390 . S
C2026 H2017 0.930 1_565 S
C2026 C2024 1.384 . S
C2026 C2027 1.372 . S
C2027 C2026 1.372 . S
C2027 C2028 1.400 . S
C2027 C2032 1.490 . S
C2028 H2018 0.930 . S
C2028 C2027 1.400 . S
C2028 C2031 1.386 . S
H2029 C2045 0.923 1_554 S
H2030 C2046 0.931 . S
C2031 H2019 0.929 . S
C2031 C2025 1.390 . S
C2031 C2028 1.386 . S
C2032 C2027 1.490 . S
C2032 C2034 1.395 . S
C2032 C2035 1.403 . S
H2033 C2039 0.930 . S
C2034 H2020 0.930 . S
C2034 C2032 1.395 . S
C2034 C2037 1.403 . S
C2035 C2032 1.403 . S
C2035 C2036 1.524 . S
C2035 C2039 1.400 . S
C2036 H2021 0.960 . S
C2036 H2022 0.960 . S
C2036 H2023 0.960 . S
C2036 C2035 1.524 . S
C2037 C2034 1.403 . S
C2037 C2038 1.392 . S
C2037 C2041 1.495 . S
C2038 C2037 1.392 . S
C2038 C2039 1.385 . S
C2038 C2040 1.478 . S
C2039 H2033 0.930 . S
C2039 C2035 1.400 . S
C2039 C2038 1.385 . S
C2040 C2038 1.478 . S
C2040 C2042 1.381 . S
C2040 C2046 1.383 . S
C2041 C2037 1.495 . S
C2041 H2047 0.959 1_565 S
C2041 H2048 0.961 . S
C2041 H2049 0.960 1_565 S
C2042 C2040 1.381 . S
C2042 C2043 1.394 1_556 S
C2042 H2050 0.930 . S
C2043 C2042 1.394 1_554 S
C2043 C2044 1.383 . S
C2043 H2051 0.929 . S
C2044 C2043 1.383 . S
C2044 C2045 1.377 1_554 S
C2045 H2029 0.923 1_556 S
C2045 C2044 1.377 1_556 S
C2045 C2046 1.379 . S
C2046 H2030 0.931 . S
C2046 C2040 1.383 . S
C2046 C2045 1.379 . S
H2047 C2041 0.959 1_545 S
H2048 C2041 0.961 . S
H2049 C2041 0.960 1_545 S
H2050 C2042 0.930 . S
H2051 C2043 0.929 . S
H2052 C2060 0.929 . S
H2053 C2062 0.930 . S
H2054 C2064 0.930 . S
H2055 C2067 0.926 1_554 S
H2056 C2070 0.930 . S
H2057 C2072 0.960 1_655 S
H2058 C2072 0.960 . S
H2059 C2072 0.960 . S
C2060 H2052 0.929 . S
C2060 C2061 1.377 . S
C2060 C2062 1.384 1_554 S
C2061 C2060 1.377 . S
C2061 C2067 1.385 1_554 S
C2062 H2053 0.930 . S
C2062 C2060 1.384 1_556 S
C2062 C2063 1.372 . S
C2063 C2062 1.372 . S
C2063 C2064 1.400 . S
C2063 C2068 1.490 . S
C2064 H2054 0.930 . S
C2064 C2063 1.400 . S
C2064 C2067 1.394 . S
H2065 C2081 0.930 . S
H2066 C2082 0.931 . S
C2067 H2055 0.926 1_556 S
C2067 C2061 1.385 1_556 S
C2067 C2064 1.394 . S
C2068 C2063 1.490 . S
C2068 C2070 1.395 . S
C2068 C2071 1.403 . S
H2069 C2075 0.930 . S
C2070 H2056 0.930 . S
C2070 C2068 1.395 . S
C2070 C2073 1.403 . S
C2071 C2068 1.403 . S
C2071 C2072 1.524 . S
C2071 C2075 1.400 . S
C2072 H2057 0.960 1_455 S
C2072 H2058 0.960 . S
C2072 H2059 0.960 . S
C2072 C2071 1.524 . S
C2073 C2070 1.403 . S
C2073 C2074 1.392 . S
C2073 C2077 1.495 . S
C2074 C2073 1.392 . S
C2074 C2075 1.385 . S
C2074 C2076 1.478 . S
C2075 H2069 0.930 . S
C2075 C2071 1.400 . S
C2075 C2074 1.385 . S
C2076 C2074 1.478 . S
C2076 C2078 1.381 . S
C2076 C2082 1.383 . S
C2077 C2073 1.495 . S
C2077 H2083 0.959 . S
C2077 H2084 0.961 . S
C2077 H2085 0.960 . S
C2078 C2076 1.381 . S
C2078 C2079 1.394 . S
C2078 H2086 0.930 . S
C2079 C2078 1.394 . S
C2079 C2080 1.383 . S
C2079 H2087 0.929 . S
C2080 C2079 1.383 . S
C2080 C2081 1.377 . S
C2081 H2065 0.930 . S
C2081 C2080 1.377 . S
C2081 C2082 1.379 . S
C2082 H2066 0.931 . S
C2082 C2076 1.383 . S
C2082 C2081 1.379 . S
H2083 C2077 0.959 . S
H2084 C2077 0.961 . S
H2085 C2077 0.960 . S
H2086 C2078 0.930 . S
H2087 C2079 0.929 . S
H2088 C2096 0.929 . S
H2089 C2098 0.930 . S
H2090 C2100 0.930 . S
H2091 C2103 0.929 . S
H2092 C2106 0.930 . S
H2093 C2108 0.960 . S
H2094 C2108 0.960 . S
H2095 C2108 0.960 . S
C2096 H2088 0.929 . S
C2096 C2097 1.377 . S
C2096 C2098 1.384 . S
C2097 C2096 1.377 . S
C2097 C2103 1.390 . S
C2098 H2089 0.930 . S
C2098 C2096 1.384 . S
C2098 C2099 1.372 . S
C2099 C2098 1.372 . S
C2099 C2100 1.400 . S
C2099 C2104 1.490 . S
C2100 H2090 0.930 . S
C2100 C2099 1.400 . S
C2100 C2103 1.386 . S
H2101 C2117 0.935 . S
H2102 C2118 0.931 . S
C2103 H2091 0.929 . S
C2103 C2097 1.390 . S
C2103 C2100 1.386 . S
C2104 C2099 1.490 . S
C2104 C2106 1.395 . S
C2104 C2107 1.403 . S
H2105 C2111 0.930 . S
C2106 H2092 0.930 . S
C2106 C2104 1.395 . S
C2106 C2109 1.403 . S
C2107 C2104 1.403 . S
C2107 C2108 1.524 . S
C2107 C2111 1.400 . S
C2108 H2093 0.960 . S
C2108 H2094 0.960 . S
C2108 H2095 0.960 . S
C2108 C2107 1.524 . S
C2109 C2106 1.403 . S
C2109 C2110 1.392 . S
C2109 C2113 1.495 . S
C2110 C2109 1.392 . S
C2110 C2111 1.385 . S
C2110 C2112 1.478 . S
C2111 H2105 0.930 . S
C2111 C2107 1.400 . S
C2111 C2110 1.385 . S
C2112 C2110 1.478 . S
C2112 C2114 1.381 . S
C2112 C2118 1.383 . S
C2113 C2109 1.495 . S
C2113 H2119 0.959 . S
C2113 H2120 0.961 . S
C2113 H2121 0.960 . S
C2114 C2112 1.381 . S
C2114 C2115 1.394 1_556 S
C2114 H2122 0.930 . S
C2115 C2114 1.394 1_554 S
C2115 C2116 1.383 . S
C2115 H2123 0.929 . S
C2116 C2115 1.383 . S
C2116 C2117 1.377 1_554 S
C2117 H2101 0.935 . S
C2117 C2116 1.377 1_556 S
C2117 C2118 1.379 . S
C2118 H2102 0.931 . S
C2118 C2112 1.383 . S
C2118 C2117 1.379 . S
H2119 C2113 0.959 . S
H2120 C2113 0.961 . S
H2121 C2113 0.960 . S
H2122 C2114 0.930 . S
H2123 C2115 0.929 . S
H2124 C2132 0.929 . S
H2125 C2134 0.930 . S
H2126 C2136 0.930 . S
H2127 C2139 0.967 . S
H2128 C2142 0.930 . S
H2129 C2144 0.960 . S
H2130 C2144 0.960 1_565 S
H2131 C2144 0.960 . S
C2132 H2124 0.929 . S
C2132 C2133 1.377 . S
C2132 C2134 1.384 . S
C2133 C2132 1.377 . S
C2133 C2139 1.342 1_565 S
C2134 H2125 0.930 . S
C2134 C2132 1.384 . S
C2134 C2135 1.372 . S
C2135 C2134 1.372 . S
C2135 C2136 1.400 1_565 S
C2135 C2140 1.490 . S
C2136 H2126 0.930 . S
C2136 C2135 1.400 1_545 S
C2136 C2139 1.397 . S
H2137 C2153 0.930 . S
H2138 C2154 0.931 . S
C2139 H2127 0.967 . S
C2139 C2133 1.342 1_545 S
C2139 C2136 1.397 . S
C2140 C2135 1.490 . S
C2140 C2142 1.395 . S
C2140 C2143 1.403 1_565 S
H2141 C2147 0.930 . S
C2142 H2128 0.930 . S
C2142 C2140 1.395 . S
C2142 C2145 1.403 1_565 S
C2143 C2140 1.403 1_545 S
C2143 C2144 1.524 . S
C2143 C2147 1.400 . S
C2144 H2129 0.960 . S
C2144 H2130 0.960 1_545 S
C2144 H2131 0.960 . S
C2144 C2143 1.524 . S
C2145 C2142 1.403 1_545 S
C2145 C2146 1.392 . S
C2145 C2149 1.495 . S
C2146 C2145 1.392 . S
C2146 C2147 1.385 . S
C2146 C2148 1.478 . S
C2147 H2141 0.930 . S
C2147 C2143 1.400 . S
C2147 C2146 1.385 . S
C2148 C2146 1.478 . S
C2148 C2150 1.381 . S
C2148 C2154 1.383 . S
C2149 C2145 1.495 . S
C2149 H2155 0.959 1_545 S
C2149 H2156 0.961 . S
C2149 H2157 0.960 1_545 S
C2150 C2148 1.381 . S
C2150 C2151 1.394 . S
C2150 H2158 0.930 1_545 S
C2151 C2150 1.394 . S
C2151 C2152 1.383 . S
C2151 H2159 0.929 1_545 S
C2152 C2151 1.383 . S
C2152 C2153 1.377 . S
C2153 H2137 0.930 . S
C2153 C2152 1.377 . S
C2153 C2154 1.379 . S
C2154 H2138 0.931 . S
C2154 C2148 1.383 . S
C2154 C2153 1.379 . S
H2155 C2149 0.959 1_565 S
H2156 C2149 0.961 . S
H2157 C2149 0.960 1_565 S
H2158 C2150 0.930 1_565 S
H2159 C2151 0.929 1_565 S
H2160 C2168 0.929 . S
H2161 C2170 0.930 . S
H2162 C2172 0.930 . S
H2163 C2175 0.929 . S
H2164 C2178 0.930 . S
H2165 C2180 0.960 . S
H2166 C2180 0.960 . S
H2167 C2180 0.960 . S
C2168 H2160 0.929 . S
C2168 C2169 1.377 . S
C2168 C2170 1.384 . S
C2169 C2168 1.377 . S
C2169 C2175 1.390 . S
C2170 H2161 0.930 . S
C2170 C2168 1.384 . S
C2170 C2171 1.372 . S
C2171 C2170 1.372 . S
C2171 C2172 1.400 . S
C2171 C2176 1.490 . S
C2172 H2162 0.930 . S
C2172 C2171 1.400 . S
C2172 C2175 1.386 . S
H2173 C2189 0.930 . S
H2174 C2190 0.931 1_455 S
C2175 H2163 0.929 . S
C2175 C2169 1.390 . S
C2175 C2172 1.386 . S
C2176 C2171 1.490 . S
C2176 C2178 1.395 1_455 S
C2176 C2179 1.403 . S
H2177 C2183 0.930 . S
C2178 H2164 0.930 . S
C2178 C2176 1.395 1_655 S
C2178 C2181 1.403 . S
C2179 C2176 1.403 . S
C2179 C2180 1.524 . S
C2179 C2183 1.400 . S
C2180 H2165 0.960 . S
C2180 H2166 0.960 . S
C2180 H2167 0.960 . S
C2180 C2179 1.524 . S
C2181 C2178 1.403 . S
C2181 C2182 1.392 . S
C2181 C2185 1.495 . S
C2182 C2181 1.392 . S
C2182 C2183 1.385 1_655 S
C2182 C2184 1.478 . S
C2183 H2177 0.930 . S
C2183 C2179 1.400 . S
C2183 C2182 1.385 1_455 S
C2184 C2182 1.478 . S
C2184 C2186 1.381 . S
C2184 C2190 1.383 . S
C2185 C2181 1.495 . S
C2185 H2191 0.959 . S
C2185 H2192 0.961 . S
C2185 H2193 0.960 . S
C2186 C2184 1.381 . S
C2186 C2187 1.394 . S
C2186 H2194 0.930 . S
C2187 C2186 1.394 . S
C2187 C2188 1.383 . S
C2187 H2195 0.929 . S
C2188 C2187 1.383 . S
C2188 C2189 1.377 . S
C2189 H2173 0.930 . S
C2189 C2188 1.377 . S
C2189 C2190 1.379 . S
C2190 H2174 0.931 1_655 S
C2190 C2184 1.383 . S
C2190 C2189 1.379 . S
H2191 C2185 0.959 . S
H2192 C2185 0.961 . S
H2193 C2185 0.960 . S
H2194 C2186 0.930 . S
H2195 C2187 0.929 . S
H2196 C2204 0.929 . S
H2197 C2206 0.930 . S
H2198 C2208 0.930 . S
H2199 C2211 0.929 . S
H2200 C2214 0.930 . S
H2201 C2216 0.960 . S
H2202 C2216 0.960 . S
H2203 C2216 0.960 . S
C2204 H2196 0.929 . S
C2204 C2205 1.377 . S
C2204 C2206 1.384 . S
C2205 C2204 1.377 . S
C2205 C2211 1.390 . S
C2206 H2197 0.930 . S
C2206 C2204 1.384 . S
C2206 C2207 1.372 . S
C2207 C2206 1.372 . S
C2207 C2208 1.400 . S
C2207 C2212 1.490 . S
C2208 H2198 0.930 . S
C2208 C2207 1.400 . S
C2208 C2211 1.386 . S
H2209 C2225 0.930 . S
H2210 C2226 0.931 . S
C2211 H2199 0.929 . S
C2211 C2205 1.390 . S
C2211 C2208 1.386 . S
C2212 C2207 1.490 . S
C2212 C2214 1.395 . S
C2212 C2215 1.403 . S
H2213 C2219 0.930 . S
C2214 H2200 0.930 . S
C2214 C2212 1.395 . S
C2214 C2217 1.403 . S
C2215 C2212 1.403 . S
C2215 C2216 1.524 . S
C2215 C2219 1.400 . S
C2216 H2201 0.960 . S
C2216 H2202 0.960 . S
C2216 H2203 0.960 . S
C2216 C2215 1.524 . S
C2217 C2214 1.403 . S
C2217 C2218 1.392 . S
C2217 C2221 1.495 . S
C2218 C2217 1.392 . S
C2218 C2219 1.385 . S
C2218 C2220 1.478 . S
C2219 H2213 0.930 . S
C2219 C2215 1.400 . S
C2219 C2218 1.385 . S
C2220 C2218 1.478 . S
C2220 C2222 1.381 . S
C2220 C2226 1.383 . S
C2221 C2217 1.495 . S
C2221 H2227 0.959 . S
C2221 H2228 0.961 . S
C2221 H2229 0.960 . S
C2222 C2220 1.381 . S
C2222 C2223 1.394 . S
C2222 H2230 0.930 . S
C2223 C2222 1.394 . S
C2223 C2224 1.383 . S
C2223 H2231 0.929 . S
C2224 C2223 1.383 . S
C2224 C2225 1.377 . S
C2225 H2209 0.930 . S
C2225 C2224 1.377 . S
C2225 C2226 1.379 . S
C2226 H2210 0.931 . S
C2226 C2220 1.383 . S
C2226 C2225 1.379 . S
H2227 C2221 0.959 . S
H2228 C2221 0.961 . S
H2229 C2221 0.960 . S
H2230 C2222 0.930 . S
H2231 C2223 0.929 . S
H2232 C2240 0.929 . S
H2233 C2242 0.930 . S
H2234 C2244 0.930 1_655 S
H2235 C2247 0.942 . S
H2236 C2250 0.930 . S
H2237 C2252 0.960 . S
H2238 C2252 0.960 . S
H2239 C2252 0.960 1_655 S
C2240 H2232 0.929 . S
C2240 C2241 1.377 . S
C2240 C2242 1.384 . S
C2241 C2240 1.377 . S
C2241 C2247 1.390 . S
C2242 H2233 0.930 . S
C2242 C2240 1.384 . S
C2242 C2243 1.372 . S
C2243 C2242 1.372 . S
C2243 C2244 1.400 . S
C2243 C2248 1.490 . S
C2244 H2234 0.930 1_455 S
C2244 C2243 1.400 . S
C2244 C2247 1.386 . S
H2245 C2261 0.930 . S
H2246 C2262 0.931 . S
C2247 H2235 0.942 . S
C2247 C2241 1.390 . S
C2247 C2244 1.386 . S
C2248 C2243 1.490 . S
C2248 C2250 1.395 . S
C2248 C2251 1.403 . S
H2249 C2255 0.930 1_655 S
C2250 H2236 0.930 . S
C2250 C2248 1.395 . S
C2250 C2253 1.403 . S
C2251 C2248 1.403 . S
C2251 C2252 1.524 . S
C2251 C2255 1.400 . S
C2252 H2237 0.960 . S
C2252 H2238 0.960 . S
C2252 H2239 0.960 1_455 S
C2252 C2251 1.524 . S
C2253 C2250 1.403 . S
C2253 C2254 1.390 . S
C2253 C2257 1.495 . S
C2254 C2253 1.390 . S
C2254 C2255 1.392 . S
C2254 C2256 1.474 1_455 S
C2255 H2249 0.930 1_455 S
C2255 C2251 1.400 . S
C2255 C2254 1.392 . S
C2256 C2254 1.474 1_655 S
C2256 C2258 1.381 1_655 S
C2256 C2262 1.383 . S
C2257 C2253 1.495 . S
C2257 H2263 0.959 . S
C2257 H2264 0.961 1_455 S
C2257 H2265 0.960 . S
C2258 C2256 1.381 1_455 S
C2258 C2259 1.394 . S
C2258 H2266 0.930 . S
C2259 C2258 1.394 . S
C2259 C2260 1.383 1_455 S
C2259 H2267 0.929 . S
C2260 C2259 1.383 1_655 S
C2260 C2261 1.377 . S
C2261 H2245 0.930 . S
C2261 C2260 1.377 . S
C2261 C2262 1.379 . S
C2262 H2246 0.931 . S
C2262 C2256 1.383 . S
C2262 C2261 1.379 . S
H2263 C2257 0.959 . S
H2264 C2257 0.961 1_655 S
H2265 C2257 0.960 . S
H2266 C2258 0.930 . S
H2267 C2259 0.929 . S
H2268 C2276 0.929 . S
H2269 C2278 0.930 . S
H2270 C2280 0.930 . S
H2271 C2283 0.929 . S
H2272 C2286 0.930 . S
H2273 C2288 0.960 . S
H2274 C2288 0.960 . S
H2275 C2288 0.960 . S
C2276 H2268 0.929 . S
C2276 C2277 1.377 . S
C2276 C2278 1.384 . S
C2277 C2276 1.377 . S
C2277 C2283 1.390 . S
C2278 H2269 0.930 . S
C2278 C2276 1.384 . S
C2278 C2279 1.372 . S
C2279 C2278 1.372 . S
C2279 C2280 1.400 . S
C2279 C2284 1.490 . S
C2280 H2270 0.930 . S
C2280 C2279 1.400 . S
C2280 C2283 1.386 . S
H2281 C2297 0.930 . S
H2282 C2298 0.931 . S
C2283 H2271 0.929 . S
C2283 C2277 1.390 . S
C2283 C2280 1.386 . S
C2284 C2279 1.490 . S
C2284 C2286 1.395 . S
C2284 C2287 1.403 . S
H2285 C2291 0.930 . S
C2286 H2272 0.930 . S
C2286 C2284 1.395 . S
C2286 C2289 1.403 . S
C2287 C2284 1.403 . S
C2287 C2288 1.524 . S
C2287 C2291 1.400 . S
C2288 H2273 0.960 . S
C2288 H2274 0.960 . S
C2288 H2275 0.960 . S
C2288 C2287 1.524 . S
C2289 C2286 1.403 . S
C2289 C2290 1.392 . S
C2289 C2293 1.495 . S
C2290 C2289 1.392 . S
C2290 C2291 1.385 . S
C2290 C2292 1.478 . S
C2291 H2285 0.930 . S
C2291 C2287 1.400 . S
C2291 C2290 1.385 . S
C2292 C2290 1.478 . S
C2292 C2294 1.381 . S
C2292 C2298 1.383 . S
C2293 C2289 1.495 . S
C2293 H2299 0.959 . S
C2293 H2300 0.961 . S
C2293 H2301 0.960 . S
C2294 C2292 1.381 . S
C2294 C2295 1.394 . S
C2294 H2302 0.930 . S
C2295 C2294 1.394 . S
C2295 C2296 1.383 . S
C2295 H2303 0.929 . S
C2296 C2295 1.383 . S
C2296 C2297 1.377 . S
C2297 H2281 0.930 . S
C2297 C2296 1.377 . S
C2297 C2298 1.379 . S
C2298 H2282 0.931 . S
C2298 C2292 1.383 . S
C2298 C2297 1.379 . S
H2299 C2293 0.959 . S
H2300 C2293 0.961 . S
H2301 C2293 0.960 . S
H2302 C2294 0.930 . S
H2303 C2295 0.929 . S
H2304 C2312 0.929 . S
H2305 C2314 0.930 . S
H2306 C2316 0.930 1_565 S
H2307 C2319 0.929 1_565 S
H2308 C2322 0.930 . S
H2309 C2324 0.960 . S
H2310 C2324 0.960 1_545 S
H2311 C2324 0.960 . S
C2312 H2304 0.929 . S
C2312 C2313 1.377 . S
C2312 C2314 1.384 . S
C2313 C2312 1.377 . S
C2313 C2319 1.390 . S
C2314 H2305 0.930 . S
C2314 C2312 1.384 . S
C2314 C2315 1.372 . S
C2315 C2314 1.372 . S
C2315 C2316 1.400 . S
C2315 C2320 1.490 . S
C2316 H2306 0.930 1_545 S
C2316 C2315 1.400 . S
C2316 C2319 1.386 . S
H2317 C2333 0.930 . S
H2318 C2334 0.931 . S
C2319 H2307 0.929 1_545 S
C2319 C2313 1.390 . S
C2319 C2316 1.386 . S
C2320 C2315 1.490 . S
C2320 C2322 1.395 . S
C2320 C2323 1.395 1_545 S
H2321 C2327 0.930 . S
C2322 H2308 0.930 . S
C2322 C2320 1.395 . S
C2322 C2325 1.403 . S
C2323 C2320 1.395 1_565 S
C2323 C2324 1.521 . S
C2323 C2327 1.412 . S
C2324 H2309 0.960 . S
C2324 H2310 0.960 1_565 S
C2324 H2311 0.960 . S
C2324 C2323 1.521 . S
C2325 C2322 1.403 . S
C2325 C2326 1.392 . S
C2325 C2329 1.495 . S
C2326 C2325 1.392 . S
C2326 C2327 1.385 1_545 S
C2326 C2328 1.478 1_545 S
C2327 H2321 0.930 . S
C2327 C2323 1.412 . S
C2327 C2326 1.385 1_565 S
C2328 C2326 1.478 1_565 S
C2328 C2330 1.381 1_565 S
C2328 C2334 1.383 . S
C2329 C2325 1.495 . S
C2329 H2335 0.959 . S
C2329 H2336 0.961 . S
C2329 H2337 0.960 . S
C2330 C2328 1.381 1_545 S
C2330 C2331 1.394 . S
C2330 H2338 0.930 . S
C2331 C2330 1.394 . S
C2331 C2332 1.383 1_545 S
C2331 H2339 0.929 . S
C2332 C2331 1.383 1_565 S
C2332 C2333 1.377 . S
C2333 H2317 0.930 . S
C2333 C2332 1.377 . S
C2333 C2334 1.379 . S
C2334 H2318 0.931 . S
C2334 C2328 1.383 . S
C2334 C2333 1.379 . S
H2335 C2329 0.959 . S
H2336 C2329 0.961 . S
H2337 C2329 0.960 . S
H2338 C2330 0.930 . S
H2339 C2331 0.929 . S
C405 C251 1.077 . S
C424 C6 1.072 . S
C441 C27 1.068 . S
C460 C207 1.058 . S
C477 C49 1.068 . S
C496 C229 1.059 . S
C513 C335 1.073 . S
C532 C51 1.048 . S
C549 C9 1.076 . S
C568 C356 1.096 . S
C585 C29 1.080 . S
C604 C378 1.107 . S
C621 C314 1.075 . S
C640 C75 1.064 . S
C657 C95 1.068 . S
C676 C268 1.107 . S
C693 C117 1.067 . S
C712 C292 1.106 . S
C729 C139 1.084 . S
C748 C115 1.048 . S
C765 C72 1.080 . S
C784 C161 1.063 . S
C801 C183 1.077 . S
C820 C93 1.051 . S
C837 C383 1.076 . S
C856 C138 1.068 . S
C873 C338 1.074 . S
C892 C160 1.045 . S
C909 C361 1.084 . S
C928 C182 1.105 . S
C945 C71 1.072 . S
C964 C185 1.037 . S
C981 C92 1.082 . S
C1000 C141 1.089 . S
C1017 C163 1.080 . S
C1036 C114 1.103 . S
C1053 C50 1.076 . S
C1072 C205 1.056 . S
C1089 C4 1.083 . S
C1108 C227 1.071 . S
C1125 C249 1.069 . S
C1144 C28 1.069 . S
C1161 C247 1.069 . S
C1180 C271 1.106 . S
C1197 C203 1.074 . S
C1216 C294 1.052 . S
C1233 C225 1.072 . S
C1252 C316 1.068 . S
C1269 C270 1.079 . S
C1288 C119 1.105 . S
C1305 C291 1.066 . S
C1324 C74 1.045 . S
C1341 C313 1.069 . S
C1360 C97 1.066 . S
C1377 C315 1.079 . S
C1396 C202 1.098 . S
C1413 C273 1.066 . S
C1432 C224 1.070 . S
C1449 C293 1.077 . S
C1468 C246 1.088 . S
C1485 C339 1.070 . S
C1504 C180 1.104 . S
C1521 C359 1.073 . S
C1540 C136 1.099 . S
C1557 C158 1.075 . S
C1576 C381 1.104 . S
C1593 C7 1.073 . S
C1612 C379 1.105 . S
C1629 C30 1.072 . S
C1648 C336 1.084 . S
C1665 C357 1.079 . S
C1684 C52 1.069 . S
C1701 C159 1.363 . S
C1720 C8 1.356 . S
C1737 C181 1.362 . S
C1756 C31 1.363 . S
C1773 C137 1.362 . S
C1792 C53 1.362 . S
C1809 C295 1.362 . S
C1828 C48 1.363 . S
C1845 C5 1.362 . S
C1864 C317 1.361 . S
C1881 C26 1.362 . S
C1900 C272 1.363 . S
C1917 C70 1.363 . S
C1936 C360 1.357 . S
C1953 C94 1.362 . S
C1972 C382 1.360 . S
C1989 C116 1.362 . S
C2008 C337 1.363 . S
C2025 C118 1.363 . S
C2044 C226 1.363 . S
C2061 C248 1.362 . S
C2080 C73 1.357 . S
C2097 C96 1.363 . S
C2116 C204 1.363 . S
C2133 C140 1.363 . S
C2152 C290 1.356 . S
C2169 C162 1.362 . S
C2188 C312 1.361 . S
C2205 C184 1.363 . S
C2224 C269 1.356 . S
C2241 C250 1.362 . S
C2260 C358 1.363 . S
C2277 C380 1.362 . S
C2296 C206 1.362 . S
C2313 C334 1.362 . S
C2332 C228 1.362 . S
