# Generated by pormake.
# Topology mdf, (4)-cn, num edge types: 1
# Building blocks:
#     Node 0, Type 0, BuildingBlock: GALJAG_clean_sbu_0, # of connection points: 4
#     Node 1, Type 0, BuildingBlock: GALJAG_clean_sbu_0, # of connection points: 4
#     Node 2, Type 0, BuildingBlock: GALJAG_clean_sbu_0, # of connection points: 4
#     Node 3, Type 0, BuildingBlock: GALJAG_clean_sbu_0, # of connection points: 4
#     Node 4, Type 0, BuildingBlock: GALJAG_clean_sbu_0, # of connection points: 4
#     Node 5, Type 0, BuildingBlock: GALJAG_clean_sbu_0, # of connection points: 4
#     Node 6, Type 0, BuildingBlock: GALJAG_clean_sbu_0, # of connection points: 4
#     Node 7, Type 0, BuildingBlock: GALJAG_clean_sbu_0, # of connection points: 4
#     Edge 8, Type (0, 0), BuildingBlock: XIVTED_clean_linker_0, # of connection points: 2
#     Edge 9, Type (0, 0), BuildingBlock: XIVTED_clean_linker_0, # of connection points: 2
#     Edge 10, Type (0, 0), BuildingBlock: XIVTED_clean_linker_0, # of connection points: 2
#     Edge 11, Type (0, 0), BuildingBlock: XIVTED_clean_linker_0, # of connection points: 2
#     Edge 12, Type (0, 0), BuildingBlock: XIVTED_clean_linker_0, # of connection points: 2
#     Edge 13, Type (0, 0), BuildingBlock: XIVTED_clean_linker_0, # of connection points: 2
#     Edge 14, Type (0, 0), BuildingBlock: XIVTED_clean_linker_0, # of connection points: 2
#     Edge 15, Type (0, 0), BuildingBlock: XIVTED_clean_linker_0, # of connection points: 2
#     Edge 16, Type (0, 0), BuildingBlock: XIVTED_clean_linker_0, # of connection points: 2
#     Edge 17, Type (0, 0), BuildingBlock: XIVTED_clean_linker_0, # of connection points: 2
#     Edge 18, Type (0, 0), BuildingBlock: XIVTED_clean_linker_0, # of connection points: 2
#     Edge 19, Type (0, 0), BuildingBlock: XIVTED_clean_linker_0, # of connection points: 2
#     Edge 20, Type (0, 0), BuildingBlock: XIVTED_clean_linker_0, # of connection points: 2
#     Edge 21, Type (0, 0), BuildingBlock: XIVTED_clean_linker_0, # of connection points: 2
#     Edge 22, Type (0, 0), BuildingBlock: XIVTED_clean_linker_0, # of connection points: 2
#     Edge 23, Type (0, 0), BuildingBlock: XIVTED_clean_linker_0, # of connection points: 2
# Relax obj value: 0.054
# Max RMSD: 0.086
# Mean RMSD: 0.086
data_MOF--net-mdf--node1-GALJAG_clean_sbu_0--edge1-XIVTED_clean_linker_0
_symmetry_space_group_name_H-M    P1
_symmetry_Int_Tables_number       1
_symmetry_cell_setting            triclinic
loop_
_symmetry_equiv_pos_as_xyz
'x, y, z'
_cell_length_a     39.829633
_cell_length_b     39.622128
_cell_length_c     10.845031
_cell_angle_alpha  90.238315
_cell_angle_beta   90.252155
_cell_angle_gamma 89.897118
loop_
_atom_site_label
_atom_site_type_symbol
_atom_site_fract_x
_atom_site_fract_y
_atom_site_fract_z
_atom_type_partial_charge
In0 In 0.24263 0.51373 0.36198 0.0
O1 O 0.25621 0.53896 0.17978 0.0
O2 O 0.28183 0.55435 0.34379 0.0
C3 C 0.19264 0.47023 0.31205 0.0
C4 C 0.29151 0.46915 0.41444 0.0
C5 C 0.20824 0.55888 0.49626 0.0
O6 O 0.20642 0.4874 0.22816 0.0
O7 O 0.20409 0.47523 0.41915 0.0
O8 O 0.23049 0.54008 0.54381 0.0
O9 O 0.20351 0.55467 0.38207 0.0
C10 C 0.27806 0.55796 0.22901 0.0
O11 O 0.27756 0.48673 0.49741 0.0
O12 O 0.28085 0.47432 0.30646 0.0
In13 In 0.47432 0.74476 0.61946 0.0
O14 O 0.44848 0.73106 0.79986 0.0
O15 O 0.43447 0.70463 0.63567 0.0
C16 C 0.51659 0.79559 0.67297 0.0
C17 C 0.51965 0.69627 0.57016 0.0
C18 C 0.4293 0.77897 0.48426 0.0
O19 O 0.49949 0.78119 0.75555 0.0
O20 O 0.51218 0.7843 0.56524 0.0
O21 O 0.44845 0.75699 0.43663 0.0
O22 O 0.43313 0.78348 0.59873 0.0
C23 C 0.43018 0.70868 0.75003 0.0
O24 O 0.50263 0.71025 0.48574 0.0
O25 O 0.51353 0.70667 0.67782 0.0
In26 In 0.24226 0.97592 0.87222 0.0
O27 O 0.25476 0.95061 0.05584 0.0
O28 O 0.28088 0.93471 0.89432 0.0
C29 C 0.1918 0.01928 0.91791 0.0
C30 C 0.29251 0.01925 0.82686 0.0
C31 C 0.20814 0.93136 0.73397 0.0
O32 O 0.20506 0.00172 0.00237 0.0
O33 O 0.20416 0.01496 0.81213 0.0
O34 O 0.22957 0.95109 0.68747 0.0
O35 O 0.20415 0.93437 0.84886 0.0
C36 C 0.27659 0.93125 0.00877 0.0
O37 O 0.27982 0.00097 0.74288 0.0
O38 O 0.27966 0.01569 0.93209 0.0
In39 In 0.01189 0.74405 0.11644 0.0
O40 O 0.98808 0.70656 0.24979 0.0
O41 O 0.97404 0.70436 0.06015 0.0
C42 C 0.05584 0.77956 0.25241 0.0
C43 C 0.05671 0.71079 0.97752 0.0
C44 C 0.96687 0.79309 0.06975 0.0
O45 O 0.03746 0.75701 0.29927 0.0
O46 O 0.05173 0.7841 0.13822 0.0
O47 O 0.98467 0.78013 0.98554 0.0
O48 O 0.97182 0.78119 0.17598 0.0
C49 C 0.97067 0.69232 0.16684 0.0
O50 O 0.03648 0.73198 0.93133 0.0
O51 O 0.05407 0.70663 0.09233 0.0
In52 In 0.74201 0.01486 0.87958 0.0
O53 O 0.75463 0.04007 0.69684 0.0
O54 O 0.78147 0.05516 0.85862 0.0
C55 C 0.69171 0.97177 0.82935 0.0
C56 C 0.79126 0.97041 0.92931 0.0
C57 C 0.70808 0.06076 0.01209 0.0
O58 O 0.70579 0.98882 0.74588 0.0
O59 O 0.70307 0.97658 0.93674 0.0
O60 O 0.72991 0.0417 0.06099 0.0
O61 O 0.70348 0.05626 0.89803 0.0
C62 C 0.77689 0.0589 0.74426 0.0
O63 O 0.77756 0.98784 0.01331 0.0
O64 O 0.78005 0.97556 0.82207 0.0
In65 In 0.97197 0.24433 0.12819 0.0
O66 O 0.94754 0.2321 0.31273 0.0
O67 O 0.93088 0.20593 0.15127 0.0
C68 C 0.01638 0.29386 0.17356 0.0
C69 C 0.01472 0.19359 0.07807 0.0
C70 C 0.92617 0.27905 -0.00154 0.0
O71 O -0.0007 0.28057 0.25861 0.0
O72 O 0.01094 0.28211 0.06705 0.0
O73 O 0.94393 0.25615 0.94929 0.0
O74 O 0.93201 0.28442 0.11131 0.0
C75 C 0.92792 0.21037 0.26601 0.0
O76 O -0.00192 0.20816 0.99392 0.0
O77 O 0.00967 0.20472 0.18553 0.0
In78 In 0.74492 0.4756 0.37337 0.0
O79 O 0.75552 0.45111 0.56071 0.0
O80 O 0.77493 0.42777 0.39877 0.0
C81 C 0.69977 0.52383 0.42642 0.0
C82 C 0.79818 0.51465 0.3213 0.0
C83 C 0.70633 0.43667 0.22826 0.0
O84 O 0.70954 0.5027 0.50629 0.0
O85 O 0.71317 0.52073 0.32165 0.0
O86 O 0.73594 0.44451 0.19821 0.0
O87 O 0.69644 0.44852 0.32988 0.0
C88 C 0.77242 0.42717 0.51449 0.0
O89 O 0.78071 0.50084 0.23764 0.0
O90 O 0.78886 0.50847 0.42979 0.0
In91 In 0.5113 0.24444 0.63131 0.0
O92 O 0.48478 0.20983 0.76862 0.0
O93 O 0.47749 0.20119 0.57637 0.0
C94 C 0.55144 0.28429 0.76673 0.0
C95 C 0.55886 0.21383 0.49636 0.0
C96 C 0.46396 0.29012 0.57532 0.0
O97 O 0.54202 0.25575 0.80537 0.0
O98 O 0.54054 0.29242 0.66166 0.0
O99 O 0.48378 0.27843 0.49463 0.0
O100 O 0.46794 0.27839 0.6825 0.0
C101 C 0.47073 0.19242 0.68506 0.0
O102 O 0.5368 0.23258 0.44753 0.0
O103 O 0.5568 0.21092 0.61179 0.0
H104 H 0.38587 0.66264 0.65793 0.0
H105 H 0.32208 0.6043 0.32038 0.0
H106 H 0.41886 0.70853 -0.00094 0.0
H107 H 0.28012 0.56698 0.97857 0.0
H108 H 0.35731 0.64299 0.20416 0.0
H109 H 0.34668 0.62773 0.77335 0.0
C110 C 0.3848 0.66541 0.75726 0.0
C111 C 0.40576 0.68836 0.81927 0.0
C112 C 0.34032 0.62647 0.15442 0.0
C113 C 0.36101 0.64842 0.95191 0.0
C114 C 0.32023 0.60432 0.22069 0.0
C115 C 0.29831 0.58228 0.15881 0.0
C116 C 0.33867 0.62645 0.02515 0.0
C117 C 0.29678 0.5835 0.02975 0.0
C118 C 0.36237 0.64551 0.82303 0.0
C119 C 0.40323 0.69105 0.9478 0.0
N120 N 0.31688 0.60511 0.96703 0.0
N121 N 0.38136 0.67116 0.01003 0.0
H122 H 0.4186 0.77807 0.23447 0.0
H123 H 0.27644 0.92147 0.25892 0.0
H124 H 0.38381 0.82447 0.5714 0.0
H125 H 0.32143 0.88508 0.92217 0.0
H126 H 0.31147 0.88187 0.37555 0.0
H127 H 0.37887 0.81299 0.11824 0.0
C128 C 0.40251 0.7955 0.2839 0.0
C129 C 0.40462 0.79859 0.41247 0.0
C130 C 0.31358 0.88251 0.27608 0.0
C131 C 0.35921 0.83851 0.2807 0.0
C132 C 0.29358 0.90506 0.20963 0.0
C133 C 0.29625 0.90669 0.08098 0.0
C134 C 0.33626 0.86142 0.21315 0.0
C135 C 0.31875 0.88479 0.02146 0.0
C136 C 0.37988 0.81544 0.21767 0.0
C137 C 0.38313 0.82146 0.47216 0.0
N138 N 0.33795 0.86313 0.08804 0.0
N139 N 0.36138 0.84061 0.40576 0.0
H140 H 0.0677 0.77756 0.50125 0.0
H141 H 0.20716 0.92307 0.48292 0.0
H142 H 0.09949 0.8268 0.16731 0.0
H143 H 0.16451 0.88412 0.81863 0.0
H144 H 0.17206 0.88383 0.36435 0.0
H145 H 0.10728 0.81247 0.61854 0.0
C146 C 0.08306 0.79566 0.4527 0.0
C147 C 0.08019 0.79951 0.32469 0.0
C148 C 0.17047 0.88383 0.464 0.0
C149 C 0.12546 0.83939 0.45768 0.0
C150 C 0.19052 0.90616 0.53156 0.0
C151 C 0.18851 0.90696 0.66052 0.0
C152 C 0.14842 0.86213 0.52614 0.0
C153 C 0.16665 0.88447 0.71916 0.0
C154 C 0.10562 0.81558 0.51954 0.0
C155 C 0.10079 0.82319 0.26611 0.0
N156 N 0.14739 0.86303 0.65151 0.0
N157 N 0.12251 0.84229 0.33311 0.0
H158 H 0.06455 0.71023 0.72641 0.0
H159 H 0.21057 0.57079 0.74504 0.0
H160 H 0.10466 0.66757 0.06185 0.0
H161 H 0.1614 0.60325 0.41036 0.0
H162 H 0.17589 0.61053 0.86202 0.0
H163 H 0.10392 0.67552 0.60765 0.0
C164 C 0.08174 0.69369 0.77495 0.0
C165 C 0.08122 0.69154 0.9039 0.0
C166 C 0.17276 0.60901 0.76292 0.0
C167 C 0.1262 0.6519 0.76932 0.0
C168 C 0.19256 0.58637 0.69623 0.0
C169 C 0.18864 0.5836 0.56812 0.0
C170 C 0.14897 0.62904 0.70084 0.0
C171 C 0.16506 0.60446 0.50925 0.0
C172 C 0.10415 0.67387 0.70729 0.0
C173 C 0.10408 0.66982 0.96241 0.0
N174 N 0.14603 0.62624 0.57613 0.0
N175 N 0.12557 0.65078 0.89467 0.0
H176 H 0.77502 0.06987 0.49511 0.0
H177 H 0.91932 0.21058 0.5167 0.0
H178 H 0.8233 0.10363 0.83063 0.0
H179 H 0.88106 0.16611 0.18044 0.0
H180 H 0.88007 0.1759 0.63438 0.0
H181 H 0.80961 0.10942 0.37854 0.0
C182 C 0.79283 0.08567 0.54416 0.0
C183 C 0.79654 0.08333 0.67239 0.0
C184 C 0.88023 0.17383 0.53479 0.0
C185 C 0.83606 0.12856 0.54024 0.0
C186 C 0.90258 0.19363 0.46775 0.0
C187 C 0.90358 0.19097 0.33892 0.0
C188 C 0.85873 0.15137 0.47225 0.0
C189 C 0.88127 0.16874 0.27984 0.0
C190 C 0.81257 0.10821 0.47773 0.0
C191 C 0.81983 0.10449 0.73162 0.0
N192 N 0.85982 0.14973 0.34699 0.0
N193 N 0.83879 0.12616 0.66502 0.0
H194 H 0.885 0.32816 0.08867 0.0
H195 H 0.80495 0.37115 0.43156 0.0
H196 H 0.90856 0.27365 0.75454 0.0
H197 H 0.78035 0.42513 0.76572 0.0
H198 H 0.83928 0.33217 0.55159 0.0
H199 H 0.84349 0.36117 0.9751 0.0
C200 C 0.88137 0.32309 0.99129 0.0
C201 C 0.90044 0.29833 0.93053 0.0
C202 C 0.82622 0.35237 0.599 0.0
C203 C 0.8529 0.33603 0.80003 0.0
C204 C 0.80658 0.37463 0.53055 0.0
C205 C 0.79008 0.40159 0.58882 0.0
C206 C 0.82959 0.35721 0.72669 0.0
C207 C 0.79281 0.40475 0.71724 0.0
C208 C 0.8576 0.34191 0.9266 0.0
C209 C 0.89455 0.29267 0.80464 0.0
N210 N 0.8125 0.38298 0.78188 0.0
N211 N 0.87139 0.31153 0.74334 0.0
H212 H 0.72473 0.38202 0.08959 0.0
H213 H 0.55075 0.35259 0.76854 0.0
H214 H 0.639 0.44156 0.19851 0.0
H215 H 0.60306 0.26687 0.92107 0.0
H216 H 0.58948 0.39029 0.87892 0.0
H217 H 0.68671 0.34343 0.97743 0.0
C218 C 0.69799 0.38711 0.08842 0.0
C219 C 0.68474 0.41479 0.15284 0.0
C220 C 0.59236 0.36321 0.88793 0.0
C221 C 0.64185 0.37164 0.02489 0.0
C222 C 0.57042 0.34179 0.82539 0.0
C223 C 0.57376 0.30674 0.83699 0.0
C224 C 0.61836 0.34939 0.95897 0.0
C225 C 0.59962 0.29384 0.91126 0.0
C226 C 0.67646 0.36508 0.02574 0.0
C227 C 0.65 0.42033 0.15003 0.0
N228 N 0.62135 0.31525 0.96871 0.0
N229 N 0.62968 0.39909 0.08584 0.0
H230 H 0.66255 0.10568 0.92155 0.0
H231 H 0.61011 0.17529 0.58535 0.0
H232 H 0.70993 0.07388 0.26053 0.0
H233 H 0.56521 0.2096 0.24519 0.0
H234 H 0.6493 0.14073 0.46725 0.0
H235 H 0.62904 0.14629 0.03755 0.0
C236 C 0.66596 0.10732 0.02055 0.0
C237 C 0.68885 0.08621 0.08181 0.0
C238 C 0.63104 0.15595 0.41824 0.0
C239 C 0.6505 0.13265 0.21523 0.0
C240 C 0.60864 0.1757 0.48559 0.0
C241 C 0.58422 0.19512 0.42479 0.0
C242 C 0.6289 0.15545 0.28907 0.0
C243 C 0.58358 0.19487 0.29559 0.0
C244 C 0.64684 0.13057 0.08669 0.0
C245 C 0.69241 0.08956 0.2099 0.0
N246 N 0.60546 0.17512 0.23193 0.0
N247 N 0.67326 0.11224 0.27258 0.0
H248 H 0.31488 0.44817 0.63944 0.0
H249 H 0.44769 0.31793 0.3519 0.0
H250 H 0.32779 0.43257 0.24841 0.0
H251 H 0.42305 0.32232 0.73879 0.0
H252 H 0.4063 0.36243 0.3125 0.0
H253 H 0.35736 0.40473 0.67875 0.0
C254 C 0.32674 0.43568 0.56197 0.0
C255 C 0.31779 0.44387 0.4406 0.0
C256 C 0.40993 0.3536 0.40598 0.0
C257 C 0.36629 0.39426 0.48455 0.0
C258 C 0.43353 0.32823 0.4284 0.0
C259 C 0.43871 0.31641 0.54864 0.0
C260 C 0.39158 0.36735 0.50468 0.0
C261 C 0.41976 0.33064 0.64454 0.0
C262 C 0.3509 0.41084 0.58435 0.0
C263 C 0.3339 0.42693 0.3435 0.0
N264 N 0.39709 0.3554 0.62054 0.0
N265 N 0.35737 0.40293 0.36757 0.0
H266 H 0.66506 0.95334 0.60583 0.0
H267 H 0.53507 0.82186 0.89754 0.0
H268 H 0.65613 0.93531 0.99649 0.0
H269 H 0.55243 0.83199 0.50691 0.0
H270 H 0.57636 0.86647 0.93629 0.0
H271 H 0.62068 0.91187 0.56789 0.0
C272 C 0.65368 0.94072 0.68354 0.0
C273 C 0.66434 0.94763 0.80435 0.0
C274 C 0.57106 0.85897 0.8421 0.0
C275 C 0.61364 0.90025 0.76196 0.0
C276 C 0.54748 0.83356 0.82004 0.0
C277 C 0.54046 0.82316 0.69897 0.0
C278 C 0.58759 0.87408 0.74226 0.0
C279 C 0.5572 0.83916 0.60181 0.0
C280 C 0.62839 0.91704 0.66194 0.0
C281 C 0.64873 0.93062 0.90179 0.0
N282 N 0.58001 0.86377 0.62557 0.0
N283 N 0.6242 0.90768 0.87847 0.0
H284 H 0.04833 0.15575 0.24754 0.0
H285 H 0.15763 0.05639 0.74723 0.0
H286 H 0.036 0.16875 0.85505 0.0
H287 H 0.16291 0.03683 0.13801 0.0
H288 H 0.11276 0.09718 0.78435 0.0
H289 H 0.08985 0.1117 0.20881 0.0
C290 C 0.05432 0.14926 0.15303 0.0
C291 C 0.03883 0.16603 0.05424 0.0
C292 C 0.12362 0.08392 0.86201 0.0
C293 C 0.08649 0.11564 0.00923 0.0
C294 C 0.14929 0.06066 0.84096 0.0
C295 C 0.1641 0.04332 0.93988 0.0
C296 C 0.11275 0.09005 0.98299 0.0
C297 C 0.15222 0.04972 0.05921 0.0
C298 C 0.07802 0.12406 0.13101 0.0
C299 C 0.04742 0.15648 0.9338 0.0
N300 N 0.12733 0.07269 0.0775 0.0
N301 N 0.07084 0.13201 0.91463 0.0
H302 H 0.95603 0.66319 0.38899 0.0
H303 H 0.82128 0.53545 0.09666 0.0
H304 H 0.93332 0.65685 0.00011 0.0
H305 H 0.83903 0.54624 0.48769 0.0
H306 H 0.86573 0.57659 0.05816 0.0
H307 H 0.91641 0.61718 0.42625 0.0
C308 C 0.94278 0.65204 0.31152 0.0
C309 C 0.94776 0.66395 0.19148 0.0
C310 C 0.86 0.56985 0.15239 0.0
C311 C 0.90253 0.6114 0.23306 0.0
C312 C 0.83468 0.54633 0.17429 0.0
C313 C 0.82635 0.53763 0.29547 0.0
C314 C 0.87706 0.58475 0.25246 0.0
C315 C 0.84455 0.55239 0.39276 0.0
C316 C 0.92019 0.6258 0.33273 0.0
C317 C 0.93007 0.64855 0.09428 0.0
N318 N 0.86894 0.57534 0.36917 0.0
N319 N 0.90818 0.62316 0.11725 0.0
H320 H 0.3241 0.03307 0.60903 0.0
H321 H 0.44649 0.17179 0.90877 0.0
H322 H 0.32416 0.05946 0.99553 0.0
H323 H 0.44087 0.15035 0.51875 0.0
H324 H 0.40447 0.12788 0.94509 0.0
H325 H 0.3696 0.07343 0.5761 0.0
C326 C 0.33373 0.04734 0.6869 0.0
C327 C 0.32027 0.04306 0.80498 0.0
C328 C 0.41254 0.13271 0.85162 0.0
C329 C 0.37228 0.08917 0.76835 0.0
C330 C 0.43657 0.15769 0.831 0.0
C331 C 0.44702 0.16478 0.71062 0.0
C332 C 0.39899 0.11472 0.75108 0.0
C333 C 0.43338 0.1458 0.61306 0.0
C334 C 0.35969 0.07035 0.66818 0.0
C335 C 0.33373 0.06208 0.90281 0.0
N336 N 0.41002 0.12172 0.63539 0.0
N337 N 0.35895 0.08435 0.88228 0.0
H338 H 0.81697 0.95014 0.15212 0.0
H339 H 0.94815 0.82073 0.8487 0.0
H340 H 0.82668 0.93417 0.76 0.0
H341 H 0.92918 0.82686 0.23964 0.0
H342 H 0.90627 0.86506 0.81475 0.0
H343 H 0.8608 0.9077 0.18701 0.0
C344 C 0.82839 0.93777 0.07349 0.0
C345 C 0.81814 0.94557 0.95311 0.0
C346 C 0.91129 0.85671 0.90799 0.0
C347 C 0.8682 0.89716 0.99198 0.0
C348 C 0.93521 0.83145 0.92731 0.0
C349 C 0.94205 0.82008 0.04703 0.0
C350 C 0.89422 0.87077 0.00922 0.0
C351 C 0.92458 0.83484 0.1457 0.0
C352 C 0.85334 0.91353 0.09334 0.0
C353 C 0.83375 0.92883 0.85442 0.0
N354 N 0.90148 0.85942 0.12462 0.0
N355 N 0.85798 0.90542 0.87604 0.0
H356 H 0.03605 0.32123 0.39458 0.0
H357 H 0.16626 0.45018 0.08941 0.0
H358 H 0.05296 0.328 0.00268 0.0
H359 H 0.15737 0.43446 0.48145 0.0
H360 H 0.12215 0.40808 0.05486 0.0
H361 H 0.078 0.36543 0.42793 0.0
C362 C 0.04854 0.33208 0.31563 0.0
C363 C 0.04112 0.32091 0.19582 0.0
C364 C 0.12984 0.41391 0.14843 0.0
C365 C 0.08904 0.37145 0.23294 0.0
C366 C 0.15495 0.43795 0.16809 0.0
C367 C 0.1655 0.44572 0.28835 0.0
C368 C 0.11517 0.39768 0.24987 0.0
C369 C 0.15005 0.42915 0.38711 0.0
C370 C 0.0725 0.35727 0.3346 0.0
C371 C 0.05802 0.33582 0.09669 0.0
N372 N 0.12569 0.40592 0.36568 0.0
N373 N 0.0812 0.36032 0.11745 0.0
H374 H 0.54389 0.67463 0.34725 0.0
H375 H 0.66828 0.53792 0.64487 0.0
H376 H 0.55386 0.65872 0.73914 0.0
H377 H 0.67152 0.56759 0.26265 0.0
H378 H 0.6237 0.5795 0.67984 0.0
H379 H 0.58789 0.63242 0.31217 0.0
C380 C 0.55525 0.66216 0.42576 0.0
C381 C 0.54531 0.67019 0.54618 0.0
C382 C 0.63425 0.57695 0.5884 0.0
C383 C 0.59552 0.62199 0.50707 0.0
C384 C 0.65967 0.55325 0.5685 0.0
C385 C 0.67361 0.54938 0.45083 0.0
C386 C 0.62258 0.59672 0.48967 0.0
C387 C 0.6615 0.56982 0.35497 0.0
C388 C 0.58042 0.63818 0.40582 0.0
C389 C 0.56087 0.65334 0.64473 0.0
N390 N 0.63662 0.59253 0.37641 0.0
N391 N 0.58517 0.63002 0.623 0.0
loop_
_geom_bond_atom_site_label_1
_geom_bond_atom_site_label_2
_geom_bond_distance
_geom_bond_site_symmetry_2
_ccdc_geom_bond_type
In0 O1 2.294 . S
In0 O2 2.326 . S
In0 O6 2.266 . S
In0 O7 2.326 . S
In0 O8 2.266 . S
In0 O9 2.326 . S
In0 O11 2.294 . S
In0 O12 2.326 . S
O1 In0 2.294 . S
O1 C10 1.240 . S
O2 In0 2.326 . S
O2 C10 1.252 . S
C3 O6 1.252 . S
C3 O7 1.260 . S
C4 O11 1.240 . S
C4 O12 1.252 . S
C5 O8 1.252 . S
C5 O9 1.260 . S
O6 In0 2.266 . S
O6 C3 1.252 . S
O7 In0 2.326 . S
O7 C3 1.260 . S
O8 In0 2.266 . S
O8 C5 1.252 . S
O9 In0 2.326 . S
O9 C5 1.260 . S
C10 O1 1.240 . S
C10 O2 1.252 . S
O11 In0 2.294 . S
O11 C4 1.240 . S
O12 In0 2.326 . S
O12 C4 1.252 . S
In13 O14 2.294 . S
In13 O15 2.326 . S
In13 O19 2.266 . S
In13 O20 2.326 . S
In13 O21 2.266 . S
In13 O22 2.326 . S
In13 O24 2.294 . S
In13 O25 2.326 . S
O14 In13 2.294 . S
O14 C23 1.240 . S
O15 In13 2.326 . S
O15 C23 1.252 . S
C16 O19 1.252 . S
C16 O20 1.260 . S
C17 O24 1.240 . S
C17 O25 1.252 . S
C18 O21 1.252 . S
C18 O22 1.260 . S
O19 In13 2.266 . S
O19 C16 1.252 . S
O20 In13 2.326 . S
O20 C16 1.260 . S
O21 In13 2.266 . S
O21 C18 1.252 . S
O22 In13 2.326 . S
O22 C18 1.260 . S
C23 O14 1.240 . S
C23 O15 1.252 . S
O24 In13 2.294 . S
O24 C17 1.240 . S
O25 In13 2.326 . S
O25 C17 1.252 . S
In26 O27 2.294 1_556 S
In26 O28 2.326 . S
In26 O32 2.266 1_566 S
In26 O33 2.326 1_565 S
In26 O34 2.266 . S
In26 O35 2.326 . S
In26 O37 2.294 1_565 S
In26 O38 2.326 1_565 S
O27 In26 2.294 1_554 S
O27 C36 1.240 . S
O28 In26 2.326 . S
O28 C36 1.252 1_556 S
C29 O32 1.252 1_556 S
C29 O33 1.260 . S
C30 O37 1.240 . S
C30 O38 1.252 . S
C31 O34 1.252 . S
C31 O35 1.260 . S
O32 In26 2.266 1_544 S
O32 C29 1.252 1_554 S
O33 In26 2.326 1_545 S
O33 C29 1.260 . S
O34 In26 2.266 . S
O34 C31 1.252 . S
O35 In26 2.326 . S
O35 C31 1.260 . S
C36 O27 1.240 . S
C36 O28 1.252 1_554 S
O37 In26 2.294 1_545 S
O37 C30 1.240 . S
O38 In26 2.326 1_545 S
O38 C30 1.252 . S
In39 O40 2.294 1_455 S
In39 O41 2.326 1_455 S
In39 O45 2.266 . S
In39 O46 2.326 . S
In39 O47 2.266 1_454 S
In39 O48 2.326 1_455 S
In39 O50 2.294 1_554 S
In39 O51 2.326 . S
O40 In39 2.294 1_655 S
O40 C49 1.240 . S
O41 In39 2.326 1_655 S
O41 C49 1.252 . S
C42 O45 1.252 . S
C42 O46 1.260 . S
C43 O50 1.240 . S
C43 O51 1.252 1_556 S
C44 O47 1.252 1_554 S
C44 O48 1.260 . S
O45 In39 2.266 . S
O45 C42 1.252 . S
O46 In39 2.326 . S
O46 C42 1.260 . S
O47 In39 2.266 1_656 S
O47 C44 1.252 1_556 S
O48 In39 2.326 1_655 S
O48 C44 1.260 . S
C49 O40 1.240 . S
C49 O41 1.252 . S
O50 In39 2.294 1_556 S
O50 C43 1.240 . S
O51 In39 2.326 . S
O51 C43 1.252 1_554 S
In52 O53 2.294 . S
In52 O54 2.326 . S
In52 O58 2.266 1_545 S
In52 O59 2.326 1_545 S
In52 O60 2.266 1_556 S
In52 O61 2.326 . S
In52 O63 2.294 1_546 S
In52 O64 2.326 1_545 S
O53 In52 2.294 . S
O53 C62 1.240 . S
O54 In52 2.326 . S
O54 C62 1.252 . S
C55 O58 1.252 . S
C55 O59 1.260 . S
C56 O63 1.240 1_556 S
C56 O64 1.252 . S
C57 O60 1.252 . S
C57 O61 1.260 1_554 S
O58 In52 2.266 1_565 S
O58 C55 1.252 . S
O59 In52 2.326 1_565 S
O59 C55 1.260 . S
O60 In52 2.266 1_554 S
O60 C57 1.252 . S
O61 In52 2.326 . S
O61 C57 1.260 1_556 S
C62 O53 1.240 . S
C62 O54 1.252 . S
O63 In52 2.294 1_564 S
O63 C56 1.240 1_554 S
O64 In52 2.326 1_565 S
O64 C56 1.252 . S
In65 O66 2.294 . S
In65 O67 2.326 . S
In65 O71 2.266 1_655 S
In65 O72 2.326 1_655 S
In65 O73 2.266 1_554 S
In65 O74 2.326 . S
In65 O76 2.294 1_654 S
In65 O77 2.326 1_655 S
O66 In65 2.294 . S
O66 C75 1.240 . S
O67 In65 2.326 . S
O67 C75 1.252 . S
C68 O71 1.252 . S
C68 O72 1.260 . S
C69 O76 1.240 1_554 S
C69 O77 1.252 . S
C70 O73 1.252 . S
C70 O74 1.260 1_556 S
O71 In65 2.266 1_455 S
O71 C68 1.252 . S
O72 In65 2.326 1_455 S
O72 C68 1.260 . S
O73 In65 2.266 1_556 S
O73 C70 1.252 . S
O74 In65 2.326 . S
O74 C70 1.260 1_554 S
C75 O66 1.240 . S
C75 O67 1.252 . S
O76 In65 2.294 1_456 S
O76 C69 1.240 1_556 S
O77 In65 2.326 1_455 S
O77 C69 1.252 . S
In78 O79 2.294 . S
In78 O80 2.326 . S
In78 O84 2.266 . S
In78 O85 2.326 . S
In78 O86 2.266 . S
In78 O87 2.326 . S
In78 O89 2.294 . S
In78 O90 2.326 . S
O79 In78 2.294 . S
O79 C88 1.240 . S
O80 In78 2.326 . S
O80 C88 1.252 . S
C81 O84 1.252 . S
C81 O85 1.260 . S
C82 O89 1.240 . S
C82 O90 1.252 . S
C83 O86 1.252 . S
C83 O87 1.260 . S
O84 In78 2.266 . S
O84 C81 1.252 . S
O85 In78 2.326 . S
O85 C81 1.260 . S
O86 In78 2.266 . S
O86 C83 1.252 . S
O87 In78 2.326 . S
O87 C83 1.260 . S
C88 O79 1.240 . S
C88 O80 1.252 . S
O89 In78 2.294 . S
O89 C82 1.240 . S
O90 In78 2.326 . S
O90 C82 1.252 . S
In91 O92 2.294 . S
In91 O93 2.326 . S
In91 O97 2.266 . S
In91 O98 2.326 . S
In91 O99 2.266 . S
In91 O100 2.326 . S
In91 O102 2.294 . S
In91 O103 2.326 . S
O92 In91 2.294 . S
O92 C101 1.240 . S
O93 In91 2.326 . S
O93 C101 1.252 . S
C94 O97 1.252 . S
C94 O98 1.260 . S
C95 O102 1.240 . S
C95 O103 1.252 . S
C96 O99 1.252 . S
C96 O100 1.260 . S
O97 In91 2.266 . S
O97 C94 1.252 . S
O98 In91 2.326 . S
O98 C94 1.260 . S
O99 In91 2.266 . S
O99 C96 1.252 . S
O100 In91 2.326 . S
O100 C96 1.260 . S
C101 O92 1.240 . S
C101 O93 1.252 . S
O102 In91 2.294 . S
O102 C95 1.240 . S
O103 In91 2.326 . S
O103 C95 1.252 . S
H104 C110 0.930 . S
H105 C114 0.930 . S
H106 C119 0.929 . S
H107 C117 0.929 . S
H108 C112 0.929 . S
H109 C118 0.929 . S
C110 H104 0.930 . S
C110 C111 1.367 . S
C110 C118 1.378 . S
C111 C110 1.367 . S
C111 C119 1.433 . S
C112 H108 0.929 . S
C112 C114 1.378 . S
C112 C116 1.350 . S
C113 C116 1.463 1_556 S
C113 C118 1.350 . S
C113 N121 1.427 . S
C114 H105 0.930 . S
C114 C112 1.378 . S
C114 C115 1.367 . S
C115 C114 1.367 . S
C115 C117 1.433 . S
C116 C112 1.350 . S
C116 C113 1.463 1_554 S
C116 N120 1.427 . S
C117 H107 0.929 . S
C117 C115 1.433 . S
C117 N120 1.384 . S
C118 H109 0.929 . S
C118 C110 1.378 . S
C118 C113 1.350 . S
C119 H106 0.929 . S
C119 C111 1.433 . S
C119 N121 1.384 . S
N120 C116 1.427 . S
N120 C117 1.384 . S
N121 C113 1.427 . S
N121 C119 1.384 . S
H122 C128 0.930 . S
H123 C132 0.930 . S
H124 C137 0.929 . S
H125 C135 0.929 1_556 S
H126 C130 0.929 . S
H127 C136 0.929 . S
C128 H122 0.930 . S
C128 C129 1.367 . S
C128 C136 1.378 . S
C129 C128 1.367 . S
C129 C137 1.433 . S
C130 H126 0.929 . S
C130 C132 1.378 . S
C130 C134 1.350 . S
C131 C134 1.463 . S
C131 C136 1.350 . S
C131 N139 1.427 . S
C132 H123 0.930 . S
C132 C130 1.378 . S
C132 C133 1.367 . S
C133 C132 1.367 . S
C133 C135 1.433 . S
C134 C130 1.350 . S
C134 C131 1.463 . S
C134 N138 1.427 . S
C135 H125 0.929 1_554 S
C135 C133 1.433 . S
C135 N138 1.384 . S
C136 H127 0.929 . S
C136 C128 1.378 . S
C136 C131 1.350 . S
C137 H124 0.929 . S
C137 C129 1.433 . S
C137 N139 1.384 . S
N138 C134 1.427 . S
N138 C135 1.384 . S
N139 C131 1.427 . S
N139 C137 1.384 . S
H140 C146 0.930 . S
H141 C150 0.930 . S
H142 C155 0.929 . S
H143 C153 0.929 . S
H144 C148 0.929 . S
H145 C154 0.929 . S
C146 H140 0.930 . S
C146 C147 1.367 . S
C146 C154 1.378 . S
C147 C146 1.367 . S
C147 C155 1.433 . S
C148 H144 0.929 . S
C148 C150 1.378 . S
C148 C152 1.350 . S
C149 C152 1.463 . S
C149 C154 1.350 . S
C149 N157 1.427 . S
C150 H141 0.930 . S
C150 C148 1.378 . S
C150 C151 1.367 . S
C151 C150 1.367 . S
C151 C153 1.433 . S
C152 C148 1.350 . S
C152 C149 1.463 . S
C152 N156 1.427 . S
C153 H143 0.929 . S
C153 C151 1.433 . S
C153 N156 1.384 . S
C154 H145 0.929 . S
C154 C146 1.378 . S
C154 C149 1.350 . S
C155 H142 0.929 . S
C155 C147 1.433 . S
C155 N157 1.384 . S
N156 C152 1.427 . S
N156 C153 1.384 . S
N157 C149 1.427 . S
N157 C155 1.384 . S
H158 C164 0.930 . S
H159 C168 0.930 . S
H160 C173 0.929 1_554 S
H161 C171 0.929 . S
H162 C166 0.929 . S
H163 C172 0.929 . S
C164 H158 0.930 . S
C164 C165 1.367 . S
C164 C172 1.378 . S
C165 C164 1.367 . S
C165 C173 1.433 . S
C166 H162 0.929 . S
C166 C168 1.378 . S
C166 C170 1.350 . S
C167 C170 1.463 . S
C167 C172 1.350 . S
C167 N175 1.427 . S
C168 H159 0.930 . S
C168 C166 1.378 . S
C168 C169 1.367 . S
C169 C168 1.367 . S
C169 C171 1.433 . S
C170 C166 1.350 . S
C170 C167 1.463 . S
C170 N174 1.427 . S
C171 H161 0.929 . S
C171 C169 1.433 . S
C171 N174 1.384 . S
C172 H163 0.929 . S
C172 C164 1.378 . S
C172 C167 1.350 . S
C173 H160 0.929 1_556 S
C173 C165 1.433 . S
C173 N175 1.384 . S
N174 C170 1.427 . S
N174 C171 1.384 . S
N175 C167 1.427 . S
N175 C173 1.384 . S
H176 C182 0.930 . S
H177 C186 0.930 . S
H178 C191 0.929 . S
H179 C189 0.929 . S
H180 C184 0.929 . S
H181 C190 0.929 . S
C182 H176 0.930 . S
C182 C183 1.367 . S
C182 C190 1.378 . S
C183 C182 1.367 . S
C183 C191 1.433 . S
C184 H180 0.929 . S
C184 C186 1.378 . S
C184 C188 1.350 . S
C185 C188 1.463 . S
C185 C190 1.350 . S
C185 N193 1.427 . S
C186 H177 0.930 . S
C186 C184 1.378 . S
C186 C187 1.367 . S
C187 C186 1.367 . S
C187 C189 1.433 . S
C188 C184 1.350 . S
C188 C185 1.463 . S
C188 N192 1.427 . S
C189 H179 0.929 . S
C189 C187 1.433 . S
C189 N192 1.384 . S
C190 H181 0.929 . S
C190 C182 1.378 . S
C190 C185 1.350 . S
C191 H178 0.929 . S
C191 C183 1.433 . S
C191 N193 1.384 . S
N192 C188 1.427 . S
N192 C189 1.384 . S
N193 C185 1.427 . S
N193 C191 1.384 . S
H194 C200 0.930 . S
H195 C204 0.930 . S
H196 C209 0.929 . S
H197 C207 0.929 . S
H198 C202 0.929 . S
H199 C208 0.929 . S
C200 H194 0.930 . S
C200 C201 1.367 . S
C200 C208 1.378 . S
C201 C200 1.367 . S
C201 C209 1.433 . S
C202 H198 0.929 . S
C202 C204 1.378 . S
C202 C206 1.350 . S
C203 C206 1.463 . S
C203 C208 1.350 . S
C203 N211 1.427 . S
C204 H195 0.930 . S
C204 C202 1.378 . S
C204 C205 1.367 . S
C205 C204 1.367 . S
C205 C207 1.433 . S
C206 C202 1.350 . S
C206 C203 1.463 . S
C206 N210 1.427 . S
C207 H197 0.929 . S
C207 C205 1.433 . S
C207 N210 1.384 . S
C208 H199 0.929 . S
C208 C200 1.378 . S
C208 C203 1.350 . S
C209 H196 0.929 . S
C209 C201 1.433 . S
C209 N211 1.384 . S
N210 C206 1.427 . S
N210 C207 1.384 . S
N211 C203 1.427 . S
N211 C209 1.384 . S
H212 C218 0.930 . S
H213 C222 0.930 . S
H214 C227 0.929 . S
H215 C225 0.929 . S
H216 C220 0.929 . S
H217 C226 0.929 . S
C218 H212 0.930 . S
C218 C219 1.367 . S
C218 C226 1.378 . S
C219 C218 1.367 . S
C219 C227 1.433 . S
C220 H216 0.929 . S
C220 C222 1.378 . S
C220 C224 1.350 . S
C221 C224 1.463 1_554 S
C221 C226 1.350 . S
C221 N229 1.427 . S
C222 H213 0.930 . S
C222 C220 1.378 . S
C222 C223 1.367 . S
C223 C222 1.367 . S
C223 C225 1.433 . S
C224 C220 1.350 . S
C224 C221 1.463 1_556 S
C224 N228 1.427 . S
C225 H215 0.929 . S
C225 C223 1.433 . S
C225 N228 1.384 . S
C226 H217 0.929 . S
C226 C218 1.378 . S
C226 C221 1.350 . S
C227 H214 0.929 . S
C227 C219 1.433 . S
C227 N229 1.384 . S
N228 C224 1.427 . S
N228 C225 1.384 . S
N229 C221 1.427 . S
N229 C227 1.384 . S
H230 C236 0.930 1_556 S
H231 C240 0.930 . S
H232 C245 0.929 . S
H233 C243 0.929 . S
H234 C238 0.929 . S
H235 C244 0.929 . S
C236 H230 0.930 1_554 S
C236 C237 1.367 . S
C236 C244 1.378 . S
C237 C236 1.367 . S
C237 C245 1.433 . S
C238 H234 0.929 . S
C238 C240 1.378 . S
C238 C242 1.350 . S
C239 C242 1.463 . S
C239 C244 1.350 . S
C239 N247 1.427 . S
C240 H231 0.930 . S
C240 C238 1.378 . S
C240 C241 1.367 . S
C241 C240 1.367 . S
C241 C243 1.433 . S
C242 C238 1.350 . S
C242 C239 1.463 . S
C242 N246 1.427 . S
C243 H233 0.929 . S
C243 C241 1.433 . S
C243 N246 1.384 . S
C244 H235 0.929 . S
C244 C236 1.378 . S
C244 C239 1.350 . S
C245 H232 0.929 . S
C245 C237 1.433 . S
C245 N247 1.384 . S
N246 C242 1.427 . S
N246 C243 1.384 . S
N247 C239 1.427 . S
N247 C245 1.384 . S
H248 C254 0.930 . S
H249 C258 0.930 . S
H250 C263 0.929 . S
H251 C261 0.929 . S
H252 C256 0.929 . S
H253 C262 0.929 . S
C254 H248 0.930 . S
C254 C255 1.367 . S
C254 C262 1.378 . S
C255 C254 1.367 . S
C255 C263 1.433 . S
C256 H252 0.929 . S
C256 C258 1.378 . S
C256 C260 1.350 . S
C257 C260 1.463 . S
C257 C262 1.350 . S
C257 N265 1.427 . S
C258 H249 0.930 . S
C258 C256 1.378 . S
C258 C259 1.367 . S
C259 C258 1.367 . S
C259 C261 1.433 . S
C260 C256 1.350 . S
C260 C257 1.463 . S
C260 N264 1.427 . S
C261 H251 0.929 . S
C261 C259 1.433 . S
C261 N264 1.384 . S
C262 H253 0.929 . S
C262 C254 1.378 . S
C262 C257 1.350 . S
C263 H250 0.929 . S
C263 C255 1.433 . S
C263 N265 1.384 . S
N264 C260 1.427 . S
N264 C261 1.384 . S
N265 C257 1.427 . S
N265 C263 1.384 . S
H266 C272 0.930 . S
H267 C276 0.930 . S
H268 C281 0.929 . S
H269 C279 0.929 . S
H270 C274 0.929 . S
H271 C280 0.929 . S
C272 H266 0.930 . S
C272 C273 1.367 . S
C272 C280 1.378 . S
C273 C272 1.367 . S
C273 C281 1.433 . S
C274 H270 0.929 . S
C274 C276 1.378 . S
C274 C278 1.350 . S
C275 C278 1.463 . S
C275 C280 1.350 . S
C275 N283 1.427 . S
C276 H267 0.930 . S
C276 C274 1.378 . S
C276 C277 1.367 . S
C277 C276 1.367 . S
C277 C279 1.433 . S
C278 C274 1.350 . S
C278 C275 1.463 . S
C278 N282 1.427 . S
C279 H269 0.929 . S
C279 C277 1.433 . S
C279 N282 1.384 . S
C280 H271 0.929 . S
C280 C272 1.378 . S
C280 C275 1.350 . S
C281 H268 0.929 . S
C281 C273 1.433 . S
C281 N283 1.384 . S
N282 C278 1.427 . S
N282 C279 1.384 . S
N283 C275 1.427 . S
N283 C281 1.384 . S
H284 C290 0.930 . S
H285 C294 0.930 . S
H286 C299 0.929 . S
H287 C297 0.929 . S
H288 C292 0.929 . S
H289 C298 0.929 . S
C290 H284 0.930 . S
C290 C291 1.367 . S
C290 C298 1.378 . S
C291 C290 1.367 . S
C291 C299 1.433 1_554 S
C292 H288 0.929 . S
C292 C294 1.378 . S
C292 C296 1.350 . S
C293 C296 1.463 1_554 S
C293 C298 1.350 . S
C293 N301 1.427 1_554 S
C294 H285 0.930 . S
C294 C292 1.378 . S
C294 C295 1.367 . S
C295 C294 1.367 . S
C295 C297 1.433 1_556 S
C296 C292 1.350 . S
C296 C293 1.463 1_556 S
C296 N300 1.427 1_556 S
C297 H287 0.929 . S
C297 C295 1.433 1_554 S
C297 N300 1.384 . S
C298 H289 0.929 . S
C298 C290 1.378 . S
C298 C293 1.350 . S
C299 H286 0.929 . S
C299 C291 1.433 1_556 S
C299 N301 1.384 . S
N300 C296 1.427 1_554 S
N300 C297 1.384 . S
N301 C293 1.427 1_556 S
N301 C299 1.384 . S
H302 C308 0.930 . S
H303 C312 0.930 . S
H304 C317 0.929 . S
H305 C315 0.929 . S
H306 C310 0.929 . S
H307 C316 0.929 . S
C308 H302 0.930 . S
C308 C309 1.367 . S
C308 C316 1.378 . S
C309 C308 1.367 . S
C309 C317 1.433 . S
C310 H306 0.929 . S
C310 C312 1.378 . S
C310 C314 1.350 . S
C311 C314 1.463 . S
C311 C316 1.350 . S
C311 N319 1.427 . S
C312 H303 0.930 . S
C312 C310 1.378 . S
C312 C313 1.367 . S
C313 C312 1.367 . S
C313 C315 1.433 . S
C314 C310 1.350 . S
C314 C311 1.463 . S
C314 N318 1.427 . S
C315 H305 0.929 . S
C315 C313 1.433 . S
C315 N318 1.384 . S
C316 H307 0.929 . S
C316 C308 1.378 . S
C316 C311 1.350 . S
C317 H304 0.929 . S
C317 C309 1.433 . S
C317 N319 1.384 . S
N318 C314 1.427 . S
N318 C315 1.384 . S
N319 C311 1.427 . S
N319 C317 1.384 . S
H320 C326 0.930 . S
H321 C330 0.930 . S
H322 C335 0.929 . S
H323 C333 0.929 . S
H324 C328 0.929 . S
H325 C334 0.929 . S
C326 H320 0.930 . S
C326 C327 1.367 . S
C326 C334 1.378 . S
C327 C326 1.367 . S
C327 C335 1.433 . S
C328 H324 0.929 . S
C328 C330 1.378 . S
C328 C332 1.350 . S
C329 C332 1.463 . S
C329 C334 1.350 . S
C329 N337 1.427 . S
C330 H321 0.930 . S
C330 C328 1.378 . S
C330 C331 1.367 . S
C331 C330 1.367 . S
C331 C333 1.433 . S
C332 C328 1.350 . S
C332 C329 1.463 . S
C332 N336 1.427 . S
C333 H323 0.929 . S
C333 C331 1.433 . S
C333 N336 1.384 . S
C334 H325 0.929 . S
C334 C326 1.378 . S
C334 C329 1.350 . S
C335 H322 0.929 . S
C335 C327 1.433 . S
C335 N337 1.384 . S
N336 C332 1.427 . S
N336 C333 1.384 . S
N337 C329 1.427 . S
N337 C335 1.384 . S
H338 C344 0.930 . S
H339 C348 0.930 . S
H340 C353 0.929 . S
H341 C351 0.929 . S
H342 C346 0.929 . S
H343 C352 0.929 . S
C344 H338 0.930 . S
C344 C345 1.367 1_554 S
C344 C352 1.378 . S
C345 C344 1.367 1_556 S
C345 C353 1.433 . S
C346 H342 0.929 . S
C346 C348 1.378 . S
C346 C350 1.350 1_556 S
C347 C350 1.463 1_556 S
C347 C352 1.350 1_556 S
C347 N355 1.427 . S
C348 H339 0.930 . S
C348 C346 1.378 . S
C348 C349 1.367 1_556 S
C349 C348 1.367 1_554 S
C349 C351 1.433 . S
C350 C346 1.350 1_554 S
C350 C347 1.463 1_554 S
C350 N354 1.427 . S
C351 H341 0.929 . S
C351 C349 1.433 . S
C351 N354 1.384 . S
C352 H343 0.929 . S
C352 C344 1.378 . S
C352 C347 1.350 1_554 S
C353 H340 0.929 . S
C353 C345 1.433 . S
C353 N355 1.384 . S
N354 C350 1.427 . S
N354 C351 1.384 . S
N355 C347 1.427 . S
N355 C353 1.384 . S
H356 C362 0.930 . S
H357 C366 0.930 . S
H358 C371 0.929 . S
H359 C369 0.929 . S
H360 C364 0.929 . S
H361 C370 0.929 . S
C362 H356 0.930 . S
C362 C363 1.367 . S
C362 C370 1.378 . S
C363 C362 1.367 . S
C363 C371 1.433 . S
C364 H360 0.929 . S
C364 C366 1.378 . S
C364 C368 1.350 . S
C365 C368 1.463 . S
C365 C370 1.350 . S
C365 N373 1.427 . S
C366 H357 0.930 . S
C366 C364 1.378 . S
C366 C367 1.367 . S
C367 C366 1.367 . S
C367 C369 1.433 . S
C368 C364 1.350 . S
C368 C365 1.463 . S
C368 N372 1.427 . S
C369 H359 0.929 . S
C369 C367 1.433 . S
C369 N372 1.384 . S
C370 H361 0.929 . S
C370 C362 1.378 . S
C370 C365 1.350 . S
C371 H358 0.929 . S
C371 C363 1.433 . S
C371 N373 1.384 . S
N372 C368 1.427 . S
N372 C369 1.384 . S
N373 C365 1.427 . S
N373 C371 1.384 . S
H374 C380 0.930 . S
H375 C384 0.930 . S
H376 C389 0.929 . S
H377 C387 0.929 . S
H378 C382 0.929 . S
H379 C388 0.929 . S
C380 H374 0.930 . S
C380 C381 1.367 . S
C380 C388 1.378 . S
C381 C380 1.367 . S
C381 C389 1.433 . S
C382 H378 0.929 . S
C382 C384 1.378 . S
C382 C386 1.350 . S
C383 C386 1.463 . S
C383 C388 1.350 . S
C383 N391 1.427 . S
C384 H375 0.930 . S
C384 C382 1.378 . S
C384 C385 1.367 . S
C385 C384 1.367 . S
C385 C387 1.433 . S
C386 C382 1.350 . S
C386 C383 1.463 . S
C386 N390 1.427 . S
C387 H377 0.929 . S
C387 C385 1.433 . S
C387 N390 1.384 . S
C388 H379 0.929 . S
C388 C380 1.378 . S
C388 C383 1.350 . S
C389 H376 0.929 . S
C389 C381 1.433 . S
C389 N391 1.384 . S
N390 C386 1.427 . S
N390 C387 1.384 . S
N391 C383 1.427 . S
N391 C389 1.384 . S
C111 C23 1.473 . S
C115 C10 1.474 . S
C129 C18 1.474 . S
C133 C36 1.473 . S
C147 C42 1.474 . S
C151 C31 1.474 . S
C165 C43 1.474 . S
C169 C5 1.474 . S
C183 C62 1.474 . S
C187 C75 1.474 . S
C201 C70 1.473 . S
C205 C88 1.474 . S
C219 C83 1.473 . S
C223 C94 1.473 . S
C237 C57 1.473 . S
C241 C95 1.473 . S
C255 C4 1.515 . S
C259 C96 1.513 . S
C273 C55 1.520 . S
C277 C16 1.521 . S
C291 C69 1.514 . S
C295 C29 1.511 . S
C309 C49 1.506 . S
C313 C82 1.508 . S
C327 C30 1.508 . S
C331 C101 1.506 . S
C345 C56 1.515 . S
C349 C44 1.513 . S
C363 C68 1.521 . S
C367 C3 1.519 . S
C381 C17 1.513 . S
C385 C81 1.514 . S
