# Generated by pormake.
# Topology yfa, (5)-cn, num edge types: 1
# Building blocks:
#     Node 0, Type 0, BuildingBlock: BEQFEK_clean_sbu_0, # of connection points: 5
#     Node 1, Type 0, BuildingBlock: BEQFEK_clean_sbu_0, # of connection points: 5
#     Node 2, Type 0, BuildingBlock: BEQFEK_clean_sbu_0, # of connection points: 5
#     Node 3, Type 0, BuildingBlock: BEQFEK_clean_sbu_0, # of connection points: 5
#     Node 4, Type 0, BuildingBlock: BEQFEK_clean_sbu_0, # of connection points: 5
#     Node 5, Type 0, BuildingBlock: BEQFEK_clean_sbu_0, # of connection points: 5
#     Node 6, Type 0, BuildingBlock: BEQFEK_clean_sbu_0, # of connection points: 5
#     Node 7, Type 0, BuildingBlock: BEQFEK_clean_sbu_0, # of connection points: 5
#     Node 8, Type 0, BuildingBlock: BEQFEK_clean_sbu_0, # of connection points: 5
#     Node 9, Type 0, BuildingBlock: BEQFEK_clean_sbu_0, # of connection points: 5
#     Node 10, Type 0, BuildingBlock: BEQFEK_clean_sbu_0, # of connection points: 5
#     Node 11, Type 0, BuildingBlock: BEQFEK_clean_sbu_0, # of connection points: 5
#     Node 12, Type 0, BuildingBlock: BEQFEK_clean_sbu_0, # of connection points: 5
#     Node 13, Type 0, BuildingBlock: BEQFEK_clean_sbu_0, # of connection points: 5
#     Node 14, Type 0, BuildingBlock: BEQFEK_clean_sbu_0, # of connection points: 5
#     Node 15, Type 0, BuildingBlock: BEQFEK_clean_sbu_0, # of connection points: 5
#     Edge 16, Type (0, 0), BuildingBlock: XUDNAN_clean_linker_2, # of connection points: 2
#     Edge 17, Type (0, 0), BuildingBlock: XUDNAN_clean_linker_2, # of connection points: 2
#     Edge 18, Type (0, 0), BuildingBlock: XUDNAN_clean_linker_2, # of connection points: 2
#     Edge 19, Type (0, 0), BuildingBlock: XUDNAN_clean_linker_2, # of connection points: 2
#     Edge 20, Type (0, 0), BuildingBlock: XUDNAN_clean_linker_2, # of connection points: 2
#     Edge 21, Type (0, 0), BuildingBlock: XUDNAN_clean_linker_2, # of connection points: 2
#     Edge 22, Type (0, 0), BuildingBlock: XUDNAN_clean_linker_2, # of connection points: 2
#     Edge 23, Type (0, 0), BuildingBlock: XUDNAN_clean_linker_2, # of connection points: 2
#     Edge 24, Type (0, 0), BuildingBlock: XUDNAN_clean_linker_2, # of connection points: 2
#     Edge 25, Type (0, 0), BuildingBlock: XUDNAN_clean_linker_2, # of connection points: 2
#     Edge 26, Type (0, 0), BuildingBlock: XUDNAN_clean_linker_2, # of connection points: 2
#     Edge 27, Type (0, 0), BuildingBlock: XUDNAN_clean_linker_2, # of connection points: 2
#     Edge 28, Type (0, 0), BuildingBlock: XUDNAN_clean_linker_2, # of connection points: 2
#     Edge 29, Type (0, 0), BuildingBlock: XUDNAN_clean_linker_2, # of connection points: 2
#     Edge 30, Type (0, 0), BuildingBlock: XUDNAN_clean_linker_2, # of connection points: 2
#     Edge 31, Type (0, 0), BuildingBlock: XUDNAN_clean_linker_2, # of connection points: 2
#     Edge 32, Type (0, 0), BuildingBlock: XUDNAN_clean_linker_2, # of connection points: 2
#     Edge 33, Type (0, 0), BuildingBlock: XUDNAN_clean_linker_2, # of connection points: 2
#     Edge 34, Type (0, 0), BuildingBlock: XUDNAN_clean_linker_2, # of connection points: 2
#     Edge 35, Type (0, 0), BuildingBlock: XUDNAN_clean_linker_2, # of connection points: 2
#     Edge 36, Type (0, 0), BuildingBlock: XUDNAN_clean_linker_2, # of connection points: 2
#     Edge 37, Type (0, 0), BuildingBlock: XUDNAN_clean_linker_2, # of connection points: 2
#     Edge 38, Type (0, 0), BuildingBlock: XUDNAN_clean_linker_2, # of connection points: 2
#     Edge 39, Type (0, 0), BuildingBlock: XUDNAN_clean_linker_2, # of connection points: 2
#     Edge 40, Type (0, 0), BuildingBlock: XUDNAN_clean_linker_2, # of connection points: 2
#     Edge 41, Type (0, 0), BuildingBlock: XUDNAN_clean_linker_2, # of connection points: 2
#     Edge 42, Type (0, 0), BuildingBlock: XUDNAN_clean_linker_2, # of connection points: 2
#     Edge 43, Type (0, 0), BuildingBlock: XUDNAN_clean_linker_2, # of connection points: 2
#     Edge 44, Type (0, 0), BuildingBlock: XUDNAN_clean_linker_2, # of connection points: 2
#     Edge 45, Type (0, 0), BuildingBlock: XUDNAN_clean_linker_2, # of connection points: 2
#     Edge 46, Type (0, 0), BuildingBlock: XUDNAN_clean_linker_2, # of connection points: 2
#     Edge 47, Type (0, 0), BuildingBlock: XUDNAN_clean_linker_2, # of connection points: 2
#     Edge 48, Type (0, 0), BuildingBlock: XUDNAN_clean_linker_2, # of connection points: 2
#     Edge 49, Type (0, 0), BuildingBlock: XUDNAN_clean_linker_2, # of connection points: 2
#     Edge 50, Type (0, 0), BuildingBlock: XUDNAN_clean_linker_2, # of connection points: 2
#     Edge 51, Type (0, 0), BuildingBlock: XUDNAN_clean_linker_2, # of connection points: 2
#     Edge 52, Type (0, 0), BuildingBlock: XUDNAN_clean_linker_2, # of connection points: 2
#     Edge 53, Type (0, 0), BuildingBlock: XUDNAN_clean_linker_2, # of connection points: 2
#     Edge 54, Type (0, 0), BuildingBlock: XUDNAN_clean_linker_2, # of connection points: 2
#     Edge 55, Type (0, 0), BuildingBlock: XUDNAN_clean_linker_2, # of connection points: 2
# Relax obj value: 0.789
# Max RMSD: 0.296
# Mean RMSD: 0.296
data_MOF--net-yfa--node1-BEQFEK_clean_sbu_0--edge1-XUDNAN_clean_linker_2
_symmetry_space_group_name_H-M    P1
_symmetry_Int_Tables_number       1
_symmetry_cell_setting            triclinic
loop_
_symmetry_equiv_pos_as_xyz
'x, y, z'
_cell_length_a     49.406258
_cell_length_b     49.435783
_cell_length_c     30.15383
_cell_angle_alpha  89.956304
_cell_angle_beta   90.019799
_cell_angle_gamma 89.970313
loop_
_atom_site_label
_atom_site_type_symbol
_atom_site_fract_x
_atom_site_fract_y
_atom_site_fract_z
_atom_type_partial_charge
Co0 Co 0.64488 0.03429 0.16175 0.0
Co1 Co 0.64696 0.0836 0.10249 0.0
C2 C 0.69238 0.04834 0.1274 0.0
O3 O 0.67521 0.03003 0.12148 0.0
O4 O 0.68493 0.0722 0.11836 0.0
C5 C 0.64751 0.97895 0.17551 0.0
O6 O 0.64933 0.9796 0.13207 0.0
C7 C 0.65607 0.09886 0.01223 0.0
C8 C 0.6487 0.14291 0.01106 0.0
C9 C 0.65559 0.12108 0.98456 0.0
N10 N 0.64969 0.10697 0.05325 0.0
N11 N 0.64559 0.13339 0.05268 0.0
C12 C 0.66348 0.0704 0.00036 0.0
H13 H 0.6643 0.05746 0.03042 0.0
H14 H 0.64848 0.06191 0.97686 0.0
H15 H 0.68343 0.07025 0.98345 0.0
C16 C 0.59336 0.02318 0.11621 0.0
N17 N 0.61583 0.03776 0.12384 0.0
N18 N 0.61822 0.057 0.0939 0.0
C19 C 0.59696 0.05506 0.06581 0.0
C20 C 0.58074 0.03353 0.07898 0.0
C21 C 0.58508 -0.0012 0.14236 0.0
H22 H 0.59348 0.98042 0.12638 0.0
H23 H 0.56274 0.99671 0.14317 0.0
H24 H 0.59282 0.00016 0.17679 0.0
O25 O 0.64676 0.06756 0.20047 0.0
O26 O 0.63808 0.10308 0.15689 0.0
H27 H 0.56922 0.07452 0.02075 0.0
H28 H 0.60211 0.06729 -0.00152 0.0
C29 C 0.59119 0.07417 0.02851 0.0
H30 H 0.59807 0.09485 0.03704 0.0
H31 H 0.64024 0.1448 0.08045 0.0
O32 O 0.6442 0.00084 0.19688 0.0
C33 C 0.64207 0.09288 0.19527 0.0
Co34 Co 0.4553 0.63985 0.15411 0.0
Co35 Co 0.41344 0.65475 0.08009 0.0
C36 C 0.44682 0.69667 0.12351 0.0
O37 O 0.45752 0.67854 0.14744 0.0
O38 O 0.42905 0.69113 0.09434 0.0
C39 C 0.50569 0.64318 0.20217 0.0
O40 O 0.50597 0.66868 0.18994 0.0
C41 C 0.39605 0.66624 0.98942 0.0
C42 C 0.35404 0.65109 0.99053 0.0
C43 C 0.37378 0.66147 0.96266 0.0
N44 N 0.38983 0.65874 0.031 0.0
N45 N 0.36443 0.65042 0.03171 0.0
C46 C 0.4237 0.67484 0.97495 0.0
H47 H 0.43879 0.67101 0.00152 0.0
H48 H 0.42964 0.66412 0.94413 0.0
H49 H 0.42335 0.69682 0.96744 0.0
C50 C 0.4746 0.60221 0.08743 0.0
N51 N 0.45828 0.62265 0.09937 0.0
N52 N 0.44014 0.62703 0.06822 0.0
C53 C 0.44399 0.60844 0.03576 0.0
C54 C 0.4662 0.59251 0.04689 0.0
C55 C 0.49653 0.59067 0.11608 0.0
H56 H 0.48739 0.58224 0.14669 0.0
H57 H 0.51079 0.60699 0.12549 0.0
H58 H 0.50805 0.57449 0.09896 0.0
O59 O 0.42055 0.63095 0.18247 0.0
O60 O 0.39071 0.64434 0.13167 0.0
H61 H 0.42639 0.58233 0.98623 0.0
H62 H 0.43078 0.61691 0.96979 0.0
C63 C 0.42508 0.6036 -0.00216 0.0
H64 H 0.40398 0.60816 0.00775 0.0
H65 H 0.35475 0.64272 0.05976 0.0
O66 O 0.48552 0.62837 0.19234 0.0
C67 C 0.39624 0.63478 0.16985 0.0
Co68 Co 0.84967 0.46047 0.11604 0.0
Co69 Co 0.8371 0.41535 0.0473 0.0
C70 C 0.79511 0.44066 0.10916 0.0
O71 O 0.81101 0.45923 0.12151 0.0
O72 O 0.80279 0.42256 0.0818 0.0
C73 C 0.84826 0.50625 0.17532 0.0
O74 O 0.82194 0.50607 0.16931 0.0
C75 C 0.81713 0.40633 0.95789 0.0
C76 C 0.82378 0.36268 0.94746 0.0
C77 C 0.81512 0.38607 0.92635 0.0
N78 N 0.82685 0.39558 0.99561 0.0
N79 N 0.83031 0.36934 0.98948 0.0
C80 C 0.80973 0.43551 0.95245 0.0
H81 H 0.80534 0.44475 0.98522 0.0
H82 H 0.82675 0.44668 0.93713 0.0
H83 H 0.79191 0.43752 0.93025 0.0
C84 C 0.87716 0.48557 0.04186 0.0
N85 N 0.86045 0.46655 0.05801 0.0
N86 N 0.8583 0.44647 0.02971 0.0
C87 C 0.87517 0.45155 0.99532 0.0
C88 C 0.88709 0.47678 0.0015 0.0
C89 C 0.88711 0.50918 0.06833 0.0
H90 H 0.90096 0.50181 0.09469 0.0
H91 H 0.86972 0.51943 0.08443 0.0
H92 H 0.89815 0.52398 0.04745 0.0
O93 O 0.86486 0.42576 0.13825 0.0
O94 O 0.85861 0.39289 0.08865 0.0
H95 H 0.90523 0.42977 0.95818 0.0
H96 H 0.87547 0.43837 0.92785 0.0
C97 C 0.88289 0.43134 0.96058 0.0
H98 H 0.87454 0.4111 0.96816 0.0
H99 H 0.83811 0.35619 0.01339 0.0
O100 O 0.86301 0.48898 0.15555 0.0
C101 C 0.86773 0.40131 0.12571 0.0
Co102 Co 0.01144 0.85394 0.13949 0.0
Co103 Co 0.06373 0.84284 0.08809 0.0
C104 C 0.02306 0.80026 0.11875 0.0
O105 O 0.004 0.81726 0.12136 0.0
O106 O 0.04661 0.80792 0.10712 0.0
C107 C 0.95571 0.85943 0.16435 0.0
O108 O 0.95108 0.84183 0.13263 0.0
C109 C 0.08188 0.82984 0.00072 0.0
C110 C 0.12518 0.84051 0.00244 0.0
C111 C 0.10436 0.83316 0.97399 0.0
N112 N 0.08893 0.83529 0.04268 0.0
N113 N 0.11507 0.84077 0.04391 0.0
C114 C 0.05317 0.82668 0.9857 0.0
H115 H 0.03929 0.82512 0.01452 0.0
H116 H 0.04725 0.84423 0.96488 0.0
H117 H 0.05132 0.80824 0.96497 0.0
C118 C 0.00661 0.8992 0.07757 0.0
N119 N 0.01786 0.87571 0.09043 0.0
N120 N 0.04065 0.87183 0.06902 0.0
C121 C 0.04515 0.89346 0.04263 0.0
C122 C 0.02353 0.91133 0.04681 0.0
C123 C 0.98281 0.91191 0.10025 0.0
H124 H 0.96513 0.89821 0.09757 0.0
H125 H 0.9774 0.93179 0.08568 0.0
H126 H 0.98749 0.91473 0.13593 0.0
O127 O 0.0433 0.85486 0.1808 0.0
O128 O 0.08186 0.85424 0.14253 0.0
H129 H 0.08852 0.89192 0.03908 0.0
H130 H 0.07352 0.92024 0.00968 0.0
C131 C 0.07114 0.89859 0.01852 0.0
H132 H 0.07122 0.88674 0.98737 0.0
H133 H 0.12541 0.84704 0.0723 0.0
O134 O 0.97982 0.86695 0.17229 0.0
C135 C 0.06916 0.85587 0.17921 0.0
Co136 Co 0.64197 0.46992 0.35312 0.0
Co137 Co 0.6409 0.42197 0.41764 0.0
C138 C 0.69096 0.4498 0.37829 0.0
O139 O 0.67891 0.47226 0.37399 0.0
O140 O 0.6784 0.4299 0.39546 0.0
C141 C 0.64653 0.5216 0.30823 0.0
O142 O 0.66798 0.52609 0.33288 0.0
C143 C 0.64827 0.41479 0.5106 0.0
C144 C 0.63448 0.37314 0.52382 0.0
C145 C 0.64251 0.39686 0.54465 0.0
N146 N 0.64323 0.40259 0.4718 0.0
N147 N 0.63551 0.37747 0.47967 0.0
C148 C 0.65755 0.44354 0.51426 0.0
H149 H 0.63978 0.45723 0.5133 0.0
H150 H 0.6687 0.44686 0.54576 0.0
H151 H 0.67067 0.44873 0.48561 0.0
C152 C 0.59629 0.48866 0.40682 0.0
N153 N 0.61782 0.47249 0.40007 0.0
N154 N 0.61633 0.4514 0.4263 0.0
C155 C 0.59308 0.45294 0.44963 0.0
C156 C 0.57977 0.4768 0.43842 0.0
C157 C 0.58909 0.51217 0.37779 0.0
H158 H 0.58409 0.50468 0.3441 0.0
H159 H 0.60667 0.526 0.37526 0.0
H160 H 0.57148 0.52356 0.39091 0.0
O161 O 0.63668 0.43462 0.32183 0.0
O162 O 0.62765 0.40033 0.36762 0.0
H163 H 0.58687 0.41055 0.4612 0.0
H164 H 0.55979 0.43206 0.48158 0.0
C165 C 0.58199 0.43022 0.47698 0.0
H166 H 0.59165 0.43064 0.51015 0.0
H167 H 0.62939 0.36387 0.45517 0.0
O168 O 0.6344 0.49902 0.31095 0.0
C169 C 0.63065 0.40978 0.32849 0.0
Co170 Co 0.02724 0.62455 0.36907 0.0
Co171 Co 0.0818 0.64521 0.40731 0.0
C172 C 0.0389 0.68243 0.36979 0.0
O173 O 0.02273 0.66292 0.36394 0.0
O174 O 0.0624 0.6787 0.38617 0.0
C175 C 0.9703 0.61853 0.35143 0.0
O176 O 0.96733 0.64165 0.37232 0.0
C177 C 0.10959 0.6647 0.48508 0.0
C178 C 0.15214 0.65435 0.47109 0.0
C179 C 0.13506 0.66376 0.50417 0.0
N180 N 0.11147 0.65607 0.44304 0.0
N181 N 0.13712 0.65073 0.43431 0.0
C182 C 0.08328 0.6691 0.50859 0.0
H183 H 0.06612 0.66877 0.48484 0.0
H184 H 0.08035 0.65311 0.53401 0.0
H185 H 0.08373 0.68885 0.52602 0.0
C186 C 0.02584 0.59283 0.44887 0.0
N187 N 0.03589 0.61403 0.42651 0.0
N188 N 0.06061 0.61918 0.44003 0.0
C189 C 0.06774 0.59994 0.46976 0.0
C190 C 0.04581 0.58267 0.47653 0.0
C191 C 0.00021 0.57864 0.43599 0.0
H192 H 0.00344 0.5676 0.40441 0.0
H193 H 0.98388 0.59372 0.43117 0.0
H194 H 0.99364 0.56398 0.46165 0.0
O195 O 0.0561 0.61262 0.32748 0.0
O196 O 0.09548 0.62788 0.35326 0.0
H197 H 0.09931 0.57387 0.49554 0.0
H198 H 0.10059 0.60842 0.51354 0.0
C199 C 0.09622 0.59513 0.48484 0.0
H200 H 0.11062 0.60021 0.45787 0.0
H201 H 0.14398 0.64248 0.4045 0.0
O202 O 0.99366 0.60799 0.348 0.0
C203 C 0.0817 0.61525 0.32427 0.0
Co204 Co 0.85207 0.04315 0.3623 0.0
Co205 Co 0.84609 0.09762 0.4094 0.0
C206 C 0.80025 0.05782 0.39065 0.0
O207 O 0.81623 0.03799 0.38659 0.0
O208 O 0.80952 0.08143 0.39778 0.0
C209 C 0.84564 0.9955 0.30948 0.0
O210 O 0.82042 0.00346 0.30491 0.0
C211 C 0.83451 0.11765 0.49525 0.0
C212 C 0.84943 0.15969 0.49442 0.0
C213 C 0.83936 0.13971 0.52232 0.0
N214 N 0.84151 0.12415 0.45371 0.0
N215 N 0.84971 0.14956 0.45292 0.0
C216 C 0.82845 0.08927 0.50964 0.0
H217 H 0.82978 0.07503 0.48134 0.0
H218 H 0.84283 0.08289 0.53595 0.0
H219 H 0.8077 0.08836 0.52359 0.0
C220 C 0.89926 0.03739 0.41978 0.0
N221 N 0.87655 0.05022 0.40722 0.0
N222 N 0.87475 0.07364 0.42738 0.0
C223 C 0.89692 0.0768 0.45315 0.0
C224 C 0.91306 0.05379 0.4494 0.0
C225 C 0.90925 0.01192 0.39839 0.0
H226 H 0.91286 0.0158 0.36264 0.0
H227 H 0.89344 0.99606 0.40106 0.0
H228 H 0.92827 0.0044 0.41347 0.0
O229 O 0.85202 0.07314 0.31783 0.0
O230 O 0.85497 0.11314 0.35143 0.0
H231 H 0.89944 0.12002 0.45728 0.0
H232 H 0.92461 0.10229 0.49018 0.0
C233 C 0.90335 0.10206 0.4784 0.0
H234 H 0.88993 0.10331 0.50778 0.0
H235 H 0.85752 0.15922 0.42491 0.0
O236 O 0.86205 0.00972 0.33197 0.0
C237 C 0.85405 0.0989 0.3162 0.0
Co238 Co 0.50995 0.84072 0.34859 0.0
Co239 Co 0.46129 0.84189 0.41238 0.0
C240 C 0.49123 0.79436 0.37999 0.0
O241 O 0.512 0.80871 0.38507 0.0
O242 O 0.4696 0.80296 0.39763 0.0
C243 C 0.56519 0.83625 0.32622 0.0
O244 O 0.56684 0.82663 0.36676 0.0
C245 C 0.45043 0.83596 0.50486 0.0
C246 C 0.40835 0.85006 0.51308 0.0
C247 C 0.43089 0.8413 0.53656 0.0
N248 N 0.44022 0.84184 0.46481 0.0
N249 N 0.41489 0.84984 0.46965 0.0
C250 C 0.47854 0.82544 0.51192 0.0
H251 H 0.49293 0.84261 0.51361 0.0
H252 H 0.47988 0.81368 0.54322 0.0
H253 H 0.48468 0.81257 0.48353 0.0
C254 C 0.5256 0.89041 0.3954 0.0
N255 N 0.50972 0.86869 0.38907 0.0
N256 N 0.48986 0.86868 0.41812 0.0
C257 C 0.49215 0.89121 0.4433 0.0
C258 C 0.51516 0.90531 0.43014 0.0
C259 C 0.54908 0.89794 0.36655 0.0
H260 H 0.54468 0.89284 0.33149 0.0
H261 H 0.56715 0.8864 0.37742 0.0
H262 H 0.55374 0.91985 0.36898 0.0
O263 O 0.47553 0.843 0.31287 0.0
O264 O 0.44091 0.85153 0.35859 0.0
H265 H 0.47382 0.92171 0.48526 0.0
H266 H 0.47547 0.8884 0.50848 0.0
C267 C 0.47196 0.89989 0.47747 0.0
H268 H 0.45115 0.89557 0.46568 0.0
H269 H 0.40245 0.85612 0.4436 0.0
O270 O 0.54214 0.84265 0.3107 0.0
C271 C 0.45046 0.84838 0.31949 0.0
Co272 Co 0.37286 0.94366 0.8663 0.0
Co273 Co 0.36514 0.88975 0.91804 0.0
C274 C 0.31994 0.91699 0.8664 0.0
O275 O 0.33485 0.93703 0.85684 0.0
O276 O 0.32872 0.89754 0.8903 0.0
C277 C 0.36741 0.99534 0.82022 0.0
O278 O 0.34111 0.99151 0.8197 0.0
C279 C 0.35475 0.86539 0.00401 0.0
C280 C 0.37476 0.82576 -0.00323 0.0
C281 C 0.36331 0.84298 0.02786 0.0
N282 N 0.36144 0.86185 0.96121 0.0
N283 N 0.37249 0.83766 0.9568 0.0
C284 C 0.34441 0.89148 0.02265 0.0
H285 H 0.33985 0.90613 0.99576 0.0
H286 H 0.35953 0.90024 0.04574 0.0
H287 H 0.32572 0.88758 0.04199 0.0
C288 C 0.40005 0.96047 0.94591 0.0
N289 N 0.38264 0.9435 0.92601 0.0
N290 N 0.38376 0.91969 0.94522 0.0
C291 C 0.4036 0.92033 0.97613 0.0
C292 C 0.41436 0.94635 0.97793 0.0
C293 C 0.40771 0.98755 0.92752 0.0
H294 H 0.38935 -0.00159 0.91605 0.0
H295 H 0.41821 -4e-05 0.95293 0.0
H296 H 0.4216 0.98472 0.89898 0.0
O297 O 0.39377 0.91552 0.83417 0.0
O298 O 0.38764 0.87625 0.86907 0.0
H299 H 0.41313 0.87782 0.97402 0.0
H300 H 0.43823 0.89841 0.00168 0.0
C301 C 0.41623 0.89553 0.99595 0.0
H302 H 0.40676 0.89136 0.02855 0.0
H303 H 0.38082 0.83039 0.92732 0.0
O304 O 0.3828 0.97793 0.83821 0.0
C305 C 0.39787 0.89017 0.8378 0.0
Co306 Co 0.52354 0.36814 0.87999 0.0
Co307 Co 0.57713 0.35129 0.92633 0.0
C308 C 0.54007 0.31135 0.88089 0.0
O309 O 0.52276 0.32956 0.87298 0.0
O310 O 0.56202 0.31667 0.9013 0.0
C311 C 0.4687 0.3682 0.84802 0.0
O312 O 0.46833 0.34247 0.85887 0.0
C313 C 0.60162 0.33388 0.0088 0.0
C314 C 0.6445 0.34491 -0.00047 0.0
C315 C 0.62619 0.3356 0.03094 0.0
N316 N 0.60521 0.34218 0.96681 0.0
N317 N 0.63105 0.348 0.96102 0.0
C318 C 0.57439 0.32836 0.02863 0.0
H319 H 0.55817 0.33052 0.00344 0.0
H320 H 0.5706 0.34239 0.05669 0.0
H321 H 0.57386 0.30741 0.04174 0.0
C322 C 0.51546 0.39956 0.95864 0.0
N323 N 0.52793 0.37874 0.93865 0.0
N324 N 0.55219 0.37543 0.95557 0.0
C325 C 0.55656 0.39544 0.98523 0.0
C326 C 0.53336 0.41145 0.98818 0.0
C327 C 0.48981 0.412 0.94161 0.0
H328 H 0.47511 0.39587 0.93317 0.0
H329 H 0.48047 0.42558 0.96651 0.0
H330 H 0.49429 0.42395 0.91132 0.0
O331 O 0.55364 0.38307 0.84352 0.0
O332 O 0.59247 0.37035 0.87496 0.0
H333 H 0.59971 0.39855 0.97816 0.0
H334 H 0.58494 0.42349 0.01515 0.0
C335 C 0.58391 0.40221 0.0036 0.0
H336 H 0.58817 0.3889 0.03236 0.0
H337 H 0.6391 0.35593 0.93176 0.0
O338 O 0.48985 0.3822 0.85483 0.0
C339 C 0.57944 0.38243 0.84437 0.0
Co340 Co 0.13036 0.5316 0.83422 0.0
Co341 Co 0.13929 0.58012 0.89503 0.0
C342 C 0.18163 0.53895 0.86646 0.0
O343 O 0.1636 0.52099 0.86327 0.0
O344 O 0.17479 0.56282 0.87749 0.0
C345 C 0.12892 0.4784 0.79582 0.0
O346 O 0.15073 0.47373 0.81949 0.0
C347 C 0.14889 0.58749 0.98689 0.0
C348 C 0.13772 0.62991 0.0001 0.0
C349 C 0.14406 0.60566 0.02099 0.0
N350 N 0.14469 0.60002 0.94809 0.0
N351 N 0.13868 0.62561 0.95593 0.0
C352 C 0.15572 0.55804 0.99044 0.0
H353 H 0.13711 0.54584 0.98558 0.0
H354 H 0.16473 0.55322 0.02323 0.0
H355 H 0.17014 0.55237 0.96388 0.0
C356 C 0.08046 0.52512 0.88506 0.0
N357 N 0.10459 0.53675 0.87751 0.0
N358 N 0.10786 0.55761 0.90376 0.0
C359 C 0.08512 0.56053 0.92827 0.0
C360 C 0.06722 0.53977 0.91758 0.0
C361 C 0.06899 0.5028 0.85726 0.0
H362 H 0.06765 0.50976 0.82237 0.0
H363 H 0.08277 0.4851 0.85847 0.0
H364 H 0.04855 0.4965 0.86831 0.0
O365 O 0.13469 0.56577 0.79855 0.0
O366 O 0.13277 0.60224 0.84215 0.0
H367 H 0.08685 0.60288 0.9431 0.0
H368 H 0.05811 0.58549 0.9674 0.0
C369 C 0.07985 0.58381 0.95873 0.0
H370 H 0.09143 0.58078 0.98978 0.0
H371 H 0.13323 0.63954 0.93146 0.0
O372 O 0.1185 0.50192 0.79567 0.0
C373 C 0.13424 0.5915 0.80367 0.0
Co374 Co 0.96806 0.1395 0.85441 0.0
Co375 Co 0.91225 0.13762 0.90098 0.0
C376 C 0.9365 0.18697 0.85344 0.0
O377 O 0.96062 0.17804 0.85338 0.0
O378 O 0.91744 0.17328 0.87096 0.0
C379 C 0.01824 0.14789 0.80452 0.0
O380 O 0.00897 0.17179 0.79297 0.0
C381 C 0.88206 0.15175 0.98004 0.0
C382 C 0.84473 0.12773 0.97209 0.0
C383 C 0.85852 0.14418 0.00171 0.0
N384 N 0.8823 0.14003 0.93994 0.0
N385 N 0.85959 0.12632 0.93479 0.0
C386 C 0.9057 0.16665 -0.00078 0.0
H387 H 0.92304 0.16664 0.97586 0.0
H388 H 0.91182 0.15736 0.03121 0.0
H389 H 0.89973 0.18789 0.00595 0.0
C390 C 0.98446 0.10916 0.93329 0.0
N391 N 0.9664 0.12466 0.91162 0.0
N392 N 0.94261 0.12237 0.93057 0.0
C393 C 0.94451 0.10434 0.96406 0.0
C394 C 0.97121 0.0955 0.96709 0.0
C395 C 0.01234 0.1034 0.91628 0.0
H396 H 0.01078 0.09013 0.88675 0.0
H397 H 0.02227 0.12259 0.90635 0.0
H398 H 0.02509 0.09314 0.94143 0.0
O399 O 0.94051 0.1233 0.81401 0.0
O400 O 0.90262 0.11464 0.85106 0.0
H401 H 0.92561 0.07387 0.00574 0.0
H402 H 0.91374 0.10777 0.01346 0.0
C403 C 0.9206 0.09298 0.98829 0.0
H404 H 0.90367 0.08951 0.96478 0.0
H405 H 0.85507 0.11455 0.90702 0.0
O406 O 0.00396 0.13248 0.8288 0.0
C407 C 0.91638 0.11411 0.81541 0.0
Co408 Co 0.35437 0.53624 0.6254 0.0
Co409 Co 0.33985 0.5874 0.57236 0.0
C410 C 0.2988 0.54844 0.61366 0.0
O411 O 0.31638 0.53018 0.61906 0.0
O412 O 0.30538 0.57159 0.59845 0.0
C413 C 0.35735 0.4825 0.65974 0.0
O414 O 0.33563 0.47819 0.63566 0.0
C415 C 0.32082 0.60294 0.48616 0.0
C416 C 0.32628 0.6472 0.48442 0.0
C417 C 0.31916 0.6252 0.45834 0.0
N418 N 0.32905 0.61123 0.52627 0.0
N419 N 0.33171 0.63782 0.52548 0.0
C420 C 0.31528 0.57397 0.4749 0.0
H421 H 0.30706 0.56325 0.50431 0.0
H422 H 0.33439 0.56377 0.46539 0.0
H423 H 0.30085 0.57249 0.44677 0.0
C424 C 0.3899 0.52514 0.55098 0.0
N425 N 0.37039 0.53971 0.57059 0.0
N426 N 0.36631 0.56232 0.5487 0.0
C427 C 0.38454 0.56341 0.5152 0.0
C428 C 0.39944 0.53956 0.51505 0.0
C429 C 0.40137 0.49951 0.56968 0.0
H430 H 0.41098 0.50386 0.60217 0.0
H431 H 0.38475 0.48483 0.57531 0.0
H432 H 0.41666 0.49035 0.54734 0.0
O433 O 0.36068 0.56915 0.66193 0.0
O434 O 0.35613 0.60691 0.62247 0.0
H435 H 0.37977 0.60591 0.50063 0.0
H436 H 0.4122 0.59159 0.48572 0.0
C437 C 0.39008 0.58778 0.48727 0.0
H438 H 0.38316 0.58382 0.45297 0.0
H439 H 0.3386 0.64935 0.5522 0.0
O440 O 0.36886 0.50547 0.65866 0.0
C441 C 0.36175 0.59488 0.65871 0.0
Co442 Co 0.94117 0.36384 0.63667 0.0
Co443 Co 0.90356 0.35548 0.5546 0.0
C444 C 0.92545 0.30905 0.60903 0.0
O445 O 0.93897 0.32518 0.63297 0.0
O446 O 0.91044 0.31761 0.57756 0.0
C447 C 0.98571 0.35747 0.69749 0.0
O448 O 0.98615 0.33204 0.68493 0.0
C449 C 0.89847 0.34302 0.46059 0.0
C450 C 0.85908 0.36125 0.44324 0.0
C451 C 0.88146 0.34849 0.42492 0.0
N452 N 0.88693 0.35268 0.49771 0.0
N453 N 0.86318 0.36316 0.48727 0.0
C454 C 0.92507 0.32848 0.46019 0.0
H455 H 0.92804 0.31752 0.49193 0.0
H456 H 0.94177 0.3433 0.45694 0.0
H457 H 0.92609 0.31404 0.43208 0.0
C458 C 0.97247 0.39594 0.57462 0.0
N459 N 0.95207 0.37877 0.58307 0.0
N460 N 0.93562 0.3777 0.54886 0.0
C461 C 0.9447 0.39543 0.51792 0.0
C462 C 0.96851 0.40722 0.5333 0.0
C463 C 0.99409 0.40339 0.60721 0.0
H464 H 0.98494 0.41521 0.63463 0.0
H465 H 0.00324 0.38475 0.62105 0.0
H466 H 0.01033 0.41563 0.59162 0.0
O467 O 0.9057 0.37823 0.65461 0.0
O468 O 0.87766 0.37196 0.59774 0.0
H469 H 0.90694 0.40259 0.4844 0.0
H470 H 0.93403 0.42535 0.46876 0.0
C471 C 0.92897 0.40421 0.47799 0.0
H472 H 0.93423 0.39105 0.44953 0.0
H473 H 0.85027 0.37259 0.50989 0.0
O474 O 0.9675 0.37318 0.68254 0.0
C475 C 0.88229 0.38005 0.63719 0.0
Co476 Co 0.13442 0.97015 0.65313 0.0
Co477 Co 0.13105 0.91826 0.59486 0.0
C478 C 0.18286 0.93768 0.63889 0.0
O479 O 0.17234 0.95992 0.65089 0.0
O480 O 0.16926 0.92034 0.61694 0.0
C481 C 0.14591 0.0255 0.67874 0.0
O482 O 0.16401 0.02554 0.64685 0.0
C483 C 0.1386 0.89112 0.50967 0.0
C484 C 0.1132 0.85474 0.51816 0.0
C485 C 0.12854 0.86874 0.4872 0.0
N486 N 0.12915 0.89051 0.55143 0.0
N487 N 0.11458 0.86836 0.55665 0.0
C488 C 0.1545 0.91425 0.49098 0.0
H489 H 0.15468 0.93157 0.51436 0.0
H490 H 0.14598 0.92068 0.45858 0.0
H491 H 0.17568 0.90761 0.48541 0.0
C492 C 0.10236 0.99296 0.57992 0.0
N493 N 0.11796 0.97316 0.597 0.0
N494 N 0.11529 0.95114 0.57293 0.0
C495 C 0.09713 0.9561 0.54033 0.0
C496 C 0.0888 0.98291 0.54327 0.0
C497 C 0.09672 0.01927 0.60281 0.0
H498 H 0.11521 0.03193 0.60196 0.0
H499 H 0.08002 0.03068 0.58689 0.0
H500 H 0.09121 0.01543 0.63788 0.0
O501 O 0.11589 0.94228 0.68949 0.0
O502 O 0.11045 0.90609 0.64677 0.0
H503 H 0.08264 0.91569 0.52925 0.0
H504 H 0.06571 0.94123 0.49635 0.0
C505 C 0.08538 0.93484 0.51065 0.0
H506 H 0.09942 0.93112 0.48271 0.0
H507 H 0.10435 0.86331 0.58578 0.0
O508 O 0.13198 0.00435 0.68599 0.0
C509 C 0.10742 0.91817 0.68368 0.0
Co510 Co 0.54413 0.12812 0.64474 0.0
Co511 Co 0.59214 0.15402 0.59266 0.0
C512 C 0.54928 0.18745 0.63662 0.0
O513 O 0.53653 0.16634 0.64786 0.0
O514 O 0.57124 0.18608 0.61462 0.0
C515 C 0.48869 0.11898 0.66512 0.0
O516 O 0.48472 0.13984 0.6389 0.0
C517 C 0.61574 0.17511 0.5115 0.0
C518 C 0.65892 0.16559 0.5213 0.0
C519 C 0.64045 0.17438 0.48977 0.0
N520 N 0.61937 0.16645 0.55326 0.0
N521 N 0.64542 0.16184 0.55951 0.0
C522 C 0.58853 0.18012 0.49116 0.0
H523 H 0.5721 0.17414 0.51426 0.0
H524 H 0.58648 0.16905 0.45934 0.0
H525 H 0.58658 0.20201 0.48361 0.0
C526 C 0.54106 0.09348 0.56748 0.0
N527 N 0.5503 0.1161 0.58697 0.0
N528 N 0.57147 0.12533 0.56532 0.0
C529 C 0.57687 0.10806 0.53162 0.0
C530 C 0.55753 0.08755 0.53159 0.0
C531 C 0.5207 0.07507 0.58867 0.0
H532 H 0.50098 0.0857 0.59087 0.0
H533 H 0.5178 0.05597 0.5701 0.0
H534 H 0.52739 0.07001 0.6228 0.0
O535 O 0.57622 0.1209 0.68231 0.0
O536 O 0.61047 0.1395 0.64544 0.0
H537 H 0.60605 0.08933 0.48727 0.0
H538 H 0.59959 0.12423 0.4776 0.0
C539 C 0.60205 0.10888 0.50396 0.0
H540 H 0.61969 0.11441 0.52476 0.0
H541 H 0.65359 0.15381 0.5886 0.0
O542 O 0.5126 0.11029 0.67144 0.0
C543 C 0.60125 0.12684 0.67895 0.0
H544 H 0.62009 0.93458 0.14938 0.0
H545 H 0.67078 0.96593 0.25453 0.0
H546 H 0.66416 0.92365 0.29717 0.0
H547 H 0.57157 0.91259 0.2174 0.0
H548 H 0.56197 0.88313 0.18589 0.0
H549 H 0.57738 0.91133 0.15839 0.0
H550 H 0.6148 0.87961 0.12766 0.0
H551 H 0.59949 0.85124 0.1557 0.0
H552 H 0.63456 0.85935 0.16544 0.0
H553 H 0.64614 0.88255 0.33319 0.0
H554 H 0.61291 0.8509 0.36491 0.0
H555 H 0.57095 0.84788 0.23877 0.0
C556 C 0.63064 0.93193 0.18059 0.0
C557 C 0.6463 0.95297 0.19861 0.0
C558 C 0.65891 0.94969 0.24029 0.0
C559 C 0.6555 0.92567 0.26436 0.0
C560 C 0.6392 0.90542 0.24634 0.0
C561 C 0.62673 0.90846 0.2055 0.0
C562 C 0.60572 0.88675 0.1977 0.0
C563 C 0.57752 0.8992 0.18942 0.0
C564 C 0.61416 0.86813 0.15935 0.0
C565 C 0.60707 0.87205 0.24163 0.0
C566 C 0.62737 0.88231 0.26841 0.0
C567 C 0.63057 0.87396 0.31226 0.0
C568 C 0.61163 0.85588 0.32999 0.0
C569 C 0.5894 0.8471 0.30415 0.0
C570 C 0.58798 0.85415 0.25893 0.0
H571 H 0.59872 0.51894 0.26411 0.0
H572 H 0.66159 0.57528 0.30383 0.0
H573 H 0.63287 0.61343 0.27867 0.0
H574 H 0.57236 0.55626 0.16835 0.0
H575 H 0.538 0.54693 0.18131 0.0
H576 H 0.56542 0.52456 0.19568 0.0
H577 H 0.54909 0.5246 0.27741 0.0
H578 H 0.52203 0.54748 0.26372 0.0
H579 H 0.54592 0.55626 0.30655 0.0
H580 H 0.59504 0.64549 0.25383 0.0
H581 H 0.55264 0.66801 0.22989 0.0
H582 H 0.51459 0.58941 0.21471 0.0
C583 C 0.60688 0.53921 0.26664 0.0
C584 C 0.63243 0.54413 0.28588 0.0
C585 C 0.64211 0.57104 0.28891 0.0
C586 C 0.6259 0.59281 0.27489 0.0
C587 C 0.60017 0.5872 0.25818 0.0
C588 C 0.59087 0.56097 0.25382 0.0
C589 C 0.56177 0.56005 0.23878 0.0
C590 C 0.55925 0.54614 0.19333 0.0
C591 C 0.54365 0.5463 0.2737 0.0
C592 C 0.55595 0.5899 0.23557 0.0
C593 C 0.5783 0.60535 0.24632 0.0
C594 C 0.57746 0.63355 0.24523 0.0
C595 C 0.55328 0.64614 0.23185 0.0
C596 C 0.53031 0.63047 0.22043 0.0
C597 C 0.53172 0.60204 0.22317 0.0
H598 H 0.90183 0.51065 0.19425 0.0
H599 H 0.82367 0.54662 0.22362 0.0
H600 H 0.84608 0.57953 0.27354 0.0
H601 H 0.92946 0.51607 0.30325 0.0
H602 H 0.96308 0.52355 0.28357 0.0
H603 H 0.94065 0.50322 0.2504 0.0
H604 H 0.94666 0.53634 0.18432 0.0
H605 H 0.96918 0.55672 0.21724 0.0
H606 H 0.9397 0.57182 0.19215 0.0
H607 H 0.87801 0.60903 0.31949 0.0
H608 H 0.91625 0.63184 0.3574 0.0
H609 H 0.97203 0.57469 0.2974 0.0
C610 C 0.8893 0.52539 0.21111 0.0
C611 C 0.86103 0.52613 0.20506 0.0
C612 C 0.84542 0.54577 0.22779 0.0
C613 C 0.85795 0.56449 0.2562 0.0
C614 C 0.88596 0.56311 0.26141 0.0
C615 C 0.90135 0.54398 0.23947 0.0
C616 C 0.93102 0.54652 0.2503 0.0
C617 C 0.94166 0.52082 0.27326 0.0
C618 C 0.94761 0.55326 0.20852 0.0
C619 C 0.93005 0.57011 0.28185 0.0
C620 C 0.90399 0.57957 0.28792 0.0
C621 C 0.89848 0.60171 0.31511 0.0
C622 C 0.92027 0.61452 0.33645 0.0
C623 C 0.94706 0.60496 0.33046 0.0
C624 C 0.9518 0.58241 0.30298 0.0
H625 H 0.95945 0.89375 0.23429 0.0
H626 H 0.90136 0.85686 0.14489 0.0
H627 H 0.86497 0.88491 0.17764 0.0
H628 H 0.91365 0.9019 0.33033 0.0
H629 H 0.92864 0.93394 0.34477 0.0
H630 H 0.94886 0.90817 0.31853 0.0
H631 H 0.96187 0.94208 0.25641 0.0
H632 H 0.94155 0.96781 0.28215 0.0
H633 H 0.93548 0.9586 0.22518 0.0
H634 H 0.83628 0.9212 0.21455 0.0
H635 H 0.81793 0.96143 0.25326 0.0
H636 H 0.89579 0.97345 0.31705 0.0
C637 C 0.93899 0.89108 0.22215 0.0
C638 C 0.93319 0.87316 0.1871 0.0
C639 C 0.90619 0.87041 0.17195 0.0
C640 C 0.88542 0.88623 0.19035 0.0
C641 C 0.89206 0.90437 0.22404 0.0
C642 C 0.9182 0.90659 0.24003 0.0
C643 C 0.92076 0.92894 0.27378 0.0
C644 C 0.92842 0.91755 0.31957 0.0
C645 C 0.9411 0.95063 0.25843 0.0
C646 C 0.89216 0.93957 0.2734 0.0
C647 C 0.87573 0.92507 0.24496 0.0
C648 C 0.84886 0.93244 0.23742 0.0
C649 C 0.83865 0.95532 0.2594 0.0
C650 C 0.85544 0.97054 0.28814 0.0
C651 C 0.88237 0.96222 0.29547 0.0
H652 H 0.42094 0.00743 0.81633 0.0
H653 H 0.34213 0.03574 0.7725 0.0
H654 H 0.3644 0.07267 0.73047 0.0
H655 H 0.4531 0.07312 0.82747 0.0
H656 H 0.48509 0.06065 0.80726 0.0
H657 H 0.46251 0.03831 0.83654 0.0
H658 H 0.46341 0.00507 0.77004 0.0
H659 H 0.48579 0.02736 0.74042 0.0
H660 H 0.45423 0.01711 0.71561 0.0
H661 H 0.39622 0.10481 0.6896 0.0
H662 H 0.43434 0.12905 0.65403 0.0
H663 H 0.49119 0.07786 0.72497 0.0
C664 C 0.4082 0.02153 0.79843 0.0
C665 C 0.37979 0.01875 0.7977 0.0
C666 C 0.36396 0.03759 0.77359 0.0
C667 C 0.37642 0.05859 0.74968 0.0
C668 C 0.4046 0.06035 0.75048 0.0
C669 C 0.4202 0.04232 0.77444 0.0
C670 C 0.45007 0.04741 0.76837 0.0
C671 C 0.46347 0.05536 0.81254 0.0
C672 C 0.46419 0.02278 0.74735 0.0
C673 C 0.44899 0.07097 0.73669 0.0
C674 C 0.42267 0.07837 0.72688 0.0
C675 C 0.4169 0.09928 0.6973 0.0
C676 C 0.43864 0.11288 0.67723 0.0
C677 C 0.4657 0.10531 0.68673 0.0
C678 C 0.47076 0.08417 0.717 0.0
H679 H 0.39811 0.48759 0.71964 0.0
H680 H 0.3413 0.42936 0.6654 0.0
H681 H 0.36084 0.39385 0.71376 0.0
H682 H 0.45398 0.44478 0.72396 0.0
H683 H 0.46705 0.45851 0.77502 0.0
H684 H 0.44692 0.47937 0.73896 0.0
H685 H 0.41386 0.48927 0.8038 0.0
H686 H 0.43387 0.46827 0.84007 0.0
H687 H 0.39829 0.46149 0.83296 0.0
H688 H 0.38913 0.36422 0.76457 0.0
H689 H 0.42448 0.34295 0.81127 0.0
H690 H 0.46138 0.42166 0.83156 0.0
C691 C 0.38955 0.46744 0.71806 0.0
C692 C 0.36824 0.46117 0.68877 0.0
C693 C 0.35766 0.43456 0.68772 0.0
C694 C 0.36853 0.41433 0.71515 0.0
C695 C 0.38969 0.42124 0.74355 0.0
C696 C 0.39998 0.44721 0.74519 0.0
C697 C 0.42363 0.44935 0.77662 0.0
C698 C 0.44941 0.45852 0.75216 0.0
C699 C 0.417 0.46821 0.81568 0.0
C700 C 0.42563 0.4203 0.7915 0.0
C701 C 0.40574 0.40438 0.77264 0.0
C702 C 0.40461 0.37654 0.77993 0.0
C703 C 0.42472 0.36467 0.80648 0.0
C704 C 0.44565 0.38068 0.82485 0.0
C705 C 0.44563 0.40888 0.81798 0.0
H706 H 0.99331 0.41065 0.71606 0.0
H707 H 0.03186 0.33199 0.72753 0.0
H708 H 0.07406 0.3543 0.75271 0.0
H709 H 0.04884 0.44307 0.66814 0.0
H710 H 0.04296 0.475 0.69534 0.0
H711 H 0.01501 0.45277 0.68382 0.0
H712 H 0.00147 0.45248 0.76704 0.0
H713 H 0.0289 0.47537 0.77861 0.0
H714 H 0.02645 0.44382 0.80829 0.0
H715 H 0.11251 0.38625 0.77452 0.0
H716 H 0.14271 0.42445 0.79379 0.0
H717 H 0.07888 0.48093 0.75852 0.0
C718 C 0.01041 0.39792 0.72445 0.0
C719 C 0.00932 0.36957 0.71976 0.0
C720 C 0.03225 0.35378 0.73107 0.0
C721 C 0.05631 0.36627 0.74511 0.0
C722 C 0.05699 0.39445 0.74717 0.0
C723 C 0.03453 0.40999 0.7373 0.0
C724 C 0.04055 0.43984 0.73952 0.0
C725 C 0.03662 0.45345 0.69401 0.0
C726 C 0.02333 0.45368 0.77551 0.0
C727 C 0.06999 0.43881 0.75241 0.0
C728 C 0.07919 0.41255 0.75708 0.0
C729 C 0.10554 0.40688 0.77079 0.0
C730 C 0.12257 0.42868 0.7814 0.0
C731 C 0.11312 0.45566 0.77775 0.0
C732 C 0.08679 0.4606 0.76169 0.0
H733 H 0.12004 0.0303 0.75726 0.0
H734 H 0.15117 0.07737 0.64728 0.0
H735 H 0.12706 0.11773 0.67553 0.0
H736 H 0.05695 0.05337 0.75283 0.0
H737 H 0.05041 0.054 0.81163 0.0
H738 H 0.07525 0.03118 0.78969 0.0
H739 H 0.11175 0.05129 0.84187 0.0
H740 H 0.08683 0.07404 0.86459 0.0
H741 H 0.11787 0.08723 0.84182 0.0
H742 H 0.09195 0.14975 0.70708 0.0
H743 H 0.05118 0.17054 0.74067 0.0
H744 H 0.04398 0.10181 0.82939 0.0
C745 C 0.12263 0.04938 0.74009 0.0
C746 C 0.13746 0.05085 0.7003 0.0
C747 C 0.14016 0.07598 0.67824 0.0
C748 C 0.12649 0.09897 0.69402 0.0
C749 C 0.11075 0.09647 0.73223 0.0
C750 C 0.10924 0.07234 0.75543 0.0
C751 C 0.08847 0.07361 0.79207 0.0
C752 C 0.06649 0.05177 0.78614 0.0
C753 C 0.10205 0.07143 0.8378 0.0
C754 C 0.07733 0.10163 0.78429 0.0
C755 C 0.09066 0.11482 0.75029 0.0
C756 C 0.08184 0.13988 0.7345 0.0
C757 C 0.05862 0.15149 0.75362 0.0
C758 C 0.04442 0.13779 0.78767 0.0
C759 C 0.05444 0.11293 0.8037 0.0
H760 H 0.7753 0.09545 0.3393 0.0
H761 H 0.76838 0.01291 0.38674 0.0
H762 H 0.7395 0.00178 0.32267 0.0
H763 H 0.7058 0.10049 0.28052 0.0
H764 H 0.72178 0.12049 0.2383 0.0
H765 H 0.73375 0.12232 0.2947 0.0
H766 H 0.78168 0.11079 0.26272 0.0
H767 H 0.7682 0.10619 0.20788 0.0
H768 H 0.7865 0.07906 0.23447 0.0
H769 H 0.72174 0.99681 0.24631 0.0
H770 H 0.70382 0.00114 0.17066 0.0
H771 H 0.72214 0.08713 0.17202 0.0
C772 C 0.76621 0.07553 0.33791 0.0
C773 C 0.77395 0.05502 0.36812 0.0
C774 C 0.76243 0.02893 0.36421 0.0
C775 C 0.74633 0.02235 0.32759 0.0
C776 C 0.74169 0.04225 0.29573 0.0
C777 C 0.75036 0.06861 0.30124 0.0
C778 C 0.74533 0.08528 0.25975 0.0
C779 C 0.7255 0.10854 0.26894 0.0
C780 C 0.77203 0.09594 0.24007 0.0
C781 C 0.73275 0.06407 0.23006 0.0
C782 C 0.73121 0.03936 0.25132 0.0
C783 C 0.72197 0.01627 0.22984 0.0
C784 C 0.71209 0.01893 0.18661 0.0
C785 C 0.71081 0.04464 0.1657 0.0
C786 C 0.72248 0.06725 0.18712 0.0
H787 H 0.41508 0.72389 0.179 0.0
H788 H 0.49099 0.7276 0.10809 0.0
H789 H 0.50968 0.7576 0.16575 0.0
H790 H 0.41818 0.79347 0.23621 0.0
H791 H 0.40448 0.77917 0.28623 0.0
H792 H 0.3942 0.76621 0.23289 0.0
H793 H 0.40829 0.71832 0.25805 0.0
H794 H 0.41982 0.7309 0.31063 0.0
H795 H 0.44267 0.71223 0.27553 0.0
H796 H 0.52411 0.77405 0.23922 0.0
H797 H 0.53056 0.78674 0.31724 0.0
H798 H 0.44523 0.77214 0.3426 0.0
C799 C 0.43481 0.73295 0.17393 0.0
C800 C 0.4514 0.72429 0.13863 0.0
C801 C 0.47777 0.73491 0.13413 0.0
C802 C 0.48866 0.75152 0.16723 0.0
C803 C 0.4728 0.75718 0.20432 0.0
C804 C 0.44611 0.74893 0.20736 0.0
C805 C 0.43486 0.75386 0.25347 0.0
C806 C 0.41154 0.7744 0.25214 0.0
C807 C 0.4259 0.72724 0.27568 0.0
C808 C 0.4596 0.7654 0.27614 0.0
C809 C 0.48124 0.76703 0.24724 0.0
C810 C 0.50705 0.77397 0.26171 0.0
C811 C 0.51055 0.78084 0.30633 0.0
C812 C 0.48826 0.78122 0.33602 0.0
C813 C 0.46261 0.77262 0.32072 0.0
H814 H 0.76493 0.47871 0.15115 0.0
H815 H 0.77477 0.39205 0.13621 0.0
H816 H 0.75088 0.38483 0.20714 0.0
H817 H 0.7801 0.48211 0.25958 0.0
H818 H 0.75574 0.50747 0.27546 0.0
H819 H 0.76812 0.50635 0.21941 0.0
H820 H 0.71944 0.50187 0.18818 0.0
H821 H 0.70665 0.50459 0.24393 0.0
H822 H 0.6973 0.4761 0.20996 0.0
H823 H 0.73293 0.38779 0.28559 0.0
H824 H 0.712 0.39986 0.35708 0.0
H825 H 0.71586 0.48489 0.32096 0.0
C826 C 0.76079 0.45817 0.16167 0.0
C827 C 0.77154 0.43595 0.1381 0.0
C828 C 0.76626 0.40935 0.15328 0.0
C829 C 0.75316 0.40508 0.194 0.0
C830 C 0.74511 0.42762 0.21846 0.0
C831 C 0.74784 0.4536 0.2021 0.0
C832 C 0.73884 0.47447 0.23568 0.0
C833 C 0.76209 0.49372 0.24825 0.0
C834 C 0.71408 0.49018 0.21842 0.0
C835 C 0.73138 0.45625 0.27402 0.0
C836 C 0.73511 0.42932 0.26354 0.0
C837 C 0.72955 0.40882 0.2939 0.0
C838 C 0.71805 0.41596 0.33481 0.0
C839 C 0.71199 0.44338 0.34478 0.0
C840 C 0.72019 0.46375 0.3147 0.0
H841 H 0.07377 0.71352 0.32181 0.0
H842 H 0.98925 0.70469 0.35775 0.0
H843 H 0.97597 0.73087 0.29166 0.0
H844 H 0.06658 0.78387 0.27027 0.0
H845 H 0.09176 0.77531 0.2295 0.0
H846 H 0.09352 0.76074 0.2842 0.0
H847 H 0.09463 0.71332 0.24638 0.0
H848 H 0.09049 0.72803 0.19219 0.0
H849 H 0.06668 0.70315 0.21177 0.0
H850 H 0.97152 0.75056 0.21606 0.0
H851 H 0.97637 0.77587 0.14611 0.0
H852 H 0.06385 0.77177 0.15894 0.0
C853 C 0.0526 0.71848 0.3172 0.0
C854 C 0.03251 0.70722 0.34492 0.0
C855 C 0.00492 0.7134 0.33705 0.0
C856 C 0.99717 0.72786 0.29923 0.0
C857 C 0.01732 0.73632 0.27015 0.0
C858 C 0.04451 0.73293 0.27952 0.0
C859 C 0.06198 0.7433 0.24185 0.0
C860 C 0.07949 0.76722 0.25739 0.0
C861 C 0.07947 0.72059 0.2219 0.0
C862 C 0.04031 0.7524 0.20958 0.0
C863 C 0.01472 0.74789 0.2264 0.0
C864 C 0.99145 0.75466 0.20282 0.0
C865 C 0.99442 0.76863 0.16272 0.0
C866 C 0.02046 0.77605 0.14714 0.0
C867 C 0.04365 0.76627 0.16956 0.0
H868 H 0.21831 0.96977 0.68421 0.0
H869 H 0.20246 0.88605 0.64955 0.0
H870 H 0.2339 0.87115 0.70837 0.0
H871 H 0.29046 0.96086 0.71496 0.0
H872 H 0.2875 0.98517 0.75921 0.0
H873 H 0.26677 0.98847 0.71038 0.0
H874 H 0.2242 0.98909 0.76069 0.0
H875 H 0.2447 0.98453 0.80948 0.0
H876 H 0.21785 0.96099 0.79739 0.0
H877 H 0.26314 0.86553 0.77743 0.0
H878 H 0.29518 0.86997 0.84013 0.0
H879 H 0.28981 0.95735 0.83007 0.0
C880 C 0.22213 0.9483 0.68783 0.0
C881 C 0.20784 0.92912 0.66218 0.0
C882 C 0.21332 0.9012 0.66838 0.0
C883 C 0.23088 0.89251 0.7022 0.0
C884 C 0.24294 0.91199 0.72914 0.0
C885 C 0.23939 0.93932 0.72143 0.0
C886 C 0.25393 0.95626 0.75568 0.0
C887 C 0.27598 0.97371 0.73375 0.0
C888 C 0.23397 0.97374 0.78237 0.0
C889 C 0.26605 0.93421 0.78418 0.0
C890 C 0.25938 0.90878 0.76868 0.0
C891 C 0.2686 0.88536 0.78969 0.0
C892 C 0.28643 0.88806 0.82578 0.0
C893 C 0.29489 0.914 0.84012 0.0
C894 C 0.28358 0.93725 0.82009 0.0
H895 H 0.58414 0.22204 0.677 0.0
H896 H 0.49887 0.20551 0.6567 0.0
H897 H 0.48767 0.23295 0.72251 0.0
H898 H 0.58385 0.21444 0.7894 0.0
H899 H 0.60724 0.24122 0.80263 0.0
H900 H 0.60901 0.22471 0.74951 0.0
H901 H 0.60341 0.27049 0.70836 0.0
H902 H 0.60319 0.2872 0.7614 0.0
H903 H 0.57573 0.29252 0.72301 0.0
H904 H 0.48624 0.25635 0.79556 0.0
H905 H 0.49356 0.28455 0.86195 0.0
H906 H 0.57993 0.2847 0.83636 0.0
C907 C 0.56304 0.22551 0.6849 0.0
C908 C 0.54229 0.21205 0.66145 0.0
C909 C 0.51495 0.21611 0.67386 0.0
C910 C 0.50846 0.23127 0.71158 0.0
C911 C 0.52957 0.24227 0.73627 0.0
C912 C 0.55623 0.2404 0.72275 0.0
C913 C 0.57511 0.25307 0.75648 0.0
C914 C 0.59497 0.2321 0.77561 0.0
C915 C 0.59023 0.27726 0.73609 0.0
C916 C 0.5549 0.2621 0.79121 0.0
C917 C 0.52878 0.25539 0.77904 0.0
C918 C 0.50657 0.26191 0.80532 0.0
C919 C 0.51095 0.27752 0.84334 0.0
C920 C 0.53731 0.28649 0.85452 0.0
C921 C 0.55967 0.27752 0.82933 0.0
H922 H 0.21404 0.57814 0.82897 0.0
H923 H 0.20256 0.49117 0.83703 0.0
H924 H 0.22657 0.48562 0.7662 0.0
H925 H 0.20336 0.58686 0.72142 0.0
H926 H 0.23004 0.61035 0.70768 0.0
H927 H 0.21661 0.60916 0.76316 0.0
H928 H 0.263 0.59905 0.79841 0.0
H929 H 0.27779 0.60314 0.74423 0.0
H930 H 0.28389 0.57265 0.77544 0.0
H931 H 0.24425 0.49002 0.68959 0.0
H932 H 0.27052 0.50189 0.62297 0.0
H933 H 0.27296 0.58566 0.6655 0.0
C934 C 0.21768 0.5578 0.81705 0.0
C935 C 0.20571 0.53513 0.838 0.0
C936 C 0.21106 0.50889 0.82116 0.0
C937 C 0.22441 0.50554 0.78065 0.0
C938 C 0.23322 0.52855 0.75839 0.0
C939 C 0.23153 0.554 0.77703 0.0
C940 C 0.24331 0.57525 0.74629 0.0
C941 C 0.22207 0.59668 0.73387 0.0
C942 C 0.26849 0.5883 0.76733 0.0
C943 C 0.25083 0.55781 0.70676 0.0
C944 C 0.24445 0.531 0.71442 0.0
C945 C 0.24974 0.51087 0.6834 0.0
C946 C 0.26422 0.51788 0.64526 0.0
C947 C 0.27365 0.54467 0.63901 0.0
C948 C 0.26546 0.56517 0.66882 0.0
H949 H 0.97093 0.21663 0.80126 0.0
H950 H 0.88558 0.20188 0.82603 0.0
H951 H 0.87416 0.22435 0.75545 0.0
H952 H 0.96315 0.28252 0.75171 0.0
H953 H 0.99039 0.27658 0.71316 0.0
H954 H 0.99036 0.25981 0.76602 0.0
H955 H 0.99461 0.21398 0.72415 0.0
H956 H 0.99287 0.23091 0.67128 0.0
H957 H 0.96901 0.20455 0.68447 0.0
H958 H 0.87211 0.24778 0.68119 0.0
H959 H 0.87892 0.28038 0.62006 0.0
H960 H 0.96541 0.27807 0.64296 0.0
C961 C 0.94976 0.21858 0.79247 0.0
C962 C 0.92922 0.20733 0.81936 0.0
C963 C 0.90178 0.21042 0.8063 0.0
C964 C 0.89508 0.22272 0.7658 0.0
C965 C 0.91601 0.23189 0.73878 0.0
C966 C 0.94272 0.23062 0.75217 0.0
C967 C 0.96137 0.24313 0.71818 0.0
C968 C 0.97722 0.26693 0.73847 0.0
C969 C 0.98059 0.22186 0.69837 0.0
C970 C 0.94088 0.25254 0.6842 0.0
C971 C 0.91486 0.2452 0.69598 0.0
C972 C 0.8924 0.25347 0.67138 0.0
C973 C 0.89647 0.27161 0.63614 0.0
C974 C 0.92271 0.28148 0.62672 0.0
C975 C 0.94523 0.27033 0.64899 0.0
H976 H 0.62303 0.09244 0.93042 0.0
H977 H 0.68826 0.15085 0.93021 0.0
H978 H 0.68663 0.15246 0.84793 0.0
H979 H 0.64045 0.05692 0.82494 0.0
H980 H 0.60527 0.05369 0.81 0.0
H981 H 0.61511 0.05354 0.86759 0.0
H982 H 0.58219 0.0933 0.88304 0.0
H983 H 0.57226 0.09353 0.82575 0.0
H984 H 0.58516 0.12396 0.85096 0.0
H985 H 0.67467 0.1508 0.76707 0.0
H986 H 0.65026 0.15055 0.69573 0.0
H987 H 0.5917 0.09419 0.75028 0.0
C988 C 0.63765 0.10473 0.91285 0.0
C989 C 0.65634 0.1209 0.93598 0.0
C990 C 0.67416 0.13801 0.91251 0.0
C991 C 0.67348 0.13886 0.86599 0.0
C992 C 0.65469 0.12261 0.84395 0.0
C993 C 0.63696 0.10602 0.86673 0.0
C994 C 0.61623 0.09348 0.8362 0.0
C995 C 0.61948 0.06257 0.83459 0.0
C996 C 0.58727 0.10157 0.84979 0.0
C997 C 0.62439 0.10634 0.79279 0.0
C998 C 0.64705 0.1225 0.79764 0.0
C999 C 0.65716 0.13793 0.76271 0.0
C1000 C 0.64317 0.13759 0.72227 0.0
C1001 C 0.61906 0.12234 0.71752 0.0
C1002 C 0.61017 0.10588 0.75283 0.0
H1003 H 0.36225 0.61582 0.9184 0.0
H1004 H 0.38651 0.69913 0.8987 0.0
H1005 H 0.38709 0.69169 0.81702 0.0
H1006 H 0.40462 0.58814 0.83347 0.0
H1007 H 0.38046 0.56245 0.8183 0.0
H1008 H 0.38138 0.57507 0.87428 0.0
H1009 H 0.33042 0.58786 0.86932 0.0
H1010 H 0.32949 0.57482 0.81368 0.0
H1011 H 0.31893 0.60911 0.82447 0.0
H1012 H 0.38267 0.67439 0.73651 0.0
H1013 H 0.37639 0.64868 0.6665 0.0
H1014 H 0.35812 0.57661 0.74314 0.0
C1015 C 0.3674 0.63258 0.89682 0.0
C1016 C 0.37389 0.65813 0.91426 0.0
C1017 C 0.38128 0.67946 0.88545 0.0
C1018 C 0.38165 0.67538 0.83926 0.0
C1019 C 0.37507 0.64976 0.82301 0.0
C1020 C 0.36837 0.62871 0.85119 0.0
C1021 C 0.36291 0.60287 0.82631 0.0
C1022 C 0.38358 0.58084 0.83883 0.0
C1023 C 0.3337 0.59312 0.83389 0.0
C1024 C 0.36708 0.61262 0.77946 0.0
C1025 C 0.37395 0.63969 0.77783 0.0
C1026 C 0.3776 0.65311 0.7375 0.0
C1027 C 0.37399 0.6384 0.69798 0.0
C1028 C 0.36714 0.61058 0.69939 0.0
C1029 C 0.36387 0.59771 0.74078 0.0
H1030 H 0.84264 0.42121 0.87455 0.0
H1031 H 0.78441 0.35603 0.86922 0.0
H1032 H 0.78716 0.35624 0.78714 0.0
H1033 H 0.82533 0.45522 0.7642 0.0
H1034 H 0.86073 0.46138 0.75384 0.0
H1035 H 0.84795 0.46178 0.80986 0.0
H1036 H 0.8835 0.42574 0.83239 0.0
H1037 H 0.8963 0.42523 0.77682 0.0
H1038 H 0.88495 0.39425 0.80231 0.0
H1039 H 0.80236 0.35801 0.70791 0.0
H1040 H 0.83251 0.35645 0.64256 0.0
H1041 H 0.88291 0.4185 0.70102 0.0
C1042 C 0.82933 0.40807 0.85599 0.0
C1043 C 0.81256 0.3893 0.87789 0.0
C1044 C 0.79684 0.37102 0.85274 0.0
C1045 C 0.7982 0.37114 0.80618 0.0
C1046 C 0.81559 0.38949 0.78546 0.0
C1047 C 0.83098 0.40758 0.80977 0.0
C1048 C 0.85207 0.42132 0.78122 0.0
C1049 C 0.84615 0.45173 0.77703 0.0
C1050 C 0.88088 0.4163 0.79924 0.0
C1051 C 0.84736 0.40695 0.73765 0.0
C1052 C 0.82551 0.3895 0.74011 0.0
C1053 C 0.81909 0.37204 0.70528 0.0
C1054 C 0.83622 0.37138 0.66811 0.0
C1055 C 0.85981 0.38756 0.66681 0.0
C1056 C 0.86467 0.40635 0.70103 0.0
H1057 H 0.11078 0.93322 0.77033 0.0
H1058 H 0.08562 0.86697 0.68534 0.0
H1059 H 0.0803 0.83773 0.75132 0.0
H1060 H 0.15187 0.89568 0.8372 0.0
H1061 H 0.14428 0.91329 0.88802 0.0
H1062 H 0.14126 0.93057 0.83576 0.0
H1063 H 0.09122 0.94256 0.85268 0.0
H1064 H 0.09422 0.92594 0.90567 0.0
H1065 H 0.0679 0.91603 0.86762 0.0
H1066 H 0.08171 0.81468 0.82676 0.0
H1067 H 0.08838 0.80067 0.90522 0.0
H1068 H 0.11604 0.88145 0.93736 0.0
C1069 C 0.10327 0.91286 0.76551 0.0
C1070 C 0.09845 0.90245 0.72267 0.0
C1071 C 0.08924 0.87545 0.71792 0.0
C1072 C 0.08624 0.85867 0.75517 0.0
C1073 C 0.09254 0.86924 0.79675 0.0
C1074 C 0.10059 0.89583 0.80206 0.0
C1075 C 0.10849 0.90178 0.84943 0.0
C1076 C 0.13824 0.91085 0.85276 0.0
C1077 C 0.08931 0.92282 0.87006 0.0
C1078 C 0.10441 0.87421 0.86978 0.0
C1079 C 0.09475 0.85575 0.83924 0.0
C1080 C 0.08924 0.82899 0.85093 0.0
C1081 C 0.09326 0.82115 0.89525 0.0
C1082 C 0.1032 0.8399 0.92662 0.0
C1083 C 0.10904 0.8666 0.91357 0.0
H1084 H 0.61792 0.35716 0.79552 0.0
H1085 H 0.57184 0.43144 0.80574 0.0
H1086 H 0.59035 0.44671 0.73381 0.0
H1087 H 0.67763 0.38504 0.73022 0.0
H1088 H 0.67937 0.35484 0.69686 0.0
H1089 H 0.66831 0.35283 0.75376 0.0
H1090 H 0.62431 0.32938 0.72821 0.0
H1091 H 0.63475 0.33158 0.67129 0.0
H1092 H 0.60277 0.34583 0.68814 0.0
H1093 H 0.60718 0.45053 0.65737 0.0
H1094 H 0.6195 0.44232 0.57988 0.0
H1095 H 0.65341 0.3644 0.61593 0.0
C1096 C 0.61282 0.37716 0.78337 0.0
C1097 C 0.59413 0.39356 0.80629 0.0
C1098 C 0.58658 0.41896 0.78874 0.0
C1099 C 0.59706 0.42777 0.7481 0.0
C1100 C 0.61476 0.41074 0.72536 0.0
C1101 C 0.62261 0.38593 0.74228 0.0
C1102 C 0.63822 0.36968 0.70816 0.0
C1103 C 0.66763 0.36535 0.72315 0.0
C1104 C 0.62415 0.34254 0.69835 0.0
C1105 C 0.63677 0.38867 0.6688 0.0
C1106 C 0.62385 0.41254 0.67994 0.0
C1107 C 0.61808 0.43233 0.64852 0.0
C1108 C 0.62543 0.42755 0.60446 0.0
C1109 C 0.63836 0.40312 0.59207 0.0
C1110 C 0.6442 0.38353 0.62478 0.0
H1111 H 0.14714 0.57539 0.71983 0.0
H1112 H 0.12625 0.64653 0.797 0.0
H1113 H 0.12886 0.67449 0.72895 0.0
H1114 H 0.19436 0.60785 0.64364 0.0
H1115 H 0.18316 0.58813 0.59695 0.0
H1116 H 0.18158 0.57398 0.65188 0.0
H1117 H 0.13034 0.56461 0.64224 0.0
H1118 H 0.13186 0.57829 0.58702 0.0
H1119 H 0.10811 0.59191 0.62645 0.0
H1120 H 0.12903 0.69351 0.65057 0.0
H1121 H 0.12786 0.70172 0.56928 0.0
H1122 H 0.15104 0.61847 0.54604 0.0
C1123 C 0.14328 0.59689 0.72268 0.0
C1124 C 0.13634 0.60877 0.76374 0.0
C1125 C 0.13158 0.63699 0.76588 0.0
C1126 C 0.13311 0.65303 0.72746 0.0
C1127 C 0.1398 0.64056 0.68745 0.0
C1128 C 0.14499 0.61312 0.68498 0.0
C1129 C 0.15026 0.60419 0.63782 0.0
C1130 C 0.17906 0.59288 0.63234 0.0
C1131 C 0.12887 0.58355 0.6225 0.0
C1132 C 0.14707 0.63085 0.614 0.0
C1133 C 0.14092 0.65164 0.64296 0.0
C1134 C 0.13448 0.67754 0.62773 0.0
C1135 C 0.1339 0.68207 0.58172 0.0
C1136 C 0.1401 0.66089 0.55195 0.0
C1137 C 0.14723 0.63521 0.56837 0.0
H1138 H 0.88443 0.15428 0.56745 0.0
H1139 H 0.80436 0.12012 0.58489 0.0
H1140 H 0.81617 0.10708 0.66183 0.0
H1141 H 0.92005 0.10468 0.62256 0.0
H1142 H 0.94423 0.12687 0.64862 0.0
H1143 H 0.92864 0.13651 0.59701 0.0
H1144 H 0.91132 0.18122 0.63201 0.0
H1145 H 0.92741 0.17216 0.68351 0.0
H1146 H 0.89181 0.17999 0.68246 0.0
H1147 H 0.83813 0.09524 0.73511 0.0
H1148 H 0.86657 0.09062 0.80226 0.0
H1149 H 0.93256 0.13089 0.73374 0.0
C1150 C 0.86907 0.14493 0.588 0.0
C1151 C 0.84353 0.13812 0.57056 0.0
C1152 C 0.82411 0.12532 0.5979 0.0
C1153 C 0.83067 0.1178 0.64145 0.0
C1154 C 0.85664 0.12343 0.65689 0.0
C1155 C 0.87533 0.13723 0.6313 0.0
C1156 C 0.9021 0.14013 0.65501 0.0
C1157 C 0.9251 0.12621 0.62926 0.0
C1158 C 0.90853 0.17014 0.66376 0.0
C1159 C 0.89577 0.12526 0.69753 0.0
C1160 C 0.86944 0.11592 0.69824 0.0
C1161 C 0.85881 0.10246 0.73495 0.0
C1162 C 0.87518 0.09967 0.77273 0.0
C1163 C 0.90189 0.1101 0.77315 0.0
C1164 C 0.91247 0.12215 0.73437 0.0
H1165 H 0.39436 0.82732 0.60042 0.0
H1166 H 0.47436 0.86146 0.58171 0.0
H1167 H 0.478 0.86975 0.66176 0.0
H1168 H 0.37208 0.874 0.67446 0.0
H1169 H 0.3529 0.8513 0.70912 0.0
H1170 H 0.35867 0.843 0.65193 0.0
H1171 H 0.38004 0.79726 0.67535 0.0
H1172 H 0.37433 0.8055 0.73285 0.0
H1173 H 0.40788 0.79694 0.71402 0.0
H1174 H 0.46939 0.88309 0.73931 0.0
H1175 H 0.44941 0.89866 0.8101 0.0
H1176 H 0.37631 0.85373 0.78157 0.0
C1177 C 0.41296 0.8357 0.61356 0.0
C1178 C 0.43439 0.84298 0.58508 0.0
C1179 C 0.45813 0.85468 0.60303 0.0
C1180 C 0.46033 0.85963 0.64855 0.0
C1181 C 0.43873 0.85254 0.67578 0.0
C1182 C 0.41559 0.84051 0.65911 0.0
C1183 C 0.39421 0.8375 0.69474 0.0
C1184 C 0.36794 0.85235 0.68178 0.0
C1185 C 0.38881 0.80751 0.70484 0.0
C1186 C 0.40834 0.8512 0.73323 0.0
C1187 C 0.43416 0.85943 0.72173 0.0
C1188 C 0.44965 0.8759 0.74942 0.0
C1189 C 0.43823 0.88465 0.78943 0.0
C1190 C 0.41185 0.87653 0.80143 0.0
C1191 C 0.39702 0.85908 0.77368 0.0
H1192 H 0.46419 0.84349 0.23199 0.0
H1193 H 0.39517 0.85552 0.31897 0.0
H1194 H 0.36473 0.85498 0.25384 0.0
H1195 H 0.43988 0.88487 0.14127 0.0
H1196 H 0.45353 0.86269 0.09949 0.0
H1197 H 0.46976 0.86512 0.15283 0.0
H1198 H 0.46513 0.8129 0.16389 0.0
H1199 H 0.44989 0.81096 0.10976 0.0
H1200 H 0.43229 0.79748 0.15704 0.0
H1201 H 0.34182 0.85316 0.17804 0.0
H1202 H 0.32891 0.84978 0.09855 0.0
H1203 H 0.41304 0.8371 0.06373 0.0
C1204 C 0.44272 0.84632 0.23751 0.0
C1205 C 0.43211 0.8497 0.28068 0.0
C1206 C 0.40381 0.85305 0.28622 0.0
C1207 C 0.38635 0.85273 0.24944 0.0
C1208 C 0.39751 0.84905 0.20741 0.0
C1209 C 0.42507 0.84598 0.20136 0.0
C1210 C 0.43207 0.84176 0.15306 0.0
C1211 C 0.44985 0.865 0.13565 0.0
C1212 C 0.44565 0.81413 0.14557 0.0
C1213 C 0.40412 0.8426 0.13286 0.0
C1214 C 0.38439 0.84708 0.1645 0.0
C1215 C 0.3571 0.84948 0.15306 0.0
C1216 C 0.34993 0.8475 0.10804 0.0
C1217 C 0.36995 0.84277 0.07548 0.0
C1218 C 0.39727 0.84009 0.08821 0.0
H1219 H 0.65178 0.4199 0.24727 0.0
H1220 H 0.60794 0.35884 0.32172 0.0
H1221 H 0.60664 0.3298 0.25458 0.0
H1222 H 0.61595 0.41386 0.14839 0.0
H1223 H 0.64504 0.41939 0.11349 0.0
H1224 H 0.64409 0.43366 0.16826 0.0
H1225 H 0.6893 0.40986 0.187 0.0
H1226 H 0.6904 0.39509 0.13244 0.0
H1227 H 0.6922 0.37371 0.18081 0.0
H1228 H 0.60684 0.30967 0.1766 0.0
H1229 H 0.60773 0.30083 0.09575 0.0
H1230 H 0.65221 0.37533 0.07529 0.0
C1231 C 0.64188 0.4004 0.24972 0.0
C1232 C 0.62965 0.39172 0.28956 0.0
C1233 C 0.61733 0.36589 0.2914 0.0
C1234 C 0.61662 0.34927 0.25354 0.0
C1235 C 0.62874 0.35867 0.21462 0.0
C1236 C 0.64125 0.38363 0.21273 0.0
C1237 C 0.65169 0.38992 0.16683 0.0
C1238 C 0.63839 0.41572 0.14816 0.0
C1239 C 0.68274 0.39225 0.16677 0.0
C1240 C 0.64234 0.36495 0.14248 0.0
C1241 C 0.62936 0.34698 0.17052 0.0
C1242 C 0.6172 0.32347 0.15451 0.0
C1243 C 0.61762 0.3187 0.10858 0.0
C1244 C 0.62993 0.33747 0.07943 0.0
C1245 C 0.64313 0.36036 0.0969 0.0
H1246 H 0.15447 0.63726 0.09368 0.0
H1247 H 0.11803 0.56117 0.05409 0.0
H1248 H 0.10481 0.5523 0.1308 0.0
H1249 H 0.17719 0.61505 0.20679 0.0
H1250 H 0.16832 0.64706 0.23142 0.0
H1251 H 0.17929 0.64567 0.17444 0.0
H1252 H 0.13517 0.66989 0.14988 0.0
H1253 H 0.12422 0.67139 0.20668 0.0
H1254 H 0.10292 0.65575 0.16552 0.0
H1255 H 0.08909 0.55445 0.20782 0.0
H1256 H 0.0723 0.56783 0.2818 0.0
H1257 H 0.11912 0.64182 0.27443 0.0
C1258 C 0.14444 0.61839 0.10157 0.0
C1259 C 0.13848 0.59936 0.06807 0.0
C1260 C 0.12432 0.57538 0.07925 0.0
C1261 C 0.11639 0.57024 0.12288 0.0
C1262 C 0.12259 0.58931 0.15513 0.0
C1263 C 0.13634 0.61292 0.14522 0.0
C1264 C 0.13795 0.63123 0.18544 0.0
C1265 C 0.16745 0.63496 0.20041 0.0
C1266 C 0.12424 0.65867 0.17631 0.0
C1267 C 0.12207 0.61464 0.21877 0.0
C1268 C 0.11361 0.59042 0.20059 0.0
C1269 C 0.09615 0.57299 0.22297 0.0
C1270 C 0.08669 0.58072 0.2648 0.0
C1271 C 0.09496 0.60547 0.28385 0.0
C1272 C 0.11332 0.62234 0.26103 0.0
H1273 H 0.84646 0.07465 0.23604 0.0
H1274 H 0.86083 0.15299 0.29675 0.0
H1275 H 0.85984 0.17433 0.22244 0.0
H1276 H 0.88839 0.08473 0.14311 0.0
H1277 H 0.86672 0.06645 0.10555 0.0
H1278 H 0.867 0.05795 0.16356 0.0
H1279 H 0.81493 0.06561 0.16756 0.0
H1280 H 0.81488 0.07366 0.10932 0.0
H1281 H 0.80103 0.09734 0.14852 0.0
H1282 H 0.85994 0.1864 0.14033 0.0
H1283 H 0.86167 0.18776 0.05812 0.0
H1284 H 0.84634 0.1015 0.05376 0.0
C1285 C 0.84935 0.09633 0.23397 0.0
C1286 C 0.85388 0.11214 0.27224 0.0
C1287 C 0.85742 0.14046 0.26785 0.0
C1288 C 0.85676 0.15276 0.22584 0.0
C1289 C 0.85229 0.13647 0.18881 0.0
C1290 C 0.84858 0.10886 0.19263 0.0
C1291 C 0.84537 0.09553 0.14789 0.0
C1292 C 0.86824 0.07497 0.13956 0.0
C1293 C 0.81738 0.08226 0.14311 0.0
C1294 C 0.84801 0.11991 0.11812 0.0
C1295 C 0.85197 0.1434 0.14212 0.0
C1296 C 0.85656 0.16818 0.12126 0.0
C1297 C 0.85758 0.16878 0.07471 0.0
C1298 C 0.85393 0.14478 0.04992 0.0
C1299 C 0.84857 0.12025 0.07197 0.0
H1300 H 0.39408 0.59736 0.23568 0.0
H1301 H 0.35022 0.66484 0.17859 0.0
H1302 H 0.31925 0.66501 0.243 0.0
H1303 H 0.33293 0.56423 0.29057 0.0
H1304 H 0.35332 0.55417 0.33736 0.0
H1305 H 0.36814 0.5559 0.28279 0.0
H1306 H 0.40518 0.58834 0.31266 0.0
H1307 H 0.39048 0.58663 0.36694 0.0
H1308 H 0.39515 0.61901 0.34052 0.0
H1309 H 0.30099 0.66484 0.32106 0.0
H1310 H 0.29383 0.66074 0.40224 0.0
H1311 H 0.34718 0.59129 0.40473 0.0
C1312 C 0.3773 0.61147 0.23604 0.0
C1313 C 0.37439 0.631 0.20239 0.0
C1314 C 0.3525 0.64946 0.20393 0.0
C1315 C 0.33486 0.64973 0.2404 0.0
C1316 C 0.339 0.6309 0.27419 0.0
C1317 C 0.35927 0.61162 0.27166 0.0
C1318 C 0.36124 0.5953 0.31389 0.0
C1319 C 0.35343 0.56564 0.30565 0.0
C1320 C 0.38968 0.59749 0.3347 0.0
C1321 C 0.34016 0.60954 0.34164 0.0
C1322 C 0.32731 0.62988 0.31826 0.0
C1323 C 0.31008 0.64828 0.33923 0.0
C1324 C 0.30618 0.6459 0.38525 0.0
C1325 C 0.31921 0.62512 0.40942 0.0
C1326 C 0.33589 0.60651 0.38697 0.0
H1327 H 0.83704 0.37001 0.17791 0.0
H1328 H 0.91982 0.39326 0.15168 0.0
H1329 H 0.93414 0.37234 0.22251 0.0
H1330 H 0.83671 0.39038 0.28197 0.0
H1331 H 0.81537 0.36442 0.30518 0.0
H1332 H 0.81273 0.37272 0.24742 0.0
H1333 H 0.82202 0.32288 0.22598 0.0
H1334 H 0.82423 0.31417 0.28396 0.0
H1335 H 0.85173 0.30602 0.24703 0.0
H1336 H 0.93754 0.35904 0.30155 0.0
H1337 H 0.93019 0.35473 0.38168 0.0
H1338 H 0.84465 0.3409 0.35886 0.0
C1339 C 0.85838 0.36907 0.18602 0.0
C1340 C 0.87761 0.38208 0.15892 0.0
C1341 C 0.90512 0.38237 0.17148 0.0
C1342 C 0.91333 0.37063 0.21168 0.0
C1343 C 0.89367 0.35899 0.23894 0.0
C1344 C 0.86672 0.35791 0.22643 0.0
C1345 C 0.8489 0.34897 0.26463 0.0
C1346 C 0.82718 0.3704 0.27541 0.0
C1347 C 0.83596 0.32136 0.25481 0.0
C1348 C 0.86975 0.34676 0.30126 0.0
C1349 C 0.89553 0.35187 0.2855 0.0
C1350 C 0.91764 0.35399 0.31401 0.0
C1351 C 0.91327 0.35125 0.35973 0.0
C1352 C 0.88695 0.34649 0.37668 0.0
C1353 C 0.86509 0.3438 0.3468 0.0
H1354 H 0.04976 0.84654 0.26228 0.0
H1355 H 0.12298 0.86837 0.19124 0.0
H1356 H 0.14776 0.8709 0.26256 0.0
H1357 H 0.0588 0.89009 0.35305 0.0
H1358 H 0.04523 0.86667 0.39311 0.0
H1359 H 0.03412 0.86524 0.33636 0.0
H1360 H 0.04801 0.81469 0.33254 0.0
H1361 H 0.05933 0.81601 0.38927 0.0
H1362 H 0.08219 0.80502 0.34637 0.0
H1363 H 0.16359 0.87348 0.34298 0.0
H1364 H 0.16877 0.87606 0.4246 0.0
H1365 H 0.08493 0.85201 0.4405 0.0
C1366 C 0.07102 0.85187 0.26154 0.0
C1367 C 0.0844 0.85751 0.22126 0.0
C1368 C 0.11231 0.86406 0.2218 0.0
C1369 C 0.12655 0.86545 0.26209 0.0
C1370 C 0.11262 0.85989 0.30127 0.0
C1371 C 0.08549 0.85309 0.30114 0.0
C1372 C 0.07481 0.84879 0.34751 0.0
C1373 C 0.0519 0.8689 0.35811 0.0
C1374 C 0.06555 0.81938 0.35429 0.0
C1375 C 0.1 0.85485 0.37401 0.0
C1376 C 0.1217 0.86106 0.34695 0.0
C1377 C 0.14675 0.86853 0.36443 0.0
C1378 C 0.14946 0.87015 0.41076 0.0
C1379 C 0.12719 0.86446 0.43878 0.0
C1380 C 0.10242 0.85617 0.41997 0.0
H1381 H 0.65285 0.07882 0.28134 0.0
H1382 H 0.6312 0.14736 0.19835 0.0
H1383 H 0.63126 0.17693 0.26435 0.0
H1384 H 0.6116 0.09723 0.37315 0.0
H1385 H 0.63538 0.08528 0.41403 0.0
H1386 H 0.63445 0.06994 0.35996 0.0
H1387 H 0.68593 0.08046 0.34956 0.0
H1388 H 0.68617 0.09504 0.40423 0.0
H1389 H 0.69766 0.11471 0.35776 0.0
H1390 H 0.63064 0.19839 0.34079 0.0
H1391 H 0.63058 0.20958 0.42121 0.0
H1392 H 0.65506 0.1275 0.45164 0.0
C1393 C 0.6482 0.10006 0.27687 0.0
C1394 C 0.64196 0.11074 0.23462 0.0
C1395 C 0.63602 0.13868 0.23038 0.0
C1396 C 0.63609 0.15567 0.26763 0.0
C1397 C 0.64237 0.14446 0.30876 0.0
C1398 C 0.64845 0.11729 0.3135 0.0
C1399 C 0.65358 0.10996 0.36146 0.0
C1400 C 0.63249 0.0894 0.37811 0.0
C1401 C 0.68256 0.09942 0.36857 0.0
C1402 C 0.64966 0.13727 0.38287 0.0
C1403 C 0.64296 0.15694 0.35218 0.0
C1404 C 0.63641 0.18329 0.36502 0.0
C1405 C 0.63651 0.18953 0.4105 0.0
C1406 C 0.64358 0.16958 0.442 0.0
C1407 C 0.6505 0.14332 0.4279 0.0
H1408 H 0.52831 0.02928 0.10669 0.0
H1409 H 0.58247 0.00903 -0.00123 0.0
H1410 H 0.54617 0.98198 0.96342 0.0
H1411 H 0.49489 0.96585 0.11442 0.0
H1412 H 0.46181 0.97978 0.1252 0.0
H1413 H 0.49166 0.99818 0.14153 0.0
H1414 H 0.47585 0.03985 0.09611 0.0
H1415 H 0.44568 0.02178 0.08045 0.0
H1416 H 0.46744 0.03578 0.03831 0.0
H1417 H 0.50512 0.95524 0.94249 0.0
H1418 H 0.45951 0.93584 0.93089 0.0
H1419 H 0.43118 0.9748 0.05082 0.0
C1420 C 0.53225 0.01942 0.07528 0.0
C1421 C 0.55795 0.02107 0.05513 0.0
C1422 C 0.5627 0.00802 0.01423 0.0
C1423 C 0.54234 0.99249 0.99425 0.0
C1424 C 0.51737 0.99054 0.01557 0.0
C1425 C 0.51204 0.0041 0.05468 0.0
C1426 C 0.48328 -0.00087 0.07016 0.0
C1427 C 0.4829 0.98488 0.11552 0.0
C1428 C 0.46711 0.02571 0.07131 0.0
C1429 C 0.4733 0.98054 0.03377 0.0
C1430 C 0.49345 0.97558 0.00296 0.0
C1431 C 0.48919 0.95899 0.96632 0.0
C1432 C 0.4634 0.94788 0.96022 0.0
C1433 C 0.44226 0.95356 0.99043 0.0
C1434 C 0.44729 0.96981 0.02789 0.0
H1435 H 0.50096 0.43585 0.04934 0.0
H1436 H 0.56045 0.45203 0.94737 0.0
H1437 H 0.54856 0.50064 0.94914 0.0
H1438 H 0.45137 0.47828 0.00923 0.0
H1439 H 0.43931 0.49031 0.06207 0.0
H1440 H 0.45494 0.4575 0.05804 0.0
H1441 H 0.49043 0.47051 0.11774 0.0
H1442 H 0.47424 0.50299 0.12328 0.0
H1443 H 0.50988 0.5011 0.11101 0.0
H1444 H 0.52669 0.54659 0.95659 0.0
H1445 H 0.50117 0.58788 0.97776 0.0
H1446 H 0.45554 0.54138 0.07369 0.0
C1447 C 0.51224 0.44991 0.02892 0.0
C1448 C 0.53203 0.44052 -0.00098 0.0
C1449 C 0.54577 0.45914 0.97137 0.0
C1450 C 0.53888 0.48666 0.97174 0.0
C1451 C 0.51827 0.49513 5e-05 0.0
C1452 C 0.5056 0.47744 0.02892 0.0
C1453 C 0.4834 0.49148 0.05474 0.0
C1454 C 0.45562 0.47862 0.04544 0.0
C1455 C 0.48988 0.49153 0.10464 0.0
C1456 C 0.48519 0.51964 0.03528 0.0
C1457 C 0.50538 0.52137 0.00369 0.0
C1458 C 0.51087 0.54548 0.98133 0.0
C1459 C 0.49609 0.56869 0.99299 0.0
C1460 C 0.47613 0.56741 0.02641 0.0
C1461 C 0.47028 0.54253 0.04715 0.0
H1462 H 0.04458 0.49655 0.95894 0.0
H1463 H 0.02562 0.57477 0.9021 0.0
H1464 H 0.97668 0.56607 0.91351 0.0
H1465 H 0.9896 0.46083 0.91054 0.0
H1466 H 0.9835 0.43957 0.95809 0.0
H1467 H 0.017 0.45242 0.94755 0.0
H1468 H 0.01858 0.47399 0.02588 0.0
H1469 H 0.98538 0.46063 0.03708 0.0
H1470 H 0.9917 0.49636 0.04295 0.0
H1471 H 0.92984 0.54798 0.9293 0.0
H1472 H 0.88878 0.52372 0.95491 0.0
H1473 H 0.93862 0.45727 0.00073 0.0
C1474 C 0.03005 0.51199 0.94977 0.0
C1475 C 0.03861 0.53647 0.93036 0.0
C1476 C 0.01926 0.55613 0.91786 0.0
C1477 C 0.99151 0.55122 0.92377 0.0
C1478 C 0.98362 0.52652 0.94206 0.0
C1479 C 0.00235 0.50737 0.95536 0.0
C1480 C 0.98866 0.48246 0.97403 0.0
C1481 C 0.99508 0.45734 0.94586 0.0
C1482 C 0.99654 0.47812 0.02289 0.0
C1483 C 0.95926 0.49061 0.96944 0.0
C1484 C 0.95676 0.51599 0.95055 0.0
C1485 C 0.93156 0.52805 0.94389 0.0
C1486 C 0.9084 0.51411 0.95813 0.0
C1487 C 0.9107 0.48849 0.97864 0.0
C1488 C 0.93638 0.47648 0.98382 0.0
H1489 H 0.98723 0.93603 0.99243 0.0
H1490 H 0.05644 0.95126 0.07691 0.0
H1491 H 0.04992 0.00064 0.06748 0.0
H1492 H 0.99866 0.99285 0.91559 0.0
H1493 H 0.96296 -0.00056 0.9096 0.0
H1494 H 0.97464 0.96559 0.9208 0.0
H1495 H 0.94324 0.96367 0.9896 0.0
H1496 H 0.93198 0.99775 0.9793 0.0
H1497 H 0.94653 0.989 0.03223 0.0
H1498 H 0.03383 0.04821 0.05271 0.0
H1499 H 0.0122 0.09072 0.02694 0.0
H1500 H 0.95386 0.04418 0.95171 0.0
C1501 C 0.00137 0.94987 0.00784 0.0
C1502 C 0.02262 0.94016 0.03463 0.0
C1503 C 0.04043 0.95857 0.05545 0.0
C1504 C 0.03671 0.98654 0.05062 0.0
C1505 C 0.01509 0.99559 0.02487 0.0
C1506 C 0.99797 0.97781 0.00325 0.0
C1507 C 0.97602 0.99272 0.97817 0.0
C1508 C 0.97821 0.98734 0.92807 0.0
C1509 C 0.94777 0.98534 0.9959 0.0
C1510 C 0.9833 0.02164 0.98935 0.0
C1511 C 0.00579 0.02289 0.01654 0.0
C1512 C 0.01625 0.04748 0.03133 0.0
C1513 C 0.00379 0.07144 0.01691 0.0
C1514 C 0.98126 0.0705 0.98809 0.0
C1515 C 0.97075 0.04531 0.97456 0.0
H1516 H 0.45091 0.55765 0.5265 0.0
H1517 H 0.40169 0.50313 0.44848 0.0
H1518 H 0.44307 0.48212 0.41752 0.0
H1519 H 0.50773 0.56487 0.44385 0.0
H1520 H 0.53279 0.56554 0.48729 0.0
H1521 H 0.49941 0.57892 0.4973 0.0
H1522 H 0.49475 0.54709 0.56517 0.0
H1523 H 0.52774 0.53306 0.55473 0.0
H1524 H 0.49868 0.51112 0.55773 0.0
H1525 H 0.48917 0.46324 0.40324 0.0
H1526 H 0.53768 0.45063 0.40029 0.0
H1527 H 0.55727 0.51741 0.48743 0.0
C1528 C 0.44903 0.54213 0.50136 0.0
C1529 C 0.42338 0.53235 0.48868 0.0
C1530 C 0.42133 0.51121 0.4574 0.0
C1531 C 0.44466 0.4991 0.44 0.0
C1532 C 0.46979 0.50846 0.45437 0.0
C1533 C 0.47217 0.52983 0.48372 0.0
C1534 C 0.50148 0.53468 0.49621 0.0
C1535 C 0.51091 0.56266 0.48019 0.0
C1536 C 0.5059 0.53128 0.54644 0.0
C1537 C 0.51511 0.51223 0.4704 0.0
C1538 C 0.49645 0.49739 0.44639 0.0
C1539 C 0.504 0.47489 0.42145 0.0
C1540 C 0.53143 0.46771 0.42032 0.0
C1541 C 0.55081 0.48291 0.44409 0.0
C1542 C 0.54261 0.50542 0.46937 0.0
H1543 H 0.01961 0.55909 0.54554 0.0
H1544 H 0.07054 0.54204 0.4323 0.0
H1545 H 0.0574 0.49384 0.43563 0.0
H1546 H 0.02928 0.49062 0.60305 0.0
H1547 H 0.99457 0.49088 0.62133 0.0
H1548 H 0.01286 0.52224 0.6158 0.0
H1549 H 0.97492 0.54013 0.56409 0.0
H1550 H 0.95706 0.50853 0.56781 0.0
H1551 H 0.96671 0.52167 0.51432 0.0
H1552 H 0.03204 0.44968 0.44274 0.0
H1553 H 0.00222 0.41087 0.46177 0.0
H1554 H 0.9677 0.4572 0.56962 0.0
C1555 C 0.0292 0.5448 0.52331 0.0
C1556 C 0.04655 0.55391 0.48941 0.0
C1557 C 0.05784 0.53511 0.45929 0.0
C1558 C 0.0502 0.5078 0.46061 0.0
C1559 C 0.03152 0.49971 0.49259 0.0
C1560 C 0.0218 0.51748 0.52431 0.0
C1561 C 0.00024 0.50431 0.5527 0.0
C1562 C 0.00982 0.50186 0.60108 0.0
C1563 C 0.97314 0.51958 0.54951 0.0
C1564 C 0.9985 0.47687 0.53078 0.0
C1565 C 0.01676 0.47446 0.49632 0.0
C1566 C 0.01798 0.45119 0.47012 0.0
C1567 C 0.00079 0.42945 0.48063 0.0
C1568 C 0.98273 0.43138 0.51675 0.0
C1569 C 0.98131 0.45548 0.54159 0.0
H1570 H 0.03565 0.96853 0.54851 0.0
H1571 H 0.0899 0.02799 0.49182 0.0
H1572 H 0.05051 0.05411 0.46396 0.0
H1573 H 0.98505 0.97055 0.4598 0.0
H1574 H 0.95718 0.96636 0.49774 0.0
H1575 H 0.98979 0.95214 0.51086 0.0
H1576 H 0.98957 0.97814 0.58552 0.0
H1577 H 0.95724 0.99291 0.57218 0.0
H1578 H 0.98559 0.0144 0.58534 0.0
H1579 H 0.00504 0.07416 0.44429 0.0
H1580 H 0.95689 0.08487 0.42927 0.0
H1581 H 0.93255 0.01263 0.50012 0.0
C1582 C 0.03913 0.98667 0.52919 0.0
C1583 C 0.06561 0.99611 0.52128 0.0
C1584 C 0.06962 0.02035 0.49729 0.0
C1585 C 0.04743 0.03533 0.48171 0.0
C1586 C 0.02147 0.02574 0.49067 0.0
C1587 C 0.01723 0.00182 0.51344 0.0
C1588 C 0.98734 0.99611 0.51914 0.0
C1589 C 0.97937 0.96973 0.49546 0.0
C1590 C 0.97949 0.99535 0.56848 0.0
C1591 C 0.97539 0.02058 0.49618 0.0
C1592 C 0.99539 0.0375 0.4801 0.0
C1593 C 0.98922 0.06113 0.45689 0.0
C1594 C 0.9619 0.06721 0.4489 0.0
C1595 C 0.94124 0.04976 0.46422 0.0
C1596 C 0.94808 0.02644 0.4887 0.0
H1597 H 0.49131 0.9553 0.42971 0.0
H1598 H 0.56449 0.91266 0.46698 0.0
H1599 H 0.58532 0.95585 0.49068 0.0
H1600 H 0.5242 0.0152 0.38699 0.0
H1601 H 0.49886 0.03814 0.4079 0.0
H1602 H 0.48971 0.00397 0.39348 0.0
H1603 H 0.47047 0.9962 0.47251 0.0
H1604 H 0.4791 0.03048 0.48678 0.0
H1605 H 0.49164 0.00285 0.51998 0.0
H1606 H 0.5971 0.00297 0.51368 0.0
H1607 H 0.59843 0.05082 0.53728 0.0
H1608 H 0.51863 0.0635 0.48145 0.0
C1609 C 0.51156 0.95515 0.44346 0.0
C1610 C 0.52628 0.93084 0.4474 0.0
C1611 C 0.55295 0.93123 0.46436 0.0
C1612 C 0.56494 0.9556 0.47756 0.0
C1613 C 0.55001 0.97936 0.47302 0.0
C1614 C 0.52388 0.97936 0.45654 0.0
C1615 C 0.51212 0.00764 0.45588 0.0
C1616 C 0.50586 0.01677 0.40822 0.0
C1617 C 0.48684 0.00938 0.48556 0.0
C1618 C 0.53554 0.02346 0.47525 0.0
C1619 C 0.55726 0.00677 0.48468 0.0
C1620 C 0.58048 0.01637 0.50566 0.0
C1621 C 0.5812 0.0436 0.51848 0.0
C1622 C 0.55899 0.06086 0.50981 0.0
C1623 C 0.53616 0.05079 0.48712 0.0
loop_
_geom_bond_atom_site_label_1
_geom_bond_atom_site_label_2
_geom_bond_distance
_geom_bond_site_symmetry_2
_ccdc_geom_bond_type
Co0 O3 1.970 . S
Co0 N17 1.989 . S
Co0 O25 1.967 . S
Co0 O32 1.920 . S
Co1 O4 1.966 . S
Co1 N10 2.022 . S
Co1 N18 1.993 . S
Co1 O26 1.941 . S
C2 O3 1.258 . S
C2 O4 1.263 . S
O3 Co0 1.970 . S
O3 C2 1.258 . S
O4 Co1 1.966 . S
O4 C2 1.263 . S
C5 O6 1.235 . S
C5 O32 1.289 1_565 S
O6 C5 1.235 . S
C7 C9 1.400 1_554 S
C7 N10 1.351 . S
C7 C12 1.501 . S
C8 C9 1.387 . S
C8 N11 1.341 1_556 S
C9 C7 1.400 1_556 S
C9 C8 1.387 . S
N10 Co1 2.022 . S
N10 C7 1.351 . S
N10 N11 1.365 . S
N11 C8 1.341 1_554 S
N11 N10 1.365 . S
N11 H31 0.862 . S
C12 C7 1.501 . S
C12 H13 0.961 . S
C12 H14 0.961 1_554 S
C12 H15 0.960 . S
H13 C12 0.961 . S
H14 C12 0.961 1_556 S
H15 C12 0.960 . S
C16 N17 1.342 . S
C16 C20 1.401 . S
C16 C21 1.499 1_545 S
N17 Co0 1.989 . S
N17 C16 1.342 . S
N17 N18 1.388 . S
N18 Co1 1.993 . S
N18 N17 1.388 . S
N18 C19 1.346 . S
C19 N18 1.346 . S
C19 C20 1.396 . S
C19 C29 1.510 1_554 S
C20 C16 1.401 . S
C20 C19 1.396 . S
C21 C16 1.499 1_565 S
C21 H22 0.959 . S
C21 H23 0.960 . S
C21 H24 0.961 1_565 S
H22 C21 0.959 . S
H23 C21 0.960 . S
H24 C21 0.961 1_545 S
O25 Co0 1.967 . S
O25 C33 1.258 . S
O26 Co1 1.941 . S
O26 C33 1.266 . S
H27 C29 0.959 . S
H28 C29 0.961 . S
C29 C19 1.510 1_556 S
C29 H27 0.959 . S
C29 H28 0.961 . S
C29 H30 0.960 . S
H30 C29 0.960 . S
H31 N11 0.862 . S
O32 Co0 1.920 . S
O32 C5 1.289 1_545 S
C33 O25 1.258 . S
C33 O26 1.266 . S
Co34 O37 1.970 . S
Co34 N51 1.989 . S
Co34 O59 1.967 . S
Co34 O66 1.920 . S
Co35 O38 1.966 . S
Co35 N44 2.022 . S
Co35 N52 1.993 . S
Co35 O60 1.941 . S
C36 O37 1.258 . S
C36 O38 1.263 . S
O37 Co34 1.970 . S
O37 C36 1.258 . S
O38 Co35 1.966 . S
O38 C36 1.263 . S
C39 O40 1.235 . S
C39 O66 1.289 . S
O40 C39 1.235 . S
C41 C43 1.400 1_554 S
C41 N44 1.351 . S
C41 C46 1.501 . S
C42 C43 1.387 . S
C42 N45 1.341 1_556 S
C43 C41 1.400 1_556 S
C43 C42 1.387 . S
N44 Co35 2.022 . S
N44 C41 1.351 . S
N44 N45 1.365 . S
N45 C42 1.341 1_554 S
N45 N44 1.365 . S
N45 H65 0.862 . S
C46 C41 1.501 . S
C46 H47 0.961 . S
C46 H48 0.961 1_554 S
C46 H49 0.960 . S
H47 C46 0.961 . S
H48 C46 0.961 1_556 S
H49 C46 0.960 . S
C50 N51 1.342 . S
C50 C54 1.401 . S
C50 C55 1.499 . S
N51 Co34 1.989 . S
N51 C50 1.342 . S
N51 N52 1.388 . S
N52 Co35 1.993 . S
N52 N51 1.388 . S
N52 C53 1.346 . S
C53 N52 1.346 . S
C53 C54 1.396 . S
C53 C63 1.510 1_554 S
C54 C50 1.401 . S
C54 C53 1.396 . S
C55 C50 1.499 . S
C55 H56 0.959 . S
C55 H57 0.960 . S
C55 H58 0.961 . S
H56 C55 0.959 . S
H57 C55 0.960 . S
H58 C55 0.961 . S
O59 Co34 1.967 . S
O59 C67 1.258 . S
O60 Co35 1.941 . S
O60 C67 1.266 . S
H61 C63 0.959 . S
H62 C63 0.961 . S
C63 C53 1.510 1_556 S
C63 H61 0.959 . S
C63 H62 0.961 . S
C63 H64 0.960 . S
H64 C63 0.960 . S
H65 N45 0.862 . S
O66 Co34 1.920 . S
O66 C39 1.289 . S
C67 O59 1.258 . S
C67 O60 1.266 . S
Co68 O71 1.970 . S
Co68 N85 1.989 . S
Co68 O93 1.967 . S
Co68 O100 1.920 . S
Co69 O72 1.966 . S
Co69 N78 2.022 . S
Co69 N86 1.993 . S
Co69 O94 1.941 . S
C70 O71 1.258 . S
C70 O72 1.263 . S
O71 Co68 1.970 . S
O71 C70 1.258 . S
O72 Co69 1.966 . S
O72 C70 1.263 . S
C73 O74 1.235 . S
C73 O100 1.289 . S
O74 C73 1.235 . S
C75 C77 1.400 1_554 S
C75 N78 1.351 . S
C75 C80 1.501 . S
C76 C77 1.387 . S
C76 N79 1.341 1_556 S
C77 C75 1.400 1_556 S
C77 C76 1.387 . S
N78 Co69 2.022 . S
N78 C75 1.351 . S
N78 N79 1.365 . S
N79 C76 1.341 1_554 S
N79 N78 1.365 . S
N79 H99 0.862 . S
C80 C75 1.501 . S
C80 H81 0.961 . S
C80 H82 0.961 1_554 S
C80 H83 0.960 . S
H81 C80 0.961 . S
H82 C80 0.961 1_556 S
H83 C80 0.960 . S
C84 N85 1.342 . S
C84 C88 1.401 . S
C84 C89 1.499 . S
N85 Co68 1.989 . S
N85 C84 1.342 . S
N85 N86 1.388 . S
N86 Co69 1.993 . S
N86 N85 1.388 . S
N86 C87 1.346 . S
C87 N86 1.346 . S
C87 C88 1.396 . S
C87 C97 1.510 1_554 S
C88 C84 1.401 . S
C88 C87 1.396 . S
C89 C84 1.499 . S
C89 H90 0.959 . S
C89 H91 0.960 . S
C89 H92 0.961 . S
H90 C89 0.959 . S
H91 C89 0.960 . S
H92 C89 0.961 . S
O93 Co68 1.967 . S
O93 C101 1.258 . S
O94 Co69 1.941 . S
O94 C101 1.266 . S
H95 C97 0.959 . S
H96 C97 0.961 . S
C97 C87 1.510 1_556 S
C97 H95 0.959 . S
C97 H96 0.961 . S
C97 H98 0.960 . S
H98 C97 0.960 . S
H99 N79 0.862 . S
O100 Co68 1.920 . S
O100 C73 1.289 . S
C101 O93 1.258 . S
C101 O94 1.266 . S
Co102 O105 1.970 . S
Co102 N119 1.989 . S
Co102 O127 1.967 . S
Co102 O134 1.920 . S
Co103 O106 1.966 . S
Co103 N112 2.022 . S
Co103 N120 1.993 . S
Co103 O128 1.941 . S
C104 O105 1.258 . S
C104 O106 1.263 . S
O105 Co102 1.970 . S
O105 C104 1.258 . S
O106 Co103 1.966 . S
O106 C104 1.263 . S
C107 O108 1.235 . S
C107 O134 1.289 1_655 S
O108 C107 1.235 . S
C109 C111 1.400 1_554 S
C109 N112 1.351 . S
C109 C114 1.501 . S
C110 C111 1.387 . S
C110 N113 1.341 1_556 S
C111 C109 1.400 1_556 S
C111 C110 1.387 . S
N112 Co103 2.022 . S
N112 C109 1.351 . S
N112 N113 1.365 . S
N113 C110 1.341 1_554 S
N113 N112 1.365 . S
N113 H133 0.862 . S
C114 C109 1.501 . S
C114 H115 0.961 . S
C114 H116 0.961 1_554 S
C114 H117 0.960 . S
H115 C114 0.961 . S
H116 C114 0.961 1_556 S
H117 C114 0.960 . S
C118 N119 1.342 . S
C118 C122 1.401 . S
C118 C123 1.499 1_455 S
N119 Co102 1.989 . S
N119 C118 1.342 . S
N119 N120 1.388 . S
N120 Co103 1.993 . S
N120 N119 1.388 . S
N120 C121 1.346 . S
C121 N120 1.346 . S
C121 C122 1.396 . S
C121 C131 1.510 1_554 S
C122 C118 1.401 . S
C122 C121 1.396 . S
C123 C118 1.499 1_655 S
C123 H124 0.959 . S
C123 H125 0.960 . S
C123 H126 0.961 1_655 S
H124 C123 0.959 . S
H125 C123 0.960 . S
H126 C123 0.961 1_455 S
O127 Co102 1.967 . S
O127 C135 1.258 . S
O128 Co103 1.941 . S
O128 C135 1.266 . S
H129 C131 0.959 . S
H130 C131 0.961 . S
C131 C121 1.510 1_556 S
C131 H129 0.959 . S
C131 H130 0.961 . S
C131 H132 0.960 . S
H132 C131 0.960 . S
H133 N113 0.862 . S
O134 Co102 1.920 . S
O134 C107 1.289 1_455 S
C135 O127 1.258 . S
C135 O128 1.266 . S
Co136 O139 1.970 . S
Co136 N153 1.989 . S
Co136 O161 1.967 . S
Co136 O168 1.920 . S
Co137 O140 1.966 . S
Co137 N146 2.022 . S
Co137 N154 1.993 . S
Co137 O162 1.941 . S
C138 O139 1.258 . S
C138 O140 1.263 . S
O139 Co136 1.970 . S
O139 C138 1.258 . S
O140 Co137 1.966 . S
O140 C138 1.263 . S
C141 O142 1.235 . S
C141 O168 1.289 . S
O142 C141 1.235 . S
C143 C145 1.400 . S
C143 N146 1.351 . S
C143 C148 1.501 . S
C144 C145 1.387 . S
C144 N147 1.341 . S
C145 C143 1.400 . S
C145 C144 1.387 . S
N146 Co137 2.022 . S
N146 C143 1.351 . S
N146 N147 1.365 . S
N147 C144 1.341 . S
N147 N146 1.365 . S
N147 H167 0.862 . S
C148 C143 1.501 . S
C148 H149 0.961 . S
C148 H150 0.961 . S
C148 H151 0.960 . S
H149 C148 0.961 . S
H150 C148 0.961 . S
H151 C148 0.960 . S
C152 N153 1.342 . S
C152 C156 1.401 . S
C152 C157 1.499 . S
N153 Co136 1.989 . S
N153 C152 1.342 . S
N153 N154 1.388 . S
N154 Co137 1.993 . S
N154 N153 1.388 . S
N154 C155 1.346 . S
C155 N154 1.346 . S
C155 C156 1.396 . S
C155 C165 1.510 . S
C156 C152 1.401 . S
C156 C155 1.396 . S
C157 C152 1.499 . S
C157 H158 0.959 . S
C157 H159 0.960 . S
C157 H160 0.961 . S
H158 C157 0.959 . S
H159 C157 0.960 . S
H160 C157 0.961 . S
O161 Co136 1.967 . S
O161 C169 1.258 . S
O162 Co137 1.941 . S
O162 C169 1.266 . S
H163 C165 0.959 . S
H164 C165 0.961 . S
C165 C155 1.510 . S
C165 H163 0.959 . S
C165 H164 0.961 . S
C165 H166 0.960 . S
H166 C165 0.960 . S
H167 N147 0.862 . S
O168 Co136 1.920 . S
O168 C141 1.289 . S
C169 O161 1.258 . S
C169 O162 1.266 . S
Co170 O173 1.970 . S
Co170 N187 1.989 . S
Co170 O195 1.967 . S
Co170 O202 1.920 . S
Co171 O174 1.966 . S
Co171 N180 2.022 . S
Co171 N188 1.993 . S
Co171 O196 1.941 . S
C172 O173 1.258 . S
C172 O174 1.263 . S
O173 Co170 1.970 . S
O173 C172 1.258 . S
O174 Co171 1.966 . S
O174 C172 1.263 . S
C175 O176 1.235 . S
C175 O202 1.289 1_655 S
O176 C175 1.235 . S
C177 C179 1.400 . S
C177 N180 1.351 . S
C177 C182 1.501 . S
C178 C179 1.387 . S
C178 N181 1.341 . S
C179 C177 1.400 . S
C179 C178 1.387 . S
N180 Co171 2.022 . S
N180 C177 1.351 . S
N180 N181 1.365 . S
N181 C178 1.341 . S
N181 N180 1.365 . S
N181 H201 0.862 . S
C182 C177 1.501 . S
C182 H183 0.961 . S
C182 H184 0.961 . S
C182 H185 0.960 . S
H183 C182 0.961 . S
H184 C182 0.961 . S
H185 C182 0.960 . S
C186 N187 1.342 . S
C186 C190 1.401 . S
C186 C191 1.499 1_455 S
N187 Co170 1.989 . S
N187 C186 1.342 . S
N187 N188 1.388 . S
N188 Co171 1.993 . S
N188 N187 1.388 . S
N188 C189 1.346 . S
C189 N188 1.346 . S
C189 C190 1.396 . S
C189 C199 1.510 . S
C190 C186 1.401 . S
C190 C189 1.396 . S
C191 C186 1.499 1_655 S
C191 H192 0.959 . S
C191 H193 0.960 . S
C191 H194 0.961 1_655 S
H192 C191 0.959 . S
H193 C191 0.960 . S
H194 C191 0.961 1_455 S
O195 Co170 1.967 . S
O195 C203 1.258 . S
O196 Co171 1.941 . S
O196 C203 1.266 . S
H197 C199 0.959 . S
H198 C199 0.961 . S
C199 C189 1.510 . S
C199 H197 0.959 . S
C199 H198 0.961 . S
C199 H200 0.960 . S
H200 C199 0.960 . S
H201 N181 0.862 . S
O202 Co170 1.920 . S
O202 C175 1.289 1_455 S
C203 O195 1.258 . S
C203 O196 1.266 . S
Co204 O207 1.970 . S
Co204 N221 1.989 . S
Co204 O229 1.967 . S
Co204 O236 1.920 . S
Co205 O208 1.966 . S
Co205 N214 2.022 . S
Co205 N222 1.993 . S
Co205 O230 1.941 . S
C206 O207 1.258 . S
C206 O208 1.263 . S
O207 Co204 1.970 . S
O207 C206 1.258 . S
O208 Co205 1.966 . S
O208 C206 1.263 . S
C209 O210 1.235 . S
C209 O236 1.289 1_565 S
O210 C209 1.235 . S
C211 C213 1.400 . S
C211 N214 1.351 . S
C211 C216 1.501 . S
C212 C213 1.387 . S
C212 N215 1.341 . S
C213 C211 1.400 . S
C213 C212 1.387 . S
N214 Co205 2.022 . S
N214 C211 1.351 . S
N214 N215 1.365 . S
N215 C212 1.341 . S
N215 N214 1.365 . S
N215 H235 0.862 . S
C216 C211 1.501 . S
C216 H217 0.961 . S
C216 H218 0.961 . S
C216 H219 0.960 . S
H217 C216 0.961 . S
H218 C216 0.961 . S
H219 C216 0.960 . S
C220 N221 1.342 . S
C220 C224 1.401 . S
C220 C225 1.499 1_545 S
N221 Co204 1.989 . S
N221 C220 1.342 . S
N221 N222 1.388 . S
N222 Co205 1.993 . S
N222 N221 1.388 . S
N222 C223 1.346 . S
C223 N222 1.346 . S
C223 C224 1.396 . S
C223 C233 1.510 . S
C224 C220 1.401 . S
C224 C223 1.396 . S
C225 C220 1.499 1_565 S
C225 H226 0.959 . S
C225 H227 0.960 . S
C225 H228 0.961 1_565 S
H226 C225 0.959 . S
H227 C225 0.960 . S
H228 C225 0.961 1_545 S
O229 Co204 1.967 . S
O229 C237 1.258 . S
O230 Co205 1.941 . S
O230 C237 1.266 . S
H231 C233 0.959 . S
H232 C233 0.961 . S
C233 C223 1.510 . S
C233 H231 0.959 . S
C233 H232 0.961 . S
C233 H234 0.960 . S
H234 C233 0.960 . S
H235 N215 0.862 . S
O236 Co204 1.920 . S
O236 C209 1.289 1_545 S
C237 O229 1.258 . S
C237 O230 1.266 . S
Co238 O241 1.970 . S
Co238 N255 1.989 . S
Co238 O263 1.967 . S
Co238 O270 1.920 . S
Co239 O242 1.966 . S
Co239 N248 2.022 . S
Co239 N256 1.993 . S
Co239 O264 1.941 . S
C240 O241 1.258 . S
C240 O242 1.263 . S
O241 Co238 1.970 . S
O241 C240 1.258 . S
O242 Co239 1.966 . S
O242 C240 1.263 . S
C243 O244 1.235 . S
C243 O270 1.289 . S
O244 C243 1.235 . S
C245 C247 1.400 . S
C245 N248 1.351 . S
C245 C250 1.501 . S
C246 C247 1.387 . S
C246 N249 1.341 . S
C247 C245 1.400 . S
C247 C246 1.387 . S
N248 Co239 2.022 . S
N248 C245 1.351 . S
N248 N249 1.365 . S
N249 C246 1.341 . S
N249 N248 1.365 . S
N249 H269 0.862 . S
C250 C245 1.501 . S
C250 H251 0.961 . S
C250 H252 0.961 . S
C250 H253 0.960 . S
H251 C250 0.961 . S
H252 C250 0.961 . S
H253 C250 0.960 . S
C254 N255 1.342 . S
C254 C258 1.401 . S
C254 C259 1.499 . S
N255 Co238 1.989 . S
N255 C254 1.342 . S
N255 N256 1.388 . S
N256 Co239 1.993 . S
N256 N255 1.388 . S
N256 C257 1.346 . S
C257 N256 1.346 . S
C257 C258 1.396 . S
C257 C267 1.510 . S
C258 C254 1.401 . S
C258 C257 1.396 . S
C259 C254 1.499 . S
C259 H260 0.959 . S
C259 H261 0.960 . S
C259 H262 0.961 . S
H260 C259 0.959 . S
H261 C259 0.960 . S
H262 C259 0.961 . S
O263 Co238 1.967 . S
O263 C271 1.258 . S
O264 Co239 1.941 . S
O264 C271 1.266 . S
H265 C267 0.959 . S
H266 C267 0.961 . S
C267 C257 1.510 . S
C267 H265 0.959 . S
C267 H266 0.961 . S
C267 H268 0.960 . S
H268 C267 0.960 . S
H269 N249 0.862 . S
O270 Co238 1.920 . S
O270 C243 1.289 . S
C271 O263 1.258 . S
C271 O264 1.266 . S
Co272 O275 1.970 . S
Co272 N289 1.989 . S
Co272 O297 1.967 . S
Co272 O304 1.920 . S
Co273 O276 1.966 . S
Co273 N282 2.022 . S
Co273 N290 1.993 . S
Co273 O298 1.941 . S
C274 O275 1.258 . S
C274 O276 1.263 . S
O275 Co272 1.970 . S
O275 C274 1.258 . S
O276 Co273 1.966 . S
O276 C274 1.263 . S
C277 O278 1.235 . S
C277 O304 1.289 1_545 S
O278 C277 1.235 . S
C279 C281 1.400 1_556 S
C279 N282 1.351 . S
C279 C284 1.501 . S
C280 C281 1.387 . S
C280 N283 1.341 1_554 S
C281 C279 1.400 1_554 S
C281 C280 1.387 . S
N282 Co273 2.022 . S
N282 C279 1.351 . S
N282 N283 1.365 . S
N283 C280 1.341 1_556 S
N283 N282 1.365 . S
N283 H303 0.862 . S
C284 C279 1.501 . S
C284 H285 0.961 . S
C284 H286 0.961 1_556 S
C284 H287 0.960 . S
H285 C284 0.961 . S
H286 C284 0.961 1_554 S
H287 C284 0.960 . S
C288 N289 1.342 . S
C288 C292 1.401 . S
C288 C293 1.499 1_565 S
N289 Co272 1.989 . S
N289 C288 1.342 . S
N289 N290 1.388 . S
N290 Co273 1.993 . S
N290 N289 1.388 . S
N290 C291 1.346 . S
C291 N290 1.346 . S
C291 C292 1.396 . S
C291 C301 1.510 1_556 S
C292 C288 1.401 . S
C292 C291 1.396 . S
C293 C288 1.499 1_545 S
C293 H294 0.959 . S
C293 H295 0.960 . S
C293 H296 0.961 1_545 S
H294 C293 0.959 . S
H295 C293 0.960 . S
H296 C293 0.961 1_565 S
O297 Co272 1.967 . S
O297 C305 1.258 . S
O298 Co273 1.941 . S
O298 C305 1.266 . S
H299 C301 0.959 . S
H300 C301 0.961 . S
C301 C291 1.510 1_554 S
C301 H299 0.959 . S
C301 H300 0.961 . S
C301 H302 0.960 . S
H302 C301 0.960 . S
H303 N283 0.862 . S
O304 Co272 1.920 . S
O304 C277 1.289 1_565 S
C305 O297 1.258 . S
C305 O298 1.266 . S
Co306 O309 1.970 . S
Co306 N323 1.989 . S
Co306 O331 1.967 . S
Co306 O338 1.920 . S
Co307 O310 1.966 . S
Co307 N316 2.022 . S
Co307 N324 1.993 . S
Co307 O332 1.941 . S
C308 O309 1.258 . S
C308 O310 1.263 . S
O309 Co306 1.970 . S
O309 C308 1.258 . S
O310 Co307 1.966 . S
O310 C308 1.263 . S
C311 O312 1.235 . S
C311 O338 1.289 . S
O312 C311 1.235 . S
C313 C315 1.400 1_556 S
C313 N316 1.351 . S
C313 C318 1.501 . S
C314 C315 1.387 . S
C314 N317 1.341 1_554 S
C315 C313 1.400 1_554 S
C315 C314 1.387 . S
N316 Co307 2.022 . S
N316 C313 1.351 . S
N316 N317 1.365 . S
N317 C314 1.341 1_556 S
N317 N316 1.365 . S
N317 H337 0.862 . S
C318 C313 1.501 . S
C318 H319 0.961 . S
C318 H320 0.961 1_556 S
C318 H321 0.960 . S
H319 C318 0.961 . S
H320 C318 0.961 1_554 S
H321 C318 0.960 . S
C322 N323 1.342 . S
C322 C326 1.401 . S
C322 C327 1.499 . S
N323 Co306 1.989 . S
N323 C322 1.342 . S
N323 N324 1.388 . S
N324 Co307 1.993 . S
N324 N323 1.388 . S
N324 C325 1.346 . S
C325 N324 1.346 . S
C325 C326 1.396 . S
C325 C335 1.510 1_556 S
C326 C322 1.401 . S
C326 C325 1.396 . S
C327 C322 1.499 . S
C327 H328 0.959 . S
C327 H329 0.960 . S
C327 H330 0.961 . S
H328 C327 0.959 . S
H329 C327 0.960 . S
H330 C327 0.961 . S
O331 Co306 1.967 . S
O331 C339 1.258 . S
O332 Co307 1.941 . S
O332 C339 1.266 . S
H333 C335 0.959 . S
H334 C335 0.961 . S
C335 C325 1.510 1_554 S
C335 H333 0.959 . S
C335 H334 0.961 . S
C335 H336 0.960 . S
H336 C335 0.960 . S
H337 N317 0.862 . S
O338 Co306 1.920 . S
O338 C311 1.289 . S
C339 O331 1.258 . S
C339 O332 1.266 . S
Co340 O343 1.970 . S
Co340 N357 1.989 . S
Co340 O365 1.967 . S
Co340 O372 1.920 . S
Co341 O344 1.966 . S
Co341 N350 2.022 . S
Co341 N358 1.993 . S
Co341 O366 1.941 . S
C342 O343 1.258 . S
C342 O344 1.263 . S
O343 Co340 1.970 . S
O343 C342 1.258 . S
O344 Co341 1.966 . S
O344 C342 1.263 . S
C345 O346 1.235 . S
C345 O372 1.289 . S
O346 C345 1.235 . S
C347 C349 1.400 1_556 S
C347 N350 1.351 . S
C347 C352 1.501 . S
C348 C349 1.387 . S
C348 N351 1.341 1_554 S
C349 C347 1.400 1_554 S
C349 C348 1.387 . S
N350 Co341 2.022 . S
N350 C347 1.351 . S
N350 N351 1.365 . S
N351 C348 1.341 1_556 S
N351 N350 1.365 . S
N351 H371 0.862 . S
C352 C347 1.501 . S
C352 H353 0.961 . S
C352 H354 0.961 1_556 S
C352 H355 0.960 . S
H353 C352 0.961 . S
H354 C352 0.961 1_554 S
H355 C352 0.960 . S
C356 N357 1.342 . S
C356 C360 1.401 . S
C356 C361 1.499 . S
N357 Co340 1.989 . S
N357 C356 1.342 . S
N357 N358 1.388 . S
N358 Co341 1.993 . S
N358 N357 1.388 . S
N358 C359 1.346 . S
C359 N358 1.346 . S
C359 C360 1.396 . S
C359 C369 1.510 1_556 S
C360 C356 1.401 . S
C360 C359 1.396 . S
C361 C356 1.499 . S
C361 H362 0.959 . S
C361 H363 0.960 . S
C361 H364 0.961 . S
H362 C361 0.959 . S
H363 C361 0.960 . S
H364 C361 0.961 . S
O365 Co340 1.967 . S
O365 C373 1.258 . S
O366 Co341 1.941 . S
O366 C373 1.266 . S
H367 C369 0.959 . S
H368 C369 0.961 . S
C369 C359 1.510 1_554 S
C369 H367 0.959 . S
C369 H368 0.961 . S
C369 H370 0.960 . S
H370 C369 0.960 . S
H371 N351 0.862 . S
O372 Co340 1.920 . S
O372 C345 1.289 . S
C373 O365 1.258 . S
C373 O366 1.266 . S
Co374 O377 1.970 . S
Co374 N391 1.989 . S
Co374 O399 1.967 . S
Co374 O406 1.920 . S
Co375 O378 1.966 . S
Co375 N384 2.022 . S
Co375 N392 1.993 . S
Co375 O400 1.941 . S
C376 O377 1.258 . S
C376 O378 1.263 . S
O377 Co374 1.970 . S
O377 C376 1.258 . S
O378 Co375 1.966 . S
O378 C376 1.263 . S
C379 O380 1.235 . S
C379 O406 1.289 1_455 S
O380 C379 1.235 . S
C381 C383 1.400 1_556 S
C381 N384 1.351 . S
C381 C386 1.501 . S
C382 C383 1.387 . S
C382 N385 1.341 1_554 S
C383 C381 1.400 1_554 S
C383 C382 1.387 . S
N384 Co375 2.022 . S
N384 C381 1.351 . S
N384 N385 1.365 . S
N385 C382 1.341 1_556 S
N385 N384 1.365 . S
N385 H405 0.862 . S
C386 C381 1.501 . S
C386 H387 0.961 . S
C386 H388 0.961 1_556 S
C386 H389 0.960 . S
H387 C386 0.961 . S
H388 C386 0.961 1_554 S
H389 C386 0.960 . S
C390 N391 1.342 . S
C390 C394 1.401 . S
C390 C395 1.499 1_655 S
N391 Co374 1.989 . S
N391 C390 1.342 . S
N391 N392 1.388 . S
N392 Co375 1.993 . S
N392 N391 1.388 . S
N392 C393 1.346 . S
C393 N392 1.346 . S
C393 C394 1.396 . S
C393 C403 1.510 1_556 S
C394 C390 1.401 . S
C394 C393 1.396 . S
C395 C390 1.499 1_455 S
C395 H396 0.959 . S
C395 H397 0.960 . S
C395 H398 0.961 1_455 S
H396 C395 0.959 . S
H397 C395 0.960 . S
H398 C395 0.961 1_655 S
O399 Co374 1.967 . S
O399 C407 1.258 . S
O400 Co375 1.941 . S
O400 C407 1.266 . S
H401 C403 0.959 . S
H402 C403 0.961 . S
C403 C393 1.510 1_554 S
C403 H401 0.959 . S
C403 H402 0.961 . S
C403 H404 0.960 . S
H404 C403 0.960 . S
H405 N385 0.862 . S
O406 Co374 1.920 . S
O406 C379 1.289 1_655 S
C407 O399 1.258 . S
C407 O400 1.266 . S
Co408 O411 1.970 . S
Co408 N425 1.989 . S
Co408 O433 1.967 . S
Co408 O440 1.920 . S
Co409 O412 1.966 . S
Co409 N418 2.022 . S
Co409 N426 1.993 . S
Co409 O434 1.941 . S
C410 O411 1.258 . S
C410 O412 1.263 . S
O411 Co408 1.970 . S
O411 C410 1.258 . S
O412 Co409 1.966 . S
O412 C410 1.263 . S
C413 O414 1.235 . S
C413 O440 1.289 . S
O414 C413 1.235 . S
C415 C417 1.400 . S
C415 N418 1.351 . S
C415 C420 1.501 . S
C416 C417 1.387 . S
C416 N419 1.341 . S
C417 C415 1.400 . S
C417 C416 1.387 . S
N418 Co409 2.022 . S
N418 C415 1.351 . S
N418 N419 1.365 . S
N419 C416 1.341 . S
N419 N418 1.365 . S
N419 H439 0.862 . S
C420 C415 1.501 . S
C420 H421 0.961 . S
C420 H422 0.961 . S
C420 H423 0.960 . S
H421 C420 0.961 . S
H422 C420 0.961 . S
H423 C420 0.960 . S
C424 N425 1.342 . S
C424 C428 1.401 . S
C424 C429 1.499 . S
N425 Co408 1.989 . S
N425 C424 1.342 . S
N425 N426 1.388 . S
N426 Co409 1.993 . S
N426 N425 1.388 . S
N426 C427 1.346 . S
C427 N426 1.346 . S
C427 C428 1.396 . S
C427 C437 1.510 . S
C428 C424 1.401 . S
C428 C427 1.396 . S
C429 C424 1.499 . S
C429 H430 0.959 . S
C429 H431 0.960 . S
C429 H432 0.961 . S
H430 C429 0.959 . S
H431 C429 0.960 . S
H432 C429 0.961 . S
O433 Co408 1.967 . S
O433 C441 1.258 . S
O434 Co409 1.941 . S
O434 C441 1.266 . S
H435 C437 0.959 . S
H436 C437 0.961 . S
C437 C427 1.510 . S
C437 H435 0.959 . S
C437 H436 0.961 . S
C437 H438 0.960 . S
H438 C437 0.960 . S
H439 N419 0.862 . S
O440 Co408 1.920 . S
O440 C413 1.289 . S
C441 O433 1.258 . S
C441 O434 1.266 . S
Co442 O445 1.970 . S
Co442 N459 1.989 . S
Co442 O467 1.967 . S
Co442 O474 1.920 . S
Co443 O446 1.966 . S
Co443 N452 2.022 . S
Co443 N460 1.993 . S
Co443 O468 1.941 . S
C444 O445 1.258 . S
C444 O446 1.263 . S
O445 Co442 1.970 . S
O445 C444 1.258 . S
O446 Co443 1.966 . S
O446 C444 1.263 . S
C447 O448 1.235 . S
C447 O474 1.289 1_455 S
O448 C447 1.235 . S
C449 C451 1.400 . S
C449 N452 1.351 . S
C449 C454 1.501 . S
C450 C451 1.387 . S
C450 N453 1.341 . S
C451 C449 1.400 . S
C451 C450 1.387 . S
N452 Co443 2.022 . S
N452 C449 1.351 . S
N452 N453 1.365 . S
N453 C450 1.341 . S
N453 N452 1.365 . S
N453 H473 0.862 . S
C454 C449 1.501 . S
C454 H455 0.961 . S
C454 H456 0.961 . S
C454 H457 0.960 . S
H455 C454 0.961 . S
H456 C454 0.961 . S
H457 C454 0.960 . S
C458 N459 1.342 . S
C458 C462 1.401 . S
C458 C463 1.499 1_655 S
N459 Co442 1.989 . S
N459 C458 1.342 . S
N459 N460 1.388 . S
N460 Co443 1.993 . S
N460 N459 1.388 . S
N460 C461 1.346 . S
C461 N460 1.346 . S
C461 C462 1.396 . S
C461 C471 1.510 . S
C462 C458 1.401 . S
C462 C461 1.396 . S
C463 C458 1.499 1_455 S
C463 H464 0.959 . S
C463 H465 0.960 . S
C463 H466 0.961 1_455 S
H464 C463 0.959 . S
H465 C463 0.960 . S
H466 C463 0.961 1_655 S
O467 Co442 1.967 . S
O467 C475 1.258 . S
O468 Co443 1.941 . S
O468 C475 1.266 . S
H469 C471 0.959 . S
H470 C471 0.961 . S
C471 C461 1.510 . S
C471 H469 0.959 . S
C471 H470 0.961 . S
C471 H472 0.960 . S
H472 C471 0.960 . S
H473 N453 0.862 . S
O474 Co442 1.920 . S
O474 C447 1.289 1_655 S
C475 O467 1.258 . S
C475 O468 1.266 . S
Co476 O479 1.970 . S
Co476 N493 1.989 . S
Co476 O501 1.967 . S
Co476 O508 1.920 . S
Co477 O480 1.966 . S
Co477 N486 2.022 . S
Co477 N494 1.993 . S
Co477 O502 1.941 . S
C478 O479 1.258 . S
C478 O480 1.263 . S
O479 Co476 1.970 . S
O479 C478 1.258 . S
O480 Co477 1.966 . S
O480 C478 1.263 . S
C481 O482 1.235 . S
C481 O508 1.289 1_545 S
O482 C481 1.235 . S
C483 C485 1.400 . S
C483 N486 1.351 . S
C483 C488 1.501 . S
C484 C485 1.387 . S
C484 N487 1.341 . S
C485 C483 1.400 . S
C485 C484 1.387 . S
N486 Co477 2.022 . S
N486 C483 1.351 . S
N486 N487 1.365 . S
N487 C484 1.341 . S
N487 N486 1.365 . S
N487 H507 0.862 . S
C488 C483 1.501 . S
C488 H489 0.961 . S
C488 H490 0.961 . S
C488 H491 0.960 . S
H489 C488 0.961 . S
H490 C488 0.961 . S
H491 C488 0.960 . S
C492 N493 1.342 . S
C492 C496 1.401 . S
C492 C497 1.499 1_565 S
N493 Co476 1.989 . S
N493 C492 1.342 . S
N493 N494 1.388 . S
N494 Co477 1.993 . S
N494 N493 1.388 . S
N494 C495 1.346 . S
C495 N494 1.346 . S
C495 C496 1.396 . S
C495 C505 1.510 . S
C496 C492 1.401 . S
C496 C495 1.396 . S
C497 C492 1.499 1_545 S
C497 H498 0.959 . S
C497 H499 0.960 . S
C497 H500 0.961 1_545 S
H498 C497 0.959 . S
H499 C497 0.960 . S
H500 C497 0.961 1_565 S
O501 Co476 1.967 . S
O501 C509 1.258 . S
O502 Co477 1.941 . S
O502 C509 1.266 . S
H503 C505 0.959 . S
H504 C505 0.961 . S
C505 C495 1.510 . S
C505 H503 0.959 . S
C505 H504 0.961 . S
C505 H506 0.960 . S
H506 C505 0.960 . S
H507 N487 0.862 . S
O508 Co476 1.920 . S
O508 C481 1.289 1_565 S
C509 O501 1.258 . S
C509 O502 1.266 . S
Co510 O513 1.970 . S
Co510 N527 1.989 . S
Co510 O535 1.967 . S
Co510 O542 1.920 . S
Co511 O514 1.966 . S
Co511 N520 2.022 . S
Co511 N528 1.993 . S
Co511 O536 1.941 . S
C512 O513 1.258 . S
C512 O514 1.263 . S
O513 Co510 1.970 . S
O513 C512 1.258 . S
O514 Co511 1.966 . S
O514 C512 1.263 . S
C515 O516 1.235 . S
C515 O542 1.289 . S
O516 C515 1.235 . S
C517 C519 1.400 . S
C517 N520 1.351 . S
C517 C522 1.501 . S
C518 C519 1.387 . S
C518 N521 1.341 . S
C519 C517 1.400 . S
C519 C518 1.387 . S
N520 Co511 2.022 . S
N520 C517 1.351 . S
N520 N521 1.365 . S
N521 C518 1.341 . S
N521 N520 1.365 . S
N521 H541 0.862 . S
C522 C517 1.501 . S
C522 H523 0.961 . S
C522 H524 0.961 . S
C522 H525 0.960 . S
H523 C522 0.961 . S
H524 C522 0.961 . S
H525 C522 0.960 . S
C526 N527 1.342 . S
C526 C530 1.401 . S
C526 C531 1.499 . S
N527 Co510 1.989 . S
N527 C526 1.342 . S
N527 N528 1.388 . S
N528 Co511 1.993 . S
N528 N527 1.388 . S
N528 C529 1.346 . S
C529 N528 1.346 . S
C529 C530 1.396 . S
C529 C539 1.510 . S
C530 C526 1.401 . S
C530 C529 1.396 . S
C531 C526 1.499 . S
C531 H532 0.959 . S
C531 H533 0.960 . S
C531 H534 0.961 . S
H532 C531 0.959 . S
H533 C531 0.960 . S
H534 C531 0.961 . S
O535 Co510 1.967 . S
O535 C543 1.258 . S
O536 Co511 1.941 . S
O536 C543 1.266 . S
H537 C539 0.959 . S
H538 C539 0.961 . S
C539 C529 1.510 . S
C539 H537 0.959 . S
C539 H538 0.961 . S
C539 H540 0.960 . S
H540 C539 0.960 . S
H541 N521 0.862 . S
O542 Co510 1.920 . S
O542 C515 1.289 . S
C543 O535 1.258 . S
C543 O536 1.266 . S
H544 C556 0.930 . S
H545 C558 0.938 . S
H546 C559 0.930 . S
H547 C563 0.959 . S
H548 C563 0.959 . S
H549 C563 0.961 . S
H550 C564 0.960 . S
H551 C564 0.961 . S
H552 C564 0.959 . S
H553 C567 0.929 . S
H554 C568 0.931 . S
H555 C570 0.930 . S
C556 H544 0.930 . S
C556 C557 1.399 . S
C556 C561 1.399 . S
C557 C556 1.399 . S
C557 C558 1.376 . S
C558 H545 0.938 . S
C558 C557 1.376 . S
C558 C559 1.388 . S
C559 H546 0.930 . S
C559 C558 1.388 . S
C559 C560 1.390 . S
C560 C559 1.390 . S
C560 C561 1.394 . S
C560 C566 1.465 . S
C561 C556 1.399 . S
C561 C560 1.394 . S
C561 C562 1.516 . S
C562 C561 1.516 . S
C562 C563 1.502 . S
C562 C564 1.561 . S
C562 C565 1.526 . S
C563 H547 0.959 . S
C563 H548 0.959 . S
C563 H549 0.961 . S
C563 C562 1.502 . S
C564 H550 0.960 . S
C564 H551 0.961 . S
C564 H552 0.959 . S
C564 C562 1.561 . S
C565 C562 1.526 . S
C565 C566 1.396 . S
C565 C570 1.390 . S
C566 C560 1.465 . S
C566 C565 1.396 . S
C566 C567 1.399 . S
C567 H553 0.929 . S
C567 C566 1.399 . S
C567 C568 1.385 . S
C568 H554 0.931 . S
C568 C567 1.385 . S
C568 C569 1.389 . S
C569 C568 1.389 . S
C569 C570 1.387 . S
C570 H555 0.930 . S
C570 C565 1.390 . S
C570 C569 1.387 . S
H571 C583 0.930 . S
H572 C585 0.930 . S
H573 C586 0.930 . S
H574 C590 0.959 . S
H575 C590 0.959 . S
H576 C590 0.961 . S
H577 C591 0.960 . S
H578 C591 0.961 . S
H579 C591 0.959 . S
H580 C594 0.929 . S
H581 C595 0.931 . S
H582 C597 0.930 . S
C583 H571 0.930 . S
C583 C584 1.399 . S
C583 C588 1.399 . S
C584 C583 1.399 . S
C584 C585 1.376 . S
C585 H572 0.930 . S
C585 C584 1.376 . S
C585 C586 1.388 . S
C586 H573 0.930 . S
C586 C585 1.388 . S
C586 C587 1.390 . S
C587 C586 1.390 . S
C587 C588 1.394 . S
C587 C593 1.465 . S
C588 C583 1.399 . S
C588 C587 1.394 . S
C588 C589 1.516 . S
C589 C588 1.516 . S
C589 C590 1.502 . S
C589 C591 1.561 . S
C589 C592 1.526 . S
C590 H574 0.959 . S
C590 H575 0.959 . S
C590 H576 0.961 . S
C590 C589 1.502 . S
C591 H577 0.960 . S
C591 H578 0.961 . S
C591 H579 0.959 . S
C591 C589 1.561 . S
C592 C589 1.526 . S
C592 C593 1.396 . S
C592 C597 1.390 . S
C593 C587 1.465 . S
C593 C592 1.396 . S
C593 C594 1.399 . S
C594 H580 0.929 . S
C594 C593 1.399 . S
C594 C595 1.385 . S
C595 H581 0.931 . S
C595 C594 1.385 . S
C595 C596 1.389 . S
C596 C595 1.389 . S
C596 C597 1.387 . S
C597 H582 0.930 . S
C597 C592 1.390 . S
C597 C596 1.387 . S
H598 C610 0.930 . S
H599 C612 0.930 . S
H600 C613 0.930 . S
H601 C617 0.959 . S
H602 C617 0.959 . S
H603 C617 0.961 . S
H604 C618 0.960 . S
H605 C618 0.961 . S
H606 C618 0.959 . S
H607 C621 0.929 . S
H608 C622 0.931 . S
H609 C624 0.930 . S
C610 H598 0.930 . S
C610 C611 1.399 . S
C610 C615 1.399 . S
C611 C610 1.399 . S
C611 C612 1.376 . S
C612 H599 0.930 . S
C612 C611 1.376 . S
C612 C613 1.388 . S
C613 H600 0.930 . S
C613 C612 1.388 . S
C613 C614 1.390 . S
C614 C613 1.390 . S
C614 C615 1.394 . S
C614 C620 1.465 . S
C615 C610 1.399 . S
C615 C614 1.394 . S
C615 C616 1.516 . S
C616 C615 1.516 . S
C616 C617 1.502 . S
C616 C618 1.561 . S
C616 C619 1.526 . S
C617 H601 0.959 . S
C617 H602 0.959 . S
C617 H603 0.961 . S
C617 C616 1.502 . S
C618 H604 0.960 . S
C618 H605 0.961 . S
C618 H606 0.959 . S
C618 C616 1.561 . S
C619 C616 1.526 . S
C619 C620 1.396 . S
C619 C624 1.390 . S
C620 C614 1.465 . S
C620 C619 1.396 . S
C620 C621 1.399 . S
C621 H607 0.929 . S
C621 C620 1.399 . S
C621 C622 1.385 . S
C622 H608 0.931 . S
C622 C621 1.385 . S
C622 C623 1.389 . S
C623 C622 1.389 . S
C623 C624 1.387 . S
C624 H609 0.930 . S
C624 C619 1.390 . S
C624 C623 1.387 . S
H625 C637 0.930 . S
H626 C639 0.930 . S
H627 C640 0.930 . S
H628 C644 0.959 . S
H629 C644 0.959 . S
H630 C644 0.961 . S
H631 C645 0.960 . S
H632 C645 0.961 . S
H633 C645 0.959 . S
H634 C648 0.929 . S
H635 C649 0.931 . S
H636 C651 0.930 . S
C637 H625 0.930 . S
C637 C638 1.399 . S
C637 C642 1.399 . S
C638 C637 1.399 . S
C638 C639 1.376 . S
C639 H626 0.930 . S
C639 C638 1.376 . S
C639 C640 1.388 . S
C640 H627 0.930 . S
C640 C639 1.388 . S
C640 C641 1.390 . S
C641 C640 1.390 . S
C641 C642 1.394 . S
C641 C647 1.465 . S
C642 C637 1.399 . S
C642 C641 1.394 . S
C642 C643 1.516 . S
C643 C642 1.516 . S
C643 C644 1.502 . S
C643 C645 1.561 . S
C643 C646 1.526 . S
C644 H628 0.959 . S
C644 H629 0.959 . S
C644 H630 0.961 . S
C644 C643 1.502 . S
C645 H631 0.960 . S
C645 H632 0.961 . S
C645 H633 0.959 . S
C645 C643 1.561 . S
C646 C643 1.526 . S
C646 C647 1.396 . S
C646 C651 1.390 . S
C647 C641 1.465 . S
C647 C646 1.396 . S
C647 C648 1.399 . S
C648 H634 0.929 . S
C648 C647 1.399 . S
C648 C649 1.385 . S
C649 H635 0.931 . S
C649 C648 1.385 . S
C649 C650 1.389 . S
C650 C649 1.389 . S
C650 C651 1.387 . S
C651 H636 0.930 . S
C651 C646 1.390 . S
C651 C650 1.387 . S
H652 C664 0.930 . S
H653 C666 0.930 . S
H654 C667 0.930 . S
H655 C671 0.959 . S
H656 C671 0.959 . S
H657 C671 0.961 . S
H658 C672 0.960 . S
H659 C672 0.961 . S
H660 C672 0.959 . S
H661 C675 0.929 . S
H662 C676 0.931 . S
H663 C678 0.930 . S
C664 H652 0.930 . S
C664 C665 1.399 . S
C664 C669 1.399 . S
C665 C664 1.399 . S
C665 C666 1.376 . S
C666 H653 0.930 . S
C666 C665 1.376 . S
C666 C667 1.388 . S
C667 H654 0.930 . S
C667 C666 1.388 . S
C667 C668 1.390 . S
C668 C667 1.390 . S
C668 C669 1.394 . S
C668 C674 1.465 . S
C669 C664 1.399 . S
C669 C668 1.394 . S
C669 C670 1.516 . S
C670 C669 1.516 . S
C670 C671 1.502 . S
C670 C672 1.561 . S
C670 C673 1.526 . S
C671 H655 0.959 . S
C671 H656 0.959 . S
C671 H657 0.961 . S
C671 C670 1.502 . S
C672 H658 0.960 . S
C672 H659 0.961 . S
C672 H660 0.959 . S
C672 C670 1.561 . S
C673 C670 1.526 . S
C673 C674 1.396 . S
C673 C678 1.390 . S
C674 C668 1.465 . S
C674 C673 1.396 . S
C674 C675 1.399 . S
C675 H661 0.929 . S
C675 C674 1.399 . S
C675 C676 1.385 . S
C676 H662 0.931 . S
C676 C675 1.385 . S
C676 C677 1.389 . S
C677 C676 1.389 . S
C677 C678 1.387 . S
C678 H663 0.930 . S
C678 C673 1.390 . S
C678 C677 1.387 . S
H679 C691 0.930 . S
H680 C693 0.930 . S
H681 C694 0.930 . S
H682 C698 0.959 . S
H683 C698 0.959 . S
H684 C698 0.961 . S
H685 C699 0.960 . S
H686 C699 0.961 . S
H687 C699 0.959 . S
H688 C702 0.929 . S
H689 C703 0.931 . S
H690 C705 0.930 . S
C691 H679 0.930 . S
C691 C692 1.399 . S
C691 C696 1.399 . S
C692 C691 1.399 . S
C692 C693 1.376 . S
C693 H680 0.930 . S
C693 C692 1.376 . S
C693 C694 1.388 . S
C694 H681 0.930 . S
C694 C693 1.388 . S
C694 C695 1.390 . S
C695 C694 1.390 . S
C695 C696 1.394 . S
C695 C701 1.465 . S
C696 C691 1.399 . S
C696 C695 1.394 . S
C696 C697 1.516 . S
C697 C696 1.516 . S
C697 C698 1.502 . S
C697 C699 1.561 . S
C697 C700 1.526 . S
C698 H682 0.959 . S
C698 H683 0.959 . S
C698 H684 0.961 . S
C698 C697 1.502 . S
C699 H685 0.960 . S
C699 H686 0.961 . S
C699 H687 0.959 . S
C699 C697 1.561 . S
C700 C697 1.526 . S
C700 C701 1.396 . S
C700 C705 1.390 . S
C701 C695 1.465 . S
C701 C700 1.396 . S
C701 C702 1.399 . S
C702 H688 0.929 . S
C702 C701 1.399 . S
C702 C703 1.385 . S
C703 H689 0.931 . S
C703 C702 1.385 . S
C703 C704 1.389 . S
C704 C703 1.389 . S
C704 C705 1.387 . S
C705 H690 0.930 . S
C705 C700 1.390 . S
C705 C704 1.387 . S
H706 C718 0.930 . S
H707 C720 0.930 . S
H708 C721 0.930 . S
H709 C725 0.959 . S
H710 C725 0.959 . S
H711 C725 0.961 . S
H712 C726 0.960 . S
H713 C726 0.961 . S
H714 C726 0.959 . S
H715 C729 0.929 . S
H716 C730 0.931 . S
H717 C732 0.930 . S
C718 H706 0.930 . S
C718 C719 1.399 . S
C718 C723 1.399 . S
C719 C718 1.399 . S
C719 C720 1.376 . S
C720 H707 0.930 . S
C720 C719 1.376 . S
C720 C721 1.388 . S
C721 H708 0.930 . S
C721 C720 1.388 . S
C721 C722 1.390 . S
C722 C721 1.390 . S
C722 C723 1.394 . S
C722 C728 1.465 . S
C723 C718 1.399 . S
C723 C722 1.394 . S
C723 C724 1.516 . S
C724 C723 1.516 . S
C724 C725 1.502 . S
C724 C726 1.561 . S
C724 C727 1.526 . S
C725 H709 0.959 . S
C725 H710 0.959 . S
C725 H711 0.961 . S
C725 C724 1.502 . S
C726 H712 0.960 . S
C726 H713 0.961 . S
C726 H714 0.959 . S
C726 C724 1.561 . S
C727 C724 1.526 . S
C727 C728 1.396 . S
C727 C732 1.390 . S
C728 C722 1.465 . S
C728 C727 1.396 . S
C728 C729 1.399 . S
C729 H715 0.929 . S
C729 C728 1.399 . S
C729 C730 1.385 . S
C730 H716 0.931 . S
C730 C729 1.385 . S
C730 C731 1.389 . S
C731 C730 1.389 . S
C731 C732 1.387 . S
C732 H717 0.930 . S
C732 C727 1.390 . S
C732 C731 1.387 . S
H733 C745 0.930 . S
H734 C747 0.930 . S
H735 C748 0.930 . S
H736 C752 0.959 . S
H737 C752 0.959 . S
H738 C752 0.961 . S
H739 C753 0.960 . S
H740 C753 0.961 . S
H741 C753 0.959 . S
H742 C756 0.929 . S
H743 C757 0.931 . S
H744 C759 0.930 . S
C745 H733 0.930 . S
C745 C746 1.399 . S
C745 C750 1.399 . S
C746 C745 1.399 . S
C746 C747 1.376 . S
C747 H734 0.930 . S
C747 C746 1.376 . S
C747 C748 1.388 . S
C748 H735 0.930 . S
C748 C747 1.388 . S
C748 C749 1.390 . S
C749 C748 1.390 . S
C749 C750 1.394 . S
C749 C755 1.465 . S
C750 C745 1.399 . S
C750 C749 1.394 . S
C750 C751 1.516 . S
C751 C750 1.516 . S
C751 C752 1.502 . S
C751 C753 1.561 . S
C751 C754 1.526 . S
C752 H736 0.959 . S
C752 H737 0.959 . S
C752 H738 0.961 . S
C752 C751 1.502 . S
C753 H739 0.960 . S
C753 H740 0.961 . S
C753 H741 0.959 . S
C753 C751 1.561 . S
C754 C751 1.526 . S
C754 C755 1.396 . S
C754 C759 1.390 . S
C755 C749 1.465 . S
C755 C754 1.396 . S
C755 C756 1.399 . S
C756 H742 0.929 . S
C756 C755 1.399 . S
C756 C757 1.385 . S
C757 H743 0.931 . S
C757 C756 1.385 . S
C757 C758 1.389 . S
C758 C757 1.389 . S
C758 C759 1.387 . S
C759 H744 0.930 . S
C759 C754 1.390 . S
C759 C758 1.387 . S
H760 C772 0.930 . S
H761 C774 0.930 . S
H762 C775 0.930 1_565 S
H763 C779 0.959 . S
H764 C779 0.959 . S
H765 C779 0.961 . S
H766 C780 0.960 . S
H767 C780 0.961 . S
H768 C780 0.959 . S
H769 C783 0.929 1_565 S
H770 C784 0.931 . S
H771 C786 0.930 . S
C772 H760 0.930 . S
C772 C773 1.399 . S
C772 C777 1.399 . S
C773 C772 1.399 . S
C773 C774 1.376 . S
C774 H761 0.930 . S
C774 C773 1.376 . S
C774 C775 1.388 . S
C775 H762 0.930 1_545 S
C775 C774 1.388 . S
C775 C776 1.390 . S
C776 C775 1.390 . S
C776 C777 1.394 . S
C776 C782 1.465 . S
C777 C772 1.399 . S
C777 C776 1.394 . S
C777 C778 1.516 . S
C778 C777 1.516 . S
C778 C779 1.502 . S
C778 C780 1.561 . S
C778 C781 1.526 . S
C779 H763 0.959 . S
C779 H764 0.959 . S
C779 H765 0.961 . S
C779 C778 1.502 . S
C780 H766 0.960 . S
C780 H767 0.961 . S
C780 H768 0.959 . S
C780 C778 1.561 . S
C781 C778 1.526 . S
C781 C782 1.396 . S
C781 C786 1.390 . S
C782 C776 1.465 . S
C782 C781 1.396 . S
C782 C783 1.399 . S
C783 H769 0.929 1_545 S
C783 C782 1.399 . S
C783 C784 1.385 . S
C784 H770 0.931 . S
C784 C783 1.385 . S
C784 C785 1.389 . S
C785 C784 1.389 . S
C785 C786 1.387 . S
C786 H771 0.930 . S
C786 C781 1.390 . S
C786 C785 1.387 . S
H787 C799 0.930 . S
H788 C801 0.930 . S
H789 C802 0.930 . S
H790 C806 0.959 . S
H791 C806 0.959 . S
H792 C806 0.961 . S
H793 C807 0.960 . S
H794 C807 0.961 . S
H795 C807 0.959 . S
H796 C810 0.929 . S
H797 C811 0.931 . S
H798 C813 0.930 . S
C799 H787 0.930 . S
C799 C800 1.399 . S
C799 C804 1.399 . S
C800 C799 1.399 . S
C800 C801 1.376 . S
C801 H788 0.930 . S
C801 C800 1.376 . S
C801 C802 1.388 . S
C802 H789 0.930 . S
C802 C801 1.388 . S
C802 C803 1.390 . S
C803 C802 1.390 . S
C803 C804 1.394 . S
C803 C809 1.465 . S
C804 C799 1.399 . S
C804 C803 1.394 . S
C804 C805 1.516 . S
C805 C804 1.516 . S
C805 C806 1.502 . S
C805 C807 1.561 . S
C805 C808 1.526 . S
C806 H790 0.959 . S
C806 H791 0.959 . S
C806 H792 0.961 . S
C806 C805 1.502 . S
C807 H793 0.960 . S
C807 H794 0.961 . S
C807 H795 0.959 . S
C807 C805 1.561 . S
C808 C805 1.526 . S
C808 C809 1.396 . S
C808 C813 1.390 . S
C809 C803 1.465 . S
C809 C808 1.396 . S
C809 C810 1.399 . S
C810 H796 0.929 . S
C810 C809 1.399 . S
C810 C811 1.385 . S
C811 H797 0.931 . S
C811 C810 1.385 . S
C811 C812 1.389 . S
C812 C811 1.389 . S
C812 C813 1.387 . S
C813 H798 0.930 . S
C813 C808 1.390 . S
C813 C812 1.387 . S
H814 C826 0.930 . S
H815 C828 0.930 . S
H816 C829 0.930 . S
H817 C833 0.959 . S
H818 C833 0.959 . S
H819 C833 0.961 . S
H820 C834 0.960 . S
H821 C834 0.961 . S
H822 C834 0.959 . S
H823 C837 0.929 . S
H824 C838 0.931 . S
H825 C840 0.930 . S
C826 H814 0.930 . S
C826 C827 1.399 . S
C826 C831 1.399 . S
C827 C826 1.399 . S
C827 C828 1.376 . S
C828 H815 0.930 . S
C828 C827 1.376 . S
C828 C829 1.388 . S
C829 H816 0.930 . S
C829 C828 1.388 . S
C829 C830 1.390 . S
C830 C829 1.390 . S
C830 C831 1.394 . S
C830 C836 1.465 . S
C831 C826 1.399 . S
C831 C830 1.394 . S
C831 C832 1.516 . S
C832 C831 1.516 . S
C832 C833 1.502 . S
C832 C834 1.561 . S
C832 C835 1.526 . S
C833 H817 0.959 . S
C833 H818 0.959 . S
C833 H819 0.961 . S
C833 C832 1.502 . S
C834 H820 0.960 . S
C834 H821 0.961 . S
C834 H822 0.959 . S
C834 C832 1.561 . S
C835 C832 1.526 . S
C835 C836 1.396 . S
C835 C840 1.390 . S
C836 C830 1.465 . S
C836 C835 1.396 . S
C836 C837 1.399 . S
C837 H823 0.929 . S
C837 C836 1.399 . S
C837 C838 1.385 . S
C838 H824 0.931 . S
C838 C837 1.385 . S
C838 C839 1.389 . S
C839 C838 1.389 . S
C839 C840 1.387 . S
C840 H825 0.930 . S
C840 C835 1.390 . S
C840 C839 1.387 . S
H841 C853 0.930 . S
H842 C855 0.937 . S
H843 C856 0.930 1_655 S
H844 C860 0.959 . S
H845 C860 0.959 . S
H846 C860 0.961 . S
H847 C861 0.960 . S
H848 C861 0.961 . S
H849 C861 0.959 . S
H850 C864 0.929 1_655 S
H851 C865 0.932 1_655 S
H852 C867 0.930 . S
C853 H841 0.930 . S
C853 C854 1.399 . S
C853 C858 1.399 . S
C854 C853 1.399 . S
C854 C855 1.376 . S
C855 H842 0.937 . S
C855 C854 1.376 . S
C855 C856 1.388 . S
C856 H843 0.930 1_455 S
C856 C855 1.388 . S
C856 C857 1.390 . S
C857 C856 1.390 . S
C857 C858 1.394 . S
C857 C863 1.465 . S
C858 C853 1.399 . S
C858 C857 1.394 . S
C858 C859 1.516 . S
C859 C858 1.516 . S
C859 C860 1.502 . S
C859 C861 1.561 . S
C859 C862 1.526 . S
C860 H844 0.959 . S
C860 H845 0.959 . S
C860 H846 0.961 . S
C860 C859 1.502 . S
C861 H847 0.960 . S
C861 H848 0.961 . S
C861 H849 0.959 . S
C861 C859 1.561 . S
C862 C859 1.526 . S
C862 C863 1.396 . S
C862 C867 1.390 . S
C863 C857 1.465 . S
C863 C862 1.396 . S
C863 C864 1.399 . S
C864 H850 0.929 1_455 S
C864 C863 1.399 . S
C864 C865 1.385 . S
C865 H851 0.932 1_455 S
C865 C864 1.385 . S
C865 C866 1.389 . S
C866 C865 1.389 . S
C866 C867 1.387 . S
C867 H852 0.930 . S
C867 C862 1.390 . S
C867 C866 1.387 . S
H868 C880 0.930 . S
H869 C882 0.930 . S
H870 C883 0.930 . S
H871 C887 0.959 . S
H872 C887 0.959 . S
H873 C887 0.961 . S
H874 C888 0.960 . S
H875 C888 0.961 . S
H876 C888 0.959 . S
H877 C891 0.929 . S
H878 C892 0.931 . S
H879 C894 0.930 . S
C880 H868 0.930 . S
C880 C881 1.399 . S
C880 C885 1.399 . S
C881 C880 1.399 . S
C881 C882 1.376 . S
C882 H869 0.930 . S
C882 C881 1.376 . S
C882 C883 1.388 . S
C883 H870 0.930 . S
C883 C882 1.388 . S
C883 C884 1.390 . S
C884 C883 1.390 . S
C884 C885 1.394 . S
C884 C890 1.465 . S
C885 C880 1.399 . S
C885 C884 1.394 . S
C885 C886 1.516 . S
C886 C885 1.516 . S
C886 C887 1.502 . S
C886 C888 1.561 1_565 S
C886 C889 1.526 . S
C887 H871 0.959 . S
C887 H872 0.959 . S
C887 H873 0.961 . S
C887 C886 1.502 . S
C888 H874 0.960 . S
C888 H875 0.961 . S
C888 H876 0.959 . S
C888 C886 1.561 1_545 S
C889 C886 1.526 . S
C889 C890 1.396 . S
C889 C894 1.390 . S
C890 C884 1.465 . S
C890 C889 1.396 . S
C890 C891 1.399 . S
C891 H877 0.929 . S
C891 C890 1.399 . S
C891 C892 1.385 . S
C892 H878 0.931 . S
C892 C891 1.385 . S
C892 C893 1.389 . S
C893 C892 1.389 . S
C893 C894 1.387 . S
C894 H879 0.930 . S
C894 C889 1.390 . S
C894 C893 1.387 . S
H895 C907 0.930 . S
H896 C909 0.930 . S
H897 C910 0.930 . S
H898 C914 0.959 . S
H899 C914 0.959 . S
H900 C914 0.961 . S
H901 C915 0.960 . S
H902 C915 0.961 . S
H903 C915 0.959 . S
H904 C918 0.929 . S
H905 C919 0.931 . S
H906 C921 0.930 . S
C907 H895 0.930 . S
C907 C908 1.399 . S
C907 C912 1.399 . S
C908 C907 1.399 . S
C908 C909 1.376 . S
C909 H896 0.930 . S
C909 C908 1.376 . S
C909 C910 1.388 . S
C910 H897 0.930 . S
C910 C909 1.388 . S
C910 C911 1.390 . S
C911 C910 1.390 . S
C911 C912 1.394 . S
C911 C917 1.465 . S
C912 C907 1.399 . S
C912 C911 1.394 . S
C912 C913 1.516 . S
C913 C912 1.516 . S
C913 C914 1.502 . S
C913 C915 1.561 . S
C913 C916 1.526 . S
C914 H898 0.959 . S
C914 H899 0.959 . S
C914 H900 0.961 . S
C914 C913 1.502 . S
C915 H901 0.960 . S
C915 H902 0.961 . S
C915 H903 0.959 . S
C915 C913 1.561 . S
C916 C913 1.526 . S
C916 C917 1.396 . S
C916 C921 1.390 . S
C917 C911 1.465 . S
C917 C916 1.396 . S
C917 C918 1.399 . S
C918 H904 0.929 . S
C918 C917 1.399 . S
C918 C919 1.385 . S
C919 H905 0.931 . S
C919 C918 1.385 . S
C919 C920 1.389 . S
C920 C919 1.389 . S
C920 C921 1.387 . S
C921 H906 0.930 . S
C921 C916 1.390 . S
C921 C920 1.387 . S
H922 C934 0.930 . S
H923 C936 0.930 . S
H924 C937 0.930 . S
H925 C941 0.959 . S
H926 C941 0.959 . S
H927 C941 0.961 . S
H928 C942 0.960 . S
H929 C942 0.961 . S
H930 C942 0.959 . S
H931 C945 0.929 . S
H932 C946 0.931 . S
H933 C948 0.930 . S
C934 H922 0.930 . S
C934 C935 1.399 . S
C934 C939 1.399 . S
C935 C934 1.399 . S
C935 C936 1.376 . S
C936 H923 0.930 . S
C936 C935 1.376 . S
C936 C937 1.388 . S
C937 H924 0.930 . S
C937 C936 1.388 . S
C937 C938 1.390 . S
C938 C937 1.390 . S
C938 C939 1.394 . S
C938 C944 1.465 . S
C939 C934 1.399 . S
C939 C938 1.394 . S
C939 C940 1.516 . S
C940 C939 1.516 . S
C940 C941 1.502 . S
C940 C942 1.561 . S
C940 C943 1.526 . S
C941 H925 0.959 . S
C941 H926 0.959 . S
C941 H927 0.961 . S
C941 C940 1.502 . S
C942 H928 0.960 . S
C942 H929 0.961 . S
C942 H930 0.959 . S
C942 C940 1.561 . S
C943 C940 1.526 . S
C943 C944 1.396 . S
C943 C948 1.390 . S
C944 C938 1.465 . S
C944 C943 1.396 . S
C944 C945 1.399 . S
C945 H931 0.929 . S
C945 C944 1.399 . S
C945 C946 1.385 . S
C946 H932 0.931 . S
C946 C945 1.385 . S
C946 C947 1.389 . S
C947 C946 1.389 . S
C947 C948 1.387 . S
C948 H933 0.930 . S
C948 C943 1.390 . S
C948 C947 1.387 . S
H949 C961 0.930 . S
H950 C963 0.930 . S
H951 C964 0.930 . S
H952 C968 0.959 1_455 S
H953 C968 0.959 . S
H954 C968 0.961 . S
H955 C969 0.960 . S
H956 C969 0.961 . S
H957 C969 0.959 . S
H958 C972 0.929 . S
H959 C973 0.931 . S
H960 C975 0.930 . S
C961 H949 0.930 . S
C961 C962 1.399 . S
C961 C966 1.399 . S
C962 C961 1.399 . S
C962 C963 1.376 . S
C963 H950 0.930 . S
C963 C962 1.376 . S
C963 C964 1.388 . S
C964 H951 0.930 . S
C964 C963 1.388 . S
C964 C965 1.390 . S
C965 C964 1.390 . S
C965 C966 1.394 . S
C965 C971 1.465 . S
C966 C961 1.399 . S
C966 C965 1.394 . S
C966 C967 1.516 . S
C967 C966 1.516 . S
C967 C968 1.502 . S
C967 C969 1.561 . S
C967 C970 1.526 . S
C968 H952 0.959 1_655 S
C968 H953 0.959 . S
C968 H954 0.961 . S
C968 C967 1.502 . S
C969 H955 0.960 . S
C969 H956 0.961 . S
C969 H957 0.959 . S
C969 C967 1.561 . S
C970 C967 1.526 . S
C970 C971 1.396 . S
C970 C975 1.390 . S
C971 C965 1.465 . S
C971 C970 1.396 . S
C971 C972 1.399 . S
C972 H958 0.929 . S
C972 C971 1.399 . S
C972 C973 1.385 . S
C973 H959 0.931 . S
C973 C972 1.385 . S
C973 C974 1.389 . S
C974 C973 1.389 . S
C974 C975 1.387 . S
C975 H960 0.930 . S
C975 C970 1.390 . S
C975 C974 1.387 . S
H976 C988 0.930 . S
H977 C990 0.930 . S
H978 C991 0.930 . S
H979 C995 0.959 . S
H980 C995 0.959 . S
H981 C995 0.961 . S
H982 C996 0.960 . S
H983 C996 0.961 . S
H984 C996 0.959 . S
H985 C999 0.929 . S
H986 C1000 0.931 . S
H987 C1002 0.930 . S
C988 H976 0.930 . S
C988 C989 1.399 . S
C988 C993 1.399 . S
C989 C988 1.399 . S
C989 C990 1.376 . S
C990 H977 0.930 . S
C990 C989 1.376 . S
C990 C991 1.388 . S
C991 H978 0.930 . S
C991 C990 1.388 . S
C991 C992 1.390 . S
C992 C991 1.390 . S
C992 C993 1.394 . S
C992 C998 1.465 . S
C993 C988 1.399 . S
C993 C992 1.394 . S
C993 C994 1.516 . S
C994 C993 1.516 . S
C994 C995 1.502 . S
C994 C996 1.561 . S
C994 C997 1.526 . S
C995 H979 0.959 . S
C995 H980 0.959 . S
C995 H981 0.961 . S
C995 C994 1.502 . S
C996 H982 0.960 . S
C996 H983 0.961 . S
C996 H984 0.959 . S
C996 C994 1.561 . S
C997 C994 1.526 . S
C997 C998 1.396 . S
C997 C1002 1.390 . S
C998 C992 1.465 . S
C998 C997 1.396 . S
C998 C999 1.399 . S
C999 H985 0.929 . S
C999 C998 1.399 . S
C999 C1000 1.385 . S
C1000 H986 0.931 . S
C1000 C999 1.385 . S
C1000 C1001 1.389 . S
C1001 C1000 1.389 . S
C1001 C1002 1.387 . S
C1002 H987 0.930 . S
C1002 C997 1.390 . S
C1002 C1001 1.387 . S
H1003 C1015 0.930 . S
H1004 C1017 0.930 . S
H1005 C1018 0.930 . S
H1006 C1022 0.959 . S
H1007 C1022 0.959 . S
H1008 C1022 0.961 . S
H1009 C1023 0.960 . S
H1010 C1023 0.961 . S
H1011 C1023 0.959 . S
H1012 C1026 0.929 . S
H1013 C1027 0.931 . S
H1014 C1029 0.930 . S
C1015 H1003 0.930 . S
C1015 C1016 1.399 . S
C1015 C1020 1.399 . S
C1016 C1015 1.399 . S
C1016 C1017 1.376 . S
C1017 H1004 0.930 . S
C1017 C1016 1.376 . S
C1017 C1018 1.388 . S
C1018 H1005 0.930 . S
C1018 C1017 1.388 . S
C1018 C1019 1.390 . S
C1019 C1018 1.390 . S
C1019 C1020 1.394 . S
C1019 C1025 1.465 . S
C1020 C1015 1.399 . S
C1020 C1019 1.394 . S
C1020 C1021 1.516 . S
C1021 C1020 1.516 . S
C1021 C1022 1.502 . S
C1021 C1023 1.561 . S
C1021 C1024 1.526 . S
C1022 H1006 0.959 . S
C1022 H1007 0.959 . S
C1022 H1008 0.961 . S
C1022 C1021 1.502 . S
C1023 H1009 0.960 . S
C1023 H1010 0.961 . S
C1023 H1011 0.959 . S
C1023 C1021 1.561 . S
C1024 C1021 1.526 . S
C1024 C1025 1.396 . S
C1024 C1029 1.390 . S
C1025 C1019 1.465 . S
C1025 C1024 1.396 . S
C1025 C1026 1.399 . S
C1026 H1012 0.929 . S
C1026 C1025 1.399 . S
C1026 C1027 1.385 . S
C1027 H1013 0.931 . S
C1027 C1026 1.385 . S
C1027 C1028 1.389 . S
C1028 C1027 1.389 . S
C1028 C1029 1.387 . S
C1029 H1014 0.930 . S
C1029 C1024 1.390 . S
C1029 C1028 1.387 . S
H1030 C1042 0.930 . S
H1031 C1044 0.930 . S
H1032 C1045 0.930 . S
H1033 C1049 0.959 . S
H1034 C1049 0.959 . S
H1035 C1049 0.961 . S
H1036 C1050 0.960 . S
H1037 C1050 0.961 . S
H1038 C1050 0.959 . S
H1039 C1053 0.929 . S
H1040 C1054 0.931 . S
H1041 C1056 0.930 . S
C1042 H1030 0.930 . S
C1042 C1043 1.399 . S
C1042 C1047 1.399 . S
C1043 C1042 1.399 . S
C1043 C1044 1.376 . S
C1044 H1031 0.930 . S
C1044 C1043 1.376 . S
C1044 C1045 1.388 . S
C1045 H1032 0.930 . S
C1045 C1044 1.388 . S
C1045 C1046 1.390 . S
C1046 C1045 1.390 . S
C1046 C1047 1.394 . S
C1046 C1052 1.465 . S
C1047 C1042 1.399 . S
C1047 C1046 1.394 . S
C1047 C1048 1.516 . S
C1048 C1047 1.516 . S
C1048 C1049 1.502 . S
C1048 C1050 1.561 . S
C1048 C1051 1.526 . S
C1049 H1033 0.959 . S
C1049 H1034 0.959 . S
C1049 H1035 0.961 . S
C1049 C1048 1.502 . S
C1050 H1036 0.960 . S
C1050 H1037 0.961 . S
C1050 H1038 0.959 . S
C1050 C1048 1.561 . S
C1051 C1048 1.526 . S
C1051 C1052 1.396 . S
C1051 C1056 1.390 . S
C1052 C1046 1.465 . S
C1052 C1051 1.396 . S
C1052 C1053 1.399 . S
C1053 H1039 0.929 . S
C1053 C1052 1.399 . S
C1053 C1054 1.385 . S
C1054 H1040 0.931 . S
C1054 C1053 1.385 . S
C1054 C1055 1.389 . S
C1055 C1054 1.389 . S
C1055 C1056 1.387 . S
C1056 H1041 0.930 . S
C1056 C1051 1.390 . S
C1056 C1055 1.387 . S
H1057 C1069 0.930 . S
H1058 C1071 0.930 . S
H1059 C1072 0.930 . S
H1060 C1076 0.959 . S
H1061 C1076 0.959 . S
H1062 C1076 0.961 . S
H1063 C1077 0.960 . S
H1064 C1077 0.961 . S
H1065 C1077 0.959 . S
H1066 C1080 0.929 . S
H1067 C1081 0.931 . S
H1068 C1083 0.930 . S
C1069 H1057 0.930 . S
C1069 C1070 1.399 . S
C1069 C1074 1.399 . S
C1070 C1069 1.399 . S
C1070 C1071 1.376 . S
C1071 H1058 0.930 . S
C1071 C1070 1.376 . S
C1071 C1072 1.388 . S
C1072 H1059 0.930 . S
C1072 C1071 1.388 . S
C1072 C1073 1.390 . S
C1073 C1072 1.390 . S
C1073 C1074 1.394 . S
C1073 C1079 1.465 . S
C1074 C1069 1.399 . S
C1074 C1073 1.394 . S
C1074 C1075 1.516 . S
C1075 C1074 1.516 . S
C1075 C1076 1.502 . S
C1075 C1077 1.561 . S
C1075 C1078 1.526 . S
C1076 H1060 0.959 . S
C1076 H1061 0.959 . S
C1076 H1062 0.961 . S
C1076 C1075 1.502 . S
C1077 H1063 0.960 . S
C1077 H1064 0.961 . S
C1077 H1065 0.959 . S
C1077 C1075 1.561 . S
C1078 C1075 1.526 . S
C1078 C1079 1.396 . S
C1078 C1083 1.390 . S
C1079 C1073 1.465 . S
C1079 C1078 1.396 . S
C1079 C1080 1.399 . S
C1080 H1066 0.929 . S
C1080 C1079 1.399 . S
C1080 C1081 1.385 . S
C1081 H1067 0.931 . S
C1081 C1080 1.385 . S
C1081 C1082 1.389 . S
C1082 C1081 1.389 . S
C1082 C1083 1.387 . S
C1083 H1068 0.930 . S
C1083 C1078 1.390 . S
C1083 C1082 1.387 . S
H1084 C1096 0.930 . S
H1085 C1098 0.930 . S
H1086 C1099 0.930 . S
H1087 C1103 0.959 . S
H1088 C1103 0.959 . S
H1089 C1103 0.961 . S
H1090 C1104 0.960 . S
H1091 C1104 0.961 . S
H1092 C1104 0.959 . S
H1093 C1107 0.929 . S
H1094 C1108 0.931 . S
H1095 C1110 0.930 . S
C1096 H1084 0.930 . S
C1096 C1097 1.399 . S
C1096 C1101 1.399 . S
C1097 C1096 1.399 . S
C1097 C1098 1.376 . S
C1098 H1085 0.930 . S
C1098 C1097 1.376 . S
C1098 C1099 1.388 . S
C1099 H1086 0.930 . S
C1099 C1098 1.388 . S
C1099 C1100 1.390 . S
C1100 C1099 1.390 . S
C1100 C1101 1.394 . S
C1100 C1106 1.465 . S
C1101 C1096 1.399 . S
C1101 C1100 1.394 . S
C1101 C1102 1.516 . S
C1102 C1101 1.516 . S
C1102 C1103 1.502 . S
C1102 C1104 1.561 . S
C1102 C1105 1.526 . S
C1103 H1087 0.959 . S
C1103 H1088 0.959 . S
C1103 H1089 0.961 . S
C1103 C1102 1.502 . S
C1104 H1090 0.960 . S
C1104 H1091 0.961 . S
C1104 H1092 0.959 . S
C1104 C1102 1.561 . S
C1105 C1102 1.526 . S
C1105 C1106 1.396 . S
C1105 C1110 1.390 . S
C1106 C1100 1.465 . S
C1106 C1105 1.396 . S
C1106 C1107 1.399 . S
C1107 H1093 0.929 . S
C1107 C1106 1.399 . S
C1107 C1108 1.385 . S
C1108 H1094 0.931 . S
C1108 C1107 1.385 . S
C1108 C1109 1.389 . S
C1109 C1108 1.389 . S
C1109 C1110 1.387 . S
C1110 H1095 0.930 . S
C1110 C1105 1.390 . S
C1110 C1109 1.387 . S
H1111 C1123 0.930 . S
H1112 C1125 0.930 . S
H1113 C1126 0.930 . S
H1114 C1130 0.959 . S
H1115 C1130 0.959 . S
H1116 C1130 0.961 . S
H1117 C1131 0.960 . S
H1118 C1131 0.961 . S
H1119 C1131 0.959 . S
H1120 C1134 0.929 . S
H1121 C1135 0.931 . S
H1122 C1137 0.930 . S
C1123 H1111 0.930 . S
C1123 C1124 1.399 . S
C1123 C1128 1.399 . S
C1124 C1123 1.399 . S
C1124 C1125 1.376 . S
C1125 H1112 0.930 . S
C1125 C1124 1.376 . S
C1125 C1126 1.388 . S
C1126 H1113 0.930 . S
C1126 C1125 1.388 . S
C1126 C1127 1.390 . S
C1127 C1126 1.390 . S
C1127 C1128 1.394 . S
C1127 C1133 1.465 . S
C1128 C1123 1.399 . S
C1128 C1127 1.394 . S
C1128 C1129 1.516 . S
C1129 C1128 1.516 . S
C1129 C1130 1.502 . S
C1129 C1131 1.561 . S
C1129 C1132 1.526 . S
C1130 H1114 0.959 . S
C1130 H1115 0.959 . S
C1130 H1116 0.961 . S
C1130 C1129 1.502 . S
C1131 H1117 0.960 . S
C1131 H1118 0.961 . S
C1131 H1119 0.959 . S
C1131 C1129 1.561 . S
C1132 C1129 1.526 . S
C1132 C1133 1.396 . S
C1132 C1137 1.390 . S
C1133 C1127 1.465 . S
C1133 C1132 1.396 . S
C1133 C1134 1.399 . S
C1134 H1120 0.929 . S
C1134 C1133 1.399 . S
C1134 C1135 1.385 . S
C1135 H1121 0.931 . S
C1135 C1134 1.385 . S
C1135 C1136 1.389 . S
C1136 C1135 1.389 . S
C1136 C1137 1.387 . S
C1137 H1122 0.930 . S
C1137 C1132 1.390 . S
C1137 C1136 1.387 . S
H1138 C1150 0.930 . S
H1139 C1152 0.930 . S
H1140 C1153 0.930 . S
H1141 C1157 0.959 . S
H1142 C1157 0.959 . S
H1143 C1157 0.961 . S
H1144 C1158 0.960 . S
H1145 C1158 0.961 . S
H1146 C1158 0.959 . S
H1147 C1161 0.929 . S
H1148 C1162 0.931 . S
H1149 C1164 0.930 . S
C1150 H1138 0.930 . S
C1150 C1151 1.399 . S
C1150 C1155 1.399 . S
C1151 C1150 1.399 . S
C1151 C1152 1.376 . S
C1152 H1139 0.930 . S
C1152 C1151 1.376 . S
C1152 C1153 1.388 . S
C1153 H1140 0.930 . S
C1153 C1152 1.388 . S
C1153 C1154 1.390 . S
C1154 C1153 1.390 . S
C1154 C1155 1.394 . S
C1154 C1160 1.465 . S
C1155 C1150 1.399 . S
C1155 C1154 1.394 . S
C1155 C1156 1.516 . S
C1156 C1155 1.516 . S
C1156 C1157 1.502 . S
C1156 C1158 1.561 . S
C1156 C1159 1.526 . S
C1157 H1141 0.959 . S
C1157 H1142 0.959 . S
C1157 H1143 0.961 . S
C1157 C1156 1.502 . S
C1158 H1144 0.960 . S
C1158 H1145 0.961 . S
C1158 H1146 0.959 . S
C1158 C1156 1.561 . S
C1159 C1156 1.526 . S
C1159 C1160 1.396 . S
C1159 C1164 1.390 . S
C1160 C1154 1.465 . S
C1160 C1159 1.396 . S
C1160 C1161 1.399 . S
C1161 H1147 0.929 . S
C1161 C1160 1.399 . S
C1161 C1162 1.385 . S
C1162 H1148 0.931 . S
C1162 C1161 1.385 . S
C1162 C1163 1.389 . S
C1163 C1162 1.389 . S
C1163 C1164 1.387 . S
C1164 H1149 0.930 . S
C1164 C1159 1.390 . S
C1164 C1163 1.387 . S
H1165 C1177 0.930 . S
H1166 C1179 0.930 . S
H1167 C1180 0.930 . S
H1168 C1184 0.959 . S
H1169 C1184 0.959 . S
H1170 C1184 0.961 . S
H1171 C1185 0.960 . S
H1172 C1185 0.961 . S
H1173 C1185 0.959 . S
H1174 C1188 0.929 . S
H1175 C1189 0.931 . S
H1176 C1191 0.930 . S
C1177 H1165 0.930 . S
C1177 C1178 1.399 . S
C1177 C1182 1.399 . S
C1178 C1177 1.399 . S
C1178 C1179 1.376 . S
C1179 H1166 0.930 . S
C1179 C1178 1.376 . S
C1179 C1180 1.388 . S
C1180 H1167 0.930 . S
C1180 C1179 1.388 . S
C1180 C1181 1.390 . S
C1181 C1180 1.390 . S
C1181 C1182 1.394 . S
C1181 C1187 1.465 . S
C1182 C1177 1.399 . S
C1182 C1181 1.394 . S
C1182 C1183 1.516 . S
C1183 C1182 1.516 . S
C1183 C1184 1.502 . S
C1183 C1185 1.561 . S
C1183 C1186 1.526 . S
C1184 H1168 0.959 . S
C1184 H1169 0.959 . S
C1184 H1170 0.961 . S
C1184 C1183 1.502 . S
C1185 H1171 0.960 . S
C1185 H1172 0.961 . S
C1185 H1173 0.959 . S
C1185 C1183 1.561 . S
C1186 C1183 1.526 . S
C1186 C1187 1.396 . S
C1186 C1191 1.390 . S
C1187 C1181 1.465 . S
C1187 C1186 1.396 . S
C1187 C1188 1.399 . S
C1188 H1174 0.929 . S
C1188 C1187 1.399 . S
C1188 C1189 1.385 . S
C1189 H1175 0.931 . S
C1189 C1188 1.385 . S
C1189 C1190 1.389 . S
C1190 C1189 1.389 . S
C1190 C1191 1.387 . S
C1191 H1176 0.930 . S
C1191 C1186 1.390 . S
C1191 C1190 1.387 . S
H1192 C1204 0.930 . S
H1193 C1206 0.930 . S
H1194 C1207 0.930 . S
H1195 C1211 0.959 . S
H1196 C1211 0.959 . S
H1197 C1211 0.961 . S
H1198 C1212 0.960 . S
H1199 C1212 0.961 . S
H1200 C1212 0.959 . S
H1201 C1215 0.929 . S
H1202 C1216 0.931 . S
H1203 C1218 0.930 . S
C1204 H1192 0.930 . S
C1204 C1205 1.399 . S
C1204 C1209 1.399 . S
C1205 C1204 1.399 . S
C1205 C1206 1.376 . S
C1206 H1193 0.930 . S
C1206 C1205 1.376 . S
C1206 C1207 1.388 . S
C1207 H1194 0.930 . S
C1207 C1206 1.388 . S
C1207 C1208 1.390 . S
C1208 C1207 1.390 . S
C1208 C1209 1.394 . S
C1208 C1214 1.465 . S
C1209 C1204 1.399 . S
C1209 C1208 1.394 . S
C1209 C1210 1.516 . S
C1210 C1209 1.516 . S
C1210 C1211 1.502 . S
C1210 C1212 1.561 . S
C1210 C1213 1.526 . S
C1211 H1195 0.959 . S
C1211 H1196 0.959 . S
C1211 H1197 0.961 . S
C1211 C1210 1.502 . S
C1212 H1198 0.960 . S
C1212 H1199 0.961 . S
C1212 H1200 0.959 . S
C1212 C1210 1.561 . S
C1213 C1210 1.526 . S
C1213 C1214 1.396 . S
C1213 C1218 1.390 . S
C1214 C1208 1.465 . S
C1214 C1213 1.396 . S
C1214 C1215 1.399 . S
C1215 H1201 0.929 . S
C1215 C1214 1.399 . S
C1215 C1216 1.385 . S
C1216 H1202 0.931 . S
C1216 C1215 1.385 . S
C1216 C1217 1.389 . S
C1217 C1216 1.389 . S
C1217 C1218 1.387 . S
C1218 H1203 0.930 . S
C1218 C1213 1.390 . S
C1218 C1217 1.387 . S
H1219 C1231 0.930 . S
H1220 C1233 0.930 . S
H1221 C1234 0.930 . S
H1222 C1238 0.959 . S
H1223 C1238 0.959 . S
H1224 C1238 0.961 . S
H1225 C1239 0.960 . S
H1226 C1239 0.961 . S
H1227 C1239 0.959 . S
H1228 C1242 0.929 . S
H1229 C1243 0.931 . S
H1230 C1245 0.930 . S
C1231 H1219 0.930 . S
C1231 C1232 1.399 . S
C1231 C1236 1.399 . S
C1232 C1231 1.399 . S
C1232 C1233 1.376 . S
C1233 H1220 0.930 . S
C1233 C1232 1.376 . S
C1233 C1234 1.388 . S
C1234 H1221 0.930 . S
C1234 C1233 1.388 . S
C1234 C1235 1.390 . S
C1235 C1234 1.390 . S
C1235 C1236 1.394 . S
C1235 C1241 1.465 . S
C1236 C1231 1.399 . S
C1236 C1235 1.394 . S
C1236 C1237 1.516 . S
C1237 C1236 1.516 . S
C1237 C1238 1.502 . S
C1237 C1239 1.561 . S
C1237 C1240 1.526 . S
C1238 H1222 0.959 . S
C1238 H1223 0.959 . S
C1238 H1224 0.961 . S
C1238 C1237 1.502 . S
C1239 H1225 0.960 . S
C1239 H1226 0.961 . S
C1239 H1227 0.959 . S
C1239 C1237 1.561 . S
C1240 C1237 1.526 . S
C1240 C1241 1.396 . S
C1240 C1245 1.390 . S
C1241 C1235 1.465 . S
C1241 C1240 1.396 . S
C1241 C1242 1.399 . S
C1242 H1228 0.929 . S
C1242 C1241 1.399 . S
C1242 C1243 1.385 . S
C1243 H1229 0.931 . S
C1243 C1242 1.385 . S
C1243 C1244 1.389 . S
C1244 C1243 1.389 . S
C1244 C1245 1.387 . S
C1245 H1230 0.930 . S
C1245 C1240 1.390 . S
C1245 C1244 1.387 . S
H1246 C1258 0.930 . S
H1247 C1260 0.930 . S
H1248 C1261 0.930 . S
H1249 C1265 0.959 . S
H1250 C1265 0.959 . S
H1251 C1265 0.961 . S
H1252 C1266 0.960 . S
H1253 C1266 0.961 . S
H1254 C1266 0.959 . S
H1255 C1269 0.929 . S
H1256 C1270 0.931 . S
H1257 C1272 0.930 . S
C1258 H1246 0.930 . S
C1258 C1259 1.399 . S
C1258 C1263 1.399 . S
C1259 C1258 1.399 . S
C1259 C1260 1.376 . S
C1260 H1247 0.930 . S
C1260 C1259 1.376 . S
C1260 C1261 1.388 . S
C1261 H1248 0.930 . S
C1261 C1260 1.388 . S
C1261 C1262 1.390 . S
C1262 C1261 1.390 . S
C1262 C1263 1.394 . S
C1262 C1268 1.465 . S
C1263 C1258 1.399 . S
C1263 C1262 1.394 . S
C1263 C1264 1.516 . S
C1264 C1263 1.516 . S
C1264 C1265 1.502 . S
C1264 C1266 1.561 . S
C1264 C1267 1.526 . S
C1265 H1249 0.959 . S
C1265 H1250 0.959 . S
C1265 H1251 0.961 . S
C1265 C1264 1.502 . S
C1266 H1252 0.960 . S
C1266 H1253 0.961 . S
C1266 H1254 0.959 . S
C1266 C1264 1.561 . S
C1267 C1264 1.526 . S
C1267 C1268 1.396 . S
C1267 C1272 1.390 . S
C1268 C1262 1.465 . S
C1268 C1267 1.396 . S
C1268 C1269 1.399 . S
C1269 H1255 0.929 . S
C1269 C1268 1.399 . S
C1269 C1270 1.385 . S
C1270 H1256 0.931 . S
C1270 C1269 1.385 . S
C1270 C1271 1.389 . S
C1271 C1270 1.389 . S
C1271 C1272 1.387 . S
C1272 H1257 0.930 . S
C1272 C1267 1.390 . S
C1272 C1271 1.387 . S
H1273 C1285 0.930 . S
H1274 C1287 0.930 . S
H1275 C1288 0.930 . S
H1276 C1292 0.959 . S
H1277 C1292 0.959 . S
H1278 C1292 0.961 . S
H1279 C1293 0.960 . S
H1280 C1293 0.961 . S
H1281 C1293 0.959 . S
H1282 C1296 0.929 . S
H1283 C1297 0.931 . S
H1284 C1299 0.930 . S
C1285 H1273 0.930 . S
C1285 C1286 1.399 . S
C1285 C1290 1.399 . S
C1286 C1285 1.399 . S
C1286 C1287 1.376 . S
C1287 H1274 0.930 . S
C1287 C1286 1.376 . S
C1287 C1288 1.388 . S
C1288 H1275 0.930 . S
C1288 C1287 1.388 . S
C1288 C1289 1.390 . S
C1289 C1288 1.390 . S
C1289 C1290 1.394 . S
C1289 C1295 1.465 . S
C1290 C1285 1.399 . S
C1290 C1289 1.394 . S
C1290 C1291 1.516 . S
C1291 C1290 1.516 . S
C1291 C1292 1.502 . S
C1291 C1293 1.561 . S
C1291 C1294 1.526 . S
C1292 H1276 0.959 . S
C1292 H1277 0.959 . S
C1292 H1278 0.961 . S
C1292 C1291 1.502 . S
C1293 H1279 0.960 . S
C1293 H1280 0.961 . S
C1293 H1281 0.959 . S
C1293 C1291 1.561 . S
C1294 C1291 1.526 . S
C1294 C1295 1.396 . S
C1294 C1299 1.390 . S
C1295 C1289 1.465 . S
C1295 C1294 1.396 . S
C1295 C1296 1.399 . S
C1296 H1282 0.929 . S
C1296 C1295 1.399 . S
C1296 C1297 1.385 . S
C1297 H1283 0.931 . S
C1297 C1296 1.385 . S
C1297 C1298 1.389 . S
C1298 C1297 1.389 . S
C1298 C1299 1.387 . S
C1299 H1284 0.930 . S
C1299 C1294 1.390 . S
C1299 C1298 1.387 . S
H1300 C1312 0.930 . S
H1301 C1314 0.930 . S
H1302 C1315 0.930 . S
H1303 C1319 0.959 . S
H1304 C1319 0.959 . S
H1305 C1319 0.961 . S
H1306 C1320 0.960 . S
H1307 C1320 0.961 . S
H1308 C1320 0.959 . S
H1309 C1323 0.929 . S
H1310 C1324 0.931 . S
H1311 C1326 0.930 . S
C1312 H1300 0.930 . S
C1312 C1313 1.399 . S
C1312 C1317 1.399 . S
C1313 C1312 1.399 . S
C1313 C1314 1.376 . S
C1314 H1301 0.930 . S
C1314 C1313 1.376 . S
C1314 C1315 1.388 . S
C1315 H1302 0.930 . S
C1315 C1314 1.388 . S
C1315 C1316 1.390 . S
C1316 C1315 1.390 . S
C1316 C1317 1.394 . S
C1316 C1322 1.465 . S
C1317 C1312 1.399 . S
C1317 C1316 1.394 . S
C1317 C1318 1.516 . S
C1318 C1317 1.516 . S
C1318 C1319 1.502 . S
C1318 C1320 1.561 . S
C1318 C1321 1.526 . S
C1319 H1303 0.959 . S
C1319 H1304 0.959 . S
C1319 H1305 0.961 . S
C1319 C1318 1.502 . S
C1320 H1306 0.960 . S
C1320 H1307 0.961 . S
C1320 H1308 0.959 . S
C1320 C1318 1.561 . S
C1321 C1318 1.526 . S
C1321 C1322 1.396 . S
C1321 C1326 1.390 . S
C1322 C1316 1.465 . S
C1322 C1321 1.396 . S
C1322 C1323 1.399 . S
C1323 H1309 0.929 . S
C1323 C1322 1.399 . S
C1323 C1324 1.385 . S
C1324 H1310 0.931 . S
C1324 C1323 1.385 . S
C1324 C1325 1.389 . S
C1325 C1324 1.389 . S
C1325 C1326 1.387 . S
C1326 H1311 0.930 . S
C1326 C1321 1.390 . S
C1326 C1325 1.387 . S
H1327 C1339 0.930 . S
H1328 C1341 0.930 . S
H1329 C1342 0.930 . S
H1330 C1346 0.959 . S
H1331 C1346 0.959 . S
H1332 C1346 0.961 . S
H1333 C1347 0.960 . S
H1334 C1347 0.961 . S
H1335 C1347 0.959 . S
H1336 C1350 0.929 . S
H1337 C1351 0.931 . S
H1338 C1353 0.930 . S
C1339 H1327 0.930 . S
C1339 C1340 1.399 . S
C1339 C1344 1.399 . S
C1340 C1339 1.399 . S
C1340 C1341 1.376 . S
C1341 H1328 0.930 . S
C1341 C1340 1.376 . S
C1341 C1342 1.388 . S
C1342 H1329 0.930 . S
C1342 C1341 1.388 . S
C1342 C1343 1.390 . S
C1343 C1342 1.390 . S
C1343 C1344 1.394 . S
C1343 C1349 1.465 . S
C1344 C1339 1.399 . S
C1344 C1343 1.394 . S
C1344 C1345 1.516 . S
C1345 C1344 1.516 . S
C1345 C1346 1.502 . S
C1345 C1347 1.561 . S
C1345 C1348 1.526 . S
C1346 H1330 0.959 . S
C1346 H1331 0.959 . S
C1346 H1332 0.961 . S
C1346 C1345 1.502 . S
C1347 H1333 0.960 . S
C1347 H1334 0.961 . S
C1347 H1335 0.959 . S
C1347 C1345 1.561 . S
C1348 C1345 1.526 . S
C1348 C1349 1.396 . S
C1348 C1353 1.390 . S
C1349 C1343 1.465 . S
C1349 C1348 1.396 . S
C1349 C1350 1.399 . S
C1350 H1336 0.929 . S
C1350 C1349 1.399 . S
C1350 C1351 1.385 . S
C1351 H1337 0.931 . S
C1351 C1350 1.385 . S
C1351 C1352 1.389 . S
C1352 C1351 1.389 . S
C1352 C1353 1.387 . S
C1353 H1338 0.930 . S
C1353 C1348 1.390 . S
C1353 C1352 1.387 . S
H1354 C1366 0.930 . S
H1355 C1368 0.930 . S
H1356 C1369 0.930 . S
H1357 C1373 0.959 . S
H1358 C1373 0.959 . S
H1359 C1373 0.961 . S
H1360 C1374 0.960 . S
H1361 C1374 0.961 . S
H1362 C1374 0.959 . S
H1363 C1377 0.929 . S
H1364 C1378 0.931 . S
H1365 C1380 0.930 . S
C1366 H1354 0.930 . S
C1366 C1367 1.399 . S
C1366 C1371 1.399 . S
C1367 C1366 1.399 . S
C1367 C1368 1.376 . S
C1368 H1355 0.930 . S
C1368 C1367 1.376 . S
C1368 C1369 1.388 . S
C1369 H1356 0.930 . S
C1369 C1368 1.388 . S
C1369 C1370 1.390 . S
C1370 C1369 1.390 . S
C1370 C1371 1.394 . S
C1370 C1376 1.465 . S
C1371 C1366 1.399 . S
C1371 C1370 1.394 . S
C1371 C1372 1.516 . S
C1372 C1371 1.516 . S
C1372 C1373 1.502 . S
C1372 C1374 1.561 . S
C1372 C1375 1.526 . S
C1373 H1357 0.959 . S
C1373 H1358 0.959 . S
C1373 H1359 0.961 . S
C1373 C1372 1.502 . S
C1374 H1360 0.960 . S
C1374 H1361 0.961 . S
C1374 H1362 0.959 . S
C1374 C1372 1.561 . S
C1375 C1372 1.526 . S
C1375 C1376 1.396 . S
C1375 C1380 1.390 . S
C1376 C1370 1.465 . S
C1376 C1375 1.396 . S
C1376 C1377 1.399 . S
C1377 H1363 0.929 . S
C1377 C1376 1.399 . S
C1377 C1378 1.385 . S
C1378 H1364 0.931 . S
C1378 C1377 1.385 . S
C1378 C1379 1.389 . S
C1379 C1378 1.389 . S
C1379 C1380 1.387 . S
C1380 H1365 0.930 . S
C1380 C1375 1.390 . S
C1380 C1379 1.387 . S
H1381 C1393 0.930 . S
H1382 C1395 0.930 . S
H1383 C1396 0.930 . S
H1384 C1400 0.959 . S
H1385 C1400 0.959 . S
H1386 C1400 0.961 . S
H1387 C1401 0.960 . S
H1388 C1401 0.961 . S
H1389 C1401 0.959 . S
H1390 C1404 0.929 . S
H1391 C1405 0.931 . S
H1392 C1407 0.930 . S
C1393 H1381 0.930 . S
C1393 C1394 1.399 . S
C1393 C1398 1.399 . S
C1394 C1393 1.399 . S
C1394 C1395 1.376 . S
C1395 H1382 0.930 . S
C1395 C1394 1.376 . S
C1395 C1396 1.388 . S
C1396 H1383 0.930 . S
C1396 C1395 1.388 . S
C1396 C1397 1.390 . S
C1397 C1396 1.390 . S
C1397 C1398 1.394 . S
C1397 C1403 1.465 . S
C1398 C1393 1.399 . S
C1398 C1397 1.394 . S
C1398 C1399 1.516 . S
C1399 C1398 1.516 . S
C1399 C1400 1.502 . S
C1399 C1401 1.561 . S
C1399 C1402 1.526 . S
C1400 H1384 0.959 . S
C1400 H1385 0.959 . S
C1400 H1386 0.961 . S
C1400 C1399 1.502 . S
C1401 H1387 0.960 . S
C1401 H1388 0.961 . S
C1401 H1389 0.959 . S
C1401 C1399 1.561 . S
C1402 C1399 1.526 . S
C1402 C1403 1.396 . S
C1402 C1407 1.390 . S
C1403 C1397 1.465 . S
C1403 C1402 1.396 . S
C1403 C1404 1.399 . S
C1404 H1390 0.929 . S
C1404 C1403 1.399 . S
C1404 C1405 1.385 . S
C1405 H1391 0.931 . S
C1405 C1404 1.385 . S
C1405 C1406 1.389 . S
C1406 C1405 1.389 . S
C1406 C1407 1.387 . S
C1407 H1392 0.930 . S
C1407 C1402 1.390 . S
C1407 C1406 1.387 . S
H1408 C1420 0.930 . S
H1409 C1422 0.930 . S
H1410 C1423 0.930 . S
H1411 C1427 0.959 . S
H1412 C1427 0.959 . S
H1413 C1427 0.961 . S
H1414 C1428 0.960 . S
H1415 C1428 0.961 . S
H1416 C1428 0.959 . S
H1417 C1431 0.928 . S
H1418 C1432 0.931 . S
H1419 C1434 0.930 . S
C1420 H1408 0.930 . S
C1420 C1421 1.399 . S
C1420 C1425 1.399 . S
C1421 C1420 1.399 . S
C1421 C1422 1.376 1_554 S
C1422 H1409 0.930 . S
C1422 C1421 1.376 1_556 S
C1422 C1423 1.388 . S
C1423 H1410 0.930 . S
C1423 C1422 1.388 . S
C1423 C1424 1.390 . S
C1424 C1423 1.390 . S
C1424 C1425 1.394 1_556 S
C1424 C1430 1.456 1_545 S
C1425 C1420 1.399 . S
C1425 C1424 1.394 1_554 S
C1425 C1426 1.517 . S
C1426 C1425 1.517 . S
C1426 C1427 1.500 1_545 S
C1426 C1428 1.563 . S
C1426 C1429 1.525 1_545 S
C1427 H1411 0.959 . S
C1427 H1412 0.959 . S
C1427 H1413 0.961 . S
C1427 C1426 1.500 1_565 S
C1428 H1414 0.960 . S
C1428 H1415 0.961 . S
C1428 H1416 0.959 . S
C1428 C1426 1.563 . S
C1429 C1426 1.525 1_565 S
C1429 C1430 1.402 1_554 S
C1429 C1434 1.390 . S
C1430 C1424 1.456 1_565 S
C1430 C1429 1.402 1_556 S
C1430 C1431 1.403 . S
C1431 H1417 0.928 . S
C1431 C1430 1.403 . S
C1431 C1432 1.385 . S
C1432 H1418 0.931 . S
C1432 C1431 1.385 . S
C1432 C1433 1.389 . S
C1433 C1432 1.389 . S
C1433 C1434 1.387 1_556 S
C1434 H1419 0.930 . S
C1434 C1429 1.390 . S
C1434 C1433 1.387 1_554 S
H1435 C1447 0.930 . S
H1436 C1449 0.930 . S
H1437 C1450 0.930 . S
H1438 C1454 0.959 . S
H1439 C1454 0.959 . S
H1440 C1454 0.961 . S
H1441 C1455 0.960 . S
H1442 C1455 0.961 . S
H1443 C1455 0.959 . S
H1444 C1458 0.929 . S
H1445 C1459 0.931 . S
H1446 C1461 0.930 . S
C1447 H1435 0.930 . S
C1447 C1448 1.399 1_554 S
C1447 C1452 1.399 . S
C1448 C1447 1.399 1_556 S
C1448 C1449 1.376 . S
C1449 H1436 0.930 . S
C1449 C1448 1.376 . S
C1449 C1450 1.388 . S
C1450 H1437 0.930 . S
C1450 C1449 1.388 . S
C1450 C1451 1.390 . S
C1451 C1450 1.390 . S
C1451 C1452 1.394 1_556 S
C1451 C1457 1.465 . S
C1452 C1447 1.399 . S
C1452 C1451 1.394 1_554 S
C1452 C1453 1.516 . S
C1453 C1452 1.516 . S
C1453 C1454 1.502 . S
C1453 C1455 1.561 . S
C1453 C1456 1.526 . S
C1454 H1438 0.959 . S
C1454 H1439 0.959 . S
C1454 H1440 0.961 . S
C1454 C1453 1.502 . S
C1455 H1441 0.960 . S
C1455 H1442 0.961 . S
C1455 H1443 0.959 . S
C1455 C1453 1.561 . S
C1456 C1453 1.526 . S
C1456 C1457 1.396 1_554 S
C1456 C1461 1.390 . S
C1457 C1451 1.465 . S
C1457 C1456 1.396 1_556 S
C1457 C1458 1.399 . S
C1458 H1444 0.929 . S
C1458 C1457 1.399 . S
C1458 C1459 1.385 . S
C1459 H1445 0.931 . S
C1459 C1458 1.385 . S
C1459 C1460 1.389 1_556 S
C1460 C1459 1.389 1_554 S
C1460 C1461 1.387 . S
C1461 H1446 0.930 . S
C1461 C1456 1.390 . S
C1461 C1460 1.387 . S
H1462 C1474 0.930 . S
H1463 C1476 0.930 . S
H1464 C1477 0.930 . S
H1465 C1481 0.959 . S
H1466 C1481 0.982 . S
H1467 C1481 0.961 . S
H1468 C1482 0.960 . S
H1469 C1482 0.961 . S
H1470 C1482 0.959 . S
H1471 C1485 0.929 . S
H1472 C1486 0.931 . S
H1473 C1488 0.930 . S
C1474 H1462 0.930 . S
C1474 C1475 1.399 . S
C1474 C1479 1.399 . S
C1475 C1474 1.399 . S
C1475 C1476 1.376 . S
C1476 H1463 0.930 . S
C1476 C1475 1.376 . S
C1476 C1477 1.388 1_556 S
C1477 H1464 0.930 . S
C1477 C1476 1.388 1_554 S
C1477 C1478 1.390 . S
C1478 C1477 1.390 . S
C1478 C1479 1.394 1_554 S
C1478 C1484 1.465 1_455 S
C1479 C1474 1.399 . S
C1479 C1478 1.394 1_556 S
C1479 C1480 1.514 1_556 S
C1480 C1479 1.514 1_554 S
C1480 C1481 1.490 1_554 S
C1480 C1482 1.574 . S
C1480 C1483 1.529 1_455 S
C1481 H1465 0.959 . S
C1481 H1466 0.982 . S
C1481 H1467 0.961 . S
C1481 C1480 1.490 1_556 S
C1482 H1468 0.960 . S
C1482 H1469 0.961 . S
C1482 H1470 0.959 . S
C1482 C1480 1.574 . S
C1483 C1480 1.529 1_655 S
C1483 C1484 1.396 . S
C1483 C1488 1.390 . S
C1484 C1478 1.465 1_655 S
C1484 C1483 1.396 . S
C1484 C1485 1.399 . S
C1485 H1471 0.929 . S
C1485 C1484 1.399 . S
C1485 C1486 1.385 . S
C1486 H1472 0.931 . S
C1486 C1485 1.385 . S
C1486 C1487 1.389 . S
C1487 C1486 1.389 . S
C1487 C1488 1.387 . S
C1488 H1473 0.930 . S
C1488 C1483 1.390 . S
C1488 C1487 1.387 . S
H1489 C1501 0.930 . S
H1490 C1503 0.930 . S
H1491 C1504 0.930 . S
H1492 C1508 0.959 1_455 S
H1493 C1508 0.959 . S
H1494 C1508 0.961 . S
H1495 C1509 0.960 . S
H1496 C1509 0.961 . S
H1497 C1509 0.959 . S
H1498 C1512 0.930 1_455 S
H1499 C1513 0.931 . S
H1500 C1515 0.930 . S
C1501 H1489 0.930 . S
C1501 C1502 1.399 1_556 S
C1501 C1506 1.407 . S
C1502 C1501 1.399 1_554 S
C1502 C1503 1.376 . S
C1503 H1490 0.930 . S
C1503 C1502 1.376 . S
C1503 C1504 1.388 . S
C1504 H1491 0.930 . S
C1504 C1503 1.388 . S
C1504 C1505 1.390 . S
C1505 C1504 1.390 . S
C1505 C1506 1.400 1_554 S
C1505 C1511 1.465 1_465 S
C1506 C1501 1.407 . S
C1506 C1505 1.400 1_556 S
C1506 C1507 1.503 1_455 S
C1507 C1506 1.503 1_655 S
C1507 C1508 1.502 . S
C1507 C1509 1.561 . S
C1507 C1510 1.526 1_565 S
C1508 H1492 0.959 1_655 S
C1508 H1493 0.959 . S
C1508 H1494 0.961 . S
C1508 C1507 1.502 . S
C1509 H1495 0.960 . S
C1509 H1496 0.961 . S
C1509 H1497 0.959 . S
C1509 C1507 1.561 . S
C1510 C1507 1.526 1_545 S
C1510 C1511 1.396 1_556 S
C1510 C1515 1.390 . S
C1511 C1505 1.465 1_645 S
C1511 C1510 1.396 1_554 S
C1511 C1512 1.399 . S
C1512 H1498 0.930 1_655 S
C1512 C1511 1.399 . S
C1512 C1513 1.385 . S
C1513 H1499 0.931 . S
C1513 C1512 1.385 . S
C1513 C1514 1.389 1_554 S
C1514 C1513 1.389 1_556 S
C1514 C1515 1.387 . S
C1515 H1500 0.930 . S
C1515 C1510 1.390 . S
C1515 C1514 1.387 . S
H1516 C1528 0.930 . S
H1517 C1530 0.930 . S
H1518 C1531 0.930 . S
H1519 C1535 0.959 . S
H1520 C1535 0.959 . S
H1521 C1535 0.961 . S
H1522 C1536 0.960 . S
H1523 C1536 0.961 . S
H1524 C1536 0.959 . S
H1525 C1539 0.929 . S
H1526 C1540 0.931 . S
H1527 C1542 0.930 . S
C1528 H1516 0.930 . S
C1528 C1529 1.399 . S
C1528 C1533 1.399 . S
C1529 C1528 1.399 . S
C1529 C1530 1.376 . S
C1530 H1517 0.930 . S
C1530 C1529 1.376 . S
C1530 C1531 1.388 . S
C1531 H1518 0.930 . S
C1531 C1530 1.388 . S
C1531 C1532 1.390 . S
C1532 C1531 1.390 . S
C1532 C1533 1.394 . S
C1532 C1538 1.465 . S
C1533 C1528 1.399 . S
C1533 C1532 1.394 . S
C1533 C1534 1.516 . S
C1534 C1533 1.516 . S
C1534 C1535 1.502 . S
C1534 C1536 1.561 . S
C1534 C1537 1.526 . S
C1535 H1519 0.959 . S
C1535 H1520 0.959 . S
C1535 H1521 0.961 . S
C1535 C1534 1.502 . S
C1536 H1522 0.960 . S
C1536 H1523 0.961 . S
C1536 H1524 0.959 . S
C1536 C1534 1.561 . S
C1537 C1534 1.526 . S
C1537 C1538 1.396 . S
C1537 C1542 1.390 . S
C1538 C1532 1.465 . S
C1538 C1537 1.396 . S
C1538 C1539 1.399 . S
C1539 H1525 0.929 . S
C1539 C1538 1.399 . S
C1539 C1540 1.385 . S
C1540 H1526 0.931 . S
C1540 C1539 1.385 . S
C1540 C1541 1.389 . S
C1541 C1540 1.389 . S
C1541 C1542 1.387 . S
C1542 H1527 0.930 . S
C1542 C1537 1.390 . S
C1542 C1541 1.387 . S
H1543 C1555 0.932 . S
H1544 C1557 0.930 . S
H1545 C1558 0.930 . S
H1546 C1562 0.959 1_455 S
H1547 C1562 0.959 . S
H1548 C1562 0.961 . S
H1549 C1563 0.960 . S
H1550 C1563 0.961 . S
H1551 C1563 0.959 . S
H1552 C1566 0.929 . S
H1553 C1567 0.931 . S
H1554 C1569 0.930 . S
C1555 H1543 0.932 . S
C1555 C1556 1.399 . S
C1555 C1560 1.391 1_455 S
C1556 C1555 1.399 . S
C1556 C1557 1.376 . S
C1557 H1544 0.930 . S
C1557 C1556 1.376 . S
C1557 C1558 1.388 . S
C1558 H1545 0.930 . S
C1558 C1557 1.388 . S
C1558 C1559 1.390 . S
C1559 C1558 1.390 . S
C1559 C1560 1.382 1_455 S
C1559 C1565 1.466 1_455 S
C1560 C1555 1.391 1_655 S
C1560 C1559 1.382 1_655 S
C1560 C1561 1.537 . S
C1561 C1560 1.537 . S
C1561 C1562 1.502 . S
C1561 C1563 1.561 . S
C1561 C1564 1.526 . S
C1562 H1546 0.959 1_655 S
C1562 H1547 0.959 . S
C1562 H1548 0.961 . S
C1562 C1561 1.502 . S
C1563 H1549 0.960 . S
C1563 H1550 0.961 . S
C1563 H1551 0.959 . S
C1563 C1561 1.561 . S
C1564 C1561 1.526 . S
C1564 C1565 1.395 . S
C1564 C1569 1.390 . S
C1565 C1559 1.466 1_655 S
C1565 C1564 1.395 . S
C1565 C1566 1.399 1_655 S
C1566 H1552 0.929 . S
C1566 C1565 1.399 1_455 S
C1566 C1567 1.385 1_455 S
C1567 H1553 0.931 . S
C1567 C1566 1.385 1_655 S
C1567 C1568 1.389 . S
C1568 C1567 1.389 . S
C1568 C1569 1.387 . S
C1569 H1554 0.930 . S
C1569 C1564 1.390 . S
C1569 C1568 1.387 . S
H1570 C1582 0.930 . S
H1571 C1584 0.930 . S
H1572 C1585 0.930 . S
H1573 C1589 0.959 . S
H1574 C1589 0.959 . S
H1575 C1589 0.961 . S
H1576 C1590 0.960 1_455 S
H1577 C1590 0.961 . S
H1578 C1590 0.959 . S
H1579 C1593 0.929 . S
H1580 C1594 0.931 . S
H1581 C1596 0.930 . S
C1582 H1570 0.930 . S
C1582 C1583 1.399 . S
C1582 C1587 1.399 . S
C1583 C1582 1.399 . S
C1583 C1584 1.376 . S
C1584 H1571 0.930 . S
C1584 C1583 1.376 . S
C1584 C1585 1.388 1_565 S
C1585 H1572 0.930 . S
C1585 C1584 1.388 1_545 S
C1585 C1586 1.390 . S
C1586 C1585 1.390 . S
C1586 C1587 1.394 1_545 S
C1586 C1592 1.465 1_455 S
C1587 C1582 1.399 . S
C1587 C1586 1.394 1_565 S
C1587 C1588 1.516 1_455 S
C1588 C1587 1.516 1_655 S
C1588 C1589 1.502 . S
C1588 C1590 1.561 1_565 S
C1588 C1591 1.526 1_565 S
C1589 H1573 0.959 . S
C1589 H1574 0.959 . S
C1589 H1575 0.961 . S
C1589 C1588 1.502 . S
C1590 H1576 0.960 1_655 S
C1590 H1577 0.961 . S
C1590 H1578 0.959 . S
C1590 C1588 1.561 1_545 S
C1591 C1588 1.526 1_545 S
C1591 C1592 1.396 . S
C1591 C1596 1.390 . S
C1592 C1586 1.465 1_655 S
C1592 C1591 1.396 . S
C1592 C1593 1.399 . S
C1593 H1579 0.929 . S
C1593 C1592 1.399 . S
C1593 C1594 1.385 . S
C1594 H1580 0.931 . S
C1594 C1593 1.385 . S
C1594 C1595 1.389 . S
C1595 C1594 1.389 . S
C1595 C1596 1.387 . S
C1596 H1581 0.930 . S
C1596 C1591 1.390 . S
C1596 C1595 1.387 . S
H1597 C1609 0.930 . S
H1598 C1611 0.930 . S
H1599 C1612 0.930 . S
H1600 C1616 0.959 . S
H1601 C1616 0.959 1_545 S
H1602 C1616 0.961 . S
H1603 C1617 0.943 1_565 S
H1604 C1617 0.961 . S
H1605 C1617 0.959 . S
H1606 C1620 0.929 . S
H1607 C1621 0.931 . S
H1608 C1623 0.930 . S
C1609 H1597 0.930 . S
C1609 C1610 1.399 . S
C1609 C1614 1.399 . S
C1610 C1609 1.399 . S
C1610 C1611 1.376 . S
C1611 H1598 0.930 . S
C1611 C1610 1.376 . S
C1611 C1612 1.388 . S
C1612 H1599 0.930 . S
C1612 C1611 1.388 . S
C1612 C1613 1.390 . S
C1613 C1612 1.390 . S
C1613 C1614 1.394 . S
C1613 C1619 1.465 1_565 S
C1614 C1609 1.399 . S
C1614 C1613 1.394 . S
C1614 C1615 1.516 1_565 S
C1615 C1614 1.516 1_545 S
C1615 C1616 1.502 1_545 S
C1615 C1617 1.561 . S
C1615 C1618 1.526 . S
C1616 H1600 0.959 . S
C1616 H1601 0.959 1_565 S
C1616 H1602 0.961 . S
C1616 C1615 1.502 1_565 S
C1617 H1603 0.943 1_545 S
C1617 H1604 0.961 . S
C1617 H1605 0.959 . S
C1617 C1615 1.561 . S
C1618 C1615 1.526 . S
C1618 C1619 1.396 . S
C1618 C1623 1.390 . S
C1619 C1613 1.465 1_545 S
C1619 C1618 1.396 . S
C1619 C1620 1.399 . S
C1620 H1606 0.929 . S
C1620 C1619 1.399 . S
C1620 C1621 1.385 . S
C1621 H1607 0.931 . S
C1621 C1620 1.385 . S
C1621 C1622 1.389 . S
C1622 C1621 1.389 . S
C1622 C1623 1.387 . S
C1623 H1608 0.930 . S
C1623 C1618 1.390 . S
C1623 C1622 1.387 . S
C557 C5 0.820 . S
C569 C243 0.672 . S
C584 C141 0.673 . S
C596 C39 0.828 . S
C611 C73 0.829 . S
C623 C175 0.681 . S
C638 C107 0.674 . S
C650 C209 0.828 . S
C665 C277 0.724 . S
C677 C515 0.826 . S
C692 C413 0.674 . S
C704 C311 0.817 . S
C719 C447 0.830 . S
C731 C345 0.700 . S
C746 C481 0.711 . S
C758 C379 0.828 . S
C773 C206 1.296 . S
C785 C2 1.357 . S
C800 C36 1.381 . S
C812 C240 1.275 . S
C827 C70 1.362 . S
C839 C138 1.301 . S
C854 C172 1.313 . S
C866 C104 1.341 . S
C881 C478 1.265 . S
C893 C274 1.382 . S
C908 C512 1.278 . S
C920 C308 1.389 . S
C935 C342 1.319 . S
C947 C410 1.369 . S
C962 C376 1.371 . S
C974 C444 1.269 . S
C989 C9 1.260 . S
C1001 C543 1.448 . S
C1016 C43 1.364 . S
C1028 C441 1.482 . S
C1043 C77 1.257 . S
C1055 C475 1.448 . S
C1070 C509 1.450 . S
C1082 C111 1.274 . S
C1097 C339 1.462 . S
C1109 C145 1.256 . S
C1124 C373 1.491 . S
C1136 C179 1.366 . S
C1151 C213 1.351 . S
C1163 C407 1.490 . S
C1178 C247 1.259 . S
C1190 C305 1.464 . S
C1205 C271 1.446 . S
C1217 C281 1.253 . S
C1232 C169 1.472 . S
C1244 C315 1.367 . S
C1259 C349 1.250 . S
C1271 C203 1.475 . S
C1286 C237 1.483 . S
C1298 C383 1.370 . S
C1313 C67 1.445 . S
C1325 C417 1.269 . S
C1340 C101 1.466 . S
C1352 C451 1.237 . S
C1367 C135 1.491 . S
C1379 C485 1.334 . S
C1394 C33 1.483 . S
C1406 C519 1.370 . S
C1421 C20 1.232 . S
C1433 C292 1.164 . S
C1448 C326 1.179 . S
C1460 C54 1.227 . S
C1475 C360 1.219 . S
C1487 C88 1.190 . S
C1502 C122 1.162 . S
C1514 C394 1.232 . S
C1529 C428 1.213 . S
C1541 C156 1.176 . S
C1556 C190 1.163 . S
C1568 C462 1.230 . S
C1583 C496 1.219 . S
C1595 C224 1.171 . S
C1610 C258 1.224 . S
C1622 C530 1.168 . S
