# Generated by pormake.
# Topology dft, (4)-cn, num edge types: 1
# Building blocks:
#     Node 0, Type 0, BuildingBlock: ICAMEG_clean_sbu_1, # of connection points: 4
#     Node 1, Type 0, BuildingBlock: ICAMEG_clean_sbu_1, # of connection points: 4
#     Node 2, Type 0, BuildingBlock: ICAMEG_clean_sbu_1, # of connection points: 4
#     Node 3, Type 0, BuildingBlock: ICAMEG_clean_sbu_1, # of connection points: 4
#     Node 4, Type 0, BuildingBlock: ICAMEG_clean_sbu_1, # of connection points: 4
#     Node 5, Type 0, BuildingBlock: ICAMEG_clean_sbu_1, # of connection points: 4
#     Node 6, Type 0, BuildingBlock: ICAMEG_clean_sbu_1, # of connection points: 4
#     Node 7, Type 0, BuildingBlock: ICAMEG_clean_sbu_1, # of connection points: 4
#     Edge 8, Type (0, 0), BuildingBlock: UVAHIK_clean_linker_0, # of connection points: 2
#     Edge 9, Type (0, 0), BuildingBlock: UVAHIK_clean_linker_0, # of connection points: 2
#     Edge 10, Type (0, 0), BuildingBlock: UVAHIK_clean_linker_0, # of connection points: 2
#     Edge 11, Type (0, 0), BuildingBlock: UVAHIK_clean_linker_0, # of connection points: 2
#     Edge 12, Type (0, 0), BuildingBlock: UVAHIK_clean_linker_0, # of connection points: 2
#     Edge 13, Type (0, 0), BuildingBlock: UVAHIK_clean_linker_0, # of connection points: 2
#     Edge 14, Type (0, 0), BuildingBlock: UVAHIK_clean_linker_0, # of connection points: 2
#     Edge 15, Type (0, 0), BuildingBlock: UVAHIK_clean_linker_0, # of connection points: 2
#     Edge 16, Type (0, 0), BuildingBlock: UVAHIK_clean_linker_0, # of connection points: 2
#     Edge 17, Type (0, 0), BuildingBlock: UVAHIK_clean_linker_0, # of connection points: 2
#     Edge 18, Type (0, 0), BuildingBlock: UVAHIK_clean_linker_0, # of connection points: 2
#     Edge 19, Type (0, 0), BuildingBlock: UVAHIK_clean_linker_0, # of connection points: 2
#     Edge 20, Type (0, 0), BuildingBlock: UVAHIK_clean_linker_0, # of connection points: 2
#     Edge 21, Type (0, 0), BuildingBlock: UVAHIK_clean_linker_0, # of connection points: 2
#     Edge 22, Type (0, 0), BuildingBlock: UVAHIK_clean_linker_0, # of connection points: 2
#     Edge 23, Type (0, 0), BuildingBlock: UVAHIK_clean_linker_0, # of connection points: 2
# Relax obj value: 0.223
# Max RMSD: 0.222
# Mean RMSD: 0.222
data_MOF--net-dft--node1-ICAMEG_clean_sbu_1--edge1-UVAHIK_clean_linker_0
_symmetry_space_group_name_H-M    P1
_symmetry_Int_Tables_number       1
_symmetry_cell_setting            triclinic
loop_
_symmetry_equiv_pos_as_xyz
'x, y, z'
_cell_length_a     44.060451
_cell_length_b     44.024931
_cell_length_c     60.191724
_cell_angle_alpha  89.99894
_cell_angle_beta   89.966797
_cell_angle_gamma 89.996337
loop_
_atom_site_label
_atom_site_type_symbol
_atom_site_fract_x
_atom_site_fract_y
_atom_site_fract_z
_atom_type_partial_charge
Co0 Co 0.3028 0.08462 0.15366 0.0
Co1 Co 0.34434 0.06062 0.19864 0.0
O2 O 0.3384 0.06507 0.16658 0.0
C3 C 0.28262 0.04159 0.1189 0.0
O4 O 0.25603 0.04069 0.12877 0.0
C5 C 0.40239 0.0861 0.18191 0.0
O6 O 0.38678 0.10554 0.16998 0.0
O7 O 0.33763 0.10493 0.20342 0.0
O8 O 0.30114 0.11506 0.17837 0.0
H9 H 0.31867 0.07498 0.27936 0.0
H10 H 0.35853 0.07542 0.12687 0.0
O11 O 0.3047 0.0552 0.12829 0.0
H12 H 0.33937 0.1857 0.1246 0.0
H13 H 0.23978 0.12897 0.09152 0.0
H14 H 0.2441 0.10596 0.17164 0.0
H15 H 0.30455 0.15144 0.14459 0.0
H16 H 0.28512 0.10487 0.10776 0.0
O17 O 0.38887 0.06745 0.19468 0.0
H18 H 0.31094 0.08035 0.23899 0.0
H19 H 0.39182 0.03077 0.22642 0.0
H20 H 0.19836 0.13025 0.15609 0.0
H21 H 0.39356 0.10866 0.10618 0.0
H22 H 0.19598 0.14187 0.11575 0.0
H23 H 0.38422 0.16429 0.10508 0.0
O24 O 0.27564 0.05646 0.17074 0.0
H25 H 0.38877 0.96905 0.16079 0.0
H26 H 0.3201 0.00451 0.22009 0.0
H27 H 0.32694 0.94954 0.21406 0.0
H28 H 0.36157 0.93149 0.18428 0.0
H29 H 0.38105 0.02384 0.16723 0.0
H30 H 0.40057 0.02505 0.26666 0.0
H31 H 0.36379 0.04716 0.29344 0.0
O32 O 0.30018 0.05321 0.20337 0.0
C33 C 0.31715 0.12217 0.19528 0.0
C34 C 0.33488 0.06525 0.26786 0.0
C35 C 0.38086 0.03727 0.26073 0.0
N36 N 0.35092 0.056 0.23035 0.0
C37 C 0.3306 0.06822 0.24498 0.0
C38 C 0.37584 0.04071 0.23796 0.0
C39 C 0.3602 0.04966 0.27575 0.0
C40 C 0.35413 0.09956 0.12634 0.0
N41 N 0.32967 0.11154 0.13724 0.0
C42 C 0.37413 0.11829 0.11464 0.0
C43 C 0.36892 0.14949 0.11408 0.0
C44 C 0.34382 0.16153 0.12508 0.0
C45 C 0.32434 0.14209 0.13661 0.0
C46 C 0.24053 0.12401 0.10913 0.0
C47 C 0.24325 0.11096 0.15407 0.0
C48 C 0.26613 0.11032 0.11842 0.0
N49 N 0.26724 0.10389 0.14065 0.0
C50 C 0.21729 0.12472 0.14536 0.0
C51 C 0.21597 0.13124 0.12273 0.0
C52 C 0.27683 0.04906 0.19126 0.0
C53 C 0.37369 0.97664 0.17386 0.0
C54 C 0.33512 0.99685 0.20703 0.0
C55 C 0.33895 0.96569 0.20373 0.0
C56 C 0.3584 0.95557 0.18703 0.0
N57 N 0.35031 0.01738 0.19411 0.0
C58 C 0.3693 0.00763 0.17763 0.0
Co59 Co 0.03226 0.29878 0.65408 0.0
Co60 Co 0.06069 0.34313 0.69639 0.0
O61 O 0.05258 0.33574 0.66464 0.0
C62 C 0.07813 0.31447 0.61836 0.0
O63 O 0.08913 0.33718 0.62992 0.0
C64 C 0.0359 0.40184 0.67949 0.0
O65 O 0.01588 0.38693 0.66762 0.0
O66 O 0.0169 0.33783 0.70356 0.0
O67 O 0.00451 0.29951 0.68051 0.0
H68 H 0.05375 0.32177 0.7783 0.0
H69 H 0.03505 0.35588 0.62684 0.0
O70 O 0.05823 0.29684 0.62668 0.0
H71 H 0.92731 0.32633 0.62767 0.0
H72 H 0.98764 0.22729 0.5973 0.0
H73 H 0.01147 0.24271 0.67655 0.0
H74 H 0.96536 0.29547 0.64731 0.0
H75 H 0.01152 0.27484 0.60998 0.0
O76 O 0.05449 0.38771 0.69191 0.0
H77 H 0.04425 0.31223 0.73856 0.0
H78 H 0.09456 0.39101 0.72125 0.0
H79 H 0.98718 0.19497 0.6646 0.0
H80 H 0.99802 0.38682 0.60653 0.0
H81 H 0.97513 0.18701 0.62471 0.0
H82 H 0.94356 0.3723 0.6069 0.0
O83 O 0.06257 0.27328 0.6702 0.0
H84 H 0.1494 0.38554 0.65394 0.0
H85 H 0.11814 0.31752 0.71488 0.0
H86 H 0.17246 0.32296 0.70596 0.0
H87 H 0.18843 0.35724 0.67533 0.0
H88 H 0.09528 0.37914 0.66323 0.0
H89 H 0.10447 0.40153 0.7608 0.0
H90 H 0.08407 0.36673 0.78966 0.0
O91 O 0.06755 0.29895 0.7021 0.0
C92 C 0.9988 0.31714 0.69686 0.0
C93 C 0.06273 0.33713 0.76589 0.0
C94 C 0.09116 0.3819 0.75607 0.0
N95 N 0.06865 0.35109 0.72758 0.0
C96 C 0.05738 0.33185 0.74336 0.0
C97 C 0.08535 0.37589 0.73369 0.0
C98 C 0.07973 0.36236 0.77225 0.0
C99 C 0.01167 0.34884 0.6268 0.0
N100 N 0.00266 0.3235 0.63816 0.0
C101 C 0.99065 0.36673 0.61539 0.0
C102 C 0.9601 0.35863 0.61566 0.0
C103 C 0.95098 0.33289 0.62732 0.0
C104 C 0.97266 0.31557 0.63854 0.0
C105 C 0.99275 0.2305 0.61473 0.0
C106 C 0.00609 0.23952 0.65919 0.0
C107 C 0.00641 0.25734 0.62201 0.0
N108 N 0.01273 0.26166 0.64404 0.0
C109 C 0.99243 0.21239 0.65251 0.0
C110 C 0.98571 0.20792 0.63012 0.0
C111 C 0.07115 0.27516 0.69037 0.0
C112 C 0.14273 0.37053 0.66732 0.0
C113 C 0.12484 0.33225 0.70137 0.0
C114 C 0.15567 0.33535 0.69648 0.0
C115 C 0.16462 0.35462 0.67931 0.0
N116 N 0.10348 0.34787 0.68949 0.0
C117 C 0.11211 0.36686 0.67269 0.0
Co118 Co 0.83319 0.02533 0.15787 0.0
Co119 Co 0.77777 0.05643 0.19084 0.0
O120 O 0.7928 0.04395 0.16138 0.0
C121 C 0.82538 0.06637 0.11821 0.0
O122 O 0.80562 0.08317 0.12889 0.0
C123 C 0.72238 0.03385 0.16577 0.0
O124 O 0.73864 0.02552 0.14858 0.0
O125 O 0.78357 0.01437 0.20192 0.0
O126 O 0.82938 0.00437 0.1873 0.0
H127 H 0.78124 0.06115 0.27423 0.0
H128 H 0.78728 0.01672 0.12223 0.0
O129 O 0.83862 0.04439 0.12791 0.0
H130 H 0.81617 0.91341 0.14563 0.0
H131 H 0.91826 0.97411 0.11618 0.0
H132 H 0.88563 0.01689 0.18804 0.0
H133 H 0.83961 0.95821 0.16316 0.0
H134 H 0.8671 0.99599 0.12049 0.0
O135 O 0.7348 0.04577 0.18279 0.0
H136 H 0.79957 0.047 0.23693 0.0
H137 H 0.72373 0.09068 0.20737 0.0
H138 H 0.93691 0.99498 0.18449 0.0
H139 H 0.7635 0.97259 0.10409 0.0
H140 H 0.95353 0.97339 0.14835 0.0
H141 H 0.77784 0.92043 0.11582 0.0
O142 O 0.85207 0.06137 0.17225 0.0
H143 H 0.74168 0.13627 0.13693 0.0
H144 H 0.79472 0.11774 0.20771 0.0
H145 H 0.78821 0.17022 0.19441 0.0
H146 H 0.76136 0.17982 0.15883 0.0
H147 H 0.74923 0.08421 0.15057 0.0
H148 H 0.70443 0.10508 0.24436 0.0
H149 H 0.73332 0.09041 0.27812 0.0
O150 O 0.81985 0.06765 0.20065 0.0
C151 C 0.80753 0.99837 0.20047 0.0
C152 C 0.76848 0.06773 0.25965 0.0
C153 C 0.72536 0.09236 0.24288 0.0
N154 N 0.76287 0.06812 0.21998 0.0
C155 C 0.77879 0.05983 0.23848 0.0
C156 C 0.73637 0.08406 0.22198 0.0
C157 C 0.74158 0.08413 0.26182 0.0
C158 C 0.79374 0.99416 0.12739 0.0
N159 N 0.8147 0.99014 0.14384 0.0
C160 C 0.78015 0.96922 0.11707 0.0
C161 C 0.78819 0.93997 0.12366 0.0
C162 C 0.80967 0.93602 0.14039 0.0
C163 C 0.82277 0.9615 0.15033 0.0
C164 C 0.91127 0.98342 0.13202 0.0
C165 C 0.89262 0.00741 0.17229 0.0
C166 C 0.88235 0.99594 0.13455 0.0
N167 N 0.87329 0.00759 0.15455 0.0
C168 C 0.92172 0.99509 0.17037 0.0
C169 C 0.93104 0.98301 0.15008 0.0
C170 C 0.84534 0.0724 0.19121 0.0
C171 C 0.75328 0.13241 0.15252 0.0
C172 C 0.78321 0.12162 0.19212 0.0
C173 C 0.77948 0.15145 0.18472 0.0
C174 C 0.76439 0.15682 0.16478 0.0
N175 N 0.77218 0.09772 0.18004 0.0
C176 C 0.75742 0.10288 0.16044 0.0
Co177 Co 0.07286 0.82701 0.65006 0.0
Co178 Co 0.06122 0.77692 0.69242 0.0
O179 O 0.06249 0.78597 0.66042 0.0
C180 C 0.02937 0.80149 0.61587 0.0
O181 O 0.02335 0.7777 0.62822 0.0
C182 C 0.08962 0.72218 0.6712 0.0
O183 O 0.10133 0.73917 0.65552 0.0
O184 O 0.10433 0.78966 0.69504 0.0
O185 O 0.10106 0.83303 0.67583 0.0
H186 H 0.08176 0.79877 0.77296 0.0
H187 H 0.0818 0.77362 0.61975 0.0
O188 O 0.04588 0.82295 0.62332 0.0
H189 H 0.18101 0.82489 0.62283 0.0
H190 H 0.09729 0.90769 0.59336 0.0
H191 H 0.07969 0.88639 0.67275 0.0
H192 H 0.13764 0.8448 0.64407 0.0
H193 H 0.08605 0.85564 0.606 0.0
O194 O 0.07421 0.73397 0.68686 0.0
H195 H 0.0817 0.80964 0.73277 0.0
H196 H 0.0401 0.72441 0.71983 0.0
H197 H 0.09116 0.93872 0.66083 0.0
H198 H 0.12421 0.75354 0.59776 0.0
H199 H 0.10005 0.94965 0.62087 0.0
H200 H 0.17443 0.77906 0.59927 0.0
O201 O 0.03838 0.84364 0.66765 0.0
H202 H 0.97428 0.72054 0.65747 0.0
H203 H 0.00414 0.791 0.71726 0.0
H204 H 0.9505 0.77604 0.71349 0.0
H205 H 0.93525 0.74048 0.68346 0.0
H206 H 0.02762 0.73638 0.66169 0.0
H207 H 0.03993 0.71253 0.75986 0.0
H208 H 0.06076 0.74991 0.78674 0.0
O209 O 0.04745 0.81932 0.69957 0.0
C210 C 0.11491 0.81543 0.68928 0.0
C211 C 0.07254 0.78233 0.76142 0.0
C212 C 0.0491 0.73392 0.75406 0.0
N213 N 0.06071 0.7678 0.72397 0.0
C214 C 0.07238 0.78839 0.73864 0.0
C215 C 0.04931 0.74076 0.7314 0.0
C216 C 0.06078 0.75491 0.76914 0.0
C217 C 0.10319 0.7854 0.6202 0.0
N218 N 0.10685 0.81072 0.63305 0.0
C219 C 0.12733 0.77366 0.60784 0.0
C220 C 0.15551 0.78792 0.60874 0.0
C221 C 0.15922 0.8136 0.62197 0.0
C222 C 0.13455 0.82469 0.63408 0.0
C223 C 0.09348 0.90321 0.61082 0.0
C224 C 0.08366 0.89092 0.65535 0.0
C225 C 0.08699 0.87379 0.61808 0.0
N226 N 0.08233 0.86792 0.64013 0.0
C227 C 0.09009 0.92062 0.64869 0.0
C228 C 0.09504 0.92674 0.62626 0.0
C229 C 0.0349 0.84068 0.68857 0.0
C230 C 0.98063 0.73606 0.67062 0.0
C231 C 0.99769 0.77575 0.70401 0.0
C232 C 0.96727 0.76725 0.70203 0.0
C233 C 0.95874 0.74727 0.68519 0.0
N234 N 0.01903 0.76469 0.68962 0.0
C235 C 0.01083 0.74507 0.67311 0.0
Co236 Co 0.28482 0.02893 0.84291 0.0
Co237 Co 0.33851 0.06186 0.809 0.0
O238 O 0.32426 0.04927 0.83869 0.0
C239 C 0.29152 0.07122 0.88213 0.0
O240 O 0.31239 0.08712 0.87186 0.0
C241 C 0.39497 0.04086 0.83354 0.0
O242 O 0.37919 0.03147 0.85069 0.0
O243 O 0.33394 0.01957 0.79802 0.0
O244 O 0.28972 0.0067 0.81411 0.0
H245 H 0.33393 0.06612 0.72561 0.0
H246 H 0.33154 0.0244 0.87851 0.0
O247 O 0.27829 0.04929 0.87235 0.0
H248 H 0.30736 0.91872 0.85815 0.0
H249 H 0.20258 0.9756 0.8862 0.0
H250 H 0.2329 0.01612 0.81311 0.0
H251 H 0.28164 0.96141 0.83956 0.0
H252 H 0.2525 0.99992 0.88119 0.0
O253 O 0.38194 0.05277 0.81678 0.0
H254 H 0.31651 0.05157 0.76306 0.0
H255 H 0.39116 0.09785 0.79205 0.0
H256 H 0.18285 0.99171 0.81736 0.0
H257 H 0.35747 0.98243 0.89774 0.0
H258 H 0.16741 0.97125 0.85413 0.0
H259 H 0.34554 0.92908 0.88755 0.0
O260 O 0.26388 0.06319 0.82763 0.0
H261 H 0.37306 0.14326 0.86217 0.0
H262 H 0.31882 0.1224 0.79221 0.0
H263 H 0.32371 0.17516 0.80531 0.0
H264 H 0.35114 0.18593 0.84047 0.0
H265 H 0.36712 0.09086 0.84872 0.0
H266 H 0.40955 0.11273 0.75493 0.0
H267 H 0.3808 0.09694 0.72137 0.0
O268 O 0.29602 0.07137 0.79942 0.0
C269 C 0.31111 0.00211 0.80023 0.0
C270 C 0.34664 0.07318 0.7401 0.0
C271 C 0.38909 0.09931 0.75655 0.0
N272 N 0.35268 0.07389 0.77973 0.0
C273 C 0.33684 0.06502 0.76135 0.0
C274 C 0.37859 0.09073 0.77754 0.0
C275 C 0.37294 0.09046 0.73773 0.0
C276 C 0.32602 0.00132 0.87405 0.0
N277 N 0.30514 0.99547 0.85784 0.0
C278 C 0.34088 0.9776 0.88497 0.0
C279 C 0.3342 0.94768 0.87923 0.0
C280 C 0.31281 0.94186 0.86273 0.0
C281 C 0.29842 0.96616 0.85218 0.0
C282 C 0.20906 0.9844 0.8701 0.0
C283 C 0.22641 0.00714 0.82913 0.0
C284 C 0.23728 0.9983 0.86716 0.0
N285 N 0.2457 0.00932 0.84683 0.0
C286 C 0.19801 0.9934 0.83145 0.0
C287 C 0.18934 0.98195 0.85209 0.0
C288 C 0.27012 0.07434 0.80862 0.0
C289 C 0.36116 0.13888 0.84677 0.0
C290 C 0.33057 0.12678 0.80764 0.0
C291 C 0.33338 0.15677 0.81491 0.0
C292 C 0.34881 0.1628 0.83462 0.0
N293 N 0.34282 0.10338 0.81961 0.0
C294 C 0.35792 0.10918 0.83896 0.0
Co295 Co 0.07776 0.29484 0.35042 0.0
Co296 Co 0.06015 0.34118 0.30684 0.0
O297 O 0.06285 0.33388 0.33903 0.0
C298 C 0.03153 0.31666 0.38416 0.0
O299 O 0.02389 0.34004 0.37187 0.0
C300 C 0.08434 0.39923 0.32584 0.0
O301 O 0.10013 0.38389 0.3405 0.0
O302 O 0.1043 0.33297 0.30389 0.0
O303 O 0.10674 0.29098 0.32483 0.0
H304 H 0.0815 0.31823 0.22655 0.0
H305 H 0.08036 0.35093 0.37868 0.0
O306 O 0.0502 0.29688 0.37697 0.0
H307 H 0.18451 0.31047 0.37819 0.0
H308 H 0.11046 0.22003 0.40915 0.0
H309 H 0.09181 0.23575 0.3292 0.0
H310 H 0.14393 0.28453 0.35753 0.0
H311 H 0.09345 0.26984 0.39522 0.0
O312 O 0.06837 0.38549 0.3114 0.0
H313 H 0.08327 0.3091 0.26693 0.0
H314 H 0.03301 0.3899 0.27858 0.0
H315 H 0.10914 0.18566 0.3424 0.0
H316 H 0.11992 0.37704 0.40005 0.0
H317 H 0.11857 0.17754 0.38265 0.0
H318 H 0.17261 0.35699 0.39985 0.0
O319 O 0.04539 0.27352 0.33335 0.0
H320 H 0.96813 0.38937 0.34144 0.0
H321 H 0.00457 0.31962 0.28315 0.0
H322 H 0.94967 0.32872 0.28726 0.0
H323 H 0.93111 0.36389 0.31654 0.0
H324 H 0.02284 0.37936 0.33691 0.0
H325 H 0.03089 0.4 0.23832 0.0
H326 H 0.05515 0.36396 0.21199 0.0
O327 O 0.05113 0.29728 0.30078 0.0
C328 C 0.11784 0.30888 0.31024 0.0
C329 C 0.07076 0.33406 0.23785 0.0
C330 C 0.04239 0.37997 0.24446 0.0
N331 N 0.05811 0.34882 0.27511 0.0
C332 C 0.07164 0.32897 0.26074 0.0
C333 C 0.04374 0.37416 0.26725 0.0
C334 C 0.056 0.35974 0.22969 0.0
C335 C 0.10287 0.3415 0.37882 0.0
N336 N 0.10947 0.3158 0.36703 0.0
C337 C 0.12538 0.35666 0.39082 0.0
C338 C 0.15493 0.34546 0.39065 0.0
C339 C 0.16163 0.3194 0.37848 0.0
C340 C 0.13853 0.30486 0.3667 0.0
C341 C 0.10646 0.22329 0.39157 0.0
C342 C 0.09603 0.23246 0.34672 0.0
C343 C 0.09671 0.25143 0.38358 0.0
N344 N 0.09178 0.25578 0.36137 0.0
C345 C 0.10577 0.20402 0.35411 0.0
C346 C 0.11102 0.19947 0.37669 0.0
C347 C 0.04114 0.27525 0.31244 0.0
C348 C 0.97593 0.37398 0.32863 0.0
C349 C 0.9967 0.33474 0.29608 0.0
C350 C 0.96557 0.33991 0.29825 0.0
C351 C 0.95517 0.35966 0.31466 0.0
N352 N 0.01694 0.34883 0.30987 0.0
C353 C 0.0069 0.36826 0.32596 0.0
Co354 Co 0.81613 0.07947 0.84717 0.0
Co355 Co 0.77337 0.06335 0.80155 0.0
O356 O 0.77873 0.06431 0.83381 0.0
C357 C 0.83014 0.03396 0.8818 0.0
O358 O 0.85664 0.03002 0.8722 0.0
C359 C 0.7162 0.08992 0.81909 0.0
O360 O 0.73242 0.10714 0.83233 0.0
O361 O 0.78246 0.10756 0.79972 0.0
O362 O 0.82241 0.10952 0.82265 0.0
H363 H 0.80128 0.08728 0.72251 0.0
H364 H 0.76017 0.07717 0.87452 0.0
O365 O 0.81009 0.05033 0.87235 0.0
H366 H 0.79108 0.18478 0.87469 0.0
H367 H 0.88242 0.11568 0.91023 0.0
H368 H 0.87767 0.09301 0.83007 0.0
H369 H 0.82134 0.14657 0.85461 0.0
H370 H 0.83489 0.09748 0.89326 0.0
O371 O 0.72914 0.07215 0.80537 0.0
H372 H 0.8082 0.0872 0.76316 0.0
H373 H 0.72561 0.0387 0.77136 0.0
H374 H 0.92566 0.11126 0.84638 0.0
H375 H 0.72962 0.11453 0.89525 0.0
H376 H 0.92826 0.12269 0.88674 0.0
H377 H 0.74493 0.16883 0.89533 0.0
O378 O 0.83958 0.0484 0.8301 0.0
H379 H 0.7233 0.9706 0.8336 0.0
H380 H 0.79458 0.00849 0.77682 0.0
H381 H 0.78451 0.95353 0.7795 0.0
H382 H 0.74854 0.93426 0.808 0.0
H383 H 0.73427 0.02538 0.8305 0.0
H384 H 0.71768 0.03845 0.7308 0.0
H385 H 0.75575 0.06276 0.70608 0.0
O386 O 0.81735 0.05371 0.79681 0.0
C387 C 0.80594 0.12092 0.80735 0.0
C388 C 0.78457 0.07653 0.7331 0.0
C389 C 0.73764 0.04917 0.73776 0.0
N390 N 0.76745 0.0628 0.76961 0.0
C391 C 0.78841 0.07636 0.75613 0.0
C392 C 0.74221 0.04945 0.76072 0.0
C393 C 0.75901 0.0628 0.7239 0.0
C394 C 0.76726 0.10066 0.87472 0.0
N395 N 0.7926 0.1096 0.86336 0.0
C396 C 0.74974 0.12176 0.88638 0.0
C397 C 0.7583 0.15222 0.88637 0.0
C398 C 0.78415 0.1612 0.87476 0.0
C399 C 0.8011 0.13946 0.86328 0.0
C400 C 0.88158 0.11077 0.89262 0.0
C401 C 0.87861 0.09793 0.84765 0.0
C402 C 0.85473 0.10045 0.8829 0.0
N403 N 0.8535 0.09409 0.86067 0.0
C404 C 0.90585 0.10827 0.85679 0.0
C405 C 0.90729 0.11469 0.87943 0.0
C406 C 0.83887 0.04402 0.80912 0.0
C407 C 0.73896 0.97873 0.82108 0.0
C408 C 0.779 1.00029 0.78934 0.0
C409 C 0.77334 0.96914 0.79074 0.0
C410 C 0.75315 0.95835 0.80672 0.0
N411 N 0.7649 0.02016 0.80342 0.0
C412 C 0.74519 0.00973 0.8192 0.0
Co413 Co 0.04763 0.82565 0.34868 0.0
Co414 Co 0.06182 0.77689 0.30596 0.0
O415 O 0.0596 0.78521 0.33804 0.0
C416 C 0.09038 0.80071 0.38365 0.0
O417 O 0.09684 0.7767 0.37163 0.0
C418 C 0.03382 0.72118 0.3259 0.0
O419 O 0.01972 0.73792 0.34066 0.0
O420 O 0.01828 0.78819 0.30296 0.0
O421 O 0.01989 0.83124 0.32266 0.0
H422 H 0.04222 0.79949 0.22541 0.0
H423 H 0.03937 0.77086 0.37787 0.0
O424 O 0.07415 0.82205 0.3757 0.0
H425 H 0.93906 0.81988 0.37467 0.0
H426 H 0.01937 0.9044 0.40589 0.0
H427 H 0.03931 0.88523 0.3265 0.0
H428 H 0.98232 0.84153 0.35426 0.0
H429 H 0.03257 0.853 0.39286 0.0
O430 O 0.05034 0.73341 0.31105 0.0
H431 H 0.04105 0.80961 0.26569 0.0
H432 H 0.08533 0.72565 0.27831 0.0
H433 H 0.0259 0.93691 0.33881 0.0
H434 H 0.99708 0.74905 0.39903 0.0
H435 H 0.01582 0.94678 0.37877 0.0
H436 H 0.9463 0.77343 0.39747 0.0
O437 O 0.08188 0.84376 0.33167 0.0
H438 H 0.14996 0.72324 0.34155 0.0
H439 H 0.11888 0.79333 0.28187 0.0
H440 H 0.17294 0.78029 0.2862 0.0
H441 H 0.18881 0.74493 0.31619 0.0
H442 H 0.09616 0.73714 0.33676 0.0
H443 H 0.08677 0.71454 0.23817 0.0
H444 H 0.06522 0.75166 0.21141 0.0
O445 O 0.07423 0.8199 0.29936 0.0
C446 C 0.00678 0.81349 0.30893 0.0
C447 C 0.05176 0.78318 0.2369 0.0
C448 C 0.07673 0.73548 0.24407 0.0
N449 N 0.0633 0.76837 0.27434 0.0
C450 C 0.05122 0.78881 0.25973 0.0
C451 C 0.07579 0.74188 0.26678 0.0
C452 C 0.06464 0.75632 0.22906 0.0
C453 C 0.01777 0.78221 0.37746 0.0
N454 N 0.01377 0.80793 0.36508 0.0
C455 C 0.99368 0.76947 0.38932 0.0
C456 C 0.96518 0.78309 0.38839 0.0
C457 C 0.96111 0.80911 0.37558 0.0
C458 C 0.98574 0.82121 0.36397 0.0
C459 C 0.02369 0.90039 0.38843 0.0
C460 C 0.03484 0.88928 0.3439 0.0
C461 C 0.03129 0.87134 0.38095 0.0
N462 N 0.03661 0.86604 0.3589 0.0
C463 C 0.02731 0.91862 0.35078 0.0
C464 C 0.02168 0.92415 0.37321 0.0
C465 C 0.08577 0.84148 0.31073 0.0
C466 C 0.14334 0.73868 0.32843 0.0
C467 C 0.12559 0.77815 0.29509 0.0
C468 C 0.15625 0.77074 0.29739 0.0
C469 C 0.16513 0.75088 0.3142 0.0
N470 N 0.10434 0.76612 0.30913 0.0
C471 C 0.11289 0.7466 0.32562 0.0
C472 C 0.31196 0.04286 0.08331 0.0
C473 C 0.28475 0.03627 0.09461 0.0
C474 C 0.31245 0.04522 0.06019 0.0
C475 C 0.27193 0.02702 0.00855 0.0
H476 H 0.30785 0.10195 0.98707 0.0
C477 C 0.26183 0.06116 0.91667 0.0
C478 C 0.28769 0.07362 0.90648 0.0
C479 C 0.26034 0.05806 0.93974 0.0
C480 C 0.29806 0.08074 0.99269 0.0
H481 H 0.23731 0.02454 0.09018 0.0
H482 H 0.23843 0.02802 0.04967 0.0
H483 H 0.30888 0.09034 0.02665 0.0
H484 H 0.3318 0.0937 0.91255 0.0
H485 H 0.32957 0.08778 0.95277 0.0
H486 H 0.26167 0.01696 0.97464 0.0
C487 C 0.25925 0.03172 0.05884 0.0
C488 C 0.29864 0.0741 0.0154 0.0
C489 C 0.25865 0.02964 0.08206 0.0
C490 C 0.31143 0.08431 0.91992 0.0
C491 C 0.31012 0.08085 0.94303 0.0
C492 C 0.27164 0.03347 0.98579 0.0
C493 C 0.28589 0.04066 0.04776 0.0
C494 C 0.28561 0.04717 0.02356 0.0
C495 C 0.28486 0.06696 0.9532 0.0
C496 C 0.28465 0.06047 0.97754 0.0
H497 H 0.33259 0.04788 0.09236 0.0
H498 H 0.33346 0.05154 0.05205 0.0
H499 H 0.2619 0.00601 0.01436 0.0
H500 H 0.24306 0.05289 0.90675 0.0
H501 H 0.24016 0.04807 0.94696 0.0
C502 C 0.08399 0.34159 0.5821 0.0
C503 C 0.08102 0.31421 0.5939 0.0
C504 C 0.07856 0.34247 0.55919 0.0
C505 C 0.03671 0.2988 0.51624 0.0
H506 H 0.07676 0.35363 0.47526 0.0
C507 C 0.02844 0.29027 0.4207 0.0
C508 C 0.02663 0.31737 0.40844 0.0
C509 C 0.03164 0.29101 0.44377 0.0
C510 C 0.06509 0.33851 0.48661 0.0
H511 H 0.07255 0.26593 0.59075 0.0
H512 H 0.0646 0.26713 0.55075 0.0
H513 H 0.0932 0.3517 0.51396 0.0
H514 H 0.02525 0.36649 0.41083 0.0
H515 H 0.03096 0.36776 0.45127 0.0
H516 H 0.00921 0.28505 0.48866 0.0
C517 C 0.06989 0.28819 0.5592 0.0
C518 C 0.07455 0.33733 0.50878 0.0
C519 C 0.07491 0.28739 0.58209 0.0
C520 C 0.02621 0.34522 0.41985 0.0
C521 C 0.0299 0.34597 0.44295 0.0
C522 C 0.0275 0.29976 0.49404 0.0
C523 C 0.07039 0.31592 0.54758 0.0
C524 C 0.06063 0.31729 0.52387 0.0
C525 C 0.03352 0.31889 0.45504 0.0
C526 C 0.04167 0.31951 0.47897 0.0
H527 H 0.08825 0.36271 0.59078 0.0
H528 H 0.07905 0.36427 0.55088 0.0
H529 H 0.02483 0.28367 0.52745 0.0
H530 H 0.02905 0.2685 0.41231 0.0
H531 H 0.03451 0.26978 0.45262 0.0
C532 C 0.85198 0.01972 0.91887 0.0
C533 C 0.82683 0.02847 0.90599 0.0
C534 C 0.85091 0.02173 0.94207 0.0
C535 C 0.81336 0.06682 0.98508 0.0
H536 H 0.84802 0.00849 0.02604 0.0
C537 C 0.80398 0.07921 0.08078 0.0
C538 C 0.82802 0.06808 0.09375 0.0
C539 C 0.80407 0.07515 0.0577 0.0
C540 C 0.83867 0.02527 0.01481 0.0
H541 H 0.77997 0.04365 0.90756 0.0
H542 H 0.77822 0.04705 0.94789 0.0
H543 H 0.8466 0.99692 0.98643 0.0
H544 H 0.87195 0.04593 0.09262 0.0
H545 H 0.87267 0.03992 0.05246 0.0
H546 H 0.80595 0.09548 0.01327 0.0
C547 C 0.79891 0.03921 0.94004 0.0
C548 C 0.8377 0.0185 0.99213 0.0
C549 C 0.79989 0.03701 0.91691 0.0
C550 C 0.85296 0.05454 0.08308 0.0
C551 C 0.85321 0.05078 0.06006 0.0
C552 C 0.81456 0.07372 0.00773 0.0
C553 C 0.82473 0.03262 0.95282 0.0
C554 C 0.825 0.03918 0.97702 0.0
C555 C 0.82835 0.06014 0.04712 0.0
C556 C 0.82728 0.05307 0.02291 0.0
H557 H 0.8731 0.01308 0.91105 0.0
H558 H 0.87117 0.01646 0.9515 0.0
H559 H 0.80391 0.08346 0.97377 0.0
H560 H 0.7843 0.08946 0.08855 0.0
H561 H 0.78444 0.08251 0.04832 0.0
C562 C 0.08963 0.82619 0.42061 0.0
C563 C 0.09259 0.79934 0.40816 0.0
C564 C 0.0831 0.825 0.44328 0.0
C565 C 0.07868 0.7747 0.49269 0.0
H566 H 0.01597 0.83161 0.51051 0.0
C567 C 0.02609 0.77154 0.58057 0.0
C568 C 0.02593 0.7998 0.59145 0.0
C569 C 0.0311 0.7699 0.55762 0.0
C570 C 0.03355 0.81565 0.50583 0.0
H571 H 0.09314 0.75017 0.41011 0.0
H572 H 0.08175 0.74808 0.44978 0.0
H573 H 0.03472 0.83213 0.47245 0.0
H574 H 0.02857 0.84852 0.58659 0.0
H575 H 0.03681 0.84571 0.54669 0.0
H576 H 0.0775 0.75835 0.52622 0.0
C577 C 0.08458 0.77008 0.44201 0.0
C578 C 0.04447 0.81605 0.48405 0.0
C579 C 0.0913 0.77127 0.41926 0.0
C580 C 0.0285 0.82641 0.57868 0.0
C581 C 0.03324 0.82479 0.55578 0.0
C582 C 0.06769 0.77426 0.51453 0.0
C583 C 0.07919 0.79694 0.45406 0.0
C584 C 0.06748 0.79589 0.47727 0.0
C585 C 0.03568 0.7965 0.54509 0.0
C586 C 0.04524 0.79499 0.52141 0.0
H587 H 0.09065 0.84817 0.41254 0.0
H588 H 0.07996 0.84614 0.4522 0.0
H589 H 0.09647 0.75895 0.48806 0.0
H590 H 0.02445 0.75061 0.58995 0.0
H591 H 0.03241 0.74779 0.54979 0.0
C592 C 0.44984 0.09168 0.15918 0.0
C593 C 0.43556 0.08315 0.1791 0.0
C594 C 0.48062 0.08516 0.15572 0.0
C595 C 0.54182 0.03467 0.17741 0.0
H596 H 0.59541 0.08893 0.14522 0.0
C597 C 0.67194 0.03249 0.18441 0.0
C598 C 0.68892 0.03368 0.16467 0.0
C599 C 0.64047 0.03579 0.18394 0.0
C600 C 0.58055 0.0734 0.15398 0.0
H601 H 0.44254 0.06266 0.21144 0.0
H602 H 0.49618 0.0526 0.20589 0.0
H603 H 0.54176 0.10199 0.14931 0.0
H604 H 0.6863 0.03892 0.12892 0.0
H605 H 0.63093 0.04546 0.12818 0.0
H606 H 0.58101 0.00686 0.18291 0.0
C607 C 0.4836 0.06315 0.19251 0.0
C608 C 0.54981 0.08083 0.15633 0.0
C609 C 0.45287 0.06923 0.19582 0.0
C610 C 0.67371 0.03761 0.14435 0.0
C611 C 0.64216 0.04159 0.14394 0.0
C612 C 0.57255 0.02753 0.17534 0.0
C613 C 0.49777 0.07032 0.17222 0.0
C614 C 0.53013 0.06179 0.16841 0.0
C615 C 0.62534 0.04095 0.16378 0.0
C616 C 0.59227 0.047 0.16387 0.0
H617 H 0.43696 0.10221 0.14593 0.0
H618 H 0.49066 0.09087 0.13984 0.0
H619 H 0.52727 0.01895 0.18624 0.0
H620 H 0.6831 0.02956 0.20031 0.0
H621 H 0.62804 0.03542 0.19948 0.0
C622 C 0.03213 0.45011 0.65743 0.0
C623 C 0.03929 0.43508 0.67732 0.0
C624 C 0.03919 0.48095 0.65473 0.0
C625 C 0.08852 0.54113 0.67951 0.0
H626 H 0.03737 0.59614 0.64596 0.0
C627 C 0.08916 0.67123 0.6891 0.0
C628 C 0.09056 0.68876 0.66963 0.0
C629 C 0.08609 0.63973 0.68791 0.0
C630 C 0.05204 0.58088 0.65512 0.0
H631 H 0.05784 0.44076 0.7104 0.0
H632 H 0.06865 0.49449 0.70622 0.0
H633 H 0.02372 0.54243 0.64851 0.0
H634 H 0.09017 0.68718 0.63365 0.0
H635 H 0.08392 0.63177 0.63159 0.0
H636 H 0.11589 0.58004 0.68702 0.0
C637 C 0.05888 0.48248 0.69225 0.0
C638 C 0.04429 0.55009 0.65658 0.0
C639 C 0.05235 0.45169 0.69478 0.0
C640 C 0.08949 0.67413 0.6489 0.0
C641 C 0.08567 0.64256 0.64771 0.0
C642 C 0.09593 0.57192 0.67836 0.0
C643 C 0.05314 0.49743 0.67202 0.0
C644 C 0.06216 0.52988 0.66913 0.0
C645 C 0.08367 0.62518 0.66724 0.0
C646 C 0.07757 0.59213 0.6664 0.0
H647 H 0.0223 0.43775 0.64363 0.0
H648 H 0.03458 0.49156 0.63887 0.0
H649 H 0.10342 0.52621 0.68875 0.0
H650 H 0.0898 0.68197 0.70529 0.0
H651 H 0.0844 0.62684 0.7032 0.0
C652 C 0.6687 0.0949 0.84184 0.0
C653 C 0.68288 0.08806 0.82154 0.0
C654 C 0.63768 0.08909 0.84482 0.0
C655 C 0.57533 0.04277 0.82025 0.0
H656 H 0.52305 0.09433 0.8558 0.0
C657 C 0.44509 0.04201 0.81439 0.0
C658 C 0.42848 0.04135 0.83432 0.0
C659 C 0.47656 0.04542 0.81469 0.0
C660 C 0.53753 0.07955 0.84606 0.0
H661 H 0.67551 0.07146 0.78808 0.0
H662 H 0.6215 0.06268 0.79286 0.0
H663 H 0.57692 0.10679 0.85217 0.0
H664 H 0.43178 0.04351 0.87021 0.0
H665 H 0.48713 0.05018 0.87069 0.0
H666 H 0.53561 0.01632 0.81343 0.0
C667 C 0.63431 0.07132 0.80684 0.0
C668 C 0.5684 0.08663 0.84398 0.0
C669 C 0.66526 0.07667 0.804 0.0
C670 C 0.44406 0.04368 0.85462 0.0
C671 C 0.47561 0.04773 0.85489 0.0
C672 C 0.54449 0.03598 0.82208 0.0
C673 C 0.6202 0.07666 0.82746 0.0
C674 C 0.58762 0.06857 0.83075 0.0
C675 C 0.49208 0.04881 0.8349 0.0
C676 C 0.52523 0.05449 0.83478 0.0
H677 H 0.6818 0.10347 0.85572 0.0
H678 H 0.62771 0.09334 0.86096 0.0
H679 H 0.58951 0.02776 0.81048 0.0
H680 H 0.43369 0.04032 0.79849 0.0
H681 H 0.48869 0.04639 0.79904 0.0
C682 C 0.08505 0.44804 0.34745 0.0
C683 C 0.08202 0.43268 0.32712 0.0
C684 C 0.07865 0.47919 0.34889 0.0
C685 C 0.0375 0.54004 0.31787 0.0
H686 H 0.08118 0.59443 0.35714 0.0
C687 C 0.03876 0.67015 0.30839 0.0
C688 C 0.03358 0.6877 0.32751 0.0
C689 C 0.0419 0.63868 0.30991 0.0
C690 C 0.06857 0.57937 0.3463 0.0
H691 H 0.07167 0.43807 0.29215 0.0
H692 H 0.06207 0.49227 0.29435 0.0
H693 H 0.09423 0.54045 0.35642 0.0
H694 H 0.02739 0.68612 0.36321 0.0
H695 H 0.03365 0.63076 0.36592 0.0
H696 H 0.01285 0.57932 0.30708 0.0
C697 C 0.06803 0.48033 0.30945 0.0
C698 C 0.07599 0.54842 0.34589 0.0
C699 C 0.07389 0.44925 0.30811 0.0
C700 C 0.03107 0.67308 0.34818 0.0
C701 C 0.03489 0.64153 0.34977 0.0
C702 C 0.03048 0.57097 0.31804 0.0
C703 C 0.0695 0.49564 0.32995 0.0
C704 C 0.06084 0.52839 0.3314 0.0
C705 C 0.04054 0.62412 0.33063 0.0
C706 C 0.04615 0.59098 0.33207 0.0
H707 H 0.09103 0.43575 0.36242 0.0
H708 H 0.07987 0.49006 0.36499 0.0
H709 H 0.02463 0.52531 0.30698 0.0
H710 H 0.04087 0.68083 0.29224 0.0
H711 H 0.04642 0.6258 0.29492 0.0
C712 C 0.15599 0.31298 0.27918 0.0
C713 C 0.1464 0.29947 0.29916 0.0
C714 C 0.18128 0.30154 0.26779 0.0
C715 C 0.24918 0.25272 0.27324 0.0
H716 H 0.22961 0.22628 0.21358 0.0
C717 C 0.30995 0.15263 0.23013 0.0
C718 C 0.30925 0.15076 0.20685 0.0
C719 C 0.29628 0.17717 0.24107 0.0
C720 C 0.23607 0.2341 0.22996 0.0
H721 H 0.15666 0.26397 0.32312 0.0
H722 H 0.20082 0.24487 0.30366 0.0
H723 H 0.19471 0.25913 0.23333 0.0
H724 H 0.29686 0.1749 0.17685 0.0
H725 H 0.27507 0.21826 0.19562 0.0
H726 H 0.29041 0.22737 0.27003 0.0
C727 C 0.18891 0.26427 0.29682 0.0
C728 C 0.21588 0.25295 0.2413 0.0
C729 C 0.16344 0.27524 0.30794 0.0
C730 C 0.29728 0.17525 0.19476 0.0
C731 C 0.28445 0.2001 0.20561 0.0
C732 C 0.26969 0.23419 0.26176 0.0
C733 C 0.19772 0.27683 0.27641 0.0
C734 C 0.22179 0.26173 0.26325 0.0
C735 C 0.28234 0.20071 0.2289 0.0
C736 C 0.26301 0.22391 0.24016 0.0
H737 H 0.14336 0.3316 0.27191 0.0
H738 H 0.18761 0.31158 0.25202 0.0
H739 H 0.25433 0.25936 0.29015 0.0
H740 H 0.31922 0.13428 0.23995 0.0
H741 H 0.29513 0.17665 0.25903 0.0
C742 C 0.94373 0.30474 0.69769 0.0
C743 C 0.97055 0.31125 0.70929 0.0
C744 C 0.91861 0.29269 0.70868 0.0
C745 C 0.88739 0.27239 0.76449 0.0
H746 H 0.85595 0.20276 0.7324 0.0
C747 C 0.84054 0.16588 0.80687 0.0
C748 C 0.8163 0.1498 0.79721 0.0
C749 C 0.85252 0.19156 0.79658 0.0
C750 C 0.86388 0.22248 0.74145 0.0
H751 H 0.99124 0.31284 0.74187 0.0
H752 H 0.94783 0.29075 0.76112 0.0
H753 H 0.88968 0.23801 0.71371 0.0
H754 H 0.78501 0.14889 0.76939 0.0
H755 H 0.80639 0.1938 0.75118 0.0
H756 H 0.86267 0.25563 0.79261 0.0
C757 C 0.94593 0.29529 0.7435 0.0
C758 C 0.88328 0.24281 0.73073 0.0
C759 C 0.97095 0.30784 0.73246 0.0
C760 C 0.80366 0.16071 0.77729 0.0
C761 C 0.81594 0.18636 0.76684 0.0
C762 C 0.86807 0.25191 0.77526 0.0
C763 C 0.9199 0.28641 0.73155 0.0
C764 C 0.89591 0.26761 0.74225 0.0
C765 C 0.84082 0.20175 0.77623 0.0
C766 C 0.85677 0.2263 0.764 0.0
H767 H 0.94242 0.30806 0.67995 0.0
H768 H 0.89861 0.2871 0.69906 0.0
H769 H 0.89627 0.29151 0.77376 0.0
H770 H 0.85104 0.15817 0.82211 0.0
H771 H 0.87199 0.20254 0.80407 0.0
C772 C 0.96237 0.8073 0.28273 0.0
C773 C 0.97784 0.82412 0.29907 0.0
C774 C 0.93533 0.81845 0.27348 0.0
C775 C 0.87467 0.87586 0.283 0.0
H776 H 0.87209 0.88207 0.21882 0.0
C777 C 0.82511 0.977 0.23623 0.0
C778 C 0.81171 0.97249 0.21542 0.0
C779 C 0.83636 0.95228 0.24821 0.0
C780 C 0.87196 0.87993 0.23675 0.0
H781 H 0.9768 0.86591 0.31837 0.0
H782 H 0.93035 0.88484 0.3025 0.0
H783 H 0.90982 0.84943 0.23634 0.0
H784 H 0.7977 0.93904 0.1912 0.0
H785 H 0.8177 0.89561 0.21202 0.0
H786 H 0.83805 0.90786 0.28342 0.0
C787 C 0.93858 0.86287 0.29705 0.0
C788 C 0.89359 0.86119 0.24678 0.0
C789 C 0.9655 0.852 0.30606 0.0
C790 C 0.80802 0.94289 0.20727 0.0
C791 C 0.8195 0.91814 0.21913 0.0
C792 C 0.85316 0.89468 0.27298 0.0
C793 C 0.92319 0.84637 0.28062 0.0
C794 C 0.89603 0.86004 0.27003 0.0
C795 C 0.83471 0.92272 0.23937 0.0
C796 C 0.85241 0.89786 0.24979 0.0
H797 H 0.97128 0.78579 0.27693 0.0
H798 H 0.92398 0.80531 0.26075 0.0
H799 H 0.87563 0.87493 0.30097 0.0
H800 H 0.82872 0.99975 0.24256 0.0
H801 H 0.84832 0.95661 0.2636 0.0
C802 C 0.15541 0.85484 0.69228 0.0
C803 C 0.1436 0.82668 0.69917 0.0
C804 C 0.18199 0.86627 0.70151 0.0
C805 C 0.22589 0.86532 0.75229 0.0
H806 H 0.28233 0.91216 0.71654 0.0
C807 C 0.30966 0.94655 0.7938 0.0
C808 C 0.30749 0.97611 0.78528 0.0
C809 C 0.29851 0.92192 0.78165 0.0
C810 C 0.26692 0.89902 0.72674 0.0
H811 H 0.15075 0.78842 0.72128 0.0
H812 H 0.19734 0.8089 0.73782 0.0
H813 H 0.24509 0.87946 0.69839 0.0
H814 H 0.29351 0.00329 0.75719 0.0
H815 H 0.2742 0.96047 0.73579 0.0
H816 H 0.24655 0.88604 0.7806 0.0
C817 C 0.18589 0.82183 0.72502 0.0
C818 C 0.24562 0.8803 0.71637 0.0
C819 C 0.15926 0.81014 0.71555 0.0
C820 C 0.29599 0.98059 0.76386 0.0
C821 C 0.28488 0.95601 0.75166 0.0
C822 C 0.2472 0.88405 0.76267 0.0
C823 C 0.19747 0.85006 0.71806 0.0
C824 C 0.22408 0.86425 0.72902 0.0
C825 C 0.28491 0.92656 0.7608 0.0
C826 C 0.26714 0.90202 0.74998 0.0
H827 H 0.14392 0.86851 0.67993 0.0
H828 H 0.18985 0.88841 0.69616 0.0
H829 H 0.20948 0.8534 0.76247 0.0
H830 H 0.3186 0.94266 0.8103 0.0
H831 H 0.29923 0.89948 0.789 0.0
C832 C 0.86619 0.02744 0.77478 0.0
C833 C 0.86351 0.02668 0.79808 0.0
C834 C 0.88738 0.00928 0.76382 0.0
C835 C 0.92917 0.938 0.77001 0.0
H836 H 0.97445 0.96706 0.71896 0.0
C837 C 0.01551 0.86186 0.72451 0.0
C838 C 0.01683 0.86341 0.70116 0.0
C839 C 0.99849 0.8828 0.73666 0.0
C840 C 0.96171 0.95847 0.73302 0.0
H841 H 0.88176 0.00671 0.82816 0.0
H842 H 0.91893 0.97471 0.8089 0.0
H843 H 0.94296 0.00232 0.74015 0.0
H844 H 0.00125 0.88855 0.67237 0.0
H845 H 0.97094 0.92486 0.69362 0.0
H846 H 0.94724 0.89407 0.76266 0.0
C847 C 0.90436 0.9894 0.79918 0.0
C848 C 0.94379 0.97873 0.74523 0.0
C849 C 0.88324 0.00786 0.81021 0.0
C850 C 0.00077 0.88666 0.6903 0.0
C851 C 0.98355 0.90761 0.70252 0.0
C852 C 0.94695 0.91772 0.75774 0.0
C853 C 0.90641 0.98968 0.77583 0.0
C854 C 0.92716 0.96869 0.76379 0.0
C855 C 0.9821 0.90585 0.72587 0.0
C856 C 0.96337 0.92764 0.73901 0.0
H857 H 0.85147 0.04172 0.76484 0.0
H858 H 0.88812 0.00984 0.74584 0.0
H859 H 0.91624 0.92943 0.78397 0.0
H860 H 0.02774 0.84446 0.73354 0.0
H861 H 0.99843 0.88103 0.75461 0.0
C862 C 0.23244 0.01306 0.19036 0.0
C863 C 0.25081 0.03369 0.20201 0.0
C864 C 0.2116 0.99471 0.20184 0.0
C865 C 0.19949 0.96374 0.25846 0.0
H866 H 0.12176 0.93772 0.23518 0.0
C867 C 0.11666 0.88971 0.30989 0.0
C868 C 0.10295 0.86535 0.2986 0.0
C869 C 0.13292 0.91188 0.29816 0.0
C870 C 0.14351 0.94466 0.24184 0.0
H871 H 0.26007 0.05306 0.23443 0.0
H872 H 0.22337 0.02205 0.25417 0.0
H873 H 0.15242 0.97401 0.21415 0.0
H874 H 0.09544 0.84557 0.26597 0.0
H875 H 0.12378 0.88394 0.24576 0.0
H876 H 0.19073 0.93436 0.28605 0.0
C877 C 0.22565 0.01904 0.23639 0.0
C878 C 0.16109 0.96542 0.22976 0.0
C879 C 0.24656 0.03703 0.22503 0.0
C880 C 0.10566 0.86393 0.27531 0.0
C881 C 0.12176 0.88611 0.26362 0.0
C882 C 0.18189 0.94313 0.27054 0.0
C883 C 0.20863 0.9969 0.22512 0.0
C884 C 0.18935 0.97522 0.23792 0.0
C885 C 0.13569 0.9103 0.27488 0.0
C886 C 0.15374 0.93323 0.26236 0.0
H887 H 0.23537 0.00989 0.17265 0.0
H888 H 0.19891 0.97785 0.19262 0.0
H889 H 0.22143 0.97017 0.26506 0.0
H890 H 0.11492 0.89164 0.32779 0.0
H891 H 0.14317 0.93041 0.30732 0.0
C892 C 0.10369 0.22823 0.68852 0.0
C893 C 0.0867 0.24913 0.70104 0.0
C894 C 0.12108 0.2059 0.69918 0.0
C895 C 0.13105 0.1645 0.75206 0.0
H896 H 0.21605 0.16174 0.73567 0.0
C897 C 0.22147 0.10435 0.80671 0.0
C898 C 0.24644 0.09093 0.79601 0.0
C899 C 0.2003 0.12137 0.79454 0.0
C900 C 0.19229 0.16165 0.74026 0.0
H901 H 0.07337 0.26197 0.73447 0.0
H902 H 0.10316 0.22284 0.7529 0.0
H903 H 0.18135 0.19374 0.71473 0.0
H904 H 0.26787 0.08359 0.76399 0.0
H905 H 0.23072 0.11198 0.74286 0.0
H906 H 0.14181 0.13225 0.77748 0.0
C907 C 0.10327 0.22379 0.73491 0.0
C908 C 0.17241 0.1801 0.72821 0.0
C909 C 0.08636 0.24634 0.72432 0.0
C910 C 0.2492 0.09403 0.77285 0.0
C911 C 0.2279 0.11055 0.7607 0.0
C912 C 0.15086 0.14569 0.76395 0.0
C913 C 0.1213 0.20371 0.72251 0.0
C914 C 0.14166 0.18198 0.73411 0.0
C915 C 0.20341 0.12495 0.77137 0.0
C916 C 0.18186 0.1442 0.75835 0.0
H917 H 0.10447 0.22987 0.67057 0.0
H918 H 0.13468 0.19057 0.68922 0.0
H919 H 0.10738 0.1654 0.75689 0.0
H920 H 0.21874 0.10242 0.82454 0.0
H921 H 0.18197 0.13235 0.80343 0.0
C922 C 0.00385 0.2319 0.31192 0.0
C923 C 0.02439 0.25088 0.30069 0.0
C924 C 0.9863 0.21077 0.30013 0.0
C925 C 0.95907 0.19469 0.24263 0.0
H926 H 0.93522 0.11742 0.26808 0.0
C927 C 0.89381 0.10277 0.19271 0.0
C928 C 0.86808 0.09082 0.20343 0.0
C929 C 0.91448 0.12093 0.2044 0.0
C930 C 0.94167 0.13898 0.26079 0.0
H931 H 0.0437 0.26148 0.26843 0.0
H932 H 0.0142 0.22418 0.24816 0.0
H933 H 0.96856 0.15122 0.28902 0.0
H934 H 0.84441 0.0881 0.23505 0.0
H935 H 0.88053 0.11932 0.25531 0.0
H936 H 0.9324 0.18217 0.21431 0.0
C937 C 0.01065 0.2262 0.2659 0.0
C938 C 0.96065 0.15845 0.27283 0.0
C939 C 0.0278 0.2475 0.27759 0.0
C940 C 0.86388 0.09697 0.22619 0.0
C941 C 0.88469 0.11472 0.23789 0.0
C942 C 0.94041 0.17507 0.23051 0.0
C943 C 0.9892 0.20792 0.27689 0.0
C944 C 0.96949 0.18668 0.26397 0.0
C945 C 0.91009 0.1271 0.22712 0.0
C946 C 0.93132 0.14711 0.23952 0.0
H947 H 0.0006 0.23406 0.32969 0.0
H948 H 0.96984 0.19736 0.30918 0.0
H949 H 0.96475 0.21647 0.23538 0.0
H950 H 0.89774 0.09848 0.17522 0.0
H951 H 0.93398 0.13007 0.19571 0.0
loop_
_geom_bond_atom_site_label_1
_geom_bond_atom_site_label_2
_geom_bond_distance
_geom_bond_site_symmetry_2
_ccdc_geom_bond_type
Co0 O2 2.143 . S
Co0 O8 2.074 . S
Co0 O11 2.093 . S
Co0 O24 2.097 . S
Co0 N41 2.151 . S
Co0 N49 2.214 . S
Co1 O2 2.160 . S
Co1 O7 2.058 . S
Co1 O17 2.057 . S
Co1 O32 2.037 . S
Co1 N36 2.145 . S
Co1 N57 2.257 . S
O2 Co0 2.143 . S
O2 Co1 2.160 . S
C3 O4 1.278 . S
C3 O11 1.224 . S
O4 C3 1.278 . S
C5 O6 1.245 . S
C5 O17 1.232 . S
O6 C5 1.245 . S
O7 Co1 2.058 . S
O7 C33 1.269 . S
O8 Co0 2.074 . S
O8 C33 1.257 . S
H9 C34 0.930 . S
H10 C40 0.930 . S
O11 Co0 2.093 . S
O11 C3 1.224 . S
H12 C44 0.929 . S
H13 C46 0.930 . S
H14 C47 0.930 . S
H15 C45 0.929 . S
H16 C48 0.928 . S
O17 Co1 2.057 . S
O17 C5 1.232 . S
H18 C37 0.929 . S
H19 C38 0.929 . S
H20 C50 0.931 . S
H21 C42 0.929 . S
H22 C51 0.930 . S
H23 C43 0.931 . S
O24 Co0 2.097 . S
O24 C52 1.214 . S
H25 C53 0.929 . S
H26 C54 0.929 . S
H27 C55 0.930 . S
H28 C56 0.929 . S
H29 C58 0.930 . S
H30 C35 0.930 . S
H31 C39 0.930 . S
O32 Co1 2.037 . S
O32 C52 1.234 . S
C33 O7 1.269 . S
C33 O8 1.257 . S
C34 H9 0.930 . S
C34 C37 1.388 . S
C34 C39 1.418 . S
C35 H30 0.930 . S
C35 C38 1.404 . S
C35 C39 1.353 . S
N36 Co1 2.145 . S
N36 C37 1.397 . S
N36 C38 1.334 . S
C37 H18 0.929 . S
C37 C34 1.388 . S
C37 N36 1.397 . S
C38 H19 0.929 . S
C38 C35 1.404 . S
C38 N36 1.334 . S
C39 H31 0.930 . S
C39 C34 1.418 . S
C39 C35 1.353 . S
C40 H10 0.930 . S
C40 N41 1.330 . S
C40 C42 1.446 . S
N41 Co0 2.151 . S
N41 C40 1.330 . S
N41 C45 1.418 . S
C42 H21 0.929 . S
C42 C40 1.446 . S
C42 C43 1.332 . S
C43 H23 0.931 . S
C43 C42 1.332 . S
C43 C44 1.267 . S
C44 H12 0.929 . S
C44 C43 1.267 . S
C44 C45 1.251 . S
C45 H15 0.929 . S
C45 N41 1.418 . S
C45 C44 1.251 . S
C46 H13 0.930 . S
C46 C48 1.406 . S
C46 C51 1.261 . S
C47 H14 0.930 . S
C47 N49 1.325 . S
C47 C50 1.357 . S
C48 H16 0.928 . S
C48 C46 1.406 . S
C48 N49 1.261 . S
N49 Co0 2.214 . S
N49 C47 1.325 . S
N49 C48 1.261 . S
C50 H20 0.931 . S
C50 C47 1.357 . S
C50 C51 1.312 . S
C51 H22 0.930 . S
C51 C46 1.261 . S
C51 C50 1.312 . S
C52 O24 1.214 . S
C52 O32 1.234 . S
C53 H25 0.929 . S
C53 C56 1.391 . S
C53 C58 1.391 1_565 S
C54 H26 0.929 . S
C54 C55 1.390 . S
C54 N57 1.391 1_565 S
C55 H27 0.930 . S
C55 C54 1.390 . S
C55 C56 1.392 . S
C56 H28 0.929 . S
C56 C53 1.391 . S
C56 C55 1.392 . S
N57 Co1 2.257 . S
N57 C54 1.391 1_545 S
N57 C58 1.388 . S
C58 H29 0.930 . S
C58 C53 1.391 1_545 S
C58 N57 1.388 . S
Co59 O61 2.143 . S
Co59 O67 2.074 . S
Co59 O70 2.093 . S
Co59 O83 2.097 . S
Co59 N100 2.151 1_455 S
Co59 N108 2.214 . S
Co60 O61 2.160 . S
Co60 O66 2.058 . S
Co60 O76 2.057 . S
Co60 O91 2.037 . S
Co60 N95 2.145 . S
Co60 N116 2.257 . S
O61 Co59 2.143 . S
O61 Co60 2.160 . S
C62 O63 1.278 . S
C62 O70 1.224 . S
O63 C62 1.278 . S
C64 O65 1.245 . S
C64 O76 1.232 . S
O65 C64 1.245 . S
O66 Co60 2.058 . S
O66 C92 1.269 1_455 S
O67 Co59 2.074 . S
O67 C92 1.257 1_455 S
H68 C93 0.930 . S
H69 C99 0.930 . S
O70 Co59 2.093 . S
O70 C62 1.224 . S
H71 C103 0.929 . S
H72 C105 0.930 . S
H73 C106 0.930 . S
H74 C104 0.929 . S
H75 C107 0.929 . S
O76 Co60 2.057 . S
O76 C64 1.232 . S
H77 C96 0.929 . S
H78 C97 0.929 . S
H79 C109 0.931 . S
H80 C101 0.929 . S
H81 C110 0.930 . S
H82 C102 0.931 . S
O83 Co59 2.097 . S
O83 C111 1.214 . S
H84 C112 0.929 . S
H85 C113 0.929 . S
H86 C114 0.930 . S
H87 C115 0.929 . S
H88 C117 0.930 . S
H89 C94 0.930 . S
H90 C98 0.930 . S
O91 Co60 2.037 . S
O91 C111 1.234 . S
C92 O66 1.269 1_655 S
C92 O67 1.257 1_655 S
C93 H68 0.930 . S
C93 C96 1.388 . S
C93 C98 1.418 . S
C94 H89 0.930 . S
C94 C97 1.404 . S
C94 C98 1.353 . S
N95 Co60 2.145 . S
N95 C96 1.397 . S
N95 C97 1.334 . S
C96 H77 0.929 . S
C96 C93 1.388 . S
C96 N95 1.397 . S
C97 H78 0.929 . S
C97 C94 1.404 . S
C97 N95 1.334 . S
C98 H90 0.930 . S
C98 C93 1.418 . S
C98 C94 1.353 . S
C99 H69 0.930 . S
C99 N100 1.330 . S
C99 C101 1.446 . S
N100 Co59 2.151 1_655 S
N100 C99 1.330 . S
N100 C104 1.418 . S
C101 H80 0.929 . S
C101 C99 1.446 . S
C101 C102 1.332 . S
C102 H82 0.931 . S
C102 C101 1.332 . S
C102 C103 1.267 . S
C103 H71 0.929 . S
C103 C102 1.267 . S
C103 C104 1.251 . S
C104 H74 0.929 . S
C104 N100 1.418 . S
C104 C103 1.251 . S
C105 H72 0.930 . S
C105 C107 1.406 . S
C105 C110 1.261 . S
C106 H73 0.930 . S
C106 N108 1.325 . S
C106 C109 1.357 . S
C107 H75 0.929 . S
C107 C105 1.406 . S
C107 N108 1.260 1_655 S
N108 Co59 2.214 . S
N108 C106 1.325 . S
N108 C107 1.260 1_455 S
C109 H79 0.931 . S
C109 C106 1.357 . S
C109 C110 1.312 1_455 S
C110 H81 0.930 . S
C110 C105 1.261 . S
C110 C109 1.312 1_655 S
C111 O83 1.214 . S
C111 O91 1.234 . S
C112 H84 0.929 . S
C112 C115 1.391 . S
C112 C117 1.391 . S
C113 H85 0.929 . S
C113 C114 1.390 . S
C113 N116 1.391 . S
C114 H86 0.930 . S
C114 C113 1.390 . S
C114 C115 1.392 . S
C115 H87 0.929 . S
C115 C112 1.391 . S
C115 C114 1.392 . S
N116 Co60 2.257 . S
N116 C113 1.391 . S
N116 C117 1.388 . S
C117 H88 0.930 . S
C117 C112 1.391 . S
C117 N116 1.388 . S
Co118 O120 2.143 . S
Co118 O126 2.074 . S
Co118 O129 2.093 . S
Co118 O142 2.097 . S
Co118 N159 2.151 1_545 S
Co118 N167 2.214 . S
Co119 O120 2.160 . S
Co119 O125 2.058 . S
Co119 O135 2.057 . S
Co119 O150 2.037 . S
Co119 N154 2.145 . S
Co119 N175 2.257 . S
O120 Co118 2.143 . S
O120 Co119 2.160 . S
C121 O122 1.278 . S
C121 O129 1.224 . S
O122 C121 1.278 . S
C123 O124 1.245 . S
C123 O135 1.232 . S
O124 C123 1.245 . S
O125 Co119 2.058 . S
O125 C151 1.269 1_545 S
O126 Co118 2.074 . S
O126 C151 1.257 1_545 S
H127 C152 0.930 . S
H128 C158 0.930 . S
O129 Co118 2.093 . S
O129 C121 1.224 . S
H130 C162 0.929 . S
H131 C164 0.930 . S
H132 C165 0.930 . S
H133 C163 0.929 . S
H134 C166 0.929 . S
O135 Co119 2.057 . S
O135 C123 1.232 . S
H136 C155 0.929 . S
H137 C156 0.929 . S
H138 C168 0.931 . S
H139 C160 0.929 . S
H140 C169 0.930 . S
H141 C161 0.931 . S
O142 Co118 2.097 . S
O142 C170 1.214 . S
H143 C171 0.929 . S
H144 C172 0.929 . S
H145 C173 0.930 . S
H146 C174 0.929 . S
H147 C176 0.930 . S
H148 C153 0.930 . S
H149 C157 0.930 . S
O150 Co119 2.037 . S
O150 C170 1.234 . S
C151 O125 1.269 1_565 S
C151 O126 1.257 1_565 S
C152 H127 0.930 . S
C152 C155 1.388 . S
C152 C157 1.418 . S
C153 H148 0.930 . S
C153 C156 1.404 . S
C153 C157 1.353 . S
N154 Co119 2.145 . S
N154 C155 1.397 . S
N154 C156 1.334 . S
C155 H136 0.929 . S
C155 C152 1.388 . S
C155 N154 1.397 . S
C156 H137 0.929 . S
C156 C153 1.404 . S
C156 N154 1.334 . S
C157 H149 0.930 . S
C157 C152 1.418 . S
C157 C153 1.353 . S
C158 H128 0.930 . S
C158 N159 1.330 . S
C158 C160 1.446 . S
N159 Co118 2.151 1_565 S
N159 C158 1.330 . S
N159 C163 1.418 . S
C160 H139 0.929 . S
C160 C158 1.446 . S
C160 C161 1.332 . S
C161 H141 0.931 . S
C161 C160 1.332 . S
C161 C162 1.267 . S
C162 H130 0.929 . S
C162 C161 1.267 . S
C162 C163 1.251 . S
C163 H133 0.929 . S
C163 N159 1.418 . S
C163 C162 1.251 . S
C164 H131 0.930 . S
C164 C166 1.406 . S
C164 C169 1.261 . S
C165 H132 0.930 . S
C165 N167 1.325 . S
C165 C168 1.357 . S
C166 H134 0.929 . S
C166 C164 1.406 . S
C166 N167 1.260 1_565 S
N167 Co118 2.214 . S
N167 C165 1.325 . S
N167 C166 1.260 1_545 S
C168 H138 0.931 . S
C168 C165 1.357 . S
C168 C169 1.312 1_545 S
C169 H140 0.930 . S
C169 C164 1.261 . S
C169 C168 1.312 1_565 S
C170 O142 1.214 . S
C170 O150 1.234 . S
C171 H143 0.929 . S
C171 C174 1.391 . S
C171 C176 1.391 . S
C172 H144 0.929 . S
C172 C173 1.390 . S
C172 N175 1.391 . S
C173 H145 0.930 . S
C173 C172 1.390 . S
C173 C174 1.392 . S
C174 H146 0.929 . S
C174 C171 1.391 . S
C174 C173 1.392 . S
N175 Co119 2.257 . S
N175 C172 1.391 . S
N175 C176 1.388 . S
C176 H147 0.930 . S
C176 C171 1.391 . S
C176 N175 1.388 . S
Co177 O179 2.143 . S
Co177 O185 2.074 . S
Co177 O188 2.093 . S
Co177 O201 2.097 . S
Co177 N218 2.151 . S
Co177 N226 2.214 . S
Co178 O179 2.160 . S
Co178 O184 2.058 . S
Co178 O194 2.057 . S
Co178 O209 2.037 . S
Co178 N213 2.145 . S
Co178 N234 2.257 . S
O179 Co177 2.143 . S
O179 Co178 2.160 . S
C180 O181 1.278 . S
C180 O188 1.224 . S
O181 C180 1.278 . S
C182 O183 1.245 . S
C182 O194 1.232 . S
O183 C182 1.245 . S
O184 Co178 2.058 . S
O184 C210 1.269 . S
O185 Co177 2.074 . S
O185 C210 1.257 . S
H186 C211 0.930 . S
H187 C217 0.930 . S
O188 Co177 2.093 . S
O188 C180 1.224 . S
H189 C221 0.929 . S
H190 C223 0.930 . S
H191 C224 0.930 . S
H192 C222 0.929 . S
H193 C225 0.928 . S
O194 Co178 2.057 . S
O194 C182 1.232 . S
H195 C214 0.929 . S
H196 C215 0.929 . S
H197 C227 0.931 . S
H198 C219 0.929 . S
H199 C228 0.930 . S
H200 C220 0.931 . S
O201 Co177 2.097 . S
O201 C229 1.214 . S
H202 C230 0.929 . S
H203 C231 0.929 . S
H204 C232 0.930 . S
H205 C233 0.929 . S
H206 C235 0.930 . S
H207 C212 0.930 . S
H208 C216 0.930 . S
O209 Co178 2.037 . S
O209 C229 1.234 . S
C210 O184 1.269 . S
C210 O185 1.257 . S
C211 H186 0.930 . S
C211 C214 1.388 . S
C211 C216 1.418 . S
C212 H207 0.930 . S
C212 C215 1.404 . S
C212 C216 1.353 . S
N213 Co178 2.145 . S
N213 C214 1.397 . S
N213 C215 1.334 . S
C214 H195 0.929 . S
C214 C211 1.388 . S
C214 N213 1.397 . S
C215 H196 0.929 . S
C215 C212 1.404 . S
C215 N213 1.334 . S
C216 H208 0.930 . S
C216 C211 1.418 . S
C216 C212 1.353 . S
C217 H187 0.930 . S
C217 N218 1.330 . S
C217 C219 1.446 . S
N218 Co177 2.151 . S
N218 C217 1.330 . S
N218 C222 1.418 . S
C219 H198 0.929 . S
C219 C217 1.446 . S
C219 C220 1.332 . S
C220 H200 0.931 . S
C220 C219 1.332 . S
C220 C221 1.267 . S
C221 H189 0.929 . S
C221 C220 1.267 . S
C221 C222 1.251 . S
C222 H192 0.929 . S
C222 N218 1.418 . S
C222 C221 1.251 . S
C223 H190 0.930 . S
C223 C225 1.406 . S
C223 C228 1.261 . S
C224 H191 0.930 . S
C224 N226 1.325 . S
C224 C227 1.357 . S
C225 H193 0.928 . S
C225 C223 1.406 . S
C225 N226 1.261 . S
N226 Co177 2.214 . S
N226 C224 1.325 . S
N226 C225 1.261 . S
C227 H197 0.931 . S
C227 C224 1.357 . S
C227 C228 1.312 . S
C228 H199 0.930 . S
C228 C223 1.261 . S
C228 C227 1.312 . S
C229 O201 1.214 . S
C229 O209 1.234 . S
C230 H202 0.929 . S
C230 C233 1.391 . S
C230 C235 1.391 1_655 S
C231 H203 0.929 . S
C231 C232 1.390 . S
C231 N234 1.391 1_655 S
C232 H204 0.930 . S
C232 C231 1.390 . S
C232 C233 1.392 . S
C233 H205 0.929 . S
C233 C230 1.391 . S
C233 C232 1.392 . S
N234 Co178 2.257 . S
N234 C231 1.391 1_455 S
N234 C235 1.388 . S
C235 H206 0.930 . S
C235 C230 1.391 1_455 S
C235 N234 1.388 . S
Co236 O238 2.143 . S
Co236 O244 2.074 . S
Co236 O247 2.093 . S
Co236 O260 2.097 . S
Co236 N277 2.151 1_545 S
Co236 N285 2.214 . S
Co237 O238 2.160 . S
Co237 O243 2.058 . S
Co237 O253 2.057 . S
Co237 O268 2.037 . S
Co237 N272 2.145 . S
Co237 N293 2.257 . S
O238 Co236 2.143 . S
O238 Co237 2.160 . S
C239 O240 1.278 . S
C239 O247 1.224 . S
O240 C239 1.278 . S
C241 O242 1.245 . S
C241 O253 1.232 . S
O242 C241 1.245 . S
O243 Co237 2.058 . S
O243 C269 1.269 1_545 S
O244 Co236 2.074 . S
O244 C269 1.257 1_545 S
H245 C270 0.930 . S
H246 C276 0.930 . S
O247 Co236 2.093 . S
O247 C239 1.224 . S
H248 C280 0.929 . S
H249 C282 0.930 . S
H250 C283 0.930 . S
H251 C281 0.929 . S
H252 C284 0.929 . S
O253 Co237 2.057 . S
O253 C241 1.232 . S
H254 C273 0.929 . S
H255 C274 0.929 . S
H256 C286 0.931 . S
H257 C278 0.929 . S
H258 C287 0.930 . S
H259 C279 0.931 . S
O260 Co236 2.097 . S
O260 C288 1.214 . S
H261 C289 0.929 . S
H262 C290 0.929 . S
H263 C291 0.930 . S
H264 C292 0.929 . S
H265 C294 0.930 . S
H266 C271 0.930 . S
H267 C275 0.930 . S
O268 Co237 2.037 . S
O268 C288 1.234 . S
C269 O243 1.269 1_565 S
C269 O244 1.257 1_565 S
C270 H245 0.930 . S
C270 C273 1.388 . S
C270 C275 1.418 . S
C271 H266 0.930 . S
C271 C274 1.404 . S
C271 C275 1.353 . S
N272 Co237 2.145 . S
N272 C273 1.397 . S
N272 C274 1.334 . S
C273 H254 0.929 . S
C273 C270 1.388 . S
C273 N272 1.397 . S
C274 H255 0.929 . S
C274 C271 1.404 . S
C274 N272 1.334 . S
C275 H267 0.930 . S
C275 C270 1.418 . S
C275 C271 1.353 . S
C276 H246 0.930 . S
C276 N277 1.330 . S
C276 C278 1.446 . S
N277 Co236 2.151 1_565 S
N277 C276 1.330 . S
N277 C281 1.418 . S
C278 H257 0.929 . S
C278 C276 1.446 . S
C278 C279 1.332 . S
C279 H259 0.931 . S
C279 C278 1.332 . S
C279 C280 1.267 . S
C280 H248 0.929 . S
C280 C279 1.267 . S
C280 C281 1.251 . S
C281 H251 0.929 . S
C281 N277 1.418 . S
C281 C280 1.251 . S
C282 H249 0.930 . S
C282 C284 1.406 . S
C282 C287 1.261 . S
C283 H250 0.930 . S
C283 N285 1.325 . S
C283 C286 1.357 . S
C284 H252 0.929 . S
C284 C282 1.406 . S
C284 N285 1.260 1_565 S
N285 Co236 2.214 . S
N285 C283 1.325 . S
N285 C284 1.260 1_545 S
C286 H256 0.931 . S
C286 C283 1.357 . S
C286 C287 1.312 1_545 S
C287 H258 0.930 . S
C287 C282 1.261 . S
C287 C286 1.312 1_565 S
C288 O260 1.214 . S
C288 O268 1.234 . S
C289 H261 0.929 . S
C289 C292 1.391 . S
C289 C294 1.391 . S
C290 H262 0.929 . S
C290 C291 1.390 . S
C290 N293 1.391 . S
C291 H263 0.930 . S
C291 C290 1.390 . S
C291 C292 1.392 . S
C292 H264 0.929 . S
C292 C289 1.391 . S
C292 C291 1.392 . S
N293 Co237 2.257 . S
N293 C290 1.391 . S
N293 C294 1.388 . S
C294 H265 0.930 . S
C294 C289 1.391 . S
C294 N293 1.388 . S
Co295 O297 2.143 . S
Co295 O303 2.074 . S
Co295 O306 2.093 . S
Co295 O319 2.097 . S
Co295 N336 2.151 . S
Co295 N344 2.214 . S
Co296 O297 2.160 . S
Co296 O302 2.058 . S
Co296 O312 2.057 . S
Co296 O327 2.037 . S
Co296 N331 2.145 . S
Co296 N352 2.257 . S
O297 Co295 2.143 . S
O297 Co296 2.160 . S
C298 O299 1.278 . S
C298 O306 1.224 . S
O299 C298 1.278 . S
C300 O301 1.245 . S
C300 O312 1.232 . S
O301 C300 1.245 . S
O302 Co296 2.058 . S
O302 C328 1.269 . S
O303 Co295 2.074 . S
O303 C328 1.257 . S
H304 C329 0.930 . S
H305 C335 0.930 . S
O306 Co295 2.093 . S
O306 C298 1.224 . S
H307 C339 0.929 . S
H308 C341 0.930 . S
H309 C342 0.930 . S
H310 C340 0.929 . S
H311 C343 0.928 . S
O312 Co296 2.057 . S
O312 C300 1.232 . S
H313 C332 0.929 . S
H314 C333 0.929 . S
H315 C345 0.931 . S
H316 C337 0.929 . S
H317 C346 0.930 . S
H318 C338 0.931 . S
O319 Co295 2.097 . S
O319 C347 1.214 . S
H320 C348 0.929 . S
H321 C349 0.929 . S
H322 C350 0.930 . S
H323 C351 0.929 . S
H324 C353 0.930 . S
H325 C330 0.930 . S
H326 C334 0.930 . S
O327 Co296 2.037 . S
O327 C347 1.234 . S
C328 O302 1.269 . S
C328 O303 1.257 . S
C329 H304 0.930 . S
C329 C332 1.388 . S
C329 C334 1.418 . S
C330 H325 0.930 . S
C330 C333 1.404 . S
C330 C334 1.353 . S
N331 Co296 2.145 . S
N331 C332 1.397 . S
N331 C333 1.334 . S
C332 H313 0.929 . S
C332 C329 1.388 . S
C332 N331 1.397 . S
C333 H314 0.929 . S
C333 C330 1.404 . S
C333 N331 1.334 . S
C334 H326 0.930 . S
C334 C329 1.418 . S
C334 C330 1.353 . S
C335 H305 0.930 . S
C335 N336 1.330 . S
C335 C337 1.446 . S
N336 Co295 2.151 . S
N336 C335 1.330 . S
N336 C340 1.418 . S
C337 H316 0.929 . S
C337 C335 1.446 . S
C337 C338 1.332 . S
C338 H318 0.931 . S
C338 C337 1.332 . S
C338 C339 1.267 . S
C339 H307 0.929 . S
C339 C338 1.267 . S
C339 C340 1.251 . S
C340 H310 0.929 . S
C340 N336 1.418 . S
C340 C339 1.251 . S
C341 H308 0.930 . S
C341 C343 1.406 . S
C341 C346 1.261 . S
C342 H309 0.930 . S
C342 N344 1.325 . S
C342 C345 1.357 . S
C343 H311 0.928 . S
C343 C341 1.406 . S
C343 N344 1.261 . S
N344 Co295 2.214 . S
N344 C342 1.325 . S
N344 C343 1.261 . S
C345 H315 0.931 . S
C345 C342 1.357 . S
C345 C346 1.312 . S
C346 H317 0.930 . S
C346 C341 1.261 . S
C346 C345 1.312 . S
C347 O319 1.214 . S
C347 O327 1.234 . S
C348 H320 0.929 . S
C348 C351 1.391 . S
C348 C353 1.391 1_655 S
C349 H321 0.929 . S
C349 C350 1.390 . S
C349 N352 1.391 1_655 S
C350 H322 0.930 . S
C350 C349 1.390 . S
C350 C351 1.392 . S
C351 H323 0.929 . S
C351 C348 1.391 . S
C351 C350 1.392 . S
N352 Co296 2.257 . S
N352 C349 1.391 1_455 S
N352 C353 1.388 . S
C353 H324 0.930 . S
C353 C348 1.391 1_455 S
C353 N352 1.388 . S
Co354 O356 2.143 . S
Co354 O362 2.074 . S
Co354 O365 2.093 . S
Co354 O378 2.097 . S
Co354 N395 2.151 . S
Co354 N403 2.214 . S
Co355 O356 2.160 . S
Co355 O361 2.058 . S
Co355 O371 2.057 . S
Co355 O386 2.037 . S
Co355 N390 2.145 . S
Co355 N411 2.257 . S
O356 Co354 2.143 . S
O356 Co355 2.160 . S
C357 O358 1.278 . S
C357 O365 1.224 . S
O358 C357 1.278 . S
C359 O360 1.245 . S
C359 O371 1.232 . S
O360 C359 1.245 . S
O361 Co355 2.058 . S
O361 C387 1.269 . S
O362 Co354 2.074 . S
O362 C387 1.257 . S
H363 C388 0.930 . S
H364 C394 0.930 . S
O365 Co354 2.093 . S
O365 C357 1.224 . S
H366 C398 0.929 . S
H367 C400 0.930 . S
H368 C401 0.930 . S
H369 C399 0.929 . S
H370 C402 0.928 . S
O371 Co355 2.057 . S
O371 C359 1.232 . S
H372 C391 0.929 . S
H373 C392 0.929 . S
H374 C404 0.931 . S
H375 C396 0.929 . S
H376 C405 0.930 . S
H377 C397 0.931 . S
O378 Co354 2.097 . S
O378 C406 1.214 . S
H379 C407 0.929 . S
H380 C408 0.929 . S
H381 C409 0.930 . S
H382 C410 0.929 . S
H383 C412 0.930 . S
H384 C389 0.930 . S
H385 C393 0.930 . S
O386 Co355 2.037 . S
O386 C406 1.234 . S
C387 O361 1.269 . S
C387 O362 1.257 . S
C388 H363 0.930 . S
C388 C391 1.388 . S
C388 C393 1.418 . S
C389 H384 0.930 . S
C389 C392 1.404 . S
C389 C393 1.353 . S
N390 Co355 2.145 . S
N390 C391 1.397 . S
N390 C392 1.334 . S
C391 H372 0.929 . S
C391 C388 1.388 . S
C391 N390 1.397 . S
C392 H373 0.929 . S
C392 C389 1.404 . S
C392 N390 1.334 . S
C393 H385 0.930 . S
C393 C388 1.418 . S
C393 C389 1.353 . S
C394 H364 0.930 . S
C394 N395 1.330 . S
C394 C396 1.446 . S
N395 Co354 2.151 . S
N395 C394 1.330 . S
N395 C399 1.418 . S
C396 H375 0.929 . S
C396 C394 1.446 . S
C396 C397 1.332 . S
C397 H377 0.931 . S
C397 C396 1.332 . S
C397 C398 1.267 . S
C398 H366 0.929 . S
C398 C397 1.267 . S
C398 C399 1.251 . S
C399 H369 0.929 . S
C399 N395 1.418 . S
C399 C398 1.251 . S
C400 H367 0.930 . S
C400 C402 1.406 . S
C400 C405 1.261 . S
C401 H368 0.930 . S
C401 N403 1.325 . S
C401 C404 1.357 . S
C402 H370 0.928 . S
C402 C400 1.406 . S
C402 N403 1.261 . S
N403 Co354 2.214 . S
N403 C401 1.325 . S
N403 C402 1.261 . S
C404 H374 0.931 . S
C404 C401 1.357 . S
C404 C405 1.312 . S
C405 H376 0.930 . S
C405 C400 1.261 . S
C405 C404 1.312 . S
C406 O378 1.214 . S
C406 O386 1.234 . S
C407 H379 0.929 . S
C407 C410 1.391 . S
C407 C412 1.391 1_565 S
C408 H380 0.929 . S
C408 C409 1.390 . S
C408 N411 1.391 1_565 S
C409 H381 0.930 . S
C409 C408 1.390 . S
C409 C410 1.392 . S
C410 H382 0.929 . S
C410 C407 1.391 . S
C410 C409 1.392 . S
N411 Co355 2.257 . S
N411 C408 1.391 1_545 S
N411 C412 1.388 . S
C412 H383 0.930 . S
C412 C407 1.391 1_545 S
C412 N411 1.388 . S
Co413 O415 2.143 . S
Co413 O421 2.074 . S
Co413 O424 2.093 . S
Co413 O437 2.097 . S
Co413 N454 2.151 1_455 S
Co413 N462 2.214 . S
Co414 O415 2.160 . S
Co414 O420 2.058 . S
Co414 O430 2.057 . S
Co414 O445 2.037 . S
Co414 N449 2.145 . S
Co414 N470 2.257 . S
O415 Co413 2.143 . S
O415 Co414 2.160 . S
C416 O417 1.278 . S
C416 O424 1.224 . S
O417 C416 1.278 . S
C418 O419 1.245 . S
C418 O430 1.232 . S
O419 C418 1.245 . S
O420 Co414 2.058 . S
O420 C446 1.269 1_455 S
O421 Co413 2.074 . S
O421 C446 1.257 1_455 S
H422 C447 0.930 . S
H423 C453 0.930 . S
O424 Co413 2.093 . S
O424 C416 1.224 . S
H425 C457 0.929 . S
H426 C459 0.930 . S
H427 C460 0.930 . S
H428 C458 0.929 . S
H429 C461 0.929 . S
O430 Co414 2.057 . S
O430 C418 1.232 . S
H431 C450 0.929 . S
H432 C451 0.929 . S
H433 C463 0.931 . S
H434 C455 0.929 . S
H435 C464 0.930 . S
H436 C456 0.931 . S
O437 Co413 2.097 . S
O437 C465 1.214 . S
H438 C466 0.929 . S
H439 C467 0.929 . S
H440 C468 0.930 . S
H441 C469 0.929 . S
H442 C471 0.930 . S
H443 C448 0.930 . S
H444 C452 0.930 . S
O445 Co414 2.037 . S
O445 C465 1.234 . S
C446 O420 1.269 1_655 S
C446 O421 1.257 1_655 S
C447 H422 0.930 . S
C447 C450 1.388 . S
C447 C452 1.418 . S
C448 H443 0.930 . S
C448 C451 1.404 . S
C448 C452 1.353 . S
N449 Co414 2.145 . S
N449 C450 1.397 . S
N449 C451 1.334 . S
C450 H431 0.929 . S
C450 C447 1.388 . S
C450 N449 1.397 . S
C451 H432 0.929 . S
C451 C448 1.404 . S
C451 N449 1.334 . S
C452 H444 0.930 . S
C452 C447 1.418 . S
C452 C448 1.353 . S
C453 H423 0.930 . S
C453 N454 1.330 . S
C453 C455 1.446 . S
N454 Co413 2.151 1_655 S
N454 C453 1.330 . S
N454 C458 1.418 . S
C455 H434 0.929 . S
C455 C453 1.446 . S
C455 C456 1.332 . S
C456 H436 0.931 . S
C456 C455 1.332 . S
C456 C457 1.267 . S
C457 H425 0.929 . S
C457 C456 1.267 . S
C457 C458 1.251 . S
C458 H428 0.929 . S
C458 N454 1.418 . S
C458 C457 1.251 . S
C459 H426 0.930 . S
C459 C461 1.406 . S
C459 C464 1.261 . S
C460 H427 0.930 . S
C460 N462 1.325 . S
C460 C463 1.357 . S
C461 H429 0.929 . S
C461 C459 1.406 . S
C461 N462 1.260 1_655 S
N462 Co413 2.214 . S
N462 C460 1.325 . S
N462 C461 1.260 1_455 S
C463 H433 0.931 . S
C463 C460 1.357 . S
C463 C464 1.312 1_455 S
C464 H435 0.930 . S
C464 C459 1.261 . S
C464 C463 1.312 1_655 S
C465 O437 1.214 . S
C465 O445 1.234 . S
C466 H438 0.929 . S
C466 C469 1.391 . S
C466 C471 1.391 . S
C467 H439 0.929 . S
C467 C468 1.390 . S
C467 N470 1.391 . S
C468 H440 0.930 . S
C468 C467 1.390 . S
C468 C469 1.392 . S
C469 H441 0.929 . S
C469 C466 1.391 . S
C469 C468 1.392 . S
N470 Co414 2.257 . S
N470 C467 1.391 . S
N470 C471 1.388 . S
C471 H442 0.930 . S
C471 C466 1.391 . S
C471 N470 1.388 . S
C472 C473 1.349 . S
C472 C474 1.327 . S
C472 H497 0.950 . S
C473 C472 1.349 . S
C473 C489 1.349 . S
C474 C472 1.327 . S
C474 C493 1.429 . S
C474 H498 0.950 . S
C475 C492 1.574 1_554 S
C475 C494 1.368 . S
C475 H499 0.949 . S
H476 C480 0.949 . S
C477 C478 1.349 . S
C477 C479 1.327 . S
C477 H500 0.950 . S
C478 C477 1.349 . S
C478 C490 1.349 . S
C479 C477 1.327 . S
C479 C495 1.429 . S
C479 H501 0.950 . S
C480 H476 0.949 . S
C480 C488 1.574 1_556 S
C480 C496 1.368 . S
H481 C489 0.950 . S
H482 C487 0.950 . S
H483 C488 0.949 . S
H484 C490 0.950 . S
H485 C491 0.950 . S
H486 C492 0.949 . S
C487 H482 0.950 . S
C487 C489 1.327 . S
C487 C493 1.429 . S
C488 C480 1.574 1_554 S
C488 H483 0.949 . S
C488 C494 1.368 . S
C489 C473 1.349 . S
C489 H481 0.950 . S
C489 C487 1.327 . S
C490 C478 1.349 . S
C490 H484 0.950 . S
C490 C491 1.327 . S
C491 H485 0.950 . S
C491 C490 1.327 . S
C491 C495 1.429 . S
C492 C475 1.574 1_556 S
C492 H486 0.949 . S
C492 C496 1.368 . S
C493 C474 1.429 . S
C493 C487 1.429 . S
C493 C494 1.523 . S
C494 C475 1.368 . S
C494 C488 1.368 . S
C494 C493 1.523 . S
C495 C479 1.429 . S
C495 C491 1.429 . S
C495 C496 1.523 . S
C496 C480 1.368 . S
C496 C492 1.368 . S
C496 C495 1.523 . S
H497 C472 0.950 . S
H498 C474 0.950 . S
H499 C475 0.949 . S
H500 C477 0.950 . S
H501 C479 0.950 . S
C502 C503 1.349 . S
C502 C504 1.327 . S
C502 H527 0.950 . S
C503 C502 1.349 . S
C503 C519 1.349 . S
C504 C502 1.327 . S
C504 C523 1.429 . S
C504 H528 0.950 . S
C505 C522 1.574 . S
C505 C524 1.368 . S
C505 H529 0.949 . S
H506 C510 0.949 . S
C507 C508 1.349 . S
C507 C509 1.327 . S
C507 H530 0.950 . S
C508 C507 1.349 . S
C508 C520 1.349 . S
C509 C507 1.327 . S
C509 C525 1.429 . S
C509 H531 0.950 . S
C510 H506 0.949 . S
C510 C518 1.574 . S
C510 C526 1.368 . S
H511 C519 0.950 . S
H512 C517 0.950 . S
H513 C518 0.949 . S
H514 C520 0.950 . S
H515 C521 0.950 . S
H516 C522 0.949 . S
C517 H512 0.950 . S
C517 C519 1.327 . S
C517 C523 1.429 . S
C518 C510 1.574 . S
C518 H513 0.949 . S
C518 C524 1.368 . S
C519 C503 1.349 . S
C519 H511 0.950 . S
C519 C517 1.327 . S
C520 C508 1.349 . S
C520 H514 0.950 . S
C520 C521 1.327 . S
C521 H515 0.950 . S
C521 C520 1.327 . S
C521 C525 1.429 . S
C522 C505 1.574 . S
C522 H516 0.949 . S
C522 C526 1.368 . S
C523 C504 1.429 . S
C523 C517 1.429 . S
C523 C524 1.523 . S
C524 C505 1.368 . S
C524 C518 1.368 . S
C524 C523 1.523 . S
C525 C509 1.429 . S
C525 C521 1.429 . S
C525 C526 1.523 . S
C526 C510 1.368 . S
C526 C522 1.368 . S
C526 C525 1.523 . S
H527 C502 0.950 . S
H528 C504 0.950 . S
H529 C505 0.949 . S
H530 C507 0.950 . S
H531 C509 0.950 . S
C532 C533 1.349 . S
C532 C534 1.327 . S
C532 H557 0.950 . S
C533 C532 1.349 . S
C533 C549 1.349 . S
C534 C532 1.327 . S
C534 C553 1.429 . S
C534 H558 0.950 . S
C535 C552 1.574 1_556 S
C535 C554 1.368 . S
C535 H559 0.949 . S
H536 C540 0.949 . S
C537 C538 1.349 . S
C537 C539 1.327 . S
C537 H560 0.950 . S
C538 C537 1.349 . S
C538 C550 1.349 . S
C539 C537 1.327 . S
C539 C555 1.429 . S
C539 H561 0.950 . S
C540 H536 0.949 . S
C540 C548 1.574 1_554 S
C540 C556 1.368 . S
H541 C549 0.950 . S
H542 C547 0.950 . S
H543 C548 0.949 . S
H544 C550 0.950 . S
H545 C551 0.950 . S
H546 C552 0.949 . S
C547 H542 0.950 . S
C547 C549 1.327 . S
C547 C553 1.429 . S
C548 C540 1.574 1_556 S
C548 H543 0.949 . S
C548 C554 1.368 . S
C549 C533 1.349 . S
C549 H541 0.950 . S
C549 C547 1.327 . S
C550 C538 1.349 . S
C550 H544 0.950 . S
C550 C551 1.327 . S
C551 H545 0.950 . S
C551 C550 1.327 . S
C551 C555 1.429 . S
C552 C535 1.574 1_554 S
C552 H546 0.949 . S
C552 C556 1.368 . S
C553 C534 1.429 . S
C553 C547 1.429 . S
C553 C554 1.523 . S
C554 C535 1.368 . S
C554 C548 1.368 . S
C554 C553 1.523 . S
C555 C539 1.429 . S
C555 C551 1.429 . S
C555 C556 1.523 . S
C556 C540 1.368 . S
C556 C552 1.368 . S
C556 C555 1.523 . S
H557 C532 0.950 . S
H558 C534 0.950 . S
H559 C535 0.949 . S
H560 C537 0.950 . S
H561 C539 0.950 . S
C562 C563 1.349 . S
C562 C564 1.327 . S
C562 H587 0.950 . S
C563 C562 1.349 . S
C563 C579 1.349 . S
C564 C562 1.327 . S
C564 C583 1.429 . S
C564 H588 0.950 . S
C565 C582 1.574 . S
C565 C584 1.368 . S
C565 H589 0.949 . S
H566 C570 0.949 . S
C567 C568 1.349 . S
C567 C569 1.327 . S
C567 H590 0.950 . S
C568 C567 1.349 . S
C568 C580 1.349 . S
C569 C567 1.327 . S
C569 C585 1.429 . S
C569 H591 0.950 . S
C570 H566 0.949 . S
C570 C578 1.574 . S
C570 C586 1.368 . S
H571 C579 0.950 . S
H572 C577 0.950 . S
H573 C578 0.949 . S
H574 C580 0.950 . S
H575 C581 0.950 . S
H576 C582 0.949 . S
C577 H572 0.950 . S
C577 C579 1.327 . S
C577 C583 1.429 . S
C578 C570 1.574 . S
C578 H573 0.949 . S
C578 C584 1.368 . S
C579 C563 1.349 . S
C579 H571 0.950 . S
C579 C577 1.327 . S
C580 C568 1.349 . S
C580 H574 0.950 . S
C580 C581 1.327 . S
C581 H575 0.950 . S
C581 C580 1.327 . S
C581 C585 1.429 . S
C582 C565 1.574 . S
C582 H576 0.949 . S
C582 C586 1.368 . S
C583 C564 1.429 . S
C583 C577 1.429 . S
C583 C584 1.523 . S
C584 C565 1.368 . S
C584 C578 1.368 . S
C584 C583 1.523 . S
C585 C569 1.429 . S
C585 C581 1.429 . S
C585 C586 1.523 . S
C586 C570 1.368 . S
C586 C582 1.368 . S
C586 C585 1.523 . S
H587 C562 0.950 . S
H588 C564 0.950 . S
H589 C565 0.949 . S
H590 C567 0.950 . S
H591 C569 0.950 . S
C592 C593 1.349 . S
C592 C594 1.327 . S
C592 H617 0.950 . S
C593 C592 1.349 . S
C593 C609 1.349 . S
C594 C592 1.327 . S
C594 C613 1.429 . S
C594 H618 0.950 . S
C595 C612 1.574 . S
C595 C614 1.368 . S
C595 H619 0.949 . S
H596 C600 0.949 . S
C597 C598 1.349 . S
C597 C599 1.327 . S
C597 H620 0.950 . S
C598 C597 1.349 . S
C598 C610 1.349 . S
C599 C597 1.327 . S
C599 C615 1.429 . S
C599 H621 0.950 . S
C600 H596 0.949 . S
C600 C608 1.574 . S
C600 C616 1.368 . S
H601 C609 0.950 . S
H602 C607 0.950 . S
H603 C608 0.949 . S
H604 C610 0.950 . S
H605 C611 0.950 . S
H606 C612 0.949 . S
C607 H602 0.950 . S
C607 C609 1.327 . S
C607 C613 1.429 . S
C608 C600 1.574 . S
C608 H603 0.949 . S
C608 C614 1.368 . S
C609 C593 1.349 . S
C609 H601 0.950 . S
C609 C607 1.327 . S
C610 C598 1.349 . S
C610 H604 0.950 . S
C610 C611 1.327 . S
C611 H605 0.950 . S
C611 C610 1.327 . S
C611 C615 1.429 . S
C612 C595 1.574 . S
C612 H606 0.949 . S
C612 C616 1.368 . S
C613 C594 1.429 . S
C613 C607 1.429 . S
C613 C614 1.523 . S
C614 C595 1.368 . S
C614 C608 1.368 . S
C614 C613 1.523 . S
C615 C599 1.429 . S
C615 C611 1.429 . S
C615 C616 1.523 . S
C616 C600 1.368 . S
C616 C612 1.368 . S
C616 C615 1.523 . S
H617 C592 0.950 . S
H618 C594 0.950 . S
H619 C595 0.949 . S
H620 C597 0.950 . S
H621 C599 0.950 . S
C622 C623 1.349 . S
C622 C624 1.327 . S
C622 H647 0.950 . S
C623 C622 1.349 . S
C623 C639 1.349 . S
C624 C622 1.327 . S
C624 C643 1.429 . S
C624 H648 0.950 . S
C625 C642 1.574 . S
C625 C644 1.368 . S
C625 H649 0.949 . S
H626 C630 0.949 . S
C627 C628 1.349 . S
C627 C629 1.327 . S
C627 H650 0.950 . S
C628 C627 1.349 . S
C628 C640 1.349 . S
C629 C627 1.327 . S
C629 C645 1.429 . S
C629 H651 0.950 . S
C630 H626 0.949 . S
C630 C638 1.574 . S
C630 C646 1.368 . S
H631 C639 0.950 . S
H632 C637 0.950 . S
H633 C638 0.949 . S
H634 C640 0.950 . S
H635 C641 0.950 . S
H636 C642 0.949 . S
C637 H632 0.950 . S
C637 C639 1.327 . S
C637 C643 1.429 . S
C638 C630 1.574 . S
C638 H633 0.949 . S
C638 C644 1.368 . S
C639 C623 1.349 . S
C639 H631 0.950 . S
C639 C637 1.327 . S
C640 C628 1.349 . S
C640 H634 0.950 . S
C640 C641 1.327 . S
C641 H635 0.950 . S
C641 C640 1.327 . S
C641 C645 1.429 . S
C642 C625 1.574 . S
C642 H636 0.949 . S
C642 C646 1.368 . S
C643 C624 1.429 . S
C643 C637 1.429 . S
C643 C644 1.523 . S
C644 C625 1.368 . S
C644 C638 1.368 . S
C644 C643 1.523 . S
C645 C629 1.429 . S
C645 C641 1.429 . S
C645 C646 1.523 . S
C646 C630 1.368 . S
C646 C642 1.368 . S
C646 C645 1.523 . S
H647 C622 0.950 . S
H648 C624 0.950 . S
H649 C625 0.949 . S
H650 C627 0.950 . S
H651 C629 0.950 . S
C652 C653 1.349 . S
C652 C654 1.327 . S
C652 H677 0.950 . S
C653 C652 1.349 . S
C653 C669 1.349 . S
C654 C652 1.327 . S
C654 C673 1.429 . S
C654 H678 0.950 . S
C655 C672 1.574 . S
C655 C674 1.368 . S
C655 H679 0.949 . S
H656 C660 0.949 . S
C657 C658 1.349 . S
C657 C659 1.327 . S
C657 H680 0.950 . S
C658 C657 1.349 . S
C658 C670 1.349 . S
C659 C657 1.327 . S
C659 C675 1.429 . S
C659 H681 0.950 . S
C660 H656 0.949 . S
C660 C668 1.574 . S
C660 C676 1.368 . S
H661 C669 0.950 . S
H662 C667 0.950 . S
H663 C668 0.949 . S
H664 C670 0.950 . S
H665 C671 0.950 . S
H666 C672 0.949 . S
C667 H662 0.950 . S
C667 C669 1.327 . S
C667 C673 1.429 . S
C668 C660 1.574 . S
C668 H663 0.949 . S
C668 C674 1.368 . S
C669 C653 1.349 . S
C669 H661 0.950 . S
C669 C667 1.327 . S
C670 C658 1.349 . S
C670 H664 0.950 . S
C670 C671 1.327 . S
C671 H665 0.950 . S
C671 C670 1.327 . S
C671 C675 1.429 . S
C672 C655 1.574 . S
C672 H666 0.949 . S
C672 C676 1.368 . S
C673 C654 1.429 . S
C673 C667 1.429 . S
C673 C674 1.523 . S
C674 C655 1.368 . S
C674 C668 1.368 . S
C674 C673 1.523 . S
C675 C659 1.429 . S
C675 C671 1.429 . S
C675 C676 1.523 . S
C676 C660 1.368 . S
C676 C672 1.368 . S
C676 C675 1.523 . S
H677 C652 0.950 . S
H678 C654 0.950 . S
H679 C655 0.949 . S
H680 C657 0.950 . S
H681 C659 0.950 . S
C682 C683 1.349 . S
C682 C684 1.327 . S
C682 H707 0.950 . S
C683 C682 1.349 . S
C683 C699 1.349 . S
C684 C682 1.327 . S
C684 C703 1.429 . S
C684 H708 0.950 . S
C685 C702 1.574 . S
C685 C704 1.368 . S
C685 H709 0.949 . S
H686 C690 0.949 . S
C687 C688 1.349 . S
C687 C689 1.327 . S
C687 H710 0.950 . S
C688 C687 1.349 . S
C688 C700 1.349 . S
C689 C687 1.327 . S
C689 C705 1.429 . S
C689 H711 0.950 . S
C690 H686 0.949 . S
C690 C698 1.574 . S
C690 C706 1.368 . S
H691 C699 0.950 . S
H692 C697 0.950 . S
H693 C698 0.949 . S
H694 C700 0.950 . S
H695 C701 0.950 . S
H696 C702 0.949 . S
C697 H692 0.950 . S
C697 C699 1.327 . S
C697 C703 1.429 . S
C698 C690 1.574 . S
C698 H693 0.949 . S
C698 C704 1.368 . S
C699 C683 1.349 . S
C699 H691 0.950 . S
C699 C697 1.327 . S
C700 C688 1.349 . S
C700 H694 0.950 . S
C700 C701 1.327 . S
C701 H695 0.950 . S
C701 C700 1.327 . S
C701 C705 1.429 . S
C702 C685 1.574 . S
C702 H696 0.949 . S
C702 C706 1.368 . S
C703 C684 1.429 . S
C703 C697 1.429 . S
C703 C704 1.523 . S
C704 C685 1.368 . S
C704 C698 1.368 . S
C704 C703 1.523 . S
C705 C689 1.429 . S
C705 C701 1.429 . S
C705 C706 1.523 . S
C706 C690 1.368 . S
C706 C702 1.368 . S
C706 C705 1.523 . S
H707 C682 0.950 . S
H708 C684 0.950 . S
H709 C685 0.949 . S
H710 C687 0.950 . S
H711 C689 0.950 . S
C712 C713 1.349 . S
C712 C714 1.327 . S
C712 H737 0.950 . S
C713 C712 1.349 . S
C713 C729 1.349 . S
C714 C712 1.327 . S
C714 C733 1.429 . S
C714 H738 0.950 . S
C715 C732 1.574 . S
C715 C734 1.368 . S
C715 H739 0.949 . S
H716 C720 0.949 . S
C717 C718 1.349 . S
C717 C719 1.327 . S
C717 H740 0.950 . S
C718 C717 1.349 . S
C718 C730 1.349 . S
C719 C717 1.327 . S
C719 C735 1.429 . S
C719 H741 0.950 . S
C720 H716 0.949 . S
C720 C728 1.574 . S
C720 C736 1.368 . S
H721 C729 0.950 . S
H722 C727 0.950 . S
H723 C728 0.949 . S
H724 C730 0.950 . S
H725 C731 0.950 . S
H726 C732 0.949 . S
C727 H722 0.950 . S
C727 C729 1.327 . S
C727 C733 1.429 . S
C728 C720 1.574 . S
C728 H723 0.949 . S
C728 C734 1.368 . S
C729 C713 1.349 . S
C729 H721 0.950 . S
C729 C727 1.327 . S
C730 C718 1.349 . S
C730 H724 0.950 . S
C730 C731 1.327 . S
C731 H725 0.950 . S
C731 C730 1.327 . S
C731 C735 1.429 . S
C732 C715 1.574 . S
C732 H726 0.949 . S
C732 C736 1.368 . S
C733 C714 1.429 . S
C733 C727 1.429 . S
C733 C734 1.523 . S
C734 C715 1.368 . S
C734 C728 1.368 . S
C734 C733 1.523 . S
C735 C719 1.429 . S
C735 C731 1.429 . S
C735 C736 1.523 . S
C736 C720 1.368 . S
C736 C732 1.368 . S
C736 C735 1.523 . S
H737 C712 0.950 . S
H738 C714 0.950 . S
H739 C715 0.949 . S
H740 C717 0.950 . S
H741 C719 0.950 . S
C742 C743 1.349 . S
C742 C744 1.327 . S
C742 H767 0.950 . S
C743 C742 1.349 . S
C743 C759 1.349 . S
C744 C742 1.327 . S
C744 C763 1.429 . S
C744 H768 0.950 . S
C745 C762 1.574 . S
C745 C764 1.368 . S
C745 H769 0.949 . S
H746 C750 0.949 . S
C747 C748 1.349 . S
C747 C749 1.327 . S
C747 H770 0.950 . S
C748 C747 1.349 . S
C748 C760 1.349 . S
C749 C747 1.327 . S
C749 C765 1.429 . S
C749 H771 0.950 . S
C750 H746 0.949 . S
C750 C758 1.574 . S
C750 C766 1.368 . S
H751 C759 0.950 1_455 S
H752 C757 0.950 . S
H753 C758 0.949 . S
H754 C760 0.950 . S
H755 C761 0.950 . S
H756 C762 0.949 . S
C757 H752 0.950 . S
C757 C759 1.327 . S
C757 C763 1.429 . S
C758 C750 1.574 . S
C758 H753 0.949 . S
C758 C764 1.368 . S
C759 C743 1.349 . S
C759 H751 0.950 1_655 S
C759 C757 1.327 . S
C760 C748 1.349 . S
C760 H754 0.950 . S
C760 C761 1.327 . S
C761 H755 0.950 . S
C761 C760 1.327 . S
C761 C765 1.429 . S
C762 C745 1.574 . S
C762 H756 0.949 . S
C762 C766 1.368 . S
C763 C744 1.429 . S
C763 C757 1.429 . S
C763 C764 1.523 . S
C764 C745 1.368 . S
C764 C758 1.368 . S
C764 C763 1.523 . S
C765 C749 1.429 . S
C765 C761 1.429 . S
C765 C766 1.523 . S
C766 C750 1.368 . S
C766 C762 1.368 . S
C766 C765 1.523 . S
H767 C742 0.950 . S
H768 C744 0.950 . S
H769 C745 0.949 . S
H770 C747 0.950 . S
H771 C749 0.950 . S
C772 C773 1.349 . S
C772 C774 1.327 . S
C772 H797 0.950 . S
C773 C772 1.349 . S
C773 C789 1.349 . S
C774 C772 1.327 . S
C774 C793 1.429 . S
C774 H798 0.950 . S
C775 C792 1.574 . S
C775 C794 1.368 . S
C775 H799 0.949 . S
H776 C780 0.949 . S
C777 C778 1.349 . S
C777 C779 1.327 . S
C777 H800 0.950 1_565 S
C778 C777 1.349 . S
C778 C790 1.349 . S
C779 C777 1.327 . S
C779 C795 1.429 . S
C779 H801 0.950 . S
C780 H776 0.949 . S
C780 C788 1.574 . S
C780 C796 1.368 . S
H781 C789 0.950 1_455 S
H782 C787 0.950 . S
H783 C788 0.949 . S
H784 C790 0.950 . S
H785 C791 0.950 . S
H786 C792 0.949 . S
C787 H782 0.950 . S
C787 C789 1.327 . S
C787 C793 1.429 . S
C788 C780 1.574 . S
C788 H783 0.949 . S
C788 C794 1.368 . S
C789 C773 1.349 . S
C789 H781 0.950 1_655 S
C789 C787 1.327 . S
C790 C778 1.349 . S
C790 H784 0.950 . S
C790 C791 1.327 . S
C791 H785 0.950 . S
C791 C790 1.327 . S
C791 C795 1.429 . S
C792 C775 1.574 . S
C792 H786 0.949 . S
C792 C796 1.368 . S
C793 C774 1.429 . S
C793 C787 1.429 . S
C793 C794 1.523 . S
C794 C775 1.368 . S
C794 C788 1.368 . S
C794 C793 1.523 . S
C795 C779 1.429 . S
C795 C791 1.429 . S
C795 C796 1.523 . S
C796 C780 1.368 . S
C796 C792 1.368 . S
C796 C795 1.523 . S
H797 C772 0.950 . S
H798 C774 0.950 . S
H799 C775 0.949 . S
H800 C777 0.950 1_545 S
H801 C779 0.950 . S
C802 C803 1.349 . S
C802 C804 1.327 . S
C802 H827 0.950 . S
C803 C802 1.349 . S
C803 C819 1.349 . S
C804 C802 1.327 . S
C804 C823 1.429 . S
C804 H828 0.950 . S
C805 C822 1.574 . S
C805 C824 1.368 . S
C805 H829 0.949 . S
H806 C810 0.949 . S
C807 C808 1.349 . S
C807 C809 1.327 . S
C807 H830 0.950 . S
C808 C807 1.349 . S
C808 C820 1.349 . S
C809 C807 1.327 . S
C809 C825 1.429 . S
C809 H831 0.950 . S
C810 H806 0.949 . S
C810 C818 1.574 . S
C810 C826 1.368 . S
H811 C819 0.950 . S
H812 C817 0.950 . S
H813 C818 0.949 . S
H814 C820 0.950 1_545 S
H815 C821 0.950 . S
H816 C822 0.949 . S
C817 H812 0.950 . S
C817 C819 1.327 . S
C817 C823 1.429 . S
C818 C810 1.574 . S
C818 H813 0.949 . S
C818 C824 1.368 . S
C819 C803 1.349 . S
C819 H811 0.950 . S
C819 C817 1.327 . S
C820 C808 1.349 . S
C820 H814 0.950 1_565 S
C820 C821 1.327 . S
C821 H815 0.950 . S
C821 C820 1.327 . S
C821 C825 1.429 . S
C822 C805 1.574 . S
C822 H816 0.949 . S
C822 C826 1.368 . S
C823 C804 1.429 . S
C823 C817 1.429 . S
C823 C824 1.523 . S
C824 C805 1.368 . S
C824 C818 1.368 . S
C824 C823 1.523 . S
C825 C809 1.429 . S
C825 C821 1.429 . S
C825 C826 1.523 . S
C826 C810 1.368 . S
C826 C822 1.368 . S
C826 C825 1.523 . S
H827 C802 0.950 . S
H828 C804 0.950 . S
H829 C805 0.949 . S
H830 C807 0.950 . S
H831 C809 0.950 . S
C832 C833 1.349 . S
C832 C834 1.327 . S
C832 H857 0.950 . S
C833 C832 1.349 . S
C833 C849 1.349 1_545 S
C834 C832 1.327 . S
C834 C853 1.429 1_545 S
C834 H858 0.950 . S
C835 C852 1.574 . S
C835 C854 1.368 . S
C835 H859 0.949 . S
H836 C840 0.949 . S
C837 C838 1.349 1_655 S
C837 C839 1.327 . S
C837 H860 0.950 . S
C838 C837 1.349 1_455 S
C838 C850 1.349 . S
C839 C837 1.327 . S
C839 C855 1.429 . S
C839 H861 0.950 . S
C840 H836 0.949 . S
C840 C848 1.574 . S
C840 C856 1.368 . S
H841 C849 0.950 . S
H842 C847 0.950 . S
H843 C848 0.949 . S
H844 C850 0.950 . S
H845 C851 0.950 . S
H846 C852 0.949 . S
C847 H842 0.950 . S
C847 C849 1.327 . S
C847 C853 1.429 . S
C848 C840 1.574 . S
C848 H843 0.949 . S
C848 C854 1.368 . S
C849 C833 1.349 1_565 S
C849 H841 0.950 . S
C849 C847 1.327 . S
C850 C838 1.349 . S
C850 H844 0.950 . S
C850 C851 1.327 . S
C851 H845 0.950 . S
C851 C850 1.327 . S
C851 C855 1.429 1_455 S
C852 C835 1.574 . S
C852 H846 0.949 . S
C852 C856 1.368 . S
C853 C834 1.429 1_565 S
C853 C847 1.429 . S
C853 C854 1.523 . S
C854 C835 1.368 . S
C854 C848 1.368 . S
C854 C853 1.523 . S
C855 C839 1.429 . S
C855 C851 1.429 1_655 S
C855 C856 1.523 . S
C856 C840 1.368 . S
C856 C852 1.368 . S
C856 C855 1.523 . S
H857 C832 0.950 . S
H858 C834 0.950 . S
H859 C835 0.949 . S
H860 C837 0.950 . S
H861 C839 0.950 . S
C862 C863 1.349 1_565 S
C862 C864 1.327 . S
C862 H887 0.950 . S
C863 C862 1.349 1_545 S
C863 C879 1.349 . S
C864 C862 1.327 . S
C864 C883 1.429 . S
C864 H888 0.950 . S
C865 C882 1.574 . S
C865 C884 1.368 . S
C865 H889 0.949 . S
H866 C870 0.949 . S
C867 C868 1.349 . S
C867 C869 1.327 . S
C867 H890 0.950 . S
C868 C867 1.349 . S
C868 C880 1.349 . S
C869 C867 1.327 . S
C869 C885 1.429 . S
C869 H891 0.950 . S
C870 H866 0.949 . S
C870 C878 1.574 . S
C870 C886 1.368 . S
H871 C879 0.950 . S
H872 C877 0.950 . S
H873 C878 0.949 . S
H874 C880 0.950 . S
H875 C881 0.950 . S
H876 C882 0.949 . S
C877 H872 0.950 . S
C877 C879 1.327 . S
C877 C883 1.429 1_545 S
C878 C870 1.574 . S
C878 H873 0.949 . S
C878 C884 1.368 . S
C879 C863 1.349 . S
C879 H871 0.950 . S
C879 C877 1.327 . S
C880 C868 1.349 . S
C880 H874 0.950 . S
C880 C881 1.327 . S
C881 H875 0.950 . S
C881 C880 1.327 . S
C881 C885 1.429 . S
C882 C865 1.574 . S
C882 H876 0.949 . S
C882 C886 1.368 . S
C883 C864 1.429 . S
C883 C877 1.429 1_565 S
C883 C884 1.523 . S
C884 C865 1.368 . S
C884 C878 1.368 . S
C884 C883 1.523 . S
C885 C869 1.429 . S
C885 C881 1.429 . S
C885 C886 1.523 . S
C886 C870 1.368 . S
C886 C882 1.368 . S
C886 C885 1.523 . S
H887 C862 0.950 . S
H888 C864 0.950 . S
H889 C865 0.949 . S
H890 C867 0.950 . S
H891 C869 0.950 . S
C892 C893 1.349 . S
C892 C894 1.327 . S
C892 H917 0.950 . S
C893 C892 1.349 . S
C893 C909 1.349 . S
C894 C892 1.327 . S
C894 C913 1.429 . S
C894 H918 0.950 . S
C895 C912 1.574 . S
C895 C914 1.368 . S
C895 H919 0.949 . S
H896 C900 0.949 . S
C897 C898 1.349 . S
C897 C899 1.327 . S
C897 H920 0.950 . S
C898 C897 1.349 . S
C898 C910 1.349 . S
C899 C897 1.327 . S
C899 C915 1.429 . S
C899 H921 0.950 . S
C900 H896 0.949 . S
C900 C908 1.574 . S
C900 C916 1.368 . S
H901 C909 0.950 . S
H902 C907 0.950 . S
H903 C908 0.949 . S
H904 C910 0.950 . S
H905 C911 0.950 . S
H906 C912 0.949 . S
C907 H902 0.950 . S
C907 C909 1.327 . S
C907 C913 1.429 . S
C908 C900 1.574 . S
C908 H903 0.949 . S
C908 C914 1.368 . S
C909 C893 1.349 . S
C909 H901 0.950 . S
C909 C907 1.327 . S
C910 C898 1.349 . S
C910 H904 0.950 . S
C910 C911 1.327 . S
C911 H905 0.950 . S
C911 C910 1.327 . S
C911 C915 1.429 . S
C912 C895 1.574 . S
C912 H906 0.949 . S
C912 C916 1.368 . S
C913 C894 1.429 . S
C913 C907 1.429 . S
C913 C914 1.523 . S
C914 C895 1.368 . S
C914 C908 1.368 . S
C914 C913 1.523 . S
C915 C899 1.429 . S
C915 C911 1.429 . S
C915 C916 1.523 . S
C916 C900 1.368 . S
C916 C912 1.368 . S
C916 C915 1.523 . S
H917 C892 0.950 . S
H918 C894 0.950 . S
H919 C895 0.949 . S
H920 C897 0.950 . S
H921 C899 0.950 . S
C922 C923 1.349 1_655 S
C922 C924 1.327 . S
C922 H947 0.950 . S
C923 C922 1.349 1_455 S
C923 C939 1.349 . S
C924 C922 1.327 . S
C924 C943 1.429 . S
C924 H948 0.950 . S
C925 C942 1.574 . S
C925 C944 1.368 . S
C925 H949 0.949 . S
H926 C930 0.949 . S
C927 C928 1.349 . S
C927 C929 1.327 . S
C927 H950 0.950 . S
C928 C927 1.349 . S
C928 C940 1.349 . S
C929 C927 1.327 . S
C929 C945 1.429 . S
C929 H951 0.950 . S
C930 H926 0.949 . S
C930 C938 1.574 . S
C930 C946 1.368 . S
H931 C939 0.950 . S
H932 C937 0.950 . S
H933 C938 0.949 . S
H934 C940 0.950 . S
H935 C941 0.950 . S
H936 C942 0.949 . S
C937 H932 0.950 . S
C937 C939 1.327 . S
C937 C943 1.429 1_455 S
C938 C930 1.574 . S
C938 H933 0.949 . S
C938 C944 1.368 . S
C939 C923 1.349 . S
C939 H931 0.950 . S
C939 C937 1.327 . S
C940 C928 1.349 . S
C940 H934 0.950 . S
C940 C941 1.327 . S
C941 H935 0.950 . S
C941 C940 1.327 . S
C941 C945 1.429 . S
C942 C925 1.574 . S
C942 H936 0.949 . S
C942 C946 1.368 . S
C943 C924 1.429 . S
C943 C937 1.429 1_655 S
C943 C944 1.523 . S
C944 C925 1.368 . S
C944 C938 1.368 . S
C944 C943 1.523 . S
C945 C929 1.429 . S
C945 C941 1.429 . S
C945 C946 1.523 . S
C946 C930 1.368 . S
C946 C942 1.368 . S
C946 C945 1.523 . S
H947 C922 0.950 . S
H948 C924 0.950 . S
H949 C925 0.949 . S
H950 C927 0.950 . S
H951 C929 0.950 . S
C473 C3 1.557 . S
C478 C239 1.557 . S
C503 C62 1.557 . S
C508 C298 1.557 . S
C533 C357 1.557 . S
C538 C121 1.557 . S
C563 C416 1.557 . S
C568 C180 1.557 . S
C593 C5 1.483 . S
C598 C123 1.483 . S
C623 C64 1.483 . S
C628 C182 1.483 . S
C653 C359 1.483 . S
C658 C241 1.483 . S
C683 C300 1.483 . S
C688 C418 1.483 . S
C713 C328 0.766 . S
C718 C33 0.766 . S
C743 C92 0.766 . S
C748 C387 0.766 . S
C773 C446 0.766 . S
C778 C151 0.766 . S
C803 C210 0.766 . S
C808 C269 0.766 . S
C833 C406 1.786 . S
C838 C229 1.786 . S
C863 C52 1.786 . S
C868 C465 1.786 . S
C893 C111 1.786 . S
C898 C288 1.786 . S
C923 C347 1.786 . S
C928 C170 1.786 . S
