# Generated by pormake.
# Topology atn, (4)-cn, num edge types: 1
# Building blocks:
#     Node 0, Type 0, BuildingBlock: QUQFOY_clean_sbu_1, # of connection points: 4
#     Node 1, Type 0, BuildingBlock: QUQFOY_clean_sbu_1, # of connection points: 4
#     Node 2, Type 0, BuildingBlock: QUQFOY_clean_sbu_1, # of connection points: 4
#     Node 3, Type 0, BuildingBlock: QUQFOY_clean_sbu_1, # of connection points: 4
#     Node 4, Type 0, BuildingBlock: QUQFOY_clean_sbu_1, # of connection points: 4
#     Node 5, Type 0, BuildingBlock: QUQFOY_clean_sbu_1, # of connection points: 4
#     Node 6, Type 0, BuildingBlock: QUQFOY_clean_sbu_1, # of connection points: 4
#     Node 7, Type 0, BuildingBlock: QUQFOY_clean_sbu_1, # of connection points: 4
#     Node 8, Type 0, BuildingBlock: QUQFOY_clean_sbu_1, # of connection points: 4
#     Node 9, Type 0, BuildingBlock: QUQFOY_clean_sbu_1, # of connection points: 4
#     Node 10, Type 0, BuildingBlock: QUQFOY_clean_sbu_1, # of connection points: 4
#     Node 11, Type 0, BuildingBlock: QUQFOY_clean_sbu_1, # of connection points: 4
#     Node 12, Type 0, BuildingBlock: QUQFOY_clean_sbu_1, # of connection points: 4
#     Node 13, Type 0, BuildingBlock: QUQFOY_clean_sbu_1, # of connection points: 4
#     Node 14, Type 0, BuildingBlock: QUQFOY_clean_sbu_1, # of connection points: 4
#     Node 15, Type 0, BuildingBlock: QUQFOY_clean_sbu_1, # of connection points: 4
#     Edge 16, Type (0, 0), BuildingBlock: AJUNOK_clean_linker_0, # of connection points: 2
#     Edge 17, Type (0, 0), BuildingBlock: AJUNOK_clean_linker_0, # of connection points: 2
#     Edge 18, Type (0, 0), BuildingBlock: AJUNOK_clean_linker_0, # of connection points: 2
#     Edge 19, Type (0, 0), BuildingBlock: AJUNOK_clean_linker_0, # of connection points: 2
#     Edge 20, Type (0, 0), BuildingBlock: AJUNOK_clean_linker_0, # of connection points: 2
#     Edge 21, Type (0, 0), BuildingBlock: AJUNOK_clean_linker_0, # of connection points: 2
#     Edge 22, Type (0, 0), BuildingBlock: AJUNOK_clean_linker_0, # of connection points: 2
#     Edge 23, Type (0, 0), BuildingBlock: AJUNOK_clean_linker_0, # of connection points: 2
#     Edge 24, Type (0, 0), BuildingBlock: AJUNOK_clean_linker_0, # of connection points: 2
#     Edge 25, Type (0, 0), BuildingBlock: AJUNOK_clean_linker_0, # of connection points: 2
#     Edge 26, Type (0, 0), BuildingBlock: AJUNOK_clean_linker_0, # of connection points: 2
#     Edge 27, Type (0, 0), BuildingBlock: AJUNOK_clean_linker_0, # of connection points: 2
#     Edge 28, Type (0, 0), BuildingBlock: AJUNOK_clean_linker_0, # of connection points: 2
#     Edge 29, Type (0, 0), BuildingBlock: AJUNOK_clean_linker_0, # of connection points: 2
#     Edge 30, Type (0, 0), BuildingBlock: AJUNOK_clean_linker_0, # of connection points: 2
#     Edge 31, Type (0, 0), BuildingBlock: AJUNOK_clean_linker_0, # of connection points: 2
#     Edge 32, Type (0, 0), BuildingBlock: AJUNOK_clean_linker_0, # of connection points: 2
#     Edge 33, Type (0, 0), BuildingBlock: AJUNOK_clean_linker_0, # of connection points: 2
#     Edge 34, Type (0, 0), BuildingBlock: AJUNOK_clean_linker_0, # of connection points: 2
#     Edge 35, Type (0, 0), BuildingBlock: AJUNOK_clean_linker_0, # of connection points: 2
#     Edge 36, Type (0, 0), BuildingBlock: AJUNOK_clean_linker_0, # of connection points: 2
#     Edge 37, Type (0, 0), BuildingBlock: AJUNOK_clean_linker_0, # of connection points: 2
#     Edge 38, Type (0, 0), BuildingBlock: AJUNOK_clean_linker_0, # of connection points: 2
#     Edge 39, Type (0, 0), BuildingBlock: AJUNOK_clean_linker_0, # of connection points: 2
#     Edge 40, Type (0, 0), BuildingBlock: AJUNOK_clean_linker_0, # of connection points: 2
#     Edge 41, Type (0, 0), BuildingBlock: AJUNOK_clean_linker_0, # of connection points: 2
#     Edge 42, Type (0, 0), BuildingBlock: AJUNOK_clean_linker_0, # of connection points: 2
#     Edge 43, Type (0, 0), BuildingBlock: AJUNOK_clean_linker_0, # of connection points: 2
#     Edge 44, Type (0, 0), BuildingBlock: AJUNOK_clean_linker_0, # of connection points: 2
#     Edge 45, Type (0, 0), BuildingBlock: AJUNOK_clean_linker_0, # of connection points: 2
#     Edge 46, Type (0, 0), BuildingBlock: AJUNOK_clean_linker_0, # of connection points: 2
#     Edge 47, Type (0, 0), BuildingBlock: AJUNOK_clean_linker_0, # of connection points: 2
# Relax obj value: 0.062
# Max RMSD: 0.084
# Mean RMSD: 0.084
data_MOF--net-atn--node1-QUQFOY_clean_sbu_1--edge1-AJUNOK_clean_linker_0
_symmetry_space_group_name_H-M    P1
_symmetry_Int_Tables_number       1
_symmetry_cell_setting            triclinic
loop_
_symmetry_equiv_pos_as_xyz
'x, y, z'
_cell_length_a     46.443426
_cell_length_b     46.44581
_cell_length_c     20.761164
_cell_angle_alpha  89.90256
_cell_angle_beta   89.932361
_cell_angle_gamma 89.96189
loop_
_atom_site_label
_atom_site_type_symbol
_atom_site_fract_x
_atom_site_fract_y
_atom_site_fract_z
_atom_type_partial_charge
O0 O 0.19856 0.3846 0.16244 0.0
Cd1 Cd 0.22603 0.39446 0.08778 0.0
Cd2 Cd 0.18946 0.35944 1.0245 0.0
O3 O 0.16488 0.36206 0.10767 0.0
O4 O 0.24444 0.43119 0.11514 0.0
O5 O 0.21689 0.42731 1.02841 0.0
C6 C 0.2318 0.44328 0.06686 0.0
C7 C 0.16976 0.3628 0.92063 0.0
C8 C 0.1743 0.37202 0.16067 0.0
C9 C 0.25102 0.33913 0.04602 0.0
O10 O 0.2253 0.33324 1.02986 0.0
O11 O 0.25728 0.36415 0.06652 0.0
O12 O 0.16485 0.3409 0.95726 0.0
O13 O 0.18461 0.38373 0.9445 0.0
O14 O 0.62556 0.19774 0.1646 0.0
Cd15 Cd 0.61567 0.22462 0.08887 0.0
Cd16 Cd 0.65305 0.18985 1.02794 0.0
O17 O 0.65073 0.16539 0.11138 0.0
O18 O 0.57796 0.24207 0.11286 0.0
O19 O 0.58422 0.21432 1.02717 0.0
C20 C 0.56719 0.22923 0.06341 0.0
C21 C 0.64985 0.17007 0.92423 0.0
C22 C 0.63951 0.1742 0.16371 0.0
C23 C 0.67026 0.25209 0.04878 0.0
O24 O 0.67784 0.22669 0.03339 0.0
O25 O 0.64482 0.25696 0.06863 0.0
O26 O 0.67203 0.16573 0.96027 0.0
O27 O 0.62864 0.18444 0.94855 0.0
O28 O 0.81614 0.62578 0.16843 0.0
Cd29 Cd 0.78879 0.61594 0.09368 0.0
Cd30 Cd 0.8245 0.65202 0.03137 0.0
O31 O 0.8494 0.64913 0.11381 0.0
O32 O 0.77086 0.57888 0.12064 0.0
O33 O 0.79822 0.5835 0.03363 0.0
C34 C 0.78352 0.56719 0.07195 0.0
C35 C 0.84377 0.64889 0.92701 0.0
C36 C 0.84021 0.63873 0.16669 0.0
C37 C 0.76281 0.67118 0.05465 0.0
O38 O 0.78841 0.67782 0.03868 0.0
O39 O 0.75698 0.64578 0.07351 0.0
O40 O 0.84866 0.67081 0.96339 0.0
O41 O 0.82909 0.62787 0.95127 0.0
O42 O 0.38716 0.81197 0.16444 0.0
Cd43 Cd 0.39679 0.78499 0.08896 0.0
Cd44 Cd 0.36108 0.82216 1.02688 0.0
O45 O 0.36375 0.84578 0.11142 0.0
O46 O 0.43344 0.7663 0.11611 0.0
O47 O 0.42974 0.79442 0.03007 0.0
C48 C 0.44562 0.77923 0.0683 0.0
C49 C 0.36307 0.84365 0.92446 0.0
C50 C 0.37441 0.83616 0.16366 0.0
C51 C 0.34165 0.76001 0.04526 0.0
O52 O 0.33554 0.78583 0.03011 0.0
O53 O 0.36659 0.75387 0.06656 0.0
O54 O 0.34145 0.8475 0.96242 0.0
O55 O 0.38447 0.82868 0.94597 0.0
O56 O 0.20091 0.62439 0.92293 0.0
Cd57 Cd 0.22762 0.61535 0.99954 0.0
Cd58 Cd 0.19135 0.65196 0.05791 0.0
O59 O 0.16712 0.64832 0.9747 0.0
O60 O 0.24579 0.57784 0.97663 0.0
O61 O 0.21738 0.58382 0.06144 0.0
C62 C 0.23265 0.56691 1.02568 0.0
C63 C 0.17171 0.6487 0.1619 0.0
C64 C 0.17676 0.63725 0.92294 0.0
C65 C 0.25306 0.67107 0.03636 0.0
O66 O 0.2273 0.67789 0.05052 0.0
O67 O 0.25917 0.64545 1.01964 0.0
O68 O 0.16667 0.67055 0.12518 0.0
O69 O 0.18676 0.62784 0.13815 0.0
O70 O 0.3859 0.19805 0.92174 0.0
Cd71 Cd 0.3951 0.22475 0.99791 0.0
Cd72 Cd 0.3591 0.18801 0.058 0.0
O73 O 0.36248 0.16409 0.97416 0.0
O74 O 0.4321 0.24315 0.97238 0.0
O75 O 0.42743 0.21484 0.0579 0.0
C76 C 0.44377 0.22994 1.02041 0.0
C77 C 0.36147 0.16698 0.16078 0.0
C78 C 0.37328 0.17381 0.92214 0.0
C79 C 0.33955 0.24987 0.0378 0.0
O80 O 0.33316 0.22407 0.0526 0.0
O81 O 0.36489 0.25607 1.01909 0.0
O82 O 0.33984 0.16272 0.12315 0.0
O83 O 0.38258 0.18226 0.13889 0.0
O84 O 0.81305 0.38541 0.92576 0.0
Cd85 Cd 0.78643 0.39538 1.00186 0.0
Cd86 Cd 0.82121 0.358 0.06226 0.0
O87 O 0.84561 0.36042 0.97881 0.0
O88 O 0.76927 0.43333 0.97866 0.0
O89 O 0.79731 0.42655 0.06372 0.0
C90 C 0.78246 0.44384 1.02795 0.0
C91 C 0.84093 0.36114 0.166 0.0
C92 C 0.83664 0.37155 0.92649 0.0
C93 C 0.75894 0.34083 0.0418 0.0
O94 O 0.78439 0.3332 0.0567 0.0
O95 O 0.75403 0.36634 1.02243 0.0
O96 O 0.84534 0.33899 0.1299 0.0
O97 O 0.82657 0.38236 0.14168 0.0
O98 O 0.62733 0.81078 0.92811 0.0
Cd99 Cd 0.61782 0.78378 1.00387 0.0
Cd100 Cd 0.65235 0.82069 0.06627 0.0
O101 O 0.64974 0.84473 0.98228 0.0
O102 O 0.58052 0.76545 0.98036 0.0
O103 O 0.58606 0.79398 0.06499 0.0
C104 C 0.56936 0.77861 1.02908 0.0
C105 C 0.64847 0.84094 0.16945 0.0
C106 C 0.63984 0.83509 0.92943 0.0
C107 C 0.67312 0.75918 0.04687 0.0
O108 O 0.67881 0.785 0.0626 0.0
O109 O 0.64824 0.75276 1.0258 0.0
O110 O 0.67046 0.84583 0.13309 0.0
O111 O 0.62773 0.82581 0.14563 0.0
O112 O 0.70453 0.88511 0.67794 0.0
Cd113 Cd 0.72782 0.89405 0.59596 0.0
Cd114 Cd 0.68959 0.8587 0.54265 0.0
O115 O 0.66787 0.86448 0.62906 0.0
O116 O 0.74762 0.93167 0.60908 0.0
O117 O 0.71194 0.92513 0.53959 0.0
C118 C 0.72993 0.94228 0.56743 0.0
C119 C 0.66775 0.86148 0.44097 0.0
C120 C 0.67949 0.87414 0.68021 0.0
C121 C 0.75101 0.83795 0.55337 0.0
O122 O 0.72468 0.83143 0.54546 0.0
O123 O 0.75788 0.86364 0.56782 0.0
O124 O 0.66248 0.84044 0.47983 0.0
O125 O 0.6842 0.88193 0.46144 0.0
O126 O 0.12739 0.70274 0.67344 0.0
Cd127 Cd 0.11777 0.72685 0.59299 0.0
Cd128 Cd 0.15257 0.68885 0.53589 0.0
O129 O 0.14736 0.66647 0.6217 0.0
O130 O 0.08033 0.74672 0.60871 0.0
O131 O 0.08618 0.71167 0.53728 0.0
C132 C 0.06932 0.72952 0.56665 0.0
C133 C 0.15026 0.6674 0.43371 0.0
C134 C 0.13838 0.67766 0.67397 0.0
C135 C 0.1735 0.75016 0.54818 0.0
O136 O 0.17984 0.72388 0.53885 0.0
O137 O 0.14802 0.75702 0.56457 0.0
O138 O 0.17122 0.66215 0.47265 0.0
O139 O 0.12957 0.68356 0.45436 0.0
O140 O 0.30831 0.12443 0.67273 0.0
Cd141 Cd 0.28404 0.11539 0.59233 0.0
Cd142 Cd 0.32216 0.14998 0.53582 0.0
O143 O 0.34463 0.14453 0.62123 0.0
O144 O 0.26351 0.07827 0.60759 0.0
O145 O 0.29862 0.08365 0.53598 0.0
C146 C 0.28031 0.06711 0.56482 0.0
C147 C 0.34247 0.14615 0.43271 0.0
C148 C 0.33341 0.13536 0.67337 0.0
C149 C 0.26122 0.17161 0.54867 0.0
O150 O 0.28754 0.17775 0.53925 0.0
O151 O 0.25418 0.14613 0.56472 0.0
O152 O 0.34864 0.16738 0.47022 0.0
O153 O 0.32627 0.12598 0.45565 0.0
O154 O 0.887 0.30714 0.67458 0.0
Cd155 Cd 0.89623 0.28396 0.59276 0.0
Cd156 Cd 0.85878 0.32061 0.54029 0.0
O157 O 0.86438 0.34278 0.62605 0.0
O158 O 0.93387 0.26436 0.6074 0.0
O159 O 0.92754 0.2996 0.53649 0.0
C160 C 0.9446 0.28175 0.56523 0.0
C161 C 0.86119 0.34197 0.43801 0.0
C162 C 0.87499 0.33171 0.67694 0.0
C163 C 0.84063 0.25865 0.55196 0.0
O164 O 0.83269 0.28465 0.54444 0.0
O165 O 0.8667 0.25301 0.56558 0.0
O166 O 0.83996 0.34698 0.47652 0.0
O167 O 0.88198 0.32603 0.45908 0.0
O168 O 0.7036 0.12331 0.41574 0.0
Cd169 Cd 0.72678 0.11409 0.49763 0.0
Cd170 Cd 0.69005 0.15152 0.54996 0.0
O171 O 0.66791 0.1459 0.46412 0.0
O172 O 0.74647 0.07648 0.48307 0.0
O173 O 0.71121 0.08272 0.55392 0.0
C174 C 0.72912 0.06571 0.52525 0.0
C175 C 0.66871 0.14928 0.6523 0.0
C176 C 0.67904 0.13532 0.41325 0.0
C177 C 0.75198 0.16976 0.53826 0.0
O178 O 0.72597 0.17764 0.54573 0.0
O179 O 0.75768 0.14368 0.52477 0.0
O180 O 0.66368 0.17043 0.61356 0.0
O181 O 0.68463 0.12845 0.63139 0.0
O182 O 0.88911 0.70392 0.41741 0.0
Cd183 Cd 0.8975 0.72746 0.49915 0.0
Cd184 Cd 0.8624 0.6889 0.55212 0.0
O185 O 0.86922 0.66685 0.46662 0.0
O186 O 0.93496 0.74765 0.48593 0.0
O187 O 0.92865 0.71199 0.55585 0.0
C188 C 0.94569 0.73008 0.52774 0.0
C189 C 0.86466 0.66778 0.65477 0.0
C190 C 0.87874 0.67862 0.41538 0.0
C191 C 0.84077 0.74987 0.53913 0.0
O192 O 0.83455 0.72344 0.54686 0.0
O193 O 0.86654 0.75717 0.52638 0.0
O194 O 0.84405 0.66191 0.61537 0.0
O195 O 0.88503 0.68442 0.63435 0.0
O196 O 0.30958 0.88658 0.41315 0.0
Cd197 Cd 0.28525 0.89558 0.49379 0.0
Cd198 Cd 0.32297 0.86035 0.54918 0.0
O199 O 0.34578 0.86614 0.46428 0.0
O200 O 0.26455 0.93261 0.47829 0.0
O201 O 0.29945 0.92743 0.5503 0.0
C202 C 0.28109 0.94386 0.52131 0.0
C203 C 0.34286 0.86396 0.65271 0.0
C204 C 0.33462 0.87548 0.41227 0.0
C205 C 0.2621 0.83916 0.53431 0.0
O206 O 0.28836 0.83267 0.54355 0.0
O207 O 0.25516 0.86492 0.52053 0.0
O208 O 0.34917 0.84279 0.6151 0.0
O209 O 0.32662 0.88412 0.62983 0.0
O210 O 0.12478 0.30708 0.41221 0.0
Cd211 Cd 0.11618 0.28379 0.49442 0.0
Cd212 Cd 0.15172 0.32193 0.54649 0.0
O213 O 0.14509 0.34398 0.4608 0.0
O214 O 0.07865 0.26381 0.48153 0.0
O215 O 0.08511 0.29948 0.55104 0.0
C216 C 0.06801 0.28142 0.52326 0.0
C217 C 0.14937 0.34321 0.64882 0.0
C218 C 0.13543 0.33226 0.40977 0.0
C219 C 0.17262 0.26075 0.53417 0.0
O220 O 0.17924 0.2871 0.54139 0.0
O221 O 0.14673 0.25377 0.52198 0.0
O222 O 0.17014 0.34885 0.60949 0.0
O223 O 0.12896 0.32666 0.62855 0.0
C224 C 0.23541 0.51637 0.98566 0.0
C225 C 0.23376 0.53558 0.03792 0.0
C226 C 0.23472 0.48647 0.9953 0.0
C227 C 0.23329 0.47478 0.05765 0.0
H228 H 0.23645 0.52448 0.93675 0.0
H229 H 0.23546 0.47243 0.95371 0.0
S230 S 0.22917 0.51578 0.21066 0.0
N231 N 0.23058 0.5408 0.15412 0.0
N232 N 0.23045 0.48462 0.17251 0.0
C233 C 0.23225 0.49373 0.1104 0.0
C234 C 0.23215 0.52415 0.10046 0.0
C235 C 0.48665 0.23176 0.09276 0.0
C236 C 0.47522 0.23094 0.0302 0.0
C237 C 0.5165 0.23201 0.10287 0.0
C238 C 0.53591 0.23051 0.05083 0.0
H239 H 0.47243 0.2324 0.13415 0.0
H240 H 0.52443 0.23265 0.15191 0.0
S241 S 0.5168 0.22737 0.87768 0.0
N242 N 0.4855 0.22875 0.91542 0.0
N243 N 0.5416 0.22808 0.93462 0.0
C244 C 0.52474 0.22946 0.98808 0.0
C245 C 0.49438 0.23 0.97771 0.0
C246 C 0.78012 0.49463 0.98901 0.0
C247 C 0.78166 0.4751 0.04083 0.0
C248 C 0.78083 0.52446 0.99935 0.0
C249 C 0.78219 0.53576 0.06198 0.0
H250 H 0.77908 0.48682 0.93992 0.0
H251 H 0.78012 0.53876 0.9581 0.0
S252 S 0.78609 0.49382 0.21403 0.0
N253 N 0.78471 0.46915 0.15691 0.0
N254 N 0.78492 0.52521 0.17661 0.0
C255 C 0.78319 0.51648 0.11428 0.0
C256 C 0.78324 0.48613 0.10364 0.0
C257 C 0.51894 0.77559 0.98826 0.0
C258 C 0.538 0.7774 0.04081 0.0
C259 C 0.48902 0.77625 0.99741 0.0
C260 C 0.47714 0.77779 0.05955 0.0
H261 H 0.52721 0.77447 0.93951 0.0
H262 H 0.47509 0.77539 0.95563 0.0
S263 S 0.51765 0.78235 0.21314 0.0
N264 N 0.54285 0.78086 0.15705 0.0
N265 N 0.48661 0.78091 0.17451 0.0
C266 C 0.49592 0.77898 0.11258 0.0
C267 C 0.52637 0.77912 0.10314 0.0
C268 C 0.75498 0.01908 0.54105 0.0
C269 C 0.72892 0.03443 0.53762 0.0
C270 C 0.75519 0.98917 0.55087 0.0
C271 C 0.72933 0.97355 0.55498 0.0
H272 H 0.77534 0.03032 0.53696 0.0
H273 H 0.77569 0.97816 0.55445 0.0
S274 S 0.65544 1.0036 0.54725 0.0
N275 N 0.67668 0.0319 0.53918 0.0
N276 N 0.67705 0.97553 0.55476 0.0
C277 C 0.70316 0.9886 0.55058 0.0
C278 C 0.70296 0.01911 0.54268 0.0
C279 C 0.99258 0.75547 0.54342 0.0
C280 C 0.97699 0.72958 0.53971 0.0
C281 C 0.02253 0.75533 0.55241 0.0
C282 C 0.03797 0.7293 0.55535 0.0
H283 H 0.98149 0.77595 0.54009 0.0
H284 H 0.03375 0.77571 0.55618 0.0
S285 S 0.00727 0.65576 0.54657 0.0
N286 N 0.97912 0.67731 0.53987 0.0
N287 N 0.03555 0.67706 0.55386 0.0
C288 C 0.02268 0.70331 0.55076 0.0
C289 C 0.99213 0.70345 0.54371 0.0
C290 C 0.30586 0.02062 0.54682 0.0
C291 C 0.27981 0.03587 0.5523 0.0
C292 C 0.30605 0.99064 0.53884 0.0
C293 C 0.28021 0.97507 0.534 0.0
H294 H 0.32623 0.03187 0.55009 0.0
H295 H 0.32657 0.97965 0.53503 0.0
S296 S 0.20634 1.00498 0.54416 0.0
N297 N 0.22757 0.03323 0.55304 0.0
N298 N 0.22794 0.97701 0.53469 0.0
C299 C 0.25404 0.9901 0.53846 0.0
C300 C 0.25384 0.02049 0.54856 0.0
C301 C 0.02124 0.25598 0.53999 0.0
C302 C 0.03676 0.2819 0.53578 0.0
C303 C 0.99133 0.25607 0.54972 0.0
C304 C 0.97587 0.28207 0.55297 0.0
H305 H 0.03235 0.23552 0.53651 0.0
H306 H 0.98017 0.23567 0.55388 0.0
S307 S 0.0064 0.35567 0.54305 0.0
N308 N 0.03456 0.33417 0.53573 0.0
N309 N 0.97819 0.33432 0.55116 0.0
C310 C 0.99109 0.30809 0.54784 0.0
C311 C 0.0216 0.30801 0.54002 0.0
C312 C 0.30286 0.32323 0.04599 0.0
C313 C 0.27338 0.31622 0.04309 0.0
C314 C 0.32418 0.30176 0.04393 0.0
C315 C 0.31684 0.2724 0.04 0.0
H316 H 0.30957 0.34551 0.04948 0.0
H317 H 0.34657 0.30821 0.0461 0.0
S318 S 0.24277 0.24247 0.03087 0.0
N319 N 0.23808 0.2776 0.03568 0.0
N320 N 0.27793 0.2375 0.03234 0.0
C321 C 0.28745 0.2651 0.03717 0.0
C322 C 0.26581 0.28691 0.03853 0.0
C323 C 0.74266 0.28969 0.04452 0.0
C324 C 0.7355 0.31913 0.04414 0.0
C325 C 0.72139 0.26841 0.04519 0.0
C326 C 0.69195 0.27555 0.0464 0.0
H327 H 0.76497 0.28287 0.04355 0.0
H328 H 0.72822 0.2461 0.04551 0.0
S329 S 0.66154 0.3495 0.04644 0.0
N330 N 0.69676 0.35442 0.04499 0.0
N331 N 0.65665 0.31429 0.0472 0.0
C332 C 0.68437 0.30491 0.04641 0.0
C333 C 0.70614 0.3267 0.04494 0.0
C334 C 0.71095 0.68624 0.04624 0.0
C335 C 0.74012 0.69368 0.05359 0.0
C336 C 0.68937 0.70746 0.04429 0.0
C337 C 0.69611 0.73691 0.05074 0.0
H338 H 0.70475 0.66389 0.04097 0.0
H339 H 0.66726 0.7007 0.03775 0.0
S340 S 0.76932 0.76749 0.07457 0.0
N341 N 0.77455 0.73245 0.06949 0.0
N342 N 0.7343 0.77216 0.06651 0.0
C343 C 0.72524 0.74451 0.05936 0.0
C344 C 0.74715 0.72297 0.06055 0.0
C345 C 0.30444 0.68677 0.05069 0.0
C346 C 0.2756 0.69364 0.03681 0.0
C347 C 0.32573 0.70825 0.0529 0.0
C348 C 0.31907 0.73735 0.04026 0.0
H349 H 0.3105 0.66473 0.06116 0.0
H350 H 0.34753 0.70196 0.06491 0.0
S351 S 0.24691 0.76602 0.99602 0.0
N352 N 0.2417 0.73123 1.0069 0.0
N353 N 0.28143 0.77142 1.0101 0.0
C354 C 0.29034 0.74426 1.02449 0.0
C355 C 0.26871 0.72248 1.02305 0.0
C356 C 0.82454 0.8014 0.54751 0.0
C357 C 0.81761 0.77197 0.54277 0.0
C358 C 0.80296 0.82257 0.55053 0.0
C359 C 0.77355 0.81523 0.54826 0.0
H360 H 0.84682 0.8082 0.54941 0.0
H361 H 0.80947 0.84488 0.55468 0.0
S362 S 0.74385 0.74117 0.53405 0.0
N363 N 0.77907 0.73664 0.53476 0.0
N364 N 0.73873 0.7762 0.54006 0.0
C365 C 0.76634 0.78585 0.54283 0.0
C366 C 0.78828 0.76432 0.54026 0.0
C367 C 0.21071 0.82336 0.54784 0.0
C368 C 0.2398 0.81629 0.53716 0.0
C369 C 0.1894 0.80194 0.55083 0.0
C370 C 0.19627 0.77261 0.54249 0.0
H371 H 0.20437 0.84558 0.55477 0.0
H372 H 0.16739 0.80849 0.56001 0.0
S373 S 0.26919 0.74296 0.50913 0.0
N374 N 0.27422 0.77798 0.51566 0.0
N375 N 0.23441 0.73789 0.52067 0.0
C376 C 0.22527 0.76536 0.53049 0.0
C377 C 0.24694 0.78712 0.52805 0.0
C378 C 0.20952 0.18785 0.55103 0.0
C379 C 0.23892 0.19456 0.54324 0.0
C380 C 0.18822 0.20928 0.5479 0.0
C381 C 0.19544 0.23836 0.53756 0.0
H382 H 0.20283 0.16585 0.55978 0.0
H383 H 0.16593 0.20302 0.55431 0.0
S384 S 0.26909 0.2674 0.51166 0.0
N385 N 0.27393 0.23257 0.5228 0.0
N386 N 0.23405 0.27261 0.51743 0.0
C387 C 0.2247 0.24536 0.5292 0.0
C388 C 0.24636 0.22356 0.53184 0.0
C389 C 0.78942 0.24232 0.54644 0.0
C390 C 0.81889 0.23523 0.54762 0.0
C391 C 0.76817 0.221 0.54424 0.0
C392 C 0.77535 0.19156 0.54255 0.0
H393 H 0.78253 0.2646 0.5478 0.0
H394 H 0.74587 0.22782 0.5433 0.0
S395 S 0.84941 0.16129 0.54428 0.0
N396 N 0.85421 0.19649 0.54684 0.0
N397 N 0.81422 0.15637 0.54221 0.0
C398 C 0.80475 0.18406 0.54347 0.0
C399 C 0.82649 0.20586 0.54616 0.0
C400 C 0.16026 0.36869 0.34036 0.0
C401 C 0.14014 0.34621 0.34612 0.0
C402 C 0.16964 0.37828 0.27988 0.0
C403 C 0.15922 0.36592 0.22249 0.0
H404 H 0.17019 0.37787 0.3828 0.0
H405 H 0.1863 0.39457 0.27838 0.0
S406 S 0.10215 0.3102 0.21104 0.0
N407 N 0.107 0.31466 0.28914 0.0
N408 N 0.12465 0.33269 0.17548 0.0
C409 C 0.13718 0.34524 0.22747 0.0
C410 C 0.12767 0.33537 0.28922 0.0
C411 C 0.6432 0.16097 0.3438 0.0
C412 C 0.6652 0.14032 0.34962 0.0
C413 C 0.63365 0.17033 0.28329 0.0
C414 C 0.64564 0.15939 0.22588 0.0
H415 H 0.63431 0.17127 0.3862 0.0
H416 H 0.61773 0.18736 0.28179 0.0
S417 S 0.69996 0.10089 0.21468 0.0
N418 N 0.69582 0.10619 0.29274 0.0
N419 N 0.67793 0.12381 0.17906 0.0
C420 C 0.66585 0.13691 0.231 0.0
C421 C 0.67564 0.12739 0.29278 0.0
C422 C 0.85405 0.64209 0.34638 0.0
C423 C 0.87416 0.66457 0.35192 0.0
C424 C 0.84475 0.63246 0.28597 0.0
C425 C 0.85524 0.6448 0.22847 0.0
H426 H 0.84404 0.63295 0.3889 0.0
H427 H 0.82807 0.61618 0.28463 0.0
S428 S 0.9124 0.70044 0.21656 0.0
N429 N 0.90742 0.69604 0.29469 0.0
N430 N 0.88994 0.67795 0.18119 0.0
C431 C 0.8773 0.66546 0.23328 0.0
C432 C 0.88672 0.67536 0.29495 0.0
C433 C 0.33528 0.87905 0.29177 0.0
C434 C 0.34894 0.8702 0.34914 0.0
C435 C 0.34498 0.86969 0.23132 0.0
C436 C 0.36866 0.85098 0.22572 0.0
H437 H 0.316 0.89216 0.29347 0.0
H438 H 0.33268 0.87577 0.18913 0.0
S439 S 0.41537 0.82582 0.3596 0.0
N440 N 0.38997 0.84487 0.39534 0.0
N441 N 0.40808 0.82728 0.28187 0.0
C442 C 0.38401 0.84395 0.2821 0.0
C443 C 0.37421 0.85357 0.34371 0.0
C444 C 0.13419 0.67638 0.7943 0.0
C445 C 0.14363 0.66316 0.73692 0.0
C446 C 0.14324 0.66647 0.8548 0.0
C447 C 0.16222 0.643 0.8605 0.0
H448 H 0.1208 0.69546 0.79262 0.0
H449 H 0.13667 0.67846 0.89706 0.0
S450 S 0.18905 0.59747 0.72628 0.0
N451 N 0.16988 0.6228 0.69054 0.0
N452 N 0.18691 0.60426 0.80415 0.0
C453 C 0.16987 0.62808 0.80397 0.0
C454 C 0.16056 0.63811 0.74228 0.0
C455 C 0.33433 0.13124 0.79371 0.0
C456 C 0.34781 0.14046 0.73637 0.0
C457 C 0.34409 0.14033 0.85421 0.0
C458 C 0.36765 0.15915 0.8599 0.0
H459 H 0.31515 0.11801 0.79198 0.0
H460 H 0.33191 0.13398 0.89643 0.0
S461 S 0.41391 0.18525 0.72597 0.0
N462 N 0.38856 0.16623 0.69014 0.0
N463 N 0.4068 0.18335 0.80377 0.0
C464 C 0.38285 0.16654 0.80349 0.0
C465 C 0.37298 0.15718 0.7418 0.0
C466 C 0.84016 0.3772 0.80682 0.0
C467 C 0.8513 0.36537 0.86422 0.0
C468 C 0.84938 0.36757 0.74631 0.0
C469 C 0.8701 0.34563 0.74048 0.0
H470 H 0.82307 0.39307 0.80837 0.0
H471 H 0.83893 0.37633 0.70395 0.0
S472 S 0.91005 0.3113 0.87527 0.0
N473 N 0.88715 0.33331 0.91094 0.0
N474 N 0.90451 0.31525 0.79724 0.0
C475 C 0.88322 0.33535 0.79726 0.0
C476 C 0.87385 0.34522 0.85904 0.0
C477 C 0.63395 0.83916 0.80997 0.0
C478 C 0.64592 0.85001 0.86739 0.0
C479 C 0.64351 0.8486 0.7495 0.0
C480 C 0.66557 0.86918 0.74377 0.0
H481 H 0.618 0.82218 0.81147 0.0
H482 H 0.63465 0.83837 0.70705 0.0
S483 S 0.70044 0.90824 0.87879 0.0
N484 N 0.67832 0.88538 0.91436 0.0
N485 N 0.69629 0.90308 0.80071 0.0
C486 C 0.67602 0.88198 0.80064 0.0
C487 C 0.66618 0.87244 0.86237 0.0
C488 C 0.8778 0.67458 0.77067 0.0
C489 C 0.86302 0.65871 0.72344 0.0
C490 C 0.87251 0.67019 0.83654 0.0
C491 C 0.85255 0.64945 0.85803 0.0
H492 H 0.89241 0.69167 0.75676 0.0
H493 H 0.88343 0.68394 0.8708 0.0
S494 S 0.81111 0.59947 0.75406 0.0
N495 N 0.82961 0.61949 0.70291 0.0
N496 N 0.82002 0.61094 0.82657 0.0
C497 C 0.83917 0.63201 0.81145 0.0
C498 C 0.84429 0.63674 0.74425 0.0
C499 C 0.3722 0.84308 0.74281 0.0
C500 C 0.35154 0.86323 0.72174 0.0
C501 C 0.37731 0.83833 0.80865 0.0
C502 C 0.36164 0.85322 0.85615 0.0
H503 H 0.38378 0.83002 0.70822 0.0
H504 H 0.39245 0.82165 0.82227 0.0
S505 S 0.3077 0.91079 0.82696 0.0
N506 N 0.31742 0.90028 0.75418 0.0
N507 N 0.32668 0.891 0.87761 0.0
C508 C 0.34221 0.87466 0.83585 0.0
C509 C 0.33727 0.87978 0.76878 0.0
C510 C 0.1359 0.33683 0.76476 0.0
C511 C 0.15083 0.35251 0.71727 0.0
C512 C 0.14103 0.34142 0.83057 0.0
C513 C 0.16099 0.36218 0.85171 0.0
H514 H 0.1213 0.31971 0.75115 0.0
H515 H 0.13003 0.32778 0.86506 0.0
S516 S 0.20274 0.41179 0.74685 0.0
N517 N 0.18433 0.39163 0.69606 0.0
N518 N 0.19363 0.40056 0.81957 0.0
C519 C 0.1745 0.37947 0.80481 0.0
C520 C 0.16954 0.37453 0.7377 0.0
C521 C 0.6712 0.14132 0.83401 0.0
C522 C 0.65034 0.16117 0.8554 0.0
C523 C 0.67556 0.13605 0.76816 0.0
C524 C 0.65958 0.15076 0.72089 0.0
H525 H 0.68506 0.13051 0.86831 0.0
H526 H 0.69277 0.12156 0.75427 0.0
S527 S 0.59993 0.20226 0.75127 0.0
N528 N 0.61151 0.19342 0.82383 0.0
N529 N 0.62011 0.18392 0.70019 0.0
C530 C 0.63749 0.16936 0.74161 0.0
C531 C 0.63274 0.17442 0.80878 0.0
C532 C 0.87465 0.33522 0.32228 0.0
C533 C 0.85986 0.35118 0.36945 0.0
C534 C 0.86951 0.33968 0.2564 0.0
C535 C 0.84974 0.36059 0.23489 0.0
H536 H 0.88907 0.31798 0.33626 0.0
H537 H 0.88036 0.32582 0.22215 0.0
S538 S 0.80855 0.41096 0.33878 0.0
N539 N 0.82674 0.3907 0.38997 0.0
N540 N 0.81751 0.39945 0.26627 0.0
C541 C 0.83643 0.37816 0.28143 0.0
C542 C 0.84135 0.37333 0.34864 0.0
C543 C 0.66958 0.86992 0.25937 0.0
C544 C 0.64883 0.84996 0.2382 0.0
C545 C 0.67408 0.8751 0.32518 0.0
C546 C 0.65833 0.86021 0.3726 0.0
H547 H 0.68332 0.88083 0.22494 0.0
H548 H 0.69125 0.88964 0.33885 0.0
S549 S 0.59884 0.80857 0.34286 0.0
N550 N 0.61021 0.81755 0.27018 0.0
N551 N 0.61903 0.82691 0.39372 0.0
C552 C 0.63625 0.84159 0.35213 0.0
C553 C 0.63139 0.83659 0.28501 0.0
C554 C 0.13723 0.67423 0.31774 0.0
C555 C 0.15189 0.65829 0.36516 0.0
C556 C 0.14269 0.66992 0.25193 0.0
C557 C 0.16271 0.64918 0.23074 0.0
H558 H 0.12263 0.69136 0.33146 0.0
H559 H 0.13189 0.68374 0.21752 0.0
S560 S 0.20375 0.5989 0.33534 0.0
N561 N 0.18517 0.61895 0.38621 0.0
N562 N 0.19506 0.61049 0.26269 0.0
C563 C 0.17593 0.63162 0.27752 0.0
C564 C 0.17065 0.63629 0.34464 0.0
C565 C 0.37127 0.16746 0.34219 0.0
C566 C 0.35104 0.14695 0.3636 0.0
C567 C 0.37602 0.17241 0.27626 0.0
C568 C 0.36042 0.15735 0.22906 0.0
H569 H 0.38273 0.18069 0.37658 0.0
H570 H 0.39081 0.18936 0.2624 0.0
S571 S 0.30773 0.09876 0.2591 0.0
N572 N 0.31752 0.10933 0.33172 0.0
N573 N 0.32613 0.11897 0.20815 0.0
C574 C 0.34149 0.13553 0.24965 0.0
C575 C 0.33692 0.13022 0.31679 0.0
loop_
_geom_bond_atom_site_label_1
_geom_bond_atom_site_label_2
_geom_bond_distance
_geom_bond_site_symmetry_2
_ccdc_geom_bond_type
O0 Cd1 2.223 . S
O0 C8 1.315 . S
Cd1 O0 2.223 . S
Cd1 O4 2.297 . S
Cd1 O5 2.439 . S
Cd1 O11 2.240 . S
Cd2 O3 2.240 . S
Cd2 O10 2.223 . S
Cd2 O12 2.298 1_554 S
Cd2 O13 2.439 1_554 S
O3 Cd2 2.240 . S
O3 C8 1.279 . S
O4 Cd1 2.297 . S
O4 C6 1.247 . S
O5 Cd1 2.439 . S
O5 C6 1.208 . S
C6 O4 1.247 . S
C6 O5 1.208 . S
C7 O12 1.247 . S
C7 O13 1.208 . S
C8 O0 1.315 . S
C8 O3 1.279 . S
C9 O10 1.315 . S
C9 O11 1.279 . S
O10 Cd2 2.223 . S
O10 C9 1.315 . S
O11 Cd1 2.240 . S
O11 C9 1.279 . S
O12 Cd2 2.298 1_556 S
O12 C7 1.247 . S
O13 Cd2 2.439 1_556 S
O13 C7 1.208 . S
O14 Cd15 2.223 . S
O14 C22 1.315 . S
Cd15 O14 2.223 . S
Cd15 O18 2.297 . S
Cd15 O19 2.439 . S
Cd15 O25 2.240 . S
Cd16 O17 2.240 . S
Cd16 O24 2.223 . S
Cd16 O26 2.298 1_554 S
Cd16 O27 2.439 1_554 S
O17 Cd16 2.240 . S
O17 C22 1.279 . S
O18 Cd15 2.297 . S
O18 C20 1.247 . S
O19 Cd15 2.439 . S
O19 C20 1.208 . S
C20 O18 1.247 . S
C20 O19 1.208 . S
C21 O26 1.247 . S
C21 O27 1.208 . S
C22 O14 1.315 . S
C22 O17 1.279 . S
C23 O24 1.315 . S
C23 O25 1.279 . S
O24 Cd16 2.223 . S
O24 C23 1.315 . S
O25 Cd15 2.240 . S
O25 C23 1.279 . S
O26 Cd16 2.298 1_556 S
O26 C21 1.247 . S
O27 Cd16 2.439 1_556 S
O27 C21 1.208 . S
O28 Cd29 2.223 . S
O28 C36 1.315 . S
Cd29 O28 2.223 . S
Cd29 O32 2.297 . S
Cd29 O33 2.439 . S
Cd29 O39 2.240 . S
Cd30 O31 2.240 . S
Cd30 O38 2.223 . S
Cd30 O40 2.298 1_554 S
Cd30 O41 2.439 1_554 S
O31 Cd30 2.240 . S
O31 C36 1.279 . S
O32 Cd29 2.297 . S
O32 C34 1.247 . S
O33 Cd29 2.439 . S
O33 C34 1.208 . S
C34 O32 1.247 . S
C34 O33 1.208 . S
C35 O40 1.247 . S
C35 O41 1.208 . S
C36 O28 1.315 . S
C36 O31 1.279 . S
C37 O38 1.315 . S
C37 O39 1.279 . S
O38 Cd30 2.223 . S
O38 C37 1.315 . S
O39 Cd29 2.240 . S
O39 C37 1.279 . S
O40 Cd30 2.298 1_556 S
O40 C35 1.247 . S
O41 Cd30 2.439 1_556 S
O41 C35 1.208 . S
O42 Cd43 2.223 . S
O42 C50 1.315 . S
Cd43 O42 2.223 . S
Cd43 O46 2.297 . S
Cd43 O47 2.439 . S
Cd43 O53 2.240 . S
Cd44 O45 2.240 . S
Cd44 O52 2.223 . S
Cd44 O54 2.298 1_554 S
Cd44 O55 2.439 1_554 S
O45 Cd44 2.240 . S
O45 C50 1.279 . S
O46 Cd43 2.297 . S
O46 C48 1.247 . S
O47 Cd43 2.439 . S
O47 C48 1.208 . S
C48 O46 1.247 . S
C48 O47 1.208 . S
C49 O54 1.247 . S
C49 O55 1.208 . S
C50 O42 1.315 . S
C50 O45 1.279 . S
C51 O52 1.315 . S
C51 O53 1.279 . S
O52 Cd44 2.223 . S
O52 C51 1.315 . S
O53 Cd43 2.240 . S
O53 C51 1.279 . S
O54 Cd44 2.298 1_556 S
O54 C49 1.247 . S
O55 Cd44 2.439 1_556 S
O55 C49 1.208 . S
O56 Cd57 2.223 . S
O56 C64 1.315 . S
Cd57 O56 2.223 . S
Cd57 O60 2.297 . S
Cd57 O61 2.439 1_556 S
Cd57 O67 2.240 1_556 S
Cd58 O59 2.240 1_554 S
Cd58 O66 2.228 . S
Cd58 O68 2.297 . S
Cd58 O69 2.439 . S
O59 Cd58 2.240 1_556 S
O59 C64 1.279 . S
O60 Cd57 2.297 . S
O60 C62 1.247 . S
O61 Cd57 2.439 1_554 S
O61 C62 1.208 1_554 S
C62 O60 1.247 . S
C62 O61 1.208 1_556 S
C63 O68 1.247 . S
C63 O69 1.208 . S
C64 O56 1.315 . S
C64 O59 1.279 . S
C65 O66 1.317 . S
C65 O67 1.279 . S
O66 Cd58 2.228 . S
O66 C65 1.317 . S
O67 Cd57 2.240 1_554 S
O67 C65 1.279 . S
O68 Cd58 2.297 . S
O68 C63 1.247 . S
O69 Cd58 2.439 . S
O69 C63 1.208 . S
O70 Cd71 2.223 . S
O70 C78 1.315 . S
Cd71 O70 2.223 . S
Cd71 O74 2.297 . S
Cd71 O75 2.439 1_556 S
Cd71 O81 2.240 1_556 S
Cd72 O73 2.240 1_554 S
Cd72 O80 2.228 . S
Cd72 O82 2.297 . S
Cd72 O83 2.439 . S
O73 Cd72 2.240 1_556 S
O73 C78 1.279 . S
O74 Cd71 2.297 . S
O74 C76 1.247 . S
O75 Cd71 2.439 1_554 S
O75 C76 1.208 1_554 S
C76 O74 1.247 . S
C76 O75 1.208 1_556 S
C77 O82 1.247 . S
C77 O83 1.208 . S
C78 O70 1.315 . S
C78 O73 1.279 . S
C79 O80 1.317 . S
C79 O81 1.279 . S
O80 Cd72 2.228 . S
O80 C79 1.317 . S
O81 Cd71 2.240 1_554 S
O81 C79 1.279 . S
O82 Cd72 2.297 . S
O82 C77 1.247 . S
O83 Cd72 2.439 . S
O83 C77 1.208 . S
O84 Cd85 2.223 . S
O84 C92 1.315 . S
Cd85 O84 2.223 . S
Cd85 O88 2.297 . S
Cd85 O89 2.439 1_556 S
Cd85 O95 2.240 1_556 S
Cd86 O87 2.240 1_554 S
Cd86 O94 2.228 . S
Cd86 O96 2.297 . S
Cd86 O97 2.439 . S
O87 Cd86 2.240 1_556 S
O87 C92 1.279 . S
O88 Cd85 2.297 . S
O88 C90 1.247 . S
O89 Cd85 2.439 1_554 S
O89 C90 1.208 1_554 S
C90 O88 1.247 . S
C90 O89 1.208 1_556 S
C91 O96 1.247 . S
C91 O97 1.208 . S
C92 O84 1.315 . S
C92 O87 1.279 . S
C93 O94 1.317 . S
C93 O95 1.279 . S
O94 Cd86 2.228 . S
O94 C93 1.317 . S
O95 Cd85 2.240 1_554 S
O95 C93 1.279 . S
O96 Cd86 2.297 . S
O96 C91 1.247 . S
O97 Cd86 2.439 . S
O97 C91 1.208 . S
O98 Cd99 2.223 . S
O98 C106 1.315 . S
Cd99 O98 2.223 . S
Cd99 O102 2.297 . S
Cd99 O103 2.439 1_556 S
Cd99 O109 2.240 1_556 S
Cd100 O101 2.240 1_554 S
Cd100 O108 2.228 . S
Cd100 O110 2.297 . S
Cd100 O111 2.439 . S
O101 Cd100 2.240 1_556 S
O101 C106 1.279 . S
O102 Cd99 2.297 . S
O102 C104 1.247 . S
O103 Cd99 2.439 1_554 S
O103 C104 1.208 1_554 S
C104 O102 1.247 . S
C104 O103 1.208 1_556 S
C105 O110 1.247 . S
C105 O111 1.208 . S
C106 O98 1.315 . S
C106 O101 1.279 . S
C107 O108 1.317 . S
C107 O109 1.279 . S
O108 Cd100 2.228 . S
O108 C107 1.317 . S
O109 Cd99 2.240 1_554 S
O109 C107 1.279 . S
O110 Cd100 2.297 . S
O110 C105 1.247 . S
O111 Cd100 2.439 . S
O111 C105 1.208 . S
O112 Cd113 2.223 . S
O112 C120 1.315 . S
Cd113 O112 2.223 . S
Cd113 O116 2.297 . S
Cd113 O117 2.439 . S
Cd113 O123 2.240 . S
Cd114 O115 2.240 . S
Cd114 O122 2.223 . S
Cd114 O124 2.297 . S
Cd114 O125 2.439 . S
O115 Cd114 2.240 . S
O115 C120 1.279 . S
O116 Cd113 2.297 . S
O116 C118 1.247 . S
O117 Cd113 2.439 . S
O117 C118 1.208 . S
C118 O116 1.247 . S
C118 O117 1.208 . S
C119 O124 1.247 . S
C119 O125 1.208 . S
C120 O112 1.315 . S
C120 O115 1.279 . S
C121 O122 1.315 . S
C121 O123 1.279 . S
O122 Cd114 2.223 . S
O122 C121 1.315 . S
O123 Cd113 2.240 . S
O123 C121 1.279 . S
O124 Cd114 2.297 . S
O124 C119 1.247 . S
O125 Cd114 2.439 . S
O125 C119 1.208 . S
O126 Cd127 2.223 . S
O126 C134 1.315 . S
Cd127 O126 2.223 . S
Cd127 O130 2.297 . S
Cd127 O131 2.439 . S
Cd127 O137 2.240 . S
Cd128 O129 2.240 . S
Cd128 O136 2.223 . S
Cd128 O138 2.297 . S
Cd128 O139 2.439 . S
O129 Cd128 2.240 . S
O129 C134 1.279 . S
O130 Cd127 2.297 . S
O130 C132 1.247 . S
O131 Cd127 2.439 . S
O131 C132 1.208 . S
C132 O130 1.247 . S
C132 O131 1.208 . S
C133 O138 1.247 . S
C133 O139 1.208 . S
C134 O126 1.315 . S
C134 O129 1.279 . S
C135 O136 1.315 . S
C135 O137 1.279 . S
O136 Cd128 2.223 . S
O136 C135 1.315 . S
O137 Cd127 2.240 . S
O137 C135 1.279 . S
O138 Cd128 2.297 . S
O138 C133 1.247 . S
O139 Cd128 2.439 . S
O139 C133 1.208 . S
O140 Cd141 2.223 . S
O140 C148 1.315 . S
Cd141 O140 2.223 . S
Cd141 O144 2.297 . S
Cd141 O145 2.439 . S
Cd141 O151 2.240 . S
Cd142 O143 2.240 . S
Cd142 O150 2.223 . S
Cd142 O152 2.297 . S
Cd142 O153 2.439 . S
O143 Cd142 2.240 . S
O143 C148 1.279 . S
O144 Cd141 2.297 . S
O144 C146 1.247 . S
O145 Cd141 2.439 . S
O145 C146 1.208 . S
C146 O144 1.247 . S
C146 O145 1.208 . S
C147 O152 1.247 . S
C147 O153 1.208 . S
C148 O140 1.315 . S
C148 O143 1.279 . S
C149 O150 1.315 . S
C149 O151 1.279 . S
O150 Cd142 2.223 . S
O150 C149 1.315 . S
O151 Cd141 2.240 . S
O151 C149 1.279 . S
O152 Cd142 2.297 . S
O152 C147 1.247 . S
O153 Cd142 2.439 . S
O153 C147 1.208 . S
O154 Cd155 2.223 . S
O154 C162 1.315 . S
Cd155 O154 2.223 . S
Cd155 O158 2.297 . S
Cd155 O159 2.439 . S
Cd155 O165 2.240 . S
Cd156 O157 2.240 . S
Cd156 O164 2.223 . S
Cd156 O166 2.297 . S
Cd156 O167 2.439 . S
O157 Cd156 2.240 . S
O157 C162 1.279 . S
O158 Cd155 2.297 . S
O158 C160 1.247 . S
O159 Cd155 2.439 . S
O159 C160 1.208 . S
C160 O158 1.247 . S
C160 O159 1.208 . S
C161 O166 1.247 . S
C161 O167 1.208 . S
C162 O154 1.315 . S
C162 O157 1.279 . S
C163 O164 1.315 . S
C163 O165 1.279 . S
O164 Cd156 2.223 . S
O164 C163 1.315 . S
O165 Cd155 2.240 . S
O165 C163 1.279 . S
O166 Cd156 2.297 . S
O166 C161 1.247 . S
O167 Cd156 2.439 . S
O167 C161 1.208 . S
O168 Cd169 2.223 . S
O168 C176 1.315 . S
Cd169 O168 2.223 . S
Cd169 O172 2.297 . S
Cd169 O173 2.439 . S
Cd169 O179 2.240 . S
Cd170 O171 2.240 . S
Cd170 O178 2.223 . S
Cd170 O180 2.297 . S
Cd170 O181 2.439 . S
O171 Cd170 2.240 . S
O171 C176 1.279 . S
O172 Cd169 2.297 . S
O172 C174 1.247 . S
O173 Cd169 2.439 . S
O173 C174 1.208 . S
C174 O172 1.247 . S
C174 O173 1.208 . S
C175 O180 1.247 . S
C175 O181 1.208 . S
C176 O168 1.315 . S
C176 O171 1.279 . S
C177 O178 1.315 . S
C177 O179 1.279 . S
O178 Cd170 2.223 . S
O178 C177 1.315 . S
O179 Cd169 2.240 . S
O179 C177 1.279 . S
O180 Cd170 2.297 . S
O180 C175 1.247 . S
O181 Cd170 2.439 . S
O181 C175 1.208 . S
O182 Cd183 2.223 . S
O182 C190 1.315 . S
Cd183 O182 2.223 . S
Cd183 O186 2.297 . S
Cd183 O187 2.439 . S
Cd183 O193 2.240 . S
Cd184 O185 2.240 . S
Cd184 O192 2.223 . S
Cd184 O194 2.297 . S
Cd184 O195 2.439 . S
O185 Cd184 2.240 . S
O185 C190 1.279 . S
O186 Cd183 2.297 . S
O186 C188 1.247 . S
O187 Cd183 2.439 . S
O187 C188 1.208 . S
C188 O186 1.247 . S
C188 O187 1.208 . S
C189 O194 1.247 . S
C189 O195 1.208 . S
C190 O182 1.315 . S
C190 O185 1.279 . S
C191 O192 1.315 . S
C191 O193 1.279 . S
O192 Cd184 2.223 . S
O192 C191 1.315 . S
O193 Cd183 2.240 . S
O193 C191 1.279 . S
O194 Cd184 2.297 . S
O194 C189 1.247 . S
O195 Cd184 2.439 . S
O195 C189 1.208 . S
O196 Cd197 2.223 . S
O196 C204 1.315 . S
Cd197 O196 2.223 . S
Cd197 O200 2.297 . S
Cd197 O201 2.439 . S
Cd197 O207 2.240 . S
Cd198 O199 2.240 . S
Cd198 O206 2.223 . S
Cd198 O208 2.297 . S
Cd198 O209 2.439 . S
O199 Cd198 2.240 . S
O199 C204 1.279 . S
O200 Cd197 2.297 . S
O200 C202 1.247 . S
O201 Cd197 2.439 . S
O201 C202 1.208 . S
C202 O200 1.247 . S
C202 O201 1.208 . S
C203 O208 1.247 . S
C203 O209 1.208 . S
C204 O196 1.315 . S
C204 O199 1.279 . S
C205 O206 1.315 . S
C205 O207 1.279 . S
O206 Cd198 2.223 . S
O206 C205 1.315 . S
O207 Cd197 2.240 . S
O207 C205 1.279 . S
O208 Cd198 2.297 . S
O208 C203 1.247 . S
O209 Cd198 2.439 . S
O209 C203 1.208 . S
O210 Cd211 2.223 . S
O210 C218 1.315 . S
Cd211 O210 2.223 . S
Cd211 O214 2.297 . S
Cd211 O215 2.439 . S
Cd211 O221 2.240 . S
Cd212 O213 2.240 . S
Cd212 O220 2.223 . S
Cd212 O222 2.297 . S
Cd212 O223 2.439 . S
O213 Cd212 2.240 . S
O213 C218 1.279 . S
O214 Cd211 2.297 . S
O214 C216 1.247 . S
O215 Cd211 2.439 . S
O215 C216 1.208 . S
C216 O214 1.247 . S
C216 O215 1.208 . S
C217 O222 1.247 . S
C217 O223 1.208 . S
C218 O210 1.315 . S
C218 O213 1.279 . S
C219 O220 1.315 . S
C219 O221 1.279 . S
O220 Cd212 2.223 . S
O220 C219 1.315 . S
O221 Cd211 2.240 . S
O221 C219 1.279 . S
O222 Cd212 2.297 . S
O222 C217 1.247 . S
O223 Cd212 2.439 . S
O223 C217 1.208 . S
C224 C225 1.369 . S
C224 C226 1.419 . S
C224 H228 0.930 . S
C225 C224 1.369 . S
C225 C234 1.429 1_556 S
C226 C224 1.419 . S
C226 C227 1.363 1_556 S
C226 H229 0.929 . S
C227 C226 1.363 1_554 S
C227 C233 1.428 . S
H228 C224 0.930 . S
H229 C226 0.929 . S
S230 N231 1.613 . S
S230 N232 1.610 . S
N231 S230 1.613 . S
N231 C234 1.350 . S
N232 S230 1.610 . S
N232 C233 1.351 . S
C233 C227 1.428 . S
C233 N232 1.351 . S
C233 C234 1.434 . S
C234 C225 1.429 1_554 S
C234 N231 1.350 . S
C234 C233 1.434 . S
C235 C236 1.369 1_554 S
C235 C237 1.419 . S
C235 H239 0.930 . S
C236 C235 1.369 1_556 S
C236 C245 1.429 . S
C237 C235 1.419 . S
C237 C238 1.363 . S
C237 H240 0.929 . S
C238 C237 1.363 . S
C238 C244 1.428 1_554 S
H239 C235 0.930 . S
H240 C237 0.929 . S
S241 N242 1.613 . S
S241 N243 1.610 . S
N242 S241 1.613 . S
N242 C245 1.350 . S
N243 S241 1.610 . S
N243 C244 1.351 . S
C244 C238 1.428 1_556 S
C244 N243 1.351 . S
C244 C245 1.434 . S
C245 C236 1.429 . S
C245 N242 1.350 . S
C245 C244 1.434 . S
C246 C247 1.369 . S
C246 C248 1.419 . S
C246 H250 0.930 . S
C247 C246 1.369 . S
C247 C256 1.429 1_556 S
C248 C246 1.419 . S
C248 C249 1.363 1_556 S
C248 H251 0.929 . S
C249 C248 1.363 1_554 S
C249 C255 1.428 . S
H250 C246 0.930 . S
H251 C248 0.929 . S
S252 N253 1.613 . S
S252 N254 1.610 . S
N253 S252 1.613 . S
N253 C256 1.350 . S
N254 S252 1.610 . S
N254 C255 1.351 . S
C255 C249 1.428 . S
C255 N254 1.351 . S
C255 C256 1.434 . S
C256 C247 1.429 1_554 S
C256 N253 1.350 . S
C256 C255 1.434 . S
C257 C258 1.369 . S
C257 C259 1.419 . S
C257 H261 0.930 . S
C258 C257 1.369 . S
C258 C267 1.429 1_556 S
C259 C257 1.419 . S
C259 C260 1.363 1_556 S
C259 H262 0.929 . S
C260 C259 1.363 1_554 S
C260 C266 1.428 . S
H261 C257 0.930 . S
H262 C259 0.929 . S
S263 N264 1.613 . S
S263 N265 1.610 . S
N264 S263 1.613 . S
N264 C267 1.350 . S
N265 S263 1.610 . S
N265 C266 1.351 . S
C266 C260 1.428 . S
C266 N265 1.351 . S
C266 C267 1.434 . S
C267 C258 1.429 1_554 S
C267 N264 1.350 . S
C267 C266 1.434 . S
C268 C269 1.369 . S
C268 C270 1.419 1_545 S
C268 H272 0.930 . S
C269 C268 1.369 . S
C269 C278 1.429 . S
C270 C268 1.419 1_565 S
C270 C271 1.363 . S
C270 H273 0.929 . S
C271 C270 1.363 . S
C271 C277 1.428 . S
H272 C268 0.930 . S
H273 C270 0.929 . S
S274 N275 1.613 1_565 S
S274 N276 1.610 . S
N275 S274 1.613 1_545 S
N275 C278 1.350 . S
N276 S274 1.610 . S
N276 C277 1.351 . S
C277 C271 1.428 . S
C277 N276 1.351 . S
C277 C278 1.434 1_565 S
C278 C269 1.429 . S
C278 N275 1.350 . S
C278 C277 1.434 1_545 S
C279 C280 1.369 . S
C279 C281 1.419 1_655 S
C279 H283 0.930 . S
C280 C279 1.369 . S
C280 C289 1.429 . S
C281 C279 1.419 1_455 S
C281 C282 1.363 . S
C281 H284 0.929 . S
C282 C281 1.363 . S
C282 C288 1.428 . S
H283 C279 0.930 . S
H284 C281 0.929 . S
S285 N286 1.613 . S
S285 N287 1.610 1_655 S
N286 S285 1.613 . S
N286 C289 1.350 . S
N287 S285 1.610 1_455 S
N287 C288 1.351 . S
C288 C282 1.428 . S
C288 N287 1.351 . S
C288 C289 1.434 1_455 S
C289 C280 1.429 . S
C289 N286 1.350 . S
C289 C288 1.434 1_655 S
C290 C291 1.369 . S
C290 C292 1.419 1_545 S
C290 H294 0.930 . S
C291 C290 1.369 . S
C291 C300 1.429 . S
C292 C290 1.419 1_565 S
C292 C293 1.363 . S
C292 H295 0.929 . S
C293 C292 1.363 . S
C293 C299 1.428 . S
H294 C290 0.930 . S
H295 C292 0.929 . S
S296 N297 1.613 1_565 S
S296 N298 1.610 . S
N297 S296 1.613 1_545 S
N297 C300 1.350 . S
N298 S296 1.610 . S
N298 C299 1.351 . S
C299 C293 1.428 . S
C299 N298 1.351 . S
C299 C300 1.434 1_565 S
C300 C291 1.429 . S
C300 N297 1.350 . S
C300 C299 1.434 1_545 S
C301 C302 1.369 . S
C301 C303 1.419 1_455 S
C301 H305 0.930 . S
C302 C301 1.369 . S
C302 C311 1.429 . S
C303 C301 1.419 1_655 S
C303 C304 1.363 . S
C303 H306 0.929 . S
C304 C303 1.363 . S
C304 C310 1.428 . S
H305 C301 0.930 . S
H306 C303 0.929 . S
S307 N308 1.613 1_655 S
S307 N309 1.610 . S
N308 S307 1.613 1_455 S
N308 C311 1.350 . S
N309 S307 1.610 . S
N309 C310 1.351 . S
C310 C304 1.428 . S
C310 N309 1.351 . S
C310 C311 1.434 1_655 S
C311 C302 1.429 . S
C311 N308 1.350 . S
C311 C310 1.434 1_455 S
C312 C313 1.369 . S
C312 C314 1.419 . S
C312 H316 0.930 . S
C313 C312 1.369 . S
C313 C322 1.429 . S
C314 C312 1.419 . S
C314 C315 1.363 . S
C314 H317 0.929 . S
C315 C314 1.363 . S
C315 C321 1.428 . S
H316 C312 0.930 . S
H317 C314 0.929 . S
S318 N319 1.613 1_556 S
S318 N320 1.610 . S
N319 S318 1.613 1_554 S
N319 C322 1.350 . S
N320 S318 1.610 . S
N320 C321 1.351 1_556 S
C321 C315 1.428 . S
C321 N320 1.351 1_554 S
C321 C322 1.434 . S
C322 C313 1.429 . S
C322 N319 1.350 . S
C322 C321 1.434 . S
C323 C324 1.369 1_556 S
C323 C325 1.419 1_556 S
C323 H327 0.930 . S
C324 C323 1.369 1_554 S
C324 C333 1.429 . S
C325 C323 1.419 1_554 S
C325 C326 1.363 . S
C325 H328 0.929 . S
C326 C325 1.363 . S
C326 C332 1.428 . S
H327 C323 0.930 . S
H328 C325 0.929 . S
S329 N330 1.613 . S
S329 N331 1.610 . S
N330 S329 1.613 . S
N330 C333 1.350 . S
N331 S329 1.610 . S
N331 C332 1.351 . S
C332 C326 1.428 . S
C332 N331 1.351 . S
C332 C333 1.434 . S
C333 C324 1.429 . S
C333 N330 1.350 . S
C333 C332 1.434 . S
C334 C335 1.369 1_556 S
C334 C336 1.419 . S
C334 H338 0.930 . S
C335 C334 1.369 1_554 S
C335 C344 1.429 . S
C336 C334 1.419 . S
C336 C337 1.363 1_556 S
C336 H339 0.929 . S
C337 C336 1.363 1_554 S
C337 C343 1.428 . S
H338 C334 0.930 . S
H339 C336 0.929 . S
S340 N341 1.613 . S
S340 N342 1.610 . S
N341 S340 1.613 . S
N341 C344 1.350 . S
N342 S340 1.610 . S
N342 C343 1.351 . S
C343 C337 1.428 . S
C343 N342 1.351 . S
C343 C344 1.434 . S
C344 C335 1.429 . S
C344 N341 1.350 . S
C344 C343 1.434 . S
C345 C346 1.369 . S
C345 C347 1.419 . S
C345 H349 0.930 . S
C346 C345 1.369 . S
C346 C355 1.429 1_554 S
C347 C345 1.419 . S
C347 C348 1.363 . S
C347 H350 0.929 . S
C348 C347 1.363 . S
C348 C354 1.428 1_554 S
H349 C345 0.930 . S
H350 C347 0.929 . S
S351 N352 1.613 . S
S351 N353 1.610 . S
N352 S351 1.613 . S
N352 C355 1.350 . S
N353 S351 1.610 . S
N353 C354 1.351 . S
C354 C348 1.428 1_556 S
C354 N353 1.351 . S
C354 C355 1.434 . S
C355 C346 1.429 1_556 S
C355 N352 1.350 . S
C355 C354 1.434 . S
C356 C357 1.369 . S
C356 C358 1.419 . S
C356 H360 0.930 . S
C357 C356 1.369 . S
C357 C366 1.429 . S
C358 C356 1.419 . S
C358 C359 1.363 . S
C358 H361 0.929 . S
C359 C358 1.363 . S
C359 C365 1.428 . S
H360 C356 0.930 . S
H361 C358 0.929 . S
S362 N363 1.613 . S
S362 N364 1.610 . S
N363 S362 1.613 . S
N363 C366 1.350 . S
N364 S362 1.610 . S
N364 C365 1.351 . S
C365 C359 1.428 . S
C365 N364 1.351 . S
C365 C366 1.434 . S
C366 C357 1.429 . S
C366 N363 1.350 . S
C366 C365 1.434 . S
C367 C368 1.369 . S
C367 C369 1.419 . S
C367 H371 0.930 . S
C368 C367 1.369 . S
C368 C377 1.429 . S
C369 C367 1.419 . S
C369 C370 1.363 . S
C369 H372 0.929 . S
C370 C369 1.363 . S
C370 C376 1.428 . S
H371 C367 0.930 . S
H372 C369 0.929 . S
S373 N374 1.613 . S
S373 N375 1.610 . S
N374 S373 1.613 . S
N374 C377 1.350 . S
N375 S373 1.610 . S
N375 C376 1.351 . S
C376 C370 1.428 . S
C376 N375 1.351 . S
C376 C377 1.434 . S
C377 C368 1.429 . S
C377 N374 1.350 . S
C377 C376 1.434 . S
C378 C379 1.369 . S
C378 C380 1.419 . S
C378 H382 0.930 . S
C379 C378 1.369 . S
C379 C388 1.429 . S
C380 C378 1.419 . S
C380 C381 1.363 . S
C380 H383 0.929 . S
C381 C380 1.363 . S
C381 C387 1.428 . S
H382 C378 0.930 . S
H383 C380 0.929 . S
S384 N385 1.613 . S
S384 N386 1.610 . S
N385 S384 1.613 . S
N385 C388 1.350 . S
N386 S384 1.610 . S
N386 C387 1.351 . S
C387 C381 1.428 . S
C387 N386 1.351 . S
C387 C388 1.434 . S
C388 C379 1.429 . S
C388 N385 1.350 . S
C388 C387 1.434 . S
C389 C390 1.369 . S
C389 C391 1.419 . S
C389 H393 0.930 . S
C390 C389 1.369 . S
C390 C399 1.429 . S
C391 C389 1.419 . S
C391 C392 1.363 . S
C391 H394 0.929 . S
C392 C391 1.363 . S
C392 C398 1.428 . S
H393 C389 0.930 . S
H394 C391 0.929 . S
S395 N396 1.613 . S
S395 N397 1.610 . S
N396 S395 1.613 . S
N396 C399 1.350 . S
N397 S395 1.610 . S
N397 C398 1.351 . S
C398 C392 1.428 . S
C398 N397 1.351 . S
C398 C399 1.434 . S
C399 C390 1.429 . S
C399 N396 1.350 . S
C399 C398 1.434 . S
C400 C401 1.369 . S
C400 C402 1.419 . S
C400 H404 0.930 . S
C401 C400 1.369 . S
C401 C410 1.429 . S
C402 C400 1.419 . S
C402 C403 1.363 . S
C402 H405 0.929 . S
C403 C402 1.363 . S
C403 C409 1.428 . S
H404 C400 0.930 . S
H405 C402 0.929 . S
S406 N407 1.613 . S
S406 N408 1.610 . S
N407 S406 1.613 . S
N407 C410 1.350 . S
N408 S406 1.610 . S
N408 C409 1.351 . S
C409 C403 1.428 . S
C409 N408 1.351 . S
C409 C410 1.434 . S
C410 C401 1.429 . S
C410 N407 1.350 . S
C410 C409 1.434 . S
C411 C412 1.369 . S
C411 C413 1.419 . S
C411 H415 0.930 . S
C412 C411 1.369 . S
C412 C421 1.429 . S
C413 C411 1.419 . S
C413 C414 1.363 . S
C413 H416 0.929 . S
C414 C413 1.363 . S
C414 C420 1.428 . S
H415 C411 0.930 . S
H416 C413 0.929 . S
S417 N418 1.613 . S
S417 N419 1.610 . S
N418 S417 1.613 . S
N418 C421 1.350 . S
N419 S417 1.610 . S
N419 C420 1.351 . S
C420 C414 1.428 . S
C420 N419 1.351 . S
C420 C421 1.434 . S
C421 C412 1.429 . S
C421 N418 1.350 . S
C421 C420 1.434 . S
C422 C423 1.369 . S
C422 C424 1.419 . S
C422 H426 0.930 . S
C423 C422 1.369 . S
C423 C432 1.429 . S
C424 C422 1.419 . S
C424 C425 1.363 . S
C424 H427 0.929 . S
C425 C424 1.363 . S
C425 C431 1.428 . S
H426 C422 0.930 . S
H427 C424 0.929 . S
S428 N429 1.613 . S
S428 N430 1.610 . S
N429 S428 1.613 . S
N429 C432 1.350 . S
N430 S428 1.610 . S
N430 C431 1.351 . S
C431 C425 1.428 . S
C431 N430 1.351 . S
C431 C432 1.434 . S
C432 C423 1.429 . S
C432 N429 1.350 . S
C432 C431 1.434 . S
C433 C434 1.369 . S
C433 C435 1.419 . S
C433 H437 0.930 . S
C434 C433 1.369 . S
C434 C443 1.429 . S
C435 C433 1.419 . S
C435 C436 1.363 . S
C435 H438 0.929 . S
C436 C435 1.363 . S
C436 C442 1.428 . S
H437 C433 0.930 . S
H438 C435 0.929 . S
S439 N440 1.613 . S
S439 N441 1.610 . S
N440 S439 1.613 . S
N440 C443 1.350 . S
N441 S439 1.610 . S
N441 C442 1.351 . S
C442 C436 1.428 . S
C442 N441 1.351 . S
C442 C443 1.434 . S
C443 C434 1.429 . S
C443 N440 1.350 . S
C443 C442 1.434 . S
C444 C445 1.369 . S
C444 C446 1.419 . S
C444 H448 0.930 . S
C445 C444 1.369 . S
C445 C454 1.429 . S
C446 C444 1.419 . S
C446 C447 1.363 . S
C446 H449 0.929 . S
C447 C446 1.363 . S
C447 C453 1.428 . S
H448 C444 0.930 . S
H449 C446 0.929 . S
S450 N451 1.613 . S
S450 N452 1.610 . S
N451 S450 1.613 . S
N451 C454 1.350 . S
N452 S450 1.610 . S
N452 C453 1.351 . S
C453 C447 1.428 . S
C453 N452 1.351 . S
C453 C454 1.434 . S
C454 C445 1.429 . S
C454 N451 1.350 . S
C454 C453 1.434 . S
C455 C456 1.369 . S
C455 C457 1.419 . S
C455 H459 0.930 . S
C456 C455 1.369 . S
C456 C465 1.429 . S
C457 C455 1.419 . S
C457 C458 1.363 . S
C457 H460 0.929 . S
C458 C457 1.363 . S
C458 C464 1.428 . S
H459 C455 0.930 . S
H460 C457 0.929 . S
S461 N462 1.613 . S
S461 N463 1.610 . S
N462 S461 1.613 . S
N462 C465 1.350 . S
N463 S461 1.610 . S
N463 C464 1.351 . S
C464 C458 1.428 . S
C464 N463 1.351 . S
C464 C465 1.434 . S
C465 C456 1.429 . S
C465 N462 1.350 . S
C465 C464 1.434 . S
C466 C467 1.369 . S
C466 C468 1.419 . S
C466 H470 0.930 . S
C467 C466 1.369 . S
C467 C476 1.429 . S
C468 C466 1.419 . S
C468 C469 1.363 . S
C468 H471 0.929 . S
C469 C468 1.363 . S
C469 C475 1.428 . S
H470 C466 0.930 . S
H471 C468 0.929 . S
S472 N473 1.613 . S
S472 N474 1.610 . S
N473 S472 1.613 . S
N473 C476 1.350 . S
N474 S472 1.610 . S
N474 C475 1.351 . S
C475 C469 1.428 . S
C475 N474 1.351 . S
C475 C476 1.434 . S
C476 C467 1.429 . S
C476 N473 1.350 . S
C476 C475 1.434 . S
C477 C478 1.369 . S
C477 C479 1.419 . S
C477 H481 0.930 . S
C478 C477 1.369 . S
C478 C487 1.429 . S
C479 C477 1.419 . S
C479 C480 1.363 . S
C479 H482 0.929 . S
C480 C479 1.363 . S
C480 C486 1.428 . S
H481 C477 0.930 . S
H482 C479 0.929 . S
S483 N484 1.613 . S
S483 N485 1.610 . S
N484 S483 1.613 . S
N484 C487 1.350 . S
N485 S483 1.610 . S
N485 C486 1.351 . S
C486 C480 1.428 . S
C486 N485 1.351 . S
C486 C487 1.434 . S
C487 C478 1.429 . S
C487 N484 1.350 . S
C487 C486 1.434 . S
C488 C489 1.369 . S
C488 C490 1.419 . S
C488 H492 0.930 . S
C489 C488 1.369 . S
C489 C498 1.429 . S
C490 C488 1.419 . S
C490 C491 1.363 . S
C490 H493 0.929 . S
C491 C490 1.363 . S
C491 C497 1.428 . S
H492 C488 0.930 . S
H493 C490 0.929 . S
S494 N495 1.613 . S
S494 N496 1.610 . S
N495 S494 1.613 . S
N495 C498 1.350 . S
N496 S494 1.610 . S
N496 C497 1.351 . S
C497 C491 1.428 . S
C497 N496 1.351 . S
C497 C498 1.434 . S
C498 C489 1.429 . S
C498 N495 1.350 . S
C498 C497 1.434 . S
C499 C500 1.369 . S
C499 C501 1.419 . S
C499 H503 0.930 . S
C500 C499 1.369 . S
C500 C509 1.429 . S
C501 C499 1.419 . S
C501 C502 1.363 . S
C501 H504 0.929 . S
C502 C501 1.363 . S
C502 C508 1.428 . S
H503 C499 0.930 . S
H504 C501 0.929 . S
S505 N506 1.613 . S
S505 N507 1.610 . S
N506 S505 1.613 . S
N506 C509 1.350 . S
N507 S505 1.610 . S
N507 C508 1.351 . S
C508 C502 1.428 . S
C508 N507 1.351 . S
C508 C509 1.434 . S
C509 C500 1.429 . S
C509 N506 1.350 . S
C509 C508 1.434 . S
C510 C511 1.369 . S
C510 C512 1.419 . S
C510 H514 0.930 . S
C511 C510 1.369 . S
C511 C520 1.429 . S
C512 C510 1.419 . S
C512 C513 1.363 . S
C512 H515 0.929 . S
C513 C512 1.363 . S
C513 C519 1.428 . S
H514 C510 0.930 . S
H515 C512 0.929 . S
S516 N517 1.613 . S
S516 N518 1.610 . S
N517 S516 1.613 . S
N517 C520 1.350 . S
N518 S516 1.610 . S
N518 C519 1.351 . S
C519 C513 1.428 . S
C519 N518 1.351 . S
C519 C520 1.434 . S
C520 C511 1.429 . S
C520 N517 1.350 . S
C520 C519 1.434 . S
C521 C522 1.369 . S
C521 C523 1.419 . S
C521 H525 0.930 . S
C522 C521 1.369 . S
C522 C531 1.429 . S
C523 C521 1.419 . S
C523 C524 1.363 . S
C523 H526 0.929 . S
C524 C523 1.363 . S
C524 C530 1.428 . S
H525 C521 0.930 . S
H526 C523 0.929 . S
S527 N528 1.613 . S
S527 N529 1.610 . S
N528 S527 1.613 . S
N528 C531 1.350 . S
N529 S527 1.610 . S
N529 C530 1.351 . S
C530 C524 1.428 . S
C530 N529 1.351 . S
C530 C531 1.434 . S
C531 C522 1.429 . S
C531 N528 1.350 . S
C531 C530 1.434 . S
C532 C533 1.369 . S
C532 C534 1.419 . S
C532 H536 0.930 . S
C533 C532 1.369 . S
C533 C542 1.429 . S
C534 C532 1.419 . S
C534 C535 1.363 . S
C534 H537 0.929 . S
C535 C534 1.363 . S
C535 C541 1.428 . S
H536 C532 0.930 . S
H537 C534 0.929 . S
S538 N539 1.613 . S
S538 N540 1.610 . S
N539 S538 1.613 . S
N539 C542 1.350 . S
N540 S538 1.610 . S
N540 C541 1.351 . S
C541 C535 1.428 . S
C541 N540 1.351 . S
C541 C542 1.434 . S
C542 C533 1.429 . S
C542 N539 1.350 . S
C542 C541 1.434 . S
C543 C544 1.369 . S
C543 C545 1.419 . S
C543 H547 0.930 . S
C544 C543 1.369 . S
C544 C553 1.429 . S
C545 C543 1.419 . S
C545 C546 1.363 . S
C545 H548 0.929 . S
C546 C545 1.363 . S
C546 C552 1.428 . S
H547 C543 0.930 . S
H548 C545 0.929 . S
S549 N550 1.613 . S
S549 N551 1.610 . S
N550 S549 1.613 . S
N550 C553 1.350 . S
N551 S549 1.610 . S
N551 C552 1.351 . S
C552 C546 1.428 . S
C552 N551 1.351 . S
C552 C553 1.434 . S
C553 C544 1.429 . S
C553 N550 1.350 . S
C553 C552 1.434 . S
C554 C555 1.369 . S
C554 C556 1.419 . S
C554 H558 0.930 . S
C555 C554 1.369 . S
C555 C564 1.429 . S
C556 C554 1.419 . S
C556 C557 1.363 . S
C556 H559 0.929 . S
C557 C556 1.363 . S
C557 C563 1.428 . S
H558 C554 0.930 . S
H559 C556 0.929 . S
S560 N561 1.613 . S
S560 N562 1.610 . S
N561 S560 1.613 . S
N561 C564 1.350 . S
N562 S560 1.610 . S
N562 C563 1.351 . S
C563 C557 1.428 . S
C563 N562 1.351 . S
C563 C564 1.434 . S
C564 C555 1.429 . S
C564 N561 1.350 . S
C564 C563 1.434 . S
C565 C566 1.369 . S
C565 C567 1.419 . S
C565 H569 0.930 . S
C566 C565 1.369 . S
C566 C575 1.429 . S
C567 C565 1.419 . S
C567 C568 1.363 . S
C567 H570 0.929 . S
C568 C567 1.363 . S
C568 C574 1.428 . S
H569 C565 0.930 . S
H570 C567 0.929 . S
S571 N572 1.613 . S
S571 N573 1.610 . S
N572 S571 1.613 . S
N572 C575 1.350 . S
N573 S571 1.610 . S
N573 C574 1.351 . S
C574 C568 1.428 . S
C574 N573 1.351 . S
C574 C575 1.434 . S
C575 C566 1.429 . S
C575 N572 1.350 . S
C575 C574 1.434 . S
C225 C62 1.597 . S
C227 C6 1.599 . S
C236 C76 1.602 . S
C238 C20 1.599 . S
C247 C90 1.599 . S
C249 C34 1.601 . S
C258 C104 1.598 . S
C260 C48 1.600 . S
C269 C174 1.601 . S
C271 C118 1.602 . S
C280 C188 1.600 . S
C282 C132 1.601 . S
C291 C146 1.598 . S
C293 C202 1.597 . S
C302 C216 1.602 . S
C304 C160 1.601 . S
C313 C9 1.519 . S
C315 C79 1.518 . S
C324 C93 1.521 . S
C326 C23 1.524 . S
C335 C37 1.522 . S
C337 C107 1.518 . S
C346 C65 1.524 . S
C348 C51 1.519 . S
C357 C191 1.519 . S
C359 C121 1.518 . S
C368 C205 1.521 . S
C370 C135 1.518 . S
C379 C149 1.517 . S
C381 C219 1.521 . S
C390 C163 1.519 . S
C392 C177 1.524 . S
C401 C218 1.900 . S
C403 C8 1.903 . S
C412 C176 1.900 . S
C414 C22 1.902 . S
C423 C190 1.900 . S
C425 C36 1.903 . S
C434 C204 1.903 . S
C436 C50 1.900 . S
C445 C134 1.902 . S
C447 C64 1.901 . S
C456 C148 1.902 . S
C458 C78 1.900 . S
C467 C92 1.903 . S
C469 C162 1.900 . S
C478 C106 1.903 . S
C480 C120 1.900 . S
C489 C189 1.104 . S
C491 C35 1.106 . S
C500 C203 1.105 . S
C502 C49 1.106 . S
C511 C217 1.102 . S
C513 C7 1.106 . S
C522 C21 1.107 . S
C524 C175 1.104 . S
C533 C161 1.103 . S
C535 C91 1.104 . S
C544 C105 1.106 . S
C546 C119 1.103 . S
C555 C133 1.105 . S
C557 C63 1.106 . S
C566 C147 1.107 . S
C568 C77 1.104 . S
