# Generated by pormake.
# Topology reo-e, (6)-cn, num edge types: 1
# Building blocks:
#     Node 0, Type 0, BuildingBlock: OJICUG_clean_sbu_0, # of connection points: 6
#     Node 1, Type 0, BuildingBlock: OJICUG_clean_sbu_0, # of connection points: 6
#     Node 2, Type 0, BuildingBlock: OJICUG_clean_sbu_0, # of connection points: 6
#     Node 3, Type 0, BuildingBlock: OJICUG_clean_sbu_0, # of connection points: 6
#     Node 4, Type 0, BuildingBlock: OJICUG_clean_sbu_0, # of connection points: 6
#     Node 5, Type 0, BuildingBlock: OJICUG_clean_sbu_0, # of connection points: 6
#     Node 6, Type 0, BuildingBlock: OJICUG_clean_sbu_0, # of connection points: 6
#     Node 7, Type 0, BuildingBlock: OJICUG_clean_sbu_0, # of connection points: 6
#     Node 8, Type 0, BuildingBlock: OJICUG_clean_sbu_0, # of connection points: 6
#     Node 9, Type 0, BuildingBlock: OJICUG_clean_sbu_0, # of connection points: 6
#     Node 10, Type 0, BuildingBlock: OJICUG_clean_sbu_0, # of connection points: 6
#     Node 11, Type 0, BuildingBlock: OJICUG_clean_sbu_0, # of connection points: 6
#     Edge 12, Type (0, 0), BuildingBlock: TEMPAE_clean_linker_10, # of connection points: 2
#     Edge 13, Type (0, 0), BuildingBlock: TEMPAE_clean_linker_10, # of connection points: 2
#     Edge 14, Type (0, 0), BuildingBlock: TEMPAE_clean_linker_10, # of connection points: 2
#     Edge 15, Type (0, 0), BuildingBlock: TEMPAE_clean_linker_10, # of connection points: 2
#     Edge 16, Type (0, 0), BuildingBlock: TEMPAE_clean_linker_10, # of connection points: 2
#     Edge 17, Type (0, 0), BuildingBlock: TEMPAE_clean_linker_10, # of connection points: 2
#     Edge 18, Type (0, 0), BuildingBlock: TEMPAE_clean_linker_10, # of connection points: 2
#     Edge 19, Type (0, 0), BuildingBlock: TEMPAE_clean_linker_10, # of connection points: 2
#     Edge 20, Type (0, 0), BuildingBlock: TEMPAE_clean_linker_10, # of connection points: 2
#     Edge 21, Type (0, 0), BuildingBlock: TEMPAE_clean_linker_10, # of connection points: 2
#     Edge 22, Type (0, 0), BuildingBlock: TEMPAE_clean_linker_10, # of connection points: 2
#     Edge 23, Type (0, 0), BuildingBlock: TEMPAE_clean_linker_10, # of connection points: 2
#     Edge 24, Type (0, 0), BuildingBlock: TEMPAE_clean_linker_10, # of connection points: 2
#     Edge 25, Type (0, 0), BuildingBlock: TEMPAE_clean_linker_10, # of connection points: 2
#     Edge 26, Type (0, 0), BuildingBlock: TEMPAE_clean_linker_10, # of connection points: 2
#     Edge 27, Type (0, 0), BuildingBlock: TEMPAE_clean_linker_10, # of connection points: 2
#     Edge 28, Type (0, 0), BuildingBlock: TEMPAE_clean_linker_10, # of connection points: 2
#     Edge 29, Type (0, 0), BuildingBlock: TEMPAE_clean_linker_10, # of connection points: 2
#     Edge 30, Type (0, 0), BuildingBlock: TEMPAE_clean_linker_10, # of connection points: 2
#     Edge 31, Type (0, 0), BuildingBlock: TEMPAE_clean_linker_10, # of connection points: 2
#     Edge 32, Type (0, 0), BuildingBlock: TEMPAE_clean_linker_10, # of connection points: 2
#     Edge 33, Type (0, 0), BuildingBlock: TEMPAE_clean_linker_10, # of connection points: 2
#     Edge 34, Type (0, 0), BuildingBlock: TEMPAE_clean_linker_10, # of connection points: 2
#     Edge 35, Type (0, 0), BuildingBlock: TEMPAE_clean_linker_10, # of connection points: 2
#     Edge 36, Type (0, 0), BuildingBlock: TEMPAE_clean_linker_10, # of connection points: 2
#     Edge 37, Type (0, 0), BuildingBlock: TEMPAE_clean_linker_10, # of connection points: 2
#     Edge 38, Type (0, 0), BuildingBlock: TEMPAE_clean_linker_10, # of connection points: 2
#     Edge 39, Type (0, 0), BuildingBlock: TEMPAE_clean_linker_10, # of connection points: 2
#     Edge 40, Type (0, 0), BuildingBlock: TEMPAE_clean_linker_10, # of connection points: 2
#     Edge 41, Type (0, 0), BuildingBlock: TEMPAE_clean_linker_10, # of connection points: 2
#     Edge 42, Type (0, 0), BuildingBlock: TEMPAE_clean_linker_10, # of connection points: 2
#     Edge 43, Type (0, 0), BuildingBlock: TEMPAE_clean_linker_10, # of connection points: 2
#     Edge 44, Type (0, 0), BuildingBlock: TEMPAE_clean_linker_10, # of connection points: 2
#     Edge 45, Type (0, 0), BuildingBlock: TEMPAE_clean_linker_10, # of connection points: 2
#     Edge 46, Type (0, 0), BuildingBlock: TEMPAE_clean_linker_10, # of connection points: 2
#     Edge 47, Type (0, 0), BuildingBlock: TEMPAE_clean_linker_10, # of connection points: 2
# Relax obj value: 0.131
# Max RMSD: 0.142
# Mean RMSD: 0.142
data_MOF--net-reo-e--node1-OJICUG_clean_sbu_0--edge1-TEMPAE_clean_linker_10
_symmetry_space_group_name_H-M    P1
_symmetry_Int_Tables_number       1
_symmetry_cell_setting            triclinic
loop_
_symmetry_equiv_pos_as_xyz
'x, y, z'
_cell_length_a     40.12086
_cell_length_b     40.186226
_cell_length_c     40.206193
_cell_angle_alpha  89.963505
_cell_angle_beta   89.995324
_cell_angle_gamma 90.011678
loop_
_atom_site_label
_atom_site_type_symbol
_atom_site_fract_x
_atom_site_fract_y
_atom_site_fract_z
_atom_type_partial_charge
Sc0 Sc 0.18466 0.18344 0.45018 0.0
Sc1 Sc 0.24637 0.22755 0.49313 0.0
Sc2 Sc 0.18484 0.18556 0.53728 0.0
O3 O 0.20528 0.19884 0.49338 0.0
C4 C 0.1204 0.19641 0.49207 0.0
C5 C 0.2049 0.25879 0.43442 0.0
C6 C 0.20323 0.25923 0.55244 0.0
C7 C 0.26067 0.17771 0.43259 0.0
C8 C 0.1807 0.11904 0.49696 0.0
C9 C 0.26269 0.18175 0.55328 0.0
O10 O 0.13607 0.19966 0.4649 0.0
O11 O 0.22338 0.26266 0.45985 0.0
O12 O 0.18115 0.23653 0.55304 0.0
O13 O 0.23126 0.16626 0.43043 0.0
O14 O 0.18769 0.13411 0.52388 0.0
O15 O 0.27221 0.1944 0.52596 0.0
O16 O 0.17575 0.13392 0.46939 0.0
O17 O 0.26877 0.20105 0.45231 0.0
O18 O 0.23227 0.18059 0.56201 0.0
O19 O 0.1916 0.23111 0.42666 0.0
O20 O 0.13447 0.18839 0.51919 0.0
O21 O 0.22938 0.25744 0.53457 0.0
Sc22 Sc 0.80932 0.18479 0.53668 0.0
Sc23 Sc 0.75194 0.23701 0.49625 0.0
Sc24 Sc 0.80328 0.18404 0.44941 0.0
O25 O 0.78805 0.2019 0.4941 0.0
C26 C 0.87151 0.19195 0.48949 0.0
C27 C 0.79952 0.26151 0.55392 0.0
C28 C 0.79529 0.26101 0.43414 0.0
C29 C 0.73335 0.18804 0.55651 0.0
C30 C 0.8041 0.1189 0.49259 0.0
C31 C 0.72487 0.19154 0.43809 0.0
O32 O 0.85815 0.19466 0.51797 0.0
O33 O 0.77948 0.26747 0.53028 0.0
O34 O 0.80952 0.23318 0.42932 0.0
O35 O 0.76191 0.1746 0.55911 0.0
O36 O 0.79821 0.13362 0.46534 0.0
O37 O 0.72029 0.21139 0.46214 0.0
O38 O 0.81091 0.13409 0.51944 0.0
O39 O 0.72674 0.21136 0.5361 0.0
O40 O 0.75333 0.18034 0.42999 0.0
O41 O 0.81076 0.23269 0.56014 0.0
O42 O 0.85522 0.18534 0.46319 0.0
O43 O 0.77326 0.26567 0.45639 0.0
Sc44 Sc 0.80218 0.80436 0.53569 0.0
Sc45 Sc 0.75093 0.75233 0.48796 0.0
Sc46 Sc 0.80938 0.80354 0.44821 0.0
O47 O 0.78757 0.78683 0.49063 0.0
C48 C 0.80438 0.86969 0.49101 0.0
C49 C 0.72506 0.7976 0.54793 0.0
C50 C 0.73194 0.80128 0.42942 0.0
C51 C 0.79245 0.72629 0.54902 0.0
C52 C 0.87102 0.79584 0.49742 0.0
C53 C 0.79893 0.72835 0.42948 0.0
O54 O 0.80357 0.85491 0.5189 0.0
O55 O 0.72228 0.77384 0.5274 0.0
O56 O 0.76205 0.80918 0.42321 0.0
O57 O 0.80145 0.75541 0.55769 0.0
O58 O 0.8583 0.79866 0.46866 0.0
O59 O 0.77368 0.72511 0.44815 0.0
O60 O 0.85422 0.79721 0.5242 0.0
O61 O 0.77617 0.72026 0.52255 0.0
O62 O 0.81622 0.75467 0.42827 0.0
O63 O 0.75196 0.8137 0.55201 0.0
O64 O 0.80597 0.8546 0.46334 0.0
O65 O 0.72343 0.78243 0.4534 0.0
Sc66 Sc 0.18731 0.80364 0.45375 0.0
Sc67 Sc 0.2463 0.76021 0.50171 0.0
Sc68 Sc 0.18134 0.80359 0.54124 0.0
O69 O 0.20498 0.78913 0.49889 0.0
C70 C 0.18062 0.86941 0.4963 0.0
C71 C 0.26578 0.80518 0.44016 0.0
C72 C 0.25781 0.81098 0.5613 0.0
C73 C 0.20548 0.72772 0.4416 0.0
C74 C 0.11976 0.79123 0.49406 0.0
C75 C 0.2015 0.72948 0.55942 0.0
O76 O 0.18617 0.85473 0.46885 0.0
O77 O 0.27315 0.78772 0.46529 0.0
O78 O 0.22708 0.81732 0.56559 0.0
O79 O 0.1876 0.75322 0.43566 0.0
O80 O 0.13323 0.79096 0.52253 0.0
O81 O 0.22543 0.72826 0.53887 0.0
O82 O 0.13574 0.79713 0.46745 0.0
O83 O 0.228 0.72686 0.46392 0.0
O84 O 0.18278 0.75468 0.56288 0.0
O85 O 0.236 0.81265 0.43256 0.0
O86 O 0.17684 0.8542 0.52383 0.0
O87 O 0.26854 0.79132 0.53899 0.0
Sc88 Sc 0.45111 0.18654 0.18257 0.0
Sc89 Sc 0.49592 0.23588 0.23897 0.0
Sc90 Sc 0.53867 0.18338 0.18379 0.0
O91 O 0.49521 0.20201 0.20174 0.0
C92 C 0.49352 0.11938 0.18593 0.0
C93 C 0.43368 0.19049 0.2591 0.0
C94 C 0.55399 0.18798 0.26146 0.0
C95 C 0.43834 0.2643 0.19365 0.0
C96 C 0.49491 0.19114 0.11789 0.0
C97 C 0.557 0.25896 0.19286 0.0
O98 O 0.46665 0.13526 0.18052 0.0
O99 O 0.45491 0.21323 0.2649 0.0
O100 O 0.56154 0.1799 0.2319 0.0
O101 O 0.43045 0.23603 0.18186 0.0
O102 O 0.5219 0.18439 0.13296 0.0
O103 O 0.53661 0.26304 0.21676 0.0
O104 O 0.4673 0.19524 0.13268 0.0
O105 O 0.46252 0.26865 0.21353 0.0
O106 O 0.55968 0.23193 0.17672 0.0
O107 O 0.4305 0.17649 0.23096 0.0
O108 O 0.52156 0.1334 0.19007 0.0
O109 O 0.52917 0.20622 0.26862 0.0
Sc110 Sc 0.80332 0.53864 0.18063 0.0
Sc111 Sc 0.76095 0.49365 0.24239 0.0
Sc112 Sc 0.80549 0.45152 0.18133 0.0
O113 O 0.78968 0.49482 0.20133 0.0
C114 C 0.79698 0.49599 0.11614 0.0
C115 C 0.72713 0.55133 0.20009 0.0
C116 C 0.73143 0.43504 0.19649 0.0
C117 C 0.80806 0.55565 0.25739 0.0
C118 C 0.8702 0.49521 0.18254 0.0
C119 C 0.80667 0.43335 0.25845 0.0
O120 O 0.79114 0.5229 0.13138 0.0
O121 O 0.72563 0.52786 0.22128 0.0
O122 O 0.75507 0.43468 0.17536 0.0
O123 O 0.81683 0.56027 0.22743 0.0
O124 O 0.85592 0.46739 0.18764 0.0
O125 O 0.79379 0.46045 0.268 0.0
O126 O 0.85456 0.52207 0.1759 0.0
O127 O 0.78736 0.53345 0.26619 0.0
O128 O 0.8088 0.42538 0.22801 0.0
O129 O 0.7535 0.55864 0.18403 0.0
O130 O 0.80527 0.46939 0.13094 0.0
O131 O 0.73187 0.45267 0.22288 0.0
Sc132 Sc 0.45057 0.805 0.18167 0.0
Sc133 Sc 0.49061 0.75361 0.23809 0.0
Sc134 Sc 0.5372 0.80474 0.18634 0.0
O135 O 0.49286 0.78773 0.20193 0.0
C136 C 0.49927 0.79976 0.11925 0.0
C137 C 0.43198 0.7309 0.18907 0.0
C138 C 0.55091 0.72699 0.19788 0.0
C139 C 0.43194 0.79951 0.25838 0.0
C140 C 0.49191 0.87002 0.1869 0.0
C141 C 0.55146 0.79937 0.26178 0.0
O142 O 0.47201 0.80865 0.13271 0.0
O143 O 0.4478 0.72904 0.21647 0.0
O144 O 0.56058 0.75647 0.19127 0.0
O145 O 0.42359 0.80357 0.22814 0.0
O146 O 0.51896 0.85499 0.17991 0.0
O147 O 0.53312 0.77364 0.26415 0.0
O148 O 0.46471 0.85499 0.19281 0.0
O149 O 0.4589 0.78542 0.26714 0.0
O150 O 0.55205 0.81765 0.236 0.0
O151 O 0.43425 0.75571 0.16964 0.0
O152 O 0.52525 0.79265 0.13583 0.0
O153 O 0.52268 0.72056 0.21081 0.0
Sc154 Sc 0.18515 0.4527 0.18991 0.0
Sc155 Sc 0.24569 0.49865 0.23087 0.0
Sc156 Sc 0.18313 0.53973 0.18614 0.0
O157 O 0.2046 0.49722 0.20234 0.0
C158 C 0.18102 0.49152 0.12271 0.0
C159 C 0.26317 0.43745 0.18736 0.0
C160 C 0.25899 0.55816 0.17968 0.0
C161 C 0.20315 0.43964 0.26379 0.0
C162 C 0.11952 0.4969 0.19819 0.0
C163 C 0.20324 0.55722 0.26108 0.0
O164 O 0.18883 0.46509 0.13829 0.0
O165 O 0.27219 0.46553 0.19857 0.0
O166 O 0.22944 0.55994 0.16855 0.0
O167 O 0.18092 0.43838 0.24125 0.0
O168 O 0.13455 0.52436 0.20224 0.0
O169 O 0.22222 0.53222 0.26523 0.0
O170 O 0.13452 0.47009 0.19088 0.0
O171 O 0.22916 0.45766 0.26145 0.0
O172 O 0.18959 0.5644 0.2334 0.0
O173 O 0.23288 0.42826 0.18661 0.0
O174 O 0.1749 0.51915 0.13706 0.0
O175 O 0.26743 0.53904 0.2034 0.0
Sc176 Sc 0.45301 0.8042 0.80705 0.0
Sc177 Sc 0.49545 0.75579 0.74823 0.0
Sc178 Sc 0.53992 0.80566 0.80341 0.0
O179 O 0.49595 0.78848 0.78622 0.0
C180 C 0.49711 0.8704 0.80185 0.0
C181 C 0.43266 0.80183 0.73152 0.0
C182 C 0.5539 0.80148 0.72542 0.0
C183 C 0.43913 0.72667 0.79445 0.0
C184 C 0.49798 0.79913 0.87024 0.0
C185 C 0.55641 0.73084 0.7934 0.0
O186 O 0.47049 0.85513 0.81006 0.0
O187 O 0.4529 0.77841 0.72497 0.0
O188 O 0.5632 0.80629 0.7552 0.0
O189 O 0.43132 0.75495 0.8064 0.0
O190 O 0.52394 0.80761 0.85435 0.0
O191 O 0.53807 0.729 0.76757 0.0
O192 O 0.47035 0.79319 0.85616 0.0
O193 O 0.4634 0.72223 0.77462 0.0
O194 O 0.55727 0.75618 0.81223 0.0
O195 O 0.43139 0.81628 0.75958 0.0
O196 O 0.52434 0.85572 0.79522 0.0
O197 O 0.5268 0.78694 0.71809 0.0
Sc198 Sc 0.18308 0.44968 0.80663 0.0
Sc199 Sc 0.24235 0.49279 0.75902 0.0
Sc200 Sc 0.18593 0.53695 0.80887 0.0
O201 O 0.20389 0.49313 0.79145 0.0
C202 C 0.11974 0.4942 0.79756 0.0
C203 C 0.19933 0.4332 0.73063 0.0
C204 C 0.1972 0.55318 0.73296 0.0
C205 C 0.25974 0.43269 0.80856 0.0
C206 C 0.18318 0.49321 0.87325 0.0
C207 C 0.26382 0.55262 0.80538 0.0
O208 O 0.13428 0.46648 0.79342 0.0
O209 O 0.21841 0.45799 0.72615 0.0
O210 O 0.18086 0.55688 0.75979 0.0
O211 O 0.23048 0.42922 0.8202 0.0
O212 O 0.19027 0.52063 0.85927 0.0
O213 O 0.27122 0.52754 0.78771 0.0
O214 O 0.17702 0.46665 0.85721 0.0
O215 O 0.26717 0.45337 0.78571 0.0
O216 O 0.23411 0.55985 0.81343 0.0
O217 O 0.18634 0.42636 0.75859 0.0
O218 O 0.13488 0.52056 0.80629 0.0
O219 O 0.22077 0.53222 0.72953 0.0
Sc220 Sc 0.45159 0.18339 0.80213 0.0
Sc221 Sc 0.49456 0.23903 0.75022 0.0
Sc222 Sc 0.53892 0.18706 0.80466 0.0
O223 O 0.49503 0.20314 0.78563 0.0
C224 C 0.49418 0.18973 0.86886 0.0
C225 C 0.43212 0.25891 0.79532 0.0
C226 C 0.55099 0.26544 0.79764 0.0
C227 C 0.43844 0.19105 0.724 0.0
C228 C 0.49699 0.11973 0.79882 0.0
C229 C 0.5576 0.19518 0.72911 0.0
O230 O 0.46739 0.18309 0.85336 0.0
O231 O 0.45236 0.26405 0.77157 0.0
O232 O 0.55948 0.23654 0.80728 0.0
O233 O 0.43048 0.18088 0.75288 0.0
O234 O 0.5237 0.1356 0.80496 0.0
O235 O 0.53682 0.21859 0.72454 0.0
O236 O 0.46898 0.13377 0.79471 0.0
O237 O 0.46258 0.21071 0.71852 0.0
O238 O 0.55985 0.17893 0.75612 0.0
O239 O 0.4303 0.23158 0.81105 0.0
O240 O 0.52198 0.19414 0.85451 0.0
O241 O 0.52649 0.27088 0.77844 0.0
Sc242 Sc 0.80657 0.53899 0.79964 0.0
Sc243 Sc 0.7442 0.49411 0.75775 0.0
Sc244 Sc 0.80503 0.45174 0.80302 0.0
O245 O 0.78532 0.49513 0.78669 0.0
C246 C 0.87072 0.49491 0.79236 0.0
C247 C 0.78767 0.55075 0.72348 0.0
C248 C 0.78947 0.435 0.72885 0.0
C249 C 0.72965 0.55699 0.80359 0.0
C250 C 0.80527 0.49656 0.86706 0.0
C251 C 0.72745 0.43499 0.80539 0.0
O252 O 0.85587 0.52237 0.78815 0.0
O253 O 0.76562 0.52804 0.72239 0.0
O254 O 0.80971 0.43369 0.75315 0.0
O255 O 0.75975 0.56177 0.81203 0.0
O256 O 0.80068 0.46848 0.85321 0.0
O257 O 0.71815 0.46114 0.79049 0.0
O258 O 0.81073 0.52346 0.85108 0.0
O259 O 0.72062 0.53409 0.78384 0.0
O260 O 0.75783 0.42694 0.80851 0.0
O261 O 0.80409 0.55792 0.74958 0.0
O262 O 0.85571 0.46839 0.80044 0.0
O263 O 0.76349 0.45326 0.72859 0.0
C264 C 0.19605 0.28142 0.37761 0.0
C265 C 0.20008 0.28716 0.41174 0.0
C266 C 0.19409 0.30794 0.35513 0.0
C267 C 0.19531 0.34098 0.36724 0.0
C268 C 0.19782 0.34696 0.40184 0.0
C269 C 0.20069 0.31989 0.42372 0.0
C270 C 0.1923 0.30057 0.31833 0.0
C271 C 0.19834 0.38189 0.41563 0.0
C272 C 0.22974 0.40432 0.30689 0.0
C273 C 0.20057 0.41691 0.29243 0.0
C274 C 0.2283 0.38016 0.3319 0.0
C275 C 0.19688 0.36899 0.34331 0.0
C276 C 0.16728 0.38278 0.32996 0.0
C277 C 0.16947 0.40628 0.30421 0.0
C278 C 0.26043 0.36545 0.34491 0.0
C279 C 0.13339 0.37203 0.34223 0.0
H280 H 0.19582 0.25611 0.36828 0.0
H281 H 0.20346 0.32432 0.45017 0.0
H282 H 0.17048 0.31321 0.30707 0.0
H283 H 0.21492 0.31037 0.30579 0.0
H284 H 0.19042 0.27348 0.31312 0.0
H285 H 0.19659 0.38221 0.44321 0.0
H286 H 0.2218 0.39448 0.40821 0.0
H287 H 0.17741 0.39661 0.4052 0.0
H288 H 0.25384 0.41226 0.2976 0.0
H289 H 0.14691 0.41622 0.29318 0.0
H290 H 0.26142 0.33852 0.33888 0.0
H291 H 0.26157 0.36774 0.37237 0.0
H292 H 0.28279 0.37769 0.33413 0.0
H293 H 0.12868 0.34586 0.33485 0.0
H294 H 0.11308 0.3878 0.332 0.0
H295 H 0.13243 0.37308 0.36979 0.0
C296 C 0.56555 0.17165 0.32021 0.0
C297 C 0.57721 0.17885 0.28818 0.0
C298 C 0.58798 0.16696 0.34657 0.0
C299 C 0.62254 0.17107 0.34078 0.0
C300 C 0.6344 0.17684 0.30812 0.0
C301 C 0.61153 0.18008 0.28208 0.0
C302 C 0.5746 0.15942 0.38083 0.0
C303 C 0.67098 0.18238 0.30105 0.0
C304 C 0.67506 0.2107 0.40765 0.0
C305 C 0.69642 0.18458 0.41627 0.0
C306 C 0.65019 0.20625 0.38375 0.0
C307 C 0.64585 0.17452 0.36911 0.0
C308 C 0.66599 0.14745 0.37933 0.0
C309 C 0.6917 0.153 0.40235 0.0
C310 C 0.62995 0.23604 0.3728 0.0
C311 C 0.66109 0.11301 0.36522 0.0
H312 H 0.53894 0.17029 0.32474 0.0
H313 H 0.62048 0.18584 0.25728 0.0
H314 H 0.59011 0.14025 0.39332 0.0
H315 H 0.57551 0.18223 0.39631 0.0
H316 H 0.54837 0.15058 0.37995 0.0
H317 H 0.67624 0.18443 0.274 0.0
H318 H 0.67931 0.20568 0.31333 0.0
H319 H 0.68611 0.16176 0.3114 0.0
H320 H 0.67901 0.23519 0.41828 0.0
H321 H 0.70818 0.13279 0.40935 0.0
H322 H 0.60296 0.23097 0.37586 0.0
H323 H 0.63444 0.24099 0.346 0.0
H324 H 0.63625 0.25886 0.38706 0.0
H325 H 0.6342 0.10652 0.3646 0.0
H326 H 0.6746 0.09384 0.37989 0.0
H327 H 0.67043 0.11222 0.33928 0.0
C328 C 0.781 0.68267 0.39249 0.0
C329 C 0.80695 0.70117 0.40652 0.0
C330 C 0.78751 0.65823 0.36871 0.0
C331 C 0.82092 0.6515 0.35954 0.0
C332 C 0.84739 0.66925 0.37455 0.0
C333 C 0.84002 0.69443 0.39756 0.0
C334 C 0.7585 0.64029 0.35274 0.0
C335 C 0.88329 0.66191 0.36606 0.0
C336 C 0.82283 0.56902 0.31592 0.0
C337 C 0.81963 0.57923 0.28277 0.0
C338 C 0.82726 0.59242 0.3413 0.0
C339 C 0.82734 0.62668 0.3332 0.0
C340 C 0.82697 0.63688 0.2995 0.0
C341 C 0.82353 0.61286 0.27455 0.0
C342 C 0.82882 0.58062 0.37691 0.0
C343 C 0.82644 0.67321 0.28989 0.0
H344 H 0.75541 0.68816 0.39925 0.0
H345 H 0.86007 0.70869 0.4087 0.0
H346 H 0.75907 0.64401 0.32539 0.0
H347 H 0.7604 0.61317 0.35746 0.0
H348 H 0.73404 0.6491 0.36225 0.0
H349 H 0.90091 0.6755 0.38248 0.0
H350 H 0.88825 0.63482 0.36818 0.0
H351 H 0.88838 0.66915 0.33993 0.0
H352 H 0.82041 0.54286 0.32215 0.0
H353 H 0.8211 0.62072 0.24886 0.0
H354 H 0.80407 0.58397 0.38876 0.0
H355 H 0.84715 0.59541 0.39135 0.0
H356 H 0.83564 0.55387 0.37855 0.0
H357 H 0.80161 0.68382 0.29589 0.0
H358 H 0.83116 0.67686 0.2629 0.0
H359 H 0.84527 0.68746 0.30415 0.0
C360 C 0.29131 0.84003 0.39507 0.0
C361 C 0.2927 0.81244 0.41633 0.0
C362 C 0.31531 0.84435 0.36996 0.0
C363 C 0.34017 0.81974 0.36539 0.0
C364 C 0.34213 0.79238 0.38745 0.0
C365 C 0.31873 0.78942 0.41297 0.0
C366 C 0.31335 0.8745 0.34766 0.0
C367 C 0.36761 0.76504 0.38288 0.0
C368 C 0.37442 0.79948 0.28043 0.0
C369 C 0.40782 0.8087 0.28417 0.0
C370 C 0.35154 0.80452 0.30621 0.0
C371 C 0.36223 0.82028 0.33585 0.0
C372 C 0.39543 0.83191 0.33867 0.0
C373 C 0.41814 0.82526 0.31299 0.0
C374 C 0.31669 0.79072 0.30264 0.0
C375 C 0.4073 0.84998 0.36935 0.0
H376 H 0.2713 0.85795 0.39781 0.0
H377 H 0.31969 0.76783 0.42914 0.0
H378 H 0.33851 0.88531 0.34375 0.0
H379 H 0.30355 0.86712 0.32296 0.0
H380 H 0.29672 0.89397 0.35811 0.0
H381 H 0.36602 0.74574 0.40262 0.0
H382 H 0.36382 0.75282 0.35842 0.0
H383 H 0.39316 0.77554 0.383 0.0
H384 H 0.36663 0.78656 0.25806 0.0
H385 H 0.44399 0.83277 0.3155 0.0
H386 H 0.29794 0.81017 0.30825 0.0
H387 H 0.31298 0.77022 0.32078 0.0
H388 H 0.31184 0.78092 0.27726 0.0
H389 H 0.38863 0.86871 0.37736 0.0
H390 H 0.43154 0.86267 0.36513 0.0
H391 H 0.41045 0.832 0.39005 0.0
C392 C 0.16537 0.68875 0.58919 0.0
C393 C 0.19713 0.70124 0.58206 0.0
C394 C 0.16139 0.66221 0.61154 0.0
C395 C 0.18974 0.64911 0.62792 0.0
C396 C 0.22185 0.66181 0.6207 0.0
C397 C 0.22519 0.68736 0.59735 0.0
C398 C 0.12696 0.64843 0.61788 0.0
C399 C 0.25259 0.64924 0.63845 0.0
C400 C 0.18288 0.60966 0.7128 0.0
C401 C 0.19057 0.57646 0.70557 0.0
C402 C 0.18108 0.63346 0.68746 0.0
C403 C 0.18609 0.62347 0.65409 0.0
C404 C 0.19152 0.58952 0.64646 0.0
C405 C 0.19433 0.56641 0.67245 0.0
C406 C 0.17624 0.66958 0.69668 0.0
C407 C 0.1959 0.57787 0.61104 0.0
H408 H 0.14378 0.6995 0.57703 0.0
H409 H 0.24969 0.69741 0.59193 0.0
H410 H 0.127 0.621 0.61468 0.0
H411 H 0.11943 0.6536 0.6439 0.0
H412 H 0.10803 0.65937 0.60094 0.0
H413 H 0.27563 0.66213 0.63013 0.0
H414 H 0.24982 0.65294 0.66567 0.0
H415 H 0.25567 0.62217 0.63412 0.0
H416 H 0.18024 0.61744 0.73849 0.0
H417 H 0.19994 0.5406 0.66693 0.0
H418 H 0.15581 0.68073 0.68184 0.0
H419 H 0.19931 0.68371 0.69092 0.0
H420 H 0.17043 0.67285 0.7235 0.0
H421 H 0.17648 0.58893 0.59478 0.0
H422 H 0.19465 0.55033 0.60899 0.0
H423 H 0.22047 0.5862 0.60152 0.0
C424 C 0.28233 0.17741 0.61155 0.0
C425 C 0.28825 0.17208 0.57765 0.0
C426 C 0.30813 0.17456 0.63475 0.0
C427 C 0.34032 0.16519 0.62378 0.0
C428 C 0.34564 0.15674 0.59004 0.0
C429 C 0.3196 0.1609 0.56715 0.0
C430 C 0.30159 0.1845 0.6704 0.0
C431 C 0.37931 0.14537 0.57776 0.0
C432 C 0.40967 0.20637 0.6718 0.0
C433 C 0.41666 0.18232 0.69598 0.0
C434 C 0.3856 0.20055 0.64737 0.0
C435 C 0.369 0.16946 0.64652 0.0
C436 C 0.37763 0.14421 0.66951 0.0
C437 C 0.40098 0.15121 0.69452 0.0
C438 C 0.37652 0.22844 0.6238 0.0
C439 C 0.36135 0.11037 0.66849 0.0
H440 H 0.25809 0.18616 0.61968 0.0
H441 H 0.32403 0.15633 0.54094 0.0
H442 H 0.31089 0.16515 0.68772 0.0
H443 H 0.3152 0.20788 0.67604 0.0
H444 H 0.27466 0.18859 0.67538 0.0
H445 H 0.37764 0.13354 0.55284 0.0
H446 H 0.39631 0.16706 0.57591 0.0
H447 H 0.39062 0.12742 0.59545 0.0
H448 H 0.42167 0.23052 0.67313 0.0
H449 H 0.40674 0.13251 0.71312 0.0
H450 H 0.35012 0.23573 0.62772 0.0
H451 H 0.37895 0.22005 0.59766 0.0
H452 H 0.39243 0.2508 0.62732 0.0
H453 H 0.33552 0.11219 0.67814 0.0
H454 H 0.37509 0.09189 0.68381 0.0
H455 H 0.35985 0.1011 0.64253 0.0
C456 C 0.76802 0.39852 0.68406 0.0
C457 C 0.79525 0.41285 0.7004 0.0
C458 C 0.77282 0.37523 0.6587 0.0
C459 C 0.80567 0.36691 0.64889 0.0
C460 C 0.83328 0.38244 0.66431 0.0
C461 C 0.82773 0.40491 0.69038 0.0
C462 C 0.74275 0.3586 0.64333 0.0
C463 C 0.86856 0.37483 0.65372 0.0
C464 C 0.81184 0.28137 0.61101 0.0
C465 C 0.80718 0.28861 0.57725 0.0
C466 C 0.8132 0.30689 0.63461 0.0
C467 C 0.81072 0.34036 0.62394 0.0
C468 C 0.8088 0.34788 0.58962 0.0
C469 C 0.80653 0.32181 0.56662 0.0
C470 C 0.81458 0.29788 0.67108 0.0
C471 C 0.80717 0.38335 0.57735 0.0
H472 H 0.74291 0.40451 0.69204 0.0
H473 H 0.84876 0.41632 0.70291 0.0
H474 H 0.7426 0.36261 0.61604 0.0
H475 H 0.74393 0.33134 0.64766 0.0
H476 H 0.71892 0.3681 0.65372 0.0
H477 H 0.88698 0.39153 0.66584 0.0
H478 H 0.87484 0.34874 0.6602 0.0
H479 H 0.87103 0.3773 0.62634 0.0
H480 H 0.8122 0.25568 0.61928 0.0
H481 H 0.80333 0.32738 0.54042 0.0
H482 H 0.7905 0.30436 0.68303 0.0
H483 H 0.83434 0.31228 0.68388 0.0
H484 H 0.81933 0.27093 0.67504 0.0
H485 H 0.78224 0.39391 0.58294 0.0
H486 H 0.81141 0.38507 0.55009 0.0
H487 H 0.82594 0.39898 0.59027 0.0
C488 C 0.67558 0.778 0.57911 0.0
C489 C 0.69666 0.80431 0.57013 0.0
C490 C 0.65061 0.78237 0.60292 0.0
C491 C 0.64598 0.81412 0.6174 0.0
C492 C 0.66587 0.84131 0.60701 0.0
C493 C 0.6915 0.83595 0.58383 0.0
C494 C 0.63049 0.7525 0.61391 0.0
C495 C 0.6608 0.87572 0.62115 0.0
C496 C 0.56567 0.81736 0.66643 0.0
C497 C 0.57726 0.81 0.69848 0.0
C498 C 0.5881 0.82175 0.64001 0.0
C499 C 0.62265 0.81748 0.64574 0.0
C500 C 0.63449 0.81159 0.67837 0.0
C501 C 0.61163 0.8084 0.70444 0.0
C502 C 0.57473 0.82918 0.60571 0.0
C503 C 0.67107 0.80602 0.68541 0.0
H504 H 0.67967 0.75345 0.56872 0.0
H505 H 0.70761 0.85638 0.57661 0.0
H506 H 0.63527 0.7474 0.64062 0.0
H507 H 0.60347 0.75756 0.61117 0.0
H508 H 0.63665 0.72977 0.59945 0.0
H509 H 0.67459 0.89494 0.60681 0.0
H510 H 0.63392 0.88222 0.62133 0.0
H511 H 0.66965 0.87637 0.64728 0.0
H512 H 0.53908 0.81905 0.66191 0.0
H513 H 0.62065 0.8026 0.72919 0.0
H514 H 0.57585 0.80636 0.59025 0.0
H515 H 0.59013 0.84844 0.59325 0.0
H516 H 0.54844 0.83782 0.60653 0.0
H517 H 0.67933 0.78263 0.67327 0.0
H518 H 0.67637 0.80414 0.71247 0.0
H519 H 0.68622 0.82655 0.67489 0.0
C520 C 0.39943 0.14928 0.29081 0.0
C521 C 0.40983 0.18215 0.28556 0.0
C522 C 0.37597 0.14176 0.31566 0.0
C523 C 0.36186 0.16795 0.33453 0.0
C524 C 0.37222 0.20119 0.32901 0.0
C525 C 0.39652 0.20778 0.30498 0.0
C526 C 0.36631 0.10598 0.32174 0.0
C527 C 0.35713 0.22998 0.34795 0.0
C528 C 0.27696 0.16468 0.37462 0.0
C529 C 0.28567 0.16677 0.40827 0.0
C530 C 0.30163 0.16251 0.35004 0.0
C531 C 0.33558 0.16136 0.35962 0.0
C532 C 0.34415 0.15986 0.39374 0.0
C533 C 0.31906 0.1633 0.41775 0.0
C534 C 0.29145 0.16507 0.31397 0.0
C535 C 0.37998 0.15737 0.4049 0.0
H536 H 0.40996 0.1295 0.2758 0.0
H537 H 0.40434 0.23324 0.30056 0.0
H538 H 0.36999 0.09961 0.34835 0.0
H539 H 0.33951 0.10233 0.31611 0.0
H540 H 0.38107 0.08843 0.30629 0.0
H541 H 0.36708 0.25442 0.33964 0.0
H542 H 0.32966 0.23011 0.3447 0.0
H543 H 0.36225 0.22722 0.37491 0.0
H544 H 0.25109 0.16763 0.36737 0.0
H545 H 0.32566 0.16465 0.44387 0.0
H546 H 0.30514 0.14674 0.29857 0.0
H547 H 0.29785 0.19023 0.3045 0.0
H548 H 0.26426 0.1611 0.31054 0.0
H549 H 0.39389 0.13932 0.38931 0.0
H550 H 0.38192 0.14966 0.43138 0.0
H551 H 0.39223 0.18196 0.40213 0.0
C552 C 0.81031 0.37462 0.27708 0.0
C553 C 0.81531 0.40843 0.28383 0.0
C554 C 0.81207 0.35093 0.30253 0.0
C555 C 0.81992 0.36133 0.33524 0.0
C556 C 0.82785 0.39505 0.34157 0.0
C557 C 0.82492 0.41838 0.31582 0.0
C558 C 0.80279 0.3153 0.29491 0.0
C559 C 0.83741 0.40679 0.37592 0.0
C560 C 0.77813 0.31156 0.40313 0.0
C561 C 0.80303 0.2886 0.41135 0.0
C562 C 0.78368 0.33591 0.37889 0.0
C563 C 0.81523 0.33785 0.36323 0.0
C564 C 0.84107 0.31586 0.37269 0.0
C565 C 0.83449 0.29105 0.39636 0.0
C566 C 0.75526 0.35852 0.36897 0.0
C567 C 0.87528 0.31793 0.35719 0.0
H568 H 0.80271 0.36691 0.25237 0.0
H569 H 0.82917 0.44454 0.32092 0.0
H570 H 0.82178 0.29797 0.30496 0.0
H571 H 0.77873 0.30923 0.30714 0.0
H572 H 0.80016 0.31076 0.26778 0.0
H573 H 0.84841 0.43216 0.37545 0.0
H574 H 0.81496 0.40733 0.39202 0.0
H575 H 0.85554 0.38943 0.38747 0.0
H576 H 0.75373 0.30953 0.41455 0.0
H577 H 0.85386 0.27345 0.40301 0.0
H578 H 0.74903 0.35454 0.34237 0.0
H579 H 0.76269 0.38495 0.37181 0.0
H580 H 0.73248 0.3541 0.38405 0.0
H581 H 0.874 0.30997 0.33081 0.0
H582 H 0.89365 0.30191 0.37027 0.0
H583 H 0.88442 0.34399 0.35747 0.0
C584 C 0.58789 0.83798 0.29454 0.0
C585 C 0.57558 0.80587 0.28864 0.0
C586 C 0.6125 0.84347 0.31879 0.0
C587 C 0.62561 0.81603 0.33659 0.0
C588 C 0.61295 0.78366 0.33088 0.0
C589 C 0.58779 0.77907 0.30731 0.0
C590 C 0.62481 0.87841 0.32499 0.0
C591 C 0.62673 0.7536 0.34887 0.0
C592 C 0.71263 0.81314 0.37192 0.0
C593 C 0.7058 0.81189 0.40605 0.0
C594 C 0.68679 0.81687 0.34878 0.0
C595 C 0.6536 0.8203 0.36025 0.0
C596 C 0.64706 0.82221 0.39478 0.0
C597 C 0.67324 0.8174 0.41735 0.0
C598 C 0.69471 0.814 0.31217 0.0
C599 C 0.61213 0.82691 0.40792 0.0
H600 H 0.57831 0.85874 0.28021 0.0
H601 H 0.5786 0.75415 0.30255 0.0
H602 H 0.62417 0.88407 0.35199 0.0
H603 H 0.65109 0.88068 0.31676 0.0
H604 H 0.60972 0.8973 0.31156 0.0
H605 H 0.61429 0.73012 0.34123 0.0
H606 H 0.65383 0.75123 0.34383 0.0
H607 H 0.62364 0.75661 0.37611 0.0
H608 H 0.73782 0.80879 0.36319 0.0
H609 H 0.66807 0.8169 0.44382 0.0
H610 H 0.68203 0.83388 0.29784 0.0
H611 H 0.68539 0.78978 0.30271 0.0
H612 H 0.72192 0.81545 0.30724 0.0
H613 H 0.59872 0.8462 0.39339 0.0
H614 H 0.61209 0.83416 0.43458 0.0
H615 H 0.59805 0.80329 0.40536 0.0
C616 C 0.17092 0.68993 0.40647 0.0
C617 C 0.20207 0.69881 0.41943 0.0
C618 C 0.1681 0.66439 0.38285 0.0
C619 C 0.19729 0.64841 0.37118 0.0
C620 C 0.22871 0.65685 0.38479 0.0
C621 C 0.23064 0.68163 0.40918 0.0
C622 C 0.13409 0.65525 0.36966 0.0
C623 C 0.26051 0.64104 0.37233 0.0
C624 C 0.1965 0.56812 0.32176 0.0
C625 C 0.19865 0.58022 0.28914 0.0
C626 C 0.19428 0.59008 0.34877 0.0
C627 C 0.1955 0.6248 0.34292 0.0
C628 C 0.19725 0.63707 0.30994 0.0
C629 C 0.19825 0.61457 0.28339 0.0
C630 C 0.19137 0.57618 0.38354 0.0
C631 C 0.19957 0.6739 0.30275 0.0
H632 H 0.14881 0.70313 0.41462 0.0
H633 H 0.25478 0.68878 0.41897 0.0
H634 H 0.13185 0.66333 0.34338 0.0
H635 H 0.13066 0.62785 0.37019 0.0
H636 H 0.11372 0.66704 0.38419 0.0
H637 H 0.28278 0.64965 0.38631 0.0
H638 H 0.25896 0.61356 0.37434 0.0
H639 H 0.26404 0.64715 0.34564 0.0
H640 H 0.19657 0.54148 0.3261 0.0
H641 H 0.20025 0.62386 0.25813 0.0
H642 H 0.17054 0.5884 0.39698 0.0
H643 H 0.21453 0.58144 0.39764 0.0
H644 H 0.18713 0.54886 0.38355 0.0
H645 H 0.178 0.68715 0.31377 0.0
H646 H 0.2003 0.67932 0.27566 0.0
H647 H 0.22244 0.68423 0.31436 0.0
C648 C 0.3149 0.82997 0.57622 0.0
C649 C 0.28195 0.82357 0.58576 0.0
C650 C 0.33981 0.83467 0.60018 0.0
C651 C 0.33157 0.83168 0.63428 0.0
C652 C 0.29782 0.82817 0.64398 0.0
C653 C 0.27327 0.82458 0.61948 0.0
C654 C 0.37535 0.83961 0.5889 0.0
C655 C 0.28803 0.82425 0.68004 0.0
C656 C 0.39478 0.78522 0.68599 0.0
C657 C 0.40776 0.81047 0.70613 0.0
C658 C 0.36984 0.79197 0.66272 0.0
C659 C 0.35831 0.82504 0.65879 0.0
C660 C 0.37189 0.85089 0.67849 0.0
C661 C 0.39618 0.84317 0.70246 0.0
C662 C 0.35548 0.76349 0.64275 0.0
C663 C 0.36082 0.88652 0.67418 0.0
H664 H 0.32149 0.82969 0.55006 0.0
H665 H 0.24775 0.81959 0.62685 0.0
H666 H 0.38844 0.85767 0.60516 0.0
H667 H 0.3889 0.81559 0.59047 0.0
H668 H 0.37661 0.84855 0.56278 0.0
H669 H 0.26078 0.82746 0.68375 0.0
H670 H 0.29504 0.79894 0.68863 0.0
H671 H 0.30139 0.8424 0.69593 0.0
H672 H 0.40346 0.75986 0.68915 0.0
H673 H 0.40642 0.86269 0.71801 0.0
H674 H 0.36009 0.76761 0.61586 0.0
H675 H 0.32808 0.76221 0.64637 0.0
H676 H 0.3664 0.73909 0.64982 0.0
H677 H 0.36392 0.89425 0.64786 0.0
H678 H 0.37508 0.9039 0.69028 0.0
H679 H 0.33396 0.88886 0.68024 0.0
C680 C 0.16835 0.29932 0.58493 0.0
C681 C 0.19985 0.28765 0.5754 0.0
C682 C 0.1652 0.32514 0.60825 0.0
C683 C 0.1942 0.33873 0.62303 0.0
C684 C 0.22605 0.32723 0.61317 0.0
C685 C 0.22848 0.30215 0.58913 0.0
C686 C 0.13089 0.33743 0.61754 0.0
C687 C 0.25755 0.34047 0.62895 0.0
C688 C 0.19601 0.42068 0.66978 0.0
C689 C 0.19426 0.40975 0.70285 0.0
C690 C 0.19414 0.39796 0.64334 0.0
C691 C 0.19148 0.36351 0.65027 0.0
C692 C 0.1889 0.35246 0.68361 0.0
C693 C 0.18987 0.37578 0.70948 0.0
C694 C 0.19607 0.4107 0.60806 0.0
C695 C 0.18687 0.31588 0.69208 0.0
H696 H 0.1462 0.28827 0.57414 0.0
H697 H 0.25287 0.29293 0.58204 0.0
H698 H 0.12545 0.33095 0.64381 0.0
H699 H 0.12977 0.36494 0.61546 0.0
H700 H 0.11114 0.32648 0.60157 0.0
H701 H 0.28038 0.3292 0.6181 0.0
H702 H 0.25899 0.36786 0.62584 0.0
H703 H 0.25726 0.33527 0.65606 0.0
H704 H 0.19914 0.44698 0.6646 0.0
H705 H 0.1888 0.36721 0.73504 0.0
H706 H 0.17585 0.39966 0.5928 0.0
H707 H 0.2201 0.4031 0.59674 0.0
H708 H 0.19414 0.43825 0.6068 0.0
H709 H 0.16579 0.30409 0.6787 0.0
H710 H 0.18362 0.31152 0.71918 0.0
H711 H 0.21002 0.30319 0.68388 0.0
C712 C 0.59216 0.15614 0.69525 0.0
C713 C 0.58193 0.18862 0.70265 0.0
C714 C 0.61587 0.15025 0.67024 0.0
C715 C 0.63034 0.17762 0.65341 0.0
C716 C 0.62018 0.21046 0.66111 0.0
C717 C 0.59567 0.21549 0.68527 0.0
C718 C 0.6254 0.11492 0.66182 0.0
C719 C 0.63567 0.2404 0.64436 0.0
C720 C 0.71564 0.175 0.61408 0.0
C721 C 0.70742 0.17859 0.58045 0.0
C722 C 0.69064 0.17252 0.63826 0.0
C723 C 0.65681 0.17259 0.62824 0.0
C724 C 0.64858 0.17311 0.59401 0.0
C725 C 0.67405 0.1768 0.57046 0.0
C726 C 0.7004 0.17298 0.67454 0.0
C727 C 0.61283 0.17207 0.58238 0.0
H728 H 0.58127 0.1354 0.70868 0.0
H729 H 0.58795 0.24063 0.69135 0.0
H730 H 0.62191 0.11044 0.6348 0.0
H731 H 0.65214 0.11075 0.6674 0.0
H732 H 0.61042 0.09641 0.67591 0.0
H733 H 0.62571 0.26426 0.65414 0.0
H734 H 0.66309 0.24016 0.64802 0.0
H735 H 0.63097 0.23951 0.6172 0.0
H736 H 0.74152 0.17663 0.62171 0.0
H737 H 0.66785 0.17926 0.54432 0.0
H738 H 0.6867 0.15359 0.68861 0.0
H739 H 0.69363 0.19742 0.68546 0.0
H740 H 0.72758 0.16903 0.67808 0.0
H741 H 0.5985 0.15311 0.59647 0.0
H742 H 0.61097 0.16643 0.55539 0.0
H743 H 0.60092 0.19656 0.58692 0.0
C744 C 0.7651 0.57992 0.67397 0.0
C745 C 0.79255 0.57157 0.69378 0.0
C746 C 0.76817 0.60317 0.64821 0.0
C747 C 0.7997 0.61754 0.64156 0.0
C748 C 0.82796 0.60749 0.66008 0.0
C749 C 0.82393 0.585 0.68646 0.0
C750 C 0.73727 0.61388 0.62958 0.0
C751 C 0.86214 0.62147 0.6529 0.0
C752 C 0.80324 0.66621 0.56086 0.0
C753 C 0.79836 0.69874 0.57241 0.0
C754 C 0.80578 0.63954 0.58326 0.0
C755 C 0.80212 0.64559 0.61775 0.0
C756 C 0.79799 0.67853 0.62949 0.0
C757 C 0.79668 0.70478 0.60666 0.0
C758 C 0.81131 0.60484 0.57001 0.0
C759 C 0.79312 0.68593 0.66602 0.0
H760 H 0.74078 0.56967 0.6798 0.0
H761 H 0.84523 0.5782 0.70163 0.0
H762 H 0.73209 0.6405 0.6348 0.0
H763 H 0.74113 0.61145 0.60239 0.0
H764 H 0.715 0.59907 0.6367 0.0
H765 H 0.88207 0.60751 0.66608 0.0
H766 H 0.8673 0.62089 0.62579 0.0
H767 H 0.86323 0.64785 0.66093 0.0
H768 H 0.8048 0.66163 0.53433 0.0
H769 H 0.79259 0.72991 0.61558 0.0
H770 H 0.78827 0.58992 0.57312 0.0
H771 H 0.83135 0.59219 0.58423 0.0
H772 H 0.81812 0.60495 0.54322 0.0
H773 H 0.77009 0.67354 0.67503 0.0
H774 H 0.79104 0.71303 0.67108 0.0
H775 H 0.81422 0.67585 0.68071 0.0
C776 C 0.41096 0.31682 0.21081 0.0
C777 C 0.41673 0.29289 0.1862 0.0
C778 C 0.38723 0.34185 0.2061 0.0
C779 C 0.36965 0.34351 0.17561 0.0
C780 C 0.37703 0.32076 0.14979 0.0
C781 C 0.40014 0.29523 0.15562 0.0
C782 C 0.37951 0.36518 0.23455 0.0
C783 C 0.35959 0.32256 0.11657 0.0
C784 C 0.28328 0.37918 0.18509 0.0
C785 C 0.28908 0.41298 0.17887 0.0
C786 C 0.30908 0.35593 0.18252 0.0
C787 C 0.34115 0.3667 0.17255 0.0
C788 C 0.34649 0.40037 0.16371 0.0
C789 C 0.32044 0.42333 0.16754 0.0
C790 C 0.30255 0.32037 0.19291 0.0
C791 C 0.38008 0.41244 0.15185 0.0
H792 H 0.42367 0.31487 0.23453 0.0
H793 H 0.40496 0.27688 0.13645 0.0
H794 H 0.38163 0.39142 0.22629 0.0
H795 H 0.35345 0.36125 0.24297 0.0
H796 H 0.39639 0.36137 0.25612 0.0
H797 H 0.37202 0.30681 0.09756 0.0
H798 H 0.33347 0.31396 0.11931 0.0
H799 H 0.35881 0.34862 0.10744 0.0
H800 H 0.25907 0.37116 0.19404 0.0
H801 H 0.3248 0.44946 0.16237 0.0
H802 H 0.31708 0.3146 0.21569 0.0
H803 H 0.31085 0.30291 0.17325 0.0
H804 H 0.27577 0.31567 0.19814 0.0
H805 H 0.39758 0.41359 0.17317 0.0
H806 H 0.37856 0.4376 0.14049 0.0
H807 H 0.39074 0.39492 0.13336 0.0
C808 C 0.32296 0.56615 0.81938 0.0
C809 C 0.29032 0.57676 0.81305 0.0
C810 C 0.34906 0.58927 0.82203 0.0
C811 C 0.34239 0.62348 0.8168 0.0
C812 C 0.30921 0.63433 0.81172 0.0
C813 C 0.28348 0.61084 0.81049 0.0
C814 C 0.38394 0.57694 0.82882 0.0
C815 C 0.30114 0.67045 0.80503 0.0
C816 C 0.40339 0.69372 0.83322 0.0
C817 C 0.41719 0.69822 0.80153 0.0
C818 C 0.38045 0.66801 0.83922 0.0
C819 C 0.37019 0.64745 0.81252 0.0
C820 C 0.38458 0.65165 0.78062 0.0
C821 C 0.40838 0.67663 0.77569 0.0
C822 C 0.36657 0.66342 0.87381 0.0
C823 C 0.37359 0.63094 0.75124 0.0
H824 H 0.32815 0.53976 0.8216 0.0
H825 H 0.25826 0.61901 0.80526 0.0
H826 H 0.39888 0.57811 0.80565 0.0
H827 H 0.39643 0.59298 0.84751 0.0
H828 H 0.38404 0.55084 0.83794 0.0
H829 H 0.27388 0.675 0.8034 0.0
H830 H 0.31157 0.68651 0.82487 0.0
H831 H 0.31278 0.67824 0.78122 0.0
H832 H 0.41049 0.71035 0.85323 0.0
H833 H 0.41888 0.6804 0.75111 0.0
H834 H 0.36732 0.63677 0.88102 0.0
H835 H 0.34012 0.67138 0.87439 0.0
H836 H 0.38056 0.67814 0.89258 0.0
H837 H 0.37702 0.6041 0.75665 0.0
H838 H 0.38759 0.63712 0.72821 0.0
H839 H 0.34663 0.63501 0.74652 0.0
C840 C 0.31899 0.41852 0.82005 0.0
C841 C 0.28548 0.40889 0.81897 0.0
C842 C 0.34424 0.39469 0.82344 0.0
C843 C 0.33559 0.36055 0.82444 0.0
C844 C 0.30167 0.35097 0.82584 0.0
C845 C 0.27693 0.37542 0.82358 0.0
C846 C 0.38015 0.40588 0.82314 0.0
C847 C 0.29139 0.31481 0.82611 0.0
C848 C 0.39335 0.3032 0.77759 0.0
C849 C 0.40829 0.28534 0.80344 0.0
C850 C 0.36952 0.32763 0.78426 0.0
C851 C 0.36135 0.3351 0.81771 0.0
C852 C 0.37705 0.31772 0.84402 0.0
C853 C 0.40001 0.29246 0.83652 0.0
C854 C 0.35265 0.34498 0.75544 0.0
C855 C 0.36967 0.32588 0.87991 0.0
H856 H 0.32549 0.44453 0.81693 0.0
H857 H 0.25096 0.368 0.8226 0.0
H858 H 0.39513 0.39128 0.84118 0.0
H859 H 0.3909 0.40169 0.79807 0.0
H860 H 0.38255 0.43275 0.82918 0.0
H861 H 0.26452 0.31168 0.83199 0.0
H862 H 0.29618 0.30385 0.80122 0.0
H863 H 0.30622 0.30047 0.84443 0.0
H864 H 0.39963 0.29735 0.75201 0.0
H865 H 0.41189 0.27866 0.85644 0.0
H866 H 0.35793 0.37206 0.75632 0.0
H867 H 0.32523 0.34181 0.75721 0.0
H868 H 0.36105 0.33528 0.73097 0.0
H869 H 0.37411 0.35275 0.88453 0.0
H870 H 0.38526 0.31116 0.89739 0.0
H871 H 0.34306 0.32094 0.88547 0.0
C872 C 0.70753 0.37696 0.811 0.0
C873 C 0.7018 0.411 0.8156 0.0
C874 C 0.6815 0.35402 0.81408 0.0
C875 C 0.64934 0.36543 0.82304 0.0
C876 C 0.64425 0.39937 0.83087 0.0
C877 C 0.67048 0.42198 0.82639 0.0
C878 C 0.68779 0.31814 0.80476 0.0
C879 C 0.61064 0.41213 0.84188 0.0
C880 C 0.57988 0.31746 0.78202 0.0
C881 C 0.57264 0.29356 0.80627 0.0
C882 C 0.60407 0.34181 0.78771 0.0
C883 C 0.62048 0.34289 0.81888 0.0
C884 C 0.6115 0.32027 0.84434 0.0
C885 C 0.58808 0.29528 0.83746 0.0
C886 C 0.61352 0.36497 0.7596 0.0
C887 C 0.6275 0.32162 0.87828 0.0
H888 H 0.73176 0.36853 0.80253 0.0
H889 H 0.66625 0.44833 0.83036 0.0
H890 H 0.67826 0.30121 0.82434 0.0
H891 H 0.67422 0.31223 0.78144 0.0
H892 H 0.71469 0.31289 0.80085 0.0
H893 H 0.61252 0.43715 0.85347 0.0
H894 H 0.59383 0.41398 0.82006 0.0
H895 H 0.59898 0.39474 0.8599 0.0
H896 H 0.56804 0.31589 0.75782 0.0
H897 H 0.58211 0.27689 0.85629 0.0
H898 H 0.63996 0.36082 0.7526 0.0
H899 H 0.61116 0.39125 0.76763 0.0
H900 H 0.59779 0.36124 0.73718 0.0
H901 H 0.65319 0.31155 0.87685 0.0
H902 H 0.61337 0.30679 0.89687 0.0
H903 H 0.6293 0.34771 0.88714 0.0
C904 C 0.71239 0.61502 0.81546 0.0
C905 C 0.70429 0.58118 0.81398 0.0
C906 C 0.6873 0.63913 0.81761 0.0
C907 C 0.65357 0.62887 0.81915 0.0
C908 C 0.6456 0.59465 0.82109 0.0
C909 C 0.67111 0.5711 0.81796 0.0
C910 C 0.69674 0.67542 0.81493 0.0
C911 C 0.60998 0.58285 0.82384 0.0
C912 C 0.58964 0.69676 0.8333 0.0
C913 C 0.57931 0.70321 0.80061 0.0
C914 C 0.61298 0.6717 0.84004 0.0
C915 C 0.62683 0.6535 0.81331 0.0
C916 C 0.61612 0.65967 0.78031 0.0
C917 C 0.59214 0.68419 0.77443 0.0
C918 C 0.62321 0.66505 0.87556 0.0
C919 C 0.63075 0.6411 0.75106 0.0
H920 H 0.73809 0.62278 0.81226 0.0
H921 H 0.66497 0.54483 0.81724 0.0
H922 H 0.68927 0.68499 0.79012 0.0
H923 H 0.68341 0.69039 0.83388 0.0
H924 H 0.72397 0.67936 0.818 0.0
H925 H 0.60851 0.55627 0.83133 0.0
H926 H 0.59598 0.59806 0.84214 0.0
H927 H 0.59744 0.58566 0.7994 0.0
H928 H 0.57945 0.71133 0.85359 0.0
H929 H 0.58435 0.68936 0.74912 0.0
H930 H 0.64973 0.67199 0.87912 0.0
H931 H 0.62096 0.63812 0.88126 0.0
H932 H 0.60787 0.67928 0.89364 0.0
H933 H 0.65809 0.64519 0.75005 0.0
H934 H 0.61977 0.6491 0.72699 0.0
H935 H 0.62656 0.61398 0.75401 0.0
C936 C 0.56402 0.66733 0.18573 0.0
C937 C 0.57488 0.6996 0.19324 0.0
C938 C 0.58688 0.64098 0.18322 0.0
C939 C 0.62108 0.64702 0.18948 0.0
C940 C 0.63213 0.67967 0.19674 0.0
C941 C 0.60893 0.70563 0.19805 0.0
C942 C 0.57441 0.60664 0.17448 0.0
C943 C 0.66826 0.687 0.20447 0.0
C944 C 0.67657 0.57874 0.22306 0.0
C945 C 0.69759 0.57275 0.19588 0.0
C946 C 0.65074 0.60208 0.22094 0.0
C947 C 0.64528 0.61913 0.1906 0.0
C948 C 0.66518 0.61171 0.16248 0.0
C949 C 0.69152 0.58895 0.16561 0.0
C950 C 0.63064 0.60992 0.25173 0.0
C951 C 0.65944 0.62872 0.12949 0.0
H952 H 0.53768 0.66273 0.1818 0.0
H953 H 0.61733 0.73052 0.20423 0.0
H954 H 0.58932 0.59613 0.15375 0.0
H955 H 0.57747 0.58979 0.19612 0.0
H956 H 0.54771 0.60676 0.16716 0.0
H957 H 0.67275 0.71384 0.20934 0.0
H958 H 0.67615 0.67261 0.22668 0.0
H959 H 0.68432 0.67912 0.18346 0.0
H960 H 0.68139 0.56642 0.24657 0.0
H961 H 0.70758 0.58408 0.14448 0.0
H962 H 0.60361 0.60781 0.24644 0.0
H963 H 0.6355 0.63597 0.25951 0.0
H964 H 0.63683 0.59316 0.27283 0.0
H965 H 0.63259 0.62807 0.12287 0.0
H966 H 0.67398 0.61699 0.10911 0.0
H967 H 0.66686 0.65525 0.1313 0.0
C968 C 0.3922 0.68724 0.20693 0.0
C969 C 0.408 0.70437 0.18104 0.0
C970 C 0.36794 0.6632 0.2003 0.0
C971 C 0.3599 0.6555 0.16689 0.0
C972 C 0.37628 0.67217 0.14053 0.0
C973 C 0.39991 0.69686 0.14795 0.0
C974 C 0.35058 0.64641 0.22917 0.0
C975 C 0.36886 0.6639 0.10468 0.0
C976 C 0.31758 0.57217 0.16572 0.0
C977 C 0.28408 0.58176 0.1674 0.0
C978 C 0.34275 0.59595 0.16159 0.0
C979 C 0.33406 0.63004 0.16025 0.0
C980 C 0.30008 0.63953 0.15905 0.0
C981 C 0.27537 0.61509 0.16224 0.0
C982 C 0.37867 0.58478 0.16187 0.0
C983 C 0.2898 0.67566 0.15817 0.0
H984 H 0.39813 0.69331 0.23253 0.0
H985 H 0.41229 0.71005 0.12792 0.0
H986 H 0.32323 0.65005 0.22722 0.0
H987 H 0.35537 0.61923 0.22854 0.0
H988 H 0.359 0.65616 0.25362 0.0
H989 H 0.38472 0.67827 0.08714 0.0
H990 H 0.37286 0.63695 0.10022 0.0
H991 H 0.34233 0.66924 0.09905 0.0
H992 H 0.3242 0.54624 0.16929 0.0
H993 H 0.24941 0.62245 0.16365 0.0
H994 H 0.38948 0.58926 0.18687 0.0
H995 H 0.39361 0.59917 0.14362 0.0
H996 H 0.38105 0.55785 0.15613 0.0
H997 H 0.29408 0.68689 0.18302 0.0
H998 H 0.26302 0.67863 0.15177 0.0
H999 H 0.30495 0.68981 0.13995 0.0
C1000 C 0.57019 0.31933 0.18856 0.0
C1001 C 0.58034 0.28615 0.18538 0.0
C1002 C 0.59325 0.34535 0.18551 0.0
C1003 C 0.6273 0.33777 0.18037 0.0
C1004 C 0.6374 0.30434 0.17574 0.0
C1005 C 0.61362 0.27889 0.17782 0.0
C1006 C 0.58144 0.38079 0.18954 0.0
C1007 C 0.67362 0.2952 0.17108 0.0
C1008 C 0.69141 0.40427 0.16015 0.0
C1009 C 0.70354 0.41177 0.19194 0.0
C1010 C 0.66566 0.38098 0.15594 0.0
C1011 C 0.65282 0.36416 0.18411 0.0
C1012 C 0.6651 0.37171 0.21624 0.0
C1013 C 0.68996 0.39582 0.21978 0.0
C1014 C 0.65239 0.37422 0.12148 0.0
C1015 C 0.65266 0.35366 0.24682 0.0
H1016 H 0.54432 0.32488 0.19406 0.0
H1017 H 0.62145 0.25316 0.17559 0.0
H1018 H 0.58962 0.3905 0.21404 0.0
H1019 H 0.59256 0.39697 0.17011 0.0
H1020 H 0.55386 0.38276 0.18813 0.0
H1021 H 0.67694 0.26843 0.16503 0.0
H1022 H 0.68495 0.31029 0.15096 0.0
H1023 H 0.68755 0.30069 0.19429 0.0
H1024 H 0.70189 0.4168 0.13866 0.0
H1025 H 0.69968 0.40134 0.24434 0.0
H1026 H 0.62489 0.37721 0.12114 0.0
H1027 H 0.65785 0.34814 0.11429 0.0
H1028 H 0.66344 0.39108 0.10255 0.0
H1029 H 0.62547 0.35763 0.2498 0.0
H1030 H 0.66535 0.3621 0.26988 0.0
H1031 H 0.65676 0.3265 0.24402 0.0
C1032 C 0.15852 0.92272 0.51889 0.0
C1033 C 0.17905 0.90596 0.49625 0.0
C1034 C 0.15696 0.95755 0.51908 0.0
C1035 C 0.17713 0.97583 0.49671 0.0
C1036 C 0.19802 0.959 0.4739 0.0
C1037 C 0.1984 0.92418 0.47366 0.0
C1038 C 0.13381 0.97476 0.54317 0.0
C1039 C 0.22042 0.97776 0.4502 0.0
C1040 C 0.15731 0.0656 0.47607 0.0
C1041 C 0.17892 0.08251 0.49758 0.0
C1042 C 0.15578 0.03077 0.47616 0.0
C1043 C 0.17703 0.01264 0.49762 0.0
C1044 C 0.19892 0.02963 0.51936 0.0
C1045 C 0.19928 0.06446 0.51938 0.0
C1046 C 0.13157 0.01339 0.45324 0.0
C1047 C 0.22248 0.01103 0.54203 0.0
H1048 H 0.14333 0.90856 0.53614 0.0
H1049 H 0.21449 0.91117 0.45632 0.0
H1050 H 0.14842 0.99027 0.56071 0.0
H1051 H 0.11677 0.99168 0.52949 0.0
H1052 H 0.11861 0.95684 0.55777 0.0
H1053 H 0.23537 0.96084 0.43423 0.0
H1054 H 0.20533 0.99419 0.43394 0.0
H1055 H 0.23772 0.99393 0.46443 0.0
H1056 H 0.14135 0.07963 0.45943 0.0
H1057 H 0.21619 0.07758 0.53582 0.0
H1058 H 0.1154 -0.00371 0.46771 0.0
H1059 H 0.14541 -0.00194 0.43494 0.0
H1060 H 0.1155 0.0312 0.43947 0.0
H1061 H 0.20825 0.99443 0.55889 0.0
H1062 H 0.23797 0.02805 0.55736 0.0
H1063 H 0.23927 -0.00496 0.52703 0.0
C1064 C 0.06467 0.18071 0.51364 0.0
C1065 C 0.08394 0.19974 0.49169 0.0
C1066 C 0.02988 0.18134 0.51201 0.0
C1067 C 0.01411 0.20217 0.4884 0.0
C1068 C 0.0334 0.2223 0.46687 0.0
C1069 C 0.06824 0.22049 0.46847 0.0
C1070 C 0.01004 0.15906 0.53494 0.0
C1071 C 0.01725 0.24544 0.44205 0.0
C1072 C 0.92638 0.1774 0.46476 0.0
C1073 C 0.9077 0.1965 0.4871 0.0
C1074 C 0.96121 0.17964 0.46427 0.0
C1075 C 0.97737 0.20217 0.48601 0.0
C1076 C 0.95844 0.22274 0.50737 0.0
C1077 C 0.92375 0.2193 0.508 0.0
C1078 C 0.98073 0.15682 0.44168 0.0
C1079 C 0.97486 0.24764 0.53024 0.0
H1080 H 0.07682 0.16438 0.53137 0.0
H1081 H 0.08322 0.23537 0.45163 0.0
H1082 H 0.99297 0.1742 0.55048 0.0
H1083 H 0.99441 0.1418 0.52008 0.0
H1084 H 0.02624 0.14411 0.55165 0.0
H1085 H 0.03583 0.26084 0.4285 0.0
H1086 H 0.00279 0.23084 0.42363 0.0
H1087 H -0.00054 0.26222 0.45489 0.0
H1088 H 0.91385 0.15972 0.44869 0.0
H1089 H 0.90913 0.2344 0.52494 0.0
H1090 H -0.00404 0.13951 0.45691 0.0
H1091 H -0.00183 0.1714 0.42601 0.0
H1092 H 0.9643 0.1419 0.42517 0.0
H1093 H 0.98912 0.23433 0.54978 0.0
H1094 H 0.95642 0.26418 0.54255 0.0
H1095 H 0.99281 0.26324 0.51617 0.0
C1096 C 0.82519 0.0646 0.51329 0.0
C1097 C 0.80321 0.08242 0.49295 0.0
C1098 C 0.82542 0.02978 0.5129 0.0
C1099 C 0.80246 0.01265 0.4924 0.0
C1100 C 0.77969 0.03058 0.47239 0.0
C1101 C 0.78067 0.06537 0.47256 0.0
C1102 C 0.85056 0.01135 0.53396 0.0
C1103 C 0.75429 0.01302 0.45092 0.0
C1104 C 0.8215 0.92408 0.46713 0.0
C1105 C 0.80342 0.90616 0.49091 0.0
C1106 C 0.82166 0.9589 0.46752 0.0
C1107 C 0.80249 0.97592 0.49167 0.0
C1108 C 0.78358 0.95788 0.51527 0.0
C1109 C 0.78467 0.92309 0.5149 0.0
C1110 C 0.84272 0.97746 0.44249 0.0
C1111 C 0.76217 0.9753 0.54079 0.0
H1112 H 0.84279 0.07791 0.52884 0.0
H1113 H 0.76347 0.0793 0.45707 0.0
H1114 H 0.83756 -0.00514 0.5519 0.0
H1115 H 0.86626 -0.00475 0.51792 0.0
H1116 H 0.86707 0.02848 0.54805 0.0
H1117 H 0.73748 0.03072 0.4379 0.0
H1118 H 0.76711 -0.00247 0.43202 0.0
H1119 H 0.73893 -0.00395 0.46639 0.0
H1120 H 0.83619 0.91084 0.44877 0.0
H1121 H 0.77043 0.90907 0.53308 0.0
H1122 H 0.86084 0.99367 0.45561 0.0
H1123 H 0.82676 0.99384 0.42703 0.0
H1124 H 0.85668 0.96041 0.42579 0.0
H1125 H 0.77798 0.99086 0.55723 0.0
H1126 H 0.74793 0.95752 0.55648 0.0
H1127 H 0.7443 0.9922 0.52819 0.0
C1128 C 0.06749 0.76519 0.51468 0.0
C1129 C 0.08347 0.78682 0.49246 0.0
C1130 C 0.03266 0.76326 0.5158 0.0
C1131 C 0.01358 0.78428 0.49497 0.0
C1132 C 0.02965 0.8057 0.47203 0.0
C1133 C 0.06452 0.80633 0.47071 0.0
C1134 C 0.0163 0.73932 0.53973 0.0
C1135 C 0.01006 0.82896 0.4499 0.0
C1136 C 0.92247 0.76881 0.47682 0.0
C1137 C 0.90712 0.7906 0.49926 0.0
C1138 C 0.95716 0.76526 0.47625 0.0
C1139 C 0.97681 0.78487 0.49787 0.0
C1140 C 0.96133 0.80646 0.52107 0.0
C1141 C 0.92647 0.80866 0.52184 0.0
C1142 C 0.97277 0.74118 0.45199 0.0
C1143 C 0.98159 0.82829 0.54399 0.0
H1144 H 0.0823 0.74996 0.53135 0.0
H1145 H 0.07698 0.8233 0.45381 0.0
H1146 H 0.00282 0.75338 0.55928 0.0
H1147 H -0.00235 0.72382 0.5265 0.0
H1148 H 0.03468 0.72265 0.55198 0.0
H1149 H 0.0264 0.84387 0.43329 0.0
H1150 H 0.99234 0.81464 0.43432 0.0
H1151 H 0.99513 0.84625 0.46542 0.0
H1152 H 0.90727 0.75462 0.4596 0.0
H1153 H 0.9144 0.82563 0.53899 0.0
H1154 H 0.99073 0.72473 0.46503 0.0
H1155 H 0.98689 0.75511 0.43278 0.0
H1156 H 0.95386 0.72545 0.43932 0.0
H1157 H -0.00118 0.8129 0.55911 0.0
H1158 H 0.96568 0.84314 0.56104 0.0
H1159 H -0.00291 0.84562 0.52904 0.0
C1160 C 0.51489 0.21382 0.92185 0.0
C1161 C 0.49314 0.19219 0.90526 0.0
C1162 C 0.51485 0.21585 0.95658 0.0
C1163 C 0.49314 0.19509 0.97497 0.0
C1164 C 0.47097 0.17335 0.95833 0.0
C1165 C 0.47094 0.17248 0.92353 0.0
C1166 C 0.53822 0.23991 0.97359 0.0
C1167 C 0.44798 0.15038 0.97727 0.0
C1168 C 0.51768 0.17372 0.06317 0.0
C1169 C 0.49541 0.19333 0.08144 0.0
C1170 C 0.51719 0.17408 0.02838 0.0
C1171 C 0.49445 0.19519 0.01169 0.0
C1172 C 0.47256 0.21577 0.03004 0.0
C1173 C 0.473 0.21426 0.06482 0.0
C1174 C 0.54043 0.15132 0.00951 0.0
C1175 C 0.4486 0.23918 0.01294 0.0
H1176 H 0.5318 0.22935 0.90761 0.0
H1177 H 0.45427 0.15562 0.91062 0.0
H1178 H 0.52407 0.25624 0.99077 0.0
H1179 H 0.55663 0.22599 0.98876 0.0
H1180 H 0.55195 0.25576 0.95555 0.0
H1181 H 0.4321 0.13518 0.96051 0.0
H1182 H 0.46287 0.13336 0.99315 0.0
H1183 H 0.43159 0.16498 0.994 0.0
H1184 H 0.53481 0.15734 0.07608 0.0
H1185 H 0.45598 0.22965 0.07905 0.0
H1186 H 0.55666 0.16608 0.99274 0.0
H1187 H 0.52575 0.13409 0.99369 0.0
H1188 H 0.55649 0.13635 0.02633 0.0
H1189 H 0.46235 0.25579 -0.00433 0.0
H1190 H 0.43451 0.25477 0.03091 0.0
H1191 H 0.43052 0.22477 -0.00216 0.0
C1192 C 0.78105 0.47651 0.92013 0.0
C1193 C 0.8029 0.498 0.90347 0.0
C1194 C 0.77832 0.47723 0.95478 0.0
C1195 C 0.79857 0.49942 0.97311 0.0
C1196 C 0.82057 0.52134 0.95641 0.0
C1197 C 0.82216 0.52067 0.9216 0.0
C1198 C 0.75403 0.45405 0.97178 0.0
C1199 C 0.843 0.54483 0.97534 0.0
C1200 C 0.77597 0.51877 0.06243 0.0
C1201 C 0.79624 0.49617 0.0796 0.0
C1202 C 0.77618 0.51993 0.0276 0.0
C1203 C 0.79777 0.49852 0.00983 0.0
C1204 C 0.8184 0.47579 0.02708 0.0
C1205 C 0.81709 0.47462 0.06182 0.0
C1206 C 0.75328 0.54389 0.00985 0.0
C1207 C 0.84216 0.45301 0.00888 0.0
H1208 H 0.76577 0.45932 0.906 0.0
H1209 H 0.83909 0.53722 0.90862 0.0
H1210 H 0.7678 0.436 0.9875 0.0
H1211 H 0.73727 0.46836 0.98843 0.0
H1212 H 0.73855 0.43995 0.95373 0.0
H1213 H 0.85823 0.56068 0.95855 0.0
H1214 H 0.82794 0.56118 0.9917 0.0
H1215 H 0.86003 0.53037 0.9916 0.0
H1216 H 0.75975 0.53535 0.07622 0.0
H1217 H 0.83309 0.45742 0.07512 0.0
H1218 H 0.73677 0.53007 0.99255 0.0
H1219 H 0.76811 0.56157 -0.00533 0.0
H1220 H 0.73753 0.55834 0.02738 0.0
H1221 H 0.82807 0.43626 0.99207 0.0
H1222 H 0.85722 0.4375 0.02613 0.0
H1223 H 0.85934 0.4679 0.99317 0.0
C1224 C 0.52232 0.77625 0.06669 0.0
C1225 C 0.50061 0.79829 0.08277 0.0
C1226 C 0.52296 0.77424 0.0319 0.0
C1227 C 0.50194 0.79531 0.01306 0.0
C1228 C 0.48032 0.81791 0.02922 0.0
C1229 C 0.47968 0.81887 0.06395 0.0
C1230 C 0.54586 0.74946 0.01533 0.0
C1231 C 0.45806 0.84124 0.00983 0.0
C1232 C 0.52365 0.81571 0.92399 0.0
C1233 C 0.50002 0.79678 0.90666 0.0
C1234 C 0.52502 0.81493 0.95874 0.0
C1235 C 0.50265 0.79422 0.97636 0.0
C1236 C 0.47951 0.77417 0.95897 0.0
C1237 C 0.47821 0.77597 0.92422 0.0
C1238 C 0.54957 0.83714 0.97659 0.0
C1239 C 0.45571 0.75134 0.97708 0.0
H1240 H 0.53831 0.76015 0.08131 0.0
H1241 H 0.4631 0.83615 0.0764 0.0
H1242 H 0.53115 0.7324 -0.00065 0.0
H1243 H 0.56378 0.76263 -0.00105 0.0
H1244 H 0.56009 0.7344 0.03364 0.0
H1245 H 0.44321 0.85777 0.02629 0.0
H1246 H 0.47332 0.85696 0.993 0.0
H1247 H 0.44065 0.82675 0.99404 0.0
H1248 H 0.54044 0.83193 0.91042 0.0
H1249 H 0.4602 0.76101 0.91077 0.0
H1250 H 0.56527 0.82224 0.99373 0.0
H1251 H 0.53588 0.85559 0.99192 0.0
H1252 H 0.56613 0.85077 0.95911 0.0
H1253 H 0.46961 0.73509 -0.00544 0.0
H1254 H 0.4412 0.73541 0.95975 0.0
H1255 H 0.43799 0.76631 0.99206 0.0
C1256 C 0.16111 0.46954 0.92612 0.0
C1257 C 0.18205 0.49218 0.9098 0.0
C1258 C 0.15945 0.46873 0.96091 0.0
C1259 C 0.17982 0.49053 0.9796 0.0
C1260 C 0.20129 0.51317 0.96323 0.0
C1261 C 0.20186 0.51398 0.92844 0.0
C1262 C 0.13577 0.44477 0.97765 0.0
C1263 C 0.22385 0.53632 0.98245 0.0
C1264 C 0.15847 0.51184 0.0687 0.0
C1265 C 0.17963 0.49032 0.08619 0.0
C1266 C 0.15755 0.51148 0.03389 0.0
C1267 C 0.17889 0.48965 0.01635 0.0
C1268 C 0.20019 0.46775 0.03389 0.0
C1269 C 0.20002 0.46809 0.0687 0.0
C1270 C 0.13401 0.53464 0.0159 0.0
C1271 C 0.22375 0.44461 0.01591 0.0
H1272 H 0.14556 0.45287 0.91167 0.0
H1273 H 0.21826 0.53131 0.9158 0.0
H1274 H 0.14986 0.42732 0.99374 0.0
H1275 H 0.11829 0.45864 0.99393 0.0
H1276 H 0.12105 0.43007 0.95945 0.0
H1277 H 0.23961 0.55188 0.96587 0.0
H1278 H 0.20876 0.553 -0.00156 0.0
H1279 H 0.24038 0.5217 -0.00092 0.0
H1280 H 0.14245 0.5288 0.08227 0.0
H1281 H 0.21657 0.45161 0.08224 0.0
H1282 H 0.1181 0.52033 -0.00156 0.0
H1283 H 0.14843 0.5528 0.0009 0.0
H1284 H 0.11766 0.5486 0.03329 0.0
H1285 H 0.20964 0.42813 -0.00115 0.0
H1286 H 0.2384 0.42887 0.0333 0.0
H1287 H 0.24133 0.45932 0.00046 0.0
C1288 C 0.06506 0.51998 0.21757 0.0
C1289 C 0.08285 0.49656 0.19885 0.0
C1290 C 0.03012 0.52069 0.21668 0.0
C1291 C 0.01291 0.49803 0.19591 0.0
C1292 C 0.03081 0.47437 0.17699 0.0
C1293 C 0.06557 0.47366 0.17902 0.0
C1294 C 0.01165 0.54566 0.23781 0.0
C1295 C 0.01328 0.45023 0.15408 0.0
C1296 C 0.92236 0.47639 0.20978 0.0
C1297 C 0.9066 0.49665 0.18617 0.0
C1298 C 0.95693 0.47758 0.21413 0.0
C1299 C 0.97613 0.49889 0.19373 0.0
C1300 C 0.96033 0.51953 0.16992 0.0
C1301 C 0.92556 0.5185 0.16674 0.0
C1302 C 0.97291 0.4558 0.24029 0.0
C1303 C 0.98021 0.54196 0.14721 0.0
H1304 H 0.07845 0.53761 0.23298 0.0
H1305 H 0.07931 0.45581 0.16417 0.0
H1306 H -0.00274 0.56285 0.22168 0.0
H1307 H 0.99349 0.53266 0.25409 0.0
H1308 H 0.02872 0.5606 0.25363 0.0
H1309 H 0.031 0.43384 0.14059 0.0
H1310 H -0.00413 0.43437 0.16851 0.0
H1311 H -0.00177 0.46412 0.13554 0.0
H1312 H 0.90756 0.45989 0.22521 0.0
H1313 H 0.91327 0.53413 0.14849 0.0
H1314 H 0.98897 0.47102 0.25682 0.0
H1315 H 0.98913 0.437 0.22823 0.0
H1316 H 0.95416 0.4426 0.25578 0.0
H1317 H -0.0041 0.55913 0.16207 0.0
H1318 H 0.96403 0.55695 0.13052 0.0
H1319 H -0.00274 0.52675 0.13168 0.0
C1320 C 0.92562 0.47149 0.80839 0.0
C1321 C 0.90717 0.49402 0.78922 0.0
C1322 C 0.96044 0.47168 0.80753 0.0
C1323 C 0.97704 0.49442 0.78637 0.0
C1324 C 0.95853 0.51638 0.76599 0.0
C1325 C 0.92368 0.51623 0.768 0.0
C1326 C 0.97946 0.44836 0.83012 0.0
C1327 C 0.97555 0.54035 0.74255 0.0
C1328 C 0.06447 0.51797 0.81188 0.0
C1329 C 0.08346 0.49566 0.79302 0.0
C1330 C 0.0297 0.51825 0.80946 0.0
C1331 C 0.0138 0.49625 0.78704 0.0
C1332 C 0.03294 0.47463 0.76693 0.0
C1333 C 0.06765 0.47427 0.77049 0.0
C1334 C 0.00995 0.54115 0.8318 0.0
C1335 C 0.01673 0.45144 0.7422 0.0
H1336 H 0.91283 0.45446 0.82498 0.0
H1337 H 0.90933 0.53342 0.75292 0.0
H1338 H -0.00337 0.43261 0.81533 0.0
H1339 H 0.99492 0.46298 0.84773 0.0
H1340 H 0.96269 0.43187 0.84468 0.0
H1341 H 0.95749 0.5538 0.72648 0.0
H1342 H 0.98999 0.55892 0.75698 0.0
H1343 H 0.99346 0.52683 0.72645 0.0
H1344 H 0.07673 0.53439 0.82943 0.0
H1345 H 0.08245 0.4573 0.75562 0.0
H1346 H 0.99392 0.5262 0.84864 0.0
H1347 H 0.99325 0.55718 0.81675 0.0
H1348 H 0.02623 0.55736 0.8472 0.0
H1349 H 0.0018 0.43244 0.75558 0.0
H1350 H 0.03533 0.43846 0.72637 0.0
H1351 H -0.00062 0.46547 0.7259 0.0
C1352 C 0.47521 0.0659 0.77755 0.0
C1353 C 0.49819 0.08324 0.79724 0.0
C1354 C 0.47509 0.03109 0.77683 0.0
C1355 C 0.49801 0.01342 0.79688 0.0
C1356 C 0.52142 0.03079 0.81665 0.0
C1357 C 0.52148 0.06563 0.81629 0.0
C1358 C 0.45033 0.01327 0.75485 0.0
C1359 C 0.54584 0.01262 0.83875 0.0
C1360 C 0.47558 0.92522 0.82096 0.0
C1361 C 0.49657 0.9069 0.80004 0.0
C1362 C 0.47591 0.96005 0.8203 0.0
C1363 C 0.49715 0.97667 0.79761 0.0
C1364 C 0.51782 0.95825 0.7759 0.0
C1365 C 0.51756 0.92349 0.77766 0.0
C1366 C 0.45401 0.97905 0.84422 0.0
C1367 C 0.54017 0.97525 0.75087 0.0
H1368 H 0.4574 0.07958 0.76256 0.0
H1369 H 0.53908 0.07908 0.83171 0.0
H1370 H 0.46355 -0.00414 0.73798 0.0
H1371 H 0.43312 -0.0018 0.77033 0.0
H1372 H 0.43532 0.03077 0.73957 0.0
H1373 H 0.56241 0.02991 0.85257 0.0
H1374 H 0.53209 -0.00295 0.85697 0.0
H1375 H 0.56153 -0.00435 0.82366 0.0
H1376 H 0.45952 0.91232 0.83842 0.0
H1377 H 0.53355 0.90924 0.76123 0.0
H1378 H 0.43661 -0.00467 0.83028 0.0
H1379 H 0.46959 -0.0046 0.86013 0.0
H1380 H 0.43921 0.9623 0.86052 0.0
H1381 H 0.52521 0.99189 0.73466 0.0
H1382 H 0.55373 0.95719 0.73492 0.0
H1383 H 0.55871 0.99101 0.76391 0.0
C1384 C 0.51344 0.92437 0.1667 0.0
C1385 C 0.49195 0.90654 0.18757 0.0
C1386 C 0.51313 0.95919 0.16644 0.0
C1387 C 0.49141 0.97635 0.1882 0.0
C1388 C 0.47002 0.95846 0.20972 0.0
C1389 C 0.47026 0.92364 0.20884 0.0
C1390 C 0.53576 0.97758 0.14268 0.0
C1391 C 0.44712 0.97606 0.23378 0.0
C1392 C 0.5145 0.0654 0.20759 0.0
C1393 C 0.49222 0.0829 0.18725 0.0
C1394 C 0.51395 0.03061 0.20876 0.0
C1395 C 0.49115 0.0131 0.18844 0.0
C1396 C 0.46858 0.03065 0.16784 0.0
C1397 C 0.46911 0.06548 0.16782 0.0
C1398 C 0.53782 0.01262 0.23159 0.0
C1399 C 0.44442 0.01264 0.14536 0.0
H1400 H 0.53 0.91108 0.15004 0.0
H1401 H 0.45383 0.90976 0.22518 0.0
H1402 H 0.52078 0.9941 0.12637 0.0
H1403 H 0.55326 0.99364 0.15677 0.0
H1404 H 0.55051 0.96043 0.12679 0.0
H1405 H 0.43267 0.95839 0.24941 0.0
H1406 H 0.46184 0.99255 0.25033 0.0
H1407 H 0.42936 0.99207 0.21996 0.0
H1408 H 0.53214 0.07897 0.22288 0.0
H1409 H 0.45205 0.07908 0.15192 0.0
H1410 H 0.55509 -0.003 0.21676 0.0
H1411 H 0.52384 -0.00428 0.2484 0.0
H1412 H 0.55281 0.03004 0.24696 0.0
H1413 H 0.45834 -0.00343 0.12774 0.0
H1414 H 0.42858 0.03005 0.13084 0.0
H1415 H 0.428 -0.00382 0.16025 0.0
loop_
_geom_bond_atom_site_label_1
_geom_bond_atom_site_label_2
_geom_bond_distance
_geom_bond_site_symmetry_2
_ccdc_geom_bond_type
Sc0 O3 2.025 . S
Sc0 O10 2.105 . S
Sc0 O13 2.105 . S
Sc0 O16 2.105 . S
Sc0 O19 2.105 . S
Sc1 O3 2.025 . S
Sc1 O11 2.105 . S
Sc1 O15 2.105 . S
Sc1 O17 2.105 . S
Sc1 O21 2.105 . S
Sc2 O3 2.025 . S
Sc2 O12 2.105 . S
Sc2 O14 2.105 . S
Sc2 O18 2.105 . S
Sc2 O20 2.105 . S
O3 Sc0 2.025 . S
O3 Sc1 2.025 . S
O3 Sc2 2.025 . S
C4 O10 1.268 . S
C4 O20 1.268 . S
C5 O11 1.268 . S
C5 O19 1.268 . S
C6 O12 1.268 . S
C6 O21 1.268 . S
C7 O13 1.268 . S
C7 O17 1.268 . S
C8 O14 1.268 . S
C8 O16 1.268 . S
C9 O15 1.268 . S
C9 O18 1.268 . S
O10 Sc0 2.105 . S
O10 C4 1.268 . S
O11 Sc1 2.105 . S
O11 C5 1.268 . S
O12 Sc2 2.105 . S
O12 C6 1.268 . S
O13 Sc0 2.105 . S
O13 C7 1.268 . S
O14 Sc2 2.105 . S
O14 C8 1.268 . S
O15 Sc1 2.105 . S
O15 C9 1.268 . S
O16 Sc0 2.105 . S
O16 C8 1.268 . S
O17 Sc1 2.105 . S
O17 C7 1.268 . S
O18 Sc2 2.105 . S
O18 C9 1.268 . S
O19 Sc0 2.105 . S
O19 C5 1.268 . S
O20 Sc2 2.105 . S
O20 C4 1.268 . S
O21 Sc1 2.105 . S
O21 C6 1.268 . S
Sc22 O25 2.025 . S
Sc22 O32 2.105 . S
Sc22 O35 2.105 . S
Sc22 O38 2.105 . S
Sc22 O41 2.105 . S
Sc23 O25 2.025 . S
Sc23 O33 2.105 . S
Sc23 O37 2.105 . S
Sc23 O39 2.105 . S
Sc23 O43 2.105 . S
Sc24 O25 2.025 . S
Sc24 O34 2.105 . S
Sc24 O36 2.105 . S
Sc24 O40 2.105 . S
Sc24 O42 2.105 . S
O25 Sc22 2.025 . S
O25 Sc23 2.025 . S
O25 Sc24 2.025 . S
C26 O32 1.268 . S
C26 O42 1.268 . S
C27 O33 1.268 . S
C27 O41 1.268 . S
C28 O34 1.268 . S
C28 O43 1.268 . S
C29 O35 1.268 . S
C29 O39 1.268 . S
C30 O36 1.268 . S
C30 O38 1.268 . S
C31 O37 1.268 . S
C31 O40 1.268 . S
O32 Sc22 2.105 . S
O32 C26 1.268 . S
O33 Sc23 2.105 . S
O33 C27 1.268 . S
O34 Sc24 2.105 . S
O34 C28 1.268 . S
O35 Sc22 2.105 . S
O35 C29 1.268 . S
O36 Sc24 2.105 . S
O36 C30 1.268 . S
O37 Sc23 2.105 . S
O37 C31 1.268 . S
O38 Sc22 2.105 . S
O38 C30 1.268 . S
O39 Sc23 2.105 . S
O39 C29 1.268 . S
O40 Sc24 2.105 . S
O40 C31 1.268 . S
O41 Sc22 2.105 . S
O41 C27 1.268 . S
O42 Sc24 2.105 . S
O42 C26 1.268 . S
O43 Sc23 2.105 . S
O43 C28 1.268 . S
Sc44 O47 2.025 . S
Sc44 O54 2.105 . S
Sc44 O57 2.105 . S
Sc44 O60 2.105 . S
Sc44 O63 2.105 . S
Sc45 O47 2.025 . S
Sc45 O55 2.105 . S
Sc45 O59 2.105 . S
Sc45 O61 2.105 . S
Sc45 O65 2.105 . S
Sc46 O47 2.025 . S
Sc46 O56 2.105 . S
Sc46 O58 2.105 . S
Sc46 O62 2.105 . S
Sc46 O64 2.105 . S
O47 Sc44 2.025 . S
O47 Sc45 2.025 . S
O47 Sc46 2.025 . S
C48 O54 1.268 . S
C48 O64 1.268 . S
C49 O55 1.268 . S
C49 O63 1.268 . S
C50 O56 1.268 . S
C50 O65 1.268 . S
C51 O57 1.268 . S
C51 O61 1.268 . S
C52 O58 1.268 . S
C52 O60 1.268 . S
C53 O59 1.268 . S
C53 O62 1.268 . S
O54 Sc44 2.105 . S
O54 C48 1.268 . S
O55 Sc45 2.105 . S
O55 C49 1.268 . S
O56 Sc46 2.105 . S
O56 C50 1.268 . S
O57 Sc44 2.105 . S
O57 C51 1.268 . S
O58 Sc46 2.105 . S
O58 C52 1.268 . S
O59 Sc45 2.105 . S
O59 C53 1.268 . S
O60 Sc44 2.105 . S
O60 C52 1.268 . S
O61 Sc45 2.105 . S
O61 C51 1.268 . S
O62 Sc46 2.105 . S
O62 C53 1.268 . S
O63 Sc44 2.105 . S
O63 C49 1.268 . S
O64 Sc46 2.105 . S
O64 C48 1.268 . S
O65 Sc45 2.105 . S
O65 C50 1.268 . S
Sc66 O69 2.025 . S
Sc66 O76 2.105 . S
Sc66 O79 2.105 . S
Sc66 O82 2.105 . S
Sc66 O85 2.105 . S
Sc67 O69 2.025 . S
Sc67 O77 2.105 . S
Sc67 O81 2.105 . S
Sc67 O83 2.105 . S
Sc67 O87 2.105 . S
Sc68 O69 2.025 . S
Sc68 O78 2.105 . S
Sc68 O80 2.105 . S
Sc68 O84 2.105 . S
Sc68 O86 2.105 . S
O69 Sc66 2.025 . S
O69 Sc67 2.025 . S
O69 Sc68 2.025 . S
C70 O76 1.268 . S
C70 O86 1.268 . S
C71 O77 1.268 . S
C71 O85 1.268 . S
C72 O78 1.268 . S
C72 O87 1.268 . S
C73 O79 1.268 . S
C73 O83 1.268 . S
C74 O80 1.268 . S
C74 O82 1.268 . S
C75 O81 1.268 . S
C75 O84 1.268 . S
O76 Sc66 2.105 . S
O76 C70 1.268 . S
O77 Sc67 2.105 . S
O77 C71 1.268 . S
O78 Sc68 2.105 . S
O78 C72 1.268 . S
O79 Sc66 2.105 . S
O79 C73 1.268 . S
O80 Sc68 2.105 . S
O80 C74 1.268 . S
O81 Sc67 2.105 . S
O81 C75 1.268 . S
O82 Sc66 2.105 . S
O82 C74 1.268 . S
O83 Sc67 2.105 . S
O83 C73 1.268 . S
O84 Sc68 2.105 . S
O84 C75 1.268 . S
O85 Sc66 2.105 . S
O85 C71 1.268 . S
O86 Sc68 2.105 . S
O86 C70 1.268 . S
O87 Sc67 2.105 . S
O87 C72 1.268 . S
Sc88 O91 2.025 . S
Sc88 O98 2.105 . S
Sc88 O101 2.105 . S
Sc88 O104 2.105 . S
Sc88 O107 2.105 . S
Sc89 O91 2.025 . S
Sc89 O99 2.105 . S
Sc89 O103 2.105 . S
Sc89 O105 2.105 . S
Sc89 O109 2.105 . S
Sc90 O91 2.025 . S
Sc90 O100 2.105 . S
Sc90 O102 2.105 . S
Sc90 O106 2.105 . S
Sc90 O108 2.105 . S
O91 Sc88 2.025 . S
O91 Sc89 2.025 . S
O91 Sc90 2.025 . S
C92 O98 1.268 . S
C92 O108 1.268 . S
C93 O99 1.268 . S
C93 O107 1.268 . S
C94 O100 1.268 . S
C94 O109 1.268 . S
C95 O101 1.268 . S
C95 O105 1.268 . S
C96 O102 1.268 . S
C96 O104 1.268 . S
C97 O103 1.268 . S
C97 O106 1.268 . S
O98 Sc88 2.105 . S
O98 C92 1.268 . S
O99 Sc89 2.105 . S
O99 C93 1.268 . S
O100 Sc90 2.105 . S
O100 C94 1.268 . S
O101 Sc88 2.105 . S
O101 C95 1.268 . S
O102 Sc90 2.105 . S
O102 C96 1.268 . S
O103 Sc89 2.105 . S
O103 C97 1.268 . S
O104 Sc88 2.105 . S
O104 C96 1.268 . S
O105 Sc89 2.105 . S
O105 C95 1.268 . S
O106 Sc90 2.105 . S
O106 C97 1.268 . S
O107 Sc88 2.105 . S
O107 C93 1.268 . S
O108 Sc90 2.105 . S
O108 C92 1.268 . S
O109 Sc89 2.105 . S
O109 C94 1.268 . S
Sc110 O113 2.025 . S
Sc110 O120 2.105 . S
Sc110 O123 2.105 . S
Sc110 O126 2.105 . S
Sc110 O129 2.105 . S
Sc111 O113 2.025 . S
Sc111 O121 2.105 . S
Sc111 O125 2.105 . S
Sc111 O127 2.105 . S
Sc111 O131 2.105 . S
Sc112 O113 2.025 . S
Sc112 O122 2.105 . S
Sc112 O124 2.105 . S
Sc112 O128 2.105 . S
Sc112 O130 2.105 . S
O113 Sc110 2.025 . S
O113 Sc111 2.025 . S
O113 Sc112 2.025 . S
C114 O120 1.268 . S
C114 O130 1.268 . S
C115 O121 1.268 . S
C115 O129 1.268 . S
C116 O122 1.268 . S
C116 O131 1.268 . S
C117 O123 1.268 . S
C117 O127 1.268 . S
C118 O124 1.268 . S
C118 O126 1.268 . S
C119 O125 1.268 . S
C119 O128 1.268 . S
O120 Sc110 2.105 . S
O120 C114 1.268 . S
O121 Sc111 2.105 . S
O121 C115 1.268 . S
O122 Sc112 2.105 . S
O122 C116 1.268 . S
O123 Sc110 2.105 . S
O123 C117 1.268 . S
O124 Sc112 2.105 . S
O124 C118 1.268 . S
O125 Sc111 2.105 . S
O125 C119 1.268 . S
O126 Sc110 2.105 . S
O126 C118 1.268 . S
O127 Sc111 2.105 . S
O127 C117 1.268 . S
O128 Sc112 2.105 . S
O128 C119 1.268 . S
O129 Sc110 2.105 . S
O129 C115 1.268 . S
O130 Sc112 2.105 . S
O130 C114 1.268 . S
O131 Sc111 2.105 . S
O131 C116 1.268 . S
Sc132 O135 2.025 . S
Sc132 O142 2.105 . S
Sc132 O145 2.105 . S
Sc132 O148 2.105 . S
Sc132 O151 2.105 . S
Sc133 O135 2.025 . S
Sc133 O143 2.105 . S
Sc133 O147 2.105 . S
Sc133 O149 2.105 . S
Sc133 O153 2.105 . S
Sc134 O135 2.025 . S
Sc134 O144 2.105 . S
Sc134 O146 2.105 . S
Sc134 O150 2.105 . S
Sc134 O152 2.105 . S
O135 Sc132 2.025 . S
O135 Sc133 2.025 . S
O135 Sc134 2.025 . S
C136 O142 1.268 . S
C136 O152 1.268 . S
C137 O143 1.268 . S
C137 O151 1.268 . S
C138 O144 1.268 . S
C138 O153 1.268 . S
C139 O145 1.268 . S
C139 O149 1.268 . S
C140 O146 1.268 . S
C140 O148 1.268 . S
C141 O147 1.268 . S
C141 O150 1.268 . S
O142 Sc132 2.105 . S
O142 C136 1.268 . S
O143 Sc133 2.105 . S
O143 C137 1.268 . S
O144 Sc134 2.105 . S
O144 C138 1.268 . S
O145 Sc132 2.105 . S
O145 C139 1.268 . S
O146 Sc134 2.105 . S
O146 C140 1.268 . S
O147 Sc133 2.105 . S
O147 C141 1.268 . S
O148 Sc132 2.105 . S
O148 C140 1.268 . S
O149 Sc133 2.105 . S
O149 C139 1.268 . S
O150 Sc134 2.105 . S
O150 C141 1.268 . S
O151 Sc132 2.105 . S
O151 C137 1.268 . S
O152 Sc134 2.105 . S
O152 C136 1.268 . S
O153 Sc133 2.105 . S
O153 C138 1.268 . S
Sc154 O157 2.025 . S
Sc154 O164 2.105 . S
Sc154 O167 2.105 . S
Sc154 O170 2.105 . S
Sc154 O173 2.105 . S
Sc155 O157 2.025 . S
Sc155 O165 2.105 . S
Sc155 O169 2.105 . S
Sc155 O171 2.105 . S
Sc155 O175 2.105 . S
Sc156 O157 2.025 . S
Sc156 O166 2.105 . S
Sc156 O168 2.105 . S
Sc156 O172 2.105 . S
Sc156 O174 2.105 . S
O157 Sc154 2.025 . S
O157 Sc155 2.025 . S
O157 Sc156 2.025 . S
C158 O164 1.268 . S
C158 O174 1.268 . S
C159 O165 1.268 . S
C159 O173 1.268 . S
C160 O166 1.268 . S
C160 O175 1.268 . S
C161 O167 1.268 . S
C161 O171 1.268 . S
C162 O168 1.268 . S
C162 O170 1.268 . S
C163 O169 1.268 . S
C163 O172 1.268 . S
O164 Sc154 2.105 . S
O164 C158 1.268 . S
O165 Sc155 2.105 . S
O165 C159 1.268 . S
O166 Sc156 2.105 . S
O166 C160 1.268 . S
O167 Sc154 2.105 . S
O167 C161 1.268 . S
O168 Sc156 2.105 . S
O168 C162 1.268 . S
O169 Sc155 2.105 . S
O169 C163 1.268 . S
O170 Sc154 2.105 . S
O170 C162 1.268 . S
O171 Sc155 2.105 . S
O171 C161 1.268 . S
O172 Sc156 2.105 . S
O172 C163 1.268 . S
O173 Sc154 2.105 . S
O173 C159 1.268 . S
O174 Sc156 2.105 . S
O174 C158 1.268 . S
O175 Sc155 2.105 . S
O175 C160 1.268 . S
Sc176 O179 2.025 . S
Sc176 O186 2.105 . S
Sc176 O189 2.105 . S
Sc176 O192 2.105 . S
Sc176 O195 2.105 . S
Sc177 O179 2.025 . S
Sc177 O187 2.105 . S
Sc177 O191 2.105 . S
Sc177 O193 2.105 . S
Sc177 O197 2.105 . S
Sc178 O179 2.025 . S
Sc178 O188 2.105 . S
Sc178 O190 2.105 . S
Sc178 O194 2.105 . S
Sc178 O196 2.105 . S
O179 Sc176 2.025 . S
O179 Sc177 2.025 . S
O179 Sc178 2.025 . S
C180 O186 1.268 . S
C180 O196 1.268 . S
C181 O187 1.268 . S
C181 O195 1.268 . S
C182 O188 1.268 . S
C182 O197 1.268 . S
C183 O189 1.268 . S
C183 O193 1.268 . S
C184 O190 1.268 . S
C184 O192 1.268 . S
C185 O191 1.268 . S
C185 O194 1.268 . S
O186 Sc176 2.105 . S
O186 C180 1.268 . S
O187 Sc177 2.105 . S
O187 C181 1.268 . S
O188 Sc178 2.105 . S
O188 C182 1.268 . S
O189 Sc176 2.105 . S
O189 C183 1.268 . S
O190 Sc178 2.105 . S
O190 C184 1.268 . S
O191 Sc177 2.105 . S
O191 C185 1.268 . S
O192 Sc176 2.105 . S
O192 C184 1.268 . S
O193 Sc177 2.105 . S
O193 C183 1.268 . S
O194 Sc178 2.105 . S
O194 C185 1.268 . S
O195 Sc176 2.105 . S
O195 C181 1.268 . S
O196 Sc178 2.105 . S
O196 C180 1.268 . S
O197 Sc177 2.105 . S
O197 C182 1.268 . S
Sc198 O201 2.025 . S
Sc198 O208 2.105 . S
Sc198 O211 2.105 . S
Sc198 O214 2.105 . S
Sc198 O217 2.105 . S
Sc199 O201 2.025 . S
Sc199 O209 2.105 . S
Sc199 O213 2.105 . S
Sc199 O215 2.105 . S
Sc199 O219 2.105 . S
Sc200 O201 2.025 . S
Sc200 O210 2.105 . S
Sc200 O212 2.105 . S
Sc200 O216 2.105 . S
Sc200 O218 2.105 . S
O201 Sc198 2.025 . S
O201 Sc199 2.025 . S
O201 Sc200 2.025 . S
C202 O208 1.268 . S
C202 O218 1.268 . S
C203 O209 1.268 . S
C203 O217 1.268 . S
C204 O210 1.268 . S
C204 O219 1.268 . S
C205 O211 1.268 . S
C205 O215 1.268 . S
C206 O212 1.268 . S
C206 O214 1.268 . S
C207 O213 1.268 . S
C207 O216 1.268 . S
O208 Sc198 2.105 . S
O208 C202 1.268 . S
O209 Sc199 2.105 . S
O209 C203 1.268 . S
O210 Sc200 2.105 . S
O210 C204 1.268 . S
O211 Sc198 2.105 . S
O211 C205 1.268 . S
O212 Sc200 2.105 . S
O212 C206 1.268 . S
O213 Sc199 2.105 . S
O213 C207 1.268 . S
O214 Sc198 2.105 . S
O214 C206 1.268 . S
O215 Sc199 2.105 . S
O215 C205 1.268 . S
O216 Sc200 2.105 . S
O216 C207 1.268 . S
O217 Sc198 2.105 . S
O217 C203 1.268 . S
O218 Sc200 2.105 . S
O218 C202 1.268 . S
O219 Sc199 2.105 . S
O219 C204 1.268 . S
Sc220 O223 2.025 . S
Sc220 O230 2.105 . S
Sc220 O233 2.105 . S
Sc220 O236 2.105 . S
Sc220 O239 2.105 . S
Sc221 O223 2.025 . S
Sc221 O231 2.105 . S
Sc221 O235 2.105 . S
Sc221 O237 2.105 . S
Sc221 O241 2.105 . S
Sc222 O223 2.025 . S
Sc222 O232 2.105 . S
Sc222 O234 2.105 . S
Sc222 O238 2.105 . S
Sc222 O240 2.105 . S
O223 Sc220 2.025 . S
O223 Sc221 2.025 . S
O223 Sc222 2.025 . S
C224 O230 1.268 . S
C224 O240 1.268 . S
C225 O231 1.268 . S
C225 O239 1.268 . S
C226 O232 1.268 . S
C226 O241 1.268 . S
C227 O233 1.268 . S
C227 O237 1.268 . S
C228 O234 1.268 . S
C228 O236 1.268 . S
C229 O235 1.268 . S
C229 O238 1.268 . S
O230 Sc220 2.105 . S
O230 C224 1.268 . S
O231 Sc221 2.105 . S
O231 C225 1.268 . S
O232 Sc222 2.105 . S
O232 C226 1.268 . S
O233 Sc220 2.105 . S
O233 C227 1.268 . S
O234 Sc222 2.105 . S
O234 C228 1.268 . S
O235 Sc221 2.105 . S
O235 C229 1.268 . S
O236 Sc220 2.105 . S
O236 C228 1.268 . S
O237 Sc221 2.105 . S
O237 C227 1.268 . S
O238 Sc222 2.105 . S
O238 C229 1.268 . S
O239 Sc220 2.105 . S
O239 C225 1.268 . S
O240 Sc222 2.105 . S
O240 C224 1.268 . S
O241 Sc221 2.105 . S
O241 C226 1.268 . S
Sc242 O245 2.025 . S
Sc242 O252 2.105 . S
Sc242 O255 2.105 . S
Sc242 O258 2.105 . S
Sc242 O261 2.105 . S
Sc243 O245 2.025 . S
Sc243 O253 2.105 . S
Sc243 O257 2.105 . S
Sc243 O259 2.105 . S
Sc243 O263 2.105 . S
Sc244 O245 2.025 . S
Sc244 O254 2.105 . S
Sc244 O256 2.105 . S
Sc244 O260 2.105 . S
Sc244 O262 2.105 . S
O245 Sc242 2.025 . S
O245 Sc243 2.025 . S
O245 Sc244 2.025 . S
C246 O252 1.268 . S
C246 O262 1.268 . S
C247 O253 1.268 . S
C247 O261 1.268 . S
C248 O254 1.268 . S
C248 O263 1.268 . S
C249 O255 1.268 . S
C249 O259 1.268 . S
C250 O256 1.268 . S
C250 O258 1.268 . S
C251 O257 1.268 . S
C251 O260 1.268 . S
O252 Sc242 2.105 . S
O252 C246 1.268 . S
O253 Sc243 2.105 . S
O253 C247 1.268 . S
O254 Sc244 2.105 . S
O254 C248 1.268 . S
O255 Sc242 2.105 . S
O255 C249 1.268 . S
O256 Sc244 2.105 . S
O256 C250 1.268 . S
O257 Sc243 2.105 . S
O257 C251 1.268 . S
O258 Sc242 2.105 . S
O258 C250 1.268 . S
O259 Sc243 2.105 . S
O259 C249 1.268 . S
O260 Sc244 2.105 . S
O260 C251 1.268 . S
O261 Sc242 2.105 . S
O261 C247 1.268 . S
O262 Sc244 2.105 . S
O262 C246 1.268 . S
O263 Sc243 2.105 . S
O263 C248 1.268 . S
C264 C265 1.391 . S
C264 C266 1.394 . S
C264 H280 0.931 . S
C265 C264 1.391 . S
C265 C269 1.376 . S
C266 C264 1.394 . S
C266 C267 1.369 . S
C266 C270 1.531 . S
C267 C266 1.369 . S
C267 C268 1.410 . S
C267 C275 1.503 . S
C268 C267 1.410 . S
C268 C269 1.392 . S
C268 C271 1.511 . S
C269 C265 1.376 . S
C269 C268 1.392 . S
C269 H281 0.929 . S
C270 C266 1.531 . S
C270 H282 0.960 . S
C270 H283 0.962 . S
C270 H284 0.960 . S
C271 C268 1.511 . S
C271 H285 0.961 . S
C271 H286 0.961 . S
C271 H287 0.961 . S
C272 C273 1.370 . S
C272 C274 1.363 . S
C272 H288 0.931 . S
C273 C272 1.370 . S
C273 C277 1.408 . S
C274 C272 1.363 . S
C274 C275 1.370 . S
C274 C278 1.524 . S
C275 C267 1.503 . S
C275 C274 1.370 . S
C275 C276 1.403 . S
C276 C275 1.403 . S
C276 C277 1.404 . S
C276 C279 1.539 . S
C277 C273 1.408 . S
C277 C276 1.404 . S
C277 H289 0.930 . S
C278 C274 1.524 . S
C278 H290 0.956 . S
C278 H291 0.961 . S
C278 H292 0.961 . S
C279 C276 1.539 . S
C279 H293 0.958 . S
C279 H294 0.961 . S
C279 H295 0.960 . S
H280 C264 0.931 . S
H281 C269 0.929 . S
H282 C270 0.960 . S
H283 C270 0.962 . S
H284 C270 0.960 . S
H285 C271 0.961 . S
H286 C271 0.961 . S
H287 C271 0.961 . S
H288 C272 0.931 . S
H289 C277 0.930 . S
H290 C278 0.956 . S
H291 C278 0.961 . S
H292 C278 0.961 . S
H293 C279 0.958 . S
H294 C279 0.961 . S
H295 C279 0.960 . S
C296 C297 1.391 . S
C296 C298 1.394 . S
C296 H312 0.931 . S
C297 C296 1.391 . S
C297 C301 1.376 . S
C298 C296 1.394 . S
C298 C299 1.369 . S
C298 C302 1.531 . S
C299 C298 1.369 . S
C299 C300 1.410 . S
C299 C307 1.503 . S
C300 C299 1.410 . S
C300 C301 1.392 . S
C300 C303 1.511 . S
C301 C297 1.376 . S
C301 C300 1.392 . S
C301 H313 0.929 . S
C302 C298 1.531 . S
C302 H314 0.960 . S
C302 H315 0.962 . S
C302 H316 0.960 . S
C303 C300 1.511 . S
C303 H317 0.961 . S
C303 H318 0.961 . S
C303 H319 0.961 . S
C304 C305 1.370 . S
C304 C306 1.363 . S
C304 H320 0.931 . S
C305 C304 1.370 . S
C305 C309 1.408 . S
C306 C304 1.363 . S
C306 C307 1.370 . S
C306 C310 1.524 . S
C307 C299 1.503 . S
C307 C306 1.370 . S
C307 C308 1.403 . S
C308 C307 1.403 . S
C308 C309 1.404 . S
C308 C311 1.539 . S
C309 C305 1.408 . S
C309 C308 1.404 . S
C309 H321 0.930 . S
C310 C306 1.524 . S
C310 H322 0.956 . S
C310 H323 0.961 . S
C310 H324 0.961 . S
C311 C308 1.539 . S
C311 H325 0.958 . S
C311 H326 0.961 . S
C311 H327 0.960 . S
H312 C296 0.931 . S
H313 C301 0.929 . S
H314 C302 0.960 . S
H315 C302 0.962 . S
H316 C302 0.960 . S
H317 C303 0.961 . S
H318 C303 0.961 . S
H319 C303 0.961 . S
H320 C304 0.931 . S
H321 C309 0.930 . S
H322 C310 0.956 . S
H323 C310 0.961 . S
H324 C310 0.961 . S
H325 C311 0.958 . S
H326 C311 0.961 . S
H327 C311 0.960 . S
C328 C329 1.391 . S
C328 C330 1.394 . S
C328 H344 0.931 . S
C329 C328 1.391 . S
C329 C333 1.376 . S
C330 C328 1.394 . S
C330 C331 1.369 . S
C330 C334 1.531 . S
C331 C330 1.369 . S
C331 C332 1.410 . S
C331 C339 1.503 . S
C332 C331 1.410 . S
C332 C333 1.392 . S
C332 C335 1.511 . S
C333 C329 1.376 . S
C333 C332 1.392 . S
C333 H345 0.929 . S
C334 C330 1.531 . S
C334 H346 0.960 . S
C334 H347 0.962 . S
C334 H348 0.960 . S
C335 C332 1.511 . S
C335 H349 0.961 . S
C335 H350 0.961 . S
C335 H351 0.961 . S
C336 C337 1.370 . S
C336 C338 1.363 . S
C336 H352 0.931 . S
C337 C336 1.370 . S
C337 C341 1.408 . S
C338 C336 1.363 . S
C338 C339 1.370 . S
C338 C342 1.524 . S
C339 C331 1.503 . S
C339 C338 1.370 . S
C339 C340 1.403 . S
C340 C339 1.403 . S
C340 C341 1.404 . S
C340 C343 1.539 . S
C341 C337 1.408 . S
C341 C340 1.404 . S
C341 H353 0.930 . S
C342 C338 1.524 . S
C342 H354 0.956 . S
C342 H355 0.961 . S
C342 H356 0.961 . S
C343 C340 1.539 . S
C343 H357 0.958 . S
C343 H358 0.961 . S
C343 H359 0.960 . S
H344 C328 0.931 . S
H345 C333 0.929 . S
H346 C334 0.960 . S
H347 C334 0.962 . S
H348 C334 0.960 . S
H349 C335 0.961 . S
H350 C335 0.961 . S
H351 C335 0.961 . S
H352 C336 0.931 . S
H353 C341 0.930 . S
H354 C342 0.956 . S
H355 C342 0.961 . S
H356 C342 0.961 . S
H357 C343 0.958 . S
H358 C343 0.961 . S
H359 C343 0.960 . S
C360 C361 1.391 . S
C360 C362 1.394 . S
C360 H376 0.931 . S
C361 C360 1.391 . S
C361 C365 1.376 . S
C362 C360 1.394 . S
C362 C363 1.369 . S
C362 C366 1.531 . S
C363 C362 1.369 . S
C363 C364 1.410 . S
C363 C371 1.503 . S
C364 C363 1.410 . S
C364 C365 1.392 . S
C364 C367 1.511 . S
C365 C361 1.376 . S
C365 C364 1.392 . S
C365 H377 0.929 . S
C366 C362 1.531 . S
C366 H378 0.960 . S
C366 H379 0.962 . S
C366 H380 0.960 . S
C367 C364 1.511 . S
C367 H381 0.961 . S
C367 H382 0.961 . S
C367 H383 0.961 . S
C368 C369 1.370 . S
C368 C370 1.363 . S
C368 H384 0.931 . S
C369 C368 1.370 . S
C369 C373 1.408 . S
C370 C368 1.363 . S
C370 C371 1.370 . S
C370 C374 1.524 . S
C371 C363 1.503 . S
C371 C370 1.370 . S
C371 C372 1.403 . S
C372 C371 1.403 . S
C372 C373 1.404 . S
C372 C375 1.539 . S
C373 C369 1.408 . S
C373 C372 1.404 . S
C373 H385 0.930 . S
C374 C370 1.524 . S
C374 H386 0.956 . S
C374 H387 0.961 . S
C374 H388 0.961 . S
C375 C372 1.539 . S
C375 H389 0.958 . S
C375 H390 0.961 . S
C375 H391 0.960 . S
H376 C360 0.931 . S
H377 C365 0.929 . S
H378 C366 0.960 . S
H379 C366 0.962 . S
H380 C366 0.960 . S
H381 C367 0.961 . S
H382 C367 0.961 . S
H383 C367 0.961 . S
H384 C368 0.931 . S
H385 C373 0.930 . S
H386 C374 0.956 . S
H387 C374 0.961 . S
H388 C374 0.961 . S
H389 C375 0.958 . S
H390 C375 0.961 . S
H391 C375 0.960 . S
C392 C393 1.391 . S
C392 C394 1.394 . S
C392 H408 0.931 . S
C393 C392 1.391 . S
C393 C397 1.376 . S
C394 C392 1.394 . S
C394 C395 1.369 . S
C394 C398 1.531 . S
C395 C394 1.369 . S
C395 C396 1.410 . S
C395 C403 1.503 . S
C396 C395 1.410 . S
C396 C397 1.392 . S
C396 C399 1.511 . S
C397 C393 1.376 . S
C397 C396 1.392 . S
C397 H409 0.929 . S
C398 C394 1.531 . S
C398 H410 0.960 . S
C398 H411 0.962 . S
C398 H412 0.960 . S
C399 C396 1.511 . S
C399 H413 0.961 . S
C399 H414 0.961 . S
C399 H415 0.961 . S
C400 C401 1.370 . S
C400 C402 1.363 . S
C400 H416 0.931 . S
C401 C400 1.370 . S
C401 C405 1.408 . S
C402 C400 1.363 . S
C402 C403 1.370 . S
C402 C406 1.524 . S
C403 C395 1.503 . S
C403 C402 1.370 . S
C403 C404 1.403 . S
C404 C403 1.403 . S
C404 C405 1.404 . S
C404 C407 1.539 . S
C405 C401 1.408 . S
C405 C404 1.404 . S
C405 H417 0.930 . S
C406 C402 1.524 . S
C406 H418 0.956 . S
C406 H419 0.961 . S
C406 H420 0.961 . S
C407 C404 1.539 . S
C407 H421 0.958 . S
C407 H422 0.961 . S
C407 H423 0.960 . S
H408 C392 0.931 . S
H409 C397 0.929 . S
H410 C398 0.960 . S
H411 C398 0.962 . S
H412 C398 0.960 . S
H413 C399 0.961 . S
H414 C399 0.961 . S
H415 C399 0.961 . S
H416 C400 0.931 . S
H417 C405 0.930 . S
H418 C406 0.956 . S
H419 C406 0.961 . S
H420 C406 0.961 . S
H421 C407 0.958 . S
H422 C407 0.961 . S
H423 C407 0.960 . S
C424 C425 1.391 . S
C424 C426 1.394 . S
C424 H440 0.931 . S
C425 C424 1.391 . S
C425 C429 1.376 . S
C426 C424 1.394 . S
C426 C427 1.369 . S
C426 C430 1.531 . S
C427 C426 1.369 . S
C427 C428 1.410 . S
C427 C435 1.503 . S
C428 C427 1.410 . S
C428 C429 1.392 . S
C428 C431 1.511 . S
C429 C425 1.376 . S
C429 C428 1.392 . S
C429 H441 0.929 . S
C430 C426 1.531 . S
C430 H442 0.960 . S
C430 H443 0.962 . S
C430 H444 0.960 . S
C431 C428 1.511 . S
C431 H445 0.961 . S
C431 H446 0.961 . S
C431 H447 0.961 . S
C432 C433 1.370 . S
C432 C434 1.363 . S
C432 H448 0.931 . S
C433 C432 1.370 . S
C433 C437 1.408 . S
C434 C432 1.363 . S
C434 C435 1.370 . S
C434 C438 1.524 . S
C435 C427 1.503 . S
C435 C434 1.370 . S
C435 C436 1.403 . S
C436 C435 1.403 . S
C436 C437 1.404 . S
C436 C439 1.539 . S
C437 C433 1.408 . S
C437 C436 1.404 . S
C437 H449 0.930 . S
C438 C434 1.524 . S
C438 H450 0.956 . S
C438 H451 0.961 . S
C438 H452 0.961 . S
C439 C436 1.539 . S
C439 H453 0.958 . S
C439 H454 0.961 . S
C439 H455 0.960 . S
H440 C424 0.931 . S
H441 C429 0.929 . S
H442 C430 0.960 . S
H443 C430 0.962 . S
H444 C430 0.960 . S
H445 C431 0.961 . S
H446 C431 0.961 . S
H447 C431 0.961 . S
H448 C432 0.931 . S
H449 C437 0.930 . S
H450 C438 0.956 . S
H451 C438 0.961 . S
H452 C438 0.961 . S
H453 C439 0.958 . S
H454 C439 0.961 . S
H455 C439 0.960 . S
C456 C457 1.391 . S
C456 C458 1.394 . S
C456 H472 0.931 . S
C457 C456 1.391 . S
C457 C461 1.376 . S
C458 C456 1.394 . S
C458 C459 1.369 . S
C458 C462 1.531 . S
C459 C458 1.369 . S
C459 C460 1.410 . S
C459 C467 1.503 . S
C460 C459 1.410 . S
C460 C461 1.392 . S
C460 C463 1.511 . S
C461 C457 1.376 . S
C461 C460 1.392 . S
C461 H473 0.929 . S
C462 C458 1.531 . S
C462 H474 0.960 . S
C462 H475 0.962 . S
C462 H476 0.960 . S
C463 C460 1.511 . S
C463 H477 0.961 . S
C463 H478 0.961 . S
C463 H479 0.961 . S
C464 C465 1.370 . S
C464 C466 1.363 . S
C464 H480 0.931 . S
C465 C464 1.370 . S
C465 C469 1.408 . S
C466 C464 1.363 . S
C466 C467 1.370 . S
C466 C470 1.524 . S
C467 C459 1.503 . S
C467 C466 1.370 . S
C467 C468 1.403 . S
C468 C467 1.403 . S
C468 C469 1.404 . S
C468 C471 1.539 . S
C469 C465 1.408 . S
C469 C468 1.404 . S
C469 H481 0.930 . S
C470 C466 1.524 . S
C470 H482 0.956 . S
C470 H483 0.961 . S
C470 H484 0.961 . S
C471 C468 1.539 . S
C471 H485 0.958 . S
C471 H486 0.961 . S
C471 H487 0.960 . S
H472 C456 0.931 . S
H473 C461 0.929 . S
H474 C462 0.960 . S
H475 C462 0.962 . S
H476 C462 0.960 . S
H477 C463 0.961 . S
H478 C463 0.961 . S
H479 C463 0.961 . S
H480 C464 0.931 . S
H481 C469 0.930 . S
H482 C470 0.956 . S
H483 C470 0.961 . S
H484 C470 0.961 . S
H485 C471 0.958 . S
H486 C471 0.961 . S
H487 C471 0.960 . S
C488 C489 1.391 . S
C488 C490 1.394 . S
C488 H504 0.931 . S
C489 C488 1.391 . S
C489 C493 1.376 . S
C490 C488 1.394 . S
C490 C491 1.369 . S
C490 C494 1.531 . S
C491 C490 1.369 . S
C491 C492 1.410 . S
C491 C499 1.503 . S
C492 C491 1.410 . S
C492 C493 1.392 . S
C492 C495 1.511 . S
C493 C489 1.376 . S
C493 C492 1.392 . S
C493 H505 0.929 . S
C494 C490 1.531 . S
C494 H506 0.960 . S
C494 H507 0.962 . S
C494 H508 0.960 . S
C495 C492 1.511 . S
C495 H509 0.961 . S
C495 H510 0.961 . S
C495 H511 0.961 . S
C496 C497 1.370 . S
C496 C498 1.363 . S
C496 H512 0.931 . S
C497 C496 1.370 . S
C497 C501 1.408 . S
C498 C496 1.363 . S
C498 C499 1.370 . S
C498 C502 1.524 . S
C499 C491 1.503 . S
C499 C498 1.370 . S
C499 C500 1.403 . S
C500 C499 1.403 . S
C500 C501 1.404 . S
C500 C503 1.539 . S
C501 C497 1.408 . S
C501 C500 1.404 . S
C501 H513 0.930 . S
C502 C498 1.524 . S
C502 H514 0.956 . S
C502 H515 0.961 . S
C502 H516 0.961 . S
C503 C500 1.539 . S
C503 H517 0.958 . S
C503 H518 0.961 . S
C503 H519 0.960 . S
H504 C488 0.931 . S
H505 C493 0.929 . S
H506 C494 0.960 . S
H507 C494 0.962 . S
H508 C494 0.960 . S
H509 C495 0.961 . S
H510 C495 0.961 . S
H511 C495 0.961 . S
H512 C496 0.931 . S
H513 C501 0.930 . S
H514 C502 0.956 . S
H515 C502 0.961 . S
H516 C502 0.961 . S
H517 C503 0.958 . S
H518 C503 0.961 . S
H519 C503 0.960 . S
C520 C521 1.391 . S
C520 C522 1.394 . S
C520 H536 0.931 . S
C521 C520 1.391 . S
C521 C525 1.376 . S
C522 C520 1.394 . S
C522 C523 1.369 . S
C522 C526 1.531 . S
C523 C522 1.369 . S
C523 C524 1.410 . S
C523 C531 1.503 . S
C524 C523 1.410 . S
C524 C525 1.392 . S
C524 C527 1.511 . S
C525 C521 1.376 . S
C525 C524 1.392 . S
C525 H537 0.929 . S
C526 C522 1.531 . S
C526 H538 0.960 . S
C526 H539 0.962 . S
C526 H540 0.960 . S
C527 C524 1.511 . S
C527 H541 0.961 . S
C527 H542 0.961 . S
C527 H543 0.961 . S
C528 C529 1.370 . S
C528 C530 1.363 . S
C528 H544 0.931 . S
C529 C528 1.370 . S
C529 C533 1.408 . S
C530 C528 1.363 . S
C530 C531 1.370 . S
C530 C534 1.524 . S
C531 C523 1.503 . S
C531 C530 1.370 . S
C531 C532 1.403 . S
C532 C531 1.403 . S
C532 C533 1.404 . S
C532 C535 1.539 . S
C533 C529 1.408 . S
C533 C532 1.404 . S
C533 H545 0.930 . S
C534 C530 1.524 . S
C534 H546 0.956 . S
C534 H547 0.961 . S
C534 H548 0.961 . S
C535 C532 1.539 . S
C535 H549 0.958 . S
C535 H550 0.961 . S
C535 H551 0.960 . S
H536 C520 0.931 . S
H537 C525 0.929 . S
H538 C526 0.960 . S
H539 C526 0.962 . S
H540 C526 0.960 . S
H541 C527 0.961 . S
H542 C527 0.961 . S
H543 C527 0.961 . S
H544 C528 0.931 . S
H545 C533 0.930 . S
H546 C534 0.956 . S
H547 C534 0.961 . S
H548 C534 0.961 . S
H549 C535 0.958 . S
H550 C535 0.961 . S
H551 C535 0.960 . S
C552 C553 1.391 . S
C552 C554 1.394 . S
C552 H568 0.931 . S
C553 C552 1.391 . S
C553 C557 1.376 . S
C554 C552 1.394 . S
C554 C555 1.369 . S
C554 C558 1.531 . S
C555 C554 1.369 . S
C555 C556 1.410 . S
C555 C563 1.503 . S
C556 C555 1.410 . S
C556 C557 1.392 . S
C556 C559 1.511 . S
C557 C553 1.376 . S
C557 C556 1.392 . S
C557 H569 0.929 . S
C558 C554 1.531 . S
C558 H570 0.960 . S
C558 H571 0.962 . S
C558 H572 0.960 . S
C559 C556 1.511 . S
C559 H573 0.961 . S
C559 H574 0.961 . S
C559 H575 0.961 . S
C560 C561 1.370 . S
C560 C562 1.363 . S
C560 H576 0.931 . S
C561 C560 1.370 . S
C561 C565 1.408 . S
C562 C560 1.363 . S
C562 C563 1.370 . S
C562 C566 1.524 . S
C563 C555 1.503 . S
C563 C562 1.370 . S
C563 C564 1.403 . S
C564 C563 1.403 . S
C564 C565 1.404 . S
C564 C567 1.539 . S
C565 C561 1.408 . S
C565 C564 1.404 . S
C565 H577 0.930 . S
C566 C562 1.524 . S
C566 H578 0.956 . S
C566 H579 0.961 . S
C566 H580 0.961 . S
C567 C564 1.539 . S
C567 H581 0.958 . S
C567 H582 0.961 . S
C567 H583 0.960 . S
H568 C552 0.931 . S
H569 C557 0.929 . S
H570 C558 0.960 . S
H571 C558 0.962 . S
H572 C558 0.960 . S
H573 C559 0.961 . S
H574 C559 0.961 . S
H575 C559 0.961 . S
H576 C560 0.931 . S
H577 C565 0.930 . S
H578 C566 0.956 . S
H579 C566 0.961 . S
H580 C566 0.961 . S
H581 C567 0.958 . S
H582 C567 0.961 . S
H583 C567 0.960 . S
C584 C585 1.391 . S
C584 C586 1.394 . S
C584 H600 0.931 . S
C585 C584 1.391 . S
C585 C589 1.376 . S
C586 C584 1.394 . S
C586 C587 1.369 . S
C586 C590 1.531 . S
C587 C586 1.369 . S
C587 C588 1.410 . S
C587 C595 1.503 . S
C588 C587 1.410 . S
C588 C589 1.392 . S
C588 C591 1.511 . S
C589 C585 1.376 . S
C589 C588 1.392 . S
C589 H601 0.929 . S
C590 C586 1.531 . S
C590 H602 0.960 . S
C590 H603 0.962 . S
C590 H604 0.960 . S
C591 C588 1.511 . S
C591 H605 0.961 . S
C591 H606 0.961 . S
C591 H607 0.961 . S
C592 C593 1.370 . S
C592 C594 1.363 . S
C592 H608 0.931 . S
C593 C592 1.370 . S
C593 C597 1.408 . S
C594 C592 1.363 . S
C594 C595 1.370 . S
C594 C598 1.524 . S
C595 C587 1.503 . S
C595 C594 1.370 . S
C595 C596 1.403 . S
C596 C595 1.403 . S
C596 C597 1.404 . S
C596 C599 1.539 . S
C597 C593 1.408 . S
C597 C596 1.404 . S
C597 H609 0.930 . S
C598 C594 1.524 . S
C598 H610 0.956 . S
C598 H611 0.961 . S
C598 H612 0.961 . S
C599 C596 1.539 . S
C599 H613 0.958 . S
C599 H614 0.961 . S
C599 H615 0.960 . S
H600 C584 0.931 . S
H601 C589 0.929 . S
H602 C590 0.960 . S
H603 C590 0.962 . S
H604 C590 0.960 . S
H605 C591 0.961 . S
H606 C591 0.961 . S
H607 C591 0.961 . S
H608 C592 0.931 . S
H609 C597 0.930 . S
H610 C598 0.956 . S
H611 C598 0.961 . S
H612 C598 0.961 . S
H613 C599 0.958 . S
H614 C599 0.961 . S
H615 C599 0.960 . S
C616 C617 1.391 . S
C616 C618 1.394 . S
C616 H632 0.931 . S
C617 C616 1.391 . S
C617 C621 1.376 . S
C618 C616 1.394 . S
C618 C619 1.369 . S
C618 C622 1.531 . S
C619 C618 1.369 . S
C619 C620 1.410 . S
C619 C627 1.503 . S
C620 C619 1.410 . S
C620 C621 1.392 . S
C620 C623 1.511 . S
C621 C617 1.376 . S
C621 C620 1.392 . S
C621 H633 0.929 . S
C622 C618 1.531 . S
C622 H634 0.960 . S
C622 H635 0.962 . S
C622 H636 0.960 . S
C623 C620 1.511 . S
C623 H637 0.961 . S
C623 H638 0.961 . S
C623 H639 0.961 . S
C624 C625 1.370 . S
C624 C626 1.363 . S
C624 H640 0.931 . S
C625 C624 1.370 . S
C625 C629 1.408 . S
C626 C624 1.363 . S
C626 C627 1.370 . S
C626 C630 1.524 . S
C627 C619 1.503 . S
C627 C626 1.370 . S
C627 C628 1.403 . S
C628 C627 1.403 . S
C628 C629 1.404 . S
C628 C631 1.539 . S
C629 C625 1.408 . S
C629 C628 1.404 . S
C629 H641 0.930 . S
C630 C626 1.524 . S
C630 H642 0.956 . S
C630 H643 0.961 . S
C630 H644 0.961 . S
C631 C628 1.539 . S
C631 H645 0.958 . S
C631 H646 0.961 . S
C631 H647 0.960 . S
H632 C616 0.931 . S
H633 C621 0.929 . S
H634 C622 0.960 . S
H635 C622 0.962 . S
H636 C622 0.960 . S
H637 C623 0.961 . S
H638 C623 0.961 . S
H639 C623 0.961 . S
H640 C624 0.931 . S
H641 C629 0.930 . S
H642 C630 0.956 . S
H643 C630 0.961 . S
H644 C630 0.961 . S
H645 C631 0.958 . S
H646 C631 0.961 . S
H647 C631 0.960 . S
C648 C649 1.391 . S
C648 C650 1.394 . S
C648 H664 0.931 . S
C649 C648 1.391 . S
C649 C653 1.376 . S
C650 C648 1.394 . S
C650 C651 1.369 . S
C650 C654 1.531 . S
C651 C650 1.369 . S
C651 C652 1.410 . S
C651 C659 1.503 . S
C652 C651 1.410 . S
C652 C653 1.392 . S
C652 C655 1.511 . S
C653 C649 1.376 . S
C653 C652 1.392 . S
C653 H665 0.929 . S
C654 C650 1.531 . S
C654 H666 0.960 . S
C654 H667 0.962 . S
C654 H668 0.960 . S
C655 C652 1.511 . S
C655 H669 0.961 . S
C655 H670 0.961 . S
C655 H671 0.961 . S
C656 C657 1.370 . S
C656 C658 1.363 . S
C656 H672 0.931 . S
C657 C656 1.370 . S
C657 C661 1.408 . S
C658 C656 1.363 . S
C658 C659 1.370 . S
C658 C662 1.524 . S
C659 C651 1.503 . S
C659 C658 1.370 . S
C659 C660 1.403 . S
C660 C659 1.403 . S
C660 C661 1.404 . S
C660 C663 1.539 . S
C661 C657 1.408 . S
C661 C660 1.404 . S
C661 H673 0.930 . S
C662 C658 1.524 . S
C662 H674 0.956 . S
C662 H675 0.961 . S
C662 H676 0.961 . S
C663 C660 1.539 . S
C663 H677 0.958 . S
C663 H678 0.961 . S
C663 H679 0.960 . S
H664 C648 0.931 . S
H665 C653 0.929 . S
H666 C654 0.960 . S
H667 C654 0.962 . S
H668 C654 0.960 . S
H669 C655 0.961 . S
H670 C655 0.961 . S
H671 C655 0.961 . S
H672 C656 0.931 . S
H673 C661 0.930 . S
H674 C662 0.956 . S
H675 C662 0.961 . S
H676 C662 0.961 . S
H677 C663 0.958 . S
H678 C663 0.961 . S
H679 C663 0.960 . S
C680 C681 1.391 . S
C680 C682 1.394 . S
C680 H696 0.931 . S
C681 C680 1.391 . S
C681 C685 1.376 . S
C682 C680 1.394 . S
C682 C683 1.369 . S
C682 C686 1.531 . S
C683 C682 1.369 . S
C683 C684 1.410 . S
C683 C691 1.503 . S
C684 C683 1.410 . S
C684 C685 1.392 . S
C684 C687 1.511 . S
C685 C681 1.376 . S
C685 C684 1.392 . S
C685 H697 0.929 . S
C686 C682 1.531 . S
C686 H698 0.960 . S
C686 H699 0.962 . S
C686 H700 0.960 . S
C687 C684 1.511 . S
C687 H701 0.961 . S
C687 H702 0.961 . S
C687 H703 0.961 . S
C688 C689 1.370 . S
C688 C690 1.363 . S
C688 H704 0.931 . S
C689 C688 1.370 . S
C689 C693 1.408 . S
C690 C688 1.363 . S
C690 C691 1.370 . S
C690 C694 1.524 . S
C691 C683 1.503 . S
C691 C690 1.370 . S
C691 C692 1.403 . S
C692 C691 1.403 . S
C692 C693 1.404 . S
C692 C695 1.539 . S
C693 C689 1.408 . S
C693 C692 1.404 . S
C693 H705 0.930 . S
C694 C690 1.524 . S
C694 H706 0.956 . S
C694 H707 0.961 . S
C694 H708 0.961 . S
C695 C692 1.539 . S
C695 H709 0.958 . S
C695 H710 0.961 . S
C695 H711 0.960 . S
H696 C680 0.931 . S
H697 C685 0.929 . S
H698 C686 0.960 . S
H699 C686 0.962 . S
H700 C686 0.960 . S
H701 C687 0.961 . S
H702 C687 0.961 . S
H703 C687 0.961 . S
H704 C688 0.931 . S
H705 C693 0.930 . S
H706 C694 0.956 . S
H707 C694 0.961 . S
H708 C694 0.961 . S
H709 C695 0.958 . S
H710 C695 0.961 . S
H711 C695 0.960 . S
C712 C713 1.391 . S
C712 C714 1.394 . S
C712 H728 0.931 . S
C713 C712 1.391 . S
C713 C717 1.376 . S
C714 C712 1.394 . S
C714 C715 1.369 . S
C714 C718 1.531 . S
C715 C714 1.369 . S
C715 C716 1.410 . S
C715 C723 1.503 . S
C716 C715 1.410 . S
C716 C717 1.392 . S
C716 C719 1.511 . S
C717 C713 1.376 . S
C717 C716 1.392 . S
C717 H729 0.929 . S
C718 C714 1.531 . S
C718 H730 0.960 . S
C718 H731 0.962 . S
C718 H732 0.960 . S
C719 C716 1.511 . S
C719 H733 0.961 . S
C719 H734 0.961 . S
C719 H735 0.961 . S
C720 C721 1.370 . S
C720 C722 1.363 . S
C720 H736 0.931 . S
C721 C720 1.370 . S
C721 C725 1.408 . S
C722 C720 1.363 . S
C722 C723 1.370 . S
C722 C726 1.524 . S
C723 C715 1.503 . S
C723 C722 1.370 . S
C723 C724 1.403 . S
C724 C723 1.403 . S
C724 C725 1.404 . S
C724 C727 1.539 . S
C725 C721 1.408 . S
C725 C724 1.404 . S
C725 H737 0.930 . S
C726 C722 1.524 . S
C726 H738 0.956 . S
C726 H739 0.961 . S
C726 H740 0.961 . S
C727 C724 1.539 . S
C727 H741 0.958 . S
C727 H742 0.961 . S
C727 H743 0.960 . S
H728 C712 0.931 . S
H729 C717 0.929 . S
H730 C718 0.960 . S
H731 C718 0.962 . S
H732 C718 0.960 . S
H733 C719 0.961 . S
H734 C719 0.961 . S
H735 C719 0.961 . S
H736 C720 0.931 . S
H737 C725 0.930 . S
H738 C726 0.956 . S
H739 C726 0.961 . S
H740 C726 0.961 . S
H741 C727 0.958 . S
H742 C727 0.961 . S
H743 C727 0.960 . S
C744 C745 1.391 . S
C744 C746 1.394 . S
C744 H760 0.931 . S
C745 C744 1.391 . S
C745 C749 1.376 . S
C746 C744 1.394 . S
C746 C747 1.369 . S
C746 C750 1.531 . S
C747 C746 1.369 . S
C747 C748 1.410 . S
C747 C755 1.503 . S
C748 C747 1.410 . S
C748 C749 1.392 . S
C748 C751 1.511 . S
C749 C745 1.376 . S
C749 C748 1.392 . S
C749 H761 0.929 . S
C750 C746 1.531 . S
C750 H762 0.960 . S
C750 H763 0.962 . S
C750 H764 0.960 . S
C751 C748 1.511 . S
C751 H765 0.961 . S
C751 H766 0.961 . S
C751 H767 0.961 . S
C752 C753 1.370 . S
C752 C754 1.363 . S
C752 H768 0.931 . S
C753 C752 1.370 . S
C753 C757 1.408 . S
C754 C752 1.363 . S
C754 C755 1.370 . S
C754 C758 1.524 . S
C755 C747 1.503 . S
C755 C754 1.370 . S
C755 C756 1.403 . S
C756 C755 1.403 . S
C756 C757 1.404 . S
C756 C759 1.539 . S
C757 C753 1.408 . S
C757 C756 1.404 . S
C757 H769 0.930 . S
C758 C754 1.524 . S
C758 H770 0.956 . S
C758 H771 0.961 . S
C758 H772 0.961 . S
C759 C756 1.539 . S
C759 H773 0.958 . S
C759 H774 0.961 . S
C759 H775 0.960 . S
H760 C744 0.931 . S
H761 C749 0.929 . S
H762 C750 0.960 . S
H763 C750 0.962 . S
H764 C750 0.960 . S
H765 C751 0.961 . S
H766 C751 0.961 . S
H767 C751 0.961 . S
H768 C752 0.931 . S
H769 C757 0.930 . S
H770 C758 0.956 . S
H771 C758 0.961 . S
H772 C758 0.961 . S
H773 C759 0.958 . S
H774 C759 0.961 . S
H775 C759 0.960 . S
C776 C777 1.391 . S
C776 C778 1.394 . S
C776 H792 0.931 . S
C777 C776 1.391 . S
C777 C781 1.376 . S
C778 C776 1.394 . S
C778 C779 1.369 . S
C778 C782 1.531 . S
C779 C778 1.369 . S
C779 C780 1.410 . S
C779 C787 1.503 . S
C780 C779 1.410 . S
C780 C781 1.392 . S
C780 C783 1.511 . S
C781 C777 1.376 . S
C781 C780 1.392 . S
C781 H793 0.929 . S
C782 C778 1.531 . S
C782 H794 0.960 . S
C782 H795 0.962 . S
C782 H796 0.960 . S
C783 C780 1.511 . S
C783 H797 0.961 . S
C783 H798 0.961 . S
C783 H799 0.961 . S
C784 C785 1.370 . S
C784 C786 1.363 . S
C784 H800 0.931 . S
C785 C784 1.370 . S
C785 C789 1.408 . S
C786 C784 1.363 . S
C786 C787 1.370 . S
C786 C790 1.524 . S
C787 C779 1.503 . S
C787 C786 1.370 . S
C787 C788 1.403 . S
C788 C787 1.403 . S
C788 C789 1.404 . S
C788 C791 1.539 . S
C789 C785 1.408 . S
C789 C788 1.404 . S
C789 H801 0.930 . S
C790 C786 1.524 . S
C790 H802 0.956 . S
C790 H803 0.961 . S
C790 H804 0.961 . S
C791 C788 1.539 . S
C791 H805 0.958 . S
C791 H806 0.961 . S
C791 H807 0.960 . S
H792 C776 0.931 . S
H793 C781 0.929 . S
H794 C782 0.960 . S
H795 C782 0.962 . S
H796 C782 0.960 . S
H797 C783 0.961 . S
H798 C783 0.961 . S
H799 C783 0.961 . S
H800 C784 0.931 . S
H801 C789 0.930 . S
H802 C790 0.956 . S
H803 C790 0.961 . S
H804 C790 0.961 . S
H805 C791 0.958 . S
H806 C791 0.961 . S
H807 C791 0.960 . S
C808 C809 1.391 . S
C808 C810 1.394 . S
C808 H824 0.931 . S
C809 C808 1.391 . S
C809 C813 1.376 . S
C810 C808 1.394 . S
C810 C811 1.369 . S
C810 C814 1.531 . S
C811 C810 1.369 . S
C811 C812 1.410 . S
C811 C819 1.503 . S
C812 C811 1.410 . S
C812 C813 1.392 . S
C812 C815 1.511 . S
C813 C809 1.376 . S
C813 C812 1.392 . S
C813 H825 0.929 . S
C814 C810 1.531 . S
C814 H826 0.960 . S
C814 H827 0.962 . S
C814 H828 0.960 . S
C815 C812 1.511 . S
C815 H829 0.961 . S
C815 H830 0.961 . S
C815 H831 0.961 . S
C816 C817 1.370 . S
C816 C818 1.363 . S
C816 H832 0.931 . S
C817 C816 1.370 . S
C817 C821 1.408 . S
C818 C816 1.363 . S
C818 C819 1.370 . S
C818 C822 1.524 . S
C819 C811 1.503 . S
C819 C818 1.370 . S
C819 C820 1.403 . S
C820 C819 1.403 . S
C820 C821 1.404 . S
C820 C823 1.539 . S
C821 C817 1.408 . S
C821 C820 1.404 . S
C821 H833 0.930 . S
C822 C818 1.524 . S
C822 H834 0.956 . S
C822 H835 0.961 . S
C822 H836 0.961 . S
C823 C820 1.539 . S
C823 H837 0.958 . S
C823 H838 0.961 . S
C823 H839 0.960 . S
H824 C808 0.931 . S
H825 C813 0.929 . S
H826 C814 0.960 . S
H827 C814 0.962 . S
H828 C814 0.960 . S
H829 C815 0.961 . S
H830 C815 0.961 . S
H831 C815 0.961 . S
H832 C816 0.931 . S
H833 C821 0.930 . S
H834 C822 0.956 . S
H835 C822 0.961 . S
H836 C822 0.961 . S
H837 C823 0.958 . S
H838 C823 0.961 . S
H839 C823 0.960 . S
C840 C841 1.391 . S
C840 C842 1.394 . S
C840 H856 0.931 . S
C841 C840 1.391 . S
C841 C845 1.376 . S
C842 C840 1.394 . S
C842 C843 1.369 . S
C842 C846 1.531 . S
C843 C842 1.369 . S
C843 C844 1.410 . S
C843 C851 1.503 . S
C844 C843 1.410 . S
C844 C845 1.392 . S
C844 C847 1.511 . S
C845 C841 1.376 . S
C845 C844 1.392 . S
C845 H857 0.929 . S
C846 C842 1.531 . S
C846 H858 0.960 . S
C846 H859 0.962 . S
C846 H860 0.960 . S
C847 C844 1.511 . S
C847 H861 0.961 . S
C847 H862 0.961 . S
C847 H863 0.961 . S
C848 C849 1.370 . S
C848 C850 1.363 . S
C848 H864 0.931 . S
C849 C848 1.370 . S
C849 C853 1.408 . S
C850 C848 1.363 . S
C850 C851 1.370 . S
C850 C854 1.524 . S
C851 C843 1.503 . S
C851 C850 1.370 . S
C851 C852 1.403 . S
C852 C851 1.403 . S
C852 C853 1.404 . S
C852 C855 1.539 . S
C853 C849 1.408 . S
C853 C852 1.404 . S
C853 H865 0.930 . S
C854 C850 1.524 . S
C854 H866 0.956 . S
C854 H867 0.961 . S
C854 H868 0.961 . S
C855 C852 1.539 . S
C855 H869 0.958 . S
C855 H870 0.961 . S
C855 H871 0.960 . S
H856 C840 0.931 . S
H857 C845 0.929 . S
H858 C846 0.960 . S
H859 C846 0.962 . S
H860 C846 0.960 . S
H861 C847 0.961 . S
H862 C847 0.961 . S
H863 C847 0.961 . S
H864 C848 0.931 . S
H865 C853 0.930 . S
H866 C854 0.956 . S
H867 C854 0.961 . S
H868 C854 0.961 . S
H869 C855 0.958 . S
H870 C855 0.961 . S
H871 C855 0.960 . S
C872 C873 1.391 . S
C872 C874 1.394 . S
C872 H888 0.931 . S
C873 C872 1.391 . S
C873 C877 1.376 . S
C874 C872 1.394 . S
C874 C875 1.369 . S
C874 C878 1.531 . S
C875 C874 1.369 . S
C875 C876 1.410 . S
C875 C883 1.503 . S
C876 C875 1.410 . S
C876 C877 1.392 . S
C876 C879 1.511 . S
C877 C873 1.376 . S
C877 C876 1.392 . S
C877 H889 0.929 . S
C878 C874 1.531 . S
C878 H890 0.960 . S
C878 H891 0.962 . S
C878 H892 0.960 . S
C879 C876 1.511 . S
C879 H893 0.961 . S
C879 H894 0.961 . S
C879 H895 0.961 . S
C880 C881 1.370 . S
C880 C882 1.363 . S
C880 H896 0.931 . S
C881 C880 1.370 . S
C881 C885 1.408 . S
C882 C880 1.363 . S
C882 C883 1.370 . S
C882 C886 1.524 . S
C883 C875 1.503 . S
C883 C882 1.370 . S
C883 C884 1.403 . S
C884 C883 1.403 . S
C884 C885 1.404 . S
C884 C887 1.539 . S
C885 C881 1.408 . S
C885 C884 1.404 . S
C885 H897 0.930 . S
C886 C882 1.524 . S
C886 H898 0.956 . S
C886 H899 0.961 . S
C886 H900 0.961 . S
C887 C884 1.539 . S
C887 H901 0.958 . S
C887 H902 0.961 . S
C887 H903 0.960 . S
H888 C872 0.931 . S
H889 C877 0.929 . S
H890 C878 0.960 . S
H891 C878 0.962 . S
H892 C878 0.960 . S
H893 C879 0.961 . S
H894 C879 0.961 . S
H895 C879 0.961 . S
H896 C880 0.931 . S
H897 C885 0.930 . S
H898 C886 0.956 . S
H899 C886 0.961 . S
H900 C886 0.961 . S
H901 C887 0.958 . S
H902 C887 0.961 . S
H903 C887 0.960 . S
C904 C905 1.391 . S
C904 C906 1.394 . S
C904 H920 0.931 . S
C905 C904 1.391 . S
C905 C909 1.376 . S
C906 C904 1.394 . S
C906 C907 1.369 . S
C906 C910 1.531 . S
C907 C906 1.369 . S
C907 C908 1.410 . S
C907 C915 1.503 . S
C908 C907 1.410 . S
C908 C909 1.392 . S
C908 C911 1.511 . S
C909 C905 1.376 . S
C909 C908 1.392 . S
C909 H921 0.929 . S
C910 C906 1.531 . S
C910 H922 0.960 . S
C910 H923 0.962 . S
C910 H924 0.960 . S
C911 C908 1.511 . S
C911 H925 0.961 . S
C911 H926 0.961 . S
C911 H927 0.961 . S
C912 C913 1.370 . S
C912 C914 1.363 . S
C912 H928 0.931 . S
C913 C912 1.370 . S
C913 C917 1.408 . S
C914 C912 1.363 . S
C914 C915 1.370 . S
C914 C918 1.524 . S
C915 C907 1.503 . S
C915 C914 1.370 . S
C915 C916 1.403 . S
C916 C915 1.403 . S
C916 C917 1.404 . S
C916 C919 1.539 . S
C917 C913 1.408 . S
C917 C916 1.404 . S
C917 H929 0.930 . S
C918 C914 1.524 . S
C918 H930 0.956 . S
C918 H931 0.961 . S
C918 H932 0.961 . S
C919 C916 1.539 . S
C919 H933 0.958 . S
C919 H934 0.961 . S
C919 H935 0.960 . S
H920 C904 0.931 . S
H921 C909 0.929 . S
H922 C910 0.960 . S
H923 C910 0.962 . S
H924 C910 0.960 . S
H925 C911 0.961 . S
H926 C911 0.961 . S
H927 C911 0.961 . S
H928 C912 0.931 . S
H929 C917 0.930 . S
H930 C918 0.956 . S
H931 C918 0.961 . S
H932 C918 0.961 . S
H933 C919 0.958 . S
H934 C919 0.961 . S
H935 C919 0.960 . S
C936 C937 1.391 . S
C936 C938 1.394 . S
C936 H952 0.931 . S
C937 C936 1.391 . S
C937 C941 1.376 . S
C938 C936 1.394 . S
C938 C939 1.369 . S
C938 C942 1.531 . S
C939 C938 1.369 . S
C939 C940 1.410 . S
C939 C947 1.503 . S
C940 C939 1.410 . S
C940 C941 1.392 . S
C940 C943 1.511 . S
C941 C937 1.376 . S
C941 C940 1.392 . S
C941 H953 0.929 . S
C942 C938 1.531 . S
C942 H954 0.960 . S
C942 H955 0.962 . S
C942 H956 0.960 . S
C943 C940 1.511 . S
C943 H957 0.961 . S
C943 H958 0.961 . S
C943 H959 0.961 . S
C944 C945 1.370 . S
C944 C946 1.363 . S
C944 H960 0.931 . S
C945 C944 1.370 . S
C945 C949 1.408 . S
C946 C944 1.363 . S
C946 C947 1.370 . S
C946 C950 1.524 . S
C947 C939 1.503 . S
C947 C946 1.370 . S
C947 C948 1.403 . S
C948 C947 1.403 . S
C948 C949 1.404 . S
C948 C951 1.539 . S
C949 C945 1.408 . S
C949 C948 1.404 . S
C949 H961 0.930 . S
C950 C946 1.524 . S
C950 H962 0.956 . S
C950 H963 0.961 . S
C950 H964 0.961 . S
C951 C948 1.539 . S
C951 H965 0.958 . S
C951 H966 0.961 . S
C951 H967 0.960 . S
H952 C936 0.931 . S
H953 C941 0.929 . S
H954 C942 0.960 . S
H955 C942 0.962 . S
H956 C942 0.960 . S
H957 C943 0.961 . S
H958 C943 0.961 . S
H959 C943 0.961 . S
H960 C944 0.931 . S
H961 C949 0.930 . S
H962 C950 0.956 . S
H963 C950 0.961 . S
H964 C950 0.961 . S
H965 C951 0.958 . S
H966 C951 0.961 . S
H967 C951 0.960 . S
C968 C969 1.391 . S
C968 C970 1.394 . S
C968 H984 0.931 . S
C969 C968 1.391 . S
C969 C973 1.376 . S
C970 C968 1.394 . S
C970 C971 1.369 . S
C970 C974 1.531 . S
C971 C970 1.369 . S
C971 C972 1.410 . S
C971 C979 1.503 . S
C972 C971 1.410 . S
C972 C973 1.392 . S
C972 C975 1.511 . S
C973 C969 1.376 . S
C973 C972 1.392 . S
C973 H985 0.929 . S
C974 C970 1.531 . S
C974 H986 0.960 . S
C974 H987 0.962 . S
C974 H988 0.960 . S
C975 C972 1.511 . S
C975 H989 0.961 . S
C975 H990 0.961 . S
C975 H991 0.961 . S
C976 C977 1.370 . S
C976 C978 1.363 . S
C976 H992 0.931 . S
C977 C976 1.370 . S
C977 C981 1.408 . S
C978 C976 1.363 . S
C978 C979 1.370 . S
C978 C982 1.524 . S
C979 C971 1.503 . S
C979 C978 1.370 . S
C979 C980 1.403 . S
C980 C979 1.403 . S
C980 C981 1.404 . S
C980 C983 1.539 . S
C981 C977 1.408 . S
C981 C980 1.404 . S
C981 H993 0.930 . S
C982 C978 1.524 . S
C982 H994 0.956 . S
C982 H995 0.961 . S
C982 H996 0.961 . S
C983 C980 1.539 . S
C983 H997 0.958 . S
C983 H998 0.961 . S
C983 H999 0.960 . S
H984 C968 0.931 . S
H985 C973 0.929 . S
H986 C974 0.960 . S
H987 C974 0.962 . S
H988 C974 0.960 . S
H989 C975 0.961 . S
H990 C975 0.961 . S
H991 C975 0.961 . S
H992 C976 0.931 . S
H993 C981 0.930 . S
H994 C982 0.956 . S
H995 C982 0.961 . S
H996 C982 0.961 . S
H997 C983 0.958 . S
H998 C983 0.961 . S
H999 C983 0.960 . S
C1000 C1001 1.391 . S
C1000 C1002 1.394 . S
C1000 H1016 0.931 . S
C1001 C1000 1.391 . S
C1001 C1005 1.376 . S
C1002 C1000 1.394 . S
C1002 C1003 1.369 . S
C1002 C1006 1.531 . S
C1003 C1002 1.369 . S
C1003 C1004 1.410 . S
C1003 C1011 1.503 . S
C1004 C1003 1.410 . S
C1004 C1005 1.392 . S
C1004 C1007 1.511 . S
C1005 C1001 1.376 . S
C1005 C1004 1.392 . S
C1005 H1017 0.929 . S
C1006 C1002 1.531 . S
C1006 H1018 0.960 . S
C1006 H1019 0.962 . S
C1006 H1020 0.960 . S
C1007 C1004 1.511 . S
C1007 H1021 0.961 . S
C1007 H1022 0.961 . S
C1007 H1023 0.961 . S
C1008 C1009 1.370 . S
C1008 C1010 1.363 . S
C1008 H1024 0.931 . S
C1009 C1008 1.370 . S
C1009 C1013 1.408 . S
C1010 C1008 1.363 . S
C1010 C1011 1.370 . S
C1010 C1014 1.524 . S
C1011 C1003 1.503 . S
C1011 C1010 1.370 . S
C1011 C1012 1.403 . S
C1012 C1011 1.403 . S
C1012 C1013 1.404 . S
C1012 C1015 1.539 . S
C1013 C1009 1.408 . S
C1013 C1012 1.404 . S
C1013 H1025 0.930 . S
C1014 C1010 1.524 . S
C1014 H1026 0.956 . S
C1014 H1027 0.961 . S
C1014 H1028 0.961 . S
C1015 C1012 1.539 . S
C1015 H1029 0.958 . S
C1015 H1030 0.961 . S
C1015 H1031 0.960 . S
H1016 C1000 0.931 . S
H1017 C1005 0.929 . S
H1018 C1006 0.960 . S
H1019 C1006 0.962 . S
H1020 C1006 0.960 . S
H1021 C1007 0.961 . S
H1022 C1007 0.961 . S
H1023 C1007 0.961 . S
H1024 C1008 0.931 . S
H1025 C1013 0.930 . S
H1026 C1014 0.956 . S
H1027 C1014 0.961 . S
H1028 C1014 0.961 . S
H1029 C1015 0.958 . S
H1030 C1015 0.961 . S
H1031 C1015 0.960 . S
C1032 C1033 1.391 . S
C1032 C1034 1.394 . S
C1032 H1048 0.931 . S
C1033 C1032 1.391 . S
C1033 C1037 1.376 . S
C1034 C1032 1.394 . S
C1034 C1035 1.369 . S
C1034 C1038 1.531 . S
C1035 C1034 1.369 . S
C1035 C1036 1.410 . S
C1035 C1043 1.503 1_565 S
C1036 C1035 1.410 . S
C1036 C1037 1.392 . S
C1036 C1039 1.511 . S
C1037 C1033 1.376 . S
C1037 C1036 1.392 . S
C1037 H1049 0.929 . S
C1038 C1034 1.531 . S
C1038 H1050 0.960 1_565 S
C1038 H1051 0.962 . S
C1038 H1052 0.960 . S
C1039 C1036 1.511 . S
C1039 H1053 0.961 . S
C1039 H1054 0.961 1_565 S
C1039 H1055 0.961 . S
C1040 C1041 1.370 . S
C1040 C1042 1.363 . S
C1040 H1056 0.931 . S
C1041 C1040 1.370 . S
C1041 C1045 1.408 . S
C1042 C1040 1.363 . S
C1042 C1043 1.370 . S
C1042 C1046 1.524 . S
C1043 C1035 1.503 1_545 S
C1043 C1042 1.370 . S
C1043 C1044 1.403 . S
C1044 C1043 1.403 . S
C1044 C1045 1.404 . S
C1044 C1047 1.539 . S
C1045 C1041 1.408 . S
C1045 C1044 1.404 . S
C1045 H1057 0.930 . S
C1046 C1042 1.524 . S
C1046 H1058 0.956 . S
C1046 H1059 0.961 1_545 S
C1046 H1060 0.961 . S
C1047 C1044 1.539 . S
C1047 H1061 0.958 . S
C1047 H1062 0.961 . S
C1047 H1063 0.972 . S
H1048 C1032 0.931 . S
H1049 C1037 0.929 . S
H1050 C1038 0.960 1_545 S
H1051 C1038 0.962 . S
H1052 C1038 0.960 . S
H1053 C1039 0.961 . S
H1054 C1039 0.961 1_545 S
H1055 C1039 0.961 . S
H1056 C1040 0.931 . S
H1057 C1045 0.930 . S
H1058 C1046 0.956 . S
H1059 C1046 0.961 1_565 S
H1060 C1046 0.961 . S
H1061 C1047 0.958 . S
H1062 C1047 0.961 . S
H1063 C1047 0.972 . S
C1064 C1065 1.391 . S
C1064 C1066 1.394 . S
C1064 H1080 0.931 . S
C1065 C1064 1.391 . S
C1065 C1069 1.376 . S
C1066 C1064 1.394 . S
C1066 C1067 1.369 . S
C1066 C1070 1.531 . S
C1067 C1066 1.369 . S
C1067 C1068 1.410 . S
C1067 C1075 1.503 1_455 S
C1068 C1067 1.410 . S
C1068 C1069 1.392 . S
C1068 C1071 1.511 . S
C1069 C1065 1.376 . S
C1069 C1068 1.392 . S
C1069 H1081 0.929 . S
C1070 C1066 1.531 . S
C1070 H1082 0.960 1_455 S
C1070 H1083 0.962 . S
C1070 H1084 0.960 . S
C1071 C1068 1.511 . S
C1071 H1085 0.961 . S
C1071 H1086 0.961 1_455 S
C1071 H1087 0.961 . S
C1072 C1073 1.370 . S
C1072 C1074 1.363 . S
C1072 H1088 0.931 . S
C1073 C1072 1.370 . S
C1073 C1077 1.408 . S
C1074 C1072 1.363 . S
C1074 C1075 1.370 . S
C1074 C1078 1.524 . S
C1075 C1067 1.503 1_655 S
C1075 C1074 1.370 . S
C1075 C1076 1.403 . S
C1076 C1075 1.403 . S
C1076 C1077 1.404 . S
C1076 C1079 1.539 . S
C1077 C1073 1.408 . S
C1077 C1076 1.404 . S
C1077 H1089 0.930 . S
C1078 C1074 1.524 . S
C1078 H1090 0.956 . S
C1078 H1091 0.961 1_655 S
C1078 H1092 0.961 . S
C1079 C1076 1.539 . S
C1079 H1093 0.958 . S
C1079 H1094 0.961 . S
C1079 H1095 0.972 . S
H1080 C1064 0.931 . S
H1081 C1069 0.929 . S
H1082 C1070 0.960 1_655 S
H1083 C1070 0.962 . S
H1084 C1070 0.960 . S
H1085 C1071 0.961 . S
H1086 C1071 0.961 1_655 S
H1087 C1071 0.961 . S
H1088 C1072 0.931 . S
H1089 C1077 0.930 . S
H1090 C1078 0.956 . S
H1091 C1078 0.961 1_455 S
H1092 C1078 0.961 . S
H1093 C1079 0.958 . S
H1094 C1079 0.961 . S
H1095 C1079 0.972 . S
C1096 C1097 1.391 . S
C1096 C1098 1.394 . S
C1096 H1112 0.931 . S
C1097 C1096 1.391 . S
C1097 C1101 1.376 . S
C1098 C1096 1.394 . S
C1098 C1099 1.369 . S
C1098 C1102 1.531 . S
C1099 C1098 1.369 . S
C1099 C1100 1.410 . S
C1099 C1107 1.503 1_545 S
C1100 C1099 1.410 . S
C1100 C1101 1.392 . S
C1100 C1103 1.511 . S
C1101 C1097 1.376 . S
C1101 C1100 1.392 . S
C1101 H1113 0.929 . S
C1102 C1098 1.531 . S
C1102 H1114 0.960 1_545 S
C1102 H1115 0.962 . S
C1102 H1116 0.960 . S
C1103 C1100 1.511 . S
C1103 H1117 0.961 . S
C1103 H1118 0.961 1_545 S
C1103 H1119 0.961 . S
C1104 C1105 1.370 . S
C1104 C1106 1.363 . S
C1104 H1120 0.931 . S
C1105 C1104 1.370 . S
C1105 C1109 1.408 . S
C1106 C1104 1.363 . S
C1106 C1107 1.370 . S
C1106 C1110 1.524 . S
C1107 C1099 1.503 1_565 S
C1107 C1106 1.370 . S
C1107 C1108 1.403 . S
C1108 C1107 1.403 . S
C1108 C1109 1.404 . S
C1108 C1111 1.539 . S
C1109 C1105 1.408 . S
C1109 C1108 1.404 . S
C1109 H1121 0.930 . S
C1110 C1106 1.524 . S
C1110 H1122 0.956 . S
C1110 H1123 0.961 1_565 S
C1110 H1124 0.961 . S
C1111 C1108 1.539 . S
C1111 H1125 0.958 . S
C1111 H1126 0.961 . S
C1111 H1127 0.972 . S
H1112 C1096 0.931 . S
H1113 C1101 0.929 . S
H1114 C1102 0.960 1_565 S
H1115 C1102 0.962 . S
H1116 C1102 0.960 . S
H1117 C1103 0.961 . S
H1118 C1103 0.961 1_565 S
H1119 C1103 0.961 . S
H1120 C1104 0.931 . S
H1121 C1109 0.930 . S
H1122 C1110 0.956 . S
H1123 C1110 0.961 1_545 S
H1124 C1110 0.961 . S
H1125 C1111 0.958 . S
H1126 C1111 0.961 . S
H1127 C1111 0.972 . S
C1128 C1129 1.391 . S
C1128 C1130 1.394 . S
C1128 H1144 0.931 . S
C1129 C1128 1.391 . S
C1129 C1133 1.376 . S
C1130 C1128 1.394 . S
C1130 C1131 1.369 . S
C1130 C1134 1.531 . S
C1131 C1130 1.369 . S
C1131 C1132 1.410 . S
C1131 C1139 1.503 1_455 S
C1132 C1131 1.410 . S
C1132 C1133 1.392 . S
C1132 C1135 1.511 . S
C1133 C1129 1.376 . S
C1133 C1132 1.392 . S
C1133 H1145 0.929 . S
C1134 C1130 1.531 . S
C1134 H1146 0.960 1_455 S
C1134 H1147 0.962 . S
C1134 H1148 0.960 . S
C1135 C1132 1.511 . S
C1135 H1149 0.961 . S
C1135 H1150 0.961 1_455 S
C1135 H1151 0.961 . S
C1136 C1137 1.370 . S
C1136 C1138 1.363 . S
C1136 H1152 0.931 . S
C1137 C1136 1.370 . S
C1137 C1141 1.408 . S
C1138 C1136 1.363 . S
C1138 C1139 1.370 . S
C1138 C1142 1.524 . S
C1139 C1131 1.503 1_655 S
C1139 C1138 1.370 . S
C1139 C1140 1.403 . S
C1140 C1139 1.403 . S
C1140 C1141 1.404 . S
C1140 C1143 1.539 . S
C1141 C1137 1.408 . S
C1141 C1140 1.404 . S
C1141 H1153 0.930 . S
C1142 C1138 1.524 . S
C1142 H1154 0.956 . S
C1142 H1155 0.961 1_655 S
C1142 H1156 0.961 . S
C1143 C1140 1.539 . S
C1143 H1157 0.958 . S
C1143 H1158 0.961 . S
C1143 H1159 0.972 . S
H1144 C1128 0.931 . S
H1145 C1133 0.929 . S
H1146 C1134 0.960 1_655 S
H1147 C1134 0.962 . S
H1148 C1134 0.960 . S
H1149 C1135 0.961 . S
H1150 C1135 0.961 1_655 S
H1151 C1135 0.961 . S
H1152 C1136 0.931 . S
H1153 C1141 0.930 . S
H1154 C1142 0.956 . S
H1155 C1142 0.961 1_455 S
H1156 C1142 0.961 . S
H1157 C1143 0.958 . S
H1158 C1143 0.961 . S
H1159 C1143 0.972 . S
C1160 C1161 1.391 . S
C1160 C1162 1.394 . S
C1160 H1176 0.931 . S
C1161 C1160 1.391 . S
C1161 C1165 1.376 . S
C1162 C1160 1.394 . S
C1162 C1163 1.369 . S
C1162 C1166 1.531 . S
C1163 C1162 1.369 . S
C1163 C1164 1.410 . S
C1163 C1171 1.503 1_556 S
C1164 C1163 1.410 . S
C1164 C1165 1.392 . S
C1164 C1167 1.511 . S
C1165 C1161 1.376 . S
C1165 C1164 1.392 . S
C1165 H1177 0.929 . S
C1166 C1162 1.531 . S
C1166 H1178 0.960 1_556 S
C1166 H1179 0.962 . S
C1166 H1180 0.960 . S
C1167 C1164 1.511 . S
C1167 H1181 0.961 . S
C1167 H1182 0.961 1_556 S
C1167 H1183 0.961 . S
C1168 C1169 1.370 . S
C1168 C1170 1.363 . S
C1168 H1184 0.931 . S
C1169 C1168 1.370 . S
C1169 C1173 1.408 . S
C1170 C1168 1.363 . S
C1170 C1171 1.370 . S
C1170 C1174 1.524 . S
C1171 C1163 1.503 1_554 S
C1171 C1170 1.370 . S
C1171 C1172 1.403 . S
C1172 C1171 1.403 . S
C1172 C1173 1.404 . S
C1172 C1175 1.539 . S
C1173 C1169 1.408 . S
C1173 C1172 1.404 . S
C1173 H1185 0.930 . S
C1174 C1170 1.524 . S
C1174 H1186 0.956 . S
C1174 H1187 0.961 1_554 S
C1174 H1188 0.961 . S
C1175 C1172 1.539 . S
C1175 H1189 0.958 . S
C1175 H1190 0.961 . S
C1175 H1191 0.972 . S
H1176 C1160 0.931 . S
H1177 C1165 0.929 . S
H1178 C1166 0.960 1_554 S
H1179 C1166 0.962 . S
H1180 C1166 0.960 . S
H1181 C1167 0.961 . S
H1182 C1167 0.961 1_554 S
H1183 C1167 0.961 . S
H1184 C1168 0.931 . S
H1185 C1173 0.930 . S
H1186 C1174 0.956 . S
H1187 C1174 0.961 1_556 S
H1188 C1174 0.961 . S
H1189 C1175 0.958 . S
H1190 C1175 0.961 . S
H1191 C1175 0.972 . S
C1192 C1193 1.391 . S
C1192 C1194 1.394 . S
C1192 H1208 0.931 . S
C1193 C1192 1.391 . S
C1193 C1197 1.376 . S
C1194 C1192 1.394 . S
C1194 C1195 1.369 . S
C1194 C1198 1.531 . S
C1195 C1194 1.369 . S
C1195 C1196 1.410 . S
C1195 C1203 1.503 1_556 S
C1196 C1195 1.410 . S
C1196 C1197 1.392 . S
C1196 C1199 1.511 . S
C1197 C1193 1.376 . S
C1197 C1196 1.392 . S
C1197 H1209 0.929 . S
C1198 C1194 1.531 . S
C1198 H1210 0.960 1_556 S
C1198 H1211 0.962 . S
C1198 H1212 0.960 . S
C1199 C1196 1.511 . S
C1199 H1213 0.961 . S
C1199 H1214 0.961 1_556 S
C1199 H1215 0.961 . S
C1200 C1201 1.370 . S
C1200 C1202 1.363 . S
C1200 H1216 0.931 . S
C1201 C1200 1.370 . S
C1201 C1205 1.408 . S
C1202 C1200 1.363 . S
C1202 C1203 1.370 . S
C1202 C1206 1.524 . S
C1203 C1195 1.503 1_554 S
C1203 C1202 1.370 . S
C1203 C1204 1.403 . S
C1204 C1203 1.403 . S
C1204 C1205 1.404 . S
C1204 C1207 1.539 . S
C1205 C1201 1.408 . S
C1205 C1204 1.404 . S
C1205 H1217 0.930 . S
C1206 C1202 1.524 . S
C1206 H1218 0.956 . S
C1206 H1219 0.961 1_554 S
C1206 H1220 0.961 . S
C1207 C1204 1.539 . S
C1207 H1221 0.958 . S
C1207 H1222 0.961 . S
C1207 H1223 0.972 . S
H1208 C1192 0.931 . S
H1209 C1197 0.929 . S
H1210 C1198 0.960 1_554 S
H1211 C1198 0.962 . S
H1212 C1198 0.960 . S
H1213 C1199 0.961 . S
H1214 C1199 0.961 1_554 S
H1215 C1199 0.961 . S
H1216 C1200 0.931 . S
H1217 C1205 0.930 . S
H1218 C1206 0.956 . S
H1219 C1206 0.961 1_556 S
H1220 C1206 0.961 . S
H1221 C1207 0.958 . S
H1222 C1207 0.961 . S
H1223 C1207 0.972 . S
C1224 C1225 1.391 . S
C1224 C1226 1.394 . S
C1224 H1240 0.931 . S
C1225 C1224 1.391 . S
C1225 C1229 1.376 . S
C1226 C1224 1.394 . S
C1226 C1227 1.369 . S
C1226 C1230 1.531 . S
C1227 C1226 1.369 . S
C1227 C1228 1.410 . S
C1227 C1235 1.503 1_554 S
C1228 C1227 1.410 . S
C1228 C1229 1.392 . S
C1228 C1231 1.511 . S
C1229 C1225 1.376 . S
C1229 C1228 1.392 . S
C1229 H1241 0.929 . S
C1230 C1226 1.531 . S
C1230 H1242 0.960 1_554 S
C1230 H1243 0.962 . S
C1230 H1244 0.960 . S
C1231 C1228 1.511 . S
C1231 H1245 0.961 . S
C1231 H1246 0.961 1_554 S
C1231 H1247 0.961 . S
C1232 C1233 1.370 . S
C1232 C1234 1.363 . S
C1232 H1248 0.931 . S
C1233 C1232 1.370 . S
C1233 C1237 1.408 . S
C1234 C1232 1.363 . S
C1234 C1235 1.370 . S
C1234 C1238 1.524 . S
C1235 C1227 1.503 1_556 S
C1235 C1234 1.370 . S
C1235 C1236 1.403 . S
C1236 C1235 1.403 . S
C1236 C1237 1.404 . S
C1236 C1239 1.539 . S
C1237 C1233 1.408 . S
C1237 C1236 1.404 . S
C1237 H1249 0.930 . S
C1238 C1234 1.524 . S
C1238 H1250 0.956 . S
C1238 H1251 0.961 1_556 S
C1238 H1252 0.961 . S
C1239 C1236 1.539 . S
C1239 H1253 0.958 . S
C1239 H1254 0.961 . S
C1239 H1255 0.972 . S
H1240 C1224 0.931 . S
H1241 C1229 0.929 . S
H1242 C1230 0.960 1_556 S
H1243 C1230 0.962 . S
H1244 C1230 0.960 . S
H1245 C1231 0.961 . S
H1246 C1231 0.961 1_556 S
H1247 C1231 0.961 . S
H1248 C1232 0.931 . S
H1249 C1237 0.930 . S
H1250 C1238 0.956 . S
H1251 C1238 0.961 1_554 S
H1252 C1238 0.961 . S
H1253 C1239 0.958 . S
H1254 C1239 0.961 . S
H1255 C1239 0.972 . S
C1256 C1257 1.391 . S
C1256 C1258 1.394 . S
C1256 H1272 0.931 . S
C1257 C1256 1.391 . S
C1257 C1261 1.376 . S
C1258 C1256 1.394 . S
C1258 C1259 1.369 . S
C1258 C1262 1.531 . S
C1259 C1258 1.369 . S
C1259 C1260 1.410 . S
C1259 C1267 1.503 1_556 S
C1260 C1259 1.410 . S
C1260 C1261 1.392 . S
C1260 C1263 1.511 . S
C1261 C1257 1.376 . S
C1261 C1260 1.392 . S
C1261 H1273 0.929 . S
C1262 C1258 1.531 . S
C1262 H1274 0.960 1_556 S
C1262 H1275 0.962 . S
C1262 H1276 0.960 . S
C1263 C1260 1.511 . S
C1263 H1277 0.961 . S
C1263 H1278 0.961 1_556 S
C1263 H1279 0.961 . S
C1264 C1265 1.370 . S
C1264 C1266 1.363 . S
C1264 H1280 0.931 . S
C1265 C1264 1.370 . S
C1265 C1269 1.408 . S
C1266 C1264 1.363 . S
C1266 C1267 1.370 . S
C1266 C1270 1.524 . S
C1267 C1259 1.503 1_554 S
C1267 C1266 1.370 . S
C1267 C1268 1.403 . S
C1268 C1267 1.403 . S
C1268 C1269 1.404 . S
C1268 C1271 1.539 . S
C1269 C1265 1.408 . S
C1269 C1268 1.404 . S
C1269 H1281 0.930 . S
C1270 C1266 1.524 . S
C1270 H1282 0.956 . S
C1270 H1283 0.961 1_554 S
C1270 H1284 0.961 . S
C1271 C1268 1.539 . S
C1271 H1285 0.958 . S
C1271 H1286 0.961 . S
C1271 H1287 0.972 . S
H1272 C1256 0.931 . S
H1273 C1261 0.929 . S
H1274 C1262 0.960 1_554 S
H1275 C1262 0.962 . S
H1276 C1262 0.960 . S
H1277 C1263 0.961 . S
H1278 C1263 0.961 1_554 S
H1279 C1263 0.961 . S
H1280 C1264 0.931 . S
H1281 C1269 0.930 . S
H1282 C1270 0.956 . S
H1283 C1270 0.961 1_556 S
H1284 C1270 0.961 . S
H1285 C1271 0.958 . S
H1286 C1271 0.961 . S
H1287 C1271 0.972 . S
C1288 C1289 1.391 . S
C1288 C1290 1.394 . S
C1288 H1304 0.931 . S
C1289 C1288 1.391 . S
C1289 C1293 1.376 . S
C1290 C1288 1.394 . S
C1290 C1291 1.369 . S
C1290 C1294 1.531 . S
C1291 C1290 1.369 . S
C1291 C1292 1.410 . S
C1291 C1299 1.503 1_455 S
C1292 C1291 1.410 . S
C1292 C1293 1.392 . S
C1292 C1295 1.511 . S
C1293 C1289 1.376 . S
C1293 C1292 1.392 . S
C1293 H1305 0.929 . S
C1294 C1290 1.531 . S
C1294 H1306 0.960 1_455 S
C1294 H1307 0.962 . S
C1294 H1308 0.960 . S
C1295 C1292 1.511 . S
C1295 H1309 0.961 . S
C1295 H1310 0.961 1_455 S
C1295 H1311 0.961 . S
C1296 C1297 1.370 . S
C1296 C1298 1.363 . S
C1296 H1312 0.931 . S
C1297 C1296 1.370 . S
C1297 C1301 1.408 . S
C1298 C1296 1.363 . S
C1298 C1299 1.370 . S
C1298 C1302 1.524 . S
C1299 C1291 1.503 1_655 S
C1299 C1298 1.370 . S
C1299 C1300 1.403 . S
C1300 C1299 1.403 . S
C1300 C1301 1.404 . S
C1300 C1303 1.539 . S
C1301 C1297 1.408 . S
C1301 C1300 1.404 . S
C1301 H1313 0.930 . S
C1302 C1298 1.524 . S
C1302 H1314 0.956 . S
C1302 H1315 0.961 1_655 S
C1302 H1316 0.961 . S
C1303 C1300 1.539 . S
C1303 H1317 0.958 . S
C1303 H1318 0.961 . S
C1303 H1319 0.972 . S
H1304 C1288 0.931 . S
H1305 C1293 0.929 . S
H1306 C1294 0.960 1_655 S
H1307 C1294 0.962 . S
H1308 C1294 0.960 . S
H1309 C1295 0.961 . S
H1310 C1295 0.961 1_655 S
H1311 C1295 0.961 . S
H1312 C1296 0.931 . S
H1313 C1301 0.930 . S
H1314 C1302 0.956 . S
H1315 C1302 0.961 1_455 S
H1316 C1302 0.961 . S
H1317 C1303 0.958 . S
H1318 C1303 0.961 . S
H1319 C1303 0.972 . S
C1320 C1321 1.391 . S
C1320 C1322 1.394 . S
C1320 H1336 0.931 . S
C1321 C1320 1.391 . S
C1321 C1325 1.376 . S
C1322 C1320 1.394 . S
C1322 C1323 1.369 . S
C1322 C1326 1.531 . S
C1323 C1322 1.369 . S
C1323 C1324 1.410 . S
C1323 C1331 1.503 1_655 S
C1324 C1323 1.410 . S
C1324 C1325 1.392 . S
C1324 C1327 1.511 . S
C1325 C1321 1.376 . S
C1325 C1324 1.392 . S
C1325 H1337 0.929 . S
C1326 C1322 1.531 . S
C1326 H1338 0.960 1_655 S
C1326 H1339 0.962 . S
C1326 H1340 0.960 . S
C1327 C1324 1.511 . S
C1327 H1341 0.961 . S
C1327 H1342 0.961 1_655 S
C1327 H1343 0.961 . S
C1328 C1329 1.370 . S
C1328 C1330 1.363 . S
C1328 H1344 0.931 . S
C1329 C1328 1.370 . S
C1329 C1333 1.408 . S
C1330 C1328 1.363 . S
C1330 C1331 1.370 . S
C1330 C1334 1.524 . S
C1331 C1323 1.503 1_455 S
C1331 C1330 1.370 . S
C1331 C1332 1.403 . S
C1332 C1331 1.403 . S
C1332 C1333 1.404 . S
C1332 C1335 1.539 . S
C1333 C1329 1.408 . S
C1333 C1332 1.404 . S
C1333 H1345 0.930 . S
C1334 C1330 1.524 . S
C1334 H1346 0.956 . S
C1334 H1347 0.961 1_455 S
C1334 H1348 0.961 . S
C1335 C1332 1.539 . S
C1335 H1349 0.958 . S
C1335 H1350 0.961 . S
C1335 H1351 0.972 . S
H1336 C1320 0.931 . S
H1337 C1325 0.929 . S
H1338 C1326 0.960 1_455 S
H1339 C1326 0.962 . S
H1340 C1326 0.960 . S
H1341 C1327 0.961 . S
H1342 C1327 0.961 1_455 S
H1343 C1327 0.961 . S
H1344 C1328 0.931 . S
H1345 C1333 0.930 . S
H1346 C1334 0.956 . S
H1347 C1334 0.961 1_655 S
H1348 C1334 0.961 . S
H1349 C1335 0.958 . S
H1350 C1335 0.961 . S
H1351 C1335 0.972 . S
C1352 C1353 1.391 . S
C1352 C1354 1.394 . S
C1352 H1368 0.931 . S
C1353 C1352 1.391 . S
C1353 C1357 1.376 . S
C1354 C1352 1.394 . S
C1354 C1355 1.369 . S
C1354 C1358 1.531 . S
C1355 C1354 1.369 . S
C1355 C1356 1.410 . S
C1355 C1363 1.503 1_545 S
C1356 C1355 1.410 . S
C1356 C1357 1.392 . S
C1356 C1359 1.511 . S
C1357 C1353 1.376 . S
C1357 C1356 1.392 . S
C1357 H1369 0.929 . S
C1358 C1354 1.531 . S
C1358 H1370 0.960 1_545 S
C1358 H1371 0.962 . S
C1358 H1372 0.960 . S
C1359 C1356 1.511 . S
C1359 H1373 0.961 . S
C1359 H1374 0.961 1_545 S
C1359 H1375 0.961 . S
C1360 C1361 1.370 . S
C1360 C1362 1.363 . S
C1360 H1376 0.931 . S
C1361 C1360 1.370 . S
C1361 C1365 1.408 . S
C1362 C1360 1.363 . S
C1362 C1363 1.370 . S
C1362 C1366 1.524 . S
C1363 C1355 1.503 1_565 S
C1363 C1362 1.370 . S
C1363 C1364 1.403 . S
C1364 C1363 1.403 . S
C1364 C1365 1.404 . S
C1364 C1367 1.539 . S
C1365 C1361 1.408 . S
C1365 C1364 1.404 . S
C1365 H1377 0.930 . S
C1366 C1362 1.524 . S
C1366 H1378 0.956 . S
C1366 H1379 0.961 1_565 S
C1366 H1380 0.961 . S
C1367 C1364 1.539 . S
C1367 H1381 0.958 . S
C1367 H1382 0.961 . S
C1367 H1383 0.972 . S
H1368 C1352 0.931 . S
H1369 C1357 0.929 . S
H1370 C1358 0.960 1_565 S
H1371 C1358 0.962 . S
H1372 C1358 0.960 . S
H1373 C1359 0.961 . S
H1374 C1359 0.961 1_565 S
H1375 C1359 0.961 . S
H1376 C1360 0.931 . S
H1377 C1365 0.930 . S
H1378 C1366 0.956 . S
H1379 C1366 0.961 1_545 S
H1380 C1366 0.961 . S
H1381 C1367 0.958 . S
H1382 C1367 0.961 . S
H1383 C1367 0.972 . S
C1384 C1385 1.391 . S
C1384 C1386 1.394 . S
C1384 H1400 0.931 . S
C1385 C1384 1.391 . S
C1385 C1389 1.376 . S
C1386 C1384 1.394 . S
C1386 C1387 1.369 . S
C1386 C1390 1.531 . S
C1387 C1386 1.369 . S
C1387 C1388 1.410 . S
C1387 C1395 1.503 1_565 S
C1388 C1387 1.410 . S
C1388 C1389 1.392 . S
C1388 C1391 1.511 . S
C1389 C1385 1.376 . S
C1389 C1388 1.392 . S
C1389 H1401 0.929 . S
C1390 C1386 1.531 . S
C1390 H1402 0.960 1_565 S
C1390 H1403 0.962 . S
C1390 H1404 0.960 . S
C1391 C1388 1.511 . S
C1391 H1405 0.961 . S
C1391 H1406 0.961 1_565 S
C1391 H1407 0.961 . S
C1392 C1393 1.370 . S
C1392 C1394 1.363 . S
C1392 H1408 0.931 . S
C1393 C1392 1.370 . S
C1393 C1397 1.408 . S
C1394 C1392 1.363 . S
C1394 C1395 1.370 . S
C1394 C1398 1.524 . S
C1395 C1387 1.503 1_545 S
C1395 C1394 1.370 . S
C1395 C1396 1.403 . S
C1396 C1395 1.403 . S
C1396 C1397 1.404 . S
C1396 C1399 1.539 . S
C1397 C1393 1.408 . S
C1397 C1396 1.404 . S
C1397 H1409 0.930 . S
C1398 C1394 1.524 . S
C1398 H1410 0.956 . S
C1398 H1411 0.961 1_545 S
C1398 H1412 0.961 . S
C1399 C1396 1.539 . S
C1399 H1413 0.958 . S
C1399 H1414 0.961 . S
C1399 H1415 0.972 . S
H1400 C1384 0.931 . S
H1401 C1389 0.929 . S
H1402 C1390 0.960 1_545 S
H1403 C1390 0.962 . S
H1404 C1390 0.960 . S
H1405 C1391 0.961 . S
H1406 C1391 0.961 1_545 S
H1407 C1391 0.961 . S
H1408 C1392 0.931 . S
H1409 C1397 0.930 . S
H1410 C1398 0.956 . S
H1411 C1398 0.961 1_565 S
H1412 C1398 0.961 . S
H1413 C1399 0.958 . S
H1414 C1399 0.961 . S
H1415 C1399 0.972 . S
C265 C5 1.456 . S
C273 C161 1.441 . S
C297 C94 1.453 . S
C305 C31 1.439 . S
C329 C53 1.426 . S
C337 C117 1.431 . S
C361 C71 1.446 . S
C369 C139 1.435 . S
C393 C75 1.425 . S
C401 C204 1.426 . S
C425 C9 1.456 . S
C433 C227 1.441 . S
C457 C248 1.443 . S
C465 C27 1.437 . S
C489 C49 1.405 . S
C497 C182 1.422 . S
C521 C93 1.442 . S
C529 C7 1.434 . S
C553 C119 1.422 . S
C561 C28 1.429 . S
C585 C141 1.453 . S
C593 C50 1.439 . S
C617 C73 1.393 . S
C625 C163 1.415 . S
C649 C72 1.449 . S
C657 C181 1.437 . S
C681 C6 1.401 . S
C689 C203 1.417 . S
C713 C229 1.446 . S
C721 C29 1.435 . S
C745 C247 1.408 . S
C753 C51 1.423 . S
C777 C95 1.446 . S
C785 C159 1.439 . S
C809 C207 1.399 . S
C817 C183 1.416 . S
C841 C205 1.445 . S
C849 C225 1.435 . S
C873 C251 1.454 . S
C881 C226 1.441 . S
C905 C249 1.422 . S
C913 C185 1.429 . S
C937 C138 1.432 . S
C945 C115 1.429 . S
C969 C137 1.399 . S
C977 C160 1.419 . S
C1001 C97 1.405 . S
C1009 C116 1.418 . S
C1033 C70 1.549 . S
C1041 C8 1.548 . S
C1065 C4 1.547 . S
C1073 C26 1.547 . S
C1097 C30 1.549 . S
C1105 C48 1.548 . S
C1129 C74 1.530 . S
C1137 C52 1.538 . S
C1161 C224 1.551 . S
C1169 C96 1.547 . S
C1193 C250 1.530 . S
C1201 C114 1.539 . S
C1225 C136 1.554 . S
C1233 C184 1.549 . S
C1257 C206 1.550 . S
C1265 C158 1.548 . S
C1289 C162 1.529 . S
C1297 C118 1.538 . S
C1321 C246 1.547 . S
C1329 C202 1.547 . S
C1353 C228 1.551 . S
C1361 C180 1.547 . S
C1385 C140 1.526 . S
C1393 C92 1.538 . S
