# Generated by pormake.
# Topology hcp, (12)-cn, num edge types: 1
# Building blocks:
#     Node 0, Type 0, BuildingBlock: BOTCEU_clean_sbu_0, # of connection points: 12
#     Node 1, Type 0, BuildingBlock: BOTCEU_clean_sbu_0, # of connection points: 12
#     Edge 2, Type (0, 0), BuildingBlock: KIFKEQ_clean_linker_1, # of connection points: 2
#     Edge 3, Type (0, 0), BuildingBlock: KIFKEQ_clean_linker_1, # of connection points: 2
#     Edge 4, Type (0, 0), BuildingBlock: KIFKEQ_clean_linker_1, # of connection points: 2
#     Edge 5, Type (0, 0), BuildingBlock: KIFKEQ_clean_linker_1, # of connection points: 2
#     Edge 6, Type (0, 0), BuildingBlock: KIFKEQ_clean_linker_1, # of connection points: 2
#     Edge 7, Type (0, 0), BuildingBlock: KIFKEQ_clean_linker_1, # of connection points: 2
#     Edge 8, Type (0, 0), BuildingBlock: KIFKEQ_clean_linker_1, # of connection points: 2
#     Edge 9, Type (0, 0), BuildingBlock: KIFKEQ_clean_linker_1, # of connection points: 2
#     Edge 10, Type (0, 0), BuildingBlock: KIFKEQ_clean_linker_1, # of connection points: 2
#     Edge 11, Type (0, 0), BuildingBlock: KIFKEQ_clean_linker_1, # of connection points: 2
#     Edge 12, Type (0, 0), BuildingBlock: KIFKEQ_clean_linker_1, # of connection points: 2
#     Edge 13, Type (0, 0), BuildingBlock: KIFKEQ_clean_linker_1, # of connection points: 2
# Relax obj value: 0.161
# Max RMSD: 0.246
# Mean RMSD: 0.246
data_MOF--net-hcp--node1-BOTCEU_clean_sbu_0--edge1-KIFKEQ_clean_linker_1
_symmetry_space_group_name_H-M    P1
_symmetry_Int_Tables_number       1
_symmetry_cell_setting            triclinic
loop_
_symmetry_equiv_pos_as_xyz
'x, y, z'
_cell_length_a     27.123279
_cell_length_b     22.030448
_cell_length_c     43.384477
_cell_angle_alpha  98.013305
_cell_angle_beta   87.975008
_cell_angle_gamma 123.73523
loop_
_atom_site_label
_atom_site_type_symbol
_atom_site_fract_x
_atom_site_fract_y
_atom_site_fract_z
_atom_type_partial_charge
C0 C 0.35522 0.04977 0.26932 0.0
C1 C 0.35358 0.99236 0.2804 0.0
C2 C 0.3872 0.02476 0.30856 0.0
N3 N 0.38629 0.11063 0.29029 0.0
N4 N 0.40453 0.09568 0.31418 0.0
C5 C 0.31952 0.04392 0.2422 0.0
H6 H 0.33928 0.09872 0.23465 0.0
H7 H 0.27363 0.02326 0.24921 0.0
H8 H 0.31725 1.00445 0.22245 0.0
C9 C 0.40324 0.98818 0.32891 0.0
H10 H 0.43117 0.02723 0.34959 0.0
H11 H 0.42833 0.96835 0.31532 0.0
H12 H 0.36256 0.93888 0.33597 0.0
C13 C 0.8619 0.39398 0.12358 0.0
C14 C 0.80251 0.41617 0.10146 0.0
C15 C 0.85372 0.41664 0.09692 0.0
N16 N 0.81761 0.38109 0.14247 0.0
N17 N 0.78252 0.39503 0.12936 0.0
H18 H 0.90885 0.34159 0.11839 0.0
H19 H 0.95551 0.44037 0.12583 0.0
H20 H 0.91517 0.38821 0.15725 0.0
C21 C 0.91349 0.39119 0.13201 0.0
H22 H 0.77619 0.41344 0.05492 0.0
H23 H 0.79487 0.49404 0.08165 0.0
H24 H 0.7251 0.4076 0.08452 0.0
C25 C 0.7725 0.43336 0.07929 0.0
C26 C 0.36205 0.23014 0.35591 0.0
C27 C 0.49838 0.23704 0.25599 0.0
C28 C 0.68424 0.11801 0.34889 0.0
N29 N 0.71266 0.1872 0.34156 0.0
N30 N 0.72393 0.18495 0.31177 0.0
C31 C 0.67373 0.06951 0.32168 0.0
C32 C 0.70034 0.1147 0.29872 0.0
H33 H 0.68351 0.1472 0.39838 0.0
H34 H 0.70492 0.08343 0.38718 0.0
H35 H 0.62839 0.05119 0.38277 0.0
C36 C 0.67447 0.09936 0.38132 0.0
H37 H 0.72874 0.13873 0.25245 0.0
H38 H 0.66996 0.0433 0.25487 0.0
H39 H 0.74457 0.07841 0.26754 0.0
C40 C 0.71148 0.09281 0.26638 0.0
C41 C 0.31671 0.26236 0.24681 0.0
C42 C 0.28453 0.17809 0.27821 0.0
N43 N 0.36159 0.25834 0.2554 0.0
N44 N 0.34272 0.20888 0.27455 0.0
C45 C 0.26634 0.21161 0.261 0.0
H46 H 0.28097 0.29316 0.21317 0.0
H47 H 0.33391 0.36743 0.24196 0.0
H48 H 0.35999 0.33084 0.21101 0.0
C49 C 0.32306 0.31617 0.22682 0.0
C50 C 0.24855 0.12236 0.29951 0.0
H51 H 0.20809 0.07406 0.28662 0.0
H52 H 0.23412 0.14679 0.31885 0.0
H53 H 0.27468 0.10374 0.30902 0.0
C54 C 0.87173 0.39388 0.34933 0.0
C55 C 0.66186 0.29521 0.3318 0.0
C56 C 0.63568 0.24025 0.11252 0.0
N57 N 0.64796 0.29797 0.13369 0.0
C58 C 0.57722 0.20445 0.10142 0.0
N59 N 0.60081 0.30057 0.13693 0.0
C60 C 0.55644 0.24461 0.11748 0.0
H61 H 0.7047 0.25763 0.08215 0.0
H62 H 0.65847 0.16503 0.09137 0.0
H63 H 0.71306 0.23944 0.12014 0.0
C64 C 0.68049 0.22424 0.10096 0.0
H65 H 0.48917 0.26511 0.13009 0.0
C66 C 0.49996 0.23775 0.11022 0.0
H67 H 0.50538 0.26477 0.08943 0.0
H68 H 0.46301 0.17883 0.1048 0.0
C69 C 0.74679 0.3398 0.45211 0.0
C70 C 0.80122 0.30941 0.42416 0.0
N71 N 0.72323 0.31364 0.42278 0.0
N72 N 0.75609 0.29552 0.40607 0.0
C73 C 0.79822 0.34035 0.45378 0.0
H74 H 0.71839 0.34356 0.4984 0.0
C75 C 0.7244 0.37031 0.47745 0.0
H76 H 0.68147 0.36033 0.47002 0.0
H77 H 0.75789 0.43015 0.48418 0.0
H78 H 0.86277 0.27864 0.42768 0.0
H79 H 0.89211 0.36284 0.41217 0.0
C80 C 0.85212 0.30611 0.41205 0.0
H81 H 0.8411 0.2754 0.38806 0.0
C82 C 0.73192 0.52108 0.14602 0.0
C83 C 0.68663 0.30985 0.20681 0.0
C84 C 0.93338 0.46373 0.24603 0.0
N85 N 0.87922 0.41199 0.23297 0.0
C86 C 0.95732 0.52442 0.2304 0.0
C87 C 0.91409 0.50502 0.2077 0.0
N88 N 0.86776 0.43608 0.20999 0.0
C89 C 0.96305 0.45344 0.2713 0.0
H90 H 0.9295 0.41254 0.28555 0.0
H91 H 0.98961 0.43256 0.2606 0.0
H92 H -0.00653 0.50675 0.28631 0.0
C93 C 0.9198 0.54765 0.18229 0.0
H94 H 0.87558 0.5258 0.17136 0.0
H95 H 0.94153 0.60688 0.19168 0.0
H96 H 0.94824 0.54325 0.16433 0.0
C97 C 0.39715 0.08477 0.40517 0.0
C98 C 0.42668 0.09955 0.43413 0.0
C99 C 0.474 0.17214 0.43547 0.0
N100 N 0.42747 0.14545 0.39038 0.0
N101 N 0.47413 0.19581 0.40872 0.0
H102 H 0.3066 0.99785 0.40798 0.0
H103 H 0.35177 0.96869 0.39026 0.0
H104 H 0.32904 0.01578 0.36874 0.0
C105 C 0.34308 0.01263 0.39185 0.0
C106 C 0.527 0.21128 0.45798 0.0
H107 H 0.55622 0.27052 0.45538 0.0
H108 H 0.5123 0.20588 0.48222 0.0
H109 H 0.55268 0.18578 0.45373 0.0
C110 C 0.79663 0.22447 0.1753 0.0
C111 C 0.76369 0.36936 0.27525 0.0
C112 C 0.53806 0.51465 0.23162 0.0
C113 C 0.51852 0.53214 0.2595 0.0
C114 C 0.48272 0.46451 0.27089 0.0
N115 N 0.51481 0.44203 0.2272 0.0
N116 N 0.48177 0.41141 0.25054 0.0
C117 C 0.57867 0.56569 0.20958 0.0
H118 H 0.60216 0.54309 0.19631 0.0
H119 H 0.55201 0.57093 0.19263 0.0
H120 H 0.61138 0.62125 0.22235 0.0
C121 C 0.44713 0.45018 0.29927 0.0
H122 H 0.41304 0.39031 0.29855 0.0
H123 H 0.4772 0.46982 0.32024 0.0
H124 H 0.42576 0.48123 0.3012 0.0
C125 C 0.87273 0.23099 0.29248 0.0
C126 C 0.90887 0.23102 0.26894 0.0
C127 C 0.89811 0.25861 0.2449 0.0
N128 N 0.84281 0.25716 0.28248 0.0
N129 N 0.85731 0.27272 0.25403 0.0
C130 C 0.8662 0.20615 0.32363 0.0
H131 H 0.90028 0.2529 0.34048 0.0
H132 H 0.87277 0.16041 0.32217 0.0
H133 H 0.82194 0.18844 0.33244 0.0
C134 C 0.93048 0.27899 0.21553 0.0
H135 H 0.97823 0.30192 0.21988 0.0
H136 H 0.91153 0.22881 0.19793 0.0
H137 H 0.92561 0.31984 0.20612 0.0
C138 C 0.40389 0.23932 0.17985 0.0
C139 C 0.63023 0.42797 0.22438 0.0
C140 C 0.56521 0.38972 0.41655 0.0
N141 N 0.58505 0.34802 0.40559 0.0
N142 N 0.64152 0.38013 0.41356 0.0
C143 C 0.61073 0.4532 0.43382 0.0
C144 C 0.65914 0.44549 0.43153 0.0
H145 H 0.47598 0.31149 0.3978 0.0
H146 H 0.48244 0.35467 0.4375 0.0
H147 H 0.49689 0.40564 0.40565 0.0
C148 C 0.50125 0.36356 0.41416 0.0
H149 H 0.75059 0.48306 0.43838 0.0
H150 H 0.73635 0.55505 0.44156 0.0
H151 H 0.71673 0.50082 0.47241 0.0
C152 C 0.71956 0.49892 0.44675 0.0
C153 C 0.5726 0.4371 0.11242 0.0
N154 N 0.57073 0.41523 0.13994 0.0
N155 N 0.52563 0.40889 0.15527 0.0
C156 C 0.52672 0.44703 0.11015 0.0
C157 C 0.49738 0.42807 0.13788 0.0
C158 C 0.61455 0.44269 0.0879 0.0
H159 H 0.65142 0.50139 0.08837 0.0
H160 H 0.59155 0.42222 0.06445 0.0
H161 H 0.63316 0.4106 0.09228 0.0
C162 C 0.44528 0.43066 0.14792 0.0
H163 H 0.45226 0.48329 0.14352 0.0
H164 H 0.40505 0.38489 0.1339 0.0
H165 H 0.43822 0.42485 0.17299 0.0
C166 C 0.58017 0.15261 0.38291 0.0
C167 C 0.54338 0.3 0.33205 0.0
Cu168 Cu 0.39975 0.20353 0.29393 0.0
Cu169 Cu 0.43536 0.16977 0.34875 0.0
Cu170 Cu 0.74633 0.28328 0.36295 0.0
Cu171 Cu 0.78709 0.27246 0.30004 0.0
Cu172 Cu 0.718 0.38 0.15181 0.0
Cu173 Cu 0.61533 0.3889 0.15794 0.0
Cu174 Cu 0.82404 0.31475 0.2369 0.0
Cu175 Cu 0.8035 0.36374 0.18364 0.0
Cu176 Cu 0.51846 0.38037 0.19494 0.0
Cu177 Cu 0.44037 0.30762 0.2455 0.0
Cu178 Cu 0.54213 0.25136 0.38905 0.0
Cu179 Cu 0.66667 0.31479 0.40013 0.0
H180 H 0.38104 0.26635 0.37853 0.0
H181 H 0.32684 0.17355 0.36018 0.0
H182 H 0.343 0.25229 0.34242 0.0
H183 H 0.49748 0.19779 0.26982 0.0
H184 H 0.545 0.28096 0.25263 0.0
H185 H 0.47517 0.20657 0.233 0.0
H186 H 0.8912 0.43751 0.33409 0.0
H187 H 0.89821 0.36952 0.34896 0.0
H188 H 0.87196 0.41895 0.37338 0.0
H189 H 0.67848 0.27147 0.31358 0.0
H190 H 0.66407 0.34254 0.32412 0.0
H191 H 0.61593 0.2509 0.3357 0.0
H192 H 0.71075 0.55166 0.15265 0.0
H193 H 0.7314 0.51023 0.12034 0.0
H194 H 0.77847 0.55467 0.15568 0.0
H195 H 0.64745 0.27316 0.19047 0.0
H196 H 0.6745 0.33626 0.22638 0.0
H197 H 0.69975 0.27594 0.21583 0.0
H198 H 0.76086 0.19433 0.1566 0.0
H199 H 0.84027 0.2556 0.16477 0.0
H200 H 0.79516 0.18434 0.18881 0.0
H201 H 0.7856 0.40783 0.25788 0.0
H202 H 0.71634 0.35004 0.27531 0.0
H203 H 0.78543 0.3989 0.29858 0.0
H204 H 0.36165 0.21041 0.19184 0.0
H205 H 0.40185 0.27294 0.16378 0.0
H206 H 0.41041 0.19775 0.16652 0.0
H207 H 0.63215 0.48001 0.22877 0.0
H208 H 0.6173 0.40134 0.24573 0.0
H209 H 0.67484 0.44128 0.21819 0.0
H210 H 0.60867 0.15918 0.36318 0.0
H211 H 0.58665 0.12624 0.40089 0.0
H212 H 0.53319 0.11736 0.37401 0.0
H213 H 0.58033 0.3483 0.34693 0.0
H214 H 0.56153 0.29265 0.30974 0.0
H215 H 0.50963 0.31187 0.32839 0.0
O216 O 0.4056 0.2286 0.33955 0.0
O217 O 0.47009 0.26749 0.27117 0.0
O218 O 0.81446 0.34027 0.33892 0.0
O219 O 0.69612 0.31863 0.35864 0.0
O220 O 0.70137 0.45579 0.15793 0.0
O221 O 0.73269 0.36289 0.19177 0.0
O222 O 0.78827 0.27229 0.19471 0.0
O223 O 0.76843 0.31026 0.26764 0.0
O224 O 0.45018 0.28424 0.20145 0.0
O225 O 0.58974 0.38172 0.20023 0.0
O226 O 0.59258 0.22001 0.39604 0.0
O227 O 0.5198 0.23806 0.34627 0.0
C228 C 0.04893 0.54346 0.76795 0.0
C229 C 0.02504 0.48254 0.78343 0.0
C230 C 0.06759 0.50251 0.80668 0.0
N231 N 0.10231 0.59583 0.78163 0.0
N232 N 0.11341 0.57199 0.80484 0.0
C233 C 0.02036 0.55313 0.74191 0.0
H234 H 0.05468 0.59433 0.72802 0.0
H235 H -0.00697 0.57355 0.75184 0.0
H236 H 0.99093 0.49974 0.72674 0.0
C237 C 0.06168 0.45974 0.83207 0.0
H238 H 0.10508 0.48507 0.84477 0.0
H239 H 0.04451 0.40183 0.82218 0.0
H240 H 0.02917 0.45879 0.8486 0.0
C241 C 0.58757 0.90315 0.60473 0.0
C242 C 0.50422 0.82281 0.57722 0.0
C243 C 0.55773 0.88912 0.57593 0.0
N244 N 0.55199 0.84758 0.62165 0.0
N245 N 0.50214 0.80153 0.60487 0.0
H246 H 0.68073 0.97377 0.59981 0.0
H247 H 0.64676 0.02034 0.61566 0.0
H248 H 0.65903 0.96788 0.63981 0.0
C249 C 0.64693 0.97021 0.61603 0.0
H250 H 0.41322 0.73771 0.56254 0.0
H251 H 0.46053 0.78041 0.53158 0.0
H252 H 0.43647 0.82959 0.55711 0.0
C253 C 0.45031 0.79045 0.55599 0.0
C254 C 0.1862 0.78437 0.83855 0.0
C255 C 0.21466 0.63701 0.7374 0.0
C256 C 0.43961 0.49496 0.78597 0.0
N257 N 0.46595 0.56839 0.79131 0.0
N258 N 0.49916 0.59838 0.76791 0.0
C259 C 0.45763 0.47712 0.75764 0.0
C260 C 0.49611 0.54484 0.74702 0.0
H261 H 0.40333 0.47347 0.83121 0.0
H262 H 0.40849 0.40078 0.80926 0.0
H263 H 0.35237 0.41448 0.79856 0.0
C264 C 0.39892 0.44318 0.80773 0.0
H265 H 0.54148 0.612 0.71105 0.0
H266 H 0.50105 0.51276 0.6985 0.0
H267 H 0.56971 0.55993 0.72143 0.0
C268 C 0.52871 0.55827 0.71761 0.0
C269 C 0.10888 0.7805 0.72381 0.0
C270 C 0.08275 0.74907 0.77083 0.0
N271 N 0.13845 0.75314 0.73301 0.0
N272 N 0.12353 0.73534 0.76114 0.0
C273 C 0.07246 0.77874 0.7475 0.0
H274 H 0.08163 0.76389 0.67609 0.0
H275 H 0.11098 0.85552 0.69604 0.0
H276 H 0.16026 0.82575 0.68434 0.0
C277 C 0.11623 0.80858 0.69337 0.0
C278 C 0.05014 0.72682 0.8 0.0
H279 H 0.00218 0.70253 0.79549 0.0
H280 H 0.06791 0.77639 0.81785 0.0
H281 H 0.05605 0.68654 0.80917 0.0
C282 C 0.57697 0.77592 0.83615 0.0
C283 C 0.34995 0.58107 0.79485 0.0
C284 C 0.40452 0.61654 0.59416 0.0
N285 N 0.38573 0.65716 0.60854 0.0
C286 C 0.36497 0.56948 0.56953 0.0
N287 N 0.33424 0.63719 0.59628 0.0
C288 C 0.32026 0.58382 0.57163 0.0
H289 H 0.48578 0.67008 0.6221 0.0
H290 H 0.49436 0.66732 0.58054 0.0
H291 H 0.46597 0.58498 0.59774 0.0
C292 C 0.46633 0.6359 0.59908 0.0
H293 H 0.23772 0.56651 0.55742 0.0
C294 C 0.26946 0.55226 0.54857 0.0
H295 H 0.28655 0.57342 0.52617 0.0
H296 H 0.24648 0.4914 0.54394 0.0
C297 C 0.41988 0.597 0.90903 0.0
C298 C 0.48959 0.59537 0.88185 0.0
N299 N 0.41675 0.60921 0.88 0.0
N300 N 0.45906 0.61004 0.86374 0.0
C301 C 0.46568 0.58697 0.91122 0.0
H302 H 0.34871 0.54025 0.93884 0.0
C303 C 0.38122 0.59761 0.93435 0.0
H304 H 0.35725 0.62165 0.92751 0.0
H305 H 0.40826 0.63005 0.95626 0.0
H306 H 0.53319 0.53846 0.87646 0.0
H307 H 0.58168 0.6368 0.88537 0.0
C308 C 0.54091 0.59121 0.87166 0.0
H309 H 0.54723 0.59548 0.84644 0.0
C310 C 0.40807 0.86411 0.63597 0.0
C311 C 0.43395 0.70255 0.68224 0.0
C312 C 0.6268 0.95322 0.74181 0.0
N313 N 0.59427 0.89097 0.72175 0.0
C314 C 0.63213 0.01073 0.72879 0.0
C315 C 0.5996 0.97741 0.70036 0.0
N316 N 0.57844 0.90519 0.69673 0.0
C317 C 0.66058 0.95945 0.76992 0.0
H318 H 0.63815 0.90567 0.77878 0.0
H319 H 0.70594 0.97597 0.76346 0.0
H320 H 0.6646 1.0022 0.78852 0.0
C321 C 0.59038 0.01492 0.67721 0.0
H322 H 0.56976 0.04322 0.68872 0.0
H323 H 0.6337 0.0581 0.66919 0.0
H324 H 0.56115 0.97465 0.65712 0.0
C325 C 0.11869 0.61631 0.89122 0.0
C326 C 0.12939 0.60038 0.91942 0.0
C327 C 0.18358 0.607 0.91593 0.0
N328 N 0.16382 0.63061 0.87277 0.0
N329 N 0.20186 0.62382 0.88734 0.0
H330 H 0.06705 0.66227 0.89148 0.0
H331 H 0.02396 0.56334 0.88861 0.0
H332 H 0.06183 0.60829 0.85517 0.0
C333 C 0.06454 0.61176 0.88087 0.0
C334 C 0.21915 0.60174 0.93972 0.0
H335 H 0.21297 0.62196 0.96348 0.0
H336 H 0.20413 0.54332 0.93886 0.0
H337 H 0.2669 0.63413 0.93463 0.0
C338 C 0.61132 0.75827 0.65838 0.0
C339 C 0.47988 0.76762 0.75781 0.0
C340 C 0.29977 0.89626 0.66827 0.0
C341 C 0.30928 0.94322 0.69585 0.0
C342 C 0.28145 0.8964 0.71819 0.0
N343 N 0.27042 0.82642 0.67476 0.0
N344 N 0.25802 0.82669 0.70438 0.0
C345 C 0.31131 0.9168 0.63612 0.0
H346 H 0.30932 0.87269 0.61932 0.0
H347 H 0.27677 0.92465 0.62863 0.0
H348 H 0.35514 0.96964 0.63602 0.0
C349 C 0.26812 0.91617 0.75035 0.0
H350 H 0.24987 0.86918 0.76374 0.0
H351 H 0.30892 0.96508 0.76273 0.0
H352 H 0.23514 0.9306 0.74877 0.0
C353 C 0.66352 0.74609 0.77033 0.0
C354 C 0.71318 0.79399 0.75493 0.0
C355 C 0.6942 0.82394 0.73606 0.0
N356 N 0.61829 0.74858 0.76097 0.0
N357 N 0.63626 0.79411 0.74011 0.0
C358 C 0.65814 0.69614 0.79222 0.0
H359 H 0.70042 0.72188 0.80614 0.0
H360 H 0.64816 0.64378 0.7785 0.0
H361 H 0.6211 0.6828 0.80778 0.0
C362 C 0.72906 0.87509 0.71293 0.0
H363 H 0.77031 0.92478 0.72457 0.0
H364 H 0.74214 0.84726 0.69441 0.0
H365 H 0.70261 0.89209 0.70243 0.0
C366 C 0.10864 0.62366 0.66388 0.0
C367 C 0.31653 0.71088 0.67955 0.0
C368 C 0.34899 0.78433 0.89967 0.0
N369 N 0.33644 0.72335 0.8807 0.0
N370 N 0.38357 0.72047 0.87895 0.0
C371 C 0.40743 0.82152 0.91113 0.0
C372 C 0.42779 0.77876 0.89758 0.0
H373 H 0.26708 0.77539 0.89265 0.0
H374 H 0.28468 0.77402 0.93213 0.0
H375 H 0.32383 0.85971 0.91648 0.0
C376 C 0.3035 0.79952 0.91073 0.0
H377 H 0.49628 0.75968 0.88646 0.0
H378 H 0.52116 0.84743 0.91035 0.0
H379 H 0.48011 0.76312 0.927 0.0
C380 C 0.48493 0.788 0.90563 0.0
C381 C 0.24465 0.70811 0.5611 0.0
N382 N 0.26191 0.71762 0.59102 0.0
N383 N 0.22658 0.72872 0.60905 0.0
C384 C 0.19384 0.70956 0.56029 0.0
C385 C 0.18538 0.72538 0.5915 0.0
C386 C 0.27763 0.70212 0.53375 0.0
H387 H 0.29167 0.74827 0.52042 0.0
H388 H 0.2486 0.65037 0.51768 0.0
H389 H 0.31746 0.70509 0.54156 0.0
C390 C 0.13448 0.72734 0.6047 0.0
H391 H 0.13044 0.76756 0.59418 0.0
H392 H 0.09251 0.6722 0.59906 0.0
H393 H 0.14143 0.74389 0.63031 0.0
C394 C 0.25535 0.50201 0.87766 0.0
C395 C 0.29223 0.6915 0.8061 0.0
Cu396 Cu 0.15723 0.69288 0.77742 0.0
Cu397 Cu 0.17763 0.64442 0.83116 0.0
Cu398 Cu 0.46325 0.6323 0.82305 0.0
Cu399 Cu 0.53997 0.70134 0.77143 0.0
Cu400 Cu 0.4347 0.75357 0.6259 0.0
Cu401 Cu 0.31557 0.70743 0.6119 0.0
Cu402 Cu 0.57883 0.79744 0.72013 0.0
Cu403 Cu 0.54455 0.82739 0.66385 0.0
Cu404 Cu 0.23483 0.73228 0.65157 0.0
Cu405 Cu 0.19388 0.73827 0.71474 0.0
Cu406 Cu 0.26615 0.63742 0.86509 0.0
Cu407 Cu 0.36954 0.6304 0.86092 0.0
H408 H 0.22402 0.81772 0.85604 0.0
H409 H 0.14422 0.75354 0.8506 0.0
H410 H 0.18442 0.8216 0.82454 0.0
H411 H 0.19369 0.59864 0.75487 0.0
H412 H 0.26158 0.65485 0.73601 0.0
H413 H 0.19087 0.60791 0.71442 0.0
H414 H 0.61914 0.80224 0.82401 0.0
H415 H 0.5789 0.74549 0.85389 0.0
H416 H 0.57082 0.81937 0.84759 0.0
H417 H 0.34921 0.52981 0.7911 0.0
H418 H 0.36063 0.6055 0.77294 0.0
H419 H 0.30545 0.56686 0.80178 0.0
H420 H 0.37655 0.85531 0.65438 0.0
H421 H 0.4087 0.89915 0.61974 0.0
H422 H 0.45307 0.89201 0.64713 0.0
H423 H 0.39846 0.65441 0.6666 0.0
H424 H 0.41372 0.7099 0.70377 0.0
H425 H 0.46694 0.69055 0.68756 0.0
H426 H 0.58929 0.71888 0.63673 0.0
H427 H 0.64777 0.8124 0.65226 0.0
H428 H 0.62947 0.73638 0.6727 0.0
H429 H 0.48185 0.8064 0.74325 0.0
H430 H 0.43294 0.72346 0.76044 0.0
H431 H 0.50144 0.79854 0.78103 0.0
H432 H 0.08843 0.57454 0.67604 0.0
H433 H 0.08312 0.64933 0.66794 0.0
H434 H 0.10783 0.60605 0.63858 0.0
H435 H 0.30145 0.73447 0.69876 0.0
H436 H 0.31088 0.65993 0.68525 0.0
H437 H 0.36344 0.75327 0.67647 0.0
H438 H 0.27181 0.4665 0.86978 0.0
H439 H 0.26383 0.51901 0.90314 0.0
H440 H 0.20695 0.47062 0.87193 0.0
H441 H 0.28225 0.73013 0.79903 0.0
H442 H 0.33517 0.72376 0.81978 0.0
H443 H 0.29603 0.65971 0.78517 0.0
O444 O 0.19396 0.73573 0.81935 0.0
O445 O 0.21176 0.69726 0.74601 0.0
O446 O 0.53051 0.72795 0.81502 0.0
O447 O 0.39168 0.63021 0.81805 0.0
O448 O 0.39264 0.79763 0.6197 0.0
O449 O 0.45973 0.76473 0.66797 0.0
O450 O 0.57085 0.76649 0.67483 0.0
O451 O 0.50926 0.73731 0.74405 0.0
O452 O 0.16621 0.67333 0.67499 0.0
O453 O 0.28376 0.69473 0.65289 0.0
O454 O 0.28403 0.56298 0.86273 0.0
O455 O 0.24802 0.64402 0.82374 0.0
H456 H 0.44017 0.96322 0.91473 0.0
H457 H 0.43268 0.80823 0.96866 0.0
H458 H 0.47956 0.05767 0.96105 0.0
H459 H 0.4719 0.90219 0.015 0.0
H460 H 0.47759 0.06561 0.09673 0.0
H461 H 0.43574 0.97247 0.04992 0.0
H462 H 0.57435 0.12886 0.99622 0.0
H463 H 0.61589 0.22131 0.04297 0.0
C464 C 0.44751 0.9499 0.93651 0.0
C465 C 0.43432 0.8794 0.93834 0.0
C466 C 0.46992 1.00358 0.9629 0.0
C467 C 0.47852 0.98697 0.99155 0.0
C468 C 0.46516 0.91614 0.99325 0.0
C469 C 0.44347 0.86284 0.96678 0.0
C470 C 0.49856 0.07973 0.07479 0.0
C471 C 0.54981 0.14983 0.07318 0.0
C472 C 0.47503 0.02667 0.04817 0.0
C473 C 0.50205 0.04358 0.01956 0.0
C474 C 0.55253 0.11458 0.01794 0.0
C475 C 0.5764 0.16716 0.0446 0.0
H476 H 0.41675 0.63877 0.51953 0.0
H477 H 0.36715 0.44655 0.56053 0.0
H478 H 0.4889 0.62733 0.48886 0.0
H479 H 0.43654 0.43147 0.5286 0.0
H480 H 0.60259 0.4557 0.49658 0.0
H481 H 0.53794 0.48282 0.52707 0.0
H482 H 0.51572 0.5708 0.44953 0.0
H483 H 0.58293 0.5473 0.42021 0.0
C484 C 0.41889 0.59145 0.52058 0.0
C485 C 0.38535 0.54266 0.54197 0.0
C486 C 0.4611 0.58535 0.50331 0.0
C487 C 0.47035 0.52955 0.50667 0.0
C488 C 0.43267 0.47686 0.52605 0.0
C489 C 0.39123 0.48381 0.54367 0.0
C490 C 0.58666 0.48488 0.48688 0.0
C491 C 0.59855 0.5003 0.45616 0.0
C492 C 0.54777 0.4982 0.50391 0.0
C493 C 0.51921 0.52651 0.49051 0.0
C494 C 0.53619 0.54881 0.4609 0.0
C495 C 0.57569 0.5364 0.44412 0.0
H496 H 0.88279 0.33895 0.05511 0.0
H497 H 0.91483 0.55435 0.08113 0.0
H498 H 0.94721 0.38224 0.01155 0.0
H499 H 0.98292 0.60031 0.03921 0.0
H500 H 0.06218 0.65011 0.94552 0.0
H501 H -0.00658 0.60347 0.98686 0.0
H502 H 0.04219 0.45011 0.9964 0.0
H503 H 0.10512 0.49096 0.95274 0.0
C504 C 0.90446 0.39597 0.05158 0.0
C505 C 0.89399 0.4434 0.07114 0.0
C506 C 0.94188 0.42127 0.0268 0.0
C507 C 0.97095 0.49527 0.02158 0.0
C508 C 0.96063 0.5427 0.04175 0.0
C509 C 0.92202 0.51674 0.06601 0.0
C510 C 0.05726 0.60543 0.95604 0.0
C511 C 0.08943 0.57455 0.94576 0.0
C512 C 0.01853 0.57943 0.98029 0.0
C513 C 0.01189 0.52282 0.99542 0.0
C514 C 0.04486 0.49273 0.98524 0.0
C515 C 0.08237 0.51753 0.96052 0.0
H516 H 0.55371 0.0111 0.58999 0.0
H517 H 0.56582 0.87427 0.51325 0.0
H518 H 0.5187 0.05679 0.55408 0.0
H519 H 0.52643 0.91422 0.47747 0.0
H520 H 0.4768 0.02438 0.41474 0.0
H521 H 0.52262 0.98748 0.44821 0.0
H522 H 0.4365 0.0267 0.52698 0.0
H523 H 0.39542 0.06986 0.49339 0.0
C524 C 0.5513 0.99315 0.56521 0.0
C525 C 0.56363 0.93996 0.55448 0.0
C526 C 0.52894 0.0172 0.54451 0.0
C527 C 0.51704 0.98764 0.5125 0.0
C528 C 0.53454 0.93921 0.5016 0.0
C529 C 0.55813 0.91663 0.52219 0.0
C530 C 0.46597 0.02239 0.43901 0.0
C531 C 0.43134 0.04855 0.45122 0.0
C532 C 0.49291 1.00185 0.45855 0.0
C533 C 0.48497 1.00506 0.49098 0.0
C534 C 0.44608 0.02563 0.50258 0.0
C535 C 0.42053 0.04813 0.4831 0.0
H536 H 0.4252 0.37815 0.07302 0.0
H537 H 0.60285 0.57392 0.0872 0.0
H538 H 0.413 0.41378 0.02406 0.0
H539 H 0.59131 0.60939 0.03846 0.0
H540 H 0.52258 0.68088 0.96415 0.0
H541 H 0.53509 0.64943 0.01396 0.0
H542 H 0.45624 0.42343 0.97133 0.0
H543 H 0.44369 0.45556 0.92153 0.0
C544 C 0.46104 0.42949 0.06593 0.0
C545 C 0.51479 0.47357 0.08376 0.0
C546 C 0.45451 0.44938 0.03777 0.0
C547 C 0.50147 0.51405 0.02724 0.0
C548 C 0.55425 0.55947 0.04593 0.0
C549 C 0.56089 0.53923 0.0738 0.0
C550 C 0.50927 0.62496 0.96542 0.0
C551 C 0.48308 0.57073 0.93916 0.0
C552 C 0.51606 0.6068 0.99388 0.0
C553 C 0.49612 0.53376 0.99666 0.0
C554 C 0.47123 0.47991 0.97003 0.0
C555 C 0.46491 0.49836 0.94147 0.0
H556 H 0.85921 0.32496 0.49708 0.0
H557 H 0.85953 0.48484 0.44988 0.0
H558 H 0.95837 0.4203 0.52024 0.0
H559 H 0.95967 0.57923 0.47106 0.0
H560 H 0.12096 0.74495 0.53854 0.0
H561 H 0.02154 0.65677 0.51455 0.0
H562 H 0.05582 0.48539 0.50465 0.0
H563 H 0.15177 0.57128 0.53144 0.0
C564 C 0.8804 0.38096 0.49221 0.0
C565 C 0.85203 0.39854 0.47242 0.0
C566 C 0.93748 0.43527 0.50484 0.0
C567 C 0.96757 0.50735 0.49705 0.0
C568 C 0.93786 0.52486 0.47789 0.0
C569 C 0.88049 0.47098 0.46584 0.0
C570 C 0.10732 0.68865 0.5307 0.0
C571 C 0.14411 0.66513 0.53678 0.0
C572 C 0.05043 0.63803 0.51691 0.0
C573 C 0.03 0.56334 0.5084 0.0
C574 C 0.06923 0.54181 0.51187 0.0
C575 C 0.12529 0.59184 0.52632 0.0
H576 H 0.7091 0.99022 0.34588 0.0
H577 H 0.57234 0.96667 0.28777 0.0
H578 H 0.66526 0.85732 0.33385 0.0
H579 H 0.52667 0.83388 0.27664 0.0
H580 H 0.51048 0.62572 0.2286 0.0
H581 H 0.54441 0.7529 0.2464 0.0
H582 H 0.5868 0.73317 0.3381 0.0
H583 H 0.55561 0.60593 0.3193 0.0
C584 C 0.66883 0.9561 0.33109 0.0
C585 C 0.6441 0.98835 0.31763 0.0
C586 C 0.64346 0.87985 0.32423 0.0
C587 C 0.5925 0.83422 0.30393 0.0
C588 C 0.56661 0.8669 0.2917 0.0
C589 C 0.59241 0.94298 0.29824 0.0
C590 C 0.52718 0.64852 0.25255 0.0
C591 C 0.53119 0.60605 0.27238 0.0
C592 C 0.54597 0.7215 0.26299 0.0
C593 C 0.56872 0.75425 0.29381 0.0
C594 C 0.57045 0.71056 0.31409 0.0
C595 C 0.5518 0.63722 0.30349 0.0
H596 H 0.05167 0.86118 0.79164 0.0
H597 H 0.98939 0.72858 0.70098 0.0
H598 H 0.96695 0.87298 0.79221 0.0
H599 H 0.90617 0.74216 0.70104 0.0
H600 H 0.7261 0.68155 0.73851 0.0
H601 H 0.81847 0.68738 0.73505 0.0
H602 H 0.91819 0.92332 0.76344 0.0
H603 H 0.8248 0.9169 0.76738 0.0
C604 C 0.02033 0.83574 0.77169 0.0
C605 C 0.02651 0.79395 0.74631 0.0
C606 C 0.97245 0.84303 0.77187 0.0
C607 C 0.93021 0.80805 0.74674 0.0
C608 C 0.9381 0.76912 0.72077 0.0
C609 C 0.9859 0.76201 0.72058 0.0
C610 C 0.76781 0.73442 0.74423 0.0
C611 C 0.76905 0.79873 0.75338 0.0
C612 C 0.82048 0.73796 0.74189 0.0
C613 C 0.87514 0.80592 0.74872 0.0
C614 C 0.87639 0.87041 0.75807 0.0
C615 C 0.82341 0.86685 0.76019 0.0
H616 H 0.26477 0.91859 0.31794 0.0
H617 H 0.32712 0.89535 0.22697 0.0
H618 H 0.17016 0.80138 0.30378 0.0
H619 H 0.2316 0.77662 0.21271 0.0
H620 H 0.06003 0.53127 0.22323 0.0
H621 H 0.16163 0.6412 0.23443 0.0
H622 H 0.09131 0.77473 0.259 0.0
H623 H 0.99015 0.6652 0.24744 0.0
C624 C 0.25882 0.88697 0.29526 0.0
C625 C 0.30315 0.91503 0.2736 0.0
C626 C 0.20455 0.82059 0.28707 0.0
C627 C 0.19381 0.78091 0.25713 0.0
C628 C 0.23925 0.80659 0.23596 0.0
C629 C 0.29362 0.87391 0.24408 0.0
C630 C 0.06674 0.58447 0.23074 0.0
C631 C 0.01801 0.59063 0.23462 0.0
C632 C 0.12447 0.64694 0.23698 0.0
C633 C 0.13376 0.71574 0.24772 0.0
C634 C 0.08491 0.72189 0.25092 0.0
C635 C 0.02738 0.65974 0.2442 0.0
H636 H 0.5276 0.4267 0.73888 0.0
H637 H 0.34493 0.35838 0.74339 0.0
H638 H 0.495 0.29871 0.72003 0.0
H639 H 0.31219 0.23097 0.72472 0.0
H640 H 0.27286 0.01678 0.66797 0.0
H641 H 0.31196 0.14868 0.67841 0.0
H642 H 0.44274 0.18176 0.7447 0.0
H643 H 0.40357 0.05002 0.73406 0.0
C644 C 0.48055 0.38444 0.73533 0.0
C645 C 0.43873 0.40208 0.74269 0.0
C646 C 0.46185 0.31122 0.72481 0.0
C647 C 0.40096 0.25458 0.72098 0.0
C648 C 0.35935 0.27321 0.72717 0.0
C649 C 0.37805 0.34603 0.73808 0.0
C650 C 0.31058 0.05266 0.68434 0.0
C651 C 0.33543 0.02361 0.70016 0.0
C652 C 0.33269 0.12796 0.69051 0.0
C653 C 0.38052 0.17579 0.71238 0.0
C654 C 0.40635 0.1467 0.72748 0.0
C655 C 0.38374 0.07132 0.72158 0.0
H656 H 0.15439 0.08987 0.24726 0.0
H657 H 0.25385 0.3235 0.28044 0.0
H658 H 0.06142 0.08408 0.25207 0.0
H659 H 0.16199 0.31857 0.28445 0.0
H660 H 0.99149 0.28073 0.31583 0.0
H661 H 0.07374 0.26547 0.31632 0.0
H662 H 0.01315 0.13429 0.22519 0.0
H663 H 0.92911 0.14711 0.22538 0.0
C664 C 0.15606 0.13968 0.25562 0.0
C665 C 0.21057 0.20716 0.26332 0.0
C666 C 0.10327 0.13652 0.25822 0.0
C667 C 0.10477 0.20078 0.26883 0.0
C668 C 0.1596 0.26803 0.27668 0.0
C669 C 0.21207 0.27114 0.27396 0.0
C670 C -0.00524 0.24681 0.29637 0.0
C671 C 0.95439 0.21509 0.27054 0.0
C672 C 0.04209 0.23878 0.29648 0.0
C673 C 0.0499 0.19937 0.27066 0.0
C674 C 0.00782 0.16461 0.24544 0.0
C675 C 0.96032 0.17257 0.24538 0.0
H676 H 0.92068 0.47228 0.78698 0.0
H677 H -0.00453 0.34265 0.76792 0.0
H678 H 0.82066 0.36071 0.77401 0.0
H679 H 0.89582 0.2313 0.75481 0.0
H680 H 0.72641 0.07909 0.69372 0.0
H681 H 0.82051 0.19667 0.70865 0.0
H682 H 0.74912 0.23036 0.79502 0.0
H683 H 0.65425 0.11153 0.77991 0.0
C684 C 0.91537 0.41965 0.78023 0.0
C685 C 0.96506 0.41521 0.77831 0.0
C686 C 0.85849 0.35621 0.77298 0.0
C687 C 0.851 0.28803 0.76322 0.0
C688 C 0.90078 0.2836 0.76202 0.0
C689 C 0.95746 0.3468 0.7697 0.0
C690 C 0.73029 0.11274 0.71544 0.0
C691 C 0.68328 0.08745 0.73556 0.0
C692 C 0.7842 0.17928 0.72415 0.0
C693 C 0.79189 0.22171 0.75306 0.0
C694 C 0.74392 0.19834 0.77257 0.0
C695 C 0.68992 0.13097 0.76396 0.0
loop_
_geom_bond_atom_site_label_1
_geom_bond_atom_site_label_2
_geom_bond_distance
_geom_bond_site_symmetry_2
_ccdc_geom_bond_type
C0 C1 1.388 . S
C0 N3 1.338 . S
C0 C5 1.503 . S
C1 C0 1.388 . S
C1 C2 1.396 . S
C2 C1 1.396 . S
C2 N4 1.348 . S
C2 C9 1.504 . S
N3 C0 1.338 . S
N3 N4 1.361 . S
N3 Cu168 1.924 . S
N4 C2 1.348 . S
N4 N3 1.361 . S
N4 Cu169 1.964 . S
C5 C0 1.503 . S
C5 H6 0.979 . S
C5 H7 0.979 . S
C5 H8 0.979 . S
H6 C5 0.979 . S
H7 C5 0.979 . S
H8 C5 0.979 . S
C9 C2 1.504 . S
C9 H10 0.981 . S
C9 H11 0.980 . S
C9 H12 0.979 . S
H10 C9 0.981 . S
H11 C9 0.980 . S
H12 C9 0.979 . S
C13 C15 1.402 . S
C13 N16 1.356 . S
C13 C21 1.481 . S
C14 C15 1.400 . S
C14 N17 1.325 . S
C14 C25 1.503 . S
C15 C13 1.402 . S
C15 C14 1.400 . S
N16 C13 1.356 . S
N16 N17 1.365 . S
N16 Cu175 1.941 . S
N17 C14 1.325 . S
N17 N16 1.365 . S
N17 Cu172 1.924 . S
H18 C21 0.980 1_455 S
H19 C21 0.980 1_455 S
H20 C21 0.980 . S
C21 C13 1.481 . S
C21 H18 0.980 1_655 S
C21 H19 0.980 1_655 S
C21 H20 0.980 . S
H22 C25 0.978 . S
H23 C25 0.978 . S
H24 C25 0.983 . S
C25 C14 1.503 . S
C25 H22 0.978 . S
C25 H23 0.978 . S
C25 H24 0.983 . S
C26 H180 0.979 . S
C26 H181 0.981 . S
C26 H182 0.981 . S
C26 O216 1.438 . S
C27 H183 0.980 . S
C27 H184 0.979 . S
C27 H185 0.980 . S
C27 O217 1.533 . S
C28 N29 1.338 . S
C28 C31 1.388 . S
C28 C36 1.503 . S
N29 C28 1.338 . S
N29 N30 1.361 . S
N29 Cu170 1.924 . S
N30 N29 1.361 . S
N30 C32 1.348 . S
N30 Cu171 1.964 . S
C31 C28 1.388 . S
C31 C32 1.396 . S
C32 N30 1.348 . S
C32 C31 1.396 . S
C32 C40 1.504 . S
H33 C36 0.979 . S
H34 C36 0.979 . S
H35 C36 0.979 . S
C36 C28 1.503 . S
C36 H33 0.979 . S
C36 H34 0.979 . S
C36 H35 0.979 . S
H37 C40 0.981 . S
H38 C40 0.980 . S
H39 C40 0.979 . S
C40 C32 1.504 . S
C40 H37 0.981 . S
C40 H38 0.980 . S
C40 H39 0.979 . S
C41 N43 1.356 . S
C41 C45 1.402 . S
C41 C49 1.481 . S
C42 N44 1.325 . S
C42 C45 1.400 . S
C42 C50 1.503 . S
N43 C41 1.356 . S
N43 N44 1.365 . S
N43 Cu177 1.941 . S
N44 C42 1.325 . S
N44 N43 1.365 . S
N44 Cu168 1.924 . S
C45 C41 1.402 . S
C45 C42 1.400 . S
H46 C49 0.980 . S
H47 C49 0.980 . S
H48 C49 0.980 . S
C49 C41 1.481 . S
C49 H46 0.980 . S
C49 H47 0.980 . S
C49 H48 0.980 . S
C50 C42 1.503 . S
C50 H51 0.978 . S
C50 H52 0.978 . S
C50 H53 0.983 . S
H51 C50 0.978 . S
H52 C50 0.978 . S
H53 C50 0.983 . S
C54 H186 0.979 . S
C54 H187 0.981 . S
C54 H188 0.981 . S
C54 O218 1.438 . S
C55 H189 0.980 . S
C55 H190 0.979 . S
C55 H191 0.980 . S
C55 O219 1.533 . S
C56 N57 1.338 . S
C56 C58 1.388 . S
C56 C64 1.503 . S
N57 C56 1.338 . S
N57 N59 1.361 . S
N57 Cu172 1.924 . S
C58 C56 1.388 . S
C58 C60 1.396 . S
N59 N57 1.361 . S
N59 C60 1.348 . S
N59 Cu173 1.964 . S
C60 C58 1.396 . S
C60 N59 1.348 . S
C60 C66 1.504 . S
H61 C64 0.979 . S
H62 C64 0.979 . S
H63 C64 0.979 . S
C64 C56 1.503 . S
C64 H61 0.979 . S
C64 H62 0.979 . S
C64 H63 0.979 . S
H65 C66 0.981 . S
C66 C60 1.504 . S
C66 H65 0.981 . S
C66 H67 0.979 . S
C66 H68 0.980 . S
H67 C66 0.979 . S
H68 C66 0.980 . S
C69 N71 1.356 . S
C69 C73 1.402 . S
C69 C75 1.481 . S
C70 N72 1.325 . S
C70 C73 1.400 . S
C70 C80 1.503 . S
N71 C69 1.356 . S
N71 N72 1.365 . S
N71 Cu179 1.941 . S
N72 C70 1.325 . S
N72 N71 1.365 . S
N72 Cu170 1.924 . S
C73 C69 1.402 . S
C73 C70 1.400 . S
H74 C75 0.980 . S
C75 C69 1.481 . S
C75 H74 0.980 . S
C75 H76 0.980 . S
C75 H77 0.980 . S
H76 C75 0.980 . S
H77 C75 0.980 . S
H78 C80 0.978 . S
H79 C80 0.978 . S
C80 C70 1.503 . S
C80 H78 0.978 . S
C80 H79 0.978 . S
C80 H81 0.983 . S
H81 C80 0.983 . S
C82 H192 0.979 . S
C82 H193 0.981 . S
C82 H194 0.981 . S
C82 O220 1.438 . S
C83 H195 0.980 . S
C83 H196 0.979 . S
C83 H197 0.980 . S
C83 O221 1.533 . S
C84 N85 1.338 . S
C84 C86 1.388 . S
C84 C89 1.503 . S
N85 C84 1.338 . S
N85 N88 1.361 . S
N85 Cu174 1.924 . S
C86 C84 1.388 . S
C86 C87 1.396 . S
C87 C86 1.396 . S
C87 N88 1.348 . S
C87 C93 1.504 . S
N88 N85 1.361 . S
N88 C87 1.348 . S
N88 Cu175 1.964 . S
C89 C84 1.503 . S
C89 H90 0.979 . S
C89 H91 0.979 1_655 S
C89 H92 0.979 . S
H90 C89 0.979 . S
H91 C89 0.979 1_455 S
H92 C89 0.979 . S
C93 C87 1.504 . S
C93 H94 0.981 . S
C93 H95 0.980 . S
C93 H96 0.979 . S
H94 C93 0.981 . S
H95 C93 0.980 . S
H96 C93 0.979 . S
C97 C98 1.402 . S
C97 N100 1.356 . S
C97 C105 1.481 . S
C98 C97 1.402 . S
C98 C99 1.400 . S
C99 C98 1.400 . S
C99 N101 1.325 . S
C99 C106 1.503 . S
N100 C97 1.356 . S
N100 N101 1.365 . S
N100 Cu169 1.941 . S
N101 C99 1.325 . S
N101 N100 1.365 . S
N101 Cu178 1.924 . S
H102 C105 0.980 . S
H103 C105 0.980 . S
H104 C105 0.980 . S
C105 C97 1.481 . S
C105 H102 0.980 . S
C105 H103 0.980 . S
C105 H104 0.980 . S
C106 C99 1.503 . S
C106 H107 0.978 . S
C106 H108 0.978 . S
C106 H109 0.983 . S
H107 C106 0.978 . S
H108 C106 0.978 . S
H109 C106 0.983 . S
C110 H198 0.979 . S
C110 H199 0.981 . S
C110 H200 0.981 . S
C110 O222 1.438 . S
C111 H201 0.980 . S
C111 H202 0.979 . S
C111 H203 0.980 . S
C111 O223 1.533 . S
C112 C113 1.388 . S
C112 N115 1.338 . S
C112 C117 1.503 . S
C113 C112 1.388 . S
C113 C114 1.396 . S
C114 C113 1.396 . S
C114 N116 1.348 . S
C114 C121 1.504 . S
N115 C112 1.338 . S
N115 N116 1.361 . S
N115 Cu176 1.924 . S
N116 C114 1.348 . S
N116 N115 1.361 . S
N116 Cu177 1.964 . S
C117 C112 1.503 . S
C117 H118 0.979 . S
C117 H119 0.979 . S
C117 H120 0.979 . S
H118 C117 0.979 . S
H119 C117 0.979 . S
H120 C117 0.979 . S
C121 C114 1.504 . S
C121 H122 0.981 . S
C121 H123 0.980 . S
C121 H124 0.979 . S
H122 C121 0.981 . S
H123 C121 0.980 . S
H124 C121 0.979 . S
C125 C126 1.402 . S
C125 N128 1.356 . S
C125 C130 1.481 . S
C126 C125 1.402 . S
C126 C127 1.400 . S
C127 C126 1.400 . S
C127 N129 1.325 . S
C127 C134 1.503 1_655 S
N128 C125 1.356 . S
N128 N129 1.365 . S
N128 Cu171 1.941 . S
N129 C127 1.325 . S
N129 N128 1.365 . S
N129 Cu174 1.924 . S
C130 C125 1.481 . S
C130 H131 0.980 . S
C130 H132 0.980 . S
C130 H133 0.980 . S
H131 C130 0.980 . S
H132 C130 0.980 . S
H133 C130 0.980 . S
C134 C127 1.503 1_455 S
C134 H135 0.978 . S
C134 H136 0.978 . S
C134 H137 0.983 . S
H135 C134 0.978 . S
H136 C134 0.978 . S
H137 C134 0.983 . S
C138 H204 0.979 . S
C138 H205 0.981 . S
C138 H206 0.981 . S
C138 O224 1.438 . S
C139 H207 0.980 . S
C139 H208 0.979 . S
C139 H209 0.980 . S
C139 O225 1.533 . S
C140 N141 1.338 . S
C140 C143 1.388 . S
C140 C148 1.503 . S
N141 C140 1.338 . S
N141 N142 1.361 . S
N141 Cu178 1.924 . S
N142 N141 1.361 . S
N142 C144 1.348 . S
N142 Cu179 1.964 . S
C143 C140 1.388 . S
C143 C144 1.396 . S
C144 N142 1.348 . S
C144 C143 1.396 . S
C144 C152 1.504 . S
H145 C148 0.979 . S
H146 C148 0.979 . S
H147 C148 0.979 . S
C148 C140 1.503 . S
C148 H145 0.979 . S
C148 H146 0.979 . S
C148 H147 0.979 . S
H149 C152 0.981 . S
H150 C152 0.980 . S
H151 C152 0.979 . S
C152 C144 1.504 . S
C152 H149 0.981 . S
C152 H150 0.980 . S
C152 H151 0.979 . S
C153 N154 1.356 . S
C153 C156 1.402 . S
C153 C158 1.481 . S
N154 C153 1.356 . S
N154 N155 1.365 . S
N154 Cu173 1.941 . S
N155 N154 1.365 . S
N155 C157 1.325 . S
N155 Cu176 1.924 . S
C156 C153 1.402 . S
C156 C157 1.400 . S
C157 N155 1.325 . S
C157 C156 1.400 . S
C157 C162 1.503 . S
C158 C153 1.481 . S
C158 H159 0.980 . S
C158 H160 0.980 . S
C158 H161 0.980 . S
H159 C158 0.980 . S
H160 C158 0.980 . S
H161 C158 0.980 . S
C162 C157 1.503 . S
C162 H163 0.978 . S
C162 H164 0.978 . S
C162 H165 0.983 . S
H163 C162 0.978 . S
H164 C162 0.978 . S
H165 C162 0.983 . S
C166 H210 0.979 . S
C166 H211 0.981 . S
C166 H212 0.981 . S
C166 O226 1.438 . S
C167 H213 0.980 . S
C167 H214 0.979 . S
C167 H215 0.980 . S
C167 O227 1.533 . S
Cu168 N3 1.924 . S
Cu168 N44 1.924 . S
Cu168 O216 1.923 . S
Cu168 O217 1.930 . S
Cu169 N4 1.964 . S
Cu169 N100 1.941 . S
Cu169 O216 1.905 . S
Cu169 O227 1.920 . S
Cu170 N29 1.924 . S
Cu170 N72 1.924 . S
Cu170 O218 1.923 . S
Cu170 O219 1.930 . S
Cu171 N30 1.964 . S
Cu171 N128 1.941 . S
Cu171 O218 1.905 . S
Cu171 O223 1.920 . S
Cu172 N17 1.924 . S
Cu172 N57 1.924 . S
Cu172 O220 1.923 . S
Cu172 O221 1.930 . S
Cu173 N59 1.964 . S
Cu173 N154 1.941 . S
Cu173 O220 1.905 . S
Cu173 O225 1.920 . S
Cu174 N85 1.924 . S
Cu174 N129 1.924 . S
Cu174 O222 1.923 . S
Cu174 O223 1.930 . S
Cu175 N16 1.941 . S
Cu175 N88 1.964 . S
Cu175 O221 1.920 . S
Cu175 O222 1.905 . S
Cu176 N115 1.924 . S
Cu176 N155 1.924 . S
Cu176 O224 1.923 . S
Cu176 O225 1.930 . S
Cu177 N43 1.941 . S
Cu177 N116 1.964 . S
Cu177 O217 1.920 . S
Cu177 O224 1.905 . S
Cu178 N101 1.924 . S
Cu178 N141 1.924 . S
Cu178 O226 1.923 . S
Cu178 O227 1.930 . S
Cu179 N71 1.941 . S
Cu179 N142 1.964 . S
Cu179 O219 1.920 . S
Cu179 O226 1.905 . S
H180 C26 0.979 . S
H181 C26 0.981 . S
H182 C26 0.981 . S
H183 C27 0.980 . S
H184 C27 0.979 . S
H185 C27 0.980 . S
H186 C54 0.979 . S
H187 C54 0.981 . S
H188 C54 0.981 . S
H189 C55 0.980 . S
H190 C55 0.979 . S
H191 C55 0.980 . S
H192 C82 0.979 . S
H193 C82 0.981 . S
H194 C82 0.981 . S
H195 C83 0.980 . S
H196 C83 0.979 . S
H197 C83 0.980 . S
H198 C110 0.979 . S
H199 C110 0.981 . S
H200 C110 0.981 . S
H201 C111 0.980 . S
H202 C111 0.979 . S
H203 C111 0.980 . S
H204 C138 0.979 . S
H205 C138 0.981 . S
H206 C138 0.981 . S
H207 C139 0.980 . S
H208 C139 0.979 . S
H209 C139 0.980 . S
H210 C166 0.979 . S
H211 C166 0.981 . S
H212 C166 0.981 . S
H213 C167 0.980 . S
H214 C167 0.979 . S
H215 C167 0.980 . S
O216 C26 1.438 . S
O216 Cu168 1.923 . S
O216 Cu169 1.905 . S
O217 C27 1.533 . S
O217 Cu168 1.930 . S
O217 Cu177 1.920 . S
O218 C54 1.438 . S
O218 Cu170 1.923 . S
O218 Cu171 1.905 . S
O219 C55 1.533 . S
O219 Cu170 1.930 . S
O219 Cu179 1.920 . S
O220 C82 1.438 . S
O220 Cu172 1.923 . S
O220 Cu173 1.905 . S
O221 C83 1.533 . S
O221 Cu172 1.930 . S
O221 Cu175 1.920 . S
O222 C110 1.438 . S
O222 Cu174 1.923 . S
O222 Cu175 1.905 . S
O223 C111 1.533 . S
O223 Cu171 1.920 . S
O223 Cu174 1.930 . S
O224 C138 1.438 . S
O224 Cu176 1.923 . S
O224 Cu177 1.905 . S
O225 C139 1.533 . S
O225 Cu173 1.920 . S
O225 Cu176 1.930 . S
O226 C166 1.438 . S
O226 Cu178 1.923 . S
O226 Cu179 1.905 . S
O227 C167 1.533 . S
O227 Cu169 1.920 . S
O227 Cu178 1.930 . S
C228 C229 1.388 . S
C228 N231 1.338 . S
C228 C233 1.503 . S
C229 C228 1.388 . S
C229 C230 1.396 . S
C230 C229 1.396 . S
C230 N232 1.348 . S
C230 C237 1.504 . S
N231 C228 1.338 . S
N231 N232 1.361 . S
N231 Cu396 1.924 . S
N232 C230 1.348 . S
N232 N231 1.361 . S
N232 Cu397 1.964 . S
C233 C228 1.503 . S
C233 H234 0.979 . S
C233 H235 0.979 1_455 S
C233 H236 0.979 . S
H234 C233 0.979 . S
H235 C233 0.979 1_655 S
H236 C233 0.979 . S
C237 C230 1.504 . S
C237 H238 0.981 . S
C237 H239 0.980 . S
C237 H240 0.979 . S
H238 C237 0.981 . S
H239 C237 0.980 . S
H240 C237 0.979 . S
C241 C243 1.402 . S
C241 N244 1.356 . S
C241 C249 1.481 . S
C242 C243 1.400 . S
C242 N245 1.325 . S
C242 C253 1.503 . S
C243 C241 1.402 . S
C243 C242 1.400 . S
N244 C241 1.356 . S
N244 N245 1.365 . S
N244 Cu403 1.941 . S
N245 C242 1.325 . S
N245 N244 1.365 . S
N245 Cu400 1.924 . S
H246 C249 0.980 . S
H247 C249 0.980 . S
H248 C249 0.980 . S
C249 C241 1.481 . S
C249 H246 0.980 . S
C249 H247 0.980 . S
C249 H248 0.980 . S
H250 C253 0.978 . S
H251 C253 0.978 . S
H252 C253 0.983 . S
C253 C242 1.503 . S
C253 H250 0.978 . S
C253 H251 0.978 . S
C253 H252 0.983 . S
C254 H408 0.979 . S
C254 H409 0.981 . S
C254 H410 0.981 . S
C254 O444 1.438 . S
C255 H411 0.980 . S
C255 H412 0.979 . S
C255 H413 0.980 . S
C255 O445 1.533 . S
C256 N257 1.338 . S
C256 C259 1.388 . S
C256 C264 1.503 . S
N257 C256 1.338 . S
N257 N258 1.361 . S
N257 Cu398 1.924 . S
N258 N257 1.361 . S
N258 C260 1.348 . S
N258 Cu399 1.964 . S
C259 C256 1.388 . S
C259 C260 1.396 . S
C260 N258 1.348 . S
C260 C259 1.396 . S
C260 C268 1.504 . S
H261 C264 0.979 . S
H262 C264 0.979 . S
H263 C264 0.979 . S
C264 C256 1.503 . S
C264 H261 0.979 . S
C264 H262 0.979 . S
C264 H263 0.979 . S
H265 C268 0.981 . S
H266 C268 0.980 . S
H267 C268 0.979 . S
C268 C260 1.504 . S
C268 H265 0.981 . S
C268 H266 0.980 . S
C268 H267 0.979 . S
C269 N271 1.356 . S
C269 C273 1.402 . S
C269 C277 1.481 . S
C270 N272 1.325 . S
C270 C273 1.400 . S
C270 C278 1.503 1_455 S
N271 C269 1.356 . S
N271 N272 1.365 . S
N271 Cu405 1.941 . S
N272 C270 1.325 . S
N272 N271 1.365 . S
N272 Cu396 1.924 . S
C273 C269 1.402 . S
C273 C270 1.400 . S
H274 C277 0.980 . S
H275 C277 0.980 . S
H276 C277 0.980 . S
C277 C269 1.481 . S
C277 H274 0.980 . S
C277 H275 0.980 . S
C277 H276 0.980 . S
C278 C270 1.503 1_655 S
C278 H279 0.978 . S
C278 H280 0.978 . S
C278 H281 0.983 . S
H279 C278 0.978 . S
H280 C278 0.978 . S
H281 C278 0.983 . S
C282 H414 0.979 . S
C282 H415 0.981 . S
C282 H416 0.981 . S
C282 O446 1.438 . S
C283 H417 0.980 . S
C283 H418 0.979 . S
C283 H419 0.980 . S
C283 O447 1.533 . S
C284 N285 1.338 . S
C284 C286 1.388 . S
C284 C292 1.503 . S
N285 C284 1.338 . S
N285 N287 1.361 . S
N285 Cu400 1.924 . S
C286 C284 1.388 . S
C286 C288 1.396 . S
N287 N285 1.361 . S
N287 C288 1.348 . S
N287 Cu401 1.964 . S
C288 C286 1.396 . S
C288 N287 1.348 . S
C288 C294 1.504 . S
H289 C292 0.979 . S
H290 C292 0.979 . S
H291 C292 0.979 . S
C292 C284 1.503 . S
C292 H289 0.979 . S
C292 H290 0.979 . S
C292 H291 0.979 . S
H293 C294 0.981 . S
C294 C288 1.504 . S
C294 H293 0.981 . S
C294 H295 0.979 . S
C294 H296 0.980 . S
H295 C294 0.979 . S
H296 C294 0.980 . S
C297 N299 1.356 . S
C297 C301 1.402 . S
C297 C303 1.481 . S
C298 N300 1.325 . S
C298 C301 1.400 . S
C298 C308 1.503 . S
N299 C297 1.356 . S
N299 N300 1.365 . S
N299 Cu407 1.941 . S
N300 C298 1.325 . S
N300 N299 1.365 . S
N300 Cu398 1.924 . S
C301 C297 1.402 . S
C301 C298 1.400 . S
H302 C303 0.980 . S
C303 C297 1.481 . S
C303 H302 0.980 . S
C303 H304 0.980 . S
C303 H305 0.980 . S
H304 C303 0.980 . S
H305 C303 0.980 . S
H306 C308 0.978 . S
H307 C308 0.978 . S
C308 C298 1.503 . S
C308 H306 0.978 . S
C308 H307 0.978 . S
C308 H309 0.983 . S
H309 C308 0.983 . S
C310 H420 0.979 . S
C310 H421 0.981 . S
C310 H422 0.981 . S
C310 O448 1.438 . S
C311 H423 0.980 . S
C311 H424 0.979 . S
C311 H425 0.980 . S
C311 O449 1.533 . S
C312 N313 1.338 . S
C312 C314 1.388 . S
C312 C317 1.503 . S
N313 C312 1.338 . S
N313 N316 1.361 . S
N313 Cu402 1.924 . S
C314 C312 1.388 . S
C314 C315 1.396 . S
C315 C314 1.396 . S
C315 N316 1.348 . S
C315 C321 1.504 . S
N316 N313 1.361 . S
N316 C315 1.348 . S
N316 Cu403 1.964 . S
C317 C312 1.503 . S
C317 H318 0.979 . S
C317 H319 0.979 . S
C317 H320 0.979 . S
H318 C317 0.979 . S
H319 C317 0.979 . S
H320 C317 0.979 . S
C321 C315 1.504 . S
C321 H322 0.981 . S
C321 H323 0.980 . S
C321 H324 0.979 . S
H322 C321 0.981 . S
H323 C321 0.980 . S
H324 C321 0.979 . S
C325 C326 1.402 . S
C325 N328 1.356 . S
C325 C333 1.481 . S
C326 C325 1.402 . S
C326 C327 1.400 . S
C327 C326 1.400 . S
C327 N329 1.325 . S
C327 C334 1.503 . S
N328 C325 1.356 . S
N328 N329 1.365 . S
N328 Cu397 1.941 . S
N329 C327 1.325 . S
N329 N328 1.365 . S
N329 Cu406 1.924 . S
H330 C333 0.980 1_655 S
H331 C333 0.980 1_655 S
H332 C333 0.980 . S
C333 C325 1.481 . S
C333 H330 0.980 1_455 S
C333 H331 0.980 1_455 S
C333 H332 0.980 . S
C334 C327 1.503 . S
C334 H335 0.978 . S
C334 H336 0.978 . S
C334 H337 0.983 . S
H335 C334 0.978 . S
H336 C334 0.978 . S
H337 C334 0.983 . S
C338 H426 0.979 . S
C338 H427 0.981 . S
C338 H428 0.981 . S
C338 O450 1.438 . S
C339 H429 0.980 . S
C339 H430 0.979 . S
C339 H431 0.980 . S
C339 O451 1.533 . S
C340 C341 1.388 . S
C340 N343 1.338 . S
C340 C345 1.503 . S
C341 C340 1.388 . S
C341 C342 1.396 . S
C342 C341 1.396 . S
C342 N344 1.348 . S
C342 C349 1.504 . S
N343 C340 1.338 . S
N343 N344 1.361 . S
N343 Cu404 1.924 . S
N344 C342 1.348 . S
N344 N343 1.361 . S
N344 Cu405 1.964 . S
C345 C340 1.503 . S
C345 H346 0.979 . S
C345 H347 0.979 . S
C345 H348 0.979 . S
H346 C345 0.979 . S
H347 C345 0.979 . S
H348 C345 0.979 . S
C349 C342 1.504 . S
C349 H350 0.981 . S
C349 H351 0.980 . S
C349 H352 0.979 . S
H350 C349 0.981 . S
H351 C349 0.980 . S
H352 C349 0.979 . S
C353 C354 1.402 . S
C353 N356 1.356 . S
C353 C358 1.481 . S
C354 C353 1.402 . S
C354 C355 1.400 . S
C355 C354 1.400 . S
C355 N357 1.325 . S
C355 C362 1.503 . S
N356 C353 1.356 . S
N356 N357 1.365 . S
N356 Cu399 1.941 . S
N357 C355 1.325 . S
N357 N356 1.365 . S
N357 Cu402 1.924 . S
C358 C353 1.481 . S
C358 H359 0.980 . S
C358 H360 0.980 . S
C358 H361 0.980 . S
H359 C358 0.980 . S
H360 C358 0.980 . S
H361 C358 0.980 . S
C362 C355 1.503 . S
C362 H363 0.978 . S
C362 H364 0.978 . S
C362 H365 0.983 . S
H363 C362 0.978 . S
H364 C362 0.978 . S
H365 C362 0.983 . S
C366 H432 0.979 . S
C366 H433 0.981 . S
C366 H434 0.981 . S
C366 O452 1.438 . S
C367 H435 0.980 . S
C367 H436 0.979 . S
C367 H437 0.980 . S
C367 O453 1.533 . S
C368 N369 1.338 . S
C368 C371 1.388 . S
C368 C376 1.503 . S
N369 C368 1.338 . S
N369 N370 1.361 . S
N369 Cu406 1.924 . S
N370 N369 1.361 . S
N370 C372 1.348 . S
N370 Cu407 1.964 . S
C371 C368 1.388 . S
C371 C372 1.396 . S
C372 N370 1.348 . S
C372 C371 1.396 . S
C372 C380 1.504 . S
H373 C376 0.979 . S
H374 C376 0.979 . S
H375 C376 0.979 . S
C376 C368 1.503 . S
C376 H373 0.979 . S
C376 H374 0.979 . S
C376 H375 0.979 . S
H377 C380 0.981 . S
H378 C380 0.980 . S
H379 C380 0.979 . S
C380 C372 1.504 . S
C380 H377 0.981 . S
C380 H378 0.980 . S
C380 H379 0.979 . S
C381 N382 1.356 . S
C381 C384 1.402 . S
C381 C386 1.481 . S
N382 C381 1.356 . S
N382 N383 1.365 . S
N382 Cu401 1.941 . S
N383 N382 1.365 . S
N383 C385 1.325 . S
N383 Cu404 1.924 . S
C384 C381 1.402 . S
C384 C385 1.400 . S
C385 N383 1.325 . S
C385 C384 1.400 . S
C385 C390 1.503 . S
C386 C381 1.481 . S
C386 H387 0.980 . S
C386 H388 0.980 . S
C386 H389 0.980 . S
H387 C386 0.980 . S
H388 C386 0.980 . S
H389 C386 0.980 . S
C390 C385 1.503 . S
C390 H391 0.978 . S
C390 H392 0.978 . S
C390 H393 0.983 . S
H391 C390 0.978 . S
H392 C390 0.978 . S
H393 C390 0.983 . S
C394 H438 0.979 . S
C394 H439 0.981 . S
C394 H440 0.981 . S
C394 O454 1.438 . S
C395 H441 0.980 . S
C395 H442 0.979 . S
C395 H443 0.980 . S
C395 O455 1.533 . S
Cu396 N231 1.924 . S
Cu396 N272 1.924 . S
Cu396 O444 1.923 . S
Cu396 O445 1.930 . S
Cu397 N232 1.964 . S
Cu397 N328 1.941 . S
Cu397 O444 1.905 . S
Cu397 O455 1.920 . S
Cu398 N257 1.924 . S
Cu398 N300 1.924 . S
Cu398 O446 1.923 . S
Cu398 O447 1.930 . S
Cu399 N258 1.964 . S
Cu399 N356 1.941 . S
Cu399 O446 1.905 . S
Cu399 O451 1.920 . S
Cu400 N245 1.924 . S
Cu400 N285 1.924 . S
Cu400 O448 1.923 . S
Cu400 O449 1.930 . S
Cu401 N287 1.964 . S
Cu401 N382 1.941 . S
Cu401 O448 1.905 . S
Cu401 O453 1.920 . S
Cu402 N313 1.924 . S
Cu402 N357 1.924 . S
Cu402 O450 1.923 . S
Cu402 O451 1.930 . S
Cu403 N244 1.941 . S
Cu403 N316 1.964 . S
Cu403 O449 1.920 . S
Cu403 O450 1.905 . S
Cu404 N343 1.924 . S
Cu404 N383 1.924 . S
Cu404 O452 1.923 . S
Cu404 O453 1.930 . S
Cu405 N271 1.941 . S
Cu405 N344 1.964 . S
Cu405 O445 1.920 . S
Cu405 O452 1.905 . S
Cu406 N329 1.924 . S
Cu406 N369 1.924 . S
Cu406 O454 1.923 . S
Cu406 O455 1.930 . S
Cu407 N299 1.941 . S
Cu407 N370 1.964 . S
Cu407 O447 1.920 . S
Cu407 O454 1.905 . S
H408 C254 0.979 . S
H409 C254 0.981 . S
H410 C254 0.981 . S
H411 C255 0.980 . S
H412 C255 0.979 . S
H413 C255 0.980 . S
H414 C282 0.979 . S
H415 C282 0.981 . S
H416 C282 0.981 . S
H417 C283 0.980 . S
H418 C283 0.979 . S
H419 C283 0.980 . S
H420 C310 0.979 . S
H421 C310 0.981 . S
H422 C310 0.981 . S
H423 C311 0.980 . S
H424 C311 0.979 . S
H425 C311 0.980 . S
H426 C338 0.979 . S
H427 C338 0.981 . S
H428 C338 0.981 . S
H429 C339 0.980 . S
H430 C339 0.979 . S
H431 C339 0.980 . S
H432 C366 0.979 . S
H433 C366 0.981 . S
H434 C366 0.981 . S
H435 C367 0.980 . S
H436 C367 0.979 . S
H437 C367 0.980 . S
H438 C394 0.979 . S
H439 C394 0.981 . S
H440 C394 0.981 . S
H441 C395 0.980 . S
H442 C395 0.979 . S
H443 C395 0.980 . S
O444 C254 1.438 . S
O444 Cu396 1.923 . S
O444 Cu397 1.905 . S
O445 C255 1.533 . S
O445 Cu396 1.930 . S
O445 Cu405 1.920 . S
O446 C282 1.438 . S
O446 Cu398 1.923 . S
O446 Cu399 1.905 . S
O447 C283 1.533 . S
O447 Cu398 1.930 . S
O447 Cu407 1.920 . S
O448 C310 1.438 . S
O448 Cu400 1.923 . S
O448 Cu401 1.905 . S
O449 C311 1.533 . S
O449 Cu400 1.930 . S
O449 Cu403 1.920 . S
O450 C338 1.438 . S
O450 Cu402 1.923 . S
O450 Cu403 1.905 . S
O451 C339 1.533 . S
O451 Cu399 1.920 . S
O451 Cu402 1.930 . S
O452 C366 1.438 . S
O452 Cu404 1.923 . S
O452 Cu405 1.905 . S
O453 C367 1.533 . S
O453 Cu401 1.920 . S
O453 Cu404 1.930 . S
O454 C394 1.438 . S
O454 Cu406 1.923 . S
O454 Cu407 1.905 . S
O455 C395 1.533 . S
O455 Cu397 1.920 . S
O455 Cu406 1.930 . S
H456 C464 0.950 . S
H457 C469 0.950 . S
H458 C466 0.950 . S
H459 C468 0.950 . S
H460 C470 0.950 . S
H461 C472 0.950 . S
H462 C474 0.950 . S
H463 C475 0.950 . S
C464 H456 0.950 . S
C464 C465 1.386 . S
C464 C466 1.391 1_565 S
C465 C464 1.386 . S
C465 C469 1.393 . S
C466 H458 0.950 . S
C466 C464 1.391 1_545 S
C466 C467 1.400 1_545 S
C467 C466 1.400 1_565 S
C467 C468 1.398 . S
C467 C473 1.491 1_566 S
C468 H459 0.950 . S
C468 C467 1.398 . S
C468 C469 1.391 . S
C469 H457 0.950 . S
C469 C465 1.393 . S
C469 C468 1.391 . S
C470 H460 0.950 . S
C470 C471 1.386 . S
C470 C472 1.391 1_545 S
C471 C470 1.386 . S
C471 C475 1.393 . S
C472 H461 0.950 . S
C472 C470 1.391 1_565 S
C472 C473 1.400 1_565 S
C473 C467 1.491 1_544 S
C473 C472 1.400 1_545 S
C473 C474 1.398 . S
C474 H462 0.950 . S
C474 C473 1.398 . S
C474 C475 1.391 . S
C475 H463 0.950 . S
C475 C471 1.393 . S
C475 C474 1.391 . S
H476 C484 0.950 . S
H477 C489 0.950 . S
H478 C486 0.950 . S
H479 C488 0.950 . S
H480 C490 0.950 . S
H481 C492 0.950 . S
H482 C494 0.950 . S
H483 C495 0.950 . S
C484 H476 0.950 . S
C484 C485 1.386 . S
C484 C486 1.391 . S
C485 C484 1.386 . S
C485 C489 1.393 . S
C486 H478 0.950 . S
C486 C484 1.391 . S
C486 C487 1.400 . S
C487 C486 1.400 . S
C487 C488 1.398 . S
C487 C493 1.491 . S
C488 H479 0.950 . S
C488 C487 1.398 . S
C488 C489 1.391 . S
C489 H477 0.950 . S
C489 C485 1.393 . S
C489 C488 1.391 . S
C490 H480 0.950 . S
C490 C491 1.386 . S
C490 C492 1.391 . S
C491 C490 1.386 . S
C491 C495 1.393 . S
C492 H481 0.950 . S
C492 C490 1.391 . S
C492 C493 1.400 . S
C493 C487 1.491 . S
C493 C492 1.400 . S
C493 C494 1.398 . S
C494 H482 0.950 . S
C494 C493 1.398 . S
C494 C495 1.391 . S
C495 H483 0.950 . S
C495 C491 1.393 . S
C495 C494 1.391 . S
H496 C504 0.950 . S
H497 C509 0.950 . S
H498 C506 0.950 1_455 S
H499 C508 0.950 1_556 S
H500 C510 0.950 . S
H501 C512 0.950 1_655 S
H502 C514 0.950 1_554 S
H503 C515 0.950 . S
C504 H496 0.950 . S
C504 C505 1.386 . S
C504 C506 1.391 . S
C505 C504 1.386 . S
C505 C509 1.393 . S
C506 H498 0.950 1_655 S
C506 C504 1.391 . S
C506 C507 1.400 . S
C507 C506 1.400 . S
C507 C508 1.398 . S
C507 C513 1.491 1_654 S
C508 H499 0.950 1_554 S
C508 C507 1.398 . S
C508 C509 1.391 . S
C509 H497 0.950 . S
C509 C505 1.393 . S
C509 C508 1.391 . S
C510 H500 0.950 . S
C510 C511 1.386 . S
C510 C512 1.391 . S
C511 C510 1.386 . S
C511 C515 1.393 . S
C512 H501 0.950 1_455 S
C512 C510 1.391 . S
C512 C513 1.400 . S
C513 C507 1.491 1_456 S
C513 C512 1.400 . S
C513 C514 1.398 . S
C514 H502 0.950 1_556 S
C514 C513 1.398 . S
C514 C515 1.391 . S
C515 H503 0.950 . S
C515 C511 1.393 . S
C515 C514 1.391 . S
H516 C524 0.950 . S
H517 C529 0.950 . S
H518 C526 0.950 . S
H519 C528 0.950 . S
H520 C530 0.950 . S
H521 C532 0.950 . S
H522 C534 0.950 . S
H523 C535 0.950 . S
C524 H516 0.950 . S
C524 C525 1.386 . S
C524 C526 1.391 . S
C525 C524 1.386 . S
C525 C529 1.393 1_565 S
C526 H518 0.950 . S
C526 C524 1.391 . S
C526 C527 1.400 . S
C527 C526 1.400 . S
C527 C528 1.398 1_565 S
C527 C533 1.491 1_565 S
C528 H519 0.950 . S
C528 C527 1.398 1_545 S
C528 C529 1.391 . S
C529 H517 0.950 . S
C529 C525 1.393 1_545 S
C529 C528 1.391 . S
C530 H520 0.950 . S
C530 C531 1.386 . S
C530 C532 1.391 . S
C531 C530 1.386 . S
C531 C535 1.393 1_545 S
C532 H521 0.950 . S
C532 C530 1.391 . S
C532 C533 1.400 . S
C533 C527 1.491 1_545 S
C533 C532 1.400 . S
C533 C534 1.398 1_545 S
C534 H522 0.950 . S
C534 C533 1.398 1_565 S
C534 C535 1.391 . S
C535 H523 0.950 . S
C535 C531 1.393 1_565 S
C535 C534 1.391 . S
H536 C544 0.950 . S
H537 C549 0.950 . S
H538 C546 0.950 . S
H539 C548 0.959 . S
H540 C550 0.950 . S
H541 C552 0.950 . S
H542 C554 0.959 . S
H543 C555 0.950 . S
C544 H536 0.950 . S
C544 C545 1.386 . S
C544 C546 1.391 . S
C545 C544 1.386 . S
C545 C549 1.393 . S
C546 H538 0.950 . S
C546 C544 1.391 . S
C546 C547 1.400 . S
C547 C546 1.400 . S
C547 C548 1.396 1_554 S
C547 C553 1.491 1_554 S
C548 H539 0.959 . S
C548 C547 1.396 1_556 S
C548 C549 1.384 1_556 S
C549 H537 0.950 . S
C549 C545 1.393 . S
C549 C548 1.384 1_554 S
C550 H540 0.950 . S
C550 C551 1.386 . S
C550 C552 1.391 . S
C551 C550 1.386 . S
C551 C555 1.393 . S
C552 H541 0.950 . S
C552 C550 1.391 . S
C552 C553 1.400 . S
C553 C547 1.491 1_556 S
C553 C552 1.400 . S
C553 C554 1.396 1_556 S
C554 H542 0.959 . S
C554 C553 1.396 1_554 S
C554 C555 1.384 1_554 S
C555 H543 0.950 . S
C555 C551 1.393 . S
C555 C554 1.384 1_556 S
H556 C564 0.950 . S
H557 C569 0.950 . S
H558 C566 0.950 . S
H559 C568 0.950 1_455 S
H560 C570 0.950 . S
H561 C572 0.950 . S
H562 C574 0.950 1_655 S
H563 C575 0.950 . S
C564 H556 0.950 . S
C564 C565 1.386 . S
C564 C566 1.391 . S
C565 C564 1.386 . S
C565 C569 1.393 . S
C566 H558 0.950 . S
C566 C564 1.391 . S
C566 C567 1.400 . S
C567 C566 1.400 . S
C567 C568 1.398 . S
C567 C573 1.491 1_655 S
C568 H559 0.950 1_655 S
C568 C567 1.398 . S
C568 C569 1.391 . S
C569 H557 0.950 . S
C569 C565 1.393 . S
C569 C568 1.391 . S
C570 H560 0.950 . S
C570 C571 1.386 . S
C570 C572 1.391 . S
C571 C570 1.386 . S
C571 C575 1.393 . S
C572 H561 0.950 . S
C572 C570 1.391 . S
C572 C573 1.400 . S
C573 C567 1.491 1_455 S
C573 C572 1.400 . S
C573 C574 1.398 . S
C574 H562 0.950 1_455 S
C574 C573 1.398 . S
C574 C575 1.391 . S
C575 H563 0.950 . S
C575 C571 1.393 . S
C575 C574 1.391 . S
H576 C584 0.950 1_545 S
H577 C589 0.950 . S
H578 C586 0.950 . S
H579 C588 0.950 . S
H580 C590 0.950 . S
H581 C592 0.950 . S
H582 C594 0.950 . S
H583 C595 0.950 . S
C584 H576 0.950 1_565 S
C584 C585 1.386 1_565 S
C584 C586 1.391 . S
C585 C584 1.386 1_545 S
C585 C589 1.393 1_545 S
C586 H578 0.950 . S
C586 C584 1.391 . S
C586 C587 1.400 . S
C587 C586 1.400 . S
C587 C588 1.398 . S
C587 C593 1.491 . S
C588 H579 0.950 . S
C588 C587 1.398 . S
C588 C589 1.391 . S
C589 H577 0.950 . S
C589 C585 1.393 1_565 S
C589 C588 1.391 . S
C590 H580 0.950 . S
C590 C591 1.386 . S
C590 C592 1.391 . S
C591 C590 1.386 . S
C591 C595 1.393 . S
C592 H581 0.950 . S
C592 C590 1.391 . S
C592 C593 1.400 . S
C593 C587 1.491 . S
C593 C592 1.400 . S
C593 C594 1.398 . S
C594 H582 0.950 . S
C594 C593 1.398 . S
C594 C595 1.391 . S
C595 H583 0.950 . S
C595 C591 1.393 . S
C595 C594 1.391 . S
H596 C604 0.950 . S
H597 C609 0.950 1_455 S
H598 C606 0.950 . S
H599 C608 0.950 . S
H600 C610 0.950 . S
H601 C612 0.950 . S
H602 C614 0.950 . S
H603 C615 0.950 . S
C604 H596 0.950 . S
C604 C605 1.386 . S
C604 C606 1.391 . S
C605 C604 1.386 . S
C605 C609 1.393 . S
C606 H598 0.950 . S
C606 C604 1.391 . S
C606 C607 1.400 . S
C607 C606 1.400 . S
C607 C608 1.398 . S
C607 C613 1.491 . S
C608 H599 0.950 . S
C608 C607 1.398 . S
C608 C609 1.391 . S
C609 H597 0.950 1_655 S
C609 C605 1.393 . S
C609 C608 1.391 . S
C610 H600 0.950 . S
C610 C611 1.386 . S
C610 C612 1.391 . S
C611 C610 1.386 . S
C611 C615 1.393 . S
C612 H601 0.950 . S
C612 C610 1.391 . S
C612 C613 1.400 . S
C613 C607 1.491 . S
C613 C612 1.400 . S
C613 C614 1.398 . S
C614 H602 0.950 . S
C614 C613 1.398 . S
C614 C615 1.391 . S
C615 H603 0.950 . S
C615 C611 1.393 . S
C615 C614 1.391 . S
H616 C624 0.950 1_545 S
H617 C629 0.950 . S
H618 C626 0.950 . S
H619 C628 0.950 . S
H620 C630 0.950 . S
H621 C632 0.950 . S
H622 C634 0.950 . S
H623 C635 0.950 1_655 S
C624 H616 0.950 1_565 S
C624 C625 1.386 . S
C624 C626 1.391 . S
C625 C624 1.386 . S
C625 C629 1.393 . S
C626 H618 0.950 . S
C626 C624 1.391 . S
C626 C627 1.400 . S
C627 C626 1.400 . S
C627 C628 1.398 . S
C627 C633 1.491 . S
C628 H619 0.950 . S
C628 C627 1.398 . S
C628 C629 1.391 . S
C629 H617 0.950 . S
C629 C625 1.393 . S
C629 C628 1.391 . S
C630 H620 0.950 . S
C630 C631 1.386 . S
C630 C632 1.391 . S
C631 C630 1.386 . S
C631 C635 1.393 . S
C632 H621 0.950 . S
C632 C630 1.391 . S
C632 C633 1.400 . S
C633 C627 1.491 . S
C633 C632 1.400 . S
C633 C634 1.398 . S
C634 H622 0.950 . S
C634 C633 1.398 . S
C634 C635 1.391 . S
C635 H623 0.950 1_455 S
C635 C631 1.393 . S
C635 C634 1.391 . S
H636 C644 0.950 . S
H637 C649 0.950 . S
H638 C646 0.950 . S
H639 C648 0.950 . S
H640 C650 0.950 1_565 S
H641 C652 0.950 . S
H642 C654 0.950 . S
H643 C655 0.950 . S
C644 H636 0.950 . S
C644 C645 1.386 . S
C644 C646 1.391 . S
C645 C644 1.386 . S
C645 C649 1.393 . S
C646 H638 0.950 . S
C646 C644 1.391 . S
C646 C647 1.400 . S
C647 C646 1.400 . S
C647 C648 1.398 . S
C647 C653 1.491 . S
C648 H639 0.950 . S
C648 C647 1.398 . S
C648 C649 1.391 . S
C649 H637 0.950 . S
C649 C645 1.393 . S
C649 C648 1.391 . S
C650 H640 0.950 1_545 S
C650 C651 1.386 1_545 S
C650 C652 1.391 . S
C651 C650 1.386 1_565 S
C651 C655 1.393 1_565 S
C652 H641 0.950 . S
C652 C650 1.391 . S
C652 C653 1.400 . S
C653 C647 1.491 . S
C653 C652 1.400 . S
C653 C654 1.398 . S
C654 H642 0.950 . S
C654 C653 1.398 . S
C654 C655 1.391 . S
C655 H643 0.950 . S
C655 C651 1.393 1_545 S
C655 C654 1.391 . S
H656 C664 0.950 . S
H657 C669 0.950 . S
H658 C666 0.950 . S
H659 C668 0.950 . S
H660 C670 0.950 . S
H661 C672 0.950 . S
H662 C674 0.950 . S
H663 C675 0.950 . S
C664 H656 0.950 . S
C664 C665 1.386 . S
C664 C666 1.391 . S
C665 C664 1.386 . S
C665 C669 1.393 . S
C666 H658 0.950 . S
C666 C664 1.391 . S
C666 C667 1.400 . S
C667 C666 1.400 . S
C667 C668 1.398 . S
C667 C673 1.491 . S
C668 H659 0.950 . S
C668 C667 1.398 . S
C668 C669 1.391 . S
C669 H657 0.950 . S
C669 C665 1.393 . S
C669 C668 1.391 . S
C670 H660 0.950 . S
C670 C671 1.386 . S
C670 C672 1.391 . S
C671 C670 1.386 . S
C671 C675 1.393 . S
C672 H661 0.950 . S
C672 C670 1.391 . S
C672 C673 1.400 . S
C673 C667 1.491 . S
C673 C672 1.400 . S
C673 C674 1.398 . S
C674 H662 0.950 . S
C674 C673 1.398 . S
C674 C675 1.391 . S
C675 H663 0.950 . S
C675 C671 1.393 . S
C675 C674 1.391 . S
H676 C684 0.950 1_455 S
H677 C689 0.950 . S
H678 C686 0.950 . S
H679 C688 0.950 . S
H680 C690 0.950 . S
H681 C692 0.950 . S
H682 C694 0.950 . S
H683 C695 0.950 . S
C684 H676 0.950 1_655 S
C684 C685 1.386 . S
C684 C686 1.391 . S
C685 C684 1.386 . S
C685 C689 1.393 . S
C686 H678 0.950 . S
C686 C684 1.391 . S
C686 C687 1.400 . S
C687 C686 1.400 . S
C687 C688 1.398 . S
C687 C693 1.491 . S
C688 H679 0.950 . S
C688 C687 1.398 . S
C688 C689 1.391 . S
C689 H677 0.950 . S
C689 C685 1.393 . S
C689 C688 1.391 . S
C690 H680 0.950 . S
C690 C691 1.386 . S
C690 C692 1.391 . S
C691 C690 1.386 . S
C691 C695 1.393 . S
C692 H681 0.950 . S
C692 C690 1.391 . S
C692 C693 1.400 . S
C693 C687 1.491 . S
C693 C692 1.400 . S
C693 C694 1.398 . S
C694 H682 0.950 . S
C694 C693 1.398 . S
C694 C695 1.391 . S
C695 H683 0.950 . S
C695 C691 1.393 . S
C695 C694 1.391 . S
C465 C371 1.728 . S
C471 C58 1.728 . S
C485 C286 3.758 . S
C491 C143 3.758 . S
C505 C15 1.716 . S
C511 C326 1.716 . S
C525 C243 3.181 . S
C531 C98 3.181 . S
C545 C156 1.733 . S
C551 C301 1.733 . S
C565 C73 1.004 . S
C571 C384 1.004 . S
C585 C31 1.419 . S
C591 C113 1.419 . S
C605 C273 0.840 1_655 S
C611 C354 0.840 . S
C625 C1 1.509 1_565 S
C631 C86 1.509 1_455 S
C645 C259 1.400 . S
C651 C341 1.400 . S
C665 C45 0.789 . S
C671 C126 0.789 1_455 S
C685 C229 1.466 1_655 S
C691 C314 1.466 1_545 S
