# Generated by pormake.
# Topology ukb, (4)-cn, num edge types: 1
# Building blocks:
#     Node 0, Type 0, BuildingBlock: UXUYUI_clean_sbu_0, # of connection points: 4
#     Node 1, Type 0, BuildingBlock: UXUYUI_clean_sbu_0, # of connection points: 4
#     Node 2, Type 0, BuildingBlock: UXUYUI_clean_sbu_0, # of connection points: 4
#     Node 3, Type 0, BuildingBlock: UXUYUI_clean_sbu_0, # of connection points: 4
#     Node 4, Type 0, BuildingBlock: UXUYUI_clean_sbu_0, # of connection points: 4
#     Node 5, Type 0, BuildingBlock: UXUYUI_clean_sbu_0, # of connection points: 4
#     Node 6, Type 0, BuildingBlock: UXUYUI_clean_sbu_0, # of connection points: 4
#     Node 7, Type 0, BuildingBlock: UXUYUI_clean_sbu_0, # of connection points: 4
#     Node 8, Type 0, BuildingBlock: UXUYUI_clean_sbu_0, # of connection points: 4
#     Node 9, Type 0, BuildingBlock: UXUYUI_clean_sbu_0, # of connection points: 4
#     Node 10, Type 0, BuildingBlock: UXUYUI_clean_sbu_0, # of connection points: 4
#     Node 11, Type 0, BuildingBlock: UXUYUI_clean_sbu_0, # of connection points: 4
#     Node 12, Type 0, BuildingBlock: UXUYUI_clean_sbu_0, # of connection points: 4
#     Node 13, Type 0, BuildingBlock: UXUYUI_clean_sbu_0, # of connection points: 4
#     Node 14, Type 0, BuildingBlock: UXUYUI_clean_sbu_0, # of connection points: 4
#     Node 15, Type 0, BuildingBlock: UXUYUI_clean_sbu_0, # of connection points: 4
#     Edge 16, Type (0, 0), BuildingBlock: XUDNAN_clean_linker_2, # of connection points: 2
#     Edge 17, Type (0, 0), BuildingBlock: XUDNAN_clean_linker_2, # of connection points: 2
#     Edge 18, Type (0, 0), BuildingBlock: XUDNAN_clean_linker_2, # of connection points: 2
#     Edge 19, Type (0, 0), BuildingBlock: XUDNAN_clean_linker_2, # of connection points: 2
#     Edge 20, Type (0, 0), BuildingBlock: XUDNAN_clean_linker_2, # of connection points: 2
#     Edge 21, Type (0, 0), BuildingBlock: XUDNAN_clean_linker_2, # of connection points: 2
#     Edge 22, Type (0, 0), BuildingBlock: XUDNAN_clean_linker_2, # of connection points: 2
#     Edge 23, Type (0, 0), BuildingBlock: XUDNAN_clean_linker_2, # of connection points: 2
#     Edge 24, Type (0, 0), BuildingBlock: XUDNAN_clean_linker_2, # of connection points: 2
#     Edge 25, Type (0, 0), BuildingBlock: XUDNAN_clean_linker_2, # of connection points: 2
#     Edge 26, Type (0, 0), BuildingBlock: XUDNAN_clean_linker_2, # of connection points: 2
#     Edge 27, Type (0, 0), BuildingBlock: XUDNAN_clean_linker_2, # of connection points: 2
#     Edge 28, Type (0, 0), BuildingBlock: XUDNAN_clean_linker_2, # of connection points: 2
#     Edge 29, Type (0, 0), BuildingBlock: XUDNAN_clean_linker_2, # of connection points: 2
#     Edge 30, Type (0, 0), BuildingBlock: XUDNAN_clean_linker_2, # of connection points: 2
#     Edge 31, Type (0, 0), BuildingBlock: XUDNAN_clean_linker_2, # of connection points: 2
#     Edge 32, Type (0, 0), BuildingBlock: XUDNAN_clean_linker_2, # of connection points: 2
#     Edge 33, Type (0, 0), BuildingBlock: XUDNAN_clean_linker_2, # of connection points: 2
#     Edge 34, Type (0, 0), BuildingBlock: XUDNAN_clean_linker_2, # of connection points: 2
#     Edge 35, Type (0, 0), BuildingBlock: XUDNAN_clean_linker_2, # of connection points: 2
#     Edge 36, Type (0, 0), BuildingBlock: XUDNAN_clean_linker_2, # of connection points: 2
#     Edge 37, Type (0, 0), BuildingBlock: XUDNAN_clean_linker_2, # of connection points: 2
#     Edge 38, Type (0, 0), BuildingBlock: XUDNAN_clean_linker_2, # of connection points: 2
#     Edge 39, Type (0, 0), BuildingBlock: XUDNAN_clean_linker_2, # of connection points: 2
#     Edge 40, Type (0, 0), BuildingBlock: XUDNAN_clean_linker_2, # of connection points: 2
#     Edge 41, Type (0, 0), BuildingBlock: XUDNAN_clean_linker_2, # of connection points: 2
#     Edge 42, Type (0, 0), BuildingBlock: XUDNAN_clean_linker_2, # of connection points: 2
#     Edge 43, Type (0, 0), BuildingBlock: XUDNAN_clean_linker_2, # of connection points: 2
#     Edge 44, Type (0, 0), BuildingBlock: XUDNAN_clean_linker_2, # of connection points: 2
#     Edge 45, Type (0, 0), BuildingBlock: XUDNAN_clean_linker_2, # of connection points: 2
#     Edge 46, Type (0, 0), BuildingBlock: XUDNAN_clean_linker_2, # of connection points: 2
#     Edge 47, Type (0, 0), BuildingBlock: XUDNAN_clean_linker_2, # of connection points: 2
# Relax obj value: 0.234
# Max RMSD: 0.198
# Mean RMSD: 0.198
data_MOF--net-ukb--node1-UXUYUI_clean_sbu_0--edge1-XUDNAN_clean_linker_2
_symmetry_space_group_name_H-M    P1
_symmetry_Int_Tables_number       1
_symmetry_cell_setting            triclinic
loop_
_symmetry_equiv_pos_as_xyz
'x, y, z'
_cell_length_a     60.934331
_cell_length_b     60.94088
_cell_length_c     58.462755
_cell_angle_alpha  89.997579
_cell_angle_beta   90.011149
_cell_angle_gamma 90.001655
loop_
_atom_site_label
_atom_site_type_symbol
_atom_site_fract_x
_atom_site_fract_y
_atom_site_fract_z
_atom_type_partial_charge
Li0 Li 0.51325 0.2219 0.16071 0.0
Li1 Li 0.52071 0.23718 0.19897 0.0
Li2 Li 0.52951 0.19842 0.18877 0.0
Li3 Li 0.49156 0.20915 0.19413 0.0
C4 C 0.55508 0.23476 0.15967 0.0
N5 N 0.58035 0.25329 0.12549 0.0
C6 C 0.55908 0.25735 0.15954 0.0
C7 C 0.56423 0.22156 0.14261 0.0
C8 C 0.57183 0.26641 0.14207 0.0
C9 C 0.57687 0.23124 0.12541 0.0
C10 C 0.47439 0.24897 0.1743 0.0
C11 C 0.44515 0.27498 0.18053 0.0
N12 N 0.43556 0.26844 0.16066 0.0
C13 C 0.46418 0.24243 0.15398 0.0
C14 C 0.46478 0.26536 0.18771 0.0
C15 C 0.4446 0.25252 0.14736 0.0
C16 C 0.5076 0.21575 0.1125 0.0
N17 N 0.51192 0.2305 0.12935 0.0
C18 C 0.51245 0.2599 0.10235 0.0
C19 C 0.51424 0.25221 0.12473 0.0
C20 C 0.50767 0.24518 0.0845 0.0
C21 C 0.50536 0.22278 0.08984 0.0
H22 H 0.50535 0.19863 0.1167 0.0
H23 H 0.51723 0.26363 0.13855 0.0
C24 C 0.54633 0.26254 0.22998 0.0
N25 N 0.53013 0.2631 0.214 0.0
C26 C 0.55575 0.28209 0.23782 0.0
C27 C 0.53091 0.30225 0.21335 0.0
C28 C 0.52205 0.28239 0.20597 0.0
C29 C 0.54845 0.30226 0.22894 0.0
H30 H 0.55265 0.24691 0.23577 0.0
H31 H 0.50957 0.28233 0.19285 0.0
C32 C 0.50756 0.17041 0.16253 0.0
N33 N 0.51563 0.12709 0.15133 0.0
C34 C 0.49445 0.15373 0.17161 0.0
C35 C 0.52451 0.16508 0.14743 0.0
C36 C 0.49885 0.13192 0.16582 0.0
C37 C 0.52841 0.14309 0.14207 0.0
C38 C 0.50774 0.21395 0.23862 0.0
C39 C 0.51359 0.20029 0.25681 0.0
C40 C 0.49357 0.2316 0.24237 0.0
C41 C 0.50516 0.20457 0.27858 0.0
C42 C 0.48551 0.23535 0.2644 0.0
N43 N 0.49142 0.22187 0.28189 0.0
C44 C 0.57145 0.17835 0.19049 0.0
C45 C 0.54229 0.15676 0.20514 0.0
C46 C 0.58665 0.16214 0.19634 0.0
N47 N 0.54976 0.17538 0.19497 0.0
C48 C 0.55687 0.13997 0.21092 0.0
C49 C 0.57939 0.14267 0.20672 0.0
H50 H 0.577 0.19349 0.18279 0.0
H51 H 0.52504 0.1551 0.20909 0.0
C52 C 0.4443 0.20602 0.1983 0.0
N53 N 0.46407 0.1983 0.20552 0.0
C54 C 0.4249 0.1957 0.20504 0.0
C55 C 0.44638 0.17009 0.22722 0.0
C56 C 0.46536 0.18097 0.22012 0.0
C57 C 0.4258 0.17714 0.21925 0.0
H58 H 0.44341 0.21974 0.1868 0.0
H59 H 0.48127 0.17494 0.22541 0.0
O60 O 0.54234 0.22562 0.17644 0.0
O61 O 0.49378 0.2396 0.18095 0.0
O62 O 0.5037 0.19185 0.16826 0.0
O63 O 0.5156 0.20972 0.21718 0.0
H64 H 0.55229 0.26782 0.17264 0.0
H65 H 0.56162 0.20403 0.14262 0.0
H66 H 0.57491 0.28389 0.14168 0.0
H67 H 0.58393 0.22122 0.11203 0.0
H68 H 0.43754 0.28767 0.19076 0.0
H69 H 0.47104 0.22944 0.14364 0.0
H70 H 0.47234 0.27056 0.20355 0.0
H71 H 0.43651 0.24759 0.13171 0.0
H72 H 0.51476 0.27724 0.09914 0.0
H73 H 0.50129 0.21084 0.07679 0.0
H74 H 0.56938 0.28135 0.24968 0.0
H75 H 0.52463 0.31741 0.20624 0.0
H76 H 0.48105 0.15753 0.18302 0.0
H77 H 0.53459 0.17778 0.13999 0.0
H78 H 0.48893 0.11884 0.17285 0.0
H79 H 0.54159 0.13874 0.13054 0.0
H80 H 0.52446 0.18648 0.2541 0.0
H81 H 0.48879 0.24222 0.22843 0.0
H82 H 0.50953 0.19413 0.29284 0.0
H83 H 0.47452 0.24896 0.26757 0.0
H84 H 0.6039 0.16479 0.19283 0.0
H85 H 0.55069 0.12532 0.21922 0.0
H86 H 0.40938 0.20192 0.19875 0.0
H87 H 0.44793 0.15568 0.23795 0.0
Li88 Li 0.30166 0.52971 0.69125 0.0
Li89 Li 0.29087 0.49145 0.69681 0.0
Li90 Li 0.28235 0.5106 0.6595 0.0
Li91 Li 0.26209 0.51869 0.69459 0.0
C92 C 0.33173 0.50529 0.66345 0.0
N93 N 0.37254 0.50823 0.643 0.0
C94 C 0.34986 0.49485 0.67327 0.0
C95 C 0.3343 0.51686 0.64299 0.0
C96 C 0.37037 0.49663 0.66275 0.0
C97 C 0.35507 0.51826 0.63298 0.0
C98 C 0.29113 0.50945 0.73896 0.0
C99 C 0.28263 0.48855 0.77285 0.0
N100 N 0.3024 0.49421 0.7819 0.0
C101 C 0.31127 0.51525 0.74868 0.0
C102 C 0.27659 0.49617 0.7512 0.0
C103 C 0.3167 0.50731 0.77038 0.0
C104 C 0.31144 0.57017 0.70932 0.0
N105 N 0.32154 0.55215 0.7006 0.0
C106 C 0.35672 0.56629 0.71128 0.0
C107 C 0.34377 0.55003 0.70109 0.0
C108 C 0.3466 0.58467 0.72125 0.0
C109 C 0.32369 0.58671 0.7197 0.0
H110 H 0.29373 0.5713 0.70887 0.0
H111 H 0.35143 0.53541 0.69447 0.0
C112 C 0.28973 0.44556 0.70641 0.0
N113 N 0.30075 0.46464 0.71009 0.0
C114 C 0.29828 0.4257 0.71444 0.0
C115 C 0.32902 0.4456 0.7303 0.0
C116 C 0.31994 0.465 0.72192 0.0
C117 C 0.31836 0.42553 0.72631 0.0
H118 H 0.27462 0.44569 0.69672 0.0
H119 H 0.3286 0.4803 0.72422 0.0
C120 C 0.27721 0.55746 0.65885 0.0
N121 N 0.27981 0.59368 0.6305 0.0
C122 C 0.25826 0.56914 0.65308 0.0
C123 C 0.29753 0.56448 0.65053 0.0
C124 C 0.25989 0.58732 0.63862 0.0
C125 C 0.2985 0.58275 0.63614 0.0
C126 C 0.24254 0.48302 0.67869 0.0
C127 C 0.22916 0.48459 0.65934 0.0
C128 C 0.23407 0.47418 0.69889 0.0
C129 C 0.20736 0.47763 0.66066 0.0
C130 C 0.21218 0.46739 0.69953 0.0
N131 N 0.19938 0.46927 0.68057 0.0
C132 C 0.29 0.49154 0.61588 0.0
C133 C 0.26306 0.51957 0.61663 0.0
C134 C 0.28597 0.48775 0.59266 0.0
N135 N 0.27857 0.50724 0.62731 0.0
C136 C 0.25855 0.5164 0.59346 0.0
C137 C 0.26994 0.50019 0.58118 0.0
H138 H 0.30198 0.48171 0.62489 0.0
H139 H 0.25362 0.53135 0.62627 0.0
C140 C 0.23063 0.53477 0.72668 0.0
N141 N 0.23429 0.52909 0.70452 0.0
C142 C 0.2117 0.54644 0.73264 0.0
C143 C 0.20038 0.5453 0.69302 0.0
C144 C 0.21942 0.53366 0.68787 0.0
C145 C 0.19668 0.55248 0.71551 0.0
H146 H 0.24296 0.53133 0.7395 0.0
H147 H 0.22298 0.52936 0.67032 0.0
O148 O 0.31148 0.5035 0.67343 0.0
O149 O 0.2856 0.51693 0.71767 0.0
O150 O 0.27589 0.5397 0.67314 0.0
O151 O 0.26385 0.49002 0.67782 0.0
H152 H 0.34819 0.48556 0.6889 0.0
H153 H 0.32041 0.52453 0.63474 0.0
H154 H 0.38456 0.48876 0.67026 0.0
H155 H 0.35728 0.52724 0.61719 0.0
H156 H 0.27158 0.47816 0.78246 0.0
H157 H 0.32269 0.52558 0.73951 0.0
H158 H 0.26082 0.4918 0.74408 0.0
H159 H 0.3323 0.51154 0.77804 0.0
H160 H 0.37431 0.564 0.71232 0.0
H161 H 0.31526 0.60075 0.7269 0.0
H162 H 0.28946 0.41061 0.71108 0.0
H163 H 0.34474 0.44626 0.73893 0.0
H164 H 0.24241 0.56419 0.65959 0.0
H165 H 0.31245 0.55614 0.65536 0.0
H166 H 0.24533 0.5964 0.63389 0.0
H167 H 0.31413 0.5883 0.62955 0.0
H168 H 0.23549 0.49125 0.64352 0.0
H169 H 0.24429 0.47257 0.7139 0.0
H170 H 0.19677 0.47888 0.64586 0.0
H171 H 0.20538 0.46062 0.71509 0.0
H172 H 0.29522 0.47517 0.58382 0.0
H173 H 0.24574 0.52603 0.58546 0.0
H174 H 0.20956 0.55188 0.75013 0.0
H175 H 0.18912 0.54947 0.67935 0.0
Li176 Li 0.96892 0.2982 0.18924 0.0
Li177 Li 0.00835 0.28995 0.19401 0.0
Li178 Li 0.98739 0.27513 0.16057 0.0
Li179 Li 0.98128 0.2598 0.19902 0.0
C180 C 0.99121 0.32695 0.16014 0.0
N181 N 0.9862 0.36896 0.14311 0.0
C182 C 0.99922 0.34493 0.1724 0.0
C183 C 0.98065 0.33034 0.13919 0.0
C184 C 0.99651 0.36604 0.16352 0.0
C185 C 0.97829 0.35171 0.13087 0.0
C186 C 0.98761 0.29215 0.23909 0.0
C187 C 0.99709 0.28133 0.27753 0.0
N188 N 0.99291 0.30209 0.28488 0.0
C189 C 0.9832 0.31332 0.24708 0.0
C190 C 0.99442 0.27596 0.25447 0.0
C191 C 0.98607 0.31804 0.27026 0.0
C192 C 0.93574 0.31239 0.21712 0.0
N193 N 0.94644 0.31854 0.19776 0.0
C194 C 0.92719 0.35277 0.19732 0.0
C195 C 0.94204 0.33806 0.18741 0.0
C196 C 0.91696 0.34731 0.21807 0.0
C197 C 0.92101 0.32662 0.2277 0.0
H198 H 0.93933 0.29667 0.22485 0.0
H199 H 0.95034 0.34259 0.17186 0.0
C200 C 0.05488 0.29471 0.19504 0.0
N201 N 0.03562 0.30217 0.20387 0.0
C202 C 0.07473 0.30461 0.20118 0.0
C203 C 0.05454 0.3297 0.22528 0.0
C204 C 0.03517 0.31928 0.21875 0.0
C205 C 0.0747 0.32251 0.21636 0.0
H206 H 0.0548 0.28131 0.18292 0.0
H207 H 0.01969 0.32543 0.22493 0.0
C208 C 0.94277 0.26731 0.16062 0.0
N209 N 0.9105 0.26226 0.12789 0.0
C210 C 0.93343 0.2467 0.1568 0.0
C211 C 0.93558 0.28539 0.148 0.0
C212 C 0.91717 0.24446 0.14011 0.0
C213 C 0.91927 0.28249 0.13148 0.0
C214 C 0.02383 0.24469 0.18832 0.0
C215 C 0.03098 0.22783 0.17393 0.0
C216 C 0.03203 0.24616 0.21058 0.0
C217 C 0.04618 0.21259 0.18216 0.0
C218 C 0.04722 0.23061 0.21816 0.0
N219 N 0.05391 0.21428 0.20392 0.0
C220 C 0.99909 0.27922 0.11342 0.0
C221 C 0.9819 0.2459 0.12417 0.0
C222 C 0.00101 0.27195 0.09083 0.0
N223 N 0.98939 0.26628 0.12945 0.0
C224 C 0.98356 0.23794 0.10187 0.0
C225 C 0.99324 0.25101 0.08484 0.0
H226 H 0.00569 0.29502 0.11825 0.0
H227 H 0.9749 0.23569 0.13741 0.0
C228 C 0.95493 0.23808 0.23008 0.0
N229 N 0.97222 0.23473 0.21583 0.0
C230 C 0.94564 0.22055 0.24196 0.0
C231 C 0.97241 0.19643 0.22466 0.0
C232 C 0.98106 0.21444 0.2129 0.0
C233 C 0.95428 0.19936 0.23918 0.0
H234 H 0.94812 0.25438 0.23186 0.0
H235 H 0.99443 0.21205 0.20106 0.0
O236 O 0.99398 0.30614 0.16842 0.0
O237 O 0.98442 0.28709 0.21652 0.0
O238 O 0.95893 0.26972 0.17663 0.0
O239 O 0.00884 0.25962 0.18054 0.0
H240 H 0.00736 0.34265 0.18864 0.0
H241 H 0.97415 0.31668 0.12954 0.0
H242 H 0.0026 0.38011 0.17285 0.0
H243 H 0.97011 0.35457 0.11472 0.0
H244 H 0.0024 0.26897 0.2896 0.0
H245 H 0.97784 0.32605 0.23543 0.0
H246 H 0.99746 0.25936 0.24873 0.0
H247 H 0.98286 0.3344 0.27663 0.0
H248 H 0.92443 0.36857 0.18933 0.0
H249 H 0.91313 0.32163 0.24347 0.0
H250 H 0.08989 0.29847 0.19394 0.0
H251 H 0.05359 0.34378 0.23653 0.0
H252 H 0.93883 0.23256 0.16651 0.0
H253 H 0.94253 0.30147 0.15092 0.0
H254 H 0.90987 0.22859 0.13685 0.0
H255 H 0.91359 0.29633 0.12152 0.0
H256 H 0.02476 0.22651 0.15664 0.0
H257 H 0.02687 0.25926 0.2218 0.0
H258 H 0.05182 0.19941 0.17125 0.0
H259 H 0.05372 0.23156 0.23536 0.0
H260 H 0.00898 0.28237 0.07834 0.0
H261 H 0.97728 0.22174 0.098 0.0
H262 H 0.93175 0.2235 0.25311 0.0
H263 H 0.97933 0.18029 0.22181 0.0
Li264 Li 0.1944 0.96689 0.68799 0.0
Li265 Li 0.20733 0.00463 0.69363 0.0
Li266 Li 0.2173 0.98403 0.65914 0.0
Li267 Li 0.23306 0.97488 0.69666 0.0
C268 C 0.16611 0.99163 0.66492 0.0
N269 N 0.12158 0.98715 0.65748 0.0
C270 C 0.15119 0.00398 0.67772 0.0
C271 C 0.15842 0.97714 0.64822 0.0
C272 C 0.12873 0.00145 0.67372 0.0
C273 C 0.13583 0.97506 0.64476 0.0
C274 C 0.21309 0.97311 0.73688 0.0
C275 C 0.235 0.97687 0.77101 0.0
N276 N 0.22723 0.95726 0.77862 0.0
C277 C 0.20524 0.95305 0.74508 0.0
C278 C 0.22799 0.9852 0.74998 0.0
C279 C 0.21261 0.9453 0.76622 0.0
C280 C 0.1722 0.92596 0.68689 0.0
N281 N 0.17081 0.94719 0.69387 0.0
C282 C 0.13623 0.9403 0.71179 0.0
C283 C 0.15339 0.95451 0.70625 0.0
C284 C 0.1373 0.91823 0.705 0.0
C285 C 0.15556 0.91109 0.69238 0.0
H286 H 0.18642 0.92047 0.67744 0.0
H287 H 0.15304 0.9713 0.71217 0.0
C288 C 0.19303 0.04823 0.68866 0.0
N289 N 0.19837 0.03265 0.70435 0.0
C290 C 0.18409 0.06821 0.69568 0.0
C291 C 0.18653 0.05582 0.73489 0.0
C292 C 0.19554 0.03612 0.72711 0.0
C293 C 0.18035 0.07203 0.71905 0.0
H294 H 0.19501 0.04479 0.67063 0.0
H295 H 0.19961 0.02332 0.73918 0.0
C296 C 0.22874 0.94164 0.6564 0.0
N297 N 0.2452 0.91652 0.62103 0.0
C298 C 0.25088 0.93566 0.65619 0.0
C299 C 0.21492 0.93469 0.63875 0.0
C300 C 0.2589 0.92298 0.63813 0.0
C301 C 0.22358 0.92206 0.62097 0.0
C302 C 0.24319 0.02343 0.67905 0.0
C303 C 0.24124 0.03616 0.65928 0.0
C304 C 0.2511 0.03292 0.69919 0.0
C305 C 0.24709 0.05832 0.66005 0.0
C306 C 0.25673 0.05514 0.69927 0.0
N307 N 0.25462 0.06728 0.67986 0.0
C308 C 0.20811 0.99711 0.61391 0.0
C309 C 0.24333 0.98131 0.61901 0.0
C310 C 0.21271 0.00147 0.59096 0.0
N311 N 0.22337 0.98721 0.62738 0.0
C312 C 0.24844 0.98493 0.59603 0.0
C313 C 0.2331 0.99536 0.58183 0.0
H314 H 0.19257 0.00211 0.62114 0.0
H315 H 0.25547 0.97423 0.63028 0.0
C316 C 0.25773 0.94399 0.72179 0.0
N317 N 0.25866 0.96387 0.71131 0.0
C318 C 0.27643 0.93508 0.73197 0.0
C319 C 0.29692 0.96693 0.71969 0.0
C320 C 0.27771 0.97539 0.71007 0.0
C321 C 0.2965 0.94646 0.73083 0.0
H322 H 0.24247 0.93496 0.72207 0.0
H323 H 0.27809 0.99094 0.70119 0.0
O324 O 0.18815 0.99363 0.66879 0.0
O325 O 0.20627 0.98085 0.71611 0.0
O326 O 0.22061 0.95418 0.67385 0.0
O327 O 0.23714 0.00183 0.67879 0.0
H328 H 0.15686 0.01521 0.69077 0.0
H329 H 0.16977 0.96754 0.63812 0.0
H330 H 0.11698 0.01081 0.68358 0.0
H331 H 0.12963 0.96383 0.63197 0.0
H332 H 0.24664 0.98598 0.78126 0.0
H333 H 0.19373 0.94346 0.73516 0.0
H334 H 0.23426 0.00073 0.74385 0.0
H335 H 0.20676 0.92976 0.77274 0.0
H336 H 0.1226 0.94633 0.72188 0.0
H337 H 0.15695 0.89418 0.68684 0.0
H338 H 0.17923 0.0801 0.68288 0.0
H339 H 0.18402 0.05817 0.75306 0.0
H340 H 0.26181 0.9409 0.66972 0.0
H341 H 0.19773 0.93911 0.63872 0.0
H342 H 0.27602 0.91831 0.63767 0.0
H343 H 0.21311 0.91667 0.60713 0.0
H344 H 0.23512 0.02908 0.64356 0.0
H345 H 0.25269 0.02328 0.71464 0.0
H346 H 0.24557 0.06841 0.64491 0.0
H347 H 0.26276 0.06275 0.71476 0.0
H348 H 0.2005 0.00959 0.58047 0.0
H349 H 0.26447 0.9803 0.58962 0.0
H350 H 0.27511 0.91943 0.74061 0.0
H351 H 0.31201 0.97614 0.71789 0.0
Li352 Li 0.49247 0.29065 0.80469 0.0
Li353 Li 0.53045 0.30069 0.80801 0.0
Li354 Li 0.52032 0.26244 0.80447 0.0
Li355 Li 0.51264 0.2817 0.83922 0.0
C356 C 0.50785 0.27684 0.76207 0.0
N357 N 0.4915 0.25801 0.72255 0.0
C358 C 0.5174 0.28159 0.7409 0.0
C359 C 0.48993 0.26253 0.76309 0.0
C360 C 0.50891 0.27191 0.72113 0.0
C361 C 0.48192 0.25317 0.74294 0.0
C362 C 0.50012 0.33233 0.8215 0.0
C363 C 0.48667 0.36805 0.83237 0.0
N364 N 0.48852 0.37482 0.81028 0.0
C365 C 0.50189 0.33963 0.7989 0.0
C366 C 0.49246 0.34663 0.83838 0.0
C367 C 0.49594 0.36117 0.79358 0.0
C368 C 0.44723 0.30142 0.80745 0.0
N369 N 0.46487 0.30092 0.79319 0.0
C370 C 0.44395 0.3175 0.76323 0.0
C371 C 0.46362 0.30899 0.77153 0.0
C372 C 0.42555 0.31835 0.77757 0.0
C373 C 0.42729 0.31031 0.79999 0.0
H374 H 0.4488 0.29529 0.82474 0.0
H375 H 0.478 0.30934 0.76076 0.0
C376 C 0.56089 0.31864 0.77803 0.0
N377 N 0.55168 0.32194 0.7989 0.0
C378 C 0.57509 0.33421 0.76876 0.0
C379 C 0.57112 0.3558 0.80322 0.0
C380 C 0.55658 0.33998 0.81165 0.0
C381 C 0.58018 0.35311 0.78135 0.0
H382 H 0.55686 0.30406 0.76841 0.0
H383 H 0.54883 0.34236 0.8281 0.0
C384 C 0.48975 0.24305 0.83335 0.0
N385 N 0.48479 0.20397 0.85675 0.0
C386 C 0.50813 0.23208 0.84198 0.0
C387 C 0.46886 0.23413 0.83661 0.0
C388 C 0.50528 0.21236 0.85377 0.0
C389 C 0.46669 0.21435 0.84848 0.0
C390 C 0.55857 0.28273 0.83974 0.0
C391 C 0.57857 0.27152 0.84044 0.0
C392 C 0.55557 0.30132 0.8534 0.0
C393 C 0.59526 0.27913 0.85478 0.0
C394 C 0.57266 0.30841 0.8675 0.0
N395 N 0.59199 0.29726 0.8679 0.0
C396 C 0.55171 0.23417 0.78694 0.0
C397 C 0.5158 0.21931 0.78494 0.0
C398 C 0.56034 0.21575 0.77606 0.0
N399 N 0.52984 0.23563 0.79109 0.0
C400 C 0.52371 0.20064 0.77374 0.0
C401 C 0.54626 0.19876 0.76914 0.0
H402 H 0.5624 0.24756 0.79177 0.0
H403 H 0.49844 0.2209 0.78842 0.0
C404 C 0.49234 0.2885 0.88172 0.0
N405 N 0.50994 0.27886 0.87162 0.0
C406 C 0.48943 0.28713 0.90538 0.0
C407 C 0.52284 0.26589 0.9078 0.0
C408 C 0.52492 0.26742 0.88407 0.0
C409 C 0.50494 0.27589 0.91886 0.0
H410 H 0.48052 0.29724 0.87133 0.0
H411 H 0.53861 0.25959 0.87563 0.0
O412 O 0.51617 0.28609 0.78159 0.0
O413 O 0.50568 0.31129 0.82721 0.0
O414 O 0.492 0.26243 0.82178 0.0
O415 O 0.54213 0.27537 0.82576 0.0
H416 H 0.53121 0.29268 0.73971 0.0
H417 H 0.48219 0.2587 0.77923 0.0
H418 H 0.51616 0.27545 0.70465 0.0
H419 H 0.46808 0.24207 0.74352 0.0
H420 H 0.48071 0.3793 0.84526 0.0
H421 H 0.50778 0.32882 0.78559 0.0
H422 H 0.49098 0.3412 0.85595 0.0
H423 H 0.49722 0.36703 0.77616 0.0
H424 H 0.44332 0.32402 0.746 0.0
H425 H 0.41341 0.31091 0.81154 0.0
H426 H 0.58196 0.33158 0.75189 0.0
H427 H 0.57465 0.37029 0.81329 0.0
H428 H 0.52444 0.23867 0.8396 0.0
H429 H 0.45448 0.24243 0.83002 0.0
H430 H 0.51935 0.20371 0.86054 0.0
H431 H 0.45061 0.20726 0.85114 0.0
H432 H 0.58114 0.25706 0.83003 0.0
H433 H 0.54019 0.31015 0.85325 0.0
H434 H 0.61082 0.2706 0.85548 0.0
H435 H 0.57054 0.32276 0.87816 0.0
H436 H 0.57778 0.21506 0.77255 0.0
H437 H 0.51236 0.18782 0.76878 0.0
H438 H 0.4751 0.29469 0.91295 0.0
H439 H 0.53538 0.25728 0.91736 0.0
Li440 Li 0.19845 0.53491 0.31011 0.0
Li441 Li 0.206 0.49661 0.3037 0.0
Li442 Li 0.21636 0.51434 0.34028 0.0
Li443 Li 0.23626 0.5231 0.30557 0.0
C444 C 0.16497 0.50556 0.32156 0.0
N445 N 0.12191 0.49736 0.30944 0.0
C446 C 0.15804 0.50877 0.299 0.0
C447 C 0.15 0.49819 0.33794 0.0
C448 C 0.13621 0.50454 0.29322 0.0
C449 C 0.1283 0.49413 0.33148 0.0
C450 C 0.22065 0.51426 0.26227 0.0
C451 C 0.24409 0.48977 0.24095 0.0
N452 N 0.23736 0.49936 0.22115 0.0
C453 C 0.21395 0.52385 0.2417 0.0
C454 C 0.23581 0.49704 0.26189 0.0
C455 C 0.22258 0.51608 0.22109 0.0
C456 C 0.1822 0.56748 0.2818 0.0
N457 N 0.17832 0.55759 0.30222 0.0
C458 C 0.14439 0.57697 0.30625 0.0
C459 C 0.16007 0.56229 0.31473 0.0
C460 C 0.14749 0.58646 0.28461 0.0
C461 C 0.16685 0.58192 0.27254 0.0
H462 H 0.19692 0.56356 0.27235 0.0
H463 H 0.15727 0.55402 0.33084 0.0
C464 C 0.19489 0.45141 0.30249 0.0
N465 N 0.19515 0.47027 0.29006 0.0
C466 C 0.18634 0.43212 0.29305 0.0
C467 C 0.17864 0.45206 0.25823 0.0
C468 C 0.187 0.47095 0.26841 0.0
C469 C 0.17821 0.43233 0.27057 0.0
H470 H 0.20116 0.45142 0.31981 0.0
H471 H 0.18658 0.48623 0.25911 0.0
C472 C 0.2182 0.56012 0.3434 0.0
N473 N 0.20577 0.59283 0.37345 0.0
C474 C 0.23036 0.57951 0.34482 0.0
C475 C 0.1997 0.55737 0.35725 0.0
C476 C 0.22382 0.59585 0.36013 0.0
C477 C 0.19369 0.57409 0.37233 0.0
C478 C 0.25163 0.4827 0.32735 0.0
C479 C 0.26691 0.492 0.34228 0.0
C480 C 0.25508 0.46154 0.31886 0.0
C481 C 0.28537 0.47985 0.34866 0.0
C482 C 0.27377 0.44995 0.32559 0.0
N483 N 0.28839 0.45926 0.34025 0.0
C484 C 0.20935 0.49338 0.38308 0.0
C485 C 0.23537 0.52228 0.38356 0.0
C486 C 0.21329 0.48902 0.40621 0.0
N487 N 0.22046 0.50971 0.37227 0.0
C488 C 0.23979 0.51853 0.40665 0.0
C489 C 0.22881 0.5016 0.41827 0.0
H490 H 0.19764 0.48358 0.37363 0.0
H491 H 0.24422 0.53496 0.3745 0.0
C492 C 0.26554 0.55328 0.28768 0.0
N493 N 0.26397 0.53177 0.29356 0.0
C494 C 0.28525 0.56172 0.27928 0.0
C495 C 0.30135 0.52563 0.28295 0.0
C496 C 0.28124 0.51783 0.29104 0.0
C497 C 0.30355 0.54788 0.27709 0.0
H498 H 0.25148 0.56393 0.28976 0.0
H499 H 0.2795 0.50069 0.2953 0.0
O500 O 0.18626 0.50955 0.32771 0.0
O501 O 0.21225 0.52172 0.28255 0.0
O502 O 0.22447 0.54404 0.32845 0.0
O503 O 0.23343 0.4942 0.32079 0.0
H504 H 0.16935 0.51455 0.28609 0.0
H505 H 0.15512 0.49563 0.35548 0.0
H506 H 0.13063 0.50697 0.27584 0.0
H507 H 0.11653 0.48841 0.34399 0.0
H508 H 0.25584 0.47647 0.24043 0.0
H509 H 0.2021 0.53707 0.24161 0.0
H510 H 0.24109 0.48926 0.27754 0.0
H511 H 0.2175 0.52334 0.20506 0.0
H512 H 0.12956 0.58006 0.31595 0.0
H513 H 0.16986 0.58913 0.2559 0.0
H514 H 0.18616 0.41721 0.30314 0.0
H515 H 0.17202 0.45301 0.24106 0.0
H516 H 0.24472 0.58188 0.3342 0.0
H517 H 0.19008 0.54248 0.35644 0.0
H518 H 0.23309 0.61094 0.36141 0.0
H519 H 0.17941 0.57218 0.38315 0.0
H520 H 0.2647 0.50852 0.34861 0.0
H521 H 0.2435 0.45419 0.3071 0.0
H522 H 0.29735 0.48683 0.36022 0.0
H523 H 0.27666 0.43356 0.31914 0.0
H524 H 0.20429 0.47595 0.41455 0.0
H525 H 0.25214 0.5284 0.41511 0.0
H526 H 0.28631 0.57901 0.27513 0.0
H527 H 0.31501 0.51438 0.28122 0.0
Li528 Li 0.98171 0.23933 0.80287 0.0
Li529 Li 0.98978 0.21755 0.83985 0.0
Li530 Li 0.00825 0.20935 0.80354 0.0
Li531 Li 0.97062 0.2011 0.80751 0.0
C532 C 0.03059 0.24296 0.81714 0.0
N533 N 0.07399 0.25213 0.80748 0.0
C534 C 0.04706 0.23667 0.83242 0.0
C535 C 0.03615 0.25398 0.79699 0.0
C536 C 0.06892 0.24143 0.82721 0.0
C537 C 0.0582 0.25846 0.79241 0.0
C538 C 0.9398 0.22148 0.83055 0.0
C539 C 0.91274 0.20063 0.8514 0.0
N540 N 0.89674 0.20903 0.83774 0.0
C541 C 0.92306 0.23008 0.81688 0.0
C542 C 0.93459 0.20678 0.84807 0.0
C543 C 0.9014 0.22352 0.82073 0.0
C544 C 0.95611 0.26683 0.77576 0.0
N545 N 0.97307 0.2668 0.79083 0.0
C546 C 0.97432 0.30597 0.79058 0.0
C547 C 0.98247 0.28577 0.79809 0.0
C548 C 0.95604 0.30664 0.77584 0.0
C549 C 0.94716 0.28661 0.7682 0.0
H550 H 0.94906 0.25143 0.77024 0.0
H551 H 0.99599 0.28521 0.81006 0.0
C552 C 0.00952 0.20892 0.88243 0.0
N553 N 0.99264 0.21952 0.87203 0.0
C554 C 0.01171 0.20962 0.90619 0.0
C555 C 0.97918 0.23228 0.90802 0.0
C556 C 0.97767 0.23119 0.88421 0.0
C557 C 0.99633 0.22131 0.91935 0.0
H558 H 0.02118 0.19978 0.87224 0.0
H559 H 0.9644 0.23945 0.87543 0.0
C560 C 0.98753 0.20386 0.76116 0.0
N561 N 0.99327 0.18068 0.72101 0.0
C562 C 0.98867 0.18098 0.76157 0.0
C563 C 0.98913 0.21498 0.74032 0.0
C564 C 0.99162 0.16955 0.7411 0.0
C565 C 0.99209 0.20296 0.72021 0.0
C566 C 0.99293 0.16786 0.83298 0.0
C567 C 0.00096 0.15053 0.81973 0.0
C568 C 0.98325 0.16345 0.85417 0.0
C569 C 0.9986 0.12902 0.82762 0.0
C570 C 0.98122 0.14171 0.86146 0.0
N571 N 0.98884 0.12509 0.84813 0.0
C572 C 0.04729 0.18557 0.80565 0.0
C573 C 0.04255 0.204 0.7703 0.0
C574 C 0.06658 0.17583 0.79782 0.0
N575 N 0.03551 0.19898 0.79174 0.0
C576 C 0.06173 0.19453 0.76171 0.0
C577 C 0.07381 0.17989 0.77539 0.0
H578 H 0.04147 0.18215 0.82276 0.0
H579 H 0.03308 0.21503 0.75972 0.0
C580 C 0.93548 0.19052 0.78004 0.0
N581 N 0.9468 0.1825 0.79823 0.0
C582 C 0.91671 0.17991 0.77218 0.0
C583 C 0.92166 0.15248 0.80158 0.0
C584 C 0.94037 0.16375 0.80898 0.0
C585 C 0.9094 0.16078 0.78316 0.0
H586 H 0.94074 0.2056 0.77197 0.0
H587 H 0.94927 0.15781 0.82365 0.0
O588 O 0.00918 0.23783 0.82154 0.0
O589 O 0.96122 0.22702 0.8265 0.0
O590 O 0.98481 0.21544 0.78098 0.0
O591 O 0.99543 0.18907 0.82573 0.0
H592 H 0.043 0.22801 0.84802 0.0
H593 H 0.02358 0.25875 0.78488 0.0
H594 H 0.08186 0.23657 0.83882 0.0
H595 H 0.06277 0.26687 0.77683 0.0
H596 H 0.90851 0.18914 0.86479 0.0
H597 H 0.92674 0.24151 0.8033 0.0
H598 H 0.9473 0.20004 0.85886 0.0
H599 H 0.88831 0.2299 0.81014 0.0
H600 H 0.9821 0.32086 0.79658 0.0
H601 H 0.9329 0.28608 0.75718 0.0
H602 H 0.02537 0.20119 0.91414 0.0
H603 H 0.96679 0.24124 0.91745 0.0
H604 H 0.98715 0.17217 0.7775 0.0
H605 H 0.98822 0.23271 0.73975 0.0
H606 H 0.99256 0.15182 0.74118 0.0
H607 H 0.99344 0.21134 0.70396 0.0
H608 H 0.00914 0.15361 0.80364 0.0
H609 H 0.97734 0.17662 0.86489 0.0
H610 H 0.00466 0.11545 0.81749 0.0
H611 H 0.97363 0.13807 0.87775 0.0
H612 H 0.0756 0.16505 0.80915 0.0
H613 H 0.0666 0.19806 0.74428 0.0
H614 H 0.90787 0.18675 0.75778 0.0
H615 H 0.91641 0.1379 0.81065 0.0
Li616 Li 0.26202 0.97663 0.30684 0.0
Li617 Li 0.2832 0.98643 0.34112 0.0
Li618 Li 0.29216 0.003 0.30345 0.0
Li619 Li 0.30045 0.96475 0.31103 0.0
C620 C 0.24817 0.02012 0.32262 0.0
N621 N 0.21372 0.04951 0.32488 0.0
C622 C 0.23493 0.021 0.34213 0.0
C623 C 0.24415 0.03446 0.30445 0.0
C624 C 0.21752 0.03589 0.34289 0.0
C625 C 0.22658 0.04912 0.30587 0.0
C626 C 0.28077 0.94036 0.34483 0.0
C627 C 0.3058 0.92542 0.37274 0.0
N628 N 0.29328 0.90698 0.37402 0.0
C629 C 0.26819 0.92125 0.34635 0.0
C630 C 0.29977 0.94248 0.35807 0.0
C631 C 0.27477 0.90457 0.36124 0.0
C632 C 0.23403 0.95066 0.28052 0.0
N633 N 0.23409 0.96704 0.2963 0.0
C634 C 0.19499 0.96565 0.29907 0.0
C635 C 0.21511 0.9747 0.30553 0.0
C636 C 0.19443 0.94838 0.28315 0.0
C637 C 0.2143 0.94111 0.27358 0.0
H638 H 0.24941 0.94456 0.27382 0.0
H639 H 0.21555 0.98736 0.31839 0.0
C640 C 0.29062 0.00808 0.38351 0.0
N641 N 0.27967 0.99149 0.37294 0.0
C642 C 0.28703 0.01231 0.40673 0.0
C643 C 0.26133 0.98208 0.40768 0.0
C644 C 0.26513 0.97867 0.38445 0.0
C645 C 0.27225 0.99916 0.41907 0.0
H646 H 0.3019 0.01815 0.37383 0.0
H647 H 0.25622 0.96597 0.37549 0.0
C648 C 0.28058 0.98059 0.26153 0.0
N649 N 0.27011 0.9878 0.21619 0.0
C650 C 0.29307 0.97088 0.24423 0.0
C651 C 0.26268 0.99381 0.25581 0.0
C652 C 0.28754 0.97478 0.22139 0.0
C653 C 0.25766 0.99729 0.23278 0.0
C654 C 0.33392 0.99498 0.32019 0.0
C655 C 0.34012 0.99084 0.29756 0.0
C656 C 0.3492 0.00367 0.33552 0.0
C657 C 0.36157 0.99547 0.29067 0.0
C658 C 0.37051 0.00806 0.32797 0.0
N659 N 0.3762 0.00391 0.30589 0.0
C660 C 0.30358 0.04771 0.30187 0.0
C661 C 0.30986 0.02867 0.26713 0.0
C662 C 0.31257 0.06689 0.29267 0.0
N663 N 0.30247 0.02911 0.28907 0.0
C664 C 0.31868 0.04748 0.25718 0.0
C665 C 0.32028 0.06686 0.27003 0.0
H666 H 0.29784 0.04749 0.31938 0.0
H667 H 0.30955 0.0136 0.2575 0.0
C668 C 0.30988 0.9256 0.28992 0.0
N669 N 0.31891 0.94052 0.30436 0.0
C670 C 0.32127 0.90654 0.28424 0.0
C671 C 0.35132 0.91871 0.30811 0.0
C672 C 0.33919 0.93748 0.31357 0.0
C673 C 0.34222 0.90287 0.29345 0.0
H674 H 0.29365 0.92845 0.283 0.0
H675 H 0.34584 0.94945 0.32534 0.0
O676 O 0.2654 0.00577 0.32169 0.0
O677 O 0.27467 0.9567 0.33012 0.0
O678 O 0.28589 0.97695 0.28392 0.0
O679 O 0.31293 0.99094 0.32732 0.0
H680 H 0.23796 0.01015 0.35644 0.0
H681 H 0.25456 0.03442 0.28947 0.0
H682 H 0.20704 0.03664 0.3578 0.0
H683 H 0.22322 0.06026 0.29189 0.0
H684 H 0.32045 0.92684 0.38309 0.0
H685 H 0.2535 0.91935 0.33611 0.0
H686 H 0.30978 0.9571 0.357 0.0
H687 H 0.26518 0.88969 0.36262 0.0
H688 H 0.18007 0.97189 0.30675 0.0
H689 H 0.21472 0.9276 0.26157 0.0
H690 H 0.29574 0.02563 0.41497 0.0
H691 H 0.24952 0.97185 0.41652 0.0
H692 H 0.30696 0.96055 0.24842 0.0
H693 H 0.25267 0.00113 0.269 0.0
H694 H 0.29712 0.96746 0.20781 0.0
H695 H 0.24385 0.00749 0.2281 0.0
H696 H 0.32853 0.98413 0.28544 0.0
H697 H 0.34462 0.00703 0.35306 0.0
H698 H 0.36658 0.99235 0.27322 0.0
H699 H 0.38252 0.0148 0.33965 0.0
H700 H 0.31357 0.08153 0.30312 0.0
H701 H 0.32488 0.04667 0.23983 0.0
H702 H 0.31377 0.89479 0.27274 0.0
H703 H 0.36736 0.91631 0.31572 0.0
Li704 Li 0.48583 0.78253 0.84299 0.0
Li705 Li 0.50657 0.79138 0.80718 0.0
Li706 Li 0.46821 0.80103 0.81078 0.0
Li707 Li 0.47843 0.76288 0.80622 0.0
C708 C 0.48956 0.83362 0.83155 0.0
N709 N 0.48133 0.87817 0.83378 0.0
C710 C 0.50375 0.84848 0.82092 0.0
C711 C 0.47131 0.84146 0.84353 0.0
C712 C 0.49928 0.87093 0.82221 0.0
C713 C 0.46738 0.86403 0.84437 0.0
C714 C 0.52066 0.74847 0.81551 0.0
C715 C 0.53804 0.73196 0.78269 0.0
N716 N 0.5503 0.7192 0.79688 0.0
C717 C 0.5334 0.73519 0.82977 0.0
C718 C 0.52296 0.74686 0.79177 0.0
C719 C 0.54831 0.7205 0.82002 0.0
C720 C 0.49199 0.75952 0.88468 0.0
N721 N 0.48783 0.77951 0.87533 0.0
C722 C 0.4869 0.79606 0.91235 0.0
C723 C 0.48543 0.79764 0.88861 0.0
C724 C 0.4914 0.77569 0.92265 0.0
C725 C 0.49394 0.75723 0.90841 0.0
H726 H 0.494 0.74539 0.87367 0.0
H727 H 0.48228 0.81335 0.88077 0.0
C728 C 0.53524 0.81443 0.77793 0.0
N729 N 0.53431 0.80106 0.7965 0.0
C730 C 0.55492 0.82476 0.77205 0.0
C731 C 0.57254 0.80625 0.80369 0.0
C732 C 0.55247 0.79649 0.8091 0.0
C733 C 0.57383 0.82117 0.78537 0.0
H734 H 0.52041 0.81802 0.76846 0.0
H735 H 0.55118 0.78593 0.82391 0.0
C736 C 0.43763 0.77352 0.83824 0.0
N737 N 0.3967 0.76946 0.85812 0.0
C738 C 0.4219 0.75963 0.82857 0.0
C739 C 0.43256 0.7853 0.85806 0.0
C740 C 0.4013 0.75782 0.83887 0.0
C741 C 0.41177 0.78304 0.86784 0.0
C742 C 0.46934 0.78603 0.76568 0.0
C743 C 0.44714 0.78117 0.76895 0.0
C744 C 0.47728 0.78966 0.74359 0.0
C745 C 0.43325 0.77992 0.74999 0.0
C746 C 0.46286 0.78824 0.72506 0.0
N747 N 0.44133 0.78344 0.72862 0.0
C748 C 0.45469 0.83971 0.78868 0.0
C749 C 0.4255 0.82144 0.80749 0.0
C750 C 0.44055 0.8564 0.78155 0.0
N751 N 0.44708 0.82287 0.80175 0.0
C752 C 0.41071 0.83753 0.80036 0.0
C753 C 0.41825 0.85536 0.78738 0.0
H754 H 0.47182 0.84021 0.78389 0.0
H755 H 0.41958 0.80781 0.81743 0.0
C756 C 0.46284 0.72095 0.81262 0.0
N757 N 0.46871 0.73493 0.7956 0.0
C758 C 0.45122 0.70183 0.80765 0.0
C759 C 0.45317 0.71102 0.76749 0.0
C760 C 0.46503 0.72989 0.77326 0.0
C761 C 0.44534 0.69714 0.78491 0.0
H762 H 0.46613 0.72533 0.83023 0.0
H763 H 0.47023 0.741 0.75994 0.0
O764 O 0.49351 0.81154 0.83017 0.0
O765 O 0.50603 0.76293 0.82485 0.0
O766 O 0.45792 0.77543 0.82841 0.0
O767 O 0.48328 0.7876 0.78395 0.0
H768 H 0.51806 0.84277 0.81179 0.0
H769 H 0.46 0.83022 0.85164 0.0
H770 H 0.51009 0.8826 0.81399 0.0
H771 H 0.45318 0.87029 0.85336 0.0
H772 H 0.54 0.73054 0.76436 0.0
H773 H 0.53179 0.73626 0.84818 0.0
H774 H 0.51324 0.75698 0.78046 0.0
H775 H 0.5583 0.71012 0.83084 0.0
H776 H 0.48435 0.81071 0.92248 0.0
H777 H 0.49774 0.74124 0.91544 0.0
H778 H 0.55497 0.83634 0.75801 0.0
H779 H 0.58672 0.80268 0.81421 0.0
H780 H 0.42549 0.75042 0.8132 0.0
H781 H 0.44446 0.79617 0.86573 0.0
H782 H 0.38896 0.74716 0.83154 0.0
H783 H 0.4076 0.7921 0.88314 0.0
H784 H 0.44072 0.77834 0.78589 0.0
H785 H 0.49442 0.79351 0.7408 0.0
H786 H 0.41604 0.77613 0.75228 0.0
H787 H 0.46878 0.79098 0.70785 0.0
H788 H 0.44689 0.86977 0.7713 0.0
H789 H 0.3936 0.8362 0.80519 0.0
H790 H 0.44611 0.69133 0.8216 0.0
H791 H 0.44909 0.7081 0.74973 0.0
Li792 Li 0.71059 0.50604 0.30574 0.0
Li793 Li 0.72061 0.48495 0.34085 0.0
Li794 Li 0.73638 0.47625 0.30158 0.0
Li795 Li 0.69815 0.4687 0.31012 0.0
C796 C 0.74633 0.52451 0.32038 0.0
N797 N 0.7573 0.56845 0.31921 0.0
C798 C 0.74203 0.5379 0.33925 0.0
C799 C 0.75635 0.53338 0.30098 0.0
C800 C 0.74768 0.5601 0.33831 0.0
C801 C 0.76173 0.55566 0.3007 0.0
C802 C 0.6707 0.48903 0.33719 0.0
C803 C 0.64619 0.46704 0.36 0.0
N804 N 0.62875 0.47666 0.34947 0.0
C805 C 0.65258 0.49876 0.32662 0.0
C806 C 0.66754 0.47309 0.35405 0.0
C807 C 0.63148 0.49226 0.33307 0.0
C808 C 0.70199 0.53842 0.27226 0.0
N809 N 0.70177 0.5343 0.2951 0.0
C810 C 0.68536 0.56924 0.30247 0.0
C811 C 0.69382 0.54925 0.31023 0.0
C812 C 0.68497 0.57378 0.27889 0.0
C813 C 0.69373 0.55815 0.26376 0.0
H814 H 0.70789 0.52612 0.26054 0.0
H815 H 0.69359 0.54542 0.3283 0.0
C816 C 0.74593 0.47352 0.37826 0.0
N817 N 0.72766 0.48497 0.37238 0.0
C818 C 0.75175 0.47117 0.40118 0.0
C819 C 0.72043 0.49341 0.4116 0.0
C820 C 0.71506 0.49513 0.38839 0.0
C821 C 0.73877 0.48094 0.4182 0.0
H822 H 0.75568 0.46575 0.36508 0.0
H823 H 0.70064 0.50419 0.38315 0.0
C824 C 0.71641 0.47644 0.26098 0.0
N825 N 0.72915 0.46363 0.21761 0.0
C826 C 0.70729 0.4577 0.25095 0.0
C827 C 0.73206 0.48862 0.24894 0.0
C828 C 0.71392 0.45153 0.229 0.0
C829 C 0.73829 0.48187 0.22704 0.0
C830 C 0.72393 0.43423 0.32845 0.0
C831 C 0.72517 0.42014 0.30964 0.0
C832 C 0.72212 0.42549 0.35047 0.0
C833 C 0.7248 0.39747 0.3132 0.0
C834 C 0.72182 0.40273 0.35333 0.0
N835 N 0.72317 0.38931 0.33479 0.0
C836 C 0.78205 0.47283 0.29744 0.0
C837 C 0.76297 0.44902 0.27234 0.0
C838 C 0.8021 0.46349 0.29112 0.0
N839 N 0.76297 0.46528 0.28829 0.0
C840 C 0.78261 0.43932 0.26543 0.0
C841 C 0.80248 0.4462 0.27522 0.0
H842 H 0.78163 0.48559 0.31029 0.0
H843 H 0.74773 0.44292 0.26552 0.0
C844 C 0.65972 0.45817 0.28732 0.0
N845 N 0.67367 0.44993 0.30327 0.0
C846 C 0.64284 0.44526 0.27849 0.0
C847 C 0.65426 0.41581 0.30341 0.0
C848 C 0.67062 0.42953 0.31216 0.0
C849 C 0.64047 0.42338 0.28579 0.0
H850 H 0.66222 0.47462 0.28085 0.0
H851 H 0.6812 0.42353 0.32553 0.0
O852 O 0.74035 0.50291 0.32072 0.0
O853 O 0.69145 0.49471 0.33067 0.0
O854 O 0.71 0.48288 0.28239 0.0
O855 O 0.72434 0.45647 0.32538 0.0
H856 H 0.73419 0.53125 0.35435 0.0
H857 H 0.75982 0.52318 0.28627 0.0
H858 H 0.74434 0.5707 0.35273 0.0
H859 H 0.7694 0.5628 0.28576 0.0
H860 H 0.64347 0.45463 0.37293 0.0
H861 H 0.65482 0.51106 0.31346 0.0
H862 H 0.68145 0.46529 0.36222 0.0
H863 H 0.61728 0.49957 0.32499 0.0
H864 H 0.67889 0.58086 0.31475 0.0
H865 H 0.69336 0.5607 0.24543 0.0
H866 H 0.76615 0.46164 0.40558 0.0
H867 H 0.70998 0.5011 0.42427 0.0
H868 H 0.69541 0.44786 0.26006 0.0
H869 H 0.73951 0.50299 0.25652 0.0
H870 H 0.70703 0.43704 0.22107 0.0
H871 H 0.75043 0.4911 0.21758 0.0
H872 H 0.72585 0.42661 0.29248 0.0
H873 H 0.72081 0.43614 0.3652 0.0
H874 H 0.72567 0.38637 0.29879 0.0
H875 H 0.72044 0.39574 0.37027 0.0
H876 H 0.81708 0.46938 0.29898 0.0
H877 H 0.78208 0.42582 0.25339 0.0
H878 H 0.63216 0.45223 0.2656 0.0
H879 H 0.65317 0.39916 0.30975 0.0
Li880 Li 0.0164 0.71782 0.84045 0.0
Li881 Li 0.99141 0.70807 0.8086 0.0
Li882 Li 0.03066 0.69695 0.80864 0.0
Li883 Li 0.02014 0.73563 0.80281 0.0
C884 C 0.01014 0.66628 0.83301 0.0
N885 N 0.01721 0.62168 0.83729 0.0
C886 C 0.99477 0.65137 0.82445 0.0
C887 C 0.02901 0.65851 0.84394 0.0
C888 C 0.99866 0.62889 0.82675 0.0
C889 C 0.03232 0.6359 0.84587 0.0
C890 C 0.97539 0.74682 0.82772 0.0
C891 C 0.9436 0.76597 0.8134 0.0
N892 N 0.93482 0.76586 0.8348 0.0
C893 C 0.96611 0.74698 0.84958 0.0
C894 C 0.96412 0.75647 0.80949 0.0
C895 C 0.94556 0.75667 0.8528 0.0
C896 C 0.02062 0.74282 0.88136 0.0
N897 N 0.01851 0.72223 0.87265 0.0
C898 C 0.02091 0.70664 0.91004 0.0
C899 C 0.01833 0.70431 0.88647 0.0
C900 C 0.02369 0.72764 0.91955 0.0
C901 C 0.02329 0.74592 0.90489 0.0
H902 H 0.02049 0.7568 0.86997 0.0
H903 H 0.01626 0.68817 0.87918 0.0
C904 C 0.96216 0.68479 0.7811 0.0
N905 N 0.96293 0.69804 0.79977 0.0
C906 C 0.94258 0.6745 0.77484 0.0
C907 C 0.9246 0.69263 0.80642 0.0
C908 C 0.94467 0.70209 0.81242 0.0
C909 C 0.92339 0.67812 0.78771 0.0
H910 H 0.97703 0.68145 0.77162 0.0
H911 H 0.94569 0.71214 0.82756 0.0
C912 C 0.05739 0.73174 0.83842 0.0
N913 N 0.0842 0.74891 0.87203 0.0
C914 C 0.05963 0.75445 0.84072 0.0
C915 C 0.06891 0.71775 0.85306 0.0
C916 C 0.07326 0.76282 0.85785 0.0
C917 C 0.08233 0.72676 0.87001 0.0
C918 C 0.01384 0.71646 0.76156 0.0
C919 C 0.03234 0.71187 0.74828 0.0
C920 C 0.99648 0.72841 0.75215 0.0
C921 C 0.03331 0.71965 0.72583 0.0
C922 C 0.99807 0.7359 0.72963 0.0
N923 N 0.01631 0.73142 0.71706 0.0
C924 C 0.04505 0.65645 0.78871 0.0
C925 C 0.07272 0.68244 0.79773 0.0
C926 C 0.06058 0.64259 0.77866 0.0
N927 N 0.05138 0.67594 0.79799 0.0
C928 C 0.08867 0.66933 0.78746 0.0
C929 C 0.08257 0.64927 0.77763 0.0
H930 H 0.02788 0.652 0.78844 0.0
H931 H 0.07722 0.69824 0.80471 0.0
C932 C 0.01849 0.78091 0.78959 0.0
N933 N 0.02911 0.76144 0.78713 0.0
C934 C 0.02661 0.79979 0.77892 0.0
C935 C 0.05621 0.77809 0.76326 0.0
C936 C 0.04768 0.75976 0.77442 0.0
C937 C 0.04583 0.79857 0.76562 0.0
H938 H 0.00406 0.78192 0.80028 0.0
H939 H 0.05607 0.74417 0.77323 0.0
O940 O 0.00665 0.68836 0.83086 0.0
O941 O 0.9955 0.73748 0.82427 0.0
O942 O 0.04379 0.72322 0.82208 0.0
O943 O 0.01272 0.70927 0.78366 0.0
H944 H 0.97998 0.65708 0.81615 0.0
H945 H 0.04108 0.66982 0.85065 0.0
H946 H 0.98693 0.61716 0.82014 0.0
H947 H 0.04692 0.62966 0.85415 0.0
H948 H 0.93465 0.77343 0.79944 0.0
H949 H 0.97461 0.73956 0.86388 0.0
H950 H 0.97113 0.75659 0.7925 0.0
H951 H 0.93814 0.75685 0.86961 0.0
H952 H 0.02062 0.69212 0.92072 0.0
H953 H 0.02548 0.76239 0.91145 0.0
H954 H 0.94285 0.66313 0.76063 0.0
H955 H 0.91031 0.69636 0.8167 0.0
H956 H 0.05077 0.7655 0.82956 0.0
H957 H 0.06739 0.70013 0.85145 0.0
H958 H 0.07507 0.78036 0.85992 0.0
H959 H 0.09125 0.71613 0.88156 0.0
H960 H 0.04588 0.70256 0.75533 0.0
H961 H 0.98195 0.73186 0.76216 0.0
H962 H 0.04759 0.71635 0.71539 0.0
H963 H 0.98481 0.74526 0.72215 0.0
H964 H 0.05536 0.62735 0.77082 0.0
H965 H 0.10549 0.67502 0.78667 0.0
H966 H 0.01825 0.81525 0.78161 0.0
H967 H 0.07087 0.7762 0.75299 0.0
Li968 Li 0.78011 0.01132 0.34122 0.0
Li969 Li 0.78924 0.99511 0.30393 0.0
Li970 Li 0.80096 0.03372 0.3132 0.0
Li971 Li 0.76265 0.02442 0.30461 0.0
C972 C 0.82714 0.0031 0.34232 0.0
N973 N 0.86284 0.99799 0.37101 0.0
C974 C 0.8371 0.98257 0.34471 0.0
C975 C 0.83556 0.0211 0.35427 0.0
C976 C 0.85506 0.98029 0.35938 0.0
C977 C 0.85356 0.01817 0.36874 0.0
C978 C 0.75365 0.974 0.31752 0.0
C979 C 0.73951 0.94444 0.29441 0.0
N980 N 0.7413 0.93064 0.31261 0.0
C981 C 0.7552 0.95959 0.33605 0.0
C982 C 0.74559 0.96644 0.29658 0.0
C983 C 0.74891 0.93771 0.3332 0.0
C984 C 0.75822 0.0157 0.38342 0.0
N985 N 0.77536 0.00558 0.37292 0.0
C986 C 0.78501 0.98726 0.40764 0.0
C987 C 0.78857 0.99143 0.38446 0.0
C988 C 0.76747 0.9975 0.41905 0.0
C989 C 0.75396 0.0119 0.40658 0.0
H990 H 0.7478 0.02667 0.37374 0.0
H991 H 0.80178 0.9832 0.37569 0.0
C992 C 0.80372 0.96982 0.26653 0.0
N993 N 0.79874 0.96886 0.28915 0.0
C994 C 0.81237 0.95151 0.25537 0.0
C995 C 0.81033 0.93141 0.29093 0.0
C996 C 0.80176 0.95014 0.30141 0.0
C997 C 0.81602 0.93201 0.26764 0.0
H998 H 0.80159 0.98501 0.25726 0.0
H999 H 0.79797 0.94989 0.31947 0.0
C1000 C 0.77524 0.06036 0.34389 0.0
N1001 N 0.77715 0.09767 0.37071 0.0
C1002 C 0.76372 0.07922 0.33748 0.0
C1003 C 0.78743 0.06038 0.36414 0.0
C1004 C 0.76499 0.09795 0.3512 0.0
C1005 C 0.78827 0.07942 0.37741 0.0
C1006 C 0.78186 0.02993 0.26392 0.0
C1007 C 0.78908 0.05057 0.25669 0.0
C1008 C 0.76737 0.01795 0.25023 0.0
C1009 C 0.7814 0.05902 0.23597 0.0
C1010 C 0.76004 0.02699 0.22965 0.0
N1011 N 0.76714 0.04717 0.22301 0.0
C1012 C 0.8437 0.04647 0.30232 0.0
C1013 C 0.82034 0.0765 0.31064 0.0
C1014 C 0.86106 0.06068 0.29751 0.0
N1015 N 0.82385 0.05455 0.30875 0.0
C1016 C 0.83726 0.09131 0.30607 0.0
C1017 C 0.85795 0.08347 0.29923 0.0
H1018 H 0.84591 0.02894 0.30059 0.0
H1019 H 0.80432 0.08259 0.31526 0.0
C1020 C 0.71781 0.02402 0.29088 0.0
N1021 N 0.73661 0.036 0.2911 0.0
C1022 C 0.69886 0.03243 0.28061 0.0
C1023 C 0.71907 0.06526 0.27094 0.0
C1024 C 0.73749 0.05634 0.28164 0.0
C1025 C 0.69933 0.05332 0.27033 0.0
H1026 H 0.71749 0.00796 0.29874 0.0
H1027 H 0.75261 0.06559 0.28221 0.0
O1028 O 0.80957 0.00558 0.32795 0.0
O1029 O 0.75996 0.9954 0.3199 0.0
O1030 O 0.77409 0.04187 0.33064 0.0
O1031 O 0.78897 0.02151 0.2843 0.0
H1032 H 0.83098 0.9685 0.33544 0.0
H1033 H 0.82851 0.03722 0.35217 0.0
H1034 H 0.86283 0.96446 0.36149 0.0
H1035 H 0.86022 0.03196 0.3781 0.0
H1036 H 0.73338 0.93832 0.27826 0.0
H1037 H 0.76133 0.96519 0.3524 0.0
H1038 H 0.74418 0.97742 0.28212 0.0
H1039 H 0.75013 0.92634 0.34736 0.0
H1040 H 0.79602 0.97623 0.41653 0.0
H1041 H 0.74003 0.01989 0.41449 0.0
H1042 H 0.8169 0.95292 0.23752 0.0
H1043 H 0.81272 0.9167 0.30103 0.0
H1044 H 0.75399 0.07945 0.32202 0.0
H1045 H 0.79595 0.0458 0.36974 0.0
H1046 H 0.75627 0.1127 0.34636 0.0
H1047 H 0.79768 0.07965 0.3931 0.0
H1048 H 0.80036 0.06002 0.26703 0.0
H1049 H 0.76171 0.00193 0.25554 0.0
H1050 H 0.78675 0.07502 0.23021 0.0
H1051 H 0.7487 0.01797 0.21896 0.0
H1052 H 0.87657 0.05387 0.2919 0.0
H1053 H 0.83413 0.10873 0.3078 0.0
H1054 H 0.68397 0.02274 0.28098 0.0
H1055 H 0.72045 0.08123 0.26298 0.0
Li1056 Li 0.47816 0.72985 0.20242 0.0
Li1057 Li 0.47237 0.69261 0.19321 0.0
Li1058 Li 0.50933 0.70492 0.1955 0.0
Li1059 Li 0.48559 0.71553 0.16267 0.0
C1060 C 0.4983 0.71163 0.23979 0.0
N1061 N 0.5206 0.72622 0.27812 0.0
C1062 C 0.49902 0.69876 0.25959 0.0
C1063 C 0.50919 0.73185 0.23948 0.0
C1064 C 0.5103 0.70644 0.27878 0.0
C1065 C 0.52028 0.73896 0.25904 0.0
C1066 C 0.43672 0.71123 0.17626 0.0
C1067 C 0.40812 0.69674 0.15211 0.0
N1068 N 0.39443 0.69592 0.17048 0.0
C1069 C 0.42232 0.7105 0.19485 0.0
C1070 C 0.42955 0.70449 0.15467 0.0
C1071 C 0.40103 0.7026 0.19159 0.0
C1072 C 0.46371 0.77385 0.21062 0.0
N1073 N 0.4652 0.75317 0.21922 0.0
C1074 C 0.44148 0.76241 0.25023 0.0
C1075 C 0.45473 0.74736 0.23881 0.0
C1076 C 0.43865 0.78358 0.24122 0.0
C1077 C 0.45049 0.78948 0.2215 0.0
H1078 H 0.47189 0.77785 0.19473 0.0
H1079 H 0.45582 0.73068 0.24499 0.0
C1080 C 0.44047 0.65704 0.18692 0.0
N1081 N 0.45318 0.66874 0.20172 0.0
C1082 C 0.42664 0.64043 0.19504 0.0
C1083 C 0.43895 0.64842 0.2334 0.0
C1084 C 0.45242 0.66481 0.22458 0.0
C1085 C 0.42588 0.63589 0.21859 0.0
H1086 H 0.44074 0.66074 0.16889 0.0
H1087 H 0.46203 0.67466 0.23611 0.0
C1088 C 0.52136 0.74362 0.17019 0.0
N1089 N 0.55487 0.76097 0.14403 0.0
C1090 C 0.53329 0.73012 0.1554 0.0
C1091 C 0.5264 0.76594 0.17165 0.0
C1092 C 0.55018 0.73921 0.14232 0.0
C1093 C 0.54344 0.7744 0.15831 0.0
C1094 C 0.49084 0.66579 0.16299 0.0
C1095 C 0.49797 0.64685 0.17424 0.0
C1096 C 0.47783 0.66385 0.14339 0.0
C1097 C 0.4919 0.6263 0.16576 0.0
C1098 C 0.47219 0.643 0.13537 0.0
N1099 N 0.47926 0.62481 0.14665 0.0
C1100 C 0.53745 0.67662 0.21684 0.0
C1101 C 0.55677 0.70771 0.20327 0.0
C1102 C 0.55678 0.66729 0.225 0.0
N1103 N 0.53779 0.6962 0.20578 0.0
C1104 C 0.57662 0.69897 0.21123 0.0
C1105 C 0.5768 0.67837 0.22209 0.0
H1106 H 0.52202 0.66821 0.21932 0.0
H1107 H 0.55663 0.72364 0.1952 0.0
C1108 C 0.47635 0.74377 0.12625 0.0
N1109 N 0.48576 0.72415 0.13134 0.0
C1110 C 0.4775 0.75216 0.10405 0.0
C1111 C 0.49753 0.71973 0.09258 0.0
C1112 C 0.49635 0.71215 0.11511 0.0
C1113 C 0.48825 0.74009 0.08695 0.0
H1114 H 0.46837 0.75311 0.13961 0.0
H1115 H 0.50433 0.69695 0.11975 0.0
O1116 O 0.48771 0.70394 0.22066 0.0
O1117 O 0.45772 0.71857 0.17914 0.0
O1118 O 0.50434 0.73527 0.18268 0.0
O1119 O 0.49674 0.68609 0.17095 0.0
H1120 H 0.49116 0.68286 0.26013 0.0
H1121 H 0.50917 0.74206 0.22441 0.0
H1122 H 0.51096 0.69662 0.29418 0.0
H1123 H 0.52868 0.75459 0.25902 0.0
H1124 H 0.40238 0.69132 0.13554 0.0
H1125 H 0.42765 0.71568 0.21166 0.0
H1126 H 0.44048 0.70512 0.14009 0.0
H1127 H 0.38976 0.70173 0.20586 0.0
H1128 H 0.4329 0.75725 0.26554 0.0
H1129 H 0.44859 0.80556 0.21385 0.0
H1130 H 0.41674 0.63121 0.18303 0.0
H1131 H 0.43845 0.64591 0.25173 0.0
H1132 H 0.52959 0.71281 0.15408 0.0
H1133 H 0.51719 0.77661 0.18292 0.0
H1134 H 0.55956 0.72897 0.1308 0.0
H1135 H 0.54754 0.79164 0.15926 0.0
H1136 H 0.50807 0.64794 0.18936 0.0
H1137 H 0.47177 0.67825 0.13467 0.0
H1138 H 0.49726 0.61152 0.17436 0.0
H1139 H 0.46205 0.64129 0.12029 0.0
H1140 H 0.55603 0.65131 0.23306 0.0
H1141 H 0.59161 0.70828 0.209 0.0
H1142 H 0.47017 0.76795 0.10031 0.0
H1143 H 0.50624 0.71015 0.07989 0.0
Li1144 Li 0.76419 0.47782 0.69921 0.0
Li1145 Li 0.8032 0.46877 0.69333 0.0
Li1146 Li 0.78989 0.50777 0.69734 0.0
Li1147 Li 0.78229 0.48711 0.66225 0.0
C1148 C 0.78108 0.47663 0.74051 0.0
N1149 N 0.76374 0.46243 0.78157 0.0
C1150 C 0.78763 0.45653 0.74977 0.0
C1151 C 0.7659 0.48963 0.75224 0.0
C1152 C 0.77863 0.44961 0.77053 0.0
C1153 C 0.75726 0.48212 0.77294 0.0
C1154 C 0.78095 0.43847 0.66494 0.0
C1155 C 0.79977 0.41791 0.63566 0.0
N1156 N 0.7881 0.39974 0.64153 0.0
C1157 C 0.76901 0.41964 0.67057 0.0
C1158 C 0.79636 0.43765 0.64727 0.0
C1159 C 0.77292 0.4002 0.65858 0.0
C1160 C 0.71885 0.47848 0.70983 0.0
N1161 N 0.73771 0.46677 0.71206 0.0
C1162 C 0.71836 0.43726 0.72989 0.0
C1163 C 0.73785 0.44659 0.72196 0.0
C1164 C 0.69851 0.44869 0.72726 0.0
C1165 C 0.69894 0.46969 0.71733 0.0
H1166 H 0.71918 0.49439 0.70166 0.0
H1167 H 0.75303 0.43748 0.72314 0.0
C1168 C 0.84533 0.45948 0.70873 0.0
N1169 N 0.82657 0.44962 0.70149 0.0
C1170 C 0.86268 0.44693 0.7172 0.0
C1171 C 0.84131 0.41422 0.71006 0.0
C1172 C 0.82428 0.42743 0.70191 0.0
C1173 C 0.86068 0.42399 0.71817 0.0
H1174 H 0.84657 0.47719 0.70842 0.0
H1175 H 0.80902 0.41997 0.69671 0.0
C1176 C 0.75467 0.52635 0.6798 0.0
N1177 N 0.7416 0.56972 0.6783 0.0
C1178 C 0.75677 0.53836 0.65956 0.0
C1179 C 0.74576 0.53631 0.69923 0.0
C1180 C 0.75008 0.56029 0.65916 0.0
C1181 C 0.73931 0.55828 0.69814 0.0
C1182 C 0.82747 0.49921 0.65962 0.0
C1183 C 0.83143 0.52062 0.65208 0.0
C1184 C 0.84061 0.48206 0.65158 0.0
C1185 C 0.8481 0.52443 0.63617 0.0
C1186 C 0.85712 0.48653 0.63568 0.0
N1187 N 0.86048 0.50744 0.62835 0.0
C1188 C 0.8046 0.53428 0.73289 0.0
C1189 C 0.80042 0.55413 0.69833 0.0
C1190 C 0.81301 0.55275 0.74384 0.0
N1191 N 0.7986 0.53519 0.71052 0.0
C1192 C 0.80883 0.57309 0.70864 0.0
C1193 C 0.81544 0.57248 0.73168 0.0
H1194 H 0.80348 0.51898 0.74212 0.0
H1195 H 0.79579 0.55447 0.68051 0.0
C1196 C 0.76166 0.47259 0.62293 0.0
N1197 N 0.77716 0.48716 0.62994 0.0
C1198 C 0.75739 0.46964 0.59972 0.0
C1199 C 0.78394 0.49794 0.5912 0.0
C1200 C 0.78797 0.5001 0.61467 0.0
C1201 C 0.76882 0.48219 0.58353 0.0
H1202 H 0.75287 0.4629 0.63541 0.0
H1203 H 0.7998 0.51197 0.62059 0.0
O1204 O 0.78947 0.48355 0.72005 0.0
O1205 O 0.77731 0.45763 0.67655 0.0
O1206 O 0.7612 0.5049 0.68056 0.0
O1207 O 0.81139 0.49524 0.67542 0.0
H1208 H 0.79939 0.44629 0.74094 0.0
H1209 H 0.76075 0.50527 0.74533 0.0
H1210 H 0.78345 0.43403 0.77784 0.0
H1211 H 0.74539 0.49194 0.78213 0.0
H1212 H 0.81164 0.41706 0.62193 0.0
H1213 H 0.7569 0.42002 0.68408 0.0
H1214 H 0.80537 0.45215 0.64235 0.0
H1215 H 0.76387 0.38548 0.66282 0.0
H1216 H 0.71871 0.42089 0.73711 0.0
H1217 H 0.684 0.47907 0.71509 0.0
H1218 H 0.8774 0.45508 0.72318 0.0
H1219 H 0.83897 0.39661 0.7109 0.0
H1220 H 0.76359 0.53087 0.64437 0.0
H1221 H 0.74397 0.5272 0.715 0.0
H1222 H 0.75169 0.56982 0.64364 0.0
H1223 H 0.7325 0.56625 0.71307 0.0
H1224 H 0.82157 0.53411 0.65824 0.0
H1225 H 0.83823 0.46548 0.65767 0.0
H1226 H 0.85119 0.54089 0.63004 0.0
H1227 H 0.86734 0.47339 0.62926 0.0
H1228 H 0.81833 0.55131 0.76145 0.0
H1229 H 0.81034 0.58797 0.69864 0.0
H1230 H 0.74535 0.45758 0.59446 0.0
H1231 H 0.793 0.50797 0.57916 0.0
Li1232 Li 0.02892 0.80382 0.19124 0.0
Li1233 Li 0.01877 0.765 0.19759 0.0
Li1234 Li 0.01495 0.78225 0.16071 0.0
Li1235 Li 0.99003 0.79366 0.19206 0.0
C1236 C 0.0554 0.76826 0.16181 0.0
N1237 N 0.08012 0.74992 0.1271 0.0
C1238 C 0.05663 0.74546 0.15947 0.0
C1239 C 0.06693 0.78172 0.14663 0.0
C1240 C 0.06919 0.73651 0.14179 0.0
C1241 C 0.07928 0.77213 0.12915 0.0
C1242 C 0.01704 0.79037 0.23926 0.0
C1243 C 0.00656 0.78748 0.27894 0.0
N1244 N 0.02799 0.78939 0.28513 0.0
C1245 C 0.03893 0.79246 0.24603 0.0
C1246 C 0.00068 0.78801 0.25585 0.0
C1247 C 0.04415 0.79186 0.26929 0.0
C1248 C 0.03895 0.84183 0.21563 0.0
N1249 N 0.04795 0.82637 0.20177 0.0
C1250 C 0.0837 0.84153 0.20728 0.0
C1251 C 0.06982 0.82601 0.19727 0.0
C1252 C 0.07494 0.8574 0.22217 0.0
C1253 C 0.05218 0.85764 0.22597 0.0
H1254 H 0.02151 0.8415 0.21911 0.0
H1255 H 0.07657 0.81325 0.18653 0.0
C1256 C 0.0179 0.71888 0.20828 0.0
N1257 N 0.02786 0.73845 0.21255 0.0
C1258 C 0.02705 0.69936 0.2164 0.0
C1259 C 0.05643 0.72037 0.2334 0.0
C1260 C 0.04676 0.73946 0.22488 0.0
C1261 C 0.0468 0.69992 0.22878 0.0
H1262 H 0.00349 0.71815 0.19761 0.0
H1263 H 0.05505 0.75496 0.22701 0.0
C1264 C 0.01019 0.83399 0.16627 0.0
N1265 N 0.02065 0.87793 0.1621 0.0
C1266 C 0.99637 0.84999 0.17552 0.0
C1267 C 0.02917 0.84036 0.15461 0.0
C1268 C 0.00198 0.87212 0.1733 0.0
C1269 C 0.03423 0.86265 0.15277 0.0
C1270 C 0.9762 0.75071 0.18497 0.0
C1271 C 0.96413 0.73783 0.16971 0.0
C1272 C 0.97125 0.75013 0.2083 0.0
C1273 C 0.94731 0.72448 0.17809 0.0
C1274 C 0.95431 0.73657 0.21601 0.0
N1275 N 0.94279 0.72414 0.20087 0.0
C1276 C 0.01471 0.7536 0.12377 0.0
C1277 C 0.02032 0.79057 0.11258 0.0
C1278 C 0.01747 0.74647 0.1013 0.0
N1279 N 0.01655 0.77524 0.12901 0.0
C1280 C 0.02302 0.78417 0.08977 0.0
C1281 C 0.02195 0.76181 0.08399 0.0
H1282 H 0.01162 0.7418 0.13722 0.0
H1283 H 0.02162 0.80768 0.1172 0.0
C1284 C 0.96193 0.81951 0.21793 0.0
N1285 N 0.96204 0.80419 0.20107 0.0
C1286 C 0.94245 0.82994 0.22408 0.0
C1287 C 0.92328 0.80787 0.19614 0.0
C1288 C 0.94326 0.79805 0.19029 0.0
C1289 C 0.92274 0.82439 0.21297 0.0
H1290 H 0.97721 0.82428 0.22594 0.0
H1291 H 0.94385 0.78591 0.17682 0.0
O1292 O 0.04265 0.77735 0.17859 0.0
O1293 O 0.01149 0.79128 0.21659 0.0
O1294 O 0.00521 0.81221 0.16869 0.0
O1295 O 0.9925 0.76406 0.17693 0.0
H1296 H 0.04773 0.73477 0.17094 0.0
H1297 H 0.06619 0.79937 0.14816 0.0
H1298 H 0.07014 0.7189 0.13968 0.0
H1299 H 0.08814 0.78236 0.11718 0.0
H1300 H 0.99407 0.78561 0.29194 0.0
H1301 H 0.05182 0.79439 0.23348 0.0
H1302 H 0.9836 0.78668 0.25097 0.0
H1303 H 0.06105 0.79337 0.27475 0.0
H1304 H 0.10119 0.84056 0.20414 0.0
H1305 H 0.0447 0.8697 0.23711 0.0
H1306 H 0.01912 0.68393 0.21239 0.0
H1307 H 0.07195 0.72153 0.24235 0.0
H1308 H 0.98149 0.84541 0.18435 0.0
H1309 H 0.04006 0.82822 0.14737 0.0
H1310 H 0.99148 0.88466 0.18048 0.0
H1311 H 0.04899 0.86779 0.14399 0.0
H1312 H 0.96772 0.73818 0.15157 0.0
H1313 H 0.98044 0.75993 0.22031 0.0
H1314 H 0.93784 0.71442 0.16647 0.0
H1315 H 0.95033 0.73594 0.23403 0.0
H1316 H 0.01618 0.72912 0.09753 0.0
H1317 H 0.02653 0.79648 0.07692 0.0
H1318 H 0.94309 0.84286 0.23677 0.0
H1319 H 0.90851 0.80278 0.18731 0.0
Li1320 Li 0.69266 0.03186 0.68673 0.0
Li1321 Li 0.7312 0.02591 0.69808 0.0
Li1322 Li 0.71601 0.01074 0.66081 0.0
Li1323 Li 0.70578 0.99401 0.69725 0.0
C1324 C 0.71573 0.06227 0.66235 0.0
N1325 N 0.70722 0.10383 0.64564 0.0
C1326 C 0.72471 0.08068 0.67311 0.0
C1327 C 0.70277 0.06499 0.64284 0.0
C1328 C 0.72012 0.10156 0.66448 0.0
C1329 C 0.69856 0.08613 0.63472 0.0
C1330 C 0.70731 0.0221 0.73937 0.0
C1331 C 0.72428 0.00854 0.77385 0.0
N1332 N 0.71347 0.0241 0.78615 0.0
C1333 C 0.69621 0.03784 0.75236 0.0
C1334 C 0.72134 0.00724 0.7502 0.0
C1335 C 0.69961 0.03863 0.77598 0.0
C1336 C 0.64854 0.04783 0.6852 0.0
N1337 N 0.6697 0.05254 0.69068 0.0
C1338 C 0.65912 0.08712 0.70636 0.0
C1339 C 0.67519 0.07168 0.7011 0.0
C1340 C 0.637 0.08265 0.70136 0.0
C1341 C 0.63182 0.06276 0.69038 0.0
H1342 H 0.64455 0.03223 0.67744 0.0
H1343 H 0.69205 0.0747 0.7059 0.0
C1344 C 0.77605 0.03794 0.70731 0.0
N1345 N 0.75458 0.04105 0.71285 0.0
C1346 C 0.79221 0.05182 0.71637 0.0
C1347 C 0.76387 0.07113 0.73714 0.0
C1348 C 0.74837 0.0571 0.7276 0.0
C1349 C 0.78607 0.06904 0.73107 0.0
H1350 H 0.7805 0.02531 0.69518 0.0
H1351 H 0.73119 0.05978 0.73108 0.0
C1352 C 0.67397 0.99539 0.65413 0.0
N1353 N 0.6501 0.97927 0.61761 0.0
C1354 C 0.67027 0.97285 0.652 0.0
C1355 C 0.66516 0.00976 0.63793 0.0
C1356 C 0.65826 0.96501 0.63335 0.0
C1357 C 0.65325 0.00129 0.61952 0.0
C1358 C 0.74847 0.97854 0.68829 0.0
C1359 C 0.74891 0.96096 0.67295 0.0
C1360 C 0.76155 0.97789 0.70791 0.0
C1361 C 0.76195 0.9427 0.67786 0.0
C1362 C 0.77439 0.95935 0.71221 0.0
N1363 N 0.7743 0.94226 0.69724 0.0
C1364 C 0.73357 0.02081 0.61732 0.0
C1365 C 0.71784 0.98537 0.61994 0.0
C1366 C 0.73912 0.01721 0.59443 0.0
N1367 N 0.72298 0.00504 0.6295 0.0
C1368 C 0.72292 0.98112 0.59708 0.0
C1369 C 0.73376 0.99714 0.58396 0.0
H1370 H 0.73794 0.03613 0.62544 0.0
H1371 H 0.70993 0.97286 0.63008 0.0
C1372 C 0.68405 0.97034 0.73146 0.0
N1373 N 0.6965 0.96768 0.71237 0.0
C1374 C 0.67545 0.9522 0.74286 0.0
C1375 C 0.69166 0.9287 0.7142 0.0
C1376 C 0.70036 0.94736 0.70356 0.0
C1377 C 0.6791 0.93108 0.73416 0.0
H1378 H 0.68025 0.9866 0.73758 0.0
H1379 H 0.70951 0.94563 0.68787 0.0
O1380 O 0.71987 0.04169 0.6707 0.0
O1381 O 0.7042 0.02114 0.71621 0.0
O1382 O 0.68582 0.00334 0.6722 0.0
O1383 O 0.736 0.99666 0.68362 0.0
H1384 H 0.73501 0.07892 0.68804 0.0
H1385 H 0.69616 0.05092 0.63396 0.0
H1386 H 0.72682 0.11596 0.67276 0.0
H1387 H 0.68848 0.08846 0.61969 0.0
H1388 H 0.73509 0.99713 0.78244 0.0
H1389 H 0.68515 0.04936 0.74428 0.0
H1390 H 0.72961 0.99466 0.74048 0.0
H1391 H 0.69121 0.05079 0.78624 0.0
H1392 H 0.664 0.10231 0.7145 0.0
H1393 H 0.61499 0.05843 0.68652 0.0
H1394 H 0.80911 0.04976 0.71107 0.0
H1395 H 0.75839 0.08396 0.7486 0.0
H1396 H 0.67677 0.9615 0.66448 0.0
H1397 H 0.66737 0.02727 0.63962 0.0
H1398 H 0.65544 0.94758 0.63139 0.0
H1399 H 0.64644 0.01224 0.60679 0.0
H1400 H 0.73914 0.96132 0.65752 0.0
H1401 H 0.76198 0.99163 0.7196 0.0
H1402 H 0.76228 0.92889 0.66624 0.0
H1403 H 0.78451 0.95859 0.72739 0.0
H1404 H 0.74787 0.02988 0.5852 0.0
H1405 H 0.71826 0.96548 0.58977 0.0
H1406 H 0.66536 0.95473 0.75789 0.0
H1407 H 0.69459 0.91265 0.70686 0.0
H1408 H 0.41412 0.15695 0.25965 0.0
H1409 H 0.39229 0.16736 0.18979 0.0
H1410 H 0.36049 0.14333 0.1967 0.0
H1411 H 0.40217 0.10107 0.2617 0.0
H1412 H 0.39305 0.10087 0.29103 0.0
H1413 H 0.41252 0.12114 0.28163 0.0
H1414 H 0.38676 0.15212 0.29586 0.0
H1415 H 0.36717 0.13189 0.30533 0.0
H1416 H 0.35882 0.15317 0.28576 0.0
H1417 H 0.33355 0.11507 0.20957 0.0
H1418 H 0.313 0.08485 0.22791 0.0
H1419 H 0.35222 0.09249 0.28931 0.0
C1420 C 0.40251 0.15439 0.24589 0.0
C1421 C 0.40565 0.16423 0.22423 0.0
C1422 C 0.39004 0.16042 0.20668 0.0
C1423 C 0.37194 0.1467 0.2104 0.0
C1424 C 0.36956 0.13699 0.23181 0.0
C1425 C 0.38432 0.14076 0.24932 0.0
C1426 C 0.37875 0.12716 0.27023 0.0
C1427 C 0.39775 0.11164 0.2765 0.0
C1428 C 0.3725 0.14197 0.29049 0.0
C1429 C 0.35903 0.1146 0.26144 0.0
C1430 C 0.35386 0.1207 0.23931 0.0
C1431 C 0.33721 0.11038 0.22701 0.0
C1432 C 0.32572 0.09319 0.2375 0.0
C1433 C 0.33094 0.08649 0.26004 0.0
C1434 C 0.34757 0.09761 0.27224 0.0
H1435 H 0.34086 0.4163 0.76595 0.0
H1436 H 0.321 0.38771 0.70118 0.0
H1437 H 0.34282 0.35466 0.70982 0.0
H1438 H 0.39499 0.39984 0.76352 0.0
H1439 H 0.39796 0.39413 0.79361 0.0
H1440 H 0.37811 0.41397 0.78413 0.0
H1441 H 0.3473 0.39265 0.80509 0.0
H1442 H 0.36712 0.37271 0.81472 0.0
H1443 H 0.34323 0.36393 0.799 0.0
H1444 H 0.371 0.32749 0.72254 0.0
H1445 H 0.40242 0.30745 0.73937 0.0
H1446 H 0.40364 0.35308 0.79618 0.0
C1447 C 0.34078 0.40291 0.75377 0.0
C1448 C 0.3291 0.40457 0.73293 0.0
C1449 C 0.32946 0.38669 0.71744 0.0
C1450 C 0.34189 0.36786 0.72215 0.0
C1451 C 0.35369 0.36703 0.74256 0.0
C1452 C 0.35305 0.38398 0.75825 0.0
C1453 C 0.36854 0.37975 0.77805 0.0
C1454 C 0.38593 0.398 0.77991 0.0
C1455 C 0.35578 0.3771 0.80055 0.0
C1456 C 0.37865 0.35821 0.77058 0.0
C1457 C 0.36971 0.35106 0.75015 0.0
C1458 C 0.37778 0.33264 0.73879 0.0
C1459 C 0.39562 0.32141 0.7484 0.0
C1460 C 0.40509 0.32858 0.76919 0.0
C1461 C 0.39623 0.34696 0.7806 0.0
H1462 H 0.08705 0.34033 0.25761 0.0
H1463 H 0.10837 0.33292 0.18718 0.0
H1464 H 0.1402 0.35675 0.19501 0.0
H1465 H 0.09794 0.39588 0.26157 0.0
H1466 H 0.10713 0.3954 0.29087 0.0
H1467 H 0.08811 0.37499 0.28086 0.0
H1468 H 0.11459 0.34417 0.29398 0.0
H1469 H 0.13372 0.36454 0.3041 0.0
H1470 H 0.14253 0.34406 0.28383 0.0
H1471 H 0.16663 0.38519 0.20886 0.0
H1472 H 0.18615 0.41563 0.22803 0.0
H1473 H 0.14748 0.40496 0.28928 0.0
C1474 C 0.09858 0.34344 0.2439 0.0
C1475 C 0.09523 0.33464 0.2218 0.0
C1476 C 0.11076 0.3391 0.20437 0.0
C1477 C 0.12887 0.35271 0.20862 0.0
C1478 C 0.13132 0.3616 0.23043 0.0
C1479 C 0.11669 0.35702 0.24785 0.0
C1480 C 0.12199 0.37007 0.2692 0.0
C1481 C 0.10265 0.38497 0.27601 0.0
C1482 C 0.1286 0.35479 0.28894 0.0
C1483 C 0.14139 0.38333 0.26081 0.0
C1484 C 0.14667 0.37801 0.23848 0.0
C1485 C 0.1629 0.38924 0.22645 0.0
C1486 C 0.17381 0.40654 0.23742 0.0
C1487 C 0.16841 0.41247 0.26015 0.0
C1488 C 0.15227 0.40042 0.27208 0.0
H1489 H 0.14705 0.07453 0.75021 0.0
H1490 H 0.18635 0.1145 0.70447 0.0
H1491 H 0.16454 0.14717 0.71528 0.0
H1492 H 0.09652 0.09944 0.73796 0.0
H1493 H 0.08614 0.09762 0.76677 0.0
H1494 H 0.10592 0.07793 0.75674 0.0
H1495 H 0.13166 0.08764 0.79058 0.0
H1496 H 0.1119 0.10734 0.80077 0.0
H1497 H 0.13971 0.11579 0.79504 0.0
H1498 H 0.13704 0.1751 0.72991 0.0
H1499 H 0.10615 0.19579 0.74691 0.0
H1500 H 0.0849 0.13685 0.78226 0.0
C1501 C 0.15143 0.09024 0.74285 0.0
C1502 C 0.16852 0.09203 0.72665 0.0
C1503 C 0.17328 0.11278 0.7169 0.0
C1504 C 0.16106 0.13141 0.723 0.0
C1505 C 0.14414 0.129 0.73886 0.0
C1506 C 0.13938 0.10891 0.74867 0.0
C1507 C 0.1197 0.11037 0.76435 0.0
C1508 C 0.10097 0.09546 0.75594 0.0
C1509 C 0.12613 0.10497 0.78916 0.0
C1510 C 0.11395 0.13436 0.76167 0.0
C1511 C 0.12828 0.1449 0.74703 0.0
C1512 C 0.12578 0.16702 0.74149 0.0
C1513 C 0.10811 0.17859 0.75111 0.0
C1514 C 0.09313 0.168 0.76602 0.0
C1515 C 0.09628 0.1456 0.77134 0.0
H1516 H 0.59178 0.83478 0.74432 0.0
H1517 H 0.60115 0.83854 0.81788 0.0
H1518 H 0.63237 0.86348 0.81217 0.0
H1519 H 0.65062 0.83933 0.72812 0.0
H1520 H 0.64456 0.85626 0.70364 0.0
H1521 H 0.62495 0.83607 0.71316 0.0
H1522 H 0.5952 0.86631 0.71644 0.0
H1523 H 0.61468 0.88653 0.70694 0.0
H1524 H 0.60053 0.8902 0.73375 0.0
H1525 H 0.65926 0.89152 0.79918 0.0
H1526 H 0.6803 0.92057 0.77945 0.0
H1527 H 0.65369 0.89924 0.71436 0.0
C1528 C 0.60058 0.84059 0.75923 0.0
C1529 C 0.59405 0.83442 0.78156 0.0
C1530 C 0.60606 0.84249 0.80057 0.0
C1531 C 0.6238 0.85681 0.79752 0.0
C1532 C 0.62949 0.86288 0.77535 0.0
C1533 C 0.61834 0.85495 0.7565 0.0
C1534 C 0.62667 0.86545 0.73465 0.0
C1535 C 0.63734 0.84825 0.71897 0.0
C1536 C 0.60817 0.87786 0.72223 0.0
C1537 C 0.64367 0.88109 0.74427 0.0
C1538 C 0.6452 0.87913 0.76778 0.0
C1539 C 0.65851 0.89295 0.78074 0.0
C1540 C 0.67032 0.90943 0.76944 0.0
C1541 C 0.66876 0.91194 0.74543 0.0
C1542 C 0.65557 0.8973 0.73268 0.0
H1543 H 0.5839 0.65411 0.26101 0.0
H1544 H 0.61668 0.67837 0.20014 0.0
H1545 H 0.64991 0.6575 0.21068 0.0
H1546 H 0.63275 0.65178 0.29857 0.0
H1547 H 0.62372 0.62668 0.3119 0.0
H1548 H 0.60383 0.64615 0.30142 0.0
H1549 H 0.58603 0.61574 0.27658 0.0
H1550 H 0.60581 0.59624 0.28694 0.0
H1551 H 0.6028 0.60066 0.25661 0.0
H1552 H 0.67797 0.63063 0.22552 0.0
H1553 H 0.69843 0.60008 0.24334 0.0
H1554 H 0.64648 0.59238 0.29347 0.0
C1555 C 0.59813 0.65527 0.24999 0.0
C1556 C 0.59764 0.66795 0.22974 0.0
C1557 C 0.61673 0.66909 0.21593 0.0
C1558 C 0.63567 0.65721 0.22174 0.0
C1559 C 0.63533 0.64437 0.24148 0.0
C1560 C 0.61707 0.64344 0.25546 0.0
C1561 C 0.62017 0.62706 0.27465 0.0
C1562 C 0.62012 0.63861 0.29802 0.0
C1563 C 0.60267 0.60885 0.27361 0.0
C1564 C 0.64274 0.61833 0.26886 0.0
C1565 C 0.65136 0.62874 0.24987 0.0
C1566 C 0.67148 0.62255 0.24055 0.0
C1567 C 0.68291 0.60508 0.2507 0.0
C1568 C 0.67411 0.59385 0.26986 0.0
C1569 C 0.65392 0.60091 0.27919 0.0
H1570 H 0.9082 0.66326 0.74575 0.0
H1571 H 0.89199 0.66381 0.8182 0.0
H1572 H 0.85956 0.64118 0.81039 0.0
H1573 H 0.85179 0.66118 0.72304 0.0
H1574 H 0.85914 0.64216 0.7007 0.0
H1575 H 0.87908 0.66158 0.71114 0.0
H1576 H 0.90592 0.62975 0.7202 0.0
H1577 H 0.88613 0.61029 0.70973 0.0
H1578 H 0.89692 0.60754 0.7383 0.0
H1579 H 0.83088 0.61565 0.7957 0.0
H1580 H 0.80943 0.58734 0.77549 0.0
H1581 H 0.84596 0.60066 0.71327 0.0
C1582 C 0.89784 0.65881 0.76005 0.0
C1583 C 0.90276 0.66575 0.78261 0.0
C1584 C 0.88846 0.65946 0.80064 0.0
C1585 C 0.86996 0.64641 0.79642 0.0
C1586 C 0.86593 0.63957 0.7741 0.0
C1587 C 0.8795 0.64545 0.75622 0.0
C1588 C 0.87282 0.63402 0.73426 0.0
C1589 C 0.86525 0.65074 0.71622 0.0
C1590 C 0.89156 0.61954 0.7251 0.0
C1591 C 0.85376 0.6203 0.74278 0.0
C1592 C 0.8498 0.6241 0.76571 0.0
C1593 C 0.83373 0.61263 0.77771 0.0
C1594 C 0.82173 0.59648 0.76611 0.0
C1595 C 0.82604 0.59169 0.7428 0.0
C1596 C 0.84197 0.60417 0.73094 0.0
H1597 H 0.84768 0.90506 0.28569 0.0
H1598 H 0.80951 0.9163 0.22409 0.0
H1599 H 0.83052 0.88732 0.20431 0.0
H1600 H 0.89783 0.89746 0.25939 0.0
H1601 H 0.90738 0.8761 0.27825 0.0
H1602 H 0.8878 0.89592 0.28836 0.0
H1603 H 0.86107 0.86465 0.29962 0.0
H1604 H 0.88068 0.84466 0.28969 0.0
H1605 H 0.85311 0.84462 0.2785 0.0
H1606 H 0.85833 0.86013 0.19011 0.0
H1607 H 0.89034 0.83652 0.18271 0.0
H1608 H 0.90887 0.84126 0.25431 0.0
C1609 C 0.84326 0.90101 0.26825 0.0
C1610 C 0.82691 0.91298 0.25646 0.0
C1611 C 0.82211 0.90753 0.23343 0.0
C1612 C 0.83384 0.89097 0.22209 0.0
C1613 C 0.85015 0.87983 0.23409 0.0
C1614 C 0.85472 0.88447 0.25673 0.0
C1615 C 0.87397 0.87109 0.26532 0.0
C1616 C 0.89285 0.88604 0.27329 0.0
C1617 C 0.86677 0.85532 0.28442 0.0
C1618 C 0.87998 0.85872 0.24376 0.0
C1619 C 0.86594 0.86383 0.22599 0.0
C1620 C 0.86916 0.85563 0.20401 0.0
C1621 C 0.88737 0.84208 0.20002 0.0
C1622 C 0.90219 0.83681 0.21792 0.0
C1623 C 0.89803 0.84499 0.24016 0.0
H1624 H 0.56455 0.3168 0.27049 0.0
H1625 H 0.55994 0.33423 0.19862 0.0
H1626 H 0.58103 0.36792 0.20598 0.0
H1627 H 0.56039 0.37279 0.29287 0.0
H1628 H 0.57996 0.36803 0.31546 0.0
H1629 H 0.56337 0.34573 0.30494 0.0
H1630 H 0.59852 0.32323 0.29643 0.0
H1631 H 0.6152 0.34547 0.30687 0.0
H1632 H 0.61952 0.33488 0.27843 0.0
H1633 H 0.60476 0.39799 0.2201 0.0
H1634 H 0.629 0.42352 0.24038 0.0
H1635 H 0.61721 0.38818 0.30386 0.0
C1636 C 0.56788 0.32779 0.25636 0.0
C1637 C 0.56035 0.32297 0.23402 0.0
C1638 C 0.56509 0.33777 0.21597 0.0
C1639 C 0.57719 0.3569 0.21993 0.0
C1640 C 0.58441 0.36112 0.24207 0.0
C1641 C 0.57988 0.34711 0.26004 0.0
C1642 C 0.59013 0.35538 0.28206 0.0
C1643 C 0.5724 0.36081 0.29988 0.0
C1644 C 0.60683 0.33875 0.2915 0.0
C1645 C 0.60141 0.37601 0.27351 0.0
C1646 C 0.59784 0.37895 0.2504 0.0
C1647 C 0.60736 0.39613 0.23831 0.0
C1648 C 0.62099 0.41073 0.25013 0.0
C1649 C 0.62488 0.40828 0.27394 0.0
C1650 C 0.61474 0.39065 0.28571 0.0
H1651 H 0.16772 0.55249 0.75187 0.0
H1652 H 0.18557 0.58846 0.69053 0.0
H1653 H 0.15731 0.61613 0.69914 0.0
H1654 H 0.10867 0.56334 0.74829 0.0
H1655 H 0.10549 0.56618 0.7788 0.0
H1656 H 0.12654 0.54852 0.76741 0.0
H1657 H 0.15594 0.56973 0.79058 0.0
H1658 H 0.135 0.58747 0.80199 0.0
H1659 H 0.15823 0.59905 0.78721 0.0
H1660 H 0.12936 0.64123 0.71547 0.0
H1661 H 0.10145 0.66144 0.73785 0.0
H1662 H 0.10021 0.60904 0.78795 0.0
C1663 C 0.16553 0.56613 0.74021 0.0
C1664 C 0.17871 0.56822 0.72041 0.0
C1665 C 0.1754 0.5863 0.70556 0.0
C1666 C 0.15948 0.60218 0.71036 0.0
C1667 C 0.14685 0.59971 0.73001 0.0
C1668 C 0.1495 0.58208 0.74463 0.0
C1669 C 0.13386 0.58361 0.76476 0.0
C1670 C 0.11768 0.56426 0.76481 0.0
C1671 C 0.14652 0.58505 0.78747 0.0
C1672 C 0.12232 0.60503 0.75932 0.0
C1673 C 0.13016 0.61403 0.73921 0.0
C1674 C 0.12288 0.63425 0.73109 0.0
C1675 C 0.10713 0.64561 0.74387 0.0
C1676 C 0.09874 0.63661 0.76436 0.0
C1677 C 0.10628 0.61603 0.77213 0.0
H1678 H 0.85461 0.12252 0.27602 0.0
H1679 H 0.90202 0.07939 0.30849 0.0
H1680 H 0.93192 0.10442 0.29696 0.0
H1681 H 0.88733 0.13745 0.22832 0.0
H1682 H 0.87801 0.16551 0.22766 0.0
H1683 H 0.86036 0.14435 0.23875 0.0
H1684 H 0.85649 0.16573 0.27686 0.0
H1685 H 0.87408 0.18702 0.26586 0.0
H1686 H 0.88081 0.17357 0.29241 0.0
H1687 H 0.95681 0.13375 0.28074 0.0
H1688 H 0.97447 0.16573 0.26218 0.0
H1689 H 0.91049 0.18991 0.24159 0.0
C1690 C 0.87122 0.11846 0.28106 0.0
C1691 C 0.87592 0.09894 0.29317 0.0
C1692 C 0.898 0.09409 0.29896 0.0
C1693 C 0.91509 0.10827 0.29261 0.0
C1694 C 0.90985 0.12729 0.28057 0.0
C1695 C 0.88843 0.13245 0.27497 0.0
C1696 C 0.88715 0.15377 0.26178 0.0
C1697 C 0.87766 0.15004 0.2377 0.0
C1698 C 0.87385 0.17104 0.27503 0.0
C1699 C 0.91121 0.1598 0.26077 0.0
C1700 C 0.92408 0.14429 0.27162 0.0
C1701 C 0.94688 0.14606 0.27231 0.0
C1702 C 0.95677 0.16419 0.26166 0.0
C1703 C 0.94383 0.18034 0.25062 0.0
C1704 C 0.92077 0.17803 0.25025 0.0
H1705 H 0.30854 0.90289 0.73237 0.0
H1706 H 0.33083 0.96802 0.75179 0.0
H1707 H 0.36489 0.95197 0.76724 0.0
H1708 H 0.32838 0.87581 0.78305 0.0
H1709 H 0.33581 0.85107 0.76804 0.0
H1710 H 0.31362 0.86785 0.75764 0.0
H1711 H 0.33276 0.87069 0.71816 0.0
H1712 H 0.35506 0.854 0.72846 0.0
H1713 H 0.36055 0.88073 0.71656 0.0
H1714 H 0.3969 0.92871 0.78021 0.0
H1715 H 0.42318 0.89974 0.79178 0.0
H1716 H 0.37867 0.84998 0.76612 0.0
C1717 C 0.32037 0.91386 0.74012 0.0
C1718 C 0.3169 0.93681 0.7407 0.0
C1719 C 0.33317 0.95045 0.75067 0.0
C1720 C 0.35256 0.94148 0.75965 0.0
C1721 C 0.35538 0.91881 0.75875 0.0
C1722 C 0.33964 0.90518 0.74942 0.0
C1723 C 0.34636 0.88132 0.75105 0.0
C1724 C 0.33007 0.86825 0.76583 0.0
C1725 C 0.34883 0.87109 0.72713 0.0
C1726 C 0.36835 0.88364 0.7628 0.0
C1727 C 0.37339 0.9054 0.7669 0.0
C1728 C 0.39308 0.91161 0.77718 0.0
C1729 C 0.40792 0.89511 0.78359 0.0
C1730 C 0.40284 0.87271 0.77992 0.0
C1731 C 0.38282 0.86699 0.76935 0.0
H1732 H 0.5828 0.17482 0.7798 0.0
H1733 H 0.53003 0.17959 0.73026 0.0
H1734 H 0.54657 0.14923 0.70801 0.0
H1735 H 0.62554 0.16501 0.74056 0.0
H1736 H 0.63998 0.14584 0.75858 0.0
H1737 H 0.62322 0.1669 0.77124 0.0
H1738 H 0.60104 0.13736 0.79326 0.0
H1739 H 0.61785 0.1162 0.78077 0.0
H1740 H 0.58844 0.11516 0.77767 0.0
H1741 H 0.57062 0.12008 0.68981 0.0
H1742 H 0.5992 0.09358 0.67807 0.0
H1743 H 0.63518 0.10733 0.74059 0.0
C1744 C 0.57466 0.16938 0.76433 0.0
C1745 C 0.55516 0.17952 0.75671 0.0
C1746 C 0.54487 0.17186 0.7365 0.0
C1747 C 0.55419 0.15472 0.72372 0.0
C1748 C 0.57365 0.14531 0.73154 0.0
C1749 C 0.58363 0.15224 0.75152 0.0
C1750 C 0.60462 0.13975 0.75606 0.0
C1751 C 0.62451 0.15531 0.75663 0.0
C1752 C 0.60287 0.12632 0.77825 0.0
C1753 C 0.60519 0.12501 0.73526 0.0
C1754 C 0.5872 0.12838 0.72132 0.0
C1755 C 0.58464 0.11711 0.70074 0.0
C1756 C 0.60092 0.10202 0.69427 0.0
C1757 C 0.61951 0.09833 0.70835 0.0
C1758 C 0.62141 0.10993 0.7292 0.0
H1759 H 0.38306 0.62715 0.2069 0.0
H1760 H 0.43557 0.60595 0.25195 0.0
H1761 H 0.41046 0.57946 0.27021 0.0
H1762 H 0.34091 0.62558 0.24722 0.0
H1763 H 0.32015 0.61527 0.22805 0.0
H1764 H 0.34269 0.63112 0.21698 0.0
H1765 H 0.35262 0.59954 0.18916 0.0
H1766 H 0.32999 0.58361 0.20006 0.0
H1767 H 0.35735 0.57238 0.20032 0.0
H1768 H 0.37925 0.55699 0.28517 0.0
H1769 H 0.3438 0.54036 0.29612 0.0
H1770 H 0.31156 0.57599 0.24134 0.0
C1771 C 0.3894 0.61657 0.22024 0.0
C1772 C 0.41128 0.61861 0.228 0.0
C1773 C 0.41882 0.6048 0.24586 0.0
C1774 C 0.40473 0.58961 0.25624 0.0
C1775 C 0.38317 0.5883 0.24848 0.0
C1776 C 0.37554 0.60131 0.23082 0.0
C1777 C 0.35133 0.59742 0.22654 0.0
C1778 C 0.33799 0.61861 0.22991 0.0
C1779 C 0.34761 0.58765 0.2026 0.0
C1780 C 0.34641 0.58073 0.24504 0.0
C1781 C 0.36508 0.57545 0.25727 0.0
C1782 C 0.36456 0.5608 0.27556 0.0
C1783 C 0.34438 0.55139 0.2816 0.0
C1784 C 0.32498 0.55683 0.26953 0.0
C1785 C 0.32612 0.57159 0.25092 0.0
H1786 H 0.8779 0.38505 0.7027 0.0
H1787 H 0.88229 0.4321 0.75821 0.0
H1788 H 0.90939 0.40846 0.77767 0.0
H1789 H 0.88026 0.33746 0.73655 0.0
H1790 H 0.89676 0.32183 0.71682 0.0
H1791 H 0.87907 0.34324 0.70633 0.0
H1792 H 0.91225 0.36199 0.68662 0.0
H1793 H 0.93004 0.34056 0.697 0.0
H1794 H 0.93616 0.36886 0.70331 0.0
H1795 H 0.93298 0.37814 0.79284 0.0
H1796 H 0.95252 0.34399 0.8021 0.0
H1797 H 0.93476 0.31749 0.73556 0.0
C1798 C 0.88473 0.39044 0.71885 0.0
C1799 C 0.87808 0.41044 0.72892 0.0
C1800 C 0.8874 0.417 0.75004 0.0
C1801 C 0.90273 0.40364 0.76126 0.0
C1802 C 0.90876 0.38391 0.75101 0.0
C1803 C 0.90023 0.37742 0.73017 0.0
C1804 C 0.90893 0.35511 0.72323 0.0
C1805 C 0.89014 0.33843 0.72059 0.0
C1806 C 0.92267 0.35674 0.70124 0.0
C1807 C 0.92319 0.34982 0.74372 0.0
C1808 C 0.92291 0.36667 0.7595 0.0
C1809 C 0.93371 0.365 0.78041 0.0
C1810 C 0.94495 0.34552 0.78543 0.0
C1811 C 0.94549 0.32791 0.76954 0.0
C1812 C 0.93466 0.33041 0.74826 0.0
H1813 H 0.11109 0.87954 0.20583 0.0
H1814 H 0.07214 0.86948 0.26712 0.0
H1815 H 0.09712 0.89366 0.28868 0.0
H1816 H 0.16292 0.87805 0.23301 0.0
H1817 H 0.17509 0.89901 0.21534 0.0
H1818 H 0.15321 0.88229 0.20421 0.0
H1819 H 0.13076 0.91726 0.19473 0.0
H1820 H 0.15261 0.93411 0.20583 0.0
H1821 H 0.12519 0.93694 0.21701 0.0
H1822 H 0.12743 0.91694 0.30418 0.0
H1823 H 0.1612 0.93765 0.31265 0.0
H1824 H 0.1805 0.93292 0.24131 0.0
C1825 C 0.10777 0.8825 0.22376 0.0
C1826 C 0.08954 0.87275 0.23473 0.0
C1827 C 0.08573 0.8771 0.25822 0.0
C1828 C 0.09989 0.89073 0.27065 0.0
C1829 C 0.11776 0.89996 0.25935 0.0
C1830 C 0.12172 0.8961 0.23643 0.0
C1831 C 0.14254 0.90743 0.22862 0.0
C1832 C 0.15943 0.89069 0.21978 0.0
C1833 C 0.13746 0.92498 0.21047 0.0
C1834 C 0.14993 0.9178 0.25087 0.0
C1835 C 0.13529 0.91345 0.26832 0.0
C1836 C 0.1389 0.92069 0.29059 0.0
C1837 C 0.15808 0.93258 0.2952 0.0
C1838 C 0.17347 0.93708 0.27763 0.0
C1839 C 0.16914 0.92969 0.25514 0.0
H1840 H 0.38624 0.60384 0.71003 0.0
H1841 H 0.33617 0.60196 0.76282 0.0
H1842 H 0.35679 0.6293 0.78519 0.0
H1843 H 0.43301 0.61007 0.74854 0.0
H1844 H 0.44744 0.62858 0.72977 0.0
H1845 H 0.42915 0.60825 0.71802 0.0
H1846 H 0.40751 0.63879 0.697 0.0
H1847 H 0.42571 0.6592 0.70869 0.0
H1848 H 0.39653 0.66147 0.71316 0.0
H1849 H 0.38172 0.65744 0.80126 0.0
H1850 H 0.40943 0.68544 0.8101 0.0
H1851 H 0.44446 0.66894 0.74767 0.0
C1852 C 0.37976 0.60906 0.7264 0.0
C1853 C 0.35951 0.60089 0.73461 0.0
C1854 C 0.35145 0.60826 0.756 0.0
C1855 C 0.36312 0.62366 0.76893 0.0
C1856 C 0.38289 0.63153 0.76029 0.0
C1857 C 0.3912 0.62455 0.73955 0.0
C1858 C 0.41257 0.63621 0.73402 0.0
C1859 C 0.43167 0.6198 0.7325 0.0
C1860 C 0.41044 0.64972 0.7119 0.0
C1861 C 0.41479 0.65093 0.75481 0.0
C1862 C 0.39752 0.64782 0.76976 0.0
C1863 C 0.39549 0.65985 0.78986 0.0
C1864 C 0.41149 0.67562 0.79481 0.0
C1865 C 0.42941 0.67926 0.77979 0.0
C1866 C 0.43102 0.66661 0.75954 0.0
H1867 H 0.88383 0.37278 0.20032 0.0
H1868 H 0.91835 0.35788 0.26334 0.0
H1869 H 0.89448 0.38375 0.28424 0.0
H1870 H 0.87432 0.43118 0.21223 0.0
H1871 H 0.84735 0.43102 0.19956 0.0
H1872 H 0.86816 0.41252 0.18917 0.0
H1873 H 0.8423 0.37949 0.19654 0.0
H1874 H 0.82144 0.39787 0.20691 0.0
H1875 H 0.83082 0.37557 0.22466 0.0
H1876 H 0.86611 0.4099 0.29858 0.0
H1877 H 0.83374 0.43318 0.30586 0.0
H1878 H 0.81736 0.43116 0.23363 0.0
C1879 C 0.88652 0.37523 0.21845 0.0
C1880 C 0.9029 0.36335 0.23024 0.0
C1881 C 0.90574 0.36668 0.25404 0.0
C1882 C 0.89239 0.38145 0.26602 0.0
C1883 C 0.87628 0.39277 0.25394 0.0
C1884 C 0.87322 0.38981 0.23071 0.0
C1885 C 0.85389 0.40311 0.22212 0.0
C1886 C 0.86138 0.42049 0.20474 0.0
C1887 C 0.83606 0.38811 0.21197 0.0
C1888 C 0.84633 0.41365 0.24423 0.0
C1889 C 0.85967 0.4077 0.2623 0.0
C1890 C 0.85565 0.41486 0.28454 0.0
C1891 C 0.83731 0.4282 0.28848 0.0
C1892 C 0.82309 0.4341 0.2703 0.0
C1893 C 0.8279 0.4269 0.24787 0.0
H1894 H 0.08949 0.80903 0.76076 0.0
H1895 H 0.02403 0.83353 0.74614 0.0
H1896 H 0.0402 0.86682 0.72892 0.0
H1897 H 0.11408 0.86018 0.77474 0.0
H1898 H 0.13991 0.85383 0.76127 0.0
H1899 H 0.12313 0.83209 0.77262 0.0
H1900 H 0.12318 0.81286 0.73307 0.0
H1901 H 0.14 0.83454 0.72159 0.0
H1902 H 0.11423 0.82783 0.70816 0.0
H1903 H 0.06375 0.89793 0.71398 0.0
H1904 H 0.09281 0.92372 0.70156 0.0
H1905 H 0.14252 0.87771 0.72431 0.0
C1906 C 0.07847 0.82118 0.75366 0.0
C1907 C 0.05542 0.81855 0.75485 0.0
C1908 C 0.04171 0.83522 0.74577 0.0
C1909 C 0.05075 0.85415 0.7358 0.0
C1910 C 0.07352 0.85611 0.7349 0.0
C1911 C 0.08718 0.84001 0.74349 0.0
C1912 C 0.1111 0.846 0.74039 0.0
C1913 C 0.12273 0.84815 0.76364 0.0
C1914 C 0.12281 0.82931 0.72488 0.0
C1915 C 0.1088 0.86804 0.72874 0.0
C1916 C 0.08701 0.87367 0.72582 0.0
C1917 C 0.08086 0.89362 0.71606 0.0
C1918 C 0.09744 0.90817 0.70913 0.0
C1919 C 0.11986 0.9026 0.71183 0.0
C1920 C 0.12552 0.88222 0.72169 0.0
H1921 H 0.61724 0.14846 0.23108 0.0
H1922 H 0.57713 0.09843 0.19892 0.0
H1923 H 0.60348 0.06992 0.21149 0.0
H1924 H 0.66996 0.12496 0.21791 0.0
H1925 H 0.68194 0.1325 0.24499 0.0
H1926 H 0.66018 0.14885 0.23298 0.0
H1927 H 0.63746 0.14387 0.27011 0.0
H1928 H 0.65916 0.12752 0.28223 0.0
H1929 H 0.63173 0.11658 0.28041 0.0
H1930 H 0.63475 0.04707 0.2271 0.0
H1931 H 0.66763 0.03146 0.24559 0.0
H1932 H 0.68588 0.09649 0.26942 0.0
C1933 C 0.61414 0.13152 0.2265 0.0
C1934 C 0.59528 0.1256 0.2139 0.0
C1935 C 0.5915 0.10324 0.20861 0.0
C1936 C 0.60638 0.08699 0.21561 0.0
C1937 C 0.62482 0.09338 0.22807 0.0
C1938 C 0.62866 0.1151 0.23359 0.0
C1939 C 0.64933 0.1176 0.24769 0.0
C1940 C 0.66636 0.13182 0.23513 0.0
C1941 C 0.6441 0.12694 0.27152 0.0
C1942 C 0.65665 0.09391 0.24911 0.0
C1943 C 0.64237 0.08019 0.23762 0.0
C1944 C 0.64595 0.05765 0.23632 0.0
C1945 C 0.66462 0.04891 0.24705 0.0
C1946 C 0.67943 0.06266 0.25911 0.0
C1947 C 0.67518 0.08547 0.26013 0.0
H1948 H 0.44151 0.82832 0.2486 0.0
H1949 H 0.39758 0.77262 0.25572 0.0
H1950 H 0.36906 0.79687 0.27143 0.0
H1951 H 0.42422 0.85683 0.30035 0.0
H1952 H 0.42612 0.8837 0.28761 0.0
H1953 H 0.44368 0.86188 0.27772 0.0
H1954 H 0.42965 0.86773 0.23633 0.0
H1955 H 0.4121 0.88957 0.24608 0.0
H1956 H 0.40059 0.86669 0.23066 0.0
H1957 H 0.3447 0.82689 0.28461 0.0
H1958 H 0.3259 0.86134 0.29504 0.0
H1959 H 0.38514 0.89802 0.27972 0.0
C1960 C 0.42591 0.82126 0.25353 0.0
C1961 C 0.42191 0.7985 0.25118 0.0
C1962 C 0.40125 0.78989 0.25782 0.0
C1963 C 0.38487 0.80355 0.26665 0.0
C1964 C 0.38934 0.82584 0.26878 0.0
C1965 C 0.40932 0.83469 0.26249 0.0
C1966 C 0.40957 0.85934 0.26617 0.0
C1967 C 0.42693 0.86581 0.28403 0.0
C1968 C 0.41319 0.87155 0.24346 0.0
C1969 C 0.38653 0.8629 0.27523 0.0
C1970 C 0.37519 0.84331 0.27659 0.0
C1971 C 0.35341 0.84234 0.28373 0.0
C1972 C 0.34286 0.86197 0.28952 0.0
C1973 C 0.35408 0.88227 0.28818 0.0
C1974 C 0.37627 0.88268 0.28115 0.0
H1975 H 0.68853 0.42506 0.76598 0.0
H1976 H 0.66102 0.4478 0.70174 0.0
H1977 H 0.62678 0.42767 0.70992 0.0
H1978 H 0.66706 0.37155 0.76379 0.0
H1979 H 0.66131 0.36954 0.79396 0.0
H1980 H 0.68302 0.38716 0.78404 0.0
H1981 H 0.66513 0.42022 0.80476 0.0
H1982 H 0.64338 0.40267 0.81483 0.0
H1983 H 0.63693 0.42712 0.79883 0.0
H1984 H 0.59723 0.40224 0.72299 0.0
H1985 H 0.57316 0.37477 0.74147 0.0
H1986 H 0.61894 0.36944 0.79795 0.0
C1987 C 0.67519 0.42597 0.75377 0.0
C1988 C 0.67738 0.43808 0.73327 0.0
C1989 C 0.65957 0.43891 0.71771 0.0
C1990 C 0.6401 0.42745 0.72215 0.0
C1991 C 0.6386 0.41542 0.74235 0.0
C1992 C 0.65554 0.41479 0.75805 0.0
C1993 C 0.64991 0.40007 0.77811 0.0
C1994 C 0.6663 0.38095 0.78008 0.0
C1995 C 0.64877 0.41332 0.80045 0.0
C1996 C 0.62739 0.39208 0.77093 0.0
C1997 C 0.6212 0.40117 0.75024 0.0
C1998 C 0.60172 0.39528 0.73936 0.0
C1999 C 0.58823 0.37965 0.74989 0.0
C2000 C 0.5942 0.37026 0.77113 0.0
C2001 C 0.6139 0.37673 0.78189 0.0
H2002 H 0.12729 0.62329 0.30174 0.0
H2003 H 0.12897 0.57991 0.24299 0.0
H2004 H 0.10105 0.60274 0.22368 0.0
H2005 H 0.06839 0.63663 0.29917 0.0
H2006 H 0.0726 0.66492 0.30703 0.0
H2007 H 0.0912 0.64409 0.31721 0.0
H2008 H 0.12398 0.66546 0.29986 0.0
H2009 H 0.10551 0.68632 0.28964 0.0
H2010 H 0.1236 0.67255 0.26992 0.0
H2011 H 0.07451 0.63085 0.21004 0.0
H2012 H 0.05241 0.66379 0.20182 0.0
H2013 H 0.0683 0.68984 0.26893 0.0
C2014 C 0.12146 0.6185 0.28497 0.0
C2015 C 0.13012 0.59986 0.27381 0.0
C2016 C 0.12251 0.5942 0.25171 0.0
C2017 C 0.10661 0.60698 0.24069 0.0
C2018 C 0.09856 0.62541 0.25198 0.0
C2019 C 0.10576 0.63127 0.27356 0.0
C2020 C 0.09552 0.65276 0.28113 0.0
C2021 C 0.08107 0.64939 0.3024 0.0
C2022 C 0.11321 0.67031 0.28538 0.0
C2023 C 0.08175 0.65819 0.26028 0.0
C2024 C 0.08351 0.64201 0.24384 0.0
C2025 C 0.07281 0.64354 0.22286 0.0
C2026 C 0.06018 0.66226 0.21841 0.0
C2027 C 0.05847 0.67932 0.23479 0.0
C2028 C 0.06928 0.67708 0.25608 0.0
H2029 H 0.90092 0.11676 0.77655 0.0
H2030 H 0.87077 0.18125 0.77357 0.0
H2031 H 0.83626 0.16459 0.76013 0.0
H2032 H 0.87528 0.09521 0.72618 0.0
H2033 H 0.87144 0.06801 0.73761 0.0
H2034 H 0.89384 0.08476 0.74759 0.0
H2035 H 0.8803 0.08031 0.78934 0.0
H2036 H 0.85792 0.06344 0.7795 0.0
H2037 H 0.85243 0.08753 0.79644 0.0
H2038 H 0.8056 0.14161 0.74622 0.0
H2039 H 0.77976 0.11329 0.73317 0.0
H2040 H 0.82889 0.06303 0.74568 0.0
C2041 C 0.88696 0.1273 0.77327 0.0
C2042 C 0.88855 0.15032 0.77593 0.0
C2043 C 0.87002 0.16363 0.77128 0.0
C2044 C 0.85032 0.15432 0.76376 0.0
C2045 C 0.84937 0.13166 0.761 0.0
C2046 C 0.86711 0.11826 0.76565 0.0
C2047 C 0.86162 0.0944 0.76088 0.0
C2048 C 0.87643 0.08505 0.74194 0.0
C2049 C 0.86316 0.08061 0.78285 0.0
C2050 C 0.83806 0.09655 0.75281 0.0
C2051 C 0.8314 0.11822 0.75307 0.0
C2052 C 0.81051 0.12455 0.74615 0.0
C2053 C 0.7959 0.10828 0.73891 0.0
C2054 C 0.80214 0.08586 0.73871 0.0
C2055 C 0.82362 0.08 0.74562 0.0
H2056 H 0.51933 0.22477 0.04406 0.0
H2057 H 0.48881 0.28396 0.07067 0.0
H2058 H 0.48482 0.29806 0.03145 0.0
H2059 H 0.54894 0.24948 0.99854 0.0
H2060 H 0.54415 0.22747 0.97856 0.0
H2061 H 0.54476 0.22189 0.0088 0.0
H2062 H 0.50601 0.20454 0.00638 0.0
H2063 H 0.50532 0.20995 0.97609 0.0
H2064 H 0.48374 0.22018 0.99427 0.0
H2065 H 0.48531 0.30642 0.9895 0.0
H2066 H 0.48889 0.30782 0.9476 0.0
H2067 H 0.51617 0.24191 0.94795 0.0
C2068 C 0.51155 0.24058 0.04171 0.0
C2069 C 0.50464 0.25331 0.06064 0.0
C2070 C 0.49477 0.27405 0.05662 0.0
C2071 C 0.49224 0.28216 0.03435 0.0
C2072 C 0.49938 0.26927 0.01617 0.0
C2073 C 0.50864 0.24884 0.01956 0.0
C2074 C 0.51477 0.23823 0.99701 0.0
C2075 C 0.53963 0.23403 0.99566 0.0
C2076 C 0.50167 0.21696 0.99322 0.0
C2077 C 0.50774 0.25602 0.98045 0.0
C2078 C 0.49895 0.27379 0.99187 0.0
C2079 C 0.4919 0.29248 0.98033 0.0
C2080 C 0.49386 0.29303 0.95644 0.0
C2081 C 0.50264 0.27492 0.94424 0.0
C2082 C 0.50957 0.25616 0.95659 0.0
H2083 H 0.23632 0.53103 0.45306 0.0
H2084 H 0.23356 0.46123 0.4385 0.0
H2085 H 0.24378 0.45321 0.47852 0.0
H2086 H 0.28333 0.52893 0.48986 0.0
H2087 H 0.27329 0.5498 0.50903 0.0
H2088 H 0.26516 0.55002 0.47941 0.0
H2089 H 0.22422 0.54957 0.49146 0.0
H2090 H 0.23223 0.5494 0.52112 0.0
H2091 H 0.21444 0.52821 0.51021 0.0
H2092 H 0.25529 0.45286 0.51997 0.0
H2093 H 0.26565 0.4602 0.56011 0.0
H2094 H 0.26157 0.53023 0.54722 0.0
C2095 C 0.23793 0.51405 0.45824 0.0
C2096 C 0.2341 0.49676 0.4426 0.0
C2097 C 0.23611 0.47476 0.45021 0.0
C2098 C 0.24206 0.47004 0.47287 0.0
C2099 C 0.24593 0.48748 0.48775 0.0
C2100 C 0.24384 0.50904 0.48077 0.0
C2101 C 0.24894 0.52479 0.5001 0.0
C2102 C 0.26886 0.53923 0.49424 0.0
C2103 C 0.22875 0.53882 0.50607 0.0
C2104 C 0.25426 0.50872 0.51904 0.0
C2105 C 0.25249 0.48728 0.51157 0.0
C2106 C 0.25674 0.46959 0.52601 0.0
C2107 C 0.26277 0.47393 0.54873 0.0
C2108 C 0.26447 0.49579 0.55682 0.0
C2109 C 0.26021 0.51334 0.54164 0.0
H2110 H 0.98609 0.27319 0.04457 0.0
H2111 H 0.00582 0.20981 0.07152 0.0
H2112 H 0.00916 0.19548 0.03218 0.0
H2113 H 0.95388 0.25271 0.99817 0.0
H2114 H 0.96198 0.27399 0.9785 0.0
H2115 H 0.9615 0.27943 0.00877 0.0
H2116 H 0.00227 0.29147 0.0073 0.0
H2117 H 0.00286 0.28613 0.977 0.0
H2118 H 0.02249 0.27303 0.99558 0.0
H2119 H 0.00986 0.18788 0.99003 0.0
H2120 H 0.00762 0.18743 0.94791 0.0
H2121 H 0.98837 0.25605 0.94833 0.0
C2122 C 0.99133 0.25636 0.04219 0.0
C2123 C 0.99563 0.2426 0.06113 0.0
C2124 C 0.00214 0.22057 0.05728 0.0
C2125 C 0.00422 0.21232 0.03501 0.0
C2126 C 0.99974 0.22629 0.01675 0.0
C2127 C 0.99344 0.24784 0.02007 0.0
C2128 C 0.98927 0.25929 0.99749 0.0
C2129 C 0.96523 0.26679 0.99563 0.0
C2130 C 0.00518 0.27862 0.99415 0.0
C2131 C 0.99417 0.2408 0.98096 0.0
C2132 C 0.00022 0.22192 0.99242 0.0
C2133 C 0.00528 0.2026 0.98085 0.0
C2134 C 0.0041 0.20256 0.9569 0.0
C2135 C 0.99792 0.22172 0.94474 0.0
C2136 C 0.99295 0.24107 0.95707 0.0
H2137 H 0.27124 0.96945 0.45413 0.0
H2138 H 0.26238 0.03854 0.43894 0.0
H2139 H 0.25191 0.04532 0.47924 0.0
H2140 H 0.22632 0.96374 0.49222 0.0
H2141 H 0.24029 0.94532 0.51146 0.0
H2142 H 0.24782 0.94609 0.48169 0.0
H2143 H 0.2882 0.95416 0.49281 0.0
H2144 H 0.28082 0.9533 0.52264 0.0
H2145 H 0.29429 0.97719 0.5111 0.0
H2146 H 0.23983 0.04392 0.52045 0.0
H2147 H 0.23011 0.03506 0.56053 0.0
H2148 H 0.24844 0.9672 0.54911 0.0
C2149 C 0.2672 0.98602 0.45936 0.0
C2150 C 0.26757 0.0035 0.4435 0.0
C2151 C 0.26237 0.02499 0.45093 0.0
C2152 C 0.2563 0.02895 0.47371 0.0
C2153 C 0.25581 0.01128 0.48885 0.0
C2154 C 0.2614 0.9903 0.48206 0.0
C2155 C 0.25957 0.97418 0.50168 0.0
C2156 C 0.24248 0.95628 0.49644 0.0
C2157 C 0.28206 0.96412 0.50739 0.0
C2158 C 0.25179 0.98931 0.52052 0.0
C2159 C 0.24957 0.01063 0.51274 0.0
C2160 C 0.24172 0.02735 0.52679 0.0
C2161 C 0.23614 0.02216 0.54943 0.0
C2162 C 0.23866 0.00051 0.5578 0.0
C2163 C 0.24663 0.98394 0.54315 0.0
H2164 H 0.47899 0.74125 0.95064 0.0
H2165 H 0.50891 0.80598 0.95238 0.0
H2166 H 0.51083 0.80398 0.99435 0.0
H2167 H 0.44694 0.74616 0.00114 0.0
H2168 H 0.4516 0.71838 0.01055 0.0
H2169 H 0.45228 0.72484 0.9805 0.0
H2170 H 0.49138 0.7084 0.97742 0.0
H2171 H 0.49079 0.70178 0.00744 0.0
H2172 H 0.51273 0.71834 0.99608 0.0
H2173 H 0.50823 0.79574 0.03622 0.0
H2174 H 0.50369 0.78047 0.07514 0.0
H2175 H 0.47805 0.72016 0.04624 0.0
C2176 C 0.48624 0.75491 0.95973 0.0
C2177 C 0.49352 0.77391 0.94801 0.0
C2178 C 0.50265 0.79146 0.96082 0.0
C2179 C 0.504 0.79043 0.98472 0.0
C2180 C 0.49645 0.77162 0.99566 0.0
C2181 C 0.488 0.75405 0.9836 0.0
C2182 C 0.48133 0.73561 0.99955 0.0
C2183 C 0.45656 0.73099 0.99783 0.0
C2184 C 0.49487 0.7148 0.99484 0.0
C2185 C 0.48721 0.74564 0.02246 0.0
C2186 C 0.49575 0.7665 0.01982 0.0
C2187 C 0.50172 0.77936 0.03851 0.0
C2188 C 0.49899 0.77063 0.06051 0.0
C2189 C 0.4906 0.74917 0.06359 0.0
C2190 C 0.48471 0.73653 0.04429 0.0
H2191 H 0.75995 0.51222 0.54959 0.0
H2192 H 0.77005 0.44275 0.56191 0.0
H2193 H 0.76376 0.43509 0.52096 0.0
H2194 H 0.7162 0.50553 0.50889 0.0
H2195 H 0.72463 0.52815 0.49108 0.0
H2196 H 0.73072 0.52843 0.52123 0.0
H2197 H 0.77203 0.53368 0.51229 0.0
H2198 H 0.76606 0.53349 0.48211 0.0
H2199 H 0.78574 0.51443 0.49374 0.0
H2200 H 0.75667 0.43484 0.47907 0.0
H2201 H 0.74788 0.44182 0.43851 0.0
H2202 H 0.74106 0.51132 0.45303 0.0
C2203 C 0.761 0.49545 0.54355 0.0
C2204 C 0.7655 0.47804 0.55882 0.0
C2205 C 0.76648 0.45626 0.55046 0.0
C2206 C 0.76301 0.45177 0.52725 0.0
C2207 C 0.75842 0.46923 0.51266 0.0
C2208 C 0.75729 0.49063 0.52042 0.0
C2209 C 0.75142 0.50622 0.50115 0.0
C2210 C 0.72943 0.51776 0.50588 0.0
C2211 C 0.76992 0.52294 0.49708 0.0
C2212 C 0.7495 0.49024 0.48137 0.0
C2213 C 0.75375 0.46901 0.48843 0.0
C2214 C 0.75329 0.45137 0.47331 0.0
C2215 C 0.74838 0.45551 0.45032 0.0
C2216 C 0.74385 0.47709 0.44267 0.0
C2217 C 0.74431 0.49464 0.45847 0.0
H2218 H 0.00563 0.77929 0.04406 0.0
H2219 H 0.0473 0.72731 0.07031 0.0
H2220 H 0.05317 0.71373 0.03101 0.0
H2221 H 0.97953 0.74746 0.0009 0.0
H2222 H 0.97853 0.76933 0.98016 0.0
H2223 H 0.97837 0.77564 0.01025 0.0
H2224 H 0.01241 0.8006 0.00489 0.0
H2225 H 0.01267 0.79438 0.97476 0.0
H2226 H 0.03682 0.78953 0.99184 0.0
H2227 H 0.05388 0.70526 0.98925 0.0
H2228 H 0.04902 0.70205 0.94753 0.0
H2229 H 0.00639 0.75915 0.94818 0.0
C2230 C 0.01621 0.76523 0.04147 0.0
C2231 C 0.02597 0.7543 0.06022 0.0
C2232 C 0.03945 0.73576 0.05621 0.0
C2233 C 0.043 0.72801 0.03395 0.0
C2234 C 0.03296 0.739 0.01588 0.0
C2235 C 0.01985 0.7572 0.01934 0.0
C2236 C 0.01045 0.76552 0.99696 0.0
C2237 C 0.98523 0.76441 0.99708 0.0
C2238 C 0.01858 0.78889 0.99181 0.0
C2239 C 0.02019 0.74903 0.98042 0.0
C2240 C 0.03321 0.73397 0.99171 0.0
C2241 C 0.04371 0.71695 0.98021 0.0
C2242 C 0.04072 0.71517 0.95652 0.0
C2243 C 0.02723 0.73026 0.94456 0.0
C2244 C 0.01699 0.7475 0.95675 0.0
H2245 H 0.73303 0.02603 0.54767 0.0
H2246 H 0.74824 0.95843 0.56516 0.0
H2247 H 0.75772 0.95107 0.5249 0.0
H2248 H 0.70962 0.01559 0.49254 0.0
H2249 H 0.7214 0.03964 0.47945 0.0
H2250 H 0.71531 0.03957 0.50959 0.0
H2251 H 0.75565 0.04985 0.51867 0.0
H2252 H 0.76184 0.05005 0.48855 0.0
H2253 H 0.77755 0.03298 0.50768 0.0
H2254 H 0.76539 0.95093 0.48273 0.0
H2255 H 0.77161 0.95827 0.44179 0.0
H2256 H 0.75351 0.0265 0.45222 0.0
C2257 C 0.73853 0.00971 0.54314 0.0
C2258 C 0.73971 0.99279 0.55967 0.0
C2259 C 0.74675 0.9716 0.55282 0.0
C2260 C 0.75233 0.96726 0.52999 0.0
C2261 C 0.75092 0.98431 0.5142 0.0
C2262 C 0.7443 0.00513 0.52047 0.0
C2263 C 0.7445 0.02061 0.50019 0.0
C2264 C 0.72133 0.02936 0.49515 0.0
C2265 C 0.76086 0.03948 0.50401 0.0
C2266 C 0.75227 0.00522 0.48154 0.0
C2267 C 0.7558 0.98434 0.48997 0.0
C2268 C 0.76284 0.96726 0.47596 0.0
C2269 C 0.76648 0.97165 0.45273 0.0
C2270 C 0.76322 0.99301 0.44369 0.0
C2271 C 0.75596 0.00994 0.45843 0.0
loop_
_geom_bond_atom_site_label_1
_geom_bond_atom_site_label_2
_geom_bond_distance
_geom_bond_site_symmetry_2
_ccdc_geom_bond_type
Li0 N17 1.990 . S
Li0 O60 1.956 . S
Li0 O61 1.970 . S
Li0 O62 1.961 . S
Li1 N25 1.990 . S
Li1 O60 1.970 . S
Li1 O61 1.956 . S
Li1 O63 1.961 . S
Li2 N47 1.990 . S
Li2 O60 1.961 . S
Li2 O62 1.956 . S
Li2 O63 1.970 . S
Li3 N53 1.990 . S
Li3 O61 1.961 . S
Li3 O62 1.970 . S
Li3 O63 1.956 . S
C4 C6 1.348 . S
C4 C7 1.356 . S
C4 O60 1.325 . S
N5 C8 1.314 . S
N5 C9 1.279 . S
C6 C4 1.348 . S
C6 C8 1.353 . S
C6 H64 0.929 . S
C7 C4 1.356 . S
C7 C9 1.358 . S
C7 H65 0.930 . S
C8 N5 1.314 . S
C8 C6 1.353 . S
C8 H66 0.930 . S
C9 N5 1.279 . S
C9 C7 1.358 . S
C9 H67 0.930 . S
C10 C13 1.348 . S
C10 C14 1.356 . S
C10 O61 1.325 . S
C11 N12 1.279 . S
C11 C14 1.358 . S
C11 H68 0.930 . S
N12 C11 1.279 . S
N12 C15 1.314 . S
C13 C10 1.348 . S
C13 C15 1.353 . S
C13 H69 0.929 . S
C14 C10 1.356 . S
C14 C11 1.358 . S
C14 H70 0.930 . S
C15 N12 1.314 . S
C15 C13 1.353 . S
C15 H71 0.930 . S
C16 N17 1.314 . S
C16 C21 1.353 . S
C16 H22 0.930 . S
N17 Li0 1.990 . S
N17 C16 1.314 . S
N17 C19 1.279 . S
C18 C19 1.358 . S
C18 C20 1.356 . S
C18 H72 0.930 . S
C19 N17 1.279 . S
C19 C18 1.358 . S
C19 H23 0.930 . S
C20 C18 1.356 . S
C20 C21 1.348 . S
C21 C16 1.353 . S
C21 C20 1.348 . S
C21 H73 0.929 . S
H22 C16 0.930 . S
H23 C19 0.930 . S
C24 N25 1.314 . S
C24 C26 1.353 . S
C24 H30 0.930 . S
N25 Li1 1.990 . S
N25 C24 1.314 . S
N25 C28 1.279 . S
C26 C24 1.353 . S
C26 C29 1.348 . S
C26 H74 0.929 . S
C27 C28 1.358 . S
C27 C29 1.356 . S
C27 H75 0.930 . S
C28 N25 1.279 . S
C28 C27 1.358 . S
C28 H31 0.930 . S
C29 C26 1.348 . S
C29 C27 1.356 . S
H30 C24 0.930 . S
H31 C28 0.930 . S
C32 C34 1.348 . S
C32 C35 1.356 . S
C32 O62 1.325 . S
N33 C36 1.314 . S
N33 C37 1.279 . S
C34 C32 1.348 . S
C34 C36 1.353 . S
C34 H76 0.929 . S
C35 C32 1.356 . S
C35 C37 1.358 . S
C35 H77 0.930 . S
C36 N33 1.314 . S
C36 C34 1.353 . S
C36 H78 0.930 . S
C37 N33 1.279 . S
C37 C35 1.358 . S
C37 H79 0.930 . S
C38 C39 1.348 . S
C38 C40 1.356 . S
C38 O63 1.325 . S
C39 C38 1.348 . S
C39 C41 1.353 . S
C39 H80 0.929 . S
C40 C38 1.356 . S
C40 C42 1.358 . S
C40 H81 0.930 . S
C41 C39 1.353 . S
C41 N43 1.314 . S
C41 H82 0.930 . S
C42 C40 1.358 . S
C42 N43 1.279 . S
C42 H83 0.930 . S
N43 C41 1.314 . S
N43 C42 1.279 . S
C44 C46 1.353 . S
C44 N47 1.314 . S
C44 H50 0.930 . S
C45 N47 1.279 . S
C45 C48 1.358 . S
C45 H51 0.930 . S
C46 C44 1.353 . S
C46 C49 1.348 . S
C46 H84 0.929 . S
N47 Li2 1.990 . S
N47 C44 1.314 . S
N47 C45 1.279 . S
C48 C45 1.358 . S
C48 C49 1.356 . S
C48 H85 0.930 . S
C49 C46 1.348 . S
C49 C48 1.356 . S
H50 C44 0.930 . S
H51 C45 0.930 . S
C52 N53 1.314 . S
C52 C54 1.353 . S
C52 H58 0.930 . S
N53 Li3 1.990 . S
N53 C52 1.314 . S
N53 C56 1.279 . S
C54 C52 1.353 . S
C54 C57 1.348 . S
C54 H86 0.929 . S
C55 C56 1.358 . S
C55 C57 1.356 . S
C55 H87 0.930 . S
C56 N53 1.279 . S
C56 C55 1.358 . S
C56 H59 0.930 . S
C57 C54 1.348 . S
C57 C55 1.356 . S
H58 C52 0.930 . S
H59 C56 0.930 . S
O60 Li0 1.956 . S
O60 Li1 1.970 . S
O60 Li2 1.961 . S
O60 C4 1.325 . S
O61 Li0 1.970 . S
O61 Li1 1.956 . S
O61 Li3 1.961 . S
O61 C10 1.325 . S
O62 Li0 1.961 . S
O62 Li2 1.956 . S
O62 Li3 1.970 . S
O62 C32 1.325 . S
O63 Li1 1.961 . S
O63 Li2 1.970 . S
O63 Li3 1.956 . S
O63 C38 1.325 . S
H64 C6 0.929 . S
H65 C7 0.930 . S
H66 C8 0.930 . S
H67 C9 0.930 . S
H68 C11 0.930 . S
H69 C13 0.929 . S
H70 C14 0.930 . S
H71 C15 0.930 . S
H72 C18 0.930 . S
H73 C21 0.929 . S
H74 C26 0.929 . S
H75 C27 0.930 . S
H76 C34 0.929 . S
H77 C35 0.930 . S
H78 C36 0.930 . S
H79 C37 0.930 . S
H80 C39 0.929 . S
H81 C40 0.930 . S
H82 C41 0.930 . S
H83 C42 0.930 . S
H84 C46 0.929 . S
H85 C48 0.930 . S
H86 C54 0.929 . S
H87 C55 0.930 . S
Li88 N105 1.990 . S
Li88 O148 1.956 . S
Li88 O149 1.970 . S
Li88 O150 1.961 . S
Li89 N113 1.990 . S
Li89 O148 1.970 . S
Li89 O149 1.956 . S
Li89 O151 1.961 . S
Li90 N135 1.990 . S
Li90 O148 1.961 . S
Li90 O150 1.956 . S
Li90 O151 1.970 . S
Li91 N141 1.990 . S
Li91 O149 1.961 . S
Li91 O150 1.970 . S
Li91 O151 1.956 . S
C92 C94 1.348 . S
C92 C95 1.356 . S
C92 O148 1.325 . S
N93 C96 1.314 . S
N93 C97 1.279 . S
C94 C92 1.348 . S
C94 C96 1.353 . S
C94 H152 0.929 . S
C95 C92 1.356 . S
C95 C97 1.358 . S
C95 H153 0.930 . S
C96 N93 1.314 . S
C96 C94 1.353 . S
C96 H154 0.930 . S
C97 N93 1.279 . S
C97 C95 1.358 . S
C97 H155 0.930 . S
C98 C101 1.348 . S
C98 C102 1.356 . S
C98 O149 1.325 . S
C99 N100 1.279 . S
C99 C102 1.358 . S
C99 H156 0.930 . S
N100 C99 1.279 . S
N100 C103 1.314 . S
C101 C98 1.348 . S
C101 C103 1.353 . S
C101 H157 0.929 . S
C102 C98 1.356 . S
C102 C99 1.358 . S
C102 H158 0.930 . S
C103 N100 1.314 . S
C103 C101 1.353 . S
C103 H159 0.930 . S
C104 N105 1.314 . S
C104 C109 1.353 . S
C104 H110 0.930 . S
N105 Li88 1.990 . S
N105 C104 1.314 . S
N105 C107 1.279 . S
C106 C107 1.358 . S
C106 C108 1.356 . S
C106 H160 0.930 . S
C107 N105 1.279 . S
C107 C106 1.358 . S
C107 H111 0.930 . S
C108 C106 1.356 . S
C108 C109 1.348 . S
C109 C104 1.353 . S
C109 C108 1.348 . S
C109 H161 0.929 . S
H110 C104 0.930 . S
H111 C107 0.930 . S
C112 N113 1.314 . S
C112 C114 1.353 . S
C112 H118 0.930 . S
N113 Li89 1.990 . S
N113 C112 1.314 . S
N113 C116 1.279 . S
C114 C112 1.353 . S
C114 C117 1.348 . S
C114 H162 0.929 . S
C115 C116 1.358 . S
C115 C117 1.356 . S
C115 H163 0.930 . S
C116 N113 1.279 . S
C116 C115 1.358 . S
C116 H119 0.930 . S
C117 C114 1.348 . S
C117 C115 1.356 . S
H118 C112 0.930 . S
H119 C116 0.930 . S
C120 C122 1.348 . S
C120 C123 1.356 . S
C120 O150 1.325 . S
N121 C124 1.314 . S
N121 C125 1.279 . S
C122 C120 1.348 . S
C122 C124 1.353 . S
C122 H164 0.929 . S
C123 C120 1.356 . S
C123 C125 1.358 . S
C123 H165 0.930 . S
C124 N121 1.314 . S
C124 C122 1.353 . S
C124 H166 0.930 . S
C125 N121 1.279 . S
C125 C123 1.358 . S
C125 H167 0.930 . S
C126 C127 1.348 . S
C126 C128 1.356 . S
C126 O151 1.325 . S
C127 C126 1.348 . S
C127 C129 1.353 . S
C127 H168 0.929 . S
C128 C126 1.356 . S
C128 C130 1.358 . S
C128 H169 0.930 . S
C129 C127 1.353 . S
C129 N131 1.314 . S
C129 H170 0.930 . S
C130 C128 1.358 . S
C130 N131 1.279 . S
C130 H171 0.930 . S
N131 C129 1.314 . S
N131 C130 1.279 . S
C132 C134 1.353 . S
C132 N135 1.314 . S
C132 H138 0.930 . S
C133 N135 1.279 . S
C133 C136 1.358 . S
C133 H139 0.930 . S
C134 C132 1.353 . S
C134 C137 1.348 . S
C134 H172 0.929 . S
N135 Li90 1.990 . S
N135 C132 1.314 . S
N135 C133 1.279 . S
C136 C133 1.358 . S
C136 C137 1.356 . S
C136 H173 0.930 . S
C137 C134 1.348 . S
C137 C136 1.356 . S
H138 C132 0.930 . S
H139 C133 0.930 . S
C140 N141 1.314 . S
C140 C142 1.353 . S
C140 H146 0.930 . S
N141 Li91 1.990 . S
N141 C140 1.314 . S
N141 C144 1.279 . S
C142 C140 1.353 . S
C142 C145 1.348 . S
C142 H174 0.929 . S
C143 C144 1.358 . S
C143 C145 1.356 . S
C143 H175 0.930 . S
C144 N141 1.279 . S
C144 C143 1.358 . S
C144 H147 0.930 . S
C145 C142 1.348 . S
C145 C143 1.356 . S
H146 C140 0.930 . S
H147 C144 0.930 . S
O148 Li88 1.956 . S
O148 Li89 1.970 . S
O148 Li90 1.961 . S
O148 C92 1.325 . S
O149 Li88 1.970 . S
O149 Li89 1.956 . S
O149 Li91 1.961 . S
O149 C98 1.325 . S
O150 Li88 1.961 . S
O150 Li90 1.956 . S
O150 Li91 1.970 . S
O150 C120 1.325 . S
O151 Li89 1.961 . S
O151 Li90 1.970 . S
O151 Li91 1.956 . S
O151 C126 1.325 . S
H152 C94 0.929 . S
H153 C95 0.930 . S
H154 C96 0.930 . S
H155 C97 0.930 . S
H156 C99 0.930 . S
H157 C101 0.929 . S
H158 C102 0.930 . S
H159 C103 0.930 . S
H160 C106 0.930 . S
H161 C109 0.929 . S
H162 C114 0.929 . S
H163 C115 0.930 . S
H164 C122 0.929 . S
H165 C123 0.930 . S
H166 C124 0.930 . S
H167 C125 0.930 . S
H168 C127 0.929 . S
H169 C128 0.930 . S
H170 C129 0.930 . S
H171 C130 0.930 . S
H172 C134 0.929 . S
H173 C136 0.930 . S
H174 C142 0.929 . S
H175 C143 0.930 . S
Li176 N193 1.990 . S
Li176 O236 1.956 . S
Li176 O237 1.970 . S
Li176 O238 1.961 . S
Li177 N201 1.990 . S
Li177 O236 1.970 1_455 S
Li177 O237 1.956 1_455 S
Li177 O239 1.961 . S
Li178 N223 1.990 . S
Li178 O236 1.961 . S
Li178 O238 1.956 . S
Li178 O239 1.970 1_655 S
Li179 N229 1.990 . S
Li179 O237 1.961 . S
Li179 O238 1.970 . S
Li179 O239 1.956 1_655 S
C180 C182 1.348 1_655 S
C180 C183 1.356 . S
C180 O236 1.325 . S
N181 C184 1.314 . S
N181 C185 1.279 1_455 S
C182 C180 1.348 1_455 S
C182 C184 1.353 . S
C182 H240 0.929 . S
C183 C180 1.356 . S
C183 C185 1.358 . S
C183 H241 0.930 . S
C184 N181 1.314 . S
C184 C182 1.353 . S
C184 H242 0.930 . S
C185 N181 1.279 1_655 S
C185 C183 1.358 . S
C185 H243 0.930 . S
C186 C189 1.348 . S
C186 C190 1.356 . S
C186 O237 1.325 . S
C187 N188 1.279 . S
C187 C190 1.358 . S
C187 H244 0.930 . S
N188 C187 1.279 . S
N188 C191 1.314 . S
C189 C186 1.348 . S
C189 C191 1.353 . S
C189 H245 0.929 . S
C190 C186 1.356 . S
C190 C187 1.358 . S
C190 H246 0.948 . S
C191 N188 1.314 . S
C191 C189 1.353 . S
C191 H247 0.930 . S
C192 N193 1.314 . S
C192 C197 1.353 . S
C192 H198 0.930 . S
N193 Li176 1.990 . S
N193 C192 1.314 . S
N193 C195 1.279 . S
C194 C195 1.358 . S
C194 C196 1.356 . S
C194 H248 0.930 . S
C195 N193 1.279 . S
C195 C194 1.358 . S
C195 H199 0.930 . S
C196 C194 1.356 . S
C196 C197 1.348 . S
C197 C192 1.353 . S
C197 C196 1.348 . S
C197 H249 0.929 . S
H198 C192 0.930 . S
H199 C195 0.930 . S
C200 N201 1.314 . S
C200 C202 1.353 . S
C200 H206 0.930 . S
N201 Li177 1.990 . S
N201 C200 1.314 . S
N201 C204 1.279 . S
C202 C200 1.353 . S
C202 C205 1.348 . S
C202 H250 0.929 . S
C203 C204 1.358 . S
C203 C205 1.356 . S
C203 H251 0.930 . S
C204 N201 1.279 . S
C204 C203 1.358 . S
C204 H207 0.930 . S
C205 C202 1.348 . S
C205 C203 1.356 . S
H206 C200 0.930 . S
H207 C204 0.930 . S
C208 C210 1.348 . S
C208 C211 1.356 . S
C208 O238 1.325 . S
N209 C212 1.314 . S
N209 C213 1.279 . S
C210 C208 1.348 . S
C210 C212 1.353 . S
C210 H252 0.929 . S
C211 C208 1.356 . S
C211 C213 1.358 . S
C211 H253 0.930 . S
C212 N209 1.314 . S
C212 C210 1.353 . S
C212 H254 0.930 . S
C213 N209 1.279 . S
C213 C211 1.358 . S
C213 H255 0.930 . S
C214 C215 1.348 . S
C214 C216 1.356 . S
C214 O239 1.325 . S
C215 C214 1.348 . S
C215 C217 1.353 . S
C215 H256 0.929 . S
C216 C214 1.356 . S
C216 C218 1.358 . S
C216 H257 0.930 . S
C217 C215 1.353 . S
C217 N219 1.314 . S
C217 H258 0.930 . S
C218 C216 1.358 . S
C218 N219 1.279 . S
C218 H259 0.930 . S
N219 C217 1.314 . S
N219 C218 1.279 . S
C220 C222 1.353 . S
C220 N223 1.314 1_455 S
C220 H226 0.930 . S
C221 N223 1.279 . S
C221 C224 1.358 . S
C221 H227 0.930 . S
C222 C220 1.353 . S
C222 C225 1.348 1_455 S
C222 H260 0.929 . S
N223 Li178 1.990 . S
N223 C220 1.314 1_655 S
N223 C221 1.279 . S
C224 C221 1.358 . S
C224 C225 1.356 . S
C224 H261 0.930 . S
C225 C222 1.348 1_655 S
C225 C224 1.356 . S
H226 C220 0.930 . S
H227 C221 0.930 . S
C228 N229 1.314 . S
C228 C230 1.353 . S
C228 H234 0.930 . S
N229 Li179 1.990 . S
N229 C228 1.314 . S
N229 C232 1.279 . S
C230 C228 1.353 . S
C230 C233 1.348 . S
C230 H262 0.929 . S
C231 C232 1.358 . S
C231 C233 1.356 . S
C231 H263 0.930 . S
C232 N229 1.279 . S
C232 C231 1.358 . S
C232 H235 0.930 . S
C233 C230 1.348 . S
C233 C231 1.356 . S
H234 C228 0.930 . S
H235 C232 0.930 . S
O236 Li176 1.956 . S
O236 Li177 1.970 1_655 S
O236 Li178 1.961 . S
O236 C180 1.325 . S
O237 Li176 1.970 . S
O237 Li177 1.956 1_655 S
O237 Li179 1.961 . S
O237 C186 1.325 . S
O238 Li176 1.961 . S
O238 Li178 1.956 . S
O238 Li179 1.970 . S
O238 C208 1.325 . S
O239 Li177 1.961 . S
O239 Li178 1.970 1_455 S
O239 Li179 1.956 1_455 S
O239 C214 1.325 . S
H240 C182 0.929 . S
H241 C183 0.930 . S
H242 C184 0.930 . S
H243 C185 0.930 . S
H244 C187 0.930 . S
H245 C189 0.929 . S
H246 C190 0.948 . S
H247 C191 0.930 . S
H248 C194 0.930 . S
H249 C197 0.929 . S
H250 C202 0.929 . S
H251 C203 0.930 . S
H252 C210 0.929 . S
H253 C211 0.930 . S
H254 C212 0.930 . S
H255 C213 0.930 . S
H256 C215 0.929 . S
H257 C216 0.930 . S
H258 C217 0.930 . S
H259 C218 0.930 . S
H260 C222 0.929 . S
H261 C224 0.930 . S
H262 C230 0.929 . S
H263 C231 0.930 . S
Li264 N281 1.990 . S
Li264 O324 1.956 . S
Li264 O325 1.970 . S
Li264 O326 1.961 . S
Li265 N289 1.990 . S
Li265 O324 1.970 1_545 S
Li265 O325 1.956 1_545 S
Li265 O327 1.961 . S
Li266 N311 1.990 . S
Li266 O324 1.961 . S
Li266 O326 1.956 . S
Li266 O327 1.970 1_565 S
Li267 N317 1.990 . S
Li267 O325 1.961 . S
Li267 O326 1.970 . S
Li267 O327 1.956 1_565 S
C268 C270 1.348 1_565 S
C268 C271 1.356 . S
C268 O324 1.325 . S
N269 C272 1.314 . S
N269 C273 1.279 1_545 S
C270 C268 1.348 1_545 S
C270 C272 1.353 . S
C270 H328 0.929 . S
C271 C268 1.356 . S
C271 C273 1.358 . S
C271 H329 0.930 . S
C272 N269 1.314 . S
C272 C270 1.353 . S
C272 H330 0.930 . S
C273 N269 1.279 1_565 S
C273 C271 1.358 . S
C273 H331 0.930 . S
C274 C277 1.348 . S
C274 C278 1.356 . S
C274 O325 1.325 . S
C275 N276 1.279 . S
C275 C278 1.358 . S
C275 H332 0.930 . S
N276 C275 1.279 . S
N276 C279 1.314 . S
C277 C274 1.348 . S
C277 C279 1.353 . S
C277 H333 0.929 . S
C278 C274 1.356 . S
C278 C275 1.358 . S
C278 H334 0.947 . S
C279 N276 1.314 . S
C279 C277 1.353 . S
C279 H335 0.930 . S
C280 N281 1.314 . S
C280 C285 1.353 . S
C280 H286 0.930 . S
N281 Li264 1.990 . S
N281 C280 1.314 . S
N281 C283 1.279 . S
C282 C283 1.358 . S
C282 C284 1.356 . S
C282 H336 0.930 . S
C283 N281 1.279 . S
C283 C282 1.358 . S
C283 H287 0.930 . S
C284 C282 1.356 . S
C284 C285 1.348 . S
C285 C280 1.353 . S
C285 C284 1.348 . S
C285 H337 0.929 . S
H286 C280 0.930 . S
H287 C283 0.930 . S
C288 N289 1.314 . S
C288 C290 1.353 . S
C288 H294 0.930 . S
N289 Li265 1.990 . S
N289 C288 1.314 . S
N289 C292 1.279 . S
C290 C288 1.353 . S
C290 C293 1.348 . S
C290 H338 0.929 . S
C291 C292 1.358 . S
C291 C293 1.356 . S
C291 H339 0.930 . S
C292 N289 1.279 . S
C292 C291 1.358 . S
C292 H295 0.930 . S
C293 C290 1.348 . S
C293 C291 1.356 . S
H294 C288 0.930 . S
H295 C292 0.930 . S
C296 C298 1.348 . S
C296 C299 1.356 . S
C296 O326 1.325 . S
N297 C300 1.314 . S
N297 C301 1.279 . S
C298 C296 1.348 . S
C298 C300 1.353 . S
C298 H340 0.929 . S
C299 C296 1.356 . S
C299 C301 1.358 . S
C299 H341 0.930 . S
C300 N297 1.314 . S
C300 C298 1.353 . S
C300 H342 0.930 . S
C301 N297 1.279 . S
C301 C299 1.358 . S
C301 H343 0.930 . S
C302 C303 1.348 . S
C302 C304 1.356 . S
C302 O327 1.325 . S
C303 C302 1.348 . S
C303 C305 1.353 . S
C303 H344 0.929 . S
C304 C302 1.356 . S
C304 C306 1.358 . S
C304 H345 0.930 . S
C305 C303 1.353 . S
C305 N307 1.314 . S
C305 H346 0.930 . S
C306 C304 1.358 . S
C306 N307 1.279 . S
C306 H347 0.930 . S
N307 C305 1.314 . S
N307 C306 1.279 . S
C308 C310 1.353 . S
C308 N311 1.314 1_545 S
C308 H314 0.930 . S
C309 N311 1.279 . S
C309 C312 1.358 . S
C309 H315 0.930 . S
C310 C308 1.353 . S
C310 C313 1.348 1_545 S
C310 H348 0.929 . S
N311 Li266 1.990 . S
N311 C308 1.314 1_565 S
N311 C309 1.279 . S
C312 C309 1.358 . S
C312 C313 1.356 . S
C312 H349 0.930 . S
C313 C310 1.348 1_565 S
C313 C312 1.356 . S
H314 C308 0.930 . S
H315 C309 0.930 . S
C316 N317 1.314 . S
C316 C318 1.353 . S
C316 H322 0.930 . S
N317 Li267 1.990 . S
N317 C316 1.314 . S
N317 C320 1.279 . S
C318 C316 1.353 . S
C318 C321 1.348 . S
C318 H350 0.929 . S
C319 C320 1.358 . S
C319 C321 1.356 . S
C319 H351 0.930 . S
C320 N317 1.279 . S
C320 C319 1.358 . S
C320 H323 0.930 . S
C321 C318 1.348 . S
C321 C319 1.356 . S
H322 C316 0.930 . S
H323 C320 0.930 . S
O324 Li264 1.956 . S
O324 Li265 1.970 1_565 S
O324 Li266 1.961 . S
O324 C268 1.325 . S
O325 Li264 1.970 . S
O325 Li265 1.956 1_565 S
O325 Li267 1.961 . S
O325 C274 1.325 . S
O326 Li264 1.961 . S
O326 Li266 1.956 . S
O326 Li267 1.970 . S
O326 C296 1.325 . S
O327 Li265 1.961 . S
O327 Li266 1.970 1_545 S
O327 Li267 1.956 1_545 S
O327 C302 1.325 . S
H328 C270 0.929 . S
H329 C271 0.930 . S
H330 C272 0.930 . S
H331 C273 0.930 . S
H332 C275 0.930 . S
H333 C277 0.929 . S
H334 C278 0.947 . S
H335 C279 0.930 . S
H336 C282 0.930 . S
H337 C285 0.929 . S
H338 C290 0.929 . S
H339 C291 0.930 . S
H340 C298 0.929 . S
H341 C299 0.930 . S
H342 C300 0.930 . S
H343 C301 0.930 . S
H344 C303 0.929 . S
H345 C304 0.930 . S
H346 C305 0.930 . S
H347 C306 0.930 . S
H348 C310 0.929 . S
H349 C312 0.930 . S
H350 C318 0.929 . S
H351 C319 0.930 . S
Li352 N369 1.990 . S
Li352 O412 1.956 . S
Li352 O413 1.970 . S
Li352 O414 1.961 . S
Li353 N377 1.990 . S
Li353 O412 1.970 . S
Li353 O413 1.956 . S
Li353 O415 1.961 . S
Li354 N399 1.990 . S
Li354 O412 1.961 . S
Li354 O414 1.956 . S
Li354 O415 1.970 . S
Li355 N405 1.990 . S
Li355 O413 1.961 . S
Li355 O414 1.970 . S
Li355 O415 1.956 . S
C356 C358 1.348 . S
C356 C359 1.356 . S
C356 O412 1.325 . S
N357 C360 1.314 . S
N357 C361 1.279 . S
C358 C356 1.348 . S
C358 C360 1.353 . S
C358 H416 0.929 . S
C359 C356 1.356 . S
C359 C361 1.358 . S
C359 H417 0.930 . S
C360 N357 1.314 . S
C360 C358 1.353 . S
C360 H418 0.930 . S
C361 N357 1.279 . S
C361 C359 1.358 . S
C361 H419 0.930 . S
C362 C365 1.348 . S
C362 C366 1.356 . S
C362 O413 1.325 . S
C363 N364 1.279 . S
C363 C366 1.358 . S
C363 H420 0.930 . S
N364 C363 1.279 . S
N364 C367 1.314 . S
C365 C362 1.348 . S
C365 C367 1.353 . S
C365 H421 0.929 . S
C366 C362 1.356 . S
C366 C363 1.358 . S
C366 H422 0.930 . S
C367 N364 1.314 . S
C367 C365 1.353 . S
C367 H423 0.930 . S
C368 N369 1.314 . S
C368 C373 1.353 . S
C368 H374 0.930 . S
N369 Li352 1.990 . S
N369 C368 1.314 . S
N369 C371 1.279 . S
C370 C371 1.358 . S
C370 C372 1.356 . S
C370 H424 0.930 . S
C371 N369 1.279 . S
C371 C370 1.358 . S
C371 H375 0.930 . S
C372 C370 1.356 . S
C372 C373 1.348 . S
C373 C368 1.353 . S
C373 C372 1.348 . S
C373 H425 0.929 . S
H374 C368 0.930 . S
H375 C371 0.930 . S
C376 N377 1.314 . S
C376 C378 1.353 . S
C376 H382 0.930 . S
N377 Li353 1.990 . S
N377 C376 1.314 . S
N377 C380 1.279 . S
C378 C376 1.353 . S
C378 C381 1.348 . S
C378 H426 0.929 . S
C379 C380 1.358 . S
C379 C381 1.356 . S
C379 H427 0.930 . S
C380 N377 1.279 . S
C380 C379 1.358 . S
C380 H383 0.930 . S
C381 C378 1.348 . S
C381 C379 1.356 . S
H382 C376 0.930 . S
H383 C380 0.930 . S
C384 C386 1.348 . S
C384 C387 1.356 . S
C384 O414 1.325 . S
N385 C388 1.314 . S
N385 C389 1.279 . S
C386 C384 1.348 . S
C386 C388 1.353 . S
C386 H428 0.929 . S
C387 C384 1.356 . S
C387 C389 1.358 . S
C387 H429 0.930 . S
C388 N385 1.314 . S
C388 C386 1.353 . S
C388 H430 0.930 . S
C389 N385 1.279 . S
C389 C387 1.358 . S
C389 H431 0.930 . S
C390 C391 1.348 . S
C390 C392 1.356 . S
C390 O415 1.325 . S
C391 C390 1.348 . S
C391 C393 1.353 . S
C391 H432 0.929 . S
C392 C390 1.356 . S
C392 C394 1.358 . S
C392 H433 0.930 . S
C393 C391 1.353 . S
C393 N395 1.314 . S
C393 H434 0.930 . S
C394 C392 1.358 . S
C394 N395 1.279 . S
C394 H435 0.930 . S
N395 C393 1.314 . S
N395 C394 1.279 . S
C396 C398 1.353 . S
C396 N399 1.314 . S
C396 H402 0.930 . S
C397 N399 1.279 . S
C397 C400 1.358 . S
C397 H403 0.930 . S
C398 C396 1.353 . S
C398 C401 1.348 . S
C398 H436 0.929 . S
N399 Li354 1.990 . S
N399 C396 1.314 . S
N399 C397 1.279 . S
C400 C397 1.358 . S
C400 C401 1.356 . S
C400 H437 0.930 . S
C401 C398 1.348 . S
C401 C400 1.356 . S
H402 C396 0.930 . S
H403 C397 0.930 . S
C404 N405 1.314 . S
C404 C406 1.353 . S
C404 H410 0.930 . S
N405 Li355 1.990 . S
N405 C404 1.314 . S
N405 C408 1.279 . S
C406 C404 1.353 . S
C406 C409 1.348 . S
C406 H438 0.929 . S
C407 C408 1.358 . S
C407 C409 1.356 . S
C407 H439 0.930 . S
C408 N405 1.279 . S
C408 C407 1.358 . S
C408 H411 0.930 . S
C409 C406 1.348 . S
C409 C407 1.356 . S
H410 C404 0.930 . S
H411 C408 0.930 . S
O412 Li352 1.956 . S
O412 Li353 1.970 . S
O412 Li354 1.961 . S
O412 C356 1.325 . S
O413 Li352 1.970 . S
O413 Li353 1.956 . S
O413 Li355 1.961 . S
O413 C362 1.325 . S
O414 Li352 1.961 . S
O414 Li354 1.956 . S
O414 Li355 1.970 . S
O414 C384 1.325 . S
O415 Li353 1.961 . S
O415 Li354 1.970 . S
O415 Li355 1.956 . S
O415 C390 1.325 . S
H416 C358 0.929 . S
H417 C359 0.930 . S
H418 C360 0.930 . S
H419 C361 0.930 . S
H420 C363 0.930 . S
H421 C365 0.929 . S
H422 C366 0.930 . S
H423 C367 0.930 . S
H424 C370 0.930 . S
H425 C373 0.929 . S
H426 C378 0.929 . S
H427 C379 0.930 . S
H428 C386 0.929 . S
H429 C387 0.930 . S
H430 C388 0.930 . S
H431 C389 0.930 . S
H432 C391 0.929 . S
H433 C392 0.930 . S
H434 C393 0.930 . S
H435 C394 0.930 . S
H436 C398 0.929 . S
H437 C400 0.930 . S
H438 C406 0.929 . S
H439 C407 0.930 . S
Li440 N457 1.990 . S
Li440 O500 1.956 . S
Li440 O501 1.970 . S
Li440 O502 1.961 . S
Li441 N465 1.990 . S
Li441 O500 1.970 . S
Li441 O501 1.956 . S
Li441 O503 1.961 . S
Li442 N487 1.990 . S
Li442 O500 1.961 . S
Li442 O502 1.956 . S
Li442 O503 1.970 . S
Li443 N493 1.990 . S
Li443 O501 1.961 . S
Li443 O502 1.970 . S
Li443 O503 1.956 . S
C444 C446 1.348 . S
C444 C447 1.356 . S
C444 O500 1.325 . S
N445 C448 1.314 . S
N445 C449 1.279 . S
C446 C444 1.348 . S
C446 C448 1.353 . S
C446 H504 0.929 . S
C447 C444 1.356 . S
C447 C449 1.358 . S
C447 H505 0.930 . S
C448 N445 1.314 . S
C448 C446 1.353 . S
C448 H506 0.930 . S
C449 N445 1.279 . S
C449 C447 1.358 . S
C449 H507 0.930 . S
C450 C453 1.348 . S
C450 C454 1.356 . S
C450 O501 1.325 . S
C451 N452 1.279 . S
C451 C454 1.358 . S
C451 H508 0.930 . S
N452 C451 1.279 . S
N452 C455 1.314 . S
C453 C450 1.348 . S
C453 C455 1.353 . S
C453 H509 0.929 . S
C454 C450 1.356 . S
C454 C451 1.358 . S
C454 H510 0.930 . S
C455 N452 1.314 . S
C455 C453 1.353 . S
C455 H511 0.930 . S
C456 N457 1.314 . S
C456 C461 1.353 . S
C456 H462 0.930 . S
N457 Li440 1.990 . S
N457 C456 1.314 . S
N457 C459 1.279 . S
C458 C459 1.358 . S
C458 C460 1.356 . S
C458 H512 0.930 . S
C459 N457 1.279 . S
C459 C458 1.358 . S
C459 H463 0.930 . S
C460 C458 1.356 . S
C460 C461 1.348 . S
C461 C456 1.353 . S
C461 C460 1.348 . S
C461 H513 0.929 . S
H462 C456 0.930 . S
H463 C459 0.930 . S
C464 N465 1.314 . S
C464 C466 1.353 . S
C464 H470 0.930 . S
N465 Li441 1.990 . S
N465 C464 1.314 . S
N465 C468 1.279 . S
C466 C464 1.353 . S
C466 C469 1.348 . S
C466 H514 0.929 . S
C467 C468 1.358 . S
C467 C469 1.356 . S
C467 H515 0.930 . S
C468 N465 1.279 . S
C468 C467 1.358 . S
C468 H471 0.930 . S
C469 C466 1.348 . S
C469 C467 1.356 . S
H470 C464 0.930 . S
H471 C468 0.930 . S
C472 C474 1.348 . S
C472 C475 1.356 . S
C472 O502 1.325 . S
N473 C476 1.314 . S
N473 C477 1.279 . S
C474 C472 1.348 . S
C474 C476 1.353 . S
C474 H516 0.929 . S
C475 C472 1.356 . S
C475 C477 1.358 . S
C475 H517 0.930 . S
C476 N473 1.314 . S
C476 C474 1.353 . S
C476 H518 0.930 . S
C477 N473 1.279 . S
C477 C475 1.358 . S
C477 H519 0.930 . S
C478 C479 1.348 . S
C478 C480 1.356 . S
C478 O503 1.325 . S
C479 C478 1.348 . S
C479 C481 1.353 . S
C479 H520 0.929 . S
C480 C478 1.356 . S
C480 C482 1.358 . S
C480 H521 0.930 . S
C481 C479 1.353 . S
C481 N483 1.314 . S
C481 H522 0.930 . S
C482 C480 1.358 . S
C482 N483 1.279 . S
C482 H523 0.930 . S
N483 C481 1.314 . S
N483 C482 1.279 . S
C484 C486 1.353 . S
C484 N487 1.314 . S
C484 H490 0.930 . S
C485 N487 1.279 . S
C485 C488 1.358 . S
C485 H491 0.930 . S
C486 C484 1.353 . S
C486 C489 1.348 . S
C486 H524 0.929 . S
N487 Li442 1.990 . S
N487 C484 1.314 . S
N487 C485 1.279 . S
C488 C485 1.358 . S
C488 C489 1.356 . S
C488 H525 0.930 . S
C489 C486 1.348 . S
C489 C488 1.356 . S
H490 C484 0.930 . S
H491 C485 0.930 . S
C492 N493 1.314 . S
C492 C494 1.353 . S
C492 H498 0.930 . S
N493 Li443 1.990 . S
N493 C492 1.314 . S
N493 C496 1.279 . S
C494 C492 1.353 . S
C494 C497 1.348 . S
C494 H526 0.929 . S
C495 C496 1.358 . S
C495 C497 1.356 . S
C495 H527 0.930 . S
C496 N493 1.279 . S
C496 C495 1.358 . S
C496 H499 0.930 . S
C497 C494 1.348 . S
C497 C495 1.356 . S
H498 C492 0.930 . S
H499 C496 0.930 . S
O500 Li440 1.956 . S
O500 Li441 1.970 . S
O500 Li442 1.961 . S
O500 C444 1.325 . S
O501 Li440 1.970 . S
O501 Li441 1.956 . S
O501 Li443 1.961 . S
O501 C450 1.325 . S
O502 Li440 1.961 . S
O502 Li442 1.956 . S
O502 Li443 1.970 . S
O502 C472 1.325 . S
O503 Li441 1.961 . S
O503 Li442 1.970 . S
O503 Li443 1.956 . S
O503 C478 1.325 . S
H504 C446 0.929 . S
H505 C447 0.930 . S
H506 C448 0.930 . S
H507 C449 0.930 . S
H508 C451 0.930 . S
H509 C453 0.929 . S
H510 C454 0.930 . S
H511 C455 0.930 . S
H512 C458 0.930 . S
H513 C461 0.929 . S
H514 C466 0.929 . S
H515 C467 0.930 . S
H516 C474 0.929 . S
H517 C475 0.930 . S
H518 C476 0.930 . S
H519 C477 0.930 . S
H520 C479 0.929 . S
H521 C480 0.930 . S
H522 C481 0.930 . S
H523 C482 0.930 . S
H524 C486 0.929 . S
H525 C488 0.930 . S
H526 C494 0.929 . S
H527 C495 0.930 . S
Li528 N545 1.990 . S
Li528 O588 1.956 1_655 S
Li528 O589 1.970 . S
Li528 O590 1.961 . S
Li529 N553 1.990 . S
Li529 O588 1.970 1_655 S
Li529 O589 1.956 . S
Li529 O591 1.961 . S
Li530 N575 1.990 . S
Li530 O588 1.961 . S
Li530 O590 1.956 1_455 S
Li530 O591 1.970 1_455 S
Li531 N581 1.990 . S
Li531 O589 1.961 . S
Li531 O590 1.970 . S
Li531 O591 1.956 . S
C532 C534 1.348 . S
C532 C535 1.356 . S
C532 O588 1.325 . S
N533 C536 1.314 . S
N533 C537 1.279 . S
C534 C532 1.348 . S
C534 C536 1.353 . S
C534 H592 0.929 . S
C535 C532 1.356 . S
C535 C537 1.358 . S
C535 H593 0.930 . S
C536 N533 1.314 . S
C536 C534 1.353 . S
C536 H594 0.930 . S
C537 N533 1.279 . S
C537 C535 1.358 . S
C537 H595 0.930 . S
C538 C541 1.348 . S
C538 C542 1.356 . S
C538 O589 1.325 . S
C539 N540 1.279 . S
C539 C542 1.358 . S
C539 H596 0.930 . S
N540 C539 1.279 . S
N540 C543 1.314 . S
C541 C538 1.348 . S
C541 C543 1.353 . S
C541 H597 0.929 . S
C542 C538 1.356 . S
C542 C539 1.358 . S
C542 H598 0.930 . S
C543 N540 1.314 . S
C543 C541 1.353 . S
C543 H599 0.930 . S
C544 N545 1.314 . S
C544 C549 1.353 . S
C544 H550 0.930 . S
N545 Li528 1.990 . S
N545 C544 1.314 . S
N545 C547 1.279 . S
C546 C547 1.358 . S
C546 C548 1.356 . S
C546 H600 0.930 . S
C547 N545 1.279 . S
C547 C546 1.358 . S
C547 H551 0.930 . S
C548 C546 1.356 . S
C548 C549 1.348 . S
C549 C544 1.353 . S
C549 C548 1.348 . S
C549 H601 0.929 . S
H550 C544 0.930 . S
H551 C547 0.930 . S
C552 N553 1.314 1_455 S
C552 C554 1.353 . S
C552 H558 0.930 . S
N553 Li529 1.990 . S
N553 C552 1.314 1_655 S
N553 C556 1.279 . S
C554 C552 1.353 . S
C554 C557 1.348 1_455 S
C554 H602 0.929 . S
C555 C556 1.358 . S
C555 C557 1.356 . S
C555 H603 0.930 . S
C556 N553 1.279 . S
C556 C555 1.358 . S
C556 H559 0.930 . S
C557 C554 1.348 1_655 S
C557 C555 1.356 . S
H558 C552 0.930 . S
H559 C556 0.930 . S
C560 C562 1.348 . S
C560 C563 1.356 . S
C560 O590 1.325 . S
N561 C564 1.314 . S
N561 C565 1.279 . S
C562 C560 1.348 . S
C562 C564 1.353 . S
C562 H604 0.929 . S
C563 C560 1.356 . S
C563 C565 1.358 . S
C563 H605 0.947 . S
C564 N561 1.314 . S
C564 C562 1.353 . S
C564 H606 0.930 . S
C565 N561 1.279 . S
C565 C563 1.358 . S
C565 H607 0.930 . S
C566 C567 1.348 1_655 S
C566 C568 1.356 . S
C566 O591 1.325 . S
C567 C566 1.348 1_455 S
C567 C569 1.353 . S
C567 H608 0.929 . S
C568 C566 1.356 . S
C568 C570 1.358 . S
C568 H609 0.930 . S
C569 C567 1.353 . S
C569 N571 1.314 . S
C569 H610 0.930 . S
C570 C568 1.358 . S
C570 N571 1.279 1_655 S
C570 H611 0.930 . S
N571 C569 1.314 . S
N571 C570 1.279 1_455 S
C572 C574 1.353 . S
C572 N575 1.314 . S
C572 H578 0.930 . S
C573 N575 1.279 . S
C573 C576 1.358 . S
C573 H579 0.930 . S
C574 C572 1.353 . S
C574 C577 1.348 . S
C574 H612 0.929 . S
N575 Li530 1.990 . S
N575 C572 1.314 . S
N575 C573 1.279 . S
C576 C573 1.358 . S
C576 C577 1.356 . S
C576 H613 0.930 . S
C577 C574 1.348 . S
C577 C576 1.356 . S
H578 C572 0.930 . S
H579 C573 0.930 . S
C580 N581 1.314 . S
C580 C582 1.353 . S
C580 H586 0.930 . S
N581 Li531 1.990 . S
N581 C580 1.314 . S
N581 C584 1.279 . S
C582 C580 1.353 . S
C582 C585 1.348 . S
C582 H614 0.929 . S
C583 C584 1.358 . S
C583 C585 1.356 . S
C583 H615 0.930 . S
C584 N581 1.279 . S
C584 C583 1.358 . S
C584 H587 0.930 . S
C585 C582 1.348 . S
C585 C583 1.356 . S
H586 C580 0.930 . S
H587 C584 0.930 . S
O588 Li528 1.956 1_455 S
O588 Li529 1.970 1_455 S
O588 Li530 1.961 . S
O588 C532 1.325 . S
O589 Li528 1.970 . S
O589 Li529 1.956 . S
O589 Li531 1.961 . S
O589 C538 1.325 . S
O590 Li528 1.961 . S
O590 Li530 1.956 1_655 S
O590 Li531 1.970 . S
O590 C560 1.325 . S
O591 Li529 1.961 . S
O591 Li530 1.970 1_655 S
O591 Li531 1.956 . S
O591 C566 1.325 . S
H592 C534 0.929 . S
H593 C535 0.930 . S
H594 C536 0.930 . S
H595 C537 0.930 . S
H596 C539 0.930 . S
H597 C541 0.929 . S
H598 C542 0.930 . S
H599 C543 0.930 . S
H600 C546 0.930 . S
H601 C549 0.929 . S
H602 C554 0.929 . S
H603 C555 0.930 . S
H604 C562 0.929 . S
H605 C563 0.947 . S
H606 C564 0.930 . S
H607 C565 0.930 . S
H608 C567 0.929 . S
H609 C568 0.930 . S
H610 C569 0.930 . S
H611 C570 0.930 . S
H612 C574 0.929 . S
H613 C576 0.930 . S
H614 C582 0.929 . S
H615 C583 0.930 . S
Li616 N633 1.990 . S
Li616 O676 1.956 1_565 S
Li616 O677 1.970 . S
Li616 O678 1.961 . S
Li617 N641 1.990 . S
Li617 O676 1.970 1_565 S
Li617 O677 1.956 . S
Li617 O679 1.961 . S
Li618 N663 1.990 . S
Li618 O676 1.961 . S
Li618 O678 1.956 1_545 S
Li618 O679 1.970 1_545 S
Li619 N669 1.990 . S
Li619 O677 1.961 . S
Li619 O678 1.970 . S
Li619 O679 1.956 . S
C620 C622 1.348 . S
C620 C623 1.356 . S
C620 O676 1.325 . S
N621 C624 1.314 . S
N621 C625 1.279 . S
C622 C620 1.348 . S
C622 C624 1.353 . S
C622 H680 0.929 . S
C623 C620 1.356 . S
C623 C625 1.358 . S
C623 H681 0.930 . S
C624 N621 1.314 . S
C624 C622 1.353 . S
C624 H682 0.930 . S
C625 N621 1.279 . S
C625 C623 1.358 . S
C625 H683 0.930 . S
C626 C629 1.348 . S
C626 C630 1.356 . S
C626 O677 1.325 . S
C627 N628 1.279 . S
C627 C630 1.358 . S
C627 H684 0.930 . S
N628 C627 1.279 . S
N628 C631 1.314 . S
C629 C626 1.348 . S
C629 C631 1.353 . S
C629 H685 0.929 . S
C630 C626 1.356 . S
C630 C627 1.358 . S
C630 H686 0.930 . S
C631 N628 1.314 . S
C631 C629 1.353 . S
C631 H687 0.930 . S
C632 N633 1.314 . S
C632 C637 1.353 . S
C632 H638 0.930 . S
N633 Li616 1.990 . S
N633 C632 1.314 . S
N633 C635 1.279 . S
C634 C635 1.358 . S
C634 C636 1.356 . S
C634 H688 0.930 . S
C635 N633 1.279 . S
C635 C634 1.358 . S
C635 H639 0.930 . S
C636 C634 1.356 . S
C636 C637 1.348 . S
C637 C632 1.353 . S
C637 C636 1.348 . S
C637 H689 0.929 . S
H638 C632 0.930 . S
H639 C635 0.930 . S
C640 N641 1.314 1_545 S
C640 C642 1.353 . S
C640 H646 0.930 . S
N641 Li617 1.990 . S
N641 C640 1.314 1_565 S
N641 C644 1.279 . S
C642 C640 1.353 . S
C642 C645 1.348 1_545 S
C642 H690 0.929 . S
C643 C644 1.358 . S
C643 C645 1.356 . S
C643 H691 0.930 . S
C644 N641 1.279 . S
C644 C643 1.358 . S
C644 H647 0.930 . S
C645 C642 1.348 1_565 S
C645 C643 1.356 . S
H646 C640 0.930 . S
H647 C644 0.930 . S
C648 C650 1.348 . S
C648 C651 1.356 . S
C648 O678 1.325 . S
N649 C652 1.314 . S
N649 C653 1.279 . S
C650 C648 1.348 . S
C650 C652 1.353 . S
C650 H692 0.929 . S
C651 C648 1.356 . S
C651 C653 1.358 . S
C651 H693 0.948 . S
C652 N649 1.314 . S
C652 C650 1.353 . S
C652 H694 0.930 . S
C653 N649 1.279 . S
C653 C651 1.358 . S
C653 H695 0.930 . S
C654 C655 1.348 1_565 S
C654 C656 1.356 . S
C654 O679 1.325 . S
C655 C654 1.348 1_545 S
C655 C657 1.353 . S
C655 H696 0.929 . S
C656 C654 1.356 . S
C656 C658 1.358 . S
C656 H697 0.930 . S
C657 C655 1.353 . S
C657 N659 1.314 . S
C657 H698 0.930 . S
C658 C656 1.358 . S
C658 N659 1.279 1_565 S
C658 H699 0.930 . S
N659 C657 1.314 . S
N659 C658 1.279 1_545 S
C660 C662 1.353 . S
C660 N663 1.314 . S
C660 H666 0.930 . S
C661 N663 1.279 . S
C661 C664 1.358 . S
C661 H667 0.930 . S
C662 C660 1.353 . S
C662 C665 1.348 . S
C662 H700 0.929 . S
N663 Li618 1.990 . S
N663 C660 1.314 . S
N663 C661 1.279 . S
C664 C661 1.358 . S
C664 C665 1.356 . S
C664 H701 0.930 . S
C665 C662 1.348 . S
C665 C664 1.356 . S
H666 C660 0.930 . S
H667 C661 0.930 . S
C668 N669 1.314 . S
C668 C670 1.353 . S
C668 H674 0.930 . S
N669 Li619 1.990 . S
N669 C668 1.314 . S
N669 C672 1.279 . S
C670 C668 1.353 . S
C670 C673 1.348 . S
C670 H702 0.929 . S
C671 C672 1.358 . S
C671 C673 1.356 . S
C671 H703 0.930 . S
C672 N669 1.279 . S
C672 C671 1.358 . S
C672 H675 0.930 . S
C673 C670 1.348 . S
C673 C671 1.356 . S
H674 C668 0.930 . S
H675 C672 0.930 . S
O676 Li616 1.956 1_545 S
O676 Li617 1.970 1_545 S
O676 Li618 1.961 . S
O676 C620 1.325 . S
O677 Li616 1.970 . S
O677 Li617 1.956 . S
O677 Li619 1.961 . S
O677 C626 1.325 . S
O678 Li616 1.961 . S
O678 Li618 1.956 1_565 S
O678 Li619 1.970 . S
O678 C648 1.325 . S
O679 Li617 1.961 . S
O679 Li618 1.970 1_565 S
O679 Li619 1.956 . S
O679 C654 1.325 . S
H680 C622 0.929 . S
H681 C623 0.930 . S
H682 C624 0.930 . S
H683 C625 0.930 . S
H684 C627 0.930 . S
H685 C629 0.929 . S
H686 C630 0.930 . S
H687 C631 0.930 . S
H688 C634 0.930 . S
H689 C637 0.929 . S
H690 C642 0.929 . S
H691 C643 0.930 . S
H692 C650 0.929 . S
H693 C651 0.948 . S
H694 C652 0.930 . S
H695 C653 0.930 . S
H696 C655 0.929 . S
H697 C656 0.930 . S
H698 C657 0.930 . S
H699 C658 0.930 . S
H700 C662 0.929 . S
H701 C664 0.930 . S
H702 C670 0.929 . S
H703 C671 0.930 . S
Li704 N721 1.990 . S
Li704 O764 1.956 . S
Li704 O765 1.970 . S
Li704 O766 1.961 . S
Li705 N729 1.990 . S
Li705 O764 1.970 . S
Li705 O765 1.956 . S
Li705 O767 1.961 . S
Li706 N751 1.990 . S
Li706 O764 1.961 . S
Li706 O766 1.956 . S
Li706 O767 1.970 . S
Li707 N757 1.990 . S
Li707 O765 1.961 . S
Li707 O766 1.970 . S
Li707 O767 1.956 . S
C708 C710 1.348 . S
C708 C711 1.356 . S
C708 O764 1.325 . S
N709 C712 1.314 . S
N709 C713 1.279 . S
C710 C708 1.348 . S
C710 C712 1.353 . S
C710 H768 0.929 . S
C711 C708 1.356 . S
C711 C713 1.358 . S
C711 H769 0.930 . S
C712 N709 1.314 . S
C712 C710 1.353 . S
C712 H770 0.930 . S
C713 N709 1.279 . S
C713 C711 1.358 . S
C713 H771 0.930 . S
C714 C717 1.348 . S
C714 C718 1.356 . S
C714 O765 1.325 . S
C715 N716 1.279 . S
C715 C718 1.358 . S
C715 H772 0.930 . S
N716 C715 1.279 . S
N716 C719 1.314 . S
C717 C714 1.348 . S
C717 C719 1.353 . S
C717 H773 0.929 . S
C718 C714 1.356 . S
C718 C715 1.358 . S
C718 H774 0.930 . S
C719 N716 1.314 . S
C719 C717 1.353 . S
C719 H775 0.930 . S
C720 N721 1.314 . S
C720 C725 1.353 . S
C720 H726 0.930 . S
N721 Li704 1.990 . S
N721 C720 1.314 . S
N721 C723 1.279 . S
C722 C723 1.358 . S
C722 C724 1.356 . S
C722 H776 0.930 . S
C723 N721 1.279 . S
C723 C722 1.358 . S
C723 H727 0.930 . S
C724 C722 1.356 . S
C724 C725 1.348 . S
C725 C720 1.353 . S
C725 C724 1.348 . S
C725 H777 0.929 . S
H726 C720 0.930 . S
H727 C723 0.930 . S
C728 N729 1.314 . S
C728 C730 1.353 . S
C728 H734 0.930 . S
N729 Li705 1.990 . S
N729 C728 1.314 . S
N729 C732 1.279 . S
C730 C728 1.353 . S
C730 C733 1.348 . S
C730 H778 0.929 . S
C731 C732 1.358 . S
C731 C733 1.356 . S
C731 H779 0.930 . S
C732 N729 1.279 . S
C732 C731 1.358 . S
C732 H735 0.930 . S
C733 C730 1.348 . S
C733 C731 1.356 . S
H734 C728 0.930 . S
H735 C732 0.930 . S
C736 C738 1.348 . S
C736 C739 1.356 . S
C736 O766 1.325 . S
N737 C740 1.314 . S
N737 C741 1.279 . S
C738 C736 1.348 . S
C738 C740 1.353 . S
C738 H780 0.929 . S
C739 C736 1.356 . S
C739 C741 1.358 . S
C739 H781 0.930 . S
C740 N737 1.314 . S
C740 C738 1.353 . S
C740 H782 0.930 . S
C741 N737 1.279 . S
C741 C739 1.358 . S
C741 H783 0.930 . S
C742 C743 1.348 . S
C742 C744 1.356 . S
C742 O767 1.325 . S
C743 C742 1.348 . S
C743 C745 1.353 . S
C743 H784 0.929 . S
C744 C742 1.356 . S
C744 C746 1.358 . S
C744 H785 0.930 . S
C745 C743 1.353 . S
C745 N747 1.314 . S
C745 H786 0.930 . S
C746 C744 1.358 . S
C746 N747 1.279 . S
C746 H787 0.930 . S
N747 C745 1.314 . S
N747 C746 1.279 . S
C748 C750 1.353 . S
C748 N751 1.314 . S
C748 H754 0.930 . S
C749 N751 1.279 . S
C749 C752 1.358 . S
C749 H755 0.930 . S
C750 C748 1.353 . S
C750 C753 1.348 . S
C750 H788 0.929 . S
N751 Li706 1.990 . S
N751 C748 1.314 . S
N751 C749 1.279 . S
C752 C749 1.358 . S
C752 C753 1.356 . S
C752 H789 0.930 . S
C753 C750 1.348 . S
C753 C752 1.356 . S
H754 C748 0.930 . S
H755 C749 0.930 . S
C756 N757 1.314 . S
C756 C758 1.353 . S
C756 H762 0.930 . S
N757 Li707 1.990 . S
N757 C756 1.314 . S
N757 C760 1.279 . S
C758 C756 1.353 . S
C758 C761 1.348 . S
C758 H790 0.929 . S
C759 C760 1.358 . S
C759 C761 1.356 . S
C759 H791 0.930 . S
C760 N757 1.279 . S
C760 C759 1.358 . S
C760 H763 0.930 . S
C761 C758 1.348 . S
C761 C759 1.356 . S
H762 C756 0.930 . S
H763 C760 0.930 . S
O764 Li704 1.956 . S
O764 Li705 1.970 . S
O764 Li706 1.961 . S
O764 C708 1.325 . S
O765 Li704 1.970 . S
O765 Li705 1.956 . S
O765 Li707 1.961 . S
O765 C714 1.325 . S
O766 Li704 1.961 . S
O766 Li706 1.956 . S
O766 Li707 1.970 . S
O766 C736 1.325 . S
O767 Li705 1.961 . S
O767 Li706 1.970 . S
O767 Li707 1.956 . S
O767 C742 1.325 . S
H768 C710 0.929 . S
H769 C711 0.930 . S
H770 C712 0.930 . S
H771 C713 0.930 . S
H772 C715 0.930 . S
H773 C717 0.929 . S
H774 C718 0.930 . S
H775 C719 0.930 . S
H776 C722 0.930 . S
H777 C725 0.929 . S
H778 C730 0.929 . S
H779 C731 0.930 . S
H780 C738 0.929 . S
H781 C739 0.930 . S
H782 C740 0.930 . S
H783 C741 0.930 . S
H784 C743 0.929 . S
H785 C744 0.930 . S
H786 C745 0.930 . S
H787 C746 0.930 . S
H788 C750 0.929 . S
H789 C752 0.930 . S
H790 C758 0.929 . S
H791 C759 0.930 . S
Li792 N809 1.990 . S
Li792 O852 1.956 . S
Li792 O853 1.970 . S
Li792 O854 1.961 . S
Li793 N817 1.990 . S
Li793 O852 1.970 . S
Li793 O853 1.956 . S
Li793 O855 1.961 . S
Li794 N839 1.990 . S
Li794 O852 1.961 . S
Li794 O854 1.956 . S
Li794 O855 1.970 . S
Li795 N845 1.990 . S
Li795 O853 1.961 . S
Li795 O854 1.970 . S
Li795 O855 1.956 . S
C796 C798 1.348 . S
C796 C799 1.356 . S
C796 O852 1.325 . S
N797 C800 1.314 . S
N797 C801 1.279 . S
C798 C796 1.348 . S
C798 C800 1.353 . S
C798 H856 0.929 . S
C799 C796 1.356 . S
C799 C801 1.358 . S
C799 H857 0.930 . S
C800 N797 1.314 . S
C800 C798 1.353 . S
C800 H858 0.930 . S
C801 N797 1.279 . S
C801 C799 1.358 . S
C801 H859 0.930 . S
C802 C805 1.348 . S
C802 C806 1.356 . S
C802 O853 1.325 . S
C803 N804 1.279 . S
C803 C806 1.358 . S
C803 H860 0.930 . S
N804 C803 1.279 . S
N804 C807 1.314 . S
C805 C802 1.348 . S
C805 C807 1.353 . S
C805 H861 0.929 . S
C806 C802 1.356 . S
C806 C803 1.358 . S
C806 H862 0.930 . S
C807 N804 1.314 . S
C807 C805 1.353 . S
C807 H863 0.930 . S
C808 N809 1.314 . S
C808 C813 1.353 . S
C808 H814 0.930 . S
N809 Li792 1.990 . S
N809 C808 1.314 . S
N809 C811 1.279 . S
C810 C811 1.358 . S
C810 C812 1.356 . S
C810 H864 0.930 . S
C811 N809 1.279 . S
C811 C810 1.358 . S
C811 H815 0.930 . S
C812 C810 1.356 . S
C812 C813 1.348 . S
C813 C808 1.353 . S
C813 C812 1.348 . S
C813 H865 0.929 . S
H814 C808 0.930 . S
H815 C811 0.930 . S
C816 N817 1.314 . S
C816 C818 1.353 . S
C816 H822 0.930 . S
N817 Li793 1.990 . S
N817 C816 1.314 . S
N817 C820 1.279 . S
C818 C816 1.353 . S
C818 C821 1.348 . S
C818 H866 0.929 . S
C819 C820 1.358 . S
C819 C821 1.356 . S
C819 H867 0.930 . S
C820 N817 1.279 . S
C820 C819 1.358 . S
C820 H823 0.930 . S
C821 C818 1.348 . S
C821 C819 1.356 . S
H822 C816 0.930 . S
H823 C820 0.930 . S
C824 C826 1.348 . S
C824 C827 1.356 . S
C824 O854 1.325 . S
N825 C828 1.314 . S
N825 C829 1.279 . S
C826 C824 1.348 . S
C826 C828 1.353 . S
C826 H868 0.929 . S
C827 C824 1.356 . S
C827 C829 1.358 . S
C827 H869 0.930 . S
C828 N825 1.314 . S
C828 C826 1.353 . S
C828 H870 0.930 . S
C829 N825 1.279 . S
C829 C827 1.358 . S
C829 H871 0.930 . S
C830 C831 1.348 . S
C830 C832 1.356 . S
C830 O855 1.325 . S
C831 C830 1.348 . S
C831 C833 1.353 . S
C831 H872 0.929 . S
C832 C830 1.356 . S
C832 C834 1.358 . S
C832 H873 0.930 . S
C833 C831 1.353 . S
C833 N835 1.314 . S
C833 H874 0.930 . S
C834 C832 1.358 . S
C834 N835 1.279 . S
C834 H875 0.930 . S
N835 C833 1.314 . S
N835 C834 1.279 . S
C836 C838 1.353 . S
C836 N839 1.314 . S
C836 H842 0.930 . S
C837 N839 1.279 . S
C837 C840 1.358 . S
C837 H843 0.930 . S
C838 C836 1.353 . S
C838 C841 1.348 . S
C838 H876 0.929 . S
N839 Li794 1.990 . S
N839 C836 1.314 . S
N839 C837 1.279 . S
C840 C837 1.358 . S
C840 C841 1.356 . S
C840 H877 0.930 . S
C841 C838 1.348 . S
C841 C840 1.356 . S
H842 C836 0.930 . S
H843 C837 0.930 . S
C844 N845 1.314 . S
C844 C846 1.353 . S
C844 H850 0.930 . S
N845 Li795 1.990 . S
N845 C844 1.314 . S
N845 C848 1.279 . S
C846 C844 1.353 . S
C846 C849 1.348 . S
C846 H878 0.929 . S
C847 C848 1.358 . S
C847 C849 1.356 . S
C847 H879 0.930 . S
C848 N845 1.279 . S
C848 C847 1.358 . S
C848 H851 0.930 . S
C849 C846 1.348 . S
C849 C847 1.356 . S
H850 C844 0.930 . S
H851 C848 0.930 . S
O852 Li792 1.956 . S
O852 Li793 1.970 . S
O852 Li794 1.961 . S
O852 C796 1.325 . S
O853 Li792 1.970 . S
O853 Li793 1.956 . S
O853 Li795 1.961 . S
O853 C802 1.325 . S
O854 Li792 1.961 . S
O854 Li794 1.956 . S
O854 Li795 1.970 . S
O854 C824 1.325 . S
O855 Li793 1.961 . S
O855 Li794 1.970 . S
O855 Li795 1.956 . S
O855 C830 1.325 . S
H856 C798 0.929 . S
H857 C799 0.930 . S
H858 C800 0.930 . S
H859 C801 0.930 . S
H860 C803 0.930 . S
H861 C805 0.929 . S
H862 C806 0.930 . S
H863 C807 0.930 . S
H864 C810 0.930 . S
H865 C813 0.929 . S
H866 C818 0.929 . S
H867 C819 0.930 . S
H868 C826 0.929 . S
H869 C827 0.930 . S
H870 C828 0.930 . S
H871 C829 0.930 . S
H872 C831 0.929 . S
H873 C832 0.930 . S
H874 C833 0.930 . S
H875 C834 0.930 . S
H876 C838 0.929 . S
H877 C840 0.930 . S
H878 C846 0.929 . S
H879 C847 0.930 . S
Li880 N897 1.990 . S
Li880 O940 1.956 . S
Li880 O941 1.970 1_455 S
Li880 O942 1.961 . S
Li881 N905 1.990 . S
Li881 O940 1.970 1_655 S
Li881 O941 1.956 . S
Li881 O943 1.961 1_655 S
Li882 N927 1.990 . S
Li882 O940 1.961 . S
Li882 O942 1.956 . S
Li882 O943 1.970 . S
Li883 N933 1.990 . S
Li883 O941 1.961 1_455 S
Li883 O942 1.970 . S
Li883 O943 1.956 . S
C884 C886 1.348 1_455 S
C884 C887 1.356 . S
C884 O940 1.325 . S
N885 C888 1.314 . S
N885 C889 1.279 1_655 S
C886 C884 1.348 1_655 S
C886 C888 1.353 . S
C886 H944 0.929 . S
C887 C884 1.356 . S
C887 C889 1.358 . S
C887 H945 0.930 . S
C888 N885 1.314 . S
C888 C886 1.353 . S
C888 H946 0.930 . S
C889 N885 1.279 1_455 S
C889 C887 1.358 . S
C889 H947 0.930 . S
C890 C893 1.348 . S
C890 C894 1.356 . S
C890 O941 1.325 . S
C891 N892 1.279 . S
C891 C894 1.358 . S
C891 H948 0.930 . S
N892 C891 1.279 . S
N892 C895 1.314 . S
C893 C890 1.348 . S
C893 C895 1.353 . S
C893 H949 0.929 . S
C894 C890 1.356 . S
C894 C891 1.358 . S
C894 H950 0.930 . S
C895 N892 1.314 . S
C895 C893 1.353 . S
C895 H951 0.930 . S
C896 N897 1.314 . S
C896 C901 1.353 . S
C896 H902 0.930 . S
N897 Li880 1.990 . S
N897 C896 1.314 . S
N897 C899 1.283 . S
C898 C899 1.357 1_655 S
C898 C900 1.356 1_655 S
C898 H952 0.930 . S
C899 N897 1.283 . S
C899 C898 1.357 1_455 S
C899 H903 0.927 1_455 S
C900 C898 1.356 1_455 S
C900 C901 1.348 . S
C901 C896 1.353 . S
C901 C900 1.348 . S
C901 H953 0.929 . S
H902 C896 0.930 . S
H903 C899 0.927 1_655 S
C904 N905 1.314 . S
C904 C906 1.353 . S
C904 H910 0.930 . S
N905 Li881 1.990 . S
N905 C904 1.314 . S
N905 C908 1.279 . S
C906 C904 1.353 . S
C906 C909 1.348 . S
C906 H954 0.929 . S
C907 C908 1.358 . S
C907 C909 1.356 . S
C907 H955 0.930 . S
C908 N905 1.279 . S
C908 C907 1.358 . S
C908 H911 0.930 . S
C909 C906 1.348 . S
C909 C907 1.356 . S
H910 C904 0.930 . S
H911 C908 0.930 . S
C912 C914 1.348 . S
C912 C915 1.356 . S
C912 O942 1.325 . S
N913 C916 1.314 . S
N913 C917 1.279 . S
C914 C912 1.348 . S
C914 C916 1.353 . S
C914 H956 0.929 . S
C915 C912 1.356 . S
C915 C917 1.358 . S
C915 H957 0.930 . S
C916 N913 1.314 . S
C916 C914 1.353 . S
C916 H958 0.930 . S
C917 N913 1.279 . S
C917 C915 1.358 . S
C917 H959 0.930 . S
C918 C919 1.348 . S
C918 C920 1.356 . S
C918 O943 1.325 . S
C919 C918 1.348 . S
C919 C921 1.353 . S
C919 H960 0.929 . S
C920 C918 1.356 . S
C920 C922 1.358 . S
C920 H961 0.930 1_455 S
C921 C919 1.353 . S
C921 N923 1.314 . S
C921 H962 0.930 . S
C922 C920 1.358 . S
C922 N923 1.279 . S
C922 H963 0.930 1_455 S
N923 C921 1.314 . S
N923 C922 1.279 . S
C924 C926 1.353 . S
C924 N927 1.314 . S
C924 H930 0.930 . S
C925 N927 1.279 . S
C925 C928 1.358 . S
C925 H931 0.930 . S
C926 C924 1.353 . S
C926 C929 1.348 . S
C926 H964 0.929 . S
N927 Li882 1.990 . S
N927 C924 1.314 . S
N927 C925 1.279 . S
C928 C925 1.358 . S
C928 C929 1.356 . S
C928 H965 0.930 . S
C929 C926 1.348 . S
C929 C928 1.356 . S
H930 C924 0.930 . S
H931 C925 0.930 . S
C932 N933 1.314 . S
C932 C934 1.353 . S
C932 H938 0.930 . S
N933 Li883 1.990 . S
N933 C932 1.314 . S
N933 C936 1.279 . S
C934 C932 1.353 . S
C934 C937 1.348 . S
C934 H966 0.929 . S
C935 C936 1.358 . S
C935 C937 1.356 . S
C935 H967 0.930 . S
C936 N933 1.279 . S
C936 C935 1.358 . S
C936 H939 0.930 . S
C937 C934 1.348 . S
C937 C935 1.356 . S
H938 C932 0.930 . S
H939 C936 0.930 . S
O940 Li880 1.956 . S
O940 Li881 1.970 1_455 S
O940 Li882 1.961 . S
O940 C884 1.325 . S
O941 Li880 1.970 1_655 S
O941 Li881 1.956 . S
O941 Li883 1.961 1_655 S
O941 C890 1.325 . S
O942 Li880 1.961 . S
O942 Li882 1.956 . S
O942 Li883 1.970 . S
O942 C912 1.325 . S
O943 Li881 1.961 1_455 S
O943 Li882 1.970 . S
O943 Li883 1.956 . S
O943 C918 1.325 . S
H944 C886 0.929 . S
H945 C887 0.930 . S
H946 C888 0.930 . S
H947 C889 0.930 . S
H948 C891 0.930 . S
H949 C893 0.929 . S
H950 C894 0.930 . S
H951 C895 0.930 . S
H952 C898 0.930 . S
H953 C901 0.929 . S
H954 C906 0.929 . S
H955 C907 0.930 . S
H956 C914 0.929 . S
H957 C915 0.930 . S
H958 C916 0.930 . S
H959 C917 0.930 . S
H960 C919 0.929 . S
H961 C920 0.930 1_655 S
H962 C921 0.930 . S
H963 C922 0.930 1_655 S
H964 C926 0.929 . S
H965 C928 0.930 . S
H966 C934 0.929 . S
H967 C935 0.930 . S
Li968 N985 1.990 . S
Li968 O1028 1.956 . S
Li968 O1029 1.970 1_545 S
Li968 O1030 1.961 . S
Li969 N993 1.990 . S
Li969 O1028 1.970 1_565 S
Li969 O1029 1.956 . S
Li969 O1031 1.961 1_565 S
Li970 N1015 1.990 . S
Li970 O1028 1.961 . S
Li970 O1030 1.956 . S
Li970 O1031 1.970 . S
Li971 N1021 1.990 . S
Li971 O1029 1.961 1_545 S
Li971 O1030 1.970 . S
Li971 O1031 1.956 . S
C972 C974 1.348 1_545 S
C972 C975 1.356 . S
C972 O1028 1.325 . S
N973 C976 1.314 . S
N973 C977 1.279 1_565 S
C974 C972 1.348 1_565 S
C974 C976 1.353 . S
C974 H1032 0.929 . S
C975 C972 1.356 . S
C975 C977 1.358 . S
C975 H1033 0.930 . S
C976 N973 1.314 . S
C976 C974 1.353 . S
C976 H1034 0.930 . S
C977 N973 1.279 1_545 S
C977 C975 1.358 . S
C977 H1035 0.930 . S
C978 C981 1.348 . S
C978 C982 1.356 . S
C978 O1029 1.325 . S
C979 N980 1.279 . S
C979 C982 1.358 . S
C979 H1036 0.930 . S
N980 C979 1.279 . S
N980 C983 1.314 . S
C981 C978 1.348 . S
C981 C983 1.353 . S
C981 H1037 0.929 . S
C982 C978 1.356 . S
C982 C979 1.358 . S
C982 H1038 0.930 . S
C983 N980 1.314 . S
C983 C981 1.353 . S
C983 H1039 0.930 . S
C984 N985 1.314 . S
C984 C989 1.353 . S
C984 H990 0.930 . S
N985 Li968 1.990 . S
N985 C984 1.314 . S
N985 C987 1.283 . S
C986 C987 1.357 1_565 S
C986 C988 1.356 1_565 S
C986 H1040 0.930 . S
C987 N985 1.283 . S
C987 C986 1.357 1_545 S
C987 H991 0.927 1_545 S
C988 C986 1.356 1_545 S
C988 C989 1.348 . S
C989 C984 1.353 . S
C989 C988 1.348 . S
C989 H1041 0.929 . S
H990 C984 0.930 . S
H991 C987 0.927 1_565 S
C992 N993 1.314 . S
C992 C994 1.353 . S
C992 H998 0.930 . S
N993 Li969 1.990 . S
N993 C992 1.314 . S
N993 C996 1.279 . S
C994 C992 1.353 . S
C994 C997 1.348 . S
C994 H1042 0.929 . S
C995 C996 1.358 . S
C995 C997 1.356 . S
C995 H1043 0.930 . S
C996 N993 1.279 . S
C996 C995 1.358 . S
C996 H999 0.930 . S
C997 C994 1.348 . S
C997 C995 1.356 . S
H998 C992 0.930 . S
H999 C996 0.930 . S
C1000 C1002 1.348 . S
C1000 C1003 1.356 . S
C1000 O1030 1.325 . S
N1001 C1004 1.314 . S
N1001 C1005 1.279 . S
C1002 C1000 1.348 . S
C1002 C1004 1.353 . S
C1002 H1044 0.929 . S
C1003 C1000 1.356 . S
C1003 C1005 1.358 . S
C1003 H1045 0.930 . S
C1004 N1001 1.314 . S
C1004 C1002 1.353 . S
C1004 H1046 0.930 . S
C1005 N1001 1.279 . S
C1005 C1003 1.358 . S
C1005 H1047 0.930 . S
C1006 C1007 1.348 . S
C1006 C1008 1.356 . S
C1006 O1031 1.325 . S
C1007 C1006 1.348 . S
C1007 C1009 1.353 . S
C1007 H1048 0.929 . S
C1008 C1006 1.356 . S
C1008 C1010 1.358 . S
C1008 H1049 0.930 1_545 S
C1009 C1007 1.353 . S
C1009 N1011 1.314 . S
C1009 H1050 0.930 . S
C1010 C1008 1.358 . S
C1010 N1011 1.279 . S
C1010 H1051 0.930 1_545 S
N1011 C1009 1.314 . S
N1011 C1010 1.279 . S
C1012 C1014 1.353 . S
C1012 N1015 1.314 . S
C1012 H1018 0.930 . S
C1013 N1015 1.279 . S
C1013 C1016 1.358 . S
C1013 H1019 0.930 . S
C1014 C1012 1.353 . S
C1014 C1017 1.348 . S
C1014 H1052 0.929 . S
N1015 Li970 1.990 . S
N1015 C1012 1.314 . S
N1015 C1013 1.279 . S
C1016 C1013 1.358 . S
C1016 C1017 1.356 . S
C1016 H1053 0.930 . S
C1017 C1014 1.348 . S
C1017 C1016 1.356 . S
H1018 C1012 0.930 . S
H1019 C1013 0.930 . S
C1020 N1021 1.314 . S
C1020 C1022 1.353 . S
C1020 H1026 0.930 . S
N1021 Li971 1.990 . S
N1021 C1020 1.314 . S
N1021 C1024 1.279 . S
C1022 C1020 1.353 . S
C1022 C1025 1.348 . S
C1022 H1054 0.929 . S
C1023 C1024 1.358 . S
C1023 C1025 1.356 . S
C1023 H1055 0.930 . S
C1024 N1021 1.279 . S
C1024 C1023 1.358 . S
C1024 H1027 0.930 . S
C1025 C1022 1.348 . S
C1025 C1023 1.356 . S
H1026 C1020 0.930 . S
H1027 C1024 0.930 . S
O1028 Li968 1.956 . S
O1028 Li969 1.970 1_545 S
O1028 Li970 1.961 . S
O1028 C972 1.325 . S
O1029 Li968 1.970 1_565 S
O1029 Li969 1.956 . S
O1029 Li971 1.961 1_565 S
O1029 C978 1.325 . S
O1030 Li968 1.961 . S
O1030 Li970 1.956 . S
O1030 Li971 1.970 . S
O1030 C1000 1.325 . S
O1031 Li969 1.961 1_545 S
O1031 Li970 1.970 . S
O1031 Li971 1.956 . S
O1031 C1006 1.325 . S
H1032 C974 0.929 . S
H1033 C975 0.930 . S
H1034 C976 0.930 . S
H1035 C977 0.930 . S
H1036 C979 0.930 . S
H1037 C981 0.929 . S
H1038 C982 0.930 . S
H1039 C983 0.930 . S
H1040 C986 0.930 . S
H1041 C989 0.929 . S
H1042 C994 0.929 . S
H1043 C995 0.930 . S
H1044 C1002 0.929 . S
H1045 C1003 0.930 . S
H1046 C1004 0.930 . S
H1047 C1005 0.930 . S
H1048 C1007 0.929 . S
H1049 C1008 0.930 1_565 S
H1050 C1009 0.930 . S
H1051 C1010 0.930 1_565 S
H1052 C1014 0.929 . S
H1053 C1016 0.930 . S
H1054 C1022 0.929 . S
H1055 C1023 0.930 . S
Li1056 N1073 1.990 . S
Li1056 O1116 1.956 . S
Li1056 O1117 1.970 . S
Li1056 O1118 1.961 . S
Li1057 N1081 1.990 . S
Li1057 O1116 1.970 . S
Li1057 O1117 1.956 . S
Li1057 O1119 1.961 . S
Li1058 N1103 1.990 . S
Li1058 O1116 1.961 . S
Li1058 O1118 1.956 . S
Li1058 O1119 1.970 . S
Li1059 N1109 1.990 . S
Li1059 O1117 1.961 . S
Li1059 O1118 1.970 . S
Li1059 O1119 1.956 . S
C1060 C1062 1.348 . S
C1060 C1063 1.356 . S
C1060 O1116 1.325 . S
N1061 C1064 1.314 . S
N1061 C1065 1.279 . S
C1062 C1060 1.348 . S
C1062 C1064 1.353 . S
C1062 H1120 0.929 . S
C1063 C1060 1.356 . S
C1063 C1065 1.358 . S
C1063 H1121 0.930 . S
C1064 N1061 1.314 . S
C1064 C1062 1.353 . S
C1064 H1122 0.930 . S
C1065 N1061 1.279 . S
C1065 C1063 1.358 . S
C1065 H1123 0.930 . S
C1066 C1069 1.348 . S
C1066 C1070 1.356 . S
C1066 O1117 1.325 . S
C1067 N1068 1.279 . S
C1067 C1070 1.358 . S
C1067 H1124 0.930 . S
N1068 C1067 1.279 . S
N1068 C1071 1.314 . S
C1069 C1066 1.348 . S
C1069 C1071 1.353 . S
C1069 H1125 0.929 . S
C1070 C1066 1.356 . S
C1070 C1067 1.358 . S
C1070 H1126 0.930 . S
C1071 N1068 1.314 . S
C1071 C1069 1.353 . S
C1071 H1127 0.930 . S
C1072 N1073 1.314 . S
C1072 C1077 1.353 . S
C1072 H1078 0.930 . S
N1073 Li1056 1.990 . S
N1073 C1072 1.314 . S
N1073 C1075 1.279 . S
C1074 C1075 1.358 . S
C1074 C1076 1.356 . S
C1074 H1128 0.930 . S
C1075 N1073 1.279 . S
C1075 C1074 1.358 . S
C1075 H1079 0.930 . S
C1076 C1074 1.356 . S
C1076 C1077 1.348 . S
C1077 C1072 1.353 . S
C1077 C1076 1.348 . S
C1077 H1129 0.929 . S
H1078 C1072 0.930 . S
H1079 C1075 0.930 . S
C1080 N1081 1.314 . S
C1080 C1082 1.353 . S
C1080 H1086 0.930 . S
N1081 Li1057 1.990 . S
N1081 C1080 1.314 . S
N1081 C1084 1.279 . S
C1082 C1080 1.353 . S
C1082 C1085 1.348 . S
C1082 H1130 0.929 . S
C1083 C1084 1.358 . S
C1083 C1085 1.356 . S
C1083 H1131 0.930 . S
C1084 N1081 1.279 . S
C1084 C1083 1.358 . S
C1084 H1087 0.930 . S
C1085 C1082 1.348 . S
C1085 C1083 1.356 . S
H1086 C1080 0.930 . S
H1087 C1084 0.930 . S
C1088 C1090 1.348 . S
C1088 C1091 1.356 . S
C1088 O1118 1.325 . S
N1089 C1092 1.314 . S
N1089 C1093 1.279 . S
C1090 C1088 1.348 . S
C1090 C1092 1.353 . S
C1090 H1132 0.929 . S
C1091 C1088 1.356 . S
C1091 C1093 1.358 . S
C1091 H1133 0.930 . S
C1092 N1089 1.314 . S
C1092 C1090 1.353 . S
C1092 H1134 0.930 . S
C1093 N1089 1.279 . S
C1093 C1091 1.358 . S
C1093 H1135 0.930 . S
C1094 C1095 1.348 . S
C1094 C1096 1.356 . S
C1094 O1119 1.325 . S
C1095 C1094 1.348 . S
C1095 C1097 1.353 . S
C1095 H1136 0.929 . S
C1096 C1094 1.356 . S
C1096 C1098 1.358 . S
C1096 H1137 0.930 . S
C1097 C1095 1.353 . S
C1097 N1099 1.314 . S
C1097 H1138 0.930 . S
C1098 C1096 1.358 . S
C1098 N1099 1.279 . S
C1098 H1139 0.930 . S
N1099 C1097 1.314 . S
N1099 C1098 1.279 . S
C1100 C1102 1.353 . S
C1100 N1103 1.314 . S
C1100 H1106 0.930 . S
C1101 N1103 1.279 . S
C1101 C1104 1.358 . S
C1101 H1107 0.930 . S
C1102 C1100 1.353 . S
C1102 C1105 1.348 . S
C1102 H1140 0.929 . S
N1103 Li1058 1.990 . S
N1103 C1100 1.314 . S
N1103 C1101 1.279 . S
C1104 C1101 1.358 . S
C1104 C1105 1.356 . S
C1104 H1141 0.930 . S
C1105 C1102 1.348 . S
C1105 C1104 1.356 . S
H1106 C1100 0.930 . S
H1107 C1101 0.930 . S
C1108 N1109 1.314 . S
C1108 C1110 1.353 . S
C1108 H1114 0.930 . S
N1109 Li1059 1.990 . S
N1109 C1108 1.314 . S
N1109 C1112 1.279 . S
C1110 C1108 1.353 . S
C1110 C1113 1.348 . S
C1110 H1142 0.929 . S
C1111 C1112 1.358 . S
C1111 C1113 1.356 . S
C1111 H1143 0.930 . S
C1112 N1109 1.279 . S
C1112 C1111 1.358 . S
C1112 H1115 0.930 . S
C1113 C1110 1.348 . S
C1113 C1111 1.356 . S
H1114 C1108 0.930 . S
H1115 C1112 0.930 . S
O1116 Li1056 1.956 . S
O1116 Li1057 1.970 . S
O1116 Li1058 1.961 . S
O1116 C1060 1.325 . S
O1117 Li1056 1.970 . S
O1117 Li1057 1.956 . S
O1117 Li1059 1.961 . S
O1117 C1066 1.325 . S
O1118 Li1056 1.961 . S
O1118 Li1058 1.956 . S
O1118 Li1059 1.970 . S
O1118 C1088 1.325 . S
O1119 Li1057 1.961 . S
O1119 Li1058 1.970 . S
O1119 Li1059 1.956 . S
O1119 C1094 1.325 . S
H1120 C1062 0.929 . S
H1121 C1063 0.930 . S
H1122 C1064 0.930 . S
H1123 C1065 0.930 . S
H1124 C1067 0.930 . S
H1125 C1069 0.929 . S
H1126 C1070 0.930 . S
H1127 C1071 0.930 . S
H1128 C1074 0.930 . S
H1129 C1077 0.929 . S
H1130 C1082 0.929 . S
H1131 C1083 0.930 . S
H1132 C1090 0.929 . S
H1133 C1091 0.930 . S
H1134 C1092 0.930 . S
H1135 C1093 0.930 . S
H1136 C1095 0.929 . S
H1137 C1096 0.930 . S
H1138 C1097 0.930 . S
H1139 C1098 0.930 . S
H1140 C1102 0.929 . S
H1141 C1104 0.930 . S
H1142 C1110 0.929 . S
H1143 C1111 0.930 . S
Li1144 N1161 1.990 . S
Li1144 O1204 1.956 . S
Li1144 O1205 1.970 . S
Li1144 O1206 1.961 . S
Li1145 N1169 1.990 . S
Li1145 O1204 1.970 . S
Li1145 O1205 1.956 . S
Li1145 O1207 1.961 . S
Li1146 N1191 1.990 . S
Li1146 O1204 1.961 . S
Li1146 O1206 1.956 . S
Li1146 O1207 1.970 . S
Li1147 N1197 1.990 . S
Li1147 O1205 1.961 . S
Li1147 O1206 1.970 . S
Li1147 O1207 1.956 . S
C1148 C1150 1.348 . S
C1148 C1151 1.356 . S
C1148 O1204 1.325 . S
N1149 C1152 1.314 . S
N1149 C1153 1.279 . S
C1150 C1148 1.348 . S
C1150 C1152 1.353 . S
C1150 H1208 0.929 . S
C1151 C1148 1.356 . S
C1151 C1153 1.358 . S
C1151 H1209 0.930 . S
C1152 N1149 1.314 . S
C1152 C1150 1.353 . S
C1152 H1210 0.930 . S
C1153 N1149 1.279 . S
C1153 C1151 1.358 . S
C1153 H1211 0.930 . S
C1154 C1157 1.348 . S
C1154 C1158 1.356 . S
C1154 O1205 1.325 . S
C1155 N1156 1.279 . S
C1155 C1158 1.358 . S
C1155 H1212 0.930 . S
N1156 C1155 1.279 . S
N1156 C1159 1.314 . S
C1157 C1154 1.348 . S
C1157 C1159 1.353 . S
C1157 H1213 0.929 . S
C1158 C1154 1.356 . S
C1158 C1155 1.358 . S
C1158 H1214 0.930 . S
C1159 N1156 1.314 . S
C1159 C1157 1.353 . S
C1159 H1215 0.930 . S
C1160 N1161 1.314 . S
C1160 C1165 1.353 . S
C1160 H1166 0.930 . S
N1161 Li1144 1.990 . S
N1161 C1160 1.314 . S
N1161 C1163 1.279 . S
C1162 C1163 1.358 . S
C1162 C1164 1.356 . S
C1162 H1216 0.930 . S
C1163 N1161 1.279 . S
C1163 C1162 1.358 . S
C1163 H1167 0.930 . S
C1164 C1162 1.356 . S
C1164 C1165 1.348 . S
C1165 C1160 1.353 . S
C1165 C1164 1.348 . S
C1165 H1217 0.929 . S
H1166 C1160 0.930 . S
H1167 C1163 0.930 . S
C1168 N1169 1.314 . S
C1168 C1170 1.353 . S
C1168 H1174 0.930 . S
N1169 Li1145 1.990 . S
N1169 C1168 1.314 . S
N1169 C1172 1.279 . S
C1170 C1168 1.353 . S
C1170 C1173 1.348 . S
C1170 H1218 0.929 . S
C1171 C1172 1.358 . S
C1171 C1173 1.356 . S
C1171 H1219 0.930 . S
C1172 N1169 1.279 . S
C1172 C1171 1.358 . S
C1172 H1175 0.930 . S
C1173 C1170 1.348 . S
C1173 C1171 1.356 . S
H1174 C1168 0.930 . S
H1175 C1172 0.930 . S
C1176 C1178 1.348 . S
C1176 C1179 1.356 . S
C1176 O1206 1.325 . S
N1177 C1180 1.314 . S
N1177 C1181 1.279 . S
C1178 C1176 1.348 . S
C1178 C1180 1.353 . S
C1178 H1220 0.929 . S
C1179 C1176 1.356 . S
C1179 C1181 1.358 . S
C1179 H1221 0.930 . S
C1180 N1177 1.314 . S
C1180 C1178 1.353 . S
C1180 H1222 0.930 . S
C1181 N1177 1.279 . S
C1181 C1179 1.358 . S
C1181 H1223 0.930 . S
C1182 C1183 1.348 . S
C1182 C1184 1.356 . S
C1182 O1207 1.325 . S
C1183 C1182 1.348 . S
C1183 C1185 1.353 . S
C1183 H1224 0.929 . S
C1184 C1182 1.356 . S
C1184 C1186 1.358 . S
C1184 H1225 0.930 . S
C1185 C1183 1.353 . S
C1185 N1187 1.314 . S
C1185 H1226 0.930 . S
C1186 C1184 1.358 . S
C1186 N1187 1.279 . S
C1186 H1227 0.930 . S
N1187 C1185 1.314 . S
N1187 C1186 1.279 . S
C1188 C1190 1.353 . S
C1188 N1191 1.314 . S
C1188 H1194 0.930 . S
C1189 N1191 1.279 . S
C1189 C1192 1.358 . S
C1189 H1195 0.930 . S
C1190 C1188 1.353 . S
C1190 C1193 1.348 . S
C1190 H1228 0.929 . S
N1191 Li1146 1.990 . S
N1191 C1188 1.314 . S
N1191 C1189 1.279 . S
C1192 C1189 1.358 . S
C1192 C1193 1.356 . S
C1192 H1229 0.930 . S
C1193 C1190 1.348 . S
C1193 C1192 1.356 . S
H1194 C1188 0.930 . S
H1195 C1189 0.930 . S
C1196 N1197 1.314 . S
C1196 C1198 1.353 . S
C1196 H1202 0.930 . S
N1197 Li1147 1.990 . S
N1197 C1196 1.314 . S
N1197 C1200 1.279 . S
C1198 C1196 1.353 . S
C1198 C1201 1.348 . S
C1198 H1230 0.929 . S
C1199 C1200 1.358 . S
C1199 C1201 1.356 . S
C1199 H1231 0.930 . S
C1200 N1197 1.279 . S
C1200 C1199 1.358 . S
C1200 H1203 0.930 . S
C1201 C1198 1.348 . S
C1201 C1199 1.356 . S
H1202 C1196 0.930 . S
H1203 C1200 0.930 . S
O1204 Li1144 1.956 . S
O1204 Li1145 1.970 . S
O1204 Li1146 1.961 . S
O1204 C1148 1.325 . S
O1205 Li1144 1.970 . S
O1205 Li1145 1.956 . S
O1205 Li1147 1.961 . S
O1205 C1154 1.325 . S
O1206 Li1144 1.961 . S
O1206 Li1146 1.956 . S
O1206 Li1147 1.970 . S
O1206 C1176 1.325 . S
O1207 Li1145 1.961 . S
O1207 Li1146 1.970 . S
O1207 Li1147 1.956 . S
O1207 C1182 1.325 . S
H1208 C1150 0.929 . S
H1209 C1151 0.930 . S
H1210 C1152 0.930 . S
H1211 C1153 0.930 . S
H1212 C1155 0.930 . S
H1213 C1157 0.929 . S
H1214 C1158 0.930 . S
H1215 C1159 0.930 . S
H1216 C1162 0.930 . S
H1217 C1165 0.929 . S
H1218 C1170 0.929 . S
H1219 C1171 0.930 . S
H1220 C1178 0.929 . S
H1221 C1179 0.930 . S
H1222 C1180 0.930 . S
H1223 C1181 0.930 . S
H1224 C1183 0.929 . S
H1225 C1184 0.930 . S
H1226 C1185 0.930 . S
H1227 C1186 0.930 . S
H1228 C1190 0.929 . S
H1229 C1192 0.930 . S
H1230 C1198 0.929 . S
H1231 C1199 0.930 . S
Li1232 N1249 1.990 . S
Li1232 O1292 1.956 . S
Li1232 O1293 1.970 . S
Li1232 O1294 1.961 . S
Li1233 N1257 1.990 . S
Li1233 O1292 1.970 . S
Li1233 O1293 1.956 . S
Li1233 O1295 1.961 1_455 S
Li1234 N1279 1.990 . S
Li1234 O1292 1.961 . S
Li1234 O1294 1.956 . S
Li1234 O1295 1.970 1_455 S
Li1235 N1285 1.990 . S
Li1235 O1293 1.961 1_655 S
Li1235 O1294 1.970 1_655 S
Li1235 O1295 1.956 . S
C1236 C1238 1.348 . S
C1236 C1239 1.356 . S
C1236 O1292 1.325 . S
N1237 C1240 1.314 . S
N1237 C1241 1.279 . S
C1238 C1236 1.348 . S
C1238 C1240 1.353 . S
C1238 H1296 0.929 . S
C1239 C1236 1.356 . S
C1239 C1241 1.358 . S
C1239 H1297 0.930 . S
C1240 N1237 1.314 . S
C1240 C1238 1.353 . S
C1240 H1298 0.930 . S
C1241 N1237 1.279 . S
C1241 C1239 1.358 . S
C1241 H1299 0.930 . S
C1242 C1245 1.348 . S
C1242 C1246 1.356 . S
C1242 O1293 1.325 . S
C1243 N1244 1.279 . S
C1243 C1246 1.358 . S
C1243 H1300 0.930 1_455 S
N1244 C1243 1.279 . S
N1244 C1247 1.314 . S
C1245 C1242 1.348 . S
C1245 C1247 1.353 . S
C1245 H1301 0.929 . S
C1246 C1242 1.356 . S
C1246 C1243 1.358 . S
C1246 H1302 0.930 1_455 S
C1247 N1244 1.314 . S
C1247 C1245 1.353 . S
C1247 H1303 0.930 . S
C1248 N1249 1.314 . S
C1248 C1253 1.353 . S
C1248 H1254 0.930 . S
N1249 Li1232 1.990 . S
N1249 C1248 1.314 . S
N1249 C1251 1.279 . S
C1250 C1251 1.358 . S
C1250 C1252 1.356 . S
C1250 H1304 0.930 . S
C1251 N1249 1.279 . S
C1251 C1250 1.358 . S
C1251 H1255 0.930 . S
C1252 C1250 1.356 . S
C1252 C1253 1.348 . S
C1253 C1248 1.353 . S
C1253 C1252 1.348 . S
C1253 H1305 0.929 . S
H1254 C1248 0.930 . S
H1255 C1251 0.930 . S
C1256 N1257 1.314 . S
C1256 C1258 1.353 . S
C1256 H1262 0.930 . S
N1257 Li1233 1.990 . S
N1257 C1256 1.314 . S
N1257 C1260 1.279 . S
C1258 C1256 1.353 . S
C1258 C1261 1.348 . S
C1258 H1306 0.929 . S
C1259 C1260 1.358 . S
C1259 C1261 1.356 . S
C1259 H1307 0.930 . S
C1260 N1257 1.279 . S
C1260 C1259 1.358 . S
C1260 H1263 0.930 . S
C1261 C1258 1.348 . S
C1261 C1259 1.356 . S
H1262 C1256 0.930 . S
H1263 C1260 0.930 . S
C1264 C1266 1.348 1_455 S
C1264 C1267 1.356 . S
C1264 O1294 1.325 . S
N1265 C1268 1.314 . S
N1265 C1269 1.279 1_655 S
C1266 C1264 1.348 1_655 S
C1266 C1268 1.353 . S
C1266 H1308 0.929 . S
C1267 C1264 1.356 . S
C1267 C1269 1.358 . S
C1267 H1309 0.930 . S
C1268 N1265 1.314 . S
C1268 C1266 1.353 . S
C1268 H1310 0.930 . S
C1269 N1265 1.279 1_455 S
C1269 C1267 1.358 . S
C1269 H1311 0.930 . S
C1270 C1271 1.348 . S
C1270 C1272 1.356 . S
C1270 O1295 1.325 . S
C1271 C1270 1.348 . S
C1271 C1273 1.353 . S
C1271 H1312 0.929 . S
C1272 C1270 1.356 . S
C1272 C1274 1.358 . S
C1272 H1313 0.930 . S
C1273 C1271 1.353 . S
C1273 N1275 1.314 . S
C1273 H1314 0.930 . S
C1274 C1272 1.358 . S
C1274 N1275 1.279 . S
C1274 H1315 0.930 . S
N1275 C1273 1.314 . S
N1275 C1274 1.279 . S
C1276 C1278 1.353 . S
C1276 N1279 1.314 . S
C1276 H1282 0.930 . S
C1277 N1279 1.283 . S
C1277 C1280 1.357 1_455 S
C1277 H1283 0.927 1_455 S
C1278 C1276 1.353 . S
C1278 C1281 1.348 . S
C1278 H1316 0.929 . S
N1279 Li1234 1.990 . S
N1279 C1276 1.314 . S
N1279 C1277 1.283 . S
C1280 C1277 1.357 1_655 S
C1280 C1281 1.356 1_655 S
C1280 H1317 0.930 . S
C1281 C1278 1.348 . S
C1281 C1280 1.356 1_455 S
H1282 C1276 0.930 . S
H1283 C1277 0.927 1_655 S
C1284 N1285 1.314 . S
C1284 C1286 1.353 . S
C1284 H1290 0.930 . S
N1285 Li1235 1.990 . S
N1285 C1284 1.314 . S
N1285 C1288 1.279 . S
C1286 C1284 1.353 . S
C1286 C1289 1.348 . S
C1286 H1318 0.929 . S
C1287 C1288 1.358 . S
C1287 C1289 1.356 . S
C1287 H1319 0.930 . S
C1288 N1285 1.279 . S
C1288 C1287 1.358 . S
C1288 H1291 0.930 . S
C1289 C1286 1.348 . S
C1289 C1287 1.356 . S
H1290 C1284 0.930 . S
H1291 C1288 0.930 . S
O1292 Li1232 1.956 . S
O1292 Li1233 1.970 . S
O1292 Li1234 1.961 . S
O1292 C1236 1.325 . S
O1293 Li1232 1.970 . S
O1293 Li1233 1.956 . S
O1293 Li1235 1.961 1_455 S
O1293 C1242 1.325 . S
O1294 Li1232 1.961 . S
O1294 Li1234 1.956 . S
O1294 Li1235 1.970 1_455 S
O1294 C1264 1.325 . S
O1295 Li1233 1.961 1_655 S
O1295 Li1234 1.970 1_655 S
O1295 Li1235 1.956 . S
O1295 C1270 1.325 . S
H1296 C1238 0.929 . S
H1297 C1239 0.930 . S
H1298 C1240 0.930 . S
H1299 C1241 0.930 . S
H1300 C1243 0.930 1_655 S
H1301 C1245 0.929 . S
H1302 C1246 0.930 1_655 S
H1303 C1247 0.930 . S
H1304 C1250 0.930 . S
H1305 C1253 0.929 . S
H1306 C1258 0.929 . S
H1307 C1259 0.930 . S
H1308 C1266 0.929 . S
H1309 C1267 0.930 . S
H1310 C1268 0.930 . S
H1311 C1269 0.930 . S
H1312 C1271 0.929 . S
H1313 C1272 0.930 . S
H1314 C1273 0.930 . S
H1315 C1274 0.930 . S
H1316 C1278 0.929 . S
H1317 C1280 0.930 . S
H1318 C1286 0.929 . S
H1319 C1287 0.930 . S
Li1320 N1337 1.990 . S
Li1320 O1380 1.956 . S
Li1320 O1381 1.970 . S
Li1320 O1382 1.961 . S
Li1321 N1345 1.990 . S
Li1321 O1380 1.970 . S
Li1321 O1381 1.956 . S
Li1321 O1383 1.961 1_545 S
Li1322 N1367 1.990 . S
Li1322 O1380 1.961 . S
Li1322 O1382 1.956 . S
Li1322 O1383 1.970 1_545 S
Li1323 N1373 1.990 . S
Li1323 O1381 1.961 1_565 S
Li1323 O1382 1.970 1_565 S
Li1323 O1383 1.956 . S
C1324 C1326 1.348 . S
C1324 C1327 1.356 . S
C1324 O1380 1.325 . S
N1325 C1328 1.314 . S
N1325 C1329 1.279 . S
C1326 C1324 1.348 . S
C1326 C1328 1.353 . S
C1326 H1384 0.929 . S
C1327 C1324 1.356 . S
C1327 C1329 1.358 . S
C1327 H1385 0.930 . S
C1328 N1325 1.314 . S
C1328 C1326 1.353 . S
C1328 H1386 0.930 . S
C1329 N1325 1.279 . S
C1329 C1327 1.358 . S
C1329 H1387 0.930 . S
C1330 C1333 1.348 . S
C1330 C1334 1.356 . S
C1330 O1381 1.325 . S
C1331 N1332 1.279 . S
C1331 C1334 1.358 . S
C1331 H1388 0.930 1_545 S
N1332 C1331 1.279 . S
N1332 C1335 1.314 . S
C1333 C1330 1.348 . S
C1333 C1335 1.353 . S
C1333 H1389 0.929 . S
C1334 C1330 1.356 . S
C1334 C1331 1.358 . S
C1334 H1390 0.930 1_545 S
C1335 N1332 1.314 . S
C1335 C1333 1.353 . S
C1335 H1391 0.930 . S
C1336 N1337 1.314 . S
C1336 C1341 1.353 . S
C1336 H1342 0.930 . S
N1337 Li1320 1.990 . S
N1337 C1336 1.314 . S
N1337 C1339 1.279 . S
C1338 C1339 1.358 . S
C1338 C1340 1.356 . S
C1338 H1392 0.930 . S
C1339 N1337 1.279 . S
C1339 C1338 1.358 . S
C1339 H1343 0.930 . S
C1340 C1338 1.356 . S
C1340 C1341 1.348 . S
C1341 C1336 1.353 . S
C1341 C1340 1.348 . S
C1341 H1393 0.929 . S
H1342 C1336 0.930 . S
H1343 C1339 0.930 . S
C1344 N1345 1.314 . S
C1344 C1346 1.353 . S
C1344 H1350 0.930 . S
N1345 Li1321 1.990 . S
N1345 C1344 1.314 . S
N1345 C1348 1.279 . S
C1346 C1344 1.353 . S
C1346 C1349 1.348 . S
C1346 H1394 0.929 . S
C1347 C1348 1.358 . S
C1347 C1349 1.356 . S
C1347 H1395 0.930 . S
C1348 N1345 1.279 . S
C1348 C1347 1.358 . S
C1348 H1351 0.930 . S
C1349 C1346 1.348 . S
C1349 C1347 1.356 . S
H1350 C1344 0.930 . S
H1351 C1348 0.930 . S
C1352 C1354 1.348 1_545 S
C1352 C1355 1.356 . S
C1352 O1382 1.325 . S
N1353 C1356 1.314 . S
N1353 C1357 1.279 1_565 S
C1354 C1352 1.348 1_565 S
C1354 C1356 1.353 . S
C1354 H1396 0.929 . S
C1355 C1352 1.356 . S
C1355 C1357 1.358 . S
C1355 H1397 0.930 . S
C1356 N1353 1.314 . S
C1356 C1354 1.353 . S
C1356 H1398 0.930 . S
C1357 N1353 1.279 1_545 S
C1357 C1355 1.358 . S
C1357 H1399 0.930 . S
C1358 C1359 1.348 . S
C1358 C1360 1.356 . S
C1358 O1383 1.325 . S
C1359 C1358 1.348 . S
C1359 C1361 1.353 . S
C1359 H1400 0.929 . S
C1360 C1358 1.356 . S
C1360 C1362 1.358 . S
C1360 H1401 0.930 . S
C1361 C1359 1.353 . S
C1361 N1363 1.314 . S
C1361 H1402 0.930 . S
C1362 C1360 1.358 . S
C1362 N1363 1.279 . S
C1362 H1403 0.930 . S
N1363 C1361 1.314 . S
N1363 C1362 1.279 . S
C1364 C1366 1.353 . S
C1364 N1367 1.314 . S
C1364 H1370 0.930 . S
C1365 N1367 1.283 . S
C1365 C1368 1.357 1_545 S
C1365 H1371 0.927 1_545 S
C1366 C1364 1.353 . S
C1366 C1369 1.348 . S
C1366 H1404 0.929 . S
N1367 Li1322 1.990 . S
N1367 C1364 1.314 . S
N1367 C1365 1.283 . S
C1368 C1365 1.357 1_565 S
C1368 C1369 1.356 1_565 S
C1368 H1405 0.930 . S
C1369 C1366 1.348 . S
C1369 C1368 1.356 1_545 S
H1370 C1364 0.930 . S
H1371 C1365 0.927 1_565 S
C1372 N1373 1.314 . S
C1372 C1374 1.353 . S
C1372 H1378 0.930 . S
N1373 Li1323 1.990 . S
N1373 C1372 1.314 . S
N1373 C1376 1.279 . S
C1374 C1372 1.353 . S
C1374 C1377 1.348 . S
C1374 H1406 0.929 . S
C1375 C1376 1.358 . S
C1375 C1377 1.356 . S
C1375 H1407 0.930 . S
C1376 N1373 1.279 . S
C1376 C1375 1.358 . S
C1376 H1379 0.930 . S
C1377 C1374 1.348 . S
C1377 C1375 1.356 . S
H1378 C1372 0.930 . S
H1379 C1376 0.930 . S
O1380 Li1320 1.956 . S
O1380 Li1321 1.970 . S
O1380 Li1322 1.961 . S
O1380 C1324 1.325 . S
O1381 Li1320 1.970 . S
O1381 Li1321 1.956 . S
O1381 Li1323 1.961 1_545 S
O1381 C1330 1.325 . S
O1382 Li1320 1.961 . S
O1382 Li1322 1.956 . S
O1382 Li1323 1.970 1_545 S
O1382 C1352 1.325 . S
O1383 Li1321 1.961 1_565 S
O1383 Li1322 1.970 1_565 S
O1383 Li1323 1.956 . S
O1383 C1358 1.325 . S
H1384 C1326 0.929 . S
H1385 C1327 0.930 . S
H1386 C1328 0.930 . S
H1387 C1329 0.930 . S
H1388 C1331 0.930 1_565 S
H1389 C1333 0.929 . S
H1390 C1334 0.930 1_565 S
H1391 C1335 0.930 . S
H1392 C1338 0.930 . S
H1393 C1341 0.929 . S
H1394 C1346 0.929 . S
H1395 C1347 0.930 . S
H1396 C1354 0.929 . S
H1397 C1355 0.930 . S
H1398 C1356 0.930 . S
H1399 C1357 0.930 . S
H1400 C1359 0.929 . S
H1401 C1360 0.930 . S
H1402 C1361 0.930 . S
H1403 C1362 0.930 . S
H1404 C1366 0.929 . S
H1405 C1368 0.930 . S
H1406 C1374 0.929 . S
H1407 C1375 0.930 . S
H1408 C1420 0.930 . S
H1409 C1422 0.930 . S
H1410 C1423 0.930 . S
H1411 C1427 0.959 . S
H1412 C1427 0.959 . S
H1413 C1427 0.961 . S
H1414 C1428 0.960 . S
H1415 C1428 0.961 . S
H1416 C1428 0.959 . S
H1417 C1431 0.929 . S
H1418 C1432 0.931 . S
H1419 C1434 0.930 . S
C1420 H1408 0.930 . S
C1420 C1421 1.399 . S
C1420 C1425 1.399 . S
C1421 C1420 1.399 . S
C1421 C1422 1.376 . S
C1422 H1409 0.930 . S
C1422 C1421 1.376 . S
C1422 C1423 1.388 . S
C1423 H1410 0.930 . S
C1423 C1422 1.388 . S
C1423 C1424 1.390 . S
C1424 C1423 1.390 . S
C1424 C1425 1.394 . S
C1424 C1430 1.465 . S
C1425 C1420 1.399 . S
C1425 C1424 1.394 . S
C1425 C1426 1.516 . S
C1426 C1425 1.516 . S
C1426 C1427 1.502 . S
C1426 C1428 1.561 . S
C1426 C1429 1.526 . S
C1427 H1411 0.959 . S
C1427 H1412 0.959 . S
C1427 H1413 0.961 . S
C1427 C1426 1.502 . S
C1428 H1414 0.960 . S
C1428 H1415 0.961 . S
C1428 H1416 0.959 . S
C1428 C1426 1.561 . S
C1429 C1426 1.526 . S
C1429 C1430 1.396 . S
C1429 C1434 1.390 . S
C1430 C1424 1.465 . S
C1430 C1429 1.396 . S
C1430 C1431 1.399 . S
C1431 H1417 0.929 . S
C1431 C1430 1.399 . S
C1431 C1432 1.385 . S
C1432 H1418 0.931 . S
C1432 C1431 1.385 . S
C1432 C1433 1.389 . S
C1433 C1432 1.389 . S
C1433 C1434 1.387 . S
C1434 H1419 0.930 . S
C1434 C1429 1.390 . S
C1434 C1433 1.387 . S
H1435 C1447 0.930 . S
H1436 C1449 0.930 . S
H1437 C1450 0.930 . S
H1438 C1454 0.959 . S
H1439 C1454 0.959 . S
H1440 C1454 0.961 . S
H1441 C1455 0.960 . S
H1442 C1455 0.961 . S
H1443 C1455 0.959 . S
H1444 C1458 0.929 . S
H1445 C1459 0.931 . S
H1446 C1461 0.930 . S
C1447 H1435 0.930 . S
C1447 C1448 1.399 . S
C1447 C1452 1.399 . S
C1448 C1447 1.399 . S
C1448 C1449 1.376 . S
C1449 H1436 0.930 . S
C1449 C1448 1.376 . S
C1449 C1450 1.388 . S
C1450 H1437 0.930 . S
C1450 C1449 1.388 . S
C1450 C1451 1.390 . S
C1451 C1450 1.390 . S
C1451 C1452 1.394 . S
C1451 C1457 1.465 . S
C1452 C1447 1.399 . S
C1452 C1451 1.394 . S
C1452 C1453 1.516 . S
C1453 C1452 1.516 . S
C1453 C1454 1.502 . S
C1453 C1455 1.561 . S
C1453 C1456 1.526 . S
C1454 H1438 0.959 . S
C1454 H1439 0.959 . S
C1454 H1440 0.961 . S
C1454 C1453 1.502 . S
C1455 H1441 0.960 . S
C1455 H1442 0.961 . S
C1455 H1443 0.959 . S
C1455 C1453 1.561 . S
C1456 C1453 1.526 . S
C1456 C1457 1.396 . S
C1456 C1461 1.390 . S
C1457 C1451 1.465 . S
C1457 C1456 1.396 . S
C1457 C1458 1.399 . S
C1458 H1444 0.929 . S
C1458 C1457 1.399 . S
C1458 C1459 1.385 . S
C1459 H1445 0.931 . S
C1459 C1458 1.385 . S
C1459 C1460 1.389 . S
C1460 C1459 1.389 . S
C1460 C1461 1.387 . S
C1461 H1446 0.930 . S
C1461 C1456 1.390 . S
C1461 C1460 1.387 . S
H1462 C1474 0.930 . S
H1463 C1476 0.930 . S
H1464 C1477 0.930 . S
H1465 C1481 0.959 . S
H1466 C1481 0.959 . S
H1467 C1481 0.961 . S
H1468 C1482 0.960 . S
H1469 C1482 0.961 . S
H1470 C1482 0.959 . S
H1471 C1485 0.929 . S
H1472 C1486 0.931 . S
H1473 C1488 0.930 . S
C1474 H1462 0.930 . S
C1474 C1475 1.399 . S
C1474 C1479 1.399 . S
C1475 C1474 1.399 . S
C1475 C1476 1.376 . S
C1476 H1463 0.930 . S
C1476 C1475 1.376 . S
C1476 C1477 1.388 . S
C1477 H1464 0.930 . S
C1477 C1476 1.388 . S
C1477 C1478 1.390 . S
C1478 C1477 1.390 . S
C1478 C1479 1.394 . S
C1478 C1484 1.465 . S
C1479 C1474 1.399 . S
C1479 C1478 1.394 . S
C1479 C1480 1.516 . S
C1480 C1479 1.516 . S
C1480 C1481 1.502 . S
C1480 C1482 1.561 . S
C1480 C1483 1.526 . S
C1481 H1465 0.959 . S
C1481 H1466 0.959 . S
C1481 H1467 0.961 . S
C1481 C1480 1.502 . S
C1482 H1468 0.960 . S
C1482 H1469 0.961 . S
C1482 H1470 0.959 . S
C1482 C1480 1.561 . S
C1483 C1480 1.526 . S
C1483 C1484 1.396 . S
C1483 C1488 1.390 . S
C1484 C1478 1.465 . S
C1484 C1483 1.396 . S
C1484 C1485 1.399 . S
C1485 H1471 0.929 . S
C1485 C1484 1.399 . S
C1485 C1486 1.385 . S
C1486 H1472 0.931 . S
C1486 C1485 1.385 . S
C1486 C1487 1.389 . S
C1487 C1486 1.389 . S
C1487 C1488 1.387 . S
C1488 H1473 0.930 . S
C1488 C1483 1.390 . S
C1488 C1487 1.387 . S
H1489 C1501 0.930 . S
H1490 C1503 0.930 . S
H1491 C1504 0.930 . S
H1492 C1508 0.959 . S
H1493 C1508 0.959 . S
H1494 C1508 0.961 . S
H1495 C1509 0.960 . S
H1496 C1509 0.961 . S
H1497 C1509 0.959 . S
H1498 C1512 0.929 . S
H1499 C1513 0.931 . S
H1500 C1515 0.930 . S
C1501 H1489 0.930 . S
C1501 C1502 1.399 . S
C1501 C1506 1.399 . S
C1502 C1501 1.399 . S
C1502 C1503 1.376 . S
C1503 H1490 0.930 . S
C1503 C1502 1.376 . S
C1503 C1504 1.388 . S
C1504 H1491 0.930 . S
C1504 C1503 1.388 . S
C1504 C1505 1.390 . S
C1505 C1504 1.390 . S
C1505 C1506 1.394 . S
C1505 C1511 1.465 . S
C1506 C1501 1.399 . S
C1506 C1505 1.394 . S
C1506 C1507 1.516 . S
C1507 C1506 1.516 . S
C1507 C1508 1.502 . S
C1507 C1509 1.561 . S
C1507 C1510 1.526 . S
C1508 H1492 0.959 . S
C1508 H1493 0.959 . S
C1508 H1494 0.961 . S
C1508 C1507 1.502 . S
C1509 H1495 0.960 . S
C1509 H1496 0.961 . S
C1509 H1497 0.959 . S
C1509 C1507 1.561 . S
C1510 C1507 1.526 . S
C1510 C1511 1.396 . S
C1510 C1515 1.390 . S
C1511 C1505 1.465 . S
C1511 C1510 1.396 . S
C1511 C1512 1.399 . S
C1512 H1498 0.929 . S
C1512 C1511 1.399 . S
C1512 C1513 1.385 . S
C1513 H1499 0.931 . S
C1513 C1512 1.385 . S
C1513 C1514 1.389 . S
C1514 C1513 1.389 . S
C1514 C1515 1.387 . S
C1515 H1500 0.930 . S
C1515 C1510 1.390 . S
C1515 C1514 1.387 . S
H1516 C1528 0.930 . S
H1517 C1530 0.930 . S
H1518 C1531 0.930 . S
H1519 C1535 0.959 . S
H1520 C1535 0.959 . S
H1521 C1535 0.961 . S
H1522 C1536 0.960 . S
H1523 C1536 0.961 . S
H1524 C1536 0.959 . S
H1525 C1539 0.929 . S
H1526 C1540 0.931 . S
H1527 C1542 0.930 . S
C1528 H1516 0.930 . S
C1528 C1529 1.399 . S
C1528 C1533 1.399 . S
C1529 C1528 1.399 . S
C1529 C1530 1.376 . S
C1530 H1517 0.930 . S
C1530 C1529 1.376 . S
C1530 C1531 1.388 . S
C1531 H1518 0.930 . S
C1531 C1530 1.388 . S
C1531 C1532 1.390 . S
C1532 C1531 1.390 . S
C1532 C1533 1.394 . S
C1532 C1538 1.465 . S
C1533 C1528 1.399 . S
C1533 C1532 1.394 . S
C1533 C1534 1.516 . S
C1534 C1533 1.516 . S
C1534 C1535 1.502 . S
C1534 C1536 1.561 . S
C1534 C1537 1.526 . S
C1535 H1519 0.959 . S
C1535 H1520 0.959 . S
C1535 H1521 0.961 . S
C1535 C1534 1.502 . S
C1536 H1522 0.960 . S
C1536 H1523 0.961 . S
C1536 H1524 0.959 . S
C1536 C1534 1.561 . S
C1537 C1534 1.526 . S
C1537 C1538 1.396 . S
C1537 C1542 1.390 . S
C1538 C1532 1.465 . S
C1538 C1537 1.396 . S
C1538 C1539 1.399 . S
C1539 H1525 0.929 . S
C1539 C1538 1.399 . S
C1539 C1540 1.385 . S
C1540 H1526 0.931 . S
C1540 C1539 1.385 . S
C1540 C1541 1.389 . S
C1541 C1540 1.389 . S
C1541 C1542 1.387 . S
C1542 H1527 0.930 . S
C1542 C1537 1.390 . S
C1542 C1541 1.387 . S
H1543 C1555 0.930 . S
H1544 C1557 0.930 . S
H1545 C1558 0.930 . S
H1546 C1562 0.959 . S
H1547 C1562 0.959 . S
H1548 C1562 0.961 . S
H1549 C1563 0.960 . S
H1550 C1563 0.961 . S
H1551 C1563 0.959 . S
H1552 C1566 0.929 . S
H1553 C1567 0.931 . S
H1554 C1569 0.930 . S
C1555 H1543 0.930 . S
C1555 C1556 1.399 . S
C1555 C1560 1.399 . S
C1556 C1555 1.399 . S
C1556 C1557 1.376 . S
C1557 H1544 0.930 . S
C1557 C1556 1.376 . S
C1557 C1558 1.388 . S
C1558 H1545 0.930 . S
C1558 C1557 1.388 . S
C1558 C1559 1.390 . S
C1559 C1558 1.390 . S
C1559 C1560 1.394 . S
C1559 C1565 1.465 . S
C1560 C1555 1.399 . S
C1560 C1559 1.394 . S
C1560 C1561 1.516 . S
C1561 C1560 1.516 . S
C1561 C1562 1.502 . S
C1561 C1563 1.561 . S
C1561 C1564 1.526 . S
C1562 H1546 0.959 . S
C1562 H1547 0.959 . S
C1562 H1548 0.961 . S
C1562 C1561 1.502 . S
C1563 H1549 0.960 . S
C1563 H1550 0.961 . S
C1563 H1551 0.959 . S
C1563 C1561 1.561 . S
C1564 C1561 1.526 . S
C1564 C1565 1.396 . S
C1564 C1569 1.390 . S
C1565 C1559 1.465 . S
C1565 C1564 1.396 . S
C1565 C1566 1.399 . S
C1566 H1552 0.929 . S
C1566 C1565 1.399 . S
C1566 C1567 1.385 . S
C1567 H1553 0.931 . S
C1567 C1566 1.385 . S
C1567 C1568 1.389 . S
C1568 C1567 1.389 . S
C1568 C1569 1.387 . S
C1569 H1554 0.930 . S
C1569 C1564 1.390 . S
C1569 C1568 1.387 . S
H1570 C1582 0.930 . S
H1571 C1584 0.930 . S
H1572 C1585 0.930 . S
H1573 C1589 0.959 . S
H1574 C1589 0.959 . S
H1575 C1589 0.961 . S
H1576 C1590 0.960 . S
H1577 C1590 0.961 . S
H1578 C1590 0.959 . S
H1579 C1593 0.929 . S
H1580 C1594 0.931 . S
H1581 C1596 0.930 . S
C1582 H1570 0.930 . S
C1582 C1583 1.399 . S
C1582 C1587 1.399 . S
C1583 C1582 1.399 . S
C1583 C1584 1.376 . S
C1584 H1571 0.930 . S
C1584 C1583 1.376 . S
C1584 C1585 1.388 . S
C1585 H1572 0.930 . S
C1585 C1584 1.388 . S
C1585 C1586 1.390 . S
C1586 C1585 1.390 . S
C1586 C1587 1.394 . S
C1586 C1592 1.465 . S
C1587 C1582 1.399 . S
C1587 C1586 1.394 . S
C1587 C1588 1.516 . S
C1588 C1587 1.516 . S
C1588 C1589 1.502 . S
C1588 C1590 1.561 . S
C1588 C1591 1.526 . S
C1589 H1573 0.959 . S
C1589 H1574 0.959 . S
C1589 H1575 0.961 . S
C1589 C1588 1.502 . S
C1590 H1576 0.960 . S
C1590 H1577 0.961 . S
C1590 H1578 0.959 . S
C1590 C1588 1.561 . S
C1591 C1588 1.526 . S
C1591 C1592 1.396 . S
C1591 C1596 1.390 . S
C1592 C1586 1.465 . S
C1592 C1591 1.396 . S
C1592 C1593 1.399 . S
C1593 H1579 0.929 . S
C1593 C1592 1.399 . S
C1593 C1594 1.385 . S
C1594 H1580 0.931 . S
C1594 C1593 1.385 . S
C1594 C1595 1.389 . S
C1595 C1594 1.389 . S
C1595 C1596 1.387 . S
C1596 H1581 0.930 . S
C1596 C1591 1.390 . S
C1596 C1595 1.387 . S
H1597 C1609 0.930 . S
H1598 C1611 0.930 . S
H1599 C1612 0.930 . S
H1600 C1616 0.959 . S
H1601 C1616 0.959 . S
H1602 C1616 0.961 . S
H1603 C1617 0.960 . S
H1604 C1617 0.961 . S
H1605 C1617 0.959 . S
H1606 C1620 0.929 . S
H1607 C1621 0.931 . S
H1608 C1623 0.930 . S
C1609 H1597 0.930 . S
C1609 C1610 1.399 . S
C1609 C1614 1.399 . S
C1610 C1609 1.399 . S
C1610 C1611 1.376 . S
C1611 H1598 0.930 . S
C1611 C1610 1.376 . S
C1611 C1612 1.388 . S
C1612 H1599 0.930 . S
C1612 C1611 1.388 . S
C1612 C1613 1.390 . S
C1613 C1612 1.390 . S
C1613 C1614 1.394 . S
C1613 C1619 1.465 . S
C1614 C1609 1.399 . S
C1614 C1613 1.394 . S
C1614 C1615 1.516 . S
C1615 C1614 1.516 . S
C1615 C1616 1.502 . S
C1615 C1617 1.561 . S
C1615 C1618 1.526 . S
C1616 H1600 0.959 . S
C1616 H1601 0.959 . S
C1616 H1602 0.961 . S
C1616 C1615 1.502 . S
C1617 H1603 0.960 . S
C1617 H1604 0.961 . S
C1617 H1605 0.959 . S
C1617 C1615 1.561 . S
C1618 C1615 1.526 . S
C1618 C1619 1.396 . S
C1618 C1623 1.390 . S
C1619 C1613 1.465 . S
C1619 C1618 1.396 . S
C1619 C1620 1.399 . S
C1620 H1606 0.929 . S
C1620 C1619 1.399 . S
C1620 C1621 1.385 . S
C1621 H1607 0.931 . S
C1621 C1620 1.385 . S
C1621 C1622 1.389 . S
C1622 C1621 1.389 . S
C1622 C1623 1.387 . S
C1623 H1608 0.930 . S
C1623 C1618 1.390 . S
C1623 C1622 1.387 . S
H1624 C1636 0.930 . S
H1625 C1638 0.930 . S
H1626 C1639 0.930 . S
H1627 C1643 0.959 . S
H1628 C1643 0.959 . S
H1629 C1643 0.961 . S
H1630 C1644 0.960 . S
H1631 C1644 0.961 . S
H1632 C1644 0.959 . S
H1633 C1647 0.929 . S
H1634 C1648 0.931 . S
H1635 C1650 0.930 . S
C1636 H1624 0.930 . S
C1636 C1637 1.399 . S
C1636 C1641 1.399 . S
C1637 C1636 1.399 . S
C1637 C1638 1.376 . S
C1638 H1625 0.930 . S
C1638 C1637 1.376 . S
C1638 C1639 1.388 . S
C1639 H1626 0.930 . S
C1639 C1638 1.388 . S
C1639 C1640 1.390 . S
C1640 C1639 1.390 . S
C1640 C1641 1.394 . S
C1640 C1646 1.465 . S
C1641 C1636 1.399 . S
C1641 C1640 1.394 . S
C1641 C1642 1.516 . S
C1642 C1641 1.516 . S
C1642 C1643 1.502 . S
C1642 C1644 1.561 . S
C1642 C1645 1.526 . S
C1643 H1627 0.959 . S
C1643 H1628 0.959 . S
C1643 H1629 0.961 . S
C1643 C1642 1.502 . S
C1644 H1630 0.960 . S
C1644 H1631 0.961 . S
C1644 H1632 0.959 . S
C1644 C1642 1.561 . S
C1645 C1642 1.526 . S
C1645 C1646 1.396 . S
C1645 C1650 1.390 . S
C1646 C1640 1.465 . S
C1646 C1645 1.396 . S
C1646 C1647 1.399 . S
C1647 H1633 0.929 . S
C1647 C1646 1.399 . S
C1647 C1648 1.385 . S
C1648 H1634 0.931 . S
C1648 C1647 1.385 . S
C1648 C1649 1.389 . S
C1649 C1648 1.389 . S
C1649 C1650 1.387 . S
C1650 H1635 0.930 . S
C1650 C1645 1.390 . S
C1650 C1649 1.387 . S
H1651 C1663 0.930 . S
H1652 C1665 0.930 . S
H1653 C1666 0.930 . S
H1654 C1670 0.959 . S
H1655 C1670 0.959 . S
H1656 C1670 0.961 . S
H1657 C1671 0.960 . S
H1658 C1671 0.961 . S
H1659 C1671 0.959 . S
H1660 C1674 0.929 . S
H1661 C1675 0.931 . S
H1662 C1677 0.930 . S
C1663 H1651 0.930 . S
C1663 C1664 1.399 . S
C1663 C1668 1.399 . S
C1664 C1663 1.399 . S
C1664 C1665 1.376 . S
C1665 H1652 0.930 . S
C1665 C1664 1.376 . S
C1665 C1666 1.388 . S
C1666 H1653 0.930 . S
C1666 C1665 1.388 . S
C1666 C1667 1.390 . S
C1667 C1666 1.390 . S
C1667 C1668 1.394 . S
C1667 C1673 1.465 . S
C1668 C1663 1.399 . S
C1668 C1667 1.394 . S
C1668 C1669 1.516 . S
C1669 C1668 1.516 . S
C1669 C1670 1.502 . S
C1669 C1671 1.561 . S
C1669 C1672 1.526 . S
C1670 H1654 0.959 . S
C1670 H1655 0.959 . S
C1670 H1656 0.961 . S
C1670 C1669 1.502 . S
C1671 H1657 0.960 . S
C1671 H1658 0.961 . S
C1671 H1659 0.959 . S
C1671 C1669 1.561 . S
C1672 C1669 1.526 . S
C1672 C1673 1.396 . S
C1672 C1677 1.390 . S
C1673 C1667 1.465 . S
C1673 C1672 1.396 . S
C1673 C1674 1.399 . S
C1674 H1660 0.929 . S
C1674 C1673 1.399 . S
C1674 C1675 1.385 . S
C1675 H1661 0.931 . S
C1675 C1674 1.385 . S
C1675 C1676 1.389 . S
C1676 C1675 1.389 . S
C1676 C1677 1.387 . S
C1677 H1662 0.930 . S
C1677 C1672 1.390 . S
C1677 C1676 1.387 . S
H1678 C1690 0.930 . S
H1679 C1692 0.930 . S
H1680 C1693 0.930 . S
H1681 C1697 0.959 . S
H1682 C1697 0.959 . S
H1683 C1697 0.961 . S
H1684 C1698 0.960 . S
H1685 C1698 0.961 . S
H1686 C1698 0.959 . S
H1687 C1701 0.929 . S
H1688 C1702 0.931 . S
H1689 C1704 0.930 . S
C1690 H1678 0.930 . S
C1690 C1691 1.399 . S
C1690 C1695 1.399 . S
C1691 C1690 1.399 . S
C1691 C1692 1.376 . S
C1692 H1679 0.930 . S
C1692 C1691 1.376 . S
C1692 C1693 1.388 . S
C1693 H1680 0.930 . S
C1693 C1692 1.388 . S
C1693 C1694 1.390 . S
C1694 C1693 1.390 . S
C1694 C1695 1.394 . S
C1694 C1700 1.465 . S
C1695 C1690 1.399 . S
C1695 C1694 1.394 . S
C1695 C1696 1.516 . S
C1696 C1695 1.516 . S
C1696 C1697 1.502 . S
C1696 C1698 1.561 . S
C1696 C1699 1.526 . S
C1697 H1681 0.959 . S
C1697 H1682 0.959 . S
C1697 H1683 0.961 . S
C1697 C1696 1.502 . S
C1698 H1684 0.960 . S
C1698 H1685 0.961 . S
C1698 H1686 0.959 . S
C1698 C1696 1.561 . S
C1699 C1696 1.526 . S
C1699 C1700 1.396 . S
C1699 C1704 1.390 . S
C1700 C1694 1.465 . S
C1700 C1699 1.396 . S
C1700 C1701 1.399 . S
C1701 H1687 0.929 . S
C1701 C1700 1.399 . S
C1701 C1702 1.385 . S
C1702 H1688 0.931 . S
C1702 C1701 1.385 . S
C1702 C1703 1.389 . S
C1703 C1702 1.389 . S
C1703 C1704 1.387 . S
C1704 H1689 0.930 . S
C1704 C1699 1.390 . S
C1704 C1703 1.387 . S
H1705 C1717 0.930 . S
H1706 C1719 0.930 . S
H1707 C1720 0.930 . S
H1708 C1724 0.959 . S
H1709 C1724 0.959 . S
H1710 C1724 0.961 . S
H1711 C1725 0.960 . S
H1712 C1725 0.961 . S
H1713 C1725 0.959 . S
H1714 C1728 0.929 . S
H1715 C1729 0.931 . S
H1716 C1731 0.930 . S
C1717 H1705 0.930 . S
C1717 C1718 1.399 . S
C1717 C1722 1.399 . S
C1718 C1717 1.399 . S
C1718 C1719 1.376 . S
C1719 H1706 0.930 . S
C1719 C1718 1.376 . S
C1719 C1720 1.388 . S
C1720 H1707 0.930 . S
C1720 C1719 1.388 . S
C1720 C1721 1.390 . S
C1721 C1720 1.390 . S
C1721 C1722 1.394 . S
C1721 C1727 1.465 . S
C1722 C1717 1.399 . S
C1722 C1721 1.394 . S
C1722 C1723 1.516 . S
C1723 C1722 1.516 . S
C1723 C1724 1.502 . S
C1723 C1725 1.561 . S
C1723 C1726 1.526 . S
C1724 H1708 0.959 . S
C1724 H1709 0.959 . S
C1724 H1710 0.961 . S
C1724 C1723 1.502 . S
C1725 H1711 0.960 . S
C1725 H1712 0.961 . S
C1725 H1713 0.959 . S
C1725 C1723 1.561 . S
C1726 C1723 1.526 . S
C1726 C1727 1.396 . S
C1726 C1731 1.390 . S
C1727 C1721 1.465 . S
C1727 C1726 1.396 . S
C1727 C1728 1.399 . S
C1728 H1714 0.929 . S
C1728 C1727 1.399 . S
C1728 C1729 1.385 . S
C1729 H1715 0.931 . S
C1729 C1728 1.385 . S
C1729 C1730 1.389 . S
C1730 C1729 1.389 . S
C1730 C1731 1.387 . S
C1731 H1716 0.930 . S
C1731 C1726 1.390 . S
C1731 C1730 1.387 . S
H1732 C1744 0.930 . S
H1733 C1746 0.930 . S
H1734 C1747 0.930 . S
H1735 C1751 0.959 . S
H1736 C1751 0.959 . S
H1737 C1751 0.961 . S
H1738 C1752 0.960 . S
H1739 C1752 0.961 . S
H1740 C1752 0.959 . S
H1741 C1755 0.929 . S
H1742 C1756 0.931 . S
H1743 C1758 0.930 . S
C1744 H1732 0.930 . S
C1744 C1745 1.399 . S
C1744 C1749 1.399 . S
C1745 C1744 1.399 . S
C1745 C1746 1.376 . S
C1746 H1733 0.930 . S
C1746 C1745 1.376 . S
C1746 C1747 1.388 . S
C1747 H1734 0.930 . S
C1747 C1746 1.388 . S
C1747 C1748 1.390 . S
C1748 C1747 1.390 . S
C1748 C1749 1.394 . S
C1748 C1754 1.465 . S
C1749 C1744 1.399 . S
C1749 C1748 1.394 . S
C1749 C1750 1.516 . S
C1750 C1749 1.516 . S
C1750 C1751 1.502 . S
C1750 C1752 1.561 . S
C1750 C1753 1.526 . S
C1751 H1735 0.959 . S
C1751 H1736 0.959 . S
C1751 H1737 0.961 . S
C1751 C1750 1.502 . S
C1752 H1738 0.960 . S
C1752 H1739 0.961 . S
C1752 H1740 0.959 . S
C1752 C1750 1.561 . S
C1753 C1750 1.526 . S
C1753 C1754 1.396 . S
C1753 C1758 1.390 . S
C1754 C1748 1.465 . S
C1754 C1753 1.396 . S
C1754 C1755 1.399 . S
C1755 H1741 0.929 . S
C1755 C1754 1.399 . S
C1755 C1756 1.385 . S
C1756 H1742 0.931 . S
C1756 C1755 1.385 . S
C1756 C1757 1.389 . S
C1757 C1756 1.389 . S
C1757 C1758 1.387 . S
C1758 H1743 0.930 . S
C1758 C1753 1.390 . S
C1758 C1757 1.387 . S
H1759 C1771 0.930 . S
H1760 C1773 0.930 . S
H1761 C1774 0.930 . S
H1762 C1778 0.959 . S
H1763 C1778 0.959 . S
H1764 C1778 0.961 . S
H1765 C1779 0.960 . S
H1766 C1779 0.961 . S
H1767 C1779 0.959 . S
H1768 C1782 0.929 . S
H1769 C1783 0.931 . S
H1770 C1785 0.930 . S
C1771 H1759 0.930 . S
C1771 C1772 1.399 . S
C1771 C1776 1.399 . S
C1772 C1771 1.399 . S
C1772 C1773 1.376 . S
C1773 H1760 0.930 . S
C1773 C1772 1.376 . S
C1773 C1774 1.388 . S
C1774 H1761 0.930 . S
C1774 C1773 1.388 . S
C1774 C1775 1.390 . S
C1775 C1774 1.390 . S
C1775 C1776 1.394 . S
C1775 C1781 1.465 . S
C1776 C1771 1.399 . S
C1776 C1775 1.394 . S
C1776 C1777 1.516 . S
C1777 C1776 1.516 . S
C1777 C1778 1.502 . S
C1777 C1779 1.561 . S
C1777 C1780 1.526 . S
C1778 H1762 0.959 . S
C1778 H1763 0.959 . S
C1778 H1764 0.961 . S
C1778 C1777 1.502 . S
C1779 H1765 0.960 . S
C1779 H1766 0.961 . S
C1779 H1767 0.959 . S
C1779 C1777 1.561 . S
C1780 C1777 1.526 . S
C1780 C1781 1.396 . S
C1780 C1785 1.390 . S
C1781 C1775 1.465 . S
C1781 C1780 1.396 . S
C1781 C1782 1.399 . S
C1782 H1768 0.929 . S
C1782 C1781 1.399 . S
C1782 C1783 1.385 . S
C1783 H1769 0.931 . S
C1783 C1782 1.385 . S
C1783 C1784 1.389 . S
C1784 C1783 1.389 . S
C1784 C1785 1.387 . S
C1785 H1770 0.930 . S
C1785 C1780 1.390 . S
C1785 C1784 1.387 . S
H1786 C1798 0.930 . S
H1787 C1800 0.930 . S
H1788 C1801 0.930 . S
H1789 C1805 0.959 . S
H1790 C1805 0.959 . S
H1791 C1805 0.961 . S
H1792 C1806 0.960 . S
H1793 C1806 0.961 . S
H1794 C1806 0.959 . S
H1795 C1809 0.929 . S
H1796 C1810 0.931 . S
H1797 C1812 0.930 . S
C1798 H1786 0.930 . S
C1798 C1799 1.399 . S
C1798 C1803 1.399 . S
C1799 C1798 1.399 . S
C1799 C1800 1.376 . S
C1800 H1787 0.930 . S
C1800 C1799 1.376 . S
C1800 C1801 1.388 . S
C1801 H1788 0.930 . S
C1801 C1800 1.388 . S
C1801 C1802 1.390 . S
C1802 C1801 1.390 . S
C1802 C1803 1.394 . S
C1802 C1808 1.465 . S
C1803 C1798 1.399 . S
C1803 C1802 1.394 . S
C1803 C1804 1.516 . S
C1804 C1803 1.516 . S
C1804 C1805 1.502 . S
C1804 C1806 1.561 . S
C1804 C1807 1.526 . S
C1805 H1789 0.959 . S
C1805 H1790 0.959 . S
C1805 H1791 0.961 . S
C1805 C1804 1.502 . S
C1806 H1792 0.960 . S
C1806 H1793 0.961 . S
C1806 H1794 0.959 . S
C1806 C1804 1.561 . S
C1807 C1804 1.526 . S
C1807 C1808 1.396 . S
C1807 C1812 1.390 . S
C1808 C1802 1.465 . S
C1808 C1807 1.396 . S
C1808 C1809 1.399 . S
C1809 H1795 0.929 . S
C1809 C1808 1.399 . S
C1809 C1810 1.385 . S
C1810 H1796 0.931 . S
C1810 C1809 1.385 . S
C1810 C1811 1.389 . S
C1811 C1810 1.389 . S
C1811 C1812 1.387 . S
C1812 H1797 0.930 . S
C1812 C1807 1.390 . S
C1812 C1811 1.387 . S
H1813 C1825 0.930 . S
H1814 C1827 0.930 . S
H1815 C1828 0.930 . S
H1816 C1832 0.959 . S
H1817 C1832 0.959 . S
H1818 C1832 0.961 . S
H1819 C1833 0.960 . S
H1820 C1833 0.961 . S
H1821 C1833 0.959 . S
H1822 C1836 0.929 . S
H1823 C1837 0.931 . S
H1824 C1839 0.930 . S
C1825 H1813 0.930 . S
C1825 C1826 1.399 . S
C1825 C1830 1.399 . S
C1826 C1825 1.399 . S
C1826 C1827 1.376 . S
C1827 H1814 0.930 . S
C1827 C1826 1.376 . S
C1827 C1828 1.388 . S
C1828 H1815 0.930 . S
C1828 C1827 1.388 . S
C1828 C1829 1.390 . S
C1829 C1828 1.390 . S
C1829 C1830 1.394 . S
C1829 C1835 1.465 . S
C1830 C1825 1.399 . S
C1830 C1829 1.394 . S
C1830 C1831 1.516 . S
C1831 C1830 1.516 . S
C1831 C1832 1.502 . S
C1831 C1833 1.561 . S
C1831 C1834 1.526 . S
C1832 H1816 0.959 . S
C1832 H1817 0.959 . S
C1832 H1818 0.961 . S
C1832 C1831 1.502 . S
C1833 H1819 0.960 . S
C1833 H1820 0.961 . S
C1833 H1821 0.959 . S
C1833 C1831 1.561 . S
C1834 C1831 1.526 . S
C1834 C1835 1.396 . S
C1834 C1839 1.390 . S
C1835 C1829 1.465 . S
C1835 C1834 1.396 . S
C1835 C1836 1.399 . S
C1836 H1822 0.929 . S
C1836 C1835 1.399 . S
C1836 C1837 1.385 . S
C1837 H1823 0.931 . S
C1837 C1836 1.385 . S
C1837 C1838 1.389 . S
C1838 C1837 1.389 . S
C1838 C1839 1.387 . S
C1839 H1824 0.930 . S
C1839 C1834 1.390 . S
C1839 C1838 1.387 . S
H1840 C1852 0.930 . S
H1841 C1854 0.930 . S
H1842 C1855 0.930 . S
H1843 C1859 0.959 . S
H1844 C1859 0.959 . S
H1845 C1859 0.961 . S
H1846 C1860 0.960 . S
H1847 C1860 0.961 . S
H1848 C1860 0.959 . S
H1849 C1863 0.929 . S
H1850 C1864 0.931 . S
H1851 C1866 0.930 . S
C1852 H1840 0.930 . S
C1852 C1853 1.399 . S
C1852 C1857 1.399 . S
C1853 C1852 1.399 . S
C1853 C1854 1.376 . S
C1854 H1841 0.930 . S
C1854 C1853 1.376 . S
C1854 C1855 1.388 . S
C1855 H1842 0.930 . S
C1855 C1854 1.388 . S
C1855 C1856 1.390 . S
C1856 C1855 1.390 . S
C1856 C1857 1.394 . S
C1856 C1862 1.465 . S
C1857 C1852 1.399 . S
C1857 C1856 1.394 . S
C1857 C1858 1.516 . S
C1858 C1857 1.516 . S
C1858 C1859 1.502 . S
C1858 C1860 1.561 . S
C1858 C1861 1.526 . S
C1859 H1843 0.959 . S
C1859 H1844 0.959 . S
C1859 H1845 0.961 . S
C1859 C1858 1.502 . S
C1860 H1846 0.960 . S
C1860 H1847 0.961 . S
C1860 H1848 0.959 . S
C1860 C1858 1.561 . S
C1861 C1858 1.526 . S
C1861 C1862 1.396 . S
C1861 C1866 1.390 . S
C1862 C1856 1.465 . S
C1862 C1861 1.396 . S
C1862 C1863 1.399 . S
C1863 H1849 0.929 . S
C1863 C1862 1.399 . S
C1863 C1864 1.385 . S
C1864 H1850 0.931 . S
C1864 C1863 1.385 . S
C1864 C1865 1.389 . S
C1865 C1864 1.389 . S
C1865 C1866 1.387 . S
C1866 H1851 0.930 . S
C1866 C1861 1.390 . S
C1866 C1865 1.387 . S
H1867 C1879 0.930 . S
H1868 C1881 0.930 . S
H1869 C1882 0.930 . S
H1870 C1886 0.959 . S
H1871 C1886 0.959 . S
H1872 C1886 0.961 . S
H1873 C1887 0.960 . S
H1874 C1887 0.961 . S
H1875 C1887 0.959 . S
H1876 C1890 0.929 . S
H1877 C1891 0.931 . S
H1878 C1893 0.930 . S
C1879 H1867 0.930 . S
C1879 C1880 1.399 . S
C1879 C1884 1.399 . S
C1880 C1879 1.399 . S
C1880 C1881 1.376 . S
C1881 H1868 0.930 . S
C1881 C1880 1.376 . S
C1881 C1882 1.388 . S
C1882 H1869 0.930 . S
C1882 C1881 1.388 . S
C1882 C1883 1.390 . S
C1883 C1882 1.390 . S
C1883 C1884 1.394 . S
C1883 C1889 1.465 . S
C1884 C1879 1.399 . S
C1884 C1883 1.394 . S
C1884 C1885 1.516 . S
C1885 C1884 1.516 . S
C1885 C1886 1.502 . S
C1885 C1887 1.561 . S
C1885 C1888 1.526 . S
C1886 H1870 0.959 . S
C1886 H1871 0.959 . S
C1886 H1872 0.961 . S
C1886 C1885 1.502 . S
C1887 H1873 0.960 . S
C1887 H1874 0.961 . S
C1887 H1875 0.959 . S
C1887 C1885 1.561 . S
C1888 C1885 1.526 . S
C1888 C1889 1.396 . S
C1888 C1893 1.390 . S
C1889 C1883 1.465 . S
C1889 C1888 1.396 . S
C1889 C1890 1.399 . S
C1890 H1876 0.929 . S
C1890 C1889 1.399 . S
C1890 C1891 1.385 . S
C1891 H1877 0.931 . S
C1891 C1890 1.385 . S
C1891 C1892 1.389 . S
C1892 C1891 1.389 . S
C1892 C1893 1.387 . S
C1893 H1878 0.930 . S
C1893 C1888 1.390 . S
C1893 C1892 1.387 . S
H1894 C1906 0.930 . S
H1895 C1908 0.930 . S
H1896 C1909 0.930 . S
H1897 C1913 0.959 . S
H1898 C1913 0.959 . S
H1899 C1913 0.961 . S
H1900 C1914 0.960 . S
H1901 C1914 0.961 . S
H1902 C1914 0.959 . S
H1903 C1917 0.929 . S
H1904 C1918 0.931 . S
H1905 C1920 0.930 . S
C1906 H1894 0.930 . S
C1906 C1907 1.399 . S
C1906 C1911 1.399 . S
C1907 C1906 1.399 . S
C1907 C1908 1.376 . S
C1908 H1895 0.930 . S
C1908 C1907 1.376 . S
C1908 C1909 1.388 . S
C1909 H1896 0.930 . S
C1909 C1908 1.388 . S
C1909 C1910 1.390 . S
C1910 C1909 1.390 . S
C1910 C1911 1.394 . S
C1910 C1916 1.465 . S
C1911 C1906 1.399 . S
C1911 C1910 1.394 . S
C1911 C1912 1.516 . S
C1912 C1911 1.516 . S
C1912 C1913 1.502 . S
C1912 C1914 1.561 . S
C1912 C1915 1.526 . S
C1913 H1897 0.959 . S
C1913 H1898 0.959 . S
C1913 H1899 0.961 . S
C1913 C1912 1.502 . S
C1914 H1900 0.960 . S
C1914 H1901 0.961 . S
C1914 H1902 0.959 . S
C1914 C1912 1.561 . S
C1915 C1912 1.526 . S
C1915 C1916 1.396 . S
C1915 C1920 1.390 . S
C1916 C1910 1.465 . S
C1916 C1915 1.396 . S
C1916 C1917 1.399 . S
C1917 H1903 0.929 . S
C1917 C1916 1.399 . S
C1917 C1918 1.385 . S
C1918 H1904 0.931 . S
C1918 C1917 1.385 . S
C1918 C1919 1.389 . S
C1919 C1918 1.389 . S
C1919 C1920 1.387 . S
C1920 H1905 0.930 . S
C1920 C1915 1.390 . S
C1920 C1919 1.387 . S
H1921 C1933 0.930 . S
H1922 C1935 0.930 . S
H1923 C1936 0.930 . S
H1924 C1940 0.959 . S
H1925 C1940 0.959 . S
H1926 C1940 0.961 . S
H1927 C1941 0.960 . S
H1928 C1941 0.961 . S
H1929 C1941 0.959 . S
H1930 C1944 0.929 . S
H1931 C1945 0.931 . S
H1932 C1947 0.930 . S
C1933 H1921 0.930 . S
C1933 C1934 1.399 . S
C1933 C1938 1.399 . S
C1934 C1933 1.399 . S
C1934 C1935 1.376 . S
C1935 H1922 0.930 . S
C1935 C1934 1.376 . S
C1935 C1936 1.388 . S
C1936 H1923 0.930 . S
C1936 C1935 1.388 . S
C1936 C1937 1.390 . S
C1937 C1936 1.390 . S
C1937 C1938 1.394 . S
C1937 C1943 1.465 . S
C1938 C1933 1.399 . S
C1938 C1937 1.394 . S
C1938 C1939 1.516 . S
C1939 C1938 1.516 . S
C1939 C1940 1.502 . S
C1939 C1941 1.561 . S
C1939 C1942 1.526 . S
C1940 H1924 0.959 . S
C1940 H1925 0.959 . S
C1940 H1926 0.961 . S
C1940 C1939 1.502 . S
C1941 H1927 0.960 . S
C1941 H1928 0.961 . S
C1941 H1929 0.959 . S
C1941 C1939 1.561 . S
C1942 C1939 1.526 . S
C1942 C1943 1.396 . S
C1942 C1947 1.390 . S
C1943 C1937 1.465 . S
C1943 C1942 1.396 . S
C1943 C1944 1.399 . S
C1944 H1930 0.929 . S
C1944 C1943 1.399 . S
C1944 C1945 1.385 . S
C1945 H1931 0.931 . S
C1945 C1944 1.385 . S
C1945 C1946 1.389 . S
C1946 C1945 1.389 . S
C1946 C1947 1.387 . S
C1947 H1932 0.930 . S
C1947 C1942 1.390 . S
C1947 C1946 1.387 . S
H1948 C1960 0.930 . S
H1949 C1962 0.930 . S
H1950 C1963 0.930 . S
H1951 C1967 0.959 . S
H1952 C1967 0.959 . S
H1953 C1967 0.961 . S
H1954 C1968 0.960 . S
H1955 C1968 0.961 . S
H1956 C1968 0.959 . S
H1957 C1971 0.929 . S
H1958 C1972 0.931 . S
H1959 C1974 0.930 . S
C1960 H1948 0.930 . S
C1960 C1961 1.399 . S
C1960 C1965 1.399 . S
C1961 C1960 1.399 . S
C1961 C1962 1.376 . S
C1962 H1949 0.930 . S
C1962 C1961 1.376 . S
C1962 C1963 1.388 . S
C1963 H1950 0.930 . S
C1963 C1962 1.388 . S
C1963 C1964 1.390 . S
C1964 C1963 1.390 . S
C1964 C1965 1.394 . S
C1964 C1970 1.465 . S
C1965 C1960 1.399 . S
C1965 C1964 1.394 . S
C1965 C1966 1.516 . S
C1966 C1965 1.516 . S
C1966 C1967 1.502 . S
C1966 C1968 1.561 . S
C1966 C1969 1.526 . S
C1967 H1951 0.959 . S
C1967 H1952 0.959 . S
C1967 H1953 0.961 . S
C1967 C1966 1.502 . S
C1968 H1954 0.960 . S
C1968 H1955 0.961 . S
C1968 H1956 0.959 . S
C1968 C1966 1.561 . S
C1969 C1966 1.526 . S
C1969 C1970 1.396 . S
C1969 C1974 1.390 . S
C1970 C1964 1.465 . S
C1970 C1969 1.396 . S
C1970 C1971 1.399 . S
C1971 H1957 0.929 . S
C1971 C1970 1.399 . S
C1971 C1972 1.385 . S
C1972 H1958 0.931 . S
C1972 C1971 1.385 . S
C1972 C1973 1.389 . S
C1973 C1972 1.389 . S
C1973 C1974 1.387 . S
C1974 H1959 0.930 . S
C1974 C1969 1.390 . S
C1974 C1973 1.387 . S
H1975 C1987 0.930 . S
H1976 C1989 0.930 . S
H1977 C1990 0.930 . S
H1978 C1994 0.959 . S
H1979 C1994 0.959 . S
H1980 C1994 0.961 . S
H1981 C1995 0.960 . S
H1982 C1995 0.961 . S
H1983 C1995 0.959 . S
H1984 C1998 0.929 . S
H1985 C1999 0.931 . S
H1986 C2001 0.930 . S
C1987 H1975 0.930 . S
C1987 C1988 1.399 . S
C1987 C1992 1.399 . S
C1988 C1987 1.399 . S
C1988 C1989 1.376 . S
C1989 H1976 0.930 . S
C1989 C1988 1.376 . S
C1989 C1990 1.388 . S
C1990 H1977 0.930 . S
C1990 C1989 1.388 . S
C1990 C1991 1.390 . S
C1991 C1990 1.390 . S
C1991 C1992 1.394 . S
C1991 C1997 1.465 . S
C1992 C1987 1.399 . S
C1992 C1991 1.394 . S
C1992 C1993 1.516 . S
C1993 C1992 1.516 . S
C1993 C1994 1.502 . S
C1993 C1995 1.561 . S
C1993 C1996 1.526 . S
C1994 H1978 0.959 . S
C1994 H1979 0.959 . S
C1994 H1980 0.961 . S
C1994 C1993 1.502 . S
C1995 H1981 0.960 . S
C1995 H1982 0.961 . S
C1995 H1983 0.959 . S
C1995 C1993 1.561 . S
C1996 C1993 1.526 . S
C1996 C1997 1.396 . S
C1996 C2001 1.390 . S
C1997 C1991 1.465 . S
C1997 C1996 1.396 . S
C1997 C1998 1.399 . S
C1998 H1984 0.929 . S
C1998 C1997 1.399 . S
C1998 C1999 1.385 . S
C1999 H1985 0.931 . S
C1999 C1998 1.385 . S
C1999 C2000 1.389 . S
C2000 C1999 1.389 . S
C2000 C2001 1.387 . S
C2001 H1986 0.930 . S
C2001 C1996 1.390 . S
C2001 C2000 1.387 . S
H2002 C2014 0.930 . S
H2003 C2016 0.930 . S
H2004 C2017 0.930 . S
H2005 C2021 0.959 . S
H2006 C2021 0.959 . S
H2007 C2021 0.961 . S
H2008 C2022 0.960 . S
H2009 C2022 0.961 . S
H2010 C2022 0.959 . S
H2011 C2025 0.929 . S
H2012 C2026 0.931 . S
H2013 C2028 0.930 . S
C2014 H2002 0.930 . S
C2014 C2015 1.399 . S
C2014 C2019 1.399 . S
C2015 C2014 1.399 . S
C2015 C2016 1.376 . S
C2016 H2003 0.930 . S
C2016 C2015 1.376 . S
C2016 C2017 1.388 . S
C2017 H2004 0.930 . S
C2017 C2016 1.388 . S
C2017 C2018 1.390 . S
C2018 C2017 1.390 . S
C2018 C2019 1.394 . S
C2018 C2024 1.465 . S
C2019 C2014 1.399 . S
C2019 C2018 1.394 . S
C2019 C2020 1.516 . S
C2020 C2019 1.516 . S
C2020 C2021 1.502 . S
C2020 C2022 1.561 . S
C2020 C2023 1.526 . S
C2021 H2005 0.959 . S
C2021 H2006 0.959 . S
C2021 H2007 0.961 . S
C2021 C2020 1.502 . S
C2022 H2008 0.960 . S
C2022 H2009 0.961 . S
C2022 H2010 0.959 . S
C2022 C2020 1.561 . S
C2023 C2020 1.526 . S
C2023 C2024 1.396 . S
C2023 C2028 1.390 . S
C2024 C2018 1.465 . S
C2024 C2023 1.396 . S
C2024 C2025 1.399 . S
C2025 H2011 0.929 . S
C2025 C2024 1.399 . S
C2025 C2026 1.385 . S
C2026 H2012 0.931 . S
C2026 C2025 1.385 . S
C2026 C2027 1.389 . S
C2027 C2026 1.389 . S
C2027 C2028 1.387 . S
C2028 H2013 0.930 . S
C2028 C2023 1.390 . S
C2028 C2027 1.387 . S
H2029 C2041 0.930 . S
H2030 C2043 0.930 . S
H2031 C2044 0.930 . S
H2032 C2048 0.959 . S
H2033 C2048 0.959 . S
H2034 C2048 0.961 . S
H2035 C2049 0.960 . S
H2036 C2049 0.961 . S
H2037 C2049 0.959 . S
H2038 C2052 0.929 . S
H2039 C2053 0.931 . S
H2040 C2055 0.930 . S
C2041 H2029 0.930 . S
C2041 C2042 1.399 . S
C2041 C2046 1.399 . S
C2042 C2041 1.399 . S
C2042 C2043 1.376 . S
C2043 H2030 0.930 . S
C2043 C2042 1.376 . S
C2043 C2044 1.388 . S
C2044 H2031 0.930 . S
C2044 C2043 1.388 . S
C2044 C2045 1.390 . S
C2045 C2044 1.390 . S
C2045 C2046 1.394 . S
C2045 C2051 1.465 . S
C2046 C2041 1.399 . S
C2046 C2045 1.394 . S
C2046 C2047 1.516 . S
C2047 C2046 1.516 . S
C2047 C2048 1.502 . S
C2047 C2049 1.561 . S
C2047 C2050 1.526 . S
C2048 H2032 0.959 . S
C2048 H2033 0.959 . S
C2048 H2034 0.961 . S
C2048 C2047 1.502 . S
C2049 H2035 0.960 . S
C2049 H2036 0.961 . S
C2049 H2037 0.959 . S
C2049 C2047 1.561 . S
C2050 C2047 1.526 . S
C2050 C2051 1.396 . S
C2050 C2055 1.390 . S
C2051 C2045 1.465 . S
C2051 C2050 1.396 . S
C2051 C2052 1.399 . S
C2052 H2038 0.929 . S
C2052 C2051 1.399 . S
C2052 C2053 1.385 . S
C2053 H2039 0.931 . S
C2053 C2052 1.385 . S
C2053 C2054 1.389 . S
C2054 C2053 1.389 . S
C2054 C2055 1.387 . S
C2055 H2040 0.930 . S
C2055 C2050 1.390 . S
C2055 C2054 1.387 . S
H2056 C2068 0.930 . S
H2057 C2070 0.930 . S
H2058 C2071 0.930 . S
H2059 C2075 0.959 . S
H2060 C2075 0.959 . S
H2061 C2075 0.961 1_554 S
H2062 C2076 0.960 . S
H2063 C2076 0.961 . S
H2064 C2076 0.959 . S
H2065 C2079 0.929 . S
H2066 C2080 0.931 . S
H2067 C2082 0.930 . S
C2068 H2056 0.930 . S
C2068 C2069 1.399 . S
C2068 C2073 1.399 . S
C2069 C2068 1.399 . S
C2069 C2070 1.376 . S
C2070 H2057 0.930 . S
C2070 C2069 1.376 . S
C2070 C2071 1.388 . S
C2071 H2058 0.930 . S
C2071 C2070 1.388 . S
C2071 C2072 1.390 . S
C2072 C2071 1.390 . S
C2072 C2073 1.394 . S
C2072 C2078 1.465 1_554 S
C2073 C2068 1.399 . S
C2073 C2072 1.394 . S
C2073 C2074 1.516 1_554 S
C2074 C2073 1.516 1_556 S
C2074 C2075 1.502 . S
C2074 C2076 1.561 . S
C2074 C2077 1.526 . S
C2075 H2059 0.959 . S
C2075 H2060 0.959 . S
C2075 H2061 0.961 1_556 S
C2075 C2074 1.502 . S
C2076 H2062 0.960 . S
C2076 H2063 0.961 . S
C2076 H2064 0.959 . S
C2076 C2074 1.561 . S
C2077 C2074 1.526 . S
C2077 C2078 1.396 . S
C2077 C2082 1.390 . S
C2078 C2072 1.465 1_556 S
C2078 C2077 1.396 . S
C2078 C2079 1.399 . S
C2079 H2065 0.929 . S
C2079 C2078 1.399 . S
C2079 C2080 1.385 . S
C2080 H2066 0.931 . S
C2080 C2079 1.385 . S
C2080 C2081 1.389 . S
C2081 C2080 1.389 . S
C2081 C2082 1.387 . S
C2082 H2067 0.930 . S
C2082 C2077 1.390 . S
C2082 C2081 1.387 . S
H2083 C2095 0.930 . S
H2084 C2097 0.930 . S
H2085 C2098 0.930 . S
H2086 C2102 0.959 . S
H2087 C2102 0.959 . S
H2088 C2102 0.961 . S
H2089 C2103 0.960 . S
H2090 C2103 0.961 . S
H2091 C2103 0.959 . S
H2092 C2106 0.929 . S
H2093 C2107 0.931 . S
H2094 C2109 0.930 . S
C2095 H2083 0.930 . S
C2095 C2096 1.399 . S
C2095 C2100 1.399 . S
C2096 C2095 1.399 . S
C2096 C2097 1.376 . S
C2097 H2084 0.930 . S
C2097 C2096 1.376 . S
C2097 C2098 1.388 . S
C2098 H2085 0.930 . S
C2098 C2097 1.388 . S
C2098 C2099 1.390 . S
C2099 C2098 1.390 . S
C2099 C2100 1.394 . S
C2099 C2105 1.465 . S
C2100 C2095 1.399 . S
C2100 C2099 1.394 . S
C2100 C2101 1.516 . S
C2101 C2100 1.516 . S
C2101 C2102 1.502 . S
C2101 C2103 1.561 . S
C2101 C2104 1.526 . S
C2102 H2086 0.959 . S
C2102 H2087 0.959 . S
C2102 H2088 0.961 . S
C2102 C2101 1.502 . S
C2103 H2089 0.960 . S
C2103 H2090 0.961 . S
C2103 H2091 0.959 . S
C2103 C2101 1.561 . S
C2104 C2101 1.526 . S
C2104 C2105 1.396 . S
C2104 C2109 1.390 . S
C2105 C2099 1.465 . S
C2105 C2104 1.396 . S
C2105 C2106 1.399 . S
C2106 H2092 0.929 . S
C2106 C2105 1.399 . S
C2106 C2107 1.385 . S
C2107 H2093 0.931 . S
C2107 C2106 1.385 . S
C2107 C2108 1.389 . S
C2108 C2107 1.389 . S
C2108 C2109 1.387 . S
C2109 H2094 0.930 . S
C2109 C2104 1.390 . S
C2109 C2108 1.387 . S
H2110 C2122 0.930 . S
H2111 C2124 0.930 . S
H2112 C2125 0.930 . S
H2113 C2129 0.959 . S
H2114 C2129 0.959 . S
H2115 C2129 0.973 . S
H2116 C2130 0.960 . S
H2117 C2130 0.961 . S
H2118 C2130 0.959 . S
H2119 C2133 0.929 . S
H2120 C2134 0.931 . S
H2121 C2136 0.930 . S
C2122 H2110 0.930 . S
C2122 C2123 1.399 . S
C2122 C2127 1.399 . S
C2123 C2122 1.399 . S
C2123 C2124 1.376 1_655 S
C2124 H2111 0.930 . S
C2124 C2123 1.376 1_455 S
C2124 C2125 1.388 . S
C2125 H2112 0.930 . S
C2125 C2124 1.388 . S
C2125 C2126 1.390 . S
C2126 C2125 1.390 . S
C2126 C2127 1.394 1_455 S
C2126 C2132 1.465 1_554 S
C2127 C2122 1.399 . S
C2127 C2126 1.394 1_655 S
C2127 C2128 1.516 1_554 S
C2128 C2127 1.516 1_556 S
C2128 C2129 1.502 . S
C2128 C2130 1.561 1_655 S
C2128 C2131 1.526 . S
C2129 H2113 0.959 . S
C2129 H2114 0.959 . S
C2129 H2115 0.973 . S
C2129 C2128 1.502 . S
C2130 H2116 0.960 . S
C2130 H2117 0.961 . S
C2130 H2118 0.959 . S
C2130 C2128 1.561 1_455 S
C2131 C2128 1.526 . S
C2131 C2132 1.396 1_655 S
C2131 C2136 1.390 . S
C2132 C2126 1.465 1_556 S
C2132 C2131 1.396 1_455 S
C2132 C2133 1.399 . S
C2133 H2119 0.929 . S
C2133 C2132 1.399 . S
C2133 C2134 1.385 . S
C2134 H2120 0.931 . S
C2134 C2133 1.385 . S
C2134 C2135 1.389 1_455 S
C2135 C2134 1.389 1_655 S
C2135 C2136 1.387 . S
C2136 H2121 0.930 . S
C2136 C2131 1.390 . S
C2136 C2135 1.387 . S
H2137 C2149 0.930 . S
H2138 C2151 0.930 . S
H2139 C2152 0.930 . S
H2140 C2156 0.959 . S
H2141 C2156 0.959 . S
H2142 C2156 0.961 . S
H2143 C2157 0.960 . S
H2144 C2157 0.961 . S
H2145 C2157 0.959 . S
H2146 C2160 0.929 . S
H2147 C2161 0.931 . S
H2148 C2163 0.930 . S
C2149 H2137 0.930 . S
C2149 C2150 1.399 . S
C2149 C2154 1.399 . S
C2150 C2149 1.399 . S
C2150 C2151 1.376 1_565 S
C2151 H2138 0.930 . S
C2151 C2150 1.376 1_545 S
C2151 C2152 1.388 . S
C2152 H2139 0.930 . S
C2152 C2151 1.388 . S
C2152 C2153 1.390 . S
C2153 C2152 1.390 . S
C2153 C2154 1.394 1_545 S
C2153 C2159 1.465 . S
C2154 C2149 1.399 . S
C2154 C2153 1.394 1_565 S
C2154 C2155 1.516 . S
C2155 C2154 1.516 . S
C2155 C2156 1.502 . S
C2155 C2157 1.561 . S
C2155 C2158 1.526 . S
C2156 H2140 0.959 . S
C2156 H2141 0.959 . S
C2156 H2142 0.961 . S
C2156 C2155 1.502 . S
C2157 H2143 0.960 . S
C2157 H2144 0.961 . S
C2157 H2145 0.959 . S
C2157 C2155 1.561 . S
C2158 C2155 1.526 . S
C2158 C2159 1.396 1_565 S
C2158 C2163 1.390 . S
C2159 C2153 1.465 . S
C2159 C2158 1.396 1_545 S
C2159 C2160 1.399 . S
C2160 H2146 0.929 . S
C2160 C2159 1.399 . S
C2160 C2161 1.385 . S
C2161 H2147 0.931 . S
C2161 C2160 1.385 . S
C2161 C2162 1.389 1_545 S
C2162 C2161 1.389 1_565 S
C2162 C2163 1.387 . S
C2163 H2148 0.930 . S
C2163 C2158 1.390 . S
C2163 C2162 1.387 . S
H2164 C2176 0.930 . S
H2165 C2178 0.930 . S
H2166 C2179 0.930 . S
H2167 C2183 0.959 . S
H2168 C2183 0.959 1_554 S
H2169 C2183 0.961 . S
H2170 C2184 0.960 . S
H2171 C2184 0.961 . S
H2172 C2184 0.959 . S
H2173 C2187 0.929 . S
H2174 C2188 0.931 . S
H2175 C2190 0.930 . S
C2176 H2164 0.930 . S
C2176 C2177 1.399 . S
C2176 C2181 1.399 . S
C2177 C2176 1.399 . S
C2177 C2178 1.376 . S
C2178 H2165 0.930 . S
C2178 C2177 1.376 . S
C2178 C2179 1.388 . S
C2179 H2166 0.930 . S
C2179 C2178 1.388 . S
C2179 C2180 1.390 . S
C2180 C2179 1.390 . S
C2180 C2181 1.394 . S
C2180 C2186 1.465 1_556 S
C2181 C2176 1.399 . S
C2181 C2180 1.394 . S
C2181 C2182 1.516 . S
C2182 C2181 1.516 . S
C2182 C2183 1.502 . S
C2182 C2184 1.561 . S
C2182 C2185 1.526 1_556 S
C2183 H2167 0.959 . S
C2183 H2168 0.959 1_556 S
C2183 H2169 0.961 . S
C2183 C2182 1.502 . S
C2184 H2170 0.960 . S
C2184 H2171 0.961 . S
C2184 H2172 0.959 . S
C2184 C2182 1.561 . S
C2185 C2182 1.526 1_554 S
C2185 C2186 1.396 . S
C2185 C2190 1.390 . S
C2186 C2180 1.465 1_554 S
C2186 C2185 1.396 . S
C2186 C2187 1.399 . S
C2187 H2173 0.929 . S
C2187 C2186 1.399 . S
C2187 C2188 1.385 . S
C2188 H2174 0.931 . S
C2188 C2187 1.385 . S
C2188 C2189 1.389 . S
C2189 C2188 1.389 . S
C2189 C2190 1.387 . S
C2190 H2175 0.930 . S
C2190 C2185 1.390 . S
C2190 C2189 1.387 . S
H2191 C2203 0.930 . S
H2192 C2205 0.930 . S
H2193 C2206 0.930 . S
H2194 C2210 0.959 . S
H2195 C2210 0.959 . S
H2196 C2210 0.961 . S
H2197 C2211 0.960 . S
H2198 C2211 0.961 . S
H2199 C2211 0.959 . S
H2200 C2214 0.929 . S
H2201 C2215 0.931 . S
H2202 C2217 0.930 . S
C2203 H2191 0.930 . S
C2203 C2204 1.399 . S
C2203 C2208 1.399 . S
C2204 C2203 1.399 . S
C2204 C2205 1.376 . S
C2205 H2192 0.930 . S
C2205 C2204 1.376 . S
C2205 C2206 1.388 . S
C2206 H2193 0.930 . S
C2206 C2205 1.388 . S
C2206 C2207 1.390 . S
C2207 C2206 1.390 . S
C2207 C2208 1.394 . S
C2207 C2213 1.465 . S
C2208 C2203 1.399 . S
C2208 C2207 1.394 . S
C2208 C2209 1.516 . S
C2209 C2208 1.516 . S
C2209 C2210 1.502 . S
C2209 C2211 1.561 . S
C2209 C2212 1.526 . S
C2210 H2194 0.959 . S
C2210 H2195 0.959 . S
C2210 H2196 0.961 . S
C2210 C2209 1.502 . S
C2211 H2197 0.960 . S
C2211 H2198 0.961 . S
C2211 H2199 0.959 . S
C2211 C2209 1.561 . S
C2212 C2209 1.526 . S
C2212 C2213 1.396 . S
C2212 C2217 1.390 . S
C2213 C2207 1.465 . S
C2213 C2212 1.396 . S
C2213 C2214 1.399 . S
C2214 H2200 0.929 . S
C2214 C2213 1.399 . S
C2214 C2215 1.385 . S
C2215 H2201 0.931 . S
C2215 C2214 1.385 . S
C2215 C2216 1.389 . S
C2216 C2215 1.389 . S
C2216 C2217 1.387 . S
C2217 H2202 0.930 . S
C2217 C2212 1.390 . S
C2217 C2216 1.387 . S
H2218 C2230 0.930 . S
H2219 C2232 0.930 . S
H2220 C2233 0.930 . S
H2221 C2237 0.959 . S
H2222 C2237 0.959 . S
H2223 C2237 0.961 1_554 S
H2224 C2238 0.960 . S
H2225 C2238 0.961 . S
H2226 C2238 0.959 1_455 S
H2227 C2241 0.929 . S
H2228 C2242 0.931 . S
H2229 C2244 0.930 . S
C2230 H2218 0.930 . S
C2230 C2231 1.399 1_655 S
C2230 C2235 1.399 . S
C2231 C2230 1.399 1_455 S
C2231 C2232 1.376 . S
C2232 H2219 0.930 . S
C2232 C2231 1.376 . S
C2232 C2233 1.388 . S
C2233 H2220 0.930 . S
C2233 C2232 1.388 . S
C2233 C2234 1.390 . S
C2234 C2233 1.390 . S
C2234 C2235 1.394 1_455 S
C2234 C2240 1.465 1_554 S
C2235 C2230 1.399 . S
C2235 C2234 1.394 1_655 S
C2235 C2236 1.516 1_554 S
C2236 C2235 1.516 1_556 S
C2236 C2237 1.502 . S
C2236 C2238 1.561 . S
C2236 C2239 1.526 . S
C2237 H2221 0.959 . S
C2237 H2222 0.959 . S
C2237 H2223 0.961 1_556 S
C2237 C2236 1.502 . S
C2238 H2224 0.960 . S
C2238 H2225 0.961 . S
C2238 H2226 0.959 1_655 S
C2238 C2236 1.561 . S
C2239 C2236 1.526 . S
C2239 C2240 1.396 1_655 S
C2239 C2244 1.390 . S
C2240 C2234 1.465 1_556 S
C2240 C2239 1.396 1_455 S
C2240 C2241 1.399 . S
C2241 H2227 0.929 . S
C2241 C2240 1.399 . S
C2241 C2242 1.385 . S
C2242 H2228 0.931 . S
C2242 C2241 1.385 . S
C2242 C2243 1.389 . S
C2243 C2242 1.389 . S
C2243 C2244 1.387 1_455 S
C2244 H2229 0.930 . S
C2244 C2239 1.390 . S
C2244 C2243 1.387 1_655 S
H2245 C2257 0.930 . S
H2246 C2259 0.930 . S
H2247 C2260 0.930 . S
H2248 C2264 0.959 . S
H2249 C2264 0.959 . S
H2250 C2264 0.961 . S
H2251 C2265 0.960 . S
H2252 C2265 0.961 . S
H2253 C2265 0.959 . S
H2254 C2268 0.929 . S
H2255 C2269 0.931 . S
H2256 C2271 0.930 . S
C2257 H2245 0.930 . S
C2257 C2258 1.418 . S
C2257 C2262 1.399 . S
C2258 C2257 1.418 . S
C2258 C2259 1.353 1_545 S
C2259 H2246 0.930 . S
C2259 C2258 1.353 1_565 S
C2259 C2260 1.388 . S
C2260 H2247 0.930 . S
C2260 C2259 1.388 . S
C2260 C2261 1.390 . S
C2261 C2260 1.390 . S
C2261 C2262 1.394 1_565 S
C2261 C2267 1.465 . S
C2262 C2257 1.399 . S
C2262 C2261 1.394 1_545 S
C2262 C2263 1.516 . S
C2263 C2262 1.516 . S
C2263 C2264 1.502 . S
C2263 C2265 1.561 . S
C2263 C2266 1.526 . S
C2264 H2248 0.959 . S
C2264 H2249 0.959 . S
C2264 H2250 0.961 . S
C2264 C2263 1.502 . S
C2265 H2251 0.960 . S
C2265 H2252 0.961 . S
C2265 H2253 0.959 . S
C2265 C2263 1.561 . S
C2266 C2263 1.526 . S
C2266 C2267 1.396 1_545 S
C2266 C2271 1.390 . S
C2267 C2261 1.465 . S
C2267 C2266 1.396 1_565 S
C2267 C2268 1.399 . S
C2268 H2254 0.929 . S
C2268 C2267 1.399 . S
C2268 C2269 1.385 . S
C2269 H2255 0.931 . S
C2269 C2268 1.385 . S
C2269 C2270 1.386 1_565 S
C2270 C2269 1.386 1_545 S
C2270 C2271 1.389 . S
C2271 H2256 0.930 . S
C2271 C2266 1.390 . S
C2271 C2270 1.389 . S
C1421 C57 1.013 . S
C1433 C665 1.028 . S
C1448 C117 1.011 . S
C1460 C372 1.026 . S
C1475 C205 1.006 . S
C1487 C469 1.023 . S
C1502 C293 1.031 . S
C1514 C577 1.039 . S
C1529 C733 0.972 . S
C1541 C1377 1.003 . S
C1556 C1105 0.974 . S
C1568 C812 1.011 . S
C1583 C909 0.972 . S
C1595 C1193 1.003 . S
C1610 C997 1.038 . S
C1622 C1289 0.997 . S
C1637 C29 1.328 . S
C1649 C849 1.400 . S
C1664 C145 1.302 . S
C1676 C929 1.414 . S
C1691 C1017 1.411 . S
C1703 C233 1.382 . S
C1718 C321 1.394 . S
C1730 C753 1.404 . S
C1745 C401 1.392 . S
C1757 C1340 1.405 . S
C1772 C1085 1.400 . S
C1784 C497 1.329 . S
C1799 C1173 1.398 . S
C1811 C548 1.334 . S
C1826 C1252 1.404 . S
C1838 C636 1.316 . S
C1853 C108 1.430 . S
C1865 C761 1.311 . S
C1880 C196 1.427 . S
C1892 C841 1.315 . S
C1907 C937 1.393 . S
C1919 C284 1.407 . S
C1934 C49 1.414 . S
C1946 C1025 1.377 . S
C1961 C1076 1.313 . S
C1973 C673 1.428 . S
C1988 C1164 1.373 . S
C2000 C381 1.406 . S
C2015 C460 1.423 . S
C2027 C1261 1.324 . S
C2042 C585 1.432 . S
C2054 C1349 1.309 . S
C2069 C20 1.582 . S
C2081 C409 1.593 . S
C2096 C489 1.593 . S
C2108 C137 1.583 . S
C2123 C225 1.578 . S
C2135 C557 1.592 . S
C2150 C645 1.593 . S
C2162 C313 1.583 . S
C2177 C724 1.584 . S
C2189 C1113 1.572 . S
C2204 C1201 1.575 . S
C2216 C821 1.562 . S
C2231 C1281 1.562 . S
C2243 C900 1.573 . S
C2258 C1369 1.575 . S
C2270 C988 1.584 . S
