# Generated by pormake.
# Topology wjd, (6)-cn, num edge types: 1
# Building blocks:
#     Node 0, Type 0, BuildingBlock: KUMJIN_clean_sbu_0, # of connection points: 6
#     Node 1, Type 0, BuildingBlock: KUMJIN_clean_sbu_0, # of connection points: 6
#     Node 2, Type 0, BuildingBlock: KUMJIN_clean_sbu_0, # of connection points: 6
#     Node 3, Type 0, BuildingBlock: KUMJIN_clean_sbu_0, # of connection points: 6
#     Node 4, Type 0, BuildingBlock: KUMJIN_clean_sbu_0, # of connection points: 6
#     Node 5, Type 0, BuildingBlock: KUMJIN_clean_sbu_0, # of connection points: 6
#     Node 6, Type 0, BuildingBlock: KUMJIN_clean_sbu_0, # of connection points: 6
#     Node 7, Type 0, BuildingBlock: KUMJIN_clean_sbu_0, # of connection points: 6
#     Node 8, Type 0, BuildingBlock: KUMJIN_clean_sbu_0, # of connection points: 6
#     Node 9, Type 0, BuildingBlock: KUMJIN_clean_sbu_0, # of connection points: 6
#     Node 10, Type 0, BuildingBlock: KUMJIN_clean_sbu_0, # of connection points: 6
#     Node 11, Type 0, BuildingBlock: KUMJIN_clean_sbu_0, # of connection points: 6
#     Edge 12, Type (0, 0), BuildingBlock: KIFKEQ_clean_linker_1, # of connection points: 2
#     Edge 13, Type (0, 0), BuildingBlock: KIFKEQ_clean_linker_1, # of connection points: 2
#     Edge 14, Type (0, 0), BuildingBlock: KIFKEQ_clean_linker_1, # of connection points: 2
#     Edge 15, Type (0, 0), BuildingBlock: KIFKEQ_clean_linker_1, # of connection points: 2
#     Edge 16, Type (0, 0), BuildingBlock: KIFKEQ_clean_linker_1, # of connection points: 2
#     Edge 17, Type (0, 0), BuildingBlock: KIFKEQ_clean_linker_1, # of connection points: 2
#     Edge 18, Type (0, 0), BuildingBlock: KIFKEQ_clean_linker_1, # of connection points: 2
#     Edge 19, Type (0, 0), BuildingBlock: KIFKEQ_clean_linker_1, # of connection points: 2
#     Edge 20, Type (0, 0), BuildingBlock: KIFKEQ_clean_linker_1, # of connection points: 2
#     Edge 21, Type (0, 0), BuildingBlock: KIFKEQ_clean_linker_1, # of connection points: 2
#     Edge 22, Type (0, 0), BuildingBlock: KIFKEQ_clean_linker_1, # of connection points: 2
#     Edge 23, Type (0, 0), BuildingBlock: KIFKEQ_clean_linker_1, # of connection points: 2
#     Edge 24, Type (0, 0), BuildingBlock: KIFKEQ_clean_linker_1, # of connection points: 2
#     Edge 25, Type (0, 0), BuildingBlock: KIFKEQ_clean_linker_1, # of connection points: 2
#     Edge 26, Type (0, 0), BuildingBlock: KIFKEQ_clean_linker_1, # of connection points: 2
#     Edge 27, Type (0, 0), BuildingBlock: KIFKEQ_clean_linker_1, # of connection points: 2
#     Edge 28, Type (0, 0), BuildingBlock: KIFKEQ_clean_linker_1, # of connection points: 2
#     Edge 29, Type (0, 0), BuildingBlock: KIFKEQ_clean_linker_1, # of connection points: 2
#     Edge 30, Type (0, 0), BuildingBlock: KIFKEQ_clean_linker_1, # of connection points: 2
#     Edge 31, Type (0, 0), BuildingBlock: KIFKEQ_clean_linker_1, # of connection points: 2
#     Edge 32, Type (0, 0), BuildingBlock: KIFKEQ_clean_linker_1, # of connection points: 2
#     Edge 33, Type (0, 0), BuildingBlock: KIFKEQ_clean_linker_1, # of connection points: 2
#     Edge 34, Type (0, 0), BuildingBlock: KIFKEQ_clean_linker_1, # of connection points: 2
#     Edge 35, Type (0, 0), BuildingBlock: KIFKEQ_clean_linker_1, # of connection points: 2
#     Edge 36, Type (0, 0), BuildingBlock: KIFKEQ_clean_linker_1, # of connection points: 2
#     Edge 37, Type (0, 0), BuildingBlock: KIFKEQ_clean_linker_1, # of connection points: 2
#     Edge 38, Type (0, 0), BuildingBlock: KIFKEQ_clean_linker_1, # of connection points: 2
#     Edge 39, Type (0, 0), BuildingBlock: KIFKEQ_clean_linker_1, # of connection points: 2
#     Edge 40, Type (0, 0), BuildingBlock: KIFKEQ_clean_linker_1, # of connection points: 2
#     Edge 41, Type (0, 0), BuildingBlock: KIFKEQ_clean_linker_1, # of connection points: 2
#     Edge 42, Type (0, 0), BuildingBlock: KIFKEQ_clean_linker_1, # of connection points: 2
#     Edge 43, Type (0, 0), BuildingBlock: KIFKEQ_clean_linker_1, # of connection points: 2
#     Edge 44, Type (0, 0), BuildingBlock: KIFKEQ_clean_linker_1, # of connection points: 2
#     Edge 45, Type (0, 0), BuildingBlock: KIFKEQ_clean_linker_1, # of connection points: 2
#     Edge 46, Type (0, 0), BuildingBlock: KIFKEQ_clean_linker_1, # of connection points: 2
#     Edge 47, Type (0, 0), BuildingBlock: KIFKEQ_clean_linker_1, # of connection points: 2
# Relax obj value: 0.097
# Max RMSD: 0.214
# Mean RMSD: 0.214
data_MOF--net-wjd--node1-KUMJIN_clean_sbu_0--edge1-KIFKEQ_clean_linker_1
_symmetry_space_group_name_H-M    P1
_symmetry_Int_Tables_number       1
_symmetry_cell_setting            triclinic
loop_
_symmetry_equiv_pos_as_xyz
'x, y, z'
_cell_length_a     39.111357
_cell_length_b     39.144372
_cell_length_c     56.292224
_cell_angle_alpha  89.930571
_cell_angle_beta   89.993165
_cell_angle_gamma 120.06155
loop_
_atom_site_label
_atom_site_type_symbol
_atom_site_fract_x
_atom_site_fract_y
_atom_site_fract_z
_atom_type_partial_charge
Eu0 Eu 0.36999 0.18798 0.10498 0.0
C1 C 0.34951 0.04643 0.17078 0.0
C2 C 0.39087 0.02354 0.1532 0.0
C3 C 0.37686 1.01491 0.19551 0.0
C4 C 0.3679 0.042 0.1511 0.0
C5 C 0.35329 0.03244 0.19318 0.0
C6 C 0.3957 1.01054 0.17556 0.0
C7 C 0.30907 0.05281 0.20922 0.0
N8 N 0.32703 0.06354 0.16793 0.0
C9 C 0.30626 0.06624 0.18668 0.0
C10 C 0.33278 0.03592 0.21251 0.0
Eu11 Eu 0.32399 0.08642 0.1293 0.0
N12 N 0.3623 0.05456 0.12975 0.0
C13 C 0.37727 0.04755 0.10959 0.0
C14 C 0.40771 0.018 0.13272 0.0
C15 C 0.40054 0.02974 0.11078 0.0
H16 H 0.28788 0.07929 0.18448 0.0
H17 H 0.413 0.02517 0.09475 0.0
H18 H 0.41339 0.9965 0.17752 0.0
H19 H 0.29291 0.05545 0.22404 0.0
H20 H 0.37243 0.05648 0.09247 0.0
H21 H 0.30495 0.26646 0.14871 0.0
H22 H 0.42568 1.00412 0.13359 0.0
H23 H 0.39341 0.19269 0.04731 0.0
H24 H 0.34205 0.23113 0.14614 0.0
H25 H 0.37456 0.20892 0.00876 0.0
H26 H 0.38031 1.00421 0.2126 0.0
H27 H 0.27553 0.27708 0.11256 0.0
H28 H 0.26696 0.27103 0.0683 0.0
H29 H 0.33456 0.02508 0.2299 0.0
H30 H 0.28568 0.25489 0.02998 0.0
N31 N 0.33258 0.22017 0.10902 0.0
C32 C 0.32915 0.23513 0.13023 0.0
C33 C 0.2916 0.26126 0.11134 0.0
C34 C 0.29731 0.24806 0.08943 0.0
C35 C 0.30827 0.25544 0.13176 0.0
C36 C 0.31878 0.22791 0.08879 0.0
H37 H 0.32657 0.23255 0.00758 0.0
N38 N 0.35482 0.20494 0.06747 0.0
C39 C 0.3616 0.21185 0.02507 0.0
C40 C 0.33 0.21966 0.06729 0.0
C41 C 0.37228 0.20281 0.04688 0.0
C42 C 0.33436 0.22499 0.02447 0.0
C43 C 0.31902 0.23009 0.04578 0.0
O44 O 0.42664 0.23539 0.09096 0.0
O45 O 0.38129 0.14031 0.11804 0.0
O46 O 0.36444 0.12685 0.15744 0.0
O47 O 0.36738 0.18589 0.14659 0.0
O48 O 0.41204 0.17129 0.08821 0.0
O49 O 0.4097 0.23942 0.12662 0.0
O50 O 0.26114 0.04598 0.13675 0.0
O51 O 0.31405 0.13544 0.11663 0.0
O52 O 0.33213 0.14182 0.07587 0.0
O53 O 0.33352 0.08669 0.08978 0.0
O54 O 0.28357 0.10546 0.14664 0.0
O55 O 0.28907 0.03423 0.10729 0.0
C56 C 0.40749 0.14433 0.10312 0.0
C57 C 0.44859 0.30008 0.10617 0.0
C58 C 0.49787 0.3711 0.10939 0.0
C59 C 0.48745 0.33082 0.11177 0.0
C60 C 0.4691 0.37976 0.10121 0.0
C61 C 0.42129 0.31029 0.09754 0.0
C62 C 0.43135 0.34966 0.09521 0.0
C63 C 0.37083 0.16249 0.16263 0.0
C64 C 0.43562 0.2575 0.10985 0.0
C65 C 0.29479 0.24708 0.04631 0.0
C66 C 0.2841 0.25623 0.06813 0.0
C67 C 0.28915 0.13287 0.13193 0.0
C68 C 0.23178 0.9793 0.12397 0.0
C69 C 0.19012 0.96087 0.12269 0.0
C70 C 0.16626 0.91953 0.12526 0.0
C71 C 0.18467 0.89713 0.12947 0.0
C72 C 0.24927 0.95625 0.12858 0.0
C73 C 0.22577 0.91543 0.13132 0.0
C74 C 0.32738 0.10589 0.07263 0.0
C75 C 0.2565 0.02215 0.11938 0.0
H76 H 0.50912 0.32351 0.1182 0.0
H77 H 0.47612 0.41009 0.09894 0.0
H78 H 0.392 0.2878 0.0926 0.0
H79 H 0.40974 0.35689 0.08862 0.0
H80 H 0.17639 0.97849 0.11913 0.0
H81 H 0.16714 0.86541 0.13163 0.0
H82 H 0.2811 0.96977 0.12981 0.0
H83 H 0.23949 0.89781 0.13476 0.0
Eu84 Eu 0.80023 0.71197 0.36949 0.0
C85 C 0.9079 0.69636 0.44485 0.0
C86 C 0.97415 0.73032 0.42868 0.0
C87 C 0.96446 0.72747 0.47142 0.0
C88 C 0.93281 0.70939 0.42545 0.0
C89 C 0.92348 0.70402 0.46809 0.0
C90 C 0.98979 0.74059 0.45172 0.0
C91 C 0.85774 0.65967 0.4828 0.0
N92 N 0.86867 0.67265 0.44096 0.0
C93 C 0.84378 0.65276 0.45942 0.0
C94 C 0.89764 0.68607 0.4872 0.0
Eu95 Eu 0.84682 0.66228 0.4009 0.0
N96 N 0.91672 0.6982 0.40351 0.0
C97 C 0.94026 0.70344 0.38433 0.0
C98 C 0.99849 0.73834 0.40879 0.0
C99 C 0.98142 0.72403 0.38659 0.0
H100 H 0.81287 0.63237 0.45611 0.0
H101 H 0.99991 0.72903 0.37118 0.0
H102 H 1.02144 0.75715 0.45453 0.0
H103 H 0.8377 0.64468 0.4974 0.0
H104 H 0.92739 0.69263 0.36705 0.0
H105 H 0.64762 0.6419 0.40212 0.0
H106 H 0.03037 0.75427 0.4105 0.0
H107 H 0.83248 0.73478 0.31321 0.0
H108 H 0.7196 0.6813 0.40522 0.0
H109 H 0.80619 0.71545 0.27256 0.0
H110 H 0.97697 0.73412 0.48913 0.0
H111 H 0.61605 0.61605 0.36318 0.0
H112 H 0.62337 0.61234 0.31909 0.0
H113 H 0.90844 0.69114 0.50531 0.0
H114 H 0.66647 0.63231 0.28385 0.0
N115 N 0.72994 0.67788 0.36829 0.0
C116 C 0.70683 0.67062 0.38799 0.0
C117 C 0.64794 0.63359 0.36436 0.0
C118 C 0.67156 0.64271 0.34407 0.0
C119 C 0.66566 0.64818 0.38635 0.0
C120 C 0.71295 0.66564 0.34661 0.0
H121 H 0.73473 0.67004 0.26644 0.0
N122 N 0.77642 0.70076 0.32988 0.0
C123 C 0.78637 0.70469 0.28765 0.0
C124 C 0.73697 0.6774 0.32678 0.0
C125 C 0.80111 0.71574 0.31071 0.0
C126 C 0.74601 0.67912 0.28425 0.0
C127 C 0.72062 0.66584 0.30387 0.0
O128 O 0.81906 0.77074 0.35436 0.0
O129 O 0.85628 0.71944 0.38579 0.0
O130 O 0.83684 0.7013 0.42816 0.0
O131 O 0.78779 0.70826 0.40902 0.0
O132 O 0.86175 0.74751 0.35372 0.0
O133 O 0.79299 0.75583 0.38925 0.0
O134 O 0.82571 0.60096 0.41178 0.0
O135 O 0.79171 0.65475 0.38397 0.0
O136 O 0.79927 0.6653 0.3457 0.0
O137 O 0.85451 0.664 0.35968 0.0
O138 O 0.78423 0.62234 0.41425 0.0
O139 O 0.8688 0.62619 0.38402 0.0
C140 C 0.88096 0.7422 0.37044 0.0
C141 C 0.78935 0.80713 0.36904 0.0
C142 C 0.79287 0.8717 0.36978 0.0
C143 C 0.81159 0.84879 0.37111 0.0
C144 C 0.75186 0.85228 0.36593 0.0
C145 C 0.74859 0.78874 0.36493 0.0
C146 C 0.73006 0.81126 0.36333 0.0
C147 C 0.8089 0.71151 0.42812 0.0
C148 C 0.80837 0.78303 0.37291 0.0
C149 C 0.67958 0.6417 0.30129 0.0
C150 C 0.65507 0.63029 0.32135 0.0
C151 C 0.76575 0.62976 0.39795 0.0
C152 C 0.87243 0.57894 0.40897 0.0
C153 C 0.87491 0.54696 0.39871 0.0
C154 C 0.89758 0.53208 0.40983 0.0
C155 C 0.91657 0.54934 0.43144 0.0
C156 C 0.8924 0.59526 0.43032 0.0
C157 C 0.91409 0.58053 0.44144 0.0
C158 C 0.8289 0.65879 0.34247 0.0
C159 C 0.8494 0.59578 0.39786 0.0
H160 H 0.84309 0.86319 0.37443 0.0
H161 H 0.73666 0.86897 0.36467 0.0
H162 H 0.73104 0.75692 0.36332 0.0
H163 H 0.69853 0.79681 0.36028 0.0
H164 H 0.8598 0.53419 0.38215 0.0
H165 H 0.93316 0.53834 0.44096 0.0
H166 H 0.89101 0.61932 0.43862 0.0
H167 H 0.92898 0.59331 0.45804 0.0
Eu168 Eu 0.84393 0.18901 0.10167 0.0
C169 C 0.96922 0.30176 0.17511 0.0
C170 C 0.9937 0.36748 0.15912 0.0
C171 C 0.98921 0.35733 0.20187 0.0
C172 C 0.97808 0.3266 0.15574 0.0
C173 C 0.97487 0.31687 0.1984 0.0
C174 C 0.99876 0.38261 0.18227 0.0
C175 C 0.95368 0.25127 0.21317 0.0
N176 N 0.95521 0.26275 0.17118 0.0
C177 C 0.94903 0.23773 0.18977 0.0
C178 C 0.96604 0.29087 0.2175 0.0
Eu179 Eu 0.94209 0.24145 0.13103 0.0
N180 N 0.97228 0.31099 0.13359 0.0
C181 C 0.98403 0.33496 0.11406 0.0
C182 C 1.00418 0.39197 0.13912 0.0
C183 C 0.99978 0.37569 0.11651 0.0
H184 H 0.93901 0.20696 0.18675 0.0
H185 H 1.00823 0.39443 0.10094 0.0
H186 H 1.01039 0.41387 0.18521 0.0
H187 H 0.94734 0.23107 0.22785 0.0
H188 H 0.9805 0.32281 0.09646 0.0
H189 H 0.75945 0.04217 0.14129 0.0
H190 H 1.01618 0.4235 0.14096 0.0
H191 H 0.84374 0.2119 0.04447 0.0
H192 H 0.79542 0.11467 0.14061 0.0
H193 H 0.82999 0.17974 0.00507 0.0
H194 H 0.99355 0.36944 0.21964 0.0
H195 H 0.75226 1.00478 0.10445 0.0
H196 H 0.76251 1.00554 0.06041 0.0
H197 H 0.96896 0.30111 0.23561 0.0
H198 H 0.78212 0.04329 0.02303 0.0
N199 N 0.81049 0.11899 0.10393 0.0
C200 C 0.79308 0.09903 0.12441 0.0
C201 C 0.7685 0.03675 0.10408 0.0
C202 C 0.784 0.05727 0.08282 0.0
C203 C 0.77236 0.05775 0.12487 0.0
C204 C 0.80455 0.09892 0.08327 0.0
H205 H 0.80628 0.10823 1.00217 0.0
N206 N 0.82974 0.15951 0.06346 0.0
C207 C 0.82583 0.16259 0.02101 0.0
C208 C 0.81483 0.11999 0.06231 0.0
C209 C 0.83349 0.18067 0.04331 0.0
C210 C 0.81267 0.12228 0.01944 0.0
C211 C 0.80596 0.10023 0.04027 0.0
O212 O 0.7979 0.19935 0.08658 0.0
O213 O 0.89105 0.24666 0.11642 0.0
O214 O 0.89762 0.24016 0.15669 0.0
O215 O 0.84073 0.18435 0.1431 0.0
O216 O 0.86385 0.24925 0.08573 0.0
O217 O 0.79167 0.17806 0.12229 0.0
O218 O 0.97707 0.21221 0.13521 0.0
O219 O 0.89461 0.18395 0.11561 0.0
O220 O 0.89293 0.1993 0.07417 0.0
O221 O 0.94842 0.25201 0.09142 0.0
O222 O 0.91969 0.18093 0.14743 0.0
O223 O 1.00421 0.26998 0.11959 0.0
C224 C 0.88957 0.27036 0.10158 0.0
C225 C 0.73223 0.15684 0.10069 0.0
C226 C 0.66093 0.13413 0.10404 0.0
C227 C 0.70114 0.164 0.10709 0.0
C228 C 0.65272 0.09767 0.09444 0.0
C229 C 0.72245 0.12033 0.09063 0.0
C230 C 0.68317 0.09102 0.08767 0.0
C231 C 0.86152 0.21047 0.16004 0.0
C232 C 0.77472 0.18626 0.10506 0.0
C233 C 0.78871 0.05897 0.03978 0.0
C234 C 0.77759 0.03748 0.06105 0.0
C235 C 0.89452 0.16047 0.13119 0.0
C236 C 0.04595 0.25131 0.14001 0.0
C237 C 0.07075 0.2362 0.13313 0.0
C238 C 0.10433 0.24392 0.1469 0.0
C239 C 0.11172 0.26655 0.16776 0.0
C240 C 0.0549 0.27424 0.1606 0.0
C241 C 0.08751 0.2817 0.17436 0.0
C242 C 0.93072 0.22817 0.07334 0.0
C243 C 1.00947 0.24115 0.1266 0.0
H244 H 0.70811 0.19221 0.11463 0.0
H245 H 0.62248 0.0744 0.09164 0.0
H246 H 0.74524 0.11435 0.08505 0.0
H247 H 0.67626 0.06293 0.07999 0.0
H248 H 0.06385 0.21865 0.11712 0.0
H249 H 0.13596 0.27214 0.17944 0.0
H250 H 0.0363 0.2859 0.16625 0.0
H251 H 0.09383 0.29897 0.19044 0.0
Eu252 Eu 0.33375 0.09424 0.36972 0.0
C253 C 0.3433 0.22241 0.43999 0.0
C254 C 0.31225 0.25542 0.42095 0.0
C255 C 0.31211 0.25088 0.46399 0.0
C256 C 0.33233 0.23395 0.41952 0.0
C257 C 0.33425 0.2317 0.46248 0.0
C258 C 0.30122 0.26284 0.44325 0.0
C259 C 0.37434 0.20752 0.48022 0.0
N260 N 0.3659 0.20529 0.43789 0.0
C261 C 0.38305 0.19953 0.45752 0.0
C262 C 0.34932 0.22312 0.48275 0.0
Eu263 Eu 0.3795 0.19246 0.39888 0.0
N264 N 0.34363 0.22652 0.39826 0.0
C265 C 0.33802 0.24203 0.37785 0.0
C266 C 0.30512 0.27005 0.39998 0.0
C267 C 0.31834 0.26357 0.37836 0.0
H268 H 0.40256 0.18761 0.45564 0.0
H269 H 0.31345 0.27521 0.36207 0.0
H270 H 0.28531 0.27881 0.44466 0.0
H271 H 0.38706 0.20181 0.49574 0.0
H272 H 0.34827 0.23753 0.361 0.0
H273 H 0.41995 0.02782 0.40042 0.0
H274 H 0.29028 0.28713 0.40034 0.0
H275 H 0.30213 0.09645 0.31424 0.0
H276 H 0.37689 0.05649 0.40461 0.0
H277 H 0.31593 0.08544 0.27312 0.0
H278 H 0.30453 0.25791 0.48111 0.0
H279 H 0.43979 0.01778 0.36048 0.0
H280 H 0.43478 0.02163 0.31617 0.0
H281 H 0.34299 0.22973 0.50034 0.0
H282 H 0.4066 0.03737 0.2816 0.0
N283 N 0.37255 0.06337 0.36739 0.0
C284 C 0.38497 0.05214 0.38704 0.0
C285 C 0.42068 0.03029 0.3622 0.0
C286 C 0.40643 0.04022 0.3421 0.0
C287 C 0.4095 0.03585 0.38476 0.0
C288 C 0.38177 0.05656 0.34532 0.0
H289 H 0.36279 0.06171 0.26542 0.0
N290 N 0.34118 0.07961 0.32977 0.0
C291 C 0.33005 0.07949 0.28781 0.0
C292 C 0.36563 0.06497 0.32591 0.0
C293 C 0.32222 0.08559 0.31119 0.0
C294 C 0.35647 0.06606 0.28353 0.0
C295 C 0.37409 0.05792 0.30268 0.0
O296 O 0.27029 0.05721 0.36297 0.0
O297 O 0.32398 0.14162 0.3851 0.0
O298 O 0.33839 0.14363 0.42583 0.0
O299 O 0.33972 0.08992 0.40942 0.0
O300 O 0.29419 0.1156 0.35401 0.0
O301 O 0.29934 0.03508 0.38543 0.0
O302 O 0.43984 0.23392 0.41091 0.0
O303 O 0.39034 0.14602 0.38333 0.0
O304 O 0.37621 0.13866 0.34367 0.0
O305 O 0.37713 0.19533 0.35745 0.0
O306 O 0.41992 0.17247 0.41432 0.0
O307 O 0.41643 0.24981 0.38119 0.0
C308 C 0.29959 0.14111 0.37013 0.0
C309 C 0.24127 0.98792 0.36497 0.0
C310 C 0.17699 0.92644 0.36099 0.0
C311 C 0.20123 0.96368 0.37188 0.0
C312 C 0.19393 0.91466 0.34293 0.0
C313 C 0.25697 0.97486 0.34716 0.0
C314 C 0.2334 0.9385 0.33625 0.0
C315 C 0.33134 0.10651 0.42716 0.0
C316 C 0.26605 0.02748 0.37558 0.0
C317 C 0.39958 0.04279 0.29932 0.0
C318 C 0.41564 0.03386 0.319 0.0
C319 C 0.41555 0.14737 0.39811 0.0
C320 C 0.46185 0.30241 0.40608 0.0
C321 C 0.49511 0.33648 0.39621 0.0
C322 C 0.50909 0.37452 0.4065 0.0
C323 C 0.48959 0.37713 0.42688 0.0
C324 C 0.44353 0.30699 0.42624 0.0
C325 C 0.45726 0.34386 0.43651 0.0
C326 C 0.38191 0.17449 0.34031 0.0
C327 C 0.44589 0.26191 0.39595 0.0
H328 H 0.18921 0.9738 0.38573 0.0
H329 H 0.1765 0.88719 0.33348 0.0
H330 H 0.28739 0.99303 0.34152 0.0
H331 H 0.24569 0.92884 0.32231 0.0
H332 H 0.50959 0.33344 0.38061 0.0
H333 H 0.49972 0.4051 0.43577 0.0
H334 H 0.41871 0.28186 0.43433 0.0
H335 H 0.44285 0.34666 0.45221 0.0
Eu336 Eu 0.84259 0.66125 0.10682 0.0
C337 C 0.72415 0.67932 0.17432 0.0
C338 C 0.65966 0.63641 0.15721 0.0
C339 C 0.66578 0.65006 0.19957 0.0
C340 C 0.70097 0.66049 0.15473 0.0
C341 C 0.70668 0.67508 0.19685 0.0
C342 C 0.64233 0.63062 0.1798 0.0
C343 C 0.77092 0.72262 0.21214 0.0
N344 N 0.76361 0.70338 0.17115 0.0
C345 C 0.78694 0.72582 0.18949 0.0
C346 C 0.73065 0.69701 0.21586 0.0
Eu347 Eu 0.7882 0.70763 0.13213 0.0
N348 N 0.71847 0.66732 0.13307 0.0
C349 C 0.69604 0.65316 0.11301 0.0
C350 C 0.63683 0.61981 0.13683 0.0
C351 C 0.65507 0.62867 0.1146 0.0
H352 H 0.81804 0.74593 0.1868 0.0
H353 H 0.6376 0.61667 0.09867 0.0
H354 H 0.6107 0.61202 0.18207 0.0
H355 H 0.78959 0.74008 0.22668 0.0
H356 H 0.70956 0.65978 0.09567 0.0
H357 H 0.98583 0.72925 0.15163 0.0
H358 H 0.60505 0.601 0.138 0.0
H359 H 0.82396 0.63789 0.04938 0.0
H360 H 0.91356 0.69283 0.1488 0.0
H361 H 0.85956 0.65432 0.011 0.0
H362 H 0.65189 0.64616 0.21679 0.0
H363 H 0.02649 0.75433 0.11533 0.0
H364 H 0.0297 0.75918 0.07082 0.0
H365 H 0.71812 0.69513 0.23328 0.0
H366 H 0.99521 0.73952 0.03243 0.0
N367 N 0.91238 0.6987 0.11122 0.0
C368 C 0.93053 0.70398 0.13275 0.0
C369 C 0.99458 0.73876 0.11394 0.0
C370 C 0.97597 0.73152 0.09181 0.0
C371 C 0.97173 0.72453 0.13446 0.0
C372 C 0.93428 0.7108 0.091 0.0
H373 H 0.93183 0.69986 0.00995 0.0
N374 N 0.87521 0.67546 0.06955 0.0
C375 C 0.87552 0.66731 0.02729 0.0
C376 C 0.91499 0.69907 0.06946 0.0
C377 C 0.85549 0.65807 0.04901 0.0
C378 C 0.91626 0.69316 0.02676 0.0
C379 C 0.93668 0.70861 0.04805 0.0
O380 O 0.83284 0.60451 0.0927 0.0
O381 O 0.78386 0.65029 0.1202 0.0
O382 O 0.78988 0.66899 0.16084 0.0
O383 O 0.84383 0.66325 0.14847 0.0
O384 O 0.78365 0.62071 0.08979 0.0
O385 O 0.85345 0.62086 0.12842 0.0
O386 O 0.81624 0.772 0.13501 0.0
O387 O 0.8463 0.7174 0.11816 0.0
O388 O 0.8348 0.6996 0.07772 0.0
O389 O 0.77996 0.70101 0.09241 0.0
O390 O 0.84845 0.74759 0.14874 0.0
O391 O 0.76 0.73956 0.11765 0.0
C392 C 0.76143 0.62487 0.10503 0.0
C393 C 0.87501 0.58175 0.10806 0.0
C394 C 0.8959 0.53172 0.1105 0.0
C395 C 0.86606 0.54229 0.11262 0.0
C396 C 0.93405 0.56087 0.10358 0.0
C397 C 0.91334 0.60941 0.10074 0.0
C398 C 0.94253 0.59918 0.0986 0.0
C399 C 0.81844 0.66119 0.16515 0.0
C400 C 0.84556 0.59508 0.11161 0.0
C401 C 0.97806 0.73163 0.04869 0.0
C402 C 0.99769 0.74286 0.07055 0.0
C403 C 0.86948 0.74212 0.13323 0.0
C404 C 0.77497 0.79969 0.13692 0.0
C405 C 0.79126 0.83983 0.13032 0.0
C406 C 0.78081 0.86485 0.1427 0.0
C407 C 0.75429 0.84865 0.16196 0.0
C408 C 0.74803 0.78461 0.15577 0.0
C409 C 0.73793 0.809 0.16822 0.0
C410 C 0.80569 0.70792 0.07534 0.0
C411 C 0.78754 0.77416 0.12491 0.0
H412 H 0.83653 0.52031 0.1181 0.0
H413 H 0.95734 0.55376 0.10157 0.0
H414 H 0.92092 0.63918 0.09674 0.0
H415 H 0.97199 0.62114 0.09302 0.0
H416 H 0.81178 0.85129 0.11557 0.0
H417 H 0.74644 0.86671 0.17259 0.0
H418 H 0.73508 0.75406 0.16106 0.0
H419 H 0.71754 0.79718 0.18301 0.0
Eu420 Eu 0.95355 0.24925 0.36834 0.0
C421 C 0.82115 0.12544 0.43319 0.0
C422 C 0.79262 0.0642 0.4112 0.0
C423 C 0.79265 0.06282 0.45433 0.0
C424 C 0.81301 0.10586 0.41176 0.0
C425 C 0.81003 0.10409 0.45474 0.0
C426 C 0.78381 0.04287 0.43257 0.0
C427 C 0.8282 0.16507 0.47516 0.0
N428 N 0.83633 0.16505 0.43287 0.0
C429 C 0.83808 0.18474 0.45331 0.0
C430 C 0.81475 0.12464 0.47594 0.0
Eu431 Eu 0.8538 0.19721 0.39535 0.0
N432 N 0.82134 0.12738 0.39147 0.0
C433 C 0.80698 0.10884 0.3702 0.0
C434 C 0.78005 0.0452 0.38927 0.0
C435 C 0.78677 0.06764 0.36873 0.0
H436 H 0.84843 0.21605 0.45275 0.0
H437 H 0.77631 0.05324 0.35173 0.0
H438 H 0.7688 1.01091 0.43247 0.0
H439 H 0.83082 0.18106 0.49136 0.0
H440 H 0.81139 0.12551 0.35416 0.0
H441 H 0.02461 0.39881 0.40597 0.0
H442 H 0.76406 1.01329 0.38808 0.0
H443 H 0.95556 0.22218 0.31225 0.0
H444 H 0.99079 0.32698 0.40716 0.0
H445 H 0.97829 0.25267 0.27276 0.0
H446 H 0.78433 0.04595 0.4707 0.0
H447 H 0.04318 0.43401 0.36753 0.0
H448 H 0.04683 0.43095 0.32324 0.0
H449 H 0.80661 0.10934 0.49285 0.0
H450 H 0.03504 0.39135 0.28709 0.0
N451 N 0.98812 0.31971 0.36943 0.0
C452 C 0.9982 0.34106 0.39005 0.0
C453 C 0.02796 0.40205 0.36784 0.0
C454 C 1.01958 0.38035 0.34683 0.0
C455 C 1.01763 0.38229 0.38955 0.0
C456 C 0.9995 0.33871 0.34821 0.0
H457 H 1.01106 0.32528 0.26836 0.0
N458 N 0.9744 0.27677 0.32993 0.0
C459 C 0.98242 0.27098 0.2881 0.0
C460 C 0.99271 0.31657 0.32787 0.0
C461 C 0.96968 0.25384 0.31053 0.0
C462 C 1.00059 0.31188 0.28563 0.0
C463 C 1.00597 0.33523 0.30561 0.0
O464 O 0.99439 0.22956 0.35609 0.0
O465 O 0.90484 0.19128 0.38282 0.0
O466 O 0.90058 0.2084 0.42484 0.0
O467 O 0.95788 0.25898 0.40784 0.0
O468 O 0.9304 0.18912 0.35118 0.0
O469 O 1.00398 0.25903 0.38975 0.0
O470 O 0.807 0.2069 0.40986 0.0
O471 O 0.90184 0.25474 0.38107 0.0
O472 O 0.91167 0.25059 0.34171 0.0
O473 O 0.85311 0.19527 0.35377 0.0
O474 O 0.87334 0.25742 0.41124 0.0
O475 O 0.80228 0.18658 0.37409 0.0
C476 C 0.90513 0.16814 0.36721 0.0
C477 C 0.06003 0.26227 0.37145 0.0
C478 C 0.12122 0.25928 0.37275 0.0
C479 C 0.07957 0.24027 0.37351 0.0
C480 C 0.14285 0.30042 0.36951 0.0
C481 C 0.08232 0.30319 0.36789 0.0
C482 C 0.1235 0.32206 0.36689 0.0
C483 C 0.93847 0.23691 0.42623 0.0
C484 C 1.01682 0.24266 0.37481 0.0
C485 C 0.02491 0.37653 0.30406 0.0
C486 C 0.03159 0.39905 0.32463 0.0
C487 C 0.90022 0.27833 0.39587 0.0
C488 C 0.74196 0.16443 0.39491 0.0
C489 C 0.71101 0.1722 0.38927 0.0
C490 C 0.67078 0.14206 0.39171 0.0
C491 C 0.66234 0.10474 0.39995 0.0
C492 C 0.73195 0.12701 0.40362 0.0
C493 C 0.69263 0.09745 0.406 0.0
C494 C 0.87565 0.22146 0.33721 0.0
C495 C 0.78454 0.19418 0.3911 0.0
H496 H 0.06249 0.20865 0.37638 0.0
H497 H 0.17482 0.31579 0.36871 0.0
H498 H 0.0679 0.32058 0.36628 0.0
H499 H 0.14054 0.35369 0.36428 0.0
H500 H 0.71811 0.20108 0.38278 0.0
H501 H 0.63204 0.08125 0.40223 0.0
H502 H 0.75456 0.12048 0.40858 0.0
H503 H 0.68559 0.06868 0.41264 0.0
Eu504 Eu 0.10202 0.31665 0.63167 0.0
C505 C 0.23211 0.3338 0.56848 0.0
C506 C 0.26272 0.30438 0.59187 0.0
C507 C 0.26087 0.2987 0.54886 0.0
C508 C 0.24209 0.32531 0.59037 0.0
C509 C 0.24268 0.32179 0.54743 0.0
C510 C 0.2709 0.29003 0.57106 0.0
C511 C 0.22233 0.36142 0.52522 0.0
N512 N 0.2155 0.35701 0.56772 0.0
C513 C 0.21302 0.37306 0.54658 0.0
C514 C 0.23651 0.33503 0.52561 0.0
Eu515 Eu 0.19991 0.37488 0.60487 0.0
N516 N 0.23385 0.33964 0.61013 0.0
C517 C 0.24795 0.33673 0.63177 0.0
C518 C 0.27567 0.29968 0.61416 0.0
C519 C 0.26894 0.31663 0.63413 0.0
H520 H 0.20254 0.39393 0.54629 0.0
H521 H 0.2795 0.31385 0.65139 0.0
H522 H 0.28614 0.27334 0.5719 0.0
H523 H 0.21891 0.37307 0.5085 0.0
H524 H 0.2428 0.34966 0.64728 0.0
H525 H 1.02236 0.38769 0.59524 0.0
H526 H 0.29164 0.28383 0.61607 0.0
H527 H 0.10319 0.29495 0.69081 0.0
H528 H 0.04722 0.34169 0.59514 0.0
H529 H 0.10074 0.32245 0.72954 0.0
H530 H 0.26871 0.28874 0.5329 0.0
H531 H 0.02795 0.42602 0.6313 0.0
H532 H 0.04576 0.43917 0.6743 0.0
H533 H 0.24423 0.32645 0.50906 0.0
H534 H 0.06745 0.42155 0.71096 0.0
N535 N 0.07031 0.35531 0.63054 0.0
C536 C 0.05126 0.35861 0.611 0.0
C537 C 0.03952 0.406 0.63137 0.0
C538 C 0.05572 0.39992 0.65196 0.0
C539 C 0.03636 0.38446 0.61099 0.0
C540 C 0.07054 0.37359 0.6511 0.0
H541 H 0.0872 0.3776 0.7318 0.0
N542 N 0.09337 0.33563 0.67069 0.0
C543 C 0.09596 0.33461 0.71344 0.0
C544 C 0.08274 0.36369 0.67175 0.0
C545 C 0.09747 0.31926 0.69131 0.0
C546 C 0.08844 0.36579 0.71463 0.0
C547 C 0.08051 0.37991 0.69373 0.0
O548 O 0.06112 0.2651 0.65316 0.0
O549 O 0.15927 0.31796 0.62304 0.0
O550 O 0.15376 0.33764 0.57574 0.0
O551 O 0.09358 0.32241 0.59281 0.0
O552 O 0.10818 0.26739 0.61461 0.0
O553 O 0.04798 0.2692 0.61635 0.0
O554 O 0.23957 0.43413 0.59041 0.0
O555 O 0.14933 0.37912 0.62107 0.0
O556 O 0.14942 0.32578 0.65827 0.0
O557 O 0.20123 0.38547 0.64542 0.0
O558 O 0.17226 0.40765 0.58879 0.0
O559 O 0.25821 0.41467 0.62064 0.0
C560 C 0.1459 0.28388 0.61422 0.0
C561 C 0.99395 0.22606 0.64033 0.0
C562 C 0.93126 0.16334 0.63929 0.0
C563 C 0.97285 0.18458 0.63799 0.0
C564 C 0.91119 0.18416 0.64345 0.0
C565 C 0.97336 0.24615 0.64467 0.0
C566 C 0.93215 0.22518 0.64634 0.0
C567 C 0.11496 0.32386 0.57444 0.0
C568 C 0.03674 0.24785 0.6356 0.0
C569 C 0.06868 0.40833 0.69432 0.0
C570 C 0.05628 0.41831 0.67345 0.0
C571 C 0.1474 0.40193 0.60556 0.0
C572 C 0.30871 0.45781 0.59398 0.0
C573 C 0.34323 0.49037 0.60378 0.0
C574 C 0.38092 0.50391 0.5931 0.0
C575 C 0.38283 0.48475 0.57239 0.0
C576 C 0.31253 0.43954 0.57356 0.0
C577 C 0.3491 0.45294 0.56286 0.0
C578 C 0.1817 0.35975 0.66261 0.0
C579 C 0.26875 0.44231 0.60481 0.0
H580 H 0.98867 0.16901 0.63429 0.0
H581 H 0.87924 0.16859 0.64464 0.0
H582 H 0.98908 0.27803 0.64628 0.0
H583 H 0.91634 0.24084 0.64957 0.0
H584 H 0.34081 0.50464 0.61965 0.0
H585 H 0.41057 0.4947 0.5632 0.0
H586 H 0.28717 0.41495 0.56562 0.0
H587 H 0.35131 0.43863 0.54695 0.0
Eu588 Eu 0.20408 0.84356 0.89576 0.0
C589 C 0.32602 0.98534 0.83181 0.0
C590 C 0.38908 1.00827 0.85114 0.0
C591 C 0.38655 0.01656 0.8085 0.0
C592 C 0.3475 0.9897 0.85217 0.0
C593 C 0.3453 0.99928 0.80979 0.0
C594 C 0.4084 0.02101 0.82914 0.0
C595 C 0.28186 0.97997 0.79216 0.0
N596 N 0.28628 0.96866 0.83368 0.0
C597 C 0.26411 0.96666 0.8144 0.0
C598 C 0.32262 0.99614 0.78981 0.0
Eu599 Eu 0.25791 0.94551 0.87167 0.0
N600 N 0.32793 0.97752 0.87315 0.0
C601 C 0.34848 0.98551 0.89397 0.0
C602 C 0.41007 1.01445 0.87231 0.0
C603 C 0.38969 1.0035 0.89385 0.0
H604 H 0.23255 0.95401 0.81603 0.0
H605 H 0.40567 1.00883 0.91039 0.0
H606 H 0.44028 0.03509 0.82798 0.0
H607 H 0.2641 0.97772 0.77685 0.0
H608 H 0.33337 0.97729 0.91081 0.0
H609 H 0.06121 0.76793 0.85069 0.0
H610 H 0.442 0.0285 0.87228 0.0
H611 H 0.22242 0.8375 0.9532 0.0
H612 H 0.13355 0.80399 0.85369 0.0
H613 H 0.18661 0.8181 0.99153 0.0
H614 H 0.40187 0.02721 0.79172 0.0
H615 H 1.02034 0.75221 0.88691 0.0
H616 H 1.01689 0.75409 0.93141 0.0
H617 H 0.33641 1.00676 0.77264 0.0
H618 H 0.05117 0.76853 0.96988 0.0
N619 N 0.13438 0.81081 0.89125 0.0
C620 C 0.1164 0.79801 0.86969 0.0
C621 C 0.05224 0.76864 0.88836 0.0
C622 C 0.07072 0.78003 0.91053 0.0
C623 C 0.07521 0.7773 0.86789 0.0
C624 C 0.11239 0.80098 0.91143 0.0
H625 H 0.11441 0.79174 0.99248 0.0
N626 N 0.17136 0.82437 0.933 0.0
C627 C 0.17078 0.81541 0.97523 0.0
C628 C 0.13158 0.80837 0.93302 0.0
C629 C 0.19093 0.82629 0.95355 0.0
C630 C 0.13007 0.80072 0.9757 0.0
C631 C 0.10978 0.79607 0.95437 0.0
O632 O 0.21518 0.79706 0.90918 0.0
O633 O 0.26251 0.89258 0.88299 0.0
O634 O 0.25884 0.9057 0.84336 0.0
O635 O 0.20373 0.84583 0.85426 0.0
O636 O 0.26342 0.8626 0.91286 0.0
O637 O 0.19234 0.79227 0.87398 0.0
O638 O 0.23568 0.9856 0.86272 0.0
O639 O 0.19967 0.8957 0.88431 0.0
O640 O 0.20903 0.88774 0.92509 0.0
O641 O 0.26316 0.9462 0.91169 0.0
O642 O 0.19825 0.92515 0.85424 0.0
O643 O 0.27474 0.99839 0.89269 0.0
C644 C 0.28528 0.89007 0.89804 0.0
C645 C 0.17201 0.73194 0.8945 0.0
C646 C 0.15012 0.66089 0.89138 0.0
C647 C 0.17996 0.7012 0.88866 0.0
C648 C 0.11295 0.65221 0.90009 0.0
C649 C 0.13475 0.72162 0.90367 0.0
C650 C 0.10552 0.68228 0.90632 0.0
C651 C 0.23011 0.86974 0.83819 0.0
C652 C 0.20129 0.77463 0.89045 0.0
C653 C 0.06841 0.77785 0.95366 0.0
C654 C 0.04889 0.76965 0.93175 0.0
C655 C 0.1769 0.89768 0.86913 0.0
C656 C 0.27256 0.05266 0.87525 0.0
C657 C 0.24987 0.07145 0.87762 0.0
C658 C 0.26768 0.11282 0.8752 0.0
C659 C 0.30826 0.1349 0.87004 0.0
C660 C 0.31285 0.07536 0.86971 0.0
C661 C 0.3305 0.11623 0.86711 0.0
C662 C 0.23707 0.92535 0.92823 0.0
C663 C 0.25438 1.0099 0.88004 0.0
H664 H 0.20872 0.70848 0.88181 0.0
H665 H 0.08971 0.62187 0.90259 0.0
H666 H 0.12809 0.74402 0.90877 0.0
H667 H 0.07688 0.67505 0.91332 0.0
H668 H 0.21872 0.05409 0.88193 0.0
H669 H 0.32268 0.16665 0.86795 0.0
H670 H 0.33075 0.06154 0.86773 0.0
H671 H 0.36167 0.13359 0.86297 0.0
Eu672 Eu 0.71756 0.78657 0.63281 0.0
C673 C 0.71177 0.91236 0.56765 0.0
C674 C 0.7419 0.97299 0.59028 0.0
C675 C 0.74657 0.97562 0.54723 0.0
C676 C 0.72135 0.93134 0.58931 0.0
C677 C 0.72332 0.9343 0.54632 0.0
C678 C 0.75568 0.99496 0.5692 0.0
C679 C 0.68295 0.87364 0.52493 0.0
N680 N 0.6878 0.87266 0.56745 0.0
C681 C 0.67161 0.8534 0.54658 0.0
C682 C 0.70945 0.91423 0.52477 0.0
Eu683 Eu 0.67098 0.83938 0.60464 0.0
N684 N 0.70704 0.90918 0.6093 0.0
C685 C 0.70939 0.92702 0.6306 0.0
C686 C 0.7463 0.99128 0.61229 0.0
C687 C 0.72952 0.96816 0.63247 0.0
H688 H 0.65086 0.82201 0.54668 0.0
H689 H 0.7319 0.98201 0.64949 0.0
H690 H 0.77212 0.02694 0.56965 0.0
H691 H 0.67101 0.85799 0.50843 0.0
H692 H 0.69613 0.90991 0.64638 0.0
H693 H 0.63773 0.6371 0.59641 0.0
H694 H 0.76142 0.02313 0.61377 0.0
H695 H 0.74424 0.81463 0.68957 0.0
H696 H 0.68014 0.7093 0.595 0.0
H697 H 0.72675 0.78554 0.72973 0.0
H698 H 0.75612 0.99296 0.53105 0.0
H699 H 0.61331 0.60314 0.63499 0.0
H700 H 0.61314 0.60745 0.67953 0.0
H701 H 0.71773 0.93 0.50801 0.0
H702 H 0.63739 0.64779 0.71576 0.0
N703 N 0.67956 0.71669 0.63245 0.0
C704 C 0.67008 0.69506 0.61202 0.0
C705 C 0.63213 0.63494 0.63451 0.0
C706 C 0.64364 0.65707 0.65548 0.0
C707 C 0.64592 0.65399 0.61272 0.0
C708 C 0.66807 0.6984 0.65384 0.0
H709 H 0.67935 0.71418 0.73457 0.0
N710 N 0.70668 0.76041 0.6719 0.0
C711 C 0.71403 0.76704 0.71425 0.0
C712 C 0.68207 0.72094 0.6742 0.0
C713 C 0.72395 0.78339 0.69145 0.0
C714 C 0.68729 0.72676 0.71694 0.0
C715 C 0.67154 0.70302 0.6968 0.0
O716 O 0.78015 0.8138 0.64202 0.0
O717 O 0.72711 0.84448 0.61824 0.0
O718 O 0.70833 0.82961 0.5762 0.0
O719 O 0.71801 0.78033 0.5929 0.0
O720 O 0.75413 0.84619 0.65033 0.0
O721 O 0.75467 0.76414 0.61817 0.0
O722 O 0.61504 0.82932 0.58904 0.0
O723 O 0.66189 0.78181 0.61814 0.0
O724 O 0.67252 0.78495 0.65832 0.0
O725 O 0.67145 0.84128 0.64606 0.0
O726 O 0.63139 0.77945 0.58788 0.0
O727 O 0.6278 0.84724 0.62539 0.0
C728 C 0.74993 0.86724 0.63426 0.0
C729 C 0.81099 0.77533 0.64076 0.0
C730 C 0.87556 0.77942 0.64617 0.0
C731 C 0.85106 0.79098 0.63414 0.0
C732 C 0.85868 0.75209 0.66502 0.0
C733 C 0.79526 0.74776 0.65925 0.0
C734 C 0.81901 0.73629 0.67127 0.0
C735 C 0.71976 0.80273 0.57486 0.0
C736 C 0.78652 0.78974 0.62939 0.0
C737 C 0.64602 0.66207 0.69855 0.0
C738 C 0.63218 0.63911 0.67792 0.0
C739 C 0.63734 0.75834 0.60308 0.0
C740 C 0.59053 0.86994 0.60414 0.0
C741 C 0.55163 0.86176 0.60967 0.0
C742 C 0.54127 0.89165 0.60726 0.0
C743 C 0.57012 0.92917 0.59921 0.0
C744 C 0.61788 0.90752 0.59555 0.0
C745 C 0.60789 0.93687 0.59326 0.0
C746 C 0.66609 0.8144 0.66246 0.0
C747 C 0.6036 0.84041 0.60779 0.0
H748 H 0.86292 0.81206 0.61969 0.0
H749 H 0.87623 0.74327 0.67542 0.0
H750 H 0.76475 0.73561 0.66464 0.0
H751 H 0.80676 0.71539 0.68578 0.0
H752 H 0.52988 0.83273 0.61602 0.0
H753 H 0.56311 0.95249 0.59696 0.0
H754 H 0.64713 0.91432 0.59058 0.0
H755 H 0.62957 0.96577 0.58672 0.0
Eu756 Eu 0.19825 0.36944 0.89895 0.0
C757 C 0.06307 0.35171 0.83019 0.0
C758 C 0.04078 0.39322 0.84822 0.0
C759 C 0.03634 0.38372 0.80542 0.0
C760 C 0.05773 0.36889 0.85016 0.0
C761 C 0.05182 0.35832 0.80761 0.0
C762 C 0.03084 0.40115 0.82571 0.0
C763 C 0.0695 0.31217 0.79131 0.0
N764 N 0.07789 0.32724 0.83296 0.0
C765 C 0.07993 0.30637 0.8141 0.0
C766 C 0.05574 0.33858 0.78799 0.0
Eu767 Eu 0.09834 0.32132 0.87163 0.0
N768 N 0.06745 0.36037 0.87162 0.0
C769 C 0.0583 0.37298 0.892 0.0
C770 C 0.03347 0.40806 0.869 0.0
C771 C 0.04176 0.39742 0.89101 0.0
H772 H 0.09054 0.28592 0.81655 0.0
H773 H 0.03556 0.40814 0.90722 0.0
H774 H 1.01811 0.42004 0.82384 0.0
H775 H 0.07207 0.29628 0.77633 0.0
H776 H 0.06464 0.3653 0.90918 0.0
H777 H 0.27993 0.30369 0.86007 0.0
H778 H 1.02062 0.42696 0.86828 0.0
H779 H 0.19706 0.39395 0.95583 0.0
H780 H 0.24162 0.33783 0.85992 0.0
H781 H 0.21361 0.37933 0.99555 0.0
H782 H 0.02782 0.38944 0.78821 0.0
H783 H 0.29455 0.2818 0.89798 0.0
H784 H 0.28891 0.27782 0.94243 0.0
H785 H 0.04747 0.34289 0.77035 0.0
H786 H 0.26978 0.29741 0.97939 0.0
N787 N 0.2329 0.33414 0.89741 0.0
C788 C 0.24727 0.32816 0.87664 0.0
C789 C 0.27721 0.29637 0.89805 0.0
C790 C 0.26371 0.30382 0.91935 0.0
C791 C 0.26919 0.30886 0.87662 0.0
C792 C 0.24178 0.3235 0.91847 0.0
H793 H 0.24215 0.33569 0.99937 0.0
N794 N 0.21337 0.35666 0.93762 0.0
C795 C 0.21836 0.36624 0.97989 0.0
C796 C 0.23112 0.33457 0.93922 0.0
C797 C 0.20894 0.37437 0.95741 0.0
C798 C 0.23435 0.3415 0.98197 0.0
C799 C 0.24192 0.32619 0.96147 0.0
O800 O 0.23857 0.43049 0.91021 0.0
O801 O 0.15073 0.37923 0.8835 0.0
O802 O 0.14049 0.35959 0.84311 0.0
O803 O 0.19976 0.36663 0.85765 0.0
O804 O 0.17687 0.40818 0.91481 0.0
O805 O 0.25595 0.40644 0.88158 0.0
O806 O 0.05873 0.25895 0.86238 0.0
O807 O 0.1473 0.31325 0.88603 0.0
O808 O 0.15195 0.32914 0.92701 0.0
O809 O 0.09475 0.32528 0.91164 0.0
O810 O 0.11939 0.28149 0.8559 0.0
O811 O 0.04361 0.28507 0.89129 0.0
C812 C 0.15183 0.40396 0.89856 0.0
C813 C 0.30741 0.45301 0.90667 0.0
C814 C 0.37955 0.49986 0.90737 0.0
C815 C 0.34187 0.48518 0.89639 0.0
C816 C 0.38148 0.48221 0.92877 0.0
C817 C 0.31128 0.43655 0.92792 0.0
C818 C 0.34782 0.45097 0.93882 0.0
C819 C 0.17731 0.36777 0.84015 0.0
C820 C 0.26722 0.43633 0.89587 0.0
C821 C 0.26161 0.30449 0.96246 0.0
C822 C 0.27258 0.29341 0.94143 0.0
C823 C 0.14616 0.28816 0.87143 0.0
C824 C 0.99061 0.22834 0.87304 0.0
C825 C 0.9713 0.18683 0.87601 0.0
C826 C 0.93007 0.16325 0.87246 0.0
C827 C 0.90877 0.18177 0.86555 0.0
C828 C 0.96862 0.24583 0.86577 0.0
C829 C 0.92796 0.22261 0.86205 0.0
C830 C 0.11425 0.31993 0.92902 0.0
C831 C 0.03306 0.25315 0.87889 0.0
H832 H 0.33944 0.49831 0.87999 0.0
H833 H 0.4092 0.49301 0.93812 0.0
H834 H 0.28592 0.4127 0.9364 0.0
H835 H 0.35003 0.43797 0.95533 0.0
H836 H 0.98808 0.17308 0.88164 0.0
H837 H 0.8772 0.16448 0.86257 0.0
H838 H 0.9828 0.2775 0.86329 0.0
H839 H 0.91116 0.23637 0.85656 0.0
Eu840 Eu 0.25293 0.93873 0.6308 0.0
C841 C 0.12792 0.8106 0.56365 0.0
C842 C 0.0657 0.78044 0.58476 0.0
C843 C 0.06625 0.78408 0.54168 0.0
C844 C 0.10739 0.80085 0.58482 0.0
C845 C 0.10755 0.80131 0.5418 0.0
C846 C 0.04532 0.77351 0.56315 0.0
C847 C 0.1695 0.82104 0.52198 0.0
N848 N 0.16751 0.8256 0.56444 0.0
C849 C 0.18822 0.82922 0.54411 0.0
C850 C 0.12907 0.80767 0.52078 0.0
Eu851 Eu 0.19795 0.84015 0.60238 0.0
N852 N 0.128 0.80729 0.60532 0.0
C853 C 0.10856 0.79054 0.62604 0.0
C854 C 0.04572 0.76559 0.60625 0.0
C855 C 0.06727 0.76997 0.62689 0.0
H856 H 0.21954 0.83966 0.54498 0.0
H857 H 0.0521 0.75755 0.64349 0.0
H858 H 1.01333 0.75849 0.5628 0.0
H859 H 0.18625 0.82501 0.50589 0.0
H860 H 0.12464 0.79324 0.64213 0.0
H861 H 0.40512 1.00227 0.59948 0.0
H862 H 1.01373 0.74949 0.60692 0.0
H863 H 0.21997 0.93784 0.68667 0.0
H864 H 0.33339 0.97457 0.59556 0.0
H865 H 0.24553 0.94957 0.72751 0.0
H866 H 0.05011 0.77714 0.52508 0.0
H867 H 0.43539 1.01256 0.63931 0.0
H868 H 0.42712 1.00977 0.68362 0.0
H869 H 0.11453 0.80093 0.50365 0.0
H870 H 0.38379 0.99547 0.71836 0.0
N871 N 0.32256 0.96832 0.63283 0.0
C872 C 0.34601 0.97897 0.61309 0.0
C873 C 0.40378 1.00045 0.63772 0.0
C874 C 0.37985 0.99123 0.6579 0.0
C875 C 0.38682 0.99474 0.61521 0.0
C876 C 0.33883 0.97537 0.65485 0.0
H877 H 0.31611 0.97274 0.73485 0.0
N878 N 0.27539 0.95345 0.67072 0.0
C879 C 0.26527 0.95481 0.71272 0.0
C880 C 0.31456 0.96772 0.67438 0.0
C881 C 0.2509 0.94824 0.68945 0.0
C882 C 0.30512 0.9679 0.7168 0.0
C883 C 0.33046 0.97514 0.69753 0.0
O884 O 0.22512 0.97504 0.63458 0.0
O885 O 0.19442 0.89157 0.61625 0.0
O886 O 0.20762 0.88906 0.57487 0.0
O887 O 0.26266 0.94318 0.59113 0.0
O888 O 0.19299 0.91821 0.64774 0.0
O889 O 0.28193 0.99983 0.61771 0.0
O890 O 0.20683 0.79321 0.58738 0.0
O891 O 0.25638 0.88675 0.61637 0.0
O892 O 0.25153 0.89468 0.6568 0.0
O893 O 0.19459 0.83814 0.64389 0.0
O894 O 0.25751 0.85852 0.58582 0.0
O895 O 0.18738 0.7885 0.62345 0.0
C896 C 0.17165 0.89255 0.63194 0.0
C897 C 0.26557 0.04404 0.63699 0.0
C898 C 0.25657 0.10118 0.64314 0.0
C899 C 0.24838 0.06695 0.63024 0.0
C900 C 0.28271 0.11243 0.6625 0.0
C901 C 0.29166 0.05611 0.6563 0.0
C902 C 0.30028 0.09023 0.66887 0.0
C903 C 0.23753 0.92633 0.57351 0.0
C904 C 0.25396 1.00631 0.62486 0.0
C905 C 0.37108 0.9898 0.7007 0.0
C906 C 0.39574 0.9979 0.68093 0.0
C907 C 0.27938 0.88434 0.60142 0.0
C908 C 0.16503 0.72824 0.60269 0.0
C909 C 0.17318 0.69769 0.60864 0.0
C910 C 0.14333 0.65739 0.60647 0.0
C911 C 0.10583 0.6484 0.59827 0.0
C912 C 0.12747 0.7178 0.59397 0.0
C913 C 0.09814 0.67832 0.59192 0.0
C914 C 0.22142 0.85894 0.66053 0.0
C915 C 0.19464 0.77084 0.60623 0.0
H916 H 0.22776 0.05748 0.61553 0.0
H917 H 0.28962 0.13856 0.6727 0.0
H918 H 0.30495 0.03888 0.66184 0.0
H919 H 0.32034 0.09928 0.68382 0.0
H920 H 0.20218 0.70515 0.61513 0.0
H921 H 0.08256 0.61795 0.59631 0.0
H922 H 0.12066 0.74018 0.58877 0.0
H923 H 0.06923 0.67087 0.58531 0.0
Eu924 Eu 0.6691 0.83386 0.89846 0.0
C925 C 0.69565 0.72003 0.83106 0.0
C926 C 0.65846 0.65557 0.84935 0.0
C927 C 0.6696 0.66091 0.80671 0.0
C928 C 0.67942 0.69713 0.8511 0.0
C929 C 0.69144 0.7022 0.80867 0.0
C930 C 0.65308 0.63764 0.82701 0.0
C931 C 0.73222 0.76722 0.79194 0.0
N932 N 0.71663 0.7598 0.83355 0.0
C933 C 0.73556 0.78352 0.8145 0.0
C934 C 0.70995 0.72638 0.789 0.0
Eu935 Eu 0.72082 0.78549 0.8722 0.0
N936 N 0.68563 0.71539 0.87244 0.0
C937 C 0.67376 0.69366 0.8929 0.0
C938 C 0.6444 0.63326 0.87018 0.0
C939 C 0.65252 0.65241 0.89206 0.0
H940 H 0.75277 0.81513 0.81656 0.0
H941 H 0.64242 0.63543 0.90833 0.0
H942 H 0.63687 0.60578 0.82532 0.0
H943 H 0.74687 0.78616 0.77686 0.0
H944 H 0.67971 0.70777 0.91001 0.0
H945 H 0.73307 0.97966 0.85747 0.0
H946 H 0.62808 0.60129 0.86959 0.0
H947 H 0.64466 0.80983 0.95565 0.0
H948 H 0.69929 0.90706 0.85842 0.0
H949 H 0.65904 0.84243 0.99493 0.0
H950 H 0.66584 0.64669 0.78964 0.0
H951 H 0.75525 0.01763 0.89486 0.0
H952 H 0.75916 0.01759 0.93938 0.0
H953 H 0.70782 0.71376 0.77159 0.0
H954 H 0.7399 0.98016 0.97687 0.0
N955 N 0.70348 0.90367 0.89596 0.0
C956 C 0.70901 0.92316 0.87489 0.0
C957 C 0.74072 0.98571 0.8954 0.0
C958 C 0.73344 0.96555 0.91702 0.0
C959 C 0.72811 0.96438 0.87426 0.0
C960 C 0.71405 0.92392 0.91674 0.0
H961 H 0.70213 0.91488 0.99776 0.0
N962 N 0.6816 0.86295 0.93677 0.0
C963 C 0.67199 0.85977 0.97904 0.0
C964 C 0.70327 0.90291 0.93781 0.0
C965 C 0.664 0.84141 0.95683 0.0
C966 C 0.69642 0.90064 0.98056 0.0
C967 C 0.71153 0.92287 0.95976 0.0
O968 O 0.60788 0.8123 0.90983 0.0
O969 O 0.66207 0.77741 0.88401 0.0
O970 O 0.67742 0.78196 0.84505 0.0
O971 O 0.67007 0.8351 0.85674 0.0
O972 O 0.63091 0.77324 0.91451 0.0
O973 O 0.63141 0.85371 0.88111 0.0
O974 O 0.78329 0.81021 0.86252 0.0
O975 O 0.72699 0.84223 0.88605 0.0
O976 O 0.70908 0.82881 0.92729 0.0
O977 O 0.71691 0.77778 0.91207 0.0
O978 O 0.75729 0.84605 0.85528 0.0
O979 O 0.75889 0.77006 0.89223 0.0
C980 C 0.63752 0.75315 0.89891 0.0
C981 C 0.58451 0.85795 0.90636 0.0
C982 C 0.53755 0.88307 0.90701 0.0
C983 C 0.5526 0.8605 0.89592 0.0
C984 C 0.55454 0.90192 0.92867 0.0
C985 C 0.60026 0.8776 0.92787 0.0
C986 C 0.58548 0.89926 0.93887 0.0
C987 C 0.66837 0.80952 0.84034 0.0
C988 C 0.60163 0.83485 0.89551 0.0
C989 C 0.7329 0.96432 0.96017 0.0
C990 C 0.74379 0.98563 0.93883 0.0
C991 C 0.7506 0.86613 0.87075 0.0
C992 C 0.81504 0.77407 0.87325 0.0
C993 C 0.85657 0.7968 0.87562 0.0
C994 C 0.88034 0.77954 0.8719 0.0
C995 C 0.86206 0.73954 0.86546 0.0
C996 C 0.79764 0.73438 0.86642 0.0
C997 C 0.8211 0.71731 0.86254 0.0
C998 C 0.72006 0.80166 0.9295 0.0
C999 C 0.79019 0.79144 0.87926 0.0
H1000 H 0.53995 0.84548 0.87932 0.0
H1001 H 0.54343 0.91847 0.93811 0.0
H1002 H 0.62383 0.8759 0.9365 0.0
H1003 H 0.59795 0.9139 0.95558 0.0
H1004 H 0.87022 0.82749 0.88092 0.0
H1005 H 0.8796 0.72559 0.86241 0.0
H1006 H 0.76589 0.71647 0.86442 0.0
H1007 H 0.80744 0.68659 0.85741 0.0
H1008 H 0.08683 0.17354 0.1244 0.0
H1009 H 0.18462 0.27893 0.1543 0.0
H1010 H 0.13086 0.1465 0.11806 0.0
H1011 H 0.22706 0.2507 0.1494 0.0
H1012 H 0.26612 0.15918 0.16942 0.0
H1013 H 0.22072 0.1851 0.17029 0.0
H1014 H 0.20299 0.167 0.09472 0.0
H1015 H 0.24969 0.14186 0.09378 0.0
C1016 C 0.11757 0.19122 0.12943 0.0
C1017 C 0.13152 0.2283 0.14042 0.0
C1018 C 0.14277 0.17554 0.12586 0.0
C1019 C 0.18235 0.19624 0.13352 0.0
C1020 C 0.19663 0.23375 0.14359 0.0
C1021 C 0.17191 0.24974 0.14664 0.0
C1022 C 0.2528 0.16104 0.15294 0.0
C1023 C 0.26262 0.14992 0.13141 0.0
C1024 C 0.22669 0.17575 0.15346 0.0
C1025 C 0.20843 0.1784 0.13257 0.0
C1026 C 0.21663 0.16538 0.11111 0.0
C1027 C 0.24367 0.15146 0.11051 0.0
H1028 H 0.121 0.94655 0.37477 0.0
H1029 H 0.13472 0.84512 0.36234 0.0
H1030 H 0.04973 0.90229 0.38062 0.0
H1031 H 0.06376 0.80179 0.36693 0.0
H1032 H 0.93444 0.76205 0.33536 0.0
H1033 H 1.00588 0.80704 0.33671 0.0
H1034 H 0.99754 0.82966 0.41079 0.0
H1035 H 0.9255 0.78308 0.40965 0.0
C1036 C 0.10922 0.91501 0.37361 0.0
C1037 C 0.13409 0.89983 0.36755 0.0
C1038 C 0.06827 0.88966 0.37691 0.0
C1039 C 0.05115 0.84859 0.37405 0.0
C1040 C 0.07604 0.83331 0.36906 0.0
C1041 C 0.11682 0.8584 0.36617 0.0
C1042 C 0.94786 0.7762 0.35204 0.0
C1043 C 0.92454 0.76803 0.37257 0.0
C1044 C 0.98873 0.8021 0.35277 0.0
C1045 C 1.00734 0.82182 0.37384 0.0
C1046 C 0.98396 0.81486 0.3943 0.0
C1047 C 0.9429 0.78798 0.39372 0.0
H1048 H 0.86442 0.109 0.16747 0.0
H1049 H 0.88917 0.11453 0.0925 0.0
H1050 H 0.83804 0.03764 0.16714 0.0
H1051 H 0.86364 0.04257 0.0923 0.0
H1052 H 0.85522 0.91877 0.12503 0.0
H1053 H 0.88328 0.99007 0.11907 0.0
H1054 H 0.77327 0.98012 0.1413 0.0
H1055 H 0.74423 0.90921 0.14564 0.0
C1056 C 0.86403 0.09482 0.15088 0.0
C1057 C 0.87738 0.11703 0.12984 0.0
C1058 C 0.84914 0.05404 0.15072 0.0
C1059 C 0.84855 0.03449 0.12969 0.0
C1060 C 0.86369 0.05689 0.10876 0.0
C1061 C 0.87783 0.09786 0.1088 0.0
C1062 C 0.83656 0.93146 0.12804 0.0
C1063 C 0.79748 0.90777 0.13636 0.0
C1064 C 0.85279 0.97242 0.12469 0.0
C1065 C 0.83054 0.99068 0.12991 0.0
C1066 C 0.79123 0.96696 0.13729 0.0
C1067 C 0.77478 0.92618 0.14008 0.0
H1068 H 0.2667 0.15202 0.41078 0.0
H1069 H 0.26925 0.16384 0.33457 0.0
H1070 H 0.21988 0.17658 0.41333 0.0
H1071 H 0.22254 0.18783 0.33694 0.0
H1072 H 0.11182 0.19637 0.34644 0.0
H1073 H 0.15253 0.16494 0.34738 0.0
H1074 H 0.21949 0.24 0.40582 0.0
H1075 H 0.17953 0.27208 0.40435 0.0
C1076 C 0.25757 0.16029 0.39464 0.0
C1077 C 0.27264 0.15735 0.37254 0.0
C1078 C 0.23057 0.17407 0.39604 0.0
C1079 C 0.21736 0.18422 0.37532 0.0
C1080 C 0.2317 0.18002 0.35324 0.0
C1081 C 0.25877 0.1666 0.35189 0.0
C1082 C 0.13499 0.20581 0.35962 0.0
C1083 C 0.14266 0.23686 0.3752 0.0
C1084 C 0.15851 0.18803 0.36008 0.0
C1085 C 0.18979 0.20033 0.37645 0.0
C1086 C 0.19597 0.22996 0.39287 0.0
C1087 C 0.17308 0.24836 0.39203 0.0
H1088 H 0.11509 0.93274 0.15165 0.0
H1089 H 0.11805 0.85951 0.0955 0.0
H1090 H 0.04265 0.89343 0.15224 0.0
H1091 H 0.04588 0.82098 0.09555 0.0
H1092 H 0.91188 0.77347 0.09196 0.0
H1093 H 0.98294 0.82091 0.0882 0.0
H1094 H 0.99387 0.82524 0.16461 0.0
H1095 H 0.92326 0.77792 0.16819 0.0
C1096 C 0.10019 0.90868 0.13915 0.0
C1097 C 0.12225 0.89911 0.12362 0.0
C1098 C 0.05871 0.88596 0.13958 0.0
C1099 C 0.03825 0.85358 0.12413 0.0
C1100 C 0.06043 0.84545 0.10776 0.0
C1101 C 0.10184 0.86754 0.10773 0.0
C1102 C 0.92966 0.78444 0.10788 0.0
C1103 C 0.91236 0.77089 0.13034 0.0
C1104 C 0.9703 0.81177 0.10577 0.0
C1105 C 0.99437 0.82684 0.12611 0.0
C1106 C 0.97641 0.81457 0.14856 0.0
C1107 C 0.93597 0.78717 0.15063 0.0
H1108 H 0.85673 0.92608 0.34402 0.0
H1109 H 0.77869 0.91683 0.40087 0.0
H1110 H 0.8873 0.99826 0.34478 0.0
H1111 H 0.80979 0.98883 0.40213 0.0
H1112 H 0.89577 0.12425 0.40778 0.0
H1113 H 0.8732 0.05324 0.41024 0.0
H1114 H 0.86376 0.04515 0.33383 0.0
H1115 H 0.88562 0.11548 0.33153 0.0
C1116 C 0.84665 0.93952 0.35698 0.0
C1117 C 0.81521 0.9157 0.37232 0.0
C1118 C 0.86393 0.98087 0.35733 0.0
C1119 C 0.8508 0.99953 0.37337 0.0
C1120 C 0.82069 0.97567 0.38952 0.0
C1121 C 0.80281 0.93435 0.38879 0.0
C1122 C 0.88843 0.10708 0.39159 0.0
C1123 C 0.89109 0.12514 0.36952 0.0
C1124 C 0.87577 0.06648 0.39295 0.0
C1125 C 0.86648 0.04326 0.37222 0.0
C1126 C 0.87082 0.06194 0.35015 0.0
C1127 C 0.88307 0.10225 0.34884 0.0
H1128 H 0.21237 0.11888 0.67243 0.0
H1129 H 0.25781 0.13745 0.60099 0.0
H1130 H 0.18452 0.16113 0.66467 0.0
H1131 H 0.232 0.18199 0.59335 0.0
H1132 H 0.15424 0.23792 0.58093 0.0
H1133 H 0.1783 0.19152 0.58686 0.0
H1134 H 0.20029 0.22555 0.66083 0.0
H1135 H 0.1745 0.27001 0.65482 0.0
C1136 C 0.21647 0.13222 0.65502 0.0
C1137 C 0.23727 0.12482 0.63734 0.0
C1138 C 0.20087 0.15695 0.65057 0.0
C1139 C 0.20631 0.17591 0.62843 0.0
C1140 C 0.2266 0.1678 0.61054 0.0
C1141 C 0.24158 0.14232 0.6149 0.0
C1142 C 0.16457 0.23548 0.59836 0.0
C1143 C 0.16392 0.2586 0.61721 0.0
C1144 C 0.17853 0.20897 0.60182 0.0
C1145 C 0.19156 0.20442 0.62438 0.0
C1146 C 0.19005 0.22732 0.64326 0.0
C1147 C 0.1759 0.25351 0.63979 0.0
H1148 H 0.12451 0.87979 0.83342 0.0
H1149 H 0.13279 0.88503 0.9098 0.0
H1150 H 0.0538 0.85645 0.83595 0.0
H1151 H 0.06154 0.86115 0.91249 0.0
H1152 H 0.9334 0.84534 0.84734 0.0
H1153 H 1.00577 0.87761 0.84814 0.0
H1154 H 0.99828 0.7978 0.90353 0.0
H1155 H 0.9261 0.76491 0.9021 0.0
C1156 C 0.11107 0.87584 0.85079 0.0
C1157 C 0.13384 0.88281 0.87142 0.0
C1158 C 0.07059 0.86278 0.85225 0.0
C1159 C 0.05178 0.85668 0.87443 0.0
C1160 C 0.07493 0.86506 0.89513 0.0
C1161 C 0.11564 0.87845 0.89362 0.0
C1162 C 0.94735 0.83509 0.85986 0.0
C1163 C 0.92415 0.80256 0.87459 0.0
C1164 C 0.98876 0.85335 0.86023 0.0
C1165 C 1.00797 0.84001 0.8757 0.0
C1166 C 0.98464 0.80877 0.89132 0.0
C1167 C 0.94327 0.78992 0.89053 0.0
H1168 H 0.78632 0.91379 0.59495 0.0
H1169 H 0.77781 0.91764 0.67114 0.0
H1170 H 0.83355 0.98532 0.59444 0.0
H1171 H 0.82505 0.98839 0.67078 0.0
H1172 H 0.93844 0.10738 0.66433 0.0
H1173 H 0.89696 0.03539 0.66158 0.0
H1174 H 0.83191 0.04884 0.60392 0.0
H1175 H 0.87253 0.12076 0.60728 0.0
C1176 C 0.79426 0.93002 0.61152 0.0
C1177 C 0.77735 0.9105 0.633 0.0
C1178 C 0.82148 0.97084 0.61127 0.0
C1179 C 0.83306 0.99265 0.63259 0.0
C1180 C 0.81704 0.97259 0.65407 0.0
C1181 C 0.78972 0.93209 0.65427 0.0
C1182 C 0.91543 0.09487 0.65099 0.0
C1183 C 0.9085 0.11965 0.63617 0.0
C1184 C 0.89156 0.05369 0.64946 0.0
C1185 C 0.86075 0.03629 0.6327 0.0
C1186 C 0.85514 0.06116 0.6171 0.0
C1187 C 0.87834 0.10235 0.61906 0.0
H1188 H 0.16706 0.25573 0.83612 0.0
H1189 H 0.15946 0.25773 0.91243 0.0
H1190 H 0.1917 0.20962 0.83897 0.0
H1191 H 0.18475 0.21157 0.91545 0.0
H1192 H 0.20246 0.1005 0.85019 0.0
H1193 H 0.17011 0.14039 0.85093 0.0
H1194 H 0.24844 0.21171 0.90709 0.0
H1195 H 0.28145 0.17261 0.90574 0.0
C1196 C 0.1709 0.24641 0.85356 0.0
C1197 C 0.1627 0.26146 0.87407 0.0
C1198 C 0.18469 0.21967 0.8552 0.0
C1199 C 0.19035 0.20683 0.87744 0.0
C1200 C 0.18114 0.22112 0.89804 0.0
C1201 C 0.16696 0.24776 0.89635 0.0
C1202 C 0.2124 0.12443 0.86286 0.0
C1203 C 0.24461 0.13356 0.87781 0.0
C1204 C 0.19409 0.14748 0.86319 0.0
C1205 C 0.20703 0.17975 0.87883 0.0
C1206 C 0.23785 0.1874 0.8947 0.0
C1207 C 0.25677 0.16497 0.89395 0.0
H1208 H 0.12159 0.86342 0.66903 0.0
H1209 H 0.12397 0.88596 0.59391 0.0
H1210 H 0.05011 0.83696 0.66969 0.0
H1211 H 0.05198 0.86048 0.59472 0.0
H1212 H 0.92988 0.85375 0.62852 0.0
H1213 H 1.00099 0.88134 0.62214 0.0
H1214 H 0.99092 0.77149 0.64465 0.0
H1215 H 0.92004 0.74274 0.64932 0.0
C1216 C 0.10671 0.86253 0.65262 0.0
C1217 C 0.12808 0.87531 0.63126 0.0
C1218 C 0.06584 0.84759 0.65303 0.0
C1219 C 0.04541 0.84643 0.63225 0.0
C1220 C 0.06698 0.86097 0.61099 0.0
C1221 C 0.10799 0.8751 0.61047 0.0
C1222 C 0.94242 0.83496 0.63152 0.0
C1223 C 0.91861 0.79596 0.63995 0.0
C1224 C 0.98333 0.85097 0.62794 0.0
C1225 C 1.00156 0.82866 0.63307 0.0
C1226 C 0.9778 0.78951 0.6407 0.0
C1227 C 0.93701 0.77323 0.64369 0.0
H1228 H 0.94278 0.10891 0.84949 0.0
H1229 H 0.86789 0.11851 0.90204 0.0
H1230 H 0.90151 0.03668 0.8507 0.0
H1231 H 0.82735 0.04638 0.90385 0.0
H1232 H 0.784 0.91903 0.8352 0.0
H1233 H 0.83093 0.98979 0.83765 0.0
H1234 H 0.82778 0.98216 0.91418 0.0
H1235 H 0.78122 0.91062 0.91159 0.0
C1236 C 0.91799 0.09553 0.86165 0.0
C1237 C 0.90858 0.11941 0.87563 0.0
C1238 C 0.89416 0.05418 0.86225 0.0
C1239 C 0.86079 0.03561 0.87722 0.0
C1240 C 0.85267 0.05954 0.8921 0.0
C1241 C 0.87591 0.10088 0.89106 0.0
C1242 C 0.79332 0.93244 0.85257 0.0
C1243 C 0.77788 0.90946 0.8732 0.0
C1244 C 0.82045 0.97299 0.85398 0.0
C1245 C 0.83317 0.99184 0.8761 0.0
C1246 C 0.81837 0.9687 0.89684 0.0
C1247 C 0.79149 0.92782 0.89539 0.0
H1248 H 0.34103 0.19975 0.31262 0.0
H1249 H 0.43805 0.17715 0.3113 0.0
H1250 H 0.34247 0.20358 0.26903 0.0
H1251 H 0.44121 0.18302 0.26825 0.0
H1252 H 0.39685 0.13057 0.19587 0.0
H1253 H 0.40281 0.14106 0.23813 0.0
H1254 H 0.37203 0.23228 0.23082 0.0
H1255 H 0.36382 0.21995 0.18775 0.0
C1256 C 0.36379 0.19739 0.30305 0.0
C1257 C 0.38971 0.18856 0.31535 0.0
C1258 C 0.36455 0.19937 0.27802 0.0
C1259 C 0.39145 0.19282 0.26482 0.0
C1260 C 0.41927 0.1871 0.27751 0.0
C1261 C 0.418 0.18442 0.30231 0.0
C1262 C 0.39147 0.15312 0.20304 0.0
C1263 C 0.37965 0.17428 0.18816 0.0
C1264 C 0.3954 0.15953 0.22752 0.0
C1265 C 0.38845 0.18796 0.23823 0.0
C1266 C 0.3775 0.20999 0.22334 0.0
C1267 C 0.37323 0.20328 0.19858 0.0
H1268 H 0.89368 0.69785 0.31341 0.0
H1269 H 0.77431 0.60021 0.31523 0.0
H1270 H 0.89364 0.69381 0.26988 0.0
H1271 H 0.77464 0.59441 0.27225 0.0
H1272 H 0.76195 0.63496 0.19935 0.0
H1273 H 0.76876 0.63056 0.24158 0.0
H1274 H 0.89092 0.66266 0.23212 0.0
H1275 H 0.8844 0.66918 0.18911 0.0
C1276 C 0.86813 0.67437 0.30457 0.0
C1277 C 0.83414 0.64909 0.31774 0.0
C1278 C 0.86795 0.6721 0.27955 0.0
C1279 C 0.83382 0.64427 0.26723 0.0
C1280 C 0.80113 0.61702 0.28081 0.0
C1281 C 0.80111 0.61979 0.30559 0.0
C1282 C 0.79037 0.64092 0.20606 0.0
C1283 C 0.82268 0.65269 0.19059 0.0
C1284 C 0.79419 0.6379 0.23052 0.0
C1285 C 0.83035 0.64582 0.24062 0.0
C1286 C 0.86262 0.65652 0.22513 0.0
C1287 C 0.8588 0.65981 0.20039 0.0
H1288 H 0.83665 0.1461 0.18926 0.0
H1289 H 0.85761 0.26504 0.18722 0.0
H1290 H 0.83304 0.14641 0.23278 0.0
H1291 H 0.85174 0.26495 0.23022 0.0
H1292 H 0.90493 0.27827 0.30318 0.0
H1293 H 0.89358 0.27146 0.26096 0.0
H1294 H 0.80486 0.14879 0.27043 0.0
H1295 H 0.81818 0.15533 0.31336 0.0
C1296 C 0.83866 0.17161 0.19807 0.0
C1297 C 0.84702 0.2054 0.18485 0.0
C1298 C 0.83678 0.17195 0.22308 0.0
C1299 C 0.8429 0.20603 0.23533 0.0
C1300 C 0.84803 0.23852 0.22171 0.0
C1301 C 0.85067 0.23841 0.19693 0.0
C1302 C 0.88269 0.24976 0.29646 0.0
C1303 C 0.86266 0.2173 0.31188 0.0
C1304 C 0.87578 0.24592 0.27201 0.0
C1305 C 0.84792 0.2096 0.26192 0.0
C1306 C 0.82676 0.17721 0.2774 0.0
C1307 C 0.834 0.18104 0.3021 0.0
H1308 H 0.19901 0.31568 0.692 0.0
H1309 H 0.19085 0.4213 0.68998 0.0
H1310 H 0.20741 0.32152 0.73493 0.0
H1311 H 0.19632 0.42607 0.73326 0.0
H1312 H 0.21764 0.43428 0.81268 0.0
H1313 H 0.22787 0.43695 0.76956 0.0
H1314 H 0.17024 0.30943 0.76812 0.0
H1315 H 0.16296 0.30773 0.81096 0.0
C1316 C 0.19967 0.34059 0.70083 0.0
C1317 C 0.1949 0.36835 0.68767 0.0
C1318 C 0.20377 0.34366 0.72559 0.0
C1319 C 0.20177 0.37386 0.73808 0.0
C1320 C 0.19863 0.40266 0.7246 0.0
C1321 C 0.19557 0.40008 0.69968 0.0
C1322 C 0.20853 0.40711 0.80306 0.0
C1323 C 0.19032 0.37086 0.81515 0.0
C1324 C 0.2137 0.40844 0.77824 0.0
C1325 C 0.19997 0.37341 0.76488 0.0
C1326 C 0.18236 0.33728 0.77741 0.0
C1327 C 0.17793 0.33613 0.80212 0.0
H1328 H 0.28715 0.90249 0.80434 0.0
H1329 H 0.16539 0.81158 0.81366 0.0
H1330 H 0.28114 0.89246 0.762 0.0
H1331 H 0.15981 0.7996 0.77061 0.0
H1332 H 0.15636 0.83155 0.68957 0.0
H1333 H 0.15636 0.82762 0.73311 0.0
H1334 H 0.27702 0.85198 0.73106 0.0
H1335 H 0.27733 0.85808 0.68808 0.0
C1336 C 0.25908 0.87973 0.7974 0.0
C1337 C 0.22667 0.85811 0.81262 0.0
C1338 C 0.25574 0.87355 0.77288 0.0
C1339 C 0.22004 0.84484 0.76252 0.0
C1340 C 0.18774 0.82219 0.77779 0.0
C1341 C 0.19104 0.8287 0.80255 0.0
C1342 C 0.18236 0.83485 0.6985 0.0
C1343 C 0.21676 0.84489 0.68544 0.0
C1344 C 0.18251 0.83276 0.72351 0.0
C1345 C 0.217 0.84032 0.73591 0.0
C1346 C 0.25023 0.84717 0.72243 0.0
C1347 C 0.25027 0.84999 0.69767 0.0
H1348 H 0.70319 0.87952 0.69126 0.0
H1349 H 0.61018 0.75792 0.69042 0.0
H1350 H 0.69862 0.88038 0.73471 0.0
H1351 H 0.60344 0.75909 0.73328 0.0
H1352 H 0.64194 0.75131 0.80748 0.0
H1353 H 0.63785 0.75599 0.76511 0.0
H1354 H 0.66799 0.87795 0.77188 0.0
H1355 H 0.67472 0.8737 0.81509 0.0
C1356 C 0.68065 0.8535 0.70031 0.0
C1357 C 0.65685 0.81872 0.68747 0.0
C1358 C 0.67802 0.85387 0.72528 0.0
C1359 C 0.65117 0.81955 0.7379 0.0
C1360 C 0.62543 0.78581 0.72457 0.0
C1361 C 0.62873 0.78522 0.69985 0.0
C1362 C 0.64743 0.77922 0.80013 0.0
C1363 C 0.65891 0.8122 0.8149 0.0
C1364 C 0.64459 0.7818 0.77556 0.0
C1365 C 0.65217 0.81729 0.76463 0.0
C1366 C 0.66221 0.85013 0.77946 0.0
C1367 C 0.66553 0.84761 0.80433 0.0
H1368 H 0.24751 0.90813 0.97449 0.0
H1369 H 0.23671 0.99417 0.93241 0.0
H1370 H 0.26733 0.95275 0.00879 0.0
H1371 H 0.25747 0.03916 0.96612 0.0
H1372 H 0.27411 0.10354 0.03874 0.0
H1373 H 0.2463 0.05741 0.00507 0.0
H1374 H 0.32449 1.01243 0.02088 0.0
H1375 H 0.35164 0.05779 0.05392 0.0
C1376 C 0.24842 0.93612 0.97269 0.0
C1377 C 0.2404 0.9474 0.95064 0.0
C1378 C 0.26049 0.96219 0.99226 0.0
C1379 C 0.26483 1.0003 0.99036 0.0
C1380 C 0.25455 1.01038 0.96857 0.0
C1381 C 0.24275 0.98448 0.94909 0.0
C1382 C 0.28577 0.08429 0.03468 0.0
C1383 C 0.315 0.08438 0.04931 0.0
C1384 C 0.26962 0.05748 0.01546 0.0
C1385 C 0.28223 0.03003 0.01039 0.0
C1386 C 0.31274 0.03175 0.02447 0.0
C1387 C 0.32873 0.05831 0.04345 0.0
H1388 H 0.76252 0.74553 0.43069 0.0
H1389 H 0.83224 0.71462 0.47561 0.0
H1390 H 0.74502 0.77127 0.4641 0.0
H1391 H 0.81143 0.73725 0.51017 0.0
H1392 H 0.7884 0.80219 0.56919 0.0
H1393 H 0.81208 0.78296 0.53462 0.0
H1394 H 0.70816 0.76313 0.49581 0.0
H1395 H 0.68659 0.78536 0.5301 0.0
C1396 C 0.77399 0.74362 0.44779 0.0
C1397 C 0.79894 0.72731 0.45001 0.0
C1398 C 0.76319 0.75816 0.46742 0.0
C1399 C 0.77578 0.75625 0.49057 0.0
C1400 C 0.80102 0.74007 0.49289 0.0
C1401 C 0.81277 0.72637 0.47294 0.0
C1402 C 0.77117 0.79461 0.55299 0.0
C1403 C 0.73598 0.79616 0.55232 0.0
C1404 C 0.78444 0.78279 0.53308 0.0
C1405 C 0.76239 0.77084 0.51181 0.0
C1406 C 0.72709 0.77279 0.51125 0.0
C1407 C 0.71439 0.78564 0.53106 0.0
H1408 H 0.04344 0.25242 0.9328 0.0
H1409 H 0.13045 0.34798 0.97517 0.0
H1410 H 0.99897 0.22744 0.96677 0.0
H1411 H 0.08581 0.32377 0.00929 0.0
H1412 H 1.01015 0.25839 0.07245 0.0
H1413 H 0.05471 0.27725 0.03896 0.0
H1414 H 0.95561 0.23649 0.99105 0.0
H1415 H 0.91058 0.21633 0.0251 0.0
C1416 C 0.05327 0.26799 0.94952 0.0
C1417 C 0.0909 0.30202 0.95122 0.0
C1418 C 0.02744 0.25382 0.96907 0.0
C1419 C 0.03806 0.27344 0.99111 0.0
C1420 C 0.0763 0.30712 0.99293 0.0
C1421 C 0.10231 0.3211 0.97331 0.0
C1422 C 0.99755 0.25319 0.05481 0.0
C1423 C 0.95633 0.23584 0.05174 0.0
C1424 C 0.02347 0.26444 0.03539 0.0
C1425 C 1.00946 0.25924 0.01191 0.0
C1426 C 0.968 0.24086 0.00872 0.0
C1427 C 0.94185 0.22917 0.02833 0.0
H1428 H 0.31014 0.12416 0.47113 0.0
H1429 H 0.3124 0.02962 0.433 0.0
H1430 H 0.28292 0.08052 0.50592 0.0
H1431 H 0.28527 0.98681 0.46706 0.0
H1432 H 0.20833 0.90568 0.52705 0.0
H1433 H 0.22704 0.94914 0.49212 0.0
H1434 H 0.30332 0.049 0.53594 0.0
H1435 H 0.28522 1.00626 0.57026 0.0
C1436 C 0.30503 0.09437 0.47005 0.0
C1437 C 0.31413 0.08109 0.44903 0.0
C1438 C 0.28926 0.06914 0.49002 0.0
C1439 C 0.28151 0.02969 0.48945 0.0
C1440 C 0.29 0.01648 0.46829 0.0
C1441 C 0.30608 0.04159 0.44862 0.0
C1442 C 0.22898 0.93681 0.52926 0.0
C1443 C 0.24551 0.95179 0.5517 0.0
C1444 C 0.23985 0.96193 0.50917 0.0
C1445 C 0.26698 1.00295 0.511 0.0
C1446 C 0.28217 0.01793 0.53361 0.0
C1447 C 0.27185 0.99294 0.55344 0.0
H1448 H 0.78023 0.76068 0.07351 0.0
H1449 H 0.81775 0.69803 0.02726 0.0
H1450 H 0.7626 0.78659 0.03965 0.0
H1451 H 0.79923 0.7237 0.9927 0.0
H1452 H 0.78747 0.7984 0.93403 0.0
H1453 H 0.81116 0.77805 0.96818 0.0
H1454 H 0.71466 0.76961 0.01006 0.0
H1455 H 0.6913 0.79037 0.97563 0.0
C1456 C 0.78475 0.75226 0.05603 0.0
C1457 C 0.80026 0.72676 0.0534 0.0
C1458 C 0.77424 0.76708 0.03641 0.0
C1459 C 0.77855 0.75699 0.0131 0.0
C1460 C 0.79548 0.73254 0.01027 0.0
C1461 C 0.80629 0.71774 0.03014 0.0
C1462 C 0.77147 0.79261 0.9506 0.0
C1463 C 0.73754 0.79646 0.95199 0.0
C1464 C 0.78496 0.78051 0.97026 0.0
C1465 C 0.76492 0.77158 0.99216 0.0
C1466 C 0.73151 0.7766 0.99374 0.0
C1467 C 0.71807 0.78887 0.97397 0.0
H1468 H 0.12899 0.36052 0.53083 0.0
H1469 H 0.04818 0.25346 0.56749 0.0
H1470 H 0.085 0.3395 0.4966 0.0
H1471 H 1.00506 0.23065 0.53287 0.0
H1472 H 0.91573 0.21147 0.47353 0.0
H1473 H 0.95823 0.23172 0.50885 0.0
H1474 H 0.05987 0.30247 0.4644 0.0
H1475 H 1.01819 0.28568 0.43063 0.0
C1476 C 0.10244 0.3318 0.53122 0.0
C1477 C 0.09256 0.30848 0.55176 0.0
C1478 C 0.07679 0.31942 0.51149 0.0
C1479 C 0.04073 0.2828 0.5114 0.0
C1480 C 0.0317 0.2592 0.53195 0.0
C1481 C 0.0569 0.27204 0.55181 0.0
C1482 C 0.94706 0.23158 0.47141 0.0
C1483 C 0.96274 0.2466 0.44877 0.0
C1484 C 0.97184 0.24312 0.49175 0.0
C1485 C 1.01323 0.26948 0.49002 0.0
C1486 C 0.02851 0.28338 0.46723 0.0
C1487 C 1.00397 0.2728 0.44733 0.0
H1488 H 0.64569 0.19088 0.08696 0.0
H1489 H 0.59708 0.08858 0.13251 0.0
H1490 H 0.58309 0.19101 0.08905 0.0
H1491 H 0.5346 0.08892 0.13487 0.0
H1492 H 0.43774 0.12981 0.14452 0.0
H1493 H 0.5003 0.12905 0.14804 0.0
H1494 H 0.51555 0.14217 0.07205 0.0
H1495 H 0.45335 0.14177 0.06854 0.0
C1496 C 0.62208 0.16915 0.09799 0.0
C1497 C 0.62657 0.13986 0.10962 0.0
C1498 C 0.58597 0.16888 0.099 0.0
C1499 C 0.55348 0.13966 0.11194 0.0
C1500 C 0.55885 0.11189 0.1248 0.0
C1501 C 0.59473 0.11176 0.12346 0.0
C1502 C 0.45397 0.13141 0.12858 0.0
C1503 C 0.44031 0.13557 0.10621 0.0
C1504 C 0.49003 0.13139 0.13058 0.0
C1505 C 0.51359 0.13655 0.11035 0.0
C1506 C 0.49887 0.13911 0.08806 0.0
C1507 C 0.46287 0.13843 0.08604 0.0
H1508 H 0.70213 0.60493 0.42636 0.0
H1509 H 0.73709 0.58237 0.35831 0.0
H1510 H 0.63854 0.54392 0.42313 0.0
H1511 H 0.67361 0.51986 0.35544 0.0
H1512 H 0.58214 0.38803 0.39022 0.0
H1513 H 0.64188 0.45239 0.38296 0.0
H1514 H 0.57526 0.511 0.39573 0.0
H1515 H 0.51578 0.44739 0.40202 0.0
C1516 C 0.69565 0.58748 0.41032 0.0
C1517 C 0.72423 0.59923 0.39229 0.0
C1518 C 0.6593 0.55224 0.40855 0.0
C1519 C 0.6509 0.52666 0.3891 0.0
C1520 C 0.6791 0.53875 0.37069 0.0
C1521 C 0.71519 0.57488 0.37214 0.0
C1522 C 0.57993 0.41451 0.39076 0.0
C1523 C 0.54397 0.41217 0.3972 0.0
C1524 C 0.61427 0.45149 0.38667 0.0
C1525 C 0.61357 0.48704 0.38909 0.0
C1526 C 0.57712 0.48441 0.39403 0.0
C1527 C 0.54294 0.44773 0.39774 0.0
H1528 H 0.89444 0.30829 0.14444 0.0
H1529 H 0.89832 0.32365 0.06845 0.0
H1530 H 0.89336 0.37027 0.14952 0.0
H1531 H 0.89617 0.38437 0.0734 0.0
H1532 H 0.84459 0.46356 0.08704 0.0
H1533 H 0.84488 0.40101 0.08701 0.0
H1534 H 0.93384 0.44546 0.14183 0.0
H1535 H 0.93371 0.50805 0.14164 0.0
C1536 C 0.89606 0.3253 0.12887 0.0
C1537 C 0.89705 0.3112 0.10602 0.0
C1538 C 0.89497 0.36063 0.13174 0.0
C1539 C 0.89376 0.38202 0.11183 0.0
C1540 C 0.89614 0.3684 0.08913 0.0
C1541 C 0.89788 0.33375 0.08631 0.0
C1542 C 0.86332 0.45954 0.09956 0.0
C1543 C 0.88885 0.49076 0.11446 0.0
C1544 C 0.86395 0.42388 0.09935 0.0
C1545 C 0.88979 0.41821 0.11423 0.0
C1546 C 0.91351 0.44857 0.13019 0.0
C1547 C 0.91333 0.48444 0.13012 0.0
H1548 H 0.44816 0.14123 0.35531 0.0
H1549 H 0.45973 0.13869 0.43137 0.0
H1550 H 0.51131 0.14212 0.35044 0.0
H1551 H 0.52263 0.14082 0.42661 0.0
H1552 H 0.65383 0.19507 0.41259 0.0
H1553 H 0.59067 0.1942 0.41168 0.0
H1554 H 0.54582 0.10026 0.36009 0.0
H1555 H 0.60885 0.10084 0.36128 0.0
C1556 C 0.46359 0.13989 0.37093 0.0
C1557 C 0.44862 0.13947 0.39375 0.0
C1558 C 0.50001 0.14087 0.36818 0.0
C1559 C 0.52261 0.14253 0.38818 0.0
C1560 C 0.50662 0.1405 0.41083 0.0
C1561 C 0.47025 0.13881 0.41354 0.0
C1562 C 0.63094 0.17507 0.40055 0.0
C1563 C 0.63655 0.14824 0.38692 0.0
C1564 C 0.59452 0.17418 0.40021 0.0
C1565 C 0.56289 0.14682 0.38598 0.0
C1566 C 0.56943 0.12175 0.37118 0.0
C1567 C 0.60561 0.12218 0.37183 0.0
H1568 H 0.56842 0.38614 0.08991 0.0
H1569 H 0.5187 0.4343 0.13873 0.0
H1570 H 0.63163 0.4484 0.09115 0.0
H1571 H 0.58195 0.49644 0.14019 0.0
H1572 H 0.71949 0.59301 0.14712 0.0
H1573 H 0.65662 0.53017 0.15135 0.0
H1574 H 0.65023 0.51612 0.0752 0.0
H1575 H 0.71165 0.57864 0.07102 0.0
C1576 C 0.57132 0.40957 0.10145 0.0
C1577 C 0.53849 0.4051 0.11426 0.0
C1578 C 0.60741 0.44549 0.10197 0.0
C1579 C 0.61187 0.47776 0.11558 0.0
C1580 C 0.57975 0.47235 0.12958 0.0
C1581 C 0.54349 0.43667 0.12875 0.0
C1582 C 0.70404 0.57693 0.13132 0.0
C1583 C 0.72045 0.59113 0.10869 0.0
C1584 C 0.66822 0.54073 0.13372 0.0
C1585 C 0.6487 0.51752 0.11361 0.0
C1586 C 0.66473 0.53257 0.0911 0.0
C1587 C 0.69982 0.56873 0.0887 0.0
H1588 H 0.96442 0.52603 0.40849 0.0
H1589 H 0.84104 0.46144 0.3893 0.0
H1590 H 0.96976 0.46757 0.40116 0.0
H1591 H 0.84709 0.40289 0.38098 0.0
H1592 H 0.88981 0.31285 0.35571 0.0
H1593 H 0.89042 0.37624 0.35413 0.0
H1594 H 0.93215 0.40009 0.42644 0.0
H1595 H 0.92982 0.3366 0.42829 0.0
C1596 C 0.93843 0.49953 0.40236 0.0
C1597 C 0.90197 0.49853 0.40007 0.0
C1598 C 0.94167 0.466 0.39802 0.0
C1599 C 0.90884 0.43039 0.39068 0.0
C1600 C 0.87303 0.42993 0.38653 0.0
C1601 C 0.86958 0.46357 0.39125 0.0
C1602 C 0.90023 0.33227 0.37097 0.0
C1603 C 0.91069 0.32013 0.39198 0.0
C1604 C 0.90002 0.36827 0.37019 0.0
C1605 C 0.9112 0.39323 0.39021 0.0
C1606 C 0.92355 0.38179 0.41068 0.0
C1607 C 0.92254 0.34552 0.41169 0.0
H1608 H 0.18902 0.63517 0.58167 0.0
H1609 H 0.10977 0.6015 0.64143 0.0
H1610 H 0.18732 0.57173 0.58401 0.0
H1611 H 0.10872 0.53827 0.64419 0.0
H1612 H 0.15439 0.44285 0.64731 0.0
H1613 H 0.15555 0.50629 0.65061 0.0
H1614 H 0.12799 0.50082 0.57605 0.0
H1615 H 0.12554 0.43745 0.57301 0.0
C1616 C 0.17234 0.61478 0.59581 0.0
C1617 C 0.15003 0.62365 0.61156 0.0
C1618 C 0.17094 0.5782 0.59701 0.0
C1619 C 0.14762 0.54969 0.6142 0.0
C1620 C 0.12709 0.55952 0.63083 0.0
C1621 C 0.12787 0.59582 0.62931 0.0
C1622 C 0.14716 0.45456 0.63189 0.0
C1623 C 0.13907 0.43465 0.60998 0.0
C1624 C 0.14831 0.49113 0.63369 0.0
C1625 C 0.14265 0.50908 0.61345 0.0
C1626 C 0.13317 0.4883 0.59188 0.0
C1627 C 0.13129 0.4517 0.59021 0.0
H1628 H 0.34272 0.91261 0.93088 0.0
H1629 H 0.31951 0.8829 0.8567 0.0
H1630 H 0.40548 0.91339 0.92756 0.0
H1631 H 0.38206 0.88194 0.85359 0.0
H1632 H 0.46552 0.82607 0.88822 0.0
H1633 H 0.40666 0.83239 0.8813 0.0
H1634 H 0.47397 0.95601 0.89864 0.0
H1635 H 0.53271 0.95036 0.90454 0.0
C1636 C 0.35149 0.90706 0.91371 0.0
C1637 C 0.32651 0.89858 0.89397 0.0
C1638 C 0.38731 0.9072 0.91185 0.0
C1639 C 0.39864 0.89737 0.89038 0.0
C1640 C 0.37408 0.88948 0.8704 0.0
C1641 C 0.33856 0.89055 0.8721 0.0
C1642 C 0.46814 0.85486 0.88972 0.0
C1643 C 0.50396 0.88751 0.89734 0.0
C1644 C 0.43434 0.85846 0.88585 0.0
C1645 C 0.43557 0.89468 0.88965 0.0
C1646 C 0.47193 0.92769 0.89571 0.0
C1647 C 0.5056 0.92429 0.89918 0.0
H1648 H 0.59405 0.72477 0.64383 0.0
H1649 H 0.60632 0.69981 0.57078 0.0
H1650 H 0.53132 0.66141 0.64653 0.0
H1651 H 0.54503 0.63627 0.57374 0.0
H1652 H 0.45365 0.50983 0.59615 0.0
H1653 H 0.5176 0.56897 0.6024 0.0
H1654 H 0.45962 0.63522 0.61819 0.0
H1655 H 0.39494 0.57604 0.61084 0.0
C1656 C 0.58411 0.70515 0.62866 0.0
C1657 C 0.60551 0.71689 0.6072 0.0
C1658 C 0.54799 0.66918 0.63011 0.0
C1659 C 0.53314 0.64393 0.61029 0.0
C1660 C 0.55568 0.65496 0.58931 0.0
C1661 C 0.59092 0.69122 0.58766 0.0
C1662 C 0.45421 0.53683 0.60109 0.0
C1663 C 0.4188 0.5381 0.60239 0.0
C1664 C 0.49102 0.5707 0.60483 0.0
C1665 C 0.49374 0.60683 0.61062 0.0
C1666 C 0.45844 0.6077 0.61384 0.0
C1667 C 0.42134 0.57373 0.60969 0.0
H1668 H 0.1086 0.5991 0.86097 0.0
H1669 H 0.20341 0.64392 0.91196 0.0
H1670 H 0.10744 0.53586 0.85996 0.0
H1671 H 0.20206 0.58059 0.9112 0.0
H1672 H 0.14615 0.45017 0.93167 0.0
H1673 H 0.14945 0.51349 0.92658 0.0
H1674 H 0.14707 0.49973 0.85048 0.0
H1675 H 0.14483 0.43599 0.85567 0.0
C1676 C 0.13 0.5958 0.87145 0.0
C1677 C 0.15636 0.62677 0.88642 0.0
C1678 C 0.12923 0.55948 0.87092 0.0
C1679 C 0.15427 0.5528 0.88571 0.0
C1680 C 0.18201 0.58449 0.89975 0.0
C1681 C 0.18321 0.62103 0.89999 0.0
C1682 C 0.14581 0.46029 0.91379 0.0
C1683 C 0.14508 0.43779 0.89411 0.0
C1684 C 0.14816 0.49691 0.91088 0.0
C1685 C 0.14949 0.51234 0.88814 0.0
C1686 C 0.14644 0.48891 0.86828 0.0
C1687 C 0.14474 0.45219 0.87122 0.0
H1688 H 0.31911 0.89112 0.64384 0.0
H1689 H 0.33102 0.89113 0.56769 0.0
H1690 H 0.38153 0.89058 0.64837 0.0
H1691 H 0.39207 0.88937 0.57213 0.0
H1692 H 0.4715 0.83807 0.58626 0.0
H1693 H 0.40875 0.83804 0.58705 0.0
H1694 H 0.45699 0.93213 0.63859 0.0
H1695 H 0.51983 0.93239 0.63753 0.0
C1696 C 0.33543 0.89195 0.62811 0.0
C1697 C 0.3203 0.89176 0.60537 0.0
C1698 C 0.37098 0.89118 0.63068 0.0
C1699 C 0.39148 0.88905 0.61059 0.0
C1700 C 0.37678 0.89013 0.58799 0.0
C1701 C 0.34194 0.89161 0.58545 0.0
C1702 C 0.46833 0.85793 0.59825 0.0
C1703 C 0.50063 0.88502 0.61192 0.0
C1704 C 0.43253 0.85831 0.59851 0.0
C1705 C 0.42787 0.88544 0.6127 0.0
C1706 C 0.45939 0.9108 0.62752 0.0
C1707 C 0.49538 0.91086 0.62694 0.0
H1708 H 0.59384 0.72176 0.85798 0.0
H1709 H 0.6064 0.69279 0.93011 0.0
H1710 H 0.53068 0.65889 0.85478 0.0
H1711 H 0.54482 0.62975 0.92662 0.0
H1712 H 0.45191 0.50513 0.90454 0.0
H1713 H 0.51618 0.564 0.89846 0.0
H1714 H 0.45923 0.63101 0.88194 0.0
H1715 H 0.39418 0.57197 0.88901 0.0
C1716 C 0.58393 0.70135 0.8728 0.0
C1717 C 0.6056 0.71185 0.89416 0.0
C1718 C 0.54751 0.66563 0.87108 0.0
C1719 C 0.53261 0.63933 0.89048 0.0
C1720 C 0.55543 0.64917 0.91132 0.0
C1721 C 0.59091 0.68517 0.91327 0.0
C1722 C 0.45278 0.53222 0.89937 0.0
C1723 C 0.41752 0.53371 0.89778 0.0
C1724 C 0.4898 0.56598 0.89579 0.0
C1725 C 0.49296 0.60231 0.88992 0.0
C1726 C 0.45779 0.60339 0.88636 0.0
C1727 C 0.42047 0.56949 0.89033 0.0
loop_
_geom_bond_atom_site_label_1
_geom_bond_atom_site_label_2
_geom_bond_distance
_geom_bond_site_symmetry_2
_ccdc_geom_bond_type
Eu0 N31 2.657 . S
Eu0 N38 2.609 . S
Eu0 O44 2.558 . S
Eu0 O45 2.612 . S
Eu0 O47 2.339 . S
Eu0 O48 2.563 . S
Eu0 O49 2.419 . S
Eu0 O51 2.380 . S
Eu0 O52 2.432 . S
Eu0 C64 2.848 . S
C1 C4 1.429 . S
C1 C5 1.411 . S
C1 N8 1.377 . S
C2 C4 1.420 . S
C2 C6 1.423 . S
C2 C14 1.392 . S
C3 C5 1.420 . S
C3 C6 1.351 . S
C3 H26 0.931 1_545 S
C4 C1 1.429 . S
C4 C2 1.420 . S
C4 N12 1.362 . S
C5 C1 1.411 . S
C5 C3 1.420 . S
C5 C10 1.395 . S
C6 C2 1.423 . S
C6 C3 1.351 . S
C6 H18 0.930 1_545 S
C7 C9 1.400 . S
C7 C10 1.386 . S
C7 H19 0.930 . S
N8 C1 1.377 . S
N8 C9 1.321 . S
N8 Eu11 2.609 . S
C9 C7 1.400 . S
C9 N8 1.321 . S
C9 H16 0.930 . S
C10 C5 1.395 . S
C10 C7 1.386 . S
C10 H29 0.930 . S
Eu11 N8 2.609 . S
Eu11 N12 2.657 . S
Eu11 O45 2.380 . S
Eu11 O46 2.432 . S
Eu11 O50 2.558 . S
Eu11 O51 2.612 . S
Eu11 O53 2.339 . S
Eu11 O54 2.563 . S
Eu11 O55 2.419 . S
Eu11 C75 2.848 . S
N12 C4 1.362 . S
N12 Eu11 2.657 . S
N12 C13 1.334 . S
C13 N12 1.334 . S
C13 C15 1.413 . S
C13 H20 0.929 . S
C14 C2 1.392 . S
C14 C15 1.367 . S
C14 H22 0.930 . S
C15 C13 1.413 . S
C15 C14 1.367 . S
C15 H17 0.930 . S
H16 C9 0.930 . S
H17 C15 0.930 . S
H18 C6 0.930 1_565 S
H19 C7 0.930 . S
H20 C13 0.929 . S
H21 C35 0.930 . S
H22 C14 0.930 . S
H23 C41 0.930 . S
H24 C32 0.929 . S
H25 C39 0.930 . S
H26 C3 0.931 1_565 S
H27 C33 0.930 . S
H28 C66 0.930 . S
H29 C10 0.930 . S
H30 C65 0.931 . S
N31 Eu0 2.657 . S
N31 C32 1.334 . S
N31 C36 1.362 . S
C32 H24 0.929 . S
C32 N31 1.334 . S
C32 C35 1.413 . S
C33 H27 0.930 . S
C33 C34 1.392 . S
C33 C35 1.367 . S
C34 C33 1.392 . S
C34 C36 1.420 . S
C34 C66 1.423 . S
C35 H21 0.930 . S
C35 C32 1.413 . S
C35 C33 1.367 . S
C36 N31 1.362 . S
C36 C34 1.420 . S
C36 C40 1.429 . S
H37 C42 0.930 . S
N38 Eu0 2.609 . S
N38 C40 1.377 . S
N38 C41 1.321 . S
C39 H25 0.930 . S
C39 C41 1.400 . S
C39 C42 1.386 . S
C40 C36 1.429 . S
C40 N38 1.377 . S
C40 C43 1.411 . S
C41 H23 0.930 . S
C41 N38 1.321 . S
C41 C39 1.400 . S
C42 H37 0.930 . S
C42 C39 1.386 . S
C42 C43 1.395 . S
C43 C40 1.411 . S
C43 C42 1.395 . S
C43 C65 1.420 . S
O44 Eu0 2.558 . S
O44 C64 1.257 . S
O45 Eu0 2.612 . S
O45 Eu11 2.380 . S
O45 C56 1.276 . S
O46 Eu11 2.432 . S
O46 C63 1.264 . S
O47 Eu0 2.339 . S
O47 C63 1.254 . S
O48 Eu0 2.563 . S
O48 C56 1.235 . S
O49 Eu0 2.419 . S
O49 C64 1.249 . S
O50 Eu11 2.558 . S
O50 C75 1.257 . S
O51 Eu0 2.380 . S
O51 Eu11 2.612 . S
O51 C67 1.276 . S
O52 Eu0 2.432 . S
O52 C74 1.264 . S
O53 Eu11 2.339 . S
O53 C74 1.254 . S
O54 Eu11 2.563 . S
O54 C67 1.235 . S
O55 Eu11 2.419 . S
O55 C75 1.249 . S
C56 O45 1.276 . S
C56 O48 1.235 . S
C57 C59 1.393 . S
C57 C61 1.395 . S
C57 C64 1.492 . S
C58 C59 1.392 . S
C58 C60 1.386 . S
C59 C57 1.393 . S
C59 C58 1.392 . S
C59 H76 0.930 . S
C60 C58 1.386 . S
C60 C62 1.395 . S
C60 H77 0.930 . S
C61 C57 1.395 . S
C61 C62 1.379 . S
C61 H78 0.930 . S
C62 C60 1.395 . S
C62 C61 1.379 . S
C62 H79 0.930 . S
C63 O46 1.264 . S
C63 O47 1.254 . S
C64 Eu0 2.848 . S
C64 O44 1.257 . S
C64 O49 1.249 . S
C64 C57 1.492 . S
C65 H30 0.931 . S
C65 C43 1.420 . S
C65 C66 1.351 . S
C66 H28 0.930 . S
C66 C34 1.423 . S
C66 C65 1.351 . S
C67 O51 1.276 . S
C67 O54 1.235 . S
C68 C69 1.393 . S
C68 C72 1.395 . S
C68 C75 1.492 1_565 S
C69 C68 1.393 . S
C69 C70 1.392 . S
C69 H80 0.930 . S
C70 C69 1.392 . S
C70 C71 1.386 . S
C71 C70 1.386 . S
C71 C73 1.395 . S
C71 H81 0.930 . S
C72 C68 1.395 . S
C72 C73 1.379 . S
C72 H82 0.930 . S
C73 C71 1.395 . S
C73 C72 1.379 . S
C73 H83 0.930 . S
C74 O52 1.264 . S
C74 O53 1.254 . S
C75 Eu11 2.848 . S
C75 O50 1.257 . S
C75 O55 1.249 . S
C75 C68 1.492 1_545 S
H76 C59 0.930 . S
H77 C60 0.930 . S
H78 C61 0.930 . S
H79 C62 0.930 . S
H80 C69 0.930 . S
H81 C71 0.930 . S
H82 C72 0.930 . S
H83 C73 0.930 . S
Eu84 N115 2.657 . S
Eu84 N122 2.609 . S
Eu84 O128 2.558 . S
Eu84 O129 2.612 . S
Eu84 O131 2.339 . S
Eu84 O132 2.563 . S
Eu84 O133 2.419 . S
Eu84 O135 2.380 . S
Eu84 O136 2.432 . S
Eu84 C148 2.848 . S
C85 C88 1.429 . S
C85 C89 1.411 . S
C85 N92 1.377 . S
C86 C88 1.420 . S
C86 C90 1.423 1_655 S
C86 C98 1.392 . S
C87 C89 1.414 1_455 S
C87 C90 1.352 . S
C87 H110 0.935 . S
C88 C85 1.429 . S
C88 C86 1.420 . S
C88 N96 1.362 . S
C89 C85 1.411 . S
C89 C87 1.414 1_655 S
C89 C94 1.395 . S
C90 C86 1.423 1_455 S
C90 C87 1.352 . S
C90 H102 0.930 . S
C91 C93 1.400 . S
C91 C94 1.386 . S
C91 H103 0.930 . S
N92 C85 1.377 . S
N92 C93 1.321 . S
N92 Eu95 2.609 . S
C93 C91 1.400 . S
C93 N92 1.321 . S
C93 H100 0.930 . S
C94 C89 1.395 . S
C94 C91 1.386 . S
C94 H113 0.930 . S
Eu95 N92 2.609 . S
Eu95 N96 2.657 . S
Eu95 O129 2.380 . S
Eu95 O130 2.432 . S
Eu95 O134 2.558 . S
Eu95 O135 2.612 . S
Eu95 O137 2.339 . S
Eu95 O138 2.563 . S
Eu95 O139 2.419 . S
Eu95 C159 2.848 . S
N96 C88 1.362 . S
N96 Eu95 2.657 . S
N96 C97 1.334 . S
C97 N96 1.334 . S
C97 C99 1.413 . S
C97 H104 0.929 . S
C98 C86 1.392 . S
C98 C99 1.367 . S
C98 H106 0.930 1_655 S
C99 C97 1.413 . S
C99 C98 1.367 . S
C99 H101 0.930 . S
H100 C93 0.930 . S
H101 C99 0.930 . S
H102 C90 0.930 . S
H103 C91 0.930 . S
H104 C97 0.929 . S
H105 C119 0.930 . S
H106 C98 0.930 1_455 S
H107 C125 0.930 . S
H108 C116 0.929 . S
H109 C123 0.930 . S
H110 C87 0.935 . S
H111 C117 0.930 . S
H112 C150 0.930 . S
H113 C94 0.930 . S
H114 C149 0.931 . S
N115 Eu84 2.657 . S
N115 C116 1.334 . S
N115 C120 1.362 . S
C116 H108 0.929 . S
C116 N115 1.334 . S
C116 C119 1.413 . S
C117 H111 0.930 . S
C117 C118 1.392 . S
C117 C119 1.367 . S
C118 C117 1.392 . S
C118 C120 1.420 . S
C118 C150 1.423 . S
C119 H105 0.930 . S
C119 C116 1.413 . S
C119 C117 1.367 . S
C120 N115 1.362 . S
C120 C118 1.420 . S
C120 C124 1.429 . S
H121 C126 0.930 . S
N122 Eu84 2.609 . S
N122 C124 1.377 . S
N122 C125 1.321 . S
C123 H109 0.930 . S
C123 C125 1.400 . S
C123 C126 1.386 . S
C124 C120 1.429 . S
C124 N122 1.377 . S
C124 C127 1.411 . S
C125 H107 0.930 . S
C125 N122 1.321 . S
C125 C123 1.400 . S
C126 H121 0.930 . S
C126 C123 1.386 . S
C126 C127 1.395 . S
C127 C124 1.411 . S
C127 C126 1.395 . S
C127 C149 1.420 . S
O128 Eu84 2.558 . S
O128 C148 1.257 . S
O129 Eu84 2.612 . S
O129 Eu95 2.380 . S
O129 C140 1.276 . S
O130 Eu95 2.432 . S
O130 C147 1.264 . S
O131 Eu84 2.339 . S
O131 C147 1.254 . S
O132 Eu84 2.563 . S
O132 C140 1.235 . S
O133 Eu84 2.419 . S
O133 C148 1.249 . S
O134 Eu95 2.558 . S
O134 C159 1.257 . S
O135 Eu84 2.380 . S
O135 Eu95 2.612 . S
O135 C151 1.276 . S
O136 Eu84 2.432 . S
O136 C158 1.264 . S
O137 Eu95 2.339 . S
O137 C158 1.254 . S
O138 Eu95 2.563 . S
O138 C151 1.235 . S
O139 Eu95 2.419 . S
O139 C159 1.249 . S
C140 O129 1.276 . S
C140 O132 1.235 . S
C141 C143 1.393 . S
C141 C145 1.395 . S
C141 C148 1.492 . S
C142 C143 1.392 . S
C142 C144 1.386 . S
C143 C141 1.393 . S
C143 C142 1.392 . S
C143 H160 0.930 . S
C144 C142 1.386 . S
C144 C146 1.395 . S
C144 H161 0.930 . S
C145 C141 1.395 . S
C145 C146 1.379 . S
C145 H162 0.930 . S
C146 C144 1.395 . S
C146 C145 1.379 . S
C146 H163 0.930 . S
C147 O130 1.264 . S
C147 O131 1.254 . S
C148 Eu84 2.848 . S
C148 O128 1.257 . S
C148 O133 1.249 . S
C148 C141 1.492 . S
C149 H114 0.931 . S
C149 C127 1.420 . S
C149 C150 1.351 . S
C150 H112 0.930 . S
C150 C118 1.423 . S
C150 C149 1.351 . S
C151 O135 1.276 . S
C151 O138 1.235 . S
C152 C153 1.393 . S
C152 C156 1.395 . S
C152 C159 1.492 . S
C153 C152 1.393 . S
C153 C154 1.392 . S
C153 H164 0.930 . S
C154 C153 1.392 . S
C154 C155 1.386 . S
C155 C154 1.386 . S
C155 C157 1.395 . S
C155 H165 0.930 . S
C156 C152 1.395 . S
C156 C157 1.379 . S
C156 H166 0.930 . S
C157 C155 1.395 . S
C157 C156 1.379 . S
C157 H167 0.930 . S
C158 O136 1.264 . S
C158 O137 1.254 . S
C159 Eu95 2.848 . S
C159 O134 1.257 . S
C159 O139 1.249 . S
C159 C152 1.492 . S
H160 C143 0.930 . S
H161 C144 0.930 . S
H162 C145 0.930 . S
H163 C146 0.930 . S
H164 C153 0.930 . S
H165 C155 0.930 . S
H166 C156 0.930 . S
H167 C157 0.930 . S
Eu168 N199 2.657 . S
Eu168 N206 2.609 . S
Eu168 O212 2.558 . S
Eu168 O213 2.612 . S
Eu168 O215 2.339 . S
Eu168 O216 2.563 . S
Eu168 O217 2.419 . S
Eu168 O219 2.380 . S
Eu168 O220 2.432 . S
Eu168 C232 2.848 . S
C169 C172 1.429 . S
C169 C173 1.411 . S
C169 N176 1.377 . S
C170 C172 1.420 . S
C170 C174 1.423 . S
C170 C182 1.392 . S
C171 C173 1.420 . S
C171 C174 1.351 . S
C171 H194 0.931 1_655 S
C172 C169 1.429 . S
C172 C170 1.420 . S
C172 N180 1.362 . S
C173 C169 1.411 . S
C173 C171 1.420 . S
C173 C178 1.395 . S
C174 C170 1.423 . S
C174 C171 1.351 . S
C174 H186 0.930 1_655 S
C175 C177 1.400 . S
C175 C178 1.386 . S
C175 H187 0.930 . S
N176 C169 1.377 . S
N176 C177 1.321 . S
N176 Eu179 2.609 . S
C177 C175 1.400 . S
C177 N176 1.321 . S
C177 H184 0.930 . S
C178 C173 1.395 . S
C178 C175 1.386 . S
C178 H197 0.930 . S
Eu179 N176 2.609 . S
Eu179 N180 2.657 . S
Eu179 O213 2.380 . S
Eu179 O214 2.432 . S
Eu179 O218 2.558 . S
Eu179 O219 2.612 . S
Eu179 O221 2.339 . S
Eu179 O222 2.563 . S
Eu179 O223 2.419 . S
Eu179 C243 2.848 . S
N180 C172 1.362 . S
N180 Eu179 2.657 . S
N180 C181 1.334 . S
C181 N180 1.334 . S
C181 C183 1.413 . S
C181 H188 0.929 . S
C182 C170 1.392 . S
C182 C183 1.367 . S
C182 H190 0.930 . S
C183 C181 1.413 . S
C183 C182 1.367 . S
C183 H185 0.930 . S
H184 C177 0.930 . S
H185 C183 0.930 . S
H186 C174 0.930 1_455 S
H187 C175 0.930 . S
H188 C181 0.929 . S
H189 C203 0.930 . S
H190 C182 0.930 . S
H191 C209 0.930 . S
H192 C200 0.929 . S
H193 C207 0.930 . S
H194 C171 0.931 1_455 S
H195 C201 0.930 1_565 S
H196 C234 0.930 . S
H197 C178 0.930 . S
H198 C233 0.935 . S
N199 Eu168 2.657 . S
N199 C200 1.334 . S
N199 C204 1.362 . S
C200 H192 0.929 . S
C200 N199 1.334 . S
C200 C203 1.413 . S
C201 H195 0.930 1_545 S
C201 C202 1.392 . S
C201 C203 1.367 . S
C202 C201 1.392 . S
C202 C204 1.420 . S
C202 C234 1.423 1_545 S
C203 H189 0.930 . S
C203 C200 1.413 . S
C203 C201 1.367 . S
C204 N199 1.362 . S
C204 C202 1.420 . S
C204 C208 1.429 . S
H205 C210 0.930 . S
N206 Eu168 2.609 . S
N206 C208 1.377 . S
N206 C209 1.321 . S
C207 H193 0.930 . S
C207 C209 1.400 . S
C207 C210 1.386 . S
C208 C204 1.429 . S
C208 N206 1.377 . S
C208 C211 1.411 . S
C209 H191 0.930 . S
C209 N206 1.321 . S
C209 C207 1.400 . S
C210 H205 0.930 . S
C210 C207 1.386 . S
C210 C211 1.395 . S
C211 C208 1.411 . S
C211 C210 1.395 . S
C211 C233 1.414 1_545 S
O212 Eu168 2.558 . S
O212 C232 1.257 . S
O213 Eu168 2.612 . S
O213 Eu179 2.380 . S
O213 C224 1.276 . S
O214 Eu179 2.432 . S
O214 C231 1.264 . S
O215 Eu168 2.339 . S
O215 C231 1.254 . S
O216 Eu168 2.563 . S
O216 C224 1.235 . S
O217 Eu168 2.419 . S
O217 C232 1.249 . S
O218 Eu179 2.558 . S
O218 C243 1.257 . S
O219 Eu168 2.380 . S
O219 Eu179 2.612 . S
O219 C235 1.276 . S
O220 Eu168 2.432 . S
O220 C242 1.264 . S
O221 Eu179 2.339 . S
O221 C242 1.254 . S
O222 Eu179 2.563 . S
O222 C235 1.235 . S
O223 Eu179 2.419 . S
O223 C243 1.249 . S
C224 O213 1.276 . S
C224 O216 1.235 . S
C225 C227 1.393 . S
C225 C229 1.395 . S
C225 C232 1.492 . S
C226 C227 1.392 . S
C226 C228 1.386 . S
C227 C225 1.393 . S
C227 C226 1.392 . S
C227 H244 0.930 . S
C228 C226 1.386 . S
C228 C230 1.395 . S
C228 H245 0.930 . S
C229 C225 1.395 . S
C229 C230 1.379 . S
C229 H246 0.930 . S
C230 C228 1.395 . S
C230 C229 1.379 . S
C230 H247 0.930 . S
C231 O214 1.264 . S
C231 O215 1.254 . S
C232 Eu168 2.848 . S
C232 O212 1.257 . S
C232 O217 1.249 . S
C232 C225 1.492 . S
C233 H198 0.935 . S
C233 C211 1.414 1_565 S
C233 C234 1.353 . S
C234 H196 0.930 . S
C234 C202 1.423 1_565 S
C234 C233 1.353 . S
C235 O219 1.276 . S
C235 O222 1.235 . S
C236 C237 1.393 . S
C236 C240 1.395 . S
C236 C243 1.492 1_455 S
C237 C236 1.393 . S
C237 C238 1.392 . S
C237 H248 0.930 . S
C238 C237 1.392 . S
C238 C239 1.386 . S
C239 C238 1.386 . S
C239 C241 1.395 . S
C239 H249 0.930 . S
C240 C236 1.395 . S
C240 C241 1.379 . S
C240 H250 0.930 . S
C241 C239 1.395 . S
C241 C240 1.379 . S
C241 H251 0.930 . S
C242 O220 1.264 . S
C242 O221 1.254 . S
C243 Eu179 2.848 . S
C243 O218 1.257 . S
C243 O223 1.249 . S
C243 C236 1.492 1_655 S
H244 C227 0.930 . S
H245 C228 0.930 . S
H246 C229 0.930 . S
H247 C230 0.930 . S
H248 C237 0.930 . S
H249 C239 0.930 . S
H250 C240 0.930 . S
H251 C241 0.930 . S
Eu252 N283 2.657 . S
Eu252 N290 2.609 . S
Eu252 O296 2.558 . S
Eu252 O297 2.612 . S
Eu252 O299 2.339 . S
Eu252 O300 2.563 . S
Eu252 O301 2.419 . S
Eu252 O303 2.380 . S
Eu252 O304 2.432 . S
Eu252 C316 2.848 . S
C253 C256 1.429 . S
C253 C257 1.411 . S
C253 N260 1.377 . S
C254 C256 1.420 . S
C254 C258 1.423 . S
C254 C266 1.392 . S
C255 C257 1.420 . S
C255 C258 1.351 . S
C255 H278 0.931 . S
C256 C253 1.429 . S
C256 C254 1.420 . S
C256 N264 1.362 . S
C257 C253 1.411 . S
C257 C255 1.420 . S
C257 C262 1.395 . S
C258 C254 1.423 . S
C258 C255 1.351 . S
C258 H270 0.930 . S
C259 C261 1.400 . S
C259 C262 1.386 . S
C259 H271 0.930 . S
N260 C253 1.377 . S
N260 C261 1.321 . S
N260 Eu263 2.609 . S
C261 C259 1.400 . S
C261 N260 1.321 . S
C261 H268 0.930 . S
C262 C257 1.395 . S
C262 C259 1.386 . S
C262 H281 0.930 . S
Eu263 N260 2.609 . S
Eu263 N264 2.657 . S
Eu263 O297 2.380 . S
Eu263 O298 2.432 . S
Eu263 O302 2.558 . S
Eu263 O303 2.612 . S
Eu263 O305 2.339 . S
Eu263 O306 2.563 . S
Eu263 O307 2.419 . S
Eu263 C327 2.848 . S
N264 C256 1.362 . S
N264 Eu263 2.657 . S
N264 C265 1.334 . S
C265 N264 1.334 . S
C265 C267 1.413 . S
C265 H272 0.929 . S
C266 C254 1.392 . S
C266 C267 1.367 . S
C266 H274 0.930 . S
C267 C265 1.413 . S
C267 C266 1.367 . S
C267 H269 0.930 . S
H268 C261 0.930 . S
H269 C267 0.930 . S
H270 C258 0.930 . S
H271 C259 0.930 . S
H272 C265 0.929 . S
H273 C287 0.930 . S
H274 C266 0.930 . S
H275 C293 0.930 . S
H276 C284 0.929 . S
H277 C291 0.930 . S
H278 C255 0.931 . S
H279 C285 0.930 . S
H280 C318 0.930 1_565 S
H281 C262 0.930 . S
H282 C317 0.931 1_565 S
N283 Eu252 2.657 . S
N283 C284 1.334 . S
N283 C288 1.362 . S
C284 H276 0.929 . S
C284 N283 1.334 . S
C284 C287 1.413 . S
C285 H279 0.930 . S
C285 C286 1.392 . S
C285 C287 1.367 . S
C286 C285 1.392 . S
C286 C288 1.420 . S
C286 C318 1.423 . S
C287 H273 0.930 . S
C287 C284 1.413 . S
C287 C285 1.367 . S
C288 N283 1.362 . S
C288 C286 1.420 . S
C288 C292 1.429 . S
H289 C294 0.930 . S
N290 Eu252 2.609 . S
N290 C292 1.377 . S
N290 C293 1.321 . S
C291 H277 0.930 . S
C291 C293 1.400 . S
C291 C294 1.386 . S
C292 C288 1.429 . S
C292 N290 1.377 . S
C292 C295 1.411 . S
C293 H275 0.930 . S
C293 N290 1.321 . S
C293 C291 1.400 . S
C294 H289 0.930 . S
C294 C291 1.386 . S
C294 C295 1.395 . S
C295 C292 1.411 . S
C295 C294 1.395 . S
C295 C317 1.420 . S
O296 Eu252 2.558 . S
O296 C316 1.257 . S
O297 Eu252 2.612 . S
O297 Eu263 2.380 . S
O297 C308 1.276 . S
O298 Eu263 2.432 . S
O298 C315 1.264 . S
O299 Eu252 2.339 . S
O299 C315 1.254 . S
O300 Eu252 2.563 . S
O300 C308 1.235 . S
O301 Eu252 2.419 . S
O301 C316 1.249 . S
O302 Eu263 2.558 . S
O302 C327 1.257 . S
O303 Eu252 2.380 . S
O303 Eu263 2.612 . S
O303 C319 1.276 . S
O304 Eu252 2.432 . S
O304 C326 1.264 . S
O305 Eu263 2.339 . S
O305 C326 1.254 . S
O306 Eu263 2.563 . S
O306 C319 1.235 . S
O307 Eu263 2.419 . S
O307 C327 1.249 . S
C308 O297 1.276 . S
C308 O300 1.235 . S
C309 C311 1.393 . S
C309 C313 1.395 . S
C309 C316 1.492 1_565 S
C310 C311 1.392 . S
C310 C312 1.386 . S
C311 C309 1.393 . S
C311 C310 1.392 . S
C311 H328 0.930 . S
C312 C310 1.386 . S
C312 C314 1.395 . S
C312 H329 0.930 . S
C313 C309 1.395 . S
C313 C314 1.379 . S
C313 H330 0.930 . S
C314 C312 1.395 . S
C314 C313 1.379 . S
C314 H331 0.930 . S
C315 O298 1.264 . S
C315 O299 1.254 . S
C316 Eu252 2.848 . S
C316 O296 1.257 . S
C316 O301 1.249 . S
C316 C309 1.492 1_545 S
C317 H282 0.931 1_545 S
C317 C295 1.420 . S
C317 C318 1.351 . S
C318 H280 0.930 1_545 S
C318 C286 1.423 . S
C318 C317 1.351 . S
C319 O303 1.276 . S
C319 O306 1.235 . S
C320 C321 1.393 . S
C320 C324 1.395 . S
C320 C327 1.492 . S
C321 C320 1.393 . S
C321 C322 1.392 . S
C321 H332 0.930 . S
C322 C321 1.392 . S
C322 C323 1.386 . S
C323 C322 1.386 . S
C323 C325 1.395 . S
C323 H333 0.930 . S
C324 C320 1.395 . S
C324 C325 1.379 . S
C324 H334 0.930 . S
C325 C323 1.395 . S
C325 C324 1.379 . S
C325 H335 0.930 . S
C326 O304 1.264 . S
C326 O305 1.254 . S
C327 Eu263 2.848 . S
C327 O302 1.257 . S
C327 O307 1.249 . S
C327 C320 1.492 . S
H328 C311 0.930 . S
H329 C312 0.930 . S
H330 C313 0.930 . S
H331 C314 0.930 . S
H332 C321 0.930 . S
H333 C323 0.930 . S
H334 C324 0.930 . S
H335 C325 0.930 . S
Eu336 N367 2.657 . S
Eu336 N374 2.609 . S
Eu336 O380 2.558 . S
Eu336 O381 2.612 . S
Eu336 O383 2.339 . S
Eu336 O384 2.563 . S
Eu336 O385 2.419 . S
Eu336 O387 2.380 . S
Eu336 O388 2.432 . S
Eu336 C400 2.848 . S
C337 C340 1.429 . S
C337 C341 1.411 . S
C337 N344 1.377 . S
C338 C340 1.420 . S
C338 C342 1.423 . S
C338 C350 1.392 . S
C339 C341 1.420 . S
C339 C342 1.351 . S
C339 H362 0.931 . S
C340 C337 1.429 . S
C340 C338 1.420 . S
C340 N348 1.362 . S
C341 C337 1.411 . S
C341 C339 1.420 . S
C341 C346 1.395 . S
C342 C338 1.423 . S
C342 C339 1.351 . S
C342 H354 0.930 . S
C343 C345 1.400 . S
C343 C346 1.386 . S
C343 H355 0.930 . S
N344 C337 1.377 . S
N344 C345 1.321 . S
N344 Eu347 2.609 . S
C345 C343 1.400 . S
C345 N344 1.321 . S
C345 H352 0.930 . S
C346 C341 1.395 . S
C346 C343 1.386 . S
C346 H365 0.930 . S
Eu347 N344 2.609 . S
Eu347 N348 2.657 . S
Eu347 O381 2.380 . S
Eu347 O382 2.432 . S
Eu347 O386 2.558 . S
Eu347 O387 2.612 . S
Eu347 O389 2.339 . S
Eu347 O390 2.563 . S
Eu347 O391 2.419 . S
Eu347 C411 2.848 . S
N348 C340 1.362 . S
N348 Eu347 2.657 . S
N348 C349 1.334 . S
C349 N348 1.334 . S
C349 C351 1.413 . S
C349 H356 0.929 . S
C350 C338 1.392 . S
C350 C351 1.367 . S
C350 H358 0.930 . S
C351 C349 1.413 . S
C351 C350 1.367 . S
C351 H353 0.930 . S
H352 C345 0.930 . S
H353 C351 0.930 . S
H354 C342 0.930 . S
H355 C343 0.930 . S
H356 C349 0.929 . S
H357 C371 0.930 . S
H358 C350 0.930 . S
H359 C377 0.930 . S
H360 C368 0.929 . S
H361 C375 0.930 . S
H362 C339 0.931 . S
H363 C369 0.930 1_455 S
H364 C402 0.930 . S
H365 C346 0.930 . S
H366 C401 0.935 . S
N367 Eu336 2.657 . S
N367 C368 1.334 . S
N367 C372 1.362 . S
C368 H360 0.929 . S
C368 N367 1.334 . S
C368 C371 1.413 . S
C369 H363 0.930 1_655 S
C369 C370 1.392 . S
C369 C371 1.367 . S
C370 C369 1.392 . S
C370 C372 1.420 . S
C370 C402 1.423 1_655 S
C371 H357 0.930 . S
C371 C368 1.413 . S
C371 C369 1.367 . S
C372 N367 1.362 . S
C372 C370 1.420 . S
C372 C376 1.429 . S
H373 C378 0.930 . S
N374 Eu336 2.609 . S
N374 C376 1.377 . S
N374 C377 1.321 . S
C375 H361 0.930 . S
C375 C377 1.400 . S
C375 C378 1.386 . S
C376 C372 1.429 . S
C376 N374 1.377 . S
C376 C379 1.411 . S
C377 H359 0.930 . S
C377 N374 1.321 . S
C377 C375 1.400 . S
C378 H373 0.930 . S
C378 C375 1.386 . S
C378 C379 1.395 . S
C379 C376 1.411 . S
C379 C378 1.395 . S
C379 C401 1.414 1_655 S
O380 Eu336 2.558 . S
O380 C400 1.257 . S
O381 Eu336 2.612 . S
O381 Eu347 2.380 . S
O381 C392 1.276 . S
O382 Eu347 2.432 . S
O382 C399 1.264 . S
O383 Eu336 2.339 . S
O383 C399 1.254 . S
O384 Eu336 2.563 . S
O384 C392 1.235 . S
O385 Eu336 2.419 . S
O385 C400 1.249 . S
O386 Eu347 2.558 . S
O386 C411 1.257 . S
O387 Eu336 2.380 . S
O387 Eu347 2.612 . S
O387 C403 1.276 . S
O388 Eu336 2.432 . S
O388 C410 1.264 . S
O389 Eu347 2.339 . S
O389 C410 1.254 . S
O390 Eu347 2.563 . S
O390 C403 1.235 . S
O391 Eu347 2.419 . S
O391 C411 1.249 . S
C392 O381 1.276 . S
C392 O384 1.235 . S
C393 C395 1.393 . S
C393 C397 1.395 . S
C393 C400 1.492 . S
C394 C395 1.392 . S
C394 C396 1.386 . S
C395 C393 1.393 . S
C395 C394 1.392 . S
C395 H412 0.930 . S
C396 C394 1.386 . S
C396 C398 1.395 . S
C396 H413 0.930 . S
C397 C393 1.395 . S
C397 C398 1.379 . S
C397 H414 0.930 . S
C398 C396 1.395 . S
C398 C397 1.379 . S
C398 H415 0.930 . S
C399 O382 1.264 . S
C399 O383 1.254 . S
C400 Eu336 2.848 . S
C400 O380 1.257 . S
C400 O385 1.249 . S
C400 C393 1.492 . S
C401 H366 0.935 . S
C401 C379 1.414 1_455 S
C401 C402 1.352 . S
C402 H364 0.930 . S
C402 C370 1.423 1_455 S
C402 C401 1.352 . S
C403 O387 1.276 . S
C403 O390 1.235 . S
C404 C405 1.393 . S
C404 C408 1.395 . S
C404 C411 1.492 . S
C405 C404 1.393 . S
C405 C406 1.392 . S
C405 H416 0.930 . S
C406 C405 1.392 . S
C406 C407 1.386 . S
C407 C406 1.386 . S
C407 C409 1.395 . S
C407 H417 0.930 . S
C408 C404 1.395 . S
C408 C409 1.379 . S
C408 H418 0.930 . S
C409 C407 1.395 . S
C409 C408 1.379 . S
C409 H419 0.930 . S
C410 O388 1.264 . S
C410 O389 1.254 . S
C411 Eu347 2.848 . S
C411 O386 1.257 . S
C411 O391 1.249 . S
C411 C404 1.492 . S
H412 C395 0.930 . S
H413 C396 0.930 . S
H414 C397 0.930 . S
H415 C398 0.930 . S
H416 C405 0.930 . S
H417 C407 0.930 . S
H418 C408 0.930 . S
H419 C409 0.930 . S
Eu420 N451 2.657 . S
Eu420 N458 2.609 . S
Eu420 O464 2.558 . S
Eu420 O465 2.612 . S
Eu420 O467 2.339 . S
Eu420 O468 2.563 . S
Eu420 O469 2.419 . S
Eu420 O471 2.380 . S
Eu420 O472 2.432 . S
Eu420 C484 2.848 . S
C421 C424 1.429 . S
C421 C425 1.411 . S
C421 N428 1.377 . S
C422 C424 1.420 . S
C422 C426 1.423 1_545 S
C422 C434 1.392 . S
C423 C425 1.414 1_565 S
C423 C426 1.353 . S
C423 H446 0.935 . S
C424 C421 1.429 . S
C424 C422 1.420 . S
C424 N432 1.362 . S
C425 C421 1.411 . S
C425 C423 1.414 1_545 S
C425 C430 1.395 . S
C426 C422 1.423 1_565 S
C426 C423 1.353 . S
C426 H438 0.930 . S
C427 C429 1.400 . S
C427 C430 1.386 . S
C427 H439 0.930 . S
N428 C421 1.377 . S
N428 C429 1.321 . S
N428 Eu431 2.609 . S
C429 C427 1.400 . S
C429 N428 1.321 . S
C429 H436 0.930 . S
C430 C425 1.395 . S
C430 C427 1.386 . S
C430 H449 0.930 . S
Eu431 N428 2.609 . S
Eu431 N432 2.657 . S
Eu431 O465 2.380 . S
Eu431 O466 2.432 . S
Eu431 O470 2.558 . S
Eu431 O471 2.612 . S
Eu431 O473 2.339 . S
Eu431 O474 2.563 . S
Eu431 O475 2.419 . S
Eu431 C495 2.848 . S
N432 C424 1.362 . S
N432 Eu431 2.657 . S
N432 C433 1.334 . S
C433 N432 1.334 . S
C433 C435 1.413 . S
C433 H440 0.929 . S
C434 C422 1.392 . S
C434 C435 1.367 . S
C434 H442 0.930 1_545 S
C435 C433 1.413 . S
C435 C434 1.367 . S
C435 H437 0.930 . S
H436 C429 0.930 . S
H437 C435 0.930 . S
H438 C426 0.930 . S
H439 C427 0.930 . S
H440 C433 0.929 . S
H441 C455 0.930 . S
H442 C434 0.930 1_565 S
H443 C461 0.930 . S
H444 C452 0.929 . S
H445 C459 0.930 . S
H446 C423 0.935 . S
H447 C453 0.930 . S
H448 C486 0.930 1_455 S
H449 C430 0.930 . S
H450 C485 0.931 1_455 S
N451 Eu420 2.657 . S
N451 C452 1.334 . S
N451 C456 1.362 . S
C452 H444 0.929 . S
C452 N451 1.334 . S
C452 C455 1.413 . S
C453 H447 0.930 . S
C453 C454 1.392 . S
C453 C455 1.367 . S
C454 C453 1.392 . S
C454 C456 1.420 . S
C454 C486 1.423 . S
C455 H441 0.930 . S
C455 C452 1.413 . S
C455 C453 1.367 . S
C456 N451 1.362 . S
C456 C454 1.420 . S
C456 C460 1.429 . S
H457 C462 0.930 . S
N458 Eu420 2.609 . S
N458 C460 1.377 . S
N458 C461 1.321 . S
C459 H445 0.930 . S
C459 C461 1.400 . S
C459 C462 1.386 . S
C460 C456 1.429 . S
C460 N458 1.377 . S
C460 C463 1.411 . S
C461 H443 0.930 . S
C461 N458 1.321 . S
C461 C459 1.400 . S
C462 H457 0.930 . S
C462 C459 1.386 . S
C462 C463 1.395 . S
C463 C460 1.411 . S
C463 C462 1.395 . S
C463 C485 1.420 . S
O464 Eu420 2.558 . S
O464 C484 1.257 . S
O465 Eu420 2.612 . S
O465 Eu431 2.380 . S
O465 C476 1.276 . S
O466 Eu431 2.432 . S
O466 C483 1.264 . S
O467 Eu420 2.339 . S
O467 C483 1.254 . S
O468 Eu420 2.563 . S
O468 C476 1.235 . S
O469 Eu420 2.419 . S
O469 C484 1.249 . S
O470 Eu431 2.558 . S
O470 C495 1.257 . S
O471 Eu420 2.380 . S
O471 Eu431 2.612 . S
O471 C487 1.276 . S
O472 Eu420 2.432 . S
O472 C494 1.264 . S
O473 Eu431 2.339 . S
O473 C494 1.254 . S
O474 Eu431 2.563 . S
O474 C487 1.235 . S
O475 Eu431 2.419 . S
O475 C495 1.249 . S
C476 O465 1.276 . S
C476 O468 1.235 . S
C477 C479 1.393 . S
C477 C481 1.395 . S
C477 C484 1.492 1_455 S
C478 C479 1.392 . S
C478 C480 1.386 . S
C479 C477 1.393 . S
C479 C478 1.392 . S
C479 H496 0.930 . S
C480 C478 1.386 . S
C480 C482 1.395 . S
C480 H497 0.930 . S
C481 C477 1.395 . S
C481 C482 1.379 . S
C481 H498 0.930 . S
C482 C480 1.395 . S
C482 C481 1.379 . S
C482 H499 0.930 . S
C483 O466 1.264 . S
C483 O467 1.254 . S
C484 Eu420 2.848 . S
C484 O464 1.257 . S
C484 O469 1.249 . S
C484 C477 1.492 1_655 S
C485 H450 0.931 1_655 S
C485 C463 1.420 . S
C485 C486 1.351 . S
C486 H448 0.930 1_655 S
C486 C454 1.423 . S
C486 C485 1.351 . S
C487 O471 1.276 . S
C487 O474 1.235 . S
C488 C489 1.393 . S
C488 C492 1.395 . S
C488 C495 1.492 . S
C489 C488 1.393 . S
C489 C490 1.392 . S
C489 H500 0.930 . S
C490 C489 1.392 . S
C490 C491 1.386 . S
C491 C490 1.386 . S
C491 C493 1.395 . S
C491 H501 0.930 . S
C492 C488 1.395 . S
C492 C493 1.379 . S
C492 H502 0.930 . S
C493 C491 1.395 . S
C493 C492 1.379 . S
C493 H503 0.930 . S
C494 O472 1.264 . S
C494 O473 1.254 . S
C495 Eu431 2.848 . S
C495 O470 1.257 . S
C495 O475 1.249 . S
C495 C488 1.492 . S
H496 C479 0.930 . S
H497 C480 0.930 . S
H498 C481 0.930 . S
H499 C482 0.930 . S
H500 C489 0.930 . S
H501 C491 0.930 . S
H502 C492 0.930 . S
H503 C493 0.930 . S
Eu504 N535 2.657 . S
Eu504 N542 2.609 . S
Eu504 O548 2.558 . S
Eu504 O549 2.612 . S
Eu504 O551 2.339 . S
Eu504 O552 2.563 . S
Eu504 O553 2.419 . S
Eu504 O555 2.380 . S
Eu504 O556 2.432 . S
Eu504 C568 2.848 . S
C505 C508 1.429 . S
C505 C509 1.411 . S
C505 N512 1.377 . S
C506 C508 1.420 . S
C506 C510 1.423 . S
C506 C518 1.392 . S
C507 C509 1.420 . S
C507 C510 1.351 . S
C507 H530 0.931 . S
C508 C505 1.429 . S
C508 C506 1.420 . S
C508 N516 1.362 . S
C509 C505 1.411 . S
C509 C507 1.420 . S
C509 C514 1.395 . S
C510 C506 1.423 . S
C510 C507 1.351 . S
C510 H522 0.930 . S
C511 C513 1.400 . S
C511 C514 1.386 . S
C511 H523 0.930 . S
N512 C505 1.377 . S
N512 C513 1.321 . S
N512 Eu515 2.609 . S
C513 C511 1.400 . S
C513 N512 1.321 . S
C513 H520 0.930 . S
C514 C509 1.395 . S
C514 C511 1.386 . S
C514 H533 0.930 . S
Eu515 N512 2.609 . S
Eu515 N516 2.657 . S
Eu515 O549 2.380 . S
Eu515 O550 2.432 . S
Eu515 O554 2.558 . S
Eu515 O555 2.612 . S
Eu515 O557 2.339 . S
Eu515 O558 2.563 . S
Eu515 O559 2.419 . S
Eu515 C579 2.848 . S
N516 C508 1.362 . S
N516 Eu515 2.657 . S
N516 C517 1.334 . S
C517 N516 1.334 . S
C517 C519 1.413 . S
C517 H524 0.929 . S
C518 C506 1.392 . S
C518 C519 1.367 . S
C518 H526 0.930 . S
C519 C517 1.413 . S
C519 C518 1.367 . S
C519 H521 0.930 . S
H520 C513 0.930 . S
H521 C519 0.930 . S
H522 C510 0.930 . S
H523 C511 0.930 . S
H524 C517 0.929 . S
H525 C539 0.930 . S
H526 C518 0.930 . S
H527 C545 0.930 . S
H528 C536 0.929 . S
H529 C543 0.930 . S
H530 C507 0.931 . S
H531 C537 0.930 . S
H532 C570 0.930 1_655 S
H533 C514 0.930 . S
H534 C569 0.931 1_655 S
N535 Eu504 2.657 . S
N535 C536 1.334 . S
N535 C540 1.362 . S
C536 H528 0.929 . S
C536 N535 1.334 . S
C536 C539 1.413 . S
C537 H531 0.930 . S
C537 C538 1.392 . S
C537 C539 1.367 . S
C538 C537 1.392 . S
C538 C540 1.420 . S
C538 C570 1.423 . S
C539 H525 0.930 . S
C539 C536 1.413 . S
C539 C537 1.367 . S
C540 N535 1.362 . S
C540 C538 1.420 . S
C540 C544 1.429 . S
H541 C546 0.930 . S
N542 Eu504 2.609 . S
N542 C544 1.377 . S
N542 C545 1.321 . S
C543 H529 0.930 . S
C543 C545 1.400 . S
C543 C546 1.386 . S
C544 C540 1.429 . S
C544 N542 1.377 . S
C544 C547 1.411 . S
C545 H527 0.930 . S
C545 N542 1.321 . S
C545 C543 1.400 . S
C546 H541 0.930 . S
C546 C543 1.386 . S
C546 C547 1.395 . S
C547 C544 1.411 . S
C547 C546 1.395 . S
C547 C569 1.420 . S
O548 Eu504 2.558 . S
O548 C568 1.257 . S
O549 Eu504 2.612 . S
O549 Eu515 2.380 . S
O549 C560 1.276 . S
O550 Eu515 2.432 . S
O550 C567 1.264 . S
O551 Eu504 2.339 . S
O551 C567 1.254 . S
O552 Eu504 2.563 . S
O552 C560 1.235 . S
O553 Eu504 2.419 . S
O553 C568 1.249 . S
O554 Eu515 2.558 . S
O554 C579 1.257 . S
O555 Eu504 2.380 . S
O555 Eu515 2.612 . S
O555 C571 1.276 . S
O556 Eu504 2.432 . S
O556 C578 1.264 . S
O557 Eu515 2.339 . S
O557 C578 1.254 . S
O558 Eu515 2.563 . S
O558 C571 1.235 . S
O559 Eu515 2.419 . S
O559 C579 1.249 . S
C560 O549 1.276 . S
C560 O552 1.235 . S
C561 C563 1.393 . S
C561 C565 1.395 . S
C561 C568 1.492 1_655 S
C562 C563 1.392 . S
C562 C564 1.386 . S
C563 C561 1.393 . S
C563 C562 1.392 . S
C563 H580 0.930 . S
C564 C562 1.386 . S
C564 C566 1.395 . S
C564 H581 0.930 . S
C565 C561 1.395 . S
C565 C566 1.379 . S
C565 H582 0.930 . S
C566 C564 1.395 . S
C566 C565 1.379 . S
C566 H583 0.930 . S
C567 O550 1.264 . S
C567 O551 1.254 . S
C568 Eu504 2.848 . S
C568 O548 1.257 . S
C568 O553 1.249 . S
C568 C561 1.492 1_455 S
C569 H534 0.931 1_455 S
C569 C547 1.420 . S
C569 C570 1.351 . S
C570 H532 0.930 1_455 S
C570 C538 1.423 . S
C570 C569 1.351 . S
C571 O555 1.276 . S
C571 O558 1.235 . S
C572 C573 1.393 . S
C572 C576 1.395 . S
C572 C579 1.492 . S
C573 C572 1.393 . S
C573 C574 1.392 . S
C573 H584 0.930 . S
C574 C573 1.392 . S
C574 C575 1.386 . S
C575 C574 1.386 . S
C575 C577 1.395 . S
C575 H585 0.930 . S
C576 C572 1.395 . S
C576 C577 1.379 . S
C576 H586 0.930 . S
C577 C575 1.395 . S
C577 C576 1.379 . S
C577 H587 0.930 . S
C578 O556 1.264 . S
C578 O557 1.254 . S
C579 Eu515 2.848 . S
C579 O554 1.257 . S
C579 O559 1.249 . S
C579 C572 1.492 . S
H580 C563 0.930 . S
H581 C564 0.930 . S
H582 C565 0.930 . S
H583 C566 0.930 . S
H584 C573 0.930 . S
H585 C575 0.930 . S
H586 C576 0.930 . S
H587 C577 0.930 . S
Eu588 N619 2.657 . S
Eu588 N626 2.609 . S
Eu588 O632 2.558 . S
Eu588 O633 2.612 . S
Eu588 O635 2.339 . S
Eu588 O636 2.563 . S
Eu588 O637 2.419 . S
Eu588 O639 2.380 . S
Eu588 O640 2.432 . S
Eu588 C652 2.848 . S
C589 C592 1.429 . S
C589 C593 1.411 . S
C589 N596 1.377 . S
C590 C592 1.420 . S
C590 C594 1.423 . S
C590 C602 1.392 . S
C591 C593 1.420 . S
C591 C594 1.351 . S
C591 H614 0.931 1_565 S
C592 C589 1.429 . S
C592 C590 1.420 . S
C592 N600 1.362 . S
C593 C589 1.411 . S
C593 C591 1.420 . S
C593 C598 1.395 . S
C594 C590 1.423 . S
C594 C591 1.351 . S
C594 H606 0.930 1_565 S
C595 C597 1.400 . S
C595 C598 1.386 . S
C595 H607 0.930 . S
N596 C589 1.377 . S
N596 C597 1.321 . S
N596 Eu599 2.609 . S
C597 C595 1.400 . S
C597 N596 1.321 . S
C597 H604 0.930 . S
C598 C593 1.395 . S
C598 C595 1.386 . S
C598 H617 0.930 . S
Eu599 N596 2.609 . S
Eu599 N600 2.657 . S
Eu599 O633 2.380 . S
Eu599 O634 2.432 . S
Eu599 O638 2.558 . S
Eu599 O639 2.612 . S
Eu599 O641 2.339 . S
Eu599 O642 2.563 . S
Eu599 O643 2.419 . S
Eu599 C663 2.848 . S
N600 C592 1.362 . S
N600 Eu599 2.657 . S
N600 C601 1.334 . S
C601 N600 1.334 . S
C601 C603 1.413 . S
C601 H608 0.929 . S
C602 C590 1.392 . S
C602 C603 1.367 . S
C602 H610 0.930 . S
C603 C601 1.413 . S
C603 C602 1.367 . S
C603 H605 0.930 . S
H604 C597 0.930 . S
H605 C603 0.930 . S
H606 C594 0.930 1_545 S
H607 C595 0.930 . S
H608 C601 0.929 . S
H609 C623 0.930 . S
H610 C602 0.930 . S
H611 C629 0.930 . S
H612 C620 0.929 . S
H613 C627 0.930 . S
H614 C591 0.931 1_545 S
H615 C621 0.930 1_655 S
H616 C654 0.930 . S
H617 C598 0.930 . S
H618 C653 0.935 . S
N619 Eu588 2.657 . S
N619 C620 1.334 . S
N619 C624 1.362 . S
C620 H612 0.929 . S
C620 N619 1.334 . S
C620 C623 1.413 . S
C621 H615 0.930 1_455 S
C621 C622 1.392 . S
C621 C623 1.367 . S
C622 C621 1.392 . S
C622 C624 1.420 . S
C622 C654 1.423 1_455 S
C623 H609 0.930 . S
C623 C620 1.413 . S
C623 C621 1.367 . S
C624 N619 1.362 . S
C624 C622 1.420 . S
C624 C628 1.429 . S
H625 C630 0.930 . S
N626 Eu588 2.609 . S
N626 C628 1.377 . S
N626 C629 1.321 . S
C627 H613 0.930 . S
C627 C629 1.400 . S
C627 C630 1.386 . S
C628 C624 1.429 . S
C628 N626 1.377 . S
C628 C631 1.411 . S
C629 H611 0.930 . S
C629 N626 1.321 . S
C629 C627 1.400 . S
C630 H625 0.930 . S
C630 C627 1.386 . S
C630 C631 1.395 . S
C631 C628 1.411 . S
C631 C630 1.395 . S
C631 C653 1.414 1_455 S
O632 Eu588 2.558 . S
O632 C652 1.257 . S
O633 Eu588 2.612 . S
O633 Eu599 2.380 . S
O633 C644 1.276 . S
O634 Eu599 2.432 . S
O634 C651 1.264 . S
O635 Eu588 2.339 . S
O635 C651 1.254 . S
O636 Eu588 2.563 . S
O636 C644 1.235 . S
O637 Eu588 2.419 . S
O637 C652 1.249 . S
O638 Eu599 2.558 . S
O638 C663 1.257 . S
O639 Eu588 2.380 . S
O639 Eu599 2.612 . S
O639 C655 1.276 . S
O640 Eu588 2.432 . S
O640 C662 1.264 . S
O641 Eu599 2.339 . S
O641 C662 1.254 . S
O642 Eu599 2.563 . S
O642 C655 1.235 . S
O643 Eu599 2.419 . S
O643 C663 1.249 . S
C644 O633 1.276 . S
C644 O636 1.235 . S
C645 C647 1.393 . S
C645 C649 1.395 . S
C645 C652 1.492 . S
C646 C647 1.392 . S
C646 C648 1.386 . S
C647 C645 1.393 . S
C647 C646 1.392 . S
C647 H664 0.930 . S
C648 C646 1.386 . S
C648 C650 1.395 . S
C648 H665 0.930 . S
C649 C645 1.395 . S
C649 C650 1.379 . S
C649 H666 0.930 . S
C650 C648 1.395 . S
C650 C649 1.379 . S
C650 H667 0.930 . S
C651 O634 1.264 . S
C651 O635 1.254 . S
C652 Eu588 2.848 . S
C652 O632 1.257 . S
C652 O637 1.249 . S
C652 C645 1.492 . S
C653 H618 0.935 . S
C653 C631 1.414 1_655 S
C653 C654 1.353 . S
C654 H616 0.930 . S
C654 C622 1.423 1_655 S
C654 C653 1.353 . S
C655 O639 1.276 . S
C655 O642 1.235 . S
C656 C657 1.393 . S
C656 C660 1.395 . S
C656 C663 1.492 1_545 S
C657 C656 1.393 . S
C657 C658 1.392 . S
C657 H668 0.930 . S
C658 C657 1.392 . S
C658 C659 1.386 . S
C659 C658 1.386 . S
C659 C661 1.395 . S
C659 H669 0.930 . S
C660 C656 1.395 . S
C660 C661 1.379 . S
C660 H670 0.930 . S
C661 C659 1.395 . S
C661 C660 1.379 . S
C661 H671 0.930 . S
C662 O640 1.264 . S
C662 O641 1.254 . S
C663 Eu599 2.848 . S
C663 O638 1.257 . S
C663 O643 1.249 . S
C663 C656 1.492 1_565 S
H664 C647 0.930 . S
H665 C648 0.930 . S
H666 C649 0.930 . S
H667 C650 0.930 . S
H668 C657 0.930 . S
H669 C659 0.930 . S
H670 C660 0.930 . S
H671 C661 0.930 . S
Eu672 N703 2.657 . S
Eu672 N710 2.609 . S
Eu672 O716 2.558 . S
Eu672 O717 2.612 . S
Eu672 O719 2.339 . S
Eu672 O720 2.563 . S
Eu672 O721 2.419 . S
Eu672 O723 2.380 . S
Eu672 O724 2.432 . S
Eu672 C736 2.848 . S
C673 C676 1.429 . S
C673 C677 1.411 . S
C673 N680 1.377 . S
C674 C676 1.420 . S
C674 C678 1.423 1_565 S
C674 C686 1.392 . S
C675 C677 1.414 1_545 S
C675 C678 1.352 . S
C675 H698 0.935 . S
C676 C673 1.429 . S
C676 C674 1.420 . S
C676 N684 1.362 . S
C677 C673 1.411 . S
C677 C675 1.414 1_565 S
C677 C682 1.395 . S
C678 C674 1.423 1_545 S
C678 C675 1.352 . S
C678 H690 0.930 . S
C679 C681 1.400 . S
C679 C682 1.386 . S
C679 H691 0.930 . S
N680 C673 1.377 . S
N680 C681 1.321 . S
N680 Eu683 2.609 . S
C681 C679 1.400 . S
C681 N680 1.321 . S
C681 H688 0.930 . S
C682 C677 1.395 . S
C682 C679 1.386 . S
C682 H701 0.930 . S
Eu683 N680 2.609 . S
Eu683 N684 2.657 . S
Eu683 O717 2.380 . S
Eu683 O718 2.432 . S
Eu683 O722 2.558 . S
Eu683 O723 2.612 . S
Eu683 O725 2.339 . S
Eu683 O726 2.563 . S
Eu683 O727 2.419 . S
Eu683 C747 2.848 . S
N684 C676 1.362 . S
N684 Eu683 2.657 . S
N684 C685 1.334 . S
C685 N684 1.334 . S
C685 C687 1.413 . S
C685 H692 0.929 . S
C686 C674 1.392 . S
C686 C687 1.367 . S
C686 H694 0.930 1_565 S
C687 C685 1.413 . S
C687 C686 1.367 . S
C687 H689 0.930 . S
H688 C681 0.930 . S
H689 C687 0.930 . S
H690 C678 0.930 . S
H691 C679 0.930 . S
H692 C685 0.929 . S
H693 C707 0.930 . S
H694 C686 0.930 1_545 S
H695 C713 0.930 . S
H696 C704 0.929 . S
H697 C711 0.930 . S
H698 C675 0.935 . S
H699 C705 0.930 . S
H700 C738 0.930 . S
H701 C682 0.930 . S
H702 C737 0.931 . S
N703 Eu672 2.657 . S
N703 C704 1.334 . S
N703 C708 1.362 . S
C704 H696 0.929 . S
C704 N703 1.334 . S
C704 C707 1.413 . S
C705 H699 0.930 . S
C705 C706 1.392 . S
C705 C707 1.367 . S
C706 C705 1.392 . S
C706 C708 1.420 . S
C706 C738 1.423 . S
C707 H693 0.930 . S
C707 C704 1.413 . S
C707 C705 1.367 . S
C708 N703 1.362 . S
C708 C706 1.420 . S
C708 C712 1.429 . S
H709 C714 0.930 . S
N710 Eu672 2.609 . S
N710 C712 1.377 . S
N710 C713 1.321 . S
C711 H697 0.930 . S
C711 C713 1.400 . S
C711 C714 1.386 . S
C712 C708 1.429 . S
C712 N710 1.377 . S
C712 C715 1.411 . S
C713 H695 0.930 . S
C713 N710 1.321 . S
C713 C711 1.400 . S
C714 H709 0.930 . S
C714 C711 1.386 . S
C714 C715 1.395 . S
C715 C712 1.411 . S
C715 C714 1.395 . S
C715 C737 1.420 . S
O716 Eu672 2.558 . S
O716 C736 1.257 . S
O717 Eu672 2.612 . S
O717 Eu683 2.380 . S
O717 C728 1.276 . S
O718 Eu683 2.432 . S
O718 C735 1.264 . S
O719 Eu672 2.339 . S
O719 C735 1.254 . S
O720 Eu672 2.563 . S
O720 C728 1.235 . S
O721 Eu672 2.419 . S
O721 C736 1.249 . S
O722 Eu683 2.558 . S
O722 C747 1.257 . S
O723 Eu672 2.380 . S
O723 Eu683 2.612 . S
O723 C739 1.276 . S
O724 Eu672 2.432 . S
O724 C746 1.264 . S
O725 Eu683 2.339 . S
O725 C746 1.254 . S
O726 Eu683 2.563 . S
O726 C739 1.235 . S
O727 Eu683 2.419 . S
O727 C747 1.249 . S
C728 O717 1.276 . S
C728 O720 1.235 . S
C729 C731 1.393 . S
C729 C733 1.395 . S
C729 C736 1.492 . S
C730 C731 1.392 . S
C730 C732 1.386 . S
C731 C729 1.393 . S
C731 C730 1.392 . S
C731 H748 0.930 . S
C732 C730 1.386 . S
C732 C734 1.395 . S
C732 H749 0.930 . S
C733 C729 1.395 . S
C733 C734 1.379 . S
C733 H750 0.930 . S
C734 C732 1.395 . S
C734 C733 1.379 . S
C734 H751 0.930 . S
C735 O718 1.264 . S
C735 O719 1.254 . S
C736 Eu672 2.848 . S
C736 O716 1.257 . S
C736 O721 1.249 . S
C736 C729 1.492 . S
C737 H702 0.931 . S
C737 C715 1.420 . S
C737 C738 1.351 . S
C738 H700 0.930 . S
C738 C706 1.423 . S
C738 C737 1.351 . S
C739 O723 1.276 . S
C739 O726 1.235 . S
C740 C741 1.393 . S
C740 C744 1.395 . S
C740 C747 1.492 . S
C741 C740 1.393 . S
C741 C742 1.392 . S
C741 H752 0.930 . S
C742 C741 1.392 . S
C742 C743 1.386 . S
C743 C742 1.386 . S
C743 C745 1.395 . S
C743 H753 0.930 . S
C744 C740 1.395 . S
C744 C745 1.379 . S
C744 H754 0.930 . S
C745 C743 1.395 . S
C745 C744 1.379 . S
C745 H755 0.930 . S
C746 O724 1.264 . S
C746 O725 1.254 . S
C747 Eu683 2.848 . S
C747 O722 1.257 . S
C747 O727 1.249 . S
C747 C740 1.492 . S
H748 C731 0.930 . S
H749 C732 0.930 . S
H750 C733 0.930 . S
H751 C734 0.930 . S
H752 C741 0.930 . S
H753 C743 0.930 . S
H754 C744 0.930 . S
H755 C745 0.930 . S
Eu756 N787 2.657 . S
Eu756 N794 2.609 . S
Eu756 O800 2.558 . S
Eu756 O801 2.612 . S
Eu756 O803 2.339 . S
Eu756 O804 2.563 . S
Eu756 O805 2.419 . S
Eu756 O807 2.380 . S
Eu756 O808 2.432 . S
Eu756 C820 2.848 . S
C757 C760 1.429 . S
C757 C761 1.411 . S
C757 N764 1.377 . S
C758 C760 1.420 . S
C758 C762 1.423 . S
C758 C770 1.392 . S
C759 C761 1.420 . S
C759 C762 1.351 . S
C759 H782 0.931 1_455 S
C760 C757 1.429 . S
C760 C758 1.420 . S
C760 N768 1.362 . S
C761 C757 1.411 . S
C761 C759 1.420 . S
C761 C766 1.395 . S
C762 C758 1.423 . S
C762 C759 1.351 . S
C762 H774 0.930 1_455 S
C763 C765 1.400 . S
C763 C766 1.386 . S
C763 H775 0.930 . S
N764 C757 1.377 . S
N764 C765 1.321 . S
N764 Eu767 2.609 . S
C765 C763 1.400 . S
C765 N764 1.321 . S
C765 H772 0.930 . S
C766 C761 1.395 . S
C766 C763 1.386 . S
C766 H785 0.930 . S
Eu767 N764 2.609 . S
Eu767 N768 2.657 . S
Eu767 O801 2.380 . S
Eu767 O802 2.432 . S
Eu767 O806 2.558 . S
Eu767 O807 2.612 . S
Eu767 O809 2.339 . S
Eu767 O810 2.563 . S
Eu767 O811 2.419 . S
Eu767 C831 2.848 . S
N768 C760 1.362 . S
N768 Eu767 2.657 . S
N768 C769 1.334 . S
C769 N768 1.334 . S
C769 C771 1.413 . S
C769 H776 0.929 . S
C770 C758 1.392 . S
C770 C771 1.367 . S
C770 H778 0.930 . S
C771 C769 1.413 . S
C771 C770 1.367 . S
C771 H773 0.930 . S
H772 C765 0.930 . S
H773 C771 0.930 . S
H774 C762 0.930 1_655 S
H775 C763 0.930 . S
H776 C769 0.929 . S
H777 C791 0.930 . S
H778 C770 0.930 . S
H779 C797 0.930 . S
H780 C788 0.929 . S
H781 C795 0.930 . S
H782 C759 0.931 1_655 S
H783 C789 0.930 . S
H784 C822 0.930 . S
H785 C766 0.930 . S
H786 C821 0.931 . S
N787 Eu756 2.657 . S
N787 C788 1.334 . S
N787 C792 1.362 . S
C788 H780 0.929 . S
C788 N787 1.334 . S
C788 C791 1.413 . S
C789 H783 0.930 . S
C789 C790 1.392 . S
C789 C791 1.367 . S
C790 C789 1.392 . S
C790 C792 1.420 . S
C790 C822 1.423 . S
C791 H777 0.930 . S
C791 C788 1.413 . S
C791 C789 1.367 . S
C792 N787 1.362 . S
C792 C790 1.420 . S
C792 C796 1.429 . S
H793 C798 0.930 . S
N794 Eu756 2.609 . S
N794 C796 1.377 . S
N794 C797 1.321 . S
C795 H781 0.930 . S
C795 C797 1.400 . S
C795 C798 1.386 . S
C796 C792 1.429 . S
C796 N794 1.377 . S
C796 C799 1.411 . S
C797 H779 0.930 . S
C797 N794 1.321 . S
C797 C795 1.400 . S
C798 H793 0.930 . S
C798 C795 1.386 . S
C798 C799 1.395 . S
C799 C796 1.411 . S
C799 C798 1.395 . S
C799 C821 1.420 . S
O800 Eu756 2.558 . S
O800 C820 1.257 . S
O801 Eu756 2.612 . S
O801 Eu767 2.380 . S
O801 C812 1.276 . S
O802 Eu767 2.432 . S
O802 C819 1.264 . S
O803 Eu756 2.339 . S
O803 C819 1.254 . S
O804 Eu756 2.563 . S
O804 C812 1.235 . S
O805 Eu756 2.419 . S
O805 C820 1.249 . S
O806 Eu767 2.558 . S
O806 C831 1.257 . S
O807 Eu756 2.380 . S
O807 Eu767 2.612 . S
O807 C823 1.276 . S
O808 Eu756 2.432 . S
O808 C830 1.264 . S
O809 Eu767 2.339 . S
O809 C830 1.254 . S
O810 Eu767 2.563 . S
O810 C823 1.235 . S
O811 Eu767 2.419 . S
O811 C831 1.249 . S
C812 O801 1.276 . S
C812 O804 1.235 . S
C813 C815 1.393 . S
C813 C817 1.395 . S
C813 C820 1.492 . S
C814 C815 1.392 . S
C814 C816 1.386 . S
C815 C813 1.393 . S
C815 C814 1.392 . S
C815 H832 0.930 . S
C816 C814 1.386 . S
C816 C818 1.395 . S
C816 H833 0.930 . S
C817 C813 1.395 . S
C817 C818 1.379 . S
C817 H834 0.930 . S
C818 C816 1.395 . S
C818 C817 1.379 . S
C818 H835 0.930 . S
C819 O802 1.264 . S
C819 O803 1.254 . S
C820 Eu756 2.848 . S
C820 O800 1.257 . S
C820 O805 1.249 . S
C820 C813 1.492 . S
C821 H786 0.931 . S
C821 C799 1.420 . S
C821 C822 1.351 . S
C822 H784 0.930 . S
C822 C790 1.423 . S
C822 C821 1.351 . S
C823 O807 1.276 . S
C823 O810 1.235 . S
C824 C825 1.393 . S
C824 C828 1.395 . S
C824 C831 1.492 1_655 S
C825 C824 1.393 . S
C825 C826 1.392 . S
C825 H836 0.930 . S
C826 C825 1.392 . S
C826 C827 1.386 . S
C827 C826 1.386 . S
C827 C829 1.395 . S
C827 H837 0.930 . S
C828 C824 1.395 . S
C828 C829 1.379 . S
C828 H838 0.930 . S
C829 C827 1.395 . S
C829 C828 1.379 . S
C829 H839 0.930 . S
C830 O808 1.264 . S
C830 O809 1.254 . S
C831 Eu767 2.848 . S
C831 O806 1.257 . S
C831 O811 1.249 . S
C831 C824 1.492 1_455 S
H832 C815 0.930 . S
H833 C816 0.930 . S
H834 C817 0.930 . S
H835 C818 0.930 . S
H836 C825 0.930 . S
H837 C827 0.930 . S
H838 C828 0.930 . S
H839 C829 0.930 . S
Eu840 N871 2.657 . S
Eu840 N878 2.609 . S
Eu840 O884 2.558 . S
Eu840 O885 2.612 . S
Eu840 O887 2.339 . S
Eu840 O888 2.563 . S
Eu840 O889 2.419 . S
Eu840 O891 2.380 . S
Eu840 O892 2.432 . S
Eu840 C904 2.848 . S
C841 C844 1.429 . S
C841 C845 1.411 . S
C841 N848 1.377 . S
C842 C844 1.420 . S
C842 C846 1.423 1_455 S
C842 C854 1.392 . S
C843 C845 1.414 1_655 S
C843 C846 1.353 . S
C843 H866 0.935 . S
C844 C841 1.429 . S
C844 C842 1.420 . S
C844 N852 1.362 . S
C845 C841 1.411 . S
C845 C843 1.414 1_455 S
C845 C850 1.395 . S
C846 C842 1.423 1_655 S
C846 C843 1.353 . S
C846 H858 0.930 . S
C847 C849 1.400 . S
C847 C850 1.386 . S
C847 H859 0.930 . S
N848 C841 1.377 . S
N848 C849 1.321 . S
N848 Eu851 2.609 . S
C849 C847 1.400 . S
C849 N848 1.321 . S
C849 H856 0.930 . S
C850 C845 1.395 . S
C850 C847 1.386 . S
C850 H869 0.930 . S
Eu851 N848 2.609 . S
Eu851 N852 2.657 . S
Eu851 O885 2.380 . S
Eu851 O886 2.432 . S
Eu851 O890 2.558 . S
Eu851 O891 2.612 . S
Eu851 O893 2.339 . S
Eu851 O894 2.563 . S
Eu851 O895 2.419 . S
Eu851 C915 2.848 . S
N852 C844 1.362 . S
N852 Eu851 2.657 . S
N852 C853 1.334 . S
C853 N852 1.334 . S
C853 C855 1.413 . S
C853 H860 0.929 . S
C854 C842 1.392 . S
C854 C855 1.367 . S
C854 H862 0.930 1_455 S
C855 C853 1.413 . S
C855 C854 1.367 . S
C855 H857 0.930 . S
H856 C849 0.930 . S
H857 C855 0.930 . S
H858 C846 0.930 . S
H859 C847 0.930 . S
H860 C853 0.929 . S
H861 C875 0.930 . S
H862 C854 0.930 1_655 S
H863 C881 0.930 . S
H864 C872 0.929 . S
H865 C879 0.930 . S
H866 C843 0.935 . S
H867 C873 0.930 . S
H868 C906 0.930 1_545 S
H869 C850 0.930 . S
H870 C905 0.931 1_545 S
N871 Eu840 2.657 . S
N871 C872 1.334 . S
N871 C876 1.362 . S
C872 H864 0.929 . S
C872 N871 1.334 . S
C872 C875 1.413 . S
C873 H867 0.930 . S
C873 C874 1.392 . S
C873 C875 1.367 . S
C874 C873 1.392 . S
C874 C876 1.420 . S
C874 C906 1.423 . S
C875 H861 0.930 . S
C875 C872 1.413 . S
C875 C873 1.367 . S
C876 N871 1.362 . S
C876 C874 1.420 . S
C876 C880 1.429 . S
H877 C882 0.930 . S
N878 Eu840 2.609 . S
N878 C880 1.377 . S
N878 C881 1.321 . S
C879 H865 0.930 . S
C879 C881 1.400 . S
C879 C882 1.386 . S
C880 C876 1.429 . S
C880 N878 1.377 . S
C880 C883 1.411 . S
C881 H863 0.930 . S
C881 N878 1.321 . S
C881 C879 1.400 . S
C882 H877 0.930 . S
C882 C879 1.386 . S
C882 C883 1.395 . S
C883 C880 1.411 . S
C883 C882 1.395 . S
C883 C905 1.420 . S
O884 Eu840 2.558 . S
O884 C904 1.257 . S
O885 Eu840 2.612 . S
O885 Eu851 2.380 . S
O885 C896 1.276 . S
O886 Eu851 2.432 . S
O886 C903 1.264 . S
O887 Eu840 2.339 . S
O887 C903 1.254 . S
O888 Eu840 2.563 . S
O888 C896 1.235 . S
O889 Eu840 2.419 . S
O889 C904 1.249 . S
O890 Eu851 2.558 . S
O890 C915 1.257 . S
O891 Eu840 2.380 . S
O891 Eu851 2.612 . S
O891 C907 1.276 . S
O892 Eu840 2.432 . S
O892 C914 1.264 . S
O893 Eu851 2.339 . S
O893 C914 1.254 . S
O894 Eu851 2.563 . S
O894 C907 1.235 . S
O895 Eu851 2.419 . S
O895 C915 1.249 . S
C896 O885 1.276 . S
C896 O888 1.235 . S
C897 C899 1.393 . S
C897 C901 1.395 . S
C897 C904 1.492 1_545 S
C898 C899 1.392 . S
C898 C900 1.386 . S
C899 C897 1.393 . S
C899 C898 1.392 . S
C899 H916 0.930 . S
C900 C898 1.386 . S
C900 C902 1.395 . S
C900 H917 0.930 . S
C901 C897 1.395 . S
C901 C902 1.379 . S
C901 H918 0.930 . S
C902 C900 1.395 . S
C902 C901 1.379 . S
C902 H919 0.930 . S
C903 O886 1.264 . S
C903 O887 1.254 . S
C904 Eu840 2.848 . S
C904 O884 1.257 . S
C904 O889 1.249 . S
C904 C897 1.492 1_565 S
C905 H870 0.931 1_565 S
C905 C883 1.420 . S
C905 C906 1.351 . S
C906 H868 0.930 1_565 S
C906 C874 1.423 . S
C906 C905 1.351 . S
C907 O891 1.276 . S
C907 O894 1.235 . S
C908 C909 1.393 . S
C908 C912 1.395 . S
C908 C915 1.492 . S
C909 C908 1.393 . S
C909 C910 1.392 . S
C909 H920 0.930 . S
C910 C909 1.392 . S
C910 C911 1.386 . S
C911 C910 1.386 . S
C911 C913 1.395 . S
C911 H921 0.930 . S
C912 C908 1.395 . S
C912 C913 1.379 . S
C912 H922 0.930 . S
C913 C911 1.395 . S
C913 C912 1.379 . S
C913 H923 0.930 . S
C914 O892 1.264 . S
C914 O893 1.254 . S
C915 Eu851 2.848 . S
C915 O890 1.257 . S
C915 O895 1.249 . S
C915 C908 1.492 . S
H916 C899 0.930 . S
H917 C900 0.930 . S
H918 C901 0.930 . S
H919 C902 0.930 . S
H920 C909 0.930 . S
H921 C911 0.930 . S
H922 C912 0.930 . S
H923 C913 0.930 . S
Eu924 N955 2.657 . S
Eu924 N962 2.609 . S
Eu924 O968 2.558 . S
Eu924 O969 2.612 . S
Eu924 O971 2.339 . S
Eu924 O972 2.563 . S
Eu924 O973 2.419 . S
Eu924 O975 2.380 . S
Eu924 O976 2.432 . S
Eu924 C988 2.848 . S
C925 C928 1.429 . S
C925 C929 1.411 . S
C925 N932 1.377 . S
C926 C928 1.420 . S
C926 C930 1.423 . S
C926 C938 1.392 . S
C927 C929 1.420 . S
C927 C930 1.351 . S
C927 H950 0.931 . S
C928 C925 1.429 . S
C928 C926 1.420 . S
C928 N936 1.362 . S
C929 C925 1.411 . S
C929 C927 1.420 . S
C929 C934 1.395 . S
C930 C926 1.423 . S
C930 C927 1.351 . S
C930 H942 0.930 . S
C931 C933 1.400 . S
C931 C934 1.386 . S
C931 H943 0.930 . S
N932 C925 1.377 . S
N932 C933 1.321 . S
N932 Eu935 2.609 . S
C933 C931 1.400 . S
C933 N932 1.321 . S
C933 H940 0.930 . S
C934 C929 1.395 . S
C934 C931 1.386 . S
C934 H953 0.930 . S
Eu935 N932 2.609 . S
Eu935 N936 2.657 . S
Eu935 O969 2.380 . S
Eu935 O970 2.432 . S
Eu935 O974 2.558 . S
Eu935 O975 2.612 . S
Eu935 O977 2.339 . S
Eu935 O978 2.563 . S
Eu935 O979 2.419 . S
Eu935 C999 2.848 . S
N936 C928 1.362 . S
N936 Eu935 2.657 . S
N936 C937 1.334 . S
C937 N936 1.334 . S
C937 C939 1.413 . S
C937 H944 0.929 . S
C938 C926 1.392 . S
C938 C939 1.367 . S
C938 H946 0.930 . S
C939 C937 1.413 . S
C939 C938 1.367 . S
C939 H941 0.930 . S
H940 C933 0.930 . S
H941 C939 0.930 . S
H942 C930 0.930 . S
H943 C931 0.930 . S
H944 C937 0.929 . S
H945 C959 0.930 . S
H946 C938 0.930 . S
H947 C965 0.930 . S
H948 C956 0.929 . S
H949 C963 0.930 . S
H950 C927 0.931 . S
H951 C957 0.930 1_545 S
H952 C990 0.930 . S
H953 C934 0.930 . S
H954 C989 0.935 . S
N955 Eu924 2.657 . S
N955 C956 1.334 . S
N955 C960 1.362 . S
C956 H948 0.929 . S
C956 N955 1.334 . S
C956 C959 1.413 . S
C957 H951 0.930 1_565 S
C957 C958 1.392 . S
C957 C959 1.367 . S
C958 C957 1.392 . S
C958 C960 1.420 . S
C958 C990 1.423 1_565 S
C959 H945 0.930 . S
C959 C956 1.413 . S
C959 C957 1.367 . S
C960 N955 1.362 . S
C960 C958 1.420 . S
C960 C964 1.429 . S
H961 C966 0.930 . S
N962 Eu924 2.609 . S
N962 C964 1.377 . S
N962 C965 1.321 . S
C963 H949 0.930 . S
C963 C965 1.400 . S
C963 C966 1.386 . S
C964 C960 1.429 . S
C964 N962 1.377 . S
C964 C967 1.411 . S
C965 H947 0.930 . S
C965 N962 1.321 . S
C965 C963 1.400 . S
C966 H961 0.930 . S
C966 C963 1.386 . S
C966 C967 1.395 . S
C967 C964 1.411 . S
C967 C966 1.395 . S
C967 C989 1.414 1_565 S
O968 Eu924 2.558 . S
O968 C988 1.257 . S
O969 Eu924 2.612 . S
O969 Eu935 2.380 . S
O969 C980 1.276 . S
O970 Eu935 2.432 . S
O970 C987 1.264 . S
O971 Eu924 2.339 . S
O971 C987 1.254 . S
O972 Eu924 2.563 . S
O972 C980 1.235 . S
O973 Eu924 2.419 . S
O973 C988 1.249 . S
O974 Eu935 2.558 . S
O974 C999 1.257 . S
O975 Eu924 2.380 . S
O975 Eu935 2.612 . S
O975 C991 1.276 . S
O976 Eu924 2.432 . S
O976 C998 1.264 . S
O977 Eu935 2.339 . S
O977 C998 1.254 . S
O978 Eu935 2.563 . S
O978 C991 1.235 . S
O979 Eu935 2.419 . S
O979 C999 1.249 . S
C980 O969 1.276 . S
C980 O972 1.235 . S
C981 C983 1.393 . S
C981 C985 1.395 . S
C981 C988 1.492 . S
C982 C983 1.392 . S
C982 C984 1.386 . S
C983 C981 1.393 . S
C983 C982 1.392 . S
C983 H1000 0.930 . S
C984 C982 1.386 . S
C984 C986 1.395 . S
C984 H1001 0.930 . S
C985 C981 1.395 . S
C985 C986 1.379 . S
C985 H1002 0.930 . S
C986 C984 1.395 . S
C986 C985 1.379 . S
C986 H1003 0.930 . S
C987 O970 1.264 . S
C987 O971 1.254 . S
C988 Eu924 2.848 . S
C988 O968 1.257 . S
C988 O973 1.249 . S
C988 C981 1.492 . S
C989 H954 0.935 . S
C989 C967 1.414 1_545 S
C989 C990 1.352 . S
C990 H952 0.930 . S
C990 C958 1.423 1_545 S
C990 C989 1.352 . S
C991 O975 1.276 . S
C991 O978 1.235 . S
C992 C993 1.393 . S
C992 C996 1.395 . S
C992 C999 1.492 . S
C993 C992 1.393 . S
C993 C994 1.392 . S
C993 H1004 0.930 . S
C994 C993 1.392 . S
C994 C995 1.386 . S
C995 C994 1.386 . S
C995 C997 1.395 . S
C995 H1005 0.930 . S
C996 C992 1.395 . S
C996 C997 1.379 . S
C996 H1006 0.930 . S
C997 C995 1.395 . S
C997 C996 1.379 . S
C997 H1007 0.930 . S
C998 O976 1.264 . S
C998 O977 1.254 . S
C999 Eu935 2.848 . S
C999 O974 1.257 . S
C999 O979 1.249 . S
C999 C992 1.492 . S
H1000 C983 0.930 . S
H1001 C984 0.930 . S
H1002 C985 0.930 . S
H1003 C986 0.930 . S
H1004 C993 0.930 . S
H1005 C995 0.930 . S
H1006 C996 0.930 . S
H1007 C997 0.930 . S
H1008 C1016 0.950 . S
H1009 C1021 0.950 . S
H1010 C1018 0.950 . S
H1011 C1020 0.950 . S
H1012 C1022 0.950 . S
H1013 C1024 0.950 . S
H1014 C1026 0.950 . S
H1015 C1027 0.950 . S
C1016 H1008 0.950 . S
C1016 C1017 1.386 . S
C1016 C1018 1.391 . S
C1017 C1016 1.386 . S
C1017 C1021 1.393 . S
C1018 H1010 0.950 . S
C1018 C1016 1.391 . S
C1018 C1019 1.400 . S
C1019 C1018 1.400 . S
C1019 C1020 1.398 . S
C1019 C1025 1.491 . S
C1020 H1011 0.950 . S
C1020 C1019 1.398 . S
C1020 C1021 1.391 . S
C1021 H1009 0.950 . S
C1021 C1017 1.393 . S
C1021 C1020 1.391 . S
C1022 H1012 0.950 . S
C1022 C1023 1.386 . S
C1022 C1024 1.391 . S
C1023 C1022 1.386 . S
C1023 C1027 1.393 . S
C1024 H1013 0.950 . S
C1024 C1022 1.391 . S
C1024 C1025 1.400 . S
C1025 C1019 1.491 . S
C1025 C1024 1.400 . S
C1025 C1026 1.398 . S
C1026 H1014 0.950 . S
C1026 C1025 1.398 . S
C1026 C1027 1.391 . S
C1027 H1015 0.950 . S
C1027 C1023 1.393 . S
C1027 C1026 1.391 . S
H1028 C1036 0.950 . S
H1029 C1041 0.950 . S
H1030 C1038 0.950 . S
H1031 C1040 0.950 . S
H1032 C1042 0.950 . S
H1033 C1044 0.941 1_455 S
H1034 C1046 0.950 . S
H1035 C1047 0.950 . S
C1036 H1028 0.950 . S
C1036 C1037 1.386 . S
C1036 C1038 1.391 . S
C1037 C1036 1.386 . S
C1037 C1041 1.393 . S
C1038 H1030 0.950 . S
C1038 C1036 1.391 . S
C1038 C1039 1.400 . S
C1039 C1038 1.400 . S
C1039 C1040 1.398 . S
C1039 C1045 1.491 1_455 S
C1040 H1031 0.950 . S
C1040 C1039 1.398 . S
C1040 C1041 1.391 . S
C1041 H1029 0.950 . S
C1041 C1037 1.393 . S
C1041 C1040 1.391 . S
C1042 H1032 0.950 . S
C1042 C1043 1.386 . S
C1042 C1044 1.391 . S
C1043 C1042 1.386 . S
C1043 C1047 1.393 . S
C1044 H1033 0.941 1_655 S
C1044 C1042 1.391 . S
C1044 C1045 1.400 . S
C1045 C1039 1.491 1_655 S
C1045 C1044 1.400 . S
C1045 C1046 1.398 . S
C1046 H1034 0.950 . S
C1046 C1045 1.398 . S
C1046 C1047 1.391 . S
C1047 H1035 0.950 . S
C1047 C1043 1.393 . S
C1047 C1046 1.391 . S
H1048 C1056 0.950 . S
H1049 C1061 0.950 . S
H1050 C1058 0.950 1_565 S
H1051 C1060 0.950 . S
H1052 C1062 0.950 . S
H1053 C1064 0.950 . S
H1054 C1066 0.950 . S
H1055 C1067 0.950 . S
C1056 H1048 0.950 . S
C1056 C1057 1.386 . S
C1056 C1058 1.391 . S
C1057 C1056 1.386 . S
C1057 C1061 1.393 . S
C1058 H1050 0.950 1_545 S
C1058 C1056 1.391 . S
C1058 C1059 1.400 . S
C1059 C1058 1.400 . S
C1059 C1060 1.398 . S
C1059 C1065 1.491 1_545 S
C1060 H1051 0.950 . S
C1060 C1059 1.398 . S
C1060 C1061 1.391 . S
C1061 H1049 0.950 . S
C1061 C1057 1.393 . S
C1061 C1060 1.391 . S
C1062 H1052 0.950 . S
C1062 C1063 1.386 . S
C1062 C1064 1.391 . S
C1063 C1062 1.386 . S
C1063 C1067 1.393 . S
C1064 H1053 0.950 . S
C1064 C1062 1.391 . S
C1064 C1065 1.400 . S
C1065 C1059 1.491 1_565 S
C1065 C1064 1.400 . S
C1065 C1066 1.398 . S
C1066 H1054 0.950 . S
C1066 C1065 1.398 . S
C1066 C1067 1.391 . S
C1067 H1055 0.950 . S
C1067 C1063 1.393 . S
C1067 C1066 1.391 . S
H1068 C1076 0.950 . S
H1069 C1081 0.950 . S
H1070 C1078 0.950 . S
H1071 C1080 0.950 . S
H1072 C1082 0.950 . S
H1073 C1084 0.950 . S
H1074 C1086 0.950 . S
H1075 C1087 0.950 . S
C1076 H1068 0.950 . S
C1076 C1077 1.386 . S
C1076 C1078 1.391 . S
C1077 C1076 1.386 . S
C1077 C1081 1.393 . S
C1078 H1070 0.950 . S
C1078 C1076 1.391 . S
C1078 C1079 1.400 . S
C1079 C1078 1.400 . S
C1079 C1080 1.398 . S
C1079 C1085 1.491 . S
C1080 H1071 0.950 . S
C1080 C1079 1.398 . S
C1080 C1081 1.391 . S
C1081 H1069 0.950 . S
C1081 C1077 1.393 . S
C1081 C1080 1.391 . S
C1082 H1072 0.950 . S
C1082 C1083 1.386 . S
C1082 C1084 1.391 . S
C1083 C1082 1.386 . S
C1083 C1087 1.393 . S
C1084 H1073 0.950 . S
C1084 C1082 1.391 . S
C1084 C1085 1.400 . S
C1085 C1079 1.491 . S
C1085 C1084 1.400 . S
C1085 C1086 1.398 . S
C1086 H1074 0.950 . S
C1086 C1085 1.398 . S
C1086 C1087 1.391 . S
C1087 H1075 0.950 . S
C1087 C1083 1.393 . S
C1087 C1086 1.391 . S
H1088 C1096 0.950 . S
H1089 C1101 0.950 . S
H1090 C1098 0.950 . S
H1091 C1100 0.950 . S
H1092 C1102 0.950 . S
H1093 C1104 0.950 1_455 S
H1094 C1106 0.950 . S
H1095 C1107 0.950 . S
C1096 H1088 0.950 . S
C1096 C1097 1.386 . S
C1096 C1098 1.391 . S
C1097 C1096 1.386 . S
C1097 C1101 1.393 . S
C1098 H1090 0.950 . S
C1098 C1096 1.391 . S
C1098 C1099 1.400 . S
C1099 C1098 1.400 . S
C1099 C1100 1.398 . S
C1099 C1105 1.491 1_455 S
C1100 H1091 0.950 . S
C1100 C1099 1.398 . S
C1100 C1101 1.391 . S
C1101 H1089 0.950 . S
C1101 C1097 1.393 . S
C1101 C1100 1.391 . S
C1102 H1092 0.950 . S
C1102 C1103 1.386 . S
C1102 C1104 1.391 . S
C1103 C1102 1.386 . S
C1103 C1107 1.393 . S
C1104 H1093 0.950 1_655 S
C1104 C1102 1.391 . S
C1104 C1105 1.400 . S
C1105 C1099 1.491 1_655 S
C1105 C1104 1.400 . S
C1105 C1106 1.398 . S
C1106 H1094 0.950 . S
C1106 C1105 1.398 . S
C1106 C1107 1.391 . S
C1107 H1095 0.950 . S
C1107 C1103 1.393 . S
C1107 C1106 1.391 . S
H1108 C1116 0.950 . S
H1109 C1121 0.950 . S
H1110 C1118 0.950 . S
H1111 C1120 0.950 . S
H1112 C1122 0.950 . S
H1113 C1124 0.950 . S
H1114 C1126 0.950 . S
H1115 C1127 0.950 . S
C1116 H1108 0.950 . S
C1116 C1117 1.386 . S
C1116 C1118 1.391 . S
C1117 C1116 1.386 . S
C1117 C1121 1.393 . S
C1118 H1110 0.950 . S
C1118 C1116 1.391 . S
C1118 C1119 1.400 . S
C1119 C1118 1.400 . S
C1119 C1120 1.398 . S
C1119 C1125 1.491 1_565 S
C1120 H1111 0.950 . S
C1120 C1119 1.398 . S
C1120 C1121 1.391 . S
C1121 H1109 0.950 . S
C1121 C1117 1.393 . S
C1121 C1120 1.391 . S
C1122 H1112 0.950 . S
C1122 C1123 1.386 . S
C1122 C1124 1.391 . S
C1123 C1122 1.386 . S
C1123 C1127 1.393 . S
C1124 H1113 0.950 . S
C1124 C1122 1.391 . S
C1124 C1125 1.400 . S
C1125 C1119 1.491 1_545 S
C1125 C1124 1.400 . S
C1125 C1126 1.398 . S
C1126 H1114 0.950 . S
C1126 C1125 1.398 . S
C1126 C1127 1.391 . S
C1127 H1115 0.950 . S
C1127 C1123 1.393 . S
C1127 C1126 1.391 . S
H1128 C1136 0.950 . S
H1129 C1141 0.950 . S
H1130 C1138 0.950 . S
H1131 C1140 0.950 . S
H1132 C1142 0.950 . S
H1133 C1144 0.950 . S
H1134 C1146 0.950 . S
H1135 C1147 0.950 . S
C1136 H1128 0.950 . S
C1136 C1137 1.386 . S
C1136 C1138 1.391 . S
C1137 C1136 1.386 . S
C1137 C1141 1.393 . S
C1138 H1130 0.950 . S
C1138 C1136 1.391 . S
C1138 C1139 1.400 . S
C1139 C1138 1.400 . S
C1139 C1140 1.398 . S
C1139 C1145 1.491 . S
C1140 H1131 0.950 . S
C1140 C1139 1.398 . S
C1140 C1141 1.391 . S
C1141 H1129 0.950 . S
C1141 C1137 1.393 . S
C1141 C1140 1.391 . S
C1142 H1132 0.950 . S
C1142 C1143 1.386 . S
C1142 C1144 1.391 . S
C1143 C1142 1.386 . S
C1143 C1147 1.393 . S
C1144 H1133 0.950 . S
C1144 C1142 1.391 . S
C1144 C1145 1.400 . S
C1145 C1139 1.491 . S
C1145 C1144 1.400 . S
C1145 C1146 1.398 . S
C1146 H1134 0.950 . S
C1146 C1145 1.398 . S
C1146 C1147 1.391 . S
C1147 H1135 0.950 . S
C1147 C1143 1.393 . S
C1147 C1146 1.391 . S
H1148 C1156 0.950 . S
H1149 C1161 0.950 . S
H1150 C1158 0.950 1_655 S
H1151 C1160 0.950 . S
H1152 C1162 0.950 . S
H1153 C1164 0.950 . S
H1154 C1166 0.950 . S
H1155 C1167 0.950 . S
C1156 H1148 0.950 . S
C1156 C1157 1.386 . S
C1156 C1158 1.391 . S
C1157 C1156 1.386 . S
C1157 C1161 1.393 . S
C1158 H1150 0.950 1_455 S
C1158 C1156 1.391 . S
C1158 C1159 1.400 . S
C1159 C1158 1.400 . S
C1159 C1160 1.398 . S
C1159 C1165 1.491 1_455 S
C1160 H1151 0.950 . S
C1160 C1159 1.398 . S
C1160 C1161 1.391 . S
C1161 H1149 0.950 . S
C1161 C1157 1.393 . S
C1161 C1160 1.391 . S
C1162 H1152 0.950 . S
C1162 C1163 1.386 . S
C1162 C1164 1.391 . S
C1163 C1162 1.386 . S
C1163 C1167 1.393 . S
C1164 H1153 0.950 . S
C1164 C1162 1.391 . S
C1164 C1165 1.400 . S
C1165 C1159 1.491 1_655 S
C1165 C1164 1.400 . S
C1165 C1166 1.398 . S
C1166 H1154 0.950 . S
C1166 C1165 1.398 . S
C1166 C1167 1.391 . S
C1167 H1155 0.950 . S
C1167 C1163 1.393 . S
C1167 C1166 1.391 . S
H1168 C1176 0.950 . S
H1169 C1181 0.950 . S
H1170 C1178 0.950 . S
H1171 C1180 0.950 . S
H1172 C1182 0.950 . S
H1173 C1184 0.950 . S
H1174 C1186 0.950 . S
H1175 C1187 0.950 . S
C1176 H1168 0.950 . S
C1176 C1177 1.386 . S
C1176 C1178 1.391 . S
C1177 C1176 1.386 . S
C1177 C1181 1.393 . S
C1178 H1170 0.950 . S
C1178 C1176 1.391 . S
C1178 C1179 1.400 . S
C1179 C1178 1.400 . S
C1179 C1180 1.398 . S
C1179 C1185 1.491 1_565 S
C1180 H1171 0.950 . S
C1180 C1179 1.398 . S
C1180 C1181 1.391 . S
C1181 H1169 0.950 . S
C1181 C1177 1.393 . S
C1181 C1180 1.391 . S
C1182 H1172 0.950 . S
C1182 C1183 1.386 . S
C1182 C1184 1.391 . S
C1183 C1182 1.386 . S
C1183 C1187 1.393 . S
C1184 H1173 0.950 . S
C1184 C1182 1.391 . S
C1184 C1185 1.400 . S
C1185 C1179 1.491 1_545 S
C1185 C1184 1.400 . S
C1185 C1186 1.398 . S
C1186 H1174 0.950 . S
C1186 C1185 1.398 . S
C1186 C1187 1.391 . S
C1187 H1175 0.950 . S
C1187 C1183 1.393 . S
C1187 C1186 1.391 . S
H1188 C1196 0.950 . S
H1189 C1201 0.950 . S
H1190 C1198 0.950 . S
H1191 C1200 0.950 . S
H1192 C1202 0.950 . S
H1193 C1204 0.950 . S
H1194 C1206 0.950 . S
H1195 C1207 0.950 . S
C1196 H1188 0.950 . S
C1196 C1197 1.386 . S
C1196 C1198 1.391 . S
C1197 C1196 1.386 . S
C1197 C1201 1.393 . S
C1198 H1190 0.950 . S
C1198 C1196 1.391 . S
C1198 C1199 1.400 . S
C1199 C1198 1.400 . S
C1199 C1200 1.398 . S
C1199 C1205 1.491 . S
C1200 H1191 0.950 . S
C1200 C1199 1.398 . S
C1200 C1201 1.391 . S
C1201 H1189 0.950 . S
C1201 C1197 1.393 . S
C1201 C1200 1.391 . S
C1202 H1192 0.950 . S
C1202 C1203 1.386 . S
C1202 C1204 1.391 . S
C1203 C1202 1.386 . S
C1203 C1207 1.393 . S
C1204 H1193 0.950 . S
C1204 C1202 1.391 . S
C1204 C1205 1.400 . S
C1205 C1199 1.491 . S
C1205 C1204 1.400 . S
C1205 C1206 1.398 . S
C1206 H1194 0.950 . S
C1206 C1205 1.398 . S
C1206 C1207 1.391 . S
C1207 H1195 0.950 . S
C1207 C1203 1.393 . S
C1207 C1206 1.391 . S
H1208 C1216 0.950 . S
H1209 C1221 0.950 . S
H1210 C1218 0.949 . S
H1211 C1220 0.950 . S
H1212 C1222 0.950 . S
H1213 C1224 0.950 . S
H1214 C1226 0.950 . S
H1215 C1227 0.950 . S
C1216 H1208 0.950 . S
C1216 C1217 1.386 . S
C1216 C1218 1.391 . S
C1217 C1216 1.386 . S
C1217 C1221 1.393 . S
C1218 H1210 0.949 . S
C1218 C1216 1.391 . S
C1218 C1219 1.400 . S
C1219 C1218 1.400 . S
C1219 C1220 1.398 . S
C1219 C1225 1.491 1_455 S
C1220 H1211 0.950 . S
C1220 C1219 1.398 . S
C1220 C1221 1.391 . S
C1221 H1209 0.950 . S
C1221 C1217 1.393 . S
C1221 C1220 1.391 . S
C1222 H1212 0.950 . S
C1222 C1223 1.386 . S
C1222 C1224 1.391 . S
C1223 C1222 1.386 . S
C1223 C1227 1.393 . S
C1224 H1213 0.950 . S
C1224 C1222 1.391 . S
C1224 C1225 1.400 . S
C1225 C1219 1.491 1_655 S
C1225 C1224 1.400 . S
C1225 C1226 1.398 . S
C1226 H1214 0.950 . S
C1226 C1225 1.398 . S
C1226 C1227 1.391 . S
C1227 H1215 0.950 . S
C1227 C1223 1.393 . S
C1227 C1226 1.391 . S
H1228 C1236 0.950 . S
H1229 C1241 0.950 . S
H1230 C1238 0.950 . S
H1231 C1240 0.950 . S
H1232 C1242 0.950 . S
H1233 C1244 0.950 . S
H1234 C1246 0.950 . S
H1235 C1247 0.950 . S
C1236 H1228 0.950 . S
C1236 C1237 1.386 . S
C1236 C1238 1.391 . S
C1237 C1236 1.386 . S
C1237 C1241 1.393 . S
C1238 H1230 0.950 . S
C1238 C1236 1.391 . S
C1238 C1239 1.400 . S
C1239 C1238 1.400 . S
C1239 C1240 1.398 . S
C1239 C1245 1.491 1_545 S
C1240 H1231 0.950 . S
C1240 C1239 1.398 . S
C1240 C1241 1.391 . S
C1241 H1229 0.950 . S
C1241 C1237 1.393 . S
C1241 C1240 1.391 . S
C1242 H1232 0.950 . S
C1242 C1243 1.386 . S
C1242 C1244 1.391 . S
C1243 C1242 1.386 . S
C1243 C1247 1.393 . S
C1244 H1233 0.950 . S
C1244 C1242 1.391 . S
C1244 C1245 1.400 . S
C1245 C1239 1.491 1_565 S
C1245 C1244 1.400 . S
C1245 C1246 1.398 . S
C1246 H1234 0.950 . S
C1246 C1245 1.398 . S
C1246 C1247 1.391 . S
C1247 H1235 0.950 . S
C1247 C1243 1.393 . S
C1247 C1246 1.391 . S
H1248 C1256 0.950 . S
H1249 C1261 0.950 . S
H1250 C1258 0.950 . S
H1251 C1260 0.950 . S
H1252 C1262 0.950 . S
H1253 C1264 0.950 . S
H1254 C1266 0.950 . S
H1255 C1267 0.950 . S
C1256 H1248 0.950 . S
C1256 C1257 1.386 . S
C1256 C1258 1.391 . S
C1257 C1256 1.386 . S
C1257 C1261 1.393 . S
C1258 H1250 0.950 . S
C1258 C1256 1.391 . S
C1258 C1259 1.400 . S
C1259 C1258 1.400 . S
C1259 C1260 1.398 . S
C1259 C1265 1.491 . S
C1260 H1251 0.950 . S
C1260 C1259 1.398 . S
C1260 C1261 1.391 . S
C1261 H1249 0.950 . S
C1261 C1257 1.393 . S
C1261 C1260 1.391 . S
C1262 H1252 0.950 . S
C1262 C1263 1.386 . S
C1262 C1264 1.391 . S
C1263 C1262 1.386 . S
C1263 C1267 1.393 . S
C1264 H1253 0.950 . S
C1264 C1262 1.391 . S
C1264 C1265 1.400 . S
C1265 C1259 1.491 . S
C1265 C1264 1.400 . S
C1265 C1266 1.398 . S
C1266 H1254 0.950 . S
C1266 C1265 1.398 . S
C1266 C1267 1.391 . S
C1267 H1255 0.950 . S
C1267 C1263 1.393 . S
C1267 C1266 1.391 . S
H1268 C1276 0.950 . S
H1269 C1281 0.950 . S
H1270 C1278 0.950 . S
H1271 C1280 0.950 . S
H1272 C1282 0.950 . S
H1273 C1284 0.950 . S
H1274 C1286 0.950 . S
H1275 C1287 0.950 . S
C1276 H1268 0.950 . S
C1276 C1277 1.386 . S
C1276 C1278 1.391 . S
C1277 C1276 1.386 . S
C1277 C1281 1.393 . S
C1278 H1270 0.950 . S
C1278 C1276 1.391 . S
C1278 C1279 1.400 . S
C1279 C1278 1.400 . S
C1279 C1280 1.398 . S
C1279 C1285 1.491 . S
C1280 H1271 0.950 . S
C1280 C1279 1.398 . S
C1280 C1281 1.391 . S
C1281 H1269 0.950 . S
C1281 C1277 1.393 . S
C1281 C1280 1.391 . S
C1282 H1272 0.950 . S
C1282 C1283 1.386 . S
C1282 C1284 1.391 . S
C1283 C1282 1.386 . S
C1283 C1287 1.393 . S
C1284 H1273 0.950 . S
C1284 C1282 1.391 . S
C1284 C1285 1.400 . S
C1285 C1279 1.491 . S
C1285 C1284 1.400 . S
C1285 C1286 1.398 . S
C1286 H1274 0.950 . S
C1286 C1285 1.398 . S
C1286 C1287 1.391 . S
C1287 H1275 0.950 . S
C1287 C1283 1.393 . S
C1287 C1286 1.391 . S
H1288 C1296 0.950 . S
H1289 C1301 0.950 . S
H1290 C1298 0.950 . S
H1291 C1300 0.950 . S
H1292 C1302 0.950 . S
H1293 C1304 0.950 . S
H1294 C1306 0.950 . S
H1295 C1307 0.950 . S
C1296 H1288 0.950 . S
C1296 C1297 1.386 . S
C1296 C1298 1.391 . S
C1297 C1296 1.386 . S
C1297 C1301 1.393 . S
C1298 H1290 0.950 . S
C1298 C1296 1.391 . S
C1298 C1299 1.400 . S
C1299 C1298 1.400 . S
C1299 C1300 1.398 . S
C1299 C1305 1.491 . S
C1300 H1291 0.950 . S
C1300 C1299 1.398 . S
C1300 C1301 1.391 . S
C1301 H1289 0.950 . S
C1301 C1297 1.393 . S
C1301 C1300 1.391 . S
C1302 H1292 0.950 . S
C1302 C1303 1.386 . S
C1302 C1304 1.391 . S
C1303 C1302 1.386 . S
C1303 C1307 1.393 . S
C1304 H1293 0.950 . S
C1304 C1302 1.391 . S
C1304 C1305 1.400 . S
C1305 C1299 1.491 . S
C1305 C1304 1.400 . S
C1305 C1306 1.398 . S
C1306 H1294 0.950 . S
C1306 C1305 1.398 . S
C1306 C1307 1.391 . S
C1307 H1295 0.950 . S
C1307 C1303 1.393 . S
C1307 C1306 1.391 . S
H1308 C1316 0.950 . S
H1309 C1321 0.950 . S
H1310 C1318 0.950 . S
H1311 C1320 0.950 . S
H1312 C1322 0.950 . S
H1313 C1324 0.950 . S
H1314 C1326 0.950 . S
H1315 C1327 0.950 . S
C1316 H1308 0.950 . S
C1316 C1317 1.386 . S
C1316 C1318 1.391 . S
C1317 C1316 1.386 . S
C1317 C1321 1.393 . S
C1318 H1310 0.950 . S
C1318 C1316 1.391 . S
C1318 C1319 1.400 . S
C1319 C1318 1.400 . S
C1319 C1320 1.398 . S
C1319 C1325 1.491 . S
C1320 H1311 0.950 . S
C1320 C1319 1.398 . S
C1320 C1321 1.391 . S
C1321 H1309 0.950 . S
C1321 C1317 1.393 . S
C1321 C1320 1.391 . S
C1322 H1312 0.950 . S
C1322 C1323 1.386 . S
C1322 C1324 1.391 . S
C1323 C1322 1.386 . S
C1323 C1327 1.393 . S
C1324 H1313 0.950 . S
C1324 C1322 1.391 . S
C1324 C1325 1.400 . S
C1325 C1319 1.491 . S
C1325 C1324 1.400 . S
C1325 C1326 1.398 . S
C1326 H1314 0.950 . S
C1326 C1325 1.398 . S
C1326 C1327 1.391 . S
C1327 H1315 0.950 . S
C1327 C1323 1.393 . S
C1327 C1326 1.391 . S
H1328 C1336 0.950 . S
H1329 C1341 0.950 . S
H1330 C1338 0.950 . S
H1331 C1340 0.950 . S
H1332 C1342 0.950 . S
H1333 C1344 0.950 . S
H1334 C1346 0.950 . S
H1335 C1347 0.950 . S
C1336 H1328 0.950 . S
C1336 C1337 1.386 . S
C1336 C1338 1.391 . S
C1337 C1336 1.386 . S
C1337 C1341 1.393 . S
C1338 H1330 0.950 . S
C1338 C1336 1.391 . S
C1338 C1339 1.400 . S
C1339 C1338 1.400 . S
C1339 C1340 1.398 . S
C1339 C1345 1.491 . S
C1340 H1331 0.950 . S
C1340 C1339 1.398 . S
C1340 C1341 1.391 . S
C1341 H1329 0.950 . S
C1341 C1337 1.393 . S
C1341 C1340 1.391 . S
C1342 H1332 0.950 . S
C1342 C1343 1.386 . S
C1342 C1344 1.391 . S
C1343 C1342 1.386 . S
C1343 C1347 1.393 . S
C1344 H1333 0.950 . S
C1344 C1342 1.391 . S
C1344 C1345 1.400 . S
C1345 C1339 1.491 . S
C1345 C1344 1.400 . S
C1345 C1346 1.398 . S
C1346 H1334 0.950 . S
C1346 C1345 1.398 . S
C1346 C1347 1.391 . S
C1347 H1335 0.950 . S
C1347 C1343 1.393 . S
C1347 C1346 1.391 . S
H1348 C1356 0.950 . S
H1349 C1361 0.950 . S
H1350 C1358 0.950 . S
H1351 C1360 0.950 . S
H1352 C1362 0.950 . S
H1353 C1364 0.950 . S
H1354 C1366 0.950 . S
H1355 C1367 0.950 . S
C1356 H1348 0.950 . S
C1356 C1357 1.386 . S
C1356 C1358 1.391 . S
C1357 C1356 1.386 . S
C1357 C1361 1.393 . S
C1358 H1350 0.950 . S
C1358 C1356 1.391 . S
C1358 C1359 1.400 . S
C1359 C1358 1.400 . S
C1359 C1360 1.398 . S
C1359 C1365 1.491 . S
C1360 H1351 0.950 . S
C1360 C1359 1.398 . S
C1360 C1361 1.391 . S
C1361 H1349 0.950 . S
C1361 C1357 1.393 . S
C1361 C1360 1.391 . S
C1362 H1352 0.950 . S
C1362 C1363 1.386 . S
C1362 C1364 1.391 . S
C1363 C1362 1.386 . S
C1363 C1367 1.393 . S
C1364 H1353 0.950 . S
C1364 C1362 1.391 . S
C1364 C1365 1.400 . S
C1365 C1359 1.491 . S
C1365 C1364 1.400 . S
C1365 C1366 1.398 . S
C1366 H1354 0.950 . S
C1366 C1365 1.398 . S
C1366 C1367 1.391 . S
C1367 H1355 0.950 . S
C1367 C1363 1.393 . S
C1367 C1366 1.391 . S
H1368 C1376 0.950 . S
H1369 C1381 0.950 . S
H1370 C1378 0.950 . S
H1371 C1380 0.950 . S
H1372 C1382 0.950 . S
H1373 C1384 0.950 . S
H1374 C1386 0.950 . S
H1375 C1387 0.950 . S
C1376 H1368 0.950 . S
C1376 C1377 1.386 . S
C1376 C1378 1.391 . S
C1377 C1376 1.386 . S
C1377 C1381 1.393 . S
C1378 H1370 0.950 . S
C1378 C1376 1.391 . S
C1378 C1379 1.400 . S
C1379 C1378 1.400 . S
C1379 C1380 1.398 . S
C1379 C1385 1.491 1_566 S
C1380 H1371 0.950 . S
C1380 C1379 1.398 . S
C1380 C1381 1.391 . S
C1381 H1369 0.950 . S
C1381 C1377 1.393 . S
C1381 C1380 1.391 . S
C1382 H1372 0.950 . S
C1382 C1383 1.386 . S
C1382 C1384 1.391 . S
C1383 C1382 1.386 . S
C1383 C1387 1.393 . S
C1384 H1373 0.950 . S
C1384 C1382 1.391 . S
C1384 C1385 1.400 . S
C1385 C1379 1.491 1_544 S
C1385 C1384 1.400 . S
C1385 C1386 1.398 . S
C1386 H1374 0.950 . S
C1386 C1385 1.398 . S
C1386 C1387 1.391 . S
C1387 H1375 0.950 . S
C1387 C1383 1.393 . S
C1387 C1386 1.391 . S
H1388 C1396 0.950 . S
H1389 C1401 0.950 . S
H1390 C1398 0.950 . S
H1391 C1400 0.950 . S
H1392 C1402 0.950 . S
H1393 C1404 0.950 . S
H1394 C1406 0.950 . S
H1395 C1407 0.950 . S
C1396 H1388 0.950 . S
C1396 C1397 1.386 . S
C1396 C1398 1.391 . S
C1397 C1396 1.386 . S
C1397 C1401 1.393 . S
C1398 H1390 0.950 . S
C1398 C1396 1.391 . S
C1398 C1399 1.400 . S
C1399 C1398 1.400 . S
C1399 C1400 1.398 . S
C1399 C1405 1.491 . S
C1400 H1391 0.950 . S
C1400 C1399 1.398 . S
C1400 C1401 1.391 . S
C1401 H1389 0.950 . S
C1401 C1397 1.393 . S
C1401 C1400 1.391 . S
C1402 H1392 0.950 . S
C1402 C1403 1.386 . S
C1402 C1404 1.391 . S
C1403 C1402 1.386 . S
C1403 C1407 1.393 . S
C1404 H1393 0.950 . S
C1404 C1402 1.391 . S
C1404 C1405 1.400 . S
C1405 C1399 1.491 . S
C1405 C1404 1.400 . S
C1405 C1406 1.398 . S
C1406 H1394 0.950 . S
C1406 C1405 1.398 . S
C1406 C1407 1.391 . S
C1407 H1395 0.950 . S
C1407 C1403 1.393 . S
C1407 C1406 1.391 . S
H1408 C1416 0.950 . S
H1409 C1421 0.950 . S
H1410 C1418 0.950 1_655 S
H1411 C1420 0.971 . S
H1412 C1422 0.950 . S
H1413 C1424 0.950 1_455 S
H1414 C1426 0.970 . S
H1415 C1427 0.950 . S
C1416 H1408 0.950 . S
C1416 C1417 1.386 . S
C1416 C1418 1.391 . S
C1417 C1416 1.386 . S
C1417 C1421 1.393 . S
C1418 H1410 0.950 1_455 S
C1418 C1416 1.391 . S
C1418 C1419 1.400 . S
C1419 C1418 1.400 . S
C1419 C1420 1.391 1_556 S
C1419 C1425 1.491 1_456 S
C1420 H1411 0.971 . S
C1420 C1419 1.391 1_554 S
C1420 C1421 1.378 1_554 S
C1421 H1409 0.950 . S
C1421 C1417 1.393 . S
C1421 C1420 1.378 1_556 S
C1422 H1412 0.950 . S
C1422 C1423 1.386 . S
C1422 C1424 1.391 . S
C1423 C1422 1.386 . S
C1423 C1427 1.393 . S
C1424 H1413 0.950 1_655 S
C1424 C1422 1.391 . S
C1424 C1425 1.400 . S
C1425 C1419 1.491 1_654 S
C1425 C1424 1.400 . S
C1425 C1426 1.391 1_554 S
C1426 H1414 0.970 . S
C1426 C1425 1.391 1_556 S
C1426 C1427 1.378 1_556 S
C1427 H1415 0.950 . S
C1427 C1423 1.393 . S
C1427 C1426 1.378 1_554 S
H1428 C1436 0.950 . S
H1429 C1441 0.950 . S
H1430 C1438 0.950 . S
H1431 C1440 0.950 . S
H1432 C1442 0.950 . S
H1433 C1444 0.950 . S
H1434 C1446 0.950 . S
H1435 C1447 0.950 . S
C1436 H1428 0.950 . S
C1436 C1437 1.386 . S
C1436 C1438 1.391 . S
C1437 C1436 1.386 . S
C1437 C1441 1.393 . S
C1438 H1430 0.950 . S
C1438 C1436 1.391 . S
C1438 C1439 1.400 . S
C1439 C1438 1.400 . S
C1439 C1440 1.398 . S
C1439 C1445 1.491 1_545 S
C1440 H1431 0.950 . S
C1440 C1439 1.398 . S
C1440 C1441 1.391 . S
C1441 H1429 0.950 . S
C1441 C1437 1.393 . S
C1441 C1440 1.391 . S
C1442 H1432 0.950 . S
C1442 C1443 1.386 . S
C1442 C1444 1.391 . S
C1443 C1442 1.386 . S
C1443 C1447 1.393 . S
C1444 H1433 0.950 . S
C1444 C1442 1.391 . S
C1444 C1445 1.400 . S
C1445 C1439 1.491 1_565 S
C1445 C1444 1.400 . S
C1445 C1446 1.398 . S
C1446 H1434 0.950 . S
C1446 C1445 1.398 . S
C1446 C1447 1.391 . S
C1447 H1435 0.950 . S
C1447 C1443 1.393 . S
C1447 C1446 1.391 . S
H1448 C1456 0.950 . S
H1449 C1461 0.950 . S
H1450 C1458 0.950 . S
H1451 C1460 0.990 . S
H1452 C1462 0.950 . S
H1453 C1464 0.950 . S
H1454 C1466 0.990 . S
H1455 C1467 0.950 . S
C1456 H1448 0.950 . S
C1456 C1457 1.386 . S
C1456 C1458 1.391 . S
C1457 C1456 1.386 . S
C1457 C1461 1.393 . S
C1458 H1450 0.950 . S
C1458 C1456 1.391 . S
C1458 C1459 1.400 . S
C1459 C1458 1.400 . S
C1459 C1460 1.384 1_554 S
C1459 C1465 1.491 1_554 S
C1460 H1451 0.990 . S
C1460 C1459 1.384 1_556 S
C1460 C1461 1.367 1_556 S
C1461 H1449 0.950 . S
C1461 C1457 1.393 . S
C1461 C1460 1.367 1_554 S
C1462 H1452 0.950 . S
C1462 C1463 1.386 . S
C1462 C1464 1.391 . S
C1463 C1462 1.386 . S
C1463 C1467 1.393 . S
C1464 H1453 0.950 . S
C1464 C1462 1.391 . S
C1464 C1465 1.400 . S
C1465 C1459 1.491 1_556 S
C1465 C1464 1.400 . S
C1465 C1466 1.384 1_556 S
C1466 H1454 0.990 . S
C1466 C1465 1.384 1_554 S
C1466 C1467 1.367 1_554 S
C1467 H1455 0.950 . S
C1467 C1463 1.393 . S
C1467 C1466 1.367 1_556 S
H1468 C1476 0.950 . S
H1469 C1481 0.950 . S
H1470 C1478 0.950 . S
H1471 C1480 0.950 1_655 S
H1472 C1482 0.950 . S
H1473 C1484 0.950 . S
H1474 C1486 0.950 1_455 S
H1475 C1487 0.950 . S
C1476 H1468 0.950 . S
C1476 C1477 1.386 . S
C1476 C1478 1.391 . S
C1477 C1476 1.386 . S
C1477 C1481 1.393 . S
C1478 H1470 0.950 . S
C1478 C1476 1.391 . S
C1478 C1479 1.400 . S
C1479 C1478 1.400 . S
C1479 C1480 1.398 . S
C1479 C1485 1.491 1_455 S
C1480 H1471 0.950 1_455 S
C1480 C1479 1.398 . S
C1480 C1481 1.391 . S
C1481 H1469 0.950 . S
C1481 C1477 1.393 . S
C1481 C1480 1.391 . S
C1482 H1472 0.950 . S
C1482 C1483 1.386 . S
C1482 C1484 1.391 . S
C1483 C1482 1.386 . S
C1483 C1487 1.393 . S
C1484 H1473 0.950 . S
C1484 C1482 1.391 . S
C1484 C1485 1.400 . S
C1485 C1479 1.491 1_655 S
C1485 C1484 1.400 . S
C1485 C1486 1.398 . S
C1486 H1474 0.950 1_655 S
C1486 C1485 1.398 . S
C1486 C1487 1.391 . S
C1487 H1475 0.950 . S
C1487 C1483 1.393 . S
C1487 C1486 1.391 . S
H1488 C1496 0.950 . S
H1489 C1501 0.950 . S
H1490 C1498 0.950 . S
H1491 C1500 0.950 . S
H1492 C1502 0.950 . S
H1493 C1504 0.950 . S
H1494 C1506 0.950 . S
H1495 C1507 0.950 . S
C1496 H1488 0.950 . S
C1496 C1497 1.386 . S
C1496 C1498 1.391 . S
C1497 C1496 1.386 . S
C1497 C1501 1.393 . S
C1498 H1490 0.950 . S
C1498 C1496 1.391 . S
C1498 C1499 1.400 . S
C1499 C1498 1.400 . S
C1499 C1500 1.398 . S
C1499 C1505 1.491 . S
C1500 H1491 0.950 . S
C1500 C1499 1.398 . S
C1500 C1501 1.391 . S
C1501 H1489 0.950 . S
C1501 C1497 1.393 . S
C1501 C1500 1.391 . S
C1502 H1492 0.950 . S
C1502 C1503 1.386 . S
C1502 C1504 1.391 . S
C1503 C1502 1.386 . S
C1503 C1507 1.393 . S
C1504 H1493 0.950 . S
C1504 C1502 1.391 . S
C1504 C1505 1.400 . S
C1505 C1499 1.491 . S
C1505 C1504 1.400 . S
C1505 C1506 1.398 . S
C1506 H1494 0.950 . S
C1506 C1505 1.398 . S
C1506 C1507 1.391 . S
C1507 H1495 0.950 . S
C1507 C1503 1.393 . S
C1507 C1506 1.391 . S
H1508 C1516 0.950 . S
H1509 C1521 0.950 . S
H1510 C1518 0.950 . S
H1511 C1520 0.950 . S
H1512 C1522 0.950 . S
H1513 C1524 0.950 . S
H1514 C1526 0.950 . S
H1515 C1527 0.950 . S
C1516 H1508 0.950 . S
C1516 C1517 1.386 . S
C1516 C1518 1.391 . S
C1517 C1516 1.386 . S
C1517 C1521 1.393 . S
C1518 H1510 0.950 . S
C1518 C1516 1.391 . S
C1518 C1519 1.400 . S
C1519 C1518 1.400 . S
C1519 C1520 1.398 . S
C1519 C1525 1.491 . S
C1520 H1511 0.950 . S
C1520 C1519 1.398 . S
C1520 C1521 1.391 . S
C1521 H1509 0.950 . S
C1521 C1517 1.393 . S
C1521 C1520 1.391 . S
C1522 H1512 0.950 . S
C1522 C1523 1.386 . S
C1522 C1524 1.391 . S
C1523 C1522 1.386 . S
C1523 C1527 1.393 . S
C1524 H1513 0.950 . S
C1524 C1522 1.391 . S
C1524 C1525 1.400 . S
C1525 C1519 1.491 . S
C1525 C1524 1.400 . S
C1525 C1526 1.398 . S
C1526 H1514 0.950 . S
C1526 C1525 1.398 . S
C1526 C1527 1.391 . S
C1527 H1515 0.950 . S
C1527 C1523 1.393 . S
C1527 C1526 1.391 . S
H1528 C1536 0.950 . S
H1529 C1541 0.950 . S
H1530 C1538 0.950 . S
H1531 C1540 0.950 . S
H1532 C1542 0.950 . S
H1533 C1544 0.950 . S
H1534 C1546 0.950 . S
H1535 C1547 0.950 . S
C1536 H1528 0.950 . S
C1536 C1537 1.386 . S
C1536 C1538 1.391 . S
C1537 C1536 1.386 . S
C1537 C1541 1.393 . S
C1538 H1530 0.950 . S
C1538 C1536 1.391 . S
C1538 C1539 1.400 . S
C1539 C1538 1.400 . S
C1539 C1540 1.398 . S
C1539 C1545 1.491 . S
C1540 H1531 0.950 . S
C1540 C1539 1.398 . S
C1540 C1541 1.391 . S
C1541 H1529 0.950 . S
C1541 C1537 1.393 . S
C1541 C1540 1.391 . S
C1542 H1532 0.950 . S
C1542 C1543 1.386 . S
C1542 C1544 1.391 . S
C1543 C1542 1.386 . S
C1543 C1547 1.393 . S
C1544 H1533 0.950 . S
C1544 C1542 1.391 . S
C1544 C1545 1.400 . S
C1545 C1539 1.491 . S
C1545 C1544 1.400 . S
C1545 C1546 1.398 . S
C1546 H1534 0.950 . S
C1546 C1545 1.398 . S
C1546 C1547 1.391 . S
C1547 H1535 0.950 . S
C1547 C1543 1.393 . S
C1547 C1546 1.391 . S
H1548 C1556 0.950 . S
H1549 C1561 0.950 . S
H1550 C1558 0.950 . S
H1551 C1560 0.950 . S
H1552 C1562 0.950 . S
H1553 C1564 0.950 . S
H1554 C1566 0.950 . S
H1555 C1567 0.950 . S
C1556 H1548 0.950 . S
C1556 C1557 1.386 . S
C1556 C1558 1.391 . S
C1557 C1556 1.386 . S
C1557 C1561 1.393 . S
C1558 H1550 0.950 . S
C1558 C1556 1.391 . S
C1558 C1559 1.400 . S
C1559 C1558 1.400 . S
C1559 C1560 1.398 . S
C1559 C1565 1.491 . S
C1560 H1551 0.950 . S
C1560 C1559 1.398 . S
C1560 C1561 1.391 . S
C1561 H1549 0.950 . S
C1561 C1557 1.393 . S
C1561 C1560 1.391 . S
C1562 H1552 0.950 . S
C1562 C1563 1.386 . S
C1562 C1564 1.391 . S
C1563 C1562 1.386 . S
C1563 C1567 1.393 . S
C1564 H1553 0.950 . S
C1564 C1562 1.391 . S
C1564 C1565 1.400 . S
C1565 C1559 1.491 . S
C1565 C1564 1.400 . S
C1565 C1566 1.398 . S
C1566 H1554 0.950 . S
C1566 C1565 1.398 . S
C1566 C1567 1.391 . S
C1567 H1555 0.950 . S
C1567 C1563 1.393 . S
C1567 C1566 1.391 . S
H1568 C1576 0.950 . S
H1569 C1581 0.950 . S
H1570 C1578 0.950 . S
H1571 C1580 0.950 . S
H1572 C1582 0.950 . S
H1573 C1584 0.950 . S
H1574 C1586 0.950 . S
H1575 C1587 0.950 . S
C1576 H1568 0.950 . S
C1576 C1577 1.386 . S
C1576 C1578 1.391 . S
C1577 C1576 1.386 . S
C1577 C1581 1.393 . S
C1578 H1570 0.950 . S
C1578 C1576 1.391 . S
C1578 C1579 1.400 . S
C1579 C1578 1.400 . S
C1579 C1580 1.398 . S
C1579 C1585 1.491 . S
C1580 H1571 0.950 . S
C1580 C1579 1.398 . S
C1580 C1581 1.391 . S
C1581 H1569 0.950 . S
C1581 C1577 1.393 . S
C1581 C1580 1.391 . S
C1582 H1572 0.950 . S
C1582 C1583 1.386 . S
C1582 C1584 1.391 . S
C1583 C1582 1.386 . S
C1583 C1587 1.393 . S
C1584 H1573 0.950 . S
C1584 C1582 1.391 . S
C1584 C1585 1.400 . S
C1585 C1579 1.491 . S
C1585 C1584 1.400 . S
C1585 C1586 1.398 . S
C1586 H1574 0.950 . S
C1586 C1585 1.398 . S
C1586 C1587 1.391 . S
C1587 H1575 0.950 . S
C1587 C1583 1.393 . S
C1587 C1586 1.391 . S
H1588 C1596 0.950 . S
H1589 C1601 0.950 . S
H1590 C1598 0.950 . S
H1591 C1600 0.950 . S
H1592 C1602 0.950 . S
H1593 C1604 0.950 . S
H1594 C1606 0.950 . S
H1595 C1607 0.950 . S
C1596 H1588 0.950 . S
C1596 C1597 1.386 . S
C1596 C1598 1.391 . S
C1597 C1596 1.386 . S
C1597 C1601 1.393 . S
C1598 H1590 0.950 . S
C1598 C1596 1.391 . S
C1598 C1599 1.400 . S
C1599 C1598 1.400 . S
C1599 C1600 1.398 . S
C1599 C1605 1.491 . S
C1600 H1591 0.950 . S
C1600 C1599 1.398 . S
C1600 C1601 1.391 . S
C1601 H1589 0.950 . S
C1601 C1597 1.393 . S
C1601 C1600 1.391 . S
C1602 H1592 0.950 . S
C1602 C1603 1.386 . S
C1602 C1604 1.391 . S
C1603 C1602 1.386 . S
C1603 C1607 1.393 . S
C1604 H1593 0.950 . S
C1604 C1602 1.391 . S
C1604 C1605 1.400 . S
C1605 C1599 1.491 . S
C1605 C1604 1.400 . S
C1605 C1606 1.398 . S
C1606 H1594 0.950 . S
C1606 C1605 1.398 . S
C1606 C1607 1.391 . S
C1607 H1595 0.950 . S
C1607 C1603 1.393 . S
C1607 C1606 1.391 . S
H1608 C1616 0.950 . S
H1609 C1621 0.950 . S
H1610 C1618 0.950 . S
H1611 C1620 0.950 . S
H1612 C1622 0.950 . S
H1613 C1624 0.950 . S
H1614 C1626 0.950 . S
H1615 C1627 0.950 . S
C1616 H1608 0.950 . S
C1616 C1617 1.386 . S
C1616 C1618 1.391 . S
C1617 C1616 1.386 . S
C1617 C1621 1.393 . S
C1618 H1610 0.950 . S
C1618 C1616 1.391 . S
C1618 C1619 1.400 . S
C1619 C1618 1.400 . S
C1619 C1620 1.398 . S
C1619 C1625 1.491 . S
C1620 H1611 0.950 . S
C1620 C1619 1.398 . S
C1620 C1621 1.391 . S
C1621 H1609 0.950 . S
C1621 C1617 1.393 . S
C1621 C1620 1.391 . S
C1622 H1612 0.950 . S
C1622 C1623 1.386 . S
C1622 C1624 1.391 . S
C1623 C1622 1.386 . S
C1623 C1627 1.393 . S
C1624 H1613 0.950 . S
C1624 C1622 1.391 . S
C1624 C1625 1.400 . S
C1625 C1619 1.491 . S
C1625 C1624 1.400 . S
C1625 C1626 1.398 . S
C1626 H1614 0.950 . S
C1626 C1625 1.398 . S
C1626 C1627 1.391 . S
C1627 H1615 0.950 . S
C1627 C1623 1.393 . S
C1627 C1626 1.391 . S
H1628 C1636 0.950 . S
H1629 C1641 0.950 . S
H1630 C1638 0.950 . S
H1631 C1640 0.950 . S
H1632 C1642 0.950 . S
H1633 C1644 0.950 . S
H1634 C1646 0.950 . S
H1635 C1647 0.950 . S
C1636 H1628 0.950 . S
C1636 C1637 1.386 . S
C1636 C1638 1.391 . S
C1637 C1636 1.386 . S
C1637 C1641 1.393 . S
C1638 H1630 0.950 . S
C1638 C1636 1.391 . S
C1638 C1639 1.400 . S
C1639 C1638 1.400 . S
C1639 C1640 1.398 . S
C1639 C1645 1.491 . S
C1640 H1631 0.950 . S
C1640 C1639 1.398 . S
C1640 C1641 1.391 . S
C1641 H1629 0.950 . S
C1641 C1637 1.393 . S
C1641 C1640 1.391 . S
C1642 H1632 0.950 . S
C1642 C1643 1.386 . S
C1642 C1644 1.391 . S
C1643 C1642 1.386 . S
C1643 C1647 1.393 . S
C1644 H1633 0.950 . S
C1644 C1642 1.391 . S
C1644 C1645 1.400 . S
C1645 C1639 1.491 . S
C1645 C1644 1.400 . S
C1645 C1646 1.398 . S
C1646 H1634 0.950 . S
C1646 C1645 1.398 . S
C1646 C1647 1.391 . S
C1647 H1635 0.950 . S
C1647 C1643 1.393 . S
C1647 C1646 1.391 . S
H1648 C1656 0.950 . S
H1649 C1661 0.950 . S
H1650 C1658 0.950 . S
H1651 C1660 0.950 . S
H1652 C1662 0.950 . S
H1653 C1664 0.950 . S
H1654 C1666 0.950 . S
H1655 C1667 0.950 . S
C1656 H1648 0.950 . S
C1656 C1657 1.386 . S
C1656 C1658 1.391 . S
C1657 C1656 1.386 . S
C1657 C1661 1.393 . S
C1658 H1650 0.950 . S
C1658 C1656 1.391 . S
C1658 C1659 1.400 . S
C1659 C1658 1.400 . S
C1659 C1660 1.398 . S
C1659 C1665 1.491 . S
C1660 H1651 0.950 . S
C1660 C1659 1.398 . S
C1660 C1661 1.391 . S
C1661 H1649 0.950 . S
C1661 C1657 1.393 . S
C1661 C1660 1.391 . S
C1662 H1652 0.950 . S
C1662 C1663 1.386 . S
C1662 C1664 1.391 . S
C1663 C1662 1.386 . S
C1663 C1667 1.393 . S
C1664 H1653 0.950 . S
C1664 C1662 1.391 . S
C1664 C1665 1.400 . S
C1665 C1659 1.491 . S
C1665 C1664 1.400 . S
C1665 C1666 1.398 . S
C1666 H1654 0.950 . S
C1666 C1665 1.398 . S
C1666 C1667 1.391 . S
C1667 H1655 0.950 . S
C1667 C1663 1.393 . S
C1667 C1666 1.391 . S
H1668 C1676 0.950 . S
H1669 C1681 0.950 . S
H1670 C1678 0.950 . S
H1671 C1680 0.950 . S
H1672 C1682 0.950 . S
H1673 C1684 0.950 . S
H1674 C1686 0.950 . S
H1675 C1687 0.950 . S
C1676 H1668 0.950 . S
C1676 C1677 1.386 . S
C1676 C1678 1.391 . S
C1677 C1676 1.386 . S
C1677 C1681 1.393 . S
C1678 H1670 0.950 . S
C1678 C1676 1.391 . S
C1678 C1679 1.400 . S
C1679 C1678 1.400 . S
C1679 C1680 1.398 . S
C1679 C1685 1.491 . S
C1680 H1671 0.950 . S
C1680 C1679 1.398 . S
C1680 C1681 1.391 . S
C1681 H1669 0.950 . S
C1681 C1677 1.393 . S
C1681 C1680 1.391 . S
C1682 H1672 0.950 . S
C1682 C1683 1.386 . S
C1682 C1684 1.391 . S
C1683 C1682 1.386 . S
C1683 C1687 1.393 . S
C1684 H1673 0.950 . S
C1684 C1682 1.391 . S
C1684 C1685 1.400 . S
C1685 C1679 1.491 . S
C1685 C1684 1.400 . S
C1685 C1686 1.398 . S
C1686 H1674 0.950 . S
C1686 C1685 1.398 . S
C1686 C1687 1.391 . S
C1687 H1675 0.950 . S
C1687 C1683 1.393 . S
C1687 C1686 1.391 . S
H1688 C1696 0.950 . S
H1689 C1701 0.950 . S
H1690 C1698 0.950 . S
H1691 C1700 0.950 . S
H1692 C1702 0.950 . S
H1693 C1704 0.950 . S
H1694 C1706 0.950 . S
H1695 C1707 0.950 . S
C1696 H1688 0.950 . S
C1696 C1697 1.386 . S
C1696 C1698 1.391 . S
C1697 C1696 1.386 . S
C1697 C1701 1.393 . S
C1698 H1690 0.950 . S
C1698 C1696 1.391 . S
C1698 C1699 1.400 . S
C1699 C1698 1.400 . S
C1699 C1700 1.398 . S
C1699 C1705 1.491 . S
C1700 H1691 0.950 . S
C1700 C1699 1.398 . S
C1700 C1701 1.391 . S
C1701 H1689 0.950 . S
C1701 C1697 1.393 . S
C1701 C1700 1.391 . S
C1702 H1692 0.950 . S
C1702 C1703 1.386 . S
C1702 C1704 1.391 . S
C1703 C1702 1.386 . S
C1703 C1707 1.393 . S
C1704 H1693 0.950 . S
C1704 C1702 1.391 . S
C1704 C1705 1.400 . S
C1705 C1699 1.491 . S
C1705 C1704 1.400 . S
C1705 C1706 1.398 . S
C1706 H1694 0.950 . S
C1706 C1705 1.398 . S
C1706 C1707 1.391 . S
C1707 H1695 0.950 . S
C1707 C1703 1.393 . S
C1707 C1706 1.391 . S
H1708 C1716 0.950 . S
H1709 C1721 0.950 . S
H1710 C1718 0.950 . S
H1711 C1720 0.950 . S
H1712 C1722 0.950 . S
H1713 C1724 0.950 . S
H1714 C1726 0.950 . S
H1715 C1727 0.950 . S
C1716 H1708 0.950 . S
C1716 C1717 1.386 . S
C1716 C1718 1.391 . S
C1717 C1716 1.386 . S
C1717 C1721 1.393 . S
C1718 H1710 0.950 . S
C1718 C1716 1.391 . S
C1718 C1719 1.400 . S
C1719 C1718 1.400 . S
C1719 C1720 1.398 . S
C1719 C1725 1.491 . S
C1720 H1711 0.950 . S
C1720 C1719 1.398 . S
C1720 C1721 1.391 . S
C1721 H1709 0.950 . S
C1721 C1717 1.393 . S
C1721 C1720 1.391 . S
C1722 H1712 0.950 . S
C1722 C1723 1.386 . S
C1722 C1724 1.391 . S
C1723 C1722 1.386 . S
C1723 C1727 1.393 . S
C1724 H1713 0.950 . S
C1724 C1722 1.391 . S
C1724 C1725 1.400 . S
C1725 C1719 1.491 . S
C1725 C1724 1.400 . S
C1725 C1726 1.398 . S
C1726 H1714 0.950 . S
C1726 C1725 1.398 . S
C1726 C1727 1.391 . S
C1727 H1715 0.950 . S
C1727 C1723 1.393 . S
C1727 C1726 1.391 . S
C1017 C238 1.229 . S
C1023 C67 1.293 . S
C1037 C310 1.198 . S
C1043 C140 1.322 . S
C1057 C235 1.322 . S
C1063 C406 1.195 . S
C1077 C308 1.316 . S
C1083 C478 1.221 . S
C1097 C70 1.239 . S
C1103 C403 1.299 . S
C1117 C142 1.214 . S
C1123 C476 1.296 . S
C1137 C898 1.198 . S
C1143 C560 1.305 . S
C1157 C655 1.318 . S
C1163 C994 1.190 . S
C1177 C728 1.315 . S
C1183 C562 1.223 . S
C1197 C823 1.321 . S
C1203 C658 1.191 . S
C1217 C896 1.293 . S
C1223 C730 1.226 . S
C1237 C826 1.221 . S
C1243 C991 1.294 . S
C1257 C326 1.945 . S
C1263 C63 1.925 . S
C1277 C158 1.947 . S
C1283 C399 1.923 . S
C1297 C231 1.937 . S
C1303 C494 1.934 . S
C1317 C578 1.928 . S
C1323 C819 1.943 . S
C1337 C651 1.939 . S
C1343 C914 1.932 . S
C1357 C746 1.935 . S
C1363 C987 1.935 . S
C1377 C662 2.142 . S
C1383 C74 2.136 . S
C1397 C147 2.144 . S
C1403 C735 2.157 . S
C1417 C830 2.157 . S
C1423 C242 2.141 . S
C1437 C315 2.142 . S
C1443 C903 2.136 . S
C1457 C410 2.154 . S
C1463 C998 2.136 . S
C1477 C567 2.154 . S
C1483 C483 2.136 . S
C1497 C226 1.297 . S
C1503 C56 1.402 . S
C1517 C151 1.424 . S
C1523 C322 1.298 . S
C1537 C224 1.422 . S
C1543 C394 1.324 . S
C1557 C319 1.408 . S
C1563 C490 1.293 . S
C1577 C58 1.291 . S
C1583 C392 1.411 . S
C1597 C154 1.299 . S
C1603 C487 1.425 . S
C1617 C910 1.335 . S
C1623 C571 1.413 . S
C1637 C644 1.393 . S
C1643 C982 1.326 . S
C1657 C739 1.392 . S
C1663 C574 1.319 . S
C1677 C646 1.317 . S
C1683 C812 1.425 . S
C1697 C907 1.408 . S
C1703 C742 1.293 . S
C1717 C980 1.426 . S
C1723 C814 1.305 . S
