# Generated by pormake.
# Topology wmn, (6)-cn, num edge types: 1
# Building blocks:
#     Node 0, Type 0, BuildingBlock: KUMJIN_clean_sbu_1, # of connection points: 6
#     Node 1, Type 0, BuildingBlock: KUMJIN_clean_sbu_1, # of connection points: 6
#     Node 2, Type 0, BuildingBlock: KUMJIN_clean_sbu_1, # of connection points: 6
#     Node 3, Type 0, BuildingBlock: KUMJIN_clean_sbu_1, # of connection points: 6
#     Node 4, Type 0, BuildingBlock: KUMJIN_clean_sbu_1, # of connection points: 6
#     Node 5, Type 0, BuildingBlock: KUMJIN_clean_sbu_1, # of connection points: 6
#     Node 6, Type 0, BuildingBlock: KUMJIN_clean_sbu_1, # of connection points: 6
#     Node 7, Type 0, BuildingBlock: KUMJIN_clean_sbu_1, # of connection points: 6
#     Node 8, Type 0, BuildingBlock: KUMJIN_clean_sbu_1, # of connection points: 6
#     Node 9, Type 0, BuildingBlock: KUMJIN_clean_sbu_1, # of connection points: 6
#     Node 10, Type 0, BuildingBlock: KUMJIN_clean_sbu_1, # of connection points: 6
#     Node 11, Type 0, BuildingBlock: KUMJIN_clean_sbu_1, # of connection points: 6
#     Edge 12, Type (0, 0), BuildingBlock: ZUJKAS_clean_linker_0, # of connection points: 2
#     Edge 13, Type (0, 0), BuildingBlock: ZUJKAS_clean_linker_0, # of connection points: 2
#     Edge 14, Type (0, 0), BuildingBlock: ZUJKAS_clean_linker_0, # of connection points: 2
#     Edge 15, Type (0, 0), BuildingBlock: ZUJKAS_clean_linker_0, # of connection points: 2
#     Edge 16, Type (0, 0), BuildingBlock: ZUJKAS_clean_linker_0, # of connection points: 2
#     Edge 17, Type (0, 0), BuildingBlock: ZUJKAS_clean_linker_0, # of connection points: 2
#     Edge 18, Type (0, 0), BuildingBlock: ZUJKAS_clean_linker_0, # of connection points: 2
#     Edge 19, Type (0, 0), BuildingBlock: ZUJKAS_clean_linker_0, # of connection points: 2
#     Edge 20, Type (0, 0), BuildingBlock: ZUJKAS_clean_linker_0, # of connection points: 2
#     Edge 21, Type (0, 0), BuildingBlock: ZUJKAS_clean_linker_0, # of connection points: 2
#     Edge 22, Type (0, 0), BuildingBlock: ZUJKAS_clean_linker_0, # of connection points: 2
#     Edge 23, Type (0, 0), BuildingBlock: ZUJKAS_clean_linker_0, # of connection points: 2
#     Edge 24, Type (0, 0), BuildingBlock: ZUJKAS_clean_linker_0, # of connection points: 2
#     Edge 25, Type (0, 0), BuildingBlock: ZUJKAS_clean_linker_0, # of connection points: 2
#     Edge 26, Type (0, 0), BuildingBlock: ZUJKAS_clean_linker_0, # of connection points: 2
#     Edge 27, Type (0, 0), BuildingBlock: ZUJKAS_clean_linker_0, # of connection points: 2
#     Edge 28, Type (0, 0), BuildingBlock: ZUJKAS_clean_linker_0, # of connection points: 2
#     Edge 29, Type (0, 0), BuildingBlock: ZUJKAS_clean_linker_0, # of connection points: 2
#     Edge 30, Type (0, 0), BuildingBlock: ZUJKAS_clean_linker_0, # of connection points: 2
#     Edge 31, Type (0, 0), BuildingBlock: ZUJKAS_clean_linker_0, # of connection points: 2
#     Edge 32, Type (0, 0), BuildingBlock: ZUJKAS_clean_linker_0, # of connection points: 2
#     Edge 33, Type (0, 0), BuildingBlock: ZUJKAS_clean_linker_0, # of connection points: 2
#     Edge 34, Type (0, 0), BuildingBlock: ZUJKAS_clean_linker_0, # of connection points: 2
#     Edge 35, Type (0, 0), BuildingBlock: ZUJKAS_clean_linker_0, # of connection points: 2
#     Edge 36, Type (0, 0), BuildingBlock: ZUJKAS_clean_linker_0, # of connection points: 2
#     Edge 37, Type (0, 0), BuildingBlock: ZUJKAS_clean_linker_0, # of connection points: 2
#     Edge 38, Type (0, 0), BuildingBlock: ZUJKAS_clean_linker_0, # of connection points: 2
#     Edge 39, Type (0, 0), BuildingBlock: ZUJKAS_clean_linker_0, # of connection points: 2
#     Edge 40, Type (0, 0), BuildingBlock: ZUJKAS_clean_linker_0, # of connection points: 2
#     Edge 41, Type (0, 0), BuildingBlock: ZUJKAS_clean_linker_0, # of connection points: 2
#     Edge 42, Type (0, 0), BuildingBlock: ZUJKAS_clean_linker_0, # of connection points: 2
#     Edge 43, Type (0, 0), BuildingBlock: ZUJKAS_clean_linker_0, # of connection points: 2
#     Edge 44, Type (0, 0), BuildingBlock: ZUJKAS_clean_linker_0, # of connection points: 2
#     Edge 45, Type (0, 0), BuildingBlock: ZUJKAS_clean_linker_0, # of connection points: 2
#     Edge 46, Type (0, 0), BuildingBlock: ZUJKAS_clean_linker_0, # of connection points: 2
#     Edge 47, Type (0, 0), BuildingBlock: ZUJKAS_clean_linker_0, # of connection points: 2
# Relax obj value: 0.145
# Max RMSD: 0.297
# Mean RMSD: 0.297
data_MOF--net-wmn--node1-KUMJIN_clean_sbu_1--edge1-ZUJKAS_clean_linker_0
_symmetry_space_group_name_H-M    P1
_symmetry_Int_Tables_number       1
_symmetry_cell_setting            triclinic
loop_
_symmetry_equiv_pos_as_xyz
'x, y, z'
_cell_length_a     72.178304
_cell_length_b     72.274502
_cell_length_c     31.182434
_cell_angle_alpha  90.094135
_cell_angle_beta   89.881072
_cell_angle_gamma 120.0904
loop_
_atom_site_label
_atom_site_type_symbol
_atom_site_fract_x
_atom_site_fract_y
_atom_site_fract_z
_atom_type_partial_charge
Eu0 Eu 0.11471 0.40438 0.05196 0.0
C1 C 0.09016 0.30022 0.07427 0.0
N2 N 0.10068 0.31668 0.10236 0.0
C3 C 0.0797 0.29403 0.16043 0.0
C4 C 0.07301 0.28038 0.08799 0.0
C5 C 0.09658 0.3134 0.14536 0.0
C6 C 0.06757 0.2776 0.13152 0.0
C7 C 0.08588 0.28642 0.00161 0.0
C8 C 0.09663 0.3031 0.03158 0.0
C9 C 0.0684 0.26691 0.01499 0.0
C10 C 0.06197 0.2639 0.05803 0.0
Eu11 Eu 0.12677 0.34961 0.07146 0.0
N12 N 0.11287 0.32249 0.01896 0.0
C13 C 0.09278 0.28998 0.95887 0.0
C14 C 0.12002 0.32591 0.9776 0.0
C15 C 0.11007 0.30975 0.94694 0.0
H16 H 0.10624 0.32564 0.16841 0.0
H17 H 0.11564 0.3126 0.91405 0.0
H18 H 0.14324 0.433 0.96481 0.0
H19 H 0.11412 0.43418 0.21313 0.0
H20 H 0.1333 0.34112 0.96801 0.0
H21 H 0.08491 0.27758 0.93489 0.0
H22 H 0.09973 0.40884 0.15247 0.0
H23 H 0.07612 0.29175 0.19439 0.0
H24 H 0.05976 0.25402 0.9923 0.0
H25 H 0.04855 0.24869 0.06792 0.0
H26 H 0.17606 0.46709 0.95012 0.0
H27 H 0.05444 0.26263 0.14329 0.0
H28 H 0.14827 0.46823 0.20494 0.0
N29 N 0.14526 0.43714 0.0325 0.0
C30 C 0.15426 0.45159 0.06511 0.0
C31 C 0.17043 0.46271 0.98276 0.0
C32 C 0.17269 0.4717 0.0579 0.0
C33 C 0.15214 0.44305 0.99134 0.0
C34 C 0.18106 0.47688 0.01633 0.0
N35 N 0.12585 0.428 0.11111 0.0
C36 C 0.11468 0.42358 0.14874 0.0
C37 C 0.15285 0.46206 0.13887 0.0
C38 C 0.14417 0.44709 0.10513 0.0
C39 C 0.14204 0.45715 0.17826 0.0
C40 C 0.12276 0.43793 0.18304 0.0
H41 H 0.19511 0.4922 0.00947 0.0
H42 H 0.19598 0.50174 0.08689 0.0
H43 H 0.17884 0.49315 0.15785 0.0
O44 O 0.08762 0.40835 0.07151 0.0
O45 O 0.1369 0.40718 0.10659 0.0
O46 O 0.14585 0.38573 0.07242 0.0
O47 O 0.09875 0.41421 0.00588 0.0
O48 O 0.10485 0.37336 0.08208 0.0
O49 O 0.11162 0.35602 0.1299 0.0
O50 O 0.15237 0.34304 0.05298 0.0
O51 O 0.09586 0.34123 0.03374 0.0
O52 O 0.09022 0.37072 0.02556 0.0
O53 O 0.14807 0.34831 0.11938 0.0
O54 O 0.1393 0.37145 0.01281 0.0
O55 O 0.13147 0.3988 0.99576 0.0
C56 C 0.14827 0.3977 0.1058 0.0
C57 C 0.08706 0.43665 0.03429 0.0
C58 C 0.06948 0.45798 0.03285 0.0
C59 C 0.08963 0.47663 0.03058 0.0
C60 C 0.10698 0.45559 0.0319 0.0
C61 C 0.10824 0.47541 0.03 0.0
C62 C 0.06815 0.43785 0.03446 0.0
C63 C 0.10294 0.36761 0.12176 0.0
C64 C 0.08639 0.4159 0.0343 0.0
C65 C 0.18168 0.48636 0.09183 0.0
C66 C 0.17185 0.48152 0.13221 0.0
C67 C 0.0847 0.35019 0.01962 0.0
C68 C 0.16481 0.32757 0.10502 0.0
C69 C 0.18909 0.3129 0.09974 0.0
C70 C 0.17798 0.29923 0.13429 0.0
C71 C 0.15389 0.31333 0.1387 0.0
C72 C 0.18244 0.32729 0.08554 0.0
C73 C 0.16054 0.29938 0.15328 0.0
C74 C 0.14013 0.38671 0.9876 0.0
C75 C 0.15887 0.34368 0.09207 0.0
H76 H 0.09093 0.49221 0.02848 0.0
H77 H 0.12162 0.45511 0.03063 0.0
H78 H 0.12369 0.48986 0.02765 0.0
H79 H 0.05265 0.42336 0.03564 0.0
H80 H 0.1829 0.28846 0.1472 0.0
H81 H 0.14041 0.31319 0.15433 0.0
H82 H 0.19086 0.3382 0.05941 0.0
H83 H 0.15224 0.28872 0.17976 0.0
Eu84 Eu 0.60351 0.71355 0.05172 0.0
C85 C 0.70441 0.77778 0.0665 0.0
N86 N 0.68835 0.77307 0.09502 0.0
C87 C 0.70899 0.76904 0.15082 0.0
C88 C 0.72295 0.77722 0.07878 0.0
C89 C 0.69137 0.77062 0.13744 0.0
C90 C 0.72466 0.77188 0.12111 0.0
C91 C 0.72008 0.79111 0.9963 0.0
C92 C 0.70317 0.78489 0.02587 0.0
C93 C 0.73816 0.78983 0.00796 0.0
C94 C 0.73966 0.78306 0.0492 0.0
Eu95 Eu 0.65861 0.77521 0.06805 0.0
N96 N 0.68562 0.78625 0.01558 0.0
C97 C 0.71849 0.79889 0.95618 0.0
C98 C 0.6844 0.79475 0.97741 0.0
C99 C 0.70065 0.80091 0.94687 0.0
H100 H 0.68064 0.7706 0.16147 0.0
H101 H 0.69949 0.80734 0.91633 0.0
H102 H 0.5779 0.72246 0.97076 0.0
H103 H 0.5744 0.68131 0.21191 0.0
H104 H 0.67083 0.79675 0.97073 0.0
H105 H 0.73112 0.80378 0.93256 0.0
H106 H 0.59909 0.69252 0.15 0.0
H107 H 0.71082 0.76632 0.18428 0.0
H108 H 0.75129 0.79449 0.98565 0.0
H109 H 0.75402 0.78279 0.05818 0.0
H110 H 0.5446 0.72319 0.95964 0.0
H111 H 0.73855 0.77113 0.13169 0.0
H112 H 0.54125 0.68333 0.20753 0.0
N113 N 0.57293 0.71642 0.0378 0.0
C114 C 0.55834 0.70994 0.07039 0.0
C115 C 0.5485 0.71996 0.99122 0.0
C116 C 0.53878 0.70966 0.06513 0.0
C117 C 0.56771 0.7201 0.99795 0.0
C118 C 0.53417 0.71514 0.02515 0.0
N119 N 0.58088 0.70201 0.11241 0.0
C120 C 0.58496 0.69388 0.1483 0.0
C121 C 0.54755 0.69583 0.14273 0.0
C122 C 0.56235 0.7025 0.10855 0.0
C123 C 0.55217 0.68848 0.18051 0.0
C124 C 0.57089 0.68734 0.18316 0.0
H125 H 0.51924 0.71492 0.01972 0.0
H126 H 0.50915 0.70315 0.09587 0.0
H127 H 0.51705 0.69151 0.16402 0.0
O128 O 0.59235 0.67905 0.06255 0.0
O129 O 0.60327 0.73382 0.10756 0.0
O130 O 0.62364 0.76473 0.0737 0.0
O131 O 0.58696 0.69028 0.00187 0.0
O132 O 0.63293 0.72061 0.08779 0.0
O133 O 0.64773 0.7519 0.12517 0.0
O134 O 0.66971 0.80927 0.05395 0.0
O135 O 0.6604 0.75353 0.01606 0.0
O136 O 0.63663 0.71816 0.03555 0.0
O137 O 0.66887 0.79876 0.11974 0.0
O138 O 0.63481 0.77221 0.01699 0.0
O139 O 0.61396 0.73636 0.99441 0.0
C140 C 0.61226 0.75462 0.10713 0.0
C141 C 0.579 0.65387 0.00218 0.0
C142 C 0.56231 0.61486 0.0011 0.0
C143 C 0.5647 0.61555 0.9564 0.0
C144 C 0.5813 0.65401 0.9573 0.0
C145 C 0.57413 0.63497 0.93471 0.0
C146 C 0.5694 0.63406 0.02414 0.0
C147 C 0.6393 0.73094 0.12397 0.0
C148 C 0.58358 0.67381 0.02473 0.0
C149 C 0.52414 0.70326 0.09931 0.0
C150 C 0.52858 0.69652 0.13808 0.0
C151 C 0.65474 0.7331 0.01773 0.0
C152 C 0.68241 0.83689 0.11019 0.0
C153 C 0.68988 0.87384 0.10318 0.0
C154 C 0.7002 0.87861 0.14312 0.0
C155 C 0.69283 0.84224 0.15009 0.0
C156 C 0.68116 0.85292 0.08636 0.0
C157 C 0.70174 0.86295 0.16622 0.0
C158 C 0.62323 0.75728 0.98839 0.0
C159 C 0.6736 0.8147 0.09402 0.0
H160 H 0.55903 0.6009 0.93816 0.0
H161 H 0.58814 0.6688 0.93935 0.0
H162 H 0.57563 0.63522 0.90014 0.0
H163 H 0.56696 0.63354 0.05853 0.0
H164 H 0.70717 0.89458 0.15642 0.0
H165 H 0.69432 0.83042 0.16876 0.0
H166 H 0.67322 0.8491 0.05549 0.0
H167 H 0.70987 0.8669 0.19685 0.0
Eu168 Eu 0.2973 0.89481 0.05152 0.0
C169 C 0.22428 0.92316 0.06468 0.0
N170 N 0.23096 0.91433 0.09523 0.0
C171 C 0.23188 0.93919 0.14745 0.0
C172 C 0.22226 0.94118 0.07412 0.0
C173 C 0.23385 0.92147 0.1366 0.0
C174 C 0.22633 0.94925 0.116 0.0
C175 C 0.21466 0.92439 0.99042 0.0
C176 C 0.22027 0.91472 0.02322 0.0
C177 C 0.21292 0.94248 -0.00026 0.0
C178 C 0.21665 0.9508 0.04145 0.0
Eu179 Eu 0.23399 0.8847 0.07262 0.0
N180 N 0.22308 0.89778 0.01447 0.0
C181 C 0.21129 0.91579 0.949 0.0
C182 C 0.21906 0.88887 0.97461 0.0
C183 C 0.2133 0.89784 0.94118 0.0
H184 H 0.23732 0.91341 0.16166 0.0
H185 H 0.21039 0.89089 0.90941 0.0
H186 H 0.28861 0.86276 0.96438 0.0
H187 H 0.33079 0.89343 0.20789 0.0
H188 H 0.22009 0.87475 0.96863 0.0
H189 H 0.207 0.9228 0.92291 0.0
H190 H 0.31917 0.90865 0.15013 0.0
H191 H 0.23454 0.945 0.18016 0.0
H192 H 0.20877 0.9502 0.97485 0.0
H193 H 0.21528 0.96479 0.04805 0.0
H194 H 0.28658 0.82855 0.94854 0.0
H195 H 0.225 0.96308 0.12448 0.0
H196 H 0.32843 0.85838 0.19741 0.0
N197 N 0.29529 0.86235 0.03086 0.0
C198 C 0.30143 0.85308 0.06162 0.0
C199 C 0.29035 0.83506 0.98069 0.0
C200 C 0.30109 0.8337 0.05337 0.0
C201 C 0.29099 0.85427 0.99017 0.0
C202 C 0.29505 0.82453 0.0126 0.0
N203 N 0.3098 0.88231 0.10814 0.0
C204 C 0.31805 0.89339 0.14542 0.0
C205 C 0.31562 0.85414 0.13306 0.0
C206 C 0.30901 0.86335 0.101 0.0
C207 C 0.32329 0.86501 0.17202 0.0
C208 C 0.32465 0.88479 0.17809 0.0
H209 H 0.29469 0.80972 0.005 0.0
H210 H 0.30698 0.80939 0.07974 0.0
H211 H 0.31941 0.82713 0.14956 0.0
O212 O 0.33062 0.91926 0.06687 0.0
O213 O 0.27828 0.87433 0.10874 0.0
O214 O 0.24679 0.86201 0.07598 0.0
O215 O 0.32168 0.90767 0.00216 0.0
O216 O 0.28636 0.91406 0.08892 0.0
O217 O 0.25656 0.89804 0.13003 0.0
O218 O 0.1999 0.86203 0.05892 0.0
O219 O 0.25708 0.91517 0.03635 0.0
O220 O 0.29141 0.92046 0.02318 0.0
O221 O 0.21123 0.87018 0.12517 0.0
O222 O 0.23992 0.86405 0.02576 0.0
O223 O 0.27396 0.88243 0.99524 0.0
C224 C 0.25759 0.86146 0.10881 0.0
C225 C 0.35724 0.91908 0.02159 0.0
C226 C 0.39627 0.93709 0.01996 0.0
C227 C 0.39488 0.91889 0.00047 0.0
C228 C 0.35634 0.90092 0.00297 0.0
C229 C 0.37507 0.90097 0.99209 0.0
C230 C 0.37734 0.93728 0.03006 0.0
C231 C 0.27753 0.90994 0.12673 0.0
C232 C 0.33733 0.91973 0.0279 0.0
C233 C 0.30733 0.82435 0.08553 0.0
C234 C 0.31449 0.83449 0.12526 0.0
C235 C 0.27652 0.92594 0.01971 0.0
C236 C 0.17295 0.84571 0.11613 0.0
C237 C 0.13487 0.81945 0.10586 0.0
C238 C 0.13107 0.8226 0.14875 0.0
C239 C 0.16852 0.84835 0.15885 0.0
C240 C 0.156 0.831 0.08959 0.0
C241 C 0.14777 0.83685 0.17497 0.0
C242 C 0.25308 0.86924 0.99266 0.0
C243 C 0.19495 0.85963 0.0995 0.0
H244 H 0.40924 0.91866 0.99118 0.0
H245 H 0.34113 0.88682 0.99573 0.0
H246 H 0.37423 0.88713 0.97673 0.0
H247 H 0.37824 0.95148 0.04394 0.0
H248 H 0.11509 0.81384 0.16222 0.0
H249 H 0.18109 0.85964 0.17981 0.0
H250 H 0.1591 0.8289 0.05643 0.0
H251 H 0.14458 0.8391 0.20792 0.0
Eu252 Eu 0.40903 0.11563 0.44177 0.0
C253 C 0.3055 0.08382 0.43195 0.0
N254 N 0.32053 0.09598 0.40234 0.0
C255 C 0.29752 0.0739 0.34578 0.0
C256 C 0.28624 0.06549 0.41962 0.0
C257 C 0.3162 0.09213 0.35952 0.0
C258 C 0.28269 0.06025 0.37602 0.0
C259 C 0.29296 0.07895 0.50563 0.0
C260 C 0.3088 0.09042 0.47448 0.0
C261 C 0.27421 0.06013 0.4938 0.0
C262 C 0.27088 0.0534 0.45091 0.0
Eu263 Eu 0.35297 0.12412 0.43057 0.0
N264 N 0.3273 0.10839 0.48528 0.0
C265 C 0.2964 0.08685 0.54768 0.0
C266 C 0.33047 0.11667 0.52567 0.0
C267 C 0.31513 0.10594 0.5576 0.0
H268 H 0.32738 0.10281 0.3358 0.0
H269 H 0.31781 0.1123 0.58987 0.0
H270 H 0.43277 0.15029 0.52426 0.0
H271 H 0.44129 0.11159 0.28594 0.0
H272 H 0.34508 0.13126 0.53326 0.0
H273 H 0.28461 0.07849 0.57254 0.0
H274 H 0.41416 0.09971 0.34355 0.0
H275 H 0.29457 0.07043 0.31189 0.0
H276 H 0.26201 0.05087 0.51742 0.0
H277 H 0.25612 0.03912 0.4421 0.0
H278 H 0.4674 0.18207 0.54019 0.0
H279 H 0.26819 0.04618 0.3653 0.0
H280 H 0.47699 0.14356 0.29672 0.0
N281 N 0.44113 0.14705 0.46033 0.0
C282 C 0.45727 0.15383 0.4309 0.0
C283 C 0.46463 0.17449 0.50906 0.0
C284 C 0.47749 0.1719 0.43896 0.0
C285 C 0.44478 0.15663 0.49955 0.0
C286 C 0.48098 0.18231 0.47849 0.0
N287 N 0.43403 0.12518 0.38553 0.0
C288 C 0.42956 0.11386 0.34822 0.0
C289 C 0.46974 0.1497 0.36085 0.0
C290 C 0.45369 0.14254 0.3926 0.0
C291 C 0.46512 0.13847 0.32201 0.0
C292 C 0.44496 0.12045 0.31573 0.0
H293 H 0.49634 0.19615 0.48604 0.0
H294 H 0.50921 0.19283 0.41323 0.0
H295 H 0.50227 0.17368 0.34459 0.0
O296 O 0.41658 0.09008 0.43306 0.0
O297 O 0.41686 0.14225 0.39336 0.0
O298 O 0.38562 0.13306 0.41434 0.0
O299 O 0.42026 0.10438 0.49537 0.0
O300 O 0.38458 0.09708 0.38945 0.0
O301 O 0.35791 0.10644 0.3756 0.0
O302 O 0.34918 0.15138 0.44914 0.0
O303 O 0.35293 0.10091 0.48022 0.0
O304 O 0.37421 0.08871 0.44908 0.0
O305 O 0.34824 0.14306 0.38239 0.0
O306 O 0.38254 0.14631 0.46913 0.0
O307 O 0.39722 0.12726 0.49913 0.0
C308 C 0.40086 0.14504 0.38787 0.0
C309 C 0.44386 0.09179 0.47676 0.0
C310 C 0.46449 0.07352 0.47902 0.0
C311 C 0.48333 0.09334 0.48336 0.0
C312 C 0.46288 0.11144 0.48163 0.0
C313 C 0.4825 0.11218 0.48473 0.0
C314 C 0.44468 0.07272 0.47558 0.0
C315 C 0.36877 0.09659 0.36684 0.0
C316 C 0.42323 0.09109 0.47209 0.0
C317 C 0.49363 0.1789 0.40761 0.0
C318 C 0.48972 0.16793 0.36858 0.0
C319 C 0.35743 0.08564 0.47193 0.0
C320 C 0.32889 0.16019 0.40215 0.0
C321 C 0.31598 0.18565 0.40397 0.0
C322 C 0.29778 0.17101 0.38077 0.0
C323 C 0.3104 0.14568 0.37957 0.0
C324 C 0.33146 0.18005 0.41489 0.0
C325 C 0.29497 0.15113 0.36897 0.0
C326 C 0.38996 0.14085 0.50238 0.0
C327 C 0.34626 0.15551 0.40991 0.0
H328 H 0.4987 0.09418 0.48627 0.0
H329 H 0.46262 0.12622 0.4833 0.0
H330 H 0.49709 0.1274 0.48846 0.0
H331 H 0.43008 0.05744 0.47212 0.0
H332 H 0.28558 0.17487 0.37214 0.0
H333 H 0.30803 0.13029 0.36954 0.0
H334 H 0.34575 0.19136 0.43209 0.0
H335 H 0.28085 0.13997 0.35124 0.0
Eu336 Eu 0.89815 0.29548 0.4439 0.0
C337 C 0.93058 0.23003 0.43468 0.0
N338 N 0.92025 0.23524 0.40472 0.0
C339 C 0.94606 0.23902 0.3516 0.0
C340 C 0.94997 0.23064 0.4247 0.0
C341 C 0.92672 0.23778 0.36282 0.0
C342 C 0.95803 0.23598 0.38292 0.0
C343 C 0.93121 0.21675 0.506 0.0
C344 C 0.92128 0.22305 0.47496 0.0
C345 C 0.95091 0.21817 0.49657 0.0
C346 C 0.96031 0.2252 0.45614 0.0
Eu347 Eu 0.88847 0.23409 0.42904 0.0
N348 N 0.90274 0.22285 0.48417 0.0
C349 C 0.92125 0.20969 0.54601 0.0
C350 C 0.89269 0.21555 0.52265 0.0
C351 C 0.90186 0.20898 0.55426 0.0
H352 H 0.91701 0.2387 0.33757 0.0
H353 H 0.894 0.20343 0.58499 0.0
H354 H 0.86382 0.28516 0.52702 0.0
H355 H 0.8997 0.32854 0.28603 0.0
H356 H 0.87764 0.21492 0.52881 0.0
H357 H 0.92842 0.20478 0.57073 0.0
H358 H 0.91349 0.31619 0.34566 0.0
H359 H 0.95151 0.24193 0.31863 0.0
H360 H 0.95896 0.21377 0.52029 0.0
H361 H 0.97536 0.22589 0.44916 0.0
H362 H 0.8295 0.28348 0.54025 0.0
H363 H 0.97292 0.23673 0.37405 0.0
H364 H 0.86489 0.32717 0.29362 0.0
N365 N 0.86485 0.29261 0.46067 0.0
C366 C 0.85638 0.29927 0.42929 0.0
C367 C 0.83665 0.2875 0.50863 0.0
C368 C 0.83701 0.2992 0.43597 0.0
C369 C 0.8559 0.2879 0.50062 0.0
C370 C 0.82698 0.29285 0.476 0.0
N371 N 0.8865 0.30765 0.3856 0.0
C372 C 0.89828 0.31559 0.34898 0.0
C373 C 0.85918 0.31411 0.35794 0.0
C374 C 0.86755 0.30712 0.39091 0.0
C375 C 0.87086 0.32175 0.31975 0.0
C376 C 0.89053 0.32256 0.31533 0.0
H377 H 0.81216 0.29271 0.48247 0.0
H378 H 0.81363 0.30595 0.40763 0.0
H379 H 0.83284 0.31864 0.33913 0.0
O380 O 0.92214 0.32898 0.43252 0.0
O381 O 0.87742 0.27554 0.38795 0.0
O382 O 0.86344 0.24379 0.42116 0.0
O383 O 0.90791 0.31923 0.49513 0.0
O384 O 0.92049 0.29073 0.40145 0.0
O385 O 0.90136 0.25676 0.37146 0.0
O386 O 0.86526 0.20003 0.4436 0.0
O387 O 0.91277 0.25577 0.47988 0.0
O388 O 0.92619 0.29035 0.45529 0.0
O389 O 0.87602 0.21045 0.37793 0.0
O390 O 0.86666 0.23937 0.47323 0.0
O391 O 0.88747 0.27321 0.50221 0.0
C392 C 0.86347 0.25508 0.38858 0.0
C393 C 0.9195 0.35479 0.47361 0.0
C394 C 0.93714 0.39368 0.47263 0.0
C395 C 0.91707 0.39223 0.47673 0.0
C396 C 0.89958 0.35365 0.47758 0.0
C397 C 0.89844 0.37232 0.47935 0.0
C398 C 0.93834 0.37488 0.47143 0.0
C399 C 0.91684 0.27693 0.37062 0.0
C400 C 0.92084 0.33522 0.47086 0.0
C401 C 0.82855 0.30603 0.40307 0.0
C402 C 0.83954 0.31335 0.36411 0.0
C403 C 0.92836 0.27581 0.47636 0.0
C404 C 0.85176 0.17241 0.3871 0.0
C405 C 0.8219 0.13551 0.39151 0.0
C406 C 0.82897 0.13087 0.35313 0.0
C407 C 0.85835 0.16719 0.34877 0.0
C408 C 0.83358 0.15635 0.40896 0.0
C409 C 0.8471 0.14656 0.33213 0.0
C410 C 0.87277 0.2528 0.50565 0.0
C411 C 0.86445 0.19455 0.40362 0.0
H412 H 0.91586 0.40656 0.47829 0.0
H413 H 0.88493 0.33835 0.47933 0.0
H414 H 0.88306 0.37139 0.48269 0.0
H415 H 0.95378 0.37588 0.46825 0.0
H416 H 0.82049 0.11494 0.33948 0.0
H417 H 0.8724 0.17907 0.33174 0.0
H418 H 0.82833 0.1601 0.43864 0.0
H419 H 0.85244 0.1427 0.30274 0.0
Eu420 Eu 0.71458 0.60154 0.44209 0.0
C421 C 0.78963 0.70151 0.42913 0.0
N422 N 0.78405 0.68595 0.39899 0.0
C423 C 0.78545 0.70978 0.34411 0.0
C424 C 0.79227 0.7216 0.41794 0.0
C425 C 0.78278 0.69003 0.35673 0.0
C426 C 0.78992 0.72553 0.3749 0.0
C427 C 0.7966 0.71255 0.50386 0.0
C428 C 0.79189 0.69708 0.47172 0.0
C429 C 0.79879 0.73239 0.49285 0.0
C430 C 0.79667 0.73691 0.45005 0.0
Eu431 Eu 0.77778 0.65266 0.42484 0.0
N432 N 0.78851 0.67729 0.48197 0.0
C433 C 0.7987 0.70751 0.54626 0.0
C434 C 0.79153 0.67264 0.52276 0.0
C435 C 0.79647 0.68759 0.55562 0.0
H436 H 0.77956 0.67804 0.33263 0.0
H437 H 0.79854 0.68374 0.58814 0.0
H438 H 0.72819 0.57895 0.52271 0.0
H439 H 0.67897 0.56845 0.28671 0.0
H440 H 0.79037 0.65755 0.52996 0.0
H441 H 0.80229 0.71896 0.57188 0.0
H442 H 0.69107 0.59453 0.34667 0.0
H443 H 0.78395 0.7128 0.31068 0.0
H444 H 0.80211 0.74436 0.51723 0.0
H445 H 0.79838 0.75229 0.44214 0.0
H446 H 0.73354 0.54834 0.533 0.0
H447 H 0.79168 0.74071 0.36508 0.0
H448 H 0.68335 0.53667 0.29157 0.0
N449 N 0.72057 0.57283 0.45644 0.0
C450 C 0.71408 0.55776 0.42482 0.0
C451 C 0.72861 0.55108 0.50203 0.0
C452 C 0.71592 0.53935 0.42997 0.0
C453 C 0.72634 0.56897 0.4956 0.0
C454 C 0.72376 0.53641 0.46882 0.0
N455 N 0.70253 0.57776 0.38376 0.0
C456 C 0.693 0.58066 0.34868 0.0
C457 C 0.69784 0.54486 0.35463 0.0
C458 C 0.70462 0.56015 0.38779 0.0
C459 C 0.68868 0.54804 0.3178 0.0
C460 C 0.68617 0.56596 0.3149 0.0
H461 H 0.72529 0.52242 0.47411 0.0
H462 H 0.71068 0.50998 0.40027 0.0
H463 H 0.69524 0.515 0.33413 0.0
O464 O 0.68031 0.59329 0.43502 0.0
O465 O 0.7338 0.60162 0.38418 0.0
O466 O 0.76426 0.61717 0.42035 0.0
O467 O 0.69087 0.5807 0.48723 0.0
O468 O 0.71987 0.62825 0.3971 0.0
O469 O 0.7549 0.64429 0.36864 0.0
O470 O 0.81052 0.66101 0.44109 0.0
O471 O 0.75424 0.66107 0.45543 0.0
O472 O 0.71975 0.63272 0.47097 0.0
O473 O 0.80118 0.65889 0.37429 0.0
O474 O 0.76992 0.62611 0.47178 0.0
O475 O 0.73649 0.61445 0.50077 0.0
C476 C 0.75387 0.60691 0.38622 0.0
C477 C 0.65349 0.56955 0.48917 0.0
C478 C 0.61459 0.55369 0.48892 0.0
C479 C 0.61381 0.54623 0.53077 0.0
C480 C 0.65208 0.56189 0.53126 0.0
C481 C 0.63242 0.55032 0.55173 0.0
C482 C 0.63451 0.56542 0.46777 0.0
C483 C 0.73483 0.64007 0.36874 0.0
C484 C 0.67498 0.58125 0.46908 0.0
C485 C 0.70927 0.52414 0.39686 0.0
C486 C 0.70036 0.52693 0.35926 0.0
C487 C 0.73472 0.65316 0.47124 0.0
C488 C 0.83854 0.6801 0.39079 0.0
C489 C 0.87719 0.69394 0.3944 0.0
C490 C 0.88036 0.71007 0.36526 0.0
C491 C 0.84214 0.69655 0.36219 0.0
C492 C 0.85619 0.67907 0.4074 0.0
C493 C 0.86297 0.71146 0.34964 0.0
C494 C 0.75691 0.62041 0.50475 0.0
C495 C 0.81664 0.66291 0.40121 0.0
H496 H 0.59863 0.53711 0.54731 0.0
H497 H 0.66626 0.56479 0.54867 0.0
H498 H 0.63161 0.54447 0.58401 0.0
H499 H 0.63519 0.57109 0.43534 0.0
H500 H 0.89636 0.72169 0.35472 0.0
H501 H 0.82887 0.69769 0.34903 0.0
H502 H 0.85353 0.66629 0.42921 0.0
H503 H 0.86564 0.72401 0.32729 0.0
Eu504 Eu 0.8897 0.65921 0.93234 0.0
C505 C 0.85414 0.55784 0.93736 0.0
N506 N 0.86385 0.57386 0.96688 0.0
C507 C 0.83845 0.55167 0.02033 0.0
C508 C 0.83554 0.53843 0.94808 0.0
C509 C 0.85693 0.57054 0.00847 0.0
C510 C 0.82753 0.53568 0.98989 0.0
C511 C 0.85368 0.54382 0.86599 0.0
C512 C 0.86327 0.56032 0.89674 0.0
C513 C 0.83483 0.52483 0.87637 0.0
C514 C 0.82582 0.52213 0.91728 0.0
Eu515 Eu 0.89557 0.60436 0.94285 0.0
N516 N 0.88146 0.57893 0.88713 0.0
C517 C 0.86342 0.54681 0.82572 0.0
C518 C 0.89127 0.58174 0.84833 0.0
C519 C 0.88239 0.5658 0.81698 0.0
H520 H 0.86586 0.58199 0.03322 0.0
H521 H 0.89011 0.56821 0.78606 0.0
H522 H 0.92069 0.68551 0.84597 0.0
H523 H 0.89467 0.68835 0.09541 0.0
H524 H 0.90578 0.59634 0.84145 0.0
H525 H 0.85652 0.5345 0.80131 0.0
H526 H 0.87798 0.66359 0.03406 0.0
H527 H 0.83289 0.5493 0.05321 0.0
H528 H 0.82723 0.51202 0.85312 0.0
H529 H 0.81148 0.5072 0.92501 0.0
H530 H 0.95625 0.7164 0.83168 0.0
H531 H 0.81333 0.52098 -0.00063 0.0
H532 H 0.93031 0.72073 0.08678 0.0
N533 N 0.92291 0.68942 0.91359 0.0
C534 C 0.93326 0.7034 0.94618 0.0
C535 C 0.95026 0.71266 0.86423 0.0
C536 C 0.95326 0.72202 0.93924 0.0
C537 C 0.93037 0.69462 0.87258 0.0
C538 C 0.96199 0.72619 0.89788 0.0
N539 N 0.90426 0.68152 0.99241 0.0
C540 C 0.89361 0.6776 0.03046 0.0
C541 C 0.93353 0.71421 0.0202 0.0
C542 C 0.92348 0.69962 0.9863 0.0
C543 C 0.92307 0.70994 0.05992 0.0
C544 C 0.90297 0.69163 0.06498 0.0
H545 H 0.97729 0.74032 0.89125 0.0
H546 H 0.97904 0.75047 0.9686 0.0
H547 H 0.96181 0.74363 0.03942 0.0
O548 O 0.8631 0.66523 0.9495 0.0
O549 O 0.91136 0.65677 0.98323 0.0
O550 O 0.92458 0.63759 0.94985 0.0
O551 O 0.88361 0.68044 0.89391 0.0
O552 O 0.86564 0.62936 0.9678 0.0
O553 O 0.88492 0.6159 0.00047 0.0
O554 O 0.91794 0.5932 0.92734 0.0
O555 O 0.87075 0.60111 0.89309 0.0
O556 O 0.86693 0.63144 0.89216 0.0
O557 O 0.90868 0.59329 0.99319 0.0
O558 O 0.91644 0.63246 0.90141 0.0
O559 O 0.90081 0.64989 0.87111 0.0
C560 C 0.92732 0.65345 0.97479 0.0
C561 C 0.85602 0.68961 0.90532 0.0
C562 C 0.82485 0.69474 0.90716 0.0
C563 C 0.83481 0.71086 0.87606 0.0
C564 C 0.86544 0.70593 0.87441 0.0
C565 C 0.85493 0.71645 0.86007 0.0
C566 C 0.83568 0.68422 0.92231 0.0
C567 C 0.87017 0.62151 0.00146 0.0
C568 C 0.86739 0.67792 0.91668 0.0
C569 C 0.96359 0.73623 0.97331 0.0
C570 C 0.95372 0.73238 0.0136 0.0
C571 C 0.86154 0.61195 0.8801 0.0
C572 C 0.91824 0.56751 0.97331 0.0
C573 C 0.93565 0.54605 0.97532 0.0
C574 C 0.91598 0.52807 0.98622 0.0
C575 C 0.89871 0.54933 0.98415 0.0
C576 C 0.93679 0.56585 0.96898 0.0
C577 C 0.89765 0.52974 0.99068 0.0
C578 C 0.9114 0.63947 0.86734 0.0
C579 C 0.91948 0.58824 0.96671 0.0
H580 H 0.82705 0.7194 0.86437 0.0
H581 H 0.88099 0.71055 0.86083 0.0
H582 H 0.8624 0.72895 0.83622 0.0
H583 H 0.82811 0.67162 0.94599 0.0
H584 H 0.9149 0.51275 0.99169 0.0
H585 H 0.88431 0.55029 0.98783 0.0
H586 H 0.95197 0.57982 0.96075 0.0
H587 H 0.88259 0.51581 -0.00065 0.0
Eu588 Eu 0.35312 0.23035 0.92803 0.0
C589 C 0.45947 0.30449 0.92389 0.0
N590 N 0.4447 0.29659 0.95607 0.0
C591 C 0.47027 0.29524 0.00289 0.0
C592 C 0.47994 0.30688 0.92949 0.0
C593 C 0.45016 0.29308 0.99582 0.0
C594 C 0.4851 0.30184 0.96941 0.0
C595 C 0.46903 0.31817 0.85109 0.0
C596 C 0.45426 0.31051 0.88528 0.0
C597 C 0.48922 0.32005 0.85634 0.0
C598 C 0.49469 0.31451 0.89544 0.0
Eu599 Eu 0.41165 0.29423 0.94069 0.0
N600 N 0.43437 0.30802 0.88064 0.0
C601 C 0.46298 0.32354 0.8125 0.0
C602 C 0.42853 0.31369 0.84358 0.0
C603 C 0.44268 0.32138 0.80882 0.0
H604 H 0.43931 0.28912 0.02254 0.0
H605 H 0.43796 0.32567 0.77924 0.0
H606 H 0.33193 0.23009 0.83001 0.0
H607 H 0.30908 0.1978 0.07627 0.0
H608 H 0.413 0.31232 0.8409 0.0
H609 H 0.47386 0.32943 0.78543 0.0
H610 H 0.33836 0.20755 0.02378 0.0
H611 H 0.4744 0.29209 0.03432 0.0
H612 H 0.50078 0.32586 0.83038 0.0
H613 H 0.51043 0.3163 0.89911 0.0
H614 H 0.30094 0.23181 0.80164 0.0
H615 H 0.50069 0.30354 0.97503 0.0
H616 H 0.27782 0.20144 0.0565 0.0
N617 N 0.32199 0.22747 0.89523 0.0
C618 C 0.30571 0.22386 0.92205 0.0
C619 C 0.30217 0.22975 0.83569 0.0
C620 C 0.28745 0.2242 0.90721 0.0
C621 C 0.31982 0.22897 0.85202 0.0
C622 C 0.28615 0.22788 0.86358 0.0
N623 N 0.324 0.21701 0.97594 0.0
C624 C 0.32482 0.20926 0.01524 0.0
C625 C 0.28953 0.2128 0.99233 0.0
C626 C 0.30666 0.2182 0.96379 0.0
C627 C 0.29063 0.20573 0.03354 0.0
C628 C 0.30824 0.20365 0.04482 0.0
H629 H 0.27246 0.22842 0.85088 0.0
H630 H 0.25679 0.22057 0.92541 0.0
H631 H 0.25867 0.21066 0.00019 0.0
O632 O 0.35159 0.1999 0.94247 0.0
O633 O 0.35348 0.2534 0.9783 0.0
O634 O 0.37754 0.28817 0.95473 0.0
O635 O 0.35176 0.20911 0.87691 0.0
O636 O 0.37348 0.23463 0.98613 0.0
O637 O 0.40369 0.26945 0.99402 0.0
O638 O 0.42476 0.32919 0.93418 0.0
O639 O 0.41728 0.27396 0.89168 0.0
O640 O 0.3865 0.2532 0.91689 0.0
O641 O 0.4216 0.31451 0.99714 0.0
O642 O 0.38496 0.29001 0.89637 0.0
O643 O 0.36186 0.25424 0.8743 0.0
C644 C 0.35911 0.27368 0.9725 0.0
C645 C 0.33312 0.17205 0.89222 0.0
C646 C 0.31838 0.13356 0.90009 0.0
C647 C 0.30144 0.13 0.87275 0.0
C648 C 0.31599 0.1681 0.86505 0.0
C649 C 0.30035 0.14716 0.85522 0.0
C650 C 0.33436 0.15468 0.90935 0.0
C651 C 0.39063 0.24943 0.00648 0.0
C652 C 0.34985 0.1941 0.90256 0.0
C653 C 0.2708 0.22005 0.93602 0.0
C654 C 0.27184 0.21435 0.97856 0.0
C655 C 0.40081 0.25523 0.88911 0.0
C656 C 0.43608 0.35293 0.99738 0.0
C657 C 0.45317 0.39195 0.99755 0.0
C658 C 0.45154 0.39157 0.04241 0.0
C659 C 0.43478 0.35315 0.04238 0.0
C660 C 0.44538 0.37255 0.97475 0.0
C661 C 0.44244 0.37232 0.0646 0.0
C662 C 0.37068 0.27516 0.87064 0.0
C663 C 0.42744 0.332 0.97546 0.0
H664 H 0.2891 0.11386 0.86474 0.0
H665 H 0.31467 0.18115 0.85136 0.0
H666 H 0.28728 0.14423 0.83407 0.0
H667 H 0.3475 0.15759 0.93038 0.0
H668 H 0.45751 0.40633 0.06038 0.0
H669 H 0.42773 0.33844 0.06064 0.0
H670 H 0.44664 0.37277 0.9401 0.0
H671 H 0.44134 0.37226 0.09922 0.0
Eu672 Eu 0.77689 0.12335 0.9263 0.0
C673 C 0.71581 0.15966 0.93171 0.0
N674 N 0.72252 0.15098 0.96265 0.0
C675 C 0.73031 0.18035 0.00954 0.0
C676 C 0.71715 0.17964 0.93807 0.0
C677 C 0.7285 0.16045 0.00198 0.0
C678 C 0.72493 0.19014 0.97725 0.0
C679 C 0.69927 0.15662 0.86201 0.0
C680 C 0.70652 0.14811 0.89427 0.0
C681 C 0.70125 0.17678 0.8679 0.0
C682 C 0.71007 0.1882 0.90586 0.0
Eu683 Eu 0.71644 0.1163 0.94736 0.0
N684 N 0.70472 0.12858 0.88923 0.0
C685 C 0.69003 0.1445 0.82492 0.0
C686 C 0.69498 0.11633 0.85397 0.0
C687 C 0.68779 0.12423 0.82098 0.0
H688 H 0.73086 0.15232 0.02842 0.0
H689 H 0.68041 0.11463 0.79271 0.0
H690 H 0.77582 0.09593 0.83904 0.0
H691 H 0.79825 0.11644 0.09177 0.0
H692 H 0.6929 0.10056 0.85129 0.0
H693 H 0.68434 0.15054 0.7994 0.0
H694 H 0.79128 0.13381 0.03118 0.0
H695 H 0.73529 0.18785 0.0407 0.0
H696 H 0.69573 0.18356 0.84353 0.0
H697 H 0.71105 0.20354 0.91028 0.0
H698 H 0.77726 0.06338 0.82086 0.0
H699 H 0.72605 0.20543 0.98347 0.0
H700 H 0.79872 0.0828 0.08029 0.0
N701 N 0.77965 0.09348 0.90574 0.0
C702 C 0.78433 0.08356 0.93735 0.0
C703 C 0.77905 0.06874 0.85381 0.0
C704 C 0.78568 0.06513 0.92848 0.0
C705 C 0.77784 0.08692 0.86422 0.0
C706 C 0.78276 0.05764 0.88616 0.0
N707 N 0.78559 0.10929 0.98662 0.0
C708 C 0.7903 0.11865 0.0261 0.0
C709 C 0.7917 0.08134 0.01249 0.0
C710 C 0.78723 0.09158 0.97896 0.0
C711 C 0.7952 0.09016 0.05368 0.0
C712 C 0.79481 0.10908 0.06035 0.0
H713 H 0.7836 0.0435 0.87806 0.0
H714 H 0.79059 0.04039 0.95589 0.0
H715 H 0.79594 0.0546 0.02934 0.0
O716 O 0.81121 0.14394 0.93941 0.0
O717 O 0.75049 0.09078 0.94827 0.0
O718 O 0.72217 0.09167 0.98271 0.0
O719 O 0.79977 0.13655 0.873 0.0
O720 O 0.77317 0.14459 0.97499 0.0
O721 O 0.73908 0.12519 0.00416 0.0
O722 O 0.68227 0.09041 0.94016 0.0
O723 O 0.73598 0.1358 0.88983 0.0
O724 O 0.76764 0.1487 0.92204 0.0
O725 O 0.69262 0.11404 0.99173 0.0
O726 O 0.72004 0.09384 0.9032 0.0
O727 O 0.75349 0.11063 0.86948 0.0
C728 C 0.73334 0.08222 0.97296 0.0
C729 C 0.83841 0.15948 0.8832 0.0
C730 C 0.8758 0.18755 0.89329 0.0
C731 C 0.88096 0.18181 0.85393 0.0
C732 C 0.844 0.15434 0.84364 0.0
C733 C 0.86515 0.16539 0.82926 0.0
C734 C 0.85442 0.1763 0.90804 0.0
C735 C 0.75953 0.13962 0.00692 0.0
C736 C 0.81613 0.1464 0.89883 0.0
C737 C 0.78971 0.05469 0.96201 0.0
C738 C 0.79271 0.06277 0.00387 0.0
C739 C 0.75654 0.14923 0.88975 0.0
C740 C 0.65503 0.08819 0.99194 0.0
C741 C 0.61626 0.06486 0.98957 0.0
C742 C 0.61463 0.07267 0.02979 0.0
C743 C 0.65282 0.09569 0.03227 0.0
C744 C 0.63653 0.0726 0.97035 0.0
C745 C 0.63279 0.08797 0.05093 0.0
C746 C 0.73244 0.09727 0.8696 0.0
C747 C 0.67678 0.09757 0.97341 0.0
H748 H 0.89729 0.19018 0.84215 0.0
H749 H 0.83208 0.14143 0.82419 0.0
H750 H 0.86934 0.16113 0.79894 0.0
H751 H 0.85036 0.18047 0.93866 0.0
H752 H 0.59913 0.06689 0.04482 0.0
H753 H 0.66664 0.10767 0.04965 0.0
H754 H 0.63783 0.06673 0.93914 0.0
H755 H 0.63133 0.09393 0.08189 0.0
Eu756 Eu 0.66202 0.8859 0.57156 0.0
C757 C 0.55758 0.85491 0.56096 0.0
N758 N 0.5741 0.86224 0.53223 0.0
C759 C 0.55157 0.83528 0.48187 0.0
C760 C 0.53758 0.83687 0.55149 0.0
C761 C 0.57115 0.85322 0.49262 0.0
C762 C 0.53479 0.82694 0.51154 0.0
C763 C 0.54402 0.85807 0.63063 0.0
C764 C 0.56055 0.86569 0.5999 0.0
C765 C 0.52419 0.83993 0.62132 0.0
C766 C 0.52095 0.82944 0.58185 0.0
Eu767 Eu 0.60557 0.89357 0.55309 0.0
N768 N 0.58017 0.88286 0.60872 0.0
C769 C 0.54804 0.86872 0.6701 0.0
C770 C 0.58411 0.89356 0.64668 0.0
C771 C 0.56816 0.88654 0.67811 0.0
H772 H 0.58357 0.86018 0.46873 0.0
H773 H 0.57136 0.8949 0.70844 0.0
H774 H 0.68768 0.91283 0.66007 0.0
H775 H 0.68894 0.8974 0.40462 0.0
H776 H 0.59954 0.90752 0.65261 0.0
H777 H 0.53575 0.86328 0.69461 0.0
H778 H 0.66419 0.87927 0.46468 0.0
H779 H 0.54933 0.82808 0.45045 0.0
H780 H 0.51125 0.83385 0.64451 0.0
H781 H 0.5055 0.81554 0.57511 0.0
H782 H 0.72225 0.94449 0.67949 0.0
H783 H 0.51961 0.81309 0.50298 0.0
H784 H 0.72426 0.92944 0.4182 0.0
N785 N 0.69479 0.91537 0.59344 0.0
C786 C 0.70974 0.9254 0.56226 0.0
C787 C 0.71891 0.93934 0.64639 0.0
C788 C 0.72966 0.94356 0.57187 0.0
C789 C 0.69931 0.92151 0.63526 0.0
C790 C 0.73408 0.95054 0.61451 0.0
N791 N 0.68485 0.90113 0.51167 0.0
C792 C 0.67934 0.89336 0.47102 0.0
C793 C 0.71929 0.92903 0.48677 0.0
C794 C 0.70463 0.91814 0.52016 0.0
C795 C 0.71345 0.92151 0.44476 0.0
C796 C 0.69347 0.9035 0.43693 0.0
H797 H 0.74914 0.96451 0.62316 0.0
H798 H 0.75955 0.96856 0.54531 0.0
H799 H 0.75049 0.95588 0.47091 0.0
O800 O 0.6682 0.85928 0.55823 0.0
O801 O 0.66861 0.91773 0.5451 0.0
O802 O 0.63817 0.92077 0.5309 0.0
O803 O 0.67488 0.87461 0.62139 0.0
O804 O 0.63645 0.86444 0.52348 0.0
O805 O 0.61991 0.88328 0.49816 0.0
O806 O 0.5986 0.91949 0.56342 0.0
O807 O 0.59689 0.86618 0.59975 0.0
O808 O 0.62763 0.87306 0.58008 0.0
O809 O 0.59104 0.903 0.50263 0.0
O810 O 0.63059 0.91196 0.60456 0.0
O811 O 0.64994 0.89558 0.62998 0.0
C812 C 0.65906 0.92802 0.53088 0.0
C813 C 0.68441 0.84706 0.613 0.0
C814 C 0.69068 0.81681 0.6072 0.0
C815 C 0.7013 0.82261 0.64685 0.0
C816 C 0.6952 0.85242 0.65256 0.0
C817 C 0.70361 0.84033 0.66918 0.0
C818 C 0.6824 0.82926 0.58991 0.0
C819 C 0.62478 0.86786 0.49511 0.0
C820 C 0.67596 0.86062 0.59662 0.0
C821 C 0.74427 0.95443 0.53862 0.0
C822 C 0.7391 0.94721 0.49622 0.0
C823 C 0.61156 0.86143 0.60527 0.0
C824 C 0.56874 0.91644 0.52592 0.0
C825 C 0.54803 0.9347 0.52744 0.0
C826 C 0.52907 0.91483 0.52599 0.0
C827 C 0.54953 0.89678 0.52328 0.0
C828 C 0.56794 0.93553 0.52764 0.0
C829 C 0.52985 0.89599 0.52378 0.0
C830 C 0.64254 0.90905 0.63304 0.0
C831 C 0.58952 0.91711 0.5262 0.0
H832 H 0.70802 0.81347 0.66044 0.0
H833 H 0.69729 0.86613 0.67073 0.0
H834 H 0.71197 0.84471 0.69956 0.0
H835 H 0.67426 0.82495 0.55925 0.0
H836 H 0.51363 0.91395 0.52549 0.0
H837 H 0.54967 0.88201 0.52012 0.0
H838 H 0.58264 0.95086 0.52872 0.0
H839 H 0.51516 0.88074 0.52182 0.0
Eu840 Eu 0.12788 0.77743 0.56887 0.0
C841 C 0.15871 0.71107 0.55913 0.0
N842 N 0.14831 0.71607 0.52881 0.0
C843 C 0.17389 0.71923 0.47575 0.0
C844 C 0.17784 0.71115 0.54906 0.0
C845 C 0.1549 0.71871 0.48703 0.0
C846 C 0.18564 0.71586 0.50704 0.0
C847 C 0.15923 0.69769 0.63053 0.0
C848 C 0.14931 0.70394 0.59933 0.0
C849 C 0.17883 0.69892 0.62115 0.0
C850 C 0.18804 0.70552 0.58049 0.0
Eu851 Eu 0.11573 0.71346 0.55152 0.0
N852 N 0.13009 0.70245 0.60751 0.0
C853 C 0.1489 0.68986 0.66995 0.0
C854 C 0.11939 0.69372 0.64502 0.0
C855 C 0.12881 0.6877 0.67707 0.0
H856 H 0.14526 0.71964 0.46177 0.0
H857 H 0.12057 0.68137 0.70719 0.0
H858 H 0.10727 0.78412 0.66068 0.0
H859 H 0.11298 0.79131 0.40327 0.0
H860 H 0.10393 0.69214 0.65065 0.0
H861 H 0.15609 0.68502 0.69475 0.0
H862 H 0.1333 0.78694 0.46202 0.0
H863 H 0.17916 0.72169 0.44267 0.0
H864 H 0.1867 0.69424 0.64474 0.0
H865 H 0.2028 0.70566 0.57327 0.0
H866 H 0.07605 0.78727 0.68327 0.0
H867 H 0.20017 0.7159 0.498 0.0
H868 H 0.0805 0.79338 0.41972 0.0
N869 N 0.10076 0.78375 0.59432 0.0
C870 C 0.08933 0.78713 0.56373 0.0
C871 C 0.07943 0.78694 0.64953 0.0
C872 C 0.07145 0.78907 0.57501 0.0
C873 C 0.09685 0.7848 0.63674 0.0
C874 C 0.06641 0.78865 0.61852 0.0
N875 N 0.11228 0.78574 0.51072 0.0
C876 C 0.11912 0.78758 0.46939 0.0
C877 C 0.08317 0.79083 0.48837 0.0
C878 C 0.09534 0.78838 0.52083 0.0
C879 C 0.08948 0.7916 0.44561 0.0
C880 C 0.10773 0.79031 0.43616 0.0
H881 H 0.05279 0.79007 0.62851 0.0
H882 H 0.04514 0.79237 0.55071 0.0
H883 H 0.05524 0.79363 0.47493 0.0
O884 O 0.15164 0.80952 0.54734 0.0
O885 O 0.09675 0.7534 0.53606 0.0
O886 O 0.09131 0.71959 0.51778 0.0
O887 O 0.14604 0.80274 0.61549 0.0
O888 O 0.14727 0.76786 0.52691 0.0
O889 O 0.12715 0.73565 0.49356 0.0
O890 O 0.08998 0.6812 0.56886 0.0
O891 O 0.13517 0.73245 0.60967 0.0
O892 O 0.15025 0.76438 0.57747 0.0
O893 O 0.10454 0.68707 0.50639 0.0
O894 O 0.09574 0.7236 0.59012 0.0
O895 O 0.11287 0.75555 0.62698 0.0
C896 C 0.08577 0.73447 0.51771 0.0
C897 C 0.16122 0.83921 0.59341 0.0
C898 C 0.18638 0.87778 0.58921 0.0
C899 C 0.1718 0.88133 0.61269 0.0
C900 C 0.14683 0.84321 0.61624 0.0
C901 C 0.15213 0.86419 0.62573 0.0
C902 C 0.18085 0.85658 0.57927 0.0
C903 C 0.14086 0.75631 0.49189 0.0
C904 C 0.15676 0.81715 0.58614 0.0
C905 C 0.05916 0.79125 0.54266 0.0
C906 C 0.06495 0.79204 0.49949 0.0
C907 C 0.14911 0.75287 0.61059 0.0
C908 C 0.09269 0.65316 0.53565 0.0
C909 C 0.07573 0.61433 0.53457 0.0
C910 C 0.09607 0.61622 0.53594 0.0
C911 C 0.11284 0.65466 0.53699 0.0
C912 C 0.07406 0.63289 0.53414 0.0
C913 C 0.11449 0.63627 0.53704 0.0
C914 C 0.09984 0.73453 0.626 0.0
C915 C 0.09124 0.67269 0.53298 0.0
H916 H 0.17556 0.89745 0.62061 0.0
H917 H 0.13164 0.83014 0.62722 0.0
H918 H 0.14103 0.86718 0.64361 0.0
H919 H 0.19208 0.85359 0.56172 0.0
H920 H 0.09769 0.6021 0.53541 0.0
H921 H 0.12734 0.67004 0.53707 0.0
H922 H 0.05844 0.63158 0.53249 0.0
H923 H 0.13009 0.63758 0.53752 0.0
Eu924 Eu 0.23696 0.35092 0.55665 0.0
C925 C 0.297 0.45057 0.56968 0.0
N926 N 0.29154 0.43662 0.53634 0.0
C927 C 0.28742 0.46085 0.4904 0.0
C928 C 0.29722 0.47007 0.56472 0.0
C929 C 0.28744 0.44173 0.49675 0.0
C930 C 0.29219 0.47503 0.52458 0.0
C931 C 0.30823 0.45967 0.6439 0.0
C932 C 0.30278 0.44556 0.60877 0.0
C933 C 0.30816 0.47894 0.6391 0.0
C934 C 0.30279 0.48418 0.59961 0.0
Eu935 Eu 0.29482 0.40637 0.5492 0.0
N936 N 0.30314 0.42697 0.61243 0.0
C937 C 0.31377 0.45408 0.68279 0.0
C938 C 0.30906 0.42172 0.64994 0.0
C939 C 0.31419 0.43503 0.68579 0.0
H940 H 0.28482 0.43148 0.46956 0.0
H941 H 0.31874 0.43072 0.71557 0.0
H942 H 0.23326 0.32369 0.64724 0.0
H943 H 0.21837 0.3215 0.39257 0.0
H944 H 0.31021 0.4075 0.65235 0.0
H945 H 0.31798 0.46447 0.71053 0.0
H946 H 0.22602 0.3471 0.452 0.0
H947 H 0.28409 0.4648 0.45896 0.0
H948 H 0.31243 0.49002 0.66568 0.0
H949 H 0.30308 0.49925 0.59631 0.0
H950 H 0.23227 0.29028 0.66782 0.0
H951 H 0.29234 0.48992 0.51943 0.0
H952 H 0.21735 0.28731 0.40666 0.0
N953 N 0.23475 0.31889 0.58033 0.0
C954 C 0.23209 0.30468 0.54897 0.0
C955 C 0.2325 0.29424 0.63428 0.0
C956 C 0.22971 0.28461 0.55939 0.0
C957 C 0.23369 0.31345 0.62254 0.0
C958 C 0.23078 0.27985 0.60251 0.0
N959 N 0.23136 0.32851 0.49754 0.0
C960 C 0.22636 0.33257 0.45777 0.0
C961 C 0.22477 0.294 0.47415 0.0
C962 C 0.22989 0.30941 0.50661 0.0
C963 C 0.22124 0.29873 0.43246 0.0
C964 C 0.22181 0.31802 0.42435 0.0
H965 H 0.22925 0.26469 0.61172 0.0
H966 H 0.22324 0.25397 0.53433 0.0
H967 H 0.21839 0.262 0.46002 0.0
O968 O 0.209 0.35522 0.54851 0.0
O969 O 0.26179 0.35507 0.50684 0.0
O970 O 0.29438 0.37492 0.5389 0.0
O971 O 0.20477 0.32524 0.5713 0.0
O972 O 0.24199 0.38042 0.52144 0.0
O973 O 0.27472 0.3949 0.48913 0.0
O974 O 0.32998 0.42452 0.56005 0.0
O975 O 0.26619 0.40564 0.58412 0.0
O976 O 0.24596 0.37208 0.61454 0.0
O977 O 0.31648 0.42047 0.49549 0.0
O978 O 0.29404 0.38172 0.59352 0.0
O979 O 0.25888 0.35738 0.61483 0.0
C980 C 0.28063 0.35795 0.51722 0.0
C981 C 0.17747 0.3327 0.58932 0.0
C982 C 0.13969 0.32228 0.59629 0.0
C983 C 0.14114 0.32012 0.64076 0.0
C984 C 0.17862 0.33076 0.63388 0.0
C985 C 0.16052 0.32454 0.65939 0.0
C986 C 0.15805 0.3288 0.5707 0.0
C987 C 0.25422 0.38847 0.48765 0.0
C988 C 0.19537 0.33596 0.56143 0.0
C989 C 0.2252 0.26949 0.52689 0.0
C990 C 0.22244 0.27407 0.48453 0.0
C991 C 0.25502 0.39303 0.61631 0.0
C992 C 0.3551 0.44151 0.49973 0.0
C993 C 0.39396 0.45687 0.49905 0.0
C994 C 0.39481 0.4661 0.45901 0.0
C995 C 0.35653 0.45098 0.45961 0.0
C996 C 0.37402 0.44458 0.51979 0.0
C997 C 0.37624 0.46319 0.43953 0.0
C998 C 0.27997 0.36734 0.61993 0.0
C999 C 0.33365 0.42852 0.51921 0.0
H1000 H 0.12726 0.31512 0.66116 0.0
H1001 H 0.19334 0.33349 0.64876 0.0
H1002 H 0.16142 0.3228 0.69367 0.0
H1003 H 0.15699 0.32993 0.53621 0.0
H1004 H 0.41 0.47561 0.44272 0.0
H1005 H 0.34234 0.44903 0.44366 0.0
H1006 H 0.37325 0.43735 0.55066 0.0
H1007 H 0.37712 0.47041 0.40866 0.0
H1008 H 0.04018 0.44621 0.9686 0.0
H1009 H 0.01684 0.46135 0.95601 0.0
H1010 H 0.03349 0.49148 0.08042 0.0
H1011 H 0.05709 0.47676 0.09257 0.0
H1012 H 0.98279 0.46279 0.99776 0.0
H1013 H 0.05698 0.54218 0.99738 0.0
H1014 H 0.05739 0.51742 0.9967 0.0
H1015 H 0.05271 0.52734 0.04607 0.0
C1016 C 0.03817 0.4554 0.9938 0.0
C1017 C 0.05041 0.46045 0.03144 0.0
C1018 C 0.02503 0.46419 0.98648 0.0
C1019 C 0.02405 0.47812 0.01671 0.0
C1020 C 0.0345 0.48126 0.0562 0.0
H1021 H 0.96699 0.55723 0.03464 0.0
H1022 H 0.99132 0.54282 0.0396 0.0
C1023 C 0.04773 0.47264 0.06337 0.0
C1024 C 0.01375 0.49082 0.00561 0.0
H1025 H 0.02407 0.54215 0.99328 0.0
C1026 C 0.9918 0.48012 0.99649 0.0
C1027 C 0.02564 0.51346 0.00369 0.0
C1028 C 0.04952 0.52581 0.01107 0.0
C1029 C 0.98122 0.49146 0.987 0.0
C1030 C 0.99304 0.51413 0.98561 0.0
C1031 C 0.01507 0.52481 0.99417 0.0
C1032 C 0.98237 0.52685 0.97801 0.0
C1033 C 0.9573 0.47905 0.98004 0.0
C1034 C 0.97048 0.52393 0.94049 0.0
C1035 C 0.95651 0.53201 0.93783 0.0
C1036 C 0.95468 0.54355 0.97221 0.0
C1037 C 0.96828 0.54846 0.00769 0.0
C1038 C 0.98208 0.54016 0.01058 0.0
H1039 H 0.95001 0.46242 0.99232 0.0
H1040 H 0.9494 0.487 0.99605 0.0
H1041 H 0.95393 0.47819 0.94516 0.0
H1042 H 0.97093 0.51422 0.91448 0.0
H1043 H 0.94611 0.52805 0.91021 0.0
H1044 H 0.49544 0.41719 0.98106 0.0
H1045 H 0.51412 0.45632 0.97976 0.0
H1046 H 0.45353 0.45427 0.96982 0.0
H1047 H 0.43483 0.41508 0.97247 0.0
H1048 H 0.51765 0.49033 0.93402 0.0
H1049 H 0.47423 0.4811 0.08689 0.0
H1050 H 0.47319 0.45868 0.05919 0.0
H1051 H 0.45715 0.46979 0.04112 0.0
C1052 C 0.48621 0.42511 0.97653 0.0
C1053 C 0.46374 0.4132 0.9769 0.0
C1054 C 0.49686 0.44748 0.97627 0.0
C1055 C 0.48517 0.45823 0.97648 0.0
C1056 C 0.46284 0.4463 0.97109 0.0
H1057 H 0.51988 0.58967 0.01773 0.0
H1058 H 0.50108 0.5505 0.01845 0.0
C1059 C 0.45217 0.42392 0.97176 0.0
C1060 C 0.49607 0.48137 0.98765 0.0
H1061 H 0.49747 0.51641 0.06336 0.0
C1062 C 0.51324 0.49603 0.96227 0.0
C1063 C 0.49047 0.48881 0.02488 0.0
C1064 C 0.47289 0.47378 0.05486 0.0
C1065 C 0.52464 0.51794 0.97247 0.0
C1066 C 0.51903 0.52537 0.00972 0.0
C1067 C 0.50186 0.51071 0.03508 0.0
C1068 C 0.52999 0.54849 0.02107 0.0
C1069 C 0.54221 0.53297 0.94249 0.0
C1070 C 0.55232 0.56033 0.02642 0.0
C1071 C 0.56304 0.58271 0.02615 0.0
C1072 C 0.55154 0.59351 0.02134 0.0
C1073 C 0.52907 0.58168 0.02185 0.0
C1074 C 0.51835 0.5593 0.02178 0.0
H1075 H 0.5408 0.52569 0.91039 0.0
H1076 H 0.54199 0.54811 0.93832 0.0
H1077 H 0.55795 0.53687 0.95611 0.0
H1078 H 0.56159 0.55232 0.0274 0.0
H1079 H 0.58038 0.5915 0.02545 0.0
H1080 H 0.59142 0.07226 0.93539 0.0
H1081 H 0.55226 0.0505 0.93459 0.0
H1082 H 0.55573 1.00045 0.0026 0.0
H1083 H 0.59485 0.02224 0.00357 0.0
H1084 H 0.51736 0.00514 0.91713 0.0
H1085 H 0.53182 0.02867 0.08907 0.0
H1086 H 0.55241 0.04115 0.04869 0.0
H1087 H 0.54513 0.01509 0.0687 0.0
C1088 C 0.58385 0.05609 0.94775 0.0
C1089 C 0.59604 0.04885 0.9695 0.0
C1090 C 0.56148 0.04377 0.94775 0.0
C1091 C 0.55119 0.02418 0.9696 0.0
C1092 C 0.56344 0.01568 0.98607 0.0
H1093 H 0.42794 0.9381 0.06776 0.0
H1094 H 0.46617 0.96325 0.05921 0.0
C1095 C 0.58578 0.02798 0.98606 0.0
C1096 C 0.52837 0.01463 0.98172 0.0
H1097 H 0.49584 0.00596 0.06819 0.0
C1098 C 0.51259 0.00539 0.95003 0.0
C1099 C 0.52233 0.01523 0.02472 0.0
C1100 C 0.53877 0.02571 0.05982 0.0
C1101 C 0.49076 0.99592 0.96049 0.0
C1102 C 0.48466 0.99629 0.00363 0.0
C1103 C 0.50054 0.00592 0.03514 0.0
C1104 C 0.46187 0.98459 0.01715 0.0
C1105 C 0.47439 0.9848 0.92556 0.0
C1106 C 0.44676 0.98917 -0.0008 0.0
C1107 C 0.4248 0.97472 0.00409 0.0
C1108 C 0.41786 0.9557 0.02723 0.0
C1109 C 0.43298 0.9526 0.04949 0.0
C1110 C 0.45481 0.96693 0.04451 0.0
H1111 H 0.48158 0.98216 0.89632 0.0
H1112 H 0.46123 0.96909 0.93684 0.0
H1113 H 0.46735 0.99481 0.91653 0.0
H1114 H 0.45193 1.00308 0.97898 0.0
H1115 H 0.41342 0.97748 0.98673 0.0
H1116 H 0.46013 0.04913 0.54819 0.0
H1117 H 0.47383 0.02433 0.55482 0.0
H1118 H 0.48705 0.02983 0.41897 0.0
H1119 H 0.47404 0.05526 0.41276 0.0
H1120 H 0.46736 0.98685 0.52114 0.0
H1121 H 0.54624 0.05365 0.46857 0.0
H1122 H 0.52374 0.05728 0.47963 0.0
H1123 H 0.52537 0.04575 0.42956 0.0
C1124 C 0.46536 0.04448 0.51963 0.0
C1125 C 0.46616 0.05403 0.48005 0.0
C1126 C 0.47328 0.03042 0.52341 0.0
C1127 C 0.48215 0.02582 0.48766 0.0
C1128 C 0.48091 0.0337 0.44723 0.0
H1129 H 0.55258 0.95893 0.4578 0.0
H1130 H 0.53839 0.98327 0.45 0.0
C1131 C 0.47322 0.04795 0.44354 0.0
C1132 C 0.4944 0.01453 0.49369 0.0
H1133 H 0.54433 0.02063 0.4828 0.0
C1134 C 0.48418 0.99422 0.51277 0.0
C1135 C 0.51644 0.02426 0.48308 0.0
C1136 C 0.52868 0.04651 0.46445 0.0
C1137 C 0.49524 0.9832 0.52079 0.0
C1138 C 0.51729 0.99296 0.51027 0.0
C1139 C 0.52749 0.01324 0.49109 0.0
C1140 C 0.52965 0.98181 0.5169 0.0
C1141 C 0.483 0.96097 0.53947 0.0
C1142 C 0.5308 0.97409 0.55757 0.0
C1143 C 0.53876 0.96009 0.56192 0.0
C1144 C 0.54623 0.95413 0.52588 0.0
C1145 C 0.5471 0.96354 0.48606 0.0
C1146 C 0.53887 0.9773 0.48159 0.0
H1147 H 0.46545 0.95376 0.53499 0.0
H1148 H 0.48807 0.95023 0.52464 0.0
H1149 H 0.48613 0.96178 0.57445 0.0
H1150 H 0.52441 0.9779 0.58551 0.0
H1151 H 0.53784 0.95287 0.59286 0.0
H1152 H 0.04612 0.59756 0.47038 0.0
H1153 H 0.02121 0.55931 0.45764 0.0
H1154 H 0.03866 0.54428 0.57947 0.0
H1155 H 0.06357 0.58233 0.59205 0.0
H1156 H 0.04682 0.52586 0.50302 0.0
H1157 H 0.96341 0.51117 0.51165 0.0
H1158 H 0.98295 0.53472 0.48361 0.0
H1159 H 0.98528 0.53278 0.54045 0.0
C1160 C 0.04397 0.5861 0.49504 0.0
C1161 C 0.05675 0.59271 0.53206 0.0
C1162 C 0.02983 0.56431 0.48773 0.0
C1163 C 0.02826 0.54904 0.51756 0.0
C1164 C 0.03974 0.55585 0.55606 0.0
H1165 H 0.96982 0.41214 0.53038 0.0
H1166 H 0.99567 0.45057 0.53662 0.0
C1167 C 0.05387 0.57752 0.56327 0.0
C1168 C 0.01711 0.52608 0.50639 0.0
H1169 H 0.96787 0.48252 0.48939 0.0
C1170 C 0.02954 0.51632 0.50005 0.0
C1171 C 0.99466 0.51385 0.50233 0.0
C1172 C 0.98066 0.52352 0.51006 0.0
C1173 C 0.02004 0.49455 0.48964 0.0
C1174 C 0.99756 0.48225 0.48598 0.0
C1175 C 0.98516 0.49208 0.49199 0.0
C1176 C 0.9862 0.45899 0.47727 0.0
C1177 C 0.03409 0.48492 0.48202 0.0
C1178 C 0.97296 0.45099 0.44113 0.0
C1179 C 0.95818 0.42919 0.43775 0.0
C1180 C 0.95646 0.41508 0.47042 0.0
C1181 C 0.97101 0.42276 0.50468 0.0
C1182 C 0.98576 0.44467 0.50821 0.0
H1183 H 0.05115 0.49739 0.47751 0.0
H1184 H 0.03303 0.47502 0.51008 0.0
H1185 H 0.0286 0.47439 0.45334 0.0
H1186 H 0.97311 0.4618 0.4169 0.0
H1187 H 0.94711 0.42354 0.41102 0.0
H1188 H 0.41379 0.43429 0.48242 0.0
H1189 H 0.45267 0.44938 0.48328 0.0
H1190 H 0.45994 0.50458 0.5515 0.0
H1191 H 0.42106 0.48937 0.55089 0.0
H1192 H 0.47562 0.48705 0.43826 0.0
H1193 H 0.50783 0.49725 0.60322 0.0
H1194 H 0.48025 0.47835 0.59036 0.0
H1195 H 0.48888 0.50624 0.59699 0.0
C1196 C 0.42363 0.44903 0.49982 0.0
C1197 C 0.41449 0.46061 0.51694 0.0
C1198 C 0.44586 0.45777 0.49984 0.0
C1199 C 0.45926 0.47819 0.51713 0.0
C1200 C 0.44997 0.4887 0.53842 0.0
H1201 H 0.59257 0.57439 0.50114 0.0
H1202 H 0.55344 0.55682 0.50049 0.0
C1203 C 0.42771 0.47995 0.53834 0.0
C1204 C 0.48242 0.49003 0.50601 0.0
H1205 H 0.53263 0.51818 0.54847 0.0
C1206 C 0.48811 0.49366 0.46237 0.0
C1207 C 0.49868 0.49885 0.53743 0.0
C1208 C 0.49367 0.49484 0.58462 0.0
C1209 C 0.50956 0.5062 0.44934 0.0
C1210 C 0.52578 0.51522 0.48076 0.0
C1211 C 0.52013 0.51145 0.52438 0.0
C1212 C 0.54886 0.52801 0.46959 0.0
C1213 C 0.51468 0.51016 0.40218 0.0
C1214 C 0.55925 0.51822 0.44979 0.0
C1215 C 0.58165 0.52839 0.44974 0.0
C1216 C 0.59387 0.54841 0.46953 0.0
C1217 C 0.5835 0.55915 0.4849 0.0
C1218 C 0.56115 0.54898 0.4851 0.0
H1219 H 0.50026 0.50631 0.38288 0.0
H1220 H 0.52707 0.52709 0.39635 0.0
H1221 H 0.52109 0.49991 0.39075 0.0
H1222 H 0.55011 0.50196 0.43802 0.0
H1223 H 0.58927 0.51959 0.43864 0.0
H1224 H 0.91455 0.27778 0.28277 0.0
H1225 H 0.94562 0.29531 0.23353 0.0
H1226 H 0.98832 0.30999 0.34116 0.0
H1227 H 0.95781 0.29205 0.38903 0.0
H1228 H 0.98094 0.34032 0.24237 0.0
H1229 H 0.0087 0.28154 0.25397 0.0
H1230 H 0.98164 0.27487 0.26699 0.0
H1231 H 1.00289 0.28887 0.30511 0.0
C1232 C 0.93063 0.28433 0.29527 0.0
C1233 C 0.93408 0.28378 0.33936 0.0
C1234 C 0.94823 0.29446 0.26749 0.0
C1235 C 0.96911 0.3038 0.28398 0.0
C1236 C 0.97231 0.30267 0.32787 0.0
H1237 H 0.09993 0.36488 0.20887 0.0
H1238 H 0.06738 0.3545 0.25084 0.0
C1239 C 0.95495 0.29259 0.35519 0.0
C1240 C 0.98806 0.31538 0.25655 0.0
H1241 H 0.03456 0.31673 0.23156 0.0
C1242 C 0.99261 0.33513 0.23924 0.0
C1243 C 1.00318 0.30854 0.25325 0.0
C1244 C 0.99879 0.2872 0.2705 0.0
C1245 C 0.01253 0.34874 0.22014 0.0
C1246 C 0.02793 0.34212 0.21807 0.0
C1247 C 0.02294 0.32203 0.23418 0.0
C1248 C 0.04879 0.35469 0.19651 0.0
C1249 C 0.01707 0.37025 0.20371 0.0
C1250 C 0.04935 0.3593 0.1528 0.0
C1251 C 0.06791 0.36553 0.12923 0.0
C1252 C 0.08605 0.36689 0.14888 0.0
C1253 C 0.08609 0.36391 0.19321 0.0
C1254 C 0.06757 0.35805 0.21704 0.0
H1255 H 0.00724 0.37585 0.22073 0.0
H1256 H 0.03424 0.38252 0.20728 0.0
H1257 H 0.01288 0.36883 0.16917 0.0
H1258 H 0.03497 0.35626 0.13602 0.0
H1259 H 0.0673 0.36734 0.09493 0.0
H1260 H 0.65613 0.74522 0.20546 0.0
H1261 H 0.67047 0.72792 0.25215 0.0
H1262 H 0.64306 0.67265 0.16949 0.0
H1263 H 0.63021 0.68984 0.12186 0.0
H1264 H 0.64774 0.67566 0.28429 0.0
H1265 H 0.71428 0.71018 0.16444 0.0
H1266 H 0.69854 0.72265 0.17625 0.0
H1267 H 0.68713 0.69841 0.14562 0.0
C1268 C 0.65329 0.72947 0.19726 0.0
C1269 C 0.64327 0.71955 0.15859 0.0
C1270 C 0.66105 0.71947 0.22431 0.0
C1271 C 0.65798 0.69929 0.21336 0.0
C1272 C 0.64563 0.68832 0.17796 0.0
H1273 H 0.71663 0.62452 0.29118 0.0
H1274 H 0.69736 0.63819 0.24823 0.0
C1275 C 0.63851 0.6984 0.1506 0.0
C1276 C 0.67058 0.69102 0.23338 0.0
H1277 H 0.71519 0.68716 0.21682 0.0
C1278 C 0.66258 0.67827 0.26998 0.0
C1279 C 0.68945 0.69403 0.21324 0.0
C1280 C 0.698 0.7071 0.17275 0.0
C1281 C 0.67348 0.66872 0.28781 0.0
C1282 C 0.69274 0.67234 0.26849 0.0
C1283 C 0.70039 0.68459 0.23123 0.0
C1284 C 0.70631 0.66549 0.28953 0.0
C1285 C 0.66457 0.65498 0.32731 0.0
C1286 C 0.71822 0.67701 0.3252 0.0
C1287 C 0.72926 0.66946 0.34891 0.0
C1288 C 0.72852 0.65046 0.33711 0.0
C1289 C 0.71758 0.63948 0.30003 0.0
C1290 C 0.70654 0.64711 0.27595 0.0
H1291 H 0.64759 0.65033 0.33318 0.0
H1292 H 0.66571 0.64026 0.32429 0.0
H1293 H 0.67415 0.66399 0.35564 0.0
H1294 H 0.71815 0.69127 0.33576 0.0
H1295 H 0.73734 0.67778 0.37782 0.0
H1296 H 0.38612 0.09353 0.29143 0.0
H1297 H 0.37228 0.06098 0.24716 0.0
H1298 H 0.31751 0.02904 0.33129 0.0
H1299 H 0.33107 0.06127 0.37458 0.0
H1300 H 0.36534 0.02209 0.28013 0.0
H1301 H 0.29053 0.01356 0.21318 0.0
H1302 H 0.31184 0.03863 0.23368 0.0
H1303 H 0.29261 0.01883 0.26971 0.0
C1304 C 0.37085 0.07964 0.29934 0.0
C1305 C 0.35927 0.07968 0.33538 0.0
C1306 C 0.36304 0.06121 0.27437 0.0
C1307 C 0.34376 0.04291 0.28579 0.0
C1308 C 0.33206 0.04327 0.32131 0.0
H1309 H 0.265 0.91271 0.20897 0.0
H1310 H 0.28433 0.94352 0.25703 0.0
C1311 C 0.33972 0.06163 0.34584 0.0
C1312 C 0.33656 0.02257 0.26379 0.0
H1313 H 0.29232 0.98143 0.2184 0.0
C1314 C 0.34948 0.01319 0.26616 0.0
C1315 C 0.31592 0.01124 0.24572 0.0
C1316 C 0.30203 0.02119 0.24 0.0
C1317 C 0.34179 0.99218 0.25233 0.0
C1318 C 0.32074 0.98053 0.23609 0.0
C1319 C 0.30815 0.9902 0.23261 0.0
C1320 C 0.31232 0.95951 0.2162 0.0
C1321 C 0.35612 0.9826 0.25557 0.0
C1322 C 0.32218 0.95817 0.17878 0.0
C1323 C 0.31123 0.941 0.15147 0.0
C1324 C 0.29014 0.92488 0.16096 0.0
C1325 C 0.28105 0.92511 0.20059 0.0
C1326 C 0.29212 0.94251 0.22811 0.0
H1327 H 0.36847 0.9906 0.28083 0.0
H1328 H 0.34675 0.96521 0.26252 0.0
H1329 H 0.36458 0.98483 0.22458 0.0
H1330 H 0.3375 0.97132 0.16852 0.0
H1331 H 0.31889 0.94128 0.12141 0.0
H1332 H 0.09057 0.75237 0.69582 0.0
H1333 H 0.05712 0.73477 0.73688 0.0
H1334 H 0.04031 0.67471 0.6762 0.0
H1335 H 0.07252 0.69211 0.63359 0.0
H1336 H 0.01064 0.68936 0.66366 0.0
H1337 H 0.03287 0.68888 0.83449 0.0
H1338 H 0.04821 0.71351 0.80535 0.0
H1339 H 0.04984 0.69039 0.79041 0.0
C1340 C 0.07987 0.73545 0.69147 0.0
C1341 C 0.08384 0.72389 0.66013 0.0
C1342 C 0.06091 0.72538 0.71527 0.0
C1343 C 0.04628 0.70361 0.70871 0.0
C1344 C 0.05137 0.69162 0.68109 0.0
H1345 H 0.93861 0.62432 0.85598 0.0
H1346 H 0.96795 0.63703 0.80667 0.0
C1347 C 0.06995 0.70166 0.65697 0.0
C1348 C 0.02463 0.69357 0.72653 0.0
H1349 H 0.99666 0.67641 0.81943 0.0
C1350 C 0.00743 0.68646 0.69774 0.0
C1351 C 0.02082 0.68972 0.7707 0.0
C1352 C 0.03883 0.69584 0.8022 0.0
C1353 C 0.98623 0.6751 0.71213 0.0
C1354 C 0.98238 0.67154 0.75652 0.0
C1355 C 0.9997 0.67917 0.78529 0.0
C1356 C 0.96073 0.6592 0.77472 0.0
C1357 C 0.96834 0.66647 0.67968 0.0
C1358 C 0.94557 0.66582 0.76996 0.0
C1359 C 0.92755 0.65735 0.79667 0.0
C1360 C 0.9255 0.64339 0.82999 0.0
C1361 C 0.93961 0.63527 0.8312 0.0
C1362 C 0.95668 0.64269 0.80317 0.0
H1363 H 0.97402 0.66502 0.64737 0.0
H1364 H 0.95498 0.65056 0.68941 0.0
H1365 H 0.96206 0.67764 0.67708 0.0
H1366 H 0.94836 0.67851 0.74788 0.0
H1367 H 0.91627 0.66293 0.79321 0.0
H1368 H 0.25992 0.34546 0.69367 0.0
H1369 H 0.27527 0.33233 0.7475 0.0
H1370 H 0.33632 0.36536 0.68279 0.0
H1371 H 0.32131 0.37767 0.62878 0.0
H1372 H 0.29133 0.3067 0.71294 0.0
H1373 H 0.35334 0.37383 0.80906 0.0
H1374 H 0.3319 0.37528 0.78232 0.0
H1375 H 0.35515 0.37955 0.75275 0.0
C1376 C 0.27655 0.34984 0.69101 0.0
C1377 C 0.28911 0.36176 0.65607 0.0
C1378 C 0.28538 0.3428 0.7222 0.0
C1379 C 0.30688 0.34814 0.71895 0.0
C1380 C 0.31982 0.36151 0.68618 0.0
H1381 H 0.38359 0.29243 0.79142 0.0
H1382 H 0.36727 0.30939 0.74918 0.0
C1383 C 0.31102 0.36824 0.65495 0.0
C1384 C 0.31474 0.33622 0.74283 0.0
H1385 H 0.35672 0.34243 0.80295 0.0
C1386 C 0.30535 0.31437 0.73343 0.0
C1387 C 0.33343 0.34663 0.76805 0.0
C1388 C 0.34394 0.3701 0.77892 0.0
C1389 C 0.31444 0.30258 0.74837 0.0
C1390 C 0.33309 0.31301 0.77338 0.0
C1391 C 0.34248 0.33479 0.78306 0.0
C1392 C 0.34149 0.30097 0.79454 0.0
C1393 C 0.30438 0.27919 0.73715 0.0
C1394 C 0.33195 0.29069 0.83298 0.0
C1395 C 0.34124 0.28142 0.85686 0.0
C1396 C 0.35995 0.28228 0.84213 0.0
C1397 C 0.36911 0.29182 0.80284 0.0
C1398 C 0.35986 0.30132 0.77894 0.0
H1399 H 0.29141 0.27415 0.71303 0.0
H1400 H 0.31674 0.27577 0.72442 0.0
H1401 H 0.29757 0.26943 0.76656 0.0
H1402 H 0.31783 0.29059 0.84521 0.0
H1403 H 0.33424 0.2742 0.88748 0.0
H1404 H 0.7503 0.0932 0.79381 0.0
H1405 H 0.73385 0.06177 0.74652 0.0
H1406 H 0.67431 0.03725 0.81562 0.0
H1407 H 0.69044 0.06707 0.86385 0.0
H1408 H 0.7168 0.0207 0.79453 0.0
H1409 H 0.65596 0.02273 0.68843 0.0
H1410 H 0.67919 0.04672 0.70793 0.0
H1411 H 0.65667 0.03156 0.74263 0.0
C1412 C 0.73375 0.08113 0.7988 0.0
C1413 C 0.72212 0.08215 0.83396 0.0
C1414 C 0.72429 0.06348 0.77133 0.0
C1415 C 0.70296 0.04739 0.77796 0.0
C1416 C 0.69072 0.04968 0.80983 0.0
H1417 H 0.62641 0.912 0.7104 0.0
H1418 H 0.64063 0.94492 0.75408 0.0
C1419 C 0.70019 0.06681 0.83767 0.0
C1420 C 0.69454 0.02627 0.75871 0.0
H1421 H 0.65329 0.98883 0.69907 0.0
C1422 C 0.70311 0.01377 0.77314 0.0
C1423 C 0.6762 0.01729 0.73239 0.0
C1424 C 0.66649 0.03028 0.71664 0.0
C1425 C 0.69383 0.99232 0.76137 0.0
C1426 C 0.67578 0.98347 0.73444 0.0
C1427 C 0.66698 0.99582 0.72047 0.0
C1428 C 0.66848 0.96289 0.71374 0.0
C1429 C 0.70335 0.97919 0.77724 0.0
C1430 C 0.6797 0.96249 0.67759 0.0
C1431 C 0.67157 0.94416 0.65297 0.0
C1432 C 0.65251 0.9259 0.66467 0.0
C1433 C 0.64152 0.92592 0.70176 0.0
C1434 C 0.64951 0.94455 0.72637 0.0
H1435 H 0.71516 0.9874 0.80333 0.0
H1436 H 0.6905 0.96345 0.78912 0.0
H1437 H 0.71153 0.97615 0.75026 0.0
H1438 H 0.69413 0.97674 0.66713 0.0
H1439 H 0.67951 0.9446 0.62342 0.0
H1440 H 0.24524 0.42513 0.62451 0.0
H1441 H 0.22963 0.43213 0.68868 0.0
H1442 H 0.23867 0.38616 0.7599 0.0
H1443 H 0.25409 0.37923 0.69666 0.0
H1444 H 0.19185 0.39812 0.72717 0.0
H1445 H 0.25755 0.43517 0.84576 0.0
H1446 H 0.26246 0.43497 0.78893 0.0
H1447 H 0.25529 0.41168 0.82113 0.0
C1448 C 0.24451 0.41712 0.65433 0.0
C1449 C 0.25069 0.40156 0.6557 0.0
C1450 C 0.23551 0.42101 0.69082 0.0
C1451 C 0.23311 0.40975 0.72915 0.0
C1452 C 0.24067 0.3953 0.73103 0.0
H1453 H 0.16981 0.37489 0.97008 0.0
H1454 H 0.19162 0.38225 0.90608 0.0
C1455 C 0.24938 0.39128 0.69475 0.0
C1456 C 0.22036 0.41072 0.76557 0.0
H1457 H 0.22179 0.41787 0.87396 0.0
C1458 C 0.19842 0.40286 0.75918 0.0
C1459 C 0.22893 0.41653 0.80736 0.0
C1460 C 0.2524 0.42523 0.8162 0.0
C1461 C 0.18458 0.39955 0.79377 0.0
C1462 C 0.19308 0.40498 0.8358 0.0
C1463 C 0.21521 0.41368 0.84184 0.0
C1464 C 0.17927 0.40046 0.87434 0.0
C1465 C 0.16085 0.38904 0.78507 0.0
C1466 C 0.1649 0.40814 0.87804 0.0
C1467 C 0.15177 0.4033 0.91425 0.0
C1468 C 0.15329 0.39133 0.94817 0.0
C1469 C 0.16797 0.38398 0.94456 0.0
C1470 C 0.18067 0.38837 0.90803 0.0
H1471 H 0.15652 0.38054 0.75376 0.0
H1472 H 0.1514 0.3774 0.81062 0.0
H1473 H 0.15615 0.40148 0.78397 0.0
H1474 H 0.16382 0.4179 0.85298 0.0
H1475 H 0.14032 0.40878 0.91533 0.0
H1476 H 0.5893 0.76199 0.96683 0.0
H1477 H 0.58386 0.77606 0.89943 0.0
H1478 H 0.64499 0.78681 0.85365 0.0
H1479 H 0.64909 0.77047 0.91883 0.0
H1480 H 0.60527 0.81405 0.8673 0.0
H1481 H 0.61101 0.75978 0.75004 0.0
H1482 H 0.60861 0.75441 0.80684 0.0
H1483 H 0.63433 0.77241 0.78325 0.0
C1484 C 0.60111 0.76662 0.94158 0.0
C1485 C 0.61939 0.76479 0.94741 0.0
C1486 C 0.59818 0.77494 0.90334 0.0
C1487 C 0.61378 0.78211 0.8708 0.0
C1488 C 0.6323 0.78068 0.87732 0.0
H1489 H 0.63852 0.84679 0.6267 0.0
H1490 H 0.6396 0.82967 0.69375 0.0
C1491 C 0.63485 0.7717 0.9149 0.0
C1492 C 0.61138 0.79223 0.83122 0.0
H1493 H 0.61533 0.79245 0.72207 0.0
C1494 C 0.60727 0.80921 0.83548 0.0
C1495 C 0.61389 0.7859 0.78962 0.0
C1496 C 0.61697 0.76698 0.78216 0.0
C1497 C 0.60658 0.82063 0.79963 0.0
C1498 C 0.60975 0.81467 0.75803 0.0
C1499 C 0.61323 0.79729 0.75381 0.0
C1500 C 0.60994 0.82634 0.71841 0.0
C1501 C 0.60325 0.8394 0.80721 0.0
C1502 C 0.59306 0.83008 0.70914 0.0
C1503 C 0.59372 0.84146 0.67238 0.0
C1504 C 0.61088 0.84868 0.64313 0.0
C1505 C 0.62666 0.84336 0.65063 0.0
C1506 C 0.62665 0.83287 0.68834 0.0
H1507 H 0.60762 0.84565 0.84045 0.0
H1508 H 0.61283 0.85265 0.78452 0.0
H1509 H 0.58606 0.83416 0.80275 0.0
H1510 H 0.57932 0.82418 0.73017 0.0
H1511 H 0.58068 0.84452 0.66687 0.0
H1512 H 0.21962 0.82851 0.98815 0.0
H1513 H 0.20425 0.80656 0.9244 0.0
H1514 H 0.25122 0.85768 0.84556 0.0
H1515 H 0.26719 0.87958 0.90986 0.0
H1516 H 0.1856 0.81364 0.85957 0.0
H1517 H 0.25429 0.80782 0.797 0.0
H1518 H 0.25404 0.81762 0.85014 0.0
H1519 H 0.2607 0.83502 0.80442 0.0
C1520 C 0.22684 0.83504 0.95728 0.0
C1521 C 0.24465 0.85576 0.95392 0.0
C1522 C 0.21804 0.82243 0.92084 0.0
C1523 C 0.22672 0.83029 0.88013 0.0
C1524 C 0.24459 0.851 0.87668 0.0
H1525 H 0.18352 0.79314 0.62019 0.0
H1526 H 0.20292 0.81019 0.68638 0.0
C1527 C 0.25362 0.86356 0.91335 0.0
C1528 C 0.21606 0.81731 0.84131 0.0
H1529 H 0.22476 0.79733 0.74877 0.0
C1530 C 0.19415 0.80992 0.83557 0.0
C1531 C 0.22714 0.81227 0.81014 0.0
C1532 C 0.25028 0.8184 0.81589 0.0
C1533 C 0.18319 0.79828 0.79896 0.0
C1534 C 0.1944 0.79385 0.76709 0.0
C1535 C 0.21623 0.80089 0.77308 0.0
C1536 C 0.18379 0.78271 0.72662 0.0
C1537 C 0.15978 0.79129 0.79419 0.0
C1538 C 0.16687 0.76145 0.72713 0.0
C1539 C 0.15576 0.75167 0.68937 0.0
C1540 C 0.16134 0.76299 0.65035 0.0
C1541 C 0.17868 0.78408 0.64977 0.0
C1542 C 0.18986 0.79379 0.68751 0.0
H1543 H 0.1547 0.79976 0.81693 0.0
H1544 H 0.15622 0.79413 0.76102 0.0
H1545 H 0.15004 0.77389 0.80078 0.0
H1546 H 0.16205 0.75252 0.75688 0.0
H1547 H 0.14252 0.73541 0.691 0.0
H1548 H 0.3813 0.17302 0.51827 0.0
H1549 H 0.38419 0.19123 0.58606 0.0
H1550 H 0.40627 0.15275 0.64856 0.0
H1551 H 0.40325 0.13412 0.58073 0.0
H1552 H 0.36568 0.15937 0.68385 0.0
H1553 H 0.44658 0.23043 0.65714 0.0
H1554 H 0.42815 0.21885 0.61292 0.0
H1555 H 0.43974 0.2044 0.63634 0.0
C1556 C 0.38684 0.16837 0.54628 0.0
C1557 C 0.3921 0.15206 0.54382 0.0
C1558 C 0.38848 0.17886 0.58505 0.0
C1559 C 0.39549 0.17337 0.62224 0.0
C1560 C 0.40084 0.15721 0.62012 0.0
H1561 H 0.41971 0.23116 0.8795 0.0
H1562 H 0.419 0.21045 0.81602 0.0
C1563 C 0.39915 0.14662 0.58129 0.0
C1564 C 0.39675 0.1843 0.66344 0.0
H1565 H 0.42825 0.23002 0.72032 0.0
C1566 C 0.37942 0.17472 0.69205 0.0
C1567 C 0.41462 0.20439 0.67378 0.0
C1568 C 0.43344 0.21527 0.64366 0.0
C1569 C 0.37942 0.18486 0.73064 0.0
C1570 C 0.39722 0.20502 0.74091 0.0
C1571 C 0.41469 0.21448 0.71253 0.0
C1572 C 0.39738 0.21698 0.77989 0.0
C1573 C 0.36029 0.17418 0.7601 0.0
C1574 C 0.38574 0.22772 0.78035 0.0
C1575 C 0.38643 0.23978 0.81609 0.0
C1576 C 0.39802 0.24061 0.85304 0.0
C1577 C 0.40987 0.23002 0.85231 0.0
C1578 C 0.40959 0.21832 0.81602 0.0
H1579 H 0.34926 0.15725 0.75101 0.0
H1580 H 0.36553 0.17475 0.79378 0.0
H1581 H 0.35132 0.18293 0.75873 0.0
H1582 H 0.37661 0.2273 0.75245 0.0
H1583 H 0.3785 0.24899 0.8136 0.0
H1584 H 0.83018 0.23617 0.51668 0.0
H1585 H 0.80933 0.22057 0.58231 0.0
H1586 H 0.86725 0.23427 0.6489 0.0
H1587 H 0.88817 0.25112 0.58394 0.0
H1588 H 0.8032 0.18687 0.62498 0.0
H1589 H 0.8425 0.25604 0.73517 0.0
H1590 H 0.84728 0.25871 0.67812 0.0
H1591 H 0.86123 0.2495 0.712 0.0
C1592 C 0.8384 0.23619 0.54575 0.0
C1593 C 0.86069 0.24505 0.54585 0.0
C1594 C 0.82652 0.22723 0.5831 0.0
C1595 C 0.83671 0.22657 0.62095 0.0
C1596 C 0.85907 0.23527 0.62072 0.0
H1597 H 0.79952 0.17319 0.87438 0.0
H1598 H 0.81741 0.19017 0.80751 0.0
C1599 C 0.87101 0.2448 0.58364 0.0
C1600 C 0.82382 0.21575 0.65985 0.0
H1601 H 0.82002 0.22212 0.76738 0.0
C1602 C 0.80676 0.19463 0.65611 0.0
C1603 C 0.8284 0.22585 0.70046 0.0
C1604 C 0.84571 0.24884 0.70663 0.0
C1605 C 0.79471 0.18306 0.692 0.0
C1606 C 0.7996 0.19304 0.73286 0.0
C1607 C 0.81635 0.21433 0.7363 0.0
C1608 C 0.78821 0.18169 0.77286 0.0
C1609 C 0.77743 0.16006 0.6857 0.0
C1610 C 0.76577 0.17128 0.7762 0.0
C1611 C 0.75544 0.16069 0.81408 0.0
C1612 C 0.76737 0.16086 0.84988 0.0
C1613 C 0.78981 0.17213 0.84709 0.0
C1614 C 0.80008 0.18209 0.80888 0.0
H1615 H 0.78007 0.15317 0.656 0.0
H1616 H 0.77659 0.14998 0.71329 0.0
H1617 H 0.76174 0.15927 0.68251 0.0
H1618 H 0.7562 0.17143 0.74968 0.0
H1619 H 0.73813 0.15253 0.81538 0.0
H1620 H 0.86091 0.58954 0.80818 0.0
H1621 H 0.8404 0.58529 0.74244 0.0
H1622 H 0.80719 0.61317 0.80626 0.0
H1623 H 0.82721 0.61708 0.87178 0.0
H1624 H 0.78997 0.56718 0.72673 0.0
H1625 H 0.84645 0.6539 0.70098 0.0
H1626 H 0.85297 0.63738 0.73382 0.0
H1627 H 0.83561 0.64643 0.75428 0.0
C1628 C 0.84856 0.59381 0.80874 0.0
C1629 C 0.84561 0.60354 0.84515 0.0
C1630 C 0.83703 0.59161 0.77106 0.0
C1631 C 0.8225 0.59916 0.76957 0.0
C1632 C 0.81839 0.60733 0.80682 0.0
H1633 H 0.74903 0.62639 0.58808 0.0
H1634 H 0.76437 0.61969 0.65281 0.0
C1635 C 0.8298 0.60947 0.84424 0.0
C1636 C 0.81317 0.60079 0.72858 0.0
H1637 H 0.8153 0.63773 0.65754 0.0
C1638 C 0.79559 0.58252 0.71126 0.0
C1639 C 0.82068 0.62086 0.70854 0.0
C1640 C 0.84007 0.64079 0.72502 0.0
C1641 C 0.78485 0.584 0.675 0.0
C1642 C 0.79187 0.6042 0.6561 0.0
C1643 C 0.80978 0.62234 0.67274 0.0
C1644 C 0.78131 0.60677 0.61795 0.0
C1645 C 0.76582 0.56414 0.6574 0.0
C1646 C 0.78583 0.60168 0.57742 0.0
C1647 C 0.77744 0.60577 0.54082 0.0
C1648 C 0.76417 0.61479 0.54418 0.0
C1649 C 0.75907 0.61928 0.58487 0.0
C1650 C 0.76784 0.61552 0.62162 0.0
H1651 H 0.76106 0.54998 0.67818 0.0
H1652 H 0.75199 0.56674 0.6539 0.0
H1653 H 0.76977 0.56068 0.62501 0.0
H1654 H 0.79627 0.59502 0.57405 0.0
H1655 H 0.78143 0.60197 0.50975 0.0
H1656 H 0.88438 0.62532 0.08362 0.0
H1657 H 0.86418 0.62132 0.14984 0.0
H1658 H 0.80807 0.60599 0.07517 0.0
H1659 H 0.8283 0.61047 0.00887 0.0
H1660 H 0.83815 0.64579 0.16386 0.0
H1661 H 0.79307 0.55686 0.17391 0.0
H1662 H 0.81876 0.57145 0.1474 0.0
H1663 H 0.79535 0.56908 0.12231 0.0
C1664 C 0.8677 0.62095 0.08144 0.0
C1665 C 0.85786 0.61823 0.04129 0.0
C1666 C 0.85623 0.61873 0.11916 0.0
C1667 C 0.83467 0.61329 0.11723 0.0
C1668 C 0.82471 0.61016 0.07719 0.0
H1669 H 0.73793 0.59528 0.30479 0.0
H1670 H 0.75757 0.59643 0.23969 0.0
C1671 C 0.83627 0.61279 0.03946 0.0
C1672 C 0.82273 0.61162 0.15701 0.0
H1673 H 0.78455 0.57566 0.22507 0.0
C1674 C 0.8265 0.63049 0.17743 0.0
C1675 C 0.80752 0.59161 0.17428 0.0
C1676 C 0.80338 0.571 0.15366 0.0
C1677 C 0.81521 0.62986 0.21467 0.0
C1678 C 0.80002 0.60985 0.2321 0.0
C1679 C 0.79623 0.59096 0.21159 0.0
C1680 C 0.788 0.60833 0.27177 0.0
C1681 C 0.81928 0.65057 0.23477 0.0
C1682 C 0.79853 0.61418 0.31144 0.0
C1683 C 0.78731 0.61323 0.34876 0.0
C1684 C 0.76546 0.60687 0.34695 0.0
C1685 C 0.75483 0.60052 0.30725 0.0
C1686 C 0.766 0.60116 0.27001 0.0
H1687 H 0.82856 0.66446 0.21321 0.0
H1688 H 0.80391 0.64974 0.24309 0.0
H1689 H 0.82848 0.65334 0.26488 0.0
H1690 H 0.81545 0.61948 0.31352 0.0
H1691 H 0.79581 0.61767 0.37899 0.0
H1692 H 0.43349 0.18331 0.36311 0.0
H1693 H 0.43562 0.20426 0.2994 0.0
H1694 H 0.37073 0.1574 0.26673 0.0
H1695 H 0.36894 0.13605 0.3284 0.0
H1696 H 0.41481 0.1775 0.20012 0.0
H1697 H 0.3885 0.22967 0.27934 0.0
H1698 H 0.40393 0.22025 0.30794 0.0
H1699 H 0.37657 0.20192 0.29458 0.0
C1700 C 0.41952 0.17772 0.34281 0.0
C1701 C 0.40055 0.15858 0.35257 0.0
C1702 C 0.42083 0.18961 0.30635 0.0
C1703 C 0.40322 0.18247 0.27884 0.0
C1704 C 0.38438 0.16331 0.28806 0.0
H1705 H 0.3631 0.23148 0.0726 0.0
H1706 H 0.36831 0.21621 0.1381 0.0
C1707 C 0.38317 0.15133 0.32422 0.0
C1708 C 0.40441 0.19482 0.24012 0.0
H1709 H 0.39353 0.23295 0.20455 0.0
C1710 C 0.41039 0.18979 0.20092 0.0
C1711 C 0.39843 0.21063 0.24154 0.0
C1712 C 0.39149 0.21611 0.283 0.0
C1713 C 0.40998 0.19984 0.1626 0.0
C1714 C 0.40387 0.21568 0.1639 0.0
C1715 C 0.39835 0.22095 0.2035 0.0
C1716 C 0.40134 0.22571 0.12435 0.0
C1717 C 0.41511 0.19264 0.12099 0.0
C1718 C 0.41823 0.23647 0.09493 0.0
C1719 C 0.41501 0.24469 0.05677 0.0
C1720 C 0.39502 0.2427 0.04798 0.0
C1721 C 0.37848 0.23276 0.0782 0.0
C1722 C 0.38156 0.22427 0.11586 0.0
H1723 H 0.41405 0.17684 0.12426 0.0
H1724 H 0.40409 0.19155 0.09505 0.0
H1725 H 0.43171 0.20441 0.11117 0.0
H1726 H 0.4338 0.23827 0.10113 0.0
H1727 H 0.42788 0.25189 0.03359 0.0
H1728 H 0.78672 0.18233 0.01268 0.0
H1729 H 0.80247 0.20344 0.07792 0.0
H1730 H 0.76657 0.14681 0.15483 0.0
H1731 H 0.75035 0.12566 0.08953 0.0
H1732 H 0.77701 0.20312 0.16529 0.0
H1733 H 0.83743 0.1767 0.17072 0.0
H1734 H 0.82496 0.17775 0.12131 0.0
H1735 H 0.80998 0.15692 0.15934 0.0
C1736 C 0.78207 0.17447 0.0436 0.0
C1737 C 0.76747 0.15242 0.04637 0.0
C1738 C 0.79096 0.18653 0.08069 0.0
C1739 C 0.78567 0.17661 0.12095 0.0
C1740 C 0.77071 0.15468 0.1239 0.0
H1741 H 0.83677 0.21225 0.37602 0.0
H1742 H 0.81764 0.19422 0.31059 0.0
C1743 C 0.76147 0.14267 0.08679 0.0
C1744 C 0.7969 0.18889 0.15964 0.0
H1745 H 0.83739 0.19796 0.22815 0.0
C1746 C 0.79025 0.20209 0.17912 0.0
C1747 C 0.81422 0.18756 0.17707 0.0
C1748 C 0.82227 0.17408 0.15612 0.0
C1749 C 0.80025 0.21368 0.21654 0.0
C1750 C 0.81741 0.21209 0.23442 0.0
C1751 C 0.82418 0.19906 0.21446 0.0
C1752 C 0.82829 0.22336 0.27445 0.0
C1753 C 0.79212 0.22712 0.23725 0.0
C1754 C 0.84067 0.24576 0.2758 0.0
C1755 C 0.85185 0.25614 0.3131 0.0
C1756 C 0.85081 0.24429 0.34972 0.0
C1757 C 0.83806 0.22187 0.34838 0.0
C1758 C 0.82706 0.21152 0.31103 0.0
H1759 H 0.7763 0.22343 0.22427 0.0
H1760 H 0.79069 0.22461 0.2725 0.0
H1761 H 0.80368 0.24427 0.23121 0.0
H1762 H 0.84206 0.25518 0.24772 0.0
H1763 H 0.86151 0.27341 0.31301 0.0
H1764 H 0.62518 0.79711 0.1153 0.0
H1765 H 0.62541 0.81625 0.18062 0.0
H1766 H 0.6003 0.7578 0.25306 0.0
H1767 H 0.59989 0.73852 0.1881 0.0
H1768 H 0.58472 0.80052 0.24455 0.0
H1769 H 0.66012 0.80846 0.31006 0.0
H1770 H 0.65447 0.80589 0.25323 0.0
H1771 H 0.64058 0.78309 0.2876 0.0
C1772 C 0.61972 0.78834 0.14514 0.0
C1773 C 0.61252 0.7663 0.14649 0.0
C1774 C 0.61978 0.79928 0.18233 0.0
C1775 C 0.61283 0.7884 0.22153 0.0
C1776 C 0.60568 0.76644 0.22304 0.0
H1777 H 0.61903 0.82798 0.48518 0.0
H1778 H 0.61396 0.80825 0.4185 0.0
C1779 C 0.60545 0.75546 0.18586 0.0
C1780 C 0.61337 0.80001 0.26117 0.0
H1781 H 0.64173 0.82064 0.35341 0.0
C1782 C 0.5972 0.80504 0.26837 0.0
C1783 C 0.62956 0.80565 0.29217 0.0
C1784 C 0.6473 0.80065 0.28561 0.0
C1785 C 0.59664 0.81534 0.30631 0.0
C1786 C 0.613 0.8212 0.33725 0.0
C1787 C 0.62918 0.81617 0.32976 0.0
C1788 C 0.61374 0.8324 0.37786 0.0
C1789 C 0.57822 0.81929 0.31341 0.0
C1790 C 0.61499 0.85244 0.37743 0.0
C1791 C 0.61772 0.86371 0.41571 0.0
C1792 C 0.61957 0.85525 0.45498 0.0
C1793 C 0.61782 0.83499 0.45538 0.0
C1794 C 0.6149 0.82368 0.41728 0.0
H1795 H 0.56418 0.80857 0.29328 0.0
H1796 H 0.57317 0.8169 0.34757 0.0
H1797 H 0.58331 0.83603 0.30452 0.0
H1798 H 0.61462 0.85974 0.34739 0.0
H1799 H 0.61922 0.87938 0.41437 0.0
H1800 H 0.1336 0.73875 0.41103 0.0
H1801 H 0.15471 0.7551 0.34605 0.0
H1802 H 0.19721 0.81166 0.41811 0.0
H1803 H 0.17689 0.79531 0.48305 0.0
H1804 H 0.16189 0.79255 0.30772 0.0
H1805 H 0.23939 0.8001 0.35528 0.0
H1806 H 0.21481 0.78337 0.38406 0.0
H1807 H 0.22934 0.8118 0.39276 0.0
C1808 C 0.14768 0.75449 0.41317 0.0
C1809 C 0.1537 0.76555 0.45239 0.0
C1810 C 0.15967 0.76385 0.376 0.0
C1811 C 0.17779 0.78443 0.37741 0.0
C1812 C 0.18369 0.79554 0.41645 0.0
H1813 H 0.26919 0.87345 0.19231 0.0
H1814 H 0.24937 0.85462 0.25698 0.0
C1815 C 0.1719 0.78616 0.45356 0.0
C1816 C 0.1898 0.79489 0.33766 0.0
H1817 H 0.23958 0.81879 0.29232 0.0
C1818 C 0.17884 0.79813 0.30411 0.0
C1819 C 0.21198 0.80244 0.33339 0.0
C1820 C 0.22455 0.79911 0.36814 0.0
C1821 C 0.1895 0.80917 0.26673 0.0
C1822 C 0.21169 0.81654 0.26203 0.0
C1823 C 0.22262 0.81316 0.29567 0.0
C1824 C 0.22386 0.82788 0.2227 0.0
C1825 C 0.17693 0.81352 0.23361 0.0
C1826 C 0.21642 0.81909 0.1818 0.0
C1827 C 0.22729 0.83022 0.14491 0.0
C1828 C 0.24637 0.8499 0.14813 0.0
C1829 C 0.25445 0.8583 0.18895 0.0
C1830 C 0.24316 0.84751 0.2259 0.0
H1831 H 0.16283 0.81348 0.2481 0.0
H1832 H 0.18699 0.82917 0.21766 0.0
H1833 H 0.17084 0.80074 0.20892 0.0
H1834 H 0.20214 0.80359 0.17829 0.0
H1835 H 0.22096 0.82326 0.11378 0.0
H1836 H 0.18148 0.38996 0.11201 0.0
H1837 H 0.20011 0.38939 0.17737 0.0
H1838 H 0.16052 0.40626 0.25255 0.0
H1839 H 0.14128 0.40586 0.18787 0.0
H1840 H 0.22305 0.42228 0.23698 0.0
H1841 H 0.15323 0.35334 0.31437 0.0
H1842 H 0.1534 0.35964 0.25832 0.0
H1843 H 0.14878 0.37468 0.29868 0.0
C1844 C 0.1765 0.39309 0.14265 0.0
C1845 C 0.15952 0.39727 0.14502 0.0
C1846 C 0.18727 0.39299 0.17984 0.0
C1847 C 0.1814 0.39736 0.21993 0.0
C1848 C 0.16493 0.40229 0.22213 0.0
H1849 H 0.22091 0.3958 0.48174 0.0
H1850 H 0.20465 0.39998 0.41648 0.0
C1851 C 0.15405 0.40218 0.18507 0.0
C1852 C 0.19261 0.39695 0.2594 0.0
H1853 H 0.1846 0.3719 0.35597 0.0
C1854 C 0.2147 0.41124 0.26299 0.0
C1855 C 0.18162 0.38263 0.29339 0.0
C1856 C 0.15798 0.36657 0.29101 0.0
C1857 C 0.22606 0.41182 0.29999 0.0
C1858 C 0.21511 0.39728 0.33377 0.0
C1859 C 0.193 0.38304 0.33012 0.0
C1860 C 0.22613 0.39634 0.37317 0.0
C1861 C 0.24954 0.42836 0.30284 0.0
C1862 C 0.24367 0.39298 0.37064 0.0
C1863 C 0.25326 0.39106 0.40797 0.0
C1864 C 0.24505 0.39183 0.44834 0.0
C1865 C 0.22748 0.39507 0.45092 0.0
C1866 C 0.2182 0.39746 0.41368 0.0
H1867 H 0.25368 0.44222 0.28156 0.0
H1868 H 0.2542 0.4343 0.33617 0.0
H1869 H 0.25917 0.42109 0.29235 0.0
H1870 H 0.24964 0.39135 0.33984 0.0
H1871 H 0.26661 0.38824 0.40524 0.0
H1872 H 0.19218 0.27723 0.08415 0.0
H1873 H 0.22297 0.27504 0.05953 0.0
H1874 H 0.25842 0.34339 0.04158 0.0
H1875 H 0.22779 0.34587 0.06891 0.0
H1876 H 0.24393 0.28368 0.98726 0.0
H1877 H 0.30093 0.33664 0.11178 0.0
H1878 H 0.27268 0.32757 0.11435 0.0
H1879 H 0.28985 0.34907 0.07899 0.0
C1880 C 0.20657 0.29193 0.07558 0.0
C1881 C 0.20748 0.3118 0.07961 0.0
C1882 C 0.22422 0.29061 0.06103 0.0
C1883 C 0.2434 0.30906 0.04952 0.0
C1884 C 0.24413 0.32891 0.05143 0.0
H1885 H 0.35939 0.31071 0.9502 0.0
H1886 H 0.33264 0.32105 0.96753 0.0
C1887 C 0.22642 0.33028 0.06646 0.0
C1888 C 0.26227 0.30702 0.03573 0.0
H1889 H 0.31417 0.32186 0.06095 0.0
C1890 C 0.25929 0.29218 0.00333 0.0
C1891 C 0.28249 0.31803 0.05648 0.0
C1892 C 0.28672 0.33359 0.09257 0.0
C1893 C 0.27556 0.28774 0.99192 0.0
C1894 C 0.29548 0.29833 0.01332 0.0
C1895 C 0.29886 0.31371 0.04462 0.0
C1896 C 0.31247 0.29273 0.00479 0.0
C1897 C 0.27124 0.27135 0.95758 0.0
C1898 C 0.31029 0.27354 0.02056 0.0
C1899 C 0.32573 0.26772 0.01127 0.0
C1900 C 0.34356 0.28072 0.98529 0.0
C1901 C 0.34592 0.30021 0.97031 0.0
C1902 C 0.33059 0.30617 0.98008 0.0
H1903 H 0.25667 0.2674 0.9387 0.0
H1904 H 0.28511 0.27712 0.9354 0.0
H1905 H 0.26887 0.2565 0.97298 0.0
H1906 H 0.29655 0.26298 0.03998 0.0
H1907 H 0.32366 0.25299 0.0245 0.0
H1908 H 0.70644 0.05895 0.04048 0.0
H1909 H 0.69535 0.02182 0.0611 0.0
H1910 H 0.73064 0.01717 0.95407 0.0
H1911 H 0.74074 0.05325 0.93238 0.0
H1912 H 0.67421 0.98082 0.00403 0.0
H1913 H 0.75487 1.00353 0.06683 0.0
H1914 H 0.74577 0.02258 0.06119 0.0
H1915 H 0.75433 0.01404 0.01489 0.0
C1916 C 0.71171 0.04995 0.0213 0.0
C1917 C 0.72518 0.05948 0.98563 0.0
C1918 C 0.70539 0.02875 0.03311 0.0
C1919 C 0.71252 0.01685 0.00956 0.0
C1920 C 0.72527 0.02611 0.97323 0.0
H1921 H 0.71208 0.89641 0.03229 0.0
H1922 H 0.71576 0.93027 0.00643 0.0
C1923 C 0.7313 0.04698 0.96124 0.0
C1924 C 0.70723 0.9949 0.02268 0.0
H1925 H 0.73037 0.96649 0.05844 0.0
C1926 C 0.6864 0.97767 0.01641 0.0
C1927 C 0.72322 0.99076 0.03813 0.0
C1928 C 0.7458 0.00867 0.04603 0.0
C1929 C 0.68126 0.95641 0.0245 0.0
C1930 C 0.69728 0.95227 0.03994 0.0
C1931 C 0.71808 0.96956 0.04638 0.0
C1932 C 0.69279 0.93029 0.05118 0.0
C1933 C 0.65888 0.93848 0.01524 0.0
C1934 C 0.67838 0.91876 0.08432 0.0
C1935 C 0.67628 0.89948 0.09898 0.0
C1936 C 0.68843 0.8912 0.08068 0.0
C1937 C 0.70217 0.90219 0.04628 0.0
C1938 C 0.70441 0.92162 0.03181 0.0
H1939 H 0.65026 0.94364 0.99315 0.0
H1940 H 0.65917 0.92456 0.00088 0.0
H1941 H 0.6497 0.9332 0.04569 0.0
H1942 H 0.66955 0.92522 0.10044 0.0
H1943 H 0.66592 0.89153 0.12612 0.0
H1944 H 0.96389 0.66288 0.93187 0.0
H1945 H 1.00067 0.68961 0.94984 0.0
H1946 H 0.97799 0.70825 0.06074 0.0
H1947 H 0.94122 0.68027 0.04451 0.0
H1948 H 0.01993 0.73102 0.95301 0.0
H1949 H 0.0246 0.70284 0.11524 0.0
H1950 H 1.00254 0.68713 0.07958 0.0
H1951 H 1.00299 0.70822 0.11133 0.0
C1952 C 0.96675 0.67245 0.9605 0.0
C1953 C 0.94958 0.66966 0.98655 0.0
C1954 C 0.98782 0.68786 0.97058 0.0
C1955 C 0.99231 0.70088 0.00699 0.0
C1956 C 0.97515 0.69812 0.03306 0.0
H1957 H 0.09713 0.81855 0.09391 0.0
H1958 H 0.06395 0.78937 0.06399 0.0
C1959 C 0.95405 0.68241 0.02333 0.0
C1960 C 0.01483 0.71773 0.01671 0.0
H1961 H 0.0522 0.73833 0.09674 0.0
C1962 C 0.02702 0.73241 0.98433 0.0
C1963 C 0.02437 0.71949 0.05736 0.0
C1964 C 0.01302 0.70343 0.09267 0.0
C1965 C 0.04802 0.74917 0.99205 0.0
C1966 C 0.05701 0.7515 0.03322 0.0
C1967 C 0.04518 0.73654 0.0652 0.0
C1968 C 0.07795 0.77029 0.04495 0.0
C1969 C 0.06043 0.76459 0.95655 0.0
C1970 C 0.097 0.7695 0.04298 0.0
C1971 C 0.11613 0.78631 0.05985 0.0
C1972 C 0.11633 0.80397 0.07944 0.0
C1973 C 0.09744 0.80512 0.07918 0.0
C1974 C 0.07847 0.78847 0.06214 0.0
H1975 H 0.0518 0.75978 0.92543 0.0
H1976 H 0.06345 0.78078 0.96516 0.0
H1977 H 0.07624 0.76565 0.95268 0.0
H1978 H 0.09688 0.75554 0.02993 0.0
H1979 H 0.13039 0.78492 0.05992 0.0
H1980 H 0.31312 0.21426 0.35194 0.0
H1981 H 0.31197 0.24628 0.37307 0.0
H1982 H 0.32262 0.23619 0.50486 0.0
H1983 H 0.32409 0.20417 0.48362 0.0
H1984 H 0.28025 0.24226 0.43161 0.0
H1985 H 0.36154 0.30182 0.48972 0.0
H1986 H 0.35699 0.2803 0.45373 0.0
H1987 H 0.35015 0.2749 0.50942 0.0
C1988 C 0.31561 0.2191 0.3853 0.0
C1989 C 0.31854 0.20668 0.4162 0.0
C1990 C 0.31505 0.23743 0.39731 0.0
C1991 C 0.31737 0.24374 0.44048 0.0
C1992 C 0.32125 0.2319 0.47125 0.0
H1993 H 0.30073 0.34265 0.56749 0.0
H1994 H 0.30941 0.31478 0.54989 0.0
C1995 C 0.32199 0.21357 0.45914 0.0
C1996 C 0.31276 0.26083 0.45344 0.0
H1997 H 0.33442 0.31084 0.49704 0.0
C1998 C 0.29214 0.25732 0.44572 0.0
C1999 C 0.32813 0.28022 0.47275 0.0
C2000 C 0.35052 0.28474 0.48178 0.0
C2001 C 0.28636 0.27254 0.45679 0.0
C2002 C 0.30184 0.29241 0.47469 0.0
C2003 C 0.32251 0.2958 0.48299 0.0
C2004 C 0.2968 0.30965 0.48524 0.0
C2005 C 0.26334 0.26657 0.45118 0.0
C2006 C 0.28694 0.31635 0.4549 0.0
C2007 C 0.28136 0.33178 0.46547 0.0
C2008 C 0.28632 0.34152 0.50599 0.0
C2009 C 0.29682 0.33543 0.5359 0.0
C2010 C 0.30182 0.31953 0.52579 0.0
H2011 H 0.25245 0.24896 0.45181 0.0
H2012 H 0.2586 0.27375 0.47713 0.0
H2013 H 0.26127 0.27251 0.41979 0.0
H2014 H 0.28358 0.30971 0.42287 0.0
H2015 H 0.2735 0.33637 0.4417 0.0
H2016 H 0.65275 0.95114 0.46765 0.0
H2017 H 0.67844 0.98777 0.44358 0.0
H2018 H 0.72289 0.99227 0.54092 0.0
H2019 H 0.69824 0.95605 0.56289 0.0
H2020 H 0.69739 0.02655 0.48014 0.0
H2021 H 0.76097 0.00814 0.44001 0.0
H2022 H 0.73399 0.98746 0.45206 0.0
H2023 H 0.75277 1.00141 0.49467 0.0
C2024 C 0.66808 0.95998 0.4836 0.0
C2025 C 0.67359 0.95041 0.51668 0.0
C2026 C 0.68274 0.9809 0.46991 0.0
C2027 C 0.70299 0.99264 0.4895 0.0
C2028 C 0.70786 0.98339 0.52393 0.0
H2029 H 0.81763 0.11806 0.47151 0.0
H2030 H 0.78724 0.08427 0.49764 0.0
C2031 C 0.69357 0.96253 0.53675 0.0
C2032 C 0.71922 0.01452 0.47467 0.0
H2033 H 0.77219 0.04529 0.44829 0.0
C2034 C 0.71368 0.03058 0.47275 0.0
C2035 C 0.74054 0.01988 0.46471 0.0
C2036 C 0.74734 1.00324 0.4625 0.0
C2037 C 0.72901 0.0519 0.46265 0.0
C2038 C 0.75044 0.05732 0.45438 0.0
C2039 C 0.75587 0.04122 0.45556 0.0
C2040 C 0.76734 0.07932 0.44207 0.0
C2041 C 0.7223 0.06858 0.46171 0.0
C2042 C 0.76608 0.08796 0.40268 0.0
C2043 C 0.78337 0.10712 0.38781 0.0
C2044 C 0.80227 0.11811 0.41202 0.0
C2045 C 0.80314 0.11009 0.45252 0.0
C2046 C 0.78586 0.09074 0.46727 0.0
H2047 H 0.70672 0.063 0.47817 0.0
H2048 H 0.73461 0.08364 0.47703 0.0
H2049 H 0.72057 0.07219 0.42787 0.0
H2050 H 0.75218 0.07932 0.38233 0.0
H2051 H 0.78237 0.11288 0.35631 0.0
H2052 H 0.90567 0.68889 0.34611 0.0
H2053 H 0.93902 0.69096 0.36937 0.0
H2054 H 0.9252 0.69955 0.50022 0.0
H2055 H 0.89128 0.69654 0.47696 0.0
H2056 H 0.97174 0.72469 0.40241 0.0
H2057 H 0.94654 0.65881 0.5198 0.0
H2058 H 0.92779 0.66057 0.48422 0.0
H2059 H 0.93655 0.67644 0.53238 0.0
C2060 C 0.90957 0.69077 0.37995 0.0
C2061 C 0.89595 0.69256 0.40974 0.0
C2062 C 0.92865 0.69198 0.39327 0.0
C2063 C 0.93471 0.69526 0.43667 0.0
C2064 C 0.92076 0.69647 0.46674 0.0
H2065 H 0.05757 0.74202 0.56047 0.0
H2066 H 0.02069 0.73117 0.541 0.0
C2067 C 0.90143 0.69489 0.45343 0.0
C2068 C 0.95649 0.69953 0.44923 0.0
H2069 H 0.98389 0.68479 0.5177 0.0
C2070 C 0.97428 0.71574 0.42731 0.0
C2071 C 0.96 0.68804 0.48201 0.0
C2072 C 0.9417 0.66986 0.5057 0.0
C2073 C 0.9953 0.72091 0.43741 0.0
C2074 C 0.99878 0.70955 0.47017 0.0
C2075 C 0.98113 0.69339 0.49236 0.0
C2076 C 0.02081 0.71502 0.48269 0.0
C2077 C 0.01379 0.73884 0.41361 0.0
C2078 C 0.03313 0.70944 0.45644 0.0
C2079 C 0.05433 0.71567 0.46752 0.0
C2080 C 0.06362 0.72796 0.50452 0.0
C2081 C 0.05109 0.73322 0.53094 0.0
C2082 C 0.02991 0.72676 0.52023 0.0
H2083 H 0.00859 0.74788 0.39285 0.0
H2084 H 0.02597 0.75013 0.43662 0.0
H2085 H 0.0216 0.73213 0.39315 0.0
H2086 H 0.02636 0.70034 0.42732 0.0
H2087 H 0.06354 0.71117 0.44694 0.0
H2088 H 0.65985 0.70165 0.0538 0.0
H2089 H 0.68665 0.69155 0.03713 0.0
H2090 H 0.71225 0.73921 0.93726 0.0
H2091 H 0.68566 0.74979 0.95474 0.0
H2092 H 0.69548 0.67556 0.96785 0.0
H2093 H 0.76566 0.75512 0.00313 0.0
H2094 H 0.7387 0.74759 0.01844 0.0
H2095 H 0.7478 0.75597 0.96428 0.0
C2096 C 0.67113 0.70997 0.02811 0.0
C2097 C 0.6707 0.72667 0.00572 0.0
C2098 C 0.6865 0.70415 0.01863 0.0
C2099 C 0.70182 0.71478 0.98636 0.0
C2100 C 0.70106 0.73111 0.96314 0.0
H2101 H 0.78943 0.6845 0.85961 0.0
H2102 H 0.75768 0.68588 0.8823 0.0
C2103 C 0.68579 0.73712 0.97299 0.0
C2104 C 0.71863 0.70888 0.97758 0.0
H2105 H 0.77286 0.72968 0.97116 0.0
C2106 C 0.71238 0.68742 0.96866 0.0
C2107 C 0.74079 0.72414 0.97944 0.0
C2108 C 0.74875 0.747 0.9922 0.0
C2109 C 0.72763 0.68108 0.96043 0.0
C2110 C 0.74967 0.69655 0.9609 0.0
C2111 C 0.75593 0.71783 0.97066 0.0
C2112 C 0.76661 0.69142 0.9492 0.0
C2113 C 0.72019 0.65787 0.95172 0.0
C2114 C 0.78197 0.69348 0.97947 0.0
C2115 C 0.80014 0.69251 0.96658 0.0
C2116 C 0.80339 0.68985 0.92308 0.0
C2117 C 0.78731 0.68648 0.89338 0.0
C2118 C 0.76913 0.68725 0.9063 0.0
H2119 H 0.70291 0.64736 0.95905 0.0
H2120 H 0.72287 0.65584 0.9174 0.0
H2121 H 0.72962 0.65262 0.97109 0.0
H2122 H 0.7804 0.69682 0.01273 0.0
H2123 H 0.81235 0.69539 0.99004 0.0
H2124 H 0.35055 0.12391 0.89552 0.0
H2125 H 0.34835 0.09002 0.91662 0.0
H2126 H 0.28524 0.06794 0.96853 0.0
H2127 H 0.28717 0.10132 0.94655 0.0
H2128 H 0.33989 0.06589 0.99418 0.0
H2129 H 0.27494 0.02411 0.87512 0.0
H2130 H 0.29154 0.05285 0.87655 0.0
H2131 H 0.26937 0.03936 0.9131 0.0
C2132 C 0.33639 0.1119 0.91206 0.0
C2133 C 0.31886 0.11498 0.91882 0.0
C2134 C 0.33514 0.09259 0.92404 0.0
C2135 C 0.3164 0.07626 0.94313 0.0
C2136 C 0.29962 0.08009 0.95283 0.0
H2137 H 0.26498 0.95346 0.05251 0.0
H2138 H 0.27728 0.99027 0.03155 0.0
C2139 C 0.30074 0.09916 0.9404 0.0
C2140 C 0.31345 0.05462 0.95013 0.0
H2141 H 0.27959 1.00204 0.92583 0.0
C2142 C 0.32692 0.05195 0.9788 0.0
C2143 C 0.29667 0.03644 0.9296 0.0
C2144 C 0.28244 0.03831 0.89654 0.0
C2145 C 0.32327 0.03141 0.98908 0.0
C2146 C 0.30583 0.0133 0.9701 0.0
C2147 C 0.29294 0.01603 0.94029 0.0
C2148 C 0.29936 0.99126 0.98346 0.0
C2149 C 0.33752 0.02898 0.02109 0.0
C2150 C 0.30758 0.97957 0.96304 0.0
C2151 C 0.29998 0.95813 0.97417 0.0
C2152 C 0.28387 0.9481 0.00542 0.0
C2153 C 0.27621 0.96017 0.02637 0.0
C2154 C 0.2837 0.98144 0.01524 0.0
H2155 H 0.35089 0.04466 0.03197 0.0
H2156 H 0.32791 0.01996 0.04944 0.0
H2157 H 0.34426 0.01957 0.00661 0.0
H2158 H 0.31971 0.98697 0.93838 0.0
H2159 H 0.30659 0.94938 0.95828 0.0
H2160 H 0.06154 0.30647 0.02468 0.0
H2161 H 0.02439 0.28253 0.00657 0.0
H2162 H 0.01829 0.3363 0.96669 0.0
H2163 H 0.05615 0.36052 0.98337 0.0
H2164 H 0.98905 0.28125 0.04113 0.0
H2165 H 0.99186 0.29598 0.86553 0.0
H2166 H 0.0158 0.30473 0.89699 0.0
H2167 H 1.00158 0.31921 0.89916 0.0
C2168 C 0.05274 0.3133 0.0107 0.0
C2169 C 0.06236 0.3355 0.0044 0.0
C2170 C 0.0312 0.29951 0.00094 0.0
C2171 C 0.01846 0.30747 0.98469 0.0
C2172 C 0.02784 0.32964 0.97829 0.0
H2173 H 0.88412 0.22865 0.90028 0.0
H2174 H 0.91721 0.25959 0.92736 0.0
C2175 C 0.04955 0.3435 0.98795 0.0
C2176 C 0.99534 0.29235 0.97576 0.0
H2177 H 0.95852 0.27099 0.89492 0.0
C2178 C 0.98235 0.27913 0.00918 0.0
C2179 C 0.98645 0.28967 0.9342 0.0
C2180 C 0.99962 0.303 0.89675 0.0
C2181 C 0.96105 0.26297 0.00195 0.0
C2182 C 0.95249 0.25967 0.96006 0.0
C2183 C 0.9651 0.27349 0.92703 0.0
C2184 C 0.93125 0.24091 0.94896 0.0
C2185 C 0.94793 0.24939 0.03917 0.0
C2186 C 0.92798 0.2201 0.95264 0.0
C2187 C 0.90919 0.20252 0.93708 0.0
C2188 C 0.8932 0.20535 0.91789 0.0
C2189 C 0.89604 0.22603 0.91575 0.0
C2190 C 0.91498 0.24369 0.93091 0.0
H2191 H 0.95431 0.25766 0.0703 0.0
H2192 H 0.93094 0.24522 0.03623 0.0
H2193 H 0.94848 0.23432 0.03954 0.0
H2194 H 0.94042 0.21754 0.96565 0.0
H2195 H 0.90755 0.18678 0.93828 0.0
H2196 H 0.7075 0.81496 0.52957 0.0
H2197 H 0.71153 0.78515 0.5025 0.0
H2198 H 0.675 0.7465 0.60998 0.0
H2199 H 0.67099 0.77613 0.63686 0.0
H2200 H 0.73241 0.76816 0.55296 0.0
H2201 H 0.65046 0.70432 0.50896 0.0
H2202 H 0.65774 0.73209 0.51361 0.0
H2203 H 0.65272 0.71607 0.5609 0.0
C2204 C 0.69971 0.79983 0.54644 0.0
C2205 C 0.68879 0.79774 0.58508 0.0
C2206 C 0.70214 0.78287 0.5312 0.0
C2207 C 0.69343 0.7635 0.55404 0.0
C2208 C 0.68153 0.76108 0.59135 0.0
H2209 H 0.70471 0.64809 0.53235 0.0
H2210 H 0.69465 0.67462 0.5545 0.0
C2211 C 0.67926 0.77803 0.60673 0.0
C2212 C 0.69883 0.7468 0.54196 0.0
H2213 H 0.67711 0.69427 0.51325 0.0
C2214 C 0.72034 0.75205 0.54391 0.0
C2215 C 0.68303 0.72565 0.53115 0.0
C2216 C 0.65969 0.71915 0.52816 0.0
C2217 C 0.7265 0.73675 0.53579 0.0
C2218 C 0.71078 0.71566 0.52391 0.0
C2219 C 0.6892 0.71036 0.5223 0.0
C2220 C 0.71664 0.69932 0.51111 0.0
C2221 C 0.74979 0.74331 0.54131 0.0
C2222 C 0.732 0.7041 0.47897 0.0
C2223 C 0.73805 0.68926 0.46727 0.0
C2224 C 0.72854 0.66891 0.48622 0.0
C2225 C 0.71256 0.66372 0.51741 0.0
C2226 C 0.70675 0.67885 0.52994 0.0
H2227 H 0.75787 0.75671 0.56451 0.0
H2228 H 0.75168 0.7298 0.55265 0.0
H2229 H 0.75818 0.74896 0.51009 0.0
H2230 H 0.73926 0.71933 0.46249 0.0
H2231 H 0.74979 0.69363 0.44225 0.0
H2232 H 0.20394 0.88786 0.50856 0.0
H2233 H 0.23612 0.92101 0.48589 0.0
H2234 H 0.24769 0.94289 0.61706 0.0
H2235 H 0.21567 0.90994 0.63965 0.0
H2236 H 0.24156 0.96157 0.49601 0.0
H2237 H 0.30736 0.95719 0.57725 0.0
H2238 H 0.28102 0.9341 0.57042 0.0
H2239 H 0.28608 0.95276 0.61323 0.0
C2240 C 0.21364 0.89957 0.53258 0.0
C2241 C 0.20727 0.89637 0.57585 0.0
C2242 C 0.23197 0.91853 0.51962 0.0
C2243 C 0.24449 0.93443 0.54978 0.0
C2244 C 0.23856 0.93079 0.59322 0.0
H2245 H 0.32686 0.07139 0.53533 0.0
H2246 H 0.29981 0.03427 0.55211 0.0
C2247 C 0.22015 0.91202 0.60608 0.0
C2248 C 0.26241 0.95563 0.53571 0.0
H2249 H 0.31535 0.99201 0.55282 0.0
C2250 C 0.25774 0.96807 0.50802 0.0
C2251 C 0.28359 0.9642 0.55127 0.0
C2252 C 0.2899 0.95129 0.57935 0.0
C2253 C 0.27341 0.98903 0.49685 0.0
C2254 C 0.29427 0.99789 0.51385 0.0
C2255 C 0.29923 0.98527 0.5403 0.0
C2256 C 0.31098 0.02033 0.50448 0.0
C2257 C 0.26748 1.00191 0.46783 0.0
C2258 C 0.32617 0.02477 0.47216 0.0
C2259 C 0.3413 0.04596 0.46191 0.0
C2260 C 0.34159 0.06318 0.48388 0.0
C2261 C 0.32664 0.05859 0.51695 0.0
C2262 C 0.31137 0.03738 0.52692 0.0
H2263 H 0.2516 0.99192 0.45253 0.0
H2264 H 0.26698 0.01456 0.48706 0.0
H2265 H 0.27976 0.00988 0.44237 0.0
H2266 H 0.3261 0.01185 0.45437 0.0
H2267 H 0.35256 0.04881 0.43624 0.0
H2268 H 0.94033 0.25596 0.53656 0.0
H2269 H 0.97689 0.2641 0.55364 0.0
H2270 H 1.00232 0.31994 0.47298 0.0
H2271 H 0.96611 0.31142 0.45453 0.0
H2272 H 0.01002 0.27006 0.48581 0.0
H2273 H 0.03415 0.34055 0.5918 0.0
H2274 H 0.00644 0.32059 0.58289 0.0
H2275 H 0.02123 0.33994 0.54209 0.0
C2276 C 0.9537 0.26955 0.52154 0.0
C2277 C 0.9502 0.28215 0.49209 0.0
C2278 C 0.97457 0.27443 0.53187 0.0
C2279 C 0.9923 0.2925 0.51415 0.0
C2280 C 0.98888 0.30587 0.48687 0.0
H2281 H 0.13087 0.34758 0.54485 0.0
H2282 H 0.09548 0.34037 0.52025 0.0
C2283 C 0.96808 0.30085 0.47622 0.0
C2284 C 0.01441 0.29709 0.52293 0.0
H2285 H 0.06089 0.33219 0.5737 0.0
C2286 C 0.02114 0.28359 0.50516 0.0
C2287 C 0.02897 0.31497 0.54748 0.0
C2288 C 0.02242 0.32985 0.56748 0.0
C2289 C 0.04209 0.28748 0.51139 0.0
C2290 C 0.05652 0.30503 0.53697 0.0
C2291 C 0.04985 0.31873 0.55413 0.0
C2292 C 0.07816 0.30878 0.5484 0.0
C2293 C 0.04869 0.27296 0.48992 0.0
C2294 C 0.0802 0.29342 0.57216 0.0
C2295 C 0.10029 0.29759 0.58647 0.0
C2296 C 0.1188 0.31718 0.57717 0.0
C2297 C 0.11688 0.3323 0.55219 0.0
C2298 C 0.09669 0.32822 0.53831 0.0
H2299 H 0.03852 0.26479 0.46158 0.0
H2300 H 0.06569 0.28199 0.47948 0.0
H2301 H 0.04686 0.26048 0.513 0.0
H2302 H 0.06615 0.27844 0.58088 0.0
H2303 H 0.10134 0.28563 0.60553 0.0
loop_
_geom_bond_atom_site_label_1
_geom_bond_atom_site_label_2
_geom_bond_distance
_geom_bond_site_symmetry_2
_ccdc_geom_bond_type
Eu0 N29 2.600 . S
Eu0 N35 2.562 . S
Eu0 O44 2.462 . S
Eu0 O45 2.373 . S
Eu0 O47 2.432 . S
Eu0 O48 2.291 . S
Eu0 O52 2.335 . S
Eu0 O55 2.372 . S
Eu0 C64 2.787 . S
C1 N2 1.365 . S
C1 C4 1.405 . S
C1 C8 1.448 . S
N2 C1 1.365 . S
N2 C5 1.319 . S
N2 Eu11 2.600 . S
C3 C5 1.397 . S
C3 C6 1.367 . S
C3 H23 0.931 . S
C4 C1 1.405 . S
C4 C6 1.403 . S
C4 C10 1.439 . S
C5 N2 1.319 . S
C5 C3 1.397 . S
C5 H16 0.930 . S
C6 C3 1.367 . S
C6 C4 1.403 . S
C6 H27 0.929 . S
C7 C8 1.430 1_556 S
C7 C9 1.387 1_556 S
C7 C13 1.404 . S
C8 C1 1.448 . S
C8 C7 1.430 1_554 S
C8 N12 1.351 . S
C9 C7 1.387 1_554 S
C9 C10 1.374 . S
C9 H24 0.931 1_554 S
C10 C4 1.439 . S
C10 C9 1.374 . S
C10 H25 0.931 . S
Eu11 N2 2.600 . S
Eu11 N12 2.562 . S
Eu11 O46 2.335 . S
Eu11 O49 2.372 . S
Eu11 O50 2.462 . S
Eu11 O51 2.373 . S
Eu11 O53 2.432 . S
Eu11 O54 2.291 . S
Eu11 C75 2.787 . S
N12 C8 1.351 . S
N12 Eu11 2.562 . S
N12 C14 1.325 1_554 S
C13 C7 1.404 . S
C13 C15 1.366 . S
C13 H21 0.930 . S
C14 N12 1.325 1_556 S
C14 C15 1.416 . S
C14 H20 0.929 . S
C15 C13 1.366 . S
C15 C14 1.416 . S
C15 H17 0.930 . S
H16 C5 0.930 . S
H17 C15 0.930 . S
H18 C33 0.930 1_556 S
H19 C40 0.930 . S
H20 C14 0.929 . S
H21 C13 0.930 . S
H22 C36 0.929 . S
H23 C3 0.931 . S
H24 C9 0.931 1_556 S
H25 C10 0.931 . S
H26 C31 0.930 . S
H27 C6 0.929 . S
H28 C39 0.930 . S
N29 Eu0 2.600 . S
N29 C30 1.365 . S
N29 C33 1.319 . S
C30 N29 1.365 . S
C30 C32 1.405 . S
C30 C38 1.448 . S
C31 H26 0.930 . S
C31 C33 1.397 1_556 S
C31 C34 1.367 1_556 S
C32 C30 1.405 . S
C32 C34 1.403 . S
C32 C65 1.439 . S
C33 H18 0.930 1_554 S
C33 N29 1.319 . S
C33 C31 1.397 1_554 S
C34 C31 1.367 1_554 S
C34 C32 1.403 . S
C34 H41 0.929 . S
N35 Eu0 2.562 . S
N35 C36 1.325 . S
N35 C38 1.351 . S
C36 H22 0.929 . S
C36 N35 1.325 . S
C36 C40 1.416 . S
C37 C38 1.430 . S
C37 C39 1.404 . S
C37 C66 1.387 . S
C38 C30 1.448 . S
C38 N35 1.351 . S
C38 C37 1.430 . S
C39 H28 0.930 . S
C39 C37 1.404 . S
C39 C40 1.366 . S
C40 H19 0.930 . S
C40 C36 1.416 . S
C40 C39 1.366 . S
H41 C34 0.929 . S
H42 C65 0.931 . S
H43 C66 0.931 . S
O44 Eu0 2.462 . S
O44 C64 1.252 . S
O45 Eu0 2.373 . S
O45 C56 1.249 . S
O46 Eu11 2.335 . S
O46 C56 1.264 . S
O47 Eu0 2.432 . S
O47 C64 1.268 . S
O48 Eu0 2.291 . S
O48 C63 1.255 . S
O49 Eu11 2.372 . S
O49 C63 1.257 . S
O50 Eu11 2.462 . S
O50 C75 1.252 . S
O51 Eu11 2.373 . S
O51 C67 1.249 . S
O52 Eu0 2.335 . S
O52 C67 1.264 . S
O53 Eu11 2.432 . S
O53 C75 1.268 . S
O54 Eu11 2.291 . S
O54 C74 1.255 . S
O55 Eu0 2.372 . S
O55 C74 1.257 . S
C56 O45 1.249 . S
C56 O46 1.264 . S
C57 C60 1.382 . S
C57 C62 1.390 . S
C57 C64 1.506 . S
C58 C59 1.398 . S
C58 C62 1.392 . S
C59 C58 1.398 . S
C59 C61 1.372 1_554 S
C59 H76 0.931 . S
C60 C57 1.382 . S
C60 C61 1.390 1_554 S
C60 H77 0.931 1_554 S
C61 C59 1.372 1_556 S
C61 C60 1.390 1_556 S
C61 H78 0.929 . S
C62 C57 1.390 . S
C62 C58 1.392 . S
C62 H79 0.930 . S
C63 O48 1.255 . S
C63 O49 1.257 . S
C64 Eu0 2.787 . S
C64 O44 1.252 . S
C64 O47 1.268 . S
C64 C57 1.506 . S
C65 C32 1.439 . S
C65 H42 0.931 . S
C65 C66 1.374 . S
C66 C37 1.387 . S
C66 H43 0.931 . S
C66 C65 1.374 . S
C67 O51 1.249 . S
C67 O52 1.264 . S
C68 C71 1.382 . S
C68 C72 1.390 . S
C68 C75 1.506 . S
C69 C70 1.398 . S
C69 C72 1.392 . S
C70 C69 1.398 . S
C70 C73 1.372 . S
C70 H80 0.931 . S
C71 C68 1.382 . S
C71 C73 1.390 . S
C71 H81 0.931 . S
C72 C68 1.390 . S
C72 C69 1.392 . S
C72 H82 0.930 . S
C73 C70 1.372 . S
C73 C71 1.390 . S
C73 H83 0.929 . S
C74 O54 1.255 . S
C74 O55 1.257 . S
C75 Eu11 2.787 . S
C75 O50 1.252 . S
C75 O53 1.268 . S
C75 C68 1.506 . S
H76 C59 0.931 . S
H77 C60 0.931 1_556 S
H78 C61 0.929 . S
H79 C62 0.930 . S
H80 C70 0.931 . S
H81 C71 0.931 . S
H82 C72 0.930 . S
H83 C73 0.929 . S
Eu84 N113 2.600 . S
Eu84 N119 2.562 . S
Eu84 O128 2.462 . S
Eu84 O129 2.373 . S
Eu84 O131 2.432 . S
Eu84 O132 2.291 . S
Eu84 O136 2.335 . S
Eu84 O139 2.372 . S
Eu84 C148 2.787 . S
C85 N86 1.365 . S
C85 C88 1.405 . S
C85 C92 1.448 . S
N86 C85 1.365 . S
N86 C89 1.319 . S
N86 Eu95 2.600 . S
C87 C89 1.397 . S
C87 C90 1.367 . S
C87 H107 0.931 . S
C88 C85 1.405 . S
C88 C90 1.403 . S
C88 C94 1.439 . S
C89 N86 1.319 . S
C89 C87 1.397 . S
C89 H100 0.930 . S
C90 C87 1.367 . S
C90 C88 1.403 . S
C90 H111 0.929 . S
C91 C92 1.430 1_556 S
C91 C93 1.387 1_556 S
C91 C97 1.404 . S
C92 C85 1.448 . S
C92 C91 1.430 1_554 S
C92 N96 1.351 . S
C93 C91 1.387 1_554 S
C93 C94 1.374 . S
C93 H108 0.931 1_554 S
C94 C88 1.439 . S
C94 C93 1.374 . S
C94 H109 0.931 . S
Eu95 N86 2.600 . S
Eu95 N96 2.562 . S
Eu95 O130 2.335 . S
Eu95 O133 2.372 . S
Eu95 O134 2.462 . S
Eu95 O135 2.373 . S
Eu95 O137 2.432 . S
Eu95 O138 2.291 . S
Eu95 C159 2.787 . S
N96 C92 1.351 . S
N96 Eu95 2.562 . S
N96 C98 1.325 1_554 S
C97 C91 1.404 . S
C97 C99 1.366 . S
C97 H105 0.930 . S
C98 N96 1.325 1_556 S
C98 C99 1.416 . S
C98 H104 0.929 . S
C99 C97 1.366 . S
C99 C98 1.416 . S
C99 H101 0.930 . S
H100 C89 0.930 . S
H101 C99 0.930 . S
H102 C117 0.930 1_556 S
H103 C124 0.930 . S
H104 C98 0.929 . S
H105 C97 0.930 . S
H106 C120 0.929 . S
H107 C87 0.931 . S
H108 C93 0.931 1_556 S
H109 C94 0.931 . S
H110 C115 0.930 . S
H111 C90 0.929 . S
H112 C123 0.930 . S
N113 Eu84 2.600 . S
N113 C114 1.365 . S
N113 C117 1.319 . S
C114 N113 1.365 . S
C114 C116 1.405 . S
C114 C122 1.448 . S
C115 H110 0.930 . S
C115 C117 1.397 1_556 S
C115 C118 1.367 1_556 S
C116 C114 1.405 . S
C116 C118 1.403 . S
C116 C149 1.439 . S
C117 H102 0.930 1_554 S
C117 N113 1.319 . S
C117 C115 1.397 1_554 S
C118 C115 1.367 1_554 S
C118 C116 1.403 . S
C118 H125 0.929 . S
N119 Eu84 2.562 . S
N119 C120 1.325 . S
N119 C122 1.351 . S
C120 H106 0.929 . S
C120 N119 1.325 . S
C120 C124 1.416 . S
C121 C122 1.430 . S
C121 C123 1.404 . S
C121 C150 1.387 . S
C122 C114 1.448 . S
C122 N119 1.351 . S
C122 C121 1.430 . S
C123 H112 0.930 . S
C123 C121 1.404 . S
C123 C124 1.366 . S
C124 H103 0.930 . S
C124 C120 1.416 . S
C124 C123 1.366 . S
H125 C118 0.929 . S
H126 C149 0.931 . S
H127 C150 0.931 . S
O128 Eu84 2.462 . S
O128 C148 1.252 . S
O129 Eu84 2.373 . S
O129 C140 1.249 . S
O130 Eu95 2.335 . S
O130 C140 1.264 . S
O131 Eu84 2.432 . S
O131 C148 1.268 . S
O132 Eu84 2.291 . S
O132 C147 1.255 . S
O133 Eu95 2.372 . S
O133 C147 1.257 . S
O134 Eu95 2.462 . S
O134 C159 1.252 . S
O135 Eu95 2.373 . S
O135 C151 1.249 . S
O136 Eu84 2.335 . S
O136 C151 1.264 . S
O137 Eu95 2.432 . S
O137 C159 1.268 . S
O138 Eu95 2.291 . S
O138 C158 1.255 . S
O139 Eu84 2.372 . S
O139 C158 1.257 . S
C140 O129 1.249 . S
C140 O130 1.264 . S
C141 C144 1.382 . S
C141 C146 1.390 . S
C141 C148 1.506 . S
C142 C143 1.398 . S
C142 C146 1.392 . S
C143 C142 1.398 . S
C143 C145 1.372 1_554 S
C143 H160 0.931 . S
C144 C141 1.382 . S
C144 C145 1.390 1_554 S
C144 H161 0.931 1_554 S
C145 C143 1.372 1_556 S
C145 C144 1.390 1_556 S
C145 H162 0.929 . S
C146 C141 1.390 . S
C146 C142 1.392 . S
C146 H163 0.930 . S
C147 O132 1.255 . S
C147 O133 1.257 . S
C148 Eu84 2.787 . S
C148 O128 1.252 . S
C148 O131 1.268 . S
C148 C141 1.506 . S
C149 C116 1.439 . S
C149 H126 0.931 . S
C149 C150 1.374 . S
C150 C121 1.387 . S
C150 H127 0.931 . S
C150 C149 1.374 . S
C151 O135 1.249 . S
C151 O136 1.264 . S
C152 C155 1.382 . S
C152 C156 1.390 . S
C152 C159 1.506 . S
C153 C154 1.398 . S
C153 C156 1.392 . S
C154 C153 1.398 . S
C154 C157 1.372 . S
C154 H164 0.931 . S
C155 C152 1.382 . S
C155 C157 1.390 . S
C155 H165 0.931 . S
C156 C152 1.390 . S
C156 C153 1.392 . S
C156 H166 0.930 . S
C157 C154 1.372 . S
C157 C155 1.390 . S
C157 H167 0.929 . S
C158 O138 1.255 . S
C158 O139 1.257 . S
C159 Eu95 2.787 . S
C159 O134 1.252 . S
C159 O137 1.268 . S
C159 C152 1.506 . S
H160 C143 0.931 . S
H161 C144 0.931 1_556 S
H162 C145 0.929 . S
H163 C146 0.930 . S
H164 C154 0.931 . S
H165 C155 0.931 . S
H166 C156 0.930 . S
H167 C157 0.929 . S
Eu168 N197 2.600 . S
Eu168 N203 2.562 . S
Eu168 O212 2.462 . S
Eu168 O213 2.373 . S
Eu168 O215 2.432 . S
Eu168 O216 2.291 . S
Eu168 O220 2.335 . S
Eu168 O223 2.372 . S
Eu168 C232 2.787 . S
C169 N170 1.365 . S
C169 C172 1.405 . S
C169 C176 1.448 . S
N170 C169 1.365 . S
N170 C173 1.319 . S
N170 Eu179 2.600 . S
C171 C173 1.397 . S
C171 C174 1.367 . S
C171 H191 0.931 . S
C172 C169 1.405 . S
C172 C174 1.403 . S
C172 C178 1.439 . S
C173 N170 1.319 . S
C173 C171 1.397 . S
C173 H184 0.930 . S
C174 C171 1.367 . S
C174 C172 1.403 . S
C174 H195 0.929 . S
C175 C176 1.430 1_556 S
C175 C177 1.387 1_556 S
C175 C181 1.404 . S
C176 C169 1.448 . S
C176 C175 1.430 1_554 S
C176 N180 1.351 . S
C177 C175 1.387 1_554 S
C177 C178 1.374 . S
C177 H192 0.931 1_554 S
C178 C172 1.439 . S
C178 C177 1.374 . S
C178 H193 0.931 . S
Eu179 N170 2.600 . S
Eu179 N180 2.562 . S
Eu179 O214 2.335 . S
Eu179 O217 2.372 . S
Eu179 O218 2.462 . S
Eu179 O219 2.373 . S
Eu179 O221 2.432 . S
Eu179 O222 2.291 . S
Eu179 C243 2.787 . S
N180 C176 1.351 . S
N180 Eu179 2.562 . S
N180 C182 1.325 1_554 S
C181 C175 1.404 . S
C181 C183 1.366 . S
C181 H189 0.930 . S
C182 N180 1.325 1_556 S
C182 C183 1.416 . S
C182 H188 0.929 . S
C183 C181 1.366 . S
C183 C182 1.416 . S
C183 H185 0.930 . S
H184 C173 0.930 . S
H185 C183 0.930 . S
H186 C201 0.930 1_556 S
H187 C208 0.930 . S
H188 C182 0.929 . S
H189 C181 0.930 . S
H190 C204 0.929 . S
H191 C171 0.931 . S
H192 C177 0.931 1_556 S
H193 C178 0.931 . S
H194 C199 0.931 . S
H195 C174 0.929 . S
H196 C207 0.930 . S
N197 Eu168 2.600 . S
N197 C198 1.365 . S
N197 C201 1.319 . S
C198 N197 1.365 . S
C198 C200 1.405 . S
C198 C206 1.448 . S
C199 H194 0.931 . S
C199 C201 1.397 1_556 S
C199 C202 1.367 1_556 S
C200 C198 1.405 . S
C200 C202 1.403 . S
C200 C233 1.439 . S
C201 H186 0.930 1_554 S
C201 N197 1.319 . S
C201 C199 1.397 1_554 S
C202 C199 1.367 1_554 S
C202 C200 1.403 . S
C202 H209 0.929 . S
N203 Eu168 2.562 . S
N203 C204 1.325 . S
N203 C206 1.351 . S
C204 H190 0.929 . S
C204 N203 1.325 . S
C204 C208 1.416 . S
C205 C206 1.430 . S
C205 C207 1.404 . S
C205 C234 1.387 . S
C206 C198 1.448 . S
C206 N203 1.351 . S
C206 C205 1.430 . S
C207 H196 0.930 . S
C207 C205 1.404 . S
C207 C208 1.366 . S
C208 H187 0.930 . S
C208 C204 1.416 . S
C208 C207 1.366 . S
H209 C202 0.929 . S
H210 C233 0.931 . S
H211 C234 0.931 . S
O212 Eu168 2.462 . S
O212 C232 1.252 . S
O213 Eu168 2.373 . S
O213 C224 1.249 . S
O214 Eu179 2.335 . S
O214 C224 1.264 . S
O215 Eu168 2.432 . S
O215 C232 1.268 . S
O216 Eu168 2.291 . S
O216 C231 1.255 . S
O217 Eu179 2.372 . S
O217 C231 1.257 . S
O218 Eu179 2.462 . S
O218 C243 1.252 . S
O219 Eu179 2.373 . S
O219 C235 1.249 . S
O220 Eu168 2.335 . S
O220 C235 1.264 . S
O221 Eu179 2.432 . S
O221 C243 1.268 . S
O222 Eu179 2.291 . S
O222 C242 1.255 . S
O223 Eu168 2.372 . S
O223 C242 1.257 . S
C224 O213 1.249 . S
C224 O214 1.264 . S
C225 C228 1.382 . S
C225 C230 1.390 . S
C225 C232 1.506 . S
C226 C227 1.398 . S
C226 C230 1.392 . S
C227 C226 1.398 . S
C227 C229 1.372 1_554 S
C227 H244 0.931 . S
C228 C225 1.382 . S
C228 C229 1.390 1_554 S
C228 H245 0.931 1_554 S
C229 C227 1.372 1_556 S
C229 C228 1.390 1_556 S
C229 H246 0.929 . S
C230 C225 1.390 . S
C230 C226 1.392 . S
C230 H247 0.930 . S
C231 O216 1.255 . S
C231 O217 1.257 . S
C232 Eu168 2.787 . S
C232 O212 1.252 . S
C232 O215 1.268 . S
C232 C225 1.506 . S
C233 C200 1.439 . S
C233 H210 0.931 . S
C233 C234 1.374 . S
C234 C205 1.387 . S
C234 H211 0.931 . S
C234 C233 1.374 . S
C235 O219 1.249 . S
C235 O220 1.264 . S
C236 C239 1.382 . S
C236 C240 1.390 . S
C236 C243 1.506 . S
C237 C238 1.398 . S
C237 C240 1.392 . S
C238 C237 1.398 . S
C238 C241 1.372 . S
C238 H248 0.931 . S
C239 C236 1.382 . S
C239 C241 1.390 . S
C239 H249 0.931 . S
C240 C236 1.390 . S
C240 C237 1.392 . S
C240 H250 0.930 . S
C241 C238 1.372 . S
C241 C239 1.390 . S
C241 H251 0.929 . S
C242 O222 1.255 . S
C242 O223 1.257 . S
C243 Eu179 2.787 . S
C243 O218 1.252 . S
C243 O221 1.268 . S
C243 C236 1.506 . S
H244 C227 0.931 . S
H245 C228 0.931 1_556 S
H246 C229 0.929 . S
H247 C230 0.930 . S
H248 C238 0.931 . S
H249 C239 0.931 . S
H250 C240 0.930 . S
H251 C241 0.929 . S
Eu252 N281 2.600 . S
Eu252 N287 2.562 . S
Eu252 O296 2.462 . S
Eu252 O297 2.373 . S
Eu252 O299 2.432 . S
Eu252 O300 2.291 . S
Eu252 O304 2.335 . S
Eu252 O307 2.372 . S
Eu252 C316 2.787 . S
C253 N254 1.365 . S
C253 C256 1.405 . S
C253 C260 1.448 . S
N254 C253 1.365 . S
N254 C257 1.319 . S
N254 Eu263 2.600 . S
C255 C257 1.397 . S
C255 C258 1.367 . S
C255 H275 0.931 . S
C256 C253 1.405 . S
C256 C258 1.403 . S
C256 C262 1.439 . S
C257 N254 1.319 . S
C257 C255 1.397 . S
C257 H268 0.930 . S
C258 C255 1.367 . S
C258 C256 1.403 . S
C258 H279 0.929 . S
C259 C260 1.430 . S
C259 C261 1.387 . S
C259 C265 1.404 . S
C260 C253 1.448 . S
C260 C259 1.430 . S
C260 N264 1.351 . S
C261 C259 1.387 . S
C261 C262 1.374 . S
C261 H276 0.931 . S
C262 C256 1.439 . S
C262 C261 1.374 . S
C262 H277 0.931 . S
Eu263 N254 2.600 . S
Eu263 N264 2.562 . S
Eu263 O298 2.335 . S
Eu263 O301 2.372 . S
Eu263 O302 2.462 . S
Eu263 O303 2.373 . S
Eu263 O305 2.432 . S
Eu263 O306 2.291 . S
Eu263 C327 2.787 . S
N264 C260 1.351 . S
N264 Eu263 2.562 . S
N264 C266 1.325 . S
C265 C259 1.404 . S
C265 C267 1.366 . S
C265 H273 0.930 . S
C266 N264 1.325 . S
C266 C267 1.416 . S
C266 H272 0.929 . S
C267 C265 1.366 . S
C267 C266 1.416 . S
C267 H269 0.930 . S
H268 C257 0.930 . S
H269 C267 0.930 . S
H270 C285 0.930 . S
H271 C292 0.930 . S
H272 C266 0.929 . S
H273 C265 0.930 . S
H274 C288 0.929 . S
H275 C255 0.931 . S
H276 C261 0.931 . S
H277 C262 0.931 . S
H278 C283 0.931 . S
H279 C258 0.929 . S
H280 C291 0.930 . S
N281 Eu252 2.600 . S
N281 C282 1.365 . S
N281 C285 1.319 . S
C282 N281 1.365 . S
C282 C284 1.405 . S
C282 C290 1.448 . S
C283 H278 0.931 . S
C283 C285 1.397 . S
C283 C286 1.367 . S
C284 C282 1.405 . S
C284 C286 1.403 . S
C284 C317 1.439 . S
C285 H270 0.930 . S
C285 N281 1.319 . S
C285 C283 1.397 . S
C286 C283 1.367 . S
C286 C284 1.403 . S
C286 H293 0.929 . S
N287 Eu252 2.562 . S
N287 C288 1.325 . S
N287 C290 1.351 . S
C288 H274 0.929 . S
C288 N287 1.325 . S
C288 C292 1.416 . S
C289 C290 1.430 . S
C289 C291 1.404 . S
C289 C318 1.387 . S
C290 C282 1.448 . S
C290 N287 1.351 . S
C290 C289 1.430 . S
C291 H280 0.930 . S
C291 C289 1.404 . S
C291 C292 1.366 . S
C292 H271 0.930 . S
C292 C288 1.416 . S
C292 C291 1.366 . S
H293 C286 0.929 . S
H294 C317 0.931 . S
H295 C318 0.931 . S
O296 Eu252 2.462 . S
O296 C316 1.252 . S
O297 Eu252 2.373 . S
O297 C308 1.249 . S
O298 Eu263 2.335 . S
O298 C308 1.264 . S
O299 Eu252 2.432 . S
O299 C316 1.268 . S
O300 Eu252 2.291 . S
O300 C315 1.255 . S
O301 Eu263 2.372 . S
O301 C315 1.257 . S
O302 Eu263 2.462 . S
O302 C327 1.252 . S
O303 Eu263 2.373 . S
O303 C319 1.249 . S
O304 Eu252 2.335 . S
O304 C319 1.264 . S
O305 Eu263 2.432 . S
O305 C327 1.268 . S
O306 Eu263 2.291 . S
O306 C326 1.255 . S
O307 Eu252 2.372 . S
O307 C326 1.257 . S
C308 O297 1.249 . S
C308 O298 1.264 . S
C309 C312 1.382 . S
C309 C314 1.390 . S
C309 C316 1.506 . S
C310 C311 1.398 . S
C310 C314 1.392 . S
C311 C310 1.398 . S
C311 C313 1.372 . S
C311 H328 0.931 . S
C312 C309 1.382 . S
C312 C313 1.390 . S
C312 H329 0.931 . S
C313 C311 1.372 . S
C313 C312 1.390 . S
C313 H330 0.929 . S
C314 C309 1.390 . S
C314 C310 1.392 . S
C314 H331 0.930 . S
C315 O300 1.255 . S
C315 O301 1.257 . S
C316 Eu252 2.787 . S
C316 O296 1.252 . S
C316 O299 1.268 . S
C316 C309 1.506 . S
C317 C284 1.439 . S
C317 H294 0.931 . S
C317 C318 1.374 . S
C318 C289 1.387 . S
C318 H295 0.931 . S
C318 C317 1.374 . S
C319 O303 1.249 . S
C319 O304 1.264 . S
C320 C323 1.382 . S
C320 C324 1.390 . S
C320 C327 1.506 . S
C321 C322 1.398 . S
C321 C324 1.392 . S
C322 C321 1.398 . S
C322 C325 1.372 . S
C322 H332 0.931 . S
C323 C320 1.382 . S
C323 C325 1.390 . S
C323 H333 0.931 . S
C324 C320 1.390 . S
C324 C321 1.392 . S
C324 H334 0.930 . S
C325 C322 1.372 . S
C325 C323 1.390 . S
C325 H335 0.929 . S
C326 O306 1.255 . S
C326 O307 1.257 . S
C327 Eu263 2.787 . S
C327 O302 1.252 . S
C327 O305 1.268 . S
C327 C320 1.506 . S
H328 C311 0.931 . S
H329 C312 0.931 . S
H330 C313 0.929 . S
H331 C314 0.930 . S
H332 C322 0.931 . S
H333 C323 0.931 . S
H334 C324 0.930 . S
H335 C325 0.929 . S
Eu336 N365 2.600 . S
Eu336 N371 2.562 . S
Eu336 O380 2.462 . S
Eu336 O381 2.373 . S
Eu336 O383 2.432 . S
Eu336 O384 2.291 . S
Eu336 O388 2.335 . S
Eu336 O391 2.372 . S
Eu336 C400 2.787 . S
C337 N338 1.365 . S
C337 C340 1.405 . S
C337 C344 1.448 . S
N338 C337 1.365 . S
N338 C341 1.319 . S
N338 Eu347 2.600 . S
C339 C341 1.397 . S
C339 C342 1.367 . S
C339 H359 0.931 . S
C340 C337 1.405 . S
C340 C342 1.403 . S
C340 C346 1.439 . S
C341 N338 1.319 . S
C341 C339 1.397 . S
C341 H352 0.930 . S
C342 C339 1.367 . S
C342 C340 1.403 . S
C342 H363 0.929 . S
C343 C344 1.430 . S
C343 C345 1.387 . S
C343 C349 1.404 . S
C344 C337 1.448 . S
C344 C343 1.430 . S
C344 N348 1.351 . S
C345 C343 1.387 . S
C345 C346 1.374 . S
C345 H360 0.931 . S
C346 C340 1.439 . S
C346 C345 1.374 . S
C346 H361 0.931 . S
Eu347 N338 2.600 . S
Eu347 N348 2.562 . S
Eu347 O382 2.335 . S
Eu347 O385 2.372 . S
Eu347 O386 2.462 . S
Eu347 O387 2.373 . S
Eu347 O389 2.432 . S
Eu347 O390 2.291 . S
Eu347 C411 2.787 . S
N348 C344 1.351 . S
N348 Eu347 2.562 . S
N348 C350 1.325 . S
C349 C343 1.404 . S
C349 C351 1.366 . S
C349 H357 0.930 . S
C350 N348 1.325 . S
C350 C351 1.416 . S
C350 H356 0.929 . S
C351 C349 1.366 . S
C351 C350 1.416 . S
C351 H353 0.930 . S
H352 C341 0.930 . S
H353 C351 0.930 . S
H354 C369 0.930 . S
H355 C376 0.930 . S
H356 C350 0.929 . S
H357 C349 0.930 . S
H358 C372 0.929 . S
H359 C339 0.931 . S
H360 C345 0.931 . S
H361 C346 0.931 . S
H362 C367 0.931 . S
H363 C342 0.929 . S
H364 C375 0.930 . S
N365 Eu336 2.600 . S
N365 C366 1.365 . S
N365 C369 1.319 . S
C366 N365 1.365 . S
C366 C368 1.405 . S
C366 C374 1.448 . S
C367 H362 0.931 . S
C367 C369 1.397 . S
C367 C370 1.367 . S
C368 C366 1.405 . S
C368 C370 1.403 . S
C368 C401 1.439 . S
C369 H354 0.930 . S
C369 N365 1.319 . S
C369 C367 1.397 . S
C370 C367 1.367 . S
C370 C368 1.403 . S
C370 H377 0.929 . S
N371 Eu336 2.562 . S
N371 C372 1.325 . S
N371 C374 1.351 . S
C372 H358 0.929 . S
C372 N371 1.325 . S
C372 C376 1.416 . S
C373 C374 1.430 . S
C373 C375 1.404 . S
C373 C402 1.387 . S
C374 C366 1.448 . S
C374 N371 1.351 . S
C374 C373 1.430 . S
C375 H364 0.930 . S
C375 C373 1.404 . S
C375 C376 1.366 . S
C376 H355 0.930 . S
C376 C372 1.416 . S
C376 C375 1.366 . S
H377 C370 0.929 . S
H378 C401 0.931 . S
H379 C402 0.931 . S
O380 Eu336 2.462 . S
O380 C400 1.252 . S
O381 Eu336 2.373 . S
O381 C392 1.249 . S
O382 Eu347 2.335 . S
O382 C392 1.264 . S
O383 Eu336 2.432 . S
O383 C400 1.268 . S
O384 Eu336 2.291 . S
O384 C399 1.255 . S
O385 Eu347 2.372 . S
O385 C399 1.257 . S
O386 Eu347 2.462 . S
O386 C411 1.252 . S
O387 Eu347 2.373 . S
O387 C403 1.249 . S
O388 Eu336 2.335 . S
O388 C403 1.264 . S
O389 Eu347 2.432 . S
O389 C411 1.268 . S
O390 Eu347 2.291 . S
O390 C410 1.255 . S
O391 Eu336 2.372 . S
O391 C410 1.257 . S
C392 O381 1.249 . S
C392 O382 1.264 . S
C393 C396 1.382 . S
C393 C398 1.390 . S
C393 C400 1.506 . S
C394 C395 1.398 . S
C394 C398 1.392 . S
C395 C394 1.398 . S
C395 C397 1.372 . S
C395 H412 0.931 . S
C396 C393 1.382 . S
C396 C397 1.390 . S
C396 H413 0.931 . S
C397 C395 1.372 . S
C397 C396 1.390 . S
C397 H414 0.929 . S
C398 C393 1.390 . S
C398 C394 1.392 . S
C398 H415 0.930 . S
C399 O384 1.255 . S
C399 O385 1.257 . S
C400 Eu336 2.787 . S
C400 O380 1.252 . S
C400 O383 1.268 . S
C400 C393 1.506 . S
C401 C368 1.439 . S
C401 H378 0.931 . S
C401 C402 1.374 . S
C402 C373 1.387 . S
C402 H379 0.931 . S
C402 C401 1.374 . S
C403 O387 1.249 . S
C403 O388 1.264 . S
C404 C407 1.382 . S
C404 C408 1.390 . S
C404 C411 1.506 . S
C405 C406 1.398 . S
C405 C408 1.392 . S
C406 C405 1.398 . S
C406 C409 1.372 . S
C406 H416 0.931 . S
C407 C404 1.382 . S
C407 C409 1.390 . S
C407 H417 0.931 . S
C408 C404 1.390 . S
C408 C405 1.392 . S
C408 H418 0.930 . S
C409 C406 1.372 . S
C409 C407 1.390 . S
C409 H419 0.929 . S
C410 O390 1.255 . S
C410 O391 1.257 . S
C411 Eu347 2.787 . S
C411 O386 1.252 . S
C411 O389 1.268 . S
C411 C404 1.506 . S
H412 C395 0.931 . S
H413 C396 0.931 . S
H414 C397 0.929 . S
H415 C398 0.930 . S
H416 C406 0.931 . S
H417 C407 0.931 . S
H418 C408 0.930 . S
H419 C409 0.929 . S
Eu420 N449 2.600 . S
Eu420 N455 2.562 . S
Eu420 O464 2.462 . S
Eu420 O465 2.373 . S
Eu420 O467 2.432 . S
Eu420 O468 2.291 . S
Eu420 O472 2.335 . S
Eu420 O475 2.372 . S
Eu420 C484 2.787 . S
C421 N422 1.365 . S
C421 C424 1.405 . S
C421 C428 1.448 . S
N422 C421 1.365 . S
N422 C425 1.319 . S
N422 Eu431 2.600 . S
C423 C425 1.397 . S
C423 C426 1.367 . S
C423 H443 0.931 . S
C424 C421 1.405 . S
C424 C426 1.403 . S
C424 C430 1.439 . S
C425 N422 1.319 . S
C425 C423 1.397 . S
C425 H436 0.930 . S
C426 C423 1.367 . S
C426 C424 1.403 . S
C426 H447 0.929 . S
C427 C428 1.430 . S
C427 C429 1.387 . S
C427 C433 1.404 . S
C428 C421 1.448 . S
C428 C427 1.430 . S
C428 N432 1.351 . S
C429 C427 1.387 . S
C429 C430 1.374 . S
C429 H444 0.931 . S
C430 C424 1.439 . S
C430 C429 1.374 . S
C430 H445 0.931 . S
Eu431 N422 2.600 . S
Eu431 N432 2.562 . S
Eu431 O466 2.335 . S
Eu431 O469 2.372 . S
Eu431 O470 2.462 . S
Eu431 O471 2.373 . S
Eu431 O473 2.432 . S
Eu431 O474 2.291 . S
Eu431 C495 2.787 . S
N432 C428 1.351 . S
N432 Eu431 2.562 . S
N432 C434 1.325 . S
C433 C427 1.404 . S
C433 C435 1.366 . S
C433 H441 0.930 . S
C434 N432 1.325 . S
C434 C435 1.416 . S
C434 H440 0.929 . S
C435 C433 1.366 . S
C435 C434 1.416 . S
C435 H437 0.930 . S
H436 C425 0.930 . S
H437 C435 0.930 . S
H438 C453 0.930 . S
H439 C460 0.930 . S
H440 C434 0.929 . S
H441 C433 0.930 . S
H442 C456 0.929 . S
H443 C423 0.931 . S
H444 C429 0.931 . S
H445 C430 0.931 . S
H446 C451 0.931 . S
H447 C426 0.929 . S
H448 C459 0.930 . S
N449 Eu420 2.600 . S
N449 C450 1.365 . S
N449 C453 1.319 . S
C450 N449 1.365 . S
C450 C452 1.405 . S
C450 C458 1.448 . S
C451 H446 0.931 . S
C451 C453 1.397 . S
C451 C454 1.367 . S
C452 C450 1.405 . S
C452 C454 1.403 . S
C452 C485 1.439 . S
C453 H438 0.930 . S
C453 N449 1.319 . S
C453 C451 1.397 . S
C454 C451 1.367 . S
C454 C452 1.403 . S
C454 H461 0.929 . S
N455 Eu420 2.562 . S
N455 C456 1.325 . S
N455 C458 1.351 . S
C456 H442 0.929 . S
C456 N455 1.325 . S
C456 C460 1.416 . S
C457 C458 1.430 . S
C457 C459 1.404 . S
C457 C486 1.387 . S
C458 C450 1.448 . S
C458 N455 1.351 . S
C458 C457 1.430 . S
C459 H448 0.930 . S
C459 C457 1.404 . S
C459 C460 1.366 . S
C460 H439 0.930 . S
C460 C456 1.416 . S
C460 C459 1.366 . S
H461 C454 0.929 . S
H462 C485 0.931 . S
H463 C486 0.931 . S
O464 Eu420 2.462 . S
O464 C484 1.252 . S
O465 Eu420 2.373 . S
O465 C476 1.249 . S
O466 Eu431 2.335 . S
O466 C476 1.264 . S
O467 Eu420 2.432 . S
O467 C484 1.268 . S
O468 Eu420 2.291 . S
O468 C483 1.255 . S
O469 Eu431 2.372 . S
O469 C483 1.257 . S
O470 Eu431 2.462 . S
O470 C495 1.252 . S
O471 Eu431 2.373 . S
O471 C487 1.249 . S
O472 Eu420 2.335 . S
O472 C487 1.264 . S
O473 Eu431 2.432 . S
O473 C495 1.268 . S
O474 Eu431 2.291 . S
O474 C494 1.255 . S
O475 Eu420 2.372 . S
O475 C494 1.257 . S
C476 O465 1.249 . S
C476 O466 1.264 . S
C477 C480 1.382 . S
C477 C482 1.390 . S
C477 C484 1.506 . S
C478 C479 1.398 . S
C478 C482 1.392 . S
C479 C478 1.398 . S
C479 C481 1.372 . S
C479 H496 0.931 . S
C480 C477 1.382 . S
C480 C481 1.390 . S
C480 H497 0.931 . S
C481 C479 1.372 . S
C481 C480 1.390 . S
C481 H498 0.929 . S
C482 C477 1.390 . S
C482 C478 1.392 . S
C482 H499 0.930 . S
C483 O468 1.255 . S
C483 O469 1.257 . S
C484 Eu420 2.787 . S
C484 O464 1.252 . S
C484 O467 1.268 . S
C484 C477 1.506 . S
C485 C452 1.439 . S
C485 H462 0.931 . S
C485 C486 1.374 . S
C486 C457 1.387 . S
C486 H463 0.931 . S
C486 C485 1.374 . S
C487 O471 1.249 . S
C487 O472 1.264 . S
C488 C491 1.382 . S
C488 C492 1.390 . S
C488 C495 1.506 . S
C489 C490 1.398 . S
C489 C492 1.392 . S
C490 C489 1.398 . S
C490 C493 1.372 . S
C490 H500 0.931 . S
C491 C488 1.382 . S
C491 C493 1.390 . S
C491 H501 0.931 . S
C492 C488 1.390 . S
C492 C489 1.392 . S
C492 H502 0.930 . S
C493 C490 1.372 . S
C493 C491 1.390 . S
C493 H503 0.929 . S
C494 O474 1.255 . S
C494 O475 1.257 . S
C495 Eu431 2.787 . S
C495 O470 1.252 . S
C495 O473 1.268 . S
C495 C488 1.506 . S
H496 C479 0.931 . S
H497 C480 0.931 . S
H498 C481 0.929 . S
H499 C482 0.930 . S
H500 C490 0.931 . S
H501 C491 0.931 . S
H502 C492 0.930 . S
H503 C493 0.929 . S
Eu504 N533 2.600 . S
Eu504 N539 2.562 . S
Eu504 O548 2.462 . S
Eu504 O549 2.373 . S
Eu504 O551 2.432 . S
Eu504 O552 2.291 . S
Eu504 O556 2.335 . S
Eu504 O559 2.372 . S
Eu504 C568 2.787 . S
C505 N506 1.365 . S
C505 C508 1.405 . S
C505 C512 1.448 . S
N506 C505 1.365 . S
N506 C509 1.319 . S
N506 Eu515 2.600 . S
C507 C509 1.397 1_554 S
C507 C510 1.367 1_554 S
C507 H527 0.930 . S
C508 C505 1.405 . S
C508 C510 1.403 . S
C508 C514 1.439 . S
C509 N506 1.319 . S
C509 C507 1.397 1_556 S
C509 H520 0.930 1_556 S
C510 C507 1.367 1_556 S
C510 C508 1.403 . S
C510 H531 0.929 . S
C511 C512 1.430 . S
C511 C513 1.387 . S
C511 C517 1.404 . S
C512 C505 1.448 . S
C512 C511 1.430 . S
C512 N516 1.351 . S
C513 C511 1.387 . S
C513 C514 1.374 . S
C513 H528 0.931 . S
C514 C508 1.439 . S
C514 C513 1.374 . S
C514 H529 0.931 . S
Eu515 N506 2.600 . S
Eu515 N516 2.562 . S
Eu515 O550 2.335 . S
Eu515 O553 2.372 . S
Eu515 O554 2.462 . S
Eu515 O555 2.373 . S
Eu515 O557 2.432 . S
Eu515 O558 2.291 . S
Eu515 C579 2.787 . S
N516 C512 1.351 . S
N516 Eu515 2.562 . S
N516 C518 1.325 . S
C517 C511 1.404 . S
C517 C519 1.366 . S
C517 H525 0.930 . S
C518 N516 1.325 . S
C518 C519 1.416 . S
C518 H524 0.929 . S
C519 C517 1.366 . S
C519 C518 1.416 . S
C519 H521 0.930 . S
H520 C509 0.930 1_554 S
H521 C519 0.930 . S
H522 C537 0.930 . S
H523 C544 0.930 . S
H524 C518 0.929 . S
H525 C517 0.930 . S
H526 C540 0.929 . S
H527 C507 0.930 . S
H528 C513 0.931 . S
H529 C514 0.931 . S
H530 C535 0.931 . S
H531 C510 0.929 . S
H532 C543 0.930 . S
N533 Eu504 2.600 . S
N533 C534 1.365 . S
N533 C537 1.319 . S
C534 N533 1.365 . S
C534 C536 1.405 . S
C534 C542 1.448 . S
C535 H530 0.931 . S
C535 C537 1.397 . S
C535 C538 1.367 . S
C536 C534 1.405 . S
C536 C538 1.403 . S
C536 C569 1.439 . S
C537 H522 0.930 . S
C537 N533 1.319 . S
C537 C535 1.397 . S
C538 C535 1.367 . S
C538 C536 1.403 . S
C538 H545 0.929 . S
N539 Eu504 2.562 . S
N539 C540 1.325 1_556 S
N539 C542 1.351 . S
C540 H526 0.929 . S
C540 N539 1.325 1_554 S
C540 C544 1.416 . S
C541 C542 1.430 1_554 S
C541 C543 1.404 . S
C541 C570 1.387 1_554 S
C542 C534 1.448 . S
C542 N539 1.351 . S
C542 C541 1.430 1_556 S
C543 H532 0.930 . S
C543 C541 1.404 . S
C543 C544 1.366 . S
C544 H523 0.930 . S
C544 C540 1.416 . S
C544 C543 1.366 . S
H545 C538 0.929 . S
H546 C569 0.931 . S
H547 C570 0.931 1_554 S
O548 Eu504 2.462 . S
O548 C568 1.252 . S
O549 Eu504 2.373 . S
O549 C560 1.249 . S
O550 Eu515 2.335 . S
O550 C560 1.264 . S
O551 Eu504 2.432 . S
O551 C568 1.268 . S
O552 Eu504 2.291 . S
O552 C567 1.255 . S
O553 Eu515 2.372 . S
O553 C567 1.257 . S
O554 Eu515 2.462 . S
O554 C579 1.252 . S
O555 Eu515 2.373 . S
O555 C571 1.249 . S
O556 Eu504 2.335 . S
O556 C571 1.264 . S
O557 Eu515 2.432 . S
O557 C579 1.268 . S
O558 Eu515 2.291 . S
O558 C578 1.255 . S
O559 Eu504 2.372 . S
O559 C578 1.257 . S
C560 O549 1.249 . S
C560 O550 1.264 . S
C561 C564 1.382 . S
C561 C566 1.390 . S
C561 C568 1.506 . S
C562 C563 1.398 . S
C562 C566 1.392 . S
C563 C562 1.398 . S
C563 C565 1.372 . S
C563 H580 0.931 . S
C564 C561 1.382 . S
C564 C565 1.390 . S
C564 H581 0.931 . S
C565 C563 1.372 . S
C565 C564 1.390 . S
C565 H582 0.929 . S
C566 C561 1.390 . S
C566 C562 1.392 . S
C566 H583 0.930 . S
C567 O552 1.255 . S
C567 O553 1.257 . S
C568 Eu504 2.787 . S
C568 O548 1.252 . S
C568 O551 1.268 . S
C568 C561 1.506 . S
C569 C536 1.439 . S
C569 H546 0.931 . S
C569 C570 1.374 . S
C570 C541 1.387 1_556 S
C570 H547 0.931 1_556 S
C570 C569 1.374 . S
C571 O555 1.249 . S
C571 O556 1.264 . S
C572 C575 1.382 . S
C572 C576 1.390 . S
C572 C579 1.506 . S
C573 C574 1.398 . S
C573 C576 1.392 . S
C574 C573 1.398 . S
C574 C577 1.372 1_556 S
C574 H584 0.931 . S
C575 C572 1.382 . S
C575 C577 1.390 1_556 S
C575 H585 0.931 1_556 S
C576 C572 1.390 . S
C576 C573 1.392 . S
C576 H586 0.930 . S
C577 C574 1.372 1_554 S
C577 C575 1.390 1_554 S
C577 H587 0.929 . S
C578 O558 1.255 . S
C578 O559 1.257 . S
C579 Eu515 2.787 . S
C579 O554 1.252 . S
C579 O557 1.268 . S
C579 C572 1.506 . S
H580 C563 0.931 . S
H581 C564 0.931 . S
H582 C565 0.929 . S
H583 C566 0.930 . S
H584 C574 0.931 . S
H585 C575 0.931 1_554 S
H586 C576 0.930 . S
H587 C577 0.929 . S
Eu588 N617 2.600 . S
Eu588 N623 2.562 . S
Eu588 O632 2.462 . S
Eu588 O633 2.373 . S
Eu588 O635 2.432 . S
Eu588 O636 2.291 . S
Eu588 O640 2.335 . S
Eu588 O643 2.372 . S
Eu588 C652 2.787 . S
C589 N590 1.365 . S
C589 C592 1.405 . S
C589 C596 1.448 . S
N590 C589 1.365 . S
N590 C593 1.319 . S
N590 Eu599 2.600 . S
C591 C593 1.397 1_554 S
C591 C594 1.367 1_554 S
C591 H611 0.930 . S
C592 C589 1.405 . S
C592 C594 1.403 . S
C592 C598 1.439 . S
C593 N590 1.319 . S
C593 C591 1.397 1_556 S
C593 H604 0.930 1_556 S
C594 C591 1.367 1_556 S
C594 C592 1.403 . S
C594 H615 0.929 . S
C595 C596 1.430 . S
C595 C597 1.387 . S
C595 C601 1.404 . S
C596 C589 1.448 . S
C596 C595 1.430 . S
C596 N600 1.351 . S
C597 C595 1.387 . S
C597 C598 1.374 . S
C597 H612 0.931 . S
C598 C592 1.439 . S
C598 C597 1.374 . S
C598 H613 0.931 . S
Eu599 N590 2.600 . S
Eu599 N600 2.562 . S
Eu599 O634 2.335 . S
Eu599 O637 2.372 . S
Eu599 O638 2.462 . S
Eu599 O639 2.373 . S
Eu599 O641 2.432 . S
Eu599 O642 2.291 . S
Eu599 C663 2.787 . S
N600 C596 1.351 . S
N600 Eu599 2.562 . S
N600 C602 1.325 . S
C601 C595 1.404 . S
C601 C603 1.366 . S
C601 H609 0.930 . S
C602 N600 1.325 . S
C602 C603 1.416 . S
C602 H608 0.929 . S
C603 C601 1.366 . S
C603 C602 1.416 . S
C603 H605 0.930 . S
H604 C593 0.930 1_554 S
H605 C603 0.930 . S
H606 C621 0.930 . S
H607 C628 0.930 . S
H608 C602 0.929 . S
H609 C601 0.930 . S
H610 C624 0.929 . S
H611 C591 0.930 . S
H612 C597 0.931 . S
H613 C598 0.931 . S
H614 C619 0.931 . S
H615 C594 0.929 . S
H616 C627 0.930 . S
N617 Eu588 2.600 . S
N617 C618 1.365 . S
N617 C621 1.319 . S
C618 N617 1.365 . S
C618 C620 1.405 . S
C618 C626 1.448 . S
C619 H614 0.931 . S
C619 C621 1.397 . S
C619 C622 1.367 . S
C620 C618 1.405 . S
C620 C622 1.403 . S
C620 C653 1.439 . S
C621 H606 0.930 . S
C621 N617 1.319 . S
C621 C619 1.397 . S
C622 C619 1.367 . S
C622 C620 1.403 . S
C622 H629 0.929 . S
N623 Eu588 2.562 . S
N623 C624 1.325 1_556 S
N623 C626 1.351 . S
C624 H610 0.929 . S
C624 N623 1.325 1_554 S
C624 C628 1.416 . S
C625 C626 1.430 1_554 S
C625 C627 1.404 . S
C625 C654 1.387 1_554 S
C626 C618 1.448 . S
C626 N623 1.351 . S
C626 C625 1.430 1_556 S
C627 H616 0.930 . S
C627 C625 1.404 . S
C627 C628 1.366 . S
C628 H607 0.930 . S
C628 C624 1.416 . S
C628 C627 1.366 . S
H629 C622 0.929 . S
H630 C653 0.931 . S
H631 C654 0.931 1_554 S
O632 Eu588 2.462 . S
O632 C652 1.252 . S
O633 Eu588 2.373 . S
O633 C644 1.249 . S
O634 Eu599 2.335 . S
O634 C644 1.264 . S
O635 Eu588 2.432 . S
O635 C652 1.268 . S
O636 Eu588 2.291 . S
O636 C651 1.255 . S
O637 Eu599 2.372 . S
O637 C651 1.257 . S
O638 Eu599 2.462 . S
O638 C663 1.252 . S
O639 Eu599 2.373 . S
O639 C655 1.249 . S
O640 Eu588 2.335 . S
O640 C655 1.264 . S
O641 Eu599 2.432 . S
O641 C663 1.268 . S
O642 Eu599 2.291 . S
O642 C662 1.255 . S
O643 Eu588 2.372 . S
O643 C662 1.257 . S
C644 O633 1.249 . S
C644 O634 1.264 . S
C645 C648 1.382 . S
C645 C650 1.390 . S
C645 C652 1.506 . S
C646 C647 1.398 . S
C646 C650 1.392 . S
C647 C646 1.398 . S
C647 C649 1.372 . S
C647 H664 0.931 . S
C648 C645 1.382 . S
C648 C649 1.390 . S
C648 H665 0.931 . S
C649 C647 1.372 . S
C649 C648 1.390 . S
C649 H666 0.929 . S
C650 C645 1.390 . S
C650 C646 1.392 . S
C650 H667 0.930 . S
C651 O636 1.255 . S
C651 O637 1.257 . S
C652 Eu588 2.787 . S
C652 O632 1.252 . S
C652 O635 1.268 . S
C652 C645 1.506 . S
C653 C620 1.439 . S
C653 H630 0.931 . S
C653 C654 1.374 . S
C654 C625 1.387 1_556 S
C654 H631 0.931 1_556 S
C654 C653 1.374 . S
C655 O639 1.249 . S
C655 O640 1.264 . S
C656 C659 1.382 . S
C656 C660 1.390 . S
C656 C663 1.506 . S
C657 C658 1.398 . S
C657 C660 1.392 . S
C658 C657 1.398 . S
C658 C661 1.372 1_556 S
C658 H668 0.931 . S
C659 C656 1.382 . S
C659 C661 1.390 1_556 S
C659 H669 0.931 1_556 S
C660 C656 1.390 . S
C660 C657 1.392 . S
C660 H670 0.930 . S
C661 C658 1.372 1_554 S
C661 C659 1.390 1_554 S
C661 H671 0.929 . S
C662 O642 1.255 . S
C662 O643 1.257 . S
C663 Eu599 2.787 . S
C663 O638 1.252 . S
C663 O641 1.268 . S
C663 C656 1.506 . S
H664 C647 0.931 . S
H665 C648 0.931 . S
H666 C649 0.929 . S
H667 C650 0.930 . S
H668 C658 0.931 . S
H669 C659 0.931 1_554 S
H670 C660 0.930 . S
H671 C661 0.929 . S
Eu672 N701 2.600 . S
Eu672 N707 2.562 . S
Eu672 O716 2.462 . S
Eu672 O717 2.373 . S
Eu672 O719 2.432 . S
Eu672 O720 2.291 . S
Eu672 O724 2.335 . S
Eu672 O727 2.372 . S
Eu672 C736 2.787 . S
C673 N674 1.365 . S
C673 C676 1.405 . S
C673 C680 1.448 . S
N674 C673 1.365 . S
N674 C677 1.319 . S
N674 Eu683 2.600 . S
C675 C677 1.397 1_554 S
C675 C678 1.367 1_554 S
C675 H695 0.931 . S
C676 C673 1.405 . S
C676 C678 1.403 . S
C676 C682 1.439 . S
C677 N674 1.319 . S
C677 C675 1.397 1_556 S
C677 H688 0.930 1_556 S
C678 C675 1.367 1_556 S
C678 C676 1.403 . S
C678 H699 0.929 . S
C679 C680 1.430 . S
C679 C681 1.387 . S
C679 C685 1.404 . S
C680 C673 1.448 . S
C680 C679 1.430 . S
C680 N684 1.351 . S
C681 C679 1.387 . S
C681 C682 1.374 . S
C681 H696 0.931 . S
C682 C676 1.439 . S
C682 C681 1.374 . S
C682 H697 0.931 . S
Eu683 N674 2.600 . S
Eu683 N684 2.562 . S
Eu683 O718 2.335 . S
Eu683 O721 2.372 . S
Eu683 O722 2.462 . S
Eu683 O723 2.373 . S
Eu683 O725 2.432 . S
Eu683 O726 2.291 . S
Eu683 C747 2.787 . S
N684 C680 1.351 . S
N684 Eu683 2.562 . S
N684 C686 1.325 . S
C685 C679 1.404 . S
C685 C687 1.366 . S
C685 H693 0.930 . S
C686 N684 1.325 . S
C686 C687 1.416 . S
C686 H692 0.929 . S
C687 C685 1.366 . S
C687 C686 1.416 . S
C687 H689 0.930 . S
H688 C677 0.930 1_554 S
H689 C687 0.930 . S
H690 C705 0.930 . S
H691 C712 0.930 . S
H692 C686 0.929 . S
H693 C685 0.930 . S
H694 C708 0.929 . S
H695 C675 0.931 . S
H696 C681 0.931 . S
H697 C682 0.931 . S
H698 C703 0.931 . S
H699 C678 0.929 . S
H700 C711 0.930 . S
N701 Eu672 2.600 . S
N701 C702 1.365 . S
N701 C705 1.319 . S
C702 N701 1.365 . S
C702 C704 1.405 . S
C702 C710 1.448 . S
C703 H698 0.931 . S
C703 C705 1.397 . S
C703 C706 1.367 . S
C704 C702 1.405 . S
C704 C706 1.403 . S
C704 C737 1.439 . S
C705 H690 0.930 . S
C705 N701 1.319 . S
C705 C703 1.397 . S
C706 C703 1.367 . S
C706 C704 1.403 . S
C706 H713 0.929 . S
N707 Eu672 2.562 . S
N707 C708 1.325 1_556 S
N707 C710 1.351 . S
C708 H694 0.929 . S
C708 N707 1.325 1_554 S
C708 C712 1.416 . S
C709 C710 1.430 1_554 S
C709 C711 1.404 . S
C709 C738 1.387 1_554 S
C710 C702 1.448 . S
C710 N707 1.351 . S
C710 C709 1.430 1_556 S
C711 H700 0.930 . S
C711 C709 1.404 . S
C711 C712 1.366 . S
C712 H691 0.930 . S
C712 C708 1.416 . S
C712 C711 1.366 . S
H713 C706 0.929 . S
H714 C737 0.931 . S
H715 C738 0.931 1_554 S
O716 Eu672 2.462 . S
O716 C736 1.252 . S
O717 Eu672 2.373 . S
O717 C728 1.249 . S
O718 Eu683 2.335 . S
O718 C728 1.264 . S
O719 Eu672 2.432 . S
O719 C736 1.268 . S
O720 Eu672 2.291 . S
O720 C735 1.255 . S
O721 Eu683 2.372 . S
O721 C735 1.257 . S
O722 Eu683 2.462 . S
O722 C747 1.252 . S
O723 Eu683 2.373 . S
O723 C739 1.249 . S
O724 Eu672 2.335 . S
O724 C739 1.264 . S
O725 Eu683 2.432 . S
O725 C747 1.268 . S
O726 Eu683 2.291 . S
O726 C746 1.255 . S
O727 Eu672 2.372 . S
O727 C746 1.257 . S
C728 O717 1.249 . S
C728 O718 1.264 . S
C729 C732 1.382 . S
C729 C734 1.390 . S
C729 C736 1.506 . S
C730 C731 1.398 . S
C730 C734 1.392 . S
C731 C730 1.398 . S
C731 C733 1.372 . S
C731 H748 0.931 . S
C732 C729 1.382 . S
C732 C733 1.390 . S
C732 H749 0.931 . S
C733 C731 1.372 . S
C733 C732 1.390 . S
C733 H750 0.929 . S
C734 C729 1.390 . S
C734 C730 1.392 . S
C734 H751 0.930 . S
C735 O720 1.255 . S
C735 O721 1.257 . S
C736 Eu672 2.787 . S
C736 O716 1.252 . S
C736 O719 1.268 . S
C736 C729 1.506 . S
C737 C704 1.439 . S
C737 H714 0.931 . S
C737 C738 1.374 . S
C738 C709 1.387 1_556 S
C738 H715 0.931 1_556 S
C738 C737 1.374 . S
C739 O723 1.249 . S
C739 O724 1.264 . S
C740 C743 1.382 . S
C740 C744 1.390 . S
C740 C747 1.506 . S
C741 C742 1.398 . S
C741 C744 1.392 . S
C742 C741 1.398 . S
C742 C745 1.372 1_556 S
C742 H752 0.931 . S
C743 C740 1.382 . S
C743 C745 1.390 1_556 S
C743 H753 0.931 1_556 S
C744 C740 1.390 . S
C744 C741 1.392 . S
C744 H754 0.930 . S
C745 C742 1.372 1_554 S
C745 C743 1.390 1_554 S
C745 H755 0.929 . S
C746 O726 1.255 . S
C746 O727 1.257 . S
C747 Eu683 2.787 . S
C747 O722 1.252 . S
C747 O725 1.268 . S
C747 C740 1.506 . S
H748 C731 0.931 . S
H749 C732 0.931 . S
H750 C733 0.929 . S
H751 C734 0.930 . S
H752 C742 0.931 . S
H753 C743 0.931 1_554 S
H754 C744 0.930 . S
H755 C745 0.929 . S
Eu756 N785 2.600 . S
Eu756 N791 2.562 . S
Eu756 O800 2.462 . S
Eu756 O801 2.373 . S
Eu756 O803 2.432 . S
Eu756 O804 2.291 . S
Eu756 O808 2.335 . S
Eu756 O811 2.372 . S
Eu756 C820 2.787 . S
C757 N758 1.365 . S
C757 C760 1.405 . S
C757 C764 1.448 . S
N758 C757 1.365 . S
N758 C761 1.319 . S
N758 Eu767 2.600 . S
C759 C761 1.397 . S
C759 C762 1.367 . S
C759 H779 0.931 . S
C760 C757 1.405 . S
C760 C762 1.403 . S
C760 C766 1.439 . S
C761 N758 1.319 . S
C761 C759 1.397 . S
C761 H772 0.930 . S
C762 C759 1.367 . S
C762 C760 1.403 . S
C762 H783 0.929 . S
C763 C764 1.430 . S
C763 C765 1.387 . S
C763 C769 1.404 . S
C764 C757 1.448 . S
C764 C763 1.430 . S
C764 N768 1.351 . S
C765 C763 1.387 . S
C765 C766 1.374 . S
C765 H780 0.931 . S
C766 C760 1.439 . S
C766 C765 1.374 . S
C766 H781 0.931 . S
Eu767 N758 2.600 . S
Eu767 N768 2.562 . S
Eu767 O802 2.335 . S
Eu767 O805 2.372 . S
Eu767 O806 2.462 . S
Eu767 O807 2.373 . S
Eu767 O809 2.432 . S
Eu767 O810 2.291 . S
Eu767 C831 2.787 . S
N768 C764 1.351 . S
N768 Eu767 2.562 . S
N768 C770 1.325 . S
C769 C763 1.404 . S
C769 C771 1.366 . S
C769 H777 0.930 . S
C770 N768 1.325 . S
C770 C771 1.416 . S
C770 H776 0.929 . S
C771 C769 1.366 . S
C771 C770 1.416 . S
C771 H773 0.930 . S
H772 C761 0.930 . S
H773 C771 0.930 . S
H774 C789 0.930 . S
H775 C796 0.930 . S
H776 C770 0.929 . S
H777 C769 0.930 . S
H778 C792 0.929 . S
H779 C759 0.931 . S
H780 C765 0.931 . S
H781 C766 0.931 . S
H782 C787 0.931 . S
H783 C762 0.929 . S
H784 C795 0.930 . S
N785 Eu756 2.600 . S
N785 C786 1.365 . S
N785 C789 1.319 . S
C786 N785 1.365 . S
C786 C788 1.405 . S
C786 C794 1.448 . S
C787 H782 0.931 . S
C787 C789 1.397 . S
C787 C790 1.367 . S
C788 C786 1.405 . S
C788 C790 1.403 . S
C788 C821 1.439 . S
C789 H774 0.930 . S
C789 N785 1.319 . S
C789 C787 1.397 . S
C790 C787 1.367 . S
C790 C788 1.403 . S
C790 H797 0.929 . S
N791 Eu756 2.562 . S
N791 C792 1.325 . S
N791 C794 1.351 . S
C792 H778 0.929 . S
C792 N791 1.325 . S
C792 C796 1.416 . S
C793 C794 1.430 . S
C793 C795 1.404 . S
C793 C822 1.387 . S
C794 C786 1.448 . S
C794 N791 1.351 . S
C794 C793 1.430 . S
C795 H784 0.930 . S
C795 C793 1.404 . S
C795 C796 1.366 . S
C796 H775 0.930 . S
C796 C792 1.416 . S
C796 C795 1.366 . S
H797 C790 0.929 . S
H798 C821 0.931 . S
H799 C822 0.931 . S
O800 Eu756 2.462 . S
O800 C820 1.252 . S
O801 Eu756 2.373 . S
O801 C812 1.249 . S
O802 Eu767 2.335 . S
O802 C812 1.264 . S
O803 Eu756 2.432 . S
O803 C820 1.268 . S
O804 Eu756 2.291 . S
O804 C819 1.255 . S
O805 Eu767 2.372 . S
O805 C819 1.257 . S
O806 Eu767 2.462 . S
O806 C831 1.252 . S
O807 Eu767 2.373 . S
O807 C823 1.249 . S
O808 Eu756 2.335 . S
O808 C823 1.264 . S
O809 Eu767 2.432 . S
O809 C831 1.268 . S
O810 Eu767 2.291 . S
O810 C830 1.255 . S
O811 Eu756 2.372 . S
O811 C830 1.257 . S
C812 O801 1.249 . S
C812 O802 1.264 . S
C813 C816 1.382 . S
C813 C818 1.390 . S
C813 C820 1.506 . S
C814 C815 1.398 . S
C814 C818 1.392 . S
C815 C814 1.398 . S
C815 C817 1.372 . S
C815 H832 0.931 . S
C816 C813 1.382 . S
C816 C817 1.390 . S
C816 H833 0.931 . S
C817 C815 1.372 . S
C817 C816 1.390 . S
C817 H834 0.929 . S
C818 C813 1.390 . S
C818 C814 1.392 . S
C818 H835 0.930 . S
C819 O804 1.255 . S
C819 O805 1.257 . S
C820 Eu756 2.787 . S
C820 O800 1.252 . S
C820 O803 1.268 . S
C820 C813 1.506 . S
C821 C788 1.439 . S
C821 H798 0.931 . S
C821 C822 1.374 . S
C822 C793 1.387 . S
C822 H799 0.931 . S
C822 C821 1.374 . S
C823 O807 1.249 . S
C823 O808 1.264 . S
C824 C827 1.382 . S
C824 C828 1.390 . S
C824 C831 1.506 . S
C825 C826 1.398 . S
C825 C828 1.392 . S
C826 C825 1.398 . S
C826 C829 1.372 . S
C826 H836 0.931 . S
C827 C824 1.382 . S
C827 C829 1.390 . S
C827 H837 0.931 . S
C828 C824 1.390 . S
C828 C825 1.392 . S
C828 H838 0.930 . S
C829 C826 1.372 . S
C829 C827 1.390 . S
C829 H839 0.929 . S
C830 O810 1.255 . S
C830 O811 1.257 . S
C831 Eu767 2.787 . S
C831 O806 1.252 . S
C831 O809 1.268 . S
C831 C824 1.506 . S
H832 C815 0.931 . S
H833 C816 0.931 . S
H834 C817 0.929 . S
H835 C818 0.930 . S
H836 C826 0.931 . S
H837 C827 0.931 . S
H838 C828 0.930 . S
H839 C829 0.929 . S
Eu840 N869 2.600 . S
Eu840 N875 2.562 . S
Eu840 O884 2.462 . S
Eu840 O885 2.373 . S
Eu840 O887 2.432 . S
Eu840 O888 2.291 . S
Eu840 O892 2.335 . S
Eu840 O895 2.372 . S
Eu840 C904 2.787 . S
C841 N842 1.365 . S
C841 C844 1.405 . S
C841 C848 1.448 . S
N842 C841 1.365 . S
N842 C845 1.319 . S
N842 Eu851 2.600 . S
C843 C845 1.397 . S
C843 C846 1.367 . S
C843 H863 0.931 . S
C844 C841 1.405 . S
C844 C846 1.403 . S
C844 C850 1.439 . S
C845 N842 1.319 . S
C845 C843 1.397 . S
C845 H856 0.930 . S
C846 C843 1.367 . S
C846 C844 1.403 . S
C846 H867 0.929 . S
C847 C848 1.430 . S
C847 C849 1.387 . S
C847 C853 1.404 . S
C848 C841 1.448 . S
C848 C847 1.430 . S
C848 N852 1.351 . S
C849 C847 1.387 . S
C849 C850 1.374 . S
C849 H864 0.931 . S
C850 C844 1.439 . S
C850 C849 1.374 . S
C850 H865 0.931 . S
Eu851 N842 2.600 . S
Eu851 N852 2.562 . S
Eu851 O886 2.335 . S
Eu851 O889 2.372 . S
Eu851 O890 2.462 . S
Eu851 O891 2.373 . S
Eu851 O893 2.432 . S
Eu851 O894 2.291 . S
Eu851 C915 2.787 . S
N852 C848 1.351 . S
N852 Eu851 2.562 . S
N852 C854 1.325 . S
C853 C847 1.404 . S
C853 C855 1.366 . S
C853 H861 0.930 . S
C854 N852 1.325 . S
C854 C855 1.416 . S
C854 H860 0.929 . S
C855 C853 1.366 . S
C855 C854 1.416 . S
C855 H857 0.930 . S
H856 C845 0.930 . S
H857 C855 0.930 . S
H858 C873 0.930 . S
H859 C880 0.930 . S
H860 C854 0.929 . S
H861 C853 0.930 . S
H862 C876 0.929 . S
H863 C843 0.931 . S
H864 C849 0.931 . S
H865 C850 0.931 . S
H866 C871 0.931 . S
H867 C846 0.929 . S
H868 C879 0.930 . S
N869 Eu840 2.600 . S
N869 C870 1.365 . S
N869 C873 1.319 . S
C870 N869 1.365 . S
C870 C872 1.405 . S
C870 C878 1.448 . S
C871 H866 0.931 . S
C871 C873 1.397 . S
C871 C874 1.367 . S
C872 C870 1.405 . S
C872 C874 1.403 . S
C872 C905 1.439 . S
C873 H858 0.930 . S
C873 N869 1.319 . S
C873 C871 1.397 . S
C874 C871 1.367 . S
C874 C872 1.403 . S
C874 H881 0.929 . S
N875 Eu840 2.562 . S
N875 C876 1.325 . S
N875 C878 1.351 . S
C876 H862 0.929 . S
C876 N875 1.325 . S
C876 C880 1.416 . S
C877 C878 1.430 . S
C877 C879 1.404 . S
C877 C906 1.387 . S
C878 C870 1.448 . S
C878 N875 1.351 . S
C878 C877 1.430 . S
C879 H868 0.930 . S
C879 C877 1.404 . S
C879 C880 1.366 . S
C880 H859 0.930 . S
C880 C876 1.416 . S
C880 C879 1.366 . S
H881 C874 0.929 . S
H882 C905 0.931 . S
H883 C906 0.931 . S
O884 Eu840 2.462 . S
O884 C904 1.252 . S
O885 Eu840 2.373 . S
O885 C896 1.249 . S
O886 Eu851 2.335 . S
O886 C896 1.264 . S
O887 Eu840 2.432 . S
O887 C904 1.268 . S
O888 Eu840 2.291 . S
O888 C903 1.255 . S
O889 Eu851 2.372 . S
O889 C903 1.257 . S
O890 Eu851 2.462 . S
O890 C915 1.252 . S
O891 Eu851 2.373 . S
O891 C907 1.249 . S
O892 Eu840 2.335 . S
O892 C907 1.264 . S
O893 Eu851 2.432 . S
O893 C915 1.268 . S
O894 Eu851 2.291 . S
O894 C914 1.255 . S
O895 Eu840 2.372 . S
O895 C914 1.257 . S
C896 O885 1.249 . S
C896 O886 1.264 . S
C897 C900 1.382 . S
C897 C902 1.390 . S
C897 C904 1.506 . S
C898 C899 1.398 . S
C898 C902 1.392 . S
C899 C898 1.398 . S
C899 C901 1.372 . S
C899 H916 0.931 . S
C900 C897 1.382 . S
C900 C901 1.390 . S
C900 H917 0.931 . S
C901 C899 1.372 . S
C901 C900 1.390 . S
C901 H918 0.929 . S
C902 C897 1.390 . S
C902 C898 1.392 . S
C902 H919 0.930 . S
C903 O888 1.255 . S
C903 O889 1.257 . S
C904 Eu840 2.787 . S
C904 O884 1.252 . S
C904 O887 1.268 . S
C904 C897 1.506 . S
C905 C872 1.439 . S
C905 H882 0.931 . S
C905 C906 1.374 . S
C906 C877 1.387 . S
C906 H883 0.931 . S
C906 C905 1.374 . S
C907 O891 1.249 . S
C907 O892 1.264 . S
C908 C911 1.382 . S
C908 C912 1.390 . S
C908 C915 1.506 . S
C909 C910 1.398 . S
C909 C912 1.392 . S
C910 C909 1.398 . S
C910 C913 1.372 . S
C910 H920 0.931 . S
C911 C908 1.382 . S
C911 C913 1.390 . S
C911 H921 0.931 . S
C912 C908 1.390 . S
C912 C909 1.392 . S
C912 H922 0.930 . S
C913 C910 1.372 . S
C913 C911 1.390 . S
C913 H923 0.929 . S
C914 O894 1.255 . S
C914 O895 1.257 . S
C915 Eu851 2.787 . S
C915 O890 1.252 . S
C915 O893 1.268 . S
C915 C908 1.506 . S
H916 C899 0.931 . S
H917 C900 0.931 . S
H918 C901 0.929 . S
H919 C902 0.930 . S
H920 C910 0.931 . S
H921 C911 0.931 . S
H922 C912 0.930 . S
H923 C913 0.929 . S
Eu924 N953 2.600 . S
Eu924 N959 2.562 . S
Eu924 O968 2.462 . S
Eu924 O969 2.373 . S
Eu924 O971 2.432 . S
Eu924 O972 2.291 . S
Eu924 O976 2.335 . S
Eu924 O979 2.372 . S
Eu924 C988 2.787 . S
C925 N926 1.365 . S
C925 C928 1.405 . S
C925 C932 1.448 . S
N926 C925 1.365 . S
N926 C929 1.319 . S
N926 Eu935 2.600 . S
C927 C929 1.397 . S
C927 C930 1.367 . S
C927 H947 0.931 . S
C928 C925 1.405 . S
C928 C930 1.403 . S
C928 C934 1.439 . S
C929 N926 1.319 . S
C929 C927 1.397 . S
C929 H940 0.930 . S
C930 C927 1.367 . S
C930 C928 1.403 . S
C930 H951 0.929 . S
C931 C932 1.430 . S
C931 C933 1.387 . S
C931 C937 1.404 . S
C932 C925 1.448 . S
C932 C931 1.430 . S
C932 N936 1.351 . S
C933 C931 1.387 . S
C933 C934 1.374 . S
C933 H948 0.931 . S
C934 C928 1.439 . S
C934 C933 1.374 . S
C934 H949 0.931 . S
Eu935 N926 2.600 . S
Eu935 N936 2.562 . S
Eu935 O970 2.335 . S
Eu935 O973 2.372 . S
Eu935 O974 2.462 . S
Eu935 O975 2.373 . S
Eu935 O977 2.432 . S
Eu935 O978 2.291 . S
Eu935 C999 2.787 . S
N936 C932 1.351 . S
N936 Eu935 2.562 . S
N936 C938 1.325 . S
C937 C931 1.404 . S
C937 C939 1.366 . S
C937 H945 0.930 . S
C938 N936 1.325 . S
C938 C939 1.416 . S
C938 H944 0.929 . S
C939 C937 1.366 . S
C939 C938 1.416 . S
C939 H941 0.930 . S
H940 C929 0.930 . S
H941 C939 0.930 . S
H942 C957 0.930 . S
H943 C964 0.930 . S
H944 C938 0.929 . S
H945 C937 0.930 . S
H946 C960 0.929 . S
H947 C927 0.931 . S
H948 C933 0.931 . S
H949 C934 0.931 . S
H950 C955 0.931 . S
H951 C930 0.929 . S
H952 C963 0.930 . S
N953 Eu924 2.600 . S
N953 C954 1.365 . S
N953 C957 1.319 . S
C954 N953 1.365 . S
C954 C956 1.405 . S
C954 C962 1.448 . S
C955 H950 0.931 . S
C955 C957 1.397 . S
C955 C958 1.367 . S
C956 C954 1.405 . S
C956 C958 1.403 . S
C956 C989 1.439 . S
C957 H942 0.930 . S
C957 N953 1.319 . S
C957 C955 1.397 . S
C958 C955 1.367 . S
C958 C956 1.403 . S
C958 H965 0.929 . S
N959 Eu924 2.562 . S
N959 C960 1.325 . S
N959 C962 1.351 . S
C960 H946 0.929 . S
C960 N959 1.325 . S
C960 C964 1.416 . S
C961 C962 1.430 . S
C961 C963 1.404 . S
C961 C990 1.387 . S
C962 C954 1.448 . S
C962 N959 1.351 . S
C962 C961 1.430 . S
C963 H952 0.930 . S
C963 C961 1.404 . S
C963 C964 1.366 . S
C964 H943 0.930 . S
C964 C960 1.416 . S
C964 C963 1.366 . S
H965 C958 0.929 . S
H966 C989 0.931 . S
H967 C990 0.931 . S
O968 Eu924 2.462 . S
O968 C988 1.252 . S
O969 Eu924 2.373 . S
O969 C980 1.249 . S
O970 Eu935 2.335 . S
O970 C980 1.264 . S
O971 Eu924 2.432 . S
O971 C988 1.268 . S
O972 Eu924 2.291 . S
O972 C987 1.255 . S
O973 Eu935 2.372 . S
O973 C987 1.257 . S
O974 Eu935 2.462 . S
O974 C999 1.252 . S
O975 Eu935 2.373 . S
O975 C991 1.249 . S
O976 Eu924 2.335 . S
O976 C991 1.264 . S
O977 Eu935 2.432 . S
O977 C999 1.268 . S
O978 Eu935 2.291 . S
O978 C998 1.255 . S
O979 Eu924 2.372 . S
O979 C998 1.257 . S
C980 O969 1.249 . S
C980 O970 1.264 . S
C981 C984 1.382 . S
C981 C986 1.390 . S
C981 C988 1.506 . S
C982 C983 1.398 . S
C982 C986 1.392 . S
C983 C982 1.398 . S
C983 C985 1.372 . S
C983 H1000 0.931 . S
C984 C981 1.382 . S
C984 C985 1.390 . S
C984 H1001 0.931 . S
C985 C983 1.372 . S
C985 C984 1.390 . S
C985 H1002 0.929 . S
C986 C981 1.390 . S
C986 C982 1.392 . S
C986 H1003 0.930 . S
C987 O972 1.255 . S
C987 O973 1.257 . S
C988 Eu924 2.787 . S
C988 O968 1.252 . S
C988 O971 1.268 . S
C988 C981 1.506 . S
C989 C956 1.439 . S
C989 H966 0.931 . S
C989 C990 1.374 . S
C990 C961 1.387 . S
C990 H967 0.931 . S
C990 C989 1.374 . S
C991 O975 1.249 . S
C991 O976 1.264 . S
C992 C995 1.382 . S
C992 C996 1.390 . S
C992 C999 1.506 . S
C993 C994 1.398 . S
C993 C996 1.392 . S
C994 C993 1.398 . S
C994 C997 1.372 . S
C994 H1004 0.931 . S
C995 C992 1.382 . S
C995 C997 1.390 . S
C995 H1005 0.931 . S
C996 C992 1.390 . S
C996 C993 1.392 . S
C996 H1006 0.930 . S
C997 C994 1.372 . S
C997 C995 1.390 . S
C997 H1007 0.929 . S
C998 O978 1.255 . S
C998 O979 1.257 . S
C999 Eu935 2.787 . S
C999 O974 1.252 . S
C999 O977 1.268 . S
C999 C992 1.506 . S
H1000 C983 0.931 . S
H1001 C984 0.931 . S
H1002 C985 0.929 . S
H1003 C986 0.930 . S
H1004 C994 0.931 . S
H1005 C995 0.931 . S
H1006 C996 0.930 . S
H1007 C997 0.929 . S
H1008 C1016 0.929 1_556 S
H1009 C1018 0.930 1_556 S
H1010 C1020 0.930 . S
H1011 C1023 0.929 . S
H1012 C1026 0.930 . S
H1013 C1028 0.960 . S
H1014 C1028 0.960 . S
H1015 C1028 0.960 . S
C1016 H1008 0.929 1_554 S
C1016 C1017 1.377 . S
C1016 C1018 1.384 . S
C1017 C1016 1.377 . S
C1017 C1023 1.390 . S
C1018 H1009 0.930 1_554 S
C1018 C1016 1.384 . S
C1018 C1019 1.372 . S
C1019 C1018 1.372 . S
C1019 C1020 1.400 . S
C1019 C1024 1.490 . S
C1020 H1010 0.930 . S
C1020 C1019 1.400 . S
C1020 C1023 1.386 . S
H1021 C1037 0.930 1_554 S
H1022 C1038 0.931 1_554 S
C1023 H1011 0.929 . S
C1023 C1017 1.390 . S
C1023 C1020 1.386 . S
C1024 C1019 1.490 . S
C1024 C1026 1.395 1_454 S
C1024 C1027 1.403 . S
H1025 C1031 0.930 . S
C1026 H1012 0.930 . S
C1026 C1024 1.395 1_656 S
C1026 C1029 1.403 . S
C1027 C1024 1.403 . S
C1027 C1028 1.524 . S
C1027 C1031 1.400 1_554 S
C1028 H1013 0.960 . S
C1028 H1014 0.960 . S
C1028 H1015 0.960 . S
C1028 C1027 1.524 . S
C1029 C1026 1.403 . S
C1029 C1030 1.392 . S
C1029 C1033 1.495 . S
C1030 C1029 1.392 . S
C1030 C1031 1.385 1_655 S
C1030 C1032 1.478 . S
C1031 H1025 0.930 . S
C1031 C1027 1.400 1_556 S
C1031 C1030 1.385 1_455 S
C1032 C1030 1.478 . S
C1032 C1034 1.381 . S
C1032 C1038 1.383 . S
C1033 C1029 1.495 . S
C1033 H1039 0.959 . S
C1033 H1040 0.961 . S
C1033 H1041 0.960 . S
C1034 C1032 1.381 . S
C1034 C1035 1.394 . S
C1034 H1042 0.930 . S
C1035 C1034 1.394 . S
C1035 C1036 1.383 . S
C1035 H1043 0.929 . S
C1036 C1035 1.383 . S
C1036 C1037 1.377 . S
C1037 H1021 0.930 1_556 S
C1037 C1036 1.377 . S
C1037 C1038 1.379 . S
C1038 H1022 0.931 1_556 S
C1038 C1032 1.383 . S
C1038 C1037 1.379 . S
H1039 C1033 0.959 . S
H1040 C1033 0.961 . S
H1041 C1033 0.960 . S
H1042 C1034 0.930 . S
H1043 C1035 0.929 . S
H1044 C1052 0.929 . S
H1045 C1054 0.930 . S
H1046 C1056 0.930 . S
H1047 C1059 0.929 . S
H1048 C1062 0.930 . S
H1049 C1064 0.960 . S
H1050 C1064 0.960 . S
H1051 C1064 0.960 . S
C1052 H1044 0.929 . S
C1052 C1053 1.377 . S
C1052 C1054 1.384 . S
C1053 C1052 1.377 . S
C1053 C1059 1.390 . S
C1054 H1045 0.930 . S
C1054 C1052 1.384 . S
C1054 C1055 1.372 . S
C1055 C1054 1.372 . S
C1055 C1056 1.400 . S
C1055 C1060 1.490 . S
C1056 H1046 0.930 . S
C1056 C1055 1.400 . S
C1056 C1059 1.386 . S
H1057 C1073 0.930 . S
H1058 C1074 0.931 . S
C1059 H1047 0.929 . S
C1059 C1053 1.390 . S
C1059 C1056 1.386 . S
C1060 C1055 1.490 . S
C1060 C1062 1.395 . S
C1060 C1063 1.403 1_556 S
H1061 C1067 0.930 . S
C1062 H1048 0.930 . S
C1062 C1060 1.395 . S
C1062 C1065 1.403 . S
C1063 C1060 1.403 1_554 S
C1063 C1064 1.524 . S
C1063 C1067 1.400 . S
C1064 H1049 0.960 . S
C1064 H1050 0.960 . S
C1064 H1051 0.960 . S
C1064 C1063 1.524 . S
C1065 C1062 1.403 . S
C1065 C1066 1.392 1_556 S
C1065 C1069 1.495 . S
C1066 C1065 1.392 1_554 S
C1066 C1067 1.385 . S
C1066 C1068 1.478 . S
C1067 H1061 0.930 . S
C1067 C1063 1.400 . S
C1067 C1066 1.385 . S
C1068 C1066 1.478 . S
C1068 C1070 1.381 . S
C1068 C1074 1.383 . S
C1069 C1065 1.495 . S
C1069 H1075 0.959 . S
C1069 H1076 0.961 . S
C1069 H1077 0.960 . S
C1070 C1068 1.381 . S
C1070 C1071 1.394 . S
C1070 H1078 0.930 . S
C1071 C1070 1.394 . S
C1071 C1072 1.383 . S
C1071 H1079 0.929 . S
C1072 C1071 1.383 . S
C1072 C1073 1.377 . S
C1073 H1057 0.930 . S
C1073 C1072 1.377 . S
C1073 C1074 1.379 . S
C1074 H1058 0.931 . S
C1074 C1068 1.383 . S
C1074 C1073 1.379 . S
H1075 C1069 0.959 . S
H1076 C1069 0.961 . S
H1077 C1069 0.960 . S
H1078 C1070 0.930 . S
H1079 C1071 0.929 . S
H1080 C1088 0.929 . S
H1081 C1090 0.930 . S
H1082 C1092 0.930 1_564 S
H1083 C1095 0.929 . S
H1084 C1098 0.930 . S
H1085 C1100 0.960 . S
H1086 C1100 0.960 . S
H1087 C1100 0.960 . S
C1088 H1080 0.929 . S
C1088 C1089 1.377 . S
C1088 C1090 1.384 . S
C1089 C1088 1.377 . S
C1089 C1095 1.390 . S
C1090 H1081 0.930 . S
C1090 C1088 1.384 . S
C1090 C1091 1.372 . S
C1091 C1090 1.372 . S
C1091 C1092 1.400 . S
C1091 C1096 1.490 . S
C1092 H1082 0.930 1_546 S
C1092 C1091 1.400 . S
C1092 C1095 1.386 . S
H1093 C1109 0.930 . S
H1094 C1110 0.931 . S
C1095 H1083 0.929 . S
C1095 C1089 1.390 . S
C1095 C1092 1.386 . S
C1096 C1091 1.490 . S
C1096 C1098 1.395 1_545 S
C1096 C1099 1.403 1_556 S
H1097 C1103 0.930 . S
C1098 H1084 0.930 . S
C1098 C1096 1.395 1_565 S
C1098 C1101 1.403 . S
C1099 C1096 1.403 1_554 S
C1099 C1100 1.524 . S
C1099 C1103 1.400 . S
C1100 H1085 0.960 . S
C1100 H1086 0.960 . S
C1100 H1087 0.960 . S
C1100 C1099 1.524 . S
C1101 C1098 1.403 . S
C1101 C1102 1.392 1_556 S
C1101 C1105 1.495 . S
C1102 C1101 1.392 1_554 S
C1102 C1103 1.385 1_565 S
C1102 C1104 1.478 . S
C1103 H1097 0.930 . S
C1103 C1099 1.400 . S
C1103 C1102 1.385 1_545 S
C1104 C1102 1.478 . S
C1104 C1106 1.381 . S
C1104 C1110 1.383 . S
C1105 C1101 1.495 . S
C1105 H1111 0.959 . S
C1105 H1112 0.961 . S
C1105 H1113 0.960 . S
C1106 C1104 1.381 . S
C1106 C1107 1.394 . S
C1106 H1114 0.930 1_564 S
C1107 C1106 1.394 . S
C1107 C1108 1.383 . S
C1107 H1115 0.929 . S
C1108 C1107 1.383 . S
C1108 C1109 1.377 . S
C1109 H1093 0.930 . S
C1109 C1108 1.377 . S
C1109 C1110 1.379 . S
C1110 H1094 0.931 . S
C1110 C1104 1.383 . S
C1110 C1109 1.379 . S
H1111 C1105 0.959 . S
H1112 C1105 0.961 . S
H1113 C1105 0.960 . S
H1114 C1106 0.930 1_546 S
H1115 C1107 0.929 . S
H1116 C1124 0.929 . S
H1117 C1126 0.930 . S
H1118 C1128 0.930 . S
H1119 C1131 0.929 . S
H1120 C1134 0.930 . S
H1121 C1136 0.960 . S
H1122 C1136 0.960 . S
H1123 C1136 0.960 . S
C1124 H1116 0.929 . S
C1124 C1125 1.377 . S
C1124 C1126 1.384 . S
C1125 C1124 1.377 . S
C1125 C1131 1.390 . S
C1126 H1117 0.930 . S
C1126 C1124 1.384 . S
C1126 C1127 1.372 . S
C1127 C1126 1.372 . S
C1127 C1128 1.400 . S
C1127 C1132 1.490 . S
C1128 H1118 0.930 . S
C1128 C1127 1.400 . S
C1128 C1131 1.386 . S
H1129 C1145 0.930 . S
H1130 C1146 0.931 . S
C1131 H1119 0.929 . S
C1131 C1125 1.390 . S
C1131 C1128 1.386 . S
C1132 C1127 1.490 . S
C1132 C1134 1.395 1_545 S
C1132 C1135 1.403 . S
H1133 C1139 0.930 . S
C1134 H1120 0.930 . S
C1134 C1132 1.395 1_565 S
C1134 C1137 1.403 . S
C1135 C1132 1.403 . S
C1135 C1136 1.524 . S
C1135 C1139 1.400 . S
C1136 H1121 0.960 . S
C1136 H1122 0.960 . S
C1136 H1123 0.960 . S
C1136 C1135 1.524 . S
C1137 C1134 1.403 . S
C1137 C1138 1.392 . S
C1137 C1141 1.495 . S
C1138 C1137 1.392 . S
C1138 C1139 1.385 1_565 S
C1138 C1140 1.478 . S
C1139 H1133 0.930 . S
C1139 C1135 1.400 . S
C1139 C1138 1.385 1_545 S
C1140 C1138 1.478 . S
C1140 C1142 1.381 . S
C1140 C1146 1.383 . S
C1141 C1137 1.495 . S
C1141 H1147 0.959 . S
C1141 H1148 0.961 . S
C1141 H1149 0.960 . S
C1142 C1140 1.381 . S
C1142 C1143 1.394 . S
C1142 H1150 0.930 . S
C1143 C1142 1.394 . S
C1143 C1144 1.383 . S
C1143 H1151 0.929 . S
C1144 C1143 1.383 . S
C1144 C1145 1.377 . S
C1145 H1129 0.930 . S
C1145 C1144 1.377 . S
C1145 C1146 1.379 . S
C1146 H1130 0.931 . S
C1146 C1140 1.383 . S
C1146 C1145 1.379 . S
H1147 C1141 0.959 . S
H1148 C1141 0.961 . S
H1149 C1141 0.960 . S
H1150 C1142 0.930 . S
H1151 C1143 0.929 . S
H1152 C1160 0.929 . S
H1153 C1162 0.930 . S
H1154 C1164 0.930 . S
H1155 C1167 0.929 . S
H1156 C1170 0.930 . S
H1157 C1172 0.960 . S
H1158 C1172 0.960 . S
H1159 C1172 0.960 . S
C1160 H1152 0.929 . S
C1160 C1161 1.377 . S
C1160 C1162 1.384 . S
C1161 C1160 1.377 . S
C1161 C1167 1.390 . S
C1162 H1153 0.930 . S
C1162 C1160 1.384 . S
C1162 C1163 1.372 . S
C1163 C1162 1.372 . S
C1163 C1164 1.400 . S
C1163 C1168 1.490 . S
C1164 H1154 0.930 . S
C1164 C1163 1.400 . S
C1164 C1167 1.386 . S
H1165 C1181 0.930 . S
H1166 C1182 0.931 . S
C1167 H1155 0.929 . S
C1167 C1161 1.390 . S
C1167 C1164 1.386 . S
C1168 C1163 1.490 . S
C1168 C1170 1.395 . S
C1168 C1171 1.403 1_455 S
H1169 C1175 0.930 . S
C1170 H1156 0.930 . S
C1170 C1168 1.395 . S
C1170 C1173 1.403 . S
C1171 C1168 1.403 1_655 S
C1171 C1172 1.524 . S
C1171 C1175 1.400 . S
C1172 H1157 0.960 . S
C1172 H1158 0.960 . S
C1172 H1159 0.960 . S
C1172 C1171 1.524 . S
C1173 C1170 1.403 . S
C1173 C1174 1.392 1_455 S
C1173 C1177 1.495 . S
C1174 C1173 1.392 1_655 S
C1174 C1175 1.385 . S
C1174 C1176 1.478 . S
C1175 H1169 0.930 . S
C1175 C1171 1.400 . S
C1175 C1174 1.385 . S
C1176 C1174 1.478 . S
C1176 C1178 1.381 . S
C1176 C1182 1.383 . S
C1177 C1173 1.495 . S
C1177 H1183 0.959 . S
C1177 H1184 0.961 . S
C1177 H1185 0.960 . S
C1178 C1176 1.381 . S
C1178 C1179 1.394 . S
C1178 H1186 0.938 . S
C1179 C1178 1.394 . S
C1179 C1180 1.383 . S
C1179 H1187 0.929 . S
C1180 C1179 1.383 . S
C1180 C1181 1.377 . S
C1181 H1165 0.930 . S
C1181 C1180 1.377 . S
C1181 C1182 1.379 . S
C1182 H1166 0.931 . S
C1182 C1176 1.383 . S
C1182 C1181 1.379 . S
H1183 C1177 0.959 . S
H1184 C1177 0.961 . S
H1185 C1177 0.960 . S
H1186 C1178 0.938 . S
H1187 C1179 0.929 . S
H1188 C1196 0.929 . S
H1189 C1198 0.930 . S
H1190 C1200 0.930 . S
H1191 C1203 0.929 . S
H1192 C1206 0.930 . S
H1193 C1208 0.960 . S
H1194 C1208 0.960 . S
H1195 C1208 0.960 . S
C1196 H1188 0.929 . S
C1196 C1197 1.377 . S
C1196 C1198 1.384 . S
C1197 C1196 1.377 . S
C1197 C1203 1.390 . S
C1198 H1189 0.930 . S
C1198 C1196 1.384 . S
C1198 C1199 1.372 . S
C1199 C1198 1.372 . S
C1199 C1200 1.400 . S
C1199 C1204 1.490 . S
C1200 H1190 0.930 . S
C1200 C1199 1.400 . S
C1200 C1203 1.386 . S
H1201 C1217 0.930 . S
H1202 C1218 0.931 . S
C1203 H1191 0.929 . S
C1203 C1197 1.390 . S
C1203 C1200 1.386 . S
C1204 C1199 1.490 . S
C1204 C1206 1.395 . S
C1204 C1207 1.403 . S
H1205 C1211 0.930 . S
C1206 H1192 0.930 . S
C1206 C1204 1.395 . S
C1206 C1209 1.403 . S
C1207 C1204 1.403 . S
C1207 C1208 1.524 . S
C1207 C1211 1.400 . S
C1208 H1193 0.960 . S
C1208 H1194 0.960 . S
C1208 H1195 0.960 . S
C1208 C1207 1.524 . S
C1209 C1206 1.403 . S
C1209 C1210 1.392 . S
C1209 C1213 1.495 . S
C1210 C1209 1.392 . S
C1210 C1211 1.385 . S
C1210 C1212 1.478 . S
C1211 H1205 0.930 . S
C1211 C1207 1.400 . S
C1211 C1210 1.385 . S
C1212 C1210 1.478 . S
C1212 C1214 1.381 . S
C1212 C1218 1.383 . S
C1213 C1209 1.495 . S
C1213 H1219 0.959 . S
C1213 H1220 0.961 . S
C1213 H1221 0.960 . S
C1214 C1212 1.381 . S
C1214 C1215 1.394 . S
C1214 H1222 0.930 . S
C1215 C1214 1.394 . S
C1215 C1216 1.383 . S
C1215 H1223 0.929 . S
C1216 C1215 1.383 . S
C1216 C1217 1.377 . S
C1217 H1201 0.930 . S
C1217 C1216 1.377 . S
C1217 C1218 1.379 . S
C1218 H1202 0.931 . S
C1218 C1212 1.383 . S
C1218 C1217 1.379 . S
H1219 C1213 0.959 . S
H1220 C1213 0.961 . S
H1221 C1213 0.960 . S
H1222 C1214 0.930 . S
H1223 C1215 0.929 . S
H1224 C1232 0.929 . S
H1225 C1234 0.930 . S
H1226 C1236 0.930 . S
H1227 C1239 0.929 . S
H1228 C1242 0.930 . S
H1229 C1244 0.960 1_455 S
H1230 C1244 0.960 . S
H1231 C1244 0.960 . S
C1232 H1224 0.929 . S
C1232 C1233 1.377 . S
C1232 C1234 1.384 . S
C1233 C1232 1.377 . S
C1233 C1239 1.390 . S
C1234 H1225 0.930 . S
C1234 C1232 1.384 . S
C1234 C1235 1.372 . S
C1235 C1234 1.372 . S
C1235 C1236 1.400 . S
C1235 C1240 1.490 . S
C1236 H1226 0.930 . S
C1236 C1235 1.400 . S
C1236 C1239 1.386 . S
H1237 C1253 0.930 . S
H1238 C1254 0.931 . S
C1239 H1227 0.929 . S
C1239 C1233 1.390 . S
C1239 C1236 1.386 . S
C1240 C1235 1.490 . S
C1240 C1242 1.395 . S
C1240 C1243 1.403 . S
H1241 C1247 0.930 . S
C1242 H1228 0.930 . S
C1242 C1240 1.395 . S
C1242 C1245 1.403 1_655 S
C1243 C1240 1.403 . S
C1243 C1244 1.524 . S
C1243 C1247 1.400 1_655 S
C1244 H1229 0.960 1_655 S
C1244 H1230 0.960 . S
C1244 H1231 0.960 . S
C1244 C1243 1.524 . S
C1245 C1242 1.403 1_455 S
C1245 C1246 1.392 . S
C1245 C1249 1.495 . S
C1246 C1245 1.392 . S
C1246 C1247 1.385 . S
C1246 C1248 1.478 . S
C1247 H1241 0.930 . S
C1247 C1243 1.400 1_455 S
C1247 C1246 1.385 . S
C1248 C1246 1.478 . S
C1248 C1250 1.381 . S
C1248 C1254 1.383 . S
C1249 C1245 1.495 . S
C1249 H1255 0.959 1_455 S
C1249 H1256 0.961 . S
C1249 H1257 0.960 . S
C1250 C1248 1.381 . S
C1250 C1251 1.394 . S
C1250 H1258 0.930 . S
C1251 C1250 1.394 . S
C1251 C1252 1.383 . S
C1251 H1259 0.929 . S
C1252 C1251 1.383 . S
C1252 C1253 1.377 . S
C1253 H1237 0.930 . S
C1253 C1252 1.377 . S
C1253 C1254 1.379 . S
C1254 H1238 0.931 . S
C1254 C1248 1.383 . S
C1254 C1253 1.379 . S
H1255 C1249 0.959 1_655 S
H1256 C1249 0.961 . S
H1257 C1249 0.960 . S
H1258 C1250 0.930 . S
H1259 C1251 0.929 . S
H1260 C1268 0.929 . S
H1261 C1270 0.930 . S
H1262 C1272 0.930 . S
H1263 C1275 0.929 . S
H1264 C1278 0.930 . S
H1265 C1280 0.960 . S
H1266 C1280 0.960 . S
H1267 C1280 0.960 . S
C1268 H1260 0.929 . S
C1268 C1269 1.377 . S
C1268 C1270 1.384 . S
C1269 C1268 1.377 . S
C1269 C1275 1.390 . S
C1270 H1261 0.930 . S
C1270 C1268 1.384 . S
C1270 C1271 1.372 . S
C1271 C1270 1.372 . S
C1271 C1272 1.400 . S
C1271 C1276 1.490 . S
C1272 H1262 0.930 . S
C1272 C1271 1.400 . S
C1272 C1275 1.386 . S
H1273 C1289 0.930 . S
H1274 C1290 0.931 . S
C1275 H1263 0.929 . S
C1275 C1269 1.390 . S
C1275 C1272 1.386 . S
C1276 C1271 1.490 . S
C1276 C1278 1.395 . S
C1276 C1279 1.403 . S
H1277 C1283 0.930 . S
C1278 H1264 0.930 . S
C1278 C1276 1.395 . S
C1278 C1281 1.403 . S
C1279 C1276 1.403 . S
C1279 C1280 1.524 . S
C1279 C1283 1.400 . S
C1280 H1265 0.960 . S
C1280 H1266 0.960 . S
C1280 H1267 0.960 . S
C1280 C1279 1.524 . S
C1281 C1278 1.403 . S
C1281 C1282 1.392 . S
C1281 C1285 1.495 . S
C1282 C1281 1.392 . S
C1282 C1283 1.385 . S
C1282 C1284 1.478 . S
C1283 H1277 0.930 . S
C1283 C1279 1.400 . S
C1283 C1282 1.385 . S
C1284 C1282 1.478 . S
C1284 C1286 1.381 . S
C1284 C1290 1.383 . S
C1285 C1281 1.495 . S
C1285 H1291 0.959 . S
C1285 H1292 0.961 . S
C1285 H1293 0.960 . S
C1286 C1284 1.381 . S
C1286 C1287 1.394 . S
C1286 H1294 0.930 . S
C1287 C1286 1.394 . S
C1287 C1288 1.383 . S
C1287 H1295 0.929 . S
C1288 C1287 1.383 . S
C1288 C1289 1.377 . S
C1289 H1273 0.930 . S
C1289 C1288 1.377 . S
C1289 C1290 1.379 . S
C1290 H1274 0.931 . S
C1290 C1284 1.383 . S
C1290 C1289 1.379 . S
H1291 C1285 0.959 . S
H1292 C1285 0.961 . S
H1293 C1285 0.960 . S
H1294 C1286 0.930 . S
H1295 C1287 0.929 . S
H1296 C1304 0.929 . S
H1297 C1306 0.930 . S
H1298 C1308 0.930 . S
H1299 C1311 0.929 . S
H1300 C1314 0.930 . S
H1301 C1316 0.960 . S
H1302 C1316 0.960 . S
H1303 C1316 0.960 . S
C1304 H1296 0.929 . S
C1304 C1305 1.377 . S
C1304 C1306 1.384 . S
C1305 C1304 1.377 . S
C1305 C1311 1.390 . S
C1306 H1297 0.930 . S
C1306 C1304 1.384 . S
C1306 C1307 1.372 . S
C1307 C1306 1.372 . S
C1307 C1308 1.400 . S
C1307 C1312 1.490 . S
C1308 H1298 0.930 . S
C1308 C1307 1.400 . S
C1308 C1311 1.386 . S
H1309 C1325 0.930 . S
H1310 C1326 0.931 . S
C1311 H1299 0.929 . S
C1311 C1305 1.390 . S
C1311 C1308 1.386 . S
C1312 C1307 1.490 . S
C1312 C1314 1.395 . S
C1312 C1315 1.403 . S
H1313 C1319 0.930 . S
C1314 H1300 0.930 . S
C1314 C1312 1.395 . S
C1314 C1317 1.403 1_545 S
C1315 C1312 1.403 . S
C1315 C1316 1.524 . S
C1315 C1319 1.400 1_545 S
C1316 H1301 0.960 . S
C1316 H1302 0.960 . S
C1316 H1303 0.960 . S
C1316 C1315 1.524 . S
C1317 C1314 1.403 1_565 S
C1317 C1318 1.392 . S
C1317 C1321 1.495 . S
C1318 C1317 1.392 . S
C1318 C1319 1.385 . S
C1318 C1320 1.478 . S
C1319 H1313 0.930 . S
C1319 C1315 1.400 1_565 S
C1319 C1318 1.385 . S
C1320 C1318 1.478 . S
C1320 C1322 1.381 . S
C1320 C1326 1.383 . S
C1321 C1317 1.495 . S
C1321 H1327 0.959 . S
C1321 H1328 0.961 . S
C1321 H1329 0.960 . S
C1322 C1320 1.381 . S
C1322 C1323 1.394 . S
C1322 H1330 0.930 . S
C1323 C1322 1.394 . S
C1323 C1324 1.383 . S
C1323 H1331 0.929 . S
C1324 C1323 1.383 . S
C1324 C1325 1.377 . S
C1325 H1309 0.930 . S
C1325 C1324 1.377 . S
C1325 C1326 1.379 . S
C1326 H1310 0.931 . S
C1326 C1320 1.383 . S
C1326 C1325 1.379 . S
H1327 C1321 0.959 . S
H1328 C1321 0.961 . S
H1329 C1321 0.960 . S
H1330 C1322 0.930 . S
H1331 C1323 0.929 . S
H1332 C1340 0.929 . S
H1333 C1342 0.930 . S
H1334 C1344 0.930 . S
H1335 C1347 0.929 . S
H1336 C1350 0.929 . S
H1337 C1352 0.960 . S
H1338 C1352 0.960 . S
H1339 C1352 0.960 . S
C1340 H1332 0.929 . S
C1340 C1341 1.377 . S
C1340 C1342 1.384 . S
C1341 C1340 1.377 . S
C1341 C1347 1.390 . S
C1342 H1333 0.930 . S
C1342 C1340 1.384 . S
C1342 C1343 1.372 . S
C1343 C1342 1.372 . S
C1343 C1344 1.400 . S
C1343 C1348 1.490 . S
C1344 H1334 0.930 . S
C1344 C1343 1.400 . S
C1344 C1347 1.386 . S
H1345 C1361 0.930 . S
H1346 C1362 0.931 . S
C1347 H1335 0.929 . S
C1347 C1341 1.390 . S
C1347 C1344 1.386 . S
C1348 C1343 1.490 . S
C1348 C1350 1.442 . S
C1348 C1351 1.403 . S
H1349 C1355 0.930 . S
C1350 H1336 0.929 . S
C1350 C1348 1.442 . S
C1350 C1353 1.360 1_455 S
C1351 C1348 1.403 . S
C1351 C1352 1.524 . S
C1351 C1355 1.400 1_455 S
C1352 H1337 0.960 . S
C1352 H1338 0.960 . S
C1352 H1339 0.960 . S
C1352 C1351 1.524 . S
C1353 C1350 1.360 1_655 S
C1353 C1354 1.392 . S
C1353 C1357 1.495 . S
C1354 C1353 1.392 . S
C1354 C1355 1.385 . S
C1354 C1356 1.478 . S
C1355 H1349 0.930 . S
C1355 C1351 1.400 1_655 S
C1355 C1354 1.385 . S
C1356 C1354 1.478 . S
C1356 C1358 1.381 . S
C1356 C1362 1.383 . S
C1357 C1353 1.495 . S
C1357 H1363 0.959 . S
C1357 H1364 0.961 . S
C1357 H1365 0.960 . S
C1358 C1356 1.381 . S
C1358 C1359 1.394 . S
C1358 H1366 0.930 . S
C1359 C1358 1.394 . S
C1359 C1360 1.383 . S
C1359 H1367 0.929 . S
C1360 C1359 1.383 . S
C1360 C1361 1.377 . S
C1361 H1345 0.930 . S
C1361 C1360 1.377 . S
C1361 C1362 1.379 . S
C1362 H1346 0.931 . S
C1362 C1356 1.383 . S
C1362 C1361 1.379 . S
H1363 C1357 0.959 . S
H1364 C1357 0.961 . S
H1365 C1357 0.960 . S
H1366 C1358 0.930 . S
H1367 C1359 0.929 . S
H1368 C1376 0.929 . S
H1369 C1378 0.930 . S
H1370 C1380 0.930 . S
H1371 C1383 0.929 . S
H1372 C1386 0.930 . S
H1373 C1388 0.960 . S
H1374 C1388 0.960 . S
H1375 C1388 0.960 . S
C1376 H1368 0.929 . S
C1376 C1377 1.377 . S
C1376 C1378 1.384 . S
C1377 C1376 1.377 . S
C1377 C1383 1.390 . S
C1378 H1369 0.930 . S
C1378 C1376 1.384 . S
C1378 C1379 1.372 . S
C1379 C1378 1.372 . S
C1379 C1380 1.400 . S
C1379 C1384 1.490 . S
C1380 H1370 0.930 . S
C1380 C1379 1.400 . S
C1380 C1383 1.386 . S
H1381 C1397 0.930 . S
H1382 C1398 0.931 . S
C1383 H1371 0.929 . S
C1383 C1377 1.390 . S
C1383 C1380 1.386 . S
C1384 C1379 1.490 . S
C1384 C1386 1.395 . S
C1384 C1387 1.403 . S
H1385 C1391 0.930 . S
C1386 H1372 0.930 . S
C1386 C1384 1.395 . S
C1386 C1389 1.403 . S
C1387 C1384 1.403 . S
C1387 C1388 1.524 . S
C1387 C1391 1.400 . S
C1388 H1373 0.960 . S
C1388 H1374 0.960 . S
C1388 H1375 0.960 . S
C1388 C1387 1.524 . S
C1389 C1386 1.403 . S
C1389 C1390 1.392 . S
C1389 C1393 1.495 . S
C1390 C1389 1.392 . S
C1390 C1391 1.385 . S
C1390 C1392 1.478 . S
C1391 H1385 0.930 . S
C1391 C1387 1.400 . S
C1391 C1390 1.385 . S
C1392 C1390 1.478 . S
C1392 C1394 1.381 . S
C1392 C1398 1.383 . S
C1393 C1389 1.495 . S
C1393 H1399 0.959 . S
C1393 H1400 0.961 . S
C1393 H1401 0.960 . S
C1394 C1392 1.381 . S
C1394 C1395 1.394 . S
C1394 H1402 0.930 . S
C1395 C1394 1.394 . S
C1395 C1396 1.383 . S
C1395 H1403 0.929 . S
C1396 C1395 1.383 . S
C1396 C1397 1.377 . S
C1397 H1381 0.930 . S
C1397 C1396 1.377 . S
C1397 C1398 1.379 . S
C1398 H1382 0.931 . S
C1398 C1392 1.383 . S
C1398 C1397 1.379 . S
H1399 C1393 0.959 . S
H1400 C1393 0.961 . S
H1401 C1393 0.960 . S
H1402 C1394 0.930 . S
H1403 C1395 0.929 . S
H1404 C1412 0.929 . S
H1405 C1414 0.930 . S
H1406 C1416 0.930 . S
H1407 C1419 0.929 . S
H1408 C1422 0.930 . S
H1409 C1424 0.960 . S
H1410 C1424 0.960 . S
H1411 C1424 0.960 . S
C1412 H1404 0.929 . S
C1412 C1413 1.377 . S
C1412 C1414 1.384 . S
C1413 C1412 1.377 . S
C1413 C1419 1.390 . S
C1414 H1405 0.930 . S
C1414 C1412 1.384 . S
C1414 C1415 1.372 . S
C1415 C1414 1.372 . S
C1415 C1416 1.400 . S
C1415 C1420 1.490 . S
C1416 H1406 0.930 . S
C1416 C1415 1.400 . S
C1416 C1419 1.386 . S
H1417 C1433 0.930 . S
H1418 C1434 0.931 . S
C1419 H1407 0.929 . S
C1419 C1413 1.390 . S
C1419 C1416 1.386 . S
C1420 C1415 1.490 . S
C1420 C1422 1.395 . S
C1420 C1423 1.403 . S
H1421 C1427 0.930 . S
C1422 H1408 0.930 . S
C1422 C1420 1.395 . S
C1422 C1425 1.403 1_545 S
C1423 C1420 1.403 . S
C1423 C1424 1.524 . S
C1423 C1427 1.400 1_545 S
C1424 H1409 0.960 . S
C1424 H1410 0.960 . S
C1424 H1411 0.960 . S
C1424 C1423 1.524 . S
C1425 C1422 1.403 1_565 S
C1425 C1426 1.392 . S
C1425 C1429 1.495 . S
C1426 C1425 1.392 . S
C1426 C1427 1.385 . S
C1426 C1428 1.478 . S
C1427 H1421 0.930 . S
C1427 C1423 1.400 1_565 S
C1427 C1426 1.385 . S
C1428 C1426 1.478 . S
C1428 C1430 1.381 . S
C1428 C1434 1.383 . S
C1429 C1425 1.495 . S
C1429 H1435 0.959 . S
C1429 H1436 0.961 . S
C1429 H1437 0.960 . S
C1430 C1428 1.381 . S
C1430 C1431 1.394 . S
C1430 H1438 0.930 . S
C1431 C1430 1.394 . S
C1431 C1432 1.383 . S
C1431 H1439 0.929 . S
C1432 C1431 1.383 . S
C1432 C1433 1.377 . S
C1433 H1417 0.930 . S
C1433 C1432 1.377 . S
C1433 C1434 1.379 . S
C1434 H1418 0.931 . S
C1434 C1428 1.383 . S
C1434 C1433 1.379 . S
H1435 C1429 0.959 . S
H1436 C1429 0.961 . S
H1437 C1429 0.960 . S
H1438 C1430 0.930 . S
H1439 C1431 0.929 . S
H1440 C1448 0.929 . S
H1441 C1450 0.930 . S
H1442 C1452 0.930 . S
H1443 C1455 0.929 . S
H1444 C1458 0.930 . S
H1445 C1460 0.960 . S
H1446 C1460 0.960 . S
H1447 C1460 0.960 . S
C1448 H1440 0.929 . S
C1448 C1449 1.377 . S
C1448 C1450 1.384 . S
C1449 C1448 1.377 . S
C1449 C1455 1.390 . S
C1450 H1441 0.930 . S
C1450 C1448 1.384 . S
C1450 C1451 1.372 . S
C1451 C1450 1.372 . S
C1451 C1452 1.400 . S
C1451 C1456 1.490 . S
C1452 H1442 0.930 . S
C1452 C1451 1.400 . S
C1452 C1455 1.386 . S
H1453 C1469 0.930 . S
H1454 C1470 0.931 . S
C1455 H1443 0.929 . S
C1455 C1449 1.390 . S
C1455 C1452 1.386 . S
C1456 C1451 1.490 . S
C1456 C1458 1.395 . S
C1456 C1459 1.403 . S
H1457 C1463 0.930 . S
C1458 H1444 0.930 . S
C1458 C1456 1.395 . S
C1458 C1461 1.403 . S
C1459 C1456 1.403 . S
C1459 C1460 1.524 . S
C1459 C1463 1.400 . S
C1460 H1445 0.960 . S
C1460 H1446 0.960 . S
C1460 H1447 0.960 . S
C1460 C1459 1.524 . S
C1461 C1458 1.403 . S
C1461 C1462 1.392 . S
C1461 C1465 1.495 . S
C1462 C1461 1.392 . S
C1462 C1463 1.385 . S
C1462 C1464 1.478 . S
C1463 H1457 0.930 . S
C1463 C1459 1.400 . S
C1463 C1462 1.385 . S
C1464 C1462 1.478 . S
C1464 C1466 1.381 . S
C1464 C1470 1.383 . S
C1465 C1461 1.495 . S
C1465 H1471 0.959 . S
C1465 H1472 0.961 . S
C1465 H1473 0.960 . S
C1466 C1464 1.381 . S
C1466 C1467 1.394 . S
C1466 H1474 0.930 . S
C1467 C1466 1.394 . S
C1467 C1468 1.383 . S
C1467 H1475 0.929 . S
C1468 C1467 1.383 . S
C1468 C1469 1.377 . S
C1469 H1453 0.930 . S
C1469 C1468 1.377 . S
C1469 C1470 1.379 . S
C1470 H1454 0.931 . S
C1470 C1464 1.383 . S
C1470 C1469 1.379 . S
H1471 C1465 0.959 . S
H1472 C1465 0.961 . S
H1473 C1465 0.960 . S
H1474 C1466 0.930 . S
H1475 C1467 0.929 . S
H1476 C1484 0.929 . S
H1477 C1486 0.930 . S
H1478 C1488 0.930 . S
H1479 C1491 0.929 . S
H1480 C1494 0.930 . S
H1481 C1496 0.960 . S
H1482 C1496 0.960 . S
H1483 C1496 0.960 . S
C1484 H1476 0.929 . S
C1484 C1485 1.377 . S
C1484 C1486 1.384 . S
C1485 C1484 1.377 . S
C1485 C1491 1.390 . S
C1486 H1477 0.930 . S
C1486 C1484 1.384 . S
C1486 C1487 1.372 . S
C1487 C1486 1.372 . S
C1487 C1488 1.400 . S
C1487 C1492 1.490 . S
C1488 H1478 0.930 . S
C1488 C1487 1.400 . S
C1488 C1491 1.386 . S
H1489 C1505 0.930 . S
H1490 C1506 0.931 . S
C1491 H1479 0.929 . S
C1491 C1485 1.390 . S
C1491 C1488 1.386 . S
C1492 C1487 1.490 . S
C1492 C1494 1.395 . S
C1492 C1495 1.403 . S
H1493 C1499 0.930 . S
C1494 H1480 0.930 . S
C1494 C1492 1.395 . S
C1494 C1497 1.403 . S
C1495 C1492 1.403 . S
C1495 C1496 1.524 . S
C1495 C1499 1.400 . S
C1496 H1481 0.960 . S
C1496 H1482 0.960 . S
C1496 H1483 0.960 . S
C1496 C1495 1.524 . S
C1497 C1494 1.403 . S
C1497 C1498 1.392 . S
C1497 C1501 1.495 . S
C1498 C1497 1.392 . S
C1498 C1499 1.385 . S
C1498 C1500 1.478 . S
C1499 H1493 0.930 . S
C1499 C1495 1.400 . S
C1499 C1498 1.385 . S
C1500 C1498 1.478 . S
C1500 C1502 1.381 . S
C1500 C1506 1.383 . S
C1501 C1497 1.495 . S
C1501 H1507 0.959 . S
C1501 H1508 0.961 . S
C1501 H1509 0.960 . S
C1502 C1500 1.381 . S
C1502 C1503 1.394 . S
C1502 H1510 0.930 . S
C1503 C1502 1.394 . S
C1503 C1504 1.383 . S
C1503 H1511 0.929 . S
C1504 C1503 1.383 . S
C1504 C1505 1.377 . S
C1505 H1489 0.930 . S
C1505 C1504 1.377 . S
C1505 C1506 1.379 . S
C1506 H1490 0.931 . S
C1506 C1500 1.383 . S
C1506 C1505 1.379 . S
H1507 C1501 0.959 . S
H1508 C1501 0.961 . S
H1509 C1501 0.960 . S
H1510 C1502 0.930 . S
H1511 C1503 0.929 . S
H1512 C1520 0.929 . S
H1513 C1522 0.930 . S
H1514 C1524 0.930 . S
H1515 C1527 0.929 . S
H1516 C1530 0.930 . S
H1517 C1532 0.960 . S
H1518 C1532 0.960 . S
H1519 C1532 0.960 . S
C1520 H1512 0.929 . S
C1520 C1521 1.377 . S
C1520 C1522 1.384 . S
C1521 C1520 1.377 . S
C1521 C1527 1.390 . S
C1522 H1513 0.930 . S
C1522 C1520 1.384 . S
C1522 C1523 1.372 . S
C1523 C1522 1.372 . S
C1523 C1524 1.400 . S
C1523 C1528 1.490 . S
C1524 H1514 0.930 . S
C1524 C1523 1.400 . S
C1524 C1527 1.386 . S
H1525 C1541 0.930 . S
H1526 C1542 0.931 . S
C1527 H1515 0.929 . S
C1527 C1521 1.390 . S
C1527 C1524 1.386 . S
C1528 C1523 1.490 . S
C1528 C1530 1.395 . S
C1528 C1531 1.403 . S
H1529 C1535 0.930 . S
C1530 H1516 0.930 . S
C1530 C1528 1.395 . S
C1530 C1533 1.403 . S
C1531 C1528 1.403 . S
C1531 C1532 1.524 . S
C1531 C1535 1.400 . S
C1532 H1517 0.960 . S
C1532 H1518 0.960 . S
C1532 H1519 0.960 . S
C1532 C1531 1.524 . S
C1533 C1530 1.403 . S
C1533 C1534 1.392 . S
C1533 C1537 1.495 . S
C1534 C1533 1.392 . S
C1534 C1535 1.385 . S
C1534 C1536 1.478 . S
C1535 H1529 0.930 . S
C1535 C1531 1.400 . S
C1535 C1534 1.385 . S
C1536 C1534 1.478 . S
C1536 C1538 1.381 . S
C1536 C1542 1.383 . S
C1537 C1533 1.495 . S
C1537 H1543 0.959 . S
C1537 H1544 0.961 . S
C1537 H1545 0.960 . S
C1538 C1536 1.381 . S
C1538 C1539 1.394 . S
C1538 H1546 0.930 . S
C1539 C1538 1.394 . S
C1539 C1540 1.383 . S
C1539 H1547 0.929 . S
C1540 C1539 1.383 . S
C1540 C1541 1.377 . S
C1541 H1525 0.930 . S
C1541 C1540 1.377 . S
C1541 C1542 1.379 . S
C1542 H1526 0.931 . S
C1542 C1536 1.383 . S
C1542 C1541 1.379 . S
H1543 C1537 0.959 . S
H1544 C1537 0.961 . S
H1545 C1537 0.960 . S
H1546 C1538 0.930 . S
H1547 C1539 0.929 . S
H1548 C1556 0.929 . S
H1549 C1558 0.930 . S
H1550 C1560 0.930 . S
H1551 C1563 0.929 . S
H1552 C1566 0.930 . S
H1553 C1568 0.960 . S
H1554 C1568 0.960 . S
H1555 C1568 0.960 . S
C1556 H1548 0.929 . S
C1556 C1557 1.377 . S
C1556 C1558 1.384 . S
C1557 C1556 1.377 . S
C1557 C1563 1.390 . S
C1558 H1549 0.930 . S
C1558 C1556 1.384 . S
C1558 C1559 1.372 . S
C1559 C1558 1.372 . S
C1559 C1560 1.400 . S
C1559 C1564 1.490 . S
C1560 H1550 0.930 . S
C1560 C1559 1.400 . S
C1560 C1563 1.386 . S
H1561 C1577 0.930 . S
H1562 C1578 0.931 . S
C1563 H1551 0.929 . S
C1563 C1557 1.390 . S
C1563 C1560 1.386 . S
C1564 C1559 1.490 . S
C1564 C1566 1.395 . S
C1564 C1567 1.403 . S
H1565 C1571 0.930 . S
C1566 H1552 0.930 . S
C1566 C1564 1.395 . S
C1566 C1569 1.403 . S
C1567 C1564 1.403 . S
C1567 C1568 1.524 . S
C1567 C1571 1.400 . S
C1568 H1553 0.960 . S
C1568 H1554 0.960 . S
C1568 H1555 0.960 . S
C1568 C1567 1.524 . S
C1569 C1566 1.403 . S
C1569 C1570 1.392 . S
C1569 C1573 1.495 . S
C1570 C1569 1.392 . S
C1570 C1571 1.385 . S
C1570 C1572 1.478 . S
C1571 H1565 0.930 . S
C1571 C1567 1.400 . S
C1571 C1570 1.385 . S
C1572 C1570 1.478 . S
C1572 C1574 1.381 . S
C1572 C1578 1.383 . S
C1573 C1569 1.495 . S
C1573 H1579 0.959 . S
C1573 H1580 0.961 . S
C1573 H1581 0.960 . S
C1574 C1572 1.381 . S
C1574 C1575 1.394 . S
C1574 H1582 0.930 . S
C1575 C1574 1.394 . S
C1575 C1576 1.383 . S
C1575 H1583 0.929 . S
C1576 C1575 1.383 . S
C1576 C1577 1.377 . S
C1577 H1561 0.930 . S
C1577 C1576 1.377 . S
C1577 C1578 1.379 . S
C1578 H1562 0.931 . S
C1578 C1572 1.383 . S
C1578 C1577 1.379 . S
H1579 C1573 0.959 . S
H1580 C1573 0.961 . S
H1581 C1573 0.960 . S
H1582 C1574 0.930 . S
H1583 C1575 0.929 . S
H1584 C1592 0.929 . S
H1585 C1594 0.930 . S
H1586 C1596 0.930 . S
H1587 C1599 0.929 . S
H1588 C1602 0.930 . S
H1589 C1604 0.960 . S
H1590 C1604 0.960 . S
H1591 C1604 0.960 . S
C1592 H1584 0.929 . S
C1592 C1593 1.377 . S
C1592 C1594 1.384 . S
C1593 C1592 1.377 . S
C1593 C1599 1.390 . S
C1594 H1585 0.930 . S
C1594 C1592 1.384 . S
C1594 C1595 1.372 . S
C1595 C1594 1.372 . S
C1595 C1596 1.400 . S
C1595 C1600 1.490 . S
C1596 H1586 0.930 . S
C1596 C1595 1.400 . S
C1596 C1599 1.386 . S
H1597 C1613 0.930 . S
H1598 C1614 0.931 . S
C1599 H1587 0.929 . S
C1599 C1593 1.390 . S
C1599 C1596 1.386 . S
C1600 C1595 1.490 . S
C1600 C1602 1.395 . S
C1600 C1603 1.403 . S
H1601 C1607 0.930 . S
C1602 H1588 0.930 . S
C1602 C1600 1.395 . S
C1602 C1605 1.403 . S
C1603 C1600 1.403 . S
C1603 C1604 1.524 . S
C1603 C1607 1.400 . S
C1604 H1589 0.960 . S
C1604 H1590 0.960 . S
C1604 H1591 0.960 . S
C1604 C1603 1.524 . S
C1605 C1602 1.403 . S
C1605 C1606 1.392 . S
C1605 C1609 1.495 . S
C1606 C1605 1.392 . S
C1606 C1607 1.385 . S
C1606 C1608 1.478 . S
C1607 H1601 0.930 . S
C1607 C1603 1.400 . S
C1607 C1606 1.385 . S
C1608 C1606 1.478 . S
C1608 C1610 1.381 . S
C1608 C1614 1.383 . S
C1609 C1605 1.495 . S
C1609 H1615 0.959 . S
C1609 H1616 0.961 . S
C1609 H1617 0.960 . S
C1610 C1608 1.381 . S
C1610 C1611 1.394 . S
C1610 H1618 0.930 . S
C1611 C1610 1.394 . S
C1611 C1612 1.383 . S
C1611 H1619 0.929 . S
C1612 C1611 1.383 . S
C1612 C1613 1.377 . S
C1613 H1597 0.930 . S
C1613 C1612 1.377 . S
C1613 C1614 1.379 . S
C1614 H1598 0.931 . S
C1614 C1608 1.383 . S
C1614 C1613 1.379 . S
H1615 C1609 0.959 . S
H1616 C1609 0.961 . S
H1617 C1609 0.960 . S
H1618 C1610 0.930 . S
H1619 C1611 0.929 . S
H1620 C1628 0.929 . S
H1621 C1630 0.930 . S
H1622 C1632 0.930 . S
H1623 C1635 0.929 . S
H1624 C1638 0.930 . S
H1625 C1640 0.960 . S
H1626 C1640 0.960 . S
H1627 C1640 0.960 . S
C1628 H1620 0.929 . S
C1628 C1629 1.377 . S
C1628 C1630 1.384 . S
C1629 C1628 1.377 . S
C1629 C1635 1.390 . S
C1630 H1621 0.930 . S
C1630 C1628 1.384 . S
C1630 C1631 1.372 . S
C1631 C1630 1.372 . S
C1631 C1632 1.400 . S
C1631 C1636 1.490 . S
C1632 H1622 0.930 . S
C1632 C1631 1.400 . S
C1632 C1635 1.386 . S
H1633 C1649 0.930 . S
H1634 C1650 0.931 . S
C1635 H1623 0.929 . S
C1635 C1629 1.390 . S
C1635 C1632 1.386 . S
C1636 C1631 1.490 . S
C1636 C1638 1.395 . S
C1636 C1639 1.403 . S
H1637 C1643 0.930 . S
C1638 H1624 0.930 . S
C1638 C1636 1.395 . S
C1638 C1641 1.403 . S
C1639 C1636 1.403 . S
C1639 C1640 1.524 . S
C1639 C1643 1.400 . S
C1640 H1625 0.960 . S
C1640 H1626 0.960 . S
C1640 H1627 0.960 . S
C1640 C1639 1.524 . S
C1641 C1638 1.403 . S
C1641 C1642 1.392 . S
C1641 C1645 1.495 . S
C1642 C1641 1.392 . S
C1642 C1643 1.385 . S
C1642 C1644 1.478 . S
C1643 H1637 0.930 . S
C1643 C1639 1.400 . S
C1643 C1642 1.385 . S
C1644 C1642 1.478 . S
C1644 C1646 1.381 . S
C1644 C1650 1.383 . S
C1645 C1641 1.495 . S
C1645 H1651 0.959 . S
C1645 H1652 0.961 . S
C1645 H1653 0.960 . S
C1646 C1644 1.381 . S
C1646 C1647 1.394 . S
C1646 H1654 0.930 . S
C1647 C1646 1.394 . S
C1647 C1648 1.383 . S
C1647 H1655 0.929 . S
C1648 C1647 1.383 . S
C1648 C1649 1.377 . S
C1649 H1633 0.930 . S
C1649 C1648 1.377 . S
C1649 C1650 1.379 . S
C1650 H1634 0.931 . S
C1650 C1644 1.383 . S
C1650 C1649 1.379 . S
H1651 C1645 0.959 . S
H1652 C1645 0.961 . S
H1653 C1645 0.960 . S
H1654 C1646 0.930 . S
H1655 C1647 0.929 . S
H1656 C1664 0.929 . S
H1657 C1666 0.930 . S
H1658 C1668 0.930 . S
H1659 C1671 0.929 . S
H1660 C1674 0.930 . S
H1661 C1676 0.960 . S
H1662 C1676 0.960 . S
H1663 C1676 0.960 . S
C1664 H1656 0.929 . S
C1664 C1665 1.377 . S
C1664 C1666 1.384 . S
C1665 C1664 1.377 . S
C1665 C1671 1.390 . S
C1666 H1657 0.930 . S
C1666 C1664 1.384 . S
C1666 C1667 1.372 . S
C1667 C1666 1.372 . S
C1667 C1668 1.400 . S
C1667 C1672 1.490 . S
C1668 H1658 0.930 . S
C1668 C1667 1.400 . S
C1668 C1671 1.386 . S
H1669 C1685 0.930 . S
H1670 C1686 0.931 . S
C1671 H1659 0.929 . S
C1671 C1665 1.390 . S
C1671 C1668 1.386 . S
C1672 C1667 1.490 . S
C1672 C1674 1.395 . S
C1672 C1675 1.403 . S
H1673 C1679 0.930 . S
C1674 H1660 0.930 . S
C1674 C1672 1.395 . S
C1674 C1677 1.403 . S
C1675 C1672 1.403 . S
C1675 C1676 1.524 . S
C1675 C1679 1.400 . S
C1676 H1661 0.960 . S
C1676 H1662 0.960 . S
C1676 H1663 0.960 . S
C1676 C1675 1.524 . S
C1677 C1674 1.403 . S
C1677 C1678 1.392 . S
C1677 C1681 1.495 . S
C1678 C1677 1.392 . S
C1678 C1679 1.385 . S
C1678 C1680 1.478 . S
C1679 H1673 0.930 . S
C1679 C1675 1.400 . S
C1679 C1678 1.385 . S
C1680 C1678 1.478 . S
C1680 C1682 1.381 . S
C1680 C1686 1.383 . S
C1681 C1677 1.495 . S
C1681 H1687 0.959 . S
C1681 H1688 0.961 . S
C1681 H1689 0.960 . S
C1682 C1680 1.381 . S
C1682 C1683 1.394 . S
C1682 H1690 0.930 . S
C1683 C1682 1.394 . S
C1683 C1684 1.383 . S
C1683 H1691 0.929 . S
C1684 C1683 1.383 . S
C1684 C1685 1.377 . S
C1685 H1669 0.930 . S
C1685 C1684 1.377 . S
C1685 C1686 1.379 . S
C1686 H1670 0.931 . S
C1686 C1680 1.383 . S
C1686 C1685 1.379 . S
H1687 C1681 0.959 . S
H1688 C1681 0.961 . S
H1689 C1681 0.960 . S
H1690 C1682 0.930 . S
H1691 C1683 0.929 . S
H1692 C1700 0.929 . S
H1693 C1702 0.930 . S
H1694 C1704 0.930 . S
H1695 C1707 0.929 . S
H1696 C1710 0.930 . S
H1697 C1712 0.960 . S
H1698 C1712 0.960 . S
H1699 C1712 0.960 . S
C1700 H1692 0.929 . S
C1700 C1701 1.377 . S
C1700 C1702 1.384 . S
C1701 C1700 1.377 . S
C1701 C1707 1.390 . S
C1702 H1693 0.930 . S
C1702 C1700 1.384 . S
C1702 C1703 1.372 . S
C1703 C1702 1.372 . S
C1703 C1704 1.400 . S
C1703 C1708 1.490 . S
C1704 H1694 0.930 . S
C1704 C1703 1.400 . S
C1704 C1707 1.386 . S
H1705 C1721 0.930 . S
H1706 C1722 0.931 . S
C1707 H1695 0.929 . S
C1707 C1701 1.390 . S
C1707 C1704 1.386 . S
C1708 C1703 1.490 . S
C1708 C1710 1.395 . S
C1708 C1711 1.403 . S
H1709 C1715 0.930 . S
C1710 H1696 0.930 . S
C1710 C1708 1.395 . S
C1710 C1713 1.403 . S
C1711 C1708 1.403 . S
C1711 C1712 1.524 . S
C1711 C1715 1.400 . S
C1712 H1697 0.960 . S
C1712 H1698 0.960 . S
C1712 H1699 0.960 . S
C1712 C1711 1.524 . S
C1713 C1710 1.403 . S
C1713 C1714 1.392 . S
C1713 C1717 1.495 . S
C1714 C1713 1.392 . S
C1714 C1715 1.385 . S
C1714 C1716 1.478 . S
C1715 H1709 0.930 . S
C1715 C1711 1.400 . S
C1715 C1714 1.385 . S
C1716 C1714 1.478 . S
C1716 C1718 1.381 . S
C1716 C1722 1.383 . S
C1717 C1713 1.495 . S
C1717 H1723 0.959 . S
C1717 H1724 0.961 . S
C1717 H1725 0.960 . S
C1718 C1716 1.381 . S
C1718 C1719 1.394 . S
C1718 H1726 0.930 . S
C1719 C1718 1.394 . S
C1719 C1720 1.383 . S
C1719 H1727 0.929 . S
C1720 C1719 1.383 . S
C1720 C1721 1.377 . S
C1721 H1705 0.930 . S
C1721 C1720 1.377 . S
C1721 C1722 1.379 . S
C1722 H1706 0.931 . S
C1722 C1716 1.383 . S
C1722 C1721 1.379 . S
H1723 C1717 0.959 . S
H1724 C1717 0.961 . S
H1725 C1717 0.960 . S
H1726 C1718 0.930 . S
H1727 C1719 0.929 . S
H1728 C1736 0.929 . S
H1729 C1738 0.930 . S
H1730 C1740 0.930 . S
H1731 C1743 0.929 . S
H1732 C1746 0.930 . S
H1733 C1748 0.960 . S
H1734 C1748 0.960 . S
H1735 C1748 0.960 . S
C1736 H1728 0.929 . S
C1736 C1737 1.377 . S
C1736 C1738 1.384 . S
C1737 C1736 1.377 . S
C1737 C1743 1.390 . S
C1738 H1729 0.930 . S
C1738 C1736 1.384 . S
C1738 C1739 1.372 . S
C1739 C1738 1.372 . S
C1739 C1740 1.400 . S
C1739 C1744 1.490 . S
C1740 H1730 0.930 . S
C1740 C1739 1.400 . S
C1740 C1743 1.386 . S
H1741 C1757 0.930 . S
H1742 C1758 0.931 . S
C1743 H1731 0.929 . S
C1743 C1737 1.390 . S
C1743 C1740 1.386 . S
C1744 C1739 1.490 . S
C1744 C1746 1.395 . S
C1744 C1747 1.403 . S
H1745 C1751 0.930 . S
C1746 H1732 0.930 . S
C1746 C1744 1.395 . S
C1746 C1749 1.403 . S
C1747 C1744 1.403 . S
C1747 C1748 1.524 . S
C1747 C1751 1.400 . S
C1748 H1733 0.960 . S
C1748 H1734 0.960 . S
C1748 H1735 0.960 . S
C1748 C1747 1.524 . S
C1749 C1746 1.403 . S
C1749 C1750 1.392 . S
C1749 C1753 1.495 . S
C1750 C1749 1.392 . S
C1750 C1751 1.385 . S
C1750 C1752 1.478 . S
C1751 H1745 0.930 . S
C1751 C1747 1.400 . S
C1751 C1750 1.385 . S
C1752 C1750 1.478 . S
C1752 C1754 1.381 . S
C1752 C1758 1.383 . S
C1753 C1749 1.495 . S
C1753 H1759 0.959 . S
C1753 H1760 0.961 . S
C1753 H1761 0.960 . S
C1754 C1752 1.381 . S
C1754 C1755 1.394 . S
C1754 H1762 0.930 . S
C1755 C1754 1.394 . S
C1755 C1756 1.383 . S
C1755 H1763 0.929 . S
C1756 C1755 1.383 . S
C1756 C1757 1.377 . S
C1757 H1741 0.930 . S
C1757 C1756 1.377 . S
C1757 C1758 1.379 . S
C1758 H1742 0.931 . S
C1758 C1752 1.383 . S
C1758 C1757 1.379 . S
H1759 C1753 0.959 . S
H1760 C1753 0.961 . S
H1761 C1753 0.960 . S
H1762 C1754 0.930 . S
H1763 C1755 0.929 . S
H1764 C1772 0.929 . S
H1765 C1774 0.930 . S
H1766 C1776 0.930 . S
H1767 C1779 0.929 . S
H1768 C1782 0.930 . S
H1769 C1784 0.960 . S
H1770 C1784 0.960 . S
H1771 C1784 0.960 . S
C1772 H1764 0.929 . S
C1772 C1773 1.377 . S
C1772 C1774 1.384 . S
C1773 C1772 1.377 . S
C1773 C1779 1.390 . S
C1774 H1765 0.930 . S
C1774 C1772 1.384 . S
C1774 C1775 1.372 . S
C1775 C1774 1.372 . S
C1775 C1776 1.400 . S
C1775 C1780 1.490 . S
C1776 H1766 0.930 . S
C1776 C1775 1.400 . S
C1776 C1779 1.386 . S
H1777 C1793 0.930 . S
H1778 C1794 0.931 . S
C1779 H1767 0.929 . S
C1779 C1773 1.390 . S
C1779 C1776 1.386 . S
C1780 C1775 1.490 . S
C1780 C1782 1.395 . S
C1780 C1783 1.403 . S
H1781 C1787 0.930 . S
C1782 H1768 0.930 . S
C1782 C1780 1.395 . S
C1782 C1785 1.403 . S
C1783 C1780 1.403 . S
C1783 C1784 1.524 . S
C1783 C1787 1.400 . S
C1784 H1769 0.960 . S
C1784 H1770 0.960 . S
C1784 H1771 0.960 . S
C1784 C1783 1.524 . S
C1785 C1782 1.403 . S
C1785 C1786 1.392 . S
C1785 C1789 1.495 . S
C1786 C1785 1.392 . S
C1786 C1787 1.385 . S
C1786 C1788 1.478 . S
C1787 H1781 0.930 . S
C1787 C1783 1.400 . S
C1787 C1786 1.385 . S
C1788 C1786 1.478 . S
C1788 C1790 1.381 . S
C1788 C1794 1.383 . S
C1789 C1785 1.495 . S
C1789 H1795 0.959 . S
C1789 H1796 0.961 . S
C1789 H1797 0.960 . S
C1790 C1788 1.381 . S
C1790 C1791 1.394 . S
C1790 H1798 0.930 . S
C1791 C1790 1.394 . S
C1791 C1792 1.383 . S
C1791 H1799 0.929 . S
C1792 C1791 1.383 . S
C1792 C1793 1.377 . S
C1793 H1777 0.930 . S
C1793 C1792 1.377 . S
C1793 C1794 1.379 . S
C1794 H1778 0.931 . S
C1794 C1788 1.383 . S
C1794 C1793 1.379 . S
H1795 C1789 0.959 . S
H1796 C1789 0.961 . S
H1797 C1789 0.960 . S
H1798 C1790 0.930 . S
H1799 C1791 0.929 . S
H1800 C1808 0.929 . S
H1801 C1810 0.930 . S
H1802 C1812 0.930 . S
H1803 C1815 0.929 . S
H1804 C1818 0.930 . S
H1805 C1820 0.960 . S
H1806 C1820 0.960 . S
H1807 C1820 0.960 . S
C1808 H1800 0.929 . S
C1808 C1809 1.377 . S
C1808 C1810 1.384 . S
C1809 C1808 1.377 . S
C1809 C1815 1.390 . S
C1810 H1801 0.930 . S
C1810 C1808 1.384 . S
C1810 C1811 1.372 . S
C1811 C1810 1.372 . S
C1811 C1812 1.400 . S
C1811 C1816 1.490 . S
C1812 H1802 0.930 . S
C1812 C1811 1.400 . S
C1812 C1815 1.386 . S
H1813 C1829 0.930 . S
H1814 C1830 0.931 . S
C1815 H1803 0.929 . S
C1815 C1809 1.390 . S
C1815 C1812 1.386 . S
C1816 C1811 1.490 . S
C1816 C1818 1.395 . S
C1816 C1819 1.403 . S
H1817 C1823 0.930 . S
C1818 H1804 0.930 . S
C1818 C1816 1.395 . S
C1818 C1821 1.403 . S
C1819 C1816 1.403 . S
C1819 C1820 1.524 . S
C1819 C1823 1.400 . S
C1820 H1805 0.960 . S
C1820 H1806 0.960 . S
C1820 H1807 0.960 . S
C1820 C1819 1.524 . S
C1821 C1818 1.403 . S
C1821 C1822 1.392 . S
C1821 C1825 1.495 . S
C1822 C1821 1.392 . S
C1822 C1823 1.385 . S
C1822 C1824 1.478 . S
C1823 H1817 0.930 . S
C1823 C1819 1.400 . S
C1823 C1822 1.385 . S
C1824 C1822 1.478 . S
C1824 C1826 1.381 . S
C1824 C1830 1.383 . S
C1825 C1821 1.495 . S
C1825 H1831 0.959 . S
C1825 H1832 0.961 . S
C1825 H1833 0.960 . S
C1826 C1824 1.381 . S
C1826 C1827 1.394 . S
C1826 H1834 0.930 . S
C1827 C1826 1.394 . S
C1827 C1828 1.383 . S
C1827 H1835 0.929 . S
C1828 C1827 1.383 . S
C1828 C1829 1.377 . S
C1829 H1813 0.930 . S
C1829 C1828 1.377 . S
C1829 C1830 1.379 . S
C1830 H1814 0.931 . S
C1830 C1824 1.383 . S
C1830 C1829 1.379 . S
H1831 C1825 0.959 . S
H1832 C1825 0.961 . S
H1833 C1825 0.960 . S
H1834 C1826 0.930 . S
H1835 C1827 0.929 . S
H1836 C1844 0.929 . S
H1837 C1846 0.930 . S
H1838 C1848 0.930 . S
H1839 C1851 0.929 . S
H1840 C1854 0.930 . S
H1841 C1856 0.960 . S
H1842 C1856 0.960 . S
H1843 C1856 0.960 . S
C1844 H1836 0.929 . S
C1844 C1845 1.377 . S
C1844 C1846 1.384 . S
C1845 C1844 1.377 . S
C1845 C1851 1.390 . S
C1846 H1837 0.930 . S
C1846 C1844 1.384 . S
C1846 C1847 1.372 . S
C1847 C1846 1.372 . S
C1847 C1848 1.400 . S
C1847 C1852 1.490 . S
C1848 H1838 0.930 . S
C1848 C1847 1.400 . S
C1848 C1851 1.386 . S
H1849 C1865 0.930 . S
H1850 C1866 0.931 . S
C1851 H1839 0.929 . S
C1851 C1845 1.390 . S
C1851 C1848 1.386 . S
C1852 C1847 1.490 . S
C1852 C1854 1.395 . S
C1852 C1855 1.403 . S
H1853 C1859 0.930 . S
C1854 H1840 0.930 . S
C1854 C1852 1.395 . S
C1854 C1857 1.403 . S
C1855 C1852 1.403 . S
C1855 C1856 1.524 . S
C1855 C1859 1.400 . S
C1856 H1841 0.960 . S
C1856 H1842 0.960 . S
C1856 H1843 0.960 . S
C1856 C1855 1.524 . S
C1857 C1854 1.403 . S
C1857 C1858 1.392 . S
C1857 C1861 1.495 . S
C1858 C1857 1.392 . S
C1858 C1859 1.385 . S
C1858 C1860 1.478 . S
C1859 H1853 0.930 . S
C1859 C1855 1.400 . S
C1859 C1858 1.385 . S
C1860 C1858 1.478 . S
C1860 C1862 1.381 . S
C1860 C1866 1.383 . S
C1861 C1857 1.495 . S
C1861 H1867 0.959 . S
C1861 H1868 0.961 . S
C1861 H1869 0.960 . S
C1862 C1860 1.381 . S
C1862 C1863 1.394 . S
C1862 H1870 0.930 . S
C1863 C1862 1.394 . S
C1863 C1864 1.383 . S
C1863 H1871 0.929 . S
C1864 C1863 1.383 . S
C1864 C1865 1.377 . S
C1865 H1849 0.930 . S
C1865 C1864 1.377 . S
C1865 C1866 1.379 . S
C1866 H1850 0.931 . S
C1866 C1860 1.383 . S
C1866 C1865 1.379 . S
H1867 C1861 0.959 . S
H1868 C1861 0.961 . S
H1869 C1861 0.960 . S
H1870 C1862 0.930 . S
H1871 C1863 0.929 . S
H1872 C1880 0.929 . S
H1873 C1882 0.930 . S
H1874 C1884 0.930 . S
H1875 C1887 0.929 . S
H1876 C1890 0.930 1_556 S
H1877 C1892 0.960 . S
H1878 C1892 0.960 . S
H1879 C1892 0.960 . S
C1880 H1872 0.929 . S
C1880 C1881 1.377 . S
C1880 C1882 1.384 . S
C1881 C1880 1.377 . S
C1881 C1887 1.390 . S
C1882 H1873 0.930 . S
C1882 C1880 1.384 . S
C1882 C1883 1.372 . S
C1883 C1882 1.372 . S
C1883 C1884 1.400 . S
C1883 C1888 1.490 . S
C1884 H1874 0.930 . S
C1884 C1883 1.400 . S
C1884 C1887 1.386 . S
H1885 C1901 0.930 . S
H1886 C1902 0.931 . S
C1887 H1875 0.929 . S
C1887 C1881 1.390 . S
C1887 C1884 1.386 . S
C1888 C1883 1.490 . S
C1888 C1890 1.395 . S
C1888 C1891 1.403 . S
H1889 C1895 0.930 . S
C1890 H1876 0.930 1_554 S
C1890 C1888 1.395 . S
C1890 C1893 1.402 1_554 S
C1891 C1888 1.403 . S
C1891 C1892 1.524 . S
C1891 C1895 1.400 . S
C1892 H1877 0.960 . S
C1892 H1878 0.960 . S
C1892 H1879 0.960 . S
C1892 C1891 1.524 . S
C1893 C1890 1.402 1_556 S
C1893 C1894 1.389 1_556 S
C1893 C1897 1.500 . S
C1894 C1893 1.389 1_554 S
C1894 C1895 1.385 . S
C1894 C1896 1.478 . S
C1895 H1889 0.930 . S
C1895 C1891 1.400 . S
C1895 C1894 1.385 . S
C1896 C1894 1.478 . S
C1896 C1898 1.381 . S
C1896 C1902 1.383 1_554 S
C1897 C1893 1.500 . S
C1897 H1903 0.959 . S
C1897 H1904 0.961 . S
C1897 H1905 0.960 . S
C1898 C1896 1.381 . S
C1898 C1899 1.394 . S
C1898 H1906 0.930 . S
C1899 C1898 1.394 . S
C1899 C1900 1.383 1_554 S
C1899 H1907 0.929 . S
C1900 C1899 1.383 1_556 S
C1900 C1901 1.377 . S
C1901 H1885 0.930 . S
C1901 C1900 1.377 . S
C1901 C1902 1.379 . S
C1902 H1886 0.931 . S
C1902 C1896 1.383 1_556 S
C1902 C1901 1.379 . S
H1903 C1897 0.959 . S
H1904 C1897 0.961 . S
H1905 C1897 0.960 . S
H1906 C1898 0.930 . S
H1907 C1899 0.929 . S
H1908 C1916 0.929 . S
H1909 C1918 0.930 . S
H1910 C1920 0.930 . S
H1911 C1923 0.929 . S
H1912 C1926 0.930 . S
H1913 C1928 0.960 1_565 S
H1914 C1928 0.960 . S
H1915 C1928 0.960 . S
C1916 H1908 0.929 . S
C1916 C1917 1.377 1_554 S
C1916 C1918 1.384 . S
C1917 C1916 1.377 1_556 S
C1917 C1923 1.390 . S
C1918 H1909 0.930 . S
C1918 C1916 1.384 . S
C1918 C1919 1.372 . S
C1919 C1918 1.372 . S
C1919 C1920 1.400 1_554 S
C1919 C1924 1.490 1_545 S
C1920 H1910 0.930 . S
C1920 C1919 1.400 1_556 S
C1920 C1923 1.386 . S
H1921 C1937 0.930 . S
H1922 C1938 0.931 . S
C1923 H1911 0.929 . S
C1923 C1917 1.390 . S
C1923 C1920 1.386 . S
C1924 C1919 1.490 1_565 S
C1924 C1926 1.395 . S
C1924 C1927 1.403 . S
H1925 C1931 0.930 . S
C1926 H1912 0.930 . S
C1926 C1924 1.395 . S
C1926 C1929 1.403 . S
C1927 C1924 1.403 . S
C1927 C1928 1.524 1_565 S
C1927 C1931 1.400 . S
C1928 H1913 0.960 1_545 S
C1928 H1914 0.960 . S
C1928 H1915 0.960 . S
C1928 C1927 1.524 1_545 S
C1929 C1926 1.403 . S
C1929 C1930 1.392 . S
C1929 C1933 1.495 . S
C1930 C1929 1.392 . S
C1930 C1931 1.385 . S
C1930 C1932 1.478 . S
C1931 H1925 0.930 . S
C1931 C1927 1.400 . S
C1931 C1930 1.385 . S
C1932 C1930 1.478 . S
C1932 C1934 1.381 . S
C1932 C1938 1.383 . S
C1933 C1929 1.495 . S
C1933 H1939 0.959 . S
C1933 H1940 0.961 1_554 S
C1933 H1941 0.960 . S
C1934 C1932 1.381 . S
C1934 C1935 1.394 . S
C1934 H1942 0.930 . S
C1935 C1934 1.394 . S
C1935 C1936 1.383 . S
C1935 H1943 0.929 . S
C1936 C1935 1.383 . S
C1936 C1937 1.377 . S
C1937 H1921 0.930 . S
C1937 C1936 1.377 . S
C1937 C1938 1.379 . S
C1938 H1922 0.931 . S
C1938 C1932 1.383 . S
C1938 C1937 1.379 . S
H1939 C1933 0.959 . S
H1940 C1933 0.961 1_556 S
H1941 C1933 0.960 . S
H1942 C1934 0.930 . S
H1943 C1935 0.929 . S
H1944 C1952 0.929 . S
H1945 C1954 0.930 . S
H1946 C1956 0.930 . S
H1947 C1959 0.929 . S
H1948 C1962 0.930 . S
H1949 C1964 0.960 . S
H1950 C1964 0.960 . S
H1951 C1964 0.960 1_655 S
C1952 H1944 0.929 . S
C1952 C1953 1.377 . S
C1952 C1954 1.384 . S
C1953 C1952 1.377 . S
C1953 C1959 1.390 1_556 S
C1954 H1945 0.930 . S
C1954 C1952 1.384 . S
C1954 C1955 1.372 1_556 S
C1955 C1954 1.372 1_554 S
C1955 C1956 1.400 . S
C1955 C1960 1.490 1_655 S
C1956 H1946 0.930 . S
C1956 C1955 1.400 . S
C1956 C1959 1.386 . S
H1957 C1973 0.930 . S
H1958 C1974 0.931 . S
C1959 H1947 0.929 . S
C1959 C1953 1.390 1_554 S
C1959 C1956 1.386 . S
C1960 C1955 1.490 1_455 S
C1960 C1962 1.395 1_554 S
C1960 C1963 1.403 . S
H1961 C1967 0.930 . S
C1962 H1948 0.930 . S
C1962 C1960 1.395 1_556 S
C1962 C1965 1.403 . S
C1963 C1960 1.403 . S
C1963 C1964 1.524 . S
C1963 C1967 1.400 . S
C1964 H1949 0.960 . S
C1964 H1950 0.960 . S
C1964 H1951 0.960 1_455 S
C1964 C1963 1.524 . S
C1965 C1962 1.403 . S
C1965 C1966 1.392 1_556 S
C1965 C1969 1.495 . S
C1966 C1965 1.392 1_554 S
C1966 C1967 1.385 . S
C1966 C1968 1.478 . S
C1967 H1961 0.930 . S
C1967 C1963 1.400 . S
C1967 C1966 1.385 . S
C1968 C1966 1.478 . S
C1968 C1970 1.381 . S
C1968 C1974 1.383 . S
C1969 C1965 1.495 . S
C1969 H1975 0.959 . S
C1969 H1976 0.961 . S
C1969 H1977 0.960 . S
C1970 C1968 1.381 . S
C1970 C1971 1.394 . S
C1970 H1978 0.930 . S
C1971 C1970 1.394 . S
C1971 C1972 1.383 . S
C1971 H1979 0.929 . S
C1972 C1971 1.383 . S
C1972 C1973 1.377 . S
C1973 H1957 0.930 . S
C1973 C1972 1.377 . S
C1973 C1974 1.379 . S
C1974 H1958 0.931 . S
C1974 C1968 1.383 . S
C1974 C1973 1.379 . S
H1975 C1969 0.959 . S
H1976 C1969 0.961 . S
H1977 C1969 0.960 . S
H1978 C1970 0.930 . S
H1979 C1971 0.929 . S
H1980 C1988 0.929 . S
H1981 C1990 0.930 . S
H1982 C1992 0.930 . S
H1983 C1995 0.929 . S
H1984 C1998 0.930 . S
H1985 C2000 0.960 . S
H1986 C2000 0.960 . S
H1987 C2000 0.960 . S
C1988 H1980 0.929 . S
C1988 C1989 1.377 . S
C1988 C1990 1.384 . S
C1989 C1988 1.377 . S
C1989 C1995 1.390 . S
C1990 H1981 0.930 . S
C1990 C1988 1.384 . S
C1990 C1991 1.372 . S
C1991 C1990 1.372 . S
C1991 C1992 1.400 . S
C1991 C1996 1.490 . S
C1992 H1982 0.930 . S
C1992 C1991 1.400 . S
C1992 C1995 1.386 . S
H1993 C2009 0.930 . S
H1994 C2010 0.931 . S
C1995 H1983 0.929 . S
C1995 C1989 1.390 . S
C1995 C1992 1.386 . S
C1996 C1991 1.490 . S
C1996 C1998 1.395 . S
C1996 C1999 1.403 . S
H1997 C2003 0.930 . S
C1998 H1984 0.930 . S
C1998 C1996 1.395 . S
C1998 C2001 1.403 . S
C1999 C1996 1.403 . S
C1999 C2000 1.524 . S
C1999 C2003 1.400 . S
C2000 H1985 0.960 . S
C2000 H1986 0.960 . S
C2000 H1987 0.960 . S
C2000 C1999 1.524 . S
C2001 C1998 1.403 . S
C2001 C2002 1.392 . S
C2001 C2005 1.495 . S
C2002 C2001 1.392 . S
C2002 C2003 1.385 . S
C2002 C2004 1.478 . S
C2003 H1997 0.930 . S
C2003 C1999 1.400 . S
C2003 C2002 1.385 . S
C2004 C2002 1.478 . S
C2004 C2006 1.381 . S
C2004 C2010 1.383 . S
C2005 C2001 1.495 . S
C2005 H2011 0.959 . S
C2005 H2012 0.961 . S
C2005 H2013 0.960 . S
C2006 C2004 1.381 . S
C2006 C2007 1.394 . S
C2006 H2014 0.930 . S
C2007 C2006 1.394 . S
C2007 C2008 1.383 . S
C2007 H2015 0.929 . S
C2008 C2007 1.383 . S
C2008 C2009 1.377 . S
C2009 H1993 0.930 . S
C2009 C2008 1.377 . S
C2009 C2010 1.379 . S
C2010 H1994 0.931 . S
C2010 C2004 1.383 . S
C2010 C2009 1.379 . S
H2011 C2005 0.959 . S
H2012 C2005 0.961 . S
H2013 C2005 0.960 . S
H2014 C2006 0.930 . S
H2015 C2007 0.929 . S
H2016 C2024 0.929 . S
H2017 C2026 0.930 . S
H2018 C2028 0.930 . S
H2019 C2031 0.929 . S
H2020 C2034 0.930 . S
H2021 C2036 0.960 1_545 S
H2022 C2036 0.960 . S
H2023 C2036 0.960 . S
C2024 H2016 0.929 . S
C2024 C2025 1.377 . S
C2024 C2026 1.384 . S
C2025 C2024 1.377 . S
C2025 C2031 1.390 . S
C2026 H2017 0.930 . S
C2026 C2024 1.384 . S
C2026 C2027 1.372 . S
C2027 C2026 1.372 . S
C2027 C2028 1.400 . S
C2027 C2032 1.490 1_565 S
C2028 H2018 0.930 . S
C2028 C2027 1.400 . S
C2028 C2031 1.386 . S
H2029 C2045 0.930 . S
H2030 C2046 0.931 . S
C2031 H2019 0.929 . S
C2031 C2025 1.390 . S
C2031 C2028 1.386 . S
C2032 C2027 1.490 1_545 S
C2032 C2034 1.395 . S
C2032 C2035 1.403 . S
H2033 C2039 0.930 . S
C2034 H2020 0.930 . S
C2034 C2032 1.395 . S
C2034 C2037 1.403 . S
C2035 C2032 1.403 . S
C2035 C2036 1.524 1_545 S
C2035 C2039 1.400 . S
C2036 H2021 0.960 1_565 S
C2036 H2022 0.960 . S
C2036 H2023 0.960 . S
C2036 C2035 1.524 1_565 S
C2037 C2034 1.403 . S
C2037 C2038 1.392 . S
C2037 C2041 1.495 . S
C2038 C2037 1.392 . S
C2038 C2039 1.385 . S
C2038 C2040 1.478 . S
C2039 H2033 0.930 . S
C2039 C2035 1.400 . S
C2039 C2038 1.385 . S
C2040 C2038 1.478 . S
C2040 C2042 1.381 . S
C2040 C2046 1.383 . S
C2041 C2037 1.495 . S
C2041 H2047 0.959 . S
C2041 H2048 0.961 . S
C2041 H2049 0.960 . S
C2042 C2040 1.381 . S
C2042 C2043 1.394 . S
C2042 H2050 0.930 . S
C2043 C2042 1.394 . S
C2043 C2044 1.383 . S
C2043 H2051 0.929 . S
C2044 C2043 1.383 . S
C2044 C2045 1.377 . S
C2045 H2029 0.930 . S
C2045 C2044 1.377 . S
C2045 C2046 1.379 . S
C2046 H2030 0.931 . S
C2046 C2040 1.383 . S
C2046 C2045 1.379 . S
H2047 C2041 0.959 . S
H2048 C2041 0.961 . S
H2049 C2041 0.960 . S
H2050 C2042 0.930 . S
H2051 C2043 0.929 . S
H2052 C2060 0.929 . S
H2053 C2062 0.930 . S
H2054 C2064 0.930 . S
H2055 C2067 0.929 . S
H2056 C2070 0.930 . S
H2057 C2072 0.960 . S
H2058 C2072 0.960 . S
H2059 C2072 0.960 . S
C2060 H2052 0.929 . S
C2060 C2061 1.377 . S
C2060 C2062 1.384 . S
C2061 C2060 1.377 . S
C2061 C2067 1.390 . S
C2062 H2053 0.930 . S
C2062 C2060 1.384 . S
C2062 C2063 1.372 . S
C2063 C2062 1.372 . S
C2063 C2064 1.400 . S
C2063 C2068 1.490 . S
C2064 H2054 0.930 . S
C2064 C2063 1.400 . S
C2064 C2067 1.386 . S
H2065 C2081 0.930 . S
H2066 C2082 0.931 . S
C2067 H2055 0.929 . S
C2067 C2061 1.390 . S
C2067 C2064 1.386 . S
C2068 C2063 1.490 . S
C2068 C2070 1.395 . S
C2068 C2071 1.403 . S
H2069 C2075 0.930 . S
C2070 H2056 0.930 . S
C2070 C2068 1.395 . S
C2070 C2073 1.403 . S
C2071 C2068 1.403 . S
C2071 C2072 1.524 . S
C2071 C2075 1.400 . S
C2072 H2057 0.960 . S
C2072 H2058 0.960 . S
C2072 H2059 0.960 . S
C2072 C2071 1.524 . S
C2073 C2070 1.403 . S
C2073 C2074 1.392 . S
C2073 C2077 1.495 1_655 S
C2074 C2073 1.392 . S
C2074 C2075 1.385 . S
C2074 C2076 1.478 1_655 S
C2075 H2069 0.930 . S
C2075 C2071 1.400 . S
C2075 C2074 1.385 . S
C2076 C2074 1.478 1_455 S
C2076 C2078 1.381 . S
C2076 C2082 1.383 . S
C2077 C2073 1.495 1_455 S
C2077 H2083 0.963 . S
C2077 H2084 0.961 . S
C2077 H2085 0.960 . S
C2078 C2076 1.381 . S
C2078 C2079 1.394 . S
C2078 H2086 0.930 . S
C2079 C2078 1.394 . S
C2079 C2080 1.383 . S
C2079 H2087 0.929 . S
C2080 C2079 1.383 . S
C2080 C2081 1.377 . S
C2081 H2065 0.930 . S
C2081 C2080 1.377 . S
C2081 C2082 1.379 . S
C2082 H2066 0.931 . S
C2082 C2076 1.383 . S
C2082 C2081 1.379 . S
H2083 C2077 0.963 . S
H2084 C2077 0.961 . S
H2085 C2077 0.960 . S
H2086 C2078 0.930 . S
H2087 C2079 0.929 . S
H2088 C2096 0.929 . S
H2089 C2098 0.930 . S
H2090 C2100 0.930 . S
H2091 C2103 0.929 . S
H2092 C2106 0.930 . S
H2093 C2108 0.960 . S
H2094 C2108 0.960 1_554 S
H2095 C2108 0.960 . S
C2096 H2088 0.929 . S
C2096 C2097 1.377 . S
C2096 C2098 1.384 . S
C2097 C2096 1.377 . S
C2097 C2103 1.390 1_554 S
C2098 H2089 0.930 . S
C2098 C2096 1.384 . S
C2098 C2099 1.372 1_554 S
C2099 C2098 1.372 1_556 S
C2099 C2100 1.400 . S
C2099 C2104 1.490 . S
C2100 H2090 0.930 . S
C2100 C2099 1.400 . S
C2100 C2103 1.386 . S
H2101 C2117 0.930 . S
H2102 C2118 0.931 . S
C2103 H2091 0.929 . S
C2103 C2097 1.390 1_556 S
C2103 C2100 1.386 . S
C2104 C2099 1.490 . S
C2104 C2106 1.395 . S
C2104 C2107 1.403 . S
H2105 C2111 0.930 . S
C2106 H2092 0.930 . S
C2106 C2104 1.395 . S
C2106 C2109 1.403 . S
C2107 C2104 1.403 . S
C2107 C2108 1.524 . S
C2107 C2111 1.400 . S
C2108 H2093 0.960 . S
C2108 H2094 0.960 1_556 S
C2108 H2095 0.960 . S
C2108 C2107 1.524 . S
C2109 C2106 1.403 . S
C2109 C2110 1.392 . S
C2109 C2113 1.495 . S
C2110 C2109 1.392 . S
C2110 C2111 1.385 . S
C2110 C2112 1.478 . S
C2111 H2105 0.930 . S
C2111 C2107 1.400 . S
C2111 C2110 1.385 . S
C2112 C2110 1.478 . S
C2112 C2114 1.381 . S
C2112 C2118 1.383 . S
C2113 C2109 1.495 . S
C2113 H2119 0.959 . S
C2113 H2120 0.961 . S
C2113 H2121 0.960 . S
C2114 C2112 1.381 . S
C2114 C2115 1.394 . S
C2114 H2122 0.930 1_556 S
C2115 C2114 1.394 . S
C2115 C2116 1.383 . S
C2115 H2123 0.929 . S
C2116 C2115 1.383 . S
C2116 C2117 1.377 . S
C2117 H2101 0.930 . S
C2117 C2116 1.377 . S
C2117 C2118 1.379 . S
C2118 H2102 0.931 . S
C2118 C2112 1.383 . S
C2118 C2117 1.379 . S
H2119 C2113 0.959 . S
H2120 C2113 0.961 . S
H2121 C2113 0.960 . S
H2122 C2114 0.930 1_554 S
H2123 C2115 0.929 . S
H2124 C2132 0.929 . S
H2125 C2134 0.930 . S
H2126 C2136 0.930 . S
H2127 C2139 0.929 . S
H2128 C2142 0.930 . S
H2129 C2144 0.960 . S
H2130 C2144 0.960 . S
H2131 C2144 0.960 . S
C2132 H2124 0.929 . S
C2132 C2133 1.377 . S
C2132 C2134 1.384 . S
C2133 C2132 1.377 . S
C2133 C2139 1.390 . S
C2134 H2125 0.930 . S
C2134 C2132 1.384 . S
C2134 C2135 1.372 . S
C2135 C2134 1.372 . S
C2135 C2136 1.400 . S
C2135 C2140 1.490 . S
C2136 H2126 0.930 . S
C2136 C2135 1.400 . S
C2136 C2139 1.386 . S
H2137 C2153 0.930 . S
H2138 C2154 0.931 . S
C2139 H2127 0.929 . S
C2139 C2133 1.390 . S
C2139 C2136 1.386 . S
C2140 C2135 1.490 . S
C2140 C2142 1.395 . S
C2140 C2143 1.403 . S
H2141 C2147 0.934 . S
C2142 H2128 0.930 . S
C2142 C2140 1.395 . S
C2142 C2145 1.403 . S
C2143 C2140 1.403 . S
C2143 C2144 1.524 . S
C2143 C2147 1.400 . S
C2144 H2129 0.960 . S
C2144 H2130 0.960 . S
C2144 H2131 0.960 . S
C2144 C2143 1.524 . S
C2145 C2142 1.403 . S
C2145 C2146 1.392 . S
C2145 C2149 1.495 1_556 S
C2146 C2145 1.392 . S
C2146 C2147 1.385 . S
C2146 C2148 1.478 1_545 S
C2147 H2141 0.934 . S
C2147 C2143 1.400 . S
C2147 C2146 1.385 . S
C2148 C2146 1.478 1_565 S
C2148 C2150 1.381 . S
C2148 C2154 1.383 1_556 S
C2149 C2145 1.495 1_554 S
C2149 H2155 0.959 . S
C2149 H2156 0.961 . S
C2149 H2157 0.960 . S
C2150 C2148 1.381 . S
C2150 C2151 1.394 . S
C2150 H2158 0.930 . S
C2151 C2150 1.394 . S
C2151 C2152 1.383 1_556 S
C2151 H2159 0.929 . S
C2152 C2151 1.383 1_554 S
C2152 C2153 1.377 . S
C2153 H2137 0.930 . S
C2153 C2152 1.377 . S
C2153 C2154 1.379 . S
C2154 H2138 0.931 . S
C2154 C2148 1.383 1_554 S
C2154 C2153 1.379 . S
H2155 C2149 0.959 . S
H2156 C2149 0.961 . S
H2157 C2149 0.960 . S
H2158 C2150 0.930 . S
H2159 C2151 0.929 . S
H2160 C2168 0.929 . S
H2161 C2170 0.930 . S
H2162 C2172 0.930 . S
H2163 C2175 0.929 . S
H2164 C2178 0.930 . S
H2165 C2180 0.960 . S
H2166 C2180 0.960 1_455 S
H2167 C2180 0.960 . S
C2168 H2160 0.929 . S
C2168 C2169 1.377 . S
C2168 C2170 1.384 . S
C2169 C2168 1.377 . S
C2169 C2175 1.390 1_554 S
C2170 H2161 0.930 . S
C2170 C2168 1.384 . S
C2170 C2171 1.372 1_554 S
C2171 C2170 1.372 1_556 S
C2171 C2172 1.400 . S
C2171 C2176 1.490 1_455 S
C2172 H2162 0.930 . S
C2172 C2171 1.400 . S
C2172 C2175 1.386 . S
H2173 C2189 0.930 . S
H2174 C2190 0.931 . S
C2175 H2163 0.929 . S
C2175 C2169 1.390 1_556 S
C2175 C2172 1.386 . S
C2176 C2171 1.490 1_655 S
C2176 C2178 1.395 1_556 S
C2176 C2179 1.403 . S
H2177 C2183 0.930 . S
C2178 H2164 0.930 . S
C2178 C2176 1.395 1_554 S
C2178 C2181 1.403 . S
C2179 C2176 1.403 . S
C2179 C2180 1.524 . S
C2179 C2183 1.400 . S
C2180 H2165 0.960 . S
C2180 H2166 0.960 1_655 S
C2180 H2167 0.960 . S
C2180 C2179 1.524 . S
C2181 C2178 1.403 . S
C2181 C2182 1.392 1_554 S
C2181 C2185 1.495 . S
C2182 C2181 1.392 1_556 S
C2182 C2183 1.385 . S
C2182 C2184 1.478 . S
C2183 H2177 0.930 . S
C2183 C2179 1.400 . S
C2183 C2182 1.385 . S
C2184 C2182 1.478 . S
C2184 C2186 1.381 . S
C2184 C2190 1.383 . S
C2185 C2181 1.495 . S
C2185 H2191 0.959 . S
C2185 H2192 0.961 . S
C2185 H2193 0.960 . S
C2186 C2184 1.381 . S
C2186 C2187 1.394 . S
C2186 H2194 0.930 . S
C2187 C2186 1.394 . S
C2187 C2188 1.383 . S
C2187 H2195 0.929 . S
C2188 C2187 1.383 . S
C2188 C2189 1.377 . S
C2189 H2173 0.930 . S
C2189 C2188 1.377 . S
C2189 C2190 1.379 . S
C2190 H2174 0.931 . S
C2190 C2184 1.383 . S
C2190 C2189 1.379 . S
H2191 C2185 0.959 . S
H2192 C2185 0.961 . S
H2193 C2185 0.960 . S
H2194 C2186 0.930 . S
H2195 C2187 0.929 . S
H2196 C2204 0.929 . S
H2197 C2206 0.930 . S
H2198 C2208 0.930 . S
H2199 C2211 0.929 . S
H2200 C2214 0.930 . S
H2201 C2216 0.960 . S
H2202 C2216 0.960 . S
H2203 C2216 0.960 . S
C2204 H2196 0.929 . S
C2204 C2205 1.377 . S
C2204 C2206 1.384 . S
C2205 C2204 1.377 . S
C2205 C2211 1.390 . S
C2206 H2197 0.930 . S
C2206 C2204 1.384 . S
C2206 C2207 1.372 . S
C2207 C2206 1.372 . S
C2207 C2208 1.400 . S
C2207 C2212 1.490 . S
C2208 H2198 0.930 . S
C2208 C2207 1.400 . S
C2208 C2211 1.386 . S
H2209 C2225 0.930 . S
H2210 C2226 0.931 . S
C2211 H2199 0.929 . S
C2211 C2205 1.390 . S
C2211 C2208 1.386 . S
C2212 C2207 1.490 . S
C2212 C2214 1.395 . S
C2212 C2215 1.403 . S
H2213 C2219 0.930 . S
C2214 H2200 0.930 . S
C2214 C2212 1.395 . S
C2214 C2217 1.403 . S
C2215 C2212 1.403 . S
C2215 C2216 1.524 . S
C2215 C2219 1.400 . S
C2216 H2201 0.960 . S
C2216 H2202 0.960 . S
C2216 H2203 0.960 . S
C2216 C2215 1.524 . S
C2217 C2214 1.403 . S
C2217 C2218 1.392 . S
C2217 C2221 1.495 . S
C2218 C2217 1.392 . S
C2218 C2219 1.385 . S
C2218 C2220 1.478 . S
C2219 H2213 0.930 . S
C2219 C2215 1.400 . S
C2219 C2218 1.385 . S
C2220 C2218 1.478 . S
C2220 C2222 1.381 . S
C2220 C2226 1.383 . S
C2221 C2217 1.495 . S
C2221 H2227 0.959 . S
C2221 H2228 0.961 . S
C2221 H2229 0.960 . S
C2222 C2220 1.381 . S
C2222 C2223 1.394 . S
C2222 H2230 0.930 . S
C2223 C2222 1.394 . S
C2223 C2224 1.383 . S
C2223 H2231 0.929 . S
C2224 C2223 1.383 . S
C2224 C2225 1.377 . S
C2225 H2209 0.930 . S
C2225 C2224 1.377 . S
C2225 C2226 1.379 . S
C2226 H2210 0.931 . S
C2226 C2220 1.383 . S
C2226 C2225 1.379 . S
H2227 C2221 0.959 . S
H2228 C2221 0.961 . S
H2229 C2221 0.960 . S
H2230 C2222 0.930 . S
H2231 C2223 0.929 . S
H2232 C2240 0.929 . S
H2233 C2242 0.930 . S
H2234 C2244 0.930 . S
H2235 C2247 0.929 . S
H2236 C2250 0.930 . S
H2237 C2252 0.960 . S
H2238 C2252 0.960 . S
H2239 C2252 0.960 . S
C2240 H2232 0.929 . S
C2240 C2241 1.377 . S
C2240 C2242 1.384 . S
C2241 C2240 1.377 . S
C2241 C2247 1.390 . S
C2242 H2233 0.930 . S
C2242 C2240 1.384 . S
C2242 C2243 1.372 . S
C2243 C2242 1.372 . S
C2243 C2244 1.400 . S
C2243 C2248 1.490 . S
C2244 H2234 0.930 . S
C2244 C2243 1.400 . S
C2244 C2247 1.386 . S
H2245 C2261 0.930 . S
H2246 C2262 0.931 . S
C2247 H2235 0.929 . S
C2247 C2241 1.390 . S
C2247 C2244 1.386 . S
C2248 C2243 1.490 . S
C2248 C2250 1.395 . S
C2248 C2251 1.403 . S
H2249 C2255 0.930 . S
C2250 H2236 0.930 . S
C2250 C2248 1.395 . S
C2250 C2253 1.403 . S
C2251 C2248 1.403 . S
C2251 C2252 1.524 . S
C2251 C2255 1.400 . S
C2252 H2237 0.960 . S
C2252 H2238 0.960 . S
C2252 H2239 0.960 . S
C2252 C2251 1.524 . S
C2253 C2250 1.403 . S
C2253 C2254 1.392 . S
C2253 C2257 1.495 . S
C2254 C2253 1.392 . S
C2254 C2255 1.385 . S
C2254 C2256 1.478 1_565 S
C2255 H2249 0.930 . S
C2255 C2251 1.400 . S
C2255 C2254 1.385 . S
C2256 C2254 1.478 1_545 S
C2256 C2258 1.381 . S
C2256 C2262 1.383 . S
C2257 C2253 1.495 . S
C2257 H2263 0.959 . S
C2257 H2264 0.961 1_565 S
C2257 H2265 0.959 . S
C2258 C2256 1.381 . S
C2258 C2259 1.394 . S
C2258 H2266 0.930 . S
C2259 C2258 1.394 . S
C2259 C2260 1.383 . S
C2259 H2267 0.929 . S
C2260 C2259 1.383 . S
C2260 C2261 1.377 . S
C2261 H2245 0.930 . S
C2261 C2260 1.377 . S
C2261 C2262 1.379 . S
C2262 H2246 0.931 . S
C2262 C2256 1.383 . S
C2262 C2261 1.379 . S
H2263 C2257 0.959 . S
H2264 C2257 0.961 1_545 S
H2265 C2257 0.959 . S
H2266 C2258 0.930 . S
H2267 C2259 0.929 . S
H2268 C2276 0.929 . S
H2269 C2278 0.930 . S
H2270 C2280 0.930 . S
H2271 C2283 0.929 . S
H2272 C2286 0.930 . S
H2273 C2288 0.960 . S
H2274 C2288 0.960 . S
H2275 C2288 0.960 . S
C2276 H2268 0.929 . S
C2276 C2277 1.377 . S
C2276 C2278 1.384 . S
C2277 C2276 1.377 . S
C2277 C2283 1.390 . S
C2278 H2269 0.930 . S
C2278 C2276 1.384 . S
C2278 C2279 1.372 . S
C2279 C2278 1.372 . S
C2279 C2280 1.400 . S
C2279 C2284 1.490 1_655 S
C2280 H2270 0.930 . S
C2280 C2279 1.400 . S
C2280 C2283 1.386 . S
H2281 C2297 0.930 . S
H2282 C2298 0.931 . S
C2283 H2271 0.929 . S
C2283 C2277 1.390 . S
C2283 C2280 1.386 . S
C2284 C2279 1.490 1_455 S
C2284 C2286 1.395 . S
C2284 C2287 1.403 . S
H2285 C2291 0.930 . S
C2286 H2272 0.930 . S
C2286 C2284 1.395 . S
C2286 C2289 1.403 . S
C2287 C2284 1.403 . S
C2287 C2288 1.524 . S
C2287 C2291 1.400 . S
C2288 H2273 0.960 . S
C2288 H2274 0.960 . S
C2288 H2275 0.960 . S
C2288 C2287 1.524 . S
C2289 C2286 1.403 . S
C2289 C2290 1.392 . S
C2289 C2293 1.495 . S
C2290 C2289 1.392 . S
C2290 C2291 1.385 . S
C2290 C2292 1.478 . S
C2291 H2285 0.930 . S
C2291 C2287 1.400 . S
C2291 C2290 1.385 . S
C2292 C2290 1.478 . S
C2292 C2294 1.381 . S
C2292 C2298 1.383 . S
C2293 C2289 1.495 . S
C2293 H2299 0.959 . S
C2293 H2300 0.961 . S
C2293 H2301 0.960 . S
C2294 C2292 1.381 . S
C2294 C2295 1.394 . S
C2294 H2302 0.930 . S
C2295 C2294 1.394 . S
C2295 C2296 1.383 . S
C2295 H2303 0.929 . S
C2296 C2295 1.383 . S
C2296 C2297 1.377 . S
C2297 H2281 0.930 . S
C2297 C2296 1.377 . S
C2297 C2298 1.379 . S
C2298 H2282 0.931 . S
C2298 C2292 1.383 . S
C2298 C2297 1.379 . S
H2299 C2293 0.959 . S
H2300 C2293 0.961 . S
H2301 C2293 0.960 . S
H2302 C2294 0.930 . S
H2303 C2295 0.929 . S
C1017 C58 1.475 . S
C1036 C573 1.457 . S
C1053 C657 1.475 . S
C1072 C142 1.472 . S
C1089 C741 1.477 . S
C1108 C226 1.437 . S
C1125 C310 1.475 . S
C1144 C825 1.477 . S
C1161 C909 1.481 . S
C1180 C394 1.513 . S
C1197 C993 1.493 . S
C1216 C478 1.524 . S
C1233 C399 0.902 . S
C1252 C63 0.924 . S
C1269 C147 0.901 . S
C1288 C483 0.913 . S
C1305 C315 0.906 . S
C1324 C231 0.932 . S
C1341 C914 0.902 . S
C1360 C578 0.910 . S
C1377 C998 0.907 . S
C1396 C662 0.888 . S
C1413 C746 0.906 . S
C1432 C830 0.892 . S
C1449 C991 1.488 . S
C1468 C74 1.476 1_556 S
C1485 C158 1.495 1_556 S
C1504 C823 1.480 . S
C1521 C242 1.500 1_556 S
C1540 C907 1.459 . S
C1557 C326 1.501 . S
C1576 C655 1.465 . S
C1593 C410 1.497 . S
C1612 C739 1.471 . S
C1629 C571 1.482 . S
C1648 C494 1.491 . S
C1665 C567 1.494 1_554 S
C1684 C476 1.458 . S
C1701 C308 1.488 . S
C1720 C651 1.513 1_554 S
C1737 C735 1.501 1_554 S
C1756 C392 1.504 . S
C1773 C140 1.481 . S
C1792 C819 1.488 . S
C1809 C903 1.497 . S
C1828 C224 1.469 . S
C1845 C56 1.480 . S
C1864 C987 1.484 . S
C1881 C69 1.825 . S
C1900 C644 1.769 . S
C1917 C728 1.802 . S
C1936 C153 1.843 . S
C1953 C560 1.800 . S
C1972 C237 1.839 . S
C1989 C321 1.828 . S
C2008 C980 1.788 . S
C2025 C812 1.801 . S
C2044 C405 1.839 . S
C2061 C489 1.830 . S
C2080 C896 1.799 . S
C2097 C151 1.791 . S
C2116 C562 1.835 . S
C2133 C646 1.827 . S
C2152 C235 1.783 . S
C2169 C67 1.798 . S
C2188 C730 1.843 . S
C2205 C814 1.834 . S
C2224 C487 1.788 . S
C2241 C898 1.834 . S
C2260 C319 1.772 . S
C2277 C403 1.801 . S
C2296 C982 1.830 . S
