# Generated by pormake.
# Topology snk, (6)-cn, num edge types: 1
# Building blocks:
#     Node 0, Type 0, BuildingBlock: BETFAJ_clean_sbu_0, # of connection points: 6
#     Node 1, Type 0, BuildingBlock: BETFAJ_clean_sbu_0, # of connection points: 6
#     Node 2, Type 0, BuildingBlock: BETFAJ_clean_sbu_0, # of connection points: 6
#     Node 3, Type 0, BuildingBlock: BETFAJ_clean_sbu_0, # of connection points: 6
#     Node 4, Type 0, BuildingBlock: BETFAJ_clean_sbu_0, # of connection points: 6
#     Node 5, Type 0, BuildingBlock: BETFAJ_clean_sbu_0, # of connection points: 6
#     Node 6, Type 0, BuildingBlock: BETFAJ_clean_sbu_0, # of connection points: 6
#     Node 7, Type 0, BuildingBlock: BETFAJ_clean_sbu_0, # of connection points: 6
#     Edge 8, Type (0, 0), BuildingBlock: EYOCIG_clean_linker_4, # of connection points: 2
#     Edge 9, Type (0, 0), BuildingBlock: EYOCIG_clean_linker_4, # of connection points: 2
#     Edge 10, Type (0, 0), BuildingBlock: EYOCIG_clean_linker_4, # of connection points: 2
#     Edge 11, Type (0, 0), BuildingBlock: EYOCIG_clean_linker_4, # of connection points: 2
#     Edge 12, Type (0, 0), BuildingBlock: EYOCIG_clean_linker_4, # of connection points: 2
#     Edge 13, Type (0, 0), BuildingBlock: EYOCIG_clean_linker_4, # of connection points: 2
#     Edge 14, Type (0, 0), BuildingBlock: EYOCIG_clean_linker_4, # of connection points: 2
#     Edge 15, Type (0, 0), BuildingBlock: EYOCIG_clean_linker_4, # of connection points: 2
#     Edge 16, Type (0, 0), BuildingBlock: EYOCIG_clean_linker_4, # of connection points: 2
#     Edge 17, Type (0, 0), BuildingBlock: EYOCIG_clean_linker_4, # of connection points: 2
#     Edge 18, Type (0, 0), BuildingBlock: EYOCIG_clean_linker_4, # of connection points: 2
#     Edge 19, Type (0, 0), BuildingBlock: EYOCIG_clean_linker_4, # of connection points: 2
#     Edge 20, Type (0, 0), BuildingBlock: EYOCIG_clean_linker_4, # of connection points: 2
#     Edge 21, Type (0, 0), BuildingBlock: EYOCIG_clean_linker_4, # of connection points: 2
#     Edge 22, Type (0, 0), BuildingBlock: EYOCIG_clean_linker_4, # of connection points: 2
#     Edge 23, Type (0, 0), BuildingBlock: EYOCIG_clean_linker_4, # of connection points: 2
#     Edge 24, Type (0, 0), BuildingBlock: EYOCIG_clean_linker_4, # of connection points: 2
#     Edge 25, Type (0, 0), BuildingBlock: EYOCIG_clean_linker_4, # of connection points: 2
#     Edge 26, Type (0, 0), BuildingBlock: EYOCIG_clean_linker_4, # of connection points: 2
#     Edge 27, Type (0, 0), BuildingBlock: EYOCIG_clean_linker_4, # of connection points: 2
#     Edge 28, Type (0, 0), BuildingBlock: EYOCIG_clean_linker_4, # of connection points: 2
#     Edge 29, Type (0, 0), BuildingBlock: EYOCIG_clean_linker_4, # of connection points: 2
#     Edge 30, Type (0, 0), BuildingBlock: EYOCIG_clean_linker_4, # of connection points: 2
#     Edge 31, Type (0, 0), BuildingBlock: EYOCIG_clean_linker_4, # of connection points: 2
# Relax obj value: 0.112
# Max RMSD: 0.181
# Mean RMSD: 0.143
data_MOF--net-snk--node1-BETFAJ_clean_sbu_0--edge1-EYOCIG_clean_linker_4
_symmetry_space_group_name_H-M    P1
_symmetry_Int_Tables_number       1
_symmetry_cell_setting            triclinic
loop_
_symmetry_equiv_pos_as_xyz
'x, y, z'
_cell_length_a     29.05369
_cell_length_b     29.047509
_cell_length_c     22.533544
_cell_angle_alpha  84.388571
_cell_angle_beta   95.606507
_cell_angle_gamma 89.866251
loop_
_atom_site_label
_atom_site_type_symbol
_atom_site_fract_x
_atom_site_fract_y
_atom_site_fract_z
_atom_type_partial_charge
Sm0 Sm 0.99935 0.98506 0.44922 0.0
Sm1 Sm 0.01534 0.0259 0.56825 0.0
C2 C 0.98038 0.97486 0.33486 0.0
C3 C 0.99959 0.98541 0.27717 0.0
C4 C 0.98794 0.02728 0.242 0.0
C5 C 0.99663 0.03272 0.18211 0.0
C6 C 0.01687 0.99649 0.15709 0.0
C7 C 0.03269 0.95657 0.19305 0.0
C8 C 0.02413 0.95106 0.2531 0.0
C9 C 0.07013 0.94463 0.52545 0.0
C10 C 0.07127 0.07278 0.46335 0.0
C11 C 0.03374 0.03664 0.68258 0.0
C12 C 0.01456 0.02573 0.74026 0.0
C13 C 0.02616 0.9837 0.7751 0.0
C14 C 0.01744 0.97795 0.83498 0.0
C15 C 0.99722 0.01402 0.86032 0.0
C16 C 0.98145 0.05411 0.82467 0.0
C17 C 0.99006 0.05994 0.76465 0.0
C18 C 0.9449 0.06635 0.49119 0.0
C19 C 0.94365 0.9381 0.55432 0.0
O20 O 0.96493 0.00979 0.3601 0.0
O21 O 1.00127 0.94276 0.37303 0.0
O22 O 0.06157 0.9872 0.51657 0.0
O23 O 0.04244 0.92111 0.49147 0.0
O24 O 0.04334 0.04992 0.42714 0.0
O25 O 0.07185 0.06594 0.52206 0.0
O26 O 0.05008 1.00203 0.65753 0.0
O27 O 0.01225 0.06824 0.64425 0.0
O28 O 0.95322 0.02378 0.50087 0.0
O29 O 0.97269 0.08994 0.52494 0.0
O30 O 0.9717 0.96085 0.59049 0.0
O31 O 0.94291 0.94505 0.49561 0.0
H32 H 0.96936 0.05458 0.25936 0.0
H33 H 0.98456 0.06384 0.15437 0.0
H34 H 0.04861 0.92843 0.17389 0.0
H35 H 0.03386 0.91866 0.27938 0.0
H36 H 0.04471 0.9565 0.75749 0.0
H37 H 0.02948 0.9467 0.86247 0.0
H38 H 0.96555 0.08213 0.84408 0.0
H39 H 0.98037 0.09245 0.73863 0.0
Sm40 Sm 0.23643 0.74833 0.8185 0.0
Sm41 Sm 0.27796 0.76325 0.69952 0.0
C42 C 0.2257 0.72992 0.93278 0.0
C43 C 0.23652 0.74916 0.9904 0.0
C44 C 0.27842 0.73741 0.02543 0.0
C45 C 0.28406 0.74617 0.08528 0.0
C46 C 0.24799 0.76658 0.11041 0.0
C47 C 0.20806 0.78251 0.07457 0.0
C48 C 0.20235 0.77387 0.01456 0.0
C49 C 0.19745 0.81937 0.74139 0.0
C50 C 0.32529 0.81882 0.80472 0.0
C51 C 0.28868 0.78177 0.58525 0.0
C52 C 0.27767 0.76283 0.52746 0.0
C53 C 0.23559 0.77453 0.49282 0.0
C54 C 0.22977 0.76617 0.43282 0.0
C55 C 0.26583 0.7462 0.40718 0.0
C56 C 0.30596 0.73031 0.44261 0.0
C57 C 0.31185 0.73856 0.50275 0.0
C58 C 0.31684 0.69219 0.7768 0.0
C59 C 0.18911 0.69273 0.71336 0.0
O60 O 0.26039 0.71371 0.90777 0.0
O61 O 0.19401 0.75127 0.89441 0.0
O62 O 0.23984 0.8101 0.75081 0.0
O63 O 0.17334 0.79236 0.77543 0.0
O64 O 0.30184 0.79144 0.84086 0.0
O65 O 0.31879 0.81917 0.746 0.0
O66 O 0.25414 0.79814 0.61038 0.0
O67 O 0.32024 0.76008 0.62348 0.0
O68 O 0.27448 0.70147 0.76706 0.0
O69 O 0.34105 0.7192 0.74288 0.0
O70 O 0.21251 0.72016 0.6772 0.0
O71 O 0.19569 0.69233 0.77208 0.0
H72 H 0.3056 0.7187 1.00799 0.0
H73 H 0.31518 0.734 0.11293 0.0
H74 H 0.18004 0.79855 0.09382 0.0
H75 H 0.16994 0.78368 0.98839 0.0
H76 H 0.20839 0.79291 0.51068 0.0
H77 H 0.19849 0.7783 0.40549 0.0
H78 H 0.33398 0.71461 0.42296 0.0
H79 H 0.34441 0.72881 0.52862 0.0
Sm80 Sm 0.51399 0.97577 0.07126 0.0
Sm81 Sm 0.5004 0.03658 0.946 0.0
C82 C 0.52653 0.94836 0.18776 0.0
C83 C 0.51655 0.96309 0.24662 0.0
C84 C 0.52995 0.00662 0.26454 0.0
C85 C 0.52517 0.01732 0.32305 0.0
C86 C 0.5068 0.98484 0.36432 0.0
C87 C 0.4911 0.94249 0.34573 0.0
C88 C 0.49597 0.93169 0.28736 0.0
C89 C 0.45303 0.9424 0.98652 0.0
C90 C 0.4454 0.06983 0.05216 0.0
C91 C 0.48798 0.06377 0.82944 0.0
C92 C 0.49815 0.04878 0.77077 0.0
C93 C 0.48451 1.0053 0.75288 0.0
C94 C 0.48947 0.99441 0.6945 0.0
C95 C 0.50824 0.02665 0.6533 0.0
C96 C 0.52419 0.06893 0.67188 0.0
C97 C 0.51916 0.0799 0.73013 0.0
C98 C 0.56145 0.06973 0.03095 0.0
C99 C 0.56901 0.94256 0.96514 0.0
O100 O 0.55732 0.97167 0.15859 0.0
O101 O 0.49148 0.93534 0.15252 0.0
O102 O 0.4572 0.98456 0.99498 0.0
O103 O 0.47831 0.91571 0.02663 0.0
O104 O 0.47039 0.03882 0.08843 0.0
O105 O 0.44626 0.07385 0.99316 0.0
O106 O 0.45715 0.04054 0.85862 0.0
O107 O 0.52293 0.07696 0.86471 0.0
O108 O 0.55716 0.02768 0.02212 0.0
O109 O 0.53621 0.09657 0.99096 0.0
O110 O 0.54402 0.97355 0.92886 0.0
O111 O 0.56816 0.93854 0.02412 0.0
H112 H 0.54536 0.03184 0.23404 0.0
H113 H 0.53713 0.0504 0.33656 0.0
H114 H 0.47647 0.91712 0.37688 0.0
H115 H 0.48501 0.8981 0.27465 0.0
H116 H 0.46876 0.98028 0.78331 0.0
H117 H 0.47731 0.9614 0.681 0.0
H118 H 0.53912 0.09411 0.64079 0.0
H119 H 0.53032 0.11344 0.74281 0.0
Sm120 Sm 0.22677 0.26271 0.19646 0.0
Sm121 Sm 0.28765 0.24918 0.32172 0.0
C122 C 0.1995 0.27544 0.07993 0.0
C123 C 0.21421 0.26533 0.0211 0.0
C124 C 0.25776 0.27863 1.00315 0.0
C125 C 0.26843 0.27381 0.94464 0.0
C126 C 0.23589 0.25553 0.90337 0.0
C127 C 0.19352 0.23992 0.92199 0.0
C128 C 0.18276 0.24481 0.98036 0.0
C129 C 0.19378 0.20139 0.28113 0.0
C130 C 0.32095 0.19429 0.21545 0.0
C131 C 0.31478 0.2366 0.43828 0.0
C132 C 0.29981 0.24683 0.49693 0.0
C133 C 0.25632 0.23324 0.5148 0.0
C134 C 0.24543 0.2382 0.57317 0.0
C135 C 0.27767 0.25693 0.61438 0.0
C136 C 0.31996 0.27286 0.59582 0.0
C137 C 0.33094 0.26781 0.53758 0.0
C138 C 0.32055 0.31045 0.23685 0.0
C139 C 0.1935 0.31765 0.30268 0.0
O140 O 0.22303 0.30605 0.10915 0.0
O141 O 0.18617 0.24051 0.11513 0.0
O142 O 0.23588 0.20584 0.2726 0.0
O143 O 0.16693 0.22659 0.24113 0.0
O144 O 0.28984 0.21917 0.17923 0.0
O145 O 0.32505 0.19518 0.27444 0.0
O146 O 0.29141 0.20588 0.40906 0.0
O147 O 0.32815 0.27149 0.40305 0.0
O148 O 0.27852 0.30598 0.2457 0.0
O149 O 0.34748 0.28528 0.2768 0.0
O150 O 0.22458 0.29273 0.33891 0.0
O151 O 0.18943 0.31676 0.24369 0.0
H152 H 0.28301 0.29401 0.03364 0.0
H153 H 0.30152 0.28569 0.93112 0.0
H154 H 0.1681 0.22537 0.89084 0.0
H155 H 0.14916 0.23393 0.99308 0.0
H156 H 0.23128 0.21752 0.48438 0.0
H157 H 0.21241 0.22607 0.58666 0.0
H158 H 0.34515 0.28776 0.62692 0.0
H159 H 0.36449 0.27893 0.5249 0.0
Sm160 Sm 0.73696 0.24803 0.31814 0.0
Sm161 Sm 0.77766 0.26429 0.19908 0.0
C162 C 0.72649 0.22931 0.43252 0.0
C163 C 0.73732 0.24834 0.49031 0.0
C164 C 0.77932 0.23668 0.52516 0.0
C165 C 0.78501 0.2452 0.58511 0.0
C166 C 0.74889 0.26527 0.61053 0.0
C167 C 0.70882 0.28108 0.57491 0.0
C168 C 0.70306 0.27268 0.51481 0.0
C169 C 0.69608 0.31837 0.24139 0.0
C170 C 0.82427 0.32032 0.30402 0.0
C171 C 0.78789 0.28305 0.08468 0.0
C172 C 0.77725 0.26367 0.02712 0.0
C173 C 0.73553 0.27554 0.99172 0.0
C174 C 0.73001 0.26628 0.93204 0.0
C175 C 0.76617 0.24567 0.90731 0.0
C176 C 0.80602 0.22992 0.94344 0.0
C177 C 0.81149 0.23877 1.00337 0.0
C178 C 0.81861 0.19394 0.27575 0.0
C179 C 0.69018 0.1921 0.21325 0.0
O180 O 0.76116 0.21328 0.4073 0.0
O181 O 0.69475 0.25072 0.39433 0.0
O182 O 0.73869 0.31021 0.25065 0.0
O183 O 0.67271 0.29048 0.27529 0.0
O184 O 0.8017 0.29211 0.34023 0.0
O185 O 0.81728 0.32105 0.2453 0.0
O186 O 0.75302 0.29866 0.10988 0.0
O187 O 0.81994 0.26216 0.12291 0.0
O188 O 0.77597 0.20203 0.26645 0.0
O189 O 0.84195 0.22187 0.24184 0.0
O190 O 0.71292 0.22015 0.17705 0.0
O191 O 0.69707 0.19144 0.27196 0.0
H192 H 0.80656 0.21824 0.50747 0.0
H193 H 0.81625 0.23313 0.61258 0.0
H194 H 0.68076 0.29686 0.59438 0.0
H195 H 0.67055 0.2824 0.4888 0.0
H196 H 0.70849 0.29478 1.00865 0.0
H197 H 0.69899 0.27839 0.90412 0.0
H198 H 0.83416 0.21384 0.92447 0.0
H199 H 0.84383 0.22902 0.02975 0.0
Sm200 Sm 0.72673 0.76278 0.6962 0.0
Sm201 Sm 0.78747 0.7492 0.82152 0.0
C202 C 0.69948 0.77535 0.57967 0.0
C203 C 0.71429 0.76529 0.52088 0.0
C204 C 0.75787 0.7786 0.50306 0.0
C205 C 0.76863 0.77381 0.44459 0.0
C206 C 0.73614 0.75556 0.40323 0.0
C207 C 0.69374 0.73993 0.42172 0.0
C208 C 0.6829 0.74478 0.48007 0.0
C209 C 0.69339 0.70173 0.7809 0.0
C210 C 0.82076 0.69418 0.71543 0.0
C211 C 0.81471 0.73679 0.93805 0.0
C212 C 0.7998 0.74701 0.99672 0.0
C213 C 0.75636 0.73335 0.01469 0.0
C214 C 0.74554 0.7383 0.0731 0.0
C215 C 0.77781 0.75709 0.11423 0.0
C216 C 0.82004 0.77309 0.09555 0.0
C217 C 0.83095 0.76806 0.03728 0.0
C218 C 0.82067 0.8102 0.7366 0.0
C219 C 0.69349 0.81786 0.80225 0.0
O220 O 0.72282 0.8061 0.60887 0.0
O221 O 0.68632 0.74035 0.61489 0.0
O222 O 0.73554 0.70596 0.77246 0.0
O223 O 0.6667 0.727 0.74081 0.0
O224 O 0.78978 0.71917 0.67912 0.0
O225 O 0.82474 0.69503 0.77442 0.0
O226 O 0.79141 0.70598 0.90892 0.0
O227 O 0.82792 0.77172 0.90274 0.0
O228 O 0.77862 0.80594 0.74538 0.0
O229 O 0.84747 0.78495 0.77661 0.0
O230 O 0.72444 0.79285 0.83857 0.0
O231 O 0.6895 0.81699 0.74327 0.0
H232 H 0.78308 0.79397 0.53363 0.0
H233 H 0.80174 0.7857 0.43115 0.0
H234 H 0.66837 0.72539 0.3905 0.0
H235 H 0.64928 0.73389 0.4927 0.0
H236 H 0.73132 0.71758 0.98432 0.0
H237 H 0.71256 0.72612 0.08667 0.0
H238 H 0.84524 0.78804 0.1266 0.0
H239 H 0.86446 0.77923 0.02453 0.0
Sm240 Sm 0.49868 0.48568 0.94913 0.0
Sm241 Sm 0.51501 0.52619 0.06826 0.0
C242 C 0.47986 0.47541 0.83475 0.0
C243 C 0.49934 0.48595 0.77722 0.0
C244 C 0.48782 0.52781 0.74196 0.0
C245 C 0.49687 0.53328 0.6822 0.0
C246 C 0.51733 0.49707 0.65739 0.0
C247 C 0.53303 0.45717 0.69347 0.0
C248 C 0.5241 0.45163 0.75339 0.0
C249 C 0.5695 0.44496 0.02507 0.0
C250 C 0.57047 0.57343 0.96309 0.0
C251 C 0.53394 0.53661 0.1826 0.0
C252 C 0.51489 0.52594 0.2404 0.0
C253 C 0.52645 0.48394 0.27532 0.0
C254 C 0.51793 0.47834 0.33527 0.0
C255 C 0.49795 0.51456 0.36061 0.0
C256 C 0.48223 0.55464 0.32492 0.0
C257 C 0.49063 0.56031 0.26481 0.0
C258 C 0.44397 0.56652 0.99216 0.0
C259 C 0.44315 0.43851 0.05429 0.0
O260 O 0.46432 0.51035 0.85991 0.0
O261 O 0.50063 0.44331 0.87302 0.0
O262 O 0.56109 0.48758 0.01629 0.0
O263 O 0.54162 0.42161 0.99115 0.0
O264 O 0.54236 0.55072 0.92695 0.0
O265 O 0.57131 0.56639 0.02181 0.0
O266 O 0.54968 0.5018 0.15738 0.0
O267 O 0.51273 0.5685 0.14442 0.0
O268 O 0.45259 0.524 1.00137 0.0
O269 O 0.47183 0.59015 0.02577 0.0
O270 O 0.47135 0.46113 0.09046 0.0
O271 O 0.44223 0.44568 0.99557 0.0
H272 H 0.46909 0.55509 0.75915 0.0
H273 H 0.48489 0.56439 0.65438 0.0
H274 H 0.54911 0.42905 0.67447 0.0
H275 H 0.53376 0.41924 0.77974 0.0
H276 H 0.54482 0.45662 0.2577 0.0
H277 H 0.52993 0.4471 0.36279 0.0
H278 H 0.46651 0.58277 0.34433 0.0
H279 H 0.48098 0.59281 0.23874 0.0
Sm280 Sm 0.01376 0.47562 0.57152 0.0
Sm281 Sm 1.00038 0.53651 0.44624 0.0
C282 C 0.02616 0.4484 0.68806 0.0
C283 C 0.01609 0.46337 0.74677 0.0
C284 C 0.0297 0.50686 0.76466 0.0
C285 C 0.02484 0.51768 0.82312 0.0
C286 C 1.0061 0.48538 0.8643 0.0
C287 C 0.99018 0.44312 0.84569 0.0
C288 C 0.99519 0.43219 0.78744 0.0
C289 C 0.95258 0.44262 0.48671 0.0
C290 C 0.94537 0.56979 0.55237 0.0
C291 C 0.9879 0.56386 0.32972 0.0
C292 C 0.99802 0.54906 0.27094 0.0
C293 C 0.98457 0.50555 0.25301 0.0
C294 C 0.9894 0.49481 0.19453 0.0
C295 C 0.00785 0.52726 0.15328 0.0
C296 C 0.0236 0.56958 0.17189 0.0
C297 C 0.01871 0.5804 0.23024 0.0
C298 C 0.06137 0.56955 0.53128 0.0
C299 C 0.06884 0.44233 0.46546 0.0
O300 O 0.05703 0.47156 0.65888 0.0
O301 O 0.99115 0.4353 0.65281 0.0
O302 O 0.957 0.48472 0.49526 0.0
O303 O 0.97774 0.41576 0.52675 0.0
O304 O 0.9703 0.53875 0.58866 0.0
O305 O 0.94626 0.57382 0.49338 0.0
O306 O 0.95714 0.54049 0.35886 0.0
O307 O 0.02286 0.57703 0.36501 0.0
O308 O 0.05703 0.5275 0.52246 0.0
O309 O 0.03623 0.59642 0.49122 0.0
O310 O 0.04397 0.47342 0.42917 0.0
O311 O 0.06786 0.43825 0.52444 0.0
H312 H 0.04531 0.53194 0.73417 0.0
H313 H 0.03695 0.55071 0.83663 0.0
H314 H 0.97529 0.4179 0.87677 0.0
H315 H 0.98405 0.39865 0.77476 0.0
H316 H 0.96906 0.48037 0.28348 0.0
H317 H 0.97739 0.46175 0.18102 0.0
H318 H 0.03829 0.59492 0.14076 0.0
H319 H 0.02972 0.61397 0.24296 0.0
C320 C 0.13068 0.12586 0.40862 0.0
C321 C 0.1048 0.10245 0.43716 0.0
C322 C 0.15778 0.15142 0.36866 0.0
C323 C 0.17687 0.17331 0.33015 0.0
C324 C 0.13152 0.9055 0.60907 0.0
C325 C 0.10381 0.92443 0.57128 0.0
C326 C 0.15892 0.87882 0.65495 0.0
C327 C 0.17789 0.85207 0.6939 0.0
C328 C 0.37832 0.87834 0.85933 0.0
C329 C 0.35497 0.85236 0.83088 0.0
C330 C 0.40359 0.9058 0.89909 0.0
C331 C 0.4252 0.92523 0.9375 0.0
C332 C 0.39628 0.12196 0.11309 0.0
C333 C 0.41707 0.10037 0.08059 0.0
C334 C 0.37307 0.1452 0.15447 0.0
C335 C 0.35149 0.16599 0.18698 0.0
C336 C 0.88411 0.88521 0.60907 0.0
C337 C 0.91005 0.90855 0.58056 0.0
C338 C 0.85684 0.85983 0.64897 0.0
C339 C 0.83762 0.83812 0.6875 0.0
C340 C 0.88539 0.10577 0.40538 0.0
C341 C 0.91216 0.08649 0.44409 0.0
C342 C 0.85839 0.13312 0.3597 0.0
C343 C 0.83905 0.16051 0.32181 0.0
C344 C 0.63699 0.13279 0.15846 0.0
C345 C 0.66046 0.15861 0.18702 0.0
C346 C 0.61139 0.10572 0.1185 0.0
C347 C 0.58952 0.08663 0.07998 0.0
C348 C 0.64139 0.86713 0.86301 0.0
C349 C 0.66298 0.84627 0.83059 0.0
C350 C 0.61816 0.89042 0.90429 0.0
C351 C 0.59734 0.91202 0.93674 0.0
C352 C 0.62984 0.6265 0.90823 0.0
C353 C 0.60398 0.60308 0.9368 0.0
C354 C 0.65704 0.65199 0.86832 0.0
C355 C 0.67628 0.67377 0.82987 0.0
C356 C 0.65664 0.37786 0.15554 0.0
C357 C 0.67572 0.35104 0.19434 0.0
C358 C 0.62971 0.405 0.10959 0.0
C359 C 0.6026 0.42445 0.07145 0.0
C360 C 0.90273 0.40674 0.399 0.0
C361 C 0.92458 0.42573 0.43762 0.0
C362 C 0.8772 0.37975 0.3589 0.0
C363 C 0.85385 0.3539 0.33025 0.0
C364 C 0.87295 0.64509 0.65459 0.0
C365 C 0.85133 0.66587 0.68705 0.0
C366 C 0.89622 0.62189 0.61324 0.0
C367 C 0.91703 0.60033 0.58076 0.0
C368 C 0.35643 0.36026 0.14912 0.0
C369 C 0.33733 0.33847 0.18769 0.0
C370 C 0.3836 0.38569 0.10914 0.0
C371 C 0.40953 0.409 0.08056 0.0
C372 C 0.38249 0.60535 0.90845 0.0
C373 C 0.41022 0.5865 0.94627 0.0
C374 C 0.35511 0.63215 0.86269 0.0
C375 C 0.33622 0.65915 0.82399 0.0
C376 C 0.13612 0.63318 0.65879 0.0
C377 C 0.15946 0.65917 0.68722 0.0
C378 C 0.11084 0.60576 0.61898 0.0
C379 C 0.08922 0.58645 0.58047 0.0
C380 C 0.14136 0.36684 0.36351 0.0
C381 C 0.16298 0.34599 0.3311 0.0
C382 C 0.11806 0.39014 0.40473 0.0
C383 C 0.09719 0.41177 0.43711 0.0
C384 C 1.00325 0.00786 0.9775 0.0
C385 C 0.99957 0.01244 0.92392 0.0
C386 C 0.01076 1.00218 0.03994 0.0
C387 C 0.01451 0.99776 0.09353 0.0
C388 C 0.2596 0.75284 0.28998 0.0
C389 C 0.26418 0.74891 0.34356 0.0
C390 C 0.25388 0.7605 0.22756 0.0
C391 C 0.24938 0.76424 0.17398 0.0
C392 C 0.50826 0.00997 0.53938 0.0
C393 C 0.5083 0.01768 0.59121 0.0
C394 C 0.50696 1.00131 0.47834 0.0
C395 C 0.50684 0.9937 0.42647 0.0
C396 C 0.25231 0.25566 0.78934 0.0
C397 C 0.24471 0.25555 0.84121 0.0
C398 C 0.26096 0.25692 0.7283 0.0
C399 C 0.26868 0.25697 0.67647 0.0
C400 C 0.76065 0.25144 0.79019 0.0
C401 C 0.76504 0.24782 0.84377 0.0
C402 C 0.75499 0.25897 0.72774 0.0
C403 C 0.75045 0.26275 0.67415 0.0
C404 C 0.75268 0.7558 0.28924 0.0
C405 C 0.74504 0.75564 0.3411 0.0
C406 C 0.7613 0.75706 0.2282 0.0
C407 C 0.76893 0.75713 0.17635 0.0
C408 C 0.5117 0.50281 0.54025 0.0
C409 C 0.51525 0.49833 0.59383 0.0
C410 C 0.50423 0.50853 0.4778 0.0
C411 C 0.50044 0.51306 0.42422 0.0
C412 C 1.00634 0.50228 0.97817 0.0
C413 C 1.00609 0.49427 0.92643 0.0
C414 C 0.0078 0.51097 0.03921 0.0
C415 C 0.00785 0.51845 0.09112 0.0
loop_
_geom_bond_atom_site_label_1
_geom_bond_atom_site_label_2
_geom_bond_distance
_geom_bond_site_symmetry_2
_ccdc_geom_bond_type
Sm0 C2 2.846 1_655 S
Sm0 O20 2.543 1_565 S
Sm0 O21 2.450 1_655 S
Sm0 O22 2.681 1_655 S
Sm0 O23 2.464 1_655 S
Sm0 O24 2.396 1_665 S
Sm0 O28 2.386 1_565 S
Sm0 O31 2.408 . S
Sm1 C11 2.846 1_455 S
Sm1 O22 2.386 1_545 S
Sm1 O25 2.408 . S
Sm1 O26 2.543 1_545 S
Sm1 O27 2.450 1_455 S
Sm1 O28 2.681 1_455 S
Sm1 O29 2.464 1_455 S
Sm1 O30 2.396 1_445 S
C2 Sm0 2.846 1_455 S
C2 C3 1.506 . S
C2 O20 1.261 1_465 S
C2 O21 1.242 . S
C3 C2 1.506 . S
C3 C4 1.358 1_565 S
C3 C8 1.382 . S
C4 C3 1.358 1_545 S
C4 C5 1.385 . S
C4 H32 0.930 1_455 S
C5 C4 1.385 . S
C5 C6 1.395 1_545 S
C5 H33 0.929 . S
C6 C5 1.395 1_565 S
C6 C7 1.335 . S
C7 C6 1.335 . S
C7 C8 1.398 . S
C7 H34 0.930 . S
C8 C3 1.382 . S
C8 C7 1.398 . S
C8 H35 0.929 . S
C9 O22 1.271 . S
C9 O23 1.251 . S
C10 O24 1.252 . S
C10 O25 1.272 . S
C11 Sm1 2.846 1_655 S
C11 C12 1.506 . S
C11 O26 1.261 1_645 S
C11 O27 1.242 . S
C12 C11 1.506 . S
C12 C13 1.358 1_545 S
C12 C17 1.382 . S
C13 C12 1.358 1_565 S
C13 C14 1.385 . S
C13 H36 0.930 1_655 S
C14 C13 1.385 . S
C14 C15 1.395 1_565 S
C14 H37 0.929 . S
C15 C14 1.395 1_545 S
C15 C16 1.335 . S
C16 C15 1.335 . S
C16 C17 1.398 . S
C16 H38 0.930 . S
C17 C12 1.382 . S
C17 C16 1.398 . S
C17 H39 0.929 . S
C18 O28 1.271 . S
C18 O29 1.251 . S
C19 O30 1.252 . S
C19 O31 1.272 . S
O20 Sm0 2.543 1_545 S
O20 C2 1.261 1_645 S
O21 Sm0 2.450 1_455 S
O21 C2 1.242 . S
O22 Sm0 2.681 1_455 S
O22 Sm1 2.386 1_565 S
O22 C9 1.271 . S
O23 Sm0 2.464 1_455 S
O23 C9 1.251 . S
O24 Sm0 2.396 1_445 S
O24 C10 1.252 . S
O25 Sm1 2.408 . S
O25 C10 1.272 . S
O26 Sm1 2.543 1_565 S
O26 C11 1.261 1_465 S
O27 Sm1 2.450 1_655 S
O27 C11 1.242 . S
O28 Sm0 2.386 1_545 S
O28 Sm1 2.681 1_655 S
O28 C18 1.271 . S
O29 Sm1 2.464 1_655 S
O29 C18 1.251 . S
O30 Sm1 2.396 1_665 S
O30 C19 1.252 . S
O31 Sm0 2.408 . S
O31 C19 1.272 . S
H32 C4 0.930 1_655 S
H33 C5 0.929 . S
H34 C7 0.930 . S
H35 C8 0.929 . S
H36 C13 0.930 1_455 S
H37 C14 0.929 . S
H38 C16 0.930 . S
H39 C17 0.929 . S
Sm40 C42 2.846 . S
Sm40 O60 2.543 . S
Sm40 O61 2.450 . S
Sm40 O62 2.681 . S
Sm40 O63 2.464 . S
Sm40 O64 2.396 . S
Sm40 O68 2.386 . S
Sm40 O71 2.408 . S
Sm41 C51 2.846 . S
Sm41 O62 2.386 . S
Sm41 O65 2.408 . S
Sm41 O66 2.543 . S
Sm41 O67 2.450 . S
Sm41 O68 2.681 . S
Sm41 O69 2.464 . S
Sm41 O70 2.396 . S
C42 Sm40 2.846 . S
C42 C43 1.506 . S
C42 O60 1.261 . S
C42 O61 1.242 . S
C43 C42 1.506 . S
C43 C44 1.358 1_556 S
C43 C48 1.382 1_556 S
C44 C43 1.358 1_554 S
C44 C45 1.385 . S
C44 H72 0.930 . S
C45 C44 1.385 . S
C45 C46 1.395 . S
C45 H73 0.929 . S
C46 C45 1.395 . S
C46 C47 1.335 . S
C47 C46 1.335 . S
C47 C48 1.398 . S
C47 H74 0.930 . S
C48 C43 1.382 1_554 S
C48 C47 1.398 . S
C48 H75 0.929 1_554 S
C49 O62 1.271 . S
C49 O63 1.251 . S
C50 O64 1.252 . S
C50 O65 1.272 . S
C51 Sm41 2.846 . S
C51 C52 1.506 . S
C51 O66 1.261 . S
C51 O67 1.242 . S
C52 C51 1.506 . S
C52 C53 1.358 . S
C52 C57 1.382 . S
C53 C52 1.358 . S
C53 C54 1.385 . S
C53 H76 0.930 . S
C54 C53 1.385 . S
C54 C55 1.395 . S
C54 H77 0.929 . S
C55 C54 1.395 . S
C55 C56 1.335 . S
C56 C55 1.335 . S
C56 C57 1.398 . S
C56 H78 0.930 . S
C57 C52 1.382 . S
C57 C56 1.398 . S
C57 H79 0.929 . S
C58 O68 1.271 . S
C58 O69 1.251 . S
C59 O70 1.252 . S
C59 O71 1.272 . S
O60 Sm40 2.543 . S
O60 C42 1.261 . S
O61 Sm40 2.450 . S
O61 C42 1.242 . S
O62 Sm40 2.681 . S
O62 Sm41 2.386 . S
O62 C49 1.271 . S
O63 Sm40 2.464 . S
O63 C49 1.251 . S
O64 Sm40 2.396 . S
O64 C50 1.252 . S
O65 Sm41 2.408 . S
O65 C50 1.272 . S
O66 Sm41 2.543 . S
O66 C51 1.261 . S
O67 Sm41 2.450 . S
O67 C51 1.242 . S
O68 Sm40 2.386 . S
O68 Sm41 2.681 . S
O68 C58 1.271 . S
O69 Sm41 2.464 . S
O69 C58 1.251 . S
O70 Sm41 2.396 . S
O70 C59 1.252 . S
O71 Sm40 2.408 . S
O71 C59 1.272 . S
H72 C44 0.930 . S
H73 C45 0.929 . S
H74 C47 0.930 . S
H75 C48 0.929 1_556 S
H76 C53 0.930 . S
H77 C54 0.929 . S
H78 C56 0.930 . S
H79 C57 0.929 . S
Sm80 C82 2.846 . S
Sm80 O100 2.543 . S
Sm80 O101 2.450 . S
Sm80 O102 2.681 1_554 S
Sm80 O103 2.464 . S
Sm80 O104 2.396 1_565 S
Sm80 O108 2.386 1_565 S
Sm80 O111 2.408 . S
Sm81 C91 2.846 . S
Sm81 O102 2.386 1_545 S
Sm81 O105 2.408 . S
Sm81 O106 2.543 . S
Sm81 O107 2.450 . S
Sm81 O108 2.681 1_556 S
Sm81 O109 2.464 . S
Sm81 O110 2.396 1_545 S
C82 Sm80 2.846 . S
C82 C83 1.506 . S
C82 O100 1.261 . S
C82 O101 1.242 . S
C83 C82 1.506 . S
C83 C84 1.358 . S
C83 C88 1.382 . S
C84 C83 1.358 . S
C84 C85 1.385 . S
C84 H112 0.930 1_565 S
C85 C84 1.385 . S
C85 C86 1.395 . S
C85 H113 0.929 1_565 S
C86 C85 1.395 . S
C86 C87 1.335 . S
C87 C86 1.335 . S
C87 C88 1.398 . S
C87 H114 0.930 . S
C88 C83 1.382 . S
C88 C87 1.398 . S
C88 H115 0.929 . S
C89 O102 1.271 . S
C89 O103 1.251 1_556 S
C90 O104 1.252 . S
C90 O105 1.272 1_554 S
C91 Sm81 2.846 . S
C91 C92 1.506 . S
C91 O106 1.261 . S
C91 O107 1.242 . S
C92 C91 1.506 . S
C92 C93 1.358 . S
C92 C97 1.382 . S
C93 C92 1.358 . S
C93 C94 1.385 . S
C93 H116 0.930 1_545 S
C94 C93 1.385 . S
C94 C95 1.395 . S
C94 H117 0.929 1_545 S
C95 C94 1.395 . S
C95 C96 1.335 . S
C96 C95 1.335 . S
C96 C97 1.398 . S
C96 H118 0.930 . S
C97 C92 1.382 . S
C97 C96 1.398 . S
C97 H119 0.929 . S
C98 O108 1.271 . S
C98 O109 1.251 1_554 S
C99 O110 1.252 . S
C99 O111 1.272 1_556 S
O100 Sm80 2.543 . S
O100 C82 1.261 . S
O101 Sm80 2.450 . S
O101 C82 1.242 . S
O102 Sm80 2.681 1_556 S
O102 Sm81 2.386 1_565 S
O102 C89 1.271 . S
O103 Sm80 2.464 . S
O103 C89 1.251 1_554 S
O104 Sm80 2.396 1_545 S
O104 C90 1.252 . S
O105 Sm81 2.408 . S
O105 C90 1.272 1_556 S
O106 Sm81 2.543 . S
O106 C91 1.261 . S
O107 Sm81 2.450 . S
O107 C91 1.242 . S
O108 Sm80 2.386 1_545 S
O108 Sm81 2.681 1_554 S
O108 C98 1.271 . S
O109 Sm81 2.464 . S
O109 C98 1.251 1_556 S
O110 Sm81 2.396 1_565 S
O110 C99 1.252 . S
O111 Sm80 2.408 . S
O111 C99 1.272 1_554 S
H112 C84 0.930 1_545 S
H113 C85 0.929 1_545 S
H114 C87 0.930 . S
H115 C88 0.929 . S
H116 C93 0.930 1_565 S
H117 C94 0.929 1_565 S
H118 C96 0.930 . S
H119 C97 0.929 . S
Sm120 C122 2.846 . S
Sm120 O140 2.543 . S
Sm120 O141 2.450 . S
Sm120 O142 2.681 . S
Sm120 O143 2.464 . S
Sm120 O144 2.396 . S
Sm120 O148 2.386 . S
Sm120 O151 2.408 . S
Sm121 C131 2.846 . S
Sm121 O142 2.386 . S
Sm121 O145 2.408 . S
Sm121 O146 2.543 . S
Sm121 O147 2.450 . S
Sm121 O148 2.681 . S
Sm121 O149 2.464 . S
Sm121 O150 2.396 . S
C122 Sm120 2.846 . S
C122 C123 1.506 1_554 S
C122 O140 1.261 . S
C122 O141 1.242 . S
C123 C122 1.506 1_556 S
C123 C124 1.358 . S
C123 C128 1.382 . S
C124 C123 1.358 . S
C124 C125 1.385 . S
C124 H152 0.930 . S
C125 C124 1.385 . S
C125 C126 1.395 . S
C125 H153 0.929 . S
C126 C125 1.395 . S
C126 C127 1.335 . S
C127 C126 1.335 . S
C127 C128 1.398 . S
C127 H154 0.930 . S
C128 C123 1.382 . S
C128 C127 1.398 . S
C128 H155 0.929 . S
C129 O142 1.271 . S
C129 O143 1.251 . S
C130 O144 1.252 . S
C130 O145 1.272 . S
C131 Sm121 2.846 . S
C131 C132 1.506 . S
C131 O146 1.261 . S
C131 O147 1.242 . S
C132 C131 1.506 . S
C132 C133 1.358 . S
C132 C137 1.382 . S
C133 C132 1.358 . S
C133 C134 1.385 . S
C133 H156 0.930 . S
C134 C133 1.385 . S
C134 C135 1.395 . S
C134 H157 0.929 . S
C135 C134 1.395 . S
C135 C136 1.335 . S
C136 C135 1.335 . S
C136 C137 1.398 . S
C136 H158 0.930 . S
C137 C132 1.382 . S
C137 C136 1.398 . S
C137 H159 0.929 . S
C138 O148 1.271 . S
C138 O149 1.251 . S
C139 O150 1.252 . S
C139 O151 1.272 . S
O140 Sm120 2.543 . S
O140 C122 1.261 . S
O141 Sm120 2.450 . S
O141 C122 1.242 . S
O142 Sm120 2.681 . S
O142 Sm121 2.386 . S
O142 C129 1.271 . S
O143 Sm120 2.464 . S
O143 C129 1.251 . S
O144 Sm120 2.396 . S
O144 C130 1.252 . S
O145 Sm121 2.408 . S
O145 C130 1.272 . S
O146 Sm121 2.543 . S
O146 C131 1.261 . S
O147 Sm121 2.450 . S
O147 C131 1.242 . S
O148 Sm120 2.386 . S
O148 Sm121 2.681 . S
O148 C138 1.271 . S
O149 Sm121 2.464 . S
O149 C138 1.251 . S
O150 Sm121 2.396 . S
O150 C139 1.252 . S
O151 Sm120 2.408 . S
O151 C139 1.272 . S
H152 C124 0.930 . S
H153 C125 0.929 . S
H154 C127 0.930 . S
H155 C128 0.929 . S
H156 C133 0.930 . S
H157 C134 0.929 . S
H158 C136 0.930 . S
H159 C137 0.929 . S
Sm160 C162 2.846 . S
Sm160 O180 2.543 . S
Sm160 O181 2.450 . S
Sm160 O182 2.681 . S
Sm160 O183 2.464 . S
Sm160 O184 2.396 . S
Sm160 O188 2.386 . S
Sm160 O191 2.408 . S
Sm161 C171 2.846 . S
Sm161 O182 2.386 . S
Sm161 O185 2.408 . S
Sm161 O186 2.543 . S
Sm161 O187 2.450 . S
Sm161 O188 2.681 . S
Sm161 O189 2.464 . S
Sm161 O190 2.396 . S
C162 Sm160 2.846 . S
C162 C163 1.506 . S
C162 O180 1.261 . S
C162 O181 1.242 . S
C163 C162 1.506 . S
C163 C164 1.358 . S
C163 C168 1.382 . S
C164 C163 1.358 . S
C164 C165 1.385 . S
C164 H192 0.930 . S
C165 C164 1.385 . S
C165 C166 1.395 . S
C165 H193 0.929 . S
C166 C165 1.395 . S
C166 C167 1.335 . S
C167 C166 1.335 . S
C167 C168 1.398 . S
C167 H194 0.930 . S
C168 C163 1.382 . S
C168 C167 1.398 . S
C168 H195 0.929 . S
C169 O182 1.271 . S
C169 O183 1.251 . S
C170 O184 1.252 . S
C170 O185 1.272 . S
C171 Sm161 2.846 . S
C171 C172 1.506 . S
C171 O186 1.261 . S
C171 O187 1.242 . S
C172 C171 1.506 . S
C172 C173 1.358 1_554 S
C172 C177 1.382 1_554 S
C173 C172 1.358 1_556 S
C173 C174 1.385 . S
C173 H196 0.930 . S
C174 C173 1.385 . S
C174 C175 1.395 . S
C174 H197 0.929 . S
C175 C174 1.395 . S
C175 C176 1.335 . S
C176 C175 1.335 . S
C176 C177 1.398 . S
C176 H198 0.930 . S
C177 C172 1.382 1_556 S
C177 C176 1.398 . S
C177 H199 0.929 1_556 S
C178 O188 1.271 . S
C178 O189 1.251 . S
C179 O190 1.252 . S
C179 O191 1.272 . S
O180 Sm160 2.543 . S
O180 C162 1.261 . S
O181 Sm160 2.450 . S
O181 C162 1.242 . S
O182 Sm160 2.681 . S
O182 Sm161 2.386 . S
O182 C169 1.271 . S
O183 Sm160 2.464 . S
O183 C169 1.251 . S
O184 Sm160 2.396 . S
O184 C170 1.252 . S
O185 Sm161 2.408 . S
O185 C170 1.272 . S
O186 Sm161 2.543 . S
O186 C171 1.261 . S
O187 Sm161 2.450 . S
O187 C171 1.242 . S
O188 Sm160 2.386 . S
O188 Sm161 2.681 . S
O188 C178 1.271 . S
O189 Sm161 2.464 . S
O189 C178 1.251 . S
O190 Sm161 2.396 . S
O190 C179 1.252 . S
O191 Sm160 2.408 . S
O191 C179 1.272 . S
H192 C164 0.930 . S
H193 C165 0.929 . S
H194 C167 0.930 . S
H195 C168 0.929 . S
H196 C173 0.930 . S
H197 C174 0.929 . S
H198 C176 0.930 . S
H199 C177 0.929 1_554 S
Sm200 C202 2.846 . S
Sm200 O220 2.543 . S
Sm200 O221 2.450 . S
Sm200 O222 2.681 . S
Sm200 O223 2.464 . S
Sm200 O224 2.396 . S
Sm200 O228 2.386 . S
Sm200 O231 2.408 . S
Sm201 C211 2.846 . S
Sm201 O222 2.386 . S
Sm201 O225 2.408 . S
Sm201 O226 2.543 . S
Sm201 O227 2.450 . S
Sm201 O228 2.681 . S
Sm201 O229 2.464 . S
Sm201 O230 2.396 . S
C202 Sm200 2.846 . S
C202 C203 1.506 . S
C202 O220 1.261 . S
C202 O221 1.242 . S
C203 C202 1.506 . S
C203 C204 1.358 . S
C203 C208 1.382 . S
C204 C203 1.358 . S
C204 C205 1.385 . S
C204 H232 0.930 . S
C205 C204 1.385 . S
C205 C206 1.395 . S
C205 H233 0.929 . S
C206 C205 1.395 . S
C206 C207 1.335 . S
C207 C206 1.335 . S
C207 C208 1.398 . S
C207 H234 0.930 . S
C208 C203 1.382 . S
C208 C207 1.398 . S
C208 H235 0.929 . S
C209 O222 1.271 . S
C209 O223 1.251 . S
C210 O224 1.252 . S
C210 O225 1.272 . S
C211 Sm201 2.846 . S
C211 C212 1.506 1_556 S
C211 O226 1.261 . S
C211 O227 1.242 . S
C212 C211 1.506 1_554 S
C212 C213 1.358 . S
C212 C217 1.382 . S
C213 C212 1.358 . S
C213 C214 1.385 . S
C213 H236 0.930 . S
C214 C213 1.385 . S
C214 C215 1.395 . S
C214 H237 0.929 . S
C215 C214 1.395 . S
C215 C216 1.335 . S
C216 C215 1.335 . S
C216 C217 1.398 . S
C216 H238 0.930 . S
C217 C212 1.382 . S
C217 C216 1.398 . S
C217 H239 0.929 . S
C218 O228 1.271 . S
C218 O229 1.251 . S
C219 O230 1.252 . S
C219 O231 1.272 . S
O220 Sm200 2.543 . S
O220 C202 1.261 . S
O221 Sm200 2.450 . S
O221 C202 1.242 . S
O222 Sm200 2.681 . S
O222 Sm201 2.386 . S
O222 C209 1.271 . S
O223 Sm200 2.464 . S
O223 C209 1.251 . S
O224 Sm200 2.396 . S
O224 C210 1.252 . S
O225 Sm201 2.408 . S
O225 C210 1.272 . S
O226 Sm201 2.543 . S
O226 C211 1.261 . S
O227 Sm201 2.450 . S
O227 C211 1.242 . S
O228 Sm200 2.386 . S
O228 Sm201 2.681 . S
O228 C218 1.271 . S
O229 Sm201 2.464 . S
O229 C218 1.251 . S
O230 Sm201 2.396 . S
O230 C219 1.252 . S
O231 Sm200 2.408 . S
O231 C219 1.272 . S
H232 C204 0.930 . S
H233 C205 0.929 . S
H234 C207 0.930 . S
H235 C208 0.929 . S
H236 C213 0.930 . S
H237 C214 0.929 . S
H238 C216 0.930 . S
H239 C217 0.929 . S
Sm240 C242 2.846 . S
Sm240 O260 2.543 . S
Sm240 O261 2.450 . S
Sm240 O262 2.681 1_556 S
Sm240 O263 2.464 . S
Sm240 O264 2.396 . S
Sm240 O268 2.386 . S
Sm240 O271 2.408 1_556 S
Sm241 C251 2.846 . S
Sm241 O262 2.386 . S
Sm241 O265 2.408 1_554 S
Sm241 O266 2.543 . S
Sm241 O267 2.450 . S
Sm241 O268 2.681 1_554 S
Sm241 O269 2.464 . S
Sm241 O270 2.396 . S
C242 Sm240 2.846 . S
C242 C243 1.506 . S
C242 O260 1.261 . S
C242 O261 1.242 . S
C243 C242 1.506 . S
C243 C244 1.358 . S
C243 C248 1.382 . S
C244 C243 1.358 . S
C244 C245 1.385 . S
C244 H272 0.930 . S
C245 C244 1.385 . S
C245 C246 1.395 . S
C245 H273 0.929 . S
C246 C245 1.395 . S
C246 C247 1.335 . S
C247 C246 1.335 . S
C247 C248 1.398 . S
C247 H274 0.930 . S
C248 C243 1.382 . S
C248 C247 1.398 . S
C248 H275 0.929 . S
C249 O262 1.271 . S
C249 O263 1.251 1_554 S
C250 O264 1.252 . S
C250 O265 1.272 . S
C251 Sm241 2.846 . S
C251 C252 1.506 . S
C251 O266 1.261 . S
C251 O267 1.242 . S
C252 C251 1.506 . S
C252 C253 1.358 . S
C252 C257 1.382 . S
C253 C252 1.358 . S
C253 C254 1.385 . S
C253 H276 0.930 . S
C254 C253 1.385 . S
C254 C255 1.395 . S
C254 H277 0.929 . S
C255 C254 1.395 . S
C255 C256 1.335 . S
C256 C255 1.335 . S
C256 C257 1.398 . S
C256 H278 0.930 . S
C257 C252 1.382 . S
C257 C256 1.398 . S
C257 H279 0.929 . S
C258 O268 1.271 . S
C258 O269 1.251 1_556 S
C259 O270 1.252 . S
C259 O271 1.272 . S
O260 Sm240 2.543 . S
O260 C242 1.261 . S
O261 Sm240 2.450 . S
O261 C242 1.242 . S
O262 Sm240 2.681 1_554 S
O262 Sm241 2.386 . S
O262 C249 1.271 . S
O263 Sm240 2.464 . S
O263 C249 1.251 1_556 S
O264 Sm240 2.396 . S
O264 C250 1.252 . S
O265 Sm241 2.408 1_556 S
O265 C250 1.272 . S
O266 Sm241 2.543 . S
O266 C251 1.261 . S
O267 Sm241 2.450 . S
O267 C251 1.242 . S
O268 Sm240 2.386 . S
O268 Sm241 2.681 1_556 S
O268 C258 1.271 . S
O269 Sm241 2.464 . S
O269 C258 1.251 1_554 S
O270 Sm241 2.396 . S
O270 C259 1.252 . S
O271 Sm240 2.408 1_554 S
O271 C259 1.272 . S
H272 C244 0.930 . S
H273 C245 0.929 . S
H274 C247 0.930 . S
H275 C248 0.929 . S
H276 C253 0.930 . S
H277 C254 0.929 . S
H278 C256 0.930 . S
H279 C257 0.929 . S
Sm280 C282 2.846 1_455 S
Sm280 O300 2.543 . S
Sm280 O301 2.450 1_455 S
Sm280 O302 2.681 1_455 S
Sm280 O303 2.464 1_455 S
Sm280 O304 2.396 1_455 S
Sm280 O308 2.386 . S
Sm280 O311 2.408 . S
Sm281 C291 2.846 1_655 S
Sm281 O302 2.386 . S
Sm281 O305 2.408 . S
Sm281 O306 2.543 . S
Sm281 O307 2.450 1_655 S
Sm281 O308 2.681 1_655 S
Sm281 O309 2.464 1_655 S
Sm281 O310 2.396 1_655 S
C282 Sm280 2.846 1_655 S
C282 C283 1.506 . S
C282 O300 1.261 1_655 S
C282 O301 1.242 . S
C283 C282 1.506 . S
C283 C284 1.358 . S
C283 C288 1.382 . S
C284 C283 1.358 . S
C284 C285 1.385 . S
C284 H312 0.930 1_655 S
C285 C284 1.385 . S
C285 C286 1.395 . S
C285 H313 0.929 . S
C286 C285 1.395 . S
C286 C287 1.335 . S
C287 C286 1.335 . S
C287 C288 1.398 . S
C287 H314 0.930 . S
C288 C283 1.382 . S
C288 C287 1.398 . S
C288 H315 0.929 . S
C289 O302 1.271 . S
C289 O303 1.251 . S
C290 O304 1.252 . S
C290 O305 1.272 . S
C291 Sm281 2.846 1_455 S
C291 C292 1.506 . S
C291 O306 1.261 1_455 S
C291 O307 1.242 . S
C292 C291 1.506 . S
C292 C293 1.358 . S
C292 C297 1.382 . S
C293 C292 1.358 . S
C293 C294 1.385 . S
C293 H316 0.930 1_455 S
C294 C293 1.385 . S
C294 C295 1.395 . S
C294 H317 0.929 . S
C295 C294 1.395 . S
C295 C296 1.335 . S
C296 C295 1.335 . S
C296 C297 1.398 . S
C296 H318 0.930 . S
C297 C292 1.382 . S
C297 C296 1.398 . S
C297 H319 0.929 . S
C298 O308 1.271 . S
C298 O309 1.251 . S
C299 O310 1.252 . S
C299 O311 1.272 . S
O300 Sm280 2.543 . S
O300 C282 1.261 1_455 S
O301 Sm280 2.450 1_655 S
O301 C282 1.242 . S
O302 Sm280 2.681 1_655 S
O302 Sm281 2.386 . S
O302 C289 1.271 . S
O303 Sm280 2.464 1_655 S
O303 C289 1.251 . S
O304 Sm280 2.396 1_655 S
O304 C290 1.252 . S
O305 Sm281 2.408 . S
O305 C290 1.272 . S
O306 Sm281 2.543 . S
O306 C291 1.261 1_655 S
O307 Sm281 2.450 1_455 S
O307 C291 1.242 . S
O308 Sm280 2.386 . S
O308 Sm281 2.681 1_455 S
O308 C298 1.271 . S
O309 Sm281 2.464 1_455 S
O309 C298 1.251 . S
O310 Sm281 2.396 1_455 S
O310 C299 1.252 . S
O311 Sm280 2.408 . S
O311 C299 1.272 . S
H312 C284 0.930 1_455 S
H313 C285 0.929 . S
H314 C287 0.930 . S
H315 C288 0.929 . S
H316 C293 0.930 1_655 S
H317 C294 0.929 . S
H318 C296 0.930 . S
H319 C297 0.929 . S
C320 C321 1.170 . S
C320 C322 1.380 . S
C321 C320 1.170 . S
C322 C320 1.380 . S
C322 C323 1.170 . S
C323 C322 1.170 . S
C324 C325 1.170 . S
C324 C326 1.380 . S
C325 C324 1.170 . S
C326 C324 1.380 . S
C326 C327 1.170 . S
C327 C326 1.170 . S
C328 C329 1.170 . S
C328 C330 1.380 . S
C329 C328 1.170 . S
C330 C328 1.380 . S
C330 C331 1.170 . S
C331 C330 1.170 . S
C332 C333 1.170 . S
C332 C334 1.380 . S
C333 C332 1.170 . S
C334 C332 1.380 . S
C334 C335 1.170 . S
C335 C334 1.170 . S
C336 C337 1.170 . S
C336 C338 1.380 . S
C337 C336 1.170 . S
C338 C336 1.380 . S
C338 C339 1.170 . S
C339 C338 1.170 . S
C340 C341 1.170 . S
C340 C342 1.380 . S
C341 C340 1.170 . S
C342 C340 1.380 . S
C342 C343 1.170 . S
C343 C342 1.170 . S
C344 C345 1.170 . S
C344 C346 1.380 . S
C345 C344 1.170 . S
C346 C344 1.380 . S
C346 C347 1.170 . S
C347 C346 1.170 . S
C348 C349 1.170 . S
C348 C350 1.380 . S
C349 C348 1.170 . S
C350 C348 1.380 . S
C350 C351 1.170 . S
C351 C350 1.170 . S
C352 C353 1.170 . S
C352 C354 1.380 . S
C353 C352 1.170 . S
C354 C352 1.380 . S
C354 C355 1.170 . S
C355 C354 1.170 . S
C356 C357 1.170 . S
C356 C358 1.380 . S
C357 C356 1.170 . S
C358 C356 1.380 . S
C358 C359 1.170 . S
C359 C358 1.170 . S
C360 C361 1.170 . S
C360 C362 1.380 . S
C361 C360 1.170 . S
C362 C360 1.380 . S
C362 C363 1.170 . S
C363 C362 1.170 . S
C364 C365 1.170 . S
C364 C366 1.380 . S
C365 C364 1.170 . S
C366 C364 1.380 . S
C366 C367 1.170 . S
C367 C366 1.170 . S
C368 C369 1.170 . S
C368 C370 1.380 . S
C369 C368 1.170 . S
C370 C368 1.380 . S
C370 C371 1.170 . S
C371 C370 1.170 . S
C372 C373 1.170 . S
C372 C374 1.380 . S
C373 C372 1.170 . S
C374 C372 1.380 . S
C374 C375 1.170 . S
C375 C374 1.170 . S
C376 C377 1.170 . S
C376 C378 1.380 . S
C377 C376 1.170 . S
C378 C376 1.380 . S
C378 C379 1.170 . S
C379 C378 1.170 . S
C380 C381 1.170 . S
C380 C382 1.380 . S
C381 C380 1.170 . S
C382 C380 1.380 . S
C382 C383 1.170 . S
C383 C382 1.170 . S
C384 C385 1.170 1_565 S
C384 C386 1.380 1_656 S
C385 C384 1.170 1_545 S
C386 C384 1.380 1_454 S
C386 C387 1.170 . S
C387 C386 1.170 . S
C388 C389 1.170 . S
C388 C390 1.380 . S
C389 C388 1.170 . S
C390 C388 1.380 . S
C390 C391 1.170 . S
C391 C390 1.170 . S
C392 C393 1.170 . S
C392 C394 1.380 1_545 S
C393 C392 1.170 . S
C394 C392 1.380 1_565 S
C394 C395 1.170 . S
C395 C394 1.170 . S
C396 C397 1.170 . S
C396 C398 1.380 . S
C397 C396 1.170 . S
C398 C396 1.380 . S
C398 C399 1.170 . S
C399 C398 1.170 . S
C400 C401 1.170 . S
C400 C402 1.380 . S
C401 C400 1.170 . S
C402 C400 1.380 . S
C402 C403 1.170 . S
C403 C402 1.170 . S
C404 C405 1.170 . S
C404 C406 1.380 . S
C405 C404 1.170 . S
C406 C404 1.380 . S
C406 C407 1.170 . S
C407 C406 1.170 . S
C408 C409 1.170 . S
C408 C410 1.380 . S
C409 C408 1.170 . S
C410 C408 1.380 . S
C410 C411 1.170 . S
C411 C410 1.170 . S
C412 C413 1.170 . S
C412 C414 1.380 1_656 S
C413 C412 1.170 . S
C414 C412 1.380 1_454 S
C414 C415 1.170 . S
C415 C414 1.170 . S
C321 C10 1.554 . S
C323 C129 1.541 . S
C325 C9 1.002 . S
C327 C49 1.009 . S
C329 C50 1.554 . S
C331 C89 1.529 . S
C333 C90 1.994 . S
C335 C130 1.993 . S
C337 C19 1.561 . S
C339 C218 1.528 . S
C341 C18 1.006 . S
C343 C178 0.983 . S
C345 C179 1.560 . S
C347 C98 1.520 . S
C349 C219 1.993 . S
C351 C99 1.996 . S
C353 C250 1.561 . S
C355 C209 1.527 . S
C357 C169 1.001 . S
C359 C249 0.994 . S
C361 C289 1.547 . S
C363 C170 1.552 . S
C365 C210 1.994 . S
C367 C290 1.997 . S
C369 C138 1.532 . S
C371 C259 1.551 . S
C373 C258 1.006 . S
C375 C58 1.014 . S
C377 C59 1.558 . S
C379 C298 1.532 . S
C381 C139 1.991 . S
C383 C299 1.989 . S
C385 C15 1.466 . S
C387 C6 1.462 . S
C389 C55 1.449 . S
C391 C46 1.488 . S
C393 C95 1.808 . S
C395 C86 1.800 . S
C397 C126 1.806 . S
C399 C135 1.803 . S
C401 C175 1.489 . S
C403 C166 1.460 . S
C405 C206 1.793 . S
C407 C215 1.817 . S
C409 C246 1.489 . S
C411 C255 1.450 . S
C413 C286 1.803 . S
C415 C295 1.828 . S
