# Generated by pormake.
# Topology uoa, (4)-cn, num edge types: 1
# Building blocks:
#     Node 0, Type 0, BuildingBlock: KUFVIS_clean_sbu_0, # of connection points: 4
#     Node 1, Type 0, BuildingBlock: KUFVIS_clean_sbu_0, # of connection points: 4
#     Node 2, Type 0, BuildingBlock: KUFVIS_clean_sbu_0, # of connection points: 4
#     Node 3, Type 0, BuildingBlock: KUFVIS_clean_sbu_0, # of connection points: 4
#     Node 4, Type 0, BuildingBlock: KUFVIS_clean_sbu_0, # of connection points: 4
#     Node 5, Type 0, BuildingBlock: KUFVIS_clean_sbu_0, # of connection points: 4
#     Node 6, Type 0, BuildingBlock: KUFVIS_clean_sbu_0, # of connection points: 4
#     Node 7, Type 0, BuildingBlock: KUFVIS_clean_sbu_0, # of connection points: 4
#     Node 8, Type 0, BuildingBlock: KUFVIS_clean_sbu_0, # of connection points: 4
#     Node 9, Type 0, BuildingBlock: KUFVIS_clean_sbu_0, # of connection points: 4
#     Node 10, Type 0, BuildingBlock: KUFVIS_clean_sbu_0, # of connection points: 4
#     Node 11, Type 0, BuildingBlock: KUFVIS_clean_sbu_0, # of connection points: 4
#     Node 12, Type 0, BuildingBlock: KUFVIS_clean_sbu_0, # of connection points: 4
#     Node 13, Type 0, BuildingBlock: KUFVIS_clean_sbu_0, # of connection points: 4
#     Node 14, Type 0, BuildingBlock: KUFVIS_clean_sbu_0, # of connection points: 4
#     Node 15, Type 0, BuildingBlock: KUFVIS_clean_sbu_0, # of connection points: 4
#     Node 16, Type 0, BuildingBlock: KUFVIS_clean_sbu_0, # of connection points: 4
#     Node 17, Type 0, BuildingBlock: KUFVIS_clean_sbu_0, # of connection points: 4
#     Node 18, Type 0, BuildingBlock: KUFVIS_clean_sbu_0, # of connection points: 4
#     Node 19, Type 0, BuildingBlock: KUFVIS_clean_sbu_0, # of connection points: 4
#     Node 20, Type 0, BuildingBlock: KUFVIS_clean_sbu_0, # of connection points: 4
#     Node 21, Type 0, BuildingBlock: KUFVIS_clean_sbu_0, # of connection points: 4
#     Node 22, Type 0, BuildingBlock: KUFVIS_clean_sbu_0, # of connection points: 4
#     Node 23, Type 0, BuildingBlock: KUFVIS_clean_sbu_0, # of connection points: 4
#     Node 24, Type 0, BuildingBlock: KUFVIS_clean_sbu_0, # of connection points: 4
#     Node 25, Type 0, BuildingBlock: KUFVIS_clean_sbu_0, # of connection points: 4
#     Node 26, Type 0, BuildingBlock: KUFVIS_clean_sbu_0, # of connection points: 4
#     Node 27, Type 0, BuildingBlock: KUFVIS_clean_sbu_0, # of connection points: 4
#     Node 28, Type 0, BuildingBlock: KUFVIS_clean_sbu_0, # of connection points: 4
#     Node 29, Type 0, BuildingBlock: KUFVIS_clean_sbu_0, # of connection points: 4
#     Node 30, Type 0, BuildingBlock: KUFVIS_clean_sbu_0, # of connection points: 4
#     Node 31, Type 0, BuildingBlock: KUFVIS_clean_sbu_0, # of connection points: 4
#     Edge 32, Type (0, 0), BuildingBlock: AJUNOK_clean_linker_0, # of connection points: 2
#     Edge 33, Type (0, 0), BuildingBlock: AJUNOK_clean_linker_0, # of connection points: 2
#     Edge 34, Type (0, 0), BuildingBlock: AJUNOK_clean_linker_0, # of connection points: 2
#     Edge 35, Type (0, 0), BuildingBlock: AJUNOK_clean_linker_0, # of connection points: 2
#     Edge 36, Type (0, 0), BuildingBlock: AJUNOK_clean_linker_0, # of connection points: 2
#     Edge 37, Type (0, 0), BuildingBlock: AJUNOK_clean_linker_0, # of connection points: 2
#     Edge 38, Type (0, 0), BuildingBlock: AJUNOK_clean_linker_0, # of connection points: 2
#     Edge 39, Type (0, 0), BuildingBlock: AJUNOK_clean_linker_0, # of connection points: 2
#     Edge 40, Type (0, 0), BuildingBlock: AJUNOK_clean_linker_0, # of connection points: 2
#     Edge 41, Type (0, 0), BuildingBlock: AJUNOK_clean_linker_0, # of connection points: 2
#     Edge 42, Type (0, 0), BuildingBlock: AJUNOK_clean_linker_0, # of connection points: 2
#     Edge 43, Type (0, 0), BuildingBlock: AJUNOK_clean_linker_0, # of connection points: 2
#     Edge 44, Type (0, 0), BuildingBlock: AJUNOK_clean_linker_0, # of connection points: 2
#     Edge 45, Type (0, 0), BuildingBlock: AJUNOK_clean_linker_0, # of connection points: 2
#     Edge 46, Type (0, 0), BuildingBlock: AJUNOK_clean_linker_0, # of connection points: 2
#     Edge 47, Type (0, 0), BuildingBlock: AJUNOK_clean_linker_0, # of connection points: 2
#     Edge 48, Type (0, 0), BuildingBlock: AJUNOK_clean_linker_0, # of connection points: 2
#     Edge 49, Type (0, 0), BuildingBlock: AJUNOK_clean_linker_0, # of connection points: 2
#     Edge 50, Type (0, 0), BuildingBlock: AJUNOK_clean_linker_0, # of connection points: 2
#     Edge 51, Type (0, 0), BuildingBlock: AJUNOK_clean_linker_0, # of connection points: 2
#     Edge 52, Type (0, 0), BuildingBlock: AJUNOK_clean_linker_0, # of connection points: 2
#     Edge 53, Type (0, 0), BuildingBlock: AJUNOK_clean_linker_0, # of connection points: 2
#     Edge 54, Type (0, 0), BuildingBlock: AJUNOK_clean_linker_0, # of connection points: 2
#     Edge 55, Type (0, 0), BuildingBlock: AJUNOK_clean_linker_0, # of connection points: 2
#     Edge 56, Type (0, 0), BuildingBlock: AJUNOK_clean_linker_0, # of connection points: 2
#     Edge 57, Type (0, 0), BuildingBlock: AJUNOK_clean_linker_0, # of connection points: 2
#     Edge 58, Type (0, 0), BuildingBlock: AJUNOK_clean_linker_0, # of connection points: 2
#     Edge 59, Type (0, 0), BuildingBlock: AJUNOK_clean_linker_0, # of connection points: 2
#     Edge 60, Type (0, 0), BuildingBlock: AJUNOK_clean_linker_0, # of connection points: 2
#     Edge 61, Type (0, 0), BuildingBlock: AJUNOK_clean_linker_0, # of connection points: 2
#     Edge 62, Type (0, 0), BuildingBlock: AJUNOK_clean_linker_0, # of connection points: 2
#     Edge 63, Type (0, 0), BuildingBlock: AJUNOK_clean_linker_0, # of connection points: 2
#     Edge 64, Type (0, 0), BuildingBlock: AJUNOK_clean_linker_0, # of connection points: 2
#     Edge 65, Type (0, 0), BuildingBlock: AJUNOK_clean_linker_0, # of connection points: 2
#     Edge 66, Type (0, 0), BuildingBlock: AJUNOK_clean_linker_0, # of connection points: 2
#     Edge 67, Type (0, 0), BuildingBlock: AJUNOK_clean_linker_0, # of connection points: 2
#     Edge 68, Type (0, 0), BuildingBlock: AJUNOK_clean_linker_0, # of connection points: 2
#     Edge 69, Type (0, 0), BuildingBlock: AJUNOK_clean_linker_0, # of connection points: 2
#     Edge 70, Type (0, 0), BuildingBlock: AJUNOK_clean_linker_0, # of connection points: 2
#     Edge 71, Type (0, 0), BuildingBlock: AJUNOK_clean_linker_0, # of connection points: 2
#     Edge 72, Type (0, 0), BuildingBlock: AJUNOK_clean_linker_0, # of connection points: 2
#     Edge 73, Type (0, 0), BuildingBlock: AJUNOK_clean_linker_0, # of connection points: 2
#     Edge 74, Type (0, 0), BuildingBlock: AJUNOK_clean_linker_0, # of connection points: 2
#     Edge 75, Type (0, 0), BuildingBlock: AJUNOK_clean_linker_0, # of connection points: 2
#     Edge 76, Type (0, 0), BuildingBlock: AJUNOK_clean_linker_0, # of connection points: 2
#     Edge 77, Type (0, 0), BuildingBlock: AJUNOK_clean_linker_0, # of connection points: 2
#     Edge 78, Type (0, 0), BuildingBlock: AJUNOK_clean_linker_0, # of connection points: 2
#     Edge 79, Type (0, 0), BuildingBlock: AJUNOK_clean_linker_0, # of connection points: 2
#     Edge 80, Type (0, 0), BuildingBlock: AJUNOK_clean_linker_0, # of connection points: 2
#     Edge 81, Type (0, 0), BuildingBlock: AJUNOK_clean_linker_0, # of connection points: 2
#     Edge 82, Type (0, 0), BuildingBlock: AJUNOK_clean_linker_0, # of connection points: 2
#     Edge 83, Type (0, 0), BuildingBlock: AJUNOK_clean_linker_0, # of connection points: 2
#     Edge 84, Type (0, 0), BuildingBlock: AJUNOK_clean_linker_0, # of connection points: 2
#     Edge 85, Type (0, 0), BuildingBlock: AJUNOK_clean_linker_0, # of connection points: 2
#     Edge 86, Type (0, 0), BuildingBlock: AJUNOK_clean_linker_0, # of connection points: 2
#     Edge 87, Type (0, 0), BuildingBlock: AJUNOK_clean_linker_0, # of connection points: 2
#     Edge 88, Type (0, 0), BuildingBlock: AJUNOK_clean_linker_0, # of connection points: 2
#     Edge 89, Type (0, 0), BuildingBlock: AJUNOK_clean_linker_0, # of connection points: 2
#     Edge 90, Type (0, 0), BuildingBlock: AJUNOK_clean_linker_0, # of connection points: 2
#     Edge 91, Type (0, 0), BuildingBlock: AJUNOK_clean_linker_0, # of connection points: 2
#     Edge 92, Type (0, 0), BuildingBlock: AJUNOK_clean_linker_0, # of connection points: 2
#     Edge 93, Type (0, 0), BuildingBlock: AJUNOK_clean_linker_0, # of connection points: 2
#     Edge 94, Type (0, 0), BuildingBlock: AJUNOK_clean_linker_0, # of connection points: 2
#     Edge 95, Type (0, 0), BuildingBlock: AJUNOK_clean_linker_0, # of connection points: 2
# Relax obj value: 0.182
# Max RMSD: 0.288
# Mean RMSD: 0.246
data_MOF--net-uoa--node1-KUFVIS_clean_sbu_0--edge1-AJUNOK_clean_linker_0
_symmetry_space_group_name_H-M    P1
_symmetry_Int_Tables_number       1
_symmetry_cell_setting            triclinic
loop_
_symmetry_equiv_pos_as_xyz
'x, y, z'
_cell_length_a     53.138301
_cell_length_b     59.280674
_cell_length_c     19.6352
_cell_angle_alpha  90.018601
_cell_angle_beta   90.001123
_cell_angle_gamma 90.045038
loop_
_atom_site_label
_atom_site_type_symbol
_atom_site_fract_x
_atom_site_fract_y
_atom_site_fract_z
_atom_type_partial_charge
Mn0 Mn 0.02037 0.08489 0.99648 0.0
Mn1 Mn 0.00635 0.14014 0.98528 0.0
C2 C 0.01977 0.10251 0.89167 0.0
C3 C 0.00505 0.04757 0.99672 0.0
C4 C 0.05745 0.12309 0.03187 0.0
O5 O 0.00498 0.0915 0.0883 0.0
O6 O 0.99577 0.12849 0.07683 0.0
C7 C 0.95081 0.13594 0.98666 0.0
N8 N 0.97228 0.14271 0.95474 0.0
C9 C 0.94876 0.15693 0.85923 0.0
C10 C 0.92638 0.1503 0.89138 0.0
C11 C 0.92743 0.13971 0.9553 0.0
C12 C 0.97148 0.15283 0.8931 0.0
H13 H 0.95152 0.12769 0.0356 0.0
C14 C 0.99652 0.1101 0.11127 0.0
O15 O 0.02692 0.05258 0.02261 0.0
O16 O 0.99224 0.0642 0.97236 0.0
N17 N 0.01518 0.15341 0.89959 0.0
C18 C 0.03844 0.15845 0.87485 0.0
C19 C 0.04075 0.16865 0.81062 0.0
C20 C 0.01908 0.17362 0.77254 0.0
C21 C 0.9953 0.16852 0.79936 0.0
C22 C 0.99419 0.15851 0.8639 0.0
H23 H 0.05506 0.15452 0.90367 0.0
O24 O 0.03224 0.08393 0.90007 0.0
O25 O 0.00819 0.11013 0.94529 0.0
O26 O 0.05251 0.10193 0.02802 0.0
O27 O 0.04184 0.13862 0.01554 0.0
C28 C 0.97267 0.17287 0.76446 0.0
C29 C 0.94942 0.16717 0.79454 0.0
H30 H 0.90832 0.15308 0.86718 0.0
H31 H 0.91026 0.1344 0.98026 0.0
H32 H 0.05918 0.17255 0.79035 0.0
H33 H 0.02093 0.18133 0.72277 0.0
H34 H 0.97292 0.18057 0.71444 0.0
H35 H 0.93219 0.1707 0.76738 0.0
Mn36 Mn 0.15893 0.78576 0.28423 0.0
Mn37 Mn 0.0974 0.77395 0.26426 0.0
C38 C 0.14149 0.78442 0.17627 0.0
C39 C 0.2009 0.77416 0.28747 0.0
C40 C 0.11634 0.81863 0.31841 0.0
O41 O 0.1501 0.77007 0.37262 0.0
O42 O 0.10861 0.76289 0.35604 0.0
C43 C 0.09908 0.72416 0.26222 0.0
N44 N 0.09339 0.74396 0.23066 0.0
C45 C 0.08016 0.72454 0.12922 0.0
C46 C 0.0864 0.70402 0.1601 0.0
C47 C 0.09571 0.70379 0.22708 0.0
C48 C 0.0838 0.74433 0.16687 0.0
H49 H 0.10674 0.72391 0.31312 0.0
C50 C 0.12892 0.76196 0.39159 0.0
O51 O 0.19398 0.79322 0.31427 0.0
O52 O 0.18344 0.7616 0.26159 0.0
N53 N 0.08534 0.7834 0.17683 0.0
C54 C 0.08377 0.80467 0.15099 0.0
C55 C 0.07578 0.80775 0.08343 0.0
C56 C 0.06963 0.789 0.0431 0.0
C57 C 0.07183 0.76726 0.07037 0.0
C58 C 0.07967 0.7652 0.13821 0.0
H59 H 0.08918 0.81909 0.18121 0.0
O60 O 0.16104 0.79693 0.18842 0.0
O61 O 0.13185 0.77447 0.22929 0.0
O62 O 0.13976 0.81401 0.31623 0.0
O63 O 0.09915 0.80515 0.29848 0.0
C64 C 0.06753 0.74754 0.03201 0.0
C65 C 0.07173 0.72618 0.06141 0.0
H66 H 0.0852 0.68846 0.13164 0.0
H67 H 0.101 0.68803 0.25086 0.0
H68 H 0.07485 0.82447 0.06181 0.0
H69 H 0.06383 0.79147 0.99075 0.0
H70 H 0.06153 0.74862 0.97939 0.0
H71 H 0.06892 0.71113 0.031 0.0
Mn72 Mn 0.48237 0.9214 0.50417 0.0
Mn73 Mn 0.5018 0.86757 0.48744 0.0
C74 C 0.48453 0.90521 0.39782 0.0
C75 C 0.49456 0.95961 0.511 0.0
C76 C 0.44922 0.88004 0.53512 0.0
O77 O 0.49794 0.9147 0.59516 0.0
O78 O 0.51183 0.87908 0.57969 0.0
C79 C 0.55687 0.87509 0.48713 0.0
N80 N 0.53577 0.86728 0.45561 0.0
C81 C 0.55998 0.85295 0.36153 0.0
C82 C 0.58201 0.86071 0.39315 0.0
C83 C 0.58042 0.87193 0.45608 0.0
C84 C 0.53707 0.85662 0.39481 0.0
H85 H 0.55572 0.88358 0.5357 0.0
C86 C 0.50862 0.89682 0.6162 0.0
O87 O 0.47302 0.9527 0.53487 0.0
O88 O 0.50873 0.94438 0.48388 0.0
N89 N 0.49346 0.85438 0.4013 0.0
C90 C 0.47039 0.84895 0.37585 0.0
C91 C 0.46857 0.83846 0.31191 0.0
C92 C 0.49049 0.8336 0.27487 0.0
C93 C 0.51403 0.83933 0.3021 0.0
C94 C 0.51466 0.84979 0.36605 0.0
H95 H 0.45351 0.85311 0.40333 0.0
O96 O 0.47067 0.9229 0.40799 0.0
O97 O 0.49699 0.89778 0.45026 0.0
O98 O 0.4516 0.90159 0.53239 0.0
O99 O 0.4667 0.86628 0.51868 0.0
C100 C 0.53688 0.83517 0.26816 0.0
C101 C 0.55982 0.84176 0.29824 0.0
H102 H 0.60021 0.85826 0.36941 0.0
H103 H 0.59733 0.87803 0.48073 0.0
H104 H 0.45029 0.83432 0.29101 0.0
H105 H 0.48902 0.82561 0.2254 0.0
H106 H 0.53705 0.82691 0.21894 0.0
H107 H 0.5772 0.83806 0.27225 0.0
Mn108 Mn 0.33729 0.21752 0.77888 0.0
Mn109 Mn 0.39547 0.23815 0.75852 0.0
C110 C 0.35377 0.22163 0.67033 0.0
C111 C 0.29461 0.22672 0.78619 0.0
C112 C 0.38424 0.19114 0.81522 0.0
O113 O 0.34527 0.23188 0.87033 0.0
O114 O 0.3821 0.24952 0.84748 0.0
C115 C 0.38274 0.28637 0.74183 0.0
N116 N 0.39371 0.26728 0.7171 0.0
C117 C 0.40291 0.28538 0.61024 0.0
C118 C 0.39163 0.30517 0.63448 0.0
C119 C 0.38154 0.30568 0.70059 0.0
C120 C 0.40358 0.26663 0.65364 0.0
H121 H 0.37448 0.28667 0.79206 0.0
C122 C 0.36366 0.24464 0.88721 0.0
O123 O 0.30281 0.20747 0.80905 0.0
O124 O 0.31105 0.24042 0.76125 0.0
N125 N 0.40978 0.22835 0.67404 0.0
C126 C 0.41649 0.20712 0.6548 0.0
C127 C 0.42606 0.20347 0.58904 0.0
C128 C 0.42836 0.22164 0.54357 0.0
C129 C 0.42108 0.24332 0.56427 0.0
C130 C 0.41218 0.24601 0.63092 0.0
H131 H 0.41422 0.19305 0.6891 0.0
O132 O 0.3354 0.20767 0.68114 0.0
O133 O 0.3621 0.23174 0.72439 0.0
O134 O 0.36045 0.19094 0.80478 0.0
O135 O 0.3985 0.20791 0.80064 0.0
C136 C 0.42151 0.26218 0.52064 0.0
C137 C 0.41236 0.28319 0.54354 0.0
H138 H 0.39049 0.32003 0.6026 0.0
H139 H 0.37269 0.32089 0.71948 0.0
H140 H 0.43133 0.18667 0.57302 0.0
H141 H 0.43534 0.21868 0.49251 0.0
H142 H 0.42825 0.26059 0.4688 0.0
H143 H 0.41211 0.29742 0.50892 0.0
Mn144 Mn 0.01756 0.91759 0.49132 0.0
Mn145 Mn 0.99764 0.86384 0.50541 0.0
C146 C 0.01544 0.90068 0.59627 0.0
C147 C 0.00637 0.95588 0.48852 0.0
C148 C 0.0507 0.87616 0.4615 0.0
O149 O 0.00168 0.91191 0.39994 0.0
O150 O 0.98992 0.87555 0.412 0.0
C151 C 0.94312 0.874 0.49766 0.0
N152 N 0.96299 0.86504 0.53213 0.0
C153 C 0.93638 0.85488 0.62657 0.0
C154 C 0.91561 0.86377 0.59169 0.0
C155 C 0.91902 0.8734 0.527 0.0
C156 C 0.95992 0.85582 0.59454 0.0
H157 H 0.94565 0.88167 0.44834 0.0
C158 C 0.99222 0.8937 0.37704 0.0
O159 O 0.02766 0.9489 0.46324 0.0
O160 O 0.99181 0.94062 0.51401 0.0
N161 N 0.00327 0.85038 0.5929 0.0
C162 C 0.02517 0.84266 0.62012 0.0
C163 C 0.0251 0.83279 0.68515 0.0
C164 C 0.00244 0.83089 0.72149 0.0
C165 C 0.98 0.83858 0.69201 0.0
C166 C 0.98123 0.84798 0.62662 0.0
H167 H 0.04255 0.84426 0.5927 0.0
O168 O 0.02965 0.9182 0.58716 0.0
O169 O 0.00275 0.89381 0.54354 0.0
O170 O 0.04759 0.89763 0.46157 0.0
O171 O 0.03368 0.86197 0.47948 0.0
C172 C 0.95651 0.83742 0.72515 0.0
C173 C 0.93471 0.84557 0.69245 0.0
H174 H 0.89704 0.86352 0.6144 0.0
H175 H 0.90313 0.88048 0.49997 0.0
H176 H 0.0425 0.82684 0.70741 0.0
H177 H 0.00248 0.82352 0.77196 0.0
H178 H 0.95501 0.8304 0.77592 0.0
H179 H 0.91678 0.84473 0.71861 0.0
Mn180 Mn 0.34094 0.78761 0.70941 0.0
Mn181 Mn 0.40174 0.77378 0.73028 0.0
C182 C 0.35861 0.78714 0.81684 0.0
C183 C 0.29916 0.77517 0.70717 0.0
C184 C 0.38491 0.81908 0.67416 0.0
O185 O 0.34937 0.77155 0.62105 0.0
O186 O 0.39022 0.76258 0.63931 0.0
C187 C 0.39348 0.72457 0.73959 0.0
N188 N 0.40271 0.74397 0.76729 0.0
C189 C 0.4125 0.72501 0.87236 0.0
C190 C 0.40303 0.70492 0.84497 0.0
C191 C 0.39359 0.70466 0.7782 0.0
C192 C 0.41199 0.74437 0.8314 0.0
H193 H 0.38556 0.7244 0.68896 0.0
C194 C 0.37017 0.76256 0.60286 0.0
O195 O 0.30546 0.79439 0.68002 0.0
O196 O 0.31695 0.76326 0.73363 0.0
N197 N 0.41462 0.78328 0.81685 0.0
C198 C 0.41877 0.80463 0.83997 0.0
C199 C 0.42712 0.80788 0.90716 0.0
C200 C 0.43099 0.78924 0.94989 0.0
C201 C 0.42633 0.76746 0.92528 0.0
C202 C 0.41846 0.76517 0.85751 0.0
H203 H 0.41522 0.81905 0.8078 0.0
O204 O 0.3389 0.7994 0.80487 0.0
O205 O 0.36768 0.77668 0.76429 0.0
O206 O 0.36116 0.81546 0.67721 0.0
O207 O 0.4016 0.80483 0.69324 0.0
C208 C 0.42808 0.74805 0.96636 0.0
C209 C 0.42108 0.72684 0.93998 0.0
H210 H 0.4026 0.68964 0.87513 0.0
H211 H 0.38609 0.6892 0.75693 0.0
H212 H 0.43005 0.82467 0.9268 0.0
H213 H 0.43694 0.79191 0.00204 0.0
H214 H 0.43406 0.74934 0.01896 0.0
H215 H 0.4217 0.71214 0.97271 0.0
Mn216 Mn 0.47928 0.09084 0.00352 0.0
Mn217 Mn 0.50096 0.14342 0.02931 0.0
C218 C 0.48087 0.10527 0.11234 0.0
C219 C 0.49077 0.05248 0.99574 0.0
C220 C 0.44843 0.13373 0.97471 0.0
O221 O 0.49614 0.09829 0.91454 0.0
O222 O 0.51108 0.13323 0.93589 0.0
C223 C 0.55531 0.1326 0.03208 0.0
N224 N 0.53462 0.1414 0.06311 0.0
C225 C 0.55858 0.15082 0.16317 0.0
C226 C 0.58026 0.14227 0.13172 0.0
C227 C 0.57859 0.13306 0.06595 0.0
C228 C 0.53599 0.15026 0.12642 0.0
H229 H 0.55401 0.12514 0.98211 0.0
C230 C 0.50754 0.11623 0.89661 0.0
O231 O 0.4697 0.05973 0.96973 0.0
O232 O 0.50482 0.06747 0.02425 0.0
N233 N 0.49272 0.1553 0.1172 0.0
C234 C 0.46975 0.16093 0.1428 0.0
C235 C 0.46795 0.16988 0.20881 0.0
C236 C 0.48972 0.17234 0.24857 0.0
C237 C 0.51307 0.16584 0.22178 0.0
C238 C 0.5138 0.15767 0.15497 0.0
H239 H 0.4529 0.15767 0.11429 0.0
O240 O 0.46627 0.08836 0.09861 0.0
O241 O 0.49403 0.11304 0.0616 0.0
O242 O 0.44982 0.11205 0.97463 0.0
O243 O 0.46621 0.14658 0.9957 0.0
C244 C 0.53551 0.16654 0.25958 0.0
C245 C 0.55831 0.15917 0.23034 0.0
H246 H 0.59817 0.14231 0.15808 0.0
H247 H 0.59516 0.12614 0.04166 0.0
H248 H 0.44975 0.17427 0.22965 0.0
H249 H 0.48822 0.17872 0.30011 0.0
H250 H 0.53515 0.17228 0.31163 0.0
H251 H 0.5754 0.15956 0.26034 0.0
Mn252 Mn 0.15806 0.21725 0.2163 0.0
Mn253 Mn 0.09568 0.22242 0.23896 0.0
C254 C 0.14119 0.21679 0.32478 0.0
C255 C 0.19821 0.23325 0.21264 0.0
C256 C 0.1196 0.18002 0.18364 0.0
O257 O 0.14697 0.23215 0.12867 0.0
O258 O 0.10482 0.23428 0.14594 0.0
C259 C 0.09029 0.27192 0.23877 0.0
N260 N 0.08806 0.25187 0.27188 0.0
C261 C 0.07242 0.27014 0.37267 0.0
C262 C 0.07461 0.29097 0.33973 0.0
C263 C 0.08354 0.29185 0.27238 0.0
C264 C 0.07903 0.25077 0.33616 0.0
H265 H 0.09738 0.27276 0.18733 0.0
C266 C 0.12476 0.23764 0.10999 0.0
O267 O 0.19375 0.21365 0.18553 0.0
O268 O 0.17937 0.24382 0.23937 0.0
N269 N 0.0857 0.21213 0.32752 0.0
C270 C 0.08782 0.19109 0.35477 0.0
C271 C 0.08152 0.18762 0.42348 0.0
C272 C 0.07281 0.20568 0.46316 0.0
C273 C 0.0712 0.22724 0.4344 0.0
C274 C 0.07801 0.22976 0.36589 0.0
H275 H 0.09502 0.17724 0.32482 0.0
O276 O 0.162 0.20616 0.31182 0.0
O277 O 0.13009 0.22565 0.27216 0.0
O278 O 0.14226 0.18722 0.1836 0.0
O279 O 0.10108 0.19148 0.20588 0.0
C280 C 0.06418 0.24649 0.47191 0.0
C281 C 0.06468 0.26793 0.44094 0.0
H282 H 0.06999 0.30631 0.36657 0.0
H283 H 0.08566 0.30776 0.24636 0.0
H284 H 0.08391 0.17122 0.44649 0.0
H285 H 0.06815 0.20292 0.51622 0.0
H286 H 0.05882 0.24504 0.52496 0.0
H287 H 0.05958 0.28267 0.47051 0.0
Mn288 Mn 0.95927 0.91532 0.98863 0.0
Mn289 Mn 0.98298 0.86314 0.00695 0.0
C290 C 0.96227 0.89964 0.09534 0.0
C291 C 0.96962 0.95405 0.98488 0.0
C292 C 0.92971 0.87165 0.95723 0.0
O293 O 0.97584 0.90973 0.89848 0.0
O294 O 0.99112 0.87459 0.91369 0.0
C295 C 0.0367 0.87626 0.0042 0.0
N296 N 0.01701 0.86629 0.0369 0.0
C297 C 0.04276 0.85795 0.13434 0.0
C298 C 0.06336 0.86803 0.10164 0.0
C299 C 0.06031 0.87719 0.03621 0.0
C300 C 0.01977 0.85733 0.0997 0.0
H301 H 0.03436 0.8836 0.95431 0.0
C302 C 0.9871 0.89217 0.87729 0.0
O303 O 0.94854 0.94669 0.9591 0.0
O304 O 0.98414 0.93903 0.01112 0.0
N305 N 0.97678 0.85019 0.09461 0.0
C306 C 0.95451 0.84358 0.12245 0.0
C307 C 0.95411 0.83529 0.18947 0.0
C308 C 0.97655 0.8334 0.22655 0.0
C309 C 0.9992 0.84039 0.19694 0.0
C310 C 0.99849 0.84871 0.13019 0.0
H311 H 0.93713 0.84554 0.09467 0.0
O312 O 0.94683 0.91615 0.08433 0.0
O313 O 0.97527 0.89289 0.04303 0.0
O314 O 0.93054 0.89338 0.95858 0.0
O315 O 0.94784 0.859 0.9771 0.0
C316 C 0.02226 0.84032 0.23209 0.0
C317 C 0.04398 0.84905 0.20067 0.0
H318 H 0.08153 0.86895 0.12651 0.0
H319 H 0.07607 0.8851 0.01074 0.0
H320 H 0.93649 0.83121 0.21367 0.0
H321 H 0.97604 0.82728 0.27852 0.0
H322 H 0.0234 0.83401 0.28378 0.0
H323 H 0.06145 0.84909 0.22833 0.0
Mn324 Mn 0.8452 0.22769 0.73336 0.0
Mn325 Mn 0.80115 0.20861 0.62417 0.0
C326 C 0.80515 0.24254 0.73704 0.0
C327 C 0.86407 0.22572 0.84077 0.0
C328 C 0.84171 0.24179 0.58369 0.0
O329 O 0.86104 0.19874 0.69751 0.0
O330 O 0.83061 0.18758 0.62501 0.0
C331 C 0.78608 0.16758 0.69953 0.0
N332 N 0.77986 0.18765 0.67043 0.0
C333 C 0.73605 0.18228 0.69691 0.0
C334 C 0.74195 0.16148 0.72689 0.0
C335 C 0.76709 0.15414 0.72843 0.0
C336 C 0.75577 0.19494 0.66904 0.0
H337 H 0.80537 0.16187 0.70052 0.0
C338 C 0.85247 0.18535 0.65199 0.0
O339 O 0.87543 0.23555 0.79008 0.0
O340 O 0.84313 0.21561 0.8269 0.0
N341 N 0.77178 0.22712 0.61697 0.0
C342 C 0.76946 0.24802 0.58892 0.0
C343 C 0.74566 0.25829 0.5862 0.0
C344 C 0.72446 0.2468 0.61115 0.0
C345 C 0.72727 0.22517 0.63902 0.0
C346 C 0.75148 0.21586 0.64073 0.0
H347 H 0.78571 0.25686 0.5694 0.0
O348 O 0.82402 0.25361 0.76185 0.0
O349 O 0.81019 0.22276 0.71098 0.0
O350 O 0.8529 0.24312 0.64127 0.0
O351 O 0.82194 0.23004 0.57306 0.0
C352 C 0.7071 0.21263 0.66612 0.0
C353 C 0.71146 0.19118 0.69491 0.0
H354 H 0.72738 0.15111 0.74943 0.0
H355 H 0.77181 0.13816 0.75174 0.0
H356 H 0.74364 0.27499 0.56471 0.0
H357 H 0.70616 0.2548 0.60906 0.0
H358 H 0.68819 0.21939 0.66573 0.0
H359 H 0.69583 0.18181 0.71625 0.0
Mn360 Mn 0.53809 0.09286 0.51019 0.0
Mn361 Mn 0.5119 0.14429 0.52117 0.0
C362 C 0.53536 0.11052 0.61436 0.0
C363 C 0.52812 0.0539 0.51166 0.0
C364 C 0.56546 0.13669 0.47021 0.0
O365 O 0.52131 0.09658 0.41915 0.0
O366 O 0.5029 0.13056 0.43112 0.0
C367 C 0.45878 0.12945 0.52728 0.0
N368 N 0.47858 0.14054 0.55596 0.0
C369 C 0.45414 0.14973 0.65528 0.0
C370 C 0.43342 0.13857 0.62661 0.0
C371 C 0.43576 0.12839 0.5623 0.0
C372 C 0.47652 0.15042 0.61773 0.0
H373 H 0.46058 0.12141 0.47818 0.0
C374 C 0.5083 0.1129 0.3964 0.0
O375 O 0.54912 0.06104 0.48482 0.0
O376 O 0.51367 0.06922 0.53636 0.0
N377 N 0.51883 0.15965 0.60496 0.0
C378 C 0.54063 0.16959 0.62587 0.0
C379 C 0.54143 0.18033 0.68966 0.0
C380 C 0.51987 0.18093 0.73085 0.0
C381 C 0.49755 0.17098 0.70766 0.0
C382 C 0.49776 0.16068 0.64345 0.0
H383 H 0.55731 0.1691 0.59446 0.0
O384 O 0.55085 0.0939 0.60564 0.0
O385 O 0.52168 0.1158 0.56188 0.0
O386 O 0.56621 0.11506 0.47723 0.0
O387 O 0.54635 0.14863 0.48704 0.0
C388 C 0.47519 0.17066 0.74608 0.0
C389 C 0.45353 0.16002 0.71988 0.0
H390 H 0.41568 0.13764 0.65365 0.0
H391 H 0.41989 0.11965 0.53994 0.0
H392 H 0.55864 0.18791 0.70773 0.0
H393 H 0.5207 0.18901 0.78029 0.0
H394 H 0.47446 0.17843 0.79599 0.0
H395 H 0.4365 0.15987 0.74979 0.0
Mn396 Mn 0.65779 0.7827 0.23577 0.0
Mn397 Mn 0.70163 0.80204 0.12683 0.0
C398 C 0.69745 0.76684 0.23631 0.0
C399 C 0.64019 0.78416 0.34536 0.0
C400 C 0.66121 0.76905 0.08468 0.0
O401 O 0.64215 0.81222 0.20291 0.0
O402 O 0.67182 0.82247 0.12741 0.0
C403 C 0.71452 0.84235 0.20839 0.0
N404 N 0.72175 0.82288 0.17718 0.0
C405 C 0.76392 0.82663 0.22008 0.0
C406 C 0.75701 0.84683 0.25219 0.0
C407 C 0.7322 0.85475 0.24614 0.0
C408 C 0.74561 0.81522 0.18208 0.0
H409 H 0.69536 0.84827 0.20499 0.0
C410 C 0.65039 0.82521 0.15599 0.0
O411 O 0.62796 0.77495 0.29502 0.0
O412 O 0.66102 0.7941 0.32989 0.0
N413 N 0.73155 0.78433 0.11948 0.0
C414 C 0.73506 0.76446 0.08595 0.0
C415 C 0.75894 0.75429 0.08659 0.0
C416 C 0.77888 0.76467 0.12162 0.0
C417 C 0.77488 0.78534 0.15468 0.0
C418 C 0.7509 0.79498 0.15058 0.0
H419 H 0.71965 0.7563 0.05983 0.0
O420 O 0.67844 0.75611 0.26149 0.0
O421 O 0.69277 0.78696 0.21221 0.0
O422 O 0.64966 0.76814 0.14209 0.0
O423 O 0.6814 0.78038 0.07433 0.0
C424 C 0.79334 0.79624 0.19432 0.0
C425 C 0.78799 0.81697 0.22631 0.0
H426 H 0.7705 0.85625 0.28225 0.0
H427 H 0.72666 0.87023 0.27119 0.0
H428 H 0.76187 0.73832 0.06111 0.0
H429 H 0.79709 0.75651 0.12334 0.0
H430 H 0.81136 0.7884 0.20299 0.0
H431 H 0.80237 0.82508 0.25686 0.0
Mn432 Mn 0.96221 0.08833 0.49826 0.0
Mn433 Mn 0.98374 0.14131 0.48311 0.0
C434 C 0.96475 0.10465 0.39195 0.0
C435 C 0.97434 0.05016 0.50078 0.0
C436 C 0.9309 0.13024 0.53277 0.0
O437 O 0.9779 0.09441 0.5901 0.0
O438 O 0.9938 0.12933 0.57447 0.0
C439 C 0.03744 0.12859 0.47709 0.0
N440 N 0.01728 0.1392 0.44867 0.0
C441 C 0.04073 0.14747 0.3469 0.0
C442 C 0.06174 0.13666 0.37513 0.0
C443 C 0.06009 0.12722 0.44057 0.0
C444 C 0.01863 0.14827 0.38566 0.0
H445 H 0.03609 0.12087 0.52674 0.0
C446 C 0.9897 0.11179 0.61102 0.0
O447 O 0.95281 0.05655 0.52612 0.0
O448 O 0.98839 0.06588 0.47634 0.0
N449 N 0.97569 0.15486 0.39735 0.0
C450 C 0.95288 0.1617 0.3735 0.0
C451 C 0.95112 0.1706 0.30735 0.0
C452 C 0.97275 0.17276 0.26699 0.0
C453 C 0.99598 0.16556 0.29255 0.0
C454 C 0.99668 0.15685 0.35883 0.0
H455 H 0.93612 0.15976 0.40403 0.0
O456 O 0.95039 0.08728 0.40171 0.0
O457 O 0.97699 0.11167 0.44523 0.0
O458 O 0.93229 0.10868 0.52668 0.0
O459 O 0.94877 0.14392 0.51752 0.0
C460 C 0.01823 0.16581 0.25373 0.0
C461 C 0.04056 0.15674 0.28088 0.0
H462 H 0.07917 0.13536 0.34687 0.0
H463 H 0.07618 0.11873 0.46251 0.0
H464 H 0.93309 0.17507 0.28629 0.0
H465 H 0.97116 0.1793 0.21565 0.0
H466 H 0.01825 0.17242 0.2023 0.0
H467 H 0.05736 0.1567 0.25004 0.0
Mn468 Mn 0.66159 0.2299 0.26951 0.0
Mn469 Mn 0.70177 0.20526 0.37911 0.0
C470 C 0.70278 0.24113 0.27028 0.0
C471 C 0.64307 0.23074 0.16198 0.0
C472 C 0.66533 0.24187 0.42099 0.0
O473 O 0.64243 0.20235 0.30051 0.0
O474 O 0.66975 0.18711 0.37507 0.0
C475 C 0.71235 0.16384 0.30015 0.0
N476 N 0.72074 0.1829 0.33146 0.0
C477 C 0.7638 0.17389 0.30497 0.0
C478 C 0.75563 0.15408 0.27273 0.0
C479 C 0.72979 0.14908 0.27013 0.0
C480 C 0.74555 0.18793 0.33403 0.0
H481 H 0.6925 0.15994 0.29825 0.0
C482 C 0.64816 0.18779 0.34569 0.0
O483 O 0.63266 0.24101 0.21335 0.0
O484 O 0.6629 0.21886 0.17489 0.0
N485 N 0.73316 0.22075 0.38949 0.0
C486 C 0.73776 0.24111 0.41922 0.0
C487 C 0.76255 0.24934 0.42187 0.0
C488 C 0.78239 0.23627 0.39605 0.0
C489 C 0.77725 0.21517 0.36693 0.0
C490 C 0.75213 0.20801 0.36458 0.0
H491 H 0.72256 0.25119 0.43934 0.0
O492 O 0.68546 0.25407 0.24542 0.0
O493 O 0.6955 0.22144 0.29336 0.0
O494 O 0.65496 0.24485 0.36287 0.0
O495 O 0.68335 0.22806 0.4317 0.0
C496 C 0.79599 0.20117 0.33885 0.0
C497 C 0.78928 0.1805 0.30812 0.0
H498 H 0.76901 0.1427 0.24925 0.0
H499 H 0.72334 0.13388 0.24507 0.0
H500 H 0.76635 0.26576 0.44361 0.0
H501 H 0.80144 0.24271 0.39818 0.0
H502 H 0.81558 0.20626 0.33997 0.0
H503 H 0.80382 0.16999 0.28603 0.0
Mn504 Mn 0.53823 0.92063 0.00418 0.0
Mn505 Mn 0.51937 0.86675 0.98747 0.0
C506 C 0.53759 0.90401 0.89818 0.0
C507 C 0.52484 0.95858 0.00552 0.0
C508 C 0.57138 0.87968 0.03865 0.0
O509 O 0.52186 0.91416 0.09484 0.0
O510 O 0.50912 0.8782 0.07935 0.0
C511 C 0.46494 0.87703 0.98362 0.0
N512 N 0.48559 0.86767 0.95391 0.0
C513 C 0.4619 0.85808 0.85355 0.0
C514 C 0.44027 0.86718 0.88384 0.0
C515 C 0.44182 0.87673 0.94912 0.0
C516 C 0.48435 0.85858 0.89091 0.0
H517 H 0.4662 0.88493 0.03285 0.0
C518 C 0.51146 0.89608 0.11556 0.0
O519 O 0.54626 0.95266 0.03253 0.0
O520 O 0.51151 0.94252 0.97999 0.0
N521 N 0.52762 0.85359 0.90117 0.0
C522 C 0.55055 0.8472 0.87702 0.0
C523 C 0.5524 0.83823 0.81095 0.0
C524 C 0.53073 0.83559 0.77091 0.0
C525 C 0.50733 0.84219 0.79694 0.0
C526 C 0.50657 0.85095 0.86316 0.0
H527 H 0.56731 0.84948 0.90733 0.0
O528 O 0.55106 0.92189 0.90873 0.0
O529 O 0.5249 0.89671 0.95032 0.0
O530 O 0.56864 0.9012 0.03505 0.0
O531 O 0.55455 0.86531 0.02079 0.0
C532 C 0.48488 0.84111 0.75889 0.0
C533 C 0.46218 0.84909 0.78714 0.0
H534 H 0.42239 0.86692 0.85755 0.0
H535 H 0.42527 0.88401 0.97253 0.0
H536 H 0.57052 0.83397 0.78992 0.0
H537 H 0.53236 0.82898 0.71966 0.0
H538 H 0.48494 0.83455 0.70739 0.0
H539 H 0.44515 0.84853 0.75694 0.0
Mn540 Mn 0.84203 0.77261 0.7568 0.0
Mn541 Mn 0.79929 0.79612 0.86225 0.0
C542 C 0.80066 0.76054 0.75307 0.0
C543 C 0.86222 0.77216 0.65135 0.0
C544 C 0.83682 0.76054 0.90693 0.0
O545 O 0.86044 0.80054 0.79215 0.0
O546 O 0.82996 0.81571 0.8577 0.0
C547 C 0.78664 0.83605 0.77878 0.0
N548 N 0.77921 0.81717 0.81271 0.0
C549 C 0.73574 0.82406 0.78545 0.0
C550 C 0.7429 0.84368 0.75053 0.0
C551 C 0.76847 0.84966 0.74702 0.0
C552 C 0.75468 0.81119 0.81608 0.0
H553 H 0.80629 0.84066 0.77604 0.0
C554 C 0.8522 0.81579 0.83233 0.0
O555 O 0.87198 0.76202 0.70378 0.0
O556 O 0.84214 0.78399 0.66226 0.0
N557 N 0.76879 0.77935 0.87373 0.0
C558 C 0.76517 0.7594 0.90683 0.0
C559 C 0.7407 0.75067 0.91318 0.0
C560 C 0.72017 0.76276 0.88685 0.0
C561 C 0.72431 0.78346 0.85412 0.0
C562 C 0.74913 0.79128 0.84915 0.0
H563 H 0.78087 0.75014 0.9277 0.0
O564 O 0.81858 0.74819 0.72866 0.0
O565 O 0.80733 0.78014 0.77757 0.0
O566 O 0.84754 0.75721 0.8496 0.0
O567 O 0.81875 0.77443 0.91616 0.0
C568 C 0.70488 0.79638 0.82482 0.0
C569 C 0.71059 0.81663 0.79032 0.0
H570 H 0.72895 0.85419 0.72585 0.0
H571 H 0.77415 0.86472 0.71992 0.0
H572 H 0.73766 0.73468 0.93845 0.0
H573 H 0.70137 0.75589 0.89153 0.0
H574 H 0.68552 0.79076 0.82764 0.0
H575 H 0.69552 0.82625 0.76724 0.0
Mn576 Mn 0.51619 0.58773 0.51724 0.0
Mn577 Mn 0.49033 0.63905 0.50003 0.0
C578 C 0.51213 0.60363 0.41111 0.0
C579 C 0.5077 0.54859 0.51977 0.0
C580 C 0.54455 0.63247 0.5438 0.0
O581 O 0.49993 0.59249 0.60862 0.0
O582 O 0.48467 0.62762 0.59436 0.0
C583 C 0.43843 0.62142 0.50931 0.0
N584 N 0.456 0.63395 0.47589 0.0
C585 C 0.42693 0.64213 0.38573 0.0
C586 C 0.40811 0.63036 0.421 0.0
C587 C 0.41399 0.61972 0.48278 0.0
C588 C 0.45083 0.64351 0.41518 0.0
H589 H 0.44321 0.61231 0.55485 0.0
C590 C 0.48876 0.61003 0.63043 0.0
O591 O 0.52854 0.55665 0.54507 0.0
O592 O 0.49227 0.56317 0.49514 0.0
N593 N 0.49345 0.65243 0.41154 0.0
C594 C 0.51419 0.66119 0.38073 0.0
C595 C 0.512 0.67114 0.31609 0.0
C596 C 0.48848 0.67188 0.28359 0.0
C597 C 0.46736 0.66272 0.3162 0.0
C598 C 0.47065 0.65335 0.38107 0.0
H599 H 0.53231 0.65996 0.40443 0.0
O600 O 0.5282 0.58755 0.42108 0.0
O601 O 0.49897 0.60968 0.46372 0.0
O602 O 0.54403 0.61074 0.54592 0.0
O603 O 0.52598 0.64467 0.52382 0.0
C604 C 0.44325 0.66212 0.28641 0.0
C605 C 0.42312 0.65175 0.32126 0.0
H606 H 0.38933 0.62877 0.40005 0.0
H607 H 0.39985 0.60994 0.5093 0.0
H608 H 0.52848 0.67793 0.29097 0.0
H609 H 0.48691 0.67926 0.23331 0.0
H610 H 0.44009 0.66922 0.23631 0.0
H611 H 0.40482 0.6507 0.29792 0.0
Mn612 Mn 0.66341 0.28821 0.78319 0.0
Mn613 Mn 0.60284 0.27443 0.75896 0.0
C614 C 0.64685 0.28694 0.67456 0.0
C615 C 0.70505 0.27608 0.78905 0.0
C616 C 0.61918 0.32001 0.81318 0.0
O617 O 0.65434 0.27267 0.8714 0.0
O618 O 0.61327 0.26475 0.85235 0.0
C619 C 0.61071 0.22503 0.75852 0.0
N620 N 0.60229 0.24399 0.7266 0.0
C621 C 0.594 0.22326 0.62368 0.0
C622 C 0.6026 0.20355 0.65544 0.0
C623 C 0.61086 0.20442 0.72329 0.0
C624 C 0.59406 0.24331 0.66152 0.0
H625 H 0.61768 0.22567 0.81011 0.0
C626 C 0.63311 0.26461 0.88957 0.0
O627 O 0.69845 0.29541 0.81487 0.0
O628 O 0.68764 0.26392 0.76161 0.0
N629 N 0.59105 0.28241 0.67002 0.0
C630 C 0.58719 0.30333 0.64341 0.0
C631 C 0.57987 0.30545 0.57496 0.0
C632 C 0.57674 0.28612 0.53461 0.0
C633 C 0.58111 0.26479 0.5629 0.0
C634 C 0.58796 0.26364 0.63167 0.0
H635 H 0.59026 0.31823 0.67385 0.0
O636 O 0.66625 0.29954 0.68741 0.0
O637 O 0.63726 0.27679 0.72705 0.0
O638 O 0.64284 0.31597 0.81365 0.0
O639 O 0.60258 0.30611 0.79123 0.0
C640 C 0.58003 0.24473 0.52464 0.0
C641 C 0.58652 0.22398 0.55498 0.0
H642 H 0.6031 0.18768 0.62808 0.0
H643 H 0.61762 0.18929 0.74811 0.0
H644 H 0.57719 0.32191 0.5526 0.0
H645 H 0.57158 0.28789 0.48151 0.0
H646 H 0.57493 0.24524 0.47133 0.0
H647 H 0.58637 0.20872 0.52469 0.0
Mn648 Mn 0.9857 0.41527 0.99918 0.0
Mn649 Mn 0.00665 0.36167 0.99924 0.0
C650 C 0.98823 0.3954 0.89848 0.0
C651 C 0.99566 0.45385 0.9928 0.0
C652 C 0.95352 0.37437 0.04057 0.0
O653 O 0.00173 0.41258 0.09186 0.0
O654 O 0.01491 0.37642 0.08859 0.0
C655 C 0.06146 0.37058 0.00389 0.0
N656 N 0.04115 0.36158 0.97141 0.0
C657 C 0.06751 0.34533 0.88464 0.0
C658 C 0.08873 0.35422 0.9176 0.0
C659 C 0.08566 0.36704 0.9772 0.0
C660 C 0.04388 0.34945 0.91356 0.0
H661 H 0.05924 0.38021 0.05012 0.0
C662 C 0.01217 0.39547 0.1188 0.0
O663 O 0.97459 0.44692 0.01943 0.0
O664 O 0.01077 0.43839 0.97092 0.0
N665 N 0.00034 0.34558 0.91633 0.0
C666 C 0.97804 0.33798 0.89106 0.0
C667 C 0.97768 0.32572 0.82989 0.0
C668 C 0.00034 0.32105 0.79591 0.0
C669 C 0.02314 0.32868 0.82351 0.0
C670 C 0.02226 0.34109 0.88419 0.0
H671 H 0.96069 0.34148 0.91705 0.0
O672 O 0.97363 0.41282 0.90371 0.0
O673 O 0.00129 0.39033 0.95251 0.0
O674 O 0.95592 0.39577 0.03399 0.0
O675 O 0.97098 0.36021 0.02714 0.0
C676 C 0.04671 0.32432 0.79349 0.0
C677 C 0.0689 0.3324 0.82449 0.0
H678 H 0.10745 0.35135 0.89756 0.0
H679 H 0.10194 0.37402 0.00282 0.0
H680 H 0.95999 0.31985 0.80907 0.0
H681 H 1.00002 0.3115 0.74886 0.0
H682 H 0.04801 0.31462 0.74687 0.0
H683 H 0.08691 0.32855 0.80157 0.0
Mn684 Mn 0.83805 0.71655 0.27435 0.0
Mn685 Mn 0.89957 0.7262 0.24626 0.0
C686 C 0.85362 0.71759 0.16464 0.0
C687 C 0.79694 0.73031 0.28331 0.0
C688 C 0.87995 0.68192 0.30121 0.0
O689 O 0.84918 0.73147 0.36184 0.0
O690 O 0.89073 0.73666 0.34056 0.0
C691 C 0.89881 0.77601 0.24805 0.0
N692 N 0.90366 0.7564 0.21442 0.0
C693 C 0.91519 0.77646 0.11264 0.0
C694 C 0.91011 0.79683 0.14601 0.0
C695 C 0.90191 0.79661 0.21404 0.0
C696 C 0.91187 0.75642 0.14925 0.0
H697 H 0.89208 0.77594 0.2999 0.0
C698 C 0.87115 0.73821 0.37878 0.0
O699 O 0.803 0.71077 0.30846 0.0
O700 O 0.8147 0.74196 0.25532 0.0
N701 N 0.90953 0.7173 0.15635 0.0
C702 C 0.90984 0.69625 0.12849 0.0
C703 C 0.91603 0.69366 0.05936 0.0
C704 C 0.92192 0.71263 0.01974 0.0
C705 C 0.92111 0.73413 0.04921 0.0
C706 C 0.91488 0.73572 0.11838 0.0
H707 H 0.90469 0.68167 0.15836 0.0
O708 O 0.83364 0.70585 0.17848 0.0
O709 O 0.8646 0.72685 0.21673 0.0
O710 O 0.85673 0.68751 0.30336 0.0
O711 O 0.89728 0.69475 0.27821 0.0
C712 C 0.92513 0.75409 0.01184 0.0
C713 C 0.9222 0.77525 0.04357 0.0
H714 H 0.91148 0.81268 0.11905 0.0
H715 H 0.89741 0.81224 0.23973 0.0
H716 H 0.91566 0.67718 0.03594 0.0
H717 H 0.92634 0.71053 0.96626 0.0
H718 H 0.92992 0.75336 0.95826 0.0
H719 H 0.92481 0.79048 0.01396 0.0
Mn720 Mn 0.51795 0.4153 0.99913 0.0
Mn721 Mn 0.50395 0.36013 0.01487 0.0
C722 C 0.51869 0.39834 0.10482 0.0
C723 C 0.50268 0.45264 0.99909 0.0
C724 C 0.55435 0.37691 0.96207 0.0
O725 O 0.50147 0.40806 0.90909 0.0
O726 O 0.49199 0.37119 0.92382 0.0
C727 C 0.44845 0.3643 0.02038 0.0
N728 N 0.47044 0.35767 0.04976 0.0
C729 C 0.44855 0.34367 0.14844 0.0
C730 C 0.42564 0.35007 0.11877 0.0
C731 C 0.42561 0.36052 0.05456 0.0
C732 C 0.47069 0.34779 0.1118 0.0
H733 H 0.44838 0.37248 0.9714 0.0
C734 C 0.49249 0.38935 0.88821 0.0
O735 O 0.52417 0.44754 0.97117 0.0
O736 O 0.49013 0.43607 0.02482 0.0
N737 N 0.51423 0.34743 0.10016 0.0
C738 C 0.5379 0.34265 0.12235 0.0
C739 C 0.54131 0.33281 0.18671 0.0
C740 C 0.52032 0.32785 0.22748 0.0
C741 C 0.49609 0.33265 0.20324 0.0
C742 C 0.49388 0.34238 0.13852 0.0
H743 H 0.55401 0.3465 0.09135 0.0
O744 O 0.53105 0.41686 0.09422 0.0
O745 O 0.50641 0.39039 0.05279 0.0
O746 O 0.54965 0.39811 0.96574 0.0
O747 O 0.53887 0.3615 0.98035 0.0
C748 C 0.47407 0.32822 0.24081 0.0
C749 C 0.45032 0.3336 0.21323 0.0
H750 H 0.40801 0.34726 0.14514 0.0
H751 H 0.40804 0.3657 0.03156 0.0
H752 H 0.56009 0.32912 0.20494 0.0
H753 H 0.52301 0.32037 0.27727 0.0
H754 H 0.47517 0.32067 0.29096 0.0
H755 H 0.43356 0.32993 0.24238 0.0
Mn756 Mn 0.84565 0.28364 0.21966 0.0
Mn757 Mn 0.906 0.26952 0.24339 0.0
C758 C 0.86275 0.28385 0.32787 0.0
C759 C 0.80403 0.27151 0.21703 0.0
C760 C 0.89002 0.31456 0.18425 0.0
O761 O 0.85413 0.26702 0.13257 0.0
O762 O 0.89495 0.2584 0.15181 0.0
C763 C 0.89447 0.22099 0.25468 0.0
N764 N 0.90543 0.23981 0.2813 0.0
C765 C 0.91234 0.22117 0.38858 0.0
C766 C 0.90127 0.20161 0.36207 0.0
C767 C 0.89215 0.20156 0.29497 0.0
C768 C 0.91384 0.24018 0.34631 0.0
H769 H 0.88678 0.22101 0.2038 0.0
C770 C 0.87504 0.25824 0.11483 0.0
O771 O 0.81052 0.29049 0.18867 0.0
O772 O 0.82154 0.25965 0.24495 0.0
N773 N 0.91871 0.27886 0.3303 0.0
C774 C 0.9244 0.30005 0.35225 0.0
C775 C 0.93263 0.30324 0.41959 0.0
C776 C 0.93473 0.28472 0.46367 0.0
C777 C 0.92865 0.2631 0.44007 0.0
C778 C 0.9212 0.26081 0.37196 0.0
H779 H 0.92233 0.3144 0.31887 0.0
O780 O 0.84331 0.29626 0.31423 0.0
O781 O 0.87194 0.27305 0.27615 0.0
O782 O 0.86628 0.31088 0.18594 0.0
O783 O 0.90666 0.30061 0.20591 0.0
C784 C 0.92869 0.24389 0.48232 0.0
C785 C 0.92037 0.22297 0.45672 0.0
H786 H 0.89925 0.18666 0.39321 0.0
H787 H 0.88321 0.18661 0.27455 0.0
H788 H 0.93691 0.31993 0.43823 0.0
H789 H 0.94054 0.28737 0.51595 0.0
H790 H 0.93427 0.2452 0.53523 0.0
H791 H 0.91948 0.20851 0.49042 0.0
Mn792 Mn 0.98047 0.58735 0.49148 0.0
Mn793 Mn 0.99815 0.64182 0.49709 0.0
C794 C 0.98177 0.60639 0.5942 0.0
C795 C 0.99388 0.54954 0.49789 0.0
C796 C 0.94619 0.62671 0.45051 0.0
O797 O 0.9965 0.59195 0.39904 0.0
O798 O 0.00873 0.62837 0.40769 0.0
C799 C 0.05324 0.63462 0.50077 0.0
N800 N 0.032 0.64298 0.53009 0.0
C801 C 0.05554 0.65693 0.62603 0.0
C802 C 0.07773 0.64896 0.59587 0.0
C803 C 0.07655 0.63761 0.53319 0.0
C804 C 0.0329 0.65368 0.59084 0.0
H805 H 0.05235 0.62569 0.45316 0.0
C806 C 0.00678 0.60967 0.375 0.0
O807 O 0.97237 0.55481 0.47031 0.0
O808 O 0.00742 0.56614 0.51923 0.0
N809 N 0.98942 0.65663 0.58063 0.0
C810 C 0.96632 0.66334 0.60283 0.0
C811 C 0.96413 0.67451 0.66563 0.0
C812 C 0.98571 0.67867 0.705 0.0
C813 C 0.00933 0.6718 0.68087 0.0
C814 C 0.01036 0.66095 0.61756 0.0
H815 H 0.9497 0.66001 0.57312 0.0
O816 O 0.96825 0.58832 0.58771 0.0
O817 O 0.99393 0.61261 0.54 0.0
O818 O 0.9495 0.60539 0.45753 0.0
O819 O 0.9629 0.64157 0.46486 0.0
C820 C 0.03187 0.67522 0.71727 0.0
C821 C 0.05497 0.66785 0.68978 0.0
H822 H 0.09578 0.65138 0.6204 0.0
H823 H 0.09355 0.63116 0.50995 0.0
H824 H 0.94583 0.67978 0.68384 0.0
H825 H 0.98393 0.68712 0.75368 0.0
H826 H 0.03165 0.68349 0.76646 0.0
H827 H 0.07217 0.67059 0.71822 0.0
Mn828 Mn 0.65501 0.72218 0.72277 0.0
Mn829 Mn 0.59595 0.74028 0.74652 0.0
C830 C 0.63866 0.72449 0.83204 0.0
C831 C 0.69745 0.73201 0.7153 0.0
C832 C 0.60875 0.69439 0.68583 0.0
O833 O 0.64664 0.73823 0.63413 0.0
O834 O 0.60831 0.7529 0.65799 0.0
C835 C 0.60851 0.78826 0.76837 0.0
N836 N 0.59735 0.76896 0.79083 0.0
C837 C 0.58919 0.78547 0.90063 0.0
C838 C 0.6003 0.80558 0.87833 0.0
C839 C 0.61025 0.80691 0.81219 0.0
C840 C 0.58821 0.76734 0.85495 0.0
H841 H 0.61663 0.7892 0.71802 0.0
C842 C 0.62747 0.75025 0.61893 0.0
O843 O 0.6893 0.71306 0.69011 0.0
O844 O 0.68106 0.74519 0.74308 0.0
N845 N 0.58244 0.72926 0.83063 0.0
C846 C 0.57595 0.70776 0.84761 0.0
C847 C 0.56693 0.7032 0.91343 0.0
C848 C 0.56488 0.72074 0.96118 0.0
C849 C 0.5718 0.74271 0.94265 0.0
C850 C 0.58012 0.74635 0.87584 0.0
H851 H 0.57787 0.69417 0.81141 0.0
O852 O 0.6573 0.711 0.81922 0.0
O853 O 0.62981 0.73489 0.77916 0.0
O854 O 0.63261 0.69542 0.69389 0.0
O855 O 0.59362 0.71032 0.7021 0.0
C856 C 0.57159 0.76099 0.98854 0.0
C857 C 0.58039 0.78233 0.96763 0.0
H858 H 0.60169 0.81993 0.91212 0.0
H859 H 0.61928 0.82227 0.79512 0.0
H860 H 0.56189 0.68619 0.92776 0.0
H861 H 0.55836 0.71706 0.01226 0.0
H862 H 0.56534 0.75866 0.04057 0.0
H863 H 0.58092 0.79608 0.00399 0.0
Mn864 Mn 0.46472 0.41555 0.50105 0.0
Mn865 Mn 0.48304 0.36137 0.51314 0.0
C866 C 0.46545 0.39817 0.60589 0.0
C867 C 0.47791 0.45357 0.50072 0.0
C868 C 0.43141 0.37519 0.46201 0.0
O869 O 0.48072 0.40943 0.40954 0.0
O870 O 0.49437 0.37367 0.42346 0.0
C871 C 0.5375 0.37082 0.52221 0.0
N872 N 0.51639 0.36131 0.54909 0.0
C873 C 0.53877 0.34973 0.64959 0.0
C874 C 0.56076 0.3594 0.62292 0.0
C875 C 0.56013 0.36995 0.55893 0.0
C876 C 0.51677 0.35116 0.61068 0.0
H877 H 0.53697 0.37927 0.47351 0.0
C878 C 0.49154 0.39163 0.38801 0.0
O879 O 0.45645 0.44755 0.4742 0.0
O880 O 0.49153 0.43754 0.52542 0.0
N881 N 0.47347 0.34734 0.59704 0.0
C882 C 0.45011 0.3412 0.61882 0.0
C883 C 0.44736 0.33133 0.68345 0.0
C884 C 0.46856 0.32753 0.72437 0.0
C885 C 0.4924 0.3338 0.7006 0.0
C886 C 0.49407 0.34356 0.63581 0.0
H887 H 0.4337 0.34428 0.58776 0.0
O888 O 0.45225 0.4163 0.5968 0.0
O889 O 0.47799 0.3911 0.55315 0.0
O890 O 0.43394 0.39658 0.46997 0.0
O891 O 0.44836 0.36067 0.47693 0.0
C892 C 0.51447 0.33138 0.73954 0.0
C893 C 0.53762 0.33929 0.71399 0.0
H894 H 0.57825 0.3589 0.65098 0.0
H895 H 0.57701 0.37749 0.53815 0.0
H896 H 0.42893 0.32715 0.70267 0.0
H897 H 0.46625 0.32019 0.7745 0.0
H898 H 0.51378 0.32382 0.78974 0.0
H899 H 0.55432 0.33744 0.74476 0.0
Mn900 Mn 0.34255 0.73062 0.22161 0.0
Mn901 Mn 0.29908 0.71244 0.10963 0.0
C902 C 0.30251 0.74558 0.22496 0.0
C903 C 0.36067 0.72822 0.32979 0.0
C904 C 0.34117 0.74453 0.07225 0.0
O905 O 0.35788 0.7015 0.18475 0.0
O906 O 0.32682 0.68981 0.11444 0.0
C907 C 0.2799 0.67287 0.18509 0.0
N908 N 0.27565 0.69307 0.15422 0.0
C909 C 0.23167 0.69174 0.18261 0.0
C910 C 0.23549 0.67082 0.21427 0.0
C911 C 0.25972 0.66133 0.21543 0.0
C912 C 0.25239 0.70223 0.15204 0.0
H913 H 0.29858 0.66571 0.18674 0.0
C914 C 0.34868 0.68762 0.14134 0.0
O915 O 0.37251 0.73797 0.27978 0.0
O916 O 0.33982 0.71815 0.31463 0.0
N917 N 0.27161 0.73287 0.09934 0.0
C918 C 0.27169 0.7542 0.0735 0.0
C919 C 0.24919 0.7666 0.07197 0.0
C920 C 0.22689 0.75688 0.09647 0.0
C921 C 0.22738 0.73492 0.1229 0.0
C922 C 0.25024 0.72328 0.12261 0.0
H923 H 0.28887 0.76183 0.05519 0.0
O924 O 0.32132 0.75651 0.25073 0.0
O925 O 0.30776 0.72609 0.19746 0.0
O926 O 0.35112 0.74662 0.13116 0.0
O927 O 0.32195 0.73231 0.05988 0.0
C928 C 0.20639 0.72466 0.15319 0.0
C929 C 0.20837 0.70303 0.1826 0.0
H930 H 0.22004 0.66205 0.2387 0.0
H931 H 0.26286 0.64527 0.2402 0.0
H932 H 0.24909 0.78367 0.05245 0.0
H933 H 0.20962 0.76659 0.09615 0.0
H934 H 0.18901 0.73385 0.15668 0.0
H935 H 0.19209 0.69557 0.20698 0.0
Mn936 Mn 0.03863 0.58658 0.98372 0.0
Mn937 Mn 0.0193 0.63999 0.00744 0.0
C938 C 0.03584 0.60087 0.09246 0.0
C939 C 0.02599 0.54857 0.97481 0.0
C940 C 0.07234 0.62841 0.96183 0.0
O941 O 0.02342 0.59439 0.89286 0.0
O942 O 0.01138 0.63032 0.91176 0.0
C943 C 0.9648 0.63026 0.99825 0.0
N944 N 0.98467 0.63891 0.03348 0.0
C945 C 0.95806 0.64871 0.12808 0.0
C946 C 0.9373 0.64007 0.09251 0.0
C947 C 0.94069 0.6308 0.02736 0.0
C948 C 0.98162 0.64782 0.0963 0.0
H949 H 0.96737 0.62284 0.94857 0.0
C950 C 0.01392 0.61298 0.87324 0.0
O951 O 0.04772 0.55518 0.95134 0.0
O952 O 0.01201 0.564 0.00117 0.0
N953 N 0.0252 0.65143 0.09722 0.0
C954 C 0.04751 0.6555 0.12892 0.0
C955 C 0.04754 0.66281 0.197 0.0
C956 C 0.02473 0.66663 0.23099 0.0
C957 C 0.002 0.6623 0.19739 0.0
C958 C 0.00308 0.65457 0.12998 0.0
H959 H 0.0651 0.65219 0.10336 0.0
O960 O 0.05001 0.5836 0.07987 0.0
O961 O 0.02378 0.60925 0.04053 0.0
O962 O 0.06935 0.60689 0.95895 0.0
O963 O 0.05527 0.64214 0.98198 0.0
C964 C 0.97839 0.66421 0.22935 0.0
C965 C 0.95642 0.65756 0.19455 0.0
H966 H 0.91866 0.64044 0.11466 0.0
H967 H 0.92477 0.62402 0.99976 0.0
H968 H 0.06508 0.66482 0.224 0.0
H969 H 0.02492 0.67205 0.28368 0.0
H970 H 0.97696 0.67023 0.28132 0.0
H971 H 0.93846 0.65889 0.22004 0.0
Mn972 Mn 0.15338 0.27353 0.73286 0.0
Mn973 Mn 0.19833 0.29232 0.62568 0.0
C974 C 0.19321 0.25773 0.73558 0.0
C975 C 0.1339 0.27401 0.83989 0.0
C976 C 0.15762 0.25977 0.58221 0.0
O977 O 0.13863 0.30373 0.70078 0.0
O978 O 0.16917 0.31337 0.62665 0.0
C979 C 0.21253 0.33266 0.70574 0.0
N980 N 0.21914 0.31301 0.67454 0.0
C981 C 0.26253 0.31799 0.70586 0.0
C982 C 0.25624 0.33836 0.7379 0.0
C983 C 0.23111 0.34569 0.73798 0.0
C984 C 0.24322 0.30575 0.6744 0.0
H985 H 0.19323 0.33832 0.70608 0.0
C986 C 0.14799 0.31691 0.65578 0.0
O987 O 0.12266 0.26531 0.7872 0.0
O988 O 0.15514 0.28401 0.82855 0.0
N989 N 0.22781 0.27401 0.61838 0.0
C990 C 0.23052 0.2535 0.58792 0.0
C991 C 0.25446 0.24352 0.58479 0.0
C992 C 0.27536 0.25483 0.61232 0.0
C993 C 0.27213 0.27605 0.64268 0.0
C994 C 0.24787 0.28521 0.64393 0.0
H995 H 0.21449 0.24479 0.56659 0.0
O996 O 0.17394 0.24677 0.75856 0.0
O997 O 0.1887 0.27786 0.71163 0.0
O998 O 0.14569 0.25925 0.63882 0.0
O999 O 0.17787 0.27097 0.5725 0.0
C1000 C 0.29188 0.28825 0.67333 0.0
C1001 C 0.28711 0.30917 0.70488 0.0
H1002 H 0.27052 0.34842 0.76304 0.0
H1003 H 0.22608 0.36134 0.76289 0.0
H1004 H 0.2568 0.22714 0.56129 0.0
H1005 H 0.29373 0.24696 0.6104 0.0
H1006 H 0.31071 0.28154 0.67424 0.0
H1007 H 0.30245 0.31821 0.72891 0.0
Mn1008 Mn 0.45729 0.58483 0.01609 0.0
Mn1009 Mn 0.47892 0.63807 1.00022 0.0
C1010 C 0.46042 0.60095 0.91072 0.0
C1011 C 0.46845 0.54633 0.02004 0.0
C1012 C 0.42534 0.62735 0.04194 0.0
O1013 O 0.47239 0.59096 0.10811 0.0
O1014 O 0.48609 0.62668 0.09388 0.0
C1015 C 0.53298 0.62643 0.00891 0.0
N1016 N 0.51347 0.6358 0.97394 0.0
C1017 C 0.54036 0.64454 0.87904 0.0
C1018 C 0.56079 0.63522 0.91432 0.0
C1019 C 0.55707 0.62612 0.97956 0.0
C1020 C 0.51685 0.6446 0.91116 0.0
H1021 H 0.53016 0.61912 0.05863 0.0
C1022 C 0.48256 0.60898 0.13005 0.0
O1023 O 0.44696 0.55328 0.04418 0.0
O1024 O 0.48315 0.56169 0.99608 0.0
N1025 N 0.4737 0.65131 0.91235 0.0
C1026 C 0.45199 0.65921 0.88432 0.0
C1027 C 0.45246 0.66828 0.81819 0.0
C1028 C 0.47525 0.66967 0.78237 0.0
C1029 C 0.49743 0.66194 0.81288 0.0
C1030 C 0.49585 0.65299 0.87877 0.0
H1031 H 0.43438 0.65804 0.91153 0.0
O1032 O 0.44599 0.58359 0.91992 0.0
O1033 O 0.47293 0.60803 0.96347 0.0
O1034 O 0.42734 0.60572 0.04188 0.0
O1035 O 0.44313 0.64094 0.02575 0.0
C1036 C 0.52096 0.6623 0.77988 0.0
C1037 C 0.54238 0.65358 0.81301 0.0
H1038 H 0.57937 0.63486 0.89165 0.0
H1039 H 0.5727 0.61876 0.007 0.0
H1040 H 0.43527 0.67361 0.7939 0.0
H1041 H 0.47542 0.67643 0.73111 0.0
H1042 H 0.52277 0.66902 0.72882 0.0
H1043 H 0.56031 0.65384 0.78726 0.0
Mn1044 Mn 0.15872 0.72744 0.77 0.0
Mn1045 Mn 0.20233 0.70959 0.88203 0.0
C1046 C 0.19886 0.74241 0.76674 0.0
C1047 C 0.14009 0.72603 0.66219 0.0
C1048 C 0.16219 0.74336 0.91865 0.0
O1049 O 0.14308 0.69806 0.80445 0.0
O1050 O 0.17206 0.68922 0.88403 0.0
C1051 C 0.21595 0.66688 0.81317 0.0
N1052 N 0.22287 0.68728 0.83908 0.0
C1053 C 0.26651 0.68015 0.81427 0.0
C1054 C 0.25987 0.65901 0.78765 0.0
C1055 C 0.23447 0.6524 0.78685 0.0
C1056 C 0.24724 0.69386 0.83973 0.0
H1057 H 0.19647 0.66169 0.81278 0.0
C1058 C 0.15108 0.68571 0.85324 0.0
O1059 O 0.12858 0.73541 0.71334 0.0
O1060 O 0.161 0.71582 0.67579 0.0
N1061 N 0.23241 0.72736 0.88644 0.0
C1062 C 0.23549 0.74878 0.91022 0.0
C1063 C 0.25958 0.75857 0.90974 0.0
C1064 C 0.28037 0.74598 0.88746 0.0
C1065 C 0.27682 0.72382 0.86446 0.0
C1066 C 0.25229 0.71512 0.86459 0.0
H1067 H 0.21957 0.75846 0.92798 0.0
O1068 O 0.17992 0.75351 0.74257 0.0
O1069 O 0.19383 0.72265 0.79308 0.0
O1070 O 0.15037 0.74285 0.86194 0.0
O1071 O 0.1825 0.73251 0.93009 0.0
C1072 C 0.29657 0.7102 0.84003 0.0
C1073 C 0.29143 0.68834 0.81518 0.0
H1074 H 0.27407 0.64782 0.76711 0.0
H1075 H 0.22918 0.63616 0.76612 0.0
H1076 H 0.26215 0.77578 0.92671 0.0
H1077 H 0.29892 0.75358 0.88755 0.0
H1078 H 0.31572 0.71646 0.83937 0.0
H1079 H 0.30673 0.67811 0.79582 0.0
Mn1080 Mn 0.04164 0.41849 0.51276 0.0
Mn1081 Mn 0.0246 0.36483 0.48183 0.0
C1082 C 0.04021 0.40544 0.40214 0.0
C1083 C 0.02787 0.45605 0.524 0.0
C1084 C 0.07591 0.37773 0.53774 0.0
O1085 O 0.02601 0.40862 0.60174 0.0
O1086 O 0.01279 0.37338 0.57549 0.0
C1087 C 0.96944 0.37118 0.47556 0.0
N1088 N 0.99123 0.36425 0.4458 0.0
C1089 C 0.96935 0.35293 0.34411 0.0
C1090 C 0.94662 0.3598 0.37387 0.0
C1091 C 0.94668 0.36902 0.43982 0.0
C1092 C 0.99141 0.35549 0.38221 0.0
H1093 H 0.96951 0.37846 0.52592 0.0
C1094 C 0.01552 0.38993 0.6171 0.0
O1095 O 0.04941 0.4496 0.54896 0.0
O1096 O 0.01433 0.44058 0.49586 0.0
N1097 N 0.0349 0.35475 0.39372 0.0
C1098 C 0.05865 0.35265 0.36855 0.0
C1099 C 0.06208 0.34589 0.30073 0.0
C1100 C 0.04112 0.34061 0.26015 0.0
C1101 C 0.01685 0.34313 0.28704 0.0
C1102 C 0.01457 0.35047 0.35455 0.0
H1103 H 0.07477 0.35694 0.39917 0.0
O1104 O 0.05361 0.42301 0.41721 0.0
O1105 O 0.02833 0.39605 0.45273 0.0
O1106 O 0.07298 0.39923 0.53794 0.0
O1107 O 0.0592 0.36381 0.51718 0.0
C1108 C 0.99484 0.3396 0.24863 0.0
C1109 C 0.97112 0.34428 0.27744 0.0
H1110 H 0.92903 0.35829 0.34646 0.0
H1111 H 0.92923 0.37448 0.46294 0.0
H1112 H 0.08087 0.34505 0.2797 0.0
H1113 H 0.04386 0.33542 0.20778 0.0
H1114 H 0.99596 0.33374 0.19645 0.0
H1115 H 0.95445 0.3415 0.24735 0.0
Mn1116 Mn 0.33936 0.28021 0.26844 0.0
Mn1117 Mn 0.29669 0.30356 0.37402 0.0
C1118 C 0.29817 0.26797 0.26524 0.0
C1119 C 0.35949 0.27818 0.16339 0.0
C1120 C 0.33341 0.26778 0.41932 0.0
O1121 O 0.3576 0.30852 0.30095 0.0
O1122 O 0.32828 0.32187 0.37312 0.0
C1123 C 0.28722 0.3448 0.29333 0.0
N1124 N 0.27841 0.32575 0.3239 0.0
C1125 C 0.23599 0.33405 0.28944 0.0
C1126 C 0.24457 0.35383 0.2579 0.0
C1127 C 0.27031 0.3592 0.25975 0.0
C1128 C 0.25371 0.32038 0.32225 0.0
H1129 H 0.30701 0.34896 0.29452 0.0
C1130 C 0.35019 0.32265 0.34586 0.0
O1131 O 0.36915 0.26884 0.21724 0.0
O1132 O 0.33959 0.29042 0.17206 0.0
N1133 N 0.26526 0.28794 0.38115 0.0
C1134 C 0.26009 0.26813 0.41345 0.0
C1135 C 0.23527 0.25993 0.41413 0.0
C1136 C 0.21597 0.27242 0.38306 0.0
C1137 C 0.22167 0.29307 0.35183 0.0
C1138 C 0.24673 0.30037 0.35267 0.0
H1139 H 0.27487 0.25848 0.43744 0.0
O1140 O 0.31623 0.25543 0.24267 0.0
O1141 O 0.30462 0.28782 0.2886 0.0
O1142 O 0.34495 0.26568 0.36257 0.0
O1143 O 0.31456 0.28082 0.42851 0.0
C1144 C 0.20355 0.30653 0.31887 0.0
C1145 C 0.21065 0.32707 0.28815 0.0
H1146 H 0.2316 0.3649 0.23161 0.0
H1147 H 0.27711 0.37438 0.23526 0.0
H1148 H 0.23104 0.24394 0.43806 0.0
H1149 H 0.1969 0.26596 0.38332 0.0
H1150 H 0.18419 0.30111 0.31582 0.0
H1151 H 0.19654 0.33717 0.26258 0.0
C1152 C 0.02223 0.11563 0.70284 0.0
C1153 C 0.99707 0.11217 0.6833 0.0
C1154 C 0.02955 0.11329 0.77133 0.0
C1155 C 0.01173 0.10846 0.82226 0.0
H1156 H 0.03645 0.11909 0.66471 0.0
H1157 H 0.04927 0.11492 0.78445 0.0
S1158 S 0.9435 0.09853 0.79697 0.0
N1159 N 0.95438 0.10403 0.71996 0.0
N1160 N 0.96802 0.10019 0.8484 0.0
C1161 C 0.98646 0.10568 0.80335 0.0
C1162 C 0.97914 0.10753 0.73389 0.0
C1163 C 0.1475 0.77738 0.98477 0.0
C1164 C 0.15051 0.75391 0.97889 0.0
C1165 C 0.14233 0.78731 0.04861 0.0
C1166 C 0.13974 0.77402 0.10779 0.0
H1167 H 0.15087 0.78815 0.94117 0.0
H1168 H 0.14176 0.80554 0.05243 0.0
S1169 S 0.14512 0.71158 0.11636 0.0
N1170 N 0.1493 0.71775 0.03545 0.0
N1171 N 0.14038 0.73602 0.15463 0.0
C1172 C 0.14147 0.75045 0.10097 0.0
C1173 C 0.14662 0.74052 0.03662 0.0
C1174 C 0.52265 0.89873 0.23758 0.0
C1175 C 0.5041 0.89527 0.18766 0.0
C1176 C 0.51624 0.90054 0.30649 0.0
C1177 C 0.49104 0.89908 0.32753 0.0
H1178 H 0.54222 0.90058 0.22301 0.0
H1179 H 0.53096 0.90406 0.34317 0.0
S1180 S 0.43555 0.88967 0.21702 0.0
N1181 N 0.45969 0.88964 0.16399 0.0
N1182 N 0.44748 0.89389 0.29369 0.0
C1183 C 0.47236 0.89532 0.2783 0.0
C1184 C 0.47895 0.89302 0.20822 0.0
C1185 C 0.34328 0.26739 0.54222 0.0
C1186 C 0.34291 0.2558 0.47991 0.0
C1187 C 0.34898 0.25627 0.60278 0.0
C1188 C 0.35445 0.23314 0.6039 0.0
H1189 H 0.33838 0.28512 0.54459 0.0
H1190 H 0.34786 0.26566 0.64979 0.0
S1191 S 0.35781 0.19533 0.45413 0.0
N1192 N 0.35024 0.22018 0.42181 0.0
N1193 N 0.36037 0.19907 0.53729 0.0
C1194 C 0.35519 0.22144 0.54179 0.0
C1195 C 0.34973 0.23288 0.47932 0.0
C1196 C 0.01835 0.88643 0.78368 0.0
C1197 C 0.9938 0.8917 0.80485 0.0
C1198 C 0.0253 0.88871 0.71503 0.0
C1199 C 0.00757 0.89529 0.6658 0.0
H1200 H 0.03245 0.88153 0.82064 0.0
H1201 H 0.04464 0.88554 0.70041 0.0
S1202 S 0.94097 0.91074 0.69582 0.0
N1203 N 0.9518 0.90363 0.77162 0.0
N1204 N 0.9648 0.90749 0.64279 0.0
C1205 C 0.9829 0.90008 0.68632 0.0
C1206 C 0.97598 0.89823 0.75589 0.0
C1207 C 0.35773 0.75345 0.88957 0.0
C1208 C 0.36079 0.77691 0.88478 0.0
C1209 C 0.35389 0.743 0.95214 0.0
C1210 C 0.35231 0.75564 0.01248 0.0
H1211 H 0.35666 0.74314 0.84409 0.0
H1212 H 0.35045 0.72496 0.95271 0.0
S1213 S 0.3603 0.81748 0.02815 0.0
N1214 N 0.36327 0.81248 0.94569 0.0
N1215 N 0.35559 0.79269 0.06465 0.0
C1216 C 0.35664 0.77899 0.00933 0.0
C1217 C 0.36069 0.7897 0.94497 0.0
C1218 C 0.47015 0.11503 0.23291 0.0
C1219 C 0.48818 0.10909 0.18362 0.0
C1220 C 0.47682 0.11709 0.30195 0.0
C1221 C 0.50138 0.11207 0.32377 0.0
H1222 H 0.45088 0.11828 0.21785 0.0
H1223 H 0.46259 0.12197 0.33856 0.0
S1224 S 0.55459 0.09334 0.21528 0.0
N1225 N 0.53098 0.09686 0.16167 0.0
N1226 N 0.54346 0.10013 0.29106 0.0
C1227 C 0.51932 0.10553 0.27497 0.0
C1228 C 0.51269 0.10402 0.20496 0.0
C1229 C 0.14625 0.22489 0.51616 0.0
C1230 C 0.14699 0.24854 0.52162 0.0
C1231 C 0.14235 0.21441 0.45251 0.0
C1232 C 0.13877 0.22728 0.39296 0.0
H1233 H 0.15043 0.21452 0.56013 0.0
H1234 H 0.14345 0.1962 0.44923 0.0
S1235 S 0.13819 0.28982 0.38253 0.0
N1236 N 0.14253 0.28436 0.46396 0.0
N1237 N 0.13612 0.26502 0.34481 0.0
C1238 C 0.13834 0.25093 0.39905 0.0
C1239 C 0.14218 0.26144 0.46337 0.0
C1240 C 0.96072 0.88722 0.28441 0.0
C1241 C 0.98513 0.89338 0.30471 0.0
C1242 C 0.95336 0.88896 0.21591 0.0
C1243 C 0.97062 0.89568 0.16559 0.0
H1244 H 0.94702 0.88184 0.32185 0.0
H1245 H 0.93413 0.88495 0.20211 0.0
S1246 S 0.03628 0.91459 0.19352 0.0
N1247 N 0.02615 0.90733 0.26993 0.0
N1248 N 0.01254 0.90984 0.14113 0.0
C1249 C 0.99504 0.90179 0.1854 0.0
C1250 C 0.0023 0.90065 0.25502 0.0
C1251 C 0.89179 0.25452 0.99627 0.0
C1252 C 0.87587 0.24676 0.04838 0.0
C1253 C 0.88941 0.24626 0.92937 0.0
C1254 C 0.87123 0.22979 0.91294 0.0
H1255 H 0.90505 0.26801 0.00633 0.0
H1256 H 0.90081 0.25383 0.88975 0.0
S1257 S 0.82829 0.20134 0.03552 0.0
N1258 N 0.8436 0.22009 0.08186 0.0
N1259 N 0.83957 0.20388 0.95753 0.0
C1260 C 0.85685 0.22054 0.96656 0.0
C1261 C 0.85899 0.22926 0.03395 0.0
C1262 C 0.49725 0.11073 0.77486 0.0
C1263 C 0.51465 0.11794 0.82429 0.0
C1264 C 0.50373 0.10991 0.70598 0.0
C1265 C 0.52787 0.11616 0.68416 0.0
H1266 H 0.47859 0.10522 0.78976 0.0
H1267 H 0.4901 0.10339 0.6699 0.0
S1268 S 0.57992 0.13723 0.79228 0.0
N1269 N 0.55654 0.13275 0.84617 0.0
N1270 N 0.56915 0.13012 0.71625 0.0
C1271 C 0.54531 0.12385 0.73255 0.0
C1272 C 0.53851 0.12522 0.80277 0.0
C1273 C 0.60975 0.75836 0.50293 0.0
C1274 C 0.62813 0.76227 0.55313 0.0
C1275 C 0.61279 0.76671 0.43623 0.0
C1276 C 0.63401 0.7797 0.41822 0.0
H1277 H 0.59368 0.74776 0.51421 0.0
H1278 H 0.59904 0.7621 0.39796 0.0
S1279 S 0.68522 0.79761 0.5361 0.0
N1280 N 0.66666 0.78166 0.58324 0.0
N1281 N 0.67206 0.79829 0.45996 0.0
C1282 C 0.65135 0.78524 0.47028 0.0
C1283 C 0.64851 0.77626 0.5372 0.0
C1284 C 0.9571 0.11647 0.2714 0.0
C1285 C 0.97369 0.10892 0.32229 0.0
C1286 C 0.96489 0.11792 0.20308 0.0
C1287 C 0.989 0.11063 0.18347 0.0
H1288 H 0.93801 0.12115 0.2845 0.0
H1289 H 0.9517 0.12391 0.16516 0.0
S1290 S 0.03836 0.08724 0.29653 0.0
N1291 N 0.01472 0.09311 0.34812 0.0
N1292 N 0.02896 0.09483 0.21974 0.0
C1293 C 0.00548 0.10262 0.23381 0.0
C1294 C 0.99787 0.10186 0.30324 0.0
C1295 C 0.61929 0.25342 0.07542 0.0
C1296 C 0.6361 0.23571 0.09039 0.0
C1297 C 0.61717 0.26203 0.00897 0.0
C1298 C 0.632 0.25331 0.95595 0.0
H1299 H 0.6088 0.26157 0.11581 0.0
H1300 H 0.60501 0.27638 0.99985 0.0
S1301 S 0.67575 0.20489 0.96503 0.0
N1302 N 0.66526 0.20793 0.04365 0.0
N1303 N 0.66172 0.22473 0.91998 0.0
C1304 C 0.64747 0.23473 0.96896 0.0
C1305 C 0.64936 0.22571 0.03593 0.0
C1306 C 0.54 0.89041 0.70964 0.0
C1307 C 0.51557 0.89628 0.68873 0.0
C1308 C 0.54715 0.89245 0.77834 0.0
C1309 C 0.52968 0.89921 0.82808 0.0
H1310 H 0.55388 0.88519 0.67245 0.0
H1311 H 0.56642 0.88883 0.79265 0.0
S1312 S 0.46387 0.91716 0.79879 0.0
N1313 N 0.47426 0.9098 0.72273 0.0
N1314 N 0.48752 0.91279 0.85158 0.0
C1315 C 0.50522 0.90482 0.80773 0.0
C1316 C 0.49815 0.9034 0.73809 0.0
C1317 C 0.85527 0.77587 0.5267 0.0
C1318 C 0.86981 0.76692 0.5803 0.0
C1319 C 0.85683 0.76711 0.46078 0.0
C1320 C 0.87344 0.74948 0.44529 0.0
H1321 H 0.8413 0.78878 0.53636 0.0
H1322 H 0.8442 0.7736 0.4221 0.0
S1323 S 0.91837 0.72221 0.56353 0.0
N1324 N 0.90329 0.74078 0.61125 0.0
N1325 N 0.90669 0.72489 0.48596 0.0
C1326 C 0.88971 0.74167 0.49636 0.0
C1327 C 0.88783 0.7503 0.56426 0.0
C1328 C 0.51334 0.6169 0.22311 0.0
C1329 C 0.48933 0.60971 0.20243 0.0
C1330 C 0.5206 0.61547 0.29165 0.0
C1331 C 0.50361 0.60789 0.34143 0.0
H1332 H 0.52689 0.62276 0.18588 0.0
H1333 H 0.5396 0.62017 0.30582 0.0
S1334 S 0.43857 0.58743 0.31303 0.0
N1335 N 0.4486 0.59489 0.23671 0.0
N1336 N 0.46211 0.59268 0.36559 0.0
C1337 C 0.47941 0.60117 0.32148 0.0
C1338 C 0.47224 0.6021 0.25187 0.0
C1339 C 0.65394 0.24167 0.54285 0.0
C1340 C 0.65564 0.25377 0.48151 0.0
C1341 C 0.64919 0.25259 0.60436 0.0
C1342 C 0.64579 0.27605 0.60719 0.0
H1343 H 0.65737 0.22365 0.54381 0.0
H1344 H 0.64964 0.24268 0.65067 0.0
S1345 S 0.64659 0.31533 0.46065 0.0
N1346 N 0.65195 0.29031 0.42636 0.0
N1347 N 0.64332 0.31104 0.54337 0.0
C1348 C 0.64633 0.28832 0.54605 0.0
C1349 C 0.65096 0.27709 0.48273 0.0
C1350 C 0.02682 0.39079 0.73949 0.0
C1351 C 0.00854 0.38678 0.68913 0.0
C1352 C 0.02046 0.3912 0.80864 0.0
C1353 C 0.99546 0.38806 0.82963 0.0
H1354 H 0.04603 0.39455 0.7251 0.0
H1355 H 0.03486 0.39562 0.84539 0.0
S1356 S 0.94094 0.37524 0.71851 0.0
N1357 N 0.96488 0.37765 0.66526 0.0
N1358 N 0.95256 0.3796 0.79548 0.0
C1359 C 0.97719 0.38305 0.78014 0.0
C1360 C 0.98384 0.38202 0.70972 0.0
C1361 C 0.85318 0.71551 0.03687 0.0
C1362 C 0.85494 0.7284 0.09698 0.0
C1363 C 0.84927 0.72595 0.97325 0.0
C1364 C 0.84654 0.74949 0.96869 0.0
H1365 H 0.85382 0.69727 0.03951 0.0
H1366 H 0.84676 0.71553 0.92845 0.0
S1367 S 0.84999 0.79075 0.10945 0.0
N1368 N 0.85351 0.76599 0.14671 0.0
N1369 N 0.84739 0.78534 0.02763 0.0
C1370 C 0.84947 0.76248 0.0277 0.0
C1371 C 0.85322 0.752 0.09187 0.0
C1372 C 0.52976 0.38865 0.22507 0.0
C1373 C 0.51139 0.39298 0.17518 0.0
C1374 C 0.5232 0.38713 0.29432 0.0
C1375 C 0.4983 0.39093 0.31544 0.0
H1376 H 0.54932 0.3868 0.21051 0.0
H1377 H 0.53779 0.38395 0.33164 0.0
S1378 S 0.44352 0.40338 0.20494 0.0
N1379 N 0.46744 0.40107 0.15173 0.0
N1380 N 0.45525 0.39879 0.28155 0.0
C1381 C 0.47982 0.39506 0.26595 0.0
C1382 C 0.48636 0.39606 0.1958 0.0
C1383 C 0.85828 0.25025 0.40006 0.0
C1384 C 0.86358 0.27341 0.39579 0.0
C1385 C 0.85312 0.24003 0.46234 0.0
C1386 C 0.85265 0.2526 0.52297 0.0
H1387 H 0.85657 0.24012 0.35435 0.0
H1388 H 0.84815 0.22228 0.46251 0.0
S1389 S 0.86676 0.31353 0.54007 0.0
N1390 N 0.86929 0.30853 0.4575 0.0
N1391 N 0.85956 0.28913 0.57598 0.0
C1392 C 0.85922 0.27554 0.52034 0.0
C1393 C 0.86444 0.28605 0.45623 0.0
C1394 C 0.98226 0.62126 0.78186 0.0
C1395 C 0.00665 0.61456 0.80094 0.0
C1396 C 0.97428 0.61949 0.71374 0.0
C1397 C 0.9909 0.61216 0.66263 0.0
H1398 H 0.96889 0.62666 0.82016 0.0
H1399 H 0.95492 0.62341 0.70116 0.0
S1400 S 0.05671 0.59328 0.68618 0.0
N1401 N 0.04718 0.60031 0.76335 0.0
N1402 N 0.03266 0.59836 0.63535 0.0
C1403 C 0.01556 0.60638 0.68082 0.0
C1404 C 0.02336 0.60734 0.75001 0.0
C1405 C 0.65108 0.76951 0.96189 0.0
C1406 C 0.65044 0.75781 0.02411 0.0
C1407 C 0.64535 0.75873 0.90067 0.0
C1408 C 0.6386 0.73584 0.89889 0.0
H1409 H 0.6571 0.78697 0.96008 0.0
H1410 H 0.64765 0.76813 0.85383 0.0
S1411 S 0.63237 0.69795 0.04781 0.0
N1412 N 0.64099 0.72241 0.08103 0.0
N1413 N 0.6305 0.70194 0.96462 0.0
C1414 C 0.63682 0.7241 0.9608 0.0
C1415 C 0.64245 0.7352 0.02384 0.0
C1416 C 0.50354 0.39278 0.76635 0.0
C1417 C 0.48519 0.38824 0.81601 0.0
C1418 C 0.49712 0.3945 0.69745 0.0
C1419 C 0.4721 0.39184 0.67596 0.0
H1420 H 0.52293 0.39561 0.78116 0.0
H1421 H 0.51166 0.39892 0.66111 0.0
S1422 S 0.41707 0.37966 0.7857 0.0
N1423 N 0.44112 0.38054 0.83904 0.0
N1424 N 0.42884 0.38464 0.70926 0.0
C1425 C 0.45359 0.38709 0.72492 0.0
C1426 C 0.46022 0.38488 0.79508 0.0
C1427 C 0.38574 0.74868 0.41911 0.0
C1428 C 0.36704 0.73273 0.4023 0.0
C1429 C 0.38767 0.7575 0.48546 0.0
C1430 C 0.37073 0.75087 0.53666 0.0
H1431 H 0.39803 0.75539 0.38003 0.0
H1432 H 0.4015 0.7705 0.4957 0.0
S1433 S 0.32129 0.70708 0.5231 0.0
N1434 N 0.33361 0.70848 0.44601 0.0
N1435 N 0.33686 0.72571 0.56926 0.0
C1436 C 0.35321 0.7339 0.52205 0.0
C1437 C 0.35152 0.72459 0.45525 0.0
C1438 C 0.00347 0.6041 0.18349 0.0
C1439 C 0.02883 0.60547 0.16368 0.0
C1440 C 0.99656 0.60582 0.2522 0.0
C1441 C 0.01478 0.60899 0.30323 0.0
H1442 H 0.98894 0.60115 0.14581 0.0
H1443 H 0.97683 0.60454 0.26559 0.0
S1444 S 0.08376 0.61241 0.27792 0.0
N1445 N 0.07227 0.60896 0.20042 0.0
N1446 N 0.05921 0.61285 0.32954 0.0
C1447 C 0.04017 0.61026 0.28413 0.0
C1448 C 0.04724 0.6081 0.21432 0.0
C1449 C 0.11033 0.25009 0.9244 0.0
C1450 C 0.12627 0.26862 0.91099 0.0
C1451 C 0.10844 0.24083 0.99031 0.0
C1452 C 0.12256 0.24975 0.04455 0.0
H1453 H 0.10061 0.24169 0.88305 0.0
H1454 H 0.09721 0.22577 0.99786 0.0
S1455 S 0.16333 0.30043 0.03965 0.0
N1456 N 0.15345 0.2974 0.96044 0.0
N1457 N 0.15029 0.27964 0.08305 0.0
C1458 C 0.1369 0.26925 0.03305 0.0
C1459 C 0.13859 0.27883 0.9666 0.0
C1460 C 0.49917 0.60389 0.75166 0.0
C1461 C 0.48141 0.61031 0.70237 0.0
C1462 C 0.49246 0.60221 0.82023 0.0
C1463 C 0.46772 0.6066 0.84123 0.0
H1464 H 0.51831 0.59989 0.73693 0.0
H1465 H 0.50647 0.59666 0.85668 0.0
S1466 S 0.4143 0.62412 0.73277 0.0
N1467 N 0.43835 0.62206 0.67982 0.0
N1468 N 0.42533 0.61719 0.80857 0.0
C1469 C 0.44978 0.61298 0.79276 0.0
C1470 C 0.4568 0.61549 0.72326 0.0
C1471 C 0.11191 0.75614 0.50946 0.0
C1472 C 0.12845 0.74978 0.45704 0.0
C1473 C 0.11436 0.74699 0.5753 0.0
C1474 C 0.13317 0.73096 0.5903 0.0
H1475 H 0.09802 0.76918 0.5006 0.0
H1476 H 0.10239 0.75351 0.61539 0.0
S1477 S 0.17786 0.70586 0.46575 0.0
N1478 N 0.16196 0.72471 0.42138 0.0
N1479 N 0.16615 0.7069 0.54358 0.0
C1480 C 0.14821 0.72306 0.53611 0.0
C1481 C 0.146 0.73268 0.46988 0.0
C1482 C 0.04452 0.39518 0.21159 0.0
C1483 C 0.01932 0.39732 0.191 0.0
C1484 C 0.05133 0.39804 0.28028 0.0
C1485 C 0.03295 0.40177 0.33058 0.0
H1486 H 0.05906 0.39178 0.17437 0.0
H1487 H 0.07099 0.39683 0.29439 0.0
S1488 S 0.96499 0.41165 0.30102 0.0
N1489 N 0.97643 0.40584 0.22483 0.0
N1490 N 0.98907 0.41009 0.35402 0.0
C1491 C 0.00785 0.40454 0.31014 0.0
C1492 C 0.00106 0.40241 0.24028 0.0
C1493 C 0.37148 0.28339 0.04071 0.0
C1494 C 0.36479 0.26916 0.09506 0.0
C1495 C 0.37193 0.27523 0.97332 0.0
C1496 C 0.36445 0.25297 0.95823 0.0
H1497 H 0.37591 0.30095 0.05023 0.0
H1498 H 0.37717 0.28663 0.93259 0.0
S1499 S 0.34492 0.20935 0.08309 0.0
N1500 N 0.35122 0.2318 0.12982 0.0
N1501 N 0.35033 0.21694 0.00356 0.0
C1502 C 0.35774 0.23871 0.01246 0.0
C1503 C 0.35835 0.2467 0.08081 0.0
C1504 C 0.0091 0.00626 0.02194 0.0
C1505 C 0.99519 0.02402 0.99342 0.0
C1506 C 0.0005 0.98392 0.01859 0.0
C1507 C 0.97756 0.97819 0.98649 0.0
H1508 H 0.02686 0.00958 0.04709 0.0
H1509 H 0.01212 0.971 0.04165 0.0
S1510 S 0.93387 0.01835 0.90323 0.0
N1511 N 0.9571 0.03434 0.9315 0.0
N1512 N 0.94109 0.99229 0.92548 0.0
C1513 C 0.96337 0.99575 0.95777 0.0
C1514 C 0.97213 0.01862 0.96117 0.0
C1515 C 0.23527 0.74549 0.29025 0.0
C1516 C 0.2276 0.76789 0.27917 0.0
C1517 C 0.25965 0.73835 0.27292 0.0
C1518 C 0.27676 0.75316 0.24155 0.0
H1519 H 0.22221 0.73332 0.3114 0.0
H1520 H 0.26501 0.72106 0.28316 0.0
S1521 S 0.26636 0.81377 0.20543 0.0
N1522 N 0.2395 0.80512 0.23884 0.0
N1523 N 0.28511 0.79156 0.20509 0.0
C1524 C 0.2697 0.77581 0.23322 0.0
C1525 C 0.24507 0.78318 0.25184 0.0
C1526 C 0.5335 0.0129 0.47931 0.0
C1527 C 0.52001 0.02975 0.51391 0.0
C1528 C 0.52517 0.99033 0.47908 0.0
C1529 C 0.50298 0.98364 0.51333 0.0
H1530 H 0.55045 0.01717 0.45151 0.0
H1531 H 0.53618 0.97805 0.45112 0.0
S1532 S 0.4614 0.02096 0.61479 0.0
N1533 N 0.48366 0.03784 0.58589 0.0
N1534 N 0.46823 0.99571 0.58472 0.0
C1535 C 0.48954 1.00025 0.54894 0.0
C1536 C 0.498 0.02318 0.54944 0.0
C1537 C 0.26057 0.25515 0.79833 0.0
C1538 C 0.26774 0.23287 0.78299 0.0
C1539 C 0.2363 0.26302 0.78349 0.0
C1540 C 0.21869 0.24914 0.75054 0.0
H1541 H 0.27405 0.26677 0.82037 0.0
H1542 H 0.23146 0.28023 0.7966 0.0
S1543 S 0.22767 0.18922 0.70255 0.0
N1544 N 0.25489 0.19672 0.7364 0.0
N1545 N 0.20934 0.21167 0.70731 0.0
C1546 C 0.2252 0.22655 0.73782 0.0
C1547 C 0.2498 0.21841 0.7539 0.0
C1548 C 0.97607 0.98628 0.52278 0.0
C1549 C 0.99872 0.98002 0.49025 0.0
C1550 C 0.96826 0.0089 0.52628 0.0
C1551 C 0.9828 0.02623 0.49744 0.0
H1552 H 0.96417 0.97361 0.54612 0.0
H1553 H 0.95073 0.01279 0.55185 0.0
S1554 S 0.04351 0.01886 0.40514 0.0
N1555 N 0.03541 0.99307 0.42792 0.0
N1556 N 0.02099 0.03543 0.43411 0.0
C1557 C 0.0055 0.02018 0.46445 0.0
C1558 C 0.01339 0.99715 0.46095 0.0
C1559 C 0.23085 0.77322 0.76127 0.0
C1560 C 0.2245 0.75043 0.75034 0.0
C1561 C 0.25473 0.7816 0.74369 0.0
C1562 C 0.27286 0.7675 0.71379 0.0
H1563 H 0.21746 0.78448 0.78524 0.0
H1564 H 0.25936 0.79892 0.75608 0.0
S1565 S 0.26344 0.70825 0.65945 0.0
N1566 N 0.23662 0.7152 0.69647 0.0
N1567 N 0.28182 0.73064 0.66584 0.0
C1568 C 0.2662 0.74511 0.69881 0.0
C1569 C 0.24186 0.73667 0.7161 0.0
C1570 C 0.5295 0.9998 0.0332 0.0
C1571 C 0.5158 0.98238 0.00202 0.0
C1572 C 0.52121 0.02227 0.03025 0.0
C1573 C 0.49885 0.02839 0.99595 0.0
H1574 H 0.54675 0.99609 0.06037 0.0
H1575 H 0.53252 0.03495 0.05563 0.0
S1576 S 0.4563 0.98928 0.9039 0.0
N1577 N 0.47878 0.97291 0.93415 0.0
N1578 N 0.46341 0.01508 0.92907 0.0
C1579 C 0.48503 0.01118 0.96409 0.0
C1580 C 0.49345 0.98825 0.96701 0.0
C1581 C 0.2416 0.22937 0.25808 0.0
C1582 C 0.22392 0.24205 0.2213 0.0
C1583 C 0.26534 0.2383 0.27378 0.0
C1584 C 0.2721 0.26028 0.25387 0.0
H1585 H 0.23681 0.21265 0.27624 0.0
H1586 H 0.27848 0.22801 0.30231 0.0
S1587 S 0.23416 0.29847 0.14546 0.0
N1588 N 0.21549 0.27665 0.15944 0.0
N1589 N 0.26067 0.29304 0.18635 0.0
C1590 C 0.25506 0.27265 0.21396 0.0
C1591 C 0.23073 0.26367 0.19873 0.0
C1592 C 0.77327 0.2733 0.7364 0.0
C1593 C 0.77957 0.2508 0.7516 0.0
C1594 C 0.74941 0.28198 0.75234 0.0
C1595 C 0.73134 0.26849 0.78492 0.0
H1596 H 0.78667 0.28405 0.71034 0.0
H1597 H 0.74473 0.29897 0.73653 0.0
S1598 S 0.74074 0.21053 0.85045 0.0
N1599 N 0.76754 0.21672 0.81204 0.0
N1600 N 0.72235 0.23272 0.83993 0.0
C1601 C 0.73798 0.24649 0.80425 0.0
C1602 C 0.76228 0.23774 0.7885 0.0
C1603 C 0.74076 0.76958 0.28575 0.0
C1604 C 0.72283 0.75747 0.2478 0.0
C1605 C 0.76451 0.76026 0.30003 0.0
C1606 C 0.77069 0.73827 0.27898 0.0
H1607 H 0.73653 0.78645 0.30355 0.0
H1608 H 0.77831 0.77049 0.32646 0.0
S1609 S 0.72938 0.69895 0.18402 0.0
N1610 N 0.71214 0.7219 0.19381 0.0
N1611 N 0.75659 0.70429 0.22149 0.0
C1612 C 0.7524 0.72557 0.2445 0.0
C1613 C 0.72842 0.73516 0.22915 0.0
C1614 C 0.73655 0.26994 0.27571 0.0
C1615 C 0.72911 0.24784 0.25895 0.0
C1616 C 0.76057 0.27799 0.25889 0.0
C1617 C 0.77775 0.26424 0.22408 0.0
H1618 H 0.72374 0.28102 0.30264 0.0
H1619 H 0.76598 0.29479 0.27504 0.0
S1620 S 0.76578 0.20688 0.15681 0.0
N1621 N 0.73942 0.21372 0.19641 0.0
N1622 N 0.78512 0.22842 0.16767 0.0
C1623 C 0.77024 0.24247 0.20464 0.0
C1624 C 0.74568 0.23439 0.22098 0.0
C1625 C 0.732 0.75998 0.70004 0.0
C1626 C 0.72432 0.73805 0.71791 0.0
C1627 C 0.75683 0.76723 0.71126 0.0
C1628 C 0.7744 0.75311 0.7434 0.0
H1629 H 0.71864 0.7717 0.67803 0.0
H1630 H 0.76221 0.78407 0.69556 0.0
S1631 S 0.76375 0.6941 0.79876 0.0
N1632 N 0.73639 0.70208 0.76691 0.0
N1633 N 0.78284 0.71591 0.78986 0.0
C1634 C 0.76713 0.73094 0.75954 0.0
C1635 C 0.74206 0.72341 0.74684 0.0
C1636 C 0.47817 0.51763 0.48568 0.0
C1637 C 0.50113 0.52413 0.51635 0.0
C1638 C 0.47097 0.49491 0.48024 0.0
C1639 C 0.48637 0.47756 0.50521 0.0
H1640 H 0.46545 0.53021 0.4654 0.0
H1641 H 0.4531 0.49099 0.45649 0.0
S1642 S 0.54853 0.48526 0.58971 0.0
N1643 N 0.5393 0.51117 0.5717 0.0
N1644 N 0.52596 0.46848 0.5618 0.0
C1645 C 0.50949 0.48375 0.53585 0.0
C1646 C 0.5168 0.50698 0.54135 0.0
C1647 C 0.02657 0.48434 0.96225 0.0
C1648 C 0.00257 0.47814 0.98692 0.0
C1649 C 0.0339 0.50708 0.95685 0.0
C1650 C 0.01751 0.52458 0.97579 0.0
H1651 H 0.04002 0.47152 0.94753 0.0
H1652 H 0.05267 0.51091 0.93874 0.0
S1653 S 0.95204 0.51751 0.04013 0.0
N1654 N 0.96217 0.49151 0.02817 0.0
N1655 N 0.97562 0.53405 0.01786 0.0
C1656 C 0.99323 0.5186 0.99922 0.0
C1657 C 0.98586 0.49547 0.00487 0.0
C1658 C 0.50751 0.49423 0.97857 0.0
C1659 C 0.49312 0.47626 0.00418 0.0
C1660 C 0.4993 0.51663 0.9846 0.0
C1661 C 0.47628 0.52219 0.01647 0.0
H1662 H 0.52537 0.49103 0.95383 0.0
H1663 H 0.51125 0.52973 0.96372 0.0
S1664 S 0.43138 0.48144 0.09246 0.0
N1665 N 0.4545 0.46558 0.06309 0.0
N1666 N 0.43921 0.5077 0.07399 0.0
C1667 C 0.46163 0.50441 0.04226 0.0
C1668 C 0.47 0.4815 0.03622 0.0
C1669 C 0.99653 0.48538 0.48863 0.0
C1670 C 0.01931 0.47998 0.52195 0.0
C1671 C 0.98841 0.50778 0.48117 0.0
C1672 C 0.00269 0.52583 0.50669 0.0
H1673 H 0.98488 0.47219 0.46705 0.0
H1674 H 0.97087 0.51093 0.4547 0.0
S1675 S 0.06329 0.52097 0.60084 0.0
N1676 N 0.05565 0.49466 0.58245 0.0
N1677 N 0.04054 0.5367 0.56898 0.0
C1678 C 0.02534 0.52069 0.54124 0.0
C1679 C 0.0336 0.49783 0.54876 0.0
C1680 C 0.08304 0.12816 0.1369 0.0
C1681 C 0.08082 0.13083 0.06593 0.0
C1682 C 0.09876 0.1424 0.17547 0.0
C1683 C 0.11284 0.15963 0.14428 0.0
H1684 H 0.07065 0.11666 0.16358 0.0
H1685 H 0.09819 0.14126 0.23048 0.0
S1686 S 0.11732 0.17065 0.95903 0.0
N1687 N 0.09704 0.14961 0.9653 0.0
N1688 N 0.12632 0.17639 0.03767 0.0
C1689 C 0.11303 0.16065 0.07286 0.0
C1690 C 0.09697 0.14628 0.03369 0.0
C1691 C 0.09655 0.85675 0.32702 0.0
C1692 C 0.10772 0.83807 0.35886 0.0
C1693 C 0.07983 0.87085 0.36292 0.0
C1694 C 0.07397 0.86659 0.4317 0.0
H1695 H 0.09935 0.85947 0.27302 0.0
H1696 H 0.06983 0.88384 0.33517 0.0
S1697 S 0.10281 0.82272 0.5411 0.0
N1698 N 0.11494 0.81816 0.46489 0.0
N1699 N 0.0842 0.84484 0.53267 0.0
C1700 C 0.08734 0.84953 0.46557 0.0
C1701 C 0.10418 0.83524 0.42908 0.0
C1702 C 0.40227 0.8339 0.5671 0.0
C1703 C 0.3943 0.83833 0.63382 0.0
C1704 C 0.41777 0.84905 0.53218 0.0
C1705 C 0.42605 0.86928 0.56251 0.0
H1706 H 0.39803 0.8178 0.54353 0.0
H1707 H 0.42484 0.84396 0.48296 0.0
S1708 S 0.40644 0.89056 0.73185 0.0
N1709 N 0.3928 0.86555 0.72601 0.0
N1710 N 0.42201 0.89434 0.65985 0.0
C1711 C 0.41611 0.87496 0.6267 0.0
C1712 C 0.40031 0.85933 0.66268 0.0
C1713 C 0.41521 0.1375 0.88277 0.0
C1714 C 0.42653 0.14556 0.94321 0.0
C1715 C 0.39964 0.15161 0.84264 0.0
C1716 C 0.39536 0.17419 0.86155 0.0
H1717 H 0.41986 0.12086 0.86378 0.0
H1718 H 0.39255 0.14539 0.79445 0.0
S1719 S 0.41694 0.20234 0.01956 0.0
N1720 N 0.42899 0.17676 0.02354 0.0
N1721 N 0.401 0.20301 0.94761 0.0
C1722 C 0.40488 0.18171 0.92405 0.0
C1723 C 0.42016 0.16748 0.965 0.0
C1724 C 0.88359 0.82419 0.92192 0.0
C1725 C 0.87071 0.83137 0.86346 0.0
C1726 C 0.90154 0.83795 0.95368 0.0
C1727 C 0.90746 0.85958 0.92846 0.0
H1728 H 0.88009 0.80756 0.94268 0.0
H1729 H 0.9113 0.83132 0.99771 0.0
S1730 S 0.87888 0.88619 0.77581 0.0
N1731 N 0.86468 0.86144 0.78131 0.0
N1732 N 0.89871 0.88744 0.84062 0.0
C1733 C 0.89429 0.86717 0.87048 0.0
C1734 C 0.8759 0.85301 0.83796 0.0
C1735 C 0.90954 0.14708 0.63323 0.0
C1736 C 0.90841 0.14036 0.56464 0.0
C1737 C 0.89056 0.16049 0.66226 0.0
C1738 C 0.86982 0.16791 0.62366 0.0
H1739 H 0.92573 0.14264 0.66396 0.0
H1740 H 0.89254 0.16573 0.7148 0.0
S1741 S 0.85797 0.15419 0.44154 0.0
N1742 N 0.88478 0.14135 0.45917 0.0
N1743 N 0.84909 0.16662 0.51289 0.0
C1744 C 0.86805 0.16046 0.55541 0.0
C1745 C 0.88742 0.14676 0.52604 0.0
C1746 C 0.631 0.15199 0.40011 0.0
C1747 C 0.62721 0.17385 0.37367 0.0
C1748 C 0.61105 0.13974 0.43045 0.0
C1749 C 0.58685 0.14925 0.43764 0.0
H1750 H 0.64944 0.14429 0.39709 0.0
H1751 H 0.61476 0.12292 0.44942 0.0
S1752 S 0.56767 0.20659 0.379 0.0
N1753 N 0.59748 0.20447 0.35722 0.0
N1754 N 0.56088 0.18251 0.41662 0.0
C1755 C 0.58318 0.17135 0.41224 0.0
C1756 C 0.60308 0.18334 0.37975 0.0
C1757 C 0.59475 0.86527 0.13958 0.0
C1758 C 0.59444 0.87027 0.06957 0.0
C1759 C 0.61391 0.85189 0.1681 0.0
C1760 C 0.63319 0.84274 0.1276 0.0
H1761 H 0.57949 0.87092 0.17196 0.0
H1762 H 0.61337 0.84815 0.22195 0.0
S1763 S 0.64202 0.85295 0.94221 0.0
N1764 N 0.61594 0.86673 0.9613 0.0
N1765 N 0.65178 0.84144 0.0141 0.0
C1766 C 0.63382 0.84882 0.05803 0.0
C1767 C 0.61437 0.8625 0.02918 0.0
C1768 C 0.57627 0.63955 0.63683 0.0
C1769 C 0.56651 0.64499 0.57203 0.0
C1770 C 0.59193 0.65483 0.67241 0.0
C1771 C 0.598 0.67596 0.64436 0.0
H1772 H 0.57033 0.62423 0.66223 0.0
H1773 H 0.59802 0.65069 0.72353 0.0
S1774 S 0.58126 0.69657 0.47239 0.0
N1775 N 0.56746 0.67169 0.47822 0.0
N1776 N 0.596 0.70028 0.54551 0.0
C1777 C 0.59014 0.6807 0.57788 0.0
C1778 C 0.57457 0.66524 0.54163 0.0
C1779 C 0.57822 0.37003 0.85522 0.0
C1780 C 0.57727 0.36893 0.92678 0.0
C1781 C 0.59417 0.3557 0.8178 0.0
C1782 C 0.6096 0.33986 0.85066 0.0
H1783 H 0.56495 0.38051 0.82779 0.0
H1784 H 0.5932 0.3559 0.76284 0.0
S1785 S 0.6171 0.3329 0.03701 0.0
N1786 N 0.59568 0.35291 0.02898 0.0
N1787 N 0.62529 0.32585 0.95869 0.0
C1788 C 0.61066 0.3402 0.92208 0.0
C1789 C 0.59447 0.35474 0.96015 0.0
C1790 C 0.91183 0.35192 0.17937 0.0
C1791 C 0.89938 0.33422 0.14584 0.0
C1792 C 0.92727 0.36705 0.14314 0.0
C1793 C 0.93063 0.36485 0.07235 0.0
H1794 H 0.91104 0.35306 0.23433 0.0
H1795 H 0.93836 0.37915 0.1715 0.0
S1796 S 0.89826 0.32384 0.95992 0.0
N1797 N 0.88859 0.31721 0.03734 0.0
N1798 N 0.91716 0.34577 0.96922 0.0
C1799 C 0.91616 0.34866 0.03775 0.0
C1800 C 0.90056 0.33331 0.07454 0.0
C1801 C 0.91075 0.65407 0.44919 0.0
C1802 C 0.92275 0.6354 0.41929 0.0
C1803 C 0.89392 0.66744 0.41201 0.0
C1804 C 0.88878 0.66288 0.34321 0.0
H1805 H 0.91568 0.65937 0.50017 0.0
H1806 H 0.88675 0.6827 0.43543 0.0
S1807 S 0.91157 0.6136 0.24503 0.0
N1808 N 0.92539 0.61106 0.32004 0.0
N1809 N 0.89409 0.63664 0.24938 0.0
C1810 C 0.89873 0.6431 0.31454 0.0
C1811 C 0.9156 0.62919 0.35292 0.0
C1812 C 0.39033 0.34482 0.33465 0.0
C1813 C 0.36866 0.33947 0.37266 0.0
C1814 C 0.4099 0.35777 0.36275 0.0
C1815 C 0.40846 0.36613 0.42963 0.0
H1816 H 0.39254 0.33831 0.28348 0.0
H1817 H 0.42677 0.36052 0.3329 0.0
S1818 S 0.35578 0.35804 0.55038 0.0
N1819 N 0.34681 0.34452 0.48093 0.0
N1820 N 0.38365 0.36892 0.5327 0.0
C1821 C 0.38661 0.36187 0.46734 0.0
C1822 C 0.36665 0.3486 0.43903 0.0
C1823 C 0.38275 0.65928 0.16073 0.0
C1824 C 0.36505 0.66901 0.11661 0.0
C1825 C 0.40089 0.64395 0.13698 0.0
C1826 C 0.40218 0.63804 0.06778 0.0
H1827 H 0.38294 0.66432 0.2135 0.0
H1828 H 0.41492 0.63765 0.17216 0.0
S1829 S 0.36025 0.65858 0.93052 0.0
N1830 N 0.3496 0.67107 1.00002 0.0
N1831 N 0.38418 0.64278 0.95521 0.0
C1832 C 0.3842 0.64709 0.02318 0.0
C1833 C 0.36545 0.66241 0.0476 0.0
C1834 C 0.10891 0.65442 0.97785 0.0
C1835 C 0.09596 0.63891 0.93648 0.0
C1836 C 0.12795 0.6683 0.95109 0.0
C1837 C 0.13396 0.66811 0.88129 0.0
H1838 H 0.10378 0.65633 0.03093 0.0
H1839 H 0.13712 0.68008 0.98476 0.0
S1840 S 0.10762 0.62892 0.75287 0.0
N1841 N 0.09244 0.62248 0.82369 0.0
N1842 N 0.12706 0.64969 0.77258 0.0
C1843 C 0.1219 0.65208 0.83991 0.0
C1844 C 0.10319 0.63724 0.86774 0.0
C1845 C 0.11202 0.3515 0.52663 0.0
C1846 C 0.09884 0.36727 0.56639 0.0
C1847 C 0.12876 0.33615 0.5563 0.0
C1848 C 0.13236 0.33534 0.62721 0.0
H1849 H 0.10854 0.3503 0.47246 0.0
H1850 H 0.13803 0.32405 0.52364 0.0
S1851 S 0.10564 0.37546 0.75251 0.0
N1852 N 0.09301 0.38314 0.6792 0.0
N1853 N 0.12401 0.35365 0.73554 0.0
C1854 C 0.12055 0.35188 0.66727 0.0
C1855 C 0.10393 0.368 0.63662 0.0
loop_
_geom_bond_atom_site_label_1
_geom_bond_atom_site_label_2
_geom_bond_distance
_geom_bond_site_symmetry_2
_ccdc_geom_bond_type
Mn0 O5 2.095 1_455 S
Mn0 O15 2.162 . S
Mn0 O16 2.297 1_455 S
Mn0 O24 2.385 1_554 S
Mn0 O25 2.209 1_455 S
Mn0 O26 2.094 . S
Mn1 O6 2.121 . S
Mn1 N8 2.257 . S
Mn1 N17 2.282 1_554 S
Mn1 O25 2.215 . S
Mn1 O27 2.117 1_655 S
C2 O24 1.234 1_655 S
C2 O25 1.283 1_556 S
C3 O15 1.314 . S
C3 O16 1.206 1_455 S
C4 O26 1.240 . S
C4 O27 1.264 . S
O5 Mn0 2.095 1_655 S
O5 C14 1.250 . S
O6 Mn1 2.121 . S
O6 C14 1.258 . S
C7 N8 1.326 . S
C7 C11 1.460 . S
C7 H13 0.929 . S
N8 Mn1 2.257 . S
N8 C7 1.326 . S
N8 C12 1.362 1_554 S
C9 C10 1.258 1_556 S
C9 C12 1.431 . S
C9 C29 1.449 . S
C10 C9 1.258 1_554 S
C10 C11 1.477 . S
C10 H30 0.931 1_554 S
C11 C7 1.460 . S
C11 C10 1.477 . S
C11 H31 0.930 . S
C12 N8 1.362 1_556 S
C12 C9 1.431 . S
C12 C22 1.476 . S
H13 C7 0.929 . S
C14 O5 1.250 . S
C14 O6 1.258 . S
O15 Mn0 2.162 . S
O15 C3 1.314 . S
O16 Mn0 2.297 1_655 S
O16 C3 1.206 1_655 S
N17 Mn1 2.282 1_556 S
N17 C18 1.328 1_655 S
N17 C22 1.318 . S
C18 N17 1.328 1_455 S
C18 C19 1.457 . S
C18 H23 0.929 . S
C19 C18 1.457 . S
C19 C20 1.291 1_455 S
C19 H32 0.931 . S
C20 C19 1.291 1_655 S
C20 C21 1.373 . S
C20 H33 0.929 . S
C21 C20 1.373 . S
C21 C22 1.396 . S
C21 C28 1.403 . S
C22 C12 1.476 . S
C22 N17 1.318 . S
C22 C21 1.396 . S
H23 C18 0.929 . S
O24 Mn0 2.385 1_556 S
O24 C2 1.234 1_455 S
O25 Mn0 2.209 1_655 S
O25 Mn1 2.215 . S
O25 C2 1.283 1_554 S
O26 Mn0 2.094 . S
O26 C4 1.240 . S
O27 Mn1 2.117 1_455 S
O27 C4 1.264 . S
C28 C21 1.403 . S
C28 C29 1.399 . S
C28 H34 0.929 . S
C29 C9 1.449 . S
C29 C28 1.399 . S
C29 H35 0.930 . S
H30 C10 0.931 1_556 S
H31 C11 0.930 . S
H32 C19 0.931 . S
H33 C20 0.929 . S
H34 C28 0.929 . S
H35 C29 0.930 . S
Mn36 O41 2.095 . S
Mn36 O51 2.162 . S
Mn36 O52 2.297 . S
Mn36 O60 2.385 . S
Mn36 O61 2.209 . S
Mn36 O62 2.094 . S
Mn37 O42 2.121 . S
Mn37 N44 2.257 . S
Mn37 N53 2.282 . S
Mn37 O61 2.215 . S
Mn37 O63 2.117 . S
C38 O60 1.234 . S
C38 O61 1.283 . S
C39 O51 1.281 . S
C39 O52 1.236 . S
C40 O62 1.240 . S
C40 O63 1.264 . S
O41 Mn36 2.095 . S
O41 C50 1.250 . S
O42 Mn37 2.121 . S
O42 C50 1.258 . S
C43 N44 1.326 . S
C43 C47 1.460 . S
C43 H49 0.929 . S
N44 Mn37 2.257 . S
N44 C43 1.326 . S
N44 C48 1.362 . S
C45 C46 1.258 . S
C45 C48 1.431 . S
C45 C65 1.449 . S
C46 C45 1.258 . S
C46 C47 1.477 . S
C46 H66 0.931 . S
C47 C43 1.460 . S
C47 C46 1.477 . S
C47 H67 0.930 . S
C48 N44 1.362 . S
C48 C45 1.431 . S
C48 C58 1.476 . S
H49 C43 0.929 . S
C50 O41 1.250 . S
C50 O42 1.258 . S
O51 Mn36 2.162 . S
O51 C39 1.281 . S
O52 Mn36 2.297 . S
O52 C39 1.236 . S
N53 Mn37 2.282 . S
N53 C54 1.328 . S
N53 C58 1.318 . S
C54 N53 1.328 . S
C54 C55 1.457 . S
C54 H59 0.929 . S
C55 C54 1.457 . S
C55 C56 1.291 . S
C55 H68 0.931 . S
C56 C55 1.291 . S
C56 C57 1.373 . S
C56 H69 0.929 . S
C57 C56 1.373 . S
C57 C58 1.396 . S
C57 C64 1.403 . S
C58 C48 1.476 . S
C58 N53 1.318 . S
C58 C57 1.396 . S
H59 C54 0.929 . S
O60 Mn36 2.385 . S
O60 C38 1.234 . S
O61 Mn36 2.209 . S
O61 Mn37 2.215 . S
O61 C38 1.283 . S
O62 Mn36 2.094 . S
O62 C40 1.240 . S
O63 Mn37 2.117 . S
O63 C40 1.264 . S
C64 C57 1.403 . S
C64 C65 1.399 . S
C64 H70 0.929 . S
C65 C45 1.449 . S
C65 C64 1.399 . S
C65 H71 0.930 . S
H66 C46 0.931 . S
H67 C47 0.930 . S
H68 C55 0.931 . S
H69 C56 0.929 . S
H70 C64 0.929 . S
H71 C65 0.930 . S
Mn72 O77 2.095 . S
Mn72 O87 2.162 . S
Mn72 O88 2.297 . S
Mn72 O96 2.385 . S
Mn72 O97 2.209 . S
Mn72 O98 2.094 . S
Mn73 O78 2.121 . S
Mn73 N80 2.257 . S
Mn73 N89 2.282 . S
Mn73 O97 2.215 . S
Mn73 O99 2.117 . S
C74 O96 1.234 . S
C74 O97 1.283 . S
C75 O87 1.281 . S
C75 O88 1.236 . S
C76 O98 1.240 . S
C76 O99 1.264 . S
O77 Mn72 2.095 . S
O77 C86 1.250 . S
O78 Mn73 2.121 . S
O78 C86 1.258 . S
C79 N80 1.326 . S
C79 C83 1.460 . S
C79 H85 0.929 . S
N80 Mn73 2.257 . S
N80 C79 1.326 . S
N80 C84 1.362 . S
C81 C82 1.258 . S
C81 C84 1.431 . S
C81 C101 1.449 . S
C82 C81 1.258 . S
C82 C83 1.477 . S
C82 H102 0.931 . S
C83 C79 1.460 . S
C83 C82 1.477 . S
C83 H103 0.930 . S
C84 N80 1.362 . S
C84 C81 1.431 . S
C84 C94 1.476 . S
H85 C79 0.929 . S
C86 O77 1.250 . S
C86 O78 1.258 . S
O87 Mn72 2.162 . S
O87 C75 1.281 . S
O88 Mn72 2.297 . S
O88 C75 1.236 . S
N89 Mn73 2.282 . S
N89 C90 1.328 . S
N89 C94 1.318 . S
C90 N89 1.328 . S
C90 C91 1.457 . S
C90 H95 0.929 . S
C91 C90 1.457 . S
C91 C92 1.291 . S
C91 H104 0.931 . S
C92 C91 1.291 . S
C92 C93 1.373 . S
C92 H105 0.929 . S
C93 C92 1.373 . S
C93 C94 1.396 . S
C93 C100 1.403 . S
C94 C84 1.476 . S
C94 N89 1.318 . S
C94 C93 1.396 . S
H95 C90 0.929 . S
O96 Mn72 2.385 . S
O96 C74 1.234 . S
O97 Mn72 2.209 . S
O97 Mn73 2.215 . S
O97 C74 1.283 . S
O98 Mn72 2.094 . S
O98 C76 1.240 . S
O99 Mn73 2.117 . S
O99 C76 1.264 . S
C100 C93 1.403 . S
C100 C101 1.399 . S
C100 H106 0.929 . S
C101 C81 1.449 . S
C101 C100 1.399 . S
C101 H107 0.930 . S
H102 C82 0.931 . S
H103 C83 0.930 . S
H104 C91 0.931 . S
H105 C92 0.929 . S
H106 C100 0.929 . S
H107 C101 0.930 . S
Mn108 O113 2.095 . S
Mn108 O123 2.162 . S
Mn108 O124 2.297 . S
Mn108 O132 2.385 . S
Mn108 O133 2.209 . S
Mn108 O134 2.094 . S
Mn109 O114 2.121 . S
Mn109 N116 2.257 . S
Mn109 N125 2.282 . S
Mn109 O133 2.215 . S
Mn109 O135 2.117 . S
C110 O132 1.234 . S
C110 O133 1.283 . S
C111 O123 1.281 . S
C111 O124 1.236 . S
C112 O134 1.240 . S
C112 O135 1.264 . S
O113 Mn108 2.095 . S
O113 C122 1.250 . S
O114 Mn109 2.121 . S
O114 C122 1.258 . S
C115 N116 1.326 . S
C115 C119 1.460 . S
C115 H121 0.929 . S
N116 Mn109 2.257 . S
N116 C115 1.326 . S
N116 C120 1.362 . S
C117 C118 1.258 . S
C117 C120 1.431 . S
C117 C137 1.449 . S
C118 C117 1.258 . S
C118 C119 1.477 . S
C118 H138 0.931 . S
C119 C115 1.460 . S
C119 C118 1.477 . S
C119 H139 0.930 . S
C120 N116 1.362 . S
C120 C117 1.431 . S
C120 C130 1.476 . S
H121 C115 0.929 . S
C122 O113 1.250 . S
C122 O114 1.258 . S
O123 Mn108 2.162 . S
O123 C111 1.281 . S
O124 Mn108 2.297 . S
O124 C111 1.236 . S
N125 Mn109 2.282 . S
N125 C126 1.328 . S
N125 C130 1.318 . S
C126 N125 1.328 . S
C126 C127 1.457 . S
C126 H131 0.929 . S
C127 C126 1.457 . S
C127 C128 1.291 . S
C127 H140 0.931 . S
C128 C127 1.291 . S
C128 C129 1.373 . S
C128 H141 0.929 . S
C129 C128 1.373 . S
C129 C130 1.396 . S
C129 C136 1.403 . S
C130 C120 1.476 . S
C130 N125 1.318 . S
C130 C129 1.396 . S
H131 C126 0.929 . S
O132 Mn108 2.385 . S
O132 C110 1.234 . S
O133 Mn108 2.209 . S
O133 Mn109 2.215 . S
O133 C110 1.283 . S
O134 Mn108 2.094 . S
O134 C112 1.240 . S
O135 Mn109 2.117 . S
O135 C112 1.264 . S
C136 C129 1.403 . S
C136 C137 1.399 . S
C136 H142 0.929 . S
C137 C117 1.449 . S
C137 C136 1.399 . S
C137 H143 0.930 . S
H138 C118 0.931 . S
H139 C119 0.930 . S
H140 C127 0.931 . S
H141 C128 0.929 . S
H142 C136 0.929 . S
H143 C137 0.930 . S
Mn144 O149 2.095 1_455 S
Mn144 O159 2.162 . S
Mn144 O160 2.297 1_455 S
Mn144 O168 2.385 . S
Mn144 O169 2.209 1_455 S
Mn144 O170 2.094 . S
Mn145 O150 2.121 . S
Mn145 N152 2.257 . S
Mn145 N161 2.282 . S
Mn145 O169 2.215 . S
Mn145 O171 2.117 1_655 S
C146 O168 1.234 1_655 S
C146 O169 1.283 . S
C147 O159 1.314 . S
C147 O160 1.206 1_455 S
C148 O170 1.240 . S
C148 O171 1.264 . S
O149 Mn144 2.095 1_655 S
O149 C158 1.250 . S
O150 Mn145 2.121 . S
O150 C158 1.258 . S
C151 N152 1.326 . S
C151 C155 1.460 . S
C151 H157 0.929 . S
N152 Mn145 2.257 . S
N152 C151 1.326 . S
N152 C156 1.362 . S
C153 C154 1.258 . S
C153 C156 1.431 . S
C153 C173 1.449 . S
C154 C153 1.258 . S
C154 C155 1.477 . S
C154 H174 0.931 . S
C155 C151 1.460 . S
C155 C154 1.477 . S
C155 H175 0.930 . S
C156 N152 1.362 . S
C156 C153 1.431 . S
C156 C166 1.476 . S
H157 C151 0.929 . S
C158 O149 1.250 . S
C158 O150 1.258 . S
O159 Mn144 2.162 . S
O159 C147 1.314 . S
O160 Mn144 2.297 1_655 S
O160 C147 1.206 1_655 S
N161 Mn145 2.282 . S
N161 C162 1.328 1_655 S
N161 C166 1.318 . S
C162 N161 1.328 1_455 S
C162 C163 1.457 . S
C162 H167 0.929 . S
C163 C162 1.457 . S
C163 C164 1.291 1_455 S
C163 H176 0.931 . S
C164 C163 1.291 1_655 S
C164 C165 1.373 . S
C164 H177 0.929 . S
C165 C164 1.373 . S
C165 C166 1.396 . S
C165 C172 1.403 . S
C166 C156 1.476 . S
C166 N161 1.318 . S
C166 C165 1.396 . S
H167 C162 0.929 . S
O168 Mn144 2.385 . S
O168 C146 1.234 1_455 S
O169 Mn144 2.209 1_655 S
O169 Mn145 2.215 . S
O169 C146 1.283 . S
O170 Mn144 2.094 . S
O170 C148 1.240 . S
O171 Mn145 2.117 1_455 S
O171 C148 1.264 . S
C172 C165 1.403 . S
C172 C173 1.399 . S
C172 H178 0.929 . S
C173 C153 1.449 . S
C173 C172 1.399 . S
C173 H179 0.930 . S
H174 C154 0.931 . S
H175 C155 0.930 . S
H176 C163 0.931 . S
H177 C164 0.929 . S
H178 C172 0.929 . S
H179 C173 0.930 . S
Mn180 O185 2.095 . S
Mn180 O195 2.162 . S
Mn180 O196 2.297 . S
Mn180 O204 2.385 . S
Mn180 O205 2.209 . S
Mn180 O206 2.094 . S
Mn181 O186 2.121 . S
Mn181 N188 2.257 . S
Mn181 N197 2.282 . S
Mn181 O205 2.215 . S
Mn181 O207 2.117 . S
C182 O204 1.234 . S
C182 O205 1.283 . S
C183 O195 1.281 . S
C183 O196 1.236 . S
C184 O206 1.240 . S
C184 O207 1.264 . S
O185 Mn180 2.095 . S
O185 C194 1.250 . S
O186 Mn181 2.121 . S
O186 C194 1.258 . S
C187 N188 1.326 . S
C187 C191 1.460 . S
C187 H193 0.929 . S
N188 Mn181 2.257 . S
N188 C187 1.326 . S
N188 C192 1.362 . S
C189 C190 1.258 . S
C189 C192 1.431 . S
C189 C209 1.449 . S
C190 C189 1.258 . S
C190 C191 1.477 . S
C190 H210 0.931 . S
C191 C187 1.460 . S
C191 C190 1.477 . S
C191 H211 0.930 . S
C192 N188 1.362 . S
C192 C189 1.431 . S
C192 C202 1.476 . S
H193 C187 0.929 . S
C194 O185 1.250 . S
C194 O186 1.258 . S
O195 Mn180 2.162 . S
O195 C183 1.281 . S
O196 Mn180 2.297 . S
O196 C183 1.236 . S
N197 Mn181 2.282 . S
N197 C198 1.328 . S
N197 C202 1.318 . S
C198 N197 1.328 . S
C198 C199 1.457 . S
C198 H203 0.929 . S
C199 C198 1.457 . S
C199 C200 1.291 . S
C199 H212 0.931 . S
C200 C199 1.291 . S
C200 C201 1.373 . S
C200 H213 0.929 . S
C201 C200 1.373 . S
C201 C202 1.396 . S
C201 C208 1.403 . S
C202 C192 1.476 . S
C202 N197 1.318 . S
C202 C201 1.396 . S
H203 C198 0.929 . S
O204 Mn180 2.385 . S
O204 C182 1.234 . S
O205 Mn180 2.209 . S
O205 Mn181 2.215 . S
O205 C182 1.283 . S
O206 Mn180 2.094 . S
O206 C184 1.240 . S
O207 Mn181 2.117 . S
O207 C184 1.264 . S
C208 C201 1.403 . S
C208 C209 1.399 . S
C208 H214 0.929 . S
C209 C189 1.449 . S
C209 C208 1.399 . S
C209 H215 0.930 . S
H210 C190 0.931 . S
H211 C191 0.930 . S
H212 C199 0.931 . S
H213 C200 0.929 . S
H214 C208 0.929 . S
H215 C209 0.930 . S
Mn216 O221 2.095 . S
Mn216 O231 2.162 . S
Mn216 O232 2.297 . S
Mn216 O240 2.385 1_556 S
Mn216 O241 2.209 . S
Mn216 O242 2.094 . S
Mn217 O222 2.121 . S
Mn217 N224 2.257 . S
Mn217 N233 2.282 1_556 S
Mn217 O241 2.215 . S
Mn217 O243 2.117 . S
C218 O240 1.234 . S
C218 O241 1.283 1_554 S
C219 O231 1.281 . S
C219 O232 1.236 . S
C220 O242 1.240 . S
C220 O243 1.264 . S
O221 Mn216 2.095 . S
O221 C230 1.250 . S
O222 Mn217 2.121 . S
O222 C230 1.258 . S
C223 N224 1.326 . S
C223 C227 1.460 . S
C223 H229 0.929 . S
N224 Mn217 2.257 . S
N224 C223 1.326 . S
N224 C228 1.362 1_556 S
C225 C226 1.258 1_554 S
C225 C228 1.431 . S
C225 C245 1.449 . S
C226 C225 1.258 1_556 S
C226 C227 1.477 . S
C226 H246 0.931 1_556 S
C227 C223 1.460 . S
C227 C226 1.477 . S
C227 H247 0.930 . S
C228 N224 1.362 1_554 S
C228 C225 1.431 . S
C228 C238 1.476 . S
H229 C223 0.929 . S
C230 O221 1.250 . S
C230 O222 1.258 . S
O231 Mn216 2.162 . S
O231 C219 1.281 . S
O232 Mn216 2.297 . S
O232 C219 1.236 . S
N233 Mn217 2.282 1_554 S
N233 C234 1.328 . S
N233 C238 1.318 . S
C234 N233 1.328 . S
C234 C235 1.457 . S
C234 H239 0.929 . S
C235 C234 1.457 . S
C235 C236 1.291 . S
C235 H248 0.931 . S
C236 C235 1.291 . S
C236 C237 1.373 . S
C236 H249 0.929 . S
C237 C236 1.373 . S
C237 C238 1.396 . S
C237 C244 1.403 . S
C238 C228 1.476 . S
C238 N233 1.318 . S
C238 C237 1.396 . S
H239 C234 0.929 . S
O240 Mn216 2.385 1_554 S
O240 C218 1.234 . S
O241 Mn216 2.209 . S
O241 Mn217 2.215 . S
O241 C218 1.283 1_556 S
O242 Mn216 2.094 . S
O242 C220 1.240 . S
O243 Mn217 2.117 . S
O243 C220 1.264 . S
C244 C237 1.403 . S
C244 C245 1.399 . S
C244 H250 0.929 . S
C245 C225 1.449 . S
C245 C244 1.399 . S
C245 H251 0.930 . S
H246 C226 0.931 1_554 S
H247 C227 0.930 . S
H248 C235 0.931 . S
H249 C236 0.929 . S
H250 C244 0.929 . S
H251 C245 0.930 . S
Mn252 O257 2.095 . S
Mn252 O267 2.162 . S
Mn252 O268 2.297 . S
Mn252 O276 2.385 . S
Mn252 O277 2.209 . S
Mn252 O278 2.094 . S
Mn253 O258 2.121 . S
Mn253 N260 2.257 . S
Mn253 N269 2.282 . S
Mn253 O277 2.215 . S
Mn253 O279 2.117 . S
C254 O276 1.234 . S
C254 O277 1.283 . S
C255 O267 1.281 . S
C255 O268 1.236 . S
C256 O278 1.240 . S
C256 O279 1.264 . S
O257 Mn252 2.095 . S
O257 C266 1.250 . S
O258 Mn253 2.121 . S
O258 C266 1.258 . S
C259 N260 1.326 . S
C259 C263 1.460 . S
C259 H265 0.929 . S
N260 Mn253 2.257 . S
N260 C259 1.326 . S
N260 C264 1.362 . S
C261 C262 1.258 . S
C261 C264 1.431 . S
C261 C281 1.449 . S
C262 C261 1.258 . S
C262 C263 1.477 . S
C262 H282 0.931 . S
C263 C259 1.460 . S
C263 C262 1.477 . S
C263 H283 0.930 . S
C264 N260 1.362 . S
C264 C261 1.431 . S
C264 C274 1.476 . S
H265 C259 0.929 . S
C266 O257 1.250 . S
C266 O258 1.258 . S
O267 Mn252 2.162 . S
O267 C255 1.281 . S
O268 Mn252 2.297 . S
O268 C255 1.236 . S
N269 Mn253 2.282 . S
N269 C270 1.328 . S
N269 C274 1.318 . S
C270 N269 1.328 . S
C270 C271 1.457 . S
C270 H275 0.929 . S
C271 C270 1.457 . S
C271 C272 1.291 . S
C271 H284 0.931 . S
C272 C271 1.291 . S
C272 C273 1.373 . S
C272 H285 0.929 . S
C273 C272 1.373 . S
C273 C274 1.396 . S
C273 C280 1.403 . S
C274 C264 1.476 . S
C274 N269 1.318 . S
C274 C273 1.396 . S
H275 C270 0.929 . S
O276 Mn252 2.385 . S
O276 C254 1.234 . S
O277 Mn252 2.209 . S
O277 Mn253 2.215 . S
O277 C254 1.283 . S
O278 Mn252 2.094 . S
O278 C256 1.240 . S
O279 Mn253 2.117 . S
O279 C256 1.264 . S
C280 C273 1.403 . S
C280 C281 1.399 . S
C280 H286 0.929 . S
C281 C261 1.449 . S
C281 C280 1.399 . S
C281 H287 0.930 . S
H282 C262 0.931 . S
H283 C263 0.930 . S
H284 C271 0.931 . S
H285 C272 0.929 . S
H286 C280 0.929 . S
H287 C281 0.930 . S
Mn288 O293 2.095 . S
Mn288 O303 2.162 . S
Mn288 O304 2.297 . S
Mn288 O312 2.385 1_556 S
Mn288 O313 2.209 . S
Mn288 O314 2.094 . S
Mn289 O294 2.121 . S
Mn289 N296 2.257 1_655 S
Mn289 N305 2.282 1_556 S
Mn289 O313 2.215 . S
Mn289 O315 2.117 . S
C290 O312 1.234 . S
C290 O313 1.283 1_554 S
C291 O303 1.281 . S
C291 O304 1.236 . S
C292 O314 1.240 . S
C292 O315 1.264 . S
O293 Mn288 2.095 . S
O293 C302 1.250 . S
O294 Mn289 2.121 . S
O294 C302 1.258 . S
C295 N296 1.326 . S
C295 C299 1.460 . S
C295 H301 0.929 . S
N296 Mn289 2.257 1_455 S
N296 C295 1.326 . S
N296 C300 1.362 1_556 S
C297 C298 1.258 1_554 S
C297 C300 1.431 . S
C297 C317 1.449 . S
C298 C297 1.258 1_556 S
C298 C299 1.477 . S
C298 H318 0.931 1_556 S
C299 C295 1.460 . S
C299 C298 1.477 . S
C299 H319 0.930 . S
C300 N296 1.362 1_554 S
C300 C297 1.431 . S
C300 C310 1.513 . S
H301 C295 0.929 . S
C302 O293 1.250 . S
C302 O294 1.258 . S
O303 Mn288 2.162 . S
O303 C291 1.281 . S
O304 Mn288 2.297 . S
O304 C291 1.236 . S
N305 Mn289 2.282 1_554 S
N305 C306 1.328 . S
N305 C310 1.279 1_655 S
C306 N305 1.328 . S
C306 C307 1.457 . S
C306 H311 0.929 . S
C307 C306 1.457 . S
C307 C308 1.291 . S
C307 H320 0.931 . S
C308 C307 1.291 . S
C308 C309 1.373 1_655 S
C308 H321 0.929 . S
C309 C308 1.373 1_455 S
C309 C310 1.400 . S
C309 C316 1.403 . S
C310 C300 1.513 . S
C310 N305 1.279 1_455 S
C310 C309 1.400 . S
H311 C306 0.929 . S
O312 Mn288 2.385 1_554 S
O312 C290 1.234 . S
O313 Mn288 2.209 . S
O313 Mn289 2.215 . S
O313 C290 1.283 1_556 S
O314 Mn288 2.094 . S
O314 C292 1.240 . S
O315 Mn289 2.117 . S
O315 C292 1.264 . S
C316 C309 1.403 . S
C316 C317 1.399 . S
C316 H322 0.929 . S
C317 C297 1.449 . S
C317 C316 1.399 . S
C317 H323 0.930 . S
H318 C298 0.931 1_554 S
H319 C299 0.930 . S
H320 C307 0.931 . S
H321 C308 0.929 . S
H322 C316 0.929 . S
H323 C317 0.930 . S
Mn324 O329 2.095 . S
Mn324 O339 2.162 . S
Mn324 O340 2.297 . S
Mn324 O348 2.385 . S
Mn324 O349 2.209 . S
Mn324 O350 2.094 . S
Mn325 O330 2.121 . S
Mn325 N332 2.257 . S
Mn325 N341 2.282 . S
Mn325 O349 2.215 . S
Mn325 O351 2.117 . S
C326 O348 1.234 . S
C326 O349 1.283 . S
C327 O339 1.281 . S
C327 O340 1.236 . S
C328 O350 1.240 . S
C328 O351 1.264 . S
O329 Mn324 2.095 . S
O329 C338 1.250 . S
O330 Mn325 2.121 . S
O330 C338 1.258 . S
C331 N332 1.326 . S
C331 C335 1.460 . S
C331 H337 0.929 . S
N332 Mn325 2.257 . S
N332 C331 1.326 . S
N332 C336 1.362 . S
C333 C334 1.258 . S
C333 C336 1.431 . S
C333 C353 1.449 . S
C334 C333 1.258 . S
C334 C335 1.477 . S
C334 H354 0.931 . S
C335 C331 1.460 . S
C335 C334 1.477 . S
C335 H355 0.930 . S
C336 N332 1.362 . S
C336 C333 1.431 . S
C336 C346 1.476 . S
H337 C331 0.929 . S
C338 O329 1.250 . S
C338 O330 1.258 . S
O339 Mn324 2.162 . S
O339 C327 1.281 . S
O340 Mn324 2.297 . S
O340 C327 1.236 . S
N341 Mn325 2.282 . S
N341 C342 1.328 . S
N341 C346 1.318 . S
C342 N341 1.328 . S
C342 C343 1.457 . S
C342 H347 0.929 . S
C343 C342 1.457 . S
C343 C344 1.291 . S
C343 H356 0.931 . S
C344 C343 1.291 . S
C344 C345 1.373 . S
C344 H357 0.929 . S
C345 C344 1.373 . S
C345 C346 1.396 . S
C345 C352 1.403 . S
C346 C336 1.476 . S
C346 N341 1.318 . S
C346 C345 1.396 . S
H347 C342 0.929 . S
O348 Mn324 2.385 . S
O348 C326 1.234 . S
O349 Mn324 2.209 . S
O349 Mn325 2.215 . S
O349 C326 1.283 . S
O350 Mn324 2.094 . S
O350 C328 1.240 . S
O351 Mn325 2.117 . S
O351 C328 1.264 . S
C352 C345 1.403 . S
C352 C353 1.399 . S
C352 H358 0.929 . S
C353 C333 1.449 . S
C353 C352 1.399 . S
C353 H359 0.930 . S
H354 C334 0.931 . S
H355 C335 0.930 . S
H356 C343 0.931 . S
H357 C344 0.929 . S
H358 C352 0.929 . S
H359 C353 0.930 . S
Mn360 O365 2.095 . S
Mn360 O375 2.162 . S
Mn360 O376 2.297 . S
Mn360 O384 2.385 . S
Mn360 O385 2.209 . S
Mn360 O386 2.094 . S
Mn361 O366 2.121 . S
Mn361 N368 2.257 . S
Mn361 N377 2.282 . S
Mn361 O385 2.215 . S
Mn361 O387 2.117 . S
C362 O384 1.234 . S
C362 O385 1.283 . S
C363 O375 1.281 . S
C363 O376 1.236 . S
C364 O386 1.240 . S
C364 O387 1.264 . S
O365 Mn360 2.095 . S
O365 C374 1.250 . S
O366 Mn361 2.121 . S
O366 C374 1.258 . S
C367 N368 1.326 . S
C367 C371 1.460 . S
C367 H373 0.929 . S
N368 Mn361 2.257 . S
N368 C367 1.326 . S
N368 C372 1.362 . S
C369 C370 1.258 . S
C369 C372 1.431 . S
C369 C389 1.449 . S
C370 C369 1.258 . S
C370 C371 1.477 . S
C370 H390 0.931 . S
C371 C367 1.460 . S
C371 C370 1.477 . S
C371 H391 0.930 . S
C372 N368 1.362 . S
C372 C369 1.431 . S
C372 C382 1.476 . S
H373 C367 0.929 . S
C374 O365 1.250 . S
C374 O366 1.258 . S
O375 Mn360 2.162 . S
O375 C363 1.281 . S
O376 Mn360 2.297 . S
O376 C363 1.236 . S
N377 Mn361 2.282 . S
N377 C378 1.328 . S
N377 C382 1.318 . S
C378 N377 1.328 . S
C378 C379 1.457 . S
C378 H383 0.929 . S
C379 C378 1.457 . S
C379 C380 1.291 . S
C379 H392 0.931 . S
C380 C379 1.291 . S
C380 C381 1.373 . S
C380 H393 0.929 . S
C381 C380 1.373 . S
C381 C382 1.396 . S
C381 C388 1.403 . S
C382 C372 1.476 . S
C382 N377 1.318 . S
C382 C381 1.396 . S
H383 C378 0.929 . S
O384 Mn360 2.385 . S
O384 C362 1.234 . S
O385 Mn360 2.209 . S
O385 Mn361 2.215 . S
O385 C362 1.283 . S
O386 Mn360 2.094 . S
O386 C364 1.240 . S
O387 Mn361 2.117 . S
O387 C364 1.264 . S
C388 C381 1.403 . S
C388 C389 1.399 . S
C388 H394 0.929 . S
C389 C369 1.449 . S
C389 C388 1.399 . S
C389 H395 0.930 . S
H390 C370 0.931 . S
H391 C371 0.930 . S
H392 C379 0.931 . S
H393 C380 0.929 . S
H394 C388 0.929 . S
H395 C389 0.930 . S
Mn396 O401 2.095 . S
Mn396 O411 2.162 . S
Mn396 O412 2.297 . S
Mn396 O420 2.385 . S
Mn396 O421 2.209 . S
Mn396 O422 2.094 . S
Mn397 O402 2.121 . S
Mn397 N404 2.257 . S
Mn397 N413 2.282 . S
Mn397 O421 2.215 . S
Mn397 O423 2.117 . S
C398 O420 1.234 . S
C398 O421 1.283 . S
C399 O411 1.281 . S
C399 O412 1.236 . S
C400 O422 1.240 . S
C400 O423 1.264 . S
O401 Mn396 2.095 . S
O401 C410 1.250 . S
O402 Mn397 2.121 . S
O402 C410 1.258 . S
C403 N404 1.326 . S
C403 C407 1.460 . S
C403 H409 0.929 . S
N404 Mn397 2.257 . S
N404 C403 1.326 . S
N404 C408 1.362 . S
C405 C406 1.258 . S
C405 C408 1.431 . S
C405 C425 1.449 . S
C406 C405 1.258 . S
C406 C407 1.477 . S
C406 H426 0.931 . S
C407 C403 1.460 . S
C407 C406 1.477 . S
C407 H427 0.930 . S
C408 N404 1.362 . S
C408 C405 1.431 . S
C408 C418 1.476 . S
H409 C403 0.929 . S
C410 O401 1.250 . S
C410 O402 1.258 . S
O411 Mn396 2.162 . S
O411 C399 1.281 . S
O412 Mn396 2.297 . S
O412 C399 1.236 . S
N413 Mn397 2.282 . S
N413 C414 1.328 . S
N413 C418 1.318 . S
C414 N413 1.328 . S
C414 C415 1.457 . S
C414 H419 0.929 . S
C415 C414 1.457 . S
C415 C416 1.291 . S
C415 H428 0.931 1_554 S
C416 C415 1.291 . S
C416 C417 1.373 . S
C416 H429 0.929 1_554 S
C417 C416 1.373 . S
C417 C418 1.396 . S
C417 C424 1.403 . S
C418 C408 1.476 . S
C418 N413 1.318 . S
C418 C417 1.396 . S
H419 C414 0.929 . S
O420 Mn396 2.385 . S
O420 C398 1.234 . S
O421 Mn396 2.209 . S
O421 Mn397 2.215 . S
O421 C398 1.283 . S
O422 Mn396 2.094 . S
O422 C400 1.240 . S
O423 Mn397 2.117 . S
O423 C400 1.264 . S
C424 C417 1.403 . S
C424 C425 1.399 . S
C424 H430 0.929 . S
C425 C405 1.449 . S
C425 C424 1.399 . S
C425 H431 0.930 . S
H426 C406 0.931 . S
H427 C407 0.930 . S
H428 C415 0.931 1_556 S
H429 C416 0.929 1_556 S
H430 C424 0.929 . S
H431 C425 0.930 . S
Mn432 O437 2.095 . S
Mn432 O447 2.162 . S
Mn432 O448 2.297 . S
Mn432 O456 2.385 . S
Mn432 O457 2.209 . S
Mn432 O458 2.094 . S
Mn433 O438 2.121 . S
Mn433 N440 2.257 1_655 S
Mn433 N449 2.282 . S
Mn433 O457 2.215 . S
Mn433 O459 2.117 . S
C434 O456 1.234 . S
C434 O457 1.283 . S
C435 O447 1.281 . S
C435 O448 1.236 . S
C436 O458 1.240 . S
C436 O459 1.264 . S
O437 Mn432 2.095 . S
O437 C446 1.250 . S
O438 Mn433 2.121 . S
O438 C446 1.258 . S
C439 N440 1.326 . S
C439 C443 1.460 . S
C439 H445 0.929 . S
N440 Mn433 2.257 1_455 S
N440 C439 1.326 . S
N440 C444 1.362 . S
C441 C442 1.258 . S
C441 C444 1.431 . S
C441 C461 1.449 . S
C442 C441 1.258 . S
C442 C443 1.477 . S
C442 H462 0.931 . S
C443 C439 1.460 . S
C443 C442 1.477 . S
C443 H463 0.930 . S
C444 N440 1.362 . S
C444 C441 1.431 . S
C444 C454 1.513 . S
H445 C439 0.929 . S
C446 O437 1.250 . S
C446 O438 1.258 . S
O447 Mn432 2.162 . S
O447 C435 1.281 . S
O448 Mn432 2.297 . S
O448 C435 1.236 . S
N449 Mn433 2.282 . S
N449 C450 1.328 . S
N449 C454 1.279 1_655 S
C450 N449 1.328 . S
C450 C451 1.457 . S
C450 H455 0.929 . S
C451 C450 1.457 . S
C451 C452 1.291 . S
C451 H464 0.931 . S
C452 C451 1.291 . S
C452 C453 1.373 1_655 S
C452 H465 0.929 . S
C453 C452 1.373 1_455 S
C453 C454 1.400 . S
C453 C460 1.403 . S
C454 C444 1.513 . S
C454 N449 1.279 1_455 S
C454 C453 1.400 . S
H455 C450 0.929 . S
O456 Mn432 2.385 . S
O456 C434 1.234 . S
O457 Mn432 2.209 . S
O457 Mn433 2.215 . S
O457 C434 1.283 . S
O458 Mn432 2.094 . S
O458 C436 1.240 . S
O459 Mn433 2.117 . S
O459 C436 1.264 . S
C460 C453 1.403 . S
C460 C461 1.399 . S
C460 H466 0.929 . S
C461 C441 1.449 . S
C461 C460 1.399 . S
C461 H467 0.930 . S
H462 C442 0.931 . S
H463 C443 0.930 . S
H464 C451 0.931 . S
H465 C452 0.929 . S
H466 C460 0.929 . S
H467 C461 0.930 . S
Mn468 O473 2.095 . S
Mn468 O483 2.162 . S
Mn468 O484 2.297 . S
Mn468 O492 2.385 . S
Mn468 O493 2.209 . S
Mn468 O494 2.094 . S
Mn469 O474 2.121 . S
Mn469 N476 2.257 . S
Mn469 N485 2.282 . S
Mn469 O493 2.215 . S
Mn469 O495 2.117 . S
C470 O492 1.234 . S
C470 O493 1.283 . S
C471 O483 1.281 . S
C471 O484 1.236 . S
C472 O494 1.240 . S
C472 O495 1.264 . S
O473 Mn468 2.095 . S
O473 C482 1.250 . S
O474 Mn469 2.121 . S
O474 C482 1.258 . S
C475 N476 1.326 . S
C475 C479 1.460 . S
C475 H481 0.929 . S
N476 Mn469 2.257 . S
N476 C475 1.326 . S
N476 C480 1.362 . S
C477 C478 1.258 . S
C477 C480 1.431 . S
C477 C497 1.449 . S
C478 C477 1.258 . S
C478 C479 1.477 . S
C478 H498 0.931 . S
C479 C475 1.460 . S
C479 C478 1.477 . S
C479 H499 0.930 . S
C480 N476 1.362 . S
C480 C477 1.431 . S
C480 C490 1.476 . S
H481 C475 0.929 . S
C482 O473 1.250 . S
C482 O474 1.258 . S
O483 Mn468 2.162 . S
O483 C471 1.281 . S
O484 Mn468 2.297 . S
O484 C471 1.236 . S
N485 Mn469 2.282 . S
N485 C486 1.328 . S
N485 C490 1.318 . S
C486 N485 1.328 . S
C486 C487 1.457 . S
C486 H491 0.929 . S
C487 C486 1.457 . S
C487 C488 1.291 . S
C487 H500 0.931 . S
C488 C487 1.291 . S
C488 C489 1.373 . S
C488 H501 0.929 . S
C489 C488 1.373 . S
C489 C490 1.396 . S
C489 C496 1.403 . S
C490 C480 1.476 . S
C490 N485 1.318 . S
C490 C489 1.396 . S
H491 C486 0.929 . S
O492 Mn468 2.385 . S
O492 C470 1.234 . S
O493 Mn468 2.209 . S
O493 Mn469 2.215 . S
O493 C470 1.283 . S
O494 Mn468 2.094 . S
O494 C472 1.240 . S
O495 Mn469 2.117 . S
O495 C472 1.264 . S
C496 C489 1.403 . S
C496 C497 1.399 . S
C496 H502 0.929 . S
C497 C477 1.449 . S
C497 C496 1.399 . S
C497 H503 0.930 . S
H498 C478 0.931 . S
H499 C479 0.930 . S
H500 C487 0.931 . S
H501 C488 0.929 . S
H502 C496 0.929 . S
H503 C497 0.930 . S
Mn504 O509 2.095 . S
Mn504 O519 2.162 . S
Mn504 O520 2.297 . S
Mn504 O528 2.385 1_554 S
Mn504 O529 2.209 . S
Mn504 O530 2.094 . S
Mn505 O510 2.121 . S
Mn505 N512 2.257 . S
Mn505 N521 2.282 1_554 S
Mn505 O529 2.215 . S
Mn505 O531 2.117 . S
C506 O528 1.234 . S
C506 O529 1.283 1_556 S
C507 O519 1.281 . S
C507 O520 1.236 . S
C508 O530 1.240 . S
C508 O531 1.264 . S
O509 Mn504 2.095 . S
O509 C518 1.250 . S
O510 Mn505 2.121 . S
O510 C518 1.258 . S
C511 N512 1.326 . S
C511 C515 1.460 . S
C511 H517 0.929 . S
N512 Mn505 2.257 . S
N512 C511 1.326 . S
N512 C516 1.362 1_554 S
C513 C514 1.258 1_556 S
C513 C516 1.431 . S
C513 C533 1.449 . S
C514 C513 1.258 1_554 S
C514 C515 1.477 . S
C514 H534 0.931 1_554 S
C515 C511 1.460 . S
C515 C514 1.477 . S
C515 H535 0.930 . S
C516 N512 1.362 1_556 S
C516 C513 1.431 . S
C516 C526 1.476 . S
H517 C511 0.929 . S
C518 O509 1.250 . S
C518 O510 1.258 . S
O519 Mn504 2.162 . S
O519 C507 1.281 . S
O520 Mn504 2.297 . S
O520 C507 1.236 . S
N521 Mn505 2.282 1_556 S
N521 C522 1.328 . S
N521 C526 1.318 . S
C522 N521 1.328 . S
C522 C523 1.457 . S
C522 H527 0.929 . S
C523 C522 1.457 . S
C523 C524 1.291 . S
C523 H536 0.931 . S
C524 C523 1.291 . S
C524 C525 1.373 . S
C524 H537 0.929 . S
C525 C524 1.373 . S
C525 C526 1.396 . S
C525 C532 1.403 . S
C526 C516 1.476 . S
C526 N521 1.318 . S
C526 C525 1.396 . S
H527 C522 0.929 . S
O528 Mn504 2.385 1_556 S
O528 C506 1.234 . S
O529 Mn504 2.209 . S
O529 Mn505 2.215 . S
O529 C506 1.283 1_554 S
O530 Mn504 2.094 . S
O530 C508 1.240 . S
O531 Mn505 2.117 . S
O531 C508 1.264 . S
C532 C525 1.403 . S
C532 C533 1.399 . S
C532 H538 0.929 . S
C533 C513 1.449 . S
C533 C532 1.399 . S
C533 H539 0.930 . S
H534 C514 0.931 1_556 S
H535 C515 0.930 . S
H536 C523 0.931 . S
H537 C524 0.929 . S
H538 C532 0.929 . S
H539 C533 0.930 . S
Mn540 O545 2.095 . S
Mn540 O555 2.162 . S
Mn540 O556 2.297 . S
Mn540 O564 2.385 . S
Mn540 O565 2.209 . S
Mn540 O566 2.094 . S
Mn541 O546 2.121 . S
Mn541 N548 2.257 . S
Mn541 N557 2.282 . S
Mn541 O565 2.215 . S
Mn541 O567 2.117 . S
C542 O564 1.234 . S
C542 O565 1.283 . S
C543 O555 1.281 . S
C543 O556 1.236 . S
C544 O566 1.240 . S
C544 O567 1.264 . S
O545 Mn540 2.095 . S
O545 C554 1.250 . S
O546 Mn541 2.121 . S
O546 C554 1.258 . S
C547 N548 1.326 . S
C547 C551 1.460 . S
C547 H553 0.929 . S
N548 Mn541 2.257 . S
N548 C547 1.326 . S
N548 C552 1.362 . S
C549 C550 1.258 . S
C549 C552 1.431 . S
C549 C569 1.449 . S
C550 C549 1.258 . S
C550 C551 1.477 . S
C550 H570 0.931 . S
C551 C547 1.460 . S
C551 C550 1.477 . S
C551 H571 0.930 . S
C552 N548 1.362 . S
C552 C549 1.431 . S
C552 C562 1.476 . S
H553 C547 0.929 . S
C554 O545 1.250 . S
C554 O546 1.258 . S
O555 Mn540 2.162 . S
O555 C543 1.281 . S
O556 Mn540 2.297 . S
O556 C543 1.236 . S
N557 Mn541 2.282 . S
N557 C558 1.328 . S
N557 C562 1.318 . S
C558 N557 1.328 . S
C558 C559 1.457 . S
C558 H563 0.929 . S
C559 C558 1.457 . S
C559 C560 1.291 . S
C559 H572 0.931 1_556 S
C560 C559 1.291 . S
C560 C561 1.373 . S
C560 H573 0.929 1_556 S
C561 C560 1.373 . S
C561 C562 1.396 . S
C561 C568 1.403 . S
C562 C552 1.476 . S
C562 N557 1.318 . S
C562 C561 1.396 . S
H563 C558 0.929 . S
O564 Mn540 2.385 . S
O564 C542 1.234 . S
O565 Mn540 2.209 . S
O565 Mn541 2.215 . S
O565 C542 1.283 . S
O566 Mn540 2.094 . S
O566 C544 1.240 . S
O567 Mn541 2.117 . S
O567 C544 1.264 . S
C568 C561 1.403 . S
C568 C569 1.399 . S
C568 H574 0.929 . S
C569 C549 1.449 . S
C569 C568 1.399 . S
C569 H575 0.930 . S
H570 C550 0.931 . S
H571 C551 0.930 . S
H572 C559 0.931 1_554 S
H573 C560 0.929 1_554 S
H574 C568 0.929 . S
H575 C569 0.930 . S
Mn576 O581 2.095 . S
Mn576 O591 2.162 . S
Mn576 O592 2.297 . S
Mn576 O600 2.385 . S
Mn576 O601 2.209 . S
Mn576 O602 2.094 . S
Mn577 O582 2.121 . S
Mn577 N584 2.257 . S
Mn577 N593 2.282 . S
Mn577 O601 2.215 . S
Mn577 O603 2.117 . S
C578 O600 1.234 . S
C578 O601 1.283 . S
C579 O591 1.281 . S
C579 O592 1.236 . S
C580 O602 1.240 . S
C580 O603 1.264 . S
O581 Mn576 2.095 . S
O581 C590 1.250 . S
O582 Mn577 2.121 . S
O582 C590 1.258 . S
C583 N584 1.326 . S
C583 C587 1.460 . S
C583 H589 0.929 . S
N584 Mn577 2.257 . S
N584 C583 1.326 . S
N584 C588 1.362 . S
C585 C586 1.258 . S
C585 C588 1.431 . S
C585 C605 1.449 . S
C586 C585 1.258 . S
C586 C587 1.477 . S
C586 H606 0.931 . S
C587 C583 1.460 . S
C587 C586 1.477 . S
C587 H607 0.930 . S
C588 N584 1.362 . S
C588 C585 1.431 . S
C588 C598 1.476 . S
H589 C583 0.929 . S
C590 O581 1.250 . S
C590 O582 1.258 . S
O591 Mn576 2.162 . S
O591 C579 1.281 . S
O592 Mn576 2.297 . S
O592 C579 1.236 . S
N593 Mn577 2.282 . S
N593 C594 1.328 . S
N593 C598 1.318 . S
C594 N593 1.328 . S
C594 C595 1.457 . S
C594 H599 0.929 . S
C595 C594 1.457 . S
C595 C596 1.291 . S
C595 H608 0.931 . S
C596 C595 1.291 . S
C596 C597 1.373 . S
C596 H609 0.929 . S
C597 C596 1.373 . S
C597 C598 1.396 . S
C597 C604 1.403 . S
C598 C588 1.476 . S
C598 N593 1.318 . S
C598 C597 1.396 . S
H599 C594 0.929 . S
O600 Mn576 2.385 . S
O600 C578 1.234 . S
O601 Mn576 2.209 . S
O601 Mn577 2.215 . S
O601 C578 1.283 . S
O602 Mn576 2.094 . S
O602 C580 1.240 . S
O603 Mn577 2.117 . S
O603 C580 1.264 . S
C604 C597 1.403 . S
C604 C605 1.399 . S
C604 H610 0.929 . S
C605 C585 1.449 . S
C605 C604 1.399 . S
C605 H611 0.930 . S
H606 C586 0.931 . S
H607 C587 0.930 . S
H608 C595 0.931 . S
H609 C596 0.929 . S
H610 C604 0.929 . S
H611 C605 0.930 . S
Mn612 O617 2.095 . S
Mn612 O627 2.162 . S
Mn612 O628 2.297 . S
Mn612 O636 2.385 . S
Mn612 O637 2.209 . S
Mn612 O638 2.094 . S
Mn613 O618 2.121 . S
Mn613 N620 2.257 . S
Mn613 N629 2.282 . S
Mn613 O637 2.215 . S
Mn613 O639 2.117 . S
C614 O636 1.234 . S
C614 O637 1.283 . S
C615 O627 1.281 . S
C615 O628 1.236 . S
C616 O638 1.240 . S
C616 O639 1.264 . S
O617 Mn612 2.095 . S
O617 C626 1.250 . S
O618 Mn613 2.121 . S
O618 C626 1.258 . S
C619 N620 1.326 . S
C619 C623 1.460 . S
C619 H625 0.929 . S
N620 Mn613 2.257 . S
N620 C619 1.326 . S
N620 C624 1.362 . S
C621 C622 1.258 . S
C621 C624 1.431 . S
C621 C641 1.449 . S
C622 C621 1.258 . S
C622 C623 1.477 . S
C622 H642 0.931 . S
C623 C619 1.460 . S
C623 C622 1.477 . S
C623 H643 0.930 . S
C624 N620 1.362 . S
C624 C621 1.431 . S
C624 C634 1.476 . S
H625 C619 0.929 . S
C626 O617 1.250 . S
C626 O618 1.258 . S
O627 Mn612 2.162 . S
O627 C615 1.281 . S
O628 Mn612 2.297 . S
O628 C615 1.236 . S
N629 Mn613 2.282 . S
N629 C630 1.328 . S
N629 C634 1.318 . S
C630 N629 1.328 . S
C630 C631 1.457 . S
C630 H635 0.929 . S
C631 C630 1.457 . S
C631 C632 1.291 . S
C631 H644 0.931 . S
C632 C631 1.291 . S
C632 C633 1.373 . S
C632 H645 0.929 . S
C633 C632 1.373 . S
C633 C634 1.396 . S
C633 C640 1.403 . S
C634 C624 1.476 . S
C634 N629 1.318 . S
C634 C633 1.396 . S
H635 C630 0.929 . S
O636 Mn612 2.385 . S
O636 C614 1.234 . S
O637 Mn612 2.209 . S
O637 Mn613 2.215 . S
O637 C614 1.283 . S
O638 Mn612 2.094 . S
O638 C616 1.240 . S
O639 Mn613 2.117 . S
O639 C616 1.264 . S
C640 C633 1.403 . S
C640 C641 1.399 . S
C640 H646 0.929 . S
C641 C621 1.449 . S
C641 C640 1.399 . S
C641 H647 0.930 . S
H642 C622 0.931 . S
H643 C623 0.930 . S
H644 C631 0.931 . S
H645 C632 0.929 . S
H646 C640 0.929 . S
H647 C641 0.930 . S
Mn648 O653 2.095 1_655 S
Mn648 O663 2.162 . S
Mn648 O664 2.297 1_655 S
Mn648 O672 2.385 1_554 S
Mn648 O673 2.209 1_655 S
Mn648 O674 2.094 . S
Mn649 O654 2.121 . S
Mn649 N656 2.257 . S
Mn649 N665 2.282 1_554 S
Mn649 O673 2.215 . S
Mn649 O675 2.117 1_455 S
C650 O672 1.234 1_455 S
C650 O673 1.283 1_556 S
C651 O663 1.315 . S
C651 O664 1.205 1_655 S
C652 O674 1.240 . S
C652 O675 1.264 . S
O653 Mn648 2.095 1_455 S
O653 C662 1.250 . S
O654 Mn649 2.121 . S
O654 C662 1.258 . S
C655 N656 1.326 . S
C655 C659 1.460 . S
C655 H661 0.929 . S
N656 Mn649 2.257 . S
N656 C655 1.326 . S
N656 C660 1.362 1_554 S
C657 C658 1.258 1_556 S
C657 C660 1.431 . S
C657 C677 1.449 . S
C658 C657 1.258 1_554 S
C658 C659 1.477 . S
C658 H678 0.931 1_554 S
C659 C655 1.460 . S
C659 C658 1.477 . S
C659 H679 0.930 . S
C660 N656 1.362 1_556 S
C660 C657 1.431 . S
C660 C670 1.476 . S
H661 C655 0.929 . S
C662 O653 1.250 . S
C662 O654 1.258 . S
O663 Mn648 2.162 . S
O663 C651 1.315 . S
O664 Mn648 2.297 1_455 S
O664 C651 1.205 1_455 S
N665 Mn649 2.282 1_556 S
N665 C666 1.328 1_455 S
N665 C670 1.318 . S
C666 N665 1.328 1_655 S
C666 C667 1.457 . S
C666 H671 0.929 . S
C667 C666 1.457 . S
C667 C668 1.291 1_655 S
C667 H680 0.931 . S
C668 C667 1.291 1_455 S
C668 C669 1.373 . S
C668 H681 0.929 . S
C669 C668 1.373 . S
C669 C670 1.396 . S
C669 C676 1.403 . S
C670 C660 1.476 . S
C670 N665 1.318 . S
C670 C669 1.396 . S
H671 C666 0.929 . S
O672 Mn648 2.385 1_556 S
O672 C650 1.234 1_655 S
O673 Mn648 2.209 1_455 S
O673 Mn649 2.215 . S
O673 C650 1.283 1_554 S
O674 Mn648 2.094 . S
O674 C652 1.240 . S
O675 Mn649 2.117 1_655 S
O675 C652 1.264 . S
C676 C669 1.403 . S
C676 C677 1.399 . S
C676 H682 0.929 . S
C677 C657 1.449 . S
C677 C676 1.399 . S
C677 H683 0.930 . S
H678 C658 0.931 1_556 S
H679 C659 0.930 . S
H680 C667 0.931 . S
H681 C668 0.929 . S
H682 C676 0.929 . S
H683 C677 0.930 . S
Mn684 O689 2.095 . S
Mn684 O699 2.162 . S
Mn684 O700 2.297 . S
Mn684 O708 2.385 . S
Mn684 O709 2.209 . S
Mn684 O710 2.094 . S
Mn685 O690 2.121 . S
Mn685 N692 2.257 . S
Mn685 N701 2.282 . S
Mn685 O709 2.215 . S
Mn685 O711 2.117 . S
C686 O708 1.234 . S
C686 O709 1.283 . S
C687 O699 1.281 . S
C687 O700 1.236 . S
C688 O710 1.240 . S
C688 O711 1.264 . S
O689 Mn684 2.095 . S
O689 C698 1.250 . S
O690 Mn685 2.121 . S
O690 C698 1.258 . S
C691 N692 1.326 . S
C691 C695 1.460 . S
C691 H697 0.929 . S
N692 Mn685 2.257 . S
N692 C691 1.326 . S
N692 C696 1.362 . S
C693 C694 1.258 . S
C693 C696 1.431 . S
C693 C713 1.449 . S
C694 C693 1.258 . S
C694 C695 1.477 . S
C694 H714 0.931 . S
C695 C691 1.460 . S
C695 C694 1.477 . S
C695 H715 0.930 . S
C696 N692 1.362 . S
C696 C693 1.431 . S
C696 C706 1.476 . S
H697 C691 0.929 . S
C698 O689 1.250 . S
C698 O690 1.258 . S
O699 Mn684 2.162 . S
O699 C687 1.281 . S
O700 Mn684 2.297 . S
O700 C687 1.236 . S
N701 Mn685 2.282 . S
N701 C702 1.328 . S
N701 C706 1.318 . S
C702 N701 1.328 . S
C702 C703 1.457 . S
C702 H707 0.929 . S
C703 C702 1.457 . S
C703 C704 1.291 . S
C703 H716 0.931 . S
C704 C703 1.291 . S
C704 C705 1.373 . S
C704 H717 0.929 . S
C705 C704 1.373 . S
C705 C706 1.396 . S
C705 C712 1.403 . S
C706 C696 1.476 . S
C706 N701 1.318 . S
C706 C705 1.396 . S
H707 C702 0.929 . S
O708 Mn684 2.385 . S
O708 C686 1.234 . S
O709 Mn684 2.209 . S
O709 Mn685 2.215 . S
O709 C686 1.283 . S
O710 Mn684 2.094 . S
O710 C688 1.240 . S
O711 Mn685 2.117 . S
O711 C688 1.264 . S
C712 C705 1.403 . S
C712 C713 1.399 . S
C712 H718 0.929 . S
C713 C693 1.449 . S
C713 C712 1.399 . S
C713 H719 0.930 . S
H714 C694 0.931 . S
H715 C695 0.930 . S
H716 C703 0.931 . S
H717 C704 0.929 . S
H718 C712 0.929 . S
H719 C713 0.930 . S
Mn720 O725 2.095 . S
Mn720 O735 2.162 . S
Mn720 O736 2.297 . S
Mn720 O744 2.385 1_556 S
Mn720 O745 2.209 . S
Mn720 O746 2.094 . S
Mn721 O726 2.121 . S
Mn721 N728 2.257 . S
Mn721 N737 2.282 1_556 S
Mn721 O745 2.215 . S
Mn721 O747 2.117 . S
C722 O744 1.234 . S
C722 O745 1.283 1_554 S
C723 O735 1.281 . S
C723 O736 1.236 . S
C724 O746 1.240 . S
C724 O747 1.264 . S
O725 Mn720 2.095 . S
O725 C734 1.250 . S
O726 Mn721 2.121 . S
O726 C734 1.258 . S
C727 N728 1.326 . S
C727 C731 1.460 . S
C727 H733 0.929 . S
N728 Mn721 2.257 . S
N728 C727 1.326 . S
N728 C732 1.362 1_556 S
C729 C730 1.258 1_554 S
C729 C732 1.431 . S
C729 C749 1.449 . S
C730 C729 1.258 1_556 S
C730 C731 1.477 . S
C730 H750 0.931 1_556 S
C731 C727 1.460 . S
C731 C730 1.477 . S
C731 H751 0.930 . S
C732 N728 1.362 1_554 S
C732 C729 1.431 . S
C732 C742 1.476 . S
H733 C727 0.929 . S
C734 O725 1.250 . S
C734 O726 1.258 . S
O735 Mn720 2.162 . S
O735 C723 1.281 . S
O736 Mn720 2.297 . S
O736 C723 1.236 . S
N737 Mn721 2.282 1_554 S
N737 C738 1.328 . S
N737 C742 1.318 . S
C738 N737 1.328 . S
C738 C739 1.457 . S
C738 H743 0.929 . S
C739 C738 1.457 . S
C739 C740 1.291 . S
C739 H752 0.931 . S
C740 C739 1.291 . S
C740 C741 1.373 . S
C740 H753 0.929 . S
C741 C740 1.373 . S
C741 C742 1.396 . S
C741 C748 1.403 . S
C742 C732 1.476 . S
C742 N737 1.318 . S
C742 C741 1.396 . S
H743 C738 0.929 . S
O744 Mn720 2.385 1_554 S
O744 C722 1.234 . S
O745 Mn720 2.209 . S
O745 Mn721 2.215 . S
O745 C722 1.283 1_556 S
O746 Mn720 2.094 . S
O746 C724 1.240 . S
O747 Mn721 2.117 . S
O747 C724 1.264 . S
C748 C741 1.403 . S
C748 C749 1.399 . S
C748 H754 0.929 . S
C749 C729 1.449 . S
C749 C748 1.399 . S
C749 H755 0.930 . S
H750 C730 0.931 1_554 S
H751 C731 0.930 . S
H752 C739 0.931 . S
H753 C740 0.929 . S
H754 C748 0.929 . S
H755 C749 0.930 . S
Mn756 O761 2.095 . S
Mn756 O771 2.162 . S
Mn756 O772 2.297 . S
Mn756 O780 2.385 . S
Mn756 O781 2.209 . S
Mn756 O782 2.094 . S
Mn757 O762 2.121 . S
Mn757 N764 2.257 . S
Mn757 N773 2.282 . S
Mn757 O781 2.215 . S
Mn757 O783 2.117 . S
C758 O780 1.234 . S
C758 O781 1.283 . S
C759 O771 1.281 . S
C759 O772 1.236 . S
C760 O782 1.240 . S
C760 O783 1.264 . S
O761 Mn756 2.095 . S
O761 C770 1.250 . S
O762 Mn757 2.121 . S
O762 C770 1.258 . S
C763 N764 1.326 . S
C763 C767 1.460 . S
C763 H769 0.929 . S
N764 Mn757 2.257 . S
N764 C763 1.326 . S
N764 C768 1.362 . S
C765 C766 1.258 . S
C765 C768 1.431 . S
C765 C785 1.449 . S
C766 C765 1.258 . S
C766 C767 1.477 . S
C766 H786 0.931 . S
C767 C763 1.460 . S
C767 C766 1.477 . S
C767 H787 0.930 . S
C768 N764 1.362 . S
C768 C765 1.431 . S
C768 C778 1.476 . S
H769 C763 0.929 . S
C770 O761 1.250 . S
C770 O762 1.258 . S
O771 Mn756 2.162 . S
O771 C759 1.281 . S
O772 Mn756 2.297 . S
O772 C759 1.236 . S
N773 Mn757 2.282 . S
N773 C774 1.328 . S
N773 C778 1.318 . S
C774 N773 1.328 . S
C774 C775 1.457 . S
C774 H779 0.929 . S
C775 C774 1.457 . S
C775 C776 1.291 . S
C775 H788 0.931 . S
C776 C775 1.291 . S
C776 C777 1.373 . S
C776 H789 0.929 . S
C777 C776 1.373 . S
C777 C778 1.396 . S
C777 C784 1.403 . S
C778 C768 1.476 . S
C778 N773 1.318 . S
C778 C777 1.396 . S
H779 C774 0.929 . S
O780 Mn756 2.385 . S
O780 C758 1.234 . S
O781 Mn756 2.209 . S
O781 Mn757 2.215 . S
O781 C758 1.283 . S
O782 Mn756 2.094 . S
O782 C760 1.240 . S
O783 Mn757 2.117 . S
O783 C760 1.264 . S
C784 C777 1.403 . S
C784 C785 1.399 . S
C784 H790 0.929 . S
C785 C765 1.449 . S
C785 C784 1.399 . S
C785 H791 0.930 . S
H786 C766 0.931 . S
H787 C767 0.930 . S
H788 C775 0.931 . S
H789 C776 0.929 . S
H790 C784 0.929 . S
H791 C785 0.930 . S
Mn792 O797 2.095 1_655 S
Mn792 O807 2.162 . S
Mn792 O808 2.297 1_655 S
Mn792 O816 2.385 . S
Mn792 O817 2.209 1_655 S
Mn792 O818 2.094 . S
Mn793 O798 2.121 . S
Mn793 N800 2.257 . S
Mn793 N809 2.282 . S
Mn793 O817 2.215 . S
Mn793 O819 2.117 1_455 S
C794 O816 1.234 1_455 S
C794 O817 1.283 . S
C795 O807 1.315 . S
C795 O808 1.205 1_655 S
C796 O818 1.240 . S
C796 O819 1.264 . S
O797 Mn792 2.095 1_455 S
O797 C806 1.250 . S
O798 Mn793 2.121 . S
O798 C806 1.258 . S
C799 N800 1.326 . S
C799 C803 1.460 . S
C799 H805 0.929 . S
N800 Mn793 2.257 . S
N800 C799 1.326 . S
N800 C804 1.362 . S
C801 C802 1.258 . S
C801 C804 1.431 . S
C801 C821 1.449 . S
C802 C801 1.258 . S
C802 C803 1.477 . S
C802 H822 0.931 . S
C803 C799 1.460 . S
C803 C802 1.477 . S
C803 H823 0.930 . S
C804 N800 1.362 . S
C804 C801 1.431 . S
C804 C814 1.476 . S
H805 C799 0.929 . S
C806 O797 1.250 . S
C806 O798 1.258 . S
O807 Mn792 2.162 . S
O807 C795 1.315 . S
O808 Mn792 2.297 1_455 S
O808 C795 1.205 1_455 S
N809 Mn793 2.282 . S
N809 C810 1.328 1_455 S
N809 C814 1.318 . S
C810 N809 1.328 1_655 S
C810 C811 1.457 . S
C810 H815 0.929 . S
C811 C810 1.457 . S
C811 C812 1.291 1_655 S
C811 H824 0.931 . S
C812 C811 1.291 1_455 S
C812 C813 1.373 . S
C812 H825 0.929 . S
C813 C812 1.373 . S
C813 C814 1.396 . S
C813 C820 1.403 . S
C814 C804 1.476 . S
C814 N809 1.318 . S
C814 C813 1.396 . S
H815 C810 0.929 . S
O816 Mn792 2.385 . S
O816 C794 1.234 1_655 S
O817 Mn792 2.209 1_455 S
O817 Mn793 2.215 . S
O817 C794 1.283 . S
O818 Mn792 2.094 . S
O818 C796 1.240 . S
O819 Mn793 2.117 1_655 S
O819 C796 1.264 . S
C820 C813 1.403 . S
C820 C821 1.399 . S
C820 H826 0.929 . S
C821 C801 1.449 . S
C821 C820 1.399 . S
C821 H827 0.930 . S
H822 C802 0.931 . S
H823 C803 0.930 . S
H824 C811 0.931 . S
H825 C812 0.929 . S
H826 C820 0.929 . S
H827 C821 0.930 . S
Mn828 O833 2.095 . S
Mn828 O843 2.162 . S
Mn828 O844 2.297 . S
Mn828 O852 2.385 . S
Mn828 O853 2.209 . S
Mn828 O854 2.094 . S
Mn829 O834 2.121 . S
Mn829 N836 2.257 . S
Mn829 N845 2.282 . S
Mn829 O853 2.215 . S
Mn829 O855 2.117 . S
C830 O852 1.234 . S
C830 O853 1.283 . S
C831 O843 1.281 . S
C831 O844 1.236 . S
C832 O854 1.240 . S
C832 O855 1.264 . S
O833 Mn828 2.095 . S
O833 C842 1.250 . S
O834 Mn829 2.121 . S
O834 C842 1.258 . S
C835 N836 1.326 . S
C835 C839 1.460 . S
C835 H841 0.929 . S
N836 Mn829 2.257 . S
N836 C835 1.326 . S
N836 C840 1.362 . S
C837 C838 1.258 . S
C837 C840 1.431 . S
C837 C857 1.449 . S
C838 C837 1.258 . S
C838 C839 1.477 . S
C838 H858 0.931 . S
C839 C835 1.460 . S
C839 C838 1.477 . S
C839 H859 0.930 . S
C840 N836 1.362 . S
C840 C837 1.431 . S
C840 C850 1.476 . S
H841 C835 0.929 . S
C842 O833 1.250 . S
C842 O834 1.258 . S
O843 Mn828 2.162 . S
O843 C831 1.281 . S
O844 Mn828 2.297 . S
O844 C831 1.236 . S
N845 Mn829 2.282 . S
N845 C846 1.328 . S
N845 C850 1.318 . S
C846 N845 1.328 . S
C846 C847 1.457 . S
C846 H851 0.929 . S
C847 C846 1.457 . S
C847 C848 1.291 . S
C847 H860 0.931 . S
C848 C847 1.291 . S
C848 C849 1.373 . S
C848 H861 0.929 . S
C849 C848 1.373 . S
C849 C850 1.396 . S
C849 C856 1.403 . S
C850 C840 1.476 . S
C850 N845 1.318 . S
C850 C849 1.396 . S
H851 C846 0.929 . S
O852 Mn828 2.385 . S
O852 C830 1.234 . S
O853 Mn828 2.209 . S
O853 Mn829 2.215 . S
O853 C830 1.283 . S
O854 Mn828 2.094 . S
O854 C832 1.240 . S
O855 Mn829 2.117 . S
O855 C832 1.264 . S
C856 C849 1.403 . S
C856 C857 1.399 . S
C856 H862 0.929 . S
C857 C837 1.449 . S
C857 C856 1.399 . S
C857 H863 0.930 . S
H858 C838 0.931 . S
H859 C839 0.930 . S
H860 C847 0.931 . S
H861 C848 0.929 . S
H862 C856 0.929 . S
H863 C857 0.930 . S
Mn864 O869 2.095 . S
Mn864 O879 2.162 . S
Mn864 O880 2.297 . S
Mn864 O888 2.385 . S
Mn864 O889 2.209 . S
Mn864 O890 2.094 . S
Mn865 O870 2.121 . S
Mn865 N872 2.257 . S
Mn865 N881 2.282 . S
Mn865 O889 2.215 . S
Mn865 O891 2.117 . S
C866 O888 1.234 . S
C866 O889 1.283 . S
C867 O879 1.281 . S
C867 O880 1.236 . S
C868 O890 1.240 . S
C868 O891 1.264 . S
O869 Mn864 2.095 . S
O869 C878 1.250 . S
O870 Mn865 2.121 . S
O870 C878 1.258 . S
C871 N872 1.326 . S
C871 C875 1.460 . S
C871 H877 0.929 . S
N872 Mn865 2.257 . S
N872 C871 1.326 . S
N872 C876 1.362 . S
C873 C874 1.258 . S
C873 C876 1.431 . S
C873 C893 1.449 . S
C874 C873 1.258 . S
C874 C875 1.477 . S
C874 H894 0.931 . S
C875 C871 1.460 . S
C875 C874 1.477 . S
C875 H895 0.930 . S
C876 N872 1.362 . S
C876 C873 1.431 . S
C876 C886 1.476 . S
H877 C871 0.929 . S
C878 O869 1.250 . S
C878 O870 1.258 . S
O879 Mn864 2.162 . S
O879 C867 1.281 . S
O880 Mn864 2.297 . S
O880 C867 1.236 . S
N881 Mn865 2.282 . S
N881 C882 1.328 . S
N881 C886 1.318 . S
C882 N881 1.328 . S
C882 C883 1.457 . S
C882 H887 0.929 . S
C883 C882 1.457 . S
C883 C884 1.291 . S
C883 H896 0.931 . S
C884 C883 1.291 . S
C884 C885 1.373 . S
C884 H897 0.929 . S
C885 C884 1.373 . S
C885 C886 1.396 . S
C885 C892 1.403 . S
C886 C876 1.476 . S
C886 N881 1.318 . S
C886 C885 1.396 . S
H887 C882 0.929 . S
O888 Mn864 2.385 . S
O888 C866 1.234 . S
O889 Mn864 2.209 . S
O889 Mn865 2.215 . S
O889 C866 1.283 . S
O890 Mn864 2.094 . S
O890 C868 1.240 . S
O891 Mn865 2.117 . S
O891 C868 1.264 . S
C892 C885 1.403 . S
C892 C893 1.399 . S
C892 H898 0.929 . S
C893 C873 1.449 . S
C893 C892 1.399 . S
C893 H899 0.930 . S
H894 C874 0.931 . S
H895 C875 0.930 . S
H896 C883 0.931 . S
H897 C884 0.929 . S
H898 C892 0.929 . S
H899 C893 0.930 . S
Mn900 O905 2.095 . S
Mn900 O915 2.162 . S
Mn900 O916 2.297 . S
Mn900 O924 2.385 . S
Mn900 O925 2.209 . S
Mn900 O926 2.094 . S
Mn901 O906 2.121 . S
Mn901 N908 2.257 . S
Mn901 N917 2.282 . S
Mn901 O925 2.215 . S
Mn901 O927 2.117 . S
C902 O924 1.234 . S
C902 O925 1.283 . S
C903 O915 1.281 . S
C903 O916 1.236 . S
C904 O926 1.240 . S
C904 O927 1.264 . S
O905 Mn900 2.095 . S
O905 C914 1.250 . S
O906 Mn901 2.121 . S
O906 C914 1.258 . S
C907 N908 1.326 . S
C907 C911 1.460 . S
C907 H913 0.929 . S
N908 Mn901 2.257 . S
N908 C907 1.326 . S
N908 C912 1.362 . S
C909 C910 1.258 . S
C909 C912 1.431 . S
C909 C929 1.449 . S
C910 C909 1.258 . S
C910 C911 1.477 . S
C910 H930 0.931 . S
C911 C907 1.460 . S
C911 C910 1.477 . S
C911 H931 0.930 . S
C912 N908 1.362 . S
C912 C909 1.431 . S
C912 C922 1.476 . S
H913 C907 0.929 . S
C914 O905 1.250 . S
C914 O906 1.258 . S
O915 Mn900 2.162 . S
O915 C903 1.281 . S
O916 Mn900 2.297 . S
O916 C903 1.236 . S
N917 Mn901 2.282 . S
N917 C918 1.328 . S
N917 C922 1.318 . S
C918 N917 1.328 . S
C918 C919 1.457 . S
C918 H923 0.929 . S
C919 C918 1.457 . S
C919 C920 1.291 . S
C919 H932 0.931 1_554 S
C920 C919 1.291 . S
C920 C921 1.373 . S
C920 H933 0.929 1_554 S
C921 C920 1.373 . S
C921 C922 1.396 . S
C921 C928 1.403 . S
C922 C912 1.476 . S
C922 N917 1.318 . S
C922 C921 1.396 . S
H923 C918 0.929 . S
O924 Mn900 2.385 . S
O924 C902 1.234 . S
O925 Mn900 2.209 . S
O925 Mn901 2.215 . S
O925 C902 1.283 . S
O926 Mn900 2.094 . S
O926 C904 1.240 . S
O927 Mn901 2.117 . S
O927 C904 1.264 . S
C928 C921 1.403 . S
C928 C929 1.399 . S
C928 H934 0.929 . S
C929 C909 1.449 . S
C929 C928 1.399 . S
C929 H935 0.930 . S
H930 C910 0.931 . S
H931 C911 0.930 . S
H932 C919 0.931 1_556 S
H933 C920 0.929 1_556 S
H934 C928 0.929 . S
H935 C929 0.930 . S
Mn936 O941 2.095 . S
Mn936 O951 2.162 . S
Mn936 O952 2.297 . S
Mn936 O960 2.385 1_556 S
Mn936 O961 2.209 . S
Mn936 O962 2.094 . S
Mn937 O942 2.121 . S
Mn937 N944 2.257 1_455 S
Mn937 N953 2.282 1_556 S
Mn937 O961 2.215 . S
Mn937 O963 2.117 . S
C938 O960 1.234 . S
C938 O961 1.283 1_554 S
C939 O951 1.281 . S
C939 O952 1.236 . S
C940 O962 1.240 . S
C940 O963 1.264 . S
O941 Mn936 2.095 . S
O941 C950 1.250 . S
O942 Mn937 2.121 . S
O942 C950 1.258 . S
C943 N944 1.326 . S
C943 C947 1.460 . S
C943 H949 0.929 . S
N944 Mn937 2.257 1_655 S
N944 C943 1.326 . S
N944 C948 1.362 1_556 S
C945 C946 1.258 1_554 S
C945 C948 1.431 . S
C945 C965 1.449 . S
C946 C945 1.258 1_556 S
C946 C947 1.477 . S
C946 H966 0.931 1_556 S
C947 C943 1.460 . S
C947 C946 1.477 . S
C947 H967 0.930 . S
C948 N944 1.362 1_554 S
C948 C945 1.431 . S
C948 C958 1.514 . S
H949 C943 0.929 . S
C950 O941 1.250 . S
C950 O942 1.258 . S
O951 Mn936 2.162 . S
O951 C939 1.281 . S
O952 Mn936 2.297 . S
O952 C939 1.236 . S
N953 Mn937 2.282 1_554 S
N953 C954 1.328 . S
N953 C958 1.278 1_455 S
C954 N953 1.328 . S
C954 C955 1.457 . S
C954 H959 0.929 . S
C955 C954 1.457 . S
C955 C956 1.291 . S
C955 H968 0.931 . S
C956 C955 1.291 . S
C956 C957 1.373 1_455 S
C956 H969 0.929 . S
C957 C956 1.373 1_655 S
C957 C958 1.400 . S
C957 C964 1.403 . S
C958 C948 1.514 . S
C958 N953 1.278 1_655 S
C958 C957 1.400 . S
H959 C954 0.929 . S
O960 Mn936 2.385 1_554 S
O960 C938 1.234 . S
O961 Mn936 2.209 . S
O961 Mn937 2.215 . S
O961 C938 1.283 1_556 S
O962 Mn936 2.094 . S
O962 C940 1.240 . S
O963 Mn937 2.117 . S
O963 C940 1.264 . S
C964 C957 1.403 . S
C964 C965 1.399 . S
C964 H970 0.929 . S
C965 C945 1.449 . S
C965 C964 1.399 . S
C965 H971 0.930 . S
H966 C946 0.931 1_554 S
H967 C947 0.930 . S
H968 C955 0.931 . S
H969 C956 0.929 . S
H970 C964 0.929 . S
H971 C965 0.930 . S
Mn972 O977 2.095 . S
Mn972 O987 2.162 . S
Mn972 O988 2.297 . S
Mn972 O996 2.385 . S
Mn972 O997 2.209 . S
Mn972 O998 2.094 . S
Mn973 O978 2.121 . S
Mn973 N980 2.257 . S
Mn973 N989 2.282 . S
Mn973 O997 2.215 . S
Mn973 O999 2.117 . S
C974 O996 1.234 . S
C974 O997 1.283 . S
C975 O987 1.281 . S
C975 O988 1.236 . S
C976 O998 1.240 . S
C976 O999 1.264 . S
O977 Mn972 2.095 . S
O977 C986 1.250 . S
O978 Mn973 2.121 . S
O978 C986 1.258 . S
C979 N980 1.326 . S
C979 C983 1.460 . S
C979 H985 0.929 . S
N980 Mn973 2.257 . S
N980 C979 1.326 . S
N980 C984 1.362 . S
C981 C982 1.258 . S
C981 C984 1.431 . S
C981 C1001 1.449 . S
C982 C981 1.258 . S
C982 C983 1.477 . S
C982 H1002 0.931 . S
C983 C979 1.460 . S
C983 C982 1.477 . S
C983 H1003 0.930 . S
C984 N980 1.362 . S
C984 C981 1.431 . S
C984 C994 1.476 . S
H985 C979 0.929 . S
C986 O977 1.250 . S
C986 O978 1.258 . S
O987 Mn972 2.162 . S
O987 C975 1.281 . S
O988 Mn972 2.297 . S
O988 C975 1.236 . S
N989 Mn973 2.282 . S
N989 C990 1.328 . S
N989 C994 1.318 . S
C990 N989 1.328 . S
C990 C991 1.457 . S
C990 H995 0.929 . S
C991 C990 1.457 . S
C991 C992 1.291 . S
C991 H1004 0.931 . S
C992 C991 1.291 . S
C992 C993 1.373 . S
C992 H1005 0.929 . S
C993 C992 1.373 . S
C993 C994 1.396 . S
C993 C1000 1.403 . S
C994 C984 1.476 . S
C994 N989 1.318 . S
C994 C993 1.396 . S
H995 C990 0.929 . S
O996 Mn972 2.385 . S
O996 C974 1.234 . S
O997 Mn972 2.209 . S
O997 Mn973 2.215 . S
O997 C974 1.283 . S
O998 Mn972 2.094 . S
O998 C976 1.240 . S
O999 Mn973 2.117 . S
O999 C976 1.264 . S
C1000 C993 1.403 . S
C1000 C1001 1.399 . S
C1000 H1006 0.929 . S
C1001 C981 1.449 . S
C1001 C1000 1.399 . S
C1001 H1007 0.930 . S
H1002 C982 0.931 . S
H1003 C983 0.930 . S
H1004 C991 0.931 . S
H1005 C992 0.929 . S
H1006 C1000 0.929 . S
H1007 C1001 0.930 . S
Mn1008 O1013 2.095 . S
Mn1008 O1023 2.162 . S
Mn1008 O1024 2.297 . S
Mn1008 O1032 2.385 1_554 S
Mn1008 O1033 2.209 . S
Mn1008 O1034 2.094 . S
Mn1009 O1014 2.121 . S
Mn1009 N1016 2.257 . S
Mn1009 N1025 2.282 1_554 S
Mn1009 O1033 2.215 . S
Mn1009 O1035 2.117 . S
C1010 O1032 1.234 . S
C1010 O1033 1.283 1_556 S
C1011 O1023 1.281 . S
C1011 O1024 1.236 . S
C1012 O1034 1.240 . S
C1012 O1035 1.264 . S
O1013 Mn1008 2.095 . S
O1013 C1022 1.250 . S
O1014 Mn1009 2.121 . S
O1014 C1022 1.258 . S
C1015 N1016 1.326 . S
C1015 C1019 1.460 . S
C1015 H1021 0.929 . S
N1016 Mn1009 2.257 . S
N1016 C1015 1.326 . S
N1016 C1020 1.362 1_554 S
C1017 C1018 1.258 1_556 S
C1017 C1020 1.431 . S
C1017 C1037 1.449 . S
C1018 C1017 1.258 1_554 S
C1018 C1019 1.477 . S
C1018 H1038 0.931 1_554 S
C1019 C1015 1.460 . S
C1019 C1018 1.477 . S
C1019 H1039 0.930 . S
C1020 N1016 1.362 1_556 S
C1020 C1017 1.431 . S
C1020 C1030 1.476 . S
H1021 C1015 0.929 . S
C1022 O1013 1.250 . S
C1022 O1014 1.258 . S
O1023 Mn1008 2.162 . S
O1023 C1011 1.281 . S
O1024 Mn1008 2.297 . S
O1024 C1011 1.236 . S
N1025 Mn1009 2.282 1_556 S
N1025 C1026 1.328 . S
N1025 C1030 1.318 . S
C1026 N1025 1.328 . S
C1026 C1027 1.457 . S
C1026 H1031 0.929 . S
C1027 C1026 1.457 . S
C1027 C1028 1.291 . S
C1027 H1040 0.931 . S
C1028 C1027 1.291 . S
C1028 C1029 1.373 . S
C1028 H1041 0.929 . S
C1029 C1028 1.373 . S
C1029 C1030 1.396 . S
C1029 C1036 1.403 . S
C1030 C1020 1.476 . S
C1030 N1025 1.318 . S
C1030 C1029 1.396 . S
H1031 C1026 0.929 . S
O1032 Mn1008 2.385 1_556 S
O1032 C1010 1.234 . S
O1033 Mn1008 2.209 . S
O1033 Mn1009 2.215 . S
O1033 C1010 1.283 1_554 S
O1034 Mn1008 2.094 . S
O1034 C1012 1.240 . S
O1035 Mn1009 2.117 . S
O1035 C1012 1.264 . S
C1036 C1029 1.403 . S
C1036 C1037 1.399 . S
C1036 H1042 0.929 . S
C1037 C1017 1.449 . S
C1037 C1036 1.399 . S
C1037 H1043 0.930 . S
H1038 C1018 0.931 1_556 S
H1039 C1019 0.930 . S
H1040 C1027 0.931 . S
H1041 C1028 0.929 . S
H1042 C1036 0.929 . S
H1043 C1037 0.930 . S
Mn1044 O1049 2.095 . S
Mn1044 O1059 2.162 . S
Mn1044 O1060 2.297 . S
Mn1044 O1068 2.385 . S
Mn1044 O1069 2.209 . S
Mn1044 O1070 2.094 . S
Mn1045 O1050 2.121 . S
Mn1045 N1052 2.257 . S
Mn1045 N1061 2.282 . S
Mn1045 O1069 2.215 . S
Mn1045 O1071 2.117 . S
C1046 O1068 1.234 . S
C1046 O1069 1.283 . S
C1047 O1059 1.281 . S
C1047 O1060 1.236 . S
C1048 O1070 1.240 . S
C1048 O1071 1.264 . S
O1049 Mn1044 2.095 . S
O1049 C1058 1.250 . S
O1050 Mn1045 2.121 . S
O1050 C1058 1.258 . S
C1051 N1052 1.326 . S
C1051 C1055 1.460 . S
C1051 H1057 0.929 . S
N1052 Mn1045 2.257 . S
N1052 C1051 1.326 . S
N1052 C1056 1.362 . S
C1053 C1054 1.258 . S
C1053 C1056 1.431 . S
C1053 C1073 1.449 . S
C1054 C1053 1.258 . S
C1054 C1055 1.477 . S
C1054 H1074 0.931 . S
C1055 C1051 1.460 . S
C1055 C1054 1.477 . S
C1055 H1075 0.930 . S
C1056 N1052 1.362 . S
C1056 C1053 1.431 . S
C1056 C1066 1.476 . S
H1057 C1051 0.929 . S
C1058 O1049 1.250 . S
C1058 O1050 1.258 . S
O1059 Mn1044 2.162 . S
O1059 C1047 1.281 . S
O1060 Mn1044 2.297 . S
O1060 C1047 1.236 . S
N1061 Mn1045 2.282 . S
N1061 C1062 1.328 . S
N1061 C1066 1.318 . S
C1062 N1061 1.328 . S
C1062 C1063 1.457 . S
C1062 H1067 0.929 . S
C1063 C1062 1.457 . S
C1063 C1064 1.291 . S
C1063 H1076 0.931 1_556 S
C1064 C1063 1.291 . S
C1064 C1065 1.373 . S
C1064 H1077 0.929 1_556 S
C1065 C1064 1.373 . S
C1065 C1066 1.396 . S
C1065 C1072 1.403 . S
C1066 C1056 1.476 . S
C1066 N1061 1.318 . S
C1066 C1065 1.396 . S
H1067 C1062 0.929 . S
O1068 Mn1044 2.385 . S
O1068 C1046 1.234 . S
O1069 Mn1044 2.209 . S
O1069 Mn1045 2.215 . S
O1069 C1046 1.283 . S
O1070 Mn1044 2.094 . S
O1070 C1048 1.240 . S
O1071 Mn1045 2.117 . S
O1071 C1048 1.264 . S
C1072 C1065 1.403 . S
C1072 C1073 1.399 . S
C1072 H1078 0.929 . S
C1073 C1053 1.449 . S
C1073 C1072 1.399 . S
C1073 H1079 0.930 . S
H1074 C1054 0.931 . S
H1075 C1055 0.930 . S
H1076 C1063 0.931 1_554 S
H1077 C1064 0.929 1_554 S
H1078 C1072 0.929 . S
H1079 C1073 0.930 . S
Mn1080 O1085 2.095 . S
Mn1080 O1095 2.162 . S
Mn1080 O1096 2.297 . S
Mn1080 O1104 2.385 . S
Mn1080 O1105 2.209 . S
Mn1080 O1106 2.094 . S
Mn1081 O1086 2.121 . S
Mn1081 N1088 2.257 1_455 S
Mn1081 N1097 2.282 . S
Mn1081 O1105 2.215 . S
Mn1081 O1107 2.117 . S
C1082 O1104 1.234 . S
C1082 O1105 1.283 . S
C1083 O1095 1.281 . S
C1083 O1096 1.236 . S
C1084 O1106 1.240 . S
C1084 O1107 1.264 . S
O1085 Mn1080 2.095 . S
O1085 C1094 1.250 . S
O1086 Mn1081 2.121 . S
O1086 C1094 1.258 . S
C1087 N1088 1.326 . S
C1087 C1091 1.460 . S
C1087 H1093 0.929 . S
N1088 Mn1081 2.257 1_655 S
N1088 C1087 1.326 . S
N1088 C1092 1.362 . S
C1089 C1090 1.258 . S
C1089 C1092 1.431 . S
C1089 C1109 1.449 . S
C1090 C1089 1.258 . S
C1090 C1091 1.477 . S
C1090 H1110 0.931 . S
C1091 C1087 1.460 . S
C1091 C1090 1.477 . S
C1091 H1111 0.930 . S
C1092 N1088 1.362 . S
C1092 C1089 1.431 . S
C1092 C1102 1.514 . S
H1093 C1087 0.929 . S
C1094 O1085 1.250 . S
C1094 O1086 1.258 . S
O1095 Mn1080 2.162 . S
O1095 C1083 1.281 . S
O1096 Mn1080 2.297 . S
O1096 C1083 1.236 . S
N1097 Mn1081 2.282 . S
N1097 C1098 1.328 . S
N1097 C1102 1.278 1_455 S
C1098 N1097 1.328 . S
C1098 C1099 1.457 . S
C1098 H1103 0.929 . S
C1099 C1098 1.457 . S
C1099 C1100 1.291 . S
C1099 H1112 0.931 . S
C1100 C1099 1.291 . S
C1100 C1101 1.373 1_455 S
C1100 H1113 0.929 . S
C1101 C1100 1.373 1_655 S
C1101 C1102 1.400 . S
C1101 C1108 1.403 . S
C1102 C1092 1.514 . S
C1102 N1097 1.278 1_655 S
C1102 C1101 1.400 . S
H1103 C1098 0.929 . S
O1104 Mn1080 2.385 . S
O1104 C1082 1.234 . S
O1105 Mn1080 2.209 . S
O1105 Mn1081 2.215 . S
O1105 C1082 1.283 . S
O1106 Mn1080 2.094 . S
O1106 C1084 1.240 . S
O1107 Mn1081 2.117 . S
O1107 C1084 1.264 . S
C1108 C1101 1.403 . S
C1108 C1109 1.399 . S
C1108 H1114 0.929 . S
C1109 C1089 1.449 . S
C1109 C1108 1.399 . S
C1109 H1115 0.930 . S
H1110 C1090 0.931 . S
H1111 C1091 0.930 . S
H1112 C1099 0.931 . S
H1113 C1100 0.929 . S
H1114 C1108 0.929 . S
H1115 C1109 0.930 . S
Mn1116 O1121 2.095 . S
Mn1116 O1131 2.162 . S
Mn1116 O1132 2.297 . S
Mn1116 O1140 2.385 . S
Mn1116 O1141 2.209 . S
Mn1116 O1142 2.094 . S
Mn1117 O1122 2.121 . S
Mn1117 N1124 2.257 . S
Mn1117 N1133 2.282 . S
Mn1117 O1141 2.215 . S
Mn1117 O1143 2.117 . S
C1118 O1140 1.234 . S
C1118 O1141 1.283 . S
C1119 O1131 1.281 . S
C1119 O1132 1.236 . S
C1120 O1142 1.240 . S
C1120 O1143 1.264 . S
O1121 Mn1116 2.095 . S
O1121 C1130 1.250 . S
O1122 Mn1117 2.121 . S
O1122 C1130 1.258 . S
C1123 N1124 1.326 . S
C1123 C1127 1.460 . S
C1123 H1129 0.929 . S
N1124 Mn1117 2.257 . S
N1124 C1123 1.326 . S
N1124 C1128 1.362 . S
C1125 C1126 1.258 . S
C1125 C1128 1.431 . S
C1125 C1145 1.449 . S
C1126 C1125 1.258 . S
C1126 C1127 1.477 . S
C1126 H1146 0.931 . S
C1127 C1123 1.460 . S
C1127 C1126 1.477 . S
C1127 H1147 0.930 . S
C1128 N1124 1.362 . S
C1128 C1125 1.431 . S
C1128 C1138 1.476 . S
H1129 C1123 0.929 . S
C1130 O1121 1.250 . S
C1130 O1122 1.258 . S
O1131 Mn1116 2.162 . S
O1131 C1119 1.281 . S
O1132 Mn1116 2.297 . S
O1132 C1119 1.236 . S
N1133 Mn1117 2.282 . S
N1133 C1134 1.328 . S
N1133 C1138 1.318 . S
C1134 N1133 1.328 . S
C1134 C1135 1.457 . S
C1134 H1139 0.929 . S
C1135 C1134 1.457 . S
C1135 C1136 1.291 . S
C1135 H1148 0.931 . S
C1136 C1135 1.291 . S
C1136 C1137 1.373 . S
C1136 H1149 0.929 . S
C1137 C1136 1.373 . S
C1137 C1138 1.396 . S
C1137 C1144 1.403 . S
C1138 C1128 1.476 . S
C1138 N1133 1.318 . S
C1138 C1137 1.396 . S
H1139 C1134 0.929 . S
O1140 Mn1116 2.385 . S
O1140 C1118 1.234 . S
O1141 Mn1116 2.209 . S
O1141 Mn1117 2.215 . S
O1141 C1118 1.283 . S
O1142 Mn1116 2.094 . S
O1142 C1120 1.240 . S
O1143 Mn1117 2.117 . S
O1143 C1120 1.264 . S
C1144 C1137 1.403 . S
C1144 C1145 1.399 . S
C1144 H1150 0.929 . S
C1145 C1125 1.449 . S
C1145 C1144 1.399 . S
C1145 H1151 0.930 . S
H1146 C1126 0.931 . S
H1147 C1127 0.930 . S
H1148 C1135 0.931 . S
H1149 C1136 0.929 . S
H1150 C1144 0.929 . S
H1151 C1145 0.930 . S
C1152 C1153 1.369 . S
C1152 C1154 1.419 . S
C1152 H1156 0.930 1_655 S
C1153 C1152 1.369 . S
C1153 C1162 1.429 . S
C1154 C1152 1.419 . S
C1154 C1155 1.363 . S
C1154 H1157 0.916 1_655 S
C1155 C1154 1.363 . S
C1155 C1161 1.428 . S
H1156 C1152 0.930 1_455 S
H1157 C1154 0.916 1_455 S
S1158 N1159 1.613 . S
S1158 N1160 1.610 . S
N1159 S1158 1.613 . S
N1159 C1162 1.350 . S
N1160 S1158 1.610 . S
N1160 C1161 1.351 . S
C1161 C1155 1.428 . S
C1161 N1160 1.351 . S
C1161 C1162 1.434 . S
C1162 C1153 1.429 . S
C1162 N1159 1.350 . S
C1162 C1161 1.434 . S
C1163 C1164 1.369 . S
C1163 C1165 1.419 . S
C1163 H1167 0.930 . S
C1164 C1163 1.369 . S
C1164 C1173 1.429 . S
C1165 C1163 1.419 . S
C1165 C1166 1.363 . S
C1165 H1168 0.929 . S
C1166 C1165 1.363 . S
C1166 C1172 1.428 . S
H1167 C1163 0.930 . S
H1168 C1165 0.929 . S
S1169 N1170 1.621 . S
S1169 N1171 1.610 . S
N1170 S1169 1.621 . S
N1170 C1173 1.356 . S
N1171 S1169 1.610 . S
N1171 C1172 1.351 . S
C1172 C1166 1.428 . S
C1172 N1171 1.351 . S
C1172 C1173 1.434 . S
C1173 C1164 1.429 . S
C1173 N1170 1.356 . S
C1173 C1172 1.434 . S
C1174 C1175 1.369 . S
C1174 C1176 1.419 . S
C1174 H1178 0.930 . S
C1175 C1174 1.369 . S
C1175 C1184 1.429 . S
C1176 C1174 1.419 . S
C1176 C1177 1.363 . S
C1176 H1179 0.929 . S
C1177 C1176 1.363 . S
C1177 C1183 1.428 . S
H1178 C1174 0.930 . S
H1179 C1176 0.929 . S
S1180 N1181 1.613 . S
S1180 N1182 1.610 . S
N1181 S1180 1.613 . S
N1181 C1184 1.350 . S
N1182 S1180 1.610 . S
N1182 C1183 1.351 . S
C1183 C1177 1.428 . S
C1183 N1182 1.351 . S
C1183 C1184 1.434 . S
C1184 C1175 1.429 . S
C1184 N1181 1.350 . S
C1184 C1183 1.434 . S
C1185 C1186 1.369 . S
C1185 C1187 1.419 . S
C1185 H1189 0.930 . S
C1186 C1185 1.369 . S
C1186 C1195 1.429 . S
C1187 C1185 1.419 . S
C1187 C1188 1.363 . S
C1187 H1190 0.929 . S
C1188 C1187 1.363 . S
C1188 C1194 1.428 . S
H1189 C1185 0.930 . S
H1190 C1187 0.929 . S
S1191 N1192 1.613 . S
S1191 N1193 1.610 . S
N1192 S1191 1.613 . S
N1192 C1195 1.350 . S
N1193 S1191 1.610 . S
N1193 C1194 1.351 . S
C1194 C1188 1.428 . S
C1194 N1193 1.351 . S
C1194 C1195 1.434 . S
C1195 C1186 1.429 . S
C1195 N1192 1.350 . S
C1195 C1194 1.434 . S
C1196 C1197 1.369 . S
C1196 C1198 1.419 . S
C1196 H1200 0.930 1_655 S
C1197 C1196 1.369 . S
C1197 C1206 1.429 . S
C1198 C1196 1.419 . S
C1198 C1199 1.363 . S
C1198 H1201 0.929 . S
C1199 C1198 1.363 . S
C1199 C1205 1.428 . S
H1200 C1196 0.930 1_455 S
H1201 C1198 0.929 . S
S1202 N1203 1.613 . S
S1202 N1204 1.610 . S
N1203 S1202 1.613 . S
N1203 C1206 1.350 . S
N1204 S1202 1.610 . S
N1204 C1205 1.351 . S
C1205 C1199 1.428 . S
C1205 N1204 1.351 . S
C1205 C1206 1.434 . S
C1206 C1197 1.429 . S
C1206 N1203 1.350 . S
C1206 C1205 1.434 . S
C1207 C1208 1.369 . S
C1207 C1209 1.419 . S
C1207 H1211 0.930 . S
C1208 C1207 1.369 . S
C1208 C1217 1.429 . S
C1209 C1207 1.419 . S
C1209 C1210 1.363 . S
C1209 H1212 0.929 . S
C1210 C1209 1.363 . S
C1210 C1216 1.428 . S
H1211 C1207 0.930 . S
H1212 C1209 0.929 . S
S1213 N1214 1.613 . S
S1213 N1215 1.610 . S
N1214 S1213 1.613 . S
N1214 C1217 1.350 . S
N1215 S1213 1.610 . S
N1215 C1216 1.351 . S
C1216 C1210 1.428 . S
C1216 N1215 1.351 . S
C1216 C1217 1.434 . S
C1217 C1208 1.429 . S
C1217 N1214 1.350 . S
C1217 C1216 1.434 . S
C1218 C1219 1.369 . S
C1218 C1220 1.419 . S
C1218 H1222 0.930 . S
C1219 C1218 1.369 . S
C1219 C1228 1.429 . S
C1220 C1218 1.419 . S
C1220 C1221 1.363 . S
C1220 H1223 0.929 . S
C1221 C1220 1.363 . S
C1221 C1227 1.428 . S
H1222 C1218 0.930 . S
H1223 C1220 0.929 . S
S1224 N1225 1.613 . S
S1224 N1226 1.610 . S
N1225 S1224 1.613 . S
N1225 C1228 1.350 . S
N1226 S1224 1.610 . S
N1226 C1227 1.351 . S
C1227 C1221 1.428 . S
C1227 N1226 1.351 . S
C1227 C1228 1.434 . S
C1228 C1219 1.429 . S
C1228 N1225 1.350 . S
C1228 C1227 1.434 . S
C1229 C1230 1.369 . S
C1229 C1231 1.419 . S
C1229 H1233 0.930 . S
C1230 C1229 1.369 . S
C1230 C1239 1.429 . S
C1231 C1229 1.419 . S
C1231 C1232 1.363 . S
C1231 H1234 0.929 . S
C1232 C1231 1.363 . S
C1232 C1238 1.428 . S
H1233 C1229 0.930 . S
H1234 C1231 0.929 . S
S1235 N1236 1.613 . S
S1235 N1237 1.610 . S
N1236 S1235 1.613 . S
N1236 C1239 1.350 . S
N1237 S1235 1.610 . S
N1237 C1238 1.351 . S
C1238 C1232 1.428 . S
C1238 N1237 1.351 . S
C1238 C1239 1.434 . S
C1239 C1230 1.429 . S
C1239 N1236 1.350 . S
C1239 C1238 1.434 . S
C1240 C1241 1.369 . S
C1240 C1242 1.419 . S
C1240 H1244 0.930 . S
C1241 C1240 1.369 . S
C1241 C1250 1.429 . S
C1242 C1240 1.419 . S
C1242 C1243 1.363 . S
C1242 H1245 0.929 . S
C1243 C1242 1.363 . S
C1243 C1249 1.428 . S
H1244 C1240 0.930 . S
H1245 C1242 0.929 . S
S1246 N1247 1.611 1_455 S
S1246 N1248 1.609 1_455 S
N1247 S1246 1.611 1_655 S
N1247 C1250 1.350 . S
N1248 S1246 1.609 1_655 S
N1248 C1249 1.351 . S
C1249 C1243 1.428 . S
C1249 N1248 1.351 . S
C1249 C1250 1.434 . S
C1250 C1241 1.429 . S
C1250 N1247 1.350 . S
C1250 C1249 1.434 . S
C1251 C1252 1.369 1_556 S
C1251 C1253 1.419 . S
C1251 H1255 0.930 1_556 S
C1252 C1251 1.369 1_554 S
C1252 C1261 1.429 1_554 S
C1253 C1251 1.419 . S
C1253 C1254 1.363 . S
C1253 H1256 0.929 . S
C1254 C1253 1.363 . S
C1254 C1260 1.428 . S
H1255 C1251 0.930 1_554 S
H1256 C1253 0.929 . S
S1257 N1258 1.613 . S
S1257 N1259 1.610 . S
N1258 S1257 1.613 . S
N1258 C1261 1.350 . S
N1259 S1257 1.610 . S
N1259 C1260 1.351 . S
C1260 C1254 1.428 . S
C1260 N1259 1.351 . S
C1260 C1261 1.434 . S
C1261 C1252 1.429 1_556 S
C1261 N1258 1.350 . S
C1261 C1260 1.434 . S
C1262 C1263 1.369 . S
C1262 C1264 1.419 . S
C1262 H1266 0.930 . S
C1263 C1262 1.369 . S
C1263 C1272 1.429 . S
C1264 C1262 1.419 . S
C1264 C1265 1.363 . S
C1264 H1267 0.929 . S
C1265 C1264 1.363 . S
C1265 C1271 1.428 . S
H1266 C1262 0.930 . S
H1267 C1264 0.929 . S
S1268 N1269 1.613 . S
S1268 N1270 1.610 . S
N1269 S1268 1.613 . S
N1269 C1272 1.350 . S
N1270 S1268 1.610 . S
N1270 C1271 1.351 . S
C1271 C1265 1.428 . S
C1271 N1270 1.351 . S
C1271 C1272 1.434 . S
C1272 C1263 1.429 . S
C1272 N1269 1.350 . S
C1272 C1271 1.434 . S
C1273 C1274 1.369 . S
C1273 C1275 1.419 . S
C1273 H1277 0.930 . S
C1274 C1273 1.369 . S
C1274 C1283 1.429 . S
C1275 C1273 1.419 . S
C1275 C1276 1.363 . S
C1275 H1278 0.929 . S
C1276 C1275 1.363 . S
C1276 C1282 1.428 . S
H1277 C1273 0.930 . S
H1278 C1275 0.929 . S
S1279 N1280 1.613 . S
S1279 N1281 1.610 . S
N1280 S1279 1.613 . S
N1280 C1283 1.350 . S
N1281 S1279 1.610 . S
N1281 C1282 1.351 . S
C1282 C1276 1.428 . S
C1282 N1281 1.351 . S
C1282 C1283 1.434 . S
C1283 C1274 1.429 . S
C1283 N1280 1.350 . S
C1283 C1282 1.434 . S
C1284 C1285 1.369 . S
C1284 C1286 1.419 . S
C1284 H1288 0.930 . S
C1285 C1284 1.369 . S
C1285 C1294 1.429 . S
C1286 C1284 1.419 . S
C1286 C1287 1.363 . S
C1286 H1289 0.929 . S
C1287 C1286 1.363 . S
C1287 C1293 1.428 . S
H1288 C1284 0.930 . S
H1289 C1286 0.929 . S
S1290 N1291 1.613 . S
S1290 N1292 1.610 1_455 S
N1291 S1290 1.613 . S
N1291 C1294 1.351 1_455 S
N1292 S1290 1.610 1_655 S
N1292 C1293 1.351 . S
C1293 C1287 1.428 . S
C1293 N1292 1.351 . S
C1293 C1294 1.434 . S
C1294 C1285 1.429 . S
C1294 N1291 1.351 1_655 S
C1294 C1293 1.434 . S
C1295 C1296 1.369 . S
C1295 C1297 1.419 . S
C1295 H1299 0.930 . S
C1296 C1295 1.369 . S
C1296 C1305 1.429 . S
C1297 C1295 1.419 . S
C1297 C1298 1.363 1_554 S
C1297 H1300 0.929 1_554 S
C1298 C1297 1.363 1_556 S
C1298 C1304 1.428 1_556 S
H1299 C1295 0.930 . S
H1300 C1297 0.929 1_556 S
S1301 N1302 1.613 . S
S1301 N1303 1.610 . S
N1302 S1301 1.613 . S
N1302 C1305 1.350 . S
N1303 S1301 1.610 . S
N1303 C1304 1.351 . S
C1304 C1298 1.428 1_554 S
C1304 N1303 1.351 . S
C1304 C1305 1.434 . S
C1305 C1296 1.429 . S
C1305 N1302 1.350 . S
C1305 C1304 1.434 . S
C1306 C1307 1.369 . S
C1306 C1308 1.419 . S
C1306 H1310 0.930 . S
C1307 C1306 1.369 . S
C1307 C1316 1.429 . S
C1308 C1306 1.419 . S
C1308 C1309 1.363 . S
C1308 H1311 0.929 . S
C1309 C1308 1.363 . S
C1309 C1315 1.428 . S
H1310 C1306 0.930 . S
H1311 C1308 0.929 . S
S1312 N1313 1.613 . S
S1312 N1314 1.610 . S
N1313 S1312 1.613 . S
N1313 C1316 1.350 . S
N1314 S1312 1.610 . S
N1314 C1315 1.351 . S
C1315 C1309 1.428 . S
C1315 N1314 1.351 . S
C1315 C1316 1.434 . S
C1316 C1307 1.429 . S
C1316 N1313 1.350 . S
C1316 C1315 1.434 . S
C1317 C1318 1.369 . S
C1317 C1319 1.419 . S
C1317 H1321 0.930 . S
C1318 C1317 1.369 . S
C1318 C1327 1.429 . S
C1319 C1317 1.419 . S
C1319 C1320 1.363 . S
C1319 H1322 0.929 . S
C1320 C1319 1.363 . S
C1320 C1326 1.428 . S
H1321 C1317 0.930 . S
H1322 C1319 0.929 . S
S1323 N1324 1.613 . S
S1323 N1325 1.610 . S
N1324 S1323 1.613 . S
N1324 C1327 1.350 . S
N1325 S1323 1.610 . S
N1325 C1326 1.351 . S
C1326 C1320 1.428 . S
C1326 N1325 1.351 . S
C1326 C1327 1.434 . S
C1327 C1318 1.429 . S
C1327 N1324 1.350 . S
C1327 C1326 1.434 . S
C1328 C1329 1.369 . S
C1328 C1330 1.419 . S
C1328 H1332 0.930 . S
C1329 C1328 1.369 . S
C1329 C1338 1.429 . S
C1330 C1328 1.419 . S
C1330 C1331 1.363 . S
C1330 H1333 0.929 . S
C1331 C1330 1.363 . S
C1331 C1337 1.428 . S
H1332 C1328 0.930 . S
H1333 C1330 0.929 . S
S1334 N1335 1.613 . S
S1334 N1336 1.610 . S
N1335 S1334 1.613 . S
N1335 C1338 1.350 . S
N1336 S1334 1.610 . S
N1336 C1337 1.351 . S
C1337 C1331 1.428 . S
C1337 N1336 1.351 . S
C1337 C1338 1.434 . S
C1338 C1329 1.429 . S
C1338 N1335 1.350 . S
C1338 C1337 1.434 . S
C1339 C1340 1.369 . S
C1339 C1341 1.419 . S
C1339 H1343 0.930 . S
C1340 C1339 1.369 . S
C1340 C1349 1.429 . S
C1341 C1339 1.419 . S
C1341 C1342 1.363 . S
C1341 H1344 0.929 . S
C1342 C1341 1.363 . S
C1342 C1348 1.428 . S
H1343 C1339 0.930 . S
H1344 C1341 0.929 . S
S1345 N1346 1.613 . S
S1345 N1347 1.610 . S
N1346 S1345 1.613 . S
N1346 C1349 1.350 . S
N1347 S1345 1.610 . S
N1347 C1348 1.351 . S
C1348 C1342 1.428 . S
C1348 N1347 1.351 . S
C1348 C1349 1.434 . S
C1349 C1340 1.429 . S
C1349 N1346 1.350 . S
C1349 C1348 1.434 . S
C1350 C1351 1.369 . S
C1350 C1352 1.419 . S
C1350 H1354 0.930 . S
C1351 C1350 1.369 . S
C1351 C1360 1.429 . S
C1352 C1350 1.419 . S
C1352 C1353 1.363 . S
C1352 H1355 0.929 . S
C1353 C1352 1.363 . S
C1353 C1359 1.428 . S
H1354 C1350 0.930 . S
H1355 C1352 0.929 . S
S1356 N1357 1.613 . S
S1356 N1358 1.610 . S
N1357 S1356 1.613 . S
N1357 C1360 1.350 1_655 S
N1358 S1356 1.610 . S
N1358 C1359 1.351 1_655 S
C1359 C1353 1.428 . S
C1359 N1358 1.351 1_455 S
C1359 C1360 1.434 . S
C1360 C1351 1.429 . S
C1360 N1357 1.350 1_455 S
C1360 C1359 1.434 . S
C1361 C1362 1.369 . S
C1361 C1363 1.419 . S
C1361 H1365 0.930 . S
C1362 C1361 1.369 . S
C1362 C1371 1.429 . S
C1363 C1361 1.419 . S
C1363 C1364 1.363 . S
C1363 H1366 0.929 . S
C1364 C1363 1.363 . S
C1364 C1370 1.428 . S
H1365 C1361 0.930 . S
H1366 C1363 0.929 . S
S1367 N1368 1.613 . S
S1367 N1369 1.610 . S
N1368 S1367 1.613 . S
N1368 C1371 1.350 . S
N1369 S1367 1.610 . S
N1369 C1370 1.351 . S
C1370 C1364 1.428 . S
C1370 N1369 1.351 . S
C1370 C1371 1.434 . S
C1371 C1362 1.429 . S
C1371 N1368 1.350 . S
C1371 C1370 1.434 . S
C1372 C1373 1.369 . S
C1372 C1374 1.419 . S
C1372 H1376 0.930 . S
C1373 C1372 1.369 . S
C1373 C1382 1.429 . S
C1374 C1372 1.419 . S
C1374 C1375 1.363 . S
C1374 H1377 0.929 . S
C1375 C1374 1.363 . S
C1375 C1381 1.428 . S
H1376 C1372 0.930 . S
H1377 C1374 0.929 . S
S1378 N1379 1.613 . S
S1378 N1380 1.610 . S
N1379 S1378 1.613 . S
N1379 C1382 1.350 . S
N1380 S1378 1.610 . S
N1380 C1381 1.351 . S
C1381 C1375 1.428 . S
C1381 N1380 1.351 . S
C1381 C1382 1.434 . S
C1382 C1373 1.429 . S
C1382 N1379 1.350 . S
C1382 C1381 1.434 . S
C1383 C1384 1.369 . S
C1383 C1385 1.419 . S
C1383 H1387 0.930 . S
C1384 C1383 1.369 . S
C1384 C1393 1.429 . S
C1385 C1383 1.419 . S
C1385 C1386 1.363 . S
C1385 H1388 0.929 . S
C1386 C1385 1.363 . S
C1386 C1392 1.428 . S
H1387 C1383 0.930 . S
H1388 C1385 0.929 . S
S1389 N1390 1.613 . S
S1389 N1391 1.610 . S
N1390 S1389 1.613 . S
N1390 C1393 1.350 . S
N1391 S1389 1.610 . S
N1391 C1392 1.351 . S
C1392 C1386 1.428 . S
C1392 N1391 1.351 . S
C1392 C1393 1.434 . S
C1393 C1384 1.429 . S
C1393 N1390 1.350 . S
C1393 C1392 1.434 . S
C1394 C1395 1.369 1_655 S
C1394 C1396 1.419 . S
C1394 H1398 0.930 . S
C1395 C1394 1.369 1_455 S
C1395 C1404 1.429 . S
C1396 C1394 1.419 . S
C1396 C1397 1.363 1_655 S
C1396 H1399 0.929 . S
C1397 C1396 1.363 1_455 S
C1397 C1403 1.428 . S
H1398 C1394 0.930 . S
H1399 C1396 0.929 . S
S1400 N1401 1.613 . S
S1400 N1402 1.610 . S
N1401 S1400 1.613 . S
N1401 C1404 1.350 . S
N1402 S1400 1.610 . S
N1402 C1403 1.351 . S
C1403 C1397 1.428 . S
C1403 N1402 1.351 . S
C1403 C1404 1.434 . S
C1404 C1395 1.429 . S
C1404 N1401 1.350 . S
C1404 C1403 1.434 . S
C1405 C1406 1.369 . S
C1405 C1407 1.419 . S
C1405 H1409 0.930 . S
C1406 C1405 1.369 . S
C1406 C1415 1.429 . S
C1407 C1405 1.419 . S
C1407 C1408 1.363 . S
C1407 H1410 0.929 . S
C1408 C1407 1.363 . S
C1408 C1414 1.428 . S
H1409 C1405 0.930 . S
H1410 C1407 0.929 . S
S1411 N1412 1.613 . S
S1411 N1413 1.610 . S
N1412 S1411 1.613 . S
N1412 C1415 1.350 . S
N1413 S1411 1.610 . S
N1413 C1414 1.351 . S
C1414 C1408 1.428 . S
C1414 N1413 1.351 . S
C1414 C1415 1.434 . S
C1415 C1406 1.429 . S
C1415 N1412 1.350 . S
C1415 C1414 1.434 . S
C1416 C1417 1.369 . S
C1416 C1418 1.419 . S
C1416 H1420 0.930 . S
C1417 C1416 1.369 . S
C1417 C1426 1.429 . S
C1418 C1416 1.419 . S
C1418 C1419 1.363 . S
C1418 H1421 0.929 . S
C1419 C1418 1.363 . S
C1419 C1425 1.428 . S
H1420 C1416 0.930 . S
H1421 C1418 0.929 . S
S1422 N1423 1.613 . S
S1422 N1424 1.610 . S
N1423 S1422 1.613 . S
N1423 C1426 1.350 . S
N1424 S1422 1.610 . S
N1424 C1425 1.351 . S
C1425 C1419 1.428 . S
C1425 N1424 1.351 . S
C1425 C1426 1.434 . S
C1426 C1417 1.429 . S
C1426 N1423 1.350 . S
C1426 C1425 1.434 . S
C1427 C1428 1.369 . S
C1427 C1429 1.419 . S
C1427 H1431 0.930 . S
C1428 C1427 1.369 . S
C1428 C1437 1.429 . S
C1429 C1427 1.419 . S
C1429 C1430 1.363 . S
C1429 H1432 0.929 . S
C1430 C1429 1.363 . S
C1430 C1436 1.428 . S
H1431 C1427 0.930 . S
H1432 C1429 0.929 . S
S1433 N1434 1.613 . S
S1433 N1435 1.610 . S
N1434 S1433 1.613 . S
N1434 C1437 1.350 . S
N1435 S1433 1.610 . S
N1435 C1436 1.351 . S
C1436 C1430 1.428 . S
C1436 N1435 1.351 . S
C1436 C1437 1.434 . S
C1437 C1428 1.429 . S
C1437 N1434 1.350 . S
C1437 C1436 1.434 . S
C1438 C1439 1.369 1_655 S
C1438 C1440 1.419 1_655 S
C1438 H1442 0.930 . S
C1439 C1438 1.369 1_455 S
C1439 C1448 1.429 . S
C1440 C1438 1.419 1_455 S
C1440 C1441 1.363 . S
C1440 H1443 0.929 1_455 S
C1441 C1440 1.363 . S
C1441 C1447 1.428 . S
H1442 C1438 0.930 . S
H1443 C1440 0.929 1_655 S
S1444 N1445 1.613 . S
S1444 N1446 1.610 . S
N1445 S1444 1.613 . S
N1445 C1448 1.350 . S
N1446 S1444 1.610 . S
N1446 C1447 1.351 . S
C1447 C1441 1.428 . S
C1447 N1446 1.351 . S
C1447 C1448 1.434 . S
C1448 C1439 1.429 . S
C1448 N1445 1.350 . S
C1448 C1447 1.434 . S
C1449 C1450 1.369 . S
C1449 C1451 1.419 . S
C1449 H1453 0.930 . S
C1450 C1449 1.369 . S
C1450 C1459 1.429 . S
C1451 C1449 1.419 . S
C1451 C1452 1.363 1_556 S
C1451 H1454 0.929 1_556 S
C1452 C1451 1.363 1_554 S
C1452 C1458 1.428 1_554 S
H1453 C1449 0.930 . S
H1454 C1451 0.929 1_554 S
S1455 N1456 1.613 . S
S1455 N1457 1.610 . S
N1456 S1455 1.613 . S
N1456 C1459 1.350 . S
N1457 S1455 1.610 . S
N1457 C1458 1.351 . S
C1458 C1452 1.428 1_556 S
C1458 N1457 1.351 . S
C1458 C1459 1.434 . S
C1459 C1450 1.429 . S
C1459 N1456 1.350 . S
C1459 C1458 1.434 . S
C1460 C1461 1.369 . S
C1460 C1462 1.419 . S
C1460 H1464 0.930 . S
C1461 C1460 1.369 . S
C1461 C1470 1.429 . S
C1462 C1460 1.419 . S
C1462 C1463 1.363 . S
C1462 H1465 0.929 . S
C1463 C1462 1.363 . S
C1463 C1469 1.428 . S
H1464 C1460 0.930 . S
H1465 C1462 0.929 . S
S1466 N1467 1.613 . S
S1466 N1468 1.610 . S
N1467 S1466 1.613 . S
N1467 C1470 1.350 . S
N1468 S1466 1.610 . S
N1468 C1469 1.351 . S
C1469 C1463 1.428 . S
C1469 N1468 1.351 . S
C1469 C1470 1.434 . S
C1470 C1461 1.429 . S
C1470 N1467 1.350 . S
C1470 C1469 1.434 . S
C1471 C1472 1.369 . S
C1471 C1473 1.419 . S
C1471 H1475 0.930 . S
C1472 C1471 1.369 . S
C1472 C1481 1.429 . S
C1473 C1471 1.419 . S
C1473 C1474 1.363 . S
C1473 H1476 0.929 . S
C1474 C1473 1.363 . S
C1474 C1480 1.428 . S
H1475 C1471 0.930 . S
H1476 C1473 0.929 . S
S1477 N1478 1.613 . S
S1477 N1479 1.610 . S
N1478 S1477 1.613 . S
N1478 C1481 1.350 . S
N1479 S1477 1.610 . S
N1479 C1480 1.351 . S
C1480 C1474 1.428 . S
C1480 N1479 1.351 . S
C1480 C1481 1.434 . S
C1481 C1472 1.429 . S
C1481 N1478 1.350 . S
C1481 C1480 1.434 . S
C1482 C1483 1.369 . S
C1482 C1484 1.419 . S
C1482 H1486 0.930 . S
C1483 C1482 1.369 . S
C1483 C1492 1.429 . S
C1484 C1482 1.419 . S
C1484 C1485 1.363 . S
C1484 H1487 0.929 . S
C1485 C1484 1.363 . S
C1485 C1491 1.428 . S
H1486 C1482 0.930 . S
H1487 C1484 0.929 . S
S1488 N1489 1.613 1_655 S
S1488 N1490 1.610 . S
N1489 S1488 1.613 1_455 S
N1489 C1492 1.350 . S
N1490 S1488 1.610 . S
N1490 C1491 1.351 1_655 S
C1491 C1485 1.428 . S
C1491 N1490 1.351 1_455 S
C1491 C1492 1.434 . S
C1492 C1483 1.429 . S
C1492 N1489 1.350 . S
C1492 C1491 1.434 . S
C1493 C1494 1.369 . S
C1493 C1495 1.419 . S
C1493 H1497 0.930 . S
C1494 C1493 1.369 . S
C1494 C1503 1.429 . S
C1495 C1493 1.419 . S
C1495 C1496 1.363 1_554 S
C1495 H1498 0.929 1_554 S
C1496 C1495 1.363 1_556 S
C1496 C1502 1.428 1_556 S
H1497 C1493 0.930 . S
H1498 C1495 0.929 1_556 S
S1499 N1500 1.613 . S
S1499 N1501 1.613 . S
N1500 S1499 1.613 . S
N1500 C1503 1.350 . S
N1501 S1499 1.613 . S
N1501 C1502 1.352 . S
C1502 C1496 1.428 1_554 S
C1502 N1501 1.352 . S
C1502 C1503 1.434 . S
C1503 C1494 1.429 . S
C1503 N1500 1.350 . S
C1503 C1502 1.434 . S
C1504 C1505 1.369 1_565 S
C1504 C1506 1.419 . S
C1504 H1508 0.930 1_655 S
C1505 C1504 1.369 1_545 S
C1505 C1514 1.429 1_554 S
C1506 C1504 1.419 . S
C1506 C1507 1.363 1_554 S
C1506 H1509 0.929 . S
C1507 C1506 1.363 1_556 S
C1507 C1513 1.428 1_565 S
H1508 C1504 0.930 1_455 S
H1509 C1506 0.929 . S
S1510 N1511 1.613 . S
S1510 N1512 1.610 . S
N1511 S1510 1.613 . S
N1511 C1514 1.350 . S
N1512 S1510 1.610 . S
N1512 C1513 1.351 . S
C1513 C1507 1.428 1_545 S
C1513 N1512 1.351 . S
C1513 C1514 1.434 . S
C1514 C1505 1.429 1_556 S
C1514 N1511 1.350 . S
C1514 C1513 1.434 . S
C1515 C1516 1.369 . S
C1515 C1517 1.419 . S
C1515 H1519 0.930 . S
C1516 C1515 1.369 . S
C1516 C1525 1.429 . S
C1517 C1515 1.419 . S
C1517 C1518 1.363 . S
C1517 H1520 0.929 . S
C1518 C1517 1.363 . S
C1518 C1524 1.428 . S
H1519 C1515 0.930 . S
H1520 C1517 0.929 . S
S1521 N1522 1.613 . S
S1521 N1523 1.610 . S
N1522 S1521 1.613 . S
N1522 C1525 1.350 . S
N1523 S1521 1.610 . S
N1523 C1524 1.351 . S
C1524 C1518 1.428 . S
C1524 N1523 1.351 . S
C1524 C1525 1.434 . S
C1525 C1516 1.429 . S
C1525 N1522 1.350 . S
C1525 C1524 1.434 . S
C1526 C1527 1.369 . S
C1526 C1528 1.419 1_545 S
C1526 H1530 0.930 . S
C1527 C1526 1.369 . S
C1527 C1536 1.429 . S
C1528 C1526 1.419 1_565 S
C1528 C1529 1.363 . S
C1528 H1531 0.929 . S
C1529 C1528 1.363 . S
C1529 C1535 1.428 . S
H1530 C1526 0.930 . S
H1531 C1528 0.929 . S
S1532 N1533 1.613 . S
S1532 N1534 1.610 1_545 S
N1533 S1532 1.613 . S
N1533 C1536 1.350 . S
N1534 S1532 1.610 1_565 S
N1534 C1535 1.351 . S
C1535 C1529 1.428 . S
C1535 N1534 1.351 . S
C1535 C1536 1.434 1_565 S
C1536 C1527 1.429 . S
C1536 N1533 1.350 . S
C1536 C1535 1.434 1_545 S
C1537 C1538 1.369 . S
C1537 C1539 1.419 . S
C1537 H1541 0.930 . S
C1538 C1537 1.369 . S
C1538 C1547 1.429 . S
C1539 C1537 1.419 . S
C1539 C1540 1.363 . S
C1539 H1542 0.929 . S
C1540 C1539 1.363 . S
C1540 C1546 1.428 . S
H1541 C1537 0.930 . S
H1542 C1539 0.929 . S
S1543 N1544 1.613 . S
S1543 N1545 1.610 . S
N1544 S1543 1.613 . S
N1544 C1547 1.350 . S
N1545 S1543 1.610 . S
N1545 C1546 1.351 . S
C1546 C1540 1.428 . S
C1546 N1545 1.351 . S
C1546 C1547 1.434 . S
C1547 C1538 1.429 . S
C1547 N1544 1.350 . S
C1547 C1546 1.434 . S
C1548 C1549 1.369 . S
C1548 C1550 1.449 . S
C1548 H1552 0.930 . S
C1549 C1548 1.369 . S
C1549 C1558 1.429 1_565 S
C1550 C1548 1.449 . S
C1550 C1551 1.326 1_565 S
C1550 H1553 0.937 . S
C1551 C1550 1.326 1_545 S
C1551 C1557 1.428 . S
H1552 C1548 0.930 . S
H1553 C1550 0.937 . S
S1554 N1555 1.613 . S
S1554 N1556 1.610 1_455 S
N1555 S1554 1.613 . S
N1555 C1558 1.350 1_455 S
N1556 S1554 1.610 1_655 S
N1556 C1557 1.351 . S
C1557 C1551 1.428 . S
C1557 N1556 1.351 . S
C1557 C1558 1.434 . S
C1558 C1549 1.429 1_545 S
C1558 N1555 1.350 1_655 S
C1558 C1557 1.434 . S
C1559 C1560 1.369 . S
C1559 C1561 1.419 . S
C1559 H1563 0.930 . S
C1560 C1559 1.369 . S
C1560 C1569 1.429 . S
C1561 C1559 1.419 . S
C1561 C1562 1.363 . S
C1561 H1564 0.929 . S
C1562 C1561 1.363 . S
C1562 C1568 1.428 . S
H1563 C1559 0.930 . S
H1564 C1561 0.929 . S
S1565 N1566 1.613 . S
S1565 N1567 1.610 . S
N1566 S1565 1.613 . S
N1566 C1569 1.350 . S
N1567 S1565 1.610 . S
N1567 C1568 1.351 . S
C1568 C1562 1.428 . S
C1568 N1567 1.351 . S
C1568 C1569 1.434 . S
C1569 C1560 1.429 . S
C1569 N1566 1.350 . S
C1569 C1568 1.434 . S
C1570 C1571 1.369 1_556 S
C1570 C1572 1.419 1_565 S
C1570 H1574 0.930 . S
C1571 C1570 1.369 1_554 S
C1571 C1580 1.429 . S
C1572 C1570 1.419 1_545 S
C1572 C1573 1.363 . S
C1572 H1575 0.929 . S
C1573 C1572 1.363 . S
C1573 C1579 1.419 1_546 S
H1574 C1570 0.930 . S
H1575 C1572 0.929 . S
S1576 N1577 1.613 . S
S1576 N1578 1.610 . S
N1577 S1576 1.613 . S
N1577 C1580 1.350 . S
N1578 S1576 1.610 . S
N1578 C1579 1.352 . S
C1579 C1573 1.419 1_564 S
C1579 N1578 1.352 . S
C1579 C1580 1.444 . S
C1580 C1571 1.429 . S
C1580 N1577 1.350 . S
C1580 C1579 1.444 . S
C1581 C1582 1.369 . S
C1581 C1583 1.419 . S
C1581 H1585 0.930 . S
C1582 C1581 1.369 . S
C1582 C1591 1.429 . S
C1583 C1581 1.419 . S
C1583 C1584 1.363 . S
C1583 H1586 0.929 . S
C1584 C1583 1.363 . S
C1584 C1590 1.428 . S
H1585 C1581 0.930 . S
H1586 C1583 0.929 . S
S1587 N1588 1.613 . S
S1587 N1589 1.610 . S
N1588 S1587 1.613 . S
N1588 C1591 1.350 . S
N1589 S1587 1.610 . S
N1589 C1590 1.351 . S
C1590 C1584 1.428 . S
C1590 N1589 1.351 . S
C1590 C1591 1.434 . S
C1591 C1582 1.429 . S
C1591 N1588 1.350 . S
C1591 C1590 1.434 . S
C1592 C1593 1.369 . S
C1592 C1594 1.419 . S
C1592 H1596 0.930 . S
C1593 C1592 1.369 . S
C1593 C1602 1.429 . S
C1594 C1592 1.419 . S
C1594 C1595 1.363 . S
C1594 H1597 0.929 . S
C1595 C1594 1.363 . S
C1595 C1601 1.428 . S
H1596 C1592 0.930 . S
H1597 C1594 0.929 . S
S1598 N1599 1.613 . S
S1598 N1600 1.610 . S
N1599 S1598 1.613 . S
N1599 C1602 1.350 . S
N1600 S1598 1.610 . S
N1600 C1601 1.351 . S
C1601 C1595 1.428 . S
C1601 N1600 1.351 . S
C1601 C1602 1.434 . S
C1602 C1593 1.429 . S
C1602 N1599 1.350 . S
C1602 C1601 1.434 . S
C1603 C1604 1.369 . S
C1603 C1605 1.419 . S
C1603 H1607 0.930 . S
C1604 C1603 1.369 . S
C1604 C1613 1.429 . S
C1605 C1603 1.419 . S
C1605 C1606 1.363 . S
C1605 H1608 0.929 . S
C1606 C1605 1.363 . S
C1606 C1612 1.428 . S
H1607 C1603 0.930 . S
H1608 C1605 0.929 . S
S1609 N1610 1.613 . S
S1609 N1611 1.610 . S
N1610 S1609 1.613 . S
N1610 C1613 1.350 . S
N1611 S1609 1.610 . S
N1611 C1612 1.351 . S
C1612 C1606 1.428 . S
C1612 N1611 1.351 . S
C1612 C1613 1.434 . S
C1613 C1604 1.429 . S
C1613 N1610 1.350 . S
C1613 C1612 1.434 . S
C1614 C1615 1.369 . S
C1614 C1616 1.419 . S
C1614 H1618 0.930 . S
C1615 C1614 1.369 . S
C1615 C1624 1.429 . S
C1616 C1614 1.419 . S
C1616 C1617 1.363 . S
C1616 H1619 0.929 . S
C1617 C1616 1.363 . S
C1617 C1623 1.428 . S
H1618 C1614 0.930 . S
H1619 C1616 0.929 . S
S1620 N1621 1.613 . S
S1620 N1622 1.610 . S
N1621 S1620 1.613 . S
N1621 C1624 1.350 . S
N1622 S1620 1.610 . S
N1622 C1623 1.351 . S
C1623 C1617 1.428 . S
C1623 N1622 1.351 . S
C1623 C1624 1.434 . S
C1624 C1615 1.429 . S
C1624 N1621 1.350 . S
C1624 C1623 1.434 . S
C1625 C1626 1.369 . S
C1625 C1627 1.419 . S
C1625 H1629 0.930 . S
C1626 C1625 1.369 . S
C1626 C1635 1.429 . S
C1627 C1625 1.419 . S
C1627 C1628 1.363 . S
C1627 H1630 0.929 . S
C1628 C1627 1.363 . S
C1628 C1634 1.428 . S
H1629 C1625 0.930 . S
H1630 C1627 0.929 . S
S1631 N1632 1.613 . S
S1631 N1633 1.610 . S
N1632 S1631 1.613 . S
N1632 C1635 1.350 . S
N1633 S1631 1.610 . S
N1633 C1634 1.351 . S
C1634 C1628 1.428 . S
C1634 N1633 1.351 . S
C1634 C1635 1.434 . S
C1635 C1626 1.429 . S
C1635 N1632 1.350 . S
C1635 C1634 1.434 . S
C1636 C1637 1.369 . S
C1636 C1638 1.419 . S
C1636 H1640 0.930 . S
C1637 C1636 1.369 . S
C1637 C1646 1.429 . S
C1638 C1636 1.419 . S
C1638 C1639 1.363 . S
C1638 H1641 0.929 . S
C1639 C1638 1.363 . S
C1639 C1645 1.428 . S
H1640 C1636 0.930 . S
H1641 C1638 0.929 . S
S1642 N1643 1.613 . S
S1642 N1644 1.610 . S
N1643 S1642 1.613 . S
N1643 C1646 1.350 . S
N1644 S1642 1.610 . S
N1644 C1645 1.351 . S
C1645 C1639 1.428 . S
C1645 N1644 1.351 . S
C1645 C1646 1.434 . S
C1646 C1637 1.429 . S
C1646 N1643 1.350 . S
C1646 C1645 1.434 . S
C1647 C1648 1.369 1_556 S
C1647 C1649 1.419 . S
C1647 H1651 0.930 . S
C1648 C1647 1.369 1_554 S
C1648 C1657 1.429 . S
C1649 C1647 1.419 . S
C1649 C1650 1.363 . S
C1649 H1652 0.929 . S
C1650 C1649 1.363 . S
C1650 C1656 1.428 1_556 S
H1651 C1647 0.930 . S
H1652 C1649 0.929 . S
S1653 N1654 1.613 . S
S1653 N1655 1.610 . S
N1654 S1653 1.613 . S
N1654 C1657 1.350 . S
N1655 S1653 1.610 . S
N1655 C1656 1.351 . S
C1656 C1650 1.428 1_554 S
C1656 N1655 1.351 . S
C1656 C1657 1.434 . S
C1657 C1648 1.429 . S
C1657 N1654 1.350 . S
C1657 C1656 1.434 . S
C1658 C1659 1.369 1_554 S
C1658 C1660 1.419 . S
C1658 H1662 0.930 . S
C1659 C1658 1.369 1_556 S
C1659 C1668 1.429 . S
C1660 C1658 1.419 . S
C1660 C1661 1.363 . S
C1660 H1663 0.929 . S
C1661 C1660 1.363 . S
C1661 C1667 1.428 1_554 S
H1662 C1658 0.930 . S
H1663 C1660 0.929 . S
S1664 N1665 1.613 . S
S1664 N1666 1.610 . S
N1665 S1664 1.613 . S
N1665 C1668 1.350 . S
N1666 S1664 1.610 . S
N1666 C1667 1.351 . S
C1667 C1661 1.428 1_556 S
C1667 N1666 1.351 . S
C1667 C1668 1.434 . S
C1668 C1659 1.429 . S
C1668 N1665 1.350 . S
C1668 C1667 1.434 . S
C1669 C1670 1.369 . S
C1669 C1671 1.419 . S
C1669 H1673 0.930 . S
C1670 C1669 1.369 . S
C1670 C1679 1.429 . S
C1671 C1669 1.419 . S
C1671 C1672 1.363 . S
C1671 H1674 0.929 . S
C1672 C1671 1.363 . S
C1672 C1678 1.428 . S
H1673 C1669 0.930 . S
H1674 C1671 0.929 . S
S1675 N1676 1.613 . S
S1675 N1677 1.610 . S
N1676 S1675 1.613 . S
N1676 C1679 1.350 . S
N1677 S1675 1.610 . S
N1677 C1678 1.351 . S
C1678 C1672 1.428 . S
C1678 N1677 1.351 . S
C1678 C1679 1.434 . S
C1679 C1670 1.429 . S
C1679 N1676 1.350 . S
C1679 C1678 1.434 . S
C1680 C1681 1.369 . S
C1680 C1682 1.419 . S
C1680 H1684 0.930 . S
C1681 C1680 1.369 . S
C1681 C1690 1.429 . S
C1682 C1680 1.419 . S
C1682 C1683 1.363 . S
C1682 H1685 0.929 . S
C1683 C1682 1.363 . S
C1683 C1689 1.428 . S
H1684 C1680 0.930 . S
H1685 C1682 0.929 . S
S1686 N1687 1.613 . S
S1686 N1688 1.610 . S
N1687 S1686 1.613 . S
N1687 C1690 1.350 . S
N1688 S1686 1.610 . S
N1688 C1689 1.351 . S
C1689 C1683 1.428 . S
C1689 N1688 1.351 . S
C1689 C1690 1.434 . S
C1690 C1681 1.429 . S
C1690 N1687 1.350 . S
C1690 C1689 1.434 . S
C1691 C1692 1.369 . S
C1691 C1693 1.419 . S
C1691 H1695 0.930 . S
C1692 C1691 1.369 . S
C1692 C1701 1.429 . S
C1693 C1691 1.419 . S
C1693 C1694 1.363 . S
C1693 H1696 0.929 . S
C1694 C1693 1.363 . S
C1694 C1700 1.428 . S
H1695 C1691 0.930 . S
H1696 C1693 0.929 . S
S1697 N1698 1.613 . S
S1697 N1699 1.610 . S
N1698 S1697 1.613 . S
N1698 C1701 1.350 . S
N1699 S1697 1.610 . S
N1699 C1700 1.351 . S
C1700 C1694 1.428 . S
C1700 N1699 1.351 . S
C1700 C1701 1.434 . S
C1701 C1692 1.429 . S
C1701 N1698 1.350 . S
C1701 C1700 1.434 . S
C1702 C1703 1.369 . S
C1702 C1704 1.419 . S
C1702 H1706 0.930 . S
C1703 C1702 1.369 . S
C1703 C1712 1.429 . S
C1704 C1702 1.419 . S
C1704 C1705 1.363 . S
C1704 H1707 0.929 . S
C1705 C1704 1.363 . S
C1705 C1711 1.428 . S
H1706 C1702 0.930 . S
H1707 C1704 0.929 . S
S1708 N1709 1.613 . S
S1708 N1710 1.610 . S
N1709 S1708 1.613 . S
N1709 C1712 1.350 . S
N1710 S1708 1.610 . S
N1710 C1711 1.351 . S
C1711 C1705 1.428 . S
C1711 N1710 1.351 . S
C1711 C1712 1.434 . S
C1712 C1703 1.429 . S
C1712 N1709 1.350 . S
C1712 C1711 1.434 . S
C1713 C1714 1.369 . S
C1713 C1715 1.419 . S
C1713 H1717 0.930 . S
C1714 C1713 1.369 . S
C1714 C1723 1.429 . S
C1715 C1713 1.419 . S
C1715 C1716 1.363 . S
C1715 H1718 0.929 . S
C1716 C1715 1.363 . S
C1716 C1722 1.428 . S
H1717 C1713 0.930 . S
H1718 C1715 0.929 . S
S1719 N1720 1.613 . S
S1719 N1721 1.610 . S
N1720 S1719 1.613 . S
N1720 C1723 1.350 . S
N1721 S1719 1.610 . S
N1721 C1722 1.351 . S
C1722 C1716 1.428 . S
C1722 N1721 1.351 . S
C1722 C1723 1.434 . S
C1723 C1714 1.429 . S
C1723 N1720 1.350 . S
C1723 C1722 1.434 . S
C1724 C1725 1.369 . S
C1724 C1726 1.419 . S
C1724 H1728 0.930 . S
C1725 C1724 1.369 . S
C1725 C1734 1.429 . S
C1726 C1724 1.419 . S
C1726 C1727 1.363 . S
C1726 H1729 0.929 . S
C1727 C1726 1.363 . S
C1727 C1733 1.428 . S
H1728 C1724 0.930 . S
H1729 C1726 0.929 . S
S1730 N1731 1.613 . S
S1730 N1732 1.610 . S
N1731 S1730 1.613 . S
N1731 C1734 1.350 . S
N1732 S1730 1.610 . S
N1732 C1733 1.351 . S
C1733 C1727 1.428 . S
C1733 N1732 1.351 . S
C1733 C1734 1.434 . S
C1734 C1725 1.429 . S
C1734 N1731 1.350 . S
C1734 C1733 1.434 . S
C1735 C1736 1.369 . S
C1735 C1737 1.419 . S
C1735 H1739 0.930 . S
C1736 C1735 1.369 . S
C1736 C1745 1.429 . S
C1737 C1735 1.419 . S
C1737 C1738 1.363 . S
C1737 H1740 0.929 . S
C1738 C1737 1.363 . S
C1738 C1744 1.428 . S
H1739 C1735 0.930 . S
H1740 C1737 0.929 . S
S1741 N1742 1.613 . S
S1741 N1743 1.610 . S
N1742 S1741 1.613 . S
N1742 C1745 1.350 . S
N1743 S1741 1.610 . S
N1743 C1744 1.351 . S
C1744 C1738 1.428 . S
C1744 N1743 1.351 . S
C1744 C1745 1.434 . S
C1745 C1736 1.429 . S
C1745 N1742 1.350 . S
C1745 C1744 1.434 . S
C1746 C1747 1.369 . S
C1746 C1748 1.419 . S
C1746 H1750 0.930 . S
C1747 C1746 1.369 . S
C1747 C1756 1.429 . S
C1748 C1746 1.419 . S
C1748 C1749 1.363 . S
C1748 H1751 0.929 . S
C1749 C1748 1.363 . S
C1749 C1755 1.428 . S
H1750 C1746 0.930 . S
H1751 C1748 0.929 . S
S1752 N1753 1.613 . S
S1752 N1754 1.610 . S
N1753 S1752 1.613 . S
N1753 C1756 1.350 . S
N1754 S1752 1.610 . S
N1754 C1755 1.351 . S
C1755 C1749 1.428 . S
C1755 N1754 1.351 . S
C1755 C1756 1.434 . S
C1756 C1747 1.429 . S
C1756 N1753 1.350 . S
C1756 C1755 1.434 . S
C1757 C1758 1.369 . S
C1757 C1759 1.419 . S
C1757 H1761 0.930 . S
C1758 C1757 1.369 . S
C1758 C1767 1.429 . S
C1759 C1757 1.419 . S
C1759 C1760 1.363 . S
C1759 H1762 0.929 . S
C1760 C1759 1.363 . S
C1760 C1766 1.428 . S
H1761 C1757 0.930 . S
H1762 C1759 0.929 . S
S1763 N1764 1.613 . S
S1763 N1765 1.610 1_556 S
N1764 S1763 1.613 . S
N1764 C1767 1.350 1_556 S
N1765 S1763 1.610 1_554 S
N1765 C1766 1.351 . S
C1766 C1760 1.428 . S
C1766 N1765 1.351 . S
C1766 C1767 1.434 . S
C1767 C1758 1.429 . S
C1767 N1764 1.350 1_554 S
C1767 C1766 1.434 . S
C1768 C1769 1.369 . S
C1768 C1770 1.419 . S
C1768 H1772 0.930 . S
C1769 C1768 1.369 . S
C1769 C1778 1.429 . S
C1770 C1768 1.419 . S
C1770 C1771 1.363 . S
C1770 H1773 0.929 . S
C1771 C1770 1.363 . S
C1771 C1777 1.428 . S
H1772 C1768 0.930 . S
H1773 C1770 0.929 . S
S1774 N1775 1.613 . S
S1774 N1776 1.610 . S
N1775 S1774 1.613 . S
N1775 C1778 1.350 . S
N1776 S1774 1.610 . S
N1776 C1777 1.351 . S
C1777 C1771 1.428 . S
C1777 N1776 1.351 . S
C1777 C1778 1.434 . S
C1778 C1769 1.429 . S
C1778 N1775 1.350 . S
C1778 C1777 1.434 . S
C1779 C1780 1.369 . S
C1779 C1781 1.419 . S
C1779 H1783 0.930 . S
C1780 C1779 1.369 . S
C1780 C1789 1.429 . S
C1781 C1779 1.419 . S
C1781 C1782 1.363 . S
C1781 H1784 0.929 . S
C1782 C1781 1.363 . S
C1782 C1788 1.428 . S
H1783 C1779 0.930 . S
H1784 C1781 0.929 . S
S1785 N1786 1.613 . S
S1785 N1787 1.610 . S
N1786 S1785 1.613 . S
N1786 C1789 1.350 . S
N1787 S1785 1.610 . S
N1787 C1788 1.351 . S
C1788 C1782 1.428 . S
C1788 N1787 1.351 . S
C1788 C1789 1.434 . S
C1789 C1780 1.429 . S
C1789 N1786 1.350 . S
C1789 C1788 1.434 . S
C1790 C1791 1.369 . S
C1790 C1792 1.419 . S
C1790 H1794 0.930 . S
C1791 C1790 1.369 . S
C1791 C1800 1.429 . S
C1792 C1790 1.419 . S
C1792 C1793 1.363 . S
C1792 H1795 0.929 . S
C1793 C1792 1.363 . S
C1793 C1799 1.428 . S
H1794 C1790 0.930 . S
H1795 C1792 0.929 . S
S1796 N1797 1.613 1_556 S
S1796 N1798 1.610 . S
N1797 S1796 1.613 1_554 S
N1797 C1800 1.350 . S
N1798 S1796 1.610 . S
N1798 C1799 1.351 1_556 S
C1799 C1793 1.428 . S
C1799 N1798 1.351 1_554 S
C1799 C1800 1.434 . S
C1800 C1791 1.429 . S
C1800 N1797 1.350 . S
C1800 C1799 1.434 . S
C1801 C1802 1.369 . S
C1801 C1803 1.419 . S
C1801 H1805 0.930 . S
C1802 C1801 1.369 . S
C1802 C1811 1.429 . S
C1803 C1801 1.419 . S
C1803 C1804 1.363 . S
C1803 H1806 0.929 . S
C1804 C1803 1.363 . S
C1804 C1810 1.428 . S
H1805 C1801 0.930 . S
H1806 C1803 0.929 . S
S1807 N1808 1.613 . S
S1807 N1809 1.610 . S
N1808 S1807 1.613 . S
N1808 C1811 1.350 . S
N1809 S1807 1.610 . S
N1809 C1810 1.351 . S
C1810 C1804 1.428 . S
C1810 N1809 1.351 . S
C1810 C1811 1.434 . S
C1811 C1802 1.429 . S
C1811 N1808 1.350 . S
C1811 C1810 1.434 . S
C1812 C1813 1.369 . S
C1812 C1814 1.419 . S
C1812 H1816 0.930 . S
C1813 C1812 1.369 . S
C1813 C1822 1.429 . S
C1814 C1812 1.419 . S
C1814 C1815 1.363 . S
C1814 H1817 0.929 . S
C1815 C1814 1.363 . S
C1815 C1821 1.428 . S
H1816 C1812 0.930 . S
H1817 C1814 0.929 . S
S1818 N1819 1.613 . S
S1818 N1820 1.610 . S
N1819 S1818 1.613 . S
N1819 C1822 1.350 . S
N1820 S1818 1.610 . S
N1820 C1821 1.351 . S
C1821 C1815 1.428 . S
C1821 N1820 1.351 . S
C1821 C1822 1.434 . S
C1822 C1813 1.429 . S
C1822 N1819 1.350 . S
C1822 C1821 1.434 . S
C1823 C1824 1.369 . S
C1823 C1825 1.419 . S
C1823 H1827 0.930 . S
C1824 C1823 1.369 . S
C1824 C1833 1.429 . S
C1825 C1823 1.419 . S
C1825 C1826 1.363 . S
C1825 H1828 0.929 . S
C1826 C1825 1.363 . S
C1826 C1832 1.428 . S
H1827 C1823 0.930 . S
H1828 C1825 0.929 . S
S1829 N1830 1.613 1_556 S
S1829 N1831 1.610 . S
N1830 S1829 1.613 1_554 S
N1830 C1833 1.350 . S
N1831 S1829 1.610 . S
N1831 C1832 1.351 1_556 S
C1832 C1826 1.428 . S
C1832 N1831 1.351 1_554 S
C1832 C1833 1.434 . S
C1833 C1824 1.429 . S
C1833 N1830 1.350 . S
C1833 C1832 1.434 . S
C1834 C1835 1.369 . S
C1834 C1836 1.419 . S
C1834 H1838 0.930 . S
C1835 C1834 1.369 . S
C1835 C1844 1.429 . S
C1836 C1834 1.419 . S
C1836 C1837 1.363 . S
C1836 H1839 0.929 . S
C1837 C1836 1.363 . S
C1837 C1843 1.428 . S
H1838 C1834 0.930 . S
H1839 C1836 0.929 . S
S1840 N1841 1.613 . S
S1840 N1842 1.610 . S
N1841 S1840 1.613 . S
N1841 C1844 1.350 . S
N1842 S1840 1.610 . S
N1842 C1843 1.351 . S
C1843 C1837 1.428 . S
C1843 N1842 1.351 . S
C1843 C1844 1.434 . S
C1844 C1835 1.429 . S
C1844 N1841 1.350 . S
C1844 C1843 1.434 . S
C1845 C1846 1.369 . S
C1845 C1847 1.419 . S
C1845 H1849 0.930 . S
C1846 C1845 1.369 . S
C1846 C1855 1.429 . S
C1847 C1845 1.419 . S
C1847 C1848 1.363 . S
C1847 H1850 0.929 . S
C1848 C1847 1.363 . S
C1848 C1854 1.428 . S
H1849 C1845 0.930 . S
H1850 C1847 0.929 . S
S1851 N1852 1.613 . S
S1851 N1853 1.610 . S
N1852 S1851 1.613 . S
N1852 C1855 1.350 . S
N1853 S1851 1.610 . S
N1853 C1854 1.351 . S
C1854 C1848 1.428 . S
C1854 N1853 1.351 . S
C1854 C1855 1.434 . S
C1855 C1846 1.429 . S
C1855 N1852 1.350 . S
C1855 C1854 1.434 . S
C1153 C446 1.304 . S
C1155 C2 1.279 . S
C1164 C1048 1.109 1_554 S
C1166 C38 1.071 . S
C1175 C518 1.317 . S
C1177 C74 1.268 . S
C1186 C1120 1.120 . S
C1188 C110 1.058 . S
C1197 C302 1.304 . S
C1199 C146 1.278 . S
C1208 C182 1.054 . S
C1210 C904 1.115 1_556 S
C1219 C218 1.270 . S
C1221 C374 1.313 . S
C1230 C976 1.118 . S
C1232 C254 1.065 . S
C1241 C158 1.274 . S
C1243 C290 1.252 . S
C1252 C770 1.109 . S
C1254 C327 1.137 . S
C1263 C230 1.288 . S
C1265 C362 1.241 . S
C1274 C842 1.111 . S
C1276 C399 1.136 . S
C1285 C434 1.251 . S
C1287 C14 1.277 . S
C1296 C471 1.140 . S
C1298 C626 1.104 . S
C1307 C86 1.283 . S
C1309 C506 1.246 . S
C1318 C543 1.140 . S
C1320 C698 1.104 . S
C1329 C1022 1.303 . S
C1331 C578 1.280 . S
C1340 C472 1.120 . S
C1342 C614 1.060 . S
C1351 C1094 1.310 . S
C1353 C650 1.273 . S
C1362 C686 1.062 . S
C1364 C544 1.109 1_554 S
C1373 C722 1.275 . S
C1375 C878 1.310 . S
C1384 C758 1.054 . S
C1386 C328 1.116 . S
C1395 C950 1.303 . S
C1397 C794 1.280 . S
C1406 C400 1.120 1_556 S
C1408 C830 1.060 . S
C1417 C734 1.285 . S
C1419 C866 1.242 . S
C1428 C903 1.135 . S
C1430 C194 1.108 . S
C1439 C938 1.238 . S
C1441 C806 1.286 . S
C1450 C975 1.135 . S
C1452 C266 1.109 . S
C1461 C590 1.283 . S
C1463 C1010 1.243 . S
C1472 C50 1.111 . S
C1474 C1047 1.136 . S
C1483 C662 1.285 . S
C1485 C1082 1.245 . S
C1494 C1119 1.143 . S
C1496 C122 1.101 . S
C1505 C3 1.511 1_655 S
C1507 C291 1.509 . S
C1516 C39 1.493 . S
C1518 C902 1.432 . S
C1527 C363 1.501 . S
C1529 C75 1.529 . S
C1538 C111 1.486 . S
C1540 C974 1.439 . S
C1549 C147 1.520 1_655 S
C1551 C435 1.501 . S
C1560 C1046 1.439 . S
C1562 C183 1.488 . S
C1571 C507 1.500 . S
C1573 C219 1.530 . S
C1582 C255 1.488 . S
C1584 C1118 1.439 . S
C1593 C326 1.442 . S
C1595 C615 1.486 . S
C1604 C398 1.433 . S
C1606 C687 1.492 . S
C1615 C470 1.438 . S
C1617 C759 1.488 . S
C1626 C831 1.488 . S
C1628 C542 1.437 . S
C1637 C579 1.528 . S
C1639 C867 1.504 . S
C1648 C651 1.518 1_455 S
C1650 C939 1.503 . S
C1659 C723 1.527 . S
C1661 C1011 1.506 . S
C1670 C1083 1.504 . S
C1672 C795 1.515 1_455 S
C1681 C4 1.394 . S
C1683 C256 1.386 . S
C1692 C40 1.387 . S
C1694 C148 1.391 . S
C1703 C184 1.392 . S
C1705 C76 1.393 . S
C1714 C220 1.392 . S
C1716 C112 1.386 . S
C1725 C554 1.309 . S
C1727 C292 1.347 . S
C1736 C436 1.347 . S
C1738 C338 1.299 . S
C1747 C482 1.301 . S
C1749 C364 1.345 . S
C1758 C508 1.346 . S
C1760 C410 1.300 . S
C1769 C580 1.391 . S
C1771 C832 1.386 . S
C1780 C724 1.395 . S
C1782 C616 1.391 . S
C1791 C760 1.385 . S
C1793 C652 1.394 . S
C1802 C796 1.394 . S
C1804 C688 1.391 . S
C1813 C1130 1.302 . S
C1815 C868 1.351 . S
C1824 C914 1.297 . S
C1826 C1012 1.351 . S
C1835 C940 1.346 . S
C1837 C1058 1.308 . S
C1846 C1084 1.349 . S
C1848 C986 1.306 . S
