# Generated by pormake.
# Topology wke, (5)-cn, num edge types: 1
# Building blocks:
#     Node 0, Type 0, BuildingBlock: BEQFEK_clean_sbu_0, # of connection points: 5
#     Node 1, Type 0, BuildingBlock: BEQFEK_clean_sbu_0, # of connection points: 5
#     Node 2, Type 0, BuildingBlock: BEQFEK_clean_sbu_0, # of connection points: 5
#     Node 3, Type 0, BuildingBlock: BEQFEK_clean_sbu_0, # of connection points: 5
#     Node 4, Type 0, BuildingBlock: BEQFEK_clean_sbu_0, # of connection points: 5
#     Node 5, Type 0, BuildingBlock: BEQFEK_clean_sbu_0, # of connection points: 5
#     Node 6, Type 0, BuildingBlock: BEQFEK_clean_sbu_0, # of connection points: 5
#     Node 7, Type 0, BuildingBlock: BEQFEK_clean_sbu_0, # of connection points: 5
#     Node 8, Type 0, BuildingBlock: BEQFEK_clean_sbu_0, # of connection points: 5
#     Node 9, Type 0, BuildingBlock: BEQFEK_clean_sbu_0, # of connection points: 5
#     Node 10, Type 0, BuildingBlock: BEQFEK_clean_sbu_0, # of connection points: 5
#     Node 11, Type 0, BuildingBlock: BEQFEK_clean_sbu_0, # of connection points: 5
#     Edge 12, Type (0, 0), None
#     Edge 13, Type (0, 0), None
#     Edge 14, Type (0, 0), None
#     Edge 15, Type (0, 0), None
#     Edge 16, Type (0, 0), None
#     Edge 17, Type (0, 0), None
#     Edge 18, Type (0, 0), None
#     Edge 19, Type (0, 0), None
#     Edge 20, Type (0, 0), None
#     Edge 21, Type (0, 0), None
#     Edge 22, Type (0, 0), None
#     Edge 23, Type (0, 0), None
#     Edge 24, Type (0, 0), None
#     Edge 25, Type (0, 0), None
#     Edge 26, Type (0, 0), None
#     Edge 27, Type (0, 0), None
#     Edge 28, Type (0, 0), None
#     Edge 29, Type (0, 0), None
#     Edge 30, Type (0, 0), None
#     Edge 31, Type (0, 0), None
#     Edge 32, Type (0, 0), None
#     Edge 33, Type (0, 0), None
#     Edge 34, Type (0, 0), None
#     Edge 35, Type (0, 0), None
#     Edge 36, Type (0, 0), None
#     Edge 37, Type (0, 0), None
#     Edge 38, Type (0, 0), None
#     Edge 39, Type (0, 0), None
#     Edge 40, Type (0, 0), None
#     Edge 41, Type (0, 0), None
# Relax obj value: 0.297
# Max RMSD: 0.220
# Mean RMSD: 0.220
data_MOF--net-wke--node1-BEQFEK_clean_sbu_0--edge1-none
_symmetry_space_group_name_H-M    P1
_symmetry_Int_Tables_number       1
_symmetry_cell_setting            triclinic
loop_
_symmetry_equiv_pos_as_xyz
'x, y, z'
_cell_length_a     33.843222
_cell_length_b     33.845033
_cell_length_c     9.9422736
_cell_angle_alpha  90.011497
_cell_angle_beta   89.98902
_cell_angle_gamma 119.99797
loop_
_atom_site_label
_atom_site_type_symbol
_atom_site_fract_x
_atom_site_fract_y
_atom_site_fract_z
_atom_type_partial_charge
Co0 Co 0.0739 0.43314 0.2464 0.0
Co1 Co 0.11664 0.47601 0.52407 0.0
C2 C 0.01716 0.40608 0.49761 0.0
O3 O 0.01918 0.40316 0.37052 0.0
O4 O 0.05247 0.43231 0.56341 0.0
C5 C 0.06179 0.40308 0.95185 0.0
O6 O 0.03678 0.36862 0.87169 0.0
C7 C 0.12318 0.44607 0.77792 0.0
C8 C 0.10022 0.48635 0.89313 0.0
C9 C 0.09958 0.44521 0.89356 0.0
N10 N 0.13467 0.48456 0.70845 0.0
N11 N 0.12283 0.50946 0.78204 0.0
C12 C 0.12329 0.40546 0.71775 0.0
H13 H 0.15735 0.41584 0.67595 0.0
H14 H 0.11514 0.37854 0.79412 0.0
H15 H 0.09809 0.39113 0.63481 0.0
C16 C 0.1529 0.41725 0.2426 0.0
N17 N 0.1253 0.42906 0.30768 0.0
N18 N 0.14581 0.45109 0.4185 0.0
C19 C 0.18787 0.45595 0.42349 0.0
C20 C 0.19342 0.43421 0.31278 0.0
C21 C 0.14204 0.39189 0.11246 0.0
H22 H 0.10525 0.36615 0.10762 0.0
H23 H 0.16236 0.37458 0.1007 0.0
H24 H 0.15104 0.41642 1.0287 0.0
O25 O 0.09319 0.49927 0.22257 0.0
O26 O 0.11937 0.52964 0.42593 0.0
H27 H 0.25679 0.50873 0.46281 0.0
H28 H 0.23135 0.46686 0.59272 0.0
C29 C 0.22457 0.48721 0.51862 0.0
H30 H 0.21427 0.50925 0.57303 0.0
H31 H 0.12005 0.53633 0.74214 0.0
O32 O 0.05131 0.39876 0.07586 0.0
C33 C 0.11001 0.53333 0.30301 0.0
Co34 Co 0.63955 0.0745 0.74623 0.0
Co35 Co 0.63939 0.11722 1.02394 0.0
C36 C 0.60993 0.01776 0.9974 0.0
O37 O 0.61486 0.01979 0.8703 0.0
O38 O 0.61898 0.05306 0.06323 0.0
C39 C 0.65751 0.06241 0.45167 0.0
O40 O 0.667 0.03743 0.37149 0.0
C41 C 0.67586 0.12379 0.27779 0.0
C42 C 0.61262 0.10079 0.39296 0.0
C43 C 0.65314 0.10018 0.3934 0.0
N44 N 0.64885 0.13526 0.20831 0.0
N45 N 0.6121 0.12339 0.28188 0.0
C46 C 0.71662 0.12395 0.21763 0.0
H47 H 0.74027 0.15801 0.17585 0.0
H48 H 0.73541 0.11583 0.294 0.0
H49 H 0.70576 0.09875 0.13468 0.0
C50 C 0.73439 0.15357 0.74243 0.0
N51 N 0.695 0.12593 0.80753 0.0
N52 N 0.69346 0.14643 0.91838 0.0
C53 C 0.73063 0.18851 0.92338 0.0
C54 C 0.75791 0.19409 0.81263 0.0
C55 C 0.74891 0.14274 0.61226 0.0
H56 H 0.7379 0.10596 0.60737 0.0
H57 H 0.78654 0.16309 0.6005 0.0
H58 H 0.73336 0.15173 0.52853 0.0
O59 O 0.59268 0.09376 0.72243 0.0
O60 O 0.58847 0.11991 0.92582 0.0
H61 H 0.74668 0.25739 0.96277 0.0
H62 H 0.76318 0.232 0.09261 0.0
C63 C 0.73603 0.22519 1.01855 0.0
H64 H 0.70369 0.21485 0.073 0.0
H65 H 0.58243 0.12058 0.24197 0.0
O66 O 0.65137 0.05194 0.57567 0.0
C67 C 0.57542 0.11056 0.80289 0.0
Co68 Co 0.56364 0.63997 0.24617 0.0
Co69 Co 0.52083 0.63997 0.52386 0.0
C70 C 0.59072 0.61035 0.49743 0.0
O71 O 0.59364 0.61528 0.37034 0.0
O72 O 0.56449 0.61945 0.56322 0.0
C73 C 0.5937 0.6579 0.95157 0.0
O74 O 0.62816 0.66731 0.87145 0.0
C75 C 0.55085 0.67646 0.7776 0.0
C76 C 0.5104 0.61331 0.89293 0.0
C77 C 0.55163 0.6537 0.89326 0.0
N78 N 0.51232 0.64955 0.70819 0.0
N79 N 0.48731 0.61287 0.78185 0.0
C80 C 0.59154 0.7171 0.71737 0.0
H81 H 0.58124 0.7408 0.67524 0.0
H82 H 0.61844 0.73587 0.7938 0.0
H83 H 0.60586 0.70611 0.63466 0.0
C84 C 0.57957 0.73487 0.2422 0.0
N85 N 0.56775 0.69548 0.30734 0.0
N86 N 0.54574 0.69401 0.41817 0.0
C87 C 0.54091 0.73123 0.42314 0.0
C88 C 0.56264 0.75847 0.31236 0.0
C89 C 0.60496 0.74936 0.11212 0.0
H90 H 0.63066 0.73825 0.10724 0.0
H91 H 0.62236 0.787 0.10051 0.0
H92 H 0.58045 0.73392 1.0283 0.0
O93 O 0.49749 0.59313 0.22253 0.0
O94 O 0.46716 0.58904 0.42589 0.0
H95 H 0.48834 0.74765 0.4628 0.0
H96 H 0.53013 0.76371 0.59284 0.0
C97 C 0.50971 0.73673 0.5184 0.0
H98 H 0.48753 0.70435 0.57243 0.0
H99 H 0.46034 0.58328 0.74202 0.0
O100 O 0.59797 0.65169 0.07556 0.0
C101 C 0.46344 0.57593 0.30301 0.0
Co102 Co 0.92234 0.56434 0.74635 0.0
Co103 Co 0.87957 0.52152 1.02403 0.0
C104 C 0.97906 0.59142 0.99757 0.0
O105 O 0.97705 0.59434 0.87048 0.0
O106 O 0.94375 0.5652 0.06338 0.0
C107 C 0.93446 0.5944 0.45178 0.0
O108 O 0.9595 0.62886 0.37167 0.0
C109 C 0.87306 0.55149 0.27784 0.0
C110 C 0.89588 0.51112 0.39304 0.0
C111 C 0.89663 0.55231 0.39347 0.0
N112 N 0.86149 0.51298 0.20836 0.0
N113 N 0.87325 0.48802 0.28195 0.0
C114 C 0.87302 0.59214 0.21768 0.0
H115 H 0.83901 0.5818 0.17567 0.0
H116 H 0.88115 0.61904 0.29412 0.0
H117 H 0.8983 0.60647 0.1349 0.0
C118 C 0.84331 0.5802 0.74243 0.0
N119 N 0.87093 0.56843 0.80758 0.0
N120 N 0.85041 0.54642 0.91841 0.0
C121 C 0.80834 0.54153 0.92336 0.0
C122 C 0.80278 0.56322 0.81257 0.0
C123 C 0.85418 0.60555 0.61231 0.0
H124 H 0.89097 0.63128 0.60743 0.0
H125 H 0.83388 0.62289 0.60065 0.0
H126 H 0.84514 0.58102 0.52853 0.0
O127 O 0.90304 0.4982 0.72259 0.0
O128 O 0.87684 0.46787 0.92596 0.0
H129 H 0.73939 0.48885 0.96291 0.0
H130 H 0.76498 0.53069 0.09287 0.0
C131 C 0.77165 0.5103 1.01858 0.0
H132 H 0.78191 0.48821 0.07278 0.0
H133 H 0.87594 0.4611 0.24205 0.0
O134 O 0.94494 0.5987 0.57578 0.0
C135 C 0.88621 0.46416 0.80305 0.0
Co136 Co 0.35684 0.92287 0.24619 0.0
Co137 Co 0.35694 0.88013 0.52384 0.0
C138 C 0.38645 0.9796 0.49743 0.0
O139 O 0.38153 0.97758 0.37033 0.0
O140 O 0.37739 0.94429 0.56321 0.0
C141 C 0.33889 0.93498 0.95165 0.0
O142 O 0.32943 0.95998 0.87153 0.0
C143 C 0.32047 0.87358 0.77769 0.0
C144 C 0.38369 0.89649 0.89286 0.0
C145 C 0.34321 0.89717 0.89333 0.0
N146 N 0.34745 0.86207 0.70818 0.0
N147 N 0.38418 0.87388 0.78175 0.0
C148 C 0.27974 0.87348 0.71757 0.0
H149 H 0.25607 0.83944 0.67572 0.0
H150 H 0.26097 0.88163 0.79399 0.0
H151 H 0.29063 0.89871 0.63468 0.0
C152 C 0.26196 0.84385 0.24235 0.0
N153 N 0.30137 0.87146 0.30744 0.0
N154 N 0.30288 0.85095 0.41826 0.0
C155 C 0.26568 0.80889 0.42325 0.0
C156 C 0.23841 0.80334 0.31253 0.0
C157 C 0.24746 0.85471 0.11225 0.0
H158 H 0.25851 0.8915 0.1074 0.0
H159 H 0.20982 0.8344 0.10055 0.0
H160 H 0.26297 0.84569 1.02846 0.0
O161 O 0.4037 0.90359 0.22237 0.0
O162 O 0.40787 0.87742 0.42572 0.0
H163 H 0.24952 0.73997 0.46262 0.0
H164 H 0.23311 0.76544 0.59253 0.0
C165 C 0.26023 0.77219 0.5184 0.0
H166 H 0.29257 0.78249 0.57277 0.0
H167 H 0.41382 0.87663 0.74182 0.0
O168 O 0.34506 0.94545 0.07566 0.0
C169 C 0.42094 0.88678 0.3028 0.0
Co170 Co 0.43255 0.35728 0.74639 0.0
Co171 Co 0.47541 0.3574 1.02403 0.0
C172 C 0.40544 0.38691 0.99764 0.0
O173 O 0.40253 0.38197 0.87054 0.0
O174 O 0.43169 0.37785 0.06342 0.0
C175 C 0.4025 0.33932 0.45184 0.0
O176 O 0.36803 0.32985 0.3717 0.0
C177 C 0.4455 0.32094 0.27789 0.0
C178 C 0.48577 0.38416 0.39307 0.0
C179 C 0.44463 0.34367 0.39353 0.0
N180 N 0.48399 0.34793 0.20839 0.0
N181 N 0.50889 0.38467 0.28196 0.0
C182 C 0.40489 0.28019 0.21775 0.0
H183 H 0.41529 0.25653 0.17594 0.0
H184 H 0.37798 0.26142 0.29415 0.0
H185 H 0.39056 0.29106 0.13484 0.0
C186 C 0.41672 0.26242 0.74251 0.0
N187 N 0.4285 0.30181 0.80764 0.0
N188 N 0.45053 0.30333 0.91844 0.0
C189 C 0.45542 0.26615 0.92339 0.0
C190 C 0.4337 0.23887 0.81265 0.0
C191 C 0.39136 0.24791 0.6124 0.0
H192 H 0.3656 0.25894 0.60757 0.0
H193 H 0.37405 0.21028 0.60066 0.0
H194 H 0.41589 0.26343 0.52862 0.0
O195 O 0.49868 0.40413 0.72254 0.0
O196 O 0.52904 0.40832 0.92588 0.0
H197 H 0.50823 0.25006 0.96269 0.0
H198 H 0.46633 0.23357 0.09257 0.0
C199 C 0.48669 0.26072 1.01852 0.0
H200 H 0.5087 0.29305 0.07298 0.0
H201 H 0.53576 0.41432 0.24204 0.0
O202 O 0.39817 0.34548 0.57585 0.0
C203 C 0.53274 0.42137 0.80296 0.0
Co204 Co 0.56128 0.9187 0.32325 0.0
Co205 Co 0.51812 0.87316 0.04634 0.0
C206 C 0.58811 0.97357 0.06927 0.0
O207 O 0.59269 0.97201 0.19593 0.0
O208 O 0.56071 0.93811 1.00537 0.0
C209 C 0.59021 0.93068 0.62127 0.0
O210 O 0.62443 0.95775 0.69941 0.0
C211 C 0.55343 0.87022 0.80161 0.0
C212 C 0.50558 0.87792 0.66985 0.0
C213 C 0.55101 0.8898 0.68146 0.0
N214 N 0.51279 0.85169 0.86461 0.0
N215 N 0.48358 0.85353 0.78055 0.0
C216 C 0.59637 0.87678 0.86658 0.0
H217 H 0.58918 0.84644 0.92669 0.0
H218 H 0.62231 0.88231 0.78923 0.0
H219 H 0.61088 0.9067 0.93453 0.0
C220 C 0.57776 0.84018 0.3352 0.0
N221 N 0.56476 0.86668 0.26918 0.0
N222 N 0.54262 0.8453 0.15956 0.0
C223 C 0.539 0.80376 0.15595 0.0
C224 C 0.56131 0.79934 0.2671 0.0
C225 C 0.60625 0.85347 0.45974 0.0
H226 H 0.62973 0.89085 0.46231 0.0
H227 H 0.62646 0.83586 0.46437 0.0
H228 H 0.5837 0.84277 0.54879 0.0
O229 O 0.49595 0.90197 0.33779 0.0
O230 O 0.46406 0.87247 0.13792 0.0
H231 H 0.49582 0.73299 0.10259 0.0
H232 H 0.5321 0.76896 0.97026 0.0
C233 C 0.5105 0.76734 0.05634 0.0
H234 H 0.48273 0.77261 1.01753 0.0
H235 H 0.45014 0.84336 0.80721 0.0
O236 O 0.593 0.94124 0.49746 0.0
C237 C 0.46172 0.88521 0.25817 0.0
Co238 Co 0.64112 0.56172 0.82338 0.0
Co239 Co 0.64352 0.51854 0.54649 0.0
C240 C 0.61307 0.58852 0.56938 0.0
O241 O 0.6192 0.59311 0.69604 0.0
O242 O 0.62115 0.56112 0.50549 0.0
C243 C 0.65807 0.59063 0.12145 0.0
O244 O 0.66523 0.62485 0.19962 0.0
C245 C 0.68176 0.55385 0.30178 0.0
C246 C 0.62624 0.50601 0.16996 0.0
C247 C 0.65977 0.55144 0.18161 0.0
N248 N 0.65967 0.51322 0.36474 0.0
N249 N 0.62863 0.48401 0.28065 0.0
C250 C 0.71814 0.59679 0.36678 0.0
H251 H 0.7413 0.58961 0.42686 0.0
H252 H 0.73854 0.62274 0.28946 0.0
H253 H 0.70272 0.6113 0.43477 0.0
C254 C 0.73614 0.57826 0.83536 0.0
N255 N 0.69663 0.56522 0.76933 0.0
N256 N 0.69588 0.54307 0.65974 0.0
C257 C 0.73383 0.53949 0.65617 0.0
C258 C 0.76055 0.56183 0.7673 0.0
C259 C 0.75133 0.6068 0.95982 0.0
H260 H 0.7374 0.63026 0.96232 0.0
H261 H 0.78915 0.62704 0.96441 0.0
H262 H 0.73951 0.58428 0.04893 0.0
O263 O 0.59254 0.49639 0.83791 0.0
O264 O 0.59016 0.46449 0.63806 0.0
H265 H 0.76145 0.49632 0.60291 0.0
H266 H 0.76177 0.53259 0.47055 0.0
C267 C 0.74177 0.51099 0.55659 0.0
H268 H 0.70875 0.48322 0.51772 0.0
H269 H 0.60537 0.45056 0.30726 0.0
O270 O 0.65029 0.59342 0.99766 0.0
C271 C 0.57509 0.46216 0.75831 0.0
Co272 Co 0.07813 0.64179 0.32346 0.0
Co273 Co 0.12367 0.64412 0.04655 0.0
C274 C 0.02326 0.61376 0.06947 0.0
O275 O 0.02482 0.6199 0.19613 0.0
O276 O 0.05872 0.6218 1.00557 0.0
C277 C 0.06617 0.65876 0.62151 0.0
O278 O 0.03912 0.66594 0.69967 0.0
C279 C 0.12662 0.68238 0.80189 0.0
C280 C 0.11892 0.62686 0.66998 0.0
C281 C 0.10704 0.66041 0.68169 0.0
N282 N 0.14514 0.66026 0.86481 0.0
N283 N 0.1433 0.62923 0.78067 0.0
C284 C 0.12008 0.71877 0.86694 0.0
H285 H 0.15043 0.74191 0.92707 0.0
H286 H 0.11457 0.7392 0.78964 0.0
H287 H 0.09016 0.70337 0.93488 0.0
C288 C 0.15669 0.73676 0.33545 0.0
N289 N 0.13018 0.69726 0.26942 0.0
N290 N 0.15155 0.69647 0.1598 0.0
C291 C 0.1931 0.73439 0.15619 0.0
C292 C 0.19754 0.76113 0.26734 0.0
C293 C 0.1434 0.75198 0.45997 0.0
H294 H 0.10603 0.73811 0.4625 0.0
H295 H 0.16104 0.7898 0.46462 0.0
H296 H 0.15407 0.74012 0.54904 0.0
O297 O 0.09484 0.59316 0.33798 0.0
O298 O 0.12433 0.59074 0.13811 0.0
H299 H 0.26387 0.76194 0.10281 0.0
H300 H 0.22791 0.76226 0.97051 0.0
C301 C 0.22951 0.74227 0.05656 0.0
H302 H 0.22422 0.70924 1.01772 0.0
H303 H 0.15347 0.60595 0.80724 0.0
O304 O 0.05561 0.65099 0.4977 0.0
C305 C 0.11159 0.57569 0.25836 0.0
Co306 Co 0.43508 0.07865 0.82338 0.0
Co307 Co 0.47828 0.1242 0.5465 0.0
C308 C 0.40827 0.02379 0.56936 0.0
O309 O 0.40368 0.02534 0.69601 0.0
O310 O 0.43568 0.05925 0.50548 0.0
C311 C 0.40617 0.06668 0.12143 0.0
O312 O 0.37194 0.03962 0.19959 0.0
C313 C 0.44296 0.12714 0.30183 0.0
C314 C 0.4908 0.11945 0.16995 0.0
C315 C 0.44537 0.10757 0.18163 0.0
N316 N 0.4836 0.14567 0.36478 0.0
N317 N 0.51281 0.14384 0.28065 0.0
C318 C 0.40002 0.12059 0.36686 0.0
H319 H 0.40722 0.15093 0.427 0.0
H320 H 0.37408 0.11506 0.28956 0.0
H321 H 0.38551 0.09066 0.43479 0.0
C322 C 0.41862 0.15718 0.83545 0.0
N323 N 0.43162 0.13068 0.76939 0.0
N324 N 0.45377 0.15206 0.65979 0.0
C325 C 0.45739 0.19361 0.65624 0.0
C326 C 0.43508 0.19802 0.7674 0.0
C327 C 0.39009 0.14386 0.95995 0.0
H328 H 0.36661 0.10648 0.96244 0.0
H329 H 0.36988 0.16147 0.96459 0.0
H330 H 0.41262 0.15454 0.04904 0.0
O331 O 0.50041 0.09537 0.83788 0.0
O332 O 0.53232 0.12488 0.63803 0.0
H333 H 0.50058 0.26437 0.60295 0.0
H334 H 0.46429 0.22842 0.47062 0.0
C335 C 0.4859 0.23002 0.55665 0.0
H336 H 0.51365 0.22475 0.51777 0.0
H337 H 0.54626 0.15402 0.30725 0.0
O338 O 0.40337 0.05612 0.99762 0.0
C339 C 0.53464 0.11214 0.75826 0.0
Co340 Co 0.35503 0.43558 0.32359 0.0
Co341 Co 0.35264 0.47873 0.04672 0.0
C342 C 0.38308 0.40874 0.06957 0.0
O343 O 0.37695 0.40417 0.19623 0.0
O344 O 0.375 0.43613 1.00568 0.0
C345 C 0.33808 0.40663 0.6216 0.0
O346 O 0.33092 0.37241 0.6997 0.0
C347 C 0.31439 0.44341 0.80203 0.0
C348 C 0.36993 0.49125 0.67023 0.0
C349 C 0.33639 0.44583 0.68184 0.0
N350 N 0.33649 0.48404 0.86503 0.0
N351 N 0.36754 0.51325 0.78096 0.0
C352 C 0.27802 0.40047 0.86701 0.0
H353 H 0.25487 0.40765 0.92721 0.0
H354 H 0.2576 0.37453 0.78967 0.0
H355 H 0.29344 0.38594 0.93487 0.0
C356 C 0.26002 0.41911 0.33565 0.0
N357 N 0.29953 0.43211 0.2696 0.0
N358 N 0.30029 0.45423 0.15998 0.0
C359 C 0.26236 0.45785 0.1564 0.0
C360 C 0.23563 0.43556 0.26755 0.0
C361 C 0.24483 0.39062 0.46019 0.0
H362 H 0.25871 0.36713 0.46271 0.0
H363 H 0.207 0.37042 0.46486 0.0
H364 H 0.25668 0.41317 0.54924 0.0
O365 O 0.40363 0.50092 0.33812 0.0
O366 O 0.406 0.53278 0.13824 0.0
H367 H 0.23476 0.50102 0.10303 0.0
H368 H 0.23447 0.46475 0.97071 0.0
C369 C 0.25445 0.48635 0.05678 0.0
H370 H 0.28748 0.51411 1.01796 0.0
H371 H 0.39082 0.54669 0.80764 0.0
O372 O 0.34585 0.40385 0.49778 0.0
C373 C 0.42108 0.53514 0.25847 0.0
Co374 Co 0.9181 0.35572 0.82355 0.0
Co375 Co 0.87256 0.35334 0.54667 0.0
C376 C 0.97297 0.38373 0.56954 0.0
O377 O 0.97141 0.37761 0.6962 0.0
O378 O 0.9375 0.37567 0.50565 0.0
C379 C 0.93007 0.33877 0.12156 0.0
O380 O 0.95713 0.3316 0.19968 0.0
C381 C 0.8696 0.31509 0.30194 0.0
C382 C 0.87732 0.37064 0.1702 0.0
C383 C 0.88919 0.33708 0.18177 0.0
N384 N 0.85108 0.3372 0.36496 0.0
N385 N 0.85293 0.36826 0.28092 0.0
C386 C 0.87616 0.2787 0.36689 0.0
H387 H 0.84581 0.25556 0.42702 0.0
H388 H 0.88168 0.25829 0.28953 0.0
H389 H 0.90608 0.29411 0.43481 0.0
C390 C 0.83959 0.26072 0.83552 0.0
N391 N 0.86608 0.30023 0.76951 0.0
N392 N 0.8447 0.30099 0.65992 0.0
C393 C 0.80316 0.26306 0.65633 0.0
C394 C 0.79875 0.23633 0.76744 0.0
C395 C 0.85291 0.24552 0.95999 0.0
H396 H 0.89029 0.25942 0.96247 0.0
H397 H 0.83531 0.2077 0.9646 0.0
H398 H 0.84223 0.25736 0.0491 0.0
O399 O 0.90138 0.40433 0.83808 0.0
O400 O 0.87188 0.40671 0.63822 0.0
H401 H 0.73238 0.23546 0.60305 0.0
H402 H 0.76834 0.23513 0.4707 0.0
C403 C 0.76673 0.25513 0.55674 0.0
H404 H 0.772 0.28816 0.51788 0.0
H405 H 0.84278 0.39155 0.30762 0.0
O406 O 0.94064 0.34654 0.99775 0.0
C407 C 0.88462 0.42179 0.75845 0.0
loop_
_geom_bond_atom_site_label_1
_geom_bond_atom_site_label_2
_geom_bond_distance
_geom_bond_site_symmetry_2
_ccdc_geom_bond_type
Co0 O3 1.970 . S
Co0 N17 1.989 . S
Co0 O25 1.967 . S
Co0 O32 1.920 . S
Co1 O4 1.966 . S
Co1 N10 2.022 . S
Co1 N18 1.993 . S
Co1 O26 1.941 . S
C2 O3 1.258 . S
C2 O4 1.263 . S
O3 Co0 1.970 . S
O3 C2 1.258 . S
O4 Co1 1.966 . S
O4 C2 1.263 . S
C5 O6 1.235 1_556 S
C5 O32 1.289 1_556 S
O6 C5 1.235 1_554 S
C7 C9 1.400 . S
C7 N10 1.351 . S
C7 C12 1.501 . S
C8 C9 1.387 . S
C8 N11 1.341 . S
C9 C7 1.400 . S
C9 C8 1.387 . S
N10 Co1 2.022 . S
N10 C7 1.351 . S
N10 N11 1.365 . S
N11 C8 1.341 . S
N11 N10 1.365 . S
N11 H31 0.862 . S
C12 C7 1.501 . S
C12 H13 0.961 . S
C12 H14 0.961 . S
C12 H15 0.960 . S
H13 C12 0.961 . S
H14 C12 0.961 . S
H15 C12 0.960 . S
C16 N17 1.342 . S
C16 C20 1.401 . S
C16 C21 1.499 . S
N17 Co0 1.989 . S
N17 C16 1.342 . S
N17 N18 1.388 . S
N18 Co1 1.993 . S
N18 N17 1.388 . S
N18 C19 1.346 . S
C19 N18 1.346 . S
C19 C20 1.396 . S
C19 C29 1.510 . S
C20 C16 1.401 . S
C20 C19 1.396 . S
C21 C16 1.499 . S
C21 H22 0.959 . S
C21 H23 0.960 . S
C21 H24 0.961 . S
H22 C21 0.959 . S
H23 C21 0.960 . S
H24 C21 0.961 . S
O25 Co0 1.967 . S
O25 C33 1.258 . S
O26 Co1 1.941 . S
O26 C33 1.266 . S
H27 C29 0.959 . S
H28 C29 0.961 . S
C29 C19 1.510 . S
C29 H27 0.959 . S
C29 H28 0.961 . S
C29 H30 0.960 . S
H30 C29 0.960 . S
H31 N11 0.862 . S
O32 Co0 1.920 . S
O32 C5 1.289 1_554 S
C33 O25 1.258 . S
C33 O26 1.266 . S
Co34 O37 1.970 . S
Co34 N51 1.989 . S
Co34 O59 1.967 . S
Co34 O66 1.920 . S
Co35 O38 1.966 . S
Co35 N44 2.022 1_556 S
Co35 N52 1.993 . S
Co35 O60 1.941 . S
C36 O37 1.258 . S
C36 O38 1.263 . S
O37 Co34 1.970 . S
O37 C36 1.258 . S
O38 Co35 1.966 . S
O38 C36 1.263 . S
C39 O40 1.235 . S
C39 O66 1.289 . S
O40 C39 1.235 . S
C41 C43 1.400 . S
C41 N44 1.351 . S
C41 C46 1.501 . S
C42 C43 1.387 . S
C42 N45 1.341 . S
C43 C41 1.400 . S
C43 C42 1.387 . S
N44 Co35 2.022 1_554 S
N44 C41 1.351 . S
N44 N45 1.365 . S
N45 C42 1.341 . S
N45 N44 1.365 . S
N45 H65 0.862 . S
C46 C41 1.501 . S
C46 H47 0.961 . S
C46 H48 0.961 . S
C46 H49 0.960 . S
H47 C46 0.961 . S
H48 C46 0.961 . S
H49 C46 0.960 . S
C50 N51 1.342 . S
C50 C54 1.401 . S
C50 C55 1.499 . S
N51 Co34 1.989 . S
N51 C50 1.342 . S
N51 N52 1.388 . S
N52 Co35 1.993 . S
N52 N51 1.388 . S
N52 C53 1.346 . S
C53 N52 1.346 . S
C53 C54 1.396 . S
C53 C63 1.510 1_556 S
C54 C50 1.401 . S
C54 C53 1.396 . S
C55 C50 1.499 . S
C55 H56 0.959 . S
C55 H57 0.960 . S
C55 H58 0.961 . S
H56 C55 0.959 . S
H57 C55 0.960 . S
H58 C55 0.961 . S
O59 Co34 1.967 . S
O59 C67 1.258 . S
O60 Co35 1.941 . S
O60 C67 1.266 . S
H61 C63 0.959 . S
H62 C63 0.961 . S
C63 C53 1.510 1_554 S
C63 H61 0.959 . S
C63 H62 0.961 . S
C63 H64 0.960 . S
H64 C63 0.960 . S
H65 N45 0.862 . S
O66 Co34 1.920 . S
O66 C39 1.289 . S
C67 O59 1.258 . S
C67 O60 1.266 . S
Co68 O71 1.970 . S
Co68 N85 1.989 . S
Co68 O93 1.967 . S
Co68 O100 1.920 . S
Co69 O72 1.966 . S
Co69 N78 2.022 . S
Co69 N86 1.993 . S
Co69 O94 1.941 . S
C70 O71 1.258 . S
C70 O72 1.263 . S
O71 Co68 1.970 . S
O71 C70 1.258 . S
O72 Co69 1.966 . S
O72 C70 1.263 . S
C73 O74 1.235 1_556 S
C73 O100 1.289 1_556 S
O74 C73 1.235 1_554 S
C75 C77 1.400 . S
C75 N78 1.351 . S
C75 C80 1.501 . S
C76 C77 1.387 . S
C76 N79 1.341 . S
C77 C75 1.400 . S
C77 C76 1.387 . S
N78 Co69 2.022 . S
N78 C75 1.351 . S
N78 N79 1.365 . S
N79 C76 1.341 . S
N79 N78 1.365 . S
N79 H99 0.862 . S
C80 C75 1.501 . S
C80 H81 0.961 . S
C80 H82 0.961 . S
C80 H83 0.960 . S
H81 C80 0.961 . S
H82 C80 0.961 . S
H83 C80 0.960 . S
C84 N85 1.342 . S
C84 C88 1.401 . S
C84 C89 1.499 . S
N85 Co68 1.989 . S
N85 C84 1.342 . S
N85 N86 1.388 . S
N86 Co69 1.993 . S
N86 N85 1.388 . S
N86 C87 1.346 . S
C87 N86 1.346 . S
C87 C88 1.396 . S
C87 C97 1.510 . S
C88 C84 1.401 . S
C88 C87 1.396 . S
C89 C84 1.499 . S
C89 H90 0.959 . S
C89 H91 0.960 . S
C89 H92 0.961 . S
H90 C89 0.959 . S
H91 C89 0.960 . S
H92 C89 0.961 . S
O93 Co68 1.967 . S
O93 C101 1.258 . S
O94 Co69 1.941 . S
O94 C101 1.266 . S
H95 C97 0.959 . S
H96 C97 0.961 . S
C97 C87 1.510 . S
C97 H95 0.959 . S
C97 H96 0.961 . S
C97 H98 0.960 . S
H98 C97 0.960 . S
H99 N79 0.862 . S
O100 Co68 1.920 . S
O100 C73 1.289 1_554 S
C101 O93 1.258 . S
C101 O94 1.266 . S
Co102 O105 1.970 . S
Co102 N119 1.989 . S
Co102 O127 1.967 . S
Co102 O134 1.920 . S
Co103 O106 1.966 . S
Co103 N112 2.022 1_556 S
Co103 N120 1.993 . S
Co103 O128 1.941 . S
C104 O105 1.258 . S
C104 O106 1.263 . S
O105 Co102 1.970 . S
O105 C104 1.258 . S
O106 Co103 1.966 . S
O106 C104 1.263 . S
C107 O108 1.235 . S
C107 O134 1.289 . S
O108 C107 1.235 . S
C109 C111 1.400 . S
C109 N112 1.351 . S
C109 C114 1.501 . S
C110 C111 1.387 . S
C110 N113 1.341 . S
C111 C109 1.400 . S
C111 C110 1.387 . S
N112 Co103 2.022 1_554 S
N112 C109 1.351 . S
N112 N113 1.365 . S
N113 C110 1.341 . S
N113 N112 1.365 . S
N113 H133 0.862 . S
C114 C109 1.501 . S
C114 H115 0.961 . S
C114 H116 0.961 . S
C114 H117 0.960 . S
H115 C114 0.961 . S
H116 C114 0.961 . S
H117 C114 0.960 . S
C118 N119 1.342 . S
C118 C122 1.401 . S
C118 C123 1.499 . S
N119 Co102 1.989 . S
N119 C118 1.342 . S
N119 N120 1.388 . S
N120 Co103 1.993 . S
N120 N119 1.388 . S
N120 C121 1.346 . S
C121 N120 1.346 . S
C121 C122 1.396 . S
C121 C131 1.510 1_556 S
C122 C118 1.401 . S
C122 C121 1.396 . S
C123 C118 1.499 . S
C123 H124 0.959 . S
C123 H125 0.960 . S
C123 H126 0.961 . S
H124 C123 0.959 . S
H125 C123 0.960 . S
H126 C123 0.961 . S
O127 Co102 1.967 . S
O127 C135 1.258 . S
O128 Co103 1.941 . S
O128 C135 1.266 . S
H129 C131 0.959 . S
H130 C131 0.961 . S
C131 C121 1.510 1_554 S
C131 H129 0.959 . S
C131 H130 0.961 . S
C131 H132 0.960 . S
H132 C131 0.960 . S
H133 N113 0.862 . S
O134 Co102 1.920 . S
O134 C107 1.289 . S
C135 O127 1.258 . S
C135 O128 1.266 . S
Co136 O139 1.970 . S
Co136 N153 1.989 . S
Co136 O161 1.967 . S
Co136 O168 1.920 . S
Co137 O140 1.966 . S
Co137 N146 2.022 . S
Co137 N154 1.993 . S
Co137 O162 1.941 . S
C138 O139 1.258 . S
C138 O140 1.263 . S
O139 Co136 1.970 . S
O139 C138 1.258 . S
O140 Co137 1.966 . S
O140 C138 1.263 . S
C141 O142 1.235 1_556 S
C141 O168 1.289 1_556 S
O142 C141 1.235 1_554 S
C143 C145 1.400 . S
C143 N146 1.351 . S
C143 C148 1.501 . S
C144 C145 1.387 . S
C144 N147 1.341 . S
C145 C143 1.400 . S
C145 C144 1.387 . S
N146 Co137 2.022 . S
N146 C143 1.351 . S
N146 N147 1.365 . S
N147 C144 1.341 . S
N147 N146 1.365 . S
N147 H167 0.862 . S
C148 C143 1.501 . S
C148 H149 0.961 . S
C148 H150 0.961 . S
C148 H151 0.960 . S
H149 C148 0.961 . S
H150 C148 0.961 . S
H151 C148 0.960 . S
C152 N153 1.342 . S
C152 C156 1.401 . S
C152 C157 1.499 . S
N153 Co136 1.989 . S
N153 C152 1.342 . S
N153 N154 1.388 . S
N154 Co137 1.993 . S
N154 N153 1.388 . S
N154 C155 1.346 . S
C155 N154 1.346 . S
C155 C156 1.396 . S
C155 C165 1.510 . S
C156 C152 1.401 . S
C156 C155 1.396 . S
C157 C152 1.499 . S
C157 H158 0.959 . S
C157 H159 0.960 . S
C157 H160 0.961 . S
H158 C157 0.959 . S
H159 C157 0.960 . S
H160 C157 0.961 . S
O161 Co136 1.967 . S
O161 C169 1.258 . S
O162 Co137 1.941 . S
O162 C169 1.266 . S
H163 C165 0.959 . S
H164 C165 0.961 . S
C165 C155 1.510 . S
C165 H163 0.959 . S
C165 H164 0.961 . S
C165 H166 0.960 . S
H166 C165 0.960 . S
H167 N147 0.862 . S
O168 Co136 1.920 . S
O168 C141 1.289 1_554 S
C169 O161 1.258 . S
C169 O162 1.266 . S
Co170 O173 1.970 . S
Co170 N187 1.989 . S
Co170 O195 1.967 . S
Co170 O202 1.920 . S
Co171 O174 1.966 . S
Co171 N180 2.022 1_556 S
Co171 N188 1.993 . S
Co171 O196 1.941 . S
C172 O173 1.258 . S
C172 O174 1.263 . S
O173 Co170 1.970 . S
O173 C172 1.258 . S
O174 Co171 1.966 . S
O174 C172 1.263 . S
C175 O176 1.235 . S
C175 O202 1.289 . S
O176 C175 1.235 . S
C177 C179 1.400 . S
C177 N180 1.351 . S
C177 C182 1.501 . S
C178 C179 1.387 . S
C178 N181 1.341 . S
C179 C177 1.400 . S
C179 C178 1.387 . S
N180 Co171 2.022 1_554 S
N180 C177 1.351 . S
N180 N181 1.365 . S
N181 C178 1.341 . S
N181 N180 1.365 . S
N181 H201 0.862 . S
C182 C177 1.501 . S
C182 H183 0.961 . S
C182 H184 0.961 . S
C182 H185 0.960 . S
H183 C182 0.961 . S
H184 C182 0.961 . S
H185 C182 0.960 . S
C186 N187 1.342 . S
C186 C190 1.401 . S
C186 C191 1.499 . S
N187 Co170 1.989 . S
N187 C186 1.342 . S
N187 N188 1.388 . S
N188 Co171 1.993 . S
N188 N187 1.388 . S
N188 C189 1.346 . S
C189 N188 1.346 . S
C189 C190 1.396 . S
C189 C199 1.510 1_556 S
C190 C186 1.401 . S
C190 C189 1.396 . S
C191 C186 1.499 . S
C191 H192 0.959 . S
C191 H193 0.960 . S
C191 H194 0.961 . S
H192 C191 0.959 . S
H193 C191 0.960 . S
H194 C191 0.961 . S
O195 Co170 1.967 . S
O195 C203 1.258 . S
O196 Co171 1.941 . S
O196 C203 1.266 . S
H197 C199 0.959 . S
H198 C199 0.961 . S
C199 C189 1.510 1_554 S
C199 H197 0.959 . S
C199 H198 0.961 . S
C199 H200 0.960 . S
H200 C199 0.960 . S
H201 N181 0.862 . S
O202 Co170 1.920 . S
O202 C175 1.289 . S
C203 O195 1.258 . S
C203 O196 1.266 . S
Co204 O207 1.970 . S
Co204 N221 1.989 . S
Co204 O229 1.967 . S
Co204 O236 1.920 . S
Co205 O208 1.966 . S
Co205 N214 2.022 1_554 S
Co205 N222 1.993 . S
Co205 O230 1.941 . S
C206 O207 1.258 . S
C206 O208 1.263 . S
O207 Co204 1.970 . S
O207 C206 1.258 . S
O208 Co205 1.966 . S
O208 C206 1.263 . S
C209 O210 1.235 . S
C209 O236 1.289 . S
O210 C209 1.235 . S
C211 C213 1.400 . S
C211 N214 1.351 . S
C211 C216 1.501 . S
C212 C213 1.387 . S
C212 N215 1.341 . S
C213 C211 1.400 . S
C213 C212 1.387 . S
N214 Co205 2.022 1_556 S
N214 C211 1.351 . S
N214 N215 1.365 . S
N215 C212 1.341 . S
N215 N214 1.365 . S
N215 H235 0.862 . S
C216 C211 1.501 . S
C216 H217 0.961 . S
C216 H218 0.961 . S
C216 H219 0.960 . S
H217 C216 0.961 . S
H218 C216 0.961 . S
H219 C216 0.960 . S
C220 N221 1.342 . S
C220 C224 1.401 . S
C220 C225 1.499 . S
N221 Co204 1.989 . S
N221 C220 1.342 . S
N221 N222 1.388 . S
N222 Co205 1.993 . S
N222 N221 1.388 . S
N222 C223 1.346 . S
C223 N222 1.346 . S
C223 C224 1.396 . S
C223 C233 1.510 1_554 S
C224 C220 1.401 . S
C224 C223 1.396 . S
C225 C220 1.499 . S
C225 H226 0.959 . S
C225 H227 0.960 . S
C225 H228 0.961 . S
H226 C225 0.959 . S
H227 C225 0.960 . S
H228 C225 0.961 . S
O229 Co204 1.967 . S
O229 C237 1.258 . S
O230 Co205 1.941 . S
O230 C237 1.266 . S
H231 C233 0.959 . S
H232 C233 0.961 . S
C233 C223 1.510 1_556 S
C233 H231 0.959 . S
C233 H232 0.961 . S
C233 H234 0.960 . S
H234 C233 0.960 . S
H235 N215 0.862 . S
O236 Co204 1.920 . S
O236 C209 1.289 . S
C237 O229 1.258 . S
C237 O230 1.266 . S
Co238 O241 1.970 . S
Co238 N255 1.989 . S
Co238 O263 1.967 . S
Co238 O270 1.920 . S
Co239 O242 1.966 . S
Co239 N248 2.022 . S
Co239 N256 1.993 . S
Co239 O264 1.941 . S
C240 O241 1.258 . S
C240 O242 1.263 . S
O241 Co238 1.970 . S
O241 C240 1.258 . S
O242 Co239 1.966 . S
O242 C240 1.263 . S
C243 O244 1.235 1_554 S
C243 O270 1.289 1_554 S
O244 C243 1.235 1_556 S
C245 C247 1.400 . S
C245 N248 1.351 . S
C245 C250 1.501 . S
C246 C247 1.387 . S
C246 N249 1.341 . S
C247 C245 1.400 . S
C247 C246 1.387 . S
N248 Co239 2.022 . S
N248 C245 1.351 . S
N248 N249 1.365 . S
N249 C246 1.341 . S
N249 N248 1.365 . S
N249 H269 0.862 . S
C250 C245 1.501 . S
C250 H251 0.961 . S
C250 H252 0.961 . S
C250 H253 0.960 . S
H251 C250 0.961 . S
H252 C250 0.961 . S
H253 C250 0.960 . S
C254 N255 1.342 . S
C254 C258 1.401 . S
C254 C259 1.499 . S
N255 Co238 1.989 . S
N255 C254 1.342 . S
N255 N256 1.388 . S
N256 Co239 1.993 . S
N256 N255 1.388 . S
N256 C257 1.346 . S
C257 N256 1.346 . S
C257 C258 1.396 . S
C257 C267 1.510 . S
C258 C254 1.401 . S
C258 C257 1.396 . S
C259 C254 1.499 . S
C259 H260 0.959 . S
C259 H261 0.960 . S
C259 H262 0.961 . S
H260 C259 0.959 . S
H261 C259 0.960 . S
H262 C259 0.961 . S
O263 Co238 1.967 . S
O263 C271 1.258 . S
O264 Co239 1.941 . S
O264 C271 1.266 . S
H265 C267 0.959 . S
H266 C267 0.961 . S
C267 C257 1.510 . S
C267 H265 0.959 . S
C267 H266 0.961 . S
C267 H268 0.960 . S
H268 C267 0.960 . S
H269 N249 0.862 . S
O270 Co238 1.920 . S
O270 C243 1.289 1_556 S
C271 O263 1.258 . S
C271 O264 1.266 . S
Co272 O275 1.970 . S
Co272 N289 1.989 . S
Co272 O297 1.967 . S
Co272 O304 1.920 . S
Co273 O276 1.966 . S
Co273 N282 2.022 1_554 S
Co273 N290 1.993 . S
Co273 O298 1.941 . S
C274 O275 1.258 . S
C274 O276 1.263 . S
O275 Co272 1.970 . S
O275 C274 1.258 . S
O276 Co273 1.966 . S
O276 C274 1.263 . S
C277 O278 1.235 . S
C277 O304 1.289 . S
O278 C277 1.235 . S
C279 C281 1.400 . S
C279 N282 1.351 . S
C279 C284 1.501 . S
C280 C281 1.387 . S
C280 N283 1.341 . S
C281 C279 1.400 . S
C281 C280 1.387 . S
N282 Co273 2.022 1_556 S
N282 C279 1.351 . S
N282 N283 1.365 . S
N283 C280 1.341 . S
N283 N282 1.365 . S
N283 H303 0.862 . S
C284 C279 1.501 . S
C284 H285 0.961 . S
C284 H286 0.961 . S
C284 H287 0.960 . S
H285 C284 0.961 . S
H286 C284 0.961 . S
H287 C284 0.960 . S
C288 N289 1.342 . S
C288 C292 1.401 . S
C288 C293 1.499 . S
N289 Co272 1.989 . S
N289 C288 1.342 . S
N289 N290 1.388 . S
N290 Co273 1.993 . S
N290 N289 1.388 . S
N290 C291 1.346 . S
C291 N290 1.346 . S
C291 C292 1.396 . S
C291 C301 1.510 1_554 S
C292 C288 1.401 . S
C292 C291 1.396 . S
C293 C288 1.499 . S
C293 H294 0.959 . S
C293 H295 0.960 . S
C293 H296 0.961 . S
H294 C293 0.959 . S
H295 C293 0.960 . S
H296 C293 0.961 . S
O297 Co272 1.967 . S
O297 C305 1.258 . S
O298 Co273 1.941 . S
O298 C305 1.266 . S
H299 C301 0.959 . S
H300 C301 0.961 . S
C301 C291 1.510 1_556 S
C301 H299 0.959 . S
C301 H300 0.961 . S
C301 H302 0.960 . S
H302 C301 0.960 . S
H303 N283 0.862 . S
O304 Co272 1.920 . S
O304 C277 1.289 . S
C305 O297 1.258 . S
C305 O298 1.266 . S
Co306 O309 1.970 . S
Co306 N323 1.989 . S
Co306 O331 1.967 . S
Co306 O338 1.920 . S
Co307 O310 1.966 . S
Co307 N316 2.022 . S
Co307 N324 1.993 . S
Co307 O332 1.941 . S
C308 O309 1.258 . S
C308 O310 1.263 . S
O309 Co306 1.970 . S
O309 C308 1.258 . S
O310 Co307 1.966 . S
O310 C308 1.263 . S
C311 O312 1.235 1_554 S
C311 O338 1.289 1_554 S
O312 C311 1.235 1_556 S
C313 C315 1.400 . S
C313 N316 1.351 . S
C313 C318 1.501 . S
C314 C315 1.387 . S
C314 N317 1.341 . S
C315 C313 1.400 . S
C315 C314 1.387 . S
N316 Co307 2.022 . S
N316 C313 1.351 . S
N316 N317 1.365 . S
N317 C314 1.341 . S
N317 N316 1.365 . S
N317 H337 0.862 . S
C318 C313 1.501 . S
C318 H319 0.961 . S
C318 H320 0.961 . S
C318 H321 0.960 . S
H319 C318 0.961 . S
H320 C318 0.961 . S
H321 C318 0.960 . S
C322 N323 1.342 . S
C322 C326 1.401 . S
C322 C327 1.499 . S
N323 Co306 1.989 . S
N323 C322 1.342 . S
N323 N324 1.388 . S
N324 Co307 1.993 . S
N324 N323 1.388 . S
N324 C325 1.346 . S
C325 N324 1.346 . S
C325 C326 1.396 . S
C325 C335 1.510 . S
C326 C322 1.401 . S
C326 C325 1.396 . S
C327 C322 1.499 . S
C327 H328 0.959 . S
C327 H329 0.960 . S
C327 H330 0.961 . S
H328 C327 0.959 . S
H329 C327 0.960 . S
H330 C327 0.961 . S
O331 Co306 1.967 . S
O331 C339 1.258 . S
O332 Co307 1.941 . S
O332 C339 1.266 . S
H333 C335 0.959 . S
H334 C335 0.961 . S
C335 C325 1.510 . S
C335 H333 0.959 . S
C335 H334 0.961 . S
C335 H336 0.960 . S
H336 C335 0.960 . S
H337 N317 0.862 . S
O338 Co306 1.920 . S
O338 C311 1.289 1_556 S
C339 O331 1.258 . S
C339 O332 1.266 . S
Co340 O343 1.970 . S
Co340 N357 1.989 . S
Co340 O365 1.967 . S
Co340 O372 1.920 . S
Co341 O344 1.966 . S
Co341 N350 2.022 1_554 S
Co341 N358 1.993 . S
Co341 O366 1.941 . S
C342 O343 1.258 . S
C342 O344 1.263 . S
O343 Co340 1.970 . S
O343 C342 1.258 . S
O344 Co341 1.966 . S
O344 C342 1.263 . S
C345 O346 1.235 . S
C345 O372 1.289 . S
O346 C345 1.235 . S
C347 C349 1.400 . S
C347 N350 1.351 . S
C347 C352 1.501 . S
C348 C349 1.387 . S
C348 N351 1.341 . S
C349 C347 1.400 . S
C349 C348 1.387 . S
N350 Co341 2.022 1_556 S
N350 C347 1.351 . S
N350 N351 1.365 . S
N351 C348 1.341 . S
N351 N350 1.365 . S
N351 H371 0.862 . S
C352 C347 1.501 . S
C352 H353 0.961 . S
C352 H354 0.961 . S
C352 H355 0.960 . S
H353 C352 0.961 . S
H354 C352 0.961 . S
H355 C352 0.960 . S
C356 N357 1.342 . S
C356 C360 1.401 . S
C356 C361 1.499 . S
N357 Co340 1.989 . S
N357 C356 1.342 . S
N357 N358 1.388 . S
N358 Co341 1.993 . S
N358 N357 1.388 . S
N358 C359 1.346 . S
C359 N358 1.346 . S
C359 C360 1.396 . S
C359 C369 1.510 1_554 S
C360 C356 1.401 . S
C360 C359 1.396 . S
C361 C356 1.499 . S
C361 H362 0.959 . S
C361 H363 0.960 . S
C361 H364 0.961 . S
H362 C361 0.959 . S
H363 C361 0.960 . S
H364 C361 0.961 . S
O365 Co340 1.967 . S
O365 C373 1.258 . S
O366 Co341 1.941 . S
O366 C373 1.266 . S
H367 C369 0.959 . S
H368 C369 0.961 . S
C369 C359 1.510 1_556 S
C369 H367 0.959 . S
C369 H368 0.961 . S
C369 H370 0.960 . S
H370 C369 0.960 . S
H371 N351 0.862 . S
O372 Co340 1.920 . S
O372 C345 1.289 . S
C373 O365 1.258 . S
C373 O366 1.266 . S
Co374 O377 1.970 . S
Co374 N391 1.989 . S
Co374 O399 1.967 . S
Co374 O406 1.920 . S
Co375 O378 1.966 . S
Co375 N384 2.022 . S
Co375 N392 1.993 . S
Co375 O400 1.941 . S
C376 O377 1.258 . S
C376 O378 1.263 . S
O377 Co374 1.970 . S
O377 C376 1.258 . S
O378 Co375 1.966 . S
O378 C376 1.263 . S
C379 O380 1.235 1_554 S
C379 O406 1.289 1_554 S
O380 C379 1.235 1_556 S
C381 C383 1.400 . S
C381 N384 1.351 . S
C381 C386 1.501 . S
C382 C383 1.387 . S
C382 N385 1.341 . S
C383 C381 1.400 . S
C383 C382 1.387 . S
N384 Co375 2.022 . S
N384 C381 1.351 . S
N384 N385 1.365 . S
N385 C382 1.341 . S
N385 N384 1.365 . S
N385 H405 0.862 . S
C386 C381 1.501 . S
C386 H387 0.961 . S
C386 H388 0.961 . S
C386 H389 0.960 . S
H387 C386 0.961 . S
H388 C386 0.961 . S
H389 C386 0.960 . S
C390 N391 1.342 . S
C390 C394 1.401 . S
C390 C395 1.499 . S
N391 Co374 1.989 . S
N391 C390 1.342 . S
N391 N392 1.388 . S
N392 Co375 1.993 . S
N392 N391 1.388 . S
N392 C393 1.346 . S
C393 N392 1.346 . S
C393 C394 1.396 . S
C393 C403 1.510 . S
C394 C390 1.401 . S
C394 C393 1.396 . S
C395 C390 1.499 . S
C395 H396 0.959 . S
C395 H397 0.960 . S
C395 H398 0.961 . S
H396 C395 0.959 . S
H397 C395 0.960 . S
H398 C395 0.961 . S
O399 Co374 1.967 . S
O399 C407 1.258 . S
O400 Co375 1.941 . S
O400 C407 1.266 . S
H401 C403 0.959 . S
H402 C403 0.961 . S
C403 C393 1.510 . S
C403 H401 0.959 . S
C403 H402 0.961 . S
C403 H404 0.960 . S
H404 C403 0.960 . S
H405 N385 0.862 . S
O406 Co374 1.920 . S
O406 C379 1.289 1_556 S
C407 O399 1.258 . S
C407 O400 1.266 . S
C2 C376 2.589 1_455 S
C36 C206 2.589 1_546 S
C240 C70 2.589 . S
C274 C104 2.589 1_454 S
C308 C138 2.589 1_545 S
C172 C342 2.589 1_556 S
C305 C33 1.823 . S
C339 C67 1.823 . S
C101 C373 1.823 . S
C135 C407 1.823 . S
C237 C169 1.823 . S
C203 C271 1.823 . S
C9 C5 2.658 . S
C39 C43 2.658 . S
C77 C73 2.658 . S
C107 C111 2.658 . S
C145 C141 2.658 . S
C175 C179 2.658 . S
C209 C213 2.658 . S
C247 C243 2.658 . S
C277 C281 2.658 . S
C311 C315 2.658 . S
C349 C345 2.658 . S
C383 C379 2.658 . S
C20 C360 1.685 . S
C394 C54 1.685 . S
C224 C88 1.685 . S
C122 C258 1.685 . S
C156 C292 1.685 . S
C190 C326 1.685 . S
