# Generated by pormake.
# Topology unf, (4)-cn, num edge types: 1
# Building blocks:
#     Node 0, Type 0, BuildingBlock: GALJAG_clean_sbu_0, # of connection points: 4
#     Node 1, Type 0, BuildingBlock: GALJAG_clean_sbu_0, # of connection points: 4
#     Node 2, Type 0, BuildingBlock: GALJAG_clean_sbu_0, # of connection points: 4
#     Node 3, Type 0, BuildingBlock: GALJAG_clean_sbu_0, # of connection points: 4
#     Node 4, Type 0, BuildingBlock: GALJAG_clean_sbu_0, # of connection points: 4
#     Node 5, Type 0, BuildingBlock: GALJAG_clean_sbu_0, # of connection points: 4
#     Node 6, Type 0, BuildingBlock: GALJAG_clean_sbu_0, # of connection points: 4
#     Node 7, Type 0, BuildingBlock: GALJAG_clean_sbu_0, # of connection points: 4
#     Node 8, Type 0, BuildingBlock: GALJAG_clean_sbu_0, # of connection points: 4
#     Node 9, Type 0, BuildingBlock: GALJAG_clean_sbu_0, # of connection points: 4
#     Node 10, Type 0, BuildingBlock: GALJAG_clean_sbu_0, # of connection points: 4
#     Node 11, Type 0, BuildingBlock: GALJAG_clean_sbu_0, # of connection points: 4
#     Edge 12, Type (0, 0), BuildingBlock: OJICUG_clean_linker_0, # of connection points: 2
#     Edge 13, Type (0, 0), BuildingBlock: OJICUG_clean_linker_0, # of connection points: 2
#     Edge 14, Type (0, 0), BuildingBlock: OJICUG_clean_linker_0, # of connection points: 2
#     Edge 15, Type (0, 0), BuildingBlock: OJICUG_clean_linker_0, # of connection points: 2
#     Edge 16, Type (0, 0), BuildingBlock: OJICUG_clean_linker_0, # of connection points: 2
#     Edge 17, Type (0, 0), BuildingBlock: OJICUG_clean_linker_0, # of connection points: 2
#     Edge 18, Type (0, 0), BuildingBlock: OJICUG_clean_linker_0, # of connection points: 2
#     Edge 19, Type (0, 0), BuildingBlock: OJICUG_clean_linker_0, # of connection points: 2
#     Edge 20, Type (0, 0), BuildingBlock: OJICUG_clean_linker_0, # of connection points: 2
#     Edge 21, Type (0, 0), BuildingBlock: OJICUG_clean_linker_0, # of connection points: 2
#     Edge 22, Type (0, 0), BuildingBlock: OJICUG_clean_linker_0, # of connection points: 2
#     Edge 23, Type (0, 0), BuildingBlock: OJICUG_clean_linker_0, # of connection points: 2
#     Edge 24, Type (0, 0), BuildingBlock: OJICUG_clean_linker_0, # of connection points: 2
#     Edge 25, Type (0, 0), BuildingBlock: OJICUG_clean_linker_0, # of connection points: 2
#     Edge 26, Type (0, 0), BuildingBlock: OJICUG_clean_linker_0, # of connection points: 2
#     Edge 27, Type (0, 0), BuildingBlock: OJICUG_clean_linker_0, # of connection points: 2
#     Edge 28, Type (0, 0), BuildingBlock: OJICUG_clean_linker_0, # of connection points: 2
#     Edge 29, Type (0, 0), BuildingBlock: OJICUG_clean_linker_0, # of connection points: 2
#     Edge 30, Type (0, 0), BuildingBlock: OJICUG_clean_linker_0, # of connection points: 2
#     Edge 31, Type (0, 0), BuildingBlock: OJICUG_clean_linker_0, # of connection points: 2
#     Edge 32, Type (0, 0), BuildingBlock: OJICUG_clean_linker_0, # of connection points: 2
#     Edge 33, Type (0, 0), BuildingBlock: OJICUG_clean_linker_0, # of connection points: 2
#     Edge 34, Type (0, 0), BuildingBlock: OJICUG_clean_linker_0, # of connection points: 2
#     Edge 35, Type (0, 0), BuildingBlock: OJICUG_clean_linker_0, # of connection points: 2
# Relax obj value: 0.104
# Max RMSD: 0.121
# Mean RMSD: 0.121
data_MOF--net-unf--node1-GALJAG_clean_sbu_0--edge1-OJICUG_clean_linker_0
_symmetry_space_group_name_H-M    P1
_symmetry_Int_Tables_number       1
_symmetry_cell_setting            triclinic
loop_
_symmetry_equiv_pos_as_xyz
'x, y, z'
_cell_length_a     29.203645
_cell_length_b     29.214044
_cell_length_c     25.470377
_cell_angle_alpha  90.239246
_cell_angle_beta   90.504433
_cell_angle_gamma 119.76708
loop_
_atom_site_label
_atom_site_type_symbol
_atom_site_fract_x
_atom_site_fract_y
_atom_site_fract_z
_atom_type_partial_charge
In0 In 0.06109 0.36164 0.07923 0.0
O1 O 0.06995 0.32804 0.15675 0.0
O2 O 0.12484 0.40817 0.14285 0.0
C3 C 0.96438 0.27569 0.07805 0.0
C4 C 0.12507 0.35145 0.01041 0.0
C5 C 0.03575 0.43273 0.04125 0.0
O6 O 0.97251 0.31965 0.09566 0.0
O7 O 0.00512 0.2751 0.06313 0.0
O8 O 0.04822 0.40564 0.01231 0.0
O9 O 0.03801 0.42561 0.08989 0.0
C10 C 0.11034 0.36918 0.17272 0.0
O11 O 0.13919 0.39393 0.03541 0.0
O12 O 0.07875 0.31533 0.01929 0.0
In13 In 0.62776 0.70523 0.06317 0.0
O14 O 0.66198 0.753 0.13867 0.0
O15 O 0.58154 0.72653 0.12209 0.0
C16 C 0.71054 0.68875 0.06714 0.0
C17 C 0.63677 0.77361 0.98762 0.0
C18 C 0.55577 0.60636 0.0332 0.0
O19 O 0.66533 0.6548 0.0824 0.0
O20 O 0.7144 0.7317 0.05245 0.0
O21 O 0.58246 0.64226 0.00085 0.0
O22 O 0.56334 0.62107 0.08077 0.0
C23 C 0.62062 0.753 0.15209 0.0
O24 O 0.59387 0.74503 0.01084 0.0
O25 O 0.67414 0.76628 0.0014 0.0
In26 In 0.29236 0.92579 0.08187 0.0
O27 O 0.25589 0.86691 0.01435 0.0
O28 O 0.21757 0.90934 0.03814 0.0
C29 C 0.38611 0.95067 0.04024 0.0
C30 C 0.25453 0.86084 0.16567 0.0
C31 C 0.30891 0.02423 0.09736 0.0
O32 O 0.35044 0.9539 0.01519 0.0
O33 O 0.37355 0.93202 0.08592 0.0
O34 O 0.34418 0.01206 0.10502 0.0
O35 O 0.26418 0.98596 0.08504 0.0
C36 C 0.21734 0.8747 0.00807 0.0
O37 O 0.27893 0.91034 0.17052 0.0
O38 O 0.25144 0.84444 0.11941 0.0
In39 In 0.62395 0.92502 0.42128 0.0
O40 O 0.58449 0.83982 0.44764 0.0
O41 O 0.65392 0.89562 0.4886 0.0
C42 C 0.55464 0.95217 0.4598 0.0
C43 C 0.62112 0.88008 0.32718 0.0
C44 C 0.71286 0.01932 0.42443 0.0
O45 O 0.58084 0.93818 0.48843 0.0
O46 O 0.56174 0.95059 0.41111 0.0
O47 O 0.6717 0.01238 0.40071 0.0
O48 O 0.70938 0.97845 0.44478 0.0
C49 C 0.6185 0.84805 0.48284 0.0
O50 O 0.6632 0.90986 0.352 0.0
O51 O 0.57993 0.87516 0.34823 0.0
In52 In 0.06302 0.69454 0.41921 0.0
O53 O 0.07811 0.70895 0.33064 0.0
O54 O 0.14427 0.73592 0.38157 0.0
C55 C 0.96621 0.68269 0.40505 0.0
C56 C 0.11527 0.76722 0.49436 0.0
C57 C 0.03511 0.59917 0.45911 0.0
O58 O 0.97661 0.64663 0.39468 0.0
O59 O 0.00556 0.72597 0.41908 0.0
O60 O 0.03326 0.63511 0.48482 0.0
O61 O 0.05396 0.61215 0.4136 0.0
C62 C 0.12765 0.73327 0.33539 0.0
O63 O 0.12339 0.72918 0.48593 0.0
O64 O 0.08002 0.76768 0.4656 0.0
In65 In 0.27893 0.35443 0.43968 0.0
O66 O 0.2238 0.31995 0.36891 0.0
O67 O 0.26639 0.40315 0.37556 0.0
C68 C 0.29225 0.26977 0.43514 0.0
C69 C 0.21221 0.34946 0.51455 0.0
C70 C 0.37809 0.42198 0.47295 0.0
O71 O 0.32566 0.3139 0.41712 0.0
O72 O 0.25109 0.26776 0.45279 0.0
O73 O 0.33982 0.40046 0.504 0.0
O74 O 0.36572 0.41214 0.42491 0.0
C75 C 0.23226 0.36328 0.35039 0.0
O76 O 0.23947 0.39079 0.48836 0.0
O77 O 0.22007 0.31176 0.50397 0.0
In78 In 0.92724 0.63108 0.91633 0.0
O79 O 0.8512 0.59951 0.96372 0.0
O80 O 0.9097 0.6801 0.97288 0.0
C81 C 0.95448 0.56165 0.95515 0.0
C82 C 0.875 0.61796 0.82349 0.0
C83 C 0.02323 0.71821 0.91686 0.0
O84 O 0.94135 0.58838 0.98386 0.0
O85 O 0.95204 0.56839 0.90646 0.0
O86 O 0.01605 0.67411 0.90081 0.0
O87 O 0.98185 0.71839 0.93014 0.0
C88 C 0.86468 0.64353 0.98522 0.0
O89 O 0.91678 0.65948 0.83605 0.0
O90 O 0.86072 0.58149 0.85646 0.0
In91 In 0.36182 0.28882 0.93957 0.0
O92 O 0.32568 0.23213 0.87033 0.0
O93 O 0.40897 0.27282 0.87676 0.0
C94 C 0.27962 0.30605 0.93112 0.0
C95 C 0.35364 0.22225 0.01663 0.0
C96 C 0.43371 0.38746 0.97004 0.0
O97 O 0.32535 0.33953 0.91678 0.0
O98 O 0.27499 0.26318 0.94703 0.0
O99 O 0.40689 0.35146 0.00228 0.0
O100 O 0.42633 0.37291 0.92241 0.0
C101 C 0.36847 0.23868 0.85236 0.0
O102 O 0.39515 0.24742 0.99023 0.0
O103 O 0.31759 0.2325 0.00552 0.0
In104 In 0.69123 0.0676 0.91915 0.0
O105 O 0.70346 0.08233 0.83033 0.0
O106 O 0.73079 0.14859 0.88096 0.0
C107 C 0.67619 0.96953 0.90488 0.0
C108 C 0.76748 0.11934 0.99164 0.0
C109 C 0.5976 0.04269 0.96112 0.0
O110 O 0.63992 0.98052 0.89843 0.0
O111 O 0.72092 0.0087 0.91527 0.0
O112 O 0.6337 0.04045 0.98643 0.0
O113 O 0.60967 0.06032 0.91505 0.0
C114 C 0.72737 0.13186 0.83477 0.0
O115 O 0.72903 0.12738 0.98591 0.0
O116 O 0.76641 0.08415 0.96183 0.0
In117 In 0.35562 0.05714 0.58758 0.0
O118 O 0.38472 0.13178 0.53831 0.0
O119 O 0.30387 0.07296 0.53271 0.0
C120 C 0.42624 0.03244 0.54788 0.0
C121 C 0.36859 0.10907 0.68025 0.0
C122 C 0.27034 0.96 0.5878 0.0
O123 O 0.39818 0.04435 0.51953 0.0
O124 O 0.4202 0.03486 0.59671 0.0
O125 O 0.31541 0.96826 0.60196 0.0
O126 O 0.26836 0.00084 0.57599 0.0
C127 C 0.33977 0.11759 0.51849 0.0
O128 O 0.32806 0.0661 0.66851 0.0
O129 O 0.40447 0.1248 0.64655 0.0
In130 In 0.91829 0.29442 0.58057 0.0
O131 O 0.86092 0.25531 0.51208 0.0
O132 O 0.90349 0.21869 0.54079 0.0
C133 C 0.9411 0.38703 0.53731 0.0
C134 C 0.85299 0.25813 0.66398 0.0
C135 C 0.01716 0.31199 0.59657 0.0
O136 O 0.94417 0.35123 0.51252 0.0
O137 O 0.92356 0.37503 0.5834 0.0
O138 O 0.00538 0.3479 0.60025 0.0
O139 O 0.97843 0.26653 0.58811 0.0
C140 C 0.86925 0.21688 0.50891 0.0
O141 O 0.90249 0.28356 0.66926 0.0
O142 O 0.83673 0.25339 0.61737 0.0
In143 In 0.69343 0.61588 0.56048 0.0
O144 O 0.75182 0.65497 0.62789 0.0
O145 O 0.70943 0.57132 0.6262 0.0
C146 C 0.66253 0.68783 0.54894 0.0
C147 C 0.76844 0.63557 0.489 0.0
C148 C 0.59507 0.53566 0.54368 0.0
O149 O 0.68191 0.68332 0.59187 0.0
O150 O 0.66037 0.65748 0.51258 0.0
O151 O 0.63236 0.54682 0.51233 0.0
O152 O 0.60854 0.56188 0.58618 0.0
C153 C 0.74465 0.61282 0.6485 0.0
O154 O 0.73704 0.58956 0.50468 0.0
O155 O 0.76137 0.6711 0.50882 0.0
C156 C 0.14768 0.28984 0.96507 0.0
C157 C 0.16171 0.34179 0.97916 0.0
H158 H 0.17456 0.23777 0.93837 0.0
C159 C 0.21281 0.38286 0.96863 0.0
H160 H 0.10845 0.25738 0.97245 0.0
C161 C 0.25041 0.37162 0.94803 0.0
C162 C 0.23753 0.3191 0.93867 0.0
H163 H 0.2245 0.42327 0.97882 0.0
H164 H 0.29045 0.4036 0.94329 0.0
C165 C 0.18544 0.27854 0.94548 0.0
C166 C 0.60311 0.82634 0.94108 0.0
C167 C 0.6452 0.81793 0.95381 0.0
H168 H 0.58001 0.88116 0.91385 0.0
C169 C 0.69674 0.8563 0.94037 0.0
H170 H 0.56295 0.79722 0.95057 0.0
C171 C 0.7066 0.90454 0.9198 0.0
C172 C 0.665 0.91486 0.91174 0.0
H173 H 0.72996 0.85071 0.94932 0.0
H174 H 0.74709 0.93495 0.91356 0.0
C175 C 0.61292 0.87435 0.91985 0.0
C176 C 0.128 0.84845 0.97191 0.0
C177 C 0.1717 0.84068 0.974 0.0
H178 H 0.04659 0.81579 0.95107 0.0
C179 C 0.16855 0.79628 0.94882 0.0
H180 H 0.12945 0.88256 0.99055 0.0
C181 C 0.12098 0.75794 0.9261 0.0
C182 C 0.07597 0.76353 0.92829 0.0
H183 H 0.20179 0.78948 0.94953 0.0
H184 H 0.11861 0.72243 0.91003 0.0
C185 C 0.08055 0.81021 0.94923 0.0
C186 C 0.60517 0.71487 0.50246 0.0
C187 C 0.64481 0.72623 0.54015 0.0
H188 H 0.56448 0.7444 0.45603 0.0
C189 C 0.67031 0.77591 0.5648 0.0
H190 H 0.58457 0.67651 0.48339 0.0
C191 C 0.65939 0.81522 0.54853 0.0
C192 C 0.62208 0.80477 0.50827 0.0
H193 H 0.70098 0.78536 0.59403 0.0
H194 H 0.68189 0.85438 0.56557 0.0
C195 C 0.59347 0.75363 0.48706 0.0
C196 C 0.19523 0.8157 0.55194 0.0
C197 C 0.14928 0.81179 0.52946 0.0
H198 H 0.26996 0.86624 0.58909 0.0
C199 C 0.13969 0.85409 0.53511 0.0
H200 H 0.20342 0.78351 0.54845 0.0
C201 C 0.17758 0.90124 0.55843 0.0
C202 C 0.22574 0.90689 0.57645 0.0
H203 H 0.10432 0.85195 0.51869 0.0
H204 H 0.17052 0.9343 0.55925 0.0
C205 C 0.23325 0.863 0.57531 0.0
C206 C 0.08325 0.28248 0.58571 0.0
C207 C 0.07205 0.32379 0.59022 0.0
H208 H 0.13749 0.25863 0.55904 0.0
C209 C 0.11163 0.37547 0.5788 0.0
H210 H 0.05356 0.24234 0.59457 0.0
C211 C 0.15944 0.38475 0.55767 0.0
C212 C 0.16856 0.34257 0.54838 0.0
H213 H 0.10412 0.40814 0.58204 0.0
H214 H 0.18772 0.4243 0.54549 0.0
C215 C 0.13131 0.29186 0.56527 0.0
C216 C 0.80427 0.71727 0.04844 0.0
C217 C 0.75291 0.67639 0.05803 0.0
H218 H 0.88042 0.73862 0.01888 0.0
C219 C 0.74079 0.62381 0.05071 0.0
H220 H 0.81462 0.7581 0.05398 0.0
C221 C 0.77823 0.61258 0.02968 0.0
C222 C 0.82845 0.65376 0.01653 0.0
H223 H 0.70134 0.59155 0.05767 0.0
H224 H 0.76702 0.57193 0.0213 0.0
C225 C 0.84186 0.70604 0.02829 0.0
C226 C 0.29237 0.1404 0.06428 0.0
C227 C 0.34423 0.17767 0.05051 0.0
H228 H 0.24033 0.06187 0.09046 0.0
C229 C 0.38534 0.16754 0.06242 0.0
H230 H 0.25988 0.14731 0.05587 0.0
C231 C 0.37417 0.11892 0.08313 0.0
C232 C 0.32165 0.07946 0.09134 0.0
H233 H 0.4257 0.19577 0.05261 0.0
H234 H 0.40629 0.11079 0.08849 0.0
C235 C 0.28111 0.09147 0.08413 0.0
C236 C 0.9055 0.18353 0.04714 0.0
C237 C 0.91117 0.23081 0.06759 0.0
H238 H 0.85498 0.11057 0.0076 0.0
C239 C 0.86663 0.23714 0.07061 0.0
H240 H 0.93909 0.17737 0.04474 0.0
C241 C 0.81833 0.19879 0.04919 0.0
C242 C 0.81398 0.15363 0.02456 0.0
H243 H 0.86988 0.27316 0.08635 0.0
H244 H 0.7854 0.20609 0.04903 0.0
C245 C 0.85732 0.14525 0.02584 0.0
C246 C 0.27541 0.13961 0.47797 0.0
C247 C 0.32813 0.15273 0.48682 0.0
H248 H 0.22265 0.16684 0.45418 0.0
C249 C 0.36883 0.20184 0.47027 0.0
H250 H 0.24318 0.10187 0.49006 0.0
C251 C 0.35694 0.23871 0.44874 0.0
C252 C 0.30425 0.22716 0.44438 0.0
H253 H 0.40978 0.21275 0.47634 0.0
H254 H 0.38906 0.27748 0.43916 0.0
C255 C 0.26358 0.17671 0.45736 0.0
C256 C 0.84188 0.12497 0.48103 0.0
C257 C 0.83585 0.16959 0.4767 0.0
H258 H 0.80752 0.04208 0.46714 0.0
C259 C 0.79332 0.16602 0.44715 0.0
H260 H 0.87452 0.12664 0.5032 0.0
C261 C 0.75499 0.11751 0.42621 0.0
C262 C 0.7586 0.07195 0.43483 0.0
H263 H 0.78791 0.19992 0.4429 0.0
H264 H 0.72086 0.1151 0.40643 0.0
C265 C 0.80349 0.07652 0.4604 0.0
C266 C 0.90217 0.71239 0.42764 0.0
C267 C 0.91167 0.67164 0.41249 0.0
H268 H 0.84858 0.73275 0.46325 0.0
C269 C 0.87023 0.61915 0.41428 0.0
H270 H 0.93332 0.7532 0.4264 0.0
C271 C 0.8219 0.60736 0.43605 0.0
C272 C 0.81417 0.64791 0.45578 0.0
H273 H 0.87637 0.5869 0.40272 0.0
H274 H 0.79184 0.56641 0.44029 0.0
C275 C 0.85369 0.70063 0.44891 0.0
C276 C 0.21513 0.41425 0.28073 0.0
C277 C 0.2017 0.36611 0.30502 0.0
H278 H 0.19673 0.45319 0.21948 0.0
C279 C 0.15722 0.3199 0.28659 0.0
H280 H 0.24907 0.45054 0.29429 0.0
C281 C 0.12696 0.32154 0.24474 0.0
C282 C 0.14068 0.36935 0.21973 0.0
H283 H 0.14549 0.28224 0.30471 0.0
H284 H 0.0932 0.28498 0.23139 0.0
C285 C 0.18507 0.4158 0.23815 0.0
C286 C 0.66696 0.81949 0.22342 0.0
C287 C 0.61971 0.78488 0.19698 0.0
H288 H 0.70446 0.87721 0.28431 0.0
C289 C 0.57272 0.78305 0.21247 0.0
H290 H 0.70391 0.8222 0.21218 0.0
C291 C 0.57301 0.81477 0.25412 0.0
C292 C 0.62039 0.84921 0.28061 0.0
H293 H 0.53575 0.75699 0.19256 0.0
H294 H 0.53617 0.81202 0.26585 0.0
C295 C 0.66733 0.85137 0.26455 0.0
C296 C 0.17931 0.77726 0.19855 0.0
C297 C 0.22585 0.82512 0.20912 0.0
H298 H 0.11096 0.71089 0.23055 0.0
C299 C 0.24185 0.84023 0.26141 0.0
H300 H 0.16593 0.76491 0.15849 0.0
C301 C 0.21118 0.80856 0.3025 0.0
C302 C 0.16319 0.76217 0.29193 0.0
H303 H 0.27753 0.87695 0.2705 0.0
H304 H 0.22375 0.82171 0.34257 0.0
C305 C 0.14779 0.74645 0.23964 0.0
C306 C 0.8561 0.66069 0.74821 0.0
C307 C 0.8428 0.61489 0.7769 0.0
H308 H 0.83515 0.69595 0.68601 0.0
C309 C 0.79688 0.56772 0.76274 0.0
H310 H 0.89104 0.69772 0.75823 0.0
C311 C 0.76478 0.56663 0.72085 0.0
C312 C 0.77767 0.61286 0.693 0.0
H313 H 0.78551 0.53184 0.7843 0.0
H314 H 0.72962 0.52985 0.7107 0.0
C315 C 0.82379 0.65976 0.70703 0.0
C316 C 0.32388 0.15896 0.79476 0.0
C317 C 0.36999 0.20582 0.8088 0.0
H318 H 0.2878 0.09124 0.74429 0.0
C319 C 0.41685 0.21959 0.78188 0.0
H320 H 0.28729 0.14692 0.81517 0.0
C321 C 0.41704 0.18767 0.74063 0.0
C322 C 0.37062 0.14101 0.72641 0.0
H323 H 0.45303 0.25536 0.79213 0.0
H324 H 0.45329 0.19974 0.71958 0.0
C325 C 0.32429 0.12676 0.75439 0.0
C326 C 0.73956 0.15128 0.73879 0.0
C327 C 0.7553 0.16738 0.79094 0.0
H328 H 0.75766 0.16866 0.65748 0.0
C329 C 0.80108 0.21604 0.80104 0.0
H330 H 0.70446 0.11395 0.73004 0.0
C331 C 0.83228 0.24663 0.75968 0.0
C332 C 0.81731 0.22983 0.70755 0.0
H333 H 0.81424 0.2292 0.84098 0.0
H334 H 0.86865 0.28279 0.76846 0.0
C335 C 0.7699 0.18268 0.6974 0.0
C336 C 0.01241 0.47109 0.96477 0.0
C337 C 0.01632 0.46693 0.01943 0.0
H338 H 0.98942 0.5039 0.90159 0.0
C339 C -0.00085 0.49368 0.05274 0.0
H340 H 0.02508 0.45073 0.93805 0.0
C341 C 0.97844 0.52389 0.0318 0.0
C342 C 0.97444 0.52796 0.97714 0.0
H343 H 0.00139 0.49099 0.09499 0.0
H344 H 0.96571 0.54422 0.05849 0.0
C345 C -0.00829 0.50129 0.94384 0.0
C346 C 0.51952 0.53587 0.96383 0.0
C347 C 0.52303 0.55053 0.01697 0.0
H348 H 0.48914 0.47273 0.90738 0.0
C349 C 0.49798 0.51102 0.05469 0.0
H350 H 0.53876 0.56541 0.93389 0.0
C351 C 0.46995 0.45791 0.03953 0.0
C352 C 0.46644 0.44326 0.98638 0.0
H353 H 0.50036 0.52108 0.09598 0.0
H354 H 0.45069 0.42836 0.06945 0.0
C355 C 0.4915 0.48277 0.94868 0.0
C356 C 0.48035 0.97353 0.05042 0.0
C357 C 0.43985 0.97249 0.01948 0.0
H358 H 0.56232 -0.00264 0.05641 0.0
C359 C 0.45186 -0.00414 0.96965 0.0
H360 H 0.47231 0.95623 0.08914 0.0
C361 C 0.5034 0.0198 0.95107 0.0
C362 C 0.5439 0.02085 0.982 0.0
H363 H 0.42148 -0.00399 0.94506 0.0
H364 H 0.51142 0.0371 0.91235 0.0
C365 C 0.53192 -0.0025 0.03185 0.0
C366 C 0.49406 0.98934 0.44921 0.0
C367 C 0.52108 0.97196 0.4821 0.0
H368 H 0.44323 0.02253 0.44429 0.0
C369 C 0.51751 0.97562 0.53683 0.0
H370 H 0.4963 0.98728 0.40691 0.0
C371 C 0.48746 -0.00387 0.55826 0.0
C372 C 0.46031 0.01335 0.52539 0.0
H373 H 0.53813 0.96281 0.56323 0.0
H374 H 0.48519 -0.0019 0.60056 0.0
C375 C 0.46393 0.00978 0.47065 0.0
C376 C 0.98601 0.4528 0.46642 0.0
C377 C 0.96262 0.44066 0.51619 0.0
H378 H 0.02801 0.51274 0.40951 0.0
C379 C 0.96383 0.48109 0.54713 0.0
H380 H 0.986 0.42244 0.44184 0.0
C381 C 0.98831 0.53277 0.52882 0.0
C382 C 0.01203 0.54501 0.47921 0.0
H383 H 0.94648 0.47297 0.58578 0.0
H384 H 0.98847 0.56313 0.55352 0.0
C385 C 0.01049 0.50452 0.44808 0.0
C386 C 0.47444 0.46122 0.45686 0.0
C387 C 0.43346 0.45105 0.49158 0.0
H388 H 0.55747 0.49437 0.44658 0.0
C389 C 0.44576 0.46584 0.54466 0.0
H390 H 0.46612 0.44956 0.4159 0.0
C391 C 0.49828 0.49161 0.56234 0.0
C392 C 0.53929 0.50229 0.52739 0.0
H393 H 0.41486 0.45798 0.57241 0.0
H394 H 0.50682 0.50395 0.60311 0.0
C395 C 0.52673 0.48625 0.47463 0.0
loop_
_geom_bond_atom_site_label_1
_geom_bond_atom_site_label_2
_geom_bond_distance
_geom_bond_site_symmetry_2
_ccdc_geom_bond_type
In0 O1 2.294 . S
In0 O2 2.326 . S
In0 O6 2.266 . S
In0 O7 2.326 1_554 S
In0 O8 2.266 . S
In0 O9 2.326 . S
In0 O11 2.294 . S
In0 O12 2.326 . S
O1 In0 2.294 . S
O1 C10 1.240 . S
O2 In0 2.326 . S
O2 C10 1.252 . S
C3 O6 1.252 1_655 S
C3 O7 1.260 1_654 S
C4 O11 1.240 . S
C4 O12 1.252 . S
C5 O8 1.252 . S
C5 O9 1.260 . S
O6 In0 2.266 . S
O6 C3 1.252 1_455 S
O7 In0 2.326 1_556 S
O7 C3 1.260 1_456 S
O8 In0 2.266 . S
O8 C5 1.252 . S
O9 In0 2.326 . S
O9 C5 1.260 . S
C10 O1 1.240 . S
C10 O2 1.252 . S
O11 In0 2.294 . S
O11 C4 1.240 . S
O12 In0 2.326 . S
O12 C4 1.252 . S
In13 O14 2.294 . S
In13 O15 2.326 . S
In13 O19 2.266 . S
In13 O20 2.326 1_554 S
In13 O21 2.266 . S
In13 O22 2.326 . S
In13 O24 2.294 . S
In13 O25 2.326 . S
O14 In13 2.294 . S
O14 C23 1.240 . S
O15 In13 2.326 . S
O15 C23 1.252 . S
C16 O19 1.252 . S
C16 O20 1.260 1_554 S
C17 O24 1.240 . S
C17 O25 1.252 . S
C18 O21 1.252 . S
C18 O22 1.260 . S
O19 In13 2.266 . S
O19 C16 1.252 . S
O20 In13 2.326 1_556 S
O20 C16 1.260 1_556 S
O21 In13 2.266 . S
O21 C18 1.252 . S
O22 In13 2.326 . S
O22 C18 1.260 . S
C23 O14 1.240 . S
C23 O15 1.252 . S
O24 In13 2.294 . S
O24 C17 1.240 . S
O25 In13 2.326 . S
O25 C17 1.252 . S
In26 O27 2.294 . S
In26 O28 2.326 . S
In26 O32 2.266 . S
In26 O33 2.326 . S
In26 O34 2.266 . S
In26 O35 2.326 1_554 S
In26 O37 2.294 . S
In26 O38 2.326 . S
O27 In26 2.294 . S
O27 C36 1.240 . S
O28 In26 2.326 . S
O28 C36 1.252 . S
C29 O32 1.252 . S
C29 O33 1.260 . S
C30 O37 1.240 . S
C30 O38 1.252 . S
C31 O34 1.252 1_545 S
C31 O35 1.260 1_544 S
O32 In26 2.266 . S
O32 C29 1.252 . S
O33 In26 2.326 . S
O33 C29 1.260 . S
O34 In26 2.266 . S
O34 C31 1.252 1_565 S
O35 In26 2.326 1_556 S
O35 C31 1.260 1_566 S
C36 O27 1.240 . S
C36 O28 1.252 . S
O37 In26 2.294 . S
O37 C30 1.240 . S
O38 In26 2.326 . S
O38 C30 1.252 . S
In39 O40 2.294 . S
In39 O41 2.326 . S
In39 O45 2.266 . S
In39 O46 2.326 . S
In39 O47 2.266 . S
In39 O48 2.326 . S
In39 O50 2.294 . S
In39 O51 2.326 . S
O40 In39 2.294 . S
O40 C49 1.240 . S
O41 In39 2.326 . S
O41 C49 1.252 . S
C42 O45 1.252 . S
C42 O46 1.260 . S
C43 O50 1.240 . S
C43 O51 1.252 . S
C44 O47 1.252 1_545 S
C44 O48 1.260 1_545 S
O45 In39 2.266 . S
O45 C42 1.252 . S
O46 In39 2.326 . S
O46 C42 1.260 . S
O47 In39 2.266 . S
O47 C44 1.252 1_565 S
O48 In39 2.326 . S
O48 C44 1.260 1_565 S
C49 O40 1.240 . S
C49 O41 1.252 . S
O50 In39 2.294 . S
O50 C43 1.240 . S
O51 In39 2.326 . S
O51 C43 1.252 . S
In52 O53 2.294 . S
In52 O54 2.326 . S
In52 O58 2.266 . S
In52 O59 2.326 . S
In52 O60 2.266 . S
In52 O61 2.326 . S
In52 O63 2.294 . S
In52 O64 2.326 . S
O53 In52 2.294 . S
O53 C62 1.240 . S
O54 In52 2.326 . S
O54 C62 1.252 . S
C55 O58 1.252 1_655 S
C55 O59 1.260 1_655 S
C56 O63 1.240 . S
C56 O64 1.252 . S
C57 O60 1.252 . S
C57 O61 1.260 . S
O58 In52 2.266 . S
O58 C55 1.252 1_455 S
O59 In52 2.326 . S
O59 C55 1.260 1_455 S
O60 In52 2.266 . S
O60 C57 1.252 . S
O61 In52 2.326 . S
O61 C57 1.260 . S
C62 O53 1.240 . S
C62 O54 1.252 . S
O63 In52 2.294 . S
O63 C56 1.240 . S
O64 In52 2.326 . S
O64 C56 1.252 . S
In65 O66 2.294 . S
In65 O67 2.326 . S
In65 O71 2.266 . S
In65 O72 2.326 . S
In65 O73 2.266 . S
In65 O74 2.326 . S
In65 O76 2.294 . S
In65 O77 2.326 . S
O66 In65 2.294 . S
O66 C75 1.240 . S
O67 In65 2.326 . S
O67 C75 1.252 . S
C68 O71 1.252 . S
C68 O72 1.260 . S
C69 O76 1.240 . S
C69 O77 1.252 . S
C70 O73 1.252 . S
C70 O74 1.260 . S
O71 In65 2.266 . S
O71 C68 1.252 . S
O72 In65 2.326 . S
O72 C68 1.260 . S
O73 In65 2.266 . S
O73 C70 1.252 . S
O74 In65 2.326 . S
O74 C70 1.260 . S
C75 O66 1.240 . S
C75 O67 1.252 . S
O76 In65 2.294 . S
O76 C69 1.240 . S
O77 In65 2.326 . S
O77 C69 1.252 . S
In78 O79 2.294 . S
In78 O80 2.326 . S
In78 O84 2.266 . S
In78 O85 2.326 . S
In78 O86 2.266 . S
In78 O87 2.326 1_556 S
In78 O89 2.294 . S
In78 O90 2.326 . S
O79 In78 2.294 . S
O79 C88 1.240 . S
O80 In78 2.326 . S
O80 C88 1.252 . S
C81 O84 1.252 . S
C81 O85 1.260 . S
C82 O89 1.240 . S
C82 O90 1.252 . S
C83 O86 1.252 1_455 S
C83 O87 1.260 1_456 S
O84 In78 2.266 . S
O84 C81 1.252 . S
O85 In78 2.326 . S
O85 C81 1.260 . S
O86 In78 2.266 . S
O86 C83 1.252 1_655 S
O87 In78 2.326 1_554 S
O87 C83 1.260 1_654 S
C88 O79 1.240 . S
C88 O80 1.252 . S
O89 In78 2.294 . S
O89 C82 1.240 . S
O90 In78 2.326 . S
O90 C82 1.252 . S
In91 O92 2.294 . S
In91 O93 2.326 . S
In91 O97 2.266 . S
In91 O98 2.326 1_556 S
In91 O99 2.266 . S
In91 O100 2.326 . S
In91 O102 2.294 . S
In91 O103 2.326 . S
O92 In91 2.294 . S
O92 C101 1.240 . S
O93 In91 2.326 . S
O93 C101 1.252 . S
C94 O97 1.252 . S
C94 O98 1.260 1_556 S
C95 O102 1.240 . S
C95 O103 1.252 . S
C96 O99 1.252 . S
C96 O100 1.260 . S
O97 In91 2.266 . S
O97 C94 1.252 . S
O98 In91 2.326 1_554 S
O98 C94 1.260 1_554 S
O99 In91 2.266 . S
O99 C96 1.252 . S
O100 In91 2.326 . S
O100 C96 1.260 . S
C101 O92 1.240 . S
C101 O93 1.252 . S
O102 In91 2.294 . S
O102 C95 1.240 . S
O103 In91 2.326 . S
O103 C95 1.252 . S
In104 O105 2.294 . S
In104 O106 2.326 . S
In104 O110 2.266 . S
In104 O111 2.326 1_556 S
In104 O112 2.266 . S
In104 O113 2.326 . S
In104 O115 2.294 . S
In104 O116 2.326 . S
O105 In104 2.294 . S
O105 C114 1.240 . S
O106 In104 2.326 . S
O106 C114 1.252 . S
C107 O110 1.252 1_565 S
C107 O111 1.260 1_566 S
C108 O115 1.240 . S
C108 O116 1.252 . S
C109 O112 1.252 . S
C109 O113 1.260 . S
O110 In104 2.266 . S
O110 C107 1.252 1_545 S
O111 In104 2.326 1_554 S
O111 C107 1.260 1_544 S
O112 In104 2.266 . S
O112 C109 1.252 . S
O113 In104 2.326 . S
O113 C109 1.260 . S
C114 O105 1.240 . S
C114 O106 1.252 . S
O115 In104 2.294 . S
O115 C108 1.240 . S
O116 In104 2.326 . S
O116 C108 1.252 . S
In117 O118 2.294 . S
In117 O119 2.326 . S
In117 O123 2.266 . S
In117 O124 2.326 . S
In117 O125 2.266 . S
In117 O126 2.326 . S
In117 O128 2.294 . S
In117 O129 2.326 . S
O118 In117 2.294 . S
O118 C127 1.240 . S
O119 In117 2.326 . S
O119 C127 1.252 . S
C120 O123 1.252 . S
C120 O124 1.260 . S
C121 O128 1.240 . S
C121 O129 1.252 . S
C122 O125 1.252 1_565 S
C122 O126 1.260 1_565 S
O123 In117 2.266 . S
O123 C120 1.252 . S
O124 In117 2.326 . S
O124 C120 1.260 . S
O125 In117 2.266 . S
O125 C122 1.252 1_545 S
O126 In117 2.326 . S
O126 C122 1.260 1_545 S
C127 O118 1.240 . S
C127 O119 1.252 . S
O128 In117 2.294 . S
O128 C121 1.240 . S
O129 In117 2.326 . S
O129 C121 1.252 . S
In130 O131 2.294 . S
In130 O132 2.326 . S
In130 O136 2.266 . S
In130 O137 2.326 . S
In130 O138 2.266 . S
In130 O139 2.326 . S
In130 O141 2.294 . S
In130 O142 2.326 . S
O131 In130 2.294 . S
O131 C140 1.240 . S
O132 In130 2.326 . S
O132 C140 1.252 . S
C133 O136 1.252 . S
C133 O137 1.260 . S
C134 O141 1.240 . S
C134 O142 1.252 . S
C135 O138 1.252 1_455 S
C135 O139 1.260 1_455 S
O136 In130 2.266 . S
O136 C133 1.252 . S
O137 In130 2.326 . S
O137 C133 1.260 . S
O138 In130 2.266 . S
O138 C135 1.252 1_655 S
O139 In130 2.326 . S
O139 C135 1.260 1_655 S
C140 O131 1.240 . S
C140 O132 1.252 . S
O141 In130 2.294 . S
O141 C134 1.240 . S
O142 In130 2.326 . S
O142 C134 1.252 . S
In143 O144 2.294 . S
In143 O145 2.326 . S
In143 O149 2.266 . S
In143 O150 2.326 . S
In143 O151 2.266 . S
In143 O152 2.326 . S
In143 O154 2.294 . S
In143 O155 2.326 . S
O144 In143 2.294 . S
O144 C153 1.240 . S
O145 In143 2.326 . S
O145 C153 1.252 . S
C146 O149 1.252 . S
C146 O150 1.260 . S
C147 O154 1.240 . S
C147 O155 1.252 . S
C148 O151 1.252 . S
C148 O152 1.260 . S
O149 In143 2.266 . S
O149 C146 1.252 . S
O150 In143 2.326 . S
O150 C146 1.260 . S
O151 In143 2.266 . S
O151 C148 1.252 . S
O152 In143 2.326 . S
O152 C148 1.260 . S
C153 O144 1.240 . S
C153 O145 1.252 . S
O154 In143 2.294 . S
O154 C147 1.240 . S
O155 In143 2.326 . S
O155 C147 1.252 . S
C156 C157 1.387 . S
C156 H160 0.950 . S
C156 C165 1.390 . S
C157 C156 1.387 . S
C157 C159 1.387 1_554 S
H158 C165 0.950 . S
C159 C157 1.387 1_556 S
C159 C161 1.390 . S
C159 H163 0.950 . S
H160 C156 0.950 . S
C161 C159 1.390 . S
C161 C162 1.387 . S
C161 H164 0.950 . S
C162 C161 1.387 . S
C162 C165 1.387 1_556 S
H163 C159 0.950 . S
H164 C161 0.950 . S
C165 C156 1.390 . S
C165 H158 0.950 . S
C165 C162 1.387 1_554 S
C166 C167 1.387 1_556 S
C166 H170 0.950 . S
C166 C175 1.390 . S
C167 C166 1.387 1_554 S
C167 C169 1.387 . S
H168 C175 0.950 . S
C169 C167 1.387 . S
C169 C171 1.390 . S
C169 H173 0.950 . S
H170 C166 0.950 . S
C171 C169 1.390 . S
C171 C172 1.387 1_554 S
C171 H174 0.950 . S
C172 C171 1.387 1_556 S
C172 C175 1.387 . S
H173 C169 0.950 . S
H174 C171 0.950 . S
C175 C166 1.390 . S
C175 H168 0.950 . S
C175 C172 1.387 . S
C176 C177 1.387 . S
C176 H180 0.950 . S
C176 C185 1.390 . S
C177 C176 1.387 . S
C177 C179 1.387 1_554 S
H178 C185 0.950 . S
C179 C177 1.387 1_556 S
C179 C181 1.390 . S
C179 H183 0.950 . S
H180 C176 0.950 . S
C181 C179 1.390 . S
C181 C182 1.387 . S
C181 H184 0.950 . S
C182 C181 1.387 . S
C182 C185 1.387 1_556 S
H183 C179 0.950 . S
H184 C181 0.950 . S
C185 C176 1.390 . S
C185 H178 0.950 . S
C185 C182 1.387 1_554 S
C186 C187 1.387 . S
C186 H190 0.950 . S
C186 C195 1.390 . S
C187 C186 1.387 . S
C187 C189 1.387 . S
H188 C195 0.950 . S
C189 C187 1.387 . S
C189 C191 1.390 . S
C189 H193 0.950 . S
H190 C186 0.950 . S
C191 C189 1.390 . S
C191 C192 1.387 . S
C191 H194 0.950 . S
C192 C191 1.387 . S
C192 C195 1.387 . S
H193 C189 0.950 . S
H194 C191 0.950 . S
C195 C186 1.390 . S
C195 H188 0.950 . S
C195 C192 1.387 . S
C196 C197 1.387 . S
C196 H200 0.950 . S
C196 C205 1.390 . S
C197 C196 1.387 . S
C197 C199 1.387 . S
H198 C205 0.950 . S
C199 C197 1.387 . S
C199 C201 1.390 . S
C199 H203 0.950 . S
H200 C196 0.950 . S
C201 C199 1.390 . S
C201 C202 1.387 . S
C201 H204 0.950 . S
C202 C201 1.387 . S
C202 C205 1.387 . S
H203 C199 0.950 . S
H204 C201 0.950 . S
C205 C196 1.390 . S
C205 H198 0.950 . S
C205 C202 1.387 . S
C206 C207 1.387 . S
C206 H210 0.950 . S
C206 C215 1.390 . S
C207 C206 1.387 . S
C207 C209 1.387 . S
H208 C215 0.950 . S
C209 C207 1.387 . S
C209 C211 1.390 . S
C209 H213 0.950 . S
H210 C206 0.950 . S
C211 C209 1.390 . S
C211 C212 1.387 . S
C211 H214 0.950 . S
C212 C211 1.387 . S
C212 C215 1.387 . S
H213 C209 0.950 . S
H214 C211 0.950 . S
C215 C206 1.390 . S
C215 H208 0.950 . S
C215 C212 1.387 . S
C216 C217 1.387 1_556 S
C216 H220 0.950 . S
C216 C225 1.390 . S
C217 C216 1.387 1_554 S
C217 C219 1.387 . S
H218 C225 0.950 . S
C219 C217 1.387 . S
C219 C221 1.390 . S
C219 H223 0.950 . S
H220 C216 0.950 . S
C221 C219 1.390 . S
C221 C222 1.387 1_554 S
C221 H224 0.950 . S
C222 C221 1.387 1_556 S
C222 C225 1.387 . S
H223 C219 0.950 . S
H224 C221 0.950 . S
C225 C216 1.390 . S
C225 H218 0.950 . S
C225 C222 1.387 . S
C226 C227 1.387 . S
C226 H230 0.950 . S
C226 C235 1.390 . S
C227 C226 1.387 . S
C227 C229 1.387 1_556 S
H228 C235 0.950 . S
C229 C227 1.387 1_554 S
C229 C231 1.390 . S
C229 H233 0.950 . S
H230 C226 0.950 . S
C231 C229 1.390 . S
C231 C232 1.387 . S
C231 H234 0.950 . S
C232 C231 1.387 . S
C232 C235 1.387 1_554 S
H233 C229 0.950 . S
H234 C231 0.950 . S
C235 C226 1.390 . S
C235 H228 0.950 . S
C235 C232 1.387 1_556 S
C236 C237 1.387 1_556 S
C236 H240 0.950 . S
C236 C245 1.390 . S
C237 C236 1.387 1_554 S
C237 C239 1.387 . S
H238 C245 0.950 . S
C239 C237 1.387 . S
C239 C241 1.390 . S
C239 H243 0.950 . S
H240 C236 0.950 . S
C241 C239 1.390 . S
C241 C242 1.387 1_554 S
C241 H244 0.950 . S
C242 C241 1.387 1_556 S
C242 C245 1.387 . S
H243 C239 0.950 . S
H244 C241 0.950 . S
C245 C236 1.390 . S
C245 H238 0.950 . S
C245 C242 1.387 . S
C246 C247 1.387 . S
C246 H250 0.950 . S
C246 C255 1.390 . S
C247 C246 1.387 . S
C247 C249 1.387 . S
H248 C255 0.950 . S
C249 C247 1.387 . S
C249 C251 1.390 . S
C249 H253 0.950 . S
H250 C246 0.950 . S
C251 C249 1.390 . S
C251 C252 1.387 . S
C251 H254 0.950 . S
C252 C251 1.387 . S
C252 C255 1.387 . S
H253 C249 0.950 . S
H254 C251 0.950 . S
C255 C246 1.390 . S
C255 H248 0.950 . S
C255 C252 1.387 . S
C256 C257 1.387 . S
C256 H260 0.950 . S
C256 C265 1.390 . S
C257 C256 1.387 . S
C257 C259 1.387 . S
H258 C265 0.950 . S
C259 C257 1.387 . S
C259 C261 1.390 . S
C259 H263 0.950 . S
H260 C256 0.950 . S
C261 C259 1.390 . S
C261 C262 1.387 . S
C261 H264 0.950 . S
C262 C261 1.387 . S
C262 C265 1.387 . S
H263 C259 0.950 . S
H264 C261 0.950 . S
C265 C256 1.390 . S
C265 H258 0.950 . S
C265 C262 1.387 . S
C266 C267 1.387 . S
C266 H270 0.950 . S
C266 C275 1.390 . S
C267 C266 1.387 . S
C267 C269 1.387 . S
H268 C275 0.950 . S
C269 C267 1.387 . S
C269 C271 1.390 . S
C269 H273 0.950 . S
H270 C266 0.950 . S
C271 C269 1.390 . S
C271 C272 1.387 . S
C271 H274 0.950 . S
C272 C271 1.387 . S
C272 C275 1.387 . S
H273 C269 0.950 . S
H274 C271 0.950 . S
C275 C266 1.390 . S
C275 H268 0.950 . S
C275 C272 1.387 . S
C276 C277 1.387 . S
C276 H280 0.950 . S
C276 C285 1.390 . S
C277 C276 1.387 . S
C277 C279 1.387 . S
H278 C285 0.950 . S
C279 C277 1.387 . S
C279 C281 1.390 . S
C279 H283 0.950 . S
H280 C276 0.950 . S
C281 C279 1.390 . S
C281 C282 1.387 . S
C281 H284 0.950 . S
C282 C281 1.387 . S
C282 C285 1.387 . S
H283 C279 0.950 . S
H284 C281 0.950 . S
C285 C276 1.390 . S
C285 H278 0.950 . S
C285 C282 1.387 . S
C286 C287 1.387 . S
C286 H290 0.950 . S
C286 C295 1.390 . S
C287 C286 1.387 . S
C287 C289 1.387 . S
H288 C295 0.950 . S
C289 C287 1.387 . S
C289 C291 1.390 . S
C289 H293 0.950 . S
H290 C286 0.950 . S
C291 C289 1.390 . S
C291 C292 1.387 . S
C291 H294 0.950 . S
C292 C291 1.387 . S
C292 C295 1.387 . S
H293 C289 0.950 . S
H294 C291 0.950 . S
C295 C286 1.390 . S
C295 H288 0.950 . S
C295 C292 1.387 . S
C296 C297 1.387 . S
C296 H300 0.950 . S
C296 C305 1.390 . S
C297 C296 1.387 . S
C297 C299 1.387 . S
H298 C305 0.950 . S
C299 C297 1.387 . S
C299 C301 1.390 . S
C299 H303 0.950 . S
H300 C296 0.950 . S
C301 C299 1.390 . S
C301 C302 1.387 . S
C301 H304 0.950 . S
C302 C301 1.387 . S
C302 C305 1.387 . S
H303 C299 0.950 . S
H304 C301 0.950 . S
C305 C296 1.390 . S
C305 H298 0.950 . S
C305 C302 1.387 . S
C306 C307 1.387 . S
C306 H310 0.950 . S
C306 C315 1.390 . S
C307 C306 1.387 . S
C307 C309 1.387 . S
H308 C315 0.950 . S
C309 C307 1.387 . S
C309 C311 1.390 . S
C309 H313 0.950 . S
H310 C306 0.950 . S
C311 C309 1.390 . S
C311 C312 1.387 . S
C311 H314 0.950 . S
C312 C311 1.387 . S
C312 C315 1.387 . S
H313 C309 0.950 . S
H314 C311 0.950 . S
C315 C306 1.390 . S
C315 H308 0.950 . S
C315 C312 1.387 . S
C316 C317 1.387 . S
C316 H320 0.950 . S
C316 C325 1.390 . S
C317 C316 1.387 . S
C317 C319 1.387 . S
H318 C325 0.950 . S
C319 C317 1.387 . S
C319 C321 1.390 . S
C319 H323 0.950 . S
H320 C316 0.950 . S
C321 C319 1.390 . S
C321 C322 1.387 . S
C321 H324 0.950 . S
C322 C321 1.387 . S
C322 C325 1.387 . S
H323 C319 0.950 . S
H324 C321 0.950 . S
C325 C316 1.390 . S
C325 H318 0.950 . S
C325 C322 1.387 . S
C326 C327 1.387 . S
C326 H330 0.950 . S
C326 C335 1.390 . S
C327 C326 1.387 . S
C327 C329 1.387 . S
H328 C335 0.950 . S
C329 C327 1.387 . S
C329 C331 1.390 . S
C329 H333 0.950 . S
H330 C326 0.950 . S
C331 C329 1.390 . S
C331 C332 1.387 . S
C331 H334 0.950 . S
C332 C331 1.387 . S
C332 C335 1.387 . S
H333 C329 0.950 . S
H334 C331 0.950 . S
C335 C326 1.390 . S
C335 H328 0.950 . S
C335 C332 1.387 . S
C336 C337 1.387 . S
C336 H340 0.950 . S
C336 C345 1.390 1_554 S
C337 C336 1.387 . S
C337 C339 1.387 1_455 S
H338 C345 0.950 . S
C339 C337 1.387 1_655 S
C339 C341 1.390 1_554 S
C339 H343 0.950 . S
H340 C336 0.950 . S
C341 C339 1.390 1_556 S
C341 C342 1.387 . S
C341 H344 0.950 . S
C342 C341 1.387 . S
C342 C345 1.387 1_655 S
H343 C339 0.950 . S
H344 C341 0.950 . S
C345 C336 1.390 1_556 S
C345 H338 0.950 . S
C345 C342 1.387 1_455 S
C346 C347 1.387 1_556 S
C346 H350 0.950 . S
C346 C355 1.390 . S
C347 C346 1.387 1_554 S
C347 C349 1.387 . S
H348 C355 0.950 . S
C349 C347 1.387 . S
C349 C351 1.390 . S
C349 H353 0.950 . S
H350 C346 0.950 . S
C351 C349 1.390 . S
C351 C352 1.387 1_554 S
C351 H354 0.950 . S
C352 C351 1.387 1_556 S
C352 C355 1.387 . S
H353 C349 0.950 . S
H354 C351 0.950 . S
C355 C346 1.390 . S
C355 H348 0.950 . S
C355 C352 1.387 . S
C356 C357 1.387 1_545 S
C356 H360 0.950 . S
C356 C365 1.390 . S
C357 C356 1.387 1_565 S
C357 C359 1.387 1_554 S
H358 C365 0.950 . S
C359 C357 1.387 1_556 S
C359 C361 1.390 . S
C359 H363 0.950 . S
H360 C356 0.950 . S
C361 C359 1.390 . S
C361 C362 1.387 1_565 S
C361 H364 0.950 . S
C362 C361 1.387 1_545 S
C362 C365 1.387 1_556 S
H363 C359 0.950 . S
H364 C361 0.950 . S
C365 C356 1.390 . S
C365 H358 0.950 . S
C365 C362 1.387 1_554 S
C366 C367 1.387 1_545 S
C366 H370 0.950 . S
C366 C375 1.390 . S
C367 C366 1.387 1_565 S
C367 C369 1.387 . S
H368 C375 0.950 . S
C369 C367 1.387 . S
C369 C371 1.390 . S
C369 H373 0.950 . S
H370 C366 0.950 . S
C371 C369 1.390 . S
C371 C372 1.387 1_565 S
C371 H374 0.950 . S
C372 C371 1.387 1_545 S
C372 C375 1.387 . S
H373 C369 0.950 . S
H374 C371 0.950 . S
C375 C366 1.390 . S
C375 H368 0.950 . S
C375 C372 1.387 . S
C376 C377 1.387 . S
C376 H380 0.950 . S
C376 C385 1.390 . S
C377 C376 1.387 . S
C377 C379 1.387 1_655 S
H378 C385 0.950 . S
C379 C377 1.387 1_455 S
C379 C381 1.390 . S
C379 H383 0.950 . S
H380 C376 0.950 . S
C381 C379 1.390 . S
C381 C382 1.387 . S
C381 H384 0.950 . S
C382 C381 1.387 . S
C382 C385 1.387 1_455 S
H383 C379 0.950 . S
H384 C381 0.950 . S
C385 C376 1.390 . S
C385 H378 0.950 . S
C385 C382 1.387 1_655 S
C386 C387 1.387 . S
C386 H390 0.950 . S
C386 C395 1.390 . S
C387 C386 1.387 . S
C387 C389 1.387 . S
H388 C395 0.950 . S
C389 C387 1.387 . S
C389 C391 1.390 . S
C389 H393 0.950 . S
H390 C386 0.950 . S
C391 C389 1.390 . S
C391 C392 1.387 . S
C391 H394 0.950 . S
C392 C391 1.387 . S
C392 C395 1.387 . S
H393 C389 0.950 . S
H394 C391 0.950 . S
C395 C386 1.390 . S
C395 H388 0.950 . S
C395 C392 1.387 . S
C157 C4 1.220 . S
C162 C94 1.224 . S
C167 C17 1.220 . S
C172 C107 1.224 . S
C177 C36 1.220 . S
C182 C83 1.224 . S
C187 C146 1.224 . S
C192 C49 1.221 . S
C197 C56 1.220 . S
C202 C122 1.224 . S
C207 C135 1.224 . S
C212 C69 1.220 . S
C217 C16 1.224 . S
C222 C88 1.221 . S
C227 C95 1.221 . S
C232 C31 1.224 . S
C237 C3 1.224 . S
C242 C108 1.220 . S
C247 C127 1.220 . S
C252 C68 1.224 . S
C257 C140 1.220 . S
C262 C44 1.223 . S
C267 C55 1.224 . S
C272 C147 1.221 . S
C277 C75 1.569 . S
C282 C10 1.569 . S
C287 C23 1.570 . S
C292 C43 1.571 . S
C297 C30 1.570 . S
C302 C62 1.571 . S
C307 C82 1.569 . S
C312 C153 1.569 . S
C317 C101 1.570 . S
C322 C121 1.569 . S
C327 C114 1.570 . S
C332 C134 1.571 . S
C337 C5 1.573 . S
C342 C81 1.573 . S
C347 C18 1.572 . S
C352 C96 1.572 . S
C357 C29 1.571 . S
C362 C109 1.571 . S
C367 C42 1.571 . S
C372 C120 1.571 . S
C377 C133 1.571 . S
C382 C57 1.571 . S
C387 C70 1.570 . S
C392 C148 1.570 . S
