# Generated by pormake.
# Topology crs, (6)-cn, num edge types: 1
# Building blocks:
#     Node 0, Type 0, BuildingBlock: BETDIP_clean_sbu_0, # of connection points: 6
#     Node 1, Type 0, BuildingBlock: BETDIP_clean_sbu_0, # of connection points: 6
#     Node 2, Type 0, BuildingBlock: BETDIP_clean_sbu_0, # of connection points: 6
#     Node 3, Type 0, BuildingBlock: BETDIP_clean_sbu_0, # of connection points: 6
#     Node 4, Type 0, BuildingBlock: BETDIP_clean_sbu_0, # of connection points: 6
#     Node 5, Type 0, BuildingBlock: BETDIP_clean_sbu_0, # of connection points: 6
#     Node 6, Type 0, BuildingBlock: BETDIP_clean_sbu_0, # of connection points: 6
#     Node 7, Type 0, BuildingBlock: BETDIP_clean_sbu_0, # of connection points: 6
#     Node 8, Type 0, BuildingBlock: BETDIP_clean_sbu_0, # of connection points: 6
#     Node 9, Type 0, BuildingBlock: BETDIP_clean_sbu_0, # of connection points: 6
#     Node 10, Type 0, BuildingBlock: BETDIP_clean_sbu_0, # of connection points: 6
#     Node 11, Type 0, BuildingBlock: BETDIP_clean_sbu_0, # of connection points: 6
#     Node 12, Type 0, BuildingBlock: BETDIP_clean_sbu_0, # of connection points: 6
#     Node 13, Type 0, BuildingBlock: BETDIP_clean_sbu_0, # of connection points: 6
#     Node 14, Type 0, BuildingBlock: BETDIP_clean_sbu_0, # of connection points: 6
#     Node 15, Type 0, BuildingBlock: BETDIP_clean_sbu_0, # of connection points: 6
#     Edge 16, Type (0, 0), BuildingBlock: XIVTED_clean_linker_0, # of connection points: 2
#     Edge 17, Type (0, 0), BuildingBlock: XIVTED_clean_linker_0, # of connection points: 2
#     Edge 18, Type (0, 0), BuildingBlock: XIVTED_clean_linker_0, # of connection points: 2
#     Edge 19, Type (0, 0), BuildingBlock: XIVTED_clean_linker_0, # of connection points: 2
#     Edge 20, Type (0, 0), BuildingBlock: XIVTED_clean_linker_0, # of connection points: 2
#     Edge 21, Type (0, 0), BuildingBlock: XIVTED_clean_linker_0, # of connection points: 2
#     Edge 22, Type (0, 0), BuildingBlock: XIVTED_clean_linker_0, # of connection points: 2
#     Edge 23, Type (0, 0), BuildingBlock: XIVTED_clean_linker_0, # of connection points: 2
#     Edge 24, Type (0, 0), BuildingBlock: XIVTED_clean_linker_0, # of connection points: 2
#     Edge 25, Type (0, 0), BuildingBlock: XIVTED_clean_linker_0, # of connection points: 2
#     Edge 26, Type (0, 0), BuildingBlock: XIVTED_clean_linker_0, # of connection points: 2
#     Edge 27, Type (0, 0), BuildingBlock: XIVTED_clean_linker_0, # of connection points: 2
#     Edge 28, Type (0, 0), BuildingBlock: XIVTED_clean_linker_0, # of connection points: 2
#     Edge 29, Type (0, 0), BuildingBlock: XIVTED_clean_linker_0, # of connection points: 2
#     Edge 30, Type (0, 0), BuildingBlock: XIVTED_clean_linker_0, # of connection points: 2
#     Edge 31, Type (0, 0), BuildingBlock: XIVTED_clean_linker_0, # of connection points: 2
#     Edge 32, Type (0, 0), BuildingBlock: XIVTED_clean_linker_0, # of connection points: 2
#     Edge 33, Type (0, 0), BuildingBlock: XIVTED_clean_linker_0, # of connection points: 2
#     Edge 34, Type (0, 0), BuildingBlock: XIVTED_clean_linker_0, # of connection points: 2
#     Edge 35, Type (0, 0), BuildingBlock: XIVTED_clean_linker_0, # of connection points: 2
#     Edge 36, Type (0, 0), BuildingBlock: XIVTED_clean_linker_0, # of connection points: 2
#     Edge 37, Type (0, 0), BuildingBlock: XIVTED_clean_linker_0, # of connection points: 2
#     Edge 38, Type (0, 0), BuildingBlock: XIVTED_clean_linker_0, # of connection points: 2
#     Edge 39, Type (0, 0), BuildingBlock: XIVTED_clean_linker_0, # of connection points: 2
#     Edge 40, Type (0, 0), BuildingBlock: XIVTED_clean_linker_0, # of connection points: 2
#     Edge 41, Type (0, 0), BuildingBlock: XIVTED_clean_linker_0, # of connection points: 2
#     Edge 42, Type (0, 0), BuildingBlock: XIVTED_clean_linker_0, # of connection points: 2
#     Edge 43, Type (0, 0), BuildingBlock: XIVTED_clean_linker_0, # of connection points: 2
#     Edge 44, Type (0, 0), BuildingBlock: XIVTED_clean_linker_0, # of connection points: 2
#     Edge 45, Type (0, 0), BuildingBlock: XIVTED_clean_linker_0, # of connection points: 2
#     Edge 46, Type (0, 0), BuildingBlock: XIVTED_clean_linker_0, # of connection points: 2
#     Edge 47, Type (0, 0), BuildingBlock: XIVTED_clean_linker_0, # of connection points: 2
#     Edge 48, Type (0, 0), BuildingBlock: XIVTED_clean_linker_0, # of connection points: 2
#     Edge 49, Type (0, 0), BuildingBlock: XIVTED_clean_linker_0, # of connection points: 2
#     Edge 50, Type (0, 0), BuildingBlock: XIVTED_clean_linker_0, # of connection points: 2
#     Edge 51, Type (0, 0), BuildingBlock: XIVTED_clean_linker_0, # of connection points: 2
#     Edge 52, Type (0, 0), BuildingBlock: XIVTED_clean_linker_0, # of connection points: 2
#     Edge 53, Type (0, 0), BuildingBlock: XIVTED_clean_linker_0, # of connection points: 2
#     Edge 54, Type (0, 0), BuildingBlock: XIVTED_clean_linker_0, # of connection points: 2
#     Edge 55, Type (0, 0), BuildingBlock: XIVTED_clean_linker_0, # of connection points: 2
#     Edge 56, Type (0, 0), BuildingBlock: XIVTED_clean_linker_0, # of connection points: 2
#     Edge 57, Type (0, 0), BuildingBlock: XIVTED_clean_linker_0, # of connection points: 2
#     Edge 58, Type (0, 0), BuildingBlock: XIVTED_clean_linker_0, # of connection points: 2
#     Edge 59, Type (0, 0), BuildingBlock: XIVTED_clean_linker_0, # of connection points: 2
#     Edge 60, Type (0, 0), BuildingBlock: XIVTED_clean_linker_0, # of connection points: 2
#     Edge 61, Type (0, 0), BuildingBlock: XIVTED_clean_linker_0, # of connection points: 2
#     Edge 62, Type (0, 0), BuildingBlock: XIVTED_clean_linker_0, # of connection points: 2
#     Edge 63, Type (0, 0), BuildingBlock: XIVTED_clean_linker_0, # of connection points: 2
# Relax obj value: 0.408
# Max RMSD: 0.321
# Mean RMSD: 0.320
data_MOF--net-crs--node1-BETDIP_clean_sbu_0--edge1-XIVTED_clean_linker_0
_symmetry_space_group_name_H-M    P1
_symmetry_Int_Tables_number       1
_symmetry_cell_setting            triclinic
loop_
_symmetry_equiv_pos_as_xyz
'x, y, z'
_cell_length_a     39.058807
_cell_length_b     66.700386
_cell_length_c     44.342569
_cell_angle_alpha  89.915779
_cell_angle_beta   89.914029
_cell_angle_gamma 61.202845
loop_
_atom_site_label
_atom_site_type_symbol
_atom_site_fract_x
_atom_site_fract_y
_atom_site_fract_z
_atom_type_partial_charge
Tb0 Tb 0.95479 0.01777 0.0144 0.0
Tb1 Tb 0.0321 1.00742 0.9883 0.0
C2 C 0.89228 0.01723 0.02547 0.0
C3 C 0.88671 0.99713 0.02975 0.0
C4 C 0.85375 0.99675 0.01798 0.0
C5 C 0.85123 0.9765 0.01864 0.0
C6 C 0.88175 0.95636 0.03102 0.0
C7 C 0.91429 0.95706 0.04332 0.0
C8 C 0.91675 0.97718 0.04267 0.0
C9 C 0.01062 1.00864 0.05388 0.0
C10 C 0.01478 0.96719 0.98993 0.0
C11 C 0.09531 1.0077 0.98022 0.0
C12 C 0.10116 0.02784 0.97758 0.0
C13 C 0.13238 0.02845 0.9923 0.0
C14 C 0.13458 0.04879 0.99323 0.0
C15 C 0.10541 0.06885 0.97959 0.0
C16 C 0.07473 0.06791 0.96431 0.0
C17 C 0.07264 0.04767 0.96331 0.0
C18 C 0.97736 0.01642 0.94794 0.0
C19 C 0.97148 0.05815 0.01213 0.0
O20 O 0.90287 0.01953 0.99829 0.0
O21 O 0.91304 0.02036 0.04618 0.0
O22 O 0.01425 0.99863 0.02905 0.0
O23 O 0.97435 0.02354 0.05796 0.0
O24 O 0.97867 0.98271 0.99706 0.0
O25 O 0.04365 0.97222 0.98954 0.0
O26 O 0.08356 1.0049 0.00677 0.0
O27 O 0.07552 1.00494 0.95835 0.0
O28 O 0.97246 0.0264 0.9731 0.0
O29 O 0.01414 1.00243 0.94392 0.0
O30 O 0.00765 0.04262 0.00518 0.0
O31 O 0.94263 0.05309 0.01238 0.0
H32 H 0.83051 0.0119 0.00759 0.0
H33 H 0.82562 0.97656 0.00922 0.0
H34 H 0.93871 0.9418 0.05241 0.0
H35 H 0.94293 0.97688 0.05131 0.0
H36 H 0.15441 0.0134 1.00375 0.0
H37 H 0.15887 0.04885 0.00489 0.0
H38 H 0.05123 0.08306 0.95417 0.0
H39 H 0.0477 0.04786 0.95238 0.0
Tb40 Tb 0.01804 0.2653 0.27471 0.0
Tb41 Tb 0.96658 0.25475 0.23668 0.0
C42 C 0.05065 0.28043 0.31017 0.0
C43 C 0.04315 0.29653 0.33524 0.0
C44 C 0.00931 0.31798 0.33642 0.0
C45 C 0.00604 0.33423 0.35789 0.0
C46 C 0.0366 0.32932 0.3784 0.0
C47 C 0.06945 0.30739 0.37801 0.0
C48 C 0.07267 0.2912 0.35664 0.0
C49 C 0.04855 0.22138 0.25892 0.0
C50 C 0.94997 0.25987 0.30524 0.0
C51 C 0.93484 0.23876 0.20168 0.0
C52 C 0.94196 0.22328 0.17587 0.0
C53 C 0.97575 0.20186 0.17384 0.0
C54 C 0.9788 0.1862 0.15155 0.0
C55 C 0.94811 0.19164 0.13094 0.0
C56 C 0.91518 0.21352 0.1323 0.0
C57 C 0.91217 0.22912 0.15454 0.0
C58 C 0.93525 0.29867 0.25255 0.0
C59 C 0.03377 0.26136 0.20625 0.0
O60 O 0.03643 0.28935 0.28384 0.0
O61 O 0.04771 0.26205 0.31563 0.0
O62 O 0.01379 0.23474 0.26636 0.0
O63 O 0.06821 0.23226 0.26178 0.0
O64 O 0.9702 0.27107 0.30586 0.0
O65 O 0.94881 0.24899 0.28079 0.0
O66 O 0.95135 0.22935 0.2273 0.0
O67 O 0.93513 0.258 0.1967 0.0
O68 O 0.9703 0.28548 0.24541 0.0
O69 O 0.91594 0.28763 0.24889 0.0
O70 O 0.01395 0.24989 0.20528 0.0
O71 O 0.03469 0.27206 0.23091 0.0
H72 H 0.98614 0.32248 0.32008 0.0
H73 H 0.98043 0.35098 0.35745 0.0
H74 H 0.09318 0.3029 0.39381 0.0
H75 H 0.099 0.27476 0.3561 0.0
H76 H -0.00087 0.19691 0.19011 0.0
H77 H 0.00447 0.16946 0.15132 0.0
H78 H 0.89134 0.21845 0.1165 0.0
H79 H 0.88584 0.24554 0.15572 0.0
Tb80 Tb 0.78876 0.25815 0.52825 0.0
Tb81 Tb 0.71136 0.26773 0.50153 0.0
C82 C 0.8532 0.25703 0.53558 0.0
C83 C 0.868 0.27242 0.52515 0.0
C84 C 0.86093 0.28122 0.49563 0.0
C85 C 0.87034 0.2982 0.48733 0.0
C86 C 0.88665 0.3069 0.50847 0.0
C87 C 0.89498 0.29739 0.53767 0.0
C88 C 0.88583 0.2803 0.54586 0.0
C89 C 0.73326 0.26594 0.56753 0.0
C90 C 0.72839 0.30798 0.50266 0.0
C91 C 0.64792 0.26794 0.49181 0.0
C92 C 0.63985 0.2486 0.48951 0.0
C93 C 0.60436 0.25062 0.49974 0.0
C94 C 0.5982 0.23158 0.49948 0.0
C95 C 0.62762 0.21019 0.48912 0.0
C96 C 0.66298 0.20844 0.47872 0.0
C97 C 0.66894 0.22741 0.4788 0.0
C98 C 0.76687 0.26 0.46223 0.0
C99 C 0.77139 0.21774 0.52863 0.0
O100 O 0.84707 0.24515 0.51478 0.0
O101 O 0.82466 0.26603 0.55523 0.0
O102 O 0.72911 0.27607 0.54266 0.0
O103 O 0.77004 0.25204 0.57214 0.0
O104 O 0.76503 0.29238 0.50814 0.0
O105 O 0.69955 0.30294 0.50388 0.0
O106 O 0.65851 0.27119 0.51857 0.0
O107 O 0.66994 0.26919 0.47043 0.0
O108 O 0.77097 0.2498 0.48705 0.0
O109 O 0.73018 0.27404 0.45783 0.0
O110 O 0.73619 0.23242 0.51838 0.0
O111 O 0.79951 0.22325 0.53137 0.0
H112 H 0.84696 0.27555 0.47922 0.0
H113 H 0.86398 0.30488 0.46455 0.0
H114 H 0.90688 0.30387 0.55474 0.0
H115 H 0.89118 0.2739 0.56881 0.0
H116 H 0.58163 0.26682 0.50826 0.0
H117 H 0.57045 0.23362 0.50735 0.0
H118 H 0.68672 0.19222 0.47129 0.0
H119 H 0.69684 0.22531 0.47115 0.0
Tb120 Tb 0.71926 1.00532 0.77913 0.0
Tb121 Tb 0.76602 0.01239 0.73297 0.0
C122 C 0.69294 0.99137 0.82154 0.0
C123 C 0.70323 0.97577 0.84765 0.0
C124 C 0.73547 0.95364 0.84697 0.0
C125 C 0.73979 0.93758 0.86914 0.0
C126 C 0.71185 0.94334 0.89228 0.0
C127 C 0.68097 0.96593 0.89379 0.0
C128 C 0.67673 0.98194 0.87169 0.0
C129 C 0.6862 0.04819 0.75829 0.0
C130 C 0.78623 0.01577 0.79852 0.0
C131 C 0.79065 0.02544 0.68837 0.0
C132 C 0.78829 0.04591 0.67357 0.0
C133 C 0.79573 0.06185 0.68889 0.0
C134 C 0.7948 0.08043 0.67328 0.0
C135 C 0.78619 0.08342 0.64222 0.0
C136 C 0.77852 0.06748 0.62719 0.0
C137 C 0.77964 0.04895 0.64268 0.0
C138 C 0.79855 0.96927 0.75275 0.0
C139 C 0.69429 1.00514 0.71294 0.0
O140 O 0.70274 0.98179 0.79499 0.0
O141 O 0.69724 1.0096 0.82364 0.0
O142 O 0.72204 0.03533 0.76331 0.0
O143 O 0.66759 0.03765 0.76723 0.0
O144 O 0.76951 1.00301 0.8043 0.0
O145 O 0.78131 0.02587 0.77206 0.0
O146 O 0.80952 0.01852 0.71385 0.0
O147 O 0.75877 0.02374 0.68816 0.0
O148 O 0.76278 0.98251 0.74815 0.0
O149 O 0.81734 0.9795 0.74328 0.0
O150 O 0.71921 0.01242 0.70564 0.0
O151 O 0.69135 0.99928 0.74077 0.0
H152 H 0.75623 0.94841 0.82852 0.0
H153 H 0.76381 0.92032 0.86717 0.0
H154 H 0.65934 0.97106 0.91158 0.0
H155 H 0.65156 0.99888 0.87259 0.0
H156 H 0.80241 0.05991 0.71276 0.0
H157 H 0.80048 0.09254 0.68555 0.0
H158 H 0.77238 0.06904 0.60324 0.0
H159 H 0.77413 0.03677 0.63037 0.0
Tb160 Tb 0.51676 0.76436 0.27783 0.0
Tb161 Tb 0.46884 0.75746 0.23599 0.0
C162 C 0.54564 0.77664 0.32035 0.0
C163 C 0.53784 0.79704 0.3384 0.0
C164 C 0.53935 0.81587 0.32548 0.0
C165 C 0.53633 0.83378 0.34364 0.0
C166 C 0.53164 0.83329 0.37505 0.0
C167 C 0.52887 0.81481 0.38778 0.0
C168 C 0.53214 0.79683 0.36965 0.0
C169 C 0.54949 0.72073 0.25954 0.0
C170 C 0.44897 0.75661 0.30169 0.0
C171 C 0.43915 0.74579 0.19339 0.0
C172 C 0.44647 0.72558 0.17516 0.0
C173 C 0.44833 0.70589 0.18835 0.0
C174 C 0.4509 0.68807 0.17022 0.0
C175 C 0.45187 0.6895 0.1386 0.0
C176 C 0.45137 0.70885 0.12554 0.0
C177 C 0.4485 0.72674 0.14364 0.0
C178 C 0.43719 0.80119 0.25431 0.0
C179 C 0.53709 0.7647 0.21209 0.0
O180 O 0.55466 0.77648 0.292 0.0
O181 O 0.52246 0.7679 0.32445 0.0
O182 O 0.51385 0.73359 0.26518 0.0
O183 O 0.56792 0.73171 0.26632 0.0
O184 O 0.46549 0.76971 0.30445 0.0
O185 O 0.45376 0.74516 0.2765 0.0
O186 O 0.43033 0.74581 0.22176 0.0
O187 O 0.46264 0.75432 0.18933 0.0
O188 O 0.47243 0.78802 0.2481 0.0
O189 O 0.4182 0.79037 0.24845 0.0
O190 O 0.52027 0.75175 0.20937 0.0
O191 O 0.5323 0.77627 0.23716 0.0
H192 H 0.54373 0.81657 0.30146 0.0
H193 H 0.53799 0.84795 0.33311 0.0
H194 H 0.5256 0.81382 0.41191 0.0
H195 H 0.53127 0.78242 0.38021 0.0
H196 H 0.44696 0.70444 0.2126 0.0
H197 H 0.45182 0.67322 0.18095 0.0
H198 H 0.45178 0.71054 0.10126 0.0
H199 H 0.44683 0.7418 0.13294 0.0
Tb200 Tb 0.28063 0.75226 0.51582 0.0
Tb201 Tb 0.20094 0.76474 0.49067 0.0
C202 C 0.34597 0.74985 0.5239 0.0
C203 C 0.35972 0.76675 0.51901 0.0
C204 C 0.35968 0.7756 0.49018 0.0
C205 C 0.36767 0.7938 0.48673 0.0
C206 C 0.3755 0.80368 0.51202 0.0
C207 C 0.37692 0.79416 0.54066 0.0
C208 C 0.36939 0.77584 0.54405 0.0
C209 C 0.22652 0.75932 0.55613 0.0
C210 C 0.22243 0.80346 0.49209 0.0
C211 C 0.13503 0.76766 0.48412 0.0
C212 C 0.12037 0.75191 0.49324 0.0
C213 C 0.13098 0.74048 0.52114 0.0
C214 C 0.12297 0.72262 0.52738 0.0
C215 C 0.10437 0.71577 0.50579 0.0
C216 C 0.09186 0.7281 0.47859 0.0
C217 C 0.09984 0.74599 0.47239 0.0
C218 C 0.25499 0.75755 0.45026 0.0
C219 C 0.25969 0.71342 0.51354 0.0
O220 O 0.33743 0.74166 0.49988 0.0
O221 O 0.31986 0.75513 0.54528 0.0
O222 O 0.22192 0.77046 0.53207 0.0
O223 O 0.26313 0.74448 0.55925 0.0
O224 O 0.25831 0.78738 0.49892 0.0
O225 O 0.19267 0.79923 0.49132 0.0
O226 O 0.14327 0.77789 0.50595 0.0
O227 O 0.16212 0.75967 0.46325 0.0
O228 O 0.2596 0.74653 0.47441 0.0
O229 O 0.21829 0.77227 0.44702 0.0
O230 O 0.22352 0.72967 0.50786 0.0
O231 O 0.28947 0.71766 0.51375 0.0
H232 H 0.35231 0.76899 0.47036 0.0
H233 H 0.36697 0.80038 0.46427 0.0
H234 H 0.38219 0.80145 0.56076 0.0
H235 H 0.36951 0.76939 0.56651 0.0
H236 H 0.14708 0.74459 0.53759 0.0
H237 H 0.13257 0.71365 0.54868 0.0
H238 H 0.07783 0.72312 0.46134 0.0
H239 H 0.09167 0.75446 0.45067 0.0
Tb240 Tb 0.21808 0.50481 0.77702 0.0
Tb241 Tb 0.26507 0.51497 0.73329 0.0
C242 C 0.19042 0.48922 0.81633 0.0
C243 C 0.20033 0.47364 0.8424 0.0
C244 C 0.23322 0.45174 0.8423 0.0
C245 C 0.23784 0.43585 0.8648 0.0
C246 C 0.2096 0.44156 0.88769 0.0
C247 C 0.17801 0.46394 0.88859 0.0
C248 C 0.17344 0.47978 0.86616 0.0
C249 C 0.1839 0.54825 0.75871 0.0
C250 C 0.28647 0.51296 0.80074 0.0
C251 C 0.29369 0.52997 0.69397 0.0
C252 C 0.28438 0.54573 0.66821 0.0
C253 C 0.25073 0.56728 0.66778 0.0
C254 C 0.24638 0.58342 0.64574 0.0
C255 C 0.27568 0.57831 0.62391 0.0
C256 C 0.30818 0.55625 0.62352 0.0
C257 C 0.31246 0.54015 0.64546 0.0
C258 C 0.29942 0.47163 0.75212 0.0
C259 C 0.19551 0.50779 0.70969 0.0
O260 O 0.20328 0.47983 0.78995 0.0
O261 O 0.19197 0.50824 0.81974 0.0
O262 O 0.21966 0.53559 0.76413 0.0
O263 O 0.1657 0.53703 0.76562 0.0
O264 O 0.26684 0.50163 0.805 0.0
O265 O 0.28546 0.52269 0.77464 0.0
O266 O 0.28151 0.53925 0.72048 0.0
O267 O 0.29063 0.51144 0.69031 0.0
O268 O 0.26372 0.48414 0.74628 0.0
O269 O 0.31742 0.48297 0.74535 0.0
O270 O 0.21575 0.51876 0.7055 0.0
O271 O 0.1964 0.49793 0.73567 0.0
H272 H 0.25438 0.44657 0.82415 0.0
H273 H 0.2624 0.41874 0.86331 0.0
H274 H 0.15613 0.46903 0.90618 0.0
H275 H 0.14785 0.49656 0.86665 0.0
H276 H 0.2287 0.57198 0.6852 0.0
H277 H 0.22108 0.60029 0.64678 0.0
H278 H 0.33092 0.55162 0.60673 0.0
H279 H 0.33865 0.52363 0.64543 0.0
Tb280 Tb 0.957 0.51625 0.51252 0.0
Tb281 Tb 0.03523 0.50531 0.48475 0.0
C282 C 0.89306 0.5168 0.51977 0.0
C283 C 0.88272 0.49861 0.51338 0.0
C284 C 0.88387 0.4906 0.4838 0.0
C285 C 0.88236 0.47033 0.47881 0.0
C286 C 0.88019 0.45763 0.50331 0.0
C287 C 0.87635 0.46646 0.5326 0.0
C288 C 0.87732 0.48682 0.53756 0.0
C289 C 0.01223 0.50875 0.55131 0.0
C290 C 0.01689 0.46542 0.48816 0.0
C291 C 0.09834 0.50532 0.47514 0.0
C292 C 0.10768 0.52422 0.47951 0.0
C293 C 0.12277 0.52691 0.5071 0.0
C294 C 0.12422 0.54707 0.51329 0.0
C295 C 0.11091 0.56481 0.4919 0.0
C296 C 0.09856 0.56138 0.46356 0.0
C297 C 0.09707 0.54133 0.4574 0.0
C298 C 0.97915 0.51265 0.44659 0.0
C299 C 0.97612 0.5559 0.51053 0.0
O300 O 0.90049 0.52624 0.49648 0.0
O301 O 0.91857 0.51202 0.54148 0.0
O302 O 0.01666 0.49841 0.52659 0.0
O303 O 0.97542 0.52217 0.55651 0.0
O304 O 0.98092 0.48106 0.49562 0.0
O305 O 0.04591 0.4703 0.48629 0.0
O306 O 0.09172 0.4967 0.49967 0.0
O307 O 0.07288 0.50854 0.45391 0.0
O308 O 0.97576 0.52325 0.47089 0.0
O309 O 0.01568 0.49821 0.44192 0.0
O310 O 0.01157 0.54044 0.50172 0.0
O311 O 0.94706 0.55111 0.51284 0.0
H312 H 0.88799 0.49927 0.46462 0.0
H313 H 0.88534 0.46388 0.456 0.0
H314 H 0.87389 0.45718 0.55182 0.0
H315 H 0.8761 0.49267 0.56052 0.0
H316 H 0.13177 0.5139 0.52443 0.0
H317 H 0.13408 0.54917 0.5353 0.0
H318 H 0.08917 0.57447 0.44629 0.0
H319 H 0.08597 0.53971 0.43568 0.0
Tb320 Tb 0.27967 0.25499 0.01775 0.0
Tb321 Tb 0.19997 0.26891 0.99186 0.0
C322 C 0.34462 0.253 0.02512 0.0
C323 C 0.35499 0.27144 0.02029 0.0
C324 C 0.36788 0.27462 0.99189 0.0
C325 C 0.37072 0.29439 0.98585 0.0
C326 C 0.36036 0.31136 0.00802 0.0
C327 C 0.34953 0.30762 0.03679 0.0
C328 C 0.34718 0.28782 0.04295 0.0
C329 C 0.2253 0.26163 0.05755 0.0
C330 C 0.22222 0.30712 0.99698 0.0
C331 C 0.13395 0.27263 0.98249 0.0
C332 C 0.11877 0.25642 0.98703 0.0
C333 C 0.11973 0.24683 0.01549 0.0
C334 C 0.11131 0.22877 0.0183 0.0
C335 C 0.10231 0.21975 0.99269 0.0
C336 C 0.09956 0.2302 0.96453 0.0
C337 C 0.10741 0.24843 0.96182 0.0
C338 C 0.25472 0.2621 0.95231 0.0
C339 C 0.25735 0.21693 0.01359 0.0
O340 O 0.3358 0.24521 1.00087 0.0
O341 O 0.32027 0.25629 0.04732 0.0
O342 O 0.22096 0.27332 0.03402 0.0
O343 O 0.26189 0.24662 0.06058 0.0
O344 O 0.25787 0.29057 1.00322 0.0
O345 O 0.19212 0.30325 0.99532 0.0
O346 O 0.14242 0.28062 0.00672 0.0
O347 O 0.16093 0.26659 0.96166 0.0
O348 O 0.25861 0.25043 0.97571 0.0
O349 O 0.2184 0.27748 0.9494 0.0
O350 O 0.22145 0.23353 0.00775 0.0
O351 O 0.28761 0.22071 0.0142 0.0
H352 H 0.37419 0.26233 0.97393 0.0
H353 H 0.37929 0.29688 0.96351 0.0
H354 H 0.3421 0.32029 0.05442 0.0
H355 H 0.33755 0.28589 0.06516 0.0
H356 H 0.12842 0.25261 0.03542 0.0
H357 H 0.11298 0.22149 0.04044 0.0
H358 H 0.09334 0.22362 0.94418 0.0
H359 H 0.10658 0.2555 0.93964 0.0
Tb360 Tb 0.21666 1.00393 0.27449 0.0
Tb361 Tb 0.26162 0.01846 0.23497 0.0
C362 C 0.18404 0.98316 0.2985 0.0
C363 C 0.18946 0.96628 0.32197 0.0
C364 C 0.21738 0.96037 0.34495 0.0
C365 C 0.22064 0.94464 0.36734 0.0
C366 C 0.19599 0.93465 0.36705 0.0
C367 C 0.16857 0.94049 0.34361 0.0
C368 C 0.16535 0.95614 0.32139 0.0
C369 C 0.18599 0.04907 0.26905 0.0
C370 C 0.27846 0.01272 0.30581 0.0
C371 C 0.29312 0.03941 0.20967 0.0
C372 C 0.28652 0.05551 0.18447 0.0
C373 C 0.25762 0.07862 0.18606 0.0
C374 C 0.25412 0.09395 0.16316 0.0
C375 C 0.27977 0.08662 0.13836 0.0
C376 C 0.30836 0.06347 0.13662 0.0
C377 C 0.31167 0.04811 0.15941 0.0
C378 C 0.29212 0.97327 0.24058 0.0
C379 C 0.19989 0.0096 0.20357 0.0
O380 O 0.20683 0.97562 0.27491 0.0
O381 O 0.17885 1.00308 0.3075 0.0
O382 O 0.20193 0.03448 0.24845 0.0
O383 O 0.18395 0.03862 0.29298 0.0
O384 O 0.2613 0.99983 0.30703 0.0
O385 O 0.27831 0.02345 0.28063 0.0
O386 O 0.27014 0.04717 0.23318 0.0
O387 O 0.30076 0.01866 0.20254 0.0
O388 O 0.27631 0.98795 0.26106 0.0
O389 O 0.2942 0.98366 0.2166 0.0
O390 O 0.21735 0.02233 0.20228 0.0
O391 O 0.19981 0.99903 0.22881 0.0
H392 H 0.23634 0.96801 0.34568 0.0
H393 H 0.24197 0.9406 0.3851 0.0
H394 H 0.14976 0.93278 0.34218 0.0
H395 H 0.14381 0.9604 0.3037 0.0
H396 H 0.23833 0.08508 0.20533 0.0
H397 H 0.23218 0.11174 0.16545 0.0
H398 H 0.32839 0.05725 0.11772 0.0
H399 H 0.33451 0.03047 0.15774 0.0
Tb400 Tb 0.51826 0.26475 0.77744 0.0
Tb401 Tb 0.47058 0.25513 0.73621 0.0
C402 C 0.54751 0.27927 0.81699 0.0
C403 C 0.53846 0.29958 0.83584 0.0
C404 C 0.52336 0.30161 0.86516 0.0
C405 C 0.51968 0.31926 0.88424 0.0
C406 C 0.53141 0.33512 0.87451 0.0
C407 C 0.54552 0.33341 0.84492 0.0
C408 C 0.54911 0.31583 0.82587 0.0
C409 C 0.55166 0.22072 0.76079 0.0
C410 C 0.45038 0.25776 0.80323 0.0
C411 C 0.4419 0.24033 0.69662 0.0
C412 C 0.45169 0.22039 0.67685 0.0
C413 C 0.45444 0.20006 0.68859 0.0
C414 C 0.45713 0.18281 0.66929 0.0
C415 C 0.45725 0.18544 0.63784 0.0
C416 C 0.4564 0.20526 0.62612 0.0
C417 C 0.45338 0.22263 0.64543 0.0
C418 C 0.43655 0.29907 0.75307 0.0
C419 C 0.53781 0.26289 0.71068 0.0
O420 O 0.55075 0.28123 0.78799 0.0
O421 O 0.5299 0.26735 0.82319 0.0
O422 O 0.51615 0.23366 0.76641 0.0
O423 O 0.57011 0.23183 0.76694 0.0
O424 O 0.46759 0.27058 0.80508 0.0
O425 O 0.4542 0.24581 0.77864 0.0
O426 O 0.44029 0.2374 0.72558 0.0
O427 O 0.45755 0.25331 0.69049 0.0
O428 O 0.4722 0.28639 0.74736 0.0
O429 O 0.41854 0.28772 0.74684 0.0
O430 O 0.52146 0.2496 0.70884 0.0
O431 O 0.5332 0.27501 0.7352 0.0
H432 H 0.51544 0.28918 0.87372 0.0
H433 H 0.50898 0.31998 0.90697 0.0
H434 H 0.5542 0.34555 0.83652 0.0
H435 H 0.56126 0.31466 0.80355 0.0
H436 H 0.45313 0.19774 0.71266 0.0
H437 H 0.45836 0.16756 0.67899 0.0
H438 H 0.45625 0.20782 0.60198 0.0
H439 H 0.45085 0.2382 0.63573 0.0
Tb440 Tb 0.01804 0.7649 0.77491 0.0
Tb441 Tb 0.96895 0.75267 0.73625 0.0
C442 C 0.04826 0.7819 0.80981 0.0
C443 C 0.0402 0.80077 0.83101 0.0
C444 C 0.0205 0.80349 0.85854 0.0
C445 C 0.01729 0.82022 0.87925 0.0
C446 C 0.03402 0.83435 0.87289 0.0
C447 C 0.05271 0.8319 0.84498 0.0
C448 C 0.05583 0.81531 0.8244 0.0
C449 C 0.05175 0.72072 0.7599 0.0
C450 C 0.95095 0.758 0.80454 0.0
C451 C 0.93921 0.736 0.70046 0.0
C452 C 0.94773 0.72033 0.67467 0.0
C453 C 0.98078 0.69851 0.67402 0.0
C454 C 0.98475 0.68282 0.65146 0.0
C455 C 0.9557 0.68865 0.62925 0.0
C456 C 0.92373 0.71091 0.62922 0.0
C457 C 0.9198 0.72654 0.65171 0.0
C458 C 0.93517 0.79673 0.75185 0.0
C459 C 0.03528 0.76014 0.70662 0.0
O460 O 0.04039 0.78747 0.78145 0.0
O461 O 0.04015 0.76578 0.81791 0.0
O462 O 0.01636 0.73352 0.76624 0.0
O463 O 0.07011 0.73217 0.76439 0.0
O464 O 0.96974 0.77006 0.80526 0.0
O465 O 0.95139 0.74653 0.78019 0.0
O466 O 0.95471 0.72691 0.72647 0.0
O467 O 0.93914 0.75537 0.69561 0.0
O468 O 0.97049 0.78406 0.74507 0.0
O469 O 0.91691 0.78513 0.74793 0.0
O470 O 0.01695 0.74786 0.70585 0.0
O471 O 0.03397 0.77191 0.73084 0.0
H472 H 0.00832 0.79244 0.86434 0.0
H473 H 0.00277 0.82163 0.90059 0.0
H474 H 0.06518 0.84278 0.83902 0.0
H475 H 0.07132 0.81351 0.80341 0.0
H476 H 0.00277 0.69328 0.69151 0.0
H477 H 0.00964 0.66579 0.65227 0.0
H478 H 0.9012 0.71612 0.61217 0.0
H479 H 0.89408 0.74327 0.65177 0.0
Tb480 Tb 0.71901 0.50399 0.27332 0.0
Tb481 Tb 0.76867 0.51557 0.23461 0.0
C482 C 0.68749 0.48792 0.30853 0.0
C483 C 0.69466 0.47024 0.33141 0.0
C484 C 0.7165 0.46756 0.35772 0.0
C485 C 0.71945 0.45179 0.37993 0.0
C486 C 0.70042 0.43858 0.37623 0.0
C487 C 0.67948 0.44101 0.34949 0.0
C488 C 0.67659 0.45667 0.32744 0.0
C489 C 0.68528 0.54801 0.2573 0.0
C490 C 0.78563 0.51096 0.30279 0.0
C491 C 0.79942 0.53171 0.19876 0.0
C492 C 0.7908 0.54851 0.17432 0.0
C493 C 0.75857 0.57062 0.17558 0.0
C494 C 0.75465 0.58722 0.15441 0.0
C495 C 0.78292 0.58202 0.13166 0.0
C496 C 0.81406 0.55953 0.12971 0.0
C497 C 0.81795 0.54299 0.15085 0.0
C498 C 0.80184 0.47147 0.2506 0.0
C499 C 0.70273 0.50822 0.20504 0.0
O500 O 0.6981 0.48079 0.28094 0.0
O501 O 0.69385 0.50488 0.3156 0.0
O502 O 0.72065 0.53539 0.26404 0.0
O503 O 0.66716 0.53639 0.26159 0.0
O504 O 0.76713 0.49876 0.30369 0.0
O505 O 0.78501 0.52242 0.2784 0.0
O506 O 0.78674 0.53982 0.22571 0.0
O507 O 0.79607 0.51353 0.19286 0.0
O508 O 0.76665 0.48434 0.24377 0.0
O509 O 0.82038 0.48289 0.24644 0.0
O510 O 0.72072 0.52068 0.20426 0.0
O511 O 0.70377 0.49659 0.22936 0.0
H512 H 0.73068 0.47787 0.36135 0.0
H513 H 0.73575 0.45036 0.40029 0.0
H514 H 0.66522 0.43078 0.34555 0.0
H515 H 0.65957 0.45845 0.30735 0.0
H516 H 0.73722 0.57531 0.19352 0.0
H517 H 0.73043 0.60438 0.15672 0.0
H518 H 0.83594 0.5548 0.11219 0.0
H519 H 0.84304 0.52605 0.14947 0.0
Tb520 Tb 0.78723 0.75598 0.02532 0.0
Tb521 Tb 0.70755 0.77013 0.99983 0.0
C522 C 0.85356 0.75201 0.03398 0.0
C523 C 0.86847 0.76842 0.03006 0.0
C524 C 0.87048 0.77694 1.00145 0.0
C525 C 0.87869 0.79508 0.99878 0.0
C526 C 0.88457 0.80526 0.02465 0.0
C527 C 0.8844 0.7959 0.05308 0.0
C528 C 0.87681 0.77758 0.0557 0.0
C529 C 0.73248 0.76403 0.06536 0.0
C530 C 0.73039 0.808 1.00411 0.0
C531 C 0.64235 0.77256 0.99081 0.0
C532 C 0.63331 0.75357 0.98833 0.0
C533 C 0.59922 0.75518 1.00115 0.0
C534 C 0.59286 0.7362 1.00112 0.0
C535 C 0.62068 0.71526 0.98842 0.0
C536 C 0.65462 0.7139 0.97548 0.0
C537 C 0.66077 0.7328 0.97534 0.0
C538 C 0.76242 0.76203 0.95977 0.0
C539 C 0.76445 0.71796 0.02133 0.0
O540 O 0.84423 0.74477 0.00945 0.0
O541 O 0.8274 0.75727 0.05531 0.0
O542 O 0.72851 0.77536 0.04156 0.0
O543 O 0.76862 0.74839 0.06823 0.0
O544 O 0.76631 0.79119 0.00914 0.0
O545 O 0.6999 0.80439 1.00434 0.0
O546 O 0.65393 0.7752 0.01749 0.0
O547 O 0.66412 0.7738 0.96919 0.0
O548 O 0.76618 0.7508 0.98361 0.0
O549 O 0.7262 0.7775 0.95673 0.0
O550 O 0.72911 0.73446 0.01413 0.0
O551 O 0.79464 0.72171 0.02317 0.0
H552 H 0.86435 0.77019 0.98118 0.0
H553 H 0.87942 0.80146 0.97647 0.0
H554 H 0.88818 0.80338 0.0736 0.0
H555 H 0.87548 0.77132 0.078 0.0
H556 H 0.57786 0.77099 0.01157 0.0
H557 H 0.56624 0.73793 0.01106 0.0
H558 H 0.67724 0.69799 0.96622 0.0
H559 H 0.68771 0.73089 0.96577 0.0
Tb560 Tb 0.44912 0.01503 0.5197 0.0
Tb561 Tb 0.52492 1.00744 0.49203 0.0
C562 C 0.38668 0.01375 0.52749 0.0
C563 C 0.37683 0.99544 0.52099 0.0
C564 C 0.38657 0.98388 0.49316 0.0
C565 C 0.38376 0.96391 0.4893 0.0
C566 C 0.37164 0.95503 0.5133 0.0
C567 C 0.36001 0.96728 0.54054 0.0
C568 C 0.36247 0.98733 0.54431 0.0
C569 C 0.50301 1.00927 0.55913 0.0
C570 C 0.51213 0.96551 0.49407 0.0
C571 C 0.58643 1.00883 0.47977 0.0
C572 C 0.59815 0.02651 0.48469 0.0
C573 C 0.59083 0.03829 0.51223 0.0
C574 C 0.59722 0.05711 0.51505 0.0
C575 C 0.6107 0.06462 0.49032 0.0
C576 C 0.61898 0.05231 0.46308 0.0
C577 C 0.6129 0.03342 0.46038 0.0
C578 C 0.46953 0.01319 0.45383 0.0
C579 C 0.46365 0.05647 0.51955 0.0
O580 O 0.39286 0.02378 0.50425 0.0
O581 O 0.41288 1.00877 0.54865 0.0
O582 O 0.50904 0.9988 0.53422 0.0
O583 O 0.46577 0.02184 0.56354 0.0
O584 O 0.47575 0.97998 0.50206 0.0
O585 O 0.5394 0.9718 0.49232 0.0
O586 O 0.58251 0.99859 0.50373 0.0
O587 O 0.55771 0.01459 0.46066 0.0
O588 O 0.46524 0.02383 0.4782 0.0
O589 O 0.50633 0.99947 0.44932 0.0
O590 O 0.49984 0.04189 0.51129 0.0
O591 O 0.43591 0.05051 0.52096 0.0
H592 H 0.39813 0.98959 0.47485 0.0
H593 H 0.39316 0.95476 0.46813 0.0
H594 H 0.35 0.96099 0.55926 0.0
H595 H 0.3549 0.99592 0.56595 0.0
H596 H 0.57906 0.03344 0.53132 0.0
H597 H 0.59104 0.06596 0.53647 0.0
H598 H 0.62873 0.05777 0.44338 0.0
H599 H 0.61829 0.02474 0.43885 0.0
Tb600 Tb 0.4508 0.51561 0.02467 0.0
Tb601 Tb 0.52471 0.50943 0.99375 0.0
C602 C 0.39071 0.51268 0.03628 0.0
C603 C 0.38251 0.49361 0.03005 0.0
C604 C 0.35354 0.49633 0.00916 0.0
C605 C 0.34882 0.47757 1.00071 0.0
C606 C 0.37325 0.45578 0.01285 0.0
C607 C 0.40139 0.45324 0.03433 0.0
C608 C 0.40596 0.4719 0.04287 0.0
C609 C 0.50852 0.50896 0.06053 0.0
C610 C 0.51199 0.46737 0.99421 0.0
C611 C 0.58591 0.51149 0.98311 0.0
C612 C 0.59595 0.52993 0.9878 0.0
C613 C 0.5896 0.54123 0.01568 0.0
C614 C 0.59447 0.5606 0.01845 0.0
C615 C 0.60543 0.56918 0.99335 0.0
C616 C 0.61265 0.55742 0.96573 0.0
C617 C 0.60816 0.53797 0.96307 0.0
C618 C 0.4675 0.51602 0.95748 0.0
C619 C 0.46294 0.55789 0.02311 0.0
O620 O 0.39361 0.52354 0.01257 0.0
O621 O 0.41811 0.50856 0.05617 0.0
O622 O 0.51147 0.49924 0.03554 0.0
O623 O 0.47197 0.52189 0.06715 0.0
O624 O 0.47648 0.48131 1.00461 0.0
O625 O 0.53903 0.47381 0.99165 0.0
O626 O 0.58123 0.50169 0.00727 0.0
O627 O 0.55873 0.51601 0.96292 0.0
O628 O 0.46401 0.52553 0.98273 0.0
O629 O 0.50409 0.50429 0.95027 0.0
O630 O 0.49866 0.54395 0.01311 0.0
O631 O 0.43611 0.5513 0.02596 0.0
H632 H 0.33525 0.51282 0.99881 0.0
H633 H 0.32682 0.47995 0.98414 0.0
H634 H 0.42015 0.43672 0.04444 0.0
H635 H 0.42869 0.46907 0.05895 0.0
H636 H 0.57981 0.53553 0.03514 0.0
H637 H 0.58915 0.569 0.04016 0.0
H638 H 0.6204 0.56367 0.94573 0.0
H639 H 0.6128 0.52969 0.9413 0.0
H640 H 0.02498 0.07334 0.01572 0.0
H641 H 0.88843 0.18312 0.11503 0.0
H642 H 0.90427 0.09395 0.03548 0.0
H643 H 0.01055 0.1601 0.09779 0.0
H644 H 0.89157 0.15316 0.0817 0.0
H645 H 0.01778 0.10755 0.04066 0.0
C646 C -0.00335 0.08526 0.02478 0.0
C647 C 0.96514 0.08067 0.02333 0.0
C648 C 0.91762 0.15474 0.08503 0.0
C649 C 0.95697 0.11991 0.05287 0.0
C650 C 0.91583 0.17197 0.10395 0.0
C651 C 0.94932 0.17418 0.10934 0.0
C652 C 0.95318 0.13952 0.07132 0.0
C653 C 0.98411 0.1589 0.09469 0.0
C654 C -0.00732 0.10479 0.03931 0.0
C655 C 0.92936 0.09675 0.03596 0.0
N656 N 0.98515 0.14221 0.07647 0.0
N657 N 0.92635 0.11555 0.05043 0.0
H658 H 0.83964 0.22388 0.45104 0.0
H659 H 0.91265 0.29372 0.34728 0.0
H660 H 0.76557 0.2953 0.43089 0.0
H661 H 0.9363 0.22547 0.32407 0.0
H662 H 0.87142 0.29363 0.38936 0.0
H663 H 0.88873 0.2234 0.41548 0.0
C664 C 0.83402 0.23947 0.43943 0.0
C665 C 0.79847 0.25956 0.44346 0.0
C666 C 0.88604 0.27864 0.37516 0.0
C667 C 0.85436 0.2593 0.40371 0.0
C668 C 0.90958 0.27864 0.3513 0.0
C669 C 0.92755 0.25965 0.33207 0.0
C670 C 0.88145 0.25927 0.38026 0.0
C671 C 0.92256 0.24055 0.33819 0.0
C672 C 0.86184 0.23918 0.41919 0.0
C673 C 0.79246 0.27937 0.42799 0.0
N674 N 0.9001 0.24079 0.36182 0.0
N675 N 0.82017 0.27879 0.40887 0.0
H676 H 0.83736 0.10071 0.64585 0.0
H677 H 0.72221 0.19944 0.52447 0.0
H678 H 0.73337 0.11042 0.59954 0.0
H679 H 0.83283 0.18612 0.56248 0.0
H680 H 0.72698 0.16628 0.551 0.0
H681 H 0.83646 0.13193 0.61599 0.0
C682 C 0.81421 0.1095 0.62956 0.0
C683 C 0.78543 0.10289 0.62519 0.0
C684 C 0.75047 0.17041 0.55335 0.0
C685 C 0.78447 0.13846 0.59071 0.0
C686 C 0.74788 0.18934 0.53798 0.0
C687 C 0.7772 0.19564 0.54104 0.0
C688 C 0.78249 0.15767 0.57233 0.0
C689 C 0.80958 0.18189 0.55925 0.0
C690 C 0.81392 0.12718 0.61233 0.0
C691 C 0.75643 0.11471 0.60345 0.0
N692 N 0.8112 0.16368 0.57442 0.0
N693 N 0.75667 0.13189 0.58713 0.0
H694 H 0.98925 0.99692 0.89285 0.0
H695 H 0.78154 0.01437 0.86026 0.0
H696 H 0.89666 0.04281 0.95179 0.0
H697 H 0.84817 0.02304 0.78865 0.0
H698 H 0.82556 0.01771 0.89733 0.0
H699 H 0.94045 0.99919 0.85669 0.0
C700 C 0.95861 1.00743 0.8983 0.0
C701 C 0.947 0.01931 0.92575 0.0
C702 C 0.83012 0.01908 0.87348 0.0
C703 C 0.8911 0.02148 0.88461 0.0
C704 C 0.80533 0.01701 0.85238 0.0
C705 C 0.81133 0.01841 0.82138 0.0
C706 C 0.86169 0.02181 0.86337 0.0
C707 C 0.84245 0.02195 0.81233 0.0
C708 C 0.93086 1.0087 0.8776 0.0
C709 C 0.90683 0.0328 0.93137 0.0
N710 N 0.86687 0.02313 0.8332 0.0
N711 N 0.88015 0.03323 0.91116 0.0
H712 H 0.08191 0.97171 0.06625 0.0
H713 H 0.16188 0.04233 0.16044 0.0
H714 H 0.01212 0.04409 0.08248 0.0
H715 H 0.18558 0.97478 0.1879 0.0
H716 H 0.11896 0.04159 0.12044 0.0
H717 H 0.13258 0.97107 0.10009 0.0
C718 C 0.07754 0.98745 0.07669 0.0
C719 C 0.04279 1.00791 0.07203 0.0
C720 C 0.13397 0.02687 0.13507 0.0
C721 C 0.10044 1.00744 0.10974 0.0
C722 C 0.15852 0.02723 0.15775 0.0
C723 C 0.17702 1.00865 0.17759 0.0
C724 C 0.12874 1.00758 0.13179 0.0
C725 C 0.17153 0.98954 0.17322 0.0
C726 C 0.10624 0.98707 0.09595 0.0
C727 C 0.03836 0.02791 0.08592 0.0
N728 N 0.14795 0.98945 0.15072 0.0
N729 N 0.06692 0.02721 0.10406 0.0
H730 H 0.96561 0.44853 0.49222 0.0
H731 H 0.09633 0.33837 0.39117 0.0
H732 H 0.08141 0.43067 0.46068 0.0
H733 H 0.97477 0.36176 0.41131 0.0
H734 H 0.09401 0.36919 0.42214 0.0
H735 H 0.97136 0.41405 0.46852 0.0
C736 C -0.00757 0.43727 0.48055 0.0
C737 C 0.02288 0.44273 0.47813 0.0
C738 C 0.06789 0.36753 0.41996 0.0
C739 C 0.0297 0.40303 0.45099 0.0
C740 C 0.06923 0.34981 0.40242 0.0
C741 C 0.03567 0.34741 0.39859 0.0
C742 C 0.03274 0.38306 0.43392 0.0
C743 C 0.00123 0.36307 0.41334 0.0
C744 C -0.00435 0.41755 0.467 0.0
C745 C 0.05713 0.42724 0.46309 0.0
N746 N 0.00064 0.38024 0.4303 0.0
N747 N 0.05949 0.4082 0.44992 0.0
H748 H 0.65919 0.30122 0.57651 0.0
H749 H 0.58354 0.22866 0.67141 0.0
H750 H 0.73519 0.2305 0.59922 0.0
H751 H 0.54935 0.29863 0.69431 0.0
H752 H 0.62923 0.22944 0.63372 0.0
H753 H 0.60819 0.30086 0.60904 0.0
C754 C 0.66495 0.28563 0.58817 0.0
C755 C 0.70144 0.26596 0.58559 0.0
C756 C 0.61139 0.24465 0.64686 0.0
C757 C 0.64338 0.26525 0.62189 0.0
C758 C 0.58524 0.24426 0.66819 0.0
C759 C 0.56285 0.26357 0.68606 0.0
C760 C 0.61429 0.26467 0.64287 0.0
C761 C 0.56634 0.28332 0.68113 0.0
C762 C 0.63601 0.28544 0.60668 0.0
C763 C 0.70755 0.24611 0.601 0.0
N764 N 0.59145 0.28341 0.6599 0.0
N765 N 0.67874 0.24621 0.61837 0.0
H766 H 0.65073 0.93731 0.91168 0.0
H767 H 0.78636 0.82149 1.00124 0.0
H768 H 0.77571 0.90836 0.9203 0.0
H769 H 0.6641 0.84555 0.98315 0.0
H770 H 0.78076 0.856 0.97768 0.0
H771 H 0.65341 0.9066 0.94335 0.0
C772 C 0.67872 0.92468 0.92057 0.0
C773 C 0.71308 0.92548 0.91324 0.0
C774 C 0.75514 0.8538 0.97907 0.0
C775 C 0.71635 0.88998 0.94934 0.0
C776 C 0.75818 0.83413 0.99267 0.0
C777 C 0.72566 0.83045 0.99406 0.0
C778 C 0.71941 0.87002 0.96663 0.0
C779 C 0.68997 0.84758 0.98259 0.0
C780 C 0.68022 0.90704 0.9385 0.0
C781 C 0.74854 0.90834 0.92504 0.0
N782 N 0.68788 0.86652 0.96915 0.0
N783 N 0.74925 0.89129 0.94241 0.0
H784 H 0.2258 0.22512 0.08538 0.0
H785 H 0.04355 0.29709 0.1878 0.0
H786 H 0.1526 0.29733 0.06982 0.0
H787 H 0.07583 0.22737 0.16516 0.0
H788 H 0.08612 0.29744 0.14744 0.0
H789 H 0.17449 0.225 0.11721 0.0
C790 C 0.19884 0.24096 0.08867 0.0
C791 C 0.19347 0.26135 0.07528 0.0
C792 C 0.08352 0.28216 0.15103 0.0
C793 C 0.13507 0.26137 0.11199 0.0
C794 C 0.05939 0.28191 0.1741 0.0
C795 C 0.05624 0.26215 0.1798 0.0
C796 C 0.10565 0.2623 0.13404 0.0
C797 C 0.07732 0.24297 0.16136 0.0
C798 C 0.16953 0.24082 0.10664 0.0
C799 C 0.15787 0.2813 0.07991 0.0
N800 N 0.10174 0.24336 0.13962 0.0
N801 N 0.13024 0.28092 0.09834 0.0
H802 H 0.64106 0.43092 0.39565 0.0
H803 H 0.77937 0.32517 0.50069 0.0
H804 H 0.76305 0.40925 0.41105 0.0
H805 H 0.66122 0.34205 0.47731 0.0
H806 H 0.77054 0.35947 0.47438 0.0
H807 H 0.64522 0.40181 0.4311 0.0
C808 C 0.66877 0.42004 0.4065 0.0
C809 C 0.70194 0.42233 0.39993 0.0
C810 C 0.74649 0.35575 0.47518 0.0
C811 C 0.70674 0.38905 0.44096 0.0
C812 C 0.75139 0.3362 0.49032 0.0
C813 C 0.72108 0.33054 0.491 0.0
C814 C 0.71115 0.36976 0.46038 0.0
C815 C 0.68543 0.34565 0.47733 0.0
C816 C 0.67104 0.4035 0.42689 0.0
C817 C 0.73673 0.40815 0.41537 0.0
N818 N 0.6816 0.36444 0.46231 0.0
N819 N 0.7383 0.39199 0.43495 0.0
H820 H 0.48961 0.03056 0.61308 0.0
H821 H 0.70587 1.00067 0.65165 0.0
H822 H 0.58367 0.98338 0.55628 0.0
H823 H 0.62317 1.00751 0.72088 0.0
H824 H 0.66079 1.00006 0.61336 0.0
H825 H 0.53739 0.0283 0.65019 0.0
C826 C 0.52039 0.01977 0.60831 0.0
C827 C 0.53271 1.00733 0.58132 0.0
C828 C 0.65281 1.00154 0.63698 0.0
C829 C 0.58756 1.00501 0.62364 0.0
C830 C 0.6783 1.00202 0.65879 0.0
C831 C 0.66822 1.00413 0.68949 0.0
C832 C 0.61664 1.00382 0.64597 0.0
C833 C 0.63221 1.00574 0.69751 0.0
C834 C 0.54758 0.01849 0.62955 0.0
C835 C 0.57298 0.99364 0.57643 0.0
N836 N 0.60754 1.00584 0.67587 0.0
N837 N 0.59913 0.993 0.5973 0.0
H838 H 0.08218 0.93148 0.96713 0.0
H839 H 0.97285 0.86334 0.90924 0.0
H840 H 0.96179 0.95145 0.98729 0.0
H841 H 0.09239 0.84427 0.88743 0.0
H842 H 0.97045 0.89314 0.94276 0.0
H843 H 0.08879 0.89688 0.9428 0.0
C844 C 0.05732 0.92845 0.9669 0.0
C845 C 0.02134 0.94453 0.9792 0.0
C846 C -0.00271 0.88234 0.93076 0.0
C847 C 0.02855 0.90504 0.95102 0.0
C848 C -0.00129 0.86524 0.91172 0.0
C849 C 0.03269 0.85145 0.89513 0.0
C850 C 0.03011 0.88568 0.93331 0.0
C851 C 0.06526 0.85482 0.89919 0.0
C852 C 0.06105 0.90872 0.95288 0.0
C853 C 0.99012 0.93963 0.97812 0.0
N854 N 0.06307 0.87164 0.91767 0.0
N855 N -0.00565 0.92048 0.96407 0.0
H856 H 0.08375 0.10257 0.93688 0.0
H857 H 0.14265 0.18248 0.02969 0.0
H858 H 0.12742 0.08584 0.02803 0.0
H859 H 0.05461 0.20809 0.95996 0.0
H860 H 0.14259 0.14593 0.02807 0.0
H861 H 0.07955 0.14 0.94257 0.0
C862 C 0.09234 0.10675 0.95816 0.0
C863 C 0.1057 0.091 0.98209 0.0
C864 C 0.12312 0.15966 0.01331 0.0
C865 C 0.10158 0.13381 0.98849 0.0
C866 C 0.12291 0.18063 0.01433 0.0
C867 C 0.099 0.19845 0.99463 0.0
C868 C 0.09965 0.15635 0.99218 0.0
C869 C 0.07437 0.19475 0.97501 0.0
C870 C 0.08996 0.12814 0.96135 0.0
C871 C 0.1174 0.09727 0.00883 0.0
N872 N 0.07568 0.17405 0.97404 0.0
N873 N 0.11516 0.11819 0.01129 0.0
H874 H 0.60713 0.57718 0.25101 0.0
H875 H 0.62763 0.69134 0.25581 0.0
H876 H 0.71757 0.57678 0.25728 0.0
H877 H 0.51652 0.69226 0.25563 0.0
H878 H 0.6608 0.64959 0.253 0.0
H879 H 0.57362 0.61907 0.24933 0.0
C880 C 0.62439 0.58592 0.25191 0.0
C881 C 0.66526 0.57341 0.25449 0.0
C882 C 0.62918 0.65884 0.25351 0.0
C883 C 0.62691 0.62159 0.25257 0.0
C884 C 0.61015 0.68275 0.2551 0.0
C885 C 0.56917 0.69537 0.25622 0.0
C886 C 0.60723 0.64724 0.25295 0.0
C887 C 0.54815 0.68324 0.255 0.0
C888 C 0.60518 0.60988 0.25098 0.0
C889 C 0.68604 0.58569 0.25541 0.0
N890 N 0.56738 0.65988 0.25355 0.0
N891 N 0.66666 0.60904 0.25455 0.0
H892 H 0.42345 0.8154 0.54425 0.0
H893 H 0.34665 0.93806 0.46681 0.0
H894 H 0.33748 0.83996 0.47301 0.0
H895 H 0.40256 0.92007 0.5539 0.0
H896 H 0.35108 0.9001 0.46383 0.0
H897 H 0.42442 0.85165 0.54295 0.0
C898 C 0.40473 0.82836 0.52831 0.0
C899 C 0.37982 0.82462 0.50906 0.0
C900 C 0.36234 0.90452 0.48357 0.0
C901 C 0.38138 0.86617 0.50714 0.0
C902 C 0.3599 0.9261 0.48524 0.0
C903 C 0.37383 0.93228 0.51081 0.0
C904 C 0.37935 0.88894 0.50743 0.0
C905 C 0.39079 0.91616 0.53404 0.0
C906 C 0.40545 0.84905 0.52752 0.0
C907 C 0.35721 0.84193 0.48826 0.0
N908 N 0.39312 0.89525 0.53178 0.0
N909 N 0.35837 0.86198 0.48796 0.0
H910 H 0.12956 0.69108 0.75262 0.0
H911 H 0.10561 0.57798 0.75555 0.0
H912 H 0.01824 0.69262 0.75942 0.0
H913 H 0.2173 0.57631 0.75415 0.0
H914 H 0.07309 0.61983 0.75333 0.0
H915 H 0.16191 0.64926 0.74963 0.0
C916 C 0.11188 0.68261 0.75335 0.0
C917 C 0.07111 0.6954 0.75644 0.0
C918 C 0.1047 0.61036 0.75339 0.0
C919 C 0.10807 0.64732 0.75302 0.0
C920 C 0.12333 0.58643 0.75461 0.0
C921 C 0.16428 0.57358 0.75523 0.0
C922 C 0.1271 0.62171 0.75274 0.0
C923 C 0.18569 0.58549 0.75383 0.0
C924 C 0.1304 0.65869 0.75166 0.0
C925 C 0.04972 0.68347 0.75712 0.0
N926 N 0.16688 0.60884 0.75278 0.0
N927 N 0.06843 0.66015 0.75555 0.0
H928 H 0.94573 0.31546 0.52651 0.0
H929 H 0.84257 0.44375 0.46286 0.0
H930 H 0.83989 0.34433 0.47365 0.0
H931 H 0.92939 0.41875 0.53327 0.0
H932 H 0.84914 0.4053 0.45846 0.0
H933 H 0.94827 0.3511 0.52067 0.0
C934 C 0.92307 0.32923 0.51358 0.0
C935 C 0.89202 0.327 0.50116 0.0
C936 C 0.86687 0.40825 0.47474 0.0
C937 C 0.89501 0.36785 0.49415 0.0
C938 C 0.86316 0.43012 0.47721 0.0
C939 C 0.8849 0.43444 0.49888 0.0
C940 C 0.89289 0.39063 0.49379 0.0
C941 C 0.91139 0.41622 0.5168 0.0
C942 C 0.92463 0.34956 0.51016 0.0
C943 C 0.86425 0.34524 0.48379 0.0
N944 N 0.91453 0.39516 0.51394 0.0
N945 N 0.86614 0.36498 0.48108 0.0
H946 H 0.28493 0.94746 0.2863 0.0
H947 H 0.46654 0.82912 0.2351 0.0
H948 H 0.35008 0.94155 0.20516 0.0
H949 H 0.36482 0.83108 0.27603 0.0
H950 H 0.43203 0.87121 0.23335 0.0
H951 H 0.32128 0.9055 0.29183 0.0
C952 C 0.30689 0.93737 0.26971 0.0
C953 C 0.31421 0.94803 0.24506 0.0
C954 C 0.41742 0.8624 0.2429 0.0
C955 C 0.35663 0.90018 0.25177 0.0
C956 C 0.43714 0.83841 0.24406 0.0
C957 C 0.4184 0.82659 0.25557 0.0
C958 C 0.37904 0.87471 0.25404 0.0
C959 C 0.38022 0.83953 0.26681 0.0
C960 C 0.32759 0.91346 0.27289 0.0
C961 C 0.34327 0.93408 0.22439 0.0
N962 N 0.36185 0.86286 0.2659 0.0
N963 N 0.36357 0.91097 0.22831 0.0
H964 H 0.3777 0.44267 0.75725 0.0
H965 H 0.35831 0.32814 0.75769 0.0
H966 H 0.26723 0.44284 0.75547 0.0
H967 H 0.46892 0.32781 0.75571 0.0
H968 H 0.32469 0.36995 0.76012 0.0
H969 H 0.41144 0.40085 0.75999 0.0
C970 C 0.36049 0.4339 0.75759 0.0
C971 C 0.31953 0.44632 0.75592 0.0
C972 C 0.3563 0.3608 0.75924 0.0
C973 C 0.35816 0.39819 0.75902 0.0
C974 C 0.37557 0.33688 0.75786 0.0
C975 C 0.41653 0.32442 0.75624 0.0
C976 C 0.37802 0.37255 0.75904 0.0
C977 C 0.43731 0.33671 0.75675 0.0
C978 C 0.37983 0.40997 0.75913 0.0
C979 C 0.29882 0.43399 0.7566 0.0
N980 N 0.41785 0.36006 0.75798 0.0
N981 N 0.31833 0.41065 0.75796 0.0
H982 H 0.154 0.79554 0.56701 0.0
H983 H 0.07685 0.72557 0.66638 0.0
H984 H 0.22723 0.72412 0.58769 0.0
H985 H 0.04805 0.79495 0.68808 0.0
H986 H 0.12106 0.72536 0.62652 0.0
H987 H 0.10348 0.79606 0.60089 0.0
C988 C 0.15924 0.77998 0.57851 0.0
C989 C 0.19488 0.75986 0.57498 0.0
C990 C 0.10468 0.74066 0.63988 0.0
C991 C 0.13729 0.76018 0.61289 0.0
C992 C 0.07938 0.74084 0.66244 0.0
C993 C 0.05901 0.76026 0.68062 0.0
C994 C 0.10875 0.76023 0.63503 0.0
C995 C 0.0635 0.77956 0.67472 0.0
C996 C 0.13056 0.78028 0.59778 0.0
C997 C 0.20031 0.74008 0.59023 0.0
N998 N 0.08777 0.7791 0.65237 0.0
N999 N 0.17175 0.74069 0.60843 0.0
H1000 H 0.13626 0.9308 0.39432 0.0
H1001 H 0.27822 0.8168 0.48476 0.0
H1002 H 0.26199 0.90044 0.39385 0.0
H1003 H 0.15489 0.84072 0.4725 0.0
H1004 H 0.27122 0.85069 0.4584 0.0
H1005 H 0.14144 0.90118 0.42929 0.0
C1006 C 0.16501 0.91791 0.40156 0.0
C1007 C 0.19878 0.91797 0.39066 0.0
C1008 C 0.24563 0.84865 0.4618 0.0
C1009 C 0.20483 0.88407 0.4312 0.0
C1010 C 0.24951 0.82932 0.47698 0.0
C1011 C 0.21712 0.82572 0.4807 0.0
C1012 C 0.2091 0.86465 0.45031 0.0
C1013 C 0.18072 0.84266 0.47009 0.0
C1014 C 0.16789 0.90106 0.42169 0.0
C1015 C 0.23513 0.90117 0.40162 0.0
N1016 N 0.17776 0.86129 0.45519 0.0
N1017 N 0.23719 0.88482 0.42108 0.0
H1018 H 0.89543 0.6816 0.61085 0.0
H1019 H 0.03104 0.5702 0.51359 0.0
H1020 H 0.01929 0.65565 0.59847 0.0
H1021 H 0.90995 0.59215 0.53399 0.0
H1022 H 0.02528 0.604 0.53913 0.0
H1023 H 0.8985 0.65171 0.57754 0.0
C1024 C 0.92324 0.66981 0.60082 0.0
C1025 C 0.95719 0.6712 0.60756 0.0
C1026 C -0.00017 0.6016 0.53769 0.0
C1027 C 0.96096 0.63658 0.56956 0.0
C1028 C 0.003 0.58229 0.52299 0.0
C1029 C 0.97094 0.57816 0.52174 0.0
C1030 C 0.9643 0.61705 0.55122 0.0
C1031 C 0.93547 0.59453 0.53443 0.0
C1032 C 0.92499 0.65262 0.58192 0.0
C1033 C -0.00753 0.65511 0.59424 0.0
N1034 N 0.93319 0.61316 0.5488 0.0
N1035 N -0.00655 0.63845 0.57597 0.0
H1036 H 0.25612 0.79369 0.423 0.0
H1037 H 0.43098 0.72242 0.31331 0.0
H1038 H 0.32509 0.72074 0.43483 0.0
H1039 H 0.40941 0.78856 0.34524 0.0
H1040 H 0.38692 0.72189 0.35255 0.0
H1041 H 0.30672 0.79299 0.38952 0.0
C1042 C 0.282 0.77752 0.41851 0.0
C1043 C 0.2865 0.75721 0.43147 0.0
C1044 C 0.39216 0.7364 0.35106 0.0
C1045 C 0.34384 0.75622 0.3927 0.0
C1046 C 0.41706 0.73679 0.32862 0.0
C1047 C 0.42381 0.75558 0.32602 0.0
C1048 C 0.37305 0.75521 0.37046 0.0
C1049 C 0.40512 0.7737 0.34652 0.0
C1050 C 0.31086 0.77716 0.39956 0.0
C1051 C 0.32066 0.73674 0.42519 0.0
N1052 N 0.38014 0.77323 0.3676 0.0
N1053 N 0.34781 0.73668 0.40577 0.0
H1054 H 0.34049 0.09008 0.11234 0.0
H1055 H 0.20072 0.20434 0.02138 0.0
H1056 H 0.21469 0.12139 0.11184 0.0
H1057 H 0.32468 0.17904 0.03216 0.0
H1058 H 0.207 0.17075 0.04801 0.0
H1059 H 0.33653 0.11926 0.07689 0.0
C1060 C 0.31204 0.10292 0.10449 0.0
C1061 C 0.27784 0.10334 0.11523 0.0
C1062 C 0.23288 0.1724 0.04419 0.0
C1063 C 0.27311 0.13693 0.07478 0.0
C1064 C 0.22942 0.19156 0.02884 0.0
C1065 C 0.2622 0.1947 0.02467 0.0
C1066 C 0.26938 0.15611 0.05542 0.0
C1067 C 0.29856 0.17744 0.03492 0.0
C1068 C 0.30981 0.11966 0.08437 0.0
C1069 C 0.24178 0.12058 0.10452 0.0
N1070 N 0.30112 0.15898 0.05002 0.0
N1071 N 0.24037 0.1367 0.08499 0.0
H1072 H 0.76517 0.79783 0.93301 0.0
H1073 H 0.9357 0.72381 0.82157 0.0
H1074 H 0.83218 0.72476 0.94456 0.0
H1075 H 0.91378 0.79128 0.84744 0.0
H1076 H 0.89429 0.72412 0.86333 0.0
H1077 H 0.81561 0.79652 0.89885 0.0
C1078 C 0.79065 0.7815 0.92838 0.0
C1079 C 0.79449 0.76132 0.94131 0.0
C1080 C 0.89888 0.73875 0.86005 0.0
C1081 C 0.85178 0.75966 0.90186 0.0
C1082 C 0.92228 0.73866 0.83614 0.0
C1083 C 0.92804 0.7576 0.83098 0.0
C1084 C 0.88019 0.75816 0.87848 0.0
C1085 C 0.91016 0.77632 0.85068 0.0
C1086 C 0.81947 0.7808 0.90905 0.0
C1087 C 0.8282 0.74066 0.93491 0.0
N1088 N 0.88648 0.7763 0.87328 0.0
N1089 N 0.85527 0.74028 0.91514 0.0
H1090 H 0.21245 0.61113 0.59277 0.0
H1091 H 0.3257 0.67761 0.53771 0.0
H1092 H 0.33521 0.5869 0.6084 0.0
H1093 H 0.20652 0.69777 0.5133 0.0
H1094 H 0.33088 0.64304 0.56112 0.0
H1095 H 0.21025 0.64214 0.56177 0.0
C1096 C 0.23896 0.61227 0.58959 0.0
C1097 C 0.27405 0.59637 0.60325 0.0
C1098 C 0.30368 0.65494 0.5504 0.0
C1099 C 0.27179 0.63184 0.56778 0.0
C1100 C 0.30077 0.67466 0.53689 0.0
C1101 C 0.26545 0.69082 0.52379 0.0
C1102 C 0.271 0.65138 0.55098 0.0
C1103 C 0.23414 0.68602 0.52351 0.0
C1104 C 0.23775 0.62992 0.57176 0.0
C1105 C 0.3076 0.59857 0.59806 0.0
N1106 N 0.23752 0.66689 0.53716 0.0
N1107 N 0.30557 0.61604 0.58096 0.0
H1108 H 0.28942 0.04844 0.32265 0.0
H1109 H 0.47175 0.97711 0.42392 0.0
H1110 H 0.31998 0.97927 0.34734 0.0
H1111 H 0.39599 0.04844 0.44336 0.0
H1112 H 0.4207 0.97709 0.39177 0.0
H1113 H 0.33217 0.04891 0.36281 0.0
C1114 C 0.30494 0.03342 0.3367 0.0
C1115 C 0.30129 0.01377 0.33171 0.0
C1116 C 0.41516 0.99268 0.40327 0.0
C1117 C 0.35069 0.01404 0.37708 0.0
C1118 C 0.44428 0.99276 0.42139 0.0
C1119 C 0.43799 0.01288 0.43601 0.0
C1120 C 0.38005 0.01305 0.399 0.0
C1121 C 0.40184 0.03263 0.43235 0.0
C1122 C 0.32911 0.03375 0.35964 0.0
C1123 C 0.32191 0.99478 0.35058 0.0
N1124 N 0.37438 0.03236 0.41371 0.0
N1125 N 0.34635 0.99522 0.37212 0.0
H1126 H 0.84855 0.84075 0.98425 0.0
H1127 H 0.90584 0.92326 0.07468 0.0
H1128 H 0.92785 0.81872 0.05998 0.0
H1129 H 0.85613 0.93916 0.98525 0.0
H1130 H 0.90931 0.88587 0.07131 0.0
H1131 H 0.84776 0.8775 0.98502 0.0
C1132 C 0.8661 0.84346 1.00088 0.0
C1133 C 0.88771 0.8266 0.02245 0.0
C1134 C 0.89768 0.89752 0.0524 0.0
C1135 C 0.88642 0.86892 0.02368 0.0
C1136 C 0.8957 0.91889 0.05429 0.0
C1137 C 0.88089 0.93436 0.03013 0.0
C1138 C 0.88446 0.89157 0.02626 0.0
C1139 C 0.86737 0.9279 1.00455 0.0
C1140 C 0.86545 0.86456 1.00136 0.0
C1141 C 0.90982 0.83132 0.04343 0.0
N1142 N 0.86949 0.90697 1.00328 0.0
N1143 N 0.90831 0.85208 0.04368 0.0
H1144 H 0.58955 0.19778 0.5316 0.0
H1145 H 0.66648 0.07292 0.46431 0.0
H1146 H 0.6537 0.17526 0.44791 0.0
H1147 H 0.56359 0.10465 0.52071 0.0
H1148 H 0.66905 0.10871 0.46414 0.0
H1149 H 0.58512 0.16237 0.53316 0.0
C1150 C 0.60238 0.18557 0.51342 0.0
C1151 C 0.62231 0.18953 0.48969 0.0
C1152 C 0.64594 0.1078 0.47657 0.0
C1153 C 0.61823 0.14878 0.49189 0.0
C1154 C 0.64435 0.08739 0.47662 0.0
C1155 C 0.61452 0.08574 0.49227 0.0
C1156 C 0.61784 0.12672 0.49258 0.0
C1157 C 0.58736 0.10498 0.50855 0.0
C1158 C 0.60006 0.16531 0.51448 0.0
C1159 C 0.63886 0.17282 0.46704 0.0
N1160 N 0.58966 0.12469 0.50827 0.0
N1161 N 0.63671 0.15316 0.46884 0.0
H1162 H 0.76726 0.44404 0.253 0.0
H1163 H 0.9705 0.32588 0.25296 0.0
H1164 H 0.87996 0.44103 0.2552 0.0
H1165 H 0.85757 0.32936 0.2581 0.0
H1166 H 0.9383 0.36788 0.25473 0.0
H1167 H 0.79979 0.40212 0.25574 0.0
C1168 C 0.79885 0.43456 0.25419 0.0
C1169 C 0.82088 0.4461 0.25374 0.0
C1170 C 0.92053 0.35947 0.25558 0.0
C1171 C 0.85855 0.39792 0.25672 0.0
C1172 C 0.93896 0.33547 0.2546 0.0
C1173 C 0.91673 0.32405 0.25524 0.0
C1174 C 0.87947 0.37225 0.25706 0.0
C1175 C 0.87591 0.3374 0.25742 0.0
C1176 C 0.81747 0.41059 0.25574 0.0
C1177 C 0.86178 0.43287 0.25538 0.0
N1178 N 0.85867 0.36069 0.25808 0.0
N1179 N 0.87924 0.40958 0.25664 0.0
H1180 H 0.16429 0.57343 0.5216 0.0
H1181 H 0.04278 0.70843 0.49208 0.0
H1182 H 0.05083 0.60733 0.47934 0.0
H1183 H 0.15934 0.67476 0.52902 0.0
H1184 H 0.04201 0.67203 0.49343 0.0
H1185 H 0.15988 0.61086 0.53069 0.0
C1186 C 0.13835 0.58874 0.51445 0.0
C1187 C 0.10819 0.58724 0.49922 0.0
C1188 C 0.06765 0.67263 0.50152 0.0
C1189 C 0.10294 0.63004 0.50945 0.0
C1190 C 0.06811 0.69341 0.50069 0.0
C1191 C 0.1013 0.69461 0.5102 0.0
C1192 C 0.10074 0.65282 0.51174 0.0
C1193 C 0.13305 0.67467 0.52162 0.0
C1194 C 0.13588 0.61008 0.51955 0.0
C1195 C 0.07524 0.60764 0.49044 0.0
N1196 N 0.13215 0.65455 0.52179 0.0
N1197 N 0.07359 0.62814 0.49554 0.0
H1198 H 0.72083 0.07549 0.75204 0.0
H1199 H 0.51698 0.19341 0.75626 0.0
H1200 H 0.60809 0.07863 0.75642 0.0
H1201 H 0.62974 0.19038 0.75677 0.0
H1202 H 0.54963 0.1515 0.75273 0.0
H1203 H 0.68811 0.11749 0.75003 0.0
C1204 C 0.68921 0.08501 0.7524 0.0
C1205 C 0.6672 0.0735 0.75464 0.0
C1206 C 0.56728 0.15997 0.75354 0.0
C1207 C 0.6294 0.12168 0.75242 0.0
C1208 C 0.5486 0.18393 0.75555 0.0
C1209 C 0.57066 0.19542 0.75708 0.0
C1210 C 0.60839 0.14733 0.75302 0.0
C1211 C 0.61157 0.18223 0.75584 0.0
C1212 C 0.67049 0.10901 0.75131 0.0
C1213 C 0.62626 0.08676 0.75489 0.0
N1214 N 0.62906 0.15897 0.75402 0.0
N1215 N 0.60876 0.11004 0.75394 0.0
H1216 H 0.84372 0.58852 0.11265 0.0
H1217 H 0.70678 0.7061 0.02756 0.0
H1218 H 0.71871 0.61729 0.10445 0.0
H1219 H 0.83093 0.67927 0.03945 0.0
H1220 H 0.71188 0.67162 0.05053 0.0
H1221 H 0.84062 0.61948 0.08139 0.0
C1222 C 0.81563 0.60117 0.10396 0.0
C1223 C 0.78139 0.60023 0.11127 0.0
C1224 C 0.73812 0.67312 0.04785 0.0
C1225 C 0.77763 0.63607 0.07567 0.0
C1226 C 0.73532 0.69278 0.03442 0.0
C1227 C 0.76853 0.69566 0.03138 0.0
C1228 C 0.77437 0.65613 0.05858 0.0
C1229 C 0.80454 0.67786 0.04128 0.0
C1230 C 0.81388 0.61896 0.08624 0.0
C1231 C 0.74579 0.61743 0.09976 0.0
N1232 N 0.80644 0.65895 0.05462 0.0
N1233 N 0.74484 0.63465 0.08263 0.0
H1234 H 0.906 0.54844 0.4372 0.0
H1235 H 0.82796 0.47654 0.34309 0.0
H1236 H 0.97883 0.47676 0.41791 0.0
H1237 H 0.79628 0.54636 0.32119 0.0
H1238 H 0.87229 0.47687 0.38237 0.0
H1239 H 0.85405 0.54826 0.40596 0.0
C1240 C 0.91082 0.53267 0.42659 0.0
C1241 C 0.94672 0.51268 0.42964 0.0
C1242 C 0.8552 0.49215 0.36913 0.0
C1243 C 0.88764 0.51221 0.39476 0.0
C1244 C 0.82985 0.49202 0.34692 0.0
C1245 C 0.80879 0.5114 0.32881 0.0
C1246 C 0.85859 0.51198 0.3736 0.0
C1247 C 0.81236 0.531 0.33451 0.0
C1248 C 0.88134 0.53257 0.40884 0.0
C1249 C 0.95166 0.49261 0.41564 0.0
N1250 N 0.83676 0.53081 0.35644 0.0
N1251 N 0.92239 0.49284 0.39882 0.0
H1252 H 0.15224 0.48558 0.71041 0.0
H1253 H 0.06116 0.52696 0.54585 0.0
H1254 H 0.18208 0.52728 0.65307 0.0
H1255 H 0.03178 0.48607 0.60457 0.0
H1256 H 0.10843 0.52561 0.58319 0.0
H1257 H 0.11065 0.48413 0.67067 0.0
C1258 C 0.15012 0.49445 0.68943 0.0
C1259 C 0.17067 0.50667 0.68519 0.0
C1260 C 0.0921 0.51664 0.58778 0.0
C1261 C 0.12277 0.50503 0.63932 0.0
C1262 C 0.06547 0.51721 0.56631 0.0
C1263 C 0.04355 0.50606 0.57192 0.0
C1264 C 0.09639 0.50503 0.61517 0.0
C1265 C 0.04878 0.49453 0.59931 0.0
C1266 C 0.12631 0.49358 0.66668 0.0
C1267 C 0.16674 0.5177 0.65739 0.0
N1268 N 0.07469 0.49429 0.61994 0.0
N1269 N 0.14316 0.51667 0.63554 0.0
H1270 H 0.5776 0.73197 0.1698 0.0
H1271 H 0.6625 0.80158 0.0793 0.0
H1272 H 0.55484 0.79885 0.1994 0.0
H1273 H 0.72993 0.72885 0.09403 0.0
H1274 H 0.61178 0.80265 0.11359 0.0
H1275 H 0.6229 0.73239 0.13169 0.0
C1276 C 0.58182 0.74683 0.16806 0.0
C1277 C 0.56266 0.76535 0.18788 0.0
C1278 C 0.63766 0.7865 0.10911 0.0
C1279 C 0.61377 0.76607 0.1441 0.0
C1280 C 0.66639 0.78587 0.08956 0.0
C1281 C 0.70044 0.76515 0.08421 0.0
C1282 C 0.6427 0.76615 0.12252 0.0
C1283 C 0.70423 0.74522 0.09792 0.0
C1284 C 0.60773 0.74701 0.14643 0.0
C1285 C 0.56931 0.78415 0.1847 0.0
N1286 N 0.67561 0.74617 0.1163 0.0
N1287 N 0.59419 0.7841 0.16312 0.0
H1288 H 0.69397 0.47234 0.18571 0.0
H1289 H 0.50659 0.54479 0.09083 0.0
H1290 H 0.65903 0.54288 0.16564 0.0
H1291 H 0.58342 0.47435 0.06741 0.0
H1292 H 0.55885 0.54482 0.12138 0.0
H1293 H 0.65083 0.47246 0.14555 0.0
C1294 C 0.67742 0.48779 0.17262 0.0
C1295 C 0.67987 0.50766 0.17894 0.0
C1296 C 0.56438 0.52944 0.1093 0.0
C1297 C 0.63007 0.50802 0.13357 0.0
C1298 C 0.53458 0.52935 0.0921 0.0
C1299 C 0.54081 0.50944 0.07696 0.0
C1300 C 0.60015 0.50927 0.1121 0.0
C1301 C 0.57761 0.48998 0.07893 0.0
C1302 C 0.65304 0.4878 0.14967 0.0
C1303 C 0.65799 0.52721 0.16132 0.0
N1304 N 0.60578 0.49021 0.09674 0.0
N1305 N 0.63334 0.52705 0.13975 0.0
H1306 H 0.4316 0.41378 0.99609 0.0
H1307 H 0.30046 0.35422 0.018 0.0
H1308 H 0.30686 0.45175 0.00909 0.0
H1309 H 0.41774 0.31843 0.98271 0.0
H1310 H 0.30099 0.39045 0.01158 0.0
H1311 H 0.42651 0.37909 0.98763 0.0
C1312 C 0.40307 0.41481 0.99684 0.0
C1313 C 0.36964 0.43554 1.00366 0.0
C1314 C 0.32651 0.37474 0.00493 0.0
C1315 C 0.36359 0.39594 0.99436 0.0
C1316 C 0.32626 0.35407 0.0087 0.0
C1317 C 0.35931 0.33336 1.00123 0.0
C1318 C 0.36038 0.37468 0.99416 0.0
C1319 C 0.39176 0.33406 0.98886 0.0
C1320 C 0.40015 0.39505 0.99192 0.0
C1321 C 0.33333 0.43607 1.00397 0.0
N1322 N 0.39174 0.35439 0.98616 0.0
N1323 N 0.33133 0.41646 0.99988 0.0
H1324 H 0.01907 0.19417 0.28021 0.0
H1325 H 0.1898 0.07463 0.2216 0.0
H1326 H 0.11902 0.19081 0.23428 0.0
H1327 H 0.13343 0.0812 0.30738 0.0
H1328 H 0.15589 0.11675 0.21708 0.0
H1329 H 0.05172 0.15213 0.28113 0.0
C1330 C 0.04769 0.18459 0.27002 0.0
C1331 C 0.06649 0.19601 0.25735 0.0
C1332 C 0.15101 0.10889 0.23684 0.0
C1333 C 0.1037 0.1479 0.25786 0.0
C1334 C 0.1704 0.08492 0.23946 0.0
C1335 C 0.16494 0.07439 0.2651 0.0
C1336 C 0.12494 0.12238 0.25957 0.0
C1337 C 0.1388 0.08854 0.28733 0.0
C1338 C 0.06636 0.16062 0.27068 0.0
C1339 C 0.10364 0.18268 0.24447 0.0
N1340 N 0.1196 0.11172 0.28395 0.0
N1341 N 0.12096 0.15935 0.24491 0.0
H1342 H 0.15556 0.34553 0.97856 0.0
H1343 H 0.27359 0.40747 0.91676 0.0
H1344 H 0.27904 0.31981 0.99286 0.0
H1345 H 0.14911 0.43484 0.9065 0.0
H1346 H 0.27548 0.37665 0.94802 0.0
H1347 H 0.15158 0.38009 0.95604 0.0
C1348 C 0.18172 0.34726 0.9774 0.0
C1349 C 0.21771 0.32962 0.98753 0.0
C1350 C 0.24769 0.38954 0.93917 0.0
C1351 C 0.2135 0.36904 0.96132 0.0
C1352 C 0.24664 0.40708 0.92119 0.0
C1353 C 0.21116 0.42378 0.90887 0.0
C1354 C 0.21306 0.38855 0.94469 0.0
C1355 C 0.17708 0.42253 0.91573 0.0
C1356 C 0.17947 0.36698 0.96442 0.0
C1357 C 0.25065 0.33287 0.98534 0.0
N1358 N 0.17893 0.40516 0.93293 0.0
N1359 N 0.24782 0.35203 0.97221 0.0
H1360 H 0.25752 0.29784 0.92532 0.0
H1361 H 0.43355 0.22364 0.81775 0.0
H1362 H 0.32454 0.22484 0.93763 0.0
H1363 H 0.41033 0.29103 0.8453 0.0
H1364 H 0.38944 0.22407 0.85751 0.0
H1365 H 0.30893 0.29644 0.89213 0.0
C1366 C 0.28316 0.28152 0.92101 0.0
C1367 C 0.28681 0.26138 0.93392 0.0
C1368 C 0.39432 0.23866 0.85499 0.0
C1369 C 0.34516 0.2596 0.89564 0.0
C1370 C 0.41926 0.23849 0.83224 0.0
C1371 C 0.42551 0.25736 0.8282 0.0
C1372 C 0.37465 0.25807 0.8733 0.0
C1373 C 0.40641 0.27611 0.84771 0.0
C1374 C 0.31251 0.28075 0.90225 0.0
C1375 C 0.32071 0.24071 0.92797 0.0
N1376 N 0.38135 0.27615 0.86914 0.0
N1377 N 0.34836 0.24027 0.90879 0.0
H1378 H 0.4179 0.49829 0.96503 0.0
H1379 H 0.32727 0.53656 0.79985 0.0
H1380 H 0.44742 0.5378 0.90383 0.0
H1381 H 0.30006 0.49402 0.85776 0.0
H1382 H 0.36739 0.53942 0.83959 0.0
H1383 H 0.37027 0.4991 0.92844 0.0
C1384 C 0.4134 0.50775 0.94427 0.0
C1385 C 0.43551 0.51866 0.93769 0.0
C1386 C 0.35266 0.52947 0.84373 0.0
C1387 C 0.38255 0.51884 0.89524 0.0
C1388 C 0.32969 0.52778 0.82096 0.0
C1389 C 0.31036 0.51489 0.82534 0.0
C1390 C 0.3566 0.51816 0.87127 0.0
C1391 C 0.31454 0.50406 0.85333 0.0
C1392 C 0.38667 0.50792 0.92318 0.0
C1393 C 0.43028 0.52958 0.90983 0.0
N1394 N 0.33734 0.50587 0.87523 0.0
N1395 N 0.40433 0.52941 0.88962 0.0
H1396 H 0.64078 0.6824 0.9448 0.0
H1397 H 0.5592 0.60813 0.02629 0.0
H1398 H 0.58821 0.70089 0.03324 0.0
H1399 H 0.65733 0.57963 0.96491 0.0
H1400 H 0.56157 0.64418 0.02617 0.0
H1401 H 0.63764 0.6469 0.94777 0.0
C1402 C 0.62868 0.67902 0.96494 0.0
C1403 C 0.61531 0.69461 0.98902 0.0
C1404 C 0.5826 0.62994 0.01287 0.0
C1405 C 0.61086 0.65402 0.99217 0.0
C1406 C 0.58151 0.60928 0.01305 0.0
C1407 C 0.60795 0.59073 0.99537 0.0
C1408 C 0.60988 0.63217 0.99453 0.0
C1409 C 0.63572 0.59351 0.97832 0.0
C1410 C 0.62681 0.65873 0.96654 0.0
C1411 C 0.59869 0.68949 0.01405 0.0
N1412 N 0.6357 0.61386 0.97812 0.0
N1413 N 0.59693 0.66959 0.015 0.0
H1414 H 0.96874 0.82467 0.75341 0.0
H1415 H 0.76385 0.94185 0.75912 0.0
H1416 H 0.85705 0.8265 0.75818 0.0
H1417 H 0.87637 0.939 0.75473 0.0
H1418 H 0.79697 0.89979 0.76155 0.0
H1419 H 0.93532 0.86656 0.75651 0.0
C1420 C 0.93719 0.83389 0.75524 0.0
C1421 C 0.91568 0.82205 0.75535 0.0
C1422 C 0.81441 0.90838 0.76018 0.0
C1423 C 0.87697 0.87017 0.75881 0.0
C1424 C 0.79547 0.9324 0.75884 0.0
C1425 C 0.81733 0.94398 0.75648 0.0
C1426 C 0.85553 0.89582 0.75914 0.0
C1427 C 0.85829 0.93082 0.75632 0.0
C1428 C 0.91804 0.85784 0.75698 0.0
C1429 C 0.8748 0.83492 0.75787 0.0
N1430 N 0.87595 0.90756 0.75746 0.0
N1431 N 0.85681 0.85822 0.75935 0.0
H1432 H 0.49963 0.16683 0.58608 0.0
H1433 H 0.40392 0.08588 0.55626 0.0
H1434 H 0.41149 0.16497 0.64296 0.0
H1435 H 0.50743 0.0779 0.51062 0.0
H1436 H 0.39948 0.11927 0.5826 0.0
H1437 H 0.49697 0.13801 0.5533 0.0
C1438 C 0.4796 0.16043 0.59158 0.0
C1439 C 0.45604 0.16812 0.61746 0.0
C1440 C 0.42294 0.11033 0.56659 0.0
C1441 C 0.45259 0.13535 0.58001 0.0
C1442 C 0.42528 0.09139 0.55134 0.0
C1443 C 0.45628 0.07894 0.53141 0.0
C1444 C 0.45171 0.11694 0.56178 0.0
C1445 C 0.48329 0.08682 0.52608 0.0
C1446 C 0.47814 0.14398 0.57292 0.0
C1447 C 0.43068 0.15921 0.62355 0.0
N1448 N 0.48054 0.1052 0.54132 0.0
N1449 N 0.42964 0.14332 0.605 0.0
H1450 H 0.474 0.36147 0.91515 0.0
H1451 H 0.57774 0.43469 0.96527 0.0
H1452 H 0.58614 0.34932 0.88151 0.0
H1453 H 0.46214 0.44944 0.99354 0.0
H1454 H 0.58456 0.40077 0.93879 0.0
H1455 H 0.47213 0.39135 0.94809 0.0
C1456 C 0.49835 0.36497 0.91483 0.0
C1457 C 0.5301 0.35299 0.89529 0.0
C1458 C 0.55787 0.41132 0.9511 0.0
C1459 C 0.52812 0.38727 0.93293 0.0
C1460 C 0.55404 0.43064 0.96637 0.0
C1461 C 0.51929 0.44502 0.98172 0.0
C1462 C 0.52672 0.40635 0.95114 0.0
C1463 C 0.48952 0.43889 0.98217 0.0
C1464 C 0.49722 0.3821 0.93358 0.0
C1465 C 0.5607 0.35841 0.89574 0.0
N1466 N 0.49381 0.42017 0.96696 0.0
N1467 N 0.5589 0.37517 0.91415 0.0
H1468 H 0.57885 0.85301 0.37155 0.0
H1469 H 0.46892 0.94369 0.50257 0.0
H1470 H 0.48366 0.85489 0.42326 0.0
H1471 H 0.57275 0.9362 0.45802 0.0
H1472 H 0.47535 0.91023 0.47545 0.0
H1473 H 0.57779 0.88297 0.40378 0.0
C1474 C 0.55757 0.85982 0.3896 0.0
C1475 C 0.53111 0.85153 0.39457 0.0
C1476 C 0.49704 0.9157 0.47187 0.0
C1477 C 0.53004 0.8857 0.43185 0.0
C1478 C 0.4934 0.93482 0.48738 0.0
C1479 C 0.52016 0.94289 0.48239 0.0
C1480 C 0.52757 0.9046 0.45103 0.0
C1481 C 0.55149 0.93057 0.46265 0.0
C1482 C 0.55721 0.87679 0.40818 0.0
C1483 C 0.50471 0.86068 0.41869 0.0
N1484 N 0.55408 0.9122 0.44744 0.0
N1485 N 0.50469 0.87736 0.43632 0.0
H1486 H 0.40402 0.58646 0.06103 0.0
H1487 H 0.49555 0.6698 0.08781 0.0
H1488 H 0.50525 0.58016 0.01348 0.0
H1489 H 0.4077 0.66804 0.14517 0.0
H1490 H 0.49435 0.64006 0.05623 0.0
H1491 H 0.39894 0.62002 0.08726 0.0
C1492 C 0.42475 0.59235 0.05568 0.0
C1493 C 0.45526 0.58036 0.03516 0.0
C1494 C 0.4753 0.64621 0.0757 0.0
C1495 C 0.44997 0.61857 0.06543 0.0
C1496 C 0.47591 0.66322 0.09369 0.0
C1497 C 0.45188 0.67131 0.11929 0.0
C1498 C 0.45023 0.63734 0.08321 0.0
C1499 C 0.42717 0.66205 0.12593 0.0
C1500 C 0.42205 0.6114 0.07088 0.0
C1501 C 0.48148 0.58873 0.02934 0.0
N1502 N 0.42697 0.64559 0.10802 0.0
N1503 N 0.47838 0.60721 0.04452 0.0
loop_
_geom_bond_atom_site_label_1
_geom_bond_atom_site_label_2
_geom_bond_distance
_geom_bond_site_symmetry_2
_ccdc_geom_bond_type
Tb0 C2 2.809 . S
Tb0 O20 2.484 . S
Tb0 O21 2.440 . S
Tb0 O22 2.658 1_655 S
Tb0 O23 2.409 1_655 S
Tb0 O24 2.378 1_655 S
Tb0 O28 2.325 1_564 S
Tb0 O31 2.341 1_565 S
Tb1 C11 2.809 . S
Tb1 O22 2.325 1_546 S
Tb1 O25 2.341 1_545 S
Tb1 O26 2.484 . S
Tb1 O27 2.440 . S
Tb1 O28 2.658 1_455 S
Tb1 O29 2.409 1_455 S
Tb1 O30 2.378 1_455 S
C2 Tb0 2.809 . S
C2 C3 1.514 . S
C2 O20 1.248 . S
C2 O21 1.266 . S
C3 C2 1.514 . S
C3 C4 1.359 . S
C3 C8 1.348 . S
C4 C3 1.359 . S
C4 C5 1.380 . S
C4 H32 0.929 1_554 S
C5 C4 1.380 . S
C5 C6 1.347 . S
C5 H33 0.931 1_554 S
C6 C5 1.347 . S
C6 C7 1.369 . S
C7 C6 1.369 . S
C7 C8 1.408 . S
C7 H34 0.930 . S
C8 C3 1.348 . S
C8 C7 1.408 . S
C8 H35 0.930 . S
C9 O22 1.281 . S
C9 O23 1.254 . S
C10 O24 1.236 1_556 S
C10 O25 1.266 . S
C11 Tb1 2.809 . S
C11 C12 1.514 . S
C11 O26 1.248 . S
C11 O27 1.266 . S
C12 C11 1.514 . S
C12 C13 1.359 . S
C12 C17 1.348 . S
C13 C12 1.359 . S
C13 C14 1.380 . S
C13 H36 0.929 1_556 S
C14 C13 1.380 . S
C14 C15 1.347 . S
C14 H37 0.931 1_556 S
C15 C14 1.347 . S
C15 C16 1.369 . S
C16 C15 1.369 . S
C16 C17 1.408 . S
C16 H38 0.930 . S
C17 C12 1.348 . S
C17 C16 1.408 . S
C17 H39 0.930 . S
C18 O28 1.281 . S
C18 O29 1.254 . S
C19 O30 1.236 1_554 S
C19 O31 1.266 . S
O20 Tb0 2.484 . S
O20 C2 1.248 . S
O21 Tb0 2.440 . S
O21 C2 1.266 . S
O22 Tb0 2.658 1_455 S
O22 Tb1 2.325 1_564 S
O22 C9 1.281 . S
O23 Tb0 2.409 1_455 S
O23 C9 1.254 . S
O24 Tb0 2.378 1_455 S
O24 C10 1.236 1_554 S
O25 Tb1 2.341 1_565 S
O25 C10 1.266 . S
O26 Tb1 2.484 . S
O26 C11 1.248 . S
O27 Tb1 2.440 . S
O27 C11 1.266 . S
O28 Tb0 2.325 1_546 S
O28 Tb1 2.658 1_655 S
O28 C18 1.281 . S
O29 Tb1 2.409 1_655 S
O29 C18 1.254 . S
O30 Tb1 2.378 1_655 S
O30 C19 1.236 1_556 S
O31 Tb0 2.341 1_545 S
O31 C19 1.266 . S
H32 C4 0.929 1_556 S
H33 C5 0.931 1_556 S
H34 C7 0.930 . S
H35 C8 0.930 . S
H36 C13 0.929 1_554 S
H37 C14 0.931 1_554 S
H38 C16 0.930 . S
H39 C17 0.930 . S
Tb40 C42 2.809 . S
Tb40 O60 2.487 . S
Tb40 O61 2.440 . S
Tb40 O62 2.658 . S
Tb40 O63 2.409 . S
Tb40 O64 2.378 1_455 S
Tb40 O68 2.325 1_455 S
Tb40 O71 2.341 . S
Tb41 C51 2.809 . S
Tb41 O62 2.325 1_655 S
Tb41 O65 2.341 . S
Tb41 O66 2.483 1_655 S
Tb41 O67 2.440 . S
Tb41 O68 2.658 . S
Tb41 O69 2.409 . S
Tb41 O70 2.378 1_655 S
C42 Tb40 2.809 . S
C42 C43 1.514 . S
C42 O60 1.261 . S
C42 O61 1.266 . S
C43 C42 1.514 . S
C43 C44 1.359 1_455 S
C43 C48 1.348 . S
C44 C43 1.359 1_655 S
C44 C45 1.380 . S
C44 H72 0.929 . S
C45 C44 1.380 . S
C45 C46 1.347 1_655 S
C45 H73 0.931 . S
C46 C45 1.347 1_455 S
C46 C47 1.369 . S
C47 C46 1.369 . S
C47 C48 1.408 . S
C47 H74 0.930 . S
C48 C43 1.348 . S
C48 C47 1.408 . S
C48 H75 0.930 . S
C49 O62 1.281 . S
C49 O63 1.254 . S
C50 O64 1.236 . S
C50 O65 1.266 . S
C51 Tb41 2.809 . S
C51 C52 1.514 . S
C51 O66 1.240 1_655 S
C51 O67 1.266 . S
C52 C51 1.514 . S
C52 C53 1.359 1_655 S
C52 C57 1.348 . S
C53 C52 1.359 1_455 S
C53 C54 1.380 . S
C53 H76 0.929 . S
C54 C53 1.380 . S
C54 C55 1.347 1_455 S
C54 H77 0.931 . S
C55 C54 1.347 1_655 S
C55 C56 1.369 . S
C56 C55 1.369 . S
C56 C57 1.408 . S
C56 H78 0.930 . S
C57 C52 1.348 . S
C57 C56 1.408 . S
C57 H79 0.930 . S
C58 O68 1.281 . S
C58 O69 1.254 . S
C59 O70 1.236 . S
C59 O71 1.266 . S
O60 Tb40 2.487 . S
O60 C42 1.261 . S
O61 Tb40 2.440 . S
O61 C42 1.266 . S
O62 Tb40 2.658 . S
O62 Tb41 2.325 1_455 S
O62 C49 1.281 . S
O63 Tb40 2.409 . S
O63 C49 1.254 . S
O64 Tb40 2.378 1_655 S
O64 C50 1.236 . S
O65 Tb41 2.341 . S
O65 C50 1.266 . S
O66 Tb41 2.483 1_455 S
O66 C51 1.240 1_455 S
O67 Tb41 2.440 . S
O67 C51 1.266 . S
O68 Tb40 2.325 1_655 S
O68 Tb41 2.658 . S
O68 C58 1.281 . S
O69 Tb41 2.409 . S
O69 C58 1.254 . S
O70 Tb41 2.378 1_455 S
O70 C59 1.236 . S
O71 Tb40 2.341 . S
O71 C59 1.266 . S
H72 C44 0.929 . S
H73 C45 0.931 . S
H74 C47 0.930 . S
H75 C48 0.930 . S
H76 C53 0.929 . S
H77 C54 0.931 . S
H78 C56 0.930 . S
H79 C57 0.930 . S
Tb80 C82 2.809 . S
Tb80 O100 2.484 . S
Tb80 O101 2.440 . S
Tb80 O102 2.658 . S
Tb80 O103 2.409 . S
Tb80 O104 2.378 . S
Tb80 O108 2.325 . S
Tb80 O111 2.341 . S
Tb81 C91 2.809 . S
Tb81 O102 2.325 . S
Tb81 O105 2.341 . S
Tb81 O106 2.484 . S
Tb81 O107 2.440 . S
Tb81 O108 2.658 . S
Tb81 O109 2.409 . S
Tb81 O110 2.378 . S
C82 Tb80 2.809 . S
C82 C83 1.514 . S
C82 O100 1.248 . S
C82 O101 1.266 . S
C83 C82 1.514 . S
C83 C84 1.359 . S
C83 C88 1.348 . S
C84 C83 1.359 . S
C84 C85 1.380 . S
C84 H112 0.929 . S
C85 C84 1.380 . S
C85 C86 1.347 . S
C85 H113 0.931 . S
C86 C85 1.347 . S
C86 C87 1.369 . S
C87 C86 1.369 . S
C87 C88 1.408 . S
C87 H114 0.930 . S
C88 C83 1.348 . S
C88 C87 1.408 . S
C88 H115 0.930 . S
C89 O102 1.281 . S
C89 O103 1.254 . S
C90 O104 1.236 . S
C90 O105 1.266 . S
C91 Tb81 2.809 . S
C91 C92 1.514 . S
C91 O106 1.248 . S
C91 O107 1.266 . S
C92 C91 1.514 . S
C92 C93 1.359 . S
C92 C97 1.348 . S
C93 C92 1.359 . S
C93 C94 1.380 . S
C93 H116 0.929 . S
C94 C93 1.380 . S
C94 C95 1.347 . S
C94 H117 0.931 . S
C95 C94 1.347 . S
C95 C96 1.369 . S
C96 C95 1.369 . S
C96 C97 1.408 . S
C96 H118 0.930 . S
C97 C92 1.348 . S
C97 C96 1.408 . S
C97 H119 0.930 . S
C98 O108 1.281 . S
C98 O109 1.254 . S
C99 O110 1.236 . S
C99 O111 1.266 . S
O100 Tb80 2.484 . S
O100 C82 1.248 . S
O101 Tb80 2.440 . S
O101 C82 1.266 . S
O102 Tb80 2.658 . S
O102 Tb81 2.325 . S
O102 C89 1.281 . S
O103 Tb80 2.409 . S
O103 C89 1.254 . S
O104 Tb80 2.378 . S
O104 C90 1.236 . S
O105 Tb81 2.341 . S
O105 C90 1.266 . S
O106 Tb81 2.484 . S
O106 C91 1.248 . S
O107 Tb81 2.440 . S
O107 C91 1.266 . S
O108 Tb80 2.325 . S
O108 Tb81 2.658 . S
O108 C98 1.281 . S
O109 Tb81 2.409 . S
O109 C98 1.254 . S
O110 Tb81 2.378 . S
O110 C99 1.236 . S
O111 Tb80 2.341 . S
O111 C99 1.266 . S
H112 C84 0.929 . S
H113 C85 0.931 . S
H114 C87 0.930 . S
H115 C88 0.930 . S
H116 C93 0.929 . S
H117 C94 0.931 . S
H118 C96 0.930 . S
H119 C97 0.930 . S
Tb120 C122 2.809 . S
Tb120 O140 2.484 . S
Tb120 O141 2.440 . S
Tb120 O142 2.658 1_565 S
Tb120 O143 2.409 1_565 S
Tb120 O144 2.380 1_565 S
Tb120 O148 2.325 . S
Tb120 O151 2.341 . S
Tb121 C131 2.809 . S
Tb121 O142 2.325 . S
Tb121 O145 2.341 . S
Tb121 O146 2.484 . S
Tb121 O147 2.440 . S
Tb121 O148 2.658 1_545 S
Tb121 O149 2.409 1_545 S
Tb121 O150 2.378 . S
C122 Tb120 2.809 . S
C122 C123 1.514 . S
C122 O140 1.248 . S
C122 O141 1.266 . S
C123 C122 1.514 . S
C123 C124 1.359 . S
C123 C128 1.348 . S
C124 C123 1.359 . S
C124 C125 1.380 . S
C124 H152 0.929 . S
C125 C124 1.380 . S
C125 C126 1.347 . S
C125 H153 0.931 . S
C126 C125 1.347 . S
C126 C127 1.369 . S
C127 C126 1.369 . S
C127 C128 1.408 . S
C127 H154 0.930 . S
C128 C123 1.348 . S
C128 C127 1.408 . S
C128 H155 0.930 . S
C129 O142 1.281 . S
C129 O143 1.254 . S
C130 O144 1.260 1_565 S
C130 O145 1.239 1_565 S
C131 Tb121 2.809 . S
C131 C132 1.514 . S
C131 O146 1.248 . S
C131 O147 1.266 . S
C132 C131 1.514 . S
C132 C133 1.359 . S
C132 C137 1.348 . S
C133 C132 1.359 . S
C133 C134 1.380 . S
C133 H156 0.929 . S
C134 C133 1.380 . S
C134 C135 1.347 . S
C134 H157 0.931 . S
C135 C134 1.347 . S
C135 C136 1.369 . S
C136 C135 1.369 . S
C136 C137 1.408 . S
C136 H158 0.930 . S
C137 C132 1.348 . S
C137 C136 1.408 . S
C137 H159 0.930 . S
C138 O148 1.281 . S
C138 O149 1.254 . S
C139 O150 1.236 . S
C139 O151 1.266 1_545 S
O140 Tb120 2.484 . S
O140 C122 1.248 . S
O141 Tb120 2.440 . S
O141 C122 1.266 . S
O142 Tb120 2.658 1_545 S
O142 Tb121 2.325 . S
O142 C129 1.281 . S
O143 Tb120 2.409 1_545 S
O143 C129 1.254 . S
O144 Tb120 2.380 1_545 S
O144 C130 1.260 1_545 S
O145 Tb121 2.341 . S
O145 C130 1.239 1_545 S
O146 Tb121 2.484 . S
O146 C131 1.248 . S
O147 Tb121 2.440 . S
O147 C131 1.266 . S
O148 Tb120 2.325 . S
O148 Tb121 2.658 1_565 S
O148 C138 1.281 . S
O149 Tb121 2.409 1_565 S
O149 C138 1.254 . S
O150 Tb121 2.378 . S
O150 C139 1.236 . S
O151 Tb120 2.341 . S
O151 C139 1.266 1_565 S
H152 C124 0.929 . S
H153 C125 0.931 . S
H154 C127 0.930 . S
H155 C128 0.930 . S
H156 C133 0.929 . S
H157 C134 0.931 . S
H158 C136 0.930 . S
H159 C137 0.930 . S
Tb160 C162 2.809 . S
Tb160 O180 2.484 . S
Tb160 O181 2.440 . S
Tb160 O182 2.658 . S
Tb160 O183 2.409 . S
Tb160 O184 2.378 . S
Tb160 O188 2.325 . S
Tb160 O191 2.341 . S
Tb161 C171 2.809 . S
Tb161 O182 2.325 . S
Tb161 O185 2.341 . S
Tb161 O186 2.484 . S
Tb161 O187 2.440 . S
Tb161 O188 2.658 . S
Tb161 O189 2.409 . S
Tb161 O190 2.378 . S
C162 Tb160 2.809 . S
C162 C163 1.514 . S
C162 O180 1.248 . S
C162 O181 1.266 . S
C163 C162 1.514 . S
C163 C164 1.359 . S
C163 C168 1.348 . S
C164 C163 1.359 . S
C164 C165 1.380 . S
C164 H192 0.929 . S
C165 C164 1.380 . S
C165 C166 1.347 . S
C165 H193 0.931 . S
C166 C165 1.347 . S
C166 C167 1.369 . S
C167 C166 1.369 . S
C167 C168 1.408 . S
C167 H194 0.930 . S
C168 C163 1.348 . S
C168 C167 1.408 . S
C168 H195 0.930 . S
C169 O182 1.281 . S
C169 O183 1.254 . S
C170 O184 1.236 . S
C170 O185 1.266 . S
C171 Tb161 2.809 . S
C171 C172 1.514 . S
C171 O186 1.248 . S
C171 O187 1.266 . S
C172 C171 1.514 . S
C172 C173 1.359 . S
C172 C177 1.348 . S
C173 C172 1.359 . S
C173 C174 1.380 . S
C173 H196 0.929 . S
C174 C173 1.380 . S
C174 C175 1.347 . S
C174 H197 0.931 . S
C175 C174 1.347 . S
C175 C176 1.369 . S
C176 C175 1.369 . S
C176 C177 1.408 . S
C176 H198 0.930 . S
C177 C172 1.348 . S
C177 C176 1.408 . S
C177 H199 0.930 . S
C178 O188 1.281 . S
C178 O189 1.254 . S
C179 O190 1.236 . S
C179 O191 1.266 . S
O180 Tb160 2.484 . S
O180 C162 1.248 . S
O181 Tb160 2.440 . S
O181 C162 1.266 . S
O182 Tb160 2.658 . S
O182 Tb161 2.325 . S
O182 C169 1.281 . S
O183 Tb160 2.409 . S
O183 C169 1.254 . S
O184 Tb160 2.378 . S
O184 C170 1.236 . S
O185 Tb161 2.341 . S
O185 C170 1.266 . S
O186 Tb161 2.484 . S
O186 C171 1.248 . S
O187 Tb161 2.440 . S
O187 C171 1.266 . S
O188 Tb160 2.325 . S
O188 Tb161 2.658 . S
O188 C178 1.281 . S
O189 Tb161 2.409 . S
O189 C178 1.254 . S
O190 Tb161 2.378 . S
O190 C179 1.236 . S
O191 Tb160 2.341 . S
O191 C179 1.266 . S
H192 C164 0.929 . S
H193 C165 0.931 . S
H194 C167 0.930 . S
H195 C168 0.930 . S
H196 C173 0.929 . S
H197 C174 0.931 . S
H198 C176 0.930 . S
H199 C177 0.930 . S
Tb200 C202 2.809 . S
Tb200 O220 2.484 . S
Tb200 O221 2.440 . S
Tb200 O222 2.658 . S
Tb200 O223 2.409 . S
Tb200 O224 2.378 . S
Tb200 O228 2.325 . S
Tb200 O231 2.341 . S
Tb201 C211 2.809 . S
Tb201 O222 2.325 . S
Tb201 O225 2.341 . S
Tb201 O226 2.484 . S
Tb201 O227 2.440 . S
Tb201 O228 2.658 . S
Tb201 O229 2.409 . S
Tb201 O230 2.378 . S
C202 Tb200 2.809 . S
C202 C203 1.514 . S
C202 O220 1.248 . S
C202 O221 1.266 . S
C203 C202 1.514 . S
C203 C204 1.359 . S
C203 C208 1.348 . S
C204 C203 1.359 . S
C204 C205 1.380 . S
C204 H232 0.929 . S
C205 C204 1.380 . S
C205 C206 1.347 . S
C205 H233 0.931 . S
C206 C205 1.347 . S
C206 C207 1.369 . S
C207 C206 1.369 . S
C207 C208 1.408 . S
C207 H234 0.930 . S
C208 C203 1.348 . S
C208 C207 1.408 . S
C208 H235 0.930 . S
C209 O222 1.281 . S
C209 O223 1.254 . S
C210 O224 1.236 . S
C210 O225 1.266 . S
C211 Tb201 2.809 . S
C211 C212 1.514 . S
C211 O226 1.248 . S
C211 O227 1.266 . S
C212 C211 1.514 . S
C212 C213 1.359 . S
C212 C217 1.348 . S
C213 C212 1.359 . S
C213 C214 1.380 . S
C213 H236 0.929 . S
C214 C213 1.380 . S
C214 C215 1.347 . S
C214 H237 0.931 . S
C215 C214 1.347 . S
C215 C216 1.369 . S
C216 C215 1.369 . S
C216 C217 1.408 . S
C216 H238 0.930 . S
C217 C212 1.348 . S
C217 C216 1.408 . S
C217 H239 0.930 . S
C218 O228 1.281 . S
C218 O229 1.254 . S
C219 O230 1.236 . S
C219 O231 1.266 . S
O220 Tb200 2.484 . S
O220 C202 1.248 . S
O221 Tb200 2.440 . S
O221 C202 1.266 . S
O222 Tb200 2.658 . S
O222 Tb201 2.325 . S
O222 C209 1.281 . S
O223 Tb200 2.409 . S
O223 C209 1.254 . S
O224 Tb200 2.378 . S
O224 C210 1.236 . S
O225 Tb201 2.341 . S
O225 C210 1.266 . S
O226 Tb201 2.484 . S
O226 C211 1.248 . S
O227 Tb201 2.440 . S
O227 C211 1.266 . S
O228 Tb200 2.325 . S
O228 Tb201 2.658 . S
O228 C218 1.281 . S
O229 Tb201 2.409 . S
O229 C218 1.254 . S
O230 Tb201 2.378 . S
O230 C219 1.236 . S
O231 Tb200 2.341 . S
O231 C219 1.266 . S
H232 C204 0.929 . S
H233 C205 0.931 . S
H234 C207 0.930 . S
H235 C208 0.930 . S
H236 C213 0.929 . S
H237 C214 0.931 . S
H238 C216 0.930 . S
H239 C217 0.930 . S
Tb240 C242 2.809 . S
Tb240 O260 2.484 . S
Tb240 O261 2.440 . S
Tb240 O262 2.658 . S
Tb240 O263 2.409 . S
Tb240 O264 2.378 . S
Tb240 O268 2.325 . S
Tb240 O271 2.341 . S
Tb241 C251 2.809 . S
Tb241 O262 2.325 . S
Tb241 O265 2.341 . S
Tb241 O266 2.484 . S
Tb241 O267 2.440 . S
Tb241 O268 2.658 . S
Tb241 O269 2.409 . S
Tb241 O270 2.378 . S
C242 Tb240 2.809 . S
C242 C243 1.514 . S
C242 O260 1.248 . S
C242 O261 1.266 . S
C243 C242 1.514 . S
C243 C244 1.359 . S
C243 C248 1.348 . S
C244 C243 1.359 . S
C244 C245 1.380 . S
C244 H272 0.929 . S
C245 C244 1.380 . S
C245 C246 1.347 . S
C245 H273 0.931 . S
C246 C245 1.347 . S
C246 C247 1.369 . S
C247 C246 1.369 . S
C247 C248 1.408 . S
C247 H274 0.930 . S
C248 C243 1.348 . S
C248 C247 1.408 . S
C248 H275 0.930 . S
C249 O262 1.281 . S
C249 O263 1.254 . S
C250 O264 1.236 . S
C250 O265 1.266 . S
C251 Tb241 2.809 . S
C251 C252 1.514 . S
C251 O266 1.248 . S
C251 O267 1.266 . S
C252 C251 1.514 . S
C252 C253 1.359 . S
C252 C257 1.348 . S
C253 C252 1.359 . S
C253 C254 1.380 . S
C253 H276 0.929 . S
C254 C253 1.380 . S
C254 C255 1.347 . S
C254 H277 0.931 . S
C255 C254 1.347 . S
C255 C256 1.369 . S
C256 C255 1.369 . S
C256 C257 1.408 . S
C256 H278 0.930 . S
C257 C252 1.348 . S
C257 C256 1.408 . S
C257 H279 0.930 . S
C258 O268 1.281 . S
C258 O269 1.254 . S
C259 O270 1.236 . S
C259 O271 1.266 . S
O260 Tb240 2.484 . S
O260 C242 1.248 . S
O261 Tb240 2.440 . S
O261 C242 1.266 . S
O262 Tb240 2.658 . S
O262 Tb241 2.325 . S
O262 C249 1.281 . S
O263 Tb240 2.409 . S
O263 C249 1.254 . S
O264 Tb240 2.378 . S
O264 C250 1.236 . S
O265 Tb241 2.341 . S
O265 C250 1.266 . S
O266 Tb241 2.484 . S
O266 C251 1.248 . S
O267 Tb241 2.440 . S
O267 C251 1.266 . S
O268 Tb240 2.325 . S
O268 Tb241 2.658 . S
O268 C258 1.281 . S
O269 Tb241 2.409 . S
O269 C258 1.254 . S
O270 Tb241 2.378 . S
O270 C259 1.236 . S
O271 Tb240 2.341 . S
O271 C259 1.266 . S
H272 C244 0.929 . S
H273 C245 0.931 . S
H274 C247 0.930 . S
H275 C248 0.930 . S
H276 C253 0.929 . S
H277 C254 0.931 . S
H278 C256 0.930 . S
H279 C257 0.930 . S
Tb280 C282 2.809 . S
Tb280 O300 2.484 . S
Tb280 O301 2.440 . S
Tb280 O302 2.658 1_655 S
Tb280 O303 2.409 1_655 S
Tb280 O304 2.378 1_655 S
Tb280 O308 2.325 . S
Tb280 O311 2.341 . S
Tb281 C291 2.809 . S
Tb281 O302 2.325 . S
Tb281 O305 2.341 . S
Tb281 O306 2.484 . S
Tb281 O307 2.440 . S
Tb281 O308 2.658 1_455 S
Tb281 O309 2.409 1_455 S
Tb281 O310 2.378 1_455 S
C282 Tb280 2.809 . S
C282 C283 1.514 . S
C282 O300 1.248 . S
C282 O301 1.266 . S
C283 C282 1.514 . S
C283 C284 1.359 . S
C283 C288 1.348 . S
C284 C283 1.359 . S
C284 C285 1.380 . S
C284 H312 0.929 . S
C285 C284 1.380 . S
C285 C286 1.347 . S
C285 H313 0.931 . S
C286 C285 1.347 . S
C286 C287 1.369 . S
C287 C286 1.369 . S
C287 C288 1.408 . S
C287 H314 0.930 . S
C288 C283 1.348 . S
C288 C287 1.408 . S
C288 H315 0.930 . S
C289 O302 1.281 . S
C289 O303 1.254 . S
C290 O304 1.236 . S
C290 O305 1.266 . S
C291 Tb281 2.809 . S
C291 C292 1.514 . S
C291 O306 1.248 . S
C291 O307 1.266 . S
C292 C291 1.514 . S
C292 C293 1.359 . S
C292 C297 1.348 . S
C293 C292 1.359 . S
C293 C294 1.380 . S
C293 H316 0.929 . S
C294 C293 1.380 . S
C294 C295 1.347 . S
C294 H317 0.931 . S
C295 C294 1.347 . S
C295 C296 1.369 . S
C296 C295 1.369 . S
C296 C297 1.408 . S
C296 H318 0.930 . S
C297 C292 1.348 . S
C297 C296 1.408 . S
C297 H319 0.930 . S
C298 O308 1.281 . S
C298 O309 1.254 . S
C299 O310 1.236 . S
C299 O311 1.266 . S
O300 Tb280 2.484 . S
O300 C282 1.248 . S
O301 Tb280 2.440 . S
O301 C282 1.266 . S
O302 Tb280 2.658 1_455 S
O302 Tb281 2.325 . S
O302 C289 1.281 . S
O303 Tb280 2.409 1_455 S
O303 C289 1.254 . S
O304 Tb280 2.378 1_455 S
O304 C290 1.236 . S
O305 Tb281 2.341 . S
O305 C290 1.266 . S
O306 Tb281 2.484 . S
O306 C291 1.248 . S
O307 Tb281 2.440 . S
O307 C291 1.266 . S
O308 Tb280 2.325 . S
O308 Tb281 2.658 1_655 S
O308 C298 1.281 . S
O309 Tb281 2.409 1_655 S
O309 C298 1.254 . S
O310 Tb281 2.378 1_655 S
O310 C299 1.236 . S
O311 Tb280 2.341 . S
O311 C299 1.266 . S
H312 C284 0.929 . S
H313 C285 0.931 . S
H314 C287 0.930 . S
H315 C288 0.930 . S
H316 C293 0.929 . S
H317 C294 0.931 . S
H318 C296 0.930 . S
H319 C297 0.930 . S
Tb320 C322 2.809 . S
Tb320 O340 2.484 . S
Tb320 O341 2.440 . S
Tb320 O342 2.658 . S
Tb320 O343 2.409 . S
Tb320 O344 2.378 . S
Tb320 O348 2.325 1_554 S
Tb320 O351 2.341 . S
Tb321 C331 2.809 . S
Tb321 O342 2.325 1_556 S
Tb321 O345 2.341 . S
Tb321 O346 2.484 . S
Tb321 O347 2.440 . S
Tb321 O348 2.658 . S
Tb321 O349 2.409 . S
Tb321 O350 2.378 . S
C322 Tb320 2.809 . S
C322 C323 1.514 . S
C322 O340 1.248 . S
C322 O341 1.266 . S
C323 C322 1.514 . S
C323 C324 1.359 . S
C323 C328 1.348 . S
C324 C323 1.359 . S
C324 C325 1.380 . S
C324 H352 0.929 1_554 S
C325 C324 1.380 . S
C325 C326 1.347 . S
C325 H353 0.931 1_554 S
C326 C325 1.347 . S
C326 C327 1.369 . S
C327 C326 1.369 . S
C327 C328 1.408 . S
C327 H354 0.930 . S
C328 C323 1.348 . S
C328 C327 1.408 . S
C328 H355 0.930 . S
C329 O342 1.281 . S
C329 O343 1.254 . S
C330 O344 1.236 1_556 S
C330 O345 1.266 . S
C331 Tb321 2.809 . S
C331 C332 1.514 . S
C331 O346 1.248 . S
C331 O347 1.266 . S
C332 C331 1.514 . S
C332 C333 1.359 . S
C332 C337 1.348 . S
C333 C332 1.359 . S
C333 C334 1.380 . S
C333 H356 0.929 1_556 S
C334 C333 1.380 . S
C334 C335 1.347 . S
C334 H357 0.931 1_556 S
C335 C334 1.347 . S
C335 C336 1.369 . S
C336 C335 1.369 . S
C336 C337 1.408 . S
C336 H358 0.930 . S
C337 C332 1.348 . S
C337 C336 1.408 . S
C337 H359 0.930 . S
C338 O348 1.281 . S
C338 O349 1.254 . S
C339 O350 1.236 1_554 S
C339 O351 1.266 . S
O340 Tb320 2.484 . S
O340 C322 1.248 . S
O341 Tb320 2.440 . S
O341 C322 1.266 . S
O342 Tb320 2.658 . S
O342 Tb321 2.325 1_554 S
O342 C329 1.281 . S
O343 Tb320 2.409 . S
O343 C329 1.254 . S
O344 Tb320 2.378 . S
O344 C330 1.236 1_554 S
O345 Tb321 2.341 . S
O345 C330 1.266 . S
O346 Tb321 2.484 . S
O346 C331 1.248 . S
O347 Tb321 2.440 . S
O347 C331 1.266 . S
O348 Tb320 2.325 1_556 S
O348 Tb321 2.658 . S
O348 C338 1.281 . S
O349 Tb321 2.409 . S
O349 C338 1.254 . S
O350 Tb321 2.378 . S
O350 C339 1.236 1_556 S
O351 Tb320 2.341 . S
O351 C339 1.266 . S
H352 C324 0.929 1_556 S
H353 C325 0.931 1_556 S
H354 C327 0.930 . S
H355 C328 0.930 . S
H356 C333 0.929 1_554 S
H357 C334 0.931 1_554 S
H358 C336 0.930 . S
H359 C337 0.930 . S
Tb360 C362 2.809 . S
Tb360 O380 2.484 . S
Tb360 O381 2.440 . S
Tb360 O382 2.658 1_565 S
Tb360 O383 2.409 1_565 S
Tb360 O384 2.380 1_565 S
Tb360 O388 2.325 . S
Tb360 O391 2.341 . S
Tb361 C371 2.809 . S
Tb361 O382 2.325 . S
Tb361 O385 2.341 . S
Tb361 O386 2.484 . S
Tb361 O387 2.440 . S
Tb361 O388 2.658 1_545 S
Tb361 O389 2.409 1_545 S
Tb361 O390 2.378 . S
C362 Tb360 2.809 . S
C362 C363 1.514 . S
C362 O380 1.248 . S
C362 O381 1.266 . S
C363 C362 1.514 . S
C363 C364 1.359 . S
C363 C368 1.348 . S
C364 C363 1.359 . S
C364 C365 1.380 . S
C364 H392 0.929 . S
C365 C364 1.380 . S
C365 C366 1.347 . S
C365 H393 0.931 . S
C366 C365 1.347 . S
C366 C367 1.369 . S
C367 C366 1.369 . S
C367 C368 1.408 . S
C367 H394 0.930 . S
C368 C363 1.348 . S
C368 C367 1.408 . S
C368 H395 0.930 . S
C369 O382 1.281 . S
C369 O383 1.254 . S
C370 O384 1.260 1_565 S
C370 O385 1.239 1_565 S
C371 Tb361 2.809 . S
C371 C372 1.514 . S
C371 O386 1.248 . S
C371 O387 1.266 . S
C372 C371 1.514 . S
C372 C373 1.359 . S
C372 C377 1.348 . S
C373 C372 1.359 . S
C373 C374 1.380 . S
C373 H396 0.929 . S
C374 C373 1.380 . S
C374 C375 1.347 . S
C374 H397 0.931 . S
C375 C374 1.347 . S
C375 C376 1.369 . S
C376 C375 1.369 . S
C376 C377 1.408 . S
C376 H398 0.930 . S
C377 C372 1.348 . S
C377 C376 1.408 . S
C377 H399 0.930 . S
C378 O388 1.281 . S
C378 O389 1.254 . S
C379 O390 1.236 . S
C379 O391 1.266 1_545 S
O380 Tb360 2.484 . S
O380 C362 1.248 . S
O381 Tb360 2.440 . S
O381 C362 1.266 . S
O382 Tb360 2.658 1_545 S
O382 Tb361 2.325 . S
O382 C369 1.281 . S
O383 Tb360 2.409 1_545 S
O383 C369 1.254 . S
O384 Tb360 2.380 1_545 S
O384 C370 1.260 1_545 S
O385 Tb361 2.341 . S
O385 C370 1.239 1_545 S
O386 Tb361 2.484 . S
O386 C371 1.248 . S
O387 Tb361 2.440 . S
O387 C371 1.266 . S
O388 Tb360 2.325 . S
O388 Tb361 2.658 1_565 S
O388 C378 1.281 . S
O389 Tb361 2.409 1_565 S
O389 C378 1.254 . S
O390 Tb361 2.378 . S
O390 C379 1.236 . S
O391 Tb360 2.341 . S
O391 C379 1.266 1_565 S
H392 C364 0.929 . S
H393 C365 0.931 . S
H394 C367 0.930 . S
H395 C368 0.930 . S
H396 C373 0.929 . S
H397 C374 0.931 . S
H398 C376 0.930 . S
H399 C377 0.930 . S
Tb400 C402 2.809 . S
Tb400 O420 2.484 . S
Tb400 O421 2.440 . S
Tb400 O422 2.658 . S
Tb400 O423 2.409 . S
Tb400 O424 2.378 . S
Tb400 O428 2.325 . S
Tb400 O431 2.341 . S
Tb401 C411 2.809 . S
Tb401 O422 2.325 . S
Tb401 O425 2.341 . S
Tb401 O426 2.484 . S
Tb401 O427 2.440 . S
Tb401 O428 2.658 . S
Tb401 O429 2.409 . S
Tb401 O430 2.378 . S
C402 Tb400 2.809 . S
C402 C403 1.514 . S
C402 O420 1.248 . S
C402 O421 1.266 . S
C403 C402 1.514 . S
C403 C404 1.359 . S
C403 C408 1.348 . S
C404 C403 1.359 . S
C404 C405 1.380 . S
C404 H432 0.929 . S
C405 C404 1.380 . S
C405 C406 1.347 . S
C405 H433 0.931 . S
C406 C405 1.347 . S
C406 C407 1.369 . S
C407 C406 1.369 . S
C407 C408 1.408 . S
C407 H434 0.930 . S
C408 C403 1.348 . S
C408 C407 1.408 . S
C408 H435 0.930 . S
C409 O422 1.281 . S
C409 O423 1.254 . S
C410 O424 1.236 . S
C410 O425 1.266 . S
C411 Tb401 2.809 . S
C411 C412 1.514 . S
C411 O426 1.248 . S
C411 O427 1.266 . S
C412 C411 1.514 . S
C412 C413 1.359 . S
C412 C417 1.348 . S
C413 C412 1.359 . S
C413 C414 1.380 . S
C413 H436 0.929 . S
C414 C413 1.380 . S
C414 C415 1.347 . S
C414 H437 0.931 . S
C415 C414 1.347 . S
C415 C416 1.369 . S
C416 C415 1.369 . S
C416 C417 1.408 . S
C416 H438 0.930 . S
C417 C412 1.348 . S
C417 C416 1.408 . S
C417 H439 0.930 . S
C418 O428 1.281 . S
C418 O429 1.254 . S
C419 O430 1.236 . S
C419 O431 1.266 . S
O420 Tb400 2.484 . S
O420 C402 1.248 . S
O421 Tb400 2.440 . S
O421 C402 1.266 . S
O422 Tb400 2.658 . S
O422 Tb401 2.325 . S
O422 C409 1.281 . S
O423 Tb400 2.409 . S
O423 C409 1.254 . S
O424 Tb400 2.378 . S
O424 C410 1.236 . S
O425 Tb401 2.341 . S
O425 C410 1.266 . S
O426 Tb401 2.484 . S
O426 C411 1.248 . S
O427 Tb401 2.440 . S
O427 C411 1.266 . S
O428 Tb400 2.325 . S
O428 Tb401 2.658 . S
O428 C418 1.281 . S
O429 Tb401 2.409 . S
O429 C418 1.254 . S
O430 Tb401 2.378 . S
O430 C419 1.236 . S
O431 Tb400 2.341 . S
O431 C419 1.266 . S
H432 C404 0.929 . S
H433 C405 0.931 . S
H434 C407 0.930 . S
H435 C408 0.930 . S
H436 C413 0.929 . S
H437 C414 0.931 . S
H438 C416 0.930 . S
H439 C417 0.930 . S
Tb440 C442 2.809 . S
Tb440 O460 2.487 . S
Tb440 O461 2.440 . S
Tb440 O462 2.658 . S
Tb440 O463 2.409 . S
Tb440 O464 2.378 1_455 S
Tb440 O468 2.325 1_455 S
Tb440 O471 2.341 . S
Tb441 C451 2.809 . S
Tb441 O462 2.325 1_655 S
Tb441 O465 2.341 . S
Tb441 O466 2.483 1_655 S
Tb441 O467 2.440 . S
Tb441 O468 2.658 . S
Tb441 O469 2.409 . S
Tb441 O470 2.378 1_655 S
C442 Tb440 2.809 . S
C442 C443 1.514 . S
C442 O460 1.261 . S
C442 O461 1.266 . S
C443 C442 1.514 . S
C443 C444 1.359 1_455 S
C443 C448 1.348 . S
C444 C443 1.359 1_655 S
C444 C445 1.380 . S
C444 H472 0.929 . S
C445 C444 1.380 . S
C445 C446 1.347 1_655 S
C445 H473 0.931 . S
C446 C445 1.347 1_455 S
C446 C447 1.369 . S
C447 C446 1.369 . S
C447 C448 1.408 . S
C447 H474 0.930 . S
C448 C443 1.348 . S
C448 C447 1.408 . S
C448 H475 0.930 . S
C449 O462 1.281 . S
C449 O463 1.254 . S
C450 O464 1.236 . S
C450 O465 1.266 . S
C451 Tb441 2.809 . S
C451 C452 1.514 . S
C451 O466 1.240 1_655 S
C451 O467 1.266 . S
C452 C451 1.514 . S
C452 C453 1.359 1_655 S
C452 C457 1.348 . S
C453 C452 1.359 1_455 S
C453 C454 1.380 . S
C453 H476 0.929 . S
C454 C453 1.380 . S
C454 C455 1.347 1_455 S
C454 H477 0.931 . S
C455 C454 1.347 1_655 S
C455 C456 1.369 . S
C456 C455 1.369 . S
C456 C457 1.408 . S
C456 H478 0.930 . S
C457 C452 1.348 . S
C457 C456 1.408 . S
C457 H479 0.930 . S
C458 O468 1.281 . S
C458 O469 1.254 . S
C459 O470 1.236 . S
C459 O471 1.266 . S
O460 Tb440 2.487 . S
O460 C442 1.261 . S
O461 Tb440 2.440 . S
O461 C442 1.266 . S
O462 Tb440 2.658 . S
O462 Tb441 2.325 1_455 S
O462 C449 1.281 . S
O463 Tb440 2.409 . S
O463 C449 1.254 . S
O464 Tb440 2.378 1_655 S
O464 C450 1.236 . S
O465 Tb441 2.341 . S
O465 C450 1.266 . S
O466 Tb441 2.483 1_455 S
O466 C451 1.240 1_455 S
O467 Tb441 2.440 . S
O467 C451 1.266 . S
O468 Tb440 2.325 1_655 S
O468 Tb441 2.658 . S
O468 C458 1.281 . S
O469 Tb441 2.409 . S
O469 C458 1.254 . S
O470 Tb441 2.378 1_455 S
O470 C459 1.236 . S
O471 Tb440 2.341 . S
O471 C459 1.266 . S
H472 C444 0.929 . S
H473 C445 0.931 . S
H474 C447 0.930 . S
H475 C448 0.930 . S
H476 C453 0.929 . S
H477 C454 0.931 . S
H478 C456 0.930 . S
H479 C457 0.930 . S
Tb480 C482 2.809 . S
Tb480 O500 2.484 . S
Tb480 O501 2.440 . S
Tb480 O502 2.658 . S
Tb480 O503 2.409 . S
Tb480 O504 2.378 . S
Tb480 O508 2.325 . S
Tb480 O511 2.341 . S
Tb481 C491 2.809 . S
Tb481 O502 2.325 . S
Tb481 O505 2.341 . S
Tb481 O506 2.484 . S
Tb481 O507 2.440 . S
Tb481 O508 2.658 . S
Tb481 O509 2.409 . S
Tb481 O510 2.378 . S
C482 Tb480 2.809 . S
C482 C483 1.514 . S
C482 O500 1.248 . S
C482 O501 1.266 . S
C483 C482 1.514 . S
C483 C484 1.359 . S
C483 C488 1.348 . S
C484 C483 1.359 . S
C484 C485 1.380 . S
C484 H512 0.929 . S
C485 C484 1.380 . S
C485 C486 1.347 . S
C485 H513 0.931 . S
C486 C485 1.347 . S
C486 C487 1.369 . S
C487 C486 1.369 . S
C487 C488 1.408 . S
C487 H514 0.930 . S
C488 C483 1.348 . S
C488 C487 1.408 . S
C488 H515 0.930 . S
C489 O502 1.281 . S
C489 O503 1.254 . S
C490 O504 1.236 . S
C490 O505 1.266 . S
C491 Tb481 2.809 . S
C491 C492 1.514 . S
C491 O506 1.248 . S
C491 O507 1.266 . S
C492 C491 1.514 . S
C492 C493 1.359 . S
C492 C497 1.348 . S
C493 C492 1.359 . S
C493 C494 1.380 . S
C493 H516 0.929 . S
C494 C493 1.380 . S
C494 C495 1.347 . S
C494 H517 0.931 . S
C495 C494 1.347 . S
C495 C496 1.369 . S
C496 C495 1.369 . S
C496 C497 1.408 . S
C496 H518 0.930 . S
C497 C492 1.348 . S
C497 C496 1.408 . S
C497 H519 0.930 . S
C498 O508 1.281 . S
C498 O509 1.254 . S
C499 O510 1.236 . S
C499 O511 1.266 . S
O500 Tb480 2.484 . S
O500 C482 1.248 . S
O501 Tb480 2.440 . S
O501 C482 1.266 . S
O502 Tb480 2.658 . S
O502 Tb481 2.325 . S
O502 C489 1.281 . S
O503 Tb480 2.409 . S
O503 C489 1.254 . S
O504 Tb480 2.378 . S
O504 C490 1.236 . S
O505 Tb481 2.341 . S
O505 C490 1.266 . S
O506 Tb481 2.484 . S
O506 C491 1.248 . S
O507 Tb481 2.440 . S
O507 C491 1.266 . S
O508 Tb480 2.325 . S
O508 Tb481 2.658 . S
O508 C498 1.281 . S
O509 Tb481 2.409 . S
O509 C498 1.254 . S
O510 Tb481 2.378 . S
O510 C499 1.236 . S
O511 Tb480 2.341 . S
O511 C499 1.266 . S
H512 C484 0.929 . S
H513 C485 0.931 . S
H514 C487 0.930 . S
H515 C488 0.930 . S
H516 C493 0.929 . S
H517 C494 0.931 . S
H518 C496 0.930 . S
H519 C497 0.930 . S
Tb520 C522 2.809 . S
Tb520 O540 2.484 . S
Tb520 O541 2.440 . S
Tb520 O542 2.658 . S
Tb520 O543 2.409 . S
Tb520 O544 2.378 . S
Tb520 O548 2.325 1_554 S
Tb520 O551 2.341 . S
Tb521 C531 2.809 . S
Tb521 O542 2.325 1_556 S
Tb521 O545 2.341 . S
Tb521 O546 2.484 . S
Tb521 O547 2.440 . S
Tb521 O548 2.658 . S
Tb521 O549 2.409 . S
Tb521 O550 2.378 . S
C522 Tb520 2.809 . S
C522 C523 1.514 . S
C522 O540 1.248 . S
C522 O541 1.266 . S
C523 C522 1.514 . S
C523 C524 1.359 . S
C523 C528 1.348 . S
C524 C523 1.359 . S
C524 C525 1.380 . S
C524 H552 0.929 1_554 S
C525 C524 1.380 . S
C525 C526 1.347 . S
C525 H553 0.931 1_554 S
C526 C525 1.347 . S
C526 C527 1.369 . S
C527 C526 1.369 . S
C527 C528 1.408 . S
C527 H554 0.930 . S
C528 C523 1.348 . S
C528 C527 1.408 . S
C528 H555 0.930 . S
C529 O542 1.281 . S
C529 O543 1.254 . S
C530 O544 1.236 1_556 S
C530 O545 1.266 . S
C531 Tb521 2.809 . S
C531 C532 1.514 . S
C531 O546 1.248 . S
C531 O547 1.266 . S
C532 C531 1.514 . S
C532 C533 1.359 . S
C532 C537 1.348 . S
C533 C532 1.359 . S
C533 C534 1.380 . S
C533 H556 0.929 1_556 S
C534 C533 1.380 . S
C534 C535 1.347 . S
C534 H557 0.931 1_556 S
C535 C534 1.347 . S
C535 C536 1.369 . S
C536 C535 1.369 . S
C536 C537 1.408 . S
C536 H558 0.930 . S
C537 C532 1.348 . S
C537 C536 1.408 . S
C537 H559 0.930 . S
C538 O548 1.281 . S
C538 O549 1.254 . S
C539 O550 1.236 1_554 S
C539 O551 1.266 . S
O540 Tb520 2.484 . S
O540 C522 1.248 . S
O541 Tb520 2.440 . S
O541 C522 1.266 . S
O542 Tb520 2.658 . S
O542 Tb521 2.325 1_554 S
O542 C529 1.281 . S
O543 Tb520 2.409 . S
O543 C529 1.254 . S
O544 Tb520 2.378 . S
O544 C530 1.236 1_554 S
O545 Tb521 2.341 . S
O545 C530 1.266 . S
O546 Tb521 2.484 . S
O546 C531 1.248 . S
O547 Tb521 2.440 . S
O547 C531 1.266 . S
O548 Tb520 2.325 1_556 S
O548 Tb521 2.658 . S
O548 C538 1.281 . S
O549 Tb521 2.409 . S
O549 C538 1.254 . S
O550 Tb521 2.378 . S
O550 C539 1.236 1_556 S
O551 Tb520 2.341 . S
O551 C539 1.266 . S
H552 C524 0.929 1_556 S
H553 C525 0.931 1_556 S
H554 C527 0.930 . S
H555 C528 0.930 . S
H556 C533 0.929 1_554 S
H557 C534 0.931 1_554 S
H558 C536 0.930 . S
H559 C537 0.930 . S
Tb560 C562 2.809 . S
Tb560 O580 2.484 . S
Tb560 O581 2.440 . S
Tb560 O582 2.658 . S
Tb560 O583 2.409 . S
Tb560 O584 2.378 . S
Tb560 O588 2.325 1_565 S
Tb560 O591 2.341 1_565 S
Tb561 C571 2.809 . S
Tb561 O582 2.325 1_545 S
Tb561 O585 2.341 1_545 S
Tb561 O586 2.484 . S
Tb561 O587 2.440 . S
Tb561 O588 2.658 . S
Tb561 O589 2.409 . S
Tb561 O590 2.378 . S
C562 Tb560 2.809 . S
C562 C563 1.514 . S
C562 O580 1.248 . S
C562 O581 1.266 . S
C563 C562 1.514 . S
C563 C564 1.359 . S
C563 C568 1.348 . S
C564 C563 1.359 . S
C564 C565 1.380 . S
C564 H592 0.929 . S
C565 C564 1.380 . S
C565 C566 1.347 . S
C565 H593 0.931 . S
C566 C565 1.347 . S
C566 C567 1.369 . S
C567 C566 1.369 . S
C567 C568 1.408 . S
C567 H594 0.930 . S
C568 C563 1.348 . S
C568 C567 1.408 . S
C568 H595 0.930 . S
C569 O582 1.281 . S
C569 O583 1.254 . S
C570 O584 1.236 . S
C570 O585 1.266 . S
C571 Tb561 2.809 . S
C571 C572 1.514 . S
C571 O586 1.248 . S
C571 O587 1.266 . S
C572 C571 1.514 . S
C572 C573 1.359 . S
C572 C577 1.348 . S
C573 C572 1.359 . S
C573 C574 1.380 . S
C573 H596 0.929 . S
C574 C573 1.380 . S
C574 C575 1.347 . S
C574 H597 0.931 . S
C575 C574 1.347 . S
C575 C576 1.369 . S
C576 C575 1.369 . S
C576 C577 1.408 . S
C576 H598 0.930 . S
C577 C572 1.348 . S
C577 C576 1.408 . S
C577 H599 0.930 . S
C578 O588 1.281 . S
C578 O589 1.254 . S
C579 O590 1.236 . S
C579 O591 1.266 . S
O580 Tb560 2.484 . S
O580 C562 1.248 . S
O581 Tb560 2.440 . S
O581 C562 1.266 . S
O582 Tb560 2.658 . S
O582 Tb561 2.325 1_565 S
O582 C569 1.281 . S
O583 Tb560 2.409 . S
O583 C569 1.254 . S
O584 Tb560 2.378 . S
O584 C570 1.236 . S
O585 Tb561 2.341 1_565 S
O585 C570 1.266 . S
O586 Tb561 2.484 . S
O586 C571 1.248 . S
O587 Tb561 2.440 . S
O587 C571 1.266 . S
O588 Tb560 2.325 1_545 S
O588 Tb561 2.658 . S
O588 C578 1.281 . S
O589 Tb561 2.409 . S
O589 C578 1.254 . S
O590 Tb561 2.378 . S
O590 C579 1.236 . S
O591 Tb560 2.341 1_545 S
O591 C579 1.266 . S
H592 C564 0.929 . S
H593 C565 0.931 . S
H594 C567 0.930 . S
H595 C568 0.930 . S
H596 C573 0.929 . S
H597 C574 0.931 . S
H598 C576 0.930 . S
H599 C577 0.930 . S
Tb600 C602 2.809 . S
Tb600 O620 2.484 . S
Tb600 O621 2.440 . S
Tb600 O622 2.658 . S
Tb600 O623 2.409 . S
Tb600 O624 2.378 . S
Tb600 O628 2.325 1_554 S
Tb600 O631 2.341 . S
Tb601 C611 2.809 . S
Tb601 O622 2.325 1_556 S
Tb601 O625 2.341 . S
Tb601 O626 2.484 . S
Tb601 O627 2.440 . S
Tb601 O628 2.658 . S
Tb601 O629 2.409 . S
Tb601 O630 2.378 . S
C602 Tb600 2.809 . S
C602 C603 1.514 . S
C602 O620 1.248 . S
C602 O621 1.266 . S
C603 C602 1.514 . S
C603 C604 1.359 . S
C603 C608 1.348 . S
C604 C603 1.359 . S
C604 C605 1.380 . S
C604 H632 0.929 1_554 S
C605 C604 1.380 . S
C605 C606 1.347 . S
C605 H633 0.931 1_554 S
C606 C605 1.347 . S
C606 C607 1.369 . S
C607 C606 1.369 . S
C607 C608 1.408 . S
C607 H634 0.930 . S
C608 C603 1.348 . S
C608 C607 1.408 . S
C608 H635 0.930 . S
C609 O622 1.281 . S
C609 O623 1.254 . S
C610 O624 1.236 1_556 S
C610 O625 1.266 . S
C611 Tb601 2.809 . S
C611 C612 1.514 . S
C611 O626 1.248 . S
C611 O627 1.266 . S
C612 C611 1.514 . S
C612 C613 1.359 . S
C612 C617 1.348 . S
C613 C612 1.359 . S
C613 C614 1.380 . S
C613 H636 0.929 1_556 S
C614 C613 1.380 . S
C614 C615 1.347 . S
C614 H637 0.931 1_556 S
C615 C614 1.347 . S
C615 C616 1.369 . S
C616 C615 1.369 . S
C616 C617 1.408 . S
C616 H638 0.930 . S
C617 C612 1.348 . S
C617 C616 1.408 . S
C617 H639 0.930 . S
C618 O628 1.281 . S
C618 O629 1.254 . S
C619 O630 1.236 1_554 S
C619 O631 1.266 . S
O620 Tb600 2.484 . S
O620 C602 1.248 . S
O621 Tb600 2.440 . S
O621 C602 1.266 . S
O622 Tb600 2.658 . S
O622 Tb601 2.325 1_554 S
O622 C609 1.281 . S
O623 Tb600 2.409 . S
O623 C609 1.254 . S
O624 Tb600 2.378 . S
O624 C610 1.236 1_554 S
O625 Tb601 2.341 . S
O625 C610 1.266 . S
O626 Tb601 2.484 . S
O626 C611 1.248 . S
O627 Tb601 2.440 . S
O627 C611 1.266 . S
O628 Tb600 2.325 1_556 S
O628 Tb601 2.658 . S
O628 C618 1.281 . S
O629 Tb601 2.409 . S
O629 C618 1.254 . S
O630 Tb601 2.378 . S
O630 C619 1.236 1_556 S
O631 Tb600 2.341 . S
O631 C619 1.266 . S
H632 C604 0.929 1_556 S
H633 C605 0.931 1_556 S
H634 C607 0.930 . S
H635 C608 0.930 . S
H636 C613 0.929 1_554 S
H637 C614 0.931 1_554 S
H638 C616 0.930 . S
H639 C617 0.930 . S
H640 C646 0.930 . S
H641 C650 0.930 . S
H642 C655 0.929 . S
H643 C653 0.929 . S
H644 C648 0.929 . S
H645 C654 0.929 . S
C646 H640 0.930 . S
C646 C647 1.367 1_455 S
C646 C654 1.378 . S
C647 C646 1.367 1_655 S
C647 C655 1.433 . S
C648 H644 0.929 . S
C648 C650 1.378 . S
C648 C652 1.350 . S
C649 C652 1.463 . S
C649 C654 1.350 1_655 S
C649 N657 1.427 . S
C650 H641 0.930 . S
C650 C648 1.378 . S
C650 C651 1.367 . S
C651 C650 1.367 . S
C651 C653 1.433 1_655 S
C652 C648 1.350 . S
C652 C649 1.463 . S
C652 N656 1.427 1_655 S
C653 H643 0.929 . S
C653 C651 1.433 1_455 S
C653 N656 1.384 . S
C654 H645 0.929 . S
C654 C646 1.378 . S
C654 C649 1.350 1_455 S
C655 H642 0.929 . S
C655 C647 1.433 . S
C655 N657 1.384 . S
N656 C652 1.427 1_455 S
N656 C653 1.384 . S
N657 C649 1.427 . S
N657 C655 1.384 . S
H658 C664 0.930 . S
H659 C668 0.930 . S
H660 C673 0.929 . S
H661 C671 0.929 . S
H662 C666 0.929 . S
H663 C672 0.929 . S
C664 H658 0.930 . S
C664 C665 1.367 . S
C664 C672 1.378 . S
C665 C664 1.367 . S
C665 C673 1.433 . S
C666 H662 0.929 . S
C666 C668 1.378 . S
C666 C670 1.350 . S
C667 C670 1.463 . S
C667 C672 1.350 . S
C667 N675 1.427 . S
C668 H659 0.930 . S
C668 C666 1.378 . S
C668 C669 1.367 . S
C669 C668 1.367 . S
C669 C671 1.433 . S
C670 C666 1.350 . S
C670 C667 1.463 . S
C670 N674 1.427 . S
C671 H661 0.929 . S
C671 C669 1.433 . S
C671 N674 1.384 . S
C672 H663 0.929 . S
C672 C664 1.378 . S
C672 C667 1.350 . S
C673 H660 0.929 . S
C673 C665 1.433 . S
C673 N675 1.384 . S
N674 C670 1.427 . S
N674 C671 1.384 . S
N675 C667 1.427 . S
N675 C673 1.384 . S
H676 C682 0.930 . S
H677 C686 0.930 . S
H678 C691 0.929 . S
H679 C689 0.929 . S
H680 C684 0.929 . S
H681 C690 0.929 . S
C682 H676 0.930 . S
C682 C683 1.367 . S
C682 C690 1.378 . S
C683 C682 1.367 . S
C683 C691 1.433 . S
C684 H680 0.929 . S
C684 C686 1.378 . S
C684 C688 1.350 . S
C685 C688 1.463 . S
C685 C690 1.350 . S
C685 N693 1.427 . S
C686 H677 0.930 . S
C686 C684 1.378 . S
C686 C687 1.367 . S
C687 C686 1.367 . S
C687 C689 1.433 . S
C688 C684 1.350 . S
C688 C685 1.463 . S
C688 N692 1.427 . S
C689 H679 0.929 . S
C689 C687 1.433 . S
C689 N692 1.384 . S
C690 H681 0.929 . S
C690 C682 1.378 . S
C690 C685 1.350 . S
C691 H678 0.929 . S
C691 C683 1.433 . S
C691 N693 1.384 . S
N692 C688 1.427 . S
N692 C689 1.384 . S
N693 C685 1.427 . S
N693 C691 1.384 . S
H694 C700 0.930 . S
H695 C704 0.930 . S
H696 C709 0.929 . S
H697 C707 0.929 . S
H698 C702 0.929 . S
H699 C708 0.925 1_565 S
C700 H694 0.930 . S
C700 C701 1.367 . S
C700 C708 1.378 . S
C701 C700 1.367 . S
C701 C709 1.433 . S
C702 H698 0.929 . S
C702 C704 1.378 . S
C702 C706 1.350 . S
C703 C706 1.463 . S
C703 C708 1.350 . S
C703 N711 1.427 . S
C704 H695 0.930 . S
C704 C702 1.378 . S
C704 C705 1.367 1_545 S
C705 C704 1.367 1_565 S
C705 C707 1.433 . S
C706 C702 1.350 . S
C706 C703 1.463 . S
C706 N710 1.427 1_545 S
C707 H697 0.929 . S
C707 C705 1.433 . S
C707 N710 1.384 . S
C708 H699 0.925 1_545 S
C708 C700 1.378 . S
C708 C703 1.350 . S
C709 H696 0.929 . S
C709 C701 1.433 . S
C709 N711 1.384 . S
N710 C706 1.427 1_565 S
N710 C707 1.384 . S
N711 C703 1.427 . S
N711 C709 1.384 . S
H712 C718 0.930 . S
H713 C722 0.930 . S
H714 C727 0.929 . S
H715 C725 0.929 . S
H716 C720 0.929 . S
H717 C726 0.929 . S
C718 H712 0.930 . S
C718 C719 1.367 . S
C718 C726 1.378 . S
C719 C718 1.367 . S
C719 C727 1.433 1_565 S
C720 H716 0.929 . S
C720 C722 1.378 . S
C720 C724 1.350 1_545 S
C721 C724 1.463 . S
C721 C726 1.350 . S
C721 N729 1.427 1_565 S
C722 H713 0.930 . S
C722 C720 1.378 . S
C722 C723 1.367 . S
C723 C722 1.367 . S
C723 C725 1.433 1_545 S
C724 C720 1.350 1_565 S
C724 C721 1.463 . S
C724 N728 1.427 . S
C725 H715 0.929 . S
C725 C723 1.433 1_565 S
C725 N728 1.384 . S
C726 H717 0.929 . S
C726 C718 1.378 . S
C726 C721 1.350 . S
C727 H714 0.929 . S
C727 C719 1.433 1_545 S
C727 N729 1.384 . S
N728 C724 1.427 . S
N728 C725 1.384 . S
N729 C721 1.427 1_545 S
N729 C727 1.384 . S
H730 C736 0.930 . S
H731 C740 0.930 . S
H732 C745 0.929 . S
H733 C743 0.929 1_655 S
H734 C738 0.929 . S
H735 C744 0.929 . S
C736 H730 0.930 . S
C736 C737 1.367 . S
C736 C744 1.378 . S
C737 C736 1.367 . S
C737 C745 1.433 . S
C738 H734 0.929 . S
C738 C740 1.378 . S
C738 C742 1.350 . S
C739 C742 1.463 . S
C739 C744 1.350 . S
C739 N747 1.427 . S
C740 H731 0.930 . S
C740 C738 1.378 . S
C740 C741 1.367 . S
C741 C740 1.367 . S
C741 C743 1.433 . S
C742 C738 1.350 . S
C742 C739 1.463 . S
C742 N746 1.427 . S
C743 H733 0.929 1_455 S
C743 C741 1.433 . S
C743 N746 1.384 . S
C744 H735 0.929 . S
C744 C736 1.378 . S
C744 C739 1.350 . S
C745 H732 0.929 . S
C745 C737 1.433 . S
C745 N747 1.384 . S
N746 C742 1.427 . S
N746 C743 1.384 . S
N747 C739 1.427 . S
N747 C745 1.384 . S
H748 C754 0.930 . S
H749 C758 0.930 . S
H750 C763 0.929 . S
H751 C761 0.929 . S
H752 C756 0.929 . S
H753 C762 0.929 . S
C754 H748 0.930 . S
C754 C755 1.367 . S
C754 C762 1.378 . S
C755 C754 1.367 . S
C755 C763 1.433 . S
C756 H752 0.929 . S
C756 C758 1.378 . S
C756 C760 1.350 . S
C757 C760 1.463 . S
C757 C762 1.350 . S
C757 N765 1.427 . S
C758 H749 0.930 . S
C758 C756 1.378 . S
C758 C759 1.367 . S
C759 C758 1.367 . S
C759 C761 1.433 . S
C760 C756 1.350 . S
C760 C757 1.463 . S
C760 N764 1.427 . S
C761 H751 0.929 . S
C761 C759 1.433 . S
C761 N764 1.384 . S
C762 H753 0.929 . S
C762 C754 1.378 . S
C762 C757 1.350 . S
C763 H750 0.929 . S
C763 C755 1.433 . S
C763 N765 1.384 . S
N764 C760 1.427 . S
N764 C761 1.384 . S
N765 C757 1.427 . S
N765 C763 1.384 . S
H766 C772 0.930 . S
H767 C776 0.930 . S
H768 C781 0.929 . S
H769 C779 0.929 . S
H770 C774 0.929 . S
H771 C780 0.929 . S
C772 H766 0.930 . S
C772 C773 1.367 . S
C772 C780 1.378 . S
C773 C772 1.367 . S
C773 C781 1.433 . S
C774 H770 0.929 . S
C774 C776 1.378 . S
C774 C778 1.350 . S
C775 C778 1.463 . S
C775 C780 1.350 . S
C775 N783 1.427 . S
C776 H767 0.930 . S
C776 C774 1.378 . S
C776 C777 1.367 . S
C777 C776 1.367 . S
C777 C779 1.433 . S
C778 C774 1.350 . S
C778 C775 1.463 . S
C778 N782 1.427 . S
C779 H769 0.929 . S
C779 C777 1.433 . S
C779 N782 1.384 . S
C780 H771 0.929 . S
C780 C772 1.378 . S
C780 C775 1.350 . S
C781 H768 0.929 . S
C781 C773 1.433 . S
C781 N783 1.384 . S
N782 C778 1.427 . S
N782 C779 1.384 . S
N783 C775 1.427 . S
N783 C781 1.384 . S
H784 C790 0.930 . S
H785 C794 0.930 . S
H786 C799 0.929 . S
H787 C797 0.929 . S
H788 C792 0.929 . S
H789 C798 0.929 . S
C790 H784 0.930 . S
C790 C791 1.367 . S
C790 C798 1.378 . S
C791 C790 1.367 . S
C791 C799 1.433 . S
C792 H788 0.929 . S
C792 C794 1.378 . S
C792 C796 1.350 . S
C793 C796 1.463 . S
C793 C798 1.350 . S
C793 N801 1.427 . S
C794 H785 0.930 . S
C794 C792 1.378 . S
C794 C795 1.367 . S
C795 C794 1.367 . S
C795 C797 1.433 . S
C796 C792 1.350 . S
C796 C793 1.463 . S
C796 N800 1.427 . S
C797 H787 0.929 . S
C797 C795 1.433 . S
C797 N800 1.384 . S
C798 H789 0.929 . S
C798 C790 1.378 . S
C798 C793 1.350 . S
C799 H786 0.929 . S
C799 C791 1.433 . S
C799 N801 1.384 . S
N800 C796 1.427 . S
N800 C797 1.384 . S
N801 C793 1.427 . S
N801 C799 1.384 . S
H802 C808 0.930 . S
H803 C812 0.930 . S
H804 C817 0.929 . S
H805 C815 0.929 . S
H806 C810 0.929 . S
H807 C816 0.929 . S
C808 H802 0.930 . S
C808 C809 1.367 . S
C808 C816 1.378 . S
C809 C808 1.367 . S
C809 C817 1.433 . S
C810 H806 0.929 . S
C810 C812 1.378 . S
C810 C814 1.350 . S
C811 C814 1.463 . S
C811 C816 1.350 . S
C811 N819 1.427 . S
C812 H803 0.930 . S
C812 C810 1.378 . S
C812 C813 1.367 . S
C813 C812 1.367 . S
C813 C815 1.433 . S
C814 C810 1.350 . S
C814 C811 1.463 . S
C814 N818 1.427 . S
C815 H805 0.929 . S
C815 C813 1.433 . S
C815 N818 1.384 . S
C816 H807 0.929 . S
C816 C808 1.378 . S
C816 C811 1.350 . S
C817 H804 0.929 . S
C817 C809 1.433 . S
C817 N819 1.384 . S
N818 C814 1.427 . S
N818 C815 1.384 . S
N819 C811 1.427 . S
N819 C817 1.384 . S
H820 C826 0.930 1_545 S
H821 C830 0.930 . S
H822 C835 0.929 . S
H823 C833 0.929 . S
H824 C828 0.929 . S
H825 C834 0.929 . S
C826 H820 0.930 1_565 S
C826 C827 1.367 . S
C826 C834 1.378 1_565 S
C827 C826 1.367 . S
C827 C835 1.433 . S
C828 H824 0.929 . S
C828 C830 1.378 . S
C828 C832 1.350 . S
C829 C832 1.463 . S
C829 C834 1.350 1_565 S
C829 N837 1.427 . S
C830 H821 0.930 . S
C830 C828 1.378 . S
C830 C831 1.367 1_565 S
C831 C830 1.367 1_545 S
C831 C833 1.433 . S
C832 C828 1.350 . S
C832 C829 1.463 . S
C832 N836 1.427 1_565 S
C833 H823 0.929 . S
C833 C831 1.433 . S
C833 N836 1.384 . S
C834 H825 0.929 . S
C834 C826 1.378 1_545 S
C834 C829 1.350 1_545 S
C835 H822 0.929 . S
C835 C827 1.433 . S
C835 N837 1.384 . S
N836 C832 1.427 1_545 S
N836 C833 1.384 . S
N837 C829 1.427 . S
N837 C835 1.384 . S
H838 C844 0.930 1_554 S
H839 C848 0.916 1_655 S
H840 C853 0.929 . S
H841 C851 0.929 . S
H842 C846 0.929 . S
H843 C852 0.929 . S
C844 H838 0.930 1_556 S
C844 C845 1.367 . S
C844 C852 1.378 . S
C845 C844 1.367 . S
C845 C853 1.433 . S
C846 H842 0.929 . S
C846 C848 1.378 . S
C846 C850 1.350 . S
C847 C850 1.463 . S
C847 C852 1.350 . S
C847 N855 1.427 . S
C848 H839 0.916 1_455 S
C848 C846 1.378 . S
C848 C849 1.367 . S
C849 C848 1.367 . S
C849 C851 1.433 . S
C850 C846 1.350 . S
C850 C847 1.463 . S
C850 N854 1.427 . S
C851 H841 0.929 . S
C851 C849 1.433 . S
C851 N854 1.384 . S
C852 H843 0.929 . S
C852 C844 1.378 . S
C852 C847 1.350 . S
C853 H840 0.929 . S
C853 C845 1.433 . S
C853 N855 1.384 . S
N854 C850 1.427 . S
N854 C851 1.384 . S
N855 C847 1.427 . S
N855 C853 1.384 . S
H856 C862 0.930 . S
H857 C866 0.930 1_554 S
H858 C871 0.929 1_554 S
H859 C869 0.929 . S
H860 C864 0.929 1_554 S
H861 C870 0.929 . S
C862 H856 0.930 . S
C862 C863 1.367 . S
C862 C870 1.378 . S
C863 C862 1.367 . S
C863 C871 1.433 . S
C864 H860 0.929 1_556 S
C864 C866 1.378 . S
C864 C868 1.350 . S
C865 C868 1.463 . S
C865 C870 1.350 . S
C865 N873 1.427 . S
C866 H857 0.930 1_556 S
C866 C864 1.378 . S
C866 C867 1.367 . S
C867 C866 1.367 . S
C867 C869 1.433 . S
C868 C864 1.350 . S
C868 C865 1.463 . S
C868 N872 1.427 . S
C869 H859 0.929 . S
C869 C867 1.433 . S
C869 N872 1.384 . S
C870 H861 0.929 . S
C870 C862 1.378 . S
C870 C865 1.350 . S
C871 H858 0.929 1_556 S
C871 C863 1.433 . S
C871 N873 1.384 . S
N872 C868 1.427 . S
N872 C869 1.384 . S
N873 C865 1.427 . S
N873 C871 1.384 . S
H874 C880 0.930 . S
H875 C884 0.930 . S
H876 C889 0.929 . S
H877 C887 0.929 . S
H878 C882 0.929 . S
H879 C888 0.929 . S
C880 H874 0.930 . S
C880 C881 1.367 . S
C880 C888 1.378 . S
C881 C880 1.367 . S
C881 C889 1.433 . S
C882 H878 0.929 . S
C882 C884 1.378 . S
C882 C886 1.350 . S
C883 C886 1.463 . S
C883 C888 1.350 . S
C883 N891 1.427 . S
C884 H875 0.930 . S
C884 C882 1.378 . S
C884 C885 1.367 . S
C885 C884 1.367 . S
C885 C887 1.433 . S
C886 C882 1.350 . S
C886 C883 1.463 . S
C886 N890 1.427 . S
C887 H877 0.929 . S
C887 C885 1.433 . S
C887 N890 1.384 . S
C888 H879 0.929 . S
C888 C880 1.378 . S
C888 C883 1.350 . S
C889 H876 0.929 . S
C889 C881 1.433 . S
C889 N891 1.384 . S
N890 C886 1.427 . S
N890 C887 1.384 . S
N891 C883 1.427 . S
N891 C889 1.384 . S
H892 C898 0.930 . S
H893 C902 0.930 . S
H894 C907 0.929 . S
H895 C905 0.929 . S
H896 C900 0.929 . S
H897 C906 0.929 . S
C898 H892 0.930 . S
C898 C899 1.367 . S
C898 C906 1.378 . S
C899 C898 1.367 . S
C899 C907 1.433 . S
C900 H896 0.929 . S
C900 C902 1.378 . S
C900 C904 1.350 . S
C901 C904 1.463 . S
C901 C906 1.350 . S
C901 N909 1.427 . S
C902 H893 0.930 . S
C902 C900 1.378 . S
C902 C903 1.367 . S
C903 C902 1.367 . S
C903 C905 1.433 . S
C904 C900 1.350 . S
C904 C901 1.463 . S
C904 N908 1.427 . S
C905 H895 0.929 . S
C905 C903 1.433 . S
C905 N908 1.384 . S
C906 H897 0.929 . S
C906 C898 1.378 . S
C906 C901 1.350 . S
C907 H894 0.929 . S
C907 C899 1.433 . S
C907 N909 1.384 . S
N908 C904 1.427 . S
N908 C905 1.384 . S
N909 C901 1.427 . S
N909 C907 1.384 . S
H910 C916 0.930 . S
H911 C920 0.930 . S
H912 C925 0.929 . S
H913 C923 0.929 . S
H914 C918 0.929 . S
H915 C924 0.929 . S
C916 H910 0.930 . S
C916 C917 1.367 . S
C916 C924 1.378 . S
C917 C916 1.367 . S
C917 C925 1.433 . S
C918 H914 0.929 . S
C918 C920 1.378 . S
C918 C922 1.350 . S
C919 C922 1.463 . S
C919 C924 1.350 . S
C919 N927 1.427 . S
C920 H911 0.930 . S
C920 C918 1.378 . S
C920 C921 1.367 . S
C921 C920 1.367 . S
C921 C923 1.433 . S
C922 C918 1.350 . S
C922 C919 1.463 . S
C922 N926 1.427 . S
C923 H913 0.929 . S
C923 C921 1.433 . S
C923 N926 1.384 . S
C924 H915 0.929 . S
C924 C916 1.378 . S
C924 C919 1.350 . S
C925 H912 0.929 . S
C925 C917 1.433 . S
C925 N927 1.384 . S
N926 C922 1.427 . S
N926 C923 1.384 . S
N927 C919 1.427 . S
N927 C925 1.384 . S
H928 C934 0.930 . S
H929 C938 0.930 . S
H930 C943 0.929 . S
H931 C941 0.929 . S
H932 C936 0.929 . S
H933 C942 0.929 . S
C934 H928 0.930 . S
C934 C935 1.367 . S
C934 C942 1.378 . S
C935 C934 1.367 . S
C935 C943 1.433 . S
C936 H932 0.929 . S
C936 C938 1.378 . S
C936 C940 1.350 . S
C937 C940 1.463 . S
C937 C942 1.350 . S
C937 N945 1.427 . S
C938 H929 0.930 . S
C938 C936 1.378 . S
C938 C939 1.367 . S
C939 C938 1.367 . S
C939 C941 1.433 . S
C940 C936 1.350 . S
C940 C937 1.463 . S
C940 N944 1.427 . S
C941 H931 0.929 . S
C941 C939 1.433 . S
C941 N944 1.384 . S
C942 H933 0.929 . S
C942 C934 1.378 . S
C942 C937 1.350 . S
C943 H930 0.929 . S
C943 C935 1.433 . S
C943 N945 1.384 . S
N944 C940 1.427 . S
N944 C941 1.384 . S
N945 C937 1.427 . S
N945 C943 1.384 . S
H946 C952 0.930 . S
H947 C956 0.930 . S
H948 C961 0.929 . S
H949 C959 0.929 . S
H950 C954 0.929 . S
H951 C960 0.929 . S
C952 H946 0.930 . S
C952 C953 1.367 . S
C952 C960 1.378 . S
C953 C952 1.367 . S
C953 C961 1.433 . S
C954 H950 0.929 . S
C954 C956 1.378 . S
C954 C958 1.350 . S
C955 C958 1.463 . S
C955 C960 1.350 . S
C955 N963 1.427 . S
C956 H947 0.930 . S
C956 C954 1.378 . S
C956 C957 1.367 . S
C957 C956 1.367 . S
C957 C959 1.433 . S
C958 C954 1.350 . S
C958 C955 1.463 . S
C958 N962 1.427 . S
C959 H949 0.929 . S
C959 C957 1.433 . S
C959 N962 1.384 . S
C960 H951 0.929 . S
C960 C952 1.378 . S
C960 C955 1.350 . S
C961 H948 0.929 . S
C961 C953 1.433 . S
C961 N963 1.384 . S
N962 C958 1.427 . S
N962 C959 1.384 . S
N963 C955 1.427 . S
N963 C961 1.384 . S
H964 C970 0.930 . S
H965 C974 0.930 . S
H966 C979 0.929 . S
H967 C977 0.929 . S
H968 C972 0.929 . S
H969 C978 0.929 . S
C970 H964 0.930 . S
C970 C971 1.367 . S
C970 C978 1.378 . S
C971 C970 1.367 . S
C971 C979 1.433 . S
C972 H968 0.929 . S
C972 C974 1.378 . S
C972 C976 1.350 . S
C973 C976 1.463 . S
C973 C978 1.350 . S
C973 N981 1.427 . S
C974 H965 0.930 . S
C974 C972 1.378 . S
C974 C975 1.367 . S
C975 C974 1.367 . S
C975 C977 1.433 . S
C976 C972 1.350 . S
C976 C973 1.463 . S
C976 N980 1.427 . S
C977 H967 0.929 . S
C977 C975 1.433 . S
C977 N980 1.384 . S
C978 H969 0.929 . S
C978 C970 1.378 . S
C978 C973 1.350 . S
C979 H966 0.929 . S
C979 C971 1.433 . S
C979 N981 1.384 . S
N980 C976 1.427 . S
N980 C977 1.384 . S
N981 C973 1.427 . S
N981 C979 1.384 . S
H982 C988 0.930 . S
H983 C992 0.930 . S
H984 C997 0.929 . S
H985 C995 0.929 . S
H986 C990 0.929 . S
H987 C996 0.929 . S
C988 H982 0.930 . S
C988 C989 1.367 . S
C988 C996 1.378 . S
C989 C988 1.367 . S
C989 C997 1.433 . S
C990 H986 0.929 . S
C990 C992 1.378 . S
C990 C994 1.350 . S
C991 C994 1.463 . S
C991 C996 1.350 . S
C991 N999 1.427 . S
C992 H983 0.930 . S
C992 C990 1.378 . S
C992 C993 1.367 . S
C993 C992 1.367 . S
C993 C995 1.433 . S
C994 C990 1.350 . S
C994 C991 1.463 . S
C994 N998 1.427 . S
C995 H985 0.929 . S
C995 C993 1.433 . S
C995 N998 1.384 . S
C996 H987 0.929 . S
C996 C988 1.378 . S
C996 C991 1.350 . S
C997 H984 0.929 . S
C997 C989 1.433 . S
C997 N999 1.384 . S
N998 C994 1.427 . S
N998 C995 1.384 . S
N999 C991 1.427 . S
N999 C997 1.384 . S
H1000 C1006 0.930 . S
H1001 C1010 0.930 . S
H1002 C1015 0.929 . S
H1003 C1013 0.929 . S
H1004 C1008 0.929 . S
H1005 C1014 0.929 . S
C1006 H1000 0.930 . S
C1006 C1007 1.367 . S
C1006 C1014 1.378 . S
C1007 C1006 1.367 . S
C1007 C1015 1.433 . S
C1008 H1004 0.929 . S
C1008 C1010 1.378 . S
C1008 C1012 1.350 . S
C1009 C1012 1.463 . S
C1009 C1014 1.350 . S
C1009 N1017 1.427 . S
C1010 H1001 0.930 . S
C1010 C1008 1.378 . S
C1010 C1011 1.367 . S
C1011 C1010 1.367 . S
C1011 C1013 1.433 . S
C1012 C1008 1.350 . S
C1012 C1009 1.463 . S
C1012 N1016 1.427 . S
C1013 H1003 0.929 . S
C1013 C1011 1.433 . S
C1013 N1016 1.384 . S
C1014 H1005 0.929 . S
C1014 C1006 1.378 . S
C1014 C1009 1.350 . S
C1015 H1002 0.929 . S
C1015 C1007 1.433 . S
C1015 N1017 1.384 . S
N1016 C1012 1.427 . S
N1016 C1013 1.384 . S
N1017 C1009 1.427 . S
N1017 C1015 1.384 . S
H1018 C1024 0.930 . S
H1019 C1028 0.930 . S
H1020 C1033 0.929 . S
H1021 C1031 0.929 . S
H1022 C1026 0.929 . S
H1023 C1032 0.929 . S
C1024 H1018 0.930 . S
C1024 C1025 1.367 . S
C1024 C1032 1.378 . S
C1025 C1024 1.367 . S
C1025 C1033 1.433 1_655 S
C1026 H1022 0.929 . S
C1026 C1028 1.378 . S
C1026 C1030 1.350 1_455 S
C1027 C1030 1.463 . S
C1027 C1032 1.350 . S
C1027 N1035 1.427 1_655 S
C1028 H1019 0.930 . S
C1028 C1026 1.378 . S
C1028 C1029 1.367 1_455 S
C1029 C1028 1.367 1_655 S
C1029 C1031 1.433 . S
C1030 C1026 1.350 1_655 S
C1030 C1027 1.463 . S
C1030 N1034 1.427 . S
C1031 H1021 0.929 . S
C1031 C1029 1.433 . S
C1031 N1034 1.384 . S
C1032 H1023 0.929 . S
C1032 C1024 1.378 . S
C1032 C1027 1.350 . S
C1033 H1020 0.929 . S
C1033 C1025 1.433 1_455 S
C1033 N1035 1.384 . S
N1034 C1030 1.427 . S
N1034 C1031 1.384 . S
N1035 C1027 1.427 1_455 S
N1035 C1033 1.384 . S
H1036 C1042 0.930 . S
H1037 C1046 0.930 . S
H1038 C1051 0.929 . S
H1039 C1049 0.929 . S
H1040 C1044 0.929 . S
H1041 C1050 0.929 . S
C1042 H1036 0.930 . S
C1042 C1043 1.367 . S
C1042 C1050 1.378 . S
C1043 C1042 1.367 . S
C1043 C1051 1.433 . S
C1044 H1040 0.929 . S
C1044 C1046 1.378 . S
C1044 C1048 1.350 . S
C1045 C1048 1.463 . S
C1045 C1050 1.350 . S
C1045 N1053 1.427 . S
C1046 H1037 0.930 . S
C1046 C1044 1.378 . S
C1046 C1047 1.367 . S
C1047 C1046 1.367 . S
C1047 C1049 1.433 . S
C1048 C1044 1.350 . S
C1048 C1045 1.463 . S
C1048 N1052 1.427 . S
C1049 H1039 0.929 . S
C1049 C1047 1.433 . S
C1049 N1052 1.384 . S
C1050 H1041 0.929 . S
C1050 C1042 1.378 . S
C1050 C1045 1.350 . S
C1051 H1038 0.929 . S
C1051 C1043 1.433 . S
C1051 N1053 1.384 . S
N1052 C1048 1.427 . S
N1052 C1049 1.384 . S
N1053 C1045 1.427 . S
N1053 C1051 1.384 . S
H1054 C1060 0.930 . S
H1055 C1064 0.930 . S
H1056 C1069 0.929 . S
H1057 C1067 0.929 . S
H1058 C1062 0.929 . S
H1059 C1068 0.929 . S
C1060 H1054 0.930 . S
C1060 C1061 1.367 . S
C1060 C1068 1.378 . S
C1061 C1060 1.367 . S
C1061 C1069 1.433 . S
C1062 H1058 0.929 . S
C1062 C1064 1.378 . S
C1062 C1066 1.350 . S
C1063 C1066 1.463 . S
C1063 C1068 1.350 . S
C1063 N1071 1.427 . S
C1064 H1055 0.930 . S
C1064 C1062 1.378 . S
C1064 C1065 1.367 . S
C1065 C1064 1.367 . S
C1065 C1067 1.433 . S
C1066 C1062 1.350 . S
C1066 C1063 1.463 . S
C1066 N1070 1.427 . S
C1067 H1057 0.929 . S
C1067 C1065 1.433 . S
C1067 N1070 1.384 . S
C1068 H1059 0.929 . S
C1068 C1060 1.378 . S
C1068 C1063 1.350 . S
C1069 H1056 0.929 . S
C1069 C1061 1.433 . S
C1069 N1071 1.384 . S
N1070 C1066 1.427 . S
N1070 C1067 1.384 . S
N1071 C1063 1.427 . S
N1071 C1069 1.384 . S
H1072 C1078 0.930 . S
H1073 C1082 0.930 . S
H1074 C1087 0.929 . S
H1075 C1085 0.929 . S
H1076 C1080 0.929 . S
H1077 C1086 0.929 . S
C1078 H1072 0.930 . S
C1078 C1079 1.367 . S
C1078 C1086 1.378 . S
C1079 C1078 1.367 . S
C1079 C1087 1.433 . S
C1080 H1076 0.929 . S
C1080 C1082 1.378 . S
C1080 C1084 1.350 . S
C1081 C1084 1.463 . S
C1081 C1086 1.350 . S
C1081 N1089 1.427 . S
C1082 H1073 0.930 . S
C1082 C1080 1.378 . S
C1082 C1083 1.367 . S
C1083 C1082 1.367 . S
C1083 C1085 1.433 . S
C1084 C1080 1.350 . S
C1084 C1081 1.463 . S
C1084 N1088 1.427 . S
C1085 H1075 0.929 . S
C1085 C1083 1.433 . S
C1085 N1088 1.384 . S
C1086 H1077 0.929 . S
C1086 C1078 1.378 . S
C1086 C1081 1.350 . S
C1087 H1074 0.929 . S
C1087 C1079 1.433 . S
C1087 N1089 1.384 . S
N1088 C1084 1.427 . S
N1088 C1085 1.384 . S
N1089 C1081 1.427 . S
N1089 C1087 1.384 . S
H1090 C1096 0.930 . S
H1091 C1100 0.930 . S
H1092 C1105 0.929 . S
H1093 C1103 0.929 . S
H1094 C1098 0.929 . S
H1095 C1104 0.929 . S
C1096 H1090 0.930 . S
C1096 C1097 1.367 . S
C1096 C1104 1.378 . S
C1097 C1096 1.367 . S
C1097 C1105 1.433 . S
C1098 H1094 0.929 . S
C1098 C1100 1.378 . S
C1098 C1102 1.350 . S
C1099 C1102 1.463 . S
C1099 C1104 1.350 . S
C1099 N1107 1.427 . S
C1100 H1091 0.930 . S
C1100 C1098 1.378 . S
C1100 C1101 1.367 . S
C1101 C1100 1.367 . S
C1101 C1103 1.433 . S
C1102 C1098 1.350 . S
C1102 C1099 1.463 . S
C1102 N1106 1.427 . S
C1103 H1093 0.929 . S
C1103 C1101 1.433 . S
C1103 N1106 1.384 . S
C1104 H1095 0.929 . S
C1104 C1096 1.378 . S
C1104 C1099 1.350 . S
C1105 H1092 0.929 . S
C1105 C1097 1.433 . S
C1105 N1107 1.384 . S
N1106 C1102 1.427 . S
N1106 C1103 1.384 . S
N1107 C1099 1.427 . S
N1107 C1105 1.384 . S
H1108 C1114 0.930 . S
H1109 C1118 0.930 . S
H1110 C1123 0.929 . S
H1111 C1121 0.929 . S
H1112 C1116 0.929 . S
H1113 C1122 0.929 . S
C1114 H1108 0.930 . S
C1114 C1115 1.367 1_545 S
C1114 C1122 1.378 . S
C1115 C1114 1.367 1_565 S
C1115 C1123 1.433 . S
C1116 H1112 0.929 . S
C1116 C1118 1.378 . S
C1116 C1120 1.350 1_565 S
C1117 C1120 1.463 . S
C1117 C1122 1.350 . S
C1117 N1125 1.427 1_545 S
C1118 H1109 0.930 . S
C1118 C1116 1.378 . S
C1118 C1119 1.367 1_565 S
C1119 C1118 1.367 1_545 S
C1119 C1121 1.433 . S
C1120 C1116 1.350 1_545 S
C1120 C1117 1.463 . S
C1120 N1124 1.427 . S
C1121 H1111 0.929 . S
C1121 C1119 1.433 . S
C1121 N1124 1.384 . S
C1122 H1113 0.929 . S
C1122 C1114 1.378 . S
C1122 C1117 1.350 . S
C1123 H1110 0.929 . S
C1123 C1115 1.433 . S
C1123 N1125 1.384 . S
N1124 C1120 1.427 . S
N1124 C1121 1.384 . S
N1125 C1117 1.427 1_565 S
N1125 C1123 1.384 . S
H1126 C1132 0.930 1_556 S
H1127 C1136 0.930 . S
H1128 C1141 0.929 . S
H1129 C1139 0.929 1_556 S
H1130 C1134 0.929 . S
H1131 C1140 0.929 1_556 S
C1132 H1126 0.930 1_554 S
C1132 C1133 1.367 . S
C1132 C1140 1.378 . S
C1133 C1132 1.367 . S
C1133 C1141 1.433 . S
C1134 H1130 0.929 . S
C1134 C1136 1.378 . S
C1134 C1138 1.350 . S
C1135 C1138 1.463 . S
C1135 C1140 1.350 . S
C1135 N1143 1.427 . S
C1136 H1127 0.930 . S
C1136 C1134 1.378 . S
C1136 C1137 1.367 . S
C1137 C1136 1.367 . S
C1137 C1139 1.433 . S
C1138 C1134 1.350 . S
C1138 C1135 1.463 . S
C1138 N1142 1.427 . S
C1139 H1129 0.929 1_554 S
C1139 C1137 1.433 . S
C1139 N1142 1.384 . S
C1140 H1131 0.929 1_554 S
C1140 C1132 1.378 . S
C1140 C1135 1.350 . S
C1141 H1128 0.929 . S
C1141 C1133 1.433 . S
C1141 N1143 1.384 . S
N1142 C1138 1.427 . S
N1142 C1139 1.384 . S
N1143 C1135 1.427 . S
N1143 C1141 1.384 . S
H1144 C1150 0.930 . S
H1145 C1154 0.930 . S
H1146 C1159 0.929 . S
H1147 C1157 0.929 . S
H1148 C1152 0.929 . S
H1149 C1158 0.929 . S
C1150 H1144 0.930 . S
C1150 C1151 1.367 . S
C1150 C1158 1.378 . S
C1151 C1150 1.367 . S
C1151 C1159 1.433 . S
C1152 H1148 0.929 . S
C1152 C1154 1.378 . S
C1152 C1156 1.350 . S
C1153 C1156 1.463 . S
C1153 C1158 1.350 . S
C1153 N1161 1.427 . S
C1154 H1145 0.930 . S
C1154 C1152 1.378 . S
C1154 C1155 1.367 . S
C1155 C1154 1.367 . S
C1155 C1157 1.433 . S
C1156 C1152 1.350 . S
C1156 C1153 1.463 . S
C1156 N1160 1.427 . S
C1157 H1147 0.929 . S
C1157 C1155 1.433 . S
C1157 N1160 1.384 . S
C1158 H1149 0.929 . S
C1158 C1150 1.378 . S
C1158 C1153 1.350 . S
C1159 H1146 0.929 . S
C1159 C1151 1.433 . S
C1159 N1161 1.384 . S
N1160 C1156 1.427 . S
N1160 C1157 1.384 . S
N1161 C1153 1.427 . S
N1161 C1159 1.384 . S
H1162 C1168 0.930 . S
H1163 C1172 0.930 . S
H1164 C1177 0.929 . S
H1165 C1175 0.929 . S
H1166 C1170 0.929 . S
H1167 C1176 0.929 . S
C1168 H1162 0.930 . S
C1168 C1169 1.367 . S
C1168 C1176 1.378 . S
C1169 C1168 1.367 . S
C1169 C1177 1.433 . S
C1170 H1166 0.929 . S
C1170 C1172 1.378 . S
C1170 C1174 1.350 . S
C1171 C1174 1.463 . S
C1171 C1176 1.350 . S
C1171 N1179 1.427 . S
C1172 H1163 0.930 . S
C1172 C1170 1.378 . S
C1172 C1173 1.367 . S
C1173 C1172 1.367 . S
C1173 C1175 1.433 . S
C1174 C1170 1.350 . S
C1174 C1171 1.463 . S
C1174 N1178 1.427 . S
C1175 H1165 0.929 . S
C1175 C1173 1.433 . S
C1175 N1178 1.384 . S
C1176 H1167 0.929 . S
C1176 C1168 1.378 . S
C1176 C1171 1.350 . S
C1177 H1164 0.929 . S
C1177 C1169 1.433 . S
C1177 N1179 1.384 . S
N1178 C1174 1.427 . S
N1178 C1175 1.384 . S
N1179 C1171 1.427 . S
N1179 C1177 1.384 . S
H1180 C1186 0.930 . S
H1181 C1190 0.930 . S
H1182 C1195 0.929 . S
H1183 C1193 0.929 . S
H1184 C1188 0.929 . S
H1185 C1194 0.929 . S
C1186 H1180 0.930 . S
C1186 C1187 1.367 . S
C1186 C1194 1.378 . S
C1187 C1186 1.367 . S
C1187 C1195 1.433 . S
C1188 H1184 0.929 . S
C1188 C1190 1.378 . S
C1188 C1192 1.350 . S
C1189 C1192 1.463 . S
C1189 C1194 1.350 . S
C1189 N1197 1.427 . S
C1190 H1181 0.930 . S
C1190 C1188 1.378 . S
C1190 C1191 1.367 . S
C1191 C1190 1.367 . S
C1191 C1193 1.433 . S
C1192 C1188 1.350 . S
C1192 C1189 1.463 . S
C1192 N1196 1.427 . S
C1193 H1183 0.929 . S
C1193 C1191 1.433 . S
C1193 N1196 1.384 . S
C1194 H1185 0.929 . S
C1194 C1186 1.378 . S
C1194 C1189 1.350 . S
C1195 H1182 0.929 . S
C1195 C1187 1.433 . S
C1195 N1197 1.384 . S
N1196 C1192 1.427 . S
N1196 C1193 1.384 . S
N1197 C1189 1.427 . S
N1197 C1195 1.384 . S
H1198 C1204 0.930 . S
H1199 C1208 0.930 . S
H1200 C1213 0.929 . S
H1201 C1211 0.929 . S
H1202 C1206 0.929 . S
H1203 C1212 0.929 . S
C1204 H1198 0.930 . S
C1204 C1205 1.367 . S
C1204 C1212 1.378 . S
C1205 C1204 1.367 . S
C1205 C1213 1.433 . S
C1206 H1202 0.929 . S
C1206 C1208 1.378 . S
C1206 C1210 1.350 . S
C1207 C1210 1.463 . S
C1207 C1212 1.350 . S
C1207 N1215 1.427 . S
C1208 H1199 0.930 . S
C1208 C1206 1.378 . S
C1208 C1209 1.367 . S
C1209 C1208 1.367 . S
C1209 C1211 1.433 . S
C1210 C1206 1.350 . S
C1210 C1207 1.463 . S
C1210 N1214 1.427 . S
C1211 H1201 0.929 . S
C1211 C1209 1.433 . S
C1211 N1214 1.384 . S
C1212 H1203 0.929 . S
C1212 C1204 1.378 . S
C1212 C1207 1.350 . S
C1213 H1200 0.929 . S
C1213 C1205 1.433 . S
C1213 N1215 1.384 . S
N1214 C1210 1.427 . S
N1214 C1211 1.384 . S
N1215 C1207 1.427 . S
N1215 C1213 1.384 . S
H1216 C1222 0.930 . S
H1217 C1226 0.958 . S
H1218 C1231 0.929 . S
H1219 C1229 0.929 . S
H1220 C1224 0.929 . S
H1221 C1230 0.929 . S
C1222 H1216 0.930 . S
C1222 C1223 1.367 . S
C1222 C1230 1.378 . S
C1223 C1222 1.367 . S
C1223 C1231 1.433 . S
C1224 H1220 0.929 . S
C1224 C1226 1.378 . S
C1224 C1228 1.350 . S
C1225 C1228 1.463 . S
C1225 C1230 1.350 . S
C1225 N1233 1.427 . S
C1226 H1217 0.958 . S
C1226 C1224 1.378 . S
C1226 C1227 1.367 . S
C1227 C1226 1.367 . S
C1227 C1229 1.433 . S
C1228 C1224 1.350 . S
C1228 C1225 1.463 . S
C1228 N1232 1.427 . S
C1229 H1219 0.929 . S
C1229 C1227 1.433 . S
C1229 N1232 1.384 . S
C1230 H1221 0.929 . S
C1230 C1222 1.378 . S
C1230 C1225 1.350 . S
C1231 H1218 0.929 . S
C1231 C1223 1.433 . S
C1231 N1233 1.384 . S
N1232 C1228 1.427 . S
N1232 C1229 1.384 . S
N1233 C1225 1.427 . S
N1233 C1231 1.384 . S
H1234 C1240 0.930 . S
H1235 C1244 0.930 . S
H1236 C1249 0.929 . S
H1237 C1247 0.929 . S
H1238 C1242 0.929 . S
H1239 C1248 0.929 . S
C1240 H1234 0.930 . S
C1240 C1241 1.367 . S
C1240 C1248 1.378 . S
C1241 C1240 1.367 . S
C1241 C1249 1.433 . S
C1242 H1238 0.929 . S
C1242 C1244 1.378 . S
C1242 C1246 1.350 . S
C1243 C1246 1.463 . S
C1243 C1248 1.350 . S
C1243 N1251 1.427 . S
C1244 H1235 0.930 . S
C1244 C1242 1.378 . S
C1244 C1245 1.367 . S
C1245 C1244 1.367 . S
C1245 C1247 1.433 . S
C1246 C1242 1.350 . S
C1246 C1243 1.463 . S
C1246 N1250 1.427 . S
C1247 H1237 0.929 . S
C1247 C1245 1.433 . S
C1247 N1250 1.384 . S
C1248 H1239 0.929 . S
C1248 C1240 1.378 . S
C1248 C1243 1.350 . S
C1249 H1236 0.929 . S
C1249 C1241 1.433 . S
C1249 N1251 1.384 . S
N1250 C1246 1.427 . S
N1250 C1247 1.384 . S
N1251 C1243 1.427 . S
N1251 C1249 1.384 . S
H1252 C1258 0.930 . S
H1253 C1262 0.930 . S
H1254 C1267 0.929 . S
H1255 C1265 0.929 . S
H1256 C1260 0.929 . S
H1257 C1266 0.929 . S
C1258 H1252 0.930 . S
C1258 C1259 1.367 . S
C1258 C1266 1.378 . S
C1259 C1258 1.367 . S
C1259 C1267 1.433 . S
C1260 H1256 0.929 . S
C1260 C1262 1.378 . S
C1260 C1264 1.350 . S
C1261 C1264 1.463 . S
C1261 C1266 1.350 . S
C1261 N1269 1.427 . S
C1262 H1253 0.930 . S
C1262 C1260 1.378 . S
C1262 C1263 1.367 . S
C1263 C1262 1.367 . S
C1263 C1265 1.433 . S
C1264 C1260 1.350 . S
C1264 C1261 1.463 . S
C1264 N1268 1.427 . S
C1265 H1255 0.929 . S
C1265 C1263 1.433 . S
C1265 N1268 1.384 . S
C1266 H1257 0.929 . S
C1266 C1258 1.378 . S
C1266 C1261 1.350 . S
C1267 H1254 0.929 . S
C1267 C1259 1.433 . S
C1267 N1269 1.384 . S
N1268 C1264 1.427 . S
N1268 C1265 1.384 . S
N1269 C1261 1.427 . S
N1269 C1267 1.384 . S
H1270 C1276 0.930 . S
H1271 C1280 0.930 . S
H1272 C1285 0.929 . S
H1273 C1283 0.929 . S
H1274 C1278 0.929 . S
H1275 C1284 0.929 . S
C1276 H1270 0.930 . S
C1276 C1277 1.367 . S
C1276 C1284 1.378 . S
C1277 C1276 1.367 . S
C1277 C1285 1.433 . S
C1278 H1274 0.929 . S
C1278 C1280 1.378 . S
C1278 C1282 1.350 . S
C1279 C1282 1.463 . S
C1279 C1284 1.350 . S
C1279 N1287 1.427 . S
C1280 H1271 0.930 . S
C1280 C1278 1.378 . S
C1280 C1281 1.367 . S
C1281 C1280 1.367 . S
C1281 C1283 1.433 . S
C1282 C1278 1.350 . S
C1282 C1279 1.463 . S
C1282 N1286 1.427 . S
C1283 H1273 0.929 . S
C1283 C1281 1.433 . S
C1283 N1286 1.384 . S
C1284 H1275 0.929 . S
C1284 C1276 1.378 . S
C1284 C1279 1.350 . S
C1285 H1272 0.929 . S
C1285 C1277 1.433 . S
C1285 N1287 1.384 . S
N1286 C1282 1.427 . S
N1286 C1283 1.384 . S
N1287 C1279 1.427 . S
N1287 C1285 1.384 . S
H1288 C1294 0.930 . S
H1289 C1298 0.930 . S
H1290 C1303 0.929 . S
H1291 C1301 0.929 . S
H1292 C1296 0.929 . S
H1293 C1302 0.929 . S
C1294 H1288 0.930 . S
C1294 C1295 1.367 . S
C1294 C1302 1.378 . S
C1295 C1294 1.367 . S
C1295 C1303 1.433 . S
C1296 H1292 0.929 . S
C1296 C1298 1.378 . S
C1296 C1300 1.350 . S
C1297 C1300 1.463 . S
C1297 C1302 1.350 . S
C1297 N1305 1.427 . S
C1298 H1289 0.930 . S
C1298 C1296 1.378 . S
C1298 C1299 1.367 . S
C1299 C1298 1.367 . S
C1299 C1301 1.433 . S
C1300 C1296 1.350 . S
C1300 C1297 1.463 . S
C1300 N1304 1.427 . S
C1301 H1291 0.929 . S
C1301 C1299 1.433 . S
C1301 N1304 1.384 . S
C1302 H1293 0.929 . S
C1302 C1294 1.378 . S
C1302 C1297 1.350 . S
C1303 H1290 0.929 . S
C1303 C1295 1.433 . S
C1303 N1305 1.384 . S
N1304 C1300 1.427 . S
N1304 C1301 1.384 . S
N1305 C1297 1.427 . S
N1305 C1303 1.384 . S
H1306 C1312 0.930 . S
H1307 C1316 0.930 . S
H1308 C1321 0.929 . S
H1309 C1319 0.929 . S
H1310 C1314 0.929 . S
H1311 C1320 0.929 . S
C1312 H1306 0.930 . S
C1312 C1313 1.367 . S
C1312 C1320 1.378 . S
C1313 C1312 1.367 . S
C1313 C1321 1.433 . S
C1314 H1310 0.929 . S
C1314 C1316 1.378 . S
C1314 C1318 1.350 . S
C1315 C1318 1.463 . S
C1315 C1320 1.350 . S
C1315 N1323 1.427 . S
C1316 H1307 0.930 . S
C1316 C1314 1.378 . S
C1316 C1317 1.367 . S
C1317 C1316 1.367 . S
C1317 C1319 1.433 . S
C1318 C1314 1.350 . S
C1318 C1315 1.463 . S
C1318 N1322 1.427 . S
C1319 H1309 0.929 . S
C1319 C1317 1.433 . S
C1319 N1322 1.384 . S
C1320 H1311 0.929 . S
C1320 C1312 1.378 . S
C1320 C1315 1.350 . S
C1321 H1308 0.929 . S
C1321 C1313 1.433 . S
C1321 N1323 1.384 . S
N1322 C1318 1.427 . S
N1322 C1319 1.384 . S
N1323 C1315 1.427 . S
N1323 C1321 1.384 . S
H1324 C1330 0.930 . S
H1325 C1334 0.930 . S
H1326 C1339 0.929 . S
H1327 C1337 0.929 . S
H1328 C1332 0.929 . S
H1329 C1338 0.929 . S
C1330 H1324 0.930 . S
C1330 C1331 1.367 . S
C1330 C1338 1.378 . S
C1331 C1330 1.367 . S
C1331 C1339 1.433 . S
C1332 H1328 0.929 . S
C1332 C1334 1.378 . S
C1332 C1336 1.350 . S
C1333 C1336 1.463 . S
C1333 C1338 1.350 . S
C1333 N1341 1.427 . S
C1334 H1325 0.930 . S
C1334 C1332 1.378 . S
C1334 C1335 1.367 . S
C1335 C1334 1.367 . S
C1335 C1337 1.433 . S
C1336 C1332 1.350 . S
C1336 C1333 1.463 . S
C1336 N1340 1.427 . S
C1337 H1327 0.929 . S
C1337 C1335 1.433 . S
C1337 N1340 1.384 . S
C1338 H1329 0.929 . S
C1338 C1330 1.378 . S
C1338 C1333 1.350 . S
C1339 H1326 0.929 . S
C1339 C1331 1.433 . S
C1339 N1341 1.384 . S
N1340 C1336 1.427 . S
N1340 C1337 1.384 . S
N1341 C1333 1.427 . S
N1341 C1339 1.384 . S
H1342 C1348 0.930 . S
H1343 C1352 0.930 . S
H1344 C1357 0.929 . S
H1345 C1355 0.929 . S
H1346 C1350 0.929 . S
H1347 C1356 0.929 . S
C1348 H1342 0.930 . S
C1348 C1349 1.367 . S
C1348 C1356 1.378 . S
C1349 C1348 1.367 . S
C1349 C1357 1.433 . S
C1350 H1346 0.929 . S
C1350 C1352 1.378 . S
C1350 C1354 1.350 . S
C1351 C1354 1.463 . S
C1351 C1356 1.350 . S
C1351 N1359 1.427 . S
C1352 H1343 0.930 . S
C1352 C1350 1.378 . S
C1352 C1353 1.367 . S
C1353 C1352 1.367 . S
C1353 C1355 1.433 . S
C1354 C1350 1.350 . S
C1354 C1351 1.463 . S
C1354 N1358 1.427 . S
C1355 H1345 0.929 . S
C1355 C1353 1.433 . S
C1355 N1358 1.384 . S
C1356 H1347 0.929 . S
C1356 C1348 1.378 . S
C1356 C1351 1.350 . S
C1357 H1344 0.929 . S
C1357 C1349 1.433 . S
C1357 N1359 1.384 . S
N1358 C1354 1.427 . S
N1358 C1355 1.384 . S
N1359 C1351 1.427 . S
N1359 C1357 1.384 . S
H1360 C1366 0.930 . S
H1361 C1370 0.930 . S
H1362 C1375 0.929 . S
H1363 C1373 0.929 . S
H1364 C1368 0.929 . S
H1365 C1374 0.929 . S
C1366 H1360 0.930 . S
C1366 C1367 1.367 . S
C1366 C1374 1.378 . S
C1367 C1366 1.367 . S
C1367 C1375 1.433 . S
C1368 H1364 0.929 . S
C1368 C1370 1.378 . S
C1368 C1372 1.350 . S
C1369 C1372 1.463 . S
C1369 C1374 1.350 . S
C1369 N1377 1.427 . S
C1370 H1361 0.930 . S
C1370 C1368 1.378 . S
C1370 C1371 1.367 . S
C1371 C1370 1.367 . S
C1371 C1373 1.433 . S
C1372 C1368 1.350 . S
C1372 C1369 1.463 . S
C1372 N1376 1.427 . S
C1373 H1363 0.929 . S
C1373 C1371 1.433 . S
C1373 N1376 1.384 . S
C1374 H1365 0.929 . S
C1374 C1366 1.378 . S
C1374 C1369 1.350 . S
C1375 H1362 0.929 . S
C1375 C1367 1.433 . S
C1375 N1377 1.384 . S
N1376 C1372 1.427 . S
N1376 C1373 1.384 . S
N1377 C1369 1.427 . S
N1377 C1375 1.384 . S
H1378 C1384 0.930 . S
H1379 C1388 0.930 . S
H1380 C1393 0.929 . S
H1381 C1391 0.929 . S
H1382 C1386 0.929 . S
H1383 C1392 0.929 . S
C1384 H1378 0.930 . S
C1384 C1385 1.367 . S
C1384 C1392 1.378 . S
C1385 C1384 1.367 . S
C1385 C1393 1.433 . S
C1386 H1382 0.929 . S
C1386 C1388 1.378 . S
C1386 C1390 1.350 . S
C1387 C1390 1.463 . S
C1387 C1392 1.350 . S
C1387 N1395 1.427 . S
C1388 H1379 0.930 . S
C1388 C1386 1.378 . S
C1388 C1389 1.367 . S
C1389 C1388 1.367 . S
C1389 C1391 1.433 . S
C1390 C1386 1.350 . S
C1390 C1387 1.463 . S
C1390 N1394 1.427 . S
C1391 H1381 0.929 . S
C1391 C1389 1.433 . S
C1391 N1394 1.384 . S
C1392 H1383 0.929 . S
C1392 C1384 1.378 . S
C1392 C1387 1.350 . S
C1393 H1380 0.929 . S
C1393 C1385 1.433 . S
C1393 N1395 1.384 . S
N1394 C1390 1.427 . S
N1394 C1391 1.384 . S
N1395 C1387 1.427 . S
N1395 C1393 1.384 . S
H1396 C1402 0.930 . S
H1397 C1406 0.930 1_554 S
H1398 C1411 0.929 1_554 S
H1399 C1409 0.929 . S
H1400 C1404 0.929 1_554 S
H1401 C1410 0.929 . S
C1402 H1396 0.930 . S
C1402 C1403 1.367 . S
C1402 C1410 1.378 . S
C1403 C1402 1.367 . S
C1403 C1411 1.433 . S
C1404 H1400 0.929 1_556 S
C1404 C1406 1.378 . S
C1404 C1408 1.350 . S
C1405 C1408 1.463 . S
C1405 C1410 1.350 . S
C1405 N1413 1.427 . S
C1406 H1397 0.930 1_556 S
C1406 C1404 1.378 . S
C1406 C1407 1.367 . S
C1407 C1406 1.367 . S
C1407 C1409 1.433 . S
C1408 C1404 1.350 . S
C1408 C1405 1.463 . S
C1408 N1412 1.427 . S
C1409 H1399 0.929 . S
C1409 C1407 1.433 . S
C1409 N1412 1.384 . S
C1410 H1401 0.929 . S
C1410 C1402 1.378 . S
C1410 C1405 1.350 . S
C1411 H1398 0.929 1_556 S
C1411 C1403 1.433 . S
C1411 N1413 1.384 . S
N1412 C1408 1.427 . S
N1412 C1409 1.384 . S
N1413 C1405 1.427 . S
N1413 C1411 1.384 . S
H1414 C1420 0.930 . S
H1415 C1424 0.930 . S
H1416 C1429 0.929 . S
H1417 C1427 0.929 . S
H1418 C1422 0.929 . S
H1419 C1428 0.929 . S
C1420 H1414 0.930 . S
C1420 C1421 1.367 . S
C1420 C1428 1.378 . S
C1421 C1420 1.367 . S
C1421 C1429 1.433 . S
C1422 H1418 0.929 . S
C1422 C1424 1.378 . S
C1422 C1426 1.350 . S
C1423 C1426 1.463 . S
C1423 C1428 1.350 . S
C1423 N1431 1.427 . S
C1424 H1415 0.930 . S
C1424 C1422 1.378 . S
C1424 C1425 1.367 . S
C1425 C1424 1.367 . S
C1425 C1427 1.433 . S
C1426 C1422 1.350 . S
C1426 C1423 1.463 . S
C1426 N1430 1.427 . S
C1427 H1417 0.929 . S
C1427 C1425 1.433 . S
C1427 N1430 1.384 . S
C1428 H1419 0.929 . S
C1428 C1420 1.378 . S
C1428 C1423 1.350 . S
C1429 H1416 0.929 . S
C1429 C1421 1.433 . S
C1429 N1431 1.384 . S
N1430 C1426 1.427 . S
N1430 C1427 1.384 . S
N1431 C1423 1.427 . S
N1431 C1429 1.384 . S
H1432 C1438 0.930 . S
H1433 C1442 0.930 . S
H1434 C1447 0.929 . S
H1435 C1445 0.929 . S
H1436 C1440 0.929 . S
H1437 C1446 0.929 . S
C1438 H1432 0.930 . S
C1438 C1439 1.367 . S
C1438 C1446 1.378 . S
C1439 C1438 1.367 . S
C1439 C1447 1.433 . S
C1440 H1436 0.929 . S
C1440 C1442 1.378 . S
C1440 C1444 1.350 . S
C1441 C1444 1.463 . S
C1441 C1446 1.350 . S
C1441 N1449 1.427 . S
C1442 H1433 0.930 . S
C1442 C1440 1.378 . S
C1442 C1443 1.367 . S
C1443 C1442 1.367 . S
C1443 C1445 1.433 . S
C1444 C1440 1.350 . S
C1444 C1441 1.463 . S
C1444 N1448 1.427 . S
C1445 H1435 0.929 . S
C1445 C1443 1.433 . S
C1445 N1448 1.384 . S
C1446 H1437 0.929 . S
C1446 C1438 1.378 . S
C1446 C1441 1.350 . S
C1447 H1434 0.929 . S
C1447 C1439 1.433 . S
C1447 N1449 1.384 . S
N1448 C1444 1.427 . S
N1448 C1445 1.384 . S
N1449 C1441 1.427 . S
N1449 C1447 1.384 . S
H1450 C1456 0.930 . S
H1451 C1460 0.930 . S
H1452 C1465 0.929 . S
H1453 C1463 0.929 . S
H1454 C1458 0.929 . S
H1455 C1464 0.929 . S
C1456 H1450 0.930 . S
C1456 C1457 1.367 . S
C1456 C1464 1.378 . S
C1457 C1456 1.367 . S
C1457 C1465 1.433 . S
C1458 H1454 0.929 . S
C1458 C1460 1.378 . S
C1458 C1462 1.350 . S
C1459 C1462 1.463 . S
C1459 C1464 1.350 . S
C1459 N1467 1.427 . S
C1460 H1451 0.930 . S
C1460 C1458 1.378 . S
C1460 C1461 1.367 . S
C1461 C1460 1.367 . S
C1461 C1463 1.433 . S
C1462 C1458 1.350 . S
C1462 C1459 1.463 . S
C1462 N1466 1.427 . S
C1463 H1453 0.929 . S
C1463 C1461 1.433 . S
C1463 N1466 1.384 . S
C1464 H1455 0.929 . S
C1464 C1456 1.378 . S
C1464 C1459 1.350 . S
C1465 H1452 0.929 . S
C1465 C1457 1.433 . S
C1465 N1467 1.384 . S
N1466 C1462 1.427 . S
N1466 C1463 1.384 . S
N1467 C1459 1.427 . S
N1467 C1465 1.384 . S
H1468 C1474 0.930 . S
H1469 C1478 0.930 . S
H1470 C1483 0.929 . S
H1471 C1481 0.929 . S
H1472 C1476 0.929 . S
H1473 C1482 0.929 . S
C1474 H1468 0.930 . S
C1474 C1475 1.367 . S
C1474 C1482 1.378 . S
C1475 C1474 1.367 . S
C1475 C1483 1.433 . S
C1476 H1472 0.929 . S
C1476 C1478 1.378 . S
C1476 C1480 1.350 . S
C1477 C1480 1.463 . S
C1477 C1482 1.350 . S
C1477 N1485 1.427 . S
C1478 H1469 0.930 . S
C1478 C1476 1.378 . S
C1478 C1479 1.367 . S
C1479 C1478 1.367 . S
C1479 C1481 1.433 . S
C1480 C1476 1.350 . S
C1480 C1477 1.463 . S
C1480 N1484 1.427 . S
C1481 H1471 0.929 . S
C1481 C1479 1.433 . S
C1481 N1484 1.384 . S
C1482 H1473 0.929 . S
C1482 C1474 1.378 . S
C1482 C1477 1.350 . S
C1483 H1470 0.929 . S
C1483 C1475 1.433 . S
C1483 N1485 1.384 . S
N1484 C1480 1.427 . S
N1484 C1481 1.384 . S
N1485 C1477 1.427 . S
N1485 C1483 1.384 . S
H1486 C1492 0.930 . S
H1487 C1496 0.930 . S
H1488 C1501 0.929 1_556 S
H1489 C1499 0.929 . S
H1490 C1494 0.929 . S
H1491 C1500 0.929 . S
C1492 H1486 0.930 . S
C1492 C1493 1.367 . S
C1492 C1500 1.378 . S
C1493 C1492 1.367 . S
C1493 C1501 1.433 . S
C1494 H1490 0.929 . S
C1494 C1496 1.378 . S
C1494 C1498 1.350 . S
C1495 C1498 1.463 . S
C1495 C1500 1.350 . S
C1495 N1503 1.427 . S
C1496 H1487 0.930 . S
C1496 C1494 1.378 . S
C1496 C1497 1.367 . S
C1497 C1496 1.367 . S
C1497 C1499 1.433 . S
C1498 C1494 1.350 . S
C1498 C1495 1.463 . S
C1498 N1502 1.427 . S
C1499 H1489 0.929 . S
C1499 C1497 1.433 . S
C1499 N1502 1.384 . S
C1500 H1491 0.929 . S
C1500 C1492 1.378 . S
C1500 C1495 1.350 . S
C1501 H1488 0.929 1_554 S
C1501 C1493 1.433 . S
C1501 N1503 1.384 . S
N1502 C1498 1.427 . S
N1502 C1499 1.384 . S
N1503 C1495 1.427 . S
N1503 C1501 1.384 . S
C647 C19 1.798 . S
C651 C55 1.692 . S
C665 C98 1.595 . S
C669 C50 1.620 . S
C683 C135 1.687 . S
C687 C99 1.798 . S
C701 C18 1.584 . S
C705 C130 1.600 . S
C719 C9 1.600 . S
C723 C379 1.618 . S
C737 C290 1.796 . S
C741 C46 1.685 . S
C755 C89 1.594 . S
C759 C419 1.620 . S
C773 C126 1.693 . S
C777 C530 1.798 . S
C791 C329 1.587 . S
C795 C59 1.606 . S
C809 C486 1.699 . S
C813 C90 1.801 . S
C827 C569 1.584 . S
C831 C139 1.612 . S
C845 C10 1.797 . S
C849 C446 1.686 . S
C863 C15 0.360 . S
C867 C335 0.348 . S
C881 C489 1.790 . S
C885 C169 1.789 . S
C899 C206 0.360 . S
C903 C566 0.351 . S
C917 C449 1.789 . S
C921 C249 1.791 . S
C935 C86 0.358 . S
C939 C286 0.354 . S
C953 C378 1.791 . S
C957 C178 1.793 . S
C971 C258 1.789 . S
C975 C418 1.791 . S
C989 C209 1.595 . S
C993 C459 1.621 . S
C1007 C366 1.700 . S
C1011 C210 1.802 . S
C1025 C455 1.690 . S
C1029 C299 1.797 . S
C1043 C218 1.593 . S
C1047 C170 1.607 . S
C1061 C375 1.693 . S
C1065 C339 1.798 . S
C1079 C538 1.593 . S
C1083 C450 1.607 . S
C1097 C255 1.701 . S
C1101 C219 1.804 . S
C1115 C370 1.591 . S
C1119 C578 1.588 . S
C1133 C526 0.348 . S
C1137 C6 0.359 . S
C1151 C95 0.349 . S
C1155 C575 0.360 . S
C1169 C498 1.794 . S
C1173 C58 1.794 . S
C1187 C295 0.352 . S
C1191 C215 0.359 . S
C1205 C129 1.793 . S
C1209 C409 1.792 . S
C1223 C495 1.686 . S
C1227 C539 1.796 . S
C1241 C298 1.598 . S
C1245 C490 1.620 . S
C1259 C259 1.608 . S
C1263 C289 1.594 . S
C1277 C179 1.619 . S
C1281 C529 1.590 . S
C1295 C499 1.606 . S
C1299 C609 1.589 . S
C1313 C606 0.351 . S
C1317 C326 0.354 . S
C1331 C49 1.792 . S
C1335 C369 1.790 . S
C1349 C330 1.804 . S
C1353 C246 1.699 . S
C1367 C338 1.585 . S
C1371 C410 1.607 . S
C1385 C618 1.591 . S
C1389 C250 1.606 . S
C1403 C535 0.360 . S
C1407 C615 0.348 . S
C1421 C458 1.792 . S
C1425 C138 1.793 . S
C1439 C415 1.702 . S
C1443 C579 1.804 . S
C1457 C406 1.687 . S
C1461 C610 1.799 . S
C1475 C166 1.687 . S
C1479 C570 1.798 . S
C1493 C619 1.804 . S
C1497 C175 1.703 . S
