# Generated by pormake.
# Topology gsi, (4)-cn, num edge types: 1
# Building blocks:
#     Node 0, Type 0, BuildingBlock: NAHDIM_clean_sbu_0, # of connection points: 4
#     Node 1, Type 0, BuildingBlock: NAHDIM_clean_sbu_0, # of connection points: 4
#     Node 2, Type 0, BuildingBlock: NAHDIM_clean_sbu_0, # of connection points: 4
#     Node 3, Type 0, BuildingBlock: NAHDIM_clean_sbu_0, # of connection points: 4
#     Node 4, Type 0, BuildingBlock: NAHDIM_clean_sbu_0, # of connection points: 4
#     Node 5, Type 0, BuildingBlock: NAHDIM_clean_sbu_0, # of connection points: 4
#     Node 6, Type 0, BuildingBlock: NAHDIM_clean_sbu_0, # of connection points: 4
#     Node 7, Type 0, BuildingBlock: NAHDIM_clean_sbu_0, # of connection points: 4
#     Node 8, Type 0, BuildingBlock: NAHDIM_clean_sbu_0, # of connection points: 4
#     Node 9, Type 0, BuildingBlock: NAHDIM_clean_sbu_0, # of connection points: 4
#     Node 10, Type 0, BuildingBlock: NAHDIM_clean_sbu_0, # of connection points: 4
#     Node 11, Type 0, BuildingBlock: NAHDIM_clean_sbu_0, # of connection points: 4
#     Node 12, Type 0, BuildingBlock: NAHDIM_clean_sbu_0, # of connection points: 4
#     Node 13, Type 0, BuildingBlock: NAHDIM_clean_sbu_0, # of connection points: 4
#     Node 14, Type 0, BuildingBlock: NAHDIM_clean_sbu_0, # of connection points: 4
#     Node 15, Type 0, BuildingBlock: NAHDIM_clean_sbu_0, # of connection points: 4
#     Edge 16, Type (0, 0), BuildingBlock: KIFKEQ_clean_linker_1, # of connection points: 2
#     Edge 17, Type (0, 0), BuildingBlock: KIFKEQ_clean_linker_1, # of connection points: 2
#     Edge 18, Type (0, 0), BuildingBlock: KIFKEQ_clean_linker_1, # of connection points: 2
#     Edge 19, Type (0, 0), BuildingBlock: KIFKEQ_clean_linker_1, # of connection points: 2
#     Edge 20, Type (0, 0), BuildingBlock: KIFKEQ_clean_linker_1, # of connection points: 2
#     Edge 21, Type (0, 0), BuildingBlock: KIFKEQ_clean_linker_1, # of connection points: 2
#     Edge 22, Type (0, 0), BuildingBlock: KIFKEQ_clean_linker_1, # of connection points: 2
#     Edge 23, Type (0, 0), BuildingBlock: KIFKEQ_clean_linker_1, # of connection points: 2
#     Edge 24, Type (0, 0), BuildingBlock: KIFKEQ_clean_linker_1, # of connection points: 2
#     Edge 25, Type (0, 0), BuildingBlock: KIFKEQ_clean_linker_1, # of connection points: 2
#     Edge 26, Type (0, 0), BuildingBlock: KIFKEQ_clean_linker_1, # of connection points: 2
#     Edge 27, Type (0, 0), BuildingBlock: KIFKEQ_clean_linker_1, # of connection points: 2
#     Edge 28, Type (0, 0), BuildingBlock: KIFKEQ_clean_linker_1, # of connection points: 2
#     Edge 29, Type (0, 0), BuildingBlock: KIFKEQ_clean_linker_1, # of connection points: 2
#     Edge 30, Type (0, 0), BuildingBlock: KIFKEQ_clean_linker_1, # of connection points: 2
#     Edge 31, Type (0, 0), BuildingBlock: KIFKEQ_clean_linker_1, # of connection points: 2
#     Edge 32, Type (0, 0), BuildingBlock: KIFKEQ_clean_linker_1, # of connection points: 2
#     Edge 33, Type (0, 0), BuildingBlock: KIFKEQ_clean_linker_1, # of connection points: 2
#     Edge 34, Type (0, 0), BuildingBlock: KIFKEQ_clean_linker_1, # of connection points: 2
#     Edge 35, Type (0, 0), BuildingBlock: KIFKEQ_clean_linker_1, # of connection points: 2
#     Edge 36, Type (0, 0), BuildingBlock: KIFKEQ_clean_linker_1, # of connection points: 2
#     Edge 37, Type (0, 0), BuildingBlock: KIFKEQ_clean_linker_1, # of connection points: 2
#     Edge 38, Type (0, 0), BuildingBlock: KIFKEQ_clean_linker_1, # of connection points: 2
#     Edge 39, Type (0, 0), BuildingBlock: KIFKEQ_clean_linker_1, # of connection points: 2
#     Edge 40, Type (0, 0), BuildingBlock: KIFKEQ_clean_linker_1, # of connection points: 2
#     Edge 41, Type (0, 0), BuildingBlock: KIFKEQ_clean_linker_1, # of connection points: 2
#     Edge 42, Type (0, 0), BuildingBlock: KIFKEQ_clean_linker_1, # of connection points: 2
#     Edge 43, Type (0, 0), BuildingBlock: KIFKEQ_clean_linker_1, # of connection points: 2
#     Edge 44, Type (0, 0), BuildingBlock: KIFKEQ_clean_linker_1, # of connection points: 2
#     Edge 45, Type (0, 0), BuildingBlock: KIFKEQ_clean_linker_1, # of connection points: 2
#     Edge 46, Type (0, 0), BuildingBlock: KIFKEQ_clean_linker_1, # of connection points: 2
#     Edge 47, Type (0, 0), BuildingBlock: KIFKEQ_clean_linker_1, # of connection points: 2
# Relax obj value: 0.051
# Max RMSD: 0.059
# Mean RMSD: 0.054
data_MOF--net-gsi--node1-NAHDIM_clean_sbu_0--edge1-KIFKEQ_clean_linker_1
_symmetry_space_group_name_H-M    P1
_symmetry_Int_Tables_number       1
_symmetry_cell_setting            triclinic
loop_
_symmetry_equiv_pos_as_xyz
'x, y, z'
_cell_length_a     42.354192
_cell_length_b     43.419375
_cell_length_c     43.690366
_cell_angle_alpha  89.999011
_cell_angle_beta   90.007478
_cell_angle_gamma 95.219306
loop_
_atom_site_label
_atom_site_type_symbol
_atom_site_fract_x
_atom_site_fract_y
_atom_site_fract_z
_atom_type_partial_charge
C0 C 0.10073 0.19021 0.15791 0.0
O1 O 0.11771 0.19543 0.18285 0.0
O2 O 0.17177 0.14332 0.10523 0.0
Zn3 Zn 0.14997 0.15051 0.14557 0.0
O4 O 0.17975 0.17939 0.1706 0.0
C5 C 0.13757 0.0839 0.15849 0.0
O6 O 0.13837 0.08047 0.12863 0.0
O7 O 0.10949 0.17108 0.13828 0.0
C8 C 0.20008 0.16917 0.18846 0.0
O9 O 0.20179 0.1392 0.1906 0.0
C10 C 0.19643 0.12866 0.10416 0.0
O11 O 0.20675 0.11666 0.12944 0.0
O12 O 0.14103 0.11096 0.16981 0.0
C13 C 0.90468 0.30407 0.13333 0.0
O14 O 0.87704 0.28788 0.13098 0.0
O15 O 0.84157 0.35836 0.10226 0.0
Zn16 Zn 0.86451 0.35337 0.14242 0.0
O17 O 0.83557 0.32683 0.1701 0.0
C18 C 0.84815 0.4066 0.17364 0.0
O19 O 0.82 0.39203 0.1689 0.0
O20 O 0.90548 0.33315 0.13743 0.0
C21 C 0.84257 0.32293 0.19801 0.0
O22 O 0.86963 0.33583 0.20865 0.0
C23 C 0.82178 0.33652 0.09308 0.0
O24 O 0.81821 0.31079 0.10903 0.0
O25 O 0.87242 0.39482 0.16332 0.0
C26 C 0.13546 0.89747 0.29742 0.0
O27 O 0.12098 0.87077 0.28898 0.0
O28 O 0.10942 0.83987 0.35481 0.0
Zn29 Zn 0.15354 0.85959 0.34656 0.0
O30 O 0.17496 0.82945 0.32059 0.0
C31 C 0.19638 0.84851 0.39597 0.0
O32 O 0.19915 0.82309 0.38029 0.0
O33 O 0.15118 0.89889 0.32227 0.0
C34 C 0.20077 0.83641 0.30638 0.0
O35 O 0.21458 0.86468 0.30844 0.0
C36 C 0.10597 0.81169 0.36314 0.0
O37 O 0.13134 0.79709 0.36806 0.0
O38 O 0.17795 0.86787 0.38611 0.0
C39 C 0.86188 0.60092 0.30177 0.0
O40 O 0.87719 0.62649 0.29144 0.0
O41 O 0.8846 0.66575 0.35504 0.0
Zn42 Zn 0.84144 0.64259 0.34762 0.0
O43 O 0.81574 0.66872 0.32103 0.0
C44 C 0.8263 0.64894 0.41202 0.0
O45 O 0.85341 0.66624 0.4124 0.0
O46 O 0.84545 0.60198 0.32605 0.0
C47 C 0.80736 0.69399 0.33164 0.0
O48 O 0.8156 0.70219 0.35967 0.0
C49 C 0.89546 0.68669 0.33649 0.0
O50 O 0.87895 0.69222 0.31196 0.0
O51 O 0.8171 0.63563 0.38725 0.0
C52 C 0.39936 0.81275 0.62709 0.0
O53 O 0.37299 0.79959 0.61521 0.0
O54 O 0.33881 0.86355 0.60141 0.0
Zn55 Zn 0.35728 0.85796 0.64363 0.0
O56 O 0.32711 0.82814 0.6671 0.0
C57 C 0.36207 0.92492 0.65663 0.0
O58 O 0.35801 0.92822 0.62704 0.0
O59 O 0.39886 0.83883 0.64025 0.0
C60 C 0.30548 0.8375 0.68398 0.0
O61 O 0.3028 0.86731 0.68633 0.0
C62 C 0.31136 0.8728 0.59806 0.0
O63 O 0.29563 0.8804 0.62241 0.0
O64 O 0.36315 0.89794 0.66766 0.0
C65 C 0.85102 0.91475 0.82363 0.0
O66 O 0.82514 0.90967 0.84009 0.0
O67 O 0.84034 0.85931 0.88726 0.0
Zn68 Zn 0.8634 0.85439 0.8469 0.0
O69 O 0.83574 0.82607 0.81949 0.0
C70 C 0.90876 0.81619 0.87477 0.0
O71 O 0.88575 0.80948 0.8945 0.0
O72 O 0.8714 0.89497 0.82405 0.0
C73 C 0.82619 0.79848 0.82692 0.0
O74 O 0.83518 0.78744 0.85318 0.0
C75 C 0.81018 0.8554 0.88788 0.0
O76 O 0.79468 0.84962 0.86218 0.0
O77 O 0.90479 0.83532 0.85335 0.0
C78 C 0.14527 0.58483 0.84293 0.0
O79 O 0.16615 0.58579 0.86523 0.0
O80 O 0.16712 0.64396 0.89791 0.0
Zn81 Zn 0.14233 0.64957 0.85876 0.0
O82 O 0.17025 0.67595 0.82994 0.0
C83 C 0.10503 0.70033 0.8713 0.0
O84 O 0.13328 0.71556 0.87093 0.0
O85 O 0.13135 0.60887 0.83696 0.0
C86 C 0.15907 0.6893 0.807 0.0
O87 O 0.12844 0.68559 0.80164 0.0
C88 C 0.18804 0.66533 0.90597 0.0
O89 O 0.19217 0.69048 0.88921 0.0
O90 O 0.10269 0.67117 0.86727 0.0
C91 C 0.81693 0.12592 0.58883 0.0
O92 O 0.8396 0.10736 0.59163 0.0
O93 O 0.88069 0.17121 0.64163 0.0
Zn94 Zn 0.83736 0.14899 0.64952 0.0
O95 O 0.81376 0.17584 0.6773 0.0
C96 C 0.86446 0.09401 0.67502 0.0
O97 O 0.89163 0.10623 0.66406 0.0
O98 O 0.8123 0.14471 0.61031 0.0
C99 C 0.8129 0.17239 0.70619 0.0
O100 O 0.82802 0.15051 0.71879 0.0
C101 C 0.89931 0.17805 0.66394 0.0
O102 O 0.89049 0.16938 0.69168 0.0
O103 O 0.83945 0.10748 0.67038 0.0
C104 C 0.19509 0.35077 0.60689 0.0
O105 O 0.19912 0.32665 0.62412 0.0
O106 O 0.1088 0.33682 0.64712 0.0
Zn107 Zn 0.15107 0.36119 0.655 0.0
O108 O 0.17595 0.33508 0.68257 0.0
C109 C 0.13304 0.39818 0.7045 0.0
O110 O 0.12489 0.37037 0.71536 0.0
O111 O 0.17525 0.36944 0.61525 0.0
C112 C 0.19698 0.34545 0.70158 0.0
O113 O 0.20386 0.37546 0.70415 0.0
C114 C 0.10812 0.30749 0.64581 0.0
O115 O 0.13488 0.29452 0.64791 0.0
O116 O 0.14452 0.40078 0.67762 0.0
C117 C 0.65515 0.10097 0.31156 0.0
O118 O 0.68211 0.11842 0.31034 0.0
O119 O 0.66239 0.14199 0.39279 0.0
Zn120 Zn 0.64077 0.14953 0.3523 0.0
O121 O 0.6696 0.17871 0.32669 0.0
C122 C 0.59821 0.19195 0.37667 0.0
O123 O 0.62361 0.20195 0.39226 0.0
O124 O 0.63297 0.10932 0.32846 0.0
C125 C 0.68707 0.20159 0.33728 0.0
O126 O 0.68629 0.20775 0.36668 0.0
C127 C 0.69176 0.13781 0.39302 0.0
O128 O 0.70719 0.1381 0.36695 0.0
O129 O 0.59954 0.16901 0.35874 0.0
C130 C 0.59764 0.69942 0.63278 0.0
O131 O 0.62553 0.71527 0.63421 0.0
O132 O 0.65921 0.64302 0.60076 0.0
Zn133 Zn 0.63635 0.6489 0.64079 0.0
O134 O 0.6661 0.67536 0.66788 0.0
C135 C 0.6514 0.59467 0.67118 0.0
O136 O 0.67987 0.6075 0.66447 0.0
O137 O 0.59607 0.67007 0.63466 0.0
C138 C 0.66285 0.67604 0.69676 0.0
O139 O 0.63878 0.65963 0.70952 0.0
C140 C 0.6781 0.6653 0.59094 0.0
O141 O 0.6807 0.69144 0.60624 0.0
O142 O 0.6274 0.60787 0.6623 0.0
C143 C 0.634 0.40573 0.80713 0.0
O144 O 0.61553 0.38109 0.79918 0.0
O145 O 0.61291 0.34037 0.85895 0.0
Zn146 Zn 0.6562 0.36353 0.85191 0.0
O147 O 0.68235 0.33721 0.82606 0.0
C148 C 0.67173 0.35585 0.91598 0.0
O149 O 0.64529 0.33751 0.91583 0.0
O150 O 0.6528 0.40399 0.82966 0.0
C151 C 0.68792 0.31061 0.83568 0.0
O152 O 0.67615 0.3009 0.86216 0.0
C153 C 0.60174 0.32021 0.83973 0.0
O154 O 0.61799 0.31552 0.81481 0.0
O155 O 0.68025 0.37046 0.8917 0.0
C156 C 0.36062 0.10964 0.79746 0.0
O157 O 0.37316 0.13696 0.78852 0.0
O158 O 0.38731 0.1673 0.85483 0.0
Zn159 Zn 0.34329 0.14638 0.84764 0.0
O160 O 0.31955 0.17536 0.8222 0.0
C161 C 0.33164 0.13738 0.91343 0.0
O162 O 0.36256 0.14264 0.91602 0.0
O163 O 0.34636 0.10735 0.82309 0.0
C164 C 0.30232 0.1946 0.8342 0.0
O165 O 0.29914 0.19523 0.86409 0.0
C166 C 0.39137 0.19436 0.86616 0.0
O167 O 0.36654 0.20796 0.8752 0.0
O168 O 0.31908 0.13725 0.887 0.0
C169 C 0.34869 0.40631 0.3232 0.0
O170 O 0.32232 0.38802 0.32105 0.0
O171 O 0.34281 0.36339 0.4047 0.0
Zn172 Zn 0.36366 0.35771 0.36365 0.0
O173 O 0.33478 0.32836 0.33836 0.0
C174 C 0.40306 0.30984 0.37774 0.0
O175 O 0.37497 0.29538 0.38299 0.0
O176 O 0.37064 0.39851 0.34072 0.0
C177 C 0.34549 0.31483 0.3153 0.0
O178 O 0.37569 0.31997 0.30834 0.0
C179 C 0.3134 0.36712 0.40622 0.0
O180 O 0.29707 0.36813 0.38074 0.0
O181 O 0.40487 0.3381 0.36961 0.0
C182 C 0.33428 0.64962 0.0869 0.0
O183 O 0.3638 0.66159 0.08462 0.0
O184 O 0.39355 0.66596 0.14418 0.0
Zn185 Zn 0.34947 0.64541 0.152 0.0
O186 O 0.32769 0.6732 0.18042 0.0
C187 C 0.36484 0.60365 0.19922 0.0
O188 O 0.37685 0.62976 0.21148 0.0
O189 O 0.32369 0.64048 0.1129 0.0
C190 C 0.29788 0.6747 0.18016 0.0
O191 O 0.28025 0.65667 0.16154 0.0
C192 C 0.39743 0.69536 0.14346 0.0
O193 O 0.3726 0.71115 0.14662 0.0
O194 O 0.35192 0.60425 0.17296 0.0
C195 C 0.68816 0.84369 0.08668 0.0
O196 O 0.67394 0.8168 0.09483 0.0
O197 O 0.62086 0.83711 0.1391 0.0
Zn198 Zn 0.66402 0.86078 0.14498 0.0
O199 O 0.6908 0.83645 0.17254 0.0
C200 C 0.63673 0.90683 0.18279 0.0
O201 O 0.61438 0.88433 0.18761 0.0
O202 O 0.6868 0.86674 0.10443 0.0
C203 C 0.68341 0.83157 0.20043 0.0
O204 O 0.65806 0.8429 0.21148 0.0
C205 C 0.61663 0.80819 0.14434 0.0
O206 O 0.64082 0.79341 0.15301 0.0
O207 O 0.65953 0.90227 0.16487 0.0
H208 H 0.19572 0.23084 0.19818 0.0
H209 H 0.25282 0.15623 0.2201 0.0
H210 H 0.23104 0.26627 0.22877 0.0
H211 H 0.28808 0.19173 0.25057 0.0
H212 H 0.36213 0.27397 0.272 0.0
H213 H 0.32691 0.23887 0.24101 0.0
H214 H 0.24562 0.27276 0.28505 0.0
H215 H 0.28076 0.30784 0.31614 0.0
C216 C 0.21582 0.22202 0.20946 0.0
C217 C 0.2215 0.19074 0.20674 0.0
C218 C 0.23591 0.24226 0.22708 0.0
C219 C 0.26226 0.23171 0.242 0.0
C220 C 0.26807 0.20051 0.23909 0.0
C221 C 0.24779 0.18018 0.22178 0.0
C222 C 0.33675 0.27395 0.27506 0.0
C223 C 0.32421 0.29363 0.29652 0.0
C224 C 0.31663 0.25376 0.25743 0.0
C225 C 0.28358 0.25314 0.26066 0.0
C226 C 0.27102 0.27297 0.28194 0.0
C227 C 0.29114 0.29289 0.29984 0.0
H228 H 0.85041 0.30877 0.25839 0.0
H229 H 0.7833 0.29681 0.18385 0.0
H230 H 0.81267 0.27965 0.29203 0.0
H231 H 0.74535 0.26845 0.21763 0.0
H232 H 0.69951 0.19054 0.27717 0.0
H233 H 0.73733 0.21965 0.24385 0.0
H234 H 0.76239 0.28374 0.31747 0.0
H235 H 0.72506 0.25409 0.35113 0.0
C236 C 0.82758 0.30002 0.2492 0.0
C237 C 0.8199 0.30503 0.21843 0.0
C238 C 0.80586 0.28352 0.26854 0.0
C239 C 0.77597 0.27174 0.25753 0.0
C240 C 0.76833 0.27681 0.22674 0.0
C241 C 0.79005 0.29321 0.2074 0.0
C242 C 0.713 0.2109 0.28626 0.0
C243 C 0.70927 0.22001 0.31682 0.0
C244 C 0.7346 0.22768 0.26709 0.0
C245 C 0.75289 0.25405 0.27798 0.0
C246 C 0.749 0.26329 0.3085 0.0
C247 C 0.72745 0.24641 0.32773 0.0
H248 H 0.32805 0.71671 0.21938 0.0
H249 H 0.23526 0.68485 0.18453 0.0
H250 H 0.30462 0.75555 0.25012 0.0
H251 H 0.21195 0.72408 0.2149 0.0
H252 H 0.17806 0.77612 0.29799 0.0
H253 H 0.20163 0.73675 0.26818 0.0
H254 H 0.27921 0.80349 0.24305 0.0
H255 H 0.25589 0.84285 0.27334 0.0
C256 C 0.30265 0.71797 0.21828 0.0
C257 C 0.28351 0.69765 0.19951 0.0
C258 C 0.28927 0.74039 0.23574 0.0
C259 C 0.25645 0.74297 0.23487 0.0
C260 C 0.23727 0.72247 0.21632 0.0
C261 C 0.25066 0.70007 0.19881 0.0
C262 C 0.20015 0.78244 0.28612 0.0
C263 C 0.21511 0.81265 0.28804 0.0
C264 C 0.21356 0.75989 0.26889 0.0
C265 C 0.24226 0.76699 0.25322 0.0
C266 C 0.25726 0.79719 0.25517 0.0
C267 C 0.24381 0.81979 0.27238 0.0
H268 H 0.78539 0.74896 0.34769 0.0
H269 H 0.78857 0.68501 0.27216 0.0
H270 H 0.75617 0.78276 0.31595 0.0
H271 H 0.75887 0.71862 0.24061 0.0
H272 H 0.73538 0.8023 0.18403 0.0
H273 H 0.76568 0.76945 0.21585 0.0
H274 H 0.7039 0.78351 0.29229 0.0
H275 H 0.67392 0.81676 0.26069 0.0
C276 C 0.77977 0.74205 0.32436 0.0
C277 C 0.78929 0.71429 0.31246 0.0
C278 C 0.76288 0.76136 0.30623 0.0
C279 C 0.75521 0.75336 0.27578 0.0
C280 C 0.76476 0.72561 0.26387 0.0
C281 C 0.7816 0.70626 0.28202 0.0
C282 C 0.72832 0.79848 0.20765 0.0
C283 C 0.70224 0.81216 0.21983 0.0
C284 C 0.74557 0.77949 0.22582 0.0
C285 C 0.73714 0.77383 0.25656 0.0
C286 C 0.71121 0.7877 0.26878 0.0
C287 C 0.69393 0.80664 0.25061 0.0
H288 H 0.31003 0.77558 0.69177 0.0
H289 H 0.25136 0.8488 0.71428 0.0
H290 H 0.27413 0.73885 0.72029 0.0
H291 H 0.21556 0.81202 0.74274 0.0
H292 H 0.14224 0.72968 0.7632 0.0
H293 H 0.17738 0.76493 0.73226 0.0
H294 H 0.25878 0.7307 0.77579 0.0
H295 H 0.22379 0.69547 0.80674 0.0
C296 C 0.28946 0.78382 0.70272 0.0
C297 C 0.28357 0.81511 0.70084 0.0
C298 C 0.26901 0.76282 0.71914 0.0
C299 C 0.24209 0.77261 0.73369 0.0
C300 C 0.23598 0.80379 0.73149 0.0
C301 C 0.2566 0.82486 0.71536 0.0
C302 C 0.16763 0.72956 0.76606 0.0
C303 C 0.18024 0.70983 0.78743 0.0
C304 C 0.18771 0.74985 0.74847 0.0
C305 C 0.22077 0.75054 0.75168 0.0
C306 C 0.23339 0.73044 0.77267 0.0
C307 C 0.21333 0.71041 0.79048 0.0
H308 H 0.71479 0.71263 0.67723 0.0
H309 H 0.66515 0.68025 0.75921 0.0
H310 H 0.755 0.7414 0.70839 0.0
H311 H 0.70515 0.70956 0.79037 0.0
H312 H 0.80027 0.73921 0.83621 0.0
H313 H 0.76109 0.7094 0.80455 0.0
H314 H 0.7606 0.78634 0.74189 0.0
H315 H 0.80015 0.81591 0.77314 0.0
C316 C 0.71235 0.71177 0.7019 0.0
C317 C 0.68674 0.69416 0.71575 0.0
C318 C 0.73534 0.72838 0.71975 0.0
C319 C 0.73327 0.72775 0.75185 0.0
C320 C 0.70763 0.71018 0.7657 0.0
C321 C 0.68458 0.69358 0.74784 0.0
C322 C 0.79192 0.74971 0.8156 0.0
C323 C 0.80334 0.77992 0.8072 0.0
C324 C 0.76931 0.7327 0.79758 0.0
C325 C 0.75767 0.74555 0.77077 0.0
C326 C 0.76936 0.77565 0.76222 0.0
C327 C 0.79194 0.79264 0.78021 0.0
H328 H 0.6982 0.25036 0.84634 0.0
H329 H 0.72019 0.32555 0.78281 0.0
H330 H 0.72836 0.21702 0.81508 0.0
H331 H 0.75115 0.29249 0.75203 0.0
H332 H 0.77416 0.21553 0.68705 0.0
H333 H 0.74407 0.24869 0.71852 0.0
H334 H 0.78165 0.20924 0.80015 0.0
H335 H 0.81103 0.17538 0.76865 0.0
C336 C 0.70966 0.25985 0.82582 0.0
C337 C 0.70674 0.29058 0.81701 0.0
C338 C 0.72712 0.24077 0.80798 0.0
C339 C 0.74219 0.25206 0.78103 0.0
C340 C 0.73944 0.2829 0.77239 0.0
C341 C 0.72183 0.30192 0.79013 0.0
C342 C 0.77602 0.21392 0.71172 0.0
C343 C 0.79496 0.19278 0.72535 0.0
C344 C 0.75891 0.23308 0.72977 0.0
C345 C 0.76048 0.23169 0.76188 0.0
C346 C 0.77954 0.2106 0.7755 0.0
C347 C 0.79653 0.19131 0.75743 0.0
H348 H 0.1938 0.28265 0.69644 0.0
H349 H 0.23646 0.35893 0.75033 0.0
H350 H 0.21944 0.24645 0.72858 0.0
H351 H 0.26228 0.32252 0.78245 0.0
H352 H 0.27097 0.24369 0.85262 0.0
H353 H 0.24608 0.28056 0.82042 0.0
H354 H 0.27421 0.23265 0.73965 0.0
H355 H 0.29899 0.19569 0.77175 0.0
C356 C 0.20871 0.29171 0.71511 0.0
C357 C 0.2131 0.32368 0.72085 0.0
C358 C 0.22352 0.27096 0.7334 0.0
C359 C 0.24286 0.28167 0.75799 0.0
C360 C 0.24726 0.31362 0.76379 0.0
C361 C 0.23264 0.33445 0.74531 0.0
C362 C 0.2718 0.24098 0.828 0.0
C363 C 0.28689 0.21672 0.81474 0.0
C364 C 0.25774 0.26222 0.80958 0.0
C365 C 0.25824 0.25948 0.77755 0.0
C366 C 0.27322 0.23516 0.7643 0.0
C367 C 0.2875 0.21408 0.78268 0.0
H368 H 0.10192 0.90239 0.24449 0.0
H369 H 0.16619 0.95516 0.30568 0.0
H370 H 0.10055 0.94742 0.21145 0.0
H371 H 0.16543 1.00002 0.27221 0.0
H372 H 0.13393 0.0831 0.221 0.0
H373 H 0.13181 0.03838 0.25483 0.0
H374 H 0.13405 0.97811 0.17631 0.0
H375 H 0.13538 0.0228 0.14243 0.0
C376 C 0.11582 0.92359 0.25089 0.0
C377 C 0.13419 0.92515 0.27774 0.0
C378 C 0.11517 0.94938 0.23181 0.0
C379 C 0.13294 0.97737 0.23908 0.0
C380 C 0.15111 0.97898 0.2661 0.0
C381 C 0.1517 0.95319 0.28522 0.0
C382 C 0.13377 0.0603 0.21092 0.0
C383 C 0.13484 0.05655 0.17897 0.0
C384 C 0.13278 0.03465 0.23036 0.0
C385 C 0.13291 0.00461 0.21835 0.0
C386 C 0.13353 1.00086 0.18637 0.0
C387 C 0.13444 0.02651 0.16691 0.0
H388 H 0.90243 0.44333 0.18761 0.0
H389 H 0.80101 0.4348 0.2017 0.0
H390 H 0.90729 0.48971 0.21962 0.0
H391 H 0.80587 0.48115 0.23324 0.0
H392 H 0.82896 0.5451 0.31399 0.0
H393 H 0.82704 0.49799 0.28342 0.0
H394 H 0.89297 0.54366 0.21896 0.0
H395 H 0.89524 0.5907 0.2497 0.0
C396 C 0.88119 0.4514 0.1974 0.0
C397 C 0.85134 0.43533 0.19211 0.0
C398 C 0.88396 0.47802 0.21565 0.0
C399 C 0.85699 0.489 0.22912 0.0
C400 C 0.82717 0.47301 0.22362 0.0
C401 C 0.82438 0.44655 0.20532 0.0
C402 C 0.84322 0.54506 0.29342 0.0
C403 C 0.86213 0.57173 0.28423 0.0
C404 C 0.84197 0.51811 0.27579 0.0
C405 C 0.85968 0.51715 0.24864 0.0
C406 C 0.87923 0.54357 0.23987 0.0
C407 C 0.88039 0.57058 0.25743 0.0
H408 H 0.35029 0.13908 0.97342 0.0
H409 H 0.267 0.12672 0.91601 0.0
H410 H 0.31674 0.13513 0.01881 0.0
H411 H 0.2335 0.12211 0.96144 0.0
H412 H 0.18435 0.15436 0.04857 0.0
H413 H 0.2166 0.15461 0.00234 0.0
H414 H 0.28182 0.09903 0.04814 0.0
H415 H 0.24995 0.0993 0.09453 0.0
C416 C 0.32485 0.13522 0.97046 0.0
C417 C 0.31136 0.13331 0.94106 0.0
C418 C 0.3056 0.13278 0.99651 0.0
C419 C 0.27239 0.12833 0.99379 0.0
C420 C 0.25894 0.12595 0.96437 0.0
C421 C 0.27819 0.12841 0.93832 0.0
C422 C 0.20545 0.14201 0.04872 0.0
C423 C 0.21463 0.12694 0.07532 0.0
C424 C 0.22388 0.14203 0.02215 0.0
C425 C 0.25191 0.12695 0.02155 0.0
C426 C 0.26066 0.11129 0.04795 0.0
C427 C 0.24225 0.11128 0.07451 0.0
H428 H 0.81708 0.38888 0.0587 0.0
H429 H 0.77967 0.29326 0.06676 0.0
H430 H 0.78033 0.39582 0.01663 0.0
H431 H 0.74362 0.30001 0.02453 0.0
H432 H 0.65999 0.32855 0.9716 0.0
H433 H 0.69655 0.32558 0.01424 0.0
H434 H 0.76882 0.38086 0.96372 0.0
H435 H 0.73193 0.38445 0.92123 0.0
C436 C 0.80125 0.36928 0.05132 0.0
C437 C 0.80122 0.34055 0.06619 0.0
C438 C 0.78024 0.37325 0.02717 0.0
C439 C 0.75877 0.34856 0.0174 0.0
C440 C 0.75932 0.3197 0.03189 0.0
C441 C 0.78021 0.31576 0.05598 0.0
C442 C 0.68357 0.34033 0.96965 0.0
C443 C 0.69307 0.35658 0.94291 0.0
C444 C 0.70464 0.33843 0.99404 0.0
C445 C 0.73579 0.35262 0.99226 0.0
C446 C 0.74496 0.36979 0.96593 0.0
C447 C 0.72382 0.37177 0.94153 0.0
H448 H 0.33605 0.85622 0.54315 0.0
H449 H 0.25238 0.88923 0.58369 0.0
H450 H 0.30962 0.85283 0.49351 0.0
H451 H 0.22579 0.88523 0.53424 0.0
H452 H 0.19588 0.89802 0.43497 0.0
H453 H 0.22537 0.90665 0.48273 0.0
H454 H 0.26674 0.8202 0.47005 0.0
H455 H 0.23786 0.81186 0.42223 0.0
C456 C 0.31209 0.8629 0.54147 0.0
C457 C 0.29629 0.87285 0.56745 0.0
C458 C 0.29686 0.86077 0.51304 0.0
C459 C 0.26549 0.86855 0.50992 0.0
C460 C 0.25004 0.87935 0.53574 0.0
C461 C 0.26526 0.88147 0.56416 0.0
C462 C 0.21136 0.88093 0.44233 0.0
C463 C 0.21445 0.85423 0.42479 0.0
C464 C 0.22816 0.88581 0.46977 0.0
C465 C 0.24846 0.86414 0.48021 0.0
C466 C 0.25171 0.8376 0.46248 0.0
C467 C 0.23492 0.83271 0.43513 0.0
H468 H 0.68299 0.61316 0.55622 0.0
H469 H 0.71978 0.70893 0.56468 0.0
H470 H 0.71932 0.60685 0.51361 0.0
H471 H 0.75545 0.70277 0.52205 0.0
H472 H 0.83878 0.67491 0.46813 0.0
H473 H 0.80273 0.67701 0.51129 0.0
H474 H 0.72967 0.62321 0.46039 0.0
H475 H 0.76599 0.62058 0.41728 0.0
C476 C 0.69861 0.6329 0.54887 0.0
C477 C 0.69856 0.66151 0.56395 0.0
C478 C 0.71937 0.6293 0.52442 0.0
C479 C 0.74052 0.65422 0.51464 0.0
C480 C 0.73996 0.68292 0.5294 0.0
C481 C 0.71928 0.68651 0.55373 0.0
C482 C 0.81514 0.66328 0.46618 0.0
C483 C 0.80523 0.64775 0.43915 0.0
C484 C 0.79438 0.66467 0.49088 0.0
C485 C 0.76317 0.65062 0.48915 0.0
C486 C 0.75359 0.63414 0.46253 0.0
C487 C 0.7744 0.63273 0.43778 0.0
H488 H 0.96519 0.32909 0.14519 0.0
H489 H 0.91104 0.24299 0.12232 0.0
H490 H 0.01308 0.30201 0.14915 0.0
H491 H 0.95884 0.21595 0.12659 0.0
H492 H 0.05759 0.18265 0.11099 0.0
H493 H 0.01104 0.21101 0.10259 0.0
H494 H 0.03308 0.26417 0.18462 0.0
H495 H 0.07959 0.23617 0.19289 0.0
C496 C 0.96351 0.30445 0.14081 0.0
C497 C 0.93423 0.2882 0.13358 0.0
C498 C 0.99093 0.2889 0.14326 0.0
C499 C 0.98973 0.25679 0.13837 0.0
C500 C 0.96063 0.24072 0.13026 0.0
C501 C 0.93319 0.25622 0.12798 0.0
C502 C 0.05251 0.20042 0.1272 0.0
C503 C 0.07231 0.2071 0.15263 0.0
C504 C 0.02579 0.21659 0.12244 0.0
C505 C 0.01843 0.23993 0.14288 0.0
C506 C 0.03833 0.24666 0.1682 0.0
C507 C 0.06488 0.2304 0.17306 0.0
H508 H 0.93595 0.68211 0.385 0.0
H509 H 0.92373 0.73355 0.30179 0.0
H510 H 0.9858 0.7135 0.39484 0.0
H511 H 0.97354 0.76441 0.31137 0.0
H512 H 0.04891 0.83351 0.34979 0.0
H513 H 0.9973 0.80391 0.34606 0.0
H514 H 0.03946 0.72129 0.37352 0.0
H515 H 0.09094 0.75094 0.3778 0.0
C516 C 0.94391 0.70003 0.36879 0.0
C517 C 0.92588 0.70528 0.34259 0.0
C518 C 0.9725 0.71795 0.37439 0.0
C519 C 0.98357 0.74156 0.35396 0.0
C520 C 0.96544 0.74679 0.32784 0.0
C521 C 0.93698 0.72888 0.32222 0.0
C522 C 0.04712 0.80911 0.35539 0.0
C523 C 0.07411 0.79456 0.36388 0.0
C524 C 0.01757 0.7921 0.35306 0.0
C525 C 0.01433 0.76016 0.35918 0.0
C526 C 0.04108 0.74588 0.36884 0.0
C527 C 0.07064 0.76288 0.37115 0.0
H528 H 0.5937 0.76131 0.62481 0.0
H529 H 0.53572 0.67474 0.63483 0.0
H530 H 0.54619 0.78875 0.62187 0.0
H531 H 0.4881 0.70234 0.63267 0.0
H532 H 0.4087 0.75806 0.59894 0.0
H533 H 0.45655 0.73086 0.5988 0.0
H534 H 0.50419 0.80336 0.65416 0.0
H535 H 0.4566 0.83093 0.65364 0.0
C536 C 0.5708 0.74811 0.62645 0.0
C537 C 0.56854 0.71581 0.63011 0.0
C538 C 0.54352 0.7639 0.62495 0.0
C539 C 0.51326 0.74782 0.62719 0.0
C540 C 0.51099 0.71545 0.6305 0.0
C541 C 0.53831 0.69962 0.6319 0.0
C542 C 0.42943 0.76828 0.61098 0.0
C543 C 0.4288 0.7967 0.6263 0.0
C544 C 0.45682 0.75256 0.61106 0.0
C545 C 0.48425 0.76484 0.62653 0.0
C546 C 0.48367 0.7934 0.64165 0.0
C547 C 0.4563 0.80917 0.64149 0.0
H548 H 0.81195 0.05934 0.69625 0.0
H549 H 0.91429 0.06656 0.69971 0.0
H550 H 0.80979 0.01609 0.73185 0.0
H551 H 0.91216 0.02392 0.73617 0.0
H552 H 0.89606 0.92716 0.77918 0.0
H553 H 0.89964 0.96949 0.74231 0.0
H554 H 0.8187 0.00615 0.78452 0.0
H555 H 0.81454 0.96336 0.82065 0.0
C556 C 0.83401 0.05169 0.70462 0.0
C557 C 0.86329 0.06644 0.69515 0.0
C558 C 0.83278 0.02704 0.72527 0.0
C559 C 0.8608 0.01665 0.73721 0.0
C560 C 0.89011 0.03105 0.72726 0.0
C561 C 0.89134 0.05559 0.70639 0.0
C562 C 0.87915 0.94436 0.78069 0.0
C563 C 0.85493 0.94178 0.80279 0.0
C564 C 0.88126 0.96872 0.75958 0.0
C565 C 0.8593 0.99117 0.7602 0.0
C566 C 0.8356 0.98895 0.78286 0.0
C567 C 0.83337 0.96452 0.8038 0.0
H568 H 0.11347 0.57878 0.78833 0.0
H569 H 0.16559 0.52779 0.85312 0.0
H570 H 0.10798 0.53363 0.75468 0.0
H571 H 0.16012 0.48281 0.81947 0.0
H572 H 0.11818 0.39918 0.76525 0.0
H573 H 0.11844 0.44399 0.79887 0.0
H574 H 0.1445 0.50428 0.72263 0.0
H575 H 0.14421 0.45938 0.68881 0.0
C576 C 0.12353 0.55789 0.79553 0.0
C577 C 0.14001 0.5569 0.82342 0.0
C578 C 0.12056 0.53212 0.77614 0.0
C579 C 0.13367 0.50471 0.78439 0.0
C580 C 0.1495 0.50351 0.81259 0.0
C581 C 0.15275 0.52934 0.83182 0.0
C582 C 0.12375 0.42198 0.75554 0.0
C583 C 0.13129 0.42568 0.72433 0.0
C584 C 0.12405 0.44764 0.77488 0.0
C585 C 0.13162 0.47764 0.76344 0.0
C586 C 0.13833 0.48145 0.73207 0.0
C587 C 0.13831 0.45573 0.71273 0.0
H588 H 0.68834 0.80147 0.04053 0.0
H589 H 0.72868 0.89259 0.06698 0.0
H590 H 0.71821 0.80568 0.99284 0.0
H591 H 0.75867 0.89673 0.01902 0.0
H592 H 0.83299 0.87244 0.94489 0.0
H593 H 0.80348 0.87089 0.99318 0.0
H594 H 0.71809 0.83758 0.94506 0.0
H595 H 0.74729 0.83909 0.89704 0.0
C596 C 0.70354 0.82243 0.03617 0.0
C597 C 0.70605 0.84672 0.05753 0.0
C598 C 0.72055 0.82489 0.00877 0.0
C599 C 0.74072 0.85157 0.00218 0.0
C600 C 0.74347 0.87581 0.0236 0.0
C601 C 0.72614 0.8735 0.05094 0.0
C602 C 0.80789 0.86493 0.94464 0.0
C603 C 0.79252 0.85581 0.91713 0.0
C604 C 0.79099 0.86418 0.97224 0.0
C605 C 0.75853 0.85395 0.97288 0.0
C606 C 0.74316 0.84521 0.94533 0.0
C607 C 0.75991 0.84625 0.91778 0.0
H608 H 0.23443 0.70698 0.92809 0.0
H609 H 0.18814 0.61574 0.94511 0.0
H610 H 0.26931 0.7013 0.97146 0.0
H611 H 0.22362 0.60989 0.98855 0.0
H612 H 0.27133 0.62841 0.08389 0.0
H613 H 0.23555 0.63093 0.04029 0.0
H614 H 0.31326 0.67155 0.98532 0.0
H615 H 0.34887 0.66948 0.02886 0.0
C616 C 0.23169 0.68565 0.94106 0.0
C617 C 0.2085 0.66178 0.93305 0.0
C618 C 0.25189 0.68231 0.96584 0.0
C619 C 0.24947 0.65503 0.98331 0.0
C620 C 0.22598 0.63127 0.97564 0.0
C621 C 0.20573 0.63458 0.95071 0.0
C622 C 0.28083 0.63769 0.06243 0.0
C623 C 0.31295 0.64893 0.05994 0.0
C624 C 0.26033 0.639 0.03741 0.0
C625 C 0.27149 0.65168 0.0094 0.0
C626 C 0.30378 0.66214 0.00673 0.0
C627 C 0.32425 0.66078 0.03167 0.0
H628 H 0.75442 0.12981 0.40042 0.0
H629 H 0.66804 0.13707 0.45151 0.0
H630 H 0.78345 0.12539 0.44798 0.0
H631 H 0.69712 0.13199 0.49927 0.0
H632 H 0.76802 0.16098 0.57649 0.0
H633 H 0.73695 0.16207 0.5297 0.0
H634 H 0.78969 0.09096 0.49085 0.0
H635 H 0.82129 0.09026 0.53752 0.0
C636 C 0.74153 0.13021 0.4218 0.0
C637 C 0.70888 0.13388 0.42214 0.0
C638 C 0.75819 0.12746 0.44911 0.0
C639 C 0.74264 0.12829 0.47747 0.0
C640 C 0.70989 0.13161 0.47782 0.0
C641 C 0.69319 0.13436 0.45045 0.0
C642 C 0.77297 0.14548 0.55802 0.0
C643 C 0.79728 0.12562 0.56072 0.0
C644 C 0.75496 0.14597 0.53125 0.0
C645 C 0.76082 0.12663 0.50649 0.0
C646 C 0.78484 0.10644 0.50934 0.0
C647 C 0.80285 0.10593 0.53616 0.0
H648 H 0.24211 0.31748 0.5858 0.0
H649 H 0.1896 0.3951 0.56281 0.0
H650 H 0.27145 0.32414 0.53807 0.0
H651 H 0.21941 0.40198 0.51498 0.0
H652 H 0.25132 0.37602 0.41706 0.0
H653 H 0.22371 0.3744 0.46605 0.0
H654 H 0.31116 0.35968 0.5124 0.0
H655 H 0.33876 0.36086 0.46333 0.0
C656 C 0.23692 0.3361 0.57064 0.0
C657 C 0.2134 0.3557 0.57811 0.0
C658 C 0.25395 0.34005 0.54334 0.0
C659 C 0.24785 0.36364 0.52274 0.0
C660 C 0.22449 0.38342 0.53026 0.0
C661 C 0.2075 0.37956 0.55772 0.0
C662 C 0.26474 0.37264 0.4377 0.0
C663 C 0.29723 0.36836 0.43623 0.0
C664 C 0.24892 0.37191 0.46582 0.0
C665 C 0.26519 0.36677 0.49312 0.0
C666 C 0.29785 0.36326 0.49173 0.0
C667 C 0.31371 0.3641 0.46361 0.0
H668 H 0.04297 0.67645 0.87607 0.0
H669 H 0.10224 0.76285 0.87307 0.0
H670 H 0.99587 0.70499 0.87842 0.0
H671 H 0.05526 0.79121 0.87559 0.0
H672 H 0.96274 0.82779 0.84071 0.0
H673 H 0.01013 0.79982 0.84149 0.0
H674 H 0.96883 0.74024 0.91284 0.0
H675 H 0.92128 0.76809 0.912 0.0
C676 C 0.04598 0.70149 0.87611 0.0
C677 C 0.07638 0.71734 0.8743 0.0
C678 C 0.01901 0.71783 0.87761 0.0
C679 C 0.02185 0.75036 0.87707 0.0
C680 C 0.05227 0.76617 0.87566 0.0
C681 C 0.0792 0.74987 0.8744 0.0
C682 C 0.9638 0.80883 0.85669 0.0
C683 C 0.93819 0.80019 0.87628 0.0
C684 C 0.99102 0.79289 0.85722 0.0
C685 C 0.99321 0.76779 0.87721 0.0
C686 C 0.96772 0.75928 0.89697 0.0
C687 C 0.94057 0.77538 0.89661 0.0
H688 H 0.04888 0.32515 0.63326 0.0
H689 H 0.09838 0.24556 0.65649 0.0
H690 H 0.99833 0.2929 0.63531 0.0
H691 H 0.048 0.21369 0.65883 0.0
H692 H 0.94983 0.1835 0.7027 0.0
H693 H 1.00041 0.21432 0.69569 0.0
H694 H 0.96933 0.24464 0.60749 0.0
H695 H 0.91863 0.21339 0.61427 0.0
C696 C 0.04901 0.3008 0.63858 0.0
C697 C 0.07762 0.28795 0.64483 0.0
C698 C 0.02012 0.28236 0.63962 0.0
C699 C 0.01933 0.25089 0.64739 0.0
C700 C 0.04795 0.23795 0.65304 0.0
C701 C 0.07679 0.25622 0.65155 0.0
C702 C 0.95379 0.19661 0.68175 0.0
C703 C 0.93027 0.196 0.65903 0.0
C704 C 0.98279 0.21414 0.67769 0.0
C705 C 0.98873 0.23181 0.65105 0.0
C706 C 0.96525 0.23131 0.6283 0.0
C707 C 0.93637 0.21332 0.63212 0.0
H708 H 0.59019 0.24557 0.40733 0.0
H709 H 0.54041 0.17591 0.35014 0.0
H710 H 0.54312 0.27399 0.40881 0.0
H711 H 0.49339 0.20452 0.35151 0.0
H712 H 0.40582 0.24797 0.38707 0.0
H713 H 0.45264 0.21926 0.38808 0.0
H714 H 0.51218 0.30399 0.3729 0.0
H715 H 0.46528 0.33288 0.37205 0.0
C716 C 0.56919 0.23624 0.39516 0.0
C717 C 0.5691 0.20844 0.3786 0.0
C718 C 0.54228 0.25266 0.39586 0.0
C719 C 0.51456 0.24157 0.38021 0.0
C720 C 0.51429 0.21354 0.36403 0.0
C721 C 0.54128 0.19721 0.36315 0.0
C722 C 0.42889 0.26056 0.38408 0.0
C723 C 0.43179 0.29276 0.37946 0.0
C724 C 0.45571 0.24403 0.38447 0.0
C725 C 0.48612 0.25931 0.38047 0.0
C726 C 0.4891 0.29158 0.37631 0.0
C727 C 0.46222 0.30811 0.37569 0.0
H728 H 0.69824 0.56315 0.69555 0.0
H729 H 0.59627 0.56279 0.69101 0.0
H730 H 0.6927 0.51822 0.72905 0.0
H731 H 0.59077 0.51791 0.725 0.0
H732 H 0.59641 0.41704 0.75825 0.0
H733 H 0.59973 0.4627 0.72551 0.0
H734 H 0.67587 0.50502 0.78139 0.0
H735 H 0.67291 0.4592 0.81391 0.0
C736 C 0.67461 0.55349 0.70168 0.0
C737 C 0.64769 0.56659 0.69058 0.0
C738 C 0.67145 0.52785 0.72111 0.0
C739 C 0.6413 0.51462 0.72989 0.0
C740 C 0.61433 0.52744 0.71849 0.0
C741 C 0.61749 0.5532 0.69908 0.0
C742 C 0.61375 0.43615 0.76369 0.0
C743 C 0.63452 0.43438 0.78863 0.0
C744 C 0.61553 0.46239 0.74498 0.0
C745 C 0.63819 0.48741 0.75072 0.0
C746 C 0.65848 0.48592 0.77607 0.0
C747 C 0.65663 0.45974 0.79484 0.0
H748 H 0.33475 0.0503 0.80737 0.0
H749 H 0.39017 0.10705 0.74206 0.0
H750 H 0.33602 0.00588 0.77338 0.0
H751 H 0.39202 0.06253 0.70843 0.0
H752 H 0.35708 0.98544 0.64139 0.0
H753 H 0.35739 0.02974 0.6757 0.0
H754 H 0.37152 0.97036 0.75292 0.0
H755 H 0.3705 0.92596 0.71872 0.0
C756 C 0.3474 0.05326 0.78588 0.0
C757 C 0.36228 0.08227 0.77742 0.0
C758 C 0.34828 0.02774 0.76644 0.0
C759 C 0.36409 0.03062 0.73811 0.0
C760 C 0.37923 0.05958 0.72985 0.0
C761 C 0.37833 0.08509 0.74925 0.0
C762 C 0.36037 0.98184 0.66566 0.0
C763 C 0.36372 0.95213 0.67727 0.0
C764 C 0.36071 0.00728 0.68534 0.0
C765 C 0.36443 0.00363 0.71711 0.0
C766 C 0.36813 0.97395 0.72865 0.0
C767 C 0.36777 0.94851 0.70899 0.0
H768 H 0.44752 0.17384 0.84764 0.0
H769 H 0.40732 0.2539 0.88468 0.0
H770 H 0.49898 0.20363 0.84362 0.0
H771 H 0.4586 0.28383 0.88002 0.0
H772 H 0.56271 0.3218 0.88975 0.0
H773 H 0.5129 0.29018 0.89904 0.0
H774 H 0.52196 0.24533 0.8116 0.0
H775 H 0.57179 0.27633 0.80261 0.0
C776 C 0.44968 0.19773 0.8551 0.0
C777 C 0.42324 0.21153 0.8663 0.0
C778 C 0.47914 0.21488 0.85259 0.0
C779 C 0.48285 0.24622 0.8612 0.0
C780 C 0.45665 0.2597 0.8734 0.0
C781 C 0.42719 0.24254 0.87594 0.0
C782 C 0.55404 0.30517 0.87254 0.0
C783 C 0.57123 0.30161 0.84543 0.0
C784 C 0.52546 0.28712 0.87782 0.0
C785 C 0.51351 0.2651 0.85613 0.0
C786 C 0.53074 0.26165 0.82905 0.0
C787 C 0.55923 0.27964 0.82378 0.0
H788 H 0.38857 0.595 0.25651 0.0
H789 H 0.34138 0.5457 0.18101 0.0
H790 H 0.38604 0.54722 0.28607 0.0
H791 H 0.33946 0.49782 0.21036 0.0
H792 H 0.30562 0.42869 0.28471 0.0
H793 H 0.31127 0.47579 0.25446 0.0
H794 H 0.40629 0.49646 0.28933 0.0
H795 H 0.4004 0.44933 0.32026 0.0
C796 C 0.37791 0.57392 0.24609 0.0
C797 C 0.36498 0.57423 0.21644 0.0
C798 C 0.37664 0.54648 0.263 0.0
C799 C 0.3624 0.5187 0.25067 0.0
C800 C 0.35013 0.51891 0.22075 0.0
C801 C 0.35139 0.54634 0.20384 0.0
C802 C 0.32777 0.44321 0.28599 0.0
C803 C 0.35256 0.4352 0.30495 0.0
C804 C 0.33108 0.47016 0.26842 0.0
C805 C 0.3593 0.48985 0.26928 0.0
C806 C 0.38413 0.48193 0.28833 0.0
C807 C 0.38081 0.45487 0.30596 0.0
H808 H 0.70105 0.07206 0.28267 0.0
H809 H 0.59996 0.0652 0.29833 0.0
H810 H 0.695 0.02583 0.25127 0.0
H811 H 0.59363 0.01928 0.26574 0.0
H812 H 0.60002 0.91936 0.23195 0.0
H813 H 0.60339 0.96618 0.26297 0.0
H814 H 0.6764 0.00793 0.20303 0.0
H815 H 0.67386 0.96069 0.17282 0.0
C816 C 0.67743 0.06078 0.27921 0.0
C817 C 0.65096 0.07237 0.29296 0.0
C818 C 0.67393 0.03433 0.26094 0.0
C819 C 0.64378 0.01889 0.25559 0.0
C820 C 0.61726 0.03037 0.26956 0.0
C821 C 0.62083 0.05676 0.28816 0.0
C822 C 0.61666 0.93862 0.22529 0.0
C823 C 0.63685 0.93621 0.20004 0.0
C824 C 0.61848 0.96557 0.24302 0.0
C825 C 0.64037 0.99084 0.23575 0.0
C826 C 0.65978 0.98872 0.20981 0.0
C827 C 0.65818 0.96169 0.1923 0.0
H828 H 0.56278 0.82922 0.12042 0.0
H829 H 0.59833 0.74909 0.16226 0.0
H830 H 0.51011 0.8016 0.11715 0.0
H831 H 0.54562 0.72192 0.16005 0.0
H832 H 0.45314 0.67087 0.12986 0.0
H833 H 0.5061 0.69798 0.12713 0.0
H834 H 0.46713 0.78387 0.1493 0.0
H835 H 0.41426 0.75701 0.15088 0.0
C836 C 0.55933 0.80574 0.12899 0.0
C837 C 0.58474 0.79138 0.14163 0.0
C838 C 0.52909 0.78994 0.12728 0.0
C839 C 0.5235 0.7595 0.13841 0.0
C840 C 0.54907 0.74511 0.15078 0.0
C841 C 0.57932 0.7608 0.15225 0.0
C842 C 0.4559 0.69558 0.13394 0.0
C843 C 0.4295 0.71176 0.14064 0.0
C844 C 0.48629 0.71112 0.13256 0.0
C845 C 0.491 0.74315 0.13812 0.0
C846 C 0.46444 0.75933 0.14441 0.0
C847 C 0.43408 0.74385 0.14552 0.0
loop_
_geom_bond_atom_site_label_1
_geom_bond_atom_site_label_2
_geom_bond_distance
_geom_bond_site_symmetry_2
_ccdc_geom_bond_type
C0 O1 1.160 . S
C0 O7 1.185 . S
O1 C0 1.160 . S
O2 Zn3 1.899 . S
O2 C10 1.284 . S
Zn3 O2 1.899 . S
Zn3 O4 2.032 . S
Zn3 O7 2.086 . S
Zn3 O12 1.977 . S
O4 Zn3 2.032 . S
O4 C8 1.278 . S
C5 O6 1.203 . S
C5 O12 1.267 . S
O6 C5 1.203 . S
O7 C0 1.185 . S
O7 Zn3 2.086 . S
C8 O4 1.278 . S
C8 O9 1.211 . S
O9 C8 1.211 . S
C10 O2 1.284 . S
C10 O11 1.273 . S
O11 C10 1.273 . S
O12 Zn3 1.977 . S
O12 C5 1.267 . S
C13 O14 1.160 . S
C13 O20 1.185 . S
O14 C13 1.160 . S
O15 Zn16 1.899 . S
O15 C23 1.284 . S
Zn16 O15 1.899 . S
Zn16 O17 2.032 . S
Zn16 O20 2.086 . S
Zn16 O25 1.977 . S
O17 Zn16 2.032 . S
O17 C21 1.278 . S
C18 O19 1.203 . S
C18 O25 1.267 . S
O19 C18 1.203 . S
O20 C13 1.185 . S
O20 Zn16 2.086 . S
C21 O17 1.278 . S
C21 O22 1.211 . S
O22 C21 1.211 . S
C23 O15 1.284 . S
C23 O24 1.273 . S
O24 C23 1.273 . S
O25 Zn16 1.977 . S
O25 C18 1.267 . S
C26 O27 1.160 . S
C26 O33 1.185 . S
O27 C26 1.160 . S
O28 Zn29 1.899 . S
O28 C36 1.284 . S
Zn29 O28 1.899 . S
Zn29 O30 2.032 . S
Zn29 O33 2.086 . S
Zn29 O38 1.977 . S
O30 Zn29 2.032 . S
O30 C34 1.278 . S
C31 O32 1.203 . S
C31 O38 1.267 . S
O32 C31 1.203 . S
O33 C26 1.185 . S
O33 Zn29 2.086 . S
C34 O30 1.278 . S
C34 O35 1.211 . S
O35 C34 1.211 . S
C36 O28 1.284 . S
C36 O37 1.273 . S
O37 C36 1.273 . S
O38 Zn29 1.977 . S
O38 C31 1.267 . S
C39 O40 1.160 . S
C39 O46 1.185 . S
O40 C39 1.160 . S
O41 Zn42 1.899 . S
O41 C49 1.284 . S
Zn42 O41 1.899 . S
Zn42 O43 2.032 . S
Zn42 O46 2.086 . S
Zn42 O51 1.977 . S
O43 Zn42 2.032 . S
O43 C47 1.278 . S
C44 O45 1.203 . S
C44 O51 1.267 . S
O45 C44 1.203 . S
O46 C39 1.185 . S
O46 Zn42 2.086 . S
C47 O43 1.278 . S
C47 O48 1.211 . S
O48 C47 1.211 . S
C49 O41 1.284 . S
C49 O50 1.273 . S
O50 C49 1.273 . S
O51 Zn42 1.977 . S
O51 C44 1.267 . S
C52 O53 1.160 . S
C52 O59 1.185 . S
O53 C52 1.160 . S
O54 Zn55 1.899 . S
O54 C62 1.284 . S
Zn55 O54 1.899 . S
Zn55 O56 2.032 . S
Zn55 O59 2.086 . S
Zn55 O64 1.977 . S
O56 Zn55 2.032 . S
O56 C60 1.278 . S
C57 O58 1.203 . S
C57 O64 1.267 . S
O58 C57 1.203 . S
O59 C52 1.185 . S
O59 Zn55 2.086 . S
C60 O56 1.278 . S
C60 O61 1.211 . S
O61 C60 1.211 . S
C62 O54 1.284 . S
C62 O63 1.273 . S
O63 C62 1.273 . S
O64 Zn55 1.977 . S
O64 C57 1.267 . S
C65 O66 1.160 . S
C65 O72 1.185 . S
O66 C65 1.160 . S
O67 Zn68 1.899 . S
O67 C75 1.284 . S
Zn68 O67 1.899 . S
Zn68 O69 2.032 . S
Zn68 O72 2.086 . S
Zn68 O77 1.977 . S
O69 Zn68 2.032 . S
O69 C73 1.278 . S
C70 O71 1.203 . S
C70 O77 1.267 . S
O71 C70 1.203 . S
O72 C65 1.185 . S
O72 Zn68 2.086 . S
C73 O69 1.278 . S
C73 O74 1.211 . S
O74 C73 1.211 . S
C75 O67 1.284 . S
C75 O76 1.273 . S
O76 C75 1.273 . S
O77 Zn68 1.977 . S
O77 C70 1.267 . S
C78 O79 1.160 . S
C78 O85 1.185 . S
O79 C78 1.160 . S
O80 Zn81 1.899 . S
O80 C88 1.284 . S
Zn81 O80 1.899 . S
Zn81 O82 2.032 . S
Zn81 O85 2.086 . S
Zn81 O90 1.977 . S
O82 Zn81 2.032 . S
O82 C86 1.278 . S
C83 O84 1.203 . S
C83 O90 1.267 . S
O84 C83 1.203 . S
O85 C78 1.185 . S
O85 Zn81 2.086 . S
C86 O82 1.278 . S
C86 O87 1.211 . S
O87 C86 1.211 . S
C88 O80 1.284 . S
C88 O89 1.273 . S
O89 C88 1.273 . S
O90 Zn81 1.977 . S
O90 C83 1.267 . S
C91 O92 1.160 . S
C91 O98 1.185 . S
O92 C91 1.160 . S
O93 Zn94 1.899 . S
O93 C101 1.284 . S
Zn94 O93 1.899 . S
Zn94 O95 2.032 . S
Zn94 O98 2.086 . S
Zn94 O103 1.977 . S
O95 Zn94 2.032 . S
O95 C99 1.278 . S
C96 O97 1.203 . S
C96 O103 1.267 . S
O97 C96 1.203 . S
O98 C91 1.185 . S
O98 Zn94 2.086 . S
C99 O95 1.278 . S
C99 O100 1.211 . S
O100 C99 1.211 . S
C101 O93 1.284 . S
C101 O102 1.273 . S
O102 C101 1.273 . S
O103 Zn94 1.977 . S
O103 C96 1.267 . S
C104 O105 1.160 . S
C104 O111 1.185 . S
O105 C104 1.160 . S
O106 Zn107 1.899 . S
O106 C114 1.284 . S
Zn107 O106 1.899 . S
Zn107 O108 2.032 . S
Zn107 O111 2.086 . S
Zn107 O116 1.977 . S
O108 Zn107 2.032 . S
O108 C112 1.278 . S
C109 O110 1.203 . S
C109 O116 1.267 . S
O110 C109 1.203 . S
O111 C104 1.185 . S
O111 Zn107 2.086 . S
C112 O108 1.278 . S
C112 O113 1.211 . S
O113 C112 1.211 . S
C114 O106 1.284 . S
C114 O115 1.273 . S
O115 C114 1.273 . S
O116 Zn107 1.977 . S
O116 C109 1.267 . S
C117 O118 1.160 . S
C117 O124 1.185 . S
O118 C117 1.160 . S
O119 Zn120 1.899 . S
O119 C127 1.284 . S
Zn120 O119 1.899 . S
Zn120 O121 2.032 . S
Zn120 O124 2.086 . S
Zn120 O129 1.977 . S
O121 Zn120 2.032 . S
O121 C125 1.278 . S
C122 O123 1.203 . S
C122 O129 1.267 . S
O123 C122 1.203 . S
O124 C117 1.185 . S
O124 Zn120 2.086 . S
C125 O121 1.278 . S
C125 O126 1.211 . S
O126 C125 1.211 . S
C127 O119 1.284 . S
C127 O128 1.273 . S
O128 C127 1.273 . S
O129 Zn120 1.977 . S
O129 C122 1.267 . S
C130 O131 1.160 . S
C130 O137 1.185 . S
O131 C130 1.160 . S
O132 Zn133 1.899 . S
O132 C140 1.284 . S
Zn133 O132 1.899 . S
Zn133 O134 2.032 . S
Zn133 O137 2.086 . S
Zn133 O142 1.977 . S
O134 Zn133 2.032 . S
O134 C138 1.278 . S
C135 O136 1.203 . S
C135 O142 1.267 . S
O136 C135 1.203 . S
O137 C130 1.185 . S
O137 Zn133 2.086 . S
C138 O134 1.278 . S
C138 O139 1.211 . S
O139 C138 1.211 . S
C140 O132 1.284 . S
C140 O141 1.273 . S
O141 C140 1.273 . S
O142 Zn133 1.977 . S
O142 C135 1.267 . S
C143 O144 1.160 . S
C143 O150 1.185 . S
O144 C143 1.160 . S
O145 Zn146 1.899 . S
O145 C153 1.284 . S
Zn146 O145 1.899 . S
Zn146 O147 2.032 . S
Zn146 O150 2.086 . S
Zn146 O155 1.977 . S
O147 Zn146 2.032 . S
O147 C151 1.278 . S
C148 O149 1.203 . S
C148 O155 1.267 . S
O149 C148 1.203 . S
O150 C143 1.185 . S
O150 Zn146 2.086 . S
C151 O147 1.278 . S
C151 O152 1.211 . S
O152 C151 1.211 . S
C153 O145 1.284 . S
C153 O154 1.273 . S
O154 C153 1.273 . S
O155 Zn146 1.977 . S
O155 C148 1.267 . S
C156 O157 1.160 . S
C156 O163 1.185 . S
O157 C156 1.160 . S
O158 Zn159 1.899 . S
O158 C166 1.284 . S
Zn159 O158 1.899 . S
Zn159 O160 2.032 . S
Zn159 O163 2.086 . S
Zn159 O168 1.977 . S
O160 Zn159 2.032 . S
O160 C164 1.278 . S
C161 O162 1.203 . S
C161 O168 1.267 . S
O162 C161 1.203 . S
O163 C156 1.185 . S
O163 Zn159 2.086 . S
C164 O160 1.278 . S
C164 O165 1.211 . S
O165 C164 1.211 . S
C166 O158 1.284 . S
C166 O167 1.273 . S
O167 C166 1.273 . S
O168 Zn159 1.977 . S
O168 C161 1.267 . S
C169 O170 1.160 . S
C169 O176 1.185 . S
O170 C169 1.160 . S
O171 Zn172 1.899 . S
O171 C179 1.284 . S
Zn172 O171 1.899 . S
Zn172 O173 2.032 . S
Zn172 O176 2.086 . S
Zn172 O181 1.977 . S
O173 Zn172 2.032 . S
O173 C177 1.278 . S
C174 O175 1.203 . S
C174 O181 1.267 . S
O175 C174 1.203 . S
O176 C169 1.185 . S
O176 Zn172 2.086 . S
C177 O173 1.278 . S
C177 O178 1.211 . S
O178 C177 1.211 . S
C179 O171 1.284 . S
C179 O180 1.273 . S
O180 C179 1.273 . S
O181 Zn172 1.977 . S
O181 C174 1.267 . S
C182 O183 1.160 . S
C182 O189 1.185 . S
O183 C182 1.160 . S
O184 Zn185 1.899 . S
O184 C192 1.284 . S
Zn185 O184 1.899 . S
Zn185 O186 2.032 . S
Zn185 O189 2.086 . S
Zn185 O194 1.977 . S
O186 Zn185 2.032 . S
O186 C190 1.278 . S
C187 O188 1.203 . S
C187 O194 1.267 . S
O188 C187 1.203 . S
O189 C182 1.185 . S
O189 Zn185 2.086 . S
C190 O186 1.278 . S
C190 O191 1.211 . S
O191 C190 1.211 . S
C192 O184 1.284 . S
C192 O193 1.273 . S
O193 C192 1.273 . S
O194 Zn185 1.977 . S
O194 C187 1.267 . S
C195 O196 1.160 . S
C195 O202 1.185 . S
O196 C195 1.160 . S
O197 Zn198 1.899 . S
O197 C205 1.284 . S
Zn198 O197 1.899 . S
Zn198 O199 2.032 . S
Zn198 O202 2.086 . S
Zn198 O207 1.977 . S
O199 Zn198 2.032 . S
O199 C203 1.278 . S
C200 O201 1.203 . S
C200 O207 1.267 . S
O201 C200 1.203 . S
O202 C195 1.185 . S
O202 Zn198 2.086 . S
C203 O199 1.278 . S
C203 O204 1.211 . S
O204 C203 1.211 . S
C205 O197 1.284 . S
C205 O206 1.273 . S
O206 C205 1.273 . S
O207 Zn198 1.977 . S
O207 C200 1.267 . S
H208 C216 0.950 . S
H209 C221 0.950 . S
H210 C218 0.950 . S
H211 C220 0.950 . S
H212 C222 0.950 . S
H213 C224 0.950 . S
H214 C226 0.950 . S
H215 C227 0.950 . S
C216 H208 0.950 . S
C216 C217 1.386 . S
C216 C218 1.391 . S
C217 C216 1.386 . S
C217 C221 1.393 . S
C218 H210 0.950 . S
C218 C216 1.391 . S
C218 C219 1.400 . S
C219 C218 1.400 . S
C219 C220 1.398 . S
C219 C225 1.491 . S
C220 H211 0.950 . S
C220 C219 1.398 . S
C220 C221 1.391 . S
C221 H209 0.950 . S
C221 C217 1.393 . S
C221 C220 1.391 . S
C222 H212 0.950 . S
C222 C223 1.386 . S
C222 C224 1.391 . S
C223 C222 1.386 . S
C223 C227 1.393 . S
C224 H213 0.950 . S
C224 C222 1.391 . S
C224 C225 1.400 . S
C225 C219 1.491 . S
C225 C224 1.400 . S
C225 C226 1.398 . S
C226 H214 0.950 . S
C226 C225 1.398 . S
C226 C227 1.391 . S
C227 H215 0.950 . S
C227 C223 1.393 . S
C227 C226 1.391 . S
H228 C236 0.950 . S
H229 C241 0.950 . S
H230 C238 0.950 . S
H231 C240 0.950 . S
H232 C242 0.950 . S
H233 C244 0.950 . S
H234 C246 0.950 . S
H235 C247 0.950 . S
C236 H228 0.950 . S
C236 C237 1.386 . S
C236 C238 1.391 . S
C237 C236 1.386 . S
C237 C241 1.393 . S
C238 H230 0.950 . S
C238 C236 1.391 . S
C238 C239 1.400 . S
C239 C238 1.400 . S
C239 C240 1.398 . S
C239 C245 1.491 . S
C240 H231 0.950 . S
C240 C239 1.398 . S
C240 C241 1.391 . S
C241 H229 0.950 . S
C241 C237 1.393 . S
C241 C240 1.391 . S
C242 H232 0.950 . S
C242 C243 1.386 . S
C242 C244 1.391 . S
C243 C242 1.386 . S
C243 C247 1.393 . S
C244 H233 0.950 . S
C244 C242 1.391 . S
C244 C245 1.400 . S
C245 C239 1.491 . S
C245 C244 1.400 . S
C245 C246 1.398 . S
C246 H234 0.950 . S
C246 C245 1.398 . S
C246 C247 1.391 . S
C247 H235 0.950 . S
C247 C243 1.393 . S
C247 C246 1.391 . S
H248 C256 0.950 . S
H249 C261 0.950 . S
H250 C258 0.950 . S
H251 C260 0.950 . S
H252 C262 0.950 . S
H253 C264 0.950 . S
H254 C266 0.950 . S
H255 C267 0.950 . S
C256 H248 0.950 . S
C256 C257 1.386 . S
C256 C258 1.391 . S
C257 C256 1.386 . S
C257 C261 1.393 . S
C258 H250 0.950 . S
C258 C256 1.391 . S
C258 C259 1.400 . S
C259 C258 1.400 . S
C259 C260 1.398 . S
C259 C265 1.491 . S
C260 H251 0.950 . S
C260 C259 1.398 . S
C260 C261 1.391 . S
C261 H249 0.950 . S
C261 C257 1.393 . S
C261 C260 1.391 . S
C262 H252 0.950 . S
C262 C263 1.386 . S
C262 C264 1.391 . S
C263 C262 1.386 . S
C263 C267 1.393 . S
C264 H253 0.950 . S
C264 C262 1.391 . S
C264 C265 1.400 . S
C265 C259 1.491 . S
C265 C264 1.400 . S
C265 C266 1.398 . S
C266 H254 0.950 . S
C266 C265 1.398 . S
C266 C267 1.391 . S
C267 H255 0.950 . S
C267 C263 1.393 . S
C267 C266 1.391 . S
H268 C276 0.950 . S
H269 C281 0.950 . S
H270 C278 0.950 . S
H271 C280 0.950 . S
H272 C282 0.950 . S
H273 C284 0.950 . S
H274 C286 0.950 . S
H275 C287 0.950 . S
C276 H268 0.950 . S
C276 C277 1.386 . S
C276 C278 1.391 . S
C277 C276 1.386 . S
C277 C281 1.393 . S
C278 H270 0.950 . S
C278 C276 1.391 . S
C278 C279 1.400 . S
C279 C278 1.400 . S
C279 C280 1.398 . S
C279 C285 1.491 . S
C280 H271 0.950 . S
C280 C279 1.398 . S
C280 C281 1.391 . S
C281 H269 0.950 . S
C281 C277 1.393 . S
C281 C280 1.391 . S
C282 H272 0.950 . S
C282 C283 1.386 . S
C282 C284 1.391 . S
C283 C282 1.386 . S
C283 C287 1.393 . S
C284 H273 0.950 . S
C284 C282 1.391 . S
C284 C285 1.400 . S
C285 C279 1.491 . S
C285 C284 1.400 . S
C285 C286 1.398 . S
C286 H274 0.950 . S
C286 C285 1.398 . S
C286 C287 1.391 . S
C287 H275 0.950 . S
C287 C283 1.393 . S
C287 C286 1.391 . S
H288 C296 0.950 . S
H289 C301 0.950 . S
H290 C298 0.950 . S
H291 C300 0.950 . S
H292 C302 0.950 . S
H293 C304 0.950 . S
H294 C306 0.950 . S
H295 C307 0.950 . S
C296 H288 0.950 . S
C296 C297 1.386 . S
C296 C298 1.391 . S
C297 C296 1.386 . S
C297 C301 1.393 . S
C298 H290 0.950 . S
C298 C296 1.391 . S
C298 C299 1.400 . S
C299 C298 1.400 . S
C299 C300 1.398 . S
C299 C305 1.491 . S
C300 H291 0.950 . S
C300 C299 1.398 . S
C300 C301 1.391 . S
C301 H289 0.950 . S
C301 C297 1.393 . S
C301 C300 1.391 . S
C302 H292 0.950 . S
C302 C303 1.386 . S
C302 C304 1.391 . S
C303 C302 1.386 . S
C303 C307 1.393 . S
C304 H293 0.950 . S
C304 C302 1.391 . S
C304 C305 1.400 . S
C305 C299 1.491 . S
C305 C304 1.400 . S
C305 C306 1.398 . S
C306 H294 0.950 . S
C306 C305 1.398 . S
C306 C307 1.391 . S
C307 H295 0.950 . S
C307 C303 1.393 . S
C307 C306 1.391 . S
H308 C316 0.950 . S
H309 C321 0.950 . S
H310 C318 0.950 . S
H311 C320 0.950 . S
H312 C322 0.950 . S
H313 C324 0.950 . S
H314 C326 0.950 . S
H315 C327 0.950 . S
C316 H308 0.950 . S
C316 C317 1.386 . S
C316 C318 1.391 . S
C317 C316 1.386 . S
C317 C321 1.393 . S
C318 H310 0.950 . S
C318 C316 1.391 . S
C318 C319 1.400 . S
C319 C318 1.400 . S
C319 C320 1.398 . S
C319 C325 1.491 . S
C320 H311 0.950 . S
C320 C319 1.398 . S
C320 C321 1.391 . S
C321 H309 0.950 . S
C321 C317 1.393 . S
C321 C320 1.391 . S
C322 H312 0.950 . S
C322 C323 1.386 . S
C322 C324 1.391 . S
C323 C322 1.386 . S
C323 C327 1.393 . S
C324 H313 0.950 . S
C324 C322 1.391 . S
C324 C325 1.400 . S
C325 C319 1.491 . S
C325 C324 1.400 . S
C325 C326 1.398 . S
C326 H314 0.950 . S
C326 C325 1.398 . S
C326 C327 1.391 . S
C327 H315 0.950 . S
C327 C323 1.393 . S
C327 C326 1.391 . S
H328 C336 0.950 . S
H329 C341 0.950 . S
H330 C338 0.950 . S
H331 C340 0.950 . S
H332 C342 0.950 . S
H333 C344 0.950 . S
H334 C346 0.950 . S
H335 C347 0.950 . S
C336 H328 0.950 . S
C336 C337 1.386 . S
C336 C338 1.391 . S
C337 C336 1.386 . S
C337 C341 1.393 . S
C338 H330 0.950 . S
C338 C336 1.391 . S
C338 C339 1.400 . S
C339 C338 1.400 . S
C339 C340 1.398 . S
C339 C345 1.491 . S
C340 H331 0.950 . S
C340 C339 1.398 . S
C340 C341 1.391 . S
C341 H329 0.950 . S
C341 C337 1.393 . S
C341 C340 1.391 . S
C342 H332 0.950 . S
C342 C343 1.386 . S
C342 C344 1.391 . S
C343 C342 1.386 . S
C343 C347 1.393 . S
C344 H333 0.950 . S
C344 C342 1.391 . S
C344 C345 1.400 . S
C345 C339 1.491 . S
C345 C344 1.400 . S
C345 C346 1.398 . S
C346 H334 0.950 . S
C346 C345 1.398 . S
C346 C347 1.391 . S
C347 H335 0.950 . S
C347 C343 1.393 . S
C347 C346 1.391 . S
H348 C356 0.950 . S
H349 C361 0.950 . S
H350 C358 0.950 . S
H351 C360 0.950 . S
H352 C362 0.950 . S
H353 C364 0.950 . S
H354 C366 0.950 . S
H355 C367 0.950 . S
C356 H348 0.950 . S
C356 C357 1.386 . S
C356 C358 1.391 . S
C357 C356 1.386 . S
C357 C361 1.393 . S
C358 H350 0.950 . S
C358 C356 1.391 . S
C358 C359 1.400 . S
C359 C358 1.400 . S
C359 C360 1.398 . S
C359 C365 1.491 . S
C360 H351 0.950 . S
C360 C359 1.398 . S
C360 C361 1.391 . S
C361 H349 0.950 . S
C361 C357 1.393 . S
C361 C360 1.391 . S
C362 H352 0.950 . S
C362 C363 1.386 . S
C362 C364 1.391 . S
C363 C362 1.386 . S
C363 C367 1.393 . S
C364 H353 0.950 . S
C364 C362 1.391 . S
C364 C365 1.400 . S
C365 C359 1.491 . S
C365 C364 1.400 . S
C365 C366 1.398 . S
C366 H354 0.950 . S
C366 C365 1.398 . S
C366 C367 1.391 . S
C367 H355 0.950 . S
C367 C363 1.393 . S
C367 C366 1.391 . S
H368 C376 0.950 . S
H369 C381 0.950 . S
H370 C378 0.950 . S
H371 C380 0.950 1_545 S
H372 C382 0.950 . S
H373 C384 0.950 . S
H374 C386 0.950 1_565 S
H375 C387 0.950 . S
C376 H368 0.950 . S
C376 C377 1.386 . S
C376 C378 1.391 . S
C377 C376 1.386 . S
C377 C381 1.393 . S
C378 H370 0.950 . S
C378 C376 1.391 . S
C378 C379 1.400 . S
C379 C378 1.400 . S
C379 C380 1.398 . S
C379 C385 1.491 1_565 S
C380 H371 0.950 1_565 S
C380 C379 1.398 . S
C380 C381 1.391 . S
C381 H369 0.950 . S
C381 C377 1.393 . S
C381 C380 1.391 . S
C382 H372 0.950 . S
C382 C383 1.386 . S
C382 C384 1.391 . S
C383 C382 1.386 . S
C383 C387 1.393 . S
C384 H373 0.950 . S
C384 C382 1.391 . S
C384 C385 1.400 . S
C385 C379 1.491 1_545 S
C385 C384 1.400 . S
C385 C386 1.398 . S
C386 H374 0.950 1_545 S
C386 C385 1.398 . S
C386 C387 1.391 . S
C387 H375 0.950 . S
C387 C383 1.393 . S
C387 C386 1.391 . S
H388 C396 0.950 . S
H389 C401 0.950 . S
H390 C398 0.950 . S
H391 C400 0.950 . S
H392 C402 0.950 . S
H393 C404 0.950 . S
H394 C406 0.950 . S
H395 C407 0.950 . S
C396 H388 0.950 . S
C396 C397 1.386 . S
C396 C398 1.391 . S
C397 C396 1.386 . S
C397 C401 1.393 . S
C398 H390 0.950 . S
C398 C396 1.391 . S
C398 C399 1.400 . S
C399 C398 1.400 . S
C399 C400 1.398 . S
C399 C405 1.491 . S
C400 H391 0.950 . S
C400 C399 1.398 . S
C400 C401 1.391 . S
C401 H389 0.950 . S
C401 C397 1.393 . S
C401 C400 1.391 . S
C402 H392 0.950 . S
C402 C403 1.386 . S
C402 C404 1.391 . S
C403 C402 1.386 . S
C403 C407 1.393 . S
C404 H393 0.950 . S
C404 C402 1.391 . S
C404 C405 1.400 . S
C405 C399 1.491 . S
C405 C404 1.400 . S
C405 C406 1.398 . S
C406 H394 0.950 . S
C406 C405 1.398 . S
C406 C407 1.391 . S
C407 H395 0.950 . S
C407 C403 1.393 . S
C407 C406 1.391 . S
H408 C416 0.950 . S
H409 C421 0.950 . S
H410 C418 0.950 1_554 S
H411 C420 0.950 . S
H412 C422 0.950 . S
H413 C424 0.950 1_556 S
H414 C426 0.950 . S
H415 C427 0.950 . S
C416 H408 0.950 . S
C416 C417 1.386 . S
C416 C418 1.391 . S
C417 C416 1.386 . S
C417 C421 1.393 . S
C418 H410 0.950 1_556 S
C418 C416 1.391 . S
C418 C419 1.400 . S
C419 C418 1.400 . S
C419 C420 1.398 . S
C419 C425 1.491 1_556 S
C420 H411 0.950 . S
C420 C419 1.398 . S
C420 C421 1.391 . S
C421 H409 0.950 . S
C421 C417 1.393 . S
C421 C420 1.391 . S
C422 H412 0.950 . S
C422 C423 1.386 . S
C422 C424 1.391 . S
C423 C422 1.386 . S
C423 C427 1.393 . S
C424 H413 0.950 1_554 S
C424 C422 1.391 . S
C424 C425 1.400 . S
C425 C419 1.491 1_554 S
C425 C424 1.400 . S
C425 C426 1.398 . S
C426 H414 0.950 . S
C426 C425 1.398 . S
C426 C427 1.391 . S
C427 H415 0.950 . S
C427 C423 1.393 . S
C427 C426 1.391 . S
H428 C436 0.950 . S
H429 C441 0.950 . S
H430 C438 0.950 . S
H431 C440 0.950 . S
H432 C442 0.950 . S
H433 C444 0.951 1_554 S
H434 C446 0.950 . S
H435 C447 0.950 . S
C436 H428 0.950 . S
C436 C437 1.386 . S
C436 C438 1.391 . S
C437 C436 1.386 . S
C437 C441 1.393 . S
C438 H430 0.950 . S
C438 C436 1.391 . S
C438 C439 1.400 . S
C439 C438 1.400 . S
C439 C440 1.398 . S
C439 C445 1.491 1_554 S
C440 H431 0.950 . S
C440 C439 1.398 . S
C440 C441 1.391 . S
C441 H429 0.950 . S
C441 C437 1.393 . S
C441 C440 1.391 . S
C442 H432 0.950 . S
C442 C443 1.386 . S
C442 C444 1.391 . S
C443 C442 1.386 . S
C443 C447 1.393 . S
C444 H433 0.951 1_556 S
C444 C442 1.391 . S
C444 C445 1.400 . S
C445 C439 1.491 1_556 S
C445 C444 1.400 . S
C445 C446 1.398 . S
C446 H434 0.950 . S
C446 C445 1.398 . S
C446 C447 1.391 . S
C447 H435 0.950 . S
C447 C443 1.393 . S
C447 C446 1.391 . S
H448 C456 0.950 . S
H449 C461 0.950 . S
H450 C458 0.950 . S
H451 C460 0.950 . S
H452 C462 0.950 . S
H453 C464 0.950 . S
H454 C466 0.950 . S
H455 C467 0.950 . S
C456 H448 0.950 . S
C456 C457 1.386 . S
C456 C458 1.391 . S
C457 C456 1.386 . S
C457 C461 1.393 . S
C458 H450 0.950 . S
C458 C456 1.391 . S
C458 C459 1.400 . S
C459 C458 1.400 . S
C459 C460 1.398 . S
C459 C465 1.491 . S
C460 H451 0.950 . S
C460 C459 1.398 . S
C460 C461 1.391 . S
C461 H449 0.950 . S
C461 C457 1.393 . S
C461 C460 1.391 . S
C462 H452 0.950 . S
C462 C463 1.386 . S
C462 C464 1.391 . S
C463 C462 1.386 . S
C463 C467 1.393 . S
C464 H453 0.950 . S
C464 C462 1.391 . S
C464 C465 1.400 . S
C465 C459 1.491 . S
C465 C464 1.400 . S
C465 C466 1.398 . S
C466 H454 0.950 . S
C466 C465 1.398 . S
C466 C467 1.391 . S
C467 H455 0.950 . S
C467 C463 1.393 . S
C467 C466 1.391 . S
H468 C476 0.950 . S
H469 C481 0.950 . S
H470 C478 0.950 . S
H471 C480 0.950 . S
H472 C482 0.950 . S
H473 C484 0.950 . S
H474 C486 0.950 . S
H475 C487 0.950 . S
C476 H468 0.950 . S
C476 C477 1.386 . S
C476 C478 1.391 . S
C477 C476 1.386 . S
C477 C481 1.393 . S
C478 H470 0.950 . S
C478 C476 1.391 . S
C478 C479 1.400 . S
C479 C478 1.400 . S
C479 C480 1.398 . S
C479 C485 1.491 . S
C480 H471 0.950 . S
C480 C479 1.398 . S
C480 C481 1.391 . S
C481 H469 0.950 . S
C481 C477 1.393 . S
C481 C480 1.391 . S
C482 H472 0.950 . S
C482 C483 1.386 . S
C482 C484 1.391 . S
C483 C482 1.386 . S
C483 C487 1.393 . S
C484 H473 0.950 . S
C484 C482 1.391 . S
C484 C485 1.400 . S
C485 C479 1.491 . S
C485 C484 1.400 . S
C485 C486 1.398 . S
C486 H474 0.950 . S
C486 C485 1.398 . S
C486 C487 1.391 . S
C487 H475 0.950 . S
C487 C483 1.393 . S
C487 C486 1.391 . S
H488 C496 0.950 . S
H489 C501 0.950 . S
H490 C498 0.950 . S
H491 C500 0.950 . S
H492 C502 0.950 . S
H493 C504 0.950 . S
H494 C506 0.950 . S
H495 C507 0.950 . S
C496 H488 0.950 . S
C496 C497 1.386 . S
C496 C498 1.391 . S
C497 C496 1.386 . S
C497 C501 1.393 . S
C498 H490 0.950 . S
C498 C496 1.391 . S
C498 C499 1.400 . S
C499 C498 1.400 . S
C499 C500 1.398 . S
C499 C505 1.491 1_655 S
C500 H491 0.950 . S
C500 C499 1.398 . S
C500 C501 1.391 . S
C501 H489 0.950 . S
C501 C497 1.393 . S
C501 C500 1.391 . S
C502 H492 0.950 . S
C502 C503 1.386 . S
C502 C504 1.391 . S
C503 C502 1.386 . S
C503 C507 1.393 . S
C504 H493 0.950 . S
C504 C502 1.391 . S
C504 C505 1.400 . S
C505 C499 1.491 1_455 S
C505 C504 1.400 . S
C505 C506 1.398 . S
C506 H494 0.950 . S
C506 C505 1.398 . S
C506 C507 1.391 . S
C507 H495 0.950 . S
C507 C503 1.393 . S
C507 C506 1.391 . S
H508 C516 0.950 . S
H509 C521 0.950 . S
H510 C518 0.950 1_455 S
H511 C520 0.950 . S
H512 C522 0.950 . S
H513 C524 0.950 1_655 S
H514 C526 0.950 . S
H515 C527 0.950 . S
C516 H508 0.950 . S
C516 C517 1.386 . S
C516 C518 1.391 . S
C517 C516 1.386 . S
C517 C521 1.393 . S
C518 H510 0.950 1_655 S
C518 C516 1.391 . S
C518 C519 1.400 . S
C519 C518 1.400 . S
C519 C520 1.398 . S
C519 C525 1.491 1_655 S
C520 H511 0.950 . S
C520 C519 1.398 . S
C520 C521 1.391 . S
C521 H509 0.950 . S
C521 C517 1.393 . S
C521 C520 1.391 . S
C522 H512 0.950 . S
C522 C523 1.386 . S
C522 C524 1.391 . S
C523 C522 1.386 . S
C523 C527 1.393 . S
C524 H513 0.950 1_455 S
C524 C522 1.391 . S
C524 C525 1.400 . S
C525 C519 1.491 1_455 S
C525 C524 1.400 . S
C525 C526 1.398 . S
C526 H514 0.950 . S
C526 C525 1.398 . S
C526 C527 1.391 . S
C527 H515 0.950 . S
C527 C523 1.393 . S
C527 C526 1.391 . S
H528 C536 0.950 . S
H529 C541 0.950 . S
H530 C538 0.950 . S
H531 C540 0.950 . S
H532 C542 0.950 . S
H533 C544 0.950 . S
H534 C546 0.950 . S
H535 C547 0.950 . S
C536 H528 0.950 . S
C536 C537 1.386 . S
C536 C538 1.391 . S
C537 C536 1.386 . S
C537 C541 1.393 . S
C538 H530 0.950 . S
C538 C536 1.391 . S
C538 C539 1.400 . S
C539 C538 1.400 . S
C539 C540 1.398 . S
C539 C545 1.491 . S
C540 H531 0.950 . S
C540 C539 1.398 . S
C540 C541 1.391 . S
C541 H529 0.950 . S
C541 C537 1.393 . S
C541 C540 1.391 . S
C542 H532 0.950 . S
C542 C543 1.386 . S
C542 C544 1.391 . S
C543 C542 1.386 . S
C543 C547 1.393 . S
C544 H533 0.950 . S
C544 C542 1.391 . S
C544 C545 1.400 . S
C545 C539 1.491 . S
C545 C544 1.400 . S
C545 C546 1.398 . S
C546 H534 0.950 . S
C546 C545 1.398 . S
C546 C547 1.391 . S
C547 H535 0.950 . S
C547 C543 1.393 . S
C547 C546 1.391 . S
H548 C556 0.950 . S
H549 C561 0.950 . S
H550 C558 0.950 . S
H551 C560 0.950 . S
H552 C562 0.950 . S
H553 C564 0.951 . S
H554 C566 0.950 . S
H555 C567 0.950 . S
C556 H548 0.950 . S
C556 C557 1.386 . S
C556 C558 1.391 . S
C557 C556 1.386 . S
C557 C561 1.393 . S
C558 H550 0.950 . S
C558 C556 1.391 . S
C558 C559 1.400 . S
C559 C558 1.400 . S
C559 C560 1.398 . S
C559 C565 1.491 1_545 S
C560 H551 0.950 . S
C560 C559 1.398 . S
C560 C561 1.391 . S
C561 H549 0.950 . S
C561 C557 1.393 . S
C561 C560 1.391 . S
C562 H552 0.950 . S
C562 C563 1.386 . S
C562 C564 1.391 . S
C563 C562 1.386 . S
C563 C567 1.393 . S
C564 H553 0.951 . S
C564 C562 1.391 . S
C564 C565 1.400 . S
C565 C559 1.491 1_565 S
C565 C564 1.400 . S
C565 C566 1.398 . S
C566 H554 0.950 . S
C566 C565 1.398 . S
C566 C567 1.391 . S
C567 H555 0.950 . S
C567 C563 1.393 . S
C567 C566 1.391 . S
H568 C576 0.950 . S
H569 C581 0.950 . S
H570 C578 0.950 . S
H571 C580 0.950 . S
H572 C582 0.950 . S
H573 C584 0.950 . S
H574 C586 0.950 . S
H575 C587 0.950 . S
C576 H568 0.950 . S
C576 C577 1.386 . S
C576 C578 1.391 . S
C577 C576 1.386 . S
C577 C581 1.393 . S
C578 H570 0.950 . S
C578 C576 1.391 . S
C578 C579 1.400 . S
C579 C578 1.400 . S
C579 C580 1.398 . S
C579 C585 1.491 . S
C580 H571 0.950 . S
C580 C579 1.398 . S
C580 C581 1.391 . S
C581 H569 0.950 . S
C581 C577 1.393 . S
C581 C580 1.391 . S
C582 H572 0.950 . S
C582 C583 1.386 . S
C582 C584 1.391 . S
C583 C582 1.386 . S
C583 C587 1.393 . S
C584 H573 0.950 . S
C584 C582 1.391 . S
C584 C585 1.400 . S
C585 C579 1.491 . S
C585 C584 1.400 . S
C585 C586 1.398 . S
C586 H574 0.950 . S
C586 C585 1.398 . S
C586 C587 1.391 . S
C587 H575 0.950 . S
C587 C583 1.393 . S
C587 C586 1.391 . S
H588 C596 0.950 . S
H589 C601 0.950 . S
H590 C598 0.950 1_556 S
H591 C600 0.950 . S
H592 C602 0.950 . S
H593 C604 0.950 1_554 S
H594 C606 0.950 . S
H595 C607 0.950 . S
C596 H588 0.950 . S
C596 C597 1.386 . S
C596 C598 1.391 . S
C597 C596 1.386 . S
C597 C601 1.393 . S
C598 H590 0.950 1_554 S
C598 C596 1.391 . S
C598 C599 1.400 . S
C599 C598 1.400 . S
C599 C600 1.398 . S
C599 C605 1.491 1_554 S
C600 H591 0.950 . S
C600 C599 1.398 . S
C600 C601 1.391 . S
C601 H589 0.950 . S
C601 C597 1.393 . S
C601 C600 1.391 . S
C602 H592 0.950 . S
C602 C603 1.386 . S
C602 C604 1.391 . S
C603 C602 1.386 . S
C603 C607 1.393 . S
C604 H593 0.950 1_556 S
C604 C602 1.391 . S
C604 C605 1.400 . S
C605 C599 1.491 1_556 S
C605 C604 1.400 . S
C605 C606 1.398 . S
C606 H594 0.950 . S
C606 C605 1.398 . S
C606 C607 1.391 . S
C607 H595 0.950 . S
C607 C603 1.393 . S
C607 C606 1.391 . S
H608 C616 0.950 . S
H609 C621 0.950 . S
H610 C618 0.950 . S
H611 C620 0.950 . S
H612 C622 0.950 . S
H613 C624 0.950 . S
H614 C626 0.950 . S
H615 C627 0.950 . S
C616 H608 0.950 . S
C616 C617 1.386 . S
C616 C618 1.391 . S
C617 C616 1.386 . S
C617 C621 1.393 . S
C618 H610 0.950 . S
C618 C616 1.391 . S
C618 C619 1.400 . S
C619 C618 1.400 . S
C619 C620 1.398 . S
C619 C625 1.491 1_556 S
C620 H611 0.950 . S
C620 C619 1.398 . S
C620 C621 1.391 . S
C621 H609 0.950 . S
C621 C617 1.393 . S
C621 C620 1.391 . S
C622 H612 0.950 . S
C622 C623 1.386 . S
C622 C624 1.391 . S
C623 C622 1.386 . S
C623 C627 1.393 . S
C624 H613 0.950 . S
C624 C622 1.391 . S
C624 C625 1.400 . S
C625 C619 1.491 1_554 S
C625 C624 1.400 . S
C625 C626 1.398 . S
C626 H614 0.950 . S
C626 C625 1.398 . S
C626 C627 1.391 . S
C627 H615 0.950 . S
C627 C623 1.393 . S
C627 C626 1.391 . S
H628 C636 0.950 . S
H629 C641 0.950 . S
H630 C638 0.950 . S
H631 C640 0.950 . S
H632 C642 0.950 . S
H633 C644 0.950 . S
H634 C646 0.950 . S
H635 C647 0.950 . S
C636 H628 0.950 . S
C636 C637 1.386 . S
C636 C638 1.391 . S
C637 C636 1.386 . S
C637 C641 1.393 . S
C638 H630 0.950 . S
C638 C636 1.391 . S
C638 C639 1.400 . S
C639 C638 1.400 . S
C639 C640 1.398 . S
C639 C645 1.491 . S
C640 H631 0.950 . S
C640 C639 1.398 . S
C640 C641 1.391 . S
C641 H629 0.950 . S
C641 C637 1.393 . S
C641 C640 1.391 . S
C642 H632 0.950 . S
C642 C643 1.386 . S
C642 C644 1.391 . S
C643 C642 1.386 . S
C643 C647 1.393 . S
C644 H633 0.950 . S
C644 C642 1.391 . S
C644 C645 1.400 . S
C645 C639 1.491 . S
C645 C644 1.400 . S
C645 C646 1.398 . S
C646 H634 0.950 . S
C646 C645 1.398 . S
C646 C647 1.391 . S
C647 H635 0.950 . S
C647 C643 1.393 . S
C647 C646 1.391 . S
H648 C656 0.950 . S
H649 C661 0.950 . S
H650 C658 0.950 . S
H651 C660 0.950 . S
H652 C662 0.950 . S
H653 C664 0.950 . S
H654 C666 0.950 . S
H655 C667 0.950 . S
C656 H648 0.950 . S
C656 C657 1.386 . S
C656 C658 1.391 . S
C657 C656 1.386 . S
C657 C661 1.393 . S
C658 H650 0.950 . S
C658 C656 1.391 . S
C658 C659 1.400 . S
C659 C658 1.400 . S
C659 C660 1.398 . S
C659 C665 1.491 . S
C660 H651 0.950 . S
C660 C659 1.398 . S
C660 C661 1.391 . S
C661 H649 0.950 . S
C661 C657 1.393 . S
C661 C660 1.391 . S
C662 H652 0.950 . S
C662 C663 1.386 . S
C662 C664 1.391 . S
C663 C662 1.386 . S
C663 C667 1.393 . S
C664 H653 0.950 . S
C664 C662 1.391 . S
C664 C665 1.400 . S
C665 C659 1.491 . S
C665 C664 1.400 . S
C665 C666 1.398 . S
C666 H654 0.950 . S
C666 C665 1.398 . S
C666 C667 1.391 . S
C667 H655 0.950 . S
C667 C663 1.393 . S
C667 C666 1.391 . S
H668 C676 0.950 . S
H669 C681 0.950 . S
H670 C678 0.950 1_655 S
H671 C680 0.950 . S
H672 C682 0.950 . S
H673 C684 0.950 1_455 S
H674 C686 0.950 . S
H675 C687 0.950 . S
C676 H668 0.950 . S
C676 C677 1.386 . S
C676 C678 1.391 . S
C677 C676 1.386 . S
C677 C681 1.393 . S
C678 H670 0.950 1_455 S
C678 C676 1.391 . S
C678 C679 1.400 . S
C679 C678 1.400 . S
C679 C680 1.398 . S
C679 C685 1.491 1_455 S
C680 H671 0.950 . S
C680 C679 1.398 . S
C680 C681 1.391 . S
C681 H669 0.950 . S
C681 C677 1.393 . S
C681 C680 1.391 . S
C682 H672 0.950 . S
C682 C683 1.386 . S
C682 C684 1.391 . S
C683 C682 1.386 . S
C683 C687 1.393 . S
C684 H673 0.950 1_655 S
C684 C682 1.391 . S
C684 C685 1.400 . S
C685 C679 1.491 1_655 S
C685 C684 1.400 . S
C685 C686 1.398 . S
C686 H674 0.950 . S
C686 C685 1.398 . S
C686 C687 1.391 . S
C687 H675 0.950 . S
C687 C683 1.393 . S
C687 C686 1.391 . S
H688 C696 0.950 . S
H689 C701 0.950 . S
H690 C698 0.950 . S
H691 C700 0.950 . S
H692 C702 0.950 . S
H693 C704 0.950 . S
H694 C706 0.950 . S
H695 C707 0.950 . S
C696 H688 0.950 . S
C696 C697 1.386 . S
C696 C698 1.391 . S
C697 C696 1.386 . S
C697 C701 1.393 . S
C698 H690 0.950 . S
C698 C696 1.391 . S
C698 C699 1.400 . S
C699 C698 1.400 . S
C699 C700 1.398 . S
C699 C705 1.491 1_455 S
C700 H691 0.950 . S
C700 C699 1.398 . S
C700 C701 1.391 . S
C701 H689 0.950 . S
C701 C697 1.393 . S
C701 C700 1.391 . S
C702 H692 0.950 . S
C702 C703 1.386 . S
C702 C704 1.391 . S
C703 C702 1.386 . S
C703 C707 1.393 . S
C704 H693 0.950 . S
C704 C702 1.391 . S
C704 C705 1.400 . S
C705 C699 1.491 1_655 S
C705 C704 1.400 . S
C705 C706 1.398 . S
C706 H694 0.950 . S
C706 C705 1.398 . S
C706 C707 1.391 . S
C707 H695 0.950 . S
C707 C703 1.393 . S
C707 C706 1.391 . S
H708 C716 0.950 . S
H709 C721 0.950 . S
H710 C718 0.950 . S
H711 C720 0.950 . S
H712 C722 0.950 . S
H713 C724 0.950 . S
H714 C726 0.950 . S
H715 C727 0.950 . S
C716 H708 0.950 . S
C716 C717 1.386 . S
C716 C718 1.391 . S
C717 C716 1.386 . S
C717 C721 1.393 . S
C718 H710 0.950 . S
C718 C716 1.391 . S
C718 C719 1.400 . S
C719 C718 1.400 . S
C719 C720 1.398 . S
C719 C725 1.491 . S
C720 H711 0.950 . S
C720 C719 1.398 . S
C720 C721 1.391 . S
C721 H709 0.950 . S
C721 C717 1.393 . S
C721 C720 1.391 . S
C722 H712 0.950 . S
C722 C723 1.386 . S
C722 C724 1.391 . S
C723 C722 1.386 . S
C723 C727 1.393 . S
C724 H713 0.950 . S
C724 C722 1.391 . S
C724 C725 1.400 . S
C725 C719 1.491 . S
C725 C724 1.400 . S
C725 C726 1.398 . S
C726 H714 0.950 . S
C726 C725 1.398 . S
C726 C727 1.391 . S
C727 H715 0.950 . S
C727 C723 1.393 . S
C727 C726 1.391 . S
H728 C736 0.950 . S
H729 C741 0.950 . S
H730 C738 0.950 . S
H731 C740 0.950 . S
H732 C742 0.950 . S
H733 C744 0.950 . S
H734 C746 0.950 . S
H735 C747 0.950 . S
C736 H728 0.950 . S
C736 C737 1.386 . S
C736 C738 1.391 . S
C737 C736 1.386 . S
C737 C741 1.393 . S
C738 H730 0.950 . S
C738 C736 1.391 . S
C738 C739 1.400 . S
C739 C738 1.400 . S
C739 C740 1.398 . S
C739 C745 1.491 . S
C740 H731 0.950 . S
C740 C739 1.398 . S
C740 C741 1.391 . S
C741 H729 0.950 . S
C741 C737 1.393 . S
C741 C740 1.391 . S
C742 H732 0.950 . S
C742 C743 1.386 . S
C742 C744 1.391 . S
C743 C742 1.386 . S
C743 C747 1.393 . S
C744 H733 0.950 . S
C744 C742 1.391 . S
C744 C745 1.400 . S
C745 C739 1.491 . S
C745 C744 1.400 . S
C745 C746 1.398 . S
C746 H734 0.950 . S
C746 C745 1.398 . S
C746 C747 1.391 . S
C747 H735 0.950 . S
C747 C743 1.393 . S
C747 C746 1.391 . S
H748 C756 0.950 . S
H749 C761 0.950 . S
H750 C758 0.934 1_565 S
H751 C760 0.950 . S
H752 C762 0.950 . S
H753 C764 0.950 . S
H754 C766 0.950 . S
H755 C767 0.950 . S
C756 H748 0.950 . S
C756 C757 1.386 . S
C756 C758 1.391 . S
C757 C756 1.386 . S
C757 C761 1.393 . S
C758 H750 0.934 1_545 S
C758 C756 1.391 . S
C758 C759 1.400 . S
C759 C758 1.400 . S
C759 C760 1.398 . S
C759 C765 1.491 1_545 S
C760 H751 0.950 . S
C760 C759 1.398 . S
C760 C761 1.391 . S
C761 H749 0.950 . S
C761 C757 1.393 . S
C761 C760 1.391 . S
C762 H752 0.950 . S
C762 C763 1.386 . S
C762 C764 1.391 . S
C763 C762 1.386 . S
C763 C767 1.393 . S
C764 H753 0.950 . S
C764 C762 1.391 . S
C764 C765 1.400 . S
C765 C759 1.491 1_565 S
C765 C764 1.400 . S
C765 C766 1.398 . S
C766 H754 0.950 . S
C766 C765 1.398 . S
C766 C767 1.391 . S
C767 H755 0.950 . S
C767 C763 1.393 . S
C767 C766 1.391 . S
H768 C776 0.950 . S
H769 C781 0.950 . S
H770 C778 0.950 . S
H771 C780 0.950 . S
H772 C782 0.950 . S
H773 C784 0.950 . S
H774 C786 0.950 . S
H775 C787 0.950 . S
C776 H768 0.950 . S
C776 C777 1.386 . S
C776 C778 1.391 . S
C777 C776 1.386 . S
C777 C781 1.393 . S
C778 H770 0.950 . S
C778 C776 1.391 . S
C778 C779 1.400 . S
C779 C778 1.400 . S
C779 C780 1.398 . S
C779 C785 1.491 . S
C780 H771 0.950 . S
C780 C779 1.398 . S
C780 C781 1.391 . S
C781 H769 0.950 . S
C781 C777 1.393 . S
C781 C780 1.391 . S
C782 H772 0.950 . S
C782 C783 1.386 . S
C782 C784 1.391 . S
C783 C782 1.386 . S
C783 C787 1.393 . S
C784 H773 0.950 . S
C784 C782 1.391 . S
C784 C785 1.400 . S
C785 C779 1.491 . S
C785 C784 1.400 . S
C785 C786 1.398 . S
C786 H774 0.950 . S
C786 C785 1.398 . S
C786 C787 1.391 . S
C787 H775 0.950 . S
C787 C783 1.393 . S
C787 C786 1.391 . S
H788 C796 0.950 . S
H789 C801 0.950 . S
H790 C798 0.950 . S
H791 C800 0.950 . S
H792 C802 0.950 . S
H793 C804 0.950 . S
H794 C806 0.950 . S
H795 C807 0.950 . S
C796 H788 0.950 . S
C796 C797 1.386 . S
C796 C798 1.391 . S
C797 C796 1.386 . S
C797 C801 1.393 . S
C798 H790 0.950 . S
C798 C796 1.391 . S
C798 C799 1.400 . S
C799 C798 1.400 . S
C799 C800 1.398 . S
C799 C805 1.491 . S
C800 H791 0.950 . S
C800 C799 1.398 . S
C800 C801 1.391 . S
C801 H789 0.950 . S
C801 C797 1.393 . S
C801 C800 1.391 . S
C802 H792 0.950 . S
C802 C803 1.386 . S
C802 C804 1.391 . S
C803 C802 1.386 . S
C803 C807 1.393 . S
C804 H793 0.950 . S
C804 C802 1.391 . S
C804 C805 1.400 . S
C805 C799 1.491 . S
C805 C804 1.400 . S
C805 C806 1.398 . S
C806 H794 0.950 . S
C806 C805 1.398 . S
C806 C807 1.391 . S
C807 H795 0.950 . S
C807 C803 1.393 . S
C807 C806 1.391 . S
H808 C816 0.950 . S
H809 C821 0.950 . S
H810 C818 0.950 . S
H811 C820 0.950 1_565 S
H812 C822 0.950 . S
H813 C824 0.950 . S
H814 C826 0.950 . S
H815 C827 0.950 . S
C816 H808 0.950 . S
C816 C817 1.386 . S
C816 C818 1.391 . S
C817 C816 1.386 . S
C817 C821 1.393 . S
C818 H810 0.950 . S
C818 C816 1.391 . S
C818 C819 1.400 . S
C819 C818 1.400 . S
C819 C820 1.398 . S
C819 C825 1.491 1_545 S
C820 H811 0.950 1_545 S
C820 C819 1.398 . S
C820 C821 1.391 . S
C821 H809 0.950 . S
C821 C817 1.393 . S
C821 C820 1.391 . S
C822 H812 0.950 . S
C822 C823 1.386 . S
C822 C824 1.391 . S
C823 C822 1.386 . S
C823 C827 1.393 . S
C824 H813 0.950 . S
C824 C822 1.391 . S
C824 C825 1.400 . S
C825 C819 1.491 1_565 S
C825 C824 1.400 . S
C825 C826 1.398 . S
C826 H814 0.950 . S
C826 C825 1.398 . S
C826 C827 1.391 . S
C827 H815 0.950 . S
C827 C823 1.393 . S
C827 C826 1.391 . S
H828 C836 0.950 . S
H829 C841 0.950 . S
H830 C838 0.950 . S
H831 C840 0.950 . S
H832 C842 0.950 . S
H833 C844 0.950 . S
H834 C846 0.950 . S
H835 C847 0.950 . S
C836 H828 0.950 . S
C836 C837 1.386 . S
C836 C838 1.391 . S
C837 C836 1.386 . S
C837 C841 1.393 . S
C838 H830 0.950 . S
C838 C836 1.391 . S
C838 C839 1.400 . S
C839 C838 1.400 . S
C839 C840 1.398 . S
C839 C845 1.491 . S
C840 H831 0.950 . S
C840 C839 1.398 . S
C840 C841 1.391 . S
C841 H829 0.950 . S
C841 C837 1.393 . S
C841 C840 1.391 . S
C842 H832 0.950 . S
C842 C843 1.386 . S
C842 C844 1.391 . S
C843 C842 1.386 . S
C843 C847 1.393 . S
C844 H833 0.950 . S
C844 C842 1.391 . S
C844 C845 1.400 . S
C845 C839 1.491 . S
C845 C844 1.400 . S
C845 C846 1.398 . S
C846 H834 0.950 . S
C846 C845 1.398 . S
C846 C847 1.391 . S
C847 H835 0.950 . S
C847 C843 1.393 . S
C847 C846 1.391 . S
C217 C8 0.999 . S
C223 C177 1.030 . S
C237 C21 1.005 . S
C243 C125 1.030 . S
C257 C190 1.071 . S
C263 C34 1.048 . S
C277 C47 1.067 . S
C283 C203 1.056 . S
C297 C60 1.006 . S
C303 C86 1.015 . S
C317 C138 1.004 . S
C323 C73 1.017 . S
C337 C151 1.056 . S
C343 C99 1.067 . S
C357 C112 1.059 . S
C363 C164 1.058 . S
C377 C26 1.542 . S
C383 C5 1.547 . S
C397 C18 1.553 . S
C403 C39 1.551 . S
C417 C161 1.572 . S
C423 C10 1.557 . S
C437 C23 1.557 . S
C443 C148 1.584 . S
C457 C62 1.545 . S
C463 C31 1.583 . S
C477 C140 1.559 . S
C483 C44 1.583 . S
C497 C13 1.535 . S
C503 C0 1.528 . S
C517 C49 1.502 . S
C523 C36 1.514 . S
C537 C130 1.527 . S
C543 C52 1.541 . S
C557 C96 1.604 . S
C563 C65 1.608 . S
C577 C78 1.606 . S
C583 C109 1.594 . S
C597 C195 1.556 . S
C603 C75 1.516 . S
C617 C88 1.529 . S
C623 C182 1.549 . S
C637 C127 1.513 . S
C643 C91 1.557 . S
C657 C104 1.549 . S
C663 C179 1.529 . S
C677 C83 1.586 . S
C683 C70 1.593 . S
C697 C114 1.444 . S
C703 C101 1.436 . S
C717 C122 1.597 . S
C723 C174 1.590 . S
C737 C135 1.560 . S
C743 C143 1.551 . S
C757 C156 1.557 . S
C763 C57 1.561 . S
C777 C166 1.500 . S
C783 C153 1.505 . S
C797 C187 1.589 . S
C803 C169 1.612 . S
C817 C117 1.606 . S
C823 C200 1.601 . S
C837 C205 1.448 . S
C843 C192 1.437 . S
