# Generated by pormake.
# Topology vby, (6)-cn, num edge types: 1
# Building blocks:
#     Node 0, Type 0, BuildingBlock: BETDAH_clean_sbu_0, # of connection points: 6
#     Node 1, Type 0, BuildingBlock: BETDAH_clean_sbu_0, # of connection points: 6
#     Node 2, Type 0, BuildingBlock: BETDAH_clean_sbu_0, # of connection points: 6
#     Node 3, Type 0, BuildingBlock: BETDAH_clean_sbu_0, # of connection points: 6
#     Node 4, Type 0, BuildingBlock: BETDAH_clean_sbu_0, # of connection points: 6
#     Node 5, Type 0, BuildingBlock: BETDAH_clean_sbu_0, # of connection points: 6
#     Node 6, Type 0, BuildingBlock: BETDAH_clean_sbu_0, # of connection points: 6
#     Node 7, Type 0, BuildingBlock: BETDAH_clean_sbu_0, # of connection points: 6
#     Edge 8, Type (0, 0), BuildingBlock: CIFDUS_clean_linker_0, # of connection points: 2
#     Edge 9, Type (0, 0), BuildingBlock: CIFDUS_clean_linker_0, # of connection points: 2
#     Edge 10, Type (0, 0), BuildingBlock: CIFDUS_clean_linker_0, # of connection points: 2
#     Edge 11, Type (0, 0), BuildingBlock: CIFDUS_clean_linker_0, # of connection points: 2
#     Edge 12, Type (0, 0), BuildingBlock: CIFDUS_clean_linker_0, # of connection points: 2
#     Edge 13, Type (0, 0), BuildingBlock: CIFDUS_clean_linker_0, # of connection points: 2
#     Edge 14, Type (0, 0), BuildingBlock: CIFDUS_clean_linker_0, # of connection points: 2
#     Edge 15, Type (0, 0), BuildingBlock: CIFDUS_clean_linker_0, # of connection points: 2
#     Edge 16, Type (0, 0), BuildingBlock: CIFDUS_clean_linker_0, # of connection points: 2
#     Edge 17, Type (0, 0), BuildingBlock: CIFDUS_clean_linker_0, # of connection points: 2
#     Edge 18, Type (0, 0), BuildingBlock: CIFDUS_clean_linker_0, # of connection points: 2
#     Edge 19, Type (0, 0), BuildingBlock: CIFDUS_clean_linker_0, # of connection points: 2
#     Edge 20, Type (0, 0), BuildingBlock: CIFDUS_clean_linker_0, # of connection points: 2
#     Edge 21, Type (0, 0), BuildingBlock: CIFDUS_clean_linker_0, # of connection points: 2
#     Edge 22, Type (0, 0), BuildingBlock: CIFDUS_clean_linker_0, # of connection points: 2
#     Edge 23, Type (0, 0), BuildingBlock: CIFDUS_clean_linker_0, # of connection points: 2
#     Edge 24, Type (0, 0), BuildingBlock: CIFDUS_clean_linker_0, # of connection points: 2
#     Edge 25, Type (0, 0), BuildingBlock: CIFDUS_clean_linker_0, # of connection points: 2
#     Edge 26, Type (0, 0), BuildingBlock: CIFDUS_clean_linker_0, # of connection points: 2
#     Edge 27, Type (0, 0), BuildingBlock: CIFDUS_clean_linker_0, # of connection points: 2
#     Edge 28, Type (0, 0), BuildingBlock: CIFDUS_clean_linker_0, # of connection points: 2
#     Edge 29, Type (0, 0), BuildingBlock: CIFDUS_clean_linker_0, # of connection points: 2
#     Edge 30, Type (0, 0), BuildingBlock: CIFDUS_clean_linker_0, # of connection points: 2
#     Edge 31, Type (0, 0), BuildingBlock: CIFDUS_clean_linker_0, # of connection points: 2
# Relax obj value: 0.205
# Max RMSD: 0.222
# Mean RMSD: 0.222
data_MOF--net-vby--node1-BETDAH_clean_sbu_0--edge1-CIFDUS_clean_linker_0
_symmetry_space_group_name_H-M    P1
_symmetry_Int_Tables_number       1
_symmetry_cell_setting            triclinic
loop_
_symmetry_equiv_pos_as_xyz
'x, y, z'
_cell_length_a     13.650643
_cell_length_b     95.844411
_cell_length_c     25.516498
_cell_angle_alpha  89.81935
_cell_angle_beta   84.841768
_cell_angle_gamma 89.960424
loop_
_atom_site_label
_atom_site_type_symbol
_atom_site_fract_x
_atom_site_fract_y
_atom_site_fract_z
_atom_type_partial_charge
Ho0 Ho 0.0739 0.40713 0.0178 0.0
Ho1 Ho 0.04546 0.37613 0.02157 0.0
C2 C 0.85348 0.39419 0.02185 0.0
C3 C 0.07527 0.43399 0.00665 0.0
C4 C 0.07723 0.4495 1.00342 0.0
C5 C 0.06448 0.45658 0.95621 0.0
C6 C 0.06501 0.47125 0.95428 0.0
C7 C 0.07897 0.4792 0.99949 0.0
C8 C 0.09303 0.47201 0.04643 0.0
C9 C 0.09174 0.45741 0.0484 0.0
C10 C 0.06933 0.39535 0.11481 0.0
C11 C 0.26842 0.38928 0.0138 0.0
C12 C 0.0423 0.34955 0.04305 0.0
C13 C 0.10038 0.33645 0.03845 0.0
C14 C 0.08797 0.32656 0.07918 0.0
C15 C 0.13325 0.31344 0.07409 0.0
C16 C 0.19221 0.30985 0.02798 0.0
C17 C 0.20653 0.31995 0.98765 0.0
C18 C 0.16106 0.33309 0.99279 0.0
C19 C 0.04463 0.38742 0.92434 0.0
O20 O 0.91283 0.40446 0.00439 0.0
O21 O 0.88906 0.38259 0.04074 0.0
O22 O 0.06285 0.42766 0.05206 0.0
O23 O 0.08577 0.4256 0.9661 0.0
O24 O 0.13203 0.40474 0.09717 0.0
O25 O 1.01256 0.39257 0.08001 0.0
O26 O 0.21032 0.37842 0.02591 0.0
O27 O 0.23226 0.40155 1.002 0.0
O28 O 1.01416 0.35494 0.99976 0.0
O29 O 0.06788 0.35907 0.07582 0.0
O30 O 0.98848 0.37729 0.94211 0.0
O31 O 0.10321 0.39066 0.95798 0.0
H32 H 0.05292 0.45079 0.9209 0.0
H33 H 0.05285 0.47634 0.9175 0.0
H34 H 0.1063 0.47764 0.08182 0.0
H35 H 0.10283 0.4523 0.08533 0.0
H36 H 0.04131 0.32887 0.11471 0.0
H37 H 0.12181 0.3061 0.10639 0.0
H38 H 0.25067 0.31757 0.95138 0.0
H39 H 0.17159 0.34049 0.96061 0.0
Ho40 Ho 1.02247 0.66386 0.02253 0.0
Ho41 Ho 0.99137 0.63287 0.03192 0.0
C42 C 0.80007 0.65132 0.03189 0.0
C43 C 1.02755 0.69034 0.99892 0.0
C44 C 0.97334 0.70385 0.00504 0.0
C45 C 0.89412 0.70706 0.97541 0.0
C46 C 0.85286 0.72051 0.97679 0.0
C47 C 0.88995 0.73115 0.00758 0.0
C48 C 0.96749 0.72778 0.0382 0.0
C49 C 1.00865 0.71436 0.0368 0.0
C50 C 1.01518 0.65365 0.12178 0.0
C51 C 0.21439 0.64552 0.02438 0.0
C52 C 0.97955 0.60649 0.05643 0.0
C53 C 1.01577 0.59195 0.04749 0.0
C54 C 0.04883 0.58444 0.08982 0.0
C55 C 0.06336 0.56998 0.08652 0.0
C56 C 0.04469 0.56259 0.04082 0.0
C57 C 1.0172 0.57024 0.99726 0.0
C58 C 1.00249 0.58474 1.00061 0.0
C59 C 1.00748 0.64297 0.93171 0.0
O60 O 0.85919 0.66151 0.0135 0.0
O61 O 0.83614 0.6399 0.05179 0.0
O62 O 0.06223 0.68507 0.04072 0.0
O63 O 0.99563 0.68072 0.96838 0.0
O64 O 0.07285 0.66358 0.10386 0.0
O65 O 0.95916 0.65011 0.08749 0.0
O66 O 0.15497 0.63518 0.04144 0.0
O67 O 0.17891 0.65709 0.00503 0.0
O68 O 0.93205 0.61237 0.02006 0.0
O69 O 1.03238 0.6154 0.0806 0.0
O70 O 0.94959 0.63294 0.94839 0.0
O71 O 0.05856 0.64651 0.96795 0.0
H72 H 0.86534 0.69928 0.95018 0.0
H73 H 0.79237 0.7226 0.95321 0.0
H74 H 0.99931 0.73566 0.0618 0.0
H75 H 0.07066 0.71234 0.05942 0.0
H76 H 0.05888 0.58964 0.12659 0.0
H77 H 0.0863 0.5645 0.12054 0.0
H78 H 1.00168 0.56493 0.96153 0.0
H79 H 0.97617 0.59015 0.9673 0.0
Ho80 Ho 0.05689 0.66263 0.52528 0.0
Ho81 Ho 0.05159 0.6314 0.52403 0.0
C82 C 0.26385 0.64504 0.51412 0.0
C83 C 0.07507 0.68892 0.54704 0.0
C84 C 0.13309 0.70187 0.53792 0.0
C85 C 0.13103 0.71174 0.57847 0.0
C86 C 0.17228 0.72499 0.56945 0.0
C87 C 0.21693 0.72872 0.51948 0.0
C88 C 0.22238 0.71856 0.47938 0.0
C89 C 0.18065 0.70529 0.48845 0.0
C90 C 0.03979 0.65163 0.42899 0.0
C91 C 0.84833 0.64862 0.53027 0.0
C92 C 1.0298 0.60468 0.51744 0.0
C93 C 1.01599 0.58929 0.51695 0.0
C94 C 1.03732 0.58139 0.47095 0.0
C95 C 1.03006 0.56675 0.47237 0.0
C96 C 1.00112 0.5597 0.51983 0.0
C97 C 0.97976 0.5677 0.5656 0.0
C98 C 0.98692 0.58224 0.56416 0.0
C99 C 0.06536 0.64337 0.61967 0.0
O100 O 0.21936 0.65712 0.5257 0.0
O101 O 0.21342 0.63366 0.50562 0.0
O102 O 1.0286 0.68424 0.50812 0.0
O103 O 0.11054 0.67892 0.57477 0.0
O104 O 0.9983 0.66308 0.44601 0.0
O105 O 0.09459 0.64701 0.46238 0.0
O106 O 0.89499 0.63749 0.50987 0.0
O107 O 0.89803 0.65882 0.55023 0.0
O108 O 1.00748 0.61183 0.56029 0.0
O109 O 0.0607 0.61225 0.47641 0.0
O110 O 0.11689 0.63276 0.6022 0.0
O111 O 1.01032 0.64712 0.58534 0.0
H112 H 0.09383 0.70939 0.6168 0.0
H113 H 0.16521 0.7325 0.60116 0.0
H114 H 0.25757 0.72093 0.44065 0.0
H115 H 0.18311 0.69786 0.45646 0.0
H116 H 0.0606 0.58651 0.43401 0.0
H117 H 0.04642 0.56096 0.43627 0.0
H118 H 0.95918 0.5627 0.60311 0.0
H119 H 0.9711 0.58794 0.60053 0.0
Ho120 Ho 1.00035 0.40643 0.52803 0.0
Ho121 Ho 1.03315 0.37558 0.51611 0.0
C122 C 0.22399 0.394 0.51933 0.0
C123 C 0.986 0.43251 0.55545 0.0
C124 C 1.01853 0.44706 0.5449 0.0
C125 C 1.0119 0.45652 0.58689 0.0
C126 C 1.02488 0.47083 0.57779 0.0
C127 C 0.04512 0.47604 0.52637 0.0
C128 C 0.05668 0.46648 0.48444 0.0
C129 C 0.04291 0.45211 0.49357 0.0
C130 C 1.01632 0.39716 0.42699 0.0
C131 C 0.80988 0.38785 0.52737 0.0
C132 C 0.04064 0.34942 0.48895 0.0
C133 C 0.98762 0.33597 0.49576 0.0
C134 C 1.00148 0.32588 0.45605 0.0
C135 C 0.96268 0.31242 0.46369 0.0
C136 C 0.90913 0.3087 0.51142 0.0
C137 C 0.89239 0.31903 0.5505 0.0
C138 C 0.93123 0.33252 0.54277 0.0
C139 C 1.02588 0.38506 0.61629 0.0
O140 O 0.16406 0.40414 0.53769 0.0
O141 O 0.1889 0.38264 0.49855 0.0
O142 O 0.93418 0.42669 0.52098 0.0
O143 O 0.04562 0.42374 0.57579 0.0
O144 O 0.95891 0.40714 0.44437 0.0
O145 O 0.06754 0.39328 0.46282 0.0
O146 O 0.86931 0.37783 0.50795 0.0
O147 O 0.84582 0.39911 0.5482 0.0
O148 O 0.07847 0.35441 0.5302 0.0
O149 O 1.00285 0.35916 0.46093 0.0
O150 O 0.08333 0.37519 0.59768 0.0
O151 O 0.96969 0.38877 0.58226 0.0
H152 H 0.9926 0.45289 0.62675 0.0
H153 H 1.0171 0.47786 0.61105 0.0
H154 H 0.07202 0.47015 0.44436 0.0
H155 H 0.04769 0.44503 0.46043 0.0
H156 H 0.04534 0.32828 0.41962 0.0
H157 H 0.97815 0.30478 0.43291 0.0
H158 H 0.8502 0.31664 0.58742 0.0
H159 H 0.91933 0.34012 0.57402 0.0
Ho160 Ho 0.60992 0.90812 1.00397 0.0
Ho161 Ho 0.57824 0.87843 0.02406 0.0
C162 C 0.38573 0.89639 0.02431 0.0
C163 C 0.61578 0.93401 0.97196 0.0
C164 C 0.57392 0.9482 0.98107 0.0
C165 C 0.55859 0.95657 0.93738 0.0
C166 C 0.53255 0.97064 0.94366 0.0
C167 C 0.52099 0.97677 0.99397 0.0
C168 C 0.53377 0.96824 0.03797 0.0
C169 C 0.55998 0.95411 0.03161 0.0
C170 C 0.61842 0.90133 0.10736 0.0
C171 C 0.80194 0.89001 0.00413 0.0
C172 C 0.57629 0.85227 0.05322 0.0
C173 C 0.62885 0.83864 0.04591 0.0
C174 C 0.70831 0.8352 0.07501 0.0
C175 C 0.74812 0.82167 0.07318 0.0
C176 C 0.70926 0.81115 0.04248 0.0
C177 C 0.63165 0.81475 0.01224 0.0
C178 C 0.59187 0.82826 0.0141 0.0
C179 C 0.57099 0.88589 0.92096 0.0
O180 O 0.44456 0.90616 1.00242 0.0
O181 O 0.42268 0.88522 0.04562 0.0
O182 O 0.66907 0.92896 0.00741 0.0
O183 O 0.56195 0.92445 0.95209 0.0
O184 O 0.67295 0.9103 0.08077 0.0
O185 O 0.55561 0.89649 0.07834 0.0
O186 O 0.74307 0.88039 0.02679 0.0
O187 O 0.76481 0.901 0.98172 0.0
O188 O 0.53159 0.85706 0.01388 0.0
O189 O 0.6163 0.86225 0.07881 0.0
O190 O 0.5135 0.87701 0.94623 0.0
O191 O 0.63377 0.89012 0.95083 0.0
H192 H 0.5702 0.95234 0.89798 0.0
H193 H 0.52502 0.97683 0.9087 0.0
H194 H 0.52426 0.97249 0.07736 0.0
H195 H 0.57166 0.94793 0.0661 0.0
H196 H 0.73828 0.84284 0.10034 0.0
H197 H 0.80878 0.8194 0.09645 0.0
H198 H 0.59864 0.80697 0.98868 0.0
H199 H 0.52961 0.83044 0.99187 0.0
Ho200 Ho 0.50568 0.16269 0.02159 0.0
Ho201 Ho 0.4776 0.13192 0.02464 0.0
C202 C 0.28218 0.14964 0.03172 0.0
C203 C 0.50795 0.18933 1.00081 0.0
C204 C 0.45008 0.20244 0.00559 0.0
C205 C 0.46238 0.21234 0.96487 0.0
C206 C 0.41728 0.22546 0.97005 0.0
C207 C 0.35862 0.22906 0.01625 0.0
C208 C 0.34444 0.21896 0.05659 0.0
C209 C 0.38975 0.20581 0.05136 0.0
C210 C 0.51217 0.15137 0.11896 0.0
C211 C 0.69754 0.14483 0.01952 0.0
C212 C 0.48143 0.10503 0.03379 0.0
C213 C 0.48389 0.08951 0.03634 0.0
C214 C 0.47768 0.08238 0.08475 0.0
C215 C 0.48281 0.06773 0.08636 0.0
C216 C 0.49329 0.05987 0.03957 0.0
C217 C 0.49828 0.06706 0.99126 0.0
C218 C 0.49399 0.08166 0.98968 0.0
C219 C 0.46859 0.14389 0.92871 0.0
O220 O 0.34001 0.16057 0.02049 0.0
O221 O 0.3188 0.13725 0.04146 0.0
O222 O 0.53627 0.18388 0.04391 0.0
O223 O 0.48223 0.17986 0.96794 0.0
O224 O 0.56769 0.16144 0.10002 0.0
O225 O 0.45194 0.14809 0.08614 0.0
O226 O 0.63812 0.13476 0.03846 0.0
O227 O 0.66164 0.15634 1.00025 0.0
O228 O 0.50778 0.11168 0.9901 0.0
O229 O 0.4533 0.11313 0.07362 0.0
O230 O 0.40865 0.13442 0.94848 0.0
O231 O 0.53157 0.14659 0.96061 0.0
H232 H 0.50878 0.21002 0.92926 0.0
H233 H 0.42861 0.23281 0.93775 0.0
H234 H 0.30052 0.22134 0.09292 0.0
H235 H 0.37934 0.1984 0.08354 0.0
H236 H 0.46983 0.08811 0.12139 0.0
H237 H 0.47796 0.06255 0.12429 0.0
H238 H 0.50767 0.06141 0.95445 0.0
H239 H 0.49893 0.0868 0.95167 0.0
Ho240 Ho 0.56213 0.16258 0.52583 0.0
Ho241 Ho 0.55813 0.13169 0.52348 0.0
C242 C 0.7703 0.14532 0.51129 0.0
C243 C 0.5802 0.18892 0.54756 0.0
C244 C 0.63577 0.20209 0.53841 0.0
C245 C 0.62816 0.21222 0.57809 0.0
C246 C 0.66826 0.22554 0.56908 0.0
C247 C 0.71757 0.22909 0.52001 0.0
C248 C 0.72799 0.2187 0.48074 0.0
C249 C 0.68721 0.20535 0.48978 0.0
C250 C 0.54093 0.15191 0.42867 0.0
C251 C 0.35434 0.14868 0.53264 0.0
C252 C 0.53084 0.10507 0.51705 0.0
C253 C 0.51324 0.08975 0.51599 0.0
C254 C 0.54275 0.08169 0.47137 0.0
C255 C 0.53057 0.06712 0.47231 0.0
C256 C 0.4884 0.06028 0.51788 0.0
C257 C 0.45839 0.06844 0.56222 0.0
C258 C 0.47054 0.08293 0.56126 0.0
C259 C 0.58512 0.143 0.61866 0.0
O260 O 0.72541 0.15731 0.52378 0.0
O261 O 0.71982 0.13392 0.50279 0.0
O262 O 0.53213 0.18422 0.50933 0.0
O263 O 0.61849 0.17893 0.57415 0.0
O264 O 0.4986 0.16313 0.44736 0.0
O265 O 0.59751 0.14728 0.46117 0.0
O266 O 0.40144 0.13787 0.51022 0.0
O267 O 0.4043 0.15872 0.5533 0.0
O268 O 0.50404 0.11242 0.55887 0.0
O269 O 0.57071 0.11237 0.47721 0.0
O270 O 0.63422 0.13254 0.59805 0.0
O271 O 0.52352 0.14705 0.58783 0.0
H272 H 0.58784 0.20999 0.61573 0.0
H273 H 0.65701 0.23321 0.60009 0.0
H274 H 0.76673 0.22092 0.44274 0.0
H275 H 0.69385 0.19772 0.45846 0.0
H276 H 0.57619 0.08662 0.43592 0.0
H277 H 0.55376 0.06122 0.43724 0.0
H278 H 0.42732 0.0636 0.59836 0.0
H279 H 0.44765 0.08876 0.59654 0.0
Ho280 Ho 0.54069 0.90775 0.52842 0.0
Ho281 Ho 0.52153 0.87518 0.51178 0.0
C282 C 0.73701 0.88951 0.51378 0.0
C283 C 0.54818 0.93279 0.56625 0.0
C284 C 0.53224 0.94753 0.55138 0.0
C285 C 0.49658 0.95706 0.5902 0.0
C286 C 0.49192 0.97135 0.57886 0.0
C287 C 0.5234 0.97649 0.52837 0.0
C288 C 0.55605 0.96684 0.48902 0.0
C289 C 0.56025 0.95253 0.50035 0.0
C290 C 0.54132 0.90147 0.42312 0.0
C291 C 0.32526 0.89343 0.52015 0.0
C292 C 0.53292 0.84927 0.48285 0.0
C293 C 0.48477 0.83554 0.49182 0.0
C294 C 0.49374 0.82561 0.45144 0.0
C295 C 0.45752 0.81205 0.46004 0.0
C296 C 0.41144 0.80809 0.50942 0.0
C297 C 0.40018 0.81823 0.54948 0.0
C298 C 0.43646 0.83182 0.54078 0.0
C299 C 0.49008 0.88423 0.61325 0.0
O300 O 0.69492 0.90057 0.53699 0.0
O301 O 0.68439 0.87949 0.49404 0.0
O302 O 0.47081 0.92471 0.57455 0.0
O303 O 0.62315 0.92641 0.54117 0.0
O304 O 0.55209 0.91394 0.44116 0.0
O305 O 0.53283 0.89355 0.46239 0.0
O306 O 0.36764 0.88194 0.50018 0.0
O307 O 0.37651 0.90368 0.53972 0.0
O308 O 0.57803 0.8544 0.52166 0.0
O309 O 0.486 0.8588 0.45793 0.0
O310 O 0.44453 0.87391 0.59326 0.0
O311 O 0.55417 0.88892 0.57873 0.0
H312 H 0.47519 0.95348 0.62991 0.0
H313 H 0.46733 0.97844 0.61031 0.0
H314 H 0.57953 0.97038 0.44954 0.0
H315 H 0.58782 0.94542 0.46955 0.0
H316 H 0.53132 0.82824 0.41347 0.0
H317 H 0.46874 0.80455 0.42845 0.0
H318 H 0.36382 0.81564 0.58774 0.0
H319 H 0.42845 0.83931 0.57256 0.0
H320 H 0.40943 0.40932 0.99509 0.0
H321 H 0.3714 0.36584 0.03688 0.0
H322 H 0.54789 0.36361 0.0439 0.0
H323 H 0.71311 0.37402 0.03919 0.0
H324 H 0.75109 0.41744 0.99664 0.0
H325 H 0.57468 0.41964 0.98923 0.0
C326 C 0.43954 0.39932 0.00551 0.0
C327 C 0.37662 0.38777 0.01541 0.0
C328 C 0.5413 0.39811 0.00969 0.0
C329 C 0.41759 0.37492 0.02895 0.0
C330 C 0.51872 0.37363 0.03312 0.0
C331 C 0.6829 0.384 0.02851 0.0
C332 C 0.74566 0.39557 0.01874 0.0
C333 C 0.58123 0.38517 0.02387 0.0
C334 C 0.70489 0.40836 0.00449 0.0
C335 C 0.60383 0.40963 1.00016 0.0
H336 H 0.35545 0.66529 1.00041 0.0
H337 H 0.31716 0.62291 0.05633 0.0
H338 H 0.4936 0.62111 0.06474 0.0
H339 H 0.65906 0.63154 0.05645 0.0
H340 H 0.69705 0.67392 1.00044 0.0
H341 H 0.52062 0.67573 0.99226 0.0
C342 C 0.3855 0.65562 0.01423 0.0
C343 C 0.32252 0.64424 0.02752 0.0
C344 C 0.48721 0.65467 0.01931 0.0
C345 C 0.36339 0.63184 0.04565 0.0
C346 C 0.46449 0.63081 0.0506 0.0
C347 C 0.62888 0.64122 0.04272 0.0
C348 C 0.69182 0.6526 0.02927 0.0
C349 C 0.52711 0.64217 0.03771 0.0
C350 C 0.65086 0.66499 0.01121 0.0
C351 C 0.54976 0.66603 0.00639 0.0
H352 H 0.71798 0.63003 0.4938 0.0
H353 H 0.73329 0.67038 0.56733 0.0
H354 H 0.55596 0.67311 0.56714 0.0
H355 H 0.3949 0.66402 0.54712 0.0
H356 H 0.37907 0.62351 0.47493 0.0
H357 H 0.55691 0.62098 0.47347 0.0
C358 C 0.6826 0.63941 0.50986 0.0
C359 C 0.73955 0.64994 0.53064 0.0
C360 C 0.57985 0.64095 0.50979 0.0
C361 C 0.69189 0.66204 0.55117 0.0
C362 C 0.5901 0.66365 0.55102 0.0
C363 C 0.43034 0.65468 0.53074 0.0
C364 C 0.37307 0.644 0.51118 0.0
C365 C 0.53316 0.65318 0.53048 0.0
C366 C 0.42073 0.63192 0.49045 0.0
C367 C 0.52278 0.63043 0.48959 0.0
H368 H 0.66859 0.4075 0.55346 0.0
H369 H 0.70679 0.36551 0.49429 0.0
H370 H 0.53042 0.36386 0.48566 0.0
H371 H 0.36528 0.37434 0.49416 0.0
H372 H 0.32665 0.41632 0.55332 0.0
H373 H 0.50303 0.41795 0.56229 0.0
C374 C 0.63848 0.39794 0.53896 0.0
C375 C 0.70152 0.38662 0.52472 0.0
C376 C 0.53671 0.39708 0.53369 0.0
C377 C 0.66058 0.37438 0.50568 0.0
C378 C 0.5595 0.37344 0.5006 0.0
C379 C 0.39523 0.38389 0.5088 0.0
C380 C 0.33215 0.39521 0.52281 0.0
C381 C 0.49689 0.38474 0.51423 0.0
C382 C 0.37293 0.40744 0.54204 0.0
C383 C 0.474 0.40838 0.54732 0.0
H384 H 0.94329 0.91014 0.98415 0.0
H385 H 0.90481 0.86725 0.03373 0.0
H386 H 0.07953 0.86558 0.0465 0.0
H387 H 0.24424 0.87627 0.04428 0.0
H388 H 0.28272 0.91917 0.99487 0.0
H389 H 0.10802 0.92084 0.98207 0.0
C390 C 0.97319 0.90037 0.99723 0.0
C391 C 0.91035 0.88882 0.00757 0.0
C392 C 0.07413 0.89951 0.00522 0.0
C393 C 0.95086 0.87632 0.02521 0.0
C394 C 0.05106 0.87536 0.03276 0.0
C395 C 0.21439 0.88604 0.03121 0.0
C396 C 0.27727 0.8976 0.02091 0.0
C397 C 0.11344 0.88691 0.02327 0.0
C398 C 0.2367 0.9101 1.00335 0.0
C399 C 0.1365 0.91106 0.99578 0.0
H400 H 0.1409 0.1295 0.04793 0.0
H401 H 0.17917 0.17327 0.01108 0.0
H402 H 1.00315 0.17557 1.00286 0.0
H403 H 0.838 0.16513 0.00491 0.0
H404 H 0.79979 0.12144 0.04282 0.0
H405 H 0.97573 0.11917 0.05144 0.0
C406 C 0.11091 0.13958 0.0384 0.0
C407 C 0.17387 0.15119 0.0302 0.0
C408 C 1.00933 0.14084 0.03349 0.0
C409 C 0.133 0.16414 0.01775 0.0
C410 C 1.03211 0.16547 0.01284 0.0
C411 C 0.86813 0.15509 0.01478 0.0
C412 C 0.80538 0.14346 0.0229 0.0
C413 C 0.9696 0.15387 0.02027 0.0
C414 C 0.84599 0.13057 0.03624 0.0
C415 C 0.94679 0.12926 0.04128 0.0
H416 H 0.2253 0.13056 0.49219 0.0
H417 H 0.23736 0.16994 0.57298 0.0
H418 H 0.06006 0.1727 0.57157 0.0
H419 H 0.89996 0.1639 0.5483 0.0
H420 H 0.88742 0.12432 0.46903 0.0
H421 H 0.06527 0.12179 0.46876 0.0
C422 C 0.18925 0.13974 0.50963 0.0
C423 C 0.24535 0.14999 0.53277 0.0
C424 C 0.08654 0.14129 0.50878 0.0
C425 C 0.1967 0.16182 0.55499 0.0
C426 C 0.09493 0.16345 0.55413 0.0
C427 C 0.93613 0.15478 0.53056 0.0
C428 C 0.87973 0.14435 0.50861 0.0
C429 C 0.03893 0.15326 0.53112 0.0
C430 C 0.92837 0.13253 0.4863 0.0
C431 C 1.03042 0.13105 0.48617 0.0
H432 H 0.87026 0.90819 0.54655 0.0
H433 H 0.85128 0.86784 0.4734 0.0
H434 H 1.03001 0.86552 0.46864 0.0
H435 H 0.19246 0.87483 0.48567 0.0
H436 H 0.21072 0.91521 0.55872 0.0
H437 H 1.03234 0.91756 0.56288 0.0
C438 C 0.90493 0.89887 0.52951 0.0
C439 C 0.84649 0.8882 0.51042 0.0
C440 C 1.0082 0.89758 0.52682 0.0
C441 C 0.89365 0.87624 0.48843 0.0
C442 C 0.99622 0.87489 0.48569 0.0
C443 C 0.15769 0.88416 0.50248 0.0
C444 C 0.21593 0.89481 0.52189 0.0
C445 C 0.05436 0.88548 0.50483 0.0
C446 C 0.16862 0.90681 0.54346 0.0
C447 C 0.06619 0.90818 0.5459 0.0
H448 H 0.11607 0.54484 0.96145 0.0
H449 H 0.97342 0.54501 0.11943 0.0
H450 H 0.97072 0.51961 0.12032 0.0
H451 H 1.00577 0.49727 0.07638 0.0
H452 H 0.15232 0.49668 0.91929 0.0
H453 H 0.1537 0.52216 0.91756 0.0
C454 C 0.08419 0.53932 0.99602 0.0
C455 C 0.0459 0.54695 0.0405 0.0
C456 C 0.08257 0.52457 0.99634 0.0
C457 C 1.00533 0.53953 0.08498 0.0
C458 C 1.00297 0.52495 0.08542 0.0
C459 C 0.03929 0.50265 0.04188 0.0
C460 C 0.07899 0.49488 0.99808 0.0
C461 C 0.04142 0.51735 0.04141 0.0
C462 C 0.11983 0.50223 0.95342 0.0
C463 C 0.1214 0.51687 0.95252 0.0
H464 H 0.9187 0.49574 0.5686 0.0
H465 H 0.17971 0.49093 0.4619 0.0
H466 H 0.18752 0.51627 0.44848 0.0
H467 H 0.12334 0.53997 0.47019 0.0
H468 H 0.8593 0.54425 0.57553 0.0
H469 H 0.85052 0.51904 0.58672 0.0
C470 C 0.97775 0.50023 0.54263 0.0
C471 C 0.04916 0.49143 0.51678 0.0
C472 C 0.98151 0.51477 0.535 0.0
C473 C 0.12372 0.49743 0.48227 0.0
C474 C 0.12836 0.51194 0.47472 0.0
C475 C 0.06315 0.53539 0.49504 0.0
C476 C 0.99288 0.54413 0.52252 0.0
C477 C 0.05795 0.52074 0.50117 0.0
C478 C 0.91579 0.5379 0.55478 0.0
C479 C 0.9103 0.52344 0.56105 0.0
H480 H 0.59298 0.99551 0.0624 0.0
H481 H 0.39851 0.99265 0.93846 0.0
H482 H 0.37198 1.01779 0.94213 0.0
H483 H 0.40717 0.04081 0.9785 0.0
H484 H 0.59925 0.04377 0.1033 0.0
H485 H 0.6211 1.01845 0.10217 0.0
C486 C 0.54352 1.00031 0.03671 0.0
C487 C 0.49879 0.99206 0.99978 0.0
C488 C 0.52789 1.01488 0.03918 0.0
C489 C 0.43577 0.99865 0.96655 0.0
C490 C 0.42001 1.01308 0.96879 0.0
C491 C 0.45402 0.03593 0.00542 0.0
C492 C 0.50181 0.04428 0.04077 0.0
C493 C 0.46662 0.02133 0.00445 0.0
C494 C 0.5608 0.03767 0.07596 0.0
C495 C 0.57386 0.02316 0.07511 0.0
H496 H 0.61605 0.04019 0.4762 0.0
H497 H 0.33365 0.04523 0.5647 0.0
H498 H 0.31866 0.02 0.57486 0.0
H499 H 0.38738 0.99641 0.56109 0.0
H500 H 0.66898 0.99129 0.47206 0.0
H501 H 0.68102 1.01648 0.45861 0.0
C502 C 0.55049 0.03579 0.49705 0.0
C503 C 0.47668 0.04473 0.5201 0.0
C504 C 0.54191 0.02117 0.50264 0.0
C505 C 0.39276 0.03871 0.5474 0.0
C506 C 0.38375 0.02424 0.55304 0.0
C507 C 0.4515 1.00079 0.53879 0.0
C508 C 0.52716 0.99187 0.51776 0.0
C509 C 0.45838 1.01536 0.53143 0.0
C510 C 0.60894 0.9978 0.48826 0.0
C511 C 0.61628 1.01226 0.48083 0.0
H512 H 0.11064 0.28465 0.05879 0.0
H513 H 0.37603 0.30286 0.9831 0.0
H514 H 0.44965 0.27971 0.9723 0.0
H515 H 0.44027 0.25426 0.98546 0.0
H516 H 0.1749 0.23605 0.0612 0.0
H517 H 0.10129 0.25921 0.07199 0.0
C518 C 0.185 0.28361 0.0404 0.0
C519 C 0.23736 0.29561 0.02182 0.0
C520 C 0.2274 0.27022 0.03454 0.0
C521 C 0.33312 0.2939 0.99722 0.0
C522 C 0.37567 0.28062 0.99129 0.0
C523 C 0.36592 0.2553 1.00388 0.0
C524 C 0.31355 0.2433 0.02246 0.0
C525 C 0.32354 0.2687 0.00974 0.0
C526 C 0.21781 0.24502 0.04707 0.0
C527 C 0.17527 0.25829 0.053 0.0
H528 H 0.73633 0.79227 0.96133 0.0
H529 H 0.76357 0.79652 0.12776 0.0
H530 H 0.82033 0.77245 0.13181 0.0
H531 H 0.86051 0.74995 0.08872 0.0
H532 H 0.83379 0.74567 0.92227 0.0
H533 H 0.77607 0.76971 0.91825 0.0
C534 C 0.75403 0.78794 0.99862 0.0
C535 C 0.74597 0.79638 0.04408 0.0
C536 C 0.78599 0.77394 1.0009 0.0
C537 C 0.77059 0.79049 0.09181 0.0
C538 C 0.80238 0.77662 0.09432 0.0
C539 C 0.84273 0.75426 0.05142 0.0
C540 C 0.85149 0.74583 0.00594 0.0
C541 C 0.81045 0.76823 0.04915 0.0
C542 C 0.82643 0.7517 0.95822 0.0
C543 C 0.7941 0.76555 0.95573 0.0
H544 H 0.30898 0.74621 0.58454 0.0
H545 H 0.20305 0.74438 0.43028 0.0
H546 H 0.25354 0.7685 0.41362 0.0
H547 H 0.32349 0.79043 0.4435 0.0
H548 H 0.42762 0.79236 0.59809 0.0
H549 H 0.37897 0.76813 0.61439 0.0
C550 C 0.29624 0.75108 0.54735 0.0
C551 C 0.25233 0.74333 0.50874 0.0
C552 C 0.32404 0.7651 0.53823 0.0
C553 C 0.23816 0.74988 0.46051 0.0
C554 C 0.26619 0.76377 0.45107 0.0
C555 C 0.33625 0.78555 0.48065 0.0
C556 C 0.37901 0.79333 0.51952 0.0
C557 C 0.30882 0.77151 0.4897 0.0
C558 C 0.39346 0.78678 0.56769 0.0
C559 C 0.36639 0.77285 0.57693 0.0
H560 H 0.83209 0.29055 0.44285 0.0
H561 H 0.91199 0.29349 0.60231 0.0
H562 H 0.86229 0.26932 0.61858 0.0
H563 H 0.79874 0.24714 0.58748 0.0
H564 H 0.71589 0.24425 0.4285 0.0
H565 H 0.76753 0.26833 0.41183 0.0
C566 C 0.83922 0.2859 0.48111 0.0
C567 C 0.87551 0.29397 0.5213 0.0
C568 C 0.8111 0.27188 0.49021 0.0
C569 C 0.88283 0.28771 0.5708 0.0
C570 C 0.85518 0.2738 0.58006 0.0
C571 C 0.79107 0.25176 0.54924 0.0
C572 C 0.75339 0.24372 0.50937 0.0
C573 C 0.81928 0.26577 0.54008 0.0
C574 C 0.74608 0.24997 0.45983 0.0
C575 C 0.77476 0.26385 0.45034 0.0
H576 H 0.19434 0.39348 0.191 0.0
H577 H 0.8865 0.39264 0.16557 0.0
H578 H 0.84225 0.39276 0.26067 0.0
H579 H 0.89159 0.39504 0.35107 0.0
H580 H 0.19905 0.39371 0.37693 0.0
H581 H 0.24345 0.3924 0.28188 0.0
C582 C 0.11772 0.3931 0.2065 0.0
C583 C 0.04372 0.39319 0.17164 0.0
C584 C 0.09294 0.39289 0.2612 0.0
C585 C 0.94465 0.39256 0.19181 0.0
C586 C 0.91933 0.39271 0.24613 0.0
C587 C 0.96813 0.3943 0.33569 0.0
C588 C 0.0421 0.39465 0.3705 0.0
C589 C 0.99283 0.39319 0.28117 0.0
C590 C 0.14103 0.39348 0.35062 0.0
C591 C 0.16638 0.39278 0.29635 0.0
H592 H 0.1567 0.64849 0.18614 0.0
H593 H 0.84223 0.65115 0.18305 0.0
H594 H 0.82108 0.64962 0.27941 0.0
H595 H 0.89447 0.65032 0.36455 0.0
H596 H 0.20798 0.64579 0.36742 0.0
H597 H 0.22776 0.64503 0.271 0.0
C598 C 0.08359 0.64845 0.20673 0.0
C599 C 1.00109 0.65009 0.1781 0.0
C600 C 0.0722 0.64731 0.26185 0.0
C601 C 0.90655 0.64989 0.2046 0.0
C602 C 0.89461 0.6491 0.25958 0.0
C603 C 0.96673 0.64885 0.34388 0.0
C604 C 0.04982 0.64823 0.37255 0.0
C605 C 0.97711 0.64821 0.28864 0.0
C606 C 0.14315 0.64624 0.34588 0.0
C607 C 0.15443 0.64591 0.29085 0.0
H608 H 0.88702 0.64711 0.85519 0.0
H609 H 0.19279 0.64356 0.88265 0.0
H610 H 0.23945 0.64384 0.78758 0.0
H611 H 0.19091 0.64321 0.69632 0.0
H612 H 0.88606 0.64898 0.66969 0.0
H613 H 0.84111 0.64989 0.76449 0.0
C614 C 0.96385 0.64662 0.84014 0.0
C615 C 1.03641 0.64519 0.87536 0.0
C616 C 0.99005 0.64712 0.78565 0.0
C617 C 0.13588 0.64469 0.85594 0.0
C618 C 0.16245 0.64477 0.80168 0.0
C619 C 0.115 0.64486 0.7115 0.0
C620 C 0.04175 0.64587 0.67637 0.0
C621 C 0.08994 0.6457 0.76612 0.0
C622 C 0.94368 0.64817 0.69611 0.0
C623 C 0.91784 0.64863 0.75029 0.0
H624 H 0.16908 0.38782 0.6817 0.0
H625 H 0.85482 0.39016 0.67664 0.0
H626 H 0.83311 0.39234 0.77272 0.0
H627 H 0.90351 0.39093 0.85847 0.0
H628 H 0.21814 0.39032 0.86338 0.0
H629 H 0.24052 0.39037 0.7669 0.0
C630 C 0.09607 0.38904 0.70176 0.0
C631 C 1.01345 0.38863 0.67263 0.0
C632 C 0.08454 0.39056 0.75676 0.0
C633 C 0.91925 0.39042 0.69851 0.0
C634 C 0.90692 0.3916 0.75336 0.0
C635 C 0.97689 0.39112 0.83822 0.0
C636 C 0.05914 0.39051 0.86757 0.0
C637 C 0.9889 0.39131 0.78294 0.0
C638 C 0.15395 0.39085 0.84137 0.0
C639 C 0.16662 0.39076 0.7863 0.0
H640 H 0.49212 0.88705 0.18296 0.0
H641 H 0.74539 0.91425 0.16479 0.0
H642 H 0.74578 0.91614 0.25907 0.0
H643 H 0.67023 0.91163 0.34746 0.0
H644 H 0.42602 0.88331 0.3714 0.0
H645 H 0.4261 0.88026 0.27539 0.0
C646 C 0.54755 0.89328 0.19978 0.0
C647 C 0.6173 0.90074 0.1661 0.0
C648 C 0.54896 0.89421 0.25546 0.0
C649 C 0.6895 0.90858 0.18903 0.0
C650 C 0.69023 0.90968 0.24334 0.0
C651 C 0.61781 0.90463 0.33167 0.0
C652 C 0.54818 0.89775 0.36634 0.0
C653 C 0.6196 0.90279 0.27692 0.0
C654 C 0.48098 0.88865 0.34542 0.0
C655 C 0.48069 0.887 0.29046 0.0
H656 H 0.65418 0.14688 0.18432 0.0
H657 H 0.3399 0.1502 0.182 0.0
H658 H 0.32019 0.15008 0.27853 0.0
H659 H 0.39466 0.15129 0.36361 0.0
H660 H 0.70757 0.14585 0.36591 0.0
H661 H 0.72598 0.14439 0.26962 0.0
C662 C 0.58133 0.14729 0.20512 0.0
C663 C 0.49858 0.14862 0.1763 0.0
C664 C 0.57064 0.14695 0.26057 0.0
C665 C 0.40451 0.14909 0.20341 0.0
C666 C 0.39338 0.14912 0.25859 0.0
C667 C 0.46654 0.14955 0.3429 0.0
C668 C 0.54982 0.1488 0.3716 0.0
C669 C 0.47612 0.1484 0.28758 0.0
C670 C 0.6425 0.14642 0.34461 0.0
C671 C 0.65303 0.14567 0.28956 0.0
H672 H 0.63557 0.1457 0.86174 0.0
H673 H 0.32002 0.14895 0.86828 0.0
H674 H 0.32852 0.15103 0.77232 0.0
H675 H 0.42441 0.1493 0.68578 0.0
H676 H 0.73782 0.1431 0.67917 0.0
H677 H 0.73226 0.14493 0.77509 0.0
C678 C 0.56911 0.14718 0.84206 0.0
C679 C 0.47733 0.1473 0.87187 0.0
C680 C 0.57432 0.1477 0.78658 0.0
C681 C 0.39146 0.14889 0.84598 0.0
C682 C 0.39628 0.15003 0.79113 0.0
C683 C 0.49154 0.14865 0.70541 0.0
C684 C 0.58151 0.14616 0.67558 0.0
C685 C 0.48706 0.14907 0.76085 0.0
C686 C 0.66779 0.14505 0.70145 0.0
C687 C 0.66457 0.14605 0.75629 0.0
H688 H 0.63302 0.89535 0.67239 0.0
H689 H 0.34331 0.87699 0.68537 0.0
H690 H 0.34146 0.87656 0.78083 0.0
H691 H 0.4251 0.87969 0.86061 0.0
H692 H 0.71438 0.89793 0.85142 0.0
H693 H 0.71356 0.90016 0.75528 0.0
C694 C 0.56903 0.89148 0.69626 0.0
C695 C 0.4884 0.88613 0.67144 0.0
C696 C 0.56883 0.89107 0.75199 0.0
C697 C 0.40643 0.88108 0.70314 0.0
C698 C 0.40535 0.8808 0.75791 0.0
C699 C 0.48798 0.88423 0.83768 0.0
C700 C 0.57014 0.88849 0.86323 0.0
C701 C 0.48674 0.88546 0.78271 0.0
C702 C 0.65032 0.89451 0.83283 0.0
C703 C 0.6498 0.89576 0.77777 0.0
loop_
_geom_bond_atom_site_label_1
_geom_bond_atom_site_label_2
_geom_bond_distance
_geom_bond_site_symmetry_2
_ccdc_geom_bond_type
Ho0 C3 2.811 1_455 S
Ho0 O20 2.322 1_455 S
Ho0 O22 2.378 . S
Ho0 O23 2.524 1_454 S
Ho0 O24 2.381 . S
Ho0 O25 2.669 . S
Ho0 O27 2.346 . S
Ho0 O31 2.305 1_554 S
Ho1 C12 2.811 . S
Ho1 O21 2.346 1_455 S
Ho1 O25 2.305 . S
Ho1 O26 2.322 1_554 S
Ho1 O28 2.378 1_554 S
Ho1 O29 2.524 . S
Ho1 O30 2.381 1_554 S
Ho1 O31 2.669 1_554 S
C2 O20 1.259 . S
C2 O21 1.268 . S
C3 Ho0 2.811 1_655 S
C3 C4 1.488 . S
C3 O22 1.215 1_655 S
C3 O23 1.289 1_554 S
C4 C3 1.488 . S
C4 C5 1.348 1_554 S
C4 C9 1.413 . S
C5 C4 1.348 1_556 S
C5 C6 1.442 . S
C5 H32 0.930 . S
C6 C5 1.442 . S
C6 C7 1.381 1_556 S
C6 H33 0.931 . S
C7 C6 1.381 1_554 S
C7 C8 1.321 . S
C8 C7 1.321 . S
C8 C9 1.403 . S
C8 H34 0.934 . S
C9 C4 1.413 . S
C9 C8 1.403 . S
C9 H35 0.930 . S
C10 O24 1.275 . S
C10 O25 1.256 . S
C11 O26 1.259 1_554 S
C11 O27 1.268 . S
C12 Ho1 2.811 . S
C12 C13 1.488 . S
C12 O28 1.215 1_554 S
C12 O29 1.289 . S
C13 C12 1.488 . S
C13 C14 1.348 . S
C13 C18 1.413 1_554 S
C14 C13 1.348 . S
C14 C15 1.442 . S
C14 H36 0.930 . S
C15 C14 1.442 . S
C15 C16 1.381 . S
C15 H37 0.931 . S
C16 C15 1.381 . S
C16 C17 1.321 1_554 S
C17 C16 1.321 1_556 S
C17 C18 1.403 . S
C17 H38 0.934 . S
C18 C13 1.413 1_556 S
C18 C17 1.403 . S
C18 H39 0.930 . S
C19 O30 1.275 . S
C19 O31 1.256 . S
O20 Ho0 2.322 1_655 S
O20 C2 1.259 . S
O21 Ho1 2.346 1_655 S
O21 C2 1.268 . S
O22 Ho0 2.378 . S
O22 C3 1.215 1_455 S
O23 Ho0 2.524 1_656 S
O23 C3 1.289 1_556 S
O24 Ho0 2.381 . S
O24 C10 1.275 . S
O25 Ho0 2.669 . S
O25 Ho1 2.305 . S
O25 C10 1.256 . S
O26 Ho1 2.322 1_556 S
O26 C11 1.259 1_556 S
O27 Ho0 2.346 . S
O27 C11 1.268 . S
O28 Ho1 2.378 1_556 S
O28 C12 1.215 1_556 S
O29 Ho1 2.524 . S
O29 C12 1.289 . S
O30 Ho1 2.381 1_556 S
O30 C19 1.275 . S
O31 Ho0 2.305 1_556 S
O31 Ho1 2.669 1_556 S
O31 C19 1.256 . S
H32 C5 0.930 . S
H33 C6 0.931 . S
H34 C8 0.934 . S
H35 C9 0.930 . S
H36 C14 0.930 . S
H37 C15 0.931 . S
H38 C17 0.934 . S
H39 C18 0.930 . S
Ho40 C43 2.811 . S
Ho40 O60 2.322 . S
Ho40 O62 2.378 . S
Ho40 O63 2.524 1_554 S
Ho40 O64 2.381 . S
Ho40 O65 2.669 . S
Ho40 O67 2.346 1_655 S
Ho40 O71 2.305 1_554 S
Ho41 C52 2.811 1_655 S
Ho41 O61 2.346 . S
Ho41 O65 2.305 . S
Ho41 O66 2.322 1_654 S
Ho41 O68 2.378 1_554 S
Ho41 O69 2.524 1_655 S
Ho41 O70 2.381 1_554 S
Ho41 O71 2.669 1_554 S
C42 O60 1.259 . S
C42 O61 1.268 . S
C43 Ho40 2.811 . S
C43 C44 1.488 . S
C43 O62 1.215 . S
C43 O63 1.289 1_554 S
C44 C43 1.488 . S
C44 C45 1.348 1_554 S
C44 C49 1.413 . S
C45 C44 1.348 1_556 S
C45 C46 1.442 . S
C45 H72 0.930 . S
C46 C45 1.442 . S
C46 C47 1.381 1_556 S
C46 H73 0.931 . S
C47 C46 1.381 1_554 S
C47 C48 1.321 . S
C48 C47 1.321 . S
C48 C49 1.403 . S
C48 H74 0.934 . S
C49 C44 1.413 . S
C49 C48 1.403 . S
C49 H75 0.930 . S
C50 O64 1.275 . S
C50 O65 1.256 . S
C51 O66 1.259 1_554 S
C51 O67 1.268 . S
C52 Ho41 2.811 1_455 S
C52 C53 1.488 . S
C52 O68 1.215 1_454 S
C52 O69 1.289 . S
C53 C52 1.488 . S
C53 C54 1.348 . S
C53 C58 1.413 1_554 S
C54 C53 1.348 . S
C54 C55 1.442 . S
C54 H76 0.930 . S
C55 C54 1.442 . S
C55 C56 1.381 . S
C55 H77 0.931 . S
C56 C55 1.381 . S
C56 C57 1.321 1_554 S
C57 C56 1.321 1_556 S
C57 C58 1.403 . S
C57 H78 0.934 . S
C58 C53 1.413 1_556 S
C58 C57 1.403 . S
C58 H79 0.930 . S
C59 O70 1.275 . S
C59 O71 1.256 . S
O60 Ho40 2.322 . S
O60 C42 1.259 . S
O61 Ho41 2.346 . S
O61 C42 1.268 . S
O62 Ho40 2.378 . S
O62 C43 1.215 . S
O63 Ho40 2.524 1_556 S
O63 C43 1.289 1_556 S
O64 Ho40 2.381 . S
O64 C50 1.275 . S
O65 Ho40 2.669 . S
O65 Ho41 2.305 . S
O65 C50 1.256 . S
O66 Ho41 2.322 1_456 S
O66 C51 1.259 1_556 S
O67 Ho40 2.346 1_455 S
O67 C51 1.268 . S
O68 Ho41 2.378 1_556 S
O68 C52 1.215 1_656 S
O69 Ho41 2.524 1_455 S
O69 C52 1.289 . S
O70 Ho41 2.381 1_556 S
O70 C59 1.275 . S
O71 Ho40 2.305 1_556 S
O71 Ho41 2.669 1_556 S
O71 C59 1.256 . S
H72 C45 0.930 . S
H73 C46 0.931 . S
H74 C48 0.934 . S
H75 C49 0.930 . S
H76 C54 0.930 . S
H77 C55 0.931 . S
H78 C57 0.934 . S
H79 C58 0.930 . S
Ho80 C83 2.811 . S
Ho80 O100 2.322 . S
Ho80 O102 2.378 . S
Ho80 O103 2.524 . S
Ho80 O104 2.381 . S
Ho80 O105 2.669 . S
Ho80 O107 2.346 1_455 S
Ho80 O111 2.305 . S
Ho81 C92 2.811 1_455 S
Ho81 O101 2.346 . S
Ho81 O105 2.305 . S
Ho81 O106 2.322 1_455 S
Ho81 O108 2.378 . S
Ho81 O109 2.524 1_455 S
Ho81 O110 2.381 . S
Ho81 O111 2.669 . S
C82 O100 1.259 . S
C82 O101 1.268 . S
C83 Ho80 2.811 . S
C83 C84 1.488 . S
C83 O102 1.215 . S
C83 O103 1.289 . S
C84 C83 1.488 . S
C84 C85 1.348 . S
C84 C89 1.413 . S
C85 C84 1.348 . S
C85 C86 1.442 . S
C85 H112 0.930 . S
C86 C85 1.442 . S
C86 C87 1.381 . S
C86 H113 0.931 . S
C87 C86 1.381 . S
C87 C88 1.321 . S
C88 C87 1.321 . S
C88 C89 1.403 . S
C88 H114 0.934 . S
C89 C84 1.413 . S
C89 C88 1.403 . S
C89 H115 0.930 . S
C90 O104 1.275 . S
C90 O105 1.256 . S
C91 O106 1.259 . S
C91 O107 1.268 . S
C92 Ho81 2.811 1_655 S
C92 C93 1.488 . S
C92 O108 1.215 1_655 S
C92 O109 1.289 . S
C93 C92 1.488 . S
C93 C94 1.348 . S
C93 C98 1.413 . S
C94 C93 1.348 . S
C94 C95 1.442 . S
C94 H116 0.930 . S
C95 C94 1.442 . S
C95 C96 1.381 . S
C95 H117 0.931 . S
C96 C95 1.381 . S
C96 C97 1.321 . S
C97 C96 1.321 . S
C97 C98 1.403 . S
C97 H118 0.934 . S
C98 C93 1.413 . S
C98 C97 1.403 . S
C98 H119 0.930 . S
C99 O110 1.275 . S
C99 O111 1.256 . S
O100 Ho80 2.322 . S
O100 C82 1.259 . S
O101 Ho81 2.346 . S
O101 C82 1.268 . S
O102 Ho80 2.378 . S
O102 C83 1.215 . S
O103 Ho80 2.524 . S
O103 C83 1.289 . S
O104 Ho80 2.381 . S
O104 C90 1.275 . S
O105 Ho80 2.669 . S
O105 Ho81 2.305 . S
O105 C90 1.256 . S
O106 Ho81 2.322 1_655 S
O106 C91 1.259 . S
O107 Ho80 2.346 1_655 S
O107 C91 1.268 . S
O108 Ho81 2.378 . S
O108 C92 1.215 1_455 S
O109 Ho81 2.524 1_655 S
O109 C92 1.289 . S
O110 Ho81 2.381 . S
O110 C99 1.275 . S
O111 Ho80 2.305 . S
O111 Ho81 2.669 . S
O111 C99 1.256 . S
H112 C85 0.930 . S
H113 C86 0.931 . S
H114 C88 0.934 . S
H115 C89 0.930 . S
H116 C94 0.930 . S
H117 C95 0.931 . S
H118 C97 0.934 . S
H119 C98 0.930 . S
Ho120 C123 2.811 1_655 S
Ho120 O140 2.322 1_655 S
Ho120 O142 2.378 . S
Ho120 O143 2.524 1_655 S
Ho120 O144 2.381 . S
Ho120 O145 2.669 . S
Ho120 O147 2.346 . S
Ho120 O151 2.305 . S
Ho121 C132 2.811 . S
Ho121 O141 2.346 1_655 S
Ho121 O145 2.305 . S
Ho121 O146 2.322 . S
Ho121 O148 2.378 . S
Ho121 O149 2.524 . S
Ho121 O150 2.381 . S
Ho121 O151 2.669 . S
C122 O140 1.259 . S
C122 O141 1.268 . S
C123 Ho120 2.811 1_455 S
C123 C124 1.488 . S
C123 O142 1.215 1_455 S
C123 O143 1.289 . S
C124 C123 1.488 . S
C124 C125 1.348 . S
C124 C129 1.413 . S
C125 C124 1.348 . S
C125 C126 1.442 . S
C125 H152 0.930 . S
C126 C125 1.442 . S
C126 C127 1.381 . S
C126 H153 0.931 . S
C127 C126 1.381 . S
C127 C128 1.321 . S
C128 C127 1.321 . S
C128 C129 1.403 . S
C128 H154 0.934 . S
C129 C124 1.413 . S
C129 C128 1.403 . S
C129 H155 0.930 . S
C130 O144 1.275 . S
C130 O145 1.256 . S
C131 O146 1.259 . S
C131 O147 1.268 . S
C132 Ho121 2.811 . S
C132 C133 1.488 . S
C132 O148 1.215 . S
C132 O149 1.289 . S
C133 C132 1.488 . S
C133 C134 1.348 . S
C133 C138 1.413 . S
C134 C133 1.348 . S
C134 C135 1.442 . S
C134 H156 0.930 . S
C135 C134 1.442 . S
C135 C136 1.381 . S
C135 H157 0.931 . S
C136 C135 1.381 . S
C136 C137 1.321 . S
C137 C136 1.321 . S
C137 C138 1.403 . S
C137 H158 0.934 . S
C138 C133 1.413 . S
C138 C137 1.403 . S
C138 H159 0.930 . S
C139 O150 1.275 . S
C139 O151 1.256 . S
O140 Ho120 2.322 1_455 S
O140 C122 1.259 . S
O141 Ho121 2.346 1_455 S
O141 C122 1.268 . S
O142 Ho120 2.378 . S
O142 C123 1.215 1_655 S
O143 Ho120 2.524 1_455 S
O143 C123 1.289 . S
O144 Ho120 2.381 . S
O144 C130 1.275 . S
O145 Ho120 2.669 . S
O145 Ho121 2.305 . S
O145 C130 1.256 . S
O146 Ho121 2.322 . S
O146 C131 1.259 . S
O147 Ho120 2.346 . S
O147 C131 1.268 . S
O148 Ho121 2.378 . S
O148 C132 1.215 . S
O149 Ho121 2.524 . S
O149 C132 1.289 . S
O150 Ho121 2.381 . S
O150 C139 1.275 . S
O151 Ho120 2.305 . S
O151 Ho121 2.669 . S
O151 C139 1.256 . S
H152 C125 0.930 . S
H153 C126 0.931 . S
H154 C128 0.934 . S
H155 C129 0.930 . S
H156 C134 0.930 . S
H157 C135 0.931 . S
H158 C137 0.934 . S
H159 C138 0.930 . S
Ho160 C163 2.811 . S
Ho160 O180 2.322 . S
Ho160 O182 2.378 . S
Ho160 O183 2.524 1_554 S
Ho160 O184 2.381 . S
Ho160 O185 2.669 . S
Ho160 O187 2.346 . S
Ho160 O191 2.305 1_554 S
Ho161 C172 2.811 . S
Ho161 O181 2.346 . S
Ho161 O185 2.305 . S
Ho161 O186 2.322 1_554 S
Ho161 O188 2.378 1_554 S
Ho161 O189 2.524 . S
Ho161 O190 2.381 1_554 S
Ho161 O191 2.669 1_554 S
C162 O180 1.259 . S
C162 O181 1.268 . S
C163 Ho160 2.811 . S
C163 C164 1.488 . S
C163 O182 1.215 . S
C163 O183 1.289 1_554 S
C164 C163 1.488 . S
C164 C165 1.348 1_554 S
C164 C169 1.413 . S
C165 C164 1.348 1_556 S
C165 C166 1.442 . S
C165 H192 0.930 . S
C166 C165 1.442 . S
C166 C167 1.381 1_556 S
C166 H193 0.931 . S
C167 C166 1.381 1_554 S
C167 C168 1.321 . S
C168 C167 1.321 . S
C168 C169 1.403 . S
C168 H194 0.934 . S
C169 C164 1.413 . S
C169 C168 1.403 . S
C169 H195 0.930 . S
C170 O184 1.275 . S
C170 O185 1.256 . S
C171 O186 1.259 1_554 S
C171 O187 1.268 . S
C172 Ho161 2.811 . S
C172 C173 1.488 . S
C172 O188 1.215 1_554 S
C172 O189 1.289 . S
C173 C172 1.488 . S
C173 C174 1.348 . S
C173 C178 1.413 1_554 S
C174 C173 1.348 . S
C174 C175 1.442 . S
C174 H196 0.930 . S
C175 C174 1.442 . S
C175 C176 1.381 . S
C175 H197 0.931 . S
C176 C175 1.381 . S
C176 C177 1.321 1_554 S
C177 C176 1.321 1_556 S
C177 C178 1.403 . S
C177 H198 0.934 . S
C178 C173 1.413 1_556 S
C178 C177 1.403 . S
C178 H199 0.930 . S
C179 O190 1.275 . S
C179 O191 1.256 . S
O180 Ho160 2.322 . S
O180 C162 1.259 . S
O181 Ho161 2.346 . S
O181 C162 1.268 . S
O182 Ho160 2.378 . S
O182 C163 1.215 . S
O183 Ho160 2.524 1_556 S
O183 C163 1.289 1_556 S
O184 Ho160 2.381 . S
O184 C170 1.275 . S
O185 Ho160 2.669 . S
O185 Ho161 2.305 . S
O185 C170 1.256 . S
O186 Ho161 2.322 1_556 S
O186 C171 1.259 1_556 S
O187 Ho160 2.346 . S
O187 C171 1.268 . S
O188 Ho161 2.378 1_556 S
O188 C172 1.215 1_556 S
O189 Ho161 2.524 . S
O189 C172 1.289 . S
O190 Ho161 2.381 1_556 S
O190 C179 1.275 . S
O191 Ho160 2.305 1_556 S
O191 Ho161 2.669 1_556 S
O191 C179 1.256 . S
H192 C165 0.930 . S
H193 C166 0.931 . S
H194 C168 0.934 . S
H195 C169 0.930 . S
H196 C174 0.930 . S
H197 C175 0.931 . S
H198 C177 0.934 . S
H199 C178 0.930 . S
Ho200 C203 2.811 . S
Ho200 O220 2.322 . S
Ho200 O222 2.378 . S
Ho200 O223 2.524 1_554 S
Ho200 O224 2.381 . S
Ho200 O225 2.669 . S
Ho200 O227 2.346 . S
Ho200 O231 2.305 1_554 S
Ho201 C212 2.811 . S
Ho201 O221 2.346 . S
Ho201 O225 2.305 . S
Ho201 O226 2.322 1_554 S
Ho201 O228 2.378 1_554 S
Ho201 O229 2.524 . S
Ho201 O230 2.381 1_554 S
Ho201 O231 2.669 1_554 S
C202 O220 1.259 . S
C202 O221 1.268 . S
C203 Ho200 2.811 . S
C203 C204 1.488 . S
C203 O222 1.215 . S
C203 O223 1.289 1_554 S
C204 C203 1.488 . S
C204 C205 1.348 1_554 S
C204 C209 1.413 . S
C205 C204 1.348 1_556 S
C205 C206 1.442 . S
C205 H232 0.930 . S
C206 C205 1.442 . S
C206 C207 1.381 1_556 S
C206 H233 0.931 . S
C207 C206 1.381 1_554 S
C207 C208 1.321 . S
C208 C207 1.321 . S
C208 C209 1.403 . S
C208 H234 0.934 . S
C209 C204 1.413 . S
C209 C208 1.403 . S
C209 H235 0.930 . S
C210 O224 1.275 . S
C210 O225 1.256 . S
C211 O226 1.259 1_554 S
C211 O227 1.268 . S
C212 Ho201 2.811 . S
C212 C213 1.488 . S
C212 O228 1.215 1_554 S
C212 O229 1.289 . S
C213 C212 1.488 . S
C213 C214 1.348 . S
C213 C218 1.413 1_554 S
C214 C213 1.348 . S
C214 C215 1.442 . S
C214 H236 0.930 . S
C215 C214 1.442 . S
C215 C216 1.381 . S
C215 H237 0.931 . S
C216 C215 1.381 . S
C216 C217 1.321 1_554 S
C217 C216 1.321 1_556 S
C217 C218 1.403 . S
C217 H238 0.934 . S
C218 C213 1.413 1_556 S
C218 C217 1.403 . S
C218 H239 0.930 . S
C219 O230 1.275 . S
C219 O231 1.256 . S
O220 Ho200 2.322 . S
O220 C202 1.259 . S
O221 Ho201 2.346 . S
O221 C202 1.268 . S
O222 Ho200 2.378 . S
O222 C203 1.215 . S
O223 Ho200 2.524 1_556 S
O223 C203 1.289 1_556 S
O224 Ho200 2.381 . S
O224 C210 1.275 . S
O225 Ho200 2.669 . S
O225 Ho201 2.305 . S
O225 C210 1.256 . S
O226 Ho201 2.322 1_556 S
O226 C211 1.259 1_556 S
O227 Ho200 2.346 . S
O227 C211 1.268 . S
O228 Ho201 2.378 1_556 S
O228 C212 1.215 1_556 S
O229 Ho201 2.524 . S
O229 C212 1.289 . S
O230 Ho201 2.381 1_556 S
O230 C219 1.275 . S
O231 Ho200 2.305 1_556 S
O231 Ho201 2.669 1_556 S
O231 C219 1.256 . S
H232 C205 0.930 . S
H233 C206 0.931 . S
H234 C208 0.934 . S
H235 C209 0.930 . S
H236 C214 0.930 . S
H237 C215 0.931 . S
H238 C217 0.934 . S
H239 C218 0.930 . S
Ho240 C243 2.811 . S
Ho240 O260 2.322 . S
Ho240 O262 2.378 . S
Ho240 O263 2.524 . S
Ho240 O264 2.381 . S
Ho240 O265 2.669 . S
Ho240 O267 2.346 . S
Ho240 O271 2.305 . S
Ho241 C252 2.811 . S
Ho241 O261 2.346 . S
Ho241 O265 2.305 . S
Ho241 O266 2.322 . S
Ho241 O268 2.378 . S
Ho241 O269 2.524 . S
Ho241 O270 2.381 . S
Ho241 O271 2.669 . S
C242 O260 1.259 . S
C242 O261 1.268 . S
C243 Ho240 2.811 . S
C243 C244 1.488 . S
C243 O262 1.215 . S
C243 O263 1.289 . S
C244 C243 1.488 . S
C244 C245 1.348 . S
C244 C249 1.413 . S
C245 C244 1.348 . S
C245 C246 1.442 . S
C245 H272 0.930 . S
C246 C245 1.442 . S
C246 C247 1.381 . S
C246 H273 0.931 . S
C247 C246 1.381 . S
C247 C248 1.321 . S
C248 C247 1.321 . S
C248 C249 1.403 . S
C248 H274 0.934 . S
C249 C244 1.413 . S
C249 C248 1.403 . S
C249 H275 0.930 . S
C250 O264 1.275 . S
C250 O265 1.256 . S
C251 O266 1.259 . S
C251 O267 1.268 . S
C252 Ho241 2.811 . S
C252 C253 1.488 . S
C252 O268 1.215 . S
C252 O269 1.289 . S
C253 C252 1.488 . S
C253 C254 1.348 . S
C253 C258 1.413 . S
C254 C253 1.348 . S
C254 C255 1.442 . S
C254 H276 0.930 . S
C255 C254 1.442 . S
C255 C256 1.381 . S
C255 H277 0.931 . S
C256 C255 1.381 . S
C256 C257 1.321 . S
C257 C256 1.321 . S
C257 C258 1.403 . S
C257 H278 0.934 . S
C258 C253 1.413 . S
C258 C257 1.403 . S
C258 H279 0.930 . S
C259 O270 1.275 . S
C259 O271 1.256 . S
O260 Ho240 2.322 . S
O260 C242 1.259 . S
O261 Ho241 2.346 . S
O261 C242 1.268 . S
O262 Ho240 2.378 . S
O262 C243 1.215 . S
O263 Ho240 2.524 . S
O263 C243 1.289 . S
O264 Ho240 2.381 . S
O264 C250 1.275 . S
O265 Ho240 2.669 . S
O265 Ho241 2.305 . S
O265 C250 1.256 . S
O266 Ho241 2.322 . S
O266 C251 1.259 . S
O267 Ho240 2.346 . S
O267 C251 1.268 . S
O268 Ho241 2.378 . S
O268 C252 1.215 . S
O269 Ho241 2.524 . S
O269 C252 1.289 . S
O270 Ho241 2.381 . S
O270 C259 1.275 . S
O271 Ho240 2.305 . S
O271 Ho241 2.669 . S
O271 C259 1.256 . S
H272 C245 0.930 . S
H273 C246 0.931 . S
H274 C248 0.934 . S
H275 C249 0.930 . S
H276 C254 0.930 . S
H277 C255 0.931 . S
H278 C257 0.934 . S
H279 C258 0.930 . S
Ho280 C283 2.811 . S
Ho280 O300 2.322 . S
Ho280 O302 2.378 . S
Ho280 O303 2.524 . S
Ho280 O304 2.381 . S
Ho280 O305 2.669 . S
Ho280 O307 2.346 . S
Ho280 O311 2.305 . S
Ho281 C292 2.811 . S
Ho281 O301 2.346 . S
Ho281 O305 2.305 . S
Ho281 O306 2.322 . S
Ho281 O308 2.378 . S
Ho281 O309 2.524 . S
Ho281 O310 2.381 . S
Ho281 O311 2.669 . S
C282 O300 1.259 . S
C282 O301 1.268 . S
C283 Ho280 2.811 . S
C283 C284 1.488 . S
C283 O302 1.215 . S
C283 O303 1.289 . S
C284 C283 1.488 . S
C284 C285 1.348 . S
C284 C289 1.413 . S
C285 C284 1.348 . S
C285 C286 1.442 . S
C285 H312 0.930 . S
C286 C285 1.442 . S
C286 C287 1.381 . S
C286 H313 0.931 . S
C287 C286 1.381 . S
C287 C288 1.321 . S
C288 C287 1.321 . S
C288 C289 1.403 . S
C288 H314 0.934 . S
C289 C284 1.413 . S
C289 C288 1.403 . S
C289 H315 0.930 . S
C290 O304 1.275 . S
C290 O305 1.256 . S
C291 O306 1.259 . S
C291 O307 1.268 . S
C292 Ho281 2.811 . S
C292 C293 1.488 . S
C292 O308 1.215 . S
C292 O309 1.289 . S
C293 C292 1.488 . S
C293 C294 1.348 . S
C293 C298 1.413 . S
C294 C293 1.348 . S
C294 C295 1.442 . S
C294 H316 0.930 . S
C295 C294 1.442 . S
C295 C296 1.381 . S
C295 H317 0.931 . S
C296 C295 1.381 . S
C296 C297 1.321 . S
C297 C296 1.321 . S
C297 C298 1.403 . S
C297 H318 0.934 . S
C298 C293 1.413 . S
C298 C297 1.403 . S
C298 H319 0.930 . S
C299 O310 1.275 . S
C299 O311 1.256 . S
O300 Ho280 2.322 . S
O300 C282 1.259 . S
O301 Ho281 2.346 . S
O301 C282 1.268 . S
O302 Ho280 2.378 . S
O302 C283 1.215 . S
O303 Ho280 2.524 . S
O303 C283 1.289 . S
O304 Ho280 2.381 . S
O304 C290 1.275 . S
O305 Ho280 2.669 . S
O305 Ho281 2.305 . S
O305 C290 1.256 . S
O306 Ho281 2.322 . S
O306 C291 1.259 . S
O307 Ho280 2.346 . S
O307 C291 1.268 . S
O308 Ho281 2.378 . S
O308 C292 1.215 . S
O309 Ho281 2.524 . S
O309 C292 1.289 . S
O310 Ho281 2.381 . S
O310 C299 1.275 . S
O311 Ho280 2.305 . S
O311 Ho281 2.669 . S
O311 C299 1.256 . S
H312 C285 0.930 . S
H313 C286 0.931 . S
H314 C288 0.934 . S
H315 C289 0.930 . S
H316 C294 0.930 . S
H317 C295 0.931 . S
H318 C297 0.934 . S
H319 C298 0.930 . S
H320 C326 0.930 . S
H321 C329 0.926 1_556 S
H322 C330 0.930 1_556 S
H323 C331 0.930 . S
H324 C334 0.930 . S
H325 C335 0.930 . S
C326 H320 0.930 . S
C326 C327 1.355 . S
C326 C328 1.415 . S
C327 C326 1.355 . S
C327 C329 1.419 . S
C328 C326 1.415 . S
C328 C333 1.425 . S
C328 C335 1.409 . S
C329 H321 0.926 1_554 S
C329 C327 1.419 . S
C329 C330 1.362 . S
C330 H322 0.930 1_554 S
C330 C329 1.362 . S
C330 C333 1.409 . S
C331 H323 0.930 . S
C331 C332 1.355 . S
C331 C333 1.415 . S
C332 C331 1.355 . S
C332 C334 1.419 . S
C333 C328 1.425 . S
C333 C330 1.409 . S
C333 C331 1.415 . S
C334 H324 0.930 . S
C334 C332 1.419 . S
C334 C335 1.362 . S
C335 H325 0.930 . S
C335 C328 1.409 . S
C335 C334 1.362 . S
H336 C342 0.930 . S
H337 C345 0.930 . S
H338 C346 0.930 . S
H339 C347 0.930 . S
H340 C350 0.930 . S
H341 C351 0.930 . S
C342 H336 0.930 . S
C342 C343 1.355 . S
C342 C344 1.415 . S
C343 C342 1.355 . S
C343 C345 1.419 . S
C344 C342 1.415 . S
C344 C349 1.425 . S
C344 C351 1.409 . S
C345 H337 0.930 . S
C345 C343 1.419 . S
C345 C346 1.362 . S
C346 H338 0.930 . S
C346 C345 1.362 . S
C346 C349 1.409 . S
C347 H339 0.930 . S
C347 C348 1.355 . S
C347 C349 1.415 . S
C348 C347 1.355 . S
C348 C350 1.419 . S
C349 C344 1.425 . S
C349 C346 1.409 . S
C349 C347 1.415 . S
C350 H340 0.930 . S
C350 C348 1.419 . S
C350 C351 1.362 . S
C351 H341 0.930 . S
C351 C344 1.409 . S
C351 C350 1.362 . S
H352 C358 0.930 . S
H353 C361 0.930 . S
H354 C362 0.930 . S
H355 C363 0.930 . S
H356 C366 0.930 . S
H357 C367 0.930 . S
C358 H352 0.930 . S
C358 C359 1.355 . S
C358 C360 1.415 . S
C359 C358 1.355 . S
C359 C361 1.419 . S
C360 C358 1.415 . S
C360 C365 1.425 . S
C360 C367 1.409 . S
C361 H353 0.930 . S
C361 C359 1.419 . S
C361 C362 1.362 . S
C362 H354 0.930 . S
C362 C361 1.362 . S
C362 C365 1.409 . S
C363 H355 0.930 . S
C363 C364 1.355 . S
C363 C365 1.415 . S
C364 C363 1.355 . S
C364 C366 1.419 . S
C365 C360 1.425 . S
C365 C362 1.409 . S
C365 C363 1.415 . S
C366 H356 0.930 . S
C366 C364 1.419 . S
C366 C367 1.362 . S
C367 H357 0.930 . S
C367 C360 1.409 . S
C367 C366 1.362 . S
H368 C374 0.930 . S
H369 C377 0.930 . S
H370 C378 0.930 . S
H371 C379 0.930 . S
H372 C382 0.930 . S
H373 C383 0.930 . S
C374 H368 0.930 . S
C374 C375 1.355 . S
C374 C376 1.415 . S
C375 C374 1.355 . S
C375 C377 1.419 . S
C376 C374 1.415 . S
C376 C381 1.425 . S
C376 C383 1.409 . S
C377 H369 0.930 . S
C377 C375 1.419 . S
C377 C378 1.362 . S
C378 H370 0.930 . S
C378 C377 1.362 . S
C378 C381 1.409 . S
C379 H371 0.930 . S
C379 C380 1.355 . S
C379 C381 1.415 . S
C380 C379 1.355 . S
C380 C382 1.419 . S
C381 C376 1.425 . S
C381 C378 1.409 . S
C381 C379 1.415 . S
C382 H372 0.930 . S
C382 C380 1.419 . S
C382 C383 1.362 . S
C383 H373 0.930 . S
C383 C376 1.409 . S
C383 C382 1.362 . S
H384 C390 0.930 . S
H385 C393 0.930 . S
H386 C394 0.930 . S
H387 C395 0.930 1_556 S
H388 C398 0.930 . S
H389 C399 0.930 . S
C390 H384 0.930 . S
C390 C391 1.355 . S
C390 C392 1.415 1_655 S
C391 C390 1.355 . S
C391 C393 1.419 1_554 S
C392 C390 1.415 1_455 S
C392 C397 1.425 . S
C392 C399 1.409 . S
C393 H385 0.930 . S
C393 C391 1.419 1_556 S
C393 C394 1.362 1_655 S
C394 H386 0.930 . S
C394 C393 1.362 1_455 S
C394 C397 1.409 1_556 S
C395 H387 0.930 1_554 S
C395 C396 1.355 . S
C395 C397 1.415 . S
C396 C395 1.355 . S
C396 C398 1.419 . S
C397 C392 1.425 . S
C397 C394 1.409 1_554 S
C397 C395 1.415 . S
C398 H388 0.930 . S
C398 C396 1.419 . S
C398 C399 1.362 . S
C399 H389 0.930 . S
C399 C392 1.409 . S
C399 C398 1.362 . S
H400 C406 0.930 . S
H401 C409 0.930 . S
H402 C410 0.930 . S
H403 C411 0.930 . S
H404 C414 0.930 . S
H405 C415 0.930 . S
C406 H400 0.930 . S
C406 C407 1.355 1_556 S
C406 C408 1.415 1_456 S
C407 C406 1.355 1_554 S
C407 C409 1.419 . S
C408 C406 1.415 1_654 S
C408 C413 1.425 . S
C408 C415 1.409 1_554 S
C409 H401 0.930 . S
C409 C407 1.419 . S
C409 C410 1.362 1_455 S
C410 H402 0.930 . S
C410 C409 1.362 1_655 S
C410 C413 1.409 . S
C411 H403 0.930 . S
C411 C412 1.355 . S
C411 C413 1.415 . S
C412 C411 1.355 . S
C412 C414 1.419 1_554 S
C413 C408 1.425 . S
C413 C410 1.409 . S
C413 C411 1.415 . S
C414 H404 0.930 . S
C414 C412 1.419 1_556 S
C414 C415 1.362 . S
C415 H405 0.930 . S
C415 C408 1.409 1_556 S
C415 C414 1.362 . S
H416 C422 0.930 . S
H417 C425 0.930 . S
H418 C426 0.930 . S
H419 C427 0.930 . S
H420 C430 0.930 . S
H421 C431 0.930 1_455 S
C422 H416 0.930 . S
C422 C423 1.355 . S
C422 C424 1.415 . S
C423 C422 1.355 . S
C423 C425 1.419 . S
C424 C422 1.415 . S
C424 C429 1.425 . S
C424 C431 1.409 1_455 S
C425 H417 0.930 . S
C425 C423 1.419 . S
C425 C426 1.362 . S
C426 H418 0.930 . S
C426 C425 1.362 . S
C426 C429 1.409 . S
C427 H419 0.930 . S
C427 C428 1.355 . S
C427 C429 1.415 1_655 S
C428 C427 1.355 . S
C428 C430 1.419 . S
C429 C424 1.425 . S
C429 C426 1.409 . S
C429 C427 1.415 1_455 S
C430 H420 0.930 . S
C430 C428 1.419 . S
C430 C431 1.362 . S
C431 H421 0.930 1_655 S
C431 C424 1.409 1_655 S
C431 C430 1.362 . S
H432 C438 0.930 . S
H433 C441 0.930 . S
H434 C442 0.930 . S
H435 C443 0.930 . S
H436 C446 0.930 . S
H437 C447 0.930 . S
C438 H432 0.930 . S
C438 C439 1.355 . S
C438 C440 1.415 . S
C439 C438 1.355 . S
C439 C441 1.419 . S
C440 C438 1.415 . S
C440 C445 1.425 . S
C440 C447 1.409 . S
C441 H433 0.930 . S
C441 C439 1.419 . S
C441 C442 1.362 . S
C442 H434 0.930 . S
C442 C441 1.362 . S
C442 C445 1.409 . S
C443 H435 0.930 . S
C443 C444 1.355 . S
C443 C445 1.415 1_455 S
C444 C443 1.355 . S
C444 C446 1.419 . S
C445 C440 1.425 . S
C445 C442 1.409 . S
C445 C443 1.415 1_655 S
C446 H436 0.930 . S
C446 C444 1.419 . S
C446 C447 1.362 1_455 S
C447 H437 0.930 . S
C447 C440 1.409 . S
C447 C446 1.362 1_655 S
H448 C454 0.930 . S
H449 C457 0.930 . S
H450 C458 0.930 1_655 S
H451 C459 0.930 . S
H452 C462 0.930 . S
H453 C463 0.930 1_455 S
C454 H448 0.930 . S
C454 C455 1.355 1_556 S
C454 C456 1.415 . S
C455 C454 1.355 1_554 S
C455 C457 1.419 . S
C456 C454 1.415 . S
C456 C461 1.425 1_456 S
C456 C463 1.409 1_455 S
C457 H449 0.930 . S
C457 C455 1.419 . S
C457 C458 1.362 . S
C458 H450 0.930 1_455 S
C458 C457 1.362 . S
C458 C461 1.409 1_455 S
C459 H451 0.930 . S
C459 C460 1.355 . S
C459 C461 1.415 . S
C460 C459 1.355 . S
C460 C462 1.419 1_554 S
C461 C456 1.425 1_654 S
C461 C458 1.409 1_655 S
C461 C459 1.415 . S
C462 H452 0.930 . S
C462 C460 1.419 1_556 S
C462 C463 1.362 . S
C463 H453 0.930 1_655 S
C463 C456 1.409 1_655 S
C463 C462 1.362 . S
H464 C470 0.930 . S
H465 C473 0.930 . S
H466 C474 0.930 . S
H467 C475 0.930 . S
H468 C478 0.930 . S
H469 C479 0.930 . S
C470 H464 0.930 . S
C470 C471 1.355 . S
C470 C472 1.415 1_455 S
C471 C470 1.355 . S
C471 C473 1.419 . S
C472 C470 1.415 1_655 S
C472 C477 1.425 1_655 S
C472 C479 1.409 . S
C473 H465 0.930 . S
C473 C471 1.419 . S
C473 C474 1.362 . S
C474 H466 0.930 . S
C474 C473 1.362 . S
C474 C477 1.409 . S
C475 H467 0.930 . S
C475 C476 1.355 . S
C475 C477 1.415 1_655 S
C476 C475 1.355 . S
C476 C478 1.419 . S
C477 C472 1.425 1_455 S
C477 C474 1.409 . S
C477 C475 1.415 1_455 S
C478 H468 0.930 . S
C478 C476 1.419 . S
C478 C479 1.362 . S
C479 H469 0.930 . S
C479 C472 1.409 . S
C479 C478 1.362 . S
H480 C486 0.930 . S
H481 C489 0.930 . S
H482 C490 0.930 . S
H483 C491 0.930 . S
H484 C494 0.930 . S
H485 C495 0.930 . S
C486 H480 0.930 . S
C486 C487 1.355 . S
C486 C488 1.415 . S
C487 C486 1.355 . S
C487 C489 1.419 . S
C488 C486 1.415 . S
C488 C493 1.425 1_565 S
C488 C495 1.409 . S
C489 H481 0.930 . S
C489 C487 1.419 . S
C489 C490 1.362 1_565 S
C490 H482 0.930 . S
C490 C489 1.362 1_545 S
C490 C493 1.409 . S
C491 H483 0.930 . S
C491 C492 1.355 . S
C491 C493 1.415 . S
C492 C491 1.355 . S
C492 C494 1.419 . S
C493 C488 1.425 1_545 S
C493 C490 1.409 . S
C493 C491 1.415 . S
C494 H484 0.930 . S
C494 C492 1.419 . S
C494 C495 1.362 1_545 S
C495 H485 0.930 . S
C495 C488 1.409 . S
C495 C494 1.362 1_565 S
H496 C502 0.930 . S
H497 C505 0.930 . S
H498 C506 0.934 . S
H499 C507 0.930 . S
H500 C510 0.930 . S
H501 C511 0.934 . S
C502 H496 0.930 . S
C502 C503 1.355 . S
C502 C504 1.415 . S
C503 C502 1.355 . S
C503 C505 1.419 . S
C504 C502 1.415 . S
C504 C509 1.425 1_545 S
C504 C511 1.411 . S
C505 H497 0.930 . S
C505 C503 1.419 . S
C505 C506 1.357 1_545 S
C506 H498 0.934 . S
C506 C505 1.357 1_565 S
C506 C509 1.411 . S
C507 H499 0.930 . S
C507 C508 1.355 . S
C507 C509 1.415 . S
C508 C507 1.355 . S
C508 C510 1.419 . S
C509 C504 1.425 1_565 S
C509 C506 1.411 . S
C509 C507 1.415 . S
C510 H500 0.930 . S
C510 C508 1.419 . S
C510 C511 1.357 1_565 S
C511 H501 0.934 . S
C511 C504 1.411 . S
C511 C510 1.357 1_545 S
H512 C518 0.930 . S
H513 C521 0.930 . S
H514 C522 0.930 . S
H515 C523 0.930 . S
H516 C526 0.930 . S
H517 C527 0.930 . S
C518 H512 0.930 . S
C518 C519 1.355 . S
C518 C520 1.415 . S
C519 C518 1.355 . S
C519 C521 1.419 1_554 S
C520 C518 1.415 . S
C520 C525 1.423 1_554 S
C520 C527 1.409 . S
C521 H513 0.930 . S
C521 C519 1.419 1_556 S
C521 C522 1.362 . S
C522 H514 0.930 . S
C522 C521 1.362 . S
C522 C525 1.410 . S
C523 H515 0.930 . S
C523 C524 1.355 1_556 S
C523 C525 1.416 . S
C524 C523 1.355 1_554 S
C524 C526 1.419 . S
C525 C520 1.423 1_556 S
C525 C522 1.410 . S
C525 C523 1.416 . S
C526 H516 0.930 . S
C526 C524 1.419 . S
C526 C527 1.362 . S
C527 H517 0.930 . S
C527 C520 1.409 . S
C527 C526 1.362 . S
H528 C534 0.930 . S
H529 C537 0.930 . S
H530 C538 0.930 . S
H531 C539 0.930 . S
H532 C542 0.930 . S
H533 C543 0.930 . S
C534 H528 0.930 . S
C534 C535 1.355 1_556 S
C534 C536 1.415 . S
C535 C534 1.355 1_554 S
C535 C537 1.419 . S
C536 C534 1.415 . S
C536 C541 1.425 1_556 S
C536 C543 1.409 . S
C537 H529 0.930 . S
C537 C535 1.419 . S
C537 C538 1.362 . S
C538 H530 0.930 . S
C538 C537 1.362 . S
C538 C541 1.409 . S
C539 H531 0.930 . S
C539 C540 1.355 . S
C539 C541 1.415 . S
C540 C539 1.355 . S
C540 C542 1.419 1_554 S
C541 C536 1.425 1_554 S
C541 C538 1.409 . S
C541 C539 1.415 . S
C542 H532 0.930 . S
C542 C540 1.419 1_556 S
C542 C543 1.362 . S
C543 H533 0.930 . S
C543 C536 1.409 . S
C543 C542 1.362 . S
H544 C550 0.930 . S
H545 C553 0.930 . S
H546 C554 0.930 . S
H547 C555 0.930 . S
H548 C558 0.930 . S
H549 C559 0.930 . S
C550 H544 0.930 . S
C550 C551 1.355 . S
C550 C552 1.415 . S
C551 C550 1.355 . S
C551 C553 1.419 . S
C552 C550 1.415 . S
C552 C557 1.425 . S
C552 C559 1.409 . S
C553 H545 0.930 . S
C553 C551 1.419 . S
C553 C554 1.362 . S
C554 H546 0.930 . S
C554 C553 1.362 . S
C554 C557 1.409 . S
C555 H547 0.930 . S
C555 C556 1.355 . S
C555 C557 1.415 . S
C556 C555 1.355 . S
C556 C558 1.419 . S
C557 C552 1.425 . S
C557 C554 1.409 . S
C557 C555 1.415 . S
C558 H548 0.930 . S
C558 C556 1.419 . S
C558 C559 1.362 . S
C559 H549 0.930 . S
C559 C552 1.409 . S
C559 C558 1.362 . S
H560 C566 0.930 . S
H561 C569 0.930 . S
H562 C570 0.930 . S
H563 C571 0.930 . S
H564 C574 0.930 . S
H565 C575 0.930 . S
C566 H560 0.930 . S
C566 C567 1.355 . S
C566 C568 1.415 . S
C567 C566 1.355 . S
C567 C569 1.419 . S
C568 C566 1.415 . S
C568 C573 1.425 . S
C568 C575 1.409 . S
C569 H561 0.930 . S
C569 C567 1.419 . S
C569 C570 1.362 . S
C570 H562 0.930 . S
C570 C569 1.362 . S
C570 C573 1.409 . S
C571 H563 0.930 . S
C571 C572 1.355 . S
C571 C573 1.415 . S
C572 C571 1.355 . S
C572 C574 1.419 . S
C573 C568 1.425 . S
C573 C570 1.409 . S
C573 C571 1.415 . S
C574 H564 0.930 . S
C574 C572 1.419 . S
C574 C575 1.362 . S
C575 H565 0.930 . S
C575 C568 1.409 . S
C575 C574 1.362 . S
H576 C582 0.930 . S
H577 C585 0.930 . S
H578 C586 0.930 . S
H579 C587 0.930 . S
H580 C590 0.930 . S
H581 C591 0.930 . S
C582 H576 0.930 . S
C582 C583 1.355 . S
C582 C584 1.415 . S
C583 C582 1.355 . S
C583 C585 1.419 1_455 S
C584 C582 1.415 . S
C584 C589 1.425 1_455 S
C584 C591 1.409 . S
C585 H577 0.930 . S
C585 C583 1.419 1_655 S
C585 C586 1.362 . S
C586 H578 0.930 . S
C586 C585 1.362 . S
C586 C589 1.409 . S
C587 H579 0.930 . S
C587 C588 1.355 . S
C587 C589 1.415 . S
C588 C587 1.355 . S
C588 C590 1.419 1_655 S
C589 C584 1.425 1_655 S
C589 C586 1.409 . S
C589 C587 1.415 . S
C590 H580 0.930 . S
C590 C588 1.419 1_455 S
C590 C591 1.362 . S
C591 H581 0.930 . S
C591 C584 1.409 . S
C591 C590 1.362 . S
H592 C598 0.930 . S
H593 C601 0.930 . S
H594 C602 0.930 . S
H595 C603 0.930 . S
H596 C606 0.930 . S
H597 C607 0.930 . S
C598 H592 0.930 . S
C598 C599 1.355 1_455 S
C598 C600 1.415 . S
C599 C598 1.355 1_655 S
C599 C601 1.419 . S
C600 C598 1.415 . S
C600 C605 1.425 1_455 S
C600 C607 1.409 . S
C601 H593 0.930 . S
C601 C599 1.419 . S
C601 C602 1.362 . S
C602 H594 0.930 . S
C602 C601 1.362 . S
C602 C605 1.409 . S
C603 H595 0.930 . S
C603 C604 1.355 1_655 S
C603 C605 1.415 . S
C604 C603 1.355 1_455 S
C604 C606 1.419 . S
C605 C600 1.425 1_655 S
C605 C602 1.409 . S
C605 C603 1.415 . S
C606 H596 0.930 . S
C606 C604 1.419 . S
C606 C607 1.362 . S
C607 H597 0.930 . S
C607 C600 1.409 . S
C607 C606 1.362 . S
H608 C614 0.930 . S
H609 C617 0.930 . S
H610 C618 0.930 . S
H611 C619 0.930 . S
H612 C622 0.930 . S
H613 C623 0.930 . S
C614 H608 0.930 . S
C614 C615 1.355 . S
C614 C616 1.415 . S
C615 C614 1.355 . S
C615 C617 1.419 1_655 S
C616 C614 1.415 . S
C616 C621 1.425 1_655 S
C616 C623 1.409 . S
C617 H609 0.930 . S
C617 C615 1.419 1_455 S
C617 C618 1.362 . S
C618 H610 0.930 . S
C618 C617 1.362 . S
C618 C621 1.409 . S
C619 H611 0.930 . S
C619 C620 1.355 . S
C619 C621 1.415 . S
C620 C619 1.355 . S
C620 C622 1.419 1_455 S
C621 C616 1.425 1_455 S
C621 C618 1.409 . S
C621 C619 1.415 . S
C622 H612 0.930 . S
C622 C620 1.419 1_655 S
C622 C623 1.362 . S
C623 H613 0.930 . S
C623 C616 1.409 . S
C623 C622 1.362 . S
H624 C630 0.930 . S
H625 C633 0.930 . S
H626 C634 0.930 . S
H627 C635 0.930 . S
H628 C638 0.930 . S
H629 C639 0.930 . S
C630 H624 0.930 . S
C630 C631 1.355 1_455 S
C630 C632 1.415 . S
C631 C630 1.355 1_655 S
C631 C633 1.419 . S
C632 C630 1.415 . S
C632 C637 1.425 1_455 S
C632 C639 1.409 . S
C633 H625 0.930 . S
C633 C631 1.419 . S
C633 C634 1.362 . S
C634 H626 0.930 . S
C634 C633 1.362 . S
C634 C637 1.409 . S
C635 H627 0.930 . S
C635 C636 1.355 1_655 S
C635 C637 1.415 . S
C636 C635 1.355 1_455 S
C636 C638 1.419 . S
C637 C632 1.425 1_655 S
C637 C634 1.409 . S
C637 C635 1.415 . S
C638 H628 0.930 . S
C638 C636 1.419 . S
C638 C639 1.362 . S
C639 H629 0.930 . S
C639 C632 1.409 . S
C639 C638 1.362 . S
H640 C646 0.930 . S
H641 C649 0.930 . S
H642 C650 0.930 . S
H643 C651 0.930 . S
H644 C654 0.930 . S
H645 C655 0.930 . S
C646 H640 0.930 . S
C646 C647 1.355 . S
C646 C648 1.415 . S
C647 C646 1.355 . S
C647 C649 1.419 . S
C648 C646 1.415 . S
C648 C653 1.425 . S
C648 C655 1.409 . S
C649 H641 0.930 . S
C649 C647 1.419 . S
C649 C650 1.362 . S
C650 H642 0.930 . S
C650 C649 1.362 . S
C650 C653 1.409 . S
C651 H643 0.930 . S
C651 C652 1.355 . S
C651 C653 1.415 . S
C652 C651 1.355 . S
C652 C654 1.419 . S
C653 C648 1.425 . S
C653 C650 1.409 . S
C653 C651 1.415 . S
C654 H644 0.930 . S
C654 C652 1.419 . S
C654 C655 1.362 . S
C655 H645 0.930 . S
C655 C648 1.409 . S
C655 C654 1.362 . S
H656 C662 0.930 . S
H657 C665 0.930 . S
H658 C666 0.930 . S
H659 C667 0.930 . S
H660 C670 0.930 . S
H661 C671 0.930 . S
C662 H656 0.930 . S
C662 C663 1.355 . S
C662 C664 1.415 . S
C663 C662 1.355 . S
C663 C665 1.419 . S
C664 C662 1.415 . S
C664 C669 1.425 . S
C664 C671 1.409 . S
C665 H657 0.930 . S
C665 C663 1.419 . S
C665 C666 1.362 . S
C666 H658 0.930 . S
C666 C665 1.362 . S
C666 C669 1.409 . S
C667 H659 0.930 . S
C667 C668 1.355 . S
C667 C669 1.415 . S
C668 C667 1.355 . S
C668 C670 1.419 . S
C669 C664 1.425 . S
C669 C666 1.409 . S
C669 C667 1.415 . S
C670 H660 0.930 . S
C670 C668 1.419 . S
C670 C671 1.362 . S
C671 H661 0.930 . S
C671 C664 1.409 . S
C671 C670 1.362 . S
H672 C678 0.930 . S
H673 C681 0.930 . S
H674 C682 0.930 . S
H675 C683 0.930 . S
H676 C686 0.930 . S
H677 C687 0.930 . S
C678 H672 0.930 . S
C678 C679 1.355 . S
C678 C680 1.415 . S
C679 C678 1.355 . S
C679 C681 1.419 . S
C680 C678 1.415 . S
C680 C685 1.425 . S
C680 C687 1.409 . S
C681 H673 0.930 . S
C681 C679 1.419 . S
C681 C682 1.362 . S
C682 H674 0.930 . S
C682 C681 1.362 . S
C682 C685 1.409 . S
C683 H675 0.930 . S
C683 C684 1.355 . S
C683 C685 1.415 . S
C684 C683 1.355 . S
C684 C686 1.419 . S
C685 C680 1.425 . S
C685 C682 1.409 . S
C685 C683 1.415 . S
C686 H676 0.930 . S
C686 C684 1.419 . S
C686 C687 1.362 . S
C687 H677 0.930 . S
C687 C680 1.409 . S
C687 C686 1.362 . S
H688 C694 0.930 . S
H689 C697 0.930 . S
H690 C698 0.930 . S
H691 C699 0.930 . S
H692 C702 0.930 . S
H693 C703 0.930 . S
C694 H688 0.930 . S
C694 C695 1.355 . S
C694 C696 1.415 . S
C695 C694 1.355 . S
C695 C697 1.419 . S
C696 C694 1.415 . S
C696 C701 1.425 . S
C696 C703 1.409 . S
C697 H689 0.930 . S
C697 C695 1.419 . S
C697 C698 1.362 . S
C698 H690 0.930 . S
C698 C697 1.362 . S
C698 C701 1.409 . S
C699 H691 0.930 . S
C699 C700 1.355 . S
C699 C701 1.415 . S
C700 C699 1.355 . S
C700 C702 1.419 . S
C701 C696 1.425 . S
C701 C698 1.409 . S
C701 C699 1.415 . S
C702 H692 0.930 . S
C702 C700 1.419 . S
C702 C703 1.362 . S
C703 H693 0.930 . S
C703 C696 1.409 . S
C703 C702 1.362 . S
C327 C11 2.308 . S
C332 C2 2.308 . S
C343 C51 2.310 . S
C348 C42 2.310 . S
C359 C91 2.280 . S
C364 C82 2.280 . S
C375 C131 2.313 . S
C380 C122 2.313 . S
C391 C171 2.302 . S
C396 C162 2.302 . S
C407 C202 2.311 . S
C412 C211 2.311 . S
C423 C251 2.270 . S
C428 C242 2.270 . S
C439 C282 2.278 . S
C444 C291 2.278 . S
C455 C56 2.738 . S
C460 C7 2.738 . S
C471 C127 2.739 . S
C476 C96 2.739 . S
C487 C167 2.770 . S
C492 C216 2.770 . S
C503 C256 2.771 . S
C508 C287 2.771 . S
C519 C16 1.945 . S
C524 C207 1.945 . S
C535 C176 1.918 . S
C540 C47 1.918 . S
C551 C87 1.884 . S
C556 C296 1.884 . S
C567 C136 1.892 . S
C572 C247 1.892 . S
C583 C10 1.488 . S
C588 C130 1.448 . S
C599 C50 1.625 . S
C604 C90 1.601 . S
C615 C59 1.446 . S
C620 C99 1.491 . S
C631 C139 1.573 . S
C636 C19 1.629 . S
C647 C170 1.503 . S
C652 C290 1.462 . S
C663 C210 1.625 . S
C668 C250 1.599 . S
C679 C219 1.500 . S
C684 C259 1.467 . S
C695 C299 1.558 . S
C700 C179 1.595 . S
