# Generated by pormake.
# Topology bcu, (8)-cn, num edge types: 1
# Building blocks:
#     Node 0, Type 0, BuildingBlock: LIZSOE_clean_sbu_0, # of connection points: 8
#     Node 1, Type 0, BuildingBlock: LIZSOE_clean_sbu_0, # of connection points: 8
#     Edge 2, Type (0, 0), BuildingBlock: TEMPAE_clean_linker_10, # of connection points: 2
#     Edge 3, Type (0, 0), BuildingBlock: TEMPAE_clean_linker_10, # of connection points: 2
#     Edge 4, Type (0, 0), BuildingBlock: TEMPAE_clean_linker_10, # of connection points: 2
#     Edge 5, Type (0, 0), BuildingBlock: TEMPAE_clean_linker_10, # of connection points: 2
#     Edge 6, Type (0, 0), BuildingBlock: TEMPAE_clean_linker_10, # of connection points: 2
#     Edge 7, Type (0, 0), BuildingBlock: TEMPAE_clean_linker_10, # of connection points: 2
#     Edge 8, Type (0, 0), BuildingBlock: TEMPAE_clean_linker_10, # of connection points: 2
#     Edge 9, Type (0, 0), BuildingBlock: TEMPAE_clean_linker_10, # of connection points: 2
# Relax obj value: 0.003
# Max RMSD: 0.034
# Mean RMSD: 0.034
data_MOF--net-bcu--node1-LIZSOE_clean_sbu_0--edge1-TEMPAE_clean_linker_10
_symmetry_space_group_name_H-M    P1
_symmetry_Int_Tables_number       1
_symmetry_cell_setting            triclinic
loop_
_symmetry_equiv_pos_as_xyz
'x, y, z'
_cell_length_a     20.062685
_cell_length_b     20.268484
_cell_length_c     21.200549
_cell_angle_alpha  111.85668
_cell_angle_beta   68.642124
_cell_angle_gamma 110.09202
loop_
_atom_site_label
_atom_site_type_symbol
_atom_site_fract_x
_atom_site_fract_y
_atom_site_fract_z
_atom_type_partial_charge
Co0 Co 0.12991 0.89354 -0.01004 0.0
N1 N 0.14921 0.83606 0.02837 0.0
C2 C 0.18182 0.78339 0.9788 0.0
N3 N 0.16324 0.7648 0.07998 0.0
C4 C 0.13768 0.82303 0.09036 0.0
C5 C 0.19085 0.74017 0.00992 0.0
Co6 Co 0.97857 0.12342 0.96943 0.0
N7 N 0.95007 0.16862 0.92519 0.0
N8 N 0.92891 0.22487 0.86347 0.0
C9 C 0.86414 0.1853 0.89378 0.0
C10 C 0.87718 0.1517 0.93189 0.0
C11 C 0.98058 0.21471 0.88368 0.0
Co12 Co 0.06123 0.01526 0.98073 0.0
C13 C 1.00292 0.15529 0.05905 0.0
H14 H 0.83614 0.11504 0.96131 0.0
O15 O 0.12122 0.94215 0.9418 0.0
O16 O 0.13957 0.07261 0.91668 0.0
O17 O 0.11378 0.07061 0.05649 0.0
O18 O 0.98233 0.95762 0.04571 0.0
O19 O 1.03056 0.86762 0.03377 0.0
O20 O 0.07202 0.13187 0.90502 0.0
O21 O 0.99868 0.08729 0.01973 0.0
O22 O 0.94352 0.03247 0.91158 0.0
O23 O 0.14392 0.97982 0.06872 0.0
O24 O 0.22259 0.92254 0.94587 0.0
O25 O 1.00694 0.95674 0.90484 0.0
O26 O 1.01604 0.20527 0.02836 0.0
C27 C 0.14035 0.04672 0.08813 0.0
C28 C 0.06146 0.24839 0.8613 0.0
H29 H 0.08553 0.26577 0.90615 0.0
H30 H 0.08886 0.20719 0.81737 0.0
H31 H 0.07222 0.29631 0.84256 0.0
C32 C 0.13216 0.11446 0.88869 0.0
C33 C 0.97722 0.89792 0.05696 0.0
H34 H 0.19714 0.77643 0.92273 0.0
H35 H 0.13139 0.89274 0.19571 0.0
H36 H 1.05029 0.82145 0.18548 0.0
H37 H 0.06993 0.90028 0.15499 0.0
C38 C 0.09466 0.86215 0.16043 0.0
C39 C 0.19277 0.94947 0.919 0.0
C40 C 0.95851 0.97011 0.8878 0.0
H41 H 0.21641 0.69426 -0.01677 0.0
H42 H 0.81122 0.17977 0.88722 0.0
Co43 Co 0.65497 0.43355 0.486 0.0
N44 N 0.70161 0.40245 0.52706 0.0
C45 C 0.6775 0.33156 0.52692 0.0
N46 N 0.76502 0.37928 0.58123 0.0
C47 C 0.7566 0.4302 0.55957 0.0
C48 C 0.71533 0.3175 0.5608 0.0
Co49 Co 0.45191 0.55843 0.44409 0.0
N50 N 0.41719 0.53783 0.36561 0.0
N51 N 0.36309 0.54319 0.29192 0.0
C52 C 0.3935 0.48533 0.26052 0.0
C53 C 0.42708 0.48253 0.30554 0.0
C54 C 0.38046 0.57582 0.35417 0.0
Co55 Co 0.54809 0.52152 0.48091 0.0
C56 C 0.43029 0.62662 0.54341 0.0
H57 H 0.45864 0.4438 0.29411 0.0
O58 O 0.61722 0.4556 0.43785 0.0
O59 O 0.606 0.57499 0.40505 0.0
O60 O 0.61135 0.59703 0.54229 0.0
O61 O 0.49066 0.46855 0.55725 0.0
O62 O 0.56453 0.39959 0.54367 0.0
O63 O 0.5255 0.63337 0.41453 0.0
O64 O 0.4799 0.58993 0.52653 0.0
O65 O 0.38111 0.47888 0.47065 0.0
O66 O 0.66415 0.52458 0.55465 0.0
O67 O 0.73654 0.47208 0.42866 0.0
O68 O 0.48354 0.44252 0.41948 0.0
O69 O 0.39349 0.61432 0.50024 0.0
C70 C 0.65044 0.58626 0.57152 0.0
C71 C 0.3711 0.65152 0.39876 0.0
H72 H 0.42013 0.68437 0.41844 0.0
H73 H 0.36413 0.6817 0.36829 0.0
H74 H 0.3214 0.64739 0.44416 0.0
C75 C 0.59038 0.62387 0.39131 0.0
C76 C 0.50366 0.41864 0.57198 0.0
H77 H 0.63356 0.29269 0.50464 0.0
H78 H 0.86137 0.50748 0.55827 0.0
H79 H 0.78543 0.53793 0.62693 0.0
H80 H 0.79757 0.53518 0.53699 0.0
C81 C 0.80264 0.50731 0.57053 0.0
C82 C 0.68553 0.45968 0.39853 0.0
C83 C 0.41292 0.42719 0.43507 0.0
H84 H 0.7061 0.26618 0.57117 0.0
H85 H 0.39225 0.4484 0.20848 0.0
C86 C 0.18626 0.07378 0.19286 0.0
C87 C 0.17379 0.09924 0.14592 0.0
C88 C 0.22237 0.12177 0.24468 0.0
C89 C 0.24849 0.19722 0.24883 0.0
C90 C 0.23542 0.22356 0.20213 0.0
C91 C 0.19763 0.17448 0.15182 0.0
C92 C 0.2331 0.09155 0.29458 0.0
C93 C 0.26372 0.30326 0.20358 0.0
C94 C 0.29339 0.3436 0.41306 0.0
C95 C 0.37075 0.3588 0.39424 0.0
C96 C 0.25269 0.28877 0.36781 0.0
C97 C 0.29013 0.24868 0.30138 0.0
C98 C 0.36784 0.26075 0.28384 0.0
C99 C 0.40707 0.31475 0.33101 0.0
C100 C 0.16981 0.27636 0.38974 0.0
C101 C 0.41015 0.21992 0.2133 0.0
H102 H 0.16802 0.01602 0.18899 0.0
H103 H 0.189 0.19478 0.11548 0.0
H104 H 0.21003 0.12153 0.35006 0.0
H105 H 0.20638 0.03221 0.2867 0.0
H106 H 0.2928 0.09971 0.28687 0.0
H107 H 0.24611 0.31583 0.16619 0.0
H108 H 0.24424 0.33867 0.25748 0.0
H109 H 0.32485 0.31769 0.18939 0.0
H110 H 0.26461 0.37664 0.4622 0.0
H111 H 0.46673 0.32594 0.31594 0.0
H112 H 0.14316 0.21705 0.38147 0.0
H113 H 0.15316 0.29579 0.35653 0.0
H114 H 0.14847 0.30576 0.44599 0.0
H115 H 0.38671 0.16003 0.20367 0.0
H116 H 0.4696 0.23189 0.20956 0.0
H117 H 0.40513 0.23558 0.17062 0.0
C118 C 0.95193 0.22488 0.18247 0.0
C119 C 0.94056 0.16714 0.12253 0.0
C120 C 0.89549 0.26061 0.22776 0.0
C121 C 0.8283 0.24127 0.20969 0.0
C122 C 0.81466 0.17918 0.15246 0.0
C123 C 0.86996 0.14114 0.11141 0.0
C124 C 0.91013 0.32289 0.29168 0.0
C125 C 0.74592 0.15815 0.12865 0.0
C126 C 0.67378 0.3282 0.34408 0.0
C127 C 0.69723 0.3983 0.33408 0.0
C128 C 0.71443 0.27517 0.30282 0.0
C129 C 0.77629 0.29037 0.24629 0.0
C130 C 0.79259 0.35654 0.22898 0.0
C131 C 0.75441 0.41087 0.27456 0.0
C132 C 0.69659 0.20759 0.32597 0.0
C133 C 0.85444 0.37261 0.16577 0.0
H134 H 1.00648 0.24572 0.19086 0.0
H135 H 0.86124 0.09726 0.06435 0.0
H136 H 0.92386 0.37585 0.28019 0.0
H137 H 0.86044 0.32148 0.33747 0.0
H138 H 0.95698 0.32092 0.30652 0.0
H139 H 0.73699 0.1014 0.09309 0.0
H140 H 0.69618 0.16291 0.174 0.0
H141 H 0.75187 0.19607 0.09926 0.0
H142 H 0.63037 0.31859 0.39081 0.0
H143 H 0.77329 0.46505 0.267 0.0
H144 H 0.7349 0.21627 0.35671 0.0
H145 H 0.70393 0.1585 0.28034 0.0
H146 H 0.63931 0.1964 0.36019 0.0
H147 H 0.90813 0.38878 0.1779 0.0
H148 H 0.84994 0.41797 0.15131 0.0
H149 H 0.85456 0.3232 0.11953 0.0
C150 C 0.88052 0.90344 0.17196 0.0
C151 C 0.90973 0.86353 0.10295 0.0
C152 C 0.82746 0.86734 0.22121 0.0
C153 C 0.80242 0.78994 0.20015 0.0
C154 C 0.82925 0.75011 0.12933 0.0
C155 C 0.88328 0.78733 0.08194 0.0
C156 C 0.80094 0.91156 0.29648 0.0
C157 C 0.8027 0.66787 0.10409 0.0
C158 C 0.72164 0.6788 0.33312 0.0
C159 C 0.64584 0.66695 0.34353 0.0
C160 C 0.77338 0.72079 0.28823 0.0
C161 C 0.74857 0.75001 0.25186 0.0
C162 C 0.67212 0.73772 0.26199 0.0
C163 C 0.62185 0.69703 0.30807 0.0
C164 C 0.85457 0.7336 0.2794 0.0
C165 C 0.64333 0.76608 0.22289 0.0
H166 H 0.90242 0.96219 0.18853 0.0
H167 H 0.90665 0.75654 0.02862 0.0
H168 H 0.73986 0.89983 0.31323 0.0
H169 H 0.81795 0.89561 0.33199 0.0
H170 H 0.82341 0.9714 0.30369 0.0
H171 H 0.82528 0.64585 0.04627 0.0
H172 H 0.81946 0.64168 0.13158 0.0
H173 H 0.7416 0.65178 0.11703 0.0
H174 H 0.74042 0.65603 0.36064 0.0
H175 H 0.56331 0.68751 0.31521 0.0
H176 H 0.88094 0.79314 0.29061 0.0
H177 H 0.88199 0.70738 0.22399 0.0
H178 H 0.86471 0.71129 0.31476 0.0
H179 H 0.66426 0.82636 0.23388 0.0
H180 H 0.58211 0.75277 0.23762 0.0
H181 H 0.66368 0.74199 0.16515 0.0
C182 C 0.14246 0.65924 0.12027 0.0
C183 C 0.16753 0.73493 0.12965 0.0
C184 C 0.16472 0.62454 0.15269 0.0
C185 C 0.21405 0.66671 0.19482 0.0
C186 C 0.23506 0.74402 0.20875 0.0
C187 C 0.21138 0.7773 0.1759 0.0
C188 C 0.14007 0.54221 0.13721 0.0
C189 C 0.28729 0.79101 0.25368 0.0
C190 C 0.25454 0.58358 0.3067 0.0
C191 C 0.32215 0.56674 0.26436 0.0
C192 C 0.21788 0.61505 0.28445 0.0
C193 C 0.24959 0.62956 0.21804 0.0
C194 C 0.31645 0.60969 0.17381 0.0
C195 C 0.35183 0.57819 0.19751 0.0
C196 C 0.14643 0.63457 0.33274 0.0
C197 C 0.35177 0.62371 0.10233 0.0
H198 H 0.10913 0.62675 0.08376 0.0
H199 H 0.23202 0.83556 0.18169 0.0
H200 H 0.1869 0.51777 0.10078 0.0
H201 H 0.12255 0.52569 0.18628 0.0
H202 H 0.09378 0.51892 0.11229 0.0
H203 H 0.29128 0.85032 0.26613 0.0
H204 H 0.26937 0.77643 0.30385 0.0
H205 H 0.34309 0.78097 0.22523 0.0
H206 H 0.23144 0.57363 0.3581 0.0
H207 H 0.40415 0.56511 0.16511 0.0
H208 H 0.10277 0.60941 0.30458 0.0
H209 H 0.1537 0.69478 0.34876 0.0
H210 H 0.12726 0.61626 0.38109 0.0
H211 H 0.31243 0.59667 0.06936 0.0
H212 H 0.40273 0.6034 0.07376 0.0
H213 H 0.36588 0.68336 0.10863 0.0
C214 C 0.20941 0.90506 0.79165 0.0
C215 C 0.23623 0.95661 0.84799 0.0
C216 C 0.2559 0.86461 0.7342 0.0
C217 C 0.33014 0.87722 0.73372 0.0
C218 C 0.36017 0.93976 0.78273 0.0
C219 C 0.31292 0.98098 0.83786 0.0
C220 C 0.22318 0.80241 0.67921 0.0
C221 C 0.43925 0.95682 0.78358 0.0
C222 C 0.38546 0.69634 0.66886 0.0
C223 C 0.42792 0.69593 0.59999 0.0
C224 C 0.35815 0.75796 0.71492 0.0
C225 C 0.37143 0.81901 0.69032 0.0
C226 C 0.41887 0.82055 0.62241 0.0
C227 C 0.4474 0.75947 0.57866 0.0
C228 C 0.31018 0.75527 0.78807 0.0
C229 C 0.43348 0.88258 0.59237 0.0
H230 H 0.15043 0.88762 0.79782 0.0
H231 H 0.33404 0.02267 0.88058 0.0
H232 H 0.26231 0.79908 0.62589 0.0
H233 H 0.21216 0.74993 0.6907 0.0
H234 H 0.17045 0.80864 0.67878 0.0
H235 H 0.45741 1.01363 0.8159 0.0
H236 H 0.4446 0.91838 0.80652 0.0
H237 H 0.47681 0.94943 0.72938 0.0
H238 H 0.36898 0.64683 0.68488 0.0
H239 H 0.47915 0.75857 0.52467 0.0
H240 H 0.25187 0.74735 0.79043 0.0
H241 H 0.32592 0.80769 0.82769 0.0
H242 H 0.31404 0.70976 0.80277 0.0
H243 H 0.38943 0.87122 0.56716 0.0
H244 H 0.48711 0.88735 0.55127 0.0
H245 H 0.43331 0.93591 0.63358 0.0
C246 C 0.47287 0.34583 0.65527 0.0
C247 C 0.44831 0.38018 0.62408 0.0
C248 C 0.42341 0.30186 0.69855 0.0
C249 C 0.3468 0.29188 0.71194 0.0
C250 C 0.32116 0.32796 0.68253 0.0
C251 C 0.37232 0.37191 0.63889 0.0
C252 C 0.45339 0.26518 0.72914 0.0
C253 C 0.23971 0.31906 0.69625 0.0
C254 C 0.21958 0.12404 0.77176 0.0
C255 C 0.19629 0.15468 0.84473 0.0
C256 C 0.26879 0.16802 0.72771 0.0
C257 C 0.29422 0.24432 0.75758 0.0
C258 C 0.27181 0.27477 0.83166 0.0
C259 C 0.2233 0.22949 0.87425 0.0
C260 C 0.29209 0.13328 0.64911 0.0
C261 C 0.29737 0.35559 0.86583 0.0
H262 H 0.53149 0.35251 0.6451 0.0
H263 H 0.35288 0.39784 0.6148 0.0
H264 H 0.4337 0.28228 0.78761 0.0
H265 H 0.43276 0.20486 0.71128 0.0
H266 H 0.51464 0.27854 0.7135 0.0
H267 H 0.22858 0.35117 0.67023 0.0
H268 H 0.21272 0.26044 0.67673 0.0
H269 H 0.21374 0.33681 0.75387 0.0
H270 H 0.19706 0.06647 0.74901 0.0
H271 H 0.20358 0.25322 0.93069 0.0
H272 H 0.3531 0.14393 0.62998 0.0
H273 H 0.27408 0.15815 0.62137 0.0
H274 H 0.26858 0.07315 0.63436 0.0
H275 H 0.35847 0.37212 0.85237 0.0
H276 H 0.27536 0.37045 0.92424 0.0
H277 H 0.27941 0.38769 0.84525 0.0
C278 C 0.95583 0.33727 0.83007 0.0
C279 C 0.9376 0.26076 0.81307 0.0
C280 C 0.94573 0.3725 0.78937 0.0
C281 C 0.91541 0.32978 0.73162 0.0
C282 C 0.903 0.25249 0.71114 0.0
C283 C 0.91429 0.21908 0.75225 0.0
C284 C 0.96164 0.45496 0.81171 0.0
C285 C 0.87075 0.20448 0.65005 0.0
C286 C 0.77187 0.37813 0.693 0.0
C287 C 0.80829 0.38782 0.62588 0.0
C288 C 0.80838 0.3657 0.73102 0.0
C289 C 0.88345 0.36297 0.70087 0.0
C290 C 0.92233 0.37958 0.63571 0.0
C291 C 0.88387 0.39121 0.59846 0.0
C292 C 0.76439 0.34816 0.80014 0.0
C293 C 1.00268 0.37901 0.60254 0.0
H294 H 0.9732 0.36919 0.8777 0.0
H295 H 0.90008 0.15986 0.73983 0.0
H296 H 0.98557 0.47649 0.76504 0.0
H297 H 0.90944 0.47239 0.84221 0.0
H298 H 1.00012 0.47997 0.84564 0.0
H299 H 0.87157 0.14626 0.63675 0.0
H300 H 0.81271 0.20743 0.66371 0.0
H301 H 0.90158 0.22388 0.60246 0.0
H302 H 0.7132 0.37511 0.71334 0.0
H303 H 0.91147 0.39792 0.546 0.0
H304 H 0.79411 0.38028 0.84127 0.0
H305 H 0.75706 0.28927 0.7932 0.0
H306 H 0.70898 0.35974 0.81943 0.0
H307 H 1.03352 0.40242 0.64316 0.0
H308 H 1.02876 0.41026 0.56277 0.0
H309 H 1.00776 0.32171 0.57549 0.0
C310 C 0.69054 0.63344 0.68135 0.0
C311 C 0.68707 0.64677 0.62245 0.0
C312 C 0.73516 0.68481 0.72451 0.0
C313 C 0.77834 0.75095 0.70785 0.0
C314 C 0.77383 0.7654 0.64912 0.0
C315 C 0.72763 0.71331 0.6074 0.0
C316 C 0.73684 0.66769 0.78735 0.0
C317 C 0.8194 0.83497 0.62925 0.0
C318 C 0.84089 0.91384 0.85365 0.0
C319 C 0.91366 0.91139 0.84216 0.0
C320 C 0.79646 0.86174 0.81084 0.0
C321 C 0.82567 0.80619 0.75375 0.0
C322 C 0.89909 0.80298 0.74176 0.0
C323 C 0.94207 0.85522 0.78676 0.0
C324 C 0.71796 0.86606 0.82706 0.0
C325 C 0.93251 0.74511 0.68077 0.0
H326 H 0.65943 0.58167 0.69268 0.0
H327 H 0.72598 0.72304 0.5611 0.0
H328 H 0.79337 0.66528 0.7811 0.0
H329 H 0.72203 0.71184 0.83625 0.0
H330 H 0.69834 0.61472 0.79416 0.0
H331 H 0.81056 0.83751 0.58151 0.0
H332 H 0.80556 0.88328 0.67355 0.0
H333 H 0.8788 0.83911 0.61915 0.0
H334 H 0.81814 0.95657 0.89699 0.0
H335 H 0.9983 0.85333 0.77747 0.0
H336 H 0.67924 0.81405 0.83615 0.0
H337 H 0.70972 0.87352 0.7814 0.0
H338 H 0.70321 0.91186 0.87436 0.0
H339 H 0.89955 0.68978 0.68545 0.0
H340 H 0.99041 0.75044 0.67807 0.0
H341 H 0.9313 0.74907 0.63039 0.0
loop_
_geom_bond_atom_site_label_1
_geom_bond_atom_site_label_2
_geom_bond_distance
_geom_bond_site_symmetry_2
_ccdc_geom_bond_type
Co0 N1 2.034 . S
Co0 O15 2.262 1_554 S
Co0 O19 1.958 1_455 S
Co0 O23 1.950 1_565 S
Co0 O24 2.057 1_554 S
N1 Co0 2.034 . S
N1 C2 1.366 . S
N1 C4 1.332 . S
C2 N1 1.366 . S
C2 C5 1.377 . S
C2 H34 0.931 1_455 S
N3 C4 1.346 . S
N3 C5 1.337 . S
C4 N1 1.332 . S
C4 N3 1.346 . S
C4 C38 1.361 . S
C5 C2 1.377 . S
C5 N3 1.337 . S
C5 H41 0.930 . S
Co6 N7 2.034 . S
Co6 O20 1.950 1_655 S
Co6 O21 2.262 1_556 S
Co6 O22 1.958 1_545 S
Co6 O26 2.057 1_556 S
N7 Co6 2.034 . S
N7 C10 1.366 . S
N7 C11 1.332 . S
N8 C9 1.337 . S
N8 C11 1.346 . S
C9 N8 1.337 . S
C9 C10 1.377 . S
C9 H42 0.930 . S
C10 N7 1.366 . S
C10 C9 1.377 . S
C10 H14 0.931 1_545 S
C11 N7 1.332 . S
C11 N8 1.346 . S
C11 C28 1.361 . S
Co12 O15 2.097 1_654 S
Co12 O16 2.065 1_664 S
Co12 O17 2.065 1_665 S
Co12 O18 2.042 . S
Co12 O21 2.097 1_565 S
Co12 O25 2.042 1_554 S
C13 O21 1.253 . S
C13 O26 1.263 . S
H14 C10 0.931 1_565 S
O15 Co0 2.262 1_556 S
O15 Co12 2.097 1_456 S
O15 C39 1.253 . S
O16 Co12 2.065 1_446 S
O16 C32 1.221 . S
O17 Co12 2.065 1_445 S
O17 C27 1.221 . S
O18 Co12 2.042 . S
O18 C33 1.237 . S
O19 Co0 1.958 1_655 S
O19 C33 1.278 . S
O20 Co6 1.950 1_455 S
O20 C32 1.277 . S
O21 Co6 2.262 1_554 S
O21 Co12 2.097 1_545 S
O21 C13 1.253 . S
O22 Co6 1.958 1_565 S
O22 C40 1.278 . S
O23 Co0 1.950 1_545 S
O23 C27 1.277 . S
O24 Co0 2.057 1_556 S
O24 C39 1.263 . S
O25 Co12 2.042 1_556 S
O25 C40 1.237 . S
O26 Co6 2.057 1_554 S
O26 C13 1.263 . S
C27 O17 1.221 . S
C27 O23 1.277 . S
C28 C11 1.361 . S
C28 H29 0.960 . S
C28 H30 0.961 . S
C28 H31 0.961 . S
H29 C28 0.960 . S
H30 C28 0.961 . S
H31 C28 0.961 . S
C32 O16 1.221 . S
C32 O20 1.277 . S
C33 O18 1.237 . S
C33 O19 1.278 . S
H34 C2 0.931 1_655 S
H35 C38 0.961 . S
H36 C38 0.961 . S
H37 C38 0.960 . S
C38 C4 1.361 . S
C38 H35 0.961 . S
C38 H36 0.961 . S
C38 H37 0.960 . S
C39 O15 1.253 . S
C39 O24 1.263 . S
C40 O22 1.278 . S
C40 O25 1.237 . S
H41 C5 0.930 . S
H42 C9 0.930 . S
Co43 N44 2.034 . S
Co43 O58 2.262 . S
Co43 O62 1.958 . S
Co43 O66 1.950 . S
Co43 O67 2.057 . S
N44 Co43 2.034 . S
N44 C45 1.366 . S
N44 C47 1.332 . S
C45 N44 1.366 . S
C45 C48 1.377 . S
C45 H77 0.931 . S
N46 C47 1.346 . S
N46 C48 1.337 . S
C47 N44 1.332 . S
C47 N46 1.346 . S
C47 C81 1.361 . S
C48 C45 1.377 . S
C48 N46 1.337 . S
C48 H84 0.930 . S
Co49 N50 2.034 . S
Co49 O63 1.950 . S
Co49 O64 2.262 . S
Co49 O65 1.958 . S
Co49 O69 2.057 . S
N50 Co49 2.034 . S
N50 C53 1.366 . S
N50 C54 1.332 . S
N51 C52 1.337 . S
N51 C54 1.346 . S
C52 N51 1.337 . S
C52 C53 1.377 . S
C52 H85 0.930 . S
C53 N50 1.366 . S
C53 C52 1.377 . S
C53 H57 0.931 . S
C54 N50 1.332 . S
C54 N51 1.346 . S
C54 C71 1.361 . S
Co55 O58 2.097 . S
Co55 O59 2.065 . S
Co55 O60 2.065 . S
Co55 O61 2.042 . S
Co55 O64 2.097 . S
Co55 O68 2.042 . S
C56 O64 1.253 . S
C56 O69 1.263 . S
H57 C53 0.931 . S
O58 Co43 2.262 . S
O58 Co55 2.097 . S
O58 C82 1.253 . S
O59 Co55 2.065 . S
O59 C75 1.221 . S
O60 Co55 2.065 . S
O60 C70 1.221 . S
O61 Co55 2.042 . S
O61 C76 1.237 . S
O62 Co43 1.958 . S
O62 C76 1.278 . S
O63 Co49 1.950 . S
O63 C75 1.277 . S
O64 Co49 2.262 . S
O64 Co55 2.097 . S
O64 C56 1.253 . S
O65 Co49 1.958 . S
O65 C83 1.278 . S
O66 Co43 1.950 . S
O66 C70 1.277 . S
O67 Co43 2.057 . S
O67 C82 1.263 . S
O68 Co55 2.042 . S
O68 C83 1.237 . S
O69 Co49 2.057 . S
O69 C56 1.263 . S
C70 O60 1.221 . S
C70 O66 1.277 . S
C71 C54 1.361 . S
C71 H72 0.960 . S
C71 H73 0.961 . S
C71 H74 0.961 . S
H72 C71 0.960 . S
H73 C71 0.961 . S
H74 C71 0.961 . S
C75 O59 1.221 . S
C75 O63 1.277 . S
C76 O61 1.237 . S
C76 O62 1.278 . S
H77 C45 0.931 . S
H78 C81 0.961 . S
H79 C81 0.961 . S
H80 C81 0.960 . S
C81 C47 1.361 . S
C81 H78 0.961 . S
C81 H79 0.961 . S
C81 H80 0.960 . S
C82 O58 1.253 . S
C82 O67 1.263 . S
C83 O65 1.278 . S
C83 O68 1.237 . S
H84 C48 0.930 . S
H85 C52 0.930 . S
C86 C87 1.391 . S
C86 C88 1.394 . S
C86 H102 0.931 . S
C87 C86 1.391 . S
C87 C91 1.376 . S
C88 C86 1.394 . S
C88 C89 1.369 . S
C88 C92 1.531 . S
C89 C88 1.369 . S
C89 C90 1.410 . S
C89 C97 1.503 . S
C90 C89 1.410 . S
C90 C91 1.392 . S
C90 C93 1.511 . S
C91 C87 1.376 . S
C91 C90 1.392 . S
C91 H103 0.929 . S
C92 C88 1.531 . S
C92 H104 0.960 . S
C92 H105 0.962 . S
C92 H106 0.960 . S
C93 C90 1.511 . S
C93 H107 0.961 . S
C93 H108 0.961 . S
C93 H109 0.961 . S
C94 C95 1.370 . S
C94 C96 1.363 . S
C94 H110 0.931 . S
C95 C94 1.370 . S
C95 C99 1.408 . S
C96 C94 1.363 . S
C96 C97 1.370 . S
C96 C100 1.524 . S
C97 C89 1.503 . S
C97 C96 1.370 . S
C97 C98 1.403 . S
C98 C97 1.403 . S
C98 C99 1.404 . S
C98 C101 1.539 . S
C99 C95 1.408 . S
C99 C98 1.404 . S
C99 H111 0.930 . S
C100 C96 1.524 . S
C100 H112 0.956 . S
C100 H113 0.961 . S
C100 H114 0.961 . S
C101 C98 1.539 . S
C101 H115 0.958 . S
C101 H116 0.961 . S
C101 H117 0.960 . S
H102 C86 0.931 . S
H103 C91 0.929 . S
H104 C92 0.960 . S
H105 C92 0.962 . S
H106 C92 0.960 . S
H107 C93 0.961 . S
H108 C93 0.961 . S
H109 C93 0.961 . S
H110 C94 0.931 . S
H111 C99 0.930 . S
H112 C100 0.956 . S
H113 C100 0.961 . S
H114 C100 0.961 . S
H115 C101 0.958 . S
H116 C101 0.961 . S
H117 C101 0.960 . S
C118 C119 1.391 . S
C118 C120 1.394 . S
C118 H134 0.931 . S
C119 C118 1.391 . S
C119 C123 1.376 . S
C120 C118 1.394 . S
C120 C121 1.369 . S
C120 C124 1.531 . S
C121 C120 1.369 . S
C121 C122 1.410 . S
C121 C129 1.503 . S
C122 C121 1.410 . S
C122 C123 1.392 . S
C122 C125 1.511 . S
C123 C119 1.376 . S
C123 C122 1.392 . S
C123 H135 0.929 . S
C124 C120 1.531 . S
C124 H136 0.960 . S
C124 H137 0.962 . S
C124 H138 0.960 . S
C125 C122 1.511 . S
C125 H139 0.961 . S
C125 H140 0.961 . S
C125 H141 0.961 . S
C126 C127 1.370 . S
C126 C128 1.363 . S
C126 H142 0.931 . S
C127 C126 1.370 . S
C127 C131 1.408 . S
C128 C126 1.363 . S
C128 C129 1.370 . S
C128 C132 1.524 . S
C129 C121 1.503 . S
C129 C128 1.370 . S
C129 C130 1.403 . S
C130 C129 1.403 . S
C130 C131 1.404 . S
C130 C133 1.539 . S
C131 C127 1.408 . S
C131 C130 1.404 . S
C131 H143 0.930 . S
C132 C128 1.524 . S
C132 H144 0.956 . S
C132 H145 0.961 . S
C132 H146 0.961 . S
C133 C130 1.539 . S
C133 H147 0.958 . S
C133 H148 0.961 . S
C133 H149 0.960 . S
H134 C118 0.931 . S
H135 C123 0.929 . S
H136 C124 0.960 . S
H137 C124 0.962 . S
H138 C124 0.960 . S
H139 C125 0.961 . S
H140 C125 0.961 . S
H141 C125 0.961 . S
H142 C126 0.931 . S
H143 C131 0.930 . S
H144 C132 0.956 . S
H145 C132 0.961 . S
H146 C132 0.961 . S
H147 C133 0.958 . S
H148 C133 0.961 . S
H149 C133 0.960 . S
C150 C151 1.391 . S
C150 C152 1.394 . S
C150 H166 0.931 . S
C151 C150 1.391 . S
C151 C155 1.376 . S
C152 C150 1.394 . S
C152 C153 1.369 . S
C152 C156 1.531 . S
C153 C152 1.369 . S
C153 C154 1.410 . S
C153 C161 1.503 . S
C154 C153 1.410 . S
C154 C155 1.392 . S
C154 C157 1.511 . S
C155 C151 1.376 . S
C155 C154 1.392 . S
C155 H167 0.929 . S
C156 C152 1.531 . S
C156 H168 0.960 . S
C156 H169 0.962 . S
C156 H170 0.960 . S
C157 C154 1.511 . S
C157 H171 0.961 . S
C157 H172 0.961 . S
C157 H173 0.961 . S
C158 C159 1.370 . S
C158 C160 1.363 . S
C158 H174 0.931 . S
C159 C158 1.370 . S
C159 C163 1.408 . S
C160 C158 1.363 . S
C160 C161 1.370 . S
C160 C164 1.524 . S
C161 C153 1.503 . S
C161 C160 1.370 . S
C161 C162 1.403 . S
C162 C161 1.403 . S
C162 C163 1.404 . S
C162 C165 1.539 . S
C163 C159 1.408 . S
C163 C162 1.404 . S
C163 H175 0.930 . S
C164 C160 1.524 . S
C164 H176 0.956 . S
C164 H177 0.961 . S
C164 H178 0.961 . S
C165 C162 1.539 . S
C165 H179 0.958 . S
C165 H180 0.961 . S
C165 H181 0.960 . S
H166 C150 0.931 . S
H167 C155 0.929 . S
H168 C156 0.960 . S
H169 C156 0.962 . S
H170 C156 0.960 . S
H171 C157 0.961 . S
H172 C157 0.961 . S
H173 C157 0.961 . S
H174 C158 0.931 . S
H175 C163 0.930 . S
H176 C164 0.956 . S
H177 C164 0.961 . S
H178 C164 0.961 . S
H179 C165 0.958 . S
H180 C165 0.961 . S
H181 C165 0.960 . S
C182 C183 1.391 . S
C182 C184 1.394 . S
C182 H198 0.931 . S
C183 C182 1.391 . S
C183 C187 1.376 . S
C184 C182 1.394 . S
C184 C185 1.369 . S
C184 C188 1.531 . S
C185 C184 1.369 . S
C185 C186 1.410 . S
C185 C193 1.503 . S
C186 C185 1.410 . S
C186 C187 1.392 . S
C186 C189 1.511 . S
C187 C183 1.376 . S
C187 C186 1.392 . S
C187 H199 0.929 . S
C188 C184 1.531 . S
C188 H200 0.960 . S
C188 H201 0.962 . S
C188 H202 0.960 . S
C189 C186 1.511 . S
C189 H203 0.961 . S
C189 H204 0.961 . S
C189 H205 0.961 . S
C190 C191 1.370 . S
C190 C192 1.363 . S
C190 H206 0.931 . S
C191 C190 1.370 . S
C191 C195 1.408 . S
C192 C190 1.363 . S
C192 C193 1.370 . S
C192 C196 1.524 . S
C193 C185 1.503 . S
C193 C192 1.370 . S
C193 C194 1.403 . S
C194 C193 1.403 . S
C194 C195 1.404 . S
C194 C197 1.539 . S
C195 C191 1.408 . S
C195 C194 1.404 . S
C195 H207 0.930 . S
C196 C192 1.524 . S
C196 H208 0.956 . S
C196 H209 0.961 . S
C196 H210 0.961 . S
C197 C194 1.539 . S
C197 H211 0.958 . S
C197 H212 0.961 . S
C197 H213 0.960 . S
H198 C182 0.931 . S
H199 C187 0.929 . S
H200 C188 0.960 . S
H201 C188 0.962 . S
H202 C188 0.960 . S
H203 C189 0.961 . S
H204 C189 0.961 . S
H205 C189 0.961 . S
H206 C190 0.931 . S
H207 C195 0.930 . S
H208 C196 0.956 . S
H209 C196 0.961 . S
H210 C196 0.961 . S
H211 C197 0.958 . S
H212 C197 0.961 . S
H213 C197 0.960 . S
C214 C215 1.391 . S
C214 C216 1.394 . S
C214 H230 0.931 . S
C215 C214 1.391 . S
C215 C219 1.376 . S
C216 C214 1.394 . S
C216 C217 1.369 . S
C216 C220 1.531 . S
C217 C216 1.369 . S
C217 C218 1.410 . S
C217 C225 1.503 . S
C218 C217 1.410 . S
C218 C219 1.392 . S
C218 C221 1.511 . S
C219 C215 1.376 . S
C219 C218 1.392 . S
C219 H231 0.929 . S
C220 C216 1.531 . S
C220 H232 0.960 . S
C220 H233 0.962 . S
C220 H234 0.960 . S
C221 C218 1.511 . S
C221 H235 0.961 . S
C221 H236 0.961 . S
C221 H237 0.961 . S
C222 C223 1.370 . S
C222 C224 1.363 . S
C222 H238 0.931 . S
C223 C222 1.370 . S
C223 C227 1.408 . S
C224 C222 1.363 . S
C224 C225 1.370 . S
C224 C228 1.524 . S
C225 C217 1.503 . S
C225 C224 1.370 . S
C225 C226 1.403 . S
C226 C225 1.403 . S
C226 C227 1.404 . S
C226 C229 1.539 . S
C227 C223 1.408 . S
C227 C226 1.404 . S
C227 H239 0.930 . S
C228 C224 1.524 . S
C228 H240 0.956 . S
C228 H241 0.961 . S
C228 H242 0.961 . S
C229 C226 1.539 . S
C229 H243 0.958 . S
C229 H244 0.961 . S
C229 H245 0.960 . S
H230 C214 0.931 . S
H231 C219 0.929 . S
H232 C220 0.960 . S
H233 C220 0.962 . S
H234 C220 0.960 . S
H235 C221 0.961 . S
H236 C221 0.961 . S
H237 C221 0.961 . S
H238 C222 0.931 . S
H239 C227 0.930 . S
H240 C228 0.956 . S
H241 C228 0.961 . S
H242 C228 0.961 . S
H243 C229 0.958 . S
H244 C229 0.961 . S
H245 C229 0.960 . S
C246 C247 1.391 . S
C246 C248 1.394 . S
C246 H262 0.931 . S
C247 C246 1.391 . S
C247 C251 1.376 . S
C248 C246 1.394 . S
C248 C249 1.369 . S
C248 C252 1.531 . S
C249 C248 1.369 . S
C249 C250 1.410 . S
C249 C257 1.503 . S
C250 C249 1.410 . S
C250 C251 1.392 . S
C250 C253 1.511 . S
C251 C247 1.376 . S
C251 C250 1.392 . S
C251 H263 0.929 . S
C252 C248 1.531 . S
C252 H264 0.960 . S
C252 H265 0.962 . S
C252 H266 0.960 . S
C253 C250 1.511 . S
C253 H267 0.961 . S
C253 H268 0.961 . S
C253 H269 0.961 . S
C254 C255 1.370 . S
C254 C256 1.363 . S
C254 H270 0.931 . S
C255 C254 1.370 . S
C255 C259 1.408 . S
C256 C254 1.363 . S
C256 C257 1.370 . S
C256 C260 1.524 . S
C257 C249 1.503 . S
C257 C256 1.370 . S
C257 C258 1.403 . S
C258 C257 1.403 . S
C258 C259 1.404 . S
C258 C261 1.539 . S
C259 C255 1.408 . S
C259 C258 1.404 . S
C259 H271 0.930 . S
C260 C256 1.524 . S
C260 H272 0.956 . S
C260 H273 0.961 . S
C260 H274 0.961 . S
C261 C258 1.539 . S
C261 H275 0.958 . S
C261 H276 0.961 . S
C261 H277 0.960 . S
H262 C246 0.931 . S
H263 C251 0.929 . S
H264 C252 0.960 . S
H265 C252 0.962 . S
H266 C252 0.960 . S
H267 C253 0.961 . S
H268 C253 0.961 . S
H269 C253 0.961 . S
H270 C254 0.931 . S
H271 C259 0.930 . S
H272 C260 0.956 . S
H273 C260 0.961 . S
H274 C260 0.961 . S
H275 C261 0.958 . S
H276 C261 0.961 . S
H277 C261 0.960 . S
C278 C279 1.391 . S
C278 C280 1.394 . S
C278 H294 0.931 . S
C279 C278 1.391 . S
C279 C283 1.376 . S
C280 C278 1.394 . S
C280 C281 1.369 . S
C280 C284 1.531 . S
C281 C280 1.369 . S
C281 C282 1.410 . S
C281 C289 1.503 . S
C282 C281 1.410 . S
C282 C283 1.392 . S
C282 C285 1.511 . S
C283 C279 1.376 . S
C283 C282 1.392 . S
C283 H295 0.929 . S
C284 C280 1.531 . S
C284 H296 0.960 . S
C284 H297 0.962 . S
C284 H298 0.960 . S
C285 C282 1.511 . S
C285 H299 0.961 . S
C285 H300 0.961 . S
C285 H301 0.961 . S
C286 C287 1.370 . S
C286 C288 1.363 . S
C286 H302 0.931 . S
C287 C286 1.370 . S
C287 C291 1.408 . S
C288 C286 1.363 . S
C288 C289 1.370 . S
C288 C292 1.524 . S
C289 C281 1.503 . S
C289 C288 1.370 . S
C289 C290 1.403 . S
C290 C289 1.403 . S
C290 C291 1.404 . S
C290 C293 1.539 . S
C291 C287 1.408 . S
C291 C290 1.404 . S
C291 H303 0.930 . S
C292 C288 1.524 . S
C292 H304 0.956 . S
C292 H305 0.961 . S
C292 H306 0.961 . S
C293 C290 1.539 . S
C293 H307 0.958 . S
C293 H308 0.961 . S
C293 H309 0.960 . S
H294 C278 0.931 . S
H295 C283 0.929 . S
H296 C284 0.960 . S
H297 C284 0.962 . S
H298 C284 0.960 . S
H299 C285 0.961 . S
H300 C285 0.961 . S
H301 C285 0.961 . S
H302 C286 0.931 . S
H303 C291 0.930 . S
H304 C292 0.956 . S
H305 C292 0.961 . S
H306 C292 0.961 . S
H307 C293 0.958 . S
H308 C293 0.961 . S
H309 C293 0.960 . S
C310 C311 1.391 . S
C310 C312 1.394 . S
C310 H326 0.931 . S
C311 C310 1.391 . S
C311 C315 1.376 . S
C312 C310 1.394 . S
C312 C313 1.369 . S
C312 C316 1.531 . S
C313 C312 1.369 . S
C313 C314 1.410 . S
C313 C321 1.503 . S
C314 C313 1.410 . S
C314 C315 1.392 . S
C314 C317 1.511 . S
C315 C311 1.376 . S
C315 C314 1.392 . S
C315 H327 0.929 . S
C316 C312 1.531 . S
C316 H328 0.960 . S
C316 H329 0.962 . S
C316 H330 0.960 . S
C317 C314 1.511 . S
C317 H331 0.961 . S
C317 H332 0.961 . S
C317 H333 0.961 . S
C318 C319 1.370 . S
C318 C320 1.363 . S
C318 H334 0.931 . S
C319 C318 1.370 . S
C319 C323 1.408 . S
C320 C318 1.363 . S
C320 C321 1.370 . S
C320 C324 1.524 . S
C321 C313 1.503 . S
C321 C320 1.370 . S
C321 C322 1.403 . S
C322 C321 1.403 . S
C322 C323 1.404 . S
C322 C325 1.539 . S
C323 C319 1.408 . S
C323 C322 1.404 . S
C323 H335 0.930 . S
C324 C320 1.524 . S
C324 H336 0.956 . S
C324 H337 0.961 . S
C324 H338 0.961 . S
C325 C322 1.539 . S
C325 H339 0.958 . S
C325 H340 0.961 . S
C325 H341 0.960 . S
H326 C310 0.931 . S
H327 C315 0.929 . S
H328 C316 0.960 . S
H329 C316 0.962 . S
H330 C316 0.960 . S
H331 C317 0.961 . S
H332 C317 0.961 . S
H333 C317 0.961 . S
H334 C318 0.931 . S
H335 C323 0.930 . S
H336 C324 0.956 . S
H337 C324 0.961 . S
H338 C324 0.961 . S
H339 C325 0.958 . S
H340 C325 0.961 . S
H341 C325 0.960 . S
C87 C27 1.391 . S
C95 C83 1.346 . S
C119 C13 1.338 . S
C127 C82 1.404 . S
C151 C33 1.387 . S
C159 C75 1.352 . S
C183 N3 1.512 . S
C191 N51 1.490 . S
C215 C39 1.434 . S
C223 C56 1.364 . S
C247 C76 1.385 . S
C255 C32 1.353 . S
C279 N8 1.498 . S
C287 N46 1.517 . S
C311 C70 1.328 . S
C319 C40 1.379 . S
