# Generated by pormake.
# Topology zfj, (5)-cn, num edge types: 1
# Building blocks:
#     Node 0, Type 0, BuildingBlock: BEQFEK_clean_sbu_0, # of connection points: 5
#     Node 1, Type 0, BuildingBlock: BEQFEK_clean_sbu_0, # of connection points: 5
#     Node 2, Type 0, BuildingBlock: BEQFEK_clean_sbu_0, # of connection points: 5
#     Node 3, Type 0, BuildingBlock: BEQFEK_clean_sbu_0, # of connection points: 5
#     Node 4, Type 0, BuildingBlock: BEQFEK_clean_sbu_0, # of connection points: 5
#     Node 5, Type 0, BuildingBlock: BEQFEK_clean_sbu_0, # of connection points: 5
#     Node 6, Type 0, BuildingBlock: BEQFEK_clean_sbu_0, # of connection points: 5
#     Node 7, Type 0, BuildingBlock: BEQFEK_clean_sbu_0, # of connection points: 5
#     Node 8, Type 0, BuildingBlock: BEQFEK_clean_sbu_0, # of connection points: 5
#     Node 9, Type 0, BuildingBlock: BEQFEK_clean_sbu_0, # of connection points: 5
#     Node 10, Type 0, BuildingBlock: BEQFEK_clean_sbu_0, # of connection points: 5
#     Node 11, Type 0, BuildingBlock: BEQFEK_clean_sbu_0, # of connection points: 5
#     Node 12, Type 0, BuildingBlock: BEQFEK_clean_sbu_0, # of connection points: 5
#     Node 13, Type 0, BuildingBlock: BEQFEK_clean_sbu_0, # of connection points: 5
#     Node 14, Type 0, BuildingBlock: BEQFEK_clean_sbu_0, # of connection points: 5
#     Node 15, Type 0, BuildingBlock: BEQFEK_clean_sbu_0, # of connection points: 5
#     Edge 16, Type (0, 0), BuildingBlock: XIVTED_clean_linker_0, # of connection points: 2
#     Edge 17, Type (0, 0), BuildingBlock: XIVTED_clean_linker_0, # of connection points: 2
#     Edge 18, Type (0, 0), BuildingBlock: XIVTED_clean_linker_0, # of connection points: 2
#     Edge 19, Type (0, 0), BuildingBlock: XIVTED_clean_linker_0, # of connection points: 2
#     Edge 20, Type (0, 0), BuildingBlock: XIVTED_clean_linker_0, # of connection points: 2
#     Edge 21, Type (0, 0), BuildingBlock: XIVTED_clean_linker_0, # of connection points: 2
#     Edge 22, Type (0, 0), BuildingBlock: XIVTED_clean_linker_0, # of connection points: 2
#     Edge 23, Type (0, 0), BuildingBlock: XIVTED_clean_linker_0, # of connection points: 2
#     Edge 24, Type (0, 0), BuildingBlock: XIVTED_clean_linker_0, # of connection points: 2
#     Edge 25, Type (0, 0), BuildingBlock: XIVTED_clean_linker_0, # of connection points: 2
#     Edge 26, Type (0, 0), BuildingBlock: XIVTED_clean_linker_0, # of connection points: 2
#     Edge 27, Type (0, 0), BuildingBlock: XIVTED_clean_linker_0, # of connection points: 2
#     Edge 28, Type (0, 0), BuildingBlock: XIVTED_clean_linker_0, # of connection points: 2
#     Edge 29, Type (0, 0), BuildingBlock: XIVTED_clean_linker_0, # of connection points: 2
#     Edge 30, Type (0, 0), BuildingBlock: XIVTED_clean_linker_0, # of connection points: 2
#     Edge 31, Type (0, 0), BuildingBlock: XIVTED_clean_linker_0, # of connection points: 2
#     Edge 32, Type (0, 0), BuildingBlock: XIVTED_clean_linker_0, # of connection points: 2
#     Edge 33, Type (0, 0), BuildingBlock: XIVTED_clean_linker_0, # of connection points: 2
#     Edge 34, Type (0, 0), BuildingBlock: XIVTED_clean_linker_0, # of connection points: 2
#     Edge 35, Type (0, 0), BuildingBlock: XIVTED_clean_linker_0, # of connection points: 2
#     Edge 36, Type (0, 0), BuildingBlock: XIVTED_clean_linker_0, # of connection points: 2
#     Edge 37, Type (0, 0), BuildingBlock: XIVTED_clean_linker_0, # of connection points: 2
#     Edge 38, Type (0, 0), BuildingBlock: XIVTED_clean_linker_0, # of connection points: 2
#     Edge 39, Type (0, 0), BuildingBlock: XIVTED_clean_linker_0, # of connection points: 2
#     Edge 40, Type (0, 0), BuildingBlock: XIVTED_clean_linker_0, # of connection points: 2
#     Edge 41, Type (0, 0), BuildingBlock: XIVTED_clean_linker_0, # of connection points: 2
#     Edge 42, Type (0, 0), BuildingBlock: XIVTED_clean_linker_0, # of connection points: 2
#     Edge 43, Type (0, 0), BuildingBlock: XIVTED_clean_linker_0, # of connection points: 2
#     Edge 44, Type (0, 0), BuildingBlock: XIVTED_clean_linker_0, # of connection points: 2
#     Edge 45, Type (0, 0), BuildingBlock: XIVTED_clean_linker_0, # of connection points: 2
#     Edge 46, Type (0, 0), BuildingBlock: XIVTED_clean_linker_0, # of connection points: 2
#     Edge 47, Type (0, 0), BuildingBlock: XIVTED_clean_linker_0, # of connection points: 2
#     Edge 48, Type (0, 0), BuildingBlock: XIVTED_clean_linker_0, # of connection points: 2
#     Edge 49, Type (0, 0), BuildingBlock: XIVTED_clean_linker_0, # of connection points: 2
#     Edge 50, Type (0, 0), BuildingBlock: XIVTED_clean_linker_0, # of connection points: 2
#     Edge 51, Type (0, 0), BuildingBlock: XIVTED_clean_linker_0, # of connection points: 2
#     Edge 52, Type (0, 0), BuildingBlock: XIVTED_clean_linker_0, # of connection points: 2
#     Edge 53, Type (0, 0), BuildingBlock: XIVTED_clean_linker_0, # of connection points: 2
#     Edge 54, Type (0, 0), BuildingBlock: XIVTED_clean_linker_0, # of connection points: 2
#     Edge 55, Type (0, 0), BuildingBlock: XIVTED_clean_linker_0, # of connection points: 2
# Relax obj value: 0.284
# Max RMSD: 0.172
# Mean RMSD: 0.172
data_MOF--net-zfj--node1-BEQFEK_clean_sbu_0--edge1-XIVTED_clean_linker_0
_symmetry_space_group_name_H-M    P1
_symmetry_Int_Tables_number       1
_symmetry_cell_setting            triclinic
loop_
_symmetry_equiv_pos_as_xyz
'x, y, z'
_cell_length_a     35.942934
_cell_length_b     35.933
_cell_length_c     53.897143
_cell_angle_alpha  90.004136
_cell_angle_beta   89.987418
_cell_angle_gamma 90.003204
loop_
_atom_site_label
_atom_site_type_symbol
_atom_site_fract_x
_atom_site_fract_y
_atom_site_fract_z
_atom_type_partial_charge
Co0 Co 0.53578 0.21974 0.15397 0.0
Co1 Co 0.5674 0.14352 0.13685 0.0
C2 C 0.5398 0.19663 0.09963 0.0
O3 O 0.5334 0.21923 0.11727 0.0
O4 O 0.55204 0.16401 0.10401 0.0
C5 C 0.4769 0.27034 0.15262 0.0
O6 O 0.46227 0.24385 0.13893 0.0
C7 C 0.57315 0.06582 0.12027 0.0
C8 C 0.62002 0.04624 0.14334 0.0
C9 C 0.59321 0.03422 0.12674 0.0
N10 N 0.58685 0.09477 0.13308 0.0
N11 N 0.61552 0.08309 0.14629 0.0
C12 C 0.54184 0.06896 0.10204 0.0
H13 H 0.55101 0.08679 0.08637 0.0
H14 H 0.5177 0.08315 0.11068 0.0
H15 H 0.53348 0.04144 0.09457 0.0
C16 C 0.49228 0.17135 0.18781 0.0
N17 N 0.51558 0.17627 0.16849 0.0
N18 N 0.52804 0.14374 0.16096 0.0
C19 C 0.51254 0.11691 0.17517 0.0
C20 C 0.48948 0.13348 0.19278 0.0
C21 C 0.47667 0.20264 0.2029 0.0
H22 H 0.49664 0.22615 0.20342 0.0
H23 H 0.45059 0.21254 0.19409 0.0
H24 H 0.47042 0.19365 0.22214 0.0
O25 O 0.588 0.22623 0.16398 0.0
O26 O 0.61007 0.17276 0.14968 0.0
H27 H 0.54912 0.06996 0.17677 0.0
H28 H 0.50099 0.05882 0.18346 0.0
C29 C 0.51977 0.07617 0.17198 0.0
H30 H 0.51505 0.06847 0.15242 0.0
H31 H 0.63074 0.09988 0.15838 0.0
O32 O 0.508 0.26461 0.16314 0.0
C33 C 0.61501 0.20408 0.1602 0.0
Co34 Co 0.27121 0.53367 0.65311 0.0
Co35 Co 0.34696 0.56707 0.63681 0.0
C36 C 0.29355 0.53912 0.59919 0.0
O37 O 0.27096 0.53175 0.6166 0.0
O38 O 0.32582 0.55193 0.60391 0.0
C39 C 0.22039 0.47545 0.65079 0.0
O40 O 0.24623 0.46202 0.63605 0.0
C41 C 0.42516 0.56766 0.62236 0.0
C42 C 0.44395 0.62135 0.63793 0.0
C43 C 0.45662 0.58924 0.62649 0.0
N44 N 0.39565 0.5857 0.63169 0.0
N45 N 0.40686 0.61821 0.64038 0.0
C46 C 0.42266 0.53077 0.60951 0.0
H47 H 0.41808 0.50838 0.6233 0.0
H48 H 0.4483 0.52479 0.59874 0.0
H49 H 0.39832 0.53069 0.59686 0.0
C50 C 0.31975 0.48895 0.68595 0.0
N51 N 0.31497 0.51333 0.66723 0.0
N52 N 0.34731 0.5279 0.66111 0.0
C53 C 0.37368 0.51363 0.6763 0.0
C54 C 0.35718 0.48808 0.6922 0.0
C55 C 0.28864 0.46819 0.69817 0.0
H56 H 0.26727 0.4882 0.7047 0.0
H57 H 0.27538 0.44957 0.68437 0.0
H58 H 0.29847 0.45102 0.71395 0.0
O59 O 0.26456 0.58611 0.66336 0.0
O60 O 0.31812 0.60942 0.65001 0.0
H61 H 0.42367 0.5235 0.69763 0.0
H62 H 0.43085 0.51379 0.66542 0.0
C63 C 0.41249 0.52838 0.67872 0.0
H64 H 0.41311 0.55862 0.67491 0.0
H65 H 0.38953 0.63739 0.64917 0.0
O66 O 0.22664 0.50556 0.66243 0.0
C67 C 0.28649 0.61354 0.66025 0.0
Co68 Co 0.95762 0.27116 0.15245 0.0
Co69 Co 0.92318 0.34664 0.13644 0.0
C70 C 0.95174 0.29384 0.09862 0.0
O71 O 0.95946 0.27122 0.11595 0.0
O72 O 0.93849 0.3259 0.10346 0.0
C73 C 0.01583 0.2201 0.14978 0.0
O74 O 0.02914 0.24572 0.13481 0.0
C75 C 0.92145 0.42508 0.12235 0.0
C76 C 0.86717 0.4427 0.1376 0.0
C77 C 0.89919 0.45608 0.12642 0.0
N78 N 0.90384 0.39513 0.13144 0.0
N79 N 0.871 0.40565 0.13994 0.0
C80 C 0.95856 0.42342 0.10974 0.0
H81 H 0.98076 0.4185 0.12361 0.0
H82 H 0.96448 0.44949 0.09944 0.0
H83 H 0.95907 0.39953 0.0967 0.0
C84 C 0.00216 0.32011 0.18517 0.0
N85 N 0.97753 0.31509 0.16663 0.0
N86 N 0.96243 0.34729 0.1607 0.0
C87 C 0.97657 0.37376 0.17587 0.0
C88 C 0.00262 0.35752 0.19151 0.0
C89 C 0.02367 0.28924 0.19707 0.0
H90 H 0.0041 0.26773 0.20399 0.0
H91 H 0.0418 0.27604 0.18295 0.0
H92 H 0.04136 0.29931 0.21252 0.0
O93 O 0.90531 0.26388 0.1628 0.0
O94 O 0.88125 0.31719 0.14961 0.0
H95 H 0.93123 0.41282 0.17437 0.0
H96 H 0.96559 0.42302 0.19766 0.0
C97 C 0.96135 0.41235 0.17854 0.0
H98 H 0.97621 0.43123 0.16571 0.0
H99 H 0.85201 0.38788 0.14853 0.0
O100 O 0.98602 0.22666 0.16166 0.0
C101 C 0.87758 0.28546 0.15979 0.0
Co102 Co 0.21806 0.95453 0.65327 0.0
Co103 Co 0.14203 0.92334 0.63556 0.0
C104 C 0.19574 0.95092 0.59876 0.0
O105 O 0.21799 0.95712 0.61661 0.0
O106 O 0.16302 0.93872 0.60281 0.0
C107 C 0.2681 0.01378 0.6524 0.0
O108 O 0.24121 0.02862 0.63917 0.0
C109 C 0.06446 0.91773 0.6187 0.0
C110 C 0.04476 0.87065 0.64155 0.0
C111 C 0.03283 0.89759 0.62501 0.0
N112 N 0.09332 0.90394 0.63154 0.0
N113 N 0.08157 0.87515 0.64462 0.0
C114 C 0.06772 0.94914 0.60054 0.0
H115 H 0.08528 0.93987 0.58476 0.0
H116 H 0.08226 0.97307 0.60917 0.0
H117 H 0.04023 0.95782 0.59322 0.0
C118 C 0.16944 -0.00201 0.68691 0.0
N119 N 0.17451 0.9748 0.66756 0.0
N120 N 0.14204 0.9626 0.65977 0.0
C121 C 0.11509 0.97817 0.67384 0.0
C122 C 0.13153 0.00102 0.69163 0.0
C123 C 0.20057 0.01325 0.70229 0.0
H124 H 0.22407 0.99327 0.70272 0.0
H125 H 0.21055 0.03956 0.6938 0.0
H126 H 0.19138 0.01907 0.72156 0.0
O127 O 0.22433 0.90224 0.66322 0.0
O128 O 0.17096 0.88054 0.64852 0.0
H129 H 0.06794 0.94181 0.67503 0.0
H130 H 0.05697 0.98997 0.68182 0.0
C131 C 0.07437 0.97118 0.67038 0.0
H132 H 0.06699 0.97609 0.65079 0.0
H133 H 0.09827 0.85984 0.65671 0.0
O134 O 0.26283 0.98233 0.66256 0.0
C135 C 0.20208 0.87537 0.65924 0.0
Co136 Co 0.53302 0.27161 0.87137 0.0
Co137 Co 0.56688 0.34737 0.88724 0.0
C138 C 0.53845 0.29467 0.92516 0.0
O139 O 0.53099 0.27192 0.90786 0.0
O140 O 0.55152 0.3268 0.92028 0.0
C141 C 0.47466 0.2209 0.87403 0.0
O142 O 0.46112 0.24701 0.88852 0.0
C143 C 0.56812 0.42592 0.90098 0.0
C144 C 0.62248 0.44363 0.8859 0.0
C145 C 0.59027 0.45699 0.89683 0.0
N146 N 0.58598 0.39596 0.89213 0.0
N147 N 0.61887 0.40654 0.88375 0.0
C148 C 0.53087 0.42422 0.91339 0.0
H149 H 0.50884 0.41923 0.89942 0.0
H150 H 0.52479 0.45033 0.92363 0.0
H151 H 0.53025 0.40038 0.92647 0.0
C152 C 0.48864 0.31998 0.83821 0.0
N153 N 0.51298 0.31531 0.85697 0.0
N154 N 0.52782 0.34764 0.86285 0.0
C155 C 0.51382 0.37386 0.84743 0.0
C156 C 0.48811 0.35731 0.83167 0.0
C157 C 0.46757 0.28884 0.82627 0.0
H158 H 0.48739 0.26727 0.81977 0.0
H159 H 0.44904 0.27584 0.84024 0.0
H160 H 0.4503 0.29858 0.81052 0.0
O161 O 0.58542 0.26449 0.86116 0.0
O162 O 0.60902 0.31809 0.87423 0.0
H163 H 0.55904 0.41306 0.84896 0.0
H164 H 0.52496 0.42287 0.82541 0.0
C165 C 0.52897 0.41246 0.84462 0.0
H166 H 0.5139 0.43146 0.85725 0.0
H167 H 0.63804 0.38875 0.87535 0.0
O168 O 0.50477 0.22698 0.86236 0.0
C169 C 0.61296 0.28632 0.86415 0.0
Co170 Co 0.2181 0.53352 0.37074 0.0
Co171 Co 0.14245 0.5674 0.38692 0.0
C172 C 0.19562 0.53918 0.42463 0.0
O173 O 0.21822 0.53168 0.40725 0.0
O174 O 0.16341 0.55215 0.41987 0.0
C175 C 0.26927 0.4754 0.37317 0.0
O176 O 0.24378 0.46202 0.3882 0.0
C177 C 0.06398 0.56885 0.40104 0.0
C178 C 0.04631 0.6232 0.38591 0.0
C179 C 0.03296 0.59111 0.39701 0.0
N180 N 0.09391 0.58655 0.39199 0.0
N181 N 0.08335 0.61943 0.38356 0.0
C182 C 0.06568 0.5317 0.41359 0.0
H183 H 0.08952 0.53122 0.42667 0.0
H184 H 0.0707 0.50955 0.3997 0.0
H185 H 0.03959 0.52569 0.42385 0.0
C186 C 0.16936 0.48872 0.33805 0.0
N187 N 0.17424 0.51335 0.35662 0.0
N188 N 0.14196 0.52819 0.36263 0.0
C189 C 0.11556 0.51388 0.34748 0.0
C190 C 0.13194 0.48799 0.33177 0.0
C191 C 0.20034 0.46747 0.32607 0.0
H192 H 0.22181 0.4872 0.3193 0.0
H193 H 0.21353 0.44918 0.3401 0.0
H194 H 0.1904 0.44994 0.3105 0.0
O195 O 0.22507 0.5859 0.36045 0.0
O196 O 0.17162 0.60952 0.37373 0.0
H197 H 0.06624 0.52464 0.32573 0.0
H198 H 0.05809 0.51369 0.35763 0.0
C199 C 0.07686 0.52882 0.34486 0.0
H200 H 0.07614 0.55891 0.34915 0.0
H201 H 0.1011 0.63849 0.37503 0.0
O202 O 0.26264 0.50531 0.36141 0.0
C203 C 0.20328 0.61345 0.36352 0.0
Co204 Co 0.95373 0.21845 0.86988 0.0
Co205 Co 0.92313 0.14191 0.88707 0.0
C206 C 0.95018 0.19537 0.92424 0.0
O207 O 0.95625 0.21802 0.90659 0.0
O208 O 0.9383 0.1626 0.91991 0.0
C209 C 0.01221 0.26942 0.87104 0.0
O210 O 0.02711 0.24302 0.88467 0.0
C211 C 0.91766 0.06423 0.90385 0.0
C212 C 0.87205 0.04404 0.87989 0.0
C213 C 0.8983 0.03237 0.89699 0.0
N214 N 0.90419 0.09298 0.89073 0.0
N215 N 0.87623 0.08093 0.877 0.0
C216 C 0.94815 0.06772 0.92266 0.0
H217 H 0.93976 0.08846 0.93686 0.0
H218 H 0.9738 0.0785 0.9138 0.0
H219 H 0.95392 0.0408 0.93199 0.0
C220 C -0.00211 0.17056 0.83612 0.0
N221 N 0.97444 0.17522 0.85539 0.0
N222 N 0.96245 0.14255 0.86296 0.0
C223 C 0.97842 0.11589 0.84885 0.0
C224 C 0.00131 0.13272 0.83124 0.0
C225 C 0.01312 0.20201 0.82101 0.0
H226 H 0.99288 0.22528 0.82047 0.0
H227 H 0.03911 0.21223 0.82979 0.0
H228 H 0.01946 0.19305 0.80176 0.0
O229 O 0.90143 0.22436 0.85994 0.0
O230 O 0.88011 0.17062 0.87429 0.0
H231 H 0.9428 0.06826 0.84671 0.0
H232 H 0.99141 0.05796 0.84109 0.0
C233 C 0.97179 0.07505 0.85211 0.0
H234 H 0.97567 0.06761 0.87178 0.0
H235 H 0.86135 0.0975 0.8646 0.0
O236 O 0.98104 0.26355 0.86067 0.0
C237 C 0.87472 0.20186 0.86376 0.0
Co238 Co 0.27128 0.95425 0.36977 0.0
Co239 Co 0.34755 0.92372 0.38745 0.0
C240 C 0.2937 0.95083 0.42429 0.0
O241 O 0.27139 0.95681 0.40645 0.0
O242 O 0.32654 0.93893 0.42024 0.0
C243 C 0.22043 0.01272 0.37088 0.0
O244 O 0.24682 0.02753 0.38456 0.0
C245 C 0.42529 0.91863 0.40408 0.0
C246 C 0.44511 0.87172 0.38112 0.0
C247 C 0.457 0.89871 0.39764 0.0
N248 N 0.39641 0.90466 0.39134 0.0
N249 N 0.40824 0.87597 0.37819 0.0
C250 C 0.42193 0.94991 0.42234 0.0
H251 H 0.40581 0.9732 0.41417 0.0
H252 H 0.44949 0.95973 0.42888 0.0
H253 H 0.40587 0.9399 0.43861 0.0
C254 C 0.31947 -0.00147 0.33633 0.0
N255 N 0.31462 0.97497 0.35551 0.0
N256 N 0.3472 0.96306 0.36329 0.0
C257 C 0.37401 0.97922 0.34939 0.0
C258 C 0.35735 0.00214 0.33172 0.0
C259 C 0.28819 0.01378 0.32108 0.0
H260 H 0.26495 0.99351 0.32039 0.0
H261 H 0.27786 0.03974 0.32984 0.0
H262 H 0.29737 0.02018 0.30189 0.0
O263 O 0.26543 0.90197 0.35979 0.0
O264 O 0.3189 0.88065 0.37454 0.0
H265 H 0.42182 0.94372 0.34841 0.0
H266 H 0.43201 0.99208 0.34172 0.0
C267 C 0.4148 0.97296 0.35305 0.0
H268 H 0.42185 0.97798 0.37267 0.0
H269 H 0.39155 0.86057 0.36615 0.0
O270 O 0.22631 0.9816 0.36043 0.0
C271 C 0.28783 0.87526 0.36381 0.0
Co272 Co 0.45505 0.77077 0.86814 0.0
Co273 Co 0.42236 0.84642 0.8852 0.0
C274 C 0.44936 0.79186 0.92233 0.0
O275 O 0.45651 0.76962 0.90468 0.0
O276 O 0.43706 0.82444 0.91795 0.0
C277 C 0.51314 0.72006 0.87032 0.0
O278 O 0.52646 0.74599 0.88504 0.0
C279 C 0.42201 0.92433 0.90049 0.0
C280 C 0.36867 0.94373 0.88474 0.0
C281 C 0.40064 0.95599 0.89653 0.0
N282 N 0.40398 0.89512 0.89073 0.0
N283 N 0.37168 0.90669 0.88193 0.0
C284 C 0.45865 0.92135 0.91359 0.0
H285 H 0.48122 0.91669 0.89994 0.0
H286 H 0.46468 0.9468 0.92454 0.0
H287 H 0.45827 0.89686 0.92612 0.0
C288 C 0.50071 0.8197 0.83607 0.0
N289 N 0.47601 0.81468 0.8546 0.0
N290 N 0.46177 0.84704 0.86105 0.0
C291 C 0.47662 0.87367 0.8463 0.0
C292 C 0.50217 0.85731 0.83033 0.0
C293 C 0.52131 0.7887 0.82362 0.0
H294 H 0.50122 0.76738 0.8171 0.0
H295 H 0.54006 0.7753 0.83727 0.0
H296 H 0.53833 0.79866 0.8078 0.0
O297 O 0.4027 0.76484 0.85751 0.0
O298 O 0.37988 0.81822 0.87155 0.0
H299 H 0.46774 0.92445 0.82562 0.0
H300 H 0.47729 0.93051 0.85795 0.0
C301 C 0.46251 0.91279 0.84437 0.0
H302 H 0.43226 0.91378 0.84807 0.0
H303 H 0.35257 0.88965 0.87282 0.0
O304 O 0.48305 0.7262 0.85865 0.0
C305 C 0.37548 0.78696 0.86086 0.0
Co306 Co 0.71818 0.45759 0.36912 0.0
Co307 Co 0.6429 0.42339 0.38556 0.0
C308 C 0.69622 0.45152 0.42313 0.0
O309 O 0.71871 0.45899 0.40568 0.0
O310 O 0.66392 0.43873 0.41846 0.0
C311 C 0.76908 0.51581 0.37169 0.0
O312 O 0.74342 0.52902 0.38666 0.0
C313 C 0.56459 0.42191 0.39987 0.0
C314 C 0.54679 0.36747 0.38493 0.0
C315 C 0.53354 0.39963 0.39601 0.0
N316 N 0.59443 0.40416 0.39076 0.0
N317 N 0.58381 0.37124 0.38244 0.0
C318 C 0.56638 0.45916 0.41228 0.0
H319 H 0.57087 0.48124 0.39826 0.0
H320 H 0.5405 0.46508 0.42281 0.0
H321 H 0.59053 0.45991 0.42509 0.0
C322 C 0.66917 0.50224 0.33661 0.0
N323 N 0.67421 0.47775 0.35524 0.0
N324 N 0.64205 0.46265 0.36124 0.0
C325 C 0.61556 0.47668 0.34603 0.0
C326 C 0.63177 0.50263 0.33027 0.0
C327 C 0.70006 0.52348 0.32451 0.0
H328 H 0.72136 0.50372 0.31754 0.0
H329 H 0.71352 0.54162 0.33851 0.0
H330 H 0.68997 0.54115 0.30906 0.0
O331 O 0.72498 0.40541 0.3584 0.0
O332 O 0.67225 0.38124 0.37245 0.0
H333 H 0.56636 0.46542 0.32426 0.0
H334 H 0.55809 0.47633 0.35617 0.0
C335 C 0.577 0.46137 0.3434 0.0
H336 H 0.57657 0.43129 0.34772 0.0
H337 H 0.6015 0.35213 0.37389 0.0
O338 O 0.76262 0.48597 0.3598 0.0
C339 C 0.70365 0.37759 0.36182 0.0
Co340 Co 0.03439 0.71894 0.86959 0.0
Co341 Co 0.06721 0.64291 0.88602 0.0
C342 C 0.0401 0.69669 0.9236 0.0
O343 O 0.03301 0.71913 0.90607 0.0
O344 O 0.05243 0.66417 0.91904 0.0
C345 C 0.97618 0.76949 0.87264 0.0
O346 O 0.96241 0.74259 0.88637 0.0
C347 C 0.06771 0.56437 0.90014 0.0
C348 C 0.1218 0.54602 0.88495 0.0
C349 C 0.08957 0.53306 0.89608 0.0
N350 N 0.08576 0.59409 0.89108 0.0
N351 N 0.11848 0.58312 0.88262 0.0
C352 C 0.03064 0.56653 0.91276 0.0
H353 H 0.00844 0.57125 0.89887 0.0
H354 H 0.0246 0.5407 0.92331 0.0
H355 H 0.0303 0.5907 0.92557 0.0
C356 C 0.98927 0.67064 0.8368 0.0
N357 N 0.01357 0.67527 0.85559 0.0
N358 N 0.02793 0.64283 0.86173 0.0
C359 C 0.01362 0.61655 0.84647 0.0
C360 C 0.98822 0.6332 0.83053 0.0
C361 C 0.9689 0.70191 0.82449 0.0
H362 H 0.95009 0.71519 0.83816 0.0
H363 H 0.95201 0.69225 0.80853 0.0
H364 H 0.98914 0.72325 0.81821 0.0
O365 O 0.08671 0.7251 0.85895 0.0
O366 O 0.10964 0.67154 0.87262 0.0
H367 H 0.02396 0.56696 0.82482 0.0
H368 H 0.01338 0.55913 0.85683 0.0
C369 C 0.02837 0.57775 0.84389 0.0
H370 H 0.0585 0.57698 0.84801 0.0
H371 H 0.13774 0.60063 0.87406 0.0
O372 O 0.00639 0.76397 0.86095 0.0
C373 C 0.11397 0.70297 0.86213 0.0
Co374 Co 0.77048 0.03673 0.36915 0.0
Co375 Co 0.84705 0.06808 0.3857 0.0
C376 C 0.79308 0.0415 0.42319 0.0
O377 O 0.77033 0.03511 0.4057 0.0
O378 O 0.8258 0.05319 0.41858 0.0
C379 C 0.719 0.97927 0.37211 0.0
O380 O 0.74548 0.96531 0.3861 0.0
C381 C 0.92554 0.06819 0.40008 0.0
C382 C 0.94426 0.12201 0.38466 0.0
C383 C 0.95695 0.08991 0.39606 0.0
N384 N 0.896 0.08622 0.39075 0.0
N385 N 0.9072 0.11878 0.38214 0.0
C386 C 0.92309 0.03134 0.41297 0.0
H387 H 0.91728 0.00905 0.39932 0.0
H388 H 0.94915 0.02487 0.42313 0.0
H389 H 0.89943 0.03174 0.4262 0.0
C390 C 0.81828 0.99069 0.33641 0.0
N391 N 0.81389 0.01528 0.35508 0.0
N392 N 0.84656 0.02898 0.36135 0.0
C393 C 0.87273 0.01394 0.34635 0.0
C394 C 0.85579 0.98876 0.3304 0.0
C395 C 0.7868 0.97062 0.32411 0.0
H396 H 0.76566 0.99106 0.31785 0.0
H397 H 0.77335 0.95195 0.33781 0.0
H398 H 0.79629 0.95361 0.30816 0.0
O399 O 0.76501 0.08927 0.35865 0.0
O400 O 0.81893 0.11091 0.37255 0.0
H401 H 0.91349 0.05773 0.34815 0.0
H402 H 0.92308 0.02271 0.3252 0.0
C403 C 0.91198 0.02759 0.34414 0.0
H404 H 0.92986 0.0122 0.35732 0.0
H405 H 0.88987 0.138 0.3734 0.0
O406 O 0.72509 0.00934 0.36038 0.0
C407 C 0.78765 0.11604 0.36205 0.0
Co408 Co 0.45518 0.71973 0.15162 0.0
Co409 Co 0.42187 0.64368 0.13549 0.0
C410 C 0.44956 0.69702 0.09772 0.0
O411 O 0.45685 0.7196 0.11515 0.0
O412 O 0.43688 0.66468 0.10243 0.0
C413 C 0.51294 0.77125 0.14867 0.0
O414 O 0.52669 0.74522 0.1342 0.0
C415 C 0.42146 0.56493 0.12181 0.0
C416 C 0.3672 0.54681 0.13683 0.0
C417 C 0.39957 0.53367 0.12597 0.0
N418 N 0.4033 0.5948 0.13056 0.0
N419 N 0.37048 0.58394 0.13892 0.0
C420 C 0.4587 0.56691 0.10939 0.0
H421 H 0.48075 0.57158 0.12339 0.0
H422 H 0.46476 0.54101 0.09892 0.0
H423 H 0.4593 0.59103 0.09654 0.0
C424 C 0.50015 0.67147 0.18451 0.0
N425 N 0.47573 0.67608 0.16578 0.0
N426 N 0.46106 0.64369 0.15986 0.0
C427 C 0.47523 0.61749 0.17523 0.0
C428 C 0.5009 0.63411 0.19099 0.0
C429 C 0.52096 0.7027 0.19653 0.0
H430 H 0.50093 0.72387 0.20334 0.0
H431 H 0.53905 0.71623 0.18253 0.0
H432 H 0.53862 0.69294 0.21209 0.0
O433 O 0.40279 0.72608 0.16206 0.0
O434 O 0.37943 0.67257 0.14865 0.0
H435 H 0.43004 0.57824 0.17385 0.0
H436 H 0.46424 0.5685 0.19731 0.0
C437 C 0.46013 0.57888 0.17811 0.0
H438 H 0.47513 0.55984 0.16546 0.0
H439 H 0.35112 0.60159 0.14726 0.0
O440 O 0.48303 0.76481 0.1605 0.0
C441 C 0.37534 0.70417 0.15896 0.0
Co442 Co 0.77196 0.45672 0.65158 0.0
Co443 Co 0.84744 0.42262 0.63546 0.0
C444 C 0.79449 0.45105 0.59769 0.0
O445 O 0.7719 0.45858 0.61507 0.0
O446 O 0.82665 0.43801 0.60247 0.0
C447 C 0.72147 0.51529 0.64911 0.0
O448 O 0.74748 0.52869 0.63449 0.0
C449 C 0.92587 0.4212 0.62146 0.0
C450 C 0.94355 0.36677 0.63644 0.0
C451 C 0.9569 0.39896 0.62547 0.0
N452 N 0.89594 0.40341 0.63041 0.0
N453 N 0.9065 0.37048 0.63874 0.0
C454 C 0.92417 0.45848 0.60907 0.0
H455 H 0.91943 0.48052 0.62309 0.0
H456 H 0.95018 0.46447 0.59871 0.0
H457 H 0.90019 0.4592 0.59612 0.0
C458 C 0.82066 0.50111 0.68453 0.0
N459 N 0.81581 0.47672 0.66581 0.0
N460 N 0.84805 0.46175 0.65986 0.0
C461 C 0.8744 0.47574 0.6752 0.0
C462 C 0.85802 0.50155 0.69099 0.0
C463 C 0.78966 0.5223 0.69653 0.0
H464 H 0.76807 0.50255 0.70311 0.0
H465 H 0.77665 0.54085 0.68259 0.0
H466 H 0.79953 0.53959 0.71224 0.0
O467 O 0.76481 0.40436 0.66192 0.0
O468 O 0.81809 0.38048 0.64853 0.0
H469 H 0.9135 0.43045 0.67352 0.0
H470 H 0.92348 0.46448 0.69708 0.0
C471 C 0.91297 0.46051 0.6779 0.0
H472 H 0.93193 0.47559 0.66523 0.0
H473 H 0.88874 0.35134 0.6472 0.0
O474 O 0.72753 0.48515 0.66074 0.0
C475 C 0.78642 0.37668 0.65878 0.0
Co476 Co 0.03329 0.77104 0.15293 0.0
Co477 Co 0.06704 0.84643 0.13615 0.0
C478 C 0.03934 0.7924 0.09882 0.0
O479 O 0.03186 0.77016 0.11642 0.0
O480 O 0.05205 0.82481 0.1033 0.0
C481 C 0.97514 0.72008 0.15054 0.0
O482 O 0.96197 0.74563 0.13547 0.0
C483 C 0.06843 0.9247 0.12148 0.0
C484 C 0.12275 0.94266 0.13649 0.0
C485 C 0.09066 0.95581 0.12529 0.0
N486 N 0.08614 0.89493 0.13074 0.0
N487 N 0.119 0.90565 0.1391 0.0
C488 C 0.03129 0.92277 0.10894 0.0
H489 H 0.00913 0.91809 0.12287 0.0
H490 H 0.02533 0.94866 0.09844 0.0
H491 H 0.03078 0.89865 0.09609 0.0
C492 C 0.98807 0.82027 0.18504 0.0
N493 N 0.01286 0.81512 0.16659 0.0
N494 N 0.02768 0.84732 0.16039 0.0
C495 C 0.01322 0.87396 0.17531 0.0
C496 C 0.98723 0.8578 0.19107 0.0
C497 C 0.96674 0.78944 0.19714 0.0
H498 H 0.98642 0.76811 0.20416 0.0
H499 H 0.94864 0.77599 0.18312 0.0
H500 H 0.949 0.79958 0.21254 0.0
O501 O 0.08558 0.76442 0.16353 0.0
O502 O 0.10919 0.81753 0.14962 0.0
H503 H 0.02398 0.92355 0.19679 0.0
H504 H 0.01286 0.93133 0.16488 0.0
C505 C 0.02809 0.91273 0.1777 0.0
H506 H 0.05815 0.91347 0.17335 0.0
H507 H 0.13806 0.88805 0.14776 0.0
O508 O 0.00499 0.72661 0.16239 0.0
C509 C 0.11314 0.78613 0.16021 0.0
Co510 Co 0.7185 0.03481 0.65156 0.0
Co511 Co 0.64227 0.0681 0.63586 0.0
C512 C 0.69517 0.04054 0.5978 0.0
O513 O 0.71799 0.03317 0.61508 0.0
O514 O 0.66292 0.05325 0.60272 0.0
C515 C 0.77005 0.97716 0.64832 0.0
O516 O 0.74388 0.96338 0.63398 0.0
C517 C 0.56367 0.06824 0.62213 0.0
C518 C 0.54482 0.12154 0.63827 0.0
C519 C 0.53211 0.08947 0.62679 0.0
N520 N 0.59328 0.08642 0.63122 0.0
N521 N 0.582 0.1187 0.64025 0.0
C522 C 0.56618 0.03158 0.609 0.0
H523 H 0.57113 0.00899 0.62258 0.0
H524 H 0.5404 0.02562 0.59839 0.0
H525 H 0.5903 0.03186 0.59615 0.0
C526 C 0.6705 0.98934 0.68443 0.0
N527 N 0.67504 0.01413 0.66591 0.0
N528 N 0.64259 0.02874 0.66007 0.0
C529 C 0.61642 0.01411 0.67527 0.0
C530 C 0.63312 0.98825 0.69085 0.0
C531 C 0.70176 0.96825 0.6962 0.0
H532 H 0.72317 0.98811 0.7029 0.0
H533 H 0.71494 0.95014 0.68206 0.0
H534 H 0.69211 0.95058 0.71178 0.0
O535 O 0.72489 0.08724 0.66195 0.0
O536 O 0.67119 0.11059 0.64888 0.0
H537 H 0.57687 0.05902 0.67446 0.0
H538 H 0.56671 0.02352 0.69697 0.0
C539 C 0.57761 0.02872 0.67802 0.0
H540 H 0.55909 0.01429 0.66475 0.0
H541 H 0.59938 0.1379 0.64898 0.0
O542 O 0.76369 0.00703 0.66021 0.0
C543 C 0.70293 0.1147 0.65898 0.0
H544 H 0.5425 0.15625 0.05618 0.0
H545 H 0.54522 0.33522 0.96843 0.0
H546 H 0.52736 0.26794 0.084 0.0
H547 H 0.52267 0.22437 0.94133 0.0
H548 H 0.54238 0.31124 1.01103 0.0
H549 H 0.53898 0.18063 0.01375 0.0
C550 C 0.53824 0.1858 0.0534 0.0
C551 C 0.53529 0.21002 0.07374 0.0
C552 C 0.53782 0.29229 0.99571 0.0
C553 C 0.53172 0.23816 0.02526 0.0
C554 C 0.53946 0.30597 0.9714 0.0
C555 C 0.53428 0.28184 0.95121 0.0
C556 C 0.53149 0.25414 0.99984 0.0
C557 C 0.52688 0.24412 0.95624 0.0
C558 C 0.53619 0.19971 0.02919 0.0
C559 C 0.52977 0.24813 0.06896 0.0
N560 N 0.52604 0.23142 0.97998 0.0
N561 N 0.5285 0.26103 0.04527 0.0
H562 H 0.15514 0.54471 0.46799 0.0
H563 H 0.33402 0.54424 0.55581 0.0
H564 H 0.26633 0.52496 0.44061 0.0
H565 H 0.2227 0.52536 0.58325 0.0
H566 H 0.30983 0.54135 0.51328 0.0
H567 H 0.17927 0.54179 0.51053 0.0
C568 C 0.18451 0.53958 0.47088 0.0
C569 C 0.20867 0.53514 0.45064 0.0
C570 C 0.29081 0.53761 0.52867 0.0
C571 C 0.23654 0.53227 0.49921 0.0
C572 C 0.3046 0.5393 0.55293 0.0
C573 C 0.28043 0.5351 0.57319 0.0
C574 C 0.2525 0.53226 0.52464 0.0
C575 C 0.24249 0.52874 0.56827 0.0
C576 C 0.19828 0.53787 0.49516 0.0
C577 C 0.24656 0.52853 0.45558 0.0
N578 N 0.22969 0.52784 0.54457 0.0
N579 N 0.25933 0.52762 0.47929 0.0
H580 H 0.94801 0.15504 0.96773 0.0
H581 H 0.94456 0.33421 0.05532 0.0
H582 H 0.96209 0.2668 0.9398 0.0
H583 H 0.96781 0.22356 0.0825 0.0
H584 H 0.94731 0.31013 0.01275 0.0
H585 H 0.95157 0.17952 1.01014 0.0
C586 C 0.95204 0.18463 0.97048 0.0
C587 C 0.95468 0.20883 0.95012 0.0
C588 C 0.95205 0.29124 0.02808 0.0
C589 C 0.95831 0.23709 0.99857 0.0
C590 C 0.95045 0.30498 0.05237 0.0
C591 C 0.95586 0.28094 0.07258 0.0
C592 C 0.95857 0.25312 0.02398 0.0
C593 C 0.96343 0.24324 0.06757 0.0
C594 C 0.95412 0.19859 0.99468 0.0
C595 C 0.95993 0.247 0.95486 0.0
N596 N 0.96423 0.23048 0.04385 0.0
N597 N 0.96123 0.25994 0.97854 0.0
H598 H 0.22234 0.96523 0.43901 0.0
H599 H 0.267 0.96583 0.58403 0.0
H600 H 0.3326 0.94677 0.46838 0.0
H601 H 0.1569 0.94638 0.55468 0.0
H602 H 0.29116 0.96896 0.54181 0.0
H603 H 0.19818 0.96843 0.48122 0.0
C604 C 0.24162 0.96211 0.45431 0.0
C605 C 0.27968 0.95551 0.45004 0.0
C606 C 0.26171 0.96413 0.5446 0.0
C607 C 0.25187 0.95929 0.49859 0.0
C608 C 0.24775 0.96249 0.56873 0.0
C609 C 0.20975 0.95562 0.57301 0.0
C610 C 0.23755 0.95932 0.52445 0.0
C611 C 0.18636 0.95156 0.55232 0.0
C612 C 0.22766 0.9638 0.47843 0.0
C613 C 0.3031 0.95174 0.47073 0.0
N614 N 0.20064 0.95348 0.52894 0.0
N615 N 0.28882 0.95369 0.49411 0.0
H616 H 0.46236 0.72045 0.93754 0.0
H617 H 0.46522 0.76764 0.0821 0.0
H618 H 0.44497 0.83135 0.96617 0.0
H619 H 0.44287 0.65728 0.05404 0.0
H620 H 0.46768 0.79085 0.03967 0.0
H621 H 0.46498 0.69684 0.97993 0.0
C622 C 0.45934 0.73998 0.95272 0.0
C623 C 0.45328 0.77807 0.94819 0.0
C624 C 0.46233 0.76155 0.04278 0.0
C625 C 0.45643 0.75091 0.99693 0.0
C626 C 0.46107 0.74812 0.06703 0.0
C627 C 0.45364 0.71032 0.07176 0.0
C628 C 0.45658 0.73708 0.02291 0.0
C629 C 0.44854 0.68659 0.05134 0.0
C630 C 0.46068 0.72634 0.97694 0.0
C631 C 0.44955 0.80183 0.96872 0.0
N632 N 0.45014 0.70036 0.0278 0.0
N633 N 0.45124 0.78786 0.99219 0.0
H634 H 0.65588 0.44659 0.46657 0.0
H635 H 0.83491 0.44523 0.5543 0.0
H636 H 0.76722 0.4648 0.43899 0.0
H637 H 0.72386 0.46569 0.58169 0.0
H638 H 0.81075 0.44822 0.51175 0.0
H639 H 0.68019 0.44937 0.50907 0.0
C640 C 0.68533 0.45136 0.46941 0.0
C641 C 0.70946 0.45542 0.44912 0.0
C642 C 0.79179 0.45227 0.52713 0.0
C643 C 0.73754 0.45813 0.49766 0.0
C644 C 0.80557 0.45054 0.55141 0.0
C645 C 0.78146 0.45514 0.57166 0.0
C646 C 0.75355 0.45809 0.52309 0.0
C647 C 0.7436 0.46197 0.56673 0.0
C648 C 0.6992 0.45298 0.49367 0.0
C649 C 0.74746 0.46155 0.454 0.0
N650 N 0.73081 0.4629 0.54301 0.0
N651 N 0.76032 0.46239 0.4777 0.0
H652 H 0.02501 0.72129 0.08357 0.0
H653 H 0.02585 0.76776 0.93891 0.0
H654 H 0.04526 0.83173 0.05497 0.0
H655 H 0.04556 0.65719 0.96745 0.0
H656 H 0.02318 0.79132 0.98127 0.0
H657 H 0.02276 0.6976 0.0412 0.0
C658 C 0.02873 0.74071 0.0684 0.0
C659 C 0.03549 0.77868 0.07294 0.0
C660 C 0.028 0.76191 0.97828 0.0
C661 C 0.03279 0.75142 0.02421 0.0
C662 C 0.02938 0.74827 0.95407 0.0
C663 C 0.03611 0.7103 0.94951 0.0
C664 C 0.03291 0.73745 0.99825 0.0
C665 C 0.04045 0.68663 0.97003 0.0
C666 C 0.0276 0.72701 0.04419 0.0
C667 C 0.04011 0.80229 0.05241 0.0
N668 N 0.03873 0.70059 0.99351 0.0
N669 N 0.03862 0.78827 0.02894 0.0
H670 H 0.83357 0.0447 0.46661 0.0
H671 H 0.65462 0.04715 0.55453 0.0
H672 H 0.72182 0.02952 0.43899 0.0
H673 H 0.7656 0.02545 0.58161 0.0
H674 H 0.67862 0.04452 0.51193 0.0
H675 H 0.80928 0.04152 0.5091 0.0
C676 C 0.80403 0.04053 0.46944 0.0
C677 C 0.77977 0.03745 0.44915 0.0
C678 C 0.6976 0.04011 0.52725 0.0
C679 C 0.75173 0.03424 0.49767 0.0
C680 C 0.68391 0.04164 0.55156 0.0
C681 C 0.70806 0.03661 0.57174 0.0
C682 C 0.73578 0.03404 0.52311 0.0
C683 C 0.74583 0.02952 0.5667 0.0
C684 C 0.79017 0.03867 0.49369 0.0
C685 C 0.74166 0.03203 0.454 0.0
N686 N 0.75853 0.02877 0.54297 0.0
N687 N 0.72882 0.03092 0.4777 0.0
H688 H 0.48146 0.83458 0.16713 0.0
H689 H 0.63718 0.97368 0.11863 0.0
H690 H 0.57722 0.79515 0.12644 0.0
H691 H 0.52365 0.00594 0.13305 0.0
H692 H 0.61929 0.9082 0.12427 0.0
H693 H 0.50123 0.89839 0.15942 0.0
C694 C 0.50693 0.83931 0.15685 0.0
C695 C 0.52763 0.8095 0.14729 0.0
C696 C 0.59824 0.92966 0.1257 0.0
C697 C 0.55015 0.88251 0.13819 0.0
C698 C 0.60834 0.96684 0.12233 0.0
C699 C 0.58166 0.99505 0.1248 0.0
C700 C 0.56145 0.92099 0.13226 0.0
C701 C 0.54486 0.98502 0.13023 0.0
C702 C 0.51797 0.87576 0.15223 0.0
C703 C 0.56037 0.81736 0.13405 0.0
N704 N 0.53592 0.94882 0.13402 0.0
N705 N 0.57065 0.85321 0.12985 0.0
H706 H 0.69765 0.57857 0.62557 0.0
H707 H 0.48492 0.52102 0.63846 0.0
H708 H 0.65853 0.48605 0.6696 0.0
H709 H 0.51761 0.63173 0.61638 0.0
H710 H 0.54987 0.50507 0.6446 0.0
H711 H 0.63297 0.59733 0.61857 0.0
C712 C 0.67553 0.56251 0.63403 0.0
C713 C 0.68345 0.53054 0.64805 0.0
C714 C 0.54292 0.53277 0.63817 0.0
C715 C 0.60979 0.55138 0.63969 0.0
C716 C 0.50579 0.54171 0.63419 0.0
C717 C 0.49589 0.57756 0.62637 0.0
C718 C 0.57043 0.55986 0.63436 0.0
C719 C 0.52424 0.60366 0.62218 0.0
C720 C 0.6387 0.57316 0.62994 0.0
C721 C 0.65375 0.51079 0.6586 0.0
N722 N 0.56038 0.5943 0.62621 0.0
N723 N 0.61822 0.52131 0.65397 0.0
H724 H 0.85606 0.51635 0.11565 0.0
H725 H 0.0033 0.65804 0.1729 0.0
H726 H 0.96625 0.48547 0.13978 0.0
H727 H 0.9131 0.6952 0.1261 0.0
H728 H 0.984 0.5939 0.16602 0.0
H729 H 0.87191 0.58199 0.12284 0.0
C730 C 0.88378 0.52347 0.12196 0.0
C731 C 0.91015 0.49556 0.12661 0.0
C732 C 0.96833 0.61612 0.15734 0.0
C733 C 0.9279 0.56987 0.13567 0.0
C734 C 0.97911 0.65277 0.16145 0.0
C735 C 0.95999 0.68199 0.14985 0.0
C736 C 0.93804 0.6086 0.1417 0.0
C737 C 0.92877 0.67345 0.13526 0.0
C738 C 0.89269 0.56076 0.12619 0.0
C739 C 0.94541 0.50603 0.13524 0.0
N740 N 0.91882 0.63742 0.13148 0.0
N741 N 0.95315 0.54232 0.13967 0.0
H742 H 0.83351 0.00877 0.66644 0.0
H743 H 0.97232 0.85367 0.61674 0.0
H744 H 0.79384 0.91306 0.6258 0.0
H745 H 0.00456 0.96713 0.63153 0.0
H746 H 0.90689 0.87144 0.62265 0.0
H747 H 0.89726 0.98927 0.65826 0.0
C748 C 0.83817 0.98337 0.65607 0.0
C749 C 0.80831 0.9626 0.64667 0.0
C750 C 0.92832 0.89251 0.62409 0.0
C751 C 0.88125 0.9404 0.63702 0.0
C752 C 0.96548 0.88248 0.62056 0.0
C753 C 0.99368 0.90917 0.62308 0.0
C754 C 0.91966 0.92923 0.63085 0.0
C755 C 0.98365 0.94592 0.62867 0.0
C756 C 0.87459 0.97249 0.65118 0.0
C757 C 0.81609 0.92996 0.6333 0.0
N758 N 0.94748 0.95478 0.63261 0.0
N759 N 0.85191 0.91983 0.62883 0.0
H760 H 0.48503 0.65745 0.84864 0.0
H761 H 0.63303 0.51769 0.90716 0.0
H762 H 0.57553 0.69598 0.89469 0.0
H763 H 0.52308 0.48577 0.88313 0.0
H764 H 0.61691 0.58308 0.89931 0.0
H765 H 0.50461 0.59354 0.85609 0.0
C766 C 0.50934 0.65252 0.86005 0.0
C767 C 0.52846 0.68206 0.87127 0.0
C768 C 0.59623 0.56168 0.89613 0.0
C769 C 0.55072 0.60896 0.88009 0.0
C770 C 0.6053 0.52453 0.90073 0.0
C771 C 0.57909 0.4964 0.8963 0.0
C772 C 0.56103 0.57041 0.8865 0.0
C773 C 0.54381 0.50651 0.88751 0.0
C774 C 0.52029 0.616 0.86448 0.0
C775 C 0.55985 0.67397 0.88582 0.0
N776 N 0.53592 0.54266 0.88273 0.0
N777 N 0.56994 0.63807 0.88994 0.0
H778 H 0.83129 0.48744 0.34965 0.0
H779 H 0.97268 0.63418 0.4078 0.0
H780 H 0.79389 0.57775 0.39631 0.0
H781 H 0.00363 0.52406 0.3835 0.0
H782 H 0.90711 0.61844 0.40036 0.0
H783 H 0.8954 0.50646 0.35693 0.0
C784 C 0.83651 0.51159 0.36116 0.0
C785 C 0.80721 0.53083 0.37259 0.0
C786 C 0.92833 0.59763 0.39704 0.0
C787 C 0.88057 0.55246 0.3812 0.0
C788 C 0.96558 0.60649 0.4014 0.0
C789 C 0.9935 0.58012 0.39677 0.0
C790 C 0.91926 0.56249 0.38742 0.0
C791 C 0.98306 0.54489 0.38803 0.0
C792 C 0.87314 0.52222 0.36549 0.0
C793 C 0.81569 0.562 0.38727 0.0
N794 N 0.9468 0.53722 0.38346 0.0
N795 N 0.8517 0.57179 0.39127 0.0
H796 H 0.96884 0.00509 0.89376 0.0
H797 H 0.91025 0.79141 0.89355 0.0
H798 H 0.8545 0.97109 0.90268 0.0
H799 H 0.00905 0.83429 0.858 0.0
H800 H 0.89086 0.85542 0.90263 0.0
H801 H 0.98663 0.94024 0.88837 0.0
C802 C 0.94763 0.98387 0.89546 0.0
C803 C 0.91022 0.99333 0.89919 0.0
C804 C 0.91662 0.85066 0.89269 0.0
C805 C 0.9302 0.91919 0.89197 0.0
C806 C 0.92762 0.81426 0.88741 0.0
C807 C 0.96133 0.80755 0.87502 0.0
C808 C 0.93983 0.88034 0.88588 0.0
C809 C 0.98281 0.83813 0.86753 0.0
C810 C 0.95771 0.94689 0.89188 0.0
C811 C 0.8837 0.96473 0.90012 0.0
N812 N 0.97186 0.87318 0.8733 0.0
N813 N 0.89417 0.9288 0.89647 0.0
H814 H 0.51787 0.85528 0.40577 0.0
H815 H 0.65508 0.01102 0.35478 0.0
H816 H 0.48472 0.96838 0.39069 0.0
H817 H 0.69578 0.91492 0.39453 0.0
H818 H 0.59155 0.99139 0.36356 0.0
H819 H 0.58308 0.87336 0.3993 0.0
C820 C 0.52448 0.88409 0.40178 0.0
C821 C 0.49608 0.91058 0.39934 0.0
C822 C 0.61439 0.97454 0.37031 0.0
C823 C 0.56985 0.931 0.39093 0.0
C824 C 0.65068 0.98551 0.36508 0.0
C825 C 0.68078 0.96466 0.37406 0.0
C826 C 0.6081 0.94231 0.3844 0.0
C827 C 0.67334 0.93188 0.38735 0.0
C828 C 0.56151 0.8943 0.39792 0.0
C829 C 0.5058 0.94733 0.39352 0.0
N830 N 0.63765 0.92168 0.39217 0.0
N831 N 0.54185 0.95637 0.38927 0.0
H832 H 0.41134 0.19707 0.8975 0.0
H833 H 0.46918 0.98419 0.88528 0.0
H834 H 0.50446 0.1578 0.85411 0.0
H835 H 0.35828 0.017 0.90678 0.0
H836 H 0.48536 0.04916 0.87941 0.0
H837 H 0.39276 0.13238 0.90476 0.0
C838 C 0.42758 0.17491 0.88924 0.0
C839 C 0.45962 0.1828 0.8753 0.0
C840 C 0.45758 0.04224 0.88567 0.0
C841 C 0.43901 0.10913 0.88397 0.0
C842 C 0.4485 0.00508 0.8895 0.0
C843 C 0.41251 -0.00479 0.89704 0.0
C844 C 0.43048 0.06978 0.88934 0.0
C845 C 0.38645 0.02361 0.90118 0.0
C846 C 0.41704 0.13807 0.89348 0.0
C847 C 0.47962 0.15305 0.86502 0.0
N848 N 0.39593 0.05975 0.89728 0.0
N849 N 0.4692 0.11752 0.8698 0.0
H850 H 0.33105 0.50369 0.35057 0.0
H851 H 0.47339 0.35661 0.40729 0.0
H852 H 0.29448 0.41344 0.39757 0.0
H853 H 0.50403 0.4666 0.38255 0.0
H854 H 0.40769 0.37246 0.40046 0.0
H855 H 0.39525 0.48448 0.35716 0.0
C856 C 0.33646 0.47952 0.36202 0.0
C857 C 0.30739 0.46034 0.37374 0.0
C858 C 0.42889 0.39321 0.3969 0.0
C859 C 0.38087 0.4385 0.38155 0.0
C860 C 0.46621 0.38429 0.40091 0.0
C861 C 0.49407 0.41061 0.39599 0.0
C862 C 0.41967 0.42836 0.38736 0.0
C863 C 0.48352 0.44582 0.3873 0.0
C864 C 0.37316 0.46878 0.36595 0.0
C865 C 0.31611 0.42914 0.38831 0.0
N866 N 0.44718 0.45355 0.38309 0.0
N867 N 0.35219 0.41924 0.39192 0.0
H868 H 0.98252 0.33209 0.85041 0.0
H869 H 0.13222 0.47235 0.90656 0.0
H870 H 0.07538 0.29391 0.89446 0.0
H871 H 0.022 0.50428 0.88313 0.0
H872 H 0.11576 0.40691 0.89933 0.0
H873 H 0.00186 0.39606 0.85775 0.0
C874 C 0.00727 0.33711 0.86138 0.0
C875 C 0.02718 0.3076 0.87204 0.0
C876 C 0.09508 0.42831 0.89616 0.0
C877 C 0.0492 0.38088 0.88072 0.0
C878 C 0.10436 0.4655 0.90041 0.0
C879 C 0.07818 0.49367 0.89596 0.0
C880 C 0.05968 0.41952 0.88687 0.0
C881 C 0.04271 0.48353 0.88753 0.0
C882 C 0.0181 0.37369 0.86574 0.0
C883 C 0.05911 0.31586 0.88601 0.0
N884 N 0.03461 0.44731 0.88309 0.0
N885 N 0.06909 0.35183 0.89006 0.0
H886 H 0.01762 0.13232 0.40697 0.0
H887 H 0.15777 0.98304 0.35025 0.0
H888 H 0.98555 0.0223 0.38312 0.0
H889 H 0.19594 0.07566 0.39456 0.0
H890 H 0.0938 0.00218 0.35778 0.0
H891 H 0.08303 0.11579 0.3998 0.0
C892 C 0.02444 0.10447 0.40075 0.0
C893 C -0.00374 0.07838 0.39614 0.0
C894 C 0.11618 0.01841 0.36579 0.0
C895 C 0.07037 0.05981 0.38712 0.0
C896 C 0.15274 0.0077 0.36131 0.0
C897 C 0.18225 0.02761 0.37198 0.0
C898 C 0.10899 0.04939 0.3809 0.0
C899 C 0.17399 0.05941 0.38609 0.0
C900 C 0.06162 0.09516 0.39654 0.0
C901 C 0.00635 0.04293 0.38764 0.0
N902 N 0.13803 0.06928 0.39025 0.0
N903 N 0.04257 0.03479 0.38322 0.0
H904 H 0.50628 0.33324 0.17316 0.0
H905 H 0.35695 0.4728 0.11579 0.0
H906 H 0.41386 0.29451 0.12891 0.0
H907 H 0.46706 0.50503 0.1393 0.0
H908 H 0.37335 0.40746 0.12347 0.0
H909 H 0.48691 0.39713 0.16548 0.0
C910 C 0.48161 0.33812 0.16208 0.0
C911 C 0.46185 0.30848 0.15146 0.0
C912 C 0.39401 0.4289 0.12656 0.0
C913 C 0.4398 0.38165 0.14239 0.0
C914 C 0.38478 0.46604 0.12206 0.0
C915 C 0.41094 0.49427 0.1264 0.0
C916 C 0.42935 0.42022 0.136 0.0
C917 C 0.44635 0.48423 0.13498 0.0
C918 C 0.47077 0.37465 0.15753 0.0
C919 C 0.43002 0.31656 0.13734 0.0
N920 N 0.45441 0.44806 0.13967 0.0
N921 N 0.42003 0.35248 0.1331 0.0
H922 H 0.15807 0.50355 0.67284 0.0
H923 H 0.01736 0.35605 0.61477 0.0
H924 H 0.19592 0.41325 0.62632 0.0
H925 H 0.98601 0.46605 0.63911 0.0
H926 H 0.08286 0.372 0.62228 0.0
H927 H 0.09408 0.48412 0.66565 0.0
C928 C 0.15298 0.47931 0.66137 0.0
C929 C 0.18236 0.4602 0.64995 0.0
C930 C 0.06156 0.39273 0.6256 0.0
C931 C 0.10913 0.43811 0.64145 0.0
C932 C 0.02435 0.38375 0.6212 0.0
C933 C -0.00366 0.41003 0.62581 0.0
C934 C 0.07049 0.4279 0.63523 0.0
C935 C 0.00664 0.44528 0.63459 0.0
C936 C 0.11641 0.46845 0.6571 0.0
C937 C 0.17405 0.42891 0.63535 0.0
N938 N 0.04286 0.45307 0.63918 0.0
N939 N 0.13808 0.41889 0.63139 0.0
H940 H 0.13372 0.01597 0.11415 0.0
H941 H 0.98728 0.15802 0.17188 0.0
H942 H 0.02359 0.98532 0.13856 0.0
H943 H 0.0776 0.195 0.12509 0.0
H944 H 0.00609 0.09382 0.16468 0.0
H945 H 0.118 0.08165 0.12126 0.0
C946 C 0.10603 0.02315 0.12049 0.0
C947 C 0.07966 -0.00471 0.12527 0.0
C948 C 0.02189 0.116 0.15607 0.0
C949 C 0.06206 0.06966 0.13425 0.0
C950 C 0.01139 0.15269 0.16036 0.0
C951 C 0.0307 0.1819 0.14887 0.0
C952 C 0.05209 0.10842 0.14036 0.0
C953 C 0.0618 0.17328 0.13418 0.0
C954 C 0.09719 0.06047 0.12467 0.0
C955 C 0.04443 0.00584 0.13393 0.0
N956 N 0.07148 0.1372 0.13023 0.0
N957 N 0.03677 0.04216 0.13833 0.0
H958 H 0.29105 0.07847 0.63013 0.0
H959 H 0.50449 0.02065 0.63818 0.0
H960 H 0.33193 0.98321 0.6707 0.0
H961 H 0.47055 0.13184 0.61811 0.0
H962 H 0.43984 0.00415 0.645 0.0
H963 H 0.35545 0.09756 0.62232 0.0
C964 C 0.3135 0.06186 0.63768 0.0
C965 C 0.30611 0.02906 0.65095 0.0
C966 C 0.44643 0.03208 0.63886 0.0
C967 C 0.37948 0.05029 0.64165 0.0
C968 C 0.4834 0.04136 0.63449 0.0
C969 C 0.49288 0.0775 0.62703 0.0
C970 C 0.41865 0.05912 0.63584 0.0
C971 C 0.46426 0.10355 0.62361 0.0
C972 C 0.35018 0.07269 0.63311 0.0
C973 C 0.33626 0.00861 0.66029 0.0
N974 N 0.42829 0.09386 0.62803 0.0
N975 N 0.37159 0.01936 0.65523 0.0
H976 H 0.8541 0.2145 0.17022 0.0
H977 H 0.63953 0.27323 0.1742 0.0
H978 H 0.81502 0.32787 0.16489 0.0
H979 H 0.67773 0.16099 0.161 0.0
H980 H 0.70406 0.29275 0.18015 0.0
H981 H 0.78981 0.19387 0.17621 0.0
C982 C 0.8321 0.2351 0.17067 0.0
C983 C 0.83985 0.2729 0.16668 0.0
C984 C 0.69823 0.26378 0.17619 0.0
C985 C 0.76646 0.24951 0.1735 0.0
C986 C 0.66141 0.25259 0.17286 0.0
C987 C 0.65326 0.21553 0.16672 0.0
C988 C 0.72705 0.23769 0.1735 0.0
C989 C 0.68276 0.18997 0.16534 0.0
C990 C 0.79544 0.22329 0.17399 0.0
C991 C 0.81026 0.29838 0.16751 0.0
N992 N 0.71837 0.20159 0.16851 0.0
N993 N 0.77485 0.28619 0.17065 0.0
H994 H 0.32979 0.67542 0.66573 0.0
H995 H 0.15817 0.81327 0.66068 0.0
H996 H 0.21572 0.63823 0.66979 0.0
H997 H 0.27116 0.85 0.6726 0.0
H998 H 0.17821 0.74911 0.66687 0.0
H999 H 0.30877 0.73936 0.67125 0.0
C1000 C 0.30031 0.68067 0.66804 0.0
C1001 C 0.2744 0.65149 0.66696 0.0
C1002 C 0.19855 0.77122 0.66844 0.0
C1003 C 0.25013 0.72475 0.67308 0.0
C1004 C 0.18716 0.80789 0.66483 0.0
C1005 C 0.21314 0.83703 0.6658 0.0
C1006 C 0.23629 0.76355 0.67275 0.0
C1007 C 0.25023 0.8284 0.67152 0.0
C1008 C 0.28834 0.71721 0.67127 0.0
C1009 C 0.23663 0.6599 0.67037 0.0
N1010 N 0.26079 0.79237 0.67444 0.0
N1011 N 0.22556 0.69586 0.67291 0.0
H1012 H 0.81271 0.15778 0.86262 0.0
H1013 H 0.67477 0.32947 0.85805 0.0
H1014 H 0.84908 0.27087 0.85044 0.0
H1015 H 0.63747 0.21534 0.85497 0.0
H1016 H 0.73857 0.30836 0.85216 0.0
H1017 H 0.74845 0.17774 0.85683 0.0
C1018 C 0.80723 0.18677 0.85849 0.0
C1019 C 0.8363 0.21281 0.85735 0.0
C1020 C 0.71643 0.28792 0.85245 0.0
C1021 C 0.76272 0.23585 0.85085 0.0
C1022 C 0.67996 0.29995 0.85589 0.0
C1023 C 0.65081 0.27406 0.85734 0.0
C1024 C 0.72392 0.24967 0.85079 0.0
C1025 C 0.65914 0.23623 0.85411 0.0
C1026 C 0.7705 0.19811 0.85511 0.0
C1027 C 0.82754 0.24989 0.85166 0.0
N1028 N 0.69504 0.22511 0.85135 0.0
N1029 N 0.79147 0.2604 0.84896 0.0
H1030 H 0.33182 0.81315 0.36296 0.0
H1031 H 0.16019 0.67532 0.35751 0.0
H1032 H 0.219 0.84968 0.35007 0.0
H1033 H 0.27424 0.63793 0.35434 0.0
H1034 H 0.18137 0.73917 0.35181 0.0
H1035 H 0.31186 0.7489 0.35697 0.0
C1036 C 0.3029 0.80771 0.35864 0.0
C1037 C 0.27692 0.83683 0.35734 0.0
C1038 C 0.20177 0.717 0.35203 0.0
C1039 C 0.25388 0.76326 0.35062 0.0
C1040 C 0.1897 0.68051 0.35536 0.0
C1041 C 0.21555 0.65131 0.35673 0.0
C1042 C 0.24002 0.72446 0.35041 0.0
C1043 C 0.25338 0.65963 0.35352 0.0
C1044 C 0.29155 0.77099 0.35514 0.0
C1045 C 0.23992 0.82811 0.35141 0.0
N1046 N 0.26454 0.69555 0.35088 0.0
N1047 N 0.22941 0.79205 0.34861 0.0
H1048 H 0.17571 0.65916 0.85763 0.0
H1049 H 0.31375 0.83084 0.85669 0.0
H1050 H 0.13886 0.77304 0.85057 0.0
H1051 H 0.3504 0.71692 0.84942 0.0
H1052 H 0.24968 0.81042 0.85085 0.0
H1053 H 0.23962 0.67957 0.85109 0.0
C1054 C 0.18101 0.68845 0.85446 0.0
C1055 C 0.15194 0.71453 0.85501 0.0
C1056 C 0.27174 0.78992 0.8502 0.0
C1057 C 0.22518 0.73811 0.84767 0.0
C1058 C 0.30836 0.80154 0.8536 0.0
C1059 C 0.33744 0.77545 0.8539 0.0
C1060 C 0.26403 0.75187 0.8474 0.0
C1061 C 0.32883 0.73795 0.84949 0.0
C1062 C 0.21755 0.70007 0.85064 0.0
C1063 C 0.16043 0.75202 0.85047 0.0
N1064 N 0.29281 0.7272 0.84679 0.0
N1065 N 0.19638 0.76277 0.84735 0.0
H1066 H 0.83287 0.17682 0.35878 0.0
H1067 H 0.77079 0.35681 0.34178 0.0
H1068 H 0.7184 0.14286 0.35 0.0
H1069 H 0.6652 0.31215 0.36586 0.0
H1070 H 0.79313 0.29353 0.33496 0.0
H1071 H 0.81434 0.24111 0.35294 0.0
C1072 C 0.80385 0.18284 0.35515 0.0
C1073 C 0.77709 0.15439 0.3551 0.0
C1074 C 0.76521 0.29751 0.34195 0.0
C1075 C 0.75558 0.22833 0.34785 0.0
C1076 C 0.75228 0.33372 0.34561 0.0
C1077 C 0.71634 0.33983 0.35493 0.0
C1078 C 0.7421 0.26721 0.34789 0.0
C1079 C 0.69336 0.30882 0.35908 0.0
C1080 C 0.79329 0.21971 0.35151 0.0
C1081 C 0.73994 0.1639 0.35024 0.0
N1082 N 0.70676 0.27387 0.35574 0.0
N1083 N 0.7302 0.20018 0.3472 0.0
H1084 H 0.35164 0.77426 0.17155 0.0
H1085 H 0.13689 0.71582 0.17221 0.0
H1086 H 0.31262 0.66144 0.16228 0.0
H1087 H 0.17582 0.82881 0.16374 0.0
H1088 H 0.20128 0.69551 0.178 0.0
H1089 H 0.28737 0.7944 0.17806 0.0
C1090 C 0.32966 0.75365 0.17121 0.0
C1091 C 0.33746 0.7162 0.16599 0.0
C1092 C 0.19562 0.7248 0.17515 0.0
C1093 C 0.264 0.73905 0.17341 0.0
C1094 C 0.15888 0.73643 0.17193 0.0
C1095 C 0.15102 0.77398 0.16711 0.0
C1096 C 0.2246 0.75095 0.17368 0.0
C1097 C 0.18063 0.79948 0.16703 0.0
C1098 C 0.29299 0.76518 0.17486 0.0
C1099 C 0.30785 0.69069 0.16588 0.0
N1100 N 0.21613 0.78745 0.17005 0.0
N1101 N 0.2724 0.70263 0.16933 0.0
H1102 H 0.77316 0.13826 0.67129 0.0
H1103 H 0.71587 0.35338 0.67052 0.0
H1104 H 0.66049 0.17767 0.66205 0.0
H1105 H 0.82864 0.3137 0.6625 0.0
H1106 H 0.69516 0.28916 0.6766 0.0
H1107 H 0.79363 0.20255 0.67727 0.0
C1108 C 0.75264 0.16034 0.67085 0.0
C1109 C 0.71514 0.15262 0.66579 0.0
C1110 C 0.72448 0.29462 0.67377 0.0
C1111 C 0.73838 0.22612 0.67258 0.0
C1112 C 0.73634 0.33126 0.67038 0.0
C1113 C 0.77396 0.33886 0.66563 0.0
C1114 C 0.75047 0.26547 0.67254 0.0
C1115 C 0.79928 0.30909 0.66573 0.0
C1116 C 0.76437 0.19702 0.67419 0.0
C1117 C 0.68977 0.18236 0.66554 0.0
N1118 N 0.78703 0.27369 0.66892 0.0
N1119 N 0.7019 0.21781 0.66867 0.0
H1120 H 0.34404 0.07341 0.31581 0.0
H1121 H 0.51703 0.08131 0.2248 0.0
H1122 H 0.41126 0.97685 0.30009 0.0
H1123 H 0.4182 0.14521 0.20929 0.0
H1124 H 0.48381 0.04929 0.25818 0.0
H1125 H 0.37533 0.10661 0.28175 0.0
C1126 C 0.36536 0.05924 0.30521 0.0
C1127 C 0.37554 0.02255 0.31104 0.0
C1128 C 0.46938 0.07025 0.24741 0.0
C1129 C 0.41176 0.06044 0.27263 0.0
C1130 C 0.48821 0.08837 0.22828 0.0
C1131 C 0.47002 0.11528 0.21386 0.0
C1132 C 0.43237 0.07982 0.25265 0.0
C1133 C 0.43314 0.12447 0.2199 0.0
C1134 C 0.38318 0.07818 0.28588 0.0
C1135 C 0.40334 0.00547 0.29674 0.0
N1136 N 0.41547 0.10681 0.23892 0.0
N1137 N 0.42077 0.02467 0.27839 0.0
H1138 H 0.491 0.3396 0.78238 0.0
H1139 H 0.34035 0.4919 0.74158 0.0
H1140 H 0.44079 0.41632 0.83386 0.0
H1141 H 0.41548 0.43987 0.68987 0.0
H1142 H 0.37175 0.45945 0.77577 0.0
H1143 H 0.45853 0.37095 0.74816 0.0
C1144 C 0.47281 0.36286 0.78642 0.0
C1145 C 0.46806 0.37523 0.81088 0.0
C1146 C 0.38132 0.45503 0.75694 0.0
C1147 C 0.43114 0.41129 0.77203 0.0
C1148 C 0.36327 0.47332 0.73748 0.0
C1149 C 0.37518 0.46806 0.71298 0.0
C1150 C 0.4113 0.43113 0.75179 0.0
C1151 C 0.40543 0.44436 0.70857 0.0
C1152 C 0.45452 0.38087 0.76695 0.0
C1153 C 0.44488 0.4059 0.81521 0.0
N1154 N 0.42235 0.42656 0.72778 0.0
N1155 N 0.42708 0.42279 0.79599 0.0
H1156 H 0.07324 0.4405 0.33493 0.0
H1157 H 0.04946 0.41676 0.18837 0.0
H1158 H 0.14857 0.49003 0.28227 0.0
H1159 H 0.001 0.34065 0.24099 0.0
H1160 H 0.08188 0.44829 0.22254 0.0
H1161 H 0.04202 0.40776 0.30076 0.0
C1162 C 0.08324 0.44424 0.31613 0.0
C1163 C 0.11372 0.46744 0.31131 0.0
C1164 C 0.06437 0.42453 0.2266 0.0
C1165 C 0.07803 0.43077 0.27222 0.0
C1166 C 0.04589 0.40665 0.20716 0.0
C1167 C 0.02308 0.37587 0.21196 0.0
C1168 C 0.05939 0.41192 0.25106 0.0
C1169 C 0.01891 0.36395 0.23657 0.0
C1170 C 0.06554 0.42558 0.29669 0.0
C1171 C 0.1255 0.47183 0.28669 0.0
N1172 N 0.03678 0.38211 0.25525 0.0
N1173 N 0.10753 0.45377 0.26802 0.0
H1174 H 0.07247 0.14591 0.81508 0.0
H1175 H 0.07864 0.97375 0.72325 0.0
H1176 H 0.97545 0.07933 0.79942 0.0
H1177 H 0.14369 0.07208 0.7084 0.0
H1178 H 0.04678 0.00695 0.75671 0.0
H1179 H 0.10521 0.11478 0.78076 0.0
C1180 C 0.05809 0.12478 0.80443 0.0
C1181 C 0.02141 0.11473 0.81035 0.0
C1182 C 0.06794 0.02128 0.74606 0.0
C1183 C 0.05878 0.07869 0.77164 0.0
C1184 C 0.08596 0.00247 0.72688 0.0
C1185 C 0.11319 0.02051 0.71264 0.0
C1186 C 0.07792 0.05812 0.75153 0.0
C1187 C 0.12271 0.05725 0.71888 0.0
C1188 C 0.07677 0.10705 0.78495 0.0
C1189 C 0.00407 0.08715 0.79599 0.0
N1190 N 0.10516 0.07489 0.73794 0.0
N1191 N 0.02302 0.06981 0.7775 0.0
H1192 H 0.57437 0.94091 0.68745 0.0
H1193 H 0.55094 0.91498 0.83397 0.0
H1194 H 0.65006 0.98924 0.74036 0.0
H1195 H 0.49926 0.84219 0.78065 0.0
H1196 H 0.58403 0.9464 0.80003 0.0
H1197 H 0.54285 0.90808 0.72141 0.0
C1198 C 0.58443 0.94433 0.70626 0.0
C1199 C 0.61506 0.96727 0.71119 0.0
C1200 C 0.56566 0.92339 0.79575 0.0
C1201 C 0.57898 0.93046 0.75011 0.0
C1202 C 0.5468 0.90557 0.81507 0.0
C1203 C 0.52289 0.87573 0.81001 0.0
C1204 C 0.56 0.91166 0.77116 0.0
C1205 C 0.51801 0.86472 0.78527 0.0
C1206 C 0.56652 0.92563 0.7256 0.0
C1207 C 0.62688 0.97123 0.73583 0.0
N1208 N 0.5363 0.88278 0.76673 0.0
N1209 N 0.60872 0.95313 0.75442 0.0
H1210 H 0.498 0.65161 0.24034 0.0
H1211 H 0.64905 0.49963 0.28093 0.0
H1212 H 0.54839 0.57525 0.1887 0.0
H1213 H 0.57274 0.54999 0.33261 0.0
H1214 H 0.61769 0.53228 0.24681 0.0
H1215 H 0.53035 0.61999 0.27451 0.0
C1216 C 0.51622 0.62839 0.23625 0.0
C1217 C 0.52103 0.61619 0.21176 0.0
C1218 C 0.60784 0.53628 0.26561 0.0
C1219 C 0.55782 0.57982 0.25056 0.0
C1220 C 0.62586 0.51787 0.28504 0.0
C1221 C 0.61362 0.52261 0.30952 0.0
C1222 C 0.57757 0.55981 0.27077 0.0
C1223 C 0.58305 0.5459 0.31393 0.0
C1224 C 0.53443 0.61022 0.2557 0.0
C1225 C 0.54425 0.58555 0.20738 0.0
N1226 N 0.56617 0.56385 0.29476 0.0
N1227 N 0.56198 0.56852 0.22657 0.0
H1228 H 0.84041 0.49867 0.74029 0.0
H1229 H 0.99225 0.64989 0.7811 0.0
H1230 H 0.91712 0.54883 0.68879 0.0
H1231 H 0.93991 0.57499 0.83282 0.0
H1232 H 0.96005 0.61825 0.74688 0.0
H1233 H 0.8716 0.53135 0.77447 0.0
C1234 C 0.86365 0.51688 0.73623 0.0
C1235 C 0.87604 0.52156 0.71178 0.0
C1236 C 0.9555 0.6088 0.76571 0.0
C1237 C 0.91193 0.55876 0.75061 0.0
C1238 C 0.97363 0.62699 0.78519 0.0
C1239 C 0.96821 0.61522 0.80972 0.0
C1240 C 0.93161 0.57879 0.77086 0.0
C1241 C 0.9445 0.58497 0.81411 0.0
C1242 C 0.88158 0.5353 0.7557 0.0
C1243 C 0.90669 0.54478 0.70745 0.0
N1244 N 0.92688 0.56789 0.79489 0.0
N1245 N 0.92348 0.56273 0.72665 0.0
H1246 H 0.94021 0.91692 0.18753 0.0
H1247 H 0.91304 0.93965 0.33402 0.0
H1248 H 0.98837 0.84139 0.24062 0.0
H1249 H 0.84039 0.99144 0.28069 0.0
H1250 H 0.9447 0.90684 0.3001 0.0
H1251 H 0.90701 0.94835 0.22142 0.0
C1252 C 0.94357 0.90692 0.20636 0.0
C1253 C 0.96651 0.87631 0.21136 0.0
C1254 C 0.92165 0.92514 0.2958 0.0
C1255 C 0.92924 0.91222 0.25017 0.0
C1256 C 0.90367 0.94383 0.31512 0.0
C1257 C 0.87383 0.96773 0.31006 0.0
C1258 C 0.91011 0.93097 0.27119 0.0
C1259 C 0.8629 0.97267 0.28531 0.0
C1260 C 0.92463 0.92474 0.22565 0.0
C1261 C 0.97037 0.86455 0.23603 0.0
N1262 N 0.88114 0.95457 0.26676 0.0
N1263 N 0.95202 0.8826 0.25455 0.0
loop_
_geom_bond_atom_site_label_1
_geom_bond_atom_site_label_2
_geom_bond_distance
_geom_bond_site_symmetry_2
_ccdc_geom_bond_type
Co0 O3 1.970 . S
Co0 N17 1.989 . S
Co0 O25 1.967 . S
Co0 O32 1.920 . S
Co1 O4 1.966 . S
Co1 N10 2.022 . S
Co1 N18 1.993 . S
Co1 O26 1.941 . S
C2 O3 1.258 . S
C2 O4 1.263 . S
O3 Co0 1.970 . S
O3 C2 1.258 . S
O4 Co1 1.966 . S
O4 C2 1.263 . S
C5 O6 1.235 . S
C5 O32 1.289 . S
O6 C5 1.235 . S
C7 C9 1.400 . S
C7 N10 1.351 . S
C7 C12 1.501 . S
C8 C9 1.387 . S
C8 N11 1.341 . S
C9 C7 1.400 . S
C9 C8 1.387 . S
N10 Co1 2.022 . S
N10 C7 1.351 . S
N10 N11 1.365 . S
N11 C8 1.341 . S
N11 N10 1.365 . S
N11 H31 0.862 . S
C12 C7 1.501 . S
C12 H13 0.961 . S
C12 H14 0.961 . S
C12 H15 0.960 . S
H13 C12 0.961 . S
H14 C12 0.961 . S
H15 C12 0.960 . S
C16 N17 1.342 . S
C16 C20 1.401 . S
C16 C21 1.499 . S
N17 Co0 1.989 . S
N17 C16 1.342 . S
N17 N18 1.388 . S
N18 Co1 1.993 . S
N18 N17 1.388 . S
N18 C19 1.346 . S
C19 N18 1.346 . S
C19 C20 1.396 . S
C19 C29 1.510 . S
C20 C16 1.401 . S
C20 C19 1.396 . S
C21 C16 1.499 . S
C21 H22 0.959 . S
C21 H23 0.960 . S
C21 H24 0.961 . S
H22 C21 0.959 . S
H23 C21 0.960 . S
H24 C21 0.961 . S
O25 Co0 1.967 . S
O25 C33 1.258 . S
O26 Co1 1.941 . S
O26 C33 1.266 . S
H27 C29 0.959 . S
H28 C29 0.961 . S
C29 C19 1.510 . S
C29 H27 0.959 . S
C29 H28 0.961 . S
C29 H30 0.960 . S
H30 C29 0.960 . S
H31 N11 0.862 . S
O32 Co0 1.920 . S
O32 C5 1.289 . S
C33 O25 1.258 . S
C33 O26 1.266 . S
Co34 O37 1.970 . S
Co34 N51 1.989 . S
Co34 O59 1.967 . S
Co34 O66 1.920 . S
Co35 O38 1.966 . S
Co35 N44 2.022 . S
Co35 N52 1.993 . S
Co35 O60 1.941 . S
C36 O37 1.258 . S
C36 O38 1.263 . S
O37 Co34 1.970 . S
O37 C36 1.258 . S
O38 Co35 1.966 . S
O38 C36 1.263 . S
C39 O40 1.235 . S
C39 O66 1.289 . S
O40 C39 1.235 . S
C41 C43 1.400 . S
C41 N44 1.351 . S
C41 C46 1.501 . S
C42 C43 1.387 . S
C42 N45 1.341 . S
C43 C41 1.400 . S
C43 C42 1.387 . S
N44 Co35 2.022 . S
N44 C41 1.351 . S
N44 N45 1.365 . S
N45 C42 1.341 . S
N45 N44 1.365 . S
N45 H65 0.862 . S
C46 C41 1.501 . S
C46 H47 0.961 . S
C46 H48 0.961 . S
C46 H49 0.960 . S
H47 C46 0.961 . S
H48 C46 0.961 . S
H49 C46 0.960 . S
C50 N51 1.342 . S
C50 C54 1.401 . S
C50 C55 1.499 . S
N51 Co34 1.989 . S
N51 C50 1.342 . S
N51 N52 1.388 . S
N52 Co35 1.993 . S
N52 N51 1.388 . S
N52 C53 1.346 . S
C53 N52 1.346 . S
C53 C54 1.396 . S
C53 C63 1.510 . S
C54 C50 1.401 . S
C54 C53 1.396 . S
C55 C50 1.499 . S
C55 H56 0.959 . S
C55 H57 0.960 . S
C55 H58 0.961 . S
H56 C55 0.959 . S
H57 C55 0.960 . S
H58 C55 0.961 . S
O59 Co34 1.967 . S
O59 C67 1.258 . S
O60 Co35 1.941 . S
O60 C67 1.266 . S
H61 C63 0.959 . S
H62 C63 0.961 . S
C63 C53 1.510 . S
C63 H61 0.959 . S
C63 H62 0.961 . S
C63 H64 0.960 . S
H64 C63 0.960 . S
H65 N45 0.862 . S
O66 Co34 1.920 . S
O66 C39 1.289 . S
C67 O59 1.258 . S
C67 O60 1.266 . S
Co68 O71 1.970 . S
Co68 N85 1.989 1_655 S
Co68 O93 1.967 . S
Co68 O100 1.920 . S
Co69 O72 1.966 . S
Co69 N78 2.022 . S
Co69 N86 1.993 1_655 S
Co69 O94 1.941 . S
C70 O71 1.258 . S
C70 O72 1.263 . S
O71 Co68 1.970 . S
O71 C70 1.258 . S
O72 Co69 1.966 . S
O72 C70 1.263 . S
C73 O74 1.235 . S
C73 O100 1.289 1_455 S
O74 C73 1.235 . S
C75 C77 1.400 . S
C75 N78 1.351 . S
C75 C80 1.501 1_655 S
C76 C77 1.387 . S
C76 N79 1.341 . S
C77 C75 1.400 . S
C77 C76 1.387 . S
N78 Co69 2.022 . S
N78 C75 1.351 . S
N78 N79 1.365 . S
N79 C76 1.341 . S
N79 N78 1.365 . S
N79 H99 0.862 . S
C80 C75 1.501 1_455 S
C80 H81 0.958 1_455 S
C80 H82 0.961 . S
C80 H83 0.960 1_455 S
H81 C80 0.958 1_655 S
H82 C80 0.961 . S
H83 C80 0.960 1_655 S
C84 N85 1.342 . S
C84 C88 1.401 . S
C84 C89 1.499 . S
N85 Co68 1.989 1_455 S
N85 C84 1.342 . S
N85 N86 1.388 . S
N86 Co69 1.993 1_455 S
N86 N85 1.388 . S
N86 C87 1.346 . S
C87 N86 1.346 . S
C87 C88 1.396 . S
C87 C97 1.510 . S
C88 C84 1.401 . S
C88 C87 1.396 . S
C89 C84 1.499 . S
C89 H90 0.959 . S
C89 H91 0.960 . S
C89 H92 0.961 . S
H90 C89 0.959 . S
H91 C89 0.960 . S
H92 C89 0.961 . S
O93 Co68 1.967 . S
O93 C101 1.258 . S
O94 Co69 1.941 . S
O94 C101 1.266 . S
H95 C97 0.959 . S
H96 C97 0.961 . S
C97 C87 1.510 . S
C97 H95 0.959 . S
C97 H96 0.961 . S
C97 H98 0.960 . S
H98 C97 0.960 . S
H99 N79 0.862 . S
O100 Co68 1.920 . S
O100 C73 1.289 1_655 S
C101 O93 1.258 . S
C101 O94 1.266 . S
Co102 O105 1.970 . S
Co102 N119 1.989 1_565 S
Co102 O127 1.967 . S
Co102 O134 1.920 . S
Co103 O106 1.966 . S
Co103 N112 2.022 . S
Co103 N120 1.993 1_565 S
Co103 O128 1.941 . S
C104 O105 1.258 . S
C104 O106 1.263 . S
O105 Co102 1.970 . S
O105 C104 1.258 . S
O106 Co103 1.966 . S
O106 C104 1.263 . S
C107 O108 1.235 . S
C107 O134 1.289 1_545 S
O108 C107 1.235 . S
C109 C111 1.400 . S
C109 N112 1.351 . S
C109 C114 1.501 1_565 S
C110 C111 1.387 . S
C110 N113 1.341 . S
C111 C109 1.400 . S
C111 C110 1.387 . S
N112 Co103 2.022 . S
N112 C109 1.351 . S
N112 N113 1.365 . S
N113 C110 1.341 . S
N113 N112 1.365 . S
N113 H133 0.862 . S
C114 C109 1.501 1_545 S
C114 H115 0.958 1_545 S
C114 H116 0.961 . S
C114 H117 0.960 1_545 S
H115 C114 0.958 1_565 S
H116 C114 0.961 . S
H117 C114 0.960 1_565 S
C118 N119 1.342 . S
C118 C122 1.401 . S
C118 C123 1.499 . S
N119 Co102 1.989 1_545 S
N119 C118 1.342 . S
N119 N120 1.388 . S
N120 Co103 1.993 1_545 S
N120 N119 1.388 . S
N120 C121 1.346 . S
C121 N120 1.346 . S
C121 C122 1.396 . S
C121 C131 1.510 . S
C122 C118 1.401 . S
C122 C121 1.396 . S
C123 C118 1.499 . S
C123 H124 0.959 . S
C123 H125 0.960 . S
C123 H126 0.961 . S
H124 C123 0.959 . S
H125 C123 0.960 . S
H126 C123 0.961 . S
O127 Co102 1.967 . S
O127 C135 1.258 . S
O128 Co103 1.941 . S
O128 C135 1.266 . S
H129 C131 0.959 . S
H130 C131 0.961 . S
C131 C121 1.510 . S
C131 H129 0.959 . S
C131 H130 0.961 . S
C131 H132 0.960 . S
H132 C131 0.960 . S
H133 N113 0.862 . S
O134 Co102 1.920 . S
O134 C107 1.289 1_565 S
C135 O127 1.258 . S
C135 O128 1.266 . S
Co136 O139 1.970 . S
Co136 N153 1.989 . S
Co136 O161 1.967 . S
Co136 O168 1.920 . S
Co137 O140 1.966 . S
Co137 N146 2.022 . S
Co137 N154 1.993 . S
Co137 O162 1.941 . S
C138 O139 1.258 . S
C138 O140 1.263 . S
O139 Co136 1.970 . S
O139 C138 1.258 . S
O140 Co137 1.966 . S
O140 C138 1.263 . S
C141 O142 1.235 . S
C141 O168 1.289 . S
O142 C141 1.235 . S
C143 C145 1.400 . S
C143 N146 1.351 . S
C143 C148 1.501 . S
C144 C145 1.387 . S
C144 N147 1.341 . S
C145 C143 1.400 . S
C145 C144 1.387 . S
N146 Co137 2.022 . S
N146 C143 1.351 . S
N146 N147 1.365 . S
N147 C144 1.341 . S
N147 N146 1.365 . S
N147 H167 0.862 . S
C148 C143 1.501 . S
C148 H149 0.961 . S
C148 H150 0.961 . S
C148 H151 0.960 . S
H149 C148 0.961 . S
H150 C148 0.961 . S
H151 C148 0.960 . S
C152 N153 1.342 . S
C152 C156 1.401 . S
C152 C157 1.499 . S
N153 Co136 1.989 . S
N153 C152 1.342 . S
N153 N154 1.388 . S
N154 Co137 1.993 . S
N154 N153 1.388 . S
N154 C155 1.346 . S
C155 N154 1.346 . S
C155 C156 1.396 . S
C155 C165 1.510 . S
C156 C152 1.401 . S
C156 C155 1.396 . S
C157 C152 1.499 . S
C157 H158 0.959 . S
C157 H159 0.960 . S
C157 H160 0.961 . S
H158 C157 0.959 . S
H159 C157 0.960 . S
H160 C157 0.961 . S
O161 Co136 1.967 . S
O161 C169 1.258 . S
O162 Co137 1.941 . S
O162 C169 1.266 . S
H163 C165 0.959 . S
H164 C165 0.961 . S
C165 C155 1.510 . S
C165 H163 0.959 . S
C165 H164 0.961 . S
C165 H166 0.960 . S
H166 C165 0.960 . S
H167 N147 0.862 . S
O168 Co136 1.920 . S
O168 C141 1.289 . S
C169 O161 1.258 . S
C169 O162 1.266 . S
Co170 O173 1.970 . S
Co170 N187 1.989 . S
Co170 O195 1.967 . S
Co170 O202 1.920 . S
Co171 O174 1.966 . S
Co171 N180 2.022 . S
Co171 N188 1.993 . S
Co171 O196 1.941 . S
C172 O173 1.258 . S
C172 O174 1.263 . S
O173 Co170 1.970 . S
O173 C172 1.258 . S
O174 Co171 1.966 . S
O174 C172 1.263 . S
C175 O176 1.235 . S
C175 O202 1.289 . S
O176 C175 1.235 . S
C177 C179 1.400 . S
C177 N180 1.351 . S
C177 C182 1.501 . S
C178 C179 1.387 . S
C178 N181 1.341 . S
C179 C177 1.400 . S
C179 C178 1.387 . S
N180 Co171 2.022 . S
N180 C177 1.351 . S
N180 N181 1.365 . S
N181 C178 1.341 . S
N181 N180 1.365 . S
N181 H201 0.862 . S
C182 C177 1.501 . S
C182 H183 0.961 . S
C182 H184 0.961 . S
C182 H185 0.960 . S
H183 C182 0.961 . S
H184 C182 0.961 . S
H185 C182 0.960 . S
C186 N187 1.342 . S
C186 C190 1.401 . S
C186 C191 1.499 . S
N187 Co170 1.989 . S
N187 C186 1.342 . S
N187 N188 1.388 . S
N188 Co171 1.993 . S
N188 N187 1.388 . S
N188 C189 1.346 . S
C189 N188 1.346 . S
C189 C190 1.396 . S
C189 C199 1.510 . S
C190 C186 1.401 . S
C190 C189 1.396 . S
C191 C186 1.499 . S
C191 H192 0.959 . S
C191 H193 0.960 . S
C191 H194 0.961 . S
H192 C191 0.959 . S
H193 C191 0.960 . S
H194 C191 0.961 . S
O195 Co170 1.967 . S
O195 C203 1.258 . S
O196 Co171 1.941 . S
O196 C203 1.266 . S
H197 C199 0.959 . S
H198 C199 0.961 . S
C199 C189 1.510 . S
C199 H197 0.959 . S
C199 H198 0.961 . S
C199 H200 0.960 . S
H200 C199 0.960 . S
H201 N181 0.862 . S
O202 Co170 1.920 . S
O202 C175 1.289 . S
C203 O195 1.258 . S
C203 O196 1.266 . S
Co204 O207 1.970 . S
Co204 N221 1.989 1_655 S
Co204 O229 1.967 . S
Co204 O236 1.920 . S
Co205 O208 1.966 . S
Co205 N214 2.022 . S
Co205 N222 1.993 1_655 S
Co205 O230 1.941 . S
C206 O207 1.258 . S
C206 O208 1.263 . S
O207 Co204 1.970 . S
O207 C206 1.258 . S
O208 Co205 1.966 . S
O208 C206 1.263 . S
C209 O210 1.235 . S
C209 O236 1.289 1_455 S
O210 C209 1.235 . S
C211 C213 1.400 . S
C211 N214 1.351 . S
C211 C216 1.501 1_655 S
C212 C213 1.387 . S
C212 N215 1.341 . S
C213 C211 1.400 . S
C213 C212 1.387 . S
N214 Co205 2.022 . S
N214 C211 1.351 . S
N214 N215 1.365 . S
N215 C212 1.341 . S
N215 N214 1.365 . S
N215 H235 0.862 . S
C216 C211 1.501 1_455 S
C216 H217 0.958 1_455 S
C216 H218 0.961 . S
C216 H219 0.960 1_455 S
H217 C216 0.958 1_655 S
H218 C216 0.961 . S
H219 C216 0.960 1_655 S
C220 N221 1.342 . S
C220 C224 1.401 . S
C220 C225 1.499 . S
N221 Co204 1.989 1_455 S
N221 C220 1.342 . S
N221 N222 1.388 . S
N222 Co205 1.993 1_455 S
N222 N221 1.388 . S
N222 C223 1.346 . S
C223 N222 1.346 . S
C223 C224 1.396 . S
C223 C233 1.510 . S
C224 C220 1.401 . S
C224 C223 1.396 . S
C225 C220 1.499 . S
C225 H226 0.959 . S
C225 H227 0.960 . S
C225 H228 0.961 . S
H226 C225 0.959 . S
H227 C225 0.960 . S
H228 C225 0.961 . S
O229 Co204 1.967 . S
O229 C237 1.258 . S
O230 Co205 1.941 . S
O230 C237 1.266 . S
H231 C233 0.959 . S
H232 C233 0.961 . S
C233 C223 1.510 . S
C233 H231 0.959 . S
C233 H232 0.961 . S
C233 H234 0.960 . S
H234 C233 0.960 . S
H235 N215 0.862 . S
O236 Co204 1.920 . S
O236 C209 1.289 1_655 S
C237 O229 1.258 . S
C237 O230 1.266 . S
Co238 O241 1.970 . S
Co238 N255 1.989 1_565 S
Co238 O263 1.967 . S
Co238 O270 1.920 . S
Co239 O242 1.966 . S
Co239 N248 2.022 . S
Co239 N256 1.993 1_565 S
Co239 O264 1.941 . S
C240 O241 1.258 . S
C240 O242 1.263 . S
O241 Co238 1.970 . S
O241 C240 1.258 . S
O242 Co239 1.966 . S
O242 C240 1.263 . S
C243 O244 1.235 . S
C243 O270 1.289 1_545 S
O244 C243 1.235 . S
C245 C247 1.400 . S
C245 N248 1.351 . S
C245 C250 1.501 1_565 S
C246 C247 1.387 . S
C246 N249 1.341 . S
C247 C245 1.400 . S
C247 C246 1.387 . S
N248 Co239 2.022 . S
N248 C245 1.351 . S
N248 N249 1.365 . S
N249 C246 1.341 . S
N249 N248 1.365 . S
N249 H269 0.862 . S
C250 C245 1.501 1_545 S
C250 H251 0.958 1_545 S
C250 H252 0.961 . S
C250 H253 0.960 1_545 S
H251 C250 0.958 1_565 S
H252 C250 0.961 . S
H253 C250 0.960 1_565 S
C254 N255 1.342 . S
C254 C258 1.401 . S
C254 C259 1.499 . S
N255 Co238 1.989 1_545 S
N255 C254 1.342 . S
N255 N256 1.388 . S
N256 Co239 1.993 1_545 S
N256 N255 1.388 . S
N256 C257 1.346 . S
C257 N256 1.346 . S
C257 C258 1.396 . S
C257 C267 1.510 . S
C258 C254 1.401 . S
C258 C257 1.396 . S
C259 C254 1.499 . S
C259 H260 0.959 . S
C259 H261 0.960 . S
C259 H262 0.961 . S
H260 C259 0.959 . S
H261 C259 0.960 . S
H262 C259 0.961 . S
O263 Co238 1.967 . S
O263 C271 1.258 . S
O264 Co239 1.941 . S
O264 C271 1.266 . S
H265 C267 0.959 . S
H266 C267 0.961 . S
C267 C257 1.510 . S
C267 H265 0.959 . S
C267 H266 0.961 . S
C267 H268 0.960 . S
H268 C267 0.960 . S
H269 N249 0.862 . S
O270 Co238 1.920 . S
O270 C243 1.289 1_565 S
C271 O263 1.258 . S
C271 O264 1.266 . S
Co272 O275 1.970 . S
Co272 N289 1.989 . S
Co272 O297 1.967 . S
Co272 O304 1.920 . S
Co273 O276 1.966 . S
Co273 N282 2.022 . S
Co273 N290 1.993 . S
Co273 O298 1.941 . S
C274 O275 1.258 . S
C274 O276 1.263 . S
O275 Co272 1.970 . S
O275 C274 1.258 . S
O276 Co273 1.966 . S
O276 C274 1.263 . S
C277 O278 1.235 . S
C277 O304 1.289 . S
O278 C277 1.235 . S
C279 C281 1.400 . S
C279 N282 1.351 . S
C279 C284 1.501 . S
C280 C281 1.387 . S
C280 N283 1.341 . S
C281 C279 1.400 . S
C281 C280 1.387 . S
N282 Co273 2.022 . S
N282 C279 1.351 . S
N282 N283 1.365 . S
N283 C280 1.341 . S
N283 N282 1.365 . S
N283 H303 0.862 . S
C284 C279 1.501 . S
C284 H285 0.961 . S
C284 H286 0.961 . S
C284 H287 0.960 . S
H285 C284 0.961 . S
H286 C284 0.961 . S
H287 C284 0.960 . S
C288 N289 1.342 . S
C288 C292 1.401 . S
C288 C293 1.499 . S
N289 Co272 1.989 . S
N289 C288 1.342 . S
N289 N290 1.388 . S
N290 Co273 1.993 . S
N290 N289 1.388 . S
N290 C291 1.346 . S
C291 N290 1.346 . S
C291 C292 1.396 . S
C291 C301 1.510 . S
C292 C288 1.401 . S
C292 C291 1.396 . S
C293 C288 1.499 . S
C293 H294 0.959 . S
C293 H295 0.960 . S
C293 H296 0.961 . S
H294 C293 0.959 . S
H295 C293 0.960 . S
H296 C293 0.961 . S
O297 Co272 1.967 . S
O297 C305 1.258 . S
O298 Co273 1.941 . S
O298 C305 1.266 . S
H299 C301 0.959 . S
H300 C301 0.961 . S
C301 C291 1.510 . S
C301 H299 0.959 . S
C301 H300 0.961 . S
C301 H302 0.960 . S
H302 C301 0.960 . S
H303 N283 0.862 . S
O304 Co272 1.920 . S
O304 C277 1.289 . S
C305 O297 1.258 . S
C305 O298 1.266 . S
Co306 O309 1.970 . S
Co306 N323 1.989 . S
Co306 O331 1.967 . S
Co306 O338 1.920 . S
Co307 O310 1.966 . S
Co307 N316 2.022 . S
Co307 N324 1.993 . S
Co307 O332 1.941 . S
C308 O309 1.258 . S
C308 O310 1.263 . S
O309 Co306 1.970 . S
O309 C308 1.258 . S
O310 Co307 1.966 . S
O310 C308 1.263 . S
C311 O312 1.235 . S
C311 O338 1.289 . S
O312 C311 1.235 . S
C313 C315 1.400 . S
C313 N316 1.351 . S
C313 C318 1.501 . S
C314 C315 1.387 . S
C314 N317 1.341 . S
C315 C313 1.400 . S
C315 C314 1.387 . S
N316 Co307 2.022 . S
N316 C313 1.351 . S
N316 N317 1.365 . S
N317 C314 1.341 . S
N317 N316 1.365 . S
N317 H337 0.862 . S
C318 C313 1.501 . S
C318 H319 0.961 . S
C318 H320 0.961 . S
C318 H321 0.960 . S
H319 C318 0.961 . S
H320 C318 0.961 . S
H321 C318 0.960 . S
C322 N323 1.342 . S
C322 C326 1.401 . S
C322 C327 1.499 . S
N323 Co306 1.989 . S
N323 C322 1.342 . S
N323 N324 1.388 . S
N324 Co307 1.993 . S
N324 N323 1.388 . S
N324 C325 1.346 . S
C325 N324 1.346 . S
C325 C326 1.396 . S
C325 C335 1.510 . S
C326 C322 1.401 . S
C326 C325 1.396 . S
C327 C322 1.499 . S
C327 H328 0.959 . S
C327 H329 0.960 . S
C327 H330 0.961 . S
H328 C327 0.959 . S
H329 C327 0.960 . S
H330 C327 0.961 . S
O331 Co306 1.967 . S
O331 C339 1.258 . S
O332 Co307 1.941 . S
O332 C339 1.266 . S
H333 C335 0.959 . S
H334 C335 0.961 . S
C335 C325 1.510 . S
C335 H333 0.959 . S
C335 H334 0.961 . S
C335 H336 0.960 . S
H336 C335 0.960 . S
H337 N317 0.862 . S
O338 Co306 1.920 . S
O338 C311 1.289 . S
C339 O331 1.258 . S
C339 O332 1.266 . S
Co340 O343 1.970 . S
Co340 N357 1.989 1_455 S
Co340 O365 1.967 . S
Co340 O372 1.920 . S
Co341 O344 1.966 . S
Co341 N350 2.022 . S
Co341 N358 1.993 1_455 S
Co341 O366 1.941 . S
C342 O343 1.258 . S
C342 O344 1.263 . S
O343 Co340 1.970 . S
O343 C342 1.258 . S
O344 Co341 1.966 . S
O344 C342 1.263 . S
C345 O346 1.235 . S
C345 O372 1.289 1_655 S
O346 C345 1.235 . S
C347 C349 1.400 . S
C347 N350 1.351 . S
C347 C352 1.501 1_455 S
C348 C349 1.387 . S
C348 N351 1.341 . S
C349 C347 1.400 . S
C349 C348 1.387 . S
N350 Co341 2.022 . S
N350 C347 1.351 . S
N350 N351 1.365 . S
N351 C348 1.341 . S
N351 N350 1.365 . S
N351 H371 0.862 . S
C352 C347 1.501 1_655 S
C352 H353 0.958 1_655 S
C352 H354 0.961 . S
C352 H355 0.960 1_655 S
H353 C352 0.958 1_455 S
H354 C352 0.961 . S
H355 C352 0.960 1_455 S
C356 N357 1.342 . S
C356 C360 1.401 . S
C356 C361 1.499 . S
N357 Co340 1.989 1_655 S
N357 C356 1.342 . S
N357 N358 1.388 . S
N358 Co341 1.993 1_655 S
N358 N357 1.388 . S
N358 C359 1.346 . S
C359 N358 1.346 . S
C359 C360 1.396 . S
C359 C369 1.510 . S
C360 C356 1.401 . S
C360 C359 1.396 . S
C361 C356 1.499 . S
C361 H362 0.959 . S
C361 H363 0.960 . S
C361 H364 0.961 . S
H362 C361 0.959 . S
H363 C361 0.960 . S
H364 C361 0.961 . S
O365 Co340 1.967 . S
O365 C373 1.258 . S
O366 Co341 1.941 . S
O366 C373 1.266 . S
H367 C369 0.959 . S
H368 C369 0.961 . S
C369 C359 1.510 . S
C369 H367 0.959 . S
C369 H368 0.961 . S
C369 H370 0.960 . S
H370 C369 0.960 . S
H371 N351 0.862 . S
O372 Co340 1.920 . S
O372 C345 1.289 1_455 S
C373 O365 1.258 . S
C373 O366 1.266 . S
Co374 O377 1.970 . S
Co374 N391 1.989 1_545 S
Co374 O399 1.967 . S
Co374 O406 1.920 . S
Co375 O378 1.966 . S
Co375 N384 2.022 . S
Co375 N392 1.993 1_545 S
Co375 O400 1.941 . S
C376 O377 1.258 . S
C376 O378 1.263 . S
O377 Co374 1.970 . S
O377 C376 1.258 . S
O378 Co375 1.966 . S
O378 C376 1.263 . S
C379 O380 1.235 . S
C379 O406 1.289 1_565 S
O380 C379 1.235 . S
C381 C383 1.400 . S
C381 N384 1.351 . S
C381 C386 1.501 1_545 S
C382 C383 1.387 . S
C382 N385 1.341 . S
C383 C381 1.400 . S
C383 C382 1.387 . S
N384 Co375 2.022 . S
N384 C381 1.351 . S
N384 N385 1.365 . S
N385 C382 1.341 . S
N385 N384 1.365 . S
N385 H405 0.862 . S
C386 C381 1.501 1_565 S
C386 H387 0.958 1_565 S
C386 H388 0.961 . S
C386 H389 0.960 1_565 S
H387 C386 0.958 1_545 S
H388 C386 0.961 . S
H389 C386 0.960 1_545 S
C390 N391 1.342 . S
C390 C394 1.401 . S
C390 C395 1.499 . S
N391 Co374 1.989 1_565 S
N391 C390 1.342 . S
N391 N392 1.388 . S
N392 Co375 1.993 1_565 S
N392 N391 1.388 . S
N392 C393 1.346 . S
C393 N392 1.346 . S
C393 C394 1.396 . S
C393 C403 1.510 . S
C394 C390 1.401 . S
C394 C393 1.396 . S
C395 C390 1.499 . S
C395 H396 0.959 . S
C395 H397 0.960 . S
C395 H398 0.961 . S
H396 C395 0.959 . S
H397 C395 0.960 . S
H398 C395 0.961 . S
O399 Co374 1.967 . S
O399 C407 1.258 . S
O400 Co375 1.941 . S
O400 C407 1.266 . S
H401 C403 0.959 . S
H402 C403 0.961 . S
C403 C393 1.510 . S
C403 H401 0.959 . S
C403 H402 0.961 . S
C403 H404 0.960 . S
H404 C403 0.960 . S
H405 N385 0.862 . S
O406 Co374 1.920 . S
O406 C379 1.289 1_545 S
C407 O399 1.258 . S
C407 O400 1.266 . S
Co408 O411 1.970 . S
Co408 N425 1.989 . S
Co408 O433 1.967 . S
Co408 O440 1.920 . S
Co409 O412 1.966 . S
Co409 N418 2.022 . S
Co409 N426 1.993 . S
Co409 O434 1.941 . S
C410 O411 1.258 . S
C410 O412 1.263 . S
O411 Co408 1.970 . S
O411 C410 1.258 . S
O412 Co409 1.966 . S
O412 C410 1.263 . S
C413 O414 1.235 . S
C413 O440 1.289 . S
O414 C413 1.235 . S
C415 C417 1.400 . S
C415 N418 1.351 . S
C415 C420 1.501 . S
C416 C417 1.387 . S
C416 N419 1.341 . S
C417 C415 1.400 . S
C417 C416 1.387 . S
N418 Co409 2.022 . S
N418 C415 1.351 . S
N418 N419 1.365 . S
N419 C416 1.341 . S
N419 N418 1.365 . S
N419 H439 0.862 . S
C420 C415 1.501 . S
C420 H421 0.961 . S
C420 H422 0.961 . S
C420 H423 0.960 . S
H421 C420 0.961 . S
H422 C420 0.961 . S
H423 C420 0.960 . S
C424 N425 1.342 . S
C424 C428 1.401 . S
C424 C429 1.499 . S
N425 Co408 1.989 . S
N425 C424 1.342 . S
N425 N426 1.388 . S
N426 Co409 1.993 . S
N426 N425 1.388 . S
N426 C427 1.346 . S
C427 N426 1.346 . S
C427 C428 1.396 . S
C427 C437 1.510 . S
C428 C424 1.401 . S
C428 C427 1.396 . S
C429 C424 1.499 . S
C429 H430 0.959 . S
C429 H431 0.960 . S
C429 H432 0.961 . S
H430 C429 0.959 . S
H431 C429 0.960 . S
H432 C429 0.961 . S
O433 Co408 1.967 . S
O433 C441 1.258 . S
O434 Co409 1.941 . S
O434 C441 1.266 . S
H435 C437 0.959 . S
H436 C437 0.961 . S
C437 C427 1.510 . S
C437 H435 0.959 . S
C437 H436 0.961 . S
C437 H438 0.960 . S
H438 C437 0.960 . S
H439 N419 0.862 . S
O440 Co408 1.920 . S
O440 C413 1.289 . S
C441 O433 1.258 . S
C441 O434 1.266 . S
Co442 O445 1.970 . S
Co442 N459 1.989 . S
Co442 O467 1.967 . S
Co442 O474 1.920 . S
Co443 O446 1.966 . S
Co443 N452 2.022 . S
Co443 N460 1.993 . S
Co443 O468 1.941 . S
C444 O445 1.258 . S
C444 O446 1.263 . S
O445 Co442 1.970 . S
O445 C444 1.258 . S
O446 Co443 1.966 . S
O446 C444 1.263 . S
C447 O448 1.235 . S
C447 O474 1.289 . S
O448 C447 1.235 . S
C449 C451 1.400 . S
C449 N452 1.351 . S
C449 C454 1.501 . S
C450 C451 1.387 . S
C450 N453 1.341 . S
C451 C449 1.400 . S
C451 C450 1.387 . S
N452 Co443 2.022 . S
N452 C449 1.351 . S
N452 N453 1.365 . S
N453 C450 1.341 . S
N453 N452 1.365 . S
N453 H473 0.862 . S
C454 C449 1.501 . S
C454 H455 0.961 . S
C454 H456 0.961 . S
C454 H457 0.960 . S
H455 C454 0.961 . S
H456 C454 0.961 . S
H457 C454 0.960 . S
C458 N459 1.342 . S
C458 C462 1.401 . S
C458 C463 1.499 . S
N459 Co442 1.989 . S
N459 C458 1.342 . S
N459 N460 1.388 . S
N460 Co443 1.993 . S
N460 N459 1.388 . S
N460 C461 1.346 . S
C461 N460 1.346 . S
C461 C462 1.396 . S
C461 C471 1.510 . S
C462 C458 1.401 . S
C462 C461 1.396 . S
C463 C458 1.499 . S
C463 H464 0.959 . S
C463 H465 0.960 . S
C463 H466 0.961 . S
H464 C463 0.959 . S
H465 C463 0.960 . S
H466 C463 0.961 . S
O467 Co442 1.967 . S
O467 C475 1.258 . S
O468 Co443 1.941 . S
O468 C475 1.266 . S
H469 C471 0.959 . S
H470 C471 0.961 . S
C471 C461 1.510 . S
C471 H469 0.959 . S
C471 H470 0.961 . S
C471 H472 0.960 . S
H472 C471 0.960 . S
H473 N453 0.862 . S
O474 Co442 1.920 . S
O474 C447 1.289 . S
C475 O467 1.258 . S
C475 O468 1.266 . S
Co476 O479 1.970 . S
Co476 N493 1.989 1_455 S
Co476 O501 1.967 . S
Co476 O508 1.920 . S
Co477 O480 1.966 . S
Co477 N486 2.022 . S
Co477 N494 1.993 1_455 S
Co477 O502 1.941 . S
C478 O479 1.258 . S
C478 O480 1.263 . S
O479 Co476 1.970 . S
O479 C478 1.258 . S
O480 Co477 1.966 . S
O480 C478 1.263 . S
C481 O482 1.235 . S
C481 O508 1.289 1_655 S
O482 C481 1.235 . S
C483 C485 1.400 . S
C483 N486 1.351 . S
C483 C488 1.501 1_455 S
C484 C485 1.387 . S
C484 N487 1.341 . S
C485 C483 1.400 . S
C485 C484 1.387 . S
N486 Co477 2.022 . S
N486 C483 1.351 . S
N486 N487 1.365 . S
N487 C484 1.341 . S
N487 N486 1.365 . S
N487 H507 0.862 . S
C488 C483 1.501 1_655 S
C488 H489 0.958 1_655 S
C488 H490 0.961 . S
C488 H491 0.960 1_655 S
H489 C488 0.958 1_455 S
H490 C488 0.961 . S
H491 C488 0.960 1_455 S
C492 N493 1.342 . S
C492 C496 1.401 . S
C492 C497 1.499 . S
N493 Co476 1.989 1_655 S
N493 C492 1.342 . S
N493 N494 1.388 . S
N494 Co477 1.993 1_655 S
N494 N493 1.388 . S
N494 C495 1.346 . S
C495 N494 1.346 . S
C495 C496 1.396 . S
C495 C505 1.510 . S
C496 C492 1.401 . S
C496 C495 1.396 . S
C497 C492 1.499 . S
C497 H498 0.959 . S
C497 H499 0.960 . S
C497 H500 0.961 . S
H498 C497 0.959 . S
H499 C497 0.960 . S
H500 C497 0.961 . S
O501 Co476 1.967 . S
O501 C509 1.258 . S
O502 Co477 1.941 . S
O502 C509 1.266 . S
H503 C505 0.959 . S
H504 C505 0.961 . S
C505 C495 1.510 . S
C505 H503 0.959 . S
C505 H504 0.961 . S
C505 H506 0.960 . S
H506 C505 0.960 . S
H507 N487 0.862 . S
O508 Co476 1.920 . S
O508 C481 1.289 1_455 S
C509 O501 1.258 . S
C509 O502 1.266 . S
Co510 O513 1.970 . S
Co510 N527 1.989 1_545 S
Co510 O535 1.967 . S
Co510 O542 1.920 . S
Co511 O514 1.966 . S
Co511 N520 2.022 . S
Co511 N528 1.993 1_545 S
Co511 O536 1.941 . S
C512 O513 1.258 . S
C512 O514 1.263 . S
O513 Co510 1.970 . S
O513 C512 1.258 . S
O514 Co511 1.966 . S
O514 C512 1.263 . S
C515 O516 1.235 . S
C515 O542 1.289 1_565 S
O516 C515 1.235 . S
C517 C519 1.400 . S
C517 N520 1.351 . S
C517 C522 1.501 1_545 S
C518 C519 1.387 . S
C518 N521 1.341 . S
C519 C517 1.400 . S
C519 C518 1.387 . S
N520 Co511 2.022 . S
N520 C517 1.351 . S
N520 N521 1.365 . S
N521 C518 1.341 . S
N521 N520 1.365 . S
N521 H541 0.862 . S
C522 C517 1.501 1_565 S
C522 H523 0.958 1_565 S
C522 H524 0.961 . S
C522 H525 0.960 1_565 S
H523 C522 0.958 1_545 S
H524 C522 0.961 . S
H525 C522 0.960 1_545 S
C526 N527 1.342 . S
C526 C530 1.401 . S
C526 C531 1.499 . S
N527 Co510 1.989 1_565 S
N527 C526 1.342 . S
N527 N528 1.388 . S
N528 Co511 1.993 1_565 S
N528 N527 1.388 . S
N528 C529 1.346 . S
C529 N528 1.346 . S
C529 C530 1.396 . S
C529 C539 1.510 . S
C530 C526 1.401 . S
C530 C529 1.396 . S
C531 C526 1.499 . S
C531 H532 0.959 . S
C531 H533 0.960 . S
C531 H534 0.961 . S
H532 C531 0.959 . S
H533 C531 0.960 . S
H534 C531 0.961 . S
O535 Co510 1.967 . S
O535 C543 1.258 . S
O536 Co511 1.941 . S
O536 C543 1.266 . S
H537 C539 0.959 . S
H538 C539 0.961 . S
C539 C529 1.510 . S
C539 H537 0.959 . S
C539 H538 0.961 . S
C539 H540 0.960 . S
H540 C539 0.960 . S
H541 N521 0.862 . S
O542 Co510 1.920 . S
O542 C515 1.289 1_545 S
C543 O535 1.258 . S
C543 O536 1.266 . S
H544 C550 0.930 . S
H545 C554 0.930 . S
H546 C559 0.929 . S
H547 C557 0.929 . S
H548 C552 0.929 . S
H549 C558 0.929 . S
C550 H544 0.930 . S
C550 C551 1.367 . S
C550 C558 1.378 . S
C551 C550 1.367 . S
C551 C559 1.433 . S
C552 H548 0.929 . S
C552 C554 1.378 . S
C552 C556 1.350 . S
C553 C556 1.463 1_554 S
C553 C558 1.350 . S
C553 N561 1.427 . S
C554 H545 0.930 . S
C554 C552 1.378 . S
C554 C555 1.367 . S
C555 C554 1.367 . S
C555 C557 1.433 . S
C556 C552 1.350 . S
C556 C553 1.463 1_556 S
C556 N560 1.427 . S
C557 H547 0.929 . S
C557 C555 1.433 . S
C557 N560 1.384 . S
C558 H549 0.929 . S
C558 C550 1.378 . S
C558 C553 1.350 . S
C559 H546 0.929 . S
C559 C551 1.433 . S
C559 N561 1.384 . S
N560 C556 1.427 . S
N560 C557 1.384 . S
N561 C553 1.427 . S
N561 C559 1.384 . S
H562 C568 0.930 . S
H563 C572 0.930 . S
H564 C577 0.929 . S
H565 C575 0.929 . S
H566 C570 0.929 . S
H567 C576 0.929 . S
C568 H562 0.930 . S
C568 C569 1.367 . S
C568 C576 1.378 . S
C569 C568 1.367 . S
C569 C577 1.433 . S
C570 H566 0.929 . S
C570 C572 1.378 . S
C570 C574 1.350 . S
C571 C574 1.463 . S
C571 C576 1.350 . S
C571 N579 1.427 . S
C572 H563 0.930 . S
C572 C570 1.378 . S
C572 C573 1.367 . S
C573 C572 1.367 . S
C573 C575 1.433 . S
C574 C570 1.350 . S
C574 C571 1.463 . S
C574 N578 1.427 . S
C575 H565 0.929 . S
C575 C573 1.433 . S
C575 N578 1.384 . S
C576 H567 0.929 . S
C576 C568 1.378 . S
C576 C571 1.350 . S
C577 H564 0.929 . S
C577 C569 1.433 . S
C577 N579 1.384 . S
N578 C574 1.427 . S
N578 C575 1.384 . S
N579 C571 1.427 . S
N579 C577 1.384 . S
H580 C586 0.930 . S
H581 C590 0.930 . S
H582 C595 0.929 . S
H583 C593 0.929 . S
H584 C588 0.929 . S
H585 C594 0.929 . S
C586 H580 0.930 . S
C586 C587 1.367 1_455 S
C586 C594 1.378 . S
C587 C586 1.367 1_655 S
C587 C595 1.433 . S
C588 H584 0.929 . S
C588 C590 1.378 . S
C588 C592 1.350 . S
C589 C592 1.463 1_556 S
C589 C594 1.350 1_655 S
C589 N597 1.427 . S
C590 H581 0.930 . S
C590 C588 1.378 . S
C590 C591 1.367 . S
C591 C590 1.367 . S
C591 C593 1.433 1_655 S
C592 C588 1.350 . S
C592 C589 1.463 1_554 S
C592 N596 1.427 1_655 S
C593 H583 0.929 . S
C593 C591 1.433 1_455 S
C593 N596 1.384 . S
C594 H585 0.929 . S
C594 C586 1.378 . S
C594 C589 1.350 1_455 S
C595 H582 0.929 . S
C595 C587 1.433 . S
C595 N597 1.384 . S
N596 C592 1.427 1_455 S
N596 C593 1.384 . S
N597 C589 1.427 . S
N597 C595 1.384 . S
H598 C604 0.930 . S
H599 C608 0.930 . S
H600 C613 0.929 . S
H601 C611 0.929 . S
H602 C606 0.929 . S
H603 C612 0.929 . S
C604 H598 0.930 . S
C604 C605 1.367 1_545 S
C604 C612 1.378 . S
C605 C604 1.367 1_565 S
C605 C613 1.433 . S
C606 H602 0.929 . S
C606 C608 1.378 . S
C606 C610 1.350 . S
C607 C610 1.463 . S
C607 C612 1.350 1_565 S
C607 N615 1.427 . S
C608 H599 0.930 . S
C608 C606 1.378 . S
C608 C609 1.367 . S
C609 C608 1.367 . S
C609 C611 1.433 1_565 S
C610 C606 1.350 . S
C610 C607 1.463 . S
C610 N614 1.427 1_565 S
C611 H601 0.929 . S
C611 C609 1.433 1_545 S
C611 N614 1.384 . S
C612 H603 0.929 . S
C612 C604 1.378 . S
C612 C607 1.350 1_545 S
C613 H600 0.929 . S
C613 C605 1.433 . S
C613 N615 1.384 . S
N614 C610 1.427 1_545 S
N614 C611 1.384 . S
N615 C607 1.427 . S
N615 C613 1.384 . S
H616 C622 0.930 . S
H617 C626 0.930 . S
H618 C631 0.929 . S
H619 C629 0.929 . S
H620 C624 0.929 . S
H621 C630 0.929 . S
C622 H616 0.930 . S
C622 C623 1.367 . S
C622 C630 1.378 . S
C623 C622 1.367 . S
C623 C631 1.433 . S
C624 H620 0.929 . S
C624 C626 1.378 . S
C624 C628 1.350 . S
C625 C628 1.463 1_556 S
C625 C630 1.350 . S
C625 N633 1.427 . S
C626 H617 0.930 . S
C626 C624 1.378 . S
C626 C627 1.367 . S
C627 C626 1.367 . S
C627 C629 1.433 . S
C628 C624 1.350 . S
C628 C625 1.463 1_554 S
C628 N632 1.427 . S
C629 H619 0.929 . S
C629 C627 1.433 . S
C629 N632 1.384 . S
C630 H621 0.929 . S
C630 C622 1.378 . S
C630 C625 1.350 . S
C631 H618 0.929 . S
C631 C623 1.433 . S
C631 N633 1.384 . S
N632 C628 1.427 . S
N632 C629 1.384 . S
N633 C625 1.427 . S
N633 C631 1.384 . S
H634 C640 0.930 . S
H635 C644 0.930 . S
H636 C649 0.929 . S
H637 C647 0.929 . S
H638 C642 0.929 . S
H639 C648 0.929 . S
C640 H634 0.930 . S
C640 C641 1.367 . S
C640 C648 1.378 . S
C641 C640 1.367 . S
C641 C649 1.433 . S
C642 H638 0.929 . S
C642 C644 1.378 . S
C642 C646 1.350 . S
C643 C646 1.463 . S
C643 C648 1.350 . S
C643 N651 1.427 . S
C644 H635 0.930 . S
C644 C642 1.378 . S
C644 C645 1.367 . S
C645 C644 1.367 . S
C645 C647 1.433 . S
C646 C642 1.350 . S
C646 C643 1.463 . S
C646 N650 1.427 . S
C647 H637 0.929 . S
C647 C645 1.433 . S
C647 N650 1.384 . S
C648 H639 0.929 . S
C648 C640 1.378 . S
C648 C643 1.350 . S
C649 H636 0.929 . S
C649 C641 1.433 . S
C649 N651 1.384 . S
N650 C646 1.427 . S
N650 C647 1.384 . S
N651 C643 1.427 . S
N651 C649 1.384 . S
H652 C658 0.930 . S
H653 C662 0.930 . S
H654 C667 0.929 . S
H655 C665 0.929 . S
H656 C660 0.929 . S
H657 C666 0.929 . S
C658 H652 0.930 . S
C658 C659 1.367 1_655 S
C658 C666 1.378 . S
C659 C658 1.367 1_455 S
C659 C667 1.433 . S
C660 H656 0.929 . S
C660 C662 1.378 . S
C660 C664 1.350 . S
C661 C664 1.463 1_554 S
C661 C666 1.350 1_455 S
C661 N669 1.427 . S
C662 H653 0.930 . S
C662 C660 1.378 . S
C662 C663 1.367 . S
C663 C662 1.367 . S
C663 C665 1.433 1_455 S
C664 C660 1.350 . S
C664 C661 1.463 1_556 S
C664 N668 1.427 1_455 S
C665 H655 0.929 . S
C665 C663 1.433 1_655 S
C665 N668 1.384 . S
C666 H657 0.929 . S
C666 C658 1.378 . S
C666 C661 1.350 1_655 S
C667 H654 0.929 . S
C667 C659 1.433 . S
C667 N669 1.384 . S
N668 C664 1.427 1_655 S
N668 C665 1.384 . S
N669 C661 1.427 . S
N669 C667 1.384 . S
H670 C676 0.930 . S
H671 C680 0.930 . S
H672 C685 0.929 . S
H673 C683 0.929 . S
H674 C678 0.929 . S
H675 C684 0.929 . S
C676 H670 0.930 . S
C676 C677 1.367 1_565 S
C676 C684 1.378 . S
C677 C676 1.367 1_545 S
C677 C685 1.433 . S
C678 H674 0.929 . S
C678 C680 1.378 . S
C678 C682 1.350 . S
C679 C682 1.463 . S
C679 C684 1.350 1_545 S
C679 N687 1.427 . S
C680 H671 0.930 . S
C680 C678 1.378 . S
C680 C681 1.367 . S
C681 C680 1.367 . S
C681 C683 1.433 1_545 S
C682 C678 1.350 . S
C682 C679 1.463 . S
C682 N686 1.427 1_545 S
C683 H673 0.929 . S
C683 C681 1.433 1_565 S
C683 N686 1.384 . S
C684 H675 0.929 . S
C684 C676 1.378 . S
C684 C679 1.350 1_565 S
C685 H672 0.929 . S
C685 C677 1.433 . S
C685 N687 1.384 . S
N686 C682 1.427 1_565 S
N686 C683 1.384 . S
N687 C679 1.427 . S
N687 C685 1.384 . S
H688 C694 0.930 . S
H689 C698 0.930 . S
H690 C703 0.929 . S
H691 C701 0.929 . S
H692 C696 0.929 . S
H693 C702 0.929 . S
C694 H688 0.930 . S
C694 C695 1.367 . S
C694 C702 1.378 . S
C695 C694 1.367 . S
C695 C703 1.433 . S
C696 H692 0.929 . S
C696 C698 1.378 1_565 S
C696 C700 1.350 . S
C697 C700 1.463 . S
C697 C702 1.350 . S
C697 N705 1.427 . S
C698 H689 0.930 . S
C698 C696 1.378 1_545 S
C698 C699 1.367 . S
C699 C698 1.367 . S
C699 C701 1.433 . S
C700 C696 1.350 . S
C700 C697 1.463 . S
C700 N704 1.427 . S
C701 H691 0.929 . S
C701 C699 1.433 . S
C701 N704 1.384 1_545 S
C702 H693 0.929 . S
C702 C694 1.378 . S
C702 C697 1.350 . S
C703 H690 0.929 . S
C703 C695 1.433 . S
C703 N705 1.384 . S
N704 C700 1.427 . S
N704 C701 1.384 1_565 S
N705 C697 1.427 . S
N705 C703 1.384 . S
H706 C712 0.930 . S
H707 C716 0.930 . S
H708 C721 0.929 . S
H709 C719 0.929 . S
H710 C714 0.929 . S
H711 C720 0.929 . S
C712 H706 0.930 . S
C712 C713 1.367 . S
C712 C720 1.378 . S
C713 C712 1.367 . S
C713 C721 1.433 . S
C714 H710 0.929 . S
C714 C716 1.378 . S
C714 C718 1.350 . S
C715 C718 1.463 . S
C715 C720 1.350 . S
C715 N723 1.427 . S
C716 H707 0.930 . S
C716 C714 1.378 . S
C716 C717 1.367 . S
C717 C716 1.367 . S
C717 C719 1.433 . S
C718 C714 1.350 . S
C718 C715 1.463 . S
C718 N722 1.427 . S
C719 H709 0.929 . S
C719 C717 1.433 . S
C719 N722 1.384 . S
C720 H711 0.929 . S
C720 C712 1.378 . S
C720 C715 1.350 . S
C721 H708 0.929 . S
C721 C713 1.433 . S
C721 N723 1.384 . S
N722 C718 1.427 . S
N722 C719 1.384 . S
N723 C715 1.427 . S
N723 C721 1.384 . S
H724 C730 0.930 . S
H725 C734 0.930 1_455 S
H726 C739 0.929 . S
H727 C737 0.929 . S
H728 C732 0.937 . S
H729 C738 0.929 . S
C730 H724 0.930 . S
C730 C731 1.367 . S
C730 C738 1.378 . S
C731 C730 1.367 . S
C731 C739 1.433 1_655 S
C732 H728 0.937 . S
C732 C734 1.377 1_455 S
C732 C736 1.343 1_455 S
C733 C736 1.463 . S
C733 C738 1.350 . S
C733 N741 1.427 1_655 S
C734 H725 0.930 1_655 S
C734 C732 1.377 1_655 S
C734 C735 1.367 . S
C735 C734 1.367 . S
C735 C737 1.433 . S
C736 C732 1.343 1_655 S
C736 C733 1.463 . S
C736 N740 1.427 . S
C737 H727 0.929 . S
C737 C735 1.433 . S
C737 N740 1.384 . S
C738 H729 0.929 . S
C738 C730 1.378 . S
C738 C733 1.350 . S
C739 H726 0.929 . S
C739 C731 1.433 1_455 S
C739 N741 1.384 . S
N740 C736 1.427 . S
N740 C737 1.384 . S
N741 C733 1.427 1_455 S
N741 C739 1.384 . S
H742 C748 0.930 . S
H743 C752 0.930 . S
H744 C757 0.929 . S
H745 C755 0.929 . S
H746 C750 0.929 . S
H747 C756 0.929 . S
C748 H742 0.930 . S
C748 C749 1.367 1_545 S
C748 C756 1.378 . S
C749 C748 1.367 1_565 S
C749 C757 1.433 . S
C750 H746 0.929 . S
C750 C752 1.378 1_655 S
C750 C754 1.350 . S
C751 C754 1.463 . S
C751 C756 1.350 1_565 S
C751 N759 1.427 . S
C752 H743 0.930 . S
C752 C750 1.378 1_455 S
C752 C753 1.367 . S
C753 C752 1.367 . S
C753 C755 1.433 1_565 S
C754 C750 1.350 . S
C754 C751 1.463 . S
C754 N758 1.427 1_565 S
C755 H745 0.929 . S
C755 C753 1.433 1_545 S
C755 N758 1.384 1_455 S
C756 H747 0.929 . S
C756 C748 1.378 . S
C756 C751 1.350 1_545 S
C757 H744 0.929 . S
C757 C749 1.433 . S
C757 N759 1.384 . S
N758 C754 1.427 1_545 S
N758 C755 1.384 1_655 S
N759 C751 1.427 . S
N759 C757 1.384 . S
H760 C766 0.930 . S
H761 C770 0.930 . S
H762 C775 0.929 . S
H763 C773 0.929 . S
H764 C768 0.929 . S
H765 C774 0.929 . S
C766 H760 0.930 . S
C766 C767 1.367 . S
C766 C774 1.378 . S
C767 C766 1.367 . S
C767 C775 1.433 . S
C768 H764 0.929 . S
C768 C770 1.378 . S
C768 C772 1.350 . S
C769 C772 1.463 . S
C769 C774 1.350 . S
C769 N777 1.427 . S
C770 H761 0.930 . S
C770 C768 1.378 . S
C770 C771 1.367 . S
C771 C770 1.367 . S
C771 C773 1.433 . S
C772 C768 1.350 . S
C772 C769 1.463 . S
C772 N776 1.427 . S
C773 H763 0.929 . S
C773 C771 1.433 . S
C773 N776 1.384 . S
C774 H765 0.929 . S
C774 C766 1.378 . S
C774 C769 1.350 . S
C775 H762 0.929 . S
C775 C767 1.433 . S
C775 N777 1.384 . S
N776 C772 1.427 . S
N776 C773 1.384 . S
N777 C769 1.427 . S
N777 C775 1.384 . S
H778 C784 0.930 . S
H779 C788 0.930 . S
H780 C793 0.929 . S
H781 C791 0.929 . S
H782 C786 0.929 . S
H783 C792 0.929 . S
C784 H778 0.930 . S
C784 C785 1.367 . S
C784 C792 1.378 . S
C785 C784 1.367 . S
C785 C793 1.433 . S
C786 H782 0.929 . S
C786 C788 1.378 1_655 S
C786 C790 1.350 . S
C787 C790 1.463 . S
C787 C792 1.350 . S
C787 N795 1.427 . S
C788 H779 0.930 . S
C788 C786 1.378 1_455 S
C788 C789 1.367 . S
C789 C788 1.367 . S
C789 C791 1.433 . S
C790 C786 1.350 . S
C790 C787 1.463 . S
C790 N794 1.427 . S
C791 H781 0.929 . S
C791 C789 1.433 . S
C791 N794 1.384 1_455 S
C792 H783 0.929 . S
C792 C784 1.378 . S
C792 C787 1.350 . S
C793 H780 0.929 . S
C793 C785 1.433 . S
C793 N795 1.384 . S
N794 C790 1.427 . S
N794 C791 1.384 1_655 S
N795 C787 1.427 . S
N795 C793 1.384 . S
H796 C802 0.930 . S
H797 C806 0.930 . S
H798 C811 0.929 . S
H799 C809 0.929 . S
H800 C804 0.929 . S
H801 C810 0.929 . S
C802 H796 0.930 . S
C802 C803 1.367 1_455 S
C802 C810 1.378 1_545 S
C803 C802 1.367 1_655 S
C803 C811 1.433 . S
C804 H800 0.929 . S
C804 C806 1.378 . S
C804 C808 1.350 . S
C805 C808 1.463 . S
C805 C810 1.350 1_655 S
C805 N813 1.427 . S
C806 H797 0.930 . S
C806 C804 1.378 . S
C806 C807 1.367 . S
C807 C806 1.367 . S
C807 C809 1.433 1_655 S
C808 C804 1.350 . S
C808 C805 1.463 . S
C808 N812 1.427 1_655 S
C809 H799 0.929 . S
C809 C807 1.433 1_455 S
C809 N812 1.384 . S
C810 H801 0.929 . S
C810 C802 1.378 1_565 S
C810 C805 1.350 1_455 S
C811 H798 0.929 . S
C811 C803 1.433 . S
C811 N813 1.384 1_545 S
N812 C808 1.427 1_455 S
N812 C809 1.384 . S
N813 C805 1.427 . S
N813 C811 1.384 1_565 S
H814 C820 0.930 . S
H815 C824 0.930 . S
H816 C829 0.935 . S
H817 C827 0.929 . S
H818 C822 0.929 . S
H819 C828 0.929 . S
C820 H814 0.930 . S
C820 C821 1.367 . S
C820 C828 1.378 . S
C821 C820 1.367 . S
C821 C829 1.430 1_565 S
C822 H818 0.929 . S
C822 C824 1.378 . S
C822 C826 1.350 . S
C823 C826 1.463 . S
C823 C828 1.350 . S
C823 N831 1.427 . S
C824 H815 0.930 . S
C824 C822 1.378 . S
C824 C825 1.367 . S
C825 C824 1.367 . S
C825 C827 1.433 . S
C826 C822 1.350 . S
C826 C823 1.463 . S
C826 N830 1.427 . S
C827 H817 0.929 . S
C827 C825 1.433 . S
C827 N830 1.384 . S
C828 H819 0.929 . S
C828 C820 1.378 . S
C828 C823 1.350 . S
C829 H816 0.935 . S
C829 C821 1.430 1_545 S
C829 N831 1.382 1_545 S
N830 C826 1.427 . S
N830 C827 1.384 . S
N831 C823 1.427 . S
N831 C829 1.382 1_565 S
H832 C838 0.930 . S
H833 C842 0.930 . S
H834 C847 0.929 . S
H835 C845 0.929 . S
H836 C840 0.929 . S
H837 C846 0.929 . S
C838 H832 0.930 . S
C838 C839 1.367 . S
C838 C846 1.378 . S
C839 C838 1.367 . S
C839 C847 1.433 . S
C840 H836 0.929 . S
C840 C842 1.378 1_545 S
C840 C844 1.350 . S
C841 C844 1.463 . S
C841 C846 1.350 . S
C841 N849 1.427 . S
C842 H833 0.930 . S
C842 C840 1.378 1_565 S
C842 C843 1.367 . S
C843 C842 1.367 . S
C843 C845 1.433 . S
C844 C840 1.350 . S
C844 C841 1.463 . S
C844 N848 1.427 . S
C845 H835 0.929 . S
C845 C843 1.433 . S
C845 N848 1.384 1_565 S
C846 H837 0.929 . S
C846 C838 1.378 . S
C846 C841 1.350 . S
C847 H834 0.929 . S
C847 C839 1.433 . S
C847 N849 1.384 . S
N848 C844 1.427 . S
N848 C845 1.384 1_545 S
N849 C841 1.427 . S
N849 C847 1.384 . S
H850 C856 0.930 . S
H851 C860 0.930 . S
H852 C865 0.929 . S
H853 C863 0.929 . S
H854 C858 0.929 . S
H855 C864 0.929 . S
C856 H850 0.930 . S
C856 C857 1.367 . S
C856 C864 1.378 . S
C857 C856 1.367 . S
C857 C865 1.433 . S
C858 H854 0.929 . S
C858 C860 1.378 . S
C858 C862 1.350 . S
C859 C862 1.463 . S
C859 C864 1.350 . S
C859 N867 1.427 . S
C860 H851 0.930 . S
C860 C858 1.378 . S
C860 C861 1.367 . S
C861 C860 1.367 . S
C861 C863 1.433 . S
C862 C858 1.350 . S
C862 C859 1.463 . S
C862 N866 1.427 . S
C863 H853 0.929 . S
C863 C861 1.433 . S
C863 N866 1.384 . S
C864 H855 0.929 . S
C864 C856 1.378 . S
C864 C859 1.350 . S
C865 H852 0.929 . S
C865 C857 1.433 . S
C865 N867 1.384 . S
N866 C862 1.427 . S
N866 C863 1.384 . S
N867 C859 1.427 . S
N867 C865 1.384 . S
H868 C874 0.930 . S
H869 C878 0.930 . S
H870 C883 0.929 . S
H871 C881 0.929 . S
H872 C876 0.929 . S
H873 C882 0.929 . S
C874 H868 0.930 . S
C874 C875 1.367 . S
C874 C882 1.378 . S
C875 C874 1.367 . S
C875 C883 1.433 . S
C876 H872 0.929 . S
C876 C878 1.378 . S
C876 C880 1.350 . S
C877 C880 1.463 . S
C877 C882 1.350 . S
C877 N885 1.427 . S
C878 H869 0.930 . S
C878 C876 1.378 . S
C878 C879 1.367 . S
C879 C878 1.367 . S
C879 C881 1.433 . S
C880 C876 1.350 . S
C880 C877 1.463 . S
C880 N884 1.427 . S
C881 H871 0.929 . S
C881 C879 1.433 . S
C881 N884 1.384 . S
C882 H873 0.929 . S
C882 C874 1.378 . S
C882 C877 1.350 . S
C883 H870 0.929 . S
C883 C875 1.433 . S
C883 N885 1.384 . S
N884 C880 1.427 . S
N884 C881 1.384 . S
N885 C877 1.427 . S
N885 C883 1.384 . S
H886 C892 0.930 . S
H887 C896 0.934 . S
H888 C901 0.929 . S
H889 C899 0.929 . S
H890 C894 0.929 1_565 S
H891 C900 0.929 . S
C892 H886 0.930 . S
C892 C893 1.367 . S
C892 C900 1.378 1_655 S
C893 C892 1.367 . S
C893 C901 1.433 1_545 S
C894 H890 0.929 1_545 S
C894 C896 1.378 . S
C894 C898 1.350 . S
C895 C898 1.463 . S
C895 C900 1.350 . S
C895 N903 1.427 1_545 S
C896 H887 0.934 . S
C896 C894 1.378 . S
C896 C897 1.367 . S
C897 C896 1.367 . S
C897 C899 1.433 . S
C898 C894 1.350 . S
C898 C895 1.463 . S
C898 N902 1.427 . S
C899 H889 0.929 . S
C899 C897 1.433 . S
C899 N902 1.384 . S
C900 H891 0.929 . S
C900 C892 1.378 1_455 S
C900 C895 1.350 . S
C901 H888 0.929 . S
C901 C893 1.433 1_565 S
C901 N903 1.384 1_655 S
N902 C898 1.427 . S
N902 C899 1.384 . S
N903 C895 1.427 1_565 S
N903 C901 1.384 1_455 S
H904 C910 0.930 . S
H905 C914 0.930 . S
H906 C919 0.929 . S
H907 C917 0.929 . S
H908 C912 0.929 . S
H909 C918 0.929 . S
C910 H904 0.930 . S
C910 C911 1.367 . S
C910 C918 1.378 . S
C911 C910 1.367 . S
C911 C919 1.433 . S
C912 H908 0.929 . S
C912 C914 1.378 . S
C912 C916 1.350 . S
C913 C916 1.463 . S
C913 C918 1.350 . S
C913 N921 1.427 . S
C914 H905 0.930 . S
C914 C912 1.378 . S
C914 C915 1.367 . S
C915 C914 1.367 . S
C915 C917 1.433 . S
C916 C912 1.350 . S
C916 C913 1.463 . S
C916 N920 1.427 . S
C917 H907 0.929 . S
C917 C915 1.433 . S
C917 N920 1.384 . S
C918 H909 0.929 . S
C918 C910 1.378 . S
C918 C913 1.350 . S
C919 H906 0.929 . S
C919 C911 1.433 . S
C919 N921 1.384 . S
N920 C916 1.427 . S
N920 C917 1.384 . S
N921 C913 1.427 . S
N921 C919 1.384 . S
H922 C928 0.930 . S
H923 C932 0.930 . S
H924 C937 0.929 . S
H925 C935 0.929 . S
H926 C930 0.929 . S
H927 C936 0.929 . S
C928 H922 0.930 . S
C928 C929 1.367 . S
C928 C936 1.378 . S
C929 C928 1.367 . S
C929 C937 1.433 . S
C930 H926 0.929 . S
C930 C932 1.378 1_455 S
C930 C934 1.350 . S
C931 C934 1.463 . S
C931 C936 1.350 . S
C931 N939 1.427 . S
C932 H923 0.930 . S
C932 C930 1.378 1_655 S
C932 C933 1.367 . S
C933 C932 1.367 . S
C933 C935 1.433 . S
C934 C930 1.350 . S
C934 C931 1.463 . S
C934 N938 1.427 . S
C935 H925 0.929 . S
C935 C933 1.433 . S
C935 N938 1.384 1_655 S
C936 H927 0.929 . S
C936 C928 1.378 . S
C936 C931 1.350 . S
C937 H924 0.929 . S
C937 C929 1.433 . S
C937 N939 1.384 . S
N938 C934 1.427 . S
N938 C935 1.384 1_455 S
N939 C931 1.427 . S
N939 C937 1.384 . S
H940 C946 0.933 . S
H941 C950 0.930 . S
H942 C955 0.929 . S
H943 C953 0.929 . S
H944 C948 0.929 . S
H945 C954 0.929 . S
C946 H940 0.933 . S
C946 C947 1.367 . S
C946 C954 1.378 1_565 S
C947 C946 1.367 . S
C947 C955 1.433 . S
C948 H944 0.929 . S
C948 C950 1.378 . S
C948 C952 1.350 . S
C949 C952 1.463 . S
C949 C954 1.350 . S
C949 N957 1.427 . S
C950 H941 0.930 . S
C950 C948 1.378 . S
C950 C951 1.367 . S
C951 C950 1.367 . S
C951 C953 1.433 . S
C952 C948 1.350 . S
C952 C949 1.463 . S
C952 N956 1.427 . S
C953 H943 0.929 . S
C953 C951 1.433 . S
C953 N956 1.384 . S
C954 H945 0.929 . S
C954 C946 1.378 1_545 S
C954 C949 1.350 . S
C955 H942 0.929 . S
C955 C947 1.433 . S
C955 N957 1.384 1_565 S
N956 C952 1.427 . S
N956 C953 1.384 . S
N957 C949 1.427 . S
N957 C955 1.384 1_545 S
H958 C964 0.930 . S
H959 C968 0.930 . S
H960 C973 0.929 . S
H961 C971 0.929 . S
H962 C966 0.929 . S
H963 C972 0.929 . S
C964 H958 0.930 . S
C964 C965 1.367 . S
C964 C972 1.378 . S
C965 C964 1.367 . S
C965 C973 1.433 1_545 S
C966 H962 0.929 . S
C966 C968 1.378 . S
C966 C970 1.350 1_565 S
C967 C970 1.463 . S
C967 C972 1.350 . S
C967 N975 1.427 1_545 S
C968 H959 0.930 . S
C968 C966 1.378 . S
C968 C969 1.367 1_565 S
C969 C968 1.367 1_545 S
C969 C971 1.433 . S
C970 C966 1.350 1_545 S
C970 C967 1.463 . S
C970 N974 1.427 . S
C971 H961 0.929 . S
C971 C969 1.433 . S
C971 N974 1.384 . S
C972 H963 0.929 . S
C972 C964 1.378 . S
C972 C967 1.350 . S
C973 H960 0.929 . S
C973 C965 1.433 1_565 S
C973 N975 1.384 . S
N974 C970 1.427 . S
N974 C971 1.384 . S
N975 C967 1.427 1_565 S
N975 C973 1.384 . S
H976 C982 0.930 . S
H977 C986 0.930 . S
H978 C991 0.929 . S
H979 C989 0.929 . S
H980 C984 0.929 . S
H981 C990 0.929 . S
C982 H976 0.930 . S
C982 C983 1.367 . S
C982 C990 1.378 . S
C983 C982 1.367 . S
C983 C991 1.433 . S
C984 H980 0.929 . S
C984 C986 1.378 . S
C984 C988 1.350 . S
C985 C988 1.463 . S
C985 C990 1.350 . S
C985 N993 1.427 . S
C986 H977 0.930 . S
C986 C984 1.378 . S
C986 C987 1.367 . S
C987 C986 1.367 . S
C987 C989 1.433 . S
C988 C984 1.350 . S
C988 C985 1.463 . S
C988 N992 1.427 . S
C989 H979 0.929 . S
C989 C987 1.433 . S
C989 N992 1.384 . S
C990 H981 0.929 . S
C990 C982 1.378 . S
C990 C985 1.350 . S
C991 H978 0.929 . S
C991 C983 1.433 . S
C991 N993 1.384 . S
N992 C988 1.427 . S
N992 C989 1.384 . S
N993 C985 1.427 . S
N993 C991 1.384 . S
H994 C1000 0.930 . S
H995 C1004 0.930 . S
H996 C1009 0.929 . S
H997 C1007 0.929 . S
H998 C1002 0.929 . S
H999 C1008 0.929 . S
C1000 H994 0.930 . S
C1000 C1001 1.367 . S
C1000 C1008 1.378 . S
C1001 C1000 1.367 . S
C1001 C1009 1.433 . S
C1002 H998 0.929 . S
C1002 C1004 1.378 . S
C1002 C1006 1.350 . S
C1003 C1006 1.463 . S
C1003 C1008 1.350 . S
C1003 N1011 1.427 . S
C1004 H995 0.930 . S
C1004 C1002 1.378 . S
C1004 C1005 1.367 . S
C1005 C1004 1.367 . S
C1005 C1007 1.433 . S
C1006 C1002 1.350 . S
C1006 C1003 1.463 . S
C1006 N1010 1.427 . S
C1007 H997 0.929 . S
C1007 C1005 1.433 . S
C1007 N1010 1.384 . S
C1008 H999 0.929 . S
C1008 C1000 1.378 . S
C1008 C1003 1.350 . S
C1009 H996 0.929 . S
C1009 C1001 1.433 . S
C1009 N1011 1.384 . S
N1010 C1006 1.427 . S
N1010 C1007 1.384 . S
N1011 C1003 1.427 . S
N1011 C1009 1.384 . S
H1012 C1018 0.930 . S
H1013 C1022 0.930 . S
H1014 C1027 0.929 . S
H1015 C1025 0.929 . S
H1016 C1020 0.929 . S
H1017 C1026 0.929 . S
C1018 H1012 0.930 . S
C1018 C1019 1.367 . S
C1018 C1026 1.378 . S
C1019 C1018 1.367 . S
C1019 C1027 1.433 . S
C1020 H1016 0.929 . S
C1020 C1022 1.378 . S
C1020 C1024 1.350 . S
C1021 C1024 1.463 . S
C1021 C1026 1.350 . S
C1021 N1029 1.427 . S
C1022 H1013 0.930 . S
C1022 C1020 1.378 . S
C1022 C1023 1.367 . S
C1023 C1022 1.367 . S
C1023 C1025 1.433 . S
C1024 C1020 1.350 . S
C1024 C1021 1.463 . S
C1024 N1028 1.427 . S
C1025 H1015 0.929 . S
C1025 C1023 1.433 . S
C1025 N1028 1.384 . S
C1026 H1017 0.929 . S
C1026 C1018 1.378 . S
C1026 C1021 1.350 . S
C1027 H1014 0.929 . S
C1027 C1019 1.433 . S
C1027 N1029 1.384 . S
N1028 C1024 1.427 . S
N1028 C1025 1.384 . S
N1029 C1021 1.427 . S
N1029 C1027 1.384 . S
H1030 C1036 0.930 . S
H1031 C1040 0.930 . S
H1032 C1045 0.929 . S
H1033 C1043 0.929 . S
H1034 C1038 0.929 . S
H1035 C1044 0.929 . S
C1036 H1030 0.930 . S
C1036 C1037 1.367 . S
C1036 C1044 1.378 . S
C1037 C1036 1.367 . S
C1037 C1045 1.433 . S
C1038 H1034 0.929 . S
C1038 C1040 1.378 . S
C1038 C1042 1.350 . S
C1039 C1042 1.463 . S
C1039 C1044 1.350 . S
C1039 N1047 1.427 . S
C1040 H1031 0.930 . S
C1040 C1038 1.378 . S
C1040 C1041 1.367 . S
C1041 C1040 1.367 . S
C1041 C1043 1.433 . S
C1042 C1038 1.350 . S
C1042 C1039 1.463 . S
C1042 N1046 1.427 . S
C1043 H1033 0.929 . S
C1043 C1041 1.433 . S
C1043 N1046 1.384 . S
C1044 H1035 0.929 . S
C1044 C1036 1.378 . S
C1044 C1039 1.350 . S
C1045 H1032 0.929 . S
C1045 C1037 1.433 . S
C1045 N1047 1.384 . S
N1046 C1042 1.427 . S
N1046 C1043 1.384 . S
N1047 C1039 1.427 . S
N1047 C1045 1.384 . S
H1048 C1054 0.930 . S
H1049 C1058 0.930 . S
H1050 C1063 0.929 . S
H1051 C1061 0.929 . S
H1052 C1056 0.929 . S
H1053 C1062 0.929 . S
C1054 H1048 0.930 . S
C1054 C1055 1.367 . S
C1054 C1062 1.378 . S
C1055 C1054 1.367 . S
C1055 C1063 1.433 . S
C1056 H1052 0.929 . S
C1056 C1058 1.378 . S
C1056 C1060 1.350 . S
C1057 C1060 1.463 . S
C1057 C1062 1.350 . S
C1057 N1065 1.427 . S
C1058 H1049 0.930 . S
C1058 C1056 1.378 . S
C1058 C1059 1.367 . S
C1059 C1058 1.367 . S
C1059 C1061 1.433 . S
C1060 C1056 1.350 . S
C1060 C1057 1.463 . S
C1060 N1064 1.427 . S
C1061 H1051 0.929 . S
C1061 C1059 1.433 . S
C1061 N1064 1.384 . S
C1062 H1053 0.929 . S
C1062 C1054 1.378 . S
C1062 C1057 1.350 . S
C1063 H1050 0.929 . S
C1063 C1055 1.433 . S
C1063 N1065 1.384 . S
N1064 C1060 1.427 . S
N1064 C1061 1.384 . S
N1065 C1057 1.427 . S
N1065 C1063 1.384 . S
H1066 C1072 0.930 . S
H1067 C1076 0.930 . S
H1068 C1081 0.929 . S
H1069 C1079 0.929 . S
H1070 C1074 0.929 . S
H1071 C1080 0.929 . S
C1072 H1066 0.930 . S
C1072 C1073 1.367 . S
C1072 C1080 1.378 . S
C1073 C1072 1.367 . S
C1073 C1081 1.433 . S
C1074 H1070 0.929 . S
C1074 C1076 1.378 . S
C1074 C1078 1.350 . S
C1075 C1078 1.463 . S
C1075 C1080 1.350 . S
C1075 N1083 1.427 . S
C1076 H1067 0.930 . S
C1076 C1074 1.378 . S
C1076 C1077 1.367 . S
C1077 C1076 1.367 . S
C1077 C1079 1.433 . S
C1078 C1074 1.350 . S
C1078 C1075 1.463 . S
C1078 N1082 1.427 . S
C1079 H1069 0.929 . S
C1079 C1077 1.433 . S
C1079 N1082 1.384 . S
C1080 H1071 0.929 . S
C1080 C1072 1.378 . S
C1080 C1075 1.350 . S
C1081 H1068 0.929 . S
C1081 C1073 1.433 . S
C1081 N1083 1.384 . S
N1082 C1078 1.427 . S
N1082 C1079 1.384 . S
N1083 C1075 1.427 . S
N1083 C1081 1.384 . S
H1084 C1090 0.930 . S
H1085 C1094 0.930 . S
H1086 C1099 0.929 . S
H1087 C1097 0.929 . S
H1088 C1092 0.929 . S
H1089 C1098 0.929 . S
C1090 H1084 0.930 . S
C1090 C1091 1.367 . S
C1090 C1098 1.378 . S
C1091 C1090 1.367 . S
C1091 C1099 1.433 . S
C1092 H1088 0.929 . S
C1092 C1094 1.378 . S
C1092 C1096 1.350 . S
C1093 C1096 1.463 . S
C1093 C1098 1.350 . S
C1093 N1101 1.427 . S
C1094 H1085 0.930 . S
C1094 C1092 1.378 . S
C1094 C1095 1.367 . S
C1095 C1094 1.367 . S
C1095 C1097 1.433 . S
C1096 C1092 1.350 . S
C1096 C1093 1.463 . S
C1096 N1100 1.427 . S
C1097 H1087 0.929 . S
C1097 C1095 1.433 . S
C1097 N1100 1.384 . S
C1098 H1089 0.929 . S
C1098 C1090 1.378 . S
C1098 C1093 1.350 . S
C1099 H1086 0.929 . S
C1099 C1091 1.433 . S
C1099 N1101 1.384 . S
N1100 C1096 1.427 . S
N1100 C1097 1.384 . S
N1101 C1093 1.427 . S
N1101 C1099 1.384 . S
H1102 C1108 0.930 . S
H1103 C1112 0.930 . S
H1104 C1117 0.929 . S
H1105 C1115 0.929 . S
H1106 C1110 0.929 . S
H1107 C1116 0.929 . S
C1108 H1102 0.930 . S
C1108 C1109 1.367 . S
C1108 C1116 1.378 . S
C1109 C1108 1.367 . S
C1109 C1117 1.433 . S
C1110 H1106 0.929 . S
C1110 C1112 1.378 . S
C1110 C1114 1.350 . S
C1111 C1114 1.463 . S
C1111 C1116 1.350 . S
C1111 N1119 1.427 . S
C1112 H1103 0.930 . S
C1112 C1110 1.378 . S
C1112 C1113 1.367 . S
C1113 C1112 1.367 . S
C1113 C1115 1.433 . S
C1114 C1110 1.350 . S
C1114 C1111 1.463 . S
C1114 N1118 1.427 . S
C1115 H1105 0.929 . S
C1115 C1113 1.433 . S
C1115 N1118 1.384 . S
C1116 H1107 0.929 . S
C1116 C1108 1.378 . S
C1116 C1111 1.350 . S
C1117 H1104 0.929 . S
C1117 C1109 1.433 . S
C1117 N1119 1.384 . S
N1118 C1114 1.427 . S
N1118 C1115 1.384 . S
N1119 C1111 1.427 . S
N1119 C1117 1.384 . S
H1120 C1126 0.930 . S
H1121 C1130 0.930 . S
H1122 C1135 0.929 . S
H1123 C1133 0.929 . S
H1124 C1128 0.929 . S
H1125 C1134 0.929 . S
C1126 H1120 0.930 . S
C1126 C1127 1.367 . S
C1126 C1134 1.378 . S
C1127 C1126 1.367 . S
C1127 C1135 1.433 . S
C1128 H1124 0.929 . S
C1128 C1130 1.378 . S
C1128 C1132 1.350 . S
C1129 C1132 1.463 . S
C1129 C1134 1.350 . S
C1129 N1137 1.427 . S
C1130 H1121 0.930 . S
C1130 C1128 1.378 . S
C1130 C1131 1.367 . S
C1131 C1130 1.367 . S
C1131 C1133 1.433 . S
C1132 C1128 1.350 . S
C1132 C1129 1.463 . S
C1132 N1136 1.427 . S
C1133 H1123 0.929 . S
C1133 C1131 1.433 . S
C1133 N1136 1.384 . S
C1134 H1125 0.929 . S
C1134 C1126 1.378 . S
C1134 C1129 1.350 . S
C1135 H1122 0.929 . S
C1135 C1127 1.433 . S
C1135 N1137 1.384 . S
N1136 C1132 1.427 . S
N1136 C1133 1.384 . S
N1137 C1129 1.427 . S
N1137 C1135 1.384 . S
H1138 C1144 0.930 . S
H1139 C1148 0.930 . S
H1140 C1153 0.929 . S
H1141 C1151 0.929 . S
H1142 C1146 0.929 . S
H1143 C1152 0.929 . S
C1144 H1138 0.930 . S
C1144 C1145 1.367 . S
C1144 C1152 1.378 . S
C1145 C1144 1.367 . S
C1145 C1153 1.433 . S
C1146 H1142 0.929 . S
C1146 C1148 1.378 . S
C1146 C1150 1.350 . S
C1147 C1150 1.463 . S
C1147 C1152 1.350 . S
C1147 N1155 1.427 . S
C1148 H1139 0.930 . S
C1148 C1146 1.378 . S
C1148 C1149 1.367 . S
C1149 C1148 1.367 . S
C1149 C1151 1.433 . S
C1150 C1146 1.350 . S
C1150 C1147 1.463 . S
C1150 N1154 1.427 . S
C1151 H1141 0.929 . S
C1151 C1149 1.433 . S
C1151 N1154 1.384 . S
C1152 H1143 0.929 . S
C1152 C1144 1.378 . S
C1152 C1147 1.350 . S
C1153 H1140 0.929 . S
C1153 C1145 1.433 . S
C1153 N1155 1.384 . S
N1154 C1150 1.427 . S
N1154 C1151 1.384 . S
N1155 C1147 1.427 . S
N1155 C1153 1.384 . S
H1156 C1162 0.930 . S
H1157 C1166 0.930 . S
H1158 C1171 0.929 . S
H1159 C1169 0.929 . S
H1160 C1164 0.929 . S
H1161 C1170 0.929 . S
C1162 H1156 0.930 . S
C1162 C1163 1.367 . S
C1162 C1170 1.378 . S
C1163 C1162 1.367 . S
C1163 C1171 1.433 . S
C1164 H1160 0.929 . S
C1164 C1166 1.378 . S
C1164 C1168 1.350 . S
C1165 C1168 1.463 . S
C1165 C1170 1.350 . S
C1165 N1173 1.427 . S
C1166 H1157 0.930 . S
C1166 C1164 1.378 . S
C1166 C1167 1.367 . S
C1167 C1166 1.367 . S
C1167 C1169 1.433 . S
C1168 C1164 1.350 . S
C1168 C1165 1.463 . S
C1168 N1172 1.427 . S
C1169 H1159 0.929 . S
C1169 C1167 1.433 . S
C1169 N1172 1.384 . S
C1170 H1161 0.929 . S
C1170 C1162 1.378 . S
C1170 C1165 1.350 . S
C1171 H1158 0.929 . S
C1171 C1163 1.433 . S
C1171 N1173 1.384 . S
N1172 C1168 1.427 . S
N1172 C1169 1.384 . S
N1173 C1165 1.427 . S
N1173 C1171 1.384 . S
H1174 C1180 0.930 . S
H1175 C1184 0.930 . S
H1176 C1189 0.929 . S
H1177 C1187 0.929 . S
H1178 C1182 0.929 . S
H1179 C1188 0.929 . S
C1180 H1174 0.930 . S
C1180 C1181 1.367 . S
C1180 C1188 1.378 . S
C1181 C1180 1.367 . S
C1181 C1189 1.433 . S
C1182 H1178 0.929 . S
C1182 C1184 1.378 . S
C1182 C1186 1.350 . S
C1183 C1186 1.463 . S
C1183 C1188 1.350 . S
C1183 N1191 1.427 . S
C1184 H1175 0.930 . S
C1184 C1182 1.378 . S
C1184 C1185 1.367 . S
C1185 C1184 1.367 . S
C1185 C1187 1.433 . S
C1186 C1182 1.350 . S
C1186 C1183 1.463 . S
C1186 N1190 1.427 . S
C1187 H1177 0.929 . S
C1187 C1185 1.433 . S
C1187 N1190 1.384 . S
C1188 H1179 0.929 . S
C1188 C1180 1.378 . S
C1188 C1183 1.350 . S
C1189 H1176 0.929 . S
C1189 C1181 1.433 . S
C1189 N1191 1.384 . S
N1190 C1186 1.427 . S
N1190 C1187 1.384 . S
N1191 C1183 1.427 . S
N1191 C1189 1.384 . S
H1192 C1198 0.930 . S
H1193 C1202 0.930 . S
H1194 C1207 0.929 . S
H1195 C1205 0.929 . S
H1196 C1200 0.929 . S
H1197 C1206 0.929 . S
C1198 H1192 0.930 . S
C1198 C1199 1.367 . S
C1198 C1206 1.378 . S
C1199 C1198 1.367 . S
C1199 C1207 1.433 . S
C1200 H1196 0.929 . S
C1200 C1202 1.378 . S
C1200 C1204 1.350 . S
C1201 C1204 1.463 . S
C1201 C1206 1.350 . S
C1201 N1209 1.427 . S
C1202 H1193 0.930 . S
C1202 C1200 1.378 . S
C1202 C1203 1.367 . S
C1203 C1202 1.367 . S
C1203 C1205 1.433 . S
C1204 C1200 1.350 . S
C1204 C1201 1.463 . S
C1204 N1208 1.427 . S
C1205 H1195 0.929 . S
C1205 C1203 1.433 . S
C1205 N1208 1.384 . S
C1206 H1197 0.929 . S
C1206 C1198 1.378 . S
C1206 C1201 1.350 . S
C1207 H1194 0.929 . S
C1207 C1199 1.433 . S
C1207 N1209 1.384 . S
N1208 C1204 1.427 . S
N1208 C1205 1.384 . S
N1209 C1201 1.427 . S
N1209 C1207 1.384 . S
H1210 C1216 0.930 . S
H1211 C1220 0.930 . S
H1212 C1225 0.929 . S
H1213 C1223 0.929 . S
H1214 C1218 0.929 . S
H1215 C1224 0.929 . S
C1216 H1210 0.930 . S
C1216 C1217 1.367 . S
C1216 C1224 1.378 . S
C1217 C1216 1.367 . S
C1217 C1225 1.433 . S
C1218 H1214 0.929 . S
C1218 C1220 1.378 . S
C1218 C1222 1.350 . S
C1219 C1222 1.463 . S
C1219 C1224 1.350 . S
C1219 N1227 1.427 . S
C1220 H1211 0.930 . S
C1220 C1218 1.378 . S
C1220 C1221 1.367 . S
C1221 C1220 1.367 . S
C1221 C1223 1.433 . S
C1222 C1218 1.350 . S
C1222 C1219 1.463 . S
C1222 N1226 1.427 . S
C1223 H1213 0.929 . S
C1223 C1221 1.433 . S
C1223 N1226 1.384 . S
C1224 H1215 0.929 . S
C1224 C1216 1.378 . S
C1224 C1219 1.350 . S
C1225 H1212 0.929 . S
C1225 C1217 1.433 . S
C1225 N1227 1.384 . S
N1226 C1222 1.427 . S
N1226 C1223 1.384 . S
N1227 C1219 1.427 . S
N1227 C1225 1.384 . S
H1228 C1234 0.930 . S
H1229 C1238 0.930 . S
H1230 C1243 0.929 . S
H1231 C1241 0.929 . S
H1232 C1236 0.929 . S
H1233 C1242 0.929 . S
C1234 H1228 0.930 . S
C1234 C1235 1.367 . S
C1234 C1242 1.378 . S
C1235 C1234 1.367 . S
C1235 C1243 1.433 . S
C1236 H1232 0.929 . S
C1236 C1238 1.378 . S
C1236 C1240 1.350 . S
C1237 C1240 1.463 . S
C1237 C1242 1.350 . S
C1237 N1245 1.427 . S
C1238 H1229 0.930 . S
C1238 C1236 1.378 . S
C1238 C1239 1.367 . S
C1239 C1238 1.367 . S
C1239 C1241 1.433 . S
C1240 C1236 1.350 . S
C1240 C1237 1.463 . S
C1240 N1244 1.427 . S
C1241 H1231 0.929 . S
C1241 C1239 1.433 . S
C1241 N1244 1.384 . S
C1242 H1233 0.929 . S
C1242 C1234 1.378 . S
C1242 C1237 1.350 . S
C1243 H1230 0.929 . S
C1243 C1235 1.433 . S
C1243 N1245 1.384 . S
N1244 C1240 1.427 . S
N1244 C1241 1.384 . S
N1245 C1237 1.427 . S
N1245 C1243 1.384 . S
H1246 C1252 0.930 . S
H1247 C1256 0.930 . S
H1248 C1261 0.929 . S
H1249 C1259 0.929 . S
H1250 C1254 0.929 . S
H1251 C1260 0.929 . S
C1252 H1246 0.930 . S
C1252 C1253 1.367 . S
C1252 C1260 1.378 . S
C1253 C1252 1.367 . S
C1253 C1261 1.433 . S
C1254 H1250 0.929 . S
C1254 C1256 1.378 . S
C1254 C1258 1.350 . S
C1255 C1258 1.463 . S
C1255 C1260 1.350 . S
C1255 N1263 1.427 . S
C1256 H1247 0.930 . S
C1256 C1254 1.378 . S
C1256 C1257 1.367 . S
C1257 C1256 1.367 . S
C1257 C1259 1.433 . S
C1258 C1254 1.350 . S
C1258 C1255 1.463 . S
C1258 N1262 1.427 . S
C1259 H1249 0.929 . S
C1259 C1257 1.433 . S
C1259 N1262 1.384 . S
C1260 H1251 0.929 . S
C1260 C1252 1.378 . S
C1260 C1255 1.350 . S
C1261 H1248 0.929 . S
C1261 C1253 1.433 . S
C1261 N1263 1.384 . S
N1262 C1258 1.427 . S
N1262 C1259 1.384 . S
N1263 C1255 1.427 . S
N1263 C1261 1.384 . S
C551 C2 1.496 . S
C555 C138 1.494 . S
C569 C172 1.496 . S
C573 C36 1.495 . S
C587 C206 1.496 . S
C591 C70 1.495 . S
C605 C240 1.495 . S
C609 C104 1.492 . S
C623 C274 1.493 . S
C627 C410 1.491 . S
C641 C308 1.495 . S
C645 C444 1.493 . S
C659 C478 1.492 . S
C663 C342 1.491 . S
C677 C376 1.496 . S
C681 C512 1.495 . S
C695 C413 0.772 . S
C699 C9 0.750 . S
C713 C447 0.773 . S
C717 C43 0.774 . S
C731 C77 0.780 . S
C735 C481 0.791 . S
C749 C515 0.771 . S
C753 C111 0.750 . S
C767 C277 0.791 . S
C771 C145 0.778 . S
C785 C311 0.783 . S
C789 C179 0.761 . S
C803 C213 0.784 . S
C807 C345 0.779 . S
C821 C247 0.784 . S
C825 C379 0.792 . S
C839 C141 0.770 . S
C843 C281 0.767 . S
C857 C175 0.792 . S
C861 C315 0.783 . S
C875 C209 0.792 . S
C879 C349 0.787 . S
C893 C383 0.783 . S
C897 C243 0.792 . S
C911 C5 0.791 . S
C915 C417 0.781 . S
C929 C39 0.787 . S
C933 C451 0.768 . S
C947 C485 0.788 . S
C951 C73 0.792 . S
C965 C107 0.771 . S
C969 C519 0.770 . S
C983 C101 2.222 . S
C987 C33 2.222 . S
C1001 C67 2.222 . S
C1005 C135 2.220 . S
C1019 C237 2.220 . S
C1023 C169 2.222 . S
C1037 C271 2.222 . S
C1041 C203 2.220 . S
C1055 C373 2.220 . S
C1059 C305 2.222 . S
C1073 C407 2.221 . S
C1077 C339 2.223 . S
C1091 C441 2.223 . S
C1095 C509 2.221 . S
C1109 C543 2.222 . S
C1113 C475 2.222 . S
C1127 C258 1.754 . S
C1131 C20 1.751 . S
C1145 C156 1.755 . S
C1149 C54 1.757 . S
C1163 C190 1.747 . S
C1167 C88 1.748 . S
C1181 C224 1.752 . S
C1185 C122 1.748 . S
C1199 C530 1.748 . S
C1203 C292 1.747 . S
C1217 C428 1.756 . S
C1221 C326 1.757 . S
C1235 C462 1.755 . S
C1239 C360 1.757 . S
C1253 C496 1.747 . S
C1257 C394 1.748 . S
