# Generated by pormake.
# Topology uol, (4)-cn, num edge types: 1
# Building blocks:
#     Node 0, Type 0, BuildingBlock: GALJAG_clean_sbu_0, # of connection points: 4
#     Node 1, Type 0, BuildingBlock: GALJAG_clean_sbu_0, # of connection points: 4
#     Node 2, Type 0, BuildingBlock: GALJAG_clean_sbu_0, # of connection points: 4
#     Node 3, Type 0, BuildingBlock: GALJAG_clean_sbu_0, # of connection points: 4
#     Node 4, Type 0, BuildingBlock: GALJAG_clean_sbu_0, # of connection points: 4
#     Node 5, Type 0, BuildingBlock: GALJAG_clean_sbu_0, # of connection points: 4
#     Node 6, Type 0, BuildingBlock: GALJAG_clean_sbu_0, # of connection points: 4
#     Node 7, Type 0, BuildingBlock: GALJAG_clean_sbu_0, # of connection points: 4
#     Node 8, Type 0, BuildingBlock: GALJAG_clean_sbu_0, # of connection points: 4
#     Node 9, Type 0, BuildingBlock: GALJAG_clean_sbu_0, # of connection points: 4
#     Node 10, Type 0, BuildingBlock: GALJAG_clean_sbu_0, # of connection points: 4
#     Node 11, Type 0, BuildingBlock: GALJAG_clean_sbu_0, # of connection points: 4
#     Edge 12, Type (0, 0), BuildingBlock: MIFKUJ_clean_linker_0, # of connection points: 2
#     Edge 13, Type (0, 0), BuildingBlock: MIFKUJ_clean_linker_0, # of connection points: 2
#     Edge 14, Type (0, 0), BuildingBlock: MIFKUJ_clean_linker_0, # of connection points: 2
#     Edge 15, Type (0, 0), BuildingBlock: MIFKUJ_clean_linker_0, # of connection points: 2
#     Edge 16, Type (0, 0), BuildingBlock: MIFKUJ_clean_linker_0, # of connection points: 2
#     Edge 17, Type (0, 0), BuildingBlock: MIFKUJ_clean_linker_0, # of connection points: 2
#     Edge 18, Type (0, 0), BuildingBlock: MIFKUJ_clean_linker_0, # of connection points: 2
#     Edge 19, Type (0, 0), BuildingBlock: MIFKUJ_clean_linker_0, # of connection points: 2
#     Edge 20, Type (0, 0), BuildingBlock: MIFKUJ_clean_linker_0, # of connection points: 2
#     Edge 21, Type (0, 0), BuildingBlock: MIFKUJ_clean_linker_0, # of connection points: 2
#     Edge 22, Type (0, 0), BuildingBlock: MIFKUJ_clean_linker_0, # of connection points: 2
#     Edge 23, Type (0, 0), BuildingBlock: MIFKUJ_clean_linker_0, # of connection points: 2
#     Edge 24, Type (0, 0), BuildingBlock: MIFKUJ_clean_linker_0, # of connection points: 2
#     Edge 25, Type (0, 0), BuildingBlock: MIFKUJ_clean_linker_0, # of connection points: 2
#     Edge 26, Type (0, 0), BuildingBlock: MIFKUJ_clean_linker_0, # of connection points: 2
#     Edge 27, Type (0, 0), BuildingBlock: MIFKUJ_clean_linker_0, # of connection points: 2
#     Edge 28, Type (0, 0), BuildingBlock: MIFKUJ_clean_linker_0, # of connection points: 2
#     Edge 29, Type (0, 0), BuildingBlock: MIFKUJ_clean_linker_0, # of connection points: 2
#     Edge 30, Type (0, 0), BuildingBlock: MIFKUJ_clean_linker_0, # of connection points: 2
#     Edge 31, Type (0, 0), BuildingBlock: MIFKUJ_clean_linker_0, # of connection points: 2
#     Edge 32, Type (0, 0), BuildingBlock: MIFKUJ_clean_linker_0, # of connection points: 2
#     Edge 33, Type (0, 0), BuildingBlock: MIFKUJ_clean_linker_0, # of connection points: 2
#     Edge 34, Type (0, 0), BuildingBlock: MIFKUJ_clean_linker_0, # of connection points: 2
#     Edge 35, Type (0, 0), BuildingBlock: MIFKUJ_clean_linker_0, # of connection points: 2
# Relax obj value: 0.122
# Max RMSD: 0.117
# Mean RMSD: 0.117
data_MOF--net-uol--node1-GALJAG_clean_sbu_0--edge1-MIFKUJ_clean_linker_0
_symmetry_space_group_name_H-M    P1
_symmetry_Int_Tables_number       1
_symmetry_cell_setting            triclinic
loop_
_symmetry_equiv_pos_as_xyz
'x, y, z'
_cell_length_a     44.749865
_cell_length_b     44.753485
_cell_length_c     77.535244
_cell_angle_alpha  90.001743
_cell_angle_beta   89.990008
_cell_angle_gamma 119.98908
loop_
_atom_site_label
_atom_site_type_symbol
_atom_site_fract_x
_atom_site_fract_y
_atom_site_fract_z
_atom_type_partial_charge
In0 In 0.17165 0.35882 0.0847 0.0
O1 O 0.11299 0.32366 0.08579 0.0
O2 O 0.14021 0.34073 0.10947 0.0
C3 C 0.18109 0.33786 0.05344 0.0
C4 C 0.17722 0.42139 0.0806 0.0
C5 C 0.21642 0.35102 0.10495 0.0
O6 O 0.15703 0.31844 0.06351 0.0
O7 O 0.19994 0.36819 0.05894 0.0
O8 O 0.2138 0.37781 0.10538 0.0
O9 O 0.19663 0.32846 0.09432 0.0
C10 C 0.11149 0.32332 0.10205 0.0
O11 O 0.20258 0.41782 0.08461 0.0
O12 O 0.14937 0.3935 0.07828 0.0
In13 In 0.80659 0.17255 0.25163 0.0
O14 O 0.79008 0.11559 0.25566 0.0
O15 O 0.79097 0.14501 0.2774 0.0
C16 C 0.8312 0.17982 0.21918 0.0
C17 C 0.74861 0.17636 0.24802 0.0
C18 C 0.86412 0.218 0.26881 0.0
O19 O 0.82664 0.15518 0.22885 0.0
O20 O 0.82203 0.19986 0.22565 0.0
O21 O 0.8357 0.21715 0.27078 0.0
O22 O 0.86333 0.19632 0.2582 0.0
C23 C 0.78522 0.11623 0.27169 0.0
O24 O 0.77755 0.20248 0.25129 0.0
O25 O 0.74906 0.14854 0.24634 0.0
In26 In 0.62462 0.80699 0.42527 0.0
O27 O 0.66438 0.78896 0.42665 0.0
O28 O 0.6269 0.77365 0.44661 0.0
C29 C 0.64939 0.84693 0.39677 0.0
C30 C 0.55961 0.7554 0.41882 0.0
C31 C 0.64145 0.85646 0.44923 0.0
O32 O 0.65554 0.82285 0.3999 0.0
O33 O 0.63025 0.85003 0.40766 0.0
O34 O 0.61268 0.8424 0.44158 0.0
O35 O 0.66149 0.84568 0.44474 0.0
C36 C 0.65279 0.7729 0.44069 0.0
O37 O 0.56657 0.77766 0.43041 0.0
O38 O 0.58528 0.75967 0.41015 0.0
In39 In 0.82245 0.62995 0.59097 0.0
O40 O 0.79055 0.57117 0.59353 0.0
O41 O 0.83594 0.59236 0.57823 0.0
C42 C 0.78039 0.62879 0.61623 0.0
C43 C 0.88749 0.66757 0.60327 0.0
C44 C 0.80903 0.65729 0.56283 0.0
O45 O 0.76906 0.61384 0.60194 0.0
O46 O 0.81269 0.64318 0.61796 0.0
O47 O 0.82142 0.63753 0.5616 0.0
O48 O 0.80461 0.66394 0.57807 0.0
C49 C 0.81059 0.56562 0.58438 0.0
O50 O 0.87454 0.6803 0.59325 0.0
O51 O 0.86783 0.63621 0.60686 0.0
In52 In 0.19917 0.83287 0.75129 0.0
O53 O 0.21529 0.89008 0.75352 0.0
O54 O 0.23323 0.86854 0.77252 0.0
C55 C 0.1654 0.81725 0.72086 0.0
C56 C 0.25251 0.82204 0.74573 0.0
C57 C 0.14519 0.7978 0.77285 0.0
O58 O 0.18216 0.84782 0.72645 0.0
O59 O 0.16642 0.79498 0.73042 0.0
O60 O 0.16478 0.78636 0.76847 0.0
O61 O 0.15301 0.82667 0.76644 0.0
C62 C 0.23255 0.89478 0.76715 0.0
O63 O 0.231 0.80747 0.75776 0.0
O64 O 0.2468 0.84168 0.73633 0.0
In65 In 0.37218 0.19222 0.92518 0.0
O66 O 0.35953 0.23514 0.92909 0.0
O67 O 0.31817 0.18333 0.93044 0.0
C68 C 0.35533 0.15624 0.89528 0.0
C69 C 0.4374 0.24645 0.92431 0.0
C70 C 0.36348 0.1482 0.95123 0.0
O71 O 0.34359 0.17576 0.89925 0.0
O72 O 0.37553 0.1552 0.90627 0.0
O73 O 0.37651 0.14757 0.93692 0.0
O74 O 0.35551 0.1714 0.95252 0.0
C75 C 0.32779 0.21501 0.9318 0.0
O76 O 0.42327 0.23041 0.93799 0.0
O77 O 0.41887 0.23491 0.91103 0.0
In78 In 0.63654 0.8304 0.74456 0.0
O79 O 0.59252 0.82917 0.729 0.0
O80 O 0.58407 0.81697 0.75566 0.0
C81 C 0.64685 0.78602 0.72526 0.0
C82 C 0.67899 0.89609 0.73401 0.0
C83 C 0.64862 0.81624 0.77682 0.0
O84 O 0.61941 0.78742 0.7243 0.0
O85 O 0.66878 0.807 0.73577 0.0
O86 O 0.66484 0.84625 0.77052 0.0
O87 O 0.62594 0.79394 0.76704 0.0
C88 C 0.57214 0.82086 0.74164 0.0
O89 O 0.65591 0.88855 0.74525 0.0
O90 O 0.68103 0.87075 0.72842 0.0
In91 In 0.80349 0.63707 0.9094 0.0
O92 O 0.79475 0.6833 0.90937 0.0
O93 O 0.76279 0.64054 0.89334 0.0
C94 C 0.84014 0.65331 0.93899 0.0
C95 C 0.74995 0.57268 0.91395 0.0
C96 C 0.85297 0.65319 0.88524 0.0
O97 O 0.82279 0.6673 0.93465 0.0
O98 O 0.83839 0.63083 0.92861 0.0
O99 O 0.83669 0.62367 0.892 0.0
O100 O 0.84408 0.67418 0.89054 0.0
C101 C 0.77065 0.67035 0.89843 0.0
O102 O 0.7676 0.58218 0.90027 0.0
O103 O 0.75938 0.59567 0.92543 0.0
In104 In 0.17251 0.7999 0.08111 0.0
O105 O 0.11509 0.78148 0.07732 0.0
O106 O 0.14531 0.78638 0.0552 0.0
C107 C 0.17965 0.8223 0.11395 0.0
C108 C 0.17756 0.74243 0.08328 0.0
C109 C 0.21718 0.85925 0.06502 0.0
O110 O 0.15451 0.81744 0.1046 0.0
O111 O 0.20032 0.81457 0.10692 0.0
O112 O 0.21707 0.83136 0.06234 0.0
O113 O 0.19507 0.85706 0.07577 0.0
C114 C 0.11606 0.77854 0.06115 0.0
O115 O 0.203 0.7715 0.07948 0.0
O116 O 0.14989 0.74255 0.08622 0.0
In117 In 0.36449 0.17017 0.24322 0.0
O118 O 0.4223 0.19746 0.23725 0.0
O119 O 0.40163 0.15335 0.25343 0.0
C120 C 0.35521 0.21291 0.22211 0.0
C121 C 0.33267 0.10858 0.22719 0.0
C122 C 0.339 0.17919 0.27327 0.0
O123 O 0.38019 0.22403 0.23252 0.0
O124 O 0.33515 0.18078 0.22256 0.0
O125 O 0.32035 0.15707 0.2622 0.0
O126 O 0.37051 0.19616 0.26936 0.0
C127 C 0.42783 0.17685 0.2459 0.0
O128 O 0.33059 0.11125 0.24334 0.0
O129 O 0.35103 0.13673 0.21939 0.0
In130 In 0.19203 0.36582 0.40771 0.0
O131 O 0.21803 0.42425 0.40399 0.0
O132 O 0.24283 0.40497 0.42018 0.0
C133 C 0.15358 0.36729 0.38127 0.0
C134 C 0.21654 0.32461 0.39685 0.0
C135 C 0.15198 0.34003 0.43624 0.0
O136 O 0.15265 0.37839 0.39612 0.0
O137 O 0.17497 0.35692 0.37962 0.0
O138 O 0.18411 0.36014 0.4372 0.0
O139 O 0.14057 0.3326 0.42109 0.0
C140 C 0.2437 0.43097 0.41335 0.0
O141 O 0.18728 0.31277 0.40377 0.0
O142 O 0.23359 0.35701 0.39584 0.0
In143 In 0.83195 0.19745 0.58473 0.0
O144 O 0.79795 0.22212 0.58428 0.0
O145 O 0.85196 0.255 0.58774 0.0
C146 C 0.78839 0.13949 0.56732 0.0
C147 C 0.88923 0.22215 0.56506 0.0
C148 C 0.82683 0.17379 0.61734 0.0
O149 O 0.7862 0.16651 0.56655 0.0
O150 O 0.81202 0.14172 0.57701 0.0
O151 O 0.84956 0.17619 0.60691 0.0
O152 O 0.80763 0.18457 0.61155 0.0
C153 C 0.82273 0.25251 0.5862 0.0
O154 O 0.89065 0.22281 0.58135 0.0
O155 O 0.85922 0.20929 0.55891 0.0
H156 H 0.12411 0.6764 0.08449 0.0
H157 H 0.12691 0.62335 0.08419 0.0
H158 H 0.23817 0.68306 0.08312 0.0
H159 H 0.2354 0.73638 0.08273 0.0
H160 H 0.21746 0.63218 0.06157 0.0
H161 H 0.19178 0.64067 0.12044 0.0
H162 H 0.16064 0.64797 0.14484 0.0
H163 H 0.0677 0.55641 0.12967 0.0
H164 H 0.09816 0.54882 0.10503 0.0
H165 H 0.23485 0.48516 0.08315 0.0
H166 H 0.23749 0.54121 0.08349 0.0
H167 H 0.12713 0.49027 0.07677 0.0
H168 H 0.12429 0.43427 0.07636 0.0
H169 H 0.15096 0.53804 0.10345 0.0
H170 H 0.17849 0.53186 0.04375 0.0
H171 H 0.21162 0.52518 0.02014 0.0
H172 H 0.30422 0.61355 0.03841 0.0
H173 H 0.27171 0.62047 0.06228 0.0
C174 C 0.14918 0.67824 0.08428 0.0
C175 C 0.17955 0.7105 0.08372 0.0
C176 C 0.15077 0.64788 0.0842 0.0
C177 C 0.18278 0.64915 0.08396 0.0
C178 C 0.21318 0.68141 0.08336 0.0
C179 C 0.21158 0.71184 0.0832 0.0
C180 C 0.18433 0.61674 0.08391 0.0
C181 C 0.20337 0.61185 0.07092 0.0
C182 C 0.16561 0.58994 0.09595 0.0
C183 C 0.14721 0.59435 0.1108 0.0
C184 C 0.16464 0.62223 0.12224 0.0
C185 C 0.14712 0.62639 0.13612 0.0
C186 C 0.1122 0.60271 0.13878 0.0
C187 C 0.09474 0.57475 0.12758 0.0
C188 C 0.11214 0.57048 0.11367 0.0
C189 C 0.21121 0.48597 0.08159 0.0
C190 C 0.17936 0.45538 0.07971 0.0
C191 C 0.21277 0.51797 0.08177 0.0
C192 C 0.1825 0.51984 0.08011 0.0
C193 C 0.15075 0.48934 0.07808 0.0
C194 C 0.14921 0.45741 0.07778 0.0
C195 C 0.18364 0.55346 0.08101 0.0
C196 C 0.16517 0.55853 0.09419 0.0
C197 C 0.20322 0.58053 0.06929 0.0
C198 C 0.22274 0.57645 0.05491 0.0
C199 C 0.20598 0.54969 0.04282 0.0
C200 C 0.22463 0.54589 0.02937 0.0
C201 C 0.26002 0.56886 0.0278 0.0
C202 C 0.27682 0.59574 0.03965 0.0
C203 C 0.25829 0.59963 0.05314 0.0
H204 H 0.27442 0.56588 0.01738 0.0
H205 H 0.09867 0.60599 0.14953 0.0
H206 H 0.68277 0.12291 0.2504 0.0
H207 H 0.62953 0.12534 0.24948 0.0
H208 H 0.68853 0.23546 0.24136 0.0
H209 H 0.74207 0.23328 0.24319 0.0
H210 H 0.64065 0.22324 0.26283 0.0
H211 H 0.64108 0.17523 0.20808 0.0
H212 H 0.64523 0.13547 0.18748 0.0
H213 H 0.55639 0.04983 0.21047 0.0
H214 H 0.55197 0.08903 0.23136 0.0
H215 H 0.49006 0.23035 0.23551 0.0
H216 H 0.54597 0.23255 0.23552 0.0
H217 H 0.49793 0.13009 0.25712 0.0
H218 H 0.44216 0.12791 0.25741 0.0
H219 H 0.54091 0.14122 0.22729 0.0
H220 H 0.54351 0.19269 0.28266 0.0
H221 H 0.54002 0.23499 0.30169 0.0
H222 H 0.62469 0.31791 0.27473 0.0
H223 H 0.62835 0.27608 0.25536 0.0
C224 C 0.68436 0.14761 0.24834 0.0
C225 C 0.7165 0.17789 0.24678 0.0
C226 C 0.65388 0.14897 0.24771 0.0
C227 C 0.65485 0.1805 0.24499 0.0
C228 C 0.68704 0.21081 0.24343 0.0
C229 C 0.7176 0.20954 0.24441 0.0
C230 C 0.62231 0.18185 0.24427 0.0
C231 C 0.61911 0.20566 0.25481 0.0
C232 C 0.5939 0.15873 0.23397 0.0
C233 C 0.59638 0.13505 0.22138 0.0
C234 C 0.62257 0.14789 0.20882 0.0
C235 C 0.62494 0.12546 0.19708 0.0
C236 C 0.60113 0.09014 0.19769 0.0
C237 C 0.57483 0.07719 0.21002 0.0
C238 C 0.57236 0.09951 0.2218 0.0
C239 C 0.4915 0.20841 0.24036 0.0
C240 C 0.46182 0.17898 0.2465 0.0
C241 C 0.5234 0.20972 0.24037 0.0
C242 C 0.52598 0.18148 0.24633 0.0
C243 C 0.49639 0.15211 0.25245 0.0
C244 C 0.46463 0.15097 0.25268 0.0
C245 C 0.55941 0.18223 0.24594 0.0
C246 C 0.56268 0.15887 0.23517 0.0
C247 C 0.58804 0.20617 0.25576 0.0
C248 C 0.58594 0.23128 0.26744 0.0
C249 C 0.56117 0.21996 0.28069 0.0
C250 C 0.55921 0.24384 0.29156 0.0
C251 C 0.58205 0.27912 0.28939 0.0
C252 C 0.60698 0.29058 0.27637 0.0
C253 C 0.60902 0.2668 0.26546 0.0
H254 H 0.5805 0.29758 0.29782 0.0
H255 H 0.60302 0.07281 0.1886 0.0
H256 H 0.50019 0.74223 0.43515 0.0
H257 H 0.44398 0.68938 0.4337 0.0
H258 H 0.48457 0.64687 0.39665 0.0
H259 H 0.54055 0.69996 0.39773 0.0
H260 H 0.42091 0.62949 0.38822 0.0
H261 H 0.4787 0.62609 0.43958 0.0
H262 H 0.509 0.64752 0.46731 0.0
H263 H 0.42018 0.64712 0.48857 0.0
H264 H 0.3895 0.62609 0.46087 0.0
H265 H 0.30455 0.44995 0.42964 0.0
H266 H 0.35605 0.50711 0.43035 0.0
H267 H 0.30193 0.54877 0.40218 0.0
H268 H 0.25054 0.49133 0.40103 0.0
H269 H 0.37193 0.5671 0.44317 0.0
H270 H 0.35793 0.6119 0.37511 0.0
H271 H 0.33202 0.58659 0.34692 0.0
H272 H 0.34059 0.49726 0.35831 0.0
H273 H 0.36695 0.52224 0.38644 0.0
C274 C 0.49698 0.72178 0.42653 0.0
C275 C 0.5248 0.72511 0.41663 0.0
C276 C 0.46491 0.69155 0.42577 0.0
C277 C 0.46022 0.66393 0.41529 0.0
C278 C 0.48759 0.66781 0.40486 0.0
C279 C 0.51959 0.69813 0.40551 0.0
C280 C 0.4274 0.63042 0.41578 0.0
C281 C 0.41009 0.61595 0.40024 0.0
C282 C 0.41364 0.61236 0.43142 0.0
C283 C 0.43195 0.62488 0.4481 0.0
C284 C 0.46573 0.63082 0.45013 0.0
C285 C 0.48296 0.64285 0.46585 0.0
C286 C 0.46656 0.64877 0.47968 0.0
C287 C 0.43287 0.64258 0.47783 0.0
C288 C 0.41554 0.63058 0.46213 0.0
C289 C 0.30353 0.47133 0.42371 0.0
C290 C 0.27361 0.46614 0.41518 0.0
C291 C 0.33297 0.50402 0.42415 0.0
C292 C 0.33305 0.53217 0.41612 0.0
C293 C 0.3027 0.52731 0.40819 0.0
C294 C 0.2733 0.49453 0.40762 0.0
C295 C 0.36526 0.56624 0.41562 0.0
C296 C 0.3825 0.58082 0.43116 0.0
C297 C 0.37951 0.58387 0.39992 0.0
C298 C 0.36402 0.56878 0.38295 0.0
C299 C 0.35436 0.5869 0.37156 0.0
C300 C 0.3396 0.57261 0.3556 0.0
C301 C 0.33455 0.54028 0.35085 0.0
C302 C 0.34438 0.52224 0.36203 0.0
C303 C 0.3592 0.53643 0.37799 0.0
H304 H 0.32309 0.52925 0.3385 0.0
H305 H 0.47993 0.65808 0.49184 0.0
H306 H 0.85632 0.54959 0.57008 0.0
H307 H 0.85225 0.49326 0.56894 0.0
H308 H 0.75126 0.44674 0.59232 0.0
H309 H 0.75582 0.50355 0.59406 0.0
H310 H 0.78699 0.42383 0.60757 0.0
H311 H 0.76353 0.43351 0.54884 0.0
H312 H 0.77146 0.46046 0.52022 0.0
H313 H 0.86933 0.46538 0.51488 0.0
H314 H 0.86223 0.4389 0.54358 0.0
H315 H 0.76294 0.25419 0.5903 0.0
H316 H 0.75561 0.30498 0.58896 0.0
H317 H 0.86455 0.36982 0.57941 0.0
H318 H 0.87222 0.31942 0.58111 0.0
H319 H 0.81762 0.37885 0.5561 0.0
H320 H 0.84066 0.37296 0.61686 0.0
H321 H 0.82965 0.34391 0.64508 0.0
H322 H 0.72701 0.32875 0.64544 0.0
H323 H 0.73727 0.35729 0.61708 0.0
C324 C 0.83305 0.52731 0.57478 0.0
C325 C 0.80636 0.53094 0.58215 0.0
C326 C 0.83066 0.49503 0.57404 0.0
C327 C 0.80123 0.46557 0.58033 0.0
C328 C 0.7742 0.46906 0.58736 0.0
C329 C 0.77676 0.50148 0.5883 0.0
C330 C 0.79984 0.43168 0.5805 0.0
C331 C 0.79299 0.41371 0.5962 0.0
C332 C 0.80802 0.41849 0.56574 0.0
C333 C 0.81245 0.43444 0.54844 0.0
C334 C 0.78687 0.44057 0.54162 0.0
C335 C 0.7912 0.45573 0.52537 0.0
C336 C 0.82091 0.46469 0.51575 0.0
C337 C 0.84633 0.45844 0.52235 0.0
C338 C 0.84215 0.44332 0.5386 0.0
C339 C 0.78531 0.27931 0.58799 0.0
C340 C 0.81816 0.28295 0.58587 0.0
C341 C 0.78108 0.30821 0.58723 0.0
C342 C 0.80955 0.34101 0.58406 0.0
C343 C 0.8423 0.34465 0.58182 0.0
C344 C 0.84665 0.31591 0.58289 0.0
C345 C 0.80539 0.37173 0.58315 0.0
C346 C 0.81118 0.38895 0.56734 0.0
C347 C 0.79571 0.38392 0.5977 0.0
C348 C 0.78958 0.36686 0.61476 0.0
C349 C 0.81562 0.36312 0.62287 0.0
C350 C 0.80955 0.34682 0.63891 0.0
C351 C 0.77761 0.33438 0.64702 0.0
C352 C 0.75172 0.33832 0.63913 0.0
C353 C 0.75765 0.35457 0.62308 0.0
H354 H 0.77296 0.32178 0.65944 0.0
H355 H 0.82421 0.47642 0.50317 0.0
H356 H 0.52123 0.7955 0.76591 0.0
H357 H 0.46503 0.79217 0.76432 0.0
H358 H 0.48893 0.83533 0.71306 0.0
H359 H 0.54519 0.83853 0.71452 0.0
H360 H 0.46431 0.86785 0.73513 0.0
H361 H 0.43242 0.75301 0.7172 0.0
H362 H 0.42943 0.69664 0.71958 0.0
H363 H 0.37451 0.67716 0.76746 0.0
H364 H 0.3776 0.73366 0.76549 0.0
H365 H 0.299 0.84601 0.71927 0.0
H366 H 0.35151 0.84232 0.7165 0.0
H367 H 0.3281 0.78628 0.76452 0.0
H368 H 0.27507 0.78902 0.7671 0.0
H369 H 0.35247 0.75944 0.74231 0.0
H370 H 0.38712 0.87374 0.76213 0.0
H371 H 0.3911 0.93072 0.76149 0.0
H372 H 0.4419 0.9521 0.71232 0.0
H373 H 0.43782 0.89503 0.71257 0.0
C374 C 0.51441 0.80403 0.75425 0.0
C375 C 0.53756 0.81726 0.74033 0.0
C376 C 0.48227 0.80202 0.75334 0.0
C377 C 0.47279 0.81333 0.73853 0.0
C378 C 0.49578 0.82642 0.72458 0.0
C379 C 0.52782 0.82812 0.72542 0.0
C380 C 0.43938 0.81269 0.73793 0.0
C381 C 0.43978 0.84411 0.73638 0.0
C382 C 0.40755 0.78178 0.74009 0.0
C383 C 0.40551 0.74771 0.74126 0.0
C384 C 0.41995 0.73683 0.72831 0.0
C385 C 0.41819 0.70483 0.72957 0.0
C386 C 0.40186 0.68337 0.74368 0.0
C387 C 0.38718 0.69383 0.75654 0.0
C388 C 0.38889 0.72582 0.75535 0.0
C389 C 0.30493 0.83267 0.72916 0.0
C390 C 0.28306 0.81798 0.74345 0.0
C391 C 0.33502 0.83072 0.72761 0.0
C392 C 0.34409 0.81455 0.74046 0.0
C393 C 0.3217 0.79895 0.75447 0.0
C394 C 0.29144 0.8006 0.75594 0.0
C395 C 0.37732 0.81468 0.73958 0.0
C396 C 0.37693 0.78319 0.7409 0.0
C397 C 0.40925 0.8456 0.73745 0.0
C398 C 0.41182 0.87997 0.73728 0.0
C399 C 0.3989 0.89049 0.75112 0.0
C400 C 0.40121 0.92281 0.75084 0.0
C401 C 0.41665 0.94497 0.73685 0.0
C402 C 0.42989 0.93489 0.72313 0.0
C403 C 0.42761 0.90256 0.72334 0.0
H404 H 0.41842 0.96999 0.73665 0.0
H405 H 0.40053 0.6586 0.74464 0.0
H406 H 0.47639 0.28322 0.95183 0.0
H407 H 0.53192 0.3371 0.95123 0.0
H408 H 0.53207 0.33349 0.89564 0.0
H409 H 0.47636 0.27979 0.89612 0.0
H410 H 0.59692 0.35156 0.91144 0.0
H411 H 0.50815 0.38312 0.91313 0.0
H412 H 0.45662 0.38202 0.92519 0.0
H413 H 0.50975 0.42266 0.9731 0.0
H414 H 0.56146 0.42349 0.96139 0.0
H415 H 0.719 0.52308 0.88933 0.0
H416 H 0.66813 0.46598 0.8925 0.0
H417 H 0.66274 0.4857 0.94658 0.0
H418 H 0.71306 0.54345 0.94332 0.0
H419 H 0.60144 0.45796 0.9333 0.0
H420 H 0.69115 0.42998 0.932 0.0
H421 H 0.74294 0.4302 0.92098 0.0
H422 H 0.68954 0.38199 0.87408 0.0
H423 H 0.63754 0.38192 0.88472 0.0
C424 C 0.48842 0.29375 0.93949 0.0
C425 C 0.47203 0.27744 0.92401 0.0
C426 C 0.52004 0.32452 0.93917 0.0
C427 C 0.53589 0.33929 0.92339 0.0
C428 C 0.5202 0.32243 0.90794 0.0
C429 C 0.48837 0.29187 0.90824 0.0
C430 C 0.56812 0.37309 0.92294 0.0
C431 C 0.59796 0.37494 0.91606 0.0
C432 C 0.56951 0.40327 0.92945 0.0
C433 C 0.53853 0.403 0.93645 0.0
C434 C 0.50874 0.39153 0.92629 0.0
C435 C 0.47952 0.39101 0.93305 0.0
C436 C 0.47987 0.40217 0.94992 0.0
C437 C 0.50949 0.41396 0.96004 0.0
C438 C 0.53877 0.41448 0.95335 0.0
C439 C 0.70709 0.51517 0.90192 0.0
C440 C 0.72001 0.53767 0.91609 0.0
C441 C 0.67811 0.48243 0.90374 0.0
C442 C 0.66188 0.47126 0.91985 0.0
C443 C 0.67487 0.49369 0.93404 0.0
C444 C 0.70364 0.52664 0.93218 0.0
C445 C 0.63056 0.43673 0.92167 0.0
C446 C 0.60073 0.43466 0.9288 0.0
C447 C 0.62933 0.40629 0.91555 0.0
C448 C 0.66053 0.40622 0.90911 0.0
C449 C 0.69052 0.41966 0.91928 0.0
C450 C 0.71991 0.41972 0.91311 0.0
C451 C 0.71956 0.40619 0.89682 0.0
C452 C 0.68978 0.3925 0.88669 0.0
C453 C 0.66033 0.3924 0.89279 0.0
H454 H 0.74233 0.40626 0.89207 0.0
H455 H 0.45723 0.40175 0.95513 0.0
H456 H 0.38203 0.283 0.22367 0.0
H457 H 0.37016 0.31871 0.20377 0.0
H458 H 0.30501 0.22848 0.17335 0.0
H459 H 0.31608 0.19282 0.19321 0.0
H460 H 0.35297 0.2889 0.15383 0.0
H461 H 0.26776 0.25279 0.20048 0.0
H462 H 0.25133 0.25019 0.23105 0.0
H463 H 0.30535 0.36087 0.23346 0.0
H464 H 0.3225 0.36408 0.20294 0.0
H465 H 0.22578 0.29555 0.10574 0.0
H466 H 0.26159 0.28475 0.12553 0.0
H467 H 0.29583 0.3834 0.14982 0.0
H468 H 0.25936 0.39419 0.13008 0.0
H469 H 0.27767 0.33425 0.17346 0.0
H470 H 0.352 0.37093 0.1254 0.0
H471 H 0.36962 0.37517 0.09497 0.0
H472 H 0.34037 0.26802 0.09505 0.0
H473 H 0.32206 0.26296 0.12541 0.0
C474 C 0.36535 0.27094 0.21267 0.0
C475 C 0.34979 0.23517 0.21 0.0
C476 C 0.35863 0.2913 0.20136 0.0
C477 C 0.33677 0.27614 0.18712 0.0
C478 C 0.32207 0.24063 0.18423 0.0
C479 C 0.32825 0.22028 0.19564 0.0
C480 C 0.32747 0.29643 0.17552 0.0
C481 C 0.33659 0.29896 0.15806 0.0
C482 C 0.30725 0.31066 0.18125 0.0
C483 C 0.2968 0.30867 0.19953 0.0
C484 C 0.2764 0.27656 0.20758 0.0
C485 C 0.2669 0.27497 0.22488 0.0
C486 C 0.2774 0.30534 0.23421 0.0
C487 C 0.29732 0.33736 0.22623 0.0
C488 C 0.30693 0.33908 0.20894 0.0
C489 C 0.24115 0.31512 0.11518 0.0
C490 C 0.23978 0.34572 0.11636 0.0
C491 C 0.26182 0.30902 0.12643 0.0
C492 C 0.28183 0.3335 0.139 0.0
C493 C 0.28075 0.36426 0.14015 0.0
C494 C 0.25998 0.3704 0.12886 0.0
C495 C 0.30195 0.32551 0.15152 0.0
C496 C 0.29489 0.32524 0.16918 0.0
C497 C 0.32445 0.31374 0.14599 0.0
C498 C 0.3355 0.31655 0.1277 0.0
C499 C 0.34909 0.3482 0.1189 0.0
C500 C 0.35924 0.35075 0.10166 0.0
C501 C 0.35608 0.32187 0.09307 0.0
C502 C 0.34281 0.29038 0.10172 0.0
C503 C 0.3326 0.28767 0.11896 0.0
H504 H 0.36394 0.3239 0.07972 0.0
H505 H 0.27001 0.30407 0.2476 0.0
H506 H 0.92819 0.22685 0.26428 0.0
H507 H 0.97896 0.25976 0.28232 0.0
H508 H 0.92211 0.29336 0.31404 0.0
H509 H 0.87096 0.26063 0.29579 0.0
H510 H 0.99028 0.34534 0.30867 0.0
H511 H 0.92955 0.22802 0.32744 0.0
H512 H 0.90012 0.16482 0.32413 0.0
H513 H 0.99391 0.17228 0.30538 0.0
H514 H 0.02377 0.23563 0.30828 0.0
H515 H 0.10074 0.38126 0.38286 0.0
H516 H 0.0536 0.36361 0.36212 0.0
H517 H 0.10225 0.32391 0.32836 0.0
H518 H 0.14921 0.34117 0.34905 0.0
H519 H 0.03638 0.27614 0.33569 0.0
H520 H 0.09705 0.39486 0.31743 0.0
H521 H 0.12533 0.45785 0.32145 0.0
H522 H 0.03063 0.44746 0.34073 0.0
H523 H 0.00188 0.38432 0.33705 0.0
C524 C 0.92653 0.24153 0.27498 0.0
C525 C 0.89551 0.24087 0.27876 0.0
C526 C 0.95557 0.26031 0.28528 0.0
C527 C 0.9541 0.27852 0.29967 0.0
C528 C 0.9237 0.27937 0.30301 0.0
C529 C 0.89453 0.26061 0.29262 0.0
C530 C 0.98366 0.29456 0.31176 0.0
C531 C 0.00017 0.33023 0.31477 0.0
C532 C 0.99664 0.27478 0.31958 0.0
C533 C 0.97882 0.23663 0.31793 0.0
C534 C 0.94384 0.21622 0.32248 0.0
C535 C 0.92708 0.18035 0.3207 0.0
C536 C 0.94512 0.16454 0.31453 0.0
C537 C 0.97996 0.18457 0.31015 0.0
C538 C 0.99682 0.22046 0.31187 0.0
C539 C 0.10176 0.36947 0.37084 0.0
C540 C 0.12853 0.36239 0.36761 0.0
C541 C 0.07484 0.35946 0.35899 0.0
C542 C 0.07441 0.34241 0.34371 0.0
C543 C 0.10205 0.33695 0.34009 0.0
C544 C 0.12892 0.34693 0.35191 0.0
C545 C 0.04368 0.32715 0.33232 0.0
C546 C 0.02666 0.2914 0.32957 0.0
C547 C 0.03017 0.34686 0.32494 0.0
C548 C 0.04741 0.38482 0.32712 0.0
C549 C 0.08232 0.40597 0.32267 0.0
C550 C 0.09843 0.44171 0.32485 0.0
C551 C 0.07981 0.45664 0.33138 0.0
C552 C 0.04503 0.43586 0.3357 0.0
C553 C 0.02881 0.4001 0.33354 0.0
H554 H 0.09232 0.48432 0.33307 0.0
H555 H 0.93212 0.13678 0.31315 0.0
H556 H 0.7365 0.12833 0.54486 0.0
H557 H 0.70568 0.07913 0.52523 0.0
H558 H 0.76199 0.0324 0.54608 0.0
H559 H 0.79265 0.08112 0.56566 0.0
H560 H 0.76535 0.03871 0.51022 0.0
H561 H 0.67941 0.99939 0.55567 0.0
H562 H 0.63888 0.00483 0.57519 0.0
H563 H 0.58435 0.0134 0.53164 0.0
H564 H 0.62489 0.0085 0.51186 0.0
H565 H 0.6909 0.87556 0.47371 0.0
H566 H 0.71022 0.92283 0.49431 0.0
H567 H 0.63516 0.94754 0.47427 0.0
H568 H 0.61456 0.89892 0.45409 0.0
H569 H 0.63945 0.95615 0.5078 0.0
H570 H 0.72162 0.99401 0.46219 0.0
H571 H 0.76199 0.99103 0.44156 0.0
H572 H 0.82391 0.98957 0.48349 0.0
H573 H 0.78365 0.99206 0.50439 0.0
C574 C 0.74191 0.1073 0.5454 0.0
C575 C 0.76709 0.10861 0.55672 0.0
C576 C 0.72427 0.07925 0.53422 0.0
C577 C 0.73165 0.05222 0.53422 0.0
C578 C 0.75603 0.05307 0.54587 0.0
C579 C 0.77346 0.0809 0.55707 0.0
C580 C 0.71587 0.02406 0.52139 0.0
C581 C 0.73786 0.02041 0.50979 0.0
C582 C 0.67987 0.00122 0.52039 0.0
C583 C 0.65541 0.00396 0.53229 0.0
C584 C 0.65897 0.00274 0.55026 0.0
C585 C 0.63595 0.00566 0.56137 0.0
C586 C 0.60911 0.00956 0.55466 0.0
C587 C 0.60518 0.01043 0.53682 0.0
C588 C 0.62815 0.00756 0.52566 0.0
C589 C 0.67838 0.89095 0.47377 0.0
C590 C 0.65152 0.88389 0.46221 0.0
C591 C 0.68953 0.91806 0.48549 0.0
C592 C 0.67478 0.93936 0.48553 0.0
C593 C 0.64708 0.93161 0.47439 0.0
C594 C 0.6354 0.90393 0.46286 0.0
C595 C 0.68911 0.97013 0.49692 0.0
C596 C 0.66692 0.9745 0.50814 0.0
C597 C 0.72497 0.99414 0.4974 0.0
C598 C 0.74946 0.99298 0.48486 0.0
C599 C 0.74374 0.99285 0.46702 0.0
C600 C 0.76662 0.99127 0.45527 0.0
C601 C 0.79546 0.99005 0.46121 0.0
C602 C 0.80155 0.9905 0.47891 0.0
C603 C 0.77873 0.99205 0.49071 0.0
H604 H 0.81314 0.98881 0.4521 0.0
H605 H 0.59132 0.01181 0.56329 0.0
H606 H 0.79913 0.65804 0.64806 0.0
H607 H 0.76547 0.67254 0.66755 0.0
H608 H 0.67839 0.62386 0.63301 0.0
H609 H 0.71218 0.60947 0.6133 0.0
H610 H 0.69337 0.68814 0.64115 0.0
H611 H 0.67406 0.58903 0.67249 0.0
H612 H 0.68895 0.54898 0.68676 0.0
H613 H 0.7536 0.62825 0.72264 0.0
H614 H 0.73951 0.66896 0.70844 0.0
H615 H 0.60538 0.74031 0.70051 0.0
H616 H 0.61779 0.70231 0.68282 0.0
H617 H 0.71527 0.74018 0.70894 0.0
H618 H 0.70294 0.77774 0.72668 0.0
H619 H 0.6832 0.67094 0.70455 0.0
H620 H 0.7105 0.77171 0.6698 0.0
H621 H 0.69721 0.81269 0.65523 0.0
H622 H 0.61811 0.72988 0.62557 0.0
H623 H 0.63066 0.68834 0.64015 0.0
C624 C 0.77259 0.64981 0.64476 0.0
C625 C 0.75831 0.63272 0.62914 0.0
C626 C 0.7533 0.65797 0.65596 0.0
C627 C 0.71931 0.64909 0.65179 0.0
C628 C 0.70454 0.63087 0.63649 0.0
C629 C 0.72382 0.62257 0.62529 0.0
C630 C 0.70077 0.66193 0.66263 0.0
C631 C 0.69032 0.68364 0.65496 0.0
C632 C 0.69733 0.65655 0.68067 0.0
C633 C 0.70585 0.63213 0.68932 0.0
C634 C 0.69165 0.59802 0.68335 0.0
C635 C 0.69992 0.57517 0.69144 0.0
C636 C 0.72224 0.58607 0.70558 0.0
C637 C 0.7363 0.61984 0.71168 0.0
C638 C 0.72814 0.6428 0.70363 0.0
C639 C 0.62935 0.74034 0.70252 0.0
C640 C 0.6533 0.76214 0.71489 0.0
C641 C 0.63641 0.71868 0.69241 0.0
C642 C 0.66756 0.7186 0.6945 0.0
C643 C 0.69104 0.73974 0.70715 0.0
C644 C 0.68404 0.76135 0.71721 0.0
C645 C 0.67678 0.69781 0.68311 0.0
C646 C 0.68551 0.6747 0.69068 0.0
C647 C 0.67873 0.70194 0.66498 0.0
C648 C 0.6712 0.72688 0.65622 0.0
C649 C 0.69008 0.76221 0.66028 0.0
C650 C 0.68272 0.78554 0.652 0.0
C651 C 0.65675 0.77388 0.63953 0.0
C652 C 0.63815 0.73887 0.63527 0.0
C653 C 0.64538 0.71542 0.64353 0.0
H654 H 0.65109 0.79198 0.63312 0.0
H655 H 0.72862 0.56835 0.71183 0.0
H656 H 0.8829 0.61574 0.87482 0.0
H657 H 0.93116 0.63386 0.8546 0.0
H658 H 0.93423 0.73084 0.84698 0.0
H659 H 0.88623 0.71299 0.86707 0.0
H660 H 0.93917 0.70215 0.81651 0.0
H661 H 0.99061 0.72654 0.87343 0.0
H662 H 0.99802 0.71121 0.90305 0.0
H663 H 0.02487 0.63815 0.88315 0.0
H664 H 0.01714 0.65273 0.8534 0.0
H665 H 0.10195 0.81951 0.78443 0.0
H666 H 0.05098 0.78821 0.80253 0.0
H667 H 0.06857 0.70191 0.80507 0.0
H668 H 0.12027 0.73352 0.78704 0.0
H669 H 0.05086 0.7162 0.83648 0.0
H670 H 0.00605 0.69708 0.77929 0.0
H671 H 0.99907 0.71308 0.74975 0.0
H672 H 0.95943 0.77577 0.76992 0.0
H673 H 0.96665 0.76056 0.79959 0.0
C674 C 0.89379 0.64083 0.86874 0.0
C675 C 0.88092 0.66302 0.87253 0.0
C676 C 0.92137 0.65116 0.85726 0.0
C677 C 0.93635 0.68377 0.84939 0.0
C678 C 0.92299 0.70557 0.8529 0.0
C679 C 0.89565 0.69537 0.86442 0.0
C680 C 0.96646 0.69582 0.83776 0.0
C681 C 0.96364 0.70537 0.82087 0.0
C682 C 0.99804 0.69901 0.84334 0.0
C683 C 0.0029 0.69041 0.86121 0.0
C684 C 0.99782 0.707 0.87538 0.0
C685 C 0.00212 0.69849 0.89219 0.0
C686 C 0.0118 0.67364 0.89498 0.0
C687 C 0.0173 0.65734 0.88097 0.0
C688 C 0.01298 0.66572 0.86413 0.0
C689 C 0.09506 0.79389 0.78884 0.0
C690 C 0.11497 0.77886 0.78424 0.0
C691 C 0.06582 0.77596 0.79913 0.0
C692 C 0.05564 0.74249 0.80489 0.0
C693 C 0.07589 0.72765 0.80067 0.0
C694 C 0.10532 0.74568 0.79036 0.0
C695 C 0.02381 0.72338 0.81534 0.0
C696 C 0.02626 0.71245 0.83198 0.0
C697 C 0.99181 0.71885 0.80954 0.0
C698 C 0.9871 0.72783 0.79168 0.0
C699 C 0.99605 0.71445 0.77743 0.0
C700 C 0.99202 0.72336 0.76066 0.0
C701 C 0.97886 0.74547 0.75796 0.0
C702 C 0.96962 0.75865 0.77203 0.0
C703 C 0.97363 0.74985 0.78883 0.0
H704 H 0.97578 0.75235 0.74496 0.0
H705 H 0.01513 0.66709 0.90801 0.0
H706 H 0.22648 0.92301 0.07162 0.0
H707 H 0.25822 0.97512 0.05423 0.0
H708 H 0.28973 0.9206 0.01954 0.0
H709 H 0.25837 0.86832 0.03711 0.0
H710 H 0.34159 0.98755 0.02491 0.0
H711 H 0.22135 0.92852 0.00965 0.0
H712 H 0.15888 0.90076 0.01536 0.0
H713 H 0.17235 0.99574 0.03602 0.0
H714 H 0.23502 0.02395 0.03067 0.0
H715 H 0.37297 0.09252 0.95016 0.0
H716 H 0.35466 0.04658 0.97161 0.0
H717 H 0.31833 0.09951 0.00455 0.0
H718 H 0.33597 0.14516 0.983 0.0
H719 H 0.27045 0.03416 0.00078 0.0
H720 H 0.39092 0.09423 0.01459 0.0
H721 H 0.45328 0.12162 0.00868 0.0
H722 H 0.43969 0.02506 0.99034 0.0
H723 H 0.37715 0.99718 0.99593 0.0
C724 C 0.24049 0.9222 0.06039 0.0
C725 C 0.2396 0.8915 0.05557 0.0
C726 C 0.25859 0.95198 0.05047 0.0
C727 C 0.27578 0.95153 0.03542 0.0
C728 C 0.2765 0.92143 0.03107 0.0
C729 C 0.25852 0.8916 0.04108 0.0
C730 C 0.29087 0.98167 0.02365 0.0
C731 C 0.32605 0.9976 0.01948 0.0
C732 C 0.27063 0.99508 0.01682 0.0
C733 C 0.23291 0.97825 0.01992 0.0
C734 C 0.21102 0.94342 0.01553 0.0
C735 C 0.17558 0.92761 0.01868 0.0
C736 C 0.16167 0.94645 0.02609 0.0
C737 C 0.18317 0.98117 0.03031 0.0
C738 C 0.21865 0.99709 0.02721 0.0
C739 C 0.36151 0.09458 0.96208 0.0
C740 C 0.35581 0.12236 0.96489 0.0
C741 C 0.3512 0.06839 0.97437 0.0
C742 C 0.33534 0.06971 0.98976 0.0
C743 C 0.33053 0.09796 0.99278 0.0
C744 C 0.34069 0.12406 0.98047 0.0
C745 C 0.32138 0.04043 0.00209 0.0
C746 C 0.28622 0.02442 0.0063 0.0
C747 C 0.34166 0.027 0.00887 0.0
C748 C 0.37928 0.04369 0.00553 0.0
C749 C 0.40118 0.07889 0.00917 0.0
C750 C 0.43657 0.0945 0.0059 0.0
C751 C 0.45042 0.07512 0.9991 0.0
C752 C 0.42892 0.04006 0.99559 0.0
C753 C 0.3935 0.02433 0.99883 0.0
H754 H 0.47783 0.08725 0.99658 0.0
H755 H 0.13422 0.93416 0.02852 0.0
H756 H 0.23246 0.37446 0.03016 0.0
H757 H 0.24872 0.35186 0.00538 0.0
H758 H 0.1631 0.25005 0.01559 0.0
H759 H 0.14688 0.27245 0.0405 0.0
H760 H 0.22224 0.24924 0.01225 0.0
H761 H 0.16302 0.29464 0.9801 0.0
H762 H 0.14825 0.33839 0.97088 0.0
H763 H 0.25198 0.4036 0.95301 0.0
H764 H 0.26753 0.36044 0.96236 0.0
H765 H 0.26044 0.17626 0.94171 0.0
H766 H 0.22679 0.19597 0.95809 0.0
H767 H 0.3103 0.30104 0.9541 0.0
H768 H 0.34395 0.28159 0.93757 0.0
H769 H 0.24613 0.29653 0.95276 0.0
H770 H 0.30667 0.25493 0.98803 0.0
H771 H 0.32251 0.21188 0.99717 0.0
H772 H 0.21666 0.14045 0.00955 0.0
H773 H 0.2001 0.18292 0.00018 0.0
C774 C 0.21677 0.34737 0.02696 0.0
C775 C 0.18847 0.32519 0.0373 0.0
C776 C 0.226 0.33451 0.01274 0.0
C777 C 0.20701 0.29928 0.00857 0.0
C778 C 0.17809 0.27731 0.01857 0.0
C779 C 0.16882 0.29017 0.03277 0.0
C780 C 0.21907 0.28493 0.99472 0.0
C781 C 0.22672 0.25908 0.99915 0.0
C782 C 0.22575 0.29836 0.97774 0.0
C783 C 0.21651 0.32439 0.97206 0.0
C784 C 0.18277 0.31842 0.97433 0.0
C785 C 0.17424 0.3431 0.96906 0.0
C786 C 0.19918 0.37379 0.9614 0.0
C787 C 0.23269 0.37982 0.95896 0.0
C788 C 0.24137 0.35524 0.96423 0.0
C789 C 0.2713 0.20365 0.94395 0.0
C790 C 0.305 0.22735 0.93856 0.0
C791 C 0.25207 0.21485 0.95334 0.0
C792 C 0.26632 0.24988 0.95756 0.0
C793 C 0.29887 0.27389 0.95102 0.0
C794 C 0.31811 0.26271 0.94162 0.0
C795 C 0.24925 0.261 0.97037 0.0
C796 C 0.24099 0.28635 0.9658 0.0
C797 C 0.2421 0.24726 0.98729 0.0
C798 C 0.25209 0.22194 0.99322 0.0
C799 C 0.28674 0.22996 0.99259 0.0
C800 C 0.29585 0.20567 0.99782 0.0
C801 C 0.27059 0.17341 0.00389 0.0
C802 C 0.23618 0.16543 0.0048 0.0
C803 C 0.22692 0.18959 0.99954 0.0
H804 H 0.27769 0.15463 0.00791 0.0
H805 H 0.19252 0.39286 0.95732 0.0
H806 H 0.83909 0.22764 0.19513 0.0
H807 H 0.87869 0.24747 0.17059 0.0
H808 H 0.9077 0.17107 0.18224 0.0
H809 H 0.86735 0.15048 0.20643 0.0
H810 H 0.94451 0.27724 0.17282 0.0
H811 H 0.94092 0.15283 0.1475 0.0
H812 H 0.89814 0.09159 0.14248 0.0
H813 H 0.81784 0.11709 0.138 0.0
H814 H 0.86018 0.17853 0.14275 0.0
H815 H 0.10315 0.31737 0.13688 0.0
H816 H 0.04912 0.28929 0.15305 0.0
H817 H 0.99166 0.26002 0.1054 0.0
H818 H 0.04588 0.28771 0.08907 0.0
H819 H 0.96344 0.20807 0.12872 0.0
H820 H 0.99912 0.32772 0.12758 0.0
H821 H 0.03944 0.39011 0.13087 0.0
H822 H 0.04949 0.37596 0.1849 0.0
H823 H 0.00961 0.31338 0.18189 0.0
C824 C 0.85327 0.21451 0.19217 0.0
C825 C 0.85026 0.18762 0.20272 0.0
C826 C 0.87598 0.22594 0.17818 0.0
C827 C 0.89624 0.21082 0.17453 0.0
C828 C 0.89199 0.18281 0.18457 0.0
C829 C 0.86898 0.17112 0.19846 0.0
C830 C 0.92442 0.22672 0.16156 0.0
C831 C 0.94839 0.26208 0.16309 0.0
C832 C 0.92935 0.20717 0.14867 0.0
C833 C 0.90373 0.17028 0.14562 0.0
C834 C 0.91417 0.14541 0.14536 0.0
C835 C 0.88998 0.11064 0.14258 0.0
C836 C 0.85528 0.10045 0.13997 0.0
C837 C 0.84471 0.125 0.14009 0.0
C838 C 0.86879 0.1598 0.14285 0.0
C839 C 0.07904 0.30483 0.12983 0.0
C840 C 0.07872 0.30494 0.11171 0.0
C841 C 0.04817 0.28888 0.13908 0.0
C842 C 0.01636 0.27303 0.13042 0.0
C843 C 0.01593 0.2722 0.11232 0.0
C844 C 0.04689 0.2881 0.10303 0.0
C845 C 0.98374 0.25817 0.14039 0.0
C846 C 0.95913 0.22314 0.13832 0.0
C847 C 0.97773 0.27813 0.15257 0.0
C848 C 0.00155 0.31581 0.15448 0.0
C849 C 0.0101 0.33788 0.14015 0.0
C850 C 0.03286 0.37328 0.14196 0.0
C851 C 0.04706 0.38698 0.15808 0.0
C852 C 0.03848 0.36531 0.17242 0.0
C853 C 0.01577 0.32987 0.17067 0.0
H854 H 0.06468 0.41439 0.15946 0.0
H855 H 0.8366 0.07352 0.13783 0.0
H856 H 0.76649 0.11082 0.30535 0.0
H857 H 0.74795 0.06145 0.32443 0.0
H858 H 0.76012 0.00379 0.2831 0.0
H859 H 0.7779 0.0532 0.26367 0.0
H860 H 0.70264 0.96384 0.30017 0.0
H861 H 0.81892 0.0364 0.31616 0.0
H862 H 0.87158 0.09034 0.32409 0.0
H863 H 0.8223 0.09754 0.37016 0.0
H864 H 0.7691 0.04389 0.36238 0.0
H865 H 0.68088 0.83998 0.36787 0.0
H866 H 0.70804 0.8821 0.34434 0.0
H867 H 0.68109 0.95097 0.36988 0.0
H868 H 0.65339 0.90903 0.39305 0.0
H869 H 0.75373 0.98056 0.35863 0.0
H870 H 0.63457 0.91052 0.33864 0.0
H871 H 0.58379 0.85544 0.33006 0.0
H872 H 0.64353 0.84195 0.29069 0.0
H873 H 0.69482 0.89677 0.29922 0.0
C874 C 0.76529 0.08768 0.30029 0.0
C875 C 0.77381 0.08592 0.28304 0.0
C876 C 0.75488 0.0595 0.31126 0.0
C877 C 0.75333 0.02911 0.30532 0.0
C878 C 0.76134 0.02705 0.28799 0.0
C879 C 0.77153 0.05526 0.27693 0.0
C880 C 0.74258 0.99953 0.31728 0.0
C881 C 0.71435 0.96733 0.3128 0.0
C882 C 0.75786 0.00393 0.33377 0.0
C883 C 0.7899 0.03616 0.33862 0.0
C884 C 0.81921 0.04958 0.32793 0.0
C885 C 0.84918 0.08011 0.3324 0.0
C886 C 0.85028 0.09738 0.34761 0.0
C887 C 0.82141 0.08412 0.35838 0.0
C888 C 0.79135 0.05362 0.35396 0.0
C889 C 0.68064 0.86405 0.36836 0.0
C890 C 0.66495 0.87123 0.38223 0.0
C891 C 0.69612 0.888 0.35497 0.0
C892 C 0.69658 0.91959 0.35547 0.0
C893 C 0.68105 0.92675 0.36933 0.0
C894 C 0.66509 0.90269 0.38249 0.0
C895 C 0.71323 0.94561 0.34168 0.0
C896 C 0.74262 0.97705 0.34585 0.0
C897 C 0.69944 0.9403 0.32484 0.0
C898 C 0.66861 0.90747 0.31971 0.0
C899 C 0.63696 0.89563 0.32827 0.0
C900 C 0.60807 0.86451 0.32339 0.0
C901 C 0.61046 0.84514 0.30988 0.0
C902 C 0.64173 0.85693 0.30118 0.0
C903 C 0.67071 0.88802 0.30603 0.0
H904 H 0.58807 0.82106 0.30612 0.0
H905 H 0.87352 0.12101 0.35105 0.0
H906 H 0.82273 0.65451 0.52851 0.0
H907 H 0.79947 0.67108 0.50383 0.0
H908 H 0.74512 0.70214 0.53882 0.0
H909 H 0.7687 0.6866 0.56337 0.0
H910 H 0.70459 0.65228 0.51046 0.0
H911 H 0.80917 0.76242 0.52256 0.0
H912 H 0.87222 0.79932 0.52552 0.0
H913 H 0.88603 0.77605 0.4734 0.0
H914 H 0.82303 0.73858 0.47022 0.0
H915 H 0.63881 0.74801 0.47335 0.0
H916 H 0.66799 0.72431 0.49013 0.0
H917 H 0.73325 0.7364 0.44658 0.0
H918 H 0.70473 0.76165 0.42982 0.0
H919 H 0.77077 0.75677 0.47437 0.0
H920 H 0.66749 0.65502 0.45988 0.0
H921 H 0.60493 0.61671 0.45583 0.0
H922 H 0.58854 0.61956 0.51023 0.0
H923 H 0.65095 0.6583 0.51459 0.0
C924 C 0.80613 0.66524 0.53089 0.0
C925 C 0.79753 0.6693 0.54784 0.0
C926 C 0.79289 0.67463 0.51683 0.0
C927 C 0.77052 0.68763 0.51959 0.0
C928 C 0.76228 0.69203 0.53648 0.0
C929 C 0.77591 0.68328 0.55048 0.0
C930 C 0.75457 0.69589 0.50504 0.0
C931 C 0.71893 0.6751 0.50253 0.0
C932 C 0.77369 0.72482 0.4943 0.0
C933 C 0.81147 0.74733 0.49624 0.0
C934 C 0.82568 0.76486 0.5118 0.0
C935 C 0.8614 0.78596 0.5135 0.0
C936 C 0.88313 0.78992 0.49968 0.0
C937 C 0.86918 0.77288 0.48411 0.0
C938 C 0.83348 0.75173 0.48235 0.0
C939 C 0.65915 0.74536 0.46725 0.0
C940 C 0.66936 0.7565 0.45024 0.0
C941 C 0.67572 0.73158 0.47684 0.0
C942 C 0.70238 0.72783 0.46953 0.0
C943 C 0.71261 0.73883 0.45247 0.0
C944 C 0.69625 0.75312 0.4429 0.0
C945 C 0.72026 0.71386 0.48015 0.0
C946 C 0.75631 0.73345 0.48194 0.0
C947 C 0.70156 0.68337 0.49005 0.0
C948 C 0.66395 0.65973 0.48755 0.0
C949 C 0.65054 0.64764 0.47098 0.0
C950 C 0.6151 0.62582 0.46863 0.0
C951 C 0.59277 0.61574 0.48276 0.0
C952 C 0.60587 0.62738 0.49929 0.0
C953 C 0.64129 0.64922 0.50171 0.0
H954 H 0.56534 0.59888 0.48091 0.0
H955 H 0.91077 0.80628 0.50101 0.0
H956 H 0.12927 0.75356 0.70636 0.0
H957 H 0.08983 0.73623 0.68191 0.0
H958 H 0.11362 0.84156 0.67512 0.0
H959 H 0.15306 0.8591 0.69984 0.0
H960 H 0.04521 0.79794 0.67532 0.0
H961 H 0.14089 0.80423 0.6455 0.0
H962 H 0.18958 0.79424 0.6404 0.0
H963 H 0.11976 0.6849 0.63892 0.0
H964 H 0.07068 0.69418 0.64427 0.0
H965 H 0.92995 0.73777 0.60324 0.0
H966 H 0.98465 0.77093 0.61887 0.0
H967 H 0.97714 0.67612 0.63673 0.0
H968 H 0.92275 0.64302 0.62125 0.0
H969 H 0.04352 0.72425 0.62708 0.0
H970 H 0.95061 0.71819 0.66197 0.0
H971 H 0.90153 0.72728 0.66777 0.0
H972 H 0.96685 0.83624 0.65996 0.0
H973 H 0.01622 0.8277 0.65387 0.0
C974 C 0.12649 0.77315 0.69954 0.0
C975 C 0.14424 0.80769 0.70502 0.0
C976 C 0.10406 0.76323 0.68549 0.0
C977 C 0.09904 0.78766 0.67655 0.0
C978 C 0.11724 0.82233 0.68179 0.0
C979 C 0.1398 0.83231 0.69586 0.0
C980 C 0.07284 0.77621 0.66262 0.0
C981 C 0.04532 0.78258 0.66452 0.0
C982 C 0.07267 0.75569 0.64868 0.0
C983 C 0.1021 0.74992 0.64538 0.0
C984 C 0.13593 0.77804 0.6442 0.0
C985 C 0.1636 0.7725 0.64125 0.0
C986 C 0.15777 0.73895 0.63936 0.0
C987 C 0.12424 0.71087 0.64039 0.0
C988 C 0.09647 0.71627 0.64335 0.0
C989 C 0.94026 0.72407 0.61032 0.0
C990 C 0.92202 0.68784 0.61114 0.0
C991 C 0.97141 0.74301 0.61926 0.0
C992 C 0.98478 0.72595 0.62905 0.0
C993 C 0.96731 0.68978 0.62923 0.0
C994 C 0.93615 0.67091 0.62044 0.0
C995 C 0.0157 0.74536 0.64007 0.0
C996 C 0.04397 0.74037 0.63764 0.0
C997 C 0.01658 0.76711 0.65354 0.0
C998 C 0.98696 0.77226 0.65724 0.0
C999 C 0.95442 0.74405 0.66134 0.0
C1000 C 0.92657 0.7491 0.66471 0.0
C1001 C 0.93104 0.78231 0.66417 0.0
C1002 C 0.9634 0.81053 0.66032 0.0
C1003 C 0.99132 0.8056 0.65691 0.0
H1004 H 0.90945 0.78617 0.6668 0.0
H1005 H 0.17923 0.73472 0.63708 0.0
H1006 H 0.31592 0.15686 0.86837 0.0
H1007 H 0.29817 0.12001 0.84266 0.0
H1008 H 0.35409 0.07085 0.861 0.0
H1009 H 0.37262 0.10811 0.88633 0.0
H1010 H 0.36332 0.08103 0.82768 0.0
H1011 H 0.265 0.03447 0.86613 0.0
H1012 H 0.22009 0.03641 0.88374 0.0
H1013 H 0.18116 0.0617 0.83879 0.0
H1014 H 0.22615 0.06033 0.82094 0.0
H1015 H 0.27814 0.91276 0.79361 0.0
H1016 H 0.30214 0.96491 0.8112 0.0
H1017 H 0.24805 0.00306 0.78041 0.0
H1018 H 0.2239 0.95068 0.76261 0.0
H1019 H 0.23844 0.00568 0.81579 0.0
H1020 H 0.33273 0.04174 0.77679 0.0
H1021 H 0.37635 0.03581 0.76007 0.0
H1022 H 0.42218 0.02684 0.80701 0.0
H1023 H 0.3785 0.03219 0.82402 0.0
C1024 C 0.32457 0.13833 0.86682 0.0
C1025 C 0.3455 0.13522 0.87939 0.0
C1026 C 0.31434 0.11722 0.85217 0.0
C1027 C 0.32445 0.09234 0.84999 0.0
C1028 C 0.34601 0.08987 0.86236 0.0
C1029 C 0.35646 0.1111 0.87688 0.0
C1030 C 0.31183 0.06791 0.83522 0.0
C1031 C 0.33601 0.06449 0.82512 0.0
C1032 C 0.27621 0.04691 0.83155 0.0
C1033 C 0.24918 0.04774 0.84226 0.0
C1034 C 0.24703 0.04072 0.86003 0.0
C1035 C 0.22153 0.04167 0.87005 0.0
C1036 C 0.19786 0.0493 0.8624 0.0
C1037 C 0.19957 0.05589 0.8447 0.0
C1038 C 0.22504 0.05502 0.83463 0.0
C1039 C 0.27165 0.93241 0.79044 0.0
C1040 C 0.24915 0.92768 0.77675 0.0
C1041 C 0.2855 0.96226 0.80046 0.0
C1042 C 0.27707 0.98795 0.79702 0.0
C1043 C 0.25496 0.98356 0.78321 0.0
C1044 C 0.2413 0.95375 0.77304 0.0
C1045 C 0.2899 0.01824 0.8086 0.0
C1046 C 0.26577 0.02274 0.81811 0.0
C1047 C 0.32553 0.03992 0.81186 0.0
C1048 C 0.35218 0.03718 0.80168 0.0
C1049 C 0.35197 0.03829 0.78355 0.0
C1050 C 0.37673 0.03506 0.77402 0.0
C1051 C 0.40198 0.03089 0.78247 0.0
C1052 C 0.40259 0.03007 0.80048 0.0
C1053 C 0.37787 0.03325 0.81007 0.0
H1054 H 0.4211 0.02835 0.77507 0.0
H1055 H 0.17813 0.05001 0.87017 0.0
H1056 H 0.69838 0.85861 0.7998 0.0
H1057 H 0.71718 0.8412 0.82572 0.0
H1058 H 0.63832 0.73536 0.81712 0.0
H1059 H 0.61899 0.75266 0.79157 0.0
H1060 H 0.64495 0.74896 0.85064 0.0
H1061 H 0.72174 0.76738 0.80278 0.0
H1062 H 0.76228 0.80128 0.77955 0.0
H1063 H 0.83036 0.87522 0.81667 0.0
H1064 H 0.78995 0.84195 0.8401 0.0
H1065 H 0.71235 0.64447 0.87899 0.0
H1066 H 0.68968 0.67677 0.86382 0.0
H1067 H 0.77085 0.77176 0.88531 0.0
H1068 H 0.79358 0.73944 0.9007 0.0
H1069 H 0.76581 0.7729 0.84954 0.0
H1070 H 0.69136 0.74526 0.89807 0.0
H1071 H 0.65041 0.70778 0.92033 0.0
H1072 H 0.5773 0.64738 0.88108 0.0
H1073 H 0.61801 0.68417 0.85856 0.0
C1074 C 0.68471 0.83174 0.80363 0.0
C1075 C 0.65744 0.80694 0.79358 0.0
C1076 C 0.69554 0.82181 0.8184 0.0
C1077 C 0.6795 0.78688 0.82321 0.0
C1078 C 0.65111 0.76244 0.81368 0.0
C1079 C 0.64018 0.77236 0.79901 0.0
C1080 C 0.69364 0.77508 0.83728 0.0
C1081 C 0.67136 0.75417 0.85041 0.0
C1082 C 0.72833 0.78247 0.8372 0.0
C1083 C 0.75264 0.80245 0.82315 0.0
C1084 C 0.74523 0.79102 0.80596 0.0
C1085 C 0.7682 0.81009 0.79276 0.0
C1086 C 0.79882 0.84045 0.79662 0.0
C1087 C 0.80659 0.85175 0.8137 0.0
C1088 C 0.78367 0.8328 0.82694 0.0
C1089 C 0.72503 0.67217 0.88073 0.0
C1090 C 0.75476 0.68947 0.89099 0.0
C1091 C 0.71197 0.69058 0.87211 0.0
C1092 C 0.72849 0.72663 0.87352 0.0
C1093 C 0.75767 0.74393 0.88413 0.0
C1094 C 0.77054 0.72544 0.89293 0.0
C1095 C 0.7169 0.74615 0.86265 0.0
C1096 C 0.73965 0.7684 0.85006 0.0
C1097 C 0.68254 0.73957 0.8631 0.0
C1098 C 0.65787 0.7174 0.87661 0.0
C1099 C 0.66666 0.72383 0.89417 0.0
C1100 C 0.64346 0.70273 0.90684 0.0
C1101 C 0.6113 0.67519 0.90213 0.0
C1102 C 0.60223 0.66872 0.88472 0.0
C1103 C 0.62534 0.68973 0.87199 0.0
H1104 H 0.59337 0.65888 0.91196 0.0
H1105 H 0.81658 0.85517 0.78639 0.0
H1106 H 0.85951 0.71001 0.95927 0.0
H1107 H 0.90252 0.73112 0.98245 0.0
H1108 H 0.91497 0.64218 0.97626 0.0
H1109 H 0.87228 0.62108 0.95303 0.0
H1110 H 0.91516 0.66029 0.01093 0.0
H1111 H 0.96994 0.71174 0.95698 0.0
H1112 H 0.9777 0.74401 0.93 0.0
H1113 H 0.99374 0.83252 0.95907 0.0
H1114 H 0.98559 0.80055 0.98624 0.0
H1115 H 0.11246 0.76696 0.0266 0.0
H1116 H 0.06198 0.74561 0.00797 0.0
H1117 H 0.00015 0.74207 0.05149 0.0
H1118 H 0.05067 0.7628 0.07036 0.0
H1119 H 0.02247 0.77088 0.9991 0.0
H1120 H 0.91744 0.67478 0.04545 0.0
H1121 H 0.91196 0.63886 0.07073 0.0
H1122 H 0.00096 0.63383 0.05424 0.0
H1123 H 0.00668 0.66932 0.02877 0.0
C1124 C 0.87103 0.69471 0.96304 0.0
C1125 C 0.86278 0.66405 0.95428 0.0
C1126 C 0.89559 0.70681 0.97625 0.0
C1127 C 0.91201 0.68828 0.98096 0.0
C1128 C 0.9025 0.65679 0.97283 0.0
C1129 C 0.87825 0.64487 0.95951 0.0
C1130 C 0.94106 0.70295 0.99335 0.0
C1131 C 0.93853 0.68462 0.00847 0.0
C1132 C 0.97173 0.73432 0.98991 0.0
C1133 C 0.97674 0.75364 0.97362 0.0
C1134 C 0.97481 0.73799 0.95761 0.0
C1135 C 0.97934 0.75623 0.94228 0.0
C1136 C 0.98609 0.79026 0.94282 0.0
C1137 C 0.98843 0.80614 0.95868 0.0
C1138 C 0.98388 0.78797 0.97404 0.0
C1139 C 0.08813 0.76165 0.03223 0.0
C1140 C 0.08546 0.7664 0.04995 0.0
C1141 C 0.05931 0.74957 0.02155 0.0
C1142 C 0.02722 0.742 0.02834 0.0
C1143 C 0.02455 0.74727 0.04601 0.0
C1144 C 0.05343 0.75922 0.05676 0.0
C1145 C 0.9967 0.72832 0.01682 0.0
C1146 C 0.99894 0.74684 0.00179 0.0
C1147 C 0.9661 0.69671 0.02017 0.0
C1148 C 0.9627 0.67503 0.03533 0.0
C1149 C 0.93577 0.66591 0.04721 0.0
C1150 C 0.93263 0.64564 0.06157 0.0
C1151 C 0.95617 0.63418 0.06413 0.0
C1152 C 0.98282 0.64284 0.05229 0.0
C1153 C 0.98605 0.66307 0.0379 0.0
H1154 H 0.95371 0.61852 0.07526 0.0
H1155 H 0.9896 0.80436 0.93094 0.0
H1156 H 0.14679 0.85355 0.12857 0.0
H1157 H 0.16858 0.89567 0.15206 0.0
H1158 H 0.25223 0.87548 0.1602 0.0
H1159 H 0.23097 0.83384 0.13654 0.0
H1160 H 0.18711 0.90244 0.18626 0.0
H1161 H 0.3261 0.95255 0.16155 0.0
H1162 H 0.35555 0.95144 0.13483 0.0
H1163 H 0.27052 0.94138 0.10466 0.0
H1164 H 0.2409 0.94304 0.13116 0.0
H1165 H 0.30251 0.04311 0.24053 0.0
H1166 H 0.27303 0.98859 0.22449 0.0
H1167 H 0.29088 0.04535 0.17695 0.0
H1168 H 0.3214 0.09947 0.19276 0.0
H1169 H 0.30447 0.99763 0.17172 0.0
H1170 H 0.21001 0.00238 0.19827 0.0
H1171 H 0.17632 0.00672 0.22233 0.0
H1172 H 0.16572 0.91406 0.24462 0.0
H1173 H 0.19973 0.90941 0.22078 0.0
C1174 C 0.16927 0.85738 0.13568 0.0
C1175 C 0.18756 0.8409 0.13054 0.0
C1176 C 0.18162 0.88137 0.14915 0.0
C1177 C 0.21237 0.88914 0.15763 0.0
C1178 C 0.22871 0.87019 0.15363 0.0
C1179 C 0.21653 0.8464 0.14012 0.0
C1180 C 0.22993 0.92022 0.1687 0.0
C1181 C 0.21288 0.92318 0.18322 0.0
C1182 C 0.26312 0.94768 0.16439 0.0
C1183 C 0.28114 0.94749 0.14836 0.0
C1184 C 0.31379 0.95025 0.1492 0.0
C1185 C 0.3305 0.94953 0.1341 0.0
C1186 C 0.31486 0.94621 0.11806 0.0
C1187 C 0.28256 0.94383 0.11709 0.0
C1188 C 0.2658 0.94465 0.13215 0.0
C1189 C 0.30009 0.0438 0.22665 0.0
C1190 C 0.31433 0.07546 0.21787 0.0
C1191 C 0.28309 0.01268 0.21751 0.0
C1192 C 0.27945 0.01278 0.19949 0.0
C1193 C 0.29349 0.0445 0.19081 0.0
C1194 C 0.3109 0.07546 0.19987 0.0
C1195 C 0.2618 0.98015 0.18945 0.0
C1196 C 0.27889 0.97682 0.17502 0.0
C1197 C 0.22818 0.95303 0.19352 0.0
C1198 C 0.20774 0.95577 0.20785 0.0
C1199 C 0.20072 0.98308 0.20838 0.0
C1200 C 0.18153 0.98557 0.22196 0.0
C1201 C 0.16898 0.96074 0.23502 0.0
C1202 C 0.17551 0.93331 0.23451 0.0
C1203 C 0.19472 0.93072 0.22096 0.0
H1204 H 0.15412 0.96271 0.24553 0.0
H1205 H 0.32781 0.94558 0.10639 0.0
H1206 H 0.37394 0.22906 0.29734 0.0
H1207 H 0.34994 0.24472 0.32167 0.0
H1208 H 0.24817 0.16145 0.30902 0.0
H1209 H 0.27203 0.14614 0.28435 0.0
H1210 H 0.24622 0.21825 0.3141 0.0
H1211 H 0.29141 0.15875 0.34555 0.0
H1212 H 0.33442 0.14288 0.35467 0.0
H1213 H 0.40059 0.24589 0.37318 0.0
H1214 H 0.3582 0.26255 0.36394 0.0
H1215 H 0.17794 0.25649 0.38829 0.0
H1216 H 0.19617 0.22292 0.37066 0.0
H1217 H 0.29993 0.30949 0.36934 0.0
H1218 H 0.28181 0.34333 0.3867 0.0
H1219 H 0.2951 0.24274 0.37326 0.0
H1220 H 0.25175 0.30244 0.33782 0.0
H1221 H 0.20764 0.31717 0.32918 0.0
H1222 H 0.13615 0.21042 0.3187 0.0
H1223 H 0.17972 0.195 0.32758 0.0
C1224 C 0.34651 0.21379 0.29987 0.0
C1225 C 0.32486 0.18639 0.28894 0.0
C1226 C 0.33283 0.22265 0.31385 0.0
C1227 C 0.29727 0.20402 0.31732 0.0
C1228 C 0.27568 0.17614 0.30663 0.0
C1229 C 0.28936 0.16737 0.29257 0.0
C1230 C 0.28251 0.21535 0.33134 0.0
C1231 C 0.25641 0.22281 0.32713 0.0
C1232 C 0.29608 0.22182 0.34831 0.0
C1233 C 0.32169 0.21196 0.35393 0.0
C1234 C 0.31524 0.1781 0.35144 0.0
C1235 C 0.3395 0.16895 0.35666 0.0
C1236 C 0.37025 0.19338 0.36447 0.0
C1237 C 0.37677 0.227 0.36712 0.0
C1238 C 0.35261 0.2363 0.36191 0.0
C1239 C 0.20478 0.26808 0.38454 0.0
C1240 C 0.22844 0.30256 0.38874 0.0
C1241 C 0.21511 0.24892 0.37446 0.0
C1242 C 0.24932 0.26386 0.36864 0.0
C1243 C 0.27344 0.29753 0.37375 0.0
C1244 C 0.26303 0.31684 0.3836 0.0
C1245 C 0.25935 0.24589 0.35586 0.0
C1246 C 0.28458 0.23742 0.3603 0.0
C1247 C 0.24484 0.2382 0.33913 0.0
C1248 C 0.21882 0.24751 0.33357 0.0
C1249 C 0.22653 0.28207 0.33382 0.0
C1250 C 0.20165 0.29056 0.32886 0.0
C1251 C 0.16907 0.26473 0.32345 0.0
C1252 C 0.16137 0.23039 0.32293 0.0
C1253 C 0.18614 0.22176 0.32793 0.0
H1254 H 0.14984 0.27135 0.31962 0.0
H1255 H 0.38899 0.18624 0.3685 0.0
H1256 H 0.16962 0.35014 0.47055 0.0
H1257 H 0.1301 0.33254 0.49534 0.0
H1258 H 0.04307 0.28531 0.46074 0.0
H1259 H 0.08206 0.30247 0.43611 0.0
H1260 H 0.03928 0.32993 0.48455 0.0
H1261 H 0.06401 0.23603 0.48322 0.0
H1262 H 0.10221 0.21108 0.48415 0.0
H1263 H 0.1382 0.25505 0.53433 0.0
H1264 H 0.10053 0.28067 0.53359 0.0
H1265 H 0.89047 0.22111 0.53008 0.0
H1266 H 0.94065 0.24441 0.51121 0.0
H1267 H 0.00794 0.27731 0.55552 0.0
H1268 H 0.95738 0.25346 0.57466 0.0
H1269 H 0.02899 0.24799 0.53043 0.0
H1270 H 0.99971 0.3363 0.53342 0.0
H1271 H 0.96155 0.36128 0.53283 0.0
H1272 H 0.93554 0.32989 0.48006 0.0
H1273 H 0.97314 0.30423 0.4804 0.0
C1274 C 0.14205 0.33573 0.46829 0.0
C1275 C 0.12891 0.32773 0.4514 0.0
C1276 C 0.11956 0.32569 0.48243 0.0
C1277 C 0.0837 0.30771 0.47984 0.0
C1278 C 0.07066 0.2993 0.46301 0.0
C1279 C 0.093 0.30902 0.44895 0.0
C1280 C 0.05931 0.29849 0.49445 0.0
C1281 C 0.03692 0.3119 0.49455 0.0
C1282 C 0.05717 0.27601 0.50782 0.0
C1283 C 0.07981 0.26064 0.50825 0.0
C1284 C 0.08033 0.24067 0.49438 0.0
C1285 C 0.10182 0.22634 0.49489 0.0
C1286 C 0.12271 0.23158 0.50926 0.0
C1287 C 0.12207 0.25108 0.52319 0.0
C1288 C 0.10064 0.2655 0.52273 0.0
C1289 C 0.91591 0.23325 0.53586 0.0
C1290 C 0.92001 0.23569 0.55386 0.0
C1291 C 0.94459 0.24665 0.52504 0.0
C1292 C 0.97804 0.26309 0.53195 0.0
C1293 C 0.98233 0.26487 0.54994 0.0
C1294 C 0.95348 0.25135 0.56083 0.0
C1295 C 0.00818 0.27854 0.52016 0.0
C1296 C 0.03172 0.26647 0.52061 0.0
C1297 C 0.0116 0.3025 0.50731 0.0
C1298 C 0.98912 0.31815 0.50697 0.0
C1299 C 0.98568 0.33452 0.52172 0.0
C1300 C 0.96417 0.34883 0.52142 0.0
C1301 C 0.94609 0.34713 0.50642 0.0
C1302 C 0.94955 0.33118 0.49167 0.0
C1303 C 0.97101 0.31679 0.4919 0.0
H1304 H 0.92944 0.35822 0.50622 0.0
H1305 H 0.13932 0.22045 0.50964 0.0
H1306 H 0.73532 0.91944 0.71321 0.0
H1307 H 0.76621 0.97523 0.69861 0.0
H1308 H 0.70081 0.00746 0.72354 0.0
H1309 H 0.66986 0.95163 0.73833 0.0
H1310 H 0.70321 0.01442 0.68788 0.0
H1311 H 0.78325 0.04595 0.73455 0.0
H1312 H 0.82206 0.03901 0.75463 0.0
H1313 H 0.88438 0.04066 0.71213 0.0
H1314 H 0.84566 0.04711 0.69175 0.0
H1315 H 0.78455 0.1715 0.6433 0.0
H1316 H 0.76547 0.133 0.6683 0.0
H1317 H 0.83287 0.09445 0.65331 0.0
H1318 H 0.85294 0.13379 0.62868 0.0
H1319 H 0.82955 0.09545 0.68726 0.0
H1320 H 0.74723 0.05394 0.64079 0.0
H1321 H 0.70833 0.05716 0.61928 0.0
H1322 H 0.65012 0.06972 0.65982 0.0
H1323 H 0.68901 0.06703 0.68156 0.0
C1324 C 0.7279 0.93862 0.71581 0.0
C1325 C 0.70012 0.93118 0.72686 0.0
C1326 C 0.74567 0.97054 0.70752 0.0
C1327 C 0.73591 0.99553 0.71007 0.0
C1328 C 0.70881 0.98854 0.72147 0.0
C1329 C 0.69123 0.95671 0.72993 0.0
C1330 C 0.75189 0.02746 0.69955 0.0
C1331 C 0.73073 0.03263 0.68804 0.0
C1332 C 0.78793 0.05051 0.69938 0.0
C1333 C 0.81138 0.04678 0.71161 0.0
C1334 C 0.80508 0.04457 0.72947 0.0
C1335 C 0.82709 0.04077 0.74091 0.0
C1336 C 0.85563 0.03933 0.73466 0.0
C1337 C 0.86226 0.04176 0.71695 0.0
C1338 C 0.84031 0.04554 0.70545 0.0
C1339 C 0.79586 0.15536 0.64557 0.0
C1340 C 0.81993 0.15533 0.63394 0.0
C1341 C 0.78482 0.13326 0.65981 0.0
C1342 C 0.79709 0.1102 0.66244 0.0
C1343 C 0.82291 0.11188 0.65151 0.0
C1344 C 0.83432 0.13434 0.63741 0.0
C1345 C 0.78087 0.08225 0.6755 0.0
C1346 C 0.80195 0.07767 0.68737 0.0
C1347 C 0.74476 0.05925 0.67581 0.0
C1348 C 0.72125 0.0607 0.66278 0.0
C1349 C 0.72628 0.05763 0.6451 0.0
C1350 C 0.70422 0.05933 0.63287 0.0
C1351 C 0.67683 0.06375 0.63818 0.0
C1352 C 0.67139 0.06638 0.65573 0.0
C1353 C 0.69342 0.06476 0.66801 0.0
H1354 H 0.65978 0.06505 0.62869 0.0
H1355 H 0.87265 0.03639 0.74354 0.0
loop_
_geom_bond_atom_site_label_1
_geom_bond_atom_site_label_2
_geom_bond_distance
_geom_bond_site_symmetry_2
_ccdc_geom_bond_type
In0 O1 2.294 . S
In0 O2 2.326 . S
In0 O6 2.266 . S
In0 O7 2.326 . S
In0 O8 2.266 . S
In0 O9 2.326 . S
In0 O11 2.294 . S
In0 O12 2.326 . S
O1 In0 2.294 . S
O1 C10 1.240 . S
O2 In0 2.326 . S
O2 C10 1.252 . S
C3 O6 1.252 . S
C3 O7 1.260 . S
C4 O11 1.240 . S
C4 O12 1.252 . S
C5 O8 1.252 . S
C5 O9 1.260 . S
O6 In0 2.266 . S
O6 C3 1.252 . S
O7 In0 2.326 . S
O7 C3 1.260 . S
O8 In0 2.266 . S
O8 C5 1.252 . S
O9 In0 2.326 . S
O9 C5 1.260 . S
C10 O1 1.240 . S
C10 O2 1.252 . S
O11 In0 2.294 . S
O11 C4 1.240 . S
O12 In0 2.326 . S
O12 C4 1.252 . S
In13 O14 2.294 . S
In13 O15 2.326 . S
In13 O19 2.266 . S
In13 O20 2.326 . S
In13 O21 2.266 . S
In13 O22 2.326 . S
In13 O24 2.294 . S
In13 O25 2.326 . S
O14 In13 2.294 . S
O14 C23 1.240 . S
O15 In13 2.326 . S
O15 C23 1.252 . S
C16 O19 1.252 . S
C16 O20 1.260 . S
C17 O24 1.240 . S
C17 O25 1.252 . S
C18 O21 1.252 . S
C18 O22 1.260 . S
O19 In13 2.266 . S
O19 C16 1.252 . S
O20 In13 2.326 . S
O20 C16 1.260 . S
O21 In13 2.266 . S
O21 C18 1.252 . S
O22 In13 2.326 . S
O22 C18 1.260 . S
C23 O14 1.240 . S
C23 O15 1.252 . S
O24 In13 2.294 . S
O24 C17 1.240 . S
O25 In13 2.326 . S
O25 C17 1.252 . S
In26 O27 2.294 . S
In26 O28 2.326 . S
In26 O32 2.266 . S
In26 O33 2.326 . S
In26 O34 2.266 . S
In26 O35 2.326 . S
In26 O37 2.294 . S
In26 O38 2.326 . S
O27 In26 2.294 . S
O27 C36 1.240 . S
O28 In26 2.326 . S
O28 C36 1.252 . S
C29 O32 1.252 . S
C29 O33 1.260 . S
C30 O37 1.240 . S
C30 O38 1.252 . S
C31 O34 1.252 . S
C31 O35 1.260 . S
O32 In26 2.266 . S
O32 C29 1.252 . S
O33 In26 2.326 . S
O33 C29 1.260 . S
O34 In26 2.266 . S
O34 C31 1.252 . S
O35 In26 2.326 . S
O35 C31 1.260 . S
C36 O27 1.240 . S
C36 O28 1.252 . S
O37 In26 2.294 . S
O37 C30 1.240 . S
O38 In26 2.326 . S
O38 C30 1.252 . S
In39 O40 2.294 . S
In39 O41 2.326 . S
In39 O45 2.266 . S
In39 O46 2.326 . S
In39 O47 2.266 . S
In39 O48 2.326 . S
In39 O50 2.294 . S
In39 O51 2.326 . S
O40 In39 2.294 . S
O40 C49 1.240 . S
O41 In39 2.326 . S
O41 C49 1.252 . S
C42 O45 1.252 . S
C42 O46 1.260 . S
C43 O50 1.240 . S
C43 O51 1.252 . S
C44 O47 1.252 . S
C44 O48 1.260 . S
O45 In39 2.266 . S
O45 C42 1.252 . S
O46 In39 2.326 . S
O46 C42 1.260 . S
O47 In39 2.266 . S
O47 C44 1.252 . S
O48 In39 2.326 . S
O48 C44 1.260 . S
C49 O40 1.240 . S
C49 O41 1.252 . S
O50 In39 2.294 . S
O50 C43 1.240 . S
O51 In39 2.326 . S
O51 C43 1.252 . S
In52 O53 2.294 . S
In52 O54 2.326 . S
In52 O58 2.266 . S
In52 O59 2.326 . S
In52 O60 2.266 . S
In52 O61 2.326 . S
In52 O63 2.294 . S
In52 O64 2.326 . S
O53 In52 2.294 . S
O53 C62 1.240 . S
O54 In52 2.326 . S
O54 C62 1.252 . S
C55 O58 1.252 . S
C55 O59 1.260 . S
C56 O63 1.240 . S
C56 O64 1.252 . S
C57 O60 1.252 . S
C57 O61 1.260 . S
O58 In52 2.266 . S
O58 C55 1.252 . S
O59 In52 2.326 . S
O59 C55 1.260 . S
O60 In52 2.266 . S
O60 C57 1.252 . S
O61 In52 2.326 . S
O61 C57 1.260 . S
C62 O53 1.240 . S
C62 O54 1.252 . S
O63 In52 2.294 . S
O63 C56 1.240 . S
O64 In52 2.326 . S
O64 C56 1.252 . S
In65 O66 2.294 . S
In65 O67 2.326 . S
In65 O71 2.266 . S
In65 O72 2.326 . S
In65 O73 2.266 . S
In65 O74 2.326 . S
In65 O76 2.294 . S
In65 O77 2.326 . S
O66 In65 2.294 . S
O66 C75 1.240 . S
O67 In65 2.326 . S
O67 C75 1.252 . S
C68 O71 1.252 . S
C68 O72 1.260 . S
C69 O76 1.240 . S
C69 O77 1.252 . S
C70 O73 1.252 . S
C70 O74 1.260 . S
O71 In65 2.266 . S
O71 C68 1.252 . S
O72 In65 2.326 . S
O72 C68 1.260 . S
O73 In65 2.266 . S
O73 C70 1.252 . S
O74 In65 2.326 . S
O74 C70 1.260 . S
C75 O66 1.240 . S
C75 O67 1.252 . S
O76 In65 2.294 . S
O76 C69 1.240 . S
O77 In65 2.326 . S
O77 C69 1.252 . S
In78 O79 2.294 . S
In78 O80 2.326 . S
In78 O84 2.266 . S
In78 O85 2.326 . S
In78 O86 2.266 . S
In78 O87 2.326 . S
In78 O89 2.294 . S
In78 O90 2.326 . S
O79 In78 2.294 . S
O79 C88 1.240 . S
O80 In78 2.326 . S
O80 C88 1.252 . S
C81 O84 1.252 . S
C81 O85 1.260 . S
C82 O89 1.240 . S
C82 O90 1.252 . S
C83 O86 1.252 . S
C83 O87 1.260 . S
O84 In78 2.266 . S
O84 C81 1.252 . S
O85 In78 2.326 . S
O85 C81 1.260 . S
O86 In78 2.266 . S
O86 C83 1.252 . S
O87 In78 2.326 . S
O87 C83 1.260 . S
C88 O79 1.240 . S
C88 O80 1.252 . S
O89 In78 2.294 . S
O89 C82 1.240 . S
O90 In78 2.326 . S
O90 C82 1.252 . S
In91 O92 2.294 . S
In91 O93 2.326 . S
In91 O97 2.266 . S
In91 O98 2.326 . S
In91 O99 2.266 . S
In91 O100 2.326 . S
In91 O102 2.294 . S
In91 O103 2.326 . S
O92 In91 2.294 . S
O92 C101 1.240 . S
O93 In91 2.326 . S
O93 C101 1.252 . S
C94 O97 1.252 . S
C94 O98 1.260 . S
C95 O102 1.240 . S
C95 O103 1.252 . S
C96 O99 1.252 . S
C96 O100 1.260 . S
O97 In91 2.266 . S
O97 C94 1.252 . S
O98 In91 2.326 . S
O98 C94 1.260 . S
O99 In91 2.266 . S
O99 C96 1.252 . S
O100 In91 2.326 . S
O100 C96 1.260 . S
C101 O92 1.240 . S
C101 O93 1.252 . S
O102 In91 2.294 . S
O102 C95 1.240 . S
O103 In91 2.326 . S
O103 C95 1.252 . S
In104 O105 2.294 . S
In104 O106 2.326 . S
In104 O110 2.266 . S
In104 O111 2.326 . S
In104 O112 2.266 . S
In104 O113 2.326 . S
In104 O115 2.294 . S
In104 O116 2.326 . S
O105 In104 2.294 . S
O105 C114 1.240 . S
O106 In104 2.326 . S
O106 C114 1.252 . S
C107 O110 1.252 . S
C107 O111 1.260 . S
C108 O115 1.240 . S
C108 O116 1.252 . S
C109 O112 1.252 . S
C109 O113 1.260 . S
O110 In104 2.266 . S
O110 C107 1.252 . S
O111 In104 2.326 . S
O111 C107 1.260 . S
O112 In104 2.266 . S
O112 C109 1.252 . S
O113 In104 2.326 . S
O113 C109 1.260 . S
C114 O105 1.240 . S
C114 O106 1.252 . S
O115 In104 2.294 . S
O115 C108 1.240 . S
O116 In104 2.326 . S
O116 C108 1.252 . S
In117 O118 2.294 . S
In117 O119 2.326 . S
In117 O123 2.266 . S
In117 O124 2.326 . S
In117 O125 2.266 . S
In117 O126 2.326 . S
In117 O128 2.294 . S
In117 O129 2.326 . S
O118 In117 2.294 . S
O118 C127 1.240 . S
O119 In117 2.326 . S
O119 C127 1.252 . S
C120 O123 1.252 . S
C120 O124 1.260 . S
C121 O128 1.240 . S
C121 O129 1.252 . S
C122 O125 1.252 . S
C122 O126 1.260 . S
O123 In117 2.266 . S
O123 C120 1.252 . S
O124 In117 2.326 . S
O124 C120 1.260 . S
O125 In117 2.266 . S
O125 C122 1.252 . S
O126 In117 2.326 . S
O126 C122 1.260 . S
C127 O118 1.240 . S
C127 O119 1.252 . S
O128 In117 2.294 . S
O128 C121 1.240 . S
O129 In117 2.326 . S
O129 C121 1.252 . S
In130 O131 2.294 . S
In130 O132 2.326 . S
In130 O136 2.266 . S
In130 O137 2.326 . S
In130 O138 2.266 . S
In130 O139 2.326 . S
In130 O141 2.294 . S
In130 O142 2.326 . S
O131 In130 2.294 . S
O131 C140 1.240 . S
O132 In130 2.326 . S
O132 C140 1.252 . S
C133 O136 1.252 . S
C133 O137 1.260 . S
C134 O141 1.240 . S
C134 O142 1.252 . S
C135 O138 1.252 . S
C135 O139 1.260 . S
O136 In130 2.266 . S
O136 C133 1.252 . S
O137 In130 2.326 . S
O137 C133 1.260 . S
O138 In130 2.266 . S
O138 C135 1.252 . S
O139 In130 2.326 . S
O139 C135 1.260 . S
C140 O131 1.240 . S
C140 O132 1.252 . S
O141 In130 2.294 . S
O141 C134 1.240 . S
O142 In130 2.326 . S
O142 C134 1.252 . S
In143 O144 2.294 . S
In143 O145 2.326 . S
In143 O149 2.266 . S
In143 O150 2.326 . S
In143 O151 2.266 . S
In143 O152 2.326 . S
In143 O154 2.294 . S
In143 O155 2.326 . S
O144 In143 2.294 . S
O144 C153 1.240 . S
O145 In143 2.326 . S
O145 C153 1.252 . S
C146 O149 1.252 . S
C146 O150 1.260 . S
C147 O154 1.240 . S
C147 O155 1.252 . S
C148 O151 1.252 . S
C148 O152 1.260 . S
O149 In143 2.266 . S
O149 C146 1.252 . S
O150 In143 2.326 . S
O150 C146 1.260 . S
O151 In143 2.266 . S
O151 C148 1.252 . S
O152 In143 2.326 . S
O152 C148 1.260 . S
C153 O144 1.240 . S
C153 O145 1.252 . S
O154 In143 2.294 . S
O154 C147 1.240 . S
O155 In143 2.326 . S
O155 C147 1.252 . S
H156 C174 0.951 . S
H157 C176 0.951 . S
H158 C178 0.950 . S
H159 C179 0.950 . S
H160 C181 0.950 . S
H161 C184 0.950 . S
H162 C185 0.950 . S
H163 C187 0.950 . S
H164 C188 0.950 . S
H165 C189 0.951 . S
H166 C191 0.951 . S
H167 C193 0.950 . S
H168 C194 0.950 . S
H169 C196 0.950 . S
H170 C199 0.950 . S
H171 C200 0.950 . S
H172 C202 0.950 . S
H173 C203 0.950 . S
C174 H156 0.951 . S
C174 C175 1.366 . S
C174 C176 1.388 . S
C175 C174 1.366 . S
C175 C179 1.385 . S
C176 H157 0.951 . S
C176 C174 1.388 . S
C176 C177 1.366 . S
C177 C176 1.366 . S
C177 C178 1.414 . S
C177 C180 1.499 . S
C178 H158 0.950 . S
C178 C177 1.414 . S
C178 C179 1.374 . S
C179 H159 0.950 . S
C179 C175 1.385 . S
C179 C178 1.374 . S
C180 C177 1.499 . S
C180 C181 1.373 . S
C180 C182 1.389 . S
C181 H160 0.950 . S
C181 C180 1.373 . S
C181 C197 1.377 . S
C182 C180 1.389 . S
C182 C183 1.524 . S
C182 C196 1.377 . S
C183 C182 1.524 . S
C183 C184 1.397 . S
C183 C188 1.363 . S
C184 H161 0.950 . S
C184 C183 1.397 . S
C184 C185 1.334 . S
C185 H162 0.950 . S
C185 C184 1.334 . S
C185 C186 1.287 . S
C186 C185 1.287 . S
C186 C187 1.524 . S
C186 H205 0.913 . S
C187 H163 0.950 . S
C187 C186 1.524 . S
C187 C188 1.415 . S
C188 H164 0.950 . S
C188 C183 1.363 . S
C188 C187 1.415 . S
C189 H165 0.951 . S
C189 C190 1.366 . S
C189 C191 1.388 . S
C190 C189 1.366 . S
C190 C194 1.385 . S
C191 H166 0.951 . S
C191 C189 1.388 . S
C191 C192 1.366 . S
C192 C191 1.366 . S
C192 C193 1.414 . S
C192 C195 1.499 . S
C193 H167 0.950 . S
C193 C192 1.414 . S
C193 C194 1.374 . S
C194 H168 0.950 . S
C194 C190 1.385 . S
C194 C193 1.374 . S
C195 C192 1.499 . S
C195 C196 1.373 . S
C195 C197 1.389 . S
C196 H169 0.950 . S
C196 C182 1.377 . S
C196 C195 1.373 . S
C197 C181 1.377 . S
C197 C195 1.389 . S
C197 C198 1.524 . S
C198 C197 1.524 . S
C198 C199 1.397 . S
C198 C203 1.363 . S
C199 H170 0.950 . S
C199 C198 1.397 . S
C199 C200 1.334 . S
C200 H171 0.950 . S
C200 C199 1.334 . S
C200 C201 1.287 . S
C201 C200 1.287 . S
C201 C202 1.524 . S
C201 H204 0.999 . S
C202 H172 0.950 . S
C202 C201 1.524 . S
C202 C203 1.415 . S
C203 H173 0.950 . S
C203 C198 1.363 . S
C203 C202 1.415 . S
H204 C201 0.999 . S
H205 C186 0.913 . S
H206 C224 0.951 . S
H207 C226 0.951 . S
H208 C228 0.950 . S
H209 C229 0.950 . S
H210 C231 0.950 . S
H211 C234 0.950 . S
H212 C235 0.950 . S
H213 C237 0.950 . S
H214 C238 0.950 . S
H215 C239 0.951 . S
H216 C241 0.951 . S
H217 C243 0.950 . S
H218 C244 0.950 . S
H219 C246 0.950 . S
H220 C249 0.950 . S
H221 C250 0.950 . S
H222 C252 0.950 . S
H223 C253 0.950 . S
C224 H206 0.951 . S
C224 C225 1.366 . S
C224 C226 1.388 . S
C225 C224 1.366 . S
C225 C229 1.385 . S
C226 H207 0.951 . S
C226 C224 1.388 . S
C226 C227 1.366 . S
C227 C226 1.366 . S
C227 C228 1.414 . S
C227 C230 1.499 . S
C228 H208 0.950 . S
C228 C227 1.414 . S
C228 C229 1.374 . S
C229 H209 0.950 . S
C229 C225 1.385 . S
C229 C228 1.374 . S
C230 C227 1.499 . S
C230 C231 1.373 . S
C230 C232 1.389 . S
C231 H210 0.950 . S
C231 C230 1.373 . S
C231 C247 1.377 . S
C232 C230 1.389 . S
C232 C233 1.524 . S
C232 C246 1.377 . S
C233 C232 1.524 . S
C233 C234 1.397 . S
C233 C238 1.363 . S
C234 H211 0.950 . S
C234 C233 1.397 . S
C234 C235 1.334 . S
C235 H212 0.950 . S
C235 C234 1.334 . S
C235 C236 1.287 . S
C236 C235 1.287 . S
C236 C237 1.524 . S
C236 H255 0.913 . S
C237 H213 0.950 . S
C237 C236 1.524 . S
C237 C238 1.415 . S
C238 H214 0.950 . S
C238 C233 1.363 . S
C238 C237 1.415 . S
C239 H215 0.951 . S
C239 C240 1.366 . S
C239 C241 1.388 . S
C240 C239 1.366 . S
C240 C244 1.385 . S
C241 H216 0.951 . S
C241 C239 1.388 . S
C241 C242 1.366 . S
C242 C241 1.366 . S
C242 C243 1.414 . S
C242 C245 1.499 . S
C243 H217 0.950 . S
C243 C242 1.414 . S
C243 C244 1.374 . S
C244 H218 0.950 . S
C244 C240 1.385 . S
C244 C243 1.374 . S
C245 C242 1.499 . S
C245 C246 1.373 . S
C245 C247 1.389 . S
C246 H219 0.950 . S
C246 C232 1.377 . S
C246 C245 1.373 . S
C247 C231 1.377 . S
C247 C245 1.389 . S
C247 C248 1.524 . S
C248 C247 1.524 . S
C248 C249 1.397 . S
C248 C253 1.363 . S
C249 H220 0.950 . S
C249 C248 1.397 . S
C249 C250 1.334 . S
C250 H221 0.950 . S
C250 C249 1.334 . S
C250 C251 1.287 . S
C251 C250 1.287 . S
C251 C252 1.524 . S
C251 H254 0.999 . S
C252 H222 0.950 . S
C252 C251 1.524 . S
C252 C253 1.415 . S
C253 H223 0.950 . S
C253 C248 1.363 . S
C253 C252 1.415 . S
H254 C251 0.999 . S
H255 C236 0.913 . S
H256 C274 0.951 . S
H257 C276 0.951 . S
H258 C278 0.950 . S
H259 C279 0.950 . S
H260 C281 0.950 . S
H261 C284 0.950 . S
H262 C285 0.950 . S
H263 C287 0.950 . S
H264 C288 0.950 . S
H265 C289 0.951 . S
H266 C291 0.951 . S
H267 C293 0.950 . S
H268 C294 0.950 . S
H269 C296 0.950 . S
H270 C299 0.950 . S
H271 C300 0.950 . S
H272 C302 0.950 . S
H273 C303 0.950 . S
C274 H256 0.951 . S
C274 C275 1.366 . S
C274 C276 1.388 . S
C275 C274 1.366 . S
C275 C279 1.385 . S
C276 H257 0.951 . S
C276 C274 1.388 . S
C276 C277 1.366 . S
C277 C276 1.366 . S
C277 C278 1.414 . S
C277 C280 1.499 . S
C278 H258 0.950 . S
C278 C277 1.414 . S
C278 C279 1.374 . S
C279 H259 0.950 . S
C279 C275 1.385 . S
C279 C278 1.374 . S
C280 C277 1.499 . S
C280 C281 1.373 . S
C280 C282 1.389 . S
C281 H260 0.950 . S
C281 C280 1.373 . S
C281 C297 1.377 . S
C282 C280 1.389 . S
C282 C283 1.524 . S
C282 C296 1.377 . S
C283 C282 1.524 . S
C283 C284 1.397 . S
C283 C288 1.363 . S
C284 H261 0.950 . S
C284 C283 1.397 . S
C284 C285 1.334 . S
C285 H262 0.950 . S
C285 C284 1.334 . S
C285 C286 1.287 . S
C286 C285 1.287 . S
C286 C287 1.524 . S
C286 H305 0.913 . S
C287 H263 0.950 . S
C287 C286 1.524 . S
C287 C288 1.415 . S
C288 H264 0.950 . S
C288 C283 1.363 . S
C288 C287 1.415 . S
C289 H265 0.951 . S
C289 C290 1.366 . S
C289 C291 1.388 . S
C290 C289 1.366 . S
C290 C294 1.385 . S
C291 H266 0.951 . S
C291 C289 1.388 . S
C291 C292 1.366 . S
C292 C291 1.366 . S
C292 C293 1.414 . S
C292 C295 1.499 . S
C293 H267 0.950 . S
C293 C292 1.414 . S
C293 C294 1.374 . S
C294 H268 0.950 . S
C294 C290 1.385 . S
C294 C293 1.374 . S
C295 C292 1.499 . S
C295 C296 1.373 . S
C295 C297 1.389 . S
C296 H269 0.950 . S
C296 C282 1.377 . S
C296 C295 1.373 . S
C297 C281 1.377 . S
C297 C295 1.389 . S
C297 C298 1.524 . S
C298 C297 1.524 . S
C298 C299 1.397 . S
C298 C303 1.363 . S
C299 H270 0.950 . S
C299 C298 1.397 . S
C299 C300 1.334 . S
C300 H271 0.950 . S
C300 C299 1.334 . S
C300 C301 1.287 . S
C301 C300 1.287 . S
C301 C302 1.524 . S
C301 H304 0.999 . S
C302 H272 0.950 . S
C302 C301 1.524 . S
C302 C303 1.415 . S
C303 H273 0.950 . S
C303 C298 1.363 . S
C303 C302 1.415 . S
H304 C301 0.999 . S
H305 C286 0.913 . S
H306 C324 0.951 . S
H307 C326 0.951 . S
H308 C328 0.950 . S
H309 C329 0.950 . S
H310 C331 0.950 . S
H311 C334 0.950 . S
H312 C335 0.950 . S
H313 C337 0.950 . S
H314 C338 0.950 . S
H315 C339 0.951 . S
H316 C341 0.951 . S
H317 C343 0.950 . S
H318 C344 0.950 . S
H319 C346 0.950 . S
H320 C349 0.950 . S
H321 C350 0.950 . S
H322 C352 0.950 . S
H323 C353 0.950 . S
C324 H306 0.951 . S
C324 C325 1.366 . S
C324 C326 1.388 . S
C325 C324 1.366 . S
C325 C329 1.385 . S
C326 H307 0.951 . S
C326 C324 1.388 . S
C326 C327 1.366 . S
C327 C326 1.366 . S
C327 C328 1.414 . S
C327 C330 1.499 . S
C328 H308 0.950 . S
C328 C327 1.414 . S
C328 C329 1.374 . S
C329 H309 0.950 . S
C329 C325 1.385 . S
C329 C328 1.374 . S
C330 C327 1.499 . S
C330 C331 1.373 . S
C330 C332 1.389 . S
C331 H310 0.950 . S
C331 C330 1.373 . S
C331 C347 1.377 . S
C332 C330 1.389 . S
C332 C333 1.524 . S
C332 C346 1.377 . S
C333 C332 1.524 . S
C333 C334 1.397 . S
C333 C338 1.363 . S
C334 H311 0.950 . S
C334 C333 1.397 . S
C334 C335 1.334 . S
C335 H312 0.950 . S
C335 C334 1.334 . S
C335 C336 1.287 . S
C336 C335 1.287 . S
C336 C337 1.524 . S
C336 H355 0.913 . S
C337 H313 0.950 . S
C337 C336 1.524 . S
C337 C338 1.415 . S
C338 H314 0.950 . S
C338 C333 1.363 . S
C338 C337 1.415 . S
C339 H315 0.951 . S
C339 C340 1.366 . S
C339 C341 1.388 . S
C340 C339 1.366 . S
C340 C344 1.385 . S
C341 H316 0.951 . S
C341 C339 1.388 . S
C341 C342 1.366 . S
C342 C341 1.366 . S
C342 C343 1.414 . S
C342 C345 1.499 . S
C343 H317 0.950 . S
C343 C342 1.414 . S
C343 C344 1.374 . S
C344 H318 0.950 . S
C344 C340 1.385 . S
C344 C343 1.374 . S
C345 C342 1.499 . S
C345 C346 1.373 . S
C345 C347 1.389 . S
C346 H319 0.950 . S
C346 C332 1.377 . S
C346 C345 1.373 . S
C347 C331 1.377 . S
C347 C345 1.389 . S
C347 C348 1.524 . S
C348 C347 1.524 . S
C348 C349 1.397 . S
C348 C353 1.363 . S
C349 H320 0.950 . S
C349 C348 1.397 . S
C349 C350 1.334 . S
C350 H321 0.950 . S
C350 C349 1.334 . S
C350 C351 1.287 . S
C351 C350 1.287 . S
C351 C352 1.524 . S
C351 H354 0.999 . S
C352 H322 0.950 . S
C352 C351 1.524 . S
C352 C353 1.415 . S
C353 H323 0.950 . S
C353 C348 1.363 . S
C353 C352 1.415 . S
H354 C351 0.999 . S
H355 C336 0.913 . S
H356 C374 0.951 . S
H357 C376 0.951 . S
H358 C378 0.950 . S
H359 C379 0.950 . S
H360 C381 0.950 . S
H361 C384 0.950 . S
H362 C385 0.950 . S
H363 C387 0.950 . S
H364 C388 0.950 . S
H365 C389 0.951 . S
H366 C391 0.951 . S
H367 C393 0.950 . S
H368 C394 0.950 . S
H369 C396 0.950 . S
H370 C399 0.950 . S
H371 C400 0.950 . S
H372 C402 0.950 . S
H373 C403 0.950 . S
C374 H356 0.951 . S
C374 C375 1.366 . S
C374 C376 1.388 . S
C375 C374 1.366 . S
C375 C379 1.385 . S
C376 H357 0.951 . S
C376 C374 1.388 . S
C376 C377 1.366 . S
C377 C376 1.366 . S
C377 C378 1.414 . S
C377 C380 1.499 . S
C378 H358 0.950 . S
C378 C377 1.414 . S
C378 C379 1.374 . S
C379 H359 0.950 . S
C379 C375 1.385 . S
C379 C378 1.374 . S
C380 C377 1.499 . S
C380 C381 1.373 . S
C380 C382 1.389 . S
C381 H360 0.950 . S
C381 C380 1.373 . S
C381 C397 1.377 . S
C382 C380 1.389 . S
C382 C383 1.524 . S
C382 C396 1.377 . S
C383 C382 1.524 . S
C383 C384 1.397 . S
C383 C388 1.363 . S
C384 H361 0.950 . S
C384 C383 1.397 . S
C384 C385 1.334 . S
C385 H362 0.950 . S
C385 C384 1.334 . S
C385 C386 1.287 . S
C386 C385 1.287 . S
C386 C387 1.524 . S
C386 H405 0.913 . S
C387 H363 0.950 . S
C387 C386 1.524 . S
C387 C388 1.415 . S
C388 H364 0.950 . S
C388 C383 1.363 . S
C388 C387 1.415 . S
C389 H365 0.951 . S
C389 C390 1.366 . S
C389 C391 1.388 . S
C390 C389 1.366 . S
C390 C394 1.385 . S
C391 H366 0.951 . S
C391 C389 1.388 . S
C391 C392 1.366 . S
C392 C391 1.366 . S
C392 C393 1.414 . S
C392 C395 1.499 . S
C393 H367 0.950 . S
C393 C392 1.414 . S
C393 C394 1.374 . S
C394 H368 0.950 . S
C394 C390 1.385 . S
C394 C393 1.374 . S
C395 C392 1.499 . S
C395 C396 1.373 . S
C395 C397 1.389 . S
C396 H369 0.950 . S
C396 C382 1.377 . S
C396 C395 1.373 . S
C397 C381 1.377 . S
C397 C395 1.389 . S
C397 C398 1.524 . S
C398 C397 1.524 . S
C398 C399 1.397 . S
C398 C403 1.363 . S
C399 H370 0.950 . S
C399 C398 1.397 . S
C399 C400 1.334 . S
C400 H371 0.950 . S
C400 C399 1.334 . S
C400 C401 1.287 . S
C401 C400 1.287 . S
C401 C402 1.524 . S
C401 H404 0.999 . S
C402 H372 0.950 . S
C402 C401 1.524 . S
C402 C403 1.415 . S
C403 H373 0.950 . S
C403 C398 1.363 . S
C403 C402 1.415 . S
H404 C401 0.999 . S
H405 C386 0.913 . S
H406 C424 0.951 . S
H407 C426 0.951 . S
H408 C428 0.950 . S
H409 C429 0.950 . S
H410 C431 0.950 . S
H411 C434 0.950 . S
H412 C435 0.950 . S
H413 C437 0.950 . S
H414 C438 0.950 . S
H415 C439 0.951 . S
H416 C441 0.951 . S
H417 C443 0.950 . S
H418 C444 0.950 . S
H419 C446 0.950 . S
H420 C449 0.950 . S
H421 C450 0.950 . S
H422 C452 0.950 . S
H423 C453 0.950 . S
C424 H406 0.951 . S
C424 C425 1.366 . S
C424 C426 1.388 . S
C425 C424 1.366 . S
C425 C429 1.385 . S
C426 H407 0.951 . S
C426 C424 1.388 . S
C426 C427 1.366 . S
C427 C426 1.366 . S
C427 C428 1.414 . S
C427 C430 1.499 . S
C428 H408 0.950 . S
C428 C427 1.414 . S
C428 C429 1.374 . S
C429 H409 0.950 . S
C429 C425 1.385 . S
C429 C428 1.374 . S
C430 C427 1.499 . S
C430 C431 1.373 . S
C430 C432 1.389 . S
C431 H410 0.950 . S
C431 C430 1.373 . S
C431 C447 1.377 . S
C432 C430 1.389 . S
C432 C433 1.524 . S
C432 C446 1.377 . S
C433 C432 1.524 . S
C433 C434 1.397 . S
C433 C438 1.363 . S
C434 H411 0.950 . S
C434 C433 1.397 . S
C434 C435 1.334 . S
C435 H412 0.950 . S
C435 C434 1.334 . S
C435 C436 1.287 . S
C436 C435 1.287 . S
C436 C437 1.524 . S
C436 H455 0.913 . S
C437 H413 0.950 . S
C437 C436 1.524 . S
C437 C438 1.415 . S
C438 H414 0.950 . S
C438 C433 1.363 . S
C438 C437 1.415 . S
C439 H415 0.951 . S
C439 C440 1.366 . S
C439 C441 1.388 . S
C440 C439 1.366 . S
C440 C444 1.385 . S
C441 H416 0.951 . S
C441 C439 1.388 . S
C441 C442 1.366 . S
C442 C441 1.366 . S
C442 C443 1.414 . S
C442 C445 1.499 . S
C443 H417 0.950 . S
C443 C442 1.414 . S
C443 C444 1.374 . S
C444 H418 0.950 . S
C444 C440 1.385 . S
C444 C443 1.374 . S
C445 C442 1.499 . S
C445 C446 1.373 . S
C445 C447 1.389 . S
C446 H419 0.950 . S
C446 C432 1.377 . S
C446 C445 1.373 . S
C447 C431 1.377 . S
C447 C445 1.389 . S
C447 C448 1.524 . S
C448 C447 1.524 . S
C448 C449 1.397 . S
C448 C453 1.363 . S
C449 H420 0.950 . S
C449 C448 1.397 . S
C449 C450 1.334 . S
C450 H421 0.950 . S
C450 C449 1.334 . S
C450 C451 1.287 . S
C451 C450 1.287 . S
C451 C452 1.524 . S
C451 H454 0.999 . S
C452 H422 0.950 . S
C452 C451 1.524 . S
C452 C453 1.415 . S
C453 H423 0.950 . S
C453 C448 1.363 . S
C453 C452 1.415 . S
H454 C451 0.999 . S
H455 C436 0.913 . S
H456 C474 0.951 . S
H457 C476 0.951 . S
H458 C478 0.950 . S
H459 C479 0.950 . S
H460 C481 0.950 . S
H461 C484 0.950 . S
H462 C485 0.950 . S
H463 C487 0.950 . S
H464 C488 0.950 . S
H465 C489 0.951 . S
H466 C491 0.951 . S
H467 C493 0.950 . S
H468 C494 0.950 . S
H469 C496 0.950 . S
H470 C499 0.950 . S
H471 C500 0.950 . S
H472 C502 0.950 . S
H473 C503 0.950 . S
C474 H456 0.951 . S
C474 C475 1.366 . S
C474 C476 1.388 . S
C475 C474 1.366 . S
C475 C479 1.385 . S
C476 H457 0.951 . S
C476 C474 1.388 . S
C476 C477 1.366 . S
C477 C476 1.366 . S
C477 C478 1.414 . S
C477 C480 1.499 . S
C478 H458 0.950 . S
C478 C477 1.414 . S
C478 C479 1.374 . S
C479 H459 0.950 . S
C479 C475 1.385 . S
C479 C478 1.374 . S
C480 C477 1.499 . S
C480 C481 1.373 . S
C480 C482 1.389 . S
C481 H460 0.950 . S
C481 C480 1.373 . S
C481 C497 1.377 . S
C482 C480 1.389 . S
C482 C483 1.524 . S
C482 C496 1.377 . S
C483 C482 1.524 . S
C483 C484 1.397 . S
C483 C488 1.363 . S
C484 H461 0.950 . S
C484 C483 1.397 . S
C484 C485 1.334 . S
C485 H462 0.950 . S
C485 C484 1.334 . S
C485 C486 1.287 . S
C486 C485 1.287 . S
C486 C487 1.524 . S
C486 H505 0.913 . S
C487 H463 0.950 . S
C487 C486 1.524 . S
C487 C488 1.415 . S
C488 H464 0.950 . S
C488 C483 1.363 . S
C488 C487 1.415 . S
C489 H465 0.951 . S
C489 C490 1.366 . S
C489 C491 1.388 . S
C490 C489 1.366 . S
C490 C494 1.385 . S
C491 H466 0.951 . S
C491 C489 1.388 . S
C491 C492 1.366 . S
C492 C491 1.366 . S
C492 C493 1.414 . S
C492 C495 1.499 . S
C493 H467 0.950 . S
C493 C492 1.414 . S
C493 C494 1.374 . S
C494 H468 0.950 . S
C494 C490 1.385 . S
C494 C493 1.374 . S
C495 C492 1.499 . S
C495 C496 1.373 . S
C495 C497 1.389 . S
C496 H469 0.950 . S
C496 C482 1.377 . S
C496 C495 1.373 . S
C497 C481 1.377 . S
C497 C495 1.389 . S
C497 C498 1.524 . S
C498 C497 1.524 . S
C498 C499 1.397 . S
C498 C503 1.363 . S
C499 H470 0.950 . S
C499 C498 1.397 . S
C499 C500 1.334 . S
C500 H471 0.950 . S
C500 C499 1.334 . S
C500 C501 1.287 . S
C501 C500 1.287 . S
C501 C502 1.524 . S
C501 H504 0.999 . S
C502 H472 0.950 . S
C502 C501 1.524 . S
C502 C503 1.415 . S
C503 H473 0.950 . S
C503 C498 1.363 . S
C503 C502 1.415 . S
H504 C501 0.999 . S
H505 C486 0.913 . S
H506 C524 0.951 . S
H507 C526 0.951 . S
H508 C528 0.950 . S
H509 C529 0.950 . S
H510 C531 0.950 . S
H511 C534 0.950 . S
H512 C535 0.950 . S
H513 C537 0.950 . S
H514 C538 0.950 1_455 S
H515 C539 0.951 . S
H516 C541 0.951 . S
H517 C543 0.950 . S
H518 C544 0.950 . S
H519 C546 0.950 . S
H520 C549 0.950 . S
H521 C550 0.950 . S
H522 C552 0.950 . S
H523 C553 0.950 1_655 S
C524 H506 0.951 . S
C524 C525 1.366 . S
C524 C526 1.388 . S
C525 C524 1.366 . S
C525 C529 1.385 . S
C526 H507 0.951 . S
C526 C524 1.388 . S
C526 C527 1.366 . S
C527 C526 1.366 . S
C527 C528 1.414 . S
C527 C530 1.499 . S
C528 H508 0.950 . S
C528 C527 1.414 . S
C528 C529 1.374 . S
C529 H509 0.950 . S
C529 C525 1.385 . S
C529 C528 1.374 . S
C530 C527 1.499 . S
C530 C531 1.373 . S
C530 C532 1.389 . S
C531 H510 0.950 . S
C531 C530 1.373 . S
C531 C547 1.377 1_655 S
C532 C530 1.389 . S
C532 C533 1.524 . S
C532 C546 1.377 1_655 S
C533 C532 1.524 . S
C533 C534 1.397 . S
C533 C538 1.363 . S
C534 H511 0.950 . S
C534 C533 1.397 . S
C534 C535 1.334 . S
C535 H512 0.950 . S
C535 C534 1.334 . S
C535 C536 1.287 . S
C536 C535 1.287 . S
C536 C537 1.524 . S
C536 H555 0.913 . S
C537 H513 0.950 . S
C537 C536 1.524 . S
C537 C538 1.415 . S
C538 H514 0.950 1_655 S
C538 C533 1.363 . S
C538 C537 1.415 . S
C539 H515 0.951 . S
C539 C540 1.366 . S
C539 C541 1.388 . S
C540 C539 1.366 . S
C540 C544 1.385 . S
C541 H516 0.951 . S
C541 C539 1.388 . S
C541 C542 1.366 . S
C542 C541 1.366 . S
C542 C543 1.414 . S
C542 C545 1.499 . S
C543 H517 0.950 . S
C543 C542 1.414 . S
C543 C544 1.374 . S
C544 H518 0.950 . S
C544 C540 1.385 . S
C544 C543 1.374 . S
C545 C542 1.499 . S
C545 C546 1.373 . S
C545 C547 1.389 . S
C546 H519 0.950 . S
C546 C532 1.377 1_455 S
C546 C545 1.373 . S
C547 C531 1.377 1_455 S
C547 C545 1.389 . S
C547 C548 1.524 . S
C548 C547 1.524 . S
C548 C549 1.397 . S
C548 C553 1.363 . S
C549 H520 0.950 . S
C549 C548 1.397 . S
C549 C550 1.334 . S
C550 H521 0.950 . S
C550 C549 1.334 . S
C550 C551 1.287 . S
C551 C550 1.287 . S
C551 C552 1.524 . S
C551 H554 0.999 . S
C552 H522 0.950 . S
C552 C551 1.524 . S
C552 C553 1.415 . S
C553 H523 0.950 1_455 S
C553 C548 1.363 . S
C553 C552 1.415 . S
H554 C551 0.999 . S
H555 C536 0.913 . S
H556 C574 0.951 . S
H557 C576 0.951 . S
H558 C578 0.950 . S
H559 C579 0.950 . S
H560 C581 0.950 . S
H561 C584 0.950 . S
H562 C585 0.950 . S
H563 C587 0.950 . S
H564 C588 0.950 . S
H565 C589 0.951 . S
H566 C591 0.951 . S
H567 C593 0.950 . S
H568 C594 0.950 . S
H569 C596 0.950 . S
H570 C599 0.950 . S
H571 C600 0.950 . S
H572 C602 0.950 . S
H573 C603 0.950 . S
C574 H556 0.951 . S
C574 C575 1.366 . S
C574 C576 1.388 . S
C575 C574 1.366 . S
C575 C579 1.385 . S
C576 H557 0.951 . S
C576 C574 1.388 . S
C576 C577 1.366 . S
C577 C576 1.366 . S
C577 C578 1.414 . S
C577 C580 1.499 . S
C578 H558 0.950 . S
C578 C577 1.414 . S
C578 C579 1.374 . S
C579 H559 0.950 . S
C579 C575 1.385 . S
C579 C578 1.374 . S
C580 C577 1.499 . S
C580 C581 1.373 . S
C580 C582 1.389 . S
C581 H560 0.950 . S
C581 C580 1.373 . S
C581 C597 1.377 1_545 S
C582 C580 1.389 . S
C582 C583 1.524 . S
C582 C596 1.377 1_545 S
C583 C582 1.524 . S
C583 C584 1.397 . S
C583 C588 1.363 . S
C584 H561 0.950 . S
C584 C583 1.397 . S
C584 C585 1.334 . S
C585 H562 0.950 . S
C585 C584 1.334 . S
C585 C586 1.287 . S
C586 C585 1.287 . S
C586 C587 1.524 . S
C586 H605 0.913 . S
C587 H563 0.950 . S
C587 C586 1.524 . S
C587 C588 1.415 . S
C588 H564 0.950 . S
C588 C583 1.363 . S
C588 C587 1.415 . S
C589 H565 0.951 . S
C589 C590 1.366 . S
C589 C591 1.388 . S
C590 C589 1.366 . S
C590 C594 1.385 . S
C591 H566 0.951 . S
C591 C589 1.388 . S
C591 C592 1.366 . S
C592 C591 1.366 . S
C592 C593 1.414 . S
C592 C595 1.499 . S
C593 H567 0.950 . S
C593 C592 1.414 . S
C593 C594 1.374 . S
C594 H568 0.950 . S
C594 C590 1.385 . S
C594 C593 1.374 . S
C595 C592 1.499 . S
C595 C596 1.373 . S
C595 C597 1.389 . S
C596 H569 0.950 . S
C596 C582 1.377 1_565 S
C596 C595 1.373 . S
C597 C581 1.377 1_565 S
C597 C595 1.389 . S
C597 C598 1.524 . S
C598 C597 1.524 . S
C598 C599 1.397 . S
C598 C603 1.363 . S
C599 H570 0.950 . S
C599 C598 1.397 . S
C599 C600 1.334 . S
C600 H571 0.950 . S
C600 C599 1.334 . S
C600 C601 1.287 . S
C601 C600 1.287 . S
C601 C602 1.524 . S
C601 H604 0.999 . S
C602 H572 0.950 . S
C602 C601 1.524 . S
C602 C603 1.415 . S
C603 H573 0.950 . S
C603 C598 1.363 . S
C603 C602 1.415 . S
H604 C601 0.999 . S
H605 C586 0.913 . S
H606 C624 0.951 . S
H607 C626 0.951 . S
H608 C628 0.950 . S
H609 C629 0.950 . S
H610 C631 0.950 . S
H611 C634 0.950 . S
H612 C635 0.950 . S
H613 C637 0.950 . S
H614 C638 0.950 . S
H615 C639 0.951 . S
H616 C641 0.951 . S
H617 C643 0.950 . S
H618 C644 0.950 . S
H619 C646 0.950 . S
H620 C649 0.950 . S
H621 C650 0.950 . S
H622 C652 0.950 . S
H623 C653 0.950 . S
C624 H606 0.951 . S
C624 C625 1.366 . S
C624 C626 1.388 . S
C625 C624 1.366 . S
C625 C629 1.385 . S
C626 H607 0.951 . S
C626 C624 1.388 . S
C626 C627 1.366 . S
C627 C626 1.366 . S
C627 C628 1.414 . S
C627 C630 1.499 . S
C628 H608 0.950 . S
C628 C627 1.414 . S
C628 C629 1.374 . S
C629 H609 0.950 . S
C629 C625 1.385 . S
C629 C628 1.374 . S
C630 C627 1.499 . S
C630 C631 1.373 . S
C630 C632 1.389 . S
C631 H610 0.950 . S
C631 C630 1.373 . S
C631 C647 1.377 . S
C632 C630 1.389 . S
C632 C633 1.524 . S
C632 C646 1.377 . S
C633 C632 1.524 . S
C633 C634 1.397 . S
C633 C638 1.363 . S
C634 H611 0.950 . S
C634 C633 1.397 . S
C634 C635 1.334 . S
C635 H612 0.950 . S
C635 C634 1.334 . S
C635 C636 1.287 . S
C636 C635 1.287 . S
C636 C637 1.524 . S
C636 H655 0.913 . S
C637 H613 0.950 . S
C637 C636 1.524 . S
C637 C638 1.415 . S
C638 H614 0.950 . S
C638 C633 1.363 . S
C638 C637 1.415 . S
C639 H615 0.951 . S
C639 C640 1.366 . S
C639 C641 1.388 . S
C640 C639 1.366 . S
C640 C644 1.385 . S
C641 H616 0.951 . S
C641 C639 1.388 . S
C641 C642 1.366 . S
C642 C641 1.366 . S
C642 C643 1.414 . S
C642 C645 1.499 . S
C643 H617 0.950 . S
C643 C642 1.414 . S
C643 C644 1.374 . S
C644 H618 0.950 . S
C644 C640 1.385 . S
C644 C643 1.374 . S
C645 C642 1.499 . S
C645 C646 1.373 . S
C645 C647 1.389 . S
C646 H619 0.950 . S
C646 C632 1.377 . S
C646 C645 1.373 . S
C647 C631 1.377 . S
C647 C645 1.389 . S
C647 C648 1.524 . S
C648 C647 1.524 . S
C648 C649 1.397 . S
C648 C653 1.363 . S
C649 H620 0.950 . S
C649 C648 1.397 . S
C649 C650 1.334 . S
C650 H621 0.950 . S
C650 C649 1.334 . S
C650 C651 1.287 . S
C651 C650 1.287 . S
C651 C652 1.524 . S
C651 H654 0.999 . S
C652 H622 0.950 . S
C652 C651 1.524 . S
C652 C653 1.415 . S
C653 H623 0.950 . S
C653 C648 1.363 . S
C653 C652 1.415 . S
H654 C651 0.999 . S
H655 C636 0.913 . S
H656 C674 0.951 . S
H657 C676 0.951 . S
H658 C678 0.950 . S
H659 C679 0.950 . S
H660 C681 0.950 . S
H661 C684 0.950 . S
H662 C685 0.950 . S
H663 C687 0.950 . S
H664 C688 0.950 . S
H665 C689 0.951 . S
H666 C691 0.951 . S
H667 C693 0.950 . S
H668 C694 0.950 . S
H669 C696 0.950 . S
H670 C699 0.950 . S
H671 C700 0.950 . S
H672 C702 0.950 . S
H673 C703 0.950 . S
C674 H656 0.951 . S
C674 C675 1.366 . S
C674 C676 1.388 . S
C675 C674 1.366 . S
C675 C679 1.385 . S
C676 H657 0.951 . S
C676 C674 1.388 . S
C676 C677 1.366 . S
C677 C676 1.366 . S
C677 C678 1.414 . S
C677 C680 1.499 . S
C678 H658 0.950 . S
C678 C677 1.414 . S
C678 C679 1.374 . S
C679 H659 0.950 . S
C679 C675 1.385 . S
C679 C678 1.374 . S
C680 C677 1.499 . S
C680 C681 1.373 . S
C680 C682 1.389 . S
C681 H660 0.950 . S
C681 C680 1.373 . S
C681 C697 1.377 1_655 S
C682 C680 1.389 . S
C682 C683 1.524 . S
C682 C696 1.377 1_655 S
C683 C682 1.524 . S
C683 C684 1.397 . S
C683 C688 1.363 . S
C684 H661 0.950 . S
C684 C683 1.397 . S
C684 C685 1.334 . S
C685 H662 0.950 . S
C685 C684 1.334 . S
C685 C686 1.287 . S
C686 C685 1.287 . S
C686 C687 1.524 . S
C686 H705 0.913 . S
C687 H663 0.950 . S
C687 C686 1.524 . S
C687 C688 1.415 . S
C688 H664 0.950 . S
C688 C683 1.363 . S
C688 C687 1.415 . S
C689 H665 0.951 . S
C689 C690 1.366 . S
C689 C691 1.388 . S
C690 C689 1.366 . S
C690 C694 1.385 . S
C691 H666 0.951 . S
C691 C689 1.388 . S
C691 C692 1.366 . S
C692 C691 1.366 . S
C692 C693 1.414 . S
C692 C695 1.499 . S
C693 H667 0.950 . S
C693 C692 1.414 . S
C693 C694 1.374 . S
C694 H668 0.950 . S
C694 C690 1.385 . S
C694 C693 1.374 . S
C695 C692 1.499 . S
C695 C696 1.373 . S
C695 C697 1.389 . S
C696 H669 0.950 . S
C696 C682 1.377 1_455 S
C696 C695 1.373 . S
C697 C681 1.377 1_455 S
C697 C695 1.389 . S
C697 C698 1.524 . S
C698 C697 1.524 . S
C698 C699 1.397 . S
C698 C703 1.363 . S
C699 H670 0.950 . S
C699 C698 1.397 . S
C699 C700 1.334 . S
C700 H671 0.950 . S
C700 C699 1.334 . S
C700 C701 1.287 . S
C701 C700 1.287 . S
C701 C702 1.524 . S
C701 H704 0.999 . S
C702 H672 0.950 . S
C702 C701 1.524 . S
C702 C703 1.415 . S
C703 H673 0.950 . S
C703 C698 1.363 . S
C703 C702 1.415 . S
H704 C701 0.999 . S
H705 C686 0.913 . S
H706 C724 0.951 . S
H707 C726 0.951 . S
H708 C728 0.950 . S
H709 C729 0.950 . S
H710 C731 0.950 . S
H711 C734 0.950 1_556 S
H712 C735 0.950 . S
H713 C737 0.958 . S
H714 C738 0.950 1_545 S
H715 C739 0.951 . S
H716 C741 0.951 . S
H717 C743 0.950 . S
H718 C744 0.950 . S
H719 C746 0.950 . S
H720 C749 0.950 1_554 S
H721 C750 0.950 . S
H722 C752 0.958 . S
H723 C753 0.950 1_565 S
C724 H706 0.951 . S
C724 C725 1.366 . S
C724 C726 1.388 . S
C725 C724 1.366 . S
C725 C729 1.385 . S
C726 H707 0.951 . S
C726 C724 1.388 . S
C726 C727 1.366 . S
C727 C726 1.366 . S
C727 C728 1.414 . S
C727 C730 1.499 . S
C728 H708 0.950 . S
C728 C727 1.414 . S
C728 C729 1.374 . S
C729 H709 0.950 . S
C729 C725 1.385 . S
C729 C728 1.374 . S
C730 C727 1.499 . S
C730 C731 1.373 . S
C730 C732 1.389 . S
C731 H710 0.950 . S
C731 C730 1.373 . S
C731 C747 1.377 1_564 S
C732 C730 1.389 . S
C732 C733 1.524 . S
C732 C746 1.377 1_564 S
C733 C732 1.524 . S
C733 C734 1.397 . S
C733 C738 1.363 . S
C734 H711 0.950 1_554 S
C734 C733 1.397 . S
C734 C735 1.334 . S
C735 H712 0.950 . S
C735 C734 1.334 . S
C735 C736 1.287 . S
C736 C735 1.287 . S
C736 C737 1.524 . S
C736 H755 0.913 . S
C737 H713 0.958 . S
C737 C736 1.524 . S
C737 C738 1.415 . S
C738 H714 0.950 1_565 S
C738 C733 1.363 . S
C738 C737 1.415 . S
C739 H715 0.951 . S
C739 C740 1.366 . S
C739 C741 1.388 . S
C740 C739 1.366 . S
C740 C744 1.385 . S
C741 H716 0.951 . S
C741 C739 1.388 . S
C741 C742 1.366 . S
C742 C741 1.366 . S
C742 C743 1.414 . S
C742 C745 1.499 . S
C743 H717 0.950 . S
C743 C742 1.414 . S
C743 C744 1.374 . S
C744 H718 0.950 . S
C744 C740 1.385 . S
C744 C743 1.374 . S
C745 C742 1.499 . S
C745 C746 1.373 . S
C745 C747 1.389 . S
C746 H719 0.950 . S
C746 C732 1.377 1_546 S
C746 C745 1.373 . S
C747 C731 1.377 1_546 S
C747 C745 1.389 . S
C747 C748 1.524 . S
C748 C747 1.524 . S
C748 C749 1.397 . S
C748 C753 1.363 . S
C749 H720 0.950 1_556 S
C749 C748 1.397 . S
C749 C750 1.334 . S
C750 H721 0.950 . S
C750 C749 1.334 . S
C750 C751 1.287 . S
C751 C750 1.287 . S
C751 C752 1.524 . S
C751 H754 0.999 . S
C752 H722 0.958 . S
C752 C751 1.524 . S
C752 C753 1.415 . S
C753 H723 0.950 1_545 S
C753 C748 1.363 . S
C753 C752 1.415 . S
H754 C751 0.999 . S
H755 C736 0.913 . S
H756 C774 0.951 . S
H757 C776 0.951 . S
H758 C778 0.950 . S
H759 C779 0.950 . S
H760 C781 0.950 . S
H761 C784 0.950 . S
H762 C785 0.950 . S
H763 C787 0.950 . S
H764 C788 0.950 . S
H765 C789 0.951 . S
H766 C791 0.951 . S
H767 C793 0.950 . S
H768 C794 0.950 . S
H769 C796 0.950 . S
H770 C799 0.950 . S
H771 C800 0.950 . S
H772 C802 0.950 . S
H773 C803 0.950 . S
C774 H756 0.951 . S
C774 C775 1.366 . S
C774 C776 1.388 . S
C775 C774 1.366 . S
C775 C779 1.385 . S
C776 H757 0.951 . S
C776 C774 1.388 . S
C776 C777 1.366 . S
C777 C776 1.366 . S
C777 C778 1.414 . S
C777 C780 1.499 . S
C778 H758 0.950 . S
C778 C777 1.414 . S
C778 C779 1.374 . S
C779 H759 0.950 . S
C779 C775 1.385 . S
C779 C778 1.374 . S
C780 C777 1.499 . S
C780 C781 1.373 . S
C780 C782 1.389 . S
C781 H760 0.950 . S
C781 C780 1.373 . S
C781 C797 1.377 . S
C782 C780 1.389 . S
C782 C783 1.524 1_554 S
C782 C796 1.377 1_554 S
C783 C782 1.524 1_556 S
C783 C784 1.397 1_556 S
C783 C788 1.363 . S
C784 H761 0.950 . S
C784 C783 1.397 1_554 S
C784 C785 1.334 1_554 S
C785 H762 0.950 . S
C785 C784 1.334 1_556 S
C785 C786 1.287 . S
C786 C785 1.287 . S
C786 C787 1.524 . S
C786 H805 0.913 . S
C787 H763 0.950 . S
C787 C786 1.524 . S
C787 C788 1.415 . S
C788 H764 0.950 . S
C788 C783 1.363 . S
C788 C787 1.415 . S
C789 H765 0.951 . S
C789 C790 1.366 . S
C789 C791 1.388 . S
C790 C789 1.366 . S
C790 C794 1.385 . S
C791 H766 0.951 . S
C791 C789 1.388 . S
C791 C792 1.366 . S
C792 C791 1.366 . S
C792 C793 1.414 . S
C792 C795 1.499 1_556 S
C793 H767 0.950 . S
C793 C792 1.414 . S
C793 C794 1.374 . S
C794 H768 0.950 . S
C794 C790 1.385 . S
C794 C793 1.374 . S
C795 C792 1.499 1_554 S
C795 C796 1.373 1_554 S
C795 C797 1.389 . S
C796 H769 0.950 . S
C796 C782 1.377 1_556 S
C796 C795 1.373 1_556 S
C797 C781 1.377 . S
C797 C795 1.389 . S
C797 C798 1.524 . S
C798 C797 1.524 . S
C798 C799 1.397 . S
C798 C803 1.363 . S
C799 H770 0.950 . S
C799 C798 1.397 . S
C799 C800 1.334 . S
C800 H771 0.950 . S
C800 C799 1.334 . S
C800 C801 1.287 . S
C801 C800 1.287 . S
C801 C802 1.524 . S
C801 H804 0.999 . S
C802 H772 0.950 . S
C802 C801 1.524 . S
C802 C803 1.415 . S
C803 H773 0.950 . S
C803 C798 1.363 . S
C803 C802 1.415 . S
H804 C801 0.999 . S
H805 C786 0.913 . S
H806 C824 0.951 . S
H807 C826 0.951 . S
H808 C828 0.950 . S
H809 C829 0.950 . S
H810 C831 0.950 . S
H811 C834 0.950 . S
H812 C835 0.950 . S
H813 C837 0.950 . S
H814 C838 0.950 . S
H815 C839 0.951 . S
H816 C841 0.951 . S
H817 C843 0.950 . S
H818 C844 0.950 . S
H819 C846 0.950 . S
H820 C849 0.950 . S
H821 C850 0.950 . S
H822 C852 0.950 . S
H823 C853 0.950 . S
C824 H806 0.951 . S
C824 C825 1.366 . S
C824 C826 1.388 . S
C825 C824 1.366 . S
C825 C829 1.385 . S
C826 H807 0.951 . S
C826 C824 1.388 . S
C826 C827 1.366 . S
C827 C826 1.366 . S
C827 C828 1.414 . S
C827 C830 1.499 . S
C828 H808 0.950 . S
C828 C827 1.414 . S
C828 C829 1.374 . S
C829 H809 0.950 . S
C829 C825 1.385 . S
C829 C828 1.374 . S
C830 C827 1.499 . S
C830 C831 1.373 . S
C830 C832 1.389 . S
C831 H810 0.950 . S
C831 C830 1.373 . S
C831 C847 1.377 1_655 S
C832 C830 1.389 . S
C832 C833 1.524 . S
C832 C846 1.377 . S
C833 C832 1.524 . S
C833 C834 1.397 . S
C833 C838 1.363 . S
C834 H811 0.950 . S
C834 C833 1.397 . S
C834 C835 1.334 . S
C835 H812 0.950 . S
C835 C834 1.334 . S
C835 C836 1.287 . S
C836 C835 1.287 . S
C836 C837 1.524 . S
C836 H855 0.913 . S
C837 H813 0.950 . S
C837 C836 1.524 . S
C837 C838 1.415 . S
C838 H814 0.950 . S
C838 C833 1.363 . S
C838 C837 1.415 . S
C839 H815 0.951 . S
C839 C840 1.366 . S
C839 C841 1.388 . S
C840 C839 1.366 . S
C840 C844 1.385 . S
C841 H816 0.951 . S
C841 C839 1.388 . S
C841 C842 1.366 . S
C842 C841 1.366 . S
C842 C843 1.414 . S
C842 C845 1.499 . S
C843 H817 0.950 . S
C843 C842 1.414 . S
C843 C844 1.374 . S
C844 H818 0.950 . S
C844 C840 1.385 . S
C844 C843 1.374 . S
C845 C842 1.499 . S
C845 C846 1.373 1_455 S
C845 C847 1.389 . S
C846 H819 0.950 . S
C846 C832 1.377 . S
C846 C845 1.373 1_655 S
C847 C831 1.377 1_455 S
C847 C845 1.389 . S
C847 C848 1.524 . S
C848 C847 1.524 . S
C848 C849 1.397 . S
C848 C853 1.363 . S
C849 H820 0.950 . S
C849 C848 1.397 . S
C849 C850 1.334 . S
C850 H821 0.950 . S
C850 C849 1.334 . S
C850 C851 1.287 . S
C851 C850 1.287 . S
C851 C852 1.524 . S
C851 H854 0.999 . S
C852 H822 0.950 . S
C852 C851 1.524 . S
C852 C853 1.415 . S
C853 H823 0.950 . S
C853 C848 1.363 . S
C853 C852 1.415 . S
H854 C851 0.999 . S
H855 C836 0.913 . S
H856 C874 0.951 . S
H857 C876 0.951 . S
H858 C878 0.950 . S
H859 C879 0.950 . S
H860 C881 0.950 . S
H861 C884 0.950 . S
H862 C885 0.950 . S
H863 C887 0.950 . S
H864 C888 0.950 . S
H865 C889 0.951 . S
H866 C891 0.951 . S
H867 C893 0.950 . S
H868 C894 0.950 . S
H869 C896 0.950 . S
H870 C899 0.950 . S
H871 C900 0.950 . S
H872 C902 0.950 . S
H873 C903 0.950 . S
C874 H856 0.951 . S
C874 C875 1.366 . S
C874 C876 1.388 . S
C875 C874 1.366 . S
C875 C879 1.385 . S
C876 H857 0.951 . S
C876 C874 1.388 . S
C876 C877 1.366 . S
C877 C876 1.366 . S
C877 C878 1.414 . S
C877 C880 1.499 . S
C878 H858 0.950 . S
C878 C877 1.414 . S
C878 C879 1.374 . S
C879 H859 0.950 . S
C879 C875 1.385 . S
C879 C878 1.374 . S
C880 C877 1.499 . S
C880 C881 1.373 1_545 S
C880 C882 1.389 . S
C881 H860 0.950 . S
C881 C880 1.373 1_565 S
C881 C897 1.377 . S
C882 C880 1.389 . S
C882 C883 1.524 . S
C882 C896 1.377 1_545 S
C883 C882 1.524 . S
C883 C884 1.397 . S
C883 C888 1.363 . S
C884 H861 0.950 . S
C884 C883 1.397 . S
C884 C885 1.334 . S
C885 H862 0.950 . S
C885 C884 1.334 . S
C885 C886 1.287 . S
C886 C885 1.287 . S
C886 C887 1.524 . S
C886 H905 0.913 . S
C887 H863 0.950 . S
C887 C886 1.524 . S
C887 C888 1.415 . S
C888 H864 0.950 . S
C888 C883 1.363 . S
C888 C887 1.415 . S
C889 H865 0.951 . S
C889 C890 1.366 . S
C889 C891 1.388 . S
C890 C889 1.366 . S
C890 C894 1.385 . S
C891 H866 0.951 . S
C891 C889 1.388 . S
C891 C892 1.366 . S
C892 C891 1.366 . S
C892 C893 1.414 . S
C892 C895 1.499 . S
C893 H867 0.950 . S
C893 C892 1.414 . S
C893 C894 1.374 . S
C894 H868 0.950 . S
C894 C890 1.385 . S
C894 C893 1.374 . S
C895 C892 1.499 . S
C895 C896 1.373 . S
C895 C897 1.389 . S
C896 H869 0.950 . S
C896 C882 1.377 1_565 S
C896 C895 1.373 . S
C897 C881 1.377 . S
C897 C895 1.389 . S
C897 C898 1.524 . S
C898 C897 1.524 . S
C898 C899 1.397 . S
C898 C903 1.363 . S
C899 H870 0.950 . S
C899 C898 1.397 . S
C899 C900 1.334 . S
C900 H871 0.950 . S
C900 C899 1.334 . S
C900 C901 1.287 . S
C901 C900 1.287 . S
C901 C902 1.524 . S
C901 H904 0.999 . S
C902 H872 0.950 . S
C902 C901 1.524 . S
C902 C903 1.415 . S
C903 H873 0.950 . S
C903 C898 1.363 . S
C903 C902 1.415 . S
H904 C901 0.999 . S
H905 C886 0.913 . S
H906 C924 0.951 . S
H907 C926 0.951 . S
H908 C928 0.950 . S
H909 C929 0.950 . S
H910 C931 0.950 . S
H911 C934 0.950 . S
H912 C935 0.950 . S
H913 C937 0.950 . S
H914 C938 0.950 . S
H915 C939 0.951 . S
H916 C941 0.951 . S
H917 C943 0.950 . S
H918 C944 0.950 . S
H919 C946 0.950 . S
H920 C949 0.950 . S
H921 C950 0.950 . S
H922 C952 0.950 . S
H923 C953 0.950 . S
C924 H906 0.951 . S
C924 C925 1.366 . S
C924 C926 1.388 . S
C925 C924 1.366 . S
C925 C929 1.385 . S
C926 H907 0.951 . S
C926 C924 1.388 . S
C926 C927 1.366 . S
C927 C926 1.366 . S
C927 C928 1.414 . S
C927 C930 1.499 . S
C928 H908 0.950 . S
C928 C927 1.414 . S
C928 C929 1.374 . S
C929 H909 0.950 . S
C929 C925 1.385 . S
C929 C928 1.374 . S
C930 C927 1.499 . S
C930 C931 1.373 . S
C930 C932 1.389 . S
C931 H910 0.950 . S
C931 C930 1.373 . S
C931 C947 1.377 . S
C932 C930 1.389 . S
C932 C933 1.524 . S
C932 C946 1.377 . S
C933 C932 1.524 . S
C933 C934 1.397 . S
C933 C938 1.363 . S
C934 H911 0.950 . S
C934 C933 1.397 . S
C934 C935 1.334 . S
C935 H912 0.950 . S
C935 C934 1.334 . S
C935 C936 1.287 . S
C936 C935 1.287 . S
C936 C937 1.524 . S
C936 H955 0.913 . S
C937 H913 0.950 . S
C937 C936 1.524 . S
C937 C938 1.415 . S
C938 H914 0.950 . S
C938 C933 1.363 . S
C938 C937 1.415 . S
C939 H915 0.951 . S
C939 C940 1.366 . S
C939 C941 1.388 . S
C940 C939 1.366 . S
C940 C944 1.385 . S
C941 H916 0.951 . S
C941 C939 1.388 . S
C941 C942 1.366 . S
C942 C941 1.366 . S
C942 C943 1.414 . S
C942 C945 1.499 . S
C943 H917 0.950 . S
C943 C942 1.414 . S
C943 C944 1.374 . S
C944 H918 0.950 . S
C944 C940 1.385 . S
C944 C943 1.374 . S
C945 C942 1.499 . S
C945 C946 1.373 . S
C945 C947 1.389 . S
C946 H919 0.950 . S
C946 C932 1.377 . S
C946 C945 1.373 . S
C947 C931 1.377 . S
C947 C945 1.389 . S
C947 C948 1.524 . S
C948 C947 1.524 . S
C948 C949 1.397 . S
C948 C953 1.363 . S
C949 H920 0.950 . S
C949 C948 1.397 . S
C949 C950 1.334 . S
C950 H921 0.950 . S
C950 C949 1.334 . S
C950 C951 1.287 . S
C951 C950 1.287 . S
C951 C952 1.524 . S
C951 H954 0.999 . S
C952 H922 0.950 . S
C952 C951 1.524 . S
C952 C953 1.415 . S
C953 H923 0.950 . S
C953 C948 1.363 . S
C953 C952 1.415 . S
H954 C951 0.999 . S
H955 C936 0.913 . S
H956 C974 0.951 . S
H957 C976 0.951 . S
H958 C978 0.950 . S
H959 C979 0.950 . S
H960 C981 0.950 . S
H961 C984 0.950 . S
H962 C985 0.950 . S
H963 C987 0.950 . S
H964 C988 0.950 . S
H965 C989 0.951 . S
H966 C991 0.951 . S
H967 C993 0.950 . S
H968 C994 0.950 . S
H969 C996 0.950 . S
H970 C999 0.950 . S
H971 C1000 0.950 . S
H972 C1002 0.950 . S
H973 C1003 0.950 . S
C974 H956 0.951 . S
C974 C975 1.366 . S
C974 C976 1.388 . S
C975 C974 1.366 . S
C975 C979 1.385 . S
C976 H957 0.951 . S
C976 C974 1.388 . S
C976 C977 1.366 . S
C977 C976 1.366 . S
C977 C978 1.414 . S
C977 C980 1.499 . S
C978 H958 0.950 . S
C978 C977 1.414 . S
C978 C979 1.374 . S
C979 H959 0.950 . S
C979 C975 1.385 . S
C979 C978 1.374 . S
C980 C977 1.499 . S
C980 C981 1.373 . S
C980 C982 1.389 . S
C981 H960 0.950 . S
C981 C980 1.373 . S
C981 C997 1.377 1_455 S
C982 C980 1.389 . S
C982 C983 1.524 . S
C982 C996 1.377 . S
C983 C982 1.524 . S
C983 C984 1.397 . S
C983 C988 1.363 . S
C984 H961 0.950 . S
C984 C983 1.397 . S
C984 C985 1.334 . S
C985 H962 0.950 . S
C985 C984 1.334 . S
C985 C986 1.287 . S
C986 C985 1.287 . S
C986 C987 1.524 . S
C986 H1005 0.913 . S
C987 H963 0.950 . S
C987 C986 1.524 . S
C987 C988 1.415 . S
C988 H964 0.950 . S
C988 C983 1.363 . S
C988 C987 1.415 . S
C989 H965 0.951 . S
C989 C990 1.366 . S
C989 C991 1.388 . S
C990 C989 1.366 . S
C990 C994 1.385 . S
C991 H966 0.951 . S
C991 C989 1.388 . S
C991 C992 1.366 . S
C992 C991 1.366 . S
C992 C993 1.414 . S
C992 C995 1.499 . S
C993 H967 0.950 . S
C993 C992 1.414 . S
C993 C994 1.374 . S
C994 H968 0.950 . S
C994 C990 1.385 . S
C994 C993 1.374 . S
C995 C992 1.499 . S
C995 C996 1.373 1_655 S
C995 C997 1.389 . S
C996 H969 0.950 . S
C996 C982 1.377 . S
C996 C995 1.373 1_455 S
C997 C981 1.377 1_655 S
C997 C995 1.389 . S
C997 C998 1.524 . S
C998 C997 1.524 . S
C998 C999 1.397 . S
C998 C1003 1.363 . S
C999 H970 0.950 . S
C999 C998 1.397 . S
C999 C1000 1.334 . S
C1000 H971 0.950 . S
C1000 C999 1.334 . S
C1000 C1001 1.287 . S
C1001 C1000 1.287 . S
C1001 C1002 1.524 . S
C1001 H1004 0.999 . S
C1002 H972 0.950 . S
C1002 C1001 1.524 . S
C1002 C1003 1.415 . S
C1003 H973 0.950 . S
C1003 C998 1.363 . S
C1003 C1002 1.415 . S
H1004 C1001 0.999 . S
H1005 C986 0.913 . S
H1006 C1024 0.951 . S
H1007 C1026 0.951 . S
H1008 C1028 0.950 . S
H1009 C1029 0.950 . S
H1010 C1031 0.950 . S
H1011 C1034 0.950 . S
H1012 C1035 0.950 . S
H1013 C1037 0.950 . S
H1014 C1038 0.950 . S
H1015 C1039 0.951 . S
H1016 C1041 0.951 . S
H1017 C1043 0.950 . S
H1018 C1044 0.950 . S
H1019 C1046 0.950 1_565 S
H1020 C1049 0.950 . S
H1021 C1050 0.950 . S
H1022 C1052 0.950 . S
H1023 C1053 0.950 . S
C1024 H1006 0.951 . S
C1024 C1025 1.366 . S
C1024 C1026 1.388 . S
C1025 C1024 1.366 . S
C1025 C1029 1.385 . S
C1026 H1007 0.951 . S
C1026 C1024 1.388 . S
C1026 C1027 1.366 . S
C1027 C1026 1.366 . S
C1027 C1028 1.414 . S
C1027 C1030 1.499 . S
C1028 H1008 0.950 . S
C1028 C1027 1.414 . S
C1028 C1029 1.374 . S
C1029 H1009 0.950 . S
C1029 C1025 1.385 . S
C1029 C1028 1.374 . S
C1030 C1027 1.499 . S
C1030 C1031 1.373 . S
C1030 C1032 1.389 . S
C1031 H1010 0.950 . S
C1031 C1030 1.373 . S
C1031 C1047 1.377 . S
C1032 C1030 1.389 . S
C1032 C1033 1.524 . S
C1032 C1046 1.377 . S
C1033 C1032 1.524 . S
C1033 C1034 1.397 . S
C1033 C1038 1.363 . S
C1034 H1011 0.950 . S
C1034 C1033 1.397 . S
C1034 C1035 1.334 . S
C1035 H1012 0.950 . S
C1035 C1034 1.334 . S
C1035 C1036 1.287 . S
C1036 C1035 1.287 . S
C1036 C1037 1.524 . S
C1036 H1055 0.913 . S
C1037 H1013 0.950 . S
C1037 C1036 1.524 . S
C1037 C1038 1.415 . S
C1038 H1014 0.950 . S
C1038 C1033 1.363 . S
C1038 C1037 1.415 . S
C1039 H1015 0.951 . S
C1039 C1040 1.366 . S
C1039 C1041 1.388 . S
C1040 C1039 1.366 . S
C1040 C1044 1.385 . S
C1041 H1016 0.951 . S
C1041 C1039 1.388 . S
C1041 C1042 1.366 . S
C1042 C1041 1.366 . S
C1042 C1043 1.414 . S
C1042 C1045 1.499 . S
C1043 H1017 0.950 . S
C1043 C1042 1.414 . S
C1043 C1044 1.374 . S
C1044 H1018 0.950 . S
C1044 C1040 1.385 . S
C1044 C1043 1.374 . S
C1045 C1042 1.499 . S
C1045 C1046 1.373 1_565 S
C1045 C1047 1.389 1_565 S
C1046 H1019 0.950 1_545 S
C1046 C1032 1.377 . S
C1046 C1045 1.373 1_545 S
C1047 C1031 1.377 . S
C1047 C1045 1.389 1_545 S
C1047 C1048 1.524 . S
C1048 C1047 1.524 . S
C1048 C1049 1.397 . S
C1048 C1053 1.363 . S
C1049 H1020 0.950 . S
C1049 C1048 1.397 . S
C1049 C1050 1.334 . S
C1050 H1021 0.950 . S
C1050 C1049 1.334 . S
C1050 C1051 1.287 . S
C1051 C1050 1.287 . S
C1051 C1052 1.524 1_545 S
C1051 H1054 0.992 1_545 S
C1052 H1022 0.950 . S
C1052 C1051 1.524 1_565 S
C1052 C1053 1.415 1_565 S
C1053 H1023 0.950 . S
C1053 C1048 1.363 . S
C1053 C1052 1.415 1_545 S
H1054 C1051 0.992 1_565 S
H1055 C1036 0.913 . S
H1056 C1074 0.951 . S
H1057 C1076 0.951 . S
H1058 C1078 0.950 . S
H1059 C1079 0.950 . S
H1060 C1081 0.950 . S
H1061 C1084 0.950 . S
H1062 C1085 0.950 . S
H1063 C1087 0.950 . S
H1064 C1088 0.950 . S
H1065 C1089 0.951 . S
H1066 C1091 0.951 . S
H1067 C1093 0.950 . S
H1068 C1094 0.950 . S
H1069 C1096 0.950 . S
H1070 C1099 0.950 . S
H1071 C1100 0.950 . S
H1072 C1102 0.950 . S
H1073 C1103 0.950 . S
C1074 H1056 0.951 . S
C1074 C1075 1.366 . S
C1074 C1076 1.388 . S
C1075 C1074 1.366 . S
C1075 C1079 1.385 . S
C1076 H1057 0.951 . S
C1076 C1074 1.388 . S
C1076 C1077 1.366 . S
C1077 C1076 1.366 . S
C1077 C1078 1.414 . S
C1077 C1080 1.499 . S
C1078 H1058 0.950 . S
C1078 C1077 1.414 . S
C1078 C1079 1.374 . S
C1079 H1059 0.950 . S
C1079 C1075 1.385 . S
C1079 C1078 1.374 . S
C1080 C1077 1.499 . S
C1080 C1081 1.373 . S
C1080 C1082 1.389 . S
C1081 H1060 0.950 . S
C1081 C1080 1.373 . S
C1081 C1097 1.377 . S
C1082 C1080 1.389 . S
C1082 C1083 1.524 . S
C1082 C1096 1.377 . S
C1083 C1082 1.524 . S
C1083 C1084 1.397 . S
C1083 C1088 1.363 . S
C1084 H1061 0.950 . S
C1084 C1083 1.397 . S
C1084 C1085 1.334 . S
C1085 H1062 0.950 . S
C1085 C1084 1.334 . S
C1085 C1086 1.287 . S
C1086 C1085 1.287 . S
C1086 C1087 1.524 . S
C1086 H1105 0.913 . S
C1087 H1063 0.950 . S
C1087 C1086 1.524 . S
C1087 C1088 1.415 . S
C1088 H1064 0.950 . S
C1088 C1083 1.363 . S
C1088 C1087 1.415 . S
C1089 H1065 0.951 . S
C1089 C1090 1.366 . S
C1089 C1091 1.388 . S
C1090 C1089 1.366 . S
C1090 C1094 1.385 . S
C1091 H1066 0.951 . S
C1091 C1089 1.388 . S
C1091 C1092 1.366 . S
C1092 C1091 1.366 . S
C1092 C1093 1.414 . S
C1092 C1095 1.499 . S
C1093 H1067 0.950 . S
C1093 C1092 1.414 . S
C1093 C1094 1.374 . S
C1094 H1068 0.950 . S
C1094 C1090 1.385 . S
C1094 C1093 1.374 . S
C1095 C1092 1.499 . S
C1095 C1096 1.373 . S
C1095 C1097 1.389 . S
C1096 H1069 0.950 . S
C1096 C1082 1.377 . S
C1096 C1095 1.373 . S
C1097 C1081 1.377 . S
C1097 C1095 1.389 . S
C1097 C1098 1.524 . S
C1098 C1097 1.524 . S
C1098 C1099 1.397 . S
C1098 C1103 1.363 . S
C1099 H1070 0.950 . S
C1099 C1098 1.397 . S
C1099 C1100 1.334 . S
C1100 H1071 0.950 . S
C1100 C1099 1.334 . S
C1100 C1101 1.287 . S
C1101 C1100 1.287 . S
C1101 C1102 1.524 . S
C1101 H1104 0.999 . S
C1102 H1072 0.950 . S
C1102 C1101 1.524 . S
C1102 C1103 1.415 . S
C1103 H1073 0.950 . S
C1103 C1098 1.363 . S
C1103 C1102 1.415 . S
H1104 C1101 0.999 . S
H1105 C1086 0.913 . S
H1106 C1124 0.951 . S
H1107 C1126 0.951 . S
H1108 C1128 0.950 . S
H1109 C1129 0.950 . S
H1110 C1131 0.950 . S
H1111 C1134 0.950 . S
H1112 C1135 0.950 . S
H1113 C1137 0.950 . S
H1114 C1138 0.950 . S
H1115 C1139 0.951 . S
H1116 C1141 0.951 . S
H1117 C1143 0.950 . S
H1118 C1144 0.950 . S
H1119 C1146 0.950 . S
H1120 C1149 0.950 . S
H1121 C1150 0.950 . S
H1122 C1152 0.950 . S
H1123 C1153 0.950 . S
C1124 H1106 0.951 . S
C1124 C1125 1.366 . S
C1124 C1126 1.388 . S
C1125 C1124 1.366 . S
C1125 C1129 1.385 . S
C1126 H1107 0.951 . S
C1126 C1124 1.388 . S
C1126 C1127 1.366 . S
C1127 C1126 1.366 . S
C1127 C1128 1.414 . S
C1127 C1130 1.499 . S
C1128 H1108 0.950 . S
C1128 C1127 1.414 . S
C1128 C1129 1.374 . S
C1129 H1109 0.950 . S
C1129 C1125 1.385 . S
C1129 C1128 1.374 . S
C1130 C1127 1.499 . S
C1130 C1131 1.373 . S
C1130 C1132 1.389 . S
C1131 H1110 0.950 . S
C1131 C1130 1.373 . S
C1131 C1147 1.377 1_556 S
C1132 C1130 1.389 . S
C1132 C1133 1.524 . S
C1132 C1146 1.377 1_655 S
C1133 C1132 1.524 . S
C1133 C1134 1.397 . S
C1133 C1138 1.363 1_655 S
C1134 H1111 0.950 . S
C1134 C1133 1.397 . S
C1134 C1135 1.334 . S
C1135 H1112 0.950 . S
C1135 C1134 1.334 . S
C1135 C1136 1.287 1_655 S
C1136 C1135 1.287 1_455 S
C1136 C1137 1.524 . S
C1136 H1155 0.913 . S
C1137 H1113 0.950 . S
C1137 C1136 1.524 . S
C1137 C1138 1.415 . S
C1138 H1114 0.950 . S
C1138 C1133 1.363 1_455 S
C1138 C1137 1.415 . S
C1139 H1115 0.951 . S
C1139 C1140 1.366 . S
C1139 C1141 1.388 . S
C1140 C1139 1.366 . S
C1140 C1144 1.385 . S
C1141 H1116 0.951 . S
C1141 C1139 1.388 . S
C1141 C1142 1.366 . S
C1142 C1141 1.366 . S
C1142 C1143 1.414 . S
C1142 C1145 1.466 1_554 S
C1143 H1117 0.950 . S
C1143 C1142 1.414 . S
C1143 C1144 1.374 . S
C1144 H1118 0.950 . S
C1144 C1140 1.385 . S
C1144 C1143 1.374 . S
C1145 C1142 1.466 1_556 S
C1145 C1146 1.421 . S
C1145 C1147 1.379 1_456 S
C1146 H1119 0.950 . S
C1146 C1132 1.377 1_455 S
C1146 C1145 1.421 . S
C1147 C1131 1.377 1_554 S
C1147 C1145 1.379 1_654 S
C1147 C1148 1.524 . S
C1148 C1147 1.524 . S
C1148 C1149 1.397 . S
C1148 C1153 1.363 . S
C1149 H1120 0.950 . S
C1149 C1148 1.397 . S
C1149 C1150 1.334 . S
C1150 H1121 0.950 . S
C1150 C1149 1.334 . S
C1150 C1151 1.287 . S
C1151 C1150 1.287 . S
C1151 C1152 1.524 . S
C1151 H1154 0.999 . S
C1152 H1122 0.950 . S
C1152 C1151 1.524 . S
C1152 C1153 1.415 . S
C1153 H1123 0.950 . S
C1153 C1148 1.363 . S
C1153 C1152 1.415 . S
H1154 C1151 0.999 . S
H1155 C1136 0.913 . S
H1156 C1174 0.951 . S
H1157 C1176 0.951 . S
H1158 C1178 0.950 . S
H1159 C1179 0.950 . S
H1160 C1181 0.950 . S
H1161 C1184 0.950 . S
H1162 C1185 0.950 . S
H1163 C1187 0.950 . S
H1164 C1188 0.950 . S
H1165 C1189 0.951 . S
H1166 C1191 0.951 . S
H1167 C1193 0.950 . S
H1168 C1194 0.950 . S
H1169 C1196 0.950 . S
H1170 C1199 0.950 1_545 S
H1171 C1200 0.950 1_545 S
H1172 C1202 0.950 . S
H1173 C1203 0.950 . S
C1174 H1156 0.951 . S
C1174 C1175 1.366 . S
C1174 C1176 1.388 . S
C1175 C1174 1.366 . S
C1175 C1179 1.385 . S
C1176 H1157 0.951 . S
C1176 C1174 1.388 . S
C1176 C1177 1.366 . S
C1177 C1176 1.366 . S
C1177 C1178 1.414 . S
C1177 C1180 1.499 . S
C1178 H1158 0.950 . S
C1178 C1177 1.414 . S
C1178 C1179 1.374 . S
C1179 H1159 0.950 . S
C1179 C1175 1.385 . S
C1179 C1178 1.374 . S
C1180 C1177 1.499 . S
C1180 C1181 1.373 . S
C1180 C1182 1.389 . S
C1181 H1160 0.950 . S
C1181 C1180 1.373 . S
C1181 C1197 1.377 . S
C1182 C1180 1.389 . S
C1182 C1183 1.524 . S
C1182 C1196 1.377 1_565 S
C1183 C1182 1.524 . S
C1183 C1184 1.397 . S
C1183 C1188 1.363 1_565 S
C1184 H1161 0.950 . S
C1184 C1183 1.397 . S
C1184 C1185 1.334 . S
C1185 H1162 0.950 . S
C1185 C1184 1.334 . S
C1185 C1186 1.287 . S
C1186 C1185 1.287 . S
C1186 C1187 1.524 1_565 S
C1186 H1205 0.913 . S
C1187 H1163 0.950 . S
C1187 C1186 1.524 1_545 S
C1187 C1188 1.415 . S
C1188 H1164 0.950 . S
C1188 C1183 1.363 1_545 S
C1188 C1187 1.415 . S
C1189 H1165 0.951 . S
C1189 C1190 1.366 . S
C1189 C1191 1.388 . S
C1190 C1189 1.366 . S
C1190 C1194 1.385 . S
C1191 H1166 0.951 . S
C1191 C1189 1.388 . S
C1191 C1192 1.366 . S
C1192 C1191 1.366 . S
C1192 C1193 1.414 . S
C1192 C1195 1.499 . S
C1193 H1167 0.950 . S
C1193 C1192 1.414 . S
C1193 C1194 1.374 . S
C1194 H1168 0.950 . S
C1194 C1190 1.385 . S
C1194 C1193 1.374 . S
C1195 C1192 1.499 . S
C1195 C1196 1.373 . S
C1195 C1197 1.389 1_545 S
C1196 H1169 0.950 . S
C1196 C1182 1.377 1_545 S
C1196 C1195 1.373 . S
C1197 C1181 1.377 . S
C1197 C1195 1.389 1_565 S
C1197 C1198 1.524 . S
C1198 C1197 1.524 . S
C1198 C1199 1.397 . S
C1198 C1203 1.363 . S
C1199 H1170 0.950 1_565 S
C1199 C1198 1.397 . S
C1199 C1200 1.334 . S
C1200 H1171 0.950 1_565 S
C1200 C1199 1.334 . S
C1200 C1201 1.287 . S
C1201 C1200 1.287 . S
C1201 C1202 1.524 . S
C1201 H1204 0.999 . S
C1202 H1172 0.950 . S
C1202 C1201 1.524 . S
C1202 C1203 1.415 . S
C1203 H1173 0.950 . S
C1203 C1198 1.363 . S
C1203 C1202 1.415 . S
H1204 C1201 0.999 . S
H1205 C1186 0.913 . S
H1206 C1224 0.951 . S
H1207 C1226 0.951 . S
H1208 C1228 0.950 . S
H1209 C1229 0.950 . S
H1210 C1231 0.950 . S
H1211 C1234 0.950 . S
H1212 C1235 0.950 . S
H1213 C1237 0.950 . S
H1214 C1238 0.950 . S
H1215 C1239 0.951 . S
H1216 C1241 0.951 . S
H1217 C1243 0.950 . S
H1218 C1244 0.950 . S
H1219 C1246 0.950 . S
H1220 C1249 0.950 . S
H1221 C1250 0.950 . S
H1222 C1252 0.950 . S
H1223 C1253 0.950 . S
C1224 H1206 0.951 . S
C1224 C1225 1.366 . S
C1224 C1226 1.388 . S
C1225 C1224 1.366 . S
C1225 C1229 1.385 . S
C1226 H1207 0.951 . S
C1226 C1224 1.388 . S
C1226 C1227 1.366 . S
C1227 C1226 1.366 . S
C1227 C1228 1.414 . S
C1227 C1230 1.499 . S
C1228 H1208 0.950 . S
C1228 C1227 1.414 . S
C1228 C1229 1.374 . S
C1229 H1209 0.950 . S
C1229 C1225 1.385 . S
C1229 C1228 1.374 . S
C1230 C1227 1.499 . S
C1230 C1231 1.373 . S
C1230 C1232 1.389 . S
C1231 H1210 0.950 . S
C1231 C1230 1.373 . S
C1231 C1247 1.377 . S
C1232 C1230 1.389 . S
C1232 C1233 1.524 . S
C1232 C1246 1.377 . S
C1233 C1232 1.524 . S
C1233 C1234 1.397 . S
C1233 C1238 1.363 . S
C1234 H1211 0.950 . S
C1234 C1233 1.397 . S
C1234 C1235 1.334 . S
C1235 H1212 0.950 . S
C1235 C1234 1.334 . S
C1235 C1236 1.287 . S
C1236 C1235 1.287 . S
C1236 C1237 1.524 . S
C1236 H1255 0.913 . S
C1237 H1213 0.950 . S
C1237 C1236 1.524 . S
C1237 C1238 1.415 . S
C1238 H1214 0.950 . S
C1238 C1233 1.363 . S
C1238 C1237 1.415 . S
C1239 H1215 0.951 . S
C1239 C1240 1.366 . S
C1239 C1241 1.388 . S
C1240 C1239 1.366 . S
C1240 C1244 1.385 . S
C1241 H1216 0.951 . S
C1241 C1239 1.388 . S
C1241 C1242 1.366 . S
C1242 C1241 1.366 . S
C1242 C1243 1.414 . S
C1242 C1245 1.499 . S
C1243 H1217 0.950 . S
C1243 C1242 1.414 . S
C1243 C1244 1.374 . S
C1244 H1218 0.950 . S
C1244 C1240 1.385 . S
C1244 C1243 1.374 . S
C1245 C1242 1.499 . S
C1245 C1246 1.373 . S
C1245 C1247 1.389 . S
C1246 H1219 0.950 . S
C1246 C1232 1.377 . S
C1246 C1245 1.373 . S
C1247 C1231 1.377 . S
C1247 C1245 1.389 . S
C1247 C1248 1.524 . S
C1248 C1247 1.524 . S
C1248 C1249 1.397 . S
C1248 C1253 1.363 . S
C1249 H1220 0.950 . S
C1249 C1248 1.397 . S
C1249 C1250 1.334 . S
C1250 H1221 0.950 . S
C1250 C1249 1.334 . S
C1250 C1251 1.287 . S
C1251 C1250 1.287 . S
C1251 C1252 1.524 . S
C1251 H1254 0.999 . S
C1252 H1222 0.950 . S
C1252 C1251 1.524 . S
C1252 C1253 1.415 . S
C1253 H1223 0.950 . S
C1253 C1248 1.363 . S
C1253 C1252 1.415 . S
H1254 C1251 0.999 . S
H1255 C1236 0.913 . S
H1256 C1274 0.951 . S
H1257 C1276 0.951 . S
H1258 C1278 0.950 . S
H1259 C1279 0.950 . S
H1260 C1281 0.950 . S
H1261 C1284 0.950 . S
H1262 C1285 0.950 . S
H1263 C1287 0.950 . S
H1264 C1288 0.950 . S
H1265 C1289 0.951 . S
H1266 C1291 0.951 . S
H1267 C1293 0.950 . S
H1268 C1294 0.950 . S
H1269 C1296 0.950 . S
H1270 C1299 0.950 . S
H1271 C1300 0.950 . S
H1272 C1302 0.950 . S
H1273 C1303 0.950 . S
C1274 H1256 0.951 . S
C1274 C1275 1.366 . S
C1274 C1276 1.388 . S
C1275 C1274 1.366 . S
C1275 C1279 1.385 . S
C1276 H1257 0.951 . S
C1276 C1274 1.388 . S
C1276 C1277 1.366 . S
C1277 C1276 1.366 . S
C1277 C1278 1.414 . S
C1277 C1280 1.499 . S
C1278 H1258 0.950 . S
C1278 C1277 1.414 . S
C1278 C1279 1.374 . S
C1279 H1259 0.950 . S
C1279 C1275 1.385 . S
C1279 C1278 1.374 . S
C1280 C1277 1.499 . S
C1280 C1281 1.373 . S
C1280 C1282 1.389 . S
C1281 H1260 0.950 . S
C1281 C1280 1.373 . S
C1281 C1297 1.377 . S
C1282 C1280 1.389 . S
C1282 C1283 1.524 . S
C1282 C1296 1.377 . S
C1283 C1282 1.524 . S
C1283 C1284 1.397 . S
C1283 C1288 1.363 . S
C1284 H1261 0.950 . S
C1284 C1283 1.397 . S
C1284 C1285 1.334 . S
C1285 H1262 0.950 . S
C1285 C1284 1.334 . S
C1285 C1286 1.287 . S
C1286 C1285 1.287 . S
C1286 C1287 1.524 . S
C1286 H1305 0.913 . S
C1287 H1263 0.950 . S
C1287 C1286 1.524 . S
C1287 C1288 1.415 . S
C1288 H1264 0.950 . S
C1288 C1283 1.363 . S
C1288 C1287 1.415 . S
C1289 H1265 0.951 . S
C1289 C1290 1.366 . S
C1289 C1291 1.388 . S
C1290 C1289 1.366 . S
C1290 C1294 1.385 . S
C1291 H1266 0.951 . S
C1291 C1289 1.388 . S
C1291 C1292 1.366 . S
C1292 C1291 1.366 . S
C1292 C1293 1.414 . S
C1292 C1295 1.499 . S
C1293 H1267 0.950 . S
C1293 C1292 1.414 . S
C1293 C1294 1.374 . S
C1294 H1268 0.950 . S
C1294 C1290 1.385 . S
C1294 C1293 1.374 . S
C1295 C1292 1.499 . S
C1295 C1296 1.373 1_655 S
C1295 C1297 1.389 1_655 S
C1296 H1269 0.950 . S
C1296 C1282 1.377 . S
C1296 C1295 1.373 1_455 S
C1297 C1281 1.377 . S
C1297 C1295 1.389 1_455 S
C1297 C1298 1.524 1_455 S
C1298 C1297 1.524 1_655 S
C1298 C1299 1.397 . S
C1298 C1303 1.363 . S
C1299 H1270 0.950 . S
C1299 C1298 1.397 . S
C1299 C1300 1.334 . S
C1300 H1271 0.950 . S
C1300 C1299 1.334 . S
C1300 C1301 1.287 . S
C1301 C1300 1.287 . S
C1301 C1302 1.524 . S
C1301 H1304 0.999 . S
C1302 H1272 0.950 . S
C1302 C1301 1.524 . S
C1302 C1303 1.415 . S
C1303 H1273 0.950 . S
C1303 C1298 1.363 . S
C1303 C1302 1.415 . S
H1304 C1301 0.999 . S
H1305 C1286 0.913 . S
H1306 C1324 0.951 . S
H1307 C1326 0.951 . S
H1308 C1328 0.950 . S
H1309 C1329 0.950 . S
H1310 C1331 0.950 1_565 S
H1311 C1334 0.950 . S
H1312 C1335 0.950 . S
H1313 C1337 0.950 . S
H1314 C1338 0.950 . S
H1315 C1339 0.951 . S
H1316 C1341 0.951 . S
H1317 C1343 0.950 . S
H1318 C1344 0.950 . S
H1319 C1346 0.950 . S
H1320 C1349 0.950 . S
H1321 C1350 0.950 . S
H1322 C1352 0.950 . S
H1323 C1353 0.950 . S
C1324 H1306 0.951 . S
C1324 C1325 1.366 . S
C1324 C1326 1.388 . S
C1325 C1324 1.366 . S
C1325 C1329 1.385 . S
C1326 H1307 0.951 . S
C1326 C1324 1.388 . S
C1326 C1327 1.366 . S
C1327 C1326 1.366 . S
C1327 C1328 1.414 . S
C1327 C1330 1.499 . S
C1328 H1308 0.950 . S
C1328 C1327 1.414 . S
C1328 C1329 1.374 . S
C1329 H1309 0.950 . S
C1329 C1325 1.385 . S
C1329 C1328 1.374 . S
C1330 C1327 1.499 . S
C1330 C1331 1.373 1_565 S
C1330 C1332 1.389 1_565 S
C1331 H1310 0.950 1_545 S
C1331 C1330 1.373 1_545 S
C1331 C1347 1.377 . S
C1332 C1330 1.389 1_545 S
C1332 C1333 1.524 . S
C1332 C1346 1.377 . S
C1333 C1332 1.524 . S
C1333 C1334 1.397 . S
C1333 C1338 1.363 . S
C1334 H1311 0.950 . S
C1334 C1333 1.397 . S
C1334 C1335 1.334 . S
C1335 H1312 0.950 . S
C1335 C1334 1.334 . S
C1335 C1336 1.287 . S
C1336 C1335 1.287 . S
C1336 C1337 1.524 . S
C1336 H1355 0.913 . S
C1337 H1313 0.950 . S
C1337 C1336 1.524 . S
C1337 C1338 1.415 . S
C1338 H1314 0.950 . S
C1338 C1333 1.363 . S
C1338 C1337 1.415 . S
C1339 H1315 0.951 . S
C1339 C1340 1.366 . S
C1339 C1341 1.388 . S
C1340 C1339 1.366 . S
C1340 C1344 1.385 . S
C1341 H1316 0.951 . S
C1341 C1339 1.388 . S
C1341 C1342 1.366 . S
C1342 C1341 1.366 . S
C1342 C1343 1.414 . S
C1342 C1345 1.499 . S
C1343 H1317 0.950 . S
C1343 C1342 1.414 . S
C1343 C1344 1.374 . S
C1344 H1318 0.950 . S
C1344 C1340 1.385 . S
C1344 C1343 1.374 . S
C1345 C1342 1.499 . S
C1345 C1346 1.373 . S
C1345 C1347 1.389 . S
C1346 H1319 0.950 . S
C1346 C1332 1.377 . S
C1346 C1345 1.373 . S
C1347 C1331 1.377 . S
C1347 C1345 1.389 . S
C1347 C1348 1.524 . S
C1348 C1347 1.524 . S
C1348 C1349 1.397 . S
C1348 C1353 1.363 . S
C1349 H1320 0.950 . S
C1349 C1348 1.397 . S
C1349 C1350 1.334 . S
C1350 H1321 0.950 . S
C1350 C1349 1.334 . S
C1350 C1351 1.287 . S
C1351 C1350 1.287 . S
C1351 C1352 1.524 . S
C1351 H1354 0.999 . S
C1352 H1322 0.950 . S
C1352 C1351 1.524 . S
C1352 C1353 1.415 . S
C1353 H1323 0.950 . S
C1353 C1348 1.363 . S
C1353 C1352 1.415 . S
H1354 C1351 0.999 . S
H1355 C1336 0.913 . S
C175 C108 1.164 . S
C190 C4 1.164 . S
C225 C17 1.164 . S
C240 C127 1.164 . S
C275 C30 1.164 . S
C290 C140 1.164 . S
C325 C49 1.164 . S
C340 C153 1.164 . S
C375 C88 1.164 . S
C390 C56 1.164 . S
C425 C69 1.164 . S
C440 C95 1.163 . S
C475 C120 0.850 . S
C490 C5 0.849 . S
C525 C18 0.850 . S
C540 C133 0.849 . S
C575 C146 0.849 . S
C590 C31 0.850 . S
C625 C42 0.849 . S
C640 C81 0.850 . S
C675 C96 0.849 . S
C690 C57 0.850 . S
C725 C109 0.850 . S
C740 C70 0.849 . S
C775 C3 1.578 . S
C790 C75 1.585 . S
C825 C16 1.578 . S
C840 C10 1.585 . S
C875 C23 1.585 . S
C890 C29 1.578 . S
C925 C44 1.578 . S
C940 C36 1.585 . S
C975 C55 1.578 . S
C990 C43 1.585 . S
C1025 C68 1.579 . S
C1040 C62 1.584 . S
C1075 C83 1.579 . S
C1090 C101 1.585 . S
C1125 C94 1.579 . S
C1140 C114 1.584 . S
C1175 C107 1.579 . S
C1190 C121 1.585 . S
C1225 C122 1.578 . S
C1240 C134 1.585 . S
C1275 C135 1.578 . S
C1290 C147 1.585 . S
C1325 C82 1.585 . S
C1340 C148 1.579 . S
