# Generated by pormake.
# Topology yfg, (5)-cn, num edge types: 1
# Building blocks:
#     Node 0, Type 0, BuildingBlock: XOMCOT_clean_sbu_0, # of connection points: 5
#     Node 1, Type 0, BuildingBlock: XOMCOT_clean_sbu_0, # of connection points: 5
#     Node 2, Type 0, BuildingBlock: XOMCOT_clean_sbu_0, # of connection points: 5
#     Node 3, Type 0, BuildingBlock: XOMCOT_clean_sbu_0, # of connection points: 5
#     Node 4, Type 0, BuildingBlock: XOMCOT_clean_sbu_0, # of connection points: 5
#     Node 5, Type 0, BuildingBlock: XOMCOT_clean_sbu_0, # of connection points: 5
#     Node 6, Type 0, BuildingBlock: XOMCOT_clean_sbu_0, # of connection points: 5
#     Node 7, Type 0, BuildingBlock: XOMCOT_clean_sbu_0, # of connection points: 5
#     Edge 8, Type (0, 0), BuildingBlock: ZUJKAS_clean_linker_0, # of connection points: 2
#     Edge 9, Type (0, 0), BuildingBlock: ZUJKAS_clean_linker_0, # of connection points: 2
#     Edge 10, Type (0, 0), BuildingBlock: ZUJKAS_clean_linker_0, # of connection points: 2
#     Edge 11, Type (0, 0), BuildingBlock: ZUJKAS_clean_linker_0, # of connection points: 2
#     Edge 12, Type (0, 0), BuildingBlock: ZUJKAS_clean_linker_0, # of connection points: 2
#     Edge 13, Type (0, 0), BuildingBlock: ZUJKAS_clean_linker_0, # of connection points: 2
#     Edge 14, Type (0, 0), BuildingBlock: ZUJKAS_clean_linker_0, # of connection points: 2
#     Edge 15, Type (0, 0), BuildingBlock: ZUJKAS_clean_linker_0, # of connection points: 2
#     Edge 16, Type (0, 0), BuildingBlock: ZUJKAS_clean_linker_0, # of connection points: 2
#     Edge 17, Type (0, 0), BuildingBlock: ZUJKAS_clean_linker_0, # of connection points: 2
#     Edge 18, Type (0, 0), BuildingBlock: ZUJKAS_clean_linker_0, # of connection points: 2
#     Edge 19, Type (0, 0), BuildingBlock: ZUJKAS_clean_linker_0, # of connection points: 2
#     Edge 20, Type (0, 0), BuildingBlock: ZUJKAS_clean_linker_0, # of connection points: 2
#     Edge 21, Type (0, 0), BuildingBlock: ZUJKAS_clean_linker_0, # of connection points: 2
#     Edge 22, Type (0, 0), BuildingBlock: ZUJKAS_clean_linker_0, # of connection points: 2
#     Edge 23, Type (0, 0), BuildingBlock: ZUJKAS_clean_linker_0, # of connection points: 2
#     Edge 24, Type (0, 0), BuildingBlock: ZUJKAS_clean_linker_0, # of connection points: 2
#     Edge 25, Type (0, 0), BuildingBlock: ZUJKAS_clean_linker_0, # of connection points: 2
#     Edge 26, Type (0, 0), BuildingBlock: ZUJKAS_clean_linker_0, # of connection points: 2
#     Edge 27, Type (0, 0), BuildingBlock: ZUJKAS_clean_linker_0, # of connection points: 2
# Relax obj value: 0.354
# Max RMSD: 0.191
# Mean RMSD: 0.191
data_MOF--net-yfg--node1-XOMCOT_clean_sbu_0--edge1-ZUJKAS_clean_linker_0
_symmetry_space_group_name_H-M    P1
_symmetry_Int_Tables_number       1
_symmetry_cell_setting            triclinic
loop_
_symmetry_equiv_pos_as_xyz
'x, y, z'
_cell_length_a     43.990245
_cell_length_b     44.007866
_cell_length_c     54.065363
_cell_angle_alpha  90.02715
_cell_angle_beta   90.087531
_cell_angle_gamma 89.996276
loop_
_atom_site_label
_atom_site_type_symbol
_atom_site_fract_x
_atom_site_fract_y
_atom_site_fract_z
_atom_type_partial_charge
Co0 Co 0.26187 0.51386 0.05118 0.0
C1 C 0.2849 0.52933 1.00139 0.0
C2 C 0.31114 0.4935 0.0174 0.0
C3 C 0.32527 0.50296 0.996 0.0
N4 N 0.28543 0.50977 0.02072 0.0
N5 N 0.30888 0.52578 0.98608 0.0
H6 H 0.26835 0.54729 0.99936 0.0
H7 H 0.32088 0.47791 0.03058 0.0
C8 C 0.28375 0.44866 0.06056 0.0
O9 O 0.27198 0.43807 0.03994 0.0
N10 N 0.23924 0.51902 0.08142 0.0
C11 C 0.21135 0.53126 0.08367 0.0
C12 C 0.20395 0.53227 0.10837 0.0
C13 C 0.24862 0.51303 0.10462 0.0
N14 N 0.2274 0.52077 0.12155 0.0
C15 C 0.21468 0.50165 0.0161 0.0
C16 C 0.18378 0.46011 0.04503 0.0
C17 C 0.16927 0.47204 0.02402 0.0
C18 C 0.18579 0.49197 0.0089 0.0
C19 C 0.21302 0.47001 0.05136 0.0
N20 N 0.22771 0.49133 0.03739 0.0
H21 H 0.22545 0.51918 0.00541 0.0
H22 H 0.22272 0.46244 0.06867 0.0
H23 H 0.19754 0.5392 0.06842 0.0
H24 H 0.27055 0.50329 0.10894 0.0
O25 O 0.2498 0.55478 0.04203 0.0
O26 O 0.2915 0.54227 0.06297 0.0
O27 O 0.28134 0.47674 0.06607 0.0
C28 C 0.27434 0.56339 0.05361 0.0
H29 H 0.3473 0.49545 0.98953 0.0
H30 H 0.18316 0.54147 0.11598 0.0
H31 H 0.17195 0.44494 0.05749 0.0
H32 H 0.1759 0.50137 0.99222 0.0
Co33 Co 0.49736 0.25219 0.30063 0.0
C34 C 0.4696 0.28201 0.25659 0.0
C35 C 0.51831 0.28327 0.25549 0.0
C36 C 0.50718 0.29705 0.23446 0.0
N37 N 0.49475 0.27403 0.26949 0.0
N38 N 0.47652 0.29624 0.23515 0.0
H39 H 0.44664 0.27773 0.26273 0.0
H40 H 0.54202 0.27986 0.25999 0.0
C41 C 0.56006 0.26121 0.32175 0.0
O42 O 0.56023 0.23319 0.33012 0.0
N43 N 0.49934 0.23021 0.33173 0.0
C44 C 0.49646 0.20005 0.33546 0.0
C45 C 0.49723 0.19443 0.36046 0.0
C46 C 0.50135 0.24251 0.35458 0.0
N47 N 0.50027 0.22113 0.37248 0.0
C48 C 0.49012 0.19692 0.27371 0.0
C49 C 0.55075 0.1811 0.27077 0.0
C50 C 0.52867 0.15948 0.2644 0.0
C51 C 0.49808 0.16824 0.26484 0.0
C52 C 0.54176 0.2098 0.27923 0.0
N53 N 0.51169 0.2165 0.2825 0.0
H54 H 0.46631 0.20247 0.27487 0.0
H55 H 0.55921 0.22607 0.28343 0.0
H56 H 0.49368 0.18308 0.32126 0.0
H57 H 0.5032 0.26667 0.35798 0.0
O58 O 0.4538 0.24439 0.3004 0.0
O59 O 0.47623 0.28446 0.31714 0.0
O60 O 0.53925 0.26997 0.30675 0.0
C61 C 0.45137 0.26935 0.31318 0.0
H62 H 0.5207 0.30636 0.21958 0.0
H63 H 0.49583 0.17227 0.36906 0.0
H64 H 0.57473 0.17568 0.26967 0.0
H65 H 0.4802 0.15247 0.25983 0.0
Co66 Co 0.74733 0.49513 0.54928 0.0
C67 C 0.71672 0.46833 0.5053 0.0
C68 C 0.71737 0.517 0.5038 0.0
C69 C 0.70347 0.50614 0.48267 0.0
N70 N 0.72552 0.49327 0.51807 0.0
N71 N 0.70312 0.47548 0.48363 0.0
H72 H 0.72005 0.44534 0.51169 0.0
H73 H 0.72168 0.54058 0.50819 0.0
C74 C 0.73643 0.55661 0.57222 0.0
O75 O 0.76414 0.55665 0.58132 0.0
N76 N 0.7694 0.49622 0.58036 0.0
C77 C 0.7997 0.49405 0.5838 0.0
C78 C 0.80567 0.4943 0.60877 0.0
C79 C 0.75734 0.49695 0.60331 0.0
N80 N 0.77903 0.49618 0.62099 0.0
C81 C 0.80142 0.49016 0.52092 0.0
C82 C 0.81989 0.54999 0.524 0.0
C83 C 0.84093 0.52789 0.5165 0.0
C84 C 0.8307 0.49799 0.51351 0.0
C85 C 0.79055 0.54114 0.53104 0.0
N86 N 0.78266 0.5111 0.53162 0.0
H87 H 0.79469 0.4667 0.51939 0.0
H88 H 0.77487 0.55855 0.53651 0.0
H89 H 0.81649 0.49202 0.56938 0.0
H90 H 0.73321 0.49867 0.60693 0.0
O91 O 0.75676 0.45207 0.5478 0.0
O92 O 0.71564 0.47197 0.56501 0.0
O93 O 0.72835 0.53632 0.55649 0.0
C94 C 0.73175 0.44798 0.56014 0.0
H95 H 0.69492 0.51982 0.46757 0.0
H96 H 0.8279 0.49261 0.61727 0.0
H97 H 0.82642 0.57363 0.52567 0.0
H98 H 0.84565 0.48041 0.50654 0.0
Co99 Co 0.50169 0.74798 0.79752 0.0
C100 C 0.52944 0.7151 0.75502 0.0
C101 C 0.48092 0.71775 0.75193 0.0
C102 C 0.49213 0.70318 0.73129 0.0
N103 N 0.5043 0.72506 0.76691 0.0
N104 N 0.52268 0.70155 0.73323 0.0
H105 H 0.55227 0.71772 0.76207 0.0
H106 H 0.45736 0.72328 0.75542 0.0
C107 C 0.43885 0.73957 0.81871 0.0
O108 O 0.43931 0.76702 0.82828 0.0
N109 N 0.49984 0.77119 0.82799 0.0
C110 C 0.50352 0.80142 0.83078 0.0
C111 C 0.50291 0.80826 0.85559 0.0
C112 C 0.49774 0.76002 0.85119 0.0
N113 N 0.49926 0.78221 0.8684 0.0
C114 C 0.51129 0.79978 0.76714 0.0
C115 C 0.45326 0.82347 0.76973 0.0
C116 C 0.47685 0.84205 0.761 0.0
C117 C 0.50581 0.8291 0.75839 0.0
C118 C 0.45969 0.79399 0.77793 0.0
N119 N 0.4889 0.78347 0.77847 0.0
H120 H 0.5341 0.7909 0.76599 0.0
H121 H 0.44113 0.78041 0.78442 0.0
H122 H 0.50686 0.81754 0.81599 0.0
H123 H 0.49543 0.73608 0.85532 0.0
O124 O 0.54545 0.75461 0.7979 0.0
O125 O 0.52156 0.71571 0.81508 0.0
O126 O 0.45913 0.73144 0.80305 0.0
C127 C 0.54691 0.73002 0.81125 0.0
H128 H 0.47879 0.69521 0.71576 0.0
H129 H 0.50486 0.83076 0.86351 0.0
H130 H 0.43029 0.832 0.77148 0.0
H131 H 0.52449 0.8419 0.75058 0.0
Co132 Co 0.25545 0.50056 0.45571 0.0
C133 C 0.28871 0.47362 0.49836 0.0
C134 C 0.28595 0.52215 0.50097 0.0
C135 C 0.30066 0.51124 0.52169 0.0
N136 N 0.27858 0.49855 0.48627 0.0
N137 N 0.30236 0.48067 0.52006 0.0
H138 H 0.28613 0.45071 0.49151 0.0
H139 H 0.28039 0.54563 0.49723 0.0
C140 C 0.26372 0.56283 0.43353 0.0
O141 O 0.23572 0.56241 0.42505 0.0
N142 N 0.23209 0.50177 0.42529 0.0
C143 C 0.202 0.49706 0.42243 0.0
C144 C 0.19523 0.49733 0.3976 0.0
C145 C 0.24327 0.50406 0.40212 0.0
N146 N 0.22118 0.50181 0.38484 0.0
C147 C 0.2024 0.4929 0.48507 0.0
C148 C 0.18237 0.55234 0.4838 0.0
C149 C 0.16212 0.52949 0.49121 0.0
C150 C 0.17316 0.49973 0.49324 0.0
C151 C 0.21166 0.54448 0.47595 0.0
N152 N 0.22031 0.5147 0.47457 0.0
H153 H 0.20976 0.46955 0.48575 0.0
H154 H 0.22666 0.56246 0.47045 0.0
H155 H 0.18599 0.49301 0.43715 0.0
H156 H 0.26707 0.5078 0.39813 0.0
O157 O 0.24793 0.45702 0.45644 0.0
O158 O 0.28715 0.4794 0.43842 0.0
O159 O 0.27263 0.54263 0.44902 0.0
C160 C 0.27224 0.45455 0.44288 0.0
H161 H 0.30869 0.52482 0.53705 0.0
H162 H 0.17295 0.49373 0.38961 0.0
H163 H 0.17522 0.57585 0.48276 0.0
H164 H 0.15883 0.48154 0.50003 0.0
Co165 Co 0.50837 0.25676 0.70682 0.0
C166 C 0.53268 0.28374 0.75312 0.0
C167 C 0.48567 0.29499 0.74797 0.0
C168 C 0.49598 0.30909 0.76918 0.0
N169 N 0.5088 0.27933 0.73773 0.0
N170 N 0.52556 0.302 0.77236 0.0
H171 H 0.55515 0.2746 0.75002 0.0
H172 H 0.4629 0.29644 0.74055 0.0
C173 C 0.44793 0.26697 0.68171 0.0
O174 O 0.44806 0.2389 0.67341 0.0
N175 N 0.50881 0.23411 0.67603 0.0
C176 C 0.51152 0.20381 0.67304 0.0
C177 C 0.5123 0.19739 0.64817 0.0
C178 C 0.50875 0.24574 0.65291 0.0
N179 N 0.51047 0.22375 0.63553 0.0
C180 C 0.51137 0.20249 0.73542 0.0
C181 C 0.45077 0.18661 0.73266 0.0
C182 C 0.47183 0.16503 0.74106 0.0
C183 C 0.50224 0.17389 0.7436 0.0
C184 C 0.46088 0.2153 0.72504 0.0
N185 N 0.49123 0.22191 0.72442 0.0
H186 H 0.53517 0.20807 0.73658 0.0
H187 H 0.44413 0.23157 0.7193 0.0
H188 H 0.51324 0.18731 0.68771 0.0
H189 H 0.50685 0.26977 0.64895 0.0
O190 O 0.55134 0.24732 0.70998 0.0
O191 O 0.53237 0.28811 0.69158 0.0
O192 O 0.46768 0.27558 0.6977 0.0
C193 C 0.5561 0.27227 0.69772 0.0
H194 H 0.4827 0.32347 0.78129 0.0
H195 H 0.51467 0.17504 0.64006 0.0
H196 H 0.4268 0.18114 0.73147 0.0
H197 H 0.5193 0.15818 0.75035 0.0
Co198 Co 0.75141 0.50057 0.95545 0.0
C199 C 0.71853 0.52624 0.99881 0.0
C200 C 0.72339 0.47786 1.00128 0.0
C201 C 0.70879 0.48811 0.02223 0.0
N202 N 0.72935 0.50176 0.98651 0.0
N203 N 0.70576 0.51859 0.02069 0.0
H204 H 0.71994 0.54925 0.99198 0.0
H205 H 0.72978 0.45463 0.99739 0.0
C206 C 0.74445 0.43823 0.93316 0.0
O207 O 0.77191 0.4398 0.92371 0.0
N208 N 0.77365 0.50015 0.9245 0.0
C209 C 0.80367 0.50466 0.92104 0.0
C210 C 0.80943 0.50541 0.89604 0.0
C211 C 0.76155 0.49875 0.90156 0.0
N212 N 0.78292 0.5017 0.88382 0.0
C213 C 0.80451 0.51059 0.98444 0.0
C214 C 0.82755 0.45226 0.98285 0.0
C215 C 0.84639 0.47587 0.99124 0.0
C216 C 0.83382 0.50504 0.9932 0.0
C217 C 0.79809 0.45878 0.97452 0.0
N218 N 0.7878 0.48806 0.9736 0.0
H219 H 0.79591 0.5335 0.98533 0.0
H220 H 0.78425 0.44017 0.96841 0.0
H221 H 0.82033 0.50778 0.93549 0.0
H222 H 0.73748 0.49619 0.89798 0.0
O223 O 0.75703 0.54445 0.95587 0.0
O224 O 0.71814 0.52023 0.93891 0.0
O225 O 0.73574 0.4578 0.94924 0.0
C226 C 0.73207 0.54576 0.94294 0.0
H227 H 0.70172 0.47419 0.03768 0.0
H228 H 0.83148 0.50851 0.88756 0.0
H229 H 0.83585 0.42915 0.98161 0.0
H230 H 0.8469 0.52379 1.00067 0.0
Co231 Co 0.49375 0.74555 0.20183 0.0
C232 C 0.46826 0.71643 0.24685 0.0
C233 C 0.51587 0.70723 0.24311 0.0
C234 C 0.50539 0.69305 0.26417 0.0
N235 N 0.49251 0.72174 0.23211 0.0
N236 N 0.47538 0.6988 0.26651 0.0
H237 H 0.44588 0.72565 0.24349 0.0
H238 H 0.53902 0.70689 0.23644 0.0
C239 C 0.55377 0.73291 0.17612 0.0
O240 O 0.55296 0.75949 0.16511 0.0
N241 N 0.49389 0.76958 0.17181 0.0
C242 C 0.49158 0.80005 0.16994 0.0
C243 C 0.4897 0.80774 0.14534 0.0
C244 C 0.49231 0.75912 0.14836 0.0
N245 N 0.49024 0.78199 0.1318 0.0
C246 C 0.49155 0.7945 0.23579 0.0
C247 C 0.54757 0.81959 0.22528 0.0
C248 C 0.52626 0.83707 0.23835 0.0
C249 C 0.49865 0.82332 0.24486 0.0
C250 C 0.53968 0.79053 0.2169 0.0
N251 N 0.51105 0.77937 0.22053 0.0
H252 H 0.46947 0.78511 0.23994 0.0
H253 H 0.55632 0.77802 0.20671 0.0
H254 H 0.49053 0.81571 0.18531 0.0
H255 H 0.49325 0.73527 0.14356 0.0
O256 O 0.45101 0.75588 0.20477 0.0
O257 O 0.46931 0.71535 0.18548 0.0
O258 O 0.53449 0.72629 0.19308 0.0
C259 C 0.44586 0.73162 0.19165 0.0
H260 H 0.5189 0.67922 0.27654 0.0
H261 H 0.48733 0.83051 0.13803 0.0
H262 H 0.56953 0.82881 0.22026 0.0
H263 H 0.48199 0.83523 0.25595 0.0
H264 H 0.27208 0.49096 0.35769 0.0
H265 H 0.27744 0.49552 0.31283 0.0
H266 H 0.18292 0.52047 0.30685 0.0
H267 H 0.17766 0.5173 0.35159 0.0
H268 H 0.2477 0.46454 0.27578 0.0
H269 H 0.22426 0.58783 0.26846 0.0
H270 H 0.23252 0.56955 0.29758 0.0
H271 H 0.19483 0.56786 0.28463 0.0
C272 C 0.25254 0.49788 0.34691 0.0
C273 C 0.22446 0.50395 0.35835 0.0
C274 C 0.25561 0.50026 0.32124 0.0
C275 C 0.23072 0.50886 0.30658 0.0
C276 C 0.2026 0.51446 0.31788 0.0
H277 H 0.18068 0.51903 0.15429 0.0
H278 H 0.18419 0.51594 0.19923 0.0
C279 C 0.19953 0.51222 0.34348 0.0
C280 C 0.23373 0.51125 0.27938 0.0
H281 H 0.22127 0.55922 0.2308 0.0
C282 C 0.24233 0.48533 0.26594 0.0
C283 C 0.22689 0.53848 0.26662 0.0
C284 C 0.21942 0.56759 0.28008 0.0
C285 C 0.24299 0.4856 0.23997 0.0
C286 C 0.23494 0.51247 0.22729 0.0
C287 C 0.22718 0.5386 0.2407 0.0
C288 C 0.23326 0.51366 0.20004 0.0
C289 C 0.25125 0.45696 0.22619 0.0
C290 C 0.25977 0.51354 0.18571 0.0
C291 C 0.25791 0.51569 0.15996 0.0
C292 C 0.22946 0.51798 0.1481 0.0
C293 C 0.20297 0.51782 0.16268 0.0
C294 C 0.20489 0.51584 0.18839 0.0
H295 H 0.2533 0.43704 0.2387 0.0
H296 H 0.23388 0.45193 0.21183 0.0
H297 H 0.27332 0.46028 0.21665 0.0
H298 H 0.28189 0.51221 0.19449 0.0
H299 H 0.27881 0.51616 0.14947 0.0
H300 H 0.47732 0.18432 0.40801 0.0
H301 H 0.48183 0.19061 0.45267 0.0
H302 H 0.53057 0.27454 0.44203 0.0
H303 H 0.52677 0.26815 0.39709 0.0
H304 H 0.54054 0.19765 0.47899 0.0
H305 H 0.45993 0.29386 0.49292 0.0
H306 H 0.45806 0.26952 0.46604 0.0
H307 H 0.48789 0.29706 0.46875 0.0
C308 C 0.48917 0.20406 0.41505 0.0
C309 C 0.50181 0.22564 0.39888 0.0
C310 C 0.49153 0.2077 0.44061 0.0
C311 C 0.50633 0.23311 0.45058 0.0
C312 C 0.51869 0.25497 0.43463 0.0
H313 H 0.52975 0.27256 0.60903 0.0
H314 H 0.53081 0.27732 0.56382 0.0
C315 C 0.51643 0.2513 0.40897 0.0
C316 C 0.50982 0.23568 0.4777 0.0
H317 H 0.48298 0.27316 0.52848 0.0
C318 C 0.52817 0.2143 0.48982 0.0
C319 C 0.49386 0.25763 0.49166 0.0
C320 C 0.47366 0.28083 0.47934 0.0
C321 C 0.53044 0.21381 0.51568 0.0
C322 C 0.51336 0.23482 0.52976 0.0
C323 C 0.49592 0.257 0.5176 0.0
C324 C 0.51186 0.23272 0.55706 0.0
C325 C 0.55099 0.19063 0.52769 0.0
C326 C 0.50016 0.20642 0.56816 0.0
C327 C 0.49948 0.20367 0.59384 0.0
C328 C 0.51027 0.22728 0.60902 0.0
C329 C 0.52116 0.25403 0.59787 0.0
C330 C 0.52189 0.25675 0.57207 0.0
H331 H 0.56895 0.18273 0.51477 0.0
H332 H 0.56202 0.20004 0.54452 0.0
H333 H 0.5373 0.17056 0.53318 0.0
H334 H 0.49157 0.18794 0.5569 0.0
H335 H 0.49027 0.18309 0.6018 0.0
H336 H 0.81803 0.51951 0.65466 0.0
H337 H 0.81193 0.52026 0.69956 0.0
H338 H 0.72444 0.47699 0.69228 0.0
H339 H 0.73062 0.47567 0.6472 0.0
H340 H 0.76205 0.54743 0.72772 0.0
H341 H 0.77399 0.42252 0.74159 0.0
H342 H 0.7866 0.44119 0.71369 0.0
H343 H 0.7468 0.43526 0.71896 0.0
C344 C 0.7976 0.50992 0.66259 0.0
C345 C 0.77491 0.49732 0.64739 0.0
C346 C 0.79406 0.51057 0.68822 0.0
C347 C 0.76789 0.49843 0.69918 0.0
C348 C 0.74494 0.48619 0.68413 0.0
H349 H 0.73746 0.47414 0.85823 0.0
H350 H 0.72979 0.47456 0.81337 0.0
C351 C 0.7484 0.48567 0.65841 0.0
C352 C 0.765 0.49864 0.72641 0.0
H353 H 0.76814 0.45267 0.77717 0.0
C354 C 0.76312 0.52673 0.73857 0.0
C355 C 0.76618 0.47154 0.74041 0.0
C356 C 0.76868 0.44084 0.72814 0.0
C357 C 0.76299 0.52851 0.76447 0.0
C358 C 0.76555 0.5015 0.77851 0.0
C359 C 0.7663 0.47333 0.76634 0.0
C360 C 0.7694 0.50211 0.80573 0.0
C361 C 0.76019 0.5593 0.77655 0.0
C362 C 0.79439 0.51716 0.81625 0.0
C363 C 0.79872 0.51713 0.84182 0.0
C364 C 0.77827 0.50182 0.85742 0.0
C365 C 0.75335 0.48655 0.8468 0.0
C366 C 0.74903 0.48661 0.82116 0.0
H367 H 0.74889 0.57591 0.76408 0.0
H368 H 0.74713 0.55796 0.79407 0.0
H369 H 0.78325 0.56811 0.78083 0.0
H370 H 0.81077 0.52869 0.80463 0.0
H371 H 0.81798 0.52932 0.84934 0.0
H372 H 0.52276 0.8201 0.90303 0.0
H373 H 0.51804 0.81571 0.94783 0.0
H374 H 0.46741 0.73253 0.93912 0.0
H375 H 0.47145 0.73701 0.8941 0.0
H376 H 0.46022 0.81133 0.9747 0.0
H377 H 0.53736 0.71262 0.98984 0.0
H378 H 0.53917 0.73576 0.96228 0.0
H379 H 0.50871 0.70913 0.96619 0.0
C380 C 0.51046 0.80095 0.91054 0.0
C381 C 0.49742 0.77895 0.8949 0.0
C382 C 0.50795 0.79839 0.93617 0.0
C383 C 0.49259 0.77371 0.94671 0.0
C384 C 0.47973 0.75152 0.93129 0.0
H385 H 0.46846 0.73483 0.10459 0.0
H386 H 0.46663 0.73123 0.05937 0.0
C387 C 0.48215 0.7541 0.90557 0.0
C388 C 0.48929 0.77201 0.97387 0.0
H389 H 0.51424 0.73402 0.02505 0.0
C390 C 0.47186 0.79434 0.98574 0.0
C391 C 0.50431 0.74963 0.98809 0.0
C392 C 0.52362 0.72544 0.97609 0.0
C393 C 0.46945 0.79522 0.01157 0.0
C394 C 0.48547 0.77359 0.02589 0.0
C395 C 0.5021 0.75063 0.01399 0.0
C396 C 0.48656 0.77552 0.05322 0.0
C397 C 0.44975 0.81932 0.0233 0.0
C398 C 0.49885 0.80136 0.06467 0.0
C399 C 0.49998 0.80345 0.0904 0.0
C400 C 0.48908 0.77961 0.10523 0.0
C401 C 0.47724 0.75348 0.0937 0.0
C402 C 0.47605 0.75144 0.06789 0.0
H403 H 0.43222 0.8278 0.01019 0.0
H404 H 0.43822 0.81054 0.04009 0.0
H405 H 0.46419 0.83889 0.02878 0.0
H406 H 0.50783 0.81986 0.05367 0.0
H407 H 0.50984 0.82357 0.09866 0.0
H408 H 0.13606 0.4195 0.03153 0.0
H409 H 0.08109 0.41244 0.02602 0.0
H410 H 0.07288 0.5049 1.00068 0.0
H411 H 0.12711 0.51255 0.0068 0.0
H412 H 0.03256 0.45016 0.04886 0.0
H413 H 0.03042 0.45197 0.94629 0.0
H414 H 0.0644 0.44354 0.96381 0.0
H415 H 0.05203 0.48219 0.96012 0.0
C416 C 0.12257 0.43834 0.02479 0.0
C417 C 0.13627 0.4665 0.01933 0.0
C418 C 0.09119 0.43421 0.02158 0.0
C419 C 0.07306 0.45803 0.01261 0.0
C420 C 0.08659 0.48603 0.00713 0.0
H421 H 0.89353 0.51371 0.98 0.0
H422 H 0.94763 0.50554 0.98656 0.0
C423 C 0.11775 0.49027 0.0105 0.0
C424 C 0.03974 0.45445 0.00967 0.0
H425 H 0.98309 0.46019 0.96675 0.0
C426 C 0.02163 0.45179 0.03091 0.0
C427 C 0.02568 0.45664 0.98622 0.0
C428 C 0.0441 0.45848 0.96275 0.0
C429 C 0.98972 0.45302 0.02942 0.0
C430 C 0.97567 0.45642 0.006 0.0
C431 C 0.99386 0.45771 0.9847 0.0
C432 C 0.9424 0.46116 0.0032 0.0
C433 C 0.9714 0.45232 0.05298 0.0
C434 C 0.92131 0.43893 0.01045 0.0
C435 C 0.89006 0.44373 0.00704 0.0
C436 C 0.87937 0.47082 0.9962 0.0
C437 C 0.90072 0.49291 0.98895 0.0
C438 C 0.93178 0.48814 0.99244 0.0
H439 H 0.98584 0.45589 0.06961 0.0
H440 H 0.95341 0.47001 0.05266 0.0
H441 H 0.96018 0.42985 0.05475 0.0
H442 H 0.929 0.41771 0.01842 0.0
H443 H 0.87432 0.42626 0.01289 0.0
H444 H 0.50631 0.12188 0.22824 0.0
H445 H 0.51381 0.06689 0.22463 0.0
H446 H 0.57668 0.06917 0.28584 0.0
H447 H 0.56906 0.12411 0.28978 0.0
H448 H 0.57021 0.02897 0.22003 0.0
H449 H 0.50415 0.01157 0.30673 0.0
H450 H 0.5025 0.04658 0.28938 0.0
H451 H 0.53527 0.03808 0.3079 0.0
C452 C 0.52202 0.11073 0.24073 0.0
C453 C 0.53694 0.12731 0.2594 0.0
C454 C 0.52638 0.07937 0.23858 0.0
C455 C 0.54553 0.06401 0.25514 0.0
C456 C 0.56165 0.08065 0.27298 0.0
H457 H 0.57986 0.8664 0.25052 0.0
H458 H 0.5879 0.92128 0.25538 0.0
C459 C 0.55746 0.11206 0.27507 0.0
C460 C 0.5467 0.03037 0.25488 0.0
H461 H 0.52138 0.96784 0.28608 0.0
C462 C 0.55991 0.01553 0.23459 0.0
C463 C 0.53294 0.01303 0.27382 0.0
C464 C 0.5177 0.02796 0.29567 0.0
C465 C 0.55935 0.98368 0.23261 0.0
C466 C 0.54522 0.9664 0.2514 0.0
C467 C 0.53244 0.98123 0.27185 0.0
C468 C 0.54085 0.93318 0.24899 0.0
C469 C 0.57276 0.96867 0.21005 0.0
C470 C 0.51172 0.92182 0.24411 0.0
C471 C 0.50708 0.89068 0.2411 0.0
C472 C 0.53144 0.87005 0.2432 0.0
C473 C 0.56062 0.88155 0.24853 0.0
C474 C 0.56528 0.91288 0.25137 0.0
H475 H 0.58028 0.98548 0.196 0.0
H476 H 0.59266 0.95474 0.21561 0.0
H477 H 0.55583 0.95319 0.20145 0.0
H478 H 0.49261 0.93717 0.24212 0.0
H479 H 0.48443 0.88293 0.23641 0.0
H480 H 0.11451 0.49492 0.47565 0.0
H481 H 0.0604 0.50504 0.48005 0.0
H482 H 0.08036 0.58903 0.51782 0.0
H483 H 0.13506 0.57863 0.51406 0.0
H484 H 0.03563 0.55388 0.54115 0.0
H485 H 0.00963 0.56691 0.44163 0.0
H486 H 0.03005 0.53248 0.44792 0.0
H487 H 0.04793 0.5686 0.45367 0.0
C488 C 0.10752 0.51542 0.48516 0.0
C489 C 0.12918 0.53586 0.49467 0.0
C490 C 0.07652 0.5214 0.48731 0.0
C491 C 0.06636 0.54808 0.4988 0.0
C492 C 0.08778 0.56847 0.50861 0.0
H493 H 0.86763 0.57801 0.49483 0.0
H494 H 0.9223 0.58907 0.49161 0.0
C495 C 0.11898 0.56253 0.50641 0.0
C496 C 0.03325 0.55357 0.50136 0.0
H497 H 0.96723 0.55431 0.46805 0.0
C498 C 0.02069 0.55459 0.52518 0.0
C499 C 0.01379 0.55504 0.48052 0.0
C500 C 0.02606 0.55603 0.4545 0.0
C501 C 0.98907 0.55486 0.52869 0.0
C502 C 0.9696 0.55366 0.50784 0.0
C503 C 0.98217 0.55485 0.48403 0.0
C504 C 0.93652 0.54802 0.51035 0.0
C505 C 0.9768 0.55563 0.55472 0.0
C506 C 0.92652 0.52113 0.52158 0.0
C507 C 0.89557 0.51478 0.5234 0.0
C508 C 0.8738 0.53505 0.51381 0.0
C509 C 0.88382 0.56203 0.50249 0.0
C510 C 0.91499 0.56834 0.5006 0.0
H511 H 0.99322 0.56645 0.56764 0.0
H512 H 0.95491 0.56815 0.55562 0.0
H513 H 0.97288 0.53202 0.56116 0.0
H514 H 0.94272 0.50482 0.52878 0.0
H515 H 0.88869 0.49405 0.53261 0.0
H516 H 0.48864 0.12722 0.77898 0.0
H517 H 0.48186 0.072 0.781 0.0
H518 H 0.42938 0.07444 0.71365 0.0
H519 H 0.43626 0.12962 0.71135 0.0
H520 H 0.42559 0.03239 0.77837 0.0
H521 H 0.50725 0.01959 0.70034 0.0
H522 H 0.50497 0.05392 0.71855 0.0
H523 H 0.47605 0.04556 0.69615 0.0
C524 C 0.47526 0.11605 0.76481 0.0
C525 C 0.46313 0.13275 0.74493 0.0
C526 C 0.47132 0.08456 0.76604 0.0
C527 C 0.45541 0.0692 0.74733 0.0
C528 C 0.44187 0.08593 0.72819 0.0
H529 H 0.42632 0.87103 0.74169 0.0
H530 H 0.41812 0.92594 0.73742 0.0
C531 C 0.44562 0.11747 0.72702 0.0
C532 C 0.45524 0.03556 0.74686 0.0
H533 H 0.48788 0.97476 0.71791 0.0
C534 C 0.43887 0.01971 0.76499 0.0
C535 C 0.47287 0.01921 0.7295 0.0
C536 C 0.49149 0.03528 0.71007 0.0
C537 C 0.43996 0.98782 0.76635 0.0
C538 C 0.45791 0.97156 0.74919 0.0
C539 C 0.47394 0.98738 0.73087 0.0
C540 C 0.46252 0.93835 0.75132 0.0
C541 C 0.42287 0.97167 0.78661 0.0
C542 C 0.49027 0.9273 0.76029 0.0
C543 C 0.49494 0.89612 0.76301 0.0
C544 C 0.47205 0.87517 0.75653 0.0
C545 C 0.44434 0.88641 0.74713 0.0
C546 C 0.43962 0.91775 0.74459 0.0
H547 H 0.41189 0.98776 0.79967 0.0
H548 H 0.40503 0.95703 0.7783 0.0
H549 H 0.43856 0.95669 0.79714 0.0
H550 H 0.50817 0.9429 0.76565 0.0
H551 H 0.51629 0.88855 0.77086 0.0
H552 H 0.39994 0.77094 0.18035 0.0
H553 H 0.35359 0.75908 0.15669 0.0
H554 H 0.37794 0.66414 0.15703 0.0
H555 H 0.42429 0.67589 0.18001 0.0
H556 H 0.35951 0.72791 0.10814 0.0
H557 H 0.28434 0.66658 0.17307 0.0
H558 H 0.31238 0.69401 0.18319 0.0
H559 H 0.32353 0.65567 0.17604 0.0
C560 C 0.39484 0.74747 0.17594 0.0
C561 C 0.41554 0.72426 0.18193 0.0
C562 C 0.3685 0.74078 0.16241 0.0
C563 C 0.36228 0.71073 0.1554 0.0
C564 C 0.38213 0.68741 0.16264 0.0
H565 H 0.32961 0.58978 0.05467 0.0
H566 H 0.34251 0.63764 0.07478 0.0
C567 C 0.40864 0.69413 0.17565 0.0
C568 C 0.33772 0.70345 0.13774 0.0
H569 H 0.28192 0.65076 0.12997 0.0
C570 C 0.3417 0.71192 0.11294 0.0
C571 C 0.31426 0.68304 0.14409 0.0
C572 C 0.30813 0.6745 0.17061 0.0
C573 C 0.32531 0.69748 0.09402 0.0
C574 C 0.30471 0.67407 0.10021 0.0
C575 C 0.29794 0.66854 0.12518 0.0
C576 C 0.29584 0.65054 0.08205 0.0
C577 C 0.33191 0.70565 0.0675 0.0
C578 C 0.26525 0.64231 0.07875 0.0
C579 C 0.25785 0.61499 0.06689 0.0
C580 C 0.28103 0.59539 0.05887 0.0
C581 C 0.31141 0.60468 0.06062 0.0
C582 C 0.31875 0.63213 0.07197 0.0
H583 H 0.33841 0.72996 0.06585 0.0
H584 H 0.35133 0.69181 0.0608 0.0
H585 H 0.31198 0.70115 0.0554 0.0
H586 H 0.2473 0.65601 0.08672 0.0
H587 H 0.23426 0.60797 0.06603 0.0
H588 H 0.44408 0.3151 0.34596 0.0
H589 H 0.39829 0.32941 0.36809 0.0
H590 H 0.34763 0.25997 0.32971 0.0
H591 H 0.39413 0.24493 0.30734 0.0
H592 H 0.3224 0.32509 0.33189 0.0
H593 H 0.35297 0.27682 0.42298 0.0
H594 H 0.38466 0.29461 0.40788 0.0
H595 H 0.36724 0.26168 0.3941 0.0
C596 C 0.42328 0.30282 0.34206 0.0
C597 C 0.42268 0.2789 0.32488 0.0
C598 C 0.39719 0.31086 0.35492 0.0
C599 C 0.36987 0.2953 0.35086 0.0
C600 C 0.36873 0.27188 0.33328 0.0
H601 H 0.24836 0.39747 0.45017 0.0
H602 H 0.26184 0.35071 0.42756 0.0
C603 C 0.39516 0.26349 0.32048 0.0
C604 C 0.34271 0.30552 0.36446 0.0
H605 H 0.32429 0.32445 0.42367 0.0
C606 C 0.3218 0.32396 0.35193 0.0
C607 C 0.3417 0.30365 0.39054 0.0
C608 C 0.36268 0.28285 0.40467 0.0
C609 C 0.30275 0.34376 0.36504 0.0
C610 C 0.30507 0.3451 0.3911 0.0
C611 C 0.32285 0.32364 0.40365 0.0
C612 C 0.29565 0.3726 0.40468 0.0
C613 C 0.28243 0.36517 0.35087 0.0
C614 C 0.31093 0.39986 0.39974 0.0
C615 C 0.30377 0.42614 0.41275 0.0
C616 C 0.28108 0.42577 0.43096 0.0
C617 C 0.26598 0.39833 0.43622 0.0
C618 C 0.27347 0.37175 0.42328 0.0
H619 H 0.27543 0.35513 0.33288 0.0
H620 H 0.2618 0.37101 0.36169 0.0
H621 H 0.29505 0.38647 0.34695 0.0
H622 H 0.32862 0.40075 0.38583 0.0
H623 H 0.31575 0.44689 0.40817 0.0
H624 H 0.60361 0.23531 0.68567 0.0
H625 H 0.65035 0.2505 0.66397 0.0
H626 H 0.62301 0.34443 0.6689 0.0
H627 H 0.57627 0.32941 0.68988 0.0
H628 H 0.6436 0.28519 0.61725 0.0
H629 H 0.71647 0.344 0.68569 0.0
H630 H 0.68935 0.3149 0.6942 0.0
H631 H 0.67689 0.35328 0.68883 0.0
C632 C 0.60813 0.25924 0.68271 0.0
C633 C 0.58649 0.28128 0.68931 0.0
C634 C 0.63471 0.26782 0.67034 0.0
C635 C 0.64019 0.29856 0.66515 0.0
C636 C 0.6194 0.32064 0.67314 0.0
H637 H 0.67473 0.42847 0.56985 0.0
H638 H 0.66016 0.38238 0.592 0.0
C639 C 0.59266 0.31205 0.68497 0.0
C640 C 0.66464 0.30792 0.64816 0.0
H641 H 0.719 0.36267 0.64334 0.0
C642 C 0.66097 0.30124 0.62296 0.0
C643 C 0.68736 0.32861 0.65569 0.0
C644 C 0.693 0.33543 0.68264 0.0
C645 C 0.67698 0.31754 0.60492 0.0
C646 C 0.69704 0.34082 0.61244 0.0
C647 C 0.70341 0.34488 0.63765 0.0
C648 C 0.70609 0.36518 0.59527 0.0
C649 C 0.67051 0.31158 0.57797 0.0
C650 C 0.7367 0.37041 0.58949 0.0
C651 C 0.74502 0.39659 0.57645 0.0
C652 C 0.72286 0.41809 0.56975 0.0
C653 C 0.69219 0.41221 0.57483 0.0
C654 C 0.68386 0.38586 0.58735 0.0
H655 H 0.66198 0.28809 0.57501 0.0
H656 H 0.65276 0.32765 0.57146 0.0
H657 H 0.6912 0.31513 0.56659 0.0
H658 H 0.75414 0.35484 0.59579 0.0
H659 H 0.76888 0.40087 0.57292 0.0
H660 H 0.68563 0.55131 0.91042 0.0
H661 H 0.6699 0.59638 0.88783 0.0
H662 H 0.73824 0.64942 0.92539 0.0
H663 H 0.75466 0.60376 0.94822 0.0
H664 H 0.67365 0.67371 0.92309 0.0
H665 H 0.72056 0.64109 0.832 0.0
H666 H 0.70241 0.60998 0.8476 0.0
H667 H 0.73581 0.62703 0.86093 0.0
C668 C 0.69734 0.5725 0.91405 0.0
C669 C 0.72138 0.57401 0.93112 0.0
C670 C 0.68849 0.59818 0.90093 0.0
C671 C 0.70336 0.62595 0.9046 0.0
C672 C 0.72684 0.62797 0.92212 0.0
H673 H 0.60509 0.7519 0.80515 0.0
H674 H 0.65092 0.7358 0.82801 0.0
C675 C 0.73602 0.60201 0.93519 0.0
C676 C 0.6926 0.65266 0.89063 0.0
H677 H 0.67405 0.67128 0.83131 0.0
C678 C 0.67466 0.67408 0.90305 0.0
C679 C 0.69431 0.65333 0.86453 0.0
C680 C 0.71458 0.63179 0.85047 0.0
C681 C 0.65541 0.69364 0.88985 0.0
C682 C 0.65412 0.69139 0.86378 0.0
C683 C 0.67489 0.67273 0.85133 0.0
C684 C 0.62727 0.7023 0.85003 0.0
C685 C 0.63464 0.71469 0.90392 0.0
C686 C 0.59929 0.68813 0.85444 0.0
C687 C 0.57353 0.69679 0.84131 0.0
C688 C 0.57513 0.71993 0.82349 0.0
C689 C 0.60327 0.73398 0.81879 0.0
C690 C 0.62934 0.72497 0.83186 0.0
H691 H 0.64461 0.72101 0.9221 0.0
H692 H 0.62993 0.73568 0.89319 0.0
H693 H 0.61271 0.70298 0.90741 0.0
H694 H 0.59743 0.67015 0.86804 0.0
H695 H 0.55223 0.68556 0.84546 0.0
H696 H 0.31289 0.46542 0.10293 0.0
H697 H 0.34274 0.43417 0.13085 0.0
H698 H 0.32497 0.35546 0.08557 0.0
H699 H 0.29497 0.38697 0.05698 0.0
H700 H 0.32608 0.38462 0.15843 0.0
H701 H 0.4178 0.35469 0.09205 0.0
H702 H 0.39048 0.38436 0.08591 0.0
H703 H 0.3798 0.34519 0.08253 0.0
C704 C 0.31517 0.44147 0.09874 0.0
C705 C 0.30149 0.42879 0.07754 0.0
C706 C 0.33231 0.42359 0.11485 0.0
C707 C 0.33641 0.39252 0.11024 0.0
C708 C 0.32255 0.37952 0.08929 0.0
H709 H 0.41868 0.27743 0.22578 0.0
H710 H 0.38339 0.2982 0.19513 0.0
C711 C 0.30529 0.39752 0.07302 0.0
C712 C 0.35528 0.37428 0.12765 0.0
H713 H 0.42226 0.33532 0.1325 0.0
C714 C 0.34697 0.37357 0.15273 0.0
C715 C 0.38274 0.36022 0.12025 0.0
C716 C 0.3935 0.36125 0.09378 0.0
C717 C 0.36558 0.35976 0.17065 0.0
C718 C 0.39306 0.34572 0.16326 0.0
C719 C 0.40112 0.34593 0.13812 0.0
C720 C 0.4146 0.33229 0.1815 0.0
C721 C 0.35626 0.36149 0.19747 0.0
C722 C 0.44417 0.34399 0.1837 0.0
C723 C 0.46443 0.33212 0.20118 0.0
C724 C 0.45563 0.30818 0.21687 0.0
C725 C 0.42609 0.29621 0.21438 0.0
C726 C 0.40585 0.30806 0.19681 0.0
H727 H 0.33849 0.37902 0.20061 0.0
H728 H 0.34688 0.33921 0.20328 0.0
H729 H 0.37609 0.36674 0.20947 0.0
H730 H 0.45145 0.3627 0.17211 0.0
H731 H 0.48681 0.34214 0.20269 0.0
H732 H 0.5582 0.32324 0.31716 0.0
H733 H 0.58584 0.36053 0.34199 0.0
H734 H 0.6358 0.28833 0.37745 0.0
H735 H 0.6078 0.25083 0.35309 0.0
H736 H 0.60999 0.3261 0.41068 0.0
H737 H 0.67098 0.39464 0.34053 0.0
H738 H 0.63091 0.39177 0.33475 0.0
H739 H 0.65422 0.35821 0.33344 0.0
C740 C 0.5756 0.31528 0.32978 0.0
C741 C 0.58075 0.28397 0.3331 0.0
C742 C 0.59148 0.3367 0.34395 0.0
C743 C 0.61313 0.32731 0.36148 0.0
C744 C 0.61925 0.29615 0.36403 0.0
H745 H 0.71871 0.41621 0.4767 0.0
H746 H 0.69689 0.38064 0.44698 0.0
C747 C 0.60328 0.27472 0.34999 0.0
C748 C 0.62733 0.34958 0.37873 0.0
H749 H 0.66918 0.41499 0.38143 0.0
C750 C 0.62316 0.34538 0.40426 0.0
C751 C 0.64429 0.37492 0.37038 0.0
C752 C 0.65064 0.38006 0.34329 0.0
C753 C 0.63512 0.36592 0.42161 0.0
C754 C 0.65205 0.39122 0.41327 0.0
C755 C 0.65616 0.39558 0.38777 0.0
C756 C 0.66586 0.41322 0.43086 0.0
C757 C 0.62902 0.36071 0.44875 0.0
C758 C 0.65615 0.44358 0.43134 0.0
C759 C 0.66846 0.46406 0.44849 0.0
C760 C 0.69092 0.45462 0.46543 0.0
C761 C 0.70103 0.42426 0.46443 0.0
C762 C 0.68864 0.40384 0.44734 0.0
H763 H 0.60991 0.34461 0.45171 0.0
H764 H 0.64964 0.35095 0.45754 0.0
H765 H 0.62367 0.38244 0.45824 0.0
H766 H 0.63861 0.45131 0.41873 0.0
H767 H 0.65991 0.4871 0.44876 0.0
H768 H 0.51076 0.65855 0.69836 0.0
H769 H 0.54644 0.63667 0.66863 0.0
H770 H 0.61806 0.6931 0.69786 0.0
H771 H 0.58258 0.7154 0.72741 0.0
H772 H 0.58255 0.66574 0.63179 0.0
H773 H 0.65353 0.60663 0.70185 0.0
H774 H 0.61614 0.62124 0.70874 0.0
H775 H 0.6482 0.6465 0.70746 0.0
C776 C 0.53401 0.66653 0.6984 0.0
C777 C 0.54371 0.68867 0.71551 0.0
C778 C 0.55442 0.65389 0.68141 0.0
C779 C 0.585 0.66294 0.68124 0.0
C780 C 0.5947 0.68532 0.69798 0.0
H781 H 0.7464 0.60518 0.60263 0.0
H782 H 0.70884 0.63308 0.62686 0.0
C783 C 0.57433 0.698 0.71495 0.0
C784 C 0.60679 0.64895 0.66358 0.0
H785 H 0.67181 0.60671 0.66073 0.0
C786 C 0.60204 0.65275 0.63807 0.0
C787 C 0.63218 0.63199 0.67182 0.0
C788 C 0.63778 0.62605 0.69894 0.0
C789 C 0.62237 0.64059 0.62059 0.0
C790 C 0.64783 0.6237 0.62885 0.0
C791 C 0.65242 0.61981 0.65438 0.0
C792 C 0.66997 0.60952 0.61153 0.0
C793 C 0.61678 0.64653 0.59349 0.0
C794 C 0.66064 0.58743 0.59435 0.0
C795 C 0.68213 0.57155 0.58024 0.0
C796 C 0.71341 0.57719 0.58329 0.0
C797 C 0.72254 0.60022 0.59977 0.0
C798 C 0.70107 0.61615 0.61373 0.0
H799 H 0.60182 0.66658 0.59063 0.0
H800 H 0.63848 0.65035 0.58348 0.0
H801 H 0.60536 0.62649 0.58518 0.0
H802 H 0.63686 0.58144 0.59264 0.0
H803 H 0.6743 0.55375 0.56794 0.0
H804 H 0.34501 0.51198 0.94696 0.0
H805 H 0.36382 0.54706 0.91523 0.0
H806 H 0.31225 0.61983 0.94814 0.0
H807 H 0.29415 0.58543 0.98016 0.0
H808 H 0.33217 0.58496 0.8803 0.0
H809 H 0.40003 0.65224 0.94745 0.0
H810 H 0.38492 0.61517 0.9547 0.0
H811 H 0.36071 0.64806 0.95565 0.0
C812 C 0.33771 0.53545 0.94745 0.0
C813 C 0.31812 0.54578 0.96623 0.0
C814 C 0.34833 0.55542 0.92922 0.0
C815 C 0.33975 0.58614 0.92952 0.0
C816 C 0.31949 0.59631 0.94774 0.0
H817 H 0.39215 0.7489 0.8511 0.0
H818 H 0.36558 0.71067 0.8756 0.0
C819 C 0.30886 0.57642 0.96593 0.0
C820 C 0.35262 0.60789 0.91132 0.0
H821 H 0.39565 0.67222 0.90697 0.0
C822 C 0.34615 0.604 0.88606 0.0
C823 C 0.37093 0.63264 0.91889 0.0
C824 C 0.37985 0.63722 0.94561 0.0
C825 C 0.35687 0.6247 0.86824 0.0
C826 C 0.3749 0.64964 0.87589 0.0
C827 C 0.38158 0.65327 0.90113 0.0
C828 C 0.38756 0.67223 0.85822 0.0
C829 C 0.34819 0.62011 0.8415 0.0
C830 C 0.40819 0.66336 0.83977 0.0
C831 C 0.42332 0.68524 0.82555 0.0
C832 C 0.41837 0.71643 0.82972 0.0
C833 C 0.39655 0.72513 0.84736 0.0
C834 C 0.38138 0.70328 0.86147 0.0
H835 H 0.32792 0.60523 0.83959 0.0
H836 H 0.3434 0.64217 0.83233 0.0
H837 H 0.36735 0.60909 0.83164 0.0
H838 H 0.41378 0.63961 0.83721 0.0
H839 H 0.44016 0.6777 0.8123 0.0
H840 H 0.25418 0.60284 0.39567 0.0
H841 H 0.29246 0.62909 0.37109 0.0
H842 H 0.36286 0.59559 0.41949 0.0
H843 H 0.32468 0.56849 0.44393 0.0
H844 H 0.33553 0.67222 0.38 0.0
H845 H 0.39043 0.56351 0.35294 0.0
H846 H 0.35435 0.56488 0.36869 0.0
H847 H 0.38914 0.57 0.3857 0.0
C848 C 0.27774 0.60135 0.40139 0.0
C849 C 0.28633 0.58324 0.42169 0.0
C850 C 0.29965 0.61638 0.38723 0.0
C851 C 0.33063 0.61372 0.39304 0.0
C852 C 0.33916 0.59731 0.41424 0.0
H853 H 0.4907 0.67754 0.31225 0.0
H854 H 0.4564 0.65811 0.34402 0.0
C855 C 0.31725 0.58207 0.42836 0.0
C856 C 0.35383 0.62707 0.3762 0.0
H857 H 0.41312 0.60858 0.3382 0.0
C858 C 0.35255 0.65831 0.37093 0.0
C859 C 0.37596 0.60889 0.36421 0.0
C860 C 0.37748 0.57492 0.36794 0.0
C861 C 0.37276 0.67182 0.35407 0.0
C862 C 0.39469 0.65359 0.34201 0.0
C863 C 0.39635 0.6225 0.34756 0.0
C864 C 0.41543 0.66612 0.3229 0.0
C865 C 0.37059 0.70552 0.3493 0.0
C866 C 0.40381 0.67676 0.30034 0.0
C867 C 0.42337 0.68755 0.28194 0.0
C868 C 0.45508 0.68801 0.2857 0.0
C869 C 0.46657 0.67731 0.30844 0.0
C870 C 0.44696 0.66634 0.32676 0.0
H871 H 0.35759 0.71738 0.36403 0.0
H872 H 0.39357 0.71582 0.348 0.0
H873 H 0.35875 0.70935 0.33143 0.0
H874 H 0.37957 0.67623 0.29678 0.0
H875 H 0.41354 0.69495 0.26463 0.0
H876 H 0.29002 0.42032 0.52547 0.0
H877 H 0.31267 0.38525 0.55516 0.0
H878 H 0.36659 0.45807 0.58547 0.0
H879 H 0.34454 0.49334 0.55552 0.0
H880 H 0.37584 0.37169 0.56109 0.0
H881 H 0.32556 0.41956 0.64692 0.0
H882 H 0.31065 0.42793 0.61653 0.0
H883 H 0.34462 0.44638 0.62724 0.0
C884 C 0.30682 0.42901 0.53826 0.0
C885 C 0.31537 0.45986 0.53794 0.0
C886 C 0.31962 0.40887 0.55538 0.0
C887 C 0.34101 0.4191 0.57276 0.0
C888 C 0.34965 0.44979 0.57256 0.0
H889 H 0.44999 0.32913 0.68563 0.0
H890 H 0.42288 0.36614 0.65996 0.0
C891 C 0.33697 0.46996 0.55538 0.0
C892 C 0.35508 0.39736 0.59042 0.0
H893 H 0.36216 0.38052 0.65189 0.0
C894 C 0.37275 0.37352 0.58093 0.0
C895 C 0.3512 0.39995 0.61631 0.0
C896 C 0.3318 0.42466 0.62746 0.0
C897 C 0.38698 0.35241 0.59663 0.0
C898 C 0.38277 0.3547 0.62254 0.0
C899 C 0.36524 0.37867 0.63205 0.0
C900 C 0.39669 0.33251 0.63996 0.0
C901 C 0.40703 0.32831 0.58529 0.0
C902 C 0.39003 0.3014 0.63803 0.0
C903 C 0.40553 0.28019 0.65261 0.0
C904 C 0.42779 0.28966 0.66966 0.0
C905 C 0.43299 0.32101 0.67271 0.0
C906 C 0.41757 0.34222 0.65798 0.0
H907 H 0.41454 0.3347 0.56638 0.0
H908 H 0.42749 0.32415 0.59686 0.0
H909 H 0.3941 0.30674 0.58385 0.0
H910 H 0.37341 0.29342 0.62473 0.0
H911 H 0.40076 0.25628 0.64989 0.0
H912 H 0.6837 0.43211 0.94403 0.0
H913 H 0.64536 0.40486 0.91971 0.0
H914 H 0.71542 0.37105 0.87133 0.0
H915 H 0.75383 0.39804 0.8954 0.0
H916 H 0.6666 0.4029 0.84734 0.0
H917 H 0.62497 0.31268 0.91084 0.0
H918 H 0.62715 0.35046 0.92347 0.0
H919 H 0.6614 0.33103 0.91485 0.0
C920 C 0.69107 0.41826 0.9286 0.0
C921 C 0.72191 0.41735 0.9217 0.0
C922 C 0.66909 0.40268 0.91471 0.0
C923 C 0.67755 0.38588 0.89374 0.0
C924 C 0.70841 0.38385 0.88747 0.0
H925 H 0.57526 0.27353 0.79105 0.0
H926 H 0.61147 0.29382 0.82136 0.0
C927 C 0.73037 0.39925 0.90136 0.0
C928 C 0.65421 0.37271 0.87699 0.0
H929 H 0.59838 0.31887 0.87297 0.0
C930 C 0.65169 0.38452 0.85295 0.0
C931 C 0.63488 0.34868 0.88432 0.0
C932 C 0.63723 0.33471 0.9097 0.0
C933 C 0.63022 0.3731 0.83609 0.0
C934 C 0.61066 0.3493 0.84349 0.0
C935 C 0.61331 0.33726 0.86744 0.0
C936 C 0.58773 0.33641 0.82628 0.0
C937 C 0.6288 0.38625 0.81035 0.0
C938 C 0.56219 0.35348 0.8193 0.0
C939 C 0.54145 0.34194 0.80202 0.0
C940 C 0.54596 0.31316 0.79126 0.0
C941 C 0.57132 0.2959 0.79871 0.0
C942 C 0.59191 0.30737 0.81615 0.0
H943 H 0.64864 0.40104 0.80628 0.0
H944 H 0.62783 0.3678 0.79635 0.0
H945 H 0.60782 0.40006 0.80842 0.0
H946 H 0.55852 0.37591 0.82699 0.0
H947 H 0.52236 0.35593 0.79657 0.0
H948 H 0.60094 0.74065 0.14398 0.0
H949 H 0.62897 0.7013 0.1218 0.0
H950 H 0.58145 0.63209 0.16279 0.0
H951 H 0.55301 0.67142 0.18508 0.0
H952 H 0.66638 0.65138 0.13754 0.0
H953 H 0.56109 0.61383 0.08924 0.0
H954 H 0.56336 0.64933 0.10587 0.0
H955 H 0.55957 0.61421 0.12247 0.0
C956 C 0.59673 0.71709 0.14862 0.0
C957 C 0.5745 0.70923 0.1662 0.0
C958 C 0.61281 0.6946 0.13589 0.0
C959 C 0.6069 0.66377 0.1403 0.0
C960 C 0.58599 0.65577 0.15881 0.0
H961 H 0.66441 0.50409 0.05617 0.0
H962 H 0.64186 0.5381 0.08679 0.0
C963 C 0.56995 0.6783 0.17168 0.0
C964 C 0.62149 0.64028 0.12451 0.0
H965 H 0.60629 0.58795 0.07943 0.0
C966 C 0.65326 0.63737 0.12492 0.0
C967 C 0.60433 0.6221 0.10801 0.0
C968 C 0.57022 0.62504 0.10611 0.0
C969 C 0.66834 0.61671 0.10932 0.0
C970 C 0.65123 0.59896 0.09244 0.0
C971 C 0.61941 0.60154 0.09235 0.0
C972 C 0.66585 0.57814 0.07429 0.0
C973 C 0.70244 0.61388 0.11128 0.0
C974 C 0.68664 0.5893 0.05684 0.0
C975 C 0.69981 0.56984 0.03939 0.0
C976 C 0.69227 0.53874 0.0388 0.0
C977 C 0.67119 0.52772 0.05621 0.0
C978 C 0.65809 0.5472 0.07369 0.0
H979 H 0.71086 0.62172 0.12959 0.0
H980 H 0.7099 0.59004 0.10838 0.0
H981 H 0.71319 0.62828 0.0969 0.0
H982 H 0.69249 0.6132 0.05652 0.0
H983 H 0.71606 0.57924 0.0265 0.0
loop_
_geom_bond_atom_site_label_1
_geom_bond_atom_site_label_2
_geom_bond_distance
_geom_bond_site_symmetry_2
_ccdc_geom_bond_type
Co0 N4 2.148 . S
Co0 N10 2.128 . S
Co0 N20 2.194 . S
Co0 O25 2.351 . S
Co0 O26 2.155 . S
Co0 O27 2.096 . S
C1 N4 1.301 . S
C1 N5 1.328 . S
C1 H6 0.930 . S
C2 C3 1.333 . S
C2 N4 1.317 . S
C2 H7 0.930 . S
C3 C2 1.333 . S
C3 N5 1.350 . S
C3 H29 0.930 1_554 S
N4 Co0 2.148 . S
N4 C1 1.301 . S
N4 C2 1.317 . S
N5 C1 1.328 . S
N5 C3 1.350 . S
H6 C1 0.930 . S
H7 C2 0.930 . S
C8 O9 1.224 . S
C8 O27 1.247 . S
O9 C8 1.224 . S
N10 Co0 2.128 . S
N10 C11 1.355 . S
N10 C13 1.311 . S
C11 N10 1.355 . S
C11 C12 1.363 . S
C11 H23 0.929 . S
C12 C11 1.363 . S
C12 N14 1.375 . S
C12 H30 0.931 . S
C13 N10 1.311 . S
C13 N14 1.347 . S
C13 H24 0.929 . S
N14 C12 1.375 . S
N14 C13 1.347 . S
C15 C18 1.365 . S
C15 N20 1.328 . S
C15 H21 0.929 . S
C16 C17 1.362 . S
C16 C19 1.378 . S
C16 H31 0.929 . S
C17 C16 1.362 . S
C17 C18 1.366 . S
C18 C15 1.365 . S
C18 C17 1.366 . S
C18 H32 0.930 . S
C19 C16 1.378 . S
C19 N20 1.315 . S
C19 H22 0.930 . S
N20 Co0 2.194 . S
N20 C15 1.328 . S
N20 C19 1.315 . S
H21 C15 0.929 . S
H22 C19 0.930 . S
H23 C11 0.929 . S
H24 C13 0.929 . S
O25 Co0 2.351 . S
O25 C28 1.244 . S
O26 Co0 2.155 . S
O26 C28 1.240 . S
O27 Co0 2.096 . S
O27 C8 1.247 . S
C28 O25 1.244 . S
C28 O26 1.240 . S
H29 C3 0.930 1_556 S
H30 C12 0.931 . S
H31 C16 0.929 . S
H32 C18 0.930 . S
Co33 N37 2.148 . S
Co33 N43 2.128 . S
Co33 N53 2.194 . S
Co33 O58 2.351 . S
Co33 O59 2.155 . S
Co33 O60 2.096 . S
C34 N37 1.301 . S
C34 N38 1.328 . S
C34 H39 0.930 . S
C35 C36 1.333 . S
C35 N37 1.317 . S
C35 H40 0.930 . S
C36 C35 1.333 . S
C36 N38 1.350 . S
C36 H62 0.931 . S
N37 Co33 2.148 . S
N37 C34 1.301 . S
N37 C35 1.317 . S
N38 C34 1.328 . S
N38 C36 1.350 . S
H39 C34 0.930 . S
H40 C35 0.930 . S
C41 O42 1.224 . S
C41 O60 1.247 . S
O42 C41 1.224 . S
N43 Co33 2.128 . S
N43 C44 1.355 . S
N43 C46 1.311 . S
C44 N43 1.355 . S
C44 C45 1.363 . S
C44 H56 0.929 . S
C45 C44 1.363 . S
C45 N47 1.375 . S
C45 H63 0.931 . S
C46 N43 1.311 . S
C46 N47 1.347 . S
C46 H57 0.929 . S
N47 C45 1.375 . S
N47 C46 1.347 . S
C48 C51 1.365 . S
C48 N53 1.328 . S
C48 H54 0.929 . S
C49 C50 1.362 . S
C49 C52 1.378 . S
C49 H64 0.929 . S
C50 C49 1.362 . S
C50 C51 1.366 . S
C51 C48 1.365 . S
C51 C50 1.366 . S
C51 H65 0.930 . S
C52 C49 1.378 . S
C52 N53 1.315 . S
C52 H55 0.930 . S
N53 Co33 2.194 . S
N53 C48 1.328 . S
N53 C52 1.315 . S
H54 C48 0.929 . S
H55 C52 0.930 . S
H56 C44 0.929 . S
H57 C46 0.929 . S
O58 Co33 2.351 . S
O58 C61 1.244 . S
O59 Co33 2.155 . S
O59 C61 1.240 . S
O60 Co33 2.096 . S
O60 C41 1.247 . S
C61 O58 1.244 . S
C61 O59 1.240 . S
H62 C36 0.931 . S
H63 C45 0.931 . S
H64 C49 0.929 . S
H65 C51 0.930 . S
Co66 N70 2.148 . S
Co66 N76 2.128 . S
Co66 N86 2.194 . S
Co66 O91 2.351 . S
Co66 O92 2.155 . S
Co66 O93 2.096 . S
C67 N70 1.301 . S
C67 N71 1.328 . S
C67 H72 0.930 . S
C68 C69 1.333 . S
C68 N70 1.317 . S
C68 H73 0.930 . S
C69 C68 1.333 . S
C69 N71 1.350 . S
C69 H95 0.931 . S
N70 Co66 2.148 . S
N70 C67 1.301 . S
N70 C68 1.317 . S
N71 C67 1.328 . S
N71 C69 1.350 . S
H72 C67 0.930 . S
H73 C68 0.930 . S
C74 O75 1.224 . S
C74 O93 1.247 . S
O75 C74 1.224 . S
N76 Co66 2.128 . S
N76 C77 1.355 . S
N76 C79 1.311 . S
C77 N76 1.355 . S
C77 C78 1.363 . S
C77 H89 0.929 . S
C78 C77 1.363 . S
C78 N80 1.375 . S
C78 H96 0.931 . S
C79 N76 1.311 . S
C79 N80 1.347 . S
C79 H90 0.929 . S
N80 C78 1.375 . S
N80 C79 1.347 . S
C81 C84 1.365 . S
C81 N86 1.328 . S
C81 H87 0.929 . S
C82 C83 1.362 . S
C82 C85 1.378 . S
C82 H97 0.929 . S
C83 C82 1.362 . S
C83 C84 1.366 . S
C84 C81 1.365 . S
C84 C83 1.366 . S
C84 H98 0.930 . S
C85 C82 1.378 . S
C85 N86 1.315 . S
C85 H88 0.930 . S
N86 Co66 2.194 . S
N86 C81 1.328 . S
N86 C85 1.315 . S
H87 C81 0.929 . S
H88 C85 0.930 . S
H89 C77 0.929 . S
H90 C79 0.929 . S
O91 Co66 2.351 . S
O91 C94 1.244 . S
O92 Co66 2.155 . S
O92 C94 1.240 . S
O93 Co66 2.096 . S
O93 C74 1.247 . S
C94 O91 1.244 . S
C94 O92 1.240 . S
H95 C69 0.931 . S
H96 C78 0.931 . S
H97 C82 0.929 . S
H98 C84 0.930 . S
Co99 N103 2.148 . S
Co99 N109 2.128 . S
Co99 N119 2.194 . S
Co99 O124 2.351 . S
Co99 O125 2.155 . S
Co99 O126 2.096 . S
C100 N103 1.301 . S
C100 N104 1.328 . S
C100 H105 0.930 . S
C101 C102 1.333 . S
C101 N103 1.317 . S
C101 H106 0.930 . S
C102 C101 1.333 . S
C102 N104 1.350 . S
C102 H128 0.931 . S
N103 Co99 2.148 . S
N103 C100 1.301 . S
N103 C101 1.317 . S
N104 C100 1.328 . S
N104 C102 1.350 . S
H105 C100 0.930 . S
H106 C101 0.930 . S
C107 O108 1.224 . S
C107 O126 1.247 . S
O108 C107 1.224 . S
N109 Co99 2.128 . S
N109 C110 1.355 . S
N109 C112 1.311 . S
C110 N109 1.355 . S
C110 C111 1.363 . S
C110 H122 0.929 . S
C111 C110 1.363 . S
C111 N113 1.375 . S
C111 H129 0.931 . S
C112 N109 1.311 . S
C112 N113 1.347 . S
C112 H123 0.929 . S
N113 C111 1.375 . S
N113 C112 1.347 . S
C114 C117 1.365 . S
C114 N119 1.328 . S
C114 H120 0.929 . S
C115 C116 1.362 . S
C115 C118 1.378 . S
C115 H130 0.929 . S
C116 C115 1.362 . S
C116 C117 1.366 . S
C117 C114 1.365 . S
C117 C116 1.366 . S
C117 H131 0.930 . S
C118 C115 1.378 . S
C118 N119 1.315 . S
C118 H121 0.930 . S
N119 Co99 2.194 . S
N119 C114 1.328 . S
N119 C118 1.315 . S
H120 C114 0.929 . S
H121 C118 0.930 . S
H122 C110 0.929 . S
H123 C112 0.929 . S
O124 Co99 2.351 . S
O124 C127 1.244 . S
O125 Co99 2.155 . S
O125 C127 1.240 . S
O126 Co99 2.096 . S
O126 C107 1.247 . S
C127 O124 1.244 . S
C127 O125 1.240 . S
H128 C102 0.931 . S
H129 C111 0.931 . S
H130 C115 0.929 . S
H131 C117 0.930 . S
Co132 N136 2.148 . S
Co132 N142 2.128 . S
Co132 N152 2.194 . S
Co132 O157 2.351 . S
Co132 O158 2.155 . S
Co132 O159 2.096 . S
C133 N136 1.301 . S
C133 N137 1.328 . S
C133 H138 0.930 . S
C134 C135 1.333 . S
C134 N136 1.317 . S
C134 H139 0.930 . S
C135 C134 1.333 . S
C135 N137 1.350 . S
C135 H161 0.931 . S
N136 Co132 2.148 . S
N136 C133 1.301 . S
N136 C134 1.317 . S
N137 C133 1.328 . S
N137 C135 1.350 . S
H138 C133 0.930 . S
H139 C134 0.930 . S
C140 O141 1.224 . S
C140 O159 1.247 . S
O141 C140 1.224 . S
N142 Co132 2.128 . S
N142 C143 1.355 . S
N142 C145 1.311 . S
C143 N142 1.355 . S
C143 C144 1.363 . S
C143 H155 0.929 . S
C144 C143 1.363 . S
C144 N146 1.375 . S
C144 H162 0.931 . S
C145 N142 1.311 . S
C145 N146 1.347 . S
C145 H156 0.929 . S
N146 C144 1.375 . S
N146 C145 1.347 . S
C147 C150 1.365 . S
C147 N152 1.328 . S
C147 H153 0.929 . S
C148 C149 1.362 . S
C148 C151 1.378 . S
C148 H163 0.929 . S
C149 C148 1.362 . S
C149 C150 1.366 . S
C150 C147 1.365 . S
C150 C149 1.366 . S
C150 H164 0.930 . S
C151 C148 1.378 . S
C151 N152 1.315 . S
C151 H154 0.930 . S
N152 Co132 2.194 . S
N152 C147 1.328 . S
N152 C151 1.315 . S
H153 C147 0.929 . S
H154 C151 0.930 . S
H155 C143 0.929 . S
H156 C145 0.929 . S
O157 Co132 2.351 . S
O157 C160 1.244 . S
O158 Co132 2.155 . S
O158 C160 1.240 . S
O159 Co132 2.096 . S
O159 C140 1.247 . S
C160 O157 1.244 . S
C160 O158 1.240 . S
H161 C135 0.931 . S
H162 C144 0.931 . S
H163 C148 0.929 . S
H164 C150 0.930 . S
Co165 N169 2.148 . S
Co165 N175 2.128 . S
Co165 N185 2.194 . S
Co165 O190 2.351 . S
Co165 O191 2.155 . S
Co165 O192 2.096 . S
C166 N169 1.301 . S
C166 N170 1.328 . S
C166 H171 0.930 . S
C167 C168 1.333 . S
C167 N169 1.317 . S
C167 H172 0.930 . S
C168 C167 1.333 . S
C168 N170 1.350 . S
C168 H194 0.931 . S
N169 Co165 2.148 . S
N169 C166 1.301 . S
N169 C167 1.317 . S
N170 C166 1.328 . S
N170 C168 1.350 . S
H171 C166 0.930 . S
H172 C167 0.930 . S
C173 O174 1.224 . S
C173 O192 1.247 . S
O174 C173 1.224 . S
N175 Co165 2.128 . S
N175 C176 1.355 . S
N175 C178 1.311 . S
C176 N175 1.355 . S
C176 C177 1.363 . S
C176 H188 0.929 . S
C177 C176 1.363 . S
C177 N179 1.375 . S
C177 H195 0.931 . S
C178 N175 1.311 . S
C178 N179 1.347 . S
C178 H189 0.929 . S
N179 C177 1.375 . S
N179 C178 1.347 . S
C180 C183 1.365 . S
C180 N185 1.328 . S
C180 H186 0.929 . S
C181 C182 1.362 . S
C181 C184 1.378 . S
C181 H196 0.929 . S
C182 C181 1.362 . S
C182 C183 1.366 . S
C183 C180 1.365 . S
C183 C182 1.366 . S
C183 H197 0.930 . S
C184 C181 1.378 . S
C184 N185 1.315 . S
C184 H187 0.930 . S
N185 Co165 2.194 . S
N185 C180 1.328 . S
N185 C184 1.315 . S
H186 C180 0.929 . S
H187 C184 0.930 . S
H188 C176 0.929 . S
H189 C178 0.929 . S
O190 Co165 2.351 . S
O190 C193 1.244 . S
O191 Co165 2.155 . S
O191 C193 1.240 . S
O192 Co165 2.096 . S
O192 C173 1.247 . S
C193 O190 1.244 . S
C193 O191 1.240 . S
H194 C168 0.931 . S
H195 C177 0.931 . S
H196 C181 0.929 . S
H197 C183 0.930 . S
Co198 N202 2.148 . S
Co198 N208 2.128 . S
Co198 N218 2.194 . S
Co198 O223 2.351 . S
Co198 O224 2.155 . S
Co198 O225 2.096 . S
C199 N202 1.301 . S
C199 N203 1.328 . S
C199 H204 0.930 . S
C200 C201 1.333 . S
C200 N202 1.317 . S
C200 H205 0.930 . S
C201 C200 1.333 . S
C201 N203 1.350 . S
C201 H227 0.930 1_556 S
N202 Co198 2.148 . S
N202 C199 1.301 . S
N202 C200 1.317 . S
N203 C199 1.328 . S
N203 C201 1.350 . S
H204 C199 0.930 . S
H205 C200 0.930 . S
C206 O207 1.224 . S
C206 O225 1.247 . S
O207 C206 1.224 . S
N208 Co198 2.128 . S
N208 C209 1.355 . S
N208 C211 1.311 . S
C209 N208 1.355 . S
C209 C210 1.363 . S
C209 H221 0.929 . S
C210 C209 1.363 . S
C210 N212 1.375 . S
C210 H228 0.931 . S
C211 N208 1.311 . S
C211 N212 1.347 . S
C211 H222 0.929 . S
N212 C210 1.375 . S
N212 C211 1.347 . S
C213 C216 1.365 . S
C213 N218 1.328 . S
C213 H219 0.929 . S
C214 C215 1.362 . S
C214 C217 1.378 . S
C214 H229 0.929 . S
C215 C214 1.362 . S
C215 C216 1.366 . S
C216 C213 1.365 . S
C216 C215 1.366 . S
C216 H230 0.930 . S
C217 C214 1.378 . S
C217 N218 1.315 . S
C217 H220 0.930 . S
N218 Co198 2.194 . S
N218 C213 1.328 . S
N218 C217 1.315 . S
H219 C213 0.929 . S
H220 C217 0.930 . S
H221 C209 0.929 . S
H222 C211 0.929 . S
O223 Co198 2.351 . S
O223 C226 1.244 . S
O224 Co198 2.155 . S
O224 C226 1.240 . S
O225 Co198 2.096 . S
O225 C206 1.247 . S
C226 O223 1.244 . S
C226 O224 1.240 . S
H227 C201 0.930 1_554 S
H228 C210 0.931 . S
H229 C214 0.929 . S
H230 C216 0.930 . S
Co231 N235 2.148 . S
Co231 N241 2.128 . S
Co231 N251 2.194 . S
Co231 O256 2.351 . S
Co231 O257 2.155 . S
Co231 O258 2.096 . S
C232 N235 1.301 . S
C232 N236 1.328 . S
C232 H237 0.930 . S
C233 C234 1.333 . S
C233 N235 1.317 . S
C233 H238 0.930 . S
C234 C233 1.333 . S
C234 N236 1.350 . S
C234 H260 0.931 . S
N235 Co231 2.148 . S
N235 C232 1.301 . S
N235 C233 1.317 . S
N236 C232 1.328 . S
N236 C234 1.350 . S
H237 C232 0.930 . S
H238 C233 0.930 . S
C239 O240 1.224 . S
C239 O258 1.247 . S
O240 C239 1.224 . S
N241 Co231 2.128 . S
N241 C242 1.355 . S
N241 C244 1.311 . S
C242 N241 1.355 . S
C242 C243 1.363 . S
C242 H254 0.929 . S
C243 C242 1.363 . S
C243 N245 1.375 . S
C243 H261 0.931 . S
C244 N241 1.311 . S
C244 N245 1.347 . S
C244 H255 0.929 . S
N245 C243 1.375 . S
N245 C244 1.347 . S
C246 C249 1.365 . S
C246 N251 1.328 . S
C246 H252 0.929 . S
C247 C248 1.362 . S
C247 C250 1.378 . S
C247 H262 0.929 . S
C248 C247 1.362 . S
C248 C249 1.366 . S
C249 C246 1.365 . S
C249 C248 1.366 . S
C249 H263 0.930 . S
C250 C247 1.378 . S
C250 N251 1.315 . S
C250 H253 0.930 . S
N251 Co231 2.194 . S
N251 C246 1.328 . S
N251 C250 1.315 . S
H252 C246 0.929 . S
H253 C250 0.930 . S
H254 C242 0.929 . S
H255 C244 0.929 . S
O256 Co231 2.351 . S
O256 C259 1.244 . S
O257 Co231 2.155 . S
O257 C259 1.240 . S
O258 Co231 2.096 . S
O258 C239 1.247 . S
C259 O256 1.244 . S
C259 O257 1.240 . S
H260 C234 0.931 . S
H261 C243 0.931 . S
H262 C247 0.929 . S
H263 C249 0.930 . S
H264 C272 0.929 . S
H265 C274 0.930 . S
H266 C276 0.930 . S
H267 C279 0.929 . S
H268 C282 0.930 . S
H269 C284 0.960 . S
H270 C284 0.960 . S
H271 C284 0.960 . S
C272 H264 0.929 . S
C272 C273 1.377 . S
C272 C274 1.384 . S
C273 C272 1.377 . S
C273 C279 1.390 . S
C274 H265 0.930 . S
C274 C272 1.384 . S
C274 C275 1.372 . S
C275 C274 1.372 . S
C275 C276 1.400 . S
C275 C280 1.490 . S
C276 H266 0.930 . S
C276 C275 1.400 . S
C276 C279 1.386 . S
H277 C293 0.930 . S
H278 C294 0.931 . S
C279 H267 0.929 . S
C279 C273 1.390 . S
C279 C276 1.386 . S
C280 C275 1.490 . S
C280 C282 1.395 . S
C280 C283 1.403 . S
H281 C287 0.930 . S
C282 H268 0.930 . S
C282 C280 1.395 . S
C282 C285 1.403 . S
C283 C280 1.403 . S
C283 C284 1.524 . S
C283 C287 1.400 . S
C284 H269 0.960 . S
C284 H270 0.960 . S
C284 H271 0.960 . S
C284 C283 1.524 . S
C285 C282 1.403 . S
C285 C286 1.392 . S
C285 C289 1.495 . S
C286 C285 1.392 . S
C286 C287 1.385 . S
C286 C288 1.478 . S
C287 H281 0.930 . S
C287 C283 1.400 . S
C287 C286 1.385 . S
C288 C286 1.478 . S
C288 C290 1.381 . S
C288 C294 1.383 . S
C289 C285 1.495 . S
C289 H295 0.959 . S
C289 H296 0.961 . S
C289 H297 0.960 . S
C290 C288 1.381 . S
C290 C291 1.394 . S
C290 H298 0.930 . S
C291 C290 1.394 . S
C291 C292 1.383 . S
C291 H299 0.929 . S
C292 C291 1.383 . S
C292 C293 1.377 . S
C293 H277 0.930 . S
C293 C292 1.377 . S
C293 C294 1.379 . S
C294 H278 0.931 . S
C294 C288 1.383 . S
C294 C293 1.379 . S
H295 C289 0.959 . S
H296 C289 0.961 . S
H297 C289 0.960 . S
H298 C290 0.930 . S
H299 C291 0.929 . S
H300 C308 0.929 . S
H301 C310 0.930 . S
H302 C312 0.930 . S
H303 C315 0.929 . S
H304 C318 0.930 . S
H305 C320 0.960 . S
H306 C320 0.960 . S
H307 C320 0.960 . S
C308 H300 0.929 . S
C308 C309 1.377 . S
C308 C310 1.384 . S
C309 C308 1.377 . S
C309 C315 1.390 . S
C310 H301 0.930 . S
C310 C308 1.384 . S
C310 C311 1.372 . S
C311 C310 1.372 . S
C311 C312 1.400 . S
C311 C316 1.490 . S
C312 H302 0.930 . S
C312 C311 1.400 . S
C312 C315 1.386 . S
H313 C329 0.930 . S
H314 C330 0.931 . S
C315 H303 0.929 . S
C315 C309 1.390 . S
C315 C312 1.386 . S
C316 C311 1.490 . S
C316 C318 1.395 . S
C316 C319 1.403 . S
H317 C323 0.930 . S
C318 H304 0.930 . S
C318 C316 1.395 . S
C318 C321 1.403 . S
C319 C316 1.403 . S
C319 C320 1.524 . S
C319 C323 1.400 . S
C320 H305 0.960 . S
C320 H306 0.960 . S
C320 H307 0.960 . S
C320 C319 1.524 . S
C321 C318 1.403 . S
C321 C322 1.392 . S
C321 C325 1.495 . S
C322 C321 1.392 . S
C322 C323 1.385 . S
C322 C324 1.478 . S
C323 H317 0.930 . S
C323 C319 1.400 . S
C323 C322 1.385 . S
C324 C322 1.478 . S
C324 C326 1.381 . S
C324 C330 1.383 . S
C325 C321 1.495 . S
C325 H331 0.959 . S
C325 H332 0.961 . S
C325 H333 0.960 . S
C326 C324 1.381 . S
C326 C327 1.394 . S
C326 H334 0.930 . S
C327 C326 1.394 . S
C327 C328 1.383 . S
C327 H335 0.929 . S
C328 C327 1.383 . S
C328 C329 1.377 . S
C329 H313 0.930 . S
C329 C328 1.377 . S
C329 C330 1.379 . S
C330 H314 0.931 . S
C330 C324 1.383 . S
C330 C329 1.379 . S
H331 C325 0.959 . S
H332 C325 0.961 . S
H333 C325 0.960 . S
H334 C326 0.930 . S
H335 C327 0.929 . S
H336 C344 0.929 . S
H337 C346 0.930 . S
H338 C348 0.930 . S
H339 C351 0.929 . S
H340 C354 0.930 . S
H341 C356 0.960 . S
H342 C356 0.960 . S
H343 C356 0.960 . S
C344 H336 0.929 . S
C344 C345 1.377 . S
C344 C346 1.384 . S
C345 C344 1.377 . S
C345 C351 1.390 . S
C346 H337 0.930 . S
C346 C344 1.384 . S
C346 C347 1.372 . S
C347 C346 1.372 . S
C347 C348 1.400 . S
C347 C352 1.490 . S
C348 H338 0.930 . S
C348 C347 1.400 . S
C348 C351 1.386 . S
H349 C365 0.930 . S
H350 C366 0.931 . S
C351 H339 0.929 . S
C351 C345 1.390 . S
C351 C348 1.386 . S
C352 C347 1.490 . S
C352 C354 1.395 . S
C352 C355 1.403 . S
H353 C359 0.930 . S
C354 H340 0.930 . S
C354 C352 1.395 . S
C354 C357 1.403 . S
C355 C352 1.403 . S
C355 C356 1.524 . S
C355 C359 1.400 . S
C356 H341 0.960 . S
C356 H342 0.960 . S
C356 H343 0.960 . S
C356 C355 1.524 . S
C357 C354 1.403 . S
C357 C358 1.392 . S
C357 C361 1.495 . S
C358 C357 1.392 . S
C358 C359 1.385 . S
C358 C360 1.478 . S
C359 H353 0.930 . S
C359 C355 1.400 . S
C359 C358 1.385 . S
C360 C358 1.478 . S
C360 C362 1.381 . S
C360 C366 1.383 . S
C361 C357 1.495 . S
C361 H367 0.959 . S
C361 H368 0.961 . S
C361 H369 0.960 . S
C362 C360 1.381 . S
C362 C363 1.394 . S
C362 H370 0.930 . S
C363 C362 1.394 . S
C363 C364 1.383 . S
C363 H371 0.929 . S
C364 C363 1.383 . S
C364 C365 1.377 . S
C365 H349 0.930 . S
C365 C364 1.377 . S
C365 C366 1.379 . S
C366 H350 0.931 . S
C366 C360 1.383 . S
C366 C365 1.379 . S
H367 C361 0.959 . S
H368 C361 0.961 . S
H369 C361 0.960 . S
H370 C362 0.930 . S
H371 C363 0.929 . S
H372 C380 0.929 . S
H373 C382 0.930 . S
H374 C384 0.930 . S
H375 C387 0.929 . S
H376 C390 0.930 . S
H377 C392 0.960 . S
H378 C392 0.960 . S
H379 C392 0.960 . S
C380 H372 0.929 . S
C380 C381 1.377 . S
C380 C382 1.384 . S
C381 C380 1.377 . S
C381 C387 1.390 . S
C382 H373 0.930 . S
C382 C380 1.384 . S
C382 C383 1.372 . S
C383 C382 1.372 . S
C383 C384 1.400 . S
C383 C388 1.490 . S
C384 H374 0.930 . S
C384 C383 1.400 . S
C384 C387 1.386 . S
H385 C401 0.930 . S
H386 C402 0.931 . S
C387 H375 0.929 . S
C387 C381 1.390 . S
C387 C384 1.386 . S
C388 C383 1.490 . S
C388 C390 1.395 . S
C388 C391 1.403 . S
H389 C395 0.930 . S
C390 H376 0.930 . S
C390 C388 1.395 . S
C390 C393 1.403 1_556 S
C391 C388 1.403 . S
C391 C392 1.524 . S
C391 C395 1.400 1_556 S
C392 H377 0.960 . S
C392 H378 0.960 . S
C392 H379 0.960 . S
C392 C391 1.524 . S
C393 C390 1.403 1_554 S
C393 C394 1.392 . S
C393 C397 1.495 . S
C394 C393 1.392 . S
C394 C395 1.385 . S
C394 C396 1.478 . S
C395 H389 0.930 . S
C395 C391 1.400 1_554 S
C395 C394 1.385 . S
C396 C394 1.478 . S
C396 C398 1.381 . S
C396 C402 1.383 . S
C397 C393 1.495 . S
C397 H403 0.959 . S
C397 H404 0.961 . S
C397 H405 0.960 . S
C398 C396 1.381 . S
C398 C399 1.394 . S
C398 H406 0.930 . S
C399 C398 1.394 . S
C399 C400 1.383 . S
C399 H407 0.929 . S
C400 C399 1.383 . S
C400 C401 1.377 . S
C401 H385 0.930 . S
C401 C400 1.377 . S
C401 C402 1.379 . S
C402 H386 0.931 . S
C402 C396 1.383 . S
C402 C401 1.379 . S
H403 C397 0.959 . S
H404 C397 0.961 . S
H405 C397 0.960 . S
H406 C398 0.930 . S
H407 C399 0.929 . S
H408 C416 0.929 . S
H409 C418 0.930 . S
H410 C420 0.930 . S
H411 C423 0.929 . S
H412 C426 0.930 . S
H413 C428 0.960 . S
H414 C428 0.960 . S
H415 C428 0.960 . S
C416 H408 0.929 . S
C416 C417 1.377 . S
C416 C418 1.384 . S
C417 C416 1.377 . S
C417 C423 1.390 . S
C418 H409 0.930 . S
C418 C416 1.384 . S
C418 C419 1.372 . S
C419 C418 1.372 . S
C419 C420 1.400 . S
C419 C424 1.490 . S
C420 H410 0.930 . S
C420 C419 1.400 . S
C420 C423 1.386 . S
H421 C437 0.930 . S
H422 C438 0.931 . S
C423 H411 0.929 . S
C423 C417 1.390 . S
C423 C420 1.386 . S
C424 C419 1.490 . S
C424 C426 1.395 . S
C424 C427 1.403 1_554 S
H425 C431 0.930 . S
C426 H412 0.930 . S
C426 C424 1.395 . S
C426 C429 1.403 1_455 S
C427 C424 1.403 1_556 S
C427 C428 1.524 . S
C427 C431 1.400 1_455 S
C428 H413 0.960 . S
C428 H414 0.960 . S
C428 H415 0.960 . S
C428 C427 1.524 . S
C429 C426 1.403 1_655 S
C429 C430 1.392 1_554 S
C429 C433 1.495 . S
C430 C429 1.392 1_556 S
C430 C431 1.385 . S
C430 C432 1.478 . S
C431 H425 0.930 . S
C431 C427 1.400 1_655 S
C431 C430 1.385 . S
C432 C430 1.478 . S
C432 C434 1.381 . S
C432 C438 1.383 . S
C433 C429 1.495 . S
C433 H439 0.959 . S
C433 H440 0.961 . S
C433 H441 0.960 . S
C434 C432 1.381 . S
C434 C435 1.394 . S
C434 H442 0.930 . S
C435 C434 1.394 . S
C435 C436 1.383 . S
C435 H443 0.929 . S
C436 C435 1.383 . S
C436 C437 1.377 . S
C437 H421 0.930 . S
C437 C436 1.377 . S
C437 C438 1.379 . S
C438 H422 0.931 . S
C438 C432 1.383 . S
C438 C437 1.379 . S
H439 C433 0.959 . S
H440 C433 0.961 . S
H441 C433 0.960 . S
H442 C434 0.930 . S
H443 C435 0.929 . S
H444 C452 0.929 . S
H445 C454 0.930 . S
H446 C456 0.930 . S
H447 C459 0.929 . S
H448 C462 0.930 . S
H449 C464 0.960 1_565 S
H450 C464 0.960 . S
H451 C464 0.960 . S
C452 H444 0.929 . S
C452 C453 1.377 . S
C452 C454 1.384 . S
C453 C452 1.377 . S
C453 C459 1.390 . S
C454 H445 0.930 . S
C454 C452 1.384 . S
C454 C455 1.372 . S
C455 C454 1.372 . S
C455 C456 1.400 . S
C455 C460 1.490 . S
C456 H446 0.930 . S
C456 C455 1.400 . S
C456 C459 1.386 . S
H457 C473 0.930 . S
H458 C474 0.931 . S
C459 H447 0.929 . S
C459 C453 1.390 . S
C459 C456 1.386 . S
C460 C455 1.490 . S
C460 C462 1.395 . S
C460 C463 1.403 . S
H461 C467 0.930 . S
C462 H448 0.930 . S
C462 C460 1.395 . S
C462 C465 1.403 1_545 S
C463 C460 1.403 . S
C463 C464 1.524 . S
C463 C467 1.400 1_545 S
C464 H449 0.960 1_545 S
C464 H450 0.960 . S
C464 H451 0.960 . S
C464 C463 1.524 . S
C465 C462 1.403 1_565 S
C465 C466 1.392 . S
C465 C469 1.495 . S
C466 C465 1.392 . S
C466 C467 1.385 . S
C466 C468 1.478 . S
C467 H461 0.930 . S
C467 C463 1.400 1_565 S
C467 C466 1.385 . S
C468 C466 1.478 . S
C468 C470 1.381 . S
C468 C474 1.383 . S
C469 C465 1.495 . S
C469 H475 0.959 1_565 S
C469 H476 0.961 . S
C469 H477 0.960 . S
C470 C468 1.381 . S
C470 C471 1.394 . S
C470 H478 0.930 . S
C471 C470 1.394 . S
C471 C472 1.383 . S
C471 H479 0.929 . S
C472 C471 1.383 . S
C472 C473 1.377 . S
C473 H457 0.930 . S
C473 C472 1.377 . S
C473 C474 1.379 . S
C474 H458 0.931 . S
C474 C468 1.383 . S
C474 C473 1.379 . S
H475 C469 0.959 1_545 S
H476 C469 0.961 . S
H477 C469 0.960 . S
H478 C470 0.930 . S
H479 C471 0.929 . S
H480 C488 0.929 . S
H481 C490 0.930 . S
H482 C492 0.930 . S
H483 C495 0.929 . S
H484 C498 0.930 . S
H485 C500 0.960 1_655 S
H486 C500 0.960 . S
H487 C500 0.960 . S
C488 H480 0.929 . S
C488 C489 1.377 . S
C488 C490 1.384 . S
C489 C488 1.377 . S
C489 C495 1.390 . S
C490 H481 0.930 . S
C490 C488 1.384 . S
C490 C491 1.372 . S
C491 C490 1.372 . S
C491 C492 1.400 . S
C491 C496 1.490 . S
C492 H482 0.930 . S
C492 C491 1.400 . S
C492 C495 1.386 . S
H493 C509 0.930 . S
H494 C510 0.931 . S
C495 H483 0.929 . S
C495 C489 1.390 . S
C495 C492 1.386 . S
C496 C491 1.490 . S
C496 C498 1.395 . S
C496 C499 1.403 . S
H497 C503 0.930 . S
C498 H484 0.930 . S
C498 C496 1.395 . S
C498 C501 1.403 1_455 S
C499 C496 1.403 . S
C499 C500 1.524 . S
C499 C503 1.400 1_455 S
C500 H485 0.960 1_455 S
C500 H486 0.960 . S
C500 H487 0.960 . S
C500 C499 1.524 . S
C501 C498 1.403 1_655 S
C501 C502 1.392 . S
C501 C505 1.495 . S
C502 C501 1.392 . S
C502 C503 1.385 . S
C502 C504 1.478 . S
C503 H497 0.930 . S
C503 C499 1.400 1_655 S
C503 C502 1.385 . S
C504 C502 1.478 . S
C504 C506 1.381 . S
C504 C510 1.383 . S
C505 C501 1.495 . S
C505 H511 0.959 1_655 S
C505 H512 0.961 . S
C505 H513 0.960 . S
C506 C504 1.381 . S
C506 C507 1.394 . S
C506 H514 0.930 . S
C507 C506 1.394 . S
C507 C508 1.383 . S
C507 H515 0.929 . S
C508 C507 1.383 . S
C508 C509 1.377 . S
C509 H493 0.930 . S
C509 C508 1.377 . S
C509 C510 1.379 . S
C510 H494 0.931 . S
C510 C504 1.383 . S
C510 C509 1.379 . S
H511 C505 0.959 1_455 S
H512 C505 0.961 . S
H513 C505 0.960 . S
H514 C506 0.930 . S
H515 C507 0.929 . S
H516 C524 0.929 . S
H517 C526 0.930 . S
H518 C528 0.930 . S
H519 C531 0.929 . S
H520 C534 0.930 . S
H521 C536 0.960 1_565 S
H522 C536 0.960 . S
H523 C536 0.960 . S
C524 H516 0.929 . S
C524 C525 1.377 . S
C524 C526 1.384 . S
C525 C524 1.377 . S
C525 C531 1.390 . S
C526 H517 0.930 . S
C526 C524 1.384 . S
C526 C527 1.372 . S
C527 C526 1.372 . S
C527 C528 1.400 . S
C527 C532 1.490 . S
C528 H518 0.930 . S
C528 C527 1.400 . S
C528 C531 1.386 . S
H529 C545 0.930 . S
H530 C546 0.931 . S
C531 H519 0.929 . S
C531 C525 1.390 . S
C531 C528 1.386 . S
C532 C527 1.490 . S
C532 C534 1.395 . S
C532 C535 1.403 . S
H533 C539 0.930 . S
C534 H520 0.930 . S
C534 C532 1.395 . S
C534 C537 1.403 1_545 S
C535 C532 1.403 . S
C535 C536 1.524 . S
C535 C539 1.400 1_545 S
C536 H521 0.960 1_545 S
C536 H522 0.960 . S
C536 H523 0.960 . S
C536 C535 1.524 . S
C537 C534 1.403 1_565 S
C537 C538 1.392 . S
C537 C541 1.495 . S
C538 C537 1.392 . S
C538 C539 1.385 . S
C538 C540 1.478 . S
C539 H533 0.930 . S
C539 C535 1.400 1_565 S
C539 C538 1.385 . S
C540 C538 1.478 . S
C540 C542 1.381 . S
C540 C546 1.383 . S
C541 C537 1.495 . S
C541 H547 0.959 1_565 S
C541 H548 0.961 . S
C541 H549 0.960 . S
C542 C540 1.381 . S
C542 C543 1.394 . S
C542 H550 0.930 . S
C543 C542 1.394 . S
C543 C544 1.383 . S
C543 H551 0.929 . S
C544 C543 1.383 . S
C544 C545 1.377 . S
C545 H529 0.930 . S
C545 C544 1.377 . S
C545 C546 1.379 . S
C546 H530 0.931 . S
C546 C540 1.383 . S
C546 C545 1.379 . S
H547 C541 0.959 1_545 S
H548 C541 0.961 . S
H549 C541 0.960 . S
H550 C542 0.930 . S
H551 C543 0.929 . S
H552 C560 0.929 . S
H553 C562 0.930 . S
H554 C564 0.930 . S
H555 C567 0.929 . S
H556 C570 0.930 . S
H557 C572 0.960 . S
H558 C572 0.960 . S
H559 C572 0.960 . S
C560 H552 0.929 . S
C560 C561 1.377 . S
C560 C562 1.384 . S
C561 C560 1.377 . S
C561 C567 1.390 . S
C562 H553 0.930 . S
C562 C560 1.384 . S
C562 C563 1.372 . S
C563 C562 1.372 . S
C563 C564 1.400 . S
C563 C568 1.490 . S
C564 H554 0.930 . S
C564 C563 1.400 . S
C564 C567 1.386 . S
H565 C581 0.930 . S
H566 C582 0.931 . S
C567 H555 0.929 . S
C567 C561 1.390 . S
C567 C564 1.386 . S
C568 C563 1.490 . S
C568 C570 1.395 . S
C568 C571 1.403 . S
H569 C575 0.930 . S
C570 H556 0.930 . S
C570 C568 1.395 . S
C570 C573 1.403 . S
C571 C568 1.403 . S
C571 C572 1.524 . S
C571 C575 1.400 . S
C572 H557 0.960 . S
C572 H558 0.960 . S
C572 H559 0.960 . S
C572 C571 1.524 . S
C573 C570 1.403 . S
C573 C574 1.392 . S
C573 C577 1.495 . S
C574 C573 1.392 . S
C574 C575 1.385 . S
C574 C576 1.478 . S
C575 H569 0.930 . S
C575 C571 1.400 . S
C575 C574 1.385 . S
C576 C574 1.478 . S
C576 C578 1.381 . S
C576 C582 1.383 . S
C577 C573 1.495 . S
C577 H583 0.959 . S
C577 H584 0.961 . S
C577 H585 0.960 . S
C578 C576 1.381 . S
C578 C579 1.394 . S
C578 H586 0.930 . S
C579 C578 1.394 . S
C579 C580 1.383 . S
C579 H587 0.929 . S
C580 C579 1.383 . S
C580 C581 1.377 . S
C581 H565 0.930 . S
C581 C580 1.377 . S
C581 C582 1.379 . S
C582 H566 0.931 . S
C582 C576 1.383 . S
C582 C581 1.379 . S
H583 C577 0.959 . S
H584 C577 0.961 . S
H585 C577 0.960 . S
H586 C578 0.930 . S
H587 C579 0.929 . S
H588 C596 0.929 . S
H589 C598 0.930 . S
H590 C600 0.930 . S
H591 C603 0.929 . S
H592 C606 0.930 . S
H593 C608 0.960 . S
H594 C608 0.960 . S
H595 C608 0.960 . S
C596 H588 0.929 . S
C596 C597 1.377 . S
C596 C598 1.384 . S
C597 C596 1.377 . S
C597 C603 1.390 . S
C598 H589 0.930 . S
C598 C596 1.384 . S
C598 C599 1.372 . S
C599 C598 1.372 . S
C599 C600 1.400 . S
C599 C604 1.490 . S
C600 H590 0.930 . S
C600 C599 1.400 . S
C600 C603 1.386 . S
H601 C617 0.930 . S
H602 C618 0.931 . S
C603 H591 0.929 . S
C603 C597 1.390 . S
C603 C600 1.386 . S
C604 C599 1.490 . S
C604 C606 1.395 . S
C604 C607 1.403 . S
H605 C611 0.930 . S
C606 H592 0.930 . S
C606 C604 1.395 . S
C606 C609 1.403 . S
C607 C604 1.403 . S
C607 C608 1.524 . S
C607 C611 1.400 . S
C608 H593 0.960 . S
C608 H594 0.960 . S
C608 H595 0.960 . S
C608 C607 1.524 . S
C609 C606 1.403 . S
C609 C610 1.392 . S
C609 C613 1.495 . S
C610 C609 1.392 . S
C610 C611 1.385 . S
C610 C612 1.478 . S
C611 H605 0.930 . S
C611 C607 1.400 . S
C611 C610 1.385 . S
C612 C610 1.478 . S
C612 C614 1.381 . S
C612 C618 1.383 . S
C613 C609 1.495 . S
C613 H619 0.959 . S
C613 H620 0.961 . S
C613 H621 0.960 . S
C614 C612 1.381 . S
C614 C615 1.394 . S
C614 H622 0.930 . S
C615 C614 1.394 . S
C615 C616 1.383 . S
C615 H623 0.929 . S
C616 C615 1.383 . S
C616 C617 1.377 . S
C617 H601 0.930 . S
C617 C616 1.377 . S
C617 C618 1.379 . S
C618 H602 0.931 . S
C618 C612 1.383 . S
C618 C617 1.379 . S
H619 C613 0.959 . S
H620 C613 0.961 . S
H621 C613 0.960 . S
H622 C614 0.930 . S
H623 C615 0.929 . S
H624 C632 0.929 . S
H625 C634 0.930 . S
H626 C636 0.930 . S
H627 C639 0.929 . S
H628 C642 0.930 . S
H629 C644 0.960 . S
H630 C644 0.960 . S
H631 C644 0.960 . S
C632 H624 0.929 . S
C632 C633 1.377 . S
C632 C634 1.384 . S
C633 C632 1.377 . S
C633 C639 1.390 . S
C634 H625 0.930 . S
C634 C632 1.384 . S
C634 C635 1.372 . S
C635 C634 1.372 . S
C635 C636 1.400 . S
C635 C640 1.490 . S
C636 H626 0.930 . S
C636 C635 1.400 . S
C636 C639 1.386 . S
H637 C653 0.930 . S
H638 C654 0.931 . S
C639 H627 0.929 . S
C639 C633 1.390 . S
C639 C636 1.386 . S
C640 C635 1.490 . S
C640 C642 1.395 . S
C640 C643 1.403 . S
H641 C647 0.930 . S
C642 H628 0.930 . S
C642 C640 1.395 . S
C642 C645 1.403 . S
C643 C640 1.403 . S
C643 C644 1.524 . S
C643 C647 1.400 . S
C644 H629 0.960 . S
C644 H630 0.960 . S
C644 H631 0.960 . S
C644 C643 1.524 . S
C645 C642 1.403 . S
C645 C646 1.392 . S
C645 C649 1.495 . S
C646 C645 1.392 . S
C646 C647 1.385 . S
C646 C648 1.478 . S
C647 H641 0.930 . S
C647 C643 1.400 . S
C647 C646 1.385 . S
C648 C646 1.478 . S
C648 C650 1.381 . S
C648 C654 1.383 . S
C649 C645 1.495 . S
C649 H655 0.959 . S
C649 H656 0.961 . S
C649 H657 0.960 . S
C650 C648 1.381 . S
C650 C651 1.394 . S
C650 H658 0.930 . S
C651 C650 1.394 . S
C651 C652 1.383 . S
C651 H659 0.929 . S
C652 C651 1.383 . S
C652 C653 1.377 . S
C653 H637 0.930 . S
C653 C652 1.377 . S
C653 C654 1.379 . S
C654 H638 0.931 . S
C654 C648 1.383 . S
C654 C653 1.379 . S
H655 C649 0.959 . S
H656 C649 0.961 . S
H657 C649 0.960 . S
H658 C650 0.930 . S
H659 C651 0.929 . S
H660 C668 0.929 . S
H661 C670 0.930 . S
H662 C672 0.930 . S
H663 C675 0.929 . S
H664 C678 0.930 . S
H665 C680 0.960 . S
H666 C680 0.960 . S
H667 C680 0.960 . S
C668 H660 0.929 . S
C668 C669 1.377 . S
C668 C670 1.384 . S
C669 C668 1.377 . S
C669 C675 1.390 . S
C670 H661 0.930 . S
C670 C668 1.384 . S
C670 C671 1.372 . S
C671 C670 1.372 . S
C671 C672 1.400 . S
C671 C676 1.490 . S
C672 H662 0.930 . S
C672 C671 1.400 . S
C672 C675 1.386 . S
H673 C689 0.930 . S
H674 C690 0.931 . S
C675 H663 0.929 . S
C675 C669 1.390 . S
C675 C672 1.386 . S
C676 C671 1.490 . S
C676 C678 1.395 . S
C676 C679 1.403 . S
H677 C683 0.930 . S
C678 H664 0.930 . S
C678 C676 1.395 . S
C678 C681 1.403 . S
C679 C676 1.403 . S
C679 C680 1.524 . S
C679 C683 1.400 . S
C680 H665 0.960 . S
C680 H666 0.960 . S
C680 H667 0.960 . S
C680 C679 1.524 . S
C681 C678 1.403 . S
C681 C682 1.392 . S
C681 C685 1.495 . S
C682 C681 1.392 . S
C682 C683 1.385 . S
C682 C684 1.478 . S
C683 H677 0.930 . S
C683 C679 1.400 . S
C683 C682 1.385 . S
C684 C682 1.478 . S
C684 C686 1.381 . S
C684 C690 1.383 . S
C685 C681 1.495 . S
C685 H691 0.959 . S
C685 H692 0.961 . S
C685 H693 0.960 . S
C686 C684 1.381 . S
C686 C687 1.394 . S
C686 H694 0.930 . S
C687 C686 1.394 . S
C687 C688 1.383 . S
C687 H695 0.929 . S
C688 C687 1.383 . S
C688 C689 1.377 . S
C689 H673 0.930 . S
C689 C688 1.377 . S
C689 C690 1.379 . S
C690 H674 0.931 . S
C690 C684 1.383 . S
C690 C689 1.379 . S
H691 C685 0.959 . S
H692 C685 0.961 . S
H693 C685 0.960 . S
H694 C686 0.930 . S
H695 C687 0.929 . S
H696 C704 0.929 . S
H697 C706 0.930 . S
H698 C708 0.930 . S
H699 C711 0.929 . S
H700 C714 0.930 . S
H701 C716 0.960 . S
H702 C716 0.960 . S
H703 C716 0.960 . S
C704 H696 0.929 . S
C704 C705 1.377 . S
C704 C706 1.384 . S
C705 C704 1.377 . S
C705 C711 1.390 . S
C706 H697 0.930 . S
C706 C704 1.384 . S
C706 C707 1.372 . S
C707 C706 1.372 . S
C707 C708 1.400 . S
C707 C712 1.490 . S
C708 H698 0.930 . S
C708 C707 1.400 . S
C708 C711 1.386 . S
H709 C725 0.930 . S
H710 C726 0.931 . S
C711 H699 0.929 . S
C711 C705 1.390 . S
C711 C708 1.386 . S
C712 C707 1.490 . S
C712 C714 1.395 . S
C712 C715 1.403 . S
H713 C719 0.930 . S
C714 H700 0.930 . S
C714 C712 1.395 . S
C714 C717 1.403 . S
C715 C712 1.403 . S
C715 C716 1.524 . S
C715 C719 1.400 . S
C716 H701 0.960 . S
C716 H702 0.960 . S
C716 H703 0.960 . S
C716 C715 1.524 . S
C717 C714 1.403 . S
C717 C718 1.392 . S
C717 C721 1.495 . S
C718 C717 1.392 . S
C718 C719 1.385 . S
C718 C720 1.478 . S
C719 H713 0.930 . S
C719 C715 1.400 . S
C719 C718 1.385 . S
C720 C718 1.478 . S
C720 C722 1.381 . S
C720 C726 1.383 . S
C721 C717 1.495 . S
C721 H727 0.959 . S
C721 H728 0.961 . S
C721 H729 0.960 . S
C722 C720 1.381 . S
C722 C723 1.394 . S
C722 H730 0.930 . S
C723 C722 1.394 . S
C723 C724 1.383 . S
C723 H731 0.929 . S
C724 C723 1.383 . S
C724 C725 1.377 . S
C725 H709 0.930 . S
C725 C724 1.377 . S
C725 C726 1.379 . S
C726 H710 0.931 . S
C726 C720 1.383 . S
C726 C725 1.379 . S
H727 C721 0.959 . S
H728 C721 0.961 . S
H729 C721 0.960 . S
H730 C722 0.930 . S
H731 C723 0.929 . S
H732 C740 0.929 . S
H733 C742 0.930 . S
H734 C744 0.930 . S
H735 C747 0.929 . S
H736 C750 0.930 . S
H737 C752 0.960 . S
H738 C752 0.960 . S
H739 C752 0.960 . S
C740 H732 0.929 . S
C740 C741 1.377 . S
C740 C742 1.384 . S
C741 C740 1.377 . S
C741 C747 1.390 . S
C742 H733 0.930 . S
C742 C740 1.384 . S
C742 C743 1.372 . S
C743 C742 1.372 . S
C743 C744 1.400 . S
C743 C748 1.490 . S
C744 H734 0.930 . S
C744 C743 1.400 . S
C744 C747 1.386 . S
H745 C761 0.930 . S
H746 C762 0.931 . S
C747 H735 0.929 . S
C747 C741 1.390 . S
C747 C744 1.386 . S
C748 C743 1.490 . S
C748 C750 1.395 . S
C748 C751 1.403 . S
H749 C755 0.930 . S
C750 H736 0.930 . S
C750 C748 1.395 . S
C750 C753 1.403 . S
C751 C748 1.403 . S
C751 C752 1.524 . S
C751 C755 1.400 . S
C752 H737 0.960 . S
C752 H738 0.960 . S
C752 H739 0.960 . S
C752 C751 1.524 . S
C753 C750 1.403 . S
C753 C754 1.392 . S
C753 C757 1.495 . S
C754 C753 1.392 . S
C754 C755 1.385 . S
C754 C756 1.478 . S
C755 H749 0.930 . S
C755 C751 1.400 . S
C755 C754 1.385 . S
C756 C754 1.478 . S
C756 C758 1.381 . S
C756 C762 1.383 . S
C757 C753 1.495 . S
C757 H763 0.959 . S
C757 H764 0.961 . S
C757 H765 0.960 . S
C758 C756 1.381 . S
C758 C759 1.394 . S
C758 H766 0.930 . S
C759 C758 1.394 . S
C759 C760 1.383 . S
C759 H767 0.929 . S
C760 C759 1.383 . S
C760 C761 1.377 . S
C761 H745 0.930 . S
C761 C760 1.377 . S
C761 C762 1.379 . S
C762 H746 0.931 . S
C762 C756 1.383 . S
C762 C761 1.379 . S
H763 C757 0.959 . S
H764 C757 0.961 . S
H765 C757 0.960 . S
H766 C758 0.930 . S
H767 C759 0.929 . S
H768 C776 0.929 . S
H769 C778 0.930 . S
H770 C780 0.930 . S
H771 C783 0.929 . S
H772 C786 0.930 . S
H773 C788 0.960 . S
H774 C788 0.960 . S
H775 C788 0.960 . S
C776 H768 0.929 . S
C776 C777 1.377 . S
C776 C778 1.384 . S
C777 C776 1.377 . S
C777 C783 1.390 . S
C778 H769 0.930 . S
C778 C776 1.384 . S
C778 C779 1.372 . S
C779 C778 1.372 . S
C779 C780 1.400 . S
C779 C784 1.490 . S
C780 H770 0.930 . S
C780 C779 1.400 . S
C780 C783 1.386 . S
H781 C797 0.930 . S
H782 C798 0.931 . S
C783 H771 0.929 . S
C783 C777 1.390 . S
C783 C780 1.386 . S
C784 C779 1.490 . S
C784 C786 1.395 . S
C784 C787 1.403 . S
H785 C791 0.930 . S
C786 H772 0.930 . S
C786 C784 1.395 . S
C786 C789 1.403 . S
C787 C784 1.403 . S
C787 C788 1.524 . S
C787 C791 1.400 . S
C788 H773 0.960 . S
C788 H774 0.960 . S
C788 H775 0.960 . S
C788 C787 1.524 . S
C789 C786 1.403 . S
C789 C790 1.392 . S
C789 C793 1.495 . S
C790 C789 1.392 . S
C790 C791 1.385 . S
C790 C792 1.478 . S
C791 H785 0.930 . S
C791 C787 1.400 . S
C791 C790 1.385 . S
C792 C790 1.478 . S
C792 C794 1.381 . S
C792 C798 1.383 . S
C793 C789 1.495 . S
C793 H799 0.959 . S
C793 H800 0.961 . S
C793 H801 0.960 . S
C794 C792 1.381 . S
C794 C795 1.394 . S
C794 H802 0.930 . S
C795 C794 1.394 . S
C795 C796 1.383 . S
C795 H803 0.929 . S
C796 C795 1.383 . S
C796 C797 1.377 . S
C797 H781 0.930 . S
C797 C796 1.377 . S
C797 C798 1.379 . S
C798 H782 0.931 . S
C798 C792 1.383 . S
C798 C797 1.379 . S
H799 C793 0.959 . S
H800 C793 0.961 . S
H801 C793 0.960 . S
H802 C794 0.930 . S
H803 C795 0.929 . S
H804 C812 0.929 . S
H805 C814 0.930 . S
H806 C816 0.930 . S
H807 C819 0.929 . S
H808 C822 0.930 . S
H809 C824 0.960 . S
H810 C824 0.960 . S
H811 C824 0.960 . S
C812 H804 0.929 . S
C812 C813 1.377 . S
C812 C814 1.384 . S
C813 C812 1.377 . S
C813 C819 1.390 . S
C814 H805 0.930 . S
C814 C812 1.384 . S
C814 C815 1.372 . S
C815 C814 1.372 . S
C815 C816 1.400 . S
C815 C820 1.490 . S
C816 H806 0.930 . S
C816 C815 1.400 . S
C816 C819 1.386 . S
H817 C833 0.930 . S
H818 C834 0.931 . S
C819 H807 0.929 . S
C819 C813 1.390 . S
C819 C816 1.386 . S
C820 C815 1.490 . S
C820 C822 1.395 . S
C820 C823 1.403 . S
H821 C827 0.930 . S
C822 H808 0.930 . S
C822 C820 1.395 . S
C822 C825 1.403 . S
C823 C820 1.403 . S
C823 C824 1.524 . S
C823 C827 1.400 . S
C824 H809 0.960 . S
C824 H810 0.960 . S
C824 H811 0.960 . S
C824 C823 1.524 . S
C825 C822 1.403 . S
C825 C826 1.392 . S
C825 C829 1.495 . S
C826 C825 1.392 . S
C826 C827 1.385 . S
C826 C828 1.478 . S
C827 H821 0.930 . S
C827 C823 1.400 . S
C827 C826 1.385 . S
C828 C826 1.478 . S
C828 C830 1.381 . S
C828 C834 1.383 . S
C829 C825 1.495 . S
C829 H835 0.959 . S
C829 H836 0.961 . S
C829 H837 0.960 . S
C830 C828 1.381 . S
C830 C831 1.394 . S
C830 H838 0.930 . S
C831 C830 1.394 . S
C831 C832 1.383 . S
C831 H839 0.929 . S
C832 C831 1.383 . S
C832 C833 1.377 . S
C833 H817 0.930 . S
C833 C832 1.377 . S
C833 C834 1.379 . S
C834 H818 0.931 . S
C834 C828 1.383 . S
C834 C833 1.379 . S
H835 C829 0.959 . S
H836 C829 0.961 . S
H837 C829 0.960 . S
H838 C830 0.930 . S
H839 C831 0.929 . S
H840 C848 0.929 . S
H841 C850 0.930 . S
H842 C852 0.930 . S
H843 C855 0.929 . S
H844 C858 0.930 . S
H845 C860 0.960 . S
H846 C860 0.960 . S
H847 C860 0.960 . S
C848 H840 0.929 . S
C848 C849 1.377 . S
C848 C850 1.384 . S
C849 C848 1.377 . S
C849 C855 1.390 . S
C850 H841 0.930 . S
C850 C848 1.384 . S
C850 C851 1.372 . S
C851 C850 1.372 . S
C851 C852 1.400 . S
C851 C856 1.490 . S
C852 H842 0.930 . S
C852 C851 1.400 . S
C852 C855 1.386 . S
H853 C869 0.930 . S
H854 C870 0.931 . S
C855 H843 0.929 . S
C855 C849 1.390 . S
C855 C852 1.386 . S
C856 C851 1.490 . S
C856 C858 1.395 . S
C856 C859 1.403 . S
H857 C863 0.930 . S
C858 H844 0.930 . S
C858 C856 1.395 . S
C858 C861 1.403 . S
C859 C856 1.403 . S
C859 C860 1.524 . S
C859 C863 1.400 . S
C860 H845 0.960 . S
C860 H846 0.960 . S
C860 H847 0.960 . S
C860 C859 1.524 . S
C861 C858 1.403 . S
C861 C862 1.392 . S
C861 C865 1.495 . S
C862 C861 1.392 . S
C862 C863 1.385 . S
C862 C864 1.478 . S
C863 H857 0.930 . S
C863 C859 1.400 . S
C863 C862 1.385 . S
C864 C862 1.478 . S
C864 C866 1.381 . S
C864 C870 1.383 . S
C865 C861 1.495 . S
C865 H871 0.959 . S
C865 H872 0.961 . S
C865 H873 0.960 . S
C866 C864 1.381 . S
C866 C867 1.394 . S
C866 H874 0.930 . S
C867 C866 1.394 . S
C867 C868 1.383 . S
C867 H875 0.929 . S
C868 C867 1.383 . S
C868 C869 1.377 . S
C869 H853 0.930 . S
C869 C868 1.377 . S
C869 C870 1.379 . S
C870 H854 0.931 . S
C870 C864 1.383 . S
C870 C869 1.379 . S
H871 C865 0.959 . S
H872 C865 0.961 . S
H873 C865 0.960 . S
H874 C866 0.930 . S
H875 C867 0.929 . S
H876 C884 0.929 . S
H877 C886 0.930 . S
H878 C888 0.930 . S
H879 C891 0.929 . S
H880 C894 0.930 . S
H881 C896 0.960 . S
H882 C896 0.960 . S
H883 C896 0.960 . S
C884 H876 0.929 . S
C884 C885 1.377 . S
C884 C886 1.384 . S
C885 C884 1.377 . S
C885 C891 1.390 . S
C886 H877 0.930 . S
C886 C884 1.384 . S
C886 C887 1.372 . S
C887 C886 1.372 . S
C887 C888 1.400 . S
C887 C892 1.490 . S
C888 H878 0.930 . S
C888 C887 1.400 . S
C888 C891 1.386 . S
H889 C905 0.930 . S
H890 C906 0.931 . S
C891 H879 0.929 . S
C891 C885 1.390 . S
C891 C888 1.386 . S
C892 C887 1.490 . S
C892 C894 1.395 . S
C892 C895 1.403 . S
H893 C899 0.930 . S
C894 H880 0.930 . S
C894 C892 1.395 . S
C894 C897 1.403 . S
C895 C892 1.403 . S
C895 C896 1.524 . S
C895 C899 1.400 . S
C896 H881 0.960 . S
C896 H882 0.960 . S
C896 H883 0.960 . S
C896 C895 1.524 . S
C897 C894 1.403 . S
C897 C898 1.392 . S
C897 C901 1.495 . S
C898 C897 1.392 . S
C898 C899 1.385 . S
C898 C900 1.478 . S
C899 H893 0.930 . S
C899 C895 1.400 . S
C899 C898 1.385 . S
C900 C898 1.478 . S
C900 C902 1.381 . S
C900 C906 1.383 . S
C901 C897 1.495 . S
C901 H907 0.959 . S
C901 H908 0.961 . S
C901 H909 0.960 . S
C902 C900 1.381 . S
C902 C903 1.394 . S
C902 H910 0.930 . S
C903 C902 1.394 . S
C903 C904 1.383 . S
C903 H911 0.929 . S
C904 C903 1.383 . S
C904 C905 1.377 . S
C905 H889 0.930 . S
C905 C904 1.377 . S
C905 C906 1.379 . S
C906 H890 0.931 . S
C906 C900 1.383 . S
C906 C905 1.379 . S
H907 C901 0.959 . S
H908 C901 0.961 . S
H909 C901 0.960 . S
H910 C902 0.930 . S
H911 C903 0.929 . S
H912 C920 0.929 . S
H913 C922 0.930 . S
H914 C924 0.930 . S
H915 C927 0.929 . S
H916 C930 0.930 . S
H917 C932 0.960 . S
H918 C932 0.960 . S
H919 C932 0.960 . S
C920 H912 0.929 . S
C920 C921 1.377 . S
C920 C922 1.384 . S
C921 C920 1.377 . S
C921 C927 1.390 . S
C922 H913 0.930 . S
C922 C920 1.384 . S
C922 C923 1.372 . S
C923 C922 1.372 . S
C923 C924 1.400 . S
C923 C928 1.490 . S
C924 H914 0.930 . S
C924 C923 1.400 . S
C924 C927 1.386 . S
H925 C941 0.930 . S
H926 C942 0.931 . S
C927 H915 0.929 . S
C927 C921 1.390 . S
C927 C924 1.386 . S
C928 C923 1.490 . S
C928 C930 1.395 . S
C928 C931 1.403 . S
H929 C935 0.930 . S
C930 H916 0.930 . S
C930 C928 1.395 . S
C930 C933 1.403 . S
C931 C928 1.403 . S
C931 C932 1.524 . S
C931 C935 1.400 . S
C932 H917 0.960 . S
C932 H918 0.960 . S
C932 H919 0.960 . S
C932 C931 1.524 . S
C933 C930 1.403 . S
C933 C934 1.392 . S
C933 C937 1.495 . S
C934 C933 1.392 . S
C934 C935 1.385 . S
C934 C936 1.478 . S
C935 H929 0.930 . S
C935 C931 1.400 . S
C935 C934 1.385 . S
C936 C934 1.478 . S
C936 C938 1.381 . S
C936 C942 1.383 . S
C937 C933 1.495 . S
C937 H943 0.959 . S
C937 H944 0.961 . S
C937 H945 0.960 . S
C938 C936 1.381 . S
C938 C939 1.394 . S
C938 H946 0.930 . S
C939 C938 1.394 . S
C939 C940 1.383 . S
C939 H947 0.929 . S
C940 C939 1.383 . S
C940 C941 1.377 . S
C941 H925 0.930 . S
C941 C940 1.377 . S
C941 C942 1.379 . S
C942 H926 0.931 . S
C942 C936 1.383 . S
C942 C941 1.379 . S
H943 C937 0.959 . S
H944 C937 0.961 . S
H945 C937 0.960 . S
H946 C938 0.930 . S
H947 C939 0.929 . S
H948 C956 0.929 . S
H949 C958 0.930 . S
H950 C960 0.930 . S
H951 C963 0.929 . S
H952 C966 0.930 . S
H953 C968 0.960 . S
H954 C968 0.960 . S
H955 C968 0.960 . S
C956 H948 0.929 . S
C956 C957 1.377 . S
C956 C958 1.384 . S
C957 C956 1.377 . S
C957 C963 1.390 . S
C958 H949 0.930 . S
C958 C956 1.384 . S
C958 C959 1.372 . S
C959 C958 1.372 . S
C959 C960 1.400 . S
C959 C964 1.490 . S
C960 H950 0.930 . S
C960 C959 1.400 . S
C960 C963 1.386 . S
H961 C977 0.930 . S
H962 C978 0.931 . S
C963 H951 0.929 . S
C963 C957 1.390 . S
C963 C960 1.386 . S
C964 C959 1.490 . S
C964 C966 1.395 . S
C964 C967 1.403 . S
H965 C971 0.930 . S
C966 H952 0.930 . S
C966 C964 1.395 . S
C966 C969 1.403 . S
C967 C964 1.403 . S
C967 C968 1.524 . S
C967 C971 1.400 . S
C968 H953 0.960 . S
C968 H954 0.960 . S
C968 H955 0.960 . S
C968 C967 1.524 . S
C969 C966 1.403 . S
C969 C970 1.392 . S
C969 C973 1.495 . S
C970 C969 1.392 . S
C970 C971 1.385 . S
C970 C972 1.478 . S
C971 H965 0.930 . S
C971 C967 1.400 . S
C971 C970 1.385 . S
C972 C970 1.478 . S
C972 C974 1.381 . S
C972 C978 1.383 . S
C973 C969 1.495 . S
C973 H979 0.959 . S
C973 H980 0.961 . S
C973 H981 0.960 . S
C974 C972 1.381 . S
C974 C975 1.394 . S
C974 H982 0.930 . S
C975 C974 1.394 . S
C975 C976 1.383 . S
C975 H983 0.929 . S
C976 C975 1.383 . S
C976 C977 1.377 . S
C977 H961 0.930 . S
C977 C976 1.377 . S
C977 C978 1.379 . S
C978 H962 0.931 . S
C978 C972 1.383 . S
C978 C977 1.379 . S
H979 C973 0.959 . S
H980 C973 0.961 . S
H981 C973 0.960 . S
H982 C974 0.930 . S
H983 C975 0.929 . S
C273 N146 0.404 . S
C292 N14 0.457 . S
C309 N47 0.379 . S
C328 N179 0.348 . S
C345 N80 0.390 . S
C364 N212 0.310 . S
C381 N113 0.374 . S
C400 N245 0.412 . S
C417 C17 0.878 . S
C436 C215 0.883 . S
C453 C50 0.876 . S
C472 C248 0.872 . S
C489 C149 0.875 . S
C508 C83 0.870 . S
C525 C182 0.875 . S
C544 C116 0.871 . S
C561 C259 0.688 . S
C580 C28 0.743 . S
C597 C61 0.671 . S
C616 C160 0.640 . S
C633 C193 0.688 . S
C652 C94 0.743 . S
C669 C226 0.669 . S
C688 C127 0.636 . S
C705 C8 1.937 . S
C724 N38 1.931 . S
C741 C41 1.939 . S
C760 N71 1.926 . S
C777 N104 1.939 . S
C796 C74 1.943 . S
C813 N5 1.941 1_556 S
C832 C107 1.953 . S
C849 C140 1.936 . S
C868 N236 1.950 . S
C885 N137 1.946 . S
C904 C173 1.926 . S
C921 C206 1.939 . S
C940 N170 1.923 . S
C957 C239 1.938 . S
C976 N203 1.956 1_554 S
