# Generated by pormake.
# Topology uoa, (4)-cn, num edge types: 1
# Building blocks:
#     Node 0, Type 0, BuildingBlock: CEKHIL_clean_sbu_0, # of connection points: 4
#     Node 1, Type 0, BuildingBlock: CEKHIL_clean_sbu_0, # of connection points: 4
#     Node 2, Type 0, BuildingBlock: CEKHIL_clean_sbu_0, # of connection points: 4
#     Node 3, Type 0, BuildingBlock: CEKHIL_clean_sbu_0, # of connection points: 4
#     Node 4, Type 0, BuildingBlock: CEKHIL_clean_sbu_0, # of connection points: 4
#     Node 5, Type 0, BuildingBlock: CEKHIL_clean_sbu_0, # of connection points: 4
#     Node 6, Type 0, BuildingBlock: CEKHIL_clean_sbu_0, # of connection points: 4
#     Node 7, Type 0, BuildingBlock: CEKHIL_clean_sbu_0, # of connection points: 4
#     Node 8, Type 0, BuildingBlock: CEKHIL_clean_sbu_0, # of connection points: 4
#     Node 9, Type 0, BuildingBlock: CEKHIL_clean_sbu_0, # of connection points: 4
#     Node 10, Type 0, BuildingBlock: CEKHIL_clean_sbu_0, # of connection points: 4
#     Node 11, Type 0, BuildingBlock: CEKHIL_clean_sbu_0, # of connection points: 4
#     Node 12, Type 0, BuildingBlock: CEKHIL_clean_sbu_0, # of connection points: 4
#     Node 13, Type 0, BuildingBlock: CEKHIL_clean_sbu_0, # of connection points: 4
#     Node 14, Type 0, BuildingBlock: CEKHIL_clean_sbu_0, # of connection points: 4
#     Node 15, Type 0, BuildingBlock: CEKHIL_clean_sbu_0, # of connection points: 4
#     Node 16, Type 0, BuildingBlock: CEKHIL_clean_sbu_0, # of connection points: 4
#     Node 17, Type 0, BuildingBlock: CEKHIL_clean_sbu_0, # of connection points: 4
#     Node 18, Type 0, BuildingBlock: CEKHIL_clean_sbu_0, # of connection points: 4
#     Node 19, Type 0, BuildingBlock: CEKHIL_clean_sbu_0, # of connection points: 4
#     Node 20, Type 0, BuildingBlock: CEKHIL_clean_sbu_0, # of connection points: 4
#     Node 21, Type 0, BuildingBlock: CEKHIL_clean_sbu_0, # of connection points: 4
#     Node 22, Type 0, BuildingBlock: CEKHIL_clean_sbu_0, # of connection points: 4
#     Node 23, Type 0, BuildingBlock: CEKHIL_clean_sbu_0, # of connection points: 4
#     Node 24, Type 0, BuildingBlock: CEKHIL_clean_sbu_0, # of connection points: 4
#     Node 25, Type 0, BuildingBlock: CEKHIL_clean_sbu_0, # of connection points: 4
#     Node 26, Type 0, BuildingBlock: CEKHIL_clean_sbu_0, # of connection points: 4
#     Node 27, Type 0, BuildingBlock: CEKHIL_clean_sbu_0, # of connection points: 4
#     Node 28, Type 0, BuildingBlock: CEKHIL_clean_sbu_0, # of connection points: 4
#     Node 29, Type 0, BuildingBlock: CEKHIL_clean_sbu_0, # of connection points: 4
#     Node 30, Type 0, BuildingBlock: CEKHIL_clean_sbu_0, # of connection points: 4
#     Node 31, Type 0, BuildingBlock: CEKHIL_clean_sbu_0, # of connection points: 4
#     Edge 32, Type (0, 0), BuildingBlock: ZUJKAS_clean_linker_0, # of connection points: 2
#     Edge 33, Type (0, 0), BuildingBlock: ZUJKAS_clean_linker_0, # of connection points: 2
#     Edge 34, Type (0, 0), BuildingBlock: ZUJKAS_clean_linker_0, # of connection points: 2
#     Edge 35, Type (0, 0), BuildingBlock: ZUJKAS_clean_linker_0, # of connection points: 2
#     Edge 36, Type (0, 0), BuildingBlock: ZUJKAS_clean_linker_0, # of connection points: 2
#     Edge 37, Type (0, 0), BuildingBlock: ZUJKAS_clean_linker_0, # of connection points: 2
#     Edge 38, Type (0, 0), BuildingBlock: ZUJKAS_clean_linker_0, # of connection points: 2
#     Edge 39, Type (0, 0), BuildingBlock: ZUJKAS_clean_linker_0, # of connection points: 2
#     Edge 40, Type (0, 0), BuildingBlock: ZUJKAS_clean_linker_0, # of connection points: 2
#     Edge 41, Type (0, 0), BuildingBlock: ZUJKAS_clean_linker_0, # of connection points: 2
#     Edge 42, Type (0, 0), BuildingBlock: ZUJKAS_clean_linker_0, # of connection points: 2
#     Edge 43, Type (0, 0), BuildingBlock: ZUJKAS_clean_linker_0, # of connection points: 2
#     Edge 44, Type (0, 0), BuildingBlock: ZUJKAS_clean_linker_0, # of connection points: 2
#     Edge 45, Type (0, 0), BuildingBlock: ZUJKAS_clean_linker_0, # of connection points: 2
#     Edge 46, Type (0, 0), BuildingBlock: ZUJKAS_clean_linker_0, # of connection points: 2
#     Edge 47, Type (0, 0), BuildingBlock: ZUJKAS_clean_linker_0, # of connection points: 2
#     Edge 48, Type (0, 0), BuildingBlock: ZUJKAS_clean_linker_0, # of connection points: 2
#     Edge 49, Type (0, 0), BuildingBlock: ZUJKAS_clean_linker_0, # of connection points: 2
#     Edge 50, Type (0, 0), BuildingBlock: ZUJKAS_clean_linker_0, # of connection points: 2
#     Edge 51, Type (0, 0), BuildingBlock: ZUJKAS_clean_linker_0, # of connection points: 2
#     Edge 52, Type (0, 0), BuildingBlock: ZUJKAS_clean_linker_0, # of connection points: 2
#     Edge 53, Type (0, 0), BuildingBlock: ZUJKAS_clean_linker_0, # of connection points: 2
#     Edge 54, Type (0, 0), BuildingBlock: ZUJKAS_clean_linker_0, # of connection points: 2
#     Edge 55, Type (0, 0), BuildingBlock: ZUJKAS_clean_linker_0, # of connection points: 2
#     Edge 56, Type (0, 0), BuildingBlock: ZUJKAS_clean_linker_0, # of connection points: 2
#     Edge 57, Type (0, 0), BuildingBlock: ZUJKAS_clean_linker_0, # of connection points: 2
#     Edge 58, Type (0, 0), BuildingBlock: ZUJKAS_clean_linker_0, # of connection points: 2
#     Edge 59, Type (0, 0), BuildingBlock: ZUJKAS_clean_linker_0, # of connection points: 2
#     Edge 60, Type (0, 0), BuildingBlock: ZUJKAS_clean_linker_0, # of connection points: 2
#     Edge 61, Type (0, 0), BuildingBlock: ZUJKAS_clean_linker_0, # of connection points: 2
#     Edge 62, Type (0, 0), BuildingBlock: ZUJKAS_clean_linker_0, # of connection points: 2
#     Edge 63, Type (0, 0), BuildingBlock: ZUJKAS_clean_linker_0, # of connection points: 2
#     Edge 64, Type (0, 0), BuildingBlock: ZUJKAS_clean_linker_0, # of connection points: 2
#     Edge 65, Type (0, 0), BuildingBlock: ZUJKAS_clean_linker_0, # of connection points: 2
#     Edge 66, Type (0, 0), BuildingBlock: ZUJKAS_clean_linker_0, # of connection points: 2
#     Edge 67, Type (0, 0), BuildingBlock: ZUJKAS_clean_linker_0, # of connection points: 2
#     Edge 68, Type (0, 0), BuildingBlock: ZUJKAS_clean_linker_0, # of connection points: 2
#     Edge 69, Type (0, 0), BuildingBlock: ZUJKAS_clean_linker_0, # of connection points: 2
#     Edge 70, Type (0, 0), BuildingBlock: ZUJKAS_clean_linker_0, # of connection points: 2
#     Edge 71, Type (0, 0), BuildingBlock: ZUJKAS_clean_linker_0, # of connection points: 2
#     Edge 72, Type (0, 0), BuildingBlock: ZUJKAS_clean_linker_0, # of connection points: 2
#     Edge 73, Type (0, 0), BuildingBlock: ZUJKAS_clean_linker_0, # of connection points: 2
#     Edge 74, Type (0, 0), BuildingBlock: ZUJKAS_clean_linker_0, # of connection points: 2
#     Edge 75, Type (0, 0), BuildingBlock: ZUJKAS_clean_linker_0, # of connection points: 2
#     Edge 76, Type (0, 0), BuildingBlock: ZUJKAS_clean_linker_0, # of connection points: 2
#     Edge 77, Type (0, 0), BuildingBlock: ZUJKAS_clean_linker_0, # of connection points: 2
#     Edge 78, Type (0, 0), BuildingBlock: ZUJKAS_clean_linker_0, # of connection points: 2
#     Edge 79, Type (0, 0), BuildingBlock: ZUJKAS_clean_linker_0, # of connection points: 2
#     Edge 80, Type (0, 0), BuildingBlock: ZUJKAS_clean_linker_0, # of connection points: 2
#     Edge 81, Type (0, 0), BuildingBlock: ZUJKAS_clean_linker_0, # of connection points: 2
#     Edge 82, Type (0, 0), BuildingBlock: ZUJKAS_clean_linker_0, # of connection points: 2
#     Edge 83, Type (0, 0), BuildingBlock: ZUJKAS_clean_linker_0, # of connection points: 2
#     Edge 84, Type (0, 0), BuildingBlock: ZUJKAS_clean_linker_0, # of connection points: 2
#     Edge 85, Type (0, 0), BuildingBlock: ZUJKAS_clean_linker_0, # of connection points: 2
#     Edge 86, Type (0, 0), BuildingBlock: ZUJKAS_clean_linker_0, # of connection points: 2
#     Edge 87, Type (0, 0), BuildingBlock: ZUJKAS_clean_linker_0, # of connection points: 2
#     Edge 88, Type (0, 0), BuildingBlock: ZUJKAS_clean_linker_0, # of connection points: 2
#     Edge 89, Type (0, 0), BuildingBlock: ZUJKAS_clean_linker_0, # of connection points: 2
#     Edge 90, Type (0, 0), BuildingBlock: ZUJKAS_clean_linker_0, # of connection points: 2
#     Edge 91, Type (0, 0), BuildingBlock: ZUJKAS_clean_linker_0, # of connection points: 2
#     Edge 92, Type (0, 0), BuildingBlock: ZUJKAS_clean_linker_0, # of connection points: 2
#     Edge 93, Type (0, 0), BuildingBlock: ZUJKAS_clean_linker_0, # of connection points: 2
#     Edge 94, Type (0, 0), BuildingBlock: ZUJKAS_clean_linker_0, # of connection points: 2
#     Edge 95, Type (0, 0), BuildingBlock: ZUJKAS_clean_linker_0, # of connection points: 2
# Relax obj value: 0.141
# Max RMSD: 0.210
# Mean RMSD: 0.210
data_MOF--net-uoa--node1-CEKHIL_clean_sbu_0--edge1-ZUJKAS_clean_linker_0
_symmetry_space_group_name_H-M    P1
_symmetry_Int_Tables_number       1
_symmetry_cell_setting            triclinic
loop_
_symmetry_equiv_pos_as_xyz
'x, y, z'
_cell_length_a     98.432255
_cell_length_b     98.458596
_cell_length_c     35.322775
_cell_angle_alpha  90.002402
_cell_angle_beta   90.001227
_cell_angle_gamma 90.031889
loop_
_atom_site_label
_atom_site_type_symbol
_atom_site_fract_x
_atom_site_fract_y
_atom_site_fract_z
_atom_type_partial_charge
Co0 Co 0.03705 0.09659 0.0199 0.0
O1 O 0.04758 0.11216 0.03414 0.0
O2 O 0.05266 0.09102 0.04995 0.0
C3 C 0.03441 0.10242 0.9587 0.0
O4 O 0.02856 0.078 0.00911 0.0
Co5 Co 0.00733 0.10069 -0.00847 0.0
O6 O 0.00881 0.0812 0.9782 0.0
C7 C 0.01336 0.10249 0.07313 0.0
C8 C 0.05569 0.10389 0.05154 0.0
C9 C 0.01807 0.07344 -0.00879 0.0
O10 O 0.02567 0.09867 0.06699 0.0
O11 O 0.00479 0.10481 0.04664 0.0
O12 O 0.04546 0.09637 0.9697 0.0
O13 O 0.02612 0.10583 0.98529 0.0
Co14 Co 0.15943 0.78773 0.28032 0.0
O15 O 0.14484 0.80052 0.2841 0.0
O16 O 0.1654 0.80379 0.30776 0.0
C17 C 0.15662 0.78284 0.2186 0.0
O18 O 0.17708 0.77682 0.2801 0.0
Co19 Co 0.15271 0.75759 0.26087 0.0
O20 O 0.17272 0.75636 0.25424 0.0
C21 C 0.14656 0.7682 0.33659 0.0
C22 C 0.15312 0.80834 0.30254 0.0
C23 C 0.181 0.76525 0.26685 0.0
O24 O 0.1535 0.77895 0.32915 0.0
O25 O 0.14386 0.75907 0.31191 0.0
O26 O 0.16331 0.79366 0.22856 0.0
O27 O 0.15077 0.77635 0.24579 0.0
Co28 Co 0.46674 0.90639 0.52577 0.0
O29 O 0.45609 0.89036 0.53381 0.0
O30 O 0.44857 0.91134 0.54208 0.0
C31 C 0.47572 0.90007 0.47007 0.0
O32 O 0.47483 0.92537 0.5183 0.0
Co33 Co 0.49833 0.90425 0.52171 0.0
O34 O 0.49676 0.92294 0.50147 0.0
C35 C 0.48432 0.90176 0.59516 0.0
C36 C 0.44616 0.89834 0.54317 0.0
C37 C 0.48617 0.93023 0.5058 0.0
O38 O 0.47309 0.9056 0.57994 0.0
O39 O 0.49519 0.8996 0.57617 0.0
O40 O 0.4636 0.90531 0.4713 0.0
O41 O 0.48124 0.89757 0.5024 0.0
Co42 Co 0.34572 0.21715 0.77742 0.0
O43 O 0.36144 0.20591 0.78399 0.0
O44 O 0.34026 0.19887 0.79173 0.0
C45 C 0.3524 0.22672 0.72271 0.0
O46 O 0.32699 0.22592 0.77105 0.0
Co47 Co 0.34892 0.24864 0.77712 0.0
O48 O 0.3301 0.24802 0.75718 0.0
C49 C 0.35078 0.23351 0.84899 0.0
C50 C 0.35319 0.19607 0.79225 0.0
C51 C 0.32248 0.23761 0.76024 0.0
O52 O 0.34664 0.22265 0.83233 0.0
O53 O 0.35338 0.24456 0.83129 0.0
O54 O 0.34667 0.21481 0.72259 0.0
O55 O 0.35505 0.23169 0.75565 0.0
Co56 Co 0.0392 0.90648 0.45752 0.0
O57 O 0.05064 0.89083 0.45282 0.0
O58 O 0.0573 0.9119 0.44128 0.0
C59 C 0.03014 0.90099 0.51391 0.0
O60 O 0.03011 0.92512 0.4612 0.0
Co61 Co 0.00776 0.90253 0.46025 0.0
O62 O 0.00813 0.92183 0.47638 0.0
C63 C 0.02243 0.89934 0.38809 0.0
C64 C 0.06029 0.89902 0.44263 0.0
C65 C 0.01836 0.9296 0.47159 0.0
O66 O 0.03325 0.90429 0.40318 0.0
O67 O 0.01165 0.89668 0.40701 0.0
O68 O 0.04199 0.9068 0.5123 0.0
O69 O 0.02502 0.89745 0.48182 0.0
Co70 Co 0.34495 0.78626 0.69963 0.0
O71 O 0.35994 0.79869 0.69967 0.0
O72 O 0.33964 0.80321 0.67579 0.0
C73 C 0.34705 0.77933 0.75992 0.0
O74 O 0.32692 0.77604 0.69635 0.0
Co75 Co 0.35028 0.75539 0.71199 0.0
O76 O 0.33022 0.75466 0.71704 0.0
C77 C 0.35734 0.76802 0.63919 0.0
C78 C 0.35201 0.80723 0.68253 0.0
C79 C 0.32241 0.76427 0.70639 0.0
O80 O 0.35104 0.77888 0.6492 0.0
O81 O 0.35922 0.75794 0.66149 0.0
O82 O 0.34084 0.79067 0.75234 0.0
O83 O 0.35294 0.77352 0.73162 0.0
Co84 Co 0.46576 0.09862 0.95424 0.0
O85 O 0.45381 0.11374 0.94676 0.0
O86 O 0.44835 0.09236 0.9348 0.0
C87 C 0.47318 0.10497 0.01185 0.0
O88 O 0.4755 0.08037 0.96023 0.0
Co89 Co 0.49689 0.10372 0.96294 0.0
O90 O 0.49695 0.08445 0.97929 0.0
C91 C 0.48418 0.10512 0.88741 0.0
C92 C 0.44478 0.1051 0.9352 0.0
C93 C 0.48716 0.07631 0.97249 0.0
O94 O 0.47293 0.10062 0.9011 0.0
O95 O 0.49449 0.10809 0.90793 0.0
O96 O 0.46169 0.09855 0.00844 0.0
O97 O 0.47895 0.1084 0.98055 0.0
Co98 Co 0.15724 0.21698 0.20465 0.0
O99 O 0.14128 0.20717 0.18992 0.0
O100 O 0.16196 0.19841 0.19086 0.0
C101 C 0.14809 0.22618 0.25716 0.0
O102 O 0.17603 0.22429 0.21965 0.0
Co103 Co 0.15626 0.24862 0.20831 0.0
O104 O 0.17366 0.24631 0.23553 0.0
C105 C 0.15853 0.23479 0.1343 0.0
C106 C 0.14903 0.19672 0.18453 0.0
C107 C 0.18074 0.2355 0.23344 0.0
O108 O 0.15984 0.22321 0.1508 0.0
O109 O 0.15618 0.24587 0.15208 0.0
O110 O 0.15298 0.21393 0.25791 0.0
O111 O 0.1478 0.2319 0.22432 0.0
Co112 Co 0.96615 0.90817 0.95525 0.0
O113 O 0.95393 0.89303 0.9522 0.0
O114 O 0.94844 0.9142 0.93763 0.0
C115 C 0.97477 0.9031 0.0125 0.0
O116 O 0.97611 0.92641 0.95698 0.0
Co117 Co 0.99735 0.90293 0.95906 0.0
O118 O 0.99784 0.92239 0.97353 0.0
C119 C 0.98281 0.89949 0.88682 0.0
C120 C 0.94477 0.90153 0.94064 0.0
C121 C 0.988 0.93052 0.96744 0.0
O122 O 0.97212 0.90489 0.90141 0.0
O123 O 0.99349 0.89677 0.90605 0.0
O124 O 0.9632 0.90941 0.00984 0.0
O125 O 0.97985 0.89889 0.98098 0.0
Co126 Co 0.84623 0.21417 0.71234 0.0
O127 O 0.86195 0.20311 0.70421 0.0
O128 O 0.84107 0.19717 0.68794 0.0
C129 C 0.85141 0.2198 0.77238 0.0
O130 O 0.82755 0.22307 0.71834 0.0
Co131 Co 0.85017 0.24502 0.72995 0.0
O132 O 0.83074 0.24374 0.74426 0.0
C133 C 0.85313 0.23503 0.65161 0.0
C134 C 0.85393 0.19408 0.68969 0.0
C135 C 0.82299 0.23408 0.73362 0.0
O136 O 0.84884 0.22319 0.66154 0.0
O137 O 0.85544 0.24463 0.67521 0.0
O138 O 0.84545 0.20829 0.76528 0.0
O139 O 0.85508 0.22669 0.74314 0.0
Co140 Co 0.53756 0.09258 0.44852 0.0
O141 O 0.55132 0.10637 0.45013 0.0
O142 O 0.55427 0.0857 0.4265 0.0
C143 C 0.52997 0.09556 0.50793 0.0
O144 O 0.52579 0.07553 0.44442 0.0
Co145 Co 0.50712 0.10068 0.45742 0.0
O146 O 0.50459 0.0808 0.46331 0.0
C147 C 0.52125 0.10615 0.38569 0.0
C148 C 0.5593 0.09762 0.43413 0.0
C149 C 0.51357 0.07212 0.45372 0.0
O150 O 0.53147 0.09911 0.39712 0.0
O151 O 0.51108 0.10898 0.40685 0.0
O152 O 0.54079 0.08829 0.50186 0.0
O153 O 0.52515 0.10179 0.47881 0.0
Co154 Co 0.65715 0.78967 0.19953 0.0
O155 O 0.64195 0.80145 0.19131 0.0
O156 O 0.66286 0.80579 0.17179 0.0
C157 C 0.65284 0.78546 0.26099 0.0
O158 O 0.6754 0.77987 0.20494 0.0
Co159 Co 0.65182 0.75947 0.22189 0.0
O160 O 0.67139 0.76011 0.23511 0.0
C161 C 0.64813 0.76813 0.14269 0.0
C162 C 0.65024 0.80965 0.17426 0.0
C163 C 0.67953 0.76907 0.2222 0.0
O164 O 0.65322 0.77985 0.15057 0.0
O165 O 0.64573 0.75905 0.16779 0.0
O166 O 0.65916 0.79652 0.25127 0.0
O167 O 0.6482 0.77826 0.23339 0.0
Co168 Co 0.96615 0.0939 0.52159 0.0
O169 O 0.95346 0.10847 0.52814 0.0
O170 O 0.95067 0.08772 0.55127 0.0
C171 C 0.96943 0.09736 0.45928 0.0
O172 O 0.9769 0.07616 0.5182 0.0
Co173 Co 0.99577 0.10038 0.49601 0.0
O174 O 0.99672 0.08045 0.48866 0.0
C175 C 0.98784 0.10479 0.57555 0.0
C176 C 0.94594 0.09995 0.54661 0.0
C177 C 0.98812 0.0722 0.5028 0.0
O178 O 0.97618 0.09928 0.56919 0.0
O179 O 0.99655 0.10714 0.54944 0.0
O180 O 0.95894 0.09051 0.47087 0.0
O181 O 0.9767 0.10286 0.48551 0.0
Co182 Co 0.6557 0.21437 0.27516 0.0
O183 O 0.64031 0.20264 0.28102 0.0
O184 O 0.66149 0.19677 0.29423 0.0
C185 C 0.6501 0.22232 0.21763 0.0
O186 O 0.67413 0.22389 0.27052 0.0
Co187 Co 0.65102 0.24562 0.26829 0.0
O188 O 0.67016 0.24528 0.25077 0.0
C189 C 0.64829 0.23219 0.34241 0.0
C190 C 0.64869 0.19343 0.29291 0.0
C191 C 0.67824 0.23544 0.25747 0.0
O192 O 0.65326 0.22118 0.32853 0.0
O193 O 0.64554 0.24265 0.32229 0.0
O194 O 0.65619 0.21066 0.22081 0.0
O195 O 0.64639 0.22788 0.24898 0.0
Co196 Co 0.53623 0.90983 0.02514 0.0
O197 O 0.54689 0.89376 0.03241 0.0
O198 O 0.55465 0.91467 0.04001 0.0
C199 C 0.52688 0.90319 0.97011 0.0
O200 O 0.52804 0.92884 0.01832 0.0
Co201 Co 0.5046 0.90763 0.02262 0.0
O202 O 0.50607 0.92625 0.00188 0.0
C203 C 0.51917 0.90535 0.09549 0.0
C204 C 0.55701 0.90165 0.04064 0.0
C205 C 0.51661 0.93362 0.00622 0.0
O206 O 0.53033 0.90911 0.0797 0.0
O207 O 0.50819 0.90316 0.077 0.0
O208 O 0.53893 0.9086 0.97046 0.0
O209 O 0.52156 0.90092 0.00281 0.0
Co210 Co 0.84591 0.78905 0.78036 0.0
O211 O 0.86146 0.80027 0.78959 0.0
O212 O 0.84042 0.80588 0.80494 0.0
C213 C 0.85131 0.78369 0.72032 0.0
O214 O 0.82734 0.77996 0.77344 0.0
Co215 Co 0.85022 0.7583 0.76229 0.0
O216 O 0.83086 0.75941 0.74713 0.0
C217 C 0.85324 0.76823 0.8406 0.0
C218 C 0.85325 0.80913 0.80413 0.0
C219 C 0.82297 0.76896 0.75764 0.0
O220 O 0.84846 0.7799 0.83093 0.0
O221 O 0.8558 0.75876 0.81681 0.0
O222 O 0.84529 0.79514 0.72766 0.0
O223 O 0.85498 0.77672 0.74943 0.0
Co224 Co 0.53865 0.59424 0.52633 0.0
O225 O 0.54983 0.60975 0.53634 0.0
O226 O 0.55481 0.58884 0.55448 0.0
C227 C 0.53499 0.59916 0.46503 0.0
O228 O 0.52947 0.57571 0.51936 0.0
Co229 Co 0.50858 0.5986 0.50178 0.0
O230 O 0.50975 0.57908 0.4885 0.0
C231 C 0.5163 0.60204 0.58195 0.0
C232 C 0.5582 0.60163 0.55327 0.0
C233 C 0.51887 0.57122 0.50177 0.0
O234 O 0.52833 0.59759 0.57479 0.0
O235 O 0.50733 0.60407 0.55631 0.0
O236 O 0.54599 0.59282 0.47505 0.0
O237 O 0.52731 0.60325 0.49228 0.0
Co238 Co 0.65814 0.28821 0.77512 0.0
O239 O 0.6427 0.29988 0.78049 0.0
O240 O 0.6638 0.30591 0.79403 0.0
C241 C 0.65269 0.28023 0.71745 0.0
O242 O 0.67663 0.27876 0.77117 0.0
Co243 Co 0.65366 0.25693 0.76772 0.0
O244 O 0.67289 0.25735 0.75113 0.0
C245 C 0.65058 0.27031 0.84197 0.0
C246 C 0.65099 0.30918 0.79233 0.0
C247 C 0.68088 0.26723 0.75837 0.0
O248 O 0.65549 0.28141 0.82845 0.0
O249 O 0.64803 0.25986 0.82159 0.0
O250 O 0.65881 0.29188 0.7207 0.0
O251 O 0.64895 0.27466 0.74875 0.0
Co252 Co 0.96527 0.40909 0.03129 0.0
O253 O 0.95389 0.39332 0.03428 0.0
O254 O 0.94802 0.41372 0.05482 0.0
C255 C 0.9719 0.40609 0.97107 0.0
O256 O 0.97439 0.42782 0.03099 0.0
Co257 Co 0.99642 0.40526 0.01731 0.0
O258 O 0.99641 0.42533 0.0143 0.0
C259 C 0.98468 0.3988 0.0917 0.0
C260 C 0.94481 0.401 0.05003 0.0
C261 C 0.9862 0.43269 0.02272 0.0
O262 O 0.9734 0.40446 0.08212 0.0
O263 O 0.99453 0.39695 0.06864 0.0
O264 O 0.96026 0.41177 0.97827 0.0
O265 O 0.97827 0.40125 -9e-05 0.0
Co266 Co 0.84366 0.71374 0.27972 0.0
O267 O 0.85939 0.70318 0.29194 0.0
O268 O 0.83829 0.69692 0.30462 0.0
C269 C 0.84999 0.71872 0.2201 0.0
O270 O 0.82493 0.72213 0.26964 0.0
Co271 Co 0.8471 0.74442 0.25913 0.0
O272 O 0.82828 0.74217 0.24031 0.0
C273 C 0.84869 0.7356 0.339 0.0
C274 C 0.85122 0.69416 0.30593 0.0
C275 C 0.82051 0.73259 0.25133 0.0
O276 O 0.8451 0.72345 0.32987 0.0
O277 O 0.85092 0.74501 0.31475 0.0
O278 O 0.84414 0.70717 0.22742 0.0
O279 O 0.85288 0.72608 0.24914 0.0
Co280 Co 0.53799 0.40832 0.95284 0.0
O281 O 0.54964 0.39296 0.94576 0.0
O282 O 0.55454 0.4138 0.92674 0.0
C283 C 0.53298 0.40409 0.01389 0.0
O284 O 0.52835 0.42666 0.95701 0.0
Co285 Co 0.50745 0.40321 0.9719 0.0
O286 O 0.50765 0.42302 0.98232 0.0
C287 C 0.51752 0.39836 0.89477 0.0
C288 C 0.55814 0.4011 0.92937 0.0
C289 C 0.51706 0.431 0.97117 0.0
O290 O 0.52875 0.40439 0.90307 0.0
O291 O 0.50833 0.39562 0.91924 0.0
O292 O 0.54422 0.4103 0.00518 0.0
O293 O 0.52606 0.39954 0.98565 0.0
Co294 Co 0.84296 0.2898 0.21014 0.0
O295 O 0.85828 0.30165 0.2048 0.0
O296 O 0.83754 0.30652 0.18486 0.0
C297 C 0.84691 0.28422 0.27091 0.0
O298 O 0.82462 0.28001 0.21277 0.0
Co299 Co 0.84798 0.25912 0.22755 0.0
O300 O 0.82821 0.25935 0.23831 0.0
C301 C 0.85269 0.26966 0.15063 0.0
C302 C 0.85018 0.31023 0.18859 0.0
C303 C 0.82025 0.26872 0.22689 0.0
O304 O 0.84723 0.28107 0.15989 0.0
O305 O 0.855 0.26012 0.17441 0.0
O306 O 0.84065 0.29549 0.26291 0.0
O307 O 0.85162 0.27761 0.24232 0.0
Co308 Co 0.96659 0.59537 0.44951 0.0
O309 O 0.95507 0.6107 0.44044 0.0
O310 O 0.94934 0.58943 0.4281 0.0
C311 C 0.97314 0.60163 0.50796 0.0
O312 O 0.97601 0.57698 0.45658 0.0
Co313 Co 0.99763 0.60016 0.46225 0.0
O314 O 0.99723 0.58085 0.47798 0.0
C315 C 0.98591 0.60258 0.38572 0.0
C316 C 0.94607 0.60225 0.42772 0.0
C317 C 0.98748 0.5728 0.47001 0.0
O318 O 0.97463 0.59745 0.39743 0.0
O319 O 0.99578 0.60557 0.40782 0.0
O320 O 0.96163 0.59537 0.50318 0.0
O321 O 0.97946 0.60494 0.47741 0.0
Co322 Co 0.65856 0.71499 0.70219 0.0
O323 O 0.64302 0.70428 0.68897 0.0
O324 O 0.66425 0.6984 0.67658 0.0
C325 C 0.65196 0.71936 0.76199 0.0
O326 O 0.67711 0.72359 0.71317 0.0
Co327 Co 0.65445 0.74543 0.72404 0.0
O328 O 0.67346 0.7437 0.74185 0.0
C329 C 0.65312 0.73707 0.6438 0.0
C330 C 0.65136 0.69544 0.67491 0.0
C331 C 0.68138 0.73422 0.73103 0.0
O332 O 0.65722 0.72504 0.65253 0.0
O333 O 0.65037 0.74619 0.66849 0.0
O334 O 0.65802 0.708 0.754 0.0
O335 O 0.64902 0.72693 0.73338 0.0
Co336 Co 0.46435 0.40672 0.45612 0.0
O337 O 0.45293 0.39145 0.44543 0.0
O338 O 0.44789 0.41264 0.43023 0.0
C339 C 0.46881 0.4007 0.51629 0.0
O340 O 0.47369 0.42508 0.46451 0.0
Co341 Co 0.4947 0.40188 0.47675 0.0
O342 O 0.49386 0.4212 0.49254 0.0
C343 C 0.48583 0.39975 0.39718 0.0
C344 C 0.44438 0.39987 0.43044 0.0
C345 C 0.48456 0.42927 0.48136 0.0
O346 O 0.47399 0.40426 0.40624 0.0
O347 O 0.49508 0.39708 0.42157 0.0
O348 O 0.45771 0.40725 0.50829 0.0
O349 O 0.47611 0.3971 0.48772 0.0
Co350 Co 0.34604 0.71439 0.2087 0.0
O351 O 0.36173 0.70403 0.19494 0.0
O352 O 0.34058 0.69671 0.1893 0.0
C353 C 0.35423 0.72132 0.26499 0.0
O354 O 0.32738 0.72232 0.22171 0.0
Co355 Co 0.34866 0.74563 0.22147 0.0
O356 O 0.33049 0.7434 0.24481 0.0
C357 C 0.34833 0.73447 0.14369 0.0
C358 C 0.35352 0.6943 0.18555 0.0
C359 C 0.32294 0.73315 0.23816 0.0
O360 O 0.34535 0.72257 0.15638 0.0
O361 O 0.35104 0.74459 0.16521 0.0
O362 O 0.34855 0.70945 0.26184 0.0
O363 O 0.35575 0.72795 0.23384 0.0
Co364 Co 0.04106 0.59629 0.9488 0.0
O365 O 0.05223 0.61196 0.94096 0.0
O366 O 0.05832 0.59097 0.92642 0.0
C367 C 0.03471 0.60177 0.00797 0.0
O368 O 0.03218 0.57758 0.95483 0.0
Co369 Co 0.01 0.59963 0.96428 0.0
O370 O 0.01201 0.58083 0.9836 0.0
C371 C 0.02078 0.60279 0.88654 0.0
C372 C 0.06144 0.60382 0.92783 0.0
C373 C 0.02163 0.57312 0.97264 0.0
O374 O 0.03263 0.59877 0.89723 0.0
O375 O 0.01085 0.60465 0.90941 0.0
O376 O 0.04631 0.5958 0.00221 0.0
O377 O 0.02811 0.60521 0.978 0.0
Co378 Co 0.15748 0.28453 0.6949 0.0
O379 O 0.14249 0.29698 0.6955 0.0
O380 O 0.163 0.30186 0.67364 0.0
C381 C 0.15495 0.2766 0.75408 0.0
O382 O 0.17557 0.27432 0.69191 0.0
Co383 Co 0.15192 0.2535 0.70259 0.0
O384 O 0.17182 0.25281 0.71093 0.0
C385 C 0.14585 0.2673 0.63081 0.0
C386 C 0.15059 0.30579 0.68012 0.0
C387 C 0.17985 0.26247 0.70201 0.0
O388 O 0.15183 0.27805 0.64307 0.0
O389 O 0.1439 0.25675 0.65128 0.0
O390 O 0.16111 0.2881 0.74827 0.0
O391 O 0.14921 0.27126 0.72479 0.0
Co392 Co 0.46537 0.59587 0.02465 0.0
O393 O 0.45423 0.6111 0.03771 0.0
O394 O 0.44908 0.58973 0.0508 0.0
C395 C 0.46959 0.60236 0.96468 0.0
O396 O 0.47445 0.57758 0.014 0.0
Co397 Co 0.49573 0.60091 0.00336 0.0
O398 O 0.49489 0.58158 0.98753 0.0
C399 C 0.48699 0.60287 0.08279 0.0
C400 C 0.44576 0.60252 0.05245 0.0
C401 C 0.48543 0.57349 -0.00244 0.0
O402 O 0.47542 0.59762 0.07414 0.0
O403 O 0.49592 0.60626 0.05817 0.0
O404 O 0.45833 0.59609 0.97285 0.0
O405 O 0.47706 0.60561 -0.00676 0.0
Co406 Co 0.15729 0.71742 0.77099 0.0
O407 O 0.14239 0.70615 0.78597 0.0
O408 O 0.16402 0.70092 0.79477 0.0
C409 C 0.14928 0.72196 0.71272 0.0
O410 O 0.17536 0.72648 0.75769 0.0
Co411 Co 0.15225 0.74782 0.75191 0.0
O412 O 0.17119 0.74711 0.7329 0.0
C413 C 0.15258 0.73888 0.83164 0.0
C414 C 0.15129 0.69753 0.79834 0.0
C415 C 0.17932 0.7375 0.74125 0.0
O416 O 0.1567 0.72703 0.82139 0.0
O417 O 0.14921 0.74817 0.80806 0.0
O418 O 0.15594 0.7108 0.71905 0.0
O419 O 0.14673 0.72933 0.74206 0.0
Co420 Co 0.03757 0.40703 0.52451 0.0
O421 O 0.04762 0.3912 0.53879 0.0
O422 O 0.05515 0.41225 0.54527 0.0
C423 C 0.03099 0.39897 0.4678 0.0
O424 O 0.02986 0.42583 0.51159 0.0
Co425 Co 0.00636 0.40467 0.5096 0.0
O426 O 0.00879 0.42305 0.48794 0.0
C427 C 0.01694 0.40479 0.58799 0.0
C428 C 0.0573 0.39927 0.54934 0.0
C429 C 0.01905 0.43049 0.49543 0.0
O430 O 0.02898 0.40764 0.5762 0.0
O431 O 0.00696 0.40226 0.56584 0.0
O432 O 0.0429 0.40451 0.47158 0.0
O433 O 0.02412 0.39754 0.49855 0.0
Co434 Co 0.34582 0.28559 0.28287 0.0
O435 O 0.36109 0.29767 0.28124 0.0
O436 O 0.34041 0.3037 0.29899 0.0
C437 C 0.34931 0.27587 0.22615 0.0
O438 O 0.32752 0.2757 0.28616 0.0
Co439 Co 0.35111 0.25437 0.283 0.0
O440 O 0.33131 0.25364 0.27296 0.0
C441 C 0.35646 0.27036 0.35174 0.0
C442 C 0.35303 0.30713 0.29326 0.0
C443 C 0.32325 0.26358 0.2787 0.0
O444 O 0.35048 0.28065 0.33669 0.0
O445 O 0.3588 0.25933 0.3337 0.0
O446 O 0.34314 0.28752 0.22838 0.0
O447 O 0.35438 0.27138 0.25739 0.0
H448 H 0.01192 0.11544 0.60048 0.0
H449 H 0.02016 0.11655 0.66543 0.0
H450 H 0.9817 0.1014 0.70582 0.0
H451 H 0.97335 0.09999 0.6407 0.0
H452 H 0.01124 0.12964 0.7306 0.0
H453 H 0.00919 0.07352 0.74562 0.0
H454 H 0.00742 0.08195 0.70052 0.0
H455 H 0.9933 0.08118 0.73273 0.0
C456 C 0.00511 0.11246 0.62309 0.0
C457 C 0.99202 0.10741 0.61522 0.0
C458 C 0.00987 0.11312 0.66025 0.0
C459 C 1.00165 0.10877 0.69026 0.0
C460 C 0.9883 0.10451 0.68287 0.0
H461 H 0.01328 0.11687 0.93014 0.0
H462 H 0.00651 0.11908 0.86392 0.0
C463 C 0.98352 0.10379 0.64564 0.0
C464 C 0.00732 0.10813 0.72901 0.0
H465 H 0.01472 0.08611 0.80075 0.0
C466 C 0.01202 0.12014 0.74597 0.0
C467 C 0.00861 0.09565 0.74856 0.0
C468 C 0.00449 0.08231 0.73086 0.0
C469 C 0.01763 0.12004 0.78249 0.0
C470 C 0.01839 0.10765 0.80256 0.0
C471 C 0.01403 0.0956 0.78526 0.0
C472 C 0.02313 0.10701 0.8422 0.0
C473 C 0.0228 0.13315 0.79924 0.0
C474 C 0.03467 0.09939 0.85187 0.0
C475 C 0.03858 0.09811 0.88977 0.0
C476 C 0.03088 0.10429 0.91848 0.0
C477 C 0.01941 0.112 0.9086 0.0
C478 C 0.01557 0.11335 0.87079 0.0
H479 H 0.02468 0.14094 0.77708 0.0
H480 H 0.01511 0.13724 0.81919 0.0
H481 H 0.03236 0.13145 0.81526 0.0
H482 H 0.04056 0.09434 0.83011 0.0
H483 H 0.04744 0.09207 0.89662 0.0
H484 H 0.16115 0.72324 0.89144 0.0
H485 H 0.16141 0.72945 0.95857 0.0
H486 H 0.14369 0.76828 0.93147 0.0
H487 H 0.14325 0.76221 0.86462 0.0
H488 H 0.1749 0.75201 -0.00865 0.0
H489 H 0.11932 0.75376 0.01699 0.0
H490 H 0.12668 0.74539 0.97637 0.0
H491 H 0.12475 0.76355 0.97683 0.0
C492 C 0.15718 0.73305 0.89976 0.0
C493 C 0.15216 0.74221 0.87255 0.0
C494 C 0.15737 0.73658 0.93811 0.0
C495 C 0.15243 0.74925 0.94992 0.0
C496 C 0.14733 0.75836 0.92296 0.0
H497 H 0.16823 0.79431 0.15592 0.0
H498 H 0.16759 0.78569 0.09084 0.0
C499 C 0.14716 0.75488 0.8847 0.0
C500 C 0.15307 0.75325 -0.00978 0.0
H501 H 0.13345 0.76361 0.0644 0.0
C502 C 0.16585 0.75445 0.00748 0.0
C503 C 0.14122 0.7563 0.01117 0.0
C504 C 0.1272 0.75458 -0.00543 0.0
C505 C 0.16712 0.75896 0.04501 0.0
C506 C 0.1553 0.76253 0.06545 0.0
C507 C 0.1425 0.761 0.04847 0.0
C508 C 0.15593 0.76771 0.10473 0.0
C509 C 0.18108 0.75975 0.06252 0.0
C510 C 0.14935 0.76061 0.13383 0.0
C511 C 0.14959 0.76556 0.17082 0.0
C512 C 0.1564 0.77773 0.17936 0.0
C513 C 0.16296 0.78487 0.15017 0.0
C514 C 0.16268 0.77992 0.11307 0.0
H515 H 0.18855 0.75341 0.04689 0.0
H516 H 0.18469 0.77042 0.06171 0.0
H517 H 0.18086 0.75641 0.09254 0.0
H518 H 0.14403 0.75121 0.12791 0.0
H519 H 0.14443 0.75984 0.19271 0.0
H520 H 0.49708 0.89941 0.13882 0.0
H521 H 0.49604 0.89662 0.20699 0.0
H522 H 0.5391 0.90414 0.21539 0.0
H523 H 0.54031 0.90712 0.14642 0.0
H524 H 0.51108 0.87767 0.25359 0.0
H525 H 0.52077 0.93213 0.28849 0.0
H526 H 0.51577 0.927 0.24144 0.0
H527 H 0.53252 0.92321 0.25835 0.0
C528 C 0.50639 0.90046 0.1549 0.0
C529 C 0.51878 0.90354 0.13705 0.0
C530 C 0.50576 0.89881 0.19393 0.0
C531 C 0.51748 0.9002 0.21607 0.0
C532 C 0.52994 0.90313 0.19864 0.0
H533 H 0.50178 0.89118 0.46134 0.0
H534 H 0.51496 0.89015 0.40251 0.0
C535 C 0.53059 0.90482 0.15931 0.0
C536 C 0.51615 0.89891 0.25748 0.0
H537 H 0.51165 0.91837 0.33636 0.0
C538 C 0.51159 0.88645 0.27208 0.0
C539 C 0.51683 0.91042 0.28131 0.0
C540 C 0.52169 0.924 0.26684 0.0
C541 C 0.5067 0.88547 0.30921 0.0
C542 C 0.50638 0.89723 0.33193 0.0
C543 C 0.51191 0.90942 0.31846 0.0
C544 C 0.49859 0.89754 0.36739 0.0
C545 C 0.50096 0.87218 0.32313 0.0
C546 C 0.48506 0.90196 0.36665 0.0
C547 C 0.47751 0.90257 0.4 0.0
C548 C 0.48342 0.89877 0.43455 0.0
C549 C 0.49696 0.89418 0.43508 0.0
C550 C 0.50452 0.89359 0.40165 0.0
H551 H 0.50295 0.86371 0.30309 0.0
H552 H 0.50542 0.86958 0.35108 0.0
H553 H 0.48981 0.87319 0.32701 0.0
H554 H 0.48037 0.905 0.34021 0.0
H555 H 0.46711 0.90614 0.39875 0.0
H556 H 0.3512 0.29078 0.40274 0.0
H557 H 0.35429 0.28996 0.47145 0.0
H558 H 0.37236 0.25022 0.46148 0.0
H559 H 0.36958 0.251 0.39326 0.0
H560 H 0.34151 0.2717 0.51442 0.0
H561 H 0.39642 0.26685 0.54087 0.0
H562 H 0.38976 0.27297 0.49634 0.0
H563 H 0.39135 0.25499 0.5051 0.0
C564 C 0.35611 0.28199 0.41509 0.0
C565 C 0.35998 0.27087 0.39247 0.0
C566 C 0.35791 0.28158 0.45435 0.0
C567 C 0.36371 0.27011 0.47155 0.0
C568 C 0.36818 0.25933 0.44882 0.0
H569 H 0.34385 0.22054 0.65139 0.0
H570 H 0.34698 0.23408 0.59397 0.0
C571 C 0.36641 0.25972 0.40972 0.0
C572 C 0.36315 0.26827 0.51309 0.0
H573 H 0.38151 0.25529 0.58659 0.0
C574 C 0.35033 0.26849 0.5305 0.0
C575 C 0.37466 0.26429 0.53434 0.0
C576 C 0.38883 0.26492 0.51821 0.0
C577 C 0.34854 0.26359 0.56738 0.0
C578 C 0.35982 0.25819 0.58695 0.0
C579 C 0.37283 0.25917 0.57105 0.0
C580 C 0.35802 0.25023 0.62194 0.0
C581 C 0.33451 0.26364 0.58452 0.0
C582 C 0.36344 0.25476 0.65635 0.0
C583 C 0.36164 0.24706 0.6892 0.0
C584 C 0.35455 0.23465 0.6879 0.0
C585 C 0.34934 0.23006 0.65322 0.0
C586 C 0.35106 0.2378 0.6205 0.0
H587 H 0.3279 0.2714 0.57102 0.0
H588 H 0.32974 0.25354 0.58017 0.0
H589 H 0.33496 0.26564 0.61544 0.0
H590 H 0.36893 0.26429 0.65782 0.0
H591 H 0.3658 0.25083 0.71559 0.0
H592 H 0.96418 0.9073 0.83306 0.0
H593 H 0.96644 0.90535 0.76419 0.0
H594 H 0.00462 0.8845 0.77847 0.0
H595 H 0.00242 0.88619 0.84679 0.0
H596 H 0.98696 0.91705 0.7242 0.0
H597 H 0.98685 0.86192 0.69652 0.0
H598 H 0.98047 0.8691 0.74013 0.0
H599 H 0.99838 0.86597 0.73415 0.0
C600 C 0.97293 0.90205 0.82155 0.0
C601 C 0.98318 0.897 0.84549 0.0
C602 C 0.97418 0.90094 0.78221 0.0
C603 C 0.9856 0.89462 0.76627 0.0
C604 C 0.99556 0.88913 0.79014 0.0
H605 H 0.03697 0.91082 0.58357 0.0
H606 H 0.02358 0.90947 0.6418 0.0
C607 C 0.99435 0.89025 0.8293 0.0
C608 C 0.98817 0.89519 0.72505 0.0
H609 H 0.99964 0.8758 0.65171 0.0
C610 C 0.98942 0.90801 0.70804 0.0
C611 C 0.99114 0.88339 0.70375 0.0
C612 C 0.98899 0.86932 0.71952 0.0
C613 C 0.99465 0.90939 0.67135 0.0
C614 C 0.99894 0.89767 0.65162 0.0
C615 C 0.99662 0.88479 0.66731 0.0
C616 C 0.0068 0.89864 0.61611 0.0
C617 C 0.99594 0.92341 0.65447 0.0
C618 C 0.00193 0.89268 0.58274 0.0
C619 C 0.00958 0.89339 0.54951 0.0
C620 C 0.02229 0.89994 0.5493 0.0
C621 C 0.02722 0.90573 0.5829 0.0
C622 C 0.01953 0.90506 0.61606 0.0
H623 H 0.98857 0.93058 0.66743 0.0
H624 H 0.00632 0.92735 0.6599 0.0
H625 H 0.99427 0.9232 0.62338 0.0
H626 H 0.99218 0.88757 0.58237 0.0
H627 H 0.00554 0.88881 0.524 0.0
H628 H 0.3347 0.78883 0.82394 0.0
H629 H 0.3346 0.77824 0.88675 0.0
H630 H 0.35802 0.74467 0.84335 0.0
H631 H 0.35831 0.75522 0.78074 0.0
H632 H 0.32543 0.75149 0.90984 0.0
H633 H 0.38079 0.75978 0.93265 0.0
H634 H 0.37136 0.76855 0.89628 0.0
H635 H 0.37614 0.75111 0.88978 0.0
C636 C 0.33982 0.7792 0.82781 0.0
C637 C 0.34663 0.77292 0.79759 0.0
C638 C 0.3397 0.77314 0.86358 0.0
C639 C 0.34642 0.76076 0.86962 0.0
C640 C 0.35293 0.75431 0.83929 0.0
H641 H 0.34187 0.71651 0.08662 0.0
H642 H 0.34138 0.72112 0.01835 0.0
C643 C 0.35307 0.76036 0.80357 0.0
C644 C 0.34702 0.75488 0.90801 0.0
H645 H 0.36878 0.74863 0.9811 0.0
C646 C 0.3349 0.75074 0.92542 0.0
C647 C 0.35942 0.75398 0.92805 0.0
C648 C 0.37268 0.75867 0.91098 0.0
C649 C 0.33481 0.74598 0.96287 0.0
C650 C 0.34718 0.74528 0.98307 0.0
C651 C 0.35934 0.7491 0.9653 0.0
C652 C 0.3476 0.74211 0.02391 0.0
C653 C 0.32145 0.74226 0.9811 0.0
C654 C 0.3515 0.75231 0.04931 0.0
C655 C 0.35185 0.74973 0.08804 0.0
C656 C 0.34834 0.73685 0.10228 0.0
C657 C 0.3446 0.72655 0.07664 0.0
C658 C 0.34425 0.72917 0.03769 0.0
H659 H 0.31262 0.74523 0.96335 0.0
H660 H 0.32106 0.73111 0.98559 0.0
H661 H 0.32049 0.74723 0.00919 0.0
H662 H 0.35414 0.76235 0.03915 0.0
H663 H 0.3548 0.75792 0.10678 0.0
H664 H 0.49692 0.11833 0.02513 0.0
H665 H 0.50885 0.12079 0.08549 0.0
H666 H 0.47675 0.09884 0.14179 0.0
H667 H 0.46478 0.09623 0.08144 0.0
H668 H 0.50014 0.13274 0.15439 0.0
H669 H 0.51177 0.07795 0.16984 0.0
H670 H 0.50638 0.08537 0.12557 0.0
H671 H 0.49409 0.08129 0.1615 0.0
C672 C 0.49239 0.11403 0.05038 0.0
C673 C 0.47996 0.10699 0.0486 0.0
C674 C 0.49921 0.11547 0.08478 0.0
C675 C 0.49377 0.10981 0.11784 0.0
C676 C 0.48121 0.10307 0.11635 0.0
H677 H 0.50162 0.12135 0.35118 0.0
H678 H 0.49805 0.12427 0.28365 0.0
C679 C 0.47436 0.10165 0.08196 0.0
C680 C 0.50121 0.11088 0.15401 0.0
H681 H 0.51423 0.09161 0.22537 0.0
C682 C 0.5034 0.12378 0.16978 0.0
C683 C 0.50577 0.0992 0.17342 0.0
C684 C 0.50453 0.08517 0.15658 0.0
C685 C 0.50929 0.12523 0.20574 0.0
C686 C 0.51284 0.11347 0.22647 0.0
C687 C 0.51142 0.10064 0.20959 0.0
C688 C 0.51654 0.11397 0.26705 0.0
C689 C 0.51144 0.13932 0.22138 0.0
C690 C 0.52821 0.10731 0.28031 0.0
C691 C 0.53022 0.10545 0.31914 0.0
C692 C 0.5205 0.11012 0.3453 0.0
C693 C 0.50927 0.11753 0.33191 0.0
C694 C 0.50727 0.11936 0.29319 0.0
H695 H 0.51304 0.1468 0.19824 0.0
H696 H 0.50225 0.14247 0.2373 0.0
H697 H 0.5203 0.13969 0.24083 0.0
H698 H 0.53546 0.10303 0.26054 0.0
H699 H 0.53904 0.09977 0.32846 0.0
H700 H 0.13845 0.24491 0.59032 0.0
H701 H 0.13405 0.24342 0.52275 0.0
H702 H 0.1389 0.28681 0.51225 0.0
H703 H 0.14382 0.28837 0.58012 0.0
H704 H 0.11552 0.25424 0.47435 0.0
H705 H 0.16754 0.27312 0.44021 0.0
H706 H 0.16258 0.26888 0.48787 0.0
H707 H 0.15677 0.2844 0.46652 0.0
C708 C 0.13849 0.25419 0.57384 0.0
C709 C 0.14173 0.26673 0.59055 0.0
C710 C 0.13591 0.25332 0.53515 0.0
C711 C 0.1364 0.26497 0.51233 0.0
C712 C 0.13881 0.27765 0.52919 0.0
H713 H 0.14254 0.25322 0.26544 0.0
H714 H 0.13694 0.26523 0.32425 0.0
C715 C 0.14158 0.27852 0.56798 0.0
C716 C 0.13539 0.26337 0.47075 0.0
H717 H 0.15486 0.26386 0.39078 0.0
C718 C 0.12401 0.25659 0.45589 0.0
C719 C 0.14644 0.26653 0.44662 0.0
C720 C 0.15908 0.27355 0.46098 0.0
C721 C 0.12381 0.25204 0.41829 0.0
C722 C 0.13527 0.25435 0.39515 0.0
C723 C 0.14613 0.26211 0.40889 0.0
C724 C 0.13712 0.24713 0.35892 0.0
C725 C 0.11164 0.24427 0.40403 0.0
C726 C 0.13914 0.23303 0.35923 0.0
C727 C 0.14254 0.2262 0.32598 0.0
C728 C 0.14392 0.23336 0.29185 0.0
C729 C 0.14155 0.24745 0.29139 0.0
C730 C 0.13831 0.25432 0.32483 0.0
H731 H 0.1024 0.24658 0.42091 0.0
H732 H 0.10962 0.24663 0.37381 0.0
H733 H 0.11369 0.23322 0.40638 0.0
H734 H 0.1385 0.22737 0.38548 0.0
H735 H 0.14427 0.21534 0.32713 0.0
H736 H 0.04013 0.90905 0.33426 0.0
H737 H 0.03713 0.90835 0.26535 0.0
H738 H 1.00056 0.88475 0.27944 0.0
H739 H 0.00351 0.88521 0.34781 0.0
H740 H 0.01686 0.87646 0.21748 0.0
H741 H 0.00676 0.93217 0.21922 0.0
H742 H 0.02283 0.92655 0.23764 0.0
H743 H 0.00743 0.92222 0.26206 0.0
C744 C 0.03158 0.90352 0.32264 0.0
C745 C 0.02191 0.89741 0.34657 0.0
C746 C 0.02987 0.90317 0.2833 0.0
C747 C 0.0185 0.8967 0.26748 0.0
C748 C 0.00937 0.88985 0.29116 0.0
H749 H 0.96592 0.90996 0.08307 0.0
H750 H 0.97846 0.90816 0.14264 0.0
C751 C 0.01103 0.89021 0.33029 0.0
C752 C 0.01519 0.89799 0.22683 0.0
H753 H 0.00265 0.92059 0.16253 0.0
C754 C 0.01397 0.88612 0.20511 0.0
C755 C 0.01131 0.91062 0.21113 0.0
C756 C 0.01204 0.92364 0.23363 0.0
C757 C 0.00838 0.88646 0.16857 0.0
C758 C 0.0041 0.89904 0.15336 0.0
C759 C 0.00592 0.91098 0.17442 0.0
C760 C 0.99668 0.89996 0.11704 0.0
C761 C 0.00642 0.87327 0.14745 0.0
C762 C 0.0028 0.89599 0.08297 0.0
C763 C 0.99561 0.89688 0.04898 0.0
C764 C 0.98224 0.90192 0.0485 0.0
C765 C 0.97619 0.90602 0.0826 0.0
C766 C 0.98335 0.90503 0.11659 0.0
H767 H 0.00768 0.8643 0.16618 0.0
H768 H 0.99617 0.87284 0.13434 0.0
H769 H 0.01407 0.87256 0.12447 0.0
H770 H 0.01317 0.89231 0.08261 0.0
H771 H 1.00057 0.89373 0.02308 0.0
H772 H 0.86619 0.24793 0.12072 0.0
H773 H 0.868 0.24163 0.0543 0.0
H774 H 0.84748 0.27857 0.02219 0.0
H775 H 0.84542 0.28495 0.08891 0.0
H776 H 0.83562 0.25526 -0.00688 0.0
H777 H 0.89107 0.25519 0.96605 0.0
H778 H 0.88641 0.24579 0.00761 0.0
H779 H 0.88356 0.26383 0.00602 0.0
C780 C 0.86224 0.25486 0.09961 0.0
C781 C 0.85553 0.2669 0.11022 0.0
C782 C 0.8634 0.25128 0.06158 0.0
C783 C 0.85798 0.25969 0.03339 0.0
C784 C 0.85178 0.27198 0.04364 0.0
H785 H 0.86362 0.24345 0.79256 0.0
H786 H 0.8652 0.25338 0.85571 0.0
C787 C 0.85063 0.27561 0.08176 0.0
C788 C 0.8575 0.25488 -0.00619 0.0
H789 H 0.87724 0.243 0.92169 0.0
C790 C 0.84472 0.25272 0.9773 0.0
C791 C 0.86939 0.25164 0.97329 0.0
C792 C 0.88339 0.25435 0.98899 0.0
C793 C 0.84349 0.24703 0.94111 0.0
C794 C 0.85536 0.24321 0.92131 0.0
C795 C 0.86816 0.24575 0.9373 0.0
C796 C 0.85468 0.23687 0.8835 0.0
C797 C 0.8295 0.24521 0.92431 0.0
C798 C 0.84843 0.22418 0.87843 0.0
C799 C 0.84747 0.21846 0.8423 0.0
C800 C 0.85281 0.22537 0.81087 0.0
C801 C 0.85933 0.23793 0.81624 0.0
C802 C 0.86028 0.24361 0.85227 0.0
H803 H 0.82182 0.25161 0.93889 0.0
H804 H 0.82948 0.24777 0.8937 0.0
H805 H 0.82637 0.23443 0.92734 0.0
H806 H 0.84425 0.21873 0.9024 0.0
H807 H 0.84246 0.20874 0.83896 0.0
H808 H 0.50559 0.11567 0.84804 0.0
H809 H 0.50948 0.11475 0.78012 0.0
H810 H 0.47043 0.09573 0.76404 0.0
H811 H 0.46644 0.09641 0.83246 0.0
H812 H 0.49157 0.08188 0.72944 0.0
H813 H 0.49359 0.13644 0.6927 0.0
H814 H 0.50438 0.13245 0.73209 0.0
H815 H 0.48627 0.13035 0.73642 0.0
C816 C 0.4977 0.11145 0.83016 0.0
C817 C 0.48572 0.10605 0.84581 0.0
C818 C 0.49992 0.11103 0.79124 0.0
C819 C 0.49018 0.10532 0.76707 0.0
C820 C 0.47803 0.10025 0.7823 0.0
H821 H 0.50625 0.10838 0.52447 0.0
H822 H 0.49481 0.10973 0.58562 0.0
C823 C 0.47577 0.10068 0.82137 0.0
C824 C 0.49334 0.10367 0.72644 0.0
H825 H 0.50473 0.12115 0.64945 0.0
C826 C 0.49423 0.09047 0.71168 0.0
C827 C 0.49663 0.11489 0.70325 0.0
C828 C 0.49503 0.12934 0.71681 0.0
C829 C 0.49903 0.08815 0.67485 0.0
C830 C 0.50326 0.09933 0.65268 0.0
C831 C 0.50168 0.11257 0.66675 0.0
C832 C 0.50973 0.09759 0.61522 0.0
C833 C 0.49962 0.07378 0.66018 0.0
C834 C 0.52194 0.09032 0.61164 0.0
C835 C 0.5285 0.08948 0.57662 0.0
C836 C 0.52301 0.09603 0.54482 0.0
C837 C 0.51075 0.10323 0.54849 0.0
C838 C 0.50418 0.10401 0.58338 0.0
H839 H 0.49235 0.06708 0.67537 0.0
H840 H 0.49735 0.07337 0.62941 0.0
H841 H 0.50999 0.06966 0.66475 0.0
H842 H 0.52655 0.08555 0.63609 0.0
H843 H 0.53795 0.0839 0.57461 0.0
H844 H 0.64267 0.76049 0.61438 0.0
H845 H 0.64216 0.76755 0.54835 0.0
H846 H 0.6606 0.72967 0.51514 0.0
H847 H 0.6613 0.72246 0.58152 0.0
H848 H 0.67313 0.75333 0.48428 0.0
H849 H 0.61727 0.75353 0.46316 0.0
H850 H 0.62279 0.76275 0.50426 0.0
H851 H 0.62534 0.74469 0.5019 0.0
C852 C 0.64654 0.75356 0.59314 0.0
C853 C 0.65203 0.74088 0.60335 0.0
C854 C 0.64616 0.75761 0.55535 0.0
C855 C 0.6512 0.74907 0.52694 0.0
C856 C 0.6566 0.73637 0.53677 0.0
H857 H 0.64096 0.76229 0.28648 0.0
H858 H 0.64101 0.75331 0.35085 0.0
C859 C 0.65695 0.73226 0.57468 0.0
C860 C 0.65128 0.75373 0.48718 0.0
H861 H 0.63055 0.76467 0.41609 0.0
C862 C 0.66383 0.75571 0.46919 0.0
C863 C 0.63912 0.75674 0.46763 0.0
C864 C 0.62535 0.75421 0.48504 0.0
C865 C 0.66456 0.76093 0.43228 0.0
C866 C 0.65241 0.76442 0.41327 0.0
C867 C 0.63985 0.76214 0.43098 0.0
C868 C 0.65244 0.77006 0.37448 0.0
C869 C 0.67829 0.76252 0.41381 0.0
C870 C 0.65869 0.78257 0.36661 0.0
C871 C 0.65871 0.78773 0.32972 0.0
C872 C 0.65241 0.78048 0.30032 0.0
C873 C 0.64595 0.76809 0.30852 0.0
C874 C 0.64595 0.76294 0.34527 0.0
H875 H 0.68618 0.75633 0.42824 0.0
H876 H 0.6779 0.75954 0.38352 0.0
H877 H 0.68144 0.77333 0.41534 0.0
H878 H 0.66352 0.78834 0.38898 0.0
H879 H 0.66372 0.79733 0.32422 0.0
H880 H 0.95634 0.08632 0.39826 0.0
H881 H 0.96319 0.0878 0.33149 0.0
H882 H 0.99798 0.11187 0.36307 0.0
H883 H 0.99128 0.11049 0.42961 0.0
H884 H 0.97443 0.11918 0.2931 0.0
H885 H 0.0058 0.07202 0.29452 0.0
H886 H 0.99029 0.07314 0.32172 0.0
H887 H 0.00487 0.08276 0.33587 0.0
C888 C 0.96543 0.09194 0.39093 0.0
C889 C 0.9733 0.09827 0.41908 0.0
C890 C 0.96929 0.09279 0.35291 0.0
C891 C 0.98105 0.09994 0.34273 0.0
C892 C 0.98886 0.10633 0.37064 0.0
H893 H 0.02874 0.10344 0.13772 0.0
H894 H 0.02061 0.10383 0.20317 0.0
C895 C 0.98502 0.1055 0.40856 0.0
C896 C 0.9854 0.10064 0.30295 0.0
H897 H 0.00539 0.08466 0.23805 0.0
C898 C 0.98114 0.11164 0.28082 0.0
C899 C 0.99426 0.09083 0.28761 0.0
C900 C 0.99914 0.07897 0.31094 0.0
C901 C 0.98564 0.11316 0.24337 0.0
C902 C 0.99443 0.10325 0.22774 0.0
C903 C 0.99866 0.09224 0.2501 0.0
C904 C 0.99929 0.10397 0.18815 0.0
C905 C 0.9812 0.1255 0.22128 0.0
C906 C 0.98999 0.10396 0.15809 0.0
C907 C 0.99459 0.10389 0.12073 0.0
C908 C 0.00859 0.10357 0.11272 0.0
C909 C 0.01789 0.10366 0.14292 0.0
C910 C 0.01327 0.10387 0.18031 0.0
H911 H 0.97796 0.13388 0.24033 0.0
H912 H 0.98949 0.12928 0.20272 0.0
H913 H 0.97241 0.12276 0.20319 0.0
H914 H 0.97917 0.10368 0.16348 0.0
H915 H 0.98714 0.10367 0.09818 0.0
H916 H 0.63853 0.24704 0.20517 0.0
H917 H 0.63743 0.25959 0.1455 0.0
H918 H 0.65802 0.22674 0.08871 0.0
H919 H 0.65932 0.21416 0.14841 0.0
H920 H 0.66859 0.25361 0.07404 0.0
H921 H 0.61253 0.25 0.0544 0.0
H922 H 0.61859 0.2564 0.09902 0.0
H923 H 0.62166 0.23902 0.08646 0.0
C924 C 0.64278 0.24246 0.17994 0.0
C925 C 0.64898 0.2296 0.18134 0.0
C926 C 0.6421 0.24964 0.14592 0.0
C927 C 0.64755 0.24402 0.11281 0.0
C928 C 0.65375 0.2312 0.11411 0.0
H929 H 0.63955 0.24893 0.88022 0.0
H930 H 0.63807 0.24579 0.94827 0.0
C931 C 0.65444 0.22402 0.14811 0.0
C932 C 0.64687 0.25144 0.07658 0.0
H933 H 0.62505 0.26055 0.00604 0.0
C934 C 0.65909 0.25533 0.05928 0.0
C935 C 0.6344 0.25369 0.05778 0.0
C936 C 0.62102 0.24952 0.0751 0.0
C937 C 0.65924 0.26079 0.02263 0.0
C938 C 0.6468 0.2625 0.00313 0.0
C939 C 0.63453 0.25927 0.02127 0.0
C940 C 0.64649 0.26546 0.96216 0.0
C941 C 0.67273 0.26389 0.00423 0.0
C942 C 0.65142 0.27775 0.94743 0.0
C943 C 0.65238 0.27958 0.90822 0.0
C944 C 0.64839 0.26915 0.88331 0.0
C945 C 0.64286 0.25714 0.89842 0.0
C946 C 0.64192 0.25533 0.9374 0.0
H947 H 0.68144 0.26025 0.02143 0.0
H948 H 0.6733 0.25914 0.97577 0.0
H949 H 0.67377 0.27504 0.00059 0.0
H950 H 0.6548 0.28576 0.9662 0.0
H951 H 0.65658 0.289 0.89753 0.0
H952 H 0.46309 0.90068 0.64577 0.0
H953 H 0.46454 0.89741 0.71455 0.0
H954 H 0.50823 0.89544 0.70658 0.0
H955 H 0.50692 0.8984 0.63846 0.0
H956 H 0.49697 0.87512 0.75215 0.0
H957 H 0.47733 0.92657 0.78958 0.0
H958 H 0.46689 0.91579 0.76054 0.0
H959 H 0.4825 0.92243 0.74196 0.0
C960 C 0.473 0.89956 0.65874 0.0
C961 C 0.4849 0.89985 0.63663 0.0
C962 C 0.47379 0.89771 0.69799 0.0
C963 C 0.48649 0.89628 0.71555 0.0
C964 C 0.49832 0.89646 0.69348 0.0
H965 H 0.53666 0.90398 0.89809 0.0
H966 H 0.52399 0.90003 0.83948 0.0
C967 C 0.49755 0.8982 0.65449 0.0
C968 C 0.4879 0.89496 0.75699 0.0
H969 H 0.48788 0.91405 0.83759 0.0
C970 C 0.49469 0.88348 0.77109 0.0
C971 C 0.48479 0.90586 0.78161 0.0
C972 C 0.47753 0.91842 0.76786 0.0
C973 C 0.49945 0.88311 0.8084 0.0
C974 C 0.49735 0.89448 0.83193 0.0
C975 C 0.48951 0.90541 0.81906 0.0
C976 C 0.50487 0.89607 0.86762 0.0
C977 C 0.50739 0.87094 0.82186 0.0
C978 C 0.49821 0.89517 0.90252 0.0
C979 C 0.50544 0.89731 0.93601 0.0
C980 C 0.51935 0.90061 0.93486 0.0
C981 C 0.52596 0.9015 0.89977 0.0
C982 C 0.51877 0.89919 0.86638 0.0
H983 H 0.50552 0.8619 0.80377 0.0
H984 H 0.51841 0.87333 0.8209 0.0
H985 H 0.50472 0.86842 0.85159 0.0
H986 H 0.48746 0.89285 0.90379 0.0
H987 H 0.5001 0.89655 0.96271 0.0
H988 H 0.86082 0.75882 0.69966 0.0
H989 H 0.86202 0.74928 0.63585 0.0
H990 H 0.84608 0.78656 0.58985 0.0
H991 H 0.84467 0.7962 0.65379 0.0
H992 H 0.83678 0.74905 0.5815 0.0
H993 H 0.88346 0.77538 0.53091 0.0
H994 H 0.88036 0.772 0.58048 0.0
H995 H 0.87116 0.78523 0.55686 0.0
C996 C 0.85761 0.76503 0.67599 0.0
C997 C 0.8526 0.77825 0.68165 0.0
C998 C 0.85831 0.75955 0.63964 0.0
C999 C 0.85419 0.76726 0.60844 0.0
C1000 C 0.84937 0.78053 0.6138 0.0
H1001 H 0.84896 0.76094 0.36964 0.0
H1002 H 0.85079 0.76715 0.43604 0.0
C1003 C 0.84856 0.78599 0.65023 0.0
C1004 C 0.85444 0.76127 0.57028 0.0
H1005 H 0.87105 0.76273 0.48582 0.0
C1006 C 0.8443 0.75191 0.56052 0.0
C1007 C 0.86432 0.76508 0.54342 0.0
C1008 C 0.87553 0.77492 0.55325 0.0
C1009 C 0.84343 0.74664 0.52371 0.0
C1010 C 0.8532 0.75062 0.49647 0.0
C1011 C 0.86359 0.75969 0.50678 0.0
C1012 C 0.8522 0.74646 0.45632 0.0
C1013 C 0.83173 0.73736 0.51396 0.0
C1014 C 0.85245 0.73272 0.44563 0.0
C1015 C 0.85123 0.72909 0.40747 0.0
C1016 C 0.84999 0.73917 0.37947 0.0
C1017 C 0.84997 0.75291 0.3904 0.0
C1018 C 0.85103 0.7565 0.42839 0.0
H1019 H 0.8235 0.73786 0.53544 0.0
H1020 H 0.82739 0.73997 0.48588 0.0
H1021 H 0.83543 0.72672 0.51278 0.0
H1022 H 0.85365 0.72483 0.46671 0.0
H1023 H 0.85141 0.71843 0.39988 0.0
H1024 H 0.47843 0.58732 0.14203 0.0
H1025 H 0.48643 0.58826 0.20745 0.0
H1026 H 0.5114 0.62296 0.18006 0.0
H1027 H 0.50396 0.62159 0.11416 0.0
H1028 H 0.52559 0.60572 0.21798 0.0
H1029 H 0.47686 0.61223 0.29341 0.0
H1030 H 0.47656 0.59728 0.26451 0.0
H1031 H 0.47816 0.61376 0.24268 0.0
C1032 C 0.48546 0.59527 0.15014 0.0
C1033 C 0.49058 0.60439 0.12309 0.0
C1034 C 0.48998 0.59585 0.1876 0.0
C1035 C 0.49936 0.60582 0.1989 0.0
C1036 C 0.50416 0.61518 0.17205 0.0
H1037 H 0.51813 0.61831 0.43662 0.0
H1038 H 0.5105 0.62086 0.37121 0.0
C1039 C 0.49989 0.61441 0.13444 0.0
C1040 C 0.50489 0.60593 0.23796 0.0
H1041 H 0.49576 0.60491 0.33103 0.0
C1042 C 0.51906 0.60571 0.24272 0.0
C1043 C 0.4964 0.60612 0.27029 0.0
C1044 C 0.48116 0.60752 0.26747 0.0
C1045 C 0.52497 0.60541 0.27883 0.0
C1046 C 0.51646 0.60475 0.31107 0.0
C1047 C 0.5023 0.60524 0.30632 0.0
C1048 C 0.52194 0.60368 0.35006 0.0
C1049 C 0.54025 0.60609 0.2819 0.0
C1050 C 0.531 0.59322 0.35997 0.0
C1051 C 0.53563 0.59196 0.39722 0.0
C1052 C 0.53094 0.60089 0.42528 0.0
C1053 C 0.52186 0.61128 0.41544 0.0
C1054 C 0.51749 0.61273 0.37812 0.0
H1055 H 0.54481 0.6111 0.25671 0.0
H1056 H 0.54349 0.61173 0.30759 0.0
H1057 H 0.5444 0.59563 0.28341 0.0
H1058 H 0.53426 0.58585 0.33913 0.0
H1059 H 0.54251 0.58376 0.40429 0.0
H1060 H 0.65692 0.21448 0.39748 0.0
H1061 H 0.65581 0.21777 0.46616 0.0
H1062 H 0.63452 0.25557 0.44947 0.0
H1063 H 0.63541 0.25236 0.3813 0.0
H1064 H 0.66775 0.23931 0.50282 0.0
H1065 H 0.61283 0.23823 0.5346 0.0
H1066 H 0.61981 0.23136 0.49134 0.0
H1067 H 0.61644 0.24928 0.49551 0.0
C1068 C 0.65177 0.22336 0.40846 0.0
C1069 C 0.64635 0.23322 0.38385 0.0
C1070 C 0.65115 0.22521 0.44768 0.0
C1071 C 0.64494 0.23682 0.46284 0.0
C1072 C 0.6391 0.24639 0.4384 0.0
H1073 H 0.66211 0.28819 0.64814 0.0
H1074 H 0.66046 0.27565 0.58845 0.0
C1075 C 0.63975 0.24459 0.39934 0.0
C1076 C 0.64586 0.23992 0.50368 0.0
H1077 H 0.62689 0.25115 0.57812 0.0
C1078 C 0.65881 0.24163 0.51958 0.0
C1079 C 0.6342 0.24274 0.52568 0.0
C1080 C 0.62004 0.24016 0.511 0.0
C1081 C 0.66042 0.24701 0.55604 0.0
C1082 C 0.64878 0.25098 0.57664 0.0
C1083 C 0.63581 0.24836 0.56186 0.0
C1084 C 0.64985 0.25846 0.61276 0.0
C1085 C 0.67456 0.24863 0.57187 0.0
C1086 C 0.64409 0.2531 0.6458 0.0
C1087 C 0.64493 0.26028 0.67976 0.0
C1088 C 0.65147 0.27297 0.68115 0.0
C1089 C 0.65705 0.27842 0.6479 0.0
C1090 C 0.65622 0.27122 0.61391 0.0
H1091 H 0.68182 0.24153 0.55817 0.0
H1092 H 0.67816 0.25914 0.56643 0.0
H1093 H 0.67472 0.24686 0.60291 0.0
H1094 H 0.63904 0.24332 0.64534 0.0
H1095 H 0.64049 0.25584 0.70495 0.0
H1096 H 0.99228 0.40482 0.6227 0.0
H1097 H 0.98751 0.40464 0.69018 0.0
H1098 H 0.03046 0.40404 0.71441 0.0
H1099 H 0.03543 0.40449 0.64635 0.0
H1100 H 0.99474 0.38508 0.74238 0.0
H1101 H 0.01654 0.43562 0.77934 0.0
H1102 H 0.01333 0.43058 0.73101 0.0
H1103 H 0.02774 0.4239 0.75597 0.0
C1104 C 1.00076 0.40466 0.64223 0.0
C1105 C 0.01425 0.40467 0.62912 0.0
C1106 C 0.998 0.40456 0.68082 0.0
C1107 C 0.00863 0.40444 0.70717 0.0
C1108 C 0.02213 0.40437 0.69441 0.0
H1109 H 0.99701 0.39693 0.95146 0.0
H1110 H 0.00709 0.39634 0.88818 0.0
C1111 C 0.02493 0.40457 0.65559 0.0
C1112 C 0.00529 0.40417 0.74788 0.0
H1113 H 0.00614 0.42322 0.82859 0.0
C1114 C 0.99734 0.39336 0.76133 0.0
C1115 C 0.00871 0.41501 0.77239 0.0
C1116 C 0.01697 0.427 0.75905 0.0
C1117 C 0.99237 0.39329 0.79843 0.0
C1118 C 0.99546 0.40429 0.82247 0.0
C1119 C 0.0038 0.41486 0.80967 0.0
C1120 C 0.9896 0.40516 0.86061 0.0
C1121 C 0.98356 0.38168 0.81164 0.0
C1122 C 0.97649 0.4104 0.86561 0.0
C1123 C 0.97069 0.41081 0.90166 0.0
C1124 C 0.97796 0.40591 0.93302 0.0
C1125 C 0.99116 0.40076 0.92779 0.0
C1126 C 0.99695 0.40043 0.8918 0.0
H1127 H 0.98302 0.37335 0.79047 0.0
H1128 H 0.98755 0.37752 0.83868 0.0
H1129 H 0.97311 0.38545 0.81709 0.0
H1130 H 0.97072 0.41406 0.84157 0.0
H1131 H 0.96052 0.41483 0.90492 0.0
H1132 H 0.86175 0.74252 0.19936 0.0
H1133 H 0.86325 0.75222 0.13593 0.0
H1134 H 0.84365 0.71668 0.08984 0.0
H1135 H 0.84191 0.70694 0.15358 0.0
H1136 H 0.87582 0.74227 0.07101 0.0
H1137 H 0.82019 0.74837 0.05125 0.0
H1138 H 0.82775 0.74492 0.09681 0.0
H1139 H 0.82538 0.73142 0.06322 0.0
C1140 C 0.85776 0.73675 0.17574 0.0
C1141 C 0.85161 0.72402 0.18139 0.0
C1142 C 0.85865 0.7423 0.13955 0.0
C1143 C 0.85337 0.73526 0.10841 0.0
C1144 C 0.84755 0.72237 0.11373 0.0
H1145 H 0.86618 0.74638 0.87153 0.0
H1146 H 0.86713 0.73991 0.93799 0.0
C1147 C 0.84664 0.71679 0.15003 0.0
C1148 C 0.85395 0.74148 0.07042 0.0
H1149 H 0.83411 0.75242 -0.00259 0.0
C1150 C 0.86671 0.74455 0.05493 0.0
C1151 C 0.84203 0.74469 0.04999 0.0
C1152 C 0.82805 0.74231 0.06624 0.0
C1153 C 0.86789 0.75038 0.01888 0.0
C1154 C 0.85598 0.75301 -0.00226 0.0
C1155 C 0.84321 0.75032 0.0137 0.0
C1156 C 0.85653 0.75775 0.95812 0.0
C1157 C 0.88183 0.75371 0.00375 0.0
C1158 C 0.85023 0.76994 0.94745 0.0
C1159 C 0.84961 0.77368 0.90931 0.0
C1160 C 0.85514 0.76518 0.88126 0.0
C1161 C 0.86177 0.75316 0.89232 0.0
C1162 C 0.86242 0.74947 0.93036 0.0
H1163 H 0.88937 0.75482 0.02696 0.0
H1164 H 0.88528 0.74534 0.98504 0.0
H1165 H 0.88167 0.76323 0.9869 0.0
H1166 H 0.84555 0.7764 0.96857 0.0
H1167 H 0.8444 0.78298 0.90177 0.0
H1168 H 0.50951 0.39226 0.03758 0.0
H1169 H 0.5007 0.39095 0.1021 0.0
H1170 H 0.53612 0.41211 0.14328 0.0
H1171 H 0.54496 0.41363 0.07853 0.0
H1172 H 0.51248 0.37892 0.16592 0.0
H1173 H 0.5042 0.43426 0.18619 0.0
H1174 H 0.50709 0.42679 0.1402 0.0
H1175 H 0.5211 0.42971 0.17181 0.0
C1176 C 0.51542 0.39667 0.06033 0.0
C1177 C 0.52789 0.40312 0.05304 0.0
C1178 C 0.51038 0.39589 0.09716 0.0
C1179 C 0.51767 0.40159 0.12729 0.0
C1180 C 0.53023 0.40787 0.12024 0.0
H1181 H 0.50878 0.38856 0.36668 0.0
H1182 H 0.51554 0.38818 0.30031 0.0
C1183 C 0.53529 0.40867 0.08332 0.0
C1184 C 0.51215 0.4008 0.16614 0.0
H1185 H 0.50132 0.4202 0.24021 0.0
C1186 C 0.50999 0.38793 0.18217 0.0
C1187 C 0.50874 0.41258 0.18692 0.0
C1188 C 0.51027 0.42663 0.17037 0.0
C1189 C 0.50475 0.38654 0.2189 0.0
C1190 C 0.50177 0.39834 0.24013 0.0
C1191 C 0.50367 0.41119 0.22382 0.0
C1192 C 0.49711 0.39761 0.27985 0.0
C1193 C 0.50236 0.37249 0.23457 0.0
C1194 C 0.4845 0.40308 0.2903 0.0
C1195 C 0.48058 0.40336 0.32832 0.0
C1196 C 0.4893 0.3983 0.35657 0.0
C1197 C 0.5018 0.39256 0.34575 0.0
C1198 C 0.50568 0.39225 0.30777 0.0
H1199 H 0.50173 0.36477 0.2117 0.0
H1200 H 0.51094 0.3697 0.2534 0.0
H1201 H 0.49286 0.37213 0.25149 0.0
H1202 H 0.47779 0.40732 0.26906 0.0
H1203 H 0.4709 0.40788 0.33561 0.0
H1204 H 0.83726 0.29542 0.33659 0.0
H1205 H 0.83912 0.28597 0.4007 0.0
H1206 H 0.86017 0.25104 0.35613 0.0
H1207 H 0.85855 0.26044 0.29241 0.0
H1208 H 0.82954 0.26067 0.42822 0.0
H1209 H 0.88565 0.26499 0.43966 0.0
H1210 H 0.87596 0.27388 0.40406 0.0
H1211 H 0.87981 0.25617 0.39824 0.0
C1212 C 0.84233 0.28576 0.34055 0.0
C1213 C 0.84784 0.27871 0.3096 0.0
C1214 C 0.84335 0.28037 0.37708 0.0
C1215 C 0.84996 0.26792 0.38307 0.0
C1216 C 0.85527 0.26079 0.35213 0.0
H1217 H 0.84495 0.21968 0.59068 0.0
H1218 H 0.84473 0.22659 0.52404 0.0
C1219 C 0.85427 0.26615 0.31574 0.0
C1220 C 0.85121 0.26227 0.42163 0.0
H1221 H 0.87441 0.25281 0.48838 0.0
C1222 C 0.83933 0.25894 0.44146 0.0
C1223 C 0.86403 0.26013 0.43873 0.0
C1224 C 0.8771 0.26408 0.41928 0.0
C1225 C 0.83991 0.25348 0.47809 0.0
C1226 C 0.85274 0.2511 0.49492 0.0
C1227 C 0.86462 0.25447 0.4751 0.0
C1228 C 0.854 0.24619 0.53428 0.0
C1229 C 0.82681 0.25065 0.49887 0.0
C1230 C 0.85984 0.25467 0.56164 0.0
C1231 C 0.86008 0.25075 0.59953 0.0
C1232 C 0.85449 0.23823 0.61083 0.0
C1233 C 0.84927 0.22942 0.583 0.0
C1234 C 0.84904 0.23339 0.54497 0.0
H1235 H 0.81798 0.25565 0.48512 0.0
H1236 H 0.82492 0.23954 0.49918 0.0
H1237 H 0.82745 0.25419 0.52867 0.0
H1238 H 0.86382 0.26455 0.55386 0.0
H1239 H 0.8643 0.25774 0.62007 0.0
H1240 H 0.99626 0.60653 0.8525 0.0
H1241 H 0.99148 0.60879 0.78539 0.0
H1242 H 0.03433 0.60655 0.76046 0.0
H1243 H 0.03927 0.6039 0.82814 0.0
H1244 H 0.99929 0.62769 0.73313 0.0
H1245 H 0.01875 0.57629 0.6953 0.0
H1246 H 0.01621 0.58148 0.74377 0.0
H1247 H 0.03065 0.58756 0.71767 0.0
C1248 C 0.00473 0.60656 0.83293 0.0
C1249 C 0.01816 0.6049 0.84574 0.0
C1250 C 0.00196 0.60789 0.79451 0.0
C1251 C 0.01253 0.60767 0.76796 0.0
C1252 C 0.02601 0.60647 0.78051 0.0
H1253 H 0.99796 0.61249 0.52336 0.0
H1254 H 0.0087 0.61522 0.58536 0.0
C1255 C 0.02881 0.605 0.81915 0.0
C1256 C 0.00909 0.60823 0.72726 0.0
H1257 H 0.00825 0.5889 0.64704 0.0
C1258 C 1.00141 0.61929 0.71415 0.0
C1259 C 0.01184 0.59722 0.70265 0.0
C1260 C 0.01973 0.5849 0.71546 0.0
C1261 C 0.99596 0.61939 0.67751 0.0
C1262 C 0.99831 0.60818 0.65359 0.0
C1263 C 0.00649 0.59742 0.66587 0.0
C1264 C 0.99165 0.60706 0.61648 0.0
C1265 C 0.98735 0.6312 0.6648 0.0
C1266 C 0.97853 0.60159 0.61388 0.0
C1267 C 0.97239 0.59992 0.57856 0.0
C1268 C 0.97931 0.60375 0.54548 0.0
C1269 C 0.99239 0.60942 0.54837 0.0
C1270 C 0.99855 0.611 0.58366 0.0
H1271 H 0.98746 0.63968 0.68555 0.0
H1272 H 0.991 0.63502 0.63703 0.0
H1273 H 0.9767 0.62775 0.66094 0.0
H1274 H 0.97314 0.59848 0.63917 0.0
H1275 H 0.9623 0.59556 0.57714 0.0
H1276 H 0.63673 0.74484 0.1149 0.0
H1277 H 0.63565 0.73748 0.04912 0.0
H1278 H 0.65309 0.77554 0.0133 0.0
H1279 H 0.65441 0.78302 0.07928 0.0
H1280 H 0.62342 0.74868 0.98342 0.0
H1281 H 0.67978 0.74635 0.97376 0.0
H1282 H 0.67095 0.74796 0.01831 0.0
H1283 H 0.67292 0.76247 0.98799 0.0
C1284 C 0.64024 0.75174 0.09313 0.0
C1285 C 0.64586 0.76446 0.10251 0.0
C1286 C 0.63957 0.74751 0.0555 0.0
C1287 C 0.64451 0.75587 0.02655 0.0
C1288 C 0.64945 0.76886 0.03544 0.0
H1289 H 0.63891 0.74229 0.78475 0.0
H1290 H 0.63632 0.7508 0.84932 0.0
C1291 C 0.65013 0.77313 0.07314 0.0
C1292 C 0.64516 0.75062 0.98741 0.0
H1293 H 0.66745 0.74116 0.91831 0.0
C1294 C 0.63302 0.74707 0.96905 0.0
C1295 C 0.65774 0.74831 0.96919 0.0
C1296 C 0.67112 0.75135 0.98833 0.0
C1297 C 0.63314 0.7414 0.93262 0.0
C1298 C 0.64571 0.73935 0.91415 0.0
C1299 C 0.65784 0.74279 0.93263 0.0
C1300 C 0.64656 0.73377 0.87543 0.0
C1301 C 0.61986 0.73739 0.91442 0.0
C1302 C 0.6533 0.72144 0.86882 0.0
C1303 C 0.65483 0.71655 0.83192 0.0
C1304 C 0.64976 0.72402 0.80114 0.0
C1305 C 0.64291 0.73631 0.80794 0.0
C1306 C 0.64134 0.74115 0.84479 0.0
H1307 H 0.61151 0.73666 0.9355 0.0
H1308 H 0.617 0.74516 0.89313 0.0
H1309 H 0.62083 0.72749 0.89963 0.0
H1310 H 0.65746 0.71566 0.8922 0.0
H1311 H 0.66018 0.70707 0.82748 0.0
H1312 H 0.50188 0.37783 0.86694 0.0
H1313 H 0.49486 0.37432 0.80126 0.0
H1314 H 0.51849 0.40922 0.76738 0.0
H1315 H 0.5261 0.41228 0.83257 0.0
H1316 H 0.47995 0.38979 0.76122 0.0
H1317 H 0.52831 0.38433 0.68421 0.0
H1318 H 0.52747 0.38367 0.73518 0.0
H1319 H 0.5285 0.39978 0.71096 0.0
C1320 C 0.5058 0.38456 0.84527 0.0
C1321 C 0.51454 0.39531 0.85476 0.0
C1322 C 0.50177 0.38256 0.80778 0.0
C1323 C 0.50626 0.3914 0.77917 0.0
C1324 C 0.51522 0.40199 0.7886 0.0
H1325 H 0.46148 0.4143 0.5804 0.0
H1326 H 0.47017 0.41064 0.64451 0.0
C1327 C 0.51949 0.4038 0.82596 0.0
C1328 C 0.50055 0.39039 0.74039 0.0
H1329 H 0.5091 0.39193 0.64697 0.0
C1330 C 0.48635 0.39003 0.73623 0.0
C1331 C 0.50884 0.3904 0.70767 0.0
C1332 C 0.52412 0.3894 0.70978 0.0
C1333 C 0.48023 0.39026 0.7004 0.0
C1334 C 0.48851 0.39151 0.66785 0.0
C1335 C 0.50271 0.39126 0.67191 0.0
C1336 C 0.48274 0.39339 0.6294 0.0
C1337 C 0.46497 0.38906 0.69799 0.0
C1338 C 0.48722 0.38522 0.59933 0.0
C1339 C 0.48258 0.38758 0.56259 0.0
C1340 C 0.47324 0.39803 0.55534 0.0
C1341 C 0.46857 0.40608 0.58541 0.0
C1342 C 0.47344 0.4039 0.62207 0.0
H1343 H 0.46082 0.38331 0.72249 0.0
H1344 H 0.46041 0.39936 0.69867 0.0
H1345 H 0.46173 0.38389 0.67153 0.0
H1346 H 0.4944 0.37708 0.60421 0.0
H1347 H 0.48631 0.38121 0.53985 0.0
H1348 H 0.348 0.71163 0.33528 0.0
H1349 H 0.3521 0.72286 0.39614 0.0
H1350 H 0.37185 0.75609 0.33875 0.0
H1351 H 0.36774 0.745 0.27774 0.0
H1352 H 0.38516 0.74387 0.41099 0.0
H1353 H 0.3313 0.76045 0.42173 0.0
H1354 H 0.33396 0.74297 0.40875 0.0
H1355 H 0.33927 0.75623 0.37717 0.0
C1356 C 0.35331 0.72126 0.33566 0.0
C1357 C 0.35747 0.7275 0.30185 0.0
C1358 C 0.35564 0.72765 0.37034 0.0
C1359 C 0.3622 0.74029 0.37164 0.0
C1360 C 0.36677 0.74633 0.33811 0.0
H1361 H 0.35414 0.78628 0.58116 0.0
H1362 H 0.35816 0.78226 0.51379 0.0
C1363 C 0.36437 0.74 0.30339 0.0
C1364 C 0.36361 0.74746 0.40799 0.0
H1365 H 0.34475 0.76239 0.47717 0.0
C1366 C 0.3764 0.74809 0.42541 0.0
C1367 C 0.3522 0.75321 0.42605 0.0
C1368 C 0.3384 0.75332 0.40745 0.0
C1369 C 0.37789 0.75366 0.46175 0.0
C1370 C 0.36626 0.75852 0.481 0.0
C1371 C 0.35365 0.75861 0.46246 0.0
C1372 C 0.36648 0.76212 0.52163 0.0
C1373 C 0.39184 0.75409 0.4794 0.0
C1374 C 0.37012 0.75224 0.54837 0.0
C1375 C 0.36782 0.75448 0.58681 0.0
C1376 C 0.36169 0.76659 0.59926 0.0
C1377 C 0.35877 0.77679 0.57257 0.0
C1378 C 0.3611 0.77454 0.53405 0.0
H1379 H 0.39988 0.75468 0.45739 0.0
H1380 H 0.39293 0.76288 0.49886 0.0
H1381 H 0.39351 0.74463 0.49581 0.0
H1382 H 0.37399 0.74247 0.5394 0.0
H1383 H 0.37027 0.74642 0.60652 0.0
H1384 H 0.04443 0.59211 0.07535 0.0
H1385 H 0.03315 0.59317 0.13716 0.0
H1386 H 0.99953 0.61474 0.08698 0.0
H1387 H 0.01078 0.61392 0.02546 0.0
H1388 H 0.00834 0.62615 0.15406 0.0
H1389 H 0.99985 0.57075 0.16904 0.0
H1390 H 0.01726 0.57508 0.15976 0.0
H1391 H 0.0045 0.57855 0.12463 0.0
C1392 C 0.03466 0.59711 0.07759 0.0
C1393 C 0.02844 0.60287 0.04565 0.0
C1394 C 0.02819 0.59761 0.11275 0.0
C1395 C 0.01541 0.60381 0.11633 0.0
C1396 C 0.00934 0.60982 0.08465 0.0
H1397 H 0.96956 0.59403 0.32733 0.0
H1398 H 0.97437 0.59558 0.2594 0.0
C1399 C 0.01579 0.60933 0.04957 0.0
C1400 C 0.00847 0.60427 0.15331 0.0
H1401 H 0.9969 0.58417 0.22496 0.0
C1402 C 0.0057 0.61699 0.16944 0.0
C1403 C 0.00472 0.59229 0.17275 0.0
C1404 C 0.00659 0.57839 0.15552 0.0
C1405 C 0.99993 0.61804 0.20557 0.0
C1406 C 0.99711 0.60605 0.22616 0.0
C1407 C 0.99919 0.59334 0.20918 0.0
C1408 C 0.99332 0.60642 0.26655 0.0
C1409 C 0.99706 0.63195 0.22156 0.0
C1410 C 0.00236 0.61207 0.29283 0.0
C1411 C 0.99969 0.61119 0.33145 0.0
C1412 C 0.98796 0.60454 0.34462 0.0
C1413 C 0.97869 0.59922 0.31814 0.0
C1414 C 0.98141 0.60008 0.27937 0.0
H1415 H 0.99546 0.63952 0.19866 0.0
H1416 H 0.98796 0.63184 0.24014 0.0
H1417 H 0.00591 0.63533 0.2386 0.0
H1418 H 0.01175 0.61675 0.28353 0.0
H1419 H 0.00704 0.61544 0.35096 0.0
H1420 H 0.14659 0.25076 0.76988 0.0
H1421 H 0.14861 0.23862 0.83005 0.0
H1422 H 0.16707 0.27398 0.88067 0.0
H1423 H 0.16546 0.28603 0.82036 0.0
H1424 H 0.18048 0.25012 0.8984 0.0
H1425 H 0.12475 0.24491 0.92218 0.0
H1426 H 0.13119 0.23795 0.87874 0.0
H1427 H 0.13167 0.25598 0.88634 0.0
C1428 C 0.15105 0.25595 0.79387 0.0
C1429 C 0.1558 0.26938 0.79054 0.0
C1430 C 0.15215 0.24901 0.82823 0.0
C1431 C 0.15782 0.25547 0.8599 0.0
C1432 C 0.16266 0.26883 0.85652 0.0
H1433 H 0.16493 0.25695 0.09206 0.0
H1434 H 0.16607 0.25864 0.02331 0.0
C1435 C 0.16168 0.27572 0.82213 0.0
C1436 C 0.15865 0.24851 0.89694 0.0
H1437 H 0.13918 0.2372 0.97046 0.0
C1438 C 0.17147 0.24711 0.91395 0.0
C1439 C 0.14687 0.24445 0.91697 0.0
C1440 C 0.13282 0.24596 0.90037 0.0
C1441 C 0.17275 0.24247 0.95128 0.0
C1442 C 0.16093 0.23921 0.97197 0.0
C1443 C 0.1482 0.23971 0.95424 0.0
C1444 C 0.16133 0.23749 0.0134 0.0
C1445 C 0.18666 0.2416 0.96895 0.0
C1446 C 0.15826 0.225 0.03041 0.0
C1447 C 0.15768 0.22395 0.06991 0.0
C1448 C 0.15988 0.23548 0.0927 0.0
C1449 C 0.16308 0.24791 0.07533 0.0
C1450 C 0.16384 0.24889 0.03608 0.0
H1451 H 0.19478 0.24108 0.94714 0.0
H1452 H 0.18844 0.25079 0.98649 0.0
H1453 H 0.18744 0.23257 0.98767 0.0
H1454 H 0.15618 0.21614 0.01315 0.0
H1455 H 0.15515 0.21425 0.08253 0.0
H1456 H 0.53282 0.60382 0.64437 0.0
H1457 H 0.5258 0.60631 0.71052 0.0
H1458 H 0.48381 0.60752 0.6758 0.0
H1459 H 0.49068 0.60547 0.60984 0.0
H1460 H 0.48901 0.62598 0.73053 0.0
H1461 H 0.50971 0.57555 0.77136 0.0
H1462 H 0.5221 0.58696 0.75194 0.0
H1463 H 0.50841 0.58092 0.72269 0.0
C1464 C 0.5221 0.60468 0.65083 0.0
C1465 C 0.51231 0.60432 0.62183 0.0
C1466 C 0.51811 0.60603 0.68864 0.0
C1467 C 0.50427 0.6068 0.69809 0.0
C1468 C 0.49453 0.60689 0.66914 0.0
H1469 H 0.45609 0.59617 0.89927 0.0
H1470 H 0.46457 0.59857 0.83427 0.0
C1471 C 0.4985 0.60569 0.6314 0.0
C1472 C 0.49978 0.60711 0.73808 0.0
H1473 H 0.50012 0.58883 0.82024 0.0
C1474 C 0.49147 0.61788 0.75017 0.0
C1475 C 0.50291 0.59645 0.76354 0.0
C1476 C 0.51116 0.58425 0.75173 0.0
C1477 C 0.4862 0.61824 0.78706 0.0
C1478 C 0.48938 0.60762 0.81229 0.0
C1479 C 0.49779 0.59696 0.80055 0.0
C1480 C 0.48386 0.60721 0.85099 0.0
C1481 C 0.47722 0.62987 0.79901 0.0
C1482 C 0.49194 0.61136 0.88149 0.0
C1483 C 0.48714 0.61005 0.91846 0.0
C1484 C 0.47423 0.60444 0.92544 0.0
C1485 C 0.46607 0.6005 0.89471 0.0
C1486 C 0.47087 0.60189 0.85767 0.0
H1487 H 0.47643 0.63783 0.77681 0.0
H1488 H 0.46687 0.62598 0.80532 0.0
H1489 H 0.48123 0.63454 0.82536 0.0
H1490 H 0.50202 0.61543 0.87666 0.0
H1491 H 0.49364 0.61321 0.94157 0.0
H1492 H 0.1249 0.75337 0.36157 0.0
H1493 H 0.11961 0.74712 0.42698 0.0
H1494 H 0.15429 0.77017 0.46553 0.0
H1495 H 0.1591 0.77703 0.40067 0.0
H1496 H 0.13345 0.73215 0.47021 0.0
H1497 H 0.1284 0.78083 0.54486 0.0
H1498 H 0.12858 0.77989 0.49386 0.0
H1499 H 0.14428 0.78084 0.52022 0.0
C1500 C 0.13119 0.75734 0.38418 0.0
C1501 C 0.14241 0.76568 0.3761 0.0
C1502 C 0.12817 0.75377 0.42152 0.0
C1503 C 0.13643 0.7583 0.4514 0.0
C1504 C 0.14746 0.76689 0.4433 0.0
H1505 H 0.16077 0.7143 0.64598 0.0
H1506 H 0.15527 0.72271 0.58277 0.0
C1507 C 0.15029 0.77072 0.40609 0.0
C1508 C 0.13458 0.75284 0.49024 0.0
H1509 H 0.13652 0.76181 0.58327 0.0
C1510 C 0.13381 0.73868 0.49492 0.0
C1511 C 0.13466 0.76127 0.52268 0.0
C1512 C 0.13385 0.77655 0.52004 0.0
C1513 C 0.13407 0.73274 0.53096 0.0
C1514 C 0.13578 0.74113 0.56313 0.0
C1515 C 0.13557 0.75531 0.55863 0.0
C1516 C 0.1386 0.73549 0.60129 0.0
C1517 C 0.13256 0.71752 0.53396 0.0
C1518 C 0.13142 0.74021 0.63303 0.0
C1519 C 0.13488 0.73575 0.6693 0.0
C1520 C 0.14544 0.72634 0.67439 0.0
C1521 C 0.15247 0.72143 0.6427 0.0
C1522 C 0.14923 0.72614 0.60653 0.0
H1523 H 0.12611 0.71351 0.51066 0.0
H1524 H 0.1427 0.7127 0.53128 0.0
H1525 H 0.12798 0.71446 0.56139 0.0
H1526 H 0.12324 0.74746 0.62979 0.0
H1527 H 0.12928 0.73965 0.69335 0.0
H1528 H 0.96579 0.39684 0.14882 0.0
H1529 H 0.97025 0.39242 0.21602 0.0
H1530 H 0.01302 0.38829 0.19188 0.0
H1531 H 0.00867 0.39215 0.12516 0.0
H1532 H 0.0049 0.36997 0.24363 0.0
H1533 H 0.98635 0.42164 0.28205 0.0
H1534 H 0.9741 0.41071 0.25993 0.0
H1535 H 0.98864 0.41645 0.23355 0.0
C1536 C 0.97612 0.39486 0.15786 0.0
C1537 C 0.98689 0.39503 0.13171 0.0
C1538 C 0.97865 0.39239 0.19623 0.0
C1539 C 0.992 0.39032 0.20898 0.0
C1540 C 0.00264 0.38988 0.18266 0.0
H1541 H 0.04297 0.40081 0.39815 0.0
H1542 H 0.0323 0.39642 0.33655 0.0
C1543 C 1.00012 0.39216 0.14445 0.0
C1544 C 0.99531 0.38954 0.24974 0.0
H1545 H 0.99636 0.40872 0.33017 0.0
C1546 C 0.00287 0.37836 0.26272 0.0
C1547 C 0.99269 0.40054 0.27451 0.0
C1548 C 0.9851 0.41307 0.26188 0.0
C1549 C 0.00837 0.37817 0.29931 0.0
C1550 C 0.00614 0.38937 0.32334 0.0
C1551 C 0.99802 0.4002 0.31127 0.0
C1552 C 0.0129 0.39055 0.36028 0.0
C1553 C 0.01686 0.36625 0.31185 0.0
C1554 C 0.00547 0.38861 0.39357 0.0
C1555 C 0.01151 0.39105 0.4286 0.0
C1556 C 0.02503 0.39564 0.43074 0.0
C1557 C 0.03254 0.39732 0.39728 0.0
C1558 C 0.0265 0.39476 0.36221 0.0
H1559 H 0.0161 0.35756 0.2919 0.0
H1560 H 0.02767 0.36942 0.3137 0.0
H1561 H 0.01366 0.36285 0.34047 0.0
H1562 H 0.99493 0.38544 0.39239 0.0
H1563 H 0.00549 0.38959 0.45393 0.0
H1564 H 0.36057 0.25081 0.21563 0.0
H1565 H 0.36143 0.23764 0.15683 0.0
H1566 H 0.3398 0.26954 0.09884 0.0
H1567 H 0.33875 0.28269 0.15748 0.0
H1568 H 0.33032 0.24234 0.08365 0.0
H1569 H 0.38635 0.24817 0.06673 0.0
H1570 H 0.3801 0.24132 0.11063 0.0
H1571 H 0.3767 0.2587 0.09875 0.0
C1572 C 0.35597 0.255 0.19035 0.0
C1573 C 0.34968 0.26782 0.19099 0.0
C1574 C 0.35649 0.24747 0.15684 0.0
C1575 C 0.35078 0.25269 0.12356 0.0
C1576 C 0.34426 0.26536 0.12434 0.0
H1577 H 0.35969 0.25426 0.89367 0.0
H1578 H 0.36044 0.25513 0.96233 0.0
C1579 C 0.34372 0.27288 0.15777 0.0
C1580 C 0.35192 0.24535 0.08726 0.0
H1581 H 0.37431 0.23875 0.01594 0.0
C1582 C 0.33994 0.24127 0.06901 0.0
C1583 C 0.36454 0.24394 0.06857 0.0
C1584 C 0.37769 0.2483 0.08691 0.0
C1585 C 0.34013 0.23665 0.03145 0.0
C1586 C 0.35267 0.23604 0.01197 0.0
C1587 C 0.36475 0.23922 0.03113 0.0
C1588 C 0.3532 0.23458 0.97037 0.0
C1589 C 0.32686 0.23341 0.01206 0.0
C1590 C 0.34908 0.22262 0.95211 0.0
C1591 C 0.34856 0.22208 0.91252 0.0
C1592 C 0.35216 0.23352 0.89074 0.0
C1593 C 0.35674 0.24529 0.90938 0.0
C1594 C 0.35724 0.2458 0.94871 0.0
H1595 H 0.31793 0.23582 0.0301 0.0
H1596 H 0.32599 0.23918 0.98517 0.0
H1597 H 0.32653 0.22243 0.00506 0.0
H1598 H 0.34609 0.2138 0.96843 0.0
H1599 H 0.34509 0.21282 0.89907 0.0
H1600 H 0.03453 0.05258 0.01607 0.0
H1601 H 0.03008 0.02809 0.01156 0.0
H1602 H 0.9923 0.03623 0.95417 0.0
H1603 H 0.99671 0.06046 0.95768 0.0
H1604 H 0.00841 0.01358 0.04107 0.0
H1605 H 0.00935 0.00834 0.88498 0.0
H1606 H 0.01583 0.02318 0.90893 0.0
H1607 H 0.99787 0.02131 0.90071 0.0
C1608 C 0.02536 0.04914 0.00205 0.0
C1609 C 0.01604 0.05855 0.98706 0.0
C1610 C 0.02282 0.03515 -0.0004 0.0
C1611 C 0.01096 0.03033 0.98195 0.0
C1612 C 1.00168 0.03968 0.96704 0.0
H1613 H 0.97159 0.95207 0.94779 0.0
H1614 H 0.97687 0.97636 0.95326 0.0
C1615 C 0.00421 0.05359 0.96932 0.0
C1616 C 0.00789 0.01557 0.98038 0.0
H1617 H 0.99969 0.98986 0.91951 0.0
C1618 C 0.00664 0.00835 0.01449 0.0
C1619 C 0.0055 0.00878 0.94567 0.0
C1620 C 0.00733 0.01577 0.90799 0.0
C1621 C 0.00274 0.99462 0.01486 0.0
C1622 C 1.00018 0.9879 0.98017 0.0
C1623 C 1.00152 0.99508 0.94608 0.0
C1624 C 0.99666 0.97327 0.97849 0.0
C1625 C 1.00112 0.98748 0.05239 0.0
C1626 C 0.00605 0.96353 -0.00931 0.0
C1627 C 0.00311 0.94971 0.98752 0.0
C1628 C 0.99069 0.94529 0.97191 0.0
C1629 C 0.98122 0.95509 0.96 0.0
C1630 C 0.98422 0.96897 0.96306 0.0
H1631 H 1.00002 0.9948 0.07613 0.0
H1632 H 0.99215 0.98065 0.05209 0.0
H1633 H 0.01027 0.9812 0.05791 0.0
H1634 H 0.0158 0.96661 0.00206 0.0
H1635 H 0.01067 0.94249 -0.00293 0.0
H1636 H 0.20215 0.77909 0.30022 0.0
H1637 H 0.22629 0.77301 0.29959 0.0
H1638 H 0.21727 0.73782 0.23139 0.0
H1639 H 0.19322 0.74361 0.23241 0.0
H1640 H 0.23461 0.73189 0.28991 0.0
H1641 H 0.25241 0.77739 0.21133 0.0
H1642 H 0.24309 0.78118 0.25371 0.0
H1643 H 0.23468 0.77292 0.21483 0.0
C1644 C 0.20531 0.77009 0.28497 0.0
C1645 C 0.19571 0.76188 0.2663 0.0
C1646 C 0.21912 0.76665 0.28451 0.0
C1647 C 0.2236 0.75505 0.26501 0.0
C1648 C 0.21405 0.74682 0.24659 0.0
H1649 H 0.30156 0.71764 0.21242 0.0
H1650 H 0.27727 0.72209 0.22162 0.0
C1651 C 0.20027 0.75018 0.24718 0.0
C1652 C 0.23822 0.75134 0.26383 0.0
H1653 H 0.26933 0.76257 0.23477 0.0
C1654 C 0.24221 0.73859 0.27782 0.0
C1655 C 0.24811 0.76006 0.2479 0.0
C1656 C 0.24438 0.7736 0.23075 0.0
C1657 C 0.25586 0.7344 0.27677 0.0
C1658 C 0.26572 0.74314 0.2609 0.0
C1659 C 0.26174 0.7559 0.24702 0.0
C1660 C 0.2803 0.7394 0.25846 0.0
C1661 C 0.25964 0.72078 0.29321 0.0
C1662 C 0.29004 0.74758 0.27628 0.0
C1663 C 0.30386 0.74512 0.27094 0.0
C1664 C 0.30829 0.73445 0.24745 0.0
C1665 C 0.29851 0.7259 0.23081 0.0
C1666 C 0.28462 0.72841 0.23612 0.0
H1667 H 0.2516 0.7168 0.31231 0.0
H1668 H 0.26105 0.71338 0.26984 0.0
H1669 H 0.26932 0.72144 0.30923 0.0
H1670 H 0.28693 0.75609 0.29369 0.0
H1671 H 0.31109 0.75185 0.28452 0.0
H1672 H 0.48848 0.06132 0.46793 0.0
H1673 H 0.48222 0.03743 0.47262 0.0
H1674 H 0.52333 0.02582 0.44582 0.0
H1675 H 0.52976 0.04981 0.44069 0.0
H1676 H 0.50234 0.01065 0.40685 0.0
H1677 H 0.49375 0.01309 0.56231 0.0
H1678 H 0.48476 0.02552 0.5348 0.0
H1679 H 0.50298 0.02605 0.53689 0.0
C1680 C 0.49624 0.05374 0.46289 0.0
C1681 C 0.50969 0.05754 0.45425 0.0
C1682 C 0.49262 0.04006 0.46574 0.0
C1683 C 0.50236 0.02988 0.46023 0.0
C1684 C 0.51568 0.03356 0.4504 0.0
H1685 H 0.50808 0.94343 0.47599 0.0
H1686 H 0.51059 0.9675 0.46274 0.0
C1687 C 0.51934 0.04728 0.44751 0.0
C1688 C 0.49866 0.01541 0.46542 0.0
H1689 H 0.48846 0.9924 0.53199 0.0
C1690 C 0.4993 0.00665 0.43417 0.0
C1691 C 0.49457 0.01026 0.50105 0.0
C1692 C 0.49405 0.01916 0.53581 0.0
C1693 C 0.49598 0.99282 0.43763 0.0
C1694 C 0.49221 0.9876 0.47347 0.0
C1695 C 0.4913 0.99644 0.50453 0.0
C1696 C 0.4902 0.97285 0.48004 0.0
C1697 C 0.49648 0.98396 0.4028 0.0
C1698 C 0.47797 0.96784 0.49506 0.0
C1699 C 0.47649 0.95397 0.50308 0.0
C1700 C 0.48729 0.94491 0.49655 0.0
C1701 C 0.4995 0.95004 0.48139 0.0
C1702 C 0.50094 0.96383 0.47342 0.0
H1703 H 0.49519 0.99004 0.37654 0.0
H1704 H 0.50652 0.97888 0.40131 0.0
H1705 H 0.48848 0.97601 0.40364 0.0
H1706 H 0.46958 0.97467 0.5007 0.0
H1707 H 0.46697 0.95039 0.51476 0.0
H1708 H 0.30168 0.21905 0.76837 0.0
H1709 H 0.27746 0.22257 0.75498 0.0
H1710 H 0.28589 0.26364 0.71973 0.0
H1711 H 0.30993 0.26024 0.73243 0.0
H1712 H 0.26023 0.24214 0.78754 0.0
H1713 H 0.26318 0.24902 0.63195 0.0
H1714 H 0.27686 0.2417 0.6592 0.0
H1715 H 0.27457 0.25981 0.65787 0.0
C1716 C 0.29839 0.22879 0.75747 0.0
C1717 C 0.3078 0.23934 0.75148 0.0
C1718 C 0.28455 0.23079 0.74987 0.0
C1719 C 0.27991 0.2433 0.73578 0.0
C1720 C 0.28927 0.25381 0.72977 0.0
H1721 H 0.20113 0.2802 0.68994 0.0
H1722 H 0.22548 0.27557 0.69782 0.0
C1723 C 0.30304 0.25185 0.73738 0.0
C1724 C 0.26523 0.24571 0.72906 0.0
H1725 H 0.24232 0.25534 0.66145 0.0
C1726 C 0.25629 0.2449 0.75991 0.0
C1727 C 0.26013 0.24942 0.69303 0.0
C1728 C 0.26915 0.24993 0.65852 0.0
C1729 C 0.24243 0.24798 0.7559 0.0
C1730 C 0.23735 0.25176 0.71993 0.0
C1731 C 0.24627 0.25252 0.68902 0.0
C1732 C 0.22272 0.25452 0.71372 0.0
C1733 C 0.2334 0.24746 0.79039 0.0
C1734 C 0.21317 0.24416 0.71917 0.0
C1735 C 0.19933 0.24674 0.71468 0.0
C1736 C 0.19469 0.25977 0.70443 0.0
C1737 C 0.20432 0.27007 0.69794 0.0
C1738 C 0.21823 0.26745 0.70243 0.0
H1739 H 0.23937 0.24783 0.81706 0.0
H1740 H 0.22604 0.256 0.79035 0.0
H1741 H 0.22755 0.23782 0.79016 0.0
H1742 H 0.21643 0.23404 0.72713 0.0
H1743 H 0.19227 0.23849 0.71967 0.0
H1744 H 0.03629 0.9506 0.45832 0.0
H1745 H 0.03216 0.97499 0.4669 0.0
H1746 H 0.99163 0.96639 0.50648 0.0
H1747 H 0.99562 0.9422 0.49853 0.0
H1748 H 0.01164 0.99054 0.43171 0.0
H1749 H 0.00623 0.99206 0.5879 0.0
H1750 H 0.01386 0.97789 0.56336 0.0
H1751 H 0.99568 0.97954 0.5655 0.0
C1752 C 0.02654 0.95389 0.46918 0.0
C1753 C 0.01631 0.94439 0.47771 0.0
C1754 C 0.0242 0.96783 0.47404 0.0
C1755 C 0.01165 0.97248 0.48789 0.0
C1756 C 1.00148 0.96303 0.49655 0.0
H1757 H 0.97195 0.05043 0.52237 0.0
H1758 H 0.97777 0.02623 0.51865 0.0
C1759 C 0.00378 0.94916 0.49166 0.0
C1760 C 0.00881 0.98722 0.4914 0.0
H1761 H 0.9988 0.01167 0.55412 0.0
C1762 C 0.00897 0.9952 0.45851 0.0
C1763 C 0.0052 0.99324 0.52637 0.0
C1764 C 0.00534 0.98528 0.56287 0.0
C1765 C 0.00529 0.00897 0.45945 0.0
C1766 C 1.00161 0.01499 0.49439 0.0
C1767 C 1.00155 0.00703 0.52735 0.0
C1768 C 0.99811 0.02961 0.49736 0.0
C1769 C 0.00503 0.01686 0.42282 0.0
C1770 C 0.00769 0.0395 0.48733 0.0
C1771 C 0.0044 0.05326 0.48922 0.0
C1772 C 0.99147 0.05749 0.50162 0.0
C1773 C 0.98197 0.04755 0.51256 0.0
C1774 C 0.98528 0.03372 0.51049 0.0
H1775 H 0.00437 0.01003 0.39785 0.0
H1776 H 0.99631 0.02401 0.42206 0.0
H1777 H 0.01453 0.02286 0.42027 0.0
H1778 H 0.01776 0.03657 0.47803 0.0
H1779 H 0.01206 0.06059 0.48099 0.0
H1780 H 0.19153 0.76017 0.71224 0.0
H1781 H 0.21569 0.76425 0.70249 0.0
H1782 H 0.22475 0.7239 0.74251 0.0
H1783 H 0.20047 0.71964 0.75248 0.0
H1784 H 0.23599 0.76265 0.76093 0.0
H1785 H 0.24616 0.72759 0.64082 0.0
H1786 H 0.22926 0.73329 0.65285 0.0
H1787 H 0.23736 0.72037 0.68068 0.0
C1788 C 0.19859 0.75207 0.71872 0.0
C1789 C 0.194 0.73955 0.73325 0.0
C1790 C 0.21242 0.75445 0.71312 0.0
C1791 C 0.22198 0.74436 0.72151 0.0
C1792 C 0.21749 0.73177 0.73541 0.0
H1793 H 0.3094 0.74039 0.72215 0.0
H1794 H 0.28504 0.73611 0.7245 0.0
C1795 C 0.20362 0.72937 0.74123 0.0
C1796 C 0.23666 0.74734 0.71748 0.0
H1797 H 0.26519 0.7385 0.66838 0.0
C1798 C 0.24238 0.75743 0.74059 0.0
C1799 C 0.24492 0.74049 0.69094 0.0
C1800 C 0.23915 0.72989 0.66462 0.0
C1801 C 0.25625 0.76067 0.73843 0.0
C1802 C 0.26454 0.75383 0.71185 0.0
C1803 C 0.25879 0.74377 0.68861 0.0
C1804 C 0.27932 0.75655 0.7089 0.0
C1805 C 0.26199 0.77109 0.76538 0.0
C1806 C 0.28421 0.76945 0.6987 0.0
C1807 C 0.29821 0.77198 0.69738 0.0
C1808 C 0.30755 0.76163 0.7061 0.0
C1809 C 0.30255 0.74865 0.71544 0.0
C1810 C 0.2886 0.74614 0.71672 0.0
H1811 H 0.25506 0.77302 0.78961 0.0
H1812 H 0.27199 0.76777 0.77659 0.0
H1813 H 0.26349 0.78082 0.75007 0.0
H1814 H 0.2772 0.77756 0.6919 0.0
H1815 H 0.30168 0.78207 0.6899 0.0
H1816 H 0.53318 0.9547 0.02912 0.0
H1817 H 0.52866 0.97915 0.02256 0.0
H1818 H 0.49209 0.97028 0.96013 0.0
H1819 H 0.49639 0.94605 0.96661 0.0
H1820 H 0.52392 0.99596 0.95621 0.0
H1821 H 0.47883 0.99344 0.05041 0.0
H1822 H 0.49134 0.98006 0.04824 0.0
H1823 H 0.47863 0.98152 0.01193 0.0
C1824 C 0.52426 0.95797 0.01367 0.0
C1825 C 0.51505 0.9484 -0.00107 0.0
C1826 C 0.52167 0.97193 0.01002 0.0
C1827 C 0.50986 0.97649 -0.00836 0.0
C1828 C 0.50107 0.96697 0.97524 0.0
H1829 H 0.47132 0.05471 0.94974 0.0
H1830 H 0.47689 0.03047 0.954 0.0
C1831 C 0.5036 0.9531 0.97892 0.0
C1832 C 0.50643 0.99115 -0.00982 0.0
H1833 H 0.48235 0.01414 0.01748 0.0
C1834 C 0.5149 0.99997 0.9698 0.0
C1835 C 0.49459 0.99632 0.00775 0.0
C1836 C 0.48536 0.98739 0.03111 0.0
C1837 C 0.51168 0.01381 0.96589 0.0
C1838 C 0.49983 0.01899 0.9835 0.0
C1839 C 0.49139 0.01015 0.00392 0.0
C1840 C 0.49622 0.03361 0.98184 0.0
C1841 C 0.52083 0.02271 0.9422 0.0
C1842 C 0.50504 0.04336 -0.00296 0.0
C1843 C 0.50191 0.05716 -0.00533 0.0
C1844 C 0.48981 0.06155 0.97727 0.0
C1845 C 0.48073 0.05171 0.96323 0.0
C1846 C 0.48391 0.03786 0.96556 0.0
H1847 H 0.52717 0.01662 0.92248 0.0
H1848 H 0.51483 0.03013 0.92547 0.0
H1849 H 0.52776 0.02845 0.96111 0.0
H1850 H 0.51441 0.0403 0.01066 0.0
H1851 H 0.50909 0.06439 0.00627 0.0
H1852 H 0.19301 0.25651 0.27044 0.0
H1853 H 0.21715 0.26014 0.28077 0.0
H1854 H 0.22584 0.22078 0.23304 0.0
H1855 H 0.20152 0.21716 0.22146 0.0
H1856 H 0.23665 0.24712 0.32065 0.0
H1857 H 0.24864 0.24567 0.16704 0.0
H1858 H 0.23145 0.24626 0.18459 0.0
H1859 H 0.24072 0.23053 0.18474 0.0
C1860 C 0.19999 0.24853 0.26221 0.0
C1861 C 0.19528 0.2366 0.24449 0.0
C1862 C 0.21383 0.25064 0.2683 0.0
C1863 C 0.22335 0.24089 0.2569 0.0
C1864 C 0.21869 0.22861 0.24118 0.0
H1865 H 0.31101 0.23985 0.25782 0.0
H1866 H 0.28687 0.2348 0.25408 0.0
C1867 C 0.20477 0.22649 0.23491 0.0
C1868 C 0.23809 0.24395 0.26045 0.0
H1869 H 0.26718 0.24821 0.20897 0.0
C1870 C 0.24333 0.24735 0.29623 0.0
C1871 C 0.24677 0.24442 0.2285 0.0
C1872 C 0.24162 0.24166 0.18898 0.0
C1873 C 0.25704 0.25099 0.30101 0.0
C1874 C 0.2657 0.25136 0.2691 0.0
C1875 C 0.26049 0.24794 0.23337 0.0
C1876 C 0.28036 0.25471 0.27229 0.0
C1877 C 0.26222 0.25419 0.3402 0.0
C1878 C 0.28476 0.26768 0.28353 0.0
C1879 C 0.29868 0.27068 0.28568 0.0
C1880 C 0.30842 0.26074 0.27663 0.0
C1881 C 0.30388 0.24779 0.26523 0.0
C1882 C 0.29004 0.24485 0.26298 0.0
H1883 H 0.25502 0.25082 0.36254 0.0
H1884 H 0.27221 0.24927 0.34517 0.0
H1885 H 0.26362 0.26533 0.34297 0.0
H1886 H 0.27744 0.27552 0.29027 0.0
H1887 H 0.3018 0.28076 0.29442 0.0
H1888 H 0.80202 0.21953 0.70127 0.0
H1889 H 0.77764 0.22468 0.70456 0.0
H1890 H 0.78605 0.25875 0.7776 0.0
H1891 H 0.81021 0.25363 0.77505 0.0
H1892 H 0.7642 0.24328 0.80191 0.0
H1893 H 0.75941 0.25666 0.6496 0.0
H1894 H 0.76615 0.24004 0.65902 0.0
H1895 H 0.77566 0.25482 0.67273 0.0
C1896 C 0.79866 0.22804 0.71828 0.0
C1897 C 0.80812 0.23623 0.73758 0.0
C1898 C 0.78474 0.23104 0.71987 0.0
C1899 C 0.78007 0.24227 0.74075 0.0
C1900 C 0.78943 0.25012 0.76108 0.0
H1901 H 0.70238 0.28195 0.78689 0.0
H1902 H 0.72664 0.27643 0.78184 0.0
C1903 C 0.80328 0.24717 0.75947 0.0
C1904 C 0.76547 0.24603 0.74155 0.0
H1905 H 0.73927 0.2571 0.68611 0.0
C1906 C 0.75875 0.24631 0.77661 0.0
C1907 C 0.7584 0.25005 0.70852 0.0
C1908 C 0.76526 0.25052 0.67033 0.0
C1909 C 0.7451 0.25035 0.77948 0.0
C1910 C 0.73806 0.25441 0.74648 0.0
C1911 C 0.74474 0.25406 0.71138 0.0
C1912 C 0.72355 0.25844 0.74765 0.0
C1913 C 0.73825 0.24996 0.81767 0.0
C1914 C 0.71386 0.25044 0.72905 0.0
C1915 C 0.70007 0.25356 0.73184 0.0
C1916 C 0.69564 0.26483 0.7531 0.0
C1917 C 0.70543 0.27318 0.77045 0.0
C1918 C 0.71927 0.26999 0.76779 0.0
H1919 H 0.74413 0.2439 0.83855 0.0
H1920 H 0.73729 0.26046 0.82873 0.0
H1921 H 0.72788 0.2456 0.81534 0.0
H1922 H 0.71694 0.24156 0.71314 0.0
H1923 H 0.69285 0.24698 0.71769 0.0
H1924 H 0.69164 0.75116 0.27024 0.0
H1925 H 0.71559 0.74514 0.27415 0.0
H1926 H 0.72492 0.77439 0.18707 0.0
H1927 H 0.70084 0.78068 0.18331 0.0
H1928 H 0.73121 0.7343 0.21751 0.0
H1929 H 0.75321 0.78302 0.26781 0.0
H1930 H 0.73521 0.77954 0.26932 0.0
H1931 H 0.74316 0.78443 0.22557 0.0
C1932 C 0.69876 0.75642 0.25204 0.0
C1933 C 0.69429 0.76638 0.22631 0.0
C1934 C 0.71247 0.75295 0.25435 0.0
C1935 C 0.72207 0.75934 0.23108 0.0
C1936 C 0.71772 0.76947 0.20578 0.0
H1937 H 0.80846 0.74912 0.19956 0.0
H1938 H 0.78442 0.75456 0.19346 0.0
C1939 C 0.70395 0.77304 0.20358 0.0
C1940 C 0.73647 0.75487 0.23239 0.0
H1941 H 0.76875 0.76574 0.2505 0.0
C1942 C 0.73943 0.74117 0.22482 0.0
C1943 C 0.74716 0.76382 0.24199 0.0
C1944 C 0.74456 0.7785 0.25199 0.0
C1945 C 0.7528 0.73622 0.22605 0.0
C1946 C 0.76349 0.74518 0.23562 0.0
C1947 C 0.76053 0.75888 0.24315 0.0
C1948 C 0.77788 0.74071 0.23733 0.0
C1949 C 0.75542 0.72153 0.21635 0.0
C1950 C 0.78219 0.73088 0.26358 0.0
C1951 C 0.79601 0.72766 0.26707 0.0
C1952 C 0.80574 0.73436 0.24465 0.0
C1953 C 0.80127 0.74385 0.21755 0.0
C1954 C 0.78752 0.74699 0.214 0.0
H1955 H 0.74675 0.71694 0.20079 0.0
H1956 H 0.76474 0.72048 0.19888 0.0
H1957 H 0.75692 0.71569 0.24287 0.0
H1958 H 0.77493 0.72605 0.28229 0.0
H1959 H 0.79912 0.72039 0.28837 0.0
H1960 H 0.68971 0.25569 0.21575 0.0
H1961 H 0.71373 0.26083 0.20763 0.0
H1962 H 0.72424 0.22613 0.27614 0.0
H1963 H 0.70007 0.22073 0.28396 0.0
H1964 H 0.73171 0.26728 0.26338 0.0
H1965 H 0.74931 0.22164 0.18538 0.0
H1966 H 0.73154 0.2258 0.19059 0.0
H1967 H 0.74063 0.2179 0.22886 0.0
C1968 C 0.69709 0.24905 0.22894 0.0
C1969 C 0.69293 0.23781 0.25071 0.0
C1970 C 0.71084 0.25202 0.2242 0.0
C1971 C 0.7208 0.24383 0.24102 0.0
C1972 C 0.71674 0.23246 0.26228 0.0
H1973 H 0.80763 0.24822 0.26509 0.0
H1974 H 0.78349 0.24296 0.26746 0.0
C1975 C 0.70292 0.22941 0.26688 0.0
C1976 C 0.73533 0.24774 0.23788 0.0
H1977 H 0.76639 0.23667 0.20795 0.0
C1978 C 0.73929 0.26062 0.25106 0.0
C1979 C 0.74519 0.23906 0.2217 0.0
C1980 C 0.74147 0.22538 0.20548 0.0
C1981 C 0.75288 0.26492 0.24936 0.0
C1982 C 0.76276 0.25619 0.23354 0.0
C1983 C 0.75879 0.24336 0.22005 0.0
C1984 C 0.77739 0.25986 0.2323 0.0
C1985 C 0.7566 0.27862 0.26553 0.0
C1986 C 0.78202 0.27118 0.21174 0.0
C1987 C 0.79592 0.27431 0.21044 0.0
C1988 C 0.80542 0.26607 0.22935 0.0
C1989 C 0.80066 0.25478 0.24999 0.0
C1990 C 0.78683 0.25173 0.25139 0.0
H1991 H 0.74851 0.28266 0.28436 0.0
H1992 H 0.76623 0.27804 0.28181 0.0
H1993 H 0.75806 0.28594 0.24201 0.0
H1994 H 0.77492 0.27748 0.19625 0.0
H1995 H 0.79923 0.283 0.19406 0.0
H1996 H 0.70284 0.72089 0.69751 0.0
H1997 H 0.72704 0.72651 0.70308 0.0
H1998 H 0.71747 0.75783 0.7841 0.0
H1999 H 0.69341 0.75243 0.77856 0.0
H2000 H 0.73377 0.76692 0.7252 0.0
H2001 H 0.75443 0.71959 0.78844 0.0
H2002 H 0.74447 0.71712 0.74637 0.0
H2003 H 0.73651 0.72353 0.78851 0.0
C2004 C 0.70591 0.72881 0.71699 0.0
C2005 C 0.69615 0.73625 0.73739 0.0
C2006 C 0.71975 0.732 0.72019 0.0
C2007 C 0.72406 0.74257 0.74412 0.0
C2008 C 0.71438 0.74968 0.76539 0.0
H2009 H 0.80176 0.78238 0.79217 0.0
H2010 H 0.77752 0.77666 0.78854 0.0
C2011 C 0.7006 0.74654 0.76215 0.0
C2012 C 0.73851 0.74685 0.74553 0.0
H2013 H 0.77044 0.73601 0.76797 0.0
C2014 C 0.7418 0.76018 0.73469 0.0
C2015 C 0.74894 0.73805 0.75794 0.0
C2016 C 0.74595 0.72381 0.77132 0.0
C2017 C 0.75528 0.76489 0.73523 0.0
C2018 C 0.76572 0.75608 0.74756 0.0
C2019 C 0.76242 0.74275 0.75853 0.0
C2020 C 0.78021 0.76027 0.74832 0.0
C2021 C 0.75826 0.77911 0.72169 0.0
C2022 C 0.78974 0.75298 0.72702 0.0
C2023 C 0.80353 0.75616 0.72923 0.0
C2024 C 0.80815 0.7667 0.75291 0.0
C2025 C 0.79854 0.77427 0.77349 0.0
C2026 C 0.78469 0.77103 0.77138 0.0
H2027 H 0.74976 0.78331 0.7046 0.0
H2028 H 0.75976 0.78583 0.74656 0.0
H2029 H 0.76767 0.77937 0.7044 0.0
H2030 H 0.78652 0.74469 0.70896 0.0
H2031 H 0.8106 0.75017 0.71272 0.0
H2032 H 0.53229 0.55024 0.53755 0.0
H2033 H 0.52694 0.52589 0.53403 0.0
H2034 H 0.49467 0.53438 0.455 0.0
H2035 H 0.49997 0.55848 0.45785 0.0
H2036 H 0.50185 0.51356 0.5526 0.0
H2037 H 0.51532 0.50372 0.40269 0.0
H2038 H 0.52098 0.51866 0.4278 0.0
H2039 H 0.50405 0.51788 0.40881 0.0
C2040 C 0.52419 0.54689 0.51902 0.0
C2041 C 0.51658 0.55636 0.49802 0.0
C2042 C 0.52111 0.53299 0.51715 0.0
C2043 C 0.5105 0.52831 0.4939 0.0
C2044 C 0.50305 0.53771 0.47257 0.0
H2045 H 0.47111 0.45068 0.44798 0.0
H2046 H 0.47674 0.47492 0.45287 0.0
C2047 C 0.50607 0.55154 0.47449 0.0
C2048 C 0.50667 0.51372 0.49315 0.0
H2049 H 0.50225 0.48667 0.43379 0.0
C2050 C 0.50206 0.50763 0.52671 0.0
C2051 C 0.50682 0.50605 0.45927 0.0
C2052 C 0.51217 0.51186 0.42266 0.0
C2053 C 0.49734 0.49415 0.52715 0.0
C2054 C 0.49742 0.48651 0.49321 0.0
C2055 C 0.50208 0.49258 0.45969 0.0
C2056 C 0.49334 0.472 0.4922 0.0
C2057 C 0.49203 0.4883 0.56375 0.0
C2058 C 0.50076 0.46235 0.51273 0.0
C2059 C 0.4976 0.44856 0.50997 0.0
C2060 C 0.48696 0.44406 0.48645 0.0
C2061 C 0.47932 0.45378 0.46647 0.0
C2062 C 0.48255 0.46762 0.46913 0.0
H2063 H 0.48918 0.4964 0.58418 0.0
H2064 H 0.48303 0.48174 0.55864 0.0
H2065 H 0.50007 0.48199 0.57699 0.0
H2066 H 0.50926 0.46545 0.5302 0.0
H2067 H 0.50371 0.4414 0.52586 0.0
H2068 H 0.97082 0.45209 0.98775 0.0
H2069 H 0.97701 0.47603 0.97798 0.0
H2070 H 0.01249 0.47048 0.04813 0.0
H2071 H 0.00675 0.44649 0.05584 0.0
H2072 H 0.98039 0.49742 0.01905 0.0
H2073 H 0.03038 0.4853 0.95686 0.0
H2074 H 0.01793 0.47237 0.96692 0.0
H2075 H 0.02908 0.47848 0.00371 0.0
C2076 C 0.97984 0.45609 0.00134 0.0
C2077 C 0.98838 0.4475 0.02229 0.0
C2078 C 0.98343 0.46972 -0.00437 0.0
C2079 C 0.9955 0.47498 0.01123 0.0
C2080 C 0.00346 0.46657 0.03442 0.0
H2081 H 0.01194 0.56101 0.0359 0.0
H2082 H 0.00623 0.53707 0.04471 0.0
C2083 C 1.00008 0.45292 0.03929 0.0
C2084 C 0.99984 0.4892 0.0032 0.0
H2085 H 0.02711 0.5084 0.97613 0.0
C2086 C 0.99058 0.4998 0.00936 0.0
C2087 C 0.01303 0.49236 -0.01048 0.0
C2088 C 0.0231 0.4815 0.97845 0.0
C2089 C 0.99422 0.51343 0.00336 0.0
C2090 C 0.00772 0.51664 -0.00749 0.0
C2091 C 0.01686 0.50602 0.98521 0.0
C2092 C 0.01252 0.53092 0.9885 0.0
C2093 C 0.98341 0.52417 0.00792 0.0
C2094 C 0.01898 0.5353 0.9551 0.0
C2095 C 0.02274 0.54894 0.95059 0.0
C2096 C 0.01991 0.55842 0.9792 0.0
C2097 C 0.01405 0.55391 0.01321 0.0
C2098 C 0.01063 0.54026 0.01806 0.0
H2099 H 0.97309 0.51992 0.00309 0.0
H2100 H 0.9837 0.52817 0.03727 0.0
H2101 H 0.98498 0.53274 0.98795 0.0
H2102 H 0.02073 0.52827 0.93202 0.0
H2103 H 0.02721 0.55219 0.92406 0.0
H2104 H 0.53219 0.45205 0.94162 0.0
H2105 H 0.52695 0.47638 0.94423 0.0
H2106 H 0.49096 0.46781 0.00961 0.0
H2107 H 0.49595 0.44363 0.00682 0.0
H2108 H 0.48609 0.48528 0.94986 0.0
H2109 H 0.5306 0.50231 0.03414 0.0
H2110 H 0.53474 0.49285 -0.00778 0.0
H2111 H 0.5258 0.48467 0.0303 0.0
C2112 C 0.52322 0.45535 0.95681 0.0
C2113 C 0.5145 0.44584 0.97396 0.0
C2114 C 0.52026 0.46927 0.95839 0.0
C2115 C 0.50862 0.47392 0.97742 0.0
C2116 C 0.49999 0.46446 -0.00524 0.0
H2117 H 0.47027 0.55197 0.02411 0.0
H2118 H 0.4754 0.52772 0.01774 0.0
C2119 C 0.50289 0.45061 -0.00687 0.0
C2120 C 0.50511 0.48858 0.97859 0.0
H2121 H 0.51614 0.51945 0.01011 0.0
C2122 C 0.49264 0.49276 0.96308 0.0
C2123 C 0.51367 0.4983 -0.0041 0.0
C2124 C 0.5269 0.49434 0.01441 0.0
C2125 C 0.48858 0.50643 0.96402 0.0
C2126 C 0.49712 0.51614 0.98144 0.0
C2127 C 0.50961 0.51197 -0.00321 0.0
C2128 C 0.49344 0.53073 0.98368 0.0
C2129 C 0.47531 0.5104 0.94575 0.0
C2130 C 0.50188 0.54047 0.96683 0.0
C2131 C 0.49903 0.55428 0.97054 0.0
C2132 C 0.48768 0.55872 -0.00858 0.0
C2133 C 0.47905 0.54893 0.0077 0.0
C2134 C 0.48194 0.53505 0.00398 0.0
H2135 H 0.47164 0.5025 0.92576 0.0
H2136 H 0.46748 0.51175 0.96805 0.0
H2137 H 0.47634 0.52016 0.93022 0.0
H2138 H 0.51079 0.53736 0.95103 0.0
H2139 H 0.50589 0.56149 0.95742 0.0
H2140 H 0.03464 0.45157 0.52304 0.0
H2141 H 0.02975 0.47598 0.51787 0.0
H2142 H 0.99529 0.4672 0.44667 0.0
H2143 H 1.00002 0.44299 0.4515 0.0
H2144 H 0.02591 0.4937 0.45093 0.0
H2145 H 0.97945 0.48842 0.53908 0.0
H2146 H 0.99263 0.47568 0.53794 0.0
H2147 H 0.98061 0.47687 0.49982 0.0
C2148 C 0.02616 0.45485 0.50579 0.0
C2149 C 0.01762 0.44528 0.48813 0.0
C2150 C 0.02335 0.46879 0.50299 0.0
C2151 C 0.01197 0.47333 0.48259 0.0
C2152 C 0.00394 0.46387 0.46321 0.0
H2153 H 0.97227 0.55126 0.44356 0.0
H2154 H 0.97812 0.52704 0.44665 0.0
C2155 C 0.00671 0.45002 0.46596 0.0
C2156 C 0.00812 0.48789 0.48235 0.0
H2157 H 0.983 0.50976 0.50963 0.0
C2158 C 0.01659 0.49725 0.46394 0.0
C2159 C 0.99589 0.49245 0.49918 0.0
C2160 C 0.98665 0.48288 0.52042 0.0
C2161 C 0.01301 0.51103 0.46127 0.0
C2162 C 1.00078 0.5156 0.47815 0.0
C2163 C 0.99233 0.50623 0.4966 0.0
C2164 C 0.9968 0.53014 0.47781 0.0
C2165 C 0.02221 0.52054 0.4397 0.0
C2166 C 0.0051 0.53982 0.49539 0.0
C2167 C 0.0018 0.55359 0.49372 0.0
C2168 C 0.99005 0.55802 0.47462 0.0
C2169 C 0.9814 0.54823 0.45839 0.0
C2170 C 0.98476 0.53439 0.46004 0.0
H2171 H 0.02906 0.51494 0.42016 0.0
H2172 H 0.01622 0.52799 0.42303 0.0
H2173 H 0.02864 0.52625 0.46004 0.0
H2174 H 0.01425 0.53674 0.51013 0.0
H2175 H 0.00862 0.56078 0.50705 0.0
H2176 H 0.07846 0.09009 0.07615 0.0
H2177 H 0.09867 0.09996 0.10714 0.0
H2178 H 0.07985 0.13947 0.1042 0.0
H2179 H 0.05996 0.12987 0.07324 0.0
H2180 H 0.11461 0.12476 0.07428 0.0
H2181 H 0.09314 0.1324 0.21767 0.0
H2182 H 0.08704 0.11942 0.18563 0.0
H2183 H 0.08168 0.13676 0.17996 0.0
C2184 C 0.07864 0.10085 0.08244 0.0
C2185 C 0.06765 0.10921 0.07216 0.0
C2186 C 0.09017 0.10646 0.10001 0.0
C2187 C 0.09067 0.12042 0.10813 0.0
C2188 C 0.07961 0.12866 0.09846 0.0
H2189 H 0.12339 0.19255 0.15964 0.0
H2190 H 0.11235 0.17116 0.14444 0.0
C2191 C 0.06826 0.12315 0.08061 0.0
C2192 C 0.10279 0.12691 0.12516 0.0
H2193 H 0.11089 0.14788 0.19858 0.0
C2194 C 0.11411 0.12944 0.10203 0.0
C2195 C 0.10208 0.13296 0.16136 0.0
C2196 C 0.09039 0.13016 0.18781 0.0
C2197 C 0.12406 0.13898 0.11272 0.0
C2198 C 0.12259 0.14603 0.14733 0.0
C2199 C 0.11197 0.1425 0.17195 0.0
C2200 C 0.13008 0.15879 0.15507 0.0
C2201 C 0.13538 0.14237 0.08559 0.0
C2202 C 0.14386 0.15895 0.16558 0.0
C2203 C 0.1503 0.17132 0.17428 0.0
C2204 C 0.143 0.1836 0.17273 0.0
C2205 C 0.12931 0.1833 0.1614 0.0
C2206 C 0.12296 0.17106 0.15271 0.0
H2207 H 0.13516 0.1359 0.05984 0.0
H2208 H 0.13461 0.15318 0.0769 0.0
H2209 H 0.14533 0.14101 0.09987 0.0
H2210 H 0.14951 0.14955 0.16773 0.0
H2211 H 0.16084 0.17124 0.18306 0.0
H2212 H 0.16642 0.82623 0.35008 0.0
H2213 H 0.15716 0.84727 0.37757 0.0
H2214 H 0.11974 0.84095 0.31648 0.0
H2215 H 0.12888 0.82033 0.28877 0.0
H2216 H 0.12831 0.86788 0.3153 0.0
H2217 H 0.12842 0.84662 0.46165 0.0
H2218 H 0.14429 0.84752 0.43652 0.0
H2219 H 0.13132 0.836 0.42084 0.0
C2220 C 0.15628 0.82945 0.3423 0.0
C2221 C 0.14834 0.82155 0.31752 0.0
C2222 C 0.15099 0.84142 0.35812 0.0
C2223 C 0.1377 0.84561 0.34936 0.0
C2224 C 0.13002 0.83795 0.32362 0.0
H2225 H 0.06767 0.87256 0.43976 0.0
H2226 H 0.08933 0.86298 0.42083 0.0
C2227 C 0.13525 0.82609 0.30793 0.0
C2228 C 0.13109 0.85738 0.36812 0.0
H2229 H 0.11506 0.86576 0.45052 0.0
C2230 C 0.12568 0.86768 0.34512 0.0
C2231 C 0.12774 0.85709 0.40706 0.0
C2232 C 0.13316 0.84622 0.43312 0.0
C2233 C 0.11599 0.87688 0.35909 0.0
C2234 C 0.11181 0.87588 0.3973 0.0
C2235 C 0.11825 0.86645 0.42119 0.0
C2236 C 0.09908 0.88236 0.4109 0.0
C2237 C 0.10943 0.88677 0.33203 0.0
C2238 C 0.09732 0.89653 0.41192 0.0
C2239 C 0.08474 0.90211 0.42248 0.0
C2240 C 0.07383 0.89358 0.43244 0.0
C2241 C 0.07582 0.87945 0.43222 0.0
C2242 C 0.08825 0.87393 0.42155 0.0
H2243 H 0.11278 0.88516 0.30233 0.0
H2244 H 0.0982 0.88582 0.3332 0.0
H2245 H 0.11214 0.89729 0.34035 0.0
H2246 H 0.10559 0.90324 0.40433 0.0
H2247 H 0.08353 0.91305 0.42264 0.0
H2248 H 0.33955 0.82625 0.63706 0.0
H2249 H 0.34972 0.84721 0.61181 0.0
H2250 H 0.38656 0.8389 0.67374 0.0
H2251 H 0.3765 0.8183 0.69934 0.0
H2252 H 0.37929 0.86627 0.67535 0.0
H2253 H 0.37871 0.84529 0.52869 0.0
H2254 H 0.36274 0.84678 0.55304 0.0
H2255 H 0.37518 0.8348 0.56936 0.0
C2256 C 0.34975 0.82903 0.64563 0.0
C2257 C 0.35728 0.82055 0.66986 0.0
C2258 C 0.35556 0.84096 0.63107 0.0
C2259 C 0.36897 0.84452 0.64053 0.0
C2260 C 0.37621 0.83636 0.66605 0.0
H2261 H 0.43963 0.87169 0.54923 0.0
H2262 H 0.41835 0.86173 0.57022 0.0
C2263 C 0.37045 0.82453 0.68051 0.0
C2264 C 0.37613 0.85604 0.62223 0.0
H2265 H 0.39216 0.8644 0.53977 0.0
C2266 C 0.38185 0.86611 0.64549 0.0
C2267 C 0.37944 0.85578 0.58326 0.0
C2268 C 0.37379 0.84508 0.55699 0.0
C2269 C 0.39164 0.87522 0.63152 0.0
C2270 C 0.39563 0.87432 0.59315 0.0
C2271 C 0.38906 0.86503 0.56919 0.0
C2272 C 0.40819 0.88095 0.57913 0.0
C2273 C 0.39843 0.88495 0.65855 0.0
C2274 C 0.40957 0.89514 0.57699 0.0
C2275 C 0.42189 0.90094 0.56509 0.0
C2276 C 0.43293 0.8926 0.55505 0.0
C2277 C 0.43136 0.87843 0.55674 0.0
C2278 C 0.41916 0.87269 0.56863 0.0
H2279 H 0.39511 0.88337 0.68829 0.0
H2280 H 0.40964 0.8838 0.65715 0.0
H2281 H 0.39593 0.89554 0.65034 0.0
H2282 H 0.40118 0.9017 0.58456 0.0
H2283 H 0.42279 0.91189 0.56391 0.0
H2284 H 0.43377 0.12988 0.94764 0.0
H2285 H 0.41261 0.13898 0.92302 0.0
H2286 H 0.40388 0.10064 0.8692 0.0
H2287 H 0.42535 0.09135 0.89396 0.0
H2288 H 0.4016 0.12248 0.82055 0.0
H2289 H 0.37299 0.13354 0.95088 0.0
H2290 H 0.39 0.13987 0.95494 0.0
H2291 H 0.38715 0.12186 0.95002 0.0
C2292 C 0.4273 0.12327 0.93102 0.0
C2293 C 0.43126 0.10989 0.92267 0.0
C2294 C 0.4151 0.12847 0.91727 0.0
C2295 C 0.4065 0.12043 0.89488 0.0
C2296 C 0.41028 0.10696 0.88686 0.0
H2297 H 0.33951 0.17407 0.82208 0.0
H2298 H 0.34946 0.15236 0.84281 0.0
C2299 C 0.42253 0.10167 0.90099 0.0
C2300 C 0.39447 0.12685 0.87694 0.0
H2301 H 0.36892 0.14905 0.89766 0.0
C2302 C 0.39418 0.12796 0.83734 0.0
C2303 C 0.38455 0.13376 0.89862 0.0
C2304 C 0.3836 0.13206 0.94096 0.0
C2305 C 0.3852 0.13695 0.81927 0.0
C2306 C 0.37651 0.14519 0.84145 0.0
C2307 C 0.37576 0.14295 0.88063 0.0
C2308 C 0.36993 0.15752 0.82566 0.0
C2309 C 0.38561 0.13804 0.7767 0.0
C2310 C 0.37813 0.16762 0.80945 0.0
C2311 C 0.37254 0.17994 0.7979 0.0
C2312 C 0.35859 0.18252 0.80244 0.0
C2313 C 0.35028 0.17234 0.81808 0.0
C2314 C 0.35594 0.15995 0.8299 0.0
H2315 H 0.38838 0.12814 0.7637 0.0
H2316 H 0.37568 0.14139 0.76505 0.0
H2317 H 0.39349 0.14553 0.7684 0.0
H2318 H 0.389 0.16618 0.80686 0.0
H2319 H 0.37925 0.18755 0.78603 0.0
H2320 H 0.83922 0.83061 0.83602 0.0
H2321 H 0.84886 0.85229 0.85845 0.0
H2322 H 0.8889 0.83863 0.82681 0.0
H2323 H 0.87951 0.81731 0.80443 0.0
H2324 H 0.8687 0.85659 0.91469 0.0
H2325 H 0.88708 0.87607 0.7777 0.0
H2326 H 0.87437 0.86286 0.7811 0.0
H2327 H 0.89218 0.85875 0.78404 0.0
C2328 C 0.85006 0.83231 0.83372 0.0
C2329 C 0.85858 0.82226 0.81826 0.0
C2330 C 0.85554 0.84469 0.84644 0.0
C2331 C 0.86956 0.8472 0.8434 0.0
C2332 C 0.87801 0.8371 0.8284 0.0
H2333 H 0.93368 0.8772 0.95853 0.0
H2334 H 0.91218 0.86776 0.93737 0.0
C2335 C 0.87261 0.82483 0.81589 0.0
C2336 C 0.87585 0.8599 0.85778 0.0
H2337 H 0.90035 0.88279 0.83326 0.0
C2338 C 0.87531 0.86261 0.89674 0.0
C2339 C 0.88422 0.86803 0.83434 0.0
C2340 C 0.88437 0.86637 0.7919 0.0
C2341 C 0.88406 0.8722 0.91333 0.0
C2342 C 0.89372 0.879 0.89044 0.0
C2343 C 0.89314 0.8774 0.851 0.0
C2344 C 0.90584 0.88577 0.90696 0.0
C2345 C 0.88333 0.87446 0.9555 0.0
C2346 C 0.9096 0.89904 0.89658 0.0
C2347 C 0.92205 0.9045 0.90866 0.0
C2348 C 0.931 0.89665 0.93066 0.0
C2349 C 0.92704 0.88352 0.94158 0.0
C2350 C 0.91463 0.87815 0.92985 0.0
H2351 H 0.87278 0.87309 0.96598 0.0
H2352 H 0.88982 0.86686 0.97001 0.0
H2353 H 0.88691 0.88479 0.96336 0.0
H2354 H 0.90305 0.90504 0.87848 0.0
H2355 H 0.92487 0.91464 0.89967 0.0
H2356 H 0.93552 0.09918 0.61844 0.0
H2357 H 0.91511 0.11114 0.64055 0.0
H2358 H 0.90555 0.12212 0.52526 0.0
H2359 H 0.92626 0.11087 0.5037 0.0
H2360 H 0.90685 0.14358 0.5661 0.0
H2361 H 0.87471 0.10693 0.64378 0.0
H2362 H 0.89183 0.10688 0.66115 0.0
H2363 H 0.88843 0.10158 0.61326 0.0
C2364 C 0.92879 0.10381 0.5979 0.0
C2365 C 0.93237 0.10417 0.55948 0.0
C2366 C 0.91708 0.11058 0.61045 0.0
C2367 C 0.90867 0.11749 0.58456 0.0
C2368 C 0.91184 0.11691 0.54582 0.0
H2369 H 0.84251 0.17549 0.64044 0.0
H2370 H 0.85371 0.15525 0.61353 0.0
C2371 C 0.92365 0.11047 0.53349 0.0
C2372 C 0.89799 0.12709 0.59788 0.0
H2373 H 0.87104 0.13077 0.65823 0.0
C2374 C 0.89885 0.14064 0.58556 0.0
C2375 C 0.88749 0.12335 0.6233 0.0
C2376 C 0.88546 0.10886 0.63581 0.0
C2377 C 0.88994 0.1506 0.59906 0.0
C2378 C 0.88002 0.14704 0.62614 0.0
C2379 C 0.87871 0.13345 0.63748 0.0
C2380 C 0.87222 0.15776 0.64583 0.0
C2381 C 0.89154 0.16504 0.58543 0.0
C2382 C 0.87885 0.16563 0.67318 0.0
C2383 C 0.87262 0.17714 0.68806 0.0
C2384 C 0.85956 0.18102 0.67612 0.0
C2385 C 0.85259 0.17274 0.65011 0.0
C2386 C 0.85893 0.16118 0.63486 0.0
H2387 H 0.89788 0.16568 0.55947 0.0
H2388 H 0.88146 0.16963 0.57947 0.0
H2389 H 0.89648 0.17118 0.60791 0.0
H2390 H 0.8891 0.16314 0.68191 0.0
H2391 H 0.87821 0.1832 0.70838 0.0
H2392 H 0.62397 0.18268 0.27789 0.0
H2393 H 0.61377 0.16237 0.30506 0.0
H2394 H 0.65099 0.15365 0.36452 0.0
H2395 H 0.66146 0.17414 0.33694 0.0
H2396 H 0.63425 0.12958 0.32708 0.0
H2397 H 0.60645 0.16385 0.42487 0.0
H2398 H 0.60603 0.16893 0.37599 0.0
H2399 H 0.62191 0.16884 0.40108 0.0
C2400 C 0.6301 0.17637 0.2963 0.0
C2401 C 0.64347 0.1801 0.30567 0.0
C2402 C 0.62426 0.16473 0.31167 0.0
C2403 C 0.63159 0.1566 0.33695 0.0
C2404 C 0.6452 0.15982 0.34495 0.0
H2405 H 0.57799 0.1093 0.47955 0.0
H2406 H 0.59889 0.12073 0.45993 0.0
C2407 C 0.65114 0.17151 0.32927 0.0
C2408 C 0.62435 0.1457 0.35758 0.0
H2409 H 0.59779 0.14148 0.41813 0.0
C2410 C 0.62644 0.13207 0.34758 0.0
C2411 C 0.61433 0.149 0.38466 0.0
C2412 C 0.61208 0.16344 0.39763 0.0
C2413 C 0.61821 0.12168 0.36269 0.0
C2414 C 0.60747 0.12513 0.38767 0.0
C2415 C 0.60595 0.13873 0.39897 0.0
C2416 C 0.59704 0.11522 0.40077 0.0
C2417 C 0.62107 0.10718 0.35151 0.0
C2418 C 0.58934 0.10769 0.37451 0.0
C2419 C 0.57759 0.10078 0.38605 0.0
C2420 C 0.5732 0.10163 0.42374 0.0
C2421 C 0.58125 0.10849 0.45033 0.0
C2422 C 0.59316 0.11504 0.43907 0.0
H2423 H 0.63202 0.10572 0.34507 0.0
H2424 H 0.61807 0.09996 0.37414 0.0
H2425 H 0.61527 0.10472 0.32546 0.0
H2426 H 0.59182 0.10793 0.34467 0.0
H2427 H 0.57137 0.09574 0.36499 0.0
H2428 H 0.58067 0.91486 0.06122 0.0
H2429 H 0.60262 0.90431 0.07738 0.0
H2430 H 0.58532 0.86468 0.05772 0.0
H2431 H 0.56371 0.87498 0.04144 0.0
H2432 H 0.60795 0.88606 0.13525 0.0
H2433 H 0.62059 0.86218 -0.0013 0.0
H2434 H 0.60828 0.87572 0.0027 0.0
H2435 H 0.60339 0.85836 0.01154 0.0
C2436 C 0.58163 0.90391 0.06004 0.0
C2437 C 0.57046 0.89576 0.04993 0.0
C2438 C 0.59416 0.89791 0.06917 0.0
C2439 C 0.59571 0.88372 0.06782 0.0
C2440 C 0.58453 0.87566 0.05781 0.0
H2441 H 0.62607 0.82151 0.18946 0.0
H2442 H 0.61669 0.84223 0.16298 0.0
C2443 C 0.5721 0.88159 0.04886 0.0
C2444 C 0.60847 0.87694 0.07983 0.0
H2445 H 0.62873 0.85022 0.05528 0.0
C2446 C 0.6128 0.87852 0.11742 0.0
C2447 C 0.61507 0.8673 0.05642 0.0
C2448 C 0.61168 0.86591 0.01496 0.0
C2449 C 0.62244 0.86969 0.13328 0.0
C2450 C 0.6277 0.85892 0.11115 0.0
C2451 C 0.62453 0.85832 0.07248 0.0
C2452 C 0.63433 0.84698 0.12892 0.0
C2453 C 0.62635 0.87148 0.17425 0.0
C2454 C 0.64734 0.84256 0.11807 0.0
C2455 C 0.65281 0.83057 0.13336 0.0
C2456 C 0.6452 0.82273 0.15904 0.0
C2457 C 0.63222 0.82727 0.16977 0.0
C2458 C 0.62687 0.83922 0.15491 0.0
H2459 H 0.62559 0.8823 0.18292 0.0
H2460 H 0.61928 0.86553 0.19227 0.0
H2461 H 0.63686 0.86785 0.17961 0.0
H2462 H 0.65319 0.84832 0.09762 0.0
H2463 H 0.66281 0.82728 0.12445 0.0
H2464 H 0.56473 0.62806 0.56304 0.0
H2465 H 0.58609 0.63768 0.58484 0.0
H2466 H 0.60231 0.59749 0.60177 0.0
H2467 H 0.58066 0.58758 0.57954 0.0
H2468 H 0.60373 0.62334 0.66544 0.0
H2469 H 0.6251 0.63042 0.52116 0.0
H2470 H 0.60705 0.6329 0.52605 0.0
H2471 H 0.61414 0.61632 0.53344 0.0
C2472 C 0.57278 0.62119 0.57141 0.0
C2473 C 0.57102 0.60704 0.5693 0.0
C2474 C 0.58499 0.62673 0.58386 0.0
C2475 C 0.59578 0.6183 0.59447 0.0
C2476 C 0.59407 0.60414 0.59347 0.0
H2477 H 0.66521 0.67163 0.65972 0.0
H2478 H 0.65514 0.6497 0.64046 0.0
C2479 C 0.58173 0.59852 0.58091 0.0
C2480 C 0.60866 0.62478 0.60624 0.0
H2481 H 0.63298 0.6457 0.56938 0.0
C2482 C 0.61052 0.6278 0.64467 0.0
C2483 C 0.61745 0.6306 0.57905 0.0
C2484 C 0.61596 0.62736 0.53755 0.0
C2485 C 0.62014 0.6375 0.65618 0.0
C2486 C 0.62794 0.64437 0.62854 0.0
C2487 C 0.62699 0.6404 0.59052 0.0
C2488 C 0.6346 0.65744 0.63761 0.0
C2489 C 0.62111 0.64125 0.69747 0.0
C2490 C 0.62643 0.66899 0.64134 0.0
C2491 C 0.63207 0.68136 0.65215 0.0
C2492 C 0.64606 0.68251 0.65941 0.0
C2493 C 0.6544 0.67104 0.65423 0.0
C2494 C 0.64868 0.65853 0.6434 0.0
H2495 H 0.61678 0.6332 0.71595 0.0
H2496 H 0.63185 0.64307 0.70565 0.0
H2497 H 0.61537 0.65078 0.70246 0.0
H2498 H 0.61557 0.66835 0.63658 0.0
H2499 H 0.62537 0.69 0.65549 0.0
H2500 H 0.5795 0.4152 0.89693 0.0
H2501 H 0.60104 0.40561 0.87343 0.0
H2502 H 0.5875 0.36551 0.90505 0.0
H2503 H 0.56636 0.37488 0.92873 0.0
H2504 H 0.61439 0.37145 0.9277 0.0
H2505 H 0.6053 0.38301 0.77522 0.0
H2506 H 0.6046 0.39663 0.80915 0.0
H2507 H 0.59171 0.38375 0.80946 0.0
C2508 C 0.58117 0.40435 0.89881 0.0
C2509 C 0.57121 0.3958 0.91465 0.0
C2510 C 0.59345 0.39889 0.88534 0.0
C2511 C 0.59586 0.38483 0.88743 0.0
C2512 C 0.58592 0.37639 0.90338 0.0
H2513 H 0.62524 0.31837 0.78418 0.0
H2514 H 0.6156 0.33964 0.80617 0.0
C2515 C 0.57378 0.38179 0.9168 0.0
C2516 C 0.60841 0.37843 0.87246 0.0
H2517 H 0.62208 0.36701 0.78959 0.0
C2518 C 0.61639 0.37076 0.89756 0.0
C2519 C 0.61098 0.37761 0.83315 0.0
C2520 C 0.60272 0.38562 0.80496 0.0
C2521 C 0.62597 0.36133 0.88425 0.0
C2522 C 0.62773 0.35969 0.84478 0.0
C2523 C 0.62068 0.36829 0.81984 0.0
C2524 C 0.63445 0.34745 0.82895 0.0
C2525 C 0.63319 0.35232 0.91235 0.0
C2526 C 0.64837 0.34479 0.83401 0.0
C2527 C 0.65398 0.33246 0.82146 0.0
C2528 C 0.64571 0.32266 0.80377 0.0
C2529 C 0.6319 0.32562 0.79788 0.0
C2530 C 0.62637 0.33784 0.81026 0.0
H2531 H 0.62979 0.35416 0.9419 0.0
H2532 H 0.63142 0.34147 0.90534 0.0
H2533 H 0.64429 0.35423 0.91087 0.0
H2534 H 0.65483 0.35213 0.84806 0.0
H2535 H 0.66466 0.33049 0.82625 0.0
H2536 H 0.87428 0.32169 0.20681 0.0
H2537 H 0.88436 0.34231 0.18176 0.0
H2538 H 0.84854 0.34954 0.1144 0.0
H2539 H 0.83827 0.32855 0.13955 0.0
H2540 H 0.87201 0.35129 0.0729 0.0
H2541 H 0.87794 0.38226 0.20146 0.0
H2542 H 0.88417 0.36545 0.21007 0.0
H2543 H 0.86645 0.36796 0.19924 0.0
C2544 C 0.86841 0.32771 0.18704 0.0
C2545 C 0.85547 0.32346 0.17511 0.0
C2546 C 0.87416 0.33962 0.17303 0.0
C2547 C 0.86711 0.34766 0.1468 0.0
C2548 C 0.85408 0.34358 0.13504 0.0
H2549 H 0.92245 0.41424 0.07939 0.0
H2550 H 0.9007 0.40397 0.09865 0.0
C2551 C 0.84823 0.33162 0.14939 0.0
C2552 C 0.87423 0.35938 0.12924 0.0
H2553 H 0.89554 0.3854 0.15289 0.0
C2554 C 0.87684 0.359 0.0902 0.0
C2555 C 0.8803 0.3697 0.15146 0.0
C2556 C 0.87693 0.37146 0.19281 0.0
C2557 C 0.88644 0.36774 0.07366 0.0
C2558 C 0.89383 0.37684 0.09693 0.0
C2559 C 0.89014 0.37821 0.13512 0.0
C2560 C 0.90653 0.38347 0.08358 0.0
C2561 C 0.88896 0.36672 0.03163 0.0
C2562 C 0.9171 0.37536 0.06949 0.0
C2563 C 0.9294 0.38116 0.05853 0.0
C2564 C 0.93156 0.39522 0.06184 0.0
C2565 C 0.92107 0.40339 0.07639 0.0
C2566 C 0.90864 0.39754 0.0873 0.0
H2567 H 0.87953 0.36376 0.01641 0.0
H2568 H 0.89272 0.37646 0.01977 0.0
H2569 H 0.89665 0.35871 0.02621 0.0
H2570 H 0.91593 0.36444 0.0676 0.0
H2571 H 0.93729 0.37452 0.04783 0.0
H2572 H 0.92273 0.58784 0.41061 0.0
H2573 H 0.90088 0.59728 0.38841 0.0
H2574 H 0.91815 0.63751 0.39008 0.0
H2575 H 0.93967 0.62836 0.41217 0.0
H2576 H 0.88748 0.62664 0.43135 0.0
H2577 H 0.89872 0.62414 0.27727 0.0
H2578 H 0.90474 0.61149 0.31043 0.0
H2579 H 0.91278 0.62783 0.30828 0.0
C2580 C 0.92183 0.59868 0.40611 0.0
C2581 C 0.93291 0.60736 0.41328 0.0
C2582 C 0.90937 0.60404 0.39358 0.0
C2583 C 0.90796 0.61808 0.38782 0.0
C2584 C 0.91904 0.62666 0.39456 0.0
H2585 H 0.87745 0.68894 0.32325 0.0
H2586 H 0.8875 0.66756 0.34316 0.0
C2587 C 0.93135 0.62138 0.40721 0.0
C2588 C 0.89513 0.62428 0.37468 0.0
H2589 H 0.88296 0.64111 0.29749 0.0
C2590 C 0.88607 0.62939 0.40188 0.0
C2591 C 0.89344 0.62787 0.33629 0.0
C2592 C 0.90286 0.6225 0.30618 0.0
C2593 C 0.87614 0.63903 0.39202 0.0
C2594 C 0.87536 0.64362 0.35419 0.0
C2595 C 0.88357 0.63754 0.32649 0.0
C2596 C 0.86851 0.65654 0.34441 0.0
C2597 C 0.86742 0.64522 0.42254 0.0
C2598 C 0.85439 0.65748 0.33923 0.0
C2599 C 0.84852 0.66985 0.32785 0.0
C2600 C 0.85675 0.68131 0.32135 0.0
C2601 C 0.87081 0.6803 0.32766 0.0
C2602 C 0.8766 0.66808 0.33904 0.0
H2603 H 0.86863 0.63995 0.45014 0.0
H2604 H 0.87019 0.65608 0.42621 0.0
H2605 H 0.85657 0.64481 0.41406 0.0
H2606 H 0.848 0.64864 0.34323 0.0
H2607 H 0.83766 0.67033 0.32312 0.0
H2608 H 0.3397 0.32919 0.32404 0.0
H2609 H 0.34972 0.35126 0.34124 0.0
H2610 H 0.38856 0.33778 0.29899 0.0
H2611 H 0.37869 0.31614 0.28119 0.0
H2612 H 0.36915 0.35578 0.39174 0.0
H2613 H 0.38783 0.3752 0.25555 0.0
H2614 H 0.37555 0.36158 0.2583 0.0
H2615 H 0.39352 0.35805 0.26113 0.0
C2616 C 0.35031 0.33108 0.3178 0.0
C2617 C 0.35839 0.32091 0.30123 0.0
C2618 C 0.35602 0.34368 0.32759 0.0
C2619 C 0.36984 0.34634 0.32062 0.0
C2620 C 0.37779 0.33623 0.30352 0.0
H2621 H 0.43378 0.37477 0.44 0.0
H2622 H 0.41298 0.36548 0.41386 0.0
C2623 C 0.37213 0.32374 0.29374 0.0
C2624 C 0.37659 0.35885 0.33496 0.0
H2625 H 0.40176 0.38119 0.31136 0.0
C2626 C 0.37596 0.36162 0.37391 0.0
C2627 C 0.38525 0.3668 0.3118 0.0
C2628 C 0.38543 0.36533 0.26931 0.0
C2629 C 0.38484 0.371 0.39077 0.0
C2630 C 0.39477 0.37755 0.36825 0.0
C2631 C 0.39436 0.37595 0.3288 0.0
C2632 C 0.40692 0.38399 0.38553 0.0
C2633 C 0.384 0.37326 0.43293 0.0
C2634 C 0.41067 0.39748 0.37763 0.0
C2635 C 0.42274 0.40291 0.39267 0.0
C2636 C 0.43131 0.3948 0.41518 0.0
C2637 C 0.42746 0.38133 0.42282 0.0
C2638 C 0.41546 0.37601 0.40817 0.0
H2639 H 0.37343 0.37189 0.44325 0.0
H2640 H 0.39047 0.36567 0.44756 0.0
H2641 H 0.38757 0.38359 0.44082 0.0
H2642 H 0.40431 0.40376 0.35976 0.0
H2643 H 0.42548 0.4133 0.38616 0.0
H2644 H 0.33965 0.67077 0.167 0.0
H2645 H 0.3497 0.64875 0.14884 0.0
H2646 H 0.38976 0.66617 0.15769 0.0
H2647 H 0.38 0.6879 0.17535 0.0
H2648 H 0.36983 0.64389 0.0846 0.0
H2649 H 0.3901 0.63105 0.22626 0.0
H2650 H 0.37579 0.64232 0.21944 0.0
H2651 H 0.39286 0.64849 0.21345 0.0
C2652 C 0.35059 0.66987 0.16492 0.0
C2653 C 0.35903 0.68107 0.17281 0.0
C2654 C 0.35629 0.6573 0.15469 0.0
C2655 C 0.37047 0.65581 0.15272 0.0
C2656 C 0.37881 0.66705 0.15983 0.0
H2657 H 0.4387 0.62868 0.06518 0.0
H2658 H 0.41756 0.63744 0.09103 0.0
C2659 C 0.37318 0.67951 0.16976 0.0
C2660 C 0.377 0.64281 0.14209 0.0
H2661 H 0.40277 0.62234 0.17234 0.0
C2662 C 0.37664 0.63876 0.10404 0.0
C2663 C 0.38581 0.63608 0.16755 0.0
C2664 C 0.38609 0.63961 0.20908 0.0
C2665 C 0.38597 0.6292 0.09004 0.0
C2666 C 0.39581 0.62367 0.11471 0.0
C2667 C 0.3952 0.62662 0.15347 0.0
C2668 C 0.40847 0.61769 0.09959 0.0
C2669 C 0.38611 0.62597 0.04834 0.0
C2670 C 0.4104 0.60361 0.09637 0.0
C2671 C 0.42261 0.59849 0.08146 0.0
C2672 C 0.43296 0.60743 0.06972 0.0
C2673 C 0.43094 0.62149 0.07366 0.0
C2674 C 0.41885 0.62654 0.08843 0.0
H2675 H 0.37646 0.62896 0.03432 0.0
H2676 H 0.39459 0.63155 0.03464 0.0
H2677 H 0.38785 0.61494 0.04382 0.0
H2678 H 0.40246 0.59665 0.10503 0.0
H2679 H 0.42388 0.58761 0.07871 0.0
H2680 H 0.08282 0.59033 0.89378 0.0
H2681 H 0.10486 0.60012 0.87479 0.0
H2682 H 0.09211 0.63918 0.91699 0.0
H2683 H 0.07039 0.62966 0.93572 0.0
H2684 H 0.10879 0.62233 0.82371 0.0
H2685 H 0.12998 0.63465 0.96412 0.0
H2686 H 0.11679 0.62207 0.95753 0.0
H2687 H 0.11256 0.63984 0.96076 0.0
C2688 C 0.0848 0.60097 0.89919 0.0
C2689 C 0.07486 0.60921 0.91629 0.0
C2690 C 0.09739 0.60652 0.88847 0.0
C2691 C 0.10023 0.62029 0.89537 0.0
C2692 C 0.09029 0.62845 0.91238 0.0
H2693 H 0.12548 0.69015 0.81463 0.0
H2694 H 0.11728 0.66838 0.83757 0.0
C2695 C 0.07779 0.62299 0.92274 0.0
C2696 C 0.11297 0.62681 0.88224 0.0
H2697 H 0.13608 0.65028 0.91256 0.0
C2698 C 0.11515 0.62802 0.84314 0.0
C2699 C 0.1214 0.63412 0.90756 0.0
C2700 C 0.12015 0.63249 0.94986 0.0
C2701 C 0.12439 0.63759 0.82876 0.0
C2702 C 0.13151 0.6461 0.85412 0.0
C2703 C 0.13051 0.64379 0.89316 0.0
C2704 C 0.13717 0.65919 0.84107 0.0
C2705 C 0.1256 0.63943 0.78654 0.0
C2706 C 0.15117 0.6613 0.83622 0.0
C2707 C 0.15597 0.67388 0.82293 0.0
C2708 C 0.14679 0.68442 0.81458 0.0
C2709 C 0.13284 0.68225 0.82046 0.0
C2710 C 0.1281 0.66979 0.83355 0.0
H2711 H 0.12205 0.63029 0.77093 0.0
H2712 H 0.11928 0.64821 0.77768 0.0
H2713 H 0.13629 0.64162 0.77849 0.0
H2714 H 0.15831 0.6532 0.84214 0.0
H2715 H 0.16678 0.67526 0.81863 0.0
H2716 H 0.06189 0.37318 0.56941 0.0
H2717 H 0.08299 0.36288 0.59051 0.0
H2718 H 0.1031 0.40173 0.58447 0.0
H2719 H 0.08169 0.41232 0.56324 0.0
H2720 H 0.1086 0.36405 0.54706 0.0
H2721 H 0.11196 0.38521 0.69319 0.0
H2722 H 0.09588 0.38445 0.66864 0.0
H2723 H 0.10862 0.39627 0.65355 0.0
C2724 C 0.07074 0.37962 0.57265 0.0
C2725 C 0.07012 0.39358 0.56447 0.0
C2726 C 0.08281 0.37369 0.5847 0.0
C2727 C 0.09459 0.38152 0.58892 0.0
C2728 C 0.09406 0.39554 0.58153 0.0
H2729 H 0.16271 0.32486 0.63415 0.0
H2730 H 0.15262 0.34623 0.61142 0.0
C2731 C 0.08186 0.40155 0.56944 0.0
C2732 C 0.10728 0.37454 0.60032 0.0
H2733 H 0.12555 0.36625 0.67909 0.0
C2734 C 0.11265 0.36477 0.57556 0.0
C2735 C 0.11245 0.37554 0.63751 0.0
C2736 C 0.10699 0.3859 0.66501 0.0
C2737 C 0.12225 0.35522 0.58794 0.0
C2738 C 0.12671 0.35558 0.626 0.0
C2739 C 0.12213 0.36603 0.64991 0.0
C2740 C 0.13394 0.34386 0.64305 0.0
C2741 C 0.12663 0.3441 0.56117 0.0
C2742 C 0.12697 0.33573 0.66921 0.0
C2743 C 0.13265 0.32361 0.68207 0.0
C2744 C 0.14548 0.31938 0.66923 0.0
C2745 C 0.15279 0.32785 0.64444 0.0
C2746 C 0.14703 0.34002 0.63137 0.0
H2747 H 0.12109 0.34448 0.53379 0.0
H2748 H 0.13765 0.3451 0.55526 0.0
H2749 H 0.12491 0.33398 0.57424 0.0
H2750 H 0.11686 0.33848 0.67855 0.0
H2751 H 0.1268 0.31738 0.7014 0.0
loop_
_geom_bond_atom_site_label_1
_geom_bond_atom_site_label_2
_geom_bond_distance
_geom_bond_site_symmetry_2
_ccdc_geom_bond_type
Co0 O1 2.216 . S
Co0 O2 2.091 . S
Co0 O4 2.004 . S
Co0 O10 2.021 . S
Co0 O12 2.137 1_554 S
Co0 O13 2.244 . S
O1 Co0 2.216 . S
O1 C8 1.247 . S
O2 Co0 2.091 . S
O2 C8 1.261 . S
C3 O12 1.247 . S
C3 O13 1.272 1_556 S
O4 Co0 2.004 . S
O4 C9 1.259 . S
Co5 O6 2.061 1_655 S
Co5 O11 2.052 . S
Co5 O13 2.135 1_655 S
O6 Co5 2.061 1_455 S
O6 C9 1.235 . S
C7 O10 1.238 . S
C7 O11 1.241 1_455 S
C8 O1 1.247 . S
C8 O2 1.261 . S
C9 O4 1.259 . S
C9 O6 1.235 . S
O10 Co0 2.021 . S
O10 C7 1.238 . S
O11 Co5 2.052 . S
O11 C7 1.241 1_655 S
O12 Co0 2.137 1_556 S
O12 C3 1.247 . S
O13 Co0 2.244 . S
O13 C3 1.272 1_554 S
O13 Co5 2.135 1_455 S
Co14 O15 2.216 . S
Co14 O16 2.091 . S
Co14 O18 2.004 . S
Co14 O24 2.021 . S
Co14 O26 2.137 . S
Co14 O27 2.244 . S
O15 Co14 2.216 . S
O15 C22 1.247 . S
O16 Co14 2.091 . S
O16 C22 1.261 . S
C17 O26 1.247 . S
C17 O27 1.272 . S
O18 Co14 2.004 . S
O18 C23 1.259 . S
Co19 O20 2.061 . S
Co19 O25 2.052 . S
Co19 O27 2.135 . S
O20 Co19 2.061 . S
O20 C23 1.235 . S
C21 O24 1.238 . S
C21 O25 1.241 . S
C22 O15 1.247 . S
C22 O16 1.261 . S
C23 O18 1.259 . S
C23 O20 1.235 . S
O24 Co14 2.021 . S
O24 C21 1.238 . S
O25 Co19 2.052 . S
O25 C21 1.241 . S
O26 Co14 2.137 . S
O26 C17 1.247 . S
O27 Co14 2.244 . S
O27 C17 1.272 . S
O27 Co19 2.135 . S
Co28 O29 2.216 . S
Co28 O30 2.091 . S
Co28 O32 2.004 . S
Co28 O38 2.021 . S
Co28 O40 2.137 . S
Co28 O41 2.244 . S
O29 Co28 2.216 . S
O29 C36 1.247 . S
O30 Co28 2.091 . S
O30 C36 1.261 . S
C31 O40 1.247 . S
C31 O41 1.272 . S
O32 Co28 2.004 . S
O32 C37 1.259 . S
Co33 O34 2.061 . S
Co33 O39 2.052 . S
Co33 O41 2.135 . S
O34 Co33 2.061 . S
O34 C37 1.235 . S
C35 O38 1.238 . S
C35 O39 1.241 . S
C36 O29 1.247 . S
C36 O30 1.261 . S
C37 O32 1.259 . S
C37 O34 1.235 . S
O38 Co28 2.021 . S
O38 C35 1.238 . S
O39 Co33 2.052 . S
O39 C35 1.241 . S
O40 Co28 2.137 . S
O40 C31 1.247 . S
O41 Co28 2.244 . S
O41 C31 1.272 . S
O41 Co33 2.135 . S
Co42 O43 2.216 . S
Co42 O44 2.091 . S
Co42 O46 2.004 . S
Co42 O52 2.021 . S
Co42 O54 2.137 . S
Co42 O55 2.244 . S
O43 Co42 2.216 . S
O43 C50 1.247 . S
O44 Co42 2.091 . S
O44 C50 1.261 . S
C45 O54 1.247 . S
C45 O55 1.272 . S
O46 Co42 2.004 . S
O46 C51 1.259 . S
Co47 O48 2.061 . S
Co47 O53 2.052 . S
Co47 O55 2.135 . S
O48 Co47 2.061 . S
O48 C51 1.235 . S
C49 O52 1.238 . S
C49 O53 1.241 . S
C50 O43 1.247 . S
C50 O44 1.261 . S
C51 O46 1.259 . S
C51 O48 1.235 . S
O52 Co42 2.021 . S
O52 C49 1.238 . S
O53 Co47 2.052 . S
O53 C49 1.241 . S
O54 Co42 2.137 . S
O54 C45 1.247 . S
O55 Co42 2.244 . S
O55 C45 1.272 . S
O55 Co47 2.135 . S
Co56 O57 2.216 . S
Co56 O58 2.091 . S
Co56 O60 2.004 . S
Co56 O66 2.021 . S
Co56 O68 2.137 . S
Co56 O69 2.244 . S
O57 Co56 2.216 . S
O57 C64 1.247 . S
O58 Co56 2.091 . S
O58 C64 1.261 . S
C59 O68 1.247 . S
C59 O69 1.272 . S
O60 Co56 2.004 . S
O60 C65 1.259 . S
Co61 O62 2.061 1_655 S
Co61 O67 2.052 . S
Co61 O69 2.135 1_655 S
O62 Co61 2.061 1_455 S
O62 C65 1.235 . S
C63 O66 1.238 . S
C63 O67 1.241 1_455 S
C64 O57 1.247 . S
C64 O58 1.261 . S
C65 O60 1.259 . S
C65 O62 1.235 . S
O66 Co56 2.021 . S
O66 C63 1.238 . S
O67 Co61 2.052 . S
O67 C63 1.241 1_655 S
O68 Co56 2.137 . S
O68 C59 1.247 . S
O69 Co56 2.244 . S
O69 C59 1.272 . S
O69 Co61 2.135 1_455 S
Co70 O71 2.216 . S
Co70 O72 2.091 . S
Co70 O74 2.004 . S
Co70 O80 2.021 . S
Co70 O82 2.137 . S
Co70 O83 2.244 . S
O71 Co70 2.216 . S
O71 C78 1.247 . S
O72 Co70 2.091 . S
O72 C78 1.261 . S
C73 O82 1.247 . S
C73 O83 1.272 . S
O74 Co70 2.004 . S
O74 C79 1.259 . S
Co75 O76 2.061 . S
Co75 O81 2.052 . S
Co75 O83 2.135 . S
O76 Co75 2.061 . S
O76 C79 1.235 . S
C77 O80 1.238 . S
C77 O81 1.241 . S
C78 O71 1.247 . S
C78 O72 1.261 . S
C79 O74 1.259 . S
C79 O76 1.235 . S
O80 Co70 2.021 . S
O80 C77 1.238 . S
O81 Co75 2.052 . S
O81 C77 1.241 . S
O82 Co70 2.137 . S
O82 C73 1.247 . S
O83 Co70 2.244 . S
O83 C73 1.272 . S
O83 Co75 2.135 . S
Co84 O85 2.216 . S
Co84 O86 2.091 . S
Co84 O88 2.004 . S
Co84 O94 2.021 . S
Co84 O96 2.137 1_556 S
Co84 O97 2.244 . S
O85 Co84 2.216 . S
O85 C92 1.247 . S
O86 Co84 2.091 . S
O86 C92 1.261 . S
C87 O96 1.247 . S
C87 O97 1.272 1_554 S
O88 Co84 2.004 . S
O88 C93 1.259 . S
Co89 O90 2.061 . S
Co89 O95 2.052 . S
Co89 O97 2.135 . S
O90 Co89 2.061 . S
O90 C93 1.235 . S
C91 O94 1.238 . S
C91 O95 1.241 . S
C92 O85 1.247 . S
C92 O86 1.261 . S
C93 O88 1.259 . S
C93 O90 1.235 . S
O94 Co84 2.021 . S
O94 C91 1.238 . S
O95 Co89 2.052 . S
O95 C91 1.241 . S
O96 Co84 2.137 1_554 S
O96 C87 1.247 . S
O97 Co84 2.244 . S
O97 C87 1.272 1_556 S
O97 Co89 2.135 . S
Co98 O99 2.216 . S
Co98 O100 2.091 . S
Co98 O102 2.004 . S
Co98 O108 2.021 . S
Co98 O110 2.137 . S
Co98 O111 2.244 . S
O99 Co98 2.216 . S
O99 C106 1.247 . S
O100 Co98 2.091 . S
O100 C106 1.261 . S
C101 O110 1.247 . S
C101 O111 1.272 . S
O102 Co98 2.004 . S
O102 C107 1.259 . S
Co103 O104 2.061 . S
Co103 O109 2.052 . S
Co103 O111 2.135 . S
O104 Co103 2.061 . S
O104 C107 1.235 . S
C105 O108 1.238 . S
C105 O109 1.241 . S
C106 O99 1.247 . S
C106 O100 1.261 . S
C107 O102 1.259 . S
C107 O104 1.235 . S
O108 Co98 2.021 . S
O108 C105 1.238 . S
O109 Co103 2.052 . S
O109 C105 1.241 . S
O110 Co98 2.137 . S
O110 C101 1.247 . S
O111 Co98 2.244 . S
O111 C101 1.272 . S
O111 Co103 2.135 . S
Co112 O113 2.216 . S
Co112 O114 2.091 . S
Co112 O116 2.004 . S
Co112 O122 2.021 . S
Co112 O124 2.137 1_556 S
Co112 O125 2.244 . S
O113 Co112 2.216 . S
O113 C120 1.247 . S
O114 Co112 2.091 . S
O114 C120 1.261 . S
C115 O124 1.247 . S
C115 O125 1.272 1_554 S
O116 Co112 2.004 . S
O116 C121 1.259 . S
Co117 O118 2.061 1_455 S
Co117 O123 2.052 . S
Co117 O125 2.135 1_455 S
O118 Co117 2.061 1_655 S
O118 C121 1.235 . S
C119 O122 1.238 . S
C119 O123 1.241 1_655 S
C120 O113 1.247 . S
C120 O114 1.261 . S
C121 O116 1.259 . S
C121 O118 1.235 . S
O122 Co112 2.021 . S
O122 C119 1.238 . S
O123 Co117 2.052 . S
O123 C119 1.241 1_455 S
O124 Co112 2.137 1_554 S
O124 C115 1.247 . S
O125 Co112 2.244 . S
O125 C115 1.272 1_556 S
O125 Co117 2.135 1_655 S
Co126 O127 2.216 . S
Co126 O128 2.091 . S
Co126 O130 2.004 . S
Co126 O136 2.021 . S
Co126 O138 2.137 . S
Co126 O139 2.244 . S
O127 Co126 2.216 . S
O127 C134 1.247 . S
O128 Co126 2.091 . S
O128 C134 1.261 . S
C129 O138 1.247 . S
C129 O139 1.272 . S
O130 Co126 2.004 . S
O130 C135 1.259 . S
Co131 O132 2.061 . S
Co131 O137 2.052 . S
Co131 O139 2.135 . S
O132 Co131 2.061 . S
O132 C135 1.235 . S
C133 O136 1.238 . S
C133 O137 1.241 . S
C134 O127 1.247 . S
C134 O128 1.261 . S
C135 O130 1.259 . S
C135 O132 1.235 . S
O136 Co126 2.021 . S
O136 C133 1.238 . S
O137 Co131 2.052 . S
O137 C133 1.241 . S
O138 Co126 2.137 . S
O138 C129 1.247 . S
O139 Co126 2.244 . S
O139 C129 1.272 . S
O139 Co131 2.135 . S
Co140 O141 2.216 . S
Co140 O142 2.091 . S
Co140 O144 2.004 . S
Co140 O150 2.021 . S
Co140 O152 2.137 . S
Co140 O153 2.244 . S
O141 Co140 2.216 . S
O141 C148 1.247 . S
O142 Co140 2.091 . S
O142 C148 1.261 . S
C143 O152 1.247 . S
C143 O153 1.272 . S
O144 Co140 2.004 . S
O144 C149 1.259 . S
Co145 O146 2.061 . S
Co145 O151 2.052 . S
Co145 O153 2.135 . S
O146 Co145 2.061 . S
O146 C149 1.235 . S
C147 O150 1.238 . S
C147 O151 1.241 . S
C148 O141 1.247 . S
C148 O142 1.261 . S
C149 O144 1.259 . S
C149 O146 1.235 . S
O150 Co140 2.021 . S
O150 C147 1.238 . S
O151 Co145 2.052 . S
O151 C147 1.241 . S
O152 Co140 2.137 . S
O152 C143 1.247 . S
O153 Co140 2.244 . S
O153 C143 1.272 . S
O153 Co145 2.135 . S
Co154 O155 2.216 . S
Co154 O156 2.091 . S
Co154 O158 2.004 . S
Co154 O164 2.021 . S
Co154 O166 2.137 . S
Co154 O167 2.244 . S
O155 Co154 2.216 . S
O155 C162 1.247 . S
O156 Co154 2.091 . S
O156 C162 1.261 . S
C157 O166 1.247 . S
C157 O167 1.272 . S
O158 Co154 2.004 . S
O158 C163 1.259 . S
Co159 O160 2.061 . S
Co159 O165 2.052 . S
Co159 O167 2.135 . S
O160 Co159 2.061 . S
O160 C163 1.235 . S
C161 O164 1.238 . S
C161 O165 1.241 . S
C162 O155 1.247 . S
C162 O156 1.261 . S
C163 O158 1.259 . S
C163 O160 1.235 . S
O164 Co154 2.021 . S
O164 C161 1.238 . S
O165 Co159 2.052 . S
O165 C161 1.241 . S
O166 Co154 2.137 . S
O166 C157 1.247 . S
O167 Co154 2.244 . S
O167 C157 1.272 . S
O167 Co159 2.135 . S
Co168 O169 2.216 . S
Co168 O170 2.091 . S
Co168 O172 2.004 . S
Co168 O178 2.021 . S
Co168 O180 2.137 . S
Co168 O181 2.244 . S
O169 Co168 2.216 . S
O169 C176 1.247 . S
O170 Co168 2.091 . S
O170 C176 1.261 . S
C171 O180 1.247 . S
C171 O181 1.272 . S
O172 Co168 2.004 . S
O172 C177 1.259 . S
Co173 O174 2.061 1_455 S
Co173 O179 2.052 . S
Co173 O181 2.135 1_455 S
O174 Co173 2.061 1_655 S
O174 C177 1.235 . S
C175 O178 1.238 . S
C175 O179 1.241 1_655 S
C176 O169 1.247 . S
C176 O170 1.261 . S
C177 O172 1.259 . S
C177 O174 1.235 . S
O178 Co168 2.021 . S
O178 C175 1.238 . S
O179 Co173 2.052 . S
O179 C175 1.241 1_455 S
O180 Co168 2.137 . S
O180 C171 1.247 . S
O181 Co168 2.244 . S
O181 C171 1.272 . S
O181 Co173 2.135 1_655 S
Co182 O183 2.216 . S
Co182 O184 2.091 . S
Co182 O186 2.004 . S
Co182 O192 2.021 . S
Co182 O194 2.137 . S
Co182 O195 2.244 . S
O183 Co182 2.216 . S
O183 C190 1.247 . S
O184 Co182 2.091 . S
O184 C190 1.261 . S
C185 O194 1.247 . S
C185 O195 1.272 . S
O186 Co182 2.004 . S
O186 C191 1.259 . S
Co187 O188 2.061 . S
Co187 O193 2.052 . S
Co187 O195 2.135 . S
O188 Co187 2.061 . S
O188 C191 1.235 . S
C189 O192 1.238 . S
C189 O193 1.241 . S
C190 O183 1.247 . S
C190 O184 1.261 . S
C191 O186 1.259 . S
C191 O188 1.235 . S
O192 Co182 2.021 . S
O192 C189 1.238 . S
O193 Co187 2.052 . S
O193 C189 1.241 . S
O194 Co182 2.137 . S
O194 C185 1.247 . S
O195 Co182 2.244 . S
O195 C185 1.272 . S
O195 Co187 2.135 . S
Co196 O197 2.216 . S
Co196 O198 2.091 . S
Co196 O200 2.004 . S
Co196 O206 2.021 . S
Co196 O208 2.137 1_554 S
Co196 O209 2.244 . S
O197 Co196 2.216 . S
O197 C204 1.247 . S
O198 Co196 2.091 . S
O198 C204 1.261 . S
C199 O208 1.247 . S
C199 O209 1.272 1_556 S
O200 Co196 2.004 . S
O200 C205 1.259 . S
Co201 O202 2.061 . S
Co201 O207 2.052 . S
Co201 O209 2.135 . S
O202 Co201 2.061 . S
O202 C205 1.235 . S
C203 O206 1.238 . S
C203 O207 1.241 . S
C204 O197 1.247 . S
C204 O198 1.261 . S
C205 O200 1.259 . S
C205 O202 1.235 . S
O206 Co196 2.021 . S
O206 C203 1.238 . S
O207 Co201 2.052 . S
O207 C203 1.241 . S
O208 Co196 2.137 1_556 S
O208 C199 1.247 . S
O209 Co196 2.244 . S
O209 C199 1.272 1_554 S
O209 Co201 2.135 . S
Co210 O211 2.216 . S
Co210 O212 2.091 . S
Co210 O214 2.004 . S
Co210 O220 2.021 . S
Co210 O222 2.137 . S
Co210 O223 2.244 . S
O211 Co210 2.216 . S
O211 C218 1.247 . S
O212 Co210 2.091 . S
O212 C218 1.261 . S
C213 O222 1.247 . S
C213 O223 1.272 . S
O214 Co210 2.004 . S
O214 C219 1.259 . S
Co215 O216 2.061 . S
Co215 O221 2.052 . S
Co215 O223 2.135 . S
O216 Co215 2.061 . S
O216 C219 1.235 . S
C217 O220 1.238 . S
C217 O221 1.241 . S
C218 O211 1.247 . S
C218 O212 1.261 . S
C219 O214 1.259 . S
C219 O216 1.235 . S
O220 Co210 2.021 . S
O220 C217 1.238 . S
O221 Co215 2.052 . S
O221 C217 1.241 . S
O222 Co210 2.137 . S
O222 C213 1.247 . S
O223 Co210 2.244 . S
O223 C213 1.272 . S
O223 Co215 2.135 . S
Co224 O225 2.216 . S
Co224 O226 2.091 . S
Co224 O228 2.004 . S
Co224 O234 2.021 . S
Co224 O236 2.137 . S
Co224 O237 2.244 . S
O225 Co224 2.216 . S
O225 C232 1.247 . S
O226 Co224 2.091 . S
O226 C232 1.261 . S
C227 O236 1.247 . S
C227 O237 1.272 . S
O228 Co224 2.004 . S
O228 C233 1.259 . S
Co229 O230 2.061 . S
Co229 O235 2.052 . S
Co229 O237 2.135 . S
O230 Co229 2.061 . S
O230 C233 1.235 . S
C231 O234 1.238 . S
C231 O235 1.241 . S
C232 O225 1.247 . S
C232 O226 1.261 . S
C233 O228 1.259 . S
C233 O230 1.235 . S
O234 Co224 2.021 . S
O234 C231 1.238 . S
O235 Co229 2.052 . S
O235 C231 1.241 . S
O236 Co224 2.137 . S
O236 C227 1.247 . S
O237 Co224 2.244 . S
O237 C227 1.272 . S
O237 Co229 2.135 . S
Co238 O239 2.216 . S
Co238 O240 2.091 . S
Co238 O242 2.004 . S
Co238 O248 2.021 . S
Co238 O250 2.137 . S
Co238 O251 2.244 . S
O239 Co238 2.216 . S
O239 C246 1.247 . S
O240 Co238 2.091 . S
O240 C246 1.261 . S
C241 O250 1.247 . S
C241 O251 1.272 . S
O242 Co238 2.004 . S
O242 C247 1.259 . S
Co243 O244 2.061 . S
Co243 O249 2.052 . S
Co243 O251 2.135 . S
O244 Co243 2.061 . S
O244 C247 1.235 . S
C245 O248 1.238 . S
C245 O249 1.241 . S
C246 O239 1.247 . S
C246 O240 1.261 . S
C247 O242 1.259 . S
C247 O244 1.235 . S
O248 Co238 2.021 . S
O248 C245 1.238 . S
O249 Co243 2.052 . S
O249 C245 1.241 . S
O250 Co238 2.137 . S
O250 C241 1.247 . S
O251 Co238 2.244 . S
O251 C241 1.272 . S
O251 Co243 2.135 . S
Co252 O253 2.216 . S
Co252 O254 2.091 . S
Co252 O256 2.004 . S
Co252 O262 2.021 . S
Co252 O264 2.137 1_554 S
Co252 O265 2.244 . S
O253 Co252 2.216 . S
O253 C260 1.247 . S
O254 Co252 2.091 . S
O254 C260 1.261 . S
C255 O264 1.247 . S
C255 O265 1.272 1_556 S
O256 Co252 2.004 . S
O256 C261 1.259 . S
Co257 O258 2.061 1_455 S
Co257 O263 2.052 . S
Co257 O265 2.135 1_455 S
O258 Co257 2.061 1_655 S
O258 C261 1.235 . S
C259 O262 1.238 . S
C259 O263 1.241 1_655 S
C260 O253 1.247 . S
C260 O254 1.261 . S
C261 O256 1.259 . S
C261 O258 1.235 . S
O262 Co252 2.021 . S
O262 C259 1.238 . S
O263 Co257 2.052 . S
O263 C259 1.241 1_455 S
O264 Co252 2.137 1_556 S
O264 C255 1.247 . S
O265 Co252 2.244 . S
O265 C255 1.272 1_554 S
O265 Co257 2.135 1_655 S
Co266 O267 2.216 . S
Co266 O268 2.091 . S
Co266 O270 2.004 . S
Co266 O276 2.021 . S
Co266 O278 2.137 . S
Co266 O279 2.244 . S
O267 Co266 2.216 . S
O267 C274 1.247 . S
O268 Co266 2.091 . S
O268 C274 1.261 . S
C269 O278 1.247 . S
C269 O279 1.272 . S
O270 Co266 2.004 . S
O270 C275 1.259 . S
Co271 O272 2.061 . S
Co271 O277 2.052 . S
Co271 O279 2.135 . S
O272 Co271 2.061 . S
O272 C275 1.235 . S
C273 O276 1.238 . S
C273 O277 1.241 . S
C274 O267 1.247 . S
C274 O268 1.261 . S
C275 O270 1.259 . S
C275 O272 1.235 . S
O276 Co266 2.021 . S
O276 C273 1.238 . S
O277 Co271 2.052 . S
O277 C273 1.241 . S
O278 Co266 2.137 . S
O278 C269 1.247 . S
O279 Co266 2.244 . S
O279 C269 1.272 . S
O279 Co271 2.135 . S
Co280 O281 2.216 . S
Co280 O282 2.091 . S
Co280 O284 2.004 . S
Co280 O290 2.021 . S
Co280 O292 2.137 1_556 S
Co280 O293 2.244 . S
O281 Co280 2.216 . S
O281 C288 1.247 . S
O282 Co280 2.091 . S
O282 C288 1.261 . S
C283 O292 1.247 . S
C283 O293 1.272 1_554 S
O284 Co280 2.004 . S
O284 C289 1.259 . S
Co285 O286 2.061 . S
Co285 O291 2.052 . S
Co285 O293 2.135 . S
O286 Co285 2.061 . S
O286 C289 1.235 . S
C287 O290 1.238 . S
C287 O291 1.241 . S
C288 O281 1.247 . S
C288 O282 1.261 . S
C289 O284 1.259 . S
C289 O286 1.235 . S
O290 Co280 2.021 . S
O290 C287 1.238 . S
O291 Co285 2.052 . S
O291 C287 1.241 . S
O292 Co280 2.137 1_554 S
O292 C283 1.247 . S
O293 Co280 2.244 . S
O293 C283 1.272 1_556 S
O293 Co285 2.135 . S
Co294 O295 2.216 . S
Co294 O296 2.091 . S
Co294 O298 2.004 . S
Co294 O304 2.021 . S
Co294 O306 2.137 . S
Co294 O307 2.244 . S
O295 Co294 2.216 . S
O295 C302 1.247 . S
O296 Co294 2.091 . S
O296 C302 1.261 . S
C297 O306 1.247 . S
C297 O307 1.272 . S
O298 Co294 2.004 . S
O298 C303 1.259 . S
Co299 O300 2.061 . S
Co299 O305 2.052 . S
Co299 O307 2.135 . S
O300 Co299 2.061 . S
O300 C303 1.235 . S
C301 O304 1.238 . S
C301 O305 1.241 . S
C302 O295 1.247 . S
C302 O296 1.261 . S
C303 O298 1.259 . S
C303 O300 1.235 . S
O304 Co294 2.021 . S
O304 C301 1.238 . S
O305 Co299 2.052 . S
O305 C301 1.241 . S
O306 Co294 2.137 . S
O306 C297 1.247 . S
O307 Co294 2.244 . S
O307 C297 1.272 . S
O307 Co299 2.135 . S
Co308 O309 2.216 . S
Co308 O310 2.091 . S
Co308 O312 2.004 . S
Co308 O318 2.021 . S
Co308 O320 2.137 . S
Co308 O321 2.244 . S
O309 Co308 2.216 . S
O309 C316 1.247 . S
O310 Co308 2.091 . S
O310 C316 1.261 . S
C311 O320 1.247 . S
C311 O321 1.272 . S
O312 Co308 2.004 . S
O312 C317 1.259 . S
Co313 O314 2.061 1_455 S
Co313 O319 2.052 . S
Co313 O321 2.135 1_455 S
O314 Co313 2.061 1_655 S
O314 C317 1.235 . S
C315 O318 1.238 . S
C315 O319 1.241 1_655 S
C316 O309 1.247 . S
C316 O310 1.261 . S
C317 O312 1.259 . S
C317 O314 1.235 . S
O318 Co308 2.021 . S
O318 C315 1.238 . S
O319 Co313 2.052 . S
O319 C315 1.241 1_455 S
O320 Co308 2.137 . S
O320 C311 1.247 . S
O321 Co308 2.244 . S
O321 C311 1.272 . S
O321 Co313 2.135 1_655 S
Co322 O323 2.216 . S
Co322 O324 2.091 . S
Co322 O326 2.004 . S
Co322 O332 2.021 . S
Co322 O334 2.137 . S
Co322 O335 2.244 . S
O323 Co322 2.216 . S
O323 C330 1.247 . S
O324 Co322 2.091 . S
O324 C330 1.261 . S
C325 O334 1.247 . S
C325 O335 1.272 . S
O326 Co322 2.004 . S
O326 C331 1.259 . S
Co327 O328 2.061 . S
Co327 O333 2.052 . S
Co327 O335 2.135 . S
O328 Co327 2.061 . S
O328 C331 1.235 . S
C329 O332 1.238 . S
C329 O333 1.241 . S
C330 O323 1.247 . S
C330 O324 1.261 . S
C331 O326 1.259 . S
C331 O328 1.235 . S
O332 Co322 2.021 . S
O332 C329 1.238 . S
O333 Co327 2.052 . S
O333 C329 1.241 . S
O334 Co322 2.137 . S
O334 C325 1.247 . S
O335 Co322 2.244 . S
O335 C325 1.272 . S
O335 Co327 2.135 . S
Co336 O337 2.216 . S
Co336 O338 2.091 . S
Co336 O340 2.004 . S
Co336 O346 2.021 . S
Co336 O348 2.137 . S
Co336 O349 2.244 . S
O337 Co336 2.216 . S
O337 C344 1.247 . S
O338 Co336 2.091 . S
O338 C344 1.261 . S
C339 O348 1.247 . S
C339 O349 1.272 . S
O340 Co336 2.004 . S
O340 C345 1.259 . S
Co341 O342 2.061 . S
Co341 O347 2.052 . S
Co341 O349 2.135 . S
O342 Co341 2.061 . S
O342 C345 1.235 . S
C343 O346 1.238 . S
C343 O347 1.241 . S
C344 O337 1.247 . S
C344 O338 1.261 . S
C345 O340 1.259 . S
C345 O342 1.235 . S
O346 Co336 2.021 . S
O346 C343 1.238 . S
O347 Co341 2.052 . S
O347 C343 1.241 . S
O348 Co336 2.137 . S
O348 C339 1.247 . S
O349 Co336 2.244 . S
O349 C339 1.272 . S
O349 Co341 2.135 . S
Co350 O351 2.216 . S
Co350 O352 2.091 . S
Co350 O354 2.004 . S
Co350 O360 2.021 . S
Co350 O362 2.137 . S
Co350 O363 2.244 . S
O351 Co350 2.216 . S
O351 C358 1.247 . S
O352 Co350 2.091 . S
O352 C358 1.261 . S
C353 O362 1.247 . S
C353 O363 1.272 . S
O354 Co350 2.004 . S
O354 C359 1.259 . S
Co355 O356 2.061 . S
Co355 O361 2.052 . S
Co355 O363 2.135 . S
O356 Co355 2.061 . S
O356 C359 1.235 . S
C357 O360 1.238 . S
C357 O361 1.241 . S
C358 O351 1.247 . S
C358 O352 1.261 . S
C359 O354 1.259 . S
C359 O356 1.235 . S
O360 Co350 2.021 . S
O360 C357 1.238 . S
O361 Co355 2.052 . S
O361 C357 1.241 . S
O362 Co350 2.137 . S
O362 C353 1.247 . S
O363 Co350 2.244 . S
O363 C353 1.272 . S
O363 Co355 2.135 . S
Co364 O365 2.216 . S
Co364 O366 2.091 . S
Co364 O368 2.004 . S
Co364 O374 2.021 . S
Co364 O376 2.137 1_556 S
Co364 O377 2.244 . S
O365 Co364 2.216 . S
O365 C372 1.247 . S
O366 Co364 2.091 . S
O366 C372 1.261 . S
C367 O376 1.247 . S
C367 O377 1.272 1_554 S
O368 Co364 2.004 . S
O368 C373 1.259 . S
Co369 O370 2.061 1_655 S
Co369 O375 2.052 . S
Co369 O377 2.135 1_655 S
O370 Co369 2.061 1_455 S
O370 C373 1.235 . S
C371 O374 1.238 . S
C371 O375 1.241 1_455 S
C372 O365 1.247 . S
C372 O366 1.261 . S
C373 O368 1.259 . S
C373 O370 1.235 . S
O374 Co364 2.021 . S
O374 C371 1.238 . S
O375 Co369 2.052 . S
O375 C371 1.241 1_655 S
O376 Co364 2.137 1_554 S
O376 C367 1.247 . S
O377 Co364 2.244 . S
O377 C367 1.272 1_556 S
O377 Co369 2.135 1_455 S
Co378 O379 2.216 . S
Co378 O380 2.091 . S
Co378 O382 2.004 . S
Co378 O388 2.021 . S
Co378 O390 2.137 . S
Co378 O391 2.244 . S
O379 Co378 2.216 . S
O379 C386 1.247 . S
O380 Co378 2.091 . S
O380 C386 1.261 . S
C381 O390 1.247 . S
C381 O391 1.272 . S
O382 Co378 2.004 . S
O382 C387 1.259 . S
Co383 O384 2.061 . S
Co383 O389 2.052 . S
Co383 O391 2.135 . S
O384 Co383 2.061 . S
O384 C387 1.235 . S
C385 O388 1.238 . S
C385 O389 1.241 . S
C386 O379 1.247 . S
C386 O380 1.261 . S
C387 O382 1.259 . S
C387 O384 1.235 . S
O388 Co378 2.021 . S
O388 C385 1.238 . S
O389 Co383 2.052 . S
O389 C385 1.241 . S
O390 Co378 2.137 . S
O390 C381 1.247 . S
O391 Co378 2.244 . S
O391 C381 1.272 . S
O391 Co383 2.135 . S
Co392 O393 2.216 . S
Co392 O394 2.091 . S
Co392 O396 2.004 . S
Co392 O402 2.021 . S
Co392 O404 2.137 1_554 S
Co392 O405 2.244 . S
O393 Co392 2.216 . S
O393 C400 1.247 . S
O394 Co392 2.091 . S
O394 C400 1.261 . S
C395 O404 1.247 . S
C395 O405 1.272 1_556 S
O396 Co392 2.004 . S
O396 C401 1.259 . S
Co397 O398 2.061 . S
Co397 O403 2.052 . S
Co397 O405 2.135 . S
O398 Co397 2.061 . S
O398 C401 1.235 . S
C399 O402 1.238 . S
C399 O403 1.241 . S
C400 O393 1.247 . S
C400 O394 1.261 . S
C401 O396 1.259 . S
C401 O398 1.235 . S
O402 Co392 2.021 . S
O402 C399 1.238 . S
O403 Co397 2.052 . S
O403 C399 1.241 . S
O404 Co392 2.137 1_556 S
O404 C395 1.247 . S
O405 Co392 2.244 . S
O405 C395 1.272 1_554 S
O405 Co397 2.135 . S
Co406 O407 2.216 . S
Co406 O408 2.091 . S
Co406 O410 2.004 . S
Co406 O416 2.021 . S
Co406 O418 2.137 . S
Co406 O419 2.244 . S
O407 Co406 2.216 . S
O407 C414 1.247 . S
O408 Co406 2.091 . S
O408 C414 1.261 . S
C409 O418 1.247 . S
C409 O419 1.272 . S
O410 Co406 2.004 . S
O410 C415 1.259 . S
Co411 O412 2.061 . S
Co411 O417 2.052 . S
Co411 O419 2.135 . S
O412 Co411 2.061 . S
O412 C415 1.235 . S
C413 O416 1.238 . S
C413 O417 1.241 . S
C414 O407 1.247 . S
C414 O408 1.261 . S
C415 O410 1.259 . S
C415 O412 1.235 . S
O416 Co406 2.021 . S
O416 C413 1.238 . S
O417 Co411 2.052 . S
O417 C413 1.241 . S
O418 Co406 2.137 . S
O418 C409 1.247 . S
O419 Co406 2.244 . S
O419 C409 1.272 . S
O419 Co411 2.135 . S
Co420 O421 2.216 . S
Co420 O422 2.091 . S
Co420 O424 2.004 . S
Co420 O430 2.021 . S
Co420 O432 2.137 . S
Co420 O433 2.244 . S
O421 Co420 2.216 . S
O421 C428 1.247 . S
O422 Co420 2.091 . S
O422 C428 1.261 . S
C423 O432 1.247 . S
C423 O433 1.272 . S
O424 Co420 2.004 . S
O424 C429 1.259 . S
Co425 O426 2.061 1_655 S
Co425 O431 2.052 . S
Co425 O433 2.135 1_655 S
O426 Co425 2.061 1_455 S
O426 C429 1.235 . S
C427 O430 1.238 . S
C427 O431 1.241 1_455 S
C428 O421 1.247 . S
C428 O422 1.261 . S
C429 O424 1.259 . S
C429 O426 1.235 . S
O430 Co420 2.021 . S
O430 C427 1.238 . S
O431 Co425 2.052 . S
O431 C427 1.241 1_655 S
O432 Co420 2.137 . S
O432 C423 1.247 . S
O433 Co420 2.244 . S
O433 C423 1.272 . S
O433 Co425 2.135 1_455 S
Co434 O435 2.216 . S
Co434 O436 2.091 . S
Co434 O438 2.004 . S
Co434 O444 2.021 . S
Co434 O446 2.137 . S
Co434 O447 2.244 . S
O435 Co434 2.216 . S
O435 C442 1.247 . S
O436 Co434 2.091 . S
O436 C442 1.261 . S
C437 O446 1.247 . S
C437 O447 1.272 . S
O438 Co434 2.004 . S
O438 C443 1.259 . S
Co439 O440 2.061 . S
Co439 O445 2.052 . S
Co439 O447 2.135 . S
O440 Co439 2.061 . S
O440 C443 1.235 . S
C441 O444 1.238 . S
C441 O445 1.241 . S
C442 O435 1.247 . S
C442 O436 1.261 . S
C443 O438 1.259 . S
C443 O440 1.235 . S
O444 Co434 2.021 . S
O444 C441 1.238 . S
O445 Co439 2.052 . S
O445 C441 1.241 . S
O446 Co434 2.137 . S
O446 C437 1.247 . S
O447 Co434 2.244 . S
O447 C437 1.272 . S
O447 Co439 2.135 . S
H448 C456 0.929 . S
H449 C458 0.930 . S
H450 C460 0.930 . S
H451 C463 0.929 . S
H452 C466 0.930 . S
H453 C468 0.960 . S
H454 C468 0.960 . S
H455 C468 0.960 . S
C456 H448 0.929 . S
C456 C457 1.377 1_455 S
C456 C458 1.384 . S
C457 C456 1.377 1_655 S
C457 C463 1.390 . S
C458 H449 0.930 . S
C458 C456 1.384 . S
C458 C459 1.372 1_455 S
C459 C458 1.372 1_655 S
C459 C460 1.400 . S
C459 C464 1.490 1_655 S
C460 H450 0.930 . S
C460 C459 1.400 . S
C460 C463 1.386 . S
H461 C477 0.928 1_655 S
H462 C478 0.931 1_655 S
C463 H451 0.929 . S
C463 C457 1.390 . S
C463 C460 1.386 . S
C464 C459 1.490 1_455 S
C464 C466 1.397 . S
C464 C467 1.401 1_455 S
H465 C471 0.930 . S
C466 H452 0.930 . S
C466 C464 1.397 . S
C466 C469 1.403 . S
C467 C464 1.401 1_655 S
C467 C468 1.524 . S
C467 C471 1.400 . S
C468 H453 0.960 . S
C468 H454 0.960 . S
C468 H455 0.960 . S
C468 C467 1.524 . S
C469 C466 1.403 . S
C469 C470 1.392 . S
C469 C473 1.495 . S
C470 C469 1.392 . S
C470 C471 1.385 1_455 S
C470 C472 1.478 . S
C471 H465 0.930 . S
C471 C467 1.400 . S
C471 C470 1.385 1_655 S
C472 C470 1.478 . S
C472 C474 1.381 . S
C472 C478 1.383 . S
C473 C469 1.495 . S
C473 H479 0.959 . S
C473 H480 0.961 . S
C473 H481 0.960 . S
C474 C472 1.381 . S
C474 C475 1.394 . S
C474 H482 0.930 . S
C475 C474 1.394 . S
C475 C476 1.383 . S
C475 H483 0.929 . S
C476 C475 1.383 . S
C476 C477 1.377 . S
C477 H461 0.928 1_455 S
C477 C476 1.377 . S
C477 C478 1.379 . S
C478 H462 0.931 1_455 S
C478 C472 1.383 . S
C478 C477 1.379 . S
H479 C473 0.959 . S
H480 C473 0.961 . S
H481 C473 0.960 . S
H482 C474 0.930 . S
H483 C475 0.929 . S
H484 C492 0.929 . S
H485 C494 0.930 . S
H486 C496 0.930 . S
H487 C499 0.929 . S
H488 C502 0.930 . S
H489 C504 0.960 . S
H490 C504 0.960 . S
H491 C504 0.960 . S
C492 H484 0.929 . S
C492 C493 1.377 . S
C492 C494 1.384 . S
C493 C492 1.377 . S
C493 C499 1.390 . S
C494 H485 0.930 . S
C494 C492 1.384 . S
C494 C495 1.372 . S
C495 C494 1.372 . S
C495 C496 1.400 . S
C495 C500 1.490 1_556 S
C496 H486 0.930 . S
C496 C495 1.400 . S
C496 C499 1.386 . S
H497 C513 0.930 . S
H498 C514 0.931 . S
C499 H487 0.929 . S
C499 C493 1.390 . S
C499 C496 1.386 . S
C500 C495 1.490 1_554 S
C500 C502 1.395 . S
C500 C503 1.403 . S
H501 C507 0.930 . S
C502 H488 0.930 . S
C502 C500 1.395 . S
C502 C505 1.403 . S
C503 C500 1.403 . S
C503 C504 1.524 . S
C503 C507 1.400 . S
C504 H489 0.960 . S
C504 H490 0.960 . S
C504 H491 0.960 . S
C504 C503 1.524 . S
C505 C502 1.403 . S
C505 C506 1.392 . S
C505 C509 1.495 . S
C506 C505 1.392 . S
C506 C507 1.385 . S
C506 C508 1.478 . S
C507 H501 0.930 . S
C507 C503 1.400 . S
C507 C506 1.385 . S
C508 C506 1.478 . S
C508 C510 1.381 . S
C508 C514 1.383 . S
C509 C505 1.495 . S
C509 H515 0.959 . S
C509 H516 0.961 . S
C509 H517 0.960 . S
C510 C508 1.381 . S
C510 C511 1.394 . S
C510 H518 0.930 . S
C511 C510 1.394 . S
C511 C512 1.383 . S
C511 H519 0.929 . S
C512 C511 1.383 . S
C512 C513 1.377 . S
C513 H497 0.930 . S
C513 C512 1.377 . S
C513 C514 1.379 . S
C514 H498 0.931 . S
C514 C508 1.383 . S
C514 C513 1.379 . S
H515 C509 0.959 . S
H516 C509 0.961 . S
H517 C509 0.960 . S
H518 C510 0.930 . S
H519 C511 0.929 . S
H520 C528 0.929 . S
H521 C530 0.930 . S
H522 C532 0.930 . S
H523 C535 0.929 . S
H524 C538 0.930 . S
H525 C540 0.960 . S
H526 C540 0.960 . S
H527 C540 0.960 . S
C528 H520 0.929 . S
C528 C529 1.377 . S
C528 C530 1.384 . S
C529 C528 1.377 . S
C529 C535 1.390 . S
C530 H521 0.930 . S
C530 C528 1.384 . S
C530 C531 1.372 . S
C531 C530 1.372 . S
C531 C532 1.400 . S
C531 C536 1.490 . S
C532 H522 0.930 . S
C532 C531 1.400 . S
C532 C535 1.386 . S
H533 C549 0.930 . S
H534 C550 0.931 . S
C535 H523 0.929 . S
C535 C529 1.390 . S
C535 C532 1.386 . S
C536 C531 1.490 . S
C536 C538 1.395 . S
C536 C539 1.403 . S
H537 C543 0.930 . S
C538 H524 0.930 . S
C538 C536 1.395 . S
C538 C541 1.403 . S
C539 C536 1.403 . S
C539 C540 1.524 . S
C539 C543 1.400 . S
C540 H525 0.960 . S
C540 H526 0.960 . S
C540 H527 0.960 . S
C540 C539 1.524 . S
C541 C538 1.403 . S
C541 C542 1.392 . S
C541 C545 1.495 . S
C542 C541 1.392 . S
C542 C543 1.385 . S
C542 C544 1.478 . S
C543 H537 0.930 . S
C543 C539 1.400 . S
C543 C542 1.385 . S
C544 C542 1.478 . S
C544 C546 1.381 . S
C544 C550 1.383 . S
C545 C541 1.495 . S
C545 H551 0.959 . S
C545 H552 0.961 . S
C545 H553 0.960 . S
C546 C544 1.381 . S
C546 C547 1.394 . S
C546 H554 0.930 . S
C547 C546 1.394 . S
C547 C548 1.383 . S
C547 H555 0.929 . S
C548 C547 1.383 . S
C548 C549 1.377 . S
C549 H533 0.930 . S
C549 C548 1.377 . S
C549 C550 1.379 . S
C550 H534 0.931 . S
C550 C544 1.383 . S
C550 C549 1.379 . S
H551 C545 0.959 . S
H552 C545 0.961 . S
H553 C545 0.960 . S
H554 C546 0.930 . S
H555 C547 0.929 . S
H556 C564 0.929 . S
H557 C566 0.930 . S
H558 C568 0.930 . S
H559 C571 0.929 . S
H560 C574 0.930 . S
H561 C576 0.960 . S
H562 C576 0.960 . S
H563 C576 0.960 . S
C564 H556 0.929 . S
C564 C565 1.377 . S
C564 C566 1.384 . S
C565 C564 1.377 . S
C565 C571 1.390 . S
C566 H557 0.930 . S
C566 C564 1.384 . S
C566 C567 1.372 . S
C567 C566 1.372 . S
C567 C568 1.400 . S
C567 C572 1.490 . S
C568 H558 0.930 . S
C568 C567 1.400 . S
C568 C571 1.386 . S
H569 C585 0.930 . S
H570 C586 0.931 . S
C571 H559 0.929 . S
C571 C565 1.390 . S
C571 C568 1.386 . S
C572 C567 1.490 . S
C572 C574 1.395 . S
C572 C575 1.403 . S
H573 C579 0.930 . S
C574 H560 0.930 . S
C574 C572 1.395 . S
C574 C577 1.403 . S
C575 C572 1.403 . S
C575 C576 1.524 . S
C575 C579 1.400 . S
C576 H561 0.960 . S
C576 H562 0.960 . S
C576 H563 0.960 . S
C576 C575 1.524 . S
C577 C574 1.403 . S
C577 C578 1.392 . S
C577 C581 1.495 . S
C578 C577 1.392 . S
C578 C579 1.385 . S
C578 C580 1.478 . S
C579 H573 0.930 . S
C579 C575 1.400 . S
C579 C578 1.385 . S
C580 C578 1.478 . S
C580 C582 1.381 . S
C580 C586 1.383 . S
C581 C577 1.495 . S
C581 H587 0.959 . S
C581 H588 0.961 . S
C581 H589 0.960 . S
C582 C580 1.381 . S
C582 C583 1.394 . S
C582 H590 0.930 . S
C583 C582 1.394 . S
C583 C584 1.383 . S
C583 H591 0.929 . S
C584 C583 1.383 . S
C584 C585 1.377 . S
C585 H569 0.930 . S
C585 C584 1.377 . S
C585 C586 1.379 . S
C586 H570 0.931 . S
C586 C580 1.383 . S
C586 C585 1.379 . S
H587 C581 0.959 . S
H588 C581 0.961 . S
H589 C581 0.960 . S
H590 C582 0.930 . S
H591 C583 0.929 . S
H592 C600 0.929 . S
H593 C602 0.930 . S
H594 C604 0.930 . S
H595 C607 0.929 . S
H596 C610 0.930 . S
H597 C612 0.960 . S
H598 C612 0.960 1_655 S
H599 C612 0.960 . S
C600 H592 0.929 . S
C600 C601 1.377 . S
C600 C602 1.384 . S
C601 C600 1.377 . S
C601 C607 1.390 1_655 S
C602 H593 0.930 . S
C602 C600 1.384 . S
C602 C603 1.372 . S
C603 C602 1.372 . S
C603 C604 1.400 1_655 S
C603 C608 1.490 . S
C604 H594 0.930 . S
C604 C603 1.400 1_455 S
C604 C607 1.386 . S
H605 C621 0.930 . S
H606 C622 0.931 . S
C607 H595 0.929 . S
C607 C601 1.390 1_455 S
C607 C604 1.386 . S
C608 C603 1.490 . S
C608 C610 1.395 . S
C608 C611 1.403 1_655 S
H609 C615 0.930 . S
C610 H596 0.930 . S
C610 C608 1.395 . S
C610 C613 1.414 . S
C611 C608 1.403 1_455 S
C611 C612 1.524 . S
C611 C615 1.400 . S
C612 H597 0.960 . S
C612 H598 0.960 1_455 S
C612 H599 0.960 . S
C612 C611 1.524 . S
C613 C610 1.414 . S
C613 C614 1.380 1_655 S
C613 C617 1.501 . S
C614 C613 1.380 1_455 S
C614 C615 1.385 . S
C614 C616 1.478 . S
C615 H609 0.930 . S
C615 C611 1.400 . S
C615 C614 1.385 . S
C616 C614 1.478 . S
C616 C618 1.381 1_455 S
C616 C622 1.383 . S
C617 C613 1.501 . S
C617 H623 0.959 . S
C617 H624 0.961 1_655 S
C617 H625 0.960 . S
C618 C616 1.381 1_655 S
C618 C619 1.394 . S
C618 H626 0.930 . S
C619 C618 1.394 . S
C619 C620 1.383 1_655 S
C619 H627 0.929 . S
C620 C619 1.383 1_455 S
C620 C621 1.377 . S
C621 H605 0.930 . S
C621 C620 1.377 . S
C621 C622 1.379 . S
C622 H606 0.931 . S
C622 C616 1.383 . S
C622 C621 1.379 . S
H623 C617 0.959 . S
H624 C617 0.961 1_455 S
H625 C617 0.960 . S
H626 C618 0.930 . S
H627 C619 0.929 . S
H628 C636 0.929 . S
H629 C638 0.930 . S
H630 C640 0.930 . S
H631 C643 0.929 . S
H632 C646 0.930 . S
H633 C648 0.960 . S
H634 C648 0.960 . S
H635 C648 0.960 . S
C636 H628 0.929 . S
C636 C637 1.377 . S
C636 C638 1.384 . S
C637 C636 1.377 . S
C637 C643 1.390 . S
C638 H629 0.930 . S
C638 C636 1.384 . S
C638 C639 1.372 . S
C639 C638 1.372 . S
C639 C640 1.400 . S
C639 C644 1.490 . S
C640 H630 0.930 . S
C640 C639 1.400 . S
C640 C643 1.386 . S
H641 C657 0.930 . S
H642 C658 0.931 . S
C643 H631 0.929 . S
C643 C637 1.390 . S
C643 C640 1.386 . S
C644 C639 1.490 . S
C644 C646 1.395 . S
C644 C647 1.403 . S
H645 C651 0.930 . S
C646 H632 0.930 . S
C646 C644 1.395 . S
C646 C649 1.403 . S
C647 C644 1.403 . S
C647 C648 1.524 . S
C647 C651 1.400 . S
C648 H633 0.960 . S
C648 H634 0.960 . S
C648 H635 0.960 . S
C648 C647 1.524 . S
C649 C646 1.403 . S
C649 C650 1.392 . S
C649 C653 1.495 . S
C650 C649 1.392 . S
C650 C651 1.385 . S
C650 C652 1.478 1_556 S
C651 H645 0.930 . S
C651 C647 1.400 . S
C651 C650 1.385 . S
C652 C650 1.478 1_554 S
C652 C654 1.381 . S
C652 C658 1.383 . S
C653 C649 1.495 . S
C653 H659 0.959 . S
C653 H660 0.961 . S
C653 H661 0.960 . S
C654 C652 1.381 . S
C654 C655 1.394 . S
C654 H662 0.930 . S
C655 C654 1.394 . S
C655 C656 1.383 . S
C655 H663 0.929 . S
C656 C655 1.383 . S
C656 C657 1.377 . S
C657 H641 0.930 . S
C657 C656 1.377 . S
C657 C658 1.379 . S
C658 H642 0.931 . S
C658 C652 1.383 . S
C658 C657 1.379 . S
H659 C653 0.959 . S
H660 C653 0.961 . S
H661 C653 0.960 . S
H662 C654 0.930 . S
H663 C655 0.929 . S
H664 C672 0.929 . S
H665 C674 0.930 . S
H666 C676 0.930 . S
H667 C679 0.929 . S
H668 C682 0.930 . S
H669 C684 0.960 . S
H670 C684 0.960 . S
H671 C684 0.960 . S
C672 H664 0.929 . S
C672 C673 1.377 . S
C672 C674 1.384 . S
C673 C672 1.377 . S
C673 C679 1.390 . S
C674 H665 0.930 . S
C674 C672 1.384 . S
C674 C675 1.372 . S
C675 C674 1.372 . S
C675 C676 1.400 . S
C675 C680 1.490 . S
C676 H666 0.930 . S
C676 C675 1.400 . S
C676 C679 1.386 . S
H677 C693 0.930 . S
H678 C694 0.931 . S
C679 H667 0.929 . S
C679 C673 1.390 . S
C679 C676 1.386 . S
C680 C675 1.490 . S
C680 C682 1.395 . S
C680 C683 1.403 . S
H681 C687 0.930 . S
C682 H668 0.930 . S
C682 C680 1.395 . S
C682 C685 1.403 . S
C683 C680 1.403 . S
C683 C684 1.524 . S
C683 C687 1.400 . S
C684 H669 0.960 . S
C684 H670 0.960 . S
C684 H671 0.960 . S
C684 C683 1.524 . S
C685 C682 1.403 . S
C685 C686 1.392 . S
C685 C689 1.495 . S
C686 C685 1.392 . S
C686 C687 1.385 . S
C686 C688 1.478 . S
C687 H681 0.930 . S
C687 C683 1.400 . S
C687 C686 1.385 . S
C688 C686 1.478 . S
C688 C690 1.381 . S
C688 C694 1.383 . S
C689 C685 1.495 . S
C689 H695 0.959 . S
C689 H696 0.961 . S
C689 H697 0.960 . S
C690 C688 1.381 . S
C690 C691 1.394 . S
C690 H698 0.930 . S
C691 C690 1.394 . S
C691 C692 1.383 . S
C691 H699 0.929 . S
C692 C691 1.383 . S
C692 C693 1.377 . S
C693 H677 0.930 . S
C693 C692 1.377 . S
C693 C694 1.379 . S
C694 H678 0.931 . S
C694 C688 1.383 . S
C694 C693 1.379 . S
H695 C689 0.959 . S
H696 C689 0.961 . S
H697 C689 0.960 . S
H698 C690 0.930 . S
H699 C691 0.929 . S
H700 C708 0.929 . S
H701 C710 0.930 . S
H702 C712 0.930 . S
H703 C715 0.929 . S
H704 C718 0.930 . S
H705 C720 0.960 . S
H706 C720 0.960 . S
H707 C720 0.960 . S
C708 H700 0.929 . S
C708 C709 1.377 . S
C708 C710 1.384 . S
C709 C708 1.377 . S
C709 C715 1.390 . S
C710 H701 0.930 . S
C710 C708 1.384 . S
C710 C711 1.372 . S
C711 C710 1.372 . S
C711 C712 1.400 . S
C711 C716 1.490 . S
C712 H702 0.930 . S
C712 C711 1.400 . S
C712 C715 1.386 . S
H713 C729 0.930 . S
H714 C730 0.931 . S
C715 H703 0.929 . S
C715 C709 1.390 . S
C715 C712 1.386 . S
C716 C711 1.490 . S
C716 C718 1.395 . S
C716 C719 1.403 . S
H717 C723 0.930 . S
C718 H704 0.930 . S
C718 C716 1.395 . S
C718 C721 1.403 . S
C719 C716 1.403 . S
C719 C720 1.524 . S
C719 C723 1.400 . S
C720 H705 0.960 . S
C720 H706 0.960 . S
C720 H707 0.960 . S
C720 C719 1.524 . S
C721 C718 1.403 . S
C721 C722 1.392 . S
C721 C725 1.495 . S
C722 C721 1.392 . S
C722 C723 1.385 . S
C722 C724 1.478 . S
C723 H717 0.930 . S
C723 C719 1.400 . S
C723 C722 1.385 . S
C724 C722 1.478 . S
C724 C726 1.381 . S
C724 C730 1.383 . S
C725 C721 1.495 . S
C725 H731 0.959 . S
C725 H732 0.961 . S
C725 H733 0.960 . S
C726 C724 1.381 . S
C726 C727 1.394 . S
C726 H734 0.930 . S
C727 C726 1.394 . S
C727 C728 1.383 . S
C727 H735 0.929 . S
C728 C727 1.383 . S
C728 C729 1.377 . S
C729 H713 0.930 . S
C729 C728 1.377 . S
C729 C730 1.379 . S
C730 H714 0.931 . S
C730 C724 1.383 . S
C730 C729 1.379 . S
H731 C725 0.959 . S
H732 C725 0.961 . S
H733 C725 0.960 . S
H734 C726 0.930 . S
H735 C727 0.929 . S
H736 C744 0.929 . S
H737 C746 0.930 . S
H738 C748 0.930 . S
H739 C751 0.929 . S
H740 C754 0.930 . S
H741 C756 0.960 . S
H742 C756 0.960 . S
H743 C756 0.960 . S
C744 H736 0.929 . S
C744 C745 1.377 . S
C744 C746 1.384 . S
C745 C744 1.377 . S
C745 C751 1.390 1_455 S
C746 H737 0.930 . S
C746 C744 1.384 . S
C746 C747 1.372 . S
C747 C746 1.372 . S
C747 C748 1.400 1_455 S
C747 C752 1.490 . S
C748 H738 0.930 . S
C748 C747 1.400 1_655 S
C748 C751 1.386 . S
H749 C765 0.930 . S
H750 C766 0.931 . S
C751 H739 0.929 . S
C751 C745 1.390 1_655 S
C751 C748 1.386 . S
C752 C747 1.490 . S
C752 C754 1.395 . S
C752 C755 1.403 1_455 S
H753 C759 0.930 . S
C754 H740 0.930 . S
C754 C752 1.395 . S
C754 C757 1.403 . S
C755 C752 1.403 1_655 S
C755 C756 1.524 . S
C755 C759 1.400 . S
C756 H741 0.960 . S
C756 H742 0.960 . S
C756 H743 0.960 . S
C756 C755 1.524 . S
C757 C754 1.403 . S
C757 C758 1.367 1_455 S
C757 C761 1.495 . S
C758 C757 1.367 1_655 S
C758 C759 1.408 . S
C758 C760 1.481 . S
C759 H753 0.930 . S
C759 C755 1.400 . S
C759 C758 1.408 . S
C760 C758 1.481 . S
C760 C762 1.381 1_655 S
C760 C766 1.383 . S
C761 C757 1.495 . S
C761 H767 0.959 . S
C761 H768 0.961 . S
C761 H769 0.960 . S
C762 C760 1.381 1_455 S
C762 C763 1.383 1_455 S
C762 H770 0.930 . S
C763 C762 1.383 1_655 S
C763 C764 1.416 . S
C763 H771 0.912 1_655 S
C764 C763 1.416 . S
C764 C765 1.377 . S
C765 H749 0.930 . S
C765 C764 1.377 . S
C765 C766 1.379 . S
C766 H750 0.931 . S
C766 C760 1.383 . S
C766 C765 1.379 . S
H767 C761 0.959 . S
H768 C761 0.961 . S
H769 C761 0.960 . S
H770 C762 0.930 . S
H771 C763 0.912 1_455 S
H772 C780 0.929 . S
H773 C782 0.930 . S
H774 C784 0.930 . S
H775 C787 0.929 . S
H776 C790 0.930 . S
H777 C792 0.960 . S
H778 C792 0.960 . S
H779 C792 0.960 . S
C780 H772 0.929 . S
C780 C781 1.377 . S
C780 C782 1.384 . S
C781 C780 1.377 . S
C781 C787 1.390 . S
C782 H773 0.930 . S
C782 C780 1.384 . S
C782 C783 1.372 . S
C783 C782 1.372 . S
C783 C784 1.400 . S
C783 C788 1.490 1_554 S
C784 H774 0.930 . S
C784 C783 1.400 . S
C784 C787 1.386 . S
H785 C801 0.930 . S
H786 C802 0.931 . S
C787 H775 0.929 . S
C787 C781 1.390 . S
C787 C784 1.386 . S
C788 C783 1.490 1_556 S
C788 C790 1.395 . S
C788 C791 1.403 . S
H789 C795 0.930 . S
C790 H776 0.930 . S
C790 C788 1.395 . S
C790 C793 1.403 . S
C791 C788 1.403 . S
C791 C792 1.524 . S
C791 C795 1.400 . S
C792 H777 0.960 . S
C792 H778 0.960 . S
C792 H779 0.960 . S
C792 C791 1.524 . S
C793 C790 1.403 . S
C793 C794 1.392 . S
C793 C797 1.495 . S
C794 C793 1.392 . S
C794 C795 1.385 . S
C794 C796 1.478 . S
C795 H789 0.930 . S
C795 C791 1.400 . S
C795 C794 1.385 . S
C796 C794 1.478 . S
C796 C798 1.381 . S
C796 C802 1.383 . S
C797 C793 1.495 . S
C797 H803 0.959 . S
C797 H804 0.961 . S
C797 H805 0.960 . S
C798 C796 1.381 . S
C798 C799 1.394 . S
C798 H806 0.930 . S
C799 C798 1.394 . S
C799 C800 1.383 . S
C799 H807 0.929 . S
C800 C799 1.383 . S
C800 C801 1.377 . S
C801 H785 0.930 . S
C801 C800 1.377 . S
C801 C802 1.379 . S
C802 H786 0.931 . S
C802 C796 1.383 . S
C802 C801 1.379 . S
H803 C797 0.959 . S
H804 C797 0.961 . S
H805 C797 0.960 . S
H806 C798 0.930 . S
H807 C799 0.929 . S
H808 C816 0.929 . S
H809 C818 0.930 . S
H810 C820 0.930 . S
H811 C823 0.929 . S
H812 C826 0.930 . S
H813 C828 0.960 . S
H814 C828 0.960 . S
H815 C828 0.960 . S
C816 H808 0.929 . S
C816 C817 1.377 . S
C816 C818 1.384 . S
C817 C816 1.377 . S
C817 C823 1.390 . S
C818 H809 0.930 . S
C818 C816 1.384 . S
C818 C819 1.372 . S
C819 C818 1.372 . S
C819 C820 1.400 . S
C819 C824 1.490 . S
C820 H810 0.930 . S
C820 C819 1.400 . S
C820 C823 1.386 . S
H821 C837 0.930 . S
H822 C838 0.931 . S
C823 H811 0.929 . S
C823 C817 1.390 . S
C823 C820 1.386 . S
C824 C819 1.490 . S
C824 C826 1.395 . S
C824 C827 1.403 . S
H825 C831 0.930 . S
C826 H812 0.930 . S
C826 C824 1.395 . S
C826 C829 1.403 . S
C827 C824 1.403 . S
C827 C828 1.524 . S
C827 C831 1.400 . S
C828 H813 0.960 . S
C828 H814 0.960 . S
C828 H815 0.960 . S
C828 C827 1.524 . S
C829 C826 1.403 . S
C829 C830 1.392 . S
C829 C833 1.495 . S
C830 C829 1.392 . S
C830 C831 1.385 . S
C830 C832 1.478 . S
C831 H825 0.930 . S
C831 C827 1.400 . S
C831 C830 1.385 . S
C832 C830 1.478 . S
C832 C834 1.381 . S
C832 C838 1.383 . S
C833 C829 1.495 . S
C833 H839 0.959 . S
C833 H840 0.961 . S
C833 H841 0.960 . S
C834 C832 1.381 . S
C834 C835 1.394 . S
C834 H842 0.930 . S
C835 C834 1.394 . S
C835 C836 1.383 . S
C835 H843 0.929 . S
C836 C835 1.383 . S
C836 C837 1.377 . S
C837 H821 0.930 . S
C837 C836 1.377 . S
C837 C838 1.379 . S
C838 H822 0.931 . S
C838 C832 1.383 . S
C838 C837 1.379 . S
H839 C833 0.959 . S
H840 C833 0.961 . S
H841 C833 0.960 . S
H842 C834 0.930 . S
H843 C835 0.929 . S
H844 C852 0.929 . S
H845 C854 0.930 . S
H846 C856 0.930 . S
H847 C859 0.929 . S
H848 C862 0.930 . S
H849 C864 0.960 . S
H850 C864 0.960 . S
H851 C864 0.960 . S
C852 H844 0.929 . S
C852 C853 1.377 . S
C852 C854 1.384 . S
C853 C852 1.377 . S
C853 C859 1.390 . S
C854 H845 0.930 . S
C854 C852 1.384 . S
C854 C855 1.372 . S
C855 C854 1.372 . S
C855 C856 1.400 . S
C855 C860 1.490 . S
C856 H846 0.930 . S
C856 C855 1.400 . S
C856 C859 1.386 . S
H857 C873 0.930 . S
H858 C874 0.931 . S
C859 H847 0.929 . S
C859 C853 1.390 . S
C859 C856 1.386 . S
C860 C855 1.490 . S
C860 C862 1.395 . S
C860 C863 1.403 . S
H861 C867 0.930 . S
C862 H848 0.930 . S
C862 C860 1.395 . S
C862 C865 1.403 . S
C863 C860 1.403 . S
C863 C864 1.524 . S
C863 C867 1.400 . S
C864 H849 0.960 . S
C864 H850 0.960 . S
C864 H851 0.960 . S
C864 C863 1.524 . S
C865 C862 1.403 . S
C865 C866 1.392 . S
C865 C869 1.495 . S
C866 C865 1.392 . S
C866 C867 1.385 . S
C866 C868 1.478 . S
C867 H861 0.930 . S
C867 C863 1.400 . S
C867 C866 1.385 . S
C868 C866 1.478 . S
C868 C870 1.381 . S
C868 C874 1.383 . S
C869 C865 1.495 . S
C869 H875 0.959 . S
C869 H876 0.961 . S
C869 H877 0.960 . S
C870 C868 1.381 . S
C870 C871 1.394 . S
C870 H878 0.930 . S
C871 C870 1.394 . S
C871 C872 1.383 . S
C871 H879 0.929 . S
C872 C871 1.383 . S
C872 C873 1.377 . S
C873 H857 0.930 . S
C873 C872 1.377 . S
C873 C874 1.379 . S
C874 H858 0.931 . S
C874 C868 1.383 . S
C874 C873 1.379 . S
H875 C869 0.959 . S
H876 C869 0.961 . S
H877 C869 0.960 . S
H878 C870 0.930 . S
H879 C871 0.929 . S
H880 C888 0.929 . S
H881 C890 0.930 . S
H882 C892 0.930 . S
H883 C895 0.929 . S
H884 C898 0.930 . S
H885 C900 0.960 . S
H886 C900 0.960 . S
H887 C900 0.960 . S
C888 H880 0.929 . S
C888 C889 1.377 . S
C888 C890 1.384 . S
C889 C888 1.377 . S
C889 C895 1.390 . S
C890 H881 0.930 . S
C890 C888 1.384 . S
C890 C891 1.372 . S
C891 C890 1.372 . S
C891 C892 1.400 . S
C891 C896 1.490 . S
C892 H882 0.930 . S
C892 C891 1.400 . S
C892 C895 1.386 . S
H893 C909 0.930 . S
H894 C910 0.931 . S
C895 H883 0.929 . S
C895 C889 1.390 . S
C895 C892 1.386 . S
C896 C891 1.490 . S
C896 C898 1.395 . S
C896 C899 1.403 1_655 S
H897 C903 0.930 . S
C898 H884 0.930 . S
C898 C896 1.395 . S
C898 C901 1.403 . S
C899 C896 1.403 1_455 S
C899 C900 1.524 . S
C899 C903 1.400 . S
C900 H885 0.960 . S
C900 H886 0.960 . S
C900 H887 0.960 . S
C900 C899 1.524 . S
C901 C898 1.403 . S
C901 C902 1.392 . S
C901 C905 1.495 . S
C902 C901 1.392 . S
C902 C903 1.385 1_655 S
C902 C904 1.477 1_655 S
C903 H897 0.930 . S
C903 C899 1.400 . S
C903 C902 1.385 1_455 S
C904 C902 1.477 1_455 S
C904 C906 1.382 . S
C904 C910 1.383 . S
C905 C901 1.495 . S
C905 H911 0.959 . S
C905 H912 0.961 . S
C905 H913 0.960 . S
C906 C904 1.382 . S
C906 C907 1.394 . S
C906 H914 0.930 1_455 S
C907 C906 1.394 . S
C907 C908 1.383 . S
C907 H915 0.929 . S
C908 C907 1.383 . S
C908 C909 1.377 . S
C909 H893 0.930 . S
C909 C908 1.377 . S
C909 C910 1.379 . S
C910 H894 0.931 . S
C910 C904 1.383 . S
C910 C909 1.379 . S
H911 C905 0.959 . S
H912 C905 0.961 . S
H913 C905 0.960 . S
H914 C906 0.930 1_655 S
H915 C907 0.929 . S
H916 C924 0.929 . S
H917 C926 0.930 . S
H918 C928 0.930 . S
H919 C931 0.929 . S
H920 C934 0.930 . S
H921 C936 0.960 . S
H922 C936 0.960 . S
H923 C936 0.960 . S
C924 H916 0.929 . S
C924 C925 1.377 . S
C924 C926 1.384 . S
C925 C924 1.377 . S
C925 C931 1.390 . S
C926 H917 0.930 . S
C926 C924 1.384 . S
C926 C927 1.372 . S
C927 C926 1.372 . S
C927 C928 1.400 . S
C927 C932 1.490 . S
C928 H918 0.930 . S
C928 C927 1.400 . S
C928 C931 1.386 . S
H929 C945 0.930 . S
H930 C946 0.931 . S
C931 H919 0.929 . S
C931 C925 1.390 . S
C931 C928 1.386 . S
C932 C927 1.490 . S
C932 C934 1.395 . S
C932 C935 1.403 . S
H933 C939 0.930 . S
C934 H920 0.930 . S
C934 C932 1.395 . S
C934 C937 1.403 . S
C935 C932 1.403 . S
C935 C936 1.524 . S
C935 C939 1.400 . S
C936 H921 0.960 . S
C936 H922 0.960 . S
C936 H923 0.960 . S
C936 C935 1.524 . S
C937 C934 1.403 . S
C937 C938 1.392 . S
C937 C941 1.495 . S
C938 C937 1.392 . S
C938 C939 1.385 . S
C938 C940 1.478 1_554 S
C939 H933 0.930 . S
C939 C935 1.400 . S
C939 C938 1.385 . S
C940 C938 1.478 1_556 S
C940 C942 1.381 . S
C940 C946 1.383 . S
C941 C937 1.495 . S
C941 H947 0.959 . S
C941 H948 0.961 . S
C941 H949 0.960 . S
C942 C940 1.381 . S
C942 C943 1.394 . S
C942 H950 0.930 . S
C943 C942 1.394 . S
C943 C944 1.383 . S
C943 H951 0.929 . S
C944 C943 1.383 . S
C944 C945 1.377 . S
C945 H929 0.930 . S
C945 C944 1.377 . S
C945 C946 1.379 . S
C946 H930 0.931 . S
C946 C940 1.383 . S
C946 C945 1.379 . S
H947 C941 0.959 . S
H948 C941 0.961 . S
H949 C941 0.960 . S
H950 C942 0.930 . S
H951 C943 0.929 . S
H952 C960 0.929 . S
H953 C962 0.930 . S
H954 C964 0.930 . S
H955 C967 0.929 . S
H956 C970 0.930 . S
H957 C972 0.960 . S
H958 C972 0.960 . S
H959 C972 0.960 . S
C960 H952 0.929 . S
C960 C961 1.377 . S
C960 C962 1.384 . S
C961 C960 1.377 . S
C961 C967 1.390 . S
C962 H953 0.930 . S
C962 C960 1.384 . S
C962 C963 1.372 . S
C963 C962 1.372 . S
C963 C964 1.400 . S
C963 C968 1.490 . S
C964 H954 0.930 . S
C964 C963 1.400 . S
C964 C967 1.386 . S
H965 C981 0.930 . S
H966 C982 0.931 . S
C967 H955 0.929 . S
C967 C961 1.390 . S
C967 C964 1.386 . S
C968 C963 1.490 . S
C968 C970 1.395 . S
C968 C971 1.403 . S
H969 C975 0.930 . S
C970 H956 0.930 . S
C970 C968 1.395 . S
C970 C973 1.403 . S
C971 C968 1.403 . S
C971 C972 1.524 . S
C971 C975 1.400 . S
C972 H957 0.960 . S
C972 H958 0.960 . S
C972 H959 0.960 . S
C972 C971 1.524 . S
C973 C970 1.403 . S
C973 C974 1.392 . S
C973 C977 1.495 . S
C974 C973 1.392 . S
C974 C975 1.385 . S
C974 C976 1.478 . S
C975 H969 0.930 . S
C975 C971 1.400 . S
C975 C974 1.385 . S
C976 C974 1.478 . S
C976 C978 1.381 . S
C976 C982 1.383 . S
C977 C973 1.495 . S
C977 H983 0.959 . S
C977 H984 0.961 . S
C977 H985 0.960 . S
C978 C976 1.381 . S
C978 C979 1.394 . S
C978 H986 0.930 . S
C979 C978 1.394 . S
C979 C980 1.383 . S
C979 H987 0.929 . S
C980 C979 1.383 . S
C980 C981 1.377 . S
C981 H965 0.930 . S
C981 C980 1.377 . S
C981 C982 1.379 . S
C982 H966 0.931 . S
C982 C976 1.383 . S
C982 C981 1.379 . S
H983 C977 0.959 . S
H984 C977 0.961 . S
H985 C977 0.960 . S
H986 C978 0.930 . S
H987 C979 0.929 . S
H988 C996 0.929 . S
H989 C998 0.930 . S
H990 C1000 0.930 . S
H991 C1003 0.929 . S
H992 C1006 0.930 . S
H993 C1008 0.960 . S
H994 C1008 0.960 . S
H995 C1008 0.960 . S
C996 H988 0.929 . S
C996 C997 1.377 . S
C996 C998 1.384 . S
C997 C996 1.377 . S
C997 C1003 1.390 . S
C998 H989 0.930 . S
C998 C996 1.384 . S
C998 C999 1.372 . S
C999 C998 1.372 . S
C999 C1000 1.400 . S
C999 C1004 1.490 . S
C1000 H990 0.930 . S
C1000 C999 1.400 . S
C1000 C1003 1.386 . S
H1001 C1017 0.930 . S
H1002 C1018 0.931 . S
C1003 H991 0.929 . S
C1003 C997 1.390 . S
C1003 C1000 1.386 . S
C1004 C999 1.490 . S
C1004 C1006 1.395 . S
C1004 C1007 1.403 . S
H1005 C1011 0.930 . S
C1006 H992 0.930 . S
C1006 C1004 1.395 . S
C1006 C1009 1.403 . S
C1007 C1004 1.403 . S
C1007 C1008 1.524 . S
C1007 C1011 1.400 . S
C1008 H993 0.960 . S
C1008 H994 0.960 . S
C1008 H995 0.960 . S
C1008 C1007 1.524 . S
C1009 C1006 1.403 . S
C1009 C1010 1.392 . S
C1009 C1013 1.495 . S
C1010 C1009 1.392 . S
C1010 C1011 1.385 . S
C1010 C1012 1.478 . S
C1011 H1005 0.930 . S
C1011 C1007 1.400 . S
C1011 C1010 1.385 . S
C1012 C1010 1.478 . S
C1012 C1014 1.381 . S
C1012 C1018 1.383 . S
C1013 C1009 1.495 . S
C1013 H1019 0.959 . S
C1013 H1020 0.961 . S
C1013 H1021 0.960 . S
C1014 C1012 1.381 . S
C1014 C1015 1.394 . S
C1014 H1022 0.930 . S
C1015 C1014 1.394 . S
C1015 C1016 1.383 . S
C1015 H1023 0.929 . S
C1016 C1015 1.383 . S
C1016 C1017 1.377 . S
C1017 H1001 0.930 . S
C1017 C1016 1.377 . S
C1017 C1018 1.379 . S
C1018 H1002 0.931 . S
C1018 C1012 1.383 . S
C1018 C1017 1.379 . S
H1019 C1013 0.959 . S
H1020 C1013 0.961 . S
H1021 C1013 0.960 . S
H1022 C1014 0.930 . S
H1023 C1015 0.929 . S
H1024 C1032 0.929 . S
H1025 C1034 0.930 . S
H1026 C1036 0.930 . S
H1027 C1039 0.929 . S
H1028 C1042 0.930 . S
H1029 C1044 0.960 . S
H1030 C1044 0.960 . S
H1031 C1044 0.960 . S
C1032 H1024 0.929 . S
C1032 C1033 1.377 . S
C1032 C1034 1.384 . S
C1033 C1032 1.377 . S
C1033 C1039 1.390 . S
C1034 H1025 0.930 . S
C1034 C1032 1.384 . S
C1034 C1035 1.372 . S
C1035 C1034 1.372 . S
C1035 C1036 1.400 . S
C1035 C1040 1.490 . S
C1036 H1026 0.930 . S
C1036 C1035 1.400 . S
C1036 C1039 1.386 . S
H1037 C1053 0.930 . S
H1038 C1054 0.931 . S
C1039 H1027 0.929 . S
C1039 C1033 1.390 . S
C1039 C1036 1.386 . S
C1040 C1035 1.490 . S
C1040 C1042 1.395 . S
C1040 C1043 1.403 . S
H1041 C1047 0.930 . S
C1042 H1028 0.930 . S
C1042 C1040 1.395 . S
C1042 C1045 1.403 . S
C1043 C1040 1.403 . S
C1043 C1044 1.524 . S
C1043 C1047 1.400 . S
C1044 H1029 0.960 . S
C1044 H1030 0.960 . S
C1044 H1031 0.960 . S
C1044 C1043 1.524 . S
C1045 C1042 1.403 . S
C1045 C1046 1.392 . S
C1045 C1049 1.495 . S
C1046 C1045 1.392 . S
C1046 C1047 1.385 . S
C1046 C1048 1.478 . S
C1047 H1041 0.930 . S
C1047 C1043 1.400 . S
C1047 C1046 1.385 . S
C1048 C1046 1.478 . S
C1048 C1050 1.381 . S
C1048 C1054 1.383 . S
C1049 C1045 1.495 . S
C1049 H1055 0.959 . S
C1049 H1056 0.961 . S
C1049 H1057 0.960 . S
C1050 C1048 1.381 . S
C1050 C1051 1.394 . S
C1050 H1058 0.930 . S
C1051 C1050 1.394 . S
C1051 C1052 1.383 . S
C1051 H1059 0.929 . S
C1052 C1051 1.383 . S
C1052 C1053 1.377 . S
C1053 H1037 0.930 . S
C1053 C1052 1.377 . S
C1053 C1054 1.379 . S
C1054 H1038 0.931 . S
C1054 C1048 1.383 . S
C1054 C1053 1.379 . S
H1055 C1049 0.959 . S
H1056 C1049 0.961 . S
H1057 C1049 0.960 . S
H1058 C1050 0.930 . S
H1059 C1051 0.929 . S
H1060 C1068 0.929 . S
H1061 C1070 0.930 . S
H1062 C1072 0.930 . S
H1063 C1075 0.929 . S
H1064 C1078 0.930 . S
H1065 C1080 0.960 . S
H1066 C1080 0.960 . S
H1067 C1080 0.960 . S
C1068 H1060 0.929 . S
C1068 C1069 1.377 . S
C1068 C1070 1.384 . S
C1069 C1068 1.377 . S
C1069 C1075 1.390 . S
C1070 H1061 0.930 . S
C1070 C1068 1.384 . S
C1070 C1071 1.372 . S
C1071 C1070 1.372 . S
C1071 C1072 1.400 . S
C1071 C1076 1.490 . S
C1072 H1062 0.930 . S
C1072 C1071 1.400 . S
C1072 C1075 1.386 . S
H1073 C1089 0.930 . S
H1074 C1090 0.931 . S
C1075 H1063 0.929 . S
C1075 C1069 1.390 . S
C1075 C1072 1.386 . S
C1076 C1071 1.490 . S
C1076 C1078 1.395 . S
C1076 C1079 1.403 . S
H1077 C1083 0.930 . S
C1078 H1064 0.930 . S
C1078 C1076 1.395 . S
C1078 C1081 1.403 . S
C1079 C1076 1.403 . S
C1079 C1080 1.524 . S
C1079 C1083 1.400 . S
C1080 H1065 0.960 . S
C1080 H1066 0.960 . S
C1080 H1067 0.960 . S
C1080 C1079 1.524 . S
C1081 C1078 1.403 . S
C1081 C1082 1.392 . S
C1081 C1085 1.495 . S
C1082 C1081 1.392 . S
C1082 C1083 1.385 . S
C1082 C1084 1.478 . S
C1083 H1077 0.930 . S
C1083 C1079 1.400 . S
C1083 C1082 1.385 . S
C1084 C1082 1.478 . S
C1084 C1086 1.381 . S
C1084 C1090 1.383 . S
C1085 C1081 1.495 . S
C1085 H1091 0.959 . S
C1085 H1092 0.961 . S
C1085 H1093 0.960 . S
C1086 C1084 1.381 . S
C1086 C1087 1.394 . S
C1086 H1094 0.930 . S
C1087 C1086 1.394 . S
C1087 C1088 1.383 . S
C1087 H1095 0.929 . S
C1088 C1087 1.383 . S
C1088 C1089 1.377 . S
C1089 H1073 0.930 . S
C1089 C1088 1.377 . S
C1089 C1090 1.379 . S
C1090 H1074 0.931 . S
C1090 C1084 1.383 . S
C1090 C1089 1.379 . S
H1091 C1085 0.959 . S
H1092 C1085 0.961 . S
H1093 C1085 0.960 . S
H1094 C1086 0.930 . S
H1095 C1087 0.929 . S
H1096 C1104 0.929 . S
H1097 C1106 0.930 . S
H1098 C1108 0.930 . S
H1099 C1111 0.929 . S
H1100 C1114 0.930 . S
H1101 C1116 0.960 . S
H1102 C1116 0.960 . S
H1103 C1116 0.960 . S
C1104 H1096 0.929 . S
C1104 C1105 1.377 1_655 S
C1104 C1106 1.384 . S
C1105 C1104 1.377 1_455 S
C1105 C1111 1.390 . S
C1106 H1097 0.930 . S
C1106 C1104 1.384 . S
C1106 C1107 1.372 1_655 S
C1107 C1106 1.372 1_455 S
C1107 C1108 1.400 . S
C1107 C1112 1.487 1_455 S
C1108 H1098 0.930 . S
C1108 C1107 1.400 . S
C1108 C1111 1.386 . S
H1109 C1125 0.949 . S
H1110 C1126 0.931 . S
C1111 H1099 0.929 . S
C1111 C1105 1.390 . S
C1111 C1108 1.386 . S
C1112 C1107 1.487 1_655 S
C1112 C1114 1.411 . S
C1112 C1115 1.390 1_655 S
H1113 C1119 0.930 . S
C1114 H1100 0.930 . S
C1114 C1112 1.411 . S
C1114 C1117 1.403 . S
C1115 C1112 1.390 1_455 S
C1115 C1116 1.524 . S
C1115 C1119 1.400 . S
C1116 H1101 0.960 . S
C1116 H1102 0.960 . S
C1116 H1103 0.960 . S
C1116 C1115 1.524 . S
C1117 C1114 1.403 . S
C1117 C1118 1.392 . S
C1117 C1121 1.495 . S
C1118 C1117 1.392 . S
C1118 C1119 1.385 1_655 S
C1118 C1120 1.478 . S
C1119 H1113 0.930 . S
C1119 C1115 1.400 . S
C1119 C1118 1.385 1_455 S
C1120 C1118 1.478 . S
C1120 C1122 1.381 . S
C1120 C1126 1.383 1_655 S
C1121 C1117 1.495 . S
C1121 H1127 0.959 . S
C1121 H1128 0.961 . S
C1121 H1129 0.960 . S
C1122 C1120 1.381 . S
C1122 C1123 1.394 . S
C1122 H1130 0.930 . S
C1123 C1122 1.394 . S
C1123 C1124 1.383 . S
C1123 H1131 0.929 . S
C1124 C1123 1.383 . S
C1124 C1125 1.356 1_655 S
C1125 H1109 0.949 . S
C1125 C1124 1.356 1_455 S
C1125 C1126 1.382 . S
C1126 H1110 0.931 . S
C1126 C1120 1.383 1_455 S
C1126 C1125 1.382 . S
H1127 C1121 0.959 . S
H1128 C1121 0.961 . S
H1129 C1121 0.960 . S
H1130 C1122 0.930 . S
H1131 C1123 0.929 . S
H1132 C1140 0.929 . S
H1133 C1142 0.930 . S
H1134 C1144 0.930 . S
H1135 C1147 0.929 . S
H1136 C1150 0.930 . S
H1137 C1152 0.960 . S
H1138 C1152 0.960 . S
H1139 C1152 0.960 . S
C1140 H1132 0.929 . S
C1140 C1141 1.377 . S
C1140 C1142 1.384 . S
C1141 C1140 1.377 . S
C1141 C1147 1.390 . S
C1142 H1133 0.930 . S
C1142 C1140 1.384 . S
C1142 C1143 1.372 . S
C1143 C1142 1.372 . S
C1143 C1144 1.400 . S
C1143 C1148 1.490 . S
C1144 H1134 0.930 . S
C1144 C1143 1.400 . S
C1144 C1147 1.386 . S
H1145 C1161 0.930 . S
H1146 C1162 0.931 . S
C1147 H1135 0.929 . S
C1147 C1141 1.390 . S
C1147 C1144 1.386 . S
C1148 C1143 1.490 . S
C1148 C1150 1.395 . S
C1148 C1151 1.403 . S
H1149 C1155 0.930 . S
C1150 H1136 0.930 . S
C1150 C1148 1.395 . S
C1150 C1153 1.403 . S
C1151 C1148 1.403 . S
C1151 C1152 1.524 . S
C1151 C1155 1.400 . S
C1152 H1137 0.960 . S
C1152 H1138 0.960 . S
C1152 H1139 0.960 . S
C1152 C1151 1.524 . S
C1153 C1150 1.403 . S
C1153 C1154 1.392 . S
C1153 C1157 1.495 . S
C1154 C1153 1.392 . S
C1154 C1155 1.385 . S
C1154 C1156 1.478 1_554 S
C1155 H1149 0.930 . S
C1155 C1151 1.400 . S
C1155 C1154 1.385 . S
C1156 C1154 1.478 1_556 S
C1156 C1158 1.381 . S
C1156 C1162 1.383 . S
C1157 C1153 1.495 . S
C1157 H1163 0.959 . S
C1157 H1164 0.961 . S
C1157 H1165 0.960 . S
C1158 C1156 1.381 . S
C1158 C1159 1.394 . S
C1158 H1166 0.930 . S
C1159 C1158 1.394 . S
C1159 C1160 1.383 . S
C1159 H1167 0.929 . S
C1160 C1159 1.383 . S
C1160 C1161 1.377 . S
C1161 H1145 0.930 . S
C1161 C1160 1.377 . S
C1161 C1162 1.379 . S
C1162 H1146 0.931 . S
C1162 C1156 1.383 . S
C1162 C1161 1.379 . S
H1163 C1157 0.959 . S
H1164 C1157 0.961 . S
H1165 C1157 0.960 . S
H1166 C1158 0.930 . S
H1167 C1159 0.929 . S
H1168 C1176 0.929 . S
H1169 C1178 0.930 . S
H1170 C1180 0.930 . S
H1171 C1183 0.929 . S
H1172 C1186 0.930 . S
H1173 C1188 0.960 . S
H1174 C1188 0.960 . S
H1175 C1188 0.960 . S
C1176 H1168 0.929 . S
C1176 C1177 1.377 . S
C1176 C1178 1.384 . S
C1177 C1176 1.377 . S
C1177 C1183 1.390 . S
C1178 H1169 0.930 . S
C1178 C1176 1.384 . S
C1178 C1179 1.372 . S
C1179 C1178 1.372 . S
C1179 C1180 1.400 . S
C1179 C1184 1.490 . S
C1180 H1170 0.930 . S
C1180 C1179 1.400 . S
C1180 C1183 1.386 . S
H1181 C1197 0.930 . S
H1182 C1198 0.931 . S
C1183 H1171 0.929 . S
C1183 C1177 1.390 . S
C1183 C1180 1.386 . S
C1184 C1179 1.490 . S
C1184 C1186 1.395 . S
C1184 C1187 1.403 . S
H1185 C1191 0.930 . S
C1186 H1172 0.930 . S
C1186 C1184 1.395 . S
C1186 C1189 1.403 . S
C1187 C1184 1.403 . S
C1187 C1188 1.524 . S
C1187 C1191 1.400 . S
C1188 H1173 0.960 . S
C1188 H1174 0.960 . S
C1188 H1175 0.960 . S
C1188 C1187 1.524 . S
C1189 C1186 1.403 . S
C1189 C1190 1.392 . S
C1189 C1193 1.495 . S
C1190 C1189 1.392 . S
C1190 C1191 1.385 . S
C1190 C1192 1.478 . S
C1191 H1185 0.930 . S
C1191 C1187 1.400 . S
C1191 C1190 1.385 . S
C1192 C1190 1.478 . S
C1192 C1194 1.381 . S
C1192 C1198 1.383 . S
C1193 C1189 1.495 . S
C1193 H1199 0.959 . S
C1193 H1200 0.961 . S
C1193 H1201 0.960 . S
C1194 C1192 1.381 . S
C1194 C1195 1.394 . S
C1194 H1202 0.930 . S
C1195 C1194 1.394 . S
C1195 C1196 1.383 . S
C1195 H1203 0.929 . S
C1196 C1195 1.383 . S
C1196 C1197 1.377 . S
C1197 H1181 0.930 . S
C1197 C1196 1.377 . S
C1197 C1198 1.379 . S
C1198 H1182 0.931 . S
C1198 C1192 1.383 . S
C1198 C1197 1.379 . S
H1199 C1193 0.959 . S
H1200 C1193 0.961 . S
H1201 C1193 0.960 . S
H1202 C1194 0.930 . S
H1203 C1195 0.929 . S
H1204 C1212 0.929 . S
H1205 C1214 0.930 . S
H1206 C1216 0.930 . S
H1207 C1219 0.929 . S
H1208 C1222 0.930 . S
H1209 C1224 0.960 . S
H1210 C1224 0.960 . S
H1211 C1224 0.960 . S
C1212 H1204 0.929 . S
C1212 C1213 1.377 . S
C1212 C1214 1.384 . S
C1213 C1212 1.377 . S
C1213 C1219 1.390 . S
C1214 H1205 0.930 . S
C1214 C1212 1.384 . S
C1214 C1215 1.372 . S
C1215 C1214 1.372 . S
C1215 C1216 1.400 . S
C1215 C1220 1.490 . S
C1216 H1206 0.930 . S
C1216 C1215 1.400 . S
C1216 C1219 1.386 . S
H1217 C1233 0.930 . S
H1218 C1234 0.931 . S
C1219 H1207 0.929 . S
C1219 C1213 1.390 . S
C1219 C1216 1.386 . S
C1220 C1215 1.490 . S
C1220 C1222 1.395 . S
C1220 C1223 1.403 . S
H1221 C1227 0.930 . S
C1222 H1208 0.930 . S
C1222 C1220 1.395 . S
C1222 C1225 1.403 . S
C1223 C1220 1.403 . S
C1223 C1224 1.524 . S
C1223 C1227 1.400 . S
C1224 H1209 0.960 . S
C1224 H1210 0.960 . S
C1224 H1211 0.960 . S
C1224 C1223 1.524 . S
C1225 C1222 1.403 . S
C1225 C1226 1.392 . S
C1225 C1229 1.495 . S
C1226 C1225 1.392 . S
C1226 C1227 1.385 . S
C1226 C1228 1.478 . S
C1227 H1221 0.930 . S
C1227 C1223 1.400 . S
C1227 C1226 1.385 . S
C1228 C1226 1.478 . S
C1228 C1230 1.381 . S
C1228 C1234 1.383 . S
C1229 C1225 1.495 . S
C1229 H1235 0.959 . S
C1229 H1236 0.961 . S
C1229 H1237 0.960 . S
C1230 C1228 1.381 . S
C1230 C1231 1.394 . S
C1230 H1238 0.930 . S
C1231 C1230 1.394 . S
C1231 C1232 1.383 . S
C1231 H1239 0.929 . S
C1232 C1231 1.383 . S
C1232 C1233 1.377 . S
C1233 H1217 0.930 . S
C1233 C1232 1.377 . S
C1233 C1234 1.379 . S
C1234 H1218 0.931 . S
C1234 C1228 1.383 . S
C1234 C1233 1.379 . S
H1235 C1229 0.959 . S
H1236 C1229 0.961 . S
H1237 C1229 0.960 . S
H1238 C1230 0.930 . S
H1239 C1231 0.929 . S
H1240 C1248 0.929 . S
H1241 C1250 0.930 . S
H1242 C1252 0.930 . S
H1243 C1255 0.929 . S
H1244 C1258 0.930 . S
H1245 C1260 0.960 . S
H1246 C1260 0.960 . S
H1247 C1260 0.960 . S
C1248 H1240 0.929 . S
C1248 C1249 1.377 1_655 S
C1248 C1250 1.384 . S
C1249 C1248 1.377 1_455 S
C1249 C1255 1.390 . S
C1250 H1241 0.930 . S
C1250 C1248 1.384 . S
C1250 C1251 1.372 1_655 S
C1251 C1250 1.372 1_455 S
C1251 C1252 1.400 . S
C1251 C1256 1.488 1_455 S
C1252 H1242 0.930 . S
C1252 C1251 1.400 . S
C1252 C1255 1.386 . S
H1253 C1269 0.930 . S
H1254 C1270 0.931 . S
C1255 H1243 0.929 . S
C1255 C1249 1.390 . S
C1255 C1252 1.386 . S
C1256 C1251 1.488 1_655 S
C1256 C1258 1.400 . S
C1256 C1259 1.399 1_655 S
H1257 C1263 0.953 . S
C1258 H1244 0.930 . S
C1258 C1256 1.400 . S
C1258 C1261 1.403 . S
C1259 C1256 1.399 1_455 S
C1259 C1260 1.524 . S
C1259 C1263 1.414 . S
C1260 H1245 0.960 . S
C1260 H1246 0.960 . S
C1260 H1247 0.960 . S
C1260 C1259 1.524 . S
C1261 C1258 1.403 . S
C1261 C1262 1.392 . S
C1261 C1265 1.495 . S
C1262 C1261 1.392 . S
C1262 C1263 1.357 1_655 S
C1262 C1264 1.478 . S
C1263 H1257 0.953 . S
C1263 C1259 1.414 . S
C1263 C1262 1.357 1_455 S
C1264 C1262 1.478 . S
C1264 C1266 1.381 . S
C1264 C1270 1.383 1_655 S
C1265 C1261 1.495 . S
C1265 H1271 0.959 . S
C1265 H1272 0.961 . S
C1265 H1273 0.960 . S
C1266 C1264 1.381 . S
C1266 C1267 1.394 . S
C1266 H1274 0.930 . S
C1267 C1266 1.394 . S
C1267 C1268 1.383 . S
C1267 H1275 0.929 . S
C1268 C1267 1.383 . S
C1268 C1269 1.377 1_655 S
C1269 H1253 0.930 . S
C1269 C1268 1.377 1_455 S
C1269 C1270 1.379 . S
C1270 H1254 0.931 . S
C1270 C1264 1.383 1_455 S
C1270 C1269 1.379 . S
H1271 C1265 0.959 . S
H1272 C1265 0.961 . S
H1273 C1265 0.960 . S
H1274 C1266 0.930 . S
H1275 C1267 0.929 . S
H1276 C1284 0.929 . S
H1277 C1286 0.930 . S
H1278 C1288 0.930 . S
H1279 C1291 0.929 . S
H1280 C1294 0.930 . S
H1281 C1296 0.960 . S
H1282 C1296 0.960 . S
H1283 C1296 0.960 . S
C1284 H1276 0.929 . S
C1284 C1285 1.377 . S
C1284 C1286 1.384 . S
C1285 C1284 1.377 . S
C1285 C1291 1.390 . S
C1286 H1277 0.930 . S
C1286 C1284 1.384 . S
C1286 C1287 1.372 . S
C1287 C1286 1.372 . S
C1287 C1288 1.400 . S
C1287 C1292 1.490 1_554 S
C1288 H1278 0.930 . S
C1288 C1287 1.400 . S
C1288 C1291 1.386 . S
H1289 C1305 0.930 . S
H1290 C1306 0.931 . S
C1291 H1279 0.929 . S
C1291 C1285 1.390 . S
C1291 C1288 1.386 . S
C1292 C1287 1.490 1_556 S
C1292 C1294 1.395 . S
C1292 C1295 1.403 . S
H1293 C1299 0.930 . S
C1294 H1280 0.930 . S
C1294 C1292 1.395 . S
C1294 C1297 1.403 . S
C1295 C1292 1.403 . S
C1295 C1296 1.524 . S
C1295 C1299 1.400 . S
C1296 H1281 0.960 . S
C1296 H1282 0.960 . S
C1296 H1283 0.960 . S
C1296 C1295 1.524 . S
C1297 C1294 1.403 . S
C1297 C1298 1.392 . S
C1297 C1301 1.495 . S
C1298 C1297 1.392 . S
C1298 C1299 1.385 . S
C1298 C1300 1.478 . S
C1299 H1293 0.930 . S
C1299 C1295 1.400 . S
C1299 C1298 1.385 . S
C1300 C1298 1.478 . S
C1300 C1302 1.381 . S
C1300 C1306 1.383 . S
C1301 C1297 1.495 . S
C1301 H1307 0.959 . S
C1301 H1308 0.961 . S
C1301 H1309 0.960 . S
C1302 C1300 1.381 . S
C1302 C1303 1.394 . S
C1302 H1310 0.930 . S
C1303 C1302 1.394 . S
C1303 C1304 1.383 . S
C1303 H1311 0.929 . S
C1304 C1303 1.383 . S
C1304 C1305 1.377 . S
C1305 H1289 0.930 . S
C1305 C1304 1.377 . S
C1305 C1306 1.379 . S
C1306 H1290 0.931 . S
C1306 C1300 1.383 . S
C1306 C1305 1.379 . S
H1307 C1301 0.959 . S
H1308 C1301 0.961 . S
H1309 C1301 0.960 . S
H1310 C1302 0.930 . S
H1311 C1303 0.929 . S
H1312 C1320 0.929 . S
H1313 C1322 0.930 . S
H1314 C1324 0.930 . S
H1315 C1327 0.929 . S
H1316 C1330 0.930 . S
H1317 C1332 0.960 . S
H1318 C1332 0.960 . S
H1319 C1332 0.960 . S
C1320 H1312 0.929 . S
C1320 C1321 1.377 . S
C1320 C1322 1.384 . S
C1321 C1320 1.377 . S
C1321 C1327 1.390 . S
C1322 H1313 0.930 . S
C1322 C1320 1.384 . S
C1322 C1323 1.372 . S
C1323 C1322 1.372 . S
C1323 C1324 1.400 . S
C1323 C1328 1.490 . S
C1324 H1314 0.930 . S
C1324 C1323 1.400 . S
C1324 C1327 1.386 . S
H1325 C1341 0.930 . S
H1326 C1342 0.931 . S
C1327 H1315 0.929 . S
C1327 C1321 1.390 . S
C1327 C1324 1.386 . S
C1328 C1323 1.490 . S
C1328 C1330 1.395 . S
C1328 C1331 1.403 . S
H1329 C1335 0.930 . S
C1330 H1316 0.930 . S
C1330 C1328 1.395 . S
C1330 C1333 1.403 . S
C1331 C1328 1.403 . S
C1331 C1332 1.524 . S
C1331 C1335 1.400 . S
C1332 H1317 0.960 . S
C1332 H1318 0.960 . S
C1332 H1319 0.960 . S
C1332 C1331 1.524 . S
C1333 C1330 1.403 . S
C1333 C1334 1.392 . S
C1333 C1337 1.495 . S
C1334 C1333 1.392 . S
C1334 C1335 1.385 . S
C1334 C1336 1.478 . S
C1335 H1329 0.930 . S
C1335 C1331 1.400 . S
C1335 C1334 1.385 . S
C1336 C1334 1.478 . S
C1336 C1338 1.381 . S
C1336 C1342 1.383 . S
C1337 C1333 1.495 . S
C1337 H1343 0.959 . S
C1337 H1344 0.961 . S
C1337 H1345 0.960 . S
C1338 C1336 1.381 . S
C1338 C1339 1.394 . S
C1338 H1346 0.930 . S
C1339 C1338 1.394 . S
C1339 C1340 1.383 . S
C1339 H1347 0.929 . S
C1340 C1339 1.383 . S
C1340 C1341 1.377 . S
C1341 H1325 0.930 . S
C1341 C1340 1.377 . S
C1341 C1342 1.379 . S
C1342 H1326 0.931 . S
C1342 C1336 1.383 . S
C1342 C1341 1.379 . S
H1343 C1337 0.959 . S
H1344 C1337 0.961 . S
H1345 C1337 0.960 . S
H1346 C1338 0.930 . S
H1347 C1339 0.929 . S
H1348 C1356 0.929 . S
H1349 C1358 0.930 . S
H1350 C1360 0.930 . S
H1351 C1363 0.929 . S
H1352 C1366 0.930 . S
H1353 C1368 0.960 . S
H1354 C1368 0.960 . S
H1355 C1368 0.960 . S
C1356 H1348 0.929 . S
C1356 C1357 1.377 . S
C1356 C1358 1.384 . S
C1357 C1356 1.377 . S
C1357 C1363 1.390 . S
C1358 H1349 0.930 . S
C1358 C1356 1.384 . S
C1358 C1359 1.372 . S
C1359 C1358 1.372 . S
C1359 C1360 1.400 . S
C1359 C1364 1.490 . S
C1360 H1350 0.930 . S
C1360 C1359 1.400 . S
C1360 C1363 1.386 . S
H1361 C1377 0.930 . S
H1362 C1378 0.931 . S
C1363 H1351 0.929 . S
C1363 C1357 1.390 . S
C1363 C1360 1.386 . S
C1364 C1359 1.490 . S
C1364 C1366 1.395 . S
C1364 C1367 1.403 . S
H1365 C1371 0.930 . S
C1366 H1352 0.930 . S
C1366 C1364 1.395 . S
C1366 C1369 1.403 . S
C1367 C1364 1.403 . S
C1367 C1368 1.524 . S
C1367 C1371 1.400 . S
C1368 H1353 0.960 . S
C1368 H1354 0.960 . S
C1368 H1355 0.960 . S
C1368 C1367 1.524 . S
C1369 C1366 1.403 . S
C1369 C1370 1.392 . S
C1369 C1373 1.495 . S
C1370 C1369 1.392 . S
C1370 C1371 1.385 . S
C1370 C1372 1.478 . S
C1371 H1365 0.930 . S
C1371 C1367 1.400 . S
C1371 C1370 1.385 . S
C1372 C1370 1.478 . S
C1372 C1374 1.381 . S
C1372 C1378 1.383 . S
C1373 C1369 1.495 . S
C1373 H1379 0.959 . S
C1373 H1380 0.961 . S
C1373 H1381 0.960 . S
C1374 C1372 1.381 . S
C1374 C1375 1.394 . S
C1374 H1382 0.930 . S
C1375 C1374 1.394 . S
C1375 C1376 1.383 . S
C1375 H1383 0.929 . S
C1376 C1375 1.383 . S
C1376 C1377 1.377 . S
C1377 H1361 0.930 . S
C1377 C1376 1.377 . S
C1377 C1378 1.379 . S
C1378 H1362 0.931 . S
C1378 C1372 1.383 . S
C1378 C1377 1.379 . S
H1379 C1373 0.959 . S
H1380 C1373 0.961 . S
H1381 C1373 0.960 . S
H1382 C1374 0.930 . S
H1383 C1375 0.929 . S
H1384 C1392 0.929 . S
H1385 C1394 0.930 . S
H1386 C1396 0.930 1_655 S
H1387 C1399 0.929 . S
H1388 C1402 0.930 . S
H1389 C1404 0.960 . S
H1390 C1404 0.960 . S
H1391 C1404 0.960 . S
C1392 H1384 0.929 . S
C1392 C1393 1.377 . S
C1392 C1394 1.384 . S
C1393 C1392 1.377 . S
C1393 C1399 1.390 . S
C1394 H1385 0.930 . S
C1394 C1392 1.384 . S
C1394 C1395 1.372 . S
C1395 C1394 1.372 . S
C1395 C1396 1.400 . S
C1395 C1400 1.490 . S
C1396 H1386 0.930 1_455 S
C1396 C1395 1.400 . S
C1396 C1399 1.386 . S
H1397 C1413 0.930 . S
H1398 C1414 0.931 . S
C1399 H1387 0.929 . S
C1399 C1393 1.390 . S
C1399 C1396 1.386 . S
C1400 C1395 1.490 . S
C1400 C1402 1.395 1_455 S
C1400 C1403 1.403 . S
H1401 C1407 0.930 . S
C1402 H1388 0.930 . S
C1402 C1400 1.395 1_655 S
C1402 C1405 1.403 . S
C1403 C1400 1.403 . S
C1403 C1404 1.524 . S
C1403 C1407 1.400 . S
C1404 H1389 0.960 . S
C1404 H1390 0.960 . S
C1404 H1391 0.960 . S
C1404 C1403 1.524 . S
C1405 C1402 1.403 . S
C1405 C1406 1.392 . S
C1405 C1409 1.495 . S
C1406 C1405 1.392 . S
C1406 C1407 1.385 1_655 S
C1406 C1408 1.478 . S
C1407 H1401 0.930 . S
C1407 C1403 1.400 . S
C1407 C1406 1.385 1_455 S
C1408 C1406 1.478 . S
C1408 C1410 1.367 1_655 S
C1408 C1414 1.383 . S
C1409 C1405 1.495 . S
C1409 H1415 0.959 . S
C1409 H1416 0.961 . S
C1409 H1417 0.960 . S
C1410 C1408 1.367 1_455 S
C1410 C1411 1.389 1_455 S
C1410 H1418 0.950 . S
C1411 C1410 1.389 1_655 S
C1411 C1412 1.414 . S
C1411 H1419 0.907 1_655 S
C1412 C1411 1.414 . S
C1412 C1413 1.377 . S
C1413 H1397 0.930 . S
C1413 C1412 1.377 . S
C1413 C1414 1.379 . S
C1414 H1398 0.931 . S
C1414 C1408 1.383 . S
C1414 C1413 1.379 . S
H1415 C1409 0.959 . S
H1416 C1409 0.961 . S
H1417 C1409 0.960 . S
H1418 C1410 0.950 . S
H1419 C1411 0.907 1_455 S
H1420 C1428 0.929 . S
H1421 C1430 0.930 . S
H1422 C1432 0.930 . S
H1423 C1435 0.929 . S
H1424 C1438 0.930 . S
H1425 C1440 0.960 . S
H1426 C1440 0.960 . S
H1427 C1440 0.960 . S
C1428 H1420 0.929 . S
C1428 C1429 1.377 . S
C1428 C1430 1.384 . S
C1429 C1428 1.377 . S
C1429 C1435 1.390 . S
C1430 H1421 0.930 . S
C1430 C1428 1.384 . S
C1430 C1431 1.372 . S
C1431 C1430 1.372 . S
C1431 C1432 1.400 . S
C1431 C1436 1.490 . S
C1432 H1422 0.930 . S
C1432 C1431 1.400 . S
C1432 C1435 1.386 . S
H1433 C1449 0.930 . S
H1434 C1450 0.931 . S
C1435 H1423 0.929 . S
C1435 C1429 1.390 . S
C1435 C1432 1.386 . S
C1436 C1431 1.490 . S
C1436 C1438 1.395 . S
C1436 C1439 1.403 . S
H1437 C1443 0.930 . S
C1438 H1424 0.930 . S
C1438 C1436 1.395 . S
C1438 C1441 1.403 . S
C1439 C1436 1.403 . S
C1439 C1440 1.524 . S
C1439 C1443 1.400 . S
C1440 H1425 0.960 . S
C1440 H1426 0.960 . S
C1440 H1427 0.960 . S
C1440 C1439 1.524 . S
C1441 C1438 1.403 . S
C1441 C1442 1.392 . S
C1441 C1445 1.495 . S
C1442 C1441 1.392 . S
C1442 C1443 1.385 . S
C1442 C1444 1.478 1_556 S
C1443 H1437 0.930 . S
C1443 C1439 1.400 . S
C1443 C1442 1.385 . S
C1444 C1442 1.478 1_554 S
C1444 C1446 1.381 . S
C1444 C1450 1.383 . S
C1445 C1441 1.495 . S
C1445 H1451 0.959 . S
C1445 H1452 0.961 . S
C1445 H1453 0.960 . S
C1446 C1444 1.381 . S
C1446 C1447 1.394 . S
C1446 H1454 0.930 . S
C1447 C1446 1.394 . S
C1447 C1448 1.383 . S
C1447 H1455 0.929 . S
C1448 C1447 1.383 . S
C1448 C1449 1.377 . S
C1449 H1433 0.930 . S
C1449 C1448 1.377 . S
C1449 C1450 1.379 . S
C1450 H1434 0.931 . S
C1450 C1444 1.383 . S
C1450 C1449 1.379 . S
H1451 C1445 0.959 . S
H1452 C1445 0.961 . S
H1453 C1445 0.960 . S
H1454 C1446 0.930 . S
H1455 C1447 0.929 . S
H1456 C1464 0.929 . S
H1457 C1466 0.930 . S
H1458 C1468 0.930 . S
H1459 C1471 0.929 . S
H1460 C1474 0.930 . S
H1461 C1476 0.960 . S
H1462 C1476 0.960 . S
H1463 C1476 0.960 . S
C1464 H1456 0.929 . S
C1464 C1465 1.377 . S
C1464 C1466 1.384 . S
C1465 C1464 1.377 . S
C1465 C1471 1.390 . S
C1466 H1457 0.930 . S
C1466 C1464 1.384 . S
C1466 C1467 1.372 . S
C1467 C1466 1.372 . S
C1467 C1468 1.400 . S
C1467 C1472 1.490 . S
C1468 H1458 0.930 . S
C1468 C1467 1.400 . S
C1468 C1471 1.386 . S
H1469 C1485 0.930 . S
H1470 C1486 0.931 . S
C1471 H1459 0.929 . S
C1471 C1465 1.390 . S
C1471 C1468 1.386 . S
C1472 C1467 1.490 . S
C1472 C1474 1.395 . S
C1472 C1475 1.403 . S
H1473 C1479 0.930 . S
C1474 H1460 0.930 . S
C1474 C1472 1.395 . S
C1474 C1477 1.403 . S
C1475 C1472 1.403 . S
C1475 C1476 1.524 . S
C1475 C1479 1.400 . S
C1476 H1461 0.960 . S
C1476 H1462 0.960 . S
C1476 H1463 0.960 . S
C1476 C1475 1.524 . S
C1477 C1474 1.403 . S
C1477 C1478 1.392 . S
C1477 C1481 1.495 . S
C1478 C1477 1.392 . S
C1478 C1479 1.385 . S
C1478 C1480 1.478 . S
C1479 H1473 0.930 . S
C1479 C1475 1.400 . S
C1479 C1478 1.385 . S
C1480 C1478 1.478 . S
C1480 C1482 1.381 . S
C1480 C1486 1.383 . S
C1481 C1477 1.495 . S
C1481 H1487 0.959 . S
C1481 H1488 0.961 . S
C1481 H1489 0.960 . S
C1482 C1480 1.381 . S
C1482 C1483 1.394 . S
C1482 H1490 0.930 . S
C1483 C1482 1.394 . S
C1483 C1484 1.383 . S
C1483 H1491 0.929 . S
C1484 C1483 1.383 . S
C1484 C1485 1.377 . S
C1485 H1469 0.930 . S
C1485 C1484 1.377 . S
C1485 C1486 1.379 . S
C1486 H1470 0.931 . S
C1486 C1480 1.383 . S
C1486 C1485 1.379 . S
H1487 C1481 0.959 . S
H1488 C1481 0.961 . S
H1489 C1481 0.960 . S
H1490 C1482 0.930 . S
H1491 C1483 0.929 . S
H1492 C1500 0.929 . S
H1493 C1502 0.930 . S
H1494 C1504 0.930 . S
H1495 C1507 0.929 . S
H1496 C1510 0.930 . S
H1497 C1512 0.960 . S
H1498 C1512 0.960 . S
H1499 C1512 0.960 . S
C1500 H1492 0.929 . S
C1500 C1501 1.377 . S
C1500 C1502 1.384 . S
C1501 C1500 1.377 . S
C1501 C1507 1.390 . S
C1502 H1493 0.930 . S
C1502 C1500 1.384 . S
C1502 C1503 1.372 . S
C1503 C1502 1.372 . S
C1503 C1504 1.400 . S
C1503 C1508 1.490 . S
C1504 H1494 0.930 . S
C1504 C1503 1.400 . S
C1504 C1507 1.386 . S
H1505 C1521 0.930 . S
H1506 C1522 0.931 . S
C1507 H1495 0.929 . S
C1507 C1501 1.390 . S
C1507 C1504 1.386 . S
C1508 C1503 1.490 . S
C1508 C1510 1.395 . S
C1508 C1511 1.403 . S
H1509 C1515 0.930 . S
C1510 H1496 0.930 . S
C1510 C1508 1.395 . S
C1510 C1513 1.403 . S
C1511 C1508 1.403 . S
C1511 C1512 1.524 . S
C1511 C1515 1.400 . S
C1512 H1497 0.960 . S
C1512 H1498 0.960 . S
C1512 H1499 0.960 . S
C1512 C1511 1.524 . S
C1513 C1510 1.403 . S
C1513 C1514 1.392 . S
C1513 C1517 1.495 . S
C1514 C1513 1.392 . S
C1514 C1515 1.385 . S
C1514 C1516 1.478 . S
C1515 H1509 0.930 . S
C1515 C1511 1.400 . S
C1515 C1514 1.385 . S
C1516 C1514 1.478 . S
C1516 C1518 1.381 . S
C1516 C1522 1.383 . S
C1517 C1513 1.495 . S
C1517 H1523 0.959 . S
C1517 H1524 0.961 . S
C1517 H1525 0.960 . S
C1518 C1516 1.381 . S
C1518 C1519 1.394 . S
C1518 H1526 0.930 . S
C1519 C1518 1.394 . S
C1519 C1520 1.383 . S
C1519 H1527 0.929 . S
C1520 C1519 1.383 . S
C1520 C1521 1.377 . S
C1521 H1505 0.930 . S
C1521 C1520 1.377 . S
C1521 C1522 1.379 . S
C1522 H1506 0.931 . S
C1522 C1516 1.383 . S
C1522 C1521 1.379 . S
H1523 C1517 0.959 . S
H1524 C1517 0.961 . S
H1525 C1517 0.960 . S
H1526 C1518 0.930 . S
H1527 C1519 0.929 . S
H1528 C1536 0.929 . S
H1529 C1538 0.930 . S
H1530 C1540 0.930 . S
H1531 C1543 0.929 . S
H1532 C1546 0.930 . S
H1533 C1548 0.960 . S
H1534 C1548 0.960 . S
H1535 C1548 0.960 . S
C1536 H1528 0.929 . S
C1536 C1537 1.377 . S
C1536 C1538 1.384 . S
C1537 C1536 1.377 . S
C1537 C1543 1.390 1_655 S
C1538 H1529 0.930 . S
C1538 C1536 1.384 . S
C1538 C1539 1.372 . S
C1539 C1538 1.372 . S
C1539 C1540 1.400 1_655 S
C1539 C1544 1.490 . S
C1540 H1530 0.930 . S
C1540 C1539 1.400 1_455 S
C1540 C1543 1.386 . S
H1541 C1557 0.930 . S
H1542 C1558 0.931 . S
C1543 H1531 0.929 . S
C1543 C1537 1.390 1_455 S
C1543 C1540 1.386 . S
C1544 C1539 1.490 . S
C1544 C1546 1.395 1_655 S
C1544 C1547 1.403 . S
H1545 C1551 0.941 . S
C1546 H1532 0.930 . S
C1546 C1544 1.395 1_455 S
C1546 C1549 1.403 . S
C1547 C1544 1.403 . S
C1547 C1548 1.524 . S
C1547 C1551 1.414 . S
C1548 H1533 0.960 . S
C1548 H1534 0.960 . S
C1548 H1535 0.960 . S
C1548 C1547 1.524 . S
C1549 C1546 1.403 . S
C1549 C1550 1.392 . S
C1549 C1553 1.495 . S
C1550 C1549 1.392 . S
C1550 C1551 1.366 1_455 S
C1550 C1552 1.478 . S
C1551 H1545 0.941 . S
C1551 C1547 1.414 . S
C1551 C1550 1.366 1_655 S
C1552 C1550 1.478 . S
C1552 C1554 1.381 1_455 S
C1552 C1558 1.383 . S
C1553 C1549 1.495 . S
C1553 H1559 0.959 . S
C1553 H1560 0.961 . S
C1553 H1561 0.960 . S
C1554 C1552 1.381 1_655 S
C1554 C1555 1.406 . S
C1554 H1562 0.930 . S
C1555 C1554 1.406 . S
C1555 C1556 1.323 1_655 S
C1555 H1563 0.983 . S
C1556 C1555 1.323 1_455 S
C1556 C1557 1.377 . S
C1557 H1541 0.930 . S
C1557 C1556 1.377 . S
C1557 C1558 1.379 . S
C1558 H1542 0.931 . S
C1558 C1552 1.383 . S
C1558 C1557 1.379 . S
H1559 C1553 0.959 . S
H1560 C1553 0.961 . S
H1561 C1553 0.960 . S
H1562 C1554 0.930 . S
H1563 C1555 0.983 . S
H1564 C1572 0.929 . S
H1565 C1574 0.930 . S
H1566 C1576 0.930 . S
H1567 C1579 0.929 . S
H1568 C1582 0.930 . S
H1569 C1584 0.960 . S
H1570 C1584 0.960 . S
H1571 C1584 0.960 . S
C1572 H1564 0.929 . S
C1572 C1573 1.377 . S
C1572 C1574 1.384 . S
C1573 C1572 1.377 . S
C1573 C1579 1.390 . S
C1574 H1565 0.930 . S
C1574 C1572 1.384 . S
C1574 C1575 1.372 . S
C1575 C1574 1.372 . S
C1575 C1576 1.400 . S
C1575 C1580 1.490 . S
C1576 H1566 0.930 . S
C1576 C1575 1.400 . S
C1576 C1579 1.386 . S
H1577 C1593 0.930 . S
H1578 C1594 0.931 . S
C1579 H1567 0.929 . S
C1579 C1573 1.390 . S
C1579 C1576 1.386 . S
C1580 C1575 1.490 . S
C1580 C1582 1.395 . S
C1580 C1583 1.403 . S
H1581 C1587 0.930 . S
C1582 H1568 0.930 . S
C1582 C1580 1.395 . S
C1582 C1585 1.403 . S
C1583 C1580 1.403 . S
C1583 C1584 1.524 . S
C1583 C1587 1.400 . S
C1584 H1569 0.960 . S
C1584 H1570 0.960 . S
C1584 H1571 0.960 . S
C1584 C1583 1.524 . S
C1585 C1582 1.403 . S
C1585 C1586 1.392 . S
C1585 C1589 1.495 . S
C1586 C1585 1.392 . S
C1586 C1587 1.385 . S
C1586 C1588 1.478 1_554 S
C1587 H1581 0.930 . S
C1587 C1583 1.400 . S
C1587 C1586 1.385 . S
C1588 C1586 1.478 1_556 S
C1588 C1590 1.381 . S
C1588 C1594 1.383 . S
C1589 C1585 1.495 . S
C1589 H1595 0.959 . S
C1589 H1596 0.961 . S
C1589 H1597 0.960 . S
C1590 C1588 1.381 . S
C1590 C1591 1.394 . S
C1590 H1598 0.930 . S
C1591 C1590 1.394 . S
C1591 C1592 1.383 . S
C1591 H1599 0.929 . S
C1592 C1591 1.383 . S
C1592 C1593 1.377 . S
C1593 H1577 0.930 . S
C1593 C1592 1.377 . S
C1593 C1594 1.379 . S
C1594 H1578 0.931 . S
C1594 C1588 1.383 . S
C1594 C1593 1.379 . S
H1595 C1589 0.959 . S
H1596 C1589 0.961 . S
H1597 C1589 0.960 . S
H1598 C1590 0.930 . S
H1599 C1591 0.929 . S
H1600 C1608 0.929 . S
H1601 C1610 0.930 . S
H1602 C1612 0.953 . S
H1603 C1615 0.929 1_655 S
H1604 C1618 0.930 . S
H1605 C1620 0.960 . S
H1606 C1620 0.960 1_455 S
H1607 C1620 0.960 . S
C1608 H1600 0.929 . S
C1608 C1609 1.377 . S
C1608 C1610 1.384 . S
C1609 C1608 1.377 . S
C1609 C1615 1.390 . S
C1610 H1601 0.930 . S
C1610 C1608 1.384 . S
C1610 C1611 1.372 . S
C1611 C1610 1.372 . S
C1611 C1612 1.383 1_455 S
C1611 C1616 1.490 . S
C1612 H1602 0.953 . S
C1612 C1611 1.383 1_655 S
C1612 C1615 1.379 1_655 S
H1613 C1629 0.930 . S
H1614 C1630 0.931 . S
C1615 H1603 0.929 1_455 S
C1615 C1609 1.390 . S
C1615 C1612 1.379 1_455 S
C1616 C1611 1.490 . S
C1616 C1618 1.395 . S
C1616 C1619 1.403 1_454 S
H1617 C1623 0.930 . S
C1618 H1604 0.930 . S
C1618 C1616 1.395 . S
C1618 C1621 1.403 1_545 S
C1619 C1616 1.403 1_656 S
C1619 C1620 1.524 . S
C1619 C1623 1.400 1_545 S
C1620 H1605 0.960 . S
C1620 H1606 0.960 1_655 S
C1620 H1607 0.960 . S
C1620 C1619 1.524 . S
C1621 C1618 1.403 1_565 S
C1621 C1622 1.392 1_454 S
C1621 C1625 1.495 . S
C1622 C1621 1.392 1_656 S
C1622 C1623 1.385 . S
C1622 C1624 1.478 . S
C1623 H1617 0.930 . S
C1623 C1619 1.400 1_565 S
C1623 C1622 1.385 . S
C1624 C1622 1.478 . S
C1624 C1626 1.381 1_655 S
C1624 C1630 1.383 . S
C1625 C1621 1.495 . S
C1625 H1631 0.959 . S
C1625 H1632 0.961 1_455 S
C1625 H1633 0.960 . S
C1626 C1624 1.381 1_455 S
C1626 C1627 1.394 1_455 S
C1626 H1634 0.930 . S
C1627 C1626 1.394 1_655 S
C1627 C1628 1.383 . S
C1627 H1635 0.929 1_655 S
C1628 C1627 1.383 . S
C1628 C1629 1.377 . S
C1629 H1613 0.930 . S
C1629 C1628 1.377 . S
C1629 C1630 1.379 . S
C1630 H1614 0.931 . S
C1630 C1624 1.383 . S
C1630 C1629 1.379 . S
H1631 C1625 0.959 . S
H1632 C1625 0.961 1_655 S
H1633 C1625 0.960 . S
H1634 C1626 0.930 . S
H1635 C1627 0.929 1_455 S
H1636 C1644 0.929 . S
H1637 C1646 0.930 . S
H1638 C1648 0.930 . S
H1639 C1651 0.929 . S
H1640 C1654 0.930 . S
H1641 C1656 0.960 . S
H1642 C1656 0.960 . S
H1643 C1656 0.960 . S
C1644 H1636 0.929 . S
C1644 C1645 1.377 . S
C1644 C1646 1.384 . S
C1645 C1644 1.377 . S
C1645 C1651 1.390 . S
C1646 H1637 0.930 . S
C1646 C1644 1.384 . S
C1646 C1647 1.372 . S
C1647 C1646 1.372 . S
C1647 C1648 1.400 . S
C1647 C1652 1.490 . S
C1648 H1638 0.930 . S
C1648 C1647 1.400 . S
C1648 C1651 1.386 . S
H1649 C1665 0.930 . S
H1650 C1666 0.931 . S
C1651 H1639 0.929 . S
C1651 C1645 1.390 . S
C1651 C1648 1.386 . S
C1652 C1647 1.490 . S
C1652 C1654 1.395 . S
C1652 C1655 1.403 . S
H1653 C1659 0.930 . S
C1654 H1640 0.930 . S
C1654 C1652 1.395 . S
C1654 C1657 1.403 . S
C1655 C1652 1.403 . S
C1655 C1656 1.524 . S
C1655 C1659 1.400 . S
C1656 H1641 0.960 . S
C1656 H1642 0.960 . S
C1656 H1643 0.960 . S
C1656 C1655 1.524 . S
C1657 C1654 1.403 . S
C1657 C1658 1.392 . S
C1657 C1661 1.495 . S
C1658 C1657 1.392 . S
C1658 C1659 1.385 . S
C1658 C1660 1.478 . S
C1659 H1653 0.930 . S
C1659 C1655 1.400 . S
C1659 C1658 1.385 . S
C1660 C1658 1.478 . S
C1660 C1662 1.381 . S
C1660 C1666 1.383 . S
C1661 C1657 1.495 . S
C1661 H1667 0.959 . S
C1661 H1668 0.961 . S
C1661 H1669 0.960 . S
C1662 C1660 1.381 . S
C1662 C1663 1.394 . S
C1662 H1670 0.930 . S
C1663 C1662 1.394 . S
C1663 C1664 1.383 . S
C1663 H1671 0.929 . S
C1664 C1663 1.383 . S
C1664 C1665 1.377 . S
C1665 H1649 0.930 . S
C1665 C1664 1.377 . S
C1665 C1666 1.379 . S
C1666 H1650 0.931 . S
C1666 C1660 1.383 . S
C1666 C1665 1.379 . S
H1667 C1661 0.959 . S
H1668 C1661 0.961 . S
H1669 C1661 0.960 . S
H1670 C1662 0.930 . S
H1671 C1663 0.929 . S
H1672 C1680 0.929 . S
H1673 C1682 0.930 . S
H1674 C1684 0.930 . S
H1675 C1687 0.929 . S
H1676 C1690 0.930 . S
H1677 C1692 0.960 . S
H1678 C1692 0.960 . S
H1679 C1692 0.960 . S
C1680 H1672 0.929 . S
C1680 C1681 1.377 . S
C1680 C1682 1.384 . S
C1681 C1680 1.377 . S
C1681 C1687 1.390 . S
C1682 H1673 0.930 . S
C1682 C1680 1.384 . S
C1682 C1683 1.372 . S
C1683 C1682 1.372 . S
C1683 C1684 1.400 . S
C1683 C1688 1.490 . S
C1684 H1674 0.930 . S
C1684 C1683 1.400 . S
C1684 C1687 1.386 . S
H1685 C1701 0.930 . S
H1686 C1702 0.931 . S
C1687 H1675 0.929 . S
C1687 C1681 1.390 . S
C1687 C1684 1.386 . S
C1688 C1683 1.490 . S
C1688 C1690 1.395 . S
C1688 C1691 1.403 . S
H1689 C1695 0.930 . S
C1690 H1676 0.930 . S
C1690 C1688 1.395 . S
C1690 C1693 1.403 1_545 S
C1691 C1688 1.403 . S
C1691 C1692 1.524 . S
C1691 C1695 1.400 1_545 S
C1692 H1677 0.960 . S
C1692 H1678 0.960 . S
C1692 H1679 0.960 . S
C1692 C1691 1.524 . S
C1693 C1690 1.403 1_565 S
C1693 C1694 1.392 . S
C1693 C1697 1.495 . S
C1694 C1693 1.392 . S
C1694 C1695 1.385 . S
C1694 C1696 1.478 . S
C1695 H1689 0.930 . S
C1695 C1691 1.400 1_565 S
C1695 C1694 1.385 . S
C1696 C1694 1.478 . S
C1696 C1698 1.381 . S
C1696 C1702 1.383 . S
C1697 C1693 1.495 . S
C1697 H1703 0.959 . S
C1697 H1704 0.961 . S
C1697 H1705 0.960 . S
C1698 C1696 1.381 . S
C1698 C1699 1.394 . S
C1698 H1706 0.930 . S
C1699 C1698 1.394 . S
C1699 C1700 1.383 . S
C1699 H1707 0.929 . S
C1700 C1699 1.383 . S
C1700 C1701 1.377 . S
C1701 H1685 0.930 . S
C1701 C1700 1.377 . S
C1701 C1702 1.379 . S
C1702 H1686 0.931 . S
C1702 C1696 1.383 . S
C1702 C1701 1.379 . S
H1703 C1697 0.959 . S
H1704 C1697 0.961 . S
H1705 C1697 0.960 . S
H1706 C1698 0.930 . S
H1707 C1699 0.929 . S
H1708 C1716 0.929 . S
H1709 C1718 0.930 . S
H1710 C1720 0.930 . S
H1711 C1723 0.929 . S
H1712 C1726 0.930 . S
H1713 C1728 0.960 . S
H1714 C1728 0.960 . S
H1715 C1728 0.960 . S
C1716 H1708 0.929 . S
C1716 C1717 1.377 . S
C1716 C1718 1.384 . S
C1717 C1716 1.377 . S
C1717 C1723 1.390 . S
C1718 H1709 0.930 . S
C1718 C1716 1.384 . S
C1718 C1719 1.372 . S
C1719 C1718 1.372 . S
C1719 C1720 1.400 . S
C1719 C1724 1.490 . S
C1720 H1710 0.930 . S
C1720 C1719 1.400 . S
C1720 C1723 1.386 . S
H1721 C1737 0.930 . S
H1722 C1738 0.931 . S
C1723 H1711 0.929 . S
C1723 C1717 1.390 . S
C1723 C1720 1.386 . S
C1724 C1719 1.490 . S
C1724 C1726 1.395 . S
C1724 C1727 1.403 . S
H1725 C1731 0.930 . S
C1726 H1712 0.930 . S
C1726 C1724 1.395 . S
C1726 C1729 1.403 . S
C1727 C1724 1.403 . S
C1727 C1728 1.524 . S
C1727 C1731 1.400 . S
C1728 H1713 0.960 . S
C1728 H1714 0.960 . S
C1728 H1715 0.960 . S
C1728 C1727 1.524 . S
C1729 C1726 1.403 . S
C1729 C1730 1.392 . S
C1729 C1733 1.495 . S
C1730 C1729 1.392 . S
C1730 C1731 1.385 . S
C1730 C1732 1.478 . S
C1731 H1725 0.930 . S
C1731 C1727 1.400 . S
C1731 C1730 1.385 . S
C1732 C1730 1.478 . S
C1732 C1734 1.381 . S
C1732 C1738 1.383 . S
C1733 C1729 1.495 . S
C1733 H1739 0.959 . S
C1733 H1740 0.961 . S
C1733 H1741 0.960 . S
C1734 C1732 1.381 . S
C1734 C1735 1.394 . S
C1734 H1742 0.930 . S
C1735 C1734 1.394 . S
C1735 C1736 1.383 . S
C1735 H1743 0.929 . S
C1736 C1735 1.383 . S
C1736 C1737 1.377 . S
C1737 H1721 0.930 . S
C1737 C1736 1.377 . S
C1737 C1738 1.379 . S
C1738 H1722 0.931 . S
C1738 C1732 1.383 . S
C1738 C1737 1.379 . S
H1739 C1733 0.959 . S
H1740 C1733 0.961 . S
H1741 C1733 0.960 . S
H1742 C1734 0.930 . S
H1743 C1735 0.929 . S
H1744 C1752 0.929 . S
H1745 C1754 0.930 . S
H1746 C1756 0.918 1_655 S
H1747 C1759 0.929 1_655 S
H1748 C1762 0.930 . S
H1749 C1764 0.960 . S
H1750 C1764 0.960 . S
H1751 C1764 0.960 . S
C1752 H1744 0.929 . S
C1752 C1753 1.377 . S
C1752 C1754 1.384 . S
C1753 C1752 1.377 . S
C1753 C1759 1.390 . S
C1754 H1745 0.930 . S
C1754 C1752 1.384 . S
C1754 C1755 1.372 . S
C1755 C1754 1.372 . S
C1755 C1756 1.408 . S
C1755 C1760 1.490 . S
C1756 H1746 0.918 1_455 S
C1756 C1755 1.408 . S
C1756 C1759 1.389 . S
H1757 C1773 0.930 . S
H1758 C1774 0.931 . S
C1759 H1747 0.929 1_455 S
C1759 C1753 1.390 . S
C1759 C1756 1.389 . S
C1760 C1755 1.490 . S
C1760 C1762 1.395 . S
C1760 C1763 1.403 1_455 S
H1761 C1767 0.930 . S
C1762 H1748 0.930 . S
C1762 C1760 1.395 . S
C1762 C1765 1.403 1_565 S
C1763 C1760 1.403 1_655 S
C1763 C1764 1.524 . S
C1763 C1767 1.400 1_565 S
C1764 H1749 0.960 . S
C1764 H1750 0.960 . S
C1764 H1751 0.960 . S
C1764 C1763 1.524 . S
C1765 C1762 1.403 1_545 S
C1765 C1766 1.392 1_455 S
C1765 C1769 1.495 . S
C1766 C1765 1.392 1_655 S
C1766 C1767 1.385 . S
C1766 C1768 1.478 . S
C1767 H1761 0.930 . S
C1767 C1763 1.400 1_545 S
C1767 C1766 1.385 . S
C1768 C1766 1.478 . S
C1768 C1770 1.381 1_655 S
C1768 C1774 1.383 . S
C1769 C1765 1.495 . S
C1769 H1775 0.959 . S
C1769 H1776 0.961 . S
C1769 H1777 0.960 . S
C1770 C1768 1.381 1_455 S
C1770 C1771 1.394 1_455 S
C1770 H1778 0.930 . S
C1771 C1770 1.394 1_655 S
C1771 C1772 1.383 . S
C1771 H1779 0.929 1_655 S
C1772 C1771 1.383 . S
C1772 C1773 1.377 . S
C1773 H1757 0.930 . S
C1773 C1772 1.377 . S
C1773 C1774 1.379 . S
C1774 H1758 0.931 . S
C1774 C1768 1.383 . S
C1774 C1773 1.379 . S
H1775 C1769 0.959 . S
H1776 C1769 0.961 . S
H1777 C1769 0.960 . S
H1778 C1770 0.930 . S
H1779 C1771 0.929 1_455 S
H1780 C1788 0.929 . S
H1781 C1790 0.930 . S
H1782 C1792 0.930 . S
H1783 C1795 0.929 . S
H1784 C1798 0.930 . S
H1785 C1800 0.960 . S
H1786 C1800 0.960 . S
H1787 C1800 0.960 . S
C1788 H1780 0.929 . S
C1788 C1789 1.377 . S
C1788 C1790 1.384 . S
C1789 C1788 1.377 . S
C1789 C1795 1.390 . S
C1790 H1781 0.930 . S
C1790 C1788 1.384 . S
C1790 C1791 1.372 . S
C1791 C1790 1.372 . S
C1791 C1792 1.400 . S
C1791 C1796 1.490 . S
C1792 H1782 0.930 . S
C1792 C1791 1.400 . S
C1792 C1795 1.386 . S
H1793 C1809 0.930 . S
H1794 C1810 0.931 . S
C1795 H1783 0.929 . S
C1795 C1789 1.390 . S
C1795 C1792 1.386 . S
C1796 C1791 1.490 . S
C1796 C1798 1.395 . S
C1796 C1799 1.403 . S
H1797 C1803 0.930 . S
C1798 H1784 0.930 . S
C1798 C1796 1.395 . S
C1798 C1801 1.403 . S
C1799 C1796 1.403 . S
C1799 C1800 1.524 . S
C1799 C1803 1.400 . S
C1800 H1785 0.960 . S
C1800 H1786 0.960 . S
C1800 H1787 0.960 . S
C1800 C1799 1.524 . S
C1801 C1798 1.403 . S
C1801 C1802 1.392 . S
C1801 C1805 1.495 . S
C1802 C1801 1.392 . S
C1802 C1803 1.385 . S
C1802 C1804 1.478 . S
C1803 H1797 0.930 . S
C1803 C1799 1.400 . S
C1803 C1802 1.385 . S
C1804 C1802 1.478 . S
C1804 C1806 1.381 . S
C1804 C1810 1.383 . S
C1805 C1801 1.495 . S
C1805 H1811 0.959 . S
C1805 H1812 0.961 . S
C1805 H1813 0.960 . S
C1806 C1804 1.381 . S
C1806 C1807 1.394 . S
C1806 H1814 0.930 . S
C1807 C1806 1.394 . S
C1807 C1808 1.383 . S
C1807 H1815 0.929 . S
C1808 C1807 1.383 . S
C1808 C1809 1.377 . S
C1809 H1793 0.930 . S
C1809 C1808 1.377 . S
C1809 C1810 1.379 . S
C1810 H1794 0.931 . S
C1810 C1804 1.383 . S
C1810 C1809 1.379 . S
H1811 C1805 0.959 . S
H1812 C1805 0.961 . S
H1813 C1805 0.960 . S
H1814 C1806 0.930 . S
H1815 C1807 0.929 . S
H1816 C1824 0.929 . S
H1817 C1826 0.930 . S
H1818 C1828 0.930 1_556 S
H1819 C1831 0.929 . S
H1820 C1834 0.930 . S
H1821 C1836 0.960 . S
H1822 C1836 0.960 . S
H1823 C1836 0.960 . S
C1824 H1816 0.929 . S
C1824 C1825 1.377 . S
C1824 C1826 1.384 . S
C1825 C1824 1.377 . S
C1825 C1831 1.390 . S
C1826 H1817 0.930 . S
C1826 C1824 1.384 . S
C1826 C1827 1.372 . S
C1827 C1826 1.372 . S
C1827 C1828 1.400 . S
C1827 C1832 1.490 . S
C1828 H1818 0.930 1_554 S
C1828 C1827 1.400 . S
C1828 C1831 1.386 . S
H1829 C1845 0.930 . S
H1830 C1846 0.931 . S
C1831 H1819 0.929 . S
C1831 C1825 1.390 . S
C1831 C1828 1.386 . S
C1832 C1827 1.490 . S
C1832 C1834 1.395 1_554 S
C1832 C1835 1.403 . S
H1833 C1839 0.930 . S
C1834 H1820 0.930 . S
C1834 C1832 1.395 1_556 S
C1834 C1837 1.403 1_565 S
C1835 C1832 1.403 . S
C1835 C1836 1.524 . S
C1835 C1839 1.400 1_565 S
C1836 H1821 0.960 . S
C1836 H1822 0.960 . S
C1836 H1823 0.960 . S
C1836 C1835 1.524 . S
C1837 C1834 1.403 1_545 S
C1837 C1838 1.392 . S
C1837 C1841 1.495 . S
C1838 C1837 1.392 . S
C1838 C1839 1.385 1_556 S
C1838 C1840 1.478 . S
C1839 H1833 0.930 . S
C1839 C1835 1.400 1_545 S
C1839 C1838 1.385 1_554 S
C1840 C1838 1.478 . S
C1840 C1842 1.381 . S
C1840 C1846 1.383 . S
C1841 C1837 1.495 . S
C1841 H1847 0.959 . S
C1841 H1848 0.961 . S
C1841 H1849 0.960 . S
C1842 C1840 1.381 . S
C1842 C1843 1.394 . S
C1842 H1850 0.930 1_556 S
C1843 C1842 1.394 . S
C1843 C1844 1.383 . S
C1843 H1851 0.929 . S
C1844 C1843 1.383 . S
C1844 C1845 1.377 . S
C1845 H1829 0.930 . S
C1845 C1844 1.377 . S
C1845 C1846 1.379 . S
C1846 H1830 0.931 . S
C1846 C1840 1.383 . S
C1846 C1845 1.379 . S
H1847 C1841 0.959 . S
H1848 C1841 0.961 . S
H1849 C1841 0.960 . S
H1850 C1842 0.930 1_554 S
H1851 C1843 0.929 . S
H1852 C1860 0.929 . S
H1853 C1862 0.930 . S
H1854 C1864 0.930 . S
H1855 C1867 0.929 . S
H1856 C1870 0.930 . S
H1857 C1872 0.960 . S
H1858 C1872 0.960 . S
H1859 C1872 0.960 . S
C1860 H1852 0.929 . S
C1860 C1861 1.377 . S
C1860 C1862 1.384 . S
C1861 C1860 1.377 . S
C1861 C1867 1.390 . S
C1862 H1853 0.930 . S
C1862 C1860 1.384 . S
C1862 C1863 1.372 . S
C1863 C1862 1.372 . S
C1863 C1864 1.400 . S
C1863 C1868 1.490 . S
C1864 H1854 0.930 . S
C1864 C1863 1.400 . S
C1864 C1867 1.386 . S
H1865 C1881 0.930 . S
H1866 C1882 0.931 . S
C1867 H1855 0.929 . S
C1867 C1861 1.390 . S
C1867 C1864 1.386 . S
C1868 C1863 1.490 . S
C1868 C1870 1.395 . S
C1868 C1871 1.403 . S
H1869 C1875 0.930 . S
C1870 H1856 0.930 . S
C1870 C1868 1.395 . S
C1870 C1873 1.403 . S
C1871 C1868 1.403 . S
C1871 C1872 1.524 . S
C1871 C1875 1.400 . S
C1872 H1857 0.960 . S
C1872 H1858 0.960 . S
C1872 H1859 0.960 . S
C1872 C1871 1.524 . S
C1873 C1870 1.403 . S
C1873 C1874 1.392 . S
C1873 C1877 1.495 . S
C1874 C1873 1.392 . S
C1874 C1875 1.385 . S
C1874 C1876 1.478 . S
C1875 H1869 0.930 . S
C1875 C1871 1.400 . S
C1875 C1874 1.385 . S
C1876 C1874 1.478 . S
C1876 C1878 1.381 . S
C1876 C1882 1.383 . S
C1877 C1873 1.495 . S
C1877 H1883 0.959 . S
C1877 H1884 0.961 . S
C1877 H1885 0.960 . S
C1878 C1876 1.381 . S
C1878 C1879 1.394 . S
C1878 H1886 0.930 . S
C1879 C1878 1.394 . S
C1879 C1880 1.383 . S
C1879 H1887 0.929 . S
C1880 C1879 1.383 . S
C1880 C1881 1.377 . S
C1881 H1865 0.930 . S
C1881 C1880 1.377 . S
C1881 C1882 1.379 . S
C1882 H1866 0.931 . S
C1882 C1876 1.383 . S
C1882 C1881 1.379 . S
H1883 C1877 0.959 . S
H1884 C1877 0.961 . S
H1885 C1877 0.960 . S
H1886 C1878 0.930 . S
H1887 C1879 0.929 . S
H1888 C1896 0.929 . S
H1889 C1898 0.930 . S
H1890 C1900 0.930 . S
H1891 C1903 0.929 . S
H1892 C1906 0.930 . S
H1893 C1908 0.960 . S
H1894 C1908 0.960 . S
H1895 C1908 0.960 . S
C1896 H1888 0.929 . S
C1896 C1897 1.377 . S
C1896 C1898 1.384 . S
C1897 C1896 1.377 . S
C1897 C1903 1.390 . S
C1898 H1889 0.930 . S
C1898 C1896 1.384 . S
C1898 C1899 1.372 . S
C1899 C1898 1.372 . S
C1899 C1900 1.400 . S
C1899 C1904 1.490 . S
C1900 H1890 0.930 . S
C1900 C1899 1.400 . S
C1900 C1903 1.386 . S
H1901 C1917 0.930 . S
H1902 C1918 0.931 . S
C1903 H1891 0.929 . S
C1903 C1897 1.390 . S
C1903 C1900 1.386 . S
C1904 C1899 1.490 . S
C1904 C1906 1.395 . S
C1904 C1907 1.403 . S
H1905 C1911 0.930 . S
C1906 H1892 0.930 . S
C1906 C1904 1.395 . S
C1906 C1909 1.403 . S
C1907 C1904 1.403 . S
C1907 C1908 1.524 . S
C1907 C1911 1.400 . S
C1908 H1893 0.960 . S
C1908 H1894 0.960 . S
C1908 H1895 0.960 . S
C1908 C1907 1.524 . S
C1909 C1906 1.403 . S
C1909 C1910 1.392 . S
C1909 C1913 1.495 . S
C1910 C1909 1.392 . S
C1910 C1911 1.385 . S
C1910 C1912 1.478 . S
C1911 H1905 0.930 . S
C1911 C1907 1.400 . S
C1911 C1910 1.385 . S
C1912 C1910 1.478 . S
C1912 C1914 1.381 . S
C1912 C1918 1.383 . S
C1913 C1909 1.495 . S
C1913 H1919 0.959 . S
C1913 H1920 0.961 . S
C1913 H1921 0.960 . S
C1914 C1912 1.381 . S
C1914 C1915 1.394 . S
C1914 H1922 0.930 . S
C1915 C1914 1.394 . S
C1915 C1916 1.383 . S
C1915 H1923 0.929 . S
C1916 C1915 1.383 . S
C1916 C1917 1.377 . S
C1917 H1901 0.930 . S
C1917 C1916 1.377 . S
C1917 C1918 1.379 . S
C1918 H1902 0.931 . S
C1918 C1912 1.383 . S
C1918 C1917 1.379 . S
H1919 C1913 0.959 . S
H1920 C1913 0.961 . S
H1921 C1913 0.960 . S
H1922 C1914 0.930 . S
H1923 C1915 0.929 . S
H1924 C1932 0.929 . S
H1925 C1934 0.930 . S
H1926 C1936 0.930 . S
H1927 C1939 0.929 . S
H1928 C1942 0.930 . S
H1929 C1944 0.960 . S
H1930 C1944 0.960 . S
H1931 C1944 0.960 . S
C1932 H1924 0.929 . S
C1932 C1933 1.377 . S
C1932 C1934 1.384 . S
C1933 C1932 1.377 . S
C1933 C1939 1.390 . S
C1934 H1925 0.930 . S
C1934 C1932 1.384 . S
C1934 C1935 1.372 . S
C1935 C1934 1.372 . S
C1935 C1936 1.400 . S
C1935 C1940 1.490 . S
C1936 H1926 0.930 . S
C1936 C1935 1.400 . S
C1936 C1939 1.386 . S
H1937 C1953 0.930 . S
H1938 C1954 0.931 . S
C1939 H1927 0.929 . S
C1939 C1933 1.390 . S
C1939 C1936 1.386 . S
C1940 C1935 1.490 . S
C1940 C1942 1.395 . S
C1940 C1943 1.403 . S
H1941 C1947 0.930 . S
C1942 H1928 0.930 . S
C1942 C1940 1.395 . S
C1942 C1945 1.403 . S
C1943 C1940 1.403 . S
C1943 C1944 1.524 . S
C1943 C1947 1.400 . S
C1944 H1929 0.960 . S
C1944 H1930 0.960 . S
C1944 H1931 0.960 . S
C1944 C1943 1.524 . S
C1945 C1942 1.403 . S
C1945 C1946 1.392 . S
C1945 C1949 1.495 . S
C1946 C1945 1.392 . S
C1946 C1947 1.385 . S
C1946 C1948 1.478 . S
C1947 H1941 0.930 . S
C1947 C1943 1.400 . S
C1947 C1946 1.385 . S
C1948 C1946 1.478 . S
C1948 C1950 1.381 . S
C1948 C1954 1.383 . S
C1949 C1945 1.495 . S
C1949 H1955 0.959 . S
C1949 H1956 0.961 . S
C1949 H1957 0.960 . S
C1950 C1948 1.381 . S
C1950 C1951 1.394 . S
C1950 H1958 0.930 . S
C1951 C1950 1.394 . S
C1951 C1952 1.383 . S
C1951 H1959 0.929 . S
C1952 C1951 1.383 . S
C1952 C1953 1.377 . S
C1953 H1937 0.930 . S
C1953 C1952 1.377 . S
C1953 C1954 1.379 . S
C1954 H1938 0.931 . S
C1954 C1948 1.383 . S
C1954 C1953 1.379 . S
H1955 C1949 0.959 . S
H1956 C1949 0.961 . S
H1957 C1949 0.960 . S
H1958 C1950 0.930 . S
H1959 C1951 0.929 . S
H1960 C1968 0.929 . S
H1961 C1970 0.930 . S
H1962 C1972 0.930 . S
H1963 C1975 0.929 . S
H1964 C1978 0.930 . S
H1965 C1980 0.960 . S
H1966 C1980 0.960 . S
H1967 C1980 0.960 . S
C1968 H1960 0.929 . S
C1968 C1969 1.377 . S
C1968 C1970 1.384 . S
C1969 C1968 1.377 . S
C1969 C1975 1.390 . S
C1970 H1961 0.930 . S
C1970 C1968 1.384 . S
C1970 C1971 1.372 . S
C1971 C1970 1.372 . S
C1971 C1972 1.400 . S
C1971 C1976 1.490 . S
C1972 H1962 0.930 . S
C1972 C1971 1.400 . S
C1972 C1975 1.386 . S
H1973 C1989 0.930 . S
H1974 C1990 0.931 . S
C1975 H1963 0.929 . S
C1975 C1969 1.390 . S
C1975 C1972 1.386 . S
C1976 C1971 1.490 . S
C1976 C1978 1.395 . S
C1976 C1979 1.403 . S
H1977 C1983 0.930 . S
C1978 H1964 0.930 . S
C1978 C1976 1.395 . S
C1978 C1981 1.403 . S
C1979 C1976 1.403 . S
C1979 C1980 1.524 . S
C1979 C1983 1.400 . S
C1980 H1965 0.960 . S
C1980 H1966 0.960 . S
C1980 H1967 0.960 . S
C1980 C1979 1.524 . S
C1981 C1978 1.403 . S
C1981 C1982 1.392 . S
C1981 C1985 1.495 . S
C1982 C1981 1.392 . S
C1982 C1983 1.385 . S
C1982 C1984 1.478 . S
C1983 H1977 0.930 . S
C1983 C1979 1.400 . S
C1983 C1982 1.385 . S
C1984 C1982 1.478 . S
C1984 C1986 1.381 . S
C1984 C1990 1.383 . S
C1985 C1981 1.495 . S
C1985 H1991 0.959 . S
C1985 H1992 0.961 . S
C1985 H1993 0.960 . S
C1986 C1984 1.381 . S
C1986 C1987 1.394 . S
C1986 H1994 0.930 . S
C1987 C1986 1.394 . S
C1987 C1988 1.383 . S
C1987 H1995 0.929 . S
C1988 C1987 1.383 . S
C1988 C1989 1.377 . S
C1989 H1973 0.930 . S
C1989 C1988 1.377 . S
C1989 C1990 1.379 . S
C1990 H1974 0.931 . S
C1990 C1984 1.383 . S
C1990 C1989 1.379 . S
H1991 C1985 0.959 . S
H1992 C1985 0.961 . S
H1993 C1985 0.960 . S
H1994 C1986 0.930 . S
H1995 C1987 0.929 . S
H1996 C2004 0.929 . S
H1997 C2006 0.930 . S
H1998 C2008 0.930 . S
H1999 C2011 0.929 . S
H2000 C2014 0.930 . S
H2001 C2016 0.960 . S
H2002 C2016 0.960 . S
H2003 C2016 0.960 . S
C2004 H1996 0.929 . S
C2004 C2005 1.377 . S
C2004 C2006 1.384 . S
C2005 C2004 1.377 . S
C2005 C2011 1.390 . S
C2006 H1997 0.930 . S
C2006 C2004 1.384 . S
C2006 C2007 1.372 . S
C2007 C2006 1.372 . S
C2007 C2008 1.400 . S
C2007 C2012 1.490 . S
C2008 H1998 0.930 . S
C2008 C2007 1.400 . S
C2008 C2011 1.386 . S
H2009 C2025 0.930 . S
H2010 C2026 0.931 . S
C2011 H1999 0.929 . S
C2011 C2005 1.390 . S
C2011 C2008 1.386 . S
C2012 C2007 1.490 . S
C2012 C2014 1.395 . S
C2012 C2015 1.403 . S
H2013 C2019 0.930 . S
C2014 H2000 0.930 . S
C2014 C2012 1.395 . S
C2014 C2017 1.403 . S
C2015 C2012 1.403 . S
C2015 C2016 1.524 . S
C2015 C2019 1.400 . S
C2016 H2001 0.960 . S
C2016 H2002 0.960 . S
C2016 H2003 0.960 . S
C2016 C2015 1.524 . S
C2017 C2014 1.403 . S
C2017 C2018 1.392 . S
C2017 C2021 1.495 . S
C2018 C2017 1.392 . S
C2018 C2019 1.385 . S
C2018 C2020 1.478 . S
C2019 H2013 0.930 . S
C2019 C2015 1.400 . S
C2019 C2018 1.385 . S
C2020 C2018 1.478 . S
C2020 C2022 1.381 . S
C2020 C2026 1.383 . S
C2021 C2017 1.495 . S
C2021 H2027 0.959 . S
C2021 H2028 0.961 . S
C2021 H2029 0.960 . S
C2022 C2020 1.381 . S
C2022 C2023 1.394 . S
C2022 H2030 0.930 . S
C2023 C2022 1.394 . S
C2023 C2024 1.383 . S
C2023 H2031 0.929 . S
C2024 C2023 1.383 . S
C2024 C2025 1.377 . S
C2025 H2009 0.930 . S
C2025 C2024 1.377 . S
C2025 C2026 1.379 . S
C2026 H2010 0.931 . S
C2026 C2020 1.383 . S
C2026 C2025 1.379 . S
H2027 C2021 0.959 . S
H2028 C2021 0.961 . S
H2029 C2021 0.960 . S
H2030 C2022 0.930 . S
H2031 C2023 0.929 . S
H2032 C2040 0.929 . S
H2033 C2042 0.930 . S
H2034 C2044 0.930 . S
H2035 C2047 0.929 . S
H2036 C2050 0.930 . S
H2037 C2052 0.960 . S
H2038 C2052 0.960 . S
H2039 C2052 0.960 . S
C2040 H2032 0.929 . S
C2040 C2041 1.377 . S
C2040 C2042 1.384 . S
C2041 C2040 1.377 . S
C2041 C2047 1.390 . S
C2042 H2033 0.930 . S
C2042 C2040 1.384 . S
C2042 C2043 1.372 . S
C2043 C2042 1.372 . S
C2043 C2044 1.400 . S
C2043 C2048 1.490 . S
C2044 H2034 0.930 . S
C2044 C2043 1.400 . S
C2044 C2047 1.386 . S
H2045 C2061 0.930 . S
H2046 C2062 0.931 . S
C2047 H2035 0.929 . S
C2047 C2041 1.390 . S
C2047 C2044 1.386 . S
C2048 C2043 1.490 . S
C2048 C2050 1.395 . S
C2048 C2051 1.403 . S
H2049 C2055 0.930 . S
C2050 H2036 0.930 . S
C2050 C2048 1.395 . S
C2050 C2053 1.403 . S
C2051 C2048 1.403 . S
C2051 C2052 1.524 . S
C2051 C2055 1.400 . S
C2052 H2037 0.960 . S
C2052 H2038 0.960 . S
C2052 H2039 0.960 . S
C2052 C2051 1.524 . S
C2053 C2050 1.403 . S
C2053 C2054 1.392 . S
C2053 C2057 1.495 . S
C2054 C2053 1.392 . S
C2054 C2055 1.385 . S
C2054 C2056 1.478 . S
C2055 H2049 0.930 . S
C2055 C2051 1.400 . S
C2055 C2054 1.385 . S
C2056 C2054 1.478 . S
C2056 C2058 1.381 . S
C2056 C2062 1.383 . S
C2057 C2053 1.495 . S
C2057 H2063 0.959 . S
C2057 H2064 0.961 . S
C2057 H2065 0.960 . S
C2058 C2056 1.381 . S
C2058 C2059 1.394 . S
C2058 H2066 0.930 . S
C2059 C2058 1.394 . S
C2059 C2060 1.383 . S
C2059 H2067 0.929 . S
C2060 C2059 1.383 . S
C2060 C2061 1.377 . S
C2061 H2045 0.930 . S
C2061 C2060 1.377 . S
C2061 C2062 1.379 . S
C2062 H2046 0.931 . S
C2062 C2056 1.383 . S
C2062 C2061 1.379 . S
H2063 C2057 0.959 . S
H2064 C2057 0.961 . S
H2065 C2057 0.960 . S
H2066 C2058 0.930 . S
H2067 C2059 0.929 . S
H2068 C2076 0.929 . S
H2069 C2078 0.930 1_556 S
H2070 C2080 0.930 1_455 S
H2071 C2083 0.967 . S
H2072 C2086 0.930 . S
H2073 C2088 0.960 . S
H2074 C2088 0.960 . S
H2075 C2088 0.960 1_554 S
C2076 H2068 0.929 . S
C2076 C2077 1.377 . S
C2076 C2078 1.384 . S
C2077 C2076 1.377 . S
C2077 C2083 1.390 . S
C2078 H2069 0.930 1_554 S
C2078 C2076 1.384 . S
C2078 C2079 1.372 . S
C2079 C2078 1.372 . S
C2079 C2080 1.400 . S
C2079 C2084 1.490 . S
C2080 H2070 0.930 1_655 S
C2080 C2079 1.400 . S
C2080 C2083 1.386 . S
H2081 C2097 0.930 1_554 S
H2082 C2098 0.908 1_554 S
C2083 H2071 0.967 . S
C2083 C2077 1.390 . S
C2083 C2080 1.386 . S
C2084 C2079 1.490 . S
C2084 C2086 1.395 . S
C2084 C2087 1.403 1_654 S
H2085 C2091 0.930 . S
C2086 H2072 0.930 . S
C2086 C2084 1.395 . S
C2086 C2089 1.403 . S
C2087 C2084 1.403 1_456 S
C2087 C2088 1.524 . S
C2087 C2091 1.400 . S
C2088 H2073 0.960 . S
C2088 H2074 0.960 . S
C2088 H2075 0.960 1_556 S
C2088 C2087 1.524 . S
C2089 C2086 1.403 . S
C2089 C2090 1.392 1_654 S
C2089 C2093 1.495 . S
C2090 C2089 1.392 1_456 S
C2090 C2091 1.385 . S
C2090 C2092 1.478 . S
C2091 H2085 0.930 . S
C2091 C2087 1.400 . S
C2091 C2090 1.385 . S
C2092 C2090 1.478 . S
C2092 C2094 1.397 . S
C2092 C2098 1.397 . S
C2093 C2089 1.495 . S
C2093 H2099 0.959 . S
C2093 H2100 0.961 . S
C2093 H2101 0.960 1_554 S
C2094 C2092 1.397 . S
C2094 C2095 1.408 . S
C2094 H2102 0.902 1_455 S
C2095 C2094 1.408 . S
C2095 C2096 1.383 . S
C2095 H2103 0.929 . S
C2096 C2095 1.383 . S
C2096 C2097 1.377 . S
C2097 H2081 0.930 1_556 S
C2097 C2096 1.377 . S
C2097 C2098 1.388 . S
C2098 H2082 0.908 1_556 S
C2098 C2092 1.397 . S
C2098 C2097 1.388 . S
H2099 C2093 0.959 . S
H2100 C2093 0.961 . S
H2101 C2093 0.960 1_556 S
H2102 C2094 0.902 1_655 S
H2103 C2095 0.929 . S
H2104 C2112 0.929 . S
H2105 C2114 0.930 . S
H2106 C2116 0.930 . S
H2107 C2119 0.929 1_554 S
H2108 C2122 0.930 . S
H2109 C2124 0.960 . S
H2110 C2124 0.960 1_556 S
H2111 C2124 0.960 . S
C2112 H2104 0.929 . S
C2112 C2113 1.377 . S
C2112 C2114 1.384 . S
C2113 C2112 1.377 . S
C2113 C2119 1.390 . S
C2114 H2105 0.930 . S
C2114 C2112 1.384 . S
C2114 C2115 1.372 . S
C2115 C2114 1.372 . S
C2115 C2116 1.400 1_556 S
C2115 C2120 1.490 . S
C2116 H2106 0.930 . S
C2116 C2115 1.400 1_554 S
C2116 C2119 1.386 1_554 S
H2117 C2133 0.930 . S
H2118 C2134 0.931 . S
C2119 H2107 0.929 1_556 S
C2119 C2113 1.390 . S
C2119 C2116 1.386 1_556 S
C2120 C2115 1.490 . S
C2120 C2122 1.395 . S
C2120 C2123 1.403 1_556 S
H2121 C2127 0.930 . S
C2122 H2108 0.930 . S
C2122 C2120 1.395 . S
C2122 C2125 1.403 . S
C2123 C2120 1.403 1_554 S
C2123 C2124 1.524 . S
C2123 C2127 1.400 . S
C2124 H2109 0.960 . S
C2124 H2110 0.960 1_554 S
C2124 H2111 0.960 . S
C2124 C2123 1.524 . S
C2125 C2122 1.403 . S
C2125 C2126 1.392 1_556 S
C2125 C2129 1.495 . S
C2126 C2125 1.392 1_554 S
C2126 C2127 1.385 . S
C2126 C2128 1.478 . S
C2127 H2121 0.930 . S
C2127 C2123 1.400 . S
C2127 C2126 1.385 . S
C2128 C2126 1.478 . S
C2128 C2130 1.381 1_554 S
C2128 C2134 1.383 . S
C2129 C2125 1.495 . S
C2129 H2135 0.959 . S
C2129 H2136 0.961 . S
C2129 H2137 0.960 . S
C2130 C2128 1.381 1_556 S
C2130 C2131 1.394 1_556 S
C2130 H2138 0.930 . S
C2131 C2130 1.394 1_554 S
C2131 C2132 1.383 . S
C2131 H2139 0.929 1_554 S
C2132 C2131 1.383 . S
C2132 C2133 1.377 . S
C2133 H2117 0.930 . S
C2133 C2132 1.377 . S
C2133 C2134 1.379 . S
C2134 H2118 0.931 . S
C2134 C2128 1.383 . S
C2134 C2133 1.379 . S
H2135 C2129 0.959 . S
H2136 C2129 0.961 . S
H2137 C2129 0.960 . S
H2138 C2130 0.930 . S
H2139 C2131 0.929 1_556 S
H2140 C2148 0.929 . S
H2141 C2150 0.930 . S
H2142 C2152 0.901 1_655 S
H2143 C2155 0.929 1_655 S
H2144 C2158 0.930 . S
H2145 C2160 0.960 . S
H2146 C2160 0.960 . S
H2147 C2160 0.960 . S
C2148 H2140 0.929 . S
C2148 C2149 1.377 . S
C2148 C2150 1.384 . S
C2149 C2148 1.377 . S
C2149 C2155 1.390 . S
C2150 H2141 0.930 . S
C2150 C2148 1.384 . S
C2150 C2151 1.372 . S
C2151 C2150 1.372 . S
C2151 C2152 1.420 . S
C2151 C2156 1.490 . S
C2152 H2142 0.901 1_455 S
C2152 C2151 1.420 . S
C2152 C2155 1.395 . S
H2153 C2169 0.930 . S
H2154 C2170 0.931 . S
C2155 H2143 0.929 1_455 S
C2155 C2149 1.390 . S
C2155 C2152 1.395 . S
C2156 C2151 1.490 . S
C2156 C2158 1.395 . S
C2156 C2159 1.403 1_455 S
H2157 C2163 0.930 . S
C2158 H2144 0.930 . S
C2158 C2156 1.395 . S
C2158 C2161 1.403 . S
C2159 C2156 1.403 1_655 S
C2159 C2160 1.524 . S
C2159 C2163 1.400 . S
C2160 H2145 0.960 . S
C2160 H2146 0.960 . S
C2160 H2147 0.960 . S
C2160 C2159 1.524 . S
C2161 C2158 1.403 . S
C2161 C2162 1.392 1_455 S
C2161 C2165 1.495 . S
C2162 C2161 1.392 1_655 S
C2162 C2163 1.385 . S
C2162 C2164 1.478 . S
C2163 H2157 0.930 . S
C2163 C2159 1.400 . S
C2163 C2162 1.385 . S
C2164 C2162 1.478 . S
C2164 C2166 1.341 1_655 S
C2164 C2170 1.383 . S
C2165 C2161 1.495 . S
C2165 H2171 0.959 . S
C2165 H2172 0.961 . S
C2165 H2173 0.960 . S
C2166 C2164 1.341 1_455 S
C2166 C2167 1.369 1_455 S
C2166 H2174 1.000 . S
C2167 C2166 1.369 1_655 S
C2167 C2168 1.383 . S
C2167 H2175 0.929 1_655 S
C2168 C2167 1.383 . S
C2168 C2169 1.377 . S
C2169 H2153 0.930 . S
C2169 C2168 1.377 . S
C2169 C2170 1.379 . S
C2170 H2154 0.931 . S
C2170 C2164 1.383 . S
C2170 C2169 1.379 . S
H2171 C2165 0.959 . S
H2172 C2165 0.961 . S
H2173 C2165 0.960 . S
H2174 C2166 1.000 . S
H2175 C2167 0.929 1_455 S
H2176 C2184 0.929 . S
H2177 C2186 0.930 . S
H2178 C2188 0.930 . S
H2179 C2191 0.929 . S
H2180 C2194 0.930 . S
H2181 C2196 0.960 . S
H2182 C2196 0.960 . S
H2183 C2196 0.960 . S
C2184 H2176 0.929 . S
C2184 C2185 1.377 . S
C2184 C2186 1.384 . S
C2185 C2184 1.377 . S
C2185 C2191 1.390 . S
C2186 H2177 0.930 . S
C2186 C2184 1.384 . S
C2186 C2187 1.372 . S
C2187 C2186 1.372 . S
C2187 C2188 1.400 . S
C2187 C2192 1.490 . S
C2188 H2178 0.930 . S
C2188 C2187 1.400 . S
C2188 C2191 1.386 . S
H2189 C2205 0.930 . S
H2190 C2206 0.931 . S
C2191 H2179 0.929 . S
C2191 C2185 1.390 . S
C2191 C2188 1.386 . S
C2192 C2187 1.490 . S
C2192 C2194 1.395 . S
C2192 C2195 1.403 . S
H2193 C2199 0.930 . S
C2194 H2180 0.930 . S
C2194 C2192 1.395 . S
C2194 C2197 1.403 . S
C2195 C2192 1.403 . S
C2195 C2196 1.524 . S
C2195 C2199 1.400 . S
C2196 H2181 0.960 . S
C2196 H2182 0.960 . S
C2196 H2183 0.960 . S
C2196 C2195 1.524 . S
C2197 C2194 1.403 . S
C2197 C2198 1.392 . S
C2197 C2201 1.495 . S
C2198 C2197 1.392 . S
C2198 C2199 1.385 . S
C2198 C2200 1.478 . S
C2199 H2193 0.930 . S
C2199 C2195 1.400 . S
C2199 C2198 1.385 . S
C2200 C2198 1.478 . S
C2200 C2202 1.381 . S
C2200 C2206 1.383 . S
C2201 C2197 1.495 . S
C2201 H2207 0.959 . S
C2201 H2208 0.961 . S
C2201 H2209 0.960 . S
C2202 C2200 1.381 . S
C2202 C2203 1.394 . S
C2202 H2210 0.930 . S
C2203 C2202 1.394 . S
C2203 C2204 1.383 . S
C2203 H2211 0.929 . S
C2204 C2203 1.383 . S
C2204 C2205 1.377 . S
C2205 H2189 0.930 . S
C2205 C2204 1.377 . S
C2205 C2206 1.379 . S
C2206 H2190 0.931 . S
C2206 C2200 1.383 . S
C2206 C2205 1.379 . S
H2207 C2201 0.959 . S
H2208 C2201 0.961 . S
H2209 C2201 0.960 . S
H2210 C2202 0.930 . S
H2211 C2203 0.929 . S
H2212 C2220 0.929 . S
H2213 C2222 0.930 . S
H2214 C2224 0.930 . S
H2215 C2227 0.929 . S
H2216 C2230 0.930 . S
H2217 C2232 0.960 . S
H2218 C2232 0.960 . S
H2219 C2232 0.960 . S
C2220 H2212 0.929 . S
C2220 C2221 1.377 . S
C2220 C2222 1.384 . S
C2221 C2220 1.377 . S
C2221 C2227 1.390 . S
C2222 H2213 0.930 . S
C2222 C2220 1.384 . S
C2222 C2223 1.372 . S
C2223 C2222 1.372 . S
C2223 C2224 1.400 . S
C2223 C2228 1.490 . S
C2224 H2214 0.930 . S
C2224 C2223 1.400 . S
C2224 C2227 1.386 . S
H2225 C2241 0.930 . S
H2226 C2242 0.931 . S
C2227 H2215 0.929 . S
C2227 C2221 1.390 . S
C2227 C2224 1.386 . S
C2228 C2223 1.490 . S
C2228 C2230 1.395 . S
C2228 C2231 1.403 . S
H2229 C2235 0.930 . S
C2230 H2216 0.930 . S
C2230 C2228 1.395 . S
C2230 C2233 1.403 . S
C2231 C2228 1.403 . S
C2231 C2232 1.524 . S
C2231 C2235 1.400 . S
C2232 H2217 0.960 . S
C2232 H2218 0.960 . S
C2232 H2219 0.960 . S
C2232 C2231 1.524 . S
C2233 C2230 1.403 . S
C2233 C2234 1.392 . S
C2233 C2237 1.495 . S
C2234 C2233 1.392 . S
C2234 C2235 1.385 . S
C2234 C2236 1.478 . S
C2235 H2229 0.930 . S
C2235 C2231 1.400 . S
C2235 C2234 1.385 . S
C2236 C2234 1.478 . S
C2236 C2238 1.381 . S
C2236 C2242 1.383 . S
C2237 C2233 1.495 . S
C2237 H2243 0.959 . S
C2237 H2244 0.961 . S
C2237 H2245 0.960 . S
C2238 C2236 1.381 . S
C2238 C2239 1.394 . S
C2238 H2246 0.930 . S
C2239 C2238 1.394 . S
C2239 C2240 1.383 . S
C2239 H2247 0.929 . S
C2240 C2239 1.383 . S
C2240 C2241 1.377 . S
C2241 H2225 0.930 . S
C2241 C2240 1.377 . S
C2241 C2242 1.379 . S
C2242 H2226 0.931 . S
C2242 C2236 1.383 . S
C2242 C2241 1.379 . S
H2243 C2237 0.959 . S
H2244 C2237 0.961 . S
H2245 C2237 0.960 . S
H2246 C2238 0.930 . S
H2247 C2239 0.929 . S
H2248 C2256 0.929 . S
H2249 C2258 0.930 . S
H2250 C2260 0.930 . S
H2251 C2263 0.929 . S
H2252 C2266 0.930 . S
H2253 C2268 0.960 . S
H2254 C2268 0.960 . S
H2255 C2268 0.960 . S
C2256 H2248 0.929 . S
C2256 C2257 1.377 . S
C2256 C2258 1.384 . S
C2257 C2256 1.377 . S
C2257 C2263 1.390 . S
C2258 H2249 0.930 . S
C2258 C2256 1.384 . S
C2258 C2259 1.372 . S
C2259 C2258 1.372 . S
C2259 C2260 1.400 . S
C2259 C2264 1.490 . S
C2260 H2250 0.930 . S
C2260 C2259 1.400 . S
C2260 C2263 1.386 . S
H2261 C2277 0.930 . S
H2262 C2278 0.931 . S
C2263 H2251 0.929 . S
C2263 C2257 1.390 . S
C2263 C2260 1.386 . S
C2264 C2259 1.490 . S
C2264 C2266 1.395 . S
C2264 C2267 1.403 . S
H2265 C2271 0.930 . S
C2266 H2252 0.930 . S
C2266 C2264 1.395 . S
C2266 C2269 1.403 . S
C2267 C2264 1.403 . S
C2267 C2268 1.524 . S
C2267 C2271 1.400 . S
C2268 H2253 0.960 . S
C2268 H2254 0.960 . S
C2268 H2255 0.960 . S
C2268 C2267 1.524 . S
C2269 C2266 1.403 . S
C2269 C2270 1.392 . S
C2269 C2273 1.495 . S
C2270 C2269 1.392 . S
C2270 C2271 1.385 . S
C2270 C2272 1.478 . S
C2271 H2265 0.930 . S
C2271 C2267 1.400 . S
C2271 C2270 1.385 . S
C2272 C2270 1.478 . S
C2272 C2274 1.381 . S
C2272 C2278 1.383 . S
C2273 C2269 1.495 . S
C2273 H2279 0.959 . S
C2273 H2280 0.961 . S
C2273 H2281 0.960 . S
C2274 C2272 1.381 . S
C2274 C2275 1.394 . S
C2274 H2282 0.930 . S
C2275 C2274 1.394 . S
C2275 C2276 1.383 . S
C2275 H2283 0.929 . S
C2276 C2275 1.383 . S
C2276 C2277 1.377 . S
C2277 H2261 0.930 . S
C2277 C2276 1.377 . S
C2277 C2278 1.379 . S
C2278 H2262 0.931 . S
C2278 C2272 1.383 . S
C2278 C2277 1.379 . S
H2279 C2273 0.959 . S
H2280 C2273 0.961 . S
H2281 C2273 0.960 . S
H2282 C2274 0.930 . S
H2283 C2275 0.929 . S
H2284 C2292 0.929 . S
H2285 C2294 0.930 . S
H2286 C2296 0.930 . S
H2287 C2299 0.929 . S
H2288 C2302 0.930 . S
H2289 C2304 0.960 . S
H2290 C2304 0.960 . S
H2291 C2304 0.960 . S
C2292 H2284 0.929 . S
C2292 C2293 1.377 . S
C2292 C2294 1.384 . S
C2293 C2292 1.377 . S
C2293 C2299 1.390 . S
C2294 H2285 0.930 . S
C2294 C2292 1.384 . S
C2294 C2295 1.372 . S
C2295 C2294 1.372 . S
C2295 C2296 1.400 . S
C2295 C2300 1.490 . S
C2296 H2286 0.930 . S
C2296 C2295 1.400 . S
C2296 C2299 1.386 . S
H2297 C2313 0.930 . S
H2298 C2314 0.931 . S
C2299 H2287 0.929 . S
C2299 C2293 1.390 . S
C2299 C2296 1.386 . S
C2300 C2295 1.490 . S
C2300 C2302 1.395 . S
C2300 C2303 1.403 . S
H2301 C2307 0.930 . S
C2302 H2288 0.930 . S
C2302 C2300 1.395 . S
C2302 C2305 1.403 . S
C2303 C2300 1.403 . S
C2303 C2304 1.524 . S
C2303 C2307 1.400 . S
C2304 H2289 0.960 . S
C2304 H2290 0.960 . S
C2304 H2291 0.960 . S
C2304 C2303 1.524 . S
C2305 C2302 1.403 . S
C2305 C2306 1.392 . S
C2305 C2309 1.495 . S
C2306 C2305 1.392 . S
C2306 C2307 1.385 . S
C2306 C2308 1.478 . S
C2307 H2301 0.930 . S
C2307 C2303 1.400 . S
C2307 C2306 1.385 . S
C2308 C2306 1.478 . S
C2308 C2310 1.381 . S
C2308 C2314 1.383 . S
C2309 C2305 1.495 . S
C2309 H2315 0.959 . S
C2309 H2316 0.961 . S
C2309 H2317 0.960 . S
C2310 C2308 1.381 . S
C2310 C2311 1.394 . S
C2310 H2318 0.930 . S
C2311 C2310 1.394 . S
C2311 C2312 1.383 . S
C2311 H2319 0.929 . S
C2312 C2311 1.383 . S
C2312 C2313 1.377 . S
C2313 H2297 0.930 . S
C2313 C2312 1.377 . S
C2313 C2314 1.379 . S
C2314 H2298 0.931 . S
C2314 C2308 1.383 . S
C2314 C2313 1.379 . S
H2315 C2309 0.959 . S
H2316 C2309 0.961 . S
H2317 C2309 0.960 . S
H2318 C2310 0.930 . S
H2319 C2311 0.929 . S
H2320 C2328 0.929 . S
H2321 C2330 0.930 . S
H2322 C2332 0.930 . S
H2323 C2335 0.929 . S
H2324 C2338 0.930 . S
H2325 C2340 0.960 . S
H2326 C2340 0.960 . S
H2327 C2340 0.960 . S
C2328 H2320 0.929 . S
C2328 C2329 1.377 . S
C2328 C2330 1.384 . S
C2329 C2328 1.377 . S
C2329 C2335 1.390 . S
C2330 H2321 0.930 . S
C2330 C2328 1.384 . S
C2330 C2331 1.372 . S
C2331 C2330 1.372 . S
C2331 C2332 1.400 . S
C2331 C2336 1.490 . S
C2332 H2322 0.930 . S
C2332 C2331 1.400 . S
C2332 C2335 1.386 . S
H2333 C2349 0.930 . S
H2334 C2350 0.931 . S
C2335 H2323 0.929 . S
C2335 C2329 1.390 . S
C2335 C2332 1.386 . S
C2336 C2331 1.490 . S
C2336 C2338 1.395 . S
C2336 C2339 1.403 . S
H2337 C2343 0.930 . S
C2338 H2324 0.930 . S
C2338 C2336 1.395 . S
C2338 C2341 1.403 . S
C2339 C2336 1.403 . S
C2339 C2340 1.524 . S
C2339 C2343 1.400 . S
C2340 H2325 0.960 . S
C2340 H2326 0.960 . S
C2340 H2327 0.960 . S
C2340 C2339 1.524 . S
C2341 C2338 1.403 . S
C2341 C2342 1.392 . S
C2341 C2345 1.495 . S
C2342 C2341 1.392 . S
C2342 C2343 1.385 . S
C2342 C2344 1.478 . S
C2343 H2337 0.930 . S
C2343 C2339 1.400 . S
C2343 C2342 1.385 . S
C2344 C2342 1.478 . S
C2344 C2346 1.381 . S
C2344 C2350 1.383 . S
C2345 C2341 1.495 . S
C2345 H2351 0.959 . S
C2345 H2352 0.961 . S
C2345 H2353 0.960 . S
C2346 C2344 1.381 . S
C2346 C2347 1.394 . S
C2346 H2354 0.930 . S
C2347 C2346 1.394 . S
C2347 C2348 1.383 . S
C2347 H2355 0.929 . S
C2348 C2347 1.383 . S
C2348 C2349 1.377 . S
C2349 H2333 0.930 . S
C2349 C2348 1.377 . S
C2349 C2350 1.379 . S
C2350 H2334 0.931 . S
C2350 C2344 1.383 . S
C2350 C2349 1.379 . S
H2351 C2345 0.959 . S
H2352 C2345 0.961 . S
H2353 C2345 0.960 . S
H2354 C2346 0.930 . S
H2355 C2347 0.929 . S
H2356 C2364 0.929 . S
H2357 C2366 0.930 . S
H2358 C2368 0.930 . S
H2359 C2371 0.929 . S
H2360 C2374 0.930 . S
H2361 C2376 0.960 . S
H2362 C2376 0.960 . S
H2363 C2376 0.960 . S
C2364 H2356 0.929 . S
C2364 C2365 1.377 . S
C2364 C2366 1.384 . S
C2365 C2364 1.377 . S
C2365 C2371 1.390 . S
C2366 H2357 0.930 . S
C2366 C2364 1.384 . S
C2366 C2367 1.372 . S
C2367 C2366 1.372 . S
C2367 C2368 1.400 . S
C2367 C2372 1.490 . S
C2368 H2358 0.930 . S
C2368 C2367 1.400 . S
C2368 C2371 1.386 . S
H2369 C2385 0.930 . S
H2370 C2386 0.931 . S
C2371 H2359 0.929 . S
C2371 C2365 1.390 . S
C2371 C2368 1.386 . S
C2372 C2367 1.490 . S
C2372 C2374 1.395 . S
C2372 C2375 1.403 . S
H2373 C2379 0.930 . S
C2374 H2360 0.930 . S
C2374 C2372 1.395 . S
C2374 C2377 1.403 . S
C2375 C2372 1.403 . S
C2375 C2376 1.524 . S
C2375 C2379 1.400 . S
C2376 H2361 0.960 . S
C2376 H2362 0.960 . S
C2376 H2363 0.960 . S
C2376 C2375 1.524 . S
C2377 C2374 1.403 . S
C2377 C2378 1.392 . S
C2377 C2381 1.495 . S
C2378 C2377 1.392 . S
C2378 C2379 1.385 . S
C2378 C2380 1.478 . S
C2379 H2373 0.930 . S
C2379 C2375 1.400 . S
C2379 C2378 1.385 . S
C2380 C2378 1.478 . S
C2380 C2382 1.381 . S
C2380 C2386 1.383 . S
C2381 C2377 1.495 . S
C2381 H2387 0.959 . S
C2381 H2388 0.961 . S
C2381 H2389 0.960 . S
C2382 C2380 1.381 . S
C2382 C2383 1.394 . S
C2382 H2390 0.930 . S
C2383 C2382 1.394 . S
C2383 C2384 1.383 . S
C2383 H2391 0.929 . S
C2384 C2383 1.383 . S
C2384 C2385 1.377 . S
C2385 H2369 0.930 . S
C2385 C2384 1.377 . S
C2385 C2386 1.379 . S
C2386 H2370 0.931 . S
C2386 C2380 1.383 . S
C2386 C2385 1.379 . S
H2387 C2381 0.959 . S
H2388 C2381 0.961 . S
H2389 C2381 0.960 . S
H2390 C2382 0.930 . S
H2391 C2383 0.929 . S
H2392 C2400 0.929 . S
H2393 C2402 0.930 . S
H2394 C2404 0.930 . S
H2395 C2407 0.929 . S
H2396 C2410 0.930 . S
H2397 C2412 0.960 . S
H2398 C2412 0.960 . S
H2399 C2412 0.960 . S
C2400 H2392 0.929 . S
C2400 C2401 1.377 . S
C2400 C2402 1.384 . S
C2401 C2400 1.377 . S
C2401 C2407 1.390 . S
C2402 H2393 0.930 . S
C2402 C2400 1.384 . S
C2402 C2403 1.372 . S
C2403 C2402 1.372 . S
C2403 C2404 1.400 . S
C2403 C2408 1.490 . S
C2404 H2394 0.930 . S
C2404 C2403 1.400 . S
C2404 C2407 1.386 . S
H2405 C2421 0.930 . S
H2406 C2422 0.931 . S
C2407 H2395 0.929 . S
C2407 C2401 1.390 . S
C2407 C2404 1.386 . S
C2408 C2403 1.490 . S
C2408 C2410 1.395 . S
C2408 C2411 1.403 . S
H2409 C2415 0.930 . S
C2410 H2396 0.930 . S
C2410 C2408 1.395 . S
C2410 C2413 1.403 . S
C2411 C2408 1.403 . S
C2411 C2412 1.524 . S
C2411 C2415 1.400 . S
C2412 H2397 0.960 . S
C2412 H2398 0.960 . S
C2412 H2399 0.960 . S
C2412 C2411 1.524 . S
C2413 C2410 1.403 . S
C2413 C2414 1.392 . S
C2413 C2417 1.495 . S
C2414 C2413 1.392 . S
C2414 C2415 1.385 . S
C2414 C2416 1.478 . S
C2415 H2409 0.930 . S
C2415 C2411 1.400 . S
C2415 C2414 1.385 . S
C2416 C2414 1.478 . S
C2416 C2418 1.381 . S
C2416 C2422 1.383 . S
C2417 C2413 1.495 . S
C2417 H2423 0.959 . S
C2417 H2424 0.961 . S
C2417 H2425 0.960 . S
C2418 C2416 1.381 . S
C2418 C2419 1.394 . S
C2418 H2426 0.930 . S
C2419 C2418 1.394 . S
C2419 C2420 1.383 . S
C2419 H2427 0.929 . S
C2420 C2419 1.383 . S
C2420 C2421 1.377 . S
C2421 H2405 0.930 . S
C2421 C2420 1.377 . S
C2421 C2422 1.379 . S
C2422 H2406 0.931 . S
C2422 C2416 1.383 . S
C2422 C2421 1.379 . S
H2423 C2417 0.959 . S
H2424 C2417 0.961 . S
H2425 C2417 0.960 . S
H2426 C2418 0.930 . S
H2427 C2419 0.929 . S
H2428 C2436 0.929 . S
H2429 C2438 0.930 . S
H2430 C2440 0.930 . S
H2431 C2443 0.929 . S
H2432 C2446 0.930 . S
H2433 C2448 0.960 . S
H2434 C2448 0.960 . S
H2435 C2448 0.960 . S
C2436 H2428 0.929 . S
C2436 C2437 1.377 . S
C2436 C2438 1.384 . S
C2437 C2436 1.377 . S
C2437 C2443 1.390 . S
C2438 H2429 0.930 . S
C2438 C2436 1.384 . S
C2438 C2439 1.372 . S
C2439 C2438 1.372 . S
C2439 C2440 1.400 . S
C2439 C2444 1.490 . S
C2440 H2430 0.930 . S
C2440 C2439 1.400 . S
C2440 C2443 1.386 . S
H2441 C2457 0.930 . S
H2442 C2458 0.931 . S
C2443 H2431 0.929 . S
C2443 C2437 1.390 . S
C2443 C2440 1.386 . S
C2444 C2439 1.490 . S
C2444 C2446 1.395 . S
C2444 C2447 1.403 . S
H2445 C2451 0.930 . S
C2446 H2432 0.930 . S
C2446 C2444 1.395 . S
C2446 C2449 1.403 . S
C2447 C2444 1.403 . S
C2447 C2448 1.524 . S
C2447 C2451 1.400 . S
C2448 H2433 0.960 . S
C2448 H2434 0.960 . S
C2448 H2435 0.960 . S
C2448 C2447 1.524 . S
C2449 C2446 1.403 . S
C2449 C2450 1.392 . S
C2449 C2453 1.495 . S
C2450 C2449 1.392 . S
C2450 C2451 1.385 . S
C2450 C2452 1.478 . S
C2451 H2445 0.930 . S
C2451 C2447 1.400 . S
C2451 C2450 1.385 . S
C2452 C2450 1.478 . S
C2452 C2454 1.381 . S
C2452 C2458 1.383 . S
C2453 C2449 1.495 . S
C2453 H2459 0.959 . S
C2453 H2460 0.961 . S
C2453 H2461 0.960 . S
C2454 C2452 1.381 . S
C2454 C2455 1.394 . S
C2454 H2462 0.930 . S
C2455 C2454 1.394 . S
C2455 C2456 1.383 . S
C2455 H2463 0.929 . S
C2456 C2455 1.383 . S
C2456 C2457 1.377 . S
C2457 H2441 0.930 . S
C2457 C2456 1.377 . S
C2457 C2458 1.379 . S
C2458 H2442 0.931 . S
C2458 C2452 1.383 . S
C2458 C2457 1.379 . S
H2459 C2453 0.959 . S
H2460 C2453 0.961 . S
H2461 C2453 0.960 . S
H2462 C2454 0.930 . S
H2463 C2455 0.929 . S
H2464 C2472 0.929 . S
H2465 C2474 0.930 . S
H2466 C2476 0.930 . S
H2467 C2479 0.929 . S
H2468 C2482 0.930 . S
H2469 C2484 0.960 . S
H2470 C2484 0.960 . S
H2471 C2484 0.960 . S
C2472 H2464 0.929 . S
C2472 C2473 1.377 . S
C2472 C2474 1.384 . S
C2473 C2472 1.377 . S
C2473 C2479 1.390 . S
C2474 H2465 0.930 . S
C2474 C2472 1.384 . S
C2474 C2475 1.372 . S
C2475 C2474 1.372 . S
C2475 C2476 1.400 . S
C2475 C2480 1.490 . S
C2476 H2466 0.930 . S
C2476 C2475 1.400 . S
C2476 C2479 1.386 . S
H2477 C2493 0.930 . S
H2478 C2494 0.931 . S
C2479 H2467 0.929 . S
C2479 C2473 1.390 . S
C2479 C2476 1.386 . S
C2480 C2475 1.490 . S
C2480 C2482 1.395 . S
C2480 C2483 1.403 . S
H2481 C2487 0.930 . S
C2482 H2468 0.930 . S
C2482 C2480 1.395 . S
C2482 C2485 1.403 . S
C2483 C2480 1.403 . S
C2483 C2484 1.524 . S
C2483 C2487 1.400 . S
C2484 H2469 0.960 . S
C2484 H2470 0.960 . S
C2484 H2471 0.960 . S
C2484 C2483 1.524 . S
C2485 C2482 1.403 . S
C2485 C2486 1.392 . S
C2485 C2489 1.495 . S
C2486 C2485 1.392 . S
C2486 C2487 1.385 . S
C2486 C2488 1.478 . S
C2487 H2481 0.930 . S
C2487 C2483 1.400 . S
C2487 C2486 1.385 . S
C2488 C2486 1.478 . S
C2488 C2490 1.381 . S
C2488 C2494 1.383 . S
C2489 C2485 1.495 . S
C2489 H2495 0.959 . S
C2489 H2496 0.961 . S
C2489 H2497 0.960 . S
C2490 C2488 1.381 . S
C2490 C2491 1.394 . S
C2490 H2498 0.930 . S
C2491 C2490 1.394 . S
C2491 C2492 1.383 . S
C2491 H2499 0.929 . S
C2492 C2491 1.383 . S
C2492 C2493 1.377 . S
C2493 H2477 0.930 . S
C2493 C2492 1.377 . S
C2493 C2494 1.379 . S
C2494 H2478 0.931 . S
C2494 C2488 1.383 . S
C2494 C2493 1.379 . S
H2495 C2489 0.959 . S
H2496 C2489 0.961 . S
H2497 C2489 0.960 . S
H2498 C2490 0.930 . S
H2499 C2491 0.929 . S
H2500 C2508 0.929 . S
H2501 C2510 0.930 . S
H2502 C2512 0.930 . S
H2503 C2515 0.929 . S
H2504 C2518 0.930 . S
H2505 C2520 0.960 . S
H2506 C2520 0.960 . S
H2507 C2520 0.960 . S
C2508 H2500 0.929 . S
C2508 C2509 1.377 . S
C2508 C2510 1.384 . S
C2509 C2508 1.377 . S
C2509 C2515 1.390 . S
C2510 H2501 0.930 . S
C2510 C2508 1.384 . S
C2510 C2511 1.372 . S
C2511 C2510 1.372 . S
C2511 C2512 1.400 . S
C2511 C2516 1.490 . S
C2512 H2502 0.930 . S
C2512 C2511 1.400 . S
C2512 C2515 1.386 . S
H2513 C2529 0.930 . S
H2514 C2530 0.931 . S
C2515 H2503 0.929 . S
C2515 C2509 1.390 . S
C2515 C2512 1.386 . S
C2516 C2511 1.490 . S
C2516 C2518 1.395 . S
C2516 C2519 1.403 . S
H2517 C2523 0.930 . S
C2518 H2504 0.930 . S
C2518 C2516 1.395 . S
C2518 C2521 1.403 . S
C2519 C2516 1.403 . S
C2519 C2520 1.524 . S
C2519 C2523 1.400 . S
C2520 H2505 0.960 . S
C2520 H2506 0.960 . S
C2520 H2507 0.960 . S
C2520 C2519 1.524 . S
C2521 C2518 1.403 . S
C2521 C2522 1.392 . S
C2521 C2525 1.495 . S
C2522 C2521 1.392 . S
C2522 C2523 1.385 . S
C2522 C2524 1.478 . S
C2523 H2517 0.930 . S
C2523 C2519 1.400 . S
C2523 C2522 1.385 . S
C2524 C2522 1.478 . S
C2524 C2526 1.381 . S
C2524 C2530 1.383 . S
C2525 C2521 1.495 . S
C2525 H2531 0.959 . S
C2525 H2532 0.961 . S
C2525 H2533 0.960 . S
C2526 C2524 1.381 . S
C2526 C2527 1.394 . S
C2526 H2534 0.930 . S
C2527 C2526 1.394 . S
C2527 C2528 1.383 . S
C2527 H2535 0.929 . S
C2528 C2527 1.383 . S
C2528 C2529 1.377 . S
C2529 H2513 0.930 . S
C2529 C2528 1.377 . S
C2529 C2530 1.379 . S
C2530 H2514 0.931 . S
C2530 C2524 1.383 . S
C2530 C2529 1.379 . S
H2531 C2525 0.959 . S
H2532 C2525 0.961 . S
H2533 C2525 0.960 . S
H2534 C2526 0.930 . S
H2535 C2527 0.929 . S
H2536 C2544 0.929 . S
H2537 C2546 0.930 . S
H2538 C2548 0.930 . S
H2539 C2551 0.929 . S
H2540 C2554 0.930 . S
H2541 C2556 0.960 . S
H2542 C2556 0.960 . S
H2543 C2556 0.960 . S
C2544 H2536 0.929 . S
C2544 C2545 1.377 . S
C2544 C2546 1.384 . S
C2545 C2544 1.377 . S
C2545 C2551 1.390 . S
C2546 H2537 0.930 . S
C2546 C2544 1.384 . S
C2546 C2547 1.372 . S
C2547 C2546 1.372 . S
C2547 C2548 1.400 . S
C2547 C2552 1.490 . S
C2548 H2538 0.930 . S
C2548 C2547 1.400 . S
C2548 C2551 1.386 . S
H2549 C2565 0.930 . S
H2550 C2566 0.931 . S
C2551 H2539 0.929 . S
C2551 C2545 1.390 . S
C2551 C2548 1.386 . S
C2552 C2547 1.490 . S
C2552 C2554 1.395 . S
C2552 C2555 1.403 . S
H2553 C2559 0.930 . S
C2554 H2540 0.930 . S
C2554 C2552 1.395 . S
C2554 C2557 1.403 . S
C2555 C2552 1.403 . S
C2555 C2556 1.524 . S
C2555 C2559 1.400 . S
C2556 H2541 0.960 . S
C2556 H2542 0.960 . S
C2556 H2543 0.960 . S
C2556 C2555 1.524 . S
C2557 C2554 1.403 . S
C2557 C2558 1.392 . S
C2557 C2561 1.495 . S
C2558 C2557 1.392 . S
C2558 C2559 1.385 . S
C2558 C2560 1.478 . S
C2559 H2553 0.930 . S
C2559 C2555 1.400 . S
C2559 C2558 1.385 . S
C2560 C2558 1.478 . S
C2560 C2562 1.381 . S
C2560 C2566 1.383 . S
C2561 C2557 1.495 . S
C2561 H2567 0.959 . S
C2561 H2568 0.961 . S
C2561 H2569 0.960 . S
C2562 C2560 1.381 . S
C2562 C2563 1.394 . S
C2562 H2570 0.930 . S
C2563 C2562 1.394 . S
C2563 C2564 1.383 . S
C2563 H2571 0.929 . S
C2564 C2563 1.383 . S
C2564 C2565 1.377 . S
C2565 H2549 0.930 . S
C2565 C2564 1.377 . S
C2565 C2566 1.379 . S
C2566 H2550 0.931 . S
C2566 C2560 1.383 . S
C2566 C2565 1.379 . S
H2567 C2561 0.959 . S
H2568 C2561 0.961 . S
H2569 C2561 0.960 . S
H2570 C2562 0.930 . S
H2571 C2563 0.929 . S
H2572 C2580 0.929 . S
H2573 C2582 0.930 . S
H2574 C2584 0.930 . S
H2575 C2587 0.929 . S
H2576 C2590 0.930 . S
H2577 C2592 0.960 . S
H2578 C2592 0.960 . S
H2579 C2592 0.960 . S
C2580 H2572 0.929 . S
C2580 C2581 1.377 . S
C2580 C2582 1.384 . S
C2581 C2580 1.377 . S
C2581 C2587 1.390 . S
C2582 H2573 0.930 . S
C2582 C2580 1.384 . S
C2582 C2583 1.372 . S
C2583 C2582 1.372 . S
C2583 C2584 1.400 . S
C2583 C2588 1.490 . S
C2584 H2574 0.930 . S
C2584 C2583 1.400 . S
C2584 C2587 1.386 . S
H2585 C2601 0.930 . S
H2586 C2602 0.931 . S
C2587 H2575 0.929 . S
C2587 C2581 1.390 . S
C2587 C2584 1.386 . S
C2588 C2583 1.490 . S
C2588 C2590 1.395 . S
C2588 C2591 1.403 . S
H2589 C2595 0.930 . S
C2590 H2576 0.930 . S
C2590 C2588 1.395 . S
C2590 C2593 1.403 . S
C2591 C2588 1.403 . S
C2591 C2592 1.524 . S
C2591 C2595 1.400 . S
C2592 H2577 0.960 . S
C2592 H2578 0.960 . S
C2592 H2579 0.960 . S
C2592 C2591 1.524 . S
C2593 C2590 1.403 . S
C2593 C2594 1.392 . S
C2593 C2597 1.495 . S
C2594 C2593 1.392 . S
C2594 C2595 1.385 . S
C2594 C2596 1.478 . S
C2595 H2589 0.930 . S
C2595 C2591 1.400 . S
C2595 C2594 1.385 . S
C2596 C2594 1.478 . S
C2596 C2598 1.381 . S
C2596 C2602 1.383 . S
C2597 C2593 1.495 . S
C2597 H2603 0.959 . S
C2597 H2604 0.961 . S
C2597 H2605 0.960 . S
C2598 C2596 1.381 . S
C2598 C2599 1.394 . S
C2598 H2606 0.930 . S
C2599 C2598 1.394 . S
C2599 C2600 1.383 . S
C2599 H2607 0.929 . S
C2600 C2599 1.383 . S
C2600 C2601 1.377 . S
C2601 H2585 0.930 . S
C2601 C2600 1.377 . S
C2601 C2602 1.379 . S
C2602 H2586 0.931 . S
C2602 C2596 1.383 . S
C2602 C2601 1.379 . S
H2603 C2597 0.959 . S
H2604 C2597 0.961 . S
H2605 C2597 0.960 . S
H2606 C2598 0.930 . S
H2607 C2599 0.929 . S
H2608 C2616 0.929 . S
H2609 C2618 0.930 . S
H2610 C2620 0.930 . S
H2611 C2623 0.929 . S
H2612 C2626 0.930 . S
H2613 C2628 0.960 . S
H2614 C2628 0.960 . S
H2615 C2628 0.960 . S
C2616 H2608 0.929 . S
C2616 C2617 1.377 . S
C2616 C2618 1.384 . S
C2617 C2616 1.377 . S
C2617 C2623 1.390 . S
C2618 H2609 0.930 . S
C2618 C2616 1.384 . S
C2618 C2619 1.372 . S
C2619 C2618 1.372 . S
C2619 C2620 1.400 . S
C2619 C2624 1.490 . S
C2620 H2610 0.930 . S
C2620 C2619 1.400 . S
C2620 C2623 1.386 . S
H2621 C2637 0.930 . S
H2622 C2638 0.931 . S
C2623 H2611 0.929 . S
C2623 C2617 1.390 . S
C2623 C2620 1.386 . S
C2624 C2619 1.490 . S
C2624 C2626 1.395 . S
C2624 C2627 1.403 . S
H2625 C2631 0.930 . S
C2626 H2612 0.930 . S
C2626 C2624 1.395 . S
C2626 C2629 1.403 . S
C2627 C2624 1.403 . S
C2627 C2628 1.524 . S
C2627 C2631 1.400 . S
C2628 H2613 0.960 . S
C2628 H2614 0.960 . S
C2628 H2615 0.960 . S
C2628 C2627 1.524 . S
C2629 C2626 1.403 . S
C2629 C2630 1.392 . S
C2629 C2633 1.495 . S
C2630 C2629 1.392 . S
C2630 C2631 1.385 . S
C2630 C2632 1.478 . S
C2631 H2625 0.930 . S
C2631 C2627 1.400 . S
C2631 C2630 1.385 . S
C2632 C2630 1.478 . S
C2632 C2634 1.381 . S
C2632 C2638 1.383 . S
C2633 C2629 1.495 . S
C2633 H2639 0.959 . S
C2633 H2640 0.961 . S
C2633 H2641 0.960 . S
C2634 C2632 1.381 . S
C2634 C2635 1.394 . S
C2634 H2642 0.930 . S
C2635 C2634 1.394 . S
C2635 C2636 1.383 . S
C2635 H2643 0.929 . S
C2636 C2635 1.383 . S
C2636 C2637 1.377 . S
C2637 H2621 0.930 . S
C2637 C2636 1.377 . S
C2637 C2638 1.379 . S
C2638 H2622 0.931 . S
C2638 C2632 1.383 . S
C2638 C2637 1.379 . S
H2639 C2633 0.959 . S
H2640 C2633 0.961 . S
H2641 C2633 0.960 . S
H2642 C2634 0.930 . S
H2643 C2635 0.929 . S
H2644 C2652 0.929 . S
H2645 C2654 0.930 . S
H2646 C2656 0.930 . S
H2647 C2659 0.929 . S
H2648 C2662 0.930 . S
H2649 C2664 0.960 . S
H2650 C2664 0.960 . S
H2651 C2664 0.960 . S
C2652 H2644 0.929 . S
C2652 C2653 1.377 . S
C2652 C2654 1.384 . S
C2653 C2652 1.377 . S
C2653 C2659 1.390 . S
C2654 H2645 0.930 . S
C2654 C2652 1.384 . S
C2654 C2655 1.372 . S
C2655 C2654 1.372 . S
C2655 C2656 1.400 . S
C2655 C2660 1.490 . S
C2656 H2646 0.930 . S
C2656 C2655 1.400 . S
C2656 C2659 1.386 . S
H2657 C2673 0.930 . S
H2658 C2674 0.931 . S
C2659 H2647 0.929 . S
C2659 C2653 1.390 . S
C2659 C2656 1.386 . S
C2660 C2655 1.490 . S
C2660 C2662 1.395 . S
C2660 C2663 1.403 . S
H2661 C2667 0.930 . S
C2662 H2648 0.930 . S
C2662 C2660 1.395 . S
C2662 C2665 1.403 . S
C2663 C2660 1.403 . S
C2663 C2664 1.524 . S
C2663 C2667 1.400 . S
C2664 H2649 0.960 . S
C2664 H2650 0.960 . S
C2664 H2651 0.960 . S
C2664 C2663 1.524 . S
C2665 C2662 1.403 . S
C2665 C2666 1.392 . S
C2665 C2669 1.495 . S
C2666 C2665 1.392 . S
C2666 C2667 1.385 . S
C2666 C2668 1.478 . S
C2667 H2661 0.930 . S
C2667 C2663 1.400 . S
C2667 C2666 1.385 . S
C2668 C2666 1.478 . S
C2668 C2670 1.381 . S
C2668 C2674 1.383 . S
C2669 C2665 1.495 . S
C2669 H2675 0.959 . S
C2669 H2676 0.961 . S
C2669 H2677 0.960 . S
C2670 C2668 1.381 . S
C2670 C2671 1.394 . S
C2670 H2678 0.930 . S
C2671 C2670 1.394 . S
C2671 C2672 1.383 . S
C2671 H2679 0.929 . S
C2672 C2671 1.383 . S
C2672 C2673 1.377 . S
C2673 H2657 0.930 . S
C2673 C2672 1.377 . S
C2673 C2674 1.379 . S
C2674 H2658 0.931 . S
C2674 C2668 1.383 . S
C2674 C2673 1.379 . S
H2675 C2669 0.959 . S
H2676 C2669 0.961 . S
H2677 C2669 0.960 . S
H2678 C2670 0.930 . S
H2679 C2671 0.929 . S
H2680 C2688 0.929 . S
H2681 C2690 0.930 . S
H2682 C2692 0.930 . S
H2683 C2695 0.929 . S
H2684 C2698 0.930 . S
H2685 C2700 0.960 . S
H2686 C2700 0.960 . S
H2687 C2700 0.960 . S
C2688 H2680 0.929 . S
C2688 C2689 1.377 . S
C2688 C2690 1.384 . S
C2689 C2688 1.377 . S
C2689 C2695 1.390 . S
C2690 H2681 0.930 . S
C2690 C2688 1.384 . S
C2690 C2691 1.372 . S
C2691 C2690 1.372 . S
C2691 C2692 1.400 . S
C2691 C2696 1.490 . S
C2692 H2682 0.930 . S
C2692 C2691 1.400 . S
C2692 C2695 1.386 . S
H2693 C2709 0.930 . S
H2694 C2710 0.931 . S
C2695 H2683 0.929 . S
C2695 C2689 1.390 . S
C2695 C2692 1.386 . S
C2696 C2691 1.490 . S
C2696 C2698 1.395 . S
C2696 C2699 1.403 . S
H2697 C2703 0.930 . S
C2698 H2684 0.930 . S
C2698 C2696 1.395 . S
C2698 C2701 1.403 . S
C2699 C2696 1.403 . S
C2699 C2700 1.524 . S
C2699 C2703 1.400 . S
C2700 H2685 0.960 . S
C2700 H2686 0.960 . S
C2700 H2687 0.960 . S
C2700 C2699 1.524 . S
C2701 C2698 1.403 . S
C2701 C2702 1.392 . S
C2701 C2705 1.495 . S
C2702 C2701 1.392 . S
C2702 C2703 1.385 . S
C2702 C2704 1.478 . S
C2703 H2697 0.930 . S
C2703 C2699 1.400 . S
C2703 C2702 1.385 . S
C2704 C2702 1.478 . S
C2704 C2706 1.381 . S
C2704 C2710 1.383 . S
C2705 C2701 1.495 . S
C2705 H2711 0.959 . S
C2705 H2712 0.961 . S
C2705 H2713 0.960 . S
C2706 C2704 1.381 . S
C2706 C2707 1.394 . S
C2706 H2714 0.930 . S
C2707 C2706 1.394 . S
C2707 C2708 1.383 . S
C2707 H2715 0.929 . S
C2708 C2707 1.383 . S
C2708 C2709 1.377 . S
C2709 H2693 0.930 . S
C2709 C2708 1.377 . S
C2709 C2710 1.379 . S
C2710 H2694 0.931 . S
C2710 C2704 1.383 . S
C2710 C2709 1.379 . S
H2711 C2705 0.959 . S
H2712 C2705 0.961 . S
H2713 C2705 0.960 . S
H2714 C2706 0.930 . S
H2715 C2707 0.929 . S
H2716 C2724 0.929 . S
H2717 C2726 0.930 . S
H2718 C2728 0.930 . S
H2719 C2731 0.929 . S
H2720 C2734 0.930 . S
H2721 C2736 0.960 . S
H2722 C2736 0.960 . S
H2723 C2736 0.960 . S
C2724 H2716 0.929 . S
C2724 C2725 1.377 . S
C2724 C2726 1.384 . S
C2725 C2724 1.377 . S
C2725 C2731 1.390 . S
C2726 H2717 0.930 . S
C2726 C2724 1.384 . S
C2726 C2727 1.372 . S
C2727 C2726 1.372 . S
C2727 C2728 1.400 . S
C2727 C2732 1.490 . S
C2728 H2718 0.930 . S
C2728 C2727 1.400 . S
C2728 C2731 1.386 . S
H2729 C2745 0.930 . S
H2730 C2746 0.931 . S
C2731 H2719 0.929 . S
C2731 C2725 1.390 . S
C2731 C2728 1.386 . S
C2732 C2727 1.490 . S
C2732 C2734 1.395 . S
C2732 C2735 1.403 . S
H2733 C2739 0.930 . S
C2734 H2720 0.930 . S
C2734 C2732 1.395 . S
C2734 C2737 1.403 . S
C2735 C2732 1.403 . S
C2735 C2736 1.524 . S
C2735 C2739 1.400 . S
C2736 H2721 0.960 . S
C2736 H2722 0.960 . S
C2736 H2723 0.960 . S
C2736 C2735 1.524 . S
C2737 C2734 1.403 . S
C2737 C2738 1.392 . S
C2737 C2741 1.495 . S
C2738 C2737 1.392 . S
C2738 C2739 1.385 . S
C2738 C2740 1.478 . S
C2739 H2733 0.930 . S
C2739 C2735 1.400 . S
C2739 C2738 1.385 . S
C2740 C2738 1.478 . S
C2740 C2742 1.381 . S
C2740 C2746 1.383 . S
C2741 C2737 1.495 . S
C2741 H2747 0.959 . S
C2741 H2748 0.961 . S
C2741 H2749 0.960 . S
C2742 C2740 1.381 . S
C2742 C2743 1.394 . S
C2742 H2750 0.930 . S
C2743 C2742 1.394 . S
C2743 C2744 1.383 . S
C2743 H2751 0.929 . S
C2744 C2743 1.383 . S
C2744 C2745 1.377 . S
C2745 H2729 0.930 . S
C2745 C2744 1.377 . S
C2745 C2746 1.379 . S
C2746 H2730 0.931 . S
C2746 C2740 1.383 . S
C2746 C2745 1.379 . S
H2747 C2741 0.959 . S
H2748 C2741 0.961 . S
H2749 C2741 0.960 . S
H2750 C2742 0.930 . S
H2751 C2743 0.929 . S
C457 C175 0.874 . S
C476 C3 0.842 . S
C493 C413 0.877 . S
C512 C17 0.824 . S
C529 C203 0.876 . S
C548 C31 0.904 . S
C565 C441 0.881 . S
C584 C45 0.875 . S
C601 C119 0.880 . S
C620 C59 0.840 . S
C637 C73 0.860 . S
C656 C357 0.864 . S
C673 C87 0.869 . S
C692 C147 0.893 . S
C709 C385 0.874 . S
C728 C101 0.891 . S
C745 C63 0.873 . S
C764 C115 0.900 . S
C781 C301 0.880 . S
C800 C129 0.825 . S
C817 C91 0.876 . S
C836 C143 0.863 . S
C853 C329 0.880 . S
C872 C157 0.825 . S
C889 C171 0.867 . S
C908 C7 0.868 . S
C925 C185 0.873 . S
C944 C245 0.859 . S
C961 C35 0.877 . S
C980 C199 0.887 . S
C997 C213 0.870 . S
C1016 C273 0.877 . S
C1033 C399 0.875 . S
C1052 C227 0.828 . S
C1069 C189 0.878 . S
C1088 C241 0.827 . S
C1105 C427 0.873 . S
C1124 C255 0.858 . S
C1141 C269 0.860 . S
C1160 C217 0.884 . S
C1177 C283 0.861 . S
C1196 C343 0.888 . S
C1213 C297 0.866 . S
C1232 C133 0.858 . S
C1249 C371 0.874 . S
C1268 C311 0.884 . S
C1285 C161 0.876 . S
C1304 C325 0.901 . S
C1321 C287 0.880 . S
C1340 C339 0.839 . S
C1357 C353 0.858 . S
C1376 C77 0.893 . S
C1393 C367 0.862 . S
C1412 C315 0.891 . S
C1429 C381 0.871 . S
C1448 C105 0.861 . S
C1465 C231 0.878 . S
C1484 C395 0.877 . S
C1501 C21 0.880 . S
C1520 C409 0.844 . S
C1537 C259 0.877 . S
C1556 C423 0.882 . S
C1573 C437 0.874 . S
C1592 C49 0.858 . S
C1609 C9 1.307 . S
C1628 C121 1.282 . S
C1645 C23 1.309 . S
C1664 C359 1.332 . S
C1681 C149 1.299 . S
C1700 C37 1.281 . S
C1717 C51 1.307 . S
C1736 C387 1.281 . S
C1753 C65 1.304 . S
C1772 C177 1.273 . S
C1789 C415 1.298 . S
C1808 C79 1.289 . S
C1825 C205 1.307 . S
C1844 C93 1.280 . S
C1861 C107 1.305 . S
C1880 C443 1.329 . S
C1897 C135 1.309 . S
C1916 C247 1.289 . S
C1933 C163 1.308 . S
C1952 C275 1.333 . S
C1969 C191 1.310 . S
C1988 C303 1.332 . S
C2005 C331 1.310 . S
C2024 C219 1.329 . S
C2041 C233 1.311 . S
C2060 C345 1.314 . S
C2077 C261 1.302 . S
C2096 C373 1.271 . S
C2113 C289 1.311 . S
C2132 C401 1.325 . S
C2149 C429 1.309 . S
C2168 C317 1.290 . S
C2185 C8 1.311 . S
C2204 C106 1.311 . S
C2221 C22 1.311 . S
C2240 C64 1.311 . S
C2257 C78 1.311 . S
C2276 C36 1.307 . S
C2293 C92 1.313 . S
C2312 C50 1.313 . S
C2329 C218 1.313 . S
C2348 C120 1.314 . S
C2365 C176 1.311 . S
C2384 C134 1.307 . S
C2401 C190 1.312 . S
C2420 C148 1.308 . S
C2437 C204 1.313 . S
C2456 C162 1.311 . S
C2473 C232 1.312 . S
C2492 C330 1.314 . S
C2509 C288 1.313 . S
C2528 C246 1.304 . S
C2545 C302 1.313 . S
C2564 C260 1.307 . S
C2581 C316 1.311 . S
C2600 C274 1.309 . S
C2617 C442 1.313 . S
C2636 C344 1.314 . S
C2653 C358 1.313 . S
C2672 C400 1.315 . S
C2689 C372 1.313 . S
C2708 C414 1.315 . S
C2725 C428 1.311 . S
C2744 C386 1.307 . S
