# Generated by pormake.
# Topology qtz-e, (6)-cn, num edge types: 1
# Building blocks:
#     Node 0, Type 0, BuildingBlock: HISSIN_clean_sbu_0, # of connection points: 6
#     Node 1, Type 0, BuildingBlock: HISSIN_clean_sbu_0, # of connection points: 6
#     Node 2, Type 0, BuildingBlock: HISSIN_clean_sbu_0, # of connection points: 6
#     Node 3, Type 0, BuildingBlock: HISSIN_clean_sbu_0, # of connection points: 6
#     Node 4, Type 0, BuildingBlock: HISSIN_clean_sbu_0, # of connection points: 6
#     Node 5, Type 0, BuildingBlock: HISSIN_clean_sbu_0, # of connection points: 6
#     Edge 6, Type (0, 0), BuildingBlock: XIVTED_clean_linker_0, # of connection points: 2
#     Edge 7, Type (0, 0), BuildingBlock: XIVTED_clean_linker_0, # of connection points: 2
#     Edge 8, Type (0, 0), BuildingBlock: XIVTED_clean_linker_0, # of connection points: 2
#     Edge 9, Type (0, 0), BuildingBlock: XIVTED_clean_linker_0, # of connection points: 2
#     Edge 10, Type (0, 0), BuildingBlock: XIVTED_clean_linker_0, # of connection points: 2
#     Edge 11, Type (0, 0), BuildingBlock: XIVTED_clean_linker_0, # of connection points: 2
#     Edge 12, Type (0, 0), BuildingBlock: XIVTED_clean_linker_0, # of connection points: 2
#     Edge 13, Type (0, 0), BuildingBlock: XIVTED_clean_linker_0, # of connection points: 2
#     Edge 14, Type (0, 0), BuildingBlock: XIVTED_clean_linker_0, # of connection points: 2
#     Edge 15, Type (0, 0), BuildingBlock: XIVTED_clean_linker_0, # of connection points: 2
#     Edge 16, Type (0, 0), BuildingBlock: XIVTED_clean_linker_0, # of connection points: 2
#     Edge 17, Type (0, 0), BuildingBlock: XIVTED_clean_linker_0, # of connection points: 2
#     Edge 18, Type (0, 0), BuildingBlock: XIVTED_clean_linker_0, # of connection points: 2
#     Edge 19, Type (0, 0), BuildingBlock: XIVTED_clean_linker_0, # of connection points: 2
#     Edge 20, Type (0, 0), BuildingBlock: XIVTED_clean_linker_0, # of connection points: 2
#     Edge 21, Type (0, 0), BuildingBlock: XIVTED_clean_linker_0, # of connection points: 2
#     Edge 22, Type (0, 0), BuildingBlock: XIVTED_clean_linker_0, # of connection points: 2
#     Edge 23, Type (0, 0), BuildingBlock: XIVTED_clean_linker_0, # of connection points: 2
# Relax obj value: 0.127
# Max RMSD: 0.199
# Mean RMSD: 0.199
data_MOF--net-qtz-e--node1-HISSIN_clean_sbu_0--edge1-XIVTED_clean_linker_0
_symmetry_space_group_name_H-M    P1
_symmetry_Int_Tables_number       1
_symmetry_cell_setting            triclinic
loop_
_symmetry_equiv_pos_as_xyz
'x, y, z'
_cell_length_a     26.302018
_cell_length_b     26.246863
_cell_length_c     52.097529
_cell_angle_alpha  90.371362
_cell_angle_beta   89.837422
_cell_angle_gamma 120.52487
loop_
_atom_site_label
_atom_site_type_symbol
_atom_site_fract_x
_atom_site_fract_y
_atom_site_fract_z
_atom_type_partial_charge
Eu0 Eu 0.16021 0.42296 0.0649 0.0
Eu1 Eu 0.10314 0.28956 0.03825 0.0
C2 C 0.04706 0.37056 0.03068 0.0
C3 C 0.1971 0.53067 0.11997 0.0
C4 C 0.14487 0.49521 0.13382 0.0
C5 C 0.24154 0.58897 0.15864 0.0
C6 C 0.14064 0.50727 0.15968 0.0
C7 C 0.24555 0.57725 0.13266 0.0
C8 C 0.18877 0.55455 0.17235 0.0
C9 C 0.20121 0.51933 0.09242 0.0
O10 O 0.14863 0.35443 1.00617 0.0
O11 O 0.21109 0.44205 0.02749 0.0
C12 C 0.19336 0.40937 1.00636 0.0
O13 O 0.19625 0.3685 0.08009 0.0
O14 O 0.04049 0.22367 1.01139 0.0
O15 O 0.09813 0.20431 0.03368 0.0
O16 O 0.20153 0.33013 0.04266 0.0
C17 C 0.22741 0.35762 0.06395 0.0
O18 O 0.0811 0.35948 0.08819 0.0
O19 O 0.08316 0.27442 0.08068 0.0
O20 O 0.03501 0.31791 0.03826 0.0
O21 O 0.23253 0.495 0.0866 0.0
O22 O 0.152 0.49638 0.07939 0.0
O23 O 0.10005 0.4166 0.03337 0.0
C24 C 0.08124 0.17404 0.98985 0.0
C25 C 0.1408 0.19207 0.98566 0.0
C26 C 0.06025 0.14282 0.94514 0.0
C27 C 0.16 0.18631 0.96139 0.0
C28 C 0.04092 0.14809 0.96954 0.0
C29 C 0.12035 0.16329 0.94061 0.0
C30 C 0.0623 0.1891 1.01404 0.0
C31 C 0.06885 0.30644 0.09519 0.0
H32 H 0.10705 0.45841 0.12461 0.0
H33 H 0.27924 0.62596 0.16782 0.0
H34 H 0.09968 0.47948 0.16979 0.0
H35 H 0.28632 0.60493 0.1224 0.0
H36 H 0.17311 0.21258 1.00087 0.0
H37 H 0.0285 0.12519 0.92961 0.0
H38 H 0.20634 0.20118 0.95882 0.0
H39 H -0.00516 0.1343 0.97228 0.0
Eu40 Eu 0.70761 0.18026 0.40568 0.0
Eu41 Eu 0.83579 0.20516 0.38379 0.0
C42 C 0.718 0.09161 0.36972 0.0
C43 C 0.5877 0.15447 0.45337 0.0
C44 C 0.54835 0.10202 0.4661 0.0
C45 C 0.59433 0.21015 0.49204 0.0
C46 C 0.53262 0.10343 0.4916 0.0
C47 C 0.61049 0.20866 0.46656 0.0
C48 C 0.55538 0.15751 0.50494 0.0
C49 C 0.60648 0.15126 0.42693 0.0
O50 O 0.80587 0.25192 0.3568 0.0
O51 O 0.70539 0.1994 0.36372 0.0
C52 C 0.75159 0.23611 0.34992 0.0
O53 O 0.76781 0.27833 0.40839 0.0
O54 O 0.88803 0.16781 0.36917 0.0
O55 O 0.92742 0.26284 0.37254 0.0
O56 O 0.85699 0.28186 0.41018 0.0
C57 C 0.82466 0.30669 0.41312 0.0
O58 O 0.76357 0.19089 0.43976 0.0
O59 O 0.81762 0.15463 0.4212 0.0
O60 O 0.76385 0.13577 0.359 0.0
O61 O 0.63901 0.20099 0.41488 0.0
O62 O 0.62498 0.11415 0.42333 0.0
O63 O 0.70668 0.0974 0.39359 0.0
C64 C 0.95061 0.22603 0.33529 0.0
C65 C 0.96507 0.27778 0.32169 0.0
C66 C 0.96092 0.18224 0.29566 0.0
C67 C -0.02381 0.28127 0.29536 0.0
C68 C 0.94993 0.17879 0.3221 0.0
C69 C -0.027 0.23313 0.2819 0.0
C70 C 0.93196 0.21955 0.36254 0.0
C71 C 0.79548 0.16576 0.44174 0.0
H72 H 0.53046 0.05967 0.45641 0.0
H73 H 0.61204 0.25265 0.50154 0.0
H74 H 0.50334 0.06188 0.50097 0.0
H75 H 0.64113 0.24993 0.45731 0.0
H76 H 0.96652 0.31532 0.33119 0.0
H77 H 0.95799 0.14429 0.2859 0.0
H78 H -0.01317 0.32171 0.28551 0.0
H79 H 0.93915 0.13845 0.33209 0.0
Eu80 Eu 0.53628 0.70349 0.73555 0.0
Eu81 Eu 0.64913 0.82108 0.70962 0.0
C82 C 0.63266 0.69695 0.7049 0.0
C83 C 0.43137 0.58831 0.78359 0.0
C84 C 0.40333 0.52883 0.79079 0.0
C85 C 0.4103 0.61348 0.82579 0.0
C86 C 0.37871 0.5116 0.81525 0.0
C87 C 0.43512 0.6307 0.80127 0.0
C88 C 0.3815 0.55359 0.83305 0.0
C89 C 0.45825 0.6055 0.75796 0.0
O90 O 0.57525 0.79601 0.6818 0.0
O91 O 0.51369 0.69836 0.69306 0.0
C92 C 0.52939 0.74322 0.67728 0.0
O93 O 0.50878 0.7705 0.74023 0.0
O94 O 0.7293 0.85376 0.68671 0.0
O95 O 0.70799 0.9158 0.70403 0.0
O96 O 0.58747 0.85317 0.72148 0.0
C97 C 0.53523 0.82574 0.73266 0.0
O98 O 0.58318 0.76572 0.76811 0.0
O99 O 0.67487 0.81008 0.74991 0.0
O100 O 0.63665 0.73861 0.69019 0.0
O101 O 0.44447 0.63818 0.74425 0.0
O102 O 0.51435 0.62346 0.75675 0.0
O103 O 0.61691 0.69682 0.72859 0.0
C104 C 0.75322 0.93901 0.66318 0.0
C105 C 0.70809 0.94241 0.65046 0.0
C106 C 0.81929 -0.0103 0.62753 0.0
C107 C 0.7187 0.96988 0.62659 0.0
C108 C 0.80877 0.96262 0.65155 0.0
C109 C 0.77441 -0.00613 0.61487 0.0
C110 C 0.74196 0.90858 0.68793 0.0
C111 C 0.64076 0.7957 0.7703 0.0
H112 H 0.40075 0.49564 0.77751 0.0
H113 H 0.4129 0.64694 0.83888 0.0
H114 H 0.35802 0.46532 0.8203 0.0
H115 H 0.45718 0.67703 0.7961 0.0
H116 H 0.66454 0.92351 0.6589 0.0
H117 H 0.86269 0.00806 0.61901 0.0
H118 H 0.683 0.97162 0.61711 0.0
H119 H 0.84393 0.95986 0.66101 0.0
Eu120 Eu 0.71979 0.5418 0.08027 0.0
Eu121 Eu 0.78789 0.6682 0.04733 0.0
C122 C 0.84068 0.58435 0.0557 0.0
C123 C 0.6831 0.42497 0.13248 0.0
C124 C 0.73445 0.4225 0.13705 0.0
C125 C 0.64855 0.38694 0.17539 0.0
C126 C 0.74264 0.40226 0.16059 0.0
C127 C 0.64026 0.40684 0.15184 0.0
C128 C 0.69976 0.38422 0.18007 0.0
C129 C 0.67274 0.44554 0.10775 0.0
O130 O 0.72144 0.60169 0.01976 0.0
O131 O 0.706 0.5152 0.03815 0.0
C132 C 0.70257 0.54475 1.01845 0.0
O133 O 0.64852 0.55709 0.06725 0.0
O134 O 0.85211 0.7215 1.01797 0.0
O135 O 0.80712 0.75785 0.03926 0.0
O136 O 0.70055 0.65766 0.05985 0.0
C137 C 0.65103 0.60758 0.0637 0.0
O138 O 0.75214 0.61605 0.10917 0.0
O139 O 0.8301 0.68862 0.0866 0.0
O140 O 0.82917 0.61293 0.03833 0.0
O141 O 0.65639 0.48485 0.1091 0.0
O142 O 0.71019 0.45619 0.08912 0.0
O143 O 0.81623 0.57551 0.07827 0.0
C144 C 0.82315 0.77905 0.99516 0.0
C145 C 0.76562 0.74332 0.98574 0.0
C146 C 0.8489 0.83832 0.95648 0.0
C147 C 0.74981 0.75486 0.96188 0.0
C148 C 0.86468 0.82672 0.98047 0.0
C149 C 0.79128 0.80234 0.94688 0.0
C150 C 0.84029 0.76397 1.01949 0.0
C151 C 0.80302 0.66594 0.10845 0.0
H152 H 0.76825 0.43596 0.12247 0.0
H153 H 0.61503 0.37436 0.19004 0.0
H154 H 0.78223 0.40001 0.16338 0.0
H155 H 0.60026 0.40825 0.14878 0.0
H156 H 0.73314 0.70582 0.99669 0.0
H157 H 0.88172 0.87542 0.94547 0.0
H158 H 0.70544 0.72556 0.9549 0.0
H159 H 0.90942 0.85447 0.98739 0.0
Eu160 Eu 0.23618 0.76442 0.40199 0.0
Eu161 Eu 0.17959 0.83225 0.36878 0.0
C162 C 0.30997 0.85873 0.35956 0.0
C163 C 0.29494 0.71191 0.45719 0.0
C164 C 0.29258 0.74991 0.47559 0.0
C165 C 0.33176 0.6729 0.48977 0.0
C166 C 0.31054 0.74997 0.50089 0.0
C167 C 0.31389 0.67296 0.4645 0.0
C168 C 0.33116 0.71201 0.50821 0.0
C169 C 0.28098 0.71456 0.43006 0.0
O170 O 0.17585 0.76454 0.34116 0.0
O171 O 0.19554 0.70513 0.36703 0.0
C172 C 0.17973 0.71713 0.34488 0.0
O173 O 0.14998 0.74392 0.41924 0.0
O174 O 0.18556 0.88881 0.33701 0.0
O175 O 0.11115 0.85481 0.36296 0.0
O176 O 0.1056 0.74362 0.3819 0.0
C177 C 0.10235 0.72394 0.40528 0.0
O178 O 0.2654 0.85133 0.42239 0.0
O179 O 0.19222 0.86835 0.40906 0.0
O180 O 0.27911 0.88426 0.36469 0.0
O181 O 0.22514 0.6886 0.42387 0.0
O182 O 0.31239 0.76582 0.41895 0.0
O183 O 0.29248 0.80526 0.36755 0.0
C184 C 0.09341 0.8613 0.31907 0.0
C185 C 0.06215 0.80113 0.31232 0.0
C186 C 0.0535 0.88331 0.28153 0.0
C187 C 0.0268 0.78215 0.29032 0.0
C188 C 0.08871 0.90222 0.30362 0.0
C189 C 0.02233 0.82306 0.27455 0.0
C190 C 0.13349 0.88169 0.34129 0.0
C191 C 0.2334 0.87644 0.42558 0.0
H192 H 0.27792 0.78024 0.47028 0.0
H193 H 0.34804 0.64366 0.49458 0.0
H194 H 0.30873 0.78011 0.51465 0.0
H195 H 0.31621 0.6435 0.4505 0.0
H196 H 0.06585 0.76895 0.32385 0.0
H197 H 0.0506 0.91583 0.26992 0.0
H198 H 0.00417 0.73561 0.28531 0.0
H199 H 0.11283 0.94888 0.30848 0.0
Eu200 Eu 0.42496 0.20425 0.7438 0.0
Eu201 Eu 0.30035 0.14148 0.70918 0.0
C202 C 0.38554 0.27867 0.71548 0.0
C203 C 0.53475 0.29169 0.7972 0.0
C204 C 0.49473 0.27015 0.8178 0.0
C205 C 0.60586 0.37102 0.82473 0.0
C206 C 0.51049 0.29833 0.84176 0.0
C207 C 0.59019 0.34255 0.80081 0.0
C208 C 0.56639 0.3489 0.84556 0.0
C209 C 0.51976 0.26093 0.77213 0.0
O210 O 0.36608 0.12794 0.68756 0.0
O211 O 0.45237 0.20764 0.70207 0.0
C212 C 0.42234 0.16648 0.68465 0.0
O213 O 0.40097 0.1103 0.73934 0.0
O214 O 0.25282 0.15521 0.67815 0.0
O215 O 0.21591 0.06886 0.69531 0.0
O216 O 0.30273 0.06471 0.72722 0.0
C217 C 0.34895 0.06311 0.73573 0.0
O218 O 0.35089 0.17133 0.77228 0.0
O219 O 0.27329 0.16133 0.74753 0.0
O220 O 0.36139 0.23707 0.69804 0.0
O221 O 0.48435 0.20372 0.77262 0.0
O222 O 0.5072 0.28576 0.7535 0.0
O223 O 0.38778 0.26305 0.73888 0.0
C224 C 0.21211 0.07374 0.64997 0.0
C225 C 0.23838 0.03936 0.64548 0.0
C226 C 0.19255 0.07076 0.6042 0.0
C227 C 0.24163 0.0208 0.62063 0.0
C228 C 0.18897 0.089 0.62915 0.0
C229 C 0.21934 0.03673 0.59955 0.0
C230 C 0.21467 0.09894 0.67572 0.0
C231 C 0.29831 0.16539 0.76996 0.0
H232 H 0.45144 0.23119 0.81544 0.0
H233 H 0.64941 0.40959 0.82707 0.0
H234 H 0.4788 0.2807 0.8573 0.0
H235 H 0.62167 0.35989 0.78517 0.0
H236 H 0.25747 0.02766 0.66114 0.0
H237 H 0.1757 0.08476 0.5885 0.0
H238 H 0.26171 -0.00607 0.61799 0.0
H239 H 0.1695 0.11638 0.63209 0.0
H240 H 0.1052 0.69493 0.30474 0.0
H241 H 0.26725 0.58192 0.21209 0.0
H242 H 0.23582 0.65597 0.33276 0.0
H243 H 0.09766 0.56121 0.19431 0.0
H244 H 0.25883 0.6113 0.256 0.0
H245 H 0.10253 0.64701 0.264 0.0
C246 C 0.13267 0.6754 0.30243 0.0
C247 C 0.17076 0.67935 0.32216 0.0
C248 C 0.22323 0.59972 0.24255 0.0
C249 C 0.16906 0.62569 0.27527 0.0
C250 C 0.2282 0.58339 0.21745 0.0
C251 C 0.18319 0.5693 0.19947 0.0
C252 C 0.17337 0.60301 0.2496 0.0
C253 C 0.13325 0.57133 0.20755 0.0
C254 C 0.13117 0.64808 0.27916 0.0
C255 C 0.20548 0.65341 0.31811 0.0
N256 N 0.13 0.5885 0.23189 0.0
N257 N 0.20454 0.62849 0.29495 0.0
H258 H 0.52985 0.2494 0.6639 0.0
H259 H 0.4474 0.08761 0.52741 0.0
H260 H 0.37618 0.07812 0.64907 0.0
H261 H 0.62365 0.23039 0.54459 0.0
H262 H 0.42011 0.08824 0.57192 0.0
H263 H 0.56576 0.24735 0.62042 0.0
C264 C 0.50411 0.21117 0.65171 0.0
C265 C 0.44967 0.16419 0.66009 0.0
C266 C 0.46486 0.11936 0.56603 0.0
C267 C 0.48981 0.16199 0.61048 0.0
C268 C 0.48064 0.11884 0.54055 0.0
C269 C 0.53815 0.15871 0.53212 0.0
C270 C 0.5065 0.16045 0.58338 0.0
C271 C 0.57862 0.19924 0.55009 0.0
C272 C 0.52446 0.21013 0.6269 0.0
C273 C 0.41801 0.11581 0.64343 0.0
N274 N 0.56199 0.19918 0.57487 0.0
N275 N 0.43827 0.11627 0.61946 0.0
H276 H 0.29256 0.51826 0.99644 0.0
H277 H 0.27685 0.45411 0.84504 0.0
H278 H 0.1625 0.35646 0.95926 0.0
H279 H 0.42201 0.6094 0.87999 0.0
H280 H 0.23286 0.42105 0.8872 0.0
H281 H 0.33933 0.55587 0.95444 0.0
C282 C 0.27376 0.49073 0.97955 0.0
C283 C 0.22332 0.43415 0.98149 0.0
C284 C 0.27438 0.4624 0.88575 0.0
C285 C 0.27647 0.47683 0.9335 0.0
C286 C 0.29978 0.48119 0.8616 0.0
C287 C 0.35364 0.53443 0.85885 0.0
C288 C 0.30263 0.49701 0.90756 0.0
C289 C 0.38027 0.56825 0.88111 0.0
C290 C 0.30052 0.51217 0.9556 0.0
C291 C 0.20115 0.40036 0.95891 0.0
N292 N 0.35458 0.54892 0.90453 0.0
N293 N 0.22772 0.42222 0.93601 0.0
H294 H 0.64714 0.2045 0.32548 0.0
H295 H 0.80219 0.4257 0.20786 0.0
H296 H 0.83587 0.31832 0.31801 0.0
H297 H 0.61671 0.2936 0.20967 0.0
H298 H 0.81477 0.38992 0.24913 0.0
H299 H 0.63432 0.24044 0.28422 0.0
C300 C 0.68588 0.23721 0.31526 0.0
C301 C 0.74268 0.25844 0.3253 0.0
C302 C 0.77131 0.36875 0.24049 0.0
C303 C 0.72827 0.29968 0.278 0.0
C304 C 0.76414 0.38893 0.21681 0.0
C305 C 0.70827 0.3627 0.20517 0.0
C306 C 0.72226 0.32209 0.25276 0.0
C307 C 0.66045 0.31587 0.21803 0.0
C308 C 0.67852 0.25756 0.29164 0.0
C309 C 0.79122 0.30062 0.31107 0.0
N310 N 0.66854 0.29716 0.2411 0.0
N311 N 0.78289 0.31985 0.28819 0.0
H312 H 0.44358 0.63958 0.65433 0.0
H313 H 0.39999 0.8111 0.53721 0.0
H314 H 0.53781 0.8294 0.64561 0.0
H315 H 0.31785 0.62098 0.5391 0.0
H316 H 0.44364 0.81699 0.57908 0.0
H317 H 0.39088 0.63023 0.61405 0.0
C318 C 0.45307 0.6792 0.64405 0.0
C319 C 0.4955 0.7353 0.65336 0.0
C320 C 0.41592 0.77386 0.57043 0.0
C321 C 0.43534 0.72497 0.60742 0.0
C322 C 0.39048 0.77044 0.54655 0.0
C323 C 0.3551 0.71545 0.5345 0.0
C324 C 0.40611 0.72195 0.58256 0.0
C325 C 0.34542 0.66441 0.54748 0.0
C326 C 0.42307 0.67384 0.62105 0.0
C327 C 0.50595 0.78512 0.63919 0.0
N328 N 0.37085 0.66888 0.57077 0.0
N329 N 0.47621 0.77873 0.61704 0.0
H330 H 0.65209 0.426 1.00737 0.0
H331 H 0.62442 0.46751 0.85686 0.0
H332 H 0.69842 0.59313 0.97266 0.0
H333 H 0.54845 0.29647 0.89274 0.0
H334 H 0.65512 0.51439 0.89911 0.0
H335 H 0.61644 0.37758 0.96557 0.0
C336 C 0.65462 0.45252 0.99104 0.0
C337 C 0.67844 0.51381 0.99361 0.0
C338 C 0.63154 0.46658 0.89778 0.0
C339 C 0.63804 0.45867 0.94566 0.0
C340 C 0.6143 0.43981 0.87363 0.0
C341 C 0.58389 0.37796 0.87122 0.0
C342 C 0.61881 0.43136 0.91977 0.0
C343 C 0.57131 0.34428 0.8937 0.0
C344 C 0.63419 0.42481 0.96717 0.0
C345 C 0.68047 0.5458 0.9717 0.0
N346 N 0.58909 0.3714 0.91699 0.0
N347 N 0.66086 0.51794 0.9487 0.0
H348 H 0.29516 0.42058 0.10463 0.0
H349 H 0.58793 0.59308 0.0209 0.0
H350 H 0.30505 0.39027 0.02368 0.0
H351 H 0.58384 0.60545 0.10323 0.0
H352 H 0.47993 0.537 0.02026 0.0
H353 H 0.39773 0.50082 0.10356 0.0
C354 C 0.31924 0.43025 0.08671 0.0
C355 C 0.29173 0.39832 0.06428 0.0
C356 C 0.50253 0.55361 0.03842 0.0
C357 C 0.40867 0.49104 0.06278 0.0
C358 C 0.56402 0.58676 0.0387 0.0
C359 C 0.59416 0.6041 0.06214 0.0
C360 C 0.47166 0.53753 0.0618 0.0
C361 C 0.56172 0.59331 0.08479 0.0
C362 C 0.37754 0.47652 0.08605 0.0
C363 C 0.32475 0.41314 0.04151 0.0
N364 N 0.50201 0.5596 0.08414 0.0
N365 N 0.38155 0.45858 0.04134 0.0
H366 H 0.08756 0.66226 0.44935 0.0
H367 H 0.78739 0.38362 0.40182 0.0
H368 H -0.00533 0.66357 0.3813 0.0
H369 H 0.92826 0.37322 0.43906 0.0
H370 H 0.84392 0.49135 0.40684 0.0
H371 H 0.00799 0.562 0.45828 0.0
C372 C 0.04981 0.64212 0.43659 0.0
C373 C 0.04845 0.67064 0.4141 0.0
C374 C 0.86167 0.46518 0.41435 0.0
C375 C 0.95751 0.55642 0.42446 0.0
C376 C 0.82961 0.40389 0.41157 0.0
C377 C 0.85384 0.36983 0.41971 0.0
C378 C 0.91764 0.49209 0.42574 0.0
C379 C 0.90858 0.39814 0.43218 0.0
C380 C 0.00457 0.58489 0.44174 0.0
C381 C -0.00203 0.64266 0.39855 0.0
N382 N 0.93895 0.45789 0.43468 0.0
N383 N 0.9547 0.58647 0.40382 0.0
H384 H 0.36157 0.01192 0.77821 0.0
H385 H 0.53435 0.90287 0.69857 0.0
H386 H 0.3396 -0.00751 0.69616 0.0
H387 H 0.45724 0.81455 0.76999 0.0
H388 H 0.46979 0.94477 0.69924 0.0
H389 H 0.3977 0.94218 0.77796 0.0
C390 C 0.36185 -0.00931 0.76034 0.0
C391 C 0.34709 0.00684 0.73721 0.0
C392 C 0.46695 0.91602 0.71469 0.0
C393 C 0.39126 0.93083 0.73657 0.0
C394 C 0.50439 0.89307 0.71456 0.0
C395 C 0.50138 0.85598 0.73442 0.0
C396 C 0.42736 0.90279 0.73511 0.0
C397 C 0.46092 0.8434 0.75443 0.0
C398 C 0.38293 0.95156 0.76016 0.0
C399 C 0.34977 0.98001 0.71438 0.0
N400 N 0.42584 0.86751 0.75449 0.0
N401 N 0.37319 0.94437 0.7145 0.0
H402 H 0.67316 0.62819 0.72272 0.0
H403 H 0.39871 0.33223 0.66846 0.0
H404 H 0.56044 0.63541 0.66476 0.0
H405 H 0.46729 0.36591 0.74588 0.0
H406 H 0.47436 0.43462 0.65718 0.0
H407 H 0.62009 0.52066 0.71862 0.0
C408 C 0.63887 0.60711 0.70831 0.0
C409 C 0.62041 0.64008 0.69432 0.0
C410 C 0.47267 0.41882 0.6765 0.0
C411 C 0.55793 0.51773 0.69044 0.0
C412 C 0.42944 0.36094 0.68301 0.0
C413 C 0.42652 0.34059 0.70816 0.0
C414 C 0.51373 0.45529 0.69514 0.0
C415 C 0.46753 0.37936 0.72626 0.0
C416 C 0.60813 0.54587 0.70619 0.0
C417 C 0.57559 0.61104 0.67595 0.0
N418 N 0.50947 0.4345 0.71934 0.0
N419 N 0.54436 0.55089 0.67504 0.0
H420 H 0.93682 0.31867 0.05141 0.0
H421 H 0.89902 0.59041 1.01107 0.0
H422 H 0.05207 0.45225 0.99767 0.0
H423 H 0.83837 0.49429 0.08228 0.0
H424 H 0.93446 0.52395 0.99772 0.0
H425 H 0.87484 0.36353 0.05269 0.0
C426 C 0.9477 0.356 0.03913 0.0
C427 C -0.0001 0.38272 0.0248 0.0
C428 C 0.91302 0.51748 1.01618 0.0
C429 C 0.93066 0.43459 0.02656 0.0
C430 C 0.89341 0.55561 0.0239 0.0
C431 C 0.86662 0.54844 0.04797 0.0
C432 C 0.90487 0.47158 0.03251 0.0
C433 C 0.85959 0.5021 0.06372 0.0
C434 C 0.91288 0.38201 0.0401 0.0
C435 C 0.01246 0.4312 1.0093 0.0
N436 N 0.8786 0.46545 0.0557 0.0
N437 N -0.02141 0.4564 1.01092 0.0
H438 H 0.37652 0.97749 0.34823 0.0
H439 H 0.67553 0.11416 0.32628 0.0
H440 H 0.377 0.81341 0.3429 0.0
H441 H 0.64549 0.97481 0.37851 0.0
H442 H 0.57289 0.05471 0.31154 0.0
H443 H 0.48179 0.03102 0.33722 0.0
C444 C 0.39823 0.95267 0.34406 0.0
C445 C 0.36854 0.89119 0.34729 0.0
C446 C 0.58962 0.03658 0.32557 0.0
C447 C 0.4879 0.95162 0.33466 0.0
C448 C 0.64808 0.07004 0.33383 0.0
C449 C 0.66812 0.0494 0.35396 0.0
C450 C 0.55229 -0.01811 0.33714 0.0
C451 C 0.63118 -0.00783 0.36311 0.0
C452 C 0.45809 -0.01687 0.33755 0.0
C453 C 0.39863 0.86107 0.34142 0.0
N454 N 0.57461 0.96047 0.35479 0.0
N455 N 0.45713 0.89173 0.33619 0.0
H456 H 0.35148 0.22651 0.81324 0.0
H457 H 0.06747 0.08021 0.90182 0.0
H458 H 0.17929 0.1089 0.78113 0.0
H459 H 0.2234 0.24834 0.9188 0.0
H460 H 0.10711 0.08268 0.85884 0.0
H461 H 0.30552 0.22722 0.85371 0.0
C462 C 0.30383 0.20067 0.81475 0.0
C463 C 0.26909 0.16724 0.79388 0.0
C464 C 0.1323 0.119 0.87203 0.0
C465 C 0.21604 0.16765 0.84035 0.0
C466 C 0.10977 0.11774 0.89655 0.0
C467 C 0.1425 0.16371 0.91422 0.0
C468 C 0.18812 0.16622 0.86527 0.0
C469 C 0.19726 0.21098 0.90625 0.0
C470 C 0.27759 0.2014 0.83783 0.0
C471 C 0.20752 0.13529 0.79681 0.0
N472 N 0.21844 0.21071 0.88252 0.0
N473 N 0.1828 0.13569 0.8198 0.0
H474 H 0.03086 0.19102 0.25219 0.0
H475 H 0.01124 0.34668 0.12509 0.0
H476 H 0.93211 0.28098 0.24678 0.0
H477 H 0.07075 0.22076 0.12447 0.0
H478 H -0.01816 0.32242 0.16978 0.0
H479 H 0.04596 0.20036 0.20564 0.0
C480 C 0.01193 0.21227 0.24124 0.0
C481 C -0.0192 0.23593 0.25354 0.0
C482 C 0.00068 0.2995 0.15984 0.0
C483 C -0.00158 0.24722 0.20032 0.0
C484 C 0.01752 0.31338 0.13429 0.0
C485 C 0.0437 0.28585 0.12105 0.0
C486 C 0.01075 0.25833 0.17247 0.0
C487 C 0.05054 0.24289 0.13394 0.0
C488 C 0.02068 0.21768 0.21467 0.0
C489 C 0.95769 0.26339 0.23831 0.0
N490 N 0.03483 0.23093 0.15907 0.0
N491 N 0.96732 0.26863 0.2126 0.0
H492 H 0.83081 -0.0181 0.57274 0.0
H493 H 0.77073 0.19845 0.48753 0.0
H494 H 0.7431 0.07337 0.59963 0.0
H495 H 0.83646 0.09117 0.45505 0.0
H496 H 0.77248 0.16128 0.5298 0.0
H497 H 0.84431 0.02886 0.53067 0.0
C498 C 0.81486 0.01222 0.56984 0.0
C499 C 0.78539 0.02346 0.58963 0.0
C500 C 0.78681 0.1459 0.51352 0.0
C501 C 0.80064 0.07711 0.54173 0.0
C502 C 0.78591 0.16722 0.48928 0.0
C503 C 0.80291 0.14743 0.4676 0.0
C504 C 0.80464 0.10414 0.51632 0.0
C505 C 0.82281 0.10745 0.47123 0.0
C506 C 0.82234 0.03874 0.54584 0.0
C507 C 0.76523 0.06272 0.58482 0.0
N508 N 0.82268 0.08667 0.49516 0.0
N509 N 0.77317 0.08799 0.5614 0.0
H510 H 0.58446 0.78403 0.81586 0.0
H511 H 0.85588 0.83199 0.90221 0.0
H512 H 0.75564 0.83456 0.78436 0.0
H513 H 0.68799 0.79586 0.93259 0.0
H514 H 0.82324 0.84013 0.85925 0.0
H515 H 0.62445 0.79469 0.85889 0.0
C516 C 0.63067 0.79783 0.81797 0.0
C517 C 0.66664 0.80799 0.7964 0.0
C518 C 0.79376 0.83089 0.87536 0.0
C519 C 0.71279 0.81988 0.84589 0.0
C520 C 0.81247 0.82655 0.89993 0.0
C521 C 0.7744 0.81264 0.92105 0.0
C522 C 0.73653 0.82116 0.87188 0.0
C523 C 0.71842 0.80546 0.91684 0.0
C524 C 0.65353 0.80395 0.84263 0.0
C525 C 0.72627 0.82615 0.80043 0.0
N526 N 0.70111 0.80941 0.89277 0.0
N527 N 0.74738 0.83098 0.8247 0.0
H528 H 0.91309 0.72458 0.26734 0.0
H529 H 0.90824 0.76973 0.11569 0.0
H530 H 0.05008 0.87541 0.22712 0.0
H531 H 0.76554 0.6266 0.15736 0.0
H532 H 0.95943 0.81113 0.15635 0.0
H533 H 0.85734 0.68953 0.22731 0.0
C534 C 0.93147 0.75035 0.25008 0.0
C535 C -0.01348 0.80291 0.25061 0.0
C536 C 0.91673 0.77089 0.1566 0.0
C537 C 0.92269 0.76312 0.2046 0.0
C538 C 0.8874 0.74721 0.13337 0.0
C539 C 0.8325 0.69441 0.13302 0.0
C540 C 0.89119 0.74145 0.17969 0.0
C541 C 0.80776 0.66732 0.1566 0.0
C542 C 0.89945 0.73047 0.22723 0.0
C543 C 0.00764 0.83492 0.22769 0.0
N544 N 0.83741 0.69092 0.1789 0.0
N545 N -0.0241 0.81435 0.20561 0.0
H546 H 0.14015 0.00444 0.55965 0.0
H547 H 0.31274 0.90377 0.46514 0.0
H548 H 0.31006 0.02649 0.5784 0.0
H549 H 0.16613 0.92304 0.44156 0.0
H550 H 0.31296 0.9478 0.50678 0.0
H551 H 0.14871 0.97311 0.5165 0.0
C552 C 0.17957 0.00331 0.55471 0.0
C553 C 0.22438 0.0182 0.57291 0.0
C554 C 0.28113 0.94285 0.49238 0.0
C555 C 0.23395 0.98108 0.52334 0.0
C556 C 0.28104 0.91782 0.46855 0.0
C557 C 0.23921 0.9094 0.44974 0.0
C558 C 0.23866 0.95897 0.49758 0.0
C559 C 0.19918 0.92845 0.45538 0.0
C560 C 0.18429 -0.01492 0.53001 0.0
C561 C 0.27384 0.01453 0.56529 0.0
N562 N 0.19957 0.95174 0.47881 0.0
N563 N 0.27715 -0.0039 0.54118 0.0
loop_
_geom_bond_atom_site_label_1
_geom_bond_atom_site_label_2
_geom_bond_distance
_geom_bond_site_symmetry_2
_ccdc_geom_bond_type
Eu0 C9 2.828 . S
Eu0 O11 2.392 . S
Eu0 O13 2.418 . S
Eu0 O18 2.373 . S
Eu0 O21 2.488 . S
Eu0 O22 2.471 . S
Eu0 O23 2.349 . S
Eu1 O10 2.373 1_554 S
Eu1 O14 2.488 1_554 S
Eu1 O15 2.471 1_554 S
Eu1 O16 2.349 . S
Eu1 O19 2.392 . S
Eu1 O20 2.418 . S
Eu1 C30 2.828 1_554 S
C2 O20 1.244 . S
C2 O23 1.265 . S
C3 C4 1.379 . S
C3 C7 1.373 . S
C3 C9 1.505 . S
C4 C3 1.379 . S
C4 C6 1.369 . S
C4 H32 0.930 . S
C5 C7 1.383 . S
C5 C8 1.382 . S
C5 H33 0.930 . S
C6 C4 1.369 . S
C6 C8 1.392 . S
C6 H34 0.930 . S
C7 C3 1.373 . S
C7 C5 1.383 . S
C7 H35 0.931 . S
C8 C5 1.382 . S
C8 C6 1.392 . S
C9 Eu0 2.828 . S
C9 C3 1.505 . S
C9 O21 1.249 . S
C9 O22 1.244 . S
O10 Eu1 2.373 1_556 S
O10 C12 1.258 . S
O11 Eu0 2.392 . S
O11 C12 1.242 1_554 S
C12 O10 1.258 . S
C12 O11 1.242 1_556 S
O13 Eu0 2.418 . S
O13 C17 1.244 . S
O14 Eu1 2.488 1_556 S
O14 C30 1.249 . S
O15 Eu1 2.471 1_556 S
O15 C30 1.244 . S
O16 Eu1 2.349 . S
O16 C17 1.265 . S
C17 O13 1.244 . S
C17 O16 1.265 . S
O18 Eu0 2.373 . S
O18 C31 1.258 . S
O19 Eu1 2.392 . S
O19 C31 1.242 . S
O20 Eu1 2.418 . S
O20 C2 1.244 . S
O21 Eu0 2.488 . S
O21 C9 1.249 . S
O22 Eu0 2.471 . S
O22 C9 1.244 . S
O23 Eu0 2.349 . S
O23 C2 1.265 . S
C24 C25 1.379 . S
C24 C28 1.373 . S
C24 C30 1.505 . S
C25 C24 1.379 . S
C25 C27 1.369 . S
C25 H36 0.930 . S
C26 C28 1.383 . S
C26 C29 1.382 . S
C26 H37 0.930 . S
C27 C25 1.369 . S
C27 C29 1.392 . S
C27 H38 0.930 . S
C28 C24 1.373 . S
C28 C26 1.383 . S
C28 H39 0.931 . S
C29 C26 1.382 . S
C29 C27 1.392 . S
C30 Eu1 2.828 1_556 S
C30 O14 1.249 . S
C30 O15 1.244 . S
C30 C24 1.505 . S
C31 O18 1.258 . S
C31 O19 1.242 . S
H32 C4 0.930 . S
H33 C5 0.930 . S
H34 C6 0.930 . S
H35 C7 0.931 . S
H36 C25 0.930 . S
H37 C26 0.930 . S
H38 C27 0.930 . S
H39 C28 0.931 . S
Eu40 C49 2.828 . S
Eu40 O51 2.392 . S
Eu40 O53 2.418 . S
Eu40 O58 2.373 . S
Eu40 O61 2.488 . S
Eu40 O62 2.471 . S
Eu40 O63 2.349 . S
Eu41 O50 2.373 . S
Eu41 O54 2.488 . S
Eu41 O55 2.471 . S
Eu41 O56 2.349 . S
Eu41 O59 2.392 . S
Eu41 O60 2.418 . S
Eu41 C70 2.828 . S
C42 O60 1.244 . S
C42 O63 1.265 . S
C43 C44 1.379 . S
C43 C47 1.373 . S
C43 C49 1.505 . S
C44 C43 1.379 . S
C44 C46 1.369 . S
C44 H72 0.930 . S
C45 C47 1.383 . S
C45 C48 1.382 . S
C45 H73 0.930 . S
C46 C44 1.369 . S
C46 C48 1.392 . S
C46 H74 0.930 . S
C47 C43 1.373 . S
C47 C45 1.383 . S
C47 H75 0.931 . S
C48 C45 1.382 . S
C48 C46 1.392 . S
C49 Eu40 2.828 . S
C49 C43 1.505 . S
C49 O61 1.249 . S
C49 O62 1.244 . S
O50 Eu41 2.373 . S
O50 C52 1.258 . S
O51 Eu40 2.392 . S
O51 C52 1.242 . S
C52 O50 1.258 . S
C52 O51 1.242 . S
O53 Eu40 2.418 . S
O53 C57 1.244 . S
O54 Eu41 2.488 . S
O54 C70 1.249 . S
O55 Eu41 2.471 . S
O55 C70 1.244 . S
O56 Eu41 2.349 . S
O56 C57 1.265 . S
C57 O53 1.244 . S
C57 O56 1.265 . S
O58 Eu40 2.373 . S
O58 C71 1.258 . S
O59 Eu41 2.392 . S
O59 C71 1.242 . S
O60 Eu41 2.418 . S
O60 C42 1.244 . S
O61 Eu40 2.488 . S
O61 C49 1.249 . S
O62 Eu40 2.471 . S
O62 C49 1.244 . S
O63 Eu40 2.349 . S
O63 C42 1.265 . S
C64 C65 1.379 . S
C64 C68 1.373 . S
C64 C70 1.505 . S
C65 C64 1.379 . S
C65 C67 1.369 . S
C65 H76 0.930 . S
C66 C68 1.383 . S
C66 C69 1.382 . S
C66 H77 0.930 . S
C67 C65 1.369 . S
C67 C69 1.392 . S
C67 H78 0.930 1_655 S
C68 C64 1.373 . S
C68 C66 1.383 . S
C68 H79 0.931 . S
C69 C66 1.382 . S
C69 C67 1.392 . S
C70 Eu41 2.828 . S
C70 O54 1.249 . S
C70 O55 1.244 . S
C70 C64 1.505 . S
C71 O58 1.258 . S
C71 O59 1.242 . S
H72 C44 0.930 . S
H73 C45 0.930 . S
H74 C46 0.930 . S
H75 C47 0.931 . S
H76 C65 0.930 . S
H77 C66 0.930 . S
H78 C67 0.930 1_455 S
H79 C68 0.931 . S
Eu80 C89 2.828 . S
Eu80 O91 2.392 . S
Eu80 O93 2.418 . S
Eu80 O98 2.373 . S
Eu80 O101 2.488 . S
Eu80 O102 2.471 . S
Eu80 O103 2.349 . S
Eu81 O90 2.373 . S
Eu81 O94 2.488 . S
Eu81 O95 2.471 . S
Eu81 O96 2.349 . S
Eu81 O99 2.392 . S
Eu81 O100 2.418 . S
Eu81 C110 2.828 . S
C82 O100 1.244 . S
C82 O103 1.265 . S
C83 C84 1.379 . S
C83 C87 1.373 . S
C83 C89 1.505 . S
C84 C83 1.379 . S
C84 C86 1.369 . S
C84 H112 0.930 . S
C85 C87 1.383 . S
C85 C88 1.382 . S
C85 H113 0.930 . S
C86 C84 1.369 . S
C86 C88 1.392 . S
C86 H114 0.930 . S
C87 C83 1.373 . S
C87 C85 1.383 . S
C87 H115 0.931 . S
C88 C85 1.382 . S
C88 C86 1.392 . S
C89 Eu80 2.828 . S
C89 C83 1.505 . S
C89 O101 1.249 . S
C89 O102 1.244 . S
O90 Eu81 2.373 . S
O90 C92 1.258 . S
O91 Eu80 2.392 . S
O91 C92 1.242 . S
C92 O90 1.258 . S
C92 O91 1.242 . S
O93 Eu80 2.418 . S
O93 C97 1.244 . S
O94 Eu81 2.488 . S
O94 C110 1.249 . S
O95 Eu81 2.471 . S
O95 C110 1.244 . S
O96 Eu81 2.349 . S
O96 C97 1.265 . S
C97 O93 1.244 . S
C97 O96 1.265 . S
O98 Eu80 2.373 . S
O98 C111 1.258 . S
O99 Eu81 2.392 . S
O99 C111 1.242 . S
O100 Eu81 2.418 . S
O100 C82 1.244 . S
O101 Eu80 2.488 . S
O101 C89 1.249 . S
O102 Eu80 2.471 . S
O102 C89 1.244 . S
O103 Eu80 2.349 . S
O103 C82 1.265 . S
C104 C105 1.379 . S
C104 C108 1.373 . S
C104 C110 1.505 . S
C105 C104 1.379 . S
C105 C107 1.369 . S
C105 H116 0.930 . S
C106 C108 1.383 . S
C106 C109 1.382 . S
C106 H117 0.930 . S
C107 C105 1.369 . S
C107 C109 1.392 . S
C107 H118 0.930 1_565 S
C108 C104 1.373 . S
C108 C106 1.383 . S
C108 H119 0.931 . S
C109 C106 1.382 . S
C109 C107 1.392 . S
C110 Eu81 2.828 . S
C110 O94 1.249 . S
C110 O95 1.244 . S
C110 C104 1.505 . S
C111 O98 1.258 . S
C111 O99 1.242 . S
H112 C84 0.930 . S
H113 C85 0.930 . S
H114 C86 0.930 . S
H115 C87 0.931 . S
H116 C105 0.930 . S
H117 C106 0.930 . S
H118 C107 0.930 1_545 S
H119 C108 0.931 . S
Eu120 C129 2.828 . S
Eu120 O131 2.392 . S
Eu120 O133 2.418 . S
Eu120 O138 2.373 . S
Eu120 O141 2.488 . S
Eu120 O142 2.471 . S
Eu120 O143 2.349 . S
Eu121 O130 2.373 1_554 S
Eu121 O134 2.488 1_554 S
Eu121 O135 2.471 1_554 S
Eu121 O136 2.349 . S
Eu121 O139 2.392 . S
Eu121 O140 2.418 . S
Eu121 C150 2.828 1_554 S
C122 O140 1.244 . S
C122 O143 1.265 . S
C123 C124 1.379 . S
C123 C127 1.373 . S
C123 C129 1.505 . S
C124 C123 1.379 . S
C124 C126 1.369 . S
C124 H152 0.930 . S
C125 C127 1.383 . S
C125 C128 1.382 . S
C125 H153 0.930 . S
C126 C124 1.369 . S
C126 C128 1.392 . S
C126 H154 0.930 . S
C127 C123 1.373 . S
C127 C125 1.383 . S
C127 H155 0.931 . S
C128 C125 1.382 . S
C128 C126 1.392 . S
C129 Eu120 2.828 . S
C129 C123 1.505 . S
C129 O141 1.249 . S
C129 O142 1.244 . S
O130 Eu121 2.373 1_556 S
O130 C132 1.258 . S
O131 Eu120 2.392 . S
O131 C132 1.242 1_554 S
C132 O130 1.258 . S
C132 O131 1.242 1_556 S
O133 Eu120 2.418 . S
O133 C137 1.244 . S
O134 Eu121 2.488 1_556 S
O134 C150 1.249 . S
O135 Eu121 2.471 1_556 S
O135 C150 1.244 . S
O136 Eu121 2.349 . S
O136 C137 1.265 . S
C137 O133 1.244 . S
C137 O136 1.265 . S
O138 Eu120 2.373 . S
O138 C151 1.258 . S
O139 Eu121 2.392 . S
O139 C151 1.242 . S
O140 Eu121 2.418 . S
O140 C122 1.244 . S
O141 Eu120 2.488 . S
O141 C129 1.249 . S
O142 Eu120 2.471 . S
O142 C129 1.244 . S
O143 Eu120 2.349 . S
O143 C122 1.265 . S
C144 C145 1.379 . S
C144 C148 1.373 . S
C144 C150 1.505 . S
C145 C144 1.379 . S
C145 C147 1.369 . S
C145 H156 0.930 . S
C146 C148 1.383 . S
C146 C149 1.382 . S
C146 H157 0.930 . S
C147 C145 1.369 . S
C147 C149 1.392 . S
C147 H158 0.930 . S
C148 C144 1.373 . S
C148 C146 1.383 . S
C148 H159 0.931 . S
C149 C146 1.382 . S
C149 C147 1.392 . S
C150 Eu121 2.828 1_556 S
C150 O134 1.249 . S
C150 O135 1.244 . S
C150 C144 1.505 . S
C151 O138 1.258 . S
C151 O139 1.242 . S
H152 C124 0.930 . S
H153 C125 0.930 . S
H154 C126 0.930 . S
H155 C127 0.931 . S
H156 C145 0.930 . S
H157 C146 0.930 . S
H158 C147 0.930 . S
H159 C148 0.931 . S
Eu160 C169 2.828 . S
Eu160 O171 2.392 . S
Eu160 O173 2.418 . S
Eu160 O178 2.373 . S
Eu160 O181 2.488 . S
Eu160 O182 2.471 . S
Eu160 O183 2.349 . S
Eu161 O170 2.373 . S
Eu161 O174 2.488 . S
Eu161 O175 2.471 . S
Eu161 O176 2.349 . S
Eu161 O179 2.392 . S
Eu161 O180 2.418 . S
Eu161 C190 2.828 . S
C162 O180 1.244 . S
C162 O183 1.265 . S
C163 C164 1.379 . S
C163 C167 1.373 . S
C163 C169 1.505 . S
C164 C163 1.379 . S
C164 C166 1.369 . S
C164 H192 0.930 . S
C165 C167 1.383 . S
C165 C168 1.382 . S
C165 H193 0.930 . S
C166 C164 1.369 . S
C166 C168 1.392 . S
C166 H194 0.930 . S
C167 C163 1.373 . S
C167 C165 1.383 . S
C167 H195 0.931 . S
C168 C165 1.382 . S
C168 C166 1.392 . S
C169 Eu160 2.828 . S
C169 C163 1.505 . S
C169 O181 1.249 . S
C169 O182 1.244 . S
O170 Eu161 2.373 . S
O170 C172 1.258 . S
O171 Eu160 2.392 . S
O171 C172 1.242 . S
C172 O170 1.258 . S
C172 O171 1.242 . S
O173 Eu160 2.418 . S
O173 C177 1.244 . S
O174 Eu161 2.488 . S
O174 C190 1.249 . S
O175 Eu161 2.471 . S
O175 C190 1.244 . S
O176 Eu161 2.349 . S
O176 C177 1.265 . S
C177 O173 1.244 . S
C177 O176 1.265 . S
O178 Eu160 2.373 . S
O178 C191 1.258 . S
O179 Eu161 2.392 . S
O179 C191 1.242 . S
O180 Eu161 2.418 . S
O180 C162 1.244 . S
O181 Eu160 2.488 . S
O181 C169 1.249 . S
O182 Eu160 2.471 . S
O182 C169 1.244 . S
O183 Eu160 2.349 . S
O183 C162 1.265 . S
C184 C185 1.379 . S
C184 C188 1.373 . S
C184 C190 1.505 . S
C185 C184 1.379 . S
C185 C187 1.369 . S
C185 H196 0.930 . S
C186 C188 1.383 . S
C186 C189 1.382 . S
C186 H197 0.930 . S
C187 C185 1.369 . S
C187 C189 1.392 . S
C187 H198 0.930 1_455 S
C188 C184 1.373 . S
C188 C186 1.383 . S
C188 H199 0.931 . S
C189 C186 1.382 . S
C189 C187 1.392 . S
C190 Eu161 2.828 . S
C190 O174 1.249 . S
C190 O175 1.244 . S
C190 C184 1.505 . S
C191 O178 1.258 . S
C191 O179 1.242 . S
H192 C164 0.930 . S
H193 C165 0.930 . S
H194 C166 0.930 . S
H195 C167 0.931 . S
H196 C185 0.930 . S
H197 C186 0.930 . S
H198 C187 0.930 1_655 S
H199 C188 0.931 . S
Eu200 C209 2.828 . S
Eu200 O211 2.392 . S
Eu200 O213 2.418 . S
Eu200 O218 2.373 . S
Eu200 O221 2.488 . S
Eu200 O222 2.471 . S
Eu200 O223 2.349 . S
Eu201 O210 2.373 . S
Eu201 O214 2.488 . S
Eu201 O215 2.471 . S
Eu201 O216 2.349 . S
Eu201 O219 2.392 . S
Eu201 O220 2.418 . S
Eu201 C230 2.828 . S
C202 O220 1.244 . S
C202 O223 1.265 . S
C203 C204 1.379 . S
C203 C207 1.373 . S
C203 C209 1.505 . S
C204 C203 1.379 . S
C204 C206 1.369 . S
C204 H232 0.930 . S
C205 C207 1.383 . S
C205 C208 1.382 . S
C205 H233 0.930 . S
C206 C204 1.369 . S
C206 C208 1.392 . S
C206 H234 0.930 . S
C207 C203 1.373 . S
C207 C205 1.383 . S
C207 H235 0.931 . S
C208 C205 1.382 . S
C208 C206 1.392 . S
C209 Eu200 2.828 . S
C209 C203 1.505 . S
C209 O221 1.249 . S
C209 O222 1.244 . S
O210 Eu201 2.373 . S
O210 C212 1.258 . S
O211 Eu200 2.392 . S
O211 C212 1.242 . S
C212 O210 1.258 . S
C212 O211 1.242 . S
O213 Eu200 2.418 . S
O213 C217 1.244 . S
O214 Eu201 2.488 . S
O214 C230 1.249 . S
O215 Eu201 2.471 . S
O215 C230 1.244 . S
O216 Eu201 2.349 . S
O216 C217 1.265 . S
C217 O213 1.244 . S
C217 O216 1.265 . S
O218 Eu200 2.373 . S
O218 C231 1.258 . S
O219 Eu201 2.392 . S
O219 C231 1.242 . S
O220 Eu201 2.418 . S
O220 C202 1.244 . S
O221 Eu200 2.488 . S
O221 C209 1.249 . S
O222 Eu200 2.471 . S
O222 C209 1.244 . S
O223 Eu200 2.349 . S
O223 C202 1.265 . S
C224 C225 1.379 . S
C224 C228 1.373 . S
C224 C230 1.505 . S
C225 C224 1.379 . S
C225 C227 1.369 . S
C225 H236 0.930 . S
C226 C228 1.383 . S
C226 C229 1.382 . S
C226 H237 0.930 . S
C227 C225 1.369 . S
C227 C229 1.392 . S
C227 H238 0.930 1_545 S
C228 C224 1.373 . S
C228 C226 1.383 . S
C228 H239 0.931 . S
C229 C226 1.382 . S
C229 C227 1.392 . S
C230 Eu201 2.828 . S
C230 O214 1.249 . S
C230 O215 1.244 . S
C230 C224 1.505 . S
C231 O218 1.258 . S
C231 O219 1.242 . S
H232 C204 0.930 . S
H233 C205 0.930 . S
H234 C206 0.930 . S
H235 C207 0.931 . S
H236 C225 0.930 . S
H237 C226 0.930 . S
H238 C227 0.930 1_565 S
H239 C228 0.931 . S
H240 C246 0.930 . S
H241 C250 0.930 . S
H242 C255 0.929 . S
H243 C253 0.929 . S
H244 C248 0.929 . S
H245 C254 0.929 . S
C246 H240 0.930 . S
C246 C247 1.367 . S
C246 C254 1.378 . S
C247 C246 1.367 . S
C247 C255 1.433 . S
C248 H244 0.929 . S
C248 C250 1.378 . S
C248 C252 1.350 . S
C249 C252 1.463 . S
C249 C254 1.350 . S
C249 N257 1.427 . S
C250 H241 0.930 . S
C250 C248 1.378 . S
C250 C251 1.367 . S
C251 C250 1.367 . S
C251 C253 1.433 . S
C252 C248 1.350 . S
C252 C249 1.463 . S
C252 N256 1.427 . S
C253 H243 0.929 . S
C253 C251 1.433 . S
C253 N256 1.384 . S
C254 H245 0.929 . S
C254 C246 1.378 . S
C254 C249 1.350 . S
C255 H242 0.929 . S
C255 C247 1.433 . S
C255 N257 1.384 . S
N256 C252 1.427 . S
N256 C253 1.384 . S
N257 C249 1.427 . S
N257 C255 1.384 . S
H258 C264 0.930 . S
H259 C268 0.930 . S
H260 C273 0.929 . S
H261 C271 0.929 . S
H262 C266 0.929 . S
H263 C272 0.929 . S
C264 H258 0.930 . S
C264 C265 1.367 . S
C264 C272 1.378 . S
C265 C264 1.367 . S
C265 C273 1.433 . S
C266 H262 0.929 . S
C266 C268 1.378 . S
C266 C270 1.350 . S
C267 C270 1.463 . S
C267 C272 1.350 . S
C267 N275 1.427 . S
C268 H259 0.930 . S
C268 C266 1.378 . S
C268 C269 1.367 . S
C269 C268 1.367 . S
C269 C271 1.433 . S
C270 C266 1.350 . S
C270 C267 1.463 . S
C270 N274 1.427 . S
C271 H261 0.929 . S
C271 C269 1.433 . S
C271 N274 1.384 . S
C272 H263 0.929 . S
C272 C264 1.378 . S
C272 C267 1.350 . S
C273 H260 0.929 . S
C273 C265 1.433 . S
C273 N275 1.384 . S
N274 C270 1.427 . S
N274 C271 1.384 . S
N275 C267 1.427 . S
N275 C273 1.384 . S
H276 C282 0.930 . S
H277 C286 0.930 . S
H278 C291 0.929 . S
H279 C289 0.929 . S
H280 C284 0.929 . S
H281 C290 0.929 . S
C282 H276 0.930 . S
C282 C283 1.367 . S
C282 C290 1.378 . S
C283 C282 1.367 . S
C283 C291 1.433 . S
C284 H280 0.929 . S
C284 C286 1.378 . S
C284 C288 1.350 . S
C285 C288 1.463 . S
C285 C290 1.350 . S
C285 N293 1.427 . S
C286 H277 0.930 . S
C286 C284 1.378 . S
C286 C287 1.367 . S
C287 C286 1.367 . S
C287 C289 1.433 . S
C288 C284 1.350 . S
C288 C285 1.463 . S
C288 N292 1.427 . S
C289 H279 0.929 . S
C289 C287 1.433 . S
C289 N292 1.384 . S
C290 H281 0.929 . S
C290 C282 1.378 . S
C290 C285 1.350 . S
C291 H278 0.929 . S
C291 C283 1.433 . S
C291 N293 1.384 . S
N292 C288 1.427 . S
N292 C289 1.384 . S
N293 C285 1.427 . S
N293 C291 1.384 . S
H294 C300 0.930 . S
H295 C304 0.930 . S
H296 C309 0.929 . S
H297 C307 0.929 . S
H298 C302 0.929 . S
H299 C308 0.929 . S
C300 H294 0.930 . S
C300 C301 1.367 . S
C300 C308 1.378 . S
C301 C300 1.367 . S
C301 C309 1.433 . S
C302 H298 0.929 . S
C302 C304 1.378 . S
C302 C306 1.350 . S
C303 C306 1.463 . S
C303 C308 1.350 . S
C303 N311 1.427 . S
C304 H295 0.930 . S
C304 C302 1.378 . S
C304 C305 1.367 . S
C305 C304 1.367 . S
C305 C307 1.433 . S
C306 C302 1.350 . S
C306 C303 1.463 . S
C306 N310 1.427 . S
C307 H297 0.929 . S
C307 C305 1.433 . S
C307 N310 1.384 . S
C308 H299 0.929 . S
C308 C300 1.378 . S
C308 C303 1.350 . S
C309 H296 0.929 . S
C309 C301 1.433 . S
C309 N311 1.384 . S
N310 C306 1.427 . S
N310 C307 1.384 . S
N311 C303 1.427 . S
N311 C309 1.384 . S
H312 C318 0.930 . S
H313 C322 0.930 . S
H314 C327 0.929 . S
H315 C325 0.929 . S
H316 C320 0.929 . S
H317 C326 0.929 . S
C318 H312 0.930 . S
C318 C319 1.367 . S
C318 C326 1.378 . S
C319 C318 1.367 . S
C319 C327 1.433 . S
C320 H316 0.929 . S
C320 C322 1.378 . S
C320 C324 1.350 . S
C321 C324 1.463 . S
C321 C326 1.350 . S
C321 N329 1.427 . S
C322 H313 0.930 . S
C322 C320 1.378 . S
C322 C323 1.367 . S
C323 C322 1.367 . S
C323 C325 1.433 . S
C324 C320 1.350 . S
C324 C321 1.463 . S
C324 N328 1.427 . S
C325 H315 0.929 . S
C325 C323 1.433 . S
C325 N328 1.384 . S
C326 H317 0.929 . S
C326 C318 1.378 . S
C326 C321 1.350 . S
C327 H314 0.929 . S
C327 C319 1.433 . S
C327 N329 1.384 . S
N328 C324 1.427 . S
N328 C325 1.384 . S
N329 C321 1.427 . S
N329 C327 1.384 . S
H330 C336 0.930 . S
H331 C340 0.930 . S
H332 C345 0.929 . S
H333 C343 0.929 . S
H334 C338 0.929 . S
H335 C344 0.929 . S
C336 H330 0.930 . S
C336 C337 1.367 . S
C336 C344 1.378 . S
C337 C336 1.367 . S
C337 C345 1.433 . S
C338 H334 0.929 . S
C338 C340 1.378 . S
C338 C342 1.350 . S
C339 C342 1.463 . S
C339 C344 1.350 . S
C339 N347 1.427 . S
C340 H331 0.930 . S
C340 C338 1.378 . S
C340 C341 1.367 . S
C341 C340 1.367 . S
C341 C343 1.433 . S
C342 C338 1.350 . S
C342 C339 1.463 . S
C342 N346 1.427 . S
C343 H333 0.929 . S
C343 C341 1.433 . S
C343 N346 1.384 . S
C344 H335 0.929 . S
C344 C336 1.378 . S
C344 C339 1.350 . S
C345 H332 0.929 . S
C345 C337 1.433 . S
C345 N347 1.384 . S
N346 C342 1.427 . S
N346 C343 1.384 . S
N347 C339 1.427 . S
N347 C345 1.384 . S
H348 C354 0.930 . S
H349 C358 0.930 . S
H350 C363 0.929 . S
H351 C361 0.929 . S
H352 C356 0.929 . S
H353 C362 0.929 . S
C354 H348 0.930 . S
C354 C355 1.367 . S
C354 C362 1.378 . S
C355 C354 1.367 . S
C355 C363 1.433 . S
C356 H352 0.929 . S
C356 C358 1.378 . S
C356 C360 1.350 . S
C357 C360 1.463 . S
C357 C362 1.350 . S
C357 N365 1.427 . S
C358 H349 0.930 . S
C358 C356 1.378 . S
C358 C359 1.367 . S
C359 C358 1.367 . S
C359 C361 1.433 . S
C360 C356 1.350 . S
C360 C357 1.463 . S
C360 N364 1.427 . S
C361 H351 0.929 . S
C361 C359 1.433 . S
C361 N364 1.384 . S
C362 H353 0.929 . S
C362 C354 1.378 . S
C362 C357 1.350 . S
C363 H350 0.929 . S
C363 C355 1.433 . S
C363 N365 1.384 . S
N364 C360 1.427 . S
N364 C361 1.384 . S
N365 C357 1.427 . S
N365 C363 1.384 . S
H366 C372 0.930 . S
H367 C376 0.930 . S
H368 C381 0.929 . S
H369 C379 0.929 . S
H370 C374 0.929 . S
H371 C380 0.929 . S
C372 H366 0.930 . S
C372 C373 1.367 . S
C372 C380 1.378 . S
C373 C372 1.367 . S
C373 C381 1.433 1_455 S
C374 H370 0.929 . S
C374 C376 1.378 . S
C374 C378 1.350 . S
C375 C378 1.463 1_455 S
C375 C380 1.350 . S
C375 N383 1.427 1_455 S
C376 H367 0.930 . S
C376 C374 1.378 . S
C376 C377 1.367 . S
C377 C376 1.367 . S
C377 C379 1.433 1_655 S
C378 C374 1.350 . S
C378 C375 1.463 1_655 S
C378 N382 1.427 1_655 S
C379 H369 0.929 . S
C379 C377 1.433 1_455 S
C379 N382 1.384 . S
C380 H371 0.929 . S
C380 C372 1.378 . S
C380 C375 1.350 . S
C381 H368 0.929 . S
C381 C373 1.433 1_655 S
C381 N383 1.384 . S
N382 C378 1.427 1_455 S
N382 C379 1.384 . S
N383 C375 1.427 1_655 S
N383 C381 1.384 . S
H384 C390 0.930 . S
H385 C394 0.930 . S
H386 C399 0.929 . S
H387 C397 0.929 . S
H388 C392 0.929 1_545 S
H389 C398 0.929 1_565 S
C390 H384 0.930 . S
C390 C391 1.367 . S
C390 C398 1.378 . S
C391 C390 1.367 . S
C391 C399 1.433 . S
C392 H388 0.929 1_565 S
C392 C394 1.378 . S
C392 C396 1.350 . S
C393 C396 1.463 1_545 S
C393 C398 1.350 . S
C393 N401 1.427 . S
C394 H385 0.930 . S
C394 C392 1.378 . S
C394 C395 1.367 . S
C395 C394 1.367 . S
C395 C397 1.433 . S
C396 C392 1.350 . S
C396 C393 1.463 1_565 S
C396 N400 1.427 . S
C397 H387 0.929 . S
C397 C395 1.433 . S
C397 N400 1.384 . S
C398 H389 0.929 1_545 S
C398 C390 1.378 . S
C398 C393 1.350 . S
C399 H386 0.929 . S
C399 C391 1.433 . S
C399 N401 1.384 . S
N400 C396 1.427 . S
N400 C397 1.384 . S
N401 C393 1.427 . S
N401 C399 1.384 . S
H402 C408 0.930 . S
H403 C412 0.930 . S
H404 C417 0.929 . S
H405 C415 0.929 . S
H406 C410 0.929 . S
H407 C416 0.929 . S
C408 H402 0.930 . S
C408 C409 1.367 . S
C408 C416 1.378 . S
C409 C408 1.367 . S
C409 C417 1.433 . S
C410 H406 0.929 . S
C410 C412 1.378 . S
C410 C414 1.350 . S
C411 C414 1.463 . S
C411 C416 1.350 . S
C411 N419 1.427 . S
C412 H403 0.930 . S
C412 C410 1.378 . S
C412 C413 1.367 . S
C413 C412 1.367 . S
C413 C415 1.433 . S
C414 C410 1.350 . S
C414 C411 1.463 . S
C414 N418 1.427 . S
C415 H405 0.929 . S
C415 C413 1.433 . S
C415 N418 1.384 . S
C416 H407 0.929 . S
C416 C408 1.378 . S
C416 C411 1.350 . S
C417 H404 0.929 . S
C417 C409 1.433 . S
C417 N419 1.384 . S
N418 C414 1.427 . S
N418 C415 1.384 . S
N419 C411 1.427 . S
N419 C417 1.384 . S
H420 C426 0.930 . S
H421 C430 0.930 1_556 S
H422 C435 0.929 1_556 S
H423 C433 0.929 . S
H424 C428 0.929 1_556 S
H425 C434 0.929 . S
C426 H420 0.930 . S
C426 C427 1.367 . S
C426 C434 1.378 . S
C427 C426 1.367 . S
C427 C435 1.433 . S
C428 H424 0.929 1_554 S
C428 C430 1.378 . S
C428 C432 1.350 . S
C429 C432 1.463 1_455 S
C429 C434 1.350 . S
C429 N437 1.427 1_455 S
C430 H421 0.930 1_554 S
C430 C428 1.378 . S
C430 C431 1.367 . S
C431 C430 1.367 . S
C431 C433 1.433 . S
C432 C428 1.350 . S
C432 C429 1.463 1_655 S
C432 N436 1.427 1_655 S
C433 H423 0.929 . S
C433 C431 1.433 . S
C433 N436 1.386 1_655 S
C434 H425 0.929 . S
C434 C426 1.378 . S
C434 C429 1.350 . S
C435 H422 0.929 1_554 S
C435 C427 1.433 . S
C435 N437 1.386 1_455 S
N436 C432 1.427 1_455 S
N436 C433 1.386 1_455 S
N437 C429 1.427 1_655 S
N437 C435 1.386 1_655 S
H438 C444 0.930 . S
H439 C448 0.930 . S
H440 C453 0.929 . S
H441 C451 0.929 . S
H442 C446 0.929 . S
H443 C452 0.929 . S
C444 H438 0.930 . S
C444 C445 1.367 . S
C444 C452 1.378 . S
C445 C444 1.367 . S
C445 C453 1.433 . S
C446 H442 0.929 . S
C446 C448 1.378 . S
C446 C450 1.350 . S
C447 C450 1.463 1_565 S
C447 C452 1.350 . S
C447 N455 1.427 . S
C448 H439 0.930 . S
C448 C446 1.378 . S
C448 C449 1.367 . S
C449 C448 1.367 . S
C449 C451 1.433 . S
C450 C446 1.350 . S
C450 C447 1.463 1_545 S
C450 N454 1.427 . S
C451 H441 0.929 . S
C451 C449 1.433 . S
C451 N454 1.384 . S
C452 H443 0.929 . S
C452 C444 1.378 . S
C452 C447 1.350 . S
C453 H440 0.929 . S
C453 C445 1.433 . S
C453 N455 1.384 . S
N454 C450 1.427 . S
N454 C451 1.384 . S
N455 C447 1.427 . S
N455 C453 1.384 . S
H456 C462 0.930 . S
H457 C466 0.930 . S
H458 C471 0.929 . S
H459 C469 0.929 . S
H460 C464 0.929 . S
H461 C470 0.929 . S
C462 H456 0.930 . S
C462 C463 1.367 . S
C462 C470 1.378 . S
C463 C462 1.367 . S
C463 C471 1.433 . S
C464 H460 0.929 . S
C464 C466 1.378 . S
C464 C468 1.350 . S
C465 C468 1.463 . S
C465 C470 1.350 . S
C465 N473 1.427 . S
C466 H457 0.930 . S
C466 C464 1.378 . S
C466 C467 1.367 . S
C467 C466 1.367 . S
C467 C469 1.433 . S
C468 C464 1.350 . S
C468 C465 1.463 . S
C468 N472 1.427 . S
C469 H459 0.929 . S
C469 C467 1.433 . S
C469 N472 1.384 . S
C470 H461 0.929 . S
C470 C462 1.378 . S
C470 C465 1.350 . S
C471 H458 0.929 . S
C471 C463 1.433 . S
C471 N473 1.384 . S
N472 C468 1.427 . S
N472 C469 1.384 . S
N473 C465 1.427 . S
N473 C471 1.384 . S
H474 C480 0.930 . S
H475 C484 0.930 . S
H476 C489 0.929 . S
H477 C487 0.929 . S
H478 C482 0.929 . S
H479 C488 0.929 . S
C480 H474 0.930 . S
C480 C481 1.367 . S
C480 C488 1.378 . S
C481 C480 1.367 . S
C481 C489 1.433 1_455 S
C482 H478 0.929 . S
C482 C484 1.378 . S
C482 C486 1.350 . S
C483 C486 1.463 . S
C483 C488 1.350 . S
C483 N491 1.427 . S
C484 H475 0.930 . S
C484 C482 1.378 . S
C484 C485 1.367 . S
C485 C484 1.367 . S
C485 C487 1.433 . S
C486 C482 1.350 . S
C486 C483 1.463 . S
C486 N490 1.427 . S
C487 H477 0.929 . S
C487 C485 1.433 . S
C487 N490 1.384 . S
C488 H479 0.929 . S
C488 C480 1.378 . S
C488 C483 1.350 . S
C489 H476 0.929 . S
C489 C481 1.433 1_655 S
C489 N491 1.384 1_655 S
N490 C486 1.427 . S
N490 C487 1.384 . S
N491 C483 1.427 . S
N491 C489 1.384 1_455 S
H492 C498 0.930 . S
H493 C502 0.930 . S
H494 C507 0.929 . S
H495 C505 0.929 . S
H496 C500 0.929 . S
H497 C506 0.929 . S
C498 H492 0.930 . S
C498 C499 1.367 1_565 S
C498 C506 1.378 1_565 S
C499 C498 1.367 1_545 S
C499 C507 1.433 . S
C500 H496 0.929 . S
C500 C502 1.378 . S
C500 C504 1.350 . S
C501 C504 1.463 . S
C501 C506 1.350 . S
C501 N509 1.427 . S
C502 H493 0.930 . S
C502 C500 1.378 . S
C502 C503 1.367 . S
C503 C502 1.367 . S
C503 C505 1.433 . S
C504 C500 1.350 . S
C504 C501 1.463 . S
C504 N508 1.427 . S
C505 H495 0.929 . S
C505 C503 1.433 . S
C505 N508 1.384 . S
C506 H497 0.929 . S
C506 C498 1.378 1_545 S
C506 C501 1.350 . S
C507 H494 0.929 . S
C507 C499 1.433 . S
C507 N509 1.384 . S
N508 C504 1.427 . S
N508 C505 1.384 . S
N509 C501 1.427 . S
N509 C507 1.384 . S
H510 C516 0.930 . S
H511 C520 0.930 . S
H512 C525 0.929 . S
H513 C523 0.929 . S
H514 C518 0.929 . S
H515 C524 0.929 . S
C516 H510 0.930 . S
C516 C517 1.367 . S
C516 C524 1.378 . S
C517 C516 1.367 . S
C517 C525 1.433 . S
C518 H514 0.929 . S
C518 C520 1.378 . S
C518 C522 1.350 . S
C519 C522 1.463 . S
C519 C524 1.350 . S
C519 N527 1.427 . S
C520 H511 0.930 . S
C520 C518 1.378 . S
C520 C521 1.367 . S
C521 C520 1.367 . S
C521 C523 1.433 . S
C522 C518 1.350 . S
C522 C519 1.463 . S
C522 N526 1.427 . S
C523 H513 0.929 . S
C523 C521 1.433 . S
C523 N526 1.384 . S
C524 H515 0.929 . S
C524 C516 1.378 . S
C524 C519 1.350 . S
C525 H512 0.929 . S
C525 C517 1.433 . S
C525 N527 1.384 . S
N526 C522 1.427 . S
N526 C523 1.384 . S
N527 C519 1.427 . S
N527 C525 1.384 . S
H528 C534 0.930 . S
H529 C538 0.930 . S
H530 C543 0.929 . S
H531 C541 0.929 . S
H532 C536 0.929 . S
H533 C542 0.929 . S
C534 H528 0.930 . S
C534 C535 1.367 . S
C534 C542 1.378 . S
C535 C534 1.367 . S
C535 C543 1.433 1_655 S
C536 H532 0.929 . S
C536 C538 1.378 . S
C536 C540 1.350 . S
C537 C540 1.463 . S
C537 C542 1.350 . S
C537 N545 1.427 . S
C538 H529 0.930 . S
C538 C536 1.378 . S
C538 C539 1.367 . S
C539 C538 1.367 . S
C539 C541 1.433 . S
C540 C536 1.350 . S
C540 C537 1.463 . S
C540 N544 1.427 . S
C541 H531 0.929 . S
C541 C539 1.433 . S
C541 N544 1.384 . S
C542 H533 0.929 . S
C542 C534 1.378 . S
C542 C537 1.350 . S
C543 H530 0.929 . S
C543 C535 1.433 1_455 S
C543 N545 1.384 1_455 S
N544 C540 1.427 . S
N544 C541 1.384 . S
N545 C537 1.427 . S
N545 C543 1.384 1_655 S
H546 C552 0.930 . S
H547 C556 0.930 . S
H548 C561 0.929 1_545 S
H549 C559 0.929 . S
H550 C554 0.929 . S
H551 C560 0.929 . S
C552 H546 0.930 . S
C552 C553 1.367 . S
C552 C560 1.378 . S
C553 C552 1.367 . S
C553 C561 1.433 . S
C554 H550 0.929 . S
C554 C556 1.378 . S
C554 C558 1.350 . S
C555 C558 1.463 . S
C555 C560 1.350 . S
C555 N563 1.427 . S
C556 H547 0.930 . S
C556 C554 1.378 . S
C556 C557 1.367 . S
C557 C556 1.367 . S
C557 C559 1.433 . S
C558 C554 1.350 . S
C558 C555 1.463 . S
C558 N562 1.427 . S
C559 H549 0.929 . S
C559 C557 1.433 . S
C559 N562 1.384 . S
C560 H551 0.929 . S
C560 C552 1.378 . S
C560 C555 1.350 . S
C561 H548 0.929 1_565 S
C561 C553 1.433 . S
C561 N563 1.384 . S
N562 C558 1.427 . S
N562 C559 1.384 . S
N563 C555 1.427 . S
N563 C561 1.384 . S
C247 C172 1.170 . S
C251 C8 1.167 . S
C265 C212 1.174 . S
C269 C48 1.173 . S
C283 C12 1.173 . S
C287 C88 1.171 . S
C301 C52 1.173 . S
C305 C128 1.172 . S
C319 C92 1.174 . S
C323 C168 1.173 . S
C337 C132 1.172 . S
C341 C208 1.168 . S
C355 C17 0.860 . S
C359 C137 0.863 . S
C373 C177 0.848 . S
C377 C57 0.849 . S
C391 C217 0.876 . S
C395 C97 0.879 . S
C409 C82 1.014 . S
C413 C202 1.011 . S
C427 C2 1.014 . S
C431 C122 1.012 . S
C445 C162 1.015 . S
C449 C42 1.012 . S
C463 C231 1.216 . S
C467 C29 1.218 . S
C481 C69 1.218 1_455 S
C485 C31 1.215 . S
C499 C109 1.218 1_545 S
C503 C71 1.217 . S
C517 C111 1.218 . S
C521 C149 1.216 . S
C535 C189 1.216 1_655 S
C539 C151 1.216 . S
C553 C229 1.219 1_565 S
C557 C191 1.216 . S
