# Generated by pormake.
# Topology bsn, (6)-cn, num edge types: 1
# Building blocks:
#     Node 0, Type 0, BuildingBlock: VOLQOD_clean_sbu_1, # of connection points: 6
#     Node 1, Type 0, BuildingBlock: VOLQOD_clean_sbu_1, # of connection points: 6
#     Node 2, Type 0, BuildingBlock: VOLQOD_clean_sbu_1, # of connection points: 6
#     Node 3, Type 0, BuildingBlock: VOLQOD_clean_sbu_1, # of connection points: 6
#     Edge 4, Type (0, 0), BuildingBlock: ZUJKAS_clean_linker_0, # of connection points: 2
#     Edge 5, Type (0, 0), BuildingBlock: ZUJKAS_clean_linker_0, # of connection points: 2
#     Edge 6, Type (0, 0), BuildingBlock: ZUJKAS_clean_linker_0, # of connection points: 2
#     Edge 7, Type (0, 0), BuildingBlock: ZUJKAS_clean_linker_0, # of connection points: 2
#     Edge 8, Type (0, 0), BuildingBlock: ZUJKAS_clean_linker_0, # of connection points: 2
#     Edge 9, Type (0, 0), BuildingBlock: ZUJKAS_clean_linker_0, # of connection points: 2
#     Edge 10, Type (0, 0), BuildingBlock: ZUJKAS_clean_linker_0, # of connection points: 2
#     Edge 11, Type (0, 0), BuildingBlock: ZUJKAS_clean_linker_0, # of connection points: 2
#     Edge 12, Type (0, 0), BuildingBlock: ZUJKAS_clean_linker_0, # of connection points: 2
#     Edge 13, Type (0, 0), BuildingBlock: ZUJKAS_clean_linker_0, # of connection points: 2
#     Edge 14, Type (0, 0), BuildingBlock: ZUJKAS_clean_linker_0, # of connection points: 2
#     Edge 15, Type (0, 0), BuildingBlock: ZUJKAS_clean_linker_0, # of connection points: 2
# Relax obj value: 0.019
# Max RMSD: 0.063
# Mean RMSD: 0.061
data_MOF--net-bsn--node1-VOLQOD_clean_sbu_1--edge1-ZUJKAS_clean_linker_0
_symmetry_space_group_name_H-M    P1
_symmetry_Int_Tables_number       1
_symmetry_cell_setting            triclinic
loop_
_symmetry_equiv_pos_as_xyz
'x, y, z'
_cell_length_a     41.641647
_cell_length_b     41.845988
_cell_length_c     21.71822
_cell_angle_alpha  90.137605
_cell_angle_beta   90.142902
_cell_angle_gamma 90.007767
loop_
_atom_site_label
_atom_site_type_symbol
_atom_site_fract_x
_atom_site_fract_y
_atom_site_fract_z
_atom_type_partial_charge
O0 O 0.03067 0.25578 0.50044 0.0
Zn1 Zn 0.03703 0.26727 0.41112 0.0
O2 O 0.00438 0.2474 0.36009 0.0
Zn3 Zn 0.02397 0.21466 0.30878 0.0
Zn4 Zn 0.9724 0.22844 0.41305 0.0
Zn5 Zn 0.98375 0.27929 0.30889 0.0
O6 O 0.01169 0.22143 0.21981 0.0
O7 O 0.99553 0.27218 0.22018 0.0
O8 O 0.08173 0.25633 0.38161 0.0
O9 O 0.07204 0.21952 0.31019 0.0
O10 O 0.0129 0.17001 0.33915 0.0
O11 O 0.97831 0.18108 0.4139 0.0
O12 O 0.92721 0.2376 0.38343 0.0
O13 O 0.03232 0.31491 0.40769 0.0
O14 O 0.93585 0.27391 0.31112 0.0
O15 O 0.99459 0.32416 0.33751 0.0
C16 C 0.0048 0.24949 0.52936 0.0
C17 C 0.00354 0.24683 0.19131 0.0
C18 C 0.99463 0.16101 0.38292 0.0
C19 C 0.09161 0.23697 0.34039 0.0
C20 C 0.91675 0.2564 0.34187 0.0
C21 C 0.01463 0.3342 0.37763 0.0
O22 O 0.97895 0.24242 0.50083 0.0
O23 O 0.02823 0.73767 0.46559 0.0
Zn24 Zn 0.03503 0.72693 0.55504 0.0
O25 O 0.00232 0.74691 0.60552 0.0
Zn26 Zn 0.02176 0.77943 0.65771 0.0
Zn27 Zn 0.97028 0.76639 0.55284 0.0
Zn28 Zn 0.98198 0.71481 0.65653 0.0
O29 O 0.00925 0.77246 0.74636 0.0
O30 O 0.99466 0.72127 0.74515 0.0
O31 O 0.07971 0.7384 0.58441 0.0
O32 O 0.06983 0.77468 0.65666 0.0
O33 O 0.01076 0.82421 0.62841 0.0
O34 O 0.97564 0.81387 0.55394 0.0
O35 O 0.92514 0.75641 0.58172 0.0
O36 O 0.03083 0.67929 0.55901 0.0
O37 O 0.93407 0.7204 0.65463 0.0
O38 O 0.9925 0.66996 0.62749 0.0
C39 C 0.00279 0.74538 0.43633 0.0
C40 C 0.00207 0.74669 0.77446 0.0
C41 C 0.99217 0.83365 0.58536 0.0
C42 C 0.0895 0.75761 0.62608 0.0
C43 C 0.91485 0.73769 0.6235 0.0
C44 C 0.01292 0.65996 0.58826 0.0
O45 O 0.97727 0.75371 0.46447 0.0
O46 O 0.49509 0.72318 0.72074 0.0
Zn47 Zn 0.4833 0.71635 0.8096 0.0
O48 O 0.50299 0.74914 0.86061 0.0
Zn49 Zn 0.53555 0.73055 0.91308 0.0
Zn50 Zn 0.52248 0.78159 0.80913 0.0
Zn51 Zn 0.47055 0.76811 0.91261 0.0
O52 O 0.52897 0.74349 0.00159 0.0
O53 O 0.47683 0.75502 0.0009 0.0
O54 O 0.49494 0.67185 0.83956 0.0
O55 O 0.53059 0.68305 0.91274 0.0
O56 O 0.58033 0.74099 0.88323 0.0
O57 O 0.57056 0.77714 0.81097 0.0
O58 O 0.51089 0.82625 0.83848 0.0
O59 O 0.43521 0.72094 0.81118 0.0
O60 O 0.4757 0.81559 0.91232 0.0
O61 O 0.42577 0.7579 0.88229 0.0
C62 C 0.50263 0.74862 0.69188 0.0
C63 C 0.5028 0.74916 0.03 0.0
C64 C 0.59018 0.76003 0.84159 0.0
C65 C 0.514 0.66291 0.88227 0.0
C66 C 0.49213 0.8355 0.88133 0.0
C67 C 0.41575 0.73852 0.84114 0.0
O68 O 0.51035 0.77421 0.72038 0.0
O69 O 0.50963 0.224 0.24594 0.0
Zn70 Zn 0.52231 0.21679 0.15743 0.0
O71 O 0.50352 0.2495 0.1053 0.0
Zn72 Zn 0.47134 0.23061 0.05225 0.0
Zn73 Zn 0.48381 0.28206 0.15643 0.0
Zn74 Zn 0.5365 0.26858 0.05464 0.0
O75 O 0.47855 0.24319 0.96398 0.0
O76 O 0.53018 0.25688 0.96548 0.0
O77 O 0.51084 0.17217 0.12754 0.0
O78 O 0.47609 0.18313 0.05285 0.0
O79 O 0.42644 0.2412 0.08121 0.0
O80 O 0.43574 0.27708 0.15458 0.0
O81 O 0.49508 0.32667 0.12705 0.0
O82 O 0.57042 0.22103 0.15707 0.0
O83 O 0.53206 0.31614 0.05641 0.0
O84 O 0.58098 0.25729 0.08543 0.0
C85 C 0.50315 0.24997 0.2742 0.0
C86 C 0.50449 0.25022 0.93601 0.0
C87 C 0.41634 0.26 0.12319 0.0
C88 C 0.49225 0.16308 0.08414 0.0
C89 C 0.51483 0.33599 0.08605 0.0
C90 C 0.59038 0.23801 0.12714 0.0
O91 O 0.49648 0.27557 0.24504 0.0
H92 H 0.97217 0.38146 0.34531 0.0
H93 H 0.97212 0.43703 0.38073 0.0
H94 H 0.06015 0.42038 0.48065 0.0
H95 H 0.06007 0.36478 0.44671 0.0
H96 H 0.01526 0.44969 0.55136 0.0
H97 H 0.0268 0.51218 0.32743 0.0
H98 H 0.99365 0.48481 0.33062 0.0
H99 H 0.03406 0.46989 0.33573 0.0
C100 C 0.99177 0.38975 0.37408 0.0
C101 C 0.01612 0.36866 0.39318 0.0
C102 C 0.99175 0.42156 0.39415 0.0
C103 C 0.01629 0.43292 0.43291 0.0
C104 C 0.04097 0.41211 0.45082 0.0
H105 H 0.05905 0.62957 0.52106 0.0
H106 H 0.05969 0.57397 0.48722 0.0
C107 C 0.04091 0.38033 0.4312 0.0
C108 C 0.01562 0.46603 0.45737 0.0
H109 H 0.01548 0.54445 0.41474 0.0
C110 C 0.01538 0.47044 0.52152 0.0
C111 C 0.01608 0.49303 0.41836 0.0
C112 C 0.01797 0.48985 0.34923 0.0
C113 C 0.01552 0.50112 0.54776 0.0
C114 C 0.0152 0.52811 0.50873 0.0
C115 C 0.0155 0.5237 0.44459 0.0
C116 C 0.01549 0.56123 0.53319 0.0
C117 C 0.01683 0.50431 0.61695 0.0
C118 C 0.99057 0.57248 0.57093 0.0
C119 C 0.99026 0.6043 0.59095 0.0
C120 C 0.01466 0.6255 0.5728 0.0
C121 C 0.03983 0.61394 0.53582 0.0
C122 C 0.04021 0.58216 0.51626 0.0
H123 H 0.02558 0.48203 0.63912 0.0
H124 H 0.03272 0.52435 0.63106 0.0
H125 H 0.99234 0.50925 0.63458 0.0
H126 H 0.97091 0.5569 0.5836 0.0
H127 H 0.97039 0.6125 0.61891 0.0
H128 H 0.63882 0.72257 0.88714 0.0
H129 H 0.69433 0.71976 0.85073 0.0
H130 H 0.67483 0.79453 0.71963 0.0
H131 H 0.61955 0.79785 0.75597 0.0
H132 H 0.71295 0.70499 0.72973 0.0
H133 H 0.75863 0.82424 0.80022 0.0
H134 H 0.72237 0.80718 0.83159 0.0
H135 H 0.72192 0.8254 0.75671 0.0
C136 C 0.64645 0.73881 0.85127 0.0
C137 C 0.62466 0.76046 0.82457 0.0
C138 C 0.67816 0.73708 0.83039 0.0
C139 C 0.68876 0.75713 0.78288 0.0
C140 C 0.66732 0.77923 0.75709 0.0
H141 H 0.86688 0.77582 0.57723 0.0
H142 H 0.81117 0.77915 0.61252 0.0
C143 C 0.63564 0.78097 0.77782 0.0
C144 C 0.72162 0.75365 0.75764 0.0
H145 H 0.79165 0.794 0.73269 0.0
C146 C 0.73025 0.72437 0.73068 0.0
C147 C 0.74401 0.77907 0.75852 0.0
C148 C 0.73646 0.81067 0.78878 0.0
C149 C 0.76056 0.71994 0.7038 0.0
C150 C 0.78299 0.74532 0.70485 0.0
C151 C 0.77433 0.77463 0.73167 0.0
C152 C 0.81598 0.74167 0.68034 0.0
C153 C 0.76808 0.68834 0.6735 0.0
C154 C 0.83707 0.71937 0.70654 0.0
C155 C 0.86883 0.71732 0.68645 0.0
C156 C 0.88028 0.73773 0.63995 0.0
C157 C 0.85888 0.75964 0.61291 0.0
C158 C 0.82706 0.76168 0.63315 0.0
H159 H 0.74587 0.67498 0.6614 0.0
H160 H 0.78249 0.69178 0.63108 0.0
H161 H 0.78224 0.67342 0.70585 0.0
H162 H 0.82921 0.70411 0.74379 0.0
H163 H 0.88462 0.70025 0.70856 0.0
H164 H 0.54648 0.36215 -0.01134 0.0
H165 H 0.5468 0.41767 0.95588 0.0
H166 H 0.48774 0.44335 0.11117 0.0
H167 H 0.48647 0.38729 0.14366 0.0
H168 H 0.46605 0.46996 0.00568 0.0
H169 H 0.5968 0.4913 0.02644 0.0
H170 H 0.58787 0.45762 0.97819 0.0
H171 H 0.5776 0.45653 0.05866 0.0
C172 C 0.5338 0.37956 0.01643 0.0
C173 C 0.51659 0.37024 0.06913 0.0
C174 C 0.53416 0.4114 -0.00234 0.0
C175 C 0.51782 0.43478 0.03167 0.0
C176 C 0.50069 0.42568 0.08445 0.0
H177 H 0.54347 0.63787 -0.01662 0.0
H178 H 0.54325 0.58269 0.01822 0.0
C179 C 0.50006 0.39367 0.10305 0.0
C180 C 0.51769 0.46845 0.01051 0.0
H181 H 0.56697 0.52987 0.9691 0.0
C182 C 0.48809 0.48318 -0.0019 0.0
C183 C 0.54646 0.48575 0.0012 0.0
C184 C 0.57895 0.4721 0.01743 0.0
C185 C 0.48649 0.51461 0.9758 0.0
C186 C 0.51532 0.53142 0.96403 0.0
C187 C 0.54489 0.5168 0.97724 0.0
C188 C 0.51548 0.56481 0.94116 0.0
C189 C 0.45392 0.52969 0.96646 0.0
C190 C 0.50038 0.57312 0.88551 0.0
C191 C 0.50016 0.60493 0.86554 0.0
C192 C 0.51553 0.62883 0.90044 0.0
C193 C 0.53143 0.62014 0.95516 0.0
C194 C 0.53132 0.58854 0.97529 0.0
H195 H 0.43502 0.51717 -0.00682 0.0
H196 H 0.45411 0.55525 0.98028 0.0
H197 H 0.4473 0.52822 0.91702 0.0
H198 H 0.48872 0.55505 0.85755 0.0
H199 H 0.48789 0.61078 0.82302 0.0
H200 H 0.86894 0.21818 0.38813 0.0
H201 H 0.81335 0.21421 0.35174 0.0
H202 H 0.83075 0.28975 0.2214 0.0
H203 H 0.88625 0.29379 0.25681 0.0
H204 H 0.76373 0.26088 0.3448 0.0
H205 H 0.79784 0.21546 0.11362 0.0
H206 H 0.82551 0.21623 0.17774 0.0
H207 H 0.81718 0.25216 0.13542 0.0
C208 C 0.8609 0.23415 0.35207 0.0
C209 C 0.8822 0.25612 0.32505 0.0
C210 C 0.82914 0.23179 0.33128 0.0
C211 C 0.8182 0.25121 0.28301 0.0
C212 C 0.83896 0.27404 0.25775 0.0
H213 H 0.63976 0.27469 0.0826 0.0
H214 H 0.69511 0.27686 0.12058 0.0
C215 C 0.87065 0.27643 0.2784 0.0
C216 C 0.78518 0.24748 0.25849 0.0
H217 H 0.74304 0.22917 0.12793 0.0
C218 C 0.75914 0.25376 0.29753 0.0
C219 C 0.77936 0.2382 0.19675 0.0
C220 C 0.8064 0.22983 0.15349 0.0
C221 C 0.72737 0.25175 0.27604 0.0
C222 C 0.72156 0.24265 0.21418 0.0
C223 C 0.7476 0.23619 0.17526 0.0
C224 C 0.68857 0.23993 0.18895 0.0
C225 C 0.70033 0.26019 0.31928 0.0
C226 C 0.6669 0.21775 0.21352 0.0
C227 C 0.63529 0.21641 0.19197 0.0
C228 C 0.62477 0.23713 0.14508 0.0
C229 C 0.64698 0.25843 0.11881 0.0
C230 C 0.67862 0.25976 0.14051 0.0
H231 H 0.70897 0.27415 0.35962 0.0
H232 H 0.68149 0.27422 0.2952 0.0
H233 H 0.68919 0.23788 0.33662 0.0
H234 H 0.67432 0.20173 0.24998 0.0
H235 H 0.61896 0.19954 0.21301 0.0
H236 H 0.36807 0.22277 0.07522 0.0
H237 H 0.31236 0.21949 0.11033 0.0
H238 H 0.33091 0.29323 0.24478 0.0
H239 H 0.38638 0.29701 0.20974 0.0
H240 H 0.29299 0.20362 0.22997 0.0
H241 H 0.24754 0.32338 0.16378 0.0
H242 H 0.28404 0.30671 0.13255 0.0
H243 H 0.28398 0.32437 0.20811 0.0
C244 C 0.36019 0.23868 0.11157 0.0
C245 C 0.38177 0.26018 0.13958 0.0
C246 C 0.32837 0.23668 0.1317 0.0
C247 C 0.31744 0.25632 0.17975 0.0
C248 C 0.33867 0.27826 0.20687 0.0
H249 H 0.14028 0.27417 0.3869 0.0
H250 H 0.19576 0.2772 0.35047 0.0
C251 C 0.37046 0.28027 0.18689 0.0
C252 C 0.28445 0.25255 0.20417 0.0
H253 H 0.21447 0.29276 0.23049 0.0
C254 C 0.27571 0.22302 0.22972 0.0
C255 C 0.26208 0.27797 0.20412 0.0
C256 C 0.2697 0.30982 0.17518 0.0
C257 C 0.24536 0.21839 0.25629 0.0
C258 C 0.22302 0.24385 0.25638 0.0
C259 C 0.23173 0.27335 0.23068 0.0
C260 C 0.19016 0.24022 0.2815 0.0
C261 C 0.23775 0.18654 0.28521 0.0
C262 C 0.1687 0.21825 0.2551 0.0
C263 C 0.13704 0.21636 0.27589 0.0
C264 C 0.12609 0.23661 0.32326 0.0
C265 C 0.14788 0.25814 0.35052 0.0
C266 C 0.17958 0.26 0.32963 0.0
H267 H 0.2599 0.17289 0.29627 0.0
H268 H 0.22357 0.18966 0.32805 0.0
H269 H 0.22329 0.17207 0.25244 0.0
H270 H 0.17618 0.20317 0.21715 0.0
H271 H 0.12093 0.19961 0.25356 0.0
H272 H 0.38602 0.70063 0.75538 0.0
H273 H 0.3306 0.70406 0.71908 0.0
H274 H 0.31191 0.77958 0.84949 0.0
H275 H 0.36733 0.77619 0.88677 0.0
H276 H 0.26282 0.73277 0.84189 0.0
H277 H 0.29737 0.77762 0.61087 0.0
H278 H 0.31665 0.741 0.63304 0.0
H279 H 0.32491 0.7771 0.6752 0.0
C280 C 0.37013 0.71784 0.77681 0.0
C281 C 0.38127 0.73832 0.82374 0.0
C282 C 0.3385 0.71989 0.75563 0.0
C283 C 0.3174 0.74254 0.78066 0.0
C284 C 0.32795 0.76212 0.8292 0.0
H285 H 0.11891 0.79582 0.71171 0.0
H286 H 0.17437 0.7929 0.74794 0.0
C287 C 0.35962 0.7601 0.8505 0.0
C288 C 0.28443 0.74599 0.75575 0.0
H289 H 0.24249 0.76452 0.62523 0.0
C290 C 0.25833 0.73985 0.79464 0.0
C291 C 0.27872 0.75522 0.69402 0.0
C292 C 0.30585 0.76341 0.65089 0.0
C293 C 0.22659 0.74208 0.77311 0.0
C294 C 0.22087 0.75128 0.71137 0.0
C295 C 0.24698 0.75746 0.6725 0.0
C296 C 0.1879 0.75454 0.68634 0.0
C297 C 0.19947 0.73387 0.81625 0.0
C298 C 0.17753 0.73488 0.63777 0.0
C299 C 0.14584 0.73663 0.61649 0.0
C300 C 0.12399 0.75818 0.64333 0.0
C301 C 0.13495 0.77877 0.69025 0.0
C302 C 0.16661 0.77701 0.71138 0.0
H303 H 0.20796 0.7197 0.85631 0.0
H304 H 0.18862 0.75626 0.83405 0.0
H305 H 0.18044 0.72012 0.79197 0.0
H306 H 0.19371 0.71757 0.61748 0.0
H307 H 0.13827 0.72046 0.58024 0.0
H308 H 0.46153 0.86171 0.98014 0.0
H309 H 0.46116 0.91732 0.01283 0.0
H310 H 0.5184 0.94297 0.85527 0.0
H311 H 0.51968 0.88683 0.82273 0.0
H312 H 0.54087 0.97005 0.96082 0.0
H313 H 0.40981 0.99023 0.94272 0.0
H314 H 0.41941 0.95669 -0.00942 0.0
H315 H 0.42916 0.95562 0.90988 0.0
C316 C 0.47382 0.87912 0.95188 0.0
C317 C 0.49049 0.86977 0.89848 0.0
C318 C 0.47343 0.911 0.97061 0.0
C319 C 0.48923 0.93439 0.93593 0.0
C320 C 0.50588 0.92528 0.88251 0.0
H321 H 0.46271 0.13749 -0.01667 0.0
H322 H 0.4631 0.08218 0.94882 0.0
C323 C 0.50651 0.89322 0.86389 0.0
C324 C 0.48923 0.96813 0.95693 0.0
H325 H 0.43968 0.02932 -0.00105 0.0
C326 C 0.51877 0.98313 0.96875 0.0
C327 C 0.46037 0.98524 0.9667 0.0
C328 C 0.42792 0.97124 0.95121 0.0
C329 C 0.52024 0.01464 -0.00904 0.0
C330 C 0.49134 0.03127 0.00314 0.0
C331 C 0.46182 0.01639 -0.00951 0.0
C332 C 0.49104 0.06473 0.02585 0.0
C333 C 0.55273 0.03 -0.00019 0.0
C334 C 0.50616 0.07333 0.0814 0.0
C335 C 0.50625 0.1052 0.10121 0.0
C336 C 0.49078 0.12891 0.06621 0.0
C337 C 0.47485 0.11993 0.0116 0.0
C338 C 0.47505 0.08825 -0.00834 0.0
H339 H 0.57165 0.01747 0.97304 0.0
H340 H 0.55231 0.05548 -0.01427 0.0
H341 H 0.55948 0.02885 0.04921 0.0
H342 H 0.51794 0.05541 0.10938 0.0
H343 H 0.51855 0.11127 0.14365 0.0
H344 H 0.02081 0.88465 0.6439 0.0
H345 H 0.02028 0.94076 0.61155 0.0
H346 H 0.96172 0.91582 0.45459 0.0
H347 H 0.96136 0.86024 0.48707 0.0
H348 H 0.04257 0.96739 0.50563 0.0
H349 H 0.91197 0.98965 0.5258 0.0
H350 H 0.931 0.9548 0.55827 0.0
H351 H 0.92074 0.95588 0.47771 0.0
C352 C 0.00751 0.8912 0.60292 0.0
C353 C 0.99092 0.86794 0.56843 0.0
C354 C 0.00731 0.92324 0.58439 0.0
C355 C 0.99053 0.93255 0.53119 0.0
C356 C 0.97414 0.90936 0.49663 0.0
H357 H 0.02065 0.1089 0.32352 0.0
H358 H 0.02001 0.05314 0.35798 0.0
C359 C 0.9741 0.87749 0.51525 0.0
C360 C 0.99093 0.96628 0.51033 0.0
H361 H 0.94208 0.02821 0.46945 0.0
C362 C 0.02063 0.98081 0.49812 0.0
C363 C 0.96229 0.98384 0.50109 0.0
C364 C 0.92973 0.97036 0.517 0.0
C365 C 0.02244 0.01229 0.47605 0.0
C366 C 0.99373 0.02938 0.46445 0.0
C367 C 0.96407 0.01495 0.47748 0.0
C368 C 0.99377 0.06285 0.44195 0.0
C369 C 0.0551 0.02712 0.46673 0.0
C370 C 0.97825 0.08659 0.47643 0.0
C371 C 0.97807 0.11821 0.45639 0.0
C372 C 0.99354 0.12693 0.40137 0.0
C373 C 0.0087 0.10304 0.36625 0.0
C374 C 0.00859 0.07121 0.38617 0.0
H375 H 0.07401 0.01432 0.49312 0.0
H376 H 0.06148 0.02583 0.41722 0.0
H377 H 0.05519 0.05263 0.48095 0.0
H378 H 0.96656 0.08072 0.51947 0.0
H379 H 0.96621 0.13592 0.48481 0.0
H380 H 0.97895 0.29264 0.11504 0.0
H381 H 0.97855 0.29282 0.00262 0.0
H382 H 0.02816 0.20235 0.00075 0.0
H383 H 0.02803 0.20154 0.11326 0.0
H384 H 0.02825 0.29268 0.92246 0.0
H385 H 0.95301 0.18483 0.88695 0.0
H386 H 0.95707 0.20409 0.96098 0.0
H387 H 0.98789 0.17754 0.93355 0.0
C388 C 0.98968 0.27268 0.0908 0.0
C389 C 0.00336 0.24697 0.12317 0.0
C390 C 0.98943 0.27285 0.02653 0.0
C391 C 0.00287 0.24737 -0.00663 0.0
C392 C 0.01696 0.22188 0.02545 0.0
H393 H 0.0566 0.25293 0.60697 0.0
H394 H 0.0563 0.25289 0.71948 0.0
C395 C 0.017 0.22155 0.08977 0.0
C396 C 0.00276 0.24792 0.92521 0.0
H397 H 0.97855 0.20612 0.79825 0.0
C398 C 0.01729 0.27383 0.89523 0.0
C399 C 0.98803 0.22352 0.88989 0.0
C400 C 0.97033 0.19608 0.91942 0.0
C401 C 0.01783 0.27583 0.83078 0.0
C402 C 0.00417 0.25082 0.79545 0.0
C403 C 0.9893 0.22511 0.82545 0.0
C404 C 0.00451 0.25104 0.72727 0.0
C405 C 0.03242 0.30503 0.80128 0.0
C406 C 0.97555 0.24912 0.69432 0.0
C407 C 0.97566 0.24866 0.63006 0.0
C408 C 0.00476 0.25019 0.59747 0.0
C409 C 0.03376 0.25204 0.63063 0.0
C410 C 0.03363 0.25221 0.69496 0.0
H411 H 0.03324 0.32558 0.83375 0.0
H412 H 0.05744 0.29957 0.78729 0.0
H413 H 0.01872 0.31227 0.75966 0.0
H414 H 0.95282 0.24808 0.71839 0.0
H415 H 0.95289 0.24724 0.60598 0.0
H416 H 0.00682 0.79756 0.85345 0.0
H417 H 0.00751 0.79638 0.96591 0.0
H418 H 0.99984 0.69359 0.9621 0.0
H419 H 0.99826 0.69455 0.84972 0.0
H420 H 0.95943 0.71956 0.04457 0.0
H421 H 0.08117 0.77062 0.07636 0.0
H422 H 0.05529 0.7958 0.03155 0.0
H423 H 0.06657 0.75709 0.00249 0.0
C424 C 0.0054 0.77467 0.87649 0.0
C425 C 0.00261 0.74613 0.84257 0.0
C426 C 0.006 0.77404 0.94079 0.0
C427 C 0.00435 0.74486 0.97232 0.0
C428 C 0.00131 0.71637 0.93864 0.0
H429 H 0.04835 0.71959 0.36047 0.0
H430 H 0.04817 0.71821 0.24796 0.0
C431 C 1.00041 0.71698 0.87439 0.0
C432 C 0.0049 0.74402 0.04047 0.0
H433 H 0.04869 0.76669 0.16622 0.0
C434 C 0.97902 0.72972 0.07121 0.0
C435 C 0.03072 0.75683 0.07506 0.0
C436 C 0.06017 0.77065 0.04471 0.0
C437 C 0.97798 0.72836 0.13568 0.0
C438 C 0.00311 0.74245 0.17029 0.0
C439 C 0.02927 0.75623 0.13956 0.0
C440 C 0.00284 0.74303 0.23846 0.0
C441 C 0.95025 0.71135 0.16597 0.0
C442 C 0.97759 0.75777 0.27038 0.0
C443 C 0.97747 0.75837 0.33466 0.0
C444 C 0.00288 0.74466 0.36822 0.0
C445 C 0.02841 0.73037 0.33605 0.0
C446 C 0.02836 0.72955 0.27175 0.0
H447 H 0.9386 0.69409 0.13402 0.0
H448 H 0.95822 0.6983 0.20776 0.0
H449 H 0.9319 0.72918 0.17983 0.0
H450 H 0.95808 0.76906 0.24557 0.0
H451 H 0.95761 0.76987 0.35798 0.0
H452 H 0.5543 0.74593 0.10831 0.0
H453 H 0.55355 0.74534 0.22075 0.0
H454 H 0.45009 0.75023 0.2184 0.0
H455 H 0.45058 0.75164 0.10598 0.0
H456 H 0.47586 0.79143 0.30079 0.0
H457 H 0.5296 0.67128 0.33088 0.0
H458 H 0.55405 0.69752 0.28561 0.0
H459 H 0.51522 0.68544 0.25741 0.0
C460 C 0.53136 0.74677 0.13165 0.0
C461 C 0.50248 0.74871 0.09812 0.0
C462 C 0.53098 0.74623 0.19594 0.0
C463 C 0.50174 0.74713 0.22786 0.0
C464 C 0.47291 0.74934 0.1946 0.0
H465 H 0.47766 0.70289 0.61533 0.0
H466 H 0.47641 0.70313 0.50285 0.0
C467 C 0.47325 0.75014 0.13034 0.0
C468 C 0.50119 0.74663 0.296 0.0
H469 H 0.52518 0.70348 0.42105 0.0
C470 C 0.4865 0.77214 0.32713 0.0
C471 C 0.51466 0.72118 0.33018 0.0
C472 C 0.52898 0.69215 0.29936 0.0
C473 C 0.48537 0.77317 0.39164 0.0
C474 C 0.50006 0.74841 0.42584 0.0
C475 C 0.51426 0.72262 0.3947 0.0
C476 C 0.50072 0.7486 0.494 0.0
C477 C 0.46794 0.80049 0.4224 0.0
C478 C 0.51515 0.77391 0.52628 0.0
C479 C 0.51568 0.77399 0.59057 0.0
C480 C 0.5022 0.7485 0.62377 0.0
C481 C 0.48827 0.7229 0.59121 0.0
C482 C 0.48752 0.72298 0.52693 0.0
H483 H 0.4504 0.8119 0.39071 0.0
H484 H 0.45499 0.79231 0.46412 0.0
H485 H 0.48563 0.81896 0.43649 0.0
H486 H 0.52622 0.79351 0.50174 0.0
H487 H 0.5269 0.79392 0.6142 0.0
H488 H 0.50097 0.30223 0.34992 0.0
H489 H 0.50284 0.30315 0.46233 0.0
H490 H 0.5074 0.20018 0.46515 0.0
H491 H 0.50642 0.19902 0.35271 0.0
H492 H 0.46198 0.27847 0.54507 0.0
H493 H 0.5821 0.22365 0.57506 0.0
H494 H 0.56772 0.23763 0.50146 0.0
H495 H 0.55539 0.19924 0.53021 0.0
C496 C 0.50249 0.27975 0.37439 0.0
C497 C 0.50375 0.25054 0.3423 0.0
C498 C 0.50357 0.28034 0.43865 0.0
C499 C 0.50584 0.25178 0.47204 0.0
C500 C 0.50651 0.22255 0.44024 0.0
H501 H 0.45859 0.22734 0.85718 0.0
H502 H 0.45913 0.22843 0.74478 0.0
C503 C 0.50574 0.22194 0.37596 0.0
C504 C 0.5066 0.25256 0.54021 0.0
H505 H 0.54982 0.22813 0.66522 0.0
C506 C 0.48127 0.26763 0.57137 0.0
C507 C 0.53207 0.23887 0.57438 0.0
C508 C 0.56102 0.22423 0.54359 0.0
C509 C 0.48037 0.26882 0.63588 0.0
C510 C 0.50505 0.25378 0.67006 0.0
C511 C 0.53072 0.23929 0.6389 0.0
C512 C 0.5048 0.2529 0.73821 0.0
C513 C 0.45327 0.28665 0.66667 0.0
C514 C 0.53079 0.26534 0.77178 0.0
C515 C 0.53079 0.26432 0.83605 0.0
C516 C 0.50473 0.25089 0.86793 0.0
C517 C 0.47887 0.23817 0.83409 0.0
C518 C 0.47903 0.23894 0.76982 0.0
H519 H 0.44224 0.30445 0.63519 0.0
H520 H 0.4343 0.26941 0.68008 0.0
H521 H 0.46171 0.29923 0.70878 0.0
H522 H 0.55099 0.27606 0.74823 0.0
H523 H 0.55109 0.27434 0.8607 0.0
loop_
_geom_bond_atom_site_label_1
_geom_bond_atom_site_label_2
_geom_bond_distance
_geom_bond_site_symmetry_2
_ccdc_geom_bond_type
O0 Zn1 1.953 . S
O0 C16 1.225 . S
Zn1 O0 1.953 . S
Zn1 O2 1.949 . S
Zn1 O8 1.919 . S
Zn1 O13 1.924 . S
O2 Zn1 1.949 . S
O2 Zn3 1.923 . S
O2 Zn4 1.950 1_455 S
O2 Zn5 1.945 1_455 S
Zn3 O2 1.923 . S
Zn3 O6 1.933 . S
Zn3 O9 1.941 . S
Zn3 O10 1.965 . S
Zn4 O2 1.950 1_655 S
Zn4 O11 1.938 . S
Zn4 O12 1.906 . S
Zn4 O22 1.953 . S
Zn5 O2 1.945 1_655 S
Zn5 O7 1.932 . S
Zn5 O14 1.977 . S
Zn5 O15 1.910 . S
O6 Zn3 1.933 . S
O6 C17 1.226 . S
O7 Zn5 1.932 . S
O7 C17 1.307 1_655 S
O8 Zn1 1.919 . S
O8 C19 1.253 . S
O9 Zn3 1.941 . S
O9 C19 1.283 . S
O10 Zn3 1.965 . S
O10 C18 1.303 . S
O11 Zn4 1.938 . S
O11 C18 1.247 1_655 S
O12 Zn4 1.906 . S
O12 C20 1.304 . S
O13 Zn1 1.924 . S
O13 C21 1.311 . S
O14 Zn5 1.977 . S
O14 C20 1.272 . S
O15 Zn5 1.910 . S
O15 C21 1.231 1_655 S
C16 O0 1.225 . S
C16 O22 1.298 1_455 S
C17 O6 1.226 . S
C17 O7 1.307 1_455 S
C18 O10 1.303 . S
C18 O11 1.247 1_455 S
C19 O8 1.253 . S
C19 O9 1.283 . S
C20 O12 1.304 . S
C20 O14 1.272 . S
C21 O13 1.311 . S
C21 O15 1.231 1_455 S
O22 Zn4 1.953 . S
O22 C16 1.298 1_655 S
O23 Zn24 1.953 . S
O23 C39 1.225 . S
Zn24 O23 1.953 . S
Zn24 O25 1.949 . S
Zn24 O31 1.919 . S
Zn24 O36 1.924 . S
O25 Zn24 1.949 . S
O25 Zn26 1.923 . S
O25 Zn27 1.950 1_455 S
O25 Zn28 1.945 1_455 S
Zn26 O25 1.923 . S
Zn26 O29 1.933 . S
Zn26 O32 1.941 . S
Zn26 O33 1.965 . S
Zn27 O25 1.950 1_655 S
Zn27 O34 1.938 . S
Zn27 O35 1.906 . S
Zn27 O45 1.953 . S
Zn28 O25 1.945 1_655 S
Zn28 O30 1.932 . S
Zn28 O37 1.977 . S
Zn28 O38 1.910 . S
O29 Zn26 1.933 . S
O29 C40 1.226 . S
O30 Zn28 1.932 . S
O30 C40 1.307 1_655 S
O31 Zn24 1.919 . S
O31 C42 1.253 . S
O32 Zn26 1.941 . S
O32 C42 1.283 . S
O33 Zn26 1.965 . S
O33 C41 1.303 1_455 S
O34 Zn27 1.938 . S
O34 C41 1.247 . S
O35 Zn27 1.906 . S
O35 C43 1.304 . S
O36 Zn24 1.924 . S
O36 C44 1.311 . S
O37 Zn28 1.977 . S
O37 C43 1.272 . S
O38 Zn28 1.910 . S
O38 C44 1.231 1_655 S
C39 O23 1.225 . S
C39 O45 1.298 1_455 S
C40 O29 1.226 . S
C40 O30 1.307 1_455 S
C41 O33 1.303 1_655 S
C41 O34 1.247 . S
C42 O31 1.253 . S
C42 O32 1.283 . S
C43 O35 1.304 . S
C43 O37 1.272 . S
C44 O36 1.311 . S
C44 O38 1.231 1_455 S
O45 Zn27 1.953 . S
O45 C39 1.298 1_655 S
O46 Zn47 1.953 . S
O46 C62 1.225 . S
Zn47 O46 1.953 . S
Zn47 O48 1.949 . S
Zn47 O54 1.919 . S
Zn47 O59 1.924 . S
O48 Zn47 1.949 . S
O48 Zn49 1.923 . S
O48 Zn50 1.950 . S
O48 Zn51 1.945 . S
Zn49 O48 1.923 . S
Zn49 O52 1.933 1_556 S
Zn49 O55 1.941 . S
Zn49 O56 1.965 . S
Zn50 O48 1.950 . S
Zn50 O57 1.938 . S
Zn50 O58 1.906 . S
Zn50 O68 1.953 . S
Zn51 O48 1.945 . S
Zn51 O53 1.932 1_556 S
Zn51 O60 1.977 . S
Zn51 O61 1.910 . S
O52 Zn49 1.933 1_554 S
O52 C63 1.226 . S
O53 Zn51 1.932 1_554 S
O53 C63 1.307 . S
O54 Zn47 1.919 . S
O54 C65 1.253 . S
O55 Zn49 1.941 . S
O55 C65 1.283 . S
O56 Zn49 1.965 . S
O56 C64 1.303 . S
O57 Zn50 1.938 . S
O57 C64 1.247 . S
O58 Zn50 1.906 . S
O58 C66 1.304 . S
O59 Zn47 1.924 . S
O59 C67 1.311 . S
O60 Zn51 1.977 . S
O60 C66 1.272 . S
O61 Zn51 1.910 . S
O61 C67 1.231 . S
C62 O46 1.225 . S
C62 O68 1.298 . S
C63 O52 1.226 . S
C63 O53 1.307 . S
C64 O56 1.303 . S
C64 O57 1.247 . S
C65 O54 1.253 . S
C65 O55 1.283 . S
C66 O58 1.304 . S
C66 O60 1.272 . S
C67 O59 1.311 . S
C67 O61 1.231 . S
O68 Zn50 1.953 . S
O68 C62 1.298 . S
O69 Zn70 1.953 . S
O69 C85 1.225 . S
Zn70 O69 1.953 . S
Zn70 O71 1.949 . S
Zn70 O77 1.919 . S
Zn70 O82 1.924 . S
O71 Zn70 1.949 . S
O71 Zn72 1.923 . S
O71 Zn73 1.950 . S
O71 Zn74 1.945 . S
Zn72 O71 1.923 . S
Zn72 O75 1.933 1_554 S
Zn72 O78 1.941 . S
Zn72 O79 1.965 . S
Zn73 O71 1.950 . S
Zn73 O80 1.938 . S
Zn73 O81 1.906 . S
Zn73 O91 1.953 . S
Zn74 O71 1.945 . S
Zn74 O76 1.932 1_554 S
Zn74 O83 1.977 . S
Zn74 O84 1.910 . S
O75 Zn72 1.933 1_556 S
O75 C86 1.226 . S
O76 Zn74 1.932 1_556 S
O76 C86 1.307 . S
O77 Zn70 1.919 . S
O77 C88 1.253 . S
O78 Zn72 1.941 . S
O78 C88 1.283 . S
O79 Zn72 1.965 . S
O79 C87 1.303 . S
O80 Zn73 1.938 . S
O80 C87 1.247 . S
O81 Zn73 1.906 . S
O81 C89 1.304 . S
O82 Zn70 1.924 . S
O82 C90 1.311 . S
O83 Zn74 1.977 . S
O83 C89 1.272 . S
O84 Zn74 1.910 . S
O84 C90 1.231 . S
C85 O69 1.225 . S
C85 O91 1.298 . S
C86 O75 1.226 . S
C86 O76 1.307 . S
C87 O79 1.303 . S
C87 O80 1.247 . S
C88 O77 1.253 . S
C88 O78 1.283 . S
C89 O81 1.304 . S
C89 O83 1.272 . S
C90 O82 1.311 . S
C90 O84 1.231 . S
O91 Zn73 1.953 . S
O91 C85 1.298 . S
H92 C100 0.929 . S
H93 C102 0.930 . S
H94 C104 0.930 . S
H95 C107 0.929 . S
H96 C110 0.930 . S
H97 C112 0.960 . S
H98 C112 0.960 . S
H99 C112 0.960 . S
C100 H92 0.929 . S
C100 C101 1.377 1_655 S
C100 C102 1.384 . S
C101 C100 1.377 1_455 S
C101 C107 1.390 . S
C102 H93 0.930 . S
C102 C100 1.384 . S
C102 C103 1.372 1_655 S
C103 C102 1.372 1_455 S
C103 C104 1.400 . S
C103 C108 1.490 . S
C104 H94 0.930 . S
C104 C103 1.400 . S
C104 C107 1.386 . S
H105 C121 0.930 . S
H106 C122 0.931 . S
C107 H95 0.929 . S
C107 C101 1.390 . S
C107 C104 1.386 . S
C108 C103 1.490 . S
C108 C110 1.395 . S
C108 C111 1.403 1_455 S
H109 C115 0.930 . S
C110 H96 0.930 . S
C110 C108 1.395 . S
C110 C113 1.403 . S
C111 C108 1.403 1_655 S
C111 C112 1.524 . S
C111 C115 1.400 . S
C112 H97 0.960 . S
C112 H98 0.960 . S
C112 H99 0.960 . S
C112 C111 1.524 . S
C113 C110 1.403 . S
C113 C114 1.392 . S
C113 C117 1.495 . S
C114 C113 1.392 . S
C114 C115 1.385 1_455 S
C114 C116 1.478 . S
C115 H109 0.930 . S
C115 C111 1.400 . S
C115 C114 1.385 1_655 S
C116 C114 1.478 . S
C116 C118 1.381 1_455 S
C116 C122 1.383 . S
C117 C113 1.495 . S
C117 H123 0.959 . S
C117 H124 0.961 . S
C117 H125 0.960 . S
C118 C116 1.381 1_655 S
C118 C119 1.394 . S
C118 H126 0.930 . S
C119 C118 1.394 . S
C119 C120 1.383 1_655 S
C119 H127 0.929 . S
C120 C119 1.383 1_455 S
C120 C121 1.377 . S
C121 H105 0.930 . S
C121 C120 1.377 . S
C121 C122 1.379 . S
C122 H106 0.931 . S
C122 C116 1.383 . S
C122 C121 1.379 . S
H123 C117 0.959 . S
H124 C117 0.961 . S
H125 C117 0.960 . S
H126 C118 0.930 . S
H127 C119 0.929 . S
H128 C136 0.929 . S
H129 C138 0.930 . S
H130 C140 0.930 . S
H131 C143 0.929 . S
H132 C146 0.930 . S
H133 C148 0.960 . S
H134 C148 0.960 . S
H135 C148 0.960 . S
C136 H128 0.929 . S
C136 C137 1.377 . S
C136 C138 1.384 . S
C137 C136 1.377 . S
C137 C143 1.390 . S
C138 H129 0.930 . S
C138 C136 1.384 . S
C138 C139 1.372 . S
C139 C138 1.372 . S
C139 C140 1.400 . S
C139 C144 1.490 . S
C140 H130 0.930 . S
C140 C139 1.400 . S
C140 C143 1.386 . S
H141 C157 0.930 . S
H142 C158 0.931 . S
C143 H131 0.929 . S
C143 C137 1.390 . S
C143 C140 1.386 . S
C144 C139 1.490 . S
C144 C146 1.395 . S
C144 C147 1.403 . S
H145 C151 0.930 . S
C146 H132 0.930 . S
C146 C144 1.395 . S
C146 C149 1.403 . S
C147 C144 1.403 . S
C147 C148 1.524 . S
C147 C151 1.400 . S
C148 H133 0.960 . S
C148 H134 0.960 . S
C148 H135 0.960 . S
C148 C147 1.524 . S
C149 C146 1.403 . S
C149 C150 1.392 . S
C149 C153 1.495 . S
C150 C149 1.392 . S
C150 C151 1.385 . S
C150 C152 1.478 . S
C151 H145 0.930 . S
C151 C147 1.400 . S
C151 C150 1.385 . S
C152 C150 1.478 . S
C152 C154 1.381 . S
C152 C158 1.383 . S
C153 C149 1.495 . S
C153 H159 0.959 . S
C153 H160 0.961 . S
C153 H161 0.960 . S
C154 C152 1.381 . S
C154 C155 1.394 . S
C154 H162 0.930 . S
C155 C154 1.394 . S
C155 C156 1.383 . S
C155 H163 0.929 . S
C156 C155 1.383 . S
C156 C157 1.377 . S
C157 H141 0.930 . S
C157 C156 1.377 . S
C157 C158 1.379 . S
C158 H142 0.931 . S
C158 C152 1.383 . S
C158 C157 1.379 . S
H159 C153 0.959 . S
H160 C153 0.961 . S
H161 C153 0.960 . S
H162 C154 0.930 . S
H163 C155 0.929 . S
H164 C172 0.929 1_556 S
H165 C174 0.930 . S
H166 C176 0.930 . S
H167 C179 0.929 . S
H168 C182 0.930 . S
H169 C184 0.960 . S
H170 C184 0.960 . S
H171 C184 0.960 . S
C172 H164 0.929 1_554 S
C172 C173 1.377 . S
C172 C174 1.384 1_554 S
C173 C172 1.377 . S
C173 C179 1.390 . S
C174 H165 0.930 . S
C174 C172 1.384 1_556 S
C174 C175 1.372 1_556 S
C175 C174 1.372 1_554 S
C175 C176 1.400 . S
C175 C180 1.490 . S
C176 H166 0.930 . S
C176 C175 1.400 . S
C176 C179 1.386 . S
H177 C193 0.930 1_554 S
H178 C194 0.931 . S
C179 H167 0.929 . S
C179 C173 1.390 . S
C179 C176 1.386 . S
C180 C175 1.490 . S
C180 C182 1.395 1_554 S
C180 C183 1.403 . S
H181 C187 0.931 . S
C182 H168 0.930 . S
C182 C180 1.395 1_556 S
C182 C185 1.403 . S
C183 C180 1.403 . S
C183 C184 1.524 . S
C183 C187 1.403 . S
C184 H169 0.960 . S
C184 H170 0.960 . S
C184 H171 0.960 . S
C184 C183 1.524 . S
C185 C182 1.403 . S
C185 C186 1.392 . S
C185 C189 1.495 . S
C186 C185 1.392 . S
C186 C187 1.381 1_556 S
C186 C188 1.478 . S
C187 H181 0.931 . S
C187 C183 1.403 . S
C187 C186 1.381 1_554 S
C188 C186 1.478 . S
C188 C190 1.381 . S
C188 C194 1.383 1_556 S
C189 C185 1.495 . S
C189 H195 0.959 . S
C189 H196 0.961 . S
C189 H197 0.960 . S
C190 C188 1.381 . S
C190 C191 1.394 . S
C190 H198 0.930 . S
C191 C190 1.394 . S
C191 C192 1.383 . S
C191 H199 0.929 . S
C192 C191 1.383 . S
C192 C193 1.377 . S
C193 H177 0.930 1_556 S
C193 C192 1.377 . S
C193 C194 1.379 1_556 S
C194 H178 0.931 . S
C194 C188 1.383 1_554 S
C194 C193 1.379 1_554 S
H195 C189 0.959 . S
H196 C189 0.961 . S
H197 C189 0.960 . S
H198 C190 0.930 . S
H199 C191 0.929 . S
H200 C208 0.929 . S
H201 C210 0.930 . S
H202 C212 0.930 . S
H203 C215 0.929 . S
H204 C218 0.930 . S
H205 C220 0.960 . S
H206 C220 0.960 . S
H207 C220 0.960 . S
C208 H200 0.929 . S
C208 C209 1.377 . S
C208 C210 1.384 . S
C209 C208 1.377 . S
C209 C215 1.390 . S
C210 H201 0.930 . S
C210 C208 1.384 . S
C210 C211 1.372 . S
C211 C210 1.372 . S
C211 C212 1.400 . S
C211 C216 1.490 . S
C212 H202 0.930 . S
C212 C211 1.400 . S
C212 C215 1.386 . S
H213 C229 0.930 . S
H214 C230 0.931 . S
C215 H203 0.929 . S
C215 C209 1.390 . S
C215 C212 1.386 . S
C216 C211 1.490 . S
C216 C218 1.395 . S
C216 C219 1.403 . S
H217 C223 0.930 . S
C218 H204 0.930 . S
C218 C216 1.395 . S
C218 C221 1.403 . S
C219 C216 1.403 . S
C219 C220 1.524 . S
C219 C223 1.400 . S
C220 H205 0.960 . S
C220 H206 0.960 . S
C220 H207 0.960 . S
C220 C219 1.524 . S
C221 C218 1.403 . S
C221 C222 1.392 . S
C221 C225 1.495 . S
C222 C221 1.392 . S
C222 C223 1.385 . S
C222 C224 1.478 . S
C223 H217 0.930 . S
C223 C219 1.400 . S
C223 C222 1.385 . S
C224 C222 1.478 . S
C224 C226 1.381 . S
C224 C230 1.383 . S
C225 C221 1.495 . S
C225 H231 0.959 . S
C225 H232 0.961 . S
C225 H233 0.960 . S
C226 C224 1.381 . S
C226 C227 1.394 . S
C226 H234 0.930 . S
C227 C226 1.394 . S
C227 C228 1.383 . S
C227 H235 0.929 . S
C228 C227 1.383 . S
C228 C229 1.377 . S
C229 H213 0.930 . S
C229 C228 1.377 . S
C229 C230 1.379 . S
C230 H214 0.931 . S
C230 C224 1.383 . S
C230 C229 1.379 . S
H231 C225 0.959 . S
H232 C225 0.961 . S
H233 C225 0.960 . S
H234 C226 0.930 . S
H235 C227 0.929 . S
H236 C244 0.929 . S
H237 C246 0.930 . S
H238 C248 0.930 . S
H239 C251 0.929 . S
H240 C254 0.930 . S
H241 C256 0.960 . S
H242 C256 0.960 . S
H243 C256 0.960 . S
C244 H236 0.929 . S
C244 C245 1.377 . S
C244 C246 1.384 . S
C245 C244 1.377 . S
C245 C251 1.390 . S
C246 H237 0.930 . S
C246 C244 1.384 . S
C246 C247 1.372 . S
C247 C246 1.372 . S
C247 C248 1.400 . S
C247 C252 1.490 . S
C248 H238 0.930 . S
C248 C247 1.400 . S
C248 C251 1.386 . S
H249 C265 0.930 . S
H250 C266 0.931 . S
C251 H239 0.929 . S
C251 C245 1.390 . S
C251 C248 1.386 . S
C252 C247 1.490 . S
C252 C254 1.395 . S
C252 C255 1.403 . S
H253 C259 0.930 . S
C254 H240 0.930 . S
C254 C252 1.395 . S
C254 C257 1.403 . S
C255 C252 1.403 . S
C255 C256 1.524 . S
C255 C259 1.400 . S
C256 H241 0.960 . S
C256 H242 0.960 . S
C256 H243 0.960 . S
C256 C255 1.524 . S
C257 C254 1.403 . S
C257 C258 1.392 . S
C257 C261 1.495 . S
C258 C257 1.392 . S
C258 C259 1.385 . S
C258 C260 1.478 . S
C259 H253 0.930 . S
C259 C255 1.400 . S
C259 C258 1.385 . S
C260 C258 1.478 . S
C260 C262 1.381 . S
C260 C266 1.383 . S
C261 C257 1.495 . S
C261 H267 0.959 . S
C261 H268 0.961 . S
C261 H269 0.960 . S
C262 C260 1.381 . S
C262 C263 1.394 . S
C262 H270 0.930 . S
C263 C262 1.394 . S
C263 C264 1.383 . S
C263 H271 0.929 . S
C264 C263 1.383 . S
C264 C265 1.377 . S
C265 H249 0.930 . S
C265 C264 1.377 . S
C265 C266 1.379 . S
C266 H250 0.931 . S
C266 C260 1.383 . S
C266 C265 1.379 . S
H267 C261 0.959 . S
H268 C261 0.961 . S
H269 C261 0.960 . S
H270 C262 0.930 . S
H271 C263 0.929 . S
H272 C280 0.929 . S
H273 C282 0.930 . S
H274 C284 0.930 . S
H275 C287 0.929 . S
H276 C290 0.930 . S
H277 C292 0.960 . S
H278 C292 0.960 . S
H279 C292 0.960 . S
C280 H272 0.929 . S
C280 C281 1.377 . S
C280 C282 1.384 . S
C281 C280 1.377 . S
C281 C287 1.390 . S
C282 H273 0.930 . S
C282 C280 1.384 . S
C282 C283 1.372 . S
C283 C282 1.372 . S
C283 C284 1.400 . S
C283 C288 1.490 . S
C284 H274 0.930 . S
C284 C283 1.400 . S
C284 C287 1.386 . S
H285 C301 0.930 . S
H286 C302 0.931 . S
C287 H275 0.929 . S
C287 C281 1.390 . S
C287 C284 1.386 . S
C288 C283 1.490 . S
C288 C290 1.395 . S
C288 C291 1.403 . S
H289 C295 0.930 . S
C290 H276 0.930 . S
C290 C288 1.395 . S
C290 C293 1.403 . S
C291 C288 1.403 . S
C291 C292 1.524 . S
C291 C295 1.400 . S
C292 H277 0.960 . S
C292 H278 0.960 . S
C292 H279 0.960 . S
C292 C291 1.524 . S
C293 C290 1.403 . S
C293 C294 1.392 . S
C293 C297 1.495 . S
C294 C293 1.392 . S
C294 C295 1.385 . S
C294 C296 1.478 . S
C295 H289 0.930 . S
C295 C291 1.400 . S
C295 C294 1.385 . S
C296 C294 1.478 . S
C296 C298 1.381 . S
C296 C302 1.383 . S
C297 C293 1.495 . S
C297 H303 0.959 . S
C297 H304 0.961 . S
C297 H305 0.960 . S
C298 C296 1.381 . S
C298 C299 1.394 . S
C298 H306 0.930 . S
C299 C298 1.394 . S
C299 C300 1.383 . S
C299 H307 0.929 . S
C300 C299 1.383 . S
C300 C301 1.377 . S
C301 H285 0.930 . S
C301 C300 1.377 . S
C301 C302 1.379 . S
C302 H286 0.931 . S
C302 C296 1.383 . S
C302 C301 1.379 . S
H303 C297 0.959 . S
H304 C297 0.961 . S
H305 C297 0.960 . S
H306 C298 0.930 . S
H307 C299 0.929 . S
H308 C316 0.929 1_554 S
H309 C318 0.930 . S
H310 C320 0.930 . S
H311 C323 0.929 . S
H312 C326 0.930 . S
H313 C328 0.960 . S
H314 C328 0.960 . S
H315 C328 0.960 . S
C316 H308 0.929 1_556 S
C316 C317 1.377 . S
C316 C318 1.384 1_556 S
C317 C316 1.377 . S
C317 C323 1.390 . S
C318 H309 0.930 . S
C318 C316 1.384 1_554 S
C318 C319 1.372 1_554 S
C319 C318 1.372 1_556 S
C319 C320 1.400 . S
C319 C324 1.490 . S
C320 H310 0.930 . S
C320 C319 1.400 . S
C320 C323 1.386 . S
H321 C337 0.930 1_556 S
H322 C338 0.931 . S
C323 H311 0.929 . S
C323 C317 1.390 . S
C323 C320 1.386 . S
C324 C319 1.490 . S
C324 C326 1.395 1_556 S
C324 C327 1.403 . S
H325 C331 0.930 . S
C326 H312 0.930 . S
C326 C324 1.395 1_554 S
C326 C329 1.403 1_565 S
C327 C324 1.403 . S
C327 C328 1.524 . S
C327 C331 1.400 1_565 S
C328 H313 0.960 . S
C328 H314 0.960 . S
C328 H315 0.960 . S
C328 C327 1.524 . S
C329 C326 1.403 1_545 S
C329 C330 1.392 . S
C329 C333 1.495 . S
C330 C329 1.392 . S
C330 C331 1.385 1_554 S
C330 C332 1.478 . S
C331 H325 0.930 . S
C331 C327 1.400 1_545 S
C331 C330 1.385 1_556 S
C332 C330 1.478 . S
C332 C334 1.381 . S
C332 C338 1.383 1_554 S
C333 C329 1.495 . S
C333 H339 0.959 . S
C333 H340 0.961 . S
C333 H341 0.960 . S
C334 C332 1.381 . S
C334 C335 1.394 . S
C334 H342 0.930 . S
C335 C334 1.394 . S
C335 C336 1.383 . S
C335 H343 0.929 . S
C336 C335 1.383 . S
C336 C337 1.377 . S
C337 H321 0.930 1_554 S
C337 C336 1.377 . S
C337 C338 1.379 1_554 S
C338 H322 0.931 . S
C338 C332 1.383 1_556 S
C338 C337 1.379 1_556 S
H339 C333 0.959 . S
H340 C333 0.961 . S
H341 C333 0.960 . S
H342 C334 0.930 . S
H343 C335 0.929 . S
H344 C352 0.929 . S
H345 C354 0.930 . S
H346 C356 0.930 . S
H347 C359 0.929 . S
H348 C362 0.930 . S
H349 C364 0.960 . S
H350 C364 0.960 . S
H351 C364 0.960 . S
C352 H344 0.929 . S
C352 C353 1.377 . S
C352 C354 1.384 . S
C353 C352 1.377 . S
C353 C359 1.390 1_455 S
C354 H345 0.930 . S
C354 C352 1.384 . S
C354 C355 1.372 . S
C355 C354 1.372 . S
C355 C356 1.400 1_455 S
C355 C360 1.490 . S
C356 H346 0.930 . S
C356 C355 1.400 1_655 S
C356 C359 1.386 . S
H357 C373 0.932 . S
H358 C374 0.931 1_655 S
C359 H347 0.929 . S
C359 C353 1.390 1_655 S
C359 C356 1.386 . S
C360 C355 1.490 . S
C360 C362 1.395 . S
C360 C363 1.403 1_455 S
H361 C367 0.930 . S
C362 H348 0.930 . S
C362 C360 1.395 . S
C362 C365 1.403 1_565 S
C363 C360 1.403 1_655 S
C363 C364 1.524 . S
C363 C367 1.400 1_565 S
C364 H349 0.960 . S
C364 H350 0.960 . S
C364 H351 0.960 . S
C364 C363 1.524 . S
C365 C362 1.403 1_545 S
C365 C366 1.392 . S
C365 C369 1.495 . S
C366 C365 1.392 . S
C366 C367 1.385 1_455 S
C366 C368 1.478 . S
C367 H361 0.930 . S
C367 C363 1.400 1_545 S
C367 C366 1.385 1_655 S
C368 C366 1.478 . S
C368 C370 1.381 . S
C368 C374 1.383 . S
C369 C365 1.495 . S
C369 H375 0.959 . S
C369 H376 0.961 . S
C369 H377 0.960 . S
C370 C368 1.381 . S
C370 C371 1.394 . S
C370 H378 0.930 . S
C371 C370 1.394 . S
C371 C372 1.383 . S
C371 H379 0.929 . S
C372 C371 1.383 . S
C372 C373 1.375 1_455 S
C373 H357 0.932 . S
C373 C372 1.375 1_655 S
C373 C374 1.379 1_655 S
C374 H358 0.931 1_455 S
C374 C368 1.383 . S
C374 C373 1.379 1_455 S
H375 C369 0.959 . S
H376 C369 0.961 . S
H377 C369 0.960 . S
H378 C370 0.930 . S
H379 C371 0.929 . S
H380 C388 0.929 . S
H381 C390 0.930 . S
H382 C392 0.930 . S
H383 C395 0.929 . S
H384 C398 0.930 . S
H385 C400 0.960 . S
H386 C400 0.960 . S
H387 C400 0.960 . S
C388 H380 0.929 . S
C388 C389 1.377 1_655 S
C388 C390 1.384 . S
C389 C388 1.377 1_455 S
C389 C395 1.390 . S
C390 H381 0.930 . S
C390 C388 1.384 . S
C390 C391 1.372 1_655 S
C391 C390 1.372 1_455 S
C391 C392 1.400 . S
C391 C396 1.490 1_554 S
C392 H382 0.930 . S
C392 C391 1.400 . S
C392 C395 1.386 . S
H393 C409 0.930 . S
H394 C410 0.931 . S
C395 H383 0.929 . S
C395 C389 1.390 . S
C395 C392 1.386 . S
C396 C391 1.490 1_556 S
C396 C398 1.395 . S
C396 C399 1.403 1_455 S
H397 C403 0.930 . S
C398 H384 0.930 . S
C398 C396 1.395 . S
C398 C401 1.403 . S
C399 C396 1.403 1_655 S
C399 C400 1.524 . S
C399 C403 1.400 . S
C400 H385 0.960 . S
C400 H386 0.960 . S
C400 H387 0.960 . S
C400 C399 1.524 . S
C401 C398 1.403 . S
C401 C402 1.392 . S
C401 C405 1.495 . S
C402 C401 1.392 . S
C402 C403 1.385 1_455 S
C402 C404 1.478 . S
C403 H397 0.930 . S
C403 C399 1.400 . S
C403 C402 1.385 1_655 S
C404 C402 1.478 . S
C404 C406 1.381 1_455 S
C404 C410 1.383 . S
C405 C401 1.495 . S
C405 H411 0.959 . S
C405 H412 0.961 . S
C405 H413 0.960 . S
C406 C404 1.381 1_655 S
C406 C407 1.394 . S
C406 H414 0.930 . S
C407 C406 1.394 . S
C407 C408 1.383 1_655 S
C407 H415 0.929 . S
C408 C407 1.383 1_455 S
C408 C409 1.377 . S
C409 H393 0.930 . S
C409 C408 1.377 . S
C409 C410 1.379 . S
C410 H394 0.931 . S
C410 C404 1.383 . S
C410 C409 1.379 . S
H411 C405 0.959 . S
H412 C405 0.961 . S
H413 C405 0.960 . S
H414 C406 0.930 . S
H415 C407 0.929 . S
H416 C424 0.929 . S
H417 C426 0.930 . S
H418 C428 0.930 . S
H419 C431 0.929 . S
H420 C434 0.930 . S
H421 C436 0.960 . S
H422 C436 0.960 . S
H423 C436 0.960 . S
C424 H416 0.929 . S
C424 C425 1.377 1_655 S
C424 C426 1.384 . S
C425 C424 1.377 1_455 S
C425 C431 1.390 . S
C426 H417 0.930 . S
C426 C424 1.384 . S
C426 C427 1.372 1_655 S
C427 C426 1.372 1_455 S
C427 C428 1.400 . S
C427 C432 1.491 1_556 S
C428 H418 0.930 . S
C428 C427 1.400 . S
C428 C431 1.386 . S
H429 C445 0.930 . S
H430 C446 0.931 . S
C431 H419 0.929 . S
C431 C425 1.390 . S
C431 C428 1.386 . S
C432 C427 1.491 1_554 S
C432 C434 1.379 1_455 S
C432 C435 1.417 . S
H433 C439 0.930 . S
C434 H420 0.930 . S
C434 C432 1.379 1_655 S
C434 C437 1.403 . S
C435 C432 1.417 . S
C435 C436 1.524 . S
C435 C439 1.400 . S
C436 H421 0.960 . S
C436 H422 0.960 . S
C436 H423 0.960 . S
C436 C435 1.524 . S
C437 C434 1.403 . S
C437 C438 1.392 . S
C437 C441 1.495 . S
C438 C437 1.392 . S
C438 C439 1.385 1_655 S
C438 C440 1.478 . S
C439 H433 0.930 . S
C439 C435 1.400 . S
C439 C438 1.385 1_455 S
C440 C438 1.478 . S
C440 C442 1.381 . S
C440 C446 1.383 1_655 S
C441 C437 1.495 . S
C441 H447 0.959 . S
C441 H448 0.961 . S
C441 H449 0.960 . S
C442 C440 1.381 . S
C442 C443 1.394 . S
C442 H450 0.930 . S
C443 C442 1.394 . S
C443 C444 1.383 1_655 S
C443 H451 0.929 . S
C444 C443 1.383 1_455 S
C444 C445 1.377 . S
C445 H429 0.930 . S
C445 C444 1.377 . S
C445 C446 1.379 . S
C446 H430 0.931 . S
C446 C440 1.383 1_455 S
C446 C445 1.379 . S
H447 C441 0.959 . S
H448 C441 0.961 . S
H449 C441 0.960 . S
H450 C442 0.930 . S
H451 C443 0.929 . S
H452 C460 0.929 . S
H453 C462 0.930 . S
H454 C464 0.930 . S
H455 C467 0.929 . S
H456 C470 0.930 . S
H457 C472 0.960 . S
H458 C472 0.960 . S
H459 C472 0.960 . S
C460 H452 0.929 . S
C460 C461 1.377 . S
C460 C462 1.384 . S
C461 C460 1.377 . S
C461 C467 1.390 . S
C462 H453 0.930 . S
C462 C460 1.384 . S
C462 C463 1.372 . S
C463 C462 1.372 . S
C463 C464 1.400 . S
C463 C468 1.490 . S
C464 H454 0.930 . S
C464 C463 1.400 . S
C464 C467 1.386 . S
H465 C481 0.930 . S
H466 C482 0.931 . S
C467 H455 0.929 . S
C467 C461 1.390 . S
C467 C464 1.386 . S
C468 C463 1.490 . S
C468 C470 1.395 . S
C468 C471 1.403 . S
H469 C475 0.930 . S
C470 H456 0.930 . S
C470 C468 1.395 . S
C470 C473 1.403 . S
C471 C468 1.403 . S
C471 C472 1.524 . S
C471 C475 1.400 . S
C472 H457 0.960 . S
C472 H458 0.960 . S
C472 H459 0.960 . S
C472 C471 1.524 . S
C473 C470 1.403 . S
C473 C474 1.392 . S
C473 C477 1.495 . S
C474 C473 1.392 . S
C474 C475 1.385 . S
C474 C476 1.478 . S
C475 H469 0.930 . S
C475 C471 1.400 . S
C475 C474 1.385 . S
C476 C474 1.478 . S
C476 C478 1.381 . S
C476 C482 1.383 . S
C477 C473 1.495 . S
C477 H483 0.959 . S
C477 H484 0.961 . S
C477 H485 0.960 . S
C478 C476 1.381 . S
C478 C479 1.394 . S
C478 H486 0.930 . S
C479 C478 1.394 . S
C479 C480 1.383 . S
C479 H487 0.929 . S
C480 C479 1.383 . S
C480 C481 1.377 . S
C481 H465 0.930 . S
C481 C480 1.377 . S
C481 C482 1.379 . S
C482 H466 0.931 . S
C482 C476 1.383 . S
C482 C481 1.379 . S
H483 C477 0.959 . S
H484 C477 0.961 . S
H485 C477 0.960 . S
H486 C478 0.930 . S
H487 C479 0.929 . S
H488 C496 0.929 . S
H489 C498 0.930 . S
H490 C500 0.930 . S
H491 C503 0.929 . S
H492 C506 0.930 . S
H493 C508 0.960 . S
H494 C508 0.960 . S
H495 C508 0.960 . S
C496 H488 0.929 . S
C496 C497 1.377 . S
C496 C498 1.384 . S
C497 C496 1.377 . S
C497 C503 1.390 . S
C498 H489 0.930 . S
C498 C496 1.384 . S
C498 C499 1.372 . S
C499 C498 1.372 . S
C499 C500 1.400 . S
C499 C504 1.490 . S
C500 H490 0.930 . S
C500 C499 1.400 . S
C500 C503 1.386 . S
H501 C517 0.930 . S
H502 C518 0.931 . S
C503 H491 0.929 . S
C503 C497 1.390 . S
C503 C500 1.386 . S
C504 C499 1.490 . S
C504 C506 1.395 . S
C504 C507 1.403 . S
H505 C511 0.930 . S
C506 H492 0.930 . S
C506 C504 1.395 . S
C506 C509 1.403 . S
C507 C504 1.403 . S
C507 C508 1.524 . S
C507 C511 1.400 . S
C508 H493 0.960 . S
C508 H494 0.960 . S
C508 H495 0.960 . S
C508 C507 1.524 . S
C509 C506 1.403 . S
C509 C510 1.392 . S
C509 C513 1.495 . S
C510 C509 1.392 . S
C510 C511 1.385 . S
C510 C512 1.478 . S
C511 H505 0.930 . S
C511 C507 1.400 . S
C511 C510 1.385 . S
C512 C510 1.478 . S
C512 C514 1.381 . S
C512 C518 1.383 . S
C513 C509 1.495 . S
C513 H519 0.959 . S
C513 H520 0.961 . S
C513 H521 0.960 . S
C514 C512 1.381 . S
C514 C515 1.394 . S
C514 H522 0.930 . S
C515 C514 1.394 . S
C515 C516 1.383 . S
C515 H523 0.929 . S
C516 C515 1.383 . S
C516 C517 1.377 . S
C517 H501 0.930 . S
C517 C516 1.377 . S
C517 C518 1.379 . S
C518 H502 0.931 . S
C518 C512 1.383 . S
C518 C517 1.379 . S
H519 C513 0.959 . S
H520 C513 0.961 . S
H521 C513 0.960 . S
H522 C514 0.930 . S
H523 C515 0.929 . S
C101 C21 1.602 . S
C120 C44 1.588 . S
C137 C64 1.637 . S
C156 C43 1.640 . S
C173 C89 1.636 . S
C192 C65 1.636 . S
C209 C20 1.581 . S
C228 C90 1.584 . S
C245 C87 1.639 . S
C264 C19 1.653 . S
C281 C67 1.582 . S
C300 C42 1.587 . S
C317 C66 1.561 . S
C336 C88 1.562 . S
C353 C41 1.657 1_455 S
C372 C18 1.667 . S
C389 C17 1.229 . S
C408 C16 1.224 . S
C425 C40 1.228 . S
C444 C39 1.228 . S
C461 C63 1.228 . S
C480 C62 1.229 . S
C497 C85 1.229 . S
C516 C86 1.221 . S
