# Generated by pormake.
# Topology snp, (6)-cn, num edge types: 1
# Building blocks:
#     Node 0, Type 0, BuildingBlock: CUWYAW_clean_sbu_0, # of connection points: 6
#     Node 1, Type 0, BuildingBlock: CUWYAW_clean_sbu_0, # of connection points: 6
#     Node 2, Type 0, BuildingBlock: CUWYAW_clean_sbu_0, # of connection points: 6
#     Node 3, Type 0, BuildingBlock: CUWYAW_clean_sbu_0, # of connection points: 6
#     Edge 4, Type (0, 0), BuildingBlock: TEMPAE_clean_linker_10, # of connection points: 2
#     Edge 5, Type (0, 0), BuildingBlock: TEMPAE_clean_linker_10, # of connection points: 2
#     Edge 6, Type (0, 0), BuildingBlock: TEMPAE_clean_linker_10, # of connection points: 2
#     Edge 7, Type (0, 0), BuildingBlock: TEMPAE_clean_linker_10, # of connection points: 2
#     Edge 8, Type (0, 0), BuildingBlock: TEMPAE_clean_linker_10, # of connection points: 2
#     Edge 9, Type (0, 0), BuildingBlock: TEMPAE_clean_linker_10, # of connection points: 2
#     Edge 10, Type (0, 0), BuildingBlock: TEMPAE_clean_linker_10, # of connection points: 2
#     Edge 11, Type (0, 0), BuildingBlock: TEMPAE_clean_linker_10, # of connection points: 2
#     Edge 12, Type (0, 0), BuildingBlock: TEMPAE_clean_linker_10, # of connection points: 2
#     Edge 13, Type (0, 0), BuildingBlock: TEMPAE_clean_linker_10, # of connection points: 2
#     Edge 14, Type (0, 0), BuildingBlock: TEMPAE_clean_linker_10, # of connection points: 2
#     Edge 15, Type (0, 0), BuildingBlock: TEMPAE_clean_linker_10, # of connection points: 2
# Relax obj value: 0.346
# Max RMSD: 0.226
# Mean RMSD: 0.209
data_MOF--net-snp--node1-CUWYAW_clean_sbu_0--edge1-TEMPAE_clean_linker_10
_symmetry_space_group_name_H-M    P1
_symmetry_Int_Tables_number       1
_symmetry_cell_setting            triclinic
loop_
_symmetry_equiv_pos_as_xyz
'x, y, z'
_cell_length_a     25.347984
_cell_length_b     25.339763
_cell_length_c     34.77568
_cell_angle_alpha  93.745586
_cell_angle_beta   79.310995
_cell_angle_gamma 124.81087
loop_
_atom_site_label
_atom_site_type_symbol
_atom_site_fract_x
_atom_site_fract_y
_atom_site_fract_z
_atom_type_partial_charge
C0 C 0.21183 0.92613 0.19739 0.0
Eu1 Eu 0.27027 0.04468 0.21509 0.0
C2 C 0.20295 0.90218 0.15836 0.0
C3 C 0.17557 0.92081 0.13546 0.0
C4 C 0.18064 0.91187 0.09574 0.0
C5 C 0.21174 0.88277 0.07851 0.0
C6 C 0.23879 0.86345 0.10105 0.0
C7 C 0.23423 0.87302 0.14106 0.0
C8 C 0.21747 0.11194 0.23896 0.0
C9 C 0.32258 0.1524 0.14768 0.0
C10 C 0.41944 0.29137 0.25203 0.0
Eu11 Eu 0.36149 0.17141 0.23734 0.0
C12 C 0.41289 0.3263 0.28456 0.0
C13 C 0.47003 0.38274 0.29243 0.0
C14 C 0.47391 0.40199 0.33058 0.0
C15 C 0.42038 0.36486 0.36057 0.0
C16 C 0.36054 0.31292 0.35171 0.0
C17 C 0.35681 0.29348 0.31359 0.0
C18 C 0.43666 0.12868 0.20472 0.0
C19 C 0.27307 0.05582 0.30938 0.0
O20 O 0.27291 0.9614 0.20169 0.0
O21 O 0.18022 0.9516 0.21188 0.0
O22 O 0.21128 0.08151 0.20675 0.0
O23 O 0.25538 0.10858 0.25567 0.0
O24 O 0.29733 0.09057 0.15354 0.0
O25 O 0.34539 0.19107 0.17698 0.0
O26 O 0.37176 0.26202 0.23202 0.0
O27 O 0.43771 0.25544 0.26109 0.0
O28 O 0.45892 0.18364 0.21971 0.0
O29 O 0.37565 0.09783 0.2085 0.0
O30 O 0.31573 0.11964 0.30111 0.0
O31 O 0.25244 0.01789 0.27989 0.0
H32 H 0.15218 0.94434 0.14787 0.0
H33 H 0.1606 0.92806 0.07835 0.0
H34 H 0.26315 0.84113 0.08775 0.0
H35 H 0.25727 0.86013 0.15818 0.0
H36 H 0.51374 0.40754 0.2701 0.0
H37 H 0.52022 0.44246 0.33706 0.0
H38 H 0.31823 0.28493 0.37459 0.0
H39 H 0.31265 0.24916 0.30768 0.0
C40 C 0.25296 0.36228 0.77746 0.0
Eu41 Eu 0.22471 0.38774 0.71435 0.0
C42 C 0.26432 0.34308 0.81468 0.0
C43 C 0.32159 0.38348 0.83085 0.0
C44 C 0.32977 0.36536 0.86622 0.0
C45 C 0.28087 0.30599 0.88751 0.0
C46 C 0.22385 0.26572 0.87092 0.0
C47 C 0.21588 0.2837 0.83563 0.0
C48 C 0.19639 0.46802 0.69236 0.0
C49 C 0.06507 0.33123 0.72777 0.0
C50 C 0.0873 0.30012 0.57573 0.0
Eu51 Eu 0.12845 0.33612 0.64439 0.0
C52 C 0.06101 0.27615 0.5369 0.0
C53 C 0.00589 0.21266 0.53429 0.0
C54 C -0.01626 0.18821 0.49818 0.0
C55 C 0.01634 0.22516 0.46221 0.0
C56 C 0.07173 0.28875 0.46477 0.0
C57 C 0.09305 0.31374 0.50114 0.0
C58 C 0.14118 0.2548 0.68345 0.0
C59 C 0.29115 0.40651 0.62588 0.0
O60 O 0.20247 0.32048 0.76112 0.0
O61 O 0.29092 0.41908 0.75825 0.0
O62 O 0.21988 0.47431 0.72416 0.0
O63 O 0.19752 0.4256 0.67205 0.0
O64 O 0.11763 0.34076 0.73849 0.0
O65 O 0.06224 0.34264 0.69196 0.0
O66 O 0.12322 0.3607 0.58484 0.0
O67 O 0.0713 0.26047 0.60478 0.0
O68 O 0.08611 0.24212 0.67705 0.0
O69 O 0.18371 0.31191 0.67294 0.0
O70 O 0.23233 0.38092 0.61755 0.0
O71 O 0.30333 0.41142 0.66198 0.0
H72 H 0.3603 0.42971 0.81629 0.0
H73 H 0.37442 0.39898 0.87722 0.0
H74 H 0.18485 0.21922 0.88495 0.0
H75 H 0.17081 0.2506 0.82486 0.0
H76 H -0.02037 0.18109 0.56043 0.0
H77 H 0.94153 0.13909 0.49841 0.0
H78 H 0.09878 0.31985 0.43848 0.0
H79 H 0.13597 0.36244 0.501 0.0
C80 C 0.9081 0.16364 0.07467 0.0
Eu81 Eu 0.87734 0.05452 0.09984 0.0
C82 C 0.88991 0.17953 1.04216 0.0
C83 C 0.93873 0.21787 1.0105 0.0
C84 C 0.92166 0.22495 0.97657 0.0
C85 C 0.85556 0.1943 0.9742 0.0
C86 C 0.8066 0.15733 1.00605 0.0
C87 C 0.82365 0.15019 1.04012 0.0
C88 C 0.94603 0.00668 0.1047 0.0
C89 C 0.83393 0.94234 1.03342 0.0
C90 C 0.72577 0.80011 0.15682 0.0
Eu91 Eu 0.79178 0.91802 0.12877 0.0
C92 C 0.71991 0.77097 0.1936 0.0
C93 C 0.66332 0.74685 0.22215 0.0
C94 C 0.66203 0.7303 0.25981 0.0
C95 C 0.71737 0.7377 0.26913 0.0
C96 C 0.77214 0.75763 0.23979 0.0
C97 C 0.77321 0.77355 0.20221 0.0
C98 C 0.72921 0.97423 0.12043 0.0
C99 C 0.86904 0.03157 0.19278 0.0
O100 O 0.86021 0.12913 0.10374 0.0
O101 O 0.94638 0.14389 0.06481 0.0
O102 O 0.96807 0.06672 0.11034 0.0
O103 O 0.89092 0.9763 0.09492 0.0
O104 O 0.85246 0.0028 1.04042 0.0
O105 O 0.81318 0.90167 0.06359 0.0
O106 O 0.78233 0.82782 0.13339 0.0
O107 O 0.70179 0.83443 0.1598 0.0
O108 O 0.71183 0.91845 0.10737 0.0
O109 O 0.77894 -0.00296 0.13543 0.0
O110 O 0.83407 0.96851 0.18586 0.0
O111 O 0.88972 0.07422 0.16381 0.0
H112 H -0.0102 0.23993 1.01141 0.0
H113 H 0.95997 0.25264 0.95166 0.0
H114 H 0.75555 0.13326 1.00427 0.0
H115 H 0.78484 0.11985 0.06415 0.0
H116 H 0.62132 0.74367 0.21585 0.0
H117 H 0.61868 0.71367 0.28184 0.0
H118 H 0.81566 0.76421 0.24625 0.0
H119 H 0.81728 0.79117 0.18067 0.0
C120 C 0.17079 0.89852 0.68682 0.0
Eu121 Eu 0.05086 0.84251 0.67979 0.0
C122 C 0.19189 0.88842 0.72003 0.0
C123 C 0.24506 0.94048 0.73464 0.0
C124 C 0.2546 0.93465 0.77185 0.0
C125 C 0.21079 0.87679 0.79455 0.0
C126 C 0.16003 0.8235 0.77884 0.0
C127 C 0.1505 0.82932 0.74181 0.0
C128 C -0.02863 0.87807 0.66992 0.0
C129 C 0.93828 0.79986 0.75625 0.0
C130 C 0.79319 0.67779 0.65326 0.0
Eu131 Eu 0.90955 0.73699 0.66761 0.0
C132 C 0.77091 0.68348 0.61911 0.0
C133 C 0.74272 0.63038 0.59573 0.0
C134 C 0.73743 0.6381 0.5579 0.0
C135 C 0.75797 0.69864 0.5434 0.0
C136 C 0.78298 0.75118 0.56758 0.0
C137 C 0.79011 0.74384 0.60514 0.0
C138 C 0.96467 0.67775 0.68444 0.0
C139 C 0.03206 0.82003 0.58783 0.0
O140 O 0.14117 0.84828 0.66576 0.0
O141 O 0.1399 0.92633 0.69537 0.0
O142 O 0.01733 0.90936 0.69085 0.0
O143 O -0.02318 0.83651 0.65282 0.0
O144 O 0.00101 0.82351 0.74383 0.0
O145 O 0.89504 0.76713 0.73215 0.0
O146 O 0.81687 0.72688 0.676 0.0
O147 O 0.82894 0.65497 0.64524 0.0
O148 O 0.90541 0.64758 0.67876 0.0
O149 O -0.01012 0.73724 0.68275 0.0
O150 O 0.96725 0.77778 0.60179 0.0
O151 O 0.07323 0.84885 0.61281 0.0
H152 H 0.27651 -0.01346 0.7184 0.0
H153 H 0.29424 0.97613 0.78366 0.0
H154 H 0.12512 0.7788 0.79614 0.0
H155 H 0.10803 0.78893 0.73142 0.0
H156 H 0.72919 0.58387 0.60574 0.0
H157 H 0.71953 0.59708 0.53961 0.0
H158 H 0.7983 0.79815 0.55724 0.0
H159 H 0.8133 0.78592 0.62238 0.0
C160 C 0.93568 0.93787 0.15434 0.0
C161 C -0.02744 0.97695 0.12047 0.0
C162 C 0.9642 0.94986 0.18734 0.0
C163 C 0.03226 -0.00272 0.18402 0.0
C164 C 0.07136 0.02313 0.14598 0.0
C165 C 0.04011 0.01164 0.11433 0.0
C166 C 0.91947 0.91679 0.22577 0.0
C167 C 0.14516 0.06828 0.13828 0.0
C168 C 0.13595 0.133 0.24368 0.0
C169 C 0.15776 0.10268 0.26136 0.0
C170 C 0.08505 0.09603 0.22256 0.0
C171 C 0.05973 0.02961 0.21926 0.0
C172 C 0.06891 -0.00117 0.24753 0.0
C173 C 0.11187 0.03771 0.27312 0.0
C174 C 0.06677 0.12983 0.19938 0.0
C175 C 0.04147 0.92804 0.2483 0.0
H176 H 0.88322 0.90767 0.15758 0.0
H177 H 0.06809 0.03843 0.08655 0.0
H178 H 0.91673 0.87243 0.23046 0.0
H179 H 0.93651 0.94761 0.2509 0.0
H180 H 0.86891 0.9013 0.22532 0.0
H181 H 0.16476 0.09367 0.10891 0.0
H182 H 0.16394 0.1057 0.15986 0.0
H183 H 0.16601 0.04029 0.13931 0.0
H184 H 0.16585 0.18504 0.23976 0.0
H185 H 0.12383 0.01566 0.29251 0.0
H186 H 0.01839 0.09586 0.19081 0.0
H187 H 0.10407 0.15404 0.17244 0.0
H188 H 0.06589 0.16778 0.21677 0.0
H189 H -0.00535 0.90186 0.2694 0.0
H190 H 0.07418 0.91883 0.25911 0.0
H191 H 0.03331 0.90771 0.21905 0.0
C192 C 0.94537 0.95501 0.67194 0.0
C193 C 0.9507 0.91017 0.64992 0.0
C194 C -0.00282 0.01957 0.66478 0.0
C195 C 0.05233 0.03505 0.63539 0.0
C196 C 0.0456 -0.00996 0.60714 0.0
C197 C -0.01383 0.92975 0.61175 0.0
C198 C -0.00521 0.06816 0.69106 0.0
C199 C 0.10168 0.00058 0.57631 0.0
C200 C 0.15817 0.20632 0.62551 0.0
C201 C 0.15746 0.21215 0.66586 0.0
C202 C 0.13325 0.14638 0.61031 0.0
C203 C 0.1154 0.09584 0.63606 0.0
C204 C 0.13969 0.10982 0.67165 0.0
C205 C 0.15598 0.16774 0.68815 0.0
C206 C 0.11466 0.13579 0.57018 0.0
C207 C 0.13471 0.05936 0.69559 0.0
H208 H 0.90965 0.93952 0.69883 0.0
H209 H -0.01932 0.89342 0.5917 0.0
H210 H 0.01883 0.07501 0.71631 0.0
H211 H 0.01958 0.11487 0.67474 0.0
H212 H 0.94354 0.05138 0.70314 0.0
H213 H 0.09065 -0.00022 0.54679 0.0
H214 H 0.14935 0.04585 0.57875 0.0
H215 H 0.10742 0.96094 0.579 0.0
H216 H 0.16539 0.24454 0.60797 0.0
H217 H 0.16028 0.17491 0.7188 0.0
H218 H 0.06285 0.09515 0.57116 0.0
H219 H 0.14577 0.12454 0.5498 0.0
H220 H 0.12179 0.17907 0.55758 0.0
H221 H 0.08807 0.03431 0.71695 0.0
H222 H 0.17524 0.08189 0.71245 0.0
H223 H 0.13656 0.0236 0.67631 0.0
C224 C 0.67197 0.00872 0.17051 0.0
C225 C 0.68381 -0.00607 0.13166 0.0
C226 C 0.6298 0.02843 0.18207 0.0
C227 C 0.60055 0.03586 0.15376 0.0
C228 C 0.61325 0.02182 0.11431 0.0
C229 C 0.6537 -0.00029 0.1039 0.0
C230 C 0.61659 0.04124 0.22459 0.0
C231 C 0.58562 0.03195 0.08291 0.0
C232 C 0.44961 0.03825 0.18777 0.0
C233 C 0.47731 0.10433 0.18962 0.0
C234 C 0.48906 0.01526 0.17623 0.0
C235 C 0.55775 0.05948 0.16533 0.0
C236 C 0.58568 0.1264 0.16629 0.0
C237 C 0.54525 0.14789 0.17891 0.0
C238 C 0.45739 0.94361 0.17679 0.0
C239 C 0.6584 0.17547 0.15453 0.0
H240 H 0.6951 0.00395 0.19208 0.0
H241 H 0.66355 -0.01101 0.0738 0.0
H242 H 0.63536 0.0927 0.22751 0.0
H243 H 0.56318 0.01259 0.23584 0.0
H244 H 0.63983 0.02928 0.24332 0.0
H245 H 0.59949 0.01826 0.05374 0.0
H246 H 0.53157 0.00341 0.09067 0.0
H247 H 0.60366 0.08338 0.08079 0.0
H248 H 0.39732 0.00442 0.19656 0.0
H249 H 0.56696 0.1991 0.18038 0.0
H250 H 0.47682 0.93045 0.19766 0.0
H251 H 0.4695 0.92932 0.14743 0.0
H252 H 0.40338 0.91559 0.1855 0.0
H253 H 0.68389 0.17442 0.17686 0.0
H254 H 0.67123 0.22511 0.15175 0.0
H255 H 0.67728 0.16392 0.12622 0.0
C256 C 0.14395 0.49439 0.64998 0.0
C257 C 0.16205 0.49668 0.68608 0.0
C258 C 0.1098 0.52104 0.64493 0.0
C259 C 0.09344 0.54978 0.67692 0.0
C260 C 0.11059 0.55067 0.71352 0.0
C261 C 0.1453 0.52474 0.71748 0.0
C262 C 0.09188 0.51899 0.60555 0.0
C263 C 0.09193 0.57877 0.74873 0.0
C264 C 0.06616 0.68007 0.67 0.0
C265 C -0.00143 0.64584 0.68212 0.0
C266 C 0.0974 0.6483 0.66508 0.0
C267 C 0.05993 0.5809 0.67291 0.0
C268 C -0.00881 0.54569 0.68363 0.0
C269 C 0.96132 0.57869 0.68795 0.0
C270 C 0.17076 0.68713 0.65295 0.0
C271 C 0.94947 0.4736 0.69172 0.0
H272 H 0.15691 0.47234 0.62576 0.0
H273 H 0.15852 0.52559 0.74555 0.0
H274 H 0.03856 0.4957 0.60879 0.0
H275 H 0.11666 0.56871 0.5933 0.0
H276 H 0.1058 0.49243 0.58425 0.0
H277 H 0.10832 0.57473 0.77521 0.0
H278 H 0.11373 0.63033 0.74229 0.0
H279 H 0.03808 0.55354 0.75547 0.0
H280 H 0.0945 0.73137 0.66391 0.0
H281 H 0.90862 0.55188 0.69629 0.0
H282 H 0.18469 0.66487 0.62827 0.0
H283 H 0.19281 0.68739 0.67777 0.0
H284 H 0.1919 0.73773 0.64397 0.0
H285 H 0.95531 0.44968 0.66502 0.0
H286 H 0.8968 0.45382 0.70094 0.0
H287 H 0.96546 0.46088 0.71505 0.0
C288 C 0.39469 0.42158 0.58899 0.0
C289 C 0.33998 0.42307 0.59053 0.0
C290 C 0.42664 0.41746 0.55243 0.0
C291 C 0.39695 0.40568 0.51927 0.0
C292 C 0.34102 0.40581 0.52164 0.0
C293 C 0.3203 0.42443 0.55564 0.0
C294 C 0.49048 0.42444 0.54909 0.0
C295 C 0.30187 0.38535 0.48885 0.0
C296 C 0.45607 0.44027 0.41348 0.0
C297 C 0.42823 0.37768 0.40121 0.0
C298 C 0.45492 0.45194 0.4531 0.0
C299 C 0.42564 0.3994 0.48049 0.0
C300 C 0.40305 0.33685 0.46787 0.0
C301 C 0.40494 0.32678 0.42794 0.0
C302 C 0.47345 0.51781 0.4659 0.0
C303 C 0.36665 0.27896 0.4963 0.0
H304 H 0.41121 0.42215 0.6157 0.0
H305 H 0.28114 0.43046 0.55588 0.0
H306 H 0.48462 0.37891 0.53991 0.0
H307 H 0.52758 0.46224 0.52609 0.0
H308 H 0.50903 0.43748 0.57715 0.0
H309 H 0.25369 0.37793 0.49884 0.0
H310 H 0.32887 0.42225 0.46433 0.0
H311 H 0.29271 0.33954 0.47722 0.0
H312 H 0.47357 0.47914 0.39246 0.0
H313 H 0.38446 0.27846 0.41786 0.0
H314 H 0.5011 0.53255 0.49031 0.0
H315 H 0.42893 0.51688 0.47673 0.0
H316 H 0.50187 0.55452 0.44131 0.0
H317 H 0.389 0.2902 0.5228 0.0
H318 H 0.36501 0.2373 0.48259 0.0
H319 H 0.31555 0.26433 0.5059 0.0
C320 C 0.00565 0.25375 0.78324 0.0
C321 C 0.00479 0.29074 0.75553 0.0
C322 C 0.95681 0.2249 0.81561 0.0
C323 C 0.90134 0.22635 0.81773 0.0
C324 C 0.89425 0.25254 0.78588 0.0
C325 C 0.94776 0.28717 0.75531 0.0
C326 C 0.96931 0.19888 0.84839 0.0
C327 C 0.83205 0.24733 0.78556 0.0
C328 C 0.81114 0.14466 0.91454 0.0
C329 C 0.83949 0.19883 0.93707 0.0
C330 C 0.82076 0.15236 0.87385 0.0
C331 C 0.86122 0.21547 0.85637 0.0
C332 C 0.88203 0.26965 0.87982 0.0
C333 C 0.86915 0.26009 0.92029 0.0
C334 C 0.79815 0.09391 0.8496 0.0
C335 C 0.92954 0.3381 0.8628 0.0
H336 H 0.04724 0.25102 0.78143 0.0
H337 H 0.94569 0.31268 0.73242 0.0
H338 H 0.94979 0.20631 0.87786 0.0
H339 H 0.94662 0.14668 0.84529 0.0
H340 H 0.02244 0.22208 0.84703 0.0
H341 H 0.82753 0.25379 0.75533 0.0
H342 H 0.78893 0.19979 0.79851 0.0
H343 H 0.83141 0.2849 0.80337 0.0
H344 H 0.78856 0.09726 0.92796 0.0
H345 H 0.89065 0.3013 0.93845 0.0
H346 H 0.83484 0.08226 0.84519 0.0
H347 H 0.79188 0.10241 0.82037 0.0
H348 H 0.75146 0.05127 0.86491 0.0
H349 H -0.02224 0.34663 0.85091 0.0
H350 H 0.93685 0.37409 0.88508 0.0
H351 H 0.91246 0.3469 0.83849 0.0
C352 C 0.80365 0.76214 0.47975 0.0
C353 C 0.75371 0.70658 0.50294 0.0
C354 C 0.79937 0.76944 0.44124 0.0
C355 C 0.74492 0.71923 0.42585 0.0
C356 C 0.69576 0.66245 0.44858 0.0
C357 C 0.69986 0.65742 0.48727 0.0
C358 C 0.85273 0.83038 0.41707 0.0
C359 C 0.63885 0.60717 0.43196 0.0
C360 C 0.69699 0.75404 0.34008 0.0
C361 C 0.7206 0.72947 0.30974 0.0
C362 C 0.70493 0.75135 0.37835 0.0
C363 C 0.73881 0.72523 0.38572 0.0
C364 C 0.76277 0.70048 0.35534 0.0
C365 C 0.75222 0.70181 0.31768 0.0
C366 C 0.67702 0.77608 0.41082 0.0
C367 C 0.79963 0.67282 0.36258 0.0
H368 H 0.84619 0.79955 0.49153 0.0
H369 H 0.6607 0.61488 0.50527 0.0
H370 H 0.87211 0.81863 0.38904 0.0
H371 H 0.83237 0.85645 0.40958 0.0
H372 H 0.89381 0.86308 0.43272 0.0
H373 H 0.6062 0.56549 0.45335 0.0
H374 H 0.61103 0.62383 0.42252 0.0
H375 H 0.6564 0.59055 0.40559 0.0
H376 H 0.67354 0.7765 0.33383 0.0
H377 H 0.76948 0.68187 0.2943 0.0
H378 H 0.71658 0.81515 0.42536 0.0
H379 H 0.64165 0.7369 0.43344 0.0
H380 H 0.65175 0.79473 0.39999 0.0
H381 H 0.84345 0.7097 0.37493 0.0
H382 H 0.81551 0.65617 0.33541 0.0
H383 H 0.7687 0.63161 0.38442 0.0
C384 C 0.21761 0.92244 0.8598 0.0
C385 C 0.21337 0.87396 0.83594 0.0
C386 C 0.21718 0.91946 0.89969 0.0
C387 C 0.21236 0.86665 0.91556 0.0
C388 C 0.20686 0.81695 0.89186 0.0
C389 C 0.20747 0.82123 0.85199 0.0
C390 C 0.2217 0.97253 0.92478 0.0
C391 C 0.20045 0.75964 0.90864 0.0
C392 C 0.27175 0.89738 1.01097 0.0
C393 C 0.21258 0.87059 1.03714 0.0
C394 C 0.27224 0.89394 0.97069 0.0
C395 C 0.21224 0.86331 0.95729 0.0
C396 C 0.15234 0.83377 0.98385 0.0
C397 C 0.15335 0.83755 1.02371 0.0
C398 C 0.33668 0.92579 0.94254 0.0
C399 C 0.08763 0.8018 0.97038 0.0
H400 H 0.22005 0.96209 0.84735 0.0
H401 H 0.20352 0.78358 0.83333 0.0
H402 H 0.17999 0.95204 0.94971 0.0
H403 H 0.26704 -0.00224 0.93734 0.0
H404 H 0.22197 0.00852 0.90797 0.0
H405 H 0.1931 0.72348 0.88649 0.0
H406 H 0.24513 0.77594 0.92028 0.0
H407 H 0.15871 0.73593 0.93352 0.0
H408 H 0.31736 0.92342 1.02192 0.0
H409 H 0.10792 0.81698 1.04455 0.0
H410 H 0.34532 0.96708 0.92629 0.0
H411 H 0.3354 0.89146 0.92057 0.0
H412 H 0.37843 0.94361 0.95774 0.0
H413 H 0.0848 0.8389 0.95755 0.0
H414 H 0.04548 0.77517 0.99484 0.0
H415 H 0.08301 0.76785 0.94727 0.0
C416 C 0.87954 0.89073 0.98546 0.0
C417 C 0.84665 0.92143 0.99216 0.0
C418 C 0.89215 0.86964 0.94792 0.0
C419 C 0.86975 0.8767 0.9152 0.0
C420 C 0.83494 0.9062 0.92205 0.0
C421 C 0.82491 0.92892 0.95974 0.0
C422 C 0.9305 0.84028 0.94321 0.0
C423 C 0.80724 0.91308 0.88945 0.0
C424 C 0.96007 0.87993 0.81024 0.0
C425 C 0.91859 0.81771 0.79697 0.0
C426 C 0.94401 0.89962 0.84742 0.0
C427 C 0.88537 0.85607 0.87394 0.0
C428 C 0.84333 0.79278 0.86087 0.0
C429 C 0.85966 0.77496 0.82279 0.0
C430 C -0.00951 0.96779 0.85838 0.0
C431 C 0.7815 0.74284 0.8876 0.0
H432 H 0.89685 0.88416 1.00978 0.0
H433 H 0.79849 0.95121 0.96404 0.0
H434 H 0.90223 0.79185 0.9313 0.0
H435 H -0.02345 0.87036 0.92186 0.0
H436 H 0.94292 0.83585 0.9713 0.0
H437 H 0.7825 0.93778 0.8986 0.0
H438 H 0.8467 0.94052 0.86389 0.0
H439 H 0.77141 0.86472 0.87965 0.0
H440 H 0.00535 0.91431 0.79096 0.0
H441 H 0.82682 0.72671 0.81366 0.0
H442 H 0.01021 0.96756 0.88427 0.0
H443 H 0.9642 -0.00891 0.86668 0.0
H444 H 0.03202 -0.00267 0.83412 0.0
H445 H 0.79428 0.72798 0.91172 0.0
H446 H 0.74943 0.69936 0.87195 0.0
H447 H 0.7538 0.76301 0.90111 0.0
C448 C 0.18998 0.95664 0.35595 0.0
C449 C 0.23967 0.02362 0.35121 0.0
C450 C 0.1556 0.92344 0.39325 0.0
C451 C 0.169 0.9566 0.42857 0.0
C452 C 0.21857 0.02456 0.42426 0.0
C453 C 0.253 0.0567 0.38624 0.0
C454 C 0.10427 0.85188 0.3946 0.0
C455 C 0.23583 0.06412 0.45992 0.0
C456 C 0.03262 0.86365 0.52184 0.0
C457 C 0.0613 0.84579 0.54464 0.0
C458 C 0.06764 0.90202 0.48583 0.0
C459 C 0.13202 0.91957 0.46923 0.0
C460 C 0.15932 0.8979 0.49096 0.0
C461 C 0.12524 0.86396 0.52823 0.0
C462 C 0.03556 0.92526 0.46631 0.0
C463 C 0.22452 0.90921 0.47436 0.0
H464 H 0.17716 0.9291 0.33002 0.0
H465 H 0.29022 0.10806 0.38408 0.0
H466 H 0.11033 0.82662 0.4165 0.0
H467 H 0.05513 0.8423 0.40363 0.0
H468 H 0.10601 0.83097 0.3657 0.0
H469 H 0.26069 0.11608 0.45244 0.0
H470 H 0.19166 0.04756 0.48263 0.0
H471 H 0.2696 0.05884 0.47275 0.0
H472 H -0.0163 0.85074 0.53305 0.0
H473 H 0.14907 0.85125 0.54476 0.0
H474 H 0.01019 0.89136 0.44387 0.0
H475 H 0.07204 0.9737 0.45164 0.0
H476 H -0.00142 0.92748 0.48779 0.0
H477 H 0.22076 0.88332 0.44688 0.0
H478 H 0.24104 0.89224 0.49502 0.0
H479 H 0.26227 0.96106 0.46676 0.0
C480 C 0.35022 0.30659 0.93452 0.0
C481 C 0.28862 0.28603 0.92637 0.0
C482 C 0.35756 0.28732 0.9699 0.0
C483 C 0.30226 0.24565 0.9992 0.0
C484 C 0.24014 0.22576 0.99157 0.0
C485 C 0.23418 0.24559 0.95593 0.0
C486 C 0.4252 0.31064 0.97529 0.0
C487 C 0.17932 0.18403 1.02168 0.0
C488 C 0.30677 0.14117 0.07544 0.0
C489 C 0.31975 0.17754 0.10928 0.0
C490 C 0.30221 0.16291 1.03999 0.0
C491 C 0.30893 0.22252 1.0373 0.0
C492 C 0.32122 0.25915 0.07155 0.0
C493 C 0.32724 0.23701 0.10633 0.0
C494 C 0.29045 0.12169 1.005 0.0
C495 C 0.32828 0.32244 0.07162 0.0
H496 H 0.39339 0.33706 0.91273 0.0
H497 H 0.18608 0.22982 0.95165 0.0
H498 H 0.43301 0.32738 1.00528 0.0
H499 H 0.43075 0.27013 0.97144 0.0
H500 H 0.46379 0.35051 0.95382 0.0
H501 H 0.13439 0.17125 1.01168 0.0
H502 H 0.17412 0.139 1.02863 0.0
H503 H 0.18342 0.20967 1.04928 0.0
H504 H 0.30038 0.09517 0.07652 0.0
H505 H 0.33669 0.26621 0.1317 0.0
H506 H 0.33027 0.14989 0.97971 0.0
H507 H 0.24405 0.10708 0.99635 0.0
H508 H 0.2879 0.07764 1.01086 0.0
H509 H 0.37641 0.35952 0.05417 0.0
H510 H 0.32518 0.33932 0.10172 0.0
H511 H 0.29004 0.31846 0.05788 0.0
C512 C 0.87505 0.01874 0.26569 0.0
C513 C 0.88681 0.05752 0.23349 0.0
C514 C 0.89617 0.04473 0.30212 0.0
C515 C 0.92646 0.11177 0.30895 0.0
C516 C 0.93414 0.15026 0.27729 0.0
C517 C 0.91645 0.12358 0.24052 0.0
C518 C 0.88504 -0.00128 0.33307 0.0
C519 C 0.95971 0.22027 0.28148 0.0
C520 C 0.92633 0.15673 0.41981 0.0
C521 C -0.00673 0.19716 0.42274 0.0
C522 C 0.90426 0.13036 0.38371 0.0
C523 C 0.94932 0.14124 0.3485 0.0
C524 C 0.01697 0.18144 0.35144 0.0
C525 C 0.03772 0.20937 0.38756 0.0
C526 C 0.83181 0.09066 0.38386 0.0
C527 C 0.06815 0.19363 0.3164 0.0
H528 H 0.84932 0.96745 0.26265 0.0
H529 H 0.92502 0.15534 0.21717 0.0
H530 H 0.91679 0.02335 0.35531 0.0
H531 H 0.83321 0.97161 0.34802 0.0
H532 H 0.89377 0.96285 0.31946 0.0
H533 H 0.92796 0.2303 0.27008 0.0
H534 H 0.9623 0.23525 0.31212 0.0
H535 H 0.0091 0.25054 0.2632 0.0
H536 H 0.89038 0.14643 0.44589 0.0
H537 H 0.08949 0.23954 0.38843 0.0
H538 H 0.81106 0.03949 0.39069 0.0
H539 H 0.82082 0.09429 0.35509 0.0
H540 H 0.80669 0.1057 0.40677 0.0
H541 H 0.05455 0.14734 0.30326 0.0
H542 H 0.11743 0.21791 0.32404 0.0
H543 H 0.07077 0.22438 0.29386 0.0
loop_
_geom_bond_atom_site_label_1
_geom_bond_atom_site_label_2
_geom_bond_distance
_geom_bond_site_symmetry_2
_ccdc_geom_bond_type
C0 Eu1 2.835 . S
C0 C2 1.500 . S
C0 O20 1.257 . S
C0 O21 1.260 . S
Eu1 C0 2.835 . S
Eu1 O20 2.473 . S
Eu1 O21 2.480 . S
Eu1 O22 2.430 . S
Eu1 O23 2.670 . S
Eu1 O24 2.394 . S
Eu1 O29 2.355 . S
Eu1 O31 2.374 . S
C2 C0 1.500 . S
C2 C3 1.377 1_545 S
C2 C7 1.377 . S
C3 C2 1.377 1_565 S
C3 C4 1.395 1_554 S
C3 H32 0.931 . S
C4 C3 1.395 1_556 S
C4 C5 1.383 . S
C4 H33 0.931 . S
C5 C4 1.383 . S
C5 C6 1.394 . S
C6 C5 1.394 . S
C6 C7 1.378 1_566 S
C6 H34 0.928 . S
C7 C2 1.377 . S
C7 C6 1.378 1_544 S
C7 H35 0.931 . S
C8 O22 1.259 . S
C8 O23 1.270 . S
C9 O24 1.251 . S
C9 O25 1.251 . S
C10 Eu11 2.835 . S
C10 C12 1.500 . S
C10 O26 1.257 . S
C10 O27 1.260 . S
Eu11 C10 2.835 . S
Eu11 O23 2.355 . S
Eu11 O25 2.374 . S
Eu11 O26 2.473 . S
Eu11 O27 2.480 . S
Eu11 O28 2.430 . S
Eu11 O29 2.670 . S
Eu11 O30 2.394 . S
C12 C10 1.500 . S
C12 C13 1.377 . S
C12 C17 1.377 . S
C13 C12 1.377 . S
C13 C14 1.395 . S
C13 H36 0.931 . S
C14 C13 1.395 . S
C14 C15 1.383 . S
C14 H37 0.931 . S
C15 C14 1.383 . S
C15 C16 1.394 . S
C16 C15 1.394 . S
C16 C17 1.378 . S
C16 H38 0.931 . S
C17 C12 1.377 . S
C17 C16 1.378 . S
C17 H39 0.931 . S
C18 O28 1.259 . S
C18 O29 1.270 . S
C19 O30 1.251 . S
C19 O31 1.251 . S
O20 C0 1.257 . S
O20 Eu1 2.473 . S
O21 C0 1.260 . S
O21 Eu1 2.480 . S
O22 Eu1 2.430 . S
O22 C8 1.259 . S
O23 Eu1 2.670 . S
O23 C8 1.270 . S
O23 Eu11 2.355 . S
O24 Eu1 2.394 . S
O24 C9 1.251 . S
O25 C9 1.251 . S
O25 Eu11 2.374 . S
O26 C10 1.257 . S
O26 Eu11 2.473 . S
O27 C10 1.260 . S
O27 Eu11 2.480 . S
O28 Eu11 2.430 . S
O28 C18 1.259 . S
O29 Eu1 2.355 . S
O29 Eu11 2.670 . S
O29 C18 1.270 . S
O30 Eu11 2.394 . S
O30 C19 1.251 . S
O31 Eu1 2.374 . S
O31 C19 1.251 . S
H32 C3 0.931 . S
H33 C4 0.931 . S
H34 C6 0.928 . S
H35 C7 0.931 . S
H36 C13 0.931 . S
H37 C14 0.931 . S
H38 C16 0.931 . S
H39 C17 0.931 . S
C40 Eu41 2.835 . S
C40 C42 1.500 . S
C40 O60 1.257 . S
C40 O61 1.260 . S
Eu41 C40 2.835 . S
Eu41 O60 2.473 . S
Eu41 O61 2.480 . S
Eu41 O62 2.430 . S
Eu41 O63 2.670 . S
Eu41 O64 2.394 . S
Eu41 O69 2.355 . S
Eu41 O71 2.374 . S
C42 C40 1.500 . S
C42 C43 1.377 . S
C42 C47 1.377 . S
C43 C42 1.377 . S
C43 C44 1.395 . S
C43 H72 0.931 . S
C44 C43 1.395 . S
C44 C45 1.383 . S
C44 H73 0.931 . S
C45 C44 1.383 . S
C45 C46 1.394 . S
C46 C45 1.394 . S
C46 C47 1.378 . S
C46 H74 0.931 . S
C47 C42 1.377 . S
C47 C46 1.378 . S
C47 H75 0.931 . S
C48 O62 1.259 . S
C48 O63 1.270 . S
C49 O64 1.251 . S
C49 O65 1.251 . S
C50 Eu51 2.835 . S
C50 C52 1.500 . S
C50 O66 1.257 . S
C50 O67 1.260 . S
Eu51 C50 2.835 . S
Eu51 O63 2.355 . S
Eu51 O65 2.374 . S
Eu51 O66 2.473 . S
Eu51 O67 2.480 . S
Eu51 O68 2.430 . S
Eu51 O69 2.670 . S
Eu51 O70 2.394 . S
C52 C50 1.500 . S
C52 C53 1.377 . S
C52 C57 1.377 . S
C53 C52 1.377 . S
C53 C54 1.395 1_455 S
C53 H76 0.927 . S
C54 C53 1.395 1_655 S
C54 C55 1.383 . S
C54 H77 0.931 . S
C55 C54 1.383 . S
C55 C56 1.394 1_655 S
C56 C55 1.394 1_455 S
C56 C57 1.378 . S
C56 H78 0.931 . S
C57 C52 1.377 . S
C57 C56 1.378 . S
C57 H79 0.931 . S
C58 O68 1.259 . S
C58 O69 1.270 . S
C59 O70 1.251 . S
C59 O71 1.251 . S
O60 C40 1.257 . S
O60 Eu41 2.473 . S
O61 C40 1.260 . S
O61 Eu41 2.480 . S
O62 Eu41 2.430 . S
O62 C48 1.259 . S
O63 Eu41 2.670 . S
O63 C48 1.270 . S
O63 Eu51 2.355 . S
O64 Eu41 2.394 . S
O64 C49 1.251 . S
O65 C49 1.251 . S
O65 Eu51 2.374 . S
O66 C50 1.257 . S
O66 Eu51 2.473 . S
O67 C50 1.260 . S
O67 Eu51 2.480 . S
O68 Eu51 2.430 . S
O68 C58 1.259 . S
O69 Eu41 2.355 . S
O69 Eu51 2.670 . S
O69 C58 1.270 . S
O70 Eu51 2.394 . S
O70 C59 1.251 . S
O71 Eu41 2.374 . S
O71 C59 1.251 . S
H72 C43 0.931 . S
H73 C44 0.931 . S
H74 C46 0.931 . S
H75 C47 0.931 . S
H76 C53 0.927 . S
H77 C54 0.931 . S
H78 C56 0.931 . S
H79 C57 0.931 . S
C80 Eu81 2.835 1_556 S
C80 C82 1.500 . S
C80 O100 1.257 1_556 S
C80 O101 1.266 . S
Eu81 C80 2.835 1_554 S
Eu81 O100 2.473 . S
Eu81 O101 2.469 1_554 S
Eu81 O102 2.430 . S
Eu81 O103 2.670 . S
Eu81 O104 2.384 1_545 S
Eu81 O109 2.355 . S
Eu81 O111 2.374 . S
C82 C80 1.500 . S
C82 C83 1.377 . S
C82 C87 1.377 . S
C83 C82 1.377 . S
C83 C84 1.395 . S
C83 H112 0.931 1_655 S
C84 C83 1.395 . S
C84 C85 1.383 . S
C84 H113 0.931 1_655 S
C85 C84 1.383 . S
C85 C86 1.394 . S
C86 C85 1.394 . S
C86 C87 1.378 . S
C86 H114 0.931 . S
C87 C82 1.377 . S
C87 C86 1.378 . S
C87 H115 0.931 . S
C88 O102 1.259 . S
C88 O103 1.270 . S
C89 O104 1.259 . S
C89 O105 1.251 . S
C90 Eu91 2.835 . S
C90 C92 1.500 . S
C90 O106 1.257 . S
C90 O107 1.260 . S
Eu91 C90 2.835 . S
Eu91 O103 2.355 1_565 S
Eu91 O105 2.374 . S
Eu91 O106 2.473 . S
Eu91 O107 2.480 . S
Eu91 O108 2.430 . S
Eu91 O109 2.670 1_565 S
Eu91 O110 2.394 1_565 S
C92 C90 1.500 . S
C92 C93 1.377 . S
C92 C97 1.377 . S
C93 C92 1.377 . S
C93 C94 1.395 . S
C93 H116 0.931 . S
C94 C93 1.395 . S
C94 C95 1.383 . S
C94 H117 0.931 . S
C95 C94 1.383 . S
C95 C96 1.394 . S
C96 C95 1.394 . S
C96 C97 1.378 . S
C96 H118 0.931 . S
C97 C92 1.377 . S
C97 C96 1.378 . S
C97 H119 0.931 . S
C98 O108 1.259 . S
C98 O109 1.270 1_565 S
C99 O110 1.251 . S
C99 O111 1.251 . S
O100 C80 1.257 1_554 S
O100 Eu81 2.473 . S
O101 C80 1.266 . S
O101 Eu81 2.469 1_556 S
O102 Eu81 2.430 . S
O102 C88 1.259 . S
O103 Eu81 2.670 . S
O103 C88 1.270 . S
O103 Eu91 2.355 1_545 S
O104 Eu81 2.384 1_565 S
O104 C89 1.259 . S
O105 C89 1.251 . S
O105 Eu91 2.374 . S
O106 C90 1.257 . S
O106 Eu91 2.473 . S
O107 C90 1.260 . S
O107 Eu91 2.480 . S
O108 Eu91 2.430 . S
O108 C98 1.259 . S
O109 Eu81 2.355 . S
O109 Eu91 2.670 1_545 S
O109 C98 1.270 1_545 S
O110 Eu91 2.394 1_545 S
O110 C99 1.251 . S
O111 Eu81 2.374 . S
O111 C99 1.251 . S
H112 C83 0.931 1_455 S
H113 C84 0.931 1_455 S
H114 C86 0.931 . S
H115 C87 0.931 . S
H116 C93 0.931 . S
H117 C94 0.931 . S
H118 C96 0.931 . S
H119 C97 0.931 . S
C120 Eu121 2.835 . S
C120 C122 1.500 . S
C120 O140 1.257 . S
C120 O141 1.260 . S
Eu121 C120 2.835 . S
Eu121 O140 2.473 . S
Eu121 O141 2.480 . S
Eu121 O142 2.430 . S
Eu121 O143 2.670 . S
Eu121 O144 2.394 1_455 S
Eu121 O149 2.355 . S
Eu121 O151 2.374 . S
C122 C120 1.500 . S
C122 C123 1.377 . S
C122 C127 1.377 . S
C123 C122 1.377 . S
C123 C124 1.395 . S
C123 H152 0.931 . S
C124 C123 1.395 . S
C124 C125 1.383 . S
C124 H153 0.931 . S
C125 C124 1.383 . S
C125 C126 1.394 . S
C126 C125 1.394 . S
C126 C127 1.378 . S
C126 H154 0.931 . S
C127 C122 1.377 . S
C127 C126 1.378 . S
C127 H155 0.931 . S
C128 O142 1.259 . S
C128 O143 1.270 . S
C129 O144 1.251 . S
C129 O145 1.251 . S
C130 Eu131 2.835 . S
C130 C132 1.500 . S
C130 O146 1.257 . S
C130 O147 1.260 . S
Eu131 C130 2.835 . S
Eu131 O143 2.355 1_655 S
Eu131 O145 2.374 . S
Eu131 O146 2.473 . S
Eu131 O147 2.480 . S
Eu131 O148 2.430 . S
Eu131 O149 2.670 1_655 S
Eu131 O150 2.394 1_655 S
C132 C130 1.500 . S
C132 C133 1.377 . S
C132 C137 1.377 . S
C133 C132 1.377 . S
C133 C134 1.395 . S
C133 H156 0.931 . S
C134 C133 1.395 . S
C134 C135 1.383 . S
C134 H157 0.931 . S
C135 C134 1.383 . S
C135 C136 1.394 . S
C136 C135 1.394 . S
C136 C137 1.378 . S
C136 H158 0.931 . S
C137 C132 1.377 . S
C137 C136 1.378 . S
C137 H159 0.931 . S
C138 O148 1.259 . S
C138 O149 1.270 1_655 S
C139 O150 1.251 . S
C139 O151 1.251 . S
O140 C120 1.257 . S
O140 Eu121 2.473 . S
O141 C120 1.260 . S
O141 Eu121 2.480 . S
O142 Eu121 2.430 . S
O142 C128 1.259 . S
O143 Eu121 2.670 . S
O143 C128 1.270 . S
O143 Eu131 2.355 1_455 S
O144 Eu121 2.394 1_655 S
O144 C129 1.251 . S
O145 C129 1.251 . S
O145 Eu131 2.374 . S
O146 C130 1.257 . S
O146 Eu131 2.473 . S
O147 C130 1.260 . S
O147 Eu131 2.480 . S
O148 Eu131 2.430 . S
O148 C138 1.259 . S
O149 Eu121 2.355 . S
O149 Eu131 2.670 1_455 S
O149 C138 1.270 1_455 S
O150 Eu131 2.394 1_455 S
O150 C139 1.251 . S
O151 Eu121 2.374 . S
O151 C139 1.251 . S
H152 C123 0.931 . S
H153 C124 0.931 . S
H154 C126 0.931 . S
H155 C127 0.931 . S
H156 C133 0.931 . S
H157 C134 0.931 . S
H158 C136 0.931 . S
H159 C137 0.931 . S
C160 C161 1.391 1_565 S
C160 C162 1.394 1_665 S
C160 H176 0.931 . S
C161 C160 1.391 1_545 S
C161 C165 1.376 1_655 S
C162 C160 1.394 1_445 S
C162 C163 1.369 . S
C162 C166 1.531 1_455 S
C163 C162 1.369 . S
C163 C164 1.410 . S
C163 C171 1.503 . S
C164 C163 1.410 . S
C164 C165 1.392 . S
C164 C167 1.511 . S
C165 C161 1.376 1_455 S
C165 C164 1.392 . S
C165 H177 0.929 . S
C166 C162 1.531 1_655 S
C166 H178 0.960 1_655 S
C166 H179 0.962 . S
C166 H180 0.960 1_545 S
C167 C164 1.511 . S
C167 H181 0.961 . S
C167 H182 0.961 . S
C167 H183 0.961 . S
C168 C169 1.370 . S
C168 C170 1.363 . S
C168 H184 0.931 . S
C169 C168 1.370 . S
C169 C173 1.408 . S
C170 C168 1.363 . S
C170 C171 1.370 . S
C170 C174 1.524 . S
C171 C163 1.503 . S
C171 C170 1.370 . S
C171 C172 1.403 . S
C172 C171 1.403 . S
C172 C173 1.404 . S
C172 C175 1.539 1_545 S
C173 C169 1.408 . S
C173 C172 1.404 . S
C173 H185 0.930 . S
C174 C170 1.524 . S
C174 H186 0.956 . S
C174 H187 0.961 . S
C174 H188 0.961 . S
C175 C172 1.539 1_565 S
C175 H189 0.958 . S
C175 H190 0.961 . S
C175 H191 0.960 . S
H176 C160 0.931 . S
H177 C165 0.929 . S
H178 C166 0.960 1_455 S
H179 C166 0.962 . S
H180 C166 0.960 1_565 S
H181 C167 0.961 . S
H182 C167 0.961 . S
H183 C167 0.961 . S
H184 C168 0.931 . S
H185 C173 0.930 . S
H186 C174 0.956 . S
H187 C174 0.961 . S
H188 C174 0.961 . S
H189 C175 0.958 . S
H190 C175 0.961 . S
H191 C175 0.960 . S
C192 C193 1.391 1_655 S
C192 C194 1.394 1_655 S
C192 H208 0.931 . S
C193 C192 1.391 1_455 S
C193 C197 1.376 . S
C194 C192 1.394 1_455 S
C194 C195 1.369 1_565 S
C194 C198 1.526 1_465 S
C195 C194 1.369 1_545 S
C195 C196 1.410 1_545 S
C195 C203 1.503 . S
C196 C195 1.410 1_565 S
C196 C197 1.392 . S
C196 C199 1.511 1_565 S
C197 C193 1.376 . S
C197 C196 1.392 . S
C197 H209 0.929 . S
C198 C194 1.526 1_645 S
C198 H210 0.956 1_655 S
C198 H211 0.970 . S
C198 H212 0.961 1_545 S
C199 C196 1.511 1_545 S
C199 H213 0.961 . S
C199 H214 0.961 . S
C199 H215 0.961 . S
C200 C201 1.370 . S
C200 C202 1.363 . S
C200 H216 0.931 . S
C201 C200 1.370 . S
C201 C205 1.408 . S
C202 C200 1.363 . S
C202 C203 1.370 . S
C202 C206 1.524 . S
C203 C195 1.503 . S
C203 C202 1.370 . S
C203 C204 1.403 . S
C204 C203 1.403 . S
C204 C205 1.404 . S
C204 C207 1.539 . S
C205 C201 1.408 . S
C205 C204 1.404 . S
C205 H217 0.930 . S
C206 C202 1.524 . S
C206 H218 0.956 . S
C206 H219 0.961 . S
C206 H220 0.961 . S
C207 C204 1.539 . S
C207 H221 0.958 . S
C207 H222 0.961 . S
C207 H223 0.960 . S
H208 C192 0.931 . S
H209 C197 0.929 . S
H210 C198 0.956 1_455 S
H211 C198 0.970 . S
H212 C198 0.961 1_565 S
H213 C199 0.961 . S
H214 C199 0.961 . S
H215 C199 0.961 . S
H216 C200 0.931 . S
H217 C205 0.930 . S
H218 C206 0.956 . S
H219 C206 0.961 . S
H220 C206 0.961 . S
H221 C207 0.958 . S
H222 C207 0.961 . S
H223 C207 0.960 . S
C224 C225 1.391 . S
C224 C226 1.394 . S
C224 H240 0.931 . S
C225 C224 1.391 . S
C225 C229 1.376 . S
C226 C224 1.394 . S
C226 C227 1.369 . S
C226 C230 1.531 . S
C227 C226 1.369 . S
C227 C228 1.410 . S
C227 C235 1.503 . S
C228 C227 1.410 . S
C228 C229 1.392 . S
C228 C231 1.511 . S
C229 C225 1.376 . S
C229 C228 1.392 . S
C229 H241 0.929 . S
C230 C226 1.531 . S
C230 H242 0.960 . S
C230 H243 0.962 . S
C230 H244 0.960 . S
C231 C228 1.511 . S
C231 H245 0.961 . S
C231 H246 0.961 . S
C231 H247 0.961 . S
C232 C233 1.370 . S
C232 C234 1.363 . S
C232 H248 0.931 . S
C233 C232 1.370 . S
C233 C237 1.408 . S
C234 C232 1.363 . S
C234 C235 1.370 . S
C234 C238 1.524 1_545 S
C235 C227 1.503 . S
C235 C234 1.370 . S
C235 C236 1.403 . S
C236 C235 1.403 . S
C236 C237 1.404 . S
C236 C239 1.539 . S
C237 C233 1.408 . S
C237 C236 1.404 . S
C237 H249 0.930 . S
C238 C234 1.524 1_565 S
C238 H250 0.956 . S
C238 H251 0.961 . S
C238 H252 0.961 . S
C239 C236 1.539 . S
C239 H253 0.958 . S
C239 H254 0.961 . S
C239 H255 0.960 . S
H240 C224 0.931 . S
H241 C229 0.929 . S
H242 C230 0.960 . S
H243 C230 0.962 . S
H244 C230 0.960 . S
H245 C231 0.961 . S
H246 C231 0.961 . S
H247 C231 0.961 . S
H248 C232 0.931 . S
H249 C237 0.930 . S
H250 C238 0.956 . S
H251 C238 0.961 . S
H252 C238 0.961 . S
H253 C239 0.958 . S
H254 C239 0.961 . S
H255 C239 0.960 . S
C256 C257 1.391 . S
C256 C258 1.394 . S
C256 H272 0.931 . S
C257 C256 1.391 . S
C257 C261 1.376 . S
C258 C256 1.394 . S
C258 C259 1.369 . S
C258 C262 1.531 . S
C259 C258 1.369 . S
C259 C260 1.410 . S
C259 C267 1.503 . S
C260 C259 1.410 . S
C260 C261 1.392 . S
C260 C263 1.511 . S
C261 C257 1.376 . S
C261 C260 1.392 . S
C261 H273 0.929 . S
C262 C258 1.531 . S
C262 H274 0.960 . S
C262 H275 0.962 . S
C262 H276 0.960 . S
C263 C260 1.511 . S
C263 H277 0.961 . S
C263 H278 0.961 . S
C263 H279 0.961 . S
C264 C265 1.370 . S
C264 C266 1.363 . S
C264 H280 0.931 . S
C265 C264 1.370 . S
C265 C269 1.408 1_455 S
C266 C264 1.363 . S
C266 C267 1.370 . S
C266 C270 1.524 . S
C267 C259 1.503 . S
C267 C266 1.370 . S
C267 C268 1.403 1_455 S
C268 C267 1.403 1_655 S
C268 C269 1.404 . S
C268 C271 1.539 . S
C269 C265 1.408 1_655 S
C269 C268 1.404 . S
C269 H281 0.930 . S
C270 C266 1.524 . S
C270 H282 0.956 . S
C270 H283 0.961 . S
C270 H284 0.961 . S
C271 C268 1.539 . S
C271 H285 0.958 . S
C271 H286 0.961 . S
C271 H287 0.960 . S
H272 C256 0.931 . S
H273 C261 0.929 . S
H274 C262 0.960 . S
H275 C262 0.962 . S
H276 C262 0.960 . S
H277 C263 0.961 . S
H278 C263 0.961 . S
H279 C263 0.961 . S
H280 C264 0.931 . S
H281 C269 0.930 . S
H282 C270 0.956 . S
H283 C270 0.961 . S
H284 C270 0.961 . S
H285 C271 0.958 . S
H286 C271 0.961 . S
H287 C271 0.960 . S
C288 C289 1.391 . S
C288 C290 1.394 . S
C288 H304 0.931 . S
C289 C288 1.391 . S
C289 C293 1.376 . S
C290 C288 1.394 . S
C290 C291 1.369 . S
C290 C294 1.531 . S
C291 C290 1.369 . S
C291 C292 1.410 . S
C291 C299 1.503 . S
C292 C291 1.410 . S
C292 C293 1.392 . S
C292 C295 1.511 . S
C293 C289 1.376 . S
C293 C292 1.392 . S
C293 H305 0.929 . S
C294 C290 1.531 . S
C294 H306 0.960 . S
C294 H307 0.962 . S
C294 H308 0.960 . S
C295 C292 1.511 . S
C295 H309 0.961 . S
C295 H310 0.961 . S
C295 H311 0.961 . S
C296 C297 1.370 . S
C296 C298 1.363 . S
C296 H312 0.931 . S
C297 C296 1.370 . S
C297 C301 1.408 . S
C298 C296 1.363 . S
C298 C299 1.370 . S
C298 C302 1.524 . S
C299 C291 1.503 . S
C299 C298 1.370 . S
C299 C300 1.403 . S
C300 C299 1.403 . S
C300 C301 1.404 . S
C300 C303 1.539 . S
C301 C297 1.408 . S
C301 C300 1.404 . S
C301 H313 0.930 . S
C302 C298 1.524 . S
C302 H314 0.956 . S
C302 H315 0.961 . S
C302 H316 0.961 . S
C303 C300 1.539 . S
C303 H317 0.958 . S
C303 H318 0.961 . S
C303 H319 0.960 . S
H304 C288 0.931 . S
H305 C293 0.929 . S
H306 C294 0.960 . S
H307 C294 0.962 . S
H308 C294 0.960 . S
H309 C295 0.961 . S
H310 C295 0.961 . S
H311 C295 0.961 . S
H312 C296 0.931 . S
H313 C301 0.930 . S
H314 C302 0.956 . S
H315 C302 0.961 . S
H316 C302 0.961 . S
H317 C303 0.958 . S
H318 C303 0.961 . S
H319 C303 0.960 . S
C320 C321 1.391 . S
C320 C322 1.394 . S
C320 H336 0.931 . S
C321 C320 1.391 . S
C321 C325 1.376 . S
C322 C320 1.394 . S
C322 C323 1.369 . S
C322 C326 1.531 . S
C323 C322 1.369 . S
C323 C324 1.410 . S
C323 C331 1.503 . S
C324 C323 1.410 . S
C324 C325 1.392 . S
C324 C327 1.511 1_455 S
C325 C321 1.376 . S
C325 C324 1.392 . S
C325 H337 0.929 . S
C326 C322 1.531 . S
C326 H338 0.960 . S
C326 H339 0.962 . S
C326 H340 0.960 . S
C327 C324 1.511 1_655 S
C327 H341 0.961 . S
C327 H342 0.961 . S
C327 H343 0.961 . S
C328 C329 1.370 . S
C328 C330 1.363 . S
C328 H344 0.931 . S
C329 C328 1.370 . S
C329 C333 1.408 . S
C330 C328 1.363 . S
C330 C331 1.370 1_655 S
C330 C334 1.524 . S
C331 C323 1.503 . S
C331 C330 1.370 1_455 S
C331 C332 1.398 1_455 S
C332 C331 1.398 1_655 S
C332 C333 1.407 . S
C332 C335 1.542 1_655 S
C333 C329 1.408 . S
C333 C332 1.407 . S
C333 H345 0.930 . S
C334 C330 1.524 . S
C334 H346 0.956 1_655 S
C334 H347 0.961 . S
C334 H348 0.961 . S
C335 C332 1.542 1_455 S
C335 H349 0.958 . S
C335 H350 0.961 . S
C335 H351 0.960 . S
H336 C320 0.931 . S
H337 C325 0.929 . S
H338 C326 0.960 . S
H339 C326 0.962 . S
H340 C326 0.960 . S
H341 C327 0.961 . S
H342 C327 0.961 . S
H343 C327 0.961 . S
H344 C328 0.931 . S
H345 C333 0.930 . S
H346 C334 0.956 1_455 S
H347 C334 0.961 . S
H348 C334 0.961 . S
H349 C335 0.958 . S
H350 C335 0.961 . S
H351 C335 0.960 . S
C352 C353 1.391 . S
C352 C354 1.394 . S
C352 H368 0.931 . S
C353 C352 1.391 . S
C353 C357 1.376 . S
C354 C352 1.394 . S
C354 C355 1.369 . S
C354 C358 1.531 . S
C355 C354 1.369 . S
C355 C356 1.410 . S
C355 C363 1.503 . S
C356 C355 1.410 . S
C356 C357 1.392 . S
C356 C359 1.511 . S
C357 C353 1.376 . S
C357 C356 1.392 . S
C357 H369 0.929 . S
C358 C354 1.531 . S
C358 H370 0.960 . S
C358 H371 0.962 . S
C358 H372 0.960 . S
C359 C356 1.511 . S
C359 H373 0.961 . S
C359 H374 0.961 . S
C359 H375 0.961 . S
C360 C361 1.370 . S
C360 C362 1.363 . S
C360 H376 0.931 . S
C361 C360 1.370 . S
C361 C365 1.408 . S
C362 C360 1.363 . S
C362 C363 1.370 . S
C362 C366 1.524 . S
C363 C355 1.503 . S
C363 C362 1.370 . S
C363 C364 1.403 . S
C364 C363 1.403 . S
C364 C365 1.404 . S
C364 C367 1.539 . S
C365 C361 1.408 . S
C365 C364 1.404 . S
C365 H377 0.930 . S
C366 C362 1.524 . S
C366 H378 0.956 . S
C366 H379 0.961 . S
C366 H380 0.961 . S
C367 C364 1.539 . S
C367 H381 0.958 . S
C367 H382 0.961 . S
C367 H383 0.960 . S
H368 C352 0.931 . S
H369 C357 0.929 . S
H370 C358 0.960 . S
H371 C358 0.962 . S
H372 C358 0.960 . S
H373 C359 0.961 . S
H374 C359 0.961 . S
H375 C359 0.961 . S
H376 C360 0.931 . S
H377 C365 0.930 . S
H378 C366 0.956 . S
H379 C366 0.961 . S
H380 C366 0.961 . S
H381 C367 0.958 . S
H382 C367 0.961 . S
H383 C367 0.960 . S
C384 C385 1.391 . S
C384 C386 1.394 . S
C384 H400 0.931 . S
C385 C384 1.391 . S
C385 C389 1.376 . S
C386 C384 1.394 . S
C386 C387 1.369 . S
C386 C390 1.531 . S
C387 C386 1.369 . S
C387 C388 1.410 . S
C387 C395 1.503 . S
C388 C387 1.410 . S
C388 C389 1.392 . S
C388 C391 1.511 . S
C389 C385 1.376 . S
C389 C388 1.392 . S
C389 H401 0.929 . S
C390 C386 1.531 . S
C390 H402 0.960 . S
C390 H403 0.962 1_565 S
C390 H404 0.960 1_565 S
C391 C388 1.511 . S
C391 H405 0.961 . S
C391 H406 0.961 . S
C391 H407 0.961 . S
C392 C393 1.370 . S
C392 C394 1.363 . S
C392 H408 0.931 . S
C393 C392 1.370 . S
C393 C397 1.408 . S
C394 C392 1.363 . S
C394 C395 1.370 . S
C394 C398 1.524 . S
C395 C387 1.503 . S
C395 C394 1.370 . S
C395 C396 1.403 . S
C396 C395 1.403 . S
C396 C397 1.404 . S
C396 C399 1.539 . S
C397 C393 1.408 . S
C397 C396 1.404 . S
C397 H409 0.930 . S
C398 C394 1.524 . S
C398 H410 0.956 . S
C398 H411 0.961 . S
C398 H412 0.961 . S
C399 C396 1.539 . S
C399 H413 0.958 . S
C399 H414 0.961 . S
C399 H415 0.960 . S
H400 C384 0.931 . S
H401 C389 0.929 . S
H402 C390 0.960 . S
H403 C390 0.962 1_545 S
H404 C390 0.960 1_545 S
H405 C391 0.961 . S
H406 C391 0.961 . S
H407 C391 0.961 . S
H408 C392 0.931 . S
H409 C397 0.930 . S
H410 C398 0.956 . S
H411 C398 0.961 . S
H412 C398 0.961 . S
H413 C399 0.958 . S
H414 C399 0.961 . S
H415 C399 0.960 . S
C416 C417 1.391 . S
C416 C418 1.394 . S
C416 H432 0.931 . S
C417 C416 1.391 . S
C417 C421 1.376 . S
C418 C416 1.394 . S
C418 C419 1.369 . S
C418 C422 1.531 . S
C419 C418 1.369 . S
C419 C420 1.410 . S
C419 C427 1.503 . S
C420 C419 1.410 . S
C420 C421 1.392 . S
C420 C423 1.511 . S
C421 C417 1.376 . S
C421 C420 1.392 . S
C421 H433 0.929 . S
C422 C418 1.531 . S
C422 H434 0.960 . S
C422 H435 0.962 . S
C422 H436 0.960 . S
C423 C420 1.511 . S
C423 H437 0.961 . S
C423 H438 0.961 . S
C423 H439 0.961 . S
C424 C425 1.370 . S
C424 C426 1.363 . S
C424 H440 0.931 . S
C425 C424 1.370 . S
C425 C429 1.408 . S
C426 C424 1.363 . S
C426 C427 1.370 . S
C426 C430 1.524 . S
C427 C419 1.503 . S
C427 C426 1.370 . S
C427 C428 1.403 . S
C428 C427 1.403 . S
C428 C429 1.404 . S
C428 C431 1.539 . S
C429 C425 1.408 . S
C429 C428 1.404 . S
C429 H441 0.930 . S
C430 C426 1.524 . S
C430 H442 0.956 . S
C430 H443 0.961 . S
C430 H444 0.961 . S
C431 C428 1.539 . S
C431 H445 0.958 . S
C431 H446 0.961 . S
C431 H447 0.960 . S
H432 C416 0.931 . S
H433 C421 0.929 . S
H434 C422 0.960 . S
H435 C422 0.962 . S
H436 C422 0.960 . S
H437 C423 0.961 . S
H438 C423 0.961 . S
H439 C423 0.961 . S
H440 C424 0.931 . S
H441 C429 0.930 . S
H442 C430 0.956 . S
H443 C430 0.961 . S
H444 C430 0.961 . S
H445 C431 0.958 . S
H446 C431 0.961 . S
H447 C431 0.960 . S
C448 C449 1.391 1_565 S
C448 C450 1.394 . S
C448 H464 0.931 . S
C449 C448 1.391 1_545 S
C449 C453 1.376 . S
C450 C448 1.394 . S
C450 C451 1.369 . S
C450 C454 1.531 . S
C451 C450 1.369 . S
C451 C452 1.410 1_565 S
C451 C459 1.503 . S
C452 C451 1.410 1_545 S
C452 C453 1.392 . S
C452 C455 1.511 . S
C453 C449 1.376 . S
C453 C452 1.392 . S
C453 H465 0.929 . S
C454 C450 1.531 . S
C454 H466 0.960 . S
C454 H467 0.962 . S
C454 H468 0.960 . S
C455 C452 1.511 . S
C455 H469 0.961 . S
C455 H470 0.961 . S
C455 H471 0.961 . S
C456 C457 1.370 . S
C456 C458 1.363 . S
C456 H472 0.931 . S
C457 C456 1.370 . S
C457 C461 1.408 . S
C458 C456 1.363 . S
C458 C459 1.370 . S
C458 C462 1.524 . S
C459 C451 1.503 . S
C459 C458 1.370 . S
C459 C460 1.403 . S
C460 C459 1.403 . S
C460 C461 1.404 . S
C460 C463 1.539 . S
C461 C457 1.408 . S
C461 C460 1.404 . S
C461 H473 0.930 . S
C462 C458 1.524 . S
C462 H474 0.956 . S
C462 H475 0.961 1_565 S
C462 H476 0.961 . S
C463 C460 1.539 . S
C463 H477 0.958 . S
C463 H478 0.961 . S
C463 H479 0.960 . S
H464 C448 0.931 . S
H465 C453 0.929 . S
H466 C454 0.960 . S
H467 C454 0.962 . S
H468 C454 0.960 . S
H469 C455 0.961 . S
H470 C455 0.961 . S
H471 C455 0.961 . S
H472 C456 0.931 . S
H473 C461 0.930 . S
H474 C462 0.956 . S
H475 C462 0.961 1_545 S
H476 C462 0.961 . S
H477 C463 0.958 . S
H478 C463 0.961 . S
H479 C463 0.960 . S
C480 C481 1.391 . S
C480 C482 1.394 . S
C480 H496 0.931 . S
C481 C480 1.391 . S
C481 C485 1.376 . S
C482 C480 1.394 . S
C482 C483 1.369 . S
C482 C486 1.531 . S
C483 C482 1.369 . S
C483 C484 1.410 . S
C483 C491 1.503 . S
C484 C483 1.410 . S
C484 C485 1.392 . S
C484 C487 1.511 . S
C485 C481 1.376 . S
C485 C484 1.392 . S
C485 H497 0.929 . S
C486 C482 1.531 . S
C486 H498 0.960 . S
C486 H499 0.962 . S
C486 H500 0.960 . S
C487 C484 1.511 . S
C487 H501 0.961 . S
C487 H502 0.961 . S
C487 H503 0.961 . S
C488 C489 1.370 1_556 S
C488 C490 1.363 . S
C488 H504 0.931 . S
C489 C488 1.370 1_554 S
C489 C493 1.408 . S
C490 C488 1.363 . S
C490 C491 1.370 . S
C490 C494 1.524 . S
C491 C483 1.503 . S
C491 C490 1.370 . S
C491 C492 1.403 . S
C492 C491 1.403 . S
C492 C493 1.404 1_556 S
C492 C495 1.539 . S
C493 C489 1.408 . S
C493 C492 1.404 1_554 S
C493 H505 0.930 . S
C494 C490 1.524 . S
C494 H506 0.956 . S
C494 H507 0.961 . S
C494 H508 0.961 . S
C495 C492 1.539 . S
C495 H509 0.958 . S
C495 H510 0.961 1_556 S
C495 H511 0.960 . S
H496 C480 0.931 . S
H497 C485 0.929 . S
H498 C486 0.960 . S
H499 C486 0.962 . S
H500 C486 0.960 . S
H501 C487 0.961 . S
H502 C487 0.961 . S
H503 C487 0.961 . S
H504 C488 0.931 . S
H505 C493 0.930 . S
H506 C494 0.956 . S
H507 C494 0.961 . S
H508 C494 0.961 . S
H509 C495 0.958 . S
H510 C495 0.961 1_554 S
H511 C495 0.960 . S
C512 C513 1.391 . S
C512 C514 1.394 . S
C512 H528 0.931 . S
C513 C512 1.391 . S
C513 C517 1.376 . S
C514 C512 1.394 . S
C514 C515 1.369 . S
C514 C518 1.531 . S
C515 C514 1.369 . S
C515 C516 1.410 . S
C515 C523 1.503 . S
C516 C515 1.410 . S
C516 C517 1.392 . S
C516 C519 1.511 . S
C517 C513 1.376 . S
C517 C516 1.392 . S
C517 H529 0.929 . S
C518 C514 1.531 . S
C518 H530 0.960 . S
C518 H531 0.962 . S
C518 H532 0.960 . S
C519 C516 1.511 . S
C519 H533 0.961 . S
C519 H534 0.961 . S
C519 H535 0.961 . S
C520 C521 1.370 . S
C520 C522 1.363 . S
C520 H536 0.931 . S
C521 C520 1.370 . S
C521 C525 1.408 1_655 S
C522 C520 1.363 . S
C522 C523 1.370 . S
C522 C526 1.524 . S
C523 C515 1.503 . S
C523 C522 1.370 . S
C523 C524 1.403 1_655 S
C524 C523 1.403 1_455 S
C524 C525 1.404 . S
C524 C527 1.539 . S
C525 C521 1.408 1_455 S
C525 C524 1.404 . S
C525 H537 0.930 . S
C526 C522 1.524 . S
C526 H538 0.956 . S
C526 H539 0.961 . S
C526 H540 0.961 . S
C527 C524 1.539 . S
C527 H541 0.958 . S
C527 H542 0.961 . S
C527 H543 0.960 . S
H528 C512 0.931 . S
H529 C517 0.929 . S
H530 C518 0.960 . S
H531 C518 0.962 . S
H532 C518 0.960 . S
H533 C519 0.961 . S
H534 C519 0.961 . S
H535 C519 0.961 . S
H536 C520 0.931 . S
H537 C525 0.930 . S
H538 C526 0.956 . S
H539 C526 0.961 . S
H540 C526 0.961 . S
H541 C527 0.958 . S
H542 C527 0.961 . S
H543 C527 0.960 . S
C161 C88 0.784 . S
C169 C8 0.666 . S
C193 C128 0.538 . S
C201 C58 0.675 . S
C225 C98 1.232 1_545 S
C233 C18 1.253 . S
C257 C48 1.258 . S
C265 C138 1.273 1_455 S
C289 C59 0.549 . S
C297 C15 0.605 . S
C321 C49 0.511 . S
C329 C85 0.593 . S
C353 C135 0.412 . S
C361 C95 0.332 . S
C385 C125 0.262 . S
C393 C5 0.423 . S
C417 C89 3.371 1_556 S
C425 C129 3.327 . S
C449 C19 3.382 . S
C457 C139 3.387 . S
C481 C45 2.861 . S
C489 C9 2.838 . S
C513 C99 2.522 . S
C521 C55 2.466 . S
