# Generated by pormake.
# Topology snp, (6)-cn, num edge types: 1
# Building blocks:
#     Node 0, Type 0, BuildingBlock: BETFEN_clean_sbu_0, # of connection points: 6
#     Node 1, Type 0, BuildingBlock: BETFEN_clean_sbu_0, # of connection points: 6
#     Node 2, Type 0, BuildingBlock: BETFEN_clean_sbu_0, # of connection points: 6
#     Node 3, Type 0, BuildingBlock: BETFEN_clean_sbu_0, # of connection points: 6
#     Edge 4, Type (0, 0), BuildingBlock: UVAHIK_clean_linker_0, # of connection points: 2
#     Edge 5, Type (0, 0), BuildingBlock: UVAHIK_clean_linker_0, # of connection points: 2
#     Edge 6, Type (0, 0), BuildingBlock: UVAHIK_clean_linker_0, # of connection points: 2
#     Edge 7, Type (0, 0), BuildingBlock: UVAHIK_clean_linker_0, # of connection points: 2
#     Edge 8, Type (0, 0), BuildingBlock: UVAHIK_clean_linker_0, # of connection points: 2
#     Edge 9, Type (0, 0), BuildingBlock: UVAHIK_clean_linker_0, # of connection points: 2
#     Edge 10, Type (0, 0), BuildingBlock: UVAHIK_clean_linker_0, # of connection points: 2
#     Edge 11, Type (0, 0), BuildingBlock: UVAHIK_clean_linker_0, # of connection points: 2
#     Edge 12, Type (0, 0), BuildingBlock: UVAHIK_clean_linker_0, # of connection points: 2
#     Edge 13, Type (0, 0), BuildingBlock: UVAHIK_clean_linker_0, # of connection points: 2
#     Edge 14, Type (0, 0), BuildingBlock: UVAHIK_clean_linker_0, # of connection points: 2
#     Edge 15, Type (0, 0), BuildingBlock: UVAHIK_clean_linker_0, # of connection points: 2
# Relax obj value: 0.227
# Max RMSD: 0.204
# Mean RMSD: 0.204
data_MOF--net-snp--node1-BETFEN_clean_sbu_0--edge1-UVAHIK_clean_linker_0
_symmetry_space_group_name_H-M    P1
_symmetry_Int_Tables_number       1
_symmetry_cell_setting            triclinic
loop_
_symmetry_equiv_pos_as_xyz
'x, y, z'
_cell_length_a     32.852375
_cell_length_b     31.989944
_cell_length_c     44.381341
_cell_angle_alpha  86.262843
_cell_angle_beta   85.935923
_cell_angle_gamma 96.51373
loop_
_atom_site_label
_atom_site_type_symbol
_atom_site_fract_x
_atom_site_fract_y
_atom_site_fract_z
_atom_type_partial_charge
Pr0 Pr 0.2251 0.0361 0.19141 0.0
Pr1 Pr 0.23993 0.95184 0.16315 0.0
C2 C 0.20752 0.09683 0.22799 0.0
C3 C 0.19767 0.10133 0.26037 0.0
C4 C 0.20229 0.14155 0.27123 0.0
C5 C 0.19308 0.14676 0.30187 0.0
C6 C 0.17889 0.11177 0.32233 0.0
C7 C 0.17492 0.07126 0.31138 0.0
C8 C 0.18426 0.06609 0.28063 0.0
C9 C 0.29929 0.0376 0.15735 0.0
C10 C 0.25478 0.9551 0.23368 0.0
C11 C 0.25916 0.89567 0.12328 0.0
C12 C 0.24858 0.88971 0.09189 0.0
C13 C 0.2133 0.9048 0.08127 0.0
C14 C 0.20382 0.90044 0.0513 0.0
C15 C 0.2293 0.88067 0.03124 0.0
C16 C 0.26452 0.86532 0.04206 0.0
C17 C 0.27411 0.86995 0.07206 0.0
C18 C 0.16669 0.94843 0.19853 0.0
C19 C 0.20105 0.0294 0.12214 0.0
O20 O 0.17977 0.07491 0.21383 0.0
O21 O 0.24502 0.08947 0.2202 0.0
O22 O 0.28339 0.0076 0.17583 0.0
O23 O 0.27772 0.06921 0.15688 0.0
O24 O 0.26705 0.93714 0.20916 0.0
O25 O 0.23483 0.98876 0.23227 0.0
O26 O 0.28364 0.9298 0.12715 0.0
O27 O 0.22872 0.88792 0.14427 0.0
O28 O 0.1817 0.97915 0.18017 0.0
O29 O 0.1873 0.91624 0.19644 0.0
O30 O 0.19521 0.0506 0.14631 0.0
O31 O 0.21925 0.99461 0.12327 0.0
H32 H 0.21304 0.16903 0.25597 0.0
H33 H 0.19732 0.17829 0.30956 0.0
H34 H 0.16385 0.04367 0.32641 0.0
H35 H 0.18078 0.03468 0.27264 0.0
H36 H 0.19306 0.92016 0.09615 0.0
H37 H 0.17622 0.9122 0.04394 0.0
H38 H 0.28508 0.85035 0.02718 0.0
H39 H 0.30161 0.8583 0.07973 0.0
Pr40 Pr 0.95616 0.24863 0.65362 0.0
Pr41 Pr 0.02008 0.21522 0.69333 0.0
C42 C 0.90655 0.28327 0.61575 0.0
C43 C 0.89663 0.27418 0.5845 0.0
C44 C 0.89134 0.23242 0.57601 0.0
C45 C 0.88295 0.22381 0.54639 0.0
C46 C 0.88003 0.25671 0.52424 0.0
C47 C 0.88551 0.29857 0.53283 0.0
C48 C 0.89369 0.30715 0.5626 0.0
C49 C 0.94012 0.16313 0.67202 0.0
C50 C 0.03015 0.20484 0.61911 0.0
C51 C 0.06951 0.1735 0.72741 0.0
C52 C 0.07671 0.16517 0.75972 0.0
C53 C 0.08645 0.19816 0.77841 0.0
C54 C 0.09445 0.18938 0.80862 0.0
C55 C 0.0928 0.14744 0.82087 0.0
C56 C 0.08236 0.11457 0.80219 0.0
C57 C 0.07456 0.12336 0.77199 0.0
C58 C 0.03467 0.30078 0.67465 0.0
C59 C 0.94546 0.25728 0.72807 0.0
O60 O 0.94396 0.30047 0.61891 0.0
O61 O 0.8932 0.25386 0.63716 0.0
O62 O 0.95207 0.19142 0.6889 0.0
O63 O 0.93752 0.17881 0.64465 0.0
O64 O 0.03854 0.18948 0.64606 0.0
O65 O 0.00334 0.23215 0.61624 0.0
O66 O 0.03525 0.15541 0.71827 0.0
O67 O 0.07989 0.21188 0.71513 0.0
O68 O 0.02338 0.27159 0.6584 0.0
O69 O 0.04 0.28634 0.70195 0.0
O70 O 0.93662 0.27322 0.70126 0.0
O71 O 0.9729 0.23057 0.73082 0.0
H72 H 0.89373 0.20625 0.59229 0.0
H73 H 0.87834 0.19118 0.54099 0.0
H74 H 0.88416 0.32485 0.51643 0.0
H75 H 0.89807 0.33962 0.56845 0.0
H76 H 0.0883 0.23078 0.76966 0.0
H77 H 0.10283 0.21551 0.82216 0.0
H78 H 0.08007 0.08191 0.81092 0.0
H79 H 0.06699 0.09736 0.75811 0.0
Pr80 Pr 0.78619 0.07426 0.08814 0.0
Pr81 Pr 0.79442 0.99267 0.05282 0.0
C82 C 0.76442 0.13027 0.12744 0.0
C83 C 0.77168 0.13946 0.15913 0.0
C84 C 0.78356 0.18111 0.16596 0.0
C85 C 0.79173 0.19036 0.19555 0.0
C86 C 0.78843 0.1581 0.21907 0.0
C87 C 0.77637 0.11636 0.21215 0.0
C88 C 0.76792 0.10719 0.18258 0.0
C89 C 0.86632 0.05308 0.07855 0.0
C90 C 0.79075 0.98112 0.12755 0.0
C91 C 0.81803 0.93398 1.01633 0.0
C92 C 0.81862 0.92122 0.9849 0.0
C93 C 0.81912 0.87848 0.97986 0.0
C94 C 0.82212 0.8655 0.95037 0.0
C95 C 0.82475 0.89503 0.92514 0.0
C96 C 0.82319 0.93786 0.9303 0.0
C97 C 0.82022 0.95083 0.95992 0.0
C98 C 0.71453 0.00906 0.06678 0.0
C99 C 0.79744 0.08791 1.01433 0.0
O100 O 0.74097 0.09543 0.12326 0.0
O101 O 0.79619 0.13822 0.10752 0.0
O102 O 0.8338 0.02871 0.08423 0.0
O103 O 0.85819 0.09187 0.07941 0.0
O104 O 0.80357 0.9652 0.1022 0.0
O105 O 0.77749 0.01881 0.12705 0.0
O106 O 0.84189 0.96807 0.02139 0.0
O107 O 0.78249 0.92969 0.03222 0.0
O108 O 0.74395 0.03684 0.0576 0.0
O109 O 0.72537 0.97122 0.06708 0.0
O110 O 0.78343 0.10426 0.03906 0.0
O111 O 0.80705 0.04874 1.0148 0.0
H112 H 0.78681 0.20656 0.1483 0.0
H113 H 0.80137 0.22278 0.19988 0.0
H114 H 0.77297 0.09075 0.22969 0.0
H115 H 0.75847 0.07483 0.17808 0.0
H116 H 0.81774 0.85509 0.99881 0.0
H117 H 0.82247 0.83222 0.94734 0.0
H118 H 0.82542 0.96151 0.91147 0.0
H119 H 0.81983 0.984 0.96329 0.0
Pr120 Pr 0.96532 0.78966 0.55315 0.0
Pr121 Pr 0.03866 0.81317 0.59385 0.0
C122 C 0.90151 0.78558 0.51761 0.0
C123 C 0.89619 0.79664 0.48531 0.0
C124 C 0.86392 0.7756 0.47101 0.0
C125 C 0.85763 0.78728 0.4408 0.0
C126 C 0.88337 0.82049 0.42434 0.0
C127 C 0.91614 0.84097 0.43865 0.0
C128 C 0.92258 0.82907 0.46872 0.0
C129 C 0.01239 0.72487 0.56711 0.0
C130 C 0.05716 0.81885 0.51898 0.0
C131 C 0.10384 0.82094 0.62764 0.0
C132 C 0.11191 0.82503 0.65992 0.0
C133 C 0.13487 0.86163 0.66827 0.0
C134 C 0.14298 0.86618 0.69853 0.0
C135 C 0.12859 0.83404 0.7212 0.0
C136 C 0.10564 0.79733 0.7128 0.0
C137 C 0.09728 0.7929 0.68255 0.0
C138 C -0.01073 0.87675 0.58221 0.0
C139 C 0.9482 0.78373 0.62952 0.0
O140 O 0.91139 0.81721 0.53389 0.0
O141 O 0.92161 0.75343 0.52373 0.0
O142 O 0.00115 0.75074 0.5853 0.0
O143 O -0.00232 0.73086 0.54098 0.0
O144 O 0.0728 0.81382 0.54543 0.0
O145 O 0.01725 0.81718 0.51643 0.0
O146 O 0.08651 0.7845 0.62019 0.0
O147 O 0.09046 0.85318 0.61338 0.0
O148 O 0.00056 0.85185 0.56322 0.0
O149 O 0.00584 0.87095 0.60761 0.0
O150 O 0.93192 0.78492 0.60295 0.0
O151 O -0.01176 0.78746 0.63177 0.0
H152 H 0.8432 0.7505 0.48334 0.0
H153 H 0.83196 0.77102 0.43059 0.0
H154 H 0.93692 0.86622 0.42655 0.0
H155 H 0.94796 0.84557 0.47914 0.0
H156 H 0.14671 0.88679 0.65131 0.0
H157 H 0.16115 0.89464 0.70408 0.0
H158 H 0.09369 0.77215 0.7297 0.0
H159 H 0.07932 0.76433 0.67698 0.0
C160 C 0.90741 0.99563 0.08886 0.0
C161 C 0.90296 0.03855 0.09059 0.0
C162 C 0.92524 0.97396 0.11167 0.0
C163 C 0.95138 0.98522 0.19129 0.0
H164 H 0.02047 0.89828 0.17358 0.0
C165 C 0.10648 0.98202 0.21717 0.0
C166 C 0.12524 0.94534 0.21365 0.0
C167 C 0.06399 0.97944 0.22215 0.0
C168 C -4e-05 0.92122 0.1795 0.0
H169 H 0.9193 0.09409 0.11458 0.0
H170 H 0.95437 0.05714 0.15287 0.0
H171 H 0.98186 0.92587 0.1345 0.0
H172 H 0.1161 0.87696 0.21852 0.0
H173 H 0.04129 0.87252 0.22537 0.0
H174 H 0.974 0.98373 0.23541 0.0
C175 C 0.94113 0.03944 0.13524 0.0
C176 C 0.97803 0.93753 0.15675 0.0
C177 C 0.92238 0.06098 0.11271 0.0
C178 C 0.10198 0.9058 0.22028 0.0
C179 C 0.05923 0.9032 0.22469 0.0
C180 C 0.97407 0.9694 0.21395 0.0
C181 C 0.94045 0.99527 0.13595 0.0
C182 C 0.95587 0.97175 0.16179 0.0
C183 C 0.0399 0.94016 0.22233 0.0
C184 C 0.00122 0.93979 0.20733 0.0
H185 H 0.89239 0.97768 0.07203 0.0
H186 H 0.92441 0.94009 0.11123 0.0
H187 H 0.93272 0.0101 0.19631 0.0
H188 H 0.12402 0.01278 0.21299 0.0
H189 H 0.05013 0.0086 0.22074 0.0
C190 C 0.91377 0.87921 0.58429 0.0
C191 C 0.95376 0.90056 0.5804 0.0
C192 C 0.88067 0.89984 0.59411 0.0
C193 C 0.84538 -2e-05 0.61091 0.0
H194 H 0.85037 0.96567 0.69591 0.0
C195 C 0.92669 0.08776 0.68991 0.0
C196 C 0.91174 0.12622 0.68346 0.0
C197 C 0.90072 0.05024 0.68915 0.0
C198 C 0.84663 0.97491 0.67244 0.0
H199 H -0.00985 0.96114 0.5809 0.0
H200 H 0.93204 -0.00196 0.59683 0.0
H201 H 0.86339 0.91646 0.65772 0.0
H202 H 0.85759 0.15707 0.67615 0.0
H203 H 0.8123 0.09144 0.6742 0.0
H204 H 0.8333 0.05982 0.62507 0.0
C205 C 0.92626 0.96511 0.59227 0.0
C206 C 0.85414 0.94678 0.65052 0.0
C207 C 0.95951 0.94409 0.58321 0.0
C208 C 0.86955 0.12732 0.68089 0.0
C209 C 0.84359 0.08986 0.68004 0.0
C210 C 0.83698 0.02774 0.6328 0.0
C211 C 0.88712 0.94249 0.59948 0.0
C212 C 0.85778 0.9609 0.61968 0.0
C213 C 0.85998 0.0512 0.68121 0.0
C214 C 0.8425 0.017 0.66343 0.0
H215 H 0.90823 0.84585 0.58282 0.0
H216 H 0.85091 0.88177 0.59998 0.0
H217 H 0.84775 0.01121 0.58721 0.0
H218 H 0.95921 0.08653 0.69203 0.0
H219 H 0.91435 0.02094 0.69025 0.0
C220 C 0.6603 0.05791 0.0657 0.0
C221 C 0.67153 0.01721 0.07116 0.0
C222 C 0.61896 0.06465 0.06893 0.0
C223 C 0.51413 0.0071 0.073 0.0
H224 H 0.48289 0.09933 0.11867 0.0
C225 C 0.36022 0.00229 0.14194 0.0
C226 C 0.3396 0.03834 0.14071 0.0
C227 C 0.39919 0.0033 0.12719 0.0
C228 C 0.49121 0.07393 0.10536 0.0
H229 H 0.649 0.95189 0.08477 0.0
H230 H 0.57728 0.96368 0.091 0.0
H231 H 0.55547 0.09504 0.10467 0.0
H232 H 0.34293 0.10351 0.12291 0.0
H233 H 0.41195 0.10551 0.09759 0.0
H234 H 0.44999 0.98483 0.07512 0.0
C235 C 0.59998 0.99024 0.08348 0.0
C236 C 0.53268 0.07148 0.09733 0.0
C237 C 0.64109 0.98354 0.0802 0.0
C238 C 0.35831 0.0753 0.12418 0.0
C239 C 0.39765 0.0765 0.10976 0.0
C240 C 0.47279 0.00938 0.08122 0.0
C241 C 0.5884 0.03076 0.07766 0.0
C242 C 0.54457 0.03726 0.08194 0.0
C243 C 0.41843 0.04053 0.11131 0.0
C244 C 0.46113 0.0421 0.09825 0.0
H245 H 0.68335 0.08437 0.05868 0.0
H246 H 0.61088 0.0962 0.06429 0.0
H247 H 0.52236 0.98092 0.06049 0.0
H248 H 0.34653 0.97349 0.15469 0.0
H249 H 0.41489 0.97533 0.12908 0.0
C250 C 0.04672 0.37754 0.68343 0.0
C251 C 0.04101 0.34551 0.66346 0.0
C252 C 0.05026 0.41995 0.67252 0.0
C253 C 0.02254 0.48593 0.60762 0.0
H254 H 0.09464 0.57452 0.63902 0.0
C255 C 0.03393 0.65504 0.556 0.0
C256 C 0.02822 0.68536 0.57686 0.0
C257 C 0.04262 0.61497 0.56589 0.0
C258 C 0.07434 0.55004 0.63012 0.0
H259 H 0.03627 0.33228 0.61646 0.0
H260 H 0.0434 0.40589 0.59737 0.0
H261 H 0.09566 0.50103 0.65798 0.0
H262 H 0.03006 0.69892 0.62402 0.0
H263 H 0.045 0.62858 0.64139 0.0
H264 H 0.00098 0.53459 0.57998 0.0
C265 C 0.04408 0.3986 0.62149 0.0
C266 C 0.07479 0.50805 0.64103 0.0
C267 C 0.04021 0.35641 0.6324 0.0
C268 C 0.0341 0.67595 0.6075 0.0
C269 C 0.04283 0.63579 0.61741 0.0
C270 C 0.02228 0.52766 0.59666 0.0
C271 C 0.04837 0.43089 0.64145 0.0
C272 C 0.04884 0.47554 0.62987 0.0
C273 C 0.04578 0.60451 0.59682 0.0
C274 C 0.04811 0.56018 0.60777 0.0
H275 H 0.0474 0.36984 0.70751 0.0
H276 H 0.05318 0.44407 0.68851 0.0
H277 H 0.00142 0.46187 0.59906 0.0
H278 H 0.03004 0.66167 0.5322 0.0
H279 H 0.04553 0.59168 0.54944 0.0
C280 C 0.04762 0.21512 0.5633 0.0
C281 C 0.05148 0.19252 0.59101 0.0
C282 C 0.06688 0.20424 0.53645 0.0
C283 C 0.10653 0.11726 0.49898 0.0
H284 H 0.1574 0.20775 0.44135 0.0
C285 C 0.1773 0.08998 0.37824 0.0
C286 C 0.1676 0.11799 0.35472 0.0
C287 C 0.16739 0.09694 0.40863 0.0
C288 C 0.14316 0.1821 0.45711 0.0
H289 H 0.07865 0.14041 0.61207 0.0
H290 H 0.11231 0.121 0.56458 0.0
H291 H 0.13353 0.22375 0.49203 0.0
H292 H 0.1383 0.17427 0.34489 0.0
H293 H 0.12141 0.18644 0.39751 0.0
H294 H 0.11532 0.07576 0.46359 0.0
C295 C 0.09427 0.14731 0.56397 0.0
C296 C 0.12958 0.19126 0.48618 0.0
C297 C 0.07517 0.15853 0.59112 0.0
C298 C 0.14719 0.15262 0.36235 0.0
C299 C 0.13747 0.15961 0.39258 0.0
C300 C 0.12014 0.10805 0.46974 0.0
C301 C 0.09046 0.1703 0.53637 0.0
C302 C 0.11006 0.15917 0.50719 0.0
C303 C 0.14774 0.13213 0.41613 0.0
C304 C 0.13756 0.14059 0.44822 0.0
H305 H 0.02966 0.24148 0.56221 0.0
H306 H 0.06272 0.22215 0.51554 0.0
H307 H 0.09147 0.0919 0.51465 0.0
H308 H 0.19329 0.06316 0.3732 0.0
H309 H 0.17585 0.07527 0.42625 0.0
C310 C 0.94153 0.26728 0.78299 0.0
C311 C 0.92136 0.26433 0.75622 0.0
C312 C 0.9194 0.26032 0.81123 0.0
C313 C 0.86564 0.24914 0.87025 0.0
H314 H 0.79334 0.14421 0.87275 0.0
C315 C 0.79885 0.15729 0.98358 0.0
C316 C 0.80268 0.11384 0.98497 0.0
C317 C 0.8057 0.18174 0.95589 0.0
C318 C 0.81329 0.17363 0.87247 0.0
H319 H 0.86204 0.25478 0.73784 0.0
H320 H 0.82294 0.24266 0.78746 0.0
H321 H 0.81883 0.18076 0.82404 0.0
H322 H 0.81576 0.06202 0.95803 0.0
H323 H 0.82774 0.10438 0.91014 0.0
H324 H 0.86187 0.24067 0.9187 0.0
C325 C 0.85599 0.2503 0.78656 0.0
C326 C 0.82748 0.19494 0.84451 0.0
C327 C 0.87826 0.25781 0.75816 0.0
C328 C 0.81259 0.09534 0.95793 0.0
C329 C 0.81913 0.11963 0.93033 0.0
C330 C 0.85133 0.22787 0.89824 0.0
C331 C 0.87653 0.2497 0.81339 0.0
C332 C 0.85492 0.23226 0.843 0.0
C333 C 0.81613 0.1632 0.92894 0.0
C334 C 0.82608 0.18912 0.89964 0.0
H335 H 0.97481 0.27192 0.78208 0.0
H336 H 0.93637 0.2598 0.83128 0.0
H337 H 0.88643 0.27801 0.86991 0.0
H338 H 0.79122 0.17261 1.00394 0.0
H339 H 0.80291 0.21517 0.95559 0.0
C340 C 0.86511 0.80503 0.37147 0.0
C341 C 0.87557 0.83449 0.39267 0.0
C342 C 0.85773 0.81845 0.34181 0.0
C343 C 0.8733 0.91369 0.28651 0.0
H344 H 0.78769 0.85163 0.24577 0.0
C345 C 0.80349 0.98525 0.18229 0.0
C346 C 0.79866 0.9607 0.15733 0.0
C347 C 0.81451 0.96775 0.20979 0.0
C348 C 0.812 0.86903 0.25672 0.0
H349 H 0.88552 0.90127 0.39932 0.0
H350 H 0.8719 0.92465 0.34815 0.0
H351 H 0.80358 0.8255 0.29604 0.0
H352 H 0.8018 0.89821 0.14187 0.0
H353 H 0.81997 0.86711 0.1905 0.0
H354 H 0.88065 0.95791 0.24752 0.0
C355 C 0.87053 0.8911 0.35397 0.0
C356 C 0.82126 0.85402 0.28557 0.0
C357 C 0.87824 0.87768 0.38348 0.0
C358 C 0.80481 0.91788 0.16073 0.0
C359 C 0.81523 0.9001 0.18854 0.0
C360 C 0.86371 0.92888 0.25788 0.0
C361 C 0.86026 0.86174 0.3326 0.0
C362 C 0.85173 0.87641 0.3011 0.0
C363 C 0.82063 0.92502 0.21329 0.0
C364 C 0.83262 0.90703 0.24278 0.0
H365 H 0.86321 0.77152 0.37767 0.0
H366 H 0.85054 0.79479 0.32603 0.0
H367 H 0.89768 0.93134 0.2972 0.0
H368 H 0.80001 0.01851 0.18041 0.0
H369 H 0.81815 0.98776 0.22843 0.0
C370 C 0.14951 0.80473 0.77116 0.0
C371 C 0.13779 0.8387 0.75337 0.0
C372 C 0.15891 0.80933 0.80116 0.0
C373 C 0.18785 0.89104 0.85452 0.0
H374 H 0.15782 0.7982 0.91552 0.0
C375 C 0.20412 0.90922 0.9825 0.0
C376 C 0.21907 0.87612 0.99926 0.0
C377 C 0.1941 0.90482 0.95261 0.0
C378 C 0.16681 0.82432 0.89871 0.0
H379 H 0.12587 0.90395 0.75362 0.0
H380 H 0.14166 0.91186 0.80595 0.0
H381 H 0.13998 0.79026 0.86365 0.0
H382 H 0.23481 0.81226 0.99755 0.0
H383 H 0.21775 0.80476 0.94538 0.0
H384 H 0.21437 0.92517 0.88973 0.0
C385 C 0.14455 0.88184 0.79655 0.0
C386 C 0.15662 0.81976 0.86888 0.0
C387 C 0.13538 0.8773 0.76649 0.0
C388 C 0.22376 0.83854 0.98528 0.0
C389 C 0.21352 0.83406 0.95544 0.0
C390 C 0.19786 0.89565 0.88439 0.0
C391 C 0.15664 0.84798 0.81432 0.0
C392 C 0.16708 0.85301 0.84629 0.0
C393 C 0.19854 0.86713 0.93869 0.0
C394 C 0.18759 0.86232 0.90688 0.0
H395 H 0.15225 0.77473 0.76169 0.0
H396 H 0.16874 0.78271 0.81385 0.0
H397 H 0.1971 0.91713 0.83776 0.0
H398 H 0.20049 0.93877 0.9924 0.0
H399 H 0.18233 0.93082 0.94053 0.0
C400 C 0.80993 0.89814 0.86987 0.0
C401 C 0.83039 0.88109 0.89376 0.0
C402 C 0.81533 0.88453 0.84057 0.0
C403 C 0.85252 0.7965 0.79911 0.0
H404 H 0.86538 0.87773 0.72935 0.0
C405 C 0.93574 0.76744 0.68534 0.0
C406 C 0.92195 0.7834 0.65813 0.0
C407 C 0.91675 0.77516 0.71327 0.0
C408 C 0.86113 0.85447 0.74852 0.0
H409 H 0.87361 0.83717 0.90508 0.0
H410 H 0.88317 0.81379 0.85436 0.0
H411 H 0.84834 0.90069 0.77965 0.0
H412 H 0.87628 0.81868 0.6389 0.0
H413 H 0.84308 0.83253 0.68791 0.0
H414 H 0.86661 0.7506 0.76812 0.0
C415 C 0.86206 0.83687 0.85828 0.0
C416 C 0.85139 0.86766 0.77742 0.0
C417 C 0.85662 0.85038 0.88748 0.0
C418 C 0.88732 0.80554 0.65946 0.0
C419 C 0.86864 0.8139 0.68753 0.0
C420 C 0.86242 0.7834 0.7703 0.0
C421 C 0.84139 0.85356 0.83439 0.0
C422 C 0.84786 0.83902 0.80322 0.0
C423 C 0.88376 0.79957 0.71479 0.0
C424 C 0.86772 0.81236 0.74471 0.0
H425 H 0.7892 0.92156 0.87392 0.0
H426 H 0.79861 0.89786 0.82285 0.0
H427 H 0.84902 0.77328 0.81826 0.0
H428 H 0.96251 0.75051 0.68508 0.0
H429 H 0.92948 0.76395 0.73373 0.0
C430 C 0.25792 0.95684 0.28941 0.0
C431 C 0.25517 0.93315 0.26389 0.0
C432 C 0.24606 0.93779 0.31841 0.0
C433 C 0.16501 0.86784 0.35205 0.0
H434 H 0.22049 0.86074 0.42609 0.0
C435 C 0.0728 0.80891 0.4644 0.0
C436 C 0.08493 0.82614 0.49106 0.0
C437 C 0.0982 0.81643 0.43756 0.0
C438 C 0.2043 0.86301 0.40576 0.0
H439 H 0.24014 0.87066 0.24874 0.0
H440 H 0.21814 0.83756 0.29954 0.0
H441 H 0.26021 0.88376 0.37795 0.0
H442 H 0.13309 0.86456 0.51083 0.0
H443 H 0.17642 0.88031 0.46359 0.0
H444 H 0.10891 0.85076 0.37924 0.0
C445 C 0.23042 0.87061 0.29703 0.0
C446 C 0.22726 0.87568 0.37819 0.0
C447 C 0.24325 0.88947 0.26806 0.0
C448 C 0.12315 0.85078 0.49053 0.0
C449 C 0.14812 0.85945 0.46341 0.0
C450 C 0.14197 0.8563 0.37955 0.0
C451 C 0.23044 0.89498 0.32224 0.0
C452 C 0.2077 0.87808 0.35117 0.0
C453 C 0.13587 0.84265 0.43639 0.0
C454 C 0.16115 0.85369 0.40693 0.0
H455 H 0.26659 0.99067 0.28673 0.0
H456 H 0.24589 0.95723 0.33752 0.0
H457 H 0.14922 0.87039 0.3315 0.0
H458 H 0.04371 0.7892 0.46434 0.0
H459 H 0.08802 0.80163 0.41774 0.0
C460 C 0.12546 0.10424 0.85983 0.0
C461 C 0.1029 0.13791 0.8527 0.0
C462 C 0.13545 0.09537 0.88948 0.0
C463 C 0.10688 0.11271 0.96967 0.0
H464 H 0.21426 0.07794 0.98138 0.0
C465 C 0.16704 0.08039 0.08896 0.0
C466 C 0.18808 0.04463 0.09232 0.0
C467 C 0.15603 0.09445 0.06033 0.0
C468 C 0.18401 0.08728 0.97854 0.0
H469 H 0.07278 0.18834 0.87163 0.0
H470 H 0.09103 0.17338 0.92331 0.0
H471 H 0.19642 0.09735 0.93053 0.0
H472 H 0.21372 0.99566 0.06797 0.0
H473 H 0.19406 0.01947 1.01886 0.0
H474 H 0.0946 0.10234 1.0179 0.0
C475 C 0.10061 0.15355 0.9059 0.0
C476 C 0.17373 0.09837 0.94932 0.0
C477 C 0.09054 0.16243 0.87617 0.0
C478 C 0.19747 0.02322 0.06647 0.0
C479 C 0.18654 0.03717 0.03808 0.0
C480 C 0.11722 0.10163 0.99902 0.0
C481 C 0.12337 0.12001 0.91291 0.0
C482 C 0.13482 0.1106 0.94439 0.0
C483 C 0.16604 0.07316 0.0345 0.0
C484 C 0.1557 0.0881 1.00375 0.0
H485 H 0.13598 0.08495 0.84238 0.0
H486 H 0.15249 0.0689 0.89405 0.0
H487 H 0.07653 0.1217 0.96672 0.0
H488 H 0.15932 0.09766 0.10835 0.0
H489 H 0.14039 0.12242 0.05833 0.0
C490 C 0.81963 0.14166 0.2683 0.0
C491 C 0.79767 0.16799 0.25057 0.0
C492 C 0.82874 0.15127 0.29766 0.0
C493 C 0.83512 0.23999 0.34868 0.0
H494 H 0.83424 0.14994 0.41162 0.0
C495 C 0.84659 0.27153 0.47554 0.0
C496 C 0.87137 0.24724 0.49246 0.0
C497 C 0.83802 0.26215 0.44603 0.0
C498 C 0.83503 0.17549 0.39425 0.0
H499 H 0.76733 0.22474 0.2504 0.0
H500 H 0.78265 0.2412 0.30152 0.0
H501 H 0.81817 0.13293 0.36072 0.0
H502 H 0.90735 0.19442 0.49072 0.0
H503 H 0.89191 0.17784 0.43966 0.0
H504 H 0.85152 0.28254 0.38242 0.0
C505 C 0.79376 0.21356 0.29254 0.0
C506 C 0.82587 0.16572 0.36494 0.0
C507 C 0.78485 0.20406 0.26314 0.0
C508 C 0.88746 0.21341 0.47882 0.0
C509 C 0.87866 0.20388 0.44941 0.0
C510 C 0.84404 0.24976 0.37803 0.0
C511 C 0.81598 0.18741 0.31027 0.0
C512 C 0.82578 0.19782 0.34165 0.0
C513 C 0.85376 0.22806 0.43259 0.0
C514 C 0.84417 0.21765 0.40125 0.0
H515 H 0.83053 0.11394 0.25927 0.0
H516 H 0.84648 0.13067 0.31026 0.0
H517 H 0.83618 0.26563 0.33136 0.0
H518 H 0.83305 0.29739 0.48528 0.0
H519 H 0.81831 0.28116 0.43394 0.0
loop_
_geom_bond_atom_site_label_1
_geom_bond_atom_site_label_2
_geom_bond_distance
_geom_bond_site_symmetry_2
_ccdc_geom_bond_type
Pr0 C2 2.880 . S
Pr0 O20 2.562 . S
Pr0 O21 2.490 . S
Pr0 O22 2.695 . S
Pr0 O23 2.512 . S
Pr0 O25 2.437 . S
Pr0 O28 2.436 . S
Pr0 O30 2.438 . S
Pr1 C11 2.880 . S
Pr1 O22 2.436 1_565 S
Pr1 O24 2.438 . S
Pr1 O26 2.562 . S
Pr1 O27 2.490 . S
Pr1 O28 2.695 1_565 S
Pr1 O29 2.512 . S
Pr1 O31 2.437 1_565 S
C2 Pr0 2.880 . S
C2 C3 1.491 . S
C2 O20 1.254 . S
C2 O21 1.225 . S
C3 C2 1.491 . S
C3 C4 1.392 . S
C3 C8 1.356 . S
C4 C3 1.392 . S
C4 C5 1.368 . S
C4 H32 0.929 . S
C5 C4 1.368 . S
C5 C6 1.386 . S
C5 H33 0.929 . S
C6 C5 1.386 . S
C6 C7 1.373 . S
C7 C6 1.373 . S
C7 C8 1.409 . S
C7 H34 0.931 . S
C8 C3 1.356 . S
C8 C7 1.409 . S
C8 H35 0.930 . S
C9 O22 1.270 . S
C9 O23 1.248 . S
C10 O24 1.267 . S
C10 O25 1.278 1_565 S
C11 Pr1 2.880 . S
C11 C12 1.491 . S
C11 O26 1.254 . S
C11 O27 1.225 . S
C12 C11 1.491 . S
C12 C13 1.392 . S
C12 C17 1.356 . S
C13 C12 1.392 . S
C13 C14 1.368 1_554 S
C13 H36 0.929 . S
C14 C13 1.368 1_556 S
C14 C15 1.386 . S
C14 H37 0.929 . S
C15 C14 1.386 . S
C15 C16 1.373 . S
C16 C15 1.373 . S
C16 C17 1.409 1_556 S
C16 H38 0.931 . S
C17 C12 1.356 . S
C17 C16 1.409 1_554 S
C17 H39 0.930 . S
C18 O28 1.270 . S
C18 O29 1.248 1_545 S
C19 O30 1.267 . S
C19 O31 1.278 . S
O20 Pr0 2.562 . S
O20 C2 1.254 . S
O21 Pr0 2.490 . S
O21 C2 1.225 . S
O22 Pr0 2.695 . S
O22 Pr1 2.436 1_545 S
O22 C9 1.270 . S
O23 Pr0 2.512 . S
O23 C9 1.248 . S
O24 Pr1 2.438 . S
O24 C10 1.267 . S
O25 Pr0 2.437 . S
O25 C10 1.278 1_545 S
O26 Pr1 2.562 . S
O26 C11 1.254 . S
O27 Pr1 2.490 . S
O27 C11 1.225 . S
O28 Pr0 2.436 . S
O28 Pr1 2.695 1_545 S
O28 C18 1.270 . S
O29 Pr1 2.512 . S
O29 C18 1.248 1_565 S
O30 Pr0 2.438 . S
O30 C19 1.267 . S
O31 Pr1 2.437 1_545 S
O31 C19 1.278 . S
H32 C4 0.929 . S
H33 C5 0.929 . S
H34 C7 0.931 . S
H35 C8 0.930 . S
H36 C13 0.929 . S
H37 C14 0.929 . S
H38 C16 0.931 . S
H39 C17 0.930 . S
Pr40 C42 2.880 . S
Pr40 O60 2.562 . S
Pr40 O61 2.490 . S
Pr40 O62 2.695 1_655 S
Pr40 O63 2.512 . S
Pr40 O65 2.437 1_655 S
Pr40 O68 2.436 1_655 S
Pr40 O70 2.438 . S
Pr41 C51 2.880 . S
Pr41 O62 2.436 . S
Pr41 O64 2.438 . S
Pr41 O66 2.562 . S
Pr41 O67 2.490 . S
Pr41 O68 2.695 . S
Pr41 O69 2.512 . S
Pr41 O71 2.437 . S
C42 Pr40 2.880 . S
C42 C43 1.491 . S
C42 O60 1.254 . S
C42 O61 1.225 . S
C43 C42 1.491 . S
C43 C44 1.392 . S
C43 C48 1.356 . S
C44 C43 1.392 . S
C44 C45 1.368 . S
C44 H72 0.929 . S
C45 C44 1.368 . S
C45 C46 1.386 . S
C45 H73 0.929 . S
C46 C45 1.386 . S
C46 C47 1.373 . S
C47 C46 1.373 . S
C47 C48 1.409 . S
C47 H74 0.931 . S
C48 C43 1.356 . S
C48 C47 1.409 . S
C48 H75 0.930 . S
C49 O62 1.270 . S
C49 O63 1.248 1_455 S
C50 O64 1.267 . S
C50 O65 1.278 . S
C51 Pr41 2.880 . S
C51 C52 1.491 . S
C51 O66 1.254 . S
C51 O67 1.225 . S
C52 C51 1.491 . S
C52 C53 1.392 . S
C52 C57 1.356 . S
C53 C52 1.392 . S
C53 C54 1.368 . S
C53 H76 0.929 . S
C54 C53 1.368 . S
C54 C55 1.386 . S
C54 H77 0.929 . S
C55 C54 1.386 . S
C55 C56 1.373 . S
C56 C55 1.373 . S
C56 C57 1.409 . S
C56 H78 0.931 . S
C57 C52 1.356 . S
C57 C56 1.409 . S
C57 H79 0.930 . S
C58 O68 1.270 . S
C58 O69 1.248 . S
C59 O70 1.267 . S
C59 O71 1.278 1_655 S
O60 Pr40 2.562 . S
O60 C42 1.254 . S
O61 Pr40 2.490 . S
O61 C42 1.225 . S
O62 Pr40 2.695 1_455 S
O62 Pr41 2.436 . S
O62 C49 1.270 . S
O63 Pr40 2.512 . S
O63 C49 1.248 1_655 S
O64 Pr41 2.438 . S
O64 C50 1.267 . S
O65 Pr40 2.437 1_455 S
O65 C50 1.278 . S
O66 Pr41 2.562 . S
O66 C51 1.254 . S
O67 Pr41 2.490 . S
O67 C51 1.225 . S
O68 Pr40 2.436 1_455 S
O68 Pr41 2.695 . S
O68 C58 1.270 . S
O69 Pr41 2.512 . S
O69 C58 1.248 . S
O70 Pr40 2.438 . S
O70 C59 1.267 . S
O71 Pr41 2.437 . S
O71 C59 1.278 1_455 S
H72 C44 0.929 . S
H73 C45 0.929 . S
H74 C47 0.931 . S
H75 C48 0.930 . S
H76 C53 0.929 . S
H77 C54 0.929 . S
H78 C56 0.931 . S
H79 C57 0.930 . S
Pr80 C82 2.880 . S
Pr80 O100 2.562 . S
Pr80 O101 2.490 . S
Pr80 O102 2.695 . S
Pr80 O103 2.512 . S
Pr80 O105 2.437 . S
Pr80 O108 2.436 . S
Pr80 O110 2.438 . S
Pr81 C91 2.880 1_554 S
Pr81 O102 2.436 1_565 S
Pr81 O104 2.438 . S
Pr81 O106 2.562 . S
Pr81 O107 2.490 . S
Pr81 O108 2.695 1_565 S
Pr81 O109 2.512 . S
Pr81 O111 2.437 1_565 S
C82 Pr80 2.880 . S
C82 C83 1.491 . S
C82 O100 1.254 . S
C82 O101 1.225 . S
C83 C82 1.491 . S
C83 C84 1.392 . S
C83 C88 1.356 . S
C84 C83 1.392 . S
C84 C85 1.368 . S
C84 H112 0.929 . S
C85 C84 1.368 . S
C85 C86 1.386 . S
C85 H113 0.929 . S
C86 C85 1.386 . S
C86 C87 1.373 . S
C87 C86 1.373 . S
C87 C88 1.409 . S
C87 H114 0.931 . S
C88 C83 1.356 . S
C88 C87 1.409 . S
C88 H115 0.930 . S
C89 O102 1.270 . S
C89 O103 1.248 . S
C90 O104 1.267 . S
C90 O105 1.278 1_565 S
C91 Pr81 2.880 1_556 S
C91 C92 1.491 . S
C91 O106 1.254 1_556 S
C91 O107 1.225 1_556 S
C92 C91 1.491 . S
C92 C93 1.392 . S
C92 C97 1.356 . S
C93 C92 1.392 . S
C93 C94 1.368 . S
C93 H116 0.929 . S
C94 C93 1.368 . S
C94 C95 1.386 . S
C94 H117 0.929 . S
C95 C94 1.386 . S
C95 C96 1.373 . S
C96 C95 1.373 . S
C96 C97 1.409 . S
C96 H118 0.931 . S
C97 C92 1.356 . S
C97 C96 1.409 . S
C97 H119 0.930 . S
C98 O108 1.270 1_565 S
C98 O109 1.248 . S
C99 O110 1.267 . S
C99 O111 1.278 . S
O100 Pr80 2.562 . S
O100 C82 1.254 . S
O101 Pr80 2.490 . S
O101 C82 1.225 . S
O102 Pr80 2.695 . S
O102 Pr81 2.436 1_545 S
O102 C89 1.270 . S
O103 Pr80 2.512 . S
O103 C89 1.248 . S
O104 Pr81 2.438 . S
O104 C90 1.267 . S
O105 Pr80 2.437 . S
O105 C90 1.278 1_545 S
O106 Pr81 2.562 . S
O106 C91 1.254 1_554 S
O107 Pr81 2.490 . S
O107 C91 1.225 1_554 S
O108 Pr80 2.436 . S
O108 Pr81 2.695 1_545 S
O108 C98 1.270 1_545 S
O109 Pr81 2.512 . S
O109 C98 1.248 . S
O110 Pr80 2.438 . S
O110 C99 1.267 . S
O111 Pr81 2.437 1_545 S
O111 C99 1.278 . S
H112 C84 0.929 . S
H113 C85 0.929 . S
H114 C87 0.931 . S
H115 C88 0.930 . S
H116 C93 0.929 . S
H117 C94 0.929 . S
H118 C96 0.931 . S
H119 C97 0.930 . S
Pr120 C122 2.880 . S
Pr120 O140 2.562 . S
Pr120 O141 2.490 . S
Pr120 O142 2.695 1_655 S
Pr120 O143 2.512 . S
Pr120 O145 2.437 1_655 S
Pr120 O148 2.436 1_655 S
Pr120 O150 2.438 . S
Pr121 C131 2.880 . S
Pr121 O142 2.436 . S
Pr121 O144 2.438 . S
Pr121 O146 2.562 . S
Pr121 O147 2.490 . S
Pr121 O148 2.695 . S
Pr121 O149 2.512 . S
Pr121 O151 2.437 . S
C122 Pr120 2.880 . S
C122 C123 1.491 . S
C122 O140 1.254 . S
C122 O141 1.225 . S
C123 C122 1.491 . S
C123 C124 1.392 . S
C123 C128 1.356 . S
C124 C123 1.392 . S
C124 C125 1.368 . S
C124 H152 0.929 . S
C125 C124 1.368 . S
C125 C126 1.386 . S
C125 H153 0.929 . S
C126 C125 1.386 . S
C126 C127 1.373 . S
C127 C126 1.373 . S
C127 C128 1.409 . S
C127 H154 0.931 . S
C128 C123 1.356 . S
C128 C127 1.409 . S
C128 H155 0.930 . S
C129 O142 1.270 1_655 S
C129 O143 1.248 . S
C130 O144 1.267 . S
C130 O145 1.278 . S
C131 Pr121 2.880 . S
C131 C132 1.491 . S
C131 O146 1.254 . S
C131 O147 1.225 . S
C132 C131 1.491 . S
C132 C133 1.392 . S
C132 C137 1.356 . S
C133 C132 1.392 . S
C133 C134 1.368 . S
C133 H156 0.929 . S
C134 C133 1.368 . S
C134 C135 1.386 . S
C134 H157 0.929 . S
C135 C134 1.386 . S
C135 C136 1.373 . S
C136 C135 1.373 . S
C136 C137 1.409 . S
C136 H158 0.931 . S
C137 C132 1.356 . S
C137 C136 1.409 . S
C137 H159 0.930 . S
C138 O148 1.270 . S
C138 O149 1.248 . S
C139 O150 1.267 . S
C139 O151 1.278 1_655 S
O140 Pr120 2.562 . S
O140 C122 1.254 . S
O141 Pr120 2.490 . S
O141 C122 1.225 . S
O142 Pr120 2.695 1_455 S
O142 Pr121 2.436 . S
O142 C129 1.270 1_455 S
O143 Pr120 2.512 . S
O143 C129 1.248 . S
O144 Pr121 2.438 . S
O144 C130 1.267 . S
O145 Pr120 2.437 1_455 S
O145 C130 1.278 . S
O146 Pr121 2.562 . S
O146 C131 1.254 . S
O147 Pr121 2.490 . S
O147 C131 1.225 . S
O148 Pr120 2.436 1_455 S
O148 Pr121 2.695 . S
O148 C138 1.270 . S
O149 Pr121 2.512 . S
O149 C138 1.248 . S
O150 Pr120 2.438 . S
O150 C139 1.267 . S
O151 Pr121 2.437 . S
O151 C139 1.278 1_455 S
H152 C124 0.929 . S
H153 C125 0.929 . S
H154 C127 0.931 . S
H155 C128 0.930 . S
H156 C133 0.929 . S
H157 C134 0.929 . S
H158 C136 0.931 . S
H159 C137 0.930 . S
C160 C161 1.349 1_565 S
C160 C162 1.327 . S
C160 H185 0.950 . S
C161 C160 1.349 1_545 S
C161 C177 1.349 . S
C162 C160 1.327 . S
C162 C181 1.429 1_565 S
C162 H186 0.950 . S
C163 C180 1.574 1_655 S
C163 C182 1.368 . S
C163 H187 0.949 . S
H164 C168 0.949 . S
C165 C166 1.349 . S
C165 C167 1.327 . S
C165 H188 0.950 . S
C166 C165 1.349 . S
C166 C178 1.349 1_545 S
C167 C165 1.327 . S
C167 C183 1.429 . S
C167 H189 0.950 . S
C168 H164 0.949 . S
C168 C176 1.574 . S
C168 C184 1.368 1_565 S
H169 C177 0.950 . S
H170 C175 0.950 . S
H171 C176 0.949 1_655 S
H172 C178 0.950 . S
H173 C179 0.950 . S
H174 C180 0.949 . S
C175 H170 0.950 . S
C175 C177 1.327 . S
C175 C181 1.429 . S
C176 C168 1.574 . S
C176 H171 0.949 1_455 S
C176 C182 1.368 1_465 S
C177 C161 1.349 . S
C177 H169 0.950 . S
C177 C175 1.327 . S
C178 C166 1.349 1_565 S
C178 H172 0.950 . S
C178 C179 1.327 . S
C179 H173 0.950 . S
C179 C178 1.327 . S
C179 C183 1.429 1_565 S
C180 C163 1.574 1_455 S
C180 H174 0.949 . S
C180 C184 1.368 . S
C181 C162 1.429 1_545 S
C181 C175 1.429 . S
C181 C182 1.523 . S
C182 C163 1.368 . S
C182 C176 1.368 1_645 S
C182 C181 1.523 . S
C183 C167 1.429 . S
C183 C179 1.429 1_545 S
C183 C184 1.523 . S
C184 C168 1.368 1_545 S
C184 C180 1.368 . S
C184 C183 1.523 . S
H185 C160 0.950 . S
H186 C162 0.950 . S
H187 C163 0.949 . S
H188 C165 0.950 . S
H189 C167 0.950 . S
C190 C191 1.349 . S
C190 C192 1.327 . S
C190 H215 0.950 . S
C191 C190 1.349 . S
C191 C207 1.349 . S
C192 C190 1.327 . S
C192 C211 1.429 . S
C192 H216 0.950 . S
C193 C210 1.574 . S
C193 C212 1.368 1_545 S
C193 H217 0.949 . S
H194 C198 0.949 . S
C195 C196 1.349 . S
C195 C197 1.327 . S
C195 H218 0.950 . S
C196 C195 1.349 . S
C196 C208 1.349 . S
C197 C195 1.327 . S
C197 C213 1.429 . S
C197 H219 0.950 . S
C198 H194 0.949 . S
C198 C206 1.574 1_545 S
C198 C214 1.368 . S
H199 C207 0.950 . S
H200 C205 0.950 . S
H201 C206 0.949 . S
H202 C208 0.950 . S
H203 C209 0.950 . S
H204 C210 0.949 . S
C205 H200 0.950 . S
C205 C207 1.327 . S
C205 C211 1.429 . S
C206 C198 1.574 1_565 S
C206 H201 0.949 . S
C206 C212 1.368 . S
C207 C191 1.349 . S
C207 H199 0.950 . S
C207 C205 1.327 . S
C208 C196 1.349 . S
C208 H202 0.950 . S
C208 C209 1.327 . S
C209 H203 0.950 . S
C209 C208 1.327 . S
C209 C213 1.429 . S
C210 C193 1.574 . S
C210 H204 0.949 . S
C210 C214 1.368 . S
C211 C192 1.429 . S
C211 C205 1.429 . S
C211 C212 1.523 . S
C212 C193 1.368 1_565 S
C212 C206 1.368 . S
C212 C211 1.523 . S
C213 C197 1.429 . S
C213 C209 1.429 . S
C213 C214 1.523 . S
C214 C198 1.368 . S
C214 C210 1.368 . S
C214 C213 1.523 . S
H215 C190 0.950 . S
H216 C192 0.950 . S
H217 C193 0.949 . S
H218 C195 0.950 . S
H219 C197 0.950 . S
C220 C221 1.349 . S
C220 C222 1.327 . S
C220 H245 0.950 . S
C221 C220 1.349 . S
C221 C237 1.349 1_545 S
C222 C220 1.327 . S
C222 C241 1.429 . S
C222 H246 0.950 . S
C223 C240 1.574 . S
C223 C242 1.368 1_565 S
C223 H247 0.949 . S
H224 C228 0.949 . S
C225 C226 1.349 1_565 S
C225 C227 1.327 . S
C225 H248 0.950 . S
C226 C225 1.349 1_545 S
C226 C238 1.349 . S
C227 C225 1.327 . S
C227 C243 1.429 1_565 S
C227 H249 0.950 . S
C228 H224 0.949 . S
C228 C236 1.574 . S
C228 C244 1.368 . S
H229 C237 0.950 . S
H230 C235 0.950 . S
H231 C236 0.949 . S
H232 C238 0.950 . S
H233 C239 0.950 . S
H234 C240 0.949 . S
C235 H230 0.950 . S
C235 C237 1.327 . S
C235 C241 1.429 1_565 S
C236 C228 1.574 . S
C236 H231 0.949 . S
C236 C242 1.368 . S
C237 C221 1.349 1_565 S
C237 H229 0.950 . S
C237 C235 1.327 . S
C238 C226 1.349 . S
C238 H232 0.950 . S
C238 C239 1.327 . S
C239 H233 0.950 . S
C239 C238 1.327 . S
C239 C243 1.429 . S
C240 C223 1.574 . S
C240 H234 0.949 . S
C240 C244 1.368 1_565 S
C241 C222 1.429 . S
C241 C235 1.429 1_545 S
C241 C242 1.523 . S
C242 C223 1.368 1_545 S
C242 C236 1.368 . S
C242 C241 1.523 . S
C243 C227 1.429 1_545 S
C243 C239 1.429 . S
C243 C244 1.523 . S
C244 C228 1.368 . S
C244 C240 1.368 1_545 S
C244 C243 1.523 . S
H245 C220 0.950 . S
H246 C222 0.950 . S
H247 C223 0.949 . S
H248 C225 0.950 . S
H249 C227 0.950 . S
C250 C251 1.349 . S
C250 C252 1.327 . S
C250 H275 0.950 . S
C251 C250 1.349 . S
C251 C267 1.349 . S
C252 C250 1.327 . S
C252 C271 1.429 . S
C252 H276 0.950 . S
C253 C270 1.574 . S
C253 C272 1.368 1_655 S
C253 H277 0.949 . S
H254 C258 0.949 . S
C255 C256 1.349 1_655 S
C255 C257 1.327 . S
C255 H278 0.950 . S
C256 C255 1.349 1_455 S
C256 C268 1.349 . S
C257 C255 1.327 . S
C257 C273 1.429 1_655 S
C257 H279 0.950 . S
C258 H254 0.949 . S
C258 C266 1.574 . S
C258 C274 1.368 . S
H259 C267 0.950 1_655 S
H260 C265 0.950 . S
H261 C266 0.949 . S
H262 C268 0.950 . S
H263 C269 0.950 . S
H264 C270 0.949 . S
C265 H260 0.950 . S
C265 C267 1.327 1_655 S
C265 C271 1.429 1_655 S
C266 C258 1.574 . S
C266 H261 0.949 . S
C266 C272 1.368 . S
C267 C251 1.349 . S
C267 H259 0.950 1_455 S
C267 C265 1.327 1_455 S
C268 C256 1.349 . S
C268 H262 0.950 . S
C268 C269 1.327 . S
C269 H263 0.950 . S
C269 C268 1.327 . S
C269 C273 1.429 . S
C270 C253 1.574 . S
C270 H264 0.949 . S
C270 C274 1.368 1_655 S
C271 C252 1.429 . S
C271 C265 1.429 1_455 S
C271 C272 1.523 . S
C272 C253 1.368 1_455 S
C272 C266 1.368 . S
C272 C271 1.523 . S
C273 C257 1.429 1_455 S
C273 C269 1.429 . S
C273 C274 1.523 . S
C274 C258 1.368 . S
C274 C270 1.368 1_455 S
C274 C273 1.523 . S
H275 C250 0.950 . S
H276 C252 0.950 . S
H277 C253 0.949 . S
H278 C255 0.950 . S
H279 C257 0.950 . S
C280 C281 1.349 . S
C280 C282 1.327 . S
C280 H305 0.950 . S
C281 C280 1.349 . S
C281 C297 1.349 . S
C282 C280 1.327 . S
C282 C301 1.429 . S
C282 H306 0.950 . S
C283 C300 1.574 . S
C283 C302 1.368 . S
C283 H307 0.949 . S
H284 C288 0.949 . S
C285 C286 1.349 . S
C285 C287 1.327 . S
C285 H308 0.950 . S
C286 C285 1.349 . S
C286 C298 1.349 . S
C287 C285 1.327 . S
C287 C303 1.429 . S
C287 H309 0.950 . S
C288 H284 0.949 . S
C288 C296 1.574 . S
C288 C304 1.368 . S
H289 C297 0.950 . S
H290 C295 0.950 . S
H291 C296 0.949 . S
H292 C298 0.950 . S
H293 C299 0.950 . S
H294 C300 0.949 . S
C295 H290 0.950 . S
C295 C297 1.327 . S
C295 C301 1.429 . S
C296 C288 1.574 . S
C296 H291 0.949 . S
C296 C302 1.368 . S
C297 C281 1.349 . S
C297 H289 0.950 . S
C297 C295 1.327 . S
C298 C286 1.349 . S
C298 H292 0.950 . S
C298 C299 1.327 . S
C299 H293 0.950 . S
C299 C298 1.327 . S
C299 C303 1.429 . S
C300 C283 1.574 . S
C300 H294 0.949 . S
C300 C304 1.368 . S
C301 C282 1.429 . S
C301 C295 1.429 . S
C301 C302 1.523 . S
C302 C283 1.368 . S
C302 C296 1.368 . S
C302 C301 1.523 . S
C303 C287 1.429 . S
C303 C299 1.429 . S
C303 C304 1.523 . S
C304 C288 1.368 . S
C304 C300 1.368 . S
C304 C303 1.523 . S
H305 C280 0.950 . S
H306 C282 0.950 . S
H307 C283 0.949 . S
H308 C285 0.950 . S
H309 C287 0.950 . S
C310 C311 1.349 . S
C310 C312 1.327 . S
C310 H335 0.950 . S
C311 C310 1.349 . S
C311 C327 1.349 . S
C312 C310 1.327 . S
C312 C331 1.429 . S
C312 H336 0.950 . S
C313 C330 1.574 . S
C313 C332 1.368 . S
C313 H337 0.949 . S
H314 C318 0.949 . S
C315 C316 1.349 . S
C315 C317 1.327 . S
C315 H338 0.950 . S
C316 C315 1.349 . S
C316 C328 1.349 . S
C317 C315 1.327 . S
C317 C333 1.429 . S
C317 H339 0.950 . S
C318 H314 0.949 . S
C318 C326 1.574 . S
C318 C334 1.368 . S
H319 C327 0.950 . S
H320 C325 0.950 . S
H321 C326 0.949 . S
H322 C328 0.950 . S
H323 C329 0.950 . S
H324 C330 0.949 . S
C325 H320 0.950 . S
C325 C327 1.327 . S
C325 C331 1.429 . S
C326 C318 1.574 . S
C326 H321 0.949 . S
C326 C332 1.368 . S
C327 C311 1.349 . S
C327 H319 0.950 . S
C327 C325 1.327 . S
C328 C316 1.349 . S
C328 H322 0.950 . S
C328 C329 1.327 . S
C329 H323 0.950 . S
C329 C328 1.327 . S
C329 C333 1.429 . S
C330 C313 1.574 . S
C330 H324 0.949 . S
C330 C334 1.368 . S
C331 C312 1.429 . S
C331 C325 1.429 . S
C331 C332 1.523 . S
C332 C313 1.368 . S
C332 C326 1.368 . S
C332 C331 1.523 . S
C333 C317 1.429 . S
C333 C329 1.429 . S
C333 C334 1.523 . S
C334 C318 1.368 . S
C334 C330 1.368 . S
C334 C333 1.523 . S
H335 C310 0.950 . S
H336 C312 0.950 . S
H337 C313 0.949 . S
H338 C315 0.950 . S
H339 C317 0.950 . S
C340 C341 1.349 . S
C340 C342 1.327 . S
C340 H365 0.950 . S
C341 C340 1.349 . S
C341 C357 1.349 . S
C342 C340 1.327 . S
C342 C361 1.429 . S
C342 H366 0.950 . S
C343 C360 1.574 . S
C343 C362 1.368 . S
C343 H367 0.949 . S
H344 C348 0.949 . S
C345 C346 1.349 . S
C345 C347 1.327 . S
C345 H368 0.950 1_565 S
C346 C345 1.349 . S
C346 C358 1.349 . S
C347 C345 1.327 . S
C347 C363 1.429 . S
C347 H369 0.950 . S
C348 H344 0.949 . S
C348 C356 1.574 . S
C348 C364 1.368 . S
H349 C357 0.950 . S
H350 C355 0.950 . S
H351 C356 0.949 . S
H352 C358 0.950 . S
H353 C359 0.950 . S
H354 C360 0.949 . S
C355 H350 0.950 . S
C355 C357 1.327 . S
C355 C361 1.429 . S
C356 C348 1.574 . S
C356 H351 0.949 . S
C356 C362 1.368 . S
C357 C341 1.349 . S
C357 H349 0.950 . S
C357 C355 1.327 . S
C358 C346 1.349 . S
C358 H352 0.950 . S
C358 C359 1.327 . S
C359 H353 0.950 . S
C359 C358 1.327 . S
C359 C363 1.429 . S
C360 C343 1.574 . S
C360 H354 0.949 . S
C360 C364 1.368 . S
C361 C342 1.429 . S
C361 C355 1.429 . S
C361 C362 1.523 . S
C362 C343 1.368 . S
C362 C356 1.368 . S
C362 C361 1.523 . S
C363 C347 1.429 . S
C363 C359 1.429 . S
C363 C364 1.523 . S
C364 C348 1.368 . S
C364 C360 1.368 . S
C364 C363 1.523 . S
H365 C340 0.950 . S
H366 C342 0.950 . S
H367 C343 0.949 . S
H368 C345 0.950 1_545 S
H369 C347 0.950 . S
C370 C371 1.349 . S
C370 C372 1.327 . S
C370 H395 0.950 . S
C371 C370 1.349 . S
C371 C387 1.349 . S
C372 C370 1.327 . S
C372 C391 1.429 . S
C372 H396 0.950 . S
C373 C390 1.574 . S
C373 C392 1.368 . S
C373 H397 0.949 . S
H374 C378 0.949 . S
C375 C376 1.349 . S
C375 C377 1.327 . S
C375 H398 0.950 . S
C376 C375 1.349 . S
C376 C388 1.349 . S
C377 C375 1.327 . S
C377 C393 1.429 . S
C377 H399 0.950 . S
C378 H374 0.949 . S
C378 C386 1.574 . S
C378 C394 1.368 . S
H379 C387 0.950 . S
H380 C385 0.950 . S
H381 C386 0.949 . S
H382 C388 0.950 . S
H383 C389 0.950 . S
H384 C390 0.949 . S
C385 H380 0.950 . S
C385 C387 1.327 . S
C385 C391 1.429 . S
C386 C378 1.574 . S
C386 H381 0.949 . S
C386 C392 1.368 . S
C387 C371 1.349 . S
C387 H379 0.950 . S
C387 C385 1.327 . S
C388 C376 1.349 . S
C388 H382 0.950 . S
C388 C389 1.327 . S
C389 H383 0.950 . S
C389 C388 1.327 . S
C389 C393 1.429 . S
C390 C373 1.574 . S
C390 H384 0.949 . S
C390 C394 1.368 . S
C391 C372 1.429 . S
C391 C385 1.429 . S
C391 C392 1.523 . S
C392 C373 1.368 . S
C392 C386 1.368 . S
C392 C391 1.523 . S
C393 C377 1.429 . S
C393 C389 1.429 . S
C393 C394 1.523 . S
C394 C378 1.368 . S
C394 C390 1.368 . S
C394 C393 1.523 . S
H395 C370 0.950 . S
H396 C372 0.950 . S
H397 C373 0.949 . S
H398 C375 0.950 . S
H399 C377 0.950 . S
C400 C401 1.349 . S
C400 C402 1.327 . S
C400 H425 0.950 . S
C401 C400 1.349 . S
C401 C417 1.349 . S
C402 C400 1.327 . S
C402 C421 1.429 . S
C402 H426 0.950 . S
C403 C420 1.574 . S
C403 C422 1.368 . S
C403 H427 0.949 . S
H404 C408 0.949 . S
C405 C406 1.349 . S
C405 C407 1.327 . S
C405 H428 0.950 . S
C406 C405 1.349 . S
C406 C418 1.349 . S
C407 C405 1.327 . S
C407 C423 1.429 . S
C407 H429 0.950 . S
C408 H404 0.949 . S
C408 C416 1.574 . S
C408 C424 1.368 . S
H409 C417 0.950 . S
H410 C415 0.950 . S
H411 C416 0.949 . S
H412 C418 0.950 . S
H413 C419 0.950 . S
H414 C420 0.949 . S
C415 H410 0.950 . S
C415 C417 1.327 . S
C415 C421 1.429 . S
C416 C408 1.574 . S
C416 H411 0.949 . S
C416 C422 1.368 . S
C417 C401 1.349 . S
C417 H409 0.950 . S
C417 C415 1.327 . S
C418 C406 1.349 . S
C418 H412 0.950 . S
C418 C419 1.327 . S
C419 H413 0.950 . S
C419 C418 1.327 . S
C419 C423 1.429 . S
C420 C403 1.574 . S
C420 H414 0.949 . S
C420 C424 1.368 . S
C421 C402 1.429 . S
C421 C415 1.429 . S
C421 C422 1.523 . S
C422 C403 1.368 . S
C422 C416 1.368 . S
C422 C421 1.523 . S
C423 C407 1.429 . S
C423 C419 1.429 . S
C423 C424 1.523 . S
C424 C408 1.368 . S
C424 C420 1.368 . S
C424 C423 1.523 . S
H425 C400 0.950 . S
H426 C402 0.950 . S
H427 C403 0.949 . S
H428 C405 0.950 . S
H429 C407 0.950 . S
C430 C431 1.349 . S
C430 C432 1.327 . S
C430 H455 0.950 . S
C431 C430 1.349 . S
C431 C447 1.349 . S
C432 C430 1.327 . S
C432 C451 1.429 . S
C432 H456 0.950 . S
C433 C450 1.574 . S
C433 C452 1.368 . S
C433 H457 0.949 . S
H434 C438 0.949 . S
C435 C436 1.349 . S
C435 C437 1.327 . S
C435 H458 0.950 . S
C436 C435 1.349 . S
C436 C448 1.349 . S
C437 C435 1.327 . S
C437 C453 1.429 . S
C437 H459 0.950 . S
C438 H434 0.949 . S
C438 C446 1.574 . S
C438 C454 1.368 . S
H439 C447 0.950 . S
H440 C445 0.950 . S
H441 C446 0.949 . S
H442 C448 0.950 . S
H443 C449 0.950 . S
H444 C450 0.949 . S
C445 H440 0.950 . S
C445 C447 1.327 . S
C445 C451 1.429 . S
C446 C438 1.574 . S
C446 H441 0.949 . S
C446 C452 1.368 . S
C447 C431 1.349 . S
C447 H439 0.950 . S
C447 C445 1.327 . S
C448 C436 1.349 . S
C448 H442 0.950 . S
C448 C449 1.327 . S
C449 H443 0.950 . S
C449 C448 1.327 . S
C449 C453 1.429 . S
C450 C433 1.574 . S
C450 H444 0.949 . S
C450 C454 1.368 . S
C451 C432 1.429 . S
C451 C445 1.429 . S
C451 C452 1.523 . S
C452 C433 1.368 . S
C452 C446 1.368 . S
C452 C451 1.523 . S
C453 C437 1.429 . S
C453 C449 1.429 . S
C453 C454 1.523 . S
C454 C438 1.368 . S
C454 C450 1.368 . S
C454 C453 1.523 . S
H455 C430 0.950 . S
H456 C432 0.950 . S
H457 C433 0.949 . S
H458 C435 0.950 . S
H459 C437 0.950 . S
C460 C461 1.349 . S
C460 C462 1.327 . S
C460 H485 0.950 . S
C461 C460 1.349 . S
C461 C477 1.349 . S
C462 C460 1.327 . S
C462 C481 1.429 . S
C462 H486 0.950 . S
C463 C480 1.574 . S
C463 C482 1.368 . S
C463 H487 0.949 . S
H464 C468 0.949 . S
C465 C466 1.349 . S
C465 C467 1.327 . S
C465 H488 0.950 . S
C466 C465 1.349 . S
C466 C478 1.349 . S
C467 C465 1.327 . S
C467 C483 1.413 1_554 S
C467 H489 0.950 . S
C468 H464 0.949 . S
C468 C476 1.574 . S
C468 C484 1.368 . S
H469 C477 0.950 . S
H470 C475 0.950 . S
H471 C476 0.949 . S
H472 C478 0.950 . S
H473 C479 0.950 1_556 S
H474 C480 0.949 . S
C475 H470 0.950 . S
C475 C477 1.327 . S
C475 C481 1.429 . S
C476 C468 1.574 . S
C476 H471 0.949 . S
C476 C482 1.368 . S
C477 C461 1.349 . S
C477 H469 0.950 . S
C477 C475 1.327 . S
C478 C466 1.349 . S
C478 H472 0.950 . S
C478 C479 1.327 . S
C479 H473 0.950 1_554 S
C479 C478 1.327 . S
C479 C483 1.426 1_554 S
C480 C463 1.574 . S
C480 H474 0.949 . S
C480 C484 1.368 . S
C481 C462 1.429 . S
C481 C475 1.429 . S
C481 C482 1.523 . S
C482 C463 1.368 . S
C482 C476 1.368 . S
C482 C481 1.523 . S
C483 C467 1.413 1_556 S
C483 C479 1.426 1_556 S
C483 C484 1.539 . S
C484 C468 1.368 . S
C484 C480 1.368 . S
C484 C483 1.539 . S
H485 C460 0.950 . S
H486 C462 0.950 . S
H487 C463 0.949 . S
H488 C465 0.950 . S
H489 C467 0.950 . S
C490 C491 1.349 . S
C490 C492 1.327 . S
C490 H515 0.950 . S
C491 C490 1.349 . S
C491 C507 1.349 . S
C492 C490 1.327 . S
C492 C511 1.429 . S
C492 H516 0.950 . S
C493 C510 1.574 . S
C493 C512 1.368 . S
C493 H517 0.949 . S
H494 C498 0.949 . S
C495 C496 1.349 . S
C495 C497 1.327 . S
C495 H518 0.950 . S
C496 C495 1.349 . S
C496 C508 1.349 . S
C497 C495 1.327 . S
C497 C513 1.429 . S
C497 H519 0.950 . S
C498 H494 0.949 . S
C498 C506 1.574 . S
C498 C514 1.368 . S
H499 C507 0.950 . S
H500 C505 0.950 . S
H501 C506 0.949 . S
H502 C508 0.950 . S
H503 C509 0.950 . S
H504 C510 0.949 . S
C505 H500 0.950 . S
C505 C507 1.327 . S
C505 C511 1.429 . S
C506 C498 1.574 . S
C506 H501 0.949 . S
C506 C512 1.368 . S
C507 C491 1.349 . S
C507 H499 0.950 . S
C507 C505 1.327 . S
C508 C496 1.349 . S
C508 H502 0.950 . S
C508 C509 1.327 . S
C509 H503 0.950 . S
C509 C508 1.327 . S
C509 C513 1.429 . S
C510 C493 1.574 . S
C510 H504 0.949 . S
C510 C514 1.368 . S
C511 C492 1.429 . S
C511 C505 1.429 . S
C511 C512 1.523 . S
C512 C493 1.368 . S
C512 C506 1.368 . S
C512 C511 1.523 . S
C513 C497 1.429 . S
C513 C509 1.429 . S
C513 C514 1.523 . S
C514 C498 1.368 . S
C514 C510 1.368 . S
C514 C513 1.523 . S
H515 C490 0.950 . S
H516 C492 0.950 . S
H517 C493 0.949 . S
H518 C495 0.950 . S
H519 C497 0.950 . S
C161 C89 1.088 . S
C166 C18 1.088 . S
C191 C138 1.087 . S
C196 C49 1.087 . S
C221 C98 0.911 1_545 S
C226 C9 0.911 . S
C251 C58 0.912 . S
C256 C129 0.912 1_455 S
C281 C50 1.523 . S
C286 C6 1.553 . S
C311 C59 2.350 . S
C316 C99 2.350 1_556 S
C341 C126 1.553 . S
C346 C90 1.523 . S
C371 C135 0.821 . S
C376 C15 0.821 . S
C401 C95 1.553 . S
C406 C139 1.524 . S
C431 C10 2.350 . S
C436 C130 2.350 . S
C461 C55 1.553 . S
C466 C19 1.524 . S
C491 C86 0.821 . S
C496 C46 0.821 . S
