# Generated by pormake.
# Topology unc, (4)-cn, num edge types: 1
# Building blocks:
#     Node 0, Type 0, BuildingBlock: NAHDIM_clean_sbu_0, # of connection points: 4
#     Node 1, Type 0, BuildingBlock: NAHDIM_clean_sbu_0, # of connection points: 4
#     Node 2, Type 0, BuildingBlock: NAHDIM_clean_sbu_0, # of connection points: 4
#     Node 3, Type 0, BuildingBlock: NAHDIM_clean_sbu_0, # of connection points: 4
#     Edge 4, Type (0, 0), BuildingBlock: MIFKUJ_clean_linker_0, # of connection points: 2
#     Edge 5, Type (0, 0), BuildingBlock: MIFKUJ_clean_linker_0, # of connection points: 2
#     Edge 6, Type (0, 0), BuildingBlock: MIFKUJ_clean_linker_0, # of connection points: 2
#     Edge 7, Type (0, 0), BuildingBlock: MIFKUJ_clean_linker_0, # of connection points: 2
#     Edge 8, Type (0, 0), BuildingBlock: MIFKUJ_clean_linker_0, # of connection points: 2
#     Edge 9, Type (0, 0), BuildingBlock: MIFKUJ_clean_linker_0, # of connection points: 2
#     Edge 10, Type (0, 0), BuildingBlock: MIFKUJ_clean_linker_0, # of connection points: 2
#     Edge 11, Type (0, 0), BuildingBlock: MIFKUJ_clean_linker_0, # of connection points: 2
# Relax obj value: 0.113
# Max RMSD: 0.175
# Mean RMSD: 0.175
data_MOF--net-unc--node1-NAHDIM_clean_sbu_0--edge1-MIFKUJ_clean_linker_0
_symmetry_space_group_name_H-M    P1
_symmetry_Int_Tables_number       1
_symmetry_cell_setting            triclinic
loop_
_symmetry_equiv_pos_as_xyz
'x, y, z'
_cell_length_a     38.69624
_cell_length_b     38.646846
_cell_length_c     27.689137
_cell_angle_alpha  89.936935
_cell_angle_beta   90.027879
_cell_angle_gamma 95.78522
loop_
_atom_site_label
_atom_site_type_symbol
_atom_site_fract_x
_atom_site_fract_y
_atom_site_fract_z
_atom_type_partial_charge
C0 C 0.97016 0.73651 0.98134 0.0
O1 O 0.00242 0.75081 0.98098 0.0
O2 O 0.02289 0.65618 0.97157 0.0
Zn3 Zn 0.00322 0.68236 0.02613 0.0
O4 O 0.04021 0.71774 0.05292 0.0
C5 C 0.00859 0.62572 0.08841 0.0
O6 O 0.0388 0.62789 0.06647 0.0
O7 O 0.96335 0.70671 0.00052 0.0
C8 C 0.07239 0.71384 0.05032 0.0
O9 O 0.08217 0.68548 0.03069 0.0
C10 C 0.03859 0.67036 0.93522 0.0
O11 O 0.04249 0.70441 0.93162 0.0
O12 O 0.98722 0.6474 0.07753 0.0
C13 C 0.29968 0.10159 0.23812 0.0
O14 O 0.28766 0.0811 0.2028 0.0
O15 O 0.3752 0.03854 0.30354 0.0
Zn16 Zn 0.35261 0.05421 0.24269 0.0
O17 O 0.31822 0.01607 0.21714 0.0
C18 C 0.41925 0.05732 0.19558 0.0
O19 O 0.42683 0.0389 0.2333 0.0
O20 O 0.3275 0.0955 0.25945 0.0
C21 C 0.32741 0.99187 0.19048 0.0
O22 O 0.36036 0.99145 0.17928 0.0
C23 C 0.37694 0.00688 0.31497 0.0
O24 O 0.36258 0.98219 0.2868 0.0
O25 O 0.38904 0.06733 0.19203 0.0
C26 C 0.06915 0.30964 0.48149 0.0
O27 O 0.03663 0.30724 0.4671 0.0
O28 O 0.02376 0.38373 0.48916 0.0
Zn29 Zn 0.04135 0.35633 0.54413 0.0
O30 O 0.00351 0.32332 0.57268 0.0
C31 C 0.07855 0.41796 0.58117 0.0
O32 O 0.08526 0.42303 0.53505 0.0
O33 O 0.07832 0.32941 0.51683 0.0
C34 C 0.97498 0.33326 0.58712 0.0
O35 O 0.96989 0.36629 0.58384 0.0
C36 C 0.9951 0.37858 0.46658 0.0
O37 O 0.97217 0.3528 0.47923 0.0
O38 O 0.0608 0.39009 0.59435 0.0
C39 C 0.7397 0.94526 0.74128 0.0
O40 O 0.75403 0.96736 0.70928 0.0
O41 O 0.66082 0.00773 0.79659 0.0
Zn42 Zn 0.6857 0.99118 0.73868 0.0
O43 O 0.72078 0.03017 0.71752 0.0
C44 C 0.61992 0.96837 0.69456 0.0
O45 O 0.60996 0.96426 0.73972 0.0
O46 O 0.70996 0.94975 0.75814 0.0
C47 C 0.71391 0.05274 0.6865 0.0
O48 O 0.68309 0.05027 0.66612 0.0
C49 C 0.64244 0.03309 0.79334 0.0
O50 O 0.63964 0.04846 0.7514 0.0
O51 O 0.65145 0.97873 0.68535 0.0
H52 H 0.94512 0.60516 0.12922 0.0
H53 H 0.93168 0.55852 0.18847 0.0
H54 H 0.0394 0.53841 0.18939 0.0
H55 H 0.05267 0.58388 0.12952 0.0
H56 H 0.00054 0.47963 0.18738 0.0
H57 H 0.0016 0.58644 0.27959 0.0
H58 H 0.98233 0.64348 0.30048 0.0
H59 H 0.87842 0.59586 0.32266 0.0
H60 H 0.89703 0.53856 0.30133 0.0
H61 H 0.04311 0.4195 0.41543 0.0
H62 H 0.03341 0.45631 0.3462 0.0
H63 H 0.92327 0.42582 0.3543 0.0
H64 H 0.93281 0.38804 0.42366 0.0
H65 H 0.94877 0.50328 0.3464 0.0
H66 H 0.95431 0.39351 0.26808 0.0
H67 H 0.97871 0.33794 0.2534 0.0
H68 H 0.07556 0.39314 0.20991 0.0
H69 H 0.0519 0.44908 0.22497 0.0
C70 C 0.96587 0.59074 0.14214 0.0
C71 C -4e-05 0.59822 0.12479 0.0
C72 C 0.95818 0.56415 0.17601 0.0
C73 C 0.98458 0.54507 0.1936 0.0
C74 C 0.01854 0.55257 0.17614 0.0
C75 C 0.02613 0.57874 0.14203 0.0
C76 C 0.97755 0.51757 0.23076 0.0
C77 C 0.98914 0.48484 0.22208 0.0
C78 C 0.96179 0.52394 0.27564 0.0
C79 C 0.95058 0.55835 0.28822 0.0
C80 C 0.97458 0.5882 0.28851 0.0
C81 C 0.96379 0.62056 0.30051 0.0
C82 C 0.92914 0.62332 0.31271 0.0
C83 C 0.90523 0.5937 0.31307 0.0
C84 C 0.91587 0.56128 0.30104 0.0
C85 C 0.01678 0.42055 0.40262 0.0
C86 C 0.98869 0.40089 0.42493 0.0
C87 C 0.01133 0.44152 0.363 0.0
C88 C 0.97769 0.44355 0.34524 0.0
C89 C 0.94941 0.4244 0.36764 0.0
C90 C 0.95492 0.40284 0.40701 0.0
C91 C 0.97286 0.46613 0.30331 0.0
C92 C 0.95914 0.49784 0.31111 0.0
C93 C 0.98717 0.45909 0.2579 0.0
C94 C 0.00135 0.42551 0.24788 0.0
C95 C 0.98088 0.39381 0.25566 0.0
C96 C 0.99457 0.36224 0.24722 0.0
C97 C 0.02867 0.36201 0.23079 0.0
C98 C 0.04913 0.39336 0.22261 0.0
C99 C 0.03557 0.42502 0.231 0.0
H100 H 0.03922 0.33753 0.22433 0.0
H101 H 0.92085 0.64838 0.32202 0.0
H102 H 0.40306 0.05036 0.38663 0.0
H103 H 0.44259 0.03733 0.45137 0.0
H104 H 0.43916 0.93119 0.402 0.0
H105 H 0.39879 0.94377 0.33782 0.0
H106 H 0.44037 0.93307 0.49776 0.0
H107 H 0.50616 0.99016 0.37019 0.0
H108 H 0.52138 0.03598 0.3096 0.0
H109 H 0.53935 0.11175 0.42249 0.0
H110 H 0.52369 0.06647 0.48375 0.0
H111 H 0.63245 0.96385 0.59789 0.0
H112 H 0.59012 0.96223 0.53224 0.0
H113 H 0.50725 0.96423 0.63622 0.0
H114 H 0.54931 0.96457 0.70197 0.0
H115 H 0.55157 0.00886 0.50702 0.0
H116 H 0.43124 0.92809 0.59153 0.0
H117 H 0.41859 0.87777 0.64584 0.0
H118 H 0.51588 0.84048 0.60821 0.0
H119 H 0.52891 0.89029 0.5532 0.0
C120 C 0.41043 0.02415 0.38982 0.0
C121 C 0.39812 0.99818 0.35681 0.0
C122 C 0.43309 0.01677 0.42675 0.0
C123 C 0.44436 0.98348 0.43086 0.0
C124 C 0.43089 0.95708 0.39933 0.0
C125 C 0.4079 0.96436 0.36263 0.0
C126 C 0.47145 0.9768 0.46656 0.0
C127 C 0.46471 0.94957 0.49987 0.0
C128 C 0.50364 0.99768 0.46824 0.0
C129 C 0.51348 0.02495 0.43154 0.0
C130 C 0.51315 0.01663 0.38208 0.0
C131 C 0.52187 0.0425 0.34762 0.0
C132 C 0.53127 0.07676 0.36218 0.0
C133 C 0.53204 0.0852 0.41126 0.0
C134 C 0.52327 0.05944 0.44588 0.0
C135 C 0.60515 0.96341 0.60675 0.0
C136 C 0.59419 0.96436 0.65506 0.0
C137 C 0.58099 0.96256 0.56921 0.0
C138 C 0.54545 0.96291 0.57921 0.0
C139 C 0.53442 0.96322 0.62752 0.0
C140 C 0.55853 0.96358 0.66511 0.0
C141 C 0.5203 0.96554 0.53921 0.0
C142 C 0.52736 0.99213 0.50497 0.0
C143 C 0.48893 0.94337 0.53586 0.0
C144 C 0.48117 0.91313 0.56856 0.0
C145 C 0.44987 0.90908 0.59469 0.0
C146 C 0.44265 0.88066 0.62563 0.0
C147 C 0.46646 0.856 0.63058 0.0
C148 C 0.49751 0.85966 0.60449 0.0
C149 C 0.50485 0.88802 0.57348 0.0
H150 H 0.46082 0.83403 0.65457 0.0
H151 H 0.53801 0.09676 0.33545 0.0
H152 H 0.04159 0.60025 0.93758 0.0
H153 H 0.06193 0.56352 0.87433 0.0
H154 H 0.08724 0.65374 0.7844 0.0
H155 H 0.06662 0.6909 0.8477 0.0
H156 H 0.04947 0.60186 0.73643 0.0
H157 H 0.15192 0.61278 0.8311 0.0
H158 H 0.18732 0.61324 0.90515 0.0
H159 H 0.15411 0.50514 0.92844 0.0
H160 H 0.11805 0.50413 0.8549 0.0
H161 H 0.10543 0.4849 0.56298 0.0
H162 H 0.11221 0.53319 0.62038 0.0
H163 H 0.0783 0.46309 0.73615 0.0
H164 H 0.07158 0.41469 0.67922 0.0
H165 H 0.13133 0.51289 0.76423 0.0
H166 H 0.02066 0.50652 0.67963 0.0
H167 H 0.98378 0.50591 0.6069 0.0
H168 H 0.03264 0.60635 0.56591 0.0
H169 H 0.07018 0.60729 0.63814 0.0
C170 C 0.05168 0.61239 0.90451 0.0
C171 C 0.05237 0.64848 0.89755 0.0
C172 C 0.06358 0.59137 0.86854 0.0
C173 C 0.07651 0.60598 0.82495 0.0
C174 C 0.07755 0.64203 0.81795 0.0
C175 C 0.06577 0.66318 0.85412 0.0
C176 C 0.08641 0.58297 0.78569 0.0
C177 C 0.06808 0.58302 0.742 0.0
C178 C 0.11031 0.55809 0.79333 0.0
C179 C 0.1321 0.55844 0.83754 0.0
C180 C 0.15195 0.58915 0.85217 0.0
C181 C 0.17217 0.58951 0.89405 0.0
C182 C 0.17293 0.55925 0.92152 0.0
C183 C 0.1535 0.52856 0.90711 0.0
C184 C 0.1332 0.52807 0.86528 0.0
C185 C 0.10003 0.47963 0.6008 0.0
C186 C 0.08751 0.44606 0.61649 0.0
C187 C 0.10389 0.50727 0.63349 0.0
C188 C 0.09534 0.50172 0.68232 0.0
C189 C 0.08501 0.46788 0.69857 0.0
C190 C 0.081 0.44029 0.66593 0.0
C191 C 0.09373 0.53133 0.71574 0.0
C192 C 0.11349 0.5324 0.75828 0.0
C193 C 0.07113 0.55728 0.70715 0.0
C194 C 0.04852 0.55677 0.66387 0.0
C195 C 0.02373 0.52833 0.65487 0.0
C196 C 0.00268 0.52795 0.6138 0.0
C197 C 0.00595 0.55602 0.58171 0.0
C198 C 0.03021 0.58458 0.59073 0.0
C199 C 0.05137 0.58506 0.63172 0.0
H200 H 0.98962 0.55569 0.54993 0.0
H201 H 0.1886 0.55958 0.95393 0.0
H202 H 0.48311 0.03372 0.18834 0.0
H203 H 0.52308 0.04023 0.1203 0.0
H204 H 0.45358 0.10259 0.04546 0.0
H205 H 0.41285 0.09542 0.11316 0.0
H206 H 0.47296 0.05432 0.98797 0.0
H207 H 0.53259 0.1388 0.09087 0.0
H208 H 0.55905 0.1626 0.16637 0.0
H209 H 0.63215 0.0861 0.16376 0.0
H210 H 0.60582 0.06149 0.08859 0.0
H211 H 0.59475 0.08066 0.79616 0.0
H212 H 0.55939 0.09509 0.8651 0.0
H213 H 0.61022 0.02415 0.95467 0.0
H214 H 0.64577 0.00966 0.88614 0.0
H215 H 0.60007 0.08604 0.00177 0.0
H216 H 0.53454 0.99767 0.90506 0.0
H217 H 0.50812 0.97408 0.82937 0.0
H218 H 0.44587 0.0598 0.82077 0.0
H219 H 0.47236 0.08419 0.89608 0.0
C220 C 0.47643 0.04915 0.15767 0.0
C221 C 0.44472 0.06394 0.15607 0.0
C222 C 0.49947 0.05306 0.11888 0.0
C223 C 0.49154 0.07226 0.07798 0.0
C224 C 0.46026 0.08774 0.07672 0.0
C225 C 0.43704 0.08365 0.11544 0.0
C226 C 0.51474 0.07379 0.03527 0.0
C227 C 0.50063 0.06206 0.9908 0.0
C228 C 0.55095 0.08331 0.03909 0.0
C229 C 0.56705 0.09815 0.0842 0.0
C230 C 0.55415 0.12688 0.10655 0.0
C231 C 0.56916 0.14055 0.14928 0.0
C232 C 0.59722 0.12584 0.16989 0.0
C233 C 0.6104 0.09747 0.14775 0.0
C234 C 0.59547 0.08368 0.10504 0.0
C235 C 0.59865 0.06838 0.83064 0.0
C236 C 0.62281 0.04375 0.83561 0.0
C237 C 0.57842 0.07665 0.86993 0.0
C238 C 0.58204 0.06045 0.91476 0.0
C239 C 0.6071 0.03695 0.92033 0.0
C240 C 0.62723 0.02855 0.88106 0.0
C241 C 0.55824 0.06608 0.95512 0.0
C242 C 0.57228 0.07902 -0.00101 0.0
C243 C 0.52193 0.05781 0.9508 0.0
C244 C 0.50572 0.04295 0.90586 0.0
C245 C 0.51542 0.01162 0.88682 0.0
C246 C 0.50041 0.99809 0.84403 0.0
C247 C 0.47541 0.01549 0.8202 0.0
C248 C 0.46529 0.04639 0.83922 0.0
C249 C 0.48028 0.06008 0.88195 0.0
H250 H 0.46382 0.00498 0.78706 0.0
H251 H 0.60879 0.13645 0.20298 0.0
H252 H 0.33943 0.92846 0.15439 0.0
H253 H 0.29637 0.88077 0.13119 0.0
H254 H 0.21392 0.94381 0.16626 0.0
H255 H 0.25685 0.99113 0.19116 0.0
H256 H 0.19907 0.88152 0.20075 0.0
H257 H 0.23871 0.92738 0.04669 0.0
H258 H 0.28206 0.94617 0.98426 0.0
H259 H 0.31471 0.84329 0.97934 0.0
H260 H 0.27184 0.82399 0.04219 0.0
H261 H 0.06153 0.77846 0.08359 0.0
H262 H 0.1053 0.82509 0.10819 0.0
H263 H 0.18627 0.75876 0.08019 0.0
H264 H 0.14272 0.71219 0.05465 0.0
H265 H 0.20217 0.82197 0.04244 0.0
H266 H 0.16138 0.77622 0.19599 0.0
H267 H 0.11736 0.7578 0.25769 0.0
H268 H 0.08607 0.86123 0.26257 0.0
H269 H 0.1296 0.88016 0.20041 0.0
C270 C 0.31212 0.93221 0.1569 0.0
C271 C 0.3015 0.96354 0.17451 0.0
C272 C 0.28753 0.90498 0.14345 0.0
C273 C 0.25188 0.90885 0.14636 0.0
C274 C 0.24127 0.94021 0.16373 0.0
C275 C 0.26583 0.96726 0.17783 0.0
C276 C 0.22557 0.87996 0.13245 0.0
C277 C 0.19948 0.86883 0.16585 0.0
C278 C 0.22658 0.86279 0.0874 0.0
C279 C 0.25229 0.87433 0.04947 0.0
C280 C 0.2553 0.90883 0.03253 0.0
C281 C 0.27976 0.91956 0.99703 0.0
C282 C 0.30118 0.89596 0.97794 0.0
C283 C 0.29813 0.86155 0.9942 0.0
C284 C 0.27373 0.85069 0.02973 0.0
C285 C 0.08863 0.7737 0.08294 0.0
C286 C 0.09865 0.7416 0.06723 0.0
C287 C 0.11361 0.80035 0.09717 0.0
C288 C 0.14902 0.79527 0.09648 0.0
C289 C 0.15908 0.76321 0.081 0.0
C290 C 0.13414 0.7366 0.06655 0.0
C291 C 0.17566 0.82369 0.11065 0.0
C292 C 0.20181 0.83469 0.07732 0.0
C293 C 0.17462 0.84083 0.15566 0.0
C294 C 0.14854 0.82952 0.19323 0.0
C295 C 0.14494 0.79497 0.20996 0.0
C296 C 0.12011 0.78445 0.24507 0.0
C297 C 0.09888 0.80831 0.26396 0.0
C298 C 0.1025 0.84276 0.24787 0.0
C299 C 0.12727 0.85341 0.21274 0.0
H300 H 0.07966 0.80011 0.29112 0.0
H301 H 0.32011 0.90432 0.95046 0.0
H302 H 0.31964 0.15184 0.30457 0.0
H303 H 0.28359 0.1928 0.3418 0.0
H304 H 0.1973 0.15389 0.25178 0.0
H305 H 0.23342 0.11335 0.21352 0.0
H306 H 0.1993 0.22344 0.26325 0.0
H307 H 0.20521 0.12344 0.36619 0.0
H308 H 0.23504 0.08106 0.41318 0.0
H309 H 0.28332 0.16352 0.5015 0.0
H310 H 0.25412 0.20647 0.45456 0.0
H311 H 0.0575 0.26637 0.40417 0.0
H312 H 0.09991 0.23611 0.35994 0.0
H313 H 0.18117 0.28025 0.45479 0.0
H314 H 0.13875 0.31036 0.49977 0.0
H315 H 0.18461 0.21169 0.44078 0.0
H316 H 0.1743 0.31139 0.34117 0.0
H317 H 0.14321 0.35298 0.29456 0.0
H318 H 0.10189 0.27082 0.20036 0.0
H319 H 0.13234 0.2286 0.24684 0.0
C320 C 0.29312 0.15228 0.29225 0.0
C321 C 0.27922 0.12904 0.25655 0.0
C322 C 0.27254 0.17566 0.31363 0.0
C323 C 0.23759 0.17587 0.30022 0.0
C324 C 0.22418 0.15403 0.26279 0.0
C325 C 0.24484 0.13082 0.24106 0.0
C326 C 0.2144 0.19712 0.32733 0.0
C327 C 0.19585 0.22072 0.30199 0.0
C328 C 0.21045 0.194 0.37804 0.0
C329 C 0.22777 0.16819 0.40656 0.0
C330 C 0.22237 0.13255 0.39542 0.0
C331 C 0.23914 0.10843 0.42207 0.0
C332 C 0.26113 0.1196 0.46022 0.0
C333 C 0.26632 0.15491 0.47189 0.0
C334 C 0.24966 0.17915 0.4453 0.0
C335 C 0.08438 0.26967 0.4157 0.0
C336 C 0.09479 0.2908 0.45545 0.0
C337 C 0.10862 0.25252 0.39016 0.0
C338 C 0.14375 0.25638 0.40365 0.0
C339 C 0.15418 0.27709 0.44368 0.0
C340 C 0.12993 0.29426 0.46931 0.0
C341 C 0.16936 0.23793 0.37672 0.0
C342 C 0.1883 0.21474 0.4021 0.0
C343 C 0.17351 0.24138 0.32609 0.0
C344 C 0.15542 0.26677 0.29774 0.0
C345 C 0.1584 0.30213 0.31072 0.0
C346 C 0.14091 0.32583 0.2843 0.0
C347 C 0.12055 0.31454 0.24458 0.0
C348 C 0.11767 0.27952 0.23115 0.0
C349 C 0.13507 0.2557 0.25749 0.0
H350 H 0.10709 0.33293 0.22413 0.0
H351 H 0.2741 0.10089 0.4808 0.0
H352 H 0.7823 0.06096 0.7123 0.0
H353 H 0.82442 0.11115 0.69733 0.0
H354 H 0.74605 0.16249 0.6225 0.0
H355 H 0.70394 0.11186 0.63619 0.0
H356 H 0.80492 0.17225 0.57544 0.0
H357 H 0.7708 0.18506 0.73896 0.0
H358 H 0.75899 0.16745 0.82344 0.0
H359 H 0.86628 0.15143 0.84324 0.0
H360 H 0.87865 0.16846 0.75862 0.0
H361 H 0.90521 0.33869 0.58542 0.0
H362 H 0.85851 0.29314 0.60513 0.0
H363 H 0.93456 0.22403 0.64509 0.0
H364 H 0.98136 0.26905 0.62441 0.0
H365 H 0.87394 0.22718 0.71125 0.0
H366 H 0.90511 0.21131 0.54329 0.0
H367 H 0.91524 0.23159 0.45954 0.0
H368 H 0.80995 0.25705 0.45018 0.0
H369 H 0.79939 0.23743 0.53425 0.0
C370 C 0.77402 0.08289 0.69255 0.0
C371 C 0.73974 0.08254 0.67566 0.0
C372 C 0.79808 0.11166 0.68425 0.0
C373 C 0.7882 0.14088 0.65965 0.0
C374 C 0.75419 0.14029 0.64178 0.0
C375 C 0.73016 0.11135 0.64966 0.0
C376 C 0.8135 0.17191 0.6524 0.0
C377 C 0.81956 0.18457 0.6053 0.0
C378 C 0.83285 0.1879 0.69129 0.0
C379 C 0.82559 0.17775 0.74229 0.0
C380 C 0.79183 0.17753 0.76121 0.0
C381 C 0.78504 0.16769 0.80914 0.0
C382 C 0.81185 0.15825 0.83865 0.0
C383 C 0.84553 0.15872 0.82032 0.0
C384 C 0.85246 0.1685 0.77238 0.0
C385 C 0.91194 0.31392 0.59896 0.0
C386 C 0.94685 0.30728 0.60323 0.0
C387 C 0.8853 0.28799 0.61006 0.0
C388 C 0.89326 0.25535 0.62636 0.0
C389 C 0.92804 0.24914 0.63259 0.0
C390 C 0.95466 0.27478 0.6206 0.0
C391 C 0.86543 0.22694 0.63449 0.0
C392 C 0.85897 0.21489 0.68167 0.0
C393 C 0.84537 0.21184 0.59586 0.0
C394 C 0.8516 0.22332 0.54522 0.0
C395 C 0.88423 0.22155 0.52353 0.0
C396 C 0.89003 0.23286 0.47598 0.0
C397 C 0.86329 0.24571 0.44961 0.0
C398 C 0.83066 0.24716 0.47069 0.0
C399 C 0.82475 0.23594 0.51828 0.0
H400 H 0.86782 0.25444 0.41279 0.0
H401 H 0.80654 0.15065 0.87576 0.0
H402 H 0.71567 0.89112 0.8 0.0
H403 H 0.7495 0.84836 0.83794 0.0
H404 H 0.84188 0.8946 0.76626 0.0
H405 H 0.80809 0.93667 0.72712 0.0
H406 H 0.84165 0.82661 0.76711 0.0
H407 H 0.8218 0.91446 0.88511 0.0
H408 H 0.78598 0.95003 0.93467 0.0
H409 H 0.73543 0.85759 -2e-05 0.0
H410 H 0.77068 0.82144 0.95032 0.0
H411 H 0.97888 0.79206 0.92058 0.0
H412 H 0.93411 0.8201 0.87783 0.0
H413 H 0.85472 0.74922 0.94398 0.0
H414 H 0.89958 0.72053 0.98679 0.0
H415 H 0.8424 0.8217 0.94625 0.0
H416 H 0.86984 0.73483 0.83368 0.0
H417 H 0.9087 0.70161 0.78558 0.0
H418 H 0.94801 0.79488 0.71113 0.0
H419 H 0.90977 0.82878 0.75933 0.0
C420 C 0.74313 0.89194 0.79195 0.0
C421 C 0.75929 0.91749 0.76092 0.0
C422 C 0.76244 0.86757 0.8138 0.0
C423 C 0.79835 0.86869 0.80566 0.0
C424 C 0.81422 0.89328 0.77317 0.0
C425 C 0.79487 0.91739 0.7509 0.0
C426 C 0.81987 0.84544 0.83248 0.0
C427 C 0.8419 0.82567 0.80627 0.0
C428 C 0.81964 0.84356 0.8836 0.0
C429 C 0.79856 0.86525 0.91361 0.0
C430 C 0.80286 0.90172 0.90979 0.0
C431 C 0.7827 0.92198 0.93793 0.0
C432 C 0.75837 0.90608 0.97034 0.0
C433 C 0.75424 0.86987 0.97479 0.0
C434 C 0.77431 0.84948 0.94668 0.0
C435 C 0.95192 0.78242 0.92622 0.0
C436 C 0.94275 0.75404 0.95701 0.0
C437 C 0.9264 0.79838 0.90157 0.0
C438 C 0.89123 0.78646 0.90746 0.0
C439 C 0.88181 0.75862 0.9389 0.0
C440 C 0.90742 0.74229 0.9632 0.0
C441 C 0.86456 0.8036 0.88083 0.0
C442 C 0.84164 0.82221 0.90708 0.0
C443 C 0.86425 0.80474 0.8298 0.0
C444 C 0.88709 0.7844 0.80039 0.0
C445 C 0.88696 0.74832 0.80731 0.0
C446 C 0.90885 0.72935 0.77998 0.0
C447 C 0.93086 0.74613 0.74538 0.0
C448 C 0.93096 0.78191 0.73796 0.0
C449 C 0.90915 0.80101 0.76524 0.0
H450 H 0.94779 0.7314 0.72427 0.0
H451 H 0.74278 0.92181 0.99209 0.0
loop_
_geom_bond_atom_site_label_1
_geom_bond_atom_site_label_2
_geom_bond_distance
_geom_bond_site_symmetry_2
_ccdc_geom_bond_type
C0 O1 1.160 . S
C0 O7 1.185 1_556 S
O1 C0 1.160 . S
O2 Zn3 1.899 1_556 S
O2 C10 1.284 . S
Zn3 O2 1.899 1_554 S
Zn3 O4 2.032 . S
Zn3 O7 2.086 1_455 S
Zn3 O12 1.977 1_455 S
O4 Zn3 2.032 . S
O4 C8 1.278 . S
C5 O6 1.203 . S
C5 O12 1.267 1_455 S
O6 C5 1.203 . S
O7 C0 1.185 1_554 S
O7 Zn3 2.086 1_655 S
C8 O4 1.278 . S
C8 O9 1.211 . S
O9 C8 1.211 . S
C10 O2 1.284 . S
C10 O11 1.273 . S
O11 C10 1.273 . S
O12 Zn3 1.977 1_655 S
O12 C5 1.267 1_655 S
C13 O14 1.160 . S
C13 O20 1.185 . S
O14 C13 1.160 . S
O15 Zn16 1.899 . S
O15 C23 1.284 . S
Zn16 O15 1.899 . S
Zn16 O17 2.032 . S
Zn16 O20 2.086 . S
Zn16 O25 1.977 . S
O17 Zn16 2.032 . S
O17 C21 1.278 1_545 S
C18 O19 1.203 . S
C18 O25 1.267 . S
O19 C18 1.203 . S
O20 C13 1.185 . S
O20 Zn16 2.086 . S
C21 O17 1.278 1_565 S
C21 O22 1.211 . S
O22 C21 1.211 . S
C23 O15 1.284 . S
C23 O24 1.273 1_545 S
O24 C23 1.273 1_565 S
O25 Zn16 1.977 . S
O25 C18 1.267 . S
C26 O27 1.160 . S
C26 O33 1.185 . S
O27 C26 1.160 . S
O28 Zn29 1.899 . S
O28 C36 1.284 . S
Zn29 O28 1.899 . S
Zn29 O30 2.032 . S
Zn29 O33 2.086 . S
Zn29 O38 1.977 . S
O30 Zn29 2.032 . S
O30 C34 1.278 1_455 S
C31 O32 1.203 . S
C31 O38 1.267 . S
O32 C31 1.203 . S
O33 C26 1.185 . S
O33 Zn29 2.086 . S
C34 O30 1.278 1_655 S
C34 O35 1.211 . S
O35 C34 1.211 . S
C36 O28 1.284 . S
C36 O37 1.273 1_455 S
O37 C36 1.273 1_655 S
O38 Zn29 1.977 . S
O38 C31 1.267 . S
C39 O40 1.160 . S
C39 O46 1.185 . S
O40 C39 1.160 . S
O41 Zn42 1.899 . S
O41 C49 1.284 . S
Zn42 O41 1.899 . S
Zn42 O43 2.032 . S
Zn42 O46 2.086 1_545 S
Zn42 O51 1.977 1_545 S
O43 Zn42 2.032 . S
O43 C47 1.278 . S
C44 O45 1.203 . S
C44 O51 1.267 1_545 S
O45 C44 1.203 . S
O46 C39 1.185 . S
O46 Zn42 2.086 1_565 S
C47 O43 1.278 . S
C47 O48 1.211 . S
O48 C47 1.211 . S
C49 O41 1.284 . S
C49 O50 1.273 . S
O50 C49 1.273 . S
O51 Zn42 1.977 1_565 S
O51 C44 1.267 1_565 S
H52 C70 0.951 . S
H53 C72 0.951 . S
H54 C74 0.950 . S
H55 C75 0.950 . S
H56 C77 0.950 . S
H57 C80 0.965 . S
H58 C81 0.950 1_455 S
H59 C83 0.950 . S
H60 C84 0.950 . S
H61 C85 0.951 . S
H62 C87 0.951 . S
H63 C89 0.950 . S
H64 C90 0.950 . S
H65 C92 0.950 . S
H66 C95 0.950 1_655 S
H67 C96 0.950 . S
H68 C98 0.950 . S
H69 C99 0.950 . S
C70 H52 0.951 . S
C70 C71 1.347 1_655 S
C70 C72 1.388 . S
C71 C70 1.347 1_455 S
C71 C75 1.407 . S
C72 H53 0.951 . S
C72 C70 1.388 . S
C72 C73 1.366 1_655 S
C73 C72 1.366 1_455 S
C73 C74 1.414 . S
C73 C76 1.499 . S
C74 H54 0.950 . S
C74 C73 1.414 . S
C74 C75 1.374 . S
C75 H55 0.950 . S
C75 C71 1.407 . S
C75 C74 1.374 . S
C76 C73 1.499 . S
C76 C77 1.373 . S
C76 C78 1.389 1_455 S
C77 H56 0.950 . S
C77 C76 1.373 . S
C77 C93 1.377 . S
C78 C76 1.389 1_655 S
C78 C79 1.524 . S
C78 C92 1.377 . S
C79 C78 1.524 . S
C79 C80 1.388 1_655 S
C79 C84 1.363 . S
C80 H57 0.965 . S
C80 C79 1.388 1_455 S
C80 C81 1.328 1_455 S
C81 H58 0.950 1_655 S
C81 C80 1.328 1_655 S
C81 C82 1.287 . S
C82 C81 1.287 . S
C82 C83 1.524 . S
C82 H101 0.913 . S
C83 H59 0.950 . S
C83 C82 1.524 . S
C83 C84 1.415 . S
C84 H60 0.950 . S
C84 C79 1.363 . S
C84 C83 1.415 . S
C85 H61 0.951 . S
C85 C86 1.366 . S
C85 C87 1.388 . S
C86 C85 1.366 . S
C86 C90 1.385 1_455 S
C87 H62 0.951 . S
C87 C85 1.388 . S
C87 C88 1.366 . S
C88 C87 1.366 . S
C88 C89 1.414 1_455 S
C88 C91 1.499 . S
C89 H63 0.950 . S
C89 C88 1.414 1_655 S
C89 C90 1.374 . S
C90 H64 0.950 . S
C90 C86 1.385 1_655 S
C90 C89 1.374 . S
C91 C88 1.499 . S
C91 C92 1.373 1_455 S
C91 C93 1.389 . S
C92 H65 0.950 . S
C92 C78 1.377 . S
C92 C91 1.373 1_655 S
C93 C77 1.377 . S
C93 C91 1.389 . S
C93 C94 1.524 . S
C94 C93 1.524 . S
C94 C95 1.397 . S
C94 C99 1.363 . S
C95 H66 0.950 1_455 S
C95 C94 1.397 . S
C95 C96 1.334 . S
C96 H67 0.950 . S
C96 C95 1.334 . S
C96 C97 1.287 . S
C97 C96 1.287 . S
C97 C98 1.524 . S
C97 H100 0.999 . S
C98 H68 0.950 . S
C98 C97 1.524 . S
C98 C99 1.415 . S
C99 H69 0.950 . S
C99 C94 1.363 . S
C99 C98 1.415 . S
H100 C97 0.999 . S
H101 C82 0.913 . S
H102 C120 0.951 . S
H103 C122 0.951 . S
H104 C124 0.950 . S
H105 C125 0.950 . S
H106 C127 0.950 . S
H107 C130 0.950 . S
H108 C131 0.950 . S
H109 C133 0.950 . S
H110 C134 0.950 . S
H111 C135 0.951 . S
H112 C137 0.951 . S
H113 C139 0.950 . S
H114 C140 0.950 . S
H115 C142 0.950 . S
H116 C145 0.950 . S
H117 C146 0.950 . S
H118 C148 0.950 . S
H119 C149 0.950 . S
C120 H102 0.951 . S
C120 C121 1.366 . S
C120 C122 1.388 . S
C121 C120 1.366 . S
C121 C125 1.385 1_545 S
C122 H103 0.951 . S
C122 C120 1.388 . S
C122 C123 1.366 . S
C123 C122 1.366 . S
C123 C124 1.414 1_545 S
C123 C126 1.499 . S
C124 H104 0.950 . S
C124 C123 1.414 1_565 S
C124 C125 1.374 . S
C125 H105 0.950 . S
C125 C121 1.385 1_565 S
C125 C124 1.374 . S
C126 C123 1.499 . S
C126 C127 1.373 1_545 S
C126 C128 1.389 . S
C127 H106 0.950 . S
C127 C126 1.373 1_565 S
C127 C143 1.377 . S
C128 C126 1.389 . S
C128 C129 1.524 . S
C128 C142 1.377 . S
C129 C128 1.524 . S
C129 C130 1.397 . S
C129 C134 1.363 . S
C130 H107 0.950 . S
C130 C129 1.397 . S
C130 C131 1.334 . S
C131 H108 0.950 . S
C131 C130 1.334 . S
C131 C132 1.287 . S
C132 C131 1.287 . S
C132 C133 1.524 . S
C132 H151 0.913 . S
C133 H109 0.950 . S
C133 C132 1.524 . S
C133 C134 1.415 . S
C134 H110 0.950 . S
C134 C129 1.363 . S
C134 C133 1.415 . S
C135 H111 0.951 . S
C135 C136 1.349 1_565 S
C135 C137 1.388 . S
C136 C135 1.349 1_545 S
C136 C140 1.404 . S
C137 H112 0.951 . S
C137 C135 1.388 . S
C137 C138 1.366 1_565 S
C138 C137 1.366 1_545 S
C138 C139 1.414 . S
C138 C141 1.499 . S
C139 H113 0.950 . S
C139 C138 1.414 . S
C139 C140 1.374 . S
C140 H114 0.950 . S
C140 C136 1.404 . S
C140 C139 1.374 . S
C141 C138 1.499 . S
C141 C142 1.373 . S
C141 C143 1.389 1_545 S
C142 H115 0.950 . S
C142 C128 1.377 . S
C142 C141 1.373 . S
C143 C127 1.377 . S
C143 C141 1.389 1_565 S
C143 C144 1.524 . S
C144 C143 1.524 . S
C144 C145 1.397 . S
C144 C149 1.363 . S
C145 H116 0.950 . S
C145 C144 1.397 . S
C145 C146 1.334 . S
C146 H117 0.950 . S
C146 C145 1.334 . S
C146 C147 1.287 . S
C147 C146 1.287 . S
C147 C148 1.524 . S
C147 H150 0.999 . S
C148 H118 0.950 . S
C148 C147 1.524 . S
C148 C149 1.415 . S
C149 H119 0.950 . S
C149 C144 1.363 . S
C149 C148 1.415 . S
H150 C147 0.999 . S
H151 C132 0.913 . S
H152 C170 0.951 . S
H153 C172 0.951 . S
H154 C174 0.950 . S
H155 C175 0.950 . S
H156 C177 0.950 1_655 S
H157 C180 0.950 . S
H158 C181 0.950 . S
H159 C183 0.950 . S
H160 C184 0.950 . S
H161 C185 0.951 . S
H162 C187 0.951 . S
H163 C189 0.950 . S
H164 C190 0.950 . S
H165 C192 0.950 . S
H166 C195 0.950 . S
H167 C196 0.950 . S
H168 C198 0.950 . S
H169 C199 0.950 . S
C170 H152 0.951 . S
C170 C171 1.366 . S
C170 C172 1.388 . S
C171 C170 1.366 . S
C171 C175 1.385 . S
C172 H153 0.951 . S
C172 C170 1.388 . S
C172 C173 1.366 . S
C173 C172 1.366 . S
C173 C174 1.414 . S
C173 C176 1.499 . S
C174 H154 0.950 . S
C174 C173 1.414 . S
C174 C175 1.374 . S
C175 H155 0.950 . S
C175 C171 1.385 . S
C175 C174 1.374 . S
C176 C173 1.499 . S
C176 C177 1.373 . S
C176 C178 1.389 . S
C177 H156 0.950 1_455 S
C177 C176 1.373 . S
C177 C193 1.377 . S
C178 C176 1.389 . S
C178 C179 1.524 . S
C178 C192 1.377 . S
C179 C178 1.524 . S
C179 C180 1.397 . S
C179 C184 1.363 . S
C180 H157 0.950 . S
C180 C179 1.397 . S
C180 C181 1.334 . S
C181 H158 0.950 . S
C181 C180 1.334 . S
C181 C182 1.287 . S
C182 C181 1.287 . S
C182 C183 1.524 . S
C182 H201 0.913 . S
C183 H159 0.950 . S
C183 C182 1.524 . S
C183 C184 1.415 . S
C184 H160 0.950 . S
C184 C179 1.363 . S
C184 C183 1.415 . S
C185 H161 0.951 . S
C185 C186 1.366 . S
C185 C187 1.388 . S
C186 C185 1.366 . S
C186 C190 1.385 . S
C187 H162 0.951 . S
C187 C185 1.388 . S
C187 C188 1.366 . S
C188 C187 1.366 . S
C188 C189 1.414 . S
C188 C191 1.499 . S
C189 H163 0.950 . S
C189 C188 1.414 . S
C189 C190 1.374 . S
C190 H164 0.950 . S
C190 C186 1.385 . S
C190 C189 1.374 . S
C191 C188 1.499 . S
C191 C192 1.373 . S
C191 C193 1.389 . S
C192 H165 0.950 . S
C192 C178 1.377 . S
C192 C191 1.373 . S
C193 C177 1.377 . S
C193 C191 1.389 . S
C193 C194 1.524 1_455 S
C194 C193 1.524 1_655 S
C194 C195 1.397 . S
C194 C199 1.363 . S
C195 H166 0.950 . S
C195 C194 1.397 . S
C195 C196 1.334 . S
C196 H167 0.950 . S
C196 C195 1.334 . S
C196 C197 1.287 . S
C197 C196 1.287 . S
C197 C198 1.524 . S
C197 H200 0.999 . S
C198 H168 0.950 . S
C198 C197 1.524 . S
C198 C199 1.415 . S
C199 H169 0.950 . S
C199 C194 1.363 . S
C199 C198 1.415 . S
H200 C197 0.999 . S
H201 C182 0.913 . S
H202 C220 0.951 . S
H203 C222 0.951 . S
H204 C224 0.950 . S
H205 C225 0.950 . S
H206 C227 0.950 . S
H207 C230 0.950 . S
H208 C231 0.950 . S
H209 C233 0.950 . S
H210 C234 0.950 . S
H211 C235 0.951 . S
H212 C237 0.951 . S
H213 C239 0.950 . S
H214 C240 0.950 . S
H215 C242 0.950 1_554 S
H216 C245 0.950 . S
H217 C246 0.950 . S
H218 C248 0.950 1_545 S
H219 C249 0.950 . S
C220 H202 0.951 . S
C220 C221 1.366 . S
C220 C222 1.388 . S
C221 C220 1.366 . S
C221 C225 1.385 . S
C222 H203 0.951 . S
C222 C220 1.388 . S
C222 C223 1.366 . S
C223 C222 1.366 . S
C223 C224 1.414 . S
C223 C226 1.499 . S
C224 H204 0.950 . S
C224 C223 1.414 . S
C224 C225 1.374 . S
C225 H205 0.950 . S
C225 C221 1.385 . S
C225 C224 1.374 . S
C226 C223 1.499 . S
C226 C227 1.373 1_554 S
C226 C228 1.389 . S
C227 H206 0.950 . S
C227 C226 1.373 1_556 S
C227 C243 1.377 . S
C228 C226 1.389 . S
C228 C229 1.524 . S
C228 C242 1.377 1_554 S
C229 C228 1.524 . S
C229 C230 1.397 . S
C229 C234 1.363 . S
C230 H207 0.950 . S
C230 C229 1.397 . S
C230 C231 1.334 . S
C231 H208 0.950 . S
C231 C230 1.334 . S
C231 C232 1.287 . S
C232 C231 1.287 . S
C232 C233 1.524 . S
C232 H251 0.913 . S
C233 H209 0.950 . S
C233 C232 1.524 . S
C233 C234 1.415 . S
C234 H210 0.950 . S
C234 C229 1.363 . S
C234 C233 1.415 . S
C235 H211 0.951 . S
C235 C236 1.366 . S
C235 C237 1.388 . S
C236 C235 1.366 . S
C236 C240 1.385 . S
C237 H212 0.951 . S
C237 C235 1.388 . S
C237 C238 1.366 . S
C238 C237 1.366 . S
C238 C239 1.414 . S
C238 C241 1.499 . S
C239 H213 0.950 . S
C239 C238 1.414 . S
C239 C240 1.374 . S
C240 H214 0.950 . S
C240 C236 1.385 . S
C240 C239 1.374 . S
C241 C238 1.499 . S
C241 C242 1.373 . S
C241 C243 1.389 . S
C242 H215 0.950 1_556 S
C242 C228 1.377 1_556 S
C242 C241 1.373 . S
C243 C227 1.377 . S
C243 C241 1.389 . S
C243 C244 1.524 . S
C244 C243 1.524 . S
C244 C245 1.397 1_545 S
C244 C249 1.363 . S
C245 H216 0.950 . S
C245 C244 1.397 1_565 S
C245 C246 1.334 . S
C246 H217 0.950 . S
C246 C245 1.334 . S
C246 C247 1.287 . S
C247 C246 1.287 . S
C247 C248 1.523 . S
C247 H250 0.999 . S
C248 H218 0.950 1_565 S
C248 C247 1.523 . S
C248 C249 1.415 1_565 S
C249 H219 0.950 . S
C249 C244 1.363 . S
C249 C248 1.415 1_545 S
H250 C247 0.999 . S
H251 C232 0.913 . S
H252 C270 0.951 . S
H253 C272 0.951 . S
H254 C274 0.950 . S
H255 C275 0.950 . S
H256 C277 0.950 . S
H257 C280 0.950 . S
H258 C281 0.950 . S
H259 C283 0.950 . S
H260 C284 0.950 . S
H261 C285 0.951 . S
H262 C287 0.951 . S
H263 C289 0.950 . S
H264 C290 0.950 . S
H265 C292 0.950 . S
H266 C295 0.950 . S
H267 C296 0.950 . S
H268 C298 0.950 . S
H269 C299 0.950 . S
C270 H252 0.951 . S
C270 C271 1.366 . S
C270 C272 1.388 . S
C271 C270 1.366 . S
C271 C275 1.385 . S
C272 H253 0.951 . S
C272 C270 1.388 . S
C272 C273 1.366 . S
C273 C272 1.366 . S
C273 C274 1.414 . S
C273 C276 1.499 . S
C274 H254 0.950 . S
C274 C273 1.414 . S
C274 C275 1.374 . S
C275 H255 0.950 . S
C275 C271 1.385 . S
C275 C274 1.374 . S
C276 C273 1.499 . S
C276 C277 1.373 . S
C276 C278 1.389 . S
C277 H256 0.950 . S
C277 C276 1.373 . S
C277 C293 1.377 . S
C278 C276 1.389 . S
C278 C279 1.524 . S
C278 C292 1.377 . S
C279 C278 1.524 . S
C279 C280 1.397 . S
C279 C284 1.363 . S
C280 H257 0.950 . S
C280 C279 1.397 . S
C280 C281 1.334 . S
C281 H258 0.950 . S
C281 C280 1.334 . S
C281 C282 1.287 . S
C282 C281 1.287 . S
C282 C283 1.524 . S
C282 H301 0.913 . S
C283 H259 0.950 . S
C283 C282 1.524 . S
C283 C284 1.415 . S
C284 H260 0.950 . S
C284 C279 1.363 . S
C284 C283 1.415 . S
C285 H261 0.951 . S
C285 C286 1.366 . S
C285 C287 1.388 . S
C286 C285 1.366 . S
C286 C290 1.385 . S
C287 H262 0.951 . S
C287 C285 1.388 . S
C287 C288 1.366 . S
C288 C287 1.366 . S
C288 C289 1.414 . S
C288 C291 1.499 . S
C289 H263 0.950 . S
C289 C288 1.414 . S
C289 C290 1.374 . S
C290 H264 0.950 . S
C290 C286 1.385 . S
C290 C289 1.374 . S
C291 C288 1.499 . S
C291 C292 1.373 . S
C291 C293 1.389 . S
C292 H265 0.950 . S
C292 C278 1.377 . S
C292 C291 1.373 . S
C293 C277 1.377 . S
C293 C291 1.389 . S
C293 C294 1.524 . S
C294 C293 1.524 . S
C294 C295 1.397 . S
C294 C299 1.363 . S
C295 H266 0.950 . S
C295 C294 1.397 . S
C295 C296 1.334 . S
C296 H267 0.950 . S
C296 C295 1.334 . S
C296 C297 1.287 . S
C297 C296 1.287 . S
C297 C298 1.524 . S
C297 H300 0.999 . S
C298 H268 0.950 . S
C298 C297 1.524 . S
C298 C299 1.415 . S
C299 H269 0.950 . S
C299 C294 1.363 . S
C299 C298 1.415 . S
H300 C297 0.999 . S
H301 C282 0.913 . S
H302 C320 0.951 . S
H303 C322 0.951 . S
H304 C324 0.950 . S
H305 C325 0.950 . S
H306 C327 0.950 . S
H307 C330 0.950 . S
H308 C331 0.950 . S
H309 C333 0.950 . S
H310 C334 0.950 . S
H311 C335 0.951 . S
H312 C337 0.951 . S
H313 C339 0.950 . S
H314 C340 0.950 . S
H315 C342 0.950 . S
H316 C345 0.950 . S
H317 C346 0.950 . S
H318 C348 0.950 . S
H319 C349 0.950 . S
C320 H302 0.951 . S
C320 C321 1.366 . S
C320 C322 1.388 . S
C321 C320 1.366 . S
C321 C325 1.385 . S
C322 H303 0.951 . S
C322 C320 1.388 . S
C322 C323 1.366 . S
C323 C322 1.366 . S
C323 C324 1.414 . S
C323 C326 1.499 . S
C324 H304 0.950 . S
C324 C323 1.414 . S
C324 C325 1.374 . S
C325 H305 0.950 . S
C325 C321 1.385 . S
C325 C324 1.374 . S
C326 C323 1.499 . S
C326 C327 1.373 . S
C326 C328 1.389 . S
C327 H306 0.950 . S
C327 C326 1.373 . S
C327 C343 1.377 . S
C328 C326 1.389 . S
C328 C329 1.524 . S
C328 C342 1.377 . S
C329 C328 1.524 . S
C329 C330 1.397 . S
C329 C334 1.363 . S
C330 H307 0.950 . S
C330 C329 1.397 . S
C330 C331 1.334 . S
C331 H308 0.950 . S
C331 C330 1.334 . S
C331 C332 1.287 . S
C332 C331 1.287 . S
C332 C333 1.524 . S
C332 H351 0.913 . S
C333 H309 0.950 . S
C333 C332 1.524 . S
C333 C334 1.415 . S
C334 H310 0.950 . S
C334 C329 1.363 . S
C334 C333 1.415 . S
C335 H311 0.951 . S
C335 C336 1.366 . S
C335 C337 1.388 . S
C336 C335 1.366 . S
C336 C340 1.385 . S
C337 H312 0.951 . S
C337 C335 1.388 . S
C337 C338 1.366 . S
C338 C337 1.366 . S
C338 C339 1.414 . S
C338 C341 1.499 . S
C339 H313 0.950 . S
C339 C338 1.414 . S
C339 C340 1.374 . S
C340 H314 0.950 . S
C340 C336 1.385 . S
C340 C339 1.374 . S
C341 C338 1.499 . S
C341 C342 1.373 . S
C341 C343 1.389 . S
C342 H315 0.950 . S
C342 C328 1.377 . S
C342 C341 1.373 . S
C343 C327 1.377 . S
C343 C341 1.389 . S
C343 C344 1.524 . S
C344 C343 1.524 . S
C344 C345 1.397 . S
C344 C349 1.363 . S
C345 H316 0.950 . S
C345 C344 1.397 . S
C345 C346 1.334 . S
C346 H317 0.950 . S
C346 C345 1.334 . S
C346 C347 1.287 . S
C347 C346 1.287 . S
C347 C348 1.524 . S
C347 H350 0.999 . S
C348 H318 0.950 . S
C348 C347 1.524 . S
C348 C349 1.415 . S
C349 H319 0.950 . S
C349 C344 1.363 . S
C349 C348 1.415 . S
H350 C347 0.999 . S
H351 C332 0.913 . S
H352 C370 0.951 . S
H353 C372 0.951 . S
H354 C374 0.950 . S
H355 C375 0.950 . S
H356 C377 0.950 . S
H357 C380 0.950 . S
H358 C381 0.950 . S
H359 C383 0.950 . S
H360 C384 0.950 . S
H361 C385 0.951 . S
H362 C387 0.951 . S
H363 C389 0.950 . S
H364 C390 0.950 . S
H365 C392 0.950 . S
H366 C395 0.950 . S
H367 C396 0.950 . S
H368 C398 0.950 . S
H369 C399 0.950 . S
C370 H352 0.951 . S
C370 C371 1.366 . S
C370 C372 1.388 . S
C371 C370 1.366 . S
C371 C375 1.385 . S
C372 H353 0.951 . S
C372 C370 1.388 . S
C372 C373 1.366 . S
C373 C372 1.366 . S
C373 C374 1.414 . S
C373 C376 1.499 . S
C374 H354 0.950 . S
C374 C373 1.414 . S
C374 C375 1.374 . S
C375 H355 0.950 . S
C375 C371 1.385 . S
C375 C374 1.374 . S
C376 C373 1.499 . S
C376 C377 1.373 . S
C376 C378 1.389 . S
C377 H356 0.950 . S
C377 C376 1.373 . S
C377 C393 1.377 . S
C378 C376 1.389 . S
C378 C379 1.524 . S
C378 C392 1.377 . S
C379 C378 1.524 . S
C379 C380 1.397 . S
C379 C384 1.363 . S
C380 H357 0.950 . S
C380 C379 1.397 . S
C380 C381 1.334 . S
C381 H358 0.950 . S
C381 C380 1.334 . S
C381 C382 1.287 . S
C382 C381 1.287 . S
C382 C383 1.524 . S
C382 H401 0.913 . S
C383 H359 0.950 . S
C383 C382 1.524 . S
C383 C384 1.415 . S
C384 H360 0.950 . S
C384 C379 1.363 . S
C384 C383 1.415 . S
C385 H361 0.951 . S
C385 C386 1.366 . S
C385 C387 1.388 . S
C386 C385 1.366 . S
C386 C390 1.385 . S
C387 H362 0.951 . S
C387 C385 1.388 . S
C387 C388 1.366 . S
C388 C387 1.366 . S
C388 C389 1.414 . S
C388 C391 1.499 . S
C389 H363 0.950 . S
C389 C388 1.414 . S
C389 C390 1.374 . S
C390 H364 0.950 . S
C390 C386 1.385 . S
C390 C389 1.374 . S
C391 C388 1.499 . S
C391 C392 1.373 . S
C391 C393 1.389 . S
C392 H365 0.950 . S
C392 C378 1.377 . S
C392 C391 1.373 . S
C393 C377 1.377 . S
C393 C391 1.389 . S
C393 C394 1.524 . S
C394 C393 1.524 . S
C394 C395 1.397 . S
C394 C399 1.363 . S
C395 H366 0.950 . S
C395 C394 1.397 . S
C395 C396 1.334 . S
C396 H367 0.950 . S
C396 C395 1.334 . S
C396 C397 1.287 . S
C397 C396 1.287 . S
C397 C398 1.524 . S
C397 H400 0.999 . S
C398 H368 0.950 . S
C398 C397 1.524 . S
C398 C399 1.415 . S
C399 H369 0.950 . S
C399 C394 1.363 . S
C399 C398 1.415 . S
H400 C397 0.999 . S
H401 C382 0.913 . S
H402 C420 0.951 . S
H403 C422 0.951 . S
H404 C424 0.950 . S
H405 C425 0.950 . S
H406 C427 0.950 . S
H407 C430 0.950 . S
H408 C431 0.950 . S
H409 C433 0.950 . S
H410 C434 0.950 . S
H411 C435 0.951 . S
H412 C437 0.951 . S
H413 C439 0.950 . S
H414 C440 0.950 1_554 S
H415 C442 0.950 . S
H416 C445 0.950 . S
H417 C446 0.950 . S
H418 C448 0.950 . S
H419 C449 0.950 . S
C420 H402 0.951 . S
C420 C421 1.366 . S
C420 C422 1.388 . S
C421 C420 1.366 . S
C421 C425 1.385 . S
C422 H403 0.951 . S
C422 C420 1.388 . S
C422 C423 1.366 . S
C423 C422 1.366 . S
C423 C424 1.414 . S
C423 C426 1.499 . S
C424 H404 0.950 . S
C424 C423 1.414 . S
C424 C425 1.374 . S
C425 H405 0.950 . S
C425 C421 1.385 . S
C425 C424 1.374 . S
C426 C423 1.499 . S
C426 C427 1.373 . S
C426 C428 1.389 . S
C427 H406 0.950 . S
C427 C426 1.373 . S
C427 C443 1.377 . S
C428 C426 1.389 . S
C428 C429 1.524 . S
C428 C442 1.377 . S
C429 C428 1.524 . S
C429 C430 1.397 . S
C429 C434 1.363 . S
C430 H407 0.950 . S
C430 C429 1.397 . S
C430 C431 1.334 . S
C431 H408 0.950 . S
C431 C430 1.334 . S
C431 C432 1.287 1_556 S
C432 C431 1.287 1_554 S
C432 C433 1.524 . S
C432 H451 0.913 . S
C433 H409 0.950 . S
C433 C432 1.524 . S
C433 C434 1.415 1_554 S
C434 H410 0.950 . S
C434 C429 1.363 . S
C434 C433 1.415 1_556 S
C435 H411 0.951 . S
C435 C436 1.366 . S
C435 C437 1.388 . S
C436 C435 1.366 . S
C436 C440 1.385 . S
C437 H412 0.951 . S
C437 C435 1.388 . S
C437 C438 1.366 . S
C438 C437 1.366 . S
C438 C439 1.414 . S
C438 C441 1.499 . S
C439 H413 0.950 . S
C439 C438 1.414 . S
C439 C440 1.374 . S
C440 H414 0.950 1_556 S
C440 C436 1.385 . S
C440 C439 1.374 . S
C441 C438 1.499 . S
C441 C442 1.373 . S
C441 C443 1.389 . S
C442 H415 0.950 . S
C442 C428 1.377 . S
C442 C441 1.373 . S
C443 C427 1.377 . S
C443 C441 1.389 . S
C443 C444 1.524 . S
C444 C443 1.524 . S
C444 C445 1.397 . S
C444 C449 1.363 . S
C445 H416 0.950 . S
C445 C444 1.397 . S
C445 C446 1.334 . S
C446 H417 0.950 . S
C446 C445 1.334 . S
C446 C447 1.287 . S
C447 C446 1.287 . S
C447 C448 1.524 . S
C447 H450 0.999 . S
C448 H418 0.950 . S
C448 C447 1.524 . S
C448 C449 1.415 . S
C449 H419 0.950 . S
C449 C444 1.363 . S
C449 C448 1.415 . S
H450 C447 0.999 . S
H451 C432 0.913 . S
C71 C5 0.982 . S
C86 C36 1.007 . S
C121 C23 1.007 . S
C136 C44 0.983 . S
C171 C10 1.007 . S
C186 C31 0.978 . S
C221 C18 0.977 . S
C236 C49 1.007 . S
C271 C21 1.437 . S
C286 C8 1.437 . S
C321 C13 1.417 . S
C336 C26 1.417 . S
C371 C47 1.436 . S
C386 C34 1.436 . S
C421 C39 1.416 . S
C436 C0 1.416 . S
