# Generated by pormake.
# Topology lcv-e, (6)-cn, num edge types: 1
# Building blocks:
#     Node 0, Type 0, BuildingBlock: OJICUG_clean_sbu_0, # of connection points: 6
#     Node 1, Type 0, BuildingBlock: OJICUG_clean_sbu_0, # of connection points: 6
#     Node 2, Type 0, BuildingBlock: OJICUG_clean_sbu_0, # of connection points: 6
#     Node 3, Type 0, BuildingBlock: OJICUG_clean_sbu_0, # of connection points: 6
#     Node 4, Type 0, BuildingBlock: OJICUG_clean_sbu_0, # of connection points: 6
#     Node 5, Type 0, BuildingBlock: OJICUG_clean_sbu_0, # of connection points: 6
#     Node 6, Type 0, BuildingBlock: OJICUG_clean_sbu_0, # of connection points: 6
#     Node 7, Type 0, BuildingBlock: OJICUG_clean_sbu_0, # of connection points: 6
#     Node 8, Type 0, BuildingBlock: OJICUG_clean_sbu_0, # of connection points: 6
#     Node 9, Type 0, BuildingBlock: OJICUG_clean_sbu_0, # of connection points: 6
#     Node 10, Type 0, BuildingBlock: OJICUG_clean_sbu_0, # of connection points: 6
#     Node 11, Type 0, BuildingBlock: OJICUG_clean_sbu_0, # of connection points: 6
#     Node 12, Type 0, BuildingBlock: OJICUG_clean_sbu_0, # of connection points: 6
#     Node 13, Type 0, BuildingBlock: OJICUG_clean_sbu_0, # of connection points: 6
#     Node 14, Type 0, BuildingBlock: OJICUG_clean_sbu_0, # of connection points: 6
#     Node 15, Type 0, BuildingBlock: OJICUG_clean_sbu_0, # of connection points: 6
#     Node 16, Type 0, BuildingBlock: OJICUG_clean_sbu_0, # of connection points: 6
#     Node 17, Type 0, BuildingBlock: OJICUG_clean_sbu_0, # of connection points: 6
#     Node 18, Type 0, BuildingBlock: OJICUG_clean_sbu_0, # of connection points: 6
#     Node 19, Type 0, BuildingBlock: OJICUG_clean_sbu_0, # of connection points: 6
#     Node 20, Type 0, BuildingBlock: OJICUG_clean_sbu_0, # of connection points: 6
#     Node 21, Type 0, BuildingBlock: OJICUG_clean_sbu_0, # of connection points: 6
#     Node 22, Type 0, BuildingBlock: OJICUG_clean_sbu_0, # of connection points: 6
#     Node 23, Type 0, BuildingBlock: OJICUG_clean_sbu_0, # of connection points: 6
#     Edge 24, Type (0, 0), BuildingBlock: AJUNOK_clean_linker_0, # of connection points: 2
#     Edge 25, Type (0, 0), BuildingBlock: AJUNOK_clean_linker_0, # of connection points: 2
#     Edge 26, Type (0, 0), BuildingBlock: AJUNOK_clean_linker_0, # of connection points: 2
#     Edge 27, Type (0, 0), BuildingBlock: AJUNOK_clean_linker_0, # of connection points: 2
#     Edge 28, Type (0, 0), BuildingBlock: AJUNOK_clean_linker_0, # of connection points: 2
#     Edge 29, Type (0, 0), BuildingBlock: AJUNOK_clean_linker_0, # of connection points: 2
#     Edge 30, Type (0, 0), BuildingBlock: AJUNOK_clean_linker_0, # of connection points: 2
#     Edge 31, Type (0, 0), BuildingBlock: AJUNOK_clean_linker_0, # of connection points: 2
#     Edge 32, Type (0, 0), BuildingBlock: AJUNOK_clean_linker_0, # of connection points: 2
#     Edge 33, Type (0, 0), BuildingBlock: AJUNOK_clean_linker_0, # of connection points: 2
#     Edge 34, Type (0, 0), BuildingBlock: AJUNOK_clean_linker_0, # of connection points: 2
#     Edge 35, Type (0, 0), BuildingBlock: AJUNOK_clean_linker_0, # of connection points: 2
#     Edge 36, Type (0, 0), BuildingBlock: AJUNOK_clean_linker_0, # of connection points: 2
#     Edge 37, Type (0, 0), BuildingBlock: AJUNOK_clean_linker_0, # of connection points: 2
#     Edge 38, Type (0, 0), BuildingBlock: AJUNOK_clean_linker_0, # of connection points: 2
#     Edge 39, Type (0, 0), BuildingBlock: AJUNOK_clean_linker_0, # of connection points: 2
#     Edge 40, Type (0, 0), BuildingBlock: AJUNOK_clean_linker_0, # of connection points: 2
#     Edge 41, Type (0, 0), BuildingBlock: AJUNOK_clean_linker_0, # of connection points: 2
#     Edge 42, Type (0, 0), BuildingBlock: AJUNOK_clean_linker_0, # of connection points: 2
#     Edge 43, Type (0, 0), BuildingBlock: AJUNOK_clean_linker_0, # of connection points: 2
#     Edge 44, Type (0, 0), BuildingBlock: AJUNOK_clean_linker_0, # of connection points: 2
#     Edge 45, Type (0, 0), BuildingBlock: AJUNOK_clean_linker_0, # of connection points: 2
#     Edge 46, Type (0, 0), BuildingBlock: AJUNOK_clean_linker_0, # of connection points: 2
#     Edge 47, Type (0, 0), BuildingBlock: AJUNOK_clean_linker_0, # of connection points: 2
#     Edge 48, Type (0, 0), BuildingBlock: AJUNOK_clean_linker_0, # of connection points: 2
#     Edge 49, Type (0, 0), BuildingBlock: AJUNOK_clean_linker_0, # of connection points: 2
#     Edge 50, Type (0, 0), BuildingBlock: AJUNOK_clean_linker_0, # of connection points: 2
#     Edge 51, Type (0, 0), BuildingBlock: AJUNOK_clean_linker_0, # of connection points: 2
#     Edge 52, Type (0, 0), BuildingBlock: AJUNOK_clean_linker_0, # of connection points: 2
#     Edge 53, Type (0, 0), BuildingBlock: AJUNOK_clean_linker_0, # of connection points: 2
#     Edge 54, Type (0, 0), BuildingBlock: AJUNOK_clean_linker_0, # of connection points: 2
#     Edge 55, Type (0, 0), BuildingBlock: AJUNOK_clean_linker_0, # of connection points: 2
#     Edge 56, Type (0, 0), BuildingBlock: AJUNOK_clean_linker_0, # of connection points: 2
#     Edge 57, Type (0, 0), BuildingBlock: AJUNOK_clean_linker_0, # of connection points: 2
#     Edge 58, Type (0, 0), BuildingBlock: AJUNOK_clean_linker_0, # of connection points: 2
#     Edge 59, Type (0, 0), BuildingBlock: AJUNOK_clean_linker_0, # of connection points: 2
#     Edge 60, Type (0, 0), BuildingBlock: AJUNOK_clean_linker_0, # of connection points: 2
#     Edge 61, Type (0, 0), BuildingBlock: AJUNOK_clean_linker_0, # of connection points: 2
#     Edge 62, Type (0, 0), BuildingBlock: AJUNOK_clean_linker_0, # of connection points: 2
#     Edge 63, Type (0, 0), BuildingBlock: AJUNOK_clean_linker_0, # of connection points: 2
#     Edge 64, Type (0, 0), BuildingBlock: AJUNOK_clean_linker_0, # of connection points: 2
#     Edge 65, Type (0, 0), BuildingBlock: AJUNOK_clean_linker_0, # of connection points: 2
#     Edge 66, Type (0, 0), BuildingBlock: AJUNOK_clean_linker_0, # of connection points: 2
#     Edge 67, Type (0, 0), BuildingBlock: AJUNOK_clean_linker_0, # of connection points: 2
#     Edge 68, Type (0, 0), BuildingBlock: AJUNOK_clean_linker_0, # of connection points: 2
#     Edge 69, Type (0, 0), BuildingBlock: AJUNOK_clean_linker_0, # of connection points: 2
#     Edge 70, Type (0, 0), BuildingBlock: AJUNOK_clean_linker_0, # of connection points: 2
#     Edge 71, Type (0, 0), BuildingBlock: AJUNOK_clean_linker_0, # of connection points: 2
#     Edge 72, Type (0, 0), BuildingBlock: AJUNOK_clean_linker_0, # of connection points: 2
#     Edge 73, Type (0, 0), BuildingBlock: AJUNOK_clean_linker_0, # of connection points: 2
#     Edge 74, Type (0, 0), BuildingBlock: AJUNOK_clean_linker_0, # of connection points: 2
#     Edge 75, Type (0, 0), BuildingBlock: AJUNOK_clean_linker_0, # of connection points: 2
#     Edge 76, Type (0, 0), BuildingBlock: AJUNOK_clean_linker_0, # of connection points: 2
#     Edge 77, Type (0, 0), BuildingBlock: AJUNOK_clean_linker_0, # of connection points: 2
#     Edge 78, Type (0, 0), BuildingBlock: AJUNOK_clean_linker_0, # of connection points: 2
#     Edge 79, Type (0, 0), BuildingBlock: AJUNOK_clean_linker_0, # of connection points: 2
#     Edge 80, Type (0, 0), BuildingBlock: AJUNOK_clean_linker_0, # of connection points: 2
#     Edge 81, Type (0, 0), BuildingBlock: AJUNOK_clean_linker_0, # of connection points: 2
#     Edge 82, Type (0, 0), BuildingBlock: AJUNOK_clean_linker_0, # of connection points: 2
#     Edge 83, Type (0, 0), BuildingBlock: AJUNOK_clean_linker_0, # of connection points: 2
#     Edge 84, Type (0, 0), BuildingBlock: AJUNOK_clean_linker_0, # of connection points: 2
#     Edge 85, Type (0, 0), BuildingBlock: AJUNOK_clean_linker_0, # of connection points: 2
#     Edge 86, Type (0, 0), BuildingBlock: AJUNOK_clean_linker_0, # of connection points: 2
#     Edge 87, Type (0, 0), BuildingBlock: AJUNOK_clean_linker_0, # of connection points: 2
#     Edge 88, Type (0, 0), BuildingBlock: AJUNOK_clean_linker_0, # of connection points: 2
#     Edge 89, Type (0, 0), BuildingBlock: AJUNOK_clean_linker_0, # of connection points: 2
#     Edge 90, Type (0, 0), BuildingBlock: AJUNOK_clean_linker_0, # of connection points: 2
#     Edge 91, Type (0, 0), BuildingBlock: AJUNOK_clean_linker_0, # of connection points: 2
#     Edge 92, Type (0, 0), BuildingBlock: AJUNOK_clean_linker_0, # of connection points: 2
#     Edge 93, Type (0, 0), BuildingBlock: AJUNOK_clean_linker_0, # of connection points: 2
#     Edge 94, Type (0, 0), BuildingBlock: AJUNOK_clean_linker_0, # of connection points: 2
#     Edge 95, Type (0, 0), BuildingBlock: AJUNOK_clean_linker_0, # of connection points: 2
# Relax obj value: 0.527
# Max RMSD: 0.261
# Mean RMSD: 0.261
data_MOF--net-lcv-e--node1-OJICUG_clean_sbu_0--edge1-AJUNOK_clean_linker_0
_symmetry_space_group_name_H-M    P1
_symmetry_Int_Tables_number       1
_symmetry_cell_setting            triclinic
loop_
_symmetry_equiv_pos_as_xyz
'x, y, z'
_cell_length_a     39.377395
_cell_length_b     39.388908
_cell_length_c     39.351517
_cell_angle_alpha  90.141962
_cell_angle_beta   90.738326
_cell_angle_gamma 90.007392
loop_
_atom_site_label
_atom_site_type_symbol
_atom_site_fract_x
_atom_site_fract_y
_atom_site_fract_z
_atom_type_partial_charge
Sc0 Sc 0.05917 0.11589 0.17696 0.0
Sc1 Sc 0.96926 0.11397 0.17157 0.0
Sc2 Sc 1.01226 0.1717 0.2236 0.0
O3 O 1.01396 0.13353 0.19146 0.0
C4 C 0.07998 0.12801 0.25455 0.0
C5 C 1.00955 0.05118 0.18851 0.0
C6 C 0.95234 0.12244 0.24608 0.0
C7 C 1.01494 0.11569 0.11069 0.0
C8 C 0.07597 0.19317 0.18194 0.0
C9 C 0.96003 0.19281 0.15669 0.0
O10 O 0.08093 0.10914 0.228 0.0
O11 O 0.98104 0.06539 0.19246 0.0
O12 O 0.97824 0.14013 0.25464 0.0
O13 O 0.04152 0.12584 0.12621 0.0
O14 O 0.04794 0.19984 0.19611 0.0
O15 O 0.95601 0.16199 0.14749 0.0
O16 O 0.08587 0.16337 0.17532 0.0
O17 O 0.99286 0.09813 0.12546 0.0
O18 O 0.97485 0.1996 0.18601 0.0
O19 O 0.0361 0.067 0.17872 0.0
O20 O 0.0565 0.15124 0.25737 0.0
O21 O 0.94027 0.12508 0.21619 0.0
Sc22 Sc 0.11151 0.86591 0.57803 0.0
Sc23 Sc 0.11048 0.85069 0.49063 0.0
Sc24 Sc 0.15835 0.79942 0.54127 0.0
O25 O 0.12665 0.83767 0.53676 0.0
C26 C 0.18949 0.86261 0.5921 0.0
C27 C 0.11779 0.91821 0.52455 0.0
C28 C 0.19021 0.84543 0.48536 0.0
C29 C 0.04474 0.85191 0.53098 0.0
C30 C 0.09758 0.7904 0.59594 0.0
C31 C 0.12285 0.77219 0.47032 0.0
O32 O 0.16035 0.87077 0.60265 0.0
O33 O 0.09629 0.89829 0.51223 0.0
O34 O 0.18968 0.81841 0.50288 0.0
O35 O 0.06047 0.86598 0.55606 0.0
O36 O 0.12155 0.7783 0.57759 0.0
O37 O 0.11718 0.80307 0.46272 0.0
O38 O 0.09659 0.82145 0.60465 0.0
O39 O 0.06054 0.83624 0.50719 0.0
O40 O 0.13331 0.76487 0.5009 0.0
O41 O 0.12767 0.91228 0.55438 0.0
O42 O 0.19271 0.83564 0.57323 0.0
O43 O 0.16387 0.86405 0.47938 0.0
Sc44 Sc 0.55362 0.92252 0.68703 0.0
Sc45 Sc 0.46386 0.9224 0.69231 0.0
Sc46 Sc 0.51207 0.86367 0.73652 0.0
O47 O 0.50933 0.90279 0.70522 0.0
C48 C 0.56559 0.84485 0.67231 0.0
C49 C 0.50603 0.9225 0.62663 0.0
C50 C 0.45057 0.84325 0.69121 0.0
C51 C 0.5148 0.9864 0.70573 0.0
C52 C 0.56973 0.91308 0.76073 0.0
C53 C 0.44269 0.90367 0.7658 0.0
O54 O 0.56634 0.87542 0.66194 0.0
O55 O 0.47762 0.91703 0.64033 0.0
O56 O 0.47876 0.83644 0.70562 0.0
O57 O 0.5425 0.9704 0.70988 0.0
O58 O 0.54408 0.89565 0.76969 0.0
O59 O 0.44492 0.92674 0.74333 0.0
O60 O 0.5818 0.90783 0.73153 0.0
O61 O 0.48698 0.97177 0.69668 0.0
O62 O 0.46521 0.87952 0.76724 0.0
O63 O 0.5284 0.9399 0.64193 0.0
O64 O 0.55265 0.83808 0.70205 0.0
O65 O 0.43893 0.87319 0.68723 0.0
Sc66 Sc 0.37437 0.22844 0.04467 0.0
Sc67 Sc 0.40673 0.17458 0.98773 0.0
Sc68 Sc 0.42596 0.16262 0.07496 0.0
O69 O 0.40333 0.18857 0.0359 0.0
C70 C 0.42946 0.23313 0.10339 0.0
C71 C 0.40544 0.25602 0.97507 0.0
C72 C 0.47949 0.18982 0.02419 0.0
C73 C 0.33221 0.18998 0.99525 0.0
C74 C 0.3485 0.1571 0.0896 0.0
C75 C 0.4235 0.10384 0.02227 0.0
O76 O 0.41101 0.24874 0.08197 0.0
O77 O 0.40406 0.22532 0.96479 0.0
O78 O 0.47167 0.18278 0.05481 0.0
O79 O 0.34561 0.21817 1.00006 0.0
O80 O 0.37794 0.14372 0.09124 0.0
O81 O 0.41057 0.1226 0.99968 0.0
O82 O 0.34404 0.18788 0.07691 0.0
O83 O 0.35123 0.16561 0.98611 0.0
O84 O 0.4343 0.11501 0.05032 0.0
O85 O 0.40034 0.26287 1.00689 0.0
O86 O 0.4217 0.20312 0.11047 0.0
O87 O 0.46043 0.18412 0.99769 0.0
Sc88 Sc 0.0394 0.92979 0.36519 0.0
Sc89 Sc 0.96821 0.9756 0.39198 0.0
Sc90 Sc 0.96315 0.91923 0.32436 0.0
O91 O 0.99037 0.94167 0.35966 0.0
C92 C 0.03815 0.93328 0.28623 0.0
C93 C 0.03251 1.00797 0.36854 0.0
C94 C 0.93505 0.99578 0.32353 0.0
C95 C 1.01073 0.93038 0.43713 0.0
C96 C 1.00983 0.85858 0.34268 0.0
C97 C 0.92287 0.91068 0.39941 0.0
O98 O 0.05236 0.94233 0.31409 0.0
O99 O 1.00108 1.01277 0.37177 0.0
O100 O 0.94576 0.96975 0.30754 0.0
O101 O 0.02597 0.9138 0.4144 0.0
O102 O 0.98062 0.87048 0.33674 0.0
O103 O 0.93592 0.93731 0.41214 0.0
O104 O 0.03542 0.87702 0.34981 0.0
O105 O 1.00238 0.96122 0.43278 0.0
O106 O 0.92493 0.90481 0.36668 0.0
O107 O 0.04749 0.98182 0.38063 0.0
O108 O 1.0062 0.92421 0.28521 0.0
O109 O 0.93128 0.99463 0.35551 0.0
Sc110 Sc 0.39192 0.78375 0.46951 0.0
Sc111 Sc 0.45413 0.84579 0.46863 0.0
Sc112 Sc 0.39998 0.83724 0.53715 0.0
O113 O 0.41559 0.82119 0.49239 0.0
C114 C 0.32897 0.82314 0.49945 0.0
C115 C 0.39184 0.8558 0.42175 0.0
C116 C 0.42036 0.90292 0.50176 0.0
C117 C 0.46607 0.77543 0.44039 0.0
C118 C 0.39766 0.75659 0.55007 0.0
C119 C 0.48322 0.83202 0.53711 0.0
O120 O 0.34211 0.80062 0.48086 0.0
O121 O 0.41913 0.86741 0.43444 0.0
O122 O 0.39737 0.88661 0.51646 0.0
O123 O 0.44147 0.76169 0.45582 0.0
O124 O 0.39913 0.78736 0.5601 0.0
O125 O 0.48738 0.8254 0.50579 0.0
O126 O 0.39534 0.74963 0.51758 0.0
O127 O 0.46455 0.80639 0.43287 0.0
O128 O 0.45429 0.8401 0.55 0.0
O129 O 0.38267 0.82402 0.42668 0.0
O130 O 0.34583 0.83757 0.52334 0.0
O131 O 0.44956 0.89046 0.49859 0.0
Sc132 Sc 0.50979 0.15506 0.85274 0.0
Sc133 Sc 0.5648 0.09292 0.88786 0.0
Sc134 Sc 0.58062 0.13046 0.80935 0.0
O135 O 0.55034 0.12488 0.8492 0.0
C136 C 0.50393 0.12899 0.77399 0.0
C137 C 0.48589 0.08734 0.88573 0.0
C138 C 0.58024 0.04851 0.82429 0.0
C139 C 0.54499 0.15894 0.92659 0.0
C140 C 0.56106 0.20697 0.82132 0.0
C141 C 0.62636 0.13377 0.87914 0.0
O142 O 0.49242 0.14363 0.80058 0.0
O143 O 0.51428 0.07867 0.89822 0.0
O144 O 0.59081 0.07466 0.80802 0.0
O145 O 0.52296 0.16805 0.90444 0.0
O146 O 0.57607 0.18485 0.80359 0.0
O147 O 0.61753 0.10325 0.8827 0.0
O148 O 0.53668 0.1999 0.84052 0.0
O149 O 0.56295 0.13253 0.92391 0.0
O150 O 0.61879 0.14758 0.85033 0.0
O151 O 0.48129 0.11307 0.86716 0.0
O152 O 0.53605 0.12105 0.7721 0.0
O153 O 0.56701 0.05115 0.8534 0.0
Sc154 Sc 0.11738 0.18247 0.03628 0.0
Sc155 Sc 0.09247 0.18762 0.95014 0.0
Sc156 Sc 0.15299 0.24252 0.98605 0.0
O157 O 0.11934 0.20525 0.99124 0.0
C158 C 0.12866 0.26184 0.06073 0.0
C159 C 0.04128 0.18667 1.01169 0.0
C160 C 0.08855 0.26702 0.94149 0.0
C161 C 0.11058 0.11988 0.98438 0.0
C162 C 0.19395 0.19234 0.03056 0.0
C163 C 0.16604 0.18516 0.9261 0.0
O164 O 0.12557 0.22991 0.06645 0.0
O165 O 0.04795 0.18116 0.9806 0.0
O166 O 0.11901 0.27155 0.95215 0.0
O167 O 0.11019 0.13255 1.01413 0.0
O168 O 0.18784 0.22244 0.02162 0.0
O169 O 0.1353 0.18838 0.91628 0.0
O170 O 0.17076 0.17068 0.03513 0.0
O171 O 0.10726 0.13695 0.95765 0.0
O172 O 0.17788 0.2061 0.94869 0.0
O173 O 0.06401 0.19203 0.03467 0.0
O174 O 0.13291 0.27276 0.03005 0.0
O175 O 0.07512 0.23781 0.93957 0.0
Sc176 Sc 0.16263 0.04745 0.10785 0.0
Sc177 Sc 0.13634 0.96313 0.09241 0.0
Sc178 Sc 0.2018 0.98225 0.14624 0.0
O179 O 0.16958 0.99698 0.11188 0.0
C180 C 0.23916 0.0499 0.1067 0.0
C181 C 0.1445 1.01145 0.0358 0.0
C182 C 0.20734 0.93139 0.08609 0.0
C183 C 0.09235 0.01644 0.12145 0.0
C184 C 0.18959 0.04145 0.18076 0.0
C185 C 0.13381 0.9398 0.1686 0.0
O186 O 0.21268 0.05544 0.08833 0.0
O187 O 0.14979 0.98091 0.04412 0.0
O188 O 0.22376 0.94912 0.10815 0.0
O189 O 0.11448 0.03807 0.13134 0.0
O190 O 0.17277 1.01524 0.1763 0.0
O191 O 0.11885 0.9462 0.14075 0.0
O192 O 0.18746 0.06273 0.15685 0.0
O193 O 0.09628 0.99967 0.0943 0.0
O194 O 0.16629 0.94445 0.17152 0.0
O195 O 0.14242 0.03629 0.05704 0.0
O196 O 0.23915 0.02504 0.12879 0.0
O197 O 0.17584 0.92519 0.08986 0.0
Sc198 Sc 0.20188 0.03924 0.40978 0.0
Sc199 Sc 0.22546 0.98056 0.35019 0.0
Sc200 Sc 0.27421 0.05167 0.36386 0.0
O201 O 0.23502 0.0239 0.37452 0.0
C202 C 0.19723 0.09267 0.35114 0.0
C203 C 0.15648 1.01032 0.3591 0.0
C204 C 0.26365 0.01966 0.2915 0.0
C205 C 0.21287 0.96821 0.42939 0.0
C206 C 0.26329 0.07577 0.44188 0.0
C207 C 0.30248 0.97172 0.37345 0.0
O208 O 0.18382 0.07826 0.37657 0.0
O209 O 0.17589 1.00073 0.33561 0.0
O210 O 0.27729 0.04156 0.31062 0.0
O211 O 0.22173 0.99804 0.43833 0.0
O212 O 0.28256 0.06658 0.41781 0.0
O213 O 0.27395 0.9612 0.36261 0.0
O214 O 0.23162 0.07496 0.43783 0.0
O215 O 0.20947 0.95954 0.39811 0.0
O216 O 0.30868 1.00451 0.37613 0.0
O217 O 0.16568 1.00569 0.38919 0.0
O218 O 0.23026 0.08945 0.34557 0.0
O219 O 0.24326 0.99739 0.30246 0.0
Sc220 Sc 0.3752 0.9812 0.61095 0.0
Sc221 Sc 0.39529 0.06588 0.58916 0.0
Sc222 Sc 0.33276 0.04621 0.6447 0.0
O223 O 0.36516 0.03123 0.6114 0.0
C224 C 0.2987 0.97261 0.60997 0.0
C225 C 0.38758 1.01274 0.53587 0.0
C226 C 0.3215 0.09087 0.57989 0.0
C227 C 0.44473 0.0169 0.62086 0.0
C228 C 0.35397 0.99194 0.68542 0.0
C229 C 0.39911 0.09525 0.66377 0.0
O230 O 0.32544 0.96717 0.59276 0.0
O231 O 0.38159 0.04353 0.54247 0.0
O232 O 0.30724 0.07381 0.60351 0.0
O233 O 0.4235 0.99558 0.63241 0.0
O234 O 0.36596 0.0197 0.67731 0.0
O235 O 0.41324 0.08849 0.63587 0.0
O236 O 0.35419 0.96935 0.66239 0.0
O237 O 0.43881 0.03311 0.59361 0.0
O238 O 0.36708 0.08814 0.6675 0.0
O239 O 0.392 0.98952 0.55861 0.0
O240 O 0.29766 0.99905 0.63054 0.0
O241 O 0.35251 0.10002 0.583 0.0
Sc242 Sc 0.25632 0.97254 0.87387 0.0
Sc243 Sc 0.3311 0.95575 0.92062 0.0
Sc244 Sc 0.31853 0.02961 0.87461 0.0
O245 O 0.30019 0.98699 0.89186 0.0
C246 C 0.27962 1.00718 0.80732 0.0
C247 C 0.32084 0.91704 0.85485 0.0
C248 C 0.38123 0.99061 0.87259 0.0
C249 C 0.26079 0.93848 0.9484 0.0
C250 C 0.24499 0.05587 0.8928 0.0
C251 C 0.34482 0.02121 0.95295 0.0
O252 O 0.26226 0.98495 0.82187 0.0
O253 O 0.33578 0.91846 0.88324 0.0
O254 O 0.35583 0.99661 0.85414 0.0
O255 O 0.24452 0.956 0.92625 0.0
O256 O 0.27712 0.06022 0.89227 0.0
O257 O 0.32945 0.9936 0.95869 0.0
O258 O 0.23199 0.02555 0.88681 0.0
O259 O 0.29071 0.92859 0.94327 0.0
O260 O 0.34503 0.03516 0.92357 0.0
O261 O 0.29068 0.9306 0.85021 0.0
O262 O 0.2973 0.02855 0.82395 0.0
O263 O 0.37692 0.97789 0.90171 0.0
Sc264 Sc 0.58485 0.33935 0.05724 0.0
Sc265 Sc 0.6131 0.29197 0.98891 0.0
Sc266 Sc 0.641 0.27269 0.06863 0.0
O267 O 0.6137 0.30198 0.03806 0.0
C268 C 0.65206 0.35259 0.09758 0.0
C269 C 0.61113 0.36871 0.98807 0.0
C270 C 0.69035 0.27908 1.01172 0.0
C271 C 0.53589 0.31452 1.00398 0.0
C272 C 0.57059 0.27968 0.1039 0.0
C273 C 0.62089 0.22005 1.00412 0.0
O274 O 0.62888 0.36401 0.07807 0.0
O275 O 0.62798 0.34236 0.98083 0.0
O276 O 0.68526 0.28526 0.04285 0.0
O277 O 0.53994 0.31719 0.03585 0.0
O278 O 0.59266 0.25891 0.0924 0.0
O279 O 0.59792 0.241 0.99623 0.0
O280 O 0.57657 0.31137 0.10343 0.0
O281 O 0.56063 0.30718 0.9846 0.0
O282 O 0.63912 0.22642 0.03121 0.0
O283 O 0.59056 0.3704 1.01267 0.0
O284 O 0.6546 0.31976 0.10261 0.0
O285 O 0.66667 0.27757 0.98926 0.0
Sc286 Sc 0.03805 0.39373 0.19275 0.0
Sc287 Sc 0.99299 0.34043 0.24639 0.0
Sc288 Sc 0.07664 0.36188 0.26269 0.0
O289 O 0.03571 0.36737 0.23497 0.0
C290 C 0.10309 0.35137 0.18308 0.0
C291 C 0.98741 0.34643 0.16905 0.0
C292 C 0.05115 0.29112 0.24548 0.0
C293 C 0.97061 0.41232 0.23403 0.0
C294 C 0.08051 0.44158 0.2403 0.0
C295 C 1.01455 0.36305 0.31483 0.0
O296 O 0.08668 0.37784 0.17515 0.0
O297 O 0.97106 0.34267 0.19613 0.0
O298 O 0.06337 0.30913 0.26965 0.0
O299 O 0.98956 0.41212 0.20784 0.0
O300 O 0.09146 0.41606 0.25758 0.0
O301 O 1.0078 0.33625 0.29855 0.0
O302 O 0.05915 0.43814 0.21606 0.0
O303 O 0.96894 0.38799 0.25526 0.0
O304 O 0.04232 0.3788 0.30686 0.0
O305 O 0.01907 0.34842 0.17103 0.0
O306 O 0.1045 0.34206 0.21483 0.0
O307 O 0.02113 0.29621 0.23422 0.0
Sc308 Sc 0.88045 0.75357 0.56943 0.0
Sc309 Sc 0.85375 0.73108 0.4895 0.0
Sc310 Sc 0.92396 0.6932 0.52657 0.0
O311 O 0.88511 0.72582 0.52941 0.0
C312 C 0.95968 0.73738 0.57958 0.0
C313 C 0.87611 0.80568 0.50239 0.0
C314 C 0.93149 0.73963 0.46617 0.0
C315 C 0.80181 0.7431 0.54873 0.0
C316 C 0.8777 0.66805 0.5863 0.0
C317 C 0.87534 0.65823 0.48449 0.0
O318 O 0.93578 0.75906 0.57856 0.0
O319 O 0.85523 0.78523 0.48859 0.0
O320 O 0.9458 0.73053 0.4942 0.0
O321 O 0.82491 0.75494 0.5683 0.0
O322 O 0.8962 0.6603 0.56073 0.0
O323 O 0.84918 0.67636 0.488 0.0
O324 O 0.87271 0.70014 0.59523 0.0
O325 O 0.80834 0.73114 0.5194 0.0
O326 O 0.90268 0.67349 0.48112 0.0
O327 O 0.8875 0.80001 0.53334 0.0
O328 O 0.95419 0.70761 0.56955 0.0
O329 O 0.89966 0.7346 0.4599 0.0
Sc330 Sc 0.97149 0.64899 0.31638 0.0
Sc331 Sc 0.0406 0.60991 0.3563 0.0
Sc332 Sc 0.04836 0.65544 0.28175 0.0
O333 O 0.02087 0.63781 0.31802 0.0
C334 C 0.97738 0.63993 0.24142 0.0
C335 C 0.97406 0.57381 0.32523 0.0
C336 C 0.07749 0.57857 0.29338 0.0
C337 C 0.9879 0.65287 0.38954 0.0
C338 C 1.00528 0.71737 0.30767 0.0
C339 C 0.08962 0.67165 0.35555 0.0
O340 O 0.96629 0.66039 0.26325 0.0
O341 O 0.99643 0.57775 0.34905 0.0
O342 O 0.07614 0.60651 0.2766 0.0
O343 O 0.96894 0.63733 0.3689 0.0
O344 O 0.02276 0.70452 0.28367 0.0
O345 O 0.08503 0.64112 0.36491 0.0
O346 O 0.98524 0.69982 0.32558 0.0
O347 O 0.01851 0.64411 0.39187 0.0
O348 O 0.08051 0.68059 0.32483 0.0
O349 O 0.96454 0.59766 0.30585 0.0
O350 O 1.0094 0.63204 0.24345 0.0
O351 O 0.06545 0.5759 0.32295 0.0
Sc352 Sc 0.55401 0.42367 0.84848 0.0
Sc353 Sc 0.46706 0.43523 0.86276 0.0
Sc354 Sc 0.49508 0.3781 0.80199 0.0
O355 O 0.50563 0.41126 0.83821 0.0
C356 C 0.56496 0.4176 0.77243 0.0
C357 C 0.51409 0.49034 0.83998 0.0
C358 C 0.44298 0.43791 0.78999 0.0
C359 C 0.51964 0.4163 0.91752 0.0
C360 C 0.55932 0.34461 0.82936 0.0
C361 C 0.44332 0.36036 0.86873 0.0
O362 O 0.56505 0.43755 0.79772 0.0
O363 O 0.48364 0.48118 0.84142 0.0
O364 O 0.46493 0.41788 0.77743 0.0
O365 O 0.54457 0.40821 0.89913 0.0
O366 O 0.52783 0.34151 0.823 0.0
O367 O 0.44856 0.38913 0.88218 0.0
O368 O 0.57346 0.37265 0.83777 0.0
O369 O 0.49878 0.43926 0.90809 0.0
O370 O 0.45397 0.35409 0.83778 0.0
O371 O 0.53755 0.47541 0.85703 0.0
O372 O 0.54119 0.39462 0.76926 0.0
O373 O 0.43274 0.43269 0.81994 0.0
Sc374 Sc 0.4889 0.60746 0.66971 0.0
Sc375 Sc 0.54059 0.67457 0.69375 0.0
Sc376 Sc 0.47115 0.65463 0.74123 0.0
O377 O 0.50055 0.64492 0.70293 0.0
C378 C 0.42913 0.65934 0.66453 0.0
C379 C 0.51067 0.66097 0.62472 0.0
C380 C 0.48809 0.72808 0.71907 0.0
C381 C 0.5624 0.59669 0.68456 0.0
C382 C 0.45397 0.57466 0.73221 0.0
C383 C 0.55057 0.65532 0.77281 0.0
O384 O 0.44578 0.63501 0.65146 0.0
O385 O 0.52006 0.68491 0.64378 0.0
O386 O 0.47597 0.70842 0.741 0.0
O387 O 0.53316 0.58366 0.68867 0.0
O388 O 0.45959 0.60054 0.75093 0.0
O389 O 0.56107 0.66717 0.74463 0.0
O390 O 0.45829 0.57593 0.70061 0.0
O391 O 0.56714 0.62863 0.6808 0.0
O392 O 0.51821 0.6487 0.77728 0.0
O393 O 0.51868 0.63125 0.63283 0.0
O394 O 0.4321 0.66662 0.6972 0.0
O395 O 0.51473 0.72099 0.70303 0.0
Sc396 Sc 0.89382 0.31965 0.96286 0.0
Sc397 Sc 0.91676 0.40206 0.97921 0.0
Sc398 Sc 0.86844 0.35299 0.03511 0.0
O399 O 0.89662 0.35727 0.99376 0.0
C400 C 0.82966 0.29767 0.99631 0.0
C401 C 0.87235 0.38871 0.91775 0.0
C402 C 0.83717 0.41012 0.99139 0.0
C403 C 0.96989 0.34905 0.95246 0.0
C404 C 0.91683 0.29226 0.04396 0.0
C405 C 0.91872 0.40654 0.05592 0.0
O406 O 0.84232 0.30815 0.96946 0.0
O407 O 0.90016 0.4018 0.92719 0.0
O408 O 0.83247 0.38154 1.00608 0.0
O409 O 0.94596 0.3276 0.94816 0.0
O410 O 0.90703 0.32036 0.05758 0.0
O411 O 0.93653 0.40697 0.02953 0.0
O412 O 0.91248 0.28675 1.01073 0.0
O413 O 0.96505 0.37817 0.96605 0.0
O414 O 0.88746 0.40075 0.05308 0.0
O415 O 0.86692 0.35714 0.92567 0.0
O416 O 0.84257 0.3059 0.02453 0.0
O417 O 0.8668 0.42407 0.98953 0.0
Sc418 Sc 0.64864 0.69478 0.50531 0.0
Sc419 Sc 0.59814 0.66133 0.56483 0.0
Sc420 Sc 0.59192 0.63338 0.47987 0.0
O421 O 0.61141 0.6645 0.51594 0.0
C422 C 0.59551 0.70373 0.44626 0.0
C423 C 0.60097 0.73744 0.56543 0.0
C424 C 0.5309 0.65363 0.51947 0.0
C425 C 0.67604 0.68382 0.57086 0.0
C426 C 0.66992 0.62192 0.46516 0.0
C427 C 0.60674 0.58763 0.53996 0.0
O428 O 0.61596 0.71796 0.46731 0.0
O429 O 0.58076 0.71239 0.56747 0.0
O430 O 0.54399 0.65481 0.49042 0.0
O431 O 0.67682 0.66908 0.54286 0.0
O432 O 0.64019 0.60992 0.46851 0.0
O433 O 0.61572 0.60995 0.56195 0.0
O434 O 0.6754 0.6541 0.47169 0.0
O435 O 0.64747 0.68356 0.58594 0.0
O436 O 0.58433 0.59435 0.51749 0.0
O437 O 0.62718 0.73538 0.54494 0.0
O438 O 0.59695 0.67179 0.44099 0.0
O439 O 0.54786 0.64553 0.54648 0.0
Sc440 Sc 0.75548 0.48303 0.66302 0.0
Sc441 Sc 0.72574 0.52765 0.59459 0.0
Sc442 Sc 0.69421 0.44591 0.60799 0.0
O443 O 0.7256 0.48577 0.62249 0.0
C444 C 0.76771 0.41725 0.61307 0.0
C445 C 0.80045 0.54003 0.61881 0.0
C446 C 0.70501 0.48376 0.53906 0.0
C447 C 0.72584 0.55616 0.67004 0.0
C448 C 0.6888 0.43619 0.68493 0.0
C449 C 0.65127 0.5084 0.61357 0.0
O450 O 0.77675 0.43708 0.63798 0.0
O451 O 0.77928 0.53832 0.59432 0.0
O452 O 0.68903 0.46074 0.55461 0.0
O453 O 0.73525 0.52818 0.68323 0.0
O454 O 0.68843 0.42189 0.65628 0.0
O455 O 0.67131 0.52149 0.59238 0.0
O456 O 0.7124 0.45789 0.69184 0.0
O457 O 0.7215 0.56099 0.63828 0.0
O458 O 0.65275 0.47723 0.62135 0.0
O459 O 0.79736 0.51961 0.6445 0.0
O460 O 0.73833 0.41762 0.59899 0.0
O461 O 0.73235 0.49357 0.55288 0.0
Sc462 Sc 0.65734 0.56444 0.90786 0.0
Sc463 Sc 0.69005 0.50677 0.84817 0.0
Sc464 Sc 0.73777 0.57504 0.87396 0.0
O465 O 0.69591 0.54697 0.87849 0.0
C466 C 0.67154 0.62453 0.86566 0.0
C467 C 0.61932 0.54697 0.84035 0.0
C468 C 0.72599 0.55707 0.79838 0.0
C469 C 0.65102 0.48443 0.91238 0.0
C470 C 0.71904 0.57921 0.95458 0.0
C471 C 0.76792 0.49684 0.87756 0.0
O472 O 0.66582 0.61686 0.89625 0.0
O473 O 0.63908 0.52248 0.83265 0.0
O474 O 0.74619 0.56862 0.82068 0.0
O475 O 0.6423 0.51412 0.9213 0.0
O476 O 0.7368 0.58775 0.92884 0.0
O477 O 0.74104 0.48683 0.86165 0.0
O478 O 0.68992 0.56585 0.9512 0.0
O479 O 0.67169 0.47819 0.88884 0.0
O480 O 0.77152 0.52877 0.88601 0.0
O481 O 0.62372 0.56495 0.86649 0.0
O482 O 0.70007 0.61438 0.85353 0.0
O483 O 0.70471 0.53412 0.80469 0.0
Sc484 Sc 0.78412 0.53609 0.16274 0.0
Sc485 Sc 0.81865 0.45876 0.15155 0.0
Sc486 Sc 0.85231 0.52831 0.10826 0.0
O487 O 0.81903 0.50882 0.14158 0.0
C488 C 0.78519 0.56607 0.08607 0.0
C489 C 0.74358 0.46449 0.15501 0.0
C490 C 0.80905 0.47152 0.07645 0.0
C491 C 0.82102 0.49349 0.22127 0.0
C492 C 0.85622 0.58217 0.16702 0.0
C493 C 0.89178 0.47304 0.14315 0.0
O494 O 0.77105 0.56251 0.11499 0.0
O495 O 0.7688 0.45466 0.17224 0.0
O496 O 0.83872 0.48486 0.07773 0.0
O497 O 0.79557 0.51134 0.21115 0.0
O498 O 0.86596 0.57215 0.13805 0.0
O499 O 0.86824 0.45503 0.13097 0.0
O500 O 0.8273 0.57226 0.17946 0.0
O501 O 0.83603 0.47215 0.20195 0.0
O502 O 0.89232 0.50411 0.13592 0.0
O503 O 0.74355 0.4962 0.14618 0.0
O504 O 0.81483 0.5553 0.0802 0.0
O505 O 0.79786 0.45429 0.10136 0.0
Sc506 Sc 0.83021 0.45018 0.42494 0.0
Sc507 Sc 0.90727 0.46134 0.47242 0.0
Sc508 Sc 0.86119 0.52816 0.43788 0.0
O509 O 0.86673 0.47879 0.44358 0.0
C510 C 0.84942 0.50038 0.36487 0.0
C511 C 0.90512 0.41236 0.40979 0.0
C512 C 0.93609 0.51758 0.43387 0.0
C513 C 0.84625 0.41889 0.50006 0.0
C514 C 0.78333 0.51883 0.43836 0.0
C515 C 0.87602 0.52342 0.51165 0.0
O516 O 0.83148 0.47654 0.37721 0.0
O517 O 0.91682 0.41941 0.43918 0.0
O518 O 0.91377 0.53177 0.45111 0.0
O519 O 0.82771 0.42151 0.47307 0.0
O520 O 0.80852 0.53445 0.42695 0.0
O521 O 0.90183 0.50409 0.50788 0.0
O522 O 0.78624 0.48612 0.44347 0.0
O523 O 0.87509 0.43275 0.50333 0.0
O524 O 0.8514 0.52211 0.4906 0.0
O525 O 0.87372 0.41927 0.40151 0.0
O526 O 0.86592 0.52183 0.38321 0.0
O527 O 0.94269 0.48726 0.44105 0.0
C528 C 1.00258 0.17083 0.08445 0.0
C529 C 1.00414 0.13534 0.08122 0.0
C530 C 1.00044 0.19139 0.05575 0.0
C531 C 1.00783 0.1768 0.02421 0.0
H532 H 1.0067 0.18281 0.10887 0.0
H533 H 1.00381 0.21847 0.05935 0.0
S534 S 0.99703 0.08625 1.00148 0.0
N535 N 0.99762 0.08683 0.0435 0.0
N536 N 0.99997 0.12629 0.98928 0.0
C537 C 1.0004 0.14211 0.01998 0.0
C538 C 0.9995 0.1208 0.04909 0.0
C539 C 0.99683 0.85458 0.49118 0.0
C540 C 1.01147 0.8669 0.52149 0.0
C541 C 0.99313 0.87663 0.46366 0.0
C542 C 1.00072 0.91145 0.46738 0.0
H543 H 0.99617 0.82751 0.48617 0.0
H544 H 0.98798 0.86585 0.43875 0.0
S545 S 1.01384 0.95704 0.54855 0.0
N546 N 1.01427 0.91638 0.55885 0.0
N547 N 1.00711 0.95839 0.50704 0.0
C548 C 1.00412 0.92472 0.50016 0.0
C549 C 1.00794 0.902 0.52799 0.0
C550 C 0.51083 0.86152 0.61468 0.0
C551 C 0.51715 0.89511 0.60443 0.0
C552 C 0.51115 0.83504 0.59136 0.0
C553 C 0.51298 0.84255 0.5568 0.0
H554 H 0.5028 0.85609 0.64031 0.0
H555 H 0.50236 0.8104 0.5995 0.0
S556 S 0.54224 0.92318 0.51902 0.0
N557 N 0.53678 0.93216 0.55965 0.0
N558 N 0.5337 0.8823 0.51465 0.0
C559 C 0.52681 0.87403 0.54734 0.0
C560 C 0.52822 0.90098 0.57144 0.0
C561 C 0.51869 0.22181 0.99085 0.0
C562 C 0.5146 0.19903 0.01781 0.0
C563 C 0.53303 0.21007 0.96083 0.0
C564 C 0.54569 0.17676 0.95917 0.0
H565 H 0.50353 0.24475 0.98982 0.0
H566 H 0.52994 0.22513 0.93802 0.0
S567 S 0.55789 0.11767 0.03166 0.0
N568 N 0.53794 0.15073 0.04767 0.0
N569 N 0.564 0.12688 0.9913 0.0
C570 C 0.55058 0.15861 0.98965 0.0
C571 C 0.53652 0.17136 0.02004 0.0
C572 C 1.00601 1.00049 0.15698 0.0
C573 C 1.01279 1.01406 0.18945 0.0
C574 C 0.0329 0.9986 0.13384 0.0
C575 C 0.06618 1.0056 0.14533 0.0
H576 H 0.98024 1.00045 0.14703 0.0
H577 H 0.02725 0.9957 0.10698 0.0
S578 S 0.0939 0.01717 0.23478 0.0
N579 N 0.05225 1.01312 0.23649 0.0
N580 N 0.10377 1.01166 0.19459 0.0
C581 C 0.07256 1.00599 0.18067 0.0
C582 C 0.04466 1.00615 0.20345 0.0
C583 C 0.19823 0.95285 0.48808 0.0
C584 C 0.19089 0.95102 0.45315 0.0
C585 C 0.17375 0.944 0.51173 0.0
C586 C 0.14105 0.93411 0.50091 0.0
H587 H 0.22286 0.96162 0.49708 0.0
H588 H 0.18068 0.94439 0.53845 0.0
S589 S 0.10847 0.92793 0.41208 0.0
N590 N 0.14873 0.93844 0.40881 0.0
N591 N 0.10168 0.92591 0.45321 0.0
C592 C 0.13301 0.93381 0.46602 0.0
C593 C 0.15836 0.94074 0.44209 0.0
C594 C 0.46081 0.03746 0.67827 0.0
C595 C 0.47053 0.02977 0.64473 0.0
C596 C 0.48521 0.03855 0.70451 0.0
C597 C 0.5165 0.02294 0.69817 0.0
H598 H 0.43428 0.03871 0.68489 0.0
H599 H 0.47621 0.04012 0.73038 0.0
S600 S 0.55875 0.02109 0.61516 0.0
N601 N 0.51788 0.02529 0.60584 0.0
N602 N 0.562 0.0224 0.65711 0.0
C603 C 0.52902 0.0277 0.66522 0.0
C604 C 0.50526 0.02887 0.63758 0.0
C605 C 0.42765 0.05601 0.98483 0.0
C606 C 0.41854 0.06761 0.01712 0.0
C607 C 0.4038 0.03911 0.96463 0.0
C608 C 0.37139 0.03161 0.97702 0.0
H609 H 0.45035 0.06564 0.97286 0.0
H610 H 0.40989 0.03411 0.93852 0.0
S611 S 0.34364 0.04017 0.06562 0.0
N612 N 0.38089 0.05949 0.06487 0.0
N613 N 0.33643 0.02562 0.02685 0.0
C614 C 0.36549 0.03564 1.01167 0.0
C615 C 0.3896 0.05355 0.03213 0.0
C616 C 0.06934 0.02462 0.32441 0.0
C617 C 0.05361 0.03452 0.35471 0.0
C618 C 0.10449 0.01957 0.32412 0.0
C619 C 0.1238 0.02703 0.35324 0.0
H620 H 0.05419 1.01314 0.30434 0.0
H621 H 0.11567 1.00573 0.30332 0.0
S622 S 0.09396 0.0725 0.43032 0.0
N623 N 0.05937 0.06584 0.40715 0.0
N624 N 0.12549 0.05667 0.40806 0.0
C625 C 0.10858 0.04571 0.37974 0.0
C626 C 0.0731 0.05107 0.37926 0.0
C627 C 0.428 0.99613 0.49502 0.0
C628 C 0.39365 1.00348 0.50079 0.0
C629 C 0.43775 0.96226 0.49119 0.0
C630 C 0.41264 0.93702 0.48991 0.0
H631 H 0.44737 1.01443 0.50224 0.0
H632 H 0.46435 0.95569 0.49411 0.0
S633 S 0.31995 0.95018 0.47852 0.0
N634 N 0.33567 0.98832 0.48654 0.0
N635 N 0.35291 0.92422 0.4781 0.0
C636 C 0.37865 0.9466 0.48393 0.0
C637 C 0.36938 0.98099 0.48795 0.0
C638 C 0.46619 0.02822 0.88778 0.0
C639 C 0.45856 0.06306 0.88628 0.0
C640 C 0.44123 1.00426 0.88058 0.0
C641 C 0.40861 1.01474 0.87086 0.0
H642 H 0.49163 0.01939 0.89373 0.0
H643 H 0.44716 0.97752 0.8833 0.0
S644 S 0.37587 0.10323 0.86553 0.0
N645 N 0.41581 0.10688 0.87786 0.0
N646 N 0.36995 0.06218 0.85994 0.0
C647 C 0.40102 0.04961 0.86855 0.0
C648 C 0.4257 0.07373 0.87786 0.0
C649 C 0.09479 0.05941 0.98404 0.0
C650 C 0.11972 0.08448 0.98083 0.0
C651 C 0.10436 0.02637 0.99273 0.0
C652 C 0.13859 0.01947 1.00039 0.0
H653 H 0.06814 0.0661 0.98363 0.0
H654 H 0.08476 1.00894 1.0008 0.0
S655 S 0.21293 0.07225 0.98343 0.0
N656 N 0.17992 0.09753 0.97717 0.0
N657 N 0.19703 0.03441 0.99122 0.0
C658 C 0.16331 0.04118 0.98793 0.0
C659 C 0.15406 0.07508 0.98046 0.0
C660 C 0.61353 0.43098 0.98118 0.0
C661 C 0.61632 0.39839 0.96708 0.0
C662 C 0.62368 0.45928 0.96277 0.0
C663 C 0.63661 0.45545 0.92989 0.0
H664 H 0.60523 0.43447 1.0071 0.0
H665 H 0.62282 0.48397 0.97492 0.0
S666 S 0.64316 0.37566 0.87992 0.0
N667 N 0.62874 0.36401 0.91725 0.0
N668 N 0.64723 0.41722 0.88228 0.0
C669 C 0.63688 0.42316 0.91463 0.0
C670 C 0.62683 0.39453 0.93338 0.0
C671 C 0.91243 0.42263 0.22191 0.0
C672 C 0.9435 0.43691 0.23184 0.0
C673 C 0.89623 0.43404 0.19246 0.0
C674 C 0.90874 0.46225 0.17459 0.0
H675 H 0.90414 0.39878 0.23273 0.0
H676 H 0.87442 0.4199 0.18312 0.0
S677 S 0.98481 0.51326 0.1971 0.0
N678 N 0.98265 0.48405 0.22701 0.0
N679 N 0.9512 0.50706 0.17236 0.0
C680 C 0.9366 0.48016 0.18811 0.0
C681 C 0.95324 0.46812 0.21787 0.0
C682 C 0.90865 0.60723 0.50199 0.0
C683 C 0.87724 0.62447 0.50012 0.0
C684 C 0.91082 0.5745 0.51541 0.0
C685 C 0.88123 0.55758 0.52533 0.0
H686 H 0.93142 0.61832 0.49154 0.0
H687 H 0.9345 0.5608 0.51275 0.0
S688 S 0.79631 0.59432 0.53358 0.0
N689 N 0.81834 0.62494 0.5164 0.0
N690 N 0.8225 0.56265 0.54061 0.0
C691 C 0.85165 0.57671 0.52944 0.0
C692 C 0.84924 0.60988 0.5157 0.0
C693 C 0.95693 0.50726 0.37562 0.0
C694 C 0.93989 0.52831 0.39886 0.0
C695 C 0.96046 0.51742 0.342 0.0
C696 C 0.94807 0.54921 0.33214 0.0
H697 H 0.96916 0.484 0.38374 0.0
H698 H 0.97806 0.50384 0.32596 0.0
S699 S 0.88992 0.60581 0.37779 0.0
N700 N 0.90472 0.57908 0.40657 0.0
N701 N 0.90556 0.59264 0.34137 0.0
C702 C 0.92323 0.56474 0.3518 0.0
C703 C 0.92309 0.55759 0.38681 0.0
C704 C 0.57779 0.52825 0.79642 0.0
C705 C 0.58582 0.54995 0.82371 0.0
C706 C 0.54517 0.51447 0.794 0.0
C707 C 0.52233 0.52038 0.82044 0.0
H708 H 0.59754 0.51787 0.78052 0.0
H709 H 0.54074 0.49375 0.77637 0.0
S710 S 0.52403 0.5905 0.88191 0.0
N711 N 0.56252 0.5893 0.86584 0.0
N712 N 0.5022 0.56095 0.86143 0.0
C713 C 0.52612 0.5498 0.83945 0.0
C714 C 0.55867 0.56478 0.84177 0.0
C715 C 0.47882 0.63783 0.5755 0.0
C716 C 0.49208 0.6665 0.59278 0.0
C717 C 0.47763 0.63766 0.53996 0.0
C718 C 0.49527 0.66342 0.52333 0.0
H719 H 0.47374 0.61436 0.58881 0.0
H720 H 0.47278 0.61377 0.52709 0.0
S721 S 0.50529 0.7508 0.55428 0.0
N722 N 0.50104 0.7277 0.589 0.0
N723 N 0.50034 0.72463 0.52171 0.0
C724 C 0.49352 0.69548 0.53857 0.0
C725 C 0.49433 0.69704 0.57467 0.0
C726 C 0.50546 0.36874 0.99909 0.0
C727 C 0.50909 0.33496 0.98746 0.0
C728 C 0.50539 0.39597 0.97599 0.0
C729 C 0.50871 0.38964 0.94112 0.0
H730 H 0.50845 0.37456 0.02588 0.0
H731 H 0.50668 0.42172 0.98564 0.0
S732 S 0.50696 0.30529 0.89885 0.0
N733 N 0.5038 0.29675 0.93965 0.0
N734 N 0.50955 0.347 0.89634 0.0
C735 C 0.50667 0.35585 0.92953 0.0
C736 C 0.50394 0.32867 0.95286 0.0
C737 C 0.91757 0.37969 0.11256 0.0
C738 C 0.93556 0.39807 0.08802 0.0
C739 C 0.93469 0.3627 0.13851 0.0
C740 C 0.97021 0.36413 0.14111 0.0
H741 H 0.89029 0.37648 0.11059 0.0
H742 H 0.92004 0.34776 0.15616 0.0
S743 S 0.028 0.4153 0.08739 0.0
N744 N 0.98984 0.42122 0.07074 0.0
N745 N 0.02236 0.38971 0.11992 0.0
C746 C 0.9882 0.38486 0.11837 0.0
C747 C 0.97071 0.40203 0.0919 0.0
C748 C 0.9993 0.70402 0.4251 0.0
C749 C 0.97813 0.68657 0.40179 0.0
C750 C 0.98749 0.73319 0.44139 0.0
C751 C 0.95349 0.74303 0.43634 0.0
H752 H 0.02369 0.69371 0.43289 0.0
H753 H 1.00199 0.74289 0.46291 0.0
S754 S 0.89756 0.71957 0.36424 0.0
N755 N 0.92752 0.69028 0.36521 0.0
N756 N 0.90833 0.74731 0.39399 0.0
C757 C 0.93792 0.73346 0.40558 0.0
C758 C 0.94826 0.70273 0.39019 0.0
C759 C 0.60309 0.51746 0.65236 0.0
C760 C 0.62881 0.531 0.63211 0.0
C761 C 0.58325 0.53871 0.67225 0.0
C762 C 0.58901 0.57396 0.67283 0.0
H763 H 0.59787 0.49048 0.65243 0.0
H764 H 0.56238 0.52757 0.68609 0.0
S765 S 0.65877 0.6205 0.63085 0.0
N766 N 0.66125 0.58129 0.61664 0.0
N767 N 0.62653 0.62037 0.65699 0.0
C768 C 0.6167 0.58726 0.65519 0.0
C769 C 0.63572 0.56601 0.63376 0.0
C770 C 0.7784 0.42133 1.00489 0.0
C771 C 0.80654 0.4314 0.98554 0.0
C772 C 0.77369 0.43803 0.03594 0.0
C773 C 0.79306 0.46733 0.04291 0.0
H774 H 0.76821 0.3959 1.00213 0.0
H775 H 0.75992 0.42518 0.0558 0.0
S776 S 0.83816 0.5191 0.9796 0.0
N777 N 0.8318 0.48188 0.96117 0.0
N778 N 0.81998 0.51656 0.0171 0.0
C779 C 0.80682 0.48474 1.0152 0.0
C780 C 0.81276 0.46634 0.98501 0.0
C781 C 0.62259 0.52824 0.52208 0.0
C782 C 0.63184 0.56123 0.53196 0.0
C783 C 0.6476 0.503 0.5185 0.0
C784 C 0.68243 0.51041 0.52426 0.0
H785 H 0.59604 0.52137 0.51958 0.0
H786 H 0.63938 0.477 0.5147 0.0
S787 S 0.71816 0.59555 0.54237 0.0
N788 N 0.67713 0.60115 0.54177 0.0
N789 N 0.72422 0.55544 0.53207 0.0
C790 C 0.69163 0.54475 0.52805 0.0
C791 C 0.66624 0.56961 0.53334 0.0
C792 C 0.92595 0.03167 0.27041 0.0
C793 C 0.93318 0.0297 0.30553 0.0
C794 C 0.92939 0.06241 0.25219 0.0
C795 C 0.94198 0.09246 0.26768 0.0
H796 H 0.91825 1.00905 0.25664 0.0
H797 H 0.9238 0.06199 0.22519 0.0
S798 S 0.96239 0.10207 0.35953 0.0
N799 N 0.95033 0.06208 0.35569 0.0
N800 N 0.95952 0.11843 0.32101 0.0
C801 C 0.94818 0.09116 0.30297 0.0
C802 C 0.94317 0.06027 0.32187 0.0
C803 C 0.27885 0.86329 0.50525 0.0
C804 C 0.29369 0.83452 0.49006 0.0
C805 C 0.2449 0.87251 0.49805 0.0
C806 C 0.22479 0.85389 0.47468 0.0
H807 H 0.29292 0.8779 0.52398 0.0
H808 H 0.23323 0.89168 0.51385 0.0
S809 S 0.25299 0.78117 0.42252 0.0
N810 N 0.2863 0.79059 0.44659 0.0
N811 N 0.22381 0.80949 0.43224 0.0
C812 C 0.2409 0.82851 0.45577 0.0
C813 C 0.27475 0.81807 0.46397 0.0
C814 C 0.56019 0.95435 0.80896 0.0
C815 C 0.5774 0.94609 0.7789 0.0
C816 C 0.56224 0.98695 0.82357 0.0
C817 C 0.58137 1.01341 0.80885 0.0
H818 H 0.54397 0.93577 0.82089 0.0
H819 H 0.54758 0.99162 0.84621 0.0
S820 S 0.63351 1.00492 0.73136 0.0
N821 N 0.61648 0.96695 0.73616 0.0
N822 N 0.61944 0.02822 0.76315 0.0
C823 C 0.59972 1.00529 0.77944 0.0
C824 C 0.59809 0.97176 0.76476 0.0
C825 C 0.27633 0.15911 0.99915 0.0
C826 C 0.29774 0.18601 1.00892 0.0
C827 C 0.24229 0.15873 1.00941 0.0
C828 C 0.22973 0.18362 0.0316 0.0
H829 H 0.28527 0.13949 0.98217 0.0
H830 H 0.22515 0.14068 0.99798 0.0
S831 S 0.27656 0.2557 0.06998 0.0
N832 N 0.3038 0.23723 0.04446 0.0
N833 N 0.24178 0.23265 0.06686 0.0
C834 C 0.25177 0.20836 0.04439 0.0
C835 C 0.28524 0.2106 0.03217 0.0
C836 C 0.21272 0.92756 0.98923 0.0
C837 C 0.24738 0.93306 0.98333 0.0
C838 C 0.20044 0.92395 0.02255 0.0
C839 C 0.22208 0.92704 0.05144 0.0
H840 H 0.19495 0.92625 0.96803 0.0
H841 H 0.1734 0.92035 0.02561 0.0
S842 S 0.31532 0.94018 0.04972 0.0
N843 N 0.30354 0.93972 1.00934 0.0
N844 N 0.28023 0.93426 0.07137 0.0
C845 C 0.25692 0.93152 0.04571 0.0
C846 C 0.26954 0.93435 1.01191 0.0
C847 C 0.22914 1.0021 0.21057 0.0
C848 C 0.22207 0.03562 0.19951 0.0
C849 C 0.25275 0.99571 0.23594 0.0
C850 C 0.26608 0.02291 0.25445 0.0
H851 H 0.21429 0.98048 0.20242 0.0
H852 H 0.25433 0.97004 0.24579 0.0
S853 S 0.27699 0.10944 0.21957 0.0
N854 N 0.24764 0.09178 0.19469 0.0
N855 N 0.28679 0.08095 0.24895 0.0
C856 C 0.26668 0.05487 0.23852 0.0
C857 C 0.24506 0.06097 0.20975 0.0
C858 C 0.31121 0.09309 0.48261 0.0
C859 C 0.27703 0.08391 0.47699 0.0
C860 C 0.32462 0.09781 0.51582 0.0
C861 C 0.30479 0.09276 0.54518 0.0
H862 H 0.32796 0.09609 0.46121 0.0
H863 H 0.35134 0.10392 0.5184 0.0
S864 S 0.21345 0.06936 0.54488 0.0
N865 N 0.22325 0.07111 0.50428 0.0
N866 N 0.24863 0.07919 0.56589 0.0
C867 C 0.27036 0.0845 0.53987 0.0
C868 C 0.25653 0.08023 0.50614 0.0
C869 C 0.30012 0.03109 0.75381 0.0
C870 C 0.28681 1.00315 0.77077 0.0
C871 C 0.31996 0.02671 0.72528 0.0
C872 C 0.32768 0.99407 0.71215 0.0
H873 H 0.29764 0.05644 0.76431 0.0
H874 H 0.33077 0.04955 0.71468 0.0
S875 S 0.29111 0.91315 0.74205 0.0
N876 N 0.27631 0.94204 0.76858 0.0
N877 N 0.31474 0.93392 0.7146 0.0
C878 C 0.31096 0.96617 0.72621 0.0
C879 C 0.29003 0.97072 0.75545 0.0
C880 C 1.00783 0.31262 0.9174 0.0
C881 C 1.00464 0.33697 0.94348 0.0
C882 C 0.03722 0.29279 0.9142 0.0
C883 C 0.06491 0.29636 0.9369 0.0
H884 H 0.98642 0.30704 0.90073 0.0
H885 H 0.0371 0.27255 0.8955 0.0
S886 S 0.0718 0.36032 1.00617 0.0
N887 N 0.03354 0.36661 0.98966 0.0
N888 N 0.08891 0.32934 0.98373 0.0
C889 C 0.06357 0.32309 0.96082 0.0
C890 C 0.03341 0.34338 0.9641 0.0
C891 C 0.47352 0.27975 0.10412 0.0
C892 C 0.46493 0.24573 0.11072 0.0
C893 C 0.50754 0.29082 0.10453 0.0
C894 C 0.53486 0.26818 0.11031 0.0
H895 H 0.45387 0.29786 0.0974 0.0
H896 H 0.51242 0.31712 0.09833 0.0
S897 S 0.5265 0.17737 0.1333 0.0
N898 N 0.48695 0.19035 0.12779 0.0
N899 N 0.55065 0.21076 0.12598 0.0
C900 C 0.52666 0.23453 0.11869 0.0
C901 C 0.49188 0.22347 0.1196 0.0
C902 C 0.08367 0.24967 0.16642 0.0
C903 C 0.09964 0.2215 0.18114 0.0
C904 C 0.06835 0.27334 0.18785 0.0
C905 C 0.07407 0.27219 0.22326 0.0
H906 H 0.0754 0.24856 0.14007 0.0
H907 H 0.05053 0.2912 0.17696 0.0
S908 S 0.13794 0.21864 0.26715 0.0
N909 N 0.13691 0.20442 0.22757 0.0
N910 N 0.11074 0.2506 0.26855 0.0
C911 C 0.10011 0.25117 0.2356 0.0
C912 C 0.11451 0.22658 0.2134 0.0
C913 C 0.03619 0.78772 0.61385 0.0
C914 C 0.06454 0.77127 0.59916 0.0
C915 C 1.00262 0.77623 0.60843 0.0
C916 C 0.99559 0.7472 0.58875 0.0
H917 H 0.03958 0.81111 0.628 0.0
H918 H 0.98195 0.79085 0.61896 0.0
S919 S 0.06023 0.6925 0.54718 0.0
N920 N 0.08277 0.72269 0.56588 0.0
N921 N 0.02029 0.70068 0.55642 0.0
C922 C 0.02376 0.72907 0.57588 0.0
C923 C 0.05794 0.74106 0.58101 0.0
C924 C 0.53278 0.70516 0.43147 0.0
C925 C 0.56378 0.7227 0.4367 0.0
C926 C 0.5012 0.72213 0.43198 0.0
C927 C 0.49934 0.75755 0.43625 0.0
H928 H 0.53265 0.67779 0.42902 0.0
H929 H 0.4781 0.70732 0.4297 0.0
S930 S 0.57308 0.816 0.4466 0.0
N931 N 0.59034 0.77797 0.44357 0.0
N932 N 0.53174 0.8099 0.44302 0.0
C933 C 0.53028 0.77564 0.4389 0.0
C934 C 0.56223 0.75829 0.43932 0.0
C935 C 0.98485 0.80193 0.34614 0.0
C936 C 1.0131 0.82193 0.3382 0.0
C937 C 0.98237 0.76866 0.33491 0.0
C938 C 1.00838 0.75357 0.31614 0.0
H939 H 0.96363 0.81258 0.35987 0.0
H940 H 0.95939 0.75493 0.34041 0.0
S941 S 0.08887 0.79467 0.29048 0.0
N942 N 0.06825 0.82458 0.31129 0.0
N943 N 0.06426 0.7607 0.29119 0.0
C944 C 0.0375 0.77287 0.30893 0.0
C945 C 0.03986 0.80728 0.32011 0.0
C946 C 0.5754 0.26134 0.79257 0.0
C947 C 0.57358 0.24202 0.82232 0.0
C948 C 0.57774 0.2968 0.79465 0.0
C949 C 0.57889 0.31338 0.82644 0.0
H950 H 0.5713 0.24951 0.76798 0.0
H951 H 0.57413 0.31145 0.7716 0.0
S952 S 0.58437 0.27353 0.91065 0.0
N953 N 0.57896 0.24148 0.88397 0.0
N954 N 0.58634 0.30793 0.88706 0.0
C955 C 0.58311 0.29396 0.85563 0.0
C956 C 0.57922 0.25816 0.85384 0.0
C957 C 0.45157 0.47814 0.74131 0.0
C958 C 0.43883 0.47248 0.77407 0.0
C959 C 0.45496 0.51101 0.72802 0.0
C960 C 0.44632 0.54029 0.74687 0.0
H961 H 0.46032 0.45701 0.72609 0.0
H962 H 0.46597 0.51338 0.70306 0.0
S963 S 0.40841 0.54005 0.83263 0.0
N964 N 0.41409 0.49943 0.82384 0.0
N965 N 0.42216 0.56119 0.79932 0.0
C966 C 0.43218 0.53516 0.77909 0.0
C967 C 0.42781 0.5014 0.79241 0.0
C968 C 0.7727 0.29487 0.96961 0.0
C969 C 0.79553 0.28358 0.99503 0.0
C970 C 0.73785 0.29021 0.97315 0.0
C971 C 0.72543 0.27401 1.00204 0.0
H972 H 0.7814 0.31014 0.94858 0.0
H973 H 0.72066 0.3021 0.95504 0.0
S974 S 0.77541 0.23113 0.06991 0.0
N975 N 0.80403 0.24945 0.04574 0.0
N976 N 0.73822 0.23998 0.05218 0.0
C977 C 0.74822 0.2585 0.02496 0.0
C978 C 0.78354 0.26352 0.02153 0.0
C979 C 0.09683 0.48428 0.28548 0.0
C980 C 0.089 0.47719 0.25122 0.0
C981 C 0.09643 0.51775 0.29814 0.0
C982 C 0.08835 0.54583 0.27717 0.0
H983 H 0.10084 0.46371 0.30329 0.0
H984 H 0.10033 0.52137 0.32521 0.0
S985 S 0.07281 0.54174 0.18407 0.0
N986 N 0.07814 0.50172 0.19538 0.0
N987 N 0.07717 0.56431 0.21927 0.0
C988 C 0.08383 0.5394 0.24222 0.0
C989 C 0.08411 0.50524 0.22929 0.0
C990 C 0.70785 0.72965 0.54208 0.0
C991 C 0.70014 0.71333 0.57305 0.0
C992 C 0.74016 0.74228 0.53555 0.0
C993 C 0.76591 0.74117 0.56032 0.0
H994 H 0.69037 0.72904 0.52083 0.0
H995 H 0.74569 0.75052 0.50994 0.0
S996 S 0.75292 0.72037 0.65136 0.0
N997 N 0.7168 0.70906 0.63253 0.0
N998 N 0.7775 0.73552 0.62112 0.0
C999 C 0.75631 0.7327 0.59378 0.0
C1000 C 0.72327 0.71837 0.60007 0.0
C1001 C 0.82686 0.41424 0.59314 0.0
C1002 C 0.79406 0.40044 0.59237 0.0
C1003 C 0.84559 0.41646 0.56331 0.0
C1004 C 0.83203 0.405 0.53182 0.0
H1005 H 0.83618 0.42774 0.6154 0.0
H1006 H 0.86905 0.43079 0.56454 0.0
S1007 S 0.75479 0.35256 0.52043 0.0
N1008 N 0.7548 0.36364 0.56095 0.0
N1009 N 0.78928 0.3697 0.50427 0.0
C1010 C 0.80261 0.38514 0.53233 0.0
C1011 C 0.78406 0.38191 0.56303 0.0
C1012 C 0.69052 0.57884 0.71261 0.0
C1013 C 0.72038 0.58336 0.69432 0.0
C1014 C 0.69245 0.57213 0.74727 0.0
C1015 C 0.72393 0.57271 0.76465 0.0
H1016 H 0.66713 0.57238 0.69953 0.0
H1017 H 0.66961 0.5636 0.75977 0.0
S1018 S 0.80546 0.60268 0.72999 0.0
N1019 N 0.77903 0.602 0.69705 0.0
N1020 N 0.783 0.59077 0.76311 0.0
C1021 C 0.75209 0.58629 0.74805 0.0
C1022 C 0.74983 0.59277 0.71252 0.0
C1023 C 0.78337 0.58966 0.02705 0.0
C1024 C 0.76559 0.57811 0.05575 0.0
C1025 C 0.76775 0.59177 0.99484 0.0
C1026 C 0.73353 0.58258 0.98983 0.0
H1027 H 0.81029 0.5951 0.02901 0.0
H1028 H 0.78321 0.59896 0.97347 0.0
S1029 S 0.67417 0.55583 0.05772 0.0
N1030 N 0.71091 0.561 0.07771 0.0
N1031 N 0.68114 0.5656 0.01765 0.0
C1032 C 0.71466 0.57382 0.01895 0.0
C1033 C 0.73072 0.57157 0.05176 0.0
C1034 C 0.85587 0.47229 0.30901 0.0
C1035 C 0.84966 0.50222 0.32756 0.0
C1036 C 0.84781 0.46999 0.27429 0.0
C1037 C 0.83253 0.49734 0.2571 0.0
H1038 H 0.86558 0.44992 0.32186 0.0
H1039 H 0.85195 0.44608 0.26135 0.0
S1040 S 0.81519 0.58272 0.29348 0.0
N1041 N 0.8306 0.56066 0.32581 0.0
N1042 N 0.8151 0.55665 0.26053 0.0
C1043 C 0.82812 0.52811 0.27502 0.0
C1044 C 0.83687 0.53052 0.31026 0.0
C1045 C 0.47057 0.76718 0.67231 0.0
C1046 C 0.46652 0.756 0.70614 0.0
C1047 C 0.45048 0.79362 0.65926 0.0
C1048 C 0.43119 0.81325 0.68164 0.0
H1049 H 0.48927 0.75575 0.65591 0.0
H1050 H 0.45606 0.80341 0.6343 0.0
S1051 S 0.39743 0.78352 0.76332 0.0
N1052 N 0.42906 0.75727 0.75515 0.0
N1053 N 0.39473 0.80954 0.73052 0.0
C1054 C 0.41956 0.79662 0.71068 0.0
C1055 C 0.43859 0.76883 0.72422 0.0
C1056 C 0.10711 0.12106 0.31587 0.0
C1057 C 0.11037 0.12421 0.28029 0.0
C1058 C 0.13567 0.11404 0.33797 0.0
C1059 C 0.16985 0.10912 0.3266 0.0
H1060 H 0.08211 0.12289 0.32684 0.0
H1061 H 0.13043 0.11157 0.36474 0.0
S1062 S 0.19338 0.12405 0.23697 0.0
N1063 N 0.15182 0.12789 0.23583 0.0
N1064 N 0.20436 0.11456 0.27648 0.0
C1065 C 0.17355 0.11489 0.29136 0.0
C1066 C 0.14442 0.12215 0.26883 0.0
C1067 C 0.21048 0.92391 0.60634 0.0
C1068 C 0.21851 0.8892 0.59887 0.0
C1069 C 0.23548 0.9503 0.61064 0.0
C1070 C 0.27075 0.94424 0.60772 0.0
H1071 H 0.18408 0.93125 0.6082 0.0
H1072 H 0.22684 0.97593 0.61551 0.0
S1073 S 0.30719 0.85758 0.59417 0.0
N1074 N 0.26582 0.85072 0.59224 0.0
N1075 N 0.31203 0.8988 0.60037 0.0
C1076 C 0.27924 0.90941 0.60148 0.0
C1077 C 0.25371 0.88261 0.59703 0.0
C1078 C 0.38635 0.93138 0.7842 0.0
C1079 C 0.4104 0.90457 0.78802 0.0
C1080 C 0.35562 0.93323 0.80294 0.0
C1081 C 0.3458 0.90809 0.8264 0.0
H1082 H 0.39161 0.95207 0.76698 0.0
H1083 H 0.34059 0.95606 0.80072 0.0
S1084 S 0.39841 0.83196 0.84686 0.0
N1085 N 0.42095 0.85169 0.81779 0.0
N1086 N 0.36399 0.85519 0.85248 0.0
C1087 C 0.36926 0.88077 0.83009 0.0
C1088 C 0.40086 0.87894 0.81115 0.0
C1089 C 0.26295 0.10666 0.08472 0.0
C1090 C 0.26767 0.07717 0.10504 0.0
C1091 C 0.28744 0.13323 0.08265 0.0
C1092 C 0.3191 0.13256 0.09938 0.0
H1093 H 0.23975 0.10961 0.06997 0.0
H1094 H 0.28194 0.15428 0.06693 0.0
S1095 S 0.34383 0.06402 0.16036 0.0
N1096 N 0.30608 0.05161 0.14633 0.0
N1097 N 0.35219 0.10006 0.14071 0.0
C1098 C 0.32372 0.10399 0.12129 0.0
C1099 C 0.29825 0.07707 0.12441 0.0
C1100 C 0.09767 0.93674 0.26008 0.0
C1101 C 0.06201 0.93149 0.25546 0.0
C1102 C 0.12111 0.93679 0.23277 0.0
C1103 C 0.11066 0.93137 0.19877 0.0
H1104 H 0.10784 0.94195 0.28523 0.0
H1105 H 0.1474 0.94302 0.23829 0.0
S1106 S 0.02148 0.91073 0.17233 0.0
N1107 N 0.01872 0.91684 0.21372 0.0
N1108 N 0.06185 0.91638 0.16296 0.0
C1109 C 0.07547 0.92361 0.19404 0.0
C1110 C 0.05158 0.92379 0.22194 0.0
C1111 C 0.36102 0.94606 0.39287 0.0
C1112 C 0.32652 0.94206 0.38388 0.0
C1113 C 0.38182 0.91785 0.40263 0.0
C1114 C 0.36968 0.88356 0.40475 0.0
H1115 H 0.37212 0.97121 0.39275 0.0
H1116 H 0.40784 0.92352 0.4098 0.0
S1117 S 0.28204 0.85758 0.38183 0.0
N1118 N 0.28192 0.899 0.37623 0.0
N1119 N 0.32075 0.84796 0.39498 0.0
C1120 C 0.33565 0.87906 0.39502 0.0
C1121 C 0.31441 0.90752 0.38471 0.0
C1122 C 0.45669 0.12011 0.68531 0.0
C1123 C 0.42341 0.10786 0.69281 0.0
C1124 C 0.48259 0.12601 0.71068 0.0
C1125 C 0.47718 0.12041 0.74571 0.0
H1126 H 0.46337 0.12437 0.65907 0.0
H1127 H 0.50707 0.13531 0.70264 0.0
S1128 S 0.39624 0.08615 0.78006 0.0
N1129 N 0.38818 0.08888 0.73891 0.0
N1130 N 0.43531 0.1005 0.78595 0.0
C1131 C 0.44402 0.10839 0.75364 0.0
C1132 C 0.41781 0.10209 0.72772 0.0
C1133 C 0.17005 0.12221 0.90508 0.0
C1134 C 0.18639 0.15334 0.91447 0.0
C1135 C 0.18814 0.09114 0.89844 0.0
C1136 C 0.22409 0.08906 0.89978 0.0
H1137 H 0.14261 0.12134 0.90392 0.0
H1138 H 0.17363 0.06849 0.89253 0.0
S1139 S 0.2798 0.16535 0.9137 0.0
N1140 N 0.24119 0.18043 0.91926 0.0
N1141 N 0.27495 0.1245 0.90564 0.0
C1142 C 0.24063 0.12094 0.90661 0.0
C1143 C 0.22212 0.15209 0.91415 0.0
C1144 C 0.10363 0.31409 0.09089 0.0
C1145 C 0.12617 0.28637 0.09134 0.0
C1146 C 0.09807 0.33476 0.12004 0.0
C1147 C 0.1145 0.32958 0.15218 0.0
H1148 H 0.08891 0.31913 0.06807 0.0
H1149 H 0.07941 0.35467 0.1173 0.0
S1150 S 0.17996 0.26293 0.16638 0.0
N1151 N 0.16766 0.25656 0.12653 0.0
N1152 N 0.15754 0.29541 0.18055 0.0
C1153 C 0.13862 0.30293 0.15252 0.0
C1154 C 0.14416 0.28149 0.12263 0.0
C1155 C 0.63482 0.19087 0.91109 0.0
C1156 C 0.63401 0.15509 0.91168 0.0
C1157 C 0.63443 0.21081 0.94142 0.0
C1158 C 0.63219 0.19682 0.97453 0.0
H1159 H 0.63481 0.20378 0.88686 0.0
H1160 H 0.63543 0.23802 0.939 0.0
S1161 S 0.64259 0.10478 0.99176 0.0
N1162 N 0.64051 0.1067 0.94982 0.0
N1163 N 0.63873 0.14423 1.00569 0.0
C1164 C 0.63605 0.16124 0.97584 0.0
C1165 C 0.63701 0.14062 0.9449 0.0
C1166 C 0.89805 0.85183 0.41705 0.0
C1167 C 0.90835 0.88507 0.42581 0.0
C1168 C 0.88823 0.82745 0.44198 0.0
C1169 C 0.88854 0.83384 0.47782 0.0
H1170 H 0.89796 0.8442 0.39059 0.0
H1171 H 0.88059 0.80267 0.43272 0.0
S1172 S 0.91334 0.91651 0.51587 0.0
N1173 N 0.9174 0.92282 0.47464 0.0
N1174 N 0.90056 0.87685 0.5201 0.0
C1175 C 0.89908 0.86673 0.48712 0.0
C1176 C 0.90836 0.89205 0.46173 0.0
C1177 C 0.91061 0.23657 0.07983 0.0
C1178 C 0.93033 0.26503 0.06993 0.0
C1179 C 0.91966 0.21492 0.10808 0.0
C1180 C 0.94862 0.22031 0.12972 0.0
H1181 H 0.88732 0.23116 0.06593 0.0
H1182 H 0.90339 0.19339 0.11308 0.0
S1183 S 1.01208 0.28806 0.11241 0.0
N1184 N 0.9823 0.29523 0.08341 0.0
N1185 N 0.99899 0.25546 0.13517 0.0
C1186 C 0.96886 0.24841 0.11965 0.0
C1187 C 0.95976 0.27031 0.09065 0.0
C1188 C 0.40888 0.71797 0.6417 0.0
C1189 C 0.41171 0.68257 0.63746 0.0
C1190 C 0.40314 0.74055 0.61373 0.0
C1191 C 0.40005 0.72972 0.57913 0.0
H1192 H 0.41217 0.72855 0.66684 0.0
H1193 H 0.4015 0.76731 0.61947 0.0
S1194 S 0.3933 0.63883 0.55475 0.0
N1195 N 0.40196 0.63744 0.59595 0.0
N1196 N 0.39267 0.67943 0.54434 0.0
C1197 C 0.3992 0.69412 0.57496 0.0
C1198 C 0.40452 0.67099 0.60358 0.0
C1199 C 0.10648 0.756 0.40786 0.0
C1200 C 0.11639 0.74549 0.44134 0.0
C1201 C 0.09957 0.73288 0.38031 0.0
C1202 C 0.10206 0.69717 0.38377 0.0
H1203 H 0.10354 0.78281 0.40265 0.0
H1204 H 0.0913 0.7433 0.3562 0.0
S1205 S 0.12718 0.65495 0.46549 0.0
N1206 N 0.12836 0.69571 0.47531 0.0
N1207 N 0.11587 0.65291 0.42498 0.0
C1208 C 0.11236 0.68629 0.41709 0.0
C1209 C 0.11934 0.70993 0.44514 0.0
C1210 C 0.41923 0.27419 0.91324 0.0
C1211 C 0.41267 0.28331 0.94774 0.0
C1212 C 0.42676 0.29844 0.88724 0.0
C1213 C 0.42857 0.33371 0.8939 0.0
H1214 H 0.41924 0.24763 0.90609 0.0
H1215 H 0.43281 0.2892 0.8621 0.0
S1216 S 0.40985 0.37212 0.97907 0.0
N1217 N 0.40628 0.331 0.98579 0.0
N1218 N 0.41933 0.37605 0.93858 0.0
C1219 C 0.42018 0.34314 0.9281 0.0
C1220 C 0.41282 0.31839 0.95438 0.0
C1221 C 0.64 0.62725 0.80732 0.0
C1222 C 0.64109 0.63538 0.84236 0.0
C1223 C 0.61058 0.63276 0.78634 0.0
C1224 C 0.57967 0.64687 0.79854 0.0
H1225 H 0.66202 0.61573 0.79594 0.0
H1226 H 0.61216 0.62564 0.7598 0.0
S1227 S 0.56895 0.67619 0.88759 0.0
N1228 N 0.60789 0.66049 0.88769 0.0
N1229 N 0.55384 0.67134 0.84848 0.0
C1230 C 0.58062 0.65618 0.83328 0.0
C1231 C 0.61067 0.65035 0.85486 0.0
C1232 C 0.69433 0.44168 0.11584 0.0
C1233 C 0.71836 0.4365 0.14228 0.0
C1234 C 0.67367 0.41473 0.10236 0.0
C1235 C 0.67542 0.38031 0.11396 0.0
H1236 H 0.69177 0.46674 0.10484 0.0
H1237 H 0.65621 0.4212 0.08191 0.0
S1238 S 0.73348 0.35201 0.18332 0.0
N1239 N 0.74174 0.39297 0.17999 0.0
N1240 N 0.7038 0.34365 0.15449 0.0
C1241 C 0.69918 0.37479 0.14047 0.0
C1242 C 0.72013 0.40224 0.15447 0.0
C1243 C 0.96671 0.40882 0.38882 0.0
C1244 C 0.93183 0.39958 0.38435 0.0
C1245 C 0.99297 0.3983 0.36637 0.0
C1246 C 0.98643 0.37678 0.33837 0.0
H1247 H 0.97403 0.42489 0.41004 0.0
H1248 H 0.01875 0.40653 0.37158 0.0
S1249 S 0.89974 0.34503 0.31413 0.0
N1250 N 0.89274 0.36841 0.3482 0.0
N1251 N 0.94105 0.3468 0.30771 0.0
C1252 C 0.95155 0.36726 0.33364 0.0
C1253 C 0.92473 0.37903 0.35591 0.0
C1254 C 0.85822 0.57415 0.61554 0.0
C1255 C 0.82246 0.57297 0.61935 0.0
C1256 C 0.87599 0.60514 0.60751 0.0
C1257 C 0.85951 0.63727 0.60318 0.0
H1258 H 0.87245 0.55066 0.6165 0.0
H1259 H 0.90301 0.60351 0.603 0.0
S1260 S 0.76604 0.64734 0.60669 0.0
N1261 N 0.77173 0.60723 0.61649 0.0
N1262 N 0.80421 0.66369 0.60145 0.0
C1263 C 0.82402 0.63622 0.6077 0.0
C1264 C 0.80606 0.60488 0.61574 0.0
C1265 C 0.62715 0.41603 0.69497 0.0
C1266 C 0.65832 0.42945 0.70829 0.0
C1267 C 0.59741 0.41144 0.71505 0.0
C1268 C 0.59678 0.42013 0.74986 0.0
H1269 H 0.62533 0.40957 0.66825 0.0
H1270 H 0.57456 0.40171 0.70291 0.0
S1271 S 0.67245 0.45185 0.79883 0.0
N1272 N 0.68651 0.44871 0.75966 0.0
N1273 N 0.63231 0.4399 0.79721 0.0
C1274 C 0.62823 0.43247 0.76366 0.0
C1275 C 0.65827 0.43723 0.74315 0.0
C1276 C 0.85428 0.44748 0.89327 0.0
C1277 C 0.84498 0.41386 0.90321 0.0
C1278 C 0.83015 0.47382 0.88536 0.0
C1279 C 0.79459 0.46877 0.88684 0.0
H1280 H 0.88093 0.45409 0.8924 0.0
H1281 H 0.83966 0.49857 0.87828 0.0
S1282 S 0.75507 0.38624 0.91124 0.0
N1283 N 0.79617 0.37804 0.91363 0.0
N1284 N 0.75166 0.42617 0.89888 0.0
C1285 C 0.78482 0.43508 0.89592 0.0
C1286 C 0.80944 0.40829 0.90401 0.0
C1287 C 0.90016 0.62992 0.1788 0.0
C1288 C 0.88438 0.59908 0.1885 0.0
C1289 C 0.93104 0.64198 0.19439 0.0
C1290 C 0.95 0.62271 0.21854 0.0
H1291 H 0.88835 0.64516 0.15907 0.0
H1292 H 0.94016 0.66692 0.18744 0.0
S1293 S 0.9208 0.53899 0.25132 0.0
N1294 N 0.89035 0.54994 0.22446 0.0
N1295 N 0.94972 0.56926 0.24925 0.0
C1296 C 0.93503 0.591 0.22694 0.0
C1297 C 0.9024 0.58005 0.21301 0.0
C1298 C 0.73348 0.60308 0.45866 0.0
C1299 C 0.69843 0.59562 0.45593 0.0
C1300 C 0.75932 0.57791 0.4539 0.0
C1301 C 0.75273 0.54287 0.44641 0.0
H1302 H 0.74127 0.62864 0.46528 0.0
H1303 H 0.78541 0.58638 0.4563 0.0
S1304 S 0.66561 0.50919 0.43252 0.0
N1305 N 0.65906 0.5495 0.44214 0.0
N1306 N 0.70715 0.50344 0.43414 0.0
C1307 C 0.71788 0.53505 0.44285 0.0
C1308 C 0.6913 0.56084 0.44721 0.0
C1309 C 0.56944 0.78242 0.64913 0.0
C1310 C 0.57809 0.81716 0.6465 0.0
C1311 C 0.57743 0.75796 0.62332 0.0
C1312 C 0.59494 0.76586 0.59264 0.0
H1313 H 0.55544 0.77396 0.67104 0.0
H1314 H 0.56944 0.73207 0.62766 0.0
S1315 S 0.62353 0.85303 0.57158 0.0
N1316 N 0.60567 0.85779 0.60905 0.0
N1317 N 0.62041 0.81228 0.56204 0.0
C1318 C 0.60423 0.80035 0.5898 0.0
C1319 C 0.59588 0.82551 0.61599 0.0
loop_
_geom_bond_atom_site_label_1
_geom_bond_atom_site_label_2
_geom_bond_distance
_geom_bond_site_symmetry_2
_ccdc_geom_bond_type
Sc0 O3 2.025 . S
Sc0 O10 2.105 . S
Sc0 O13 2.105 . S
Sc0 O16 2.105 . S
Sc0 O19 2.105 . S
Sc1 O3 2.025 . S
Sc1 O11 2.105 . S
Sc1 O15 2.105 1_455 S
Sc1 O17 2.105 . S
Sc1 O21 2.105 1_455 S
Sc2 O3 2.025 1_655 S
Sc2 O12 2.105 . S
Sc2 O14 2.105 . S
Sc2 O18 2.105 . S
Sc2 O20 2.105 1_655 S
O3 Sc0 2.025 . S
O3 Sc1 2.025 . S
O3 Sc2 2.025 1_455 S
C4 O10 1.268 . S
C4 O20 1.268 . S
C5 O11 1.268 . S
C5 O19 1.268 . S
C6 O12 1.268 . S
C6 O21 1.268 . S
C7 O13 1.268 . S
C7 O17 1.268 . S
C8 O14 1.268 1_455 S
C8 O16 1.268 . S
C9 O15 1.268 . S
C9 O18 1.268 . S
O10 Sc0 2.105 . S
O10 C4 1.268 . S
O11 Sc1 2.105 . S
O11 C5 1.268 . S
O12 Sc2 2.105 . S
O12 C6 1.268 . S
O13 Sc0 2.105 . S
O13 C7 1.268 . S
O14 Sc2 2.105 . S
O14 C8 1.268 1_655 S
O15 Sc1 2.105 1_655 S
O15 C9 1.268 . S
O16 Sc0 2.105 . S
O16 C8 1.268 . S
O17 Sc1 2.105 . S
O17 C7 1.268 . S
O18 Sc2 2.105 . S
O18 C9 1.268 . S
O19 Sc0 2.105 . S
O19 C5 1.268 . S
O20 Sc2 2.105 1_455 S
O20 C4 1.268 . S
O21 Sc1 2.105 1_655 S
O21 C6 1.268 . S
Sc22 O25 2.025 . S
Sc22 O32 2.105 . S
Sc22 O35 2.105 . S
Sc22 O38 2.105 . S
Sc22 O41 2.105 . S
Sc23 O25 2.025 . S
Sc23 O33 2.105 . S
Sc23 O37 2.105 . S
Sc23 O39 2.105 . S
Sc23 O43 2.105 . S
Sc24 O25 2.025 . S
Sc24 O34 2.105 . S
Sc24 O36 2.105 . S
Sc24 O40 2.105 . S
Sc24 O42 2.105 . S
O25 Sc22 2.025 . S
O25 Sc23 2.025 . S
O25 Sc24 2.025 . S
C26 O32 1.268 . S
C26 O42 1.268 . S
C27 O33 1.268 . S
C27 O41 1.268 . S
C28 O34 1.268 . S
C28 O43 1.268 . S
C29 O35 1.268 . S
C29 O39 1.268 . S
C30 O36 1.268 . S
C30 O38 1.268 . S
C31 O37 1.268 . S
C31 O40 1.268 . S
O32 Sc22 2.105 . S
O32 C26 1.268 . S
O33 Sc23 2.105 . S
O33 C27 1.268 . S
O34 Sc24 2.105 . S
O34 C28 1.268 . S
O35 Sc22 2.105 . S
O35 C29 1.268 . S
O36 Sc24 2.105 . S
O36 C30 1.268 . S
O37 Sc23 2.105 . S
O37 C31 1.268 . S
O38 Sc22 2.105 . S
O38 C30 1.268 . S
O39 Sc23 2.105 . S
O39 C29 1.268 . S
O40 Sc24 2.105 . S
O40 C31 1.268 . S
O41 Sc22 2.105 . S
O41 C27 1.268 . S
O42 Sc24 2.105 . S
O42 C26 1.268 . S
O43 Sc23 2.105 . S
O43 C28 1.268 . S
Sc44 O47 2.025 . S
Sc44 O54 2.105 . S
Sc44 O57 2.105 . S
Sc44 O60 2.105 . S
Sc44 O63 2.105 . S
Sc45 O47 2.025 . S
Sc45 O55 2.105 . S
Sc45 O59 2.105 . S
Sc45 O61 2.105 . S
Sc45 O65 2.105 . S
Sc46 O47 2.025 . S
Sc46 O56 2.105 . S
Sc46 O58 2.105 . S
Sc46 O62 2.105 . S
Sc46 O64 2.105 . S
O47 Sc44 2.025 . S
O47 Sc45 2.025 . S
O47 Sc46 2.025 . S
C48 O54 1.268 . S
C48 O64 1.268 . S
C49 O55 1.268 . S
C49 O63 1.268 . S
C50 O56 1.268 . S
C50 O65 1.268 . S
C51 O57 1.268 . S
C51 O61 1.268 . S
C52 O58 1.268 . S
C52 O60 1.268 . S
C53 O59 1.268 . S
C53 O62 1.268 . S
O54 Sc44 2.105 . S
O54 C48 1.268 . S
O55 Sc45 2.105 . S
O55 C49 1.268 . S
O56 Sc46 2.105 . S
O56 C50 1.268 . S
O57 Sc44 2.105 . S
O57 C51 1.268 . S
O58 Sc46 2.105 . S
O58 C52 1.268 . S
O59 Sc45 2.105 . S
O59 C53 1.268 . S
O60 Sc44 2.105 . S
O60 C52 1.268 . S
O61 Sc45 2.105 . S
O61 C51 1.268 . S
O62 Sc46 2.105 . S
O62 C53 1.268 . S
O63 Sc44 2.105 . S
O63 C49 1.268 . S
O64 Sc46 2.105 . S
O64 C48 1.268 . S
O65 Sc45 2.105 . S
O65 C50 1.268 . S
Sc66 O69 2.025 1_554 S
Sc66 O76 2.105 . S
Sc66 O79 2.105 . S
Sc66 O82 2.105 . S
Sc66 O85 2.105 1_554 S
Sc67 O69 2.025 . S
Sc67 O77 2.105 . S
Sc67 O81 2.105 . S
Sc67 O83 2.105 . S
Sc67 O87 2.105 . S
Sc68 O69 2.025 . S
Sc68 O78 2.105 . S
Sc68 O80 2.105 1_556 S
Sc68 O84 2.105 . S
Sc68 O86 2.105 1_556 S
O69 Sc66 2.025 1_556 S
O69 Sc67 2.025 . S
O69 Sc68 2.025 . S
C70 O76 1.268 . S
C70 O86 1.268 . S
C71 O77 1.268 . S
C71 O85 1.268 . S
C72 O78 1.268 . S
C72 O87 1.268 . S
C73 O79 1.268 1_556 S
C73 O83 1.268 . S
C74 O80 1.268 . S
C74 O82 1.268 . S
C75 O81 1.268 . S
C75 O84 1.268 . S
O76 Sc66 2.105 . S
O76 C70 1.268 . S
O77 Sc67 2.105 . S
O77 C71 1.268 . S
O78 Sc68 2.105 . S
O78 C72 1.268 . S
O79 Sc66 2.105 . S
O79 C73 1.268 1_554 S
O80 Sc68 2.105 1_554 S
O80 C74 1.268 . S
O81 Sc67 2.105 . S
O81 C75 1.268 . S
O82 Sc66 2.105 . S
O82 C74 1.268 . S
O83 Sc67 2.105 . S
O83 C73 1.268 . S
O84 Sc68 2.105 . S
O84 C75 1.268 . S
O85 Sc66 2.105 1_556 S
O85 C71 1.268 . S
O86 Sc68 2.105 1_554 S
O86 C70 1.268 . S
O87 Sc67 2.105 . S
O87 C72 1.268 . S
Sc88 O91 2.025 . S
Sc88 O98 2.105 . S
Sc88 O101 2.105 . S
Sc88 O104 2.105 . S
Sc88 O107 2.105 . S
Sc89 O91 2.025 . S
Sc89 O99 2.105 . S
Sc89 O103 2.105 1_455 S
Sc89 O105 2.105 . S
Sc89 O109 2.105 1_455 S
Sc90 O91 2.025 1_655 S
Sc90 O100 2.105 . S
Sc90 O102 2.105 . S
Sc90 O106 2.105 . S
Sc90 O108 2.105 1_655 S
O91 Sc88 2.025 . S
O91 Sc89 2.025 . S
O91 Sc90 2.025 1_455 S
C92 O98 1.268 . S
C92 O108 1.268 . S
C93 O99 1.268 . S
C93 O107 1.268 . S
C94 O100 1.268 . S
C94 O109 1.268 . S
C95 O101 1.268 . S
C95 O105 1.268 . S
C96 O102 1.268 1_455 S
C96 O104 1.268 . S
C97 O103 1.268 . S
C97 O106 1.268 . S
O98 Sc88 2.105 . S
O98 C92 1.268 . S
O99 Sc89 2.105 . S
O99 C93 1.268 . S
O100 Sc90 2.105 . S
O100 C94 1.268 . S
O101 Sc88 2.105 . S
O101 C95 1.268 . S
O102 Sc90 2.105 . S
O102 C96 1.268 1_655 S
O103 Sc89 2.105 1_655 S
O103 C97 1.268 . S
O104 Sc88 2.105 . S
O104 C96 1.268 . S
O105 Sc89 2.105 . S
O105 C95 1.268 . S
O106 Sc90 2.105 . S
O106 C97 1.268 . S
O107 Sc88 2.105 . S
O107 C93 1.268 . S
O108 Sc90 2.105 1_455 S
O108 C92 1.268 . S
O109 Sc89 2.105 1_655 S
O109 C94 1.268 . S
Sc110 O113 2.025 . S
Sc110 O120 2.105 . S
Sc110 O123 2.105 . S
Sc110 O126 2.105 . S
Sc110 O129 2.105 . S
Sc111 O113 2.025 . S
Sc111 O121 2.105 . S
Sc111 O125 2.105 . S
Sc111 O127 2.105 . S
Sc111 O131 2.105 . S
Sc112 O113 2.025 . S
Sc112 O122 2.105 . S
Sc112 O124 2.105 . S
Sc112 O128 2.105 . S
Sc112 O130 2.105 . S
O113 Sc110 2.025 . S
O113 Sc111 2.025 . S
O113 Sc112 2.025 . S
C114 O120 1.268 . S
C114 O130 1.268 . S
C115 O121 1.268 . S
C115 O129 1.268 . S
C116 O122 1.268 . S
C116 O131 1.268 . S
C117 O123 1.268 . S
C117 O127 1.268 . S
C118 O124 1.268 . S
C118 O126 1.268 . S
C119 O125 1.268 . S
C119 O128 1.268 . S
O120 Sc110 2.105 . S
O120 C114 1.268 . S
O121 Sc111 2.105 . S
O121 C115 1.268 . S
O122 Sc112 2.105 . S
O122 C116 1.268 . S
O123 Sc110 2.105 . S
O123 C117 1.268 . S
O124 Sc112 2.105 . S
O124 C118 1.268 . S
O125 Sc111 2.105 . S
O125 C119 1.268 . S
O126 Sc110 2.105 . S
O126 C118 1.268 . S
O127 Sc111 2.105 . S
O127 C117 1.268 . S
O128 Sc112 2.105 . S
O128 C119 1.268 . S
O129 Sc110 2.105 . S
O129 C115 1.268 . S
O130 Sc112 2.105 . S
O130 C114 1.268 . S
O131 Sc111 2.105 . S
O131 C116 1.268 . S
Sc132 O135 2.025 . S
Sc132 O142 2.105 . S
Sc132 O145 2.105 . S
Sc132 O148 2.105 . S
Sc132 O151 2.105 . S
Sc133 O135 2.025 . S
Sc133 O143 2.105 . S
Sc133 O147 2.105 . S
Sc133 O149 2.105 . S
Sc133 O153 2.105 . S
Sc134 O135 2.025 . S
Sc134 O144 2.105 . S
Sc134 O146 2.105 . S
Sc134 O150 2.105 . S
Sc134 O152 2.105 . S
O135 Sc132 2.025 . S
O135 Sc133 2.025 . S
O135 Sc134 2.025 . S
C136 O142 1.268 . S
C136 O152 1.268 . S
C137 O143 1.268 . S
C137 O151 1.268 . S
C138 O144 1.268 . S
C138 O153 1.268 . S
C139 O145 1.268 . S
C139 O149 1.268 . S
C140 O146 1.268 . S
C140 O148 1.268 . S
C141 O147 1.268 . S
C141 O150 1.268 . S
O142 Sc132 2.105 . S
O142 C136 1.268 . S
O143 Sc133 2.105 . S
O143 C137 1.268 . S
O144 Sc134 2.105 . S
O144 C138 1.268 . S
O145 Sc132 2.105 . S
O145 C139 1.268 . S
O146 Sc134 2.105 . S
O146 C140 1.268 . S
O147 Sc133 2.105 . S
O147 C141 1.268 . S
O148 Sc132 2.105 . S
O148 C140 1.268 . S
O149 Sc133 2.105 . S
O149 C139 1.268 . S
O150 Sc134 2.105 . S
O150 C141 1.268 . S
O151 Sc132 2.105 . S
O151 C137 1.268 . S
O152 Sc134 2.105 . S
O152 C136 1.268 . S
O153 Sc133 2.105 . S
O153 C138 1.268 . S
Sc154 O157 2.025 . S
Sc154 O164 2.105 . S
Sc154 O167 2.105 . S
Sc154 O170 2.105 . S
Sc154 O173 2.105 . S
Sc155 O157 2.025 . S
Sc155 O165 2.105 . S
Sc155 O169 2.105 1_554 S
Sc155 O171 2.105 . S
Sc155 O175 2.105 1_554 S
Sc156 O157 2.025 1_556 S
Sc156 O166 2.105 . S
Sc156 O168 2.105 . S
Sc156 O172 2.105 . S
Sc156 O174 2.105 1_556 S
O157 Sc154 2.025 . S
O157 Sc155 2.025 . S
O157 Sc156 2.025 1_554 S
C158 O164 1.268 . S
C158 O174 1.268 . S
C159 O165 1.268 . S
C159 O173 1.268 . S
C160 O166 1.268 . S
C160 O175 1.268 . S
C161 O167 1.268 . S
C161 O171 1.268 . S
C162 O168 1.268 1_554 S
C162 O170 1.268 . S
C163 O169 1.268 . S
C163 O172 1.268 . S
O164 Sc154 2.105 . S
O164 C158 1.268 . S
O165 Sc155 2.105 . S
O165 C159 1.268 . S
O166 Sc156 2.105 . S
O166 C160 1.268 . S
O167 Sc154 2.105 . S
O167 C161 1.268 . S
O168 Sc156 2.105 . S
O168 C162 1.268 1_556 S
O169 Sc155 2.105 1_556 S
O169 C163 1.268 . S
O170 Sc154 2.105 . S
O170 C162 1.268 . S
O171 Sc155 2.105 . S
O171 C161 1.268 . S
O172 Sc156 2.105 . S
O172 C163 1.268 . S
O173 Sc154 2.105 . S
O173 C159 1.268 . S
O174 Sc156 2.105 1_554 S
O174 C158 1.268 . S
O175 Sc155 2.105 1_556 S
O175 C160 1.268 . S
Sc176 O179 2.025 . S
Sc176 O186 2.105 . S
Sc176 O189 2.105 . S
Sc176 O192 2.105 . S
Sc176 O195 2.105 . S
Sc177 O179 2.025 . S
Sc177 O187 2.105 . S
Sc177 O191 2.105 1_545 S
Sc177 O193 2.105 . S
Sc177 O197 2.105 1_545 S
Sc178 O179 2.025 1_565 S
Sc178 O188 2.105 . S
Sc178 O190 2.105 . S
Sc178 O194 2.105 . S
Sc178 O196 2.105 1_565 S
O179 Sc176 2.025 . S
O179 Sc177 2.025 . S
O179 Sc178 2.025 1_545 S
C180 O186 1.268 . S
C180 O196 1.268 . S
C181 O187 1.268 . S
C181 O195 1.268 . S
C182 O188 1.268 . S
C182 O197 1.268 . S
C183 O189 1.268 . S
C183 O193 1.268 . S
C184 O190 1.268 1_545 S
C184 O192 1.268 . S
C185 O191 1.268 . S
C185 O194 1.268 . S
O186 Sc176 2.105 . S
O186 C180 1.268 . S
O187 Sc177 2.105 . S
O187 C181 1.268 . S
O188 Sc178 2.105 . S
O188 C182 1.268 . S
O189 Sc176 2.105 . S
O189 C183 1.268 . S
O190 Sc178 2.105 . S
O190 C184 1.268 1_565 S
O191 Sc177 2.105 1_565 S
O191 C185 1.268 . S
O192 Sc176 2.105 . S
O192 C184 1.268 . S
O193 Sc177 2.105 . S
O193 C183 1.268 . S
O194 Sc178 2.105 . S
O194 C185 1.268 . S
O195 Sc176 2.105 . S
O195 C181 1.268 . S
O196 Sc178 2.105 1_545 S
O196 C180 1.268 . S
O197 Sc177 2.105 1_565 S
O197 C182 1.268 . S
Sc198 O201 2.025 . S
Sc198 O208 2.105 1_565 S
Sc198 O211 2.105 . S
Sc198 O214 2.105 1_565 S
Sc198 O217 2.105 . S
Sc199 O201 2.025 . S
Sc199 O209 2.105 . S
Sc199 O213 2.105 . S
Sc199 O215 2.105 . S
Sc199 O219 2.105 . S
Sc200 O201 2.025 1_545 S
Sc200 O210 2.105 . S
Sc200 O212 2.105 . S
Sc200 O216 2.105 1_545 S
Sc200 O218 2.105 . S
O201 Sc198 2.025 . S
O201 Sc199 2.025 . S
O201 Sc200 2.025 1_565 S
C202 O208 1.268 . S
C202 O218 1.268 . S
C203 O209 1.268 . S
C203 O217 1.268 . S
C204 O210 1.268 1_565 S
C204 O219 1.268 . S
C205 O211 1.268 . S
C205 O215 1.268 . S
C206 O212 1.268 . S
C206 O214 1.268 . S
C207 O213 1.268 . S
C207 O216 1.268 . S
O208 Sc198 2.105 1_545 S
O208 C202 1.268 . S
O209 Sc199 2.105 . S
O209 C203 1.268 . S
O210 Sc200 2.105 . S
O210 C204 1.268 1_545 S
O211 Sc198 2.105 . S
O211 C205 1.268 . S
O212 Sc200 2.105 . S
O212 C206 1.268 . S
O213 Sc199 2.105 . S
O213 C207 1.268 . S
O214 Sc198 2.105 1_545 S
O214 C206 1.268 . S
O215 Sc199 2.105 . S
O215 C205 1.268 . S
O216 Sc200 2.105 1_565 S
O216 C207 1.268 . S
O217 Sc198 2.105 . S
O217 C203 1.268 . S
O218 Sc200 2.105 . S
O218 C202 1.268 . S
O219 Sc199 2.105 . S
O219 C204 1.268 . S
Sc220 O223 2.025 . S
Sc220 O230 2.105 . S
Sc220 O233 2.105 . S
Sc220 O236 2.105 . S
Sc220 O239 2.105 . S
Sc221 O223 2.025 . S
Sc221 O231 2.105 . S
Sc221 O235 2.105 1_565 S
Sc221 O237 2.105 . S
Sc221 O241 2.105 1_565 S
Sc222 O223 2.025 1_545 S
Sc222 O232 2.105 . S
Sc222 O234 2.105 . S
Sc222 O238 2.105 . S
Sc222 O240 2.105 1_545 S
O223 Sc220 2.025 . S
O223 Sc221 2.025 . S
O223 Sc222 2.025 1_565 S
C224 O230 1.268 . S
C224 O240 1.268 . S
C225 O231 1.268 . S
C225 O239 1.268 . S
C226 O232 1.268 . S
C226 O241 1.268 . S
C227 O233 1.268 . S
C227 O237 1.268 . S
C228 O234 1.268 1_565 S
C228 O236 1.268 . S
C229 O235 1.268 . S
C229 O238 1.268 . S
O230 Sc220 2.105 . S
O230 C224 1.268 . S
O231 Sc221 2.105 . S
O231 C225 1.268 . S
O232 Sc222 2.105 . S
O232 C226 1.268 . S
O233 Sc220 2.105 . S
O233 C227 1.268 . S
O234 Sc222 2.105 . S
O234 C228 1.268 1_545 S
O235 Sc221 2.105 1_545 S
O235 C229 1.268 . S
O236 Sc220 2.105 . S
O236 C228 1.268 . S
O237 Sc221 2.105 . S
O237 C227 1.268 . S
O238 Sc222 2.105 . S
O238 C229 1.268 . S
O239 Sc220 2.105 . S
O239 C225 1.268 . S
O240 Sc222 2.105 1_565 S
O240 C224 1.268 . S
O241 Sc221 2.105 1_545 S
O241 C226 1.268 . S
Sc242 O245 2.025 1_565 S
Sc242 O252 2.105 . S
Sc242 O255 2.105 . S
Sc242 O258 2.105 1_565 S
Sc242 O261 2.105 . S
Sc243 O245 2.025 . S
Sc243 O253 2.105 1_545 S
Sc243 O257 2.105 . S
Sc243 O259 2.105 1_545 S
Sc243 O263 2.105 . S
Sc244 O245 2.025 . S
Sc244 O254 2.105 . S
Sc244 O256 2.105 . S
Sc244 O260 2.105 . S
Sc244 O262 2.105 . S
O245 Sc242 2.025 1_545 S
O245 Sc243 2.025 . S
O245 Sc244 2.025 . S
C246 O252 1.268 1_545 S
C246 O262 1.268 . S
C247 O253 1.268 . S
C247 O261 1.268 . S
C248 O254 1.268 . S
C248 O263 1.268 . S
C249 O255 1.268 . S
C249 O259 1.268 . S
C250 O256 1.268 . S
C250 O258 1.268 . S
C251 O257 1.268 . S
C251 O260 1.268 . S
O252 Sc242 2.105 . S
O252 C246 1.268 1_565 S
O253 Sc243 2.105 1_565 S
O253 C247 1.268 . S
O254 Sc244 2.105 . S
O254 C248 1.268 . S
O255 Sc242 2.105 . S
O255 C249 1.268 . S
O256 Sc244 2.105 . S
O256 C250 1.268 . S
O257 Sc243 2.105 . S
O257 C251 1.268 . S
O258 Sc242 2.105 1_545 S
O258 C250 1.268 . S
O259 Sc243 2.105 1_565 S
O259 C249 1.268 . S
O260 Sc244 2.105 . S
O260 C251 1.268 . S
O261 Sc242 2.105 . S
O261 C247 1.268 . S
O262 Sc244 2.105 . S
O262 C246 1.268 . S
O263 Sc243 2.105 . S
O263 C248 1.268 . S
Sc264 O267 2.025 . S
Sc264 O274 2.105 1_556 S
Sc264 O277 2.105 . S
Sc264 O280 2.105 1_556 S
Sc264 O283 2.105 . S
Sc265 O267 2.025 . S
Sc265 O275 2.105 . S
Sc265 O279 2.105 . S
Sc265 O281 2.105 . S
Sc265 O285 2.105 . S
Sc266 O267 2.025 1_554 S
Sc266 O276 2.105 . S
Sc266 O278 2.105 . S
Sc266 O282 2.105 1_554 S
Sc266 O284 2.105 . S
O267 Sc264 2.025 . S
O267 Sc265 2.025 . S
O267 Sc266 2.025 1_556 S
C268 O274 1.268 . S
C268 O284 1.268 . S
C269 O275 1.268 . S
C269 O283 1.268 . S
C270 O276 1.268 1_556 S
C270 O285 1.268 . S
C271 O277 1.268 . S
C271 O281 1.268 . S
C272 O278 1.268 . S
C272 O280 1.268 . S
C273 O279 1.268 . S
C273 O282 1.268 . S
O274 Sc264 2.105 1_554 S
O274 C268 1.268 . S
O275 Sc265 2.105 . S
O275 C269 1.268 . S
O276 Sc266 2.105 . S
O276 C270 1.268 1_554 S
O277 Sc264 2.105 . S
O277 C271 1.268 . S
O278 Sc266 2.105 . S
O278 C272 1.268 . S
O279 Sc265 2.105 . S
O279 C273 1.268 . S
O280 Sc264 2.105 1_554 S
O280 C272 1.268 . S
O281 Sc265 2.105 . S
O281 C271 1.268 . S
O282 Sc266 2.105 1_556 S
O282 C273 1.268 . S
O283 Sc264 2.105 . S
O283 C269 1.268 . S
O284 Sc266 2.105 . S
O284 C268 1.268 . S
O285 Sc265 2.105 . S
O285 C270 1.268 . S
Sc286 O289 2.025 . S
Sc286 O296 2.105 1_655 S
Sc286 O299 2.105 . S
Sc286 O302 2.105 1_655 S
Sc286 O305 2.105 . S
Sc287 O289 2.025 . S
Sc287 O297 2.105 . S
Sc287 O301 2.105 . S
Sc287 O303 2.105 . S
Sc287 O307 2.105 . S
Sc288 O289 2.025 1_455 S
Sc288 O298 2.105 . S
Sc288 O300 2.105 . S
Sc288 O304 2.105 1_455 S
Sc288 O306 2.105 . S
O289 Sc286 2.025 . S
O289 Sc287 2.025 . S
O289 Sc288 2.025 1_655 S
C290 O296 1.268 . S
C290 O306 1.268 . S
C291 O297 1.268 . S
C291 O305 1.268 . S
C292 O298 1.268 1_655 S
C292 O307 1.268 . S
C293 O299 1.268 . S
C293 O303 1.268 . S
C294 O300 1.268 . S
C294 O302 1.268 . S
C295 O301 1.268 . S
C295 O304 1.268 . S
O296 Sc286 2.105 1_455 S
O296 C290 1.268 . S
O297 Sc287 2.105 . S
O297 C291 1.268 . S
O298 Sc288 2.105 . S
O298 C292 1.268 1_455 S
O299 Sc286 2.105 . S
O299 C293 1.268 . S
O300 Sc288 2.105 . S
O300 C294 1.268 . S
O301 Sc287 2.105 . S
O301 C295 1.268 . S
O302 Sc286 2.105 1_455 S
O302 C294 1.268 . S
O303 Sc287 2.105 . S
O303 C293 1.268 . S
O304 Sc288 2.105 1_655 S
O304 C295 1.268 . S
O305 Sc286 2.105 . S
O305 C291 1.268 . S
O306 Sc288 2.105 . S
O306 C290 1.268 . S
O307 Sc287 2.105 . S
O307 C292 1.268 . S
Sc308 O311 2.025 . S
Sc308 O318 2.105 . S
Sc308 O321 2.105 . S
Sc308 O324 2.105 . S
Sc308 O327 2.105 . S
Sc309 O311 2.025 . S
Sc309 O319 2.105 . S
Sc309 O323 2.105 . S
Sc309 O325 2.105 . S
Sc309 O329 2.105 . S
Sc310 O311 2.025 . S
Sc310 O320 2.105 . S
Sc310 O322 2.105 . S
Sc310 O326 2.105 . S
Sc310 O328 2.105 . S
O311 Sc308 2.025 . S
O311 Sc309 2.025 . S
O311 Sc310 2.025 . S
C312 O318 1.268 . S
C312 O328 1.268 . S
C313 O319 1.268 . S
C313 O327 1.268 . S
C314 O320 1.268 . S
C314 O329 1.268 . S
C315 O321 1.268 . S
C315 O325 1.268 . S
C316 O322 1.268 . S
C316 O324 1.268 . S
C317 O323 1.268 . S
C317 O326 1.268 . S
O318 Sc308 2.105 . S
O318 C312 1.268 . S
O319 Sc309 2.105 . S
O319 C313 1.268 . S
O320 Sc310 2.105 . S
O320 C314 1.268 . S
O321 Sc308 2.105 . S
O321 C315 1.268 . S
O322 Sc310 2.105 . S
O322 C316 1.268 . S
O323 Sc309 2.105 . S
O323 C317 1.268 . S
O324 Sc308 2.105 . S
O324 C316 1.268 . S
O325 Sc309 2.105 . S
O325 C315 1.268 . S
O326 Sc310 2.105 . S
O326 C317 1.268 . S
O327 Sc308 2.105 . S
O327 C313 1.268 . S
O328 Sc310 2.105 . S
O328 C312 1.268 . S
O329 Sc309 2.105 . S
O329 C314 1.268 . S
Sc330 O333 2.025 . S
Sc330 O340 2.105 . S
Sc330 O343 2.105 . S
Sc330 O346 2.105 . S
Sc330 O349 2.105 . S
Sc331 O333 2.025 . S
Sc331 O341 2.105 . S
Sc331 O345 2.105 1_655 S
Sc331 O347 2.105 . S
Sc331 O351 2.105 1_655 S
Sc332 O333 2.025 1_455 S
Sc332 O342 2.105 . S
Sc332 O344 2.105 . S
Sc332 O348 2.105 . S
Sc332 O350 2.105 1_455 S
O333 Sc330 2.025 . S
O333 Sc331 2.025 . S
O333 Sc332 2.025 1_655 S
C334 O340 1.268 . S
C334 O350 1.268 . S
C335 O341 1.268 . S
C335 O349 1.268 . S
C336 O342 1.268 . S
C336 O351 1.268 . S
C337 O343 1.268 . S
C337 O347 1.268 . S
C338 O344 1.268 1_655 S
C338 O346 1.268 . S
C339 O345 1.268 . S
C339 O348 1.268 . S
O340 Sc330 2.105 . S
O340 C334 1.268 . S
O341 Sc331 2.105 . S
O341 C335 1.268 . S
O342 Sc332 2.105 . S
O342 C336 1.268 . S
O343 Sc330 2.105 . S
O343 C337 1.268 . S
O344 Sc332 2.105 . S
O344 C338 1.268 1_455 S
O345 Sc331 2.105 1_455 S
O345 C339 1.268 . S
O346 Sc330 2.105 . S
O346 C338 1.268 . S
O347 Sc331 2.105 . S
O347 C337 1.268 . S
O348 Sc332 2.105 . S
O348 C339 1.268 . S
O349 Sc330 2.105 . S
O349 C335 1.268 . S
O350 Sc332 2.105 1_655 S
O350 C334 1.268 . S
O351 Sc331 2.105 1_455 S
O351 C336 1.268 . S
Sc352 O355 2.025 . S
Sc352 O362 2.105 . S
Sc352 O365 2.105 . S
Sc352 O368 2.105 . S
Sc352 O371 2.105 . S
Sc353 O355 2.025 . S
Sc353 O363 2.105 . S
Sc353 O367 2.105 . S
Sc353 O369 2.105 . S
Sc353 O373 2.105 . S
Sc354 O355 2.025 . S
Sc354 O364 2.105 . S
Sc354 O366 2.105 . S
Sc354 O370 2.105 . S
Sc354 O372 2.105 . S
O355 Sc352 2.025 . S
O355 Sc353 2.025 . S
O355 Sc354 2.025 . S
C356 O362 1.268 . S
C356 O372 1.268 . S
C357 O363 1.268 . S
C357 O371 1.268 . S
C358 O364 1.268 . S
C358 O373 1.268 . S
C359 O365 1.268 . S
C359 O369 1.268 . S
C360 O366 1.268 . S
C360 O368 1.268 . S
C361 O367 1.268 . S
C361 O370 1.268 . S
O362 Sc352 2.105 . S
O362 C356 1.268 . S
O363 Sc353 2.105 . S
O363 C357 1.268 . S
O364 Sc354 2.105 . S
O364 C358 1.268 . S
O365 Sc352 2.105 . S
O365 C359 1.268 . S
O366 Sc354 2.105 . S
O366 C360 1.268 . S
O367 Sc353 2.105 . S
O367 C361 1.268 . S
O368 Sc352 2.105 . S
O368 C360 1.268 . S
O369 Sc353 2.105 . S
O369 C359 1.268 . S
O370 Sc354 2.105 . S
O370 C361 1.268 . S
O371 Sc352 2.105 . S
O371 C357 1.268 . S
O372 Sc354 2.105 . S
O372 C356 1.268 . S
O373 Sc353 2.105 . S
O373 C358 1.268 . S
Sc374 O377 2.025 . S
Sc374 O384 2.105 . S
Sc374 O387 2.105 . S
Sc374 O390 2.105 . S
Sc374 O393 2.105 . S
Sc375 O377 2.025 . S
Sc375 O385 2.105 . S
Sc375 O389 2.105 . S
Sc375 O391 2.105 . S
Sc375 O395 2.105 . S
Sc376 O377 2.025 . S
Sc376 O386 2.105 . S
Sc376 O388 2.105 . S
Sc376 O392 2.105 . S
Sc376 O394 2.105 . S
O377 Sc374 2.025 . S
O377 Sc375 2.025 . S
O377 Sc376 2.025 . S
C378 O384 1.268 . S
C378 O394 1.268 . S
C379 O385 1.268 . S
C379 O393 1.268 . S
C380 O386 1.268 . S
C380 O395 1.268 . S
C381 O387 1.268 . S
C381 O391 1.268 . S
C382 O388 1.268 . S
C382 O390 1.268 . S
C383 O389 1.268 . S
C383 O392 1.268 . S
O384 Sc374 2.105 . S
O384 C378 1.268 . S
O385 Sc375 2.105 . S
O385 C379 1.268 . S
O386 Sc376 2.105 . S
O386 C380 1.268 . S
O387 Sc374 2.105 . S
O387 C381 1.268 . S
O388 Sc376 2.105 . S
O388 C382 1.268 . S
O389 Sc375 2.105 . S
O389 C383 1.268 . S
O390 Sc374 2.105 . S
O390 C382 1.268 . S
O391 Sc375 2.105 . S
O391 C381 1.268 . S
O392 Sc376 2.105 . S
O392 C383 1.268 . S
O393 Sc374 2.105 . S
O393 C379 1.268 . S
O394 Sc376 2.105 . S
O394 C378 1.268 . S
O395 Sc375 2.105 . S
O395 C380 1.268 . S
Sc396 O399 2.025 1_556 S
Sc396 O406 2.105 . S
Sc396 O409 2.105 . S
Sc396 O412 2.105 1_556 S
Sc396 O415 2.105 . S
Sc397 O399 2.025 . S
Sc397 O407 2.105 1_554 S
Sc397 O411 2.105 . S
Sc397 O413 2.105 1_554 S
Sc397 O417 2.105 . S
Sc398 O399 2.025 . S
Sc398 O408 2.105 . S
Sc398 O410 2.105 . S
Sc398 O414 2.105 . S
Sc398 O416 2.105 . S
O399 Sc396 2.025 1_554 S
O399 Sc397 2.025 . S
O399 Sc398 2.025 . S
C400 O406 1.268 1_554 S
C400 O416 1.268 . S
C401 O407 1.268 . S
C401 O415 1.268 . S
C402 O408 1.268 . S
C402 O417 1.268 . S
C403 O409 1.268 . S
C403 O413 1.268 . S
C404 O410 1.268 . S
C404 O412 1.268 . S
C405 O411 1.268 . S
C405 O414 1.268 . S
O406 Sc396 2.105 . S
O406 C400 1.268 1_556 S
O407 Sc397 2.105 1_556 S
O407 C401 1.268 . S
O408 Sc398 2.105 . S
O408 C402 1.268 . S
O409 Sc396 2.105 . S
O409 C403 1.268 . S
O410 Sc398 2.105 . S
O410 C404 1.268 . S
O411 Sc397 2.105 . S
O411 C405 1.268 . S
O412 Sc396 2.105 1_554 S
O412 C404 1.268 . S
O413 Sc397 2.105 1_556 S
O413 C403 1.268 . S
O414 Sc398 2.105 . S
O414 C405 1.268 . S
O415 Sc396 2.105 . S
O415 C401 1.268 . S
O416 Sc398 2.105 . S
O416 C400 1.268 . S
O417 Sc397 2.105 . S
O417 C402 1.268 . S
Sc418 O421 2.025 . S
Sc418 O428 2.105 . S
Sc418 O431 2.105 . S
Sc418 O434 2.105 . S
Sc418 O437 2.105 . S
Sc419 O421 2.025 . S
Sc419 O429 2.105 . S
Sc419 O433 2.105 . S
Sc419 O435 2.105 . S
Sc419 O439 2.105 . S
Sc420 O421 2.025 . S
Sc420 O430 2.105 . S
Sc420 O432 2.105 . S
Sc420 O436 2.105 . S
Sc420 O438 2.105 . S
O421 Sc418 2.025 . S
O421 Sc419 2.025 . S
O421 Sc420 2.025 . S
C422 O428 1.268 . S
C422 O438 1.268 . S
C423 O429 1.268 . S
C423 O437 1.268 . S
C424 O430 1.268 . S
C424 O439 1.268 . S
C425 O431 1.268 . S
C425 O435 1.268 . S
C426 O432 1.268 . S
C426 O434 1.268 . S
C427 O433 1.268 . S
C427 O436 1.268 . S
O428 Sc418 2.105 . S
O428 C422 1.268 . S
O429 Sc419 2.105 . S
O429 C423 1.268 . S
O430 Sc420 2.105 . S
O430 C424 1.268 . S
O431 Sc418 2.105 . S
O431 C425 1.268 . S
O432 Sc420 2.105 . S
O432 C426 1.268 . S
O433 Sc419 2.105 . S
O433 C427 1.268 . S
O434 Sc418 2.105 . S
O434 C426 1.268 . S
O435 Sc419 2.105 . S
O435 C425 1.268 . S
O436 Sc420 2.105 . S
O436 C427 1.268 . S
O437 Sc418 2.105 . S
O437 C423 1.268 . S
O438 Sc420 2.105 . S
O438 C422 1.268 . S
O439 Sc419 2.105 . S
O439 C424 1.268 . S
Sc440 O443 2.025 . S
Sc440 O450 2.105 . S
Sc440 O453 2.105 . S
Sc440 O456 2.105 . S
Sc440 O459 2.105 . S
Sc441 O443 2.025 . S
Sc441 O451 2.105 . S
Sc441 O455 2.105 . S
Sc441 O457 2.105 . S
Sc441 O461 2.105 . S
Sc442 O443 2.025 . S
Sc442 O452 2.105 . S
Sc442 O454 2.105 . S
Sc442 O458 2.105 . S
Sc442 O460 2.105 . S
O443 Sc440 2.025 . S
O443 Sc441 2.025 . S
O443 Sc442 2.025 . S
C444 O450 1.268 . S
C444 O460 1.268 . S
C445 O451 1.268 . S
C445 O459 1.268 . S
C446 O452 1.268 . S
C446 O461 1.268 . S
C447 O453 1.268 . S
C447 O457 1.268 . S
C448 O454 1.268 . S
C448 O456 1.268 . S
C449 O455 1.268 . S
C449 O458 1.268 . S
O450 Sc440 2.105 . S
O450 C444 1.268 . S
O451 Sc441 2.105 . S
O451 C445 1.268 . S
O452 Sc442 2.105 . S
O452 C446 1.268 . S
O453 Sc440 2.105 . S
O453 C447 1.268 . S
O454 Sc442 2.105 . S
O454 C448 1.268 . S
O455 Sc441 2.105 . S
O455 C449 1.268 . S
O456 Sc440 2.105 . S
O456 C448 1.268 . S
O457 Sc441 2.105 . S
O457 C447 1.268 . S
O458 Sc442 2.105 . S
O458 C449 1.268 . S
O459 Sc440 2.105 . S
O459 C445 1.268 . S
O460 Sc442 2.105 . S
O460 C444 1.268 . S
O461 Sc441 2.105 . S
O461 C446 1.268 . S
Sc462 O465 2.025 . S
Sc462 O472 2.105 . S
Sc462 O475 2.105 . S
Sc462 O478 2.105 . S
Sc462 O481 2.105 . S
Sc463 O465 2.025 . S
Sc463 O473 2.105 . S
Sc463 O477 2.105 . S
Sc463 O479 2.105 . S
Sc463 O483 2.105 . S
Sc464 O465 2.025 . S
Sc464 O474 2.105 . S
Sc464 O476 2.105 . S
Sc464 O480 2.105 . S
Sc464 O482 2.105 . S
O465 Sc462 2.025 . S
O465 Sc463 2.025 . S
O465 Sc464 2.025 . S
C466 O472 1.268 . S
C466 O482 1.268 . S
C467 O473 1.268 . S
C467 O481 1.268 . S
C468 O474 1.268 . S
C468 O483 1.268 . S
C469 O475 1.268 . S
C469 O479 1.268 . S
C470 O476 1.268 . S
C470 O478 1.268 . S
C471 O477 1.268 . S
C471 O480 1.268 . S
O472 Sc462 2.105 . S
O472 C466 1.268 . S
O473 Sc463 2.105 . S
O473 C467 1.268 . S
O474 Sc464 2.105 . S
O474 C468 1.268 . S
O475 Sc462 2.105 . S
O475 C469 1.268 . S
O476 Sc464 2.105 . S
O476 C470 1.268 . S
O477 Sc463 2.105 . S
O477 C471 1.268 . S
O478 Sc462 2.105 . S
O478 C470 1.268 . S
O479 Sc463 2.105 . S
O479 C469 1.268 . S
O480 Sc464 2.105 . S
O480 C471 1.268 . S
O481 Sc462 2.105 . S
O481 C467 1.268 . S
O482 Sc464 2.105 . S
O482 C466 1.268 . S
O483 Sc463 2.105 . S
O483 C468 1.268 . S
Sc484 O487 2.025 . S
Sc484 O494 2.105 . S
Sc484 O497 2.105 . S
Sc484 O500 2.105 . S
Sc484 O503 2.105 . S
Sc485 O487 2.025 . S
Sc485 O495 2.105 . S
Sc485 O499 2.105 . S
Sc485 O501 2.105 . S
Sc485 O505 2.105 . S
Sc486 O487 2.025 . S
Sc486 O496 2.105 . S
Sc486 O498 2.105 . S
Sc486 O502 2.105 . S
Sc486 O504 2.105 . S
O487 Sc484 2.025 . S
O487 Sc485 2.025 . S
O487 Sc486 2.025 . S
C488 O494 1.268 . S
C488 O504 1.268 . S
C489 O495 1.268 . S
C489 O503 1.268 . S
C490 O496 1.268 . S
C490 O505 1.268 . S
C491 O497 1.268 . S
C491 O501 1.268 . S
C492 O498 1.268 . S
C492 O500 1.268 . S
C493 O499 1.268 . S
C493 O502 1.268 . S
O494 Sc484 2.105 . S
O494 C488 1.268 . S
O495 Sc485 2.105 . S
O495 C489 1.268 . S
O496 Sc486 2.105 . S
O496 C490 1.268 . S
O497 Sc484 2.105 . S
O497 C491 1.268 . S
O498 Sc486 2.105 . S
O498 C492 1.268 . S
O499 Sc485 2.105 . S
O499 C493 1.268 . S
O500 Sc484 2.105 . S
O500 C492 1.268 . S
O501 Sc485 2.105 . S
O501 C491 1.268 . S
O502 Sc486 2.105 . S
O502 C493 1.268 . S
O503 Sc484 2.105 . S
O503 C489 1.268 . S
O504 Sc486 2.105 . S
O504 C488 1.268 . S
O505 Sc485 2.105 . S
O505 C490 1.268 . S
Sc506 O509 2.025 . S
Sc506 O516 2.105 . S
Sc506 O519 2.105 . S
Sc506 O522 2.105 . S
Sc506 O525 2.105 . S
Sc507 O509 2.025 . S
Sc507 O517 2.105 . S
Sc507 O521 2.105 . S
Sc507 O523 2.105 . S
Sc507 O527 2.105 . S
Sc508 O509 2.025 . S
Sc508 O518 2.105 . S
Sc508 O520 2.105 . S
Sc508 O524 2.105 . S
Sc508 O526 2.105 . S
O509 Sc506 2.025 . S
O509 Sc507 2.025 . S
O509 Sc508 2.025 . S
C510 O516 1.268 . S
C510 O526 1.268 . S
C511 O517 1.268 . S
C511 O525 1.268 . S
C512 O518 1.268 . S
C512 O527 1.268 . S
C513 O519 1.268 . S
C513 O523 1.268 . S
C514 O520 1.268 . S
C514 O522 1.268 . S
C515 O521 1.268 . S
C515 O524 1.268 . S
O516 Sc506 2.105 . S
O516 C510 1.268 . S
O517 Sc507 2.105 . S
O517 C511 1.268 . S
O518 Sc508 2.105 . S
O518 C512 1.268 . S
O519 Sc506 2.105 . S
O519 C513 1.268 . S
O520 Sc508 2.105 . S
O520 C514 1.268 . S
O521 Sc507 2.105 . S
O521 C515 1.268 . S
O522 Sc506 2.105 . S
O522 C514 1.268 . S
O523 Sc507 2.105 . S
O523 C513 1.268 . S
O524 Sc508 2.105 . S
O524 C515 1.268 . S
O525 Sc506 2.105 . S
O525 C511 1.268 . S
O526 Sc508 2.105 . S
O526 C510 1.268 . S
O527 Sc507 2.105 . S
O527 C512 1.268 . S
C528 C529 1.369 . S
C528 C530 1.419 . S
C528 H532 0.930 . S
C529 C528 1.369 . S
C529 C538 1.429 . S
C530 C528 1.419 . S
C530 C531 1.363 . S
C530 H533 0.929 . S
C531 C530 1.363 . S
C531 C537 1.428 . S
H532 C528 0.930 . S
H533 C530 0.929 . S
S534 N535 1.613 . S
S534 N536 1.610 . S
N535 S534 1.613 . S
N535 C538 1.350 . S
N536 S534 1.610 . S
N536 C537 1.351 . S
C537 C531 1.428 . S
C537 N536 1.351 . S
C537 C538 1.434 . S
C538 C529 1.429 . S
C538 N535 1.350 . S
C538 C537 1.434 . S
C539 C540 1.369 . S
C539 C541 1.419 . S
C539 H543 0.930 . S
C540 C539 1.369 . S
C540 C549 1.429 . S
C541 C539 1.419 . S
C541 C542 1.363 . S
C541 H544 0.929 . S
C542 C541 1.363 . S
C542 C548 1.428 . S
H543 C539 0.930 . S
H544 C541 0.929 . S
S545 N546 1.613 . S
S545 N547 1.610 . S
N546 S545 1.613 . S
N546 C549 1.350 . S
N547 S545 1.610 . S
N547 C548 1.351 . S
C548 C542 1.428 . S
C548 N547 1.351 . S
C548 C549 1.434 . S
C549 C540 1.429 . S
C549 N546 1.350 . S
C549 C548 1.434 . S
C550 C551 1.369 . S
C550 C552 1.419 . S
C550 H554 0.930 . S
C551 C550 1.369 . S
C551 C560 1.429 . S
C552 C550 1.419 . S
C552 C553 1.363 . S
C552 H555 0.929 . S
C553 C552 1.363 . S
C553 C559 1.428 . S
H554 C550 0.930 . S
H555 C552 0.929 . S
S556 N557 1.613 . S
S556 N558 1.610 . S
N557 S556 1.613 . S
N557 C560 1.350 . S
N558 S556 1.610 . S
N558 C559 1.351 . S
C559 C553 1.428 . S
C559 N558 1.351 . S
C559 C560 1.434 . S
C560 C551 1.429 . S
C560 N557 1.350 . S
C560 C559 1.434 . S
C561 C562 1.369 . S
C561 C563 1.419 . S
C561 H565 0.930 . S
C562 C561 1.369 . S
C562 C571 1.429 . S
C563 C561 1.419 . S
C563 C564 1.363 . S
C563 H566 0.929 . S
C564 C563 1.363 . S
C564 C570 1.428 . S
H565 C561 0.930 . S
H566 C563 0.929 . S
S567 N568 1.613 . S
S567 N569 1.610 . S
N568 S567 1.613 . S
N568 C571 1.350 . S
N569 S567 1.610 . S
N569 C570 1.351 . S
C570 C564 1.428 . S
C570 N569 1.351 . S
C570 C571 1.434 . S
C571 C562 1.429 . S
C571 N568 1.350 . S
C571 C570 1.434 . S
C572 C573 1.369 . S
C572 C574 1.419 . S
C572 H576 0.930 . S
C573 C572 1.369 . S
C573 C582 1.429 . S
C574 C572 1.419 . S
C574 C575 1.363 . S
C574 H577 0.929 . S
C575 C574 1.363 . S
C575 C581 1.428 . S
H576 C572 0.930 . S
H577 C574 0.929 . S
S578 N579 1.613 . S
S578 N580 1.610 . S
N579 S578 1.613 . S
N579 C582 1.350 . S
N580 S578 1.610 . S
N580 C581 1.351 . S
C581 C575 1.428 . S
C581 N580 1.351 . S
C581 C582 1.434 . S
C582 C573 1.429 . S
C582 N579 1.350 . S
C582 C581 1.434 . S
C583 C584 1.369 . S
C583 C585 1.419 . S
C583 H587 0.930 . S
C584 C583 1.369 . S
C584 C593 1.429 . S
C585 C583 1.419 . S
C585 C586 1.363 . S
C585 H588 0.929 . S
C586 C585 1.363 . S
C586 C592 1.428 . S
H587 C583 0.930 . S
H588 C585 0.929 . S
S589 N590 1.613 . S
S589 N591 1.610 . S
N590 S589 1.613 . S
N590 C593 1.350 . S
N591 S589 1.610 . S
N591 C592 1.351 . S
C592 C586 1.428 . S
C592 N591 1.351 . S
C592 C593 1.434 . S
C593 C584 1.429 . S
C593 N590 1.350 . S
C593 C592 1.434 . S
C594 C595 1.369 . S
C594 C596 1.419 . S
C594 H598 0.930 . S
C595 C594 1.369 . S
C595 C604 1.429 . S
C596 C594 1.419 . S
C596 C597 1.363 . S
C596 H599 0.929 . S
C597 C596 1.363 . S
C597 C603 1.428 . S
H598 C594 0.930 . S
H599 C596 0.929 . S
S600 N601 1.613 . S
S600 N602 1.610 . S
N601 S600 1.613 . S
N601 C604 1.350 . S
N602 S600 1.610 . S
N602 C603 1.351 . S
C603 C597 1.428 . S
C603 N602 1.351 . S
C603 C604 1.434 . S
C604 C595 1.429 . S
C604 N601 1.350 . S
C604 C603 1.434 . S
C605 C606 1.369 . S
C605 C607 1.419 . S
C605 H609 0.930 . S
C606 C605 1.369 . S
C606 C615 1.429 . S
C607 C605 1.419 . S
C607 C608 1.363 . S
C607 H610 0.929 . S
C608 C607 1.363 . S
C608 C614 1.428 . S
H609 C605 0.930 . S
H610 C607 0.929 . S
S611 N612 1.613 . S
S611 N613 1.610 1_554 S
N612 S611 1.613 . S
N612 C615 1.350 1_554 S
N613 S611 1.610 1_556 S
N613 C614 1.351 . S
C614 C608 1.428 . S
C614 N613 1.351 . S
C614 C615 1.434 . S
C615 C606 1.429 . S
C615 N612 1.350 1_556 S
C615 C614 1.434 . S
C616 C617 1.369 . S
C616 C618 1.419 . S
C616 H620 0.930 . S
C617 C616 1.369 . S
C617 C626 1.429 . S
C618 C616 1.419 . S
C618 C619 1.363 . S
C618 H621 0.929 . S
C619 C618 1.363 . S
C619 C625 1.428 . S
H620 C616 0.930 . S
H621 C618 0.929 . S
S622 N623 1.613 . S
S622 N624 1.610 . S
N623 S622 1.613 . S
N623 C626 1.350 . S
N624 S622 1.610 . S
N624 C625 1.351 . S
C625 C619 1.428 . S
C625 N624 1.351 . S
C625 C626 1.434 . S
C626 C617 1.429 . S
C626 N623 1.350 . S
C626 C625 1.434 . S
C627 C628 1.369 . S
C627 C629 1.419 . S
C627 H631 0.930 . S
C628 C627 1.369 . S
C628 C637 1.429 . S
C629 C627 1.419 . S
C629 C630 1.363 . S
C629 H632 0.929 . S
C630 C629 1.363 . S
C630 C636 1.428 . S
H631 C627 0.930 . S
H632 C629 0.929 . S
S633 N634 1.613 . S
S633 N635 1.610 . S
N634 S633 1.613 . S
N634 C637 1.350 . S
N635 S633 1.610 . S
N635 C636 1.351 . S
C636 C630 1.428 . S
C636 N635 1.351 . S
C636 C637 1.434 . S
C637 C628 1.429 . S
C637 N634 1.350 . S
C637 C636 1.434 . S
C638 C639 1.369 . S
C638 C640 1.419 . S
C638 H642 0.930 . S
C639 C638 1.369 . S
C639 C648 1.429 . S
C640 C638 1.419 . S
C640 C641 1.363 . S
C640 H643 0.929 . S
C641 C640 1.363 . S
C641 C647 1.428 . S
H642 C638 0.930 . S
H643 C640 0.929 . S
S644 N645 1.613 . S
S644 N646 1.610 . S
N645 S644 1.613 . S
N645 C648 1.350 . S
N646 S644 1.610 . S
N646 C647 1.351 . S
C647 C641 1.428 . S
C647 N646 1.351 . S
C647 C648 1.434 . S
C648 C639 1.429 . S
C648 N645 1.350 . S
C648 C647 1.434 . S
C649 C650 1.369 . S
C649 C651 1.419 . S
C649 H653 0.930 . S
C650 C649 1.369 . S
C650 C659 1.429 . S
C651 C649 1.419 . S
C651 C652 1.363 . S
C651 H654 0.929 . S
C652 C651 1.363 . S
C652 C658 1.428 . S
H653 C649 0.930 . S
H654 C651 0.929 . S
S655 N656 1.613 . S
S655 N657 1.610 . S
N656 S655 1.613 . S
N656 C659 1.350 . S
N657 S655 1.610 . S
N657 C658 1.351 . S
C658 C652 1.428 . S
C658 N657 1.351 . S
C658 C659 1.434 . S
C659 C650 1.429 . S
C659 N656 1.350 . S
C659 C658 1.434 . S
C660 C661 1.369 . S
C660 C662 1.419 . S
C660 H664 0.930 . S
C661 C660 1.369 . S
C661 C670 1.429 . S
C662 C660 1.419 . S
C662 C663 1.363 . S
C662 H665 0.929 . S
C663 C662 1.363 . S
C663 C669 1.428 . S
H664 C660 0.930 . S
H665 C662 0.929 . S
S666 N667 1.613 . S
S666 N668 1.610 . S
N667 S666 1.613 . S
N667 C670 1.350 . S
N668 S666 1.610 . S
N668 C669 1.351 . S
C669 C663 1.428 . S
C669 N668 1.351 . S
C669 C670 1.434 . S
C670 C661 1.429 . S
C670 N667 1.350 . S
C670 C669 1.434 . S
C671 C672 1.369 . S
C671 C673 1.419 . S
C671 H675 0.930 . S
C672 C671 1.369 . S
C672 C681 1.429 . S
C673 C671 1.419 . S
C673 C674 1.363 . S
C673 H676 0.929 . S
C674 C673 1.363 . S
C674 C680 1.428 . S
H675 C671 0.930 . S
H676 C673 0.929 . S
S677 N678 1.613 . S
S677 N679 1.610 . S
N678 S677 1.613 . S
N678 C681 1.350 . S
N679 S677 1.610 . S
N679 C680 1.351 . S
C680 C674 1.428 . S
C680 N679 1.351 . S
C680 C681 1.434 . S
C681 C672 1.429 . S
C681 N678 1.350 . S
C681 C680 1.434 . S
C682 C683 1.369 . S
C682 C684 1.419 . S
C682 H686 0.930 . S
C683 C682 1.369 . S
C683 C692 1.429 . S
C684 C682 1.419 . S
C684 C685 1.363 . S
C684 H687 0.929 . S
C685 C684 1.363 . S
C685 C691 1.428 . S
H686 C682 0.930 . S
H687 C684 0.929 . S
S688 N689 1.613 . S
S688 N690 1.610 . S
N689 S688 1.613 . S
N689 C692 1.350 . S
N690 S688 1.610 . S
N690 C691 1.351 . S
C691 C685 1.428 . S
C691 N690 1.351 . S
C691 C692 1.434 . S
C692 C683 1.429 . S
C692 N689 1.350 . S
C692 C691 1.434 . S
C693 C694 1.369 . S
C693 C695 1.419 . S
C693 H697 0.930 . S
C694 C693 1.369 . S
C694 C703 1.429 . S
C695 C693 1.419 . S
C695 C696 1.363 . S
C695 H698 0.929 . S
C696 C695 1.363 . S
C696 C702 1.428 . S
H697 C693 0.930 . S
H698 C695 0.929 . S
S699 N700 1.613 . S
S699 N701 1.610 . S
N700 S699 1.613 . S
N700 C703 1.350 . S
N701 S699 1.610 . S
N701 C702 1.351 . S
C702 C696 1.428 . S
C702 N701 1.351 . S
C702 C703 1.434 . S
C703 C694 1.429 . S
C703 N700 1.350 . S
C703 C702 1.434 . S
C704 C705 1.369 . S
C704 C706 1.419 . S
C704 H708 0.930 . S
C705 C704 1.369 . S
C705 C714 1.429 . S
C706 C704 1.419 . S
C706 C707 1.363 . S
C706 H709 0.929 . S
C707 C706 1.363 . S
C707 C713 1.428 . S
H708 C704 0.930 . S
H709 C706 0.929 . S
S710 N711 1.613 . S
S710 N712 1.610 . S
N711 S710 1.613 . S
N711 C714 1.350 . S
N712 S710 1.610 . S
N712 C713 1.351 . S
C713 C707 1.428 . S
C713 N712 1.351 . S
C713 C714 1.434 . S
C714 C705 1.429 . S
C714 N711 1.350 . S
C714 C713 1.434 . S
C715 C716 1.369 . S
C715 C717 1.419 . S
C715 H719 0.930 . S
C716 C715 1.369 . S
C716 C725 1.429 . S
C717 C715 1.419 . S
C717 C718 1.363 . S
C717 H720 0.929 . S
C718 C717 1.363 . S
C718 C724 1.428 . S
H719 C715 0.930 . S
H720 C717 0.929 . S
S721 N722 1.613 . S
S721 N723 1.610 . S
N722 S721 1.613 . S
N722 C725 1.350 . S
N723 S721 1.610 . S
N723 C724 1.351 . S
C724 C718 1.428 . S
C724 N723 1.351 . S
C724 C725 1.434 . S
C725 C716 1.429 . S
C725 N722 1.350 . S
C725 C724 1.434 . S
C726 C727 1.369 . S
C726 C728 1.419 . S
C726 H730 0.930 . S
C727 C726 1.369 . S
C727 C736 1.429 . S
C728 C726 1.419 . S
C728 C729 1.363 . S
C728 H731 0.929 . S
C729 C728 1.363 . S
C729 C735 1.428 . S
H730 C726 0.930 . S
H731 C728 0.929 . S
S732 N733 1.613 . S
S732 N734 1.610 . S
N733 S732 1.613 . S
N733 C736 1.350 . S
N734 S732 1.610 . S
N734 C735 1.351 . S
C735 C729 1.428 . S
C735 N734 1.351 . S
C735 C736 1.434 . S
C736 C727 1.429 . S
C736 N733 1.350 . S
C736 C735 1.434 . S
C737 C738 1.369 . S
C737 C739 1.419 . S
C737 H741 0.930 . S
C738 C737 1.369 . S
C738 C747 1.429 . S
C739 C737 1.419 . S
C739 C740 1.363 . S
C739 H742 0.929 . S
C740 C739 1.363 . S
C740 C746 1.428 . S
H741 C737 0.930 . S
H742 C739 0.929 . S
S743 N744 1.613 1_455 S
S743 N745 1.610 . S
N744 S743 1.613 1_655 S
N744 C747 1.350 . S
N745 S743 1.610 . S
N745 C746 1.351 1_455 S
C746 C740 1.428 . S
C746 N745 1.351 1_655 S
C746 C747 1.434 . S
C747 C738 1.429 . S
C747 N744 1.350 . S
C747 C746 1.434 . S
C748 C749 1.369 . S
C748 C750 1.419 . S
C748 H752 0.930 . S
C749 C748 1.369 . S
C749 C758 1.429 . S
C750 C748 1.419 . S
C750 C751 1.363 . S
C750 H753 0.929 . S
C751 C750 1.363 . S
C751 C757 1.428 . S
H752 C748 0.930 . S
H753 C750 0.929 . S
S754 N755 1.613 . S
S754 N756 1.610 . S
N755 S754 1.613 . S
N755 C758 1.350 . S
N756 S754 1.610 . S
N756 C757 1.351 . S
C757 C751 1.428 . S
C757 N756 1.351 . S
C757 C758 1.434 . S
C758 C749 1.429 . S
C758 N755 1.350 . S
C758 C757 1.434 . S
C759 C760 1.369 . S
C759 C761 1.419 . S
C759 H763 0.930 . S
C760 C759 1.369 . S
C760 C769 1.429 . S
C761 C759 1.419 . S
C761 C762 1.363 . S
C761 H764 0.929 . S
C762 C761 1.363 . S
C762 C768 1.428 . S
H763 C759 0.930 . S
H764 C761 0.929 . S
S765 N766 1.613 . S
S765 N767 1.610 . S
N766 S765 1.613 . S
N766 C769 1.350 . S
N767 S765 1.610 . S
N767 C768 1.351 . S
C768 C762 1.428 . S
C768 N767 1.351 . S
C768 C769 1.434 . S
C769 C760 1.429 . S
C769 N766 1.350 . S
C769 C768 1.434 . S
C770 C771 1.369 . S
C770 C772 1.419 . S
C770 H774 0.930 . S
C771 C770 1.369 . S
C771 C780 1.429 . S
C772 C770 1.419 . S
C772 C773 1.363 . S
C772 H775 0.929 . S
C773 C772 1.363 . S
C773 C779 1.428 . S
H774 C770 0.930 . S
H775 C772 0.929 . S
S776 N777 1.613 . S
S776 N778 1.610 1_556 S
N777 S776 1.613 . S
N777 C780 1.350 1_556 S
N778 S776 1.610 1_554 S
N778 C779 1.351 . S
C779 C773 1.428 . S
C779 N778 1.351 . S
C779 C780 1.434 . S
C780 C771 1.429 . S
C780 N777 1.350 1_554 S
C780 C779 1.434 . S
C781 C782 1.369 . S
C781 C783 1.419 . S
C781 H785 0.930 . S
C782 C781 1.369 . S
C782 C791 1.429 . S
C783 C781 1.419 . S
C783 C784 1.363 . S
C783 H786 0.929 . S
C784 C783 1.363 . S
C784 C790 1.428 . S
H785 C781 0.930 . S
H786 C783 0.929 . S
S787 N788 1.613 . S
S787 N789 1.610 . S
N788 S787 1.613 . S
N788 C791 1.350 . S
N789 S787 1.610 . S
N789 C790 1.351 . S
C790 C784 1.428 . S
C790 N789 1.351 . S
C790 C791 1.434 . S
C791 C782 1.429 . S
C791 N788 1.350 . S
C791 C790 1.434 . S
C792 C793 1.369 . S
C792 C794 1.419 1_565 S
C792 H796 0.930 . S
C793 C792 1.369 . S
C793 C802 1.429 . S
C794 C792 1.419 1_545 S
C794 C795 1.363 . S
C794 H797 0.929 . S
C795 C794 1.363 . S
C795 C801 1.428 . S
H796 C792 0.930 . S
H797 C794 0.929 . S
S798 N799 1.613 . S
S798 N800 1.610 1_565 S
N799 S798 1.613 . S
N799 C802 1.350 1_455 S
N800 S798 1.610 1_545 S
N800 C801 1.351 1_455 S
C801 C795 1.428 . S
C801 N800 1.351 1_655 S
C801 C802 1.434 1_545 S
C802 C793 1.429 . S
C802 N799 1.350 1_655 S
C802 C801 1.434 1_565 S
C803 C804 1.369 . S
C803 C805 1.419 . S
C803 H807 0.930 . S
C804 C803 1.369 . S
C804 C813 1.429 . S
C805 C803 1.419 . S
C805 C806 1.363 . S
C805 H808 0.929 . S
C806 C805 1.363 . S
C806 C812 1.428 . S
H807 C803 0.930 . S
H808 C805 0.929 . S
S809 N810 1.613 . S
S809 N811 1.610 . S
N810 S809 1.613 . S
N810 C813 1.350 . S
N811 S809 1.610 . S
N811 C812 1.351 . S
C812 C806 1.428 . S
C812 N811 1.351 . S
C812 C813 1.434 . S
C813 C804 1.429 . S
C813 N810 1.350 . S
C813 C812 1.434 . S
C814 C815 1.369 . S
C814 C816 1.419 1_565 S
C814 H818 0.930 . S
C815 C814 1.369 . S
C815 C824 1.429 . S
C816 C814 1.419 1_545 S
C816 C817 1.363 . S
C816 H819 0.929 . S
C817 C816 1.363 . S
C817 C823 1.428 . S
H818 C814 0.930 . S
H819 C816 0.929 . S
S820 N821 1.613 . S
S820 N822 1.610 1_565 S
N821 S820 1.613 . S
N821 C824 1.350 . S
N822 S820 1.610 1_545 S
N822 C823 1.351 . S
C823 C817 1.428 . S
C823 N822 1.351 . S
C823 C824 1.434 1_545 S
C824 C815 1.429 . S
C824 N821 1.350 . S
C824 C823 1.434 1_565 S
C825 C826 1.369 1_556 S
C825 C827 1.419 . S
C825 H829 0.930 . S
C826 C825 1.369 1_554 S
C826 C835 1.429 . S
C827 C825 1.419 . S
C827 C828 1.363 . S
C827 H830 0.929 . S
C828 C827 1.363 . S
C828 C834 1.428 1_556 S
H829 C825 0.930 . S
H830 C827 0.929 . S
S831 N832 1.613 . S
S831 N833 1.610 . S
N832 S831 1.613 . S
N832 C835 1.350 . S
N833 S831 1.610 . S
N833 C834 1.351 . S
C834 C828 1.428 1_554 S
C834 N833 1.351 . S
C834 C835 1.434 . S
C835 C826 1.429 . S
C835 N832 1.350 . S
C835 C834 1.434 . S
C836 C837 1.369 . S
C836 C838 1.419 1_556 S
C836 H840 0.930 1_565 S
C837 C836 1.369 . S
C837 C846 1.429 . S
C838 C836 1.419 1_554 S
C838 C839 1.363 . S
C838 H841 0.929 1_565 S
C839 C838 1.363 . S
C839 C845 1.428 . S
H840 C836 0.930 1_545 S
H841 C838 0.929 1_545 S
S842 N843 1.613 . S
S842 N844 1.610 1_556 S
N843 S842 1.613 . S
N843 C846 1.350 . S
N844 S842 1.610 1_554 S
N844 C845 1.351 . S
C845 C839 1.428 . S
C845 N844 1.351 . S
C845 C846 1.434 1_554 S
C846 C837 1.429 . S
C846 N843 1.350 . S
C846 C845 1.434 1_556 S
C847 C848 1.369 . S
C847 C849 1.419 . S
C847 H851 0.930 . S
C848 C847 1.369 . S
C848 C857 1.429 1_565 S
C849 C847 1.419 . S
C849 C850 1.363 1_565 S
C849 H852 0.929 . S
C850 C849 1.363 1_545 S
C850 C856 1.428 . S
H851 C847 0.930 . S
H852 C849 0.929 . S
S853 N854 1.613 . S
S853 N855 1.610 . S
N854 S853 1.613 . S
N854 C857 1.350 . S
N855 S853 1.610 . S
N855 C856 1.351 . S
C856 C850 1.428 . S
C856 N855 1.351 . S
C856 C857 1.434 . S
C857 C848 1.429 1_545 S
C857 N854 1.350 . S
C857 C856 1.434 . S
C858 C859 1.369 . S
C858 C860 1.419 . S
C858 H862 0.930 . S
C859 C858 1.369 . S
C859 C868 1.429 . S
C860 C858 1.419 . S
C860 C861 1.363 . S
C860 H863 0.929 . S
C861 C860 1.363 . S
C861 C867 1.428 . S
H862 C858 0.930 . S
H863 C860 0.929 . S
S864 N865 1.613 . S
S864 N866 1.610 . S
N865 S864 1.613 . S
N865 C868 1.350 . S
N866 S864 1.610 . S
N866 C867 1.351 . S
C867 C861 1.428 . S
C867 N866 1.351 . S
C867 C868 1.434 . S
C868 C859 1.429 . S
C868 N865 1.350 . S
C868 C867 1.434 . S
C869 C870 1.369 1_545 S
C869 C871 1.419 . S
C869 H873 0.930 . S
C870 C869 1.369 1_565 S
C870 C879 1.429 . S
C871 C869 1.419 . S
C871 C872 1.363 . S
C871 H874 0.929 . S
C872 C871 1.363 . S
C872 C878 1.428 1_545 S
H873 C869 0.930 . S
H874 C871 0.929 . S
S875 N876 1.613 . S
S875 N877 1.610 . S
N876 S875 1.613 . S
N876 C879 1.350 . S
N877 S875 1.610 . S
N877 C878 1.351 . S
C878 C872 1.428 1_565 S
C878 N877 1.351 . S
C878 C879 1.434 . S
C879 C870 1.429 . S
C879 N876 1.350 . S
C879 C878 1.434 . S
C880 C881 1.369 . S
C880 C882 1.419 1_655 S
C880 H884 0.930 . S
C881 C880 1.369 . S
C881 C890 1.429 . S
C882 C880 1.419 1_455 S
C882 C883 1.363 . S
C882 H885 0.929 . S
C883 C882 1.363 . S
C883 C889 1.428 . S
H884 C880 0.930 . S
H885 C882 0.929 . S
S886 N887 1.613 . S
S886 N888 1.610 1_655 S
N887 S886 1.613 . S
N887 C890 1.350 . S
N888 S886 1.610 1_455 S
N888 C889 1.351 . S
C889 C883 1.428 . S
C889 N888 1.351 . S
C889 C890 1.434 1_455 S
C890 C881 1.429 . S
C890 N887 1.350 . S
C890 C889 1.434 1_655 S
C891 C892 1.369 . S
C891 C893 1.419 . S
C891 H895 0.930 . S
C892 C891 1.369 . S
C892 C901 1.429 . S
C893 C891 1.419 . S
C893 C894 1.363 . S
C893 H896 0.929 . S
C894 C893 1.363 . S
C894 C900 1.428 . S
H895 C891 0.930 . S
H896 C893 0.929 . S
S897 N898 1.613 . S
S897 N899 1.610 . S
N898 S897 1.613 . S
N898 C901 1.350 . S
N899 S897 1.610 . S
N899 C900 1.351 . S
C900 C894 1.428 . S
C900 N899 1.351 . S
C900 C901 1.434 . S
C901 C892 1.429 . S
C901 N898 1.350 . S
C901 C900 1.434 . S
C902 C903 1.369 1_455 S
C902 C904 1.419 . S
C902 H906 0.930 . S
C903 C902 1.369 1_655 S
C903 C912 1.429 . S
C904 C902 1.419 . S
C904 C905 1.392 . S
C904 H907 0.929 . S
C905 C904 1.392 . S
C905 C911 1.398 1_455 S
H906 C902 0.930 . S
H907 C904 0.929 . S
S908 N909 1.613 . S
S908 N910 1.610 . S
N909 S908 1.613 . S
N909 C912 1.350 . S
N910 S908 1.610 . S
N910 C911 1.351 . S
C911 C905 1.398 1_655 S
C911 N910 1.351 . S
C911 C912 1.434 . S
C912 C903 1.429 . S
C912 N909 1.350 . S
C912 C911 1.434 . S
C913 C914 1.369 . S
C913 C915 1.419 1_455 S
C913 H917 0.930 . S
C914 C913 1.369 . S
C914 C923 1.429 . S
C915 C913 1.419 1_655 S
C915 C916 1.363 . S
C915 H918 0.929 . S
C916 C915 1.363 . S
C916 C922 1.428 . S
H917 C913 0.930 . S
H918 C915 0.929 . S
S919 N920 1.613 1_655 S
S919 N921 1.610 . S
N920 S919 1.613 1_455 S
N920 C923 1.350 . S
N921 S919 1.610 . S
N921 C922 1.351 . S
C922 C916 1.428 . S
C922 N921 1.351 . S
C922 C923 1.434 1_655 S
C923 C914 1.429 . S
C923 N920 1.350 . S
C923 C922 1.434 1_455 S
C924 C925 1.369 . S
C924 C926 1.419 . S
C924 H928 0.930 . S
C925 C924 1.369 . S
C925 C934 1.429 . S
C926 C924 1.419 . S
C926 C927 1.363 . S
C926 H929 0.929 . S
C927 C926 1.363 . S
C927 C933 1.428 . S
H928 C924 0.930 . S
H929 C926 0.929 . S
S930 N931 1.613 . S
S930 N932 1.610 . S
N931 S930 1.613 . S
N931 C934 1.350 . S
N932 S930 1.610 . S
N932 C933 1.351 . S
C933 C927 1.428 . S
C933 N932 1.351 . S
C933 C934 1.434 . S
C934 C925 1.429 . S
C934 N931 1.350 . S
C934 C933 1.434 . S
C935 C936 1.369 . S
C935 C937 1.419 . S
C935 H939 0.930 . S
C936 C935 1.369 . S
C936 C945 1.429 1_655 S
C937 C935 1.419 . S
C937 C938 1.363 1_655 S
C937 H940 0.929 . S
C938 C937 1.363 1_455 S
C938 C944 1.428 . S
H939 C935 0.930 . S
H940 C937 0.929 . S
S941 N942 1.613 . S
S941 N943 1.610 . S
N942 S941 1.613 . S
N942 C945 1.350 . S
N943 S941 1.610 . S
N943 C944 1.351 . S
C944 C938 1.428 . S
C944 N943 1.351 . S
C944 C945 1.434 . S
C945 C936 1.429 1_455 S
C945 N942 1.350 . S
C945 C944 1.434 . S
C946 C947 1.369 . S
C946 C948 1.419 . S
C946 H950 0.930 . S
C947 C946 1.369 . S
C947 C956 1.429 . S
C948 C946 1.419 . S
C948 C949 1.363 . S
C948 H951 0.929 . S
C949 C948 1.363 . S
C949 C955 1.428 . S
H950 C946 0.930 . S
H951 C948 0.929 . S
S952 N953 1.613 . S
S952 N954 1.610 . S
N953 S952 1.613 . S
N953 C956 1.350 . S
N954 S952 1.610 . S
N954 C955 1.351 . S
C955 C949 1.428 . S
C955 N954 1.351 . S
C955 C956 1.434 . S
C956 C947 1.429 . S
C956 N953 1.350 . S
C956 C955 1.434 . S
C957 C958 1.369 . S
C957 C959 1.419 . S
C957 H961 0.930 . S
C958 C957 1.369 . S
C958 C967 1.429 . S
C959 C957 1.419 . S
C959 C960 1.363 . S
C959 H962 0.929 . S
C960 C959 1.363 . S
C960 C966 1.428 . S
H961 C957 0.930 . S
H962 C959 0.929 . S
S963 N964 1.613 . S
S963 N965 1.610 . S
N964 S963 1.613 . S
N964 C967 1.350 . S
N965 S963 1.610 . S
N965 C966 1.351 . S
C966 C960 1.428 . S
C966 N965 1.351 . S
C966 C967 1.434 . S
C967 C958 1.429 . S
C967 N964 1.350 . S
C967 C966 1.434 . S
C968 C969 1.391 . S
C968 C970 1.419 . S
C968 H972 0.930 . S
C969 C968 1.391 . S
C969 C978 1.405 1_556 S
C970 C968 1.419 . S
C970 C971 1.363 1_556 S
C970 H973 0.929 . S
C971 C970 1.363 1_554 S
C971 C977 1.428 . S
H972 C968 0.930 . S
H973 C970 0.929 . S
S974 N975 1.613 . S
S974 N976 1.610 . S
N975 S974 1.613 . S
N975 C978 1.350 . S
N976 S974 1.610 . S
N976 C977 1.351 . S
C977 C971 1.428 . S
C977 N976 1.351 . S
C977 C978 1.434 . S
C978 C969 1.405 1_554 S
C978 N975 1.350 . S
C978 C977 1.434 . S
C979 C980 1.369 . S
C979 C981 1.419 . S
C979 H983 0.930 . S
C980 C979 1.369 . S
C980 C989 1.429 . S
C981 C979 1.419 . S
C981 C982 1.363 . S
C981 H984 0.929 . S
C982 C981 1.363 . S
C982 C988 1.428 . S
H983 C979 0.930 . S
H984 C981 0.929 . S
S985 N986 1.613 . S
S985 N987 1.610 . S
N986 S985 1.613 . S
N986 C989 1.350 1_655 S
N987 S985 1.610 . S
N987 C988 1.351 1_655 S
C988 C982 1.428 . S
C988 N987 1.351 1_455 S
C988 C989 1.434 . S
C989 C980 1.429 . S
C989 N986 1.350 1_455 S
C989 C988 1.434 . S
C990 C991 1.369 . S
C990 C992 1.419 . S
C990 H994 0.930 . S
C991 C990 1.369 . S
C991 C1000 1.429 . S
C992 C990 1.419 . S
C992 C993 1.363 . S
C992 H995 0.929 . S
C993 C992 1.363 . S
C993 C999 1.428 . S
H994 C990 0.930 . S
H995 C992 0.929 . S
S996 N997 1.613 . S
S996 N998 1.610 . S
N997 S996 1.613 . S
N997 C1000 1.350 . S
N998 S996 1.610 . S
N998 C999 1.351 . S
C999 C993 1.428 . S
C999 N998 1.351 . S
C999 C1000 1.434 . S
C1000 C991 1.429 . S
C1000 N997 1.350 . S
C1000 C999 1.434 . S
C1001 C1002 1.369 . S
C1001 C1003 1.419 . S
C1001 H1005 0.930 . S
C1002 C1001 1.369 . S
C1002 C1011 1.429 . S
C1003 C1001 1.419 . S
C1003 C1004 1.363 . S
C1003 H1006 0.929 . S
C1004 C1003 1.363 . S
C1004 C1010 1.428 . S
H1005 C1001 0.930 . S
H1006 C1003 0.929 . S
S1007 N1008 1.613 . S
S1007 N1009 1.610 . S
N1008 S1007 1.613 . S
N1008 C1011 1.350 . S
N1009 S1007 1.610 . S
N1009 C1010 1.351 . S
C1010 C1004 1.428 . S
C1010 N1009 1.351 . S
C1010 C1011 1.434 . S
C1011 C1002 1.429 . S
C1011 N1008 1.350 . S
C1011 C1010 1.434 . S
C1012 C1013 1.369 . S
C1012 C1014 1.419 . S
C1012 H1016 0.930 . S
C1013 C1012 1.369 . S
C1013 C1022 1.429 . S
C1014 C1012 1.419 . S
C1014 C1015 1.363 . S
C1014 H1017 0.929 . S
C1015 C1014 1.363 . S
C1015 C1021 1.428 . S
H1016 C1012 0.930 . S
H1017 C1014 0.929 . S
S1018 N1019 1.613 . S
S1018 N1020 1.610 . S
N1019 S1018 1.613 . S
N1019 C1022 1.350 . S
N1020 S1018 1.610 . S
N1020 C1021 1.351 . S
C1021 C1015 1.428 . S
C1021 N1020 1.351 . S
C1021 C1022 1.434 . S
C1022 C1013 1.429 . S
C1022 N1019 1.350 . S
C1022 C1021 1.434 . S
C1023 C1024 1.369 . S
C1023 C1025 1.419 1_554 S
C1023 H1027 0.930 . S
C1024 C1023 1.369 . S
C1024 C1033 1.429 . S
C1025 C1023 1.419 1_556 S
C1025 C1026 1.363 . S
C1025 H1028 0.929 . S
C1026 C1025 1.363 . S
C1026 C1032 1.428 . S
H1027 C1023 0.930 . S
H1028 C1025 0.929 . S
S1029 N1030 1.587 1_556 S
S1029 N1031 1.636 . S
N1030 S1029 1.587 1_554 S
N1030 C1033 1.350 . S
N1031 S1029 1.636 . S
N1031 C1032 1.351 . S
C1032 C1026 1.428 . S
C1032 N1031 1.351 . S
C1032 C1033 1.434 1_556 S
C1033 C1024 1.429 . S
C1033 N1030 1.350 . S
C1033 C1032 1.434 1_554 S
C1034 C1035 1.369 . S
C1034 C1036 1.419 . S
C1034 H1038 0.930 . S
C1035 C1034 1.369 . S
C1035 C1044 1.429 . S
C1036 C1034 1.419 . S
C1036 C1037 1.363 . S
C1036 H1039 0.929 . S
C1037 C1036 1.363 . S
C1037 C1043 1.428 . S
H1038 C1034 0.930 . S
H1039 C1036 0.929 . S
S1040 N1041 1.613 . S
S1040 N1042 1.610 . S
N1041 S1040 1.613 . S
N1041 C1044 1.350 . S
N1042 S1040 1.610 . S
N1042 C1043 1.351 . S
C1043 C1037 1.428 . S
C1043 N1042 1.351 . S
C1043 C1044 1.434 . S
C1044 C1035 1.429 . S
C1044 N1041 1.350 . S
C1044 C1043 1.434 . S
C1045 C1046 1.369 . S
C1045 C1047 1.419 . S
C1045 H1049 0.930 . S
C1046 C1045 1.369 . S
C1046 C1055 1.429 . S
C1047 C1045 1.419 . S
C1047 C1048 1.363 . S
C1047 H1050 0.929 . S
C1048 C1047 1.363 . S
C1048 C1054 1.428 . S
H1049 C1045 0.930 . S
H1050 C1047 0.929 . S
S1051 N1052 1.613 . S
S1051 N1053 1.610 . S
N1052 S1051 1.613 . S
N1052 C1055 1.350 . S
N1053 S1051 1.610 . S
N1053 C1054 1.351 . S
C1054 C1048 1.428 . S
C1054 N1053 1.351 . S
C1054 C1055 1.434 . S
C1055 C1046 1.429 . S
C1055 N1052 1.350 . S
C1055 C1054 1.434 . S
C1056 C1057 1.369 . S
C1056 C1058 1.419 . S
C1056 H1060 0.930 . S
C1057 C1056 1.369 . S
C1057 C1066 1.429 . S
C1058 C1056 1.419 . S
C1058 C1059 1.363 . S
C1058 H1061 0.929 . S
C1059 C1058 1.363 . S
C1059 C1065 1.428 . S
H1060 C1056 0.930 . S
H1061 C1058 0.929 . S
S1062 N1063 1.613 . S
S1062 N1064 1.610 . S
N1063 S1062 1.613 . S
N1063 C1066 1.350 . S
N1064 S1062 1.610 . S
N1064 C1065 1.351 . S
C1065 C1059 1.428 . S
C1065 N1064 1.351 . S
C1065 C1066 1.434 . S
C1066 C1057 1.429 . S
C1066 N1063 1.350 . S
C1066 C1065 1.434 . S
C1067 C1068 1.369 . S
C1067 C1069 1.419 . S
C1067 H1071 0.930 . S
C1068 C1067 1.369 . S
C1068 C1077 1.429 . S
C1069 C1067 1.419 . S
C1069 C1070 1.363 . S
C1069 H1072 0.929 . S
C1070 C1069 1.363 . S
C1070 C1076 1.428 . S
H1071 C1067 0.930 . S
H1072 C1069 0.929 . S
S1073 N1074 1.613 . S
S1073 N1075 1.610 . S
N1074 S1073 1.613 . S
N1074 C1077 1.350 . S
N1075 S1073 1.610 . S
N1075 C1076 1.351 . S
C1076 C1070 1.428 . S
C1076 N1075 1.351 . S
C1076 C1077 1.434 . S
C1077 C1068 1.429 . S
C1077 N1074 1.350 . S
C1077 C1076 1.434 . S
C1078 C1079 1.369 . S
C1078 C1080 1.419 . S
C1078 H1082 0.930 . S
C1079 C1078 1.369 . S
C1079 C1088 1.429 . S
C1080 C1078 1.419 . S
C1080 C1081 1.363 . S
C1080 H1083 0.929 . S
C1081 C1080 1.363 . S
C1081 C1087 1.428 . S
H1082 C1078 0.930 . S
H1083 C1080 0.929 . S
S1084 N1085 1.613 . S
S1084 N1086 1.610 . S
N1085 S1084 1.613 . S
N1085 C1088 1.350 . S
N1086 S1084 1.610 . S
N1086 C1087 1.351 . S
C1087 C1081 1.428 . S
C1087 N1086 1.351 . S
C1087 C1088 1.434 . S
C1088 C1079 1.429 . S
C1088 N1085 1.350 . S
C1088 C1087 1.434 . S
C1089 C1090 1.369 . S
C1089 C1091 1.419 . S
C1089 H1093 0.930 . S
C1090 C1089 1.369 . S
C1090 C1099 1.429 . S
C1091 C1089 1.419 . S
C1091 C1092 1.363 . S
C1091 H1094 0.929 . S
C1092 C1091 1.363 . S
C1092 C1098 1.428 . S
H1093 C1089 0.930 . S
H1094 C1091 0.929 . S
S1095 N1096 1.613 . S
S1095 N1097 1.610 . S
N1096 S1095 1.613 . S
N1096 C1099 1.350 . S
N1097 S1095 1.610 . S
N1097 C1098 1.351 . S
C1098 C1092 1.428 . S
C1098 N1097 1.351 . S
C1098 C1099 1.434 . S
C1099 C1090 1.429 . S
C1099 N1096 1.350 . S
C1099 C1098 1.434 . S
C1100 C1101 1.369 . S
C1100 C1102 1.419 . S
C1100 H1104 0.930 . S
C1101 C1100 1.369 . S
C1101 C1110 1.429 . S
C1102 C1100 1.419 . S
C1102 C1103 1.363 . S
C1102 H1105 0.929 . S
C1103 C1102 1.363 . S
C1103 C1109 1.428 . S
H1104 C1100 0.930 . S
H1105 C1102 0.929 . S
S1106 N1107 1.613 . S
S1106 N1108 1.610 . S
N1107 S1106 1.613 . S
N1107 C1110 1.350 . S
N1108 S1106 1.610 . S
N1108 C1109 1.351 . S
C1109 C1103 1.428 . S
C1109 N1108 1.351 . S
C1109 C1110 1.434 . S
C1110 C1101 1.429 . S
C1110 N1107 1.350 . S
C1110 C1109 1.434 . S
C1111 C1112 1.369 . S
C1111 C1113 1.419 . S
C1111 H1115 0.930 . S
C1112 C1111 1.369 . S
C1112 C1121 1.429 . S
C1113 C1111 1.419 . S
C1113 C1114 1.363 . S
C1113 H1116 0.929 . S
C1114 C1113 1.363 . S
C1114 C1120 1.428 . S
H1115 C1111 0.930 . S
H1116 C1113 0.929 . S
S1117 N1118 1.613 . S
S1117 N1119 1.610 . S
N1118 S1117 1.613 . S
N1118 C1121 1.350 . S
N1119 S1117 1.610 . S
N1119 C1120 1.351 . S
C1120 C1114 1.428 . S
C1120 N1119 1.351 . S
C1120 C1121 1.434 . S
C1121 C1112 1.429 . S
C1121 N1118 1.350 . S
C1121 C1120 1.434 . S
C1122 C1123 1.369 . S
C1122 C1124 1.419 . S
C1122 H1126 0.930 . S
C1123 C1122 1.369 . S
C1123 C1132 1.429 . S
C1124 C1122 1.419 . S
C1124 C1125 1.363 . S
C1124 H1127 0.929 . S
C1125 C1124 1.363 . S
C1125 C1131 1.428 . S
H1126 C1122 0.930 . S
H1127 C1124 0.929 . S
S1128 N1129 1.613 . S
S1128 N1130 1.610 . S
N1129 S1128 1.613 . S
N1129 C1132 1.350 . S
N1130 S1128 1.610 . S
N1130 C1131 1.351 . S
C1131 C1125 1.428 . S
C1131 N1130 1.351 . S
C1131 C1132 1.434 . S
C1132 C1123 1.429 . S
C1132 N1129 1.350 . S
C1132 C1131 1.434 . S
C1133 C1134 1.369 . S
C1133 C1135 1.419 . S
C1133 H1137 0.930 . S
C1134 C1133 1.369 . S
C1134 C1143 1.429 . S
C1135 C1133 1.419 . S
C1135 C1136 1.363 . S
C1135 H1138 0.929 . S
C1136 C1135 1.363 . S
C1136 C1142 1.428 . S
H1137 C1133 0.930 . S
H1138 C1135 0.929 . S
S1139 N1140 1.613 . S
S1139 N1141 1.610 . S
N1140 S1139 1.613 . S
N1140 C1143 1.350 . S
N1141 S1139 1.610 . S
N1141 C1142 1.351 . S
C1142 C1136 1.428 . S
C1142 N1141 1.351 . S
C1142 C1143 1.434 . S
C1143 C1134 1.429 . S
C1143 N1140 1.350 . S
C1143 C1142 1.434 . S
C1144 C1145 1.369 . S
C1144 C1146 1.419 . S
C1144 H1148 0.930 . S
C1145 C1144 1.369 . S
C1145 C1154 1.429 . S
C1146 C1144 1.419 . S
C1146 C1147 1.363 . S
C1146 H1149 0.929 . S
C1147 C1146 1.363 . S
C1147 C1153 1.428 . S
H1148 C1144 0.930 . S
H1149 C1146 0.929 . S
S1150 N1151 1.613 . S
S1150 N1152 1.610 . S
N1151 S1150 1.613 . S
N1151 C1154 1.350 . S
N1152 S1150 1.610 . S
N1152 C1153 1.351 . S
C1153 C1147 1.428 . S
C1153 N1152 1.351 . S
C1153 C1154 1.434 . S
C1154 C1145 1.429 . S
C1154 N1151 1.350 . S
C1154 C1153 1.434 . S
C1155 C1156 1.369 . S
C1155 C1157 1.419 . S
C1155 H1159 0.930 . S
C1156 C1155 1.369 . S
C1156 C1165 1.429 . S
C1157 C1155 1.419 . S
C1157 C1158 1.363 . S
C1157 H1160 0.929 . S
C1158 C1157 1.363 . S
C1158 C1164 1.428 . S
H1159 C1155 0.930 . S
H1160 C1157 0.929 . S
S1161 N1162 1.613 . S
S1161 N1163 1.610 . S
N1162 S1161 1.613 . S
N1162 C1165 1.350 . S
N1163 S1161 1.610 . S
N1163 C1164 1.351 . S
C1164 C1158 1.428 . S
C1164 N1163 1.351 . S
C1164 C1165 1.434 . S
C1165 C1156 1.429 . S
C1165 N1162 1.350 . S
C1165 C1164 1.434 . S
C1166 C1167 1.369 . S
C1166 C1168 1.419 . S
C1166 H1170 0.930 . S
C1167 C1166 1.369 . S
C1167 C1176 1.429 . S
C1168 C1166 1.419 . S
C1168 C1169 1.363 . S
C1168 H1171 0.929 . S
C1169 C1168 1.363 . S
C1169 C1175 1.428 . S
H1170 C1166 0.930 . S
H1171 C1168 0.929 . S
S1172 N1173 1.613 . S
S1172 N1174 1.610 . S
N1173 S1172 1.613 . S
N1173 C1176 1.350 . S
N1174 S1172 1.610 . S
N1174 C1175 1.351 . S
C1175 C1169 1.428 . S
C1175 N1174 1.351 . S
C1175 C1176 1.434 . S
C1176 C1167 1.429 . S
C1176 N1173 1.350 . S
C1176 C1175 1.434 . S
C1177 C1178 1.369 . S
C1177 C1179 1.419 . S
C1177 H1181 0.930 . S
C1178 C1177 1.369 . S
C1178 C1187 1.429 . S
C1179 C1177 1.419 . S
C1179 C1180 1.363 . S
C1179 H1182 0.929 . S
C1180 C1179 1.363 . S
C1180 C1186 1.428 . S
H1181 C1177 0.930 . S
H1182 C1179 0.929 . S
S1183 N1184 1.613 . S
S1183 N1185 1.610 . S
N1184 S1183 1.613 . S
N1184 C1187 1.350 . S
N1185 S1183 1.610 . S
N1185 C1186 1.351 . S
C1186 C1180 1.428 . S
C1186 N1185 1.351 . S
C1186 C1187 1.434 . S
C1187 C1178 1.429 . S
C1187 N1184 1.350 . S
C1187 C1186 1.434 . S
C1188 C1189 1.369 . S
C1188 C1190 1.419 . S
C1188 H1192 0.930 . S
C1189 C1188 1.369 . S
C1189 C1198 1.429 . S
C1190 C1188 1.419 . S
C1190 C1191 1.363 . S
C1190 H1193 0.929 . S
C1191 C1190 1.363 . S
C1191 C1197 1.428 . S
H1192 C1188 0.930 . S
H1193 C1190 0.929 . S
S1194 N1195 1.613 . S
S1194 N1196 1.610 . S
N1195 S1194 1.613 . S
N1195 C1198 1.350 . S
N1196 S1194 1.610 . S
N1196 C1197 1.351 . S
C1197 C1191 1.428 . S
C1197 N1196 1.351 . S
C1197 C1198 1.434 . S
C1198 C1189 1.429 . S
C1198 N1195 1.350 . S
C1198 C1197 1.434 . S
C1199 C1200 1.369 . S
C1199 C1201 1.419 . S
C1199 H1203 0.930 . S
C1200 C1199 1.369 . S
C1200 C1209 1.429 . S
C1201 C1199 1.419 . S
C1201 C1202 1.363 . S
C1201 H1204 0.929 . S
C1202 C1201 1.363 . S
C1202 C1208 1.428 . S
H1203 C1199 0.930 . S
H1204 C1201 0.929 . S
S1205 N1206 1.613 . S
S1205 N1207 1.610 . S
N1206 S1205 1.613 . S
N1206 C1209 1.350 . S
N1207 S1205 1.610 . S
N1207 C1208 1.351 . S
C1208 C1202 1.428 . S
C1208 N1207 1.351 . S
C1208 C1209 1.434 . S
C1209 C1200 1.429 . S
C1209 N1206 1.350 . S
C1209 C1208 1.434 . S
C1210 C1211 1.369 . S
C1210 C1212 1.419 . S
C1210 H1214 0.930 . S
C1211 C1210 1.369 . S
C1211 C1220 1.429 . S
C1212 C1210 1.419 . S
C1212 C1213 1.363 . S
C1212 H1215 0.929 . S
C1213 C1212 1.363 . S
C1213 C1219 1.428 . S
H1214 C1210 0.930 . S
H1215 C1212 0.929 . S
S1216 N1217 1.613 . S
S1216 N1218 1.610 . S
N1217 S1216 1.613 . S
N1217 C1220 1.350 . S
N1218 S1216 1.610 . S
N1218 C1219 1.351 . S
C1219 C1213 1.428 . S
C1219 N1218 1.351 . S
C1219 C1220 1.434 . S
C1220 C1211 1.429 . S
C1220 N1217 1.350 . S
C1220 C1219 1.434 . S
C1221 C1222 1.369 . S
C1221 C1223 1.419 . S
C1221 H1225 0.930 . S
C1222 C1221 1.369 . S
C1222 C1231 1.429 . S
C1223 C1221 1.419 . S
C1223 C1224 1.363 . S
C1223 H1226 0.929 . S
C1224 C1223 1.363 . S
C1224 C1230 1.428 . S
H1225 C1221 0.930 . S
H1226 C1223 0.929 . S
S1227 N1228 1.613 . S
S1227 N1229 1.610 . S
N1228 S1227 1.613 . S
N1228 C1231 1.350 . S
N1229 S1227 1.610 . S
N1229 C1230 1.351 . S
C1230 C1224 1.428 . S
C1230 N1229 1.351 . S
C1230 C1231 1.434 . S
C1231 C1222 1.429 . S
C1231 N1228 1.350 . S
C1231 C1230 1.434 . S
C1232 C1233 1.369 . S
C1232 C1234 1.419 . S
C1232 H1236 0.930 . S
C1233 C1232 1.369 . S
C1233 C1242 1.429 . S
C1234 C1232 1.419 . S
C1234 C1235 1.363 . S
C1234 H1237 0.929 . S
C1235 C1234 1.363 . S
C1235 C1241 1.428 . S
H1236 C1232 0.930 . S
H1237 C1234 0.929 . S
S1238 N1239 1.613 . S
S1238 N1240 1.610 . S
N1239 S1238 1.613 . S
N1239 C1242 1.350 . S
N1240 S1238 1.610 . S
N1240 C1241 1.351 . S
C1241 C1235 1.428 . S
C1241 N1240 1.351 . S
C1241 C1242 1.434 . S
C1242 C1233 1.429 . S
C1242 N1239 1.350 . S
C1242 C1241 1.434 . S
C1243 C1244 1.369 . S
C1243 C1245 1.419 . S
C1243 H1247 0.930 . S
C1244 C1243 1.369 . S
C1244 C1253 1.429 . S
C1245 C1243 1.419 . S
C1245 C1246 1.363 . S
C1245 H1248 0.929 . S
C1246 C1245 1.363 . S
C1246 C1252 1.428 . S
H1247 C1243 0.930 . S
H1248 C1245 0.929 . S
S1249 N1250 1.613 . S
S1249 N1251 1.610 . S
N1250 S1249 1.613 . S
N1250 C1253 1.350 . S
N1251 S1249 1.610 . S
N1251 C1252 1.351 . S
C1252 C1246 1.428 . S
C1252 N1251 1.351 . S
C1252 C1253 1.434 . S
C1253 C1244 1.429 . S
C1253 N1250 1.350 . S
C1253 C1252 1.434 . S
C1254 C1255 1.369 . S
C1254 C1256 1.419 . S
C1254 H1258 0.930 . S
C1255 C1254 1.369 . S
C1255 C1264 1.429 . S
C1256 C1254 1.419 . S
C1256 C1257 1.363 . S
C1256 H1259 0.929 . S
C1257 C1256 1.363 . S
C1257 C1263 1.428 . S
H1258 C1254 0.930 . S
H1259 C1256 0.929 . S
S1260 N1261 1.613 . S
S1260 N1262 1.610 . S
N1261 S1260 1.613 . S
N1261 C1264 1.350 . S
N1262 S1260 1.610 . S
N1262 C1263 1.351 . S
C1263 C1257 1.428 . S
C1263 N1262 1.351 . S
C1263 C1264 1.434 . S
C1264 C1255 1.429 . S
C1264 N1261 1.350 . S
C1264 C1263 1.434 . S
C1265 C1266 1.369 . S
C1265 C1267 1.419 . S
C1265 H1269 0.930 . S
C1266 C1265 1.369 . S
C1266 C1275 1.429 . S
C1267 C1265 1.419 . S
C1267 C1268 1.363 . S
C1267 H1270 0.929 . S
C1268 C1267 1.363 . S
C1268 C1274 1.428 . S
H1269 C1265 0.930 . S
H1270 C1267 0.929 . S
S1271 N1272 1.613 . S
S1271 N1273 1.610 . S
N1272 S1271 1.613 . S
N1272 C1275 1.350 . S
N1273 S1271 1.610 . S
N1273 C1274 1.351 . S
C1274 C1268 1.428 . S
C1274 N1273 1.351 . S
C1274 C1275 1.434 . S
C1275 C1266 1.429 . S
C1275 N1272 1.350 . S
C1275 C1274 1.434 . S
C1276 C1277 1.369 . S
C1276 C1278 1.419 . S
C1276 H1280 0.930 . S
C1277 C1276 1.369 . S
C1277 C1286 1.429 . S
C1278 C1276 1.419 . S
C1278 C1279 1.363 . S
C1278 H1281 0.929 . S
C1279 C1278 1.363 . S
C1279 C1285 1.428 . S
H1280 C1276 0.930 . S
H1281 C1278 0.929 . S
S1282 N1283 1.613 . S
S1282 N1284 1.610 . S
N1283 S1282 1.613 . S
N1283 C1286 1.350 . S
N1284 S1282 1.610 . S
N1284 C1285 1.351 . S
C1285 C1279 1.428 . S
C1285 N1284 1.351 . S
C1285 C1286 1.434 . S
C1286 C1277 1.429 . S
C1286 N1283 1.350 . S
C1286 C1285 1.434 . S
C1287 C1288 1.369 . S
C1287 C1289 1.419 . S
C1287 H1291 0.930 . S
C1288 C1287 1.369 . S
C1288 C1297 1.429 . S
C1289 C1287 1.419 . S
C1289 C1290 1.363 . S
C1289 H1292 0.929 . S
C1290 C1289 1.363 . S
C1290 C1296 1.428 . S
H1291 C1287 0.930 . S
H1292 C1289 0.929 . S
S1293 N1294 1.613 . S
S1293 N1295 1.610 . S
N1294 S1293 1.613 . S
N1294 C1297 1.350 . S
N1295 S1293 1.610 . S
N1295 C1296 1.351 . S
C1296 C1290 1.428 . S
C1296 N1295 1.351 . S
C1296 C1297 1.434 . S
C1297 C1288 1.429 . S
C1297 N1294 1.350 . S
C1297 C1296 1.434 . S
C1298 C1299 1.369 . S
C1298 C1300 1.419 . S
C1298 H1302 0.930 . S
C1299 C1298 1.369 . S
C1299 C1308 1.429 . S
C1300 C1298 1.419 . S
C1300 C1301 1.363 . S
C1300 H1303 0.929 . S
C1301 C1300 1.363 . S
C1301 C1307 1.428 . S
H1302 C1298 0.930 . S
H1303 C1300 0.929 . S
S1304 N1305 1.613 . S
S1304 N1306 1.610 . S
N1305 S1304 1.613 . S
N1305 C1308 1.350 . S
N1306 S1304 1.610 . S
N1306 C1307 1.351 . S
C1307 C1301 1.428 . S
C1307 N1306 1.351 . S
C1307 C1308 1.434 . S
C1308 C1299 1.429 . S
C1308 N1305 1.350 . S
C1308 C1307 1.434 . S
C1309 C1310 1.369 . S
C1309 C1311 1.419 . S
C1309 H1313 0.930 . S
C1310 C1309 1.369 . S
C1310 C1319 1.429 . S
C1311 C1309 1.419 . S
C1311 C1312 1.363 . S
C1311 H1314 0.929 . S
C1312 C1311 1.363 . S
C1312 C1318 1.428 . S
H1313 C1309 0.930 . S
H1314 C1311 0.929 . S
S1315 N1316 1.613 . S
S1315 N1317 1.610 . S
N1316 S1315 1.613 . S
N1316 C1319 1.350 . S
N1317 S1315 1.610 . S
N1317 C1318 1.351 . S
C1318 C1312 1.428 . S
C1318 N1317 1.351 . S
C1318 C1319 1.434 . S
C1319 C1310 1.429 . S
C1319 N1316 1.350 . S
C1319 C1318 1.434 . S
C529 C7 0.949 . S
C531 C159 0.949 . S
C540 C29 0.955 . S
C542 C95 0.952 . S
C551 C49 0.948 . S
C553 C119 0.951 . S
C562 C72 0.960 . S
C564 C139 0.960 . S
C573 C5 0.960 . S
C575 C183 0.960 . S
C584 C205 0.957 . S
C586 C27 0.958 . S
C595 C227 0.949 . S
C597 C51 0.949 . S
C606 C75 0.958 . S
C608 C251 0.959 . S
C617 C93 0.958 . S
C619 C203 0.955 . S
C628 C225 0.947 . S
C630 C116 0.950 . S
C639 C137 0.952 . S
C641 C248 0.955 . S
C650 C161 0.961 . S
C652 C181 0.959 . S
C661 C269 0.950 . S
C663 C469 0.950 . S
C672 C293 0.953 . S
C674 C493 0.951 . S
C683 C317 0.961 . S
C685 C515 0.960 . S
C694 C512 0.953 . S
C696 C335 0.951 . S
C705 C467 0.948 . S
C707 C357 0.949 . S
C716 C379 0.956 . S
C718 C424 0.953 . S
C727 C271 0.959 . S
C729 C359 0.959 . S
C738 C405 0.960 . S
C740 C291 0.956 . S
C749 C337 0.949 . S
C751 C314 0.949 . S
C760 C449 0.960 . S
C762 C381 0.957 . S
C771 C402 0.960 . S
C773 C490 0.960 . S
C782 C427 0.955 . S
C784 C446 0.952 . S
C793 C94 0.715 . S
C795 C6 0.724 . S
C804 C114 0.726 . S
C806 C28 0.717 . S
C815 C52 0.715 . S
C817 C138 0.724 . S
C826 C73 0.722 1_554 S
C828 C162 0.717 1_556 S
C837 C249 0.723 . S
C839 C182 0.723 . S
C848 C184 0.717 1_565 S
C850 C204 0.721 1_545 S
C859 C206 0.719 . S
C861 C226 0.724 . S
C870 C246 0.723 1_565 S
C872 C228 0.717 1_545 S
C881 C403 0.716 . S
C883 C160 0.725 . S
C892 C70 0.717 . S
C894 C272 0.725 . S
C903 C8 0.725 1_655 S
C905 C292 0.709 1_455 S
C914 C30 0.726 . S
C916 C312 0.719 . S
C925 C422 0.726 . S
C927 C117 0.719 . S
C936 C96 0.716 1_655 S
C938 C338 0.722 1_455 S
C947 C140 0.726 . S
C949 C360 0.718 . S
C958 C358 0.722 . S
C960 C382 0.723 . S
C969 C400 0.709 1_556 S
C971 C270 0.725 1_554 S
C980 C294 0.715 . S
C982 C336 0.723 . S
C991 C425 0.716 . S
C993 C315 0.722 . S
C1002 C444 0.719 . S
C1004 C513 0.724 . S
C1013 C447 0.726 . S
C1015 C468 0.717 . S
C1024 C488 0.719 . S
C1026 C470 0.720 . S
C1035 C510 0.726 . S
C1037 C491 0.718 . S
C1046 C380 0.722 . S
C1048 C50 0.718 . S
C1057 C4 2.263 . S
C1059 C202 2.270 . S
C1068 C26 2.271 . S
C1070 C224 2.264 . S
C1079 C53 2.271 . S
C1081 C247 2.265 . S
C1090 C180 2.270 . S
C1092 C74 2.265 . S
C1101 C92 2.271 . S
C1103 C185 2.265 . S
C1112 C207 2.263 . S
C1114 C115 2.271 . S
C1123 C229 2.267 . S
C1125 C136 2.265 . S
C1134 C163 2.270 . S
C1136 C250 2.265 . S
C1145 C158 2.265 . S
C1147 C290 2.268 . S
C1156 C141 2.267 . S
C1158 C273 2.265 . S
C1167 C97 2.263 . S
C1169 C313 2.271 . S
C1178 C404 2.265 . S
C1180 C9 2.268 . S
C1189 C378 2.270 . S
C1191 C118 2.267 . S
C1200 C31 2.266 . S
C1202 C339 2.266 . S
C1211 C71 2.272 . S
C1213 C361 2.264 . S
C1222 C466 2.270 . S
C1224 C383 2.267 . S
C1233 C489 2.264 . S
C1235 C268 2.268 . S
C1244 C511 2.272 . S
C1246 C295 2.265 . S
C1255 C445 2.264 . S
C1257 C316 2.271 . S
C1266 C448 2.271 . S
C1268 C356 2.267 . S
C1277 C401 2.272 . S
C1279 C471 2.265 . S
C1288 C492 2.265 . S
C1290 C334 2.267 . S
C1299 C426 2.263 . S
C1301 C514 2.271 . S
C1310 C48 2.263 . S
C1312 C423 2.270 . S
