# Generated by pormake.
# Topology cag, (4)-cn, num edge types: 1
# Building blocks:
#     Node 0, Type 0, BuildingBlock: KUFVIS_clean_sbu_0, # of connection points: 4
#     Node 1, Type 0, BuildingBlock: KUFVIS_clean_sbu_0, # of connection points: 4
#     Node 2, Type 0, BuildingBlock: KUFVIS_clean_sbu_0, # of connection points: 4
#     Node 3, Type 0, BuildingBlock: KUFVIS_clean_sbu_0, # of connection points: 4
#     Node 4, Type 0, BuildingBlock: KUFVIS_clean_sbu_0, # of connection points: 4
#     Node 5, Type 0, BuildingBlock: KUFVIS_clean_sbu_0, # of connection points: 4
#     Node 6, Type 0, BuildingBlock: KUFVIS_clean_sbu_0, # of connection points: 4
#     Node 7, Type 0, BuildingBlock: KUFVIS_clean_sbu_0, # of connection points: 4
#     Node 8, Type 0, BuildingBlock: KUFVIS_clean_sbu_0, # of connection points: 4
#     Node 9, Type 0, BuildingBlock: KUFVIS_clean_sbu_0, # of connection points: 4
#     Node 10, Type 0, BuildingBlock: KUFVIS_clean_sbu_0, # of connection points: 4
#     Node 11, Type 0, BuildingBlock: KUFVIS_clean_sbu_0, # of connection points: 4
#     Node 12, Type 0, BuildingBlock: KUFVIS_clean_sbu_0, # of connection points: 4
#     Node 13, Type 0, BuildingBlock: KUFVIS_clean_sbu_0, # of connection points: 4
#     Node 14, Type 0, BuildingBlock: KUFVIS_clean_sbu_0, # of connection points: 4
#     Node 15, Type 0, BuildingBlock: KUFVIS_clean_sbu_0, # of connection points: 4
#     Edge 16, Type (0, 0), BuildingBlock: XUDNAN_clean_linker_2, # of connection points: 2
#     Edge 17, Type (0, 0), BuildingBlock: XUDNAN_clean_linker_2, # of connection points: 2
#     Edge 18, Type (0, 0), BuildingBlock: XUDNAN_clean_linker_2, # of connection points: 2
#     Edge 19, Type (0, 0), BuildingBlock: XUDNAN_clean_linker_2, # of connection points: 2
#     Edge 20, Type (0, 0), BuildingBlock: XUDNAN_clean_linker_2, # of connection points: 2
#     Edge 21, Type (0, 0), BuildingBlock: XUDNAN_clean_linker_2, # of connection points: 2
#     Edge 22, Type (0, 0), BuildingBlock: XUDNAN_clean_linker_2, # of connection points: 2
#     Edge 23, Type (0, 0), BuildingBlock: XUDNAN_clean_linker_2, # of connection points: 2
#     Edge 24, Type (0, 0), BuildingBlock: XUDNAN_clean_linker_2, # of connection points: 2
#     Edge 25, Type (0, 0), BuildingBlock: XUDNAN_clean_linker_2, # of connection points: 2
#     Edge 26, Type (0, 0), BuildingBlock: XUDNAN_clean_linker_2, # of connection points: 2
#     Edge 27, Type (0, 0), BuildingBlock: XUDNAN_clean_linker_2, # of connection points: 2
#     Edge 28, Type (0, 0), BuildingBlock: XUDNAN_clean_linker_2, # of connection points: 2
#     Edge 29, Type (0, 0), BuildingBlock: XUDNAN_clean_linker_2, # of connection points: 2
#     Edge 30, Type (0, 0), BuildingBlock: XUDNAN_clean_linker_2, # of connection points: 2
#     Edge 31, Type (0, 0), BuildingBlock: XUDNAN_clean_linker_2, # of connection points: 2
#     Edge 32, Type (0, 0), BuildingBlock: XUDNAN_clean_linker_2, # of connection points: 2
#     Edge 33, Type (0, 0), BuildingBlock: XUDNAN_clean_linker_2, # of connection points: 2
#     Edge 34, Type (0, 0), BuildingBlock: XUDNAN_clean_linker_2, # of connection points: 2
#     Edge 35, Type (0, 0), BuildingBlock: XUDNAN_clean_linker_2, # of connection points: 2
#     Edge 36, Type (0, 0), BuildingBlock: XUDNAN_clean_linker_2, # of connection points: 2
#     Edge 37, Type (0, 0), BuildingBlock: XUDNAN_clean_linker_2, # of connection points: 2
#     Edge 38, Type (0, 0), BuildingBlock: XUDNAN_clean_linker_2, # of connection points: 2
#     Edge 39, Type (0, 0), BuildingBlock: XUDNAN_clean_linker_2, # of connection points: 2
#     Edge 40, Type (0, 0), BuildingBlock: XUDNAN_clean_linker_2, # of connection points: 2
#     Edge 41, Type (0, 0), BuildingBlock: XUDNAN_clean_linker_2, # of connection points: 2
#     Edge 42, Type (0, 0), BuildingBlock: XUDNAN_clean_linker_2, # of connection points: 2
#     Edge 43, Type (0, 0), BuildingBlock: XUDNAN_clean_linker_2, # of connection points: 2
#     Edge 44, Type (0, 0), BuildingBlock: XUDNAN_clean_linker_2, # of connection points: 2
#     Edge 45, Type (0, 0), BuildingBlock: XUDNAN_clean_linker_2, # of connection points: 2
#     Edge 46, Type (0, 0), BuildingBlock: XUDNAN_clean_linker_2, # of connection points: 2
#     Edge 47, Type (0, 0), BuildingBlock: XUDNAN_clean_linker_2, # of connection points: 2
# Relax obj value: 0.083
# Max RMSD: 0.120
# Mean RMSD: 0.116
data_MOF--net-cag--node1-KUFVIS_clean_sbu_0--edge1-XUDNAN_clean_linker_2
_symmetry_space_group_name_H-M    P1
_symmetry_Int_Tables_number       1
_symmetry_cell_setting            triclinic
loop_
_symmetry_equiv_pos_as_xyz
'x, y, z'
_cell_length_a     41.432483
_cell_length_b     49.608393
_cell_length_c     41.266016
_cell_angle_alpha  89.975949
_cell_angle_beta   90.025436
_cell_angle_gamma 90.100612
loop_
_atom_site_label
_atom_site_type_symbol
_atom_site_fract_x
_atom_site_fract_y
_atom_site_fract_z
_atom_type_partial_charge
Mn0 Mn 0.3461 0.14693 0.09423 0.0
Mn1 Mn 0.37833 0.18617 0.15318 0.0
C2 C 0.40202 0.15352 0.09776 0.0
C3 C 0.32991 0.10661 0.06866 0.0
C4 C 0.34538 0.20922 0.09403 0.0
O5 O 0.30928 0.14759 0.1285 0.0
O6 O 0.33405 0.17519 0.1643 0.0
C7 C 0.38097 0.14511 0.20535 0.0
N8 N 0.39609 0.1637 0.18633 0.0
C9 C 0.44679 0.15594 0.21318 0.0
C10 C 0.43174 0.13682 0.23315 0.0
C11 C 0.39869 0.13136 0.22917 0.0
C12 C 0.42783 0.16915 0.19001 0.0
H13 H 0.3556 0.1408 0.20239 0.0
C14 C 0.31011 0.16075 0.15533 0.0
O15 O 0.31872 0.12995 0.06037 0.0
O16 O 0.3485 0.10616 0.09408 0.0
N17 N 0.42152 0.19792 0.14589 0.0
C18 C 0.43265 0.21578 0.12343 0.0
C19 C 0.46543 0.22271 0.12334 0.0
C20 C 0.48625 0.2112 0.14632 0.0
C21 C 0.47418 0.19337 0.16961 0.0
C22 C 0.44124 0.18739 0.1687 0.0
H23 H 0.4167 0.22446 0.10557 0.0
O24 O 0.38858 0.1476 0.07028 0.0
O25 O 0.38244 0.15614 0.12215 0.0
O26 O 0.33765 0.18648 0.08204 0.0
O27 O 0.36122 0.21174 0.12035 0.0
C28 C 0.4937 0.18069 0.19306 0.0
C29 C 0.48 0.162 0.21487 0.0
H30 H 0.44537 0.12604 0.25142 0.0
H31 H 0.38691 0.11655 0.24441 0.0
H32 H 0.4747 0.23663 0.10541 0.0
H33 H 0.51156 0.21569 0.14547 0.0
H34 H 0.51936 0.18479 0.19416 0.0
H35 H 0.4953 0.15207 0.23248 0.0
Mn36 Mn 0.16126 0.89206 0.59396 0.0
Mn37 Mn 0.13317 0.84933 0.6515 0.0
C38 C 0.10833 0.87588 0.59174 0.0
C39 C 0.17178 0.93449 0.57002 0.0
C40 C 0.17494 0.83065 0.59611 0.0
O41 O 0.19329 0.89846 0.63132 0.0
O42 O 0.1739 0.86685 0.66531 0.0
C43 C 0.11859 0.88979 0.70217 0.0
N44 N 0.10908 0.86876 0.6832 0.0
C45 C 0.06103 0.86219 0.71488 0.0
C46 C 0.07019 0.88384 0.73472 0.0
C47 C 0.09889 0.89793 0.72806 0.0
C48 C 0.08086 0.85585 0.68853 0.0
H49 H 0.14123 0.89998 0.69789 0.0
C50 C 0.19431 0.88519 0.65789 0.0
O51 O 0.18852 0.91325 0.56316 0.0
O52 O 0.14939 0.93158 0.59181 0.0
N53 N 0.09386 0.83046 0.64299 0.0
C54 C 0.08839 0.81029 0.62126 0.0
C55 C 0.06051 0.79439 0.62422 0.0
C56 C 0.03925 0.7987 0.65019 0.0
C57 C 0.04535 0.81958 0.67226 0.0
C58 C 0.07294 0.83536 0.66741 0.0
H59 H 0.10551 0.80607 0.6022 0.0
O60 O 0.12336 0.88378 0.56578 0.0
O61 O 0.12454 0.87746 0.6187 0.0
O62 O 0.18029 0.85419 0.58474 0.0
O63 O 0.15691 0.82659 0.6206 0.0
C64 C 0.02579 0.82478 0.69949 0.0
C65 C 0.0334 0.84628 0.72056 0.0
H66 H 0.05549 0.8897 0.75523 0.0
H67 H 0.10621 0.91458 0.74335 0.0
H68 H 0.05597 0.77824 0.60717 0.0
H69 H 0.01864 0.78552 0.65327 0.0
H70 H 1.00464 0.81257 0.70431 0.0
H71 H 0.01786 0.85038 0.74107 0.0
Mn72 Mn 0.35354 0.89475 0.92221 0.0
Mn73 Mn 0.38208 0.84927 0.86819 0.0
C74 C 0.40679 0.87967 0.92553 0.0
C75 C 0.34329 0.93862 0.94112 0.0
C76 C 0.33923 0.83372 0.92465 0.0
O77 O 0.32087 0.89788 0.88473 0.0
O78 O 0.34289 0.86717 0.85115 0.0
C79 C 0.40096 0.88606 0.81494 0.0
N80 N 0.40863 0.86617 0.83633 0.0
C81 C 0.4584 0.85695 0.80857 0.0
C82 C 0.45118 0.87744 0.7863 0.0
C83 C 0.42252 0.89228 0.78975 0.0
C84 C 0.4367 0.8525 0.83398 0.0
H85 H 0.37838 0.89678 0.81683 0.0
C86 C 0.32155 0.8849 0.85791 0.0
O87 O 0.32732 0.91798 0.95175 0.0
O88 O 0.36441 0.93414 0.9185 0.0
N89 N 0.42006 0.83016 0.88064 0.0
C90 C 0.42367 0.81158 0.90468 0.0
C91 C 0.45125 0.79522 0.90513 0.0
C92 C 0.47425 0.79754 0.8803 0.0
C93 C 0.47014 0.81699 0.85594 0.0
C94 C 0.44265 0.83326 0.85733 0.0
H95 H 0.40534 0.80891 0.923 0.0
O96 O 0.39194 0.88934 0.95063 0.0
O97 O 0.39024 0.87906 0.89873 0.0
O98 O 0.33562 0.8575 0.93582 0.0
O99 O 0.35581 0.82879 0.8994 0.0
C100 C 0.49169 0.82034 0.8298 0.0
C101 C 0.48599 0.84048 0.80631 0.0
H102 H 0.46738 0.88185 0.76639 0.0
H103 H 0.4167 0.90804 0.77257 0.0
H104 H 0.45431 0.78029 0.92402 0.0
H105 H 0.49479 0.78408 0.88007 0.0
H106 H 0.51287 0.80771 0.82764 0.0
H107 H 0.50302 0.84317 0.78666 0.0
Mn108 Mn 0.15723 0.14423 0.41954 0.0
Mn109 Mn 0.12266 0.18811 0.36721 0.0
C110 C 0.10154 0.15313 0.42122 0.0
C111 C 0.17257 0.10138 0.43903 0.0
C112 C 0.1617 0.20652 0.42506 0.0
O113 O 0.19109 0.14542 0.38216 0.0
O114 O 0.16566 0.17702 0.35232 0.0
C115 C 0.11526 0.15025 0.3121 0.0
N116 N 0.10205 0.16805 0.33344 0.0
C117 C 0.04961 0.163 0.30912 0.0
C118 C 0.06267 0.14473 0.2868 0.0
C119 C 0.09563 0.13829 0.28835 0.0
C120 C 0.07039 0.17435 0.33218 0.0
H121 H 0.14055 0.14518 0.31315 0.0
C122 C 0.18937 0.16117 0.35745 0.0
O123 O 0.18643 0.12333 0.44882 0.0
O124 O 0.15117 0.10395 0.41621 0.0
N125 N 0.08042 0.20029 0.37813 0.0
C126 C 0.07139 0.21731 0.40235 0.0
C127 C 0.03904 0.22532 0.40461 0.0
C128 C 0.0165 0.21577 0.38192 0.0
C129 C 0.0264 0.19863 0.35696 0.0
C130 C 0.059 0.19159 0.3557 0.0
H131 H 0.08871 0.22462 0.41983 0.0
O132 O 0.11668 0.14521 0.44705 0.0
O133 O 0.11946 0.15656 0.39579 0.0
O134 O 0.16992 0.18279 0.43373 0.0
O135 O 0.14289 0.21091 0.40109 0.0
C136 C 1.00507 0.18781 0.33372 0.0
C137 C 0.01667 0.16999 0.30982 0.0
H138 H 0.04757 0.13537 0.26855 0.0
H139 H 0.10588 0.12412 0.27129 0.0
H140 H 0.03145 0.23866 0.42389 0.0
H141 H 0.99157 0.22137 0.38409 0.0
H142 H 0.97963 0.19269 0.33431 0.0
H143 H 0.99998 0.16149 0.29236 0.0
Mn144 Mn 0.69986 0.88995 0.92382 0.0
Mn145 Mn 0.66834 0.82693 0.92324 0.0
C146 C 0.64417 0.88343 0.91994 0.0
C147 C 0.71529 0.93081 0.94804 0.0
C148 C 0.70357 0.85138 0.86566 0.0
O149 O 0.73654 0.86708 0.9439 0.0
O150 O 0.71151 0.82642 0.94359 0.0
C151 C 0.66054 0.81731 0.99367 0.0
N152 N 0.64755 0.81873 0.96339 0.0
C153 C 0.59546 0.80489 0.98317 0.0
C154 C 0.6083 0.80319 0.01455 0.0
C155 C 0.64097 0.80947 0.01982 0.0
C156 C 0.61622 0.81255 0.95801 0.0
H157 H 0.68563 0.82209 0.99782 0.0
C158 C 0.73546 0.84174 0.95034 0.0
O159 O 0.72672 0.92308 0.92035 0.0
O160 O 0.69686 0.91374 0.9632 0.0
N161 N 0.62629 0.82486 0.90453 0.0
C162 C 0.61711 0.83001 0.87345 0.0
C163 C 0.58474 0.82638 0.86455 0.0
C164 C 0.56233 0.81735 0.88765 0.0
C165 C 0.57237 0.81189 0.91936 0.0
C166 C 0.60494 0.81586 0.92683 0.0
H167 H 0.63429 0.83712 0.85572 0.0
O168 O 0.65743 0.90521 0.90869 0.0
O169 O 0.6639 0.86575 0.9321 0.0
O170 O 0.70905 0.8742 0.87866 0.0
O171 O 0.68869 0.83247 0.88039 0.0
C172 C 0.55113 0.80358 0.94411 0.0
C173 C 0.56269 0.8 0.97599 0.0
H174 H 0.59322 0.79738 0.03483 0.0
H175 H 0.65104 0.80829 0.04398 0.0
H176 H 0.57699 0.83074 0.84005 0.0
H177 H 0.53737 0.81526 0.88098 0.0
H178 H 0.52574 0.80045 0.93903 0.0
H179 H 0.54604 0.79409 0.99494 0.0
Mn180 Mn 0.81282 0.14234 0.44346 0.0
Mn181 Mn 0.83392 0.20496 0.41961 0.0
C182 C 0.86396 0.1506 0.42241 0.0
C183 C 0.80962 0.10624 0.47988 0.0
C184 C 0.79354 0.16807 0.37806 0.0
O185 O 0.77913 0.16543 0.46698 0.0
O186 O 0.79375 0.20549 0.44575 0.0
C187 C 0.84917 0.22603 0.48504 0.0
N188 N 0.8581 0.22135 0.45378 0.0
C189 C 0.90768 0.24585 0.46105 0.0
C190 C 0.89905 0.25095 0.49332 0.0
C191 C 0.86979 0.24077 0.50545 0.0
C192 C 0.88668 0.23023 0.44221 0.0
H193 H 0.8264 0.21875 0.49429 0.0
C194 C 0.77535 0.19081 0.46331 0.0
O195 O 0.79029 0.10807 0.45528 0.0
O196 O 0.82908 0.12639 0.48479 0.0
N197 N 0.87235 0.20843 0.39437 0.0
C198 C 0.87707 0.20166 0.36273 0.0
C199 C 0.905 0.21061 0.34674 0.0
C200 C 0.92724 0.22707 0.36314 0.0
C201 C 0.92193 0.23372 0.39574 0.0
C202 C 0.894 0.22376 0.41059 0.0
H203 H 0.85942 0.18988 0.34966 0.0
O204 O 0.85105 0.1268 0.42101 0.0
O205 O 0.84656 0.16926 0.43601 0.0
O206 O 0.79129 0.14956 0.39942 0.0
O207 O 0.80967 0.1897 0.38251 0.0
C208 C 0.94271 0.25051 0.41383 0.0
C209 C 0.93591 0.25615 0.44661 0.0
H210 H 0.91461 0.26278 0.50893 0.0
H211 H 0.86291 0.24465 0.53031 0.0
H212 H 0.90896 0.20542 0.32159 0.0
H213 H 0.94811 0.23473 0.35031 0.0
H214 H 0.96404 0.25921 0.40284 0.0
H215 H 0.95236 0.26869 0.46038 0.0
Mn216 Mn 0.69287 0.14419 0.08759 0.0
Mn217 Mn 0.66672 0.20531 0.11267 0.0
C218 C 0.63956 0.14998 0.10432 0.0
C219 C 0.70295 0.10997 0.04986 0.0
C220 C 0.70628 0.16842 0.15518 0.0
O221 O 0.72754 0.1696 0.06869 0.0
O222 O 0.70733 0.20857 0.08793 0.0
C223 C 0.65207 0.22815 0.048 0.0
N224 N 0.64263 0.22201 0.07875 0.0
C225 C 0.59319 0.24669 0.0724 0.0
C226 C 0.60226 0.25326 0.04062 0.0
C227 C 0.63168 0.24367 0.02825 0.0
C228 C 0.61384 0.23018 0.09042 0.0
H229 H 0.6751 0.22148 0.03877 0.0
C230 C 0.7284 0.19525 0.07204 0.0
O231 O 0.71818 0.11132 0.07717 0.0
O232 O 0.6828 0.12932 0.04337 0.0
N233 N 0.6275 0.20618 0.13689 0.0
C234 C 0.62233 0.19785 0.16792 0.0
C235 C 0.59426 0.20603 0.18416 0.0
C236 C 0.57239 0.22338 0.16871 0.0
C237 C 0.57808 0.23153 0.13664 0.0
C238 C 0.60606 0.22219 0.12144 0.0
H239 H 0.63982 0.18552 0.18042 0.0
O240 O 0.65324 0.12649 0.10504 0.0
O241 O 0.65725 0.16974 0.09351 0.0
O242 O 0.70945 0.15002 0.13391 0.0
O243 O 0.69077 0.19016 0.14995 0.0
C244 C 0.55766 0.24925 0.1195 0.0
C245 C 0.56488 0.25641 0.08721 0.0
H246 H 0.58695 0.26579 0.0256 0.0
H247 H 0.63892 0.24872 1.00379 0.0
H248 H 0.58998 0.19965 0.20887 0.0
H249 H 0.55147 0.2305 0.18186 0.0
H250 H 0.53621 0.25739 0.1308 0.0
H251 H 0.54868 0.26962 0.07411 0.0
Mn252 Mn 0.81651 0.8792 0.58674 0.0
Mn253 Mn 0.84386 0.81584 0.5982 0.0
C254 C 0.87072 0.87134 0.59875 0.0
C255 C 0.80926 0.91822 0.55563 0.0
C256 C 0.80212 0.84513 0.64731 0.0
O257 O 0.78214 0.85622 0.56306 0.0
O258 O 0.80378 0.81505 0.57209 0.0
C259 C 0.86027 0.80034 0.53092 0.0
N260 N 0.8694 0.80424 0.56229 0.0
C261 C 0.92347 0.78943 0.5508 0.0
C262 C 0.91463 0.78521 0.5184 0.0
C263 C 0.88289 0.7907 0.50842 0.0
C264 C 0.89976 0.79872 0.57224 0.0
H265 H 0.83592 0.80456 0.5231 0.0
C266 C 0.78217 0.83043 0.55972 0.0
O267 O 0.79214 0.91382 0.58142 0.0
O268 O 0.82819 0.89893 0.54634 0.0
N269 N 0.88308 0.81462 0.62257 0.0
C270 C 0.88842 0.82231 0.6538 0.0
C271 C 0.91946 0.81972 0.66704 0.0
C272 C 0.94457 0.8092 0.64806 0.0
C273 C 0.93854 0.8015 0.61595 0.0
C274 C 0.90709 0.80443 0.60411 0.0
H275 H 0.86921 0.83062 0.66835 0.0
O276 O 0.85737 0.89406 0.60656 0.0
O277 O 0.85146 0.85351 0.58624 0.0
O278 O 0.79941 0.8671 0.63148 0.0
O279 O 0.81823 0.82504 0.63692 0.0
C280 C 0.96265 0.79174 0.59494 0.0
C281 C 0.9551 0.7856 0.56245 0.0
H282 H 0.93211 0.77808 0.50089 0.0
H283 H 0.87591 0.78758 0.48343 0.0
H284 H 0.92409 0.82593 0.69174 0.0
H285 H 0.96844 0.80748 0.65828 0.0
H286 H 0.98721 0.78934 0.60329 0.0
H287 H 0.97398 0.77855 0.54642 0.0
Mn288 Mn 0.854 0.64188 0.09146 0.0
Mn289 Mn 0.87182 0.69329 0.14241 0.0
C290 C 0.9064 0.65877 0.09505 0.0
C291 C 0.85097 0.59651 0.07521 0.0
C292 C 0.83509 0.7012 0.07978 0.0
O293 O 0.81765 0.63943 0.12582 0.0
O294 O 0.83288 0.67418 0.15805 0.0
C295 C 0.88832 0.66318 0.2022 0.0
N296 N 0.89681 0.68081 0.17835 0.0
C297 C 0.94907 0.68791 0.20241 0.0
C298 C 0.94087 0.66985 0.22724 0.0
C299 C 0.91037 0.65743 0.22711 0.0
C300 C 0.926 0.69306 0.1784 0.0
H301 H 0.86494 0.65355 0.20223 0.0
C302 C 0.81451 0.65411 0.15135 0.0
O303 O 0.8335 0.61498 0.0617 0.0
O304 O 0.86816 0.60389 0.10004 0.0
N305 N 0.90979 0.71245 0.12969 0.0
C306 C 0.91487 0.72756 0.10257 0.0
C307 C 0.94463 0.74056 0.09829 0.0
C308 C 0.96879 0.73788 0.12189 0.0
C309 C 0.96318 0.72197 0.14941 0.0
C310 C 0.93291 0.70972 0.15254 0.0
H311 H 0.89642 0.7296 0.08426 0.0
O312 O 0.89647 0.64747 0.06846 0.0
O313 O 0.88488 0.66125 0.11763 0.0
O314 O 0.83584 0.67656 0.07118 0.0
O315 O 0.84677 0.70949 0.10652 0.0
C316 C 0.9866 0.71736 0.17351 0.0
C317 C 0.97956 0.70039 0.20003 0.0
H318 H 0.95792 0.66516 0.24632 0.0
H319 H 0.90389 0.64341 0.24613 0.0
H320 H 0.94898 0.75259 0.07685 0.0
H321 H 0.9916 0.74797 0.11839 0.0
H322 H 0.01026 0.72638 0.17162 0.0
H323 H 0.99797 0.69669 0.21813 0.0
Mn324 Mn 0.65473 0.38855 0.60068 0.0
Mn325 Mn 0.6324 0.34048 0.65432 0.0
C326 C 0.60047 0.37629 0.60558 0.0
C327 C 0.66561 0.43257 0.58297 0.0
C328 C 0.66734 0.32808 0.59179 0.0
O329 O 0.69262 0.38785 0.63359 0.0
O330 O 0.67291 0.35752 0.66957 0.0
C331 C 0.61777 0.37345 0.71229 0.0
N332 N 0.60816 0.35544 0.68932 0.0
C333 C 0.55532 0.35187 0.71314 0.0
C334 C 0.56467 0.37032 0.73712 0.0
C335 C 0.59602 0.38118 0.73667 0.0
C336 C 0.57812 0.34476 0.68964 0.0
H337 H 0.64183 0.38187 0.71199 0.0
C338 C 0.69413 0.37477 0.6605 0.0
O339 O 0.67807 0.4117 0.56906 0.0
O340 O 0.64797 0.42822 0.60854 0.0
N341 N 0.59313 0.32313 0.64197 0.0
C342 C 0.58715 0.30747 0.61551 0.0
C343 C 0.55656 0.29584 0.61157 0.0
C344 C 0.53254 0.30043 0.63484 0.0
C345 C 0.53912 0.31685 0.66168 0.0
C346 C 0.57016 0.32768 0.66451 0.0
H347 H 0.6055 0.30392 0.59748 0.0
O348 O 0.61126 0.38675 0.57884 0.0
O349 O 0.62191 0.37271 0.62821 0.0
O350 O 0.66702 0.35212 0.58124 0.0
O351 O 0.65664 0.32159 0.61963 0.0
C352 C 0.51594 0.32336 0.68534 0.0
C353 C 0.52401 0.34083 0.71108 0.0
H354 H 0.54788 0.37652 0.75579 0.0
H355 H 0.60337 0.39551 0.75502 0.0
H356 H 0.55147 0.28339 0.59064 0.0
H357 H 0.50911 0.2914 0.63158 0.0
H358 H 0.49173 0.31539 0.68363 0.0
H359 H 0.5058 0.34602 0.72883 0.0
Mn360 Mn 0.85697 0.38862 0.923 0.0
Mn361 Mn 0.87802 0.33452 0.878 0.0
C362 C 0.90686 0.36795 0.93025 0.0
C363 C 0.85531 0.43449 0.93714 0.0
C364 C 0.83262 0.33069 0.935 0.0
O365 O 0.82645 0.39181 0.88365 0.0
O366 O 0.84215 0.35445 0.85666 0.0
C367 C 0.9037 0.36258 0.82004 0.0
N368 N 0.90793 0.34505 0.84509 0.0
C369 C 0.96006 0.33185 0.82499 0.0
C370 C 0.95628 0.34975 0.79895 0.0
C371 C 0.92809 0.36535 0.79664 0.0
C372 C 0.93533 0.33048 0.84801 0.0
H373 H 0.8818 0.37418 0.81779 0.0
C374 C 0.82466 0.37564 0.85942 0.0
O375 O 0.83419 0.41745 0.94793 0.0
O376 O 0.87572 0.42545 0.91585 0.0
N377 N 0.91271 0.31373 0.89551 0.0
C378 C 0.91303 0.29804 0.92263 0.0
C379 C 0.93997 0.28179 0.9291 0.0
C380 C 0.96592 0.28137 0.90725 0.0
C381 C 0.96496 0.29761 0.87945 0.0
C382 C 0.93781 0.31385 0.87465 0.0
H383 H 0.89287 0.29783 0.93919 0.0
O384 O 0.89338 0.38133 0.95361 0.0
O385 O 0.89053 0.36648 0.90342 0.0
O386 O 0.83268 0.35585 0.9411 0.0
O387 O 0.84811 0.32047 0.91139 0.0
C388 C 0.98957 0.2979 0.85597 0.0
C389 C 0.98723 0.3151 0.82882 0.0
H390 H 0.97484 0.35166 0.78061 0.0
H391 H 0.92499 0.3792 0.77662 0.0
H392 H 0.94051 0.2693 0.9506 0.0
H393 H 0.98632 0.26834 0.91198 0.0
H394 H 0.01025 0.28478 0.85848 0.0
H395 H 0.00654 0.31537 0.81113 0.0
Mn396 Mn 0.66621 0.63638 0.42133 0.0
Mn397 Mn 0.63397 0.67672 0.36363 0.0
C398 C 0.61094 0.64509 0.42028 0.0
C399 C 0.68071 0.59618 0.44778 0.0
C400 C 0.67206 0.69848 0.42022 0.0
O401 O 0.70023 0.63411 0.38468 0.0
O402 O 0.67661 0.66314 0.34962 0.0
C403 C 0.62433 0.63652 0.31135 0.0
N404 N 0.61213 0.65562 0.33162 0.0
C405 C 0.55928 0.65133 0.30792 0.0
C406 C 0.5713 0.63169 0.2867 0.0
C407 C 0.60396 0.62424 0.28847 0.0
C408 C 0.58081 0.66307 0.32998 0.0
H409 H 0.64939 0.63069 0.31258 0.0
C410 C 0.69937 0.64701 0.35763 0.0
O411 O 0.69425 0.61907 0.45418 0.0
O412 O 0.66071 0.59587 0.42344 0.0
N413 N 0.59239 0.69063 0.37411 0.0
C414 C 0.58407 0.70791 0.39833 0.0
C415 C 0.55185 0.716 0.4014 0.0
C416 C 0.5287 0.70632 0.37945 0.0
C417 C 0.53788 0.68898 0.35438 0.0
C418 C 0.57035 0.68158 0.35253 0.0
H419 H 0.60179 0.71512 0.41547 0.0
O420 O 0.62532 0.63963 0.44744 0.0
O421 O 0.62946 0.64678 0.39495 0.0
O422 O 0.67874 0.67541 0.43179 0.0
O423 O 0.65502 0.70145 0.39481 0.0
C424 C 0.51587 0.67792 0.33197 0.0
C425 C 0.52659 0.65916 0.30866 0.0
H426 H 0.55561 0.622 0.26922 0.0
H427 H 0.61339 0.60902 0.27227 0.0
H428 H 0.54477 0.72935 0.42086 0.0
H429 H 0.50382 0.71168 0.38262 0.0
H430 H 0.49054 0.68324 0.33291 0.0
H431 H 0.50936 0.65041 0.29194 0.0
Mn432 Mn 0.19601 0.39268 0.94355 0.0
Mn433 Mn 0.1786 0.32745 0.9266 0.0
C434 C 0.14321 0.37953 0.93133 0.0
C435 C 0.20117 0.43131 0.97623 0.0
C436 C 0.21325 0.36443 0.87959 0.0
O437 O 0.23438 0.3721 0.96396 0.0
O438 O 0.21819 0.3292 0.95377 0.0
C439 C 0.16309 0.30642 0.99203 0.0
N440 N 0.15422 0.31117 0.96078 0.0
C441 C 0.10254 0.29006 0.9693 0.0
C442 C 0.11116 0.28496 1.00158 0.0
C443 C 0.14157 0.29319 0.01298 0.0
C444 C 0.12509 0.30315 0.94949 0.0
H445 H 0.18638 0.31266 1.00087 0.0
C446 C 0.2376 0.3464 0.96645 0.0
O447 O 0.21657 0.42868 0.94919 0.0
O448 O 0.18436 0.41061 0.98577 0.0
N449 N 0.14034 0.32359 0.9011 0.0
C450 C 0.13484 0.33187 0.87009 0.0
C451 C 0.10519 0.32593 0.85531 0.0
C452 C 0.08159 0.31155 0.87252 0.0
C453 C 0.08762 0.30352 0.90451 0.0
C454 C 0.11775 0.30976 0.91788 0.0
H455 H 0.15286 0.34296 0.85671 0.0
O456 O 0.15265 0.40413 0.92619 0.0
O457 O 0.16515 0.36326 0.94234 0.0
O458 O 0.21192 0.38511 0.89769 0.0
O459 O 0.20296 0.34139 0.88858 0.0
C460 C 0.06474 0.28997 0.92383 0.0
C461 C 0.07217 0.28325 0.9562 0.0
H462 H 0.09453 0.27494 0.01788 0.0
H463 H 0.14841 0.28936 0.03788 0.0
H464 H 0.10053 0.33242 0.8307 0.0
H465 H 0.0589 0.307 0.86092 0.0
H466 H 0.04122 0.28499 0.91416 0.0
H467 H 0.05419 0.27318 0.97095 0.0
Mn468 Mn 0.32005 0.64672 0.43295 0.0
Mn469 Mn 0.35385 0.70852 0.42508 0.0
C470 C 0.37371 0.65118 0.41644 0.0
C471 C 0.30667 0.60679 0.4608 0.0
C472 C 0.30833 0.68467 0.37523 0.0
O473 O 0.28925 0.6707 0.45977 0.0
O474 O 0.3151 0.71023 0.45287 0.0
C475 C 0.37454 0.71835 0.49271 0.0
N476 N 0.38163 0.71686 0.46055 0.0
C477 C 0.43275 0.73884 0.46859 0.0
C478 C 0.4262 0.74044 0.50188 0.0
C479 C 0.39713 0.72983 0.51404 0.0
C480 C 0.41003 0.726 0.4488 0.0
H481 H 0.35162 0.71125 0.50184 0.0
C482 C 0.29211 0.69613 0.46473 0.0
O483 O 0.29053 0.6151 0.43587 0.0
O484 O 0.32969 0.62247 0.47102 0.0
N485 N 0.39162 0.71077 0.39882 0.0
C486 C 0.39423 0.70723 0.36618 0.0
C487 C 0.42175 0.71679 0.35004 0.0
C488 C 0.44573 0.73061 0.36744 0.0
C489 C 0.44273 0.73365 0.40113 0.0
C490 C 0.41518 0.72304 0.416 0.0
H491 H 0.37508 0.69782 0.35248 0.0
O492 O 0.35688 0.62988 0.40936 0.0
O493 O 0.35886 0.66959 0.43316 0.0
O494 O 0.30304 0.66252 0.38993 0.0
O495 O 0.32652 0.70298 0.38677 0.0
C496 C 0.46546 0.7475 0.42039 0.0
C497 C 0.46064 0.74986 0.45414 0.0
H498 H 0.4432 0.74991 0.51827 0.0
H499 H 0.3918 0.73115 0.53966 0.0
H500 H 0.42399 0.71429 0.32408 0.0
H501 H 0.46628 0.7389 0.35463 0.0
H502 H 0.48686 0.75624 0.40955 0.0
H503 H 0.47851 0.7602 0.46875 0.0
Mn504 Mn 0.19413 0.65509 0.09582 0.0
Mn505 Mn 0.16875 0.71847 0.11142 0.0
C506 C 0.14224 0.66297 0.11547 0.0
C507 C 0.19868 0.61714 0.06185 0.0
C508 C 0.2153 0.68803 0.1549 0.0
O509 O 0.22627 0.67851 0.06972 0.0
O510 O 0.20453 0.71936 0.07981 0.0
C511 C 0.14269 0.735 0.04768 0.0
N512 N 0.13838 0.73083 0.08001 0.0
C513 C 0.08708 0.7534 0.07906 0.0
C514 C 0.09089 0.75792 0.04573 0.0
C515 C 0.11865 0.74838 0.0299 0.0
C516 C 0.11132 0.73916 0.09525 0.0
H517 H 0.16453 0.72853 0.03571 0.0
C518 C 0.22526 0.70421 0.06582 0.0
O519 O 0.21765 0.62053 0.08655 0.0
O520 O 0.17873 0.63661 0.05569 0.0
N521 N 0.13395 0.72043 0.14164 0.0
C522 C 0.13372 0.71381 0.17368 0.0
C523 C 0.10704 0.72085 0.19281 0.0
C524 C 0.08137 0.73532 0.179 0.0
C525 C 0.08224 0.74195 0.14596 0.0
C526 C 0.10895 0.7336 0.1279 0.0
H527 H 0.15388 0.70346 0.18462 0.0
O528 O 0.15609 0.63979 0.11959 0.0
O529 O 0.15914 0.68099 0.10028 0.0
O530 O 0.21548 0.66588 0.13923 0.0
O531 O 0.19938 0.7086 0.14575 0.0
C532 C 0.05811 0.75717 0.13043 0.0
C533 C 0.06044 0.76283 0.09699 0.0
H534 H 0.07268 0.76869 0.03206 0.0
H535 H 0.1218 0.75185 1.0042 0.0
H536 H 0.10658 0.7157 0.21829 0.0
H537 H 0.0613 0.74143 0.19409 0.0
H538 H 0.03781 0.76482 0.14409 0.0
H539 H 0.04154 0.77432 0.08527 0.0
Mn540 Mn 0.3116 0.38737 0.58885 0.0
Mn541 Mn 0.33356 0.32492 0.61312 0.0
C542 C 0.36298 0.37985 0.61037 0.0
C543 C 0.30501 0.42341 0.55246 0.0
C544 C 0.28926 0.36064 0.65236 0.0
O545 O 0.27916 0.36284 0.56482 0.0
O546 O 0.29752 0.32235 0.58138 0.0
C547 C 0.35883 0.30275 0.55152 0.0
N548 N 0.36321 0.30904 0.58334 0.0
C549 C 0.41364 0.28513 0.58501 0.0
C550 C 0.40976 0.27845 0.55222 0.0
C551 C 0.38241 0.28756 0.53531 0.0
C552 C 0.38997 0.30118 0.59951 0.0
H553 H 0.33733 0.30898 0.53877 0.0
C554 C 0.27841 0.33696 0.5644 0.0
O555 O 0.28684 0.42032 0.57761 0.0
O556 O 0.32662 0.40491 0.54722 0.0
N557 N 0.36833 0.32415 0.64351 0.0
C558 C 0.36872 0.33289 0.67482 0.0
C559 C 0.39474 0.326 0.69494 0.0
C560 C 0.41954 0.30957 0.68294 0.0
C561 C 0.41862 0.30089 0.65061 0.0
C562 C 0.39258 0.30907 0.63143 0.0
H563 H 0.34918 0.34476 0.68452 0.0
O564 O 0.34981 0.40358 0.6115 0.0
O565 O 0.34571 0.36103 0.59691 0.0
O566 O 0.29001 0.3802 0.63251 0.0
O567 O 0.30374 0.33849 0.64694 0.0
C568 C 0.44193 0.28371 0.63696 0.0
C569 C 0.43966 0.27604 0.6041 0.0
H570 H 0.42755 0.26625 0.53983 0.0
H571 H 0.37919 0.28241 0.51003 0.0
H572 H 0.39525 0.33275 0.71987 0.0
H573 H 0.43892 0.30349 0.69892 0.0
H574 H 0.46147 0.27607 0.65171 0.0
H575 H 0.45801 0.26311 0.59378 0.0
H576 H 0.29397 0.24359 0.10142 0.0
H577 H 0.37877 0.22893 0.04283 0.0
H578 H 0.36442 0.26757 1.00755 0.0
H579 H 0.24198 0.25877 0.03671 0.0
H580 H 0.21965 0.28453 0.05772 0.0
H581 H 0.23869 0.25791 0.08026 0.0
H582 H 0.26959 0.29337 0.11446 0.0
H583 H 0.25075 0.32013 0.09177 0.0
H584 H 0.29412 0.31833 0.09434 0.0
H585 H 0.33768 0.30495 0.97536 0.0
H586 H 0.29959 0.33609 0.94801 0.0
H587 H 0.23293 0.32748 0.02804 0.0
C588 C 0.30979 0.249 0.08155 0.0
C589 C 0.33771 0.23365 0.07496 0.0
C590 C 0.35749 0.24073 0.04835 0.0
C591 C 0.34954 0.26266 0.02828 0.0
C592 C 0.32169 0.27739 0.03516 0.0
C593 C 0.3021 0.27084 0.06118 0.0
C594 C 0.27224 0.28853 0.06179 0.0
C595 C 0.24133 0.27141 0.05894 0.0
C596 C 0.27165 0.30614 0.09242 0.0
C597 C 0.27764 0.30553 0.03165 0.0
C598 C 0.3065 0.29905 0.0168 0.0
C599 C 0.31539 0.31059 0.98719 0.0
C600 C 0.29381 0.32848 0.97193 0.0
C601 C 0.2638 0.33474 0.98634 0.0
C602 C 0.2561 0.32358 0.01691 0.0
H603 H 0.28422 0.75071 0.46865 0.0
H604 H 0.24767 0.67574 0.50881 0.0
H605 H 0.21316 0.70197 0.54653 0.0
H606 H 0.28931 0.78683 0.5421 0.0
H607 H 0.27711 0.81853 0.52464 0.0
H608 H 0.29734 0.79385 0.5 0.0
H609 H 0.24994 0.79454 0.45903 0.0
H610 H 0.22964 0.81939 0.4834 0.0
H611 H 0.20944 0.78833 0.47317 0.0
H612 H 0.18483 0.73721 0.58186 0.0
H613 H 0.16312 0.77729 0.60948 0.0
H614 H 0.21861 0.82899 0.54528 0.0
C615 C 0.26885 0.7396 0.48516 0.0
C616 C 0.26881 0.71099 0.48571 0.0
C617 C 0.24808 0.69754 0.50773 0.0
C618 C 0.2285 0.71233 0.52933 0.0
C619 C 0.22976 0.74052 0.52844 0.0
C620 C 0.24924 0.75394 0.50664 0.0
C621 C 0.24674 0.78427 0.51059 0.0
C622 C 0.27957 0.79658 0.51989 0.0
C623 C 0.23312 0.7974 0.47972 0.0
C624 C 0.22297 0.78603 0.53835 0.0
C625 C 0.21346 0.76059 0.54835 0.0
C626 C 0.19205 0.75715 0.57403 0.0
C627 C 0.17992 0.78017 0.58967 0.0
C628 C 0.18907 0.80654 0.57969 0.0
C629 C 0.21098 0.80928 0.5536 0.0
H630 H 0.29964 0.83391 0.97873 0.0
H631 H 0.34674 0.77998 0.91074 0.0
H632 H 0.3251 0.74085 0.94041 0.0
H633 H 0.31256 0.79342 0.05007 0.0
H634 H 0.2738 0.8012 0.0675 0.0
H635 H 0.29328 0.8251 0.04107 0.0
H636 H 0.24273 0.82577 1.00401 0.0
H637 H 0.22305 0.80203 0.03047 0.0
H638 H 0.2273 0.7945 0.98797 0.0
H639 H 0.29775 0.70688 0.97809 0.0
H640 H 0.26485 0.68206 0.01861 0.0
H641 H 0.23633 0.7584 0.06126 0.0
C642 C 0.30541 0.81391 0.96999 0.0
C643 C 0.32496 0.81025 0.94225 0.0
C644 C 0.33177 0.78355 0.9318 0.0
C645 C 0.31968 0.76107 0.9486 0.0
C646 C 0.30068 0.7654 0.97591 0.0
C647 C 0.29345 0.79119 0.98642 0.0
C648 C 0.27199 0.79038 0.01608 0.0
C649 C 0.28893 0.80329 0.04541 0.0
C650 C 0.23934 0.80397 1.00921 0.0
C651 C 0.26819 0.7602 0.0205 0.0
C652 C 0.285 0.74602 0.99728 0.0
C653 C 0.28453 0.71783 0.99645 0.0
C654 C 0.2659 0.70385 0.01965 0.0
C655 C 0.24789 0.71811 0.0432 0.0
C656 C 0.24965 0.74668 0.04364 0.0
H657 H 0.27227 0.2822 0.556 0.0
H658 H 0.23356 0.35829 0.52157 0.0
H659 H 0.1987 0.33338 0.48296 0.0
H660 H 0.2757 0.24969 0.47945 0.0
H661 H 0.26466 0.21702 0.49511 0.0
H662 H 0.2853 0.24085 0.52072 0.0
H663 H 0.23933 0.23731 0.56305 0.0
H664 H 0.21856 0.21342 0.53761 0.0
H665 H 0.19828 0.24361 0.55072 0.0
H666 H 0.16898 0.2994 0.44662 0.0
H667 H 0.14712 0.26027 0.41677 0.0
H668 H 0.20594 0.20672 0.47535 0.0
C669 C 0.2563 0.29381 0.54065 0.0
C670 C 0.25571 0.32241 0.54215 0.0
C671 C 0.23448 0.33648 0.52118 0.0
C672 C 0.21459 0.32246 0.49909 0.0
C673 C 0.21611 0.2943 0.49816 0.0
C674 C 0.23642 0.2802 0.51852 0.0
C675 C 0.23421 0.25007 0.51246 0.0
C676 C 0.26691 0.23875 0.50127 0.0
C677 C 0.22185 0.23523 0.54276 0.0
C678 C 0.20951 0.24927 0.48536 0.0
C679 C 0.1993 0.27497 0.47743 0.0
C680 C 0.17681 0.27924 0.45279 0.0
C681 C 0.16453 0.25679 0.43589 0.0
C682 C 0.17466 0.23019 0.44354 0.0
C683 C 0.19747 0.22662 0.46879 0.0
H684 H 0.8001 0.74773 0.09083 0.0
H685 H 0.846 0.70118 0.01488 0.0
H686 H 0.83285 0.7368 0.97517 0.0
H687 H 0.73355 0.76939 0.04082 0.0
H688 H 0.73043 0.80202 0.05972 0.0
H689 H 0.74586 0.77385 0.08239 0.0
H690 H 0.79769 0.80127 0.09503 0.0
H691 H 0.78266 0.82928 0.07166 0.0
H692 H 0.82134 0.81474 0.06211 0.0
H693 H 0.81435 0.77704 0.94342 0.0
H694 H 0.78272 0.81444 0.91987 0.0
H695 H 0.74573 0.83408 0.015 0.0
C696 C 0.80735 0.74512 0.06582 0.0
C697 C 0.82415 0.72169 0.05593 0.0
C698 C 0.83289 0.71882 0.02294 0.0
C699 C 0.82588 0.73912 1.00029 0.0
C700 C 0.80965 0.7621 1.01081 0.0
C701 C 0.79974 0.76493 0.04262 0.0
C702 C 0.77983 0.79039 0.04681 0.0
C703 C 0.74538 0.7835 0.05809 0.0
C704 C 0.79638 0.81008 0.0703 0.0
C705 C 0.78 0.80135 0.0124 0.0
C706 C 0.79801 0.78501 0.99221 0.0
C707 C 0.80051 0.79016 0.95906 0.0
C708 C 0.78287 0.8117 0.94592 0.0
C709 C 0.76283 0.82777 0.96577 0.0
C710 C 0.76204 0.82289 0.99955 0.0
H711 H 0.76764 0.2003 0.52846 0.0
H712 H 0.72613 0.21635 0.4341 0.0
H713 H 0.69066 0.25089 0.45814 0.0
H714 H 0.69169 0.21365 0.57744 0.0
H715 H 0.71433 0.22957 0.60949 0.0
H716 H 0.73233 0.20287 0.58605 0.0
H717 H 0.78024 0.23433 0.57207 0.0
H718 H 0.76217 0.26129 0.59485 0.0
H719 H 0.77247 0.26631 0.55284 0.0
H720 H 0.66719 0.2885 0.48958 0.0
H721 H 0.65166 0.32399 0.52839 0.0
H722 H 0.70589 0.28365 0.60405 0.0
C723 C 0.74985 0.21016 0.51333 0.0
C724 C 0.74876 0.20515 0.47961 0.0
C725 C 0.72656 0.21944 0.4601 0.0
C726 C 0.70651 0.23921 0.47352 0.0
C727 C 0.70894 0.2445 0.50658 0.0
C728 C 0.72956 0.23011 0.52647 0.0
C729 C 0.72925 0.24154 0.56069 0.0
C730 C 0.71611 0.22066 0.58485 0.0
C731 C 0.76304 0.25145 0.57068 0.0
C732 C 0.70599 0.26498 0.55662 0.0
C733 C 0.69471 0.26626 0.52512 0.0
C734 C 0.67525 0.28736 0.51448 0.0
C735 C 0.66679 0.30756 0.53662 0.0
C736 C 0.67738 0.30645 0.5692 0.0
C737 C 0.69703 0.28472 0.57939 0.0
H738 H 0.80391 0.28048 0.92603 0.0
H739 H 0.83053 0.33876 0.99984 0.0
H740 H 0.81356 0.30698 0.04235 0.0
H741 H 0.73137 0.25809 0.96769 0.0
H742 H 0.73517 0.22353 0.95482 0.0
H743 H 0.7513 0.25022 0.93004 0.0
H744 H 0.80724 0.22698 0.93131 0.0
H745 H 0.79137 0.20054 0.95673 0.0
H746 H 0.82598 0.21975 0.96977 0.0
H747 H 0.79484 0.26962 0.07701 0.0
H748 H 0.7651 0.2321 0.10225 0.0
H749 H 0.74635 0.19786 1.00745 0.0
C750 C 0.80597 0.28651 0.95116 0.0
C751 C 0.81855 0.31219 0.95958 0.0
C752 C 0.82068 0.3194 0.99272 0.0
C753 C 0.81148 0.30133 0.01711 0.0
C754 C 0.79968 0.27612 1.00812 0.0
C755 C 0.79603 0.26886 0.97602 0.0
C756 C 0.77998 0.2413 0.97336 0.0
C757 C 0.74753 0.24342 0.95542 0.0
C758 C 0.8025 0.22094 0.9568 0.0
C759 C 0.77516 0.23435 1.00898 0.0
C760 C 0.78747 0.2546 0.02845 0.0
C761 C 0.78521 0.2536 0.06207 0.0
C762 C 0.76852 0.23207 0.07621 0.0
C763 C 0.754 0.21182 0.0569 0.0
C764 C 0.75815 0.21256 0.02283 0.0
H765 H 0.76842 0.77672 0.55813 0.0
H766 H 0.74209 0.85245 0.51264 0.0
H767 H 0.70884 0.82726 0.47266 0.0
H768 H 0.77924 0.7404 0.48693 0.0
H769 H 0.76369 0.70914 0.50289 0.0
H770 H 0.78201 0.73332 0.5297 0.0
H771 H 0.73019 0.73434 0.56483 0.0
H772 H 0.7118 0.70985 0.53838 0.0
H773 H 0.69188 0.7415 0.54599 0.0
H774 H 0.68182 0.79223 0.43472 0.0
H775 H 0.66237 0.7521 0.40482 0.0
H776 H 0.70866 0.70032 0.47573 0.0
C777 C 0.7553 0.78825 0.54016 0.0
C778 C 0.75791 0.8167 0.53868 0.0
C779 C 0.74026 0.83073 0.51458 0.0
C780 C 0.72147 0.81653 0.49165 0.0
C781 C 0.72046 0.78836 0.49327 0.0
C782 C 0.73675 0.7745 0.51723 0.0
C783 C 0.73343 0.7443 0.5132 0.0
C784 C 0.76656 0.73102 0.50786 0.0
C785 C 0.71577 0.73177 0.54233 0.0
C786 C 0.71299 0.74308 0.48289 0.0
C787 C 0.70554 0.7686 0.4717 0.0
C788 C 0.68741 0.77222 0.44351 0.0
C789 C 0.67655 0.74925 0.42659 0.0
C790 C 0.68395 0.72288 0.43776 0.0
C791 C 0.70245 0.72004 0.46637 0.0
H792 H 0.34157 0.052 0.08036 0.0
H793 H 0.31015 0.10809 1.00601 0.0
H794 H 0.30982 0.07149 0.96594 0.0
H795 H 0.39304 1.01214 0.03142 0.0
H796 H 0.3818 0.98019 0.04895 0.0
H797 H 0.37888 1.01054 0.07268 0.0
H798 H 0.31851 1.00073 0.08386 0.0
H799 H 0.32132 0.97018 0.0604 0.0
H800 H 0.29145 0.99518 0.05028 0.0
H801 H 0.31894 0.03021 0.9321 0.0
H802 H 0.32843 0.98484 0.90878 0.0
H803 H 0.34777 0.95361 1.00489 0.0
C804 C 0.33413 0.05644 0.05578 0.0
C805 C 0.32592 0.08307 0.04649 0.0
C806 C 0.31638 0.08796 0.01398 0.0
C807 C 0.31628 0.06727 0.99085 0.0
C808 C 0.32508 0.04145 1.00052 0.0
C809 C 0.33305 0.03572 0.03234 0.0
C810 C 0.34084 1.00593 0.03617 0.0
C811 C 0.37571 1.00198 0.04801 0.0
C812 C 0.31658 0.99219 0.05904 0.0
C813 C 0.3367 0.99611 1.00147 0.0
C814 C 0.32805 0.01707 0.98124 0.0
C815 C 0.32506 1.0135 0.94779 0.0
C816 C 0.33062 0.98776 0.93471 0.0
C817 C 0.33831 0.9658 0.95508 0.0
C818 C 0.3413 0.97004 0.98889 0.0
H819 H 0.12729 0.96985 0.54382 0.0
H820 H 0.22999 0.95647 0.55529 0.0
H821 H 0.24138 0.99718 0.52256 0.0
H822 H 0.13248 0.99032 0.46028 0.0
H823 H 0.10088 1.01514 0.46298 0.0
H824 H 0.10045 0.98625 0.48944 0.0
H825 H 0.09835 0.0176 0.53954 0.0
H826 H 0.09842 0.04658 0.51321 0.0
H827 H 0.12866 0.04341 0.54439 0.0
H828 H 0.24168 0.04024 0.48987 0.0
H829 H 0.23086 0.08099 0.45694 0.0
H830 H 0.1283 0.06415 0.46096 0.0
C831 C 0.15213 0.97585 0.53988 0.0
C832 C 0.17783 0.96032 0.55267 0.0
C833 C 0.21 0.96826 0.54608 0.0
C834 C 0.21668 0.99133 0.52745 0.0
C835 C 0.19092 1.00603 0.51479 0.0
C836 C 0.15926 0.99851 0.52046 0.0
C837 C 0.13615 0.01705 0.50243 0.0
C838 C 0.11632 1.00124 0.47729 0.0
C839 C 0.1141 0.03205 0.52632 0.0
C840 C 0.15973 0.03626 0.48604 0.0
C841 C 0.1912 0.02969 0.49386 0.0
C842 C 0.21716 0.04532 0.48321 0.0
C843 C 0.21084 0.06838 0.46443 0.0
C844 C 0.17889 0.07533 0.45568 0.0
C845 C 0.15305 0.05884 0.46642 0.0
H846 H 0.7082 0.95218 1.00968 0.0
H847 H 0.72924 0.97404 0.91008 0.0
H848 H 0.72831 0.02215 0.92494 0.0
H849 H 0.65518 1.00598 0.02789 0.0
H850 H 0.66995 1.01148 0.06844 0.0
H851 H 0.67284 0.97854 0.05036 0.0
H852 H 0.73452 0.97814 0.0606 0.0
H853 H 0.73177 1.01098 0.07903 0.0
H854 H 0.75898 1.00553 0.0456 0.0
H855 H 0.71903 0.06827 0.94943 0.0
H856 H 0.7111 0.10874 0.98394 0.0
H857 H 0.70233 0.05737 0.06842 0.0
C858 C 0.71308 0.9671 0.99115 0.0
C859 C 0.7188 0.95928 0.9587 0.0
C860 C 0.72506 0.97945 0.93515 0.0
C861 C 0.72437 1.00691 0.94329 0.0
C862 C 0.71808 1.01401 0.97531 0.0
C863 C 0.71336 0.9947 0.99906 0.0
C864 C 0.70794 1.00784 0.0318 0.0
C865 C 0.67449 1.00052 0.04541 0.0
C866 C 0.73492 1.00017 0.05567 0.0
C867 C 0.70978 0.03744 0.0226 0.0
C868 C 0.71511 0.04059 0.98978 0.0
C869 C 0.7155 0.06607 0.97528 0.0
C870 C 0.71083 0.08891 0.99493 0.0
C871 C 0.70665 0.0861 0.02875 0.0
C872 C 0.70614 0.06003 0.04265 0.0
H873 H 0.76374 0.06726 0.49346 0.0
H874 H 0.86554 0.08613 0.50354 0.0
H875 H 0.87592 0.03986 0.52269 0.0
H876 H 0.76053 0.02437 0.56775 0.0
H877 H 0.73157 1.00145 0.55027 0.0
H878 H 0.73189 0.03636 0.5382 0.0
H879 H 0.73771 0.02173 0.47827 0.0
H880 H 0.73803 0.9868 0.49019 0.0
H881 H 0.7709 1.00036 0.46664 0.0
H882 H 0.87661 0.99045 0.53304 0.0
H883 H 0.86628 0.94281 0.54668 0.0
H884 H 0.76324 0.95617 0.53773 0.0
C885 C 0.78805 0.06174 0.50042 0.0
C886 C 0.81387 0.08029 0.49708 0.0
C887 C 0.84538 0.07238 0.50628 0.0
C888 C 0.85156 0.04605 0.51689 0.0
C889 C 0.82583 0.02803 0.51905 0.0
C890 C 0.79452 0.03569 0.51221 0.0
C891 C 0.77125 1.01237 0.51777 0.0
C892 C 0.7474 0.01904 0.54513 0.0
C893 C 0.75343 1.00488 0.48634 0.0
C894 C 0.79455 0.99027 0.52789 0.0
C895 C 0.82596 0.99975 0.52776 0.0
C896 C 0.8521 0.98291 0.53388 0.0
C897 C 0.846 0.95583 0.54126 0.0
C898 C 0.81403 0.94589 0.54324 0.0
C899 C 0.7879 0.96334 0.53647 0.0
H900 H 0.80927 0.46938 0.9614 0.0
H901 H 0.91257 0.4579 0.9521 0.0
H902 H 0.92212 0.49637 0.98888 0.0
H903 H 0.81419 0.54409 0.96143 0.0
H904 H 0.78101 0.5476 0.98933 0.0
H905 H 0.78242 0.51921 0.96215 0.0
H906 H 0.77764 0.48693 1.01125 0.0
H907 H 0.77692 0.5152 0.03863 0.0
H908 H 0.80677 0.48913 0.04362 0.0
H909 H 0.9203 0.53239 0.03185 0.0
H910 H 0.90818 0.571 0.06761 0.0
H911 H 0.80656 0.56388 0.04389 0.0
C912 C 0.83387 0.47539 0.96662 0.0
C913 C 0.86023 0.4607 0.9538 0.0
C914 C 0.89206 0.46906 0.96126 0.0
C915 C 0.89771 0.49071 0.98245 0.0
C916 C 0.87127 0.50432 0.99538 0.0
C917 C 0.83999 0.49765 0.98688 0.0
C918 C 0.81604 0.51659 1.00301 0.0
C919 C 0.79731 0.53284 0.97746 0.0
C920 C 0.79298 0.50102 0.02546 0.0
C921 C 0.83872 0.53457 0.02236 0.0
C922 C 0.87041 0.52664 0.01818 0.0
C923 C 0.89563 0.53906 0.03488 0.0
C924 C 0.88847 0.56078 0.05545 0.0
C925 C 0.85647 0.57039 0.0586 0.0
C926 C 0.83125 0.55693 0.04196 0.0
H927 H 0.66044 0.44601 0.51915 0.0
H928 H 0.67944 0.48004 0.61397 0.0
H929 H 0.68857 0.52484 0.5887 0.0
H930 H 0.71662 0.4857 0.47258 0.0
H931 H 0.68987 0.49 0.43852 0.0
H932 H 0.6866 0.46042 0.46366 0.0
H933 H 0.62628 0.47084 0.47419 0.0
H934 H 0.62929 0.50031 0.44886 0.0
H935 H 0.615 0.50338 0.48995 0.0
H936 H 0.69839 0.56499 0.55268 0.0
H937 H 0.69935 0.59997 0.51053 0.0
H938 H 0.66769 0.54143 0.43903 0.0
C939 C 0.66665 0.46294 0.53452 0.0
C940 C 0.66971 0.45965 0.56847 0.0
C941 C 0.67713 0.48223 0.58796 0.0
C942 C 0.6825 0.50764 0.57376 0.0
C943 C 0.67956 0.51018 0.54014 0.0
C944 C 0.67107 0.48859 0.52084 0.0
C945 C 0.66722 0.49718 0.48565 0.0
C946 C 0.69153 0.48244 0.46382 0.0
C947 C 0.63237 0.49266 0.47398 0.0
C948 C 0.67514 0.52701 0.48807 0.0
C949 C 0.68284 0.53385 0.51966 0.0
C950 C 0.69208 0.5599 0.52798 0.0
C951 C 0.69276 0.57962 0.50367 0.0
C952 C 0.68357 0.57355 0.47133 0.0
C953 C 0.6748 0.54675 0.46346 0.0
H954 H 0.23392 0.57028 0.0719 0.0
H955 H 0.15854 0.60472 1.01166 0.0
H956 H 0.1503 0.56063 0.98555 0.0
H957 H 0.26704 0.52562 1.0096 0.0
H958 H 0.27539 0.49868 0.03769 0.0
H959 H 0.276 0.53315 0.05139 0.0
H960 H 0.23416 0.52122 0.09574 0.0
H961 H 0.23309 0.48678 0.08188 0.0
H962 H 0.1963 0.50602 0.08424 0.0
H963 H 0.14791 0.51285 0.96766 0.0
H964 H 0.15565 0.46474 0.95455 0.0
H965 H 0.23374 0.46009 0.02423 0.0
C966 C 0.216 0.56862 0.0529 0.0
C967 C 0.19689 0.59113 0.04385 0.0
C968 C 0.17355 0.58795 0.01903 0.0
C969 C 0.16856 0.56289 1.00412 0.0
C970 C 0.18719 0.54105 0.01407 0.0
C971 C 0.21079 0.54363 0.03751 0.0
C972 C 0.22754 0.51675 0.04332 0.0
C973 C 0.26364 0.51867 0.03499 0.0
C974 C 0.22247 0.50713 0.07838 0.0
C975 C 0.20965 0.49872 0.01947 0.0
C976 C 0.18622 0.51325 1.00319 0.0
C977 C 0.1662 0.50129 0.98019 0.0
C978 C 0.17061 0.47394 0.97307 0.0
C979 C 0.1949 0.45873 0.98869 0.0
C980 C 0.21465 0.47122 0.01234 0.0
H981 H 0.34922 0.57282 0.49261 0.0
H982 H 0.25036 0.57869 0.4587 0.0
H983 H 0.24037 0.53177 0.47587 0.0
H984 H 0.36171 0.50458 0.46589 0.0
H985 H 0.38613 0.49493 0.50013 0.0
H986 H 0.38555 0.52953 0.48683 0.0
H987 H 0.36843 0.54499 0.54422 0.0
H988 H 0.36947 0.51049 0.5578 0.0
H989 H 0.33328 0.53016 0.56285 0.0
H990 H 0.24044 0.48465 0.4974 0.0
H991 H 0.25056 0.44029 0.52278 0.0
H992 H 0.35025 0.46272 0.5396 0.0
C993 C 0.32534 0.56433 0.48935 0.0
C994 C 0.30041 0.57958 0.47464 0.0
C995 C 0.26974 0.56751 0.47008 0.0
C996 C 0.26386 0.54081 0.47965 0.0
C997 C 0.28902 0.52613 0.49341 0.0
C998 C 0.31918 0.53738 0.49831 0.0
C999 C 0.34212 0.51679 0.513 0.0
C1000 C 0.37056 0.51113 0.49009 0.0
C1001 C 0.35402 0.52617 0.54646 0.0
C1002 C 0.32006 0.49235 0.51581 0.0
C1003 C 0.2895 0.49831 0.50441 0.0
C1004 C 0.26437 0.47962 0.50598 0.0
C1005 C 0.27035 0.45443 0.52023 0.0
C1006 C 0.30134 0.44783 0.53218 0.0
C1007 C 0.32664 0.46692 0.52953 0.0
H1008 H 0.59269 0.17284 0.06575 0.0
H1009 H 0.60752 0.12952 0.15573 0.0
H1010 H 0.54848 0.12526 0.16273 0.0
H1011 H 0.522 0.20938 0.0869 0.0
H1012 H 0.50045 0.20478 0.04941 0.0
H1013 H 0.54395 0.20515 0.04976 0.0
H1014 H 0.54738 0.15884 0.02331 0.0
H1015 H 0.50396 0.15782 0.02069 0.0
H1016 H 0.52545 0.13082 0.04037 0.0
H1017 H 0.48903 0.12082 0.15696 0.0
H1018 H 0.4309 0.1246 0.1449 0.0
H1019 H 0.45255 0.17234 0.05965 0.0
C1020 C 0.58335 0.16316 0.08733 0.0
C1021 C 0.60453 0.15201 0.11069 0.0
C1022 C 0.5916 0.13851 0.13793 0.0
C1023 C 0.55816 0.13583 0.14194 0.0
C1024 C 0.53791 0.14627 0.1181 0.0
C1025 C 0.54984 0.15989 0.09143 0.0
C1026 C 0.5225 0.16809 0.06883 0.0
C1027 C 0.52216 0.19868 0.0634 0.0
C1028 C 0.52498 0.15299 0.03638 0.0
C1029 C 0.49332 0.15842 0.08803 0.0
C1030 C 0.50306 0.1449 0.11565 0.0
C1031 C 0.48105 0.13207 0.13597 0.0
C1032 C 0.44809 0.13445 0.12904 0.0
C1033 C 0.43726 0.15006 0.10252 0.0
C1034 C 0.46022 0.16123 0.08088 0.0
H1035 H 0.92041 0.89115 0.63699 0.0
H1036 H 0.90046 0.85176 0.54551 0.0
H1037 H 0.95874 0.84614 0.53588 0.0
H1038 H 0.99127 0.9281 0.60171 0.0
H1039 H 0.01269 0.92809 0.63973 0.0
H1040 H 0.9692 0.92869 0.63934 0.0
H1041 H 0.96837 0.88665 0.67562 0.0
H1042 H 0.01174 0.88507 0.6753 0.0
H1043 H 0.988 0.8564 0.66213 0.0
H1044 H 0.01856 0.84217 0.5375 0.0
H1045 H 0.07739 0.84747 0.54518 0.0
H1046 H 0.06031 0.89253 0.6335 0.0
C1047 C 0.92846 0.88118 0.61512 0.0
C1048 C 0.90599 0.86994 0.59314 0.0
C1049 C 0.91731 0.85867 0.56378 0.0
C1050 C 0.95037 0.8557 0.55788 0.0
C1051 C 0.97198 0.86531 0.58095 0.0
C1052 C 0.96163 0.87886 0.60827 0.0
C1053 C 0.99023 0.88942 0.62747 0.0
C1054 C 0.99088 0.92041 0.62702 0.0
C1055 C 0.98959 0.8787 0.66226 0.0
C1056 C 0.01818 0.87786 0.60801 0.0
C1057 C 0.00691 0.86432 0.58101 0.0
C1058 C 0.02775 0.85277 0.55848 0.0
C1059 C 0.06108 0.85577 0.56308 0.0
C1060 C 0.07335 0.86986 0.59021 0.0
C1061 C 0.05157 0.8809 0.61309 0.0
H1062 H 0.45414 0.89547 0.88244 0.0
H1063 H 0.43871 0.85495 0.97425 0.0
H1064 H 0.49763 0.8535 0.98336 0.0
H1065 H 0.52684 0.86155 0.85778 0.0
H1066 H 0.54686 0.89103 0.84227 0.0
H1067 H 0.50351 0.88928 0.84191 0.0
H1068 H 0.49924 0.93313 0.87412 0.0
H1069 H 0.54263 0.93586 0.8745 0.0
H1070 H 0.52045 0.93643 0.91205 0.0
H1071 H 0.55701 0.86168 0.98599 0.0
H1072 H 0.61522 0.86805 0.97571 0.0
H1073 H 0.59398 0.89972 0.88027 0.0
C1074 C 0.46332 0.88556 0.90393 0.0
C1075 C 0.44197 0.87477 0.92741 0.0
C1076 C 0.45472 0.863 0.95587 0.0
C1077 C 0.48809 0.86229 0.96135 0.0
C1078 C 0.50845 0.87379 0.93831 0.0
C1079 C 0.49675 0.88482 0.90989 0.0
C1080 C 0.52421 0.89643 0.8897 0.0
C1081 C 0.52541 0.88377 0.85588 0.0
C1082 C 0.52146 0.92729 0.88747 0.0
C1083 C 0.55314 0.88838 0.91011 0.0
C1084 C 0.54325 0.87662 0.93879 0.0
C1085 C 0.56511 0.8698 0.96305 0.0
C1086 C 0.5981 0.87324 0.95689 0.0
C1087 C 0.60903 0.88239 0.92634 0.0
C1088 C 0.58622 0.89134 0.90322 0.0
H1089 H 0.05255 0.17053 0.46275 0.0
H1090 H 0.07044 0.12658 0.37379 0.0
H1091 H 0.01203 0.1242 0.36324 0.0
H1092 H 0.97941 0.12871 0.48105 0.0
H1093 H 0.95853 0.15591 0.5009 0.0
H1094 H 1.00198 0.15447 0.502 0.0
H1095 H 0.00562 0.20274 0.47669 0.0
H1096 H 0.96215 0.20356 0.47804 0.0
H1097 H 0.98271 0.20964 0.44054 0.0
H1098 H 0.95292 0.12963 0.35926 0.0
H1099 H 0.89417 0.13349 0.36833 0.0
H1100 H 0.91196 0.17202 0.4609 0.0
C1101 C 0.04398 0.1605 0.44109 0.0
C1102 C 0.06603 0.15001 0.41807 0.0
C1103 C 0.05401 0.13584 0.39088 0.0
C1104 C 0.02086 0.1343 0.38472 0.0
C1105 C 0.99978 0.14647 0.40646 0.0
C1106 C 0.01057 0.15845 0.43473 0.0
C1107 C 0.98201 0.16739 0.45536 0.0
C1108 C 0.98039 0.15062 0.48668 0.0
C1109 C 0.98328 0.19763 0.46311 0.0
C1110 C 0.95395 0.16059 0.43293 0.0
C1111 C 0.96495 0.1483 0.40502 0.0
C1112 C 0.94394 0.13916 0.38104 0.0
C1113 C 0.91066 0.14163 0.38623 0.0
C1114 C 0.89865 0.1536 0.41483 0.0
C1115 C 0.92059 0.16359 0.4383 0.0
H1116 H 0.09725 0.68037 0.07173 0.0
H1117 H 0.10831 0.64882 0.16902 0.0
H1118 H 0.04892 0.64575 0.1744 0.0
H1119 H 0.02285 0.71872 0.08337 0.0
H1120 H 1.00539 0.70899 0.04522 0.0
H1121 H 0.04858 0.71121 0.04927 0.0
H1122 H 0.05494 0.66219 0.03042 0.0
H1123 H 0.01182 0.65945 0.02578 0.0
H1124 H 0.03316 0.63578 0.05104 0.0
H1125 H 0.98991 0.64034 0.16671 0.0
H1126 H 0.93296 0.63913 0.14974 0.0
H1127 H 0.95837 0.67572 0.05785 0.0
C1128 C 0.087 0.6737 0.09451 0.0
C1129 C 0.10713 0.66547 0.1204 0.0
C1130 C 0.09314 0.65562 0.14927 0.0
C1131 C 0.05952 0.65373 0.15243 0.0
C1132 C 0.04032 0.6613 0.12621 0.0
C1133 C 0.0534 0.67129 0.09785 0.0
C1134 C 0.02727 0.67592 0.07254 0.0
C1135 C 0.02597 0.70551 0.06198 0.0
C1136 C 0.03209 0.65722 0.04322 0.0
C1137 C 0.99741 0.668 0.09157 0.0
C1138 C 0.00574 0.65898 0.12216 0.0
C1139 C 0.98298 0.64826 0.14328 0.0
C1140 C 0.95066 0.64786 0.13352 0.0
C1141 C 0.94111 0.65891 0.10338 0.0
C1142 C 0.96493 0.66826 0.08162 0.0
H1143 H 0.54998 0.35856 0.56708 0.0
H1144 H 0.57153 0.39727 0.65862 0.0
H1145 H 0.51346 0.39854 0.67181 0.0
H1146 H 0.47871 0.39953 0.55229 0.0
H1147 H 0.45684 0.37294 0.53212 0.0
H1148 H 0.50029 0.37362 0.53071 0.0
H1149 H 0.50227 0.32526 0.55436 0.0
H1150 H 0.45879 0.32466 0.55539 0.0
H1151 H 0.48161 0.3183 0.59177 0.0
H1152 H 0.45318 0.39712 0.67458 0.0
H1153 H 0.39423 0.39625 0.66476 0.0
H1154 H 0.4103 0.35854 0.57151 0.0
C1155 C 0.54236 0.36691 0.59006 0.0
C1156 C 0.56534 0.37648 0.6127 0.0
C1157 C 0.55443 0.38855 0.64175 0.0
C1158 C 0.52146 0.38955 0.64933 0.0
C1159 C 0.49942 0.37899 0.6272 0.0
C1160 C 0.50929 0.36836 0.59786 0.0
C1161 C 0.4803 0.36052 0.5773 0.0
C1162 C 0.47896 0.37768 0.54627 0.0
C1163 C 0.48077 0.33036 0.56921 0.0
C1164 C 0.45271 0.36754 0.60012 0.0
C1165 C 0.46439 0.3784 0.62866 0.0
C1166 C 0.44374 0.38833 0.65253 0.0
C1167 C 0.41033 0.38772 0.64682 0.0
C1168 C 0.39776 0.37669 0.61787 0.0
C1169 C 0.41926 0.36621 0.59438 0.0
H1170 H 0.0933 0.39265 0.88963 0.0
H1171 H 0.11421 0.3547 0.98181 0.0
H1172 H 0.05663 0.34334 0.98856 0.0
H1173 H 0.01869 0.42267 0.9182 0.0
H1174 H 0.99842 0.41964 0.87972 0.0
H1175 H 0.04166 0.4232 0.88111 0.0
H1176 H 0.04791 0.37922 0.84792 0.0
H1177 H 1.00462 0.37579 0.84652 0.0
H1178 H 0.02906 0.34883 0.8624 0.0
H1179 H 0.99692 0.33754 0.98672 0.0
H1180 H 0.9379 0.34138 0.97857 0.0
H1181 H 0.95425 0.38298 0.88772 0.0
C1182 C 0.08566 0.38161 0.91094 0.0
C1183 C 0.10838 0.3732 0.93442 0.0
C1184 C 0.09739 0.36006 0.96278 0.0
C1185 C 0.0647 0.35367 0.96692 0.0
C1186 C 0.04301 0.36118 0.9428 0.0
C1187 C 0.05284 0.37534 0.91566 0.0
C1188 C 0.02399 0.38315 0.89498 0.0
C1189 C 0.02049 0.41399 0.89342 0.0
C1190 C 0.02654 0.37102 0.86089 0.0
C1191 C 0.99662 0.37046 0.91425 0.0
C1192 C 0.00821 0.35804 0.94187 0.0
C1193 C 0.98754 0.34685 0.96495 0.0
C1194 C 0.95412 0.34903 0.96013 0.0
C1195 C 0.94168 0.36171 0.93215 0.0
C1196 C 0.96323 0.37225 0.90872 0.0
H1197 H 0.56216 0.66166 0.46179 0.0
H1198 H 0.5801 0.61779 0.37289 0.0
H1199 H 0.52165 0.61585 0.36196 0.0
H1200 H 0.4866 0.6193 0.47814 0.0
H1201 H 0.46697 0.64668 0.49892 0.0
H1202 H 0.51026 0.64339 0.50067 0.0
H1203 H 0.51701 0.69206 0.47833 0.0
H1204 H 0.47376 0.69479 0.47808 0.0
H1205 H 0.49638 0.70107 0.44152 0.0
H1206 H 0.46285 0.62479 0.35624 0.0
H1207 H 0.40441 0.63277 0.36316 0.0
H1208 H 0.42233 0.66712 0.45809 0.0
C1209 C 0.5536 0.65165 0.44011 0.0
C1210 C 0.57559 0.64159 0.41687 0.0
C1211 C 0.56364 0.62717 0.38984 0.0
C1212 C 0.53049 0.62573 0.38359 0.0
C1213 C 0.50947 0.6379 0.40536 0.0
C1214 C 0.52027 0.64934 0.43391 0.0
C1215 C 0.49192 0.65865 0.45439 0.0
C1216 C 0.48875 0.64095 0.48483 0.0
C1217 C 0.49498 0.68846 0.46359 0.0
C1218 C 0.46402 0.65361 0.43114 0.0
C1219 C 0.47483 0.64117 0.40325 0.0
C1220 C 0.45395 0.63417 0.37815 0.0
C1221 C 0.42089 0.63899 0.38214 0.0
C1222 C 0.40898 0.65101 0.41079 0.0
C1223 C 0.4309 0.65867 0.43551 0.0
H1224 H 0.28401 0.11978 0.19376 0.0
H1225 H 0.2775 0.20498 0.1712 0.0
H1226 H 0.25138 0.21328 0.22365 0.0
H1227 H 0.20188 0.11838 0.23727 0.0
H1228 H 0.21568 0.09357 0.26601 0.0
H1229 H 0.23157 0.09378 0.22535 0.0
H1230 H 0.28927 0.09662 0.24913 0.0
H1231 H 0.27352 0.09761 0.28981 0.0
H1232 H 0.2997 0.12418 0.27564 0.0
H1233 H 0.23836 0.21429 0.28152 0.0
H1234 H 0.21523 0.20684 0.33543 0.0
H1235 H 0.21894 0.12029 0.32041 0.0
C1236 C 0.27532 0.13985 0.19913 0.0
C1237 C 0.28251 0.16177 0.17811 0.0
C1238 C 0.27178 0.18791 0.18658 0.0
C1239 C 0.25746 0.1929 0.21663 0.0
C1240 C 0.25289 0.17137 0.23775 0.0
C1241 C 0.25956 0.14514 0.2289 0.0
C1242 C 0.25042 0.12592 0.25642 0.0
C1243 C 0.22327 0.10678 0.24562 0.0
C1244 C 0.28 0.11015 0.26845 0.0
C1245 C 0.2386 0.14568 0.2822 0.0
C1246 C 0.24154 0.17179 0.27089 0.0
C1247 C 0.23485 0.19393 0.2903 0.0
C1248 C 0.22217 0.18945 0.32117 0.0
C1249 C 0.21494 0.16305 0.33223 0.0
C1250 C 0.22445 0.1407 0.31292 0.0
H1251 H 0.29477 0.84948 0.8156 0.0
H1252 H 0.29796 0.93453 0.8392 0.0
H1253 H 0.26865 0.94487 0.78809 0.0
H1254 H 0.3081 0.85536 0.73192 0.0
H1255 H 0.28076 0.82864 0.72072 0.0
H1256 H 0.30031 0.82805 0.75969 0.0
H1257 H 0.24487 0.82518 0.78863 0.0
H1258 H 0.22521 0.82494 0.74973 0.0
H1259 H 0.21428 0.84985 0.77953 0.0
H1260 H 0.24189 0.94536 0.73099 0.0
H1261 H 0.21282 0.9354 0.67961 0.0
H1262 H 0.22702 0.84998 0.69581 0.0
C1263 C 0.28876 0.87028 0.81035 0.0
C1264 C 0.29846 0.89121 0.83145 0.0
C1265 C 0.29028 0.91815 0.82364 0.0
C1266 C 0.27401 0.9242 0.79445 0.0
C1267 C 0.26584 0.90304 0.77358 0.0
C1268 C 0.27236 0.87656 0.78171 0.0
C1269 C 0.26084 0.85726 0.75578 0.0
C1270 C 0.2892 0.8414 0.74118 0.0
C1271 C 0.23474 0.83819 0.76922 0.0
C1272 C 0.24693 0.87689 0.73148 0.0
C1273 C 0.25029 0.90327 0.74178 0.0
C1274 C 0.23911 0.92474 0.72288 0.0
C1275 C 0.22302 0.91896 0.6935 0.0
C1276 C 0.21801 0.89196 0.68358 0.0
C1277 C 0.23079 0.87085 0.70262 0.0
H1278 H 0.7299 0.88748 0.82131 0.0
H1279 H 0.70476 0.80303 0.83386 0.0
H1280 H 0.72608 0.7931 0.77958 0.0
H1281 H 0.70921 0.8909 0.7354 0.0
H1282 H 0.74215 0.91318 0.72538 0.0
H1283 H 0.72458 0.9141 0.7653 0.0
H1284 H 0.78084 0.90576 0.79069 0.0
H1285 H 0.79858 0.90477 0.75087 0.0
H1286 H 0.80394 0.8768 0.77823 0.0
H1287 H 0.75245 0.79138 0.72556 0.0
H1288 H 0.77972 0.7984 0.67325 0.0
H1289 H 0.7862 0.8842 0.69293 0.0
C1290 C 0.72875 0.86691 0.81261 0.0
C1291 C 0.71561 0.84605 0.83217 0.0
C1292 C 0.71457 0.81944 0.81961 0.0
C1293 C 0.7267 0.81354 0.78871 0.0
C1294 C 0.73962 0.83445 0.77026 0.0
C1295 C 0.74052 0.86065 0.78151 0.0
C1296 C 0.75575 0.87926 0.75644 0.0
C1297 C 0.73147 0.90062 0.74495 0.0
C1298 C 0.78661 0.89242 0.76987 0.0
C1299 C 0.76349 0.85932 0.72955 0.0
C1300 C 0.75408 0.83358 0.73828 0.0
C1301 C 0.75968 0.81147 0.71832 0.0
C1302 C 0.77533 0.81568 0.68866 0.0
C1303 C 0.78503 0.84185 0.6788 0.0
C1304 C 0.77875 0.86401 0.69955 0.0
H1305 H 0.77653 0.20555 0.33135 0.0
H1306 H 0.77705 0.11961 0.35139 0.0
H1307 H 0.75553 0.1107 0.29675 0.0
H1308 H 0.70114 0.20498 0.2855 0.0
H1309 H 0.71442 0.23038 0.25721 0.0
H1310 H 0.73 0.23017 0.29798 0.0
H1311 H 0.78832 0.22838 0.27551 0.0
H1312 H 0.77292 0.22842 0.23468 0.0
H1313 H 0.79943 0.20182 0.24789 0.0
H1314 H 0.73708 0.11066 0.23903 0.0
H1315 H 0.71739 0.11972 0.1837 0.0
H1316 H 0.725 0.20577 0.20135 0.0
C1317 C 0.77195 0.18487 0.32429 0.0
C1318 C 0.77856 0.16327 0.34578 0.0
C1319 C 0.77204 0.13652 0.33557 0.0
C1320 C 0.75995 0.13122 0.30447 0.0
C1321 C 0.75399 0.15288 0.28384 0.0
C1322 C 0.75927 0.1792 0.29342 0.0
C1323 C 0.75003 0.19875 0.26662 0.0
C1324 C 0.72224 0.21715 0.27748 0.0
C1325 C 0.77943 0.21532 0.25552 0.0
C1326 C 0.73911 0.17926 0.24041 0.0
C1327 C 0.74195 0.1529 0.25083 0.0
C1328 C 0.73447 0.13123 0.2307 0.0
C1329 C 0.72347 0.1366 0.19921 0.0
C1330 C 0.71956 0.16344 0.18812 0.0
C1331 C 0.7275 0.18503 0.20915 0.0
H1332 H 0.72603 0.68403 0.3175 0.0
H1333 H 0.72368 0.59827 0.33688 0.0
H1334 H 0.75015 0.58972 0.2838 0.0
H1335 H 0.70601 0.68075 0.23603 0.0
H1336 H 0.7321 0.70786 0.22328 0.0
H1337 H 0.71647 0.70731 0.26396 0.0
H1338 H 0.77439 0.70939 0.28768 0.0
H1339 H 0.79014 0.71103 0.24707 0.0
H1340 H 0.80404 0.68522 0.27444 0.0
H1341 H 0.77298 0.59125 0.22485 0.0
H1342 H 0.79763 0.60302 0.1718 0.0
H1343 H 0.78305 0.68773 0.19254 0.0
C1344 C 0.73206 0.66347 0.31108 0.0
C1345 C 0.72327 0.64183 0.33156 0.0
C1346 C 0.73096 0.61519 0.32198 0.0
C1347 C 0.74552 0.61017 0.29161 0.0
C1348 C 0.75237 0.63202 0.27126 0.0
C1349 C 0.74651 0.65819 0.28112 0.0
C1350 C 0.75539 0.67833 0.25505 0.0
C1351 C 0.72572 0.69451 0.24394 0.0
C1352 C 0.78261 0.69709 0.26676 0.0
C1353 C 0.76695 0.65955 0.22866 0.0
C1354 C 0.76493 0.63287 0.23813 0.0
C1355 C 0.77467 0.61211 0.21738 0.0
C1356 C 0.78817 0.61893 0.18701 0.0
C1357 C 0.79193 0.64628 0.17777 0.0
C1358 C 0.78021 0.66662 0.19866 0.0
H1359 H 0.72508 0.33914 0.69981 0.0
H1360 H 0.71841 0.42437 0.67812 0.0
H1361 H 0.75022 0.43468 0.72768 0.0
H1362 H 0.71536 0.34352 0.78322 0.0
H1363 H 0.74386 0.31739 0.79325 0.0
H1364 H 0.72331 0.31673 0.75483 0.0
H1365 H 0.778 0.31565 0.72441 0.0
H1366 H 0.79875 0.31556 0.76278 0.0
H1367 H 0.80799 0.34103 0.73302 0.0
H1368 H 0.77809 0.43516 0.78418 0.0
H1369 H 0.80647 0.42555 0.83595 0.0
H1370 H 0.79573 0.33988 0.81829 0.0
C1371 C 0.73111 0.35996 0.70496 0.0
C1372 C 0.71957 0.38095 0.68487 0.0
C1373 C 0.72757 0.40794 0.69274 0.0
C1374 C 0.74528 0.41396 0.7211 0.0
C1375 C 0.75519 0.39274 0.74109 0.0
C1376 C 0.74902 0.36622 0.73278 0.0
C1377 C 0.76189 0.34694 0.75815 0.0
C1378 C 0.73446 0.33017 0.77324 0.0
C1379 C 0.78822 0.32873 0.74373 0.0
C1380 C 0.77586 0.36663 0.78244 0.0
C1381 C 0.7716 0.393 0.77251 0.0
C1382 C 0.7818 0.41454 0.79187 0.0
C1383 C 0.79759 0.40892 0.82146 0.0
C1384 C 0.80335 0.38197 0.83129 0.0
C1385 C 0.79184 0.36072 0.81152 0.0
H1386 H 0.27951 0.32391 0.70243 0.0
H1387 H 0.26417 0.40769 0.67575 0.0
H1388 H 0.24379 0.41707 0.73046 0.0
H1389 H 0.20704 0.31821 0.75364 0.0
H1390 H 0.22647 0.29667 0.7829 0.0
H1391 H 0.23911 0.29602 0.74112 0.0
H1392 H 0.2978 0.30628 0.7589 0.0
H1393 H 0.2853 0.30723 0.8007 0.0
H1394 H 0.30595 0.33573 0.78317 0.0
H1395 H 0.22913 0.41874 0.78866 0.0
H1396 H 0.21478 0.41152 0.84578 0.0
H1397 H 0.23602 0.32619 0.83581 0.0
C1398 C 0.27144 0.34414 0.70793 0.0
C1399 C 0.27355 0.36503 0.68447 0.0
C1400 C 0.2628 0.39124 0.69295 0.0
C1401 C 0.25126 0.39686 0.72413 0.0
C1402 C 0.25014 0.37604 0.74673 0.0
C1403 C 0.25937 0.3501 0.739 0.0
C1404 C 0.25543 0.33153 0.76812 0.0
C1405 C 0.23053 0.30929 0.76101 0.0
C1406 C 0.28807 0.31948 0.77832 0.0
C1407 C 0.24294 0.35123 0.7934 0.0
C1408 C 0.24043 0.37682 0.78045 0.0
C1409 C 0.23068 0.39874 0.79903 0.0
C1410 C 0.22278 0.39442 0.83161 0.0
C1411 C 0.22424 0.36828 0.84551 0.0
C1412 C 0.23451 0.34639 0.82597 0.0
H1413 H 0.27947 0.648 0.33291 0.0
H1414 H 0.3061 0.73241 0.34278 0.0
H1415 H 0.28759 0.74103 0.28732 0.0
H1416 H 0.30365 0.64112 0.24934 0.0
H1417 H 0.27041 0.61961 0.238 0.0
H1418 H 0.28517 0.6194 0.27909 0.0
H1419 H 0.22792 0.63053 0.30031 0.0
H1420 H 0.21292 0.63046 0.25932 0.0
H1421 H 0.20702 0.65961 0.28468 0.0
H1422 H 0.26711 0.74132 0.23152 0.0
H1423 H 0.24243 0.7337 0.17816 0.0
H1424 H 0.22857 0.64914 0.20169 0.0
C1425 C 0.28109 0.66833 0.3235 0.0
C1426 C 0.29434 0.6895 0.34247 0.0
C1427 C 0.29621 0.71577 0.32897 0.0
C1428 C 0.2858 0.72092 0.29735 0.0
C1429 C 0.27349 0.69966 0.2792 0.0
C1430 C 0.2708 0.67391 0.29165 0.0
C1431 C 0.25641 0.65491 0.26649 0.0
C1432 C 0.28034 0.63243 0.25772 0.0
C1433 C 0.22415 0.64319 0.27842 0.0
C1434 C 0.25142 0.67412 0.23816 0.0
C1435 C 0.26162 0.69979 0.24625 0.0
C1436 C 0.25904 0.72132 0.22484 0.0
C1437 C 0.24499 0.71676 0.19453 0.0
C1438 C 0.23366 0.69082 0.18562 0.0
C1439 C 0.23745 0.66908 0.2076 0.0
loop_
_geom_bond_atom_site_label_1
_geom_bond_atom_site_label_2
_geom_bond_distance
_geom_bond_site_symmetry_2
_ccdc_geom_bond_type
Mn0 O5 2.095 . S
Mn0 O15 2.162 . S
Mn0 O16 2.297 . S
Mn0 O24 2.385 . S
Mn0 O25 2.209 . S
Mn0 O26 2.094 . S
Mn1 O6 2.121 . S
Mn1 N8 2.257 . S
Mn1 N17 2.282 . S
Mn1 O25 2.215 . S
Mn1 O27 2.117 . S
C2 O24 1.234 . S
C2 O25 1.283 . S
C3 O15 1.281 . S
C3 O16 1.236 . S
C4 O26 1.240 . S
C4 O27 1.264 . S
O5 Mn0 2.095 . S
O5 C14 1.250 . S
O6 Mn1 2.121 . S
O6 C14 1.258 . S
C7 N8 1.326 . S
C7 C11 1.460 . S
C7 H13 0.929 . S
N8 Mn1 2.257 . S
N8 C7 1.326 . S
N8 C12 1.362 . S
C9 C10 1.258 . S
C9 C12 1.431 . S
C9 C29 1.449 . S
C10 C9 1.258 . S
C10 C11 1.477 . S
C10 H30 0.931 . S
C11 C7 1.460 . S
C11 C10 1.477 . S
C11 H31 0.930 . S
C12 N8 1.362 . S
C12 C9 1.431 . S
C12 C22 1.476 . S
H13 C7 0.929 . S
C14 O5 1.250 . S
C14 O6 1.258 . S
O15 Mn0 2.162 . S
O15 C3 1.281 . S
O16 Mn0 2.297 . S
O16 C3 1.236 . S
N17 Mn1 2.282 . S
N17 C18 1.328 . S
N17 C22 1.318 . S
C18 N17 1.328 . S
C18 C19 1.457 . S
C18 H23 0.929 . S
C19 C18 1.457 . S
C19 C20 1.291 . S
C19 H32 0.931 . S
C20 C19 1.291 . S
C20 C21 1.373 . S
C20 H33 0.929 . S
C21 C20 1.373 . S
C21 C22 1.396 . S
C21 C28 1.403 . S
C22 C12 1.476 . S
C22 N17 1.318 . S
C22 C21 1.396 . S
H23 C18 0.929 . S
O24 Mn0 2.385 . S
O24 C2 1.234 . S
O25 Mn0 2.209 . S
O25 Mn1 2.215 . S
O25 C2 1.283 . S
O26 Mn0 2.094 . S
O26 C4 1.240 . S
O27 Mn1 2.117 . S
O27 C4 1.264 . S
C28 C21 1.403 . S
C28 C29 1.399 . S
C28 H34 0.929 . S
C29 C9 1.449 . S
C29 C28 1.399 . S
C29 H35 0.930 . S
H30 C10 0.931 . S
H31 C11 0.930 . S
H32 C19 0.931 . S
H33 C20 0.929 . S
H34 C28 0.929 . S
H35 C29 0.930 . S
Mn36 O41 2.095 . S
Mn36 O51 2.162 . S
Mn36 O52 2.297 . S
Mn36 O60 2.385 . S
Mn36 O61 2.209 . S
Mn36 O62 2.094 . S
Mn37 O42 2.121 . S
Mn37 N44 2.257 . S
Mn37 N53 2.282 . S
Mn37 O61 2.215 . S
Mn37 O63 2.117 . S
C38 O60 1.234 . S
C38 O61 1.283 . S
C39 O51 1.281 . S
C39 O52 1.236 . S
C40 O62 1.240 . S
C40 O63 1.264 . S
O41 Mn36 2.095 . S
O41 C50 1.250 . S
O42 Mn37 2.121 . S
O42 C50 1.258 . S
C43 N44 1.326 . S
C43 C47 1.460 . S
C43 H49 0.929 . S
N44 Mn37 2.257 . S
N44 C43 1.326 . S
N44 C48 1.362 . S
C45 C46 1.258 . S
C45 C48 1.431 . S
C45 C65 1.449 . S
C46 C45 1.258 . S
C46 C47 1.477 . S
C46 H66 0.931 . S
C47 C43 1.460 . S
C47 C46 1.477 . S
C47 H67 0.930 . S
C48 N44 1.362 . S
C48 C45 1.431 . S
C48 C58 1.476 . S
H49 C43 0.929 . S
C50 O41 1.250 . S
C50 O42 1.258 . S
O51 Mn36 2.162 . S
O51 C39 1.281 . S
O52 Mn36 2.297 . S
O52 C39 1.236 . S
N53 Mn37 2.282 . S
N53 C54 1.328 . S
N53 C58 1.318 . S
C54 N53 1.328 . S
C54 C55 1.457 . S
C54 H59 0.929 . S
C55 C54 1.457 . S
C55 C56 1.291 . S
C55 H68 0.931 . S
C56 C55 1.291 . S
C56 C57 1.373 . S
C56 H69 0.929 . S
C57 C56 1.373 . S
C57 C58 1.396 . S
C57 C64 1.403 . S
C58 C48 1.476 . S
C58 N53 1.318 . S
C58 C57 1.396 . S
H59 C54 0.929 . S
O60 Mn36 2.385 . S
O60 C38 1.234 . S
O61 Mn36 2.209 . S
O61 Mn37 2.215 . S
O61 C38 1.283 . S
O62 Mn36 2.094 . S
O62 C40 1.240 . S
O63 Mn37 2.117 . S
O63 C40 1.264 . S
C64 C57 1.403 . S
C64 C65 1.399 . S
C64 H70 0.929 . S
C65 C45 1.449 . S
C65 C64 1.399 . S
C65 H71 0.930 . S
H66 C46 0.931 . S
H67 C47 0.930 . S
H68 C55 0.931 . S
H69 C56 0.929 . S
H70 C64 0.929 . S
H71 C65 0.930 . S
Mn72 O77 2.095 . S
Mn72 O87 2.162 . S
Mn72 O88 2.297 . S
Mn72 O96 2.385 . S
Mn72 O97 2.209 . S
Mn72 O98 2.094 . S
Mn73 O78 2.121 . S
Mn73 N80 2.257 . S
Mn73 N89 2.282 . S
Mn73 O97 2.215 . S
Mn73 O99 2.117 . S
C74 O96 1.234 . S
C74 O97 1.283 . S
C75 O87 1.281 . S
C75 O88 1.236 . S
C76 O98 1.240 . S
C76 O99 1.264 . S
O77 Mn72 2.095 . S
O77 C86 1.250 . S
O78 Mn73 2.121 . S
O78 C86 1.258 . S
C79 N80 1.326 . S
C79 C83 1.460 . S
C79 H85 0.929 . S
N80 Mn73 2.257 . S
N80 C79 1.326 . S
N80 C84 1.362 . S
C81 C82 1.258 . S
C81 C84 1.431 . S
C81 C101 1.449 . S
C82 C81 1.258 . S
C82 C83 1.477 . S
C82 H102 0.931 . S
C83 C79 1.460 . S
C83 C82 1.477 . S
C83 H103 0.930 . S
C84 N80 1.362 . S
C84 C81 1.431 . S
C84 C94 1.476 . S
H85 C79 0.929 . S
C86 O77 1.250 . S
C86 O78 1.258 . S
O87 Mn72 2.162 . S
O87 C75 1.281 . S
O88 Mn72 2.297 . S
O88 C75 1.236 . S
N89 Mn73 2.282 . S
N89 C90 1.328 . S
N89 C94 1.318 . S
C90 N89 1.328 . S
C90 C91 1.457 . S
C90 H95 0.929 . S
C91 C90 1.457 . S
C91 C92 1.291 . S
C91 H104 0.931 . S
C92 C91 1.291 . S
C92 C93 1.373 . S
C92 H105 0.929 . S
C93 C92 1.373 . S
C93 C94 1.396 . S
C93 C100 1.403 . S
C94 C84 1.476 . S
C94 N89 1.318 . S
C94 C93 1.396 . S
H95 C90 0.929 . S
O96 Mn72 2.385 . S
O96 C74 1.234 . S
O97 Mn72 2.209 . S
O97 Mn73 2.215 . S
O97 C74 1.283 . S
O98 Mn72 2.094 . S
O98 C76 1.240 . S
O99 Mn73 2.117 . S
O99 C76 1.264 . S
C100 C93 1.403 . S
C100 C101 1.399 . S
C100 H106 0.929 . S
C101 C81 1.449 . S
C101 C100 1.399 . S
C101 H107 0.930 . S
H102 C82 0.931 . S
H103 C83 0.930 . S
H104 C91 0.931 . S
H105 C92 0.929 . S
H106 C100 0.929 . S
H107 C101 0.930 . S
Mn108 O113 2.095 . S
Mn108 O123 2.162 . S
Mn108 O124 2.297 . S
Mn108 O132 2.385 . S
Mn108 O133 2.209 . S
Mn108 O134 2.094 . S
Mn109 O114 2.121 . S
Mn109 N116 2.257 . S
Mn109 N125 2.282 . S
Mn109 O133 2.215 . S
Mn109 O135 2.117 . S
C110 O132 1.234 . S
C110 O133 1.283 . S
C111 O123 1.281 . S
C111 O124 1.236 . S
C112 O134 1.240 . S
C112 O135 1.264 . S
O113 Mn108 2.095 . S
O113 C122 1.250 . S
O114 Mn109 2.121 . S
O114 C122 1.258 . S
C115 N116 1.326 . S
C115 C119 1.460 . S
C115 H121 0.929 . S
N116 Mn109 2.257 . S
N116 C115 1.326 . S
N116 C120 1.362 . S
C117 C118 1.258 . S
C117 C120 1.431 . S
C117 C137 1.449 . S
C118 C117 1.258 . S
C118 C119 1.477 . S
C118 H138 0.931 . S
C119 C115 1.460 . S
C119 C118 1.477 . S
C119 H139 0.930 . S
C120 N116 1.362 . S
C120 C117 1.431 . S
C120 C130 1.476 . S
H121 C115 0.929 . S
C122 O113 1.250 . S
C122 O114 1.258 . S
O123 Mn108 2.162 . S
O123 C111 1.281 . S
O124 Mn108 2.297 . S
O124 C111 1.236 . S
N125 Mn109 2.282 . S
N125 C126 1.328 . S
N125 C130 1.318 . S
C126 N125 1.328 . S
C126 C127 1.457 . S
C126 H131 0.929 . S
C127 C126 1.457 . S
C127 C128 1.291 . S
C127 H140 0.931 . S
C128 C127 1.291 . S
C128 C129 1.373 . S
C128 H141 0.929 . S
C129 C128 1.373 . S
C129 C130 1.396 . S
C129 C136 1.403 . S
C130 C120 1.476 . S
C130 N125 1.318 . S
C130 C129 1.396 . S
H131 C126 0.929 . S
O132 Mn108 2.385 . S
O132 C110 1.234 . S
O133 Mn108 2.209 . S
O133 Mn109 2.215 . S
O133 C110 1.283 . S
O134 Mn108 2.094 . S
O134 C112 1.240 . S
O135 Mn109 2.117 . S
O135 C112 1.264 . S
C136 C129 1.403 . S
C136 C137 1.399 . S
C136 H142 0.929 . S
C137 C117 1.449 . S
C137 C136 1.399 . S
C137 H143 0.930 . S
H138 C118 0.931 . S
H139 C119 0.930 . S
H140 C127 0.931 . S
H141 C128 0.929 . S
H142 C136 0.929 . S
H143 C137 0.930 . S
Mn144 O149 2.095 . S
Mn144 O159 2.162 . S
Mn144 O160 2.297 . S
Mn144 O168 2.385 . S
Mn144 O169 2.209 . S
Mn144 O170 2.094 . S
Mn145 O150 2.121 . S
Mn145 N152 2.257 . S
Mn145 N161 2.282 . S
Mn145 O169 2.215 . S
Mn145 O171 2.117 . S
C146 O168 1.234 . S
C146 O169 1.283 . S
C147 O159 1.281 . S
C147 O160 1.236 . S
C148 O170 1.240 . S
C148 O171 1.264 . S
O149 Mn144 2.095 . S
O149 C158 1.250 . S
O150 Mn145 2.121 . S
O150 C158 1.258 . S
C151 N152 1.326 . S
C151 C155 1.460 . S
C151 H157 0.929 . S
N152 Mn145 2.257 . S
N152 C151 1.326 . S
N152 C156 1.362 . S
C153 C154 1.258 . S
C153 C156 1.431 . S
C153 C173 1.449 . S
C154 C153 1.258 . S
C154 C155 1.477 . S
C154 H174 0.931 . S
C155 C151 1.460 . S
C155 C154 1.477 . S
C155 H175 0.930 . S
C156 N152 1.362 . S
C156 C153 1.431 . S
C156 C166 1.476 . S
H157 C151 0.929 . S
C158 O149 1.250 . S
C158 O150 1.258 . S
O159 Mn144 2.162 . S
O159 C147 1.281 . S
O160 Mn144 2.297 . S
O160 C147 1.236 . S
N161 Mn145 2.282 . S
N161 C162 1.328 . S
N161 C166 1.318 . S
C162 N161 1.328 . S
C162 C163 1.457 . S
C162 H167 0.929 . S
C163 C162 1.457 . S
C163 C164 1.291 . S
C163 H176 0.931 . S
C164 C163 1.291 . S
C164 C165 1.373 . S
C164 H177 0.929 . S
C165 C164 1.373 . S
C165 C166 1.396 . S
C165 C172 1.403 . S
C166 C156 1.476 . S
C166 N161 1.318 . S
C166 C165 1.396 . S
H167 C162 0.929 . S
O168 Mn144 2.385 . S
O168 C146 1.234 . S
O169 Mn144 2.209 . S
O169 Mn145 2.215 . S
O169 C146 1.283 . S
O170 Mn144 2.094 . S
O170 C148 1.240 . S
O171 Mn145 2.117 . S
O171 C148 1.264 . S
C172 C165 1.403 . S
C172 C173 1.399 . S
C172 H178 0.929 . S
C173 C153 1.449 . S
C173 C172 1.399 . S
C173 H179 0.930 . S
H174 C154 0.931 . S
H175 C155 0.930 . S
H176 C163 0.931 . S
H177 C164 0.929 . S
H178 C172 0.929 . S
H179 C173 0.930 . S
Mn180 O185 2.095 . S
Mn180 O195 2.162 . S
Mn180 O196 2.297 . S
Mn180 O204 2.385 . S
Mn180 O205 2.209 . S
Mn180 O206 2.094 . S
Mn181 O186 2.121 . S
Mn181 N188 2.257 . S
Mn181 N197 2.282 . S
Mn181 O205 2.215 . S
Mn181 O207 2.117 . S
C182 O204 1.234 . S
C182 O205 1.283 . S
C183 O195 1.281 . S
C183 O196 1.236 . S
C184 O206 1.240 . S
C184 O207 1.264 . S
O185 Mn180 2.095 . S
O185 C194 1.250 . S
O186 Mn181 2.121 . S
O186 C194 1.258 . S
C187 N188 1.326 . S
C187 C191 1.460 . S
C187 H193 0.929 . S
N188 Mn181 2.257 . S
N188 C187 1.326 . S
N188 C192 1.362 . S
C189 C190 1.258 . S
C189 C192 1.431 . S
C189 C209 1.449 . S
C190 C189 1.258 . S
C190 C191 1.477 . S
C190 H210 0.931 . S
C191 C187 1.460 . S
C191 C190 1.477 . S
C191 H211 0.930 . S
C192 N188 1.362 . S
C192 C189 1.431 . S
C192 C202 1.476 . S
H193 C187 0.929 . S
C194 O185 1.250 . S
C194 O186 1.258 . S
O195 Mn180 2.162 . S
O195 C183 1.281 . S
O196 Mn180 2.297 . S
O196 C183 1.236 . S
N197 Mn181 2.282 . S
N197 C198 1.328 . S
N197 C202 1.318 . S
C198 N197 1.328 . S
C198 C199 1.457 . S
C198 H203 0.929 . S
C199 C198 1.457 . S
C199 C200 1.291 . S
C199 H212 0.931 . S
C200 C199 1.291 . S
C200 C201 1.373 . S
C200 H213 0.929 . S
C201 C200 1.373 . S
C201 C202 1.396 . S
C201 C208 1.403 . S
C202 C192 1.476 . S
C202 N197 1.318 . S
C202 C201 1.396 . S
H203 C198 0.929 . S
O204 Mn180 2.385 . S
O204 C182 1.234 . S
O205 Mn180 2.209 . S
O205 Mn181 2.215 . S
O205 C182 1.283 . S
O206 Mn180 2.094 . S
O206 C184 1.240 . S
O207 Mn181 2.117 . S
O207 C184 1.264 . S
C208 C201 1.403 . S
C208 C209 1.399 . S
C208 H214 0.929 . S
C209 C189 1.449 . S
C209 C208 1.399 . S
C209 H215 0.930 . S
H210 C190 0.931 . S
H211 C191 0.930 . S
H212 C199 0.931 . S
H213 C200 0.929 . S
H214 C208 0.929 . S
H215 C209 0.930 . S
Mn216 O221 2.095 . S
Mn216 O231 2.162 . S
Mn216 O232 2.297 . S
Mn216 O240 2.385 . S
Mn216 O241 2.209 . S
Mn216 O242 2.094 . S
Mn217 O222 2.121 . S
Mn217 N224 2.257 . S
Mn217 N233 2.282 . S
Mn217 O241 2.215 . S
Mn217 O243 2.117 . S
C218 O240 1.234 . S
C218 O241 1.283 . S
C219 O231 1.281 . S
C219 O232 1.236 . S
C220 O242 1.240 . S
C220 O243 1.264 . S
O221 Mn216 2.095 . S
O221 C230 1.250 . S
O222 Mn217 2.121 . S
O222 C230 1.258 . S
C223 N224 1.326 . S
C223 C227 1.460 . S
C223 H229 0.929 . S
N224 Mn217 2.257 . S
N224 C223 1.326 . S
N224 C228 1.362 . S
C225 C226 1.258 . S
C225 C228 1.431 . S
C225 C245 1.449 . S
C226 C225 1.258 . S
C226 C227 1.477 . S
C226 H246 0.931 . S
C227 C223 1.460 . S
C227 C226 1.477 . S
C227 H247 0.930 . S
C228 N224 1.362 . S
C228 C225 1.431 . S
C228 C238 1.476 . S
H229 C223 0.929 . S
C230 O221 1.250 . S
C230 O222 1.258 . S
O231 Mn216 2.162 . S
O231 C219 1.281 . S
O232 Mn216 2.297 . S
O232 C219 1.236 . S
N233 Mn217 2.282 . S
N233 C234 1.328 . S
N233 C238 1.318 . S
C234 N233 1.328 . S
C234 C235 1.457 . S
C234 H239 0.929 . S
C235 C234 1.457 . S
C235 C236 1.291 . S
C235 H248 0.931 . S
C236 C235 1.291 . S
C236 C237 1.373 . S
C236 H249 0.929 . S
C237 C236 1.373 . S
C237 C238 1.396 . S
C237 C244 1.403 . S
C238 C228 1.476 . S
C238 N233 1.318 . S
C238 C237 1.396 . S
H239 C234 0.929 . S
O240 Mn216 2.385 . S
O240 C218 1.234 . S
O241 Mn216 2.209 . S
O241 Mn217 2.215 . S
O241 C218 1.283 . S
O242 Mn216 2.094 . S
O242 C220 1.240 . S
O243 Mn217 2.117 . S
O243 C220 1.264 . S
C244 C237 1.403 . S
C244 C245 1.399 . S
C244 H250 0.929 . S
C245 C225 1.449 . S
C245 C244 1.399 . S
C245 H251 0.930 . S
H246 C226 0.931 . S
H247 C227 0.930 . S
H248 C235 0.931 . S
H249 C236 0.929 . S
H250 C244 0.929 . S
H251 C245 0.930 . S
Mn252 O257 2.095 . S
Mn252 O267 2.162 . S
Mn252 O268 2.297 . S
Mn252 O276 2.385 . S
Mn252 O277 2.209 . S
Mn252 O278 2.094 . S
Mn253 O258 2.121 . S
Mn253 N260 2.257 . S
Mn253 N269 2.282 . S
Mn253 O277 2.215 . S
Mn253 O279 2.117 . S
C254 O276 1.234 . S
C254 O277 1.283 . S
C255 O267 1.281 . S
C255 O268 1.236 . S
C256 O278 1.240 . S
C256 O279 1.264 . S
O257 Mn252 2.095 . S
O257 C266 1.250 . S
O258 Mn253 2.121 . S
O258 C266 1.258 . S
C259 N260 1.326 . S
C259 C263 1.460 . S
C259 H265 0.929 . S
N260 Mn253 2.257 . S
N260 C259 1.326 . S
N260 C264 1.362 . S
C261 C262 1.258 . S
C261 C264 1.431 . S
C261 C281 1.449 . S
C262 C261 1.258 . S
C262 C263 1.477 . S
C262 H282 0.931 . S
C263 C259 1.460 . S
C263 C262 1.477 . S
C263 H283 0.930 . S
C264 N260 1.362 . S
C264 C261 1.431 . S
C264 C274 1.476 . S
H265 C259 0.929 . S
C266 O257 1.250 . S
C266 O258 1.258 . S
O267 Mn252 2.162 . S
O267 C255 1.281 . S
O268 Mn252 2.297 . S
O268 C255 1.236 . S
N269 Mn253 2.282 . S
N269 C270 1.328 . S
N269 C274 1.318 . S
C270 N269 1.328 . S
C270 C271 1.457 . S
C270 H275 0.929 . S
C271 C270 1.457 . S
C271 C272 1.291 . S
C271 H284 0.931 . S
C272 C271 1.291 . S
C272 C273 1.373 . S
C272 H285 0.929 . S
C273 C272 1.373 . S
C273 C274 1.396 . S
C273 C280 1.403 . S
C274 C264 1.476 . S
C274 N269 1.318 . S
C274 C273 1.396 . S
H275 C270 0.929 . S
O276 Mn252 2.385 . S
O276 C254 1.234 . S
O277 Mn252 2.209 . S
O277 Mn253 2.215 . S
O277 C254 1.283 . S
O278 Mn252 2.094 . S
O278 C256 1.240 . S
O279 Mn253 2.117 . S
O279 C256 1.264 . S
C280 C273 1.403 . S
C280 C281 1.399 . S
C280 H286 0.929 . S
C281 C261 1.449 . S
C281 C280 1.399 . S
C281 H287 0.930 . S
H282 C262 0.931 . S
H283 C263 0.930 . S
H284 C271 0.931 . S
H285 C272 0.929 . S
H286 C280 0.929 . S
H287 C281 0.930 . S
Mn288 O293 2.095 . S
Mn288 O303 2.162 . S
Mn288 O304 2.297 . S
Mn288 O312 2.385 . S
Mn288 O313 2.209 . S
Mn288 O314 2.094 . S
Mn289 O294 2.121 . S
Mn289 N296 2.257 . S
Mn289 N305 2.282 . S
Mn289 O313 2.215 . S
Mn289 O315 2.117 . S
C290 O312 1.234 . S
C290 O313 1.283 . S
C291 O303 1.281 . S
C291 O304 1.236 . S
C292 O314 1.240 . S
C292 O315 1.264 . S
O293 Mn288 2.095 . S
O293 C302 1.250 . S
O294 Mn289 2.121 . S
O294 C302 1.258 . S
C295 N296 1.326 . S
C295 C299 1.460 . S
C295 H301 0.929 . S
N296 Mn289 2.257 . S
N296 C295 1.326 . S
N296 C300 1.362 . S
C297 C298 1.258 . S
C297 C300 1.431 . S
C297 C317 1.449 . S
C298 C297 1.258 . S
C298 C299 1.477 . S
C298 H318 0.931 . S
C299 C295 1.460 . S
C299 C298 1.477 . S
C299 H319 0.930 . S
C300 N296 1.362 . S
C300 C297 1.431 . S
C300 C310 1.476 . S
H301 C295 0.929 . S
C302 O293 1.250 . S
C302 O294 1.258 . S
O303 Mn288 2.162 . S
O303 C291 1.281 . S
O304 Mn288 2.297 . S
O304 C291 1.236 . S
N305 Mn289 2.282 . S
N305 C306 1.328 . S
N305 C310 1.318 . S
C306 N305 1.328 . S
C306 C307 1.457 . S
C306 H311 0.929 . S
C307 C306 1.457 . S
C307 C308 1.291 . S
C307 H320 0.931 . S
C308 C307 1.291 . S
C308 C309 1.373 . S
C308 H321 0.929 . S
C309 C308 1.373 . S
C309 C310 1.396 . S
C309 C316 1.403 . S
C310 C300 1.476 . S
C310 N305 1.318 . S
C310 C309 1.396 . S
H311 C306 0.929 . S
O312 Mn288 2.385 . S
O312 C290 1.234 . S
O313 Mn288 2.209 . S
O313 Mn289 2.215 . S
O313 C290 1.283 . S
O314 Mn288 2.094 . S
O314 C292 1.240 . S
O315 Mn289 2.117 . S
O315 C292 1.264 . S
C316 C309 1.403 . S
C316 C317 1.399 . S
C316 H322 0.929 . S
C317 C297 1.449 . S
C317 C316 1.399 . S
C317 H323 0.930 . S
H318 C298 0.931 . S
H319 C299 0.930 . S
H320 C307 0.931 . S
H321 C308 0.929 . S
H322 C316 0.929 . S
H323 C317 0.930 . S
Mn324 O329 2.095 . S
Mn324 O339 2.162 . S
Mn324 O340 2.297 . S
Mn324 O348 2.385 . S
Mn324 O349 2.209 . S
Mn324 O350 2.094 . S
Mn325 O330 2.121 . S
Mn325 N332 2.257 . S
Mn325 N341 2.282 . S
Mn325 O349 2.215 . S
Mn325 O351 2.117 . S
C326 O348 1.234 . S
C326 O349 1.283 . S
C327 O339 1.281 . S
C327 O340 1.236 . S
C328 O350 1.240 . S
C328 O351 1.264 . S
O329 Mn324 2.095 . S
O329 C338 1.250 . S
O330 Mn325 2.121 . S
O330 C338 1.258 . S
C331 N332 1.326 . S
C331 C335 1.460 . S
C331 H337 0.929 . S
N332 Mn325 2.257 . S
N332 C331 1.326 . S
N332 C336 1.362 . S
C333 C334 1.258 . S
C333 C336 1.431 . S
C333 C353 1.449 . S
C334 C333 1.258 . S
C334 C335 1.477 . S
C334 H354 0.931 . S
C335 C331 1.460 . S
C335 C334 1.477 . S
C335 H355 0.930 . S
C336 N332 1.362 . S
C336 C333 1.431 . S
C336 C346 1.476 . S
H337 C331 0.929 . S
C338 O329 1.250 . S
C338 O330 1.258 . S
O339 Mn324 2.162 . S
O339 C327 1.281 . S
O340 Mn324 2.297 . S
O340 C327 1.236 . S
N341 Mn325 2.282 . S
N341 C342 1.328 . S
N341 C346 1.318 . S
C342 N341 1.328 . S
C342 C343 1.457 . S
C342 H347 0.929 . S
C343 C342 1.457 . S
C343 C344 1.291 . S
C343 H356 0.931 . S
C344 C343 1.291 . S
C344 C345 1.373 . S
C344 H357 0.929 . S
C345 C344 1.373 . S
C345 C346 1.396 . S
C345 C352 1.403 . S
C346 C336 1.476 . S
C346 N341 1.318 . S
C346 C345 1.396 . S
H347 C342 0.929 . S
O348 Mn324 2.385 . S
O348 C326 1.234 . S
O349 Mn324 2.209 . S
O349 Mn325 2.215 . S
O349 C326 1.283 . S
O350 Mn324 2.094 . S
O350 C328 1.240 . S
O351 Mn325 2.117 . S
O351 C328 1.264 . S
C352 C345 1.403 . S
C352 C353 1.399 . S
C352 H358 0.929 . S
C353 C333 1.449 . S
C353 C352 1.399 . S
C353 H359 0.930 . S
H354 C334 0.931 . S
H355 C335 0.930 . S
H356 C343 0.931 . S
H357 C344 0.929 . S
H358 C352 0.929 . S
H359 C353 0.930 . S
Mn360 O365 2.095 . S
Mn360 O375 2.162 . S
Mn360 O376 2.297 . S
Mn360 O384 2.385 . S
Mn360 O385 2.209 . S
Mn360 O386 2.094 . S
Mn361 O366 2.121 . S
Mn361 N368 2.257 . S
Mn361 N377 2.282 . S
Mn361 O385 2.215 . S
Mn361 O387 2.117 . S
C362 O384 1.234 . S
C362 O385 1.283 . S
C363 O375 1.281 . S
C363 O376 1.236 . S
C364 O386 1.240 . S
C364 O387 1.264 . S
O365 Mn360 2.095 . S
O365 C374 1.250 . S
O366 Mn361 2.121 . S
O366 C374 1.258 . S
C367 N368 1.326 . S
C367 C371 1.460 . S
C367 H373 0.929 . S
N368 Mn361 2.257 . S
N368 C367 1.326 . S
N368 C372 1.362 . S
C369 C370 1.258 . S
C369 C372 1.431 . S
C369 C389 1.449 . S
C370 C369 1.258 . S
C370 C371 1.477 . S
C370 H390 0.931 . S
C371 C367 1.460 . S
C371 C370 1.477 . S
C371 H391 0.930 . S
C372 N368 1.362 . S
C372 C369 1.431 . S
C372 C382 1.476 . S
H373 C367 0.929 . S
C374 O365 1.250 . S
C374 O366 1.258 . S
O375 Mn360 2.162 . S
O375 C363 1.281 . S
O376 Mn360 2.297 . S
O376 C363 1.236 . S
N377 Mn361 2.282 . S
N377 C378 1.328 . S
N377 C382 1.318 . S
C378 N377 1.328 . S
C378 C379 1.457 . S
C378 H383 0.929 . S
C379 C378 1.457 . S
C379 C380 1.291 . S
C379 H392 0.931 . S
C380 C379 1.291 . S
C380 C381 1.373 . S
C380 H393 0.929 . S
C381 C380 1.373 . S
C381 C382 1.396 . S
C381 C388 1.403 . S
C382 C372 1.476 . S
C382 N377 1.318 . S
C382 C381 1.396 . S
H383 C378 0.929 . S
O384 Mn360 2.385 . S
O384 C362 1.234 . S
O385 Mn360 2.209 . S
O385 Mn361 2.215 . S
O385 C362 1.283 . S
O386 Mn360 2.094 . S
O386 C364 1.240 . S
O387 Mn361 2.117 . S
O387 C364 1.264 . S
C388 C381 1.403 . S
C388 C389 1.399 . S
C388 H394 0.929 . S
C389 C369 1.449 . S
C389 C388 1.399 . S
C389 H395 0.930 . S
H390 C370 0.931 . S
H391 C371 0.930 . S
H392 C379 0.931 . S
H393 C380 0.929 . S
H394 C388 0.929 . S
H395 C389 0.930 . S
Mn396 O401 2.095 . S
Mn396 O411 2.162 . S
Mn396 O412 2.297 . S
Mn396 O420 2.385 . S
Mn396 O421 2.209 . S
Mn396 O422 2.094 . S
Mn397 O402 2.121 . S
Mn397 N404 2.257 . S
Mn397 N413 2.282 . S
Mn397 O421 2.215 . S
Mn397 O423 2.117 . S
C398 O420 1.234 . S
C398 O421 1.283 . S
C399 O411 1.281 . S
C399 O412 1.236 . S
C400 O422 1.240 . S
C400 O423 1.264 . S
O401 Mn396 2.095 . S
O401 C410 1.250 . S
O402 Mn397 2.121 . S
O402 C410 1.258 . S
C403 N404 1.326 . S
C403 C407 1.460 . S
C403 H409 0.929 . S
N404 Mn397 2.257 . S
N404 C403 1.326 . S
N404 C408 1.362 . S
C405 C406 1.258 . S
C405 C408 1.431 . S
C405 C425 1.449 . S
C406 C405 1.258 . S
C406 C407 1.477 . S
C406 H426 0.931 . S
C407 C403 1.460 . S
C407 C406 1.477 . S
C407 H427 0.930 . S
C408 N404 1.362 . S
C408 C405 1.431 . S
C408 C418 1.476 . S
H409 C403 0.929 . S
C410 O401 1.250 . S
C410 O402 1.258 . S
O411 Mn396 2.162 . S
O411 C399 1.281 . S
O412 Mn396 2.297 . S
O412 C399 1.236 . S
N413 Mn397 2.282 . S
N413 C414 1.328 . S
N413 C418 1.318 . S
C414 N413 1.328 . S
C414 C415 1.457 . S
C414 H419 0.929 . S
C415 C414 1.457 . S
C415 C416 1.291 . S
C415 H428 0.931 . S
C416 C415 1.291 . S
C416 C417 1.373 . S
C416 H429 0.929 . S
C417 C416 1.373 . S
C417 C418 1.396 . S
C417 C424 1.403 . S
C418 C408 1.476 . S
C418 N413 1.318 . S
C418 C417 1.396 . S
H419 C414 0.929 . S
O420 Mn396 2.385 . S
O420 C398 1.234 . S
O421 Mn396 2.209 . S
O421 Mn397 2.215 . S
O421 C398 1.283 . S
O422 Mn396 2.094 . S
O422 C400 1.240 . S
O423 Mn397 2.117 . S
O423 C400 1.264 . S
C424 C417 1.403 . S
C424 C425 1.399 . S
C424 H430 0.929 . S
C425 C405 1.449 . S
C425 C424 1.399 . S
C425 H431 0.930 . S
H426 C406 0.931 . S
H427 C407 0.930 . S
H428 C415 0.931 . S
H429 C416 0.929 . S
H430 C424 0.929 . S
H431 C425 0.930 . S
Mn432 O437 2.095 . S
Mn432 O447 2.162 . S
Mn432 O448 2.297 . S
Mn432 O456 2.385 . S
Mn432 O457 2.209 . S
Mn432 O458 2.094 . S
Mn433 O438 2.121 . S
Mn433 N440 2.257 . S
Mn433 N449 2.282 . S
Mn433 O457 2.215 . S
Mn433 O459 2.117 . S
C434 O456 1.234 . S
C434 O457 1.283 . S
C435 O447 1.281 . S
C435 O448 1.236 . S
C436 O458 1.240 . S
C436 O459 1.264 . S
O437 Mn432 2.095 . S
O437 C446 1.250 . S
O438 Mn433 2.121 . S
O438 C446 1.258 . S
C439 N440 1.326 . S
C439 C443 1.460 . S
C439 H445 0.929 . S
N440 Mn433 2.257 . S
N440 C439 1.326 . S
N440 C444 1.362 . S
C441 C442 1.258 . S
C441 C444 1.431 . S
C441 C461 1.449 . S
C442 C441 1.258 . S
C442 C443 1.477 . S
C442 H462 0.931 . S
C443 C439 1.460 . S
C443 C442 1.477 . S
C443 H463 0.930 . S
C444 N440 1.362 . S
C444 C441 1.431 . S
C444 C454 1.476 . S
H445 C439 0.929 . S
C446 O437 1.250 . S
C446 O438 1.258 . S
O447 Mn432 2.162 . S
O447 C435 1.281 . S
O448 Mn432 2.297 . S
O448 C435 1.236 . S
N449 Mn433 2.282 . S
N449 C450 1.328 . S
N449 C454 1.318 . S
C450 N449 1.328 . S
C450 C451 1.457 . S
C450 H455 0.929 . S
C451 C450 1.457 . S
C451 C452 1.291 . S
C451 H464 0.931 . S
C452 C451 1.291 . S
C452 C453 1.373 . S
C452 H465 0.929 . S
C453 C452 1.373 . S
C453 C454 1.396 . S
C453 C460 1.403 . S
C454 C444 1.476 . S
C454 N449 1.318 . S
C454 C453 1.396 . S
H455 C450 0.929 . S
O456 Mn432 2.385 . S
O456 C434 1.234 . S
O457 Mn432 2.209 . S
O457 Mn433 2.215 . S
O457 C434 1.283 . S
O458 Mn432 2.094 . S
O458 C436 1.240 . S
O459 Mn433 2.117 . S
O459 C436 1.264 . S
C460 C453 1.403 . S
C460 C461 1.399 . S
C460 H466 0.929 . S
C461 C441 1.449 . S
C461 C460 1.399 . S
C461 H467 0.930 . S
H462 C442 0.931 . S
H463 C443 0.930 . S
H464 C451 0.931 . S
H465 C452 0.929 . S
H466 C460 0.929 . S
H467 C461 0.930 . S
Mn468 O473 2.095 . S
Mn468 O483 2.162 . S
Mn468 O484 2.297 . S
Mn468 O492 2.385 . S
Mn468 O493 2.209 . S
Mn468 O494 2.094 . S
Mn469 O474 2.121 . S
Mn469 N476 2.257 . S
Mn469 N485 2.282 . S
Mn469 O493 2.215 . S
Mn469 O495 2.117 . S
C470 O492 1.234 . S
C470 O493 1.283 . S
C471 O483 1.281 . S
C471 O484 1.236 . S
C472 O494 1.240 . S
C472 O495 1.264 . S
O473 Mn468 2.095 . S
O473 C482 1.250 . S
O474 Mn469 2.121 . S
O474 C482 1.258 . S
C475 N476 1.326 . S
C475 C479 1.460 . S
C475 H481 0.929 . S
N476 Mn469 2.257 . S
N476 C475 1.326 . S
N476 C480 1.362 . S
C477 C478 1.258 . S
C477 C480 1.431 . S
C477 C497 1.449 . S
C478 C477 1.258 . S
C478 C479 1.477 . S
C478 H498 0.931 . S
C479 C475 1.460 . S
C479 C478 1.477 . S
C479 H499 0.930 . S
C480 N476 1.362 . S
C480 C477 1.431 . S
C480 C490 1.476 . S
H481 C475 0.929 . S
C482 O473 1.250 . S
C482 O474 1.258 . S
O483 Mn468 2.162 . S
O483 C471 1.281 . S
O484 Mn468 2.297 . S
O484 C471 1.236 . S
N485 Mn469 2.282 . S
N485 C486 1.328 . S
N485 C490 1.318 . S
C486 N485 1.328 . S
C486 C487 1.457 . S
C486 H491 0.929 . S
C487 C486 1.457 . S
C487 C488 1.291 . S
C487 H500 0.931 . S
C488 C487 1.291 . S
C488 C489 1.373 . S
C488 H501 0.929 . S
C489 C488 1.373 . S
C489 C490 1.396 . S
C489 C496 1.403 . S
C490 C480 1.476 . S
C490 N485 1.318 . S
C490 C489 1.396 . S
H491 C486 0.929 . S
O492 Mn468 2.385 . S
O492 C470 1.234 . S
O493 Mn468 2.209 . S
O493 Mn469 2.215 . S
O493 C470 1.283 . S
O494 Mn468 2.094 . S
O494 C472 1.240 . S
O495 Mn469 2.117 . S
O495 C472 1.264 . S
C496 C489 1.403 . S
C496 C497 1.399 . S
C496 H502 0.929 . S
C497 C477 1.449 . S
C497 C496 1.399 . S
C497 H503 0.930 . S
H498 C478 0.931 . S
H499 C479 0.930 . S
H500 C487 0.931 . S
H501 C488 0.929 . S
H502 C496 0.929 . S
H503 C497 0.930 . S
Mn504 O509 2.095 . S
Mn504 O519 2.162 . S
Mn504 O520 2.297 . S
Mn504 O528 2.385 . S
Mn504 O529 2.209 . S
Mn504 O530 2.094 . S
Mn505 O510 2.121 . S
Mn505 N512 2.257 . S
Mn505 N521 2.282 . S
Mn505 O529 2.215 . S
Mn505 O531 2.117 . S
C506 O528 1.234 . S
C506 O529 1.283 . S
C507 O519 1.281 . S
C507 O520 1.236 . S
C508 O530 1.240 . S
C508 O531 1.264 . S
O509 Mn504 2.095 . S
O509 C518 1.250 . S
O510 Mn505 2.121 . S
O510 C518 1.258 . S
C511 N512 1.326 . S
C511 C515 1.460 . S
C511 H517 0.929 . S
N512 Mn505 2.257 . S
N512 C511 1.326 . S
N512 C516 1.362 . S
C513 C514 1.258 . S
C513 C516 1.431 . S
C513 C533 1.449 . S
C514 C513 1.258 . S
C514 C515 1.477 . S
C514 H534 0.931 . S
C515 C511 1.460 . S
C515 C514 1.477 . S
C515 H535 0.930 . S
C516 N512 1.362 . S
C516 C513 1.431 . S
C516 C526 1.476 . S
H517 C511 0.929 . S
C518 O509 1.250 . S
C518 O510 1.258 . S
O519 Mn504 2.162 . S
O519 C507 1.281 . S
O520 Mn504 2.297 . S
O520 C507 1.236 . S
N521 Mn505 2.282 . S
N521 C522 1.328 . S
N521 C526 1.318 . S
C522 N521 1.328 . S
C522 C523 1.457 . S
C522 H527 0.929 . S
C523 C522 1.457 . S
C523 C524 1.291 . S
C523 H536 0.931 . S
C524 C523 1.291 . S
C524 C525 1.373 . S
C524 H537 0.929 . S
C525 C524 1.373 . S
C525 C526 1.396 . S
C525 C532 1.403 . S
C526 C516 1.476 . S
C526 N521 1.318 . S
C526 C525 1.396 . S
H527 C522 0.929 . S
O528 Mn504 2.385 . S
O528 C506 1.234 . S
O529 Mn504 2.209 . S
O529 Mn505 2.215 . S
O529 C506 1.283 . S
O530 Mn504 2.094 . S
O530 C508 1.240 . S
O531 Mn505 2.117 . S
O531 C508 1.264 . S
C532 C525 1.403 . S
C532 C533 1.399 . S
C532 H538 0.929 . S
C533 C513 1.449 . S
C533 C532 1.399 . S
C533 H539 0.930 . S
H534 C514 0.931 . S
H535 C515 0.930 . S
H536 C523 0.931 . S
H537 C524 0.929 . S
H538 C532 0.929 . S
H539 C533 0.930 . S
Mn540 O545 2.095 . S
Mn540 O555 2.162 . S
Mn540 O556 2.297 . S
Mn540 O564 2.385 . S
Mn540 O565 2.209 . S
Mn540 O566 2.094 . S
Mn541 O546 2.121 . S
Mn541 N548 2.257 . S
Mn541 N557 2.282 . S
Mn541 O565 2.215 . S
Mn541 O567 2.117 . S
C542 O564 1.234 . S
C542 O565 1.283 . S
C543 O555 1.281 . S
C543 O556 1.236 . S
C544 O566 1.240 . S
C544 O567 1.264 . S
O545 Mn540 2.095 . S
O545 C554 1.250 . S
O546 Mn541 2.121 . S
O546 C554 1.258 . S
C547 N548 1.326 . S
C547 C551 1.460 . S
C547 H553 0.929 . S
N548 Mn541 2.257 . S
N548 C547 1.326 . S
N548 C552 1.362 . S
C549 C550 1.258 . S
C549 C552 1.431 . S
C549 C569 1.449 . S
C550 C549 1.258 . S
C550 C551 1.477 . S
C550 H570 0.931 . S
C551 C547 1.460 . S
C551 C550 1.477 . S
C551 H571 0.930 . S
C552 N548 1.362 . S
C552 C549 1.431 . S
C552 C562 1.476 . S
H553 C547 0.929 . S
C554 O545 1.250 . S
C554 O546 1.258 . S
O555 Mn540 2.162 . S
O555 C543 1.281 . S
O556 Mn540 2.297 . S
O556 C543 1.236 . S
N557 Mn541 2.282 . S
N557 C558 1.328 . S
N557 C562 1.318 . S
C558 N557 1.328 . S
C558 C559 1.457 . S
C558 H563 0.929 . S
C559 C558 1.457 . S
C559 C560 1.291 . S
C559 H572 0.931 . S
C560 C559 1.291 . S
C560 C561 1.373 . S
C560 H573 0.929 . S
C561 C560 1.373 . S
C561 C562 1.396 . S
C561 C568 1.403 . S
C562 C552 1.476 . S
C562 N557 1.318 . S
C562 C561 1.396 . S
H563 C558 0.929 . S
O564 Mn540 2.385 . S
O564 C542 1.234 . S
O565 Mn540 2.209 . S
O565 Mn541 2.215 . S
O565 C542 1.283 . S
O566 Mn540 2.094 . S
O566 C544 1.240 . S
O567 Mn541 2.117 . S
O567 C544 1.264 . S
C568 C561 1.403 . S
C568 C569 1.399 . S
C568 H574 0.929 . S
C569 C549 1.449 . S
C569 C568 1.399 . S
C569 H575 0.930 . S
H570 C550 0.931 . S
H571 C551 0.930 . S
H572 C559 0.931 . S
H573 C560 0.929 . S
H574 C568 0.929 . S
H575 C569 0.930 . S
H576 C588 0.930 . S
H577 C590 0.930 . S
H578 C591 0.930 . S
H579 C595 0.959 . S
H580 C595 0.959 . S
H581 C595 0.961 . S
H582 C596 0.960 . S
H583 C596 0.961 . S
H584 C596 0.959 . S
H585 C599 0.929 . S
H586 C600 0.931 . S
H587 C602 0.930 1_554 S
C588 H576 0.930 . S
C588 C589 1.399 . S
C588 C593 1.399 . S
C589 C588 1.399 . S
C589 C590 1.376 . S
C590 H577 0.930 . S
C590 C589 1.376 . S
C590 C591 1.388 1_554 S
C591 H578 0.930 . S
C591 C590 1.388 1_556 S
C591 C592 1.390 1_556 S
C592 C591 1.390 1_554 S
C592 C593 1.394 . S
C592 C598 1.465 1_554 S
C593 C588 1.399 . S
C593 C592 1.394 . S
C593 C594 1.516 . S
C594 C593 1.516 . S
C594 C595 1.502 . S
C594 C596 1.561 . S
C594 C597 1.526 . S
C595 H579 0.959 . S
C595 H580 0.959 . S
C595 H581 0.961 . S
C595 C594 1.502 . S
C596 H582 0.960 . S
C596 H583 0.961 . S
C596 H584 0.959 . S
C596 C594 1.561 . S
C597 C594 1.526 . S
C597 C598 1.396 1_554 S
C597 C602 1.390 1_554 S
C598 C592 1.465 1_556 S
C598 C597 1.396 1_556 S
C598 C599 1.399 . S
C599 H585 0.929 . S
C599 C598 1.399 . S
C599 C600 1.385 . S
C600 H586 0.931 . S
C600 C599 1.385 . S
C600 C601 1.389 . S
C601 C600 1.389 . S
C601 C602 1.387 . S
C602 H587 0.930 1_556 S
C602 C597 1.390 1_556 S
C602 C601 1.387 . S
H603 C615 0.930 . S
H604 C617 0.930 . S
H605 C618 0.930 . S
H606 C622 0.959 . S
H607 C622 0.959 . S
H608 C622 0.961 . S
H609 C623 0.960 . S
H610 C623 0.961 . S
H611 C623 0.959 . S
H612 C626 0.929 . S
H613 C627 0.931 . S
H614 C629 0.930 . S
C615 H603 0.930 . S
C615 C616 1.399 . S
C615 C620 1.399 . S
C616 C615 1.399 . S
C616 C617 1.376 . S
C617 H604 0.930 . S
C617 C616 1.376 . S
C617 C618 1.388 . S
C618 H605 0.930 . S
C618 C617 1.388 . S
C618 C619 1.390 . S
C619 C618 1.390 . S
C619 C620 1.394 . S
C619 C625 1.465 . S
C620 C615 1.399 . S
C620 C619 1.394 . S
C620 C621 1.516 . S
C621 C620 1.516 . S
C621 C622 1.502 . S
C621 C623 1.561 . S
C621 C624 1.526 . S
C622 H606 0.959 . S
C622 H607 0.959 . S
C622 H608 0.961 . S
C622 C621 1.502 . S
C623 H609 0.960 . S
C623 H610 0.961 . S
C623 H611 0.959 . S
C623 C621 1.561 . S
C624 C621 1.526 . S
C624 C625 1.396 . S
C624 C629 1.390 . S
C625 C619 1.465 . S
C625 C624 1.396 . S
C625 C626 1.399 . S
C626 H612 0.929 . S
C626 C625 1.399 . S
C626 C627 1.385 . S
C627 H613 0.931 . S
C627 C626 1.385 . S
C627 C628 1.389 . S
C628 C627 1.389 . S
C628 C629 1.387 . S
C629 H614 0.930 . S
C629 C624 1.390 . S
C629 C628 1.387 . S
H630 C642 0.930 . S
H631 C644 0.930 . S
H632 C645 0.930 . S
H633 C649 0.959 . S
H634 C649 0.959 . S
H635 C649 0.961 . S
H636 C650 0.960 . S
H637 C650 0.961 . S
H638 C650 0.959 . S
H639 C653 0.929 . S
H640 C654 0.931 . S
H641 C656 0.930 . S
C642 H630 0.930 . S
C642 C643 1.399 . S
C642 C647 1.399 . S
C643 C642 1.399 . S
C643 C644 1.376 . S
C644 H631 0.930 . S
C644 C643 1.376 . S
C644 C645 1.388 . S
C645 H632 0.930 . S
C645 C644 1.388 . S
C645 C646 1.390 . S
C646 C645 1.390 . S
C646 C647 1.394 . S
C646 C652 1.465 . S
C647 C642 1.399 . S
C647 C646 1.394 . S
C647 C648 1.516 1_556 S
C648 C647 1.516 1_554 S
C648 C649 1.502 . S
C648 C650 1.561 . S
C648 C651 1.526 . S
C649 H633 0.959 . S
C649 H634 0.959 . S
C649 H635 0.961 . S
C649 C648 1.502 . S
C650 H636 0.960 . S
C650 H637 0.961 . S
C650 H638 0.959 . S
C650 C648 1.561 . S
C651 C648 1.526 . S
C651 C652 1.396 1_554 S
C651 C656 1.390 . S
C652 C646 1.465 . S
C652 C651 1.396 1_556 S
C652 C653 1.399 . S
C653 H639 0.929 . S
C653 C652 1.399 . S
C653 C654 1.385 1_556 S
C654 H640 0.931 . S
C654 C653 1.385 1_554 S
C654 C655 1.389 . S
C655 C654 1.389 . S
C655 C656 1.387 . S
C656 H641 0.930 . S
C656 C651 1.390 . S
C656 C655 1.387 . S
H657 C669 0.930 . S
H658 C671 0.930 . S
H659 C672 0.930 . S
H660 C676 0.959 . S
H661 C676 0.959 . S
H662 C676 0.961 . S
H663 C677 0.960 . S
H664 C677 0.961 . S
H665 C677 0.959 . S
H666 C680 0.929 . S
H667 C681 0.931 . S
H668 C683 0.930 . S
C669 H657 0.930 . S
C669 C670 1.399 . S
C669 C674 1.399 . S
C670 C669 1.399 . S
C670 C671 1.376 . S
C671 H658 0.930 . S
C671 C670 1.376 . S
C671 C672 1.388 . S
C672 H659 0.930 . S
C672 C671 1.388 . S
C672 C673 1.390 . S
C673 C672 1.390 . S
C673 C674 1.394 . S
C673 C679 1.465 . S
C674 C669 1.399 . S
C674 C673 1.394 . S
C674 C675 1.516 . S
C675 C674 1.516 . S
C675 C676 1.502 . S
C675 C677 1.561 . S
C675 C678 1.526 . S
C676 H660 0.959 . S
C676 H661 0.959 . S
C676 H662 0.961 . S
C676 C675 1.502 . S
C677 H663 0.960 . S
C677 H664 0.961 . S
C677 H665 0.959 . S
C677 C675 1.561 . S
C678 C675 1.526 . S
C678 C679 1.396 . S
C678 C683 1.390 . S
C679 C673 1.465 . S
C679 C678 1.396 . S
C679 C680 1.399 . S
C680 H666 0.929 . S
C680 C679 1.399 . S
C680 C681 1.385 . S
C681 H667 0.931 . S
C681 C680 1.385 . S
C681 C682 1.389 . S
C682 C681 1.389 . S
C682 C683 1.387 . S
C683 H668 0.930 . S
C683 C678 1.390 . S
C683 C682 1.387 . S
H684 C696 0.930 . S
H685 C698 0.930 . S
H686 C699 0.930 . S
H687 C703 0.959 . S
H688 C703 0.959 . S
H689 C703 0.961 . S
H690 C704 0.960 . S
H691 C704 0.961 . S
H692 C704 0.959 . S
H693 C707 0.929 . S
H694 C708 0.931 . S
H695 C710 0.930 . S
C696 H684 0.930 . S
C696 C697 1.399 . S
C696 C701 1.399 . S
C697 C696 1.399 . S
C697 C698 1.376 . S
C698 H685 0.930 . S
C698 C697 1.376 . S
C698 C699 1.388 . S
C699 H686 0.930 . S
C699 C698 1.388 . S
C699 C700 1.390 . S
C700 C699 1.390 . S
C700 C701 1.394 . S
C700 C706 1.465 1_554 S
C701 C696 1.399 . S
C701 C700 1.394 . S
C701 C702 1.516 . S
C702 C701 1.516 . S
C702 C703 1.502 . S
C702 C704 1.561 1_554 S
C702 C705 1.526 1_554 S
C703 H687 0.959 . S
C703 H688 0.959 . S
C703 H689 0.961 . S
C703 C702 1.502 . S
C704 H690 0.960 . S
C704 H691 0.961 . S
C704 H692 0.959 . S
C704 C702 1.561 1_556 S
C705 C702 1.526 1_556 S
C705 C706 1.396 . S
C705 C710 1.390 . S
C706 C700 1.465 1_556 S
C706 C705 1.396 . S
C706 C707 1.399 . S
C707 H693 0.929 . S
C707 C706 1.399 . S
C707 C708 1.385 . S
C708 H694 0.931 . S
C708 C707 1.385 . S
C708 C709 1.389 . S
C709 C708 1.389 . S
C709 C710 1.387 . S
C710 H695 0.930 . S
C710 C705 1.390 . S
C710 C709 1.387 . S
H711 C723 0.930 . S
H712 C725 0.930 . S
H713 C726 0.930 . S
H714 C730 0.959 . S
H715 C730 0.959 . S
H716 C730 0.961 . S
H717 C731 0.960 . S
H718 C731 0.961 . S
H719 C731 0.959 . S
H720 C734 0.929 . S
H721 C735 0.931 . S
H722 C737 0.930 . S
C723 H711 0.930 . S
C723 C724 1.399 . S
C723 C728 1.399 . S
C724 C723 1.399 . S
C724 C725 1.376 . S
C725 H712 0.930 . S
C725 C724 1.376 . S
C725 C726 1.388 . S
C726 H713 0.930 . S
C726 C725 1.388 . S
C726 C727 1.390 . S
C727 C726 1.390 . S
C727 C728 1.394 . S
C727 C733 1.465 . S
C728 C723 1.399 . S
C728 C727 1.394 . S
C728 C729 1.516 . S
C729 C728 1.516 . S
C729 C730 1.502 . S
C729 C731 1.561 . S
C729 C732 1.526 . S
C730 H714 0.959 . S
C730 H715 0.959 . S
C730 H716 0.961 . S
C730 C729 1.502 . S
C731 H717 0.960 . S
C731 H718 0.961 . S
C731 H719 0.959 . S
C731 C729 1.561 . S
C732 C729 1.526 . S
C732 C733 1.396 . S
C732 C737 1.390 . S
C733 C727 1.465 . S
C733 C732 1.396 . S
C733 C734 1.399 . S
C734 H720 0.929 . S
C734 C733 1.399 . S
C734 C735 1.385 . S
C735 H721 0.931 . S
C735 C734 1.385 . S
C735 C736 1.389 . S
C736 C735 1.389 . S
C736 C737 1.387 . S
C737 H722 0.930 . S
C737 C732 1.390 . S
C737 C736 1.387 . S
H738 C750 0.930 . S
H739 C752 0.930 . S
H740 C753 0.930 . S
H741 C757 0.959 . S
H742 C757 0.959 . S
H743 C757 0.961 . S
H744 C758 0.960 . S
H745 C758 0.961 . S
H746 C758 0.959 . S
H747 C761 0.929 . S
H748 C762 0.931 . S
H749 C764 0.930 1_556 S
C750 H738 0.930 . S
C750 C751 1.399 . S
C750 C755 1.399 . S
C751 C750 1.399 . S
C751 C752 1.376 . S
C752 H739 0.930 . S
C752 C751 1.376 . S
C752 C753 1.388 1_556 S
C753 H740 0.930 . S
C753 C752 1.388 1_554 S
C753 C754 1.390 1_554 S
C754 C753 1.390 1_556 S
C754 C755 1.394 . S
C754 C760 1.465 1_556 S
C755 C750 1.399 . S
C755 C754 1.394 . S
C755 C756 1.516 . S
C756 C755 1.516 . S
C756 C757 1.502 . S
C756 C758 1.561 . S
C756 C759 1.526 . S
C757 H741 0.959 . S
C757 H742 0.959 . S
C757 H743 0.961 . S
C757 C756 1.502 . S
C758 H744 0.960 . S
C758 H745 0.961 . S
C758 H746 0.959 . S
C758 C756 1.561 . S
C759 C756 1.526 . S
C759 C760 1.396 1_556 S
C759 C764 1.390 1_556 S
C760 C754 1.465 1_554 S
C760 C759 1.396 1_554 S
C760 C761 1.399 . S
C761 H747 0.929 . S
C761 C760 1.399 . S
C761 C762 1.385 . S
C762 H748 0.931 . S
C762 C761 1.385 . S
C762 C763 1.389 . S
C763 C762 1.389 . S
C763 C764 1.387 . S
C764 H749 0.930 1_554 S
C764 C759 1.390 1_554 S
C764 C763 1.387 . S
H765 C777 0.930 . S
H766 C779 0.930 . S
H767 C780 0.930 . S
H768 C784 0.959 . S
H769 C784 0.959 . S
H770 C784 0.961 . S
H771 C785 0.960 . S
H772 C785 0.961 . S
H773 C785 0.959 . S
H774 C788 0.929 . S
H775 C789 0.931 . S
H776 C791 0.930 . S
C777 H765 0.930 . S
C777 C778 1.399 . S
C777 C782 1.399 . S
C778 C777 1.399 . S
C778 C779 1.376 . S
C779 H766 0.930 . S
C779 C778 1.376 . S
C779 C780 1.388 . S
C780 H767 0.930 . S
C780 C779 1.388 . S
C780 C781 1.390 . S
C781 C780 1.390 . S
C781 C782 1.394 . S
C781 C787 1.465 . S
C782 C777 1.399 . S
C782 C781 1.394 . S
C782 C783 1.516 . S
C783 C782 1.516 . S
C783 C784 1.502 . S
C783 C785 1.561 . S
C783 C786 1.526 . S
C784 H768 0.959 . S
C784 H769 0.959 . S
C784 H770 0.961 . S
C784 C783 1.502 . S
C785 H771 0.960 . S
C785 H772 0.961 . S
C785 H773 0.959 . S
C785 C783 1.561 . S
C786 C783 1.526 . S
C786 C787 1.396 . S
C786 C791 1.390 . S
C787 C781 1.465 . S
C787 C786 1.396 . S
C787 C788 1.399 . S
C788 H774 0.929 . S
C788 C787 1.399 . S
C788 C789 1.385 . S
C789 H775 0.931 . S
C789 C788 1.385 . S
C789 C790 1.389 . S
C790 C789 1.389 . S
C790 C791 1.387 . S
C791 H776 0.930 . S
C791 C786 1.390 . S
C791 C790 1.387 . S
H792 C804 0.930 . S
H793 C806 0.930 . S
H794 C807 0.930 . S
H795 C811 0.959 . S
H796 C811 0.959 . S
H797 C811 0.961 . S
H798 C812 0.960 . S
H799 C812 0.961 . S
H800 C812 0.959 . S
H801 C815 0.929 1_545 S
H802 C816 0.931 . S
H803 C818 0.930 . S
C804 H792 0.930 . S
C804 C805 1.399 . S
C804 C809 1.399 . S
C805 C804 1.399 . S
C805 C806 1.376 . S
C806 H793 0.930 . S
C806 C805 1.376 . S
C806 C807 1.388 1_554 S
C807 H794 0.930 . S
C807 C806 1.388 1_556 S
C807 C808 1.394 . S
C808 C807 1.394 . S
C808 C809 1.374 1_556 S
C808 C814 1.478 1_545 S
C809 C804 1.399 . S
C809 C808 1.374 1_554 S
C809 C810 1.516 1_545 S
C810 C809 1.516 1_565 S
C810 C811 1.502 . S
C810 C812 1.561 . S
C810 C813 1.526 1_554 S
C811 H795 0.959 . S
C811 H796 0.959 . S
C811 H797 0.961 . S
C811 C810 1.502 . S
C812 H798 0.960 . S
C812 H799 0.961 . S
C812 H800 0.959 . S
C812 C810 1.561 . S
C813 C810 1.526 1_556 S
C813 C814 1.396 . S
C813 C818 1.390 . S
C814 C808 1.478 1_565 S
C814 C813 1.396 . S
C814 C815 1.399 . S
C815 H801 0.929 1_565 S
C815 C814 1.399 . S
C815 C816 1.385 . S
C816 H802 0.931 . S
C816 C815 1.385 . S
C816 C817 1.389 . S
C817 C816 1.389 . S
C817 C818 1.387 . S
C818 H803 0.930 . S
C818 C813 1.390 . S
C818 C817 1.387 . S
H819 C831 0.930 . S
H820 C833 0.930 . S
H821 C834 0.930 . S
H822 C838 0.959 . S
H823 C838 0.959 . S
H824 C838 0.961 . S
H825 C839 0.960 . S
H826 C839 0.961 . S
H827 C839 0.959 . S
H828 C842 0.929 . S
H829 C843 0.931 . S
H830 C845 0.930 . S
C831 H819 0.930 . S
C831 C832 1.399 . S
C831 C836 1.399 . S
C832 C831 1.399 . S
C832 C833 1.376 . S
C833 H820 0.930 . S
C833 C832 1.376 . S
C833 C834 1.388 . S
C834 H821 0.930 . S
C834 C833 1.388 . S
C834 C835 1.390 . S
C835 C834 1.390 . S
C835 C836 1.394 . S
C835 C841 1.465 1_565 S
C836 C831 1.399 . S
C836 C835 1.394 . S
C836 C837 1.516 1_565 S
C837 C836 1.516 1_545 S
C837 C838 1.502 . S
C837 C839 1.561 . S
C837 C840 1.526 . S
C838 H822 0.959 . S
C838 H823 0.959 . S
C838 H824 0.961 . S
C838 C837 1.502 . S
C839 H825 0.960 . S
C839 H826 0.961 . S
C839 H827 0.959 . S
C839 C837 1.561 . S
C840 C837 1.526 . S
C840 C841 1.396 . S
C840 C845 1.390 . S
C841 C835 1.465 1_545 S
C841 C840 1.396 . S
C841 C842 1.399 . S
C842 H828 0.929 . S
C842 C841 1.399 . S
C842 C843 1.385 . S
C843 H829 0.931 . S
C843 C842 1.385 . S
C843 C844 1.389 . S
C844 C843 1.389 . S
C844 C845 1.387 . S
C845 H830 0.930 . S
C845 C840 1.390 . S
C845 C844 1.387 . S
H846 C858 0.930 . S
H847 C860 0.930 . S
H848 C861 0.930 . S
H849 C865 0.959 . S
H850 C865 0.959 . S
H851 C865 0.961 . S
H852 C866 0.960 . S
H853 C866 0.961 . S
H854 C866 0.959 . S
H855 C869 0.929 . S
H856 C870 0.931 . S
H857 C872 0.930 . S
C858 H846 0.930 . S
C858 C859 1.399 1_554 S
C858 C863 1.399 . S
C859 C858 1.399 1_556 S
C859 C860 1.376 . S
C860 H847 0.930 . S
C860 C859 1.376 . S
C860 C861 1.388 . S
C861 H848 0.930 . S
C861 C860 1.388 . S
C861 C862 1.390 . S
C862 C861 1.390 . S
C862 C863 1.394 1_556 S
C862 C868 1.465 1_565 S
C863 C858 1.399 . S
C863 C862 1.394 1_554 S
C863 C864 1.516 . S
C864 C863 1.516 . S
C864 C865 1.502 . S
C864 C866 1.561 . S
C864 C867 1.526 1_565 S
C865 H849 0.959 . S
C865 H850 0.959 . S
C865 H851 0.961 . S
C865 C864 1.502 . S
C866 H852 0.960 . S
C866 H853 0.961 . S
C866 H854 0.959 . S
C866 C864 1.561 . S
C867 C864 1.526 1_545 S
C867 C868 1.396 1_554 S
C867 C872 1.390 . S
C868 C862 1.465 1_545 S
C868 C867 1.396 1_556 S
C868 C869 1.399 . S
C869 H855 0.929 . S
C869 C868 1.399 . S
C869 C870 1.385 . S
C870 H856 0.931 . S
C870 C869 1.385 . S
C870 C871 1.389 1_556 S
C871 C870 1.389 1_554 S
C871 C872 1.387 . S
C872 H857 0.930 . S
C872 C867 1.390 . S
C872 C871 1.387 . S
H873 C885 0.930 . S
H874 C887 0.930 . S
H875 C888 0.930 . S
H876 C892 0.959 . S
H877 C892 0.959 . S
H878 C892 0.961 . S
H879 C893 0.960 . S
H880 C893 0.961 . S
H881 C893 0.959 . S
H882 C896 0.929 . S
H883 C897 0.931 . S
H884 C899 0.930 . S
C885 H873 0.930 . S
C885 C886 1.399 . S
C885 C890 1.399 . S
C886 C885 1.399 . S
C886 C887 1.376 . S
C887 H874 0.930 . S
C887 C886 1.376 . S
C887 C888 1.388 . S
C888 H875 0.930 . S
C888 C887 1.388 . S
C888 C889 1.390 . S
C889 C888 1.390 . S
C889 C890 1.394 . S
C889 C895 1.465 1_545 S
C890 C885 1.399 . S
C890 C889 1.394 . S
C890 C891 1.516 . S
C891 C890 1.516 . S
C891 C892 1.502 . S
C891 C893 1.561 . S
C891 C894 1.526 1_545 S
C892 H876 0.959 . S
C892 H877 0.959 . S
C892 H878 0.961 . S
C892 C891 1.502 . S
C893 H879 0.960 . S
C893 H880 0.961 . S
C893 H881 0.959 . S
C893 C891 1.561 . S
C894 C891 1.526 1_565 S
C894 C895 1.396 . S
C894 C899 1.390 . S
C895 C889 1.465 1_565 S
C895 C894 1.396 . S
C895 C896 1.399 . S
C896 H882 0.929 . S
C896 C895 1.399 . S
C896 C897 1.385 . S
C897 H883 0.931 . S
C897 C896 1.385 . S
C897 C898 1.389 . S
C898 C897 1.389 . S
C898 C899 1.387 . S
C899 H884 0.930 . S
C899 C894 1.390 . S
C899 C898 1.387 . S
H900 C912 0.930 . S
H901 C914 0.930 . S
H902 C915 0.930 . S
H903 C919 0.959 . S
H904 C919 0.959 . S
H905 C919 0.961 . S
H906 C920 0.960 . S
H907 C920 0.961 . S
H908 C920 0.959 . S
H909 C923 0.929 . S
H910 C924 0.931 . S
H911 C926 0.930 . S
C912 H900 0.930 . S
C912 C913 1.399 . S
C912 C917 1.399 . S
C913 C912 1.399 . S
C913 C914 1.376 . S
C914 H901 0.930 . S
C914 C913 1.376 . S
C914 C915 1.388 . S
C915 H902 0.930 . S
C915 C914 1.388 . S
C915 C916 1.390 . S
C916 C915 1.390 . S
C916 C917 1.394 . S
C916 C922 1.465 . S
C917 C912 1.399 . S
C917 C916 1.394 . S
C917 C918 1.516 1_556 S
C918 C917 1.516 1_554 S
C918 C919 1.502 . S
C918 C920 1.561 . S
C918 C921 1.526 . S
C919 H903 0.959 . S
C919 H904 0.959 . S
C919 H905 0.961 . S
C919 C918 1.502 . S
C920 H906 0.960 . S
C920 H907 0.961 . S
C920 H908 0.959 . S
C920 C918 1.561 . S
C921 C918 1.526 . S
C921 C922 1.396 1_554 S
C921 C926 1.390 . S
C922 C916 1.465 . S
C922 C921 1.396 1_556 S
C922 C923 1.399 . S
C923 H909 0.929 . S
C923 C922 1.399 . S
C923 C924 1.385 1_556 S
C924 H910 0.931 . S
C924 C923 1.385 1_554 S
C924 C925 1.389 . S
C925 C924 1.389 . S
C925 C926 1.387 . S
C926 H911 0.930 . S
C926 C921 1.390 . S
C926 C925 1.387 . S
H927 C939 0.930 . S
H928 C941 0.930 . S
H929 C942 0.930 . S
H930 C946 0.959 . S
H931 C946 0.959 . S
H932 C946 0.961 . S
H933 C947 0.960 . S
H934 C947 0.961 . S
H935 C947 0.959 . S
H936 C950 0.929 . S
H937 C951 0.931 . S
H938 C953 0.930 . S
C939 H927 0.930 . S
C939 C940 1.399 . S
C939 C944 1.399 . S
C940 C939 1.399 . S
C940 C941 1.376 . S
C941 H928 0.930 . S
C941 C940 1.376 . S
C941 C942 1.388 . S
C942 H929 0.930 . S
C942 C941 1.388 . S
C942 C943 1.390 . S
C943 C942 1.390 . S
C943 C944 1.394 . S
C943 C949 1.465 . S
C944 C939 1.399 . S
C944 C943 1.394 . S
C944 C945 1.516 . S
C945 C944 1.516 . S
C945 C946 1.502 . S
C945 C947 1.561 . S
C945 C948 1.526 . S
C946 H930 0.959 . S
C946 H931 0.959 . S
C946 H932 0.961 . S
C946 C945 1.502 . S
C947 H933 0.960 . S
C947 H934 0.961 . S
C947 H935 0.959 . S
C947 C945 1.561 . S
C948 C945 1.526 . S
C948 C949 1.396 . S
C948 C953 1.390 . S
C949 C943 1.465 . S
C949 C948 1.396 . S
C949 C950 1.399 . S
C950 H936 0.929 . S
C950 C949 1.399 . S
C950 C951 1.385 . S
C951 H937 0.931 . S
C951 C950 1.385 . S
C951 C952 1.389 . S
C952 C951 1.389 . S
C952 C953 1.387 . S
C953 H938 0.930 . S
C953 C948 1.390 . S
C953 C952 1.387 . S
H954 C966 0.930 . S
H955 C968 0.930 . S
H956 C969 0.930 . S
H957 C973 0.959 . S
H958 C973 0.959 . S
H959 C973 0.961 . S
H960 C974 0.960 . S
H961 C974 0.961 . S
H962 C974 0.959 . S
H963 C977 0.929 . S
H964 C978 0.931 . S
H965 C980 0.928 1_554 S
C966 H954 0.930 . S
C966 C967 1.399 . S
C966 C971 1.399 . S
C967 C966 1.399 . S
C967 C968 1.376 1_554 S
C968 H955 0.930 . S
C968 C967 1.376 1_556 S
C968 C969 1.388 . S
C969 H956 0.930 . S
C969 C968 1.388 . S
C969 C970 1.390 . S
C970 C969 1.390 . S
C970 C971 1.394 1_556 S
C970 C976 1.465 . S
C971 C966 1.399 . S
C971 C970 1.394 1_554 S
C971 C972 1.516 . S
C972 C971 1.516 . S
C972 C973 1.502 . S
C972 C974 1.561 . S
C972 C975 1.526 . S
C973 H957 0.959 . S
C973 H958 0.959 . S
C973 H959 0.961 . S
C973 C972 1.502 . S
C974 H960 0.960 . S
C974 H961 0.961 . S
C974 H962 0.959 . S
C974 C972 1.561 . S
C975 C972 1.526 . S
C975 C976 1.396 1_554 S
C975 C980 1.389 1_554 S
C976 C970 1.465 . S
C976 C975 1.396 1_556 S
C976 C977 1.399 . S
C977 H963 0.929 . S
C977 C976 1.399 . S
C977 C978 1.385 . S
C978 H964 0.931 . S
C978 C977 1.385 . S
C978 C979 1.389 . S
C979 C978 1.389 . S
C979 C980 1.389 . S
C980 H965 0.928 1_556 S
C980 C975 1.389 1_556 S
C980 C979 1.389 . S
H981 C993 0.930 . S
H982 C995 0.930 . S
H983 C996 0.930 . S
H984 C1000 0.959 . S
H985 C1000 0.959 . S
H986 C1000 0.961 . S
H987 C1001 0.960 . S
H988 C1001 0.961 . S
H989 C1001 0.959 . S
H990 C1004 0.929 . S
H991 C1005 0.931 . S
H992 C1007 0.930 . S
C993 H981 0.930 . S
C993 C994 1.399 . S
C993 C998 1.399 . S
C994 C993 1.399 . S
C994 C995 1.376 . S
C995 H982 0.930 . S
C995 C994 1.376 . S
C995 C996 1.388 . S
C996 H983 0.930 . S
C996 C995 1.388 . S
C996 C997 1.390 . S
C997 C996 1.390 . S
C997 C998 1.394 . S
C997 C1003 1.465 . S
C998 C993 1.399 . S
C998 C997 1.394 . S
C998 C999 1.516 . S
C999 C998 1.516 . S
C999 C1000 1.502 . S
C999 C1001 1.561 . S
C999 C1002 1.526 . S
C1000 H984 0.959 . S
C1000 H985 0.959 . S
C1000 H986 0.961 . S
C1000 C999 1.502 . S
C1001 H987 0.960 . S
C1001 H988 0.961 . S
C1001 H989 0.959 . S
C1001 C999 1.561 . S
C1002 C999 1.526 . S
C1002 C1003 1.396 . S
C1002 C1007 1.390 . S
C1003 C997 1.465 . S
C1003 C1002 1.396 . S
C1003 C1004 1.399 . S
C1004 H990 0.929 . S
C1004 C1003 1.399 . S
C1004 C1005 1.385 . S
C1005 H991 0.931 . S
C1005 C1004 1.385 . S
C1005 C1006 1.389 . S
C1006 C1005 1.389 . S
C1006 C1007 1.387 . S
C1007 H992 0.930 . S
C1007 C1002 1.390 . S
C1007 C1006 1.387 . S
H1008 C1020 0.930 . S
H1009 C1022 0.930 . S
H1010 C1023 0.930 . S
H1011 C1027 0.959 . S
H1012 C1027 0.959 . S
H1013 C1027 0.961 . S
H1014 C1028 0.960 . S
H1015 C1028 0.961 . S
H1016 C1028 0.959 . S
H1017 C1031 0.929 . S
H1018 C1032 0.931 . S
H1019 C1034 0.930 . S
C1020 H1008 0.930 . S
C1020 C1021 1.399 . S
C1020 C1025 1.399 . S
C1021 C1020 1.399 . S
C1021 C1022 1.376 . S
C1022 H1009 0.930 . S
C1022 C1021 1.376 . S
C1022 C1023 1.388 . S
C1023 H1010 0.930 . S
C1023 C1022 1.388 . S
C1023 C1024 1.390 . S
C1024 C1023 1.390 . S
C1024 C1025 1.394 . S
C1024 C1030 1.465 . S
C1025 C1020 1.399 . S
C1025 C1024 1.394 . S
C1025 C1026 1.516 . S
C1026 C1025 1.516 . S
C1026 C1027 1.502 . S
C1026 C1028 1.561 . S
C1026 C1029 1.526 . S
C1027 H1011 0.959 . S
C1027 H1012 0.959 . S
C1027 H1013 0.961 . S
C1027 C1026 1.502 . S
C1028 H1014 0.960 . S
C1028 H1015 0.961 . S
C1028 H1016 0.959 . S
C1028 C1026 1.561 . S
C1029 C1026 1.526 . S
C1029 C1030 1.396 . S
C1029 C1034 1.390 . S
C1030 C1024 1.465 . S
C1030 C1029 1.396 . S
C1030 C1031 1.399 . S
C1031 H1017 0.929 . S
C1031 C1030 1.399 . S
C1031 C1032 1.385 . S
C1032 H1018 0.931 . S
C1032 C1031 1.385 . S
C1032 C1033 1.389 . S
C1033 C1032 1.389 . S
C1033 C1034 1.387 . S
C1034 H1019 0.930 . S
C1034 C1029 1.390 . S
C1034 C1033 1.387 . S
H1035 C1047 0.930 . S
H1036 C1049 0.930 . S
H1037 C1050 0.930 . S
H1038 C1054 0.959 . S
H1039 C1054 0.959 1_455 S
H1040 C1054 0.961 . S
H1041 C1055 0.960 . S
H1042 C1055 0.961 1_455 S
H1043 C1055 0.959 . S
H1044 C1058 0.929 . S
H1045 C1059 0.931 . S
H1046 C1061 0.930 . S
C1047 H1035 0.930 . S
C1047 C1048 1.399 . S
C1047 C1052 1.399 . S
C1048 C1047 1.399 . S
C1048 C1049 1.376 . S
C1049 H1036 0.930 . S
C1049 C1048 1.376 . S
C1049 C1050 1.388 . S
C1050 H1037 0.930 . S
C1050 C1049 1.388 . S
C1050 C1051 1.390 . S
C1051 C1050 1.390 . S
C1051 C1052 1.394 . S
C1051 C1057 1.465 1_655 S
C1052 C1047 1.399 . S
C1052 C1051 1.394 . S
C1052 C1053 1.516 . S
C1053 C1052 1.516 . S
C1053 C1054 1.502 . S
C1053 C1055 1.561 . S
C1053 C1056 1.526 1_655 S
C1054 H1038 0.959 . S
C1054 H1039 0.959 1_655 S
C1054 H1040 0.961 . S
C1054 C1053 1.502 . S
C1055 H1041 0.960 . S
C1055 H1042 0.961 1_655 S
C1055 H1043 0.959 . S
C1055 C1053 1.561 . S
C1056 C1053 1.526 1_455 S
C1056 C1057 1.396 . S
C1056 C1061 1.390 . S
C1057 C1051 1.465 1_455 S
C1057 C1056 1.396 . S
C1057 C1058 1.399 . S
C1058 H1044 0.929 . S
C1058 C1057 1.399 . S
C1058 C1059 1.385 . S
C1059 H1045 0.931 . S
C1059 C1058 1.385 . S
C1059 C1060 1.389 . S
C1060 C1059 1.389 . S
C1060 C1061 1.387 . S
C1061 H1046 0.930 . S
C1061 C1056 1.390 . S
C1061 C1060 1.387 . S
H1062 C1074 0.930 . S
H1063 C1076 0.930 . S
H1064 C1077 0.930 . S
H1065 C1081 0.959 . S
H1066 C1081 0.959 . S
H1067 C1081 0.961 . S
H1068 C1082 0.960 . S
H1069 C1082 0.961 . S
H1070 C1082 0.959 . S
H1071 C1085 0.929 . S
H1072 C1086 0.931 . S
H1073 C1088 0.930 . S
C1074 H1062 0.930 . S
C1074 C1075 1.399 . S
C1074 C1079 1.399 . S
C1075 C1074 1.399 . S
C1075 C1076 1.376 . S
C1076 H1063 0.930 . S
C1076 C1075 1.376 . S
C1076 C1077 1.388 . S
C1077 H1064 0.930 . S
C1077 C1076 1.388 . S
C1077 C1078 1.390 . S
C1078 C1077 1.390 . S
C1078 C1079 1.394 . S
C1078 C1084 1.465 . S
C1079 C1074 1.399 . S
C1079 C1078 1.394 . S
C1079 C1080 1.516 . S
C1080 C1079 1.516 . S
C1080 C1081 1.502 . S
C1080 C1082 1.561 . S
C1080 C1083 1.526 . S
C1081 H1065 0.959 . S
C1081 H1066 0.959 . S
C1081 H1067 0.961 . S
C1081 C1080 1.502 . S
C1082 H1068 0.960 . S
C1082 H1069 0.961 . S
C1082 H1070 0.959 . S
C1082 C1080 1.561 . S
C1083 C1080 1.526 . S
C1083 C1084 1.396 . S
C1083 C1088 1.390 . S
C1084 C1078 1.465 . S
C1084 C1083 1.396 . S
C1084 C1085 1.399 . S
C1085 H1071 0.929 . S
C1085 C1084 1.399 . S
C1085 C1086 1.385 . S
C1086 H1072 0.931 . S
C1086 C1085 1.385 . S
C1086 C1087 1.389 . S
C1087 C1086 1.389 . S
C1087 C1088 1.387 . S
C1088 H1073 0.930 . S
C1088 C1083 1.390 . S
C1088 C1087 1.387 . S
H1089 C1101 0.930 . S
H1090 C1103 0.930 . S
H1091 C1104 0.930 . S
H1092 C1108 0.959 . S
H1093 C1108 0.959 . S
H1094 C1108 0.961 1_455 S
H1095 C1109 0.960 1_455 S
H1096 C1109 0.961 . S
H1097 C1109 0.959 . S
H1098 C1112 0.929 . S
H1099 C1113 0.931 . S
H1100 C1115 0.930 . S
C1101 H1089 0.930 . S
C1101 C1102 1.399 . S
C1101 C1106 1.399 . S
C1102 C1101 1.399 . S
C1102 C1103 1.376 . S
C1103 H1090 0.930 . S
C1103 C1102 1.376 . S
C1103 C1104 1.388 . S
C1104 H1091 0.930 . S
C1104 C1103 1.388 . S
C1104 C1105 1.390 . S
C1105 C1104 1.390 . S
C1105 C1106 1.394 . S
C1105 C1111 1.465 1_455 S
C1106 C1101 1.399 . S
C1106 C1105 1.394 . S
C1106 C1107 1.516 1_455 S
C1107 C1106 1.516 1_655 S
C1107 C1108 1.502 . S
C1107 C1109 1.561 . S
C1107 C1110 1.526 . S
C1108 H1092 0.959 . S
C1108 H1093 0.959 . S
C1108 H1094 0.961 1_655 S
C1108 C1107 1.502 . S
C1109 H1095 0.960 1_655 S
C1109 H1096 0.961 . S
C1109 H1097 0.959 . S
C1109 C1107 1.561 . S
C1110 C1107 1.526 . S
C1110 C1111 1.396 . S
C1110 C1115 1.390 . S
C1111 C1105 1.465 1_655 S
C1111 C1110 1.396 . S
C1111 C1112 1.399 . S
C1112 H1098 0.929 . S
C1112 C1111 1.399 . S
C1112 C1113 1.385 . S
C1113 H1099 0.931 . S
C1113 C1112 1.385 . S
C1113 C1114 1.389 . S
C1114 C1113 1.389 . S
C1114 C1115 1.387 . S
C1115 H1100 0.930 . S
C1115 C1110 1.390 . S
C1115 C1114 1.387 . S
H1116 C1128 0.930 . S
H1117 C1130 0.930 . S
H1118 C1131 0.930 . S
H1119 C1135 0.959 . S
H1120 C1135 0.959 1_655 S
H1121 C1135 0.961 . S
H1122 C1136 0.960 . S
H1123 C1136 0.961 1_655 S
H1124 C1136 0.959 . S
H1125 C1139 0.929 . S
H1126 C1140 0.931 . S
H1127 C1142 0.930 . S
C1128 H1116 0.930 . S
C1128 C1129 1.399 . S
C1128 C1133 1.399 . S
C1129 C1128 1.399 . S
C1129 C1130 1.376 . S
C1130 H1117 0.930 . S
C1130 C1129 1.376 . S
C1130 C1131 1.388 . S
C1131 H1118 0.930 . S
C1131 C1130 1.388 . S
C1131 C1132 1.390 . S
C1132 C1131 1.390 . S
C1132 C1133 1.394 . S
C1132 C1138 1.465 1_455 S
C1133 C1128 1.399 . S
C1133 C1132 1.394 . S
C1133 C1134 1.516 . S
C1134 C1133 1.516 . S
C1134 C1135 1.502 . S
C1134 C1136 1.561 . S
C1134 C1137 1.526 1_455 S
C1135 H1119 0.959 . S
C1135 H1120 0.959 1_455 S
C1135 H1121 0.961 . S
C1135 C1134 1.502 . S
C1136 H1122 0.960 . S
C1136 H1123 0.961 1_455 S
C1136 H1124 0.959 . S
C1136 C1134 1.561 . S
C1137 C1134 1.526 1_655 S
C1137 C1138 1.396 . S
C1137 C1142 1.390 . S
C1138 C1132 1.465 1_655 S
C1138 C1137 1.396 . S
C1138 C1139 1.399 . S
C1139 H1125 0.929 . S
C1139 C1138 1.399 . S
C1139 C1140 1.385 . S
C1140 H1126 0.931 . S
C1140 C1139 1.385 . S
C1140 C1141 1.389 . S
C1141 C1140 1.389 . S
C1141 C1142 1.387 . S
C1142 H1127 0.930 . S
C1142 C1137 1.390 . S
C1142 C1141 1.387 . S
H1143 C1155 0.930 . S
H1144 C1157 0.930 . S
H1145 C1158 0.930 . S
H1146 C1162 0.959 . S
H1147 C1162 0.959 . S
H1148 C1162 0.961 . S
H1149 C1163 0.960 . S
H1150 C1163 0.961 . S
H1151 C1163 0.959 . S
H1152 C1166 0.929 . S
H1153 C1167 0.931 . S
H1154 C1169 0.930 . S
C1155 H1143 0.930 . S
C1155 C1156 1.399 . S
C1155 C1160 1.399 . S
C1156 C1155 1.399 . S
C1156 C1157 1.376 . S
C1157 H1144 0.930 . S
C1157 C1156 1.376 . S
C1157 C1158 1.388 . S
C1158 H1145 0.930 . S
C1158 C1157 1.388 . S
C1158 C1159 1.390 . S
C1159 C1158 1.390 . S
C1159 C1160 1.394 . S
C1159 C1165 1.465 . S
C1160 C1155 1.399 . S
C1160 C1159 1.394 . S
C1160 C1161 1.516 . S
C1161 C1160 1.516 . S
C1161 C1162 1.502 . S
C1161 C1163 1.561 . S
C1161 C1164 1.526 . S
C1162 H1146 0.959 . S
C1162 H1147 0.959 . S
C1162 H1148 0.961 . S
C1162 C1161 1.502 . S
C1163 H1149 0.960 . S
C1163 H1150 0.961 . S
C1163 H1151 0.959 . S
C1163 C1161 1.561 . S
C1164 C1161 1.526 . S
C1164 C1165 1.396 . S
C1164 C1169 1.390 . S
C1165 C1159 1.465 . S
C1165 C1164 1.396 . S
C1165 C1166 1.399 . S
C1166 H1152 0.929 . S
C1166 C1165 1.399 . S
C1166 C1167 1.385 . S
C1167 H1153 0.931 . S
C1167 C1166 1.385 . S
C1167 C1168 1.389 . S
C1168 C1167 1.389 . S
C1168 C1169 1.387 . S
C1169 H1154 0.930 . S
C1169 C1164 1.390 . S
C1169 C1168 1.387 . S
H1170 C1182 0.930 . S
H1171 C1184 0.930 . S
H1172 C1185 0.930 . S
H1173 C1189 0.959 . S
H1174 C1189 0.959 1_655 S
H1175 C1189 0.961 . S
H1176 C1190 0.960 . S
H1177 C1190 0.961 1_655 S
H1178 C1190 0.959 . S
H1179 C1193 0.929 . S
H1180 C1194 0.931 . S
H1181 C1196 0.930 . S
C1182 H1170 0.930 . S
C1182 C1183 1.399 . S
C1182 C1187 1.399 . S
C1183 C1182 1.399 . S
C1183 C1184 1.376 . S
C1184 H1171 0.930 . S
C1184 C1183 1.376 . S
C1184 C1185 1.388 . S
C1185 H1172 0.930 . S
C1185 C1184 1.388 . S
C1185 C1186 1.390 . S
C1186 C1185 1.390 . S
C1186 C1187 1.394 . S
C1186 C1192 1.465 1_455 S
C1187 C1182 1.399 . S
C1187 C1186 1.394 . S
C1187 C1188 1.516 . S
C1188 C1187 1.516 . S
C1188 C1189 1.502 . S
C1188 C1190 1.561 . S
C1188 C1191 1.526 1_455 S
C1189 H1173 0.959 . S
C1189 H1174 0.959 1_455 S
C1189 H1175 0.961 . S
C1189 C1188 1.502 . S
C1190 H1176 0.960 . S
C1190 H1177 0.961 1_455 S
C1190 H1178 0.959 . S
C1190 C1188 1.561 . S
C1191 C1188 1.526 1_655 S
C1191 C1192 1.396 . S
C1191 C1196 1.390 . S
C1192 C1186 1.465 1_655 S
C1192 C1191 1.396 . S
C1192 C1193 1.399 . S
C1193 H1179 0.929 . S
C1193 C1192 1.399 . S
C1193 C1194 1.385 . S
C1194 H1180 0.931 . S
C1194 C1193 1.385 . S
C1194 C1195 1.389 . S
C1195 C1194 1.389 . S
C1195 C1196 1.387 . S
C1196 H1181 0.930 . S
C1196 C1191 1.390 . S
C1196 C1195 1.387 . S
H1197 C1209 0.930 . S
H1198 C1211 0.930 . S
H1199 C1212 0.930 . S
H1200 C1216 0.959 . S
H1201 C1216 0.959 . S
H1202 C1216 0.961 . S
H1203 C1217 0.960 . S
H1204 C1217 0.961 . S
H1205 C1217 0.959 . S
H1206 C1220 0.929 . S
H1207 C1221 0.931 . S
H1208 C1223 0.930 . S
C1209 H1197 0.930 . S
C1209 C1210 1.399 . S
C1209 C1214 1.399 . S
C1210 C1209 1.399 . S
C1210 C1211 1.376 . S
C1211 H1198 0.930 . S
C1211 C1210 1.376 . S
C1211 C1212 1.388 . S
C1212 H1199 0.930 . S
C1212 C1211 1.388 . S
C1212 C1213 1.390 . S
C1213 C1212 1.390 . S
C1213 C1214 1.394 . S
C1213 C1219 1.465 . S
C1214 C1209 1.399 . S
C1214 C1213 1.394 . S
C1214 C1215 1.516 . S
C1215 C1214 1.516 . S
C1215 C1216 1.502 . S
C1215 C1217 1.561 . S
C1215 C1218 1.526 . S
C1216 H1200 0.959 . S
C1216 H1201 0.959 . S
C1216 H1202 0.961 . S
C1216 C1215 1.502 . S
C1217 H1203 0.960 . S
C1217 H1204 0.961 . S
C1217 H1205 0.959 . S
C1217 C1215 1.561 . S
C1218 C1215 1.526 . S
C1218 C1219 1.396 . S
C1218 C1223 1.390 . S
C1219 C1213 1.465 . S
C1219 C1218 1.396 . S
C1219 C1220 1.399 . S
C1220 H1206 0.929 . S
C1220 C1219 1.399 . S
C1220 C1221 1.385 . S
C1221 H1207 0.931 . S
C1221 C1220 1.385 . S
C1221 C1222 1.389 . S
C1222 C1221 1.389 . S
C1222 C1223 1.387 . S
C1223 H1208 0.930 . S
C1223 C1218 1.390 . S
C1223 C1222 1.387 . S
H1224 C1236 0.930 . S
H1225 C1238 0.930 . S
H1226 C1239 0.930 . S
H1227 C1243 0.959 . S
H1228 C1243 0.959 . S
H1229 C1243 0.961 . S
H1230 C1244 0.960 . S
H1231 C1244 0.961 . S
H1232 C1244 0.959 . S
H1233 C1247 0.929 . S
H1234 C1248 0.931 . S
H1235 C1250 0.930 . S
C1236 H1224 0.930 . S
C1236 C1237 1.399 . S
C1236 C1241 1.399 . S
C1237 C1236 1.399 . S
C1237 C1238 1.376 . S
C1238 H1225 0.930 . S
C1238 C1237 1.376 . S
C1238 C1239 1.388 . S
C1239 H1226 0.930 . S
C1239 C1238 1.388 . S
C1239 C1240 1.390 . S
C1240 C1239 1.390 . S
C1240 C1241 1.394 . S
C1240 C1246 1.465 . S
C1241 C1236 1.399 . S
C1241 C1240 1.394 . S
C1241 C1242 1.516 . S
C1242 C1241 1.516 . S
C1242 C1243 1.502 . S
C1242 C1244 1.561 . S
C1242 C1245 1.526 . S
C1243 H1227 0.959 . S
C1243 H1228 0.959 . S
C1243 H1229 0.961 . S
C1243 C1242 1.502 . S
C1244 H1230 0.960 . S
C1244 H1231 0.961 . S
C1244 H1232 0.959 . S
C1244 C1242 1.561 . S
C1245 C1242 1.526 . S
C1245 C1246 1.396 . S
C1245 C1250 1.390 . S
C1246 C1240 1.465 . S
C1246 C1245 1.396 . S
C1246 C1247 1.399 . S
C1247 H1233 0.929 . S
C1247 C1246 1.399 . S
C1247 C1248 1.385 . S
C1248 H1234 0.931 . S
C1248 C1247 1.385 . S
C1248 C1249 1.389 . S
C1249 C1248 1.389 . S
C1249 C1250 1.387 . S
C1250 H1235 0.930 . S
C1250 C1245 1.390 . S
C1250 C1249 1.387 . S
H1251 C1263 0.930 . S
H1252 C1265 0.930 . S
H1253 C1266 0.930 . S
H1254 C1270 0.959 . S
H1255 C1270 0.959 . S
H1256 C1270 0.961 . S
H1257 C1271 0.960 . S
H1258 C1271 0.961 . S
H1259 C1271 0.959 . S
H1260 C1274 0.929 . S
H1261 C1275 0.931 . S
H1262 C1277 0.930 . S
C1263 H1251 0.930 . S
C1263 C1264 1.399 . S
C1263 C1268 1.399 . S
C1264 C1263 1.399 . S
C1264 C1265 1.376 . S
C1265 H1252 0.930 . S
C1265 C1264 1.376 . S
C1265 C1266 1.388 . S
C1266 H1253 0.930 . S
C1266 C1265 1.388 . S
C1266 C1267 1.390 . S
C1267 C1266 1.390 . S
C1267 C1268 1.394 . S
C1267 C1273 1.465 . S
C1268 C1263 1.399 . S
C1268 C1267 1.394 . S
C1268 C1269 1.516 . S
C1269 C1268 1.516 . S
C1269 C1270 1.502 . S
C1269 C1271 1.561 . S
C1269 C1272 1.526 . S
C1270 H1254 0.959 . S
C1270 H1255 0.959 . S
C1270 H1256 0.961 . S
C1270 C1269 1.502 . S
C1271 H1257 0.960 . S
C1271 H1258 0.961 . S
C1271 H1259 0.959 . S
C1271 C1269 1.561 . S
C1272 C1269 1.526 . S
C1272 C1273 1.396 . S
C1272 C1277 1.390 . S
C1273 C1267 1.465 . S
C1273 C1272 1.396 . S
C1273 C1274 1.399 . S
C1274 H1260 0.929 . S
C1274 C1273 1.399 . S
C1274 C1275 1.385 . S
C1275 H1261 0.931 . S
C1275 C1274 1.385 . S
C1275 C1276 1.389 . S
C1276 C1275 1.389 . S
C1276 C1277 1.387 . S
C1277 H1262 0.930 . S
C1277 C1272 1.390 . S
C1277 C1276 1.387 . S
H1278 C1290 0.930 . S
H1279 C1292 0.930 . S
H1280 C1293 0.930 . S
H1281 C1297 0.959 . S
H1282 C1297 0.959 . S
H1283 C1297 0.961 . S
H1284 C1298 0.960 . S
H1285 C1298 0.961 . S
H1286 C1298 0.959 . S
H1287 C1301 0.929 . S
H1288 C1302 0.931 . S
H1289 C1304 0.930 . S
C1290 H1278 0.930 . S
C1290 C1291 1.399 . S
C1290 C1295 1.399 . S
C1291 C1290 1.399 . S
C1291 C1292 1.376 . S
C1292 H1279 0.930 . S
C1292 C1291 1.376 . S
C1292 C1293 1.388 . S
C1293 H1280 0.930 . S
C1293 C1292 1.388 . S
C1293 C1294 1.390 . S
C1294 C1293 1.390 . S
C1294 C1295 1.394 . S
C1294 C1300 1.465 . S
C1295 C1290 1.399 . S
C1295 C1294 1.394 . S
C1295 C1296 1.516 . S
C1296 C1295 1.516 . S
C1296 C1297 1.502 . S
C1296 C1298 1.561 . S
C1296 C1299 1.526 . S
C1297 H1281 0.959 . S
C1297 H1282 0.959 . S
C1297 H1283 0.961 . S
C1297 C1296 1.502 . S
C1298 H1284 0.960 . S
C1298 H1285 0.961 . S
C1298 H1286 0.959 . S
C1298 C1296 1.561 . S
C1299 C1296 1.526 . S
C1299 C1300 1.396 . S
C1299 C1304 1.390 . S
C1300 C1294 1.465 . S
C1300 C1299 1.396 . S
C1300 C1301 1.399 . S
C1301 H1287 0.929 . S
C1301 C1300 1.399 . S
C1301 C1302 1.385 . S
C1302 H1288 0.931 . S
C1302 C1301 1.385 . S
C1302 C1303 1.389 . S
C1303 C1302 1.389 . S
C1303 C1304 1.387 . S
C1304 H1289 0.930 . S
C1304 C1299 1.390 . S
C1304 C1303 1.387 . S
H1305 C1317 0.930 . S
H1306 C1319 0.930 . S
H1307 C1320 0.930 . S
H1308 C1324 0.959 . S
H1309 C1324 0.959 . S
H1310 C1324 0.961 . S
H1311 C1325 0.960 . S
H1312 C1325 0.961 . S
H1313 C1325 0.959 . S
H1314 C1328 0.929 . S
H1315 C1329 0.931 . S
H1316 C1331 0.930 . S
C1317 H1305 0.930 . S
C1317 C1318 1.399 . S
C1317 C1322 1.399 . S
C1318 C1317 1.399 . S
C1318 C1319 1.376 . S
C1319 H1306 0.930 . S
C1319 C1318 1.376 . S
C1319 C1320 1.388 . S
C1320 H1307 0.930 . S
C1320 C1319 1.388 . S
C1320 C1321 1.390 . S
C1321 C1320 1.390 . S
C1321 C1322 1.394 . S
C1321 C1327 1.465 . S
C1322 C1317 1.399 . S
C1322 C1321 1.394 . S
C1322 C1323 1.516 . S
C1323 C1322 1.516 . S
C1323 C1324 1.502 . S
C1323 C1325 1.561 . S
C1323 C1326 1.526 . S
C1324 H1308 0.959 . S
C1324 H1309 0.959 . S
C1324 H1310 0.961 . S
C1324 C1323 1.502 . S
C1325 H1311 0.960 . S
C1325 H1312 0.961 . S
C1325 H1313 0.959 . S
C1325 C1323 1.561 . S
C1326 C1323 1.526 . S
C1326 C1327 1.396 . S
C1326 C1331 1.390 . S
C1327 C1321 1.465 . S
C1327 C1326 1.396 . S
C1327 C1328 1.399 . S
C1328 H1314 0.929 . S
C1328 C1327 1.399 . S
C1328 C1329 1.385 . S
C1329 H1315 0.931 . S
C1329 C1328 1.385 . S
C1329 C1330 1.389 . S
C1330 C1329 1.389 . S
C1330 C1331 1.387 . S
C1331 H1316 0.930 . S
C1331 C1326 1.390 . S
C1331 C1330 1.387 . S
H1332 C1344 0.930 . S
H1333 C1346 0.930 . S
H1334 C1347 0.930 . S
H1335 C1351 0.959 . S
H1336 C1351 0.959 . S
H1337 C1351 0.961 . S
H1338 C1352 0.960 . S
H1339 C1352 0.961 . S
H1340 C1352 0.959 . S
H1341 C1355 0.929 . S
H1342 C1356 0.931 . S
H1343 C1358 0.930 . S
C1344 H1332 0.930 . S
C1344 C1345 1.399 . S
C1344 C1349 1.399 . S
C1345 C1344 1.399 . S
C1345 C1346 1.376 . S
C1346 H1333 0.930 . S
C1346 C1345 1.376 . S
C1346 C1347 1.388 . S
C1347 H1334 0.930 . S
C1347 C1346 1.388 . S
C1347 C1348 1.390 . S
C1348 C1347 1.390 . S
C1348 C1349 1.394 . S
C1348 C1354 1.465 . S
C1349 C1344 1.399 . S
C1349 C1348 1.394 . S
C1349 C1350 1.516 . S
C1350 C1349 1.516 . S
C1350 C1351 1.502 . S
C1350 C1352 1.561 . S
C1350 C1353 1.526 . S
C1351 H1335 0.959 . S
C1351 H1336 0.959 . S
C1351 H1337 0.961 . S
C1351 C1350 1.502 . S
C1352 H1338 0.960 . S
C1352 H1339 0.961 . S
C1352 H1340 0.959 . S
C1352 C1350 1.561 . S
C1353 C1350 1.526 . S
C1353 C1354 1.396 . S
C1353 C1358 1.390 . S
C1354 C1348 1.465 . S
C1354 C1353 1.396 . S
C1354 C1355 1.399 . S
C1355 H1341 0.929 . S
C1355 C1354 1.399 . S
C1355 C1356 1.385 . S
C1356 H1342 0.931 . S
C1356 C1355 1.385 . S
C1356 C1357 1.389 . S
C1357 C1356 1.389 . S
C1357 C1358 1.387 . S
C1358 H1343 0.930 . S
C1358 C1353 1.390 . S
C1358 C1357 1.387 . S
H1359 C1371 0.930 . S
H1360 C1373 0.930 . S
H1361 C1374 0.930 . S
H1362 C1378 0.959 . S
H1363 C1378 0.959 . S
H1364 C1378 0.961 . S
H1365 C1379 0.960 . S
H1366 C1379 0.961 . S
H1367 C1379 0.959 . S
H1368 C1382 0.929 . S
H1369 C1383 0.931 . S
H1370 C1385 0.930 . S
C1371 H1359 0.930 . S
C1371 C1372 1.399 . S
C1371 C1376 1.399 . S
C1372 C1371 1.399 . S
C1372 C1373 1.376 . S
C1373 H1360 0.930 . S
C1373 C1372 1.376 . S
C1373 C1374 1.388 . S
C1374 H1361 0.930 . S
C1374 C1373 1.388 . S
C1374 C1375 1.390 . S
C1375 C1374 1.390 . S
C1375 C1376 1.394 . S
C1375 C1381 1.465 . S
C1376 C1371 1.399 . S
C1376 C1375 1.394 . S
C1376 C1377 1.516 . S
C1377 C1376 1.516 . S
C1377 C1378 1.502 . S
C1377 C1379 1.561 . S
C1377 C1380 1.526 . S
C1378 H1362 0.959 . S
C1378 H1363 0.959 . S
C1378 H1364 0.961 . S
C1378 C1377 1.502 . S
C1379 H1365 0.960 . S
C1379 H1366 0.961 . S
C1379 H1367 0.959 . S
C1379 C1377 1.561 . S
C1380 C1377 1.526 . S
C1380 C1381 1.396 . S
C1380 C1385 1.390 . S
C1381 C1375 1.465 . S
C1381 C1380 1.396 . S
C1381 C1382 1.399 . S
C1382 H1368 0.929 . S
C1382 C1381 1.399 . S
C1382 C1383 1.385 . S
C1383 H1369 0.931 . S
C1383 C1382 1.385 . S
C1383 C1384 1.389 . S
C1384 C1383 1.389 . S
C1384 C1385 1.387 . S
C1385 H1370 0.930 . S
C1385 C1380 1.390 . S
C1385 C1384 1.387 . S
H1386 C1398 0.930 . S
H1387 C1400 0.930 . S
H1388 C1401 0.930 . S
H1389 C1405 0.959 . S
H1390 C1405 0.959 . S
H1391 C1405 0.961 . S
H1392 C1406 0.960 . S
H1393 C1406 0.961 . S
H1394 C1406 0.959 . S
H1395 C1409 0.929 . S
H1396 C1410 0.931 . S
H1397 C1412 0.930 . S
C1398 H1386 0.930 . S
C1398 C1399 1.399 . S
C1398 C1403 1.399 . S
C1399 C1398 1.399 . S
C1399 C1400 1.376 . S
C1400 H1387 0.930 . S
C1400 C1399 1.376 . S
C1400 C1401 1.388 . S
C1401 H1388 0.930 . S
C1401 C1400 1.388 . S
C1401 C1402 1.390 . S
C1402 C1401 1.390 . S
C1402 C1403 1.394 . S
C1402 C1408 1.465 . S
C1403 C1398 1.399 . S
C1403 C1402 1.394 . S
C1403 C1404 1.516 . S
C1404 C1403 1.516 . S
C1404 C1405 1.502 . S
C1404 C1406 1.561 . S
C1404 C1407 1.526 . S
C1405 H1389 0.959 . S
C1405 H1390 0.959 . S
C1405 H1391 0.961 . S
C1405 C1404 1.502 . S
C1406 H1392 0.960 . S
C1406 H1393 0.961 . S
C1406 H1394 0.959 . S
C1406 C1404 1.561 . S
C1407 C1404 1.526 . S
C1407 C1408 1.396 . S
C1407 C1412 1.390 . S
C1408 C1402 1.465 . S
C1408 C1407 1.396 . S
C1408 C1409 1.399 . S
C1409 H1395 0.929 . S
C1409 C1408 1.399 . S
C1409 C1410 1.385 . S
C1410 H1396 0.931 . S
C1410 C1409 1.385 . S
C1410 C1411 1.389 . S
C1411 C1410 1.389 . S
C1411 C1412 1.387 . S
C1412 H1397 0.930 . S
C1412 C1407 1.390 . S
C1412 C1411 1.387 . S
H1413 C1425 0.930 . S
H1414 C1427 0.930 . S
H1415 C1428 0.930 . S
H1416 C1432 0.959 . S
H1417 C1432 0.959 . S
H1418 C1432 0.961 . S
H1419 C1433 0.960 . S
H1420 C1433 0.961 . S
H1421 C1433 0.959 . S
H1422 C1436 0.929 . S
H1423 C1437 0.931 . S
H1424 C1439 0.930 . S
C1425 H1413 0.930 . S
C1425 C1426 1.399 . S
C1425 C1430 1.399 . S
C1426 C1425 1.399 . S
C1426 C1427 1.376 . S
C1427 H1414 0.930 . S
C1427 C1426 1.376 . S
C1427 C1428 1.388 . S
C1428 H1415 0.930 . S
C1428 C1427 1.388 . S
C1428 C1429 1.390 . S
C1429 C1428 1.390 . S
C1429 C1430 1.394 . S
C1429 C1435 1.465 . S
C1430 C1425 1.399 . S
C1430 C1429 1.394 . S
C1430 C1431 1.516 . S
C1431 C1430 1.516 . S
C1431 C1432 1.502 . S
C1431 C1433 1.561 . S
C1431 C1434 1.526 . S
C1432 H1416 0.959 . S
C1432 H1417 0.959 . S
C1432 H1418 0.961 . S
C1432 C1431 1.502 . S
C1433 H1419 0.960 . S
C1433 H1420 0.961 . S
C1433 H1421 0.959 . S
C1433 C1431 1.561 . S
C1434 C1431 1.526 . S
C1434 C1435 1.396 . S
C1434 C1439 1.390 . S
C1435 C1429 1.465 . S
C1435 C1434 1.396 . S
C1435 C1436 1.399 . S
C1436 H1422 0.929 . S
C1436 C1435 1.399 . S
C1436 C1437 1.385 . S
C1437 H1423 0.931 . S
C1437 C1436 1.385 . S
C1437 C1438 1.389 . S
C1438 C1437 1.389 . S
C1438 C1439 1.387 . S
C1439 H1424 0.930 . S
C1439 C1434 1.390 . S
C1439 C1438 1.387 . S
C589 C4 1.482 . S
C601 C446 1.419 . S
C616 C482 1.438 . S
C628 C40 1.489 . S
C643 C76 1.489 . S
C655 C518 1.422 . S
C670 C554 1.466 . S
C682 C112 1.484 . S
C697 C292 1.488 . S
C709 C158 1.389 . S
C724 C194 1.385 . S
C736 C328 1.486 . S
C751 C364 1.485 . S
C763 C230 1.387 . S
C778 C266 1.467 . S
C790 C400 1.484 . S
C805 C3 1.586 . S
C817 C75 1.613 . S
C832 C39 1.594 . S
C844 C111 1.607 . S
C859 C147 1.448 . S
C871 C219 1.491 . S
C886 C183 1.452 . S
C898 C255 1.490 . S
C913 C363 1.614 . S
C925 C291 1.582 . S
C940 C327 1.615 . S
C952 C399 1.581 . S
C967 C507 1.483 . S
C979 C435 1.449 . S
C994 C471 1.488 . S
C1006 C543 1.455 . S
C1021 C218 1.464 . S
C1033 C2 1.476 . S
C1048 C254 1.481 . S
C1060 C38 1.481 . S
C1075 C74 1.448 . S
C1087 C146 1.467 . S
C1102 C110 1.483 . S
C1114 C182 1.479 . S
C1129 C506 1.464 . S
C1141 C290 1.476 . S
C1156 C326 1.482 . S
C1168 C542 1.480 . S
C1183 C434 1.482 . S
C1195 C362 1.464 . S
C1210 C398 1.453 . S
C1222 C470 1.459 . S
C1237 C14 1.596 . S
C1249 C122 1.609 . S
C1264 C86 1.661 . S
C1276 C50 1.647 . S
C1291 C148 1.254 . S
C1303 C256 1.250 . S
C1318 C184 1.246 . S
C1330 C220 1.257 . S
C1345 C410 1.616 . S
C1357 C302 1.601 . S
C1372 C338 1.593 . S
C1384 C374 1.604 . S
C1399 C544 1.245 . S
C1411 C436 1.258 . S
C1426 C472 1.257 . S
C1438 C508 1.248 . S
