# Generated by pormake.
# Topology son, (6)-cn, num edge types: 1
# Building blocks:
#     Node 0, Type 0, BuildingBlock: BETDEL_clean_sbu_0, # of connection points: 6
#     Node 1, Type 0, BuildingBlock: BETDEL_clean_sbu_0, # of connection points: 6
#     Node 2, Type 0, BuildingBlock: BETDEL_clean_sbu_0, # of connection points: 6
#     Node 3, Type 0, BuildingBlock: BETDEL_clean_sbu_0, # of connection points: 6
#     Node 4, Type 0, BuildingBlock: BETDEL_clean_sbu_0, # of connection points: 6
#     Node 5, Type 0, BuildingBlock: BETDEL_clean_sbu_0, # of connection points: 6
#     Node 6, Type 0, BuildingBlock: BETDEL_clean_sbu_0, # of connection points: 6
#     Node 7, Type 0, BuildingBlock: BETDEL_clean_sbu_0, # of connection points: 6
#     Node 8, Type 0, BuildingBlock: BETDEL_clean_sbu_0, # of connection points: 6
#     Node 9, Type 0, BuildingBlock: BETDEL_clean_sbu_0, # of connection points: 6
#     Node 10, Type 0, BuildingBlock: BETDEL_clean_sbu_0, # of connection points: 6
#     Node 11, Type 0, BuildingBlock: BETDEL_clean_sbu_0, # of connection points: 6
#     Node 12, Type 0, BuildingBlock: BETDEL_clean_sbu_0, # of connection points: 6
#     Node 13, Type 0, BuildingBlock: BETDEL_clean_sbu_0, # of connection points: 6
#     Node 14, Type 0, BuildingBlock: BETDEL_clean_sbu_0, # of connection points: 6
#     Node 15, Type 0, BuildingBlock: BETDEL_clean_sbu_0, # of connection points: 6
#     Node 16, Type 0, BuildingBlock: BETDEL_clean_sbu_0, # of connection points: 6
#     Node 17, Type 0, BuildingBlock: BETDEL_clean_sbu_0, # of connection points: 6
#     Node 18, Type 0, BuildingBlock: BETDEL_clean_sbu_0, # of connection points: 6
#     Node 19, Type 0, BuildingBlock: BETDEL_clean_sbu_0, # of connection points: 6
#     Node 20, Type 0, BuildingBlock: BETDEL_clean_sbu_0, # of connection points: 6
#     Node 21, Type 0, BuildingBlock: BETDEL_clean_sbu_0, # of connection points: 6
#     Node 22, Type 0, BuildingBlock: BETDEL_clean_sbu_0, # of connection points: 6
#     Node 23, Type 0, BuildingBlock: BETDEL_clean_sbu_0, # of connection points: 6
#     Node 24, Type 0, BuildingBlock: BETDEL_clean_sbu_0, # of connection points: 6
#     Node 25, Type 0, BuildingBlock: BETDEL_clean_sbu_0, # of connection points: 6
#     Node 26, Type 0, BuildingBlock: BETDEL_clean_sbu_0, # of connection points: 6
#     Node 27, Type 0, BuildingBlock: BETDEL_clean_sbu_0, # of connection points: 6
#     Node 28, Type 0, BuildingBlock: BETDEL_clean_sbu_0, # of connection points: 6
#     Node 29, Type 0, BuildingBlock: BETDEL_clean_sbu_0, # of connection points: 6
#     Node 30, Type 0, BuildingBlock: BETDEL_clean_sbu_0, # of connection points: 6
#     Node 31, Type 0, BuildingBlock: BETDEL_clean_sbu_0, # of connection points: 6
#     Edge 32, Type (0, 0), BuildingBlock: UVAHIK_clean_linker_0, # of connection points: 2
#     Edge 33, Type (0, 0), BuildingBlock: UVAHIK_clean_linker_0, # of connection points: 2
#     Edge 34, Type (0, 0), BuildingBlock: UVAHIK_clean_linker_0, # of connection points: 2
#     Edge 35, Type (0, 0), BuildingBlock: UVAHIK_clean_linker_0, # of connection points: 2
#     Edge 36, Type (0, 0), BuildingBlock: UVAHIK_clean_linker_0, # of connection points: 2
#     Edge 37, Type (0, 0), BuildingBlock: UVAHIK_clean_linker_0, # of connection points: 2
#     Edge 38, Type (0, 0), BuildingBlock: UVAHIK_clean_linker_0, # of connection points: 2
#     Edge 39, Type (0, 0), BuildingBlock: UVAHIK_clean_linker_0, # of connection points: 2
#     Edge 40, Type (0, 0), BuildingBlock: UVAHIK_clean_linker_0, # of connection points: 2
#     Edge 41, Type (0, 0), BuildingBlock: UVAHIK_clean_linker_0, # of connection points: 2
#     Edge 42, Type (0, 0), BuildingBlock: UVAHIK_clean_linker_0, # of connection points: 2
#     Edge 43, Type (0, 0), BuildingBlock: UVAHIK_clean_linker_0, # of connection points: 2
#     Edge 44, Type (0, 0), BuildingBlock: UVAHIK_clean_linker_0, # of connection points: 2
#     Edge 45, Type (0, 0), BuildingBlock: UVAHIK_clean_linker_0, # of connection points: 2
#     Edge 46, Type (0, 0), BuildingBlock: UVAHIK_clean_linker_0, # of connection points: 2
#     Edge 47, Type (0, 0), BuildingBlock: UVAHIK_clean_linker_0, # of connection points: 2
#     Edge 48, Type (0, 0), BuildingBlock: UVAHIK_clean_linker_0, # of connection points: 2
#     Edge 49, Type (0, 0), BuildingBlock: UVAHIK_clean_linker_0, # of connection points: 2
#     Edge 50, Type (0, 0), BuildingBlock: UVAHIK_clean_linker_0, # of connection points: 2
#     Edge 51, Type (0, 0), BuildingBlock: UVAHIK_clean_linker_0, # of connection points: 2
#     Edge 52, Type (0, 0), BuildingBlock: UVAHIK_clean_linker_0, # of connection points: 2
#     Edge 53, Type (0, 0), BuildingBlock: UVAHIK_clean_linker_0, # of connection points: 2
#     Edge 54, Type (0, 0), BuildingBlock: UVAHIK_clean_linker_0, # of connection points: 2
#     Edge 55, Type (0, 0), BuildingBlock: UVAHIK_clean_linker_0, # of connection points: 2
#     Edge 56, Type (0, 0), BuildingBlock: UVAHIK_clean_linker_0, # of connection points: 2
#     Edge 57, Type (0, 0), BuildingBlock: UVAHIK_clean_linker_0, # of connection points: 2
#     Edge 58, Type (0, 0), BuildingBlock: UVAHIK_clean_linker_0, # of connection points: 2
#     Edge 59, Type (0, 0), BuildingBlock: UVAHIK_clean_linker_0, # of connection points: 2
#     Edge 60, Type (0, 0), BuildingBlock: UVAHIK_clean_linker_0, # of connection points: 2
#     Edge 61, Type (0, 0), BuildingBlock: UVAHIK_clean_linker_0, # of connection points: 2
#     Edge 62, Type (0, 0), BuildingBlock: UVAHIK_clean_linker_0, # of connection points: 2
#     Edge 63, Type (0, 0), BuildingBlock: UVAHIK_clean_linker_0, # of connection points: 2
#     Edge 64, Type (0, 0), BuildingBlock: UVAHIK_clean_linker_0, # of connection points: 2
#     Edge 65, Type (0, 0), BuildingBlock: UVAHIK_clean_linker_0, # of connection points: 2
#     Edge 66, Type (0, 0), BuildingBlock: UVAHIK_clean_linker_0, # of connection points: 2
#     Edge 67, Type (0, 0), BuildingBlock: UVAHIK_clean_linker_0, # of connection points: 2
#     Edge 68, Type (0, 0), BuildingBlock: UVAHIK_clean_linker_0, # of connection points: 2
#     Edge 69, Type (0, 0), BuildingBlock: UVAHIK_clean_linker_0, # of connection points: 2
#     Edge 70, Type (0, 0), BuildingBlock: UVAHIK_clean_linker_0, # of connection points: 2
#     Edge 71, Type (0, 0), BuildingBlock: UVAHIK_clean_linker_0, # of connection points: 2
#     Edge 72, Type (0, 0), BuildingBlock: UVAHIK_clean_linker_0, # of connection points: 2
#     Edge 73, Type (0, 0), BuildingBlock: UVAHIK_clean_linker_0, # of connection points: 2
#     Edge 74, Type (0, 0), BuildingBlock: UVAHIK_clean_linker_0, # of connection points: 2
#     Edge 75, Type (0, 0), BuildingBlock: UVAHIK_clean_linker_0, # of connection points: 2
#     Edge 76, Type (0, 0), BuildingBlock: UVAHIK_clean_linker_0, # of connection points: 2
#     Edge 77, Type (0, 0), BuildingBlock: UVAHIK_clean_linker_0, # of connection points: 2
#     Edge 78, Type (0, 0), BuildingBlock: UVAHIK_clean_linker_0, # of connection points: 2
#     Edge 79, Type (0, 0), BuildingBlock: UVAHIK_clean_linker_0, # of connection points: 2
#     Edge 80, Type (0, 0), BuildingBlock: UVAHIK_clean_linker_0, # of connection points: 2
#     Edge 81, Type (0, 0), BuildingBlock: UVAHIK_clean_linker_0, # of connection points: 2
#     Edge 82, Type (0, 0), BuildingBlock: UVAHIK_clean_linker_0, # of connection points: 2
#     Edge 83, Type (0, 0), BuildingBlock: UVAHIK_clean_linker_0, # of connection points: 2
#     Edge 84, Type (0, 0), BuildingBlock: UVAHIK_clean_linker_0, # of connection points: 2
#     Edge 85, Type (0, 0), BuildingBlock: UVAHIK_clean_linker_0, # of connection points: 2
#     Edge 86, Type (0, 0), BuildingBlock: UVAHIK_clean_linker_0, # of connection points: 2
#     Edge 87, Type (0, 0), BuildingBlock: UVAHIK_clean_linker_0, # of connection points: 2
#     Edge 88, Type (0, 0), BuildingBlock: UVAHIK_clean_linker_0, # of connection points: 2
#     Edge 89, Type (0, 0), BuildingBlock: UVAHIK_clean_linker_0, # of connection points: 2
#     Edge 90, Type (0, 0), BuildingBlock: UVAHIK_clean_linker_0, # of connection points: 2
#     Edge 91, Type (0, 0), BuildingBlock: UVAHIK_clean_linker_0, # of connection points: 2
#     Edge 92, Type (0, 0), BuildingBlock: UVAHIK_clean_linker_0, # of connection points: 2
#     Edge 93, Type (0, 0), BuildingBlock: UVAHIK_clean_linker_0, # of connection points: 2
#     Edge 94, Type (0, 0), BuildingBlock: UVAHIK_clean_linker_0, # of connection points: 2
#     Edge 95, Type (0, 0), BuildingBlock: UVAHIK_clean_linker_0, # of connection points: 2
#     Edge 96, Type (0, 0), BuildingBlock: UVAHIK_clean_linker_0, # of connection points: 2
#     Edge 97, Type (0, 0), BuildingBlock: UVAHIK_clean_linker_0, # of connection points: 2
#     Edge 98, Type (0, 0), BuildingBlock: UVAHIK_clean_linker_0, # of connection points: 2
#     Edge 99, Type (0, 0), BuildingBlock: UVAHIK_clean_linker_0, # of connection points: 2
#     Edge 100, Type (0, 0), BuildingBlock: UVAHIK_clean_linker_0, # of connection points: 2
#     Edge 101, Type (0, 0), BuildingBlock: UVAHIK_clean_linker_0, # of connection points: 2
#     Edge 102, Type (0, 0), BuildingBlock: UVAHIK_clean_linker_0, # of connection points: 2
#     Edge 103, Type (0, 0), BuildingBlock: UVAHIK_clean_linker_0, # of connection points: 2
#     Edge 104, Type (0, 0), BuildingBlock: UVAHIK_clean_linker_0, # of connection points: 2
#     Edge 105, Type (0, 0), BuildingBlock: UVAHIK_clean_linker_0, # of connection points: 2
#     Edge 106, Type (0, 0), BuildingBlock: UVAHIK_clean_linker_0, # of connection points: 2
#     Edge 107, Type (0, 0), BuildingBlock: UVAHIK_clean_linker_0, # of connection points: 2
#     Edge 108, Type (0, 0), BuildingBlock: UVAHIK_clean_linker_0, # of connection points: 2
#     Edge 109, Type (0, 0), BuildingBlock: UVAHIK_clean_linker_0, # of connection points: 2
#     Edge 110, Type (0, 0), BuildingBlock: UVAHIK_clean_linker_0, # of connection points: 2
#     Edge 111, Type (0, 0), BuildingBlock: UVAHIK_clean_linker_0, # of connection points: 2
#     Edge 112, Type (0, 0), BuildingBlock: UVAHIK_clean_linker_0, # of connection points: 2
#     Edge 113, Type (0, 0), BuildingBlock: UVAHIK_clean_linker_0, # of connection points: 2
#     Edge 114, Type (0, 0), BuildingBlock: UVAHIK_clean_linker_0, # of connection points: 2
#     Edge 115, Type (0, 0), BuildingBlock: UVAHIK_clean_linker_0, # of connection points: 2
#     Edge 116, Type (0, 0), BuildingBlock: UVAHIK_clean_linker_0, # of connection points: 2
#     Edge 117, Type (0, 0), BuildingBlock: UVAHIK_clean_linker_0, # of connection points: 2
#     Edge 118, Type (0, 0), BuildingBlock: UVAHIK_clean_linker_0, # of connection points: 2
#     Edge 119, Type (0, 0), BuildingBlock: UVAHIK_clean_linker_0, # of connection points: 2
#     Edge 120, Type (0, 0), BuildingBlock: UVAHIK_clean_linker_0, # of connection points: 2
#     Edge 121, Type (0, 0), BuildingBlock: UVAHIK_clean_linker_0, # of connection points: 2
#     Edge 122, Type (0, 0), BuildingBlock: UVAHIK_clean_linker_0, # of connection points: 2
#     Edge 123, Type (0, 0), BuildingBlock: UVAHIK_clean_linker_0, # of connection points: 2
#     Edge 124, Type (0, 0), BuildingBlock: UVAHIK_clean_linker_0, # of connection points: 2
#     Edge 125, Type (0, 0), BuildingBlock: UVAHIK_clean_linker_0, # of connection points: 2
#     Edge 126, Type (0, 0), BuildingBlock: UVAHIK_clean_linker_0, # of connection points: 2
#     Edge 127, Type (0, 0), BuildingBlock: UVAHIK_clean_linker_0, # of connection points: 2
# Relax obj value: 0.073
# Max RMSD: 0.114
# Mean RMSD: 0.114
data_MOF--net-son--node1-BETDEL_clean_sbu_0--edge1-UVAHIK_clean_linker_0
_symmetry_space_group_name_H-M    P1
_symmetry_Int_Tables_number       1
_symmetry_cell_setting            triclinic
loop_
_symmetry_equiv_pos_as_xyz
'x, y, z'
_cell_length_a     141.66256
_cell_length_b     72.161353
_cell_length_c     22.494752
_cell_angle_alpha  89.919912
_cell_angle_beta   90.002411
_cell_angle_gamma 90.039185
loop_
_atom_site_label
_atom_site_type_symbol
_atom_site_fract_x
_atom_site_fract_y
_atom_site_fract_z
_atom_type_partial_charge
Dy0 Dy 0.31001 0.25791 0.16467 0.0
C1 C 0.29957 0.2568 0.40977 0.0
C2 C 0.31263 0.25744 0.0441 0.0
Dy3 Dy 0.30236 0.25402 0.28968 0.0
O4 O 0.31141 0.27215 0.07617 0.0
O5 O 0.31267 0.24288 0.07816 0.0
O6 O 0.3167 0.28475 0.19182 0.0
O7 O 0.30358 0.27714 0.22836 0.0
C8 C 0.31009 0.28908 0.22932 0.0
C9 C 0.30216 0.22259 0.22705 0.0
O10 O 0.28874 0.26106 0.24445 0.0
O11 O 0.29458 0.25325 0.15146 0.0
O12 O 0.29923 0.24159 0.37921 0.0
O13 O 0.30118 0.2707 0.37438 0.0
O14 O 0.29576 0.22696 0.26598 0.0
O15 O 0.30868 0.23458 0.22632 0.0
O16 O 0.3235 0.24943 0.20598 0.0
O17 O 0.31821 0.25465 0.30222 0.0
C18 C 0.28748 0.25703 0.18753 0.0
C19 C 0.32509 0.25112 0.26365 0.0
Dy20 Dy 0.93413 1.00067 0.16905 0.0
C21 C 0.944 1.00319 0.41464 0.0
C22 C 0.93162 1.00121 0.04854 0.0
Dy23 Dy 0.94126 1.00518 0.2944 0.0
O24 O 0.93342 0.98663 0.08018 0.0
O25 O 0.93097 0.01561 0.08291 0.0
O26 O 0.92823 0.97293 0.19308 0.0
O27 O 0.94085 0.98183 0.23345 0.0
C28 C 0.93467 0.96915 0.2323 0.0
C29 C 0.94059 0.03686 0.23237 0.0
O30 O 0.95515 0.99947 0.25065 0.0
O31 O 0.94942 0.00712 0.15729 0.0
O32 O 0.94394 0.01828 0.38339 0.0
O33 O 0.94279 0.98902 0.37995 0.0
O34 O 0.94703 0.0331 0.27162 0.0
O35 O 0.93449 0.02404 0.23074 0.0
O36 O 0.92026 0.00716 0.20933 0.0
O37 O 0.92549 1.00239 0.30592 0.0
C38 C 0.95648 1.00378 0.19402 0.0
C39 C 0.9186 1.00511 0.26682 0.0
Dy40 Dy 0.30752 0.9986 0.08425 0.0
C41 C 0.29746 1.00062 0.8384 0.0
C42 C 0.31014 0.9997 0.20467 0.0
Dy43 Dy 0.30025 1.003 0.9585 0.0
O44 O 0.30894 0.98481 0.1734 0.0
O45 O 0.31012 0.01409 0.16994 0.0
O46 O 0.31325 0.97073 0.06045 0.0
O47 O 0.30066 0.97986 0.0204 0.0
C48 C 0.30675 0.96708 0.02147 0.0
C49 C 0.30091 0.0345 0.02059 0.0
O50 O 0.28638 0.99735 0.00275 0.0
O51 O 0.29219 1.00466 0.0963 0.0
O52 O 0.29715 0.01574 0.86935 0.0
O53 O 0.29907 0.98662 0.87333 0.0
O54 O 0.29444 0.03085 0.9814 0.0
O55 O 0.30704 0.02179 0.02185 0.0
O56 O 0.3213 1.00544 0.04333 0.0
O57 O 0.31604 1.00073 0.94676 0.0
C58 C 0.2851 1.00156 0.0595 0.0
C59 C 0.32294 1.00355 0.98576 0.0
Dy60 Dy 0.9338 0.2596 0.08586 0.0
C61 C 0.94495 0.26449 0.83722 0.0
C62 C 0.93165 0.25997 0.20621 0.0
Dy63 Dy 0.94132 0.25621 0.9531 0.0
O64 O 0.93454 0.2738 0.17415 0.0
O65 O 0.92977 0.2458 0.17244 0.0
O66 O 0.92798 0.28743 0.06108 0.0
O67 O 0.94039 0.27806 0.01973 0.0
C68 C 0.93434 0.29091 0.02094 0.0
C69 C 0.93803 0.22232 0.99951 0.0
O70 O 0.95505 0.25923 0.00213 0.0
O71 O 0.94896 0.2521 0.09599 0.0
O72 O 0.94926 0.25175 0.86787 0.0
O73 O 0.93887 0.27309 0.87056 0.0
O74 O 0.94118 0.22494 0.94589 0.0
O75 O 0.93688 0.23795 0.02311 0.0
O76 O 0.92049 0.2511 0.04201 0.0
O77 O 0.92547 0.25774 0.94514 0.0
C78 C 0.95611 0.25459 0.05895 0.0
C79 C 0.91879 0.25343 0.98449 0.0
Dy80 Dy 0.69157 0.75238 0.70943 0.0
C81 C 0.68127 0.74977 0.95481 0.0
C82 C 0.69436 0.74891 0.58942 0.0
Dy83 Dy 0.68393 0.74922 0.83416 0.0
O84 O 0.6953 0.76405 0.61975 0.0
O85 O 0.69216 0.73538 0.62503 0.0
O86 O 0.69784 0.77991 0.72897 0.0
O87 O 0.68511 0.77231 0.77125 0.0
C88 C 0.69152 0.78455 0.76804 0.0
C89 C 0.68413 0.71756 0.77158 0.0
O90 O 0.67036 0.75716 0.79245 0.0
O91 O 0.67574 0.75159 0.69665 0.0
O92 O 0.6824 0.73505 0.92272 0.0
O93 O 0.68134 0.76433 0.92073 0.0
O94 O 0.67742 0.72208 0.808 0.0
O95 O 0.69058 0.72964 0.77232 0.0
O96 O 0.70521 0.74586 0.75557 0.0
O97 O 0.69928 0.75453 0.84745 0.0
C98 C 0.66882 0.75517 0.73481 0.0
C99 C 0.70643 0.7505 0.81205 0.0
Dy100 Dy 0.04999 1.00571 0.70202 0.0
C101 C 0.0591 0.01015 0.94797 0.0
C102 C 0.04743 0.00777 0.58177 0.0
Dy103 Dy 0.05676 0.01007 0.82742 0.0
O104 O 0.04795 0.99263 0.61252 0.0
O105 O 0.0481 0.02198 0.61692 0.0
O106 O 0.04388 0.97812 0.72239 0.0
O107 O 0.05635 0.98638 0.7665 0.0
C108 C 0.05008 0.97387 0.76271 0.0
C109 C 0.05628 0.04168 0.764 0.0
O110 O 0.07074 1.00361 0.78883 0.0
O111 O 0.06578 0.00857 0.6919 0.0
O112 O 0.05676 0.02434 0.91592 0.0
O113 O 0.06033 0.9958 0.91405 0.0
O114 O 0.06274 0.03785 0.80304 0.0
O115 O 0.05015 0.02897 0.76302 0.0
O116 O 0.03597 0.01122 0.74473 0.0
O117 O 0.04151 1.00326 0.83826 0.0
C118 C 0.07256 1.00573 0.73161 0.0
C119 C 0.03451 0.00671 0.80109 0.0
Dy120 Dy 0.69136 1.00432 0.04753 0.0
C121 C 0.68168 0.008 0.80131 0.0
C122 C 0.69405 0.00731 0.16752 0.0
Dy123 Dy 0.6842 0.00819 0.92183 0.0
O124 O 0.69453 0.99209 0.13719 0.0
O125 O 0.69233 0.02111 0.13203 0.0
O126 O 0.69751 0.97674 0.02765 0.0
O127 O 0.68498 0.98482 0.98397 0.0
C128 C 0.6913 0.97242 0.98753 0.0
C129 C 0.68456 0.0397 0.98522 0.0
O130 O 0.67043 1.00084 0.96189 0.0
O131 O 0.67554 1.00583 0.05861 0.0
O132 O 0.68334 0.02253 0.83337 0.0
O133 O 0.6812 0.99344 0.83525 0.0
O134 O 0.67801 0.03572 0.94693 0.0
O135 O 0.6908 0.02724 0.9854 0.0
O136 O 0.70518 0.01053 0.00312 0.0
O137 O 0.69952 1.00221 0.91019 0.0
C138 C 0.66871 1.00269 0.01937 0.0
C139 C 0.70656 0.00598 0.94673 0.0
Dy140 Dy 0.05081 0.75325 0.03961 0.0
C141 C 0.06077 0.75439 0.79395 0.0
C142 C 0.04843 0.74912 0.15968 0.0
Dy143 Dy 0.05839 0.75034 0.91393 0.0
O144 O 0.04564 0.76327 0.12868 0.0
O145 O 0.0523 0.737 0.12481 0.0
O146 O 0.04399 0.78027 0.01882 0.0
O147 O 0.05674 0.77339 0.97623 0.0
C148 C 0.05012 0.78515 0.97878 0.0
C149 C 0.05888 0.71861 0.97639 0.0
O150 O 0.07158 0.76055 0.95582 0.0
O151 O 0.0666 0.75448 0.05213 0.0
O152 O 0.06389 0.74058 0.82536 0.0
O153 O 0.05659 0.76623 0.82841 0.0
O154 O 0.06509 0.72299 0.93625 0.0
O155 O 0.05238 0.73053 0.97735 0.0
O156 O 0.03732 0.74419 0.99611 0.0
O157 O 0.04282 0.74888 0.89983 0.0
C158 C 0.07332 0.75875 0.01332 0.0
C159 C 0.03594 0.74529 0.93788 0.0
Dy160 Dy 0.30717 0.75656 0.67648 0.0
C161 C 0.29746 0.75538 0.92209 0.0
C162 C 0.30962 0.75619 0.55591 0.0
Dy163 Dy 0.30015 0.75286 0.80197 0.0
O164 O 0.30777 0.77069 0.58766 0.0
O165 O 0.31033 0.74174 0.59018 0.0
O166 O 0.31312 0.78442 0.6994 0.0
O167 O 0.30046 0.77575 0.73946 0.0
C168 C 0.30661 0.78843 0.73782 0.0
C169 C 0.30035 0.7208 0.74269 0.0
O170 O 0.28626 0.75867 0.758 0.0
O171 O 0.29189 0.75009 0.66533 0.0
O172 O 0.29732 0.7402 0.89144 0.0
O173 O 0.29884 0.76939 0.88686 0.0
O174 O 0.29409 0.72517 0.78236 0.0
O175 O 0.30664 0.73328 0.73909 0.0
O176 O 0.32108 0.7501 0.71648 0.0
O177 O 0.31592 0.75537 0.81286 0.0
C178 C 0.28486 0.75386 0.70186 0.0
C179 C 0.32278 0.75237 0.77381 0.0
Dy180 Dy 0.9338 0.4998 0.66203 0.0
C181 C 0.94415 0.50045 0.90735 0.0
C182 C 0.93127 0.50366 0.542 0.0
Dy183 Dy 0.9416 0.50387 0.78708 0.0
O184 O 0.92868 0.48939 0.57324 0.0
O185 O 0.93498 0.51604 0.57669 0.0
O186 O 0.92772 0.47203 0.68518 0.0
O187 O 0.94032 0.4807 0.72591 0.0
C188 C 0.93404 0.46825 0.72525 0.0
C189 C 0.94137 0.53548 0.72415 0.0
O190 O 0.95519 0.49584 0.74311 0.0
O191 O 0.94938 0.49953 0.6471 0.0
O192 O 0.94631 0.51495 0.87598 0.0
O193 O 0.94085 0.48762 0.8727 0.0
O194 O 0.94777 0.53141 0.76341 0.0
O195 O 0.93505 0.52309 0.72364 0.0
O196 O 0.92043 0.50872 0.70471 0.0
O197 O 0.92582 0.50361 0.80075 0.0
C198 C 0.95641 0.49671 0.68471 0.0
C199 C 0.9189 0.50704 0.76249 0.0
Dy200 Dy 0.30892 0.49759 0.58984 0.0
C201 C 0.29829 0.49722 0.34475 0.0
C202 C 0.31151 0.50076 0.71007 0.0
Dy203 Dy 0.3009 0.50087 0.46486 0.0
O204 O 0.31371 0.48636 0.67842 0.0
O205 O 0.30818 0.51366 0.67567 0.0
O206 O 0.31591 0.4709 0.56369 0.0
O207 O 0.30277 0.47801 0.52646 0.0
C208 C 0.30942 0.4664 0.52547 0.0
C209 C 0.30021 0.53236 0.52735 0.0
O210 O 0.28744 0.49245 0.50959 0.0
O211 O 0.29336 0.49643 0.60521 0.0
O212 O 0.2967 0.51214 0.37528 0.0
O213 O 0.30103 0.48406 0.3802 0.0
O214 O 0.29395 0.52755 0.48806 0.0
O215 O 0.30691 0.52076 0.52823 0.0
O216 O 0.322 0.5079 0.54696 0.0
O217 O 0.31668 0.50202 0.45119 0.0
C218 C 0.2863 0.4933 0.56806 0.0
C219 C 0.32353 0.50626 0.48918 0.0
Dy220 Dy 0.93348 0.75984 0.58925 0.0
C221 C 0.94426 0.76593 0.34087 0.0
C222 C 0.93132 0.75588 0.70929 0.0
Dy223 Dy 0.94135 0.75693 0.45711 0.0
O224 O 0.92751 0.7689 0.67736 0.0
O225 O 0.93605 0.74473 0.67528 0.0
O226 O 0.9274 0.78776 0.56671 0.0
O227 O 0.93965 0.77869 0.52332 0.0
C228 C 0.93348 0.7913 0.52492 0.0
C229 C 0.93879 0.72275 0.50348 0.0
O230 O 0.95503 0.7621 0.50529 0.0
O231 O 0.94901 0.7622 0.60243 0.0
O232 O 0.94935 0.75422 0.37111 0.0
O233 O 0.9378 0.77309 0.3748 0.0
O234 O 0.94208 0.72572 0.45035 0.0
O235 O 0.9372 0.73825 0.52719 0.0
O236 O 0.92084 0.7484 0.54396 0.0
O237 O 0.9255 0.75708 0.44845 0.0
C238 C 0.9561 0.763 0.56402 0.0
C239 C 0.91901 0.7513 0.48692 0.0
Dy240 Dy 0.69164 0.25203 0.21951 0.0
C241 C 0.68034 0.25551 0.46774 0.0
C242 C 0.69423 0.25173 0.0992 0.0
Dy243 Dy 0.68332 0.24772 0.35092 0.0
O244 O 0.6937 0.26649 0.13186 0.0
O245 O 0.69359 0.23705 0.13249 0.0
O246 O 0.69886 0.27787 0.24988 0.0
O247 O 0.68581 0.27042 0.28782 0.0
C248 C 0.69253 0.28195 0.28967 0.0
C249 C 0.68493 0.21445 0.29633 0.0
O250 O 0.67016 0.25572 0.30394 0.0
O251 O 0.67585 0.25254 0.20681 0.0
O252 O 0.67565 0.24324 0.43729 0.0
O253 O 0.68644 0.26384 0.4338 0.0
O254 O 0.68144 0.21637 0.3495 0.0
O255 O 0.6871 0.23031 0.27782 0.0
O256 O 0.70453 0.24117 0.26538 0.0
O257 O 0.69893 0.24567 0.36238 0.0
C258 C 0.66887 0.25516 0.24554 0.0
C259 C 0.70571 0.24154 0.32401 0.0
Dy260 Dy 0.05213 0.50797 0.21246 0.0
C261 C 0.06226 0.50791 0.46534 0.0
C262 C 0.04904 0.51659 0.09627 0.0
Dy263 Dy 0.05998 0.51149 0.34542 0.0
O264 O 0.0441 0.50469 0.12682 0.0
O265 O 0.05546 0.5241 0.12981 0.0
O266 O 0.05189 0.47658 0.20721 0.0
O267 O 0.05618 0.48996 0.28387 0.0
C268 C 0.05491 0.47424 0.26128 0.0
C269 C 0.06019 0.54241 0.27877 0.0
O270 O 0.07263 0.50002 0.30031 0.0
O271 O 0.06797 0.50813 0.20413 0.0
O272 O 0.06531 0.52174 0.43368 0.0
O273 O 0.05823 0.49577 0.43114 0.0
O274 O 0.06625 0.53907 0.32088 0.0
O275 O 0.05395 0.52992 0.27804 0.0
O276 O 0.03845 0.51315 0.26062 0.0
O277 O 0.04443 0.51372 0.35794 0.0
C278 C 0.07445 0.50253 0.24299 0.0
C279 C 0.03736 0.51431 0.31931 0.0
Dy280 Dy 0.69167 0.50314 0.54559 0.0
C281 C 0.6816 0.50726 0.30003 0.0
C282 C 0.69441 0.50578 0.66573 0.0
Dy283 Dy 0.6842 0.50743 0.42059 0.0
O284 O 0.69449 0.49054 0.63526 0.0
O285 O 0.69309 0.51976 0.63025 0.0
O286 O 0.69806 0.47589 0.52232 0.0
O287 O 0.68525 0.48389 0.48176 0.0
C288 C 0.69167 0.4717 0.48313 0.0
C289 C 0.68438 0.53856 0.48575 0.0
O290 O 0.67058 0.49952 0.46124 0.0
O291 O 0.67583 0.50448 0.55767 0.0
O292 O 0.68316 0.52183 0.33218 0.0
O293 O 0.68122 0.49269 0.33397 0.0
O294 O 0.67775 0.53448 0.44813 0.0
O295 O 0.69077 0.5264 0.48455 0.0
O296 O 0.7054 0.50973 0.5009 0.0
O297 O 0.69958 0.50208 0.40774 0.0
C298 C 0.66895 0.50128 0.51883 0.0
C299 C 0.70667 0.50566 0.44406 0.0
Dy300 Dy 0.05069 0.25569 0.54565 0.0
C301 C 0.0605 0.25608 0.29932 0.0
C302 C 0.04798 0.25094 0.66523 0.0
Dy303 Dy 0.05789 0.25287 0.4196 0.0
O304 O 0.04514 0.26508 0.63443 0.0
O305 O 0.05207 0.2391 0.63033 0.0
O306 O 0.04587 0.28475 0.53079 0.0
O307 O 0.05787 0.27517 0.48525 0.0
C308 C 0.05213 0.2885 0.49043 0.0
C309 C 0.05631 0.22028 0.47711 0.0
O310 O 0.07163 0.2597 0.46179 0.0
O311 O 0.06645 0.25296 0.5572 0.0
O312 O 0.06266 0.24168 0.33107 0.0
O313 O 0.05716 0.26895 0.33357 0.0
O314 O 0.06278 0.22387 0.43796 0.0
O315 O 0.05057 0.23362 0.48015 0.0
O316 O 0.03687 0.24994 0.50022 0.0
O317 O 0.04255 0.25853 0.40758 0.0
C318 C 0.07334 0.25648 0.51874 0.0
C319 C 0.03549 0.25489 0.4441 0.0
Dy320 Dy 0.80931 0.26396 0.66339 0.0
C321 C 0.79771 0.26751 0.91146 0.0
C322 C 0.81187 0.26168 0.54325 0.0
Dy323 Dy 0.80112 0.25954 0.79503 0.0
O324 O 0.81306 0.27653 0.57491 0.0
O325 O 0.80958 0.24789 0.57758 0.0
O326 O 0.81573 0.29087 0.69225 0.0
O327 O 0.80295 0.28202 0.73081 0.0
C328 C 0.80932 0.29429 0.73218 0.0
C329 C 0.8042 0.22614 0.74498 0.0
O330 O 0.78748 0.26389 0.74593 0.0
O331 O 0.79374 0.26456 0.64939 0.0
O332 O 0.7933 0.2549 0.88082 0.0
O333 O 0.80373 0.27618 0.87774 0.0
O334 O 0.80107 0.22813 0.79893 0.0
O335 O 0.80545 0.24201 0.72327 0.0
O336 O 0.82207 0.25311 0.70887 0.0
O337 O 0.81694 0.25977 0.80528 0.0
C338 C 0.78655 0.26474 0.68711 0.0
C339 C 0.82363 0.25498 0.76672 0.0
Dy340 Dy 0.43286 1.00368 0.66488 0.0
C341 C 0.44324 1.00406 0.91039 0.0
C342 C 0.43033 0.0075 0.54486 0.0
Dy343 Dy 0.44067 0.00749 0.79016 0.0
O344 O 0.4278 0.99319 0.57609 0.0
O345 O 0.43398 0.01996 0.57956 0.0
O346 O 0.42666 0.976 0.68783 0.0
O347 O 0.43929 0.98445 0.72865 0.0
C348 C 0.43296 0.97211 0.7279 0.0
C349 C 0.44061 0.03911 0.72746 0.0
O350 O 0.45422 0.99928 0.74604 0.0
O351 O 0.44843 1.00328 0.65011 0.0
O352 O 0.44534 0.0186 0.87907 0.0
O353 O 0.43999 0.99119 0.87572 0.0
O354 O 0.44698 0.0349 0.76675 0.0
O355 O 0.43421 0.02686 0.72681 0.0
O356 O 0.41951 0.01261 0.70766 0.0
O357 O 0.42489 0.00724 0.80362 0.0
C358 C 0.45545 1.00025 0.68765 0.0
C359 C 0.41797 0.01074 0.76538 0.0
Dy360 Dy 0.8078 1.00441 0.58192 0.0
C361 C 0.79766 1.00489 0.33688 0.0
C362 C 0.81041 1.0049 0.70255 0.0
Dy363 Dy 0.80047 0.00825 0.45687 0.0
O364 O 0.80897 0.99023 0.67067 0.0
O365 O 0.81065 0.01941 0.66832 0.0
O366 O 0.81387 0.97691 0.55685 0.0
O367 O 0.80093 0.98522 0.5193 0.0
C368 C 0.8072 0.97275 0.51965 0.0
C369 C 0.80131 0.04045 0.51598 0.0
O370 O 0.78668 1.00239 0.50196 0.0
O371 O 0.79254 0.01084 0.59418 0.0
O372 O 0.79677 0.02004 0.36725 0.0
O373 O 0.79984 0.99135 0.3724 0.0
O374 O 0.79494 0.03656 0.47636 0.0
O375 O 0.80732 0.02752 0.51899 0.0
O376 O 0.8216 0.01113 0.54078 0.0
O377 O 0.81624 0.00599 0.44467 0.0
C378 C 0.78541 0.00713 0.55826 0.0
C379 C 0.82318 0.0089 0.48327 0.0
Dy380 Dy 0.43385 0.26305 0.58879 0.0
C381 C 0.44519 0.26917 0.34131 0.0
C382 C 0.43151 0.25984 0.70909 0.0
Dy383 Dy 0.44229 0.26017 0.45769 0.0
O384 O 0.4284 0.27347 0.67678 0.0
O385 O 0.43561 0.24769 0.6753 0.0
O386 O 0.42699 0.28982 0.5614 0.0
O387 O 0.4399 0.282 0.52287 0.0
C388 C 0.43336 0.29384 0.52173 0.0
C389 C 0.44008 0.22608 0.50519 0.0
O390 O 0.45573 0.2661 0.50726 0.0
O391 O 0.44934 0.26614 0.60346 0.0
O392 O 0.45016 0.25718 0.37125 0.0
O393 O 0.4389 0.2767 0.37574 0.0
O394 O 0.44354 0.229 0.45245 0.0
O395 O 0.4382 0.24158 0.52802 0.0
O396 O 0.42153 0.25065 0.54278 0.0
O397 O 0.42648 0.25878 0.44719 0.0
C398 C 0.45657 0.26717 0.56609 0.0
C399 C 0.41992 0.25289 0.48514 0.0
Dy400 Dy 0.1908 0.75804 0.21385 0.0
C401 C 0.18013 0.75456 0.45933 0.0
C402 C 0.19367 0.75515 0.09377 0.0
Dy403 Dy 0.18287 0.75393 0.33879 0.0
O404 O 0.1942 0.77033 0.12441 0.0
O405 O 0.19186 0.74134 0.12913 0.0
O406 O 0.19708 0.7854 0.23785 0.0
O407 O 0.1842 0.77719 0.27699 0.0
C408 C 0.19059 0.78944 0.27655 0.0
C409 C 0.18311 0.72285 0.27363 0.0
O410 O 0.1694 0.76204 0.29609 0.0
O411 O 0.175 0.75714 0.20028 0.0
O412 O 0.18126 0.73978 0.42738 0.0
O413 O 0.18022 0.76909 0.42512 0.0
O414 O 0.17643 0.7269 0.31096 0.0
O415 O 0.18954 0.73496 0.27539 0.0
O416 O 0.20433 0.75108 0.2601 0.0
O417 O 0.19828 0.75877 0.35274 0.0
C418 C 0.168 0.7604 0.23817 0.0
C419 C 0.20546 0.75508 0.31714 0.0
Dy420 Dy 0.55116 0.00622 0.21954 0.0
C421 C 0.56208 0.00728 0.46398 0.0
C422 C 0.54845 0.00908 0.09914 0.0
Dy423 Dy 0.55945 0.01015 0.34359 0.0
O424 O 0.54737 0.9941 0.13037 0.0
O425 O 0.55073 0.0227 0.13407 0.0
O426 O 0.54401 0.97999 0.24673 0.0
O427 O 0.55723 0.98665 0.28378 0.0
C428 C 0.55045 0.97523 0.28498 0.0
C429 C 0.56006 0.04093 0.27677 0.0
O430 O 0.57247 0.99983 0.30042 0.0
O431 O 0.56692 1.00523 0.20484 0.0
O432 O 0.56393 0.02186 0.43214 0.0
O433 O 0.5591 0.99406 0.42965 0.0
O434 O 0.56656 0.03653 0.31508 0.0
O435 O 0.55334 0.02948 0.27923 0.0
O436 O 0.53783 0.01528 0.26422 0.0
O437 O 0.54391 0.01178 0.35967 0.0
C438 C 0.57386 1.00124 0.24244 0.0
C439 C 0.5368 0.0149 0.32281 0.0
Dy440 Dy 0.19107 0.00914 0.54668 0.0
C441 C 0.18091 0.0128 0.30125 0.0
C442 C 0.19387 0.01167 0.66683 0.0
Dy443 Dy 0.18353 0.01322 0.42184 0.0
O444 O 0.19391 0.99647 0.63621 0.0
O445 O 0.19256 0.02569 0.63148 0.0
O446 O 0.19736 0.98178 0.52367 0.0
O447 O 0.18453 0.98982 0.48348 0.0
C448 C 0.19092 0.97757 0.48484 0.0
C449 C 0.1838 0.0445 0.48614 0.0
O450 O 0.16989 1.00558 0.46314 0.0
O451 O 0.17526 0.01074 0.5592 0.0
O452 O 0.18239 0.02745 0.33318 0.0
O453 O 0.18061 0.99828 0.33545 0.0
O454 O 0.17715 0.04036 0.44873 0.0
O455 O 0.19019 0.03231 0.48519 0.0
O456 O 0.20481 0.01541 0.50176 0.0
O457 O 0.1989 0.00776 0.4088 0.0
C458 C 0.16833 0.00752 0.52076 0.0
C459 C 0.20603 0.01126 0.44493 0.0
Dy460 Dy 0.55129 0.75294 0.53415 0.0
C461 C 0.56193 0.7515 0.28948 0.0
C462 C 0.54862 0.75009 0.6545 0.0
Dy463 Dy 0.55933 0.74867 0.40986 0.0
O464 O 0.54774 0.76517 0.6235 0.0
O465 O 0.55068 0.7364 0.61941 0.0
O466 O 0.54435 0.77941 0.50748 0.0
O467 O 0.55745 0.77229 0.46955 0.0
C468 C 0.55076 0.78391 0.46875 0.0
C469 C 0.55969 0.71783 0.47652 0.0
O470 O 0.57249 0.75869 0.45215 0.0
O471 O 0.5671 0.7534 0.54811 0.0
O472 O 0.56372 0.73688 0.32126 0.0
O473 O 0.55901 0.76475 0.32383 0.0
O474 O 0.5662 0.72204 0.43803 0.0
O475 O 0.55309 0.72954 0.47445 0.0
O476 O 0.53777 0.7446 0.49012 0.0
O477 O 0.54377 0.7477 0.39432 0.0
C478 C 0.574 0.75722 0.50998 0.0
C479 C 0.53667 0.74499 0.43158 0.0
Dy480 Dy 0.80907 0.76317 0.16677 0.0
C481 C 0.79737 0.76638 0.41494 0.0
C482 C 0.81143 0.76377 0.04649 0.0
Dy483 Dy 0.80122 0.7586 0.29901 0.0
O484 O 0.80874 0.77769 0.07869 0.0
O485 O 0.81305 0.74942 0.08017 0.0
O486 O 0.81469 0.79082 0.19509 0.0
O487 O 0.80211 0.78085 0.23327 0.0
C488 C 0.8081 0.79383 0.23408 0.0
C489 C 0.80521 0.72535 0.25066 0.0
O490 O 0.78753 0.76058 0.24917 0.0
O491 O 0.79396 0.75541 0.15482 0.0
O492 O 0.79355 0.75299 0.38456 0.0
O493 O 0.80303 0.77593 0.38119 0.0
O494 O 0.80208 0.72725 0.30463 0.0
O495 O 0.80602 0.74122 0.22824 0.0
O496 O 0.82233 0.75468 0.21166 0.0
O497 O 0.81704 0.7606 0.3084 0.0
C498 C 0.7867 0.75669 0.19165 0.0
C499 C 0.82385 0.75665 0.26955 0.0
Dy500 Dy 0.43328 0.50355 0.16522 0.0
C501 C 0.44378 0.50439 0.40997 0.0
C502 C 0.43065 0.50423 0.04457 0.0
Dy503 Dy 0.44097 0.50725 0.28978 0.0
O504 O 0.43173 0.48945 0.07663 0.0
O505 O 0.43073 0.51875 0.07869 0.0
O506 O 0.42658 0.47668 0.1922 0.0
O507 O 0.43974 0.48412 0.22856 0.0
C508 C 0.4332 0.47221 0.22947 0.0
C509 C 0.44111 0.53887 0.2275 0.0
O510 O 0.45457 0.50013 0.24447 0.0
O511 O 0.4487 0.50812 0.1517 0.0
O512 O 0.44419 0.51959 0.37929 0.0
O513 O 0.4421 0.49054 0.37464 0.0
O514 O 0.44756 0.53436 0.26598 0.0
O515 O 0.4346 0.52686 0.22685 0.0
O516 O 0.41979 0.51192 0.20672 0.0
O517 O 0.42515 0.50646 0.30269 0.0
C518 C 0.45582 0.50421 0.18755 0.0
C519 C 0.41824 0.51004 0.26438 0.0
Dy520 Dy 0.80863 0.50424 0.08453 0.0
C521 C 0.79848 0.50459 0.83924 0.0
C522 C 0.81123 0.5047 0.20513 0.0
Dy523 Dy 0.80128 0.50814 0.95911 0.0
O524 O 0.80995 0.49 0.17311 0.0
O525 O 0.81133 0.51924 0.17105 0.0
O526 O 0.81473 0.47677 0.05902 0.0
O527 O 0.80179 0.48518 0.02161 0.0
C528 C 0.80805 0.47271 0.02172 0.0
C529 C 0.80207 0.54025 0.01857 0.0
O530 O 0.78751 0.50222 0.00424 0.0
O531 O 0.79335 0.51052 0.09669 0.0
O532 O 0.79746 0.51974 0.86946 0.0
O533 O 0.80079 0.49115 0.87484 0.0
O534 O 0.79575 0.53644 0.9786 0.0
O535 O 0.80809 0.52732 0.02156 0.0
O536 O 0.82238 0.5113 0.04341 0.0
O537 O 0.81709 0.50623 0.94708 0.0
C538 C 0.78624 0.50688 0.0606 0.0
C539 C 0.824 0.50923 0.98585 0.0
Dy540 Dy 0.43294 0.76425 0.0919 0.0
C541 C 0.44344 0.76201 0.84652 0.0
C542 C 0.4304 0.7609 0.21205 0.0
Dy543 Dy 0.44076 0.75968 0.9669 0.0
O544 O 0.42837 0.7755 0.18078 0.0
O545 O 0.43355 0.74794 0.17734 0.0
O546 O 0.42657 0.79156 0.06677 0.0
O547 O 0.43928 0.78314 0.02672 0.0
C548 C 0.43288 0.79533 0.02657 0.0
C549 C 0.44097 0.72878 0.03277 0.0
O550 O 0.45439 0.7677 0.01042 0.0
O551 O 0.44852 0.76476 0.10661 0.0
O552 O 0.44447 0.74712 0.87825 0.0
O553 O 0.4412 0.77577 0.88083 0.0
O554 O 0.44742 0.7329 0.99387 0.0
O555 O 0.43443 0.7407 0.0317 0.0
O556 O 0.41962 0.75494 0.0497 0.0
O557 O 0.42497 0.75989 0.95344 0.0
C558 C 0.45557 0.76725 0.0689 0.0
C559 C 0.41807 0.75644 0.99191 0.0
Dy560 Dy 0.19132 0.25874 0.71363 0.0
C561 C 0.18109 0.25427 0.95912 0.0
C562 C 0.19415 0.2564 0.59347 0.0
Dy563 Dy 0.18373 0.25421 0.83856 0.0
O564 O 0.19387 0.2716 0.62401 0.0
O565 O 0.19315 0.24229 0.62891 0.0
O566 O 0.19748 0.28619 0.73734 0.0
O567 O 0.18469 0.27773 0.77736 0.0
C568 C 0.19102 0.29012 0.77637 0.0
C569 C 0.18417 0.22312 0.77336 0.0
O570 O 0.17007 0.2615 0.79702 0.0
O571 O 0.17553 0.25666 0.70096 0.0
O572 O 0.1829 0.2398 0.92705 0.0
O573 O 0.18047 0.26879 0.92507 0.0
O574 O 0.1775 0.22696 0.81097 0.0
O575 O 0.19048 0.23547 0.7747 0.0
O576 O 0.20505 0.25266 0.75889 0.0
O577 O 0.19906 0.26006 0.85184 0.0
C578 C 0.16856 0.25959 0.73932 0.0
C579 C 0.20623 0.25676 0.81582 0.0
Dy580 Dy 0.55088 0.50558 0.70314 0.0
C581 C 0.56101 0.50926 0.95577 0.0
C582 C 0.54727 0.5142 0.58736 0.0
Dy583 Dy 0.55876 0.50862 0.83537 0.0
O584 O 0.54305 0.50118 0.61742 0.0
O585 O 0.5532 0.52296 0.62137 0.0
O586 O 0.5507 0.47433 0.69575 0.0
O587 O 0.5553 0.48711 0.77279 0.0
C588 C 0.55394 0.47155 0.74907 0.0
C589 C 0.55849 0.53969 0.76931 0.0
O590 O 0.57187 0.49947 0.7906 0.0
O591 O 0.56674 0.50644 0.69422 0.0
O592 O 0.55835 0.52317 0.92326 0.0
O593 O 0.56264 0.49488 0.92238 0.0
O594 O 0.56504 0.53589 0.80788 0.0
O595 O 0.55222 0.52726 0.76995 0.0
O596 O 0.53727 0.50886 0.75304 0.0
O597 O 0.54353 0.5017 0.84646 0.0
C598 C 0.57346 0.50186 0.73297 0.0
C599 C 0.53631 0.50429 0.80998 0.0
Dy600 Dy 0.19134 0.51068 0.03644 0.0
C601 C 0.18027 0.51164 0.79187 0.0
C602 C 0.19405 0.51392 0.15671 0.0
Dy603 Dy 0.18295 0.51459 0.91222 0.0
O604 O 0.19532 0.49893 0.12591 0.0
O605 O 0.19161 0.52735 0.12139 0.0
O606 O 0.19829 0.4842 0.01003 0.0
O607 O 0.18513 0.49122 0.97267 0.0
C608 C 0.19183 0.47965 0.97163 0.0
C609 C 0.18257 0.54541 0.97854 0.0
O610 O 0.16995 0.50421 0.95599 0.0
O611 O 0.17559 0.50936 0.05151 0.0
O612 O 0.17838 0.52621 0.82357 0.0
O613 O 0.1833 0.49848 0.82635 0.0
O614 O 0.17601 0.54112 0.9405 0.0
O615 O 0.18923 0.53383 0.97606 0.0
O616 O 0.20471 0.51916 0.99093 0.0
O617 O 0.19849 0.51576 0.89576 0.0
C618 C 0.16863 0.50537 0.01411 0.0
C619 C 0.20567 0.51862 0.9323 0.0
Dy620 Dy 0.55176 0.25369 0.03778 0.0
C621 C 0.56264 0.25206 0.79295 0.0
C622 C 0.54905 0.25076 0.1581 0.0
Dy623 Dy 0.55993 0.24929 0.91324 0.0
O624 O 0.54798 0.26577 0.12698 0.0
O625 O 0.55131 0.23716 0.12311 0.0
O626 O 0.54525 0.28069 0.01189 0.0
O627 O 0.55818 0.27277 0.97349 0.0
C628 C 0.5517 0.28483 0.97294 0.0
C629 C 0.5601 0.21854 0.98011 0.0
O630 O 0.57312 0.25892 0.95637 0.0
O631 O 0.56754 0.25388 0.05213 0.0
O632 O 0.56427 0.23737 0.82474 0.0
O633 O 0.55983 0.26543 0.82727 0.0
O634 O 0.56664 0.22254 0.94158 0.0
O635 O 0.55355 0.23037 0.97781 0.0
O636 O 0.53825 0.24569 0.99299 0.0
O637 O 0.54437 0.24873 0.89742 0.0
C638 C 0.57452 0.25748 0.01436 0.0
C639 C 0.53722 0.24615 0.9344 0.0
C640 C 0.21719 0.27353 0.8815 0.0
C641 C 0.21567 0.25885 0.84181 0.0
C642 C 0.2252 0.27393 0.91723 0.0
C643 C 0.24871 0.25336 0.94209 0.0
H644 H 0.24344 0.26552 0.10695 0.0
C645 C 0.27627 0.24084 0.1221 0.0
C646 C 0.27801 0.25548 0.16163 0.0
C647 C 0.26828 0.24089 0.08625 0.0
C648 C 0.24504 0.26227 0.06104 0.0
H649 H 0.22149 0.23359 0.80545 0.0
H650 H 0.23561 0.2341 0.86878 0.0
H651 H 0.2308 0.26696 0.0335 0.0
H652 H 0.27256 0.2811 0.19768 0.0
H653 H 0.25842 0.28131 0.13422 0.0
H654 H 0.26294 0.24859 0.96971 0.0
C655 C 0.23062 0.24542 0.87184 0.0
C656 C 0.23782 0.26313 0.01886 0.0
C657 C 0.22259 0.24513 0.83544 0.0
C658 C 0.27129 0.2696 0.16779 0.0
C659 C 0.26326 0.26973 0.13133 0.0
C660 C 0.25593 0.25249 0.98427 0.0
C661 C 0.23182 0.2595 0.91458 0.0
C662 C 0.23957 0.2587 0.9589 0.0
C663 C 0.26187 0.25569 0.08869 0.0
C664 C 0.25416 0.25685 0.04426 0.0
H665 H 0.21196 0.28438 0.88666 0.0
H666 H 0.22605 0.28524 0.9484 0.0
H667 H 0.25031 0.25009 0.89621 0.0
H668 H 0.28133 0.22969 0.11711 0.0
H669 H 0.26727 0.22961 0.05514 0.0
C670 C 0.02303 0.9887 0.85933 0.0
C671 C 0.02498 1.00457 0.82539 0.0
C672 C 0.01527 0.98822 0.89724 0.0
C673 C 0.99319 0.01186 0.94014 0.0
H674 H -0.00039 0.99328 0.09714 0.0
C675 C 0.96786 0.02162 0.13443 0.0
C676 C 0.96597 1.00583 0.16889 0.0
C677 C 0.97559 0.02203 0.09624 0.0
C678 C -0.00232 0.99837 0.05347 0.0
H679 H 0.02014 0.03198 0.80134 0.0
H680 H 0.00645 0.03127 0.86819 0.0
H681 H 0.01127 0.99208 0.01755 0.0
H682 H 0.97086 0.9785 0.19348 0.0
H683 H 0.98449 0.97909 0.12608 0.0
H684 H 0.97959 0.01813 0.97604 0.0
C685 C 0.01088 0.0191 0.86501 0.0
C686 C 0.00434 0.99763 0.00775 0.0
C687 C 0.01866 0.0195 0.82649 0.0
C688 C 0.9723 0.99092 0.1679 0.0
C689 C 0.98004 0.99126 0.12908 0.0
C690 C 0.98652 0.01258 0.98585 0.0
C691 C 0.00936 1.00373 0.90259 0.0
C692 C 0.00216 1.00433 0.95052 0.0
C693 C 0.98152 0.00654 0.09109 0.0
C694 C 0.98871 1.0059 0.0431 0.0
H695 H 0.02785 0.97703 0.85906 0.0
H696 H 0.01415 0.97601 0.92438 0.0
H697 H 0.99126 0.01695 0.89647 0.0
H698 H 0.96304 0.03328 0.13463 0.0
H699 H 0.97668 0.0342 0.06882 0.0
C700 C 0.21721 0.99288 0.38594 0.0
C701 C 0.21547 0.00888 0.41952 0.0
C702 C 0.22501 0.99192 0.34852 0.0
C703 C 0.24764 0.01386 0.30797 0.0
H704 H 0.2415 0.99495 0.15106 0.0
C705 C 0.27397 0.02038 0.11746 0.0
C706 C 0.27563 1.00428 0.0842 0.0
C707 C 0.26613 0.02162 0.15447 0.0
C708 C 0.24335 1.00012 0.19473 0.0
H709 H 0.22068 0.03605 0.44331 0.0
H710 H 0.23446 0.03449 0.37715 0.0
H711 H 0.22948 0.99516 0.22858 0.0
H712 H 0.27026 0.97724 0.06056 0.0
H713 H 0.25642 0.97927 0.12602 0.0
H714 H 0.26152 0.01879 0.27417 0.0
C715 C 0.22982 0.02259 0.38026 0.0
C716 C 0.23648 1.00021 0.23925 0.0
C717 C 0.22199 0.02349 0.41832 0.0
C718 C 0.269 0.98987 0.08527 0.0
C719 C 0.26114 0.99104 0.12294 0.0
C720 C 0.25451 0.01377 0.26345 0.0
C721 C 0.23118 0.00706 0.34329 0.0
C722 C 0.23856 0.00701 0.29644 0.0
C723 C 0.25985 0.00666 0.15964 0.0
C724 C 0.25244 0.00693 0.2063 0.0
H725 H 0.21225 0.98144 0.38642 0.0
H726 H 0.22601 0.97958 0.3219 0.0
H727 H 0.24948 0.01901 0.35166 0.0
H728 H 0.27903 0.03167 0.11711 0.0
H729 H 0.2652 0.03403 0.18089 0.0
C730 C 0.02419 0.27118 0.37953 0.0
C731 C 0.02599 0.25638 0.41843 0.0
C732 C 0.01636 0.27085 0.34219 0.0
C733 C 0.99369 0.24803 0.31013 0.0
H734 H -0.00012 0.26118 0.14722 0.0
C735 C 0.96689 0.23705 0.12405 0.0
C736 C 0.96553 0.25196 0.08486 0.0
C737 C 0.97475 0.23647 0.16113 0.0
C738 C -0.00199 0.25762 0.19252 0.0
H739 H 0.02081 0.23016 0.45185 0.0
H740 H 0.00696 0.2295 0.38597 0.0
H741 H 0.01196 0.26314 0.22408 0.0
H742 H 0.97151 0.27743 0.05086 0.0
H743 H 0.98534 0.27661 0.11646 0.0
H744 H 0.97971 0.24267 0.27872 0.0
C745 C 0.01161 0.24142 0.38472 0.0
C746 C 0.00492 0.25876 0.23663 0.0
C747 C 0.01947 0.24182 0.42264 0.0
C748 C 0.97249 0.26569 0.08027 0.0
C749 C 0.98037 0.26522 0.11803 0.0
C750 C 0.98676 0.24693 0.26602 0.0
C751 C 0.01021 0.25561 0.34248 0.0
C752 C 0.00282 0.2541 0.29598 0.0
C753 C 0.98137 0.25094 0.16045 0.0
C754 C 0.98885 0.25172 0.20669 0.0
H755 H 0.02912 0.28261 0.37582 0.0
H756 H 0.01534 0.28222 0.31137 0.0
H757 H 0.99184 0.2445 0.35548 0.0
H758 H 0.9616 0.22625 0.12806 0.0
H759 H 0.97544 0.22502 0.19201 0.0
C760 C 0.71746 0.76681 0.87847 0.0
C761 C 0.71587 0.75221 0.83854 0.0
C762 C 0.72534 0.76682 0.91525 0.0
C763 C 0.74866 0.74643 0.94268 0.0
H764 H 0.74267 0.75753 0.10732 0.0
C765 C 0.77659 0.73851 0.12417 0.0
C766 C 0.77741 0.75313 0.16493 0.0
C767 C 0.76869 0.73703 0.08771 0.0
C768 C 0.74448 0.75456 0.06154 0.0
H769 H 0.72153 0.72672 0.80272 0.0
H770 H 0.73552 0.72668 0.86763 0.0
H771 H 0.73024 0.75825 0.03245 0.0
H772 H 0.77048 0.77714 0.20213 0.0
H773 H 0.75657 0.77479 0.1375 0.0
H774 H 0.76293 0.743 0.97148 0.0
C775 C 0.73062 0.73815 0.8702 0.0
C776 C 0.73737 0.75497 0.01859 0.0
C777 C 0.72267 0.7382 0.83288 0.0
C778 C 0.76993 0.76564 0.17142 0.0
C779 C 0.76201 0.76429 0.13425 0.0
C780 C 0.75579 0.74609 0.9856 0.0
C781 C 0.73181 0.75213 0.91329 0.0
C782 C 0.73939 0.75106 0.95864 0.0
C783 C 0.76147 0.75032 0.09056 0.0
C784 C 0.75379 0.7502 0.04554 0.0
H785 H 0.71234 0.77788 0.88316 0.0
H786 H 0.72621 0.77803 0.94675 0.0
H787 H 0.75045 0.74351 0.89681 0.0
H788 H 0.78228 0.72861 0.11874 0.0
H789 H 0.76839 0.7258 0.05585 0.0
C790 C 0.76948 0.99421 0.58215 0.0
C791 C 0.77595 0.00888 0.58416 0.0
C792 C 0.76167 0.99415 0.62049 0.0
C793 C 0.75501 0.0134 0.76634 0.0
H794 H 0.73012 0.99457 0.7286 0.0
C795 C 0.72249 0.01902 0.92327 0.0
C796 C 0.71607 1.00424 0.92158 0.0
C797 C 0.73033 0.01906 0.88524 0.0
C798 C 0.73709 0.99965 0.74004 0.0
H799 H 0.77907 0.03561 0.6232 0.0
H800 H 0.76534 0.03586 0.68816 0.0
H801 H 0.74205 0.99645 0.6507 0.0
H802 H 0.7131 0.97732 0.88348 0.0
H803 H 0.72689 0.97706 0.81892 0.0
H804 H 0.75003 0.01663 0.85567 0.0
C805 C 0.76637 0.02413 0.65887 0.0
C806 C 0.7439 1.00076 0.69531 0.0
C807 C 0.77416 0.0241 0.6212 0.0
C808 C 0.71797 0.98891 0.88523 0.0
C809 C 0.72579 0.98886 0.84781 0.0
C810 C 0.74819 0.01231 0.81106 0.0
C811 C 0.76027 0.00881 0.66089 0.0
C812 C 0.75293 0.0077 0.70791 0.0
C813 C 0.73182 1.00427 0.84542 0.0
C814 C 0.73916 1.00536 0.79845 0.0
H815 H 0.77082 0.98223 0.55443 0.0
H816 H 0.75709 0.98213 0.62103 0.0
H817 H 0.76197 0.01847 0.77782 0.0
H818 H 0.72106 0.03108 0.95045 0.0
H819 H 0.73487 0.03113 0.88438 0.0
C820 C 0.96655 0.77563 0.64186 0.0
C821 C 0.96553 0.76468 0.59071 0.0
C822 C 0.97444 0.77371 0.67818 0.0
C823 C -0.00167 0.75386 0.69054 0.0
H824 H 0.99169 0.7497 0.85755 0.0
C825 C 0.02589 0.73143 0.86049 0.0
C826 C 0.02658 0.74241 0.91169 0.0
C827 C 0.01796 0.73251 0.8241 0.0
C828 C 0.99367 0.75096 0.81122 0.0
H829 H 0.97219 0.74411 0.53489 0.0
H830 H 0.98613 0.74068 0.59876 0.0
H831 H 0.97947 0.7565 0.78439 0.0
H832 H 0.0194 0.76231 0.96738 0.0
H833 H 0.00543 0.7644 0.90333 0.0
H834 H 0.01253 0.74847 0.71733 0.0
C835 C 0.98082 0.75081 0.61055 0.0
C836 C 0.98669 0.75492 0.76926 0.0
C837 C 0.97289 0.75284 0.57378 0.0
C838 C 0.01892 0.7535 0.92855 0.0
C839 C 0.01098 0.75475 0.89163 0.0
C840 C 0.00532 0.74995 0.73251 0.0
C841 C 0.98145 0.76068 0.66443 0.0
C842 C 0.98895 0.75651 0.7085 0.0
C843 C 0.01061 0.74484 0.83771 0.0
C844 C 0.00307 0.74845 0.79334 0.0
H845 H 0.96097 0.78495 0.6556 0.0
H846 H 0.97485 0.78189 0.71846 0.0
H847 H 0.0003 0.75516 0.64419 0.0
H848 H 0.03175 0.72278 0.84673 0.0
H849 H 0.01778 0.72431 0.78381 0.0
C850 C 0.21666 0.77154 0.38189 0.0
C851 C 0.21487 0.75654 0.3439 0.0
C852 C 0.22446 0.7714 0.41944 0.0
C853 C 0.24704 0.74829 0.45317 0.0
H854 H 0.24112 0.76324 0.61473 0.0
C855 C 0.2735 0.73665 0.64024 0.0
C856 C 0.27533 0.75191 0.67706 0.0
C857 C 0.2656 0.73644 0.60353 0.0
C858 C 0.2429 0.75917 0.56978 0.0
H859 H 0.22001 0.73012 0.31242 0.0
H860 H 0.23378 0.72972 0.37885 0.0
H861 H 0.22901 0.76507 0.53791 0.0
H862 H 0.27014 0.77842 0.70757 0.0
H863 H 0.2562 0.77819 0.64269 0.0
H864 H 0.26093 0.7424 0.48504 0.0
C865 C 0.22917 0.74168 0.37917 0.0
C866 C 0.23599 0.76025 0.52567 0.0
C867 C 0.22135 0.74191 0.34096 0.0
C868 C 0.26878 0.76642 0.67996 0.0
C869 C 0.26085 0.76629 0.64263 0.0
C870 C 0.25396 0.74719 0.49729 0.0
C871 C 0.23058 0.75614 0.42035 0.0
C872 C 0.23799 0.7549 0.46682 0.0
C873 C 0.25941 0.75161 0.60235 0.0
C874 C 0.25196 0.7526 0.5561 0.0
H875 H 0.21175 0.78304 0.38451 0.0
H876 H 0.2255 0.78298 0.44936 0.0
H877 H 0.24883 0.74425 0.4082 0.0
H878 H 0.27847 0.72526 0.63762 0.0
H879 H 0.26455 0.72471 0.57427 0.0
C880 C 0.97352 0.50485 0.67799 0.0
C881 C 0.96579 0.49447 0.65793 0.0
C882 C 0.98162 0.50636 0.64256 0.0
C883 C 0.99384 0.48679 0.5108 0.0
H884 H 0.00177 0.53758 0.48435 0.0
C885 C 0.02036 0.50508 0.32591 0.0
C886 C 0.0279 0.51608 0.3456 0.0
C887 C 0.01221 0.50339 0.36086 0.0
C888 C -0.00033 0.52331 0.49143 0.0
H889 H 0.96061 0.47643 0.58826 0.0
H890 H 0.97472 0.47876 0.52726 0.0
H891 H 0.98977 0.53085 0.55907 0.0
H892 H 0.03262 0.53508 0.414 0.0
H893 H 0.0185 0.53226 0.47431 0.0
H894 H 0.00376 0.47922 0.44336 0.0
C895 C 0.97461 0.4858 0.56975 0.0
C896 C 0.99286 0.51945 0.5346 0.0
C897 C 0.96653 0.48448 0.60463 0.0
C898 C 0.02689 0.52646 0.39794 0.0
C899 C 0.01878 0.52489 0.43243 0.0
C900 C 0.00067 0.49065 0.46773 0.0
C901 C 0.9821 0.49732 0.58716 0.0
C902 C 0.98987 0.50115 0.54477 0.0
C903 C 0.01149 0.51281 0.4155 0.0
C904 C 0.00367 0.50895 0.4576 0.0
H905 H 0.97304 0.51281 0.71867 0.0
H906 H 0.98735 0.51517 0.65732 0.0
H907 H 0.9917 0.47254 0.51782 0.0
H908 H 0.02102 0.49685 0.28591 0.0
H909 H 0.00664 0.49418 0.34629 0.0
C910 C 0.27622 0.48243 0.65048 0.0
C911 C 0.27693 0.49146 0.59535 0.0
C912 C 0.26823 0.48466 0.68576 0.0
C913 C 0.24373 0.502 0.68996 0.0
H914 H 0.24998 0.51297 0.8543 0.0
C915 C 0.21561 0.52921 0.84874 0.0
C916 C 0.21499 0.52033 0.90415 0.0
C917 C 0.22356 0.52696 0.81313 0.0
C918 C 0.24812 0.50979 0.80875 0.0
H919 H 0.26967 0.50889 0.53181 0.0
H920 H 0.25558 0.51291 0.59387 0.0
H921 H 0.26247 0.5047 0.7847 0.0
H922 H 0.22236 0.5031 0.96774 0.0
H923 H 0.23637 0.49901 0.90512 0.0
H924 H 0.22937 0.50707 0.71402 0.0
C925 C 0.26119 0.50398 0.60959 0.0
C926 C 0.25526 0.50499 0.76885 0.0
C927 C 0.26921 0.50161 0.57387 0.0
C928 C 0.22275 0.51026 0.92546 0.0
C929 C 0.23072 0.50786 0.88942 0.0
C930 C 0.23658 0.50679 0.72987 0.0
C931 C 0.26081 0.49614 0.66696 0.0
C932 C 0.25314 0.50098 0.70905 0.0
C933 C 0.23103 0.51559 0.83188 0.0
C934 C 0.2387 0.51078 0.78969 0.0
H935 H 0.28209 0.47445 0.6678 0.0
H936 H 0.26804 0.47801 0.72896 0.0
H937 H 0.24186 0.49883 0.6444 0.0
H938 H 0.20972 0.53714 0.83153 0.0
H939 H 0.22369 0.53353 0.7698 0.0
C940 C 0.77602 0.27465 0.60542 0.0
C941 C 0.77713 0.26517 0.65953 0.0
C942 C 0.76809 0.27164 0.57018 0.0
C943 C 0.74413 0.252 0.56567 0.0
H944 H 0.75024 0.24384 0.39944 0.0
C945 C 0.71565 0.22835 0.40355 0.0
C946 C 0.71506 0.23842 0.35028 0.0
C947 C 0.7237 0.2294 0.43888 0.0
C948 C 0.74841 0.24619 0.44556 0.0
H949 H 0.77058 0.24609 0.72138 0.0
H950 H 0.75658 0.24078 0.65943 0.0
H951 H 0.76274 0.25164 0.46955 0.0
H952 H 0.72256 0.25653 0.28989 0.0
H953 H 0.73672 0.25859 0.35203 0.0
H954 H 0.72978 0.24679 0.54166 0.0
C955 C 0.76186 0.25058 0.64444 0.0
C956 C 0.75556 0.25071 0.48574 0.0
C957 C 0.76983 0.25369 0.68008 0.0
C958 C 0.72293 0.24844 0.33043 0.0
C959 C 0.731 0.24968 0.36623 0.0
C960 C 0.73697 0.24752 0.52546 0.0
C961 C 0.76112 0.25898 0.58807 0.0
C962 C 0.75349 0.25382 0.54612 0.0
C963 C 0.73129 0.24078 0.42204 0.0
C964 C 0.73902 0.24463 0.46488 0.0
H965 H 0.78152 0.28372 0.58885 0.0
H966 H 0.76759 0.27872 0.52781 0.0
H967 H 0.74231 0.25446 0.61175 0.0
H968 H 0.70964 0.22048 0.41958 0.0
H969 H 0.7238 0.22198 0.48075 0.0
C970 C 0.71794 0.48887 0.38081 0.0
C971 C 0.71615 0.50396 0.41839 0.0
C972 C 0.72581 0.48885 0.34381 0.0
C973 C 0.74852 0.51163 0.31088 0.0
H974 H 0.74261 0.49713 0.14886 0.0
C975 C 0.77502 0.52371 0.12426 0.0
C976 C 0.77677 0.50867 0.08634 0.0
C977 C 0.76716 0.52376 0.16126 0.0
C978 C 0.74439 0.50106 0.19395 0.0
H979 H 0.72135 0.53036 0.44984 0.0
H980 H 0.73524 0.53046 0.38444 0.0
H981 H 0.73047 0.49525 0.22545 0.0
H982 H 0.77147 0.48241 0.05436 0.0
H983 H 0.75759 0.48234 0.11984 0.0
H984 H 0.76245 0.51742 0.27942 0.0
C985 C 0.73058 0.51856 0.384 0.0
C986 C 0.73745 0.49995 0.23791 0.0
C987 C 0.72269 0.5185 0.42162 0.0
C988 C 0.77018 0.49423 0.08283 0.0
C989 C 0.76229 0.49419 0.1205 0.0
C990 C 0.75546 0.51273 0.26692 0.0
C991 C 0.732 0.50404 0.3431 0.0
C992 C 0.73945 0.50517 0.2969 0.0
C993 C 0.76092 0.50864 0.16171 0.0
C994 C 0.75346 0.50751 0.20792 0.0
H995 H 0.71299 0.47745 0.37796 0.0
H996 H 0.72685 0.47723 0.31406 0.0
H997 H 0.7503 0.51556 0.35597 0.0
H998 H 0.78002 0.53506 0.12736 0.0
H999 H 0.76616 0.53533 0.19123 0.0
C1000 C 0.47263 0.00794 0.68098 0.0
C1001 C 0.46481 0.99787 0.66069 0.0
C1002 C 0.48071 0.00941 0.64531 0.0
C1003 C 0.48687 0.00776 0.48647 0.0
H1004 H 0.51273 0.00847 0.54221 0.0
C1005 C 0.51957 0.00789 0.33066 0.0
C1006 C 0.52753 0.0176 0.35064 0.0
C1007 C 0.51153 0.00668 0.36676 0.0
C1008 C 0.50553 0.00857 0.52606 0.0
H1009 H 0.45949 0.98012 0.59066 0.0
H1010 H 0.47363 0.98215 0.52968 0.0
H1011 H 0.49999 1.00236 0.61247 0.0
H1012 H 0.53315 0.03499 0.42069 0.0
H1013 H 0.51907 0.03347 0.48242 0.0
H1014 H 0.4924 0.01398 0.40009 0.0
C1015 C 0.47348 0.98941 0.57179 0.0
C1016 C 0.49825 1.00501 0.56635 0.0
C1017 C 0.46544 0.98808 0.60698 0.0
C1018 C 0.52709 0.0273 0.40459 0.0
C1019 C 0.51908 0.02626 0.44021 0.0
C1020 C 0.49415 0.01134 0.4462 0.0
C1021 C 0.48104 1.00074 0.58924 0.0
C1022 C 0.48885 1.00447 0.54694 0.0
C1023 C 0.51137 0.01528 0.42299 0.0
C1024 C 0.50356 0.01181 0.46554 0.0
H1025 H 0.47223 0.01577 0.72196 0.0
H1026 H 0.48644 0.01823 0.65995 0.0
H1027 H 0.47967 0.00781 0.47033 0.0
H1028 H 0.51982 1.00012 0.28951 0.0
H1029 H 0.50569 0.99811 0.35227 0.0
C1030 C 0.46665 0.27887 0.64755 0.0
C1031 C 0.46591 0.26898 0.59403 0.0
C1032 C 0.47461 0.27705 0.68333 0.0
C1033 C 0.49907 0.2596 0.69036 0.0
H1034 H 0.49288 0.25137 0.85653 0.0
C1035 C 0.5272 0.23461 0.85276 0.0
C1036 C 0.52789 0.24427 0.90668 0.0
C1037 C 0.51923 0.23643 0.81704 0.0
C1038 C 0.49473 0.2538 0.81045 0.0
H1039 H 0.47312 0.25044 0.53372 0.0
H1040 H 0.48716 0.24714 0.59667 0.0
H1041 H 0.48036 0.25859 0.7858 0.0
H1042 H 0.52063 0.26252 0.96764 0.0
H1043 H 0.50658 0.26589 0.90472 0.0
H1044 H 0.51343 0.25485 0.71498 0.0
C1045 C 0.48158 0.25639 0.61076 0.0
C1046 C 0.48757 0.25799 0.76989 0.0
C1047 C 0.47359 0.25833 0.57455 0.0
C1048 C 0.52018 0.25476 0.92654 0.0
C1049 C 0.51219 0.25675 0.89034 0.0
C1050 C 0.50622 0.25543 0.73091 0.0
C1051 C 0.48198 0.26516 0.66664 0.0
C1052 C 0.48967 0.26097 0.70942 0.0
C1053 C 0.51182 0.24817 0.83412 0.0
C1054 C 0.50413 0.25242 0.79138 0.0
H1055 H 0.46085 0.28732 0.66327 0.0
H1056 H 0.47483 0.28439 0.72527 0.0
H1057 H 0.50091 0.26202 0.64426 0.0
H1058 H 0.53306 0.22635 0.83673 0.0
H1059 H 0.51905 0.22922 0.77484 0.0
C1060 C 0.46584 0.77858 0.14967 0.0
C1061 C 0.46499 0.76899 0.09569 0.0
C1062 C 0.47385 0.77651 0.18479 0.0
C1063 C 0.49826 0.75875 0.18961 0.0
H1064 H 0.49224 0.74988 0.3557 0.0
C1065 C 0.52659 0.73343 0.35022 0.0
C1066 C 0.52731 0.743 0.4043 0.0
C1067 C 0.51858 0.73524 0.31486 0.0
C1068 C 0.49404 0.75247 0.30964 0.0
H1069 H 0.47202 0.75066 0.03395 0.0
H1070 H 0.48617 0.7469 0.09576 0.0
H1071 H 0.47966 0.75742 0.28582 0.0
H1072 H 0.52006 0.76105 0.46593 0.0
H1073 H 0.50595 0.76439 0.40368 0.0
H1074 H 0.51264 0.75385 0.21343 0.0
C1075 C 0.48064 0.75615 0.11067 0.0
C1076 C 0.48685 0.75685 0.26957 0.0
C1077 C 0.47259 0.75836 0.0751 0.0
C1078 C 0.5196 0.75336 0.4247 0.0
C1079 C 0.51156 0.75533 0.38888 0.0
C1080 C 0.50545 0.75438 0.22969 0.0
C1081 C 0.48116 0.76462 0.167 0.0
C1082 C 0.48888 0.76011 0.20916 0.0
C1083 C 0.51116 0.74686 0.33249 0.0
C1084 C 0.50342 0.75117 0.29014 0.0
H1085 H 0.46006 0.78694 0.16627 0.0
H1086 H 0.47415 0.78362 0.22712 0.0
H1087 H 0.50005 0.76135 0.14354 0.0
H1088 H 0.53246 0.72527 0.33376 0.0
H1089 H 0.51838 0.72813 0.2725 0.0
C1090 C 0.51979 0.51492 0.82969 0.0
C1091 C 0.52693 0.50165 0.83646 0.0
C1092 C 0.51182 0.51435 0.86662 0.0
C1093 C 0.50513 0.49696 0.01528 0.0
H1094 H 0.47985 0.51093 0.96771 0.0
C1095 C 0.47192 0.49125 0.16746 0.0
C1096 C 0.46527 0.50551 0.16121 0.0
C1097 C 0.47988 0.49082 0.13037 0.0
C1098 C 0.4869 0.50717 0.98178 0.0
H1099 H 0.5311 0.47661 0.88274 0.0
H1100 H 0.51712 0.47522 0.94531 0.0
H1101 H 0.49229 0.5092 0.89308 0.0
H1102 H 0.46202 0.53125 0.11589 0.0
H1103 H 0.47594 0.53076 0.05271 0.0
H1104 H 0.49972 0.49492 0.10403 0.0
C1105 C 0.51774 0.48641 0.9134 0.0
C1106 C 0.49402 0.50617 0.93897 0.0
C1107 C 0.52569 0.48709 0.87716 0.0
C1108 C 0.46702 0.51999 0.12098 0.0
C1109 C 0.47494 0.51963 0.08446 0.0
C1110 C 0.498 0.49791 0.05808 0.0
C1111 C 0.5109 0.50044 0.91033 0.0
C1112 C 0.50322 0.5011 0.95523 0.0
C1113 C 0.48125 0.50468 0.08697 0.0
C1114 C 0.48883 0.50318 0.04185 0.0
H1115 H 0.52066 0.52636 0.79897 0.0
H1116 H 0.50667 0.52538 0.86322 0.0
H1117 H 0.5122 0.49333 0.02954 0.0
H1118 H 0.47064 0.47987 0.19788 0.0
H1119 H 0.48465 0.47914 0.13334 0.0
C1120 C 0.40263 0.24751 0.50106 0.0
C1121 C 0.41032 0.24949 0.46205 0.0
C1122 C 0.39347 0.24575 0.47887 0.0
C1123 C 0.37953 0.25662 0.345 0.0
H1124 H 0.36062 0.22546 0.41973 0.0
C1125 C 0.34241 0.2473 0.24598 0.0
C1126 C 0.33484 0.24906 0.28594 0.0
C1127 C 0.35165 0.24593 0.26693 0.0
C1128 C 0.36583 0.2343 0.39868 0.0
H1129 H 0.41446 0.25029 0.36916 0.0
H1130 H 0.39853 0.24684 0.33061 0.0
H1131 H 0.37682 0.22514 0.45705 0.0
H1132 H 0.33102 0.25039 0.37934 0.0
H1133 H 0.34719 0.24802 0.41577 0.0
H1134 H 0.36856 0.26577 0.2867 0.0
C1135 C 0.39954 0.24713 0.37833 0.0
C1136 C 0.37509 0.23414 0.42004 0.0
C1137 C 0.40869 0.24902 0.40046 0.0
C1138 C 0.3367 0.24909 0.34734 0.0
C1139 C 0.34594 0.24761 0.36827 0.0
C1140 C 0.3703 0.25669 0.32348 0.0
C1141 C 0.39181 0.24582 0.41724 0.0
C1142 C 0.38204 0.24537 0.39357 0.0
C1143 C 0.35351 0.24619 0.32824 0.0
C1144 C 0.36335 0.2456 0.35025 0.0
H1145 H 0.40365 0.24786 0.54877 0.0
H1146 H 0.38766 0.24496 0.51007 0.0
H1147 H 0.38466 0.26573 0.32435 0.0
H1148 H 0.34123 0.24718 0.19841 0.0
H1149 H 0.35735 0.24465 0.23511 0.0
C1150 C 0.83477 0.00919 0.3995 0.0
C1151 C 0.83298 0.0096 0.46094 0.0
C1152 C 0.84402 0.00938 0.37821 0.0
C1153 C 0.86853 0.02058 0.42141 0.0
H1154 H 0.87488 0.98839 0.28938 0.0
C1155 C 0.90687 1.00583 0.3499 0.0
C1156 C 0.90878 0.00608 0.28856 0.0
C1157 C 0.8976 0.00676 0.37056 0.0
C1158 C 0.87319 0.99759 0.32586 0.0
H1159 H 0.83949 0.01059 0.54822 0.0
H1160 H 0.85564 0.01061 0.51099 0.0
H1161 H 0.85873 0.98911 0.32654 0.0
H1162 H 0.90243 0.00752 0.20082 0.0
H1163 H 0.88623 0.00912 0.23711 0.0
H1164 H 0.88304 0.02885 0.42106 0.0
C1165 C 0.84989 0.01045 0.47928 0.0
C1166 C 0.86394 0.99803 0.34711 0.0
C1167 C 0.84063 0.01035 0.5006 0.0
C1168 C 0.90121 0.00728 0.24835 0.0
C1169 C 0.89193 0.0081 0.26906 0.0
C1170 C 0.87779 0.02007 0.40031 0.0
C1171 C 0.85168 0.00988 0.41784 0.0
C1172 C 0.8615 0.00953 0.39512 0.0
C1173 C 0.89004 0.00785 0.33036 0.0
C1174 C 0.8802 0.00856 0.35236 0.0
H1175 H 0.82904 0.00873 0.36767 0.0
H1176 H 0.84516 0.00924 0.3306 0.0
H1177 H 0.86685 0.0298 0.45787 0.0
H1178 H 0.91254 1.00492 0.3821 0.0
H1179 H 0.89634 0.00634 0.41805 0.0
C1180 C 0.40053 0.01308 0.74916 0.0
C1181 C 0.40824 0.01231 0.78833 0.0
C1182 C 0.39131 0.01334 0.77113 0.0
C1183 C 0.37764 1.00047 0.90428 0.0
H1184 H 0.35798 0.02999 0.83065 0.0
C1185 C 0.3403 0.00682 0.00378 0.0
C1186 C 0.33273 1.00513 0.96375 0.0
C1187 C 0.34954 0.0084 0.98287 0.0
C1188 C 0.36339 0.02158 0.85133 0.0
H1189 H 0.41234 0.01189 0.88134 0.0
H1190 H 0.39629 0.01268 0.91952 0.0
H1191 H 0.37413 0.03202 0.79335 0.0
H1192 H 0.32894 1.00385 0.87028 0.0
H1193 H 0.34508 0.00655 0.83397 0.0
H1194 H 0.3669 0.99005 0.96228 0.0
C1195 C 0.39735 0.01267 0.87182 0.0
C1196 C 0.37263 0.02272 0.82998 0.0
C1197 C 0.40656 0.01232 0.84989 0.0
C1198 C 0.3346 1.00512 0.90236 0.0
C1199 C 0.34384 0.00679 0.88149 0.0
C1200 C 0.36842 0.99939 0.92576 0.0
C1201 C 0.38962 0.01292 0.83271 0.0
C1202 C 0.37985 0.01213 0.85611 0.0
C1203 C 0.35139 0.00841 0.92153 0.0
C1204 C 0.3612 0.00988 0.89937 0.0
H1205 H 0.40158 0.01303 0.70146 0.0
H1206 H 0.3855 0.01333 0.73982 0.0
H1207 H 0.383 0.99186 0.92469 0.0
H1208 H 0.3391 0.0069 0.05135 0.0
H1209 H 0.35523 0.0098 0.01472 0.0
C1210 C 0.83496 0.25138 0.85112 0.0
C1211 C 0.8333 0.2522 0.78957 0.0
C1212 C 0.84412 0.24967 0.87307 0.0
C1213 C 0.86857 0.23732 0.8301 0.0
H1214 H 0.87515 0.26774 0.96598 0.0
C1215 C 0.90699 0.25199 0.90179 0.0
C1216 C 0.90898 0.25149 0.96302 0.0
C1217 C 0.8977 0.25059 0.88151 0.0
C1218 C 0.87339 0.25899 0.92848 0.0
H1219 H 0.83997 0.25151 0.70273 0.0
H1220 H 0.85599 0.24892 0.74115 0.0
H1221 H 0.85903 0.26794 0.92866 0.0
H1222 H 0.90277 0.24887 0.05091 0.0
H1223 H 0.88656 0.24648 0.01528 0.0
H1224 H 0.88304 0.22873 0.82936 0.0
C1225 C 0.85018 0.24929 0.77242 0.0
C1226 C 0.86415 0.25907 0.90714 0.0
C1227 C 0.841 0.25088 0.75042 0.0
C1228 C 0.90149 0.24935 0.00344 0.0
C1229 C 0.8922 0.24806 0.98314 0.0
C1230 C 0.87784 0.23732 0.85129 0.0
C1231 C 0.85185 0.24887 0.83404 0.0
C1232 C 0.86163 0.24828 0.85758 0.0
C1233 C 0.89022 0.24877 0.922 0.0
C1234 C 0.88034 0.24822 0.90057 0.0
H1235 H 0.82918 0.25215 0.88254 0.0
H1236 H 0.84515 0.24903 0.92076 0.0
H1237 H 0.86683 0.22865 0.79238 0.0
H1238 H 0.91258 0.25357 0.86939 0.0
H1239 H 0.89637 0.25136 0.83414 0.0
C1240 C 0.59134 0.76129 0.49346 0.0
C1241 C 0.5837 0.75948 0.53289 0.0
C1242 C 0.60057 0.76229 0.515 0.0
C1243 C 0.61469 0.77235 0.64841 0.0
H1244 H 0.63325 0.74065 0.57299 0.0
C1245 C 0.6514 0.75831 0.75082 0.0
C1246 C 0.65911 0.75705 0.71175 0.0
C1247 C 0.6422 0.75962 0.72872 0.0
C1248 C 0.6282 0.74979 0.59403 0.0
H1249 H 0.57974 0.75783 0.62602 0.0
H1250 H 0.59586 0.75957 0.66348 0.0
H1251 H 0.6172 0.7416 0.53447 0.0
H1252 H 0.66323 0.75662 0.6188 0.0
H1253 H 0.64725 0.75925 0.58042 0.0
H1254 H 0.62571 0.78058 0.70794 0.0
C1255 C 0.5947 0.76029 0.61593 0.0
C1256 C 0.619 0.75032 0.57197 0.0
C1257 C 0.58547 0.75918 0.5944 0.0
C1258 C 0.65745 0.75741 0.65017 0.0
C1259 C 0.64827 0.75882 0.62812 0.0
C1260 C 0.62392 0.77191 0.67032 0.0
C1261 C 0.60234 0.7616 0.57641 0.0
C1262 C 0.61215 0.76155 0.59902 0.0
C1263 C 0.64054 0.75979 0.6671 0.0
C1264 C 0.63077 0.76058 0.64346 0.0
H1265 H 0.59023 0.76161 0.44582 0.0
H1266 H 0.60633 0.76353 0.48358 0.0
H1267 H 0.60957 0.78128 0.66974 0.0
H1268 H 0.65243 0.758 0.79852 0.0
H1269 H 0.63639 0.7601 0.75995 0.0
C1270 C 0.08991 1.00395 0.75209 0.0
C1271 C 0.08245 1.00494 0.71101 0.0
C1272 C 0.09926 1.00347 0.73249 0.0
C1273 C 0.11393 0.99239 0.60257 0.0
H1274 H 0.13238 0.02427 0.67842 0.0
C1275 C 0.15092 1.00493 0.50363 0.0
C1276 C 0.15856 0.00616 0.54327 0.0
C1277 C 0.14167 1.00409 0.52497 0.0
C1278 C 0.12735 0.01508 0.6573 0.0
H1279 H 0.07897 0.00606 0.61706 0.0
H1280 H 0.09528 1.00524 0.58303 0.0
H1281 H 0.11615 0.02393 0.71449 0.0
H1282 H 0.16248 0.00714 0.63651 0.0
H1283 H 0.14638 1.00536 0.67366 0.0
H1284 H 0.12511 0.98348 0.54548 0.0
C1285 C 0.09388 1.00471 0.63035 0.0
C1286 C 0.11805 0.01492 0.67793 0.0
C1287 C 0.08454 1.0053 0.64992 0.0
C1288 C 0.15676 0.00632 0.60472 0.0
C1289 C 0.14752 1.0054 0.62604 0.0
C1290 C 0.12323 0.99248 0.5821 0.0
C1291 C 0.10133 1.00387 0.67143 0.0
C1292 C 0.11124 1.00364 0.65056 0.0
C1293 C 0.13987 1.00438 0.58642 0.0
C1294 C 0.13003 1.00391 0.60904 0.0
H1295 H 0.08855 1.00364 0.79947 0.0
H1296 H 0.10487 1.00265 0.7651 0.0
H1297 H 0.10885 0.98337 0.58116 0.0
H1298 H 0.15205 1.00485 0.45601 0.0
H1299 H 0.13593 1.00357 0.49324 0.0
C1300 C 0.65696 1.00109 0.1022 0.0
C1301 C 0.6589 1.00102 0.04091 0.0
C1302 C 0.64769 0.99963 0.12266 0.0
C1303 C 0.62326 0.00799 0.07746 0.0
H1304 H 0.61712 0.97617 0.21114 0.0
C1305 C 0.585 0.99839 0.15678 0.0
C1306 C 0.58348 0.99875 0.21851 0.0
C1307 C 0.59414 0.99716 0.13394 0.0
C1308 C 0.61874 0.98524 0.17411 0.0
H1309 H 0.65262 0.9993 0.95304 0.0
H1310 H 0.63643 0.99679 0.98897 0.0
H1311 H 0.63327 0.97706 0.17334 0.0
H1312 H 0.59035 0.99776 0.3047 0.0
H1313 H 0.6063 0.99594 0.26478 0.0
H1314 H 0.60881 0.01647 0.07877 0.0
C1315 C 0.6421 0.99806 0.02105 0.0
C1316 C 0.62797 0.98573 0.15246 0.0
C1317 C 0.65137 0.99942 1.00054 0.0
C1318 C 0.59128 0.99745 0.25691 0.0
C1319 C 0.60042 0.99631 0.23403 0.0
C1320 C 0.61404 0.00757 0.09924 0.0
C1321 C 0.64017 0.99817 0.0823 0.0
C1322 C 0.63033 0.99717 0.1041 0.0
C1323 C 0.60195 0.99637 0.17228 0.0
C1324 C 0.61169 0.99626 0.14798 0.0
H1325 H 0.66259 1.0023 0.13453 0.0
H1326 H 0.6464 0.99997 0.17012 0.0
H1327 H 0.6249 0.01714 0.04066 0.0
H1328 H 0.57915 0.99921 0.12592 0.0
H1329 H 0.59507 0.9969 0.08615 0.0
C1330 C 0.09056 0.76383 0.9952 0.0
C1331 C 0.08304 0.76152 0.03527 0.0
C1332 C 0.09981 0.76545 0.01602 0.0
C1333 C 0.11394 0.77645 0.14871 0.0
H1334 H 0.1329 0.74571 0.07319 0.0
C1335 C 0.15054 0.76321 0.25287 0.0
C1336 C 0.15833 0.76228 0.21439 0.0
C1337 C 0.14139 0.76443 0.23006 0.0
C1338 C 0.12773 0.7546 0.09422 0.0
H1339 H 0.0793 0.75959 0.12872 0.0
H1340 H 0.09544 0.76239 0.16485 0.0
H1341 H 0.11685 0.74594 0.03447 0.0
H1342 H 0.16266 0.76238 0.12177 0.0
H1343 H 0.14674 0.76482 0.08217 0.0
H1344 H 0.12482 0.78509 0.20857 0.0
C1345 C 0.09417 0.76304 0.1174 0.0
C1346 C 0.11854 0.75471 0.07204 0.0
C1347 C 0.08493 0.76131 0.09662 0.0
C1348 C 0.1568 0.76291 0.15269 0.0
C1349 C 0.14767 0.76422 0.12993 0.0
C1350 C 0.12315 0.77641 0.17075 0.0
C1351 C 0.1017 0.7649 0.07729 0.0
C1352 C 0.11154 0.76554 0.09929 0.0
C1353 C 0.13986 0.76483 0.16832 0.0
C1354 C 0.13014 0.76539 0.14396 0.0
H1355 H 0.08934 0.76409 0.94766 0.0
H1356 H 0.10548 0.76707 0.98416 0.0
H1357 H 0.1087 0.78507 0.17014 0.0
H1358 H 0.15147 0.76269 0.30064 0.0
H1359 H 0.13551 0.76463 0.26081 0.0
C1360 C 0.34021 0.7508 0.75548 0.0
C1361 C 0.33261 0.75159 0.79553 0.0
C1362 C 0.34949 0.75052 0.77639 0.0
C1363 C 0.36369 0.76244 0.90854 0.0
H1364 H 0.38265 0.73142 0.8341 0.0
C1365 C 0.40071 0.75275 0.00887 0.0
C1366 C 0.40834 0.75435 0.96927 0.0
C1367 C 0.39148 0.75161 0.98747 0.0
C1368 C 0.37743 0.74024 0.855 0.0
H1369 H 0.32879 0.75229 0.889 0.0
H1370 H 0.34494 0.75148 0.9253 0.0
H1371 H 0.36646 0.73095 0.79685 0.0
H1372 H 0.41227 0.75559 0.87602 0.0
H1373 H 0.39615 0.7536 0.83883 0.0
H1374 H 0.37466 0.77165 0.96683 0.0
C1375 C 0.34374 0.75147 0.87773 0.0
C1376 C 0.36818 0.74001 0.83364 0.0
C1377 C 0.33448 0.75184 0.85688 0.0
C1378 C 0.40656 0.75441 0.90777 0.0
C1379 C 0.39733 0.75316 0.88639 0.0
C1380 C 0.37293 0.76259 0.93004 0.0
C1381 C 0.35136 0.75094 0.83776 0.0
C1382 C 0.3612 0.75111 0.8602 0.0
C1383 C 0.3897 0.75193 0.92605 0.0
C1384 C 0.37989 0.7515 0.90351 0.0
H1385 H 0.33901 0.75065 0.70793 0.0
H1386 H 0.35521 0.75033 0.74444 0.0
H1387 H 0.35854 0.77142 0.92927 0.0
H1388 H 0.40184 0.75263 0.0565 0.0
H1389 H 0.38574 0.75045 0.01901 0.0
C1390 C 0.90759 0.50955 0.84728 0.0
C1391 C 0.90921 0.50913 0.78567 0.0
C1392 C 0.89842 0.51084 0.8695 0.0
C1393 C 0.874 0.52335 0.82784 0.0
H1394 H 0.86747 0.49238 0.96283 0.0
C1395 C 0.83563 0.51002 0.90226 0.0
C1396 C 0.83379 0.51045 0.96366 0.0
C1397 C 0.84488 0.51089 0.88119 0.0
C1398 C 0.86922 0.50127 0.92557 0.0
H1399 H 0.90249 0.50995 0.699 0.0
H1400 H 0.88647 0.51187 0.73788 0.0
H1401 H 0.88355 0.49204 0.92444 0.0
H1402 H 0.84022 0.51226 0.05107 0.0
H1403 H 0.85638 0.51375 0.01408 0.0
H1404 H 0.85959 0.53232 0.82856 0.0
C1405 C 0.8923 0.5115 0.76899 0.0
C1406 C 0.87843 0.5011 0.90361 0.0
C1407 C 0.90148 0.5103 0.74672 0.0
C1408 C 0.84139 0.51187 0.0035 0.0
C1409 C 0.85065 0.51264 0.9824 0.0
C1410 C 0.86477 0.52345 0.84968 0.0
C1411 C 0.89067 0.51163 0.83064 0.0
C1412 C 0.88092 0.51211 0.85444 0.0
C1413 C 0.85248 0.5121 0.92105 0.0
C1414 C 0.8623 0.51238 0.89868 0.0
H1415 H 0.91339 0.50883 0.87856 0.0
H1416 H 0.89742 0.51124 0.91721 0.0
H1417 H 0.87573 0.53219 0.79045 0.0
H1418 H 0.82993 0.50894 0.87032 0.0
H1419 H 0.84609 0.51025 0.83368 0.0
C1420 C 0.33474 0.50982 0.40421 0.0
C1421 C 0.33316 0.5091 0.46583 0.0
C1422 C 0.34388 0.51162 0.38184 0.0
C1423 C 0.36828 0.52466 0.4234 0.0
H1424 H 0.37488 0.49414 0.28783 0.0
C1425 C 0.40668 0.51138 0.34842 0.0
C1426 C 0.40849 0.5118 0.28698 0.0
C1427 C 0.39744 0.51245 0.36968 0.0
C1428 C 0.37311 0.50291 0.32524 0.0
H1429 H 0.33991 0.51003 0.55238 0.0
H1430 H 0.35589 0.51282 0.51325 0.0
H1431 H 0.35882 0.49348 0.32623 0.0
H1432 H 0.40202 0.51398 0.19972 0.0
H1433 H 0.3859 0.51582 0.23703 0.0
H1434 H 0.38268 0.53377 0.4229 0.0
C1435 C 0.35005 0.51229 0.48223 0.0
C1436 C 0.36391 0.50257 0.34721 0.0
C1437 C 0.34089 0.51059 0.50465 0.0
C1438 C 0.40088 0.51357 0.24732 0.0
C1439 C 0.39164 0.51453 0.2686 0.0
C1440 C 0.37751 0.52493 0.40157 0.0
C1441 C 0.35165 0.51263 0.42056 0.0
C1442 C 0.36139 0.51341 0.39659 0.0
C1443 C 0.38983 0.51386 0.32995 0.0
C1444 C 0.38001 0.51402 0.35235 0.0
H1445 H 0.32893 0.50888 0.37305 0.0
H1446 H 0.34485 0.51219 0.33411 0.0
H1447 H 0.36654 0.53337 0.461 0.0
H1448 H 0.41239 0.51005 0.38019 0.0
H1449 H 0.39624 0.51172 0.41719 0.0
C1450 C 0.84127 0.75331 0.25322 0.0
C1451 C 0.83356 0.75438 0.2924 0.0
C1452 C 0.85044 0.75138 0.27514 0.0
C1453 C 0.86456 0.75878 0.41121 0.0
H1454 H 0.88292 0.72812 0.32965 0.0
C1455 C 0.90177 0.7461 0.50572 0.0
C1456 C 0.90923 0.7488 0.46539 0.0
C1457 C 0.89247 0.74508 0.4855 0.0
C1458 C 0.87786 0.73678 0.3527 0.0
H1459 H 0.82944 0.75383 0.38536 0.0
H1460 H 0.84538 0.75013 0.42339 0.0
H1461 H 0.86674 0.72966 0.2926 0.0
H1462 H 0.91278 0.75187 0.37197 0.0
H1463 H 0.89654 0.75007 0.33689 0.0
H1464 H 0.87569 0.76587 0.47128 0.0
C1465 C 0.84438 0.75119 0.37577 0.0
C1466 C 0.86861 0.73772 0.33142 0.0
C1467 C 0.83522 0.75324 0.35391 0.0
C1468 C 0.9072 0.74986 0.40428 0.0
C1469 C 0.89791 0.74871 0.38408 0.0
C1470 C 0.87378 0.75773 0.43266 0.0
C1471 C 0.8521 0.75037 0.33671 0.0
C1472 C 0.86187 0.74884 0.36019 0.0
C1473 C 0.89044 0.7466 0.42456 0.0
C1474 C 0.88054 0.74684 0.4034 0.0
H1475 H 0.84025 0.7542 0.20558 0.0
H1476 H 0.85625 0.75106 0.24385 0.0
H1477 H 0.8596 0.76773 0.43385 0.0
H1478 H 0.90309 0.74518 0.55308 0.0
H1479 H 0.88684 0.74325 0.5176 0.0
C1480 C 0.65753 0.25796 0.16059 0.0
C1481 C 0.65919 0.2575 0.22221 0.0
C1482 C 0.64835 0.25957 0.13861 0.0
C1483 C 0.62381 0.25039 0.18013 0.0
H1484 H 0.61782 0.28235 0.04658 0.0
C1485 C 0.58568 0.26006 0.09996 0.0
C1486 C 0.58416 0.25973 0.03823 0.0
C1487 C 0.5948 0.26123 0.12282 0.0
C1488 C 0.61941 0.27324 0.08355 0.0
H1489 H 0.65251 0.25875 0.30903 0.0
H1490 H 0.63652 0.2616 0.2705 0.0
H1491 H 0.6339 0.28172 0.08587 0.0
H1492 H 0.59103 0.26075 0.95205 0.0
H1493 H 0.60699 0.26249 0.99207 0.0
H1494 H 0.60941 0.24164 0.17742 0.0
C1495 C 0.64232 0.26053 0.2393 0.0
C1496 C 0.6286 0.2729 0.10605 0.0
C1497 C 0.65149 0.25898 0.26132 0.0
C1498 C 0.59196 0.261 0.99984 0.0
C1499 C 0.6011 0.2621 0.02276 0.0
C1500 C 0.61465 0.25067 0.15755 0.0
C1501 C 0.64065 0.2607 0.17776 0.0
C1502 C 0.63088 0.26145 0.15452 0.0
C1503 C 0.60263 0.26201 0.08451 0.0
C1504 C 0.61234 0.26208 0.10899 0.0
H1505 H 0.66329 0.25688 0.12917 0.0
H1506 H 0.64726 0.25949 0.09095 0.0
H1507 H 0.6254 0.24119 0.21687 0.0
H1508 H 0.57982 0.25926 0.13083 0.0
H1509 H 0.59573 0.26147 0.17061 0.0
C1510 C 0.09162 0.49654 0.2614 0.0
C1511 C 0.08417 0.49948 0.22127 0.0
C1512 C 0.10087 0.49473 0.24076 0.0
C1513 C 0.11507 0.4847 0.1073 0.0
H1514 H 0.134 0.51503 0.18491 0.0
C1515 C 0.15122 0.50084 1.00109 0.0
C1516 C 0.15911 0.50207 0.03871 0.0
C1517 C 0.14218 0.49856 0.02485 0.0
C1518 C 0.12885 0.50622 0.16331 0.0
H1519 H 0.08054 0.5022 0.12783 0.0
H1520 H 0.09667 0.49909 0.09207 0.0
H1521 H 0.11802 0.51411 0.22443 0.0
H1522 H 0.16374 0.50121 0.13069 0.0
H1523 H 0.14803 0.49691 0.17191 0.0
H1524 H 0.12589 0.47689 0.0459 0.0
C1525 C 0.09535 0.49811 0.13942 0.0
C1526 C 0.11969 0.50571 0.18597 0.0
C1527 C 0.08612 0.50003 0.16001 0.0
C1528 C 0.1578 0.50051 0.10045 0.0
C1529 C 0.14879 0.49812 0.12414 0.0
C1530 C 0.12425 0.48512 0.08479 0.0
C1531 C 0.10283 0.49569 0.17962 0.0
C1532 C 0.11269 0.49511 0.15783 0.0
C1533 C 0.14086 0.49736 0.0867 0.0
C1534 C 0.13122 0.49605 0.11219 0.0
H1535 H 0.09036 0.49599 0.30886 0.0
H1536 H 0.10651 0.4927 0.27267 0.0
H1537 H 0.10982 0.47624 0.08515 0.0
H1538 H 0.15198 0.50203 0.95332 0.0
H1539 H 0.13621 0.49826 0.9948 0.0
C1540 C 0.6516 0.49851 0.50033 0.0
C1541 C 0.65915 0.49978 0.54065 0.0
C1542 C 0.64231 0.49765 0.52084 0.0
C1543 C 0.62791 0.48622 0.65156 0.0
H1544 H 0.60936 0.51814 0.57674 0.0
C1545 C 0.59083 0.49836 0.75054 0.0
C1546 C 0.58323 0.49993 0.71074 0.0
C1547 C 0.60008 0.49736 0.72939 0.0
C1548 C 0.61441 0.50893 0.59756 0.0
H1549 H 0.66287 0.50084 0.63423 0.0
H1550 H 0.64664 0.49933 0.66991 0.0
H1551 H 0.62554 0.51807 0.54034 0.0
H1552 H 0.57936 0.50113 0.61741 0.0
H1553 H 0.59546 0.49905 0.58063 0.0
H1554 H 0.61676 0.47703 0.70868 0.0
C1555 C 0.64793 0.49892 0.62245 0.0
C1556 C 0.62368 0.50893 0.57676 0.0
C1557 C 0.65722 0.4999 0.60196 0.0
C1558 C 0.58505 0.5001 0.64934 0.0
C1559 C 0.59429 0.499 0.62822 0.0
C1560 C 0.61861 0.48615 0.6722 0.0
C1561 C 0.64039 0.49793 0.58207 0.0
C1562 C 0.63052 0.49762 0.60365 0.0
C1563 C 0.60192 0.49782 0.668 0.0
C1564 C 0.61176 0.49755 0.64551 0.0
H1565 H 0.65283 0.49837 0.4528 0.0
H1566 H 0.63663 0.49669 0.48875 0.0
H1567 H 0.63302 0.47722 0.67265 0.0
H1568 H 0.58967 0.49826 0.79814 0.0
H1569 H 0.60581 0.49669 0.76123 0.0
C1570 C 0.15111 0.26106 0.75621 0.0
C1571 C 0.15878 0.26046 0.71666 0.0
C1572 C 0.14187 0.26122 0.73471 0.0
C1573 C 0.12763 0.27188 0.60258 0.0
H1574 H 0.10942 0.23857 0.6746 0.0
C1575 C 0.09075 0.2591 0.50126 0.0
C1576 C 0.08314 0.25744 0.54093 0.0
C1577 C 0.10001 0.25981 0.52253 0.0
C1578 C 0.11438 0.24813 0.6545 0.0
H1579 H 0.16276 0.2599 0.62345 0.0
H1580 H 0.14662 0.26021 0.58609 0.0
H1581 H 0.12551 0.23959 0.71267 0.0
H1582 H 0.07926 0.25548 0.63412 0.0
H1583 H 0.09536 0.25707 0.67111 0.0
H1584 H 0.11649 0.28055 0.54469 0.0
C1585 C 0.14777 0.26062 0.63368 0.0
C1586 C 0.1236 0.24869 0.67628 0.0
C1587 C 0.15702 0.26033 0.65515 0.0
C1588 C 0.08497 0.25663 0.60228 0.0
C1589 C 0.09421 0.25745 0.62352 0.0
C1590 C 0.11839 0.27141 0.58098 0.0
C1591 C 0.14011 0.26092 0.67325 0.0
C1592 C 0.13031 0.26056 0.65051 0.0
C1593 C 0.10184 0.25896 0.58391 0.0
C1594 C 0.11166 0.25951 0.60669 0.0
H1595 H 0.15222 0.26118 0.80385 0.0
H1596 H 0.13608 0.26165 0.76618 0.0
H1597 H 0.13265 0.28131 0.58232 0.0
H1598 H 0.08959 0.25967 0.4537 0.0
H1599 H 0.10574 0.26073 0.4908 0.0
C1600 C 0.30117 0.27435 0.50531 0.0
C1601 C 0.29971 0.25753 0.47537 0.0
C1602 C 0.30239 0.27457 0.56712 0.0
C1603 C 0.31015 0.24441 0.68998 0.0
H1604 H 0.29872 0.28159 0.79108 0.0
C1605 C 0.31171 0.24057 0.94708 0.0
C1606 C 0.31247 0.2573 0.97848 0.0
C1607 C 0.31044 0.24068 0.88533 0.0
C1608 C 0.30208 0.27126 0.76342 0.0
H1609 H 0.29805 0.22787 0.48649 0.0
H1610 H 0.30012 0.22826 0.59414 0.0
H1611 H 0.29551 0.28185 0.68455 0.0
H1612 H 0.31285 0.2872 0.97005 0.0
H1613 H 0.3109 0.28741 0.86237 0.0
H1614 H 0.3168 0.2339 0.76851 0.0
C1615 C 0.30044 0.24124 0.57001 0.0
C1616 C 0.30021 0.27139 0.70235 0.0
C1617 C 0.29918 0.24104 0.50841 0.0
C1618 C 0.31226 0.27409 0.94693 0.0
C1619 C 0.31104 0.27421 0.88527 0.0
C1620 C 0.31206 0.24433 0.75097 0.0
C1621 C 0.30222 0.25796 0.59999 0.0
C1622 C 0.3042 0.25792 0.66495 0.0
C1623 C 0.30995 0.25752 0.85374 0.0
C1624 C 0.30804 0.25774 0.78855 0.0
H1625 H 0.30165 0.28725 0.48083 0.0
H1626 H 0.3038 0.28767 0.58887 0.0
H1627 H 0.31346 0.23403 0.66222 0.0
H1628 H 0.31178 0.22743 0.97041 0.0
H1629 H 0.30954 0.22756 0.86269 0.0
C1630 C 0.94311 0.98577 0.51074 0.0
C1631 C 0.94393 1.00266 0.48016 0.0
C1632 C 0.94198 0.98556 0.57256 0.0
C1633 C 0.93327 0.01475 0.69461 0.0
H1634 H 0.94632 0.97969 0.79608 0.0
C1635 C 0.93182 0.01837 0.95177 0.0
C1636 C 0.93172 1.00152 0.98301 0.0
C1637 C 0.93303 0.01853 0.89001 0.0
C1638 C 0.94251 0.98941 0.7683 0.0
H1639 H 0.94452 0.03252 0.48998 0.0
H1640 H 0.94259 0.03215 0.59777 0.0
H1641 H 0.94942 0.97978 0.68946 0.0
H1642 H 0.93241 0.97165 0.97441 0.0
H1643 H 0.93428 0.97187 0.86675 0.0
H1644 H 0.92628 0.02428 0.77319 0.0
C1645 C 0.94271 0.01909 0.57411 0.0
C1646 C 0.94432 0.98948 0.70722 0.0
C1647 C 0.94389 0.01929 0.51248 0.0
C1648 C 0.9325 0.98485 0.95138 0.0
C1649 C 0.93367 0.98499 0.88975 0.0
C1650 C 0.93142 0.01462 0.75565 0.0
C1651 C 0.9416 1.00225 0.60474 0.0
C1652 C 0.93973 1.00218 0.66972 0.0
C1653 C 0.93413 1.00184 0.85838 0.0
C1654 C 0.93602 1.00194 0.79328 0.0
H1655 H 0.94308 0.97276 0.48677 0.0
H1656 H 0.94109 0.97237 0.5949 0.0
H1657 H 0.92951 0.02452 0.6667 0.0
H1658 H 0.93129 0.03142 0.97523 0.0
H1659 H 0.93343 0.03176 0.86737 0.0
C1660 C 0.30992 0.98349 0.30249 0.0
C1661 C 0.31005 1.00015 0.2702 0.0
C1662 C 0.30878 0.98364 0.36416 0.0
C1663 C 0.29883 0.01207 0.48393 0.0
H1664 H 0.31289 0.97901 0.58708 0.0
C1665 C 0.29704 0.01653 0.74006 0.0
C1666 C 0.29754 1.0 0.77287 0.0
C1667 C 0.29822 0.01637 0.67841 0.0
C1668 C 0.3088 0.98813 0.55883 0.0
H1669 H 0.30936 0.03006 0.27689 0.0
H1670 H 0.3074 0.03037 0.38506 0.0
H1671 H 0.31625 0.97952 0.48081 0.0
H1672 H 0.29931 0.97025 0.76705 0.0
H1673 H 0.30116 0.96986 0.65896 0.0
H1674 H 0.29131 0.02058 0.56173 0.0
C1675 C 0.3081 0.01717 0.36258 0.0
C1676 C 0.31076 0.98848 0.49794 0.0
C1677 C 0.3093 0.01702 0.30081 0.0
C1678 C 0.2989 0.9832 0.74275 0.0
C1679 C 0.30005 0.98302 0.68095 0.0
C1680 C 0.29683 0.01166 0.54479 0.0
C1681 C 0.3077 1.00046 0.39482 0.0
C1682 C 0.30581 1.00046 0.45981 0.0
C1683 C 0.29989 0.99965 0.64814 0.0
C1684 C 0.3018 0.9997 0.58304 0.0
H1685 H 0.31045 0.97028 0.27992 0.0
H1686 H 0.30842 0.97053 0.38757 0.0
H1687 H 0.29477 0.02122 0.45556 0.0
H1688 H 0.29604 0.0297 0.76224 0.0
H1689 H 0.29815 0.02946 0.6548 0.0
C1690 C 0.93156 0.27696 0.30217 0.0
C1691 C 0.93174 0.26002 0.27162 0.0
C1692 C 0.93275 0.27745 0.36374 0.0
C1693 C 0.94477 0.25411 0.4825 0.0
H1694 H 0.92732 0.27906 0.58816 0.0
C1695 C 0.9488 0.25133 0.7379 0.0
C1696 C 0.94526 0.26603 0.77197 0.0
C1697 C 0.94757 0.25113 0.67627 0.0
C1698 C 0.93239 0.27237 0.55932 0.0
H1699 H 0.93316 0.23028 0.28096 0.0
H1700 H 0.93552 0.23117 0.38917 0.0
H1701 H 0.92378 0.27713 0.48234 0.0
H1702 H 0.93823 0.29263 0.76853 0.0
H1703 H 0.93656 0.2929 0.66061 0.0
H1704 H 0.9536 0.24997 0.55833 0.0
C1705 C 0.93433 0.24401 0.3653 0.0
C1706 C 0.93028 0.27109 0.49878 0.0
C1707 C 0.93292 0.24349 0.30372 0.0
C1708 C 0.94098 0.28108 0.74315 0.0
C1709 C 0.93991 0.28108 0.68135 0.0
C1710 C 0.94698 0.2557 0.54285 0.0
C1711 C 0.93435 0.26103 0.39564 0.0
C1712 C 0.93642 0.26186 0.45998 0.0
C1713 C 0.94292 0.26582 0.64719 0.0
C1714 C 0.9408 0.26478 0.58226 0.0
H1715 H 0.93069 0.2899 0.27827 0.0
H1716 H 0.93277 0.29073 0.38618 0.0
H1717 H 0.94969 0.24717 0.45312 0.0
H1718 H 0.95205 0.23946 0.75915 0.0
H1719 H 0.94989 0.23902 0.65201 0.0
C1720 C 0.6813 0.73304 0.05185 0.0
C1721 C 0.6814 0.74986 0.02047 0.0
C1722 C 0.68248 0.73277 0.11353 0.0
C1723 C 0.68206 0.76261 0.24828 0.0
H1724 H 0.69768 0.72354 0.31448 0.0
C1725 C 0.69517 0.76453 0.49065 0.0
C1726 C 0.69417 0.74814 0.52379 0.0
C1727 C 0.69386 0.76447 0.42909 0.0
C1728 C 0.69324 0.73445 0.29674 0.0
H1729 H 0.68261 0.77965 0.02889 0.0
H1730 H 0.68482 0.77925 0.13664 0.0
H1731 H 0.69451 0.72421 0.20793 0.0
H1732 H 0.69132 0.7187 0.51847 0.0
H1733 H 0.68912 0.71851 0.41041 0.0
H1734 H 0.68092 0.77297 0.33715 0.0
C1735 C 0.68368 0.76623 0.11387 0.0
C1736 C 0.69139 0.73481 0.23564 0.0
C1737 C 0.68244 0.76649 0.05209 0.0
C1738 C 0.69217 0.73152 0.49393 0.0
C1739 C 0.69092 0.73142 0.43212 0.0
C1740 C 0.68397 0.76231 0.30929 0.0
C1741 C 0.68387 0.74933 0.1453 0.0
C1742 C 0.68576 0.74889 0.21056 0.0
C1743 C 0.69157 0.74798 0.39919 0.0
C1744 C 0.68958 0.74823 0.33423 0.0
H1745 H 0.68049 0.72 0.02858 0.0
H1746 H 0.68238 0.71953 0.13625 0.0
H1747 H 0.67758 0.77349 0.23084 0.0
H1748 H 0.69671 0.77756 0.51249 0.0
H1749 H 0.69455 0.77739 0.4049 0.0
C1750 C 0.05779 0.02676 0.04439 0.0
C1751 C 0.05908 0.01008 0.01343 0.0
C1752 C 0.05677 0.02673 0.10608 0.0
C1753 C 0.06032 0.99806 0.24103 0.0
H1754 H 0.04121 0.03052 0.30732 0.0
C1755 C 0.04807 0.99188 0.48386 0.0
C1756 C 0.04753 0.00844 0.51634 0.0
C1757 C 0.04925 0.99228 0.4223 0.0
C1758 C 0.04662 0.02151 0.2895 0.0
H1759 H 0.06057 0.98035 0.02236 0.0
H1760 H 0.05866 0.9802 0.1304 0.0
H1761 H 0.04415 0.03072 0.20049 0.0
H1762 H 0.04747 0.0384 0.51013 0.0
H1763 H 0.04945 0.03913 0.40194 0.0
H1764 H 0.0627 0.9887 0.33011 0.0
C1765 C 0.05855 0.99335 0.10717 0.0
C1766 C 0.04834 0.02164 0.22833 0.0
C1767 C 0.05963 0.9934 0.04533 0.0
C1768 C 0.04784 0.02544 0.486 0.0
C1769 C 0.04896 0.02584 0.42419 0.0
C1770 C 0.05857 0.99786 0.30214 0.0
C1771 C 0.05696 0.01 0.13816 0.0
C1772 C 0.05522 0.00993 0.20334 0.0
C1773 C 0.04986 0.00925 0.3919 0.0
C1774 C 0.0517 0.00956 0.327 0.0
H1775 H 0.05739 0.03983 0.02081 0.0
H1776 H 0.05575 0.03984 0.1286 0.0
H1777 H 0.06577 0.98907 0.22344 0.0
H1778 H 0.04784 0.97858 0.50618 0.0
H1779 H 0.04977 0.97928 0.3985 0.0
C1780 C 0.68218 0.0248 0.70464 0.0
C1781 C 0.68172 0.00796 0.73578 0.0
C1782 C 0.68326 0.02497 0.64294 0.0
C1783 C 0.68144 0.99554 0.50817 0.0
H1784 H 0.69865 0.03195 0.44184 0.0
C1785 C 0.69434 0.99162 0.26609 0.0
C1786 C 0.69392 0.00811 0.233 0.0
C1787 C 0.69308 0.99189 0.32763 0.0
C1788 C 0.69377 0.02181 0.45967 0.0
H1789 H 0.68179 0.97808 0.72709 0.0
H1790 H 0.68381 0.9783 0.61919 0.0
H1791 H 0.69558 0.03168 0.54852 0.0
H1792 H 0.69218 0.03788 0.23817 0.0
H1793 H 0.69008 0.03842 0.34628 0.0
H1794 H 0.67976 0.98552 0.41926 0.0
C1795 C 0.68321 0.99141 0.64221 0.0
C1796 C 0.69197 0.02167 0.52077 0.0
C1797 C 0.68207 0.99126 0.70401 0.0
C1798 C 0.69257 0.02499 0.26276 0.0
C1799 C 0.69137 0.02528 0.32454 0.0
C1800 C 0.68329 0.9956 0.44715 0.0
C1801 C 0.68397 0.00829 0.61102 0.0
C1802 C 0.68578 0.00854 0.54582 0.0
C1803 C 0.69143 0.00868 0.35742 0.0
C1804 C 0.68948 0.00872 0.42226 0.0
H1805 H 0.68189 0.03789 0.72809 0.0
H1806 H 0.68361 0.03821 0.62033 0.0
H1807 H 0.67652 0.98543 0.52571 0.0
H1808 H 0.69538 0.97841 0.24425 0.0
H1809 H 0.69331 0.97892 0.35188 0.0
C1810 C 0.0451 0.76325 0.25876 0.0
C1811 C 0.04859 0.74836 0.22524 0.0
C1812 C 0.04623 0.76357 0.32051 0.0
C1813 C 0.06145 0.74453 0.43869 0.0
H1814 H 0.04199 0.76319 0.5439 0.0
C1815 C 0.06415 0.7401 0.69514 0.0
C1816 C 0.06058 0.75497 0.72838 0.0
C1817 C 0.06296 0.73957 0.63344 0.0
C1818 C 0.04755 0.75818 0.51507 0.0
H1819 H 0.05569 0.72182 0.2299 0.0
H1820 H 0.05757 0.72224 0.33793 0.0
H1821 H 0.03889 0.76095 0.43755 0.0
H1822 H 0.05324 0.78125 0.72326 0.0
H1823 H 0.05129 0.78053 0.61538 0.0
H1824 H 0.07013 0.74181 0.51616 0.0
C1825 C 0.05409 0.73382 0.31648 0.0
C1826 C 0.04576 0.75684 0.45409 0.0
C1827 C 0.05295 0.73349 0.25472 0.0
C1828 C 0.05606 0.76961 0.69867 0.0
C1829 C 0.05487 0.7691 0.63697 0.0
C1830 C 0.06325 0.74589 0.49966 0.0
C1831 C 0.05089 0.74901 0.35002 0.0
C1832 C 0.05269 0.75001 0.41514 0.0
C1833 C 0.05816 0.75392 0.6037 0.0
C1834 C 0.05633 0.75275 0.53862 0.0
H1835 H 0.04175 0.77494 0.2371 0.0
H1836 H 0.04375 0.77556 0.34484 0.0
H1837 H 0.06701 0.73952 0.40983 0.0
H1838 H 0.06762 0.72858 0.71699 0.0
H1839 H 0.06551 0.7276 0.60935 0.0
C1840 C 0.29746 0.73943 0.02021 0.0
C1841 C 0.29757 0.75603 0.98756 0.0
C1842 C 0.29868 0.73964 0.08177 0.0
C1843 C 0.29733 0.76919 0.21446 0.0
H1844 H 0.31518 0.73393 0.2803 0.0
C1845 C 0.30889 0.77286 0.45918 0.0
C1846 C 0.30958 0.75606 0.49041 0.0
C1847 C 0.30781 0.77294 0.39751 0.0
C1848 C 0.3101 0.74372 0.2628 0.0
H1849 H 0.29872 0.7859 0.99354 0.0
H1850 H 0.30077 0.78631 0.1017 0.0
H1851 H 0.312 0.73399 0.17375 0.0
H1852 H 0.30994 0.72619 0.48191 0.0
H1853 H 0.30793 0.72625 0.37393 0.0
H1854 H 0.29531 0.77878 0.30343 0.0
C1855 C 0.29974 0.77314 0.07958 0.0
C1856 C 0.30828 0.74376 0.20173 0.0
C1857 C 0.29858 0.77292 0.01778 0.0
C1858 C 0.30947 0.73933 0.45875 0.0
C1859 C 0.30834 0.7394 0.39693 0.0
C1860 C 0.2991 0.76908 0.27559 0.0
C1861 C 0.29998 0.75646 0.11203 0.0
C1862 C 0.30188 0.75648 0.17692 0.0
C1863 C 0.30733 0.75621 0.36569 0.0
C1864 C 0.30552 0.75636 0.30052 0.0
H1865 H 0.29668 0.72621 0.99801 0.0
H1866 H 0.29869 0.7266 0.10567 0.0
H1867 H 0.29228 0.77901 0.19671 0.0
H1868 H 0.30899 0.78598 0.48254 0.0
H1869 H 0.30727 0.78615 0.37483 0.0
C1870 C 0.93539 0.5197 0.4469 0.0
C1871 C 0.93147 0.50435 0.47637 0.0
C1872 C 0.93662 0.51946 0.38519 0.0
C1873 C 0.92927 0.49507 0.24736 0.0
H1874 H 0.95288 0.51436 0.1855 0.0
C1875 C 0.94023 0.48431 0.00264 0.0
C1876 C 0.94396 0.49981 0.97298 0.0
C1877 C 0.93901 0.48455 0.06437 0.0
C1878 C 0.94621 0.50906 0.20195 0.0
H1879 H 0.92553 0.47694 0.46448 0.0
H1880 H 0.92771 0.47644 0.35686 0.0
H1881 H 0.94966 0.516 0.29184 0.0
H1882 H 0.94959 0.52748 0.98457 0.0
H1883 H 0.94747 0.52794 0.09229 0.0
H1884 H 0.92584 0.48809 0.15745 0.0
C1885 C 0.92976 0.48876 0.38113 0.0
C1886 C 0.94435 0.51005 0.26295 0.0
C1887 C 0.92852 0.48901 0.44284 0.0
C1888 C 0.94674 0.5153 0.00635 0.0
C1889 C 0.94554 0.51554 0.06809 0.0
C1890 C 0.93114 0.49406 0.18637 0.0
C1891 C 0.93397 0.50386 0.35161 0.0
C1892 C 0.93585 0.50308 0.28646 0.0
C1893 C 0.94151 0.50028 0.09776 0.0
C1894 C 0.93963 0.50104 0.16289 0.0
H1895 H 0.93772 0.53172 0.47169 0.0
H1896 H 0.93973 0.53146 0.36383 0.0
H1897 H 0.9226 0.48979 0.26374 0.0
H1898 H 0.93803 0.47217 0.97798 0.0
H1899 H 0.93603 0.47245 0.0859 0.0
C1900 C 0.3077 0.51669 0.80578 0.0
C1901 C 0.31127 0.50116 0.77575 0.0
C1902 C 0.30641 0.51626 0.86746 0.0
C1903 C 0.31304 0.49053 0.00453 0.0
H1904 H 0.28993 0.51183 0.06655 0.0
C1905 C 0.30182 0.48058 0.2497 0.0
C1906 C 0.29847 0.49641 0.2791 0.0
C1907 C 0.30305 0.48067 0.18791 0.0
C1908 C 0.29645 0.50595 0.05007 0.0
H1909 H 0.31652 0.47318 0.78665 0.0
H1910 H 0.31424 0.47234 0.89417 0.0
H1911 H 0.29323 0.51354 0.96034 0.0
H1912 H 0.29352 0.52457 0.26698 0.0
H1913 H 0.29566 0.52477 0.15938 0.0
H1914 H 0.31625 0.48292 0.09432 0.0
C1915 C 0.31252 0.48495 0.87039 0.0
C1916 C 0.29837 0.50698 0.98913 0.0
C1917 C 0.31381 0.4854 0.80872 0.0
C1918 C 0.29608 0.51212 0.24544 0.0
C1919 C 0.29728 0.51221 0.18372 0.0
C1920 C 0.31112 0.48947 0.06548 0.0
C1921 C 0.30865 0.50026 0.90046 0.0
C1922 C 0.3067 0.49933 0.96555 0.0
C1923 C 0.30093 0.4966 0.15425 0.0
C1924 C 0.30281 0.4972 0.08906 0.0
H1925 H 0.30568 0.52904 0.78145 0.0
H1926 H 0.30358 0.52842 0.88924 0.0
H1927 H 0.31958 0.48469 0.9881 0.0
H1928 H 0.30374 0.46828 0.27459 0.0
H1929 H 0.30574 0.46831 0.16655 0.0
C1930 C 0.92701 0.76948 0.80771 0.0
C1931 C 0.93173 0.75581 0.77481 0.0
C1932 C 0.92838 0.77086 0.86913 0.0
C1933 C 0.94579 0.7596 0.98496 0.0
H1934 H 0.92517 0.76928 0.09378 0.0
C1935 C 0.94985 0.75578 0.24077 0.0
C1936 C 0.9444 0.76784 0.27558 0.0
C1937 C 0.94876 0.75544 0.17896 0.0
C1938 C 0.93105 0.76689 0.06394 0.0
H1939 H 0.94133 0.7325 0.78027 0.0
H1940 H 0.94367 0.73482 0.88762 0.0
H1941 H 0.92193 0.76559 0.98809 0.0
H1942 H 0.93397 0.78976 0.27321 0.0
H1943 H 0.93225 0.78957 0.16528 0.0
H1944 H 0.95493 0.76099 0.06065 0.0
C1945 C 0.93901 0.7446 0.86593 0.0
C1946 C 0.92917 0.76469 0.00336 0.0
C1947 C 0.93759 0.74316 0.80461 0.0
C1948 C 0.93823 0.78026 0.24738 0.0
C1949 C 0.93718 0.78 0.1856 0.0
C1950 C 0.94768 0.7619 0.04553 0.0
C1951 C 0.93454 0.75866 0.89874 0.0
C1952 C 0.93651 0.76094 0.96321 0.0
C1953 C 0.94223 0.76723 0.15074 0.0
C1954 C 0.94033 0.76552 0.08585 0.0
H1955 H 0.92249 0.77946 0.78575 0.0
H1956 H 0.92488 0.7819 0.89308 0.0
H1957 H 0.95163 0.75704 0.95498 0.0
H1958 H 0.95463 0.74598 0.26146 0.0
H1959 H 0.95273 0.74533 0.15369 0.0
C1960 C 0.68505 0.27164 0.56118 0.0
C1961 C 0.6802 0.25711 0.53303 0.0
C1962 C 0.68614 0.27171 0.62295 0.0
C1963 C 0.68846 0.23987 0.74654 0.0
H1964 H 0.68347 0.28234 0.84698 0.0
C1965 C 0.69133 0.23581 0.00249 0.0
C1966 C 0.69398 0.2518 0.0337 0.0
C1967 C 0.68985 0.23652 0.94106 0.0
C1968 C 0.68508 0.27044 0.81955 0.0
H1969 H 0.67245 0.23159 0.54712 0.0
H1970 H 0.67451 0.23155 0.6552 0.0
H1971 H 0.67997 0.28401 0.74094 0.0
H1972 H 0.69761 0.28083 0.02532 0.0
H1973 H 0.69551 0.28194 0.91782 0.0
H1974 H 0.69388 0.22644 0.82406 0.0
C1975 C 0.67741 0.24289 0.62945 0.0
C1976 C 0.68299 0.27139 0.75887 0.0
C1977 C 0.67618 0.243 0.56779 0.0
C1978 C 0.69553 0.26832 0.00222 0.0
C1979 C 0.69421 0.26897 0.94068 0.0
C1980 C 0.6907 0.23901 0.80699 0.0
C1981 C 0.68255 0.25707 0.65744 0.0
C1982 C 0.68461 0.25608 0.72192 0.0
C1983 C 0.69114 0.25319 0.90937 0.0
C1984 C 0.68901 0.25425 0.84447 0.0
H1985 H 0.68824 0.28265 0.53528 0.0
H1986 H 0.69015 0.28277 0.64348 0.0
H1987 H 0.68992 0.22797 0.71873 0.0
H1988 H 0.69 0.22293 0.02588 0.0
H1989 H 0.68737 0.22413 0.91893 0.0
C1990 C 0.04366 0.50584 0.99642 0.0
C1991 C 0.0488 0.51846 0.03105 0.0
C1992 C 0.04474 0.50555 0.93463 0.0
C1993 C 0.06215 0.51877 0.81967 0.0
H1994 H 0.04193 0.50638 0.71059 0.0
C1995 C 0.06601 0.52207 0.5637 0.0
C1996 C 0.06185 0.50771 0.5308 0.0
C1997 C 0.06461 0.52321 0.62509 0.0
C1998 C 0.04767 0.50967 0.74064 0.0
H1999 H 0.05863 0.54146 0.02842 0.0
H2000 H 0.06031 0.54138 0.92049 0.0
H2001 H 0.03848 0.51011 0.81617 0.0
H2002 H 0.0532 0.48298 0.53616 0.0
H2003 H 0.05076 0.48494 0.64357 0.0
H2004 H 0.07131 0.51848 0.74392 0.0
C2005 C 0.05565 0.53132 0.94094 0.0
C2006 C 0.04569 0.51183 0.80113 0.0
C2007 C 0.05462 0.5315 0.0027 0.0
C2008 C 0.05651 0.49418 0.56054 0.0
C2009 C 0.05504 0.4954 0.62186 0.0
C2010 C 0.06411 0.51673 0.75916 0.0
C2011 C 0.05095 0.51798 0.90627 0.0
C2012 C 0.05292 0.51637 0.84146 0.0
C2013 C 0.05895 0.5101 0.65463 0.0
C2014 C 0.0569 0.51209 0.71902 0.0
H2015 H 0.03916 0.49557 0.01726 0.0
H2016 H 0.04105 0.495 0.9095 0.0
H2017 H 0.06793 0.52187 0.84953 0.0
H2018 H 0.07013 0.53273 0.54176 0.0
H2019 H 0.06767 0.53475 0.64908 0.0
C2020 C 0.68209 0.49042 0.20288 0.0
C2021 C 0.68171 0.50716 0.23442 0.0
C2022 C 0.6833 0.49047 0.14111 0.0
C2023 C 0.69218 0.52048 0.01921 0.0
H2024 H 0.68001 0.48417 0.91812 0.0
C2025 C 0.69309 0.52347 0.76113 0.0
C2026 C 0.69425 0.50655 0.7313 0.0
C2027 C 0.69186 0.52381 0.82291 0.0
C2028 C 0.68353 0.49429 0.94586 0.0
H2029 H 0.68193 0.53708 0.22625 0.0
H2030 H 0.68377 0.53723 0.1185 0.0
H2031 H 0.67671 0.48427 0.02447 0.0
H2032 H 0.69536 0.47679 0.74256 0.0
H2033 H 0.69327 0.47738 0.85018 0.0
H2034 H 0.69892 0.53059 0.94027 0.0
C2035 C 0.68338 0.52402 0.14131 0.0
C2036 C 0.68165 0.49434 0.00687 0.0
C2037 C 0.68223 0.52395 0.203 0.0
C2038 C 0.69446 0.49005 0.76441 0.0
C2039 C 0.69319 0.49036 0.82598 0.0
C2040 C 0.69402 0.52049 0.95812 0.0
C2041 C 0.6841 0.50729 0.10963 0.0
C2042 C 0.68596 0.50741 0.04441 0.0
C2043 C 0.69172 0.50721 0.85585 0.0
C2044 C 0.68975 0.50734 0.92079 0.0
H2045 H 0.68177 0.47727 0.22613 0.0
H2046 H 0.68391 0.47732 0.11834 0.0
H2047 H 0.69577 0.53054 0.04685 0.0
H2048 H 0.69286 0.53639 0.73658 0.0
H2049 H 0.6907 0.537 0.8446 0.0
C2050 C 0.05234 0.23517 0.76042 0.0
C2051 C 0.04806 0.25009 0.73079 0.0
C2052 C 0.05348 0.23552 0.82223 0.0
C2053 C 0.05533 0.26864 0.94628 0.0
H2054 H 0.05182 0.22518 0.04527 0.0
C2055 C 0.05634 0.27156 0.2034 0.0
C2056 C 0.06033 0.25647 0.23373 0.0
C2057 C 0.05513 0.27096 0.14169 0.0
C2058 C 0.05297 0.23739 0.01816 0.0
H2059 H 0.04128 0.27674 0.74246 0.0
H2060 H 0.04316 0.2773 0.85033 0.0
H2061 H 0.04862 0.22333 0.93891 0.0
H2062 H 0.06651 0.22921 0.22342 0.0
H2063 H 0.06459 0.22828 0.11561 0.0
H2064 H 0.05973 0.28269 0.02533 0.0
C2065 C 0.04578 0.26545 0.82588 0.0
C2066 C 0.0511 0.23633 0.9572 0.0
C2067 C 0.04462 0.26506 0.76418 0.0
C2068 C 0.06339 0.24104 0.20111 0.0
C2069 C 0.06221 0.24044 0.13943 0.0
C2070 C 0.05723 0.26969 0.00719 0.0
C2071 C 0.05038 0.25085 0.85554 0.0
C2072 C 0.05224 0.25195 0.92055 0.0
C2073 C 0.05791 0.25525 0.10905 0.0
C2074 C 0.05606 0.25408 0.04395 0.0
H2075 H 0.05509 0.22348 0.73568 0.0
H2076 H 0.0571 0.22411 0.84362 0.0
H2077 H 0.05645 0.28085 0.91913 0.0
H2078 H 0.05386 0.28359 0.22755 0.0
H2079 H 0.05171 0.28254 0.1199 0.0
C2080 C 0.79305 0.25524 0.0111 0.0
C2081 C 0.79749 0.26901 0.97688 0.0
C2082 C 0.79419 0.25486 0.07286 0.0
C2083 C 0.8011 0.28264 0.20303 0.0
H2084 H 0.80898 0.23547 0.26933 0.0
C2085 C 0.81421 0.27707 0.44489 0.0
C2086 C 0.81145 0.26143 0.4777 0.0
C2087 C 0.81272 0.27781 0.38348 0.0
C2088 C 0.80666 0.2487 0.25188 0.0
H2089 H 0.8062 0.29368 0.98036 0.0
H2090 H 0.80803 0.29324 0.08846 0.0
H2091 H 0.80509 0.2377 0.16403 0.0
H2092 H 0.80515 0.23414 0.47218 0.0
H2093 H 0.80233 0.23553 0.36536 0.0
H2094 H 0.8025 0.29363 0.29078 0.0
C2095 C 0.80372 0.28269 0.06758 0.0
C2096 C 0.80444 0.24997 0.19144 0.0
C2097 C 0.80267 0.28294 0.00575 0.0
C2098 C 0.80742 0.24631 0.44782 0.0
C2099 C 0.80583 0.24712 0.38649 0.0
C2100 C 0.80323 0.28134 0.26362 0.0
C2101 C 0.7997 0.26836 0.10161 0.0
C2102 C 0.80167 0.26696 0.16632 0.0
C2103 C 0.80832 0.26301 0.35359 0.0
C2104 C 0.80609 0.26437 0.28887 0.0
H2105 H 0.78904 0.24429 0.98996 0.0
H2106 H 0.79092 0.24379 0.09807 0.0
H2107 H 0.79892 0.29588 0.18498 0.0
H2108 H 0.81736 0.28891 0.46687 0.0
H2109 H 0.81494 0.2901 0.35958 0.0
C2110 C 0.42766 0.99274 0.44584 0.0
C2111 C 0.43056 0.00814 0.47924 0.0
C2112 C 0.42892 0.99242 0.38416 0.0
C2113 C 0.4435 0.01371 0.26592 0.0
H2114 H 0.42505 0.9915 0.16052 0.0
C2115 C 0.44584 0.01891 0.00936 0.0
C2116 C 0.44309 1.00338 0.97601 0.0
C2117 C 0.44467 0.01912 0.07111 0.0
C2118 C 0.43034 0.99753 0.18942 0.0
H2119 H 0.43675 0.03556 0.47436 0.0
H2120 H 0.4388 0.0352 0.36652 0.0
H2121 H 0.4218 0.99327 0.26676 0.0
H2122 H 0.43725 0.97568 0.98105 0.0
H2123 H 0.43529 0.97592 0.08901 0.0
H2124 H 0.45203 0.01803 0.18848 0.0
C2125 C 0.43571 0.0232 0.38797 0.0
C2126 C 0.42846 0.99859 0.25037 0.0
C2127 C 0.43445 0.02349 0.44967 0.0
C2128 C 0.43943 0.98784 0.0057 0.0
C2129 C 0.43823 0.98805 0.06745 0.0
C2130 C 0.44538 0.01268 0.20495 0.0
C2131 C 0.43311 0.00753 0.35454 0.0
C2132 C 0.43501 0.0067 0.28943 0.0
C2133 C 0.44069 1.00382 0.10081 0.0
C2134 C 0.43882 1.00457 0.16593 0.0
H2135 H 0.42469 0.98066 0.46756 0.0
H2136 H 0.42692 0.98006 0.36001 0.0
H2137 H 0.44879 0.01974 0.29479 0.0
H2138 H 0.44865 0.03112 0.98755 0.0
H2139 H 0.44657 0.03154 0.09529 0.0
C2140 C 0.81021 0.98832 0.79986 0.0
C2141 C 0.8103 1.0051 0.76815 0.0
C2142 C 0.80906 0.98823 0.86156 0.0
C2143 C 0.79882 0.01585 0.98201 0.0
H2144 H 0.8134 0.98361 0.08495 0.0
C2145 C 0.79682 0.0204 0.23795 0.0
C2146 C 0.79777 1.00405 0.2713 0.0
C2147 C 0.79801 0.02019 0.1763 0.0
C2148 C 0.80915 0.99248 0.05679 0.0
H2149 H 0.80947 0.03496 0.77597 0.0
H2150 H 0.80745 0.03485 0.88413 0.0
H2151 H 0.8167 0.98429 0.97857 0.0
H2152 H 0.80037 0.97453 0.26637 0.0
H2153 H 0.8022 0.97399 0.15827 0.0
H2154 H 0.79117 0.02387 0.05979 0.0
C2155 C 0.80822 0.02175 0.86116 0.0
C2156 C 0.81109 0.99294 0.99583 0.0
C2157 C 0.80946 0.02184 0.79941 0.0
C2158 C 0.79961 0.98734 0.24167 0.0
C2159 C 0.80075 0.98709 0.17983 0.0
C2160 C 0.79683 0.0153 0.04288 0.0
C2161 C 0.80789 1.00493 0.89281 0.0
C2162 C 0.80597 1.00468 0.95779 0.0
C2163 C 0.80013 1.00358 0.14644 0.0
C2164 C 0.802 1.00365 0.08117 0.0
H2165 H 0.81081 0.97521 0.77679 0.0
H2166 H 0.80876 0.97505 0.88454 0.0
H2167 H 0.79464 0.0248 0.95369 0.0
H2168 H 0.79546 0.03351 0.2597 0.0
H2169 H 0.7976 0.03319 0.15239 0.0
C2170 C 0.43732 0.24648 0.80482 0.0
C2171 C 0.43194 0.25987 0.77469 0.0
C2172 C 0.43878 0.24784 0.86615 0.0
C2173 C 0.42968 0.26931 0.00338 0.0
H2174 H 0.45527 0.26256 0.06065 0.0
C2175 C 0.43922 0.28376 0.24788 0.0
C2176 C 0.44521 0.27096 0.27588 0.0
C2177 C 0.43806 0.28351 0.18612 0.0
C2178 C 0.44806 0.2643 0.04562 0.0
H2179 H 0.42362 0.28483 0.78516 0.0
H2180 H 0.42607 0.2871 0.89254 0.0
H2181 H 0.45185 0.25889 0.95508 0.0
H2182 H 0.45497 0.24833 0.2613 0.0
H2183 H 0.45287 0.24766 0.15374 0.0
H2184 H 0.42583 0.27438 0.0938 0.0
C2185 C 0.42916 0.27555 0.8688 0.0
C2186 C 0.4461 0.26219 0.98504 0.0
C2187 C 0.42776 0.27426 0.80734 0.0
C2188 C 0.45035 0.25845 0.24082 0.0
C2189 C 0.44915 0.2581 0.17907 0.0
C2190 C 0.43162 0.27129 0.06402 0.0
C2191 C 0.43484 0.26255 0.89871 0.0
C2192 C 0.43688 0.26464 0.96323 0.0
C2193 C 0.44282 0.27035 0.15101 0.0
C2194 C 0.44084 0.26881 0.08602 0.0
H2195 H 0.44064 0.23525 0.78072 0.0
H2196 H 0.44308 0.23746 0.88805 0.0
H2197 H 0.42248 0.27109 0.98807 0.0
H2198 H 0.43519 0.29359 0.27387 0.0
H2199 H 0.4333 0.29344 0.16604 0.0
C2200 C 0.19421 0.77087 0.99497 0.0
C2201 C 0.1935 0.75442 0.02812 0.0
C2202 C 0.1929 0.77071 0.93338 0.0
C2203 C 0.19262 0.74042 0.80114 0.0
H2204 H 0.17655 0.77876 0.73495 0.0
C2205 C 0.18036 0.73802 0.55681 0.0
C2206 C 0.18032 0.75477 0.525 0.0
C2207 C 0.18162 0.73793 0.61845 0.0
C2208 C 0.18114 0.76808 0.75247 0.0
H2209 H 0.19117 0.72481 0.02278 0.0
H2210 H 0.18895 0.72446 0.91483 0.0
H2211 H 0.17999 0.7786 0.84113 0.0
H2212 H 0.18136 0.7846 0.53267 0.0
H2213 H 0.1837 0.78452 0.6403 0.0
H2214 H 0.19387 0.72999 0.71252 0.0
C2215 C 0.19053 0.73749 0.93646 0.0
C2216 C 0.18311 0.76799 0.81342 0.0
C2217 C 0.1918 0.73768 0.99824 0.0
C2218 C 0.1813 0.77149 0.55618 0.0
C2219 C 0.18262 0.77142 0.6179 0.0
C2220 C 0.19069 0.74057 0.74011 0.0
C2221 C 0.19089 0.75407 0.90348 0.0
C2222 C 0.18888 0.75416 0.8385 0.0
C2223 C 0.18295 0.7546 0.64975 0.0
C2224 C 0.18491 0.75439 0.71493 0.0
H2225 H 0.19552 0.78399 0.01683 0.0
H2226 H 0.19338 0.78367 0.9092 0.0
H2227 H 0.19717 0.72971 0.81892 0.0
H2228 H 0.1796 0.72491 0.53389 0.0
H2229 H 0.18163 0.72475 0.64151 0.0
C2230 C 0.56382 0.02292 0.56261 0.0
C2231 C 0.5618 0.00687 0.52972 0.0
C2232 C 0.5625 0.0232 0.62429 0.0
C2233 C 0.55951 0.99291 0.75643 0.0
H2234 H 0.54754 0.03625 0.82475 0.0
C2235 C 0.54687 0.99362 1.00026 0.0
C2236 C 0.54868 0.00971 0.0334 0.0
C2237 C 0.54814 0.99351 0.93857 0.0
C2238 C 0.55098 0.02412 0.80658 0.0
H2239 H 0.55705 0.97839 0.53561 0.0
H2240 H 0.55475 0.97883 0.64324 0.0
H2241 H 0.55093 0.03542 0.71849 0.0
H2242 H 0.553 0.03845 0.02791 0.0
H2243 H 0.55528 0.0383 0.92023 0.0
H2244 H 0.55959 0.98161 0.84444 0.0
C2245 C 0.55742 0.99119 0.6216 0.0
C2246 C 0.55294 0.02365 0.74558 0.0
C2247 C 0.55872 0.99093 0.55989 0.0
C2248 C 0.5515 0.02587 0.00343 0.0
C2249 C 0.55278 0.02577 0.94167 0.0
C2250 C 0.55757 0.99338 0.81742 0.0
C2251 C 0.55915 0.00742 0.6545 0.0
C2252 C 0.55722 0.00803 0.71968 0.0
C2253 C 0.55128 0.00949 0.90853 0.0
C2254 C 0.55326 0.00898 0.84334 0.0
H2255 H 0.5662 0.03542 0.54051 0.0
H2256 H 0.56405 0.03584 0.64829 0.0
H2257 H 0.56293 0.98076 0.73821 0.0
H2258 H 0.54467 0.98095 0.02218 0.0
H2259 H 0.54674 0.98082 0.91446 0.0
C2260 C 0.19252 0.02922 0.76254 0.0
C2261 C 0.19374 0.01236 0.73244 0.0
C2262 C 0.19131 0.02945 0.82435 0.0
C2263 C 0.18318 0.99957 0.94711 0.0
H2264 H 0.1951 0.03618 0.04823 0.0
C2265 C 0.18159 0.99584 0.20431 0.0
C2266 C 0.18106 0.01261 0.23563 0.0
C2267 C 0.18285 0.99585 0.14255 0.0
C2268 C 0.1916 0.02601 0.02056 0.0
H2269 H 0.19498 0.98261 0.74329 0.0
H2270 H 0.19293 0.98301 0.85094 0.0
H2271 H 0.19829 0.03632 0.9417 0.0
H2272 H 0.18105 0.04251 0.22705 0.0
H2273 H 0.18299 0.04259 0.11938 0.0
H2274 H 0.17642 0.98934 0.02567 0.0
C2275 C 0.19278 0.99603 0.82693 0.0
C2276 C 0.19346 0.02607 0.95949 0.0
C2277 C 0.19404 0.99581 0.76534 0.0
C2278 C 0.18147 0.02937 0.20399 0.0
C2279 C 0.18268 0.0294 0.14234 0.0
C2280 C 0.18128 0.99956 0.00812 0.0
C2281 C 0.19125 0.0128 0.85708 0.0
C2282 C 0.1893 0.01282 0.92207 0.0
C2283 C 0.18356 0.01265 0.11089 0.0
C2284 C 0.18547 0.01277 0.0457 0.0
H2285 H 0.19223 0.04216 0.73817 0.0
H2286 H 0.1901 0.04259 0.84622 0.0
H2287 H 0.17973 0.98935 0.91934 0.0
H2288 H 0.18136 0.98271 0.22771 0.0
H2289 H 0.18359 0.98269 0.11997 0.0
C2290 C 0.54712 0.76545 0.75355 0.0
C2291 C 0.54879 0.74936 0.72019 0.0
C2292 C 0.54831 0.76539 0.8153 0.0
C2293 C 0.56107 0.74048 0.93404 0.0
H2294 H 0.5442 0.76728 0.0388 0.0
C2295 C 0.5636 0.73589 0.19083 0.0
C2296 C 0.56166 0.75195 0.22379 0.0
C2297 C 0.56228 0.73566 0.12916 0.0
C2298 C 0.54906 0.75994 0.01013 0.0
H2299 H 0.55277 0.72042 0.72527 0.0
H2300 H 0.55477 0.72021 0.8333 0.0
H2301 H 0.5409 0.76619 0.93251 0.0
H2302 H 0.55712 0.78055 0.21806 0.0
H2303 H 0.55499 0.78033 0.11029 0.0
H2304 H 0.56927 0.7343 0.01155 0.0
C2305 C 0.55265 0.73297 0.8117 0.0
C2306 C 0.54714 0.75926 0.94914 0.0
C2307 C 0.55142 0.73303 0.74991 0.0
C2308 C 0.55867 0.76797 0.19374 0.0
C2309 C 0.55736 0.76777 0.13206 0.0
C2310 C 0.563 0.74118 0.99502 0.0
C2311 C 0.55124 0.74923 0.84507 0.0
C2312 C 0.55313 0.74954 0.91028 0.0
C2313 C 0.559 0.75152 0.09906 0.0
C2314 C 0.55703 0.75094 0.0339 0.0
H2315 H 0.54513 0.77827 0.73176 0.0
H2316 H 0.54725 0.77819 0.83943 0.0
H2317 H 0.56592 0.73313 0.9053 0.0
H2318 H 0.56585 0.7233 0.2129 0.0
H2319 H 0.56352 0.72286 0.10541 0.0
C2320 C 0.79387 0.75276 0.51445 0.0
C2321 C 0.79709 0.76781 0.48031 0.0
C2322 C 0.79511 0.75263 0.5761 0.0
C2323 C 0.79878 0.7813 0.70712 0.0
H2324 H 0.81273 0.73937 0.76982 0.0
C2325 C 0.81135 0.78069 0.95011 0.0
C2326 C 0.81122 0.7638 0.981 0.0
C2327 C 0.80997 0.78115 0.88865 0.0
C2328 C 0.80869 0.75104 0.75349 0.0
H2329 H 0.80366 0.7949 0.48378 0.0
H2330 H 0.80551 0.79496 0.59215 0.0
H2331 H 0.80871 0.74045 0.66448 0.0
H2332 H 0.80971 0.73409 0.97225 0.0
H2333 H 0.80693 0.73481 0.86523 0.0
H2334 H 0.79841 0.7917 0.79586 0.0
C2335 C 0.80216 0.78319 0.57101 0.0
C2336 C 0.80643 0.75167 0.69302 0.0
C2337 C 0.80109 0.78317 0.50917 0.0
C2338 C 0.80994 0.74729 0.94924 0.0
C2339 C 0.80837 0.74775 0.8878 0.0
C2340 C 0.80088 0.78053 0.76781 0.0
C2341 C 0.79941 0.7677 0.60479 0.0
C2342 C 0.8015 0.76684 0.66926 0.0
C2343 C 0.80821 0.76474 0.85673 0.0
C2344 C 0.80594 0.76545 0.79189 0.0
H2345 H 0.79081 0.7407 0.49328 0.0
H2346 H 0.79287 0.74061 0.60129 0.0
H2347 H 0.79491 0.79309 0.68987 0.0
H2348 H 0.81237 0.79363 0.97366 0.0
H2349 H 0.81019 0.79445 0.86639 0.0
C2350 C 0.4309 0.48768 0.94727 0.0
C2351 C 0.43083 0.50445 0.97891 0.0
C2352 C 0.43214 0.4876 0.88561 0.0
C2353 C 0.4424 0.51551 0.76487 0.0
H2354 H 0.42822 0.48257 0.66219 0.0
C2355 C 0.44431 0.52006 0.50867 0.0
C2356 C 0.44366 0.50362 0.47562 0.0
C2357 C 0.44311 0.51983 0.57035 0.0
C2358 C 0.43235 0.49165 0.69028 0.0
H2359 H 0.43177 0.5343 0.9709 0.0
H2360 H 0.4339 0.5342 0.86287 0.0
H2361 H 0.42485 0.4832 0.76846 0.0
H2362 H 0.44157 0.47394 0.48117 0.0
H2363 H 0.43969 0.4734 0.58928 0.0
H2364 H 0.44997 0.52386 0.68699 0.0
C2365 C 0.43307 0.5211 0.88583 0.0
C2366 C 0.43038 0.49207 0.75122 0.0
C2367 C 0.43177 0.52118 0.94756 0.0
C2368 C 0.4421 0.48682 0.50561 0.0
C2369 C 0.44094 0.48657 0.56746 0.0
C2370 C 0.44441 0.51503 0.70399 0.0
C2371 C 0.4334 0.50428 0.85425 0.0
C2372 C 0.43536 0.50405 0.78922 0.0
C2373 C 0.44127 0.50312 0.60053 0.0
C2374 C 0.43939 0.50314 0.66581 0.0
H2375 H 0.43023 0.47456 0.97037 0.0
H2376 H 0.43243 0.47441 0.86278 0.0
H2377 H 0.44649 0.52465 0.79307 0.0
H2378 H 0.44545 0.53323 0.48667 0.0
H2379 H 0.44331 0.53287 0.59404 0.0
C2380 C 0.81014 0.52156 0.30201 0.0
C2381 C 0.81111 0.50486 0.27071 0.0
C2382 C 0.80887 0.52142 0.36374 0.0
C2383 C 0.81192 0.4927 0.49836 0.0
H2384 H 0.79174 0.52303 0.56203 0.0
C2385 C 0.80051 0.48699 0.74425 0.0
C2386 C 0.79856 0.50368 0.7737 0.0
C2387 C 0.80163 0.4867 0.6824 0.0
C2388 C 0.79748 0.51463 0.5452 0.0
H2389 H 0.81184 0.47498 0.27925 0.0
H2390 H 0.80976 0.47473 0.38698 0.0
H2391 H 0.79522 0.52401 0.45595 0.0
H2392 H 0.79602 0.53305 0.76179 0.0
H2393 H 0.79812 0.53267 0.65445 0.0
H2394 H 0.8143 0.4835 0.58754 0.0
C2395 C 0.80997 0.48793 0.36404 0.0
C2396 C 0.79947 0.51521 0.48435 0.0
C2397 C 0.81114 0.48807 0.30235 0.0
C2398 C 0.79747 0.51996 0.74017 0.0
C2399 C 0.79864 0.5197 0.67851 0.0
C2400 C 0.80998 0.49221 0.55931 0.0
C2401 C 0.80865 0.50457 0.39531 0.0
C2402 C 0.80671 0.50426 0.46024 0.0
C2403 C 0.80088 0.50313 0.64883 0.0
C2404 C 0.80273 0.50318 0.58358 0.0
H2405 H 0.81006 0.53469 0.27862 0.0
H2406 H 0.80799 0.53448 0.38673 0.0
H2407 H 0.81761 0.48422 0.48117 0.0
H2408 H 0.80138 0.47423 0.7691 0.0
H2409 H 0.80318 0.47362 0.66098 0.0
C2410 C 0.4451 0.74631 0.74816 0.0
C2411 C 0.44331 0.76248 0.78088 0.0
C2412 C 0.44393 0.74614 0.68642 0.0
C2413 C 0.44146 0.77673 0.55425 0.0
H2414 H 0.42929 0.73365 0.48535 0.0
C2415 C 0.42851 0.77611 0.31103 0.0
C2416 C 0.43063 0.76023 0.27765 0.0
C2417 C 0.4298 0.7762 0.37268 0.0
C2418 C 0.43277 0.74571 0.5038 0.0
H2419 H 0.43915 0.7913 0.77479 0.0
H2420 H 0.43704 0.79103 0.66706 0.0
H2421 H 0.43256 0.73438 0.59173 0.0
H2422 H 0.4355 0.73182 0.2825 0.0
H2423 H 0.43773 0.73191 0.39023 0.0
H2424 H 0.4416 0.7881 0.46628 0.0
C2425 C 0.43944 0.7785 0.68881 0.0
C2426 C 0.43468 0.74612 0.5648 0.0
C2427 C 0.44063 0.77866 0.75058 0.0
C2428 C 0.43377 0.74423 0.30723 0.0
C2429 C 0.43502 0.74428 0.36893 0.0
C2430 C 0.43952 0.77634 0.49328 0.0
C2431 C 0.44093 0.76215 0.65604 0.0
C2432 C 0.43905 0.76163 0.59084 0.0
C2433 C 0.43321 0.76038 0.40227 0.0
C2434 C 0.43515 0.76084 0.46732 0.0
H2435 H 0.44719 0.73364 0.77042 0.0
H2436 H 0.44531 0.73341 0.66254 0.0
H2437 H 0.44496 0.78879 0.57257 0.0
H2438 H 0.42609 0.78865 0.28934 0.0
H2439 H 0.42819 0.78872 0.39715 0.0
C2440 C 0.18203 0.23766 0.05619 0.0
C2441 C 0.18123 0.25441 0.02475 0.0
C2442 C 0.18323 0.23767 0.11786 0.0
C2443 C 0.18112 0.26722 0.2524 0.0
H2444 H 0.19898 0.23206 0.31856 0.0
C2445 C 0.19389 0.27219 0.49487 0.0
C2446 C 0.194 0.25565 0.52786 0.0
C2447 C 0.19261 0.27183 0.43331 0.0
C2448 C 0.19391 0.24185 0.30084 0.0
H2449 H 0.18083 0.28428 0.03302 0.0
H2450 H 0.18303 0.28439 0.14078 0.0
H2451 H 0.19577 0.23194 0.21204 0.0
H2452 H 0.19315 0.22574 0.52232 0.0
H2453 H 0.19097 0.22506 0.41431 0.0
H2454 H 0.17935 0.27724 0.34123 0.0
C2455 C 0.18261 0.2712 0.11804 0.0
C2456 C 0.19204 0.24176 0.23977 0.0
C2457 C 0.18136 0.27117 0.05628 0.0
C2458 C 0.19314 0.23868 0.49788 0.0
C2459 C 0.1919 0.23831 0.43609 0.0
C2460 C 0.18302 0.26736 0.31339 0.0
C2461 C 0.18371 0.25445 0.14952 0.0
C2462 C 0.18561 0.25444 0.21472 0.0
C2463 C 0.19144 0.25491 0.40328 0.0
C2464 C 0.18945 0.2547 0.33833 0.0
H2465 H 0.18193 0.22452 0.03298 0.0
H2466 H 0.18385 0.2245 0.14066 0.0
H2467 H 0.17602 0.27698 0.23492 0.0
H2468 H 0.19455 0.28548 0.51683 0.0
H2469 H 0.19245 0.28483 0.40923 0.0
C2470 C 0.54352 0.50116 0.4876 0.0
C2471 C 0.54706 0.5158 0.522 0.0
C2472 C 0.5448 0.50101 0.426 0.0
C2473 C 0.56004 0.52232 0.30912 0.0
H2474 H 0.54275 0.49707 0.20289 0.0
C2475 C 0.56117 0.52644 0.05157 0.0
C2476 C 0.56086 0.50946 0.02127 0.0
C2477 C 0.55993 0.52708 0.11313 0.0
C2478 C 0.54767 0.50403 0.23225 0.0
H2479 H 0.5542 0.54231 0.519 0.0
H2480 H 0.55597 0.54266 0.41111 0.0
H2481 H 0.53882 0.4999 0.30803 0.0
H2482 H 0.55914 0.47979 0.03118 0.0
H2483 H 0.5567 0.48096 0.13925 0.0
H2484 H 0.56867 0.52705 0.23216 0.0
C2485 C 0.55255 0.53086 0.43161 0.0
C2486 C 0.54545 0.50563 0.29261 0.0
C2487 C 0.55143 0.53081 0.49342 0.0
C2488 C 0.55949 0.49304 0.05368 0.0
C2489 C 0.55802 0.49372 0.11522 0.0
C2490 C 0.56216 0.52103 0.24855 0.0
C2491 C 0.54951 0.51568 0.39714 0.0
C2492 C 0.55163 0.5147 0.3321 0.0
C2493 C 0.55814 0.51078 0.14532 0.0
C2494 C 0.55602 0.51177 0.20969 0.0
H2495 H 0.5402 0.48931 0.5086 0.0
H2496 H 0.54245 0.48895 0.40157 0.0
H2497 H 0.56511 0.52902 0.33796 0.0
H2498 H 0.56219 0.5393 0.02748 0.0
H2499 H 0.56001 0.5404 0.13531 0.0
C2500 C 0.19578 0.49871 0.2561 0.0
C2501 C 0.19381 0.51466 0.22245 0.0
C2502 C 0.19451 0.49869 0.31782 0.0
C2503 C 0.18119 0.52279 0.43606 0.0
H2504 H 0.19835 0.49687 0.54155 0.0
C2505 C 0.17843 0.52719 0.69298 0.0
C2506 C 0.18056 0.51122 0.72612 0.0
C2507 C 0.17978 0.52749 0.63131 0.0
C2508 C 0.19341 0.50397 0.51268 0.0
H2509 H 0.18924 0.54325 0.22708 0.0
H2510 H 0.18713 0.54332 0.33501 0.0
H2511 H 0.20172 0.49818 0.43538 0.0
H2512 H 0.18548 0.48286 0.72061 0.0
H2513 H 0.18767 0.48324 0.6129 0.0
H2514 H 0.17286 0.52852 0.51332 0.0
C2515 C 0.18953 0.53073 0.31367 0.0
C2516 C 0.19536 0.50476 0.45173 0.0
C2517 C 0.19082 0.53076 0.25192 0.0
C2518 C 0.18378 0.49537 0.69619 0.0
C2519 C 0.18513 0.49566 0.63453 0.0
C2520 C 0.17923 0.52197 0.49703 0.0
C2521 C 0.19122 0.51461 0.34734 0.0
C2522 C 0.18928 0.51417 0.41256 0.0
C2523 C 0.18329 0.51183 0.60135 0.0
C2524 C 0.1853 0.51252 0.53619 0.0
H2525 H 0.19804 0.48606 0.23454 0.0
H2526 H 0.1958 0.48597 0.3421 0.0
H2527 H 0.17626 0.52988 0.40715 0.0
H2528 H 0.176 0.53965 0.71492 0.0
H2529 H 0.17838 0.54024 0.60744 0.0
C2530 C 0.54753 0.26621 0.25698 0.0
C2531 C 0.54926 0.2501 0.2238 0.0
C2532 C 0.54881 0.26628 0.31865 0.0
C2533 C 0.55145 0.23563 0.4505 0.0
H2534 H 0.56379 0.27862 0.51878 0.0
C2535 C 0.56427 0.2364 0.69435 0.0
C2536 C 0.5624 0.25251 0.72724 0.0
C2537 C 0.56297 0.23618 0.63267 0.0
C2538 C 0.56026 0.26658 0.50057 0.0
H2539 H 0.55344 0.22129 0.22915 0.0
H2540 H 0.55573 0.22137 0.33686 0.0
H2541 H 0.56042 0.27787 0.41256 0.0
H2542 H 0.55793 0.28116 0.72138 0.0
H2543 H 0.55566 0.28082 0.61373 0.0
H2544 H 0.5513 0.22434 0.53858 0.0
C2545 C 0.55329 0.23394 0.31544 0.0
C2546 C 0.5583 0.26616 0.43961 0.0
C2547 C 0.552 0.23388 0.25369 0.0
C2548 C 0.55948 0.26857 0.69708 0.0
C2549 C 0.5582 0.26837 0.63537 0.0
C2550 C 0.55341 0.23605 0.51148 0.0
C2551 C 0.55187 0.25024 0.3486 0.0
C2552 C 0.55385 0.25069 0.41374 0.0
C2553 C 0.55978 0.25208 0.60248 0.0
C2554 C 0.55784 0.25153 0.53733 0.0
H2555 H 0.5454 0.27892 0.23511 0.0
H2556 H 0.54747 0.27898 0.34282 0.0
H2557 H 0.54791 0.2236 0.43232 0.0
H2558 H 0.56652 0.22381 0.71646 0.0
H2559 H 0.5644 0.22349 0.60867 0.0
C2560 C 0.31754 0.43833 0.48557 0.0
C2561 C 0.30924 0.44872 0.49236 0.0
C2562 C 0.31739 0.42134 0.45569 0.0
C2563 C 0.30237 0.38205 0.42102 0.0
H2564 H 0.32 0.37242 0.29307 0.0
C2565 C 0.30125 0.31362 0.28535 0.0
C2566 C 0.30977 0.30678 0.26231 0.0
C2567 C 0.30096 0.33097 0.31327 0.0
C2568 C 0.31513 0.37465 0.32942 0.0
H2569 H 0.29425 0.44956 0.47322 0.0
H2570 H 0.29393 0.41949 0.42235 0.0
H2571 H 0.32 0.40254 0.34168 0.0
H2572 H 0.32472 0.31223 0.25256 0.0
H2573 H 0.32435 0.3419 0.30363 0.0
H2574 H 0.29773 0.35402 0.4109 0.0
C2575 C 0.30057 0.42462 0.43977 0.0
C2576 C 0.3151 0.39203 0.3569 0.0
C2577 C 0.30076 0.44182 0.46858 0.0
C2578 C 0.31803 0.31729 0.26931 0.0
C2579 C 0.31778 0.33443 0.29817 0.0
C2580 C 0.30252 0.36451 0.39434 0.0
C2581 C 0.30888 0.41422 0.43304 0.0
C2582 C 0.30873 0.3959 0.40298 0.0
C2583 C 0.30921 0.34173 0.31976 0.0
C2584 C 0.30893 0.36051 0.34816 0.0
H2585 H 0.32418 0.44335 0.50334 0.0
H2586 H 0.32389 0.41356 0.45131 0.0
H2587 H 0.29744 0.38464 0.45686 0.0
H2588 H 0.29477 0.3058 0.28037 0.0
H2589 H 0.29419 0.33609 0.32845 0.0
C2590 C 0.94104 0.81226 0.4492 0.0
C2591 C 0.93417 0.80928 0.49327 0.0
C2592 C 0.94174 0.82948 0.42045 0.0
C2593 C 0.93668 0.87896 0.44003 0.0
H2594 H 0.93678 0.88177 0.26786 0.0
C2595 C 0.94233 0.9476 0.30626 0.0
C2596 C 0.9354 0.95099 0.26288 0.0
C2597 C 0.94281 0.93032 0.33493 0.0
C2598 C 0.9368 0.88118 0.31599 0.0
H2599 H 0.92271 0.82204 0.54218 0.0
H2600 H 0.92408 0.85216 0.49309 0.0
H2601 H 0.93645 0.85145 0.31698 0.0
H2602 H 0.92365 0.93887 0.21493 0.0
H2603 H 0.92466 0.9087 0.26362 0.0
H2604 H 0.93704 0.90871 0.43899 0.0
C2605 C 0.92888 0.84117 0.48046 0.0
C2606 C 0.93666 0.86384 0.34405 0.0
C2607 C 0.92807 0.82389 0.50832 0.0
C2608 C 0.92907 0.93671 0.24819 0.0
C2609 C 0.92967 0.91939 0.27587 0.0
C2610 C 0.937 0.8963 0.41196 0.0
C2611 C 0.93571 0.84417 0.43618 0.0
C2612 C 0.93646 0.86255 0.40638 0.0
C2613 C 0.93651 0.916 0.31969 0.0
C2614 C 0.93692 0.89761 0.34962 0.0
H2615 H 0.94591 0.80134 0.43713 0.0
H2616 H 0.9471 0.83141 0.38667 0.0
H2617 H 0.9366 0.87838 0.48815 0.0
H2618 H 0.94736 0.95827 0.3181 0.0
H2619 H 0.94819 0.92806 0.36839 0.0
C2620 C 0.31205 0.93445 0.00594 0.0
C2621 C 0.30583 0.94893 0.99133 0.0
C2622 C 0.31122 0.91712 0.9788 0.0
C2623 C 0.30346 0.8941 0.84402 0.0
H2624 H 0.30341 0.84944 0.94041 0.0
C2625 C 0.31198 0.82112 0.75198 0.0
C2626 C 0.30573 0.80672 0.76708 0.0
C2627 C 0.31116 0.83856 0.77853 0.0
C2628 C 0.30336 0.86179 0.91297 0.0
H2629 H 0.29384 0.95656 0.93684 0.0
H2630 H 0.29261 0.92632 0.88742 0.0
H2631 H 0.30349 0.87988 0.98859 0.0
H2632 H 0.29371 0.79933 0.82171 0.0
H2633 H 0.29251 0.82972 0.87 0.0
H2634 H 0.30366 0.876 0.76841 0.0
C2635 C 0.29807 0.92844 0.92041 0.0
C2636 C 0.30345 0.87918 0.94049 0.0
C2637 C 0.29879 0.94573 0.94855 0.0
C2638 C 0.29868 0.8101 0.80962 0.0
C2639 C 0.29798 0.82748 0.83713 0.0
C2640 C 0.30356 0.8767 0.8165 0.0
C2641 C 0.30425 0.91393 0.93561 0.0
C2642 C 0.30357 0.89552 0.90631 0.0
C2643 C 0.30419 0.84192 0.82157 0.0
C2644 C 0.30356 0.86036 0.8507 0.0
H2645 H 0.31755 0.93647 0.03876 0.0
H2646 H 0.31613 0.90625 0.99096 0.0
H2647 H 0.3036 0.90646 0.81662 0.0
H2648 H 0.31748 0.81896 0.71929 0.0
H2649 H 0.3161 0.84936 0.76609 0.0
C2650 C 0.94181 0.44681 0.79876 0.0
C2651 C 0.93482 0.45007 0.75565 0.0
C2652 C 0.94245 0.42953 0.82715 0.0
C2653 C 0.93683 0.38021 0.80868 0.0
H2654 H 0.93704 0.3777 0.98089 0.0
C2655 C 0.94196 0.31178 0.9448 0.0
C2656 C 0.93503 0.30876 0.98853 0.0
C2657 C 0.94252 0.32889 0.91516 0.0
C2658 C 0.93703 0.3782 0.93276 0.0
H2659 H 0.92312 0.43769 0.70788 0.0
H2660 H 0.9244 0.40745 0.75627 0.0
H2661 H 0.93705 0.40794 0.93122 0.0
H2662 H 0.92336 0.32135 0.03594 0.0
H2663 H 0.92453 0.35124 0.98557 0.0
H2664 H 0.93682 0.35044 0.8103 0.0
C2665 C 0.92933 0.41828 0.76844 0.0
C2666 C 0.93708 0.39549 0.90437 0.0
C2667 C 0.92857 0.43563 0.74097 0.0
C2668 C 0.92877 0.32322 0.0024 0.0
C2669 C 0.92946 0.34038 0.97377 0.0
C2670 C 0.93696 0.3629 0.83708 0.0
C2671 C 0.93625 0.41505 0.812 0.0
C2672 C 0.93684 0.39669 0.84204 0.0
C2673 C 0.93632 0.34342 0.9298 0.0
C2674 C 0.93691 0.36172 0.89944 0.0
H2675 H 0.94678 0.4576 0.81056 0.0
H2676 H 0.94787 0.4274 0.86038 0.0
H2677 H 0.93669 0.38071 0.76056 0.0
H2678 H 0.94694 0.30097 0.93363 0.0
H2679 H 0.94791 0.33088 0.88158 0.0
C2680 C 0.69319 0.69267 0.71821 0.0
C2681 C 0.68461 0.69957 0.74019 0.0
C2682 C 0.69361 0.67505 0.69199 0.0
C2683 C 0.67962 0.63098 0.67965 0.0
H2684 H 0.69726 0.62009 0.55268 0.0
C2685 C 0.67665 0.56689 0.5265 0.0
C2686 C 0.68485 0.55621 0.51901 0.0
C2687 C 0.67702 0.58392 0.55607 0.0
C2688 C 0.69235 0.62292 0.58848 0.0
H2689 H 0.66968 0.6939 0.74972 0.0
H2690 H 0.67026 0.66378 0.70168 0.0
H2691 H 0.69701 0.65102 0.59663 0.0
H2692 H 0.69987 0.5549 0.53664 0.0
H2693 H 0.70057 0.58508 0.58704 0.0
H2694 H 0.67472 0.60304 0.66935 0.0
C2695 C 0.67679 0.67142 0.70669 0.0
C2696 C 0.69222 0.64065 0.61396 0.0
C2697 C 0.67642 0.68882 0.7338 0.0
C2698 C 0.69344 0.56286 0.54187 0.0
C2699 C 0.69385 0.58013 0.5704 0.0
C2700 C 0.67964 0.61342 0.65341 0.0
C2701 C 0.68541 0.66406 0.68625 0.0
C2702 C 0.68579 0.64501 0.65973 0.0
C2703 C 0.68563 0.59081 0.57778 0.0
C2704 C 0.68597 0.60921 0.6074 0.0
H2705 H 0.69962 0.70066 0.72271 0.0
H2706 H 0.70041 0.66992 0.67755 0.0
H2707 H 0.67475 0.63347 0.71582 0.0
H2708 H 0.66993 0.56208 0.50944 0.0
H2709 H 0.67059 0.5919 0.56088 0.0
C2710 C 0.04823 0.06324 0.692 0.0
C2711 C 0.05537 0.05992 0.73409 0.0
C2712 C 0.04748 0.08059 0.66412 0.0
C2713 C 0.05334 0.12991 0.68297 0.0
H2714 H 0.0521 0.13286 0.51101 0.0
C2715 C 0.04854 0.19927 0.55217 0.0
C2716 C 0.05519 0.20204 0.50666 0.0
C2717 C 0.04777 0.18197 0.58045 0.0
C2718 C 0.0524 0.13225 0.5591 0.0
H2719 H 0.06722 0.07222 0.78051 0.0
H2720 H 0.06577 0.10254 0.73296 0.0
H2721 H 0.05219 0.1025 0.55989 0.0
H2722 H 0.06613 0.1888 0.45445 0.0
H2723 H 0.06463 0.15862 0.50258 0.0
H2724 H 0.05359 0.15966 0.68213 0.0
C2725 C 0.06079 0.09174 0.72124 0.0
C2726 C 0.05239 0.11488 0.58705 0.0
C2727 C 0.06165 0.07434 0.74823 0.0
C2728 C 0.06094 0.18712 0.48937 0.0
C2729 C 0.06005 0.16979 0.51673 0.0
C2730 C 0.05317 0.14729 0.65506 0.0
C2731 C 0.05372 0.09506 0.67873 0.0
C2732 C 0.05302 0.11351 0.64926 0.0
C2733 C 0.0535 0.16702 0.56279 0.0
C2734 C 0.05286 0.14864 0.59275 0.0
H2735 H 0.04323 0.05246 0.68062 0.0
H2736 H 0.04193 0.08278 0.63173 0.0
H2737 H 0.05376 0.12929 0.73102 0.0
H2738 H 0.04398 0.21049 0.56619 0.0
H2739 H 0.04264 0.18021 0.61569 0.0
C2740 C 0.69274 0.06127 0.05623 0.0
C2741 C 0.68517 0.05749 0.01777 0.0
C2742 C 0.69326 0.07825 0.08632 0.0
C2743 C 0.68472 0.12663 0.07938 0.0
H2744 H 0.69101 0.12798 0.24707 0.0
C2745 C 0.69012 0.19552 0.20834 0.0
C2746 C 0.68567 0.19665 0.26389 0.0
C2747 C 0.6906 0.17861 0.17787 0.0
C2748 C 0.68923 0.12783 0.20024 0.0
H2749 H 0.67221 0.06849 0.98063 0.0
H2750 H 0.67315 0.09809 0.03265 0.0
H2751 H 0.69074 0.09832 0.19474 0.0
H2752 H 0.67842 0.18085 0.33201 0.0
H2753 H 0.67929 0.15136 0.27932 0.0
H2754 H 0.6831 0.15611 0.08503 0.0
C2755 C 0.67871 0.08802 0.03944 0.0
C2756 C 0.68916 0.11085 0.17015 0.0
C2757 C 0.67815 0.07102 0.00988 0.0
C2758 C 0.68188 0.18045 0.28909 0.0
C2759 C 0.68242 0.16352 0.25902 0.0
C2760 C 0.68488 0.14362 0.10934 0.0
C2761 C 0.68628 0.09187 0.078 0.0
C2762 C 0.6868 0.11002 0.10949 0.0
C2763 C 0.68673 0.1624 0.20285 0.0
C2764 C 0.68704 0.14442 0.17029 0.0
H2765 H 0.69829 0.05115 0.06287 0.0
H2766 H 0.69922 0.08083 0.11536 0.0
H2767 H 0.68297 0.1265 0.03252 0.0
H2768 H 0.69332 0.20764 0.18872 0.0
H2769 H 0.69409 0.17818 0.13508 0.0
C2770 C 0.05164 0.69679 0.05062 0.0
C2771 C 0.05854 0.70048 0.00727 0.0
C2772 C 0.05139 0.6796 0.07967 0.0
C2773 C 0.05782 0.63079 0.06267 0.0
H2774 H 0.05785 0.62882 0.23499 0.0
C2775 C 0.05278 0.56302 0.2015 0.0
C2776 C 0.05971 0.56007 0.24525 0.0
C2777 C 0.05231 0.57997 0.17105 0.0
C2778 C 0.05781 0.62917 0.18685 0.0
H2779 H 0.07047 0.68898 0.95963 0.0
H2780 H 0.06986 0.65881 0.00917 0.0
H2781 H 0.05749 0.6589 0.18435 0.0
H2782 H 0.07149 0.57258 0.29184 0.0
H2783 H 0.07047 0.6023 0.23998 0.0
H2784 H 0.05808 0.60104 0.06524 0.0
C2785 C 0.06471 0.66926 0.02107 0.0
C2786 C 0.05755 0.64636 0.15793 0.0
C2787 C 0.06508 0.68656 0.99294 0.0
C2788 C 0.06609 0.57442 0.25826 0.0
C2789 C 0.06549 0.59146 0.22879 0.0
C2790 C 0.05789 0.61359 0.09161 0.0
C2791 C 0.05789 0.66562 0.06492 0.0
C2792 C 0.05767 0.64736 0.09555 0.0
C2793 C 0.0586 0.59443 0.18488 0.0
C2794 C 0.05801 0.61261 0.154 0.0
H2795 H 0.04644 0.70717 0.06211 0.0
H2796 H 0.04603 0.67712 0.11308 0.0
H2797 H 0.05787 0.63116 0.01453 0.0
H2798 H 0.0477 0.5523 0.19109 0.0
H2799 H 0.0469 0.58193 0.13761 0.0
C2800 C 0.81583 0.44447 0.98096 0.0
C2801 C 0.80759 0.45502 0.98858 0.0
C2802 C 0.81552 0.42741 0.95162 0.0
C2803 C 0.80055 0.38791 0.92039 0.0
H2804 H 0.81799 0.37807 0.79152 0.0
C2805 C 0.80025 0.31814 0.79013 0.0
C2806 C 0.80882 0.3118 0.76626 0.0
C2807 C 0.79972 0.3356 0.81736 0.0
C2808 C 0.81317 0.38035 0.82815 0.0
H2809 H 0.79255 0.45603 0.97147 0.0
H2810 H 0.79196 0.42574 0.92145 0.0
H2811 H 0.81773 0.40854 0.83765 0.0
H2812 H 0.82363 0.31821 0.75488 0.0
H2813 H 0.82288 0.34803 0.80481 0.0
H2814 H 0.79625 0.35955 0.91304 0.0
C2815 C 0.79867 0.43085 0.93781 0.0
C2816 C 0.81298 0.39795 0.85415 0.0
C2817 C 0.79901 0.44818 0.96609 0.0
C2818 C 0.81691 0.32286 0.77227 0.0
C2819 C 0.81643 0.3401 0.80042 0.0
C2820 C 0.80086 0.37014 0.89514 0.0
C2821 C 0.80693 0.42032 0.93026 0.0
C2822 C 0.8067 0.4019 0.9007 0.0
C2823 C 0.80779 0.34699 0.82226 0.0
C2824 C 0.80724 0.36603 0.84883 0.0
H2825 H 0.82254 0.44942 0.99771 0.0
H2826 H 0.82199 0.41956 0.94667 0.0
H2827 H 0.7957 0.39054 0.95662 0.0
H2828 H 0.79389 0.3099 0.78595 0.0
H2829 H 0.79291 0.34035 0.83294 0.0
C2830 C 0.4272 0.93978 0.74492 0.0
C2831 C 0.43358 0.95404 0.75901 0.0
C2832 C 0.4278 0.92254 0.77318 0.0
C2833 C 0.43514 0.9 0.90995 0.0
H2834 H 0.43531 0.85473 0.81696 0.0
C2835 C 0.42695 0.82744 0.00771 0.0
C2836 C 0.43346 0.81331 0.99486 0.0
C2837 C 0.42755 0.84464 0.9792 0.0
C2838 C 0.43531 0.86726 0.84343 0.0
H2839 H 0.44561 0.96139 0.81357 0.0
H2840 H 0.44641 0.9314 0.8649 0.0
H2841 H 0.43528 0.88488 0.76646 0.0
H2842 H 0.44573 0.80616 0.94217 0.0
H2843 H 0.44653 0.83606 0.89034 0.0
H2844 H 0.43487 0.88238 0.9869 0.0
C2845 C 0.441 0.93359 0.83153 0.0
C2846 C 0.43524 0.88448 0.8146 0.0
C2847 C 0.44053 0.95074 0.8023 0.0
C2848 C 0.44054 0.81669 0.95244 0.0
C2849 C 0.44102 0.8338 0.92294 0.0
C2850 C 0.43501 0.88278 0.93876 0.0
C2851 C 0.43467 0.91927 0.81695 0.0
C2852 C 0.43513 0.90102 0.84757 0.0
C2853 C 0.43457 0.84799 0.93639 0.0
C2854 C 0.43507 0.86624 0.90579 0.0
H2855 H 0.42177 0.94189 0.71169 0.0
H2856 H 0.42278 0.91181 0.76142 0.0
H2857 H 0.435 0.91253 0.93642 0.0
H2858 H 0.42142 0.82527 0.04026 0.0
H2859 H 0.42244 0.85527 0.99008 0.0
C2860 C 0.79869 0.81696 0.29316 0.0
C2861 C 0.80737 0.81105 0.26949 0.0
C2862 C 0.79801 0.83408 0.32249 0.0
C2863 C 0.81168 0.86818 0.40592 0.0
H2864 H 0.79413 0.90518 0.34768 0.0
C2865 C 0.81479 0.9439 0.48242 0.0
C2866 C 0.80663 0.95472 0.48847 0.0
C2867 C 0.81439 0.92636 0.45621 0.0
C2868 C 0.79896 0.89498 0.36544 0.0
H2869 H 0.82216 0.81805 0.25962 0.0
H2870 H 0.82103 0.84753 0.31257 0.0
H2871 H 0.79408 0.87409 0.30463 0.0
H2872 H 0.79162 0.95581 0.47104 0.0
H2873 H 0.79077 0.9248 0.42727 0.0
H2874 H 0.81643 0.88854 0.46775 0.0
C2875 C 0.81474 0.83911 0.30771 0.0
C2876 C 0.79894 0.87715 0.34049 0.0
C2877 C 0.81538 0.82227 0.27731 0.0
C2878 C 0.79803 0.94776 0.4668 0.0
C2879 C 0.79758 0.92999 0.44145 0.0
C2880 C 0.81159 0.88582 0.43161 0.0
C2881 C 0.80603 0.84533 0.32994 0.0
C2882 C 0.80542 0.86368 0.3598 0.0
C2883 C 0.80575 0.91891 0.43633 0.0
C2884 C 0.80537 0.89967 0.41101 0.0
H2885 H 0.7924 0.80859 0.28763 0.0
H2886 H 0.79122 0.83851 0.33949 0.0
H2887 H 0.81667 0.85799 0.42216 0.0
H2888 H 0.82155 0.949 0.49803 0.0
H2889 H 0.82091 0.9187 0.45151 0.0
C2890 C 0.44204 0.31784 0.46208 0.0
C2891 C 0.43357 0.3113 0.48716 0.0
C2892 C 0.44231 0.33503 0.43298 0.0
C2893 C 0.42788 0.36856 0.35249 0.0
H2894 H 0.44576 0.40568 0.40583 0.0
C2895 C 0.42524 0.44389 0.26882 0.0
C2896 C 0.43353 0.45431 0.26162 0.0
C2897 C 0.42547 0.42655 0.29665 0.0
C2898 C 0.44082 0.39545 0.38941 0.0
H2899 H 0.41873 0.31727 0.49984 0.0
H2900 H 0.41915 0.347 0.44724 0.0
H2901 H 0.44592 0.37482 0.45038 0.0
H2902 H 0.44857 0.45487 0.27831 0.0
H2903 H 0.44911 0.42424 0.32455 0.0
H2904 H 0.42294 0.38866 0.29019 0.0
C2905 C 0.42558 0.33897 0.45085 0.0
C2906 C 0.4409 0.37776 0.41529 0.0
C2907 C 0.42535 0.32199 0.48104 0.0
C2908 C 0.44206 0.44714 0.28347 0.0
C2909 C 0.44234 0.42958 0.31034 0.0
C2910 C 0.42791 0.38609 0.32577 0.0
C2911 C 0.43409 0.34578 0.42721 0.0
C2912 C 0.43436 0.36421 0.39757 0.0
C2913 C 0.43405 0.41893 0.31699 0.0
C2914 C 0.43429 0.39994 0.34432 0.0
H2915 H 0.44848 0.30988 0.46618 0.0
H2916 H 0.44895 0.33991 0.4148 0.0
H2917 H 0.42282 0.3583 0.33751 0.0
H2918 H 0.41854 0.44918 0.253 0.0
H2919 H 0.41888 0.41919 0.30231 0.0
C2920 C 0.1915 0.57004 0.03368 0.0
C2921 C 0.18295 0.56322 0.01098 0.0
C2922 C 0.19188 0.58749 0.06089 0.0
C2923 C 0.17795 0.63147 0.07511 0.0
H2924 H 0.19556 0.64159 0.20297 0.0
C2925 C 0.17524 0.69494 0.23104 0.0
C2926 C 0.1835 0.7054 0.23934 0.0
C2927 C 0.17553 0.67808 0.20056 0.0
C2928 C 0.19067 0.63898 0.16693 0.0
H2929 H 0.16803 0.56885 1.00107 0.0
H2930 H 0.16855 0.59875 0.05086 0.0
H2931 H 0.1952 0.61086 0.15775 0.0
H2932 H 0.19854 0.70651 0.22214 0.0
H2933 H 0.19909 0.6766 0.17009 0.0
H2934 H 0.17317 0.65944 0.08647 0.0
C2935 C 0.17508 0.59114 0.04571 0.0
C2936 C 0.19047 0.62137 0.14072 0.0
C2937 C 0.17474 0.57388 0.01761 0.0
C2938 C 0.19207 0.69872 0.2163 0.0
C2939 C 0.19239 0.68161 0.18683 0.0
C2940 C 0.17803 0.64893 0.10208 0.0
C2941 C 0.18368 0.5984 0.06694 0.0
C2942 C 0.18406 0.61729 0.09454 0.0
C2943 C 0.18411 0.67113 0.1787 0.0
C2944 C 0.18437 0.65285 0.14836 0.0
H2945 H 0.19795 0.56211 0.02899 0.0
H2946 H 0.19867 0.59257 0.07582 0.0
H2947 H 0.17309 0.62918 0.03872 0.0
H2948 H 0.16854 0.6998 0.24821 0.0
H2949 H 0.16906 0.67025 0.19519 0.0
C2950 C 0.5513 0.06576 0.22132 0.0
C2951 C 0.55981 0.05873 0.24408 0.0
C2952 C 0.55104 0.08321 0.1938 0.0
C2953 C 0.56532 0.12681 0.17824 0.0
H2954 H 0.54759 0.1373 0.05128 0.0
C2955 C 0.56802 0.19056 0.02221 0.0
C2956 C 0.55977 0.20104 0.01438 0.0
C2957 C 0.56776 0.17364 0.05263 0.0
C2958 C 0.55252 0.13459 0.08704 0.0
H2959 H 0.57477 0.064 0.25377 0.0
H2960 H 0.57446 0.09386 0.20342 0.0
H2961 H 0.54781 0.10658 0.0968 0.0
H2962 H 0.54476 0.20214 0.03242 0.0
H2963 H 0.54424 0.17218 0.08432 0.0
H2964 H 0.57026 0.15468 0.1663 0.0
C2965 C 0.56787 0.08644 0.20876 0.0
C2966 C 0.55264 0.11698 0.11345 0.0
C2967 C 0.56809 0.06919 0.2372 0.0
C2968 C 0.55123 0.19433 0.03787 0.0
C2969 C 0.55092 0.17718 0.06726 0.0
C2970 C 0.56531 0.14427 0.15104 0.0
C2971 C 0.55932 0.0939 0.18743 0.0
C2972 C 0.55907 0.11277 0.1594 0.0
C2973 C 0.55919 0.16667 0.07488 0.0
C2974 C 0.55893 0.14834 0.10511 0.0
H2975 H 0.5448 0.05801 0.2262 0.0
H2976 H 0.54429 0.08844 0.17886 0.0
H2977 H 0.57021 0.12444 0.21441 0.0
H2978 H 0.57471 0.19543 0.00469 0.0
H2979 H 0.57423 0.16579 0.05762 0.0
C2980 C 0.17622 0.07328 0.52419 0.0
C2981 C 0.18436 0.06241 0.51791 0.0
C2982 C 0.17666 0.09068 0.5513 0.0
C2983 C 0.19216 0.12125 0.64425 0.0
H2984 H 0.17488 0.15905 0.58778 0.0
C2985 C 0.19335 0.19904 0.71706 0.0
C2986 C 0.18472 0.20556 0.73969 0.0
C2987 C 0.19382 0.18183 0.68825 0.0
C2988 C 0.17974 0.14862 0.60399 0.0
H2989 H 0.19936 0.06104 0.53573 0.0
H2990 H 0.20027 0.09178 0.58099 0.0
H2991 H 0.17487 0.12862 0.54132 0.0
H2992 H 0.1698 0.19954 0.74852 0.0
H2993 H 0.17057 0.16983 0.69659 0.0
H2994 H 0.19717 0.14175 0.70587 0.0
C2995 C 0.19345 0.08676 0.56639 0.0
C2996 C 0.17969 0.13106 0.57777 0.0
C2997 C 0.19296 0.06915 0.54014 0.0
C2998 C 0.17655 0.19482 0.73166 0.0
C2999 C 0.17698 0.17786 0.70181 0.0
C3000 C 0.19232 0.13898 0.66973 0.0
C3001 C 0.18531 0.09789 0.57185 0.0
C3002 C 0.18577 0.11696 0.59816 0.0
C3003 C 0.18562 0.17108 0.68034 0.0
C3004 C 0.18601 0.15274 0.65045 0.0
H3005 H 0.16947 0.06833 0.5081 0.0
H3006 H 0.17017 0.09843 0.55616 0.0
H3007 H 0.19688 0.11081 0.66187 0.0
H3008 H 0.19975 0.20705 0.72274 0.0
H3009 H 0.20056 0.17695 0.67181 0.0
C3010 C 0.5497 0.56345 0.70909 0.0
C3011 C 0.5582 0.55693 0.73365 0.0
C3012 C 0.54942 0.58054 0.67925 0.0
C3013 C 0.5639 0.61364 0.59659 0.0
H3014 H 0.5466 0.65147 0.6519 0.0
C3015 C 0.5674 0.68906 0.51473 0.0
C3016 C 0.55923 0.69986 0.50827 0.0
C3017 C 0.56698 0.67165 0.54205 0.0
C3018 C 0.55137 0.64103 0.63492 0.0
H3019 H 0.5731 0.56276 0.74455 0.0
H3020 H 0.57267 0.59223 0.69079 0.0
H3021 H 0.54614 0.62055 0.69603 0.0
H3022 H 0.54422 0.70103 0.52578 0.0
H3023 H 0.54336 0.67033 0.57116 0.0
H3024 H 0.56898 0.63363 0.53432 0.0
C3025 C 0.56621 0.58431 0.69531 0.0
C3026 C 0.55111 0.62331 0.66052 0.0
C3027 C 0.56645 0.56748 0.7262 0.0
C3028 C 0.55064 0.69301 0.53037 0.0
C3029 C 0.55018 0.6754 0.55675 0.0
C3030 C 0.56404 0.63121 0.57018 0.0
C3031 C 0.55768 0.59115 0.67223 0.0
C3032 C 0.55746 0.60951 0.64215 0.0
C3033 C 0.55834 0.66436 0.56265 0.0
C3034 C 0.55788 0.64532 0.58949 0.0
H3035 H 0.54323 0.55558 0.71427 0.0
H3036 H 0.54277 0.58545 0.66157 0.0
H3037 H 0.56881 0.6032 0.58116 0.0
H3038 H 0.57414 0.69409 0.49865 0.0
H3039 H 0.57349 0.66396 0.54712 0.0
C3040 C 0.31143 0.19612 0.18421 0.0
C3041 C 0.30274 0.20393 0.20066 0.0
C3042 C 0.31192 0.17753 0.16625 0.0
C3043 C 0.29798 0.1337 0.17603 0.0
H3044 H 0.31538 0.11619 0.05556 0.0
C3045 C 0.2938 0.06406 0.05484 0.0
C3046 C 0.30181 0.05277 0.04937 0.0
C3047 C 0.29457 0.08196 0.07777 0.0
C3048 C 0.31057 0.12089 0.08981 0.0
H3049 H 0.28771 0.19899 0.20773 0.0
H3050 H 0.28846 0.16704 0.17405 0.0
H3051 H 0.31536 0.14899 0.08308 0.0
H3052 H 0.3169 0.05112 0.06416 0.0
H3053 H 0.31829 0.08284 0.10317 0.0
H3054 H 0.29296 0.10574 0.18086 0.0
C3055 C 0.29498 0.1748 0.17731 0.0
C3056 C 0.31056 0.13967 0.10567 0.0
C3057 C 0.29452 0.1932 0.19605 0.0
C3058 C 0.31062 0.05957 0.06814 0.0
C3059 C 0.31142 0.0777 0.09004 0.0
C3060 C 0.29792 0.11506 0.15957 0.0
C3061 C 0.30371 0.16651 0.16371 0.0
C3062 C 0.30415 0.14639 0.14841 0.0
C3063 C 0.3034 0.08907 0.09478 0.0
C3064 C 0.30413 0.1085 0.11583 0.0
H3065 H 0.31788 0.20412 0.18756 0.0
H3066 H 0.31877 0.17166 0.15638 0.0
H3067 H 0.29315 0.13816 0.21041 0.0
H3068 H 0.28693 0.05912 0.04079 0.0
H3069 H 0.28828 0.09046 0.08062 0.0
C3070 C 0.93427 0.2016 0.08684 0.0
C3071 C 0.93662 0.20385 0.02665 0.0
C3072 C 0.93343 0.18376 0.11141 0.0
C3073 C 0.93073 0.13399 0.0688 0.0
H3074 H 0.9423 0.12439 0.22178 0.0
C3075 C 0.94652 0.06885 0.21392 0.0
C3076 C 0.93937 0.05558 0.2066 0.0
C3077 C 0.9453 0.08699 0.1936 0.0
C3078 C 0.93907 0.1268 0.17884 0.0
H3079 H 0.93981 0.18932 0.94483 0.0
H3080 H 0.93847 0.15851 0.98726 0.0
H3081 H 0.94159 0.15603 0.18402 0.0
H3082 H 0.92537 0.05075 0.17112 0.0
H3083 H 0.92317 0.0826 0.13576 0.0
H3084 H 0.92856 0.10469 0.06249 0.0
C3085 C 0.93712 0.17032 0.01567 0.0
C3086 C 0.93854 0.14501 0.15757 0.0
C3087 C 0.93797 0.18804 0.99138 0.0
C3088 C 0.93101 0.06071 0.17728 0.0
C3089 C 0.92977 0.07894 0.15698 0.0
C3090 C 0.93127 0.11578 0.09003 0.0
C3091 C 0.93489 0.16788 0.07604 0.0
C3092 C 0.93452 0.14881 0.10173 0.0
C3093 C 0.93687 0.09237 0.1655 0.0
C3094 C 0.93561 0.11189 0.14483 0.0
H3095 H 0.93321 0.21357 0.115 0.0
H3096 H 0.93164 0.1824 0.158 0.0
H3097 H 0.92745 0.13641 0.02602 0.0
H3098 H 0.95308 0.06526 0.23588 0.0
H3099 H 0.95102 0.09677 0.19966 0.0
C3100 C 0.68352 0.94844 0.92217 0.0
C3101 C 0.69063 0.95352 0.96254 0.0
C3102 C 0.68306 0.93022 0.90028 0.0
C3103 C 0.68095 0.88794 0.88551 0.0
H3104 H 0.70477 0.86301 0.85794 0.0
C3105 C 0.68371 0.8089 0.83168 0.0
C3106 C 0.69078 0.80367 0.79128 0.0
C3107 C 0.6832 0.82726 0.85222 0.0
C3108 C 0.69803 0.86974 0.86467 0.0
H3109 H 0.70272 0.94352 0.01218 0.0
H3110 H 0.70177 0.91205 0.97595 0.0
H3111 H 0.70475 0.89497 0.88979 0.0
H3112 H 0.70272 0.81356 0.73987 0.0
H3113 H 0.70166 0.84529 0.77368 0.0
H3114 H 0.67427 0.86266 0.85796 0.0
C3115 C 0.69669 0.92201 0.95957 0.0
C3116 C 0.69802 0.88809 0.88391 0.0
C3117 C 0.69719 0.94011 0.98078 0.0
C3118 C 0.69723 0.81708 0.77143 0.0
C3119 C 0.69666 0.83533 0.79122 0.0
C3120 C 0.68096 0.8695 0.86557 0.0
C3121 C 0.68968 0.91679 0.91862 0.0
C3122 C 0.6895 0.89744 0.89517 0.0
C3123 C 0.68972 0.8407 0.83239 0.0
C3124 C 0.68952 0.86017 0.85486 0.0
H3125 H 0.67836 0.95851 0.90743 0.0
H3126 H 0.67761 0.92674 0.86842 0.0
H3127 H 0.67425 0.89463 0.89419 0.0
H3128 H 0.67863 0.79882 0.84762 0.0
H3129 H 0.6778 0.83083 0.88431 0.0
C3130 C 0.04415 0.94155 0.76976 0.0
C3131 C 0.05074 0.95494 0.78788 0.0
C3132 C 0.04463 0.92343 0.79104 0.0
C3133 C 0.04328 0.8893 0.86618 0.0
H3134 H 0.06702 0.86385 0.89171 0.0
C3135 C 0.04408 0.81751 0.97539 0.0
C3136 C 0.05065 0.80434 0.95563 0.0
C3137 C 0.04457 0.83587 0.95626 0.0
C3138 C 0.06032 0.87069 0.88422 0.0
H3139 H 0.06302 0.95985 0.843 0.0
H3140 H 0.06372 0.92803 0.88206 0.0
H3141 H 0.06704 0.89594 0.85645 0.0
H3142 H 0.06292 0.80009 0.89989 0.0
H3143 H 0.06362 0.83225 0.86439 0.0
H3144 H 0.03651 0.86408 0.89123 0.0
C3145 C 0.05827 0.93155 0.85024 0.0
C3146 C 0.06034 0.88921 0.86484 0.0
C3147 C 0.05784 0.9498 0.82829 0.0
C3148 C 0.05775 0.80995 0.91579 0.0
C3149 C 0.05819 0.82841 0.89595 0.0
C3150 C 0.04326 0.87085 0.88487 0.0
C3151 C 0.05163 0.91814 0.83196 0.0
C3152 C 0.0518 0.89872 0.85524 0.0
C3153 C 0.05157 0.84162 0.91588 0.0
C3154 C 0.05176 0.86125 0.89442 0.0
H3155 H 0.03862 0.94498 0.73836 0.0
H3156 H 0.03952 0.9135 0.77467 0.0
H3157 H 0.03655 0.89617 0.86037 0.0
H3158 H 0.03857 0.8137 0.00651 0.0
H3159 H 0.03949 0.84562 0.97385 0.0
C3160 C 0.30804 0.69676 0.67697 0.0
C3161 C 0.30108 0.70181 0.71836 0.0
C3162 C 0.30847 0.6785 0.65535 0.0
C3163 C 0.29354 0.63609 0.64269 0.0
H3164 H 0.31723 0.61099 0.61219 0.0
C3165 C 0.29402 0.56455 0.53285 0.0
C3166 C 0.30076 0.55146 0.55098 0.0
C3167 C 0.29455 0.58287 0.55214 0.0
C3168 C 0.31055 0.61774 0.62112 0.0
H3169 H 0.28924 0.69169 0.77032 0.0
H3170 H 0.29017 0.66017 0.7347 0.0
H3171 H 0.31733 0.64304 0.64754 0.0
H3172 H 0.31334 0.54726 0.60399 0.0
H3173 H 0.31408 0.57933 0.63994 0.0
H3174 H 0.28674 0.61081 0.61907 0.0
C3175 C 0.29514 0.67019 0.71718 0.0
C3176 C 0.31061 0.63622 0.64053 0.0
C3177 C 0.29465 0.68831 0.73806 0.0
C3178 C 0.30803 0.55708 0.58942 0.0
C3179 C 0.3085 0.57548 0.60948 0.0
C3180 C 0.29349 0.61767 0.62403 0.0
C3181 C 0.30197 0.665 0.67504 0.0
C3182 C 0.30209 0.64561 0.65186 0.0
C3183 C 0.30174 0.58863 0.5911 0.0
C3184 C 0.30197 0.60821 0.61267 0.0
H3185 H 0.31308 0.70691 0.66109 0.0
H3186 H 0.31378 0.67506 0.62259 0.0
H3187 H 0.28683 0.64287 0.64984 0.0
H3188 H 0.28837 0.56073 0.50281 0.0
H3189 H 0.28933 0.59258 0.53574 0.0
C3190 C 0.93451 0.70128 0.58837 0.0
C3191 C 0.9376 0.70405 0.52969 0.0
C3192 C 0.93376 0.68324 0.61168 0.0
C3193 C 0.93227 0.63369 0.56517 0.0
H3194 H 0.94235 0.62334 0.72181 0.0
C3195 C 0.94722 0.56783 0.71038 0.0
C3196 C 0.94022 0.55444 0.69978 0.0
C3197 C 0.94602 0.58613 0.69139 0.0
C3198 C 0.93953 0.62597 0.67787 0.0
H3199 H 0.94218 0.69017 0.44928 0.0
H3200 H 0.94091 0.65907 0.4895 0.0
H3201 H 0.94166 0.65528 0.68619 0.0
H3202 H 0.92653 0.54963 0.65987 0.0
H3203 H 0.92439 0.5817 0.62647 0.0
H3204 H 0.93043 0.60437 0.55595 0.0
C3205 C 0.93896 0.67062 0.51764 0.0
C3206 C 0.93902 0.64434 0.65776 0.0
C3207 C 0.93976 0.68852 0.49468 0.0
C3208 C 0.93205 0.55965 0.66859 0.0
C3209 C 0.93084 0.57802 0.64942 0.0
C3210 C 0.93276 0.61535 0.5853 0.0
C3211 C 0.93598 0.66768 0.57646 0.0
C3212 C 0.93556 0.64841 0.60066 0.0
C3213 C 0.93778 0.59155 0.66116 0.0
C3214 C 0.93656 0.6112 0.64148 0.0
H3215 H 0.93274 0.71299 0.61619 0.0
H3216 H 0.93138 0.68146 0.65708 0.0
H3217 H 0.92943 0.63632 0.52125 0.0
H3218 H 0.95363 0.56423 0.73399 0.0
H3219 H 0.9516 0.59602 0.70008 0.0
C3220 C 0.68237 0.44542 0.43888 0.0
C3221 C 0.69107 0.45316 0.45576 0.0
C3222 C 0.6819 0.42701 0.41907 0.0
C3223 C 0.69608 0.38978 0.3531 0.0
H3224 H 0.67908 0.35576 0.43296 0.0
C3225 C 0.70014 0.31143 0.32108 0.0
C3226 C 0.69198 0.3005 0.31719 0.0
C3227 C 0.6996 0.32988 0.33942 0.0
C3228 C 0.68378 0.36508 0.40948 0.0
H3229 H 0.7061 0.44813 0.46296 0.0
H3230 H 0.70531 0.41629 0.42685 0.0
H3231 H 0.67861 0.38879 0.45705 0.0
H3232 H 0.67686 0.30004 0.33142 0.0
H3233 H 0.67583 0.3325 0.36189 0.0
H3234 H 0.70117 0.36643 0.30468 0.0
C3235 C 0.69886 0.42428 0.42952 0.0
C3236 C 0.6835 0.38401 0.42337 0.0
C3237 C 0.6993 0.44247 0.45034 0.0
C3238 C 0.68328 0.30816 0.33426 0.0
C3239 C 0.68271 0.32677 0.35181 0.0
C3240 C 0.69628 0.37097 0.33862 0.0
C3241 C 0.69014 0.41623 0.41457 0.0
C3242 C 0.68976 0.39649 0.39599 0.0
C3243 C 0.69085 0.33802 0.35334 0.0
C3244 C 0.69026 0.35825 0.36737 0.0
H3245 H 0.67592 0.45338 0.44289 0.0
H3246 H 0.6751 0.42117 0.40746 0.0
H3247 H 0.70091 0.39913 0.33075 0.0
H3248 H 0.70695 0.3058 0.30874 0.0
H3249 H 0.70608 0.33783 0.34185 0.0
C3250 C 0.05982 0.31084 0.41931 0.0
C3251 C 0.05369 0.30745 0.4672 0.0
C3252 C 0.06104 0.32891 0.39749 0.0
C3253 C 0.05976 0.37775 0.43907 0.0
H3254 H 0.05386 0.38754 0.27391 0.0
C3255 C 0.05497 0.45265 0.34896 0.0
C3256 C 0.05673 0.45599 0.28858 0.0
C3257 C 0.05557 0.43458 0.3719 0.0
C3258 C 0.05577 0.38515 0.31985 0.0
H3259 H 0.04419 0.32031 0.53053 0.0
H3260 H 0.04656 0.35179 0.49368 0.0
H3261 H 0.05353 0.35587 0.31089 0.0
H3262 H 0.061 0.44351 0.20548 0.0
H3263 H 0.06269 0.41243 0.24565 0.0
H3264 H 0.06224 0.40684 0.44824 0.0
C3265 C 0.05034 0.34051 0.47265 0.0
C3266 C 0.05552 0.36691 0.341 0.0
C3267 C 0.04895 0.32246 0.49347 0.0
C3268 C 0.05953 0.44123 0.25219 0.0
C3269 C 0.06038 0.42333 0.27525 0.0
C3270 C 0.06022 0.39597 0.41768 0.0
C3271 C 0.05634 0.34392 0.42425 0.0
C3272 C 0.05739 0.36306 0.40094 0.0
C3273 C 0.05815 0.41957 0.33507 0.0
C3274 C 0.05813 0.40001 0.3578 0.0
H3275 H 0.06358 0.29953 0.39839 0.0
H3276 H 0.06571 0.33121 0.36007 0.0
H3277 H 0.06128 0.3751 0.48552 0.0
H3278 H 0.05266 0.46379 0.37766 0.0
H3279 H 0.05366 0.43237 0.41794 0.0
C3280 C 0.80913 0.06303 0.58559 0.0
C3281 C 0.80271 0.05942 0.53943 0.0
C3282 C 0.81031 0.08113 0.60713 0.0
C3283 C 0.80843 0.12988 0.56577 0.0
H3284 H 0.80353 0.13958 0.73218 0.0
C3285 C 0.80411 0.2048 0.65683 0.0
C3286 C 0.8061 0.20805 0.71695 0.0
C3287 C 0.80465 0.18676 0.63366 0.0
C3288 C 0.80517 0.13723 0.68583 0.0
H3289 H 0.79262 0.07194 0.47898 0.0
H3290 H 0.79492 0.10349 0.51526 0.0
H3291 H 0.80307 0.10792 0.69554 0.0
H3292 H 0.81077 0.19548 0.79917 0.0
H3293 H 0.81238 0.1645 0.75846 0.0
H3294 H 0.81078 0.159 0.5558 0.0
C3295 C 0.79895 0.09235 0.53518 0.0
C3296 C 0.80483 0.11899 0.66488 0.0
C3297 C 0.79761 0.07426 0.5147 0.0
C3298 C 0.80911 0.19327 0.75268 0.0
C3299 C 0.80991 0.17541 0.72934 0.0
C3300 C 0.80898 0.14811 0.58692 0.0
C3301 C 0.80527 0.09597 0.58176 0.0
C3302 C 0.80635 0.11516 0.60457 0.0
C3303 C 0.8074 0.17169 0.66995 0.0
C3304 C 0.80726 0.15213 0.64726 0.0
H3305 H 0.81318 0.05188 0.60527 0.0
H3306 H 0.81523 0.08359 0.64314 0.0
H3307 H 0.80967 0.12725 0.51901 0.0
H3308 H 0.80164 0.21597 0.62864 0.0
H3309 H 0.80253 0.1846 0.58797 0.0
C3310 C 0.4351 0.20472 0.58873 0.0
C3311 C 0.43877 0.20742 0.53138 0.0
C3312 C 0.43411 0.18671 0.61191 0.0
C3313 C 0.4329 0.13722 0.56553 0.0
H3314 H 0.44167 0.12684 0.72526 0.0
C3315 C 0.44662 0.07135 0.71448 0.0
C3316 C 0.43961 0.05805 0.7028 0.0
C3317 C 0.44557 0.08963 0.69513 0.0
C3318 C 0.4392 0.1295 0.68048 0.0
H3319 H 0.44416 0.19345 0.45314 0.0
H3320 H 0.44247 0.16238 0.49316 0.0
H3321 H 0.44139 0.15877 0.68926 0.0
H3322 H 0.42609 0.05339 0.66053 0.0
H3323 H 0.42424 0.08547 0.62624 0.0
H3324 H 0.431 0.10791 0.55603 0.0
C3325 C 0.44026 0.17398 0.52031 0.0
C3326 C 0.43893 0.14784 0.66012 0.0
C3327 C 0.4413 0.19185 0.49752 0.0
C3328 C 0.4316 0.06335 0.67012 0.0
C3329 C 0.43056 0.08171 0.65048 0.0
C3330 C 0.43313 0.11889 0.58595 0.0
C3331 C 0.43667 0.17112 0.5778 0.0
C3332 C 0.43596 0.1519 0.60195 0.0
C3333 C 0.4375 0.09513 0.66336 0.0
C3334 C 0.43647 0.11475 0.64329 0.0
H3335 H 0.43302 0.21645 0.61555 0.0
H3336 H 0.43127 0.18499 0.65626 0.0
H3337 H 0.43044 0.13988 0.52071 0.0
H3338 H 0.45291 0.06767 0.73923 0.0
H3339 H 0.45115 0.09946 0.70473 0.0
C3340 C 0.1815 0.95139 0.44107 0.0
C3341 C 0.19022 0.95893 0.45828 0.0
C3342 C 0.18089 0.93285 0.42271 0.0
C3343 C 0.19449 0.88859 0.43217 0.0
H3344 H 0.17705 0.87183 0.31072 0.0
C3345 C 0.19804 0.81869 0.31115 0.0
C3346 C 0.18989 0.80779 0.3051 0.0
C3347 C 0.19747 0.83664 0.33392 0.0
C3348 C 0.18188 0.87631 0.34521 0.0
H3349 H 0.20519 0.95353 0.46637 0.0
H3350 H 0.20425 0.92168 0.43199 0.0
H3351 H 0.17733 0.90456 0.33887 0.0
H3352 H 0.17476 0.80691 0.3187 0.0
H3353 H 0.17372 0.8387 0.35746 0.0
H3354 H 0.19927 0.86046 0.43668 0.0
C3355 C 0.19778 0.92961 0.43495 0.0
C3356 C 0.18204 0.89506 0.36145 0.0
C3357 C 0.19835 0.94796 0.4541 0.0
C3358 C 0.18115 0.81505 0.32312 0.0
C3359 C 0.18055 0.83322 0.34487 0.0
C3360 C 0.19441 0.86997 0.41532 0.0
C3361 C 0.18902 0.9216 0.4205 0.0
C3362 C 0.18845 0.90151 0.40462 0.0
C3363 C 0.18871 0.8442 0.3502 0.0
C3364 C 0.18819 0.86367 0.37126 0.0
H3365 H 0.17511 0.95958 0.44407 0.0
H3366 H 0.17401 0.9272 0.41222 0.0
H3367 H 0.19932 0.89282 0.46686 0.0
H3368 H 0.20487 0.81339 0.2977 0.0
H3369 H 0.20386 0.84483 0.33724 0.0
C3370 C 0.56 0.81049 0.42542 0.0
C3371 C 0.55131 0.80266 0.44232 0.0
C3372 C 0.56047 0.82901 0.40643 0.0
C3373 C 0.54622 0.86675 0.34306 0.0
H3374 H 0.56379 0.90002 0.42097 0.0
C3375 C 0.54276 0.94548 0.31338 0.0
C3376 C 0.55098 0.95625 0.30969 0.0
C3377 C 0.54321 0.92687 0.33038 0.0
C3378 C 0.55894 0.89093 0.398 0.0
H3379 H 0.5363 0.80775 0.4506 0.0
H3380 H 0.53708 0.8398 0.41596 0.0
H3381 H 0.56407 0.86694 0.44449 0.0
H3382 H 0.56613 0.95618 0.32247 0.0
H3383 H 0.567 0.92345 0.35054 0.0
H3384 H 0.54117 0.89038 0.29563 0.0
C3385 C 0.54353 0.83176 0.4179 0.0
C3386 C 0.5591 0.87195 0.41161 0.0
C3387 C 0.54309 0.81343 0.43785 0.0
C3388 C 0.55967 0.94819 0.32518 0.0
C3389 C 0.56015 0.92942 0.34141 0.0
C3390 C 0.54614 0.88562 0.32884 0.0
C3391 C 0.55224 0.83986 0.40282 0.0
C3392 C 0.55264 0.85971 0.38492 0.0
C3393 C 0.55193 0.91839 0.34319 0.0
C3394 C 0.55238 0.89808 0.35683 0.0
H3395 H 0.56645 0.80251 0.42867 0.0
H3396 H 0.56726 0.83486 0.3947 0.0
H3397 H 0.54125 0.85761 0.32118 0.0
H3398 H 0.53595 0.95139 0.30226 0.0
H3399 H 0.53668 0.9191 0.33298 0.0
C3400 C 0.81012 0.69248 0.25786 0.0
C3401 C 0.80716 0.70735 0.22234 0.0
C3402 C 0.8109 0.67468 0.23416 0.0
C3403 C 0.81001 0.64765 0.0913 0.0
H3404 H 0.80378 0.60741 0.19901 0.0
C3405 C 0.79838 0.57406 0.01797 0.0
C3406 C 0.80348 0.55916 0.0424 0.0
C3407 C 0.79975 0.5921 0.03871 0.0
C3408 C 0.80563 0.6185 0.16862 0.0
H3409 H 0.80284 0.71552 0.13396 0.0
H3410 H 0.80368 0.68422 0.09269 0.0
H3411 H 0.80433 0.63901 0.23616 0.0
H3412 H 0.81396 0.55147 0.10796 0.0
H3413 H 0.81605 0.5831 0.14633 0.0
H3414 H 0.81068 0.62688 0.02311 0.0
C3415 C 0.80575 0.68627 0.13851 0.0
C3416 C 0.80602 0.63669 0.18985 0.0
C3417 C 0.80523 0.70426 0.16203 0.0
C3418 C 0.80991 0.56266 0.08854 0.0
C3419 C 0.81112 0.58072 0.11035 0.0
C3420 C 0.8094 0.62947 0.06985 0.0
C3421 C 0.80843 0.67111 0.17462 0.0
C3422 C 0.80823 0.6516 0.15162 0.0
C3423 C 0.80609 0.59561 0.08526 0.0
C3424 C 0.80721 0.61474 0.10835 0.0
H3425 H 0.81173 0.69458 0.30448 0.0
H3426 H 0.81332 0.66368 0.26313 0.0
H3427 H 0.8119 0.65856 0.06045 0.0
H3428 H 0.79338 0.57182 0.98226 0.0
H3429 H 0.79573 0.6033 0.01903 0.0
C3430 C 0.44861 0.56862 0.1981 0.0
C3431 C 0.44044 0.55772 0.20217 0.0
C3432 C 0.44808 0.58714 0.18035 0.0
C3433 C 0.43231 0.6225 0.11075 0.0
H3434 H 0.44981 0.6563 0.18711 0.0
C3435 C 0.43153 0.7028 0.07791 0.0
C3436 C 0.44028 0.71026 0.06051 0.0
C3437 C 0.43094 0.68445 0.09835 0.0
C3438 C 0.44488 0.64702 0.16541 0.0
H3439 H 0.4253 0.5574 0.18918 0.0
H3440 H 0.42427 0.59003 0.15973 0.0
H3441 H 0.44984 0.62368 0.21464 0.0
H3442 H 0.45525 0.70475 0.05281 0.0
H3443 H 0.45425 0.67301 0.09003 0.0
H3444 H 0.42728 0.6462 0.06232 0.0
C3445 C 0.43115 0.58422 0.16924 0.0
C3446 C 0.44494 0.62826 0.18076 0.0
C3447 C 0.43172 0.56552 0.18622 0.0
C3448 C 0.44843 0.69933 0.06591 0.0
C3449 C 0.44786 0.68119 0.08733 0.0
C3450 C 0.43217 0.64139 0.09599 0.0
C3451 C 0.43932 0.59539 0.16718 0.0
C3452 C 0.43879 0.61561 0.15281 0.0
C3453 C 0.4391 0.67344 0.10295 0.0
C3454 C 0.43857 0.65377 0.12244 0.0
H3455 H 0.45545 0.56287 0.20942 0.0
H3456 H 0.45457 0.59502 0.17748 0.0
H3457 H 0.42752 0.61324 0.08788 0.0
H3458 H 0.42514 0.71092 0.07395 0.0
H3459 H 0.4241 0.67885 0.11045 0.0
C3460 C 0.19854 0.31926 0.81114 0.0
C3461 C 0.19035 0.30848 0.80487 0.0
C3462 C 0.19802 0.3373 0.83318 0.0
C3463 C 0.18255 0.37727 0.84112 0.0
H3464 H 0.20012 0.39453 0.96101 0.0
C3465 C 0.18242 0.45309 0.93029 0.0
C3466 C 0.19116 0.46076 0.94672 0.0
C3467 C 0.18178 0.4344 0.91367 0.0
C3468 C 0.19525 0.39007 0.9268 0.0
H3469 H 0.17519 0.30792 0.81753 0.0
H3470 H 0.17424 0.33988 0.85506 0.0
H3471 H 0.1999 0.36191 0.93371 0.0
H3472 H 0.20611 0.45532 0.95547 0.0
H3473 H 0.20511 0.42313 0.92413 0.0
H3474 H 0.17813 0.40552 0.83237 0.0
C3475 C 0.18107 0.33423 0.84319 0.0
C3476 C 0.19508 0.37131 0.91161 0.0
C3477 C 0.18161 0.31595 0.82216 0.0
C3478 C 0.19927 0.44969 0.94363 0.0
C3479 C 0.19867 0.43116 0.92626 0.0
C3480 C 0.1828 0.39615 0.85573 0.0
C3481 C 0.18927 0.3451 0.84853 0.0
C3482 C 0.18881 0.36473 0.86818 0.0
C3483 C 0.18989 0.42307 0.91247 0.0
C3484 C 0.18925 0.40286 0.89824 0.0
H3485 H 0.20536 0.3138 0.79826 0.0
H3486 H 0.20444 0.34538 0.83647 0.0
H3487 H 0.1777 0.37259 0.80706 0.0
H3488 H 0.17604 0.46132 0.93252 0.0
H3489 H 0.17489 0.42871 0.90373 0.0
C3490 C 0.54544 0.31668 0.95532 0.0
C3491 C 0.55272 0.3037 0.9478 0.0
C3492 C 0.54655 0.33498 0.93603 0.0
C3493 C 0.55257 0.37511 0.9237 0.0
H3494 H 0.56448 0.38572 0.77239 0.0
C3495 C 0.55758 0.45047 0.83581 0.0
C3496 C 0.55528 0.45298 0.77563 0.0
C3497 C 0.55834 0.43251 0.85965 0.0
C3498 C 0.56112 0.38301 0.81478 0.0
H3499 H 0.56682 0.29956 0.91308 0.0
H3500 H 0.56882 0.33162 0.87951 0.0
H3501 H 0.56339 0.35379 0.80697 0.0
H3502 H 0.55209 0.43879 0.69314 0.0
H3503 H 0.55334 0.40782 0.73429 0.0
H3504 H 0.54998 0.40429 0.93033 0.0
C3505 C 0.56221 0.32764 0.90005 0.0
C3506 C 0.56058 0.36468 0.83491 0.0
C3507 C 0.56108 0.30927 0.91932 0.0
C3508 C 0.5539 0.43731 0.73969 0.0
C3509 C 0.55469 0.4195 0.76324 0.0
C3510 C 0.5531 0.39345 0.90352 0.0
C3511 C 0.55499 0.34079 0.90877 0.0
C3512 C 0.55615 0.36044 0.88916 0.0
C3513 C 0.55688 0.4168 0.82354 0.0
C3514 C 0.55723 0.3976 0.84825 0.0
H3515 H 0.53889 0.31277 0.97678 0.0
H3516 H 0.54076 0.34456 0.94228 0.0
H3517 H 0.54926 0.37241 0.96623 0.0
H3518 H 0.55865 0.46232 0.86447 0.0
H3519 H 0.56009 0.43093 0.90625 0.0
loop_
_geom_bond_atom_site_label_1
_geom_bond_atom_site_label_2
_geom_bond_distance
_geom_bond_site_symmetry_2
_ccdc_geom_bond_type
Dy0 O4 2.398 . S
Dy0 O5 2.491 . S
Dy0 O6 2.403 . S
Dy0 O7 2.664 . S
Dy0 O11 2.326 . S
Dy0 O15 2.310 . S
Dy0 O16 2.351 . S
C1 O12 1.185 . S
C1 O13 1.355 . S
C2 O4 1.185 . S
C2 O5 1.355 . S
Dy3 O7 2.310 . S
Dy3 O10 2.351 . S
Dy3 O12 2.398 . S
Dy3 O13 2.491 . S
Dy3 O14 2.403 . S
Dy3 O15 2.664 . S
Dy3 O17 2.326 . S
O4 Dy0 2.398 . S
O4 C2 1.185 . S
O5 Dy0 2.491 . S
O5 C2 1.355 . S
O6 Dy0 2.403 . S
O6 C8 1.254 . S
O7 Dy0 2.664 . S
O7 Dy3 2.310 . S
O7 C8 1.268 . S
C8 O6 1.254 . S
C8 O7 1.268 . S
C9 O14 1.254 . S
C9 O15 1.268 . S
O10 Dy3 2.351 . S
O10 C18 1.249 . S
O11 Dy0 2.326 . S
O11 C18 1.267 . S
O12 C1 1.185 . S
O12 Dy3 2.398 . S
O13 C1 1.355 . S
O13 Dy3 2.491 . S
O14 Dy3 2.403 . S
O14 C9 1.254 . S
O15 Dy0 2.310 . S
O15 Dy3 2.664 . S
O15 C9 1.268 . S
O16 Dy0 2.351 . S
O16 C19 1.249 . S
O17 Dy3 2.326 . S
O17 C19 1.267 . S
C18 O10 1.249 . S
C18 O11 1.267 . S
C19 O16 1.249 . S
C19 O17 1.267 . S
Dy20 O24 2.398 . S
Dy20 O25 2.491 1_565 S
Dy20 O26 2.403 . S
Dy20 O27 2.664 . S
Dy20 O31 2.326 . S
Dy20 O35 2.310 1_565 S
Dy20 O36 2.351 . S
C21 O32 1.185 . S
C21 O33 1.355 1_545 S
C22 O24 1.185 . S
C22 O25 1.355 1_565 S
Dy23 O27 2.310 1_545 S
Dy23 O30 2.351 . S
Dy23 O32 2.398 . S
Dy23 O33 2.491 1_545 S
Dy23 O34 2.403 . S
Dy23 O35 2.664 . S
Dy23 O37 2.326 . S
O24 Dy20 2.398 . S
O24 C22 1.185 . S
O25 Dy20 2.491 1_545 S
O25 C22 1.355 1_545 S
O26 Dy20 2.403 . S
O26 C28 1.254 . S
O27 Dy20 2.664 . S
O27 Dy23 2.310 1_565 S
O27 C28 1.268 . S
C28 O26 1.254 . S
C28 O27 1.268 . S
C29 O34 1.254 . S
C29 O35 1.268 . S
O30 Dy23 2.351 . S
O30 C38 1.249 1_545 S
O31 Dy20 2.326 . S
O31 C38 1.267 . S
O32 C21 1.185 . S
O32 Dy23 2.398 . S
O33 C21 1.355 1_565 S
O33 Dy23 2.491 1_565 S
O34 Dy23 2.403 . S
O34 C29 1.254 . S
O35 Dy20 2.310 1_545 S
O35 Dy23 2.664 . S
O35 C29 1.268 . S
O36 Dy20 2.351 . S
O36 C39 1.249 1_565 S
O37 Dy23 2.326 . S
O37 C39 1.267 . S
C38 O30 1.249 1_565 S
C38 O31 1.267 . S
C39 O36 1.249 1_545 S
C39 O37 1.267 . S
Dy40 O44 2.398 . S
Dy40 O45 2.491 1_565 S
Dy40 O46 2.403 . S
Dy40 O47 2.667 . S
Dy40 O51 2.326 . S
Dy40 O55 2.310 1_565 S
Dy40 O56 2.351 . S
C41 O52 1.185 . S
C41 O53 1.355 1_545 S
C42 O44 1.185 . S
C42 O45 1.355 1_565 S
Dy43 O47 2.308 1_546 S
Dy43 O50 2.351 1_556 S
Dy43 O52 2.398 . S
Dy43 O53 2.491 1_545 S
Dy43 O54 2.403 . S
Dy43 O55 2.664 1_556 S
Dy43 O57 2.326 . S
O44 Dy40 2.398 . S
O44 C42 1.185 . S
O45 Dy40 2.491 1_545 S
O45 C42 1.355 1_545 S
O46 Dy40 2.403 . S
O46 C48 1.254 . S
O47 Dy40 2.667 . S
O47 Dy43 2.308 1_564 S
O47 C48 1.269 . S
C48 O46 1.254 . S
C48 O47 1.269 . S
C49 O54 1.254 1_554 S
C49 O55 1.268 . S
O50 Dy43 2.351 1_554 S
O50 C58 1.249 1_545 S
O51 Dy40 2.326 . S
O51 C58 1.267 . S
O52 C41 1.185 . S
O52 Dy43 2.398 . S
O53 C41 1.355 1_565 S
O53 Dy43 2.491 1_565 S
O54 Dy43 2.403 . S
O54 C49 1.254 1_556 S
O55 Dy40 2.310 1_545 S
O55 Dy43 2.664 1_554 S
O55 C49 1.268 . S
O56 Dy40 2.351 . S
O56 C59 1.249 1_564 S
O57 Dy43 2.326 . S
O57 C59 1.267 . S
C58 O50 1.249 1_565 S
C58 O51 1.267 . S
C59 O56 1.249 1_546 S
C59 O57 1.267 . S
Dy60 O64 2.398 . S
Dy60 O65 2.491 . S
Dy60 O66 2.403 . S
Dy60 O67 2.666 1_554 S
Dy60 O71 2.326 . S
Dy60 O75 2.310 . S
Dy60 O76 2.351 . S
C61 O72 1.185 . S
C61 O73 1.355 . S
C62 O64 1.185 . S
C62 O65 1.355 . S
Dy63 O67 2.309 . S
Dy63 O70 2.351 1_556 S
Dy63 O72 2.398 . S
Dy63 O73 2.491 . S
Dy63 O74 2.403 . S
Dy63 O75 2.664 1_556 S
Dy63 O77 2.326 . S
O64 Dy60 2.398 . S
O64 C62 1.185 . S
O65 Dy60 2.491 . S
O65 C62 1.355 . S
O66 Dy60 2.403 . S
O66 C68 1.254 . S
O67 Dy60 2.666 1_556 S
O67 Dy63 2.309 . S
O67 C68 1.268 1_556 S
C68 O66 1.254 . S
C68 O67 1.268 1_554 S
C69 O74 1.254 1_554 S
C69 O75 1.268 . S
O70 Dy63 2.351 1_554 S
O70 C78 1.249 . S
O71 Dy60 2.326 . S
O71 C78 1.267 . S
O72 C61 1.185 . S
O72 Dy63 2.398 . S
O73 C61 1.355 . S
O73 Dy63 2.491 . S
O74 Dy63 2.403 . S
O74 C69 1.254 1_556 S
O75 Dy60 2.310 . S
O75 Dy63 2.664 1_554 S
O75 C69 1.268 . S
O76 Dy60 2.351 . S
O76 C79 1.249 1_554 S
O77 Dy63 2.326 . S
O77 C79 1.267 . S
C78 O70 1.249 . S
C78 O71 1.267 . S
C79 O76 1.249 1_556 S
C79 O77 1.267 . S
Dy80 O84 2.398 . S
Dy80 O85 2.491 . S
Dy80 O86 2.403 . S
Dy80 O87 2.664 . S
Dy80 O91 2.326 . S
Dy80 O95 2.310 . S
Dy80 O96 2.351 . S
C81 O92 1.185 . S
C81 O93 1.355 . S
C82 O84 1.185 . S
C82 O85 1.355 . S
Dy83 O87 2.310 . S
Dy83 O90 2.351 . S
Dy83 O92 2.398 . S
Dy83 O93 2.491 . S
Dy83 O94 2.403 . S
Dy83 O95 2.664 . S
Dy83 O97 2.326 . S
O84 Dy80 2.398 . S
O84 C82 1.185 . S
O85 Dy80 2.491 . S
O85 C82 1.355 . S
O86 Dy80 2.403 . S
O86 C88 1.254 . S
O87 Dy80 2.664 . S
O87 Dy83 2.310 . S
O87 C88 1.268 . S
C88 O86 1.254 . S
C88 O87 1.268 . S
C89 O94 1.254 . S
C89 O95 1.268 . S
O90 Dy83 2.351 . S
O90 C98 1.249 . S
O91 Dy80 2.326 . S
O91 C98 1.267 . S
O92 C81 1.185 . S
O92 Dy83 2.398 . S
O93 C81 1.355 . S
O93 Dy83 2.491 . S
O94 Dy83 2.403 . S
O94 C89 1.254 . S
O95 Dy80 2.310 . S
O95 Dy83 2.664 . S
O95 C89 1.268 . S
O96 Dy80 2.351 . S
O96 C99 1.249 . S
O97 Dy83 2.326 . S
O97 C99 1.267 . S
C98 O90 1.249 . S
C98 O91 1.267 . S
C99 O96 1.249 . S
C99 O97 1.267 . S
Dy100 O104 2.398 . S
Dy100 O105 2.491 1_565 S
Dy100 O106 2.403 . S
Dy100 O107 2.664 . S
Dy100 O111 2.326 . S
Dy100 O115 2.310 1_565 S
Dy100 O116 2.351 . S
C101 O112 1.185 . S
C101 O113 1.355 1_545 S
C102 O104 1.185 . S
C102 O105 1.355 1_565 S
Dy103 O107 2.310 1_545 S
Dy103 O110 2.351 . S
Dy103 O112 2.398 . S
Dy103 O113 2.491 1_545 S
Dy103 O114 2.403 . S
Dy103 O115 2.664 . S
Dy103 O117 2.326 . S
O104 Dy100 2.398 . S
O104 C102 1.185 . S
O105 Dy100 2.491 1_545 S
O105 C102 1.355 1_545 S
O106 Dy100 2.403 . S
O106 C108 1.254 . S
O107 Dy100 2.664 . S
O107 Dy103 2.310 1_565 S
O107 C108 1.268 . S
C108 O106 1.254 . S
C108 O107 1.268 . S
C109 O114 1.254 . S
C109 O115 1.268 . S
O110 Dy103 2.351 . S
O110 C118 1.249 1_545 S
O111 Dy100 2.326 . S
O111 C118 1.267 . S
O112 C101 1.185 . S
O112 Dy103 2.398 . S
O113 C101 1.355 1_565 S
O113 Dy103 2.491 1_565 S
O114 Dy103 2.403 . S
O114 C109 1.254 . S
O115 Dy100 2.310 1_545 S
O115 Dy103 2.664 . S
O115 C109 1.268 . S
O116 Dy100 2.351 . S
O116 C119 1.249 1_565 S
O117 Dy103 2.326 . S
O117 C119 1.267 . S
C118 O110 1.249 1_565 S
C118 O111 1.267 . S
C119 O116 1.249 1_545 S
C119 O117 1.267 . S
Dy120 O124 2.398 . S
Dy120 O125 2.491 1_565 S
Dy120 O126 2.403 . S
Dy120 O127 2.664 1_554 S
Dy120 O131 2.326 . S
Dy120 O135 2.308 1_564 S
Dy120 O136 2.351 1_554 S
C121 O132 1.185 . S
C121 O133 1.355 1_545 S
C122 O124 1.185 . S
C122 O125 1.355 1_565 S
Dy123 O127 2.310 1_545 S
Dy123 O130 2.351 . S
Dy123 O132 2.398 . S
Dy123 O133 2.491 1_545 S
Dy123 O134 2.403 . S
Dy123 O135 2.667 . S
Dy123 O137 2.326 . S
O124 Dy120 2.398 . S
O124 C122 1.185 . S
O125 Dy120 2.491 1_545 S
O125 C122 1.355 1_545 S
O126 Dy120 2.403 . S
O126 C128 1.254 1_554 S
O127 Dy120 2.664 1_556 S
O127 Dy123 2.310 1_565 S
O127 C128 1.268 . S
C128 O126 1.254 1_556 S
C128 O127 1.268 . S
C129 O134 1.254 . S
C129 O135 1.269 . S
O130 Dy123 2.351 . S
O130 C138 1.249 1_546 S
O131 Dy120 2.326 . S
O131 C138 1.267 . S
O132 C121 1.185 . S
O132 Dy123 2.398 . S
O133 C121 1.355 1_565 S
O133 Dy123 2.491 1_565 S
O134 Dy123 2.403 . S
O134 C129 1.254 . S
O135 Dy120 2.308 1_546 S
O135 Dy123 2.667 . S
O135 C129 1.269 . S
O136 Dy120 2.351 1_556 S
O136 C139 1.249 1_565 S
O137 Dy123 2.326 . S
O137 C139 1.267 . S
C138 O130 1.249 1_564 S
C138 O131 1.267 . S
C139 O136 1.249 1_545 S
C139 O137 1.267 . S
Dy140 O144 2.398 . S
Dy140 O145 2.491 . S
Dy140 O146 2.403 . S
Dy140 O147 2.664 1_554 S
Dy140 O151 2.326 . S
Dy140 O155 2.309 . S
Dy140 O156 2.351 1_554 S
C141 O152 1.185 . S
C141 O153 1.355 . S
C142 O144 1.185 . S
C142 O145 1.355 . S
Dy143 O147 2.310 . S
Dy143 O150 2.351 . S
Dy143 O152 2.398 . S
Dy143 O153 2.491 . S
Dy143 O154 2.403 . S
Dy143 O155 2.666 1_556 S
Dy143 O157 2.326 . S
O144 Dy140 2.398 . S
O144 C142 1.185 . S
O145 Dy140 2.491 . S
O145 C142 1.355 . S
O146 Dy140 2.403 . S
O146 C148 1.254 1_554 S
O147 Dy140 2.664 1_556 S
O147 Dy143 2.310 . S
O147 C148 1.268 . S
C148 O146 1.254 1_556 S
C148 O147 1.268 . S
C149 O154 1.254 . S
C149 O155 1.268 1_556 S
O150 Dy143 2.351 . S
O150 C158 1.249 1_556 S
O151 Dy140 2.326 . S
O151 C158 1.267 . S
O152 C141 1.185 . S
O152 Dy143 2.398 . S
O153 C141 1.355 . S
O153 Dy143 2.491 . S
O154 Dy143 2.403 . S
O154 C149 1.254 . S
O155 Dy140 2.309 . S
O155 Dy143 2.666 1_554 S
O155 C149 1.268 1_554 S
O156 Dy140 2.351 1_556 S
O156 C159 1.249 . S
O157 Dy143 2.326 . S
O157 C159 1.267 . S
C158 O150 1.249 1_554 S
C158 O151 1.267 . S
C159 O156 1.249 . S
C159 O157 1.267 . S
Dy160 O164 2.398 . S
Dy160 O165 2.491 . S
Dy160 O166 2.403 . S
Dy160 O167 2.664 . S
Dy160 O171 2.326 . S
Dy160 O175 2.310 . S
Dy160 O176 2.351 . S
C161 O172 1.185 . S
C161 O173 1.355 . S
C162 O164 1.185 . S
C162 O165 1.355 . S
Dy163 O167 2.310 . S
Dy163 O170 2.351 . S
Dy163 O172 2.398 . S
Dy163 O173 2.491 . S
Dy163 O174 2.403 . S
Dy163 O175 2.664 . S
Dy163 O177 2.326 . S
O164 Dy160 2.398 . S
O164 C162 1.185 . S
O165 Dy160 2.491 . S
O165 C162 1.355 . S
O166 Dy160 2.403 . S
O166 C168 1.254 . S
O167 Dy160 2.664 . S
O167 Dy163 2.310 . S
O167 C168 1.268 . S
C168 O166 1.254 . S
C168 O167 1.268 . S
C169 O174 1.254 . S
C169 O175 1.268 . S
O170 Dy163 2.351 . S
O170 C178 1.249 . S
O171 Dy160 2.326 . S
O171 C178 1.267 . S
O172 C161 1.185 . S
O172 Dy163 2.398 . S
O173 C161 1.355 . S
O173 Dy163 2.491 . S
O174 Dy163 2.403 . S
O174 C169 1.254 . S
O175 Dy160 2.310 . S
O175 Dy163 2.664 . S
O175 C169 1.268 . S
O176 Dy160 2.351 . S
O176 C179 1.249 . S
O177 Dy163 2.326 . S
O177 C179 1.267 . S
C178 O170 1.249 . S
C178 O171 1.267 . S
C179 O176 1.249 . S
C179 O177 1.267 . S
Dy180 O184 2.398 . S
Dy180 O185 2.491 . S
Dy180 O186 2.403 . S
Dy180 O187 2.664 . S
Dy180 O191 2.326 . S
Dy180 O195 2.310 . S
Dy180 O196 2.351 . S
C181 O192 1.185 . S
C181 O193 1.355 . S
C182 O184 1.185 . S
C182 O185 1.355 . S
Dy183 O187 2.310 . S
Dy183 O190 2.351 . S
Dy183 O192 2.398 . S
Dy183 O193 2.491 . S
Dy183 O194 2.403 . S
Dy183 O195 2.664 . S
Dy183 O197 2.326 . S
O184 Dy180 2.398 . S
O184 C182 1.185 . S
O185 Dy180 2.491 . S
O185 C182 1.355 . S
O186 Dy180 2.403 . S
O186 C188 1.254 . S
O187 Dy180 2.664 . S
O187 Dy183 2.310 . S
O187 C188 1.268 . S
C188 O186 1.254 . S
C188 O187 1.268 . S
C189 O194 1.254 . S
C189 O195 1.268 . S
O190 Dy183 2.351 . S
O190 C198 1.249 . S
O191 Dy180 2.326 . S
O191 C198 1.267 . S
O192 C181 1.185 . S
O192 Dy183 2.398 . S
O193 C181 1.355 . S
O193 Dy183 2.491 . S
O194 Dy183 2.403 . S
O194 C189 1.254 . S
O195 Dy180 2.310 . S
O195 Dy183 2.664 . S
O195 C189 1.268 . S
O196 Dy180 2.351 . S
O196 C199 1.249 . S
O197 Dy183 2.326 . S
O197 C199 1.267 . S
C198 O190 1.249 . S
C198 O191 1.267 . S
C199 O196 1.249 . S
C199 O197 1.267 . S
Dy200 O204 2.398 . S
Dy200 O205 2.491 . S
Dy200 O206 2.403 . S
Dy200 O207 2.664 . S
Dy200 O211 2.326 . S
Dy200 O215 2.310 . S
Dy200 O216 2.351 . S
C201 O212 1.185 . S
C201 O213 1.355 . S
C202 O204 1.185 . S
C202 O205 1.355 . S
Dy203 O207 2.310 . S
Dy203 O210 2.351 . S
Dy203 O212 2.398 . S
Dy203 O213 2.491 . S
Dy203 O214 2.403 . S
Dy203 O215 2.664 . S
Dy203 O217 2.326 . S
O204 Dy200 2.398 . S
O204 C202 1.185 . S
O205 Dy200 2.491 . S
O205 C202 1.355 . S
O206 Dy200 2.403 . S
O206 C208 1.254 . S
O207 Dy200 2.664 . S
O207 Dy203 2.310 . S
O207 C208 1.268 . S
C208 O206 1.254 . S
C208 O207 1.268 . S
C209 O214 1.254 . S
C209 O215 1.268 . S
O210 Dy203 2.351 . S
O210 C218 1.249 . S
O211 Dy200 2.326 . S
O211 C218 1.267 . S
O212 C201 1.185 . S
O212 Dy203 2.398 . S
O213 C201 1.355 . S
O213 Dy203 2.491 . S
O214 Dy203 2.403 . S
O214 C209 1.254 . S
O215 Dy200 2.310 . S
O215 Dy203 2.664 . S
O215 C209 1.268 . S
O216 Dy200 2.351 . S
O216 C219 1.249 . S
O217 Dy203 2.326 . S
O217 C219 1.267 . S
C218 O210 1.249 . S
C218 O211 1.267 . S
C219 O216 1.249 . S
C219 O217 1.267 . S
Dy220 O224 2.398 . S
Dy220 O225 2.491 . S
Dy220 O226 2.403 . S
Dy220 O227 2.664 . S
Dy220 O231 2.326 . S
Dy220 O235 2.310 . S
Dy220 O236 2.351 . S
C221 O232 1.185 . S
C221 O233 1.355 . S
C222 O224 1.185 . S
C222 O225 1.355 . S
Dy223 O227 2.310 . S
Dy223 O230 2.351 . S
Dy223 O232 2.398 . S
Dy223 O233 2.491 . S
Dy223 O234 2.403 . S
Dy223 O235 2.664 . S
Dy223 O237 2.326 . S
O224 Dy220 2.398 . S
O224 C222 1.185 . S
O225 Dy220 2.491 . S
O225 C222 1.355 . S
O226 Dy220 2.403 . S
O226 C228 1.254 . S
O227 Dy220 2.664 . S
O227 Dy223 2.310 . S
O227 C228 1.268 . S
C228 O226 1.254 . S
C228 O227 1.268 . S
C229 O234 1.254 . S
C229 O235 1.268 . S
O230 Dy223 2.351 . S
O230 C238 1.249 . S
O231 Dy220 2.326 . S
O231 C238 1.267 . S
O232 C221 1.185 . S
O232 Dy223 2.398 . S
O233 C221 1.355 . S
O233 Dy223 2.491 . S
O234 Dy223 2.403 . S
O234 C229 1.254 . S
O235 Dy220 2.310 . S
O235 Dy223 2.664 . S
O235 C229 1.268 . S
O236 Dy220 2.351 . S
O236 C239 1.249 . S
O237 Dy223 2.326 . S
O237 C239 1.267 . S
C238 O230 1.249 . S
C238 O231 1.267 . S
C239 O236 1.249 . S
C239 O237 1.267 . S
Dy240 O244 2.398 . S
Dy240 O245 2.491 . S
Dy240 O246 2.403 . S
Dy240 O247 2.664 . S
Dy240 O251 2.326 . S
Dy240 O255 2.310 . S
Dy240 O256 2.351 . S
C241 O252 1.185 . S
C241 O253 1.355 . S
C242 O244 1.185 . S
C242 O245 1.355 . S
Dy243 O247 2.310 . S
Dy243 O250 2.351 . S
Dy243 O252 2.398 . S
Dy243 O253 2.491 . S
Dy243 O254 2.403 . S
Dy243 O255 2.664 . S
Dy243 O257 2.326 . S
O244 Dy240 2.398 . S
O244 C242 1.185 . S
O245 Dy240 2.491 . S
O245 C242 1.355 . S
O246 Dy240 2.403 . S
O246 C248 1.254 . S
O247 Dy240 2.664 . S
O247 Dy243 2.310 . S
O247 C248 1.268 . S
C248 O246 1.254 . S
C248 O247 1.268 . S
C249 O254 1.254 . S
C249 O255 1.268 . S
O250 Dy243 2.351 . S
O250 C258 1.249 . S
O251 Dy240 2.326 . S
O251 C258 1.267 . S
O252 C241 1.185 . S
O252 Dy243 2.398 . S
O253 C241 1.355 . S
O253 Dy243 2.491 . S
O254 Dy243 2.403 . S
O254 C249 1.254 . S
O255 Dy240 2.310 . S
O255 Dy243 2.664 . S
O255 C249 1.268 . S
O256 Dy240 2.351 . S
O256 C259 1.249 . S
O257 Dy243 2.326 . S
O257 C259 1.267 . S
C258 O250 1.249 . S
C258 O251 1.267 . S
C259 O256 1.249 . S
C259 O257 1.267 . S
Dy260 O264 2.398 . S
Dy260 O265 2.491 . S
Dy260 O266 2.403 . S
Dy260 O267 2.664 . S
Dy260 O271 2.326 . S
Dy260 O275 2.310 . S
Dy260 O276 2.351 . S
C261 O272 1.185 . S
C261 O273 1.355 . S
C262 O264 1.185 . S
C262 O265 1.355 . S
Dy263 O267 2.310 . S
Dy263 O270 2.351 . S
Dy263 O272 2.398 . S
Dy263 O273 2.491 . S
Dy263 O274 2.403 . S
Dy263 O275 2.664 . S
Dy263 O277 2.326 . S
O264 Dy260 2.398 . S
O264 C262 1.185 . S
O265 Dy260 2.491 . S
O265 C262 1.355 . S
O266 Dy260 2.403 . S
O266 C268 1.254 . S
O267 Dy260 2.664 . S
O267 Dy263 2.310 . S
O267 C268 1.268 . S
C268 O266 1.254 . S
C268 O267 1.268 . S
C269 O274 1.254 . S
C269 O275 1.268 . S
O270 Dy263 2.351 . S
O270 C278 1.249 . S
O271 Dy260 2.326 . S
O271 C278 1.267 . S
O272 C261 1.185 . S
O272 Dy263 2.398 . S
O273 C261 1.355 . S
O273 Dy263 2.491 . S
O274 Dy263 2.403 . S
O274 C269 1.254 . S
O275 Dy260 2.310 . S
O275 Dy263 2.664 . S
O275 C269 1.268 . S
O276 Dy260 2.351 . S
O276 C279 1.249 . S
O277 Dy263 2.326 . S
O277 C279 1.267 . S
C278 O270 1.249 . S
C278 O271 1.267 . S
C279 O276 1.249 . S
C279 O277 1.267 . S
Dy280 O284 2.398 . S
Dy280 O285 2.491 . S
Dy280 O286 2.403 . S
Dy280 O287 2.664 . S
Dy280 O291 2.326 . S
Dy280 O295 2.310 . S
Dy280 O296 2.351 . S
C281 O292 1.185 . S
C281 O293 1.355 . S
C282 O284 1.185 . S
C282 O285 1.355 . S
Dy283 O287 2.310 . S
Dy283 O290 2.351 . S
Dy283 O292 2.398 . S
Dy283 O293 2.491 . S
Dy283 O294 2.403 . S
Dy283 O295 2.664 . S
Dy283 O297 2.326 . S
O284 Dy280 2.398 . S
O284 C282 1.185 . S
O285 Dy280 2.491 . S
O285 C282 1.355 . S
O286 Dy280 2.403 . S
O286 C288 1.254 . S
O287 Dy280 2.664 . S
O287 Dy283 2.310 . S
O287 C288 1.268 . S
C288 O286 1.254 . S
C288 O287 1.268 . S
C289 O294 1.254 . S
C289 O295 1.268 . S
O290 Dy283 2.351 . S
O290 C298 1.249 . S
O291 Dy280 2.326 . S
O291 C298 1.267 . S
O292 C281 1.185 . S
O292 Dy283 2.398 . S
O293 C281 1.355 . S
O293 Dy283 2.491 . S
O294 Dy283 2.403 . S
O294 C289 1.254 . S
O295 Dy280 2.310 . S
O295 Dy283 2.664 . S
O295 C289 1.268 . S
O296 Dy280 2.351 . S
O296 C299 1.249 . S
O297 Dy283 2.326 . S
O297 C299 1.267 . S
C298 O290 1.249 . S
C298 O291 1.267 . S
C299 O296 1.249 . S
C299 O297 1.267 . S
Dy300 O304 2.398 . S
Dy300 O305 2.491 . S
Dy300 O306 2.403 . S
Dy300 O307 2.664 . S
Dy300 O311 2.326 . S
Dy300 O315 2.310 . S
Dy300 O316 2.351 . S
C301 O312 1.185 . S
C301 O313 1.355 . S
C302 O304 1.185 . S
C302 O305 1.355 . S
Dy303 O307 2.310 . S
Dy303 O310 2.351 . S
Dy303 O312 2.398 . S
Dy303 O313 2.491 . S
Dy303 O314 2.403 . S
Dy303 O315 2.664 . S
Dy303 O317 2.326 . S
O304 Dy300 2.398 . S
O304 C302 1.185 . S
O305 Dy300 2.491 . S
O305 C302 1.355 . S
O306 Dy300 2.403 . S
O306 C308 1.254 . S
O307 Dy300 2.664 . S
O307 Dy303 2.310 . S
O307 C308 1.268 . S
C308 O306 1.254 . S
C308 O307 1.268 . S
C309 O314 1.254 . S
C309 O315 1.268 . S
O310 Dy303 2.351 . S
O310 C318 1.249 . S
O311 Dy300 2.326 . S
O311 C318 1.267 . S
O312 C301 1.185 . S
O312 Dy303 2.398 . S
O313 C301 1.355 . S
O313 Dy303 2.491 . S
O314 Dy303 2.403 . S
O314 C309 1.254 . S
O315 Dy300 2.310 . S
O315 Dy303 2.664 . S
O315 C309 1.268 . S
O316 Dy300 2.351 . S
O316 C319 1.249 . S
O317 Dy303 2.326 . S
O317 C319 1.267 . S
C318 O310 1.249 . S
C318 O311 1.267 . S
C319 O316 1.249 . S
C319 O317 1.267 . S
Dy320 O324 2.398 . S
Dy320 O325 2.491 . S
Dy320 O326 2.403 . S
Dy320 O327 2.664 . S
Dy320 O331 2.326 . S
Dy320 O335 2.310 . S
Dy320 O336 2.351 . S
C321 O332 1.185 . S
C321 O333 1.355 . S
C322 O324 1.185 . S
C322 O325 1.355 . S
Dy323 O327 2.310 . S
Dy323 O330 2.351 . S
Dy323 O332 2.398 . S
Dy323 O333 2.491 . S
Dy323 O334 2.403 . S
Dy323 O335 2.664 . S
Dy323 O337 2.326 . S
O324 Dy320 2.398 . S
O324 C322 1.185 . S
O325 Dy320 2.491 . S
O325 C322 1.355 . S
O326 Dy320 2.403 . S
O326 C328 1.254 . S
O327 Dy320 2.664 . S
O327 Dy323 2.310 . S
O327 C328 1.268 . S
C328 O326 1.254 . S
C328 O327 1.268 . S
C329 O334 1.254 . S
C329 O335 1.268 . S
O330 Dy323 2.351 . S
O330 C338 1.249 . S
O331 Dy320 2.326 . S
O331 C338 1.267 . S
O332 C321 1.185 . S
O332 Dy323 2.398 . S
O333 C321 1.355 . S
O333 Dy323 2.491 . S
O334 Dy323 2.403 . S
O334 C329 1.254 . S
O335 Dy320 2.310 . S
O335 Dy323 2.664 . S
O335 C329 1.268 . S
O336 Dy320 2.351 . S
O336 C339 1.249 . S
O337 Dy323 2.326 . S
O337 C339 1.267 . S
C338 O330 1.249 . S
C338 O331 1.267 . S
C339 O336 1.249 . S
C339 O337 1.267 . S
Dy340 O344 2.398 . S
Dy340 O345 2.491 1_565 S
Dy340 O346 2.403 . S
Dy340 O347 2.664 . S
Dy340 O351 2.326 . S
Dy340 O355 2.310 1_565 S
Dy340 O356 2.351 . S
C341 O352 1.185 . S
C341 O353 1.355 1_545 S
C342 O344 1.185 . S
C342 O345 1.355 1_565 S
Dy343 O347 2.310 1_545 S
Dy343 O350 2.351 . S
Dy343 O352 2.398 . S
Dy343 O353 2.491 1_545 S
Dy343 O354 2.403 . S
Dy343 O355 2.664 . S
Dy343 O357 2.326 . S
O344 Dy340 2.398 . S
O344 C342 1.185 . S
O345 Dy340 2.491 1_545 S
O345 C342 1.355 1_545 S
O346 Dy340 2.403 . S
O346 C348 1.254 . S
O347 Dy340 2.664 . S
O347 Dy343 2.310 1_565 S
O347 C348 1.268 . S
C348 O346 1.254 . S
C348 O347 1.268 . S
C349 O354 1.254 . S
C349 O355 1.268 . S
O350 Dy343 2.351 . S
O350 C358 1.249 1_545 S
O351 Dy340 2.326 . S
O351 C358 1.267 . S
O352 C341 1.185 . S
O352 Dy343 2.398 . S
O353 C341 1.355 1_565 S
O353 Dy343 2.491 1_565 S
O354 Dy343 2.403 . S
O354 C349 1.254 . S
O355 Dy340 2.310 1_545 S
O355 Dy343 2.664 . S
O355 C349 1.268 . S
O356 Dy340 2.351 . S
O356 C359 1.249 1_565 S
O357 Dy343 2.326 . S
O357 C359 1.267 . S
C358 O350 1.249 1_565 S
C358 O351 1.267 . S
C359 O356 1.249 1_545 S
C359 O357 1.267 . S
Dy360 O364 2.398 . S
Dy360 O365 2.491 1_565 S
Dy360 O366 2.403 . S
Dy360 O367 2.664 . S
Dy360 O371 2.326 . S
Dy360 O375 2.310 1_565 S
Dy360 O376 2.351 . S
C361 O372 1.185 . S
C361 O373 1.355 1_545 S
C362 O364 1.185 . S
C362 O365 1.355 1_565 S
Dy363 O367 2.310 1_545 S
Dy363 O370 2.351 . S
Dy363 O372 2.398 . S
Dy363 O373 2.491 1_545 S
Dy363 O374 2.403 . S
Dy363 O375 2.664 . S
Dy363 O377 2.326 . S
O364 Dy360 2.398 . S
O364 C362 1.185 . S
O365 Dy360 2.491 1_545 S
O365 C362 1.355 1_545 S
O366 Dy360 2.403 . S
O366 C368 1.254 . S
O367 Dy360 2.664 . S
O367 Dy363 2.310 1_565 S
O367 C368 1.268 . S
C368 O366 1.254 . S
C368 O367 1.268 . S
C369 O374 1.254 . S
C369 O375 1.268 . S
O370 Dy363 2.351 . S
O370 C378 1.249 1_545 S
O371 Dy360 2.326 . S
O371 C378 1.267 . S
O372 C361 1.185 . S
O372 Dy363 2.398 . S
O373 C361 1.355 1_565 S
O373 Dy363 2.491 1_565 S
O374 Dy363 2.403 . S
O374 C369 1.254 . S
O375 Dy360 2.310 1_545 S
O375 Dy363 2.664 . S
O375 C369 1.268 . S
O376 Dy360 2.351 . S
O376 C379 1.249 1_565 S
O377 Dy363 2.326 . S
O377 C379 1.267 . S
C378 O370 1.249 1_565 S
C378 O371 1.267 . S
C379 O376 1.249 1_545 S
C379 O377 1.267 . S
Dy380 O384 2.398 . S
Dy380 O385 2.491 . S
Dy380 O386 2.403 . S
Dy380 O387 2.664 . S
Dy380 O391 2.326 . S
Dy380 O395 2.310 . S
Dy380 O396 2.351 . S
C381 O392 1.185 . S
C381 O393 1.355 . S
C382 O384 1.185 . S
C382 O385 1.355 . S
Dy383 O387 2.310 . S
Dy383 O390 2.351 . S
Dy383 O392 2.398 . S
Dy383 O393 2.491 . S
Dy383 O394 2.403 . S
Dy383 O395 2.664 . S
Dy383 O397 2.326 . S
O384 Dy380 2.398 . S
O384 C382 1.185 . S
O385 Dy380 2.491 . S
O385 C382 1.355 . S
O386 Dy380 2.403 . S
O386 C388 1.254 . S
O387 Dy380 2.664 . S
O387 Dy383 2.310 . S
O387 C388 1.268 . S
C388 O386 1.254 . S
C388 O387 1.268 . S
C389 O394 1.254 . S
C389 O395 1.268 . S
O390 Dy383 2.351 . S
O390 C398 1.249 . S
O391 Dy380 2.326 . S
O391 C398 1.267 . S
O392 C381 1.185 . S
O392 Dy383 2.398 . S
O393 C381 1.355 . S
O393 Dy383 2.491 . S
O394 Dy383 2.403 . S
O394 C389 1.254 . S
O395 Dy380 2.310 . S
O395 Dy383 2.664 . S
O395 C389 1.268 . S
O396 Dy380 2.351 . S
O396 C399 1.249 . S
O397 Dy383 2.326 . S
O397 C399 1.267 . S
C398 O390 1.249 . S
C398 O391 1.267 . S
C399 O396 1.249 . S
C399 O397 1.267 . S
Dy400 O404 2.398 . S
Dy400 O405 2.491 . S
Dy400 O406 2.403 . S
Dy400 O407 2.664 . S
Dy400 O411 2.326 . S
Dy400 O415 2.310 . S
Dy400 O416 2.351 . S
C401 O412 1.185 . S
C401 O413 1.355 . S
C402 O404 1.185 . S
C402 O405 1.355 . S
Dy403 O407 2.310 . S
Dy403 O410 2.351 . S
Dy403 O412 2.398 . S
Dy403 O413 2.491 . S
Dy403 O414 2.403 . S
Dy403 O415 2.664 . S
Dy403 O417 2.326 . S
O404 Dy400 2.398 . S
O404 C402 1.185 . S
O405 Dy400 2.491 . S
O405 C402 1.355 . S
O406 Dy400 2.403 . S
O406 C408 1.254 . S
O407 Dy400 2.664 . S
O407 Dy403 2.310 . S
O407 C408 1.268 . S
C408 O406 1.254 . S
C408 O407 1.268 . S
C409 O414 1.254 . S
C409 O415 1.268 . S
O410 Dy403 2.351 . S
O410 C418 1.249 . S
O411 Dy400 2.326 . S
O411 C418 1.267 . S
O412 C401 1.185 . S
O412 Dy403 2.398 . S
O413 C401 1.355 . S
O413 Dy403 2.491 . S
O414 Dy403 2.403 . S
O414 C409 1.254 . S
O415 Dy400 2.310 . S
O415 Dy403 2.664 . S
O415 C409 1.268 . S
O416 Dy400 2.351 . S
O416 C419 1.249 . S
O417 Dy403 2.326 . S
O417 C419 1.267 . S
C418 O410 1.249 . S
C418 O411 1.267 . S
C419 O416 1.249 . S
C419 O417 1.267 . S
Dy420 O424 2.398 . S
Dy420 O425 2.491 1_565 S
Dy420 O426 2.403 . S
Dy420 O427 2.664 . S
Dy420 O431 2.326 . S
Dy420 O435 2.310 1_565 S
Dy420 O436 2.351 . S
C421 O432 1.185 . S
C421 O433 1.355 1_545 S
C422 O424 1.185 . S
C422 O425 1.355 1_565 S
Dy423 O427 2.310 1_545 S
Dy423 O430 2.351 . S
Dy423 O432 2.398 . S
Dy423 O433 2.491 1_545 S
Dy423 O434 2.403 . S
Dy423 O435 2.664 . S
Dy423 O437 2.326 . S
O424 Dy420 2.398 . S
O424 C422 1.185 . S
O425 Dy420 2.491 1_545 S
O425 C422 1.355 1_545 S
O426 Dy420 2.403 . S
O426 C428 1.254 . S
O427 Dy420 2.664 . S
O427 Dy423 2.310 1_565 S
O427 C428 1.268 . S
C428 O426 1.254 . S
C428 O427 1.268 . S
C429 O434 1.254 . S
C429 O435 1.268 . S
O430 Dy423 2.351 . S
O430 C438 1.249 1_545 S
O431 Dy420 2.326 . S
O431 C438 1.267 . S
O432 C421 1.185 . S
O432 Dy423 2.398 . S
O433 C421 1.355 1_565 S
O433 Dy423 2.491 1_565 S
O434 Dy423 2.403 . S
O434 C429 1.254 . S
O435 Dy420 2.310 1_545 S
O435 Dy423 2.664 . S
O435 C429 1.268 . S
O436 Dy420 2.351 . S
O436 C439 1.249 1_565 S
O437 Dy423 2.326 . S
O437 C439 1.267 . S
C438 O430 1.249 1_565 S
C438 O431 1.267 . S
C439 O436 1.249 1_545 S
C439 O437 1.267 . S
Dy440 O444 2.398 . S
Dy440 O445 2.491 1_565 S
Dy440 O446 2.403 . S
Dy440 O447 2.664 . S
Dy440 O451 2.326 . S
Dy440 O455 2.310 1_565 S
Dy440 O456 2.351 . S
C441 O452 1.185 . S
C441 O453 1.355 1_545 S
C442 O444 1.185 . S
C442 O445 1.355 1_565 S
Dy443 O447 2.310 1_545 S
Dy443 O450 2.351 . S
Dy443 O452 2.398 . S
Dy443 O453 2.491 1_545 S
Dy443 O454 2.403 . S
Dy443 O455 2.664 . S
Dy443 O457 2.326 . S
O444 Dy440 2.398 . S
O444 C442 1.185 . S
O445 Dy440 2.491 1_545 S
O445 C442 1.355 1_545 S
O446 Dy440 2.403 . S
O446 C448 1.254 . S
O447 Dy440 2.664 . S
O447 Dy443 2.310 1_565 S
O447 C448 1.268 . S
C448 O446 1.254 . S
C448 O447 1.268 . S
C449 O454 1.254 . S
C449 O455 1.268 . S
O450 Dy443 2.351 . S
O450 C458 1.249 1_545 S
O451 Dy440 2.326 . S
O451 C458 1.267 . S
O452 C441 1.185 . S
O452 Dy443 2.398 . S
O453 C441 1.355 1_565 S
O453 Dy443 2.491 1_565 S
O454 Dy443 2.403 . S
O454 C449 1.254 . S
O455 Dy440 2.310 1_545 S
O455 Dy443 2.664 . S
O455 C449 1.268 . S
O456 Dy440 2.351 . S
O456 C459 1.249 1_565 S
O457 Dy443 2.326 . S
O457 C459 1.267 . S
C458 O450 1.249 1_565 S
C458 O451 1.267 . S
C459 O456 1.249 1_545 S
C459 O457 1.267 . S
Dy460 O464 2.398 . S
Dy460 O465 2.491 . S
Dy460 O466 2.403 . S
Dy460 O467 2.664 . S
Dy460 O471 2.326 . S
Dy460 O475 2.310 . S
Dy460 O476 2.351 . S
C461 O472 1.185 . S
C461 O473 1.355 . S
C462 O464 1.185 . S
C462 O465 1.355 . S
Dy463 O467 2.310 . S
Dy463 O470 2.351 . S
Dy463 O472 2.398 . S
Dy463 O473 2.491 . S
Dy463 O474 2.403 . S
Dy463 O475 2.664 . S
Dy463 O477 2.326 . S
O464 Dy460 2.398 . S
O464 C462 1.185 . S
O465 Dy460 2.491 . S
O465 C462 1.355 . S
O466 Dy460 2.403 . S
O466 C468 1.254 . S
O467 Dy460 2.664 . S
O467 Dy463 2.310 . S
O467 C468 1.268 . S
C468 O466 1.254 . S
C468 O467 1.268 . S
C469 O474 1.254 . S
C469 O475 1.268 . S
O470 Dy463 2.351 . S
O470 C478 1.249 . S
O471 Dy460 2.326 . S
O471 C478 1.267 . S
O472 C461 1.185 . S
O472 Dy463 2.398 . S
O473 C461 1.355 . S
O473 Dy463 2.491 . S
O474 Dy463 2.403 . S
O474 C469 1.254 . S
O475 Dy460 2.310 . S
O475 Dy463 2.664 . S
O475 C469 1.268 . S
O476 Dy460 2.351 . S
O476 C479 1.249 . S
O477 Dy463 2.326 . S
O477 C479 1.267 . S
C478 O470 1.249 . S
C478 O471 1.267 . S
C479 O476 1.249 . S
C479 O477 1.267 . S
Dy480 O484 2.398 . S
Dy480 O485 2.491 . S
Dy480 O486 2.403 . S
Dy480 O487 2.664 . S
Dy480 O491 2.326 . S
Dy480 O495 2.310 . S
Dy480 O496 2.351 . S
C481 O492 1.185 . S
C481 O493 1.355 . S
C482 O484 1.185 . S
C482 O485 1.355 . S
Dy483 O487 2.310 . S
Dy483 O490 2.351 . S
Dy483 O492 2.398 . S
Dy483 O493 2.491 . S
Dy483 O494 2.403 . S
Dy483 O495 2.664 . S
Dy483 O497 2.326 . S
O484 Dy480 2.398 . S
O484 C482 1.185 . S
O485 Dy480 2.491 . S
O485 C482 1.355 . S
O486 Dy480 2.403 . S
O486 C488 1.254 . S
O487 Dy480 2.664 . S
O487 Dy483 2.310 . S
O487 C488 1.268 . S
C488 O486 1.254 . S
C488 O487 1.268 . S
C489 O494 1.254 . S
C489 O495 1.268 . S
O490 Dy483 2.351 . S
O490 C498 1.249 . S
O491 Dy480 2.326 . S
O491 C498 1.267 . S
O492 C481 1.185 . S
O492 Dy483 2.398 . S
O493 C481 1.355 . S
O493 Dy483 2.491 . S
O494 Dy483 2.403 . S
O494 C489 1.254 . S
O495 Dy480 2.310 . S
O495 Dy483 2.664 . S
O495 C489 1.268 . S
O496 Dy480 2.351 . S
O496 C499 1.249 . S
O497 Dy483 2.326 . S
O497 C499 1.267 . S
C498 O490 1.249 . S
C498 O491 1.267 . S
C499 O496 1.249 . S
C499 O497 1.267 . S
Dy500 O504 2.398 . S
Dy500 O505 2.491 . S
Dy500 O506 2.403 . S
Dy500 O507 2.664 . S
Dy500 O511 2.326 . S
Dy500 O515 2.310 . S
Dy500 O516 2.351 . S
C501 O512 1.185 . S
C501 O513 1.355 . S
C502 O504 1.185 . S
C502 O505 1.355 . S
Dy503 O507 2.310 . S
Dy503 O510 2.351 . S
Dy503 O512 2.398 . S
Dy503 O513 2.491 . S
Dy503 O514 2.403 . S
Dy503 O515 2.664 . S
Dy503 O517 2.326 . S
O504 Dy500 2.398 . S
O504 C502 1.185 . S
O505 Dy500 2.491 . S
O505 C502 1.355 . S
O506 Dy500 2.403 . S
O506 C508 1.254 . S
O507 Dy500 2.664 . S
O507 Dy503 2.310 . S
O507 C508 1.268 . S
C508 O506 1.254 . S
C508 O507 1.268 . S
C509 O514 1.254 . S
C509 O515 1.268 . S
O510 Dy503 2.351 . S
O510 C518 1.249 . S
O511 Dy500 2.326 . S
O511 C518 1.267 . S
O512 C501 1.185 . S
O512 Dy503 2.398 . S
O513 C501 1.355 . S
O513 Dy503 2.491 . S
O514 Dy503 2.403 . S
O514 C509 1.254 . S
O515 Dy500 2.310 . S
O515 Dy503 2.664 . S
O515 C509 1.268 . S
O516 Dy500 2.351 . S
O516 C519 1.249 . S
O517 Dy503 2.326 . S
O517 C519 1.267 . S
C518 O510 1.249 . S
C518 O511 1.267 . S
C519 O516 1.249 . S
C519 O517 1.267 . S
Dy520 O524 2.398 . S
Dy520 O525 2.491 . S
Dy520 O526 2.403 . S
Dy520 O527 2.665 1_554 S
Dy520 O531 2.326 . S
Dy520 O535 2.310 . S
Dy520 O536 2.351 . S
C521 O532 1.185 . S
C521 O533 1.355 . S
C522 O524 1.185 . S
C522 O525 1.355 . S
Dy523 O527 2.309 . S
Dy523 O530 2.351 1_556 S
Dy523 O532 2.398 . S
Dy523 O533 2.491 . S
Dy523 O534 2.403 . S
Dy523 O535 2.664 1_556 S
Dy523 O537 2.326 . S
O524 Dy520 2.398 . S
O524 C522 1.185 . S
O525 Dy520 2.491 . S
O525 C522 1.355 . S
O526 Dy520 2.403 . S
O526 C528 1.254 . S
O527 Dy520 2.665 1_556 S
O527 Dy523 2.309 . S
O527 C528 1.268 1_556 S
C528 O526 1.254 . S
C528 O527 1.268 1_554 S
C529 O534 1.254 1_554 S
C529 O535 1.268 . S
O530 Dy523 2.351 1_554 S
O530 C538 1.249 . S
O531 Dy520 2.326 . S
O531 C538 1.267 . S
O532 C521 1.185 . S
O532 Dy523 2.398 . S
O533 C521 1.355 . S
O533 Dy523 2.491 . S
O534 Dy523 2.403 . S
O534 C529 1.254 1_556 S
O535 Dy520 2.310 . S
O535 Dy523 2.664 1_554 S
O535 C529 1.268 . S
O536 Dy520 2.351 . S
O536 C539 1.249 1_554 S
O537 Dy523 2.326 . S
O537 C539 1.267 . S
C538 O530 1.249 . S
C538 O531 1.267 . S
C539 O536 1.249 1_556 S
C539 O537 1.267 . S
Dy540 O544 2.398 . S
Dy540 O545 2.491 . S
Dy540 O546 2.403 . S
Dy540 O547 2.663 1_554 S
Dy540 O551 2.326 . S
Dy540 O555 2.310 . S
Dy540 O556 2.351 . S
C541 O552 1.185 . S
C541 O553 1.355 . S
C542 O544 1.185 . S
C542 O545 1.355 . S
Dy543 O547 2.310 . S
Dy543 O550 2.351 1_556 S
Dy543 O552 2.398 . S
Dy543 O553 2.491 . S
Dy543 O554 2.403 . S
Dy543 O555 2.664 1_556 S
Dy543 O557 2.326 . S
O544 Dy540 2.398 . S
O544 C542 1.185 . S
O545 Dy540 2.491 . S
O545 C542 1.355 . S
O546 Dy540 2.403 . S
O546 C548 1.254 . S
O547 Dy540 2.663 1_556 S
O547 Dy543 2.310 . S
O547 C548 1.267 1_556 S
C548 O546 1.254 . S
C548 O547 1.267 1_554 S
C549 O554 1.254 1_554 S
C549 O555 1.268 . S
O550 Dy543 2.351 1_554 S
O550 C558 1.249 . S
O551 Dy540 2.326 . S
O551 C558 1.267 . S
O552 C541 1.185 . S
O552 Dy543 2.398 . S
O553 C541 1.355 . S
O553 Dy543 2.491 . S
O554 Dy543 2.403 . S
O554 C549 1.254 1_556 S
O555 Dy540 2.310 . S
O555 Dy543 2.664 1_554 S
O555 C549 1.268 . S
O556 Dy540 2.351 . S
O556 C559 1.249 1_554 S
O557 Dy543 2.326 . S
O557 C559 1.267 . S
C558 O550 1.249 . S
C558 O551 1.267 . S
C559 O556 1.249 1_556 S
C559 O557 1.267 . S
Dy560 O564 2.398 . S
Dy560 O565 2.491 . S
Dy560 O566 2.403 . S
Dy560 O567 2.664 . S
Dy560 O571 2.326 . S
Dy560 O575 2.310 . S
Dy560 O576 2.351 . S
C561 O572 1.185 . S
C561 O573 1.355 . S
C562 O564 1.185 . S
C562 O565 1.355 . S
Dy563 O567 2.310 . S
Dy563 O570 2.351 . S
Dy563 O572 2.398 . S
Dy563 O573 2.491 . S
Dy563 O574 2.403 . S
Dy563 O575 2.664 . S
Dy563 O577 2.326 . S
O564 Dy560 2.398 . S
O564 C562 1.185 . S
O565 Dy560 2.491 . S
O565 C562 1.355 . S
O566 Dy560 2.403 . S
O566 C568 1.254 . S
O567 Dy560 2.664 . S
O567 Dy563 2.310 . S
O567 C568 1.268 . S
C568 O566 1.254 . S
C568 O567 1.268 . S
C569 O574 1.254 . S
C569 O575 1.268 . S
O570 Dy563 2.351 . S
O570 C578 1.249 . S
O571 Dy560 2.326 . S
O571 C578 1.267 . S
O572 C561 1.185 . S
O572 Dy563 2.398 . S
O573 C561 1.355 . S
O573 Dy563 2.491 . S
O574 Dy563 2.403 . S
O574 C569 1.254 . S
O575 Dy560 2.310 . S
O575 Dy563 2.664 . S
O575 C569 1.268 . S
O576 Dy560 2.351 . S
O576 C579 1.249 . S
O577 Dy563 2.326 . S
O577 C579 1.267 . S
C578 O570 1.249 . S
C578 O571 1.267 . S
C579 O576 1.249 . S
C579 O577 1.267 . S
Dy580 O584 2.398 . S
Dy580 O585 2.491 . S
Dy580 O586 2.403 . S
Dy580 O587 2.664 . S
Dy580 O591 2.326 . S
Dy580 O595 2.310 . S
Dy580 O596 2.351 . S
C581 O592 1.185 . S
C581 O593 1.355 . S
C582 O584 1.185 . S
C582 O585 1.355 . S
Dy583 O587 2.310 . S
Dy583 O590 2.351 . S
Dy583 O592 2.398 . S
Dy583 O593 2.491 . S
Dy583 O594 2.403 . S
Dy583 O595 2.664 . S
Dy583 O597 2.326 . S
O584 Dy580 2.398 . S
O584 C582 1.185 . S
O585 Dy580 2.491 . S
O585 C582 1.355 . S
O586 Dy580 2.403 . S
O586 C588 1.254 . S
O587 Dy580 2.664 . S
O587 Dy583 2.310 . S
O587 C588 1.268 . S
C588 O586 1.254 . S
C588 O587 1.268 . S
C589 O594 1.254 . S
C589 O595 1.268 . S
O590 Dy583 2.351 . S
O590 C598 1.249 . S
O591 Dy580 2.326 . S
O591 C598 1.267 . S
O592 C581 1.185 . S
O592 Dy583 2.398 . S
O593 C581 1.355 . S
O593 Dy583 2.491 . S
O594 Dy583 2.403 . S
O594 C589 1.254 . S
O595 Dy580 2.310 . S
O595 Dy583 2.664 . S
O595 C589 1.268 . S
O596 Dy580 2.351 . S
O596 C599 1.249 . S
O597 Dy583 2.326 . S
O597 C599 1.267 . S
C598 O590 1.249 . S
C598 O591 1.267 . S
C599 O596 1.249 . S
C599 O597 1.267 . S
Dy600 O604 2.398 . S
Dy600 O605 2.491 . S
Dy600 O606 2.403 . S
Dy600 O607 2.664 1_554 S
Dy600 O611 2.326 . S
Dy600 O615 2.309 . S
Dy600 O616 2.351 1_554 S
C601 O612 1.185 . S
C601 O613 1.355 . S
C602 O604 1.185 . S
C602 O605 1.355 . S
Dy603 O607 2.310 . S
Dy603 O610 2.351 . S
Dy603 O612 2.398 . S
Dy603 O613 2.491 . S
Dy603 O614 2.403 . S
Dy603 O615 2.665 1_556 S
Dy603 O617 2.326 . S
O604 Dy600 2.398 . S
O604 C602 1.185 . S
O605 Dy600 2.491 . S
O605 C602 1.355 . S
O606 Dy600 2.403 . S
O606 C608 1.254 1_554 S
O607 Dy600 2.664 1_556 S
O607 Dy603 2.310 . S
O607 C608 1.268 . S
C608 O606 1.254 1_556 S
C608 O607 1.268 . S
C609 O614 1.254 . S
C609 O615 1.268 1_556 S
O610 Dy603 2.351 . S
O610 C618 1.249 1_556 S
O611 Dy600 2.326 . S
O611 C618 1.267 . S
O612 C601 1.185 . S
O612 Dy603 2.398 . S
O613 C601 1.355 . S
O613 Dy603 2.491 . S
O614 Dy603 2.403 . S
O614 C609 1.254 . S
O615 Dy600 2.309 . S
O615 Dy603 2.665 1_554 S
O615 C609 1.268 1_554 S
O616 Dy600 2.351 1_556 S
O616 C619 1.249 . S
O617 Dy603 2.326 . S
O617 C619 1.267 . S
C618 O610 1.249 1_554 S
C618 O611 1.267 . S
C619 O616 1.249 . S
C619 O617 1.267 . S
Dy620 O624 2.398 . S
Dy620 O625 2.491 . S
Dy620 O626 2.403 . S
Dy620 O627 2.664 1_554 S
Dy620 O631 2.326 . S
Dy620 O635 2.310 . S
Dy620 O636 2.351 1_554 S
C621 O632 1.185 . S
C621 O633 1.355 . S
C622 O624 1.185 . S
C622 O625 1.355 . S
Dy623 O627 2.310 . S
Dy623 O630 2.351 . S
Dy623 O632 2.398 . S
Dy623 O633 2.491 . S
Dy623 O634 2.403 . S
Dy623 O635 2.663 1_556 S
Dy623 O637 2.326 . S
O624 Dy620 2.398 . S
O624 C622 1.185 . S
O625 Dy620 2.491 . S
O625 C622 1.355 . S
O626 Dy620 2.403 . S
O626 C628 1.254 1_554 S
O627 Dy620 2.664 1_556 S
O627 Dy623 2.310 . S
O627 C628 1.268 . S
C628 O626 1.254 1_556 S
C628 O627 1.268 . S
C629 O634 1.254 . S
C629 O635 1.267 1_556 S
O630 Dy623 2.351 . S
O630 C638 1.249 1_556 S
O631 Dy620 2.326 . S
O631 C638 1.267 . S
O632 C621 1.185 . S
O632 Dy623 2.398 . S
O633 C621 1.355 . S
O633 Dy623 2.491 . S
O634 Dy623 2.403 . S
O634 C629 1.254 . S
O635 Dy620 2.310 . S
O635 Dy623 2.663 1_554 S
O635 C629 1.267 1_554 S
O636 Dy620 2.351 1_556 S
O636 C639 1.249 . S
O637 Dy623 2.326 . S
O637 C639 1.267 . S
C638 O630 1.249 1_554 S
C638 O631 1.267 . S
C639 O636 1.249 . S
C639 O637 1.267 . S
C640 C641 1.349 . S
C640 C642 1.327 . S
C640 H665 0.950 . S
C641 C640 1.349 . S
C641 C657 1.349 . S
C642 C640 1.327 . S
C642 C661 1.429 . S
C642 H666 0.950 . S
C643 C660 1.574 . S
C643 C662 1.368 . S
C643 H667 0.949 . S
H644 C648 0.949 . S
C645 C646 1.349 . S
C645 C647 1.327 . S
C645 H668 0.950 . S
C646 C645 1.349 . S
C646 C658 1.349 . S
C647 C645 1.327 . S
C647 C663 1.429 . S
C647 H669 0.950 . S
C648 H644 0.949 . S
C648 C656 1.574 . S
C648 C664 1.368 . S
H649 C657 0.950 . S
H650 C655 0.950 . S
H651 C656 0.949 . S
H652 C658 0.950 . S
H653 C659 0.950 . S
H654 C660 0.949 . S
C655 H650 0.950 . S
C655 C657 1.327 . S
C655 C661 1.429 . S
C656 C648 1.574 . S
C656 H651 0.949 . S
C656 C662 1.368 1_554 S
C657 C641 1.349 . S
C657 H649 0.950 . S
C657 C655 1.327 . S
C658 C646 1.349 . S
C658 H652 0.950 . S
C658 C659 1.327 . S
C659 H653 0.950 . S
C659 C658 1.327 . S
C659 C663 1.429 . S
C660 C643 1.574 . S
C660 H654 0.949 . S
C660 C664 1.368 1_556 S
C661 C642 1.429 . S
C661 C655 1.429 . S
C661 C662 1.523 . S
C662 C643 1.368 . S
C662 C656 1.368 1_556 S
C662 C661 1.523 . S
C663 C647 1.429 . S
C663 C659 1.429 . S
C663 C664 1.523 . S
C664 C648 1.368 . S
C664 C660 1.368 1_554 S
C664 C663 1.523 . S
H665 C640 0.950 . S
H666 C642 0.950 . S
H667 C643 0.949 . S
H668 C645 0.950 . S
H669 C647 0.950 . S
C670 C671 1.311 1_565 S
C670 C672 1.327 . S
C670 H695 0.950 . S
C671 C670 1.311 1_545 S
C671 C687 1.388 . S
C672 C670 1.327 . S
C672 C691 1.410 1_565 S
C672 H696 0.950 . S
C673 C690 1.574 1_455 S
C673 C692 1.378 . S
C673 H697 0.949 . S
H674 C678 0.949 . S
C675 C676 1.321 1_545 S
C675 C677 1.327 . S
C675 H698 0.950 . S
C676 C675 1.321 1_565 S
C676 C688 1.377 . S
C677 C675 1.327 . S
C677 C693 1.420 1_545 S
C677 H699 0.950 . S
C678 H674 0.949 . S
C678 C686 1.574 1_655 S
C678 C694 1.367 . S
H679 C687 0.950 . S
H680 C685 0.950 . S
H681 C686 0.949 . S
H682 C688 0.950 . S
H683 C689 0.950 . S
H684 C690 0.949 . S
C685 H680 0.950 . S
C685 C687 1.327 . S
C685 C691 1.448 . S
C686 C678 1.574 1_455 S
C686 H681 0.949 . S
C686 C692 1.359 1_564 S
C687 C671 1.388 . S
C687 H679 0.950 . S
C687 C685 1.327 . S
C688 C676 1.377 . S
C688 H682 0.950 . S
C688 C689 1.327 . S
C689 H683 0.950 . S
C689 C688 1.327 . S
C689 C693 1.437 . S
C690 C673 1.574 1_655 S
C690 H684 0.949 . S
C690 C694 1.370 1_546 S
C691 C672 1.410 1_545 S
C691 C685 1.448 . S
C691 C692 1.523 . S
C692 C673 1.378 . S
C692 C686 1.359 1_546 S
C692 C691 1.523 . S
C693 C677 1.420 1_565 S
C693 C689 1.437 . S
C693 C694 1.523 . S
C694 C678 1.367 . S
C694 C690 1.370 1_564 S
C694 C693 1.523 . S
H695 C670 0.950 . S
H696 C672 0.950 . S
H697 C673 0.949 . S
H698 C675 0.950 . S
H699 C677 0.950 . S
C700 C701 1.312 1_565 S
C700 C702 1.327 . S
C700 H725 0.950 . S
C701 C700 1.312 1_545 S
C701 C717 1.387 . S
C702 C700 1.327 . S
C702 C721 1.410 1_565 S
C702 H726 0.950 . S
C703 C720 1.574 . S
C703 C722 1.378 . S
C703 H727 0.949 . S
H704 C708 0.949 . S
C705 C706 1.322 1_545 S
C705 C707 1.327 . S
C705 H728 0.950 . S
C706 C705 1.322 1_565 S
C706 C718 1.376 . S
C707 C705 1.327 . S
C707 C723 1.420 1_545 S
C707 H729 0.950 . S
C708 H704 0.949 . S
C708 C716 1.574 . S
C708 C724 1.367 . S
H709 C717 0.950 . S
H710 C715 0.950 . S
H711 C716 0.949 . S
H712 C718 0.950 . S
H713 C719 0.950 . S
H714 C720 0.949 . S
C715 H710 0.950 . S
C715 C717 1.327 . S
C715 C721 1.447 . S
C716 C708 1.574 . S
C716 H711 0.949 . S
C716 C722 1.359 1_565 S
C717 C701 1.387 . S
C717 H709 0.950 . S
C717 C715 1.327 . S
C718 C706 1.376 . S
C718 H712 0.950 . S
C718 C719 1.327 . S
C719 H713 0.950 . S
C719 C718 1.327 . S
C719 C723 1.437 . S
C720 C703 1.574 . S
C720 H714 0.949 . S
C720 C724 1.370 1_545 S
C721 C702 1.410 1_545 S
C721 C715 1.447 . S
C721 C722 1.523 . S
C722 C703 1.378 . S
C722 C716 1.359 1_545 S
C722 C721 1.523 . S
C723 C707 1.420 1_565 S
C723 C719 1.437 . S
C723 C724 1.523 . S
C724 C708 1.367 . S
C724 C720 1.370 1_565 S
C724 C723 1.523 . S
H725 C700 0.950 . S
H726 C702 0.950 . S
H727 C703 0.949 . S
H728 C705 0.950 . S
H729 C707 0.950 . S
C730 C731 1.349 . S
C730 C732 1.327 . S
C730 H755 0.950 . S
C731 C730 1.349 . S
C731 C747 1.349 . S
C732 C730 1.327 . S
C732 C751 1.429 . S
C732 H756 0.950 . S
C733 C750 1.574 1_455 S
C733 C752 1.368 . S
C733 H757 0.949 . S
H734 C738 0.949 . S
C735 C736 1.349 . S
C735 C737 1.327 . S
C735 H758 0.950 . S
C736 C735 1.349 . S
C736 C748 1.349 . S
C737 C735 1.327 . S
C737 C753 1.429 . S
C737 H759 0.950 . S
C738 H734 0.949 . S
C738 C746 1.574 1_655 S
C738 C754 1.368 . S
H739 C747 0.950 . S
H740 C745 0.950 . S
H741 C746 0.949 . S
H742 C748 0.950 . S
H743 C749 0.950 . S
H744 C750 0.949 . S
C745 H740 0.950 . S
C745 C747 1.327 . S
C745 C751 1.429 . S
C746 C738 1.574 1_455 S
C746 H741 0.949 . S
C746 C752 1.368 . S
C747 C731 1.349 . S
C747 H739 0.950 . S
C747 C745 1.327 . S
C748 C736 1.349 . S
C748 H742 0.950 . S
C748 C749 1.327 . S
C749 H743 0.950 . S
C749 C748 1.327 . S
C749 C753 1.429 . S
C750 C733 1.574 1_655 S
C750 H744 0.949 . S
C750 C754 1.368 . S
C751 C732 1.429 . S
C751 C745 1.429 . S
C751 C752 1.523 . S
C752 C733 1.368 . S
C752 C746 1.368 . S
C752 C751 1.523 . S
C753 C737 1.429 . S
C753 C749 1.429 . S
C753 C754 1.523 . S
C754 C738 1.368 . S
C754 C750 1.368 . S
C754 C753 1.523 . S
H755 C730 0.950 . S
H756 C732 0.950 . S
H757 C733 0.949 . S
H758 C735 0.950 . S
H759 C737 0.950 . S
C760 C761 1.349 . S
C760 C762 1.327 . S
C760 H785 0.950 . S
C761 C760 1.349 . S
C761 C777 1.349 . S
C762 C760 1.327 . S
C762 C781 1.429 . S
C762 H786 0.950 . S
C763 C780 1.574 . S
C763 C782 1.368 . S
C763 H787 0.949 . S
H764 C768 0.949 . S
C765 C766 1.349 . S
C765 C767 1.327 . S
C765 H788 0.950 . S
C766 C765 1.349 . S
C766 C778 1.349 . S
C767 C765 1.327 . S
C767 C783 1.429 . S
C767 H789 0.950 . S
C768 H764 0.949 . S
C768 C776 1.574 . S
C768 C784 1.368 . S
H769 C777 0.950 . S
H770 C775 0.950 . S
H771 C776 0.949 . S
H772 C778 0.950 . S
H773 C779 0.950 . S
H774 C780 0.949 . S
C775 H770 0.950 . S
C775 C777 1.327 . S
C775 C781 1.429 . S
C776 C768 1.574 . S
C776 H771 0.949 . S
C776 C782 1.368 1_554 S
C777 C761 1.349 . S
C777 H769 0.950 . S
C777 C775 1.327 . S
C778 C766 1.349 . S
C778 H772 0.950 . S
C778 C779 1.327 . S
C779 H773 0.950 . S
C779 C778 1.327 . S
C779 C783 1.429 . S
C780 C763 1.574 . S
C780 H774 0.949 . S
C780 C784 1.368 1_556 S
C781 C762 1.429 . S
C781 C775 1.429 . S
C781 C782 1.523 . S
C782 C763 1.368 . S
C782 C776 1.368 1_556 S
C782 C781 1.523 . S
C783 C767 1.429 . S
C783 C779 1.429 . S
C783 C784 1.523 . S
C784 C768 1.368 . S
C784 C780 1.368 1_554 S
C784 C783 1.523 . S
H785 C760 0.950 . S
H786 C762 0.950 . S
H787 C763 0.949 . S
H788 C765 0.950 . S
H789 C767 0.950 . S
C790 C791 1.381 . S
C790 C792 1.327 . S
C790 H815 0.950 . S
C791 C790 1.381 . S
C791 C807 1.318 1_565 S
C792 C790 1.327 . S
C792 C811 1.444 . S
C792 H816 0.950 . S
C793 C810 1.574 . S
C793 C812 1.360 1_545 S
C793 H817 0.949 . S
H794 C798 0.949 . S
C795 C796 1.372 . S
C795 C797 1.327 . S
C795 H818 0.950 . S
C796 C795 1.372 . S
C796 C808 1.326 1_545 S
C797 C795 1.327 . S
C797 C813 1.436 . S
C797 H819 0.950 . S
C798 H794 0.949 . S
C798 C806 1.574 . S
C798 C814 1.370 1_565 S
H799 C807 0.950 . S
H800 C805 0.950 . S
H801 C806 0.949 . S
H802 C808 0.950 . S
H803 C809 0.950 . S
H804 C810 0.949 . S
C805 H800 0.950 . S
C805 C807 1.327 . S
C805 C811 1.413 1_545 S
C806 C798 1.574 . S
C806 H801 0.949 . S
C806 C812 1.376 . S
C807 C791 1.318 1_545 S
C807 H799 0.950 . S
C807 C805 1.327 . S
C808 C796 1.326 1_565 S
C808 H802 0.950 . S
C808 C809 1.327 . S
C809 H803 0.950 . S
C809 C808 1.327 . S
C809 C813 1.422 1_565 S
C810 C793 1.574 . S
C810 H804 0.949 . S
C810 C814 1.367 . S
C811 C792 1.444 . S
C811 C805 1.413 1_565 S
C811 C812 1.523 . S
C812 C793 1.360 1_565 S
C812 C806 1.376 . S
C812 C811 1.523 . S
C813 C797 1.436 . S
C813 C809 1.422 1_545 S
C813 C814 1.523 . S
C814 C798 1.370 1_545 S
C814 C810 1.367 . S
C814 C813 1.523 . S
H815 C790 0.950 . S
H816 C792 0.950 . S
H817 C793 0.949 . S
H818 C795 0.950 . S
H819 C797 0.950 . S
C820 C821 1.349 . S
C820 C822 1.327 . S
C820 H845 0.950 . S
C821 C820 1.349 . S
C821 C837 1.349 . S
C822 C820 1.327 . S
C822 C841 1.429 . S
C822 H846 0.950 . S
C823 C840 1.574 1_655 S
C823 C842 1.368 . S
C823 H847 0.949 . S
H824 C828 0.949 . S
C825 C826 1.349 . S
C825 C827 1.327 . S
C825 H848 0.950 . S
C826 C825 1.349 . S
C826 C838 1.349 . S
C827 C825 1.327 . S
C827 C843 1.429 . S
C827 H849 0.950 . S
C828 H824 0.949 . S
C828 C836 1.574 1_455 S
C828 C844 1.368 . S
H829 C837 0.950 . S
H830 C835 0.950 . S
H831 C836 0.949 . S
H832 C838 0.950 . S
H833 C839 0.950 . S
H834 C840 0.949 . S
C835 H830 0.950 . S
C835 C837 1.327 . S
C835 C841 1.429 . S
C836 C828 1.574 1_655 S
C836 H831 0.949 . S
C836 C842 1.368 . S
C837 C821 1.349 . S
C837 H829 0.950 . S
C837 C835 1.327 . S
C838 C826 1.349 . S
C838 H832 0.950 . S
C838 C839 1.327 . S
C839 H833 0.950 . S
C839 C838 1.327 . S
C839 C843 1.429 . S
C840 C823 1.574 1_455 S
C840 H834 0.949 . S
C840 C844 1.368 . S
C841 C822 1.429 . S
C841 C835 1.429 . S
C841 C842 1.523 . S
C842 C823 1.368 . S
C842 C836 1.368 . S
C842 C841 1.523 . S
C843 C827 1.429 . S
C843 C839 1.429 . S
C843 C844 1.523 . S
C844 C828 1.368 . S
C844 C840 1.368 . S
C844 C843 1.523 . S
H845 C820 0.950 . S
H846 C822 0.950 . S
H847 C823 0.949 . S
H848 C825 0.950 . S
H849 C827 0.950 . S
C850 C851 1.349 . S
C850 C852 1.327 . S
C850 H875 0.950 . S
C851 C850 1.349 . S
C851 C867 1.349 . S
C852 C850 1.327 . S
C852 C871 1.429 . S
C852 H876 0.950 . S
C853 C870 1.574 . S
C853 C872 1.368 . S
C853 H877 0.949 . S
H854 C858 0.949 . S
C855 C856 1.349 . S
C855 C857 1.327 . S
C855 H878 0.950 . S
C856 C855 1.349 . S
C856 C868 1.349 . S
C857 C855 1.327 . S
C857 C873 1.429 . S
C857 H879 0.950 . S
C858 H854 0.949 . S
C858 C866 1.574 . S
C858 C874 1.368 . S
H859 C867 0.950 . S
H860 C865 0.950 . S
H861 C866 0.949 . S
H862 C868 0.950 . S
H863 C869 0.950 . S
H864 C870 0.949 . S
C865 H860 0.950 . S
C865 C867 1.327 . S
C865 C871 1.429 . S
C866 C858 1.574 . S
C866 H861 0.949 . S
C866 C872 1.368 . S
C867 C851 1.349 . S
C867 H859 0.950 . S
C867 C865 1.327 . S
C868 C856 1.349 . S
C868 H862 0.950 . S
C868 C869 1.327 . S
C869 H863 0.950 . S
C869 C868 1.327 . S
C869 C873 1.429 . S
C870 C853 1.574 . S
C870 H864 0.949 . S
C870 C874 1.368 . S
C871 C852 1.429 . S
C871 C865 1.429 . S
C871 C872 1.523 . S
C872 C853 1.368 . S
C872 C866 1.368 . S
C872 C871 1.523 . S
C873 C857 1.429 . S
C873 C869 1.429 . S
C873 C874 1.523 . S
C874 C858 1.368 . S
C874 C870 1.368 . S
C874 C873 1.523 . S
H875 C850 0.950 . S
H876 C852 0.950 . S
H877 C853 0.949 . S
H878 C855 0.950 . S
H879 C857 0.950 . S
C880 C881 1.349 . S
C880 C882 1.327 . S
C880 H905 0.950 . S
C881 C880 1.349 . S
C881 C897 1.349 . S
C882 C880 1.327 . S
C882 C901 1.429 . S
C882 H906 0.950 . S
C883 C900 1.574 1_655 S
C883 C902 1.368 . S
C883 H907 0.949 . S
H884 C888 0.949 . S
C885 C886 1.349 . S
C885 C887 1.327 . S
C885 H908 0.950 . S
C886 C885 1.349 . S
C886 C898 1.349 . S
C887 C885 1.327 . S
C887 C903 1.429 . S
C887 H909 0.950 . S
C888 H884 0.949 . S
C888 C896 1.574 1_455 S
C888 C904 1.368 . S
H889 C897 0.950 . S
H890 C895 0.950 . S
H891 C896 0.949 . S
H892 C898 0.950 . S
H893 C899 0.950 . S
H894 C900 0.949 . S
C895 H890 0.950 . S
C895 C897 1.327 . S
C895 C901 1.429 . S
C896 C888 1.574 1_655 S
C896 H891 0.949 . S
C896 C902 1.368 . S
C897 C881 1.349 . S
C897 H889 0.950 . S
C897 C895 1.327 . S
C898 C886 1.349 . S
C898 H892 0.950 . S
C898 C899 1.327 . S
C899 H893 0.950 . S
C899 C898 1.327 . S
C899 C903 1.429 . S
C900 C883 1.574 1_455 S
C900 H894 0.949 . S
C900 C904 1.368 . S
C901 C882 1.429 . S
C901 C895 1.429 . S
C901 C902 1.523 . S
C902 C883 1.368 . S
C902 C896 1.368 . S
C902 C901 1.523 . S
C903 C887 1.429 . S
C903 C899 1.429 . S
C903 C904 1.523 . S
C904 C888 1.368 . S
C904 C900 1.368 . S
C904 C903 1.523 . S
H905 C880 0.950 . S
H906 C882 0.950 . S
H907 C883 0.949 . S
H908 C885 0.950 . S
H909 C887 0.950 . S
C910 C911 1.349 . S
C910 C912 1.327 . S
C910 H935 0.950 . S
C911 C910 1.349 . S
C911 C927 1.349 . S
C912 C910 1.327 . S
C912 C931 1.429 . S
C912 H936 0.950 . S
C913 C930 1.574 . S
C913 C932 1.368 . S
C913 H937 0.949 . S
H914 C918 0.949 . S
C915 C916 1.349 . S
C915 C917 1.327 . S
C915 H938 0.950 . S
C916 C915 1.349 . S
C916 C928 1.349 . S
C917 C915 1.327 . S
C917 C933 1.429 . S
C917 H939 0.950 . S
C918 H914 0.949 . S
C918 C926 1.574 . S
C918 C934 1.368 . S
H919 C927 0.950 . S
H920 C925 0.950 . S
H921 C926 0.949 . S
H922 C928 0.950 . S
H923 C929 0.950 . S
H924 C930 0.949 . S
C925 H920 0.950 . S
C925 C927 1.327 . S
C925 C931 1.429 . S
C926 C918 1.574 . S
C926 H921 0.949 . S
C926 C932 1.368 . S
C927 C911 1.349 . S
C927 H919 0.950 . S
C927 C925 1.327 . S
C928 C916 1.349 . S
C928 H922 0.950 . S
C928 C929 1.327 . S
C929 H923 0.950 . S
C929 C928 1.327 . S
C929 C933 1.429 . S
C930 C913 1.574 . S
C930 H924 0.949 . S
C930 C934 1.368 . S
C931 C912 1.429 . S
C931 C925 1.429 . S
C931 C932 1.523 . S
C932 C913 1.368 . S
C932 C926 1.368 . S
C932 C931 1.523 . S
C933 C917 1.429 . S
C933 C929 1.429 . S
C933 C934 1.523 . S
C934 C918 1.368 . S
C934 C930 1.368 . S
C934 C933 1.523 . S
H935 C910 0.950 . S
H936 C912 0.950 . S
H937 C913 0.949 . S
H938 C915 0.950 . S
H939 C917 0.950 . S
C940 C941 1.349 . S
C940 C942 1.327 . S
C940 H965 0.950 . S
C941 C940 1.349 . S
C941 C957 1.349 . S
C942 C940 1.327 . S
C942 C961 1.429 . S
C942 H966 0.950 . S
C943 C960 1.574 . S
C943 C962 1.368 . S
C943 H967 0.949 . S
H944 C948 0.949 . S
C945 C946 1.349 . S
C945 C947 1.327 . S
C945 H968 0.950 . S
C946 C945 1.349 . S
C946 C958 1.349 . S
C947 C945 1.327 . S
C947 C963 1.429 . S
C947 H969 0.950 . S
C948 H944 0.949 . S
C948 C956 1.574 . S
C948 C964 1.368 . S
H949 C957 0.950 . S
H950 C955 0.950 . S
H951 C956 0.949 . S
H952 C958 0.950 . S
H953 C959 0.950 . S
H954 C960 0.949 . S
C955 H950 0.950 . S
C955 C957 1.327 . S
C955 C961 1.429 . S
C956 C948 1.574 . S
C956 H951 0.949 . S
C956 C962 1.368 . S
C957 C941 1.349 . S
C957 H949 0.950 . S
C957 C955 1.327 . S
C958 C946 1.349 . S
C958 H952 0.950 . S
C958 C959 1.327 . S
C959 H953 0.950 . S
C959 C958 1.327 . S
C959 C963 1.429 . S
C960 C943 1.574 . S
C960 H954 0.949 . S
C960 C964 1.368 . S
C961 C942 1.429 . S
C961 C955 1.429 . S
C961 C962 1.523 . S
C962 C943 1.368 . S
C962 C956 1.368 . S
C962 C961 1.523 . S
C963 C947 1.429 . S
C963 C959 1.429 . S
C963 C964 1.523 . S
C964 C948 1.368 . S
C964 C960 1.368 . S
C964 C963 1.523 . S
H965 C940 0.950 . S
H966 C942 0.950 . S
H967 C943 0.949 . S
H968 C945 0.950 . S
H969 C947 0.950 . S
C970 C971 1.349 . S
C970 C972 1.327 . S
C970 H995 0.950 . S
C971 C970 1.349 . S
C971 C987 1.349 . S
C972 C970 1.327 . S
C972 C991 1.429 . S
C972 H996 0.950 . S
C973 C990 1.574 . S
C973 C992 1.368 . S
C973 H997 0.949 . S
H974 C978 0.949 . S
C975 C976 1.349 . S
C975 C977 1.327 . S
C975 H998 0.950 . S
C976 C975 1.349 . S
C976 C988 1.349 . S
C977 C975 1.327 . S
C977 C993 1.429 . S
C977 H999 0.950 . S
C978 H974 0.949 . S
C978 C986 1.574 . S
C978 C994 1.368 . S
H979 C987 0.950 . S
H980 C985 0.950 . S
H981 C986 0.949 . S
H982 C988 0.950 . S
H983 C989 0.950 . S
H984 C990 0.949 . S
C985 H980 0.950 . S
C985 C987 1.327 . S
C985 C991 1.429 . S
C986 C978 1.574 . S
C986 H981 0.949 . S
C986 C992 1.368 . S
C987 C971 1.349 . S
C987 H979 0.950 . S
C987 C985 1.327 . S
C988 C976 1.349 . S
C988 H982 0.950 . S
C988 C989 1.327 . S
C989 H983 0.950 . S
C989 C988 1.327 . S
C989 C993 1.429 . S
C990 C973 1.574 . S
C990 H984 0.949 . S
C990 C994 1.368 . S
C991 C972 1.429 . S
C991 C985 1.429 . S
C991 C992 1.523 . S
C992 C973 1.368 . S
C992 C986 1.368 . S
C992 C991 1.523 . S
C993 C977 1.429 . S
C993 C989 1.429 . S
C993 C994 1.523 . S
C994 C978 1.368 . S
C994 C990 1.368 . S
C994 C993 1.523 . S
H995 C970 0.950 . S
H996 C972 0.950 . S
H997 C973 0.949 . S
H998 C975 0.950 . S
H999 C977 0.950 . S
C1000 C1001 1.320 1_545 S
C1000 C1002 1.327 . S
C1000 H1025 0.950 . S
C1001 C1000 1.320 1_565 S
C1001 C1017 1.379 . S
C1002 C1000 1.327 . S
C1002 C1021 1.414 1_545 S
C1002 H1026 0.950 . S
C1003 C1020 1.574 . S
C1003 C1022 1.376 . S
C1003 H1027 0.949 . S
H1004 C1008 0.949 . S
C1005 C1006 1.327 1_565 S
C1005 C1007 1.327 . S
C1005 H1028 0.950 . S
C1006 C1005 1.327 1_545 S
C1006 C1018 1.371 . S
C1007 C1005 1.327 . S
C1007 C1023 1.422 1_565 S
C1007 H1029 0.950 . S
C1008 H1004 0.949 . S
C1008 C1016 1.574 . S
C1008 C1024 1.367 . S
H1009 C1017 0.950 . S
H1010 C1015 0.950 . S
H1011 C1016 0.949 . S
H1012 C1018 0.950 . S
H1013 C1019 0.950 . S
H1014 C1020 0.949 . S
C1015 H1010 0.950 . S
C1015 C1017 1.327 . S
C1015 C1021 1.443 . S
C1016 C1008 1.574 . S
C1016 H1011 0.949 . S
C1016 C1022 1.361 1_545 S
C1017 C1001 1.379 . S
C1017 H1009 0.950 . S
C1017 C1015 1.327 . S
C1018 C1006 1.371 . S
C1018 H1012 0.950 . S
C1018 C1019 1.327 . S
C1019 H1013 0.950 . S
C1019 C1018 1.327 . S
C1019 C1023 1.435 . S
C1020 C1003 1.574 . S
C1020 H1014 0.949 . S
C1020 C1024 1.370 1_565 S
C1021 C1002 1.414 1_565 S
C1021 C1015 1.443 . S
C1021 C1022 1.523 . S
C1022 C1003 1.376 . S
C1022 C1016 1.361 1_565 S
C1022 C1021 1.523 . S
C1023 C1007 1.422 1_545 S
C1023 C1019 1.435 . S
C1023 C1024 1.523 . S
C1024 C1008 1.367 . S
C1024 C1020 1.370 1_545 S
C1024 C1023 1.523 . S
H1025 C1000 0.950 . S
H1026 C1002 0.950 . S
H1027 C1003 0.949 . S
H1028 C1005 0.950 . S
H1029 C1007 0.950 . S
C1030 C1031 1.349 . S
C1030 C1032 1.327 . S
C1030 H1055 0.950 . S
C1031 C1030 1.349 . S
C1031 C1047 1.349 . S
C1032 C1030 1.327 . S
C1032 C1051 1.429 . S
C1032 H1056 0.950 . S
C1033 C1050 1.574 . S
C1033 C1052 1.368 . S
C1033 H1057 0.949 . S
H1034 C1038 0.949 . S
C1035 C1036 1.349 . S
C1035 C1037 1.327 . S
C1035 H1058 0.950 . S
C1036 C1035 1.349 . S
C1036 C1048 1.349 . S
C1037 C1035 1.327 . S
C1037 C1053 1.429 . S
C1037 H1059 0.950 . S
C1038 H1034 0.949 . S
C1038 C1046 1.574 . S
C1038 C1054 1.368 . S
H1039 C1047 0.950 . S
H1040 C1045 0.950 . S
H1041 C1046 0.949 . S
H1042 C1048 0.950 . S
H1043 C1049 0.950 . S
H1044 C1050 0.949 . S
C1045 H1040 0.950 . S
C1045 C1047 1.327 . S
C1045 C1051 1.429 . S
C1046 C1038 1.574 . S
C1046 H1041 0.949 . S
C1046 C1052 1.368 . S
C1047 C1031 1.349 . S
C1047 H1039 0.950 . S
C1047 C1045 1.327 . S
C1048 C1036 1.349 . S
C1048 H1042 0.950 . S
C1048 C1049 1.327 . S
C1049 H1043 0.950 . S
C1049 C1048 1.327 . S
C1049 C1053 1.429 . S
C1050 C1033 1.574 . S
C1050 H1044 0.949 . S
C1050 C1054 1.368 . S
C1051 C1032 1.429 . S
C1051 C1045 1.429 . S
C1051 C1052 1.523 . S
C1052 C1033 1.368 . S
C1052 C1046 1.368 . S
C1052 C1051 1.523 . S
C1053 C1037 1.429 . S
C1053 C1049 1.429 . S
C1053 C1054 1.523 . S
C1054 C1038 1.368 . S
C1054 C1050 1.368 . S
C1054 C1053 1.523 . S
H1055 C1030 0.950 . S
H1056 C1032 0.950 . S
H1057 C1033 0.949 . S
H1058 C1035 0.950 . S
H1059 C1037 0.950 . S
C1060 C1061 1.349 . S
C1060 C1062 1.327 . S
C1060 H1085 0.950 . S
C1061 C1060 1.349 . S
C1061 C1077 1.349 . S
C1062 C1060 1.327 . S
C1062 C1081 1.429 . S
C1062 H1086 0.950 . S
C1063 C1080 1.574 . S
C1063 C1082 1.368 . S
C1063 H1087 0.949 . S
H1064 C1068 0.949 . S
C1065 C1066 1.349 . S
C1065 C1067 1.327 . S
C1065 H1088 0.950 . S
C1066 C1065 1.349 . S
C1066 C1078 1.349 . S
C1067 C1065 1.327 . S
C1067 C1083 1.429 . S
C1067 H1089 0.950 . S
C1068 H1064 0.949 . S
C1068 C1076 1.574 . S
C1068 C1084 1.368 . S
H1069 C1077 0.950 . S
H1070 C1075 0.950 . S
H1071 C1076 0.949 . S
H1072 C1078 0.950 . S
H1073 C1079 0.950 . S
H1074 C1080 0.949 . S
C1075 H1070 0.950 . S
C1075 C1077 1.327 . S
C1075 C1081 1.429 . S
C1076 C1068 1.574 . S
C1076 H1071 0.949 . S
C1076 C1082 1.368 . S
C1077 C1061 1.349 . S
C1077 H1069 0.950 . S
C1077 C1075 1.327 . S
C1078 C1066 1.349 . S
C1078 H1072 0.950 . S
C1078 C1079 1.327 . S
C1079 H1073 0.950 . S
C1079 C1078 1.327 . S
C1079 C1083 1.429 . S
C1080 C1063 1.574 . S
C1080 H1074 0.949 . S
C1080 C1084 1.368 . S
C1081 C1062 1.429 . S
C1081 C1075 1.429 . S
C1081 C1082 1.523 . S
C1082 C1063 1.368 . S
C1082 C1076 1.368 . S
C1082 C1081 1.523 . S
C1083 C1067 1.429 . S
C1083 C1079 1.429 . S
C1083 C1084 1.523 . S
C1084 C1068 1.368 . S
C1084 C1080 1.368 . S
C1084 C1083 1.523 . S
H1085 C1060 0.950 . S
H1086 C1062 0.950 . S
H1087 C1063 0.949 . S
H1088 C1065 0.950 . S
H1089 C1067 0.950 . S
C1090 C1091 1.349 . S
C1090 C1092 1.327 . S
C1090 H1115 0.950 . S
C1091 C1090 1.349 . S
C1091 C1107 1.349 . S
C1092 C1090 1.327 . S
C1092 C1111 1.429 . S
C1092 H1116 0.950 . S
C1093 C1110 1.574 . S
C1093 C1112 1.368 1_554 S
C1093 H1117 0.949 . S
H1094 C1098 0.949 . S
C1095 C1096 1.349 . S
C1095 C1097 1.327 . S
C1095 H1118 0.950 . S
C1096 C1095 1.349 . S
C1096 C1108 1.349 . S
C1097 C1095 1.327 . S
C1097 C1113 1.429 . S
C1097 H1119 0.950 . S
C1098 H1094 0.949 . S
C1098 C1106 1.574 . S
C1098 C1114 1.368 1_556 S
H1099 C1107 0.950 . S
H1100 C1105 0.950 . S
H1101 C1106 0.949 . S
H1102 C1108 0.950 . S
H1103 C1109 0.950 . S
H1104 C1110 0.949 . S
C1105 H1100 0.950 . S
C1105 C1107 1.327 . S
C1105 C1111 1.429 . S
C1106 C1098 1.574 . S
C1106 H1101 0.949 . S
C1106 C1112 1.368 . S
C1107 C1091 1.349 . S
C1107 H1099 0.950 . S
C1107 C1105 1.327 . S
C1108 C1096 1.349 . S
C1108 H1102 0.950 . S
C1108 C1109 1.327 . S
C1109 H1103 0.950 . S
C1109 C1108 1.327 . S
C1109 C1113 1.429 . S
C1110 C1093 1.574 . S
C1110 H1104 0.949 . S
C1110 C1114 1.368 . S
C1111 C1092 1.429 . S
C1111 C1105 1.429 . S
C1111 C1112 1.523 . S
C1112 C1093 1.368 1_556 S
C1112 C1106 1.368 . S
C1112 C1111 1.523 . S
C1113 C1097 1.429 . S
C1113 C1109 1.429 . S
C1113 C1114 1.523 . S
C1114 C1098 1.368 1_554 S
C1114 C1110 1.368 . S
C1114 C1113 1.523 . S
H1115 C1090 0.950 . S
H1116 C1092 0.950 . S
H1117 C1093 0.949 . S
H1118 C1095 0.950 . S
H1119 C1097 0.950 . S
C1120 C1121 1.349 . S
C1120 C1122 1.327 . S
C1120 H1145 0.950 . S
C1121 C1120 1.349 . S
C1121 C1137 1.349 . S
C1122 C1120 1.327 . S
C1122 C1141 1.429 . S
C1122 H1146 0.950 . S
C1123 C1140 1.574 . S
C1123 C1142 1.368 . S
C1123 H1147 0.949 . S
H1124 C1128 0.949 . S
C1125 C1126 1.349 . S
C1125 C1127 1.327 . S
C1125 H1148 0.950 . S
C1126 C1125 1.349 . S
C1126 C1138 1.349 . S
C1127 C1125 1.327 . S
C1127 C1143 1.429 . S
C1127 H1149 0.950 . S
C1128 H1124 0.949 . S
C1128 C1136 1.574 . S
C1128 C1144 1.368 . S
H1129 C1137 0.950 . S
H1130 C1135 0.950 . S
H1131 C1136 0.949 . S
H1132 C1138 0.950 . S
H1133 C1139 0.950 . S
H1134 C1140 0.949 . S
C1135 H1130 0.950 . S
C1135 C1137 1.327 . S
C1135 C1141 1.429 . S
C1136 C1128 1.574 . S
C1136 H1131 0.949 . S
C1136 C1142 1.368 . S
C1137 C1121 1.349 . S
C1137 H1129 0.950 . S
C1137 C1135 1.327 . S
C1138 C1126 1.349 . S
C1138 H1132 0.950 . S
C1138 C1139 1.327 . S
C1139 H1133 0.950 . S
C1139 C1138 1.327 . S
C1139 C1143 1.429 . S
C1140 C1123 1.574 . S
C1140 H1134 0.949 . S
C1140 C1144 1.368 . S
C1141 C1122 1.429 . S
C1141 C1135 1.429 . S
C1141 C1142 1.523 . S
C1142 C1123 1.368 . S
C1142 C1136 1.368 . S
C1142 C1141 1.523 . S
C1143 C1127 1.429 . S
C1143 C1139 1.429 . S
C1143 C1144 1.523 . S
C1144 C1128 1.368 . S
C1144 C1140 1.368 . S
C1144 C1143 1.523 . S
H1145 C1120 0.950 . S
H1146 C1122 0.950 . S
H1147 C1123 0.949 . S
H1148 C1125 0.950 . S
H1149 C1127 0.950 . S
C1150 C1151 1.317 1_565 S
C1150 C1152 1.327 . S
C1150 H1175 0.950 . S
C1151 C1150 1.317 1_545 S
C1151 C1167 1.382 . S
C1152 C1150 1.327 . S
C1152 C1171 1.398 1_565 S
C1152 H1176 0.950 . S
C1153 C1170 1.574 . S
C1153 C1172 1.403 . S
C1153 H1177 0.949 . S
H1154 C1158 0.949 . S
C1155 C1156 1.382 . S
C1155 C1157 1.327 . S
C1155 H1178 0.950 . S
C1156 C1155 1.382 . S
C1156 C1168 1.317 1_545 S
C1157 C1155 1.327 . S
C1157 C1173 1.460 . S
C1157 H1179 0.950 . S
C1158 H1154 0.949 . S
C1158 C1166 1.574 . S
C1158 C1174 1.334 1_565 S
H1159 C1167 0.950 . S
H1160 C1165 0.950 . S
H1161 C1166 0.949 . S
H1162 C1168 0.950 . S
H1163 C1169 0.950 . S
H1164 C1170 0.949 . S
C1165 H1160 0.950 . S
C1165 C1167 1.327 . S
C1165 C1171 1.460 . S
C1166 C1158 1.574 . S
C1166 H1161 0.949 . S
C1166 C1172 1.334 1_565 S
C1167 C1151 1.382 . S
C1167 H1159 0.950 . S
C1167 C1165 1.327 . S
C1168 C1156 1.317 1_565 S
C1168 H1162 0.950 . S
C1168 C1169 1.327 . S
C1169 H1163 0.950 . S
C1169 C1168 1.327 . S
C1169 C1173 1.398 1_565 S
C1170 C1153 1.574 . S
C1170 H1164 0.949 . S
C1170 C1174 1.403 . S
C1171 C1152 1.398 1_545 S
C1171 C1165 1.460 . S
C1171 C1172 1.523 . S
C1172 C1153 1.403 . S
C1172 C1166 1.334 1_545 S
C1172 C1171 1.523 . S
C1173 C1157 1.460 . S
C1173 C1169 1.398 1_545 S
C1173 C1174 1.523 . S
C1174 C1158 1.334 1_545 S
C1174 C1170 1.403 . S
C1174 C1173 1.523 . S
H1175 C1150 0.950 . S
H1176 C1152 0.950 . S
H1177 C1153 0.949 . S
H1178 C1155 0.950 . S
H1179 C1157 0.950 . S
C1180 C1181 1.382 . S
C1180 C1182 1.327 . S
C1180 H1205 0.950 . S
C1181 C1180 1.382 . S
C1181 C1197 1.317 1_545 S
C1182 C1180 1.327 . S
C1182 C1201 1.460 . S
C1182 H1206 0.950 . S
C1183 C1200 1.574 . S
C1183 C1202 1.334 1_565 S
C1183 H1207 0.949 . S
H1184 C1188 0.949 . S
C1185 C1186 1.317 1_565 S
C1185 C1187 1.327 . S
C1185 H1208 0.950 . S
C1186 C1185 1.317 1_545 S
C1186 C1198 1.382 . S
C1187 C1185 1.327 . S
C1187 C1203 1.398 1_565 S
C1187 H1209 0.950 . S
C1188 H1184 0.949 . S
C1188 C1196 1.574 . S
C1188 C1204 1.403 . S
H1189 C1197 0.950 . S
H1190 C1195 0.950 . S
H1191 C1196 0.949 . S
H1192 C1198 0.950 . S
H1193 C1199 0.950 . S
H1194 C1200 0.949 . S
C1195 H1190 0.950 . S
C1195 C1197 1.327 . S
C1195 C1201 1.398 1_565 S
C1196 C1188 1.574 . S
C1196 H1191 0.949 . S
C1196 C1202 1.403 . S
C1197 C1181 1.317 1_565 S
C1197 H1189 0.950 . S
C1197 C1195 1.327 . S
C1198 C1186 1.382 . S
C1198 H1192 0.950 . S
C1198 C1199 1.327 . S
C1199 H1193 0.950 . S
C1199 C1198 1.327 . S
C1199 C1203 1.460 . S
C1200 C1183 1.574 . S
C1200 H1194 0.949 . S
C1200 C1204 1.334 1_565 S
C1201 C1182 1.460 . S
C1201 C1195 1.398 1_545 S
C1201 C1202 1.523 . S
C1202 C1183 1.334 1_545 S
C1202 C1196 1.403 . S
C1202 C1201 1.523 . S
C1203 C1187 1.398 1_545 S
C1203 C1199 1.460 . S
C1203 C1204 1.523 . S
C1204 C1188 1.403 . S
C1204 C1200 1.334 1_545 S
C1204 C1203 1.523 . S
H1205 C1180 0.950 . S
H1206 C1182 0.950 . S
H1207 C1183 0.949 . S
H1208 C1185 0.950 . S
H1209 C1187 0.950 . S
C1210 C1211 1.349 . S
C1210 C1212 1.327 . S
C1210 H1235 0.950 . S
C1211 C1210 1.349 . S
C1211 C1227 1.349 . S
C1212 C1210 1.327 . S
C1212 C1231 1.429 . S
C1212 H1236 0.950 . S
C1213 C1230 1.574 . S
C1213 C1232 1.368 . S
C1213 H1237 0.949 . S
H1214 C1218 0.949 . S
C1215 C1216 1.349 . S
C1215 C1217 1.327 . S
C1215 H1238 0.950 . S
C1216 C1215 1.349 . S
C1216 C1228 1.349 . S
C1217 C1215 1.327 . S
C1217 C1233 1.429 . S
C1217 H1239 0.950 . S
C1218 H1214 0.949 . S
C1218 C1226 1.574 . S
C1218 C1234 1.368 . S
H1219 C1227 0.950 . S
H1220 C1225 0.950 . S
H1221 C1226 0.949 . S
H1222 C1228 0.950 . S
H1223 C1229 0.950 . S
H1224 C1230 0.949 . S
C1225 H1220 0.950 . S
C1225 C1227 1.327 . S
C1225 C1231 1.429 . S
C1226 C1218 1.574 . S
C1226 H1221 0.949 . S
C1226 C1232 1.368 . S
C1227 C1211 1.349 . S
C1227 H1219 0.950 . S
C1227 C1225 1.327 . S
C1228 C1216 1.349 . S
C1228 H1222 0.950 . S
C1228 C1229 1.327 . S
C1229 H1223 0.950 . S
C1229 C1228 1.327 . S
C1229 C1233 1.429 . S
C1230 C1213 1.574 . S
C1230 H1224 0.949 . S
C1230 C1234 1.368 . S
C1231 C1212 1.429 . S
C1231 C1225 1.429 . S
C1231 C1232 1.523 . S
C1232 C1213 1.368 . S
C1232 C1226 1.368 . S
C1232 C1231 1.523 . S
C1233 C1217 1.429 . S
C1233 C1229 1.429 . S
C1233 C1234 1.523 . S
C1234 C1218 1.368 . S
C1234 C1230 1.368 . S
C1234 C1233 1.523 . S
H1235 C1210 0.950 . S
H1236 C1212 0.950 . S
H1237 C1213 0.949 . S
H1238 C1215 0.950 . S
H1239 C1217 0.950 . S
C1240 C1241 1.349 . S
C1240 C1242 1.327 . S
C1240 H1265 0.950 . S
C1241 C1240 1.349 . S
C1241 C1257 1.349 . S
C1242 C1240 1.327 . S
C1242 C1261 1.429 . S
C1242 H1266 0.950 . S
C1243 C1260 1.574 . S
C1243 C1262 1.368 . S
C1243 H1267 0.949 . S
H1244 C1248 0.949 . S
C1245 C1246 1.349 . S
C1245 C1247 1.327 . S
C1245 H1268 0.950 . S
C1246 C1245 1.349 . S
C1246 C1258 1.349 . S
C1247 C1245 1.327 . S
C1247 C1263 1.429 . S
C1247 H1269 0.950 . S
C1248 H1244 0.949 . S
C1248 C1256 1.574 . S
C1248 C1264 1.368 . S
H1249 C1257 0.950 . S
H1250 C1255 0.950 . S
H1251 C1256 0.949 . S
H1252 C1258 0.950 . S
H1253 C1259 0.950 . S
H1254 C1260 0.949 . S
C1255 H1250 0.950 . S
C1255 C1257 1.327 . S
C1255 C1261 1.429 . S
C1256 C1248 1.574 . S
C1256 H1251 0.949 . S
C1256 C1262 1.368 . S
C1257 C1241 1.349 . S
C1257 H1249 0.950 . S
C1257 C1255 1.327 . S
C1258 C1246 1.349 . S
C1258 H1252 0.950 . S
C1258 C1259 1.327 . S
C1259 H1253 0.950 . S
C1259 C1258 1.327 . S
C1259 C1263 1.429 . S
C1260 C1243 1.574 . S
C1260 H1254 0.949 . S
C1260 C1264 1.368 . S
C1261 C1242 1.429 . S
C1261 C1255 1.429 . S
C1261 C1262 1.523 . S
C1262 C1243 1.368 . S
C1262 C1256 1.368 . S
C1262 C1261 1.523 . S
C1263 C1247 1.429 . S
C1263 C1259 1.429 . S
C1263 C1264 1.523 . S
C1264 C1248 1.368 . S
C1264 C1260 1.368 . S
C1264 C1263 1.523 . S
H1265 C1240 0.950 . S
H1266 C1242 0.950 . S
H1267 C1243 0.949 . S
H1268 C1245 0.950 . S
H1269 C1247 0.950 . S
C1270 C1271 1.317 1_545 S
C1270 C1272 1.327 . S
C1270 H1295 0.950 . S
C1271 C1270 1.317 1_565 S
C1271 C1287 1.382 . S
C1272 C1270 1.327 . S
C1272 C1291 1.398 1_545 S
C1272 H1296 0.950 . S
C1273 C1290 1.574 . S
C1273 C1292 1.403 . S
C1273 H1297 0.949 . S
H1274 C1278 0.949 . S
C1275 C1276 1.382 . S
C1275 C1277 1.327 . S
C1275 H1298 0.950 . S
C1276 C1275 1.382 . S
C1276 C1288 1.317 1_565 S
C1277 C1275 1.327 . S
C1277 C1293 1.460 . S
C1277 H1299 0.950 . S
C1278 H1274 0.949 . S
C1278 C1286 1.574 . S
C1278 C1294 1.334 1_545 S
H1279 C1287 0.950 . S
H1280 C1285 0.950 . S
H1281 C1286 0.949 . S
H1282 C1288 0.950 . S
H1283 C1289 0.950 . S
H1284 C1290 0.949 . S
C1285 H1280 0.950 . S
C1285 C1287 1.327 . S
C1285 C1291 1.460 . S
C1286 C1278 1.574 . S
C1286 H1281 0.949 . S
C1286 C1292 1.334 1_545 S
C1287 C1271 1.382 . S
C1287 H1279 0.950 . S
C1287 C1285 1.327 . S
C1288 C1276 1.317 1_545 S
C1288 H1282 0.950 . S
C1288 C1289 1.327 . S
C1289 H1283 0.950 . S
C1289 C1288 1.327 . S
C1289 C1293 1.398 1_545 S
C1290 C1273 1.574 . S
C1290 H1284 0.949 . S
C1290 C1294 1.403 . S
C1291 C1272 1.398 1_565 S
C1291 C1285 1.460 . S
C1291 C1292 1.523 . S
C1292 C1273 1.403 . S
C1292 C1286 1.334 1_565 S
C1292 C1291 1.523 . S
C1293 C1277 1.460 . S
C1293 C1289 1.398 1_565 S
C1293 C1294 1.523 . S
C1294 C1278 1.334 1_565 S
C1294 C1290 1.403 . S
C1294 C1293 1.523 . S
H1295 C1270 0.950 . S
H1296 C1272 0.950 . S
H1297 C1273 0.949 . S
H1298 C1275 0.950 . S
H1299 C1277 0.950 . S
C1300 C1301 1.382 . S
C1300 C1302 1.327 . S
C1300 H1325 0.950 . S
C1301 C1300 1.382 . S
C1301 C1317 1.317 1_565 S
C1302 C1300 1.327 . S
C1302 C1321 1.460 . S
C1302 H1326 0.950 . S
C1303 C1320 1.574 . S
C1303 C1322 1.334 1_545 S
C1303 H1327 0.949 . S
H1304 C1308 0.949 . S
C1305 C1306 1.317 1_545 S
C1305 C1307 1.327 . S
C1305 H1328 0.950 . S
C1306 C1305 1.317 1_565 S
C1306 C1318 1.382 . S
C1307 C1305 1.327 . S
C1307 C1323 1.398 1_545 S
C1307 H1329 0.950 . S
C1308 H1304 0.949 . S
C1308 C1316 1.574 . S
C1308 C1324 1.403 . S
H1309 C1317 0.950 . S
H1310 C1315 0.950 . S
H1311 C1316 0.949 . S
H1312 C1318 0.950 . S
H1313 C1319 0.950 . S
H1314 C1320 0.949 . S
C1315 H1310 0.950 . S
C1315 C1317 1.327 . S
C1315 C1321 1.398 1_545 S
C1316 C1308 1.574 . S
C1316 H1311 0.949 . S
C1316 C1322 1.403 . S
C1317 C1301 1.317 1_545 S
C1317 H1309 0.950 . S
C1317 C1315 1.327 . S
C1318 C1306 1.382 . S
C1318 H1312 0.950 . S
C1318 C1319 1.327 . S
C1319 H1313 0.950 . S
C1319 C1318 1.327 . S
C1319 C1323 1.460 . S
C1320 C1303 1.574 . S
C1320 H1314 0.949 . S
C1320 C1324 1.334 1_545 S
C1321 C1302 1.460 . S
C1321 C1315 1.398 1_565 S
C1321 C1322 1.523 . S
C1322 C1303 1.334 1_565 S
C1322 C1316 1.403 . S
C1322 C1321 1.523 . S
C1323 C1307 1.398 1_565 S
C1323 C1319 1.460 . S
C1323 C1324 1.523 . S
C1324 C1308 1.403 . S
C1324 C1320 1.334 1_565 S
C1324 C1323 1.523 . S
H1325 C1300 0.950 . S
H1326 C1302 0.950 . S
H1327 C1303 0.949 . S
H1328 C1305 0.950 . S
H1329 C1307 0.950 . S
C1330 C1331 1.349 . S
C1330 C1332 1.327 . S
C1330 H1355 0.950 . S
C1331 C1330 1.349 . S
C1331 C1347 1.349 . S
C1332 C1330 1.327 . S
C1332 C1351 1.429 . S
C1332 H1356 0.950 . S
C1333 C1350 1.574 . S
C1333 C1352 1.368 . S
C1333 H1357 0.949 . S
H1334 C1338 0.949 . S
C1335 C1336 1.349 . S
C1335 C1337 1.327 . S
C1335 H1358 0.950 . S
C1336 C1335 1.349 . S
C1336 C1348 1.349 . S
C1337 C1335 1.327 . S
C1337 C1353 1.429 . S
C1337 H1359 0.950 . S
C1338 H1334 0.949 . S
C1338 C1346 1.574 . S
C1338 C1354 1.368 . S
H1339 C1347 0.950 . S
H1340 C1345 0.950 . S
H1341 C1346 0.949 . S
H1342 C1348 0.950 . S
H1343 C1349 0.950 . S
H1344 C1350 0.949 . S
C1345 H1340 0.950 . S
C1345 C1347 1.327 . S
C1345 C1351 1.429 . S
C1346 C1338 1.574 . S
C1346 H1341 0.949 . S
C1346 C1352 1.368 . S
C1347 C1331 1.349 . S
C1347 H1339 0.950 . S
C1347 C1345 1.327 . S
C1348 C1336 1.349 . S
C1348 H1342 0.950 . S
C1348 C1349 1.327 . S
C1349 H1343 0.950 . S
C1349 C1348 1.327 . S
C1349 C1353 1.429 . S
C1350 C1333 1.574 . S
C1350 H1344 0.949 . S
C1350 C1354 1.368 . S
C1351 C1332 1.429 . S
C1351 C1345 1.429 . S
C1351 C1352 1.523 . S
C1352 C1333 1.368 . S
C1352 C1346 1.368 . S
C1352 C1351 1.523 . S
C1353 C1337 1.429 . S
C1353 C1349 1.429 . S
C1353 C1354 1.523 . S
C1354 C1338 1.368 . S
C1354 C1350 1.368 . S
C1354 C1353 1.523 . S
H1355 C1330 0.950 . S
H1356 C1332 0.950 . S
H1357 C1333 0.949 . S
H1358 C1335 0.950 . S
H1359 C1337 0.950 . S
C1360 C1361 1.349 . S
C1360 C1362 1.327 . S
C1360 H1385 0.950 . S
C1361 C1360 1.349 . S
C1361 C1377 1.349 . S
C1362 C1360 1.327 . S
C1362 C1381 1.429 . S
C1362 H1386 0.950 . S
C1363 C1380 1.574 . S
C1363 C1382 1.368 . S
C1363 H1387 0.949 . S
H1364 C1368 0.949 . S
C1365 C1366 1.349 . S
C1365 C1367 1.327 . S
C1365 H1388 0.950 . S
C1366 C1365 1.349 . S
C1366 C1378 1.349 . S
C1367 C1365 1.327 . S
C1367 C1383 1.429 . S
C1367 H1389 0.950 . S
C1368 H1364 0.949 . S
C1368 C1376 1.574 . S
C1368 C1384 1.368 . S
H1369 C1377 0.950 . S
H1370 C1375 0.950 . S
H1371 C1376 0.949 . S
H1372 C1378 0.950 . S
H1373 C1379 0.950 . S
H1374 C1380 0.949 . S
C1375 H1370 0.950 . S
C1375 C1377 1.327 . S
C1375 C1381 1.429 . S
C1376 C1368 1.574 . S
C1376 H1371 0.949 . S
C1376 C1382 1.368 . S
C1377 C1361 1.349 . S
C1377 H1369 0.950 . S
C1377 C1375 1.327 . S
C1378 C1366 1.349 . S
C1378 H1372 0.950 . S
C1378 C1379 1.327 . S
C1379 H1373 0.950 . S
C1379 C1378 1.327 . S
C1379 C1383 1.429 . S
C1380 C1363 1.574 . S
C1380 H1374 0.949 . S
C1380 C1384 1.368 . S
C1381 C1362 1.429 . S
C1381 C1375 1.429 . S
C1381 C1382 1.523 . S
C1382 C1363 1.368 . S
C1382 C1376 1.368 . S
C1382 C1381 1.523 . S
C1383 C1367 1.429 . S
C1383 C1379 1.429 . S
C1383 C1384 1.523 . S
C1384 C1368 1.368 . S
C1384 C1380 1.368 . S
C1384 C1383 1.523 . S
H1385 C1360 0.950 . S
H1386 C1362 0.950 . S
H1387 C1363 0.949 . S
H1388 C1365 0.950 . S
H1389 C1367 0.950 . S
C1390 C1391 1.349 . S
C1390 C1392 1.327 . S
C1390 H1415 0.950 . S
C1391 C1390 1.349 . S
C1391 C1407 1.349 . S
C1392 C1390 1.327 . S
C1392 C1411 1.429 . S
C1392 H1416 0.950 . S
C1393 C1410 1.574 . S
C1393 C1412 1.368 . S
C1393 H1417 0.949 . S
H1394 C1398 0.949 . S
C1395 C1396 1.349 . S
C1395 C1397 1.327 . S
C1395 H1418 0.950 . S
C1396 C1395 1.349 . S
C1396 C1408 1.349 . S
C1397 C1395 1.327 . S
C1397 C1413 1.429 . S
C1397 H1419 0.950 . S
C1398 H1394 0.949 . S
C1398 C1406 1.574 . S
C1398 C1414 1.368 . S
H1399 C1407 0.950 . S
H1400 C1405 0.950 . S
H1401 C1406 0.949 . S
H1402 C1408 0.950 . S
H1403 C1409 0.950 . S
H1404 C1410 0.949 . S
C1405 H1400 0.950 . S
C1405 C1407 1.327 . S
C1405 C1411 1.429 . S
C1406 C1398 1.574 . S
C1406 H1401 0.949 . S
C1406 C1412 1.368 . S
C1407 C1391 1.349 . S
C1407 H1399 0.950 . S
C1407 C1405 1.327 . S
C1408 C1396 1.349 . S
C1408 H1402 0.950 . S
C1408 C1409 1.327 . S
C1409 H1403 0.950 . S
C1409 C1408 1.327 . S
C1409 C1413 1.429 . S
C1410 C1393 1.574 . S
C1410 H1404 0.949 . S
C1410 C1414 1.368 . S
C1411 C1392 1.429 . S
C1411 C1405 1.429 . S
C1411 C1412 1.523 . S
C1412 C1393 1.368 . S
C1412 C1406 1.368 . S
C1412 C1411 1.523 . S
C1413 C1397 1.429 . S
C1413 C1409 1.429 . S
C1413 C1414 1.523 . S
C1414 C1398 1.368 . S
C1414 C1410 1.368 . S
C1414 C1413 1.523 . S
H1415 C1390 0.950 . S
H1416 C1392 0.950 . S
H1417 C1393 0.949 . S
H1418 C1395 0.950 . S
H1419 C1397 0.950 . S
C1420 C1421 1.349 . S
C1420 C1422 1.327 . S
C1420 H1445 0.950 . S
C1421 C1420 1.349 . S
C1421 C1437 1.349 . S
C1422 C1420 1.327 . S
C1422 C1441 1.429 . S
C1422 H1446 0.950 . S
C1423 C1440 1.574 . S
C1423 C1442 1.368 . S
C1423 H1447 0.949 . S
H1424 C1428 0.949 . S
C1425 C1426 1.349 . S
C1425 C1427 1.327 . S
C1425 H1448 0.950 . S
C1426 C1425 1.349 . S
C1426 C1438 1.349 . S
C1427 C1425 1.327 . S
C1427 C1443 1.429 . S
C1427 H1449 0.950 . S
C1428 H1424 0.949 . S
C1428 C1436 1.574 . S
C1428 C1444 1.368 . S
H1429 C1437 0.950 . S
H1430 C1435 0.950 . S
H1431 C1436 0.949 . S
H1432 C1438 0.950 . S
H1433 C1439 0.950 . S
H1434 C1440 0.949 . S
C1435 H1430 0.950 . S
C1435 C1437 1.327 . S
C1435 C1441 1.429 . S
C1436 C1428 1.574 . S
C1436 H1431 0.949 . S
C1436 C1442 1.368 . S
C1437 C1421 1.349 . S
C1437 H1429 0.950 . S
C1437 C1435 1.327 . S
C1438 C1426 1.349 . S
C1438 H1432 0.950 . S
C1438 C1439 1.327 . S
C1439 H1433 0.950 . S
C1439 C1438 1.327 . S
C1439 C1443 1.429 . S
C1440 C1423 1.574 . S
C1440 H1434 0.949 . S
C1440 C1444 1.368 . S
C1441 C1422 1.429 . S
C1441 C1435 1.429 . S
C1441 C1442 1.523 . S
C1442 C1423 1.368 . S
C1442 C1436 1.368 . S
C1442 C1441 1.523 . S
C1443 C1427 1.429 . S
C1443 C1439 1.429 . S
C1443 C1444 1.523 . S
C1444 C1428 1.368 . S
C1444 C1440 1.368 . S
C1444 C1443 1.523 . S
H1445 C1420 0.950 . S
H1446 C1422 0.950 . S
H1447 C1423 0.949 . S
H1448 C1425 0.950 . S
H1449 C1427 0.950 . S
C1450 C1451 1.349 . S
C1450 C1452 1.327 . S
C1450 H1475 0.950 . S
C1451 C1450 1.349 . S
C1451 C1467 1.349 . S
C1452 C1450 1.327 . S
C1452 C1471 1.429 . S
C1452 H1476 0.950 . S
C1453 C1470 1.574 . S
C1453 C1472 1.368 . S
C1453 H1477 0.949 . S
H1454 C1458 0.949 . S
C1455 C1456 1.349 . S
C1455 C1457 1.327 . S
C1455 H1478 0.950 . S
C1456 C1455 1.349 . S
C1456 C1468 1.349 . S
C1457 C1455 1.327 . S
C1457 C1473 1.429 . S
C1457 H1479 0.950 . S
C1458 H1454 0.949 . S
C1458 C1466 1.574 . S
C1458 C1474 1.368 . S
H1459 C1467 0.950 . S
H1460 C1465 0.950 . S
H1461 C1466 0.949 . S
H1462 C1468 0.950 . S
H1463 C1469 0.950 . S
H1464 C1470 0.949 . S
C1465 H1460 0.950 . S
C1465 C1467 1.327 . S
C1465 C1471 1.429 . S
C1466 C1458 1.574 . S
C1466 H1461 0.949 . S
C1466 C1472 1.368 . S
C1467 C1451 1.349 . S
C1467 H1459 0.950 . S
C1467 C1465 1.327 . S
C1468 C1456 1.349 . S
C1468 H1462 0.950 . S
C1468 C1469 1.327 . S
C1469 H1463 0.950 . S
C1469 C1468 1.327 . S
C1469 C1473 1.429 . S
C1470 C1453 1.574 . S
C1470 H1464 0.949 . S
C1470 C1474 1.368 . S
C1471 C1452 1.429 . S
C1471 C1465 1.429 . S
C1471 C1472 1.523 . S
C1472 C1453 1.368 . S
C1472 C1466 1.368 . S
C1472 C1471 1.523 . S
C1473 C1457 1.429 . S
C1473 C1469 1.429 . S
C1473 C1474 1.523 . S
C1474 C1458 1.368 . S
C1474 C1470 1.368 . S
C1474 C1473 1.523 . S
H1475 C1450 0.950 . S
H1476 C1452 0.950 . S
H1477 C1453 0.949 . S
H1478 C1455 0.950 . S
H1479 C1457 0.950 . S
C1480 C1481 1.349 . S
C1480 C1482 1.327 . S
C1480 H1505 0.950 . S
C1481 C1480 1.349 . S
C1481 C1497 1.349 . S
C1482 C1480 1.327 . S
C1482 C1501 1.429 . S
C1482 H1506 0.950 . S
C1483 C1500 1.574 . S
C1483 C1502 1.368 . S
C1483 H1507 0.949 . S
H1484 C1488 0.949 . S
C1485 C1486 1.349 . S
C1485 C1487 1.327 . S
C1485 H1508 0.950 . S
C1486 C1485 1.349 . S
C1486 C1498 1.349 . S
C1487 C1485 1.327 . S
C1487 C1503 1.429 . S
C1487 H1509 0.950 . S
C1488 H1484 0.949 . S
C1488 C1496 1.574 . S
C1488 C1504 1.368 . S
H1489 C1497 0.950 . S
H1490 C1495 0.950 . S
H1491 C1496 0.949 . S
H1492 C1498 0.950 . S
H1493 C1499 0.950 . S
H1494 C1500 0.949 . S
C1495 H1490 0.950 . S
C1495 C1497 1.327 . S
C1495 C1501 1.429 . S
C1496 C1488 1.574 . S
C1496 H1491 0.949 . S
C1496 C1502 1.368 . S
C1497 C1481 1.349 . S
C1497 H1489 0.950 . S
C1497 C1495 1.327 . S
C1498 C1486 1.349 . S
C1498 H1492 0.950 . S
C1498 C1499 1.327 . S
C1499 H1493 0.950 . S
C1499 C1498 1.327 . S
C1499 C1503 1.429 . S
C1500 C1483 1.574 . S
C1500 H1494 0.949 . S
C1500 C1504 1.368 . S
C1501 C1482 1.429 . S
C1501 C1495 1.429 . S
C1501 C1502 1.523 . S
C1502 C1483 1.368 . S
C1502 C1496 1.368 . S
C1502 C1501 1.523 . S
C1503 C1487 1.429 . S
C1503 C1499 1.429 . S
C1503 C1504 1.523 . S
C1504 C1488 1.368 . S
C1504 C1500 1.368 . S
C1504 C1503 1.523 . S
H1505 C1480 0.950 . S
H1506 C1482 0.950 . S
H1507 C1483 0.949 . S
H1508 C1485 0.950 . S
H1509 C1487 0.950 . S
C1510 C1511 1.349 . S
C1510 C1512 1.327 . S
C1510 H1535 0.950 . S
C1511 C1510 1.349 . S
C1511 C1527 1.349 . S
C1512 C1510 1.327 . S
C1512 C1531 1.429 . S
C1512 H1536 0.950 . S
C1513 C1530 1.574 . S
C1513 C1532 1.368 . S
C1513 H1537 0.949 . S
H1514 C1518 0.949 . S
C1515 C1516 1.349 . S
C1515 C1517 1.327 . S
C1515 H1538 0.950 . S
C1516 C1515 1.349 . S
C1516 C1528 1.349 . S
C1517 C1515 1.327 . S
C1517 C1533 1.429 . S
C1517 H1539 0.950 . S
C1518 H1514 0.949 . S
C1518 C1526 1.574 . S
C1518 C1534 1.368 . S
H1519 C1527 0.950 . S
H1520 C1525 0.950 . S
H1521 C1526 0.949 . S
H1522 C1528 0.950 . S
H1523 C1529 0.950 . S
H1524 C1530 0.949 . S
C1525 H1520 0.950 . S
C1525 C1527 1.327 . S
C1525 C1531 1.429 . S
C1526 C1518 1.574 . S
C1526 H1521 0.949 . S
C1526 C1532 1.368 . S
C1527 C1511 1.349 . S
C1527 H1519 0.950 . S
C1527 C1525 1.327 . S
C1528 C1516 1.349 . S
C1528 H1522 0.950 . S
C1528 C1529 1.327 . S
C1529 H1523 0.950 . S
C1529 C1528 1.327 . S
C1529 C1533 1.429 . S
C1530 C1513 1.574 . S
C1530 H1524 0.949 . S
C1530 C1534 1.368 . S
C1531 C1512 1.429 . S
C1531 C1525 1.429 . S
C1531 C1532 1.523 . S
C1532 C1513 1.368 . S
C1532 C1526 1.368 . S
C1532 C1531 1.523 . S
C1533 C1517 1.429 . S
C1533 C1529 1.429 . S
C1533 C1534 1.523 . S
C1534 C1518 1.368 . S
C1534 C1530 1.368 . S
C1534 C1533 1.523 . S
H1535 C1510 0.950 . S
H1536 C1512 0.950 . S
H1537 C1513 0.949 . S
H1538 C1515 0.950 . S
H1539 C1517 0.950 . S
C1540 C1541 1.349 . S
C1540 C1542 1.327 . S
C1540 H1565 0.950 . S
C1541 C1540 1.349 . S
C1541 C1557 1.349 . S
C1542 C1540 1.327 . S
C1542 C1561 1.429 . S
C1542 H1566 0.950 . S
C1543 C1560 1.574 . S
C1543 C1562 1.368 . S
C1543 H1567 0.949 . S
H1544 C1548 0.949 . S
C1545 C1546 1.349 . S
C1545 C1547 1.327 . S
C1545 H1568 0.950 . S
C1546 C1545 1.349 . S
C1546 C1558 1.349 . S
C1547 C1545 1.327 . S
C1547 C1563 1.429 . S
C1547 H1569 0.950 . S
C1548 H1544 0.949 . S
C1548 C1556 1.574 . S
C1548 C1564 1.368 . S
H1549 C1557 0.950 . S
H1550 C1555 0.950 . S
H1551 C1556 0.949 . S
H1552 C1558 0.950 . S
H1553 C1559 0.950 . S
H1554 C1560 0.949 . S
C1555 H1550 0.950 . S
C1555 C1557 1.327 . S
C1555 C1561 1.429 . S
C1556 C1548 1.574 . S
C1556 H1551 0.949 . S
C1556 C1562 1.368 . S
C1557 C1541 1.349 . S
C1557 H1549 0.950 . S
C1557 C1555 1.327 . S
C1558 C1546 1.349 . S
C1558 H1552 0.950 . S
C1558 C1559 1.327 . S
C1559 H1553 0.950 . S
C1559 C1558 1.327 . S
C1559 C1563 1.429 . S
C1560 C1543 1.574 . S
C1560 H1554 0.949 . S
C1560 C1564 1.368 . S
C1561 C1542 1.429 . S
C1561 C1555 1.429 . S
C1561 C1562 1.523 . S
C1562 C1543 1.368 . S
C1562 C1556 1.368 . S
C1562 C1561 1.523 . S
C1563 C1547 1.429 . S
C1563 C1559 1.429 . S
C1563 C1564 1.523 . S
C1564 C1548 1.368 . S
C1564 C1560 1.368 . S
C1564 C1563 1.523 . S
H1565 C1540 0.950 . S
H1566 C1542 0.950 . S
H1567 C1543 0.949 . S
H1568 C1545 0.950 . S
H1569 C1547 0.950 . S
C1570 C1571 1.349 . S
C1570 C1572 1.327 . S
C1570 H1595 0.950 . S
C1571 C1570 1.349 . S
C1571 C1587 1.349 . S
C1572 C1570 1.327 . S
C1572 C1591 1.429 . S
C1572 H1596 0.950 . S
C1573 C1590 1.574 . S
C1573 C1592 1.368 . S
C1573 H1597 0.949 . S
H1574 C1578 0.949 . S
C1575 C1576 1.349 . S
C1575 C1577 1.327 . S
C1575 H1598 0.950 . S
C1576 C1575 1.349 . S
C1576 C1588 1.349 . S
C1577 C1575 1.327 . S
C1577 C1593 1.429 . S
C1577 H1599 0.950 . S
C1578 H1574 0.949 . S
C1578 C1586 1.574 . S
C1578 C1594 1.368 . S
H1579 C1587 0.950 . S
H1580 C1585 0.950 . S
H1581 C1586 0.949 . S
H1582 C1588 0.950 . S
H1583 C1589 0.950 . S
H1584 C1590 0.949 . S
C1585 H1580 0.950 . S
C1585 C1587 1.327 . S
C1585 C1591 1.429 . S
C1586 C1578 1.574 . S
C1586 H1581 0.949 . S
C1586 C1592 1.368 . S
C1587 C1571 1.349 . S
C1587 H1579 0.950 . S
C1587 C1585 1.327 . S
C1588 C1576 1.349 . S
C1588 H1582 0.950 . S
C1588 C1589 1.327 . S
C1589 H1583 0.950 . S
C1589 C1588 1.327 . S
C1589 C1593 1.429 . S
C1590 C1573 1.574 . S
C1590 H1584 0.949 . S
C1590 C1594 1.368 . S
C1591 C1572 1.429 . S
C1591 C1585 1.429 . S
C1591 C1592 1.523 . S
C1592 C1573 1.368 . S
C1592 C1586 1.368 . S
C1592 C1591 1.523 . S
C1593 C1577 1.429 . S
C1593 C1589 1.429 . S
C1593 C1594 1.523 . S
C1594 C1578 1.368 . S
C1594 C1590 1.368 . S
C1594 C1593 1.523 . S
H1595 C1570 0.950 . S
H1596 C1572 0.950 . S
H1597 C1573 0.949 . S
H1598 C1575 0.950 . S
H1599 C1577 0.950 . S
C1600 C1601 1.349 . S
C1600 C1602 1.327 . S
C1600 H1625 0.950 . S
C1601 C1600 1.349 . S
C1601 C1617 1.349 . S
C1602 C1600 1.327 . S
C1602 C1621 1.429 . S
C1602 H1626 0.950 . S
C1603 C1620 1.574 . S
C1603 C1622 1.368 . S
C1603 H1627 0.949 . S
H1604 C1608 0.949 . S
C1605 C1606 1.349 . S
C1605 C1607 1.327 . S
C1605 H1628 0.950 . S
C1606 C1605 1.349 . S
C1606 C1618 1.349 . S
C1607 C1605 1.327 . S
C1607 C1623 1.429 . S
C1607 H1629 0.950 . S
C1608 H1604 0.949 . S
C1608 C1616 1.574 . S
C1608 C1624 1.368 . S
H1609 C1617 0.950 . S
H1610 C1615 0.950 . S
H1611 C1616 0.949 . S
H1612 C1618 0.950 . S
H1613 C1619 0.950 . S
H1614 C1620 0.949 . S
C1615 H1610 0.950 . S
C1615 C1617 1.327 . S
C1615 C1621 1.429 . S
C1616 C1608 1.574 . S
C1616 H1611 0.949 . S
C1616 C1622 1.368 . S
C1617 C1601 1.349 . S
C1617 H1609 0.950 . S
C1617 C1615 1.327 . S
C1618 C1606 1.349 . S
C1618 H1612 0.950 . S
C1618 C1619 1.327 . S
C1619 H1613 0.950 . S
C1619 C1618 1.327 . S
C1619 C1623 1.429 . S
C1620 C1603 1.574 . S
C1620 H1614 0.949 . S
C1620 C1624 1.368 . S
C1621 C1602 1.429 . S
C1621 C1615 1.429 . S
C1621 C1622 1.523 . S
C1622 C1603 1.368 . S
C1622 C1616 1.368 . S
C1622 C1621 1.523 . S
C1623 C1607 1.429 . S
C1623 C1619 1.429 . S
C1623 C1624 1.523 . S
C1624 C1608 1.368 . S
C1624 C1620 1.368 . S
C1624 C1623 1.523 . S
H1625 C1600 0.950 . S
H1626 C1602 0.950 . S
H1627 C1603 0.949 . S
H1628 C1605 0.950 . S
H1629 C1607 0.950 . S
C1630 C1631 1.349 1_565 S
C1630 C1632 1.327 . S
C1630 H1655 0.950 . S
C1631 C1630 1.349 1_545 S
C1631 C1647 1.349 . S
C1632 C1630 1.327 . S
C1632 C1651 1.429 1_565 S
C1632 H1656 0.950 . S
C1633 C1650 1.574 . S
C1633 C1652 1.368 . S
C1633 H1657 0.949 . S
H1634 C1638 0.949 . S
C1635 C1636 1.349 1_545 S
C1635 C1637 1.327 . S
C1635 H1658 0.950 . S
C1636 C1635 1.349 1_565 S
C1636 C1648 1.349 . S
C1637 C1635 1.327 . S
C1637 C1653 1.429 1_545 S
C1637 H1659 0.950 . S
C1638 H1634 0.949 . S
C1638 C1646 1.574 . S
C1638 C1654 1.368 . S
H1639 C1647 0.950 . S
H1640 C1645 0.950 . S
H1641 C1646 0.949 . S
H1642 C1648 0.950 . S
H1643 C1649 0.950 . S
H1644 C1650 0.949 . S
C1645 H1640 0.950 . S
C1645 C1647 1.327 . S
C1645 C1651 1.429 . S
C1646 C1638 1.574 . S
C1646 H1641 0.949 . S
C1646 C1652 1.368 1_565 S
C1647 C1631 1.349 . S
C1647 H1639 0.950 . S
C1647 C1645 1.327 . S
C1648 C1636 1.349 . S
C1648 H1642 0.950 . S
C1648 C1649 1.327 . S
C1649 H1643 0.950 . S
C1649 C1648 1.327 . S
C1649 C1653 1.429 . S
C1650 C1633 1.574 . S
C1650 H1644 0.949 . S
C1650 C1654 1.368 1_545 S
C1651 C1632 1.429 1_545 S
C1651 C1645 1.429 . S
C1651 C1652 1.523 . S
C1652 C1633 1.368 . S
C1652 C1646 1.368 1_545 S
C1652 C1651 1.523 . S
C1653 C1637 1.429 1_565 S
C1653 C1649 1.429 . S
C1653 C1654 1.523 . S
C1654 C1638 1.368 . S
C1654 C1650 1.368 1_565 S
C1654 C1653 1.523 . S
H1655 C1630 0.950 . S
H1656 C1632 0.950 . S
H1657 C1633 0.949 . S
H1658 C1635 0.950 . S
H1659 C1637 0.950 . S
C1660 C1661 1.349 . S
C1660 C1662 1.327 . S
C1660 H1685 0.950 . S
C1661 C1660 1.349 . S
C1661 C1677 1.349 1_565 S
C1662 C1660 1.327 . S
C1662 C1681 1.429 . S
C1662 H1686 0.950 . S
C1663 C1680 1.574 . S
C1663 C1682 1.368 1_545 S
C1663 H1687 0.949 . S
H1664 C1668 0.949 . S
C1665 C1666 1.349 . S
C1665 C1667 1.327 . S
C1665 H1688 0.950 . S
C1666 C1665 1.349 . S
C1666 C1678 1.349 1_545 S
C1667 C1665 1.327 . S
C1667 C1683 1.429 . S
C1667 H1689 0.950 . S
C1668 H1664 0.949 . S
C1668 C1676 1.574 . S
C1668 C1684 1.368 1_565 S
H1669 C1677 0.950 . S
H1670 C1675 0.950 . S
H1671 C1676 0.949 . S
H1672 C1678 0.950 . S
H1673 C1679 0.950 . S
H1674 C1680 0.949 . S
C1675 H1670 0.950 . S
C1675 C1677 1.327 . S
C1675 C1681 1.429 1_545 S
C1676 C1668 1.574 . S
C1676 H1671 0.949 . S
C1676 C1682 1.368 . S
C1677 C1661 1.349 1_545 S
C1677 H1669 0.950 . S
C1677 C1675 1.327 . S
C1678 C1666 1.349 1_565 S
C1678 H1672 0.950 . S
C1678 C1679 1.327 . S
C1679 H1673 0.950 . S
C1679 C1678 1.327 . S
C1679 C1683 1.429 1_565 S
C1680 C1663 1.574 . S
C1680 H1674 0.949 . S
C1680 C1684 1.368 . S
C1681 C1662 1.429 . S
C1681 C1675 1.429 1_565 S
C1681 C1682 1.523 . S
C1682 C1663 1.368 1_565 S
C1682 C1676 1.368 . S
C1682 C1681 1.523 . S
C1683 C1667 1.429 . S
C1683 C1679 1.429 1_545 S
C1683 C1684 1.523 . S
C1684 C1668 1.368 1_545 S
C1684 C1680 1.368 . S
C1684 C1683 1.523 . S
H1685 C1660 0.950 . S
H1686 C1662 0.950 . S
H1687 C1663 0.949 . S
H1688 C1665 0.950 . S
H1689 C1667 0.950 . S
C1690 C1691 1.349 . S
C1690 C1692 1.327 . S
C1690 H1715 0.950 . S
C1691 C1690 1.349 . S
C1691 C1707 1.349 . S
C1692 C1690 1.327 . S
C1692 C1711 1.429 . S
C1692 H1716 0.950 . S
C1693 C1710 1.574 . S
C1693 C1712 1.368 . S
C1693 H1717 0.949 . S
H1694 C1698 0.949 . S
C1695 C1696 1.349 . S
C1695 C1697 1.327 . S
C1695 H1718 0.950 . S
C1696 C1695 1.349 . S
C1696 C1708 1.349 . S
C1697 C1695 1.327 . S
C1697 C1713 1.429 . S
C1697 H1719 0.950 . S
C1698 H1694 0.949 . S
C1698 C1706 1.574 . S
C1698 C1714 1.368 . S
H1699 C1707 0.950 . S
H1700 C1705 0.950 . S
H1701 C1706 0.949 . S
H1702 C1708 0.950 . S
H1703 C1709 0.950 . S
H1704 C1710 0.949 . S
C1705 H1700 0.950 . S
C1705 C1707 1.327 . S
C1705 C1711 1.429 . S
C1706 C1698 1.574 . S
C1706 H1701 0.949 . S
C1706 C1712 1.368 . S
C1707 C1691 1.349 . S
C1707 H1699 0.950 . S
C1707 C1705 1.327 . S
C1708 C1696 1.349 . S
C1708 H1702 0.950 . S
C1708 C1709 1.327 . S
C1709 H1703 0.950 . S
C1709 C1708 1.327 . S
C1709 C1713 1.429 . S
C1710 C1693 1.574 . S
C1710 H1704 0.949 . S
C1710 C1714 1.368 . S
C1711 C1692 1.429 . S
C1711 C1705 1.429 . S
C1711 C1712 1.523 . S
C1712 C1693 1.368 . S
C1712 C1706 1.368 . S
C1712 C1711 1.523 . S
C1713 C1697 1.429 . S
C1713 C1709 1.429 . S
C1713 C1714 1.523 . S
C1714 C1698 1.368 . S
C1714 C1710 1.368 . S
C1714 C1713 1.523 . S
H1715 C1690 0.950 . S
H1716 C1692 0.950 . S
H1717 C1693 0.949 . S
H1718 C1695 0.950 . S
H1719 C1697 0.950 . S
C1720 C1721 1.349 . S
C1720 C1722 1.327 . S
C1720 H1745 0.950 . S
C1721 C1720 1.349 . S
C1721 C1737 1.349 . S
C1722 C1720 1.327 . S
C1722 C1741 1.429 . S
C1722 H1746 0.950 . S
C1723 C1740 1.574 . S
C1723 C1742 1.368 . S
C1723 H1747 0.949 . S
H1724 C1728 0.949 . S
C1725 C1726 1.349 . S
C1725 C1727 1.327 . S
C1725 H1748 0.950 . S
C1726 C1725 1.349 . S
C1726 C1738 1.349 . S
C1727 C1725 1.327 . S
C1727 C1743 1.429 . S
C1727 H1749 0.950 . S
C1728 H1724 0.949 . S
C1728 C1736 1.574 . S
C1728 C1744 1.368 . S
H1729 C1737 0.950 . S
H1730 C1735 0.950 . S
H1731 C1736 0.949 . S
H1732 C1738 0.950 . S
H1733 C1739 0.950 . S
H1734 C1740 0.949 . S
C1735 H1730 0.950 . S
C1735 C1737 1.327 . S
C1735 C1741 1.429 . S
C1736 C1728 1.574 . S
C1736 H1731 0.949 . S
C1736 C1742 1.368 . S
C1737 C1721 1.349 . S
C1737 H1729 0.950 . S
C1737 C1735 1.327 . S
C1738 C1726 1.349 . S
C1738 H1732 0.950 . S
C1738 C1739 1.327 . S
C1739 H1733 0.950 . S
C1739 C1738 1.327 . S
C1739 C1743 1.429 . S
C1740 C1723 1.574 . S
C1740 H1734 0.949 . S
C1740 C1744 1.368 . S
C1741 C1722 1.429 . S
C1741 C1735 1.429 . S
C1741 C1742 1.523 . S
C1742 C1723 1.368 . S
C1742 C1736 1.368 . S
C1742 C1741 1.523 . S
C1743 C1727 1.429 . S
C1743 C1739 1.429 . S
C1743 C1744 1.523 . S
C1744 C1728 1.368 . S
C1744 C1740 1.368 . S
C1744 C1743 1.523 . S
H1745 C1720 0.950 . S
H1746 C1722 0.950 . S
H1747 C1723 0.949 . S
H1748 C1725 0.950 . S
H1749 C1727 0.950 . S
C1750 C1751 1.349 . S
C1750 C1752 1.327 . S
C1750 H1775 0.950 . S
C1751 C1750 1.349 . S
C1751 C1767 1.349 1_545 S
C1752 C1750 1.327 . S
C1752 C1771 1.429 . S
C1752 H1776 0.950 . S
C1753 C1770 1.574 . S
C1753 C1772 1.368 1_565 S
C1753 H1777 0.949 . S
H1754 C1758 0.949 . S
C1755 C1756 1.349 . S
C1755 C1757 1.327 . S
C1755 H1778 0.950 . S
C1756 C1755 1.349 . S
C1756 C1768 1.349 1_565 S
C1757 C1755 1.327 . S
C1757 C1773 1.429 . S
C1757 H1779 0.950 . S
C1758 H1754 0.949 . S
C1758 C1766 1.574 . S
C1758 C1774 1.368 1_545 S
H1759 C1767 0.950 . S
H1760 C1765 0.950 . S
H1761 C1766 0.949 . S
H1762 C1768 0.950 . S
H1763 C1769 0.950 . S
H1764 C1770 0.949 . S
C1765 H1760 0.950 . S
C1765 C1767 1.327 . S
C1765 C1771 1.429 1_565 S
C1766 C1758 1.574 . S
C1766 H1761 0.949 . S
C1766 C1772 1.368 . S
C1767 C1751 1.349 1_565 S
C1767 H1759 0.950 . S
C1767 C1765 1.327 . S
C1768 C1756 1.349 1_545 S
C1768 H1762 0.950 . S
C1768 C1769 1.327 . S
C1769 H1763 0.950 . S
C1769 C1768 1.327 . S
C1769 C1773 1.429 1_545 S
C1770 C1753 1.574 . S
C1770 H1764 0.949 . S
C1770 C1774 1.368 . S
C1771 C1752 1.429 . S
C1771 C1765 1.429 1_545 S
C1771 C1772 1.523 . S
C1772 C1753 1.368 1_545 S
C1772 C1766 1.368 . S
C1772 C1771 1.523 . S
C1773 C1757 1.429 . S
C1773 C1769 1.429 1_565 S
C1773 C1774 1.523 . S
C1774 C1758 1.368 1_565 S
C1774 C1770 1.368 . S
C1774 C1773 1.523 . S
H1775 C1750 0.950 . S
H1776 C1752 0.950 . S
H1777 C1753 0.949 . S
H1778 C1755 0.950 . S
H1779 C1757 0.950 . S
C1780 C1781 1.349 . S
C1780 C1782 1.327 . S
C1780 H1805 0.950 . S
C1781 C1780 1.349 . S
C1781 C1797 1.349 1_545 S
C1782 C1780 1.327 . S
C1782 C1801 1.429 . S
C1782 H1806 0.950 . S
C1783 C1800 1.574 . S
C1783 C1802 1.368 1_565 S
C1783 H1807 0.949 . S
H1784 C1788 0.949 . S
C1785 C1786 1.349 . S
C1785 C1787 1.327 . S
C1785 H1808 0.950 . S
C1786 C1785 1.349 . S
C1786 C1798 1.349 1_565 S
C1787 C1785 1.327 . S
C1787 C1803 1.429 . S
C1787 H1809 0.950 . S
C1788 H1784 0.949 . S
C1788 C1796 1.574 . S
C1788 C1804 1.368 1_545 S
H1789 C1797 0.950 . S
H1790 C1795 0.950 . S
H1791 C1796 0.949 . S
H1792 C1798 0.950 . S
H1793 C1799 0.950 . S
H1794 C1800 0.949 . S
C1795 H1790 0.950 . S
C1795 C1797 1.327 . S
C1795 C1801 1.429 1_565 S
C1796 C1788 1.574 . S
C1796 H1791 0.949 . S
C1796 C1802 1.368 . S
C1797 C1781 1.349 1_565 S
C1797 H1789 0.950 . S
C1797 C1795 1.327 . S
C1798 C1786 1.349 1_545 S
C1798 H1792 0.950 . S
C1798 C1799 1.327 . S
C1799 H1793 0.950 . S
C1799 C1798 1.327 . S
C1799 C1803 1.429 1_545 S
C1800 C1783 1.574 . S
C1800 H1794 0.949 . S
C1800 C1804 1.368 . S
C1801 C1782 1.429 . S
C1801 C1795 1.429 1_545 S
C1801 C1802 1.523 . S
C1802 C1783 1.368 1_545 S
C1802 C1796 1.368 . S
C1802 C1801 1.523 . S
C1803 C1787 1.429 . S
C1803 C1799 1.429 1_565 S
C1803 C1804 1.523 . S
C1804 C1788 1.368 1_565 S
C1804 C1800 1.368 . S
C1804 C1803 1.523 . S
H1805 C1780 0.950 . S
H1806 C1782 0.950 . S
H1807 C1783 0.949 . S
H1808 C1785 0.950 . S
H1809 C1787 0.950 . S
C1810 C1811 1.349 . S
C1810 C1812 1.327 . S
C1810 H1835 0.950 . S
C1811 C1810 1.349 . S
C1811 C1827 1.349 . S
C1812 C1810 1.327 . S
C1812 C1831 1.429 . S
C1812 H1836 0.950 . S
C1813 C1830 1.574 . S
C1813 C1832 1.368 . S
C1813 H1837 0.949 . S
H1814 C1818 0.949 . S
C1815 C1816 1.349 . S
C1815 C1817 1.327 . S
C1815 H1838 0.950 . S
C1816 C1815 1.349 . S
C1816 C1828 1.349 . S
C1817 C1815 1.327 . S
C1817 C1833 1.429 . S
C1817 H1839 0.950 . S
C1818 H1814 0.949 . S
C1818 C1826 1.574 . S
C1818 C1834 1.368 . S
H1819 C1827 0.950 . S
H1820 C1825 0.950 . S
H1821 C1826 0.949 . S
H1822 C1828 0.950 . S
H1823 C1829 0.950 . S
H1824 C1830 0.949 . S
C1825 H1820 0.950 . S
C1825 C1827 1.327 . S
C1825 C1831 1.429 . S
C1826 C1818 1.574 . S
C1826 H1821 0.949 . S
C1826 C1832 1.368 . S
C1827 C1811 1.349 . S
C1827 H1819 0.950 . S
C1827 C1825 1.327 . S
C1828 C1816 1.349 . S
C1828 H1822 0.950 . S
C1828 C1829 1.327 . S
C1829 H1823 0.950 . S
C1829 C1828 1.327 . S
C1829 C1833 1.429 . S
C1830 C1813 1.574 . S
C1830 H1824 0.949 . S
C1830 C1834 1.368 . S
C1831 C1812 1.429 . S
C1831 C1825 1.429 . S
C1831 C1832 1.523 . S
C1832 C1813 1.368 . S
C1832 C1826 1.368 . S
C1832 C1831 1.523 . S
C1833 C1817 1.429 . S
C1833 C1829 1.429 . S
C1833 C1834 1.523 . S
C1834 C1818 1.368 . S
C1834 C1830 1.368 . S
C1834 C1833 1.523 . S
H1835 C1810 0.950 . S
H1836 C1812 0.950 . S
H1837 C1813 0.949 . S
H1838 C1815 0.950 . S
H1839 C1817 0.950 . S
C1840 C1841 1.349 1_554 S
C1840 C1842 1.327 . S
C1840 H1865 0.950 1_554 S
C1841 C1840 1.349 1_556 S
C1841 C1857 1.356 . S
C1842 C1840 1.327 . S
C1842 C1861 1.429 . S
C1842 H1866 0.950 . S
C1843 C1860 1.574 . S
C1843 C1862 1.368 . S
C1843 H1867 0.949 . S
H1844 C1848 0.949 . S
C1845 C1846 1.349 . S
C1845 C1847 1.327 . S
C1845 H1868 0.950 . S
C1846 C1845 1.349 . S
C1846 C1858 1.349 . S
C1847 C1845 1.327 . S
C1847 C1863 1.429 . S
C1847 H1869 0.950 . S
C1848 H1844 0.949 . S
C1848 C1856 1.574 . S
C1848 C1864 1.368 . S
H1849 C1857 0.959 . S
H1850 C1855 0.950 . S
H1851 C1856 0.949 . S
H1852 C1858 0.950 . S
H1853 C1859 0.950 . S
H1854 C1860 0.949 . S
C1855 H1850 0.950 . S
C1855 C1857 1.311 1_554 S
C1855 C1861 1.429 . S
C1856 C1848 1.574 . S
C1856 H1851 0.949 . S
C1856 C1862 1.368 . S
C1857 C1841 1.356 . S
C1857 H1849 0.959 . S
C1857 C1855 1.311 1_556 S
C1858 C1846 1.349 . S
C1858 H1852 0.950 . S
C1858 C1859 1.327 . S
C1859 H1853 0.950 . S
C1859 C1858 1.327 . S
C1859 C1863 1.429 . S
C1860 C1843 1.574 . S
C1860 H1854 0.949 . S
C1860 C1864 1.368 . S
C1861 C1842 1.429 . S
C1861 C1855 1.429 . S
C1861 C1862 1.523 . S
C1862 C1843 1.368 . S
C1862 C1856 1.368 . S
C1862 C1861 1.523 . S
C1863 C1847 1.429 . S
C1863 C1859 1.429 . S
C1863 C1864 1.523 . S
C1864 C1848 1.368 . S
C1864 C1860 1.368 . S
C1864 C1863 1.523 . S
H1865 C1840 0.950 1_556 S
H1866 C1842 0.950 . S
H1867 C1843 0.949 . S
H1868 C1845 0.950 . S
H1869 C1847 0.950 . S
C1870 C1871 1.349 . S
C1870 C1872 1.327 . S
C1870 H1895 0.950 . S
C1871 C1870 1.349 . S
C1871 C1887 1.349 . S
C1872 C1870 1.327 . S
C1872 C1891 1.429 . S
C1872 H1896 0.950 . S
C1873 C1890 1.574 . S
C1873 C1892 1.368 . S
C1873 H1897 0.949 . S
H1874 C1878 0.949 . S
C1875 C1876 1.349 1_554 S
C1875 C1877 1.327 . S
C1875 H1898 0.950 1_554 S
C1876 C1875 1.349 1_556 S
C1876 C1888 1.349 1_556 S
C1877 C1875 1.327 . S
C1877 C1893 1.429 . S
C1877 H1899 0.950 . S
C1878 H1874 0.949 . S
C1878 C1886 1.574 . S
C1878 C1894 1.368 . S
H1879 C1887 0.950 . S
H1880 C1885 0.950 . S
H1881 C1886 0.949 . S
H1882 C1888 0.950 1_556 S
H1883 C1889 0.950 . S
H1884 C1890 0.949 . S
C1885 H1880 0.950 . S
C1885 C1887 1.327 . S
C1885 C1891 1.429 . S
C1886 C1878 1.574 . S
C1886 H1881 0.949 . S
C1886 C1892 1.368 . S
C1887 C1871 1.349 . S
C1887 H1879 0.950 . S
C1887 C1885 1.327 . S
C1888 C1876 1.349 1_554 S
C1888 H1882 0.950 1_554 S
C1888 C1889 1.327 . S
C1889 H1883 0.950 . S
C1889 C1888 1.327 . S
C1889 C1893 1.429 . S
C1890 C1873 1.574 . S
C1890 H1884 0.949 . S
C1890 C1894 1.368 . S
C1891 C1872 1.429 . S
C1891 C1885 1.429 . S
C1891 C1892 1.523 . S
C1892 C1873 1.368 . S
C1892 C1886 1.368 . S
C1892 C1891 1.523 . S
C1893 C1877 1.429 . S
C1893 C1889 1.429 . S
C1893 C1894 1.523 . S
C1894 C1878 1.368 . S
C1894 C1890 1.368 . S
C1894 C1893 1.523 . S
H1895 C1870 0.950 . S
H1896 C1872 0.950 . S
H1897 C1873 0.949 . S
H1898 C1875 0.950 1_556 S
H1899 C1877 0.950 . S
C1900 C1901 1.349 . S
C1900 C1902 1.327 . S
C1900 H1925 0.950 . S
C1901 C1900 1.349 . S
C1901 C1917 1.349 . S
C1902 C1900 1.327 . S
C1902 C1921 1.429 . S
C1902 H1926 0.950 . S
C1903 C1920 1.574 1_556 S
C1903 C1922 1.368 . S
C1903 H1927 0.949 . S
H1904 C1908 0.949 . S
C1905 C1906 1.349 . S
C1905 C1907 1.327 . S
C1905 H1928 0.950 . S
C1906 C1905 1.349 . S
C1906 C1918 1.349 . S
C1907 C1905 1.327 . S
C1907 C1923 1.429 . S
C1907 H1929 0.950 . S
C1908 H1904 0.949 . S
C1908 C1916 1.574 1_554 S
C1908 C1924 1.368 . S
H1909 C1917 0.950 . S
H1910 C1915 0.950 . S
H1911 C1916 0.949 . S
H1912 C1918 0.950 . S
H1913 C1919 0.950 . S
H1914 C1920 0.949 . S
C1915 H1910 0.950 . S
C1915 C1917 1.327 . S
C1915 C1921 1.429 . S
C1916 C1908 1.574 1_556 S
C1916 H1911 0.949 . S
C1916 C1922 1.368 . S
C1917 C1901 1.349 . S
C1917 H1909 0.950 . S
C1917 C1915 1.327 . S
C1918 C1906 1.349 . S
C1918 H1912 0.950 . S
C1918 C1919 1.327 . S
C1919 H1913 0.950 . S
C1919 C1918 1.327 . S
C1919 C1923 1.429 . S
C1920 C1903 1.574 1_554 S
C1920 H1914 0.949 . S
C1920 C1924 1.368 . S
C1921 C1902 1.429 . S
C1921 C1915 1.429 . S
C1921 C1922 1.523 . S
C1922 C1903 1.368 . S
C1922 C1916 1.368 . S
C1922 C1921 1.523 . S
C1923 C1907 1.429 . S
C1923 C1919 1.429 . S
C1923 C1924 1.523 . S
C1924 C1908 1.368 . S
C1924 C1920 1.368 . S
C1924 C1923 1.523 . S
H1925 C1900 0.950 . S
H1926 C1902 0.950 . S
H1927 C1903 0.949 . S
H1928 C1905 0.950 . S
H1929 C1907 0.950 . S
C1930 C1931 1.349 . S
C1930 C1932 1.327 . S
C1930 H1955 0.950 . S
C1931 C1930 1.349 . S
C1931 C1947 1.349 . S
C1932 C1930 1.327 . S
C1932 C1951 1.429 . S
C1932 H1956 0.950 . S
C1933 C1950 1.574 1_556 S
C1933 C1952 1.368 . S
C1933 H1957 0.949 . S
H1934 C1938 0.949 . S
C1935 C1936 1.349 . S
C1935 C1937 1.327 . S
C1935 H1958 0.950 . S
C1936 C1935 1.349 . S
C1936 C1948 1.349 . S
C1937 C1935 1.327 . S
C1937 C1953 1.429 . S
C1937 H1959 0.950 . S
C1938 H1934 0.949 . S
C1938 C1946 1.574 1_554 S
C1938 C1954 1.368 . S
H1939 C1947 0.950 . S
H1940 C1945 0.950 . S
H1941 C1946 0.949 . S
H1942 C1948 0.950 . S
H1943 C1949 0.950 . S
H1944 C1950 0.949 . S
C1945 H1940 0.950 . S
C1945 C1947 1.327 . S
C1945 C1951 1.429 . S
C1946 C1938 1.574 1_556 S
C1946 H1941 0.949 . S
C1946 C1952 1.368 . S
C1947 C1931 1.349 . S
C1947 H1939 0.950 . S
C1947 C1945 1.327 . S
C1948 C1936 1.349 . S
C1948 H1942 0.950 . S
C1948 C1949 1.327 . S
C1949 H1943 0.950 . S
C1949 C1948 1.327 . S
C1949 C1953 1.429 . S
C1950 C1933 1.574 1_554 S
C1950 H1944 0.949 . S
C1950 C1954 1.368 . S
C1951 C1932 1.429 . S
C1951 C1945 1.429 . S
C1951 C1952 1.523 . S
C1952 C1933 1.368 . S
C1952 C1946 1.368 . S
C1952 C1951 1.523 . S
C1953 C1937 1.429 . S
C1953 C1949 1.429 . S
C1953 C1954 1.523 . S
C1954 C1938 1.368 . S
C1954 C1950 1.368 . S
C1954 C1953 1.523 . S
H1955 C1930 0.950 . S
H1956 C1932 0.950 . S
H1957 C1933 0.949 . S
H1958 C1935 0.950 . S
H1959 C1937 0.950 . S
C1960 C1961 1.349 . S
C1960 C1962 1.327 . S
C1960 H1985 0.950 . S
C1961 C1960 1.349 . S
C1961 C1977 1.349 . S
C1962 C1960 1.327 . S
C1962 C1981 1.429 . S
C1962 H1986 0.950 . S
C1963 C1980 1.574 . S
C1963 C1982 1.368 . S
C1963 H1987 0.949 . S
H1964 C1968 0.949 . S
C1965 C1966 1.353 . S
C1965 C1967 1.317 1_554 S
C1965 H1988 0.956 . S
C1966 C1965 1.353 . S
C1966 C1978 1.349 1_554 S
C1967 C1965 1.317 1_556 S
C1967 C1983 1.429 . S
C1967 H1989 0.950 . S
C1968 H1964 0.949 . S
C1968 C1976 1.574 . S
C1968 C1984 1.368 . S
H1969 C1977 0.950 . S
H1970 C1975 0.950 . S
H1971 C1976 0.949 . S
H1972 C1978 0.950 1_554 S
H1973 C1979 0.950 . S
H1974 C1980 0.949 . S
C1975 H1970 0.950 . S
C1975 C1977 1.327 . S
C1975 C1981 1.429 . S
C1976 C1968 1.574 . S
C1976 H1971 0.949 . S
C1976 C1982 1.368 . S
C1977 C1961 1.349 . S
C1977 H1969 0.950 . S
C1977 C1975 1.327 . S
C1978 C1966 1.349 1_556 S
C1978 H1972 0.950 1_556 S
C1978 C1979 1.327 . S
C1979 H1973 0.950 . S
C1979 C1978 1.327 . S
C1979 C1983 1.429 . S
C1980 C1963 1.574 . S
C1980 H1974 0.949 . S
C1980 C1984 1.368 . S
C1981 C1962 1.429 . S
C1981 C1975 1.429 . S
C1981 C1982 1.523 . S
C1982 C1963 1.368 . S
C1982 C1976 1.368 . S
C1982 C1981 1.523 . S
C1983 C1967 1.429 . S
C1983 C1979 1.429 . S
C1983 C1984 1.523 . S
C1984 C1968 1.368 . S
C1984 C1980 1.368 . S
C1984 C1983 1.523 . S
H1985 C1960 0.950 . S
H1986 C1962 0.950 . S
H1987 C1963 0.949 . S
H1988 C1965 0.956 . S
H1989 C1967 0.950 . S
C1990 C1991 1.349 1_556 S
C1990 C1992 1.327 . S
C1990 H2015 0.950 1_556 S
C1991 C1990 1.349 1_554 S
C1991 C2007 1.349 1_554 S
C1992 C1990 1.327 . S
C1992 C2011 1.429 . S
C1992 H2016 0.950 . S
C1993 C2010 1.574 . S
C1993 C2012 1.368 . S
C1993 H2017 0.949 . S
H1994 C1998 0.949 . S
C1995 C1996 1.349 . S
C1995 C1997 1.327 . S
C1995 H2018 0.950 . S
C1996 C1995 1.349 . S
C1996 C2008 1.349 . S
C1997 C1995 1.327 . S
C1997 C2013 1.429 . S
C1997 H2019 0.950 . S
C1998 H1994 0.949 . S
C1998 C2006 1.574 . S
C1998 C2014 1.368 . S
H1999 C2007 0.950 1_554 S
H2000 C2005 0.950 . S
H2001 C2006 0.949 . S
H2002 C2008 0.950 . S
H2003 C2009 0.950 . S
H2004 C2010 0.949 . S
C2005 H2000 0.950 . S
C2005 C2007 1.327 . S
C2005 C2011 1.429 . S
C2006 C1998 1.574 . S
C2006 H2001 0.949 . S
C2006 C2012 1.368 . S
C2007 C1991 1.349 1_556 S
C2007 H1999 0.950 1_556 S
C2007 C2005 1.327 . S
C2008 C1996 1.349 . S
C2008 H2002 0.950 . S
C2008 C2009 1.327 . S
C2009 H2003 0.950 . S
C2009 C2008 1.327 . S
C2009 C2013 1.429 . S
C2010 C1993 1.574 . S
C2010 H2004 0.949 . S
C2010 C2014 1.368 . S
C2011 C1992 1.429 . S
C2011 C2005 1.429 . S
C2011 C2012 1.523 . S
C2012 C1993 1.368 . S
C2012 C2006 1.368 . S
C2012 C2011 1.523 . S
C2013 C1997 1.429 . S
C2013 C2009 1.429 . S
C2013 C2014 1.523 . S
C2014 C1998 1.368 . S
C2014 C2010 1.368 . S
C2014 C2013 1.523 . S
H2015 C1990 0.950 1_554 S
H2016 C1992 0.950 . S
H2017 C1993 0.949 . S
H2018 C1995 0.950 . S
H2019 C1997 0.950 . S
C2020 C2021 1.349 . S
C2020 C2022 1.327 . S
C2020 H2045 0.950 . S
C2021 C2020 1.349 . S
C2021 C2037 1.349 . S
C2022 C2020 1.327 . S
C2022 C2041 1.429 . S
C2022 H2046 0.950 . S
C2023 C2040 1.574 1_554 S
C2023 C2042 1.368 . S
C2023 H2047 0.949 . S
H2024 C2028 0.949 . S
C2025 C2026 1.349 . S
C2025 C2027 1.327 . S
C2025 H2048 0.950 . S
C2026 C2025 1.349 . S
C2026 C2038 1.349 . S
C2027 C2025 1.327 . S
C2027 C2043 1.429 . S
C2027 H2049 0.950 . S
C2028 H2024 0.949 . S
C2028 C2036 1.574 1_556 S
C2028 C2044 1.368 . S
H2029 C2037 0.950 . S
H2030 C2035 0.950 . S
H2031 C2036 0.949 . S
H2032 C2038 0.950 . S
H2033 C2039 0.950 . S
H2034 C2040 0.949 . S
C2035 H2030 0.950 . S
C2035 C2037 1.327 . S
C2035 C2041 1.429 . S
C2036 C2028 1.574 1_554 S
C2036 H2031 0.949 . S
C2036 C2042 1.368 . S
C2037 C2021 1.349 . S
C2037 H2029 0.950 . S
C2037 C2035 1.327 . S
C2038 C2026 1.349 . S
C2038 H2032 0.950 . S
C2038 C2039 1.327 . S
C2039 H2033 0.950 . S
C2039 C2038 1.327 . S
C2039 C2043 1.429 . S
C2040 C2023 1.574 1_556 S
C2040 H2034 0.949 . S
C2040 C2044 1.368 . S
C2041 C2022 1.429 . S
C2041 C2035 1.429 . S
C2041 C2042 1.523 . S
C2042 C2023 1.368 . S
C2042 C2036 1.368 . S
C2042 C2041 1.523 . S
C2043 C2027 1.429 . S
C2043 C2039 1.429 . S
C2043 C2044 1.523 . S
C2044 C2028 1.368 . S
C2044 C2040 1.368 . S
C2044 C2043 1.523 . S
H2045 C2020 0.950 . S
H2046 C2022 0.950 . S
H2047 C2023 0.949 . S
H2048 C2025 0.950 . S
H2049 C2027 0.950 . S
C2050 C2051 1.349 . S
C2050 C2052 1.327 . S
C2050 H2075 0.950 . S
C2051 C2050 1.349 . S
C2051 C2067 1.349 . S
C2052 C2050 1.327 . S
C2052 C2071 1.429 . S
C2052 H2076 0.950 . S
C2053 C2070 1.574 1_556 S
C2053 C2072 1.368 . S
C2053 H2077 0.949 . S
H2054 C2058 0.949 . S
C2055 C2056 1.349 . S
C2055 C2057 1.327 . S
C2055 H2078 0.950 . S
C2056 C2055 1.349 . S
C2056 C2068 1.349 . S
C2057 C2055 1.327 . S
C2057 C2073 1.429 . S
C2057 H2079 0.950 . S
C2058 H2054 0.949 . S
C2058 C2066 1.574 1_554 S
C2058 C2074 1.368 . S
H2059 C2067 0.950 . S
H2060 C2065 0.950 . S
H2061 C2066 0.949 . S
H2062 C2068 0.950 . S
H2063 C2069 0.950 . S
H2064 C2070 0.949 . S
C2065 H2060 0.950 . S
C2065 C2067 1.327 . S
C2065 C2071 1.429 . S
C2066 C2058 1.574 1_556 S
C2066 H2061 0.949 . S
C2066 C2072 1.368 . S
C2067 C2051 1.349 . S
C2067 H2059 0.950 . S
C2067 C2065 1.327 . S
C2068 C2056 1.349 . S
C2068 H2062 0.950 . S
C2068 C2069 1.327 . S
C2069 H2063 0.950 . S
C2069 C2068 1.327 . S
C2069 C2073 1.429 . S
C2070 C2053 1.574 1_554 S
C2070 H2064 0.949 . S
C2070 C2074 1.368 . S
C2071 C2052 1.429 . S
C2071 C2065 1.429 . S
C2071 C2072 1.523 . S
C2072 C2053 1.368 . S
C2072 C2066 1.368 . S
C2072 C2071 1.523 . S
C2073 C2057 1.429 . S
C2073 C2069 1.429 . S
C2073 C2074 1.523 . S
C2074 C2058 1.368 . S
C2074 C2070 1.368 . S
C2074 C2073 1.523 . S
H2075 C2050 0.950 . S
H2076 C2052 0.950 . S
H2077 C2053 0.949 . S
H2078 C2055 0.950 . S
H2079 C2057 0.950 . S
C2080 C2081 1.349 1_554 S
C2080 C2082 1.327 . S
C2080 H2105 0.950 1_554 S
C2081 C2080 1.349 1_556 S
C2081 C2097 1.355 . S
C2082 C2080 1.327 . S
C2082 C2101 1.429 . S
C2082 H2106 0.950 . S
C2083 C2100 1.574 . S
C2083 C2102 1.368 . S
C2083 H2107 0.949 . S
H2084 C2088 0.949 . S
C2085 C2086 1.349 . S
C2085 C2087 1.327 . S
C2085 H2108 0.950 . S
C2086 C2085 1.349 . S
C2086 C2098 1.349 . S
C2087 C2085 1.327 . S
C2087 C2103 1.429 . S
C2087 H2109 0.950 . S
C2088 H2084 0.949 . S
C2088 C2096 1.574 . S
C2088 C2104 1.368 . S
H2089 C2097 0.958 . S
H2090 C2095 0.950 . S
H2091 C2096 0.949 . S
H2092 C2098 0.950 . S
H2093 C2099 0.950 . S
H2094 C2100 0.949 . S
C2095 H2090 0.950 . S
C2095 C2097 1.313 1_554 S
C2095 C2101 1.429 . S
C2096 C2088 1.574 . S
C2096 H2091 0.949 . S
C2096 C2102 1.368 . S
C2097 C2081 1.355 . S
C2097 H2089 0.958 . S
C2097 C2095 1.313 1_556 S
C2098 C2086 1.349 . S
C2098 H2092 0.950 . S
C2098 C2099 1.327 . S
C2099 H2093 0.950 . S
C2099 C2098 1.327 . S
C2099 C2103 1.429 . S
C2100 C2083 1.574 . S
C2100 H2094 0.949 . S
C2100 C2104 1.368 . S
C2101 C2082 1.429 . S
C2101 C2095 1.429 . S
C2101 C2102 1.523 . S
C2102 C2083 1.368 . S
C2102 C2096 1.368 . S
C2102 C2101 1.523 . S
C2103 C2087 1.429 . S
C2103 C2099 1.429 . S
C2103 C2104 1.523 . S
C2104 C2088 1.368 . S
C2104 C2100 1.368 . S
C2104 C2103 1.523 . S
H2105 C2080 0.950 1_556 S
H2106 C2082 0.950 . S
H2107 C2083 0.949 . S
H2108 C2085 0.950 . S
H2109 C2087 0.950 . S
C2110 C2111 1.349 . S
C2110 C2112 1.327 . S
C2110 H2135 0.950 . S
C2111 C2110 1.349 . S
C2111 C2127 1.349 1_565 S
C2112 C2110 1.327 . S
C2112 C2131 1.429 . S
C2112 H2136 0.950 . S
C2113 C2130 1.574 . S
C2113 C2132 1.368 1_545 S
C2113 H2137 0.949 . S
H2114 C2118 0.949 . S
C2115 C2116 1.349 1_554 S
C2115 C2117 1.327 . S
C2115 H2138 0.950 1_554 S
C2116 C2115 1.349 1_556 S
C2116 C2128 1.340 1_546 S
C2117 C2115 1.327 . S
C2117 C2133 1.429 . S
C2117 H2139 0.950 . S
C2118 H2114 0.949 . S
C2118 C2126 1.574 . S
C2118 C2134 1.368 1_565 S
H2119 C2127 0.950 . S
H2120 C2125 0.950 . S
H2121 C2126 0.949 . S
H2122 C2128 0.939 1_556 S
H2123 C2129 0.950 . S
H2124 C2130 0.949 . S
C2125 H2120 0.950 . S
C2125 C2127 1.327 . S
C2125 C2131 1.429 1_545 S
C2126 C2118 1.574 . S
C2126 H2121 0.949 . S
C2126 C2132 1.368 . S
C2127 C2111 1.349 1_545 S
C2127 H2119 0.950 . S
C2127 C2125 1.327 . S
C2128 C2116 1.340 1_564 S
C2128 H2122 0.939 1_554 S
C2128 C2129 1.347 . S
C2129 H2123 0.950 . S
C2129 C2128 1.347 . S
C2129 C2133 1.429 1_565 S
C2130 C2113 1.574 . S
C2130 H2124 0.949 . S
C2130 C2134 1.368 . S
C2131 C2112 1.429 . S
C2131 C2125 1.429 1_565 S
C2131 C2132 1.523 . S
C2132 C2113 1.368 1_565 S
C2132 C2126 1.368 . S
C2132 C2131 1.523 . S
C2133 C2117 1.429 . S
C2133 C2129 1.429 1_545 S
C2133 C2134 1.523 . S
C2134 C2118 1.368 1_545 S
C2134 C2130 1.368 . S
C2134 C2133 1.523 . S
H2135 C2110 0.950 . S
H2136 C2112 0.950 . S
H2137 C2113 0.949 . S
H2138 C2115 0.950 1_556 S
H2139 C2117 0.950 . S
C2140 C2141 1.349 . S
C2140 C2142 1.327 . S
C2140 H2165 0.950 . S
C2141 C2140 1.349 . S
C2141 C2157 1.349 1_565 S
C2142 C2140 1.327 . S
C2142 C2161 1.429 . S
C2142 H2166 0.950 . S
C2143 C2160 1.574 1_556 S
C2143 C2162 1.368 1_545 S
C2143 H2167 0.949 . S
H2144 C2148 0.949 . S
C2145 C2146 1.349 . S
C2145 C2147 1.327 . S
C2145 H2168 0.950 . S
C2146 C2145 1.349 . S
C2146 C2158 1.349 1_545 S
C2147 C2145 1.327 . S
C2147 C2163 1.429 . S
C2147 H2169 0.950 . S
C2148 H2144 0.949 . S
C2148 C2156 1.574 1_554 S
C2148 C2164 1.368 1_565 S
H2149 C2157 0.950 . S
H2150 C2155 0.950 . S
H2151 C2156 0.949 . S
H2152 C2158 0.950 . S
H2153 C2159 0.950 . S
H2154 C2160 0.949 . S
C2155 H2150 0.950 . S
C2155 C2157 1.327 . S
C2155 C2161 1.429 1_545 S
C2156 C2148 1.574 1_556 S
C2156 H2151 0.949 . S
C2156 C2162 1.368 . S
C2157 C2141 1.349 1_545 S
C2157 H2149 0.950 . S
C2157 C2155 1.327 . S
C2158 C2146 1.349 1_565 S
C2158 H2152 0.950 . S
C2158 C2159 1.327 . S
C2159 H2153 0.950 . S
C2159 C2158 1.327 . S
C2159 C2163 1.429 1_565 S
C2160 C2143 1.574 1_554 S
C2160 H2154 0.949 . S
C2160 C2164 1.368 . S
C2161 C2142 1.429 . S
C2161 C2155 1.429 1_565 S
C2161 C2162 1.523 . S
C2162 C2143 1.368 1_565 S
C2162 C2156 1.368 . S
C2162 C2161 1.523 . S
C2163 C2147 1.429 . S
C2163 C2159 1.429 1_545 S
C2163 C2164 1.523 . S
C2164 C2148 1.368 1_545 S
C2164 C2160 1.368 . S
C2164 C2163 1.523 . S
H2165 C2140 0.950 . S
H2166 C2142 0.950 . S
H2167 C2143 0.949 . S
H2168 C2145 0.950 . S
H2169 C2147 0.950 . S
C2170 C2171 1.349 . S
C2170 C2172 1.327 . S
C2170 H2195 0.950 . S
C2171 C2170 1.349 . S
C2171 C2187 1.349 . S
C2172 C2170 1.327 . S
C2172 C2191 1.429 . S
C2172 H2196 0.950 . S
C2173 C2190 1.574 1_556 S
C2173 C2192 1.368 . S
C2173 H2197 0.949 . S
H2174 C2178 0.949 . S
C2175 C2176 1.349 . S
C2175 C2177 1.327 . S
C2175 H2198 0.950 . S
C2176 C2175 1.349 . S
C2176 C2188 1.349 . S
C2177 C2175 1.327 . S
C2177 C2193 1.429 . S
C2177 H2199 0.950 . S
C2178 H2174 0.949 . S
C2178 C2186 1.574 1_554 S
C2178 C2194 1.368 . S
H2179 C2187 0.950 . S
H2180 C2185 0.950 . S
H2181 C2186 0.949 . S
H2182 C2188 0.950 . S
H2183 C2189 0.950 . S
H2184 C2190 0.949 . S
C2185 H2180 0.950 . S
C2185 C2187 1.327 . S
C2185 C2191 1.429 . S
C2186 C2178 1.574 1_556 S
C2186 H2181 0.949 . S
C2186 C2192 1.368 . S
C2187 C2171 1.349 . S
C2187 H2179 0.950 . S
C2187 C2185 1.327 . S
C2188 C2176 1.349 . S
C2188 H2182 0.950 . S
C2188 C2189 1.327 . S
C2189 H2183 0.950 . S
C2189 C2188 1.327 . S
C2189 C2193 1.429 . S
C2190 C2173 1.574 1_554 S
C2190 H2184 0.949 . S
C2190 C2194 1.368 . S
C2191 C2172 1.429 . S
C2191 C2185 1.429 . S
C2191 C2192 1.523 . S
C2192 C2173 1.368 . S
C2192 C2186 1.368 . S
C2192 C2191 1.523 . S
C2193 C2177 1.429 . S
C2193 C2189 1.429 . S
C2193 C2194 1.523 . S
C2194 C2178 1.368 . S
C2194 C2190 1.368 . S
C2194 C2193 1.523 . S
H2195 C2170 0.950 . S
H2196 C2172 0.950 . S
H2197 C2173 0.949 . S
H2198 C2175 0.950 . S
H2199 C2177 0.950 . S
C2200 C2201 1.349 1_556 S
C2200 C2202 1.327 . S
C2200 H2225 0.950 1_556 S
C2201 C2200 1.349 1_554 S
C2201 C2217 1.348 1_554 S
C2202 C2200 1.327 . S
C2202 C2221 1.429 . S
C2202 H2226 0.950 . S
C2203 C2220 1.574 . S
C2203 C2222 1.368 . S
C2203 H2227 0.949 . S
H2204 C2208 0.949 . S
C2205 C2206 1.349 . S
C2205 C2207 1.327 . S
C2205 H2228 0.950 . S
C2206 C2205 1.349 . S
C2206 C2218 1.349 . S
C2207 C2205 1.327 . S
C2207 C2223 1.429 . S
C2207 H2229 0.950 . S
C2208 H2204 0.949 . S
C2208 C2216 1.574 . S
C2208 C2224 1.368 . S
H2209 C2217 0.949 1_554 S
H2210 C2215 0.950 . S
H2211 C2216 0.949 . S
H2212 C2218 0.950 . S
H2213 C2219 0.950 . S
H2214 C2220 0.949 . S
C2215 H2210 0.950 . S
C2215 C2217 1.329 . S
C2215 C2221 1.429 . S
C2216 C2208 1.574 . S
C2216 H2211 0.949 . S
C2216 C2222 1.368 . S
C2217 C2201 1.348 1_556 S
C2217 H2209 0.949 1_556 S
C2217 C2215 1.329 . S
C2218 C2206 1.349 . S
C2218 H2212 0.950 . S
C2218 C2219 1.327 . S
C2219 H2213 0.950 . S
C2219 C2218 1.327 . S
C2219 C2223 1.429 . S
C2220 C2203 1.574 . S
C2220 H2214 0.949 . S
C2220 C2224 1.368 . S
C2221 C2202 1.429 . S
C2221 C2215 1.429 . S
C2221 C2222 1.523 . S
C2222 C2203 1.368 . S
C2222 C2216 1.368 . S
C2222 C2221 1.523 . S
C2223 C2207 1.429 . S
C2223 C2219 1.429 . S
C2223 C2224 1.523 . S
C2224 C2208 1.368 . S
C2224 C2220 1.368 . S
C2224 C2223 1.523 . S
H2225 C2200 0.950 1_554 S
H2226 C2202 0.950 . S
H2227 C2203 0.949 . S
H2228 C2205 0.950 . S
H2229 C2207 0.950 . S
C2230 C2231 1.349 . S
C2230 C2232 1.327 . S
C2230 H2255 0.950 . S
C2231 C2230 1.349 . S
C2231 C2247 1.349 1_545 S
C2232 C2230 1.327 . S
C2232 C2251 1.429 . S
C2232 H2256 0.950 . S
C2233 C2250 1.574 . S
C2233 C2252 1.368 1_565 S
C2233 H2257 0.949 . S
H2234 C2238 0.949 . S
C2235 C2236 1.349 1_556 S
C2235 C2237 1.327 . S
C2235 H2258 0.950 1_556 S
C2236 C2235 1.349 1_554 S
C2236 C2248 1.349 1_565 S
C2237 C2235 1.327 . S
C2237 C2253 1.429 . S
C2237 H2259 0.950 . S
C2238 H2234 0.949 . S
C2238 C2246 1.574 . S
C2238 C2254 1.368 1_545 S
H2239 C2247 0.950 . S
H2240 C2245 0.950 . S
H2241 C2246 0.949 . S
H2242 C2248 0.950 . S
H2243 C2249 0.950 . S
H2244 C2250 0.949 . S
C2245 H2240 0.950 . S
C2245 C2247 1.327 . S
C2245 C2251 1.429 1_565 S
C2246 C2238 1.574 . S
C2246 H2241 0.949 . S
C2246 C2252 1.368 . S
C2247 C2231 1.349 1_565 S
C2247 H2239 0.950 . S
C2247 C2245 1.327 . S
C2248 C2236 1.349 1_545 S
C2248 H2242 0.950 . S
C2248 C2249 1.327 1_554 S
C2249 H2243 0.950 . S
C2249 C2248 1.327 1_556 S
C2249 C2253 1.429 1_545 S
C2250 C2233 1.574 . S
C2250 H2244 0.949 . S
C2250 C2254 1.368 . S
C2251 C2232 1.429 . S
C2251 C2245 1.429 1_545 S
C2251 C2252 1.523 . S
C2252 C2233 1.368 1_545 S
C2252 C2246 1.368 . S
C2252 C2251 1.523 . S
C2253 C2237 1.429 . S
C2253 C2249 1.429 1_565 S
C2253 C2254 1.523 . S
C2254 C2238 1.368 1_565 S
C2254 C2250 1.368 . S
C2254 C2253 1.523 . S
H2255 C2230 0.950 . S
H2256 C2232 0.950 . S
H2257 C2233 0.949 . S
H2258 C2235 0.950 1_554 S
H2259 C2237 0.950 . S
C2260 C2261 1.349 1_545 S
C2260 C2262 1.327 . S
C2260 H2285 0.950 . S
C2261 C2260 1.349 1_565 S
C2261 C2277 1.349 . S
C2262 C2260 1.327 . S
C2262 C2281 1.429 1_545 S
C2262 H2286 0.950 . S
C2263 C2280 1.574 1_556 S
C2263 C2282 1.368 . S
C2263 H2287 0.949 . S
H2264 C2268 0.949 . S
C2265 C2266 1.349 1_565 S
C2265 C2267 1.327 . S
C2265 H2288 0.950 . S
C2266 C2265 1.349 1_545 S
C2266 C2278 1.349 . S
C2267 C2265 1.327 . S
C2267 C2283 1.429 1_565 S
C2267 H2289 0.950 . S
C2268 H2264 0.949 . S
C2268 C2276 1.574 1_554 S
C2268 C2284 1.368 . S
H2269 C2277 0.950 . S
H2270 C2275 0.950 . S
H2271 C2276 0.949 . S
H2272 C2278 0.950 . S
H2273 C2279 0.950 . S
H2274 C2280 0.949 . S
C2275 H2270 0.950 . S
C2275 C2277 1.327 . S
C2275 C2281 1.429 . S
C2276 C2268 1.574 1_556 S
C2276 H2271 0.949 . S
C2276 C2282 1.368 1_545 S
C2277 C2261 1.349 . S
C2277 H2269 0.950 . S
C2277 C2275 1.327 . S
C2278 C2266 1.349 . S
C2278 H2272 0.950 . S
C2278 C2279 1.327 . S
C2279 H2273 0.950 . S
C2279 C2278 1.327 . S
C2279 C2283 1.429 . S
C2280 C2263 1.574 1_554 S
C2280 H2274 0.949 . S
C2280 C2284 1.368 1_565 S
C2281 C2262 1.429 1_565 S
C2281 C2275 1.429 . S
C2281 C2282 1.523 . S
C2282 C2263 1.368 . S
C2282 C2276 1.368 1_565 S
C2282 C2281 1.523 . S
C2283 C2267 1.429 1_545 S
C2283 C2279 1.429 . S
C2283 C2284 1.523 . S
C2284 C2268 1.368 . S
C2284 C2280 1.368 1_545 S
C2284 C2283 1.523 . S
H2285 C2260 0.950 . S
H2286 C2262 0.950 . S
H2287 C2263 0.949 . S
H2288 C2265 0.950 . S
H2289 C2267 0.950 . S
C2290 C2291 1.349 . S
C2290 C2292 1.327 . S
C2290 H2315 0.950 . S
C2291 C2290 1.349 . S
C2291 C2307 1.349 . S
C2292 C2290 1.327 . S
C2292 C2311 1.429 . S
C2292 H2316 0.950 . S
C2293 C2310 1.574 1_556 S
C2293 C2312 1.368 . S
C2293 H2317 0.949 . S
H2294 C2298 0.949 . S
C2295 C2296 1.349 . S
C2295 C2297 1.327 . S
C2295 H2318 0.950 . S
C2296 C2295 1.349 . S
C2296 C2308 1.349 . S
C2297 C2295 1.327 . S
C2297 C2313 1.429 . S
C2297 H2319 0.950 . S
C2298 H2294 0.949 . S
C2298 C2306 1.574 1_554 S
C2298 C2314 1.368 . S
H2299 C2307 0.950 . S
H2300 C2305 0.950 . S
H2301 C2306 0.949 . S
H2302 C2308 0.950 . S
H2303 C2309 0.950 . S
H2304 C2310 0.949 . S
C2305 H2300 0.950 . S
C2305 C2307 1.327 . S
C2305 C2311 1.429 . S
C2306 C2298 1.574 1_556 S
C2306 H2301 0.949 . S
C2306 C2312 1.368 . S
C2307 C2291 1.349 . S
C2307 H2299 0.950 . S
C2307 C2305 1.327 . S
C2308 C2296 1.349 . S
C2308 H2302 0.950 . S
C2308 C2309 1.327 . S
C2309 H2303 0.950 . S
C2309 C2308 1.327 . S
C2309 C2313 1.429 . S
C2310 C2293 1.574 1_554 S
C2310 H2304 0.949 . S
C2310 C2314 1.368 . S
C2311 C2292 1.429 . S
C2311 C2305 1.429 . S
C2311 C2312 1.523 . S
C2312 C2293 1.368 . S
C2312 C2306 1.368 . S
C2312 C2311 1.523 . S
C2313 C2297 1.429 . S
C2313 C2309 1.429 . S
C2313 C2314 1.523 . S
C2314 C2298 1.368 . S
C2314 C2310 1.368 . S
C2314 C2313 1.523 . S
H2315 C2290 0.950 . S
H2316 C2292 0.950 . S
H2317 C2293 0.949 . S
H2318 C2295 0.950 . S
H2319 C2297 0.950 . S
C2320 C2321 1.349 . S
C2320 C2322 1.327 . S
C2320 H2345 0.950 . S
C2321 C2320 1.349 . S
C2321 C2337 1.349 . S
C2322 C2320 1.327 . S
C2322 C2341 1.429 . S
C2322 H2346 0.950 . S
C2323 C2340 1.574 . S
C2323 C2342 1.368 . S
C2323 H2347 0.949 . S
H2324 C2328 0.949 . S
C2325 C2326 1.349 . S
C2325 C2327 1.327 . S
C2325 H2348 0.950 . S
C2326 C2325 1.349 . S
C2326 C2338 1.349 . S
C2327 C2325 1.327 . S
C2327 C2343 1.429 . S
C2327 H2349 0.950 . S
C2328 H2324 0.949 . S
C2328 C2336 1.574 . S
C2328 C2344 1.368 . S
H2329 C2337 0.950 . S
H2330 C2335 0.950 . S
H2331 C2336 0.949 . S
H2332 C2338 0.950 . S
H2333 C2339 0.950 . S
H2334 C2340 0.949 . S
C2335 H2330 0.950 . S
C2335 C2337 1.327 . S
C2335 C2341 1.429 . S
C2336 C2328 1.574 . S
C2336 H2331 0.949 . S
C2336 C2342 1.368 . S
C2337 C2321 1.349 . S
C2337 H2329 0.950 . S
C2337 C2335 1.327 . S
C2338 C2326 1.349 . S
C2338 H2332 0.950 . S
C2338 C2339 1.327 . S
C2339 H2333 0.950 . S
C2339 C2338 1.327 . S
C2339 C2343 1.429 . S
C2340 C2323 1.574 . S
C2340 H2334 0.949 . S
C2340 C2344 1.368 . S
C2341 C2322 1.429 . S
C2341 C2335 1.429 . S
C2341 C2342 1.523 . S
C2342 C2323 1.368 . S
C2342 C2336 1.368 . S
C2342 C2341 1.523 . S
C2343 C2327 1.429 . S
C2343 C2339 1.429 . S
C2343 C2344 1.523 . S
C2344 C2328 1.368 . S
C2344 C2340 1.368 . S
C2344 C2343 1.523 . S
H2345 C2320 0.950 . S
H2346 C2322 0.950 . S
H2347 C2323 0.949 . S
H2348 C2325 0.950 . S
H2349 C2327 0.950 . S
C2350 C2351 1.349 . S
C2350 C2352 1.327 . S
C2350 H2375 0.950 . S
C2351 C2350 1.349 . S
C2351 C2367 1.349 . S
C2352 C2350 1.327 . S
C2352 C2371 1.429 . S
C2352 H2376 0.950 . S
C2353 C2370 1.574 . S
C2353 C2372 1.368 . S
C2353 H2377 0.949 . S
H2354 C2358 0.949 . S
C2355 C2356 1.349 . S
C2355 C2357 1.327 . S
C2355 H2378 0.950 . S
C2356 C2355 1.349 . S
C2356 C2368 1.349 . S
C2357 C2355 1.327 . S
C2357 C2373 1.429 . S
C2357 H2379 0.950 . S
C2358 H2354 0.949 . S
C2358 C2366 1.574 . S
C2358 C2374 1.368 . S
H2359 C2367 0.950 . S
H2360 C2365 0.950 . S
H2361 C2366 0.949 . S
H2362 C2368 0.950 . S
H2363 C2369 0.950 . S
H2364 C2370 0.949 . S
C2365 H2360 0.950 . S
C2365 C2367 1.327 . S
C2365 C2371 1.429 . S
C2366 C2358 1.574 . S
C2366 H2361 0.949 . S
C2366 C2372 1.368 . S
C2367 C2351 1.349 . S
C2367 H2359 0.950 . S
C2367 C2365 1.327 . S
C2368 C2356 1.349 . S
C2368 H2362 0.950 . S
C2368 C2369 1.327 . S
C2369 H2363 0.950 . S
C2369 C2368 1.327 . S
C2369 C2373 1.429 . S
C2370 C2353 1.574 . S
C2370 H2364 0.949 . S
C2370 C2374 1.368 . S
C2371 C2352 1.429 . S
C2371 C2365 1.429 . S
C2371 C2372 1.523 . S
C2372 C2353 1.368 . S
C2372 C2366 1.368 . S
C2372 C2371 1.523 . S
C2373 C2357 1.429 . S
C2373 C2369 1.429 . S
C2373 C2374 1.523 . S
C2374 C2358 1.368 . S
C2374 C2370 1.368 . S
C2374 C2373 1.523 . S
H2375 C2350 0.950 . S
H2376 C2352 0.950 . S
H2377 C2353 0.949 . S
H2378 C2355 0.950 . S
H2379 C2357 0.950 . S
C2380 C2381 1.349 . S
C2380 C2382 1.327 . S
C2380 H2405 0.950 . S
C2381 C2380 1.349 . S
C2381 C2397 1.349 . S
C2382 C2380 1.327 . S
C2382 C2401 1.429 . S
C2382 H2406 0.950 . S
C2383 C2400 1.574 . S
C2383 C2402 1.368 . S
C2383 H2407 0.949 . S
H2384 C2388 0.949 . S
C2385 C2386 1.349 . S
C2385 C2387 1.327 . S
C2385 H2408 0.950 . S
C2386 C2385 1.349 . S
C2386 C2398 1.349 . S
C2387 C2385 1.327 . S
C2387 C2403 1.429 . S
C2387 H2409 0.950 . S
C2388 H2384 0.949 . S
C2388 C2396 1.574 . S
C2388 C2404 1.368 . S
H2389 C2397 0.950 . S
H2390 C2395 0.950 . S
H2391 C2396 0.949 . S
H2392 C2398 0.950 . S
H2393 C2399 0.950 . S
H2394 C2400 0.949 . S
C2395 H2390 0.950 . S
C2395 C2397 1.327 . S
C2395 C2401 1.429 . S
C2396 C2388 1.574 . S
C2396 H2391 0.949 . S
C2396 C2402 1.368 . S
C2397 C2381 1.349 . S
C2397 H2389 0.950 . S
C2397 C2395 1.327 . S
C2398 C2386 1.349 . S
C2398 H2392 0.950 . S
C2398 C2399 1.327 . S
C2399 H2393 0.950 . S
C2399 C2398 1.327 . S
C2399 C2403 1.429 . S
C2400 C2383 1.574 . S
C2400 H2394 0.949 . S
C2400 C2404 1.368 . S
C2401 C2382 1.429 . S
C2401 C2395 1.429 . S
C2401 C2402 1.523 . S
C2402 C2383 1.368 . S
C2402 C2396 1.368 . S
C2402 C2401 1.523 . S
C2403 C2387 1.429 . S
C2403 C2399 1.429 . S
C2403 C2404 1.523 . S
C2404 C2388 1.368 . S
C2404 C2400 1.368 . S
C2404 C2403 1.523 . S
H2405 C2380 0.950 . S
H2406 C2382 0.950 . S
H2407 C2383 0.949 . S
H2408 C2385 0.950 . S
H2409 C2387 0.950 . S
C2410 C2411 1.349 . S
C2410 C2412 1.327 . S
C2410 H2435 0.950 . S
C2411 C2410 1.349 . S
C2411 C2427 1.349 . S
C2412 C2410 1.327 . S
C2412 C2431 1.429 . S
C2412 H2436 0.950 . S
C2413 C2430 1.574 . S
C2413 C2432 1.368 . S
C2413 H2437 0.949 . S
H2414 C2418 0.949 . S
C2415 C2416 1.349 . S
C2415 C2417 1.327 . S
C2415 H2438 0.950 . S
C2416 C2415 1.349 . S
C2416 C2428 1.349 . S
C2417 C2415 1.327 . S
C2417 C2433 1.429 . S
C2417 H2439 0.950 . S
C2418 H2414 0.949 . S
C2418 C2426 1.574 . S
C2418 C2434 1.368 . S
H2419 C2427 0.950 . S
H2420 C2425 0.950 . S
H2421 C2426 0.949 . S
H2422 C2428 0.950 . S
H2423 C2429 0.950 . S
H2424 C2430 0.949 . S
C2425 H2420 0.950 . S
C2425 C2427 1.327 . S
C2425 C2431 1.429 . S
C2426 C2418 1.574 . S
C2426 H2421 0.949 . S
C2426 C2432 1.368 . S
C2427 C2411 1.349 . S
C2427 H2419 0.950 . S
C2427 C2425 1.327 . S
C2428 C2416 1.349 . S
C2428 H2422 0.950 . S
C2428 C2429 1.327 . S
C2429 H2423 0.950 . S
C2429 C2428 1.327 . S
C2429 C2433 1.429 . S
C2430 C2413 1.574 . S
C2430 H2424 0.949 . S
C2430 C2434 1.368 . S
C2431 C2412 1.429 . S
C2431 C2425 1.429 . S
C2431 C2432 1.523 . S
C2432 C2413 1.368 . S
C2432 C2426 1.368 . S
C2432 C2431 1.523 . S
C2433 C2417 1.429 . S
C2433 C2429 1.429 . S
C2433 C2434 1.523 . S
C2434 C2418 1.368 . S
C2434 C2430 1.368 . S
C2434 C2433 1.523 . S
H2435 C2410 0.950 . S
H2436 C2412 0.950 . S
H2437 C2413 0.949 . S
H2438 C2415 0.950 . S
H2439 C2417 0.950 . S
C2440 C2441 1.349 . S
C2440 C2442 1.327 . S
C2440 H2465 0.950 . S
C2441 C2440 1.349 . S
C2441 C2457 1.349 . S
C2442 C2440 1.327 . S
C2442 C2461 1.429 . S
C2442 H2466 0.950 . S
C2443 C2460 1.574 . S
C2443 C2462 1.368 . S
C2443 H2467 0.949 . S
H2444 C2448 0.949 . S
C2445 C2446 1.349 . S
C2445 C2447 1.327 . S
C2445 H2468 0.950 . S
C2446 C2445 1.349 . S
C2446 C2458 1.349 . S
C2447 C2445 1.327 . S
C2447 C2463 1.429 . S
C2447 H2469 0.950 . S
C2448 H2444 0.949 . S
C2448 C2456 1.574 . S
C2448 C2464 1.368 . S
H2449 C2457 0.950 . S
H2450 C2455 0.950 . S
H2451 C2456 0.949 . S
H2452 C2458 0.950 . S
H2453 C2459 0.950 . S
H2454 C2460 0.949 . S
C2455 H2450 0.950 . S
C2455 C2457 1.327 . S
C2455 C2461 1.429 . S
C2456 C2448 1.574 . S
C2456 H2451 0.949 . S
C2456 C2462 1.368 . S
C2457 C2441 1.349 . S
C2457 H2449 0.950 . S
C2457 C2455 1.327 . S
C2458 C2446 1.349 . S
C2458 H2452 0.950 . S
C2458 C2459 1.327 . S
C2459 H2453 0.950 . S
C2459 C2458 1.327 . S
C2459 C2463 1.429 . S
C2460 C2443 1.574 . S
C2460 H2454 0.949 . S
C2460 C2464 1.368 . S
C2461 C2442 1.429 . S
C2461 C2455 1.429 . S
C2461 C2462 1.523 . S
C2462 C2443 1.368 . S
C2462 C2456 1.368 . S
C2462 C2461 1.523 . S
C2463 C2447 1.429 . S
C2463 C2459 1.429 . S
C2463 C2464 1.523 . S
C2464 C2448 1.368 . S
C2464 C2460 1.368 . S
C2464 C2463 1.523 . S
H2465 C2440 0.950 . S
H2466 C2442 0.950 . S
H2467 C2443 0.949 . S
H2468 C2445 0.950 . S
H2469 C2447 0.950 . S
C2470 C2471 1.349 . S
C2470 C2472 1.327 . S
C2470 H2495 0.950 . S
C2471 C2470 1.349 . S
C2471 C2487 1.349 . S
C2472 C2470 1.327 . S
C2472 C2491 1.429 . S
C2472 H2496 0.950 . S
C2473 C2490 1.574 . S
C2473 C2492 1.368 . S
C2473 H2497 0.949 . S
H2474 C2478 0.949 . S
C2475 C2476 1.349 . S
C2475 C2477 1.327 . S
C2475 H2498 0.950 . S
C2476 C2475 1.349 . S
C2476 C2488 1.349 . S
C2477 C2475 1.327 . S
C2477 C2493 1.429 . S
C2477 H2499 0.950 . S
C2478 H2474 0.949 . S
C2478 C2486 1.574 . S
C2478 C2494 1.368 . S
H2479 C2487 0.950 . S
H2480 C2485 0.950 . S
H2481 C2486 0.949 . S
H2482 C2488 0.950 . S
H2483 C2489 0.950 . S
H2484 C2490 0.949 . S
C2485 H2480 0.950 . S
C2485 C2487 1.327 . S
C2485 C2491 1.429 . S
C2486 C2478 1.574 . S
C2486 H2481 0.949 . S
C2486 C2492 1.368 . S
C2487 C2471 1.349 . S
C2487 H2479 0.950 . S
C2487 C2485 1.327 . S
C2488 C2476 1.349 . S
C2488 H2482 0.950 . S
C2488 C2489 1.327 . S
C2489 H2483 0.950 . S
C2489 C2488 1.327 . S
C2489 C2493 1.429 . S
C2490 C2473 1.574 . S
C2490 H2484 0.949 . S
C2490 C2494 1.368 . S
C2491 C2472 1.429 . S
C2491 C2485 1.429 . S
C2491 C2492 1.523 . S
C2492 C2473 1.368 . S
C2492 C2486 1.368 . S
C2492 C2491 1.523 . S
C2493 C2477 1.429 . S
C2493 C2489 1.429 . S
C2493 C2494 1.523 . S
C2494 C2478 1.368 . S
C2494 C2490 1.368 . S
C2494 C2493 1.523 . S
H2495 C2470 0.950 . S
H2496 C2472 0.950 . S
H2497 C2473 0.949 . S
H2498 C2475 0.950 . S
H2499 C2477 0.950 . S
C2500 C2501 1.349 . S
C2500 C2502 1.327 . S
C2500 H2525 0.950 . S
C2501 C2500 1.349 . S
C2501 C2517 1.349 . S
C2502 C2500 1.327 . S
C2502 C2521 1.429 . S
C2502 H2526 0.950 . S
C2503 C2520 1.574 . S
C2503 C2522 1.368 . S
C2503 H2527 0.949 . S
H2504 C2508 0.949 . S
C2505 C2506 1.349 . S
C2505 C2507 1.327 . S
C2505 H2528 0.950 . S
C2506 C2505 1.349 . S
C2506 C2518 1.349 . S
C2507 C2505 1.327 . S
C2507 C2523 1.429 . S
C2507 H2529 0.950 . S
C2508 H2504 0.949 . S
C2508 C2516 1.574 . S
C2508 C2524 1.368 . S
H2509 C2517 0.950 . S
H2510 C2515 0.950 . S
H2511 C2516 0.949 . S
H2512 C2518 0.950 . S
H2513 C2519 0.950 . S
H2514 C2520 0.949 . S
C2515 H2510 0.950 . S
C2515 C2517 1.327 . S
C2515 C2521 1.429 . S
C2516 C2508 1.574 . S
C2516 H2511 0.949 . S
C2516 C2522 1.368 . S
C2517 C2501 1.349 . S
C2517 H2509 0.950 . S
C2517 C2515 1.327 . S
C2518 C2506 1.349 . S
C2518 H2512 0.950 . S
C2518 C2519 1.327 . S
C2519 H2513 0.950 . S
C2519 C2518 1.327 . S
C2519 C2523 1.429 . S
C2520 C2503 1.574 . S
C2520 H2514 0.949 . S
C2520 C2524 1.368 . S
C2521 C2502 1.429 . S
C2521 C2515 1.429 . S
C2521 C2522 1.523 . S
C2522 C2503 1.368 . S
C2522 C2516 1.368 . S
C2522 C2521 1.523 . S
C2523 C2507 1.429 . S
C2523 C2519 1.429 . S
C2523 C2524 1.523 . S
C2524 C2508 1.368 . S
C2524 C2520 1.368 . S
C2524 C2523 1.523 . S
H2525 C2500 0.950 . S
H2526 C2502 0.950 . S
H2527 C2503 0.949 . S
H2528 C2505 0.950 . S
H2529 C2507 0.950 . S
C2530 C2531 1.349 . S
C2530 C2532 1.327 . S
C2530 H2555 0.950 . S
C2531 C2530 1.349 . S
C2531 C2547 1.349 . S
C2532 C2530 1.327 . S
C2532 C2551 1.429 . S
C2532 H2556 0.950 . S
C2533 C2550 1.574 . S
C2533 C2552 1.368 . S
C2533 H2557 0.949 . S
H2534 C2538 0.949 . S
C2535 C2536 1.349 . S
C2535 C2537 1.327 . S
C2535 H2558 0.950 . S
C2536 C2535 1.349 . S
C2536 C2548 1.349 . S
C2537 C2535 1.327 . S
C2537 C2553 1.429 . S
C2537 H2559 0.950 . S
C2538 H2534 0.949 . S
C2538 C2546 1.574 . S
C2538 C2554 1.368 . S
H2539 C2547 0.950 . S
H2540 C2545 0.950 . S
H2541 C2546 0.949 . S
H2542 C2548 0.950 . S
H2543 C2549 0.950 . S
H2544 C2550 0.949 . S
C2545 H2540 0.950 . S
C2545 C2547 1.327 . S
C2545 C2551 1.429 . S
C2546 C2538 1.574 . S
C2546 H2541 0.949 . S
C2546 C2552 1.368 . S
C2547 C2531 1.349 . S
C2547 H2539 0.950 . S
C2547 C2545 1.327 . S
C2548 C2536 1.349 . S
C2548 H2542 0.950 . S
C2548 C2549 1.327 . S
C2549 H2543 0.950 . S
C2549 C2548 1.327 . S
C2549 C2553 1.429 . S
C2550 C2533 1.574 . S
C2550 H2544 0.949 . S
C2550 C2554 1.368 . S
C2551 C2532 1.429 . S
C2551 C2545 1.429 . S
C2551 C2552 1.523 . S
C2552 C2533 1.368 . S
C2552 C2546 1.368 . S
C2552 C2551 1.523 . S
C2553 C2537 1.429 . S
C2553 C2549 1.429 . S
C2553 C2554 1.523 . S
C2554 C2538 1.368 . S
C2554 C2550 1.368 . S
C2554 C2553 1.523 . S
H2555 C2530 0.950 . S
H2556 C2532 0.950 . S
H2557 C2533 0.949 . S
H2558 C2535 0.950 . S
H2559 C2537 0.950 . S
C2560 C2561 1.349 . S
C2560 C2562 1.327 . S
C2560 H2585 0.950 . S
C2561 C2560 1.349 . S
C2561 C2577 1.349 . S
C2562 C2560 1.327 . S
C2562 C2581 1.429 . S
C2562 H2586 0.950 . S
C2563 C2580 1.574 . S
C2563 C2582 1.368 . S
C2563 H2587 0.949 . S
H2564 C2568 0.949 . S
C2565 C2566 1.349 . S
C2565 C2567 1.327 . S
C2565 H2588 0.950 . S
C2566 C2565 1.349 . S
C2566 C2578 1.349 . S
C2567 C2565 1.327 . S
C2567 C2583 1.429 . S
C2567 H2589 0.950 . S
C2568 H2564 0.949 . S
C2568 C2576 1.574 . S
C2568 C2584 1.368 . S
H2569 C2577 0.950 . S
H2570 C2575 0.950 . S
H2571 C2576 0.949 . S
H2572 C2578 0.950 . S
H2573 C2579 0.950 . S
H2574 C2580 0.949 . S
C2575 H2570 0.950 . S
C2575 C2577 1.327 . S
C2575 C2581 1.429 . S
C2576 C2568 1.574 . S
C2576 H2571 0.949 . S
C2576 C2582 1.368 . S
C2577 C2561 1.349 . S
C2577 H2569 0.950 . S
C2577 C2575 1.327 . S
C2578 C2566 1.349 . S
C2578 H2572 0.950 . S
C2578 C2579 1.327 . S
C2579 H2573 0.950 . S
C2579 C2578 1.327 . S
C2579 C2583 1.429 . S
C2580 C2563 1.574 . S
C2580 H2574 0.949 . S
C2580 C2584 1.368 . S
C2581 C2562 1.429 . S
C2581 C2575 1.429 . S
C2581 C2582 1.523 . S
C2582 C2563 1.368 . S
C2582 C2576 1.368 . S
C2582 C2581 1.523 . S
C2583 C2567 1.429 . S
C2583 C2579 1.429 . S
C2583 C2584 1.523 . S
C2584 C2568 1.368 . S
C2584 C2580 1.368 . S
C2584 C2583 1.523 . S
H2585 C2560 0.950 . S
H2586 C2562 0.950 . S
H2587 C2563 0.949 . S
H2588 C2565 0.950 . S
H2589 C2567 0.950 . S
C2590 C2591 1.349 . S
C2590 C2592 1.327 . S
C2590 H2615 0.950 . S
C2591 C2590 1.349 . S
C2591 C2607 1.349 . S
C2592 C2590 1.327 . S
C2592 C2611 1.429 . S
C2592 H2616 0.950 . S
C2593 C2610 1.574 . S
C2593 C2612 1.368 . S
C2593 H2617 0.949 . S
H2594 C2598 0.949 . S
C2595 C2596 1.349 . S
C2595 C2597 1.327 . S
C2595 H2618 0.950 . S
C2596 C2595 1.349 . S
C2596 C2608 1.349 . S
C2597 C2595 1.327 . S
C2597 C2613 1.429 . S
C2597 H2619 0.950 . S
C2598 H2594 0.949 . S
C2598 C2606 1.574 . S
C2598 C2614 1.368 . S
H2599 C2607 0.950 . S
H2600 C2605 0.950 . S
H2601 C2606 0.949 . S
H2602 C2608 0.950 . S
H2603 C2609 0.950 . S
H2604 C2610 0.949 . S
C2605 H2600 0.950 . S
C2605 C2607 1.327 . S
C2605 C2611 1.429 . S
C2606 C2598 1.574 . S
C2606 H2601 0.949 . S
C2606 C2612 1.368 . S
C2607 C2591 1.349 . S
C2607 H2599 0.950 . S
C2607 C2605 1.327 . S
C2608 C2596 1.349 . S
C2608 H2602 0.950 . S
C2608 C2609 1.327 . S
C2609 H2603 0.950 . S
C2609 C2608 1.327 . S
C2609 C2613 1.429 . S
C2610 C2593 1.574 . S
C2610 H2604 0.949 . S
C2610 C2614 1.368 . S
C2611 C2592 1.429 . S
C2611 C2605 1.429 . S
C2611 C2612 1.523 . S
C2612 C2593 1.368 . S
C2612 C2606 1.368 . S
C2612 C2611 1.523 . S
C2613 C2597 1.429 . S
C2613 C2609 1.429 . S
C2613 C2614 1.523 . S
C2614 C2598 1.368 . S
C2614 C2610 1.368 . S
C2614 C2613 1.523 . S
H2615 C2590 0.950 . S
H2616 C2592 0.950 . S
H2617 C2593 0.949 . S
H2618 C2595 0.950 . S
H2619 C2597 0.950 . S
C2620 C2621 1.349 1_554 S
C2620 C2622 1.327 1_554 S
C2620 H2645 0.950 . S
C2621 C2620 1.349 1_556 S
C2621 C2637 1.349 . S
C2622 C2620 1.327 1_556 S
C2622 C2641 1.429 . S
C2622 H2646 0.942 1_556 S
C2623 C2640 1.574 . S
C2623 C2642 1.368 . S
C2623 H2647 0.949 . S
H2624 C2628 0.949 . S
C2625 C2626 1.349 . S
C2625 C2627 1.327 . S
C2625 H2648 0.950 . S
C2626 C2625 1.349 . S
C2626 C2638 1.349 . S
C2627 C2625 1.327 . S
C2627 C2643 1.429 . S
C2627 H2649 0.950 . S
C2628 H2624 0.949 . S
C2628 C2636 1.574 . S
C2628 C2644 1.368 . S
H2629 C2637 0.950 . S
H2630 C2635 0.950 . S
H2631 C2636 0.949 . S
H2632 C2638 0.950 . S
H2633 C2639 0.950 . S
H2634 C2640 0.949 . S
C2635 H2630 0.950 . S
C2635 C2637 1.327 . S
C2635 C2641 1.429 . S
C2636 C2628 1.574 . S
C2636 H2631 0.949 . S
C2636 C2642 1.368 . S
C2637 C2621 1.349 . S
C2637 H2629 0.950 . S
C2637 C2635 1.327 . S
C2638 C2626 1.349 . S
C2638 H2632 0.950 . S
C2638 C2639 1.327 . S
C2639 H2633 0.950 . S
C2639 C2638 1.327 . S
C2639 C2643 1.429 . S
C2640 C2623 1.574 . S
C2640 H2634 0.949 . S
C2640 C2644 1.368 . S
C2641 C2622 1.429 . S
C2641 C2635 1.429 . S
C2641 C2642 1.523 . S
C2642 C2623 1.368 . S
C2642 C2636 1.368 . S
C2642 C2641 1.523 . S
C2643 C2627 1.429 . S
C2643 C2639 1.429 . S
C2643 C2644 1.523 . S
C2644 C2628 1.368 . S
C2644 C2640 1.368 . S
C2644 C2643 1.523 . S
H2645 C2620 0.950 . S
H2646 C2622 0.942 1_554 S
H2647 C2623 0.949 . S
H2648 C2625 0.950 . S
H2649 C2627 0.950 . S
C2650 C2651 1.349 . S
C2650 C2652 1.327 . S
C2650 H2675 0.950 . S
C2651 C2650 1.349 . S
C2651 C2667 1.349 . S
C2652 C2650 1.327 . S
C2652 C2671 1.429 . S
C2652 H2676 0.950 . S
C2653 C2670 1.574 . S
C2653 C2672 1.368 . S
C2653 H2677 0.949 . S
H2654 C2658 0.949 . S
C2655 C2656 1.349 . S
C2655 C2657 1.327 . S
C2655 H2678 0.950 . S
C2656 C2655 1.349 . S
C2656 C2668 1.349 1_556 S
C2657 C2655 1.327 . S
C2657 C2673 1.429 . S
C2657 H2679 0.950 . S
C2658 H2654 0.949 . S
C2658 C2666 1.574 . S
C2658 C2674 1.368 . S
H2659 C2667 0.950 . S
H2660 C2665 0.950 . S
H2661 C2666 0.949 . S
H2662 C2668 0.950 . S
H2663 C2669 0.950 . S
H2664 C2670 0.949 . S
C2665 H2660 0.950 . S
C2665 C2667 1.327 . S
C2665 C2671 1.429 . S
C2666 C2658 1.574 . S
C2666 H2661 0.949 . S
C2666 C2672 1.368 . S
C2667 C2651 1.349 . S
C2667 H2659 0.950 . S
C2667 C2665 1.327 . S
C2668 C2656 1.349 1_554 S
C2668 H2662 0.950 . S
C2668 C2669 1.327 1_554 S
C2669 H2663 0.950 . S
C2669 C2668 1.327 1_556 S
C2669 C2673 1.429 . S
C2670 C2653 1.574 . S
C2670 H2664 0.949 . S
C2670 C2674 1.368 . S
C2671 C2652 1.429 . S
C2671 C2665 1.429 . S
C2671 C2672 1.523 . S
C2672 C2653 1.368 . S
C2672 C2666 1.368 . S
C2672 C2671 1.523 . S
C2673 C2657 1.429 . S
C2673 C2669 1.429 . S
C2673 C2674 1.523 . S
C2674 C2658 1.368 . S
C2674 C2670 1.368 . S
C2674 C2673 1.523 . S
H2675 C2650 0.950 . S
H2676 C2652 0.950 . S
H2677 C2653 0.949 . S
H2678 C2655 0.950 . S
H2679 C2657 0.950 . S
C2680 C2681 1.349 . S
C2680 C2682 1.327 . S
C2680 H2705 0.950 . S
C2681 C2680 1.349 . S
C2681 C2697 1.349 . S
C2682 C2680 1.327 . S
C2682 C2701 1.429 . S
C2682 H2706 0.950 . S
C2683 C2700 1.574 . S
C2683 C2702 1.368 . S
C2683 H2707 0.949 . S
H2684 C2688 0.949 . S
C2685 C2686 1.349 . S
C2685 C2687 1.327 . S
C2685 H2708 0.950 . S
C2686 C2685 1.349 . S
C2686 C2698 1.349 . S
C2687 C2685 1.327 . S
C2687 C2703 1.429 . S
C2687 H2709 0.950 . S
C2688 H2684 0.949 . S
C2688 C2696 1.574 . S
C2688 C2704 1.368 . S
H2689 C2697 0.950 . S
H2690 C2695 0.950 . S
H2691 C2696 0.949 . S
H2692 C2698 0.950 . S
H2693 C2699 0.950 . S
H2694 C2700 0.949 . S
C2695 H2690 0.950 . S
C2695 C2697 1.327 . S
C2695 C2701 1.429 . S
C2696 C2688 1.574 . S
C2696 H2691 0.949 . S
C2696 C2702 1.368 . S
C2697 C2681 1.349 . S
C2697 H2689 0.950 . S
C2697 C2695 1.327 . S
C2698 C2686 1.349 . S
C2698 H2692 0.950 . S
C2698 C2699 1.327 . S
C2699 H2693 0.950 . S
C2699 C2698 1.327 . S
C2699 C2703 1.429 . S
C2700 C2683 1.574 . S
C2700 H2694 0.949 . S
C2700 C2704 1.368 . S
C2701 C2682 1.429 . S
C2701 C2695 1.429 . S
C2701 C2702 1.523 . S
C2702 C2683 1.368 . S
C2702 C2696 1.368 . S
C2702 C2701 1.523 . S
C2703 C2687 1.429 . S
C2703 C2699 1.429 . S
C2703 C2704 1.523 . S
C2704 C2688 1.368 . S
C2704 C2700 1.368 . S
C2704 C2703 1.523 . S
H2705 C2680 0.950 . S
H2706 C2682 0.950 . S
H2707 C2683 0.949 . S
H2708 C2685 0.950 . S
H2709 C2687 0.950 . S
C2710 C2711 1.349 . S
C2710 C2712 1.327 . S
C2710 H2735 0.950 . S
C2711 C2710 1.349 . S
C2711 C2727 1.349 . S
C2712 C2710 1.327 . S
C2712 C2731 1.429 . S
C2712 H2736 0.950 . S
C2713 C2730 1.574 . S
C2713 C2732 1.368 . S
C2713 H2737 0.949 . S
H2714 C2718 0.949 . S
C2715 C2716 1.349 . S
C2715 C2717 1.327 . S
C2715 H2738 0.950 . S
C2716 C2715 1.349 . S
C2716 C2728 1.349 . S
C2717 C2715 1.327 . S
C2717 C2733 1.429 . S
C2717 H2739 0.950 . S
C2718 H2714 0.949 . S
C2718 C2726 1.574 . S
C2718 C2734 1.368 . S
H2719 C2727 0.950 . S
H2720 C2725 0.950 . S
H2721 C2726 0.949 . S
H2722 C2728 0.950 . S
H2723 C2729 0.950 . S
H2724 C2730 0.949 . S
C2725 H2720 0.950 . S
C2725 C2727 1.327 . S
C2725 C2731 1.429 . S
C2726 C2718 1.574 . S
C2726 H2721 0.949 . S
C2726 C2732 1.368 . S
C2727 C2711 1.349 . S
C2727 H2719 0.950 . S
C2727 C2725 1.327 . S
C2728 C2716 1.349 . S
C2728 H2722 0.950 . S
C2728 C2729 1.327 . S
C2729 H2723 0.950 . S
C2729 C2728 1.327 . S
C2729 C2733 1.429 . S
C2730 C2713 1.574 . S
C2730 H2724 0.949 . S
C2730 C2734 1.368 . S
C2731 C2712 1.429 . S
C2731 C2725 1.429 . S
C2731 C2732 1.523 . S
C2732 C2713 1.368 . S
C2732 C2726 1.368 . S
C2732 C2731 1.523 . S
C2733 C2717 1.429 . S
C2733 C2729 1.429 . S
C2733 C2734 1.523 . S
C2734 C2718 1.368 . S
C2734 C2730 1.368 . S
C2734 C2733 1.523 . S
H2735 C2710 0.950 . S
H2736 C2712 0.950 . S
H2737 C2713 0.949 . S
H2738 C2715 0.950 . S
H2739 C2717 0.950 . S
C2740 C2741 1.349 . S
C2740 C2742 1.327 . S
C2740 H2765 0.950 . S
C2741 C2740 1.349 . S
C2741 C2757 1.349 1_554 S
C2742 C2740 1.327 . S
C2742 C2761 1.429 . S
C2742 H2766 0.950 . S
C2743 C2760 1.574 . S
C2743 C2762 1.368 . S
C2743 H2767 0.949 . S
H2744 C2748 0.949 . S
C2745 C2746 1.349 . S
C2745 C2747 1.327 . S
C2745 H2768 0.950 . S
C2746 C2745 1.349 . S
C2746 C2758 1.349 . S
C2747 C2745 1.327 . S
C2747 C2763 1.429 . S
C2747 H2769 0.950 . S
C2748 H2744 0.949 . S
C2748 C2756 1.574 . S
C2748 C2764 1.368 . S
H2749 C2757 0.950 . S
H2750 C2755 0.950 1_556 S
H2751 C2756 0.949 . S
H2752 C2758 0.950 . S
H2753 C2759 0.950 . S
H2754 C2760 0.949 . S
C2755 H2750 0.950 1_554 S
C2755 C2757 1.327 1_554 S
C2755 C2761 1.429 . S
C2756 C2748 1.574 . S
C2756 H2751 0.949 . S
C2756 C2762 1.368 . S
C2757 C2741 1.349 1_556 S
C2757 H2749 0.950 . S
C2757 C2755 1.327 1_556 S
C2758 C2746 1.349 . S
C2758 H2752 0.950 . S
C2758 C2759 1.327 . S
C2759 H2753 0.950 . S
C2759 C2758 1.327 . S
C2759 C2763 1.429 . S
C2760 C2743 1.574 . S
C2760 H2754 0.949 . S
C2760 C2764 1.368 . S
C2761 C2742 1.429 . S
C2761 C2755 1.429 . S
C2761 C2762 1.523 . S
C2762 C2743 1.368 . S
C2762 C2756 1.368 . S
C2762 C2761 1.523 . S
C2763 C2747 1.429 . S
C2763 C2759 1.429 . S
C2763 C2764 1.523 . S
C2764 C2748 1.368 . S
C2764 C2760 1.368 . S
C2764 C2763 1.523 . S
H2765 C2740 0.950 . S
H2766 C2742 0.950 . S
H2767 C2743 0.949 . S
H2768 C2745 0.950 . S
H2769 C2747 0.950 . S
C2770 C2771 1.349 . S
C2770 C2772 1.327 . S
C2770 H2795 0.950 . S
C2771 C2770 1.349 . S
C2771 C2787 1.349 1_554 S
C2772 C2770 1.327 . S
C2772 C2791 1.429 . S
C2772 H2796 0.950 . S
C2773 C2790 1.574 . S
C2773 C2792 1.368 . S
C2773 H2797 0.949 . S
H2774 C2778 0.949 . S
C2775 C2776 1.349 . S
C2775 C2777 1.327 . S
C2775 H2798 0.950 . S
C2776 C2775 1.349 . S
C2776 C2788 1.349 . S
C2777 C2775 1.327 . S
C2777 C2793 1.429 . S
C2777 H2799 0.950 . S
C2778 H2774 0.949 . S
C2778 C2786 1.574 . S
C2778 C2794 1.368 . S
H2779 C2787 0.950 . S
H2780 C2785 0.950 1_556 S
H2781 C2786 0.949 . S
H2782 C2788 0.950 . S
H2783 C2789 0.950 . S
H2784 C2790 0.949 . S
C2785 H2780 0.950 1_554 S
C2785 C2787 1.327 1_554 S
C2785 C2791 1.429 . S
C2786 C2778 1.574 . S
C2786 H2781 0.949 . S
C2786 C2792 1.368 . S
C2787 C2771 1.349 1_556 S
C2787 H2779 0.950 . S
C2787 C2785 1.327 1_556 S
C2788 C2776 1.349 . S
C2788 H2782 0.950 . S
C2788 C2789 1.327 . S
C2789 H2783 0.950 . S
C2789 C2788 1.327 . S
C2789 C2793 1.429 . S
C2790 C2773 1.574 . S
C2790 H2784 0.949 . S
C2790 C2794 1.368 . S
C2791 C2772 1.429 . S
C2791 C2785 1.429 . S
C2791 C2792 1.523 . S
C2792 C2773 1.368 . S
C2792 C2786 1.368 . S
C2792 C2791 1.523 . S
C2793 C2777 1.429 . S
C2793 C2789 1.429 . S
C2793 C2794 1.523 . S
C2794 C2778 1.368 . S
C2794 C2790 1.368 . S
C2794 C2793 1.523 . S
H2795 C2770 0.950 . S
H2796 C2772 0.950 . S
H2797 C2773 0.949 . S
H2798 C2775 0.950 . S
H2799 C2777 0.950 . S
C2800 C2801 1.349 . S
C2800 C2802 1.327 . S
C2800 H2825 0.950 . S
C2801 C2800 1.349 . S
C2801 C2817 1.349 . S
C2802 C2800 1.327 . S
C2802 C2821 1.429 . S
C2802 H2826 0.950 . S
C2803 C2820 1.574 . S
C2803 C2822 1.368 . S
C2803 H2827 0.949 . S
H2804 C2808 0.949 . S
C2805 C2806 1.349 . S
C2805 C2807 1.327 . S
C2805 H2828 0.950 . S
C2806 C2805 1.349 . S
C2806 C2818 1.349 . S
C2807 C2805 1.327 . S
C2807 C2823 1.429 . S
C2807 H2829 0.950 . S
C2808 H2804 0.949 . S
C2808 C2816 1.574 . S
C2808 C2824 1.368 . S
H2809 C2817 0.950 1_554 S
H2810 C2815 0.950 . S
H2811 C2816 0.949 . S
H2812 C2818 0.950 . S
H2813 C2819 0.950 . S
H2814 C2820 0.949 . S
C2815 H2810 0.950 . S
C2815 C2817 1.327 . S
C2815 C2821 1.429 . S
C2816 C2808 1.574 . S
C2816 H2811 0.949 . S
C2816 C2822 1.368 . S
C2817 C2801 1.349 . S
C2817 H2809 0.950 1_556 S
C2817 C2815 1.327 . S
C2818 C2806 1.349 . S
C2818 H2812 0.950 . S
C2818 C2819 1.327 . S
C2819 H2813 0.950 . S
C2819 C2818 1.327 . S
C2819 C2823 1.429 . S
C2820 C2803 1.574 . S
C2820 H2814 0.949 . S
C2820 C2824 1.368 . S
C2821 C2802 1.429 . S
C2821 C2815 1.429 . S
C2821 C2822 1.523 . S
C2822 C2803 1.368 . S
C2822 C2816 1.368 . S
C2822 C2821 1.523 . S
C2823 C2807 1.429 . S
C2823 C2819 1.429 . S
C2823 C2824 1.523 . S
C2824 C2808 1.368 . S
C2824 C2820 1.368 . S
C2824 C2823 1.523 . S
H2825 C2800 0.950 . S
H2826 C2802 0.950 . S
H2827 C2803 0.949 . S
H2828 C2805 0.950 . S
H2829 C2807 0.950 . S
C2830 C2831 1.349 . S
C2830 C2832 1.327 . S
C2830 H2855 0.950 . S
C2831 C2830 1.349 . S
C2831 C2847 1.349 . S
C2832 C2830 1.327 . S
C2832 C2851 1.429 . S
C2832 H2856 0.950 . S
C2833 C2850 1.574 . S
C2833 C2852 1.368 . S
C2833 H2857 0.949 . S
H2834 C2838 0.949 . S
C2835 C2836 1.349 1_554 S
C2835 C2837 1.327 1_554 S
C2835 H2858 0.950 . S
C2836 C2835 1.349 1_556 S
C2836 C2848 1.349 . S
C2837 C2835 1.327 1_556 S
C2837 C2853 1.429 . S
C2837 H2859 0.950 . S
C2838 H2834 0.949 . S
C2838 C2846 1.574 . S
C2838 C2854 1.368 . S
H2839 C2847 0.950 . S
H2840 C2845 0.950 . S
H2841 C2846 0.949 . S
H2842 C2848 0.950 . S
H2843 C2849 0.950 . S
H2844 C2850 0.949 . S
C2845 H2840 0.950 . S
C2845 C2847 1.327 . S
C2845 C2851 1.429 . S
C2846 C2838 1.574 . S
C2846 H2841 0.949 . S
C2846 C2852 1.368 . S
C2847 C2831 1.349 . S
C2847 H2839 0.950 . S
C2847 C2845 1.327 . S
C2848 C2836 1.349 . S
C2848 H2842 0.950 . S
C2848 C2849 1.327 . S
C2849 H2843 0.950 . S
C2849 C2848 1.327 . S
C2849 C2853 1.429 . S
C2850 C2833 1.574 . S
C2850 H2844 0.949 . S
C2850 C2854 1.368 . S
C2851 C2832 1.429 . S
C2851 C2845 1.429 . S
C2851 C2852 1.523 . S
C2852 C2833 1.368 . S
C2852 C2846 1.368 . S
C2852 C2851 1.523 . S
C2853 C2837 1.429 . S
C2853 C2849 1.429 . S
C2853 C2854 1.523 . S
C2854 C2838 1.368 . S
C2854 C2850 1.368 . S
C2854 C2853 1.523 . S
H2855 C2830 0.950 . S
H2856 C2832 0.950 . S
H2857 C2833 0.949 . S
H2858 C2835 0.950 . S
H2859 C2837 0.950 . S
C2860 C2861 1.349 . S
C2860 C2862 1.327 . S
C2860 H2885 0.950 . S
C2861 C2860 1.349 . S
C2861 C2877 1.349 . S
C2862 C2860 1.327 . S
C2862 C2881 1.429 . S
C2862 H2886 0.950 . S
C2863 C2880 1.574 . S
C2863 C2882 1.368 . S
C2863 H2887 0.949 . S
H2864 C2868 0.949 . S
C2865 C2866 1.349 . S
C2865 C2867 1.327 . S
C2865 H2888 0.950 . S
C2866 C2865 1.349 . S
C2866 C2878 1.349 . S
C2867 C2865 1.327 . S
C2867 C2883 1.429 . S
C2867 H2889 0.950 . S
C2868 H2864 0.949 . S
C2868 C2876 1.574 . S
C2868 C2884 1.368 . S
H2869 C2877 0.950 . S
H2870 C2875 0.950 . S
H2871 C2876 0.949 . S
H2872 C2878 0.950 . S
H2873 C2879 0.950 . S
H2874 C2880 0.949 . S
C2875 H2870 0.950 . S
C2875 C2877 1.327 . S
C2875 C2881 1.429 . S
C2876 C2868 1.574 . S
C2876 H2871 0.949 . S
C2876 C2882 1.368 . S
C2877 C2861 1.349 . S
C2877 H2869 0.950 . S
C2877 C2875 1.327 . S
C2878 C2866 1.349 . S
C2878 H2872 0.950 . S
C2878 C2879 1.327 . S
C2879 H2873 0.950 . S
C2879 C2878 1.327 . S
C2879 C2883 1.429 . S
C2880 C2863 1.574 . S
C2880 H2874 0.949 . S
C2880 C2884 1.368 . S
C2881 C2862 1.429 . S
C2881 C2875 1.429 . S
C2881 C2882 1.523 . S
C2882 C2863 1.368 . S
C2882 C2876 1.368 . S
C2882 C2881 1.523 . S
C2883 C2867 1.429 . S
C2883 C2879 1.429 . S
C2883 C2884 1.523 . S
C2884 C2868 1.368 . S
C2884 C2880 1.368 . S
C2884 C2883 1.523 . S
H2885 C2860 0.950 . S
H2886 C2862 0.950 . S
H2887 C2863 0.949 . S
H2888 C2865 0.950 . S
H2889 C2867 0.950 . S
C2890 C2891 1.349 . S
C2890 C2892 1.327 . S
C2890 H2915 0.950 . S
C2891 C2890 1.349 . S
C2891 C2907 1.349 . S
C2892 C2890 1.327 . S
C2892 C2911 1.429 . S
C2892 H2916 0.950 . S
C2893 C2910 1.574 . S
C2893 C2912 1.368 . S
C2893 H2917 0.949 . S
H2894 C2898 0.949 . S
C2895 C2896 1.349 . S
C2895 C2897 1.327 . S
C2895 H2918 0.950 . S
C2896 C2895 1.349 . S
C2896 C2908 1.349 . S
C2897 C2895 1.327 . S
C2897 C2913 1.429 . S
C2897 H2919 0.950 . S
C2898 H2894 0.949 . S
C2898 C2906 1.574 . S
C2898 C2914 1.368 . S
H2899 C2907 0.950 . S
H2900 C2905 0.950 . S
H2901 C2906 0.949 . S
H2902 C2908 0.950 . S
H2903 C2909 0.950 . S
H2904 C2910 0.949 . S
C2905 H2900 0.950 . S
C2905 C2907 1.327 . S
C2905 C2911 1.429 . S
C2906 C2898 1.574 . S
C2906 H2901 0.949 . S
C2906 C2912 1.368 . S
C2907 C2891 1.349 . S
C2907 H2899 0.950 . S
C2907 C2905 1.327 . S
C2908 C2896 1.349 . S
C2908 H2902 0.950 . S
C2908 C2909 1.327 . S
C2909 H2903 0.950 . S
C2909 C2908 1.327 . S
C2909 C2913 1.429 . S
C2910 C2893 1.574 . S
C2910 H2904 0.949 . S
C2910 C2914 1.368 . S
C2911 C2892 1.429 . S
C2911 C2905 1.429 . S
C2911 C2912 1.523 . S
C2912 C2893 1.368 . S
C2912 C2906 1.368 . S
C2912 C2911 1.523 . S
C2913 C2897 1.429 . S
C2913 C2909 1.429 . S
C2913 C2914 1.523 . S
C2914 C2898 1.368 . S
C2914 C2910 1.368 . S
C2914 C2913 1.523 . S
H2915 C2890 0.950 . S
H2916 C2892 0.950 . S
H2917 C2893 0.949 . S
H2918 C2895 0.950 . S
H2919 C2897 0.950 . S
C2920 C2921 1.349 . S
C2920 C2922 1.327 . S
C2920 H2945 0.950 . S
C2921 C2920 1.349 . S
C2921 C2937 1.349 1_554 S
C2922 C2920 1.327 . S
C2922 C2941 1.429 . S
C2922 H2946 0.950 . S
C2923 C2940 1.574 . S
C2923 C2942 1.368 . S
C2923 H2947 0.949 . S
H2924 C2928 0.949 . S
C2925 C2926 1.349 . S
C2925 C2927 1.327 . S
C2925 H2948 0.950 . S
C2926 C2925 1.349 . S
C2926 C2938 1.349 . S
C2927 C2925 1.327 . S
C2927 C2943 1.429 . S
C2927 H2949 0.950 . S
C2928 H2924 0.949 . S
C2928 C2936 1.574 . S
C2928 C2944 1.368 . S
H2929 C2937 0.950 . S
H2930 C2935 0.950 1_556 S
H2931 C2936 0.949 . S
H2932 C2938 0.950 . S
H2933 C2939 0.950 . S
H2934 C2940 0.949 . S
C2935 H2930 0.950 1_554 S
C2935 C2937 1.327 1_554 S
C2935 C2941 1.429 . S
C2936 C2928 1.574 . S
C2936 H2931 0.949 . S
C2936 C2942 1.368 . S
C2937 C2921 1.349 1_556 S
C2937 H2929 0.950 . S
C2937 C2935 1.327 1_556 S
C2938 C2926 1.349 . S
C2938 H2932 0.950 . S
C2938 C2939 1.327 . S
C2939 H2933 0.950 . S
C2939 C2938 1.327 . S
C2939 C2943 1.429 . S
C2940 C2923 1.574 . S
C2940 H2934 0.949 . S
C2940 C2944 1.368 . S
C2941 C2922 1.429 . S
C2941 C2935 1.429 . S
C2941 C2942 1.523 . S
C2942 C2923 1.368 . S
C2942 C2936 1.368 . S
C2942 C2941 1.523 . S
C2943 C2927 1.429 . S
C2943 C2939 1.429 . S
C2943 C2944 1.523 . S
C2944 C2928 1.368 . S
C2944 C2940 1.368 . S
C2944 C2943 1.523 . S
H2945 C2920 0.950 . S
H2946 C2922 0.950 . S
H2947 C2923 0.949 . S
H2948 C2925 0.950 . S
H2949 C2927 0.950 . S
C2950 C2951 1.349 . S
C2950 C2952 1.327 . S
C2950 H2975 0.950 . S
C2951 C2950 1.349 . S
C2951 C2967 1.349 . S
C2952 C2950 1.327 . S
C2952 C2971 1.429 . S
C2952 H2976 0.950 . S
C2953 C2970 1.574 . S
C2953 C2972 1.368 . S
C2953 H2977 0.949 . S
H2954 C2958 0.949 . S
C2955 C2956 1.349 . S
C2955 C2957 1.327 . S
C2955 H2978 0.950 . S
C2956 C2955 1.349 . S
C2956 C2968 1.349 1_554 S
C2957 C2955 1.327 . S
C2957 C2973 1.429 . S
C2957 H2979 0.950 . S
C2958 H2954 0.949 . S
C2958 C2966 1.574 . S
C2958 C2974 1.368 . S
H2959 C2967 0.950 . S
H2960 C2965 0.950 . S
H2961 C2966 0.949 . S
H2962 C2968 0.950 . S
H2963 C2969 0.950 . S
H2964 C2970 0.949 . S
C2965 H2960 0.950 . S
C2965 C2967 1.327 . S
C2965 C2971 1.429 . S
C2966 C2958 1.574 . S
C2966 H2961 0.949 . S
C2966 C2972 1.368 . S
C2967 C2951 1.349 . S
C2967 H2959 0.950 . S
C2967 C2965 1.327 . S
C2968 C2956 1.349 1_556 S
C2968 H2962 0.950 . S
C2968 C2969 1.327 1_556 S
C2969 H2963 0.950 . S
C2969 C2968 1.327 1_554 S
C2969 C2973 1.429 . S
C2970 C2953 1.574 . S
C2970 H2964 0.949 . S
C2970 C2974 1.368 . S
C2971 C2952 1.429 . S
C2971 C2965 1.429 . S
C2971 C2972 1.523 . S
C2972 C2953 1.368 . S
C2972 C2966 1.368 . S
C2972 C2971 1.523 . S
C2973 C2957 1.429 . S
C2973 C2969 1.429 . S
C2973 C2974 1.523 . S
C2974 C2958 1.368 . S
C2974 C2970 1.368 . S
C2974 C2973 1.523 . S
H2975 C2950 0.950 . S
H2976 C2952 0.950 . S
H2977 C2953 0.949 . S
H2978 C2955 0.950 . S
H2979 C2957 0.950 . S
C2980 C2981 1.349 . S
C2980 C2982 1.327 . S
C2980 H3005 0.950 . S
C2981 C2980 1.349 . S
C2981 C2997 1.349 . S
C2982 C2980 1.327 . S
C2982 C3001 1.429 . S
C2982 H3006 0.950 . S
C2983 C3000 1.574 . S
C2983 C3002 1.368 . S
C2983 H3007 0.949 . S
H2984 C2988 0.949 . S
C2985 C2986 1.349 . S
C2985 C2987 1.327 . S
C2985 H3008 0.950 . S
C2986 C2985 1.349 . S
C2986 C2998 1.349 . S
C2987 C2985 1.327 . S
C2987 C3003 1.429 . S
C2987 H3009 0.950 . S
C2988 H2984 0.949 . S
C2988 C2996 1.574 . S
C2988 C3004 1.368 . S
H2989 C2997 0.950 . S
H2990 C2995 0.950 . S
H2991 C2996 0.949 . S
H2992 C2998 0.950 . S
H2993 C2999 0.950 . S
H2994 C3000 0.949 . S
C2995 H2990 0.950 . S
C2995 C2997 1.327 . S
C2995 C3001 1.429 . S
C2996 C2988 1.574 . S
C2996 H2991 0.949 . S
C2996 C3002 1.368 . S
C2997 C2981 1.349 . S
C2997 H2989 0.950 . S
C2997 C2995 1.327 . S
C2998 C2986 1.349 . S
C2998 H2992 0.950 . S
C2998 C2999 1.327 . S
C2999 H2993 0.950 . S
C2999 C2998 1.327 . S
C2999 C3003 1.429 . S
C3000 C2983 1.574 . S
C3000 H2994 0.949 . S
C3000 C3004 1.368 . S
C3001 C2982 1.429 . S
C3001 C2995 1.429 . S
C3001 C3002 1.523 . S
C3002 C2983 1.368 . S
C3002 C2996 1.368 . S
C3002 C3001 1.523 . S
C3003 C2987 1.429 . S
C3003 C2999 1.429 . S
C3003 C3004 1.523 . S
C3004 C2988 1.368 . S
C3004 C3000 1.368 . S
C3004 C3003 1.523 . S
H3005 C2980 0.950 . S
H3006 C2982 0.950 . S
H3007 C2983 0.949 . S
H3008 C2985 0.950 . S
H3009 C2987 0.950 . S
C3010 C3011 1.349 . S
C3010 C3012 1.327 . S
C3010 H3035 0.950 . S
C3011 C3010 1.349 . S
C3011 C3027 1.349 . S
C3012 C3010 1.327 . S
C3012 C3031 1.429 . S
C3012 H3036 0.950 . S
C3013 C3030 1.574 . S
C3013 C3032 1.368 . S
C3013 H3037 0.949 . S
H3014 C3018 0.949 . S
C3015 C3016 1.349 . S
C3015 C3017 1.327 . S
C3015 H3038 0.950 . S
C3016 C3015 1.349 . S
C3016 C3028 1.349 . S
C3017 C3015 1.327 . S
C3017 C3033 1.429 . S
C3017 H3039 0.950 . S
C3018 H3014 0.949 . S
C3018 C3026 1.574 . S
C3018 C3034 1.368 . S
H3019 C3027 0.950 . S
H3020 C3025 0.950 . S
H3021 C3026 0.949 . S
H3022 C3028 0.950 . S
H3023 C3029 0.950 . S
H3024 C3030 0.949 . S
C3025 H3020 0.950 . S
C3025 C3027 1.327 . S
C3025 C3031 1.429 . S
C3026 C3018 1.574 . S
C3026 H3021 0.949 . S
C3026 C3032 1.368 . S
C3027 C3011 1.349 . S
C3027 H3019 0.950 . S
C3027 C3025 1.327 . S
C3028 C3016 1.349 . S
C3028 H3022 0.950 . S
C3028 C3029 1.327 . S
C3029 H3023 0.950 . S
C3029 C3028 1.327 . S
C3029 C3033 1.429 . S
C3030 C3013 1.574 . S
C3030 H3024 0.949 . S
C3030 C3034 1.368 . S
C3031 C3012 1.429 . S
C3031 C3025 1.429 . S
C3031 C3032 1.523 . S
C3032 C3013 1.368 . S
C3032 C3026 1.368 . S
C3032 C3031 1.523 . S
C3033 C3017 1.429 . S
C3033 C3029 1.429 . S
C3033 C3034 1.523 . S
C3034 C3018 1.368 . S
C3034 C3030 1.368 . S
C3034 C3033 1.523 . S
H3035 C3010 0.950 . S
H3036 C3012 0.950 . S
H3037 C3013 0.949 . S
H3038 C3015 0.950 . S
H3039 C3017 0.950 . S
C3040 C3041 1.349 . S
C3040 C3042 1.327 . S
C3040 H3065 0.950 . S
C3041 C3040 1.349 . S
C3041 C3057 1.349 . S
C3042 C3040 1.327 . S
C3042 C3061 1.429 . S
C3042 H3066 0.950 . S
C3043 C3060 1.574 . S
C3043 C3062 1.368 . S
C3043 H3067 0.949 . S
H3044 C3048 0.949 . S
C3045 C3046 1.349 . S
C3045 C3047 1.327 . S
C3045 H3068 0.950 . S
C3046 C3045 1.349 . S
C3046 C3058 1.349 . S
C3047 C3045 1.327 . S
C3047 C3063 1.429 . S
C3047 H3069 0.950 . S
C3048 H3044 0.949 . S
C3048 C3056 1.574 . S
C3048 C3064 1.368 . S
H3049 C3057 0.950 . S
H3050 C3055 0.950 . S
H3051 C3056 0.949 . S
H3052 C3058 0.950 . S
H3053 C3059 0.950 . S
H3054 C3060 0.949 . S
C3055 H3050 0.950 . S
C3055 C3057 1.327 . S
C3055 C3061 1.429 . S
C3056 C3048 1.574 . S
C3056 H3051 0.949 . S
C3056 C3062 1.368 . S
C3057 C3041 1.349 . S
C3057 H3049 0.950 . S
C3057 C3055 1.327 . S
C3058 C3046 1.349 . S
C3058 H3052 0.950 . S
C3058 C3059 1.327 . S
C3059 H3053 0.950 . S
C3059 C3058 1.327 . S
C3059 C3063 1.429 . S
C3060 C3043 1.574 . S
C3060 H3054 0.949 . S
C3060 C3064 1.368 . S
C3061 C3042 1.429 . S
C3061 C3055 1.429 . S
C3061 C3062 1.523 . S
C3062 C3043 1.368 . S
C3062 C3056 1.368 . S
C3062 C3061 1.523 . S
C3063 C3047 1.429 . S
C3063 C3059 1.429 . S
C3063 C3064 1.523 . S
C3064 C3048 1.368 . S
C3064 C3060 1.368 . S
C3064 C3063 1.523 . S
H3065 C3040 0.950 . S
H3066 C3042 0.950 . S
H3067 C3043 0.949 . S
H3068 C3045 0.950 . S
H3069 C3047 0.950 . S
C3070 C3071 1.349 . S
C3070 C3072 1.327 . S
C3070 H3095 0.950 . S
C3071 C3070 1.349 . S
C3071 C3087 1.349 . S
C3072 C3070 1.327 . S
C3072 C3091 1.429 . S
C3072 H3096 0.950 . S
C3073 C3090 1.574 . S
C3073 C3092 1.368 . S
C3073 H3097 0.949 . S
H3074 C3078 0.949 . S
C3075 C3076 1.349 . S
C3075 C3077 1.327 . S
C3075 H3098 0.950 . S
C3076 C3075 1.349 . S
C3076 C3088 1.349 . S
C3077 C3075 1.327 . S
C3077 C3093 1.429 . S
C3077 H3099 0.950 . S
C3078 H3074 0.949 . S
C3078 C3086 1.574 . S
C3078 C3094 1.368 . S
H3079 C3087 0.950 1_556 S
H3080 C3085 0.950 . S
H3081 C3086 0.949 . S
H3082 C3088 0.950 . S
H3083 C3089 0.950 . S
H3084 C3090 0.949 . S
C3085 H3080 0.950 . S
C3085 C3087 1.327 . S
C3085 C3091 1.429 . S
C3086 C3078 1.574 . S
C3086 H3081 0.949 . S
C3086 C3092 1.368 . S
C3087 C3071 1.349 . S
C3087 H3079 0.950 1_554 S
C3087 C3085 1.327 . S
C3088 C3076 1.349 . S
C3088 H3082 0.950 . S
C3088 C3089 1.327 . S
C3089 H3083 0.950 . S
C3089 C3088 1.327 . S
C3089 C3093 1.429 . S
C3090 C3073 1.574 . S
C3090 H3084 0.949 . S
C3090 C3094 1.368 . S
C3091 C3072 1.429 . S
C3091 C3085 1.429 . S
C3091 C3092 1.523 . S
C3092 C3073 1.368 . S
C3092 C3086 1.368 . S
C3092 C3091 1.523 . S
C3093 C3077 1.429 . S
C3093 C3089 1.429 . S
C3093 C3094 1.523 . S
C3094 C3078 1.368 . S
C3094 C3090 1.368 . S
C3094 C3093 1.523 . S
H3095 C3070 0.950 . S
H3096 C3072 0.950 . S
H3097 C3073 0.949 . S
H3098 C3075 0.950 . S
H3099 C3077 0.950 . S
C3100 C3101 1.349 . S
C3100 C3102 1.327 . S
C3100 H3125 0.950 . S
C3101 C3100 1.349 . S
C3101 C3117 1.349 . S
C3102 C3100 1.327 . S
C3102 C3121 1.429 . S
C3102 H3126 0.950 . S
C3103 C3120 1.574 . S
C3103 C3122 1.368 . S
C3103 H3127 0.949 . S
H3104 C3108 0.949 . S
C3105 C3106 1.349 . S
C3105 C3107 1.327 . S
C3105 H3128 0.950 . S
C3106 C3105 1.349 . S
C3106 C3118 1.349 . S
C3107 C3105 1.327 . S
C3107 C3123 1.429 . S
C3107 H3129 0.950 . S
C3108 H3104 0.949 . S
C3108 C3116 1.574 . S
C3108 C3124 1.368 . S
H3109 C3117 0.950 1_554 S
H3110 C3115 0.950 . S
H3111 C3116 0.949 . S
H3112 C3118 0.950 . S
H3113 C3119 0.950 . S
H3114 C3120 0.949 . S
C3115 H3110 0.950 . S
C3115 C3117 1.327 . S
C3115 C3121 1.429 . S
C3116 C3108 1.574 . S
C3116 H3111 0.949 . S
C3116 C3122 1.368 . S
C3117 C3101 1.349 . S
C3117 H3109 0.950 1_556 S
C3117 C3115 1.327 . S
C3118 C3106 1.349 . S
C3118 H3112 0.950 . S
C3118 C3119 1.327 . S
C3119 H3113 0.950 . S
C3119 C3118 1.327 . S
C3119 C3123 1.429 . S
C3120 C3103 1.574 . S
C3120 H3114 0.949 . S
C3120 C3124 1.368 . S
C3121 C3102 1.429 . S
C3121 C3115 1.429 . S
C3121 C3122 1.523 . S
C3122 C3103 1.368 . S
C3122 C3116 1.368 . S
C3122 C3121 1.523 . S
C3123 C3107 1.429 . S
C3123 C3119 1.429 . S
C3123 C3124 1.523 . S
C3124 C3108 1.368 . S
C3124 C3120 1.368 . S
C3124 C3123 1.523 . S
H3125 C3100 0.950 . S
H3126 C3102 0.950 . S
H3127 C3103 0.949 . S
H3128 C3105 0.950 . S
H3129 C3107 0.950 . S
C3130 C3131 1.349 . S
C3130 C3132 1.327 . S
C3130 H3155 0.950 . S
C3131 C3130 1.349 . S
C3131 C3147 1.349 . S
C3132 C3130 1.327 . S
C3132 C3151 1.429 . S
C3132 H3156 0.950 . S
C3133 C3150 1.574 . S
C3133 C3152 1.368 . S
C3133 H3157 0.949 . S
H3134 C3138 0.949 . S
C3135 C3136 1.349 . S
C3135 C3137 1.327 . S
C3135 H3158 0.950 1_556 S
C3136 C3135 1.349 . S
C3136 C3148 1.349 . S
C3137 C3135 1.327 . S
C3137 C3153 1.429 . S
C3137 H3159 0.950 . S
C3138 H3134 0.949 . S
C3138 C3146 1.574 . S
C3138 C3154 1.368 . S
H3139 C3147 0.950 . S
H3140 C3145 0.950 . S
H3141 C3146 0.949 . S
H3142 C3148 0.950 . S
H3143 C3149 0.950 . S
H3144 C3150 0.949 . S
C3145 H3140 0.950 . S
C3145 C3147 1.327 . S
C3145 C3151 1.429 . S
C3146 C3138 1.574 . S
C3146 H3141 0.949 . S
C3146 C3152 1.368 . S
C3147 C3131 1.349 . S
C3147 H3139 0.950 . S
C3147 C3145 1.327 . S
C3148 C3136 1.349 . S
C3148 H3142 0.950 . S
C3148 C3149 1.327 . S
C3149 H3143 0.950 . S
C3149 C3148 1.327 . S
C3149 C3153 1.429 . S
C3150 C3133 1.574 . S
C3150 H3144 0.949 . S
C3150 C3154 1.368 . S
C3151 C3132 1.429 . S
C3151 C3145 1.429 . S
C3151 C3152 1.523 . S
C3152 C3133 1.368 . S
C3152 C3146 1.368 . S
C3152 C3151 1.523 . S
C3153 C3137 1.429 . S
C3153 C3149 1.429 . S
C3153 C3154 1.523 . S
C3154 C3138 1.368 . S
C3154 C3150 1.368 . S
C3154 C3153 1.523 . S
H3155 C3130 0.950 . S
H3156 C3132 0.950 . S
H3157 C3133 0.949 . S
H3158 C3135 0.950 1_554 S
H3159 C3137 0.950 . S
C3160 C3161 1.349 . S
C3160 C3162 1.327 . S
C3160 H3185 0.950 . S
C3161 C3160 1.349 . S
C3161 C3177 1.349 . S
C3162 C3160 1.327 . S
C3162 C3181 1.429 . S
C3162 H3186 0.950 . S
C3163 C3180 1.574 . S
C3163 C3182 1.368 . S
C3163 H3187 0.949 . S
H3164 C3168 0.949 . S
C3165 C3166 1.349 . S
C3165 C3167 1.327 . S
C3165 H3188 0.950 . S
C3166 C3165 1.349 . S
C3166 C3178 1.349 . S
C3167 C3165 1.327 . S
C3167 C3183 1.429 . S
C3167 H3189 0.950 . S
C3168 H3164 0.949 . S
C3168 C3176 1.574 . S
C3168 C3184 1.368 . S
H3169 C3177 0.950 . S
H3170 C3175 0.950 . S
H3171 C3176 0.949 . S
H3172 C3178 0.950 . S
H3173 C3179 0.950 . S
H3174 C3180 0.949 . S
C3175 H3170 0.950 . S
C3175 C3177 1.327 . S
C3175 C3181 1.429 . S
C3176 C3168 1.574 . S
C3176 H3171 0.949 . S
C3176 C3182 1.368 . S
C3177 C3161 1.349 . S
C3177 H3169 0.950 . S
C3177 C3175 1.327 . S
C3178 C3166 1.349 . S
C3178 H3172 0.950 . S
C3178 C3179 1.327 . S
C3179 H3173 0.950 . S
C3179 C3178 1.327 . S
C3179 C3183 1.429 . S
C3180 C3163 1.574 . S
C3180 H3174 0.949 . S
C3180 C3184 1.368 . S
C3181 C3162 1.429 . S
C3181 C3175 1.429 . S
C3181 C3182 1.523 . S
C3182 C3163 1.368 . S
C3182 C3176 1.368 . S
C3182 C3181 1.523 . S
C3183 C3167 1.429 . S
C3183 C3179 1.429 . S
C3183 C3184 1.523 . S
C3184 C3168 1.368 . S
C3184 C3180 1.368 . S
C3184 C3183 1.523 . S
H3185 C3160 0.950 . S
H3186 C3162 0.950 . S
H3187 C3163 0.949 . S
H3188 C3165 0.950 . S
H3189 C3167 0.950 . S
C3190 C3191 1.349 . S
C3190 C3192 1.327 . S
C3190 H3215 0.950 . S
C3191 C3190 1.349 . S
C3191 C3207 1.349 . S
C3192 C3190 1.327 . S
C3192 C3211 1.429 . S
C3192 H3216 0.950 . S
C3193 C3210 1.574 . S
C3193 C3212 1.368 . S
C3193 H3217 0.949 . S
H3194 C3198 0.949 . S
C3195 C3196 1.349 . S
C3195 C3197 1.327 . S
C3195 H3218 0.950 . S
C3196 C3195 1.349 . S
C3196 C3208 1.349 . S
C3197 C3195 1.327 . S
C3197 C3213 1.429 . S
C3197 H3219 0.950 . S
C3198 H3194 0.949 . S
C3198 C3206 1.574 . S
C3198 C3214 1.368 . S
H3199 C3207 0.950 . S
H3200 C3205 0.950 . S
H3201 C3206 0.949 . S
H3202 C3208 0.950 . S
H3203 C3209 0.950 . S
H3204 C3210 0.949 . S
C3205 H3200 0.950 . S
C3205 C3207 1.327 . S
C3205 C3211 1.429 . S
C3206 C3198 1.574 . S
C3206 H3201 0.949 . S
C3206 C3212 1.368 . S
C3207 C3191 1.349 . S
C3207 H3199 0.950 . S
C3207 C3205 1.327 . S
C3208 C3196 1.349 . S
C3208 H3202 0.950 . S
C3208 C3209 1.327 . S
C3209 H3203 0.950 . S
C3209 C3208 1.327 . S
C3209 C3213 1.429 . S
C3210 C3193 1.574 . S
C3210 H3204 0.949 . S
C3210 C3214 1.368 . S
C3211 C3192 1.429 . S
C3211 C3205 1.429 . S
C3211 C3212 1.523 . S
C3212 C3193 1.368 . S
C3212 C3206 1.368 . S
C3212 C3211 1.523 . S
C3213 C3197 1.429 . S
C3213 C3209 1.429 . S
C3213 C3214 1.523 . S
C3214 C3198 1.368 . S
C3214 C3210 1.368 . S
C3214 C3213 1.523 . S
H3215 C3190 0.950 . S
H3216 C3192 0.950 . S
H3217 C3193 0.949 . S
H3218 C3195 0.950 . S
H3219 C3197 0.950 . S
C3220 C3221 1.349 . S
C3220 C3222 1.327 . S
C3220 H3245 0.950 . S
C3221 C3220 1.349 . S
C3221 C3237 1.349 . S
C3222 C3220 1.327 . S
C3222 C3241 1.429 . S
C3222 H3246 0.950 . S
C3223 C3240 1.574 . S
C3223 C3242 1.368 . S
C3223 H3247 0.949 . S
H3224 C3228 0.949 . S
C3225 C3226 1.349 . S
C3225 C3227 1.327 . S
C3225 H3248 0.950 . S
C3226 C3225 1.349 . S
C3226 C3238 1.349 . S
C3227 C3225 1.327 . S
C3227 C3243 1.429 . S
C3227 H3249 0.950 . S
C3228 H3224 0.949 . S
C3228 C3236 1.574 . S
C3228 C3244 1.368 . S
H3229 C3237 0.950 . S
H3230 C3235 0.950 . S
H3231 C3236 0.949 . S
H3232 C3238 0.950 . S
H3233 C3239 0.950 . S
H3234 C3240 0.949 . S
C3235 H3230 0.950 . S
C3235 C3237 1.327 . S
C3235 C3241 1.429 . S
C3236 C3228 1.574 . S
C3236 H3231 0.949 . S
C3236 C3242 1.368 . S
C3237 C3221 1.349 . S
C3237 H3229 0.950 . S
C3237 C3235 1.327 . S
C3238 C3226 1.349 . S
C3238 H3232 0.950 . S
C3238 C3239 1.327 . S
C3239 H3233 0.950 . S
C3239 C3238 1.327 . S
C3239 C3243 1.429 . S
C3240 C3223 1.574 . S
C3240 H3234 0.949 . S
C3240 C3244 1.368 . S
C3241 C3222 1.429 . S
C3241 C3235 1.429 . S
C3241 C3242 1.523 . S
C3242 C3223 1.368 . S
C3242 C3236 1.368 . S
C3242 C3241 1.523 . S
C3243 C3227 1.429 . S
C3243 C3239 1.429 . S
C3243 C3244 1.523 . S
C3244 C3228 1.368 . S
C3244 C3240 1.368 . S
C3244 C3243 1.523 . S
H3245 C3220 0.950 . S
H3246 C3222 0.950 . S
H3247 C3223 0.949 . S
H3248 C3225 0.950 . S
H3249 C3227 0.950 . S
C3250 C3251 1.349 . S
C3250 C3252 1.327 . S
C3250 H3275 0.950 . S
C3251 C3250 1.349 . S
C3251 C3267 1.349 . S
C3252 C3250 1.327 . S
C3252 C3271 1.429 . S
C3252 H3276 0.950 . S
C3253 C3270 1.574 . S
C3253 C3272 1.368 . S
C3253 H3277 0.949 . S
H3254 C3258 0.949 . S
C3255 C3256 1.349 . S
C3255 C3257 1.327 . S
C3255 H3278 0.950 . S
C3256 C3255 1.349 . S
C3256 C3268 1.349 . S
C3257 C3255 1.327 . S
C3257 C3273 1.429 . S
C3257 H3279 0.950 . S
C3258 H3254 0.949 . S
C3258 C3266 1.574 . S
C3258 C3274 1.368 . S
H3259 C3267 0.950 . S
H3260 C3265 0.950 . S
H3261 C3266 0.949 . S
H3262 C3268 0.950 . S
H3263 C3269 0.950 . S
H3264 C3270 0.949 . S
C3265 H3260 0.950 . S
C3265 C3267 1.327 . S
C3265 C3271 1.429 . S
C3266 C3258 1.574 . S
C3266 H3261 0.949 . S
C3266 C3272 1.368 . S
C3267 C3251 1.349 . S
C3267 H3259 0.950 . S
C3267 C3265 1.327 . S
C3268 C3256 1.349 . S
C3268 H3262 0.950 . S
C3268 C3269 1.327 . S
C3269 H3263 0.950 . S
C3269 C3268 1.327 . S
C3269 C3273 1.429 . S
C3270 C3253 1.574 . S
C3270 H3264 0.949 . S
C3270 C3274 1.368 . S
C3271 C3252 1.429 . S
C3271 C3265 1.429 . S
C3271 C3272 1.523 . S
C3272 C3253 1.368 . S
C3272 C3266 1.368 . S
C3272 C3271 1.523 . S
C3273 C3257 1.429 . S
C3273 C3269 1.429 . S
C3273 C3274 1.523 . S
C3274 C3258 1.368 . S
C3274 C3270 1.368 . S
C3274 C3273 1.523 . S
H3275 C3250 0.950 . S
H3276 C3252 0.950 . S
H3277 C3253 0.949 . S
H3278 C3255 0.950 . S
H3279 C3257 0.950 . S
C3280 C3281 1.349 . S
C3280 C3282 1.327 . S
C3280 H3305 0.950 . S
C3281 C3280 1.349 . S
C3281 C3297 1.349 . S
C3282 C3280 1.327 . S
C3282 C3301 1.429 . S
C3282 H3306 0.950 . S
C3283 C3300 1.574 . S
C3283 C3302 1.368 . S
C3283 H3307 0.949 . S
H3284 C3288 0.949 . S
C3285 C3286 1.349 . S
C3285 C3287 1.327 . S
C3285 H3308 0.950 . S
C3286 C3285 1.349 . S
C3286 C3298 1.349 . S
C3287 C3285 1.327 . S
C3287 C3303 1.429 . S
C3287 H3309 0.950 . S
C3288 H3284 0.949 . S
C3288 C3296 1.574 . S
C3288 C3304 1.368 . S
H3289 C3297 0.950 . S
H3290 C3295 0.950 . S
H3291 C3296 0.949 . S
H3292 C3298 0.950 . S
H3293 C3299 0.950 . S
H3294 C3300 0.949 . S
C3295 H3290 0.950 . S
C3295 C3297 1.327 . S
C3295 C3301 1.429 . S
C3296 C3288 1.574 . S
C3296 H3291 0.949 . S
C3296 C3302 1.368 . S
C3297 C3281 1.349 . S
C3297 H3289 0.950 . S
C3297 C3295 1.327 . S
C3298 C3286 1.349 . S
C3298 H3292 0.950 . S
C3298 C3299 1.327 . S
C3299 H3293 0.950 . S
C3299 C3298 1.327 . S
C3299 C3303 1.429 . S
C3300 C3283 1.574 . S
C3300 H3294 0.949 . S
C3300 C3304 1.368 . S
C3301 C3282 1.429 . S
C3301 C3295 1.429 . S
C3301 C3302 1.523 . S
C3302 C3283 1.368 . S
C3302 C3296 1.368 . S
C3302 C3301 1.523 . S
C3303 C3287 1.429 . S
C3303 C3299 1.429 . S
C3303 C3304 1.523 . S
C3304 C3288 1.368 . S
C3304 C3300 1.368 . S
C3304 C3303 1.523 . S
H3305 C3280 0.950 . S
H3306 C3282 0.950 . S
H3307 C3283 0.949 . S
H3308 C3285 0.950 . S
H3309 C3287 0.950 . S
C3310 C3311 1.349 . S
C3310 C3312 1.327 . S
C3310 H3335 0.950 . S
C3311 C3310 1.349 . S
C3311 C3327 1.349 . S
C3312 C3310 1.327 . S
C3312 C3331 1.429 . S
C3312 H3336 0.950 . S
C3313 C3330 1.574 . S
C3313 C3332 1.368 . S
C3313 H3337 0.949 . S
H3314 C3318 0.949 . S
C3315 C3316 1.349 . S
C3315 C3317 1.327 . S
C3315 H3338 0.950 . S
C3316 C3315 1.349 . S
C3316 C3328 1.349 . S
C3317 C3315 1.327 . S
C3317 C3333 1.429 . S
C3317 H3339 0.950 . S
C3318 H3314 0.949 . S
C3318 C3326 1.574 . S
C3318 C3334 1.368 . S
H3319 C3327 0.950 . S
H3320 C3325 0.950 . S
H3321 C3326 0.949 . S
H3322 C3328 0.950 . S
H3323 C3329 0.950 . S
H3324 C3330 0.949 . S
C3325 H3320 0.950 . S
C3325 C3327 1.327 . S
C3325 C3331 1.429 . S
C3326 C3318 1.574 . S
C3326 H3321 0.949 . S
C3326 C3332 1.368 . S
C3327 C3311 1.349 . S
C3327 H3319 0.950 . S
C3327 C3325 1.327 . S
C3328 C3316 1.349 . S
C3328 H3322 0.950 . S
C3328 C3329 1.327 . S
C3329 H3323 0.950 . S
C3329 C3328 1.327 . S
C3329 C3333 1.429 . S
C3330 C3313 1.574 . S
C3330 H3324 0.949 . S
C3330 C3334 1.368 . S
C3331 C3312 1.429 . S
C3331 C3325 1.429 . S
C3331 C3332 1.523 . S
C3332 C3313 1.368 . S
C3332 C3326 1.368 . S
C3332 C3331 1.523 . S
C3333 C3317 1.429 . S
C3333 C3329 1.429 . S
C3333 C3334 1.523 . S
C3334 C3318 1.368 . S
C3334 C3330 1.368 . S
C3334 C3333 1.523 . S
H3335 C3310 0.950 . S
H3336 C3312 0.950 . S
H3337 C3313 0.949 . S
H3338 C3315 0.950 . S
H3339 C3317 0.950 . S
C3340 C3341 1.349 . S
C3340 C3342 1.327 . S
C3340 H3365 0.950 . S
C3341 C3340 1.349 . S
C3341 C3357 1.349 . S
C3342 C3340 1.327 . S
C3342 C3361 1.429 . S
C3342 H3366 0.950 . S
C3343 C3360 1.574 . S
C3343 C3362 1.368 . S
C3343 H3367 0.949 . S
H3344 C3348 0.949 . S
C3345 C3346 1.349 . S
C3345 C3347 1.327 . S
C3345 H3368 0.950 . S
C3346 C3345 1.349 . S
C3346 C3358 1.349 . S
C3347 C3345 1.327 . S
C3347 C3363 1.429 . S
C3347 H3369 0.950 . S
C3348 H3344 0.949 . S
C3348 C3356 1.574 . S
C3348 C3364 1.368 . S
H3349 C3357 0.950 . S
H3350 C3355 0.950 . S
H3351 C3356 0.949 . S
H3352 C3358 0.950 . S
H3353 C3359 0.950 . S
H3354 C3360 0.949 . S
C3355 H3350 0.950 . S
C3355 C3357 1.327 . S
C3355 C3361 1.429 . S
C3356 C3348 1.574 . S
C3356 H3351 0.949 . S
C3356 C3362 1.368 . S
C3357 C3341 1.349 . S
C3357 H3349 0.950 . S
C3357 C3355 1.327 . S
C3358 C3346 1.349 . S
C3358 H3352 0.950 . S
C3358 C3359 1.327 . S
C3359 H3353 0.950 . S
C3359 C3358 1.327 . S
C3359 C3363 1.429 . S
C3360 C3343 1.574 . S
C3360 H3354 0.949 . S
C3360 C3364 1.368 . S
C3361 C3342 1.429 . S
C3361 C3355 1.429 . S
C3361 C3362 1.523 . S
C3362 C3343 1.368 . S
C3362 C3356 1.368 . S
C3362 C3361 1.523 . S
C3363 C3347 1.429 . S
C3363 C3359 1.429 . S
C3363 C3364 1.523 . S
C3364 C3348 1.368 . S
C3364 C3360 1.368 . S
C3364 C3363 1.523 . S
H3365 C3340 0.950 . S
H3366 C3342 0.950 . S
H3367 C3343 0.949 . S
H3368 C3345 0.950 . S
H3369 C3347 0.950 . S
C3370 C3371 1.349 . S
C3370 C3372 1.327 . S
C3370 H3395 0.950 . S
C3371 C3370 1.349 . S
C3371 C3387 1.349 . S
C3372 C3370 1.327 . S
C3372 C3391 1.429 . S
C3372 H3396 0.950 . S
C3373 C3390 1.574 . S
C3373 C3392 1.368 . S
C3373 H3397 0.949 . S
H3374 C3378 0.949 . S
C3375 C3376 1.349 . S
C3375 C3377 1.327 . S
C3375 H3398 0.950 . S
C3376 C3375 1.349 . S
C3376 C3388 1.349 . S
C3377 C3375 1.327 . S
C3377 C3393 1.429 . S
C3377 H3399 0.950 . S
C3378 H3374 0.949 . S
C3378 C3386 1.574 . S
C3378 C3394 1.368 . S
H3379 C3387 0.950 . S
H3380 C3385 0.950 . S
H3381 C3386 0.949 . S
H3382 C3388 0.950 . S
H3383 C3389 0.950 . S
H3384 C3390 0.949 . S
C3385 H3380 0.950 . S
C3385 C3387 1.327 . S
C3385 C3391 1.429 . S
C3386 C3378 1.574 . S
C3386 H3381 0.949 . S
C3386 C3392 1.368 . S
C3387 C3371 1.349 . S
C3387 H3379 0.950 . S
C3387 C3385 1.327 . S
C3388 C3376 1.349 . S
C3388 H3382 0.950 . S
C3388 C3389 1.327 . S
C3389 H3383 0.950 . S
C3389 C3388 1.327 . S
C3389 C3393 1.429 . S
C3390 C3373 1.574 . S
C3390 H3384 0.949 . S
C3390 C3394 1.368 . S
C3391 C3372 1.429 . S
C3391 C3385 1.429 . S
C3391 C3392 1.523 . S
C3392 C3373 1.368 . S
C3392 C3386 1.368 . S
C3392 C3391 1.523 . S
C3393 C3377 1.429 . S
C3393 C3389 1.429 . S
C3393 C3394 1.523 . S
C3394 C3378 1.368 . S
C3394 C3390 1.368 . S
C3394 C3393 1.523 . S
H3395 C3370 0.950 . S
H3396 C3372 0.950 . S
H3397 C3373 0.949 . S
H3398 C3375 0.950 . S
H3399 C3377 0.950 . S
C3400 C3401 1.349 . S
C3400 C3402 1.327 . S
C3400 H3425 0.950 . S
C3401 C3400 1.349 . S
C3401 C3417 1.349 . S
C3402 C3400 1.327 . S
C3402 C3421 1.429 . S
C3402 H3426 0.950 . S
C3403 C3420 1.574 . S
C3403 C3422 1.368 . S
C3403 H3427 0.949 . S
H3404 C3408 0.949 . S
C3405 C3406 1.349 . S
C3405 C3407 1.327 . S
C3405 H3428 0.950 1_554 S
C3406 C3405 1.349 . S
C3406 C3418 1.349 . S
C3407 C3405 1.327 . S
C3407 C3423 1.429 . S
C3407 H3429 0.950 . S
C3408 H3404 0.949 . S
C3408 C3416 1.574 . S
C3408 C3424 1.368 . S
H3409 C3417 0.950 . S
H3410 C3415 0.950 . S
H3411 C3416 0.949 . S
H3412 C3418 0.950 . S
H3413 C3419 0.950 . S
H3414 C3420 0.949 . S
C3415 H3410 0.950 . S
C3415 C3417 1.327 . S
C3415 C3421 1.429 . S
C3416 C3408 1.574 . S
C3416 H3411 0.949 . S
C3416 C3422 1.368 . S
C3417 C3401 1.349 . S
C3417 H3409 0.950 . S
C3417 C3415 1.327 . S
C3418 C3406 1.349 . S
C3418 H3412 0.950 . S
C3418 C3419 1.327 . S
C3419 H3413 0.950 . S
C3419 C3418 1.327 . S
C3419 C3423 1.429 . S
C3420 C3403 1.574 . S
C3420 H3414 0.949 . S
C3420 C3424 1.368 . S
C3421 C3402 1.429 . S
C3421 C3415 1.429 . S
C3421 C3422 1.523 . S
C3422 C3403 1.368 . S
C3422 C3416 1.368 . S
C3422 C3421 1.523 . S
C3423 C3407 1.429 . S
C3423 C3419 1.429 . S
C3423 C3424 1.523 . S
C3424 C3408 1.368 . S
C3424 C3420 1.368 . S
C3424 C3423 1.523 . S
H3425 C3400 0.950 . S
H3426 C3402 0.950 . S
H3427 C3403 0.949 . S
H3428 C3405 0.950 1_556 S
H3429 C3407 0.950 . S
C3430 C3431 1.349 . S
C3430 C3432 1.327 . S
C3430 H3455 0.950 . S
C3431 C3430 1.349 . S
C3431 C3447 1.349 . S
C3432 C3430 1.327 . S
C3432 C3451 1.429 . S
C3432 H3456 0.950 . S
C3433 C3450 1.574 . S
C3433 C3452 1.368 . S
C3433 H3457 0.949 . S
H3434 C3438 0.949 . S
C3435 C3436 1.349 . S
C3435 C3437 1.327 . S
C3435 H3458 0.950 1_554 S
C3436 C3435 1.349 . S
C3436 C3448 1.349 . S
C3437 C3435 1.327 . S
C3437 C3453 1.429 . S
C3437 H3459 0.950 . S
C3438 H3434 0.949 . S
C3438 C3446 1.574 . S
C3438 C3454 1.368 . S
H3439 C3447 0.950 . S
H3440 C3445 0.950 . S
H3441 C3446 0.949 . S
H3442 C3448 0.950 . S
H3443 C3449 0.950 . S
H3444 C3450 0.949 . S
C3445 H3440 0.950 . S
C3445 C3447 1.327 . S
C3445 C3451 1.429 . S
C3446 C3438 1.574 . S
C3446 H3441 0.949 . S
C3446 C3452 1.368 . S
C3447 C3431 1.349 . S
C3447 H3439 0.950 . S
C3447 C3445 1.327 . S
C3448 C3436 1.349 . S
C3448 H3442 0.950 . S
C3448 C3449 1.327 . S
C3449 H3443 0.950 . S
C3449 C3448 1.327 . S
C3449 C3453 1.429 . S
C3450 C3433 1.574 . S
C3450 H3444 0.949 . S
C3450 C3454 1.368 . S
C3451 C3432 1.429 . S
C3451 C3445 1.429 . S
C3451 C3452 1.523 . S
C3452 C3433 1.368 . S
C3452 C3446 1.368 . S
C3452 C3451 1.523 . S
C3453 C3437 1.429 . S
C3453 C3449 1.429 . S
C3453 C3454 1.523 . S
C3454 C3438 1.368 . S
C3454 C3450 1.368 . S
C3454 C3453 1.523 . S
H3455 C3430 0.950 . S
H3456 C3432 0.950 . S
H3457 C3433 0.949 . S
H3458 C3435 0.950 1_556 S
H3459 C3437 0.950 . S
C3460 C3461 1.349 . S
C3460 C3462 1.327 . S
C3460 H3485 0.950 . S
C3461 C3460 1.349 . S
C3461 C3477 1.349 . S
C3462 C3460 1.327 . S
C3462 C3481 1.429 . S
C3462 H3486 0.950 . S
C3463 C3480 1.574 . S
C3463 C3482 1.368 . S
C3463 H3487 0.949 . S
H3464 C3468 0.949 . S
C3465 C3466 1.349 . S
C3465 C3467 1.327 . S
C3465 H3488 0.950 . S
C3466 C3465 1.349 . S
C3466 C3478 1.349 . S
C3467 C3465 1.327 . S
C3467 C3483 1.429 . S
C3467 H3489 0.950 . S
C3468 H3464 0.949 . S
C3468 C3476 1.574 . S
C3468 C3484 1.368 . S
H3469 C3477 0.950 . S
H3470 C3475 0.950 . S
H3471 C3476 0.949 . S
H3472 C3478 0.950 . S
H3473 C3479 0.950 . S
H3474 C3480 0.949 . S
C3475 H3470 0.950 . S
C3475 C3477 1.327 . S
C3475 C3481 1.429 . S
C3476 C3468 1.574 . S
C3476 H3471 0.949 . S
C3476 C3482 1.368 . S
C3477 C3461 1.349 . S
C3477 H3469 0.950 . S
C3477 C3475 1.327 . S
C3478 C3466 1.349 . S
C3478 H3472 0.950 . S
C3478 C3479 1.327 . S
C3479 H3473 0.950 . S
C3479 C3478 1.327 . S
C3479 C3483 1.429 . S
C3480 C3463 1.574 . S
C3480 H3474 0.949 . S
C3480 C3484 1.368 . S
C3481 C3462 1.429 . S
C3481 C3475 1.429 . S
C3481 C3482 1.523 . S
C3482 C3463 1.368 . S
C3482 C3476 1.368 . S
C3482 C3481 1.523 . S
C3483 C3467 1.429 . S
C3483 C3479 1.429 . S
C3483 C3484 1.523 . S
C3484 C3468 1.368 . S
C3484 C3480 1.368 . S
C3484 C3483 1.523 . S
H3485 C3460 0.950 . S
H3486 C3462 0.950 . S
H3487 C3463 0.949 . S
H3488 C3465 0.950 . S
H3489 C3467 0.950 . S
C3490 C3491 1.349 . S
C3490 C3492 1.327 . S
C3490 H3515 0.950 . S
C3491 C3490 1.349 . S
C3491 C3507 1.349 . S
C3492 C3490 1.327 . S
C3492 C3511 1.429 . S
C3492 H3516 0.950 . S
C3493 C3510 1.574 . S
C3493 C3512 1.368 . S
C3493 H3517 0.949 . S
H3494 C3498 0.949 . S
C3495 C3496 1.349 . S
C3495 C3497 1.327 . S
C3495 H3518 0.950 . S
C3496 C3495 1.349 . S
C3496 C3508 1.349 . S
C3497 C3495 1.327 . S
C3497 C3513 1.429 . S
C3497 H3519 0.950 . S
C3498 H3494 0.949 . S
C3498 C3506 1.574 . S
C3498 C3514 1.368 . S
H3499 C3507 0.950 1_554 S
H3500 C3505 0.950 . S
H3501 C3506 0.949 . S
H3502 C3508 0.950 . S
H3503 C3509 0.950 . S
H3504 C3510 0.949 . S
C3505 H3500 0.950 . S
C3505 C3507 1.327 . S
C3505 C3511 1.429 . S
C3506 C3498 1.574 . S
C3506 H3501 0.949 . S
C3506 C3512 1.368 . S
C3507 C3491 1.349 . S
C3507 H3499 0.950 1_556 S
C3507 C3505 1.327 . S
C3508 C3496 1.349 . S
C3508 H3502 0.950 . S
C3508 C3509 1.327 . S
C3509 H3503 0.950 . S
C3509 C3508 1.327 . S
C3509 C3513 1.429 . S
C3510 C3493 1.574 . S
C3510 H3504 0.949 . S
C3510 C3514 1.368 . S
C3511 C3492 1.429 . S
C3511 C3505 1.429 . S
C3511 C3512 1.523 . S
C3512 C3493 1.368 . S
C3512 C3506 1.368 . S
C3512 C3511 1.523 . S
C3513 C3497 1.429 . S
C3513 C3509 1.429 . S
C3513 C3514 1.523 . S
C3514 C3498 1.368 . S
C3514 C3510 1.368 . S
C3514 C3513 1.523 . S
H3515 C3490 0.950 . S
H3516 C3492 0.950 . S
H3517 C3493 0.949 . S
H3518 C3495 0.950 . S
H3519 C3497 0.950 . S
C641 C579 1.531 . S
C646 C18 1.531 . S
C671 C119 1.534 . S
C676 C38 1.534 . S
C701 C459 1.534 . S
C706 C58 1.534 . S
C731 C319 1.531 . S
C736 C78 1.531 . S
C761 C99 1.531 . S
C766 C498 1.531 . S
C791 C378 1.534 . S
C796 C139 1.534 . S
C821 C238 1.531 . S
C826 C159 1.531 . S
C851 C419 1.531 . S
C856 C178 1.531 . S
C881 C198 1.529 . S
C886 C279 1.529 . S
C911 C218 1.529 . S
C916 C619 1.529 . S
C941 C338 1.531 . S
C946 C259 1.531 . S
C971 C299 1.529 . S
C976 C538 1.529 . S
C1001 C358 1.534 . S
C1006 C439 1.534 . S
C1031 C398 1.531 . S
C1036 C639 1.531 . S
C1061 C558 1.531 . S
C1066 C479 1.531 . S
C1091 C599 1.529 . S
C1096 C518 1.529 . S
C1121 C399 1.540 . S
C1126 C19 1.540 . S
C1151 C379 1.544 . S
C1156 C39 1.544 . S
C1181 C359 1.544 . S
C1186 C59 1.544 . S
C1211 C339 1.540 . S
C1216 C79 1.540 . S
C1241 C478 1.540 . S
C1246 C98 1.540 . S
C1271 C118 1.544 . S
C1276 C458 1.544 . S
C1301 C138 1.544 . S
C1306 C438 1.544 . S
C1331 C158 1.540 . S
C1336 C418 1.540 . S
C1361 C179 1.543 . S
C1366 C559 1.543 . S
C1391 C199 1.540 . S
C1396 C539 1.540 . S
C1421 C219 1.540 . S
C1426 C519 1.540 . S
C1451 C499 1.543 . S
C1456 C239 1.543 . S
C1481 C258 1.543 . S
C1486 C638 1.543 . S
C1511 C278 1.540 . S
C1516 C618 1.540 . S
C1541 C298 1.540 . S
C1546 C598 1.540 . S
C1571 C578 1.543 . S
C1576 C318 1.543 . S
C1601 C1 1.279 . S
C1606 C2 1.279 1_556 S
C1631 C21 1.279 . S
C1636 C22 1.279 1_556 S
C1661 C42 1.279 . S
C1666 C41 1.279 . S
C1691 C62 1.279 . S
C1696 C61 1.279 . S
C1721 C81 1.279 1_554 S
C1726 C82 1.279 . S
C1751 C101 1.279 1_554 S
C1756 C102 1.279 . S
C1781 C121 1.279 . S
C1786 C122 1.279 . S
C1811 C142 1.279 . S
C1816 C141 1.279 . S
C1841 C161 1.280 . S
C1846 C162 1.280 . S
C1871 C182 1.279 . S
C1876 C181 1.279 . S
C1901 C202 1.279 . S
C1906 C201 1.279 . S
C1931 C222 1.280 . S
C1936 C221 1.280 . S
C1961 C241 1.280 . S
C1966 C242 1.280 . S
C1991 C262 1.279 . S
C1996 C261 1.279 . S
C2021 C281 1.279 . S
C2026 C282 1.279 . S
C2051 C302 1.280 . S
C2056 C301 1.280 . S
C2081 C321 1.279 . S
C2086 C322 1.279 . S
C2111 C342 1.279 . S
C2116 C341 1.279 . S
C2141 C362 1.279 . S
C2146 C361 1.279 . S
C2171 C382 1.279 . S
C2176 C381 1.279 . S
C2201 C402 1.279 . S
C2206 C401 1.279 . S
C2231 C421 1.279 . S
C2236 C422 1.279 . S
C2261 C442 1.279 . S
C2266 C441 1.279 . S
C2291 C462 1.279 . S
C2296 C461 1.279 . S
C2321 C481 1.280 . S
C2326 C482 1.280 1_556 S
C2351 C502 1.279 1_556 S
C2356 C501 1.279 . S
C2381 C522 1.279 . S
C2386 C521 1.279 . S
C2411 C541 1.280 . S
C2416 C542 1.280 . S
C2441 C561 1.280 1_554 S
C2446 C562 1.280 . S
C2471 C582 1.279 . S
C2476 C581 1.279 1_554 S
C2501 C602 1.279 . S
C2506 C601 1.279 . S
C2531 C622 1.280 . S
C2536 C621 1.280 . S
C2561 C208 1.799 . S
C2566 C8 1.799 . S
C2591 C228 1.786 . S
C2596 C28 1.780 . S
C2621 C48 1.786 1_556 S
C2626 C168 1.780 . S
C2651 C188 1.799 . S
C2656 C68 1.799 1_556 S
C2681 C89 1.799 . S
C2686 C289 1.799 . S
C2711 C109 1.786 . S
C2716 C309 1.780 . S
C2741 C129 1.786 1_554 S
C2746 C249 1.780 . S
C2771 C149 1.799 1_554 S
C2776 C269 1.799 . S
C2801 C528 1.799 1_556 S
C2806 C328 1.799 . S
C2831 C348 1.786 . S
C2836 C548 1.780 1_556 S
C2861 C488 1.786 . S
C2866 C368 1.780 . S
C2891 C388 1.799 . S
C2896 C508 1.799 . S
C2921 C609 1.799 1_554 S
C2926 C409 1.799 . S
C2951 C429 1.786 . S
C2956 C629 1.780 1_554 S
C2981 C449 1.786 . S
C2986 C569 1.780 . S
C3011 C589 1.799 . S
C3016 C469 1.799 . S
C3041 C9 1.272 . S
C3046 C49 1.278 . S
C3071 C69 1.272 . S
C3076 C29 1.278 . S
C3101 C128 1.271 . S
C3106 C88 1.278 . S
C3131 C108 1.271 . S
C3136 C148 1.278 . S
C3161 C169 1.258 . S
C3166 C209 1.258 . S
C3191 C229 1.258 . S
C3196 C189 1.258 . S
C3221 C288 1.258 . S
C3226 C248 1.258 . S
C3251 C308 1.258 . S
C3256 C268 1.258 . S
C3281 C369 1.271 . S
C3286 C329 1.278 . S
C3311 C389 1.272 . S
C3316 C349 1.278 . S
C3341 C448 1.271 . S
C3346 C408 1.278 . S
C3371 C468 1.272 . S
C3376 C428 1.278 . S
C3401 C489 1.258 . S
C3406 C529 1.258 . S
C3431 C509 1.258 . S
C3436 C549 1.258 . S
C3461 C568 1.258 . S
C3466 C608 1.258 . S
C3491 C628 1.258 . S
C3496 C588 1.258 . S
