# Generated by pormake.
# Topology uli, (4)-cn, num edge types: 1
# Building blocks:
#     Node 0, Type 0, BuildingBlock: ICAMEG_clean_sbu_1, # of connection points: 4
#     Node 1, Type 0, BuildingBlock: ICAMEG_clean_sbu_1, # of connection points: 4
#     Node 2, Type 0, BuildingBlock: ICAMEG_clean_sbu_1, # of connection points: 4
#     Node 3, Type 0, BuildingBlock: ICAMEG_clean_sbu_1, # of connection points: 4
#     Node 4, Type 0, BuildingBlock: ICAMEG_clean_sbu_1, # of connection points: 4
#     Node 5, Type 0, BuildingBlock: ICAMEG_clean_sbu_1, # of connection points: 4
#     Node 6, Type 0, BuildingBlock: ICAMEG_clean_sbu_1, # of connection points: 4
#     Node 7, Type 0, BuildingBlock: ICAMEG_clean_sbu_1, # of connection points: 4
#     Node 8, Type 0, BuildingBlock: ICAMEG_clean_sbu_1, # of connection points: 4
#     Node 9, Type 0, BuildingBlock: ICAMEG_clean_sbu_1, # of connection points: 4
#     Node 10, Type 0, BuildingBlock: ICAMEG_clean_sbu_1, # of connection points: 4
#     Node 11, Type 0, BuildingBlock: ICAMEG_clean_sbu_1, # of connection points: 4
#     Node 12, Type 0, BuildingBlock: ICAMEG_clean_sbu_1, # of connection points: 4
#     Node 13, Type 0, BuildingBlock: ICAMEG_clean_sbu_1, # of connection points: 4
#     Node 14, Type 0, BuildingBlock: ICAMEG_clean_sbu_1, # of connection points: 4
#     Node 15, Type 0, BuildingBlock: ICAMEG_clean_sbu_1, # of connection points: 4
#     Node 16, Type 0, BuildingBlock: ICAMEG_clean_sbu_1, # of connection points: 4
#     Node 17, Type 0, BuildingBlock: ICAMEG_clean_sbu_1, # of connection points: 4
#     Node 18, Type 0, BuildingBlock: ICAMEG_clean_sbu_1, # of connection points: 4
#     Node 19, Type 0, BuildingBlock: ICAMEG_clean_sbu_1, # of connection points: 4
#     Node 20, Type 0, BuildingBlock: ICAMEG_clean_sbu_1, # of connection points: 4
#     Node 21, Type 0, BuildingBlock: ICAMEG_clean_sbu_1, # of connection points: 4
#     Node 22, Type 0, BuildingBlock: ICAMEG_clean_sbu_1, # of connection points: 4
#     Node 23, Type 0, BuildingBlock: ICAMEG_clean_sbu_1, # of connection points: 4
#     Node 24, Type 0, BuildingBlock: ICAMEG_clean_sbu_1, # of connection points: 4
#     Node 25, Type 0, BuildingBlock: ICAMEG_clean_sbu_1, # of connection points: 4
#     Node 26, Type 0, BuildingBlock: ICAMEG_clean_sbu_1, # of connection points: 4
#     Node 27, Type 0, BuildingBlock: ICAMEG_clean_sbu_1, # of connection points: 4
#     Node 28, Type 0, BuildingBlock: ICAMEG_clean_sbu_1, # of connection points: 4
#     Node 29, Type 0, BuildingBlock: ICAMEG_clean_sbu_1, # of connection points: 4
#     Node 30, Type 0, BuildingBlock: ICAMEG_clean_sbu_1, # of connection points: 4
#     Node 31, Type 0, BuildingBlock: ICAMEG_clean_sbu_1, # of connection points: 4
#     Node 32, Type 0, BuildingBlock: ICAMEG_clean_sbu_1, # of connection points: 4
#     Node 33, Type 0, BuildingBlock: ICAMEG_clean_sbu_1, # of connection points: 4
#     Node 34, Type 0, BuildingBlock: ICAMEG_clean_sbu_1, # of connection points: 4
#     Node 35, Type 0, BuildingBlock: ICAMEG_clean_sbu_1, # of connection points: 4
#     Node 36, Type 0, BuildingBlock: ICAMEG_clean_sbu_1, # of connection points: 4
#     Node 37, Type 0, BuildingBlock: ICAMEG_clean_sbu_1, # of connection points: 4
#     Node 38, Type 0, BuildingBlock: ICAMEG_clean_sbu_1, # of connection points: 4
#     Node 39, Type 0, BuildingBlock: ICAMEG_clean_sbu_1, # of connection points: 4
#     Node 40, Type 0, BuildingBlock: ICAMEG_clean_sbu_1, # of connection points: 4
#     Node 41, Type 0, BuildingBlock: ICAMEG_clean_sbu_1, # of connection points: 4
#     Node 42, Type 0, BuildingBlock: ICAMEG_clean_sbu_1, # of connection points: 4
#     Node 43, Type 0, BuildingBlock: ICAMEG_clean_sbu_1, # of connection points: 4
#     Node 44, Type 0, BuildingBlock: ICAMEG_clean_sbu_1, # of connection points: 4
#     Node 45, Type 0, BuildingBlock: ICAMEG_clean_sbu_1, # of connection points: 4
#     Node 46, Type 0, BuildingBlock: ICAMEG_clean_sbu_1, # of connection points: 4
#     Node 47, Type 0, BuildingBlock: ICAMEG_clean_sbu_1, # of connection points: 4
#     Edge 48, Type (0, 0), BuildingBlock: XUDNAN_clean_linker_2, # of connection points: 2
#     Edge 49, Type (0, 0), BuildingBlock: XUDNAN_clean_linker_2, # of connection points: 2
#     Edge 50, Type (0, 0), BuildingBlock: XUDNAN_clean_linker_2, # of connection points: 2
#     Edge 51, Type (0, 0), BuildingBlock: XUDNAN_clean_linker_2, # of connection points: 2
#     Edge 52, Type (0, 0), BuildingBlock: XUDNAN_clean_linker_2, # of connection points: 2
#     Edge 53, Type (0, 0), BuildingBlock: XUDNAN_clean_linker_2, # of connection points: 2
#     Edge 54, Type (0, 0), BuildingBlock: XUDNAN_clean_linker_2, # of connection points: 2
#     Edge 55, Type (0, 0), BuildingBlock: XUDNAN_clean_linker_2, # of connection points: 2
#     Edge 56, Type (0, 0), BuildingBlock: XUDNAN_clean_linker_2, # of connection points: 2
#     Edge 57, Type (0, 0), BuildingBlock: XUDNAN_clean_linker_2, # of connection points: 2
#     Edge 58, Type (0, 0), BuildingBlock: XUDNAN_clean_linker_2, # of connection points: 2
#     Edge 59, Type (0, 0), BuildingBlock: XUDNAN_clean_linker_2, # of connection points: 2
#     Edge 60, Type (0, 0), BuildingBlock: XUDNAN_clean_linker_2, # of connection points: 2
#     Edge 61, Type (0, 0), BuildingBlock: XUDNAN_clean_linker_2, # of connection points: 2
#     Edge 62, Type (0, 0), BuildingBlock: XUDNAN_clean_linker_2, # of connection points: 2
#     Edge 63, Type (0, 0), BuildingBlock: XUDNAN_clean_linker_2, # of connection points: 2
#     Edge 64, Type (0, 0), BuildingBlock: XUDNAN_clean_linker_2, # of connection points: 2
#     Edge 65, Type (0, 0), BuildingBlock: XUDNAN_clean_linker_2, # of connection points: 2
#     Edge 66, Type (0, 0), BuildingBlock: XUDNAN_clean_linker_2, # of connection points: 2
#     Edge 67, Type (0, 0), BuildingBlock: XUDNAN_clean_linker_2, # of connection points: 2
#     Edge 68, Type (0, 0), BuildingBlock: XUDNAN_clean_linker_2, # of connection points: 2
#     Edge 69, Type (0, 0), BuildingBlock: XUDNAN_clean_linker_2, # of connection points: 2
#     Edge 70, Type (0, 0), BuildingBlock: XUDNAN_clean_linker_2, # of connection points: 2
#     Edge 71, Type (0, 0), BuildingBlock: XUDNAN_clean_linker_2, # of connection points: 2
#     Edge 72, Type (0, 0), BuildingBlock: XUDNAN_clean_linker_2, # of connection points: 2
#     Edge 73, Type (0, 0), BuildingBlock: XUDNAN_clean_linker_2, # of connection points: 2
#     Edge 74, Type (0, 0), BuildingBlock: XUDNAN_clean_linker_2, # of connection points: 2
#     Edge 75, Type (0, 0), BuildingBlock: XUDNAN_clean_linker_2, # of connection points: 2
#     Edge 76, Type (0, 0), BuildingBlock: XUDNAN_clean_linker_2, # of connection points: 2
#     Edge 77, Type (0, 0), BuildingBlock: XUDNAN_clean_linker_2, # of connection points: 2
#     Edge 78, Type (0, 0), BuildingBlock: XUDNAN_clean_linker_2, # of connection points: 2
#     Edge 79, Type (0, 0), BuildingBlock: XUDNAN_clean_linker_2, # of connection points: 2
#     Edge 80, Type (0, 0), BuildingBlock: XUDNAN_clean_linker_2, # of connection points: 2
#     Edge 81, Type (0, 0), BuildingBlock: XUDNAN_clean_linker_2, # of connection points: 2
#     Edge 82, Type (0, 0), BuildingBlock: XUDNAN_clean_linker_2, # of connection points: 2
#     Edge 83, Type (0, 0), BuildingBlock: XUDNAN_clean_linker_2, # of connection points: 2
#     Edge 84, Type (0, 0), BuildingBlock: XUDNAN_clean_linker_2, # of connection points: 2
#     Edge 85, Type (0, 0), BuildingBlock: XUDNAN_clean_linker_2, # of connection points: 2
#     Edge 86, Type (0, 0), BuildingBlock: XUDNAN_clean_linker_2, # of connection points: 2
#     Edge 87, Type (0, 0), BuildingBlock: XUDNAN_clean_linker_2, # of connection points: 2
#     Edge 88, Type (0, 0), BuildingBlock: XUDNAN_clean_linker_2, # of connection points: 2
#     Edge 89, Type (0, 0), BuildingBlock: XUDNAN_clean_linker_2, # of connection points: 2
#     Edge 90, Type (0, 0), BuildingBlock: XUDNAN_clean_linker_2, # of connection points: 2
#     Edge 91, Type (0, 0), BuildingBlock: XUDNAN_clean_linker_2, # of connection points: 2
#     Edge 92, Type (0, 0), BuildingBlock: XUDNAN_clean_linker_2, # of connection points: 2
#     Edge 93, Type (0, 0), BuildingBlock: XUDNAN_clean_linker_2, # of connection points: 2
#     Edge 94, Type (0, 0), BuildingBlock: XUDNAN_clean_linker_2, # of connection points: 2
#     Edge 95, Type (0, 0), BuildingBlock: XUDNAN_clean_linker_2, # of connection points: 2
#     Edge 96, Type (0, 0), BuildingBlock: XUDNAN_clean_linker_2, # of connection points: 2
#     Edge 97, Type (0, 0), BuildingBlock: XUDNAN_clean_linker_2, # of connection points: 2
#     Edge 98, Type (0, 0), BuildingBlock: XUDNAN_clean_linker_2, # of connection points: 2
#     Edge 99, Type (0, 0), BuildingBlock: XUDNAN_clean_linker_2, # of connection points: 2
#     Edge 100, Type (0, 0), BuildingBlock: XUDNAN_clean_linker_2, # of connection points: 2
#     Edge 101, Type (0, 0), BuildingBlock: XUDNAN_clean_linker_2, # of connection points: 2
#     Edge 102, Type (0, 0), BuildingBlock: XUDNAN_clean_linker_2, # of connection points: 2
#     Edge 103, Type (0, 0), BuildingBlock: XUDNAN_clean_linker_2, # of connection points: 2
#     Edge 104, Type (0, 0), BuildingBlock: XUDNAN_clean_linker_2, # of connection points: 2
#     Edge 105, Type (0, 0), BuildingBlock: XUDNAN_clean_linker_2, # of connection points: 2
#     Edge 106, Type (0, 0), BuildingBlock: XUDNAN_clean_linker_2, # of connection points: 2
#     Edge 107, Type (0, 0), BuildingBlock: XUDNAN_clean_linker_2, # of connection points: 2
#     Edge 108, Type (0, 0), BuildingBlock: XUDNAN_clean_linker_2, # of connection points: 2
#     Edge 109, Type (0, 0), BuildingBlock: XUDNAN_clean_linker_2, # of connection points: 2
#     Edge 110, Type (0, 0), BuildingBlock: XUDNAN_clean_linker_2, # of connection points: 2
#     Edge 111, Type (0, 0), BuildingBlock: XUDNAN_clean_linker_2, # of connection points: 2
#     Edge 112, Type (0, 0), BuildingBlock: XUDNAN_clean_linker_2, # of connection points: 2
#     Edge 113, Type (0, 0), BuildingBlock: XUDNAN_clean_linker_2, # of connection points: 2
#     Edge 114, Type (0, 0), BuildingBlock: XUDNAN_clean_linker_2, # of connection points: 2
#     Edge 115, Type (0, 0), BuildingBlock: XUDNAN_clean_linker_2, # of connection points: 2
#     Edge 116, Type (0, 0), BuildingBlock: XUDNAN_clean_linker_2, # of connection points: 2
#     Edge 117, Type (0, 0), BuildingBlock: XUDNAN_clean_linker_2, # of connection points: 2
#     Edge 118, Type (0, 0), BuildingBlock: XUDNAN_clean_linker_2, # of connection points: 2
#     Edge 119, Type (0, 0), BuildingBlock: XUDNAN_clean_linker_2, # of connection points: 2
#     Edge 120, Type (0, 0), BuildingBlock: XUDNAN_clean_linker_2, # of connection points: 2
#     Edge 121, Type (0, 0), BuildingBlock: XUDNAN_clean_linker_2, # of connection points: 2
#     Edge 122, Type (0, 0), BuildingBlock: XUDNAN_clean_linker_2, # of connection points: 2
#     Edge 123, Type (0, 0), BuildingBlock: XUDNAN_clean_linker_2, # of connection points: 2
#     Edge 124, Type (0, 0), BuildingBlock: XUDNAN_clean_linker_2, # of connection points: 2
#     Edge 125, Type (0, 0), BuildingBlock: XUDNAN_clean_linker_2, # of connection points: 2
#     Edge 126, Type (0, 0), BuildingBlock: XUDNAN_clean_linker_2, # of connection points: 2
#     Edge 127, Type (0, 0), BuildingBlock: XUDNAN_clean_linker_2, # of connection points: 2
#     Edge 128, Type (0, 0), BuildingBlock: XUDNAN_clean_linker_2, # of connection points: 2
#     Edge 129, Type (0, 0), BuildingBlock: XUDNAN_clean_linker_2, # of connection points: 2
#     Edge 130, Type (0, 0), BuildingBlock: XUDNAN_clean_linker_2, # of connection points: 2
#     Edge 131, Type (0, 0), BuildingBlock: XUDNAN_clean_linker_2, # of connection points: 2
#     Edge 132, Type (0, 0), BuildingBlock: XUDNAN_clean_linker_2, # of connection points: 2
#     Edge 133, Type (0, 0), BuildingBlock: XUDNAN_clean_linker_2, # of connection points: 2
#     Edge 134, Type (0, 0), BuildingBlock: XUDNAN_clean_linker_2, # of connection points: 2
#     Edge 135, Type (0, 0), BuildingBlock: XUDNAN_clean_linker_2, # of connection points: 2
#     Edge 136, Type (0, 0), BuildingBlock: XUDNAN_clean_linker_2, # of connection points: 2
#     Edge 137, Type (0, 0), BuildingBlock: XUDNAN_clean_linker_2, # of connection points: 2
#     Edge 138, Type (0, 0), BuildingBlock: XUDNAN_clean_linker_2, # of connection points: 2
#     Edge 139, Type (0, 0), BuildingBlock: XUDNAN_clean_linker_2, # of connection points: 2
#     Edge 140, Type (0, 0), BuildingBlock: XUDNAN_clean_linker_2, # of connection points: 2
#     Edge 141, Type (0, 0), BuildingBlock: XUDNAN_clean_linker_2, # of connection points: 2
#     Edge 142, Type (0, 0), BuildingBlock: XUDNAN_clean_linker_2, # of connection points: 2
#     Edge 143, Type (0, 0), BuildingBlock: XUDNAN_clean_linker_2, # of connection points: 2
# Relax obj value: 0.384
# Max RMSD: 0.124
# Mean RMSD: 0.124
data_MOF--net-uli--node1-ICAMEG_clean_sbu_1--edge1-XUDNAN_clean_linker_2
_symmetry_space_group_name_H-M    P1
_symmetry_Int_Tables_number       1
_symmetry_cell_setting            triclinic
loop_
_symmetry_equiv_pos_as_xyz
'x, y, z'
_cell_length_a     72.759059
_cell_length_b     72.790712
_cell_length_c     72.765347
_cell_angle_alpha  90.035532
_cell_angle_beta   89.982047
_cell_angle_gamma 90.003093
loop_
_atom_site_label
_atom_site_type_symbol
_atom_site_fract_x
_atom_site_fract_y
_atom_site_fract_z
_atom_type_partial_charge
Co0 Co 0.1231 0.25609 0.20679 0.0
Co1 Co 0.08326 0.25189 0.18283 0.0
O2 O 0.09849 0.26508 0.20083 0.0
C3 C 0.1272 0.29819 0.21196 0.0
O4 O 0.11079 0.30301 0.20619 0.0
C5 C 0.05925 0.25436 0.21498 0.0
O6 O 0.07303 0.24757 0.2244 0.0
O7 O 0.086 0.22857 0.19695 0.0
O8 O 0.11611 0.23003 0.20217 0.0
H9 H 0.06752 0.19947 0.14077 0.0
H10 H 0.10277 0.27952 0.23336 0.0
O11 O 0.1322 0.28141 0.21191 0.0
H12 H 0.11769 0.22302 0.26746 0.0
H13 H 0.18191 0.25251 0.24333 0.0
H14 H 0.14881 0.23004 0.18864 0.0
H15 H 0.12725 0.22659 0.23518 0.0
H16 H 0.15036 0.26293 0.23685 0.0
O17 O 0.06096 0.2577 0.19788 0.0
H18 H 0.08686 0.21675 0.1626 0.0
H19 H 0.04646 0.25872 0.16606 0.0
H20 H 0.18024 0.21904 0.19476 0.0
H21 H 0.09335 0.27671 0.2657 0.0
H22 H 0.19706 0.23034 0.22223 0.0
H23 H 0.10074 0.24826 0.283 0.0
O24 O 0.1299 0.25896 0.18074 0.0
H25 H 0.06937 0.31913 0.17577 0.0
H26 H 0.08676 0.26223 0.14333 0.0
H27 H 0.08293 0.29092 0.12574 0.0
H28 H 0.07409 0.31963 0.14196 0.0
H29 H 0.07349 0.29013 0.19286 0.0
H30 H 0.0266 0.24181 0.14438 0.0
H31 H 0.03714 0.21198 0.13154 0.0
O32 O 0.1055 0.24569 0.16734 0.0
C33 C 0.10098 0.22139 0.20219 0.0
C34 C 0.06281 0.21248 0.14621 0.0
C35 C 0.03983 0.23624 0.14826 0.0
N36 N 0.06787 0.23881 0.16544 0.0
C37 C 0.07372 0.22236 0.15852 0.0
C38 C 0.05112 0.24574 0.16055 0.0
C39 C 0.04575 0.2195 0.14105 0.0
C40 C 0.10638 0.26725 0.24082 0.0
N41 N 0.11582 0.25338 0.23238 0.0
C42 C 0.10086 0.26567 0.25913 0.0
C43 C 0.10496 0.24969 0.26881 0.0
C44 C 0.11446 0.23552 0.2601 0.0
C45 C 0.11979 0.23761 0.24178 0.0
C46 C 0.17476 0.24753 0.23126 0.0
C47 C 0.15601 0.23507 0.20061 0.0
C48 C 0.15692 0.25348 0.22745 0.0
N49 N 0.14778 0.24733 0.21224 0.0
C50 C 0.17382 0.22876 0.20401 0.0
C51 C 0.18325 0.2351 0.21943 0.0
C52 C 0.1222 0.25124 0.16703 0.0
C53 C 0.07321 0.30671 0.16855 0.0
C54 C 0.08306 0.2747 0.15051 0.0
C55 C 0.08085 0.29089 0.14047 0.0
C56 C 0.07588 0.30698 0.14958 0.0
N57 N 0.08034 0.27453 0.16911 0.0
C58 C 0.07554 0.29026 0.17815 0.0
Co59 Co 0.73593 0.1202 0.21245 0.0
Co60 Co 0.7474 0.08355 0.18443 0.0
O61 O 0.73157 0.09562 0.20273 0.0
C62 C 0.69437 0.11731 0.20796 0.0
O63 O 0.69493 0.10069 0.20102 0.0
C64 C 0.74758 0.05991 0.2166 0.0
O65 O 0.75 0.07509 0.22599 0.0
O66 O 0.77036 0.09022 0.19797 0.0
O67 O 0.76278 0.11584 0.21329 0.0
H68 H 0.80026 0.07847 0.14022 0.0
H69 H 0.71022 0.09465 0.23208 0.0
O70 O 0.70906 0.12589 0.21221 0.0
H71 H 0.75693 0.11204 0.27785 0.0
H72 H 0.72428 0.17498 0.2533 0.0
H73 H 0.76352 0.14913 0.20447 0.0
H74 H 0.75834 0.12443 0.24642 0.0
H75 H 0.71783 0.14422 0.24053 0.0
O76 O 0.74619 0.06043 0.19915 0.0
H77 H 0.78073 0.09389 0.16327 0.0
H78 H 0.74693 0.04648 0.16715 0.0
H79 H 0.77042 0.17987 0.21692 0.0
H80 H 0.70808 0.08233 0.26341 0.0
H81 H 0.75067 0.19302 0.24143 0.0
H82 H 0.7316 0.0909 0.28659 0.0
O83 O 0.73808 0.12989 0.18714 0.0
H84 H 0.68412 0.05657 0.17784 0.0
H85 H 0.7353 0.08693 0.14543 0.0
H86 H 0.70733 0.07851 0.12824 0.0
H87 H 0.68151 0.06317 0.14445 0.0
H88 H 0.71224 0.06545 0.19455 0.0
H89 H 0.76621 0.03046 0.1443 0.0
H90 H 0.79304 0.04653 0.1306 0.0
O91 O 0.74923 0.10677 0.16982 0.0
C92 C 0.77434 0.10391 0.20807 0.0
C93 C 0.78857 0.07135 0.14605 0.0
C94 C 0.76948 0.0444 0.14836 0.0
N95 N 0.76263 0.07114 0.16642 0.0
C96 C 0.77743 0.08003 0.15906 0.0
C97 C 0.75864 0.05351 0.16132 0.0
C98 C 0.78452 0.05342 0.14067 0.0
C99 C 0.72022 0.09892 0.2421 0.0
N100 N 0.7341 0.11067 0.23739 0.0
C101 C 0.71907 0.09169 0.25983 0.0
C102 C 0.7323 0.09646 0.27281 0.0
C103 C 0.74651 0.1083 0.26792 0.0
C104 C 0.74722 0.11527 0.25006 0.0
C105 C 0.73286 0.16944 0.24248 0.0
C106 C 0.75483 0.15474 0.21514 0.0
C107 C 0.72926 0.15206 0.23517 0.0
N108 N 0.74033 0.14483 0.22181 0.0
C109 C 0.75879 0.17218 0.22209 0.0
C110 C 0.74771 0.17955 0.23586 0.0
C111 C 0.74472 0.12356 0.17217 0.0
C112 C 0.69528 0.06324 0.17062 0.0
C113 C 0.72406 0.08043 0.15263 0.0
C114 C 0.70829 0.07561 0.1428 0.0
C115 C 0.69381 0.06697 0.15189 0.0
N116 N 0.72538 0.07675 0.171 0.0
C117 C 0.71127 0.06824 0.17999 0.0
Co118 Co 0.87736 0.72769 0.21408 0.0
Co119 Co 0.91156 0.74299 0.18428 0.0
O120 O 0.90189 0.72572 0.20286 0.0
C121 C 0.88064 0.68749 0.20331 0.0
O122 O 0.89449 0.69014 0.1921 0.0
C123 C 0.94008 0.74137 0.21416 0.0
O124 O 0.93011 0.73005 0.22393 0.0
O125 O 0.90187 0.76492 0.19784 0.0
O126 O 0.88089 0.75426 0.21761 0.0
H127 H 0.90722 0.79599 0.14026 0.0
H128 H 0.90441 0.70088 0.22907 0.0
O129 O 0.87285 0.70074 0.2116 0.0
H130 H 0.88718 0.74021 0.28145 0.0
H131 H 0.82437 0.70748 0.25395 0.0
H132 H 0.84711 0.75483 0.21121 0.0
H133 H 0.87403 0.7457 0.25076 0.0
H134 H 0.85541 0.7051 0.24061 0.0
O135 O 0.93507 0.74654 0.19822 0.0
H136 H 0.89568 0.77428 0.16359 0.0
H137 H 0.94776 0.748 0.16563 0.0
H138 H 0.81608 0.75786 0.22443 0.0
H139 H 0.91749 0.69454 0.25962 0.0
H140 H 0.80448 0.73403 0.24594 0.0
H141 H 0.90896 0.71434 0.28609 0.0
O142 O 0.86583 0.7323 0.18956 0.0
H143 H 0.94648 0.68361 0.17743 0.0
H144 H 0.91007 0.73079 0.14528 0.0
H145 H 0.92217 0.70438 0.12789 0.0
H146 H 0.94061 0.68059 0.14394 0.0
H147 H 0.9339 0.71006 0.19433 0.0
H148 H 0.9599 0.76952 0.14241 0.0
H149 H 0.93955 0.79368 0.12953 0.0
O150 O 0.88833 0.74086 0.17009 0.0
C151 C 0.89026 0.76724 0.21075 0.0
C152 C 0.9162 0.78548 0.14573 0.0
C153 C 0.94578 0.77064 0.14695 0.0
N154 N 0.92099 0.75979 0.16584 0.0
C155 C 0.90973 0.77311 0.15889 0.0
C156 C 0.93884 0.75851 0.16012 0.0
C157 C 0.93435 0.78419 0.13972 0.0
C158 C 0.90034 0.70934 0.24055 0.0
N159 N 0.88826 0.72348 0.23811 0.0
C160 C 0.90794 0.7058 0.25781 0.0
C161 C 0.90318 0.71693 0.27264 0.0
C162 C 0.89099 0.73145 0.27003 0.0
C163 C 0.88365 0.73456 0.25258 0.0
C164 C 0.82925 0.71794 0.24458 0.0
C165 C 0.84221 0.74443 0.22059 0.0
C166 C 0.8468 0.71663 0.2369 0.0
N167 N 0.85309 0.7298 0.22506 0.0
C168 C 0.82461 0.74622 0.22803 0.0
C169 C 0.81811 0.73284 0.24009 0.0
C170 C 0.87161 0.73727 0.17374 0.0
C171 C 0.93855 0.69393 0.17026 0.0
C172 C 0.918 0.72046 0.15242 0.0
C173 C 0.92486 0.70556 0.14247 0.0
C174 C 0.93521 0.69222 0.15148 0.0
N175 N 0.92141 0.72212 0.17084 0.0
C176 C 0.93147 0.70904 0.17976 0.0
Co177 Co 0.26635 0.88336 0.20835 0.0
Co178 Co 0.25396 0.91689 0.1786 0.0
O179 O 0.26847 0.90837 0.1995 0.0
C180 C 0.30752 0.88555 0.20707 0.0
O181 O 0.30736 0.88812 0.18921 0.0
C182 C 0.24815 0.94472 0.20714 0.0
O183 O 0.24253 0.93126 0.21774 0.0
O184 O 0.23086 0.90966 0.19145 0.0
O185 O 0.23986 0.88201 0.20143 0.0
H186 H 0.20399 0.9134 0.13107 0.0
H187 H 0.28109 0.91197 0.23331 0.0
O188 O 0.29258 0.88399 0.21601 0.0
H189 H 0.22756 0.88584 0.26565 0.0
H190 H 0.27976 0.83078 0.25132 0.0
H191 H 0.24857 0.84946 0.19416 0.0
H192 H 0.23659 0.87423 0.23513 0.0
H193 H 0.28113 0.86291 0.24074 0.0
O194 O 0.25302 0.9416 0.1906 0.0
H195 H 0.22286 0.90202 0.15681 0.0
H196 H 0.25351 0.95168 0.1571 0.0
H197 H 0.24661 0.81728 0.20441 0.0
H198 H 0.27269 0.92381 0.26396 0.0
H199 H 0.26232 0.80772 0.23316 0.0
H200 H 0.24572 0.91075 0.28031 0.0
O201 O 0.27311 0.87449 0.18365 0.0
H202 H 0.31709 0.94464 0.17451 0.0
H203 H 0.26872 0.91124 0.14078 0.0
H204 H 0.29779 0.91883 0.12508 0.0
H205 H 0.32222 0.93566 0.14197 0.0
H206 H 0.28784 0.93669 0.18971 0.0
H207 H 0.23485 0.96368 0.13145 0.0
H208 H 0.20994 0.94445 0.11822 0.0
O209 O 0.25479 0.89205 0.16625 0.0
C210 C 0.22746 0.89389 0.1982 0.0
C211 C 0.21485 0.92188 0.13667 0.0
C212 C 0.23216 0.95011 0.1369 0.0
N213 N 0.23938 0.92611 0.15831 0.0
C214 C 0.22562 0.91549 0.15121 0.0
C215 C 0.24264 0.94327 0.15144 0.0
C216 C 0.21818 0.93931 0.12948 0.0
C217 C 0.26942 0.90612 0.24041 0.0
N218 N 0.25939 0.8924 0.23246 0.0
C219 C 0.26469 0.91293 0.25773 0.0
C220 C 0.24955 0.90561 0.26689 0.0
C221 C 0.23934 0.89164 0.25866 0.0
C222 C 0.24449 0.88516 0.24135 0.0
C223 C 0.27284 0.83478 0.23878 0.0
C224 C 0.25534 0.84548 0.20676 0.0
C225 C 0.27362 0.85295 0.23268 0.0
N226 N 0.26487 0.85812 0.21687 0.0
C227 C 0.25422 0.8272 0.21246 0.0
C228 C 0.26305 0.82185 0.22859 0.0
C229 C 0.26451 0.87764 0.16872 0.0
C230 C 0.30652 0.93735 0.16699 0.0
C231 C 0.27928 0.91856 0.14822 0.0
C232 C 0.29571 0.92284 0.13925 0.0
C233 C 0.3094 0.93229 0.14874 0.0
N234 N 0.27655 0.92361 0.16612 0.0
C235 C 0.28992 0.93286 0.17551 0.0
Co236 Co 0.12351 0.73401 0.79071 0.0
Co237 Co 0.08467 0.74706 0.81471 0.0
O238 O 0.09806 0.72999 0.7985 0.0
C239 C 0.1203 0.6924 0.79525 0.0
O240 O 0.1032 0.69303 0.80095 0.0
C241 C 0.06056 0.74468 0.78264 0.0
O242 O 0.07552 0.74545 0.77264 0.0
O243 O 0.09106 0.76862 0.79889 0.0
O244 O 0.11873 0.76082 0.78771 0.0
H245 H 0.07532 0.80491 0.85132 0.0
H246 H 0.0973 0.70888 0.77107 0.0
O247 O 0.12946 0.70714 0.79262 0.0
H248 H 0.12364 0.74831 0.72287 0.0
H249 H 0.18285 0.72102 0.75693 0.0
H250 H 0.15114 0.7621 0.80045 0.0
H251 H 0.13342 0.75173 0.75499 0.0
H252 H 0.15045 0.71533 0.76557 0.0
O253 O 0.06178 0.74348 0.80002 0.0
H254 H 0.09217 0.78377 0.83086 0.0
H255 H 0.0477 0.74603 0.83231 0.0
H256 H 0.18337 0.76829 0.79212 0.0
H257 H 0.08765 0.70454 0.7391 0.0
H258 H 0.19943 0.74762 0.77021 0.0
H259 H 0.10068 0.72443 0.71464 0.0
O260 O 0.13126 0.73766 0.8168 0.0
H261 H 0.06116 0.68336 0.82728 0.0
H262 H 0.08764 0.73928 0.85489 0.0
H263 H 0.08071 0.71264 0.87462 0.0
H264 H 0.06734 0.68443 0.86083 0.0
H265 H 0.06853 0.71025 0.808 0.0
H266 H 0.03031 0.76679 0.85271 0.0
H267 H 0.04417 0.79643 0.86243 0.0
O268 O 0.10708 0.7518 0.82968 0.0
C269 C 0.10571 0.77232 0.78999 0.0
C270 C 0.06917 0.79199 0.84727 0.0
C271 C 0.04391 0.77061 0.84803 0.0
N272 N 0.07106 0.76356 0.83065 0.0
C273 C 0.07869 0.77993 0.83575 0.0
C274 C 0.05382 0.75891 0.83648 0.0
C275 C 0.05169 0.78723 0.85348 0.0
C276 C 0.10344 0.71735 0.76064 0.0
N277 N 0.1161 0.7305 0.76514 0.0
C278 C 0.09774 0.71493 0.74247 0.0
C279 C 0.105 0.72612 0.72877 0.0
C280 C 0.11784 0.73953 0.73338 0.0
C281 C 0.12322 0.74153 0.75169 0.0
C282 C 0.17597 0.72999 0.76657 0.0
C283 C 0.158 0.75303 0.7909 0.0
C284 C 0.15771 0.72679 0.77161 0.0
N285 N 0.14891 0.73832 0.78354 0.0
C286 C 0.17628 0.7566 0.78625 0.0
C287 C 0.18528 0.74499 0.77398 0.0
C288 C 0.12384 0.7468 0.82981 0.0
C289 C 0.06696 0.69558 0.83345 0.0
C290 C 0.08196 0.72701 0.84875 0.0
C291 C 0.07798 0.712 0.86002 0.0
C292 C 0.07046 0.69618 0.85227 0.0
N293 N 0.07854 0.7263 0.83029 0.0
C294 C 0.0711 0.71087 0.82261 0.0
Co295 Co 0.26368 0.12129 0.79081 0.0
Co296 Co 0.25331 0.08326 0.81721 0.0
O297 O 0.2697 0.0971 0.8007 0.0
C298 C 0.30601 0.12476 0.79437 0.0
O299 O 0.30976 0.1075 0.79797 0.0
C300 C 0.25737 0.05684 0.78676 0.0
O301 O 0.25203 0.06999 0.77564 0.0
O302 O 0.23132 0.08702 0.80093 0.0
O303 O 0.23786 0.11386 0.78739 0.0
H304 H 0.1963 0.07158 0.85452 0.0
H305 H 0.29081 0.09466 0.77437 0.0
O306 O 0.28945 0.13045 0.79345 0.0
H307 H 0.25235 0.11487 0.72265 0.0
H308 H 0.27306 0.17828 0.75241 0.0
H309 H 0.23283 0.14715 0.79719 0.0
H310 H 0.2468 0.12682 0.75369 0.0
H311 H 0.28065 0.1473 0.76373 0.0
O312 O 0.25944 0.06002 0.80384 0.0
H313 H 0.2161 0.08881 0.83311 0.0
H314 H 0.2569 0.04725 0.83635 0.0
H315 H 0.22442 0.17793 0.78584 0.0
H316 H 0.29719 0.08287 0.74354 0.0
H317 H 0.24465 0.19376 0.76337 0.0
H318 H 0.27787 0.09287 0.71728 0.0
O319 O 0.25807 0.13066 0.81605 0.0
H320 H 0.31869 0.0664 0.83177 0.0
H321 H 0.25996 0.0886 0.85733 0.0
H322 H 0.28666 0.08469 0.87784 0.0
H323 H 0.31627 0.07345 0.86509 0.0
H324 H 0.2917 0.07068 0.81172 0.0
H325 H 0.23746 0.02944 0.85764 0.0
H326 H 0.20698 0.04166 0.86698 0.0
O327 O 0.24642 0.10605 0.83068 0.0
C328 C 0.22701 0.10063 0.79075 0.0
C329 C 0.20959 0.06615 0.85063 0.0
C330 C 0.23268 0.04249 0.85236 0.0
N331 N 0.23773 0.06919 0.83366 0.0
C332 C 0.22089 0.07589 0.83856 0.0
C333 C 0.24361 0.05262 0.84026 0.0
C334 C 0.21558 0.04935 0.8576 0.0
C335 C 0.28268 0.09969 0.76315 0.0
N336 N 0.26886 0.1121 0.76604 0.0
C337 C 0.2862 0.09268 0.74563 0.0
C338 C 0.27532 0.09822 0.73092 0.0
C339 C 0.26101 0.11055 0.73393 0.0
C340 C 0.25791 0.11726 0.75164 0.0
C341 C 0.26417 0.17158 0.76228 0.0
C342 C 0.24169 0.15391 0.78736 0.0
C343 C 0.26852 0.15411 0.7689 0.0
N344 N 0.25735 0.14548 0.7813 0.0
C345 C 0.23686 0.17136 0.78101 0.0
C346 C 0.24822 0.18024 0.76841 0.0
C347 C 0.24958 0.12321 0.82948 0.0
C348 C 0.30585 0.07126 0.8375 0.0
C349 C 0.27282 0.0838 0.85165 0.0
C350 C 0.28788 0.08156 0.86335 0.0
C351 C 0.30449 0.07524 0.85619 0.0
N352 N 0.27425 0.0798 0.83335 0.0
C353 C 0.2905 0.07366 0.82622 0.0
Co354 Co 0.87307 0.26664 0.787 0.0
Co355 Co 0.91227 0.25641 0.81173 0.0
O356 O 0.89856 0.27182 0.79427 0.0
C357 C 0.87618 0.30825 0.78893 0.0
O358 O 0.89059 0.30808 0.79974 0.0
C359 C 0.9348 0.25582 0.77879 0.0
O360 O 0.91907 0.25394 0.77023 0.0
O361 O 0.90601 0.23383 0.79776 0.0
O362 O 0.87744 0.23961 0.78772 0.0
H363 H 0.92108 0.2024 0.85379 0.0
H364 H 0.89718 0.29049 0.76393 0.0
O365 O 0.86757 0.2935 0.78505 0.0
H366 H 0.87495 0.24186 0.72238 0.0
H367 H 0.8143 0.2771 0.75162 0.0
H368 H 0.84479 0.23989 0.79917 0.0
H369 H 0.86559 0.24225 0.75491 0.0
H370 H 0.84664 0.28262 0.75969 0.0
O371 O 0.93499 0.25862 0.79609 0.0
H372 H 0.90419 0.22191 0.83183 0.0
H373 H 0.94979 0.25816 0.82813 0.0
H374 H 0.81242 0.23367 0.79145 0.0
H375 H 0.90649 0.29087 0.73144 0.0
H376 H 0.79692 0.2524 0.76753 0.0
H377 H 0.89543 0.26639 0.71039 0.0
O378 O 0.86552 0.26636 0.81323 0.0
H379 H 0.93671 0.32058 0.81905 0.0
H380 H 0.90974 0.26738 0.85113 0.0
H381 H 0.91742 0.29528 0.86873 0.0
H382 H 0.93107 0.32213 0.85268 0.0
H383 H 0.92853 0.29245 0.80191 0.0
H384 H 0.96722 0.23898 0.85 0.0
H385 H 0.95282 0.21092 0.86303 0.0
O386 O 0.88975 0.25313 0.82727 0.0
C387 C 0.89109 0.22899 0.79013 0.0
C388 C 0.92748 0.21463 0.84826 0.0
C389 C 0.95338 0.23515 0.84611 0.0
N390 N 0.92594 0.24125 0.82886 0.0
C391 C 0.91797 0.22576 0.83585 0.0
C392 C 0.94346 0.24594 0.83372 0.0
C393 C 0.94529 0.21941 0.85342 0.0
C394 C 0.89198 0.28 0.75485 0.0
N395 N 0.88052 0.26659 0.76132 0.0
C396 C 0.89745 0.28019 0.73646 0.0
C397 C 0.89126 0.26644 0.72467 0.0
C398 C 0.87977 0.25268 0.73138 0.0
C399 C 0.87453 0.25297 0.74984 0.0
C400 C 0.82087 0.26888 0.76214 0.0
C401 C 0.83818 0.2481 0.78882 0.0
C402 C 0.8392 0.27206 0.76687 0.0
N403 N 0.84766 0.26175 0.7801 0.0
C404 C 0.81982 0.24451 0.78447 0.0
C405 C 0.81113 0.25502 0.77105 0.0
C406 C 0.87309 0.25857 0.82698 0.0
C407 C 0.93078 0.30897 0.82619 0.0
C408 C 0.9155 0.27906 0.84401 0.0
C409 C 0.91991 0.29479 0.85407 0.0
C410 C 0.92759 0.30984 0.84506 0.0
N411 N 0.91863 0.27833 0.82549 0.0
C412 C 0.9262 0.29299 0.81657 0.0
Co413 Co 0.72798 0.88216 0.78626 0.0
Co414 Co 0.7407 0.91226 0.82059 0.0
O415 O 0.72596 0.90566 0.79892 0.0
C416 C 0.68755 0.88393 0.79297 0.0
O417 O 0.69039 0.88686 0.81055 0.0
C418 C 0.74707 0.94185 0.79413 0.0
O419 O 0.75022 0.92894 0.78192 0.0
O420 O 0.76397 0.90519 0.808 0.0
O421 O 0.75514 0.88223 0.78927 0.0
H422 H 0.78977 0.90407 0.86856 0.0
H423 H 0.70966 0.91399 0.76855 0.0
O424 O 0.70098 0.8819 0.78203 0.0
H425 H 0.75686 0.89342 0.72443 0.0
H426 H 0.71128 0.83389 0.73933 0.0
H427 H 0.74933 0.84841 0.79347 0.0
H428 H 0.75238 0.87714 0.75376 0.0
H429 H 0.70989 0.86461 0.75359 0.0
O430 O 0.74303 0.93761 0.8106 0.0
H431 H 0.77083 0.89489 0.84199 0.0
H432 H 0.74189 0.9455 0.84446 0.0
H433 H 0.75131 0.81763 0.7795 0.0
H434 H 0.71343 0.93055 0.73919 0.0
H435 H 0.73215 0.81017 0.75225 0.0
H436 H 0.73724 0.92033 0.71694 0.0
O437 O 0.72491 0.86905 0.80998 0.0
H438 H 0.67936 0.94353 0.8261 0.0
H439 H 0.7248 0.90431 0.8575 0.0
H440 H 0.69618 0.91283 0.87356 0.0
H441 H 0.67326 0.93265 0.85786 0.0
H442 H 0.70811 0.93458 0.8105 0.0
H443 H 0.76066 0.95532 0.87092 0.0
H444 H 0.78477 0.93451 0.88318 0.0
O445 O 0.7389 0.88687 0.83096 0.0
C446 C 0.76741 0.89227 0.79669 0.0
C447 C 0.77927 0.91323 0.86338 0.0
C448 C 0.76295 0.94201 0.8647 0.0
N449 N 0.75517 0.91957 0.84177 0.0
C450 C 0.76846 0.90808 0.84838 0.0
C451 C 0.75239 0.93638 0.84968 0.0
C452 C 0.77647 0.93032 0.87157 0.0
C453 C 0.72003 0.90947 0.75892 0.0
N454 N 0.73102 0.89482 0.763 0.0
C455 C 0.72211 0.9189 0.74232 0.0
C456 C 0.73548 0.91317 0.72985 0.0
C457 C 0.74651 0.8981 0.73404 0.0
C458 C 0.74403 0.88902 0.75075 0.0
C459 C 0.71975 0.837 0.75116 0.0
C460 C 0.74112 0.84537 0.78147 0.0
C461 C 0.71899 0.85436 0.75932 0.0
N462 N 0.72967 0.85838 0.77425 0.0
C463 C 0.74223 0.82787 0.77368 0.0
C464 C 0.73146 0.82369 0.75841 0.0
C465 C 0.73159 0.87176 0.82597 0.0
C466 C 0.68926 0.93492 0.83309 0.0
C467 C 0.71484 0.91284 0.85054 0.0
C468 C 0.69868 0.91766 0.85972 0.0
C469 C 0.68584 0.9288 0.85091 0.0
N470 N 0.71815 0.91901 0.83311 0.0
C471 C 0.70558 0.92985 0.82435 0.0
Co472 Co 0.20865 0.12784 0.26569 0.0
Co473 Co 0.18482 0.08791 0.25568 0.0
O474 O 0.20295 0.10189 0.27011 0.0
C475 C 0.20829 0.12348 0.30715 0.0
O476 O 0.19792 0.10875 0.30683 0.0
C477 C 0.21878 0.06693 0.25126 0.0
O478 O 0.22661 0.08283 0.24799 0.0
O479 O 0.19579 0.09611 0.23201 0.0
O480 O 0.20726 0.124 0.23858 0.0
H481 H 0.1381 0.07836 0.20569 0.0
H482 H 0.23328 0.10313 0.2871 0.0
O483 O 0.21146 0.13264 0.29258 0.0
H484 H 0.27288 0.13125 0.23991 0.0
H485 H 0.24083 0.18847 0.27603 0.0
H486 H 0.19326 0.15578 0.24053 0.0
H487 H 0.2401 0.13943 0.24196 0.0
H488 H 0.23491 0.15561 0.28138 0.0
O489 O 0.20179 0.06626 0.2555 0.0
H490 H 0.1606 0.09603 0.22386 0.0
H491 H 0.17128 0.04929 0.25711 0.0
H492 H 0.19886 0.18864 0.23456 0.0
H493 H 0.26605 0.09489 0.28583 0.0
H494 H 0.2228 0.20522 0.25237 0.0
H495 H 0.28611 0.10887 0.26202 0.0
O496 O 0.18204 0.13416 0.26686 0.0
H497 H 0.18562 0.05991 0.3188 0.0
H498 H 0.14669 0.08737 0.27065 0.0
H499 H 0.13251 0.07697 0.29961 0.0
H500 H 0.15201 0.06305 0.32391 0.0
H501 H 0.19928 0.07078 0.28973 0.0
H502 H 0.14902 0.03106 0.23918 0.0
H503 H 0.13219 0.04563 0.21331 0.0
O504 O 0.16784 0.10942 0.2549 0.0
C505 C 0.20337 0.11115 0.22734 0.0
C506 C 0.1453 0.07188 0.21697 0.0
C507 C 0.15144 0.04533 0.23575 0.0
N508 N 0.16712 0.07375 0.24164 0.0
C509 C 0.15801 0.08183 0.22735 0.0
C510 C 0.16405 0.05571 0.24584 0.0
C511 C 0.142 0.05351 0.22124 0.0
C512 C 0.24189 0.10946 0.27682 0.0
N513 N 0.23467 0.12175 0.26459 0.0
C514 C 0.26046 0.10466 0.27612 0.0
C515 C 0.2717 0.1125 0.26276 0.0
C516 C 0.26429 0.12505 0.25035 0.0
C517 C 0.24568 0.12956 0.25152 0.0
C518 C 0.23036 0.1814 0.26817 0.0
C519 C 0.20377 0.16286 0.24828 0.0
C520 C 0.22688 0.16278 0.27123 0.0
N521 N 0.21379 0.1537 0.26127 0.0
C522 C 0.20685 0.18149 0.24487 0.0
C523 C 0.22026 0.19078 0.25488 0.0
C524 C 0.16791 0.12603 0.26043 0.0
C525 C 0.17698 0.06594 0.30831 0.0
C526 C 0.1553 0.08153 0.28123 0.0
C527 C 0.14718 0.07557 0.29757 0.0
C528 C 0.15812 0.06773 0.31118 0.0
N529 N 0.17381 0.07973 0.27853 0.0
C530 C 0.18463 0.07204 0.2918 0.0
Co531 Co 0.87477 0.20891 0.26817 0.0
Co532 Co 0.91343 0.1868 0.25337 0.0
O533 O 0.90112 0.20399 0.26999 0.0
C534 C 0.88506 0.21228 0.30839 0.0
O535 O 0.90209 0.20748 0.30505 0.0
C536 C 0.93624 0.21983 0.25242 0.0
O537 O 0.92072 0.22875 0.25042 0.0
O538 O 0.90488 0.20146 0.23215 0.0
O539 O 0.87559 0.20643 0.24055 0.0
H540 H 0.91826 0.14589 0.19792 0.0
H541 H 0.90061 0.23614 0.28543 0.0
O542 O 0.87298 0.21222 0.29566 0.0
H543 H 0.86616 0.27094 0.23882 0.0
H544 H 0.81499 0.23953 0.28529 0.0
H545 H 0.84445 0.19248 0.24642 0.0
H546 H 0.8602 0.23799 0.24341 0.0
H547 H 0.84847 0.23447 0.28679 0.0
O548 O 0.9361 0.20243 0.25442 0.0
H549 H 0.90282 0.16744 0.21906 0.0
H550 H 0.95105 0.17078 0.25176 0.0
H551 H 0.81099 0.19724 0.24431 0.0
H552 H 0.90665 0.26907 0.28164 0.0
H553 H 0.79603 0.22092 0.26385 0.0
H554 H 0.88946 0.28678 0.25809 0.0
O555 O 0.86977 0.18222 0.27092 0.0
H556 H 0.94306 0.17824 0.31517 0.0
H557 H 0.91198 0.1471 0.26363 0.0
H558 H 0.92176 0.12904 0.29055 0.0
H559 H 0.93745 0.14461 0.31657 0.0
H560 H 0.93284 0.19582 0.28807 0.0
H561 H 0.96707 0.14939 0.23089 0.0
H562 H 0.95061 0.1367 0.20381 0.0
O563 O 0.89083 0.17109 0.25139 0.0
C564 C 0.88862 0.2069 0.22879 0.0
C565 C 0.92556 0.15127 0.20971 0.0
C566 C 0.95296 0.15325 0.22821 0.0
N567 N 0.92597 0.1702 0.23672 0.0
C568 C 0.91687 0.16344 0.22175 0.0
C569 C 0.94384 0.16539 0.23995 0.0
C570 C 0.94372 0.14613 0.21301 0.0
C571 C 0.89259 0.24371 0.27563 0.0
N572 N 0.87961 0.23509 0.26515 0.0
C573 C 0.89628 0.2624 0.27333 0.0
C574 C 0.88668 0.27231 0.26008 0.0
C575 C 0.87361 0.26344 0.24928 0.0
C576 C 0.87027 0.24474 0.25199 0.0
C577 C 0.82136 0.22918 0.27669 0.0
C578 C 0.83808 0.20286 0.25491 0.0
C579 C 0.8403 0.22619 0.27754 0.0
N580 N 0.84845 0.21321 0.26666 0.0
C581 C 0.81911 0.20547 0.25368 0.0
C582 C 0.81072 0.21874 0.26466 0.0
C583 C 0.87587 0.16962 0.26041 0.0
C584 C 0.93621 0.1713 0.30394 0.0
C585 C 0.91862 0.15403 0.27497 0.0
C586 C 0.92422 0.1437 0.29014 0.0
C587 C 0.93304 0.15244 0.30472 0.0
N588 N 0.92166 0.17255 0.27435 0.0
C589 C 0.93042 0.18118 0.28854 0.0
Co590 Co 0.78998 0.87509 0.26652 0.0
Co591 Co 0.81447 0.9135 0.25403 0.0
O592 O 0.79635 0.90102 0.2695 0.0
C593 C 0.78755 0.8839 0.30714 0.0
O594 O 0.79407 0.90044 0.30445 0.0
C595 C 0.7841 0.94039 0.26219 0.0
O596 O 0.77627 0.92891 0.27358 0.0
O597 O 0.80072 0.90587 0.23184 0.0
O598 O 0.79315 0.87686 0.23919 0.0
H599 H 0.85777 0.91839 0.2004 0.0
H600 H 0.76299 0.89958 0.28598 0.0
O601 O 0.78614 0.87245 0.2939 0.0
H602 H 0.72857 0.87189 0.23482 0.0
H603 H 0.75503 0.81692 0.2802 0.0
H604 H 0.80475 0.84475 0.24351 0.0
H605 H 0.76112 0.86415 0.23971 0.0
H606 H 0.76268 0.84972 0.28372 0.0
O607 O 0.79932 0.93663 0.25431 0.0
H608 H 0.83548 0.90292 0.2207 0.0
H609 H 0.83111 0.95093 0.25356 0.0
H610 H 0.79705 0.81206 0.23907 0.0
H611 H 0.73052 0.9076 0.28169 0.0
H612 H 0.77217 0.79789 0.25762 0.0
H613 H 0.71302 0.89379 0.25584 0.0
O614 O 0.81631 0.86849 0.26933 0.0
H615 H 0.82335 0.94124 0.31723 0.0
H616 H 0.85373 0.91125 0.26466 0.0
H617 H 0.87208 0.92008 0.29163 0.0
H618 H 0.85693 0.93526 0.31818 0.0
H619 H 0.80553 0.93198 0.29022 0.0
H620 H 0.85328 0.96699 0.23356 0.0
H621 H 0.86681 0.95068 0.2068 0.0
O622 O 0.82968 0.89057 0.25248 0.0
C623 C 0.79487 0.88994 0.22768 0.0
C624 C 0.85199 0.92564 0.21204 0.0
C625 C 0.84946 0.95292 0.23064 0.0
N626 N 0.83207 0.92596 0.23834 0.0
C627 C 0.83938 0.91693 0.22359 0.0
C628 C 0.83688 0.94377 0.24189 0.0
C629 C 0.85705 0.94376 0.21563 0.0
C630 C 0.75559 0.89337 0.27485 0.0
N631 N 0.76414 0.8814 0.2632 0.0
C632 C 0.73714 0.89804 0.27241 0.0
C633 C 0.72733 0.89031 0.2579 0.0
C634 C 0.73606 0.87805 0.24608 0.0
C635 C 0.75455 0.87376 0.24894 0.0
C636 C 0.76595 0.82292 0.27207 0.0
C637 C 0.79378 0.83875 0.25151 0.0
C638 C 0.77043 0.84147 0.27409 0.0
N639 N 0.78414 0.84919 0.26381 0.0
C640 C 0.78954 0.8202 0.249 0.0
C641 C 0.77556 0.81226 0.2594 0.0
C642 C 0.82986 0.87477 0.2601 0.0
C643 C 0.83012 0.93463 0.30574 0.0
C644 C 0.8469 0.91765 0.2762 0.0
C645 C 0.85744 0.92272 0.29141 0.0
C646 C 0.84895 0.93126 0.30629 0.0
N647 N 0.82838 0.92095 0.27572 0.0
C648 C 0.82003 0.92938 0.29027 0.0
Co649 Co 0.11958 0.78575 0.26361 0.0
Co650 Co 0.08646 0.81893 0.2552 0.0
O651 O 0.09719 0.79913 0.27027 0.0
C652 C 0.12587 0.79096 0.30555 0.0
O653 O 0.1097 0.79747 0.31025 0.0
C654 C 0.05738 0.79062 0.25499 0.0
O655 O 0.07019 0.77813 0.25272 0.0
O656 O 0.09083 0.80538 0.23135 0.0
O657 O 0.1109 0.78321 0.2383 0.0
H658 H 0.08473 0.86401 0.20295 0.0
H659 H 0.09372 0.77332 0.29322 0.0
O660 O 0.12979 0.78742 0.28887 0.0
H661 H 0.10187 0.7197 0.25279 0.0
H662 H 0.17126 0.7405 0.27287 0.0
H663 H 0.14485 0.78729 0.23164 0.0
H664 H 0.11774 0.74876 0.24608 0.0
H665 H 0.14222 0.756 0.28083 0.0
O666 O 0.06168 0.80744 0.25689 0.0
H667 H 0.09801 0.83917 0.22177 0.0
H668 H 0.0519 0.84091 0.25755 0.0
H669 H 0.17377 0.77189 0.223 0.0
H670 H 0.07789 0.74448 0.30064 0.0
H671 H 0.18723 0.74837 0.24372 0.0
H672 H 0.08185 0.71734 0.28033 0.0
O673 O 0.13245 0.80918 0.25722 0.0
H674 H 0.06383 0.82605 0.32007 0.0
H675 H 0.09372 0.85726 0.26787 0.0
H676 H 0.08823 0.87436 0.29663 0.0
H677 H 0.07311 0.85876 0.32295 0.0
H678 H 0.06973 0.80942 0.2911 0.0
H679 H 0.03803 0.86564 0.23901 0.0
H680 H 0.05451 0.87739 0.21152 0.0
O681 O 0.11081 0.83088 0.25312 0.0
C682 C 0.10054 0.79142 0.22702 0.0
C683 C 0.07743 0.85903 0.21492 0.0
C684 C 0.05121 0.85993 0.23514 0.0
N685 N 0.07578 0.83865 0.24079 0.0
C686 C 0.08491 0.845 0.22566 0.0
C687 C 0.05911 0.84588 0.24556 0.0
C688 C 0.06047 0.86652 0.21972 0.0
C689 C 0.09597 0.76157 0.28455 0.0
N690 N 0.10719 0.76274 0.26953 0.0
C691 C 0.08675 0.74526 0.28871 0.0
C692 C 0.08893 0.73006 0.27729 0.0
C693 C 0.10014 0.73138 0.26184 0.0
C694 C 0.10911 0.74792 0.25811 0.0
C695 C 0.16556 0.75074 0.26373 0.0
C696 C 0.15056 0.77701 0.2407 0.0
C697 C 0.14916 0.75965 0.26821 0.0
N698 N 0.14188 0.77267 0.25678 0.0
C699 C 0.16696 0.76835 0.23574 0.0
C700 C 0.1745 0.75516 0.24738 0.0
C701 C 0.12745 0.82562 0.2537 0.0
C702 C 0.0704 0.83301 0.30868 0.0
C703 C 0.08725 0.85034 0.27931 0.0
C704 C 0.08412 0.86011 0.29554 0.0
C705 C 0.07562 0.85136 0.3103 0.0
N706 N 0.08201 0.83237 0.2778 0.0
C707 C 0.07373 0.82367 0.29224 0.0
Co708 Co 0.20753 0.87511 0.73099 0.0
Co709 Co 0.18535 0.91472 0.74488 0.0
O710 O 0.20277 0.90149 0.72915 0.0
C711 C 0.20861 0.88446 0.69043 0.0
O712 O 0.20232 0.90101 0.69361 0.0
C713 C 0.21996 0.93449 0.75011 0.0
O714 O 0.22719 0.91819 0.75271 0.0
O715 O 0.19672 0.90443 0.76743 0.0
O716 O 0.20594 0.87635 0.75834 0.0
H717 H 0.14045 0.92206 0.7969 0.0
H718 H 0.23373 0.90061 0.71225 0.0
O719 O 0.21 0.87279 0.70343 0.0
H720 H 0.27062 0.86775 0.75843 0.0
H721 H 0.2383 0.81532 0.71425 0.0
H722 H 0.19196 0.84509 0.75379 0.0
H723 H 0.23756 0.86136 0.75518 0.0
H724 H 0.23262 0.84863 0.71199 0.0
O725 O 0.20297 0.93599 0.74605 0.0
H726 H 0.16219 0.90516 0.77712 0.0
H727 H 0.17241 0.95349 0.74608 0.0
H728 H 0.19771 0.81185 0.75693 0.0
H729 H 0.26678 0.90713 0.71473 0.0
H730 H 0.22087 0.79672 0.73696 0.0
H731 H 0.28551 0.8907 0.73804 0.0
O732 O 0.1807 0.86984 0.72945 0.0
H733 H 0.18473 0.94749 0.68402 0.0
H734 H 0.14692 0.91635 0.73083 0.0
H735 H 0.13215 0.92851 0.7029 0.0
H736 H 0.15108 0.94424 0.67926 0.0
H737 H 0.19901 0.93481 0.71201 0.0
H738 H 0.15084 0.97095 0.76558 0.0
H739 H 0.13463 0.95519 0.79116 0.0
O740 O 0.16785 0.89342 0.74472 0.0
C741 C 0.20316 0.8885 0.77061 0.0
C742 C 0.14736 0.92906 0.78575 0.0
C743 C 0.15321 0.9565 0.76819 0.0
N744 N 0.16838 0.92828 0.76033 0.0
C745 C 0.15965 0.91955 0.77447 0.0
C746 C 0.16542 0.94655 0.7572 0.0
C747 C 0.14412 0.94765 0.78253 0.0
C748 C 0.24179 0.89298 0.72199 0.0
N749 N 0.23373 0.88013 0.73304 0.0
C750 C 0.26051 0.89692 0.72354 0.0
C751 C 0.271 0.88775 0.73666 0.0
C752 C 0.26265 0.87487 0.7481 0.0
C753 C 0.24391 0.87128 0.74614 0.0
C754 C 0.22813 0.82175 0.723 0.0
C755 C 0.20222 0.83866 0.74517 0.0
C756 C 0.22476 0.8406 0.72171 0.0
N757 N 0.212 0.84885 0.73279 0.0
C758 C 0.20534 0.81981 0.74695 0.0
C759 C 0.21835 0.81133 0.73575 0.0
C760 C 0.1672 0.87725 0.73791 0.0
C761 C 0.17633 0.94064 0.69422 0.0
C762 C 0.15531 0.92297 0.72052 0.0
C763 C 0.14684 0.92994 0.70478 0.0
C764 C 0.15746 0.9388 0.69154 0.0
N765 N 0.17386 0.92471 0.72298 0.0
C766 C 0.18434 0.93351 0.71014 0.0
Co767 Co 0.12193 0.20801 0.73442 0.0
Co768 Co 0.0839 0.18278 0.74728 0.0
O769 O 0.09652 0.19995 0.73072 0.0
C770 C 0.1174 0.20412 0.69315 0.0
O771 O 0.10019 0.19901 0.6945 0.0
C772 C 0.05715 0.21346 0.74591 0.0
O773 O 0.07033 0.22479 0.75075 0.0
O774 O 0.08981 0.19844 0.76895 0.0
O775 O 0.11758 0.20986 0.76148 0.0
H776 H 0.07644 0.14421 0.80408 0.0
H777 H 0.09423 0.22819 0.71138 0.0
O778 O 0.12719 0.20712 0.70734 0.0
H779 H 0.12236 0.27528 0.75097 0.0
H780 H 0.1807 0.24155 0.7191 0.0
H781 H 0.15041 0.19866 0.76191 0.0
H782 H 0.13228 0.2431 0.75302 0.0
H783 H 0.14822 0.23298 0.71473 0.0
O784 O 0.06049 0.19647 0.74353 0.0
H785 H 0.09242 0.16571 0.78333 0.0
H786 H 0.04746 0.1641 0.74616 0.0
H787 H 0.18286 0.20705 0.76689 0.0
H788 H 0.08427 0.26024 0.70856 0.0
H789 H 0.19822 0.22864 0.74538 0.0
H790 H 0.09828 0.28414 0.72847 0.0
O791 O 0.13022 0.18194 0.73688 0.0
H792 H 0.06058 0.17028 0.68344 0.0
H793 H 0.08846 0.14287 0.73876 0.0
H794 H 0.08222 0.12333 0.7118 0.0
H795 H 0.06816 0.13701 0.68389 0.0
H796 H 0.0673 0.18939 0.71061 0.0
H797 H 0.03095 0.14266 0.76654 0.0
H798 H 0.04549 0.1325 0.7957 0.0
O799 O 0.1068 0.16856 0.75169 0.0
C800 C 0.10445 0.20726 0.77286 0.0
C801 C 0.06999 0.14849 0.79138 0.0
C802 C 0.04445 0.14763 0.77033 0.0
N803 N 0.07097 0.16602 0.76347 0.0
C804 C 0.07899 0.16063 0.77956 0.0
C805 C 0.05385 0.1598 0.75885 0.0
C806 C 0.05261 0.14193 0.78668 0.0
C807 C 0.10069 0.23837 0.71993 0.0
N808 N 0.11408 0.23357 0.73219 0.0
C809 C 0.09485 0.25658 0.71834 0.0
C810 C 0.10269 0.26998 0.72954 0.0
C811 C 0.11618 0.26502 0.74216 0.0
C812 C 0.12168 0.24668 0.74331 0.0
C813 C 0.17414 0.23216 0.72858 0.0
C814 C 0.15693 0.2082 0.75259 0.0
C815 C 0.15576 0.22718 0.72614 0.0
N816 N 0.14734 0.21543 0.73816 0.0
C817 C 0.17534 0.21284 0.75543 0.0
C818 C 0.18396 0.22492 0.74334 0.0
C819 C 0.12332 0.16864 0.746 0.0
C820 C 0.06672 0.16416 0.69552 0.0
C821 C 0.08251 0.14899 0.72661 0.0
C822 C 0.07891 0.13782 0.71142 0.0
C823 C 0.071 0.1455 0.69577 0.0
N824 N 0.07838 0.16732 0.72623 0.0
C825 C 0.07051 0.1749 0.71097 0.0
Co826 Co 0.79495 0.12334 0.73209 0.0
Co827 Co 0.81832 0.08639 0.74874 0.0
O828 O 0.80013 0.09701 0.73168 0.0
C829 C 0.78855 0.11347 0.69129 0.0
O830 O 0.79385 0.09626 0.69233 0.0
C831 C 0.78732 0.05922 0.74572 0.0
O832 O 0.7787 0.06922 0.73352 0.0
O833 O 0.80529 0.09712 0.77065 0.0
O834 O 0.80063 0.12475 0.75854 0.0
H835 H 0.86328 0.08801 0.80119 0.0
H836 H 0.76606 0.09877 0.71647 0.0
O837 O 0.78892 0.12392 0.70535 0.0
H838 H 0.73684 0.12912 0.76947 0.0
H839 H 0.75786 0.18089 0.72087 0.0
H840 H 0.81459 0.15557 0.74761 0.0
H841 H 0.76871 0.13651 0.76093 0.0
H842 H 0.76487 0.14777 0.71811 0.0
O843 O 0.80302 0.06374 0.75201 0.0
H844 H 0.84012 0.10086 0.78009 0.0
H845 H 0.83483 0.04921 0.75344 0.0
H846 H 0.80833 0.18865 0.75026 0.0
H847 H 0.73405 0.09132 0.72426 0.0
H848 H 0.77968 0.20151 0.73691 0.0
H849 H 0.71921 0.10643 0.75103 0.0
O850 O 0.82121 0.12829 0.7264 0.0
H851 H 0.82366 0.05328 0.68796 0.0
H852 H 0.85743 0.08551 0.73704 0.0
H853 H 0.87434 0.07355 0.71028 0.0
H854 H 0.85747 0.05724 0.6855 0.0
H855 H 0.80729 0.06561 0.71479 0.0
H856 H 0.85784 0.03573 0.77437 0.0
H857 H 0.87231 0.05521 0.79838 0.0
O858 O 0.83389 0.10903 0.74684 0.0
C859 C 0.80184 0.11416 0.77232 0.0
C860 C 0.85711 0.07939 0.79075 0.0
C861 C 0.85404 0.05004 0.77571 0.0
N862 N 0.83624 0.07585 0.76545 0.0
C863 C 0.84402 0.08661 0.77872 0.0
C864 C 0.84098 0.05773 0.76394 0.0
C865 C 0.86216 0.06098 0.78917 0.0
C866 C 0.75972 0.10565 0.72794 0.0
N867 N 0.76938 0.1181 0.73814 0.0
C868 C 0.74156 0.10127 0.73237 0.0
C869 C 0.73325 0.10972 0.74741 0.0
C870 C 0.74314 0.12243 0.75776 0.0
C871 C 0.76126 0.12648 0.7529 0.0
C872 C 0.77045 0.17541 0.72654 0.0
C873 C 0.80224 0.16101 0.74153 0.0
C874 C 0.7745 0.15669 0.72506 0.0
N875 N 0.79013 0.14965 0.73273 0.0
C876 C 0.79873 0.1798 0.74313 0.0
C877 C 0.78267 0.187 0.73563 0.0
C878 C 0.83455 0.12326 0.7366 0.0
C879 C 0.83119 0.06025 0.69874 0.0
C880 C 0.84993 0.0784 0.72636 0.0
C881 C 0.85962 0.07165 0.71123 0.0
C882 C 0.85015 0.06251 0.69734 0.0
N883 N 0.83132 0.07605 0.72774 0.0
C884 C 0.82196 0.06718 0.71409 0.0
Co885 Co 0.87387 0.78843 0.73208 0.0
Co886 Co 0.91104 0.81529 0.74368 0.0
O887 O 0.89874 0.79773 0.72718 0.0
C888 C 0.8765 0.79142 0.69056 0.0
O889 O 0.89198 0.80064 0.69092 0.0
C890 C 0.94038 0.78738 0.74082 0.0
O891 O 0.92814 0.77444 0.74373 0.0
O892 O 0.90765 0.7984 0.76506 0.0
O893 O 0.87958 0.78701 0.75886 0.0
H894 H 0.91952 0.85145 0.80201 0.0
H895 H 0.90186 0.77001 0.70815 0.0
O896 O 0.86742 0.78838 0.70524 0.0
H897 H 0.87705 0.72088 0.74748 0.0
H898 H 0.81547 0.75243 0.72054 0.0
H899 H 0.84683 0.79641 0.76142 0.0
H900 H 0.86563 0.75248 0.75043 0.0
H901 H 0.84707 0.76237 0.71406 0.0
O902 O 0.93535 0.80393 0.73841 0.0
H903 H 0.9042 0.82937 0.78141 0.0
H904 H 0.94489 0.83827 0.74057 0.0
H905 H 0.81531 0.78653 0.76868 0.0
H906 H 0.9134 0.73856 0.70456 0.0
H907 H 0.79935 0.76442 0.74816 0.0
H908 H 0.90103 0.71364 0.72429 0.0
O909 O 0.86433 0.81407 0.73487 0.0
H910 H 0.93011 0.83181 0.6794 0.0
H911 H 0.90236 0.85486 0.73678 0.0
H912 H 0.90588 0.87578 0.71038 0.0
H913 H 0.91992 0.86431 0.68145 0.0
H914 H 0.92608 0.81127 0.70604 0.0
H915 H 0.96075 0.86037 0.76075 0.0
H916 H 0.94803 0.86715 0.7917 0.0
O917 O 0.88747 0.82717 0.75026 0.0
C918 C 0.89329 0.78937 0.76956 0.0
C919 C 0.92517 0.84867 0.78853 0.0
C920 C 0.9483 0.85367 0.76539 0.0
N921 N 0.9235 0.83262 0.75974 0.0
C922 C 0.91651 0.8362 0.77679 0.0
C923 C 0.93925 0.84113 0.75402 0.0
C924 C 0.94117 0.85746 0.78275 0.0
C925 C 0.89625 0.75939 0.71679 0.0
N926 N 0.88293 0.76332 0.72948 0.0
C927 C 0.90292 0.74152 0.71469 0.0
C928 C 0.89599 0.72756 0.72577 0.0
C929 C 0.88256 0.73161 0.73878 0.0
C930 C 0.8762 0.74963 0.74046 0.0
C931 C 0.82227 0.76207 0.72962 0.0
C932 C 0.84012 0.78663 0.75249 0.0
C933 C 0.84019 0.76785 0.72591 0.0
N934 N 0.849 0.77989 0.73734 0.0
C935 C 0.8222 0.78115 0.75664 0.0
C936 C 0.81324 0.76877 0.74511 0.0
C937 C 0.87076 0.82656 0.74533 0.0
C938 C 0.92398 0.83697 0.69193 0.0
C939 C 0.90827 0.84969 0.72417 0.0
C940 C 0.91033 0.86164 0.7093 0.0
C941 C 0.91824 0.8552 0.69308 0.0
N942 N 0.91395 0.83182 0.72294 0.0
C943 C 0.92172 0.82542 0.70709 0.0
Co944 Co 0.26829 0.20686 0.12236 0.0
Co945 Co 0.25594 0.18468 0.08229 0.0
O946 O 0.27226 0.20086 0.09648 0.0
C947 C 0.30967 0.20523 0.11749 0.0
O948 O 0.30837 0.20099 0.10002 0.0
C949 C 0.25774 0.21817 0.06005 0.0
O950 O 0.25522 0.22735 0.07537 0.0
O951 O 0.234 0.1993 0.08946 0.0
O952 O 0.24118 0.20863 0.11806 0.0
H953 H 0.19939 0.14678 0.07035 0.0
H954 H 0.29137 0.2299 0.09673 0.0
O955 O 0.2954 0.20595 0.12767 0.0
H956 H 0.24995 0.27339 0.1278 0.0
H957 H 0.28271 0.2361 0.18361 0.0
H958 H 0.24092 0.19474 0.14992 0.0
H959 H 0.24865 0.24046 0.13505 0.0
H960 H 0.2874 0.23009 0.15059 0.0
O961 O 0.25925 0.20075 0.06037 0.0
H962 H 0.21984 0.16669 0.08863 0.0
H963 H 0.25771 0.16945 0.04433 0.0
H964 H 0.23572 0.20045 0.18291 0.0
H965 H 0.29353 0.26268 0.08955 0.0
H966 H 0.25671 0.22126 0.19998 0.0
H967 H 0.27265 0.2848 0.10501 0.0
O968 O 0.2661 0.18025 0.12842 0.0
H969 H 0.31983 0.17533 0.05768 0.0
H970 H 0.26513 0.14475 0.08345 0.0
H971 H 0.2923 0.12623 0.07528 0.0
H972 H 0.3199 0.14152 0.06225 0.0
H973 H 0.29244 0.19336 0.06627 0.0
H974 H 0.2376 0.14974 0.02548 0.0
H975 H 0.20825 0.13817 0.03852 0.0
O976 O 0.25148 0.1685 0.10396 0.0
C977 C 0.22987 0.20675 0.10476 0.0
C978 C 0.2122 0.15163 0.06455 0.0
C979 C 0.23363 0.15331 0.03936 0.0
N980 N 0.24009 0.16897 0.06769 0.0
C981 C 0.22387 0.16283 0.07488 0.0
C982 C 0.24496 0.16447 0.05011 0.0
C983 C 0.21717 0.14683 0.04669 0.0
C984 C 0.28256 0.23926 0.10399 0.0
N985 N 0.27016 0.23303 0.11666 0.0
C986 C 0.28371 0.25792 0.09965 0.0
C987 C 0.27195 0.27031 0.10827 0.0
C988 C 0.25922 0.26392 0.12104 0.0
C989 C 0.2585 0.24517 0.12503 0.0
C990 C 0.27348 0.22701 0.17631 0.0
C991 C 0.25004 0.20392 0.15721 0.0
C992 C 0.27609 0.2235 0.15761 0.0
N993 N 0.26435 0.21218 0.14826 0.0
C994 C 0.24706 0.20705 0.17591 0.0
C995 C 0.25887 0.2187 0.18549 0.0
C996 C 0.25671 0.16765 0.12064 0.0
C997 C 0.30789 0.16851 0.06335 0.0
C998 C 0.27715 0.15154 0.07797 0.0
C999 C 0.29246 0.14096 0.07328 0.0
C1000 C 0.30793 0.14954 0.06594 0.0
N1001 N 0.27724 0.17015 0.07545 0.0
C1002 C 0.29232 0.17864 0.06819 0.0
Co1003 Co 0.26704 0.7878 0.87942 0.0
Co1004 Co 0.25569 0.81528 0.91624 0.0
O1005 O 0.27111 0.79662 0.90445 0.0
C1006 C 0.30833 0.78757 0.88497 0.0
O1007 O 0.30692 0.79292 0.90212 0.0
C1008 C 0.25588 0.78579 0.94387 0.0
O1009 O 0.24995 0.77472 0.93092 0.0
O1010 O 0.23308 0.80054 0.91123 0.0
O1011 O 0.23988 0.78816 0.8836 0.0
H1012 H 0.20182 0.85825 0.92218 0.0
H1013 H 0.28768 0.7667 0.90872 0.0
O1014 O 0.29425 0.78658 0.87457 0.0
H1015 H 0.24436 0.72249 0.88153 0.0
H1016 H 0.28101 0.75105 0.82228 0.0
H1017 H 0.2402 0.79734 0.85029 0.0
H1018 H 0.24556 0.75426 0.87029 0.0
H1019 H 0.28548 0.76069 0.85443 0.0
O1020 O 0.25924 0.80258 0.94032 0.0
H1021 H 0.22069 0.83445 0.90723 0.0
H1022 H 0.25836 0.83548 0.95174 0.0
H1023 H 0.23505 0.78781 0.8182 0.0
H1024 H 0.28724 0.73505 0.91998 0.0
H1025 H 0.25557 0.76454 0.80396 0.0
H1026 H 0.26541 0.71257 0.90648 0.0
O1027 O 0.26638 0.81358 0.86997 0.0
H1028 H 0.32031 0.82618 0.93823 0.0
H1029 H 0.2661 0.85421 0.90882 0.0
H1030 H 0.29398 0.87286 0.91364 0.0
H1031 H 0.32133 0.85885 0.92848 0.0
H1032 H 0.29223 0.80796 0.93294 0.0
H1033 H 0.23981 0.8592 0.96729 0.0
H1034 H 0.21138 0.87084 0.95244 0.0
O1035 O 0.25121 0.82799 0.89254 0.0
C1036 C 0.22867 0.79176 0.89665 0.0
C1037 C 0.2142 0.85332 0.92878 0.0
C1038 C 0.23551 0.85384 0.9541 0.0
N1039 N 0.24067 0.83363 0.92851 0.0
C1040 C 0.22496 0.83985 0.92034 0.0
C1041 C 0.24593 0.84036 0.94525 0.0
C1042 C 0.21956 0.86037 0.94576 0.0
C1043 C 0.27852 0.75711 0.90226 0.0
N1044 N 0.26713 0.76247 0.88831 0.0
C1045 C 0.27817 0.73912 0.90893 0.0
C1046 C 0.26589 0.72653 0.9014 0.0
C1047 C 0.2541 0.73208 0.8874 0.0
C1048 C 0.25489 0.75016 0.88106 0.0
C1049 C 0.27196 0.76119 0.82834 0.0
C1050 C 0.24909 0.78708 0.84427 0.0
C1051 C 0.27449 0.76679 0.84652 0.0
N1052 N 0.26306 0.77955 0.8543 0.0
C1053 C 0.24615 0.78179 0.82606 0.0
C1054 C 0.25768 0.76875 0.81807 0.0
C1055 C 0.25651 0.82677 0.87593 0.0
C1056 C 0.30848 0.83243 0.93174 0.0
C1057 C 0.278 0.84795 0.91512 0.0
C1058 C 0.29372 0.85862 0.9179 0.0
C1059 C 0.30905 0.85076 0.92625 0.0
N1060 N 0.27756 0.82996 0.92049 0.0
C1061 C 0.29252 0.8222 0.92875 0.0
Co1062 Co 0.20454 0.26449 0.87768 0.0
Co1063 Co 0.18098 0.25489 0.91752 0.0
O1064 O 0.19873 0.26953 0.90337 0.0
C1065 C 0.20609 0.30623 0.88135 0.0
O1066 O 0.20045 0.30616 0.89847 0.0
C1067 C 0.21456 0.25428 0.93944 0.0
O1068 O 0.22295 0.24879 0.92446 0.0
O1069 O 0.19356 0.23154 0.91073 0.0
O1070 O 0.20302 0.2375 0.88197 0.0
H1071 H 0.13775 0.20228 0.92916 0.0
H1072 H 0.22984 0.2865 0.90154 0.0
O1073 O 0.20695 0.29135 0.87209 0.0
H1074 H 0.26822 0.23741 0.87514 0.0
H1075 H 0.23735 0.27298 0.81712 0.0
H1076 H 0.18875 0.23916 0.85003 0.0
H1077 H 0.23527 0.23933 0.8676 0.0
H1078 H 0.23137 0.27904 0.85 0.0
O1079 O 0.19734 0.25731 0.93944 0.0
H1080 H 0.1592 0.22104 0.91083 0.0
H1081 H 0.16626 0.25778 0.95562 0.0
H1082 H 0.19438 0.23262 0.81728 0.0
H1083 H 0.26269 0.28524 0.90918 0.0
H1084 H 0.21877 0.24967 0.80059 0.0
H1085 H 0.28218 0.26052 0.89599 0.0
O1086 O 0.178 0.26552 0.87151 0.0
H1087 H 0.17688 0.31969 0.94121 0.0
H1088 H 0.14196 0.26719 0.91642 0.0
H1089 H 0.12563 0.29577 0.92438 0.0
H1090 H 0.14311 0.32228 0.93692 0.0
H1091 H 0.1927 0.29089 0.93286 0.0
H1092 H 0.14495 0.23937 0.9745 0.0
H1093 H 0.13051 0.21141 0.96125 0.0
O1094 O 0.16452 0.25185 0.89565 0.0
C1095 C 0.20033 0.22662 0.89538 0.0
C1096 C 0.1439 0.21447 0.93506 0.0
C1097 C 0.14796 0.23527 0.96051 0.0
N1098 N 0.16383 0.24058 0.93208 0.0
C1099 C 0.15601 0.22518 0.92473 0.0
C1100 C 0.16003 0.24563 0.94977 0.0
C1101 C 0.13986 0.21959 0.95308 0.0
C1102 C 0.23818 0.27594 0.89539 0.0
N1103 N 0.23059 0.2633 0.88375 0.0
C1104 C 0.25681 0.27518 0.89993 0.0
C1105 C 0.26772 0.26128 0.89258 0.0
C1106 C 0.25989 0.24831 0.88089 0.0
C1107 C 0.2412 0.24949 0.87667 0.0
C1108 C 0.22662 0.26556 0.82426 0.0
C1109 C 0.19945 0.24661 0.84291 0.0
C1110 C 0.22313 0.26897 0.84284 0.0
N1111 N 0.20971 0.25949 0.85195 0.0
C1112 C 0.20254 0.24286 0.82434 0.0
C1113 C 0.21622 0.25244 0.81498 0.0
C1114 C 0.16433 0.25755 0.87907 0.0
C1115 C 0.16911 0.30824 0.93575 0.0
C1116 C 0.1497 0.27871 0.92169 0.0
C1117 C 0.14036 0.29484 0.92627 0.0
C1118 C 0.15017 0.30969 0.93332 0.0
N1119 N 0.16829 0.27741 0.92407 0.0
C1120 C 0.17799 0.29188 0.93104 0.0
Co1121 Co 0.73098 0.21701 0.88039 0.0
Co1122 Co 0.74335 0.18341 0.91151 0.0
O1123 O 0.7279 0.20383 0.90329 0.0
C1124 C 0.69078 0.20748 0.87866 0.0
O1125 O 0.69407 0.18982 0.88035 0.0
C1126 C 0.7486 0.21293 0.9376 0.0
O1127 O 0.75075 0.22254 0.92257 0.0
O1128 O 0.76665 0.19592 0.90431 0.0
O1129 O 0.75818 0.21574 0.88227 0.0
H1130 H 0.7929 0.13544 0.90686 0.0
H1131 H 0.70763 0.23337 0.90962 0.0
O1132 O 0.70384 0.21903 0.87824 0.0
H1133 H 0.75579 0.27936 0.89707 0.0
H1134 H 0.71246 0.26313 0.83214 0.0
H1135 H 0.75801 0.21609 0.84933 0.0
H1136 H 0.75502 0.25016 0.87993 0.0
H1137 H 0.71009 0.24715 0.86179 0.0
O1138 O 0.74506 0.19575 0.9364 0.0
H1139 H 0.77398 0.1613 0.89583 0.0
H1140 H 0.74469 0.16218 0.94633 0.0
H1141 H 0.76101 0.232 0.81975 0.0
H1142 H 0.70777 0.26251 0.92693 0.0
H1143 H 0.73803 0.25559 0.81081 0.0
H1144 H 0.73202 0.28571 0.92075 0.0
O1145 O 0.73102 0.19333 0.8669 0.0
H1146 H 0.68153 0.17776 0.94187 0.0
H1147 H 0.72851 0.14595 0.90476 0.0
H1148 H 0.70001 0.12961 0.9132 0.0
H1149 H 0.67631 0.14553 0.93192 0.0
H1150 H 0.71018 0.19361 0.93303 0.0
H1151 H 0.76346 0.13647 0.958 0.0
H1152 H 0.78771 0.12288 0.93817 0.0
O1153 O 0.74257 0.1719 0.88622 0.0
C1154 C 0.77027 0.20766 0.8919 0.0
C1155 C 0.78234 0.14122 0.91561 0.0
C1156 C 0.76583 0.14181 0.94433 0.0
N1157 N 0.75816 0.16313 0.92038 0.0
C1158 C 0.77154 0.15582 0.90942 0.0
C1159 C 0.75529 0.15639 0.93767 0.0
C1160 C 0.77943 0.13418 0.93319 0.0
C1161 C 0.71809 0.24349 0.90669 0.0
N1162 N 0.73122 0.24011 0.89369 0.0
C1163 C 0.71816 0.25993 0.9166 0.0
C1164 C 0.73179 0.27293 0.91314 0.0
C1165 C 0.74513 0.26937 0.89987 0.0
C1166 C 0.74464 0.2528 0.89022 0.0
C1167 C 0.72245 0.25272 0.83578 0.0
C1168 C 0.7479 0.22631 0.84569 0.0
C1169 C 0.72108 0.24345 0.85253 0.0
N1170 N 0.73355 0.23018 0.85721 0.0
C1171 C 0.74971 0.2353 0.82885 0.0
C1172 C 0.73682 0.24853 0.82384 0.0
C1173 C 0.73767 0.17735 0.87017 0.0
C1174 C 0.69177 0.17067 0.93374 0.0
C1175 C 0.71821 0.15298 0.91285 0.0
C1176 C 0.70213 0.14365 0.91762 0.0
C1177 C 0.68884 0.15259 0.92814 0.0
N1178 N 0.72101 0.17068 0.91847 0.0
C1179 C 0.70804 0.17955 0.92874 0.0
Co1180 Co 0.79193 0.72448 0.8735 0.0
Co1181 Co 0.80972 0.74843 0.91081 0.0
O1182 O 0.79693 0.72678 0.90004 0.0
C1183 C 0.79915 0.68486 0.88517 0.0
O1184 O 0.79937 0.68828 0.90287 0.0
C1185 C 0.77919 0.73908 0.93723 0.0
O1186 O 0.772 0.72746 0.9256 0.0
O1187 O 0.79156 0.76538 0.89919 0.0
O1188 O 0.78472 0.75105 0.87259 0.0
H1189 H 0.83887 0.81103 0.90894 0.0
H1190 H 0.77086 0.70287 0.90228 0.0
O1191 O 0.79837 0.69774 0.87334 0.0
H1192 H 0.72395 0.72677 0.8601 0.0
H1193 H 0.77175 0.69318 0.8149 0.0
H1194 H 0.80039 0.74842 0.84175 0.0
H1195 H 0.75654 0.73337 0.85477 0.0
H1196 H 0.77549 0.69601 0.84842 0.0
O1197 O 0.79385 0.7478 0.9334 0.0
H1198 H 0.82224 0.78439 0.8962 0.0
H1199 H 0.82367 0.75798 0.94823 0.0
H1200 H 0.79661 0.74625 0.80816 0.0
H1201 H 0.73858 0.69579 0.90799 0.0
H1202 H 0.78224 0.71846 0.79451 0.0
H1203 H 0.71464 0.70783 0.8869 0.0
O1204 O 0.81798 0.73017 0.86786 0.0
H1205 H 0.82884 0.69226 0.94628 0.0
H1206 H 0.85071 0.7472 0.91326 0.0
H1207 H 0.87323 0.72593 0.9269 0.0
H1208 H 0.86234 0.69825 0.94362 0.0
H1209 H 0.80681 0.71378 0.93227 0.0
H1210 H 0.84012 0.78444 0.96157 0.0
H1211 H 0.84799 0.81113 0.94183 0.0
O1212 O 0.82626 0.75071 0.88906 0.0
C1213 C 0.78369 0.76479 0.88353 0.0
C1214 C 0.83557 0.79945 0.91767 0.0
C1215 C 0.83626 0.78454 0.94721 0.0
N1216 N 0.82213 0.76956 0.9214 0.0
C1217 C 0.82618 0.78431 0.91052 0.0
C1218 C 0.82688 0.76962 0.93959 0.0
C1219 C 0.84067 0.79951 0.93613 0.0
C1220 C 0.76089 0.70804 0.89284 0.0
N1221 N 0.76603 0.71861 0.87821 0.0
C1222 C 0.74242 0.70405 0.89624 0.0
C1223 C 0.72901 0.71081 0.88444 0.0
C1224 C 0.73422 0.72143 0.86944 0.0
C1225 C 0.75282 0.72517 0.86654 0.0
C1226 C 0.778 0.70538 0.82068 0.0
C1227 C 0.79391 0.73638 0.83595 0.0
C1228 C 0.78026 0.70703 0.83967 0.0
N1229 N 0.788 0.72248 0.84711 0.0
C1230 C 0.7919 0.73518 0.8169 0.0
C1231 C 0.78387 0.71957 0.80925 0.0
C1232 C 0.82905 0.74214 0.87412 0.0
C1233 C 0.83376 0.70432 0.9391 0.0
C1234 C 0.84582 0.73517 0.92045 0.0
C1235 C 0.85866 0.72319 0.92819 0.0
C1236 C 0.85255 0.70767 0.93758 0.0
N1237 N 0.82739 0.73186 0.92209 0.0
C1238 C 0.82132 0.71662 0.9312 0.0
Co1239 Co 0.73462 0.79402 0.12221 0.0
Co1240 Co 0.74649 0.81384 0.08156 0.0
O1241 O 0.72984 0.79837 0.09614 0.0
C1242 C 0.69266 0.79282 0.11898 0.0
O1243 O 0.69237 0.7981 0.10173 0.0
C1244 C 0.74285 0.78058 0.05917 0.0
O1245 O 0.74509 0.77123 0.07441 0.0
O1246 O 0.76795 0.79801 0.08841 0.0
O1247 O 0.76159 0.79553 0.11833 0.0
H1248 H 0.8041 0.84997 0.06922 0.0
H1249 H 0.71163 0.7674 0.10091 0.0
O1250 O 0.70776 0.792 0.12785 0.0
H1251 H 0.76275 0.73085 0.12597 0.0
H1252 H 0.72631 0.76253 0.18336 0.0
H1253 H 0.75933 0.81126 0.14992 0.0
H1254 H 0.76064 0.76398 0.13244 0.0
H1255 H 0.72071 0.76758 0.15032 0.0
O1256 O 0.74218 0.79804 0.05958 0.0
H1257 H 0.78327 0.83052 0.08755 0.0
H1258 H 0.74492 0.82913 0.04362 0.0
H1259 H 0.76544 0.80666 0.18285 0.0
H1260 H 0.71294 0.73428 0.09459 0.0
H1261 H 0.74888 0.78212 0.19983 0.0
H1262 H 0.73871 0.71572 0.10704 0.0
O1263 O 0.73393 0.82098 0.12676 0.0
H1264 H 0.68222 0.82565 0.05924 0.0
H1265 H 0.73922 0.85419 0.08223 0.0
H1266 H 0.71261 0.87379 0.0747 0.0
H1267 H 0.68386 0.85952 0.06307 0.0
H1268 H 0.70911 0.80655 0.06712 0.0
H1269 H 0.76543 0.84835 0.0247 0.0
H1270 H 0.7952 0.85903 0.03754 0.0
O1271 O 0.75177 0.82989 0.10331 0.0
C1272 C 0.77259 0.7941 0.10483 0.0
C1273 C 0.79111 0.8455 0.06351 0.0
C1274 C 0.76942 0.84457 0.03851 0.0
N1275 N 0.76278 0.82892 0.06679 0.0
C1276 C 0.77923 0.83455 0.07387 0.0
C1277 C 0.75788 0.83366 0.04929 0.0
C1278 C 0.78612 0.85055 0.04573 0.0
C1279 C 0.7226 0.75946 0.10685 0.0
N1280 N 0.73578 0.7677 0.1174 0.0
C1281 C 0.7234 0.74067 0.10302 0.0
C1282 C 0.73789 0.73028 0.10995 0.0
C1283 C 0.75138 0.73876 0.12056 0.0
C1284 C 0.75013 0.75757 0.12412 0.0
C1285 C 0.73352 0.77335 0.17614 0.0
C1286 C 0.75191 0.80069 0.15718 0.0
C1287 C 0.73028 0.77637 0.15747 0.0
N1288 N 0.73939 0.78994 0.14821 0.0
C1289 C 0.75549 0.7981 0.17586 0.0
C1290 C 0.74621 0.78433 0.18537 0.0
C1291 C 0.74509 0.83231 0.11935 0.0
C1292 C 0.69467 0.83203 0.06427 0.0
C1293 C 0.72672 0.84787 0.07729 0.0
C1294 C 0.71172 0.85904 0.07298 0.0
C1295 C 0.6956 0.85103 0.06644 0.0
N1296 N 0.7257 0.82924 0.07512 0.0
C1297 C 0.70995 0.82129 0.06871 0.0
Co1298 Co 0.20285 0.73098 0.12651 0.0
Co1299 Co 0.18609 0.75117 0.08701 0.0
O1300 O 0.19946 0.73132 0.0998 0.0
C1301 C 0.20281 0.69028 0.11635 0.0
O1302 O 0.20135 0.69332 0.09863 0.0
C1303 C 0.22151 0.75144 0.06757 0.0
O1304 O 0.22929 0.75298 0.08377 0.0
O1305 O 0.2016 0.77055 0.09888 0.0
O1306 O 0.20687 0.75814 0.12659 0.0
H1307 H 0.15222 0.81114 0.08184 0.0
H1308 H 0.22707 0.71434 0.09716 0.0
O1309 O 0.20008 0.70331 0.12789 0.0
H1310 H 0.27027 0.73806 0.14331 0.0
H1311 H 0.2227 0.708 0.18906 0.0
H1312 H 0.18782 0.75527 0.15549 0.0
H1313 H 0.23724 0.74131 0.14806 0.0
H1314 H 0.22232 0.70865 0.15497 0.0
O1315 O 0.20413 0.74972 0.06625 0.0
H1316 H 0.16948 0.78683 0.09791 0.0
H1317 H 0.17508 0.75704 0.048 0.0
H1318 H 0.18851 0.75597 0.18931 0.0
H1319 H 0.25993 0.7109 0.09211 0.0
H1320 H 0.20587 0.73207 0.20635 0.0
H1321 H 0.28203 0.72287 0.11514 0.0
O1322 O 0.17586 0.73401 0.12987 0.0
H1323 H 0.17503 0.6923 0.05267 0.0
H1324 H 0.14566 0.74574 0.08227 0.0
H1325 H 0.1263 0.72175 0.06818 0.0
H1326 H 0.14098 0.69481 0.0532 0.0
H1327 H 0.19386 0.71651 0.06711 0.0
H1328 H 0.15802 0.78114 0.03135 0.0
H1329 H 0.14633 0.80835 0.04833 0.0
O1330 O 0.16787 0.75348 0.10745 0.0
C1331 C 0.20788 0.77143 0.1152 0.0
C1332 C 0.15718 0.79932 0.0743 0.0
C1333 C 0.16045 0.78248 0.04596 0.0
N1334 N 0.17309 0.77043 0.07394 0.0
C1335 C 0.16692 0.78548 0.08334 0.0
C1336 C 0.17014 0.76891 0.05545 0.0
C1337 C 0.1539 0.79775 0.0555 0.0
C1338 C 0.23615 0.71935 0.10764 0.0
N1339 N 0.22957 0.72778 0.12316 0.0
C1340 C 0.255 0.71743 0.10454 0.0
C1341 C 0.26739 0.72416 0.11742 0.0
C1342 C 0.26079 0.73265 0.13321 0.0
C1343 C 0.24185 0.73432 0.13585 0.0
C1344 C 0.21492 0.71835 0.18177 0.0
C1345 C 0.19557 0.74489 0.16274 0.0
C1346 C 0.21435 0.7184 0.16256 0.0
N1347 N 0.2048 0.73152 0.15325 0.0
C1348 C 0.19583 0.74533 0.18193 0.0
C1349 C 0.20554 0.7319 0.19148 0.0
C1350 C 0.16464 0.74531 0.12258 0.0
C1351 C 0.16847 0.70398 0.05914 0.0
C1352 C 0.15215 0.734 0.07589 0.0
C1353 C 0.14112 0.72049 0.06787 0.0
C1354 C 0.14937 0.70539 0.05946 0.0
N1355 N 0.17088 0.73252 0.07552 0.0
C1356 C 0.17906 0.71775 0.06729 0.0
Co1357 Co 0.78918 0.27058 0.1228 0.0
Co1358 Co 0.81489 0.25642 0.08617 0.0
O1359 O 0.79636 0.27277 0.09704 0.0
C1360 C 0.79173 0.31177 0.11763 0.0
O1361 O 0.80677 0.31068 0.10772 0.0
C1362 C 0.78401 0.25183 0.0606 0.0
O1363 O 0.77406 0.24651 0.07466 0.0
O1364 O 0.80109 0.23424 0.09417 0.0
O1365 O 0.7927 0.24346 0.12222 0.0
H1366 H 0.85787 0.20233 0.08426 0.0
H1367 H 0.76503 0.28917 0.09599 0.0
O1368 O 0.78434 0.29752 0.12444 0.0
H1369 H 0.72671 0.24057 0.12352 0.0
H1370 H 0.75224 0.28505 0.17974 0.0
H1371 H 0.80374 0.24917 0.15422 0.0
H1372 H 0.75884 0.24481 0.13333 0.0
H1373 H 0.76039 0.28762 0.14694 0.0
O1374 O 0.80068 0.25677 0.06268 0.0
H1375 H 0.8352 0.22318 0.09843 0.0
H1376 H 0.83298 0.25486 0.04947 0.0
H1377 H 0.79581 0.24593 0.18694 0.0
H1378 H 0.73289 0.28563 0.08596 0.0
H1379 H 0.76991 0.26398 0.19994 0.0
H1380 H 0.71348 0.26116 0.09972 0.0
O1381 O 0.8153 0.27392 0.13027 0.0
H1382 H 0.82275 0.31831 0.05653 0.0
H1383 H 0.85406 0.26791 0.0892 0.0
H1384 H 0.87187 0.29505 0.07948 0.0
H1385 H 0.85622 0.32044 0.06292 0.0
H1386 H 0.80541 0.29102 0.06676 0.0
H1387 H 0.85553 0.23427 0.03473 0.0
H1388 H 0.86817 0.20782 0.05218 0.0
O1389 O 0.82913 0.25546 0.10971 0.0
C1390 C 0.79467 0.23101 0.11009 0.0
C1391 C 0.85251 0.21385 0.07654 0.0
C1392 C 0.85118 0.23176 0.04873 0.0
N1393 N 0.8329 0.24033 0.07485 0.0
C1394 C 0.83971 0.22574 0.08451 0.0
C1395 C 0.83839 0.24336 0.05714 0.0
C1396 C 0.85827 0.21693 0.05853 0.0
C1397 C 0.75667 0.27854 0.10211 0.0
N1398 N 0.76384 0.2672 0.11524 0.0
C1399 C 0.73848 0.27657 0.09634 0.0
C1400 C 0.72761 0.26283 0.10406 0.0
C1401 C 0.73503 0.25127 0.11739 0.0
C1402 C 0.75328 0.25366 0.12283 0.0
C1403 C 0.76354 0.2771 0.17422 0.0
C1404 C 0.79237 0.257 0.15969 0.0
C1405 C 0.76827 0.27855 0.15566 0.0
N1406 N 0.78249 0.26849 0.14859 0.0
C1407 C 0.78798 0.25514 0.17827 0.0
C1408 C 0.77346 0.26527 0.18555 0.0
C1409 C 0.82882 0.26404 0.125 0.0
C1410 C 0.82973 0.30732 0.06371 0.0
C1411 C 0.84711 0.27899 0.08217 0.0
C1412 C 0.85729 0.29428 0.07662 0.0
C1413 C 0.8485 0.30852 0.06732 0.0
N1414 N 0.82871 0.27789 0.07852 0.0
C1415 C 0.81999 0.29182 0.06948 0.0
Co1416 Co 0.62425 0.76481 0.71542 0.0
Co1417 Co 0.5871 0.75427 0.68797 0.0
O1418 O 0.59871 0.7692 0.70746 0.0
C1419 C 0.61942 0.80644 0.7175 0.0
O1420 O 0.60675 0.80683 0.7047 0.0
C1421 C 0.55723 0.76316 0.71553 0.0
O1422 O 0.56812 0.77439 0.72436 0.0
O1423 O 0.59271 0.7316 0.702 0.0
O1424 O 0.62157 0.73769 0.71112 0.0
H1425 H 0.58422 0.70152 0.64337 0.0
H1426 H 0.5964 0.78208 0.7394 0.0
O1427 O 0.62763 0.79155 0.72161 0.0
H1428 H 0.6247 0.73403 0.77757 0.0
H1429 H 0.68193 0.77513 0.75271 0.0
H1430 H 0.65416 0.74122 0.70111 0.0
H1431 H 0.63534 0.73936 0.74588 0.0
H1432 H 0.6494 0.77986 0.74462 0.0
O1433 O 0.56252 0.75505 0.7009 0.0
H1434 H 0.59846 0.72104 0.66713 0.0
H1435 H 0.55112 0.75514 0.66831 0.0
H1436 H 0.68663 0.7359 0.70888 0.0
H1437 H 0.58485 0.77695 0.77083 0.0
H1438 H 0.70077 0.75294 0.73487 0.0
H1439 H 0.59912 0.75275 0.79021 0.0
O1440 O 0.63256 0.7686 0.68959 0.0
H1441 H 0.56425 0.8192 0.6782 0.0
H1442 H 0.59193 0.7648 0.64891 0.0
H1443 H 0.58532 0.79216 0.63022 0.0
H1444 H 0.57123 0.81961 0.64481 0.0
H1445 H 0.57133 0.79176 0.69637 0.0
H1446 H 0.53629 0.7359 0.64467 0.0
H1447 H 0.55289 0.7089 0.63199 0.0
O1448 O 0.61119 0.75203 0.6747 0.0
C1449 C 0.60807 0.72673 0.70877 0.0
C1450 C 0.57684 0.71325 0.64878 0.0
C1451 C 0.54994 0.73253 0.64952 0.0
N1452 N 0.57566 0.73922 0.66911 0.0
C1453 C 0.58486 0.72437 0.66223 0.0
C1454 C 0.55838 0.74333 0.66296 0.0
C1455 C 0.55927 0.71739 0.64241 0.0
C1456 C 0.6023 0.77126 0.74757 0.0
N1457 N 0.61617 0.76081 0.74059 0.0
C1458 C 0.59588 0.76855 0.76545 0.0
C1459 C 0.60393 0.75503 0.77633 0.0
C1460 C 0.6183 0.74455 0.76925 0.0
C1461 C 0.62428 0.74768 0.75127 0.0
C1462 C 0.67593 0.76763 0.74135 0.0
C1463 C 0.66012 0.74863 0.71247 0.0
C1464 C 0.65752 0.77033 0.73661 0.0
N1465 N 0.64978 0.7608 0.72237 0.0
C1466 C 0.67857 0.74559 0.71679 0.0
C1467 C 0.68649 0.75516 0.73135 0.0
C1468 C 0.62692 0.75972 0.67555 0.0
C1469 C 0.57025 0.80727 0.67165 0.0
C1470 C 0.58586 0.77666 0.65546 0.0
C1471 C 0.58211 0.79213 0.64475 0.0
C1472 C 0.57421 0.80751 0.65293 0.0
N1473 N 0.58173 0.77638 0.67381 0.0
C1474 C 0.57417 0.79153 0.68192 0.0
Co1475 Co 0.23297 0.61828 0.70747 0.0
Co1476 Co 0.24376 0.58578 0.67604 0.0
O1477 O 0.22971 0.59336 0.69806 0.0
C1478 C 0.19209 0.61088 0.71688 0.0
O1479 O 0.19016 0.5954 0.70781 0.0
C1480 C 0.24955 0.55591 0.70248 0.0
O1481 O 0.25304 0.56863 0.71478 0.0
O1482 O 0.26748 0.59177 0.68869 0.0
O1483 O 0.25873 0.61926 0.69849 0.0
H1484 H 0.29275 0.5919 0.62774 0.0
H1485 H 0.21974 0.58934 0.73282 0.0
O1486 O 0.20738 0.6194 0.71716 0.0
H1487 H 0.27585 0.61395 0.76173 0.0
H1488 H 0.22857 0.67058 0.753 0.0
H1489 H 0.24988 0.65179 0.6916 0.0
H1490 H 0.2648 0.62641 0.73229 0.0
H1491 H 0.22374 0.63878 0.74213 0.0
O1492 O 0.24527 0.56038 0.68613 0.0
H1493 H 0.27429 0.60189 0.65437 0.0
H1494 H 0.24348 0.55237 0.65227 0.0
H1495 H 0.2545 0.68365 0.70173 0.0
H1496 H 0.23009 0.57671 0.76249 0.0
H1497 H 0.24384 0.69325 0.7327 0.0
H1498 H 0.25838 0.58898 0.77712 0.0
O1499 O 0.22411 0.62743 0.68363 0.0
H1500 H 0.18093 0.55745 0.67178 0.0
H1501 H 0.22795 0.59358 0.639 0.0
H1502 H 0.19877 0.58618 0.62346 0.0
H1503 H 0.17502 0.56795 0.63985 0.0
H1504 H 0.2103 0.56523 0.68685 0.0
H1505 H 0.26174 0.54175 0.62575 0.0
H1506 H 0.28656 0.5616 0.61329 0.0
O1507 O 0.24256 0.61135 0.6651 0.0
C1508 C 0.27114 0.60739 0.69557 0.0
C1509 C 0.28194 0.58315 0.63302 0.0
C1510 C 0.26455 0.55499 0.63191 0.0
N1511 N 0.25773 0.57779 0.65478 0.0
C1512 C 0.2714 0.58876 0.64805 0.0
C1513 C 0.25428 0.56106 0.64695 0.0
C1514 C 0.27847 0.56614 0.62492 0.0
C1515 C 0.23192 0.59491 0.7392 0.0
N1516 N 0.24159 0.60864 0.73082 0.0
C1517 C 0.23778 0.58763 0.75596 0.0
C1518 C 0.25368 0.59449 0.76414 0.0
C1519 C 0.2635 0.60848 0.7555 0.0
C1520 C 0.25722 0.61541 0.73876 0.0
C1521 C 0.23301 0.66658 0.7394 0.0
C1522 C 0.24486 0.65584 0.70494 0.0
C1523 C 0.23031 0.64861 0.73314 0.0
N1524 N 0.23623 0.64342 0.71608 0.0
C1525 C 0.24763 0.67394 0.71066 0.0
C1526 C 0.24166 0.6793 0.72802 0.0
C1527 C 0.23233 0.62528 0.66832 0.0
C1528 C 0.19117 0.56538 0.66449 0.0
C1529 C 0.21765 0.58572 0.64627 0.0
C1530 C 0.20117 0.58153 0.63737 0.0
C1531 C 0.18786 0.57129 0.64658 0.0
N1532 N 0.22083 0.57981 0.66382 0.0
C1533 C 0.20783 0.5698 0.67294 0.0
Co1534 Co 0.3795 0.22947 0.70909 0.0
Co1535 Co 0.4148 0.24366 0.6804 0.0
O1536 O 0.40377 0.22621 0.69801 0.0
C1537 C 0.37827 0.18663 0.7036 0.0
O1538 O 0.39564 0.18263 0.7008 0.0
C1539 C 0.43883 0.24583 0.7124 0.0
O1540 O 0.42373 0.24536 0.72217 0.0
O1541 O 0.40631 0.26604 0.69444 0.0
O1542 O 0.38427 0.25561 0.713 0.0
H1543 H 0.41555 0.29823 0.63812 0.0
H1544 H 0.40746 0.20305 0.72395 0.0
O1545 O 0.3729 0.20314 0.70584 0.0
H1546 H 0.38919 0.24141 0.77657 0.0
H1547 H 0.32551 0.21231 0.74906 0.0
H1548 H 0.35027 0.25768 0.7053 0.0
H1549 H 0.3756 0.24657 0.74608 0.0
H1550 H 0.35662 0.20861 0.73619 0.0
O1551 O 0.4381 0.24422 0.695 0.0
H1552 H 0.40184 0.27678 0.66049 0.0
H1553 H 0.45166 0.24646 0.66274 0.0
H1554 H 0.31913 0.26199 0.71791 0.0
H1555 H 0.421 0.19706 0.75425 0.0
H1556 H 0.30653 0.23917 0.73995 0.0
H1557 H 0.41197 0.21638 0.7809 0.0
O1558 O 0.3686 0.23507 0.68455 0.0
H1559 H 0.4451 0.18209 0.6726 0.0
H1560 H 0.41287 0.23261 0.64101 0.0
H1561 H 0.42289 0.20554 0.62324 0.0
H1562 H 0.43916 0.18005 0.63904 0.0
H1563 H 0.43469 0.20938 0.68988 0.0
H1564 H 0.46595 0.26765 0.64045 0.0
H1565 H 0.44783 0.29372 0.62795 0.0
O1566 O 0.39168 0.24392 0.66583 0.0
C1567 C 0.39418 0.26849 0.70685 0.0
C1568 C 0.42357 0.28689 0.64343 0.0
C1569 C 0.45187 0.26974 0.64476 0.0
N1570 N 0.42591 0.26032 0.66281 0.0
C1571 C 0.41587 0.27468 0.65606 0.0
C1572 C 0.44372 0.25782 0.6574 0.0
C1573 C 0.44169 0.28436 0.63774 0.0
C1574 C 0.40285 0.21104 0.73548 0.0
N1575 N 0.39004 0.22457 0.73323 0.0
C1576 C 0.41084 0.20779 0.75262 0.0
C1577 C 0.40584 0.21868 0.76755 0.0
C1578 C 0.39306 0.23272 0.76513 0.0
C1579 C 0.38537 0.23554 0.74779 0.0
C1580 C 0.33082 0.22233 0.73944 0.0
C1581 C 0.3449 0.24769 0.71485 0.0
C1582 C 0.34841 0.22026 0.73203 0.0
N1583 N 0.35525 0.23285 0.71987 0.0
C1584 C 0.32725 0.25021 0.72197 0.0
C1585 C 0.32019 0.2374 0.73433 0.0
C1586 C 0.37481 0.24064 0.6691 0.0
C1587 C 0.43805 0.19313 0.66556 0.0
C1588 C 0.41988 0.22154 0.648 0.0
C1589 C 0.42556 0.20627 0.63785 0.0
C1590 C 0.4347 0.19198 0.64673 0.0
N1591 N 0.42325 0.22258 0.66646 0.0
C1592 C 0.43219 0.20863 0.67526 0.0
Co1593 Co 0.76922 0.37786 0.71031 0.0
Co1594 Co 0.75488 0.41429 0.68336 0.0
O1595 O 0.77166 0.40301 0.70123 0.0
C1596 C 0.81024 0.38506 0.7071 0.0
O1597 O 0.80786 0.40194 0.70132 0.0
C1598 C 0.75469 0.43846 0.71532 0.0
O1599 O 0.75357 0.42354 0.72531 0.0
O1600 O 0.73286 0.40649 0.69772 0.0
O1601 O 0.74207 0.38026 0.71108 0.0
H1602 H 0.70064 0.4164 0.64064 0.0
H1603 H 0.79214 0.40557 0.7311 0.0
O1604 O 0.7966 0.37443 0.71 0.0
H1605 H 0.74737 0.3817 0.77579 0.0
H1606 H 0.78793 0.32233 0.74727 0.0
H1607 H 0.74248 0.34753 0.70385 0.0
H1608 H 0.74733 0.37045 0.74392 0.0
H1609 H 0.79058 0.35423 0.73631 0.0
O1610 O 0.75526 0.43757 0.69787 0.0
H1611 H 0.72138 0.40225 0.66342 0.0
H1612 H 0.75315 0.45115 0.66569 0.0
H1613 H 0.73922 0.31567 0.71469 0.0
H1614 H 0.79297 0.41675 0.76283 0.0
H1615 H 0.7621 0.30282 0.73648 0.0
H1616 H 0.77039 0.40493 0.78552 0.0
O1617 O 0.76773 0.36846 0.68471 0.0
H1618 H 0.81656 0.44426 0.67496 0.0
H1619 H 0.76609 0.41131 0.644 0.0
H1620 H 0.79326 0.42077 0.6261 0.0
H1621 H 0.81873 0.43741 0.64158 0.0
H1622 H 0.78926 0.4343 0.69239 0.0
H1623 H 0.73266 0.46589 0.64308 0.0
H1624 H 0.70624 0.44843 0.63031 0.0
O1625 O 0.75376 0.39101 0.66878 0.0
C1626 C 0.72983 0.39198 0.70699 0.0
C1627 C 0.71213 0.42412 0.64606 0.0
C1628 C 0.73009 0.45191 0.64745 0.0
N1629 N 0.73854 0.42581 0.66575 0.0
C1630 C 0.72395 0.41617 0.65892 0.0
C1631 C 0.74162 0.44351 0.66028 0.0
C1632 C 0.71528 0.4421 0.64028 0.0
C1633 C 0.78269 0.39978 0.74083 0.0
N1634 N 0.77013 0.38684 0.73556 0.0
C1635 C 0.78304 0.40643 0.75884 0.0
C1636 C 0.77032 0.39985 0.77154 0.0
C1637 C 0.75741 0.38683 0.76609 0.0
C1638 C 0.75749 0.38049 0.74797 0.0
C1639 C 0.77796 0.32774 0.73766 0.0
C1640 C 0.75255 0.34209 0.71329 0.0
C1641 C 0.77945 0.34578 0.73128 0.0
N1642 N 0.76688 0.35273 0.71915 0.0
C1643 C 0.75061 0.32401 0.71939 0.0
C1644 C 0.76344 0.3168 0.73162 0.0
C1645 C 0.75973 0.3746 0.67033 0.0
C1646 C 0.80556 0.43701 0.66806 0.0
C1647 C 0.7772 0.41835 0.65089 0.0
C1648 C 0.79251 0.42378 0.64065 0.0
C1649 C 0.80678 0.43314 0.64934 0.0
N1650 N 0.77614 0.42211 0.66927 0.0
C1651 C 0.79003 0.43138 0.67785 0.0
Co1652 Co 0.62101 0.23383 0.2891 0.0
Co1653 Co 0.5828 0.24425 0.31436 0.0
O1654 O 0.5955 0.22885 0.29601 0.0
C1655 C 0.61767 0.19193 0.2864 0.0
O1656 O 0.60127 0.19101 0.29385 0.0
C1657 C 0.55805 0.24271 0.28274 0.0
O1658 O 0.57268 0.2449 0.27249 0.0
O1659 O 0.58847 0.26686 0.30016 0.0
O1660 O 0.6176 0.26074 0.29249 0.0
H1661 H 0.57614 0.29805 0.35717 0.0
H1662 H 0.59719 0.21234 0.26362 0.0
O1663 O 0.62607 0.20723 0.28493 0.0
H1664 H 0.61989 0.26446 0.22697 0.0
H1665 H 0.67904 0.22728 0.25166 0.0
H1666 H 0.65041 0.25676 0.30554 0.0
H1667 H 0.62856 0.26139 0.25956 0.0
H1668 H 0.64635 0.22207 0.25881 0.0
O1669 O 0.5594 0.24189 0.30016 0.0
H1670 H 0.59198 0.27852 0.33446 0.0
H1671 H 0.54604 0.24259 0.33243 0.0
H1672 H 0.68306 0.26262 0.29876 0.0
H1673 H 0.58828 0.21491 0.23114 0.0
H1674 H 0.69764 0.24774 0.27169 0.0
H1675 H 0.59959 0.24119 0.21256 0.0
O1676 O 0.62828 0.23101 0.3152 0.0
H1677 H 0.55969 0.17968 0.3223 0.0
H1678 H 0.58661 0.23336 0.3537 0.0
H1679 H 0.5798 0.20535 0.37148 0.0
H1680 H 0.56619 0.17827 0.35579 0.0
H1681 H 0.56689 0.20794 0.305 0.0
H1682 H 0.5296 0.26183 0.35502 0.0
H1683 H 0.54471 0.28974 0.36761 0.0
O1684 O 0.60609 0.24749 0.3289 0.0
C1685 C 0.60399 0.27158 0.29376 0.0
C1686 C 0.56943 0.2859 0.35183 0.0
C1687 C 0.54331 0.26558 0.3506 0.0
N1688 N 0.57001 0.25936 0.33223 0.0
C1689 C 0.57836 0.27476 0.339 0.0
C1690 C 0.55266 0.25476 0.33779 0.0
C1691 C 0.55179 0.28123 0.35766 0.0
C1692 C 0.60246 0.22364 0.25564 0.0
N1693 N 0.61363 0.23652 0.26353 0.0
C1694 C 0.5972 0.22512 0.23725 0.0
C1695 C 0.60349 0.2399 0.22685 0.0
C1696 C 0.61481 0.25303 0.23497 0.0
C1697 C 0.61965 0.25119 0.25345 0.0
C1698 C 0.67289 0.23374 0.26357 0.0
C1699 C 0.65663 0.25019 0.29377 0.0
C1700 C 0.65442 0.23068 0.26779 0.0
N1701 N 0.64653 0.23875 0.28281 0.0
C1702 C 0.67514 0.25359 0.28998 0.0
C1703 C 0.68331 0.24524 0.2748 0.0
C1704 C 0.62191 0.23991 0.32885 0.0
C1705 C 0.56561 0.1914 0.3293 0.0
C1706 C 0.58082 0.22159 0.34673 0.0
C1707 C 0.57693 0.20579 0.3569 0.0
C1708 C 0.56927 0.19061 0.34808 0.0
N1709 N 0.57717 0.22226 0.32832 0.0
C1710 C 0.56967 0.20744 0.31958 0.0
Co1711 Co 0.76216 0.62203 0.28458 0.0
Co1712 Co 0.75688 0.58768 0.31622 0.0
O1713 O 0.76931 0.59815 0.29483 0.0
C1714 C 0.80392 0.62112 0.28058 0.0
O1715 O 0.80686 0.61346 0.29663 0.0
C1716 C 0.75428 0.55854 0.28869 0.0
O1717 O 0.74843 0.57134 0.27745 0.0
O1718 O 0.73256 0.59078 0.30403 0.0
O1719 O 0.73604 0.6189 0.29222 0.0
H1720 H 0.70807 0.58564 0.365 0.0
H1721 H 0.78055 0.59357 0.26184 0.0
O1722 O 0.78786 0.62579 0.27556 0.0
H1723 H 0.7238 0.60927 0.22837 0.0
H1724 H 0.76588 0.67324 0.23811 0.0
H1725 H 0.73613 0.65213 0.29518 0.0
H1726 H 0.73126 0.62454 0.25767 0.0
H1727 H 0.7736 0.64313 0.25123 0.0
O1728 O 0.75873 0.56267 0.30509 0.0
H1729 H 0.72489 0.59892 0.33875 0.0
H1730 H 0.76161 0.55357 0.33853 0.0
H1731 H 0.72736 0.68197 0.28181 0.0
H1732 H 0.77376 0.57816 0.23246 0.0
H1733 H 0.74252 0.69288 0.25338 0.0
H1734 H 0.74517 0.58594 0.21552 0.0
O1735 O 0.76724 0.63388 0.30883 0.0
H1736 H 0.82282 0.56738 0.3193 0.0
H1737 H 0.77172 0.59578 0.35355 0.0
H1738 H 0.80158 0.5913 0.36891 0.0
H1739 H 0.82737 0.57689 0.35178 0.0
H1740 H 0.79272 0.57233 0.30443 0.0
H1741 H 0.74506 0.53968 0.36467 0.0
H1742 H 0.7181 0.55577 0.3781 0.0
O1743 O 0.75485 0.61263 0.3277 0.0
C1744 C 0.72618 0.60518 0.29654 0.0
C1745 C 0.71983 0.57852 0.35931 0.0
C1746 C 0.74057 0.55272 0.3591 0.0
N1747 N 0.7443 0.5771 0.33721 0.0
C1748 C 0.72945 0.58601 0.34449 0.0
C1749 C 0.74987 0.56062 0.34428 0.0
C1750 C 0.72545 0.56176 0.36664 0.0
C1751 C 0.76825 0.59729 0.2544 0.0
N1752 N 0.7565 0.61018 0.26134 0.0
C1753 C 0.76441 0.5884 0.23783 0.0
C1754 C 0.74835 0.59275 0.22836 0.0
C1755 C 0.73636 0.60583 0.23556 0.0
C1756 C 0.74067 0.61444 0.25217 0.0
C1757 C 0.75935 0.66874 0.25069 0.0
C1758 C 0.74278 0.65665 0.28272 0.0
C1759 C 0.76383 0.65173 0.25836 0.0
N1760 N 0.75569 0.6459 0.27429 0.0
C1761 C 0.73778 0.67364 0.27528 0.0
C1762 C 0.74624 0.67974 0.25924 0.0
C1763 C 0.76071 0.62888 0.32445 0.0
C1764 C 0.81169 0.57367 0.32691 0.0
C1765 C 0.78294 0.58974 0.34594 0.0
C1766 C 0.79979 0.58713 0.35474 0.0
C1767 C 0.81424 0.57903 0.34513 0.0
N1768 N 0.78051 0.58438 0.3281 0.0
C1769 C 0.79462 0.57648 0.31857 0.0
Co1770 Co 0.38076 0.76517 0.28585 0.0
Co1771 Co 0.41388 0.75388 0.3169 0.0
O1772 O 0.40475 0.76908 0.29683 0.0
C1773 C 0.3694 0.80451 0.2845 0.0
O1774 O 0.35646 0.80094 0.29658 0.0
C1775 C 0.44544 0.76272 0.29157 0.0
O1776 O 0.43486 0.77389 0.28229 0.0
O1777 O 0.40931 0.73155 0.30178 0.0
O1778 O 0.38113 0.7383 0.29166 0.0
H1779 H 0.41096 0.70068 0.36077 0.0
H1780 H 0.40836 0.78402 0.26204 0.0
O1781 O 0.38053 0.79196 0.2796 0.0
H1782 H 0.39045 0.72812 0.22822 0.0
H1783 H 0.33021 0.77816 0.24026 0.0
H1784 H 0.34846 0.74078 0.29361 0.0
H1785 H 0.37628 0.73543 0.25802 0.0
H1786 H 0.36102 0.78155 0.25376 0.0
O1787 O 0.43955 0.75447 0.30595 0.0
H1788 H 0.39973 0.72071 0.33584 0.0
H1789 H 0.4479 0.75344 0.33971 0.0
H1790 H 0.31773 0.73677 0.28033 0.0
H1791 H 0.42275 0.77732 0.23214 0.0
H1792 H 0.30825 0.75568 0.25357 0.0
H1793 H 0.4139 0.74913 0.21504 0.0
O1794 O 0.36996 0.76996 0.31032 0.0
H1795 H 0.43572 0.81874 0.32891 0.0
H1796 H 0.4064 0.76394 0.35572 0.0
H1797 H 0.41163 0.79116 0.3751 0.0
H1798 H 0.42652 0.81881 0.36177 0.0
H1799 H 0.43007 0.79143 0.31005 0.0
H1800 H 0.45979 0.73359 0.3645 0.0
H1801 H 0.4412 0.70707 0.37526 0.0
O1802 O 0.38822 0.75245 0.32798 0.0
C1803 C 0.39416 0.727 0.29439 0.0
C1804 C 0.41916 0.71222 0.35624 0.0
C1805 C 0.44658 0.73068 0.35831 0.0
N1806 N 0.42308 0.7383 0.33645 0.0
C1807 C 0.41284 0.72365 0.34217 0.0
C1808 C 0.43982 0.74183 0.34423 0.0
C1809 C 0.43614 0.71581 0.36435 0.0
C1810 C 0.40448 0.77169 0.25477 0.0
N1811 N 0.39182 0.75993 0.26208 0.0
C1812 C 0.41265 0.76798 0.23779 0.0
C1813 C 0.40768 0.75217 0.2282 0.0
C1814 C 0.39455 0.74038 0.23559 0.0
C1815 C 0.38666 0.74454 0.25258 0.0
C1816 C 0.33406 0.77004 0.2521 0.0
C1817 C 0.34457 0.7492 0.28206 0.0
C1818 C 0.35145 0.77206 0.25998 0.0
N1819 N 0.35641 0.762 0.27506 0.0
C1820 C 0.32707 0.74679 0.27454 0.0
C1821 C 0.32177 0.75739 0.25953 0.0
C1822 C 0.37302 0.76093 0.32507 0.0
C1823 C 0.4294 0.80671 0.33494 0.0
C1824 C 0.41295 0.77585 0.34976 0.0
C1825 C 0.41585 0.79126 0.36084 0.0
C1826 C 0.4242 0.80676 0.35336 0.0
N1827 N 0.41838 0.77574 0.33175 0.0
C1828 C 0.42629 0.79104 0.32429 0.0
Co1829 Co 0.23469 0.38076 0.28592 0.0
Co1830 Co 0.24391 0.41533 0.31697 0.0
O1831 O 0.22877 0.40407 0.29764 0.0
C1832 C 0.19317 0.37714 0.29395 0.0
O1833 O 0.18984 0.39425 0.29858 0.0
C1834 C 0.24714 0.43945 0.28476 0.0
O1835 O 0.24734 0.42441 0.27488 0.0
O1836 O 0.2677 0.4068 0.30575 0.0
O1837 O 0.26026 0.38865 0.28204 0.0
H1838 H 0.293 0.41703 0.36555 0.0
H1839 H 0.20512 0.4059 0.27155 0.0
O1840 O 0.20918 0.37164 0.2895 0.0
H1841 H 0.24518 0.3927 0.21867 0.0
H1842 H 0.22181 0.32493 0.24697 0.0
H1843 H 0.26657 0.35532 0.28777 0.0
H1844 H 0.25186 0.37927 0.24896 0.0
H1845 H 0.21522 0.35549 0.25998 0.0
O1846 O 0.24566 0.43857 0.30221 0.0
H1847 H 0.27441 0.40282 0.34103 0.0
H1848 H 0.2446 0.45251 0.3341 0.0
H1849 H 0.27383 0.32489 0.27484 0.0
H1850 H 0.19779 0.41933 0.24153 0.0
H1851 H 0.25132 0.30942 0.25435 0.0
H1852 H 0.21792 0.41284 0.21474 0.0
O1853 O 0.24159 0.3699 0.31011 0.0
H1854 H 0.1818 0.44557 0.31749 0.0
H1855 H 0.22846 0.41368 0.35485 0.0
H1856 H 0.19966 0.42408 0.36943 0.0
H1857 H 0.17613 0.44022 0.35072 0.0
H1858 H 0.21073 0.4348 0.30344 0.0
H1859 H 0.26301 0.46732 0.35841 0.0
H1860 H 0.28736 0.44952 0.37438 0.0
O1861 O 0.24278 0.39218 0.33157 0.0
C1862 C 0.27195 0.39728 0.29166 0.0
C1863 C 0.2824 0.42492 0.35874 0.0
C1864 C 0.26558 0.45315 0.35471 0.0
N1865 N 0.25835 0.42679 0.33623 0.0
C1866 C 0.27178 0.41693 0.34488 0.0
C1867 C 0.25523 0.4447 0.34092 0.0
C1868 C 0.27923 0.44315 0.36367 0.0
C1869 C 0.21362 0.40244 0.25999 0.0
N1870 N 0.22847 0.39112 0.26203 0.0
C1871 C 0.20955 0.41034 0.24299 0.0
C1872 C 0.22088 0.40675 0.22798 0.0
C1873 C 0.23616 0.39545 0.23018 0.0
C1874 C 0.23981 0.38782 0.24739 0.0
C1875 C 0.23174 0.33153 0.25587 0.0
C1876 C 0.25677 0.34879 0.27874 0.0
C1877 C 0.22806 0.34882 0.26334 0.0
N1878 N 0.2405 0.35724 0.27465 0.0
C1879 C 0.26094 0.33151 0.27149 0.0
C1880 C 0.2483 0.32284 0.26001 0.0
C1881 C 0.24369 0.37538 0.32666 0.0
C1882 C 0.19198 0.4386 0.3258 0.0
C1883 C 0.21824 0.42061 0.3466 0.0
C1884 C 0.20199 0.42651 0.35494 0.0
C1885 C 0.18879 0.43557 0.34444 0.0
N1886 N 0.2213 0.42372 0.32833 0.0
C1887 C 0.20841 0.43253 0.31793 0.0
Co1888 Co 0.70839 0.62443 0.7668 0.0
Co1889 Co 0.68744 0.58388 0.75677 0.0
O1890 O 0.70427 0.5983 0.77222 0.0
C1891 C 0.71656 0.62088 0.80795 0.0
O1892 O 0.70977 0.60423 0.80911 0.0
C1893 C 0.72015 0.56033 0.75748 0.0
O1894 O 0.72986 0.57485 0.75326 0.0
O1895 O 0.70202 0.59053 0.73432 0.0
O1896 O 0.70331 0.62046 0.74026 0.0
H1897 H 0.64862 0.5719 0.70089 0.0
H1898 H 0.73623 0.599 0.78307 0.0
O1899 O 0.71469 0.63021 0.79324 0.0
H1900 H 0.76846 0.63041 0.73254 0.0
H1901 H 0.7393 0.6863 0.77257 0.0
H1902 H 0.68908 0.65166 0.74318 0.0
H1903 H 0.73636 0.63797 0.73969 0.0
H1904 H 0.73511 0.65339 0.77908 0.0
O1905 O 0.70292 0.56156 0.75999 0.0
H1906 H 0.66924 0.58998 0.72081 0.0
H1907 H 0.67124 0.5463 0.75939 0.0
H1908 H 0.69292 0.68448 0.73618 0.0
H1909 H 0.76834 0.59105 0.77639 0.0
H1910 H 0.71821 0.70207 0.75087 0.0
H1911 H 0.78478 0.60682 0.751 0.0
O1912 O 0.68153 0.62905 0.77055 0.0
H1913 H 0.67965 0.56192 0.82176 0.0
H1914 H 0.6476 0.58465 0.76657 0.0
H1915 H 0.62968 0.57714 0.79434 0.0
H1916 H 0.64571 0.56564 0.82219 0.0
H1917 H 0.69706 0.56974 0.7937 0.0
H1918 H 0.65084 0.52764 0.7398 0.0
H1919 H 0.63928 0.54047 0.71037 0.0
O1920 O 0.67138 0.60581 0.75297 0.0
C1921 C 0.70557 0.60695 0.72943 0.0
C1922 C 0.65343 0.56621 0.71376 0.0
C1923 C 0.6547 0.54136 0.73558 0.0
N1924 N 0.67109 0.5694 0.74144 0.0
C1925 C 0.66501 0.57645 0.72515 0.0
C1926 C 0.66624 0.55201 0.74662 0.0
C1927 C 0.64822 0.54857 0.71907 0.0
C1928 C 0.74317 0.60605 0.77203 0.0
N1929 N 0.7343 0.61926 0.76205 0.0
C1930 C 0.76144 0.60145 0.76832 0.0
C1931 C 0.77064 0.61028 0.75407 0.0
C1932 C 0.7615 0.62352 0.74373 0.0
C1933 C 0.74326 0.62778 0.74789 0.0
C1934 C 0.72822 0.67879 0.7661 0.0
C1935 C 0.7001 0.65914 0.74971 0.0
C1936 C 0.72569 0.66014 0.76982 0.0
N1937 N 0.71183 0.65047 0.76156 0.0
C1938 C 0.70221 0.67777 0.74566 0.0
C1939 C 0.71639 0.68763 0.75391 0.0
C1940 C 0.6693 0.62169 0.76018 0.0
C1941 C 0.67251 0.5669 0.80971 0.0
C1942 C 0.65469 0.57976 0.77867 0.0
C1943 C 0.64446 0.57547 0.79433 0.0
C1944 C 0.65347 0.569 0.80994 0.0
N1945 N 0.67336 0.57761 0.77854 0.0
C1946 C 0.68229 0.57131 0.79379 0.0
Co1947 Co 0.37505 0.7133 0.76364 0.0
Co1948 Co 0.41269 0.6858 0.75301 0.0
O1949 O 0.39965 0.70354 0.769 0.0
C1950 C 0.37586 0.70782 0.80505 0.0
O1951 O 0.39084 0.6978 0.80477 0.0
C1952 C 0.43678 0.7179 0.75431 0.0
O1953 O 0.42171 0.72765 0.75292 0.0
O1954 O 0.40703 0.70016 0.73035 0.0
O1955 O 0.3814 0.71572 0.73739 0.0
H1956 H 0.41975 0.64372 0.69869 0.0
H1957 H 0.40025 0.73124 0.79076 0.0
O1958 O 0.36772 0.71234 0.79021 0.0
H1959 H 0.38178 0.78039 0.7481 0.0
H1960 H 0.31699 0.74985 0.7748 0.0
H1961 H 0.34899 0.70734 0.73289 0.0
H1962 H 0.37045 0.74882 0.74376 0.0
H1963 H 0.34834 0.73936 0.78159 0.0
O1964 O 0.43592 0.70044 0.75531 0.0
H1965 H 0.40365 0.666 0.71854 0.0
H1966 H 0.44976 0.66839 0.75424 0.0
H1967 H 0.31766 0.71763 0.72538 0.0
H1968 H 0.41164 0.76262 0.79573 0.0
H1969 H 0.30136 0.73898 0.74645 0.0
H1970 H 0.40243 0.78752 0.77433 0.0
O1971 O 0.36561 0.68797 0.75955 0.0
H1972 H 0.43725 0.67743 0.81698 0.0
H1973 H 0.40936 0.64635 0.76361 0.0
H1974 H 0.41704 0.62833 0.79125 0.0
H1975 H 0.43118 0.64387 0.81816 0.0
H1976 H 0.4291 0.69496 0.78914 0.0
H1977 H 0.46646 0.6463 0.73465 0.0
H1978 H 0.45139 0.63374 0.70671 0.0
O1979 O 0.38966 0.67107 0.74981 0.0
C1980 C 0.39398 0.71104 0.72632 0.0
C1981 C 0.42644 0.64905 0.71087 0.0
C1982 C 0.45266 0.65051 0.73104 0.0
N1983 N 0.42569 0.66835 0.73762 0.0
C1984 C 0.41736 0.66161 0.72219 0.0
C1985 C 0.44316 0.66304 0.74205 0.0
C1986 C 0.4442 0.64346 0.71536 0.0
C1987 C 0.3958 0.74197 0.78159 0.0
N1988 N 0.38416 0.73818 0.76733 0.0
C1989 C 0.40247 0.75974 0.78438 0.0
C1990 C 0.39734 0.77369 0.77235 0.0
C1991 C 0.38574 0.7697 0.75765 0.0
C1992 C 0.37933 0.75178 0.7553 0.0
C1993 C 0.32389 0.74046 0.76555 0.0
C1994 C 0.34206 0.71663 0.74217 0.0
C1995 C 0.34166 0.73435 0.76944 0.0
N1996 N 0.35053 0.72248 0.75789 0.0
C1997 C 0.32428 0.72242 0.73782 0.0
C1998 C 0.31514 0.73438 0.74964 0.0
C1999 C 0.37255 0.67319 0.75307 0.0
C2000 C 0.43111 0.6705 0.80534 0.0
C2001 C 0.4153 0.65325 0.77534 0.0
C2002 C 0.41972 0.64295 0.79092 0.0
C2003 C 0.42767 0.65167 0.806 0.0
N2004 N 0.41872 0.6717 0.7748 0.0
C2005 C 0.42652 0.68035 0.78952 0.0
Co2006 Co 0.29241 0.3756 0.76647 0.0
Co2007 Co 0.31777 0.41342 0.75399 0.0
O2008 O 0.29983 0.40113 0.77021 0.0
C2009 C 0.29071 0.37979 0.80854 0.0
O2010 O 0.29734 0.39656 0.80908 0.0
C2011 C 0.28531 0.43634 0.75098 0.0
O2012 O 0.27645 0.42073 0.74962 0.0
O2013 O 0.30443 0.40576 0.731 0.0
O2014 O 0.29462 0.37818 0.7397 0.0
H2015 H 0.36193 0.41805 0.70107 0.0
H2016 H 0.26845 0.40078 0.78842 0.0
O2017 O 0.28943 0.3711 0.79338 0.0
H2018 H 0.22951 0.37897 0.73755 0.0
H2019 H 0.25215 0.31971 0.7743 0.0
H2020 H 0.30658 0.34525 0.74309 0.0
H2021 H 0.26148 0.36837 0.74037 0.0
H2022 H 0.26216 0.35151 0.7804 0.0
O2023 O 0.3025 0.43632 0.75426 0.0
H2024 H 0.33898 0.40278 0.72081 0.0
H2025 H 0.33452 0.45076 0.75375 0.0
H2026 H 0.29655 0.3137 0.73598 0.0
H2027 H 0.23641 0.41121 0.78647 0.0
H2028 H 0.26928 0.30067 0.75177 0.0
H2029 H 0.21667 0.40043 0.7608 0.0
O2030 O 0.31856 0.36771 0.76776 0.0
H2031 H 0.32311 0.44089 0.81715 0.0
H2032 H 0.35686 0.41161 0.76618 0.0
H2033 H 0.37356 0.42054 0.79427 0.0
H2034 H 0.35667 0.43532 0.82001 0.0
H2035 H 0.3069 0.43157 0.78884 0.0
H2036 H 0.35734 0.4666 0.73428 0.0
H2037 H 0.37127 0.45018 0.70778 0.0
O2038 O 0.33307 0.39055 0.7528 0.0
C2039 C 0.29725 0.39023 0.72745 0.0
C2040 C 0.35599 0.42533 0.7126 0.0
C2041 C 0.3534 0.45259 0.73123 0.0
N2042 N 0.33554 0.42583 0.73848 0.0
C2043 C 0.34302 0.41674 0.72385 0.0
C2044 C 0.34046 0.44357 0.74217 0.0
C2045 C 0.36121 0.44337 0.71637 0.0
C2046 C 0.25992 0.39554 0.77753 0.0
N2047 N 0.26689 0.38361 0.76479 0.0
C2048 C 0.24178 0.40171 0.77635 0.0
C2049 C 0.23074 0.39571 0.76192 0.0
C2050 C 0.23793 0.3837 0.74887 0.0
C2051 C 0.25612 0.3778 0.7505 0.0
C2052 C 0.2642 0.32518 0.7675 0.0
C2053 C 0.29475 0.33967 0.75014 0.0
C2054 C 0.27007 0.3431 0.77108 0.0
N2055 N 0.28515 0.35018 0.7624 0.0
C2056 C 0.28914 0.32179 0.74603 0.0
C2057 C 0.27379 0.3145 0.75484 0.0
C2058 C 0.33257 0.37428 0.75939 0.0
C2059 C 0.33063 0.43449 0.80602 0.0
C2060 C 0.34938 0.41795 0.77735 0.0
C2061 C 0.35894 0.42303 0.7932 0.0
C2062 C 0.34945 0.43134 0.80763 0.0
N2063 N 0.33091 0.42108 0.77588 0.0
C2064 C 0.32153 0.42924 0.78994 0.0
Co2065 Co 0.62292 0.28491 0.76366 0.0
Co2066 Co 0.5892 0.31596 0.75529 0.0
O2067 O 0.59839 0.29473 0.76887 0.0
C2068 C 0.62119 0.28306 0.80512 0.0
O2069 O 0.61787 0.3007 0.80691 0.0
C2070 C 0.55855 0.28977 0.75281 0.0
O2071 O 0.57072 0.27711 0.7487 0.0
O2072 O 0.59296 0.30225 0.732 0.0
O2073 O 0.62173 0.29268 0.73724 0.0
H2074 H 0.59006 0.36188 0.70379 0.0
H2075 H 0.59374 0.2612 0.77951 0.0
O2076 O 0.62427 0.27596 0.78948 0.0
H2077 H 0.61532 0.22858 0.72416 0.0
H2078 H 0.67488 0.23969 0.77136 0.0
H2079 H 0.6554 0.29755 0.74233 0.0
H2080 H 0.62886 0.25834 0.73297 0.0
H2081 H 0.64344 0.25143 0.77587 0.0
O2082 O 0.56372 0.30601 0.75668 0.0
H2083 H 0.60193 0.33607 0.72226 0.0
H2084 H 0.55614 0.34007 0.75825 0.0
H2085 H 0.68685 0.28628 0.73724 0.0
H2086 H 0.58001 0.2313 0.77137 0.0
H2087 H 0.69685 0.25712 0.7519 0.0
H2088 H 0.59077 0.21481 0.74347 0.0
O2089 O 0.63378 0.30927 0.77003 0.0
H2090 H 0.56773 0.32252 0.82057 0.0
H2091 H 0.59856 0.35356 0.76882 0.0
H2092 H 0.59432 0.37013 0.79809 0.0
H2093 H 0.57875 0.35462 0.8242 0.0
H2094 H 0.57237 0.30641 0.79106 0.0
H2095 H 0.54369 0.36581 0.74008 0.0
H2096 H 0.56071 0.3769 0.71265 0.0
O2097 O 0.61447 0.32664 0.75341 0.0
C2098 C 0.60803 0.29522 0.72663 0.0
C2099 C 0.58254 0.35721 0.71574 0.0
C2100 C 0.5565 0.3594 0.7361 0.0
N2101 N 0.5798 0.33666 0.74138 0.0
C2102 C 0.58923 0.34264 0.72628 0.0
C2103 C 0.5636 0.3448 0.74631 0.0
C2104 C 0.56607 0.36562 0.72071 0.0
C2105 C 0.59867 0.25398 0.76751 0.0
N2106 N 0.6122 0.26144 0.75685 0.0
C2107 C 0.59077 0.23711 0.7629 0.0
C2108 C 0.59679 0.22788 0.74722 0.0
C2109 C 0.61056 0.23559 0.73639 0.0
C2110 C 0.61815 0.25247 0.74144 0.0
C2111 C 0.67071 0.25243 0.76493 0.0
C2112 C 0.65956 0.2849 0.74869 0.0
C2113 C 0.65292 0.25921 0.7675 0.0
N2114 N 0.64753 0.27529 0.75942 0.0
C2115 C 0.67743 0.27855 0.74578 0.0
C2116 C 0.68302 0.26221 0.754 0.0
C2117 C 0.62969 0.3242 0.76174 0.0
C2118 C 0.57449 0.32944 0.80927 0.0
C2119 C 0.59183 0.34669 0.78014 0.0
C2120 C 0.58944 0.35616 0.79667 0.0
C2121 C 0.58069 0.34745 0.81131 0.0
N2122 N 0.58562 0.32906 0.77823 0.0
C2123 C 0.57711 0.32041 0.79254 0.0
Co2124 Co 0.70659 0.37488 0.225 0.0
Co2125 Co 0.68626 0.41104 0.24792 0.0
O2126 O 0.70084 0.40127 0.22743 0.0
C2127 C 0.71214 0.38965 0.18732 0.0
O2128 O 0.71226 0.4066 0.1934 0.0
C2129 C 0.71259 0.4428 0.23877 0.0
O2130 O 0.7158 0.43823 0.22167 0.0
O2131 O 0.70431 0.40014 0.26548 0.0
O2132 O 0.70892 0.3725 0.25234 0.0
H2133 H 0.65453 0.40754 0.30933 0.0
H2134 H 0.73077 0.40889 0.22091 0.0
O2135 O 0.70541 0.37683 0.19725 0.0
H2136 H 0.77432 0.35893 0.2325 0.0
H2137 H 0.72838 0.3171 0.1928 0.0
H2138 H 0.6961 0.34208 0.24688 0.0
H2139 H 0.74176 0.35255 0.23158 0.0
H2140 H 0.72502 0.35041 0.19673 0.0
O2141 O 0.70127 0.43404 0.24881 0.0
H2142 H 0.67319 0.39584 0.2836 0.0
H2143 H 0.67005 0.44756 0.25693 0.0
H2144 H 0.69969 0.30868 0.24364 0.0
H2145 H 0.7632 0.41581 0.2228 0.0
H2146 H 0.71593 0.29592 0.21647 0.0
H2147 H 0.78561 0.39079 0.22844 0.0
O2148 O 0.67966 0.36907 0.22652 0.0
H2149 H 0.66506 0.44096 0.18873 0.0
H2150 H 0.64547 0.41269 0.24699 0.0
H2151 H 0.62214 0.42459 0.22564 0.0
H2152 H 0.63186 0.43908 0.19633 0.0
H2153 H 0.68773 0.42859 0.21019 0.0
H2154 H 0.65163 0.45999 0.28254 0.0
H2155 H 0.64352 0.43984 0.30887 0.0
O2156 O 0.67163 0.38825 0.24913 0.0
C2157 C 0.71068 0.38378 0.26572 0.0
C2158 C 0.65783 0.41641 0.29786 0.0
C2159 C 0.65624 0.44586 0.28286 0.0
N2160 N 0.67234 0.42081 0.26856 0.0
C2161 C 0.6683 0.4098 0.28319 0.0
C2162 C 0.66673 0.43876 0.26843 0.0
C2163 C 0.65169 0.43455 0.29762 0.0
C2164 C 0.73983 0.39761 0.22295 0.0
N2165 N 0.73342 0.37998 0.22461 0.0
C2166 C 0.75853 0.40175 0.22415 0.0
C2167 C 0.77109 0.38776 0.22731 0.0
C2168 C 0.76477 0.36991 0.22942 0.0
C2169 C 0.74594 0.36631 0.22824 0.0
C2170 C 0.72129 0.3225 0.20472 0.0
C2171 C 0.70346 0.33679 0.23513 0.0
C2172 C 0.71911 0.34143 0.20694 0.0
N2173 N 0.71055 0.34845 0.2222 0.0
C2174 C 0.70531 0.31778 0.2333 0.0
C2175 C 0.71435 0.31062 0.21802 0.0
C2176 C 0.66937 0.37351 0.24005 0.0
C2177 C 0.66065 0.43513 0.20168 0.0
C2178 C 0.64994 0.41931 0.23447 0.0
C2179 C 0.63659 0.4259 0.22235 0.0
C2180 C 0.64203 0.43399 0.2059 0.0
N2181 N 0.66829 0.42109 0.23062 0.0
C2182 C 0.67359 0.42841 0.21417 0.0
Co2183 Co 0.62485 0.70516 0.2353 0.0
Co2184 Co 0.5854 0.68267 0.24671 0.0
O2185 O 0.59886 0.69965 0.23057 0.0
C2186 C 0.62028 0.7086 0.19363 0.0
O2187 O 0.6033 0.70252 0.19359 0.0
C2188 C 0.562 0.71513 0.24509 0.0
O2189 O 0.57725 0.7246 0.24639 0.0
O2190 O 0.59184 0.69804 0.26828 0.0
O2191 O 0.62172 0.70169 0.26243 0.0
H2192 H 0.57748 0.64334 0.30286 0.0
H2193 H 0.60207 0.73237 0.21444 0.0
O2194 O 0.6296 0.70914 0.20847 0.0
H2195 H 0.62674 0.76647 0.26745 0.0
H2196 H 0.68441 0.73959 0.22681 0.0
H2197 H 0.65378 0.68847 0.25885 0.0
H2198 H 0.63449 0.73388 0.26296 0.0
H2199 H 0.65151 0.73327 0.22169 0.0
O2200 O 0.56253 0.69768 0.24404 0.0
H2201 H 0.59404 0.66429 0.282 0.0
H2202 H 0.54797 0.66595 0.24621 0.0
H2203 H 0.68659 0.69442 0.26463 0.0
H2204 H 0.59452 0.76506 0.21808 0.0
H2205 H 0.70217 0.72012 0.24848 0.0
H2206 H 0.60672 0.78236 0.24485 0.0
O2207 O 0.63061 0.67864 0.23261 0.0
H2208 H 0.56149 0.67279 0.18275 0.0
H2209 H 0.58737 0.64269 0.23765 0.0
H2210 H 0.57965 0.62399 0.21045 0.0
H2211 H 0.56656 0.63904 0.18276 0.0
H2212 H 0.56958 0.69099 0.21023 0.0
H2213 H 0.53083 0.64515 0.26678 0.0
H2214 H 0.54563 0.63363 0.29529 0.0
O2215 O 0.60808 0.66731 0.25038 0.0
C2216 C 0.60786 0.70304 0.27298 0.0
C2217 C 0.5709 0.64821 0.29044 0.0
C2218 C 0.54471 0.64924 0.2702 0.0
N2219 N 0.57204 0.66619 0.26282 0.0
C2220 C 0.58023 0.66003 0.27855 0.0
C2221 C 0.55447 0.66104 0.25863 0.0
C2222 C 0.55303 0.64278 0.28619 0.0
C2223 C 0.60791 0.73981 0.22582 0.0
N2224 N 0.61894 0.73112 0.23829 0.0
C2225 C 0.60338 0.75834 0.22794 0.0
C2226 C 0.61018 0.76802 0.24299 0.0
C2227 C 0.62139 0.75911 0.25568 0.0
C2228 C 0.62566 0.74059 0.25309 0.0
C2229 C 0.67781 0.72826 0.23383 0.0
C2230 C 0.66043 0.69959 0.25171 0.0
C2231 C 0.65921 0.72452 0.23085 0.0
N2232 N 0.65074 0.71027 0.2397 0.0
C2233 C 0.67903 0.70294 0.25507 0.0
C2234 C 0.68776 0.71736 0.24601 0.0
C2235 C 0.62362 0.66586 0.24236 0.0
C2236 C 0.56717 0.66607 0.19474 0.0
C2237 C 0.5818 0.64936 0.22561 0.0
C2238 C 0.57739 0.63869 0.21027 0.0
C2239 C 0.57003 0.64714 0.19475 0.0
N2240 N 0.57894 0.66792 0.22548 0.0
C2241 C 0.57173 0.6763 0.21033 0.0
Co2242 Co 0.29116 0.62339 0.23057 0.0
Co2243 Co 0.31625 0.58605 0.244 0.0
O2244 O 0.29865 0.59784 0.22727 0.0
C2245 C 0.28887 0.61777 0.18848 0.0
O2246 O 0.29553 0.601 0.18834 0.0
C2247 C 0.28461 0.56141 0.24462 0.0
O2248 O 0.27465 0.57596 0.24827 0.0
O2249 O 0.30144 0.59326 0.26602 0.0
O2250 O 0.29356 0.62164 0.25767 0.0
H2251 H 0.35703 0.58186 0.2996 0.0
H2252 H 0.26735 0.59696 0.21001 0.0
O2253 O 0.28792 0.62698 0.20341 0.0
H2254 H 0.22819 0.62138 0.25953 0.0
H2255 H 0.25158 0.67949 0.22046 0.0
H2256 H 0.30573 0.65461 0.25243 0.0
H2257 H 0.2601 0.63194 0.25613 0.0
H2258 H 0.26038 0.64698 0.21676 0.0
O2259 O 0.30189 0.56272 0.24234 0.0
H2260 H 0.33527 0.59692 0.27843 0.0
H2261 H 0.33397 0.54915 0.2449 0.0
H2262 H 0.29731 0.68702 0.25695 0.0
H2263 H 0.23537 0.58647 0.21253 0.0
H2264 H 0.27006 0.69974 0.24079 0.0
H2265 H 0.21551 0.59859 0.2375 0.0
O2266 O 0.31738 0.63116 0.22889 0.0
H2267 H 0.32593 0.55924 0.18107 0.0
H2268 H 0.35594 0.58889 0.23412 0.0
H2269 H 0.37452 0.58031 0.20709 0.0
H2270 H 0.35951 0.56532 0.18034 0.0
H2271 H 0.30783 0.5682 0.20834 0.0
H2272 H 0.35561 0.53353 0.26579 0.0
H2273 H 0.36734 0.54993 0.29333 0.0
O2274 O 0.33074 0.60935 0.24627 0.0
C2275 C 0.29486 0.60904 0.26966 0.0
C2276 C 0.35206 0.57459 0.28761 0.0
C2277 C 0.35125 0.54745 0.26865 0.0
N2278 N 0.33348 0.57398 0.26037 0.0
C2279 C 0.33978 0.58307 0.27554 0.0
C2280 C 0.33897 0.55636 0.25689 0.0
C2281 C 0.35783 0.55667 0.2841 0.0
C2282 C 0.25878 0.60271 0.22061 0.0
N2283 N 0.26567 0.61536 0.23268 0.0
C2284 C 0.24067 0.59653 0.22211 0.0
C2285 C 0.22956 0.60328 0.23616 0.0
C2286 C 0.23667 0.61604 0.24853 0.0
C2287 C 0.25483 0.6219 0.2466 0.0
C2288 C 0.26361 0.67417 0.22741 0.0
C2289 C 0.29402 0.66001 0.24523 0.0
C2290 C 0.2688 0.65583 0.22515 0.0
N2291 N 0.28394 0.64897 0.23388 0.0
C2292 C 0.28923 0.6784 0.2479 0.0
C2293 C 0.27395 0.68552 0.23885 0.0
C2294 C 0.3308 0.62502 0.23841 0.0
C2295 C 0.33262 0.56574 0.19266 0.0
C2296 C 0.34928 0.58248 0.22248 0.0
C2297 C 0.35989 0.5776 0.20724 0.0
C2298 C 0.35147 0.56917 0.19224 0.0
N2299 N 0.33082 0.57903 0.2228 0.0
C2300 C 0.32246 0.5708 0.20814 0.0
Co2301 Co 0.37264 0.29219 0.23669 0.0
Co2302 Co 0.41384 0.31246 0.24501 0.0
O2303 O 0.39843 0.29634 0.22981 0.0
C2304 C 0.37382 0.29097 0.19504 0.0
O2305 O 0.38837 0.30156 0.19406 0.0
C2306 C 0.43677 0.2796 0.23994 0.0
O2307 O 0.42187 0.26967 0.24178 0.0
O2308 O 0.40875 0.29666 0.26666 0.0
O2309 O 0.37826 0.29527 0.26345 0.0
H2310 H 0.42871 0.34903 0.30167 0.0
H2311 H 0.39218 0.26444 0.21376 0.0
O2312 O 0.36577 0.28813 0.21034 0.0
H2313 H 0.37005 0.23045 0.26797 0.0
H2314 H 0.31047 0.26175 0.23277 0.0
H2315 H 0.34696 0.31023 0.26289 0.0
H2316 H 0.36387 0.26357 0.26482 0.0
H2317 H 0.34305 0.26616 0.22482 0.0
O2318 O 0.43589 0.29704 0.23979 0.0
H2319 H 0.40952 0.32939 0.28181 0.0
H2320 H 0.45146 0.32841 0.24123 0.0
H2321 H 0.31446 0.30618 0.27139 0.0
H2322 H 0.39812 0.23126 0.21607 0.0
H2323 H 0.29594 0.28181 0.25628 0.0
H2324 H 0.38716 0.21401 0.2434 0.0
O2325 O 0.36804 0.31904 0.23469 0.0
H2326 H 0.43269 0.32365 0.17956 0.0
H2327 H 0.4123 0.35273 0.23729 0.0
H2328 H 0.41841 0.37205 0.21015 0.0
H2329 H 0.42875 0.35752 0.18103 0.0
H2330 H 0.42618 0.30482 0.20701 0.0
H2331 H 0.47122 0.34786 0.26074 0.0
H2332 H 0.45982 0.3584 0.29116 0.0
O2333 O 0.3922 0.32845 0.25125 0.0
C2334 C 0.39285 0.29289 0.27279 0.0
C2335 C 0.43379 0.34463 0.2884 0.0
C2336 C 0.45766 0.34395 0.26544 0.0
N2337 N 0.42923 0.32801 0.26026 0.0
C2338 C 0.42294 0.33358 0.27706 0.0
C2339 C 0.44641 0.33293 0.25446 0.0
C2340 C 0.45125 0.34985 0.2825 0.0
C2341 C 0.38699 0.25703 0.22551 0.0
N2342 N 0.37747 0.26599 0.239 0.0
C2343 C 0.39056 0.23823 0.22682 0.0
C2344 C 0.38444 0.22858 0.24217 0.0
C2345 C 0.37486 0.2378 0.25596 0.0
C2346 C 0.37146 0.25659 0.25413 0.0
C2347 C 0.31837 0.27245 0.23942 0.0
C2348 C 0.33905 0.29959 0.25621 0.0
C2349 C 0.33684 0.27509 0.23488 0.0
N2350 N 0.34697 0.28852 0.24325 0.0
C2351 C 0.32062 0.29737 0.26111 0.0
C2352 C 0.31024 0.2837 0.25262 0.0
C2353 C 0.376 0.33086 0.24493 0.0
C2354 C 0.4282 0.33015 0.19217 0.0
C2355 C 0.41663 0.34628 0.22463 0.0
C2356 C 0.42015 0.35731 0.20932 0.0
C2357 C 0.42597 0.34915 0.193 0.0
N2358 N 0.41885 0.32765 0.2237 0.0
C2359 C 0.42456 0.31956 0.20776 0.0
Co2360 Co 0.76781 0.71108 0.62226 0.0
Co2361 Co 0.75394 0.68325 0.58603 0.0
O2362 O 0.77019 0.70199 0.59693 0.0
C2363 C 0.80889 0.70937 0.61459 0.0
O2364 O 0.80649 0.70345 0.59774 0.0
C2365 C 0.75855 0.71293 0.55767 0.0
O2366 O 0.76978 0.72213 0.56826 0.0
O2367 O 0.7317 0.69711 0.59409 0.0
O2368 O 0.74055 0.71061 0.62037 0.0
H2369 H 0.701 0.63892 0.58647 0.0
H2370 H 0.79056 0.7337 0.59581 0.0
O2371 O 0.79526 0.712 0.6253 0.0
H2372 H 0.74213 0.77512 0.61839 0.0
H2373 H 0.78622 0.74861 0.67754 0.0
H2374 H 0.74179 0.70373 0.65307 0.0
H2375 H 0.74372 0.74323 0.62932 0.0
H2376 H 0.78846 0.73801 0.64548 0.0
O2377 O 0.7523 0.69727 0.56233 0.0
H2378 H 0.72146 0.66263 0.59946 0.0
H2379 H 0.75174 0.66459 0.54958 0.0
H2380 H 0.73896 0.71413 0.68512 0.0
H2381 H 0.78978 0.76553 0.585 0.0
H2382 H 0.76134 0.73667 0.69762 0.0
H2383 H 0.76532 0.78656 0.59613 0.0
O2384 O 0.76775 0.68549 0.63171 0.0
H2385 H 0.81588 0.67567 0.55572 0.0
H2386 H 0.76572 0.6442 0.58857 0.0
H2387 H 0.79292 0.62657 0.5789 0.0
H2388 H 0.81825 0.64228 0.56228 0.0
H2389 H 0.78861 0.69281 0.56589 0.0
H2390 H 0.73151 0.64101 0.53599 0.0
H2391 H 0.70599 0.62794 0.55452 0.0
O2392 O 0.75414 0.66889 0.60947 0.0
C2393 C 0.72841 0.70627 0.60862 0.0
C2394 C 0.71211 0.64446 0.57828 0.0
C2395 C 0.72921 0.64566 0.54994 0.0
N2396 N 0.73787 0.66485 0.57535 0.0
C2397 C 0.72376 0.65785 0.58558 0.0
C2398 C 0.74059 0.65904 0.55769 0.0
C2399 C 0.7149 0.63832 0.56035 0.0
C2400 C 0.78014 0.74265 0.60114 0.0
N2401 N 0.76735 0.73638 0.61338 0.0
C2402 C 0.77964 0.76074 0.59478 0.0
C2403 C 0.7659 0.77252 0.60098 0.0
C2404 C 0.75288 0.76611 0.61345 0.0
C2405 C 0.75384 0.74794 0.61953 0.0
C2406 C 0.77647 0.73868 0.67229 0.0
C2407 C 0.75165 0.71346 0.65835 0.0
C2408 C 0.77775 0.73249 0.65416 0.0
N2409 N 0.76553 0.71988 0.64743 0.0
C2410 C 0.74994 0.71935 0.67654 0.0
C2411 C 0.76249 0.73199 0.68355 0.0
C2412 C 0.76048 0.67069 0.62569 0.0
C2413 C 0.80491 0.66865 0.56292 0.0
C2414 C 0.77672 0.65123 0.58151 0.0
C2415 C 0.79207 0.64112 0.57597 0.0
C2416 C 0.80626 0.64993 0.56663 0.0
N2417 N 0.77547 0.66962 0.57784 0.0
C2418 C 0.78934 0.67831 0.56866 0.0
Co2419 Co 0.7669 0.28463 0.37784 0.0
Co2420 Co 0.75236 0.31484 0.411 0.0
O2421 O 0.76849 0.29493 0.40246 0.0
C2422 C 0.80819 0.29064 0.37746 0.0
O2423 O 0.80686 0.30863 0.37775 0.0
C2424 C 0.74911 0.28515 0.43756 0.0
O2425 O 0.74738 0.27437 0.42323 0.0
O2426 O 0.73018 0.30087 0.40343 0.0
O2427 O 0.73951 0.28732 0.37732 0.0
H2428 H 0.69998 0.35963 0.40674 0.0
H2429 H 0.78586 0.26346 0.40703 0.0
O2430 O 0.79392 0.28059 0.37787 0.0
H2431 H 0.7382 0.22185 0.38275 0.0
H2432 H 0.78529 0.24245 0.32602 0.0
H2433 H 0.74695 0.29534 0.34406 0.0
H2434 H 0.74175 0.25311 0.37023 0.0
H2435 H 0.78519 0.25354 0.35802 0.0
O2436 O 0.75105 0.30243 0.43552 0.0
H2437 H 0.72056 0.33512 0.39553 0.0
H2438 H 0.74971 0.33575 0.44608 0.0
H2439 H 0.74643 0.28454 0.31194 0.0
H2440 H 0.78291 0.23223 0.41982 0.0
H2441 H 0.76577 0.25796 0.30272 0.0
H2442 H 0.7589 0.2112 0.40771 0.0
O2443 O 0.77002 0.3095 0.36769 0.0
H2444 H 0.81391 0.3223 0.44141 0.0
H2445 H 0.76524 0.35343 0.40604 0.0
H2446 H 0.79292 0.37074 0.41515 0.0
H2447 H 0.81748 0.35517 0.43301 0.0
H2448 H 0.78604 0.30547 0.43192 0.0
H2449 H 0.72932 0.36012 0.45793 0.0
H2450 H 0.70429 0.37228 0.43816 0.0
O2451 O 0.75318 0.32746 0.38633 0.0
C2452 C 0.7271 0.29172 0.38888 0.0
C2453 C 0.71088 0.3545 0.41546 0.0
C2454 C 0.72733 0.35476 0.4442 0.0
N2455 N 0.73643 0.33417 0.42007 0.0
C2456 C 0.72261 0.34068 0.40916 0.0
C2457 C 0.73881 0.34094 0.43743 0.0
C2458 C 0.7133 0.36158 0.4331 0.0
C2459 C 0.77545 0.25435 0.40162 0.0
N2460 N 0.76393 0.26014 0.38796 0.0
C2461 C 0.77381 0.2367 0.40895 0.0
C2462 C 0.76033 0.22492 0.40216 0.0
C2463 C 0.7487 0.23089 0.38817 0.0
C2464 C 0.75073 0.24863 0.38118 0.0
C2465 C 0.77677 0.25401 0.32988 0.0
C2466 C 0.75523 0.28362 0.34021 0.0
C2467 C 0.7767 0.26039 0.34798 0.0
N2468 N 0.76599 0.27501 0.35296 0.0
C2469 C 0.75494 0.27762 0.32198 0.0
C2470 C 0.76581 0.26272 0.31681 0.0
C2471 C 0.76198 0.32461 0.37139 0.0
C2472 C 0.80329 0.32924 0.43367 0.0
C2473 C 0.7759 0.34654 0.41375 0.0
C2474 C 0.79152 0.35643 0.4189 0.0
C2475 C 0.80529 0.34769 0.42893 0.0
N2476 N 0.774 0.32847 0.41851 0.0
C2477 C 0.78746 0.3198 0.4283 0.0
Co2478 Co 0.70898 0.77079 0.37739 0.0
Co2479 Co 0.68148 0.75606 0.41191 0.0
O2480 O 0.70055 0.77259 0.40275 0.0
C2481 C 0.70566 0.81229 0.37764 0.0
O2482 O 0.68762 0.81212 0.3784 0.0
C2483 C 0.7101 0.75363 0.44033 0.0
O2484 O 0.72199 0.75053 0.42711 0.0
O2485 O 0.69673 0.73427 0.40478 0.0
O2486 O 0.70421 0.7439 0.37663 0.0
H2487 H 0.63936 0.70139 0.40931 0.0
H2488 H 0.73299 0.78776 0.40565 0.0
O2489 O 0.71477 0.79742 0.37757 0.0
H2490 H 0.76939 0.73699 0.37938 0.0
H2491 H 0.75061 0.78599 0.32412 0.0
H2492 H 0.69597 0.75126 0.34392 0.0
H2493 H 0.73826 0.74357 0.36787 0.0
H2494 H 0.73996 0.78754 0.35622 0.0
O2495 O 0.69326 0.75638 0.43658 0.0
H2496 H 0.66304 0.72263 0.39758 0.0
H2497 H 0.66002 0.75397 0.44674 0.0
H2498 H 0.70631 0.749 0.3118 0.0
H2499 H 0.76425 0.78188 0.41734 0.0
H2500 H 0.73384 0.76648 0.30167 0.0
H2501 H 0.78264 0.75626 0.40426 0.0
O2502 O 0.68343 0.7752 0.36862 0.0
H2503 H 0.6712 0.81856 0.4394 0.0
H2504 H 0.64229 0.76693 0.40635 0.0
H2505 H 0.6238 0.79429 0.41399 0.0
H2506 H 0.63825 0.82034 0.43066 0.0
H2507 H 0.68922 0.79097 0.43139 0.0
H2508 H 0.63643 0.733 0.45906 0.0
H2509 H 0.62589 0.70653 0.44026 0.0
O2510 O 0.66919 0.75536 0.38739 0.0
C2511 C 0.70325 0.73135 0.38877 0.0
C2512 C 0.64381 0.71291 0.41761 0.0
C2513 C 0.64218 0.73063 0.44555 0.0
N2514 N 0.66282 0.73959 0.42141 0.0
C2515 C 0.65718 0.725 0.41102 0.0
C2516 C 0.65558 0.74243 0.43852 0.0
C2517 C 0.63626 0.71579 0.43499 0.0
C2518 C 0.74096 0.77669 0.39978 0.0
N2519 N 0.73374 0.76597 0.38614 0.0
C2520 C 0.75863 0.77338 0.40649 0.0
C2521 C 0.76894 0.759 0.39917 0.0
C2522 C 0.76151 0.74816 0.38523 0.0
C2523 C 0.74381 0.75189 0.37884 0.0
C2524 C 0.73858 0.77833 0.32835 0.0
C2525 C 0.70793 0.75889 0.33968 0.0
C2526 C 0.73241 0.77925 0.3465 0.0
N2527 N 0.71728 0.76954 0.352 0.0
C2528 C 0.71374 0.75757 0.32144 0.0
C2529 C 0.72918 0.76737 0.31576 0.0
C2530 C 0.66978 0.76499 0.37278 0.0
C2531 C 0.66473 0.80727 0.43218 0.0
C2532 C 0.64869 0.77822 0.41358 0.0
C2533 C 0.63814 0.79367 0.4179 0.0
C2534 C 0.64625 0.80827 0.42726 0.0
N2535 N 0.66679 0.77732 0.41851 0.0
C2536 C 0.67485 0.7916 0.42766 0.0
Co2537 Co 0.23215 0.7071 0.38383 0.0
Co2538 Co 0.25103 0.67783 0.41563 0.0
O2539 O 0.23361 0.69648 0.40798 0.0
C2540 C 0.18738 0.70642 0.38757 0.0
O2541 O 0.17985 0.70167 0.40326 0.0
C2542 C 0.25741 0.70864 0.44063 0.0
O2543 O 0.26108 0.71868 0.42613 0.0
O2544 O 0.27268 0.69117 0.40439 0.0
O2545 O 0.25912 0.70689 0.38151 0.0
H2546 H 0.30283 0.63261 0.40884 0.0
H2547 H 0.21217 0.72522 0.41457 0.0
O2548 O 0.20482 0.7067 0.38609 0.0
H2549 H 0.25677 0.77121 0.3925 0.0
H2550 H 0.21079 0.75428 0.33765 0.0
H2551 H 0.24915 0.69961 0.34766 0.0
H2552 H 0.25495 0.74069 0.37797 0.0
H2553 H 0.21171 0.7392 0.36798 0.0
O2554 O 0.25394 0.69157 0.43915 0.0
H2555 H 0.28121 0.65648 0.39823 0.0
H2556 H 0.25736 0.6593 0.45144 0.0
H2557 H 0.2484 0.71382 0.31698 0.0
H2558 H 0.21335 0.7557 0.42932 0.0
H2559 H 0.22909 0.74148 0.31181 0.0
H2560 H 0.23577 0.77895 0.41828 0.0
O2561 O 0.2317 0.68202 0.37231 0.0
H2562 H 0.19201 0.67168 0.45115 0.0
H2563 H 0.23846 0.63889 0.41426 0.0
H2564 H 0.21166 0.62194 0.42625 0.0
H2565 H 0.18821 0.63836 0.44485 0.0
H2566 H 0.21891 0.6881 0.43878 0.0
H2567 H 0.27881 0.6356 0.46266 0.0
H2568 H 0.3017 0.62202 0.44127 0.0
O2569 O 0.24788 0.66433 0.39204 0.0
C2570 C 0.27334 0.70091 0.38978 0.0
C2571 C 0.2929 0.6384 0.41828 0.0
C2572 C 0.27944 0.64009 0.4485 0.0
N2573 N 0.26801 0.65921 0.42419 0.0
C2574 C 0.28061 0.65189 0.41234 0.0
C2575 C 0.26738 0.65355 0.44208 0.0
C2576 C 0.29227 0.63247 0.43648 0.0
C2577 C 0.2218 0.73533 0.40954 0.0
N2578 N 0.23327 0.73123 0.39524 0.0
C2579 C 0.22249 0.75253 0.41802 0.0
C2580 C 0.2351 0.76556 0.41185 0.0
C2581 C 0.2469 0.76122 0.39739 0.0
C2582 C 0.24584 0.74387 0.38926 0.0
C2583 C 0.21926 0.74223 0.33971 0.0
C2584 C 0.24061 0.71139 0.34546 0.0
C2585 C 0.21985 0.73363 0.35687 0.0
N2586 N 0.23043 0.71834 0.35959 0.0
C2587 C 0.24028 0.7195 0.32808 0.0
C2588 C 0.2295 0.73503 0.32521 0.0
C2589 C 0.23983 0.66697 0.37666 0.0
C2590 C 0.20218 0.66435 0.44314 0.0
C2591 C 0.22834 0.64612 0.42237 0.0
C2592 C 0.21319 0.63645 0.42914 0.0
C2593 C 0.20004 0.64566 0.43958 0.0
N2594 N 0.23038 0.66444 0.42597 0.0
C2595 C 0.21751 0.67356 0.43618 0.0
Co2596 Co 0.29188 0.23118 0.37711 0.0
Co2597 Co 0.3166 0.2449 0.41461 0.0
O2598 O 0.29842 0.22883 0.403 0.0
C2599 C 0.28881 0.19039 0.38596 0.0
O2600 O 0.29333 0.19262 0.40327 0.0
C2601 C 0.28473 0.24759 0.43873 0.0
O2602 O 0.27526 0.25195 0.42404 0.0
O2603 O 0.30272 0.26706 0.40664 0.0
O2604 O 0.29492 0.25848 0.37809 0.0
H2605 H 0.35926 0.29909 0.41824 0.0
H2606 H 0.26614 0.21322 0.40402 0.0
O2607 O 0.28843 0.20392 0.37483 0.0
H2608 H 0.23005 0.26204 0.37428 0.0
H2609 H 0.25639 0.21561 0.31968 0.0
H2610 H 0.30606 0.25341 0.34592 0.0
H2611 H 0.26237 0.257 0.36566 0.0
H2612 H 0.26425 0.21326 0.35253 0.0
O2613 O 0.30184 0.24414 0.43772 0.0
H2614 H 0.33685 0.27847 0.40337 0.0
H2615 H 0.33402 0.24583 0.45165 0.0
H2616 H 0.29845 0.25647 0.3131 0.0
H2617 H 0.23387 0.21754 0.41273 0.0
H2618 H 0.27345 0.23744 0.29974 0.0
H2619 H 0.21551 0.24215 0.39789 0.0
O2620 O 0.31815 0.22834 0.37021 0.0
H2621 H 0.32393 0.1824 0.44309 0.0
H2622 H 0.35584 0.23341 0.41197 0.0
H2623 H 0.37334 0.20584 0.42094 0.0
H2624 H 0.35738 0.18009 0.43664 0.0
H2625 H 0.30691 0.21017 0.43371 0.0
H2626 H 0.35634 0.26616 0.46708 0.0
H2627 H 0.36916 0.29298 0.45032 0.0
O2628 O 0.33144 0.24627 0.39151 0.0
C2629 C 0.29667 0.27061 0.39062 0.0
C2630 C 0.35382 0.28741 0.42566 0.0
C2631 C 0.35216 0.26894 0.45309 0.0
N2632 N 0.33426 0.26087 0.42658 0.0
C2633 C 0.34116 0.27566 0.4173 0.0
C2634 C 0.33951 0.2575 0.44429 0.0
C2635 C 0.35936 0.28399 0.44367 0.0
C2636 C 0.25828 0.2236 0.39707 0.0
N2637 N 0.26617 0.23441 0.3839 0.0
C2638 C 0.23997 0.22614 0.40225 0.0
C2639 C 0.2297 0.23999 0.39397 0.0
C2640 C 0.23785 0.25114 0.38073 0.0
C2641 C 0.25618 0.24818 0.37589 0.0
C2642 C 0.26732 0.22398 0.32533 0.0
C2643 C 0.29515 0.24515 0.34027 0.0
C2644 C 0.2719 0.22264 0.34392 0.0
N2645 N 0.28564 0.23321 0.3512 0.0
C2646 C 0.2909 0.24691 0.32164 0.0
C2647 C 0.27688 0.23623 0.31415 0.0
C2648 C 0.33165 0.23777 0.3762 0.0
C2649 C 0.33103 0.19353 0.43624 0.0
C2650 C 0.34875 0.22221 0.41866 0.0
C2651 C 0.35876 0.20666 0.42378 0.0
C2652 C 0.3498 0.19223 0.43261 0.0
N2653 N 0.33033 0.22335 0.42221 0.0
C2654 C 0.32147 0.2093 0.43093 0.0
Co2655 Co 0.23778 0.28596 0.62291 0.0
Co2656 Co 0.24328 0.31427 0.58603 0.0
O2657 O 0.23071 0.29412 0.59834 0.0
C2658 C 0.19599 0.2819 0.62582 0.0
O2659 O 0.19243 0.2995 0.62404 0.0
C2660 C 0.23629 0.28496 0.55786 0.0
O2661 O 0.22686 0.27558 0.56991 0.0
O2662 O 0.26736 0.30191 0.59052 0.0
O2663 O 0.26339 0.29511 0.62009 0.0
H2664 H 0.29224 0.36267 0.58118 0.0
H2665 H 0.22054 0.2581 0.59825 0.0
O2666 O 0.21242 0.276 0.62606 0.0
H2667 H 0.28117 0.2327 0.61441 0.0
H2668 H 0.23407 0.24194 0.67608 0.0
H2669 H 0.26323 0.29861 0.65317 0.0
H2670 H 0.271 0.26228 0.62721 0.0
H2671 H 0.22646 0.25384 0.64555 0.0
O2672 O 0.24246 0.30094 0.56168 0.0
H2673 H 0.27506 0.33757 0.59615 0.0
H2674 H 0.23966 0.33344 0.54994 0.0
H2675 H 0.27198 0.28618 0.68359 0.0
H2676 H 0.23005 0.22833 0.5853 0.0
H2677 H 0.25712 0.25811 0.69531 0.0
H2678 H 0.26065 0.21546 0.59325 0.0
O2679 O 0.23122 0.31082 0.63243 0.0
H2680 H 0.17651 0.31738 0.56729 0.0
H2681 H 0.22973 0.35253 0.59001 0.0
H2682 H 0.20037 0.36843 0.58463 0.0
H2683 H 0.17349 0.35086 0.57306 0.0
H2684 H 0.20601 0.30202 0.57302 0.0
H2685 H 0.25659 0.35835 0.53436 0.0
H2686 H 0.28303 0.37319 0.55005 0.0
O2687 O 0.24473 0.3278 0.61019 0.0
C2688 C 0.27361 0.29712 0.6061 0.0
C2689 C 0.28071 0.35635 0.57423 0.0
C2690 C 0.26072 0.3539 0.54794 0.0
N2691 N 0.25631 0.33415 0.57398 0.0
C2692 C 0.2709 0.34218 0.58266 0.0
C2693 C 0.25122 0.33977 0.5568 0.0
C2694 C 0.27555 0.36223 0.55675 0.0
C2695 C 0.23385 0.25264 0.60178 0.0
N2696 N 0.2453 0.26221 0.61316 0.0
C2697 C 0.23917 0.23574 0.59441 0.0
C2698 C 0.25633 0.22853 0.59888 0.0
C2699 C 0.26786 0.2382 0.61072 0.0
C2700 C 0.26204 0.25505 0.61784 0.0
C2701 C 0.2404 0.25449 0.67123 0.0
C2702 C 0.25659 0.28633 0.65814 0.0
C2703 C 0.23593 0.26155 0.65397 0.0
N2704 N 0.24383 0.27741 0.64762 0.0
C2705 C 0.26161 0.27945 0.67539 0.0
C2706 C 0.25334 0.26353 0.68199 0.0
C2707 C 0.23806 0.32598 0.62642 0.0
C2708 C 0.18817 0.32521 0.57218 0.0
C2709 C 0.21814 0.34474 0.58496 0.0
C2710 C 0.20153 0.35385 0.58194 0.0
C2711 C 0.18646 0.34399 0.57546 0.0
N2712 N 0.21983 0.32634 0.58147 0.0
C2713 C 0.20502 0.31657 0.57534 0.0
Co2714 Co 0.70627 0.23175 0.62196 0.0
Co2715 Co 0.68199 0.24551 0.58433 0.0
O2716 O 0.69955 0.22866 0.59613 0.0
C2717 C 0.70866 0.18985 0.61607 0.0
O2718 O 0.70186 0.1898 0.59936 0.0
C2719 C 0.71383 0.24536 0.56002 0.0
O2720 O 0.72389 0.24695 0.57486 0.0
O2721 O 0.69682 0.26735 0.59181 0.0
O2722 O 0.70314 0.25879 0.6205 0.0
H2723 H 0.64118 0.30111 0.58074 0.0
H2724 H 0.7317 0.21142 0.59695 0.0
O2725 O 0.70999 0.20474 0.62525 0.0
H2726 H 0.76832 0.26261 0.62187 0.0
H2727 H 0.74452 0.22154 0.67891 0.0
H2728 H 0.69061 0.25317 0.65302 0.0
H2729 H 0.73613 0.25842 0.63125 0.0
H2730 H 0.73637 0.21773 0.64626 0.0
O2731 O 0.69642 0.24433 0.56108 0.0
H2732 H 0.66295 0.27979 0.59557 0.0
H2733 H 0.66438 0.24686 0.54738 0.0
H2734 H 0.69841 0.25772 0.6856 0.0
H2735 H 0.76403 0.21472 0.58769 0.0
H2736 H 0.72555 0.24178 0.69881 0.0
H2737 H 0.78259 0.24057 0.60004 0.0
O2738 O 0.67998 0.22918 0.62892 0.0
H2739 H 0.67264 0.18275 0.55713 0.0
H2740 H 0.64228 0.23558 0.5868 0.0
H2741 H 0.62386 0.20849 0.57811 0.0
H2742 H 0.63904 0.18184 0.56313 0.0
H2743 H 0.69057 0.21007 0.56621 0.0
H2744 H 0.64273 0.26791 0.53198 0.0
H2745 H 0.63093 0.29522 0.54872 0.0
O2746 O 0.66733 0.2475 0.60754 0.0
C2747 C 0.70248 0.2709 0.60795 0.0
C2748 C 0.64618 0.28922 0.57333 0.0
C2749 C 0.64707 0.2706 0.54595 0.0
N2750 N 0.66481 0.26202 0.5724 0.0
C2751 C 0.65847 0.27707 0.58167 0.0
C2752 C 0.65935 0.25875 0.55472 0.0
C2753 C 0.64045 0.28592 0.55535 0.0
C2754 C 0.73971 0.22242 0.60278 0.0
N2755 N 0.73193 0.23458 0.6148 0.0
C2756 C 0.75802 0.22435 0.59731 0.0
C2757 C 0.7684 0.23889 0.60419 0.0
C2758 C 0.7604 0.25127 0.6164 0.0
C2759 C 0.74208 0.24889 0.62156 0.0
C2760 C 0.73257 0.22844 0.67337 0.0
C2761 C 0.70229 0.24605 0.65864 0.0
C2762 C 0.72776 0.22615 0.65492 0.0
N2763 N 0.71272 0.23484 0.64776 0.0
C2764 C 0.70671 0.24874 0.67712 0.0
C2765 C 0.72194 0.23981 0.68452 0.0
C2766 C 0.6668 0.23903 0.62287 0.0
C2767 C 0.66586 0.19429 0.56362 0.0
C2768 C 0.649 0.224 0.58037 0.0
C2769 C 0.63849 0.20872 0.57543 0.0
C2770 C 0.64701 0.19378 0.56701 0.0
N2771 N 0.66748 0.22439 0.577 0.0
C2772 C 0.67594 0.20981 0.56874 0.0
Co2773 Co 0.29204 0.77375 0.62377 0.0
Co2774 Co 0.3137 0.75034 0.58954 0.0
O2775 O 0.29765 0.77022 0.59784 0.0
C2776 C 0.2966 0.81418 0.62803 0.0
O2777 O 0.31014 0.81132 0.63962 0.0
C2778 C 0.28141 0.7468 0.5656 0.0
O2779 O 0.27127 0.74655 0.58052 0.0
O2780 O 0.2977 0.73179 0.60202 0.0
O2781 O 0.29314 0.74673 0.62855 0.0
H2782 H 0.35076 0.69241 0.59618 0.0
H2783 H 0.2683 0.78818 0.59406 0.0
O2784 O 0.28973 0.80078 0.61917 0.0
H2785 H 0.22675 0.75169 0.63313 0.0
H2786 H 0.2587 0.7999 0.67904 0.0
H2787 H 0.30825 0.75889 0.6579 0.0
H2788 H 0.25919 0.75572 0.64152 0.0
H2789 H 0.26457 0.79555 0.64598 0.0
O2790 O 0.29879 0.74819 0.56675 0.0
H2791 H 0.33031 0.71729 0.60677 0.0
H2792 H 0.3303 0.74073 0.55335 0.0
H2793 H 0.30279 0.76268 0.69104 0.0
H2794 H 0.23574 0.78509 0.58539 0.0
H2795 H 0.27786 0.78335 0.70185 0.0
H2796 H 0.21473 0.76653 0.60485 0.0
O2797 O 0.3189 0.77573 0.62909 0.0
H2798 H 0.32592 0.80595 0.55052 0.0
H2799 H 0.3541 0.75772 0.58885 0.0
H2800 H 0.37381 0.78132 0.57459 0.0
H2801 H 0.35973 0.80563 0.55524 0.0
H2802 H 0.3067 0.7822 0.56518 0.0
H2803 H 0.35054 0.71599 0.5421 0.0
H2804 H 0.36104 0.69168 0.56363 0.0
O2805 O 0.32897 0.75201 0.61219 0.0
C2806 C 0.29227 0.73224 0.6187 0.0
C2807 C 0.34635 0.70298 0.58669 0.0
C2808 C 0.34621 0.71619 0.55633 0.0
N2809 N 0.32935 0.7306 0.58078 0.0
C2810 C 0.33484 0.71714 0.59264 0.0
C2811 C 0.33472 0.73015 0.56278 0.0
C2812 C 0.3521 0.70256 0.56842 0.0
C2813 C 0.25929 0.78011 0.60267 0.0
N2814 N 0.26593 0.77159 0.61804 0.0
C2815 C 0.24083 0.77841 0.59766 0.0
C2816 C 0.22906 0.76799 0.60857 0.0
C2817 C 0.2358 0.7596 0.62438 0.0
C2818 C 0.25433 0.76164 0.62894 0.0
C2819 C 0.26972 0.79102 0.67449 0.0
C2820 C 0.29748 0.76805 0.6624 0.0
C2821 C 0.27322 0.78866 0.65575 0.0
N2822 N 0.28698 0.77732 0.64987 0.0
C2823 C 0.29441 0.77009 0.68124 0.0
C2824 C 0.28044 0.78168 0.68729 0.0
C2825 C 0.33086 0.76345 0.62531 0.0
C2826 C 0.33222 0.7954 0.55888 0.0
C2827 C 0.34786 0.76829 0.58049 0.0
C2828 C 0.3591 0.78159 0.57242 0.0
C2829 C 0.35119 0.79522 0.56155 0.0
N2830 N 0.32927 0.76853 0.57778 0.0
C2831 C 0.32142 0.78188 0.56717 0.0
H2832 H 0.9711 0.20577 0.25514 0.0
H2833 H 0.94102 0.25602 0.24373 0.0
H2834 H 0.97003 0.27153 0.2357 0.0
H2835 H 0.01276 0.22793 0.27437 0.0
H2836 H 0.0278 0.21127 0.26385 0.0
H2837 H 0.0049 0.20473 0.27066 0.0
H2838 H 0.99826 0.19351 0.2375 0.0
H2839 H 0.02106 0.20008 0.23059 0.0
H2840 H 0.0014 0.20913 0.21855 0.0
H2841 H 0.00133 0.27996 0.22415 0.0
H2842 H 0.03348 0.28147 0.21286 0.0
H2843 H 0.04347 0.22678 0.23406 0.0
C2844 C 0.97065 0.22016 0.25138 0.0
C2845 C 0.9538 0.22967 0.25004 0.0
C2846 C 0.95377 0.24844 0.24488 0.0
C2847 C 0.97019 0.25739 0.2403 0.0
C2848 C 0.98651 0.24747 0.24123 0.0
C2849 C 0.98691 0.22935 0.24693 0.0
C2850 C 0.0061 0.22146 0.24569 0.0
C2851 C 0.01331 0.21604 0.26479 0.0
C2852 C 0.00673 0.20508 0.23229 0.0
C2853 C 0.01635 0.23787 0.2381 0.0
C2854 C 0.00479 0.25271 0.23549 0.0
C2855 C 0.01067 0.26866 0.22663 0.0
C2856 C 0.02885 0.26941 0.22025 0.0
C2857 C 0.04087 0.25446 0.22314 0.0
C2858 C 0.03462 0.23864 0.23236 0.0
H2859 H 0.78116 0.95768 0.22941 0.0
H2860 H 0.76742 0.96266 0.28717 0.0
H2861 H 0.7537 0.99326 0.2813 0.0
H2862 H 0.79367 0.00291 0.22105 0.0
H2863 H 0.7833 0.00429 0.1986 0.0
H2864 H 0.79089 0.98247 0.20732 0.0
H2865 H 0.75822 0.96909 0.20236 0.0
H2866 H 0.7505 0.99096 0.19368 0.0
H2867 H 0.73872 0.98034 0.2127 0.0
H2868 H 0.74505 0.02444 0.26966 0.0
H2869 H 0.74033 0.05349 0.25276 0.0
H2870 H 0.7573 0.02683 0.20217 0.0
C2871 C 0.77513 0.96522 0.24075 0.0
C2872 C 0.77538 0.95812 0.25872 0.0
C2873 C 0.76725 0.96806 0.2733 0.0
C2874 C 0.75943 0.98534 0.27009 0.0
C2875 C 0.75945 0.99207 0.25216 0.0
C2876 C 0.76682 0.98219 0.23769 0.0
C2877 C 0.76536 0.99258 0.21979 0.0
C2878 C 0.78444 0.99576 0.2112 0.0
C2879 C 0.75243 0.98265 0.20634 0.0
C2880 C 0.75694 0.01027 0.22661 0.0
C2881 C 0.75351 0.00967 0.24529 0.0
C2882 C 0.74727 0.02496 0.25496 0.0
C2883 C 0.74471 0.04138 0.24529 0.0
C2884 C 0.74829 0.04223 0.22619 0.0
C2885 C 0.75408 0.02639 0.2167 0.0
H2886 H 0.04202 0.75625 0.25063 0.0
H2887 H 0.0284 0.81429 0.25416 0.0
H2888 H 0.99633 0.80728 0.24652 0.0
H2889 H 0.01512 0.74596 0.21283 0.0
H2890 H 0.00738 0.72376 0.22061 0.0
H2891 H 0.029 0.73276 0.22854 0.0
H2892 H 0.01843 0.72912 0.26234 0.0
H2893 H 0.99679 0.71991 0.25453 0.0
H2894 H 0.99717 0.7395 0.26968 0.0
H2895 H 0.96742 0.79516 0.23405 0.0
H2896 H 0.94172 0.77763 0.22044 0.0
H2897 H 0.97256 0.72709 0.22675 0.0
C2898 C 0.03219 0.76742 0.2502 0.0
C2899 C 0.03777 0.78582 0.25293 0.0
C2900 C 0.02452 0.80007 0.25214 0.0
C2901 C 0.00622 0.79626 0.24781 0.0
C2902 C 0.00128 0.77809 0.24465 0.0
C2903 C 0.01373 0.76382 0.24611 0.0
C2904 C 0.00484 0.74562 0.24118 0.0
C2905 C 0.01467 0.7365 0.22482 0.0
C2906 C 0.00427 0.73278 0.25793 0.0
C2907 C 0.98573 0.75207 0.23598 0.0
C2908 C 0.98404 0.77087 0.23814 0.0
C2909 C 0.96835 0.78038 0.23272 0.0
C2910 C 0.95393 0.77039 0.22493 0.0
C2911 C 0.95528 0.75114 0.22288 0.0
C2912 C 0.97122 0.74179 0.22861 0.0
H2913 H 0.22539 0.95986 0.2327 0.0
H2914 H 0.27179 0.97201 0.19732 0.0
H2915 H 0.27193 0.00409 0.20854 0.0
H2916 H 0.20204 0.00058 0.22354 0.0
H2917 H 0.19265 0.00331 0.2463 0.0
H2918 H 0.19809 0.98074 0.23783 0.0
H2919 H 0.21908 0.97512 0.26605 0.0
H2920 H 0.21373 0.99774 0.27462 0.0
H2921 H 0.23733 0.9911 0.27108 0.0
H2922 H 0.26578 0.03503 0.22192 0.0
H2923 H 0.25172 0.06353 0.23359 0.0
H2924 H 0.208 0.03164 0.25876 0.0
C2925 C 0.23581 0.96922 0.22765 0.0
C2926 C 0.24871 0.96355 0.21435 0.0
C2927 C 0.26184 0.97619 0.20758 0.0
C2928 C 0.26211 0.99434 0.21397 0.0
C2929 C 0.24905 -0.0004 0.22697 0.0
C2930 C 0.23601 0.98747 0.23358 0.0
C2931 C 0.22215 0.9971 0.24575 0.0
C2932 C 0.20258 0.99533 0.23788 0.0
C2933 C 0.22314 0.98983 0.26555 0.0
C2934 C 0.22915 0.01664 0.24454 0.0
C2935 C 0.24494 0.01769 0.23403 0.0
C2936 C 0.25351 0.03438 0.23029 0.0
C2937 C 0.24542 0.0505 0.23701 0.0
C2938 C 0.22874 0.04979 0.24704 0.0
C2939 C 0.22079 0.03259 0.2512 0.0
H2940 H 0.95999 0.75474 0.73906 0.0
H2941 H 0.96486 0.81263 0.75286 0.0
H2942 H 0.99619 0.80764 0.76371 0.0
H2943 H 0.98459 0.73682 0.77636 0.0
H2944 H 0.99681 0.71936 0.76372 0.0
H2945 H 0.9748 0.72729 0.75567 0.0
H2946 H 0.9891 0.73558 0.72415 0.0
H2947 H 0.01116 0.72753 0.73205 0.0
H2948 H 0.00881 0.75056 0.72327 0.0
H2949 H 0.0252 0.79668 0.77589 0.0
H2950 H 0.05282 0.78015 0.78641 0.0
H2951 H 0.03144 0.72938 0.76365 0.0
C2952 C 0.96782 0.76636 0.74407 0.0
C2953 C 0.95995 0.7841 0.745 0.0
C2954 C 0.97057 0.79898 0.75172 0.0
C2955 C 0.98842 0.79629 0.75803 0.0
C2956 C 0.9957 0.7787 0.75719 0.0
C2957 C 0.98601 0.764 0.75009 0.0
C2958 C 0.99745 0.74656 0.75091 0.0
C2959 C 0.98783 0.73163 0.76235 0.0
C2960 C 0.00189 0.73965 0.73144 0.0
C2961 C 0.0146 0.75371 0.76042 0.0
C2962 C 0.01319 0.77235 0.76376 0.0
C2963 C 0.0267 0.78216 0.77306 0.0
C2964 C 0.04225 0.7727 0.779 0.0
C2965 C 0.04413 0.75371 0.77557 0.0
C2966 C 0.03024 0.744 0.76615 0.0
H2967 H 0.23871 0.04175 0.75787 0.0
H2968 H 0.27671 0.02855 0.80183 0.0
H2969 H 0.27423 0.99562 0.79405 0.0
H2970 H 0.20864 0.00684 0.7664 0.0
H2971 H 0.20295 0.00176 0.74282 0.0
H2972 H 0.21054 0.02442 0.74905 0.0
H2973 H 0.23679 0.02251 0.72505 0.0
H2974 H 0.22916 -0.00017 0.71859 0.0
H2975 H 0.2526 0.00346 0.72573 0.0
H2976 H 0.26539 0.96428 0.78375 0.0
H2977 H 0.24922 0.93646 0.7732 0.0
H2978 H 0.215 0.96974 0.73749 0.0
C2979 C 0.24701 0.03197 0.7654 0.0
C2980 C 0.25815 0.03767 0.78024 0.0
C2981 C 0.26828 0.02445 0.79027 0.0
C2982 C 0.267 0.00574 0.78591 0.0
C2983 C 0.25547 0.00049 0.77154 0.0
C2984 C 0.24563 0.0132 0.76143 0.0
C2985 C 0.23252 0.00381 0.74822 0.0
C2986 C 0.21248 0.00955 0.75186 0.0
C2987 C 0.2381 0.00763 0.72821 0.0
C2988 C 0.23582 0.98388 0.75321 0.0
C2989 C 0.24957 0.98228 0.76623 0.0
C2990 C 0.25476 0.96533 0.77341 0.0
C2991 C 0.24549 0.94961 0.76732 0.0
C2992 C 0.23088 0.95099 0.75455 0.0
C2993 C 0.22615 0.96833 0.74725 0.0
H2994 H 0.04227 0.24547 0.75964 0.0
H2995 H 0.02825 0.19479 0.73136 0.0
H2996 H 0.99545 0.20224 0.73418 0.0
H2997 H 0.0087 0.24388 0.79239 0.0
H2998 H 0.00307 0.268 0.79262 0.0
H2999 H 0.02563 0.26069 0.78568 0.0
H3000 H 0.02196 0.27773 0.75465 0.0
H3001 H 0.9994 0.28532 0.76161 0.0
H3002 H 0.00231 0.27294 0.74036 0.0
H3003 H 0.96466 0.21309 0.74239 0.0
H3004 H 0.93699 0.22661 0.7563 0.0
H3005 H 0.97008 0.26966 0.78095 0.0
C3006 C 0.0323 0.23625 0.75357 0.0
C3007 C 0.03783 0.21959 0.74522 0.0
C3008 C 0.02436 0.20766 0.73777 0.0
C3009 C 0.00568 0.21179 0.73923 0.0
C3010 C 0.00064 0.22798 0.74804 0.0
C3011 C 0.01348 0.24014 0.75498 0.0
C3012 C 0.00417 0.25583 0.7651 0.0
C3013 C 0.01078 0.25716 0.78514 0.0
C3014 C 0.00714 0.27404 0.75482 0.0
C3015 C 0.98425 0.24981 0.76391 0.0
C3016 C 0.98257 0.23406 0.75341 0.0
C3017 C 0.96572 0.22558 0.7504 0.0
C3018 C 0.9501 0.23338 0.75833 0.0
C3019 C 0.95148 0.24923 0.76952 0.0
C3020 C 0.96875 0.25758 0.77236 0.0
H3021 H 0.77847 0.02573 0.73138 0.0
H3022 H 0.77534 0.05917 0.78055 0.0
H3023 H 0.7611 0.03334 0.79739 0.0
H3024 H 0.7357 0.99848 0.73913 0.0
H3025 H 0.74601 0.97757 0.73078 0.0
H3026 H 0.7533 -0.00056 0.72171 0.0
H3027 H 0.787 0.99186 0.73035 0.0
H3028 H 0.77983 0.97003 0.73944 0.0
H3029 H 0.79247 0.98582 0.75374 0.0
H3030 H 0.74994 0.00383 0.80945 0.0
H3031 H 0.74386 0.97145 0.8169 0.0
H3032 H 0.75532 0.95627 0.76026 0.0
C3033 C 0.77429 0.0276 0.74555 0.0
C3034 C 0.77758 0.04428 0.75477 0.0
C3035 C 0.77262 0.04638 0.7734 0.0
C3036 C 0.7645 0.03189 0.78298 0.0
C3037 C 0.76161 0.01542 0.77367 0.0
C3038 C 0.7664 0.01312 0.75541 0.0
C3039 C 0.76361 0.99341 0.74932 0.0
C3040 C 0.74877 0.99216 0.73435 0.0
C3041 C 0.78181 0.98478 0.74284 0.0
C3042 C 0.75706 0.98496 0.76717 0.0
C3043 C 0.75568 0.998 0.7809 0.0
C3044 C 0.75076 0.99348 0.7988 0.0
C3045 C 0.74739 0.97503 0.80289 0.0
C3046 C 0.74917 0.96134 0.78916 0.0
C3047 C 0.75379 0.96644 0.77102 0.0
H3048 H 0.25038 0.20218 0.02711 0.0
H3049 H 0.2594 0.25517 0.05296 0.0
H3050 H 0.25175 0.27062 0.02361 0.0
H3051 H 0.26713 0.21314 0.98111 0.0
H3052 H 0.24917 0.2 0.97021 0.0
H3053 H 0.25755 0.19335 0.99253 0.0
H3054 H 0.22437 0.19482 0.00541 0.0
H3055 H 0.21588 0.20161 0.98321 0.0
H3056 H 0.21133 0.21574 0.00304 0.0
H3057 H 0.23952 0.28011 0.9924 0.0
H3058 H 0.22496 0.28265 0.96159 0.0
H3059 H 0.22463 0.22338 0.95679 0.0
C3060 C 0.25128 0.21702 0.02652 0.0
C3061 C 0.25566 0.2275 0.04223 0.0
C3062 C 0.25615 0.24691 0.04101 0.0
C3063 C 0.25185 0.25578 0.02442 0.0
C3064 C 0.24706 0.24499 0.00932 0.0
C3065 C 0.24684 0.22602 0.01024 0.0
C3066 C 0.23966 0.21753 0.99273 0.0
C3067 C 0.25426 0.20529 0.98361 0.0
C3068 C 0.22176 0.2068 0.99632 0.0
C3069 C 0.23605 0.23466 0.98164 0.0
C3070 C 0.24025 0.25041 0.99143 0.0
C3071 C 0.23653 0.26789 0.98448 0.0
C3072 C 0.22828 0.26923 0.96709 0.0
C3073 C 0.22417 0.25319 0.95697 0.0
C3074 C 0.22819 0.23578 0.96423 0.0
H3075 H 0.23539 0.75881 0.95988 0.0
H3076 H 0.27741 0.79949 0.97128 0.0
H3077 H 0.2761 0.79162 0.00428 0.0
H3078 H 0.20814 0.76963 0.99686 0.0
H3079 H 0.20069 0.74654 0.0018 0.0
H3080 H 0.20741 0.75264 0.97883 0.0
H3081 H 0.23144 0.72634 0.97864 0.0
H3082 H 0.22471 0.72008 0.00165 0.0
H3083 H 0.24842 0.72521 0.99663 0.0
H3084 H 0.26836 0.78137 0.0361 0.0
H3085 H 0.25284 0.77167 0.06466 0.0
H3086 H 0.21417 0.73943 0.03273 0.0
C3087 C 0.24473 0.7656 0.96926 0.0
C3088 C 0.25673 0.77951 0.96308 0.0
C3089 C 0.26827 0.78864 0.97579 0.0
C3090 C 0.26768 0.7842 0.99452 0.0
C3091 C 0.25538 0.7707 0.00028 0.0
C3092 C 0.24404 0.76159 0.98804 0.0
C3093 C 0.23045 0.74937 0.99799 0.0
C3094 C 0.2105 0.75489 0.99361 0.0
C3095 C 0.23397 0.72904 0.99346 0.0
C3096 C 0.23542 0.75362 0.01774 0.0
C3097 C 0.25021 0.7655 0.01874 0.0
C3098 C 0.25692 0.77189 0.0355 0.0
C3099 C 0.24805 0.76628 0.05164 0.0
C3100 C 0.23238 0.75477 0.05084 0.0
C3101 C 0.2262 0.74816 0.03369 0.0
H3102 H 0.74549 0.19905 0.97303 0.0
H3103 H 0.75894 0.24839 0.94212 0.0
H3104 H 0.76682 0.2643 0.97061 0.0
H3105 H 0.7257 0.22403 0.01324 0.0
H3106 H 0.73486 0.20781 0.02955 0.0
H3107 H 0.72871 0.20031 0.00675 0.0
H3108 H 0.76159 0.18745 0.00206 0.0
H3109 H 0.76783 0.19492 0.02479 0.0
H3110 H 0.78107 0.20243 0.00524 0.0
H3111 H 0.77737 0.27374 0.00115 0.0
H3112 H 0.7874 0.27699 0.03345 0.0
H3113 H 0.765 0.22321 0.04582 0.0
C3114 C 0.74981 0.21327 0.97235 0.0
C3115 C 0.75167 0.22237 0.9553 0.0
C3116 C 0.75742 0.241 0.95495 0.0
C3117 C 0.76192 0.25027 0.97109 0.0
C3118 C 0.76031 0.24089 0.98759 0.0
C3119 C 0.75414 0.22293 0.98848 0.0
C3120 C 0.75432 0.21605 0.00814 0.0
C3121 C 0.73473 0.2118 0.01481 0.0
C3122 C 0.76696 0.19922 0.01017 0.0
C3123 C 0.76216 0.23273 0.0179 0.0
C3124 C 0.76551 0.24687 0.00572 0.0
C3125 C 0.77437 0.26301 0.01098 0.0
C3126 C 0.78005 0.26473 0.02926 0.0
C3127 C 0.77653 0.25054 0.04199 0.0
C3128 C 0.76727 0.23446 0.03635 0.0
H3129 H 0.77646 0.77108 0.95616 0.0
H3130 H 0.76294 0.71314 0.95888 0.0
H3131 H 0.75015 0.71762 0.99015 0.0
H3132 H 0.78996 0.77741 0.00199 0.0
H3133 H 0.77964 0.7998 0.00433 0.0
H3134 H 0.78709 0.79191 0.98211 0.0
H3135 H 0.75436 0.79751 0.96918 0.0
H3136 H 0.74679 0.80532 0.99144 0.0
H3137 H 0.7349 0.78677 0.98012 0.0
H3138 H 0.74172 0.72815 0.02221 0.0
H3139 H 0.7364 0.74424 0.05174 0.0
H3140 H 0.75303 0.79563 0.02651 0.0
C3141 C 0.77067 0.75939 0.96333 0.0
C3142 C 0.77066 0.74177 0.9553 0.0
C3143 C 0.7629 0.72676 0.96489 0.0
C3144 C 0.75566 0.72918 0.9826 0.0
C3145 C 0.75591 0.74677 0.9902 0.0
C3146 C 0.76296 0.76166 0.98074 0.0
C3147 C 0.76159 0.77913 0.99188 0.0
C3148 C 0.78071 0.78754 0.99528 0.0
C3149 C 0.74863 0.793 0.9826 0.0
C3150 C 0.7533 0.77164 0.00938 0.0
C3151 C 0.75011 0.75295 0.00819 0.0
C3152 C 0.7438 0.74283 0.02319 0.0
C3153 C 0.74085 0.75205 0.03988 0.0
C3154 C 0.74405 0.77118 0.04129 0.0
C3155 C 0.75005 0.78107 0.02573 0.0
H3156 H 0.53696 0.73166 0.71268 0.0
H3157 H 0.536 0.78685 0.7352 0.0
H3158 H 0.50535 0.78088 0.74859 0.0
H3159 H 0.48901 0.7281 0.70152 0.0
H3160 H 0.48724 0.70437 0.70839 0.0
H3161 H 0.50881 0.71327 0.70015 0.0
H3162 H 0.52464 0.70245 0.73016 0.0
H3163 H 0.50306 0.6937 0.73856 0.0
H3164 H 0.51584 0.7101 0.75203 0.0
H3165 H 0.47442 0.76941 0.75829 0.0
H3166 H 0.44553 0.75269 0.76474 0.0
H3167 H 0.46776 0.70414 0.73821 0.0
C3168 C 0.53019 0.74251 0.7203 0.0
C3169 C 0.53868 0.75976 0.72282 0.0
C3170 C 0.52964 0.77355 0.73314 0.0
C3171 C 0.51228 0.77029 0.74078 0.0
C3172 C 0.50435 0.75306 0.73825 0.0
C3173 C 0.51305 0.73934 0.72839 0.0
C3174 C 0.50173 0.72188 0.72814 0.0
C3175 C 0.49638 0.71661 0.70838 0.0
C3176 C 0.51193 0.70611 0.7378 0.0
C3177 C 0.48518 0.72804 0.73915 0.0
C3178 C 0.48693 0.74611 0.74476 0.0
C3179 C 0.47297 0.75519 0.75421 0.0
C3180 C 0.45666 0.74561 0.75782 0.0
C3181 C 0.45463 0.72711 0.75223 0.0
C3182 C 0.46918 0.71815 0.74302 0.0
H3183 H 0.27667 0.47022 0.76539 0.0
H3184 H 0.27711 0.43798 0.71529 0.0
H3185 H 0.26594 0.46474 0.69775 0.0
H3186 H 0.2341 0.49634 0.75282 0.0
H3187 H 0.24208 0.51718 0.76356 0.0
H3188 H 0.24899 0.49517 0.77257 0.0
H3189 H 0.2832 0.50449 0.76932 0.0
H3190 H 0.27641 0.52648 0.76032 0.0
H3191 H 0.29173 0.512 0.74728 0.0
H3192 H 0.25701 0.49481 0.68539 0.0
H3193 H 0.25044 0.52719 0.6785 0.0
H3194 H 0.25466 0.54047 0.73659 0.0
C3195 C 0.27414 0.46889 0.75078 0.0
C3196 C 0.27757 0.45223 0.74154 0.0
C3197 C 0.27429 0.45072 0.72247 0.0
C3198 C 0.26796 0.46578 0.71245 0.0
C3199 C 0.26465 0.48209 0.72184 0.0
C3200 C 0.26739 0.48376 0.74059 0.0
C3201 C 0.26295 0.50305 0.74708 0.0
C3202 C 0.24603 0.50292 0.75976 0.0
C3203 C 0.27957 0.51203 0.75655 0.0
C3204 C 0.25854 0.51216 0.72888 0.0
C3205 C 0.25923 0.49966 0.71461 0.0
C3206 C 0.25619 0.50473 0.69644 0.0
C3207 C 0.25247 0.52317 0.69268 0.0
C3208 C 0.25204 0.53635 0.70701 0.0
C3209 C 0.25491 0.53069 0.72537 0.0
H3210 H 0.47111 0.23026 0.72408 0.0
H3211 H 0.44217 0.28193 0.718 0.0
H3212 H 0.46904 0.29861 0.73042 0.0
H3213 H 0.49513 0.24329 0.76731 0.0
H3214 H 0.51585 0.23119 0.76116 0.0
H3215 H 0.49387 0.22304 0.75311 0.0
H3216 H 0.50555 0.22443 0.71948 0.0
H3217 H 0.52753 0.23248 0.72743 0.0
H3218 H 0.51485 0.24566 0.71073 0.0
H3219 H 0.49889 0.3097 0.74185 0.0
H3220 H 0.53116 0.31512 0.7502 0.0
H3221 H 0.54145 0.25633 0.74889 0.0
C3222 C 0.47052 0.24505 0.7256 0.0
C3223 C 0.45479 0.25498 0.7203 0.0
C3224 C 0.45423 0.27427 0.72223 0.0
C3225 C 0.46933 0.28379 0.72929 0.0
C3226 C 0.48471 0.27371 0.7345 0.0
C3227 C 0.48548 0.25478 0.73281 0.0
C3228 C 0.50403 0.24749 0.73881 0.0
C3229 C 0.5021 0.23554 0.75613 0.0
C3230 C 0.51355 0.2369 0.72317 0.0
C3231 C 0.51383 0.26534 0.74313 0.0
C3232 C 0.50223 0.28022 0.74099 0.0
C3233 C 0.5081 0.29818 0.74375 0.0
C3234 C 0.52647 0.3011 0.74853 0.0
C3235 C 0.53881 0.28614 0.75019 0.0
C3236 C 0.5323 0.26802 0.74774 0.0
H3237 H 0.72745 0.4629 0.71022 0.0
H3238 H 0.77771 0.45348 0.74063 0.0
H3239 H 0.77443 0.48402 0.7556 0.0
H3240 H 0.7323 0.51099 0.70269 0.0
H3241 H 0.70828 0.51589 0.70627 0.0
H3242 H 0.71522 0.49374 0.69771 0.0
H3243 H 0.69791 0.47799 0.72459 0.0
H3244 H 0.69103 0.50012 0.7333 0.0
H3245 H 0.70328 0.48434 0.74793 0.0
H3246 H 0.76648 0.51673 0.7651 0.0
H3247 H 0.7527 0.54742 0.77112 0.0
H3248 H 0.70587 0.53288 0.73733 0.0
C3249 C 0.73776 0.4674 0.71998 0.0
C3250 C 0.75296 0.4563 0.72421 0.0
C3251 C 0.76608 0.46213 0.73726 0.0
C3252 C 0.7643 0.47935 0.74576 0.0
C3253 C 0.74908 0.49011 0.74131 0.0
C3254 C 0.73587 0.48419 0.72897 0.0
C3255 C 0.72041 0.49786 0.72711 0.0
C3256 C 0.71898 0.50504 0.70727 0.0
C3257 C 0.70207 0.48958 0.73363 0.0
C3258 C 0.7271 0.51258 0.74008 0.0
C3259 C 0.74378 0.50805 0.74797 0.0
C3260 C 0.75325 0.52027 0.75932 0.0
C3261 C 0.7454 0.53759 0.76265 0.0
C3262 C 0.72815 0.5421 0.755 0.0
C3263 C 0.71887 0.52942 0.74374 0.0
H3264 H 0.46187 0.28998 0.26495 0.0
H3265 H 0.45145 0.24971 0.22235 0.0
H3266 H 0.48184 0.23533 0.22862 0.0
H3267 H 0.51031 0.29536 0.25857 0.0
H3268 H 0.51505 0.29693 0.28284 0.0
H3269 H 0.49315 0.30434 0.27404 0.0
H3270 H 0.47665 0.28227 0.29661 0.0
H3271 H 0.49851 0.27466 0.30537 0.0
H3272 H 0.48234 0.25816 0.29642 0.0
H3273 H 0.5144 0.22697 0.23862 0.0
H3274 H 0.54476 0.22306 0.25377 0.0
H3275 H 0.5312 0.26641 0.29224 0.0
C3276 C 0.46612 0.27825 0.25682 0.0
C3277 C 0.45473 0.27107 0.24293 0.0
C3278 C 0.46028 0.25542 0.23289 0.0
C3279 C 0.47743 0.24723 0.23637 0.0
C3280 C 0.48841 0.25466 0.25025 0.0
C3281 C 0.48279 0.26964 0.2605 0.0
C3282 C 0.49649 0.27443 0.27533 0.0
C3283 C 0.50421 0.29391 0.27251 0.0
C3284 C 0.48799 0.27224 0.29457 0.0
C3285 C 0.5109 0.25995 0.27172 0.0
C3286 C 0.50618 0.24884 0.25702 0.0
C3287 C 0.51806 0.23534 0.25036 0.0
C3288 C 0.53519 0.23321 0.25898 0.0
C3289 C 0.53989 0.24417 0.2743 0.0
C3290 C 0.52757 0.25756 0.28082 0.0
H3291 H 0.72181 0.47652 0.2248 0.0
H3292 H 0.72677 0.44185 0.27299 0.0
H3293 H 0.7424 0.46689 0.28959 0.0
H3294 H 0.76544 0.50317 0.23126 0.0
H3295 H 0.75486 0.52435 0.22399 0.0
H3296 H 0.74707 0.50277 0.21463 0.0
H3297 H 0.7138 0.51022 0.22503 0.0
H3298 H 0.72148 0.53176 0.23437 0.0
H3299 H 0.70945 0.51564 0.24882 0.0
H3300 H 0.75438 0.49604 0.302 0.0
H3301 H 0.76001 0.52836 0.31027 0.0
H3302 H 0.74618 0.54489 0.2546 0.0
C3303 C 0.72672 0.47413 0.23864 0.0
C3304 C 0.72337 0.45733 0.24761 0.0
C3305 C 0.72935 0.45471 0.26593 0.0
C3306 C 0.73833 0.46877 0.27541 0.0
C3307 C 0.74112 0.48537 0.26639 0.0
C3308 C 0.73544 0.4882 0.24846 0.0
C3309 C 0.73804 0.50805 0.24284 0.0
C3310 C 0.7522 0.50968 0.22726 0.0
C3311 C 0.7196 0.51693 0.23746 0.0
C3312 C 0.74544 0.51599 0.2606 0.0
C3313 C 0.74752 0.50257 0.27384 0.0
C3314 C 0.75307 0.50667 0.29169 0.0
C3315 C 0.75622 0.52507 0.29626 0.0
C3316 C 0.75351 0.53912 0.28308 0.0
C3317 C 0.74846 0.53443 0.26493 0.0
H3318 H 0.53261 0.70217 0.26433 0.0
H3319 H 0.55258 0.7495 0.23413 0.0
H3320 H 0.52473 0.76688 0.243 0.0
H3321 H 0.48353 0.70827 0.25542 0.0
H3322 H 0.47702 0.70143 0.27832 0.0
H3323 H 0.49759 0.69224 0.26804 0.0
H3324 H 0.51646 0.70372 0.29596 0.0
H3325 H 0.49602 0.71324 0.30618 0.0
H3326 H 0.51573 0.7277 0.30214 0.0
H3327 H 0.49552 0.77919 0.25564 0.0
H3328 H 0.46615 0.78592 0.2711 0.0
H3329 H 0.46608 0.73133 0.29508 0.0
C3330 C 0.53084 0.71604 0.25921 0.0
C3331 C 0.54445 0.7245 0.24829 0.0
C3332 C 0.54211 0.74282 0.24234 0.0
C3333 C 0.52641 0.75276 0.24734 0.0
C3334 C 0.51345 0.74422 0.25855 0.0
C3335 C 0.51547 0.72629 0.26444 0.0
C3336 C 0.50006 0.72077 0.27732 0.0
C3337 C 0.48889 0.70473 0.26929 0.0
C3338 C 0.50752 0.71608 0.29653 0.0
C3339 C 0.489 0.73838 0.27763 0.0
C3340 C 0.49697 0.75167 0.26664 0.0
C3341 C 0.48916 0.76894 0.26433 0.0
C3342 C 0.47252 0.77264 0.2732 0.0
C3343 C 0.46399 0.75919 0.28438 0.0
C3344 C 0.4725 0.74194 0.28686 0.0
H3345 H 0.28025 0.5432 0.27648 0.0
H3346 H 0.2715 0.53898 0.21777 0.0
H3347 H 0.25895 0.50749 0.22187 0.0
H3348 H 0.2955 0.49728 0.28274 0.0
H3349 H 0.2848 0.49455 0.30491 0.0
H3350 H 0.29189 0.51699 0.29731 0.0
H3351 H 0.25878 0.52918 0.30233 0.0
H3352 H 0.25159 0.50675 0.30991 0.0
H3353 H 0.23979 0.51783 0.29117 0.0
H3354 H 0.24902 0.47618 0.2324 0.0
H3355 H 0.2426 0.44694 0.24834 0.0
H3356 H 0.25783 0.47195 0.30034 0.0
C3357 C 0.27544 0.53564 0.26458 0.0
C3358 C 0.27653 0.54325 0.24686 0.0
C3359 C 0.27052 0.53316 0.23143 0.0
C3360 C 0.26341 0.51538 0.23366 0.0
C3361 C 0.26254 0.50813 0.25139 0.0
C3362 C 0.26841 0.51793 0.26658 0.0
C3363 C 0.26687 0.50672 0.28399 0.0
C3364 C 0.2859 0.50371 0.29275 0.0
C3365 C 0.25345 0.51565 0.29765 0.0
C3366 C 0.2592 0.48904 0.27627 0.0
C3367 C 0.2568 0.49012 0.25745 0.0
C3368 C 0.25069 0.47521 0.24715 0.0
C3369 C 0.24713 0.45867 0.25631 0.0
C3370 C 0.24964 0.45726 0.27556 0.0
C3371 C 0.25553 0.47272 0.28565 0.0
H3372 H 0.77254 0.71964 0.52346 0.0
H3373 H 0.72448 0.72683 0.55788 0.0
H3374 H 0.70809 0.74173 0.53213 0.0
H3375 H 0.76725 0.76251 0.49608 0.0
H3376 H 0.77449 0.75158 0.47505 0.0
H3377 H 0.7834 0.74375 0.4968 0.0
H3378 H 0.77225 0.71071 0.48955 0.0
H3379 H 0.76337 0.71842 0.46782 0.0
H3380 H 0.74843 0.70691 0.48387 0.0
H3381 H 0.69628 0.75345 0.5027 0.0
H3382 H 0.68857 0.75957 0.47041 0.0
H3383 H 0.7439 0.74393 0.45419 0.0
C3384 C 0.7587 0.72473 0.52552 0.0
C3385 C 0.74967 0.72243 0.54247 0.0
C3386 C 0.73148 0.72873 0.54487 0.0
C3387 C 0.72217 0.73725 0.53042 0.0
C3388 C 0.7313 0.73924 0.51372 0.0
C3389 C 0.74911 0.7331 0.51112 0.0
C3390 C 0.75503 0.73538 0.49128 0.0
C3391 C 0.77099 0.74913 0.48972 0.0
C3392 C 0.76005 0.71674 0.48263 0.0
C3393 C 0.73755 0.74316 0.48308 0.0
C3394 C 0.72421 0.74561 0.49638 0.0
C3395 C 0.70663 0.75177 0.49215 0.0
C3396 C 0.70239 0.75516 0.47374 0.0
C3397 C 0.71563 0.75217 0.45976 0.0
C3398 C 0.73355 0.74646 0.46458 0.0
H3399 H 0.73164 0.29941 0.46731 0.0
H3400 H 0.76328 0.2525 0.44868 0.0
H3401 H 0.75941 0.23777 0.4791 0.0
H3402 H 0.74622 0.29936 0.51553 0.0
H3403 H 0.72357 0.30506 0.52379 0.0
H3404 H 0.73092 0.31283 0.50146 0.0
H3405 H 0.70241 0.29733 0.48674 0.0
H3406 H 0.69506 0.28937 0.50897 0.0
H3407 H 0.6984 0.27318 0.49052 0.0
H3408 H 0.75156 0.22804 0.51138 0.0
H3409 H 0.73787 0.22288 0.54226 0.0
H3410 H 0.70881 0.27463 0.53808 0.0
C3411 C 0.73807 0.28623 0.46985 0.0
C3412 C 0.74799 0.27713 0.45596 0.0
C3413 C 0.75575 0.25965 0.45936 0.0
C3414 C 0.75368 0.25125 0.47655 0.0
C3415 C 0.74354 0.26043 0.48994 0.0
C3416 C 0.7357 0.27745 0.48672 0.0
C3417 C 0.72396 0.28358 0.50271 0.0
C3418 C 0.73163 0.30126 0.51139 0.0
C3419 C 0.70376 0.286 0.49688 0.0
C3420 C 0.7263 0.26731 0.51536 0.0
C3421 C 0.73794 0.25425 0.50795 0.0
C3422 C 0.74237 0.23813 0.51731 0.0
C3423 C 0.73459 0.23528 0.53472 0.0
C3424 C 0.72228 0.2483 0.54213 0.0
C3425 C 0.7181 0.26446 0.53242 0.0
H3426 H 0.28461 0.72644 0.45878 0.0
H3427 H 0.22781 0.70925 0.46315 0.0
H3428 H 0.22648 0.72123 0.49495 0.0
H3429 H 0.29669 0.71128 0.50227 0.0
H3430 H 0.3129 0.72939 0.50701 0.0
H3431 H 0.30841 0.72267 0.48365 0.0
H3432 H 0.29966 0.75622 0.47549 0.0
H3433 H 0.30423 0.76309 0.49885 0.0
H3434 H 0.28216 0.76784 0.48864 0.0
H3435 H 0.2323 0.73209 0.52704 0.0
H3436 H 0.24529 0.73944 0.55756 0.0
H3437 H 0.29875 0.74811 0.53243 0.0
C3438 C 0.2718 0.72573 0.46635 0.0
C3439 C 0.25624 0.71724 0.45871 0.0
C3440 C 0.23981 0.71585 0.46896 0.0
C3441 C 0.23891 0.7227 0.48692 0.0
C3442 C 0.25465 0.73066 0.49435 0.0
C3443 C 0.27083 0.73212 0.48442 0.0
C3444 C 0.28641 0.739 0.49629 0.0
C3445 C 0.30201 0.72474 0.49737 0.0
C3446 C 0.29353 0.75765 0.4894 0.0
C3447 C 0.27655 0.74089 0.51448 0.0
C3448 C 0.25819 0.7363 0.51305 0.0
C3449 C 0.24661 0.73594 0.52832 0.0
C3450 C 0.25411 0.74008 0.54558 0.0
C3451 C 0.27301 0.74429 0.54736 0.0
C3452 C 0.28421 0.74502 0.53152 0.0
H3453 H 0.24708 0.30141 0.5257 0.0
H3454 H 0.2373 0.24829 0.55103 0.0
H3455 H 0.24808 0.23282 0.52291 0.0
H3456 H 0.2321 0.28794 0.47972 0.0
H3457 H 0.24929 0.30172 0.46841 0.0
H3458 H 0.24039 0.30868 0.49045 0.0
H3459 H 0.27351 0.30961 0.50352 0.0
H3460 H 0.28251 0.30257 0.48157 0.0
H3461 H 0.28781 0.28944 0.50188 0.0
H3462 H 0.26238 0.22312 0.49326 0.0
H3463 H 0.27644 0.21996 0.46231 0.0
H3464 H 0.27469 0.27905 0.45548 0.0
C3465 C 0.24705 0.28653 0.52523 0.0
C3466 C 0.24135 0.27603 0.54047 0.0
C3467 C 0.24147 0.25659 0.53941 0.0
C3468 C 0.24764 0.24767 0.52355 0.0
C3469 C 0.25336 0.25839 0.50881 0.0
C3470 C 0.25286 0.27738 0.50937 0.0
C3471 C 0.25972 0.28563 0.49158 0.0
C3472 C 0.24446 0.29664 0.48197 0.0
C3473 C 0.27691 0.29751 0.49484 0.0
C3474 C 0.26434 0.26831 0.48107 0.0
C3475 C 0.26075 0.25274 0.49132 0.0
C3476 C 0.26494 0.23516 0.48493 0.0
C3477 C 0.2729 0.23348 0.46747 0.0
C3478 C 0.27619 0.24925 0.45672 0.0
C3479 C 0.27186 0.26683 0.46351 0.0
H3480 H 0.16132 0.1369 0.22613 0.0
H3481 H 0.14076 0.1417 0.28172 0.0
H3482 H 0.11609 0.16273 0.27074 0.0
H3483 H 0.15727 0.18318 0.2162 0.0
H3484 H 0.15168 0.17985 0.1923 0.0
H3485 H 0.16501 0.16289 0.20427 0.0
H3486 H 0.14119 0.13793 0.19508 0.0
H3487 H 0.1276 0.15498 0.18332 0.0
H3488 H 0.11734 0.14103 0.20102 0.0
H3489 H 0.09548 0.18528 0.25365 0.0
H3490 H 0.08456 0.21071 0.23388 0.0
H3491 H 0.12055 0.19234 0.19028 0.0
C3492 C 0.15127 0.14204 0.23586 0.0
C3493 C 0.15248 0.13754 0.25461 0.0
C3494 C 0.1397 0.1449 0.26723 0.0
C3495 C 0.12566 0.1567 0.26107 0.0
C3496 C 0.12484 0.161 0.24234 0.0
C3497 C 0.13754 0.15404 0.23002 0.0
C3498 C 0.13563 0.16269 0.21125 0.0
C3499 C 0.15344 0.17275 0.2057 0.0
C3500 C 0.13011 0.1483 0.19681 0.0
C3501 C 0.12011 0.17598 0.21492 0.0
C3502 C 0.11365 0.17447 0.23276 0.0
C3503 C 0.10019 0.18632 0.23958 0.0
C3504 C 0.09388 0.20057 0.2282 0.0
C3505 C 0.10141 0.20305 0.21045 0.0
C3506 C 0.11415 0.19024 0.20356 0.0
H3507 H 0.86182 0.16412 0.22672 0.0
H3508 H 0.86074 0.14295 0.28229 0.0
H3509 H 0.83779 0.11946 0.27282 0.0
H3510 H 0.81419 0.16189 0.22093 0.0
H3511 H 0.81514 0.15658 0.19675 0.0
H3512 H 0.83353 0.16925 0.2073 0.0
H3513 H 0.85686 0.14499 0.19556 0.0
H3514 H 0.83844 0.13209 0.18516 0.0
H3515 H 0.85363 0.12113 0.20136 0.0
H3516 H 0.81336 0.1001 0.25775 0.0
H3517 H 0.7865 0.08933 0.23984 0.0
H3518 H 0.80212 0.12482 0.1948 0.0
C3519 C 0.85708 0.15416 0.23672 0.0
C3520 C 0.86324 0.15485 0.25507 0.0
C3521 C 0.85628 0.14229 0.2681 0.0
C3522 C 0.84338 0.12892 0.2628 0.0
C3523 C 0.83744 0.12863 0.24453 0.0
C3524 C 0.84387 0.14116 0.23178 0.0
C3525 C 0.8335 0.13979 0.2138 0.0
C3526 C 0.8235 0.15794 0.20945 0.0
C3527 C 0.84638 0.13416 0.19804 0.0
C3528 C 0.82008 0.12458 0.2184 0.0
C3529 C 0.82283 0.11804 0.23606 0.0
C3530 C 0.81131 0.10485 0.24381 0.0
C3531 C 0.79623 0.09867 0.23351 0.0
C3532 C 0.7928 0.1058 0.21578 0.0
C3533 C 0.80502 0.11863 0.20802 0.0
H3534 H 0.86774 0.77615 0.23929 0.0
H3535 H 0.90458 0.80058 0.1992 0.0
H3536 H 0.89652 0.83147 0.21113 0.0
H3537 H 0.83273 0.80728 0.23509 0.0
H3538 H 0.8266 0.80677 0.25911 0.0
H3539 H 0.83738 0.78715 0.24876 0.0
H3540 H 0.86287 0.78863 0.27373 0.0
H3541 H 0.85214 0.80859 0.28376 0.0
H3542 H 0.87587 0.80951 0.27671 0.0
H3543 H 0.88162 0.85965 0.22545 0.0
H3544 H 0.86033 0.8822 0.23905 0.0
H3545 H 0.83352 0.83846 0.26952 0.0
C3546 C 0.87451 0.78787 0.23316 0.0
C3547 C 0.88689 0.78586 0.21831 0.0
C3548 C 0.89513 0.80173 0.21064 0.0
C3549 C 0.89069 0.81932 0.2174 0.0
C3550 C 0.87819 0.82071 0.23192 0.0
C3551 C 0.8703 0.80533 0.23971 0.0
C3552 C 0.85606 0.81028 0.25399 0.0
C3553 C 0.83708 0.80241 0.24891 0.0
C3554 C 0.86211 0.80387 0.27319 0.0
C3555 C 0.85646 0.83097 0.25252 0.0
C3556 C 0.86957 0.83678 0.24002 0.0
C3557 C 0.8715 0.85525 0.23542 0.0
C3558 C 0.85929 0.86797 0.24325 0.0
C3559 C 0.84514 0.86213 0.25535 0.0
C3560 C 0.84424 0.84346 0.26049 0.0
H3561 H 0.21126 0.86087 0.19396 0.0
H3562 H 0.20265 0.91519 0.21672 0.0
H3563 H 0.17522 0.90376 0.23346 0.0
H3564 H 0.1613 0.84832 0.19021 0.0
H3565 H 0.1662 0.82474 0.19593 0.0
H3566 H 0.18296 0.83823 0.18365 0.0
H3567 H 0.20701 0.83052 0.20875 0.0
H3568 H 0.19024 0.81755 0.22146 0.0
H3569 H 0.20224 0.83629 0.23237 0.0
H3570 H 0.15054 0.88526 0.24996 0.0
H3571 H 0.12941 0.86192 0.26299 0.0
H3572 H 0.15595 0.81972 0.2304 0.0
C3573 C 0.20317 0.87049 0.20194 0.0
C3574 C 0.20877 0.88892 0.20391 0.0
C3575 C 0.1982 0.90113 0.21472 0.0
C3576 C 0.18277 0.8947 0.2244 0.0
C3577 C 0.17812 0.87614 0.22285 0.0
C3578 C 0.18782 0.86433 0.21157 0.0
C3579 C 0.1808 0.84484 0.21296 0.0
C3580 C 0.17231 0.83867 0.1946 0.0
C3581 C 0.19598 0.83153 0.21927 0.0
C3582 C 0.16622 0.84727 0.22752 0.0
C3583 C 0.16458 0.86546 0.23281 0.0
C3584 C 0.15168 0.87102 0.24585 0.0
C3585 C 0.13986 0.85769 0.25327 0.0
C3586 C 0.14137 0.83905 0.24792 0.0
C3587 C 0.15486 0.8338 0.23508 0.0
H3588 H 0.12586 0.78049 0.75977 0.0
H3589 H 0.09164 0.80586 0.8013 0.0
H3590 H 0.09991 0.83658 0.78887 0.0
H3591 H 0.16185 0.80982 0.762 0.0
H3592 H 0.16683 0.80938 0.73771 0.0
H3593 H 0.15569 0.79012 0.74829 0.0
H3594 H 0.12902 0.79299 0.72474 0.0
H3595 H 0.14018 0.81251 0.71434 0.0
H3596 H 0.1169 0.81448 0.72257 0.0
H3597 H 0.11578 0.86443 0.77414 0.0
H3598 H 0.13763 0.88604 0.7599 0.0
H3599 H 0.16113 0.84131 0.72816 0.0
C3600 C 0.11975 0.79237 0.76609 0.0
C3601 C 0.10817 0.7907 0.78155 0.0
C3602 C 0.10047 0.80678 0.78935 0.0
C3603 C 0.10509 0.82426 0.78235 0.0
C3604 C 0.11706 0.82531 0.76732 0.0
C3605 C 0.12406 0.80967 0.75919 0.0
C3606 C 0.13782 0.81413 0.74428 0.0
C3607 C 0.15665 0.80535 0.74834 0.0
C3608 C 0.13054 0.80817 0.72536 0.0
C3609 C 0.13844 0.8348 0.74591 0.0
C3610 C 0.12607 0.8411 0.75894 0.0
C3611 C 0.12526 0.85962 0.76373 0.0
C3612 C 0.13779 0.87183 0.75552 0.0
C3613 C 0.15123 0.86544 0.74286 0.0
C3614 C 0.15098 0.84677 0.73758 0.0
H3615 H 0.21814 0.11805 0.75929 0.0
H3616 H 0.19381 0.08852 0.80484 0.0
H3617 H 0.16298 0.09937 0.79498 0.0
H3618 H 0.19423 0.15691 0.76593 0.0
H3619 H 0.19212 0.1632 0.74207 0.0
H3620 H 0.21112 0.14931 0.74947 0.0
H3621 H 0.20244 0.12404 0.72594 0.0
H3622 H 0.18351 0.13797 0.71811 0.0
H3623 H 0.17945 0.11479 0.72581 0.0
H3624 H 0.13579 0.11756 0.78278 0.0
H3625 H 0.11506 0.14121 0.77045 0.0
H3626 H 0.15865 0.16095 0.73478 0.0
C3627 C 0.20636 0.11334 0.76691 0.0
C3628 C 0.2084 0.10241 0.7828 0.0
C3629 C 0.19254 0.09664 0.79244 0.0
C3630 C 0.17502 0.10284 0.78696 0.0
C3631 C 0.17374 0.11464 0.77183 0.0
C3632 C 0.18907 0.11969 0.76189 0.0
C3633 C 0.18481 0.13453 0.74796 0.0
C3634 C 0.19624 0.152 0.75159 0.0
C3635 C 0.18772 0.1274 0.72829 0.0
C3636 C 0.1647 0.13762 0.75196 0.0
C3637 C 0.15843 0.12574 0.76544 0.0
C3638 C 0.14053 0.12672 0.77207 0.0
C3639 C 0.12886 0.1403 0.76497 0.0
C3640 C 0.13521 0.15305 0.75161 0.0
C3641 C 0.15331 0.1514 0.74487 0.0
H3642 H 0.87729 0.19675 0.80304 0.0
H3643 H 0.90153 0.22264 0.75533 0.0
H3644 H 0.89301 0.19589 0.73623 0.0
H3645 H 0.89006 0.14783 0.78948 0.0
H3646 H 0.86879 0.13903 0.79864 0.0
H3647 H 0.87955 0.15876 0.80909 0.0
H3648 H 0.84956 0.17794 0.8046 0.0
H3649 H 0.83909 0.15779 0.79508 0.0
H3650 H 0.83926 0.17888 0.78207 0.0
H3651 H 0.87581 0.17001 0.72142 0.0
H3652 H 0.85486 0.14445 0.71283 0.0
H3653 H 0.84451 0.13393 0.7705 0.0
C3654 C 0.88151 0.19627 0.78877 0.0
C3655 C 0.8903 0.21137 0.78058 0.0
C3656 C 0.8951 0.21087 0.76177 0.0
C3657 C 0.89026 0.1958 0.75084 0.0
C3658 C 0.88098 0.18126 0.7591 0.0
C3659 C 0.87708 0.18114 0.77775 0.0
C3660 C 0.86581 0.1645 0.78296 0.0
C3661 C 0.87671 0.15178 0.7958 0.0
C3662 C 0.84733 0.17015 0.79165 0.0
C3663 C 0.86317 0.15584 0.76422 0.0
C3664 C 0.872 0.16568 0.7506 0.0
C3665 C 0.86942 0.16172 0.73198 0.0
C3666 C 0.85752 0.14729 0.7272 0.0
C3667 C 0.84874 0.1369 0.74102 0.0
C3668 C 0.85181 0.14112 0.7597 0.0
H3669 H 0.83993 0.84452 0.73207 0.0
H3670 H 0.8729 0.83611 0.78099 0.0
H3671 H 0.85236 0.85617 0.79865 0.0
H3672 H 0.82816 0.8936 0.74288 0.0
H3673 H 0.80522 0.89137 0.73382 0.0
H3674 H 0.82371 0.87796 0.72419 0.0
H3675 H 0.80535 0.84801 0.73037 0.0
H3676 H 0.78683 0.86138 0.7398 0.0
H3677 H 0.79713 0.84335 0.75329 0.0
H3678 H 0.82672 0.87434 0.812 0.0
H3679 H 0.79663 0.88815 0.81994 0.0
H3680 H 0.78094 0.88622 0.76258 0.0
C3681 C 0.84289 0.84718 0.74641 0.0
C3682 C 0.85819 0.83909 0.75508 0.0
C3683 C 0.86157 0.84263 0.77394 0.0
C3684 C 0.84995 0.85399 0.78414 0.0
C3685 C 0.83509 0.86195 0.77525 0.0
C3686 C 0.83152 0.85881 0.7568 0.0
C3687 C 0.81396 0.86827 0.75097 0.0
C3688 C 0.81801 0.88371 0.73714 0.0
C3689 C 0.8 0.85442 0.74316 0.0
C3690 C 0.80772 0.87607 0.76923 0.0
C3691 C 0.8203 0.87267 0.783 0.0
C3692 C 0.81688 0.87742 0.80129 0.0
C3693 C 0.79984 0.88532 0.80569 0.0
C3694 C 0.78653 0.88808 0.79185 0.0
C3695 C 0.79083 0.88403 0.77339 0.0
H3696 H 0.23719 0.12136 0.21631 0.0
H3697 H 0.18355 0.10642 0.19552 0.0
H3698 H 0.19373 0.11466 0.16395 0.0
H3699 H 0.24209 0.16088 0.19178 0.0
H3700 H 0.26647 0.15871 0.18794 0.0
H3701 H 0.25616 0.14812 0.2077 0.0
H3702 H 0.26937 0.11655 0.19784 0.0
H3703 H 0.27979 0.12703 0.17795 0.0
H3704 H 0.26449 0.10775 0.17521 0.0
H3705 H 0.20893 0.12794 0.13562 0.0
H3706 H 0.22604 0.14708 0.1137 0.0
H3707 H 0.26893 0.15554 0.15424 0.0
C3708 C 0.22762 0.11976 0.20514 0.0
C3709 C 0.20958 0.11353 0.20827 0.0
C3710 C 0.19751 0.11107 0.19326 0.0
C3711 C 0.20321 0.11569 0.17536 0.0
C3712 C 0.22104 0.12245 0.17287 0.0
C3713 C 0.23306 0.12439 0.18741 0.0
C3714 C 0.25071 0.13377 0.18171 0.0
C3715 C 0.25403 0.15142 0.19294 0.0
C3716 C 0.26706 0.12048 0.18327 0.0
C3717 C 0.24636 0.13794 0.16185 0.0
C3718 C 0.2295 0.1307 0.15682 0.0
C3719 C 0.22222 0.13346 0.13937 0.0
C3720 C 0.23211 0.14439 0.12698 0.0
C3721 C 0.24886 0.1529 0.13225 0.0
C3722 C 0.25625 0.14916 0.14977 0.0
H3723 H 0.83622 0.22962 0.13614 0.0
H3724 H 0.85111 0.28647 0.1455 0.0
H3725 H 0.87208 0.27677 0.17062 0.0
H3726 H 0.83183 0.21865 0.18194 0.0
H3727 H 0.84031 0.19545 0.18008 0.0
H3728 H 0.82969 0.20626 0.16058 0.0
H3729 H 0.85881 0.20001 0.14101 0.0
H3730 H 0.8695 0.18905 0.16049 0.0
H3731 H 0.88088 0.20786 0.14909 0.0
H3732 H 0.88968 0.26107 0.19573 0.0
H3733 H 0.89933 0.24148 0.22171 0.0
H3734 H 0.8698 0.19541 0.19829 0.0
C3735 C 0.84438 0.23993 0.14315 0.0
C3736 C 0.84257 0.25872 0.13874 0.0
C3737 C 0.85268 0.272 0.1486 0.0
C3738 C 0.86462 0.26658 0.16276 0.0
C3739 C 0.86593 0.2479 0.16699 0.0
C3740 C 0.85588 0.23479 0.15761 0.0
C3741 C 0.85762 0.21603 0.16648 0.0
C3742 C 0.83875 0.20868 0.17264 0.0
C3743 C 0.86728 0.20244 0.15349 0.0
C3744 C 0.86971 0.22073 0.18273 0.0
C3745 C 0.87488 0.23904 0.18237 0.0
C3746 C 0.88581 0.24672 0.19608 0.0
C3747 C 0.89124 0.23552 0.21073 0.0
C3748 C 0.8853 0.21707 0.21178 0.0
C3749 C 0.8746 0.20948 0.19756 0.0
H3750 H 0.76125 0.88804 0.21167 0.0
H3751 H 0.81943 0.88139 0.20112 0.0
H3752 H 0.81255 0.87018 0.16979 0.0
H3753 H 0.74692 0.84829 0.19187 0.0
H3754 H 0.72606 0.85692 0.18164 0.0
H3755 H 0.73543 0.86797 0.20163 0.0
H3756 H 0.7364 0.89909 0.18446 0.0
H3757 H 0.72682 0.88822 0.16435 0.0
H3758 H 0.74816 0.90066 0.16272 0.0
H3759 H 0.79951 0.85649 0.14164 0.0
H3760 H 0.78146 0.83944 0.11888 0.0
H3761 H 0.73121 0.85319 0.14789 0.0
C3762 C 0.77247 0.88469 0.20249 0.0
C3763 C 0.79085 0.88587 0.20843 0.0
C3764 C 0.80531 0.88102 0.19645 0.0
C3765 C 0.8015 0.87464 0.1787 0.0
C3766 C 0.78317 0.87334 0.17324 0.0
C3767 C 0.76887 0.87829 0.18472 0.0
C3768 C 0.75041 0.87378 0.17616 0.0
C3769 C 0.73906 0.86096 0.18856 0.0
C3770 C 0.73982 0.89149 0.17166 0.0
C3771 C 0.7566 0.86421 0.15874 0.0
C3772 C 0.77554 0.8648 0.15704 0.0
C3773 C 0.78466 0.85631 0.14258 0.0
C3774 C 0.77423 0.84675 0.12962 0.0
C3775 C 0.75487 0.84536 0.13139 0.0
C3776 C 0.74593 0.85435 0.14606 0.0
H3777 H 0.11299 0.75819 0.21598 0.0
H3778 H 0.09165 0.80954 0.19466 0.0
H3779 H 0.10086 0.79989 0.16324 0.0
H3780 H 0.15254 0.76028 0.1924 0.0
H3781 H 0.15507 0.73587 0.18903 0.0
H3782 H 0.14233 0.74433 0.20837 0.0
H3783 H 0.11393 0.72539 0.19831 0.0
H3784 H 0.12665 0.71667 0.17891 0.0
H3785 H 0.1049 0.728 0.17539 0.0
H3786 H 0.11725 0.78666 0.13527 0.0
H3787 H 0.14007 0.77283 0.11439 0.0
H3788 H 0.15265 0.73159 0.15558 0.0
C3789 C 0.10964 0.76725 0.20472 0.0
C3790 C 0.1015 0.78462 0.20783 0.0
C3791 C 0.0976 0.79605 0.19261 0.0
C3792 C 0.10286 0.79067 0.17473 0.0
C3793 C 0.1119 0.77384 0.17242 0.0
C3794 C 0.11517 0.76232 0.18711 0.0
C3795 C 0.12773 0.74655 0.182 0.0
C3796 C 0.14545 0.7468 0.19363 0.0
C3797 C 0.11769 0.72806 0.18375 0.0
C3798 C 0.13158 0.75121 0.16216 0.0
C3799 C 0.12201 0.76672 0.15671 0.0
C3800 C 0.12457 0.77439 0.13936 0.0
C3801 C 0.13763 0.7664 0.12758 0.0
C3802 C 0.14828 0.75111 0.13334 0.0
C3803 C 0.14468 0.74314 0.15065 0.0
H3804 H 0.23726 0.88555 0.78523 0.0
H3805 H 0.17939 0.87897 0.79748 0.0
H3806 H 0.18731 0.8648 0.82738 0.0
H3807 H 0.2525 0.84467 0.80142 0.0
H3808 H 0.27355 0.85255 0.81187 0.0
H3809 H 0.26367 0.86514 0.79306 0.0
H3810 H 0.2628 0.89479 0.81262 0.0
H3811 H 0.2731 0.88247 0.8315 0.0
H3812 H 0.2517 0.8945 0.83476 0.0
H3813 H 0.20115 0.84795 0.85318 0.0
H3814 H 0.22 0.8304 0.87492 0.0
H3815 H 0.26957 0.84749 0.84655 0.0
C3816 C 0.22636 0.88162 0.79457 0.0
C3817 C 0.20776 0.88349 0.78946 0.0
C3818 C 0.19368 0.87793 0.80155 0.0
C3819 C 0.19807 0.86986 0.81845 0.0
C3820 C 0.21659 0.86775 0.82298 0.0
C3821 C 0.23054 0.87374 0.81158 0.0
C3822 C 0.24927 0.86874 0.81927 0.0
C3823 C 0.26039 0.85707 0.80559 0.0
C3824 C 0.25985 0.88616 0.82487 0.0
C3825 C 0.24364 0.85775 0.83604 0.0
C3826 C 0.22471 0.85785 0.83809 0.0
C3827 C 0.21598 0.84818 0.85202 0.0
C3828 C 0.22683 0.83831 0.86434 0.0
C3829 C 0.24622 0.83802 0.86266 0.0
C3830 C 0.25478 0.84773 0.84823 0.0
H3831 H 0.12326 0.23805 0.78185 0.0
H3832 H 0.09119 0.1941 0.80587 0.0
H3833 H 0.09905 0.20572 0.83699 0.0
H3834 H 0.15934 0.23595 0.8106 0.0
H3835 H 0.16369 0.26031 0.81164 0.0
H3836 H 0.15269 0.25064 0.7918 0.0
H3837 H 0.12509 0.27276 0.7959 0.0
H3838 H 0.13605 0.28272 0.81578 0.0
H3839 H 0.11311 0.27354 0.81758 0.0
H3840 H 0.11448 0.21972 0.86514 0.0
H3841 H 0.13609 0.23374 0.88717 0.0
H3842 H 0.15768 0.26846 0.84374 0.0
C3843 C 0.11755 0.23105 0.79356 0.0
C3844 C 0.1067 0.21516 0.79143 0.0
C3845 C 0.09944 0.20641 0.80721 0.0
C3846 C 0.10382 0.21294 0.8249 0.0
C3847 C 0.11507 0.22844 0.82644 0.0
C3848 C 0.12162 0.23747 0.81109 0.0
C3849 C 0.13483 0.25268 0.81608 0.0
C3850 C 0.15375 0.2497 0.807 0.0
C3851 C 0.12679 0.27154 0.81104 0.0
C3852 C 0.13566 0.25016 0.83664 0.0
C3853 C 0.12387 0.23644 0.84248 0.0
C3854 C 0.12348 0.23071 0.86075 0.0
C3855 C 0.13584 0.2388 0.87318 0.0
C3856 C 0.14864 0.25224 0.86721 0.0
C3857 C 0.14799 0.25837 0.84883 0.0
H3858 H 0.78673 0.10073 0.80574 0.0
H3859 H 0.81047 0.14898 0.77967 0.0
H3860 H 0.79451 0.16879 0.8013 0.0
H3861 H 0.74542 0.11599 0.81922 0.0
H3862 H 0.74453 0.10854 0.84283 0.0
H3863 H 0.75891 0.09657 0.8266 0.0
H3864 H 0.78753 0.10192 0.84696 0.0
H3865 H 0.77314 0.11329 0.86366 0.0
H3866 H 0.79302 0.12488 0.85449 0.0
H3867 H 0.76622 0.18124 0.81444 0.0
H3868 H 0.7431 0.19143 0.83621 0.0
H3869 H 0.74737 0.13972 0.86569 0.0
C3870 C 0.78929 0.11537 0.80523 0.0
C3871 C 0.79895 0.12338 0.79025 0.0
C3872 C 0.80237 0.14256 0.79036 0.0
C3873 C 0.79334 0.15401 0.80256 0.0
C3874 C 0.78223 0.14599 0.81569 0.0
C3875 C 0.78154 0.12728 0.81855 0.0
C3876 C 0.7697 0.12324 0.83548 0.0
C3877 C 0.75369 0.11031 0.83074 0.0
C3878 C 0.78155 0.11536 0.85108 0.0
C3879 C 0.76279 0.14252 0.84023 0.0
C3880 C 0.7696 0.15497 0.82772 0.0
C3881 C 0.7622 0.17235 0.82567 0.0
C3882 C 0.74903 0.17802 0.83821 0.0
C3883 C 0.74485 0.16728 0.85389 0.0
C3884 C 0.75111 0.14875 0.85447 0.0
H3885 H 0.83717 0.73058 0.8393 0.0
H3886 H 0.85651 0.76681 0.88258 0.0
H3887 H 0.87973 0.77959 0.8614 0.0
H3888 H 0.88259 0.7236 0.81555 0.0
H3889 H 0.8716 0.72409 0.79335 0.0
H3890 H 0.85944 0.71513 0.813 0.0
H3891 H 0.83292 0.73798 0.8068 0.0
H3892 H 0.84497 0.74725 0.7874 0.0
H3893 H 0.83775 0.76225 0.80574 0.0
H3894 H 0.89737 0.79205 0.83372 0.0
H3895 H 0.90656 0.80278 0.80264 0.0
H3896 H 0.87536 0.75825 0.77857 0.0
C3897 C 0.84666 0.74076 0.84458 0.0
C3898 C 0.84498 0.74763 0.86264 0.0
C3899 C 0.85751 0.76125 0.86881 0.0
C3900 C 0.87083 0.76856 0.85689 0.0
C3901 C 0.87159 0.762 0.8389 0.0
C3902 C 0.8599 0.74824 0.83288 0.0
C3903 C 0.86171 0.74511 0.81245 0.0
C3904 C 0.8693 0.72583 0.80835 0.0
C3905 C 0.84326 0.74836 0.80253 0.0
C3906 C 0.87561 0.75978 0.80777 0.0
C3907 C 0.88151 0.76922 0.82313 0.0
C3908 C 0.89311 0.78449 0.82164 0.0
C3909 C 0.89829 0.79049 0.80396 0.0
C3910 C 0.89157 0.78139 0.78815 0.0
C3911 C 0.8807 0.76552 0.79029 0.0
H3912 H 0.15692 0.26333 0.16027 0.0
H3913 H 0.11481 0.22688 0.13895 0.0
H3914 H 0.13723 0.21413 0.1168 0.0
H3915 H 0.18268 0.27033 0.11618 0.0
H3916 H 0.20433 0.27015 0.1282 0.0
H3917 H 0.18403 0.27892 0.13938 0.0
H3918 H 0.1891 0.25608 0.16634 0.0
H3919 H 0.20926 0.24724 0.15519 0.0
H3920 H 0.19089 0.23186 0.16147 0.0
H3921 H 0.16585 0.20222 0.1002 0.0
H3922 H 0.19737 0.19253 0.09145 0.0
H3923 H 0.21978 0.23639 0.12483 0.0
C3924 C 0.15218 0.25307 0.15058 0.0
C3925 C 0.1341 0.24614 0.15134 0.0
C3926 C 0.12856 0.23255 0.13852 0.0
C3927 C 0.14122 0.22521 0.12589 0.0
C3928 C 0.15923 0.2318 0.12612 0.0
C3929 C 0.16458 0.2456 0.13805 0.0
C3930 C 0.18504 0.24893 0.13727 0.0
C3931 C 0.18926 0.26823 0.12981 0.0
C3932 C 0.19409 0.24583 0.15618 0.0
C3933 C 0.19055 0.23428 0.12369 0.0
C3934 C 0.17554 0.22475 0.11702 0.0
C3935 C 0.17765 0.20982 0.10513 0.0
C3936 C 0.19557 0.20439 0.10024 0.0
C3937 C 0.21102 0.21365 0.10761 0.0
C3938 C 0.20832 0.22898 0.11909 0.0
H3939 H 0.21733 0.7588 0.8838 0.0
H3940 H 0.19706 0.81155 0.9023 0.0
H3941 H 0.16605 0.80353 0.89075 0.0
H3942 H 0.19644 0.7581 0.84279 0.0
H3943 H 0.19097 0.73395 0.84224 0.0
H3944 H 0.21011 0.74192 0.85563 0.0
H3945 H 0.19646 0.72687 0.88485 0.0
H3946 H 0.17729 0.71854 0.87152 0.0
H3947 H 0.17329 0.73228 0.89174 0.0
H3948 H 0.13879 0.79147 0.87318 0.0
H3949 H 0.11774 0.77711 0.85101 0.0
H3950 H 0.15674 0.73284 0.84232 0.0
C3951 C 0.20628 0.76846 0.88582 0.0
C3952 C 0.20954 0.78577 0.8939 0.0
C3953 C 0.19475 0.7981 0.8964 0.0
C3954 C 0.17712 0.79365 0.88984 0.0
C3955 C 0.17459 0.77671 0.88114 0.0
C3956 C 0.18875 0.76421 0.87936 0.0
C3957 C 0.18315 0.74781 0.86785 0.0
C3958 C 0.19592 0.74532 0.85114 0.0
C3959 C 0.18251 0.73034 0.87969 0.0
C3960 C 0.16403 0.75364 0.86217 0.0
C3961 C 0.15911 0.77002 0.87052 0.0
C3962 C 0.1424 0.77851 0.86684 0.0
C3963 C 0.13051 0.77021 0.85417 0.0
C3964 C 0.13556 0.7538 0.84491 0.0
C3965 C 0.15246 0.74532 0.84921 0.0
H3966 H 0.23442 0.21296 0.88969 0.0
H3967 H 0.17702 0.19764 0.89248 0.0
H3968 H 0.18454 0.16719 0.87928 0.0
H3969 H 0.2435 0.19626 0.84795 0.0
H3970 H 0.26625 0.18742 0.85229 0.0
H3971 H 0.25744 0.20595 0.86599 0.0
H3972 H 0.26297 0.18735 0.89576 0.0
H3973 H 0.27224 0.16876 0.88222 0.0
H3974 H 0.25349 0.16457 0.89786 0.0
H3975 H 0.19735 0.14103 0.86141 0.0
H3976 H 0.21441 0.12043 0.8407 0.0
H3977 H 0.26359 0.15324 0.84798 0.0
C3978 C 0.22361 0.20289 0.88811 0.0
C3979 C 0.20523 0.20734 0.89231 0.0
C3980 C 0.19124 0.19414 0.88981 0.0
C3981 C 0.19541 0.1769 0.88224 0.0
C3982 C 0.21363 0.17315 0.87751 0.0
C3983 C 0.22758 0.18565 0.88062 0.0
C3984 C 0.24564 0.17903 0.87259 0.0
C3985 C 0.25366 0.193 0.85888 0.0
C3986 C 0.2594 0.17467 0.88802 0.0
C3987 C 0.23937 0.16163 0.86309 0.0
C3988 C 0.221 0.15818 0.86669 0.0
C3989 C 0.21182 0.14335 0.85887 0.0
C3990 C 0.22164 0.13171 0.84715 0.0
C3991 C 0.24035 0.13513 0.843 0.0
C3992 C 0.24933 0.15028 0.85108 0.0
H3993 H 0.79258 0.19683 0.86439 0.0
H3994 H 0.78929 0.2328 0.91163 0.0
H3995 H 0.81804 0.2483 0.90191 0.0
H3996 H 0.84448 0.1937 0.86272 0.0
H3997 H 0.84436 0.19367 0.83795 0.0
H3998 H 0.82553 0.18351 0.85042 0.0
H3999 H 0.80267 0.20437 0.83286 0.0
H4000 H 0.8214 0.21466 0.8205 0.0
H4001 H 0.80579 0.22894 0.8334 0.0
H4002 H 0.84371 0.26328 0.88389 0.0
H4003 H 0.86585 0.27456 0.86037 0.0
H4004 H 0.85348 0.22737 0.82632 0.0
C4005 C 0.79848 0.20739 0.87308 0.0
C4006 C 0.78925 0.21341 0.88896 0.0
C4007 C 0.79666 0.22777 0.8997 0.0
C4008 C 0.81286 0.23667 0.89422 0.0
C4009 C 0.82144 0.23084 0.87809 0.0
C4010 C 0.81471 0.21623 0.86789 0.0
C4011 C 0.82551 0.21359 0.85033 0.0
C4012 C 0.83557 0.19502 0.85037 0.0
C4013 C 0.8131 0.21552 0.83329 0.0
C4014 C 0.83886 0.22943 0.85187 0.0
C4015 C 0.83639 0.23924 0.86796 0.0
C4016 C 0.84605 0.25547 0.87144 0.0
C4017 C 0.85849 0.26184 0.85807 0.0
C4018 C 0.861 0.2519 0.8416 0.0
C4019 C 0.85145 0.23534 0.83872 0.0
H4020 H 0.75523 0.86652 0.85511 0.0
H4021 H 0.71106 0.84057 0.82446 0.0
H4022 H 0.7171 0.81152 0.84044 0.0
H4023 H 0.78594 0.83302 0.85217 0.0
H4024 H 0.79533 0.8338 0.8751 0.0
H4025 H 0.78493 0.85397 0.86539 0.0
H4026 H 0.7625 0.85625 0.89285 0.0
H4027 H 0.77309 0.83624 0.90294 0.0
H4028 H 0.74865 0.83666 0.89899 0.0
H4029 H 0.73102 0.7848 0.85402 0.0
H4030 H 0.75125 0.76118 0.86616 0.0
H4031 H 0.78763 0.80264 0.88853 0.0
C4032 C 0.74635 0.85491 0.85235 0.0
C4033 C 0.73264 0.85582 0.83852 0.0
C4034 C 0.7216 0.84023 0.83497 0.0
C4035 C 0.72487 0.82367 0.84407 0.0
C4036 C 0.73908 0.82294 0.85686 0.0
C4037 C 0.74948 0.83815 0.86135 0.0
C4038 C 0.76524 0.83287 0.87409 0.0
C4039 C 0.78396 0.83876 0.8662 0.0
C4040 C 0.76219 0.84099 0.89336 0.0
C4041 C 0.76312 0.81209 0.8744 0.0
C4042 C 0.74751 0.80693 0.86485 0.0
C4043 C 0.74307 0.78867 0.86182 0.0
C4044 C 0.75489 0.77525 0.86854 0.0
C4045 C 0.77119 0.77989 0.87804 0.0
C4046 C 0.77518 0.79864 0.88143 0.0
H4047 H 0.78971 0.79768 0.1374 0.0
H4048 H 0.7967 0.77402 0.08315 0.0
H4049 H 0.82411 0.75694 0.09442 0.0
H4050 H 0.83828 0.80023 0.1509 0.0
H4051 H 0.8328 0.79403 0.17425 0.0
H4052 H 0.81638 0.80657 0.16062 0.0
H4053 H 0.79217 0.78137 0.16721 0.0
H4054 H 0.80855 0.76835 0.18033 0.0
H4055 H 0.79701 0.75787 0.16106 0.0
H4056 H 0.85001 0.74096 0.11326 0.0
H4057 H 0.87098 0.72816 0.13706 0.0
H4058 H 0.84291 0.75994 0.17879 0.0
C4059 C 0.79719 0.78923 0.12769 0.0
C4060 C 0.79112 0.78717 0.10939 0.0
C4061 C 0.80131 0.77598 0.09717 0.0
C4062 C 0.81676 0.76614 0.10352 0.0
C4063 C 0.82166 0.76769 0.12206 0.0
C4064 C 0.81214 0.77912 0.13386 0.0
C4065 C 0.81871 0.77741 0.15345 0.0
C4066 C 0.82704 0.79564 0.16019 0.0
C4067 C 0.80319 0.77085 0.16626 0.0
C4068 C 0.83324 0.76286 0.15108 0.0
C4069 C 0.83514 0.75763 0.13289 0.0
C4070 C 0.84843 0.74486 0.12753 0.0
C4071 C 0.86015 0.73754 0.14109 0.0
C4072 C 0.85801 0.74259 0.15977 0.0
C4073 C 0.84431 0.75528 0.16473 0.0
H4074 H 0.20519 0.80941 0.10777 0.0
H4075 H 0.23808 0.76865 0.13577 0.0
H4076 H 0.25988 0.79161 0.14525 0.0
H4077 H 0.24519 0.84169 0.09598 0.0
H4078 H 0.23215 0.86203 0.10141 0.0
H4079 H 0.22071 0.842 0.09228 0.0
H4080 H 0.19871 0.84151 0.12031 0.0
H4081 H 0.20987 0.86166 0.12923 0.0
H4082 H 0.20824 0.84126 0.1432 0.0
H4083 H 0.27743 0.81765 0.15355 0.0
H4084 H 0.28523 0.84669 0.16837 0.0
H4085 H 0.24008 0.87339 0.13974 0.0
C4086 C 0.21724 0.80541 0.1155 0.0
C4087 C 0.22015 0.78683 0.12056 0.0
C4088 C 0.23566 0.78236 0.13132 0.0
C4089 C 0.24838 0.79546 0.13664 0.0
C4090 C 0.24541 0.81345 0.13143 0.0
C4091 C 0.23 0.81875 0.12163 0.0
C4092 C 0.22876 0.83963 0.12118 0.0
C4093 C 0.23188 0.84676 0.10155 0.0
C4094 C 0.2103 0.8464 0.12896 0.0
C4095 C 0.24488 0.84478 0.13358 0.0
C4096 C 0.25487 0.82936 0.13818 0.0
C4097 C 0.26983 0.82993 0.15004 0.0
C4098 C 0.27413 0.84655 0.15845 0.0
C4099 C 0.26311 0.86228 0.15548 0.0
C4100 C 0.24882 0.86161 0.14219 0.0
H4101 H 0.74537 0.16069 0.17563 0.0
H4102 H 0.75645 0.11696 0.13657 0.0
H4103 H 0.7696 0.13981 0.11499 0.0
H4104 H 0.73542 0.19761 0.14335 0.0
H4105 H 0.74726 0.21422 0.1574 0.0
H4106 H 0.73618 0.19478 0.16796 0.0
H4107 H 0.76695 0.18609 0.18361 0.0
H4108 H 0.77829 0.20521 0.17287 0.0
H4109 H 0.78711 0.18227 0.16974 0.0
H4110 H 0.78336 0.16841 0.09844 0.0
H4111 H 0.79612 0.19883 0.0895 0.0
H4112 H 0.77866 0.22092 0.14214 0.0
C4113 C 0.75011 0.15582 0.1624 0.0
C4114 C 0.74973 0.13702 0.15778 0.0
C4115 C 0.75645 0.13135 0.14037 0.0
C4116 C 0.76398 0.14422 0.12804 0.0
C4117 C 0.76483 0.16259 0.13347 0.0
C4118 C 0.75803 0.16826 0.1503 0.0
C4119 C 0.76204 0.18821 0.15398 0.0
C4120 C 0.74416 0.19936 0.15577 0.0
C4121 C 0.77434 0.19057 0.17105 0.0
C4122 C 0.77223 0.19298 0.13666 0.0
C4123 C 0.77356 0.17829 0.12473 0.0
C4124 C 0.78234 0.17998 0.10772 0.0
C4125 C 0.78962 0.19725 0.1028 0.0
C4126 C 0.78829 0.21236 0.11503 0.0
C4127 C 0.77977 0.20987 0.13225 0.0
H4128 H 0.65457 0.65423 0.77337 0.0
H4129 H 0.65132 0.6157 0.72791 0.0
H4130 H 0.63159 0.6369 0.71101 0.0
H4131 H 0.60535 0.67128 0.76763 0.0
H4132 H 0.61184 0.6943 0.77404 0.0
H4133 H 0.62371 0.67489 0.78386 0.0
H4134 H 0.65479 0.68828 0.77252 0.0
H4135 H 0.64302 0.70756 0.7626 0.0
H4136 H 0.65769 0.69347 0.74846 0.0
H4137 H 0.61722 0.66456 0.69646 0.0
H4138 H 0.60703 0.69577 0.68728 0.0
H4139 H 0.61547 0.71452 0.74301 0.0
C4140 C 0.6492 0.65003 0.76015 0.0
C4141 C 0.65459 0.63325 0.7521 0.0
C4142 C 0.6474 0.62836 0.73459 0.0
C4143 C 0.63611 0.64035 0.72475 0.0
C4144 C 0.63151 0.65701 0.73279 0.0
C4145 C 0.63739 0.66166 0.7503 0.0
C4146 C 0.63116 0.68083 0.75532 0.0
C4147 C 0.61718 0.68029 0.77115 0.0
C4148 C 0.64765 0.69326 0.75999 0.0
C4149 C 0.62205 0.68653 0.73752 0.0
C4150 C 0.62223 0.67259 0.72468 0.0
C4151 C 0.61645 0.67544 0.70658 0.0
C4152 C 0.61064 0.69314 0.70146 0.0
C4153 C 0.61072 0.70756 0.71446 0.0
C4154 C 0.61579 0.70393 0.73275 0.0
H4155 H 0.28303 0.64192 0.70161 0.0
H4156 H 0.3016 0.58531 0.70273 0.0
H4157 H 0.33067 0.59552 0.71768 0.0
H4158 H 0.32662 0.66486 0.69562 0.0
H4159 H 0.32009 0.6832 0.71092 0.0
H4160 H 0.30281 0.67139 0.69774 0.0
H4161 H 0.28516 0.66396 0.7278 0.0
H4162 H 0.30251 0.67542 0.74115 0.0
H4163 H 0.29672 0.65183 0.74602 0.0
H4164 H 0.3579 0.6134 0.7335 0.0
H4165 H 0.37871 0.63588 0.74867 0.0
H4166 H 0.33768 0.67837 0.7412 0.0
C4167 C 0.29324 0.63155 0.70465 0.0
C4168 C 0.29003 0.61279 0.70094 0.0
C4169 C 0.30387 0.5998 0.70522 0.0
C4170 C 0.32032 0.60548 0.71385 0.0
C4171 C 0.32247 0.6241 0.71822 0.0
C4172 C 0.30914 0.63683 0.71372 0.0
C4173 C 0.3134 0.65567 0.72115 0.0
C4174 C 0.31588 0.66959 0.70542 0.0
C4175 C 0.29857 0.66208 0.73485 0.0
C4176 C 0.33132 0.65176 0.73069 0.0
C4177 C 0.33671 0.63366 0.7286 0.0
C4178 C 0.35361 0.62752 0.73535 0.0
C4179 C 0.3653 0.64034 0.74403 0.0
C4180 C 0.35974 0.65888 0.74634 0.0
C4181 C 0.34233 0.66435 0.73993 0.0
H4182 H 0.36908 0.27664 0.73317 0.0
H4183 H 0.41069 0.30214 0.6988 0.0
H4184 H 0.40219 0.33257 0.71195 0.0
H4185 H 0.33554 0.30994 0.72733 0.0
H4186 H 0.32689 0.30725 0.75041 0.0
H4187 H 0.33794 0.28831 0.73914 0.0
H4188 H 0.36042 0.28602 0.76684 0.0
H4189 H 0.34954 0.30548 0.77762 0.0
H4190 H 0.37393 0.30577 0.77326 0.0
H4191 H 0.38646 0.36045 0.72726 0.0
H4192 H 0.36482 0.3825 0.74131 0.0
H4193 H 0.33438 0.3372 0.76536 0.0
C4194 C 0.3768 0.28844 0.72847 0.0
C4195 C 0.39068 0.28689 0.71494 0.0
C4196 C 0.40006 0.30294 0.7092 0.0
C4197 C 0.39535 0.32023 0.71665 0.0
C4198 C 0.38136 0.32111 0.72985 0.0
C4199 C 0.3723 0.30552 0.73563 0.0
C4200 C 0.35683 0.3098 0.74876 0.0
C4201 C 0.33821 0.30346 0.74091 0.0
C4202 C 0.36041 0.30126 0.76775 0.0
C4203 C 0.35821 0.33045 0.74937 0.0
C4204 C 0.37251 0.33681 0.73853 0.0
C4205 C 0.3754 0.35555 0.73592 0.0
C4206 C 0.36302 0.36799 0.74401 0.0
C4207 C 0.34781 0.36163 0.75448 0.0
C4208 C 0.3459 0.34261 0.75766 0.0
H4209 H 0.64816 0.32514 0.72984 0.0
H4210 H 0.64278 0.35313 0.78208 0.0
H4211 H 0.66524 0.37672 0.77157 0.0
H4212 H 0.69739 0.33105 0.72675 0.0
H4213 H 0.69688 0.33296 0.70206 0.0
H4214 H 0.67967 0.3196 0.71376 0.0
H4215 H 0.65443 0.33902 0.69779 0.0
H4216 H 0.67163 0.35284 0.68659 0.0
H4217 H 0.65432 0.36363 0.70066 0.0
H4218 H 0.68866 0.39685 0.75501 0.0
H4219 H 0.71447 0.40896 0.73632 0.0
H4220 H 0.70584 0.36582 0.69629 0.0
C4221 C 0.65215 0.33592 0.73929 0.0
C4222 C 0.64438 0.3371 0.75697 0.0
C4223 C 0.64908 0.35186 0.76865 0.0
C4224 C 0.66161 0.36535 0.7627 0.0
C4225 C 0.66921 0.36368 0.74512 0.0
C4226 C 0.66491 0.34906 0.73378 0.0
C4227 C 0.67591 0.34942 0.71616 0.0
C4228 C 0.68819 0.33225 0.7146 0.0
C4229 C 0.66331 0.35135 0.69931 0.0
C4230 C 0.68715 0.36661 0.71926 0.0
C4231 C 0.68285 0.37488 0.73586 0.0
C4232 C 0.69201 0.39058 0.74195 0.0
C4233 C 0.70646 0.3975 0.73118 0.0
C4234 C 0.71161 0.38856 0.71473 0.0
C4235 C 0.70164 0.37319 0.70854 0.0
H4236 H 0.64297 0.34822 0.22725 0.0
H4237 H 0.67329 0.36571 0.27554 0.0
H4238 H 0.65459 0.34586 0.29497 0.0
H4239 H 0.59801 0.34109 0.2502 0.0
H4240 H 0.59286 0.32019 0.23797 0.0
H4241 H 0.60678 0.33768 0.22728 0.0
H4242 H 0.63331 0.31423 0.22195 0.0
H4243 H 0.61867 0.29689 0.23167 0.0
H4244 H 0.6413 0.30064 0.24107 0.0
H4245 H 0.63405 0.32438 0.30955 0.0
H4246 H 0.61729 0.29615 0.31765 0.0
H4247 H 0.60146 0.28902 0.26071 0.0
C4248 C 0.6455 0.34785 0.2419 0.0
C4249 C 0.65892 0.35929 0.25004 0.0
C4250 C 0.66232 0.35796 0.26918 0.0
C4251 C 0.65182 0.34664 0.28038 0.0
C4252 C 0.63812 0.33623 0.27227 0.0
C4253 C 0.63523 0.33615 0.25346 0.0
C4254 C 0.62102 0.32171 0.24842 0.0
C4255 C 0.60364 0.33071 0.24049 0.0
C4256 C 0.62909 0.30752 0.235 0.0
C4257 C 0.61718 0.31334 0.26721 0.0
C4258 C 0.6267 0.32256 0.28079 0.0
C4259 C 0.62629 0.31712 0.29914 0.0
C4260 C 0.61663 0.3012 0.30367 0.0
C4261 C 0.6078 0.29086 0.28988 0.0
C4262 C 0.60761 0.29719 0.27152 0.0
H4263 H 0.69979 0.62826 0.3087 0.0
H4264 H 0.71103 0.58543 0.26902 0.0
H4265 H 0.68325 0.59428 0.25151 0.0
H4266 H 0.64752 0.62498 0.30634 0.0
H4267 H 0.64551 0.64954 0.30896 0.0
H4268 H 0.66417 0.63742 0.31984 0.0
H4269 H 0.68713 0.65924 0.30371 0.0
H4270 H 0.66876 0.67095 0.29209 0.0
H4271 H 0.68714 0.66077 0.27898 0.0
H4272 H 0.6589 0.61274 0.23487 0.0
H4273 H 0.63646 0.63586 0.22341 0.0
H4274 H 0.63888 0.66398 0.27578 0.0
C4275 C 0.69571 0.62009 0.29694 0.0
C4276 C 0.70707 0.60587 0.29041 0.0
C4277 C 0.70202 0.59595 0.27449 0.0
C4278 C 0.6864 0.60102 0.26439 0.0
C4279 C 0.67583 0.6157 0.27073 0.0
C4280 C 0.67994 0.62469 0.28701 0.0
C4281 C 0.66733 0.6409 0.29013 0.0
C4282 C 0.65542 0.63803 0.30734 0.0
C4283 C 0.67825 0.65902 0.29129 0.0
C4284 C 0.65592 0.64004 0.27281 0.0
C4285 C 0.66111 0.62558 0.26163 0.0
C4286 C 0.65422 0.62369 0.24379 0.0
C4287 C 0.64162 0.63685 0.23734 0.0
C4288 C 0.63593 0.65135 0.24889 0.0
C4289 C 0.64287 0.65272 0.26688 0.0
H4290 H 0.32999 0.64346 0.27024 0.0
H4291 H 0.36271 0.63563 0.22116 0.0
H4292 H 0.38569 0.65807 0.23303 0.0
H4293 H 0.33537 0.69165 0.27117 0.0
H4294 H 0.33519 0.69313 0.29589 0.0
H4295 H 0.32326 0.6747 0.28456 0.0
H4296 H 0.34182 0.65108 0.3037 0.0
H4297 H 0.35404 0.66948 0.31491 0.0
H4298 H 0.36659 0.65164 0.30314 0.0
H4299 H 0.40421 0.68246 0.25013 0.0
H4300 H 0.41406 0.70979 0.26796 0.0
H4301 H 0.36701 0.70346 0.30381 0.0
C4302 C 0.34199 0.64655 0.26198 0.0
C4303 C 0.34467 0.63814 0.24477 0.0
C4304 C 0.36053 0.64216 0.23436 0.0
C4305 C 0.37363 0.65473 0.24107 0.0
C4306 C 0.37042 0.66311 0.25807 0.0
C4307 C 0.35478 0.65938 0.2682 0.0
C4308 C 0.35327 0.67161 0.28492 0.0
C4309 C 0.33575 0.68347 0.28407 0.0
C4310 C 0.35398 0.66027 0.30272 0.0
C4311 C 0.37043 0.68307 0.28259 0.0
C4312 C 0.38045 0.67765 0.26734 0.0
C4313 C 0.39656 0.68668 0.26217 0.0
C4314 C 0.40217 0.70204 0.27245 0.0
C4315 C 0.39144 0.70833 0.28737 0.0
C4316 C 0.37562 0.69854 0.29269 0.0
H4317 H 0.34565 0.3481 0.23041 0.0
H4318 H 0.38062 0.34637 0.27865 0.0
H4319 H 0.35979 0.36757 0.2947 0.0
H4320 H 0.33201 0.39804 0.23654 0.0
H4321 H 0.3091 0.39361 0.22823 0.0
H4322 H 0.32823 0.38047 0.21949 0.0
H4323 H 0.31172 0.35023 0.22879 0.0
H4324 H 0.29263 0.36325 0.23747 0.0
H4325 H 0.30433 0.3472 0.25226 0.0
H4326 H 0.33279 0.38506 0.30719 0.0
H4327 H 0.30193 0.39736 0.31456 0.0
H4328 H 0.28546 0.38922 0.25786 0.0
C4329 C 0.34918 0.35264 0.24414 0.0
C4330 C 0.36488 0.34576 0.25315 0.0
C4331 C 0.36889 0.35175 0.27127 0.0
C4332 C 0.35711 0.3638 0.28057 0.0
C4333 C 0.34157 0.37014 0.27143 0.0
C4334 C 0.33773 0.365 0.25351 0.0
C4335 C 0.31952 0.37278 0.24725 0.0
C4336 C 0.32239 0.38707 0.23196 0.0
C4337 C 0.30628 0.35745 0.2411 0.0
C4338 C 0.31314 0.38191 0.26482 0.0
C4339 C 0.32619 0.38062 0.27853 0.0
C4340 C 0.32265 0.38662 0.29643 0.0
C4341 C 0.30513 0.39368 0.30049 0.0
C4342 C 0.29141 0.3944 0.28674 0.0
C4343 C 0.29576 0.38902 0.2686 0.0
H4344 H 0.7138 0.64085 0.71694 0.0
H4345 H 0.71403 0.58367 0.69994 0.0
H4346 H 0.72933 0.59294 0.67068 0.0
H4347 H 0.70817 0.66268 0.6742 0.0
H4348 H 0.72385 0.68094 0.68001 0.0
H4349 H 0.71102 0.6696 0.69782 0.0
H4350 H 0.74139 0.66211 0.71473 0.0
H4351 H 0.7545 0.67301 0.69685 0.0
H4352 H 0.75918 0.64948 0.70296 0.0
H4353 H 0.74339 0.6107 0.64205 0.0
H4354 H 0.75646 0.63324 0.61994 0.0
H4355 H 0.75298 0.6756 0.6616 0.0
C4356 C 0.71703 0.63002 0.7073 0.0
C4357 C 0.7128 0.61146 0.71091 0.0
C4358 C 0.7171 0.59802 0.69748 0.0
C4359 C 0.72587 0.60317 0.68091 0.0
C4360 C 0.7306 0.62166 0.67838 0.0
C4361 C 0.72648 0.6347 0.69151 0.0
C4362 C 0.73398 0.65338 0.68684 0.0
C4363 C 0.71832 0.66746 0.68458 0.0
C4364 C 0.7481 0.65985 0.7012 0.0
C4365 C 0.74298 0.64907 0.66877 0.0
C4366 C 0.74053 0.63092 0.66365 0.0
C4367 C 0.74579 0.62476 0.64623 0.0
C4368 C 0.75328 0.63762 0.6338 0.0
C4369 C 0.756 0.65617 0.63916 0.0
C4370 C 0.75138 0.66157 0.6571 0.0
H4371 H 0.38305 0.69798 0.69311 0.0
H4372 H 0.40264 0.74649 0.72131 0.0
H4373 H 0.39228 0.76589 0.69552 0.0
H4374 H 0.39241 0.71535 0.64396 0.0
H4375 H 0.37165 0.70451 0.63587 0.0
H4376 H 0.38465 0.69421 0.65428 0.0
H4377 H 0.3554 0.69423 0.67463 0.0
H4378 H 0.34243 0.70484 0.65654 0.0
H4379 H 0.34356 0.71558 0.67883 0.0
H4380 H 0.37284 0.78025 0.6711 0.0
H4381 H 0.34969 0.78799 0.64725 0.0
H4382 H 0.34457 0.73015 0.634 0.0
C4383 C 0.38616 0.71253 0.6932 0.0
C4384 C 0.394 0.7208 0.70879 0.0
C4385 C 0.39703 0.73999 0.70914 0.0
C4386 C 0.39112 0.7511 0.69462 0.0
C4387 C 0.38246 0.74272 0.67976 0.0
C4388 C 0.38044 0.72379 0.67869 0.0
C4389 C 0.36874 0.71841 0.66239 0.0
C4390 C 0.38004 0.70748 0.64829 0.0
C4391 C 0.35153 0.70765 0.66848 0.0
C4392 C 0.36376 0.73722 0.65509 0.0
C4393 C 0.37179 0.75111 0.66521 0.0
C4394 C 0.36703 0.76953 0.66257 0.0
C4395 C 0.35382 0.77383 0.64914 0.0
C4396 C 0.34579 0.75974 0.63847 0.0
C4397 C 0.35105 0.7413 0.64141 0.0
H4398 H 0.28542 0.35687 0.71685 0.0
H4399 H 0.29178 0.41246 0.69631 0.0
H4400 H 0.27499 0.40324 0.6678 0.0
H4401 H 0.29011 0.3338 0.67529 0.0
H4402 H 0.27328 0.3167 0.68082 0.0
H4403 H 0.28637 0.3272 0.69891 0.0
H4404 H 0.25699 0.33757 0.71567 0.0
H4405 H 0.24321 0.32647 0.6984 0.0
H4406 H 0.23976 0.35049 0.70345 0.0
H4407 H 0.25814 0.38546 0.64059 0.0
H4408 H 0.24365 0.36288 0.61956 0.0
H4409 H 0.24388 0.32232 0.66309 0.0
C4410 C 0.28337 0.36739 0.70658 0.0
C4411 C 0.28984 0.38549 0.70903 0.0
C4412 C 0.28699 0.39846 0.69478 0.0
C4413 C 0.27733 0.39335 0.67865 0.0
C4414 C 0.27037 0.37542 0.67733 0.0
C4415 C 0.27328 0.36286 0.69117 0.0
C4416 C 0.26457 0.34456 0.68733 0.0
C4417 C 0.2795 0.3297 0.6855 0.0
C4418 C 0.25028 0.33949 0.70209 0.0
C4419 C 0.25568 0.34856 0.66914 0.0
C4420 C 0.25956 0.3662 0.66313 0.0
C4421 C 0.25471 0.37184 0.64546 0.0
C4422 C 0.24635 0.35894 0.63364 0.0
C4423 C 0.24245 0.3408 0.63973 0.0
C4424 C 0.24645 0.33602 0.658 0.0
H4425 H 0.66639 0.272 0.63894 0.0
H4426 H 0.63704 0.22031 0.63668 0.0
H4427 H 0.6149 0.23196 0.66005 0.0
H4428 H 0.66487 0.27519 0.68691 0.0
H4429 H 0.66339 0.29991 0.68729 0.0
H4430 H 0.67444 0.28852 0.66835 0.0
H4431 H 0.65242 0.30523 0.64579 0.0
H4432 H 0.64115 0.31639 0.66483 0.0
H4433 H 0.62792 0.303 0.64872 0.0
H4434 H 0.59708 0.24906 0.68462 0.0
H4435 H 0.58846 0.26726 0.71208 0.0
H4436 H 0.63232 0.30574 0.70051 0.0
C4437 C 0.6551 0.26327 0.64323 0.0
C4438 C 0.65309 0.24542 0.63609 0.0
C4439 C 0.63854 0.2341 0.64206 0.0
C4440 C 0.62593 0.24067 0.65517 0.0
C4441 C 0.62841 0.25838 0.66218 0.0
C4442 C 0.64291 0.26935 0.65665 0.0
C4443 C 0.6443 0.28667 0.66804 0.0
C4444 C 0.66284 0.28761 0.67825 0.0
C4445 C 0.64126 0.30384 0.65613 0.0
C4446 C 0.62845 0.28368 0.6811 0.0
C4447 C 0.61906 0.26761 0.67714 0.0
C4448 C 0.60421 0.26174 0.68773 0.0
C4449 C 0.5993 0.27221 0.70315 0.0
C4450 C 0.60959 0.28794 0.708 0.0
C4451 C 0.62405 0.29395 0.69669 0.0
H4452 H 0.70708 0.38988 0.30358 0.0
H4453 H 0.74057 0.36266 0.26261 0.0
H4454 H 0.76156 0.35195 0.28609 0.0
H4455 H 0.746 0.39918 0.33808 0.0
H4456 H 0.73185 0.39318 0.35749 0.0
H4457 H 0.72164 0.40361 0.33745 0.0
H4458 H 0.69891 0.37637 0.33457 0.0
H4459 H 0.70886 0.36609 0.3547 0.0
H4460 H 0.70777 0.35324 0.33352 0.0
H4461 H 0.77767 0.3419 0.31258 0.0
H4462 H 0.7837 0.32555 0.3412 0.0
H4463 H 0.73821 0.35422 0.36731 0.0
C4464 C 0.71918 0.38214 0.29967 0.0
C4465 C 0.72265 0.37781 0.281 0.0
C4466 C 0.73802 0.36684 0.2765 0.0
C4467 C 0.75015 0.36072 0.28986 0.0
C4468 C 0.74659 0.3652 0.30801 0.0
C4469 C 0.73123 0.37516 0.31317 0.0
C4470 C 0.72899 0.37464 0.33398 0.0
C4471 C 0.73231 0.39379 0.34224 0.0
C4472 C 0.71001 0.36712 0.3395 0.0
C4473 C 0.74447 0.36153 0.3392 0.0
C4474 C 0.75505 0.35738 0.32401 0.0
C4475 C 0.76959 0.34504 0.32467 0.0
C4476 C 0.77285 0.33574 0.34103 0.0
C4477 C 0.76124 0.33833 0.35643 0.0
C4478 C 0.74737 0.35204 0.35579 0.0
H4479 H 0.63323 0.69472 0.2988 0.0
H4480 H 0.59009 0.73338 0.28525 0.0
H4481 H 0.60064 0.754 0.31025 0.0
H4482 H 0.63128 0.70243 0.34967 0.0
H4483 H 0.65579 0.69954 0.35181 0.0
H4484 H 0.64339 0.6873 0.33422 0.0
H4485 H 0.66519 0.70104 0.30966 0.0
H4486 H 0.67736 0.71371 0.32705 0.0
H4487 H 0.66741 0.72563 0.30776 0.0
H4488 H 0.61938 0.77239 0.33358 0.0
H4489 H 0.64144 0.78442 0.35689 0.0
H4490 H 0.6701 0.73229 0.35631 0.0
C4491 C 0.62559 0.70719 0.30165 0.0
C4492 C 0.61072 0.71245 0.2905 0.0
C4493 C 0.60123 0.72902 0.29411 0.0
C4494 C 0.60726 0.74086 0.3081 0.0
C4495 C 0.62246 0.73561 0.3185 0.0
C4496 C 0.63113 0.71888 0.31579 0.0
C4497 C 0.64739 0.71655 0.32845 0.0
C4498 C 0.64427 0.70051 0.34184 0.0
C4499 C 0.66539 0.7141 0.31757 0.0
C4500 C 0.64692 0.73481 0.33827 0.0
C4501 C 0.63261 0.74576 0.33231 0.0
C4502 C 0.63042 0.76379 0.33862 0.0
C4503 C 0.64301 0.77058 0.35165 0.0
C4504 C 0.65731 0.75922 0.35814 0.0
C4505 C 0.65919 0.74118 0.35144 0.0
H4506 H 0.2402 0.67185 0.33939 0.0
H4507 H 0.24813 0.63045 0.38143 0.0
H4508 H 0.26178 0.60967 0.35826 0.0
H4509 H 0.2339 0.64256 0.29898 0.0
H4510 H 0.24789 0.65734 0.28489 0.0
H4511 H 0.23491 0.66687 0.30371 0.0
H4512 H 0.26491 0.68093 0.31698 0.0
H4513 H 0.27797 0.67118 0.29839 0.0
H4514 H 0.28415 0.66613 0.32183 0.0
H4515 H 0.27721 0.59433 0.33014 0.0
H4516 H 0.29269 0.58673 0.30062 0.0
H4517 H 0.2794 0.64129 0.28044 0.0
C4518 C 0.24444 0.65835 0.34376 0.0
C4519 C 0.24312 0.6529 0.36229 0.0
C4520 C 0.24886 0.63493 0.36727 0.0
C4521 C 0.25674 0.62305 0.35421 0.0
C4522 C 0.2591 0.62947 0.33633 0.0
C4523 C 0.25313 0.64678 0.33119 0.0
C4524 C 0.2595 0.65165 0.31207 0.0
C4525 C 0.24307 0.65478 0.29915 0.0
C4526 C 0.27239 0.66846 0.31234 0.0
C4527 C 0.26981 0.63435 0.30716 0.0
C4528 C 0.26925 0.6215 0.32107 0.0
C4529 C 0.27771 0.60434 0.31916 0.0
C4530 C 0.28657 0.60017 0.30242 0.0
C4531 C 0.28717 0.61329 0.28806 0.0
C4532 C 0.27904 0.63071 0.29087 0.0
H4533 H 0.33194 0.26992 0.35877 0.0
H4534 H 0.36192 0.21881 0.36374 0.0
H4535 H 0.3844 0.2298 0.34034 0.0
H4536 H 0.33523 0.2714 0.31019 0.0
H4537 H 0.33589 0.29615 0.30955 0.0
H4538 H 0.3244 0.28458 0.32813 0.0
H4539 H 0.34492 0.30277 0.35116 0.0
H4540 H 0.35685 0.31369 0.33242 0.0
H4541 H 0.36959 0.30103 0.34947 0.0
H4542 H 0.40249 0.24628 0.31515 0.0
H4543 H 0.41181 0.26426 0.2877 0.0
H4544 H 0.36781 0.30293 0.29819 0.0
C4545 C 0.34337 0.26114 0.355 0.0
C4546 C 0.34547 0.24366 0.3629 0.0
C4547 C 0.36032 0.23232 0.35771 0.0
C4548 C 0.37311 0.2385 0.34458 0.0
C4549 C 0.37053 0.25588 0.3368 0.0
C4550 C 0.35579 0.26685 0.34165 0.0
C4551 C 0.35453 0.28382 0.32982 0.0
C4552 C 0.33646 0.28399 0.31877 0.0
C4553 C 0.35661 0.30136 0.34142 0.0
C4554 C 0.37096 0.28084 0.31752 0.0
C4555 C 0.38027 0.26485 0.32191 0.0
C4556 C 0.39542 0.25891 0.31173 0.0
C4557 C 0.40073 0.26924 0.29631 0.0
C4558 C 0.39064 0.28502 0.29117 0.0
C4559 C 0.3759 0.29107 0.30213 0.0
H4560 H 0.70285 0.69442 0.63303 0.0
H4561 H 0.71418 0.73663 0.59276 0.0
H4562 H 0.68754 0.75462 0.60404 0.0
H4563 H 0.65104 0.69906 0.63161 0.0
H4564 H 0.64928 0.69473 0.65594 0.0
H4565 H 0.66741 0.68418 0.64276 0.0
H4566 H 0.69141 0.69804 0.66509 0.0
H4567 H 0.67348 0.709 0.67811 0.0
H4568 H 0.69195 0.72255 0.66869 0.0
H4569 H 0.6632 0.77029 0.62353 0.0
H4570 H 0.64041 0.78035 0.647 0.0
H4571 H 0.64354 0.72684 0.67276 0.0
C4572 C 0.6991 0.70702 0.62607 0.0
C4573 C 0.71007 0.71399 0.61172 0.0
C4574 C 0.70545 0.7309 0.60338 0.0
C4575 C 0.69048 0.74124 0.60981 0.0
C4576 C 0.68019 0.7343 0.62442 0.0
C4577 C 0.68402 0.71733 0.63213 0.0
C4578 C 0.67159 0.71344 0.64835 0.0
C4579 C 0.65908 0.69687 0.64443 0.0
C4580 C 0.68278 0.7106 0.6661 0.0
C4581 C 0.66069 0.73113 0.64903 0.0
C4582 C 0.66584 0.74306 0.63519 0.0
C4583 C 0.65876 0.76089 0.63416 0.0
C4584 C 0.64598 0.76656 0.64755 0.0
C4585 C 0.64042 0.75434 0.66154 0.0
C4586 C 0.64766 0.73639 0.66211 0.0
H4587 H 0.69628 0.30534 0.37205 0.0
H4588 H 0.71826 0.25778 0.40017 0.0
H4589 H 0.6912 0.23954 0.39086 0.0
H4590 H 0.64618 0.2944 0.38356 0.0
H4591 H 0.63846 0.30313 0.36171 0.0
H4592 H 0.65829 0.31311 0.37275 0.0
H4593 H 0.67763 0.30693 0.34344 0.0
H4594 H 0.65793 0.2969 0.33243 0.0
H4595 H 0.67892 0.28389 0.33439 0.0
H4596 H 0.66575 0.22515 0.373 0.0
H4597 H 0.64091 0.21663 0.35126 0.0
H4598 H 0.63291 0.27402 0.338 0.0
C4599 C 0.69494 0.29129 0.37675 0.0
C4600 C 0.70921 0.28279 0.38667 0.0
C4601 C 0.7074 0.26435 0.39242 0.0
C4602 C 0.69207 0.25394 0.38729 0.0
C4603 C 0.67844 0.26242 0.3769 0.0
C4604 C 0.67942 0.28083 0.37214 0.0
C4605 C 0.66332 0.28627 0.36012 0.0
C4606 C 0.65082 0.30004 0.37014 0.0
C4607 C 0.66985 0.29394 0.3415 0.0
C4608 C 0.65389 0.26784 0.35791 0.0
C4609 C 0.66279 0.25426 0.36775 0.0
C4610 C 0.65818 0.23573 0.36582 0.0
C4611 C 0.64416 0.23099 0.35345 0.0
C4612 C 0.63478 0.24476 0.34355 0.0
C4613 C 0.63947 0.26338 0.34607 0.0
H4614 H 0.75358 0.66531 0.31894 0.0
H4615 H 0.75689 0.62399 0.36168 0.0
H4616 H 0.74297 0.6457 0.38378 0.0
H4617 H 0.75942 0.70659 0.34644 0.0
H4618 H 0.74202 0.71886 0.33381 0.0
H4619 H 0.75522 0.70117 0.32262 0.0
H4620 H 0.72485 0.68432 0.31368 0.0
H4621 H 0.7119 0.70222 0.32473 0.0
H4622 H 0.70852 0.67859 0.33133 0.0
H4623 H 0.72656 0.6723 0.4009 0.0
H4624 H 0.71015 0.70071 0.41058 0.0
H4625 H 0.71387 0.72104 0.35461 0.0
C4626 C 0.75177 0.66089 0.333 0.0
C4627 C 0.75646 0.64297 0.33853 0.0
C4628 C 0.75362 0.63775 0.35712 0.0
C4629 C 0.7456 0.64995 0.36978 0.0
C4630 C 0.74013 0.66719 0.36353 0.0
C4631 C 0.74308 0.67256 0.34552 0.0
C4632 C 0.73418 0.69083 0.34151 0.0
C4633 C 0.74858 0.70521 0.33576 0.0
C4634 C 0.71895 0.68887 0.32696 0.0
C4635 C 0.72613 0.69511 0.3601 0.0
C4636 C 0.7297 0.68152 0.3728 0.0
C4637 C 0.72368 0.68301 0.39101 0.0
C4638 C 0.71424 0.69909 0.39637 0.0
C4639 C 0.71077 0.7132 0.38343 0.0
C4640 C 0.71638 0.71072 0.36501 0.0
H4641 H 0.30881 0.71224 0.40233 0.0
H4642 H 0.27812 0.69561 0.35399 0.0
H4643 H 0.29828 0.71402 0.33447 0.0
H4644 H 0.32589 0.75464 0.39056 0.0
H4645 H 0.34991 0.7517 0.39587 0.0
H4646 H 0.33286 0.73812 0.40765 0.0
H4647 H 0.34885 0.70808 0.39737 0.0
H4648 H 0.36634 0.72158 0.38614 0.0
H4649 H 0.35376 0.70449 0.37335 0.0
H4650 H 0.31273 0.7437 0.32468 0.0
H4651 H 0.33742 0.76396 0.31451 0.0
H4652 H 0.37027 0.74815 0.36177 0.0
C4653 C 0.30682 0.71191 0.3876 0.0
C4654 C 0.2907 0.70417 0.37972 0.0
C4655 C 0.28922 0.70309 0.36036 0.0
C4656 C 0.30063 0.71338 0.34915 0.0
C4657 C 0.31487 0.72285 0.35739 0.0
C4658 C 0.31954 0.72049 0.3756 0.0
C4659 C 0.33816 0.72956 0.37927 0.0
C4660 C 0.3366 0.74439 0.39423 0.0
C4661 C 0.35264 0.71506 0.38433 0.0
C4662 C 0.34216 0.73812 0.36048 0.0
C4663 C 0.32758 0.73504 0.34883 0.0
C4664 C 0.32525 0.74476 0.33265 0.0
C4665 C 0.33944 0.75615 0.32696 0.0
C4666 C 0.35662 0.75583 0.33608 0.0
C4667 C 0.35771 0.74762 0.35381 0.0
H4668 H 0.29919 0.28727 0.35752 0.0
H4669 H 0.27965 0.29564 0.41317 0.0
H4670 H 0.26457 0.32465 0.40343 0.0
H4671 H 0.30667 0.33701 0.34692 0.0
H4672 H 0.29979 0.33355 0.32338 0.0
H4673 H 0.31098 0.31532 0.33582 0.0
H4674 H 0.28356 0.29386 0.32803 0.0
H4675 H 0.27205 0.31219 0.31614 0.0
H4676 H 0.26065 0.30048 0.33476 0.0
H4677 H 0.24949 0.35172 0.38634 0.0
H4678 H 0.23694 0.37429 0.36397 0.0
H4679 H 0.26577 0.34628 0.31998 0.0
C4680 C 0.29208 0.29542 0.36775 0.0
C4681 C 0.29057 0.28934 0.38606 0.0
C4682 C 0.28114 0.30028 0.3991 0.0
C4683 C 0.27248 0.31669 0.39366 0.0
C4684 C 0.27368 0.32197 0.37525 0.0
C4685 C 0.28355 0.31175 0.36261 0.0
C4686 C 0.28218 0.31971 0.34351 0.0
C4687 C 0.30102 0.32682 0.33703 0.0
C4688 C 0.27412 0.30573 0.32982 0.0
C4689 C 0.26911 0.33539 0.3471 0.0
C4690 C 0.26465 0.33687 0.3655 0.0
C4691 C 0.25294 0.35068 0.37191 0.0
C4692 C 0.24581 0.36335 0.35915 0.0
C4693 C 0.25008 0.36175 0.34023 0.0
C4694 C 0.26186 0.34757 0.33427 0.0
H4695 H 0.3504 0.26767 0.67417 0.0
H4696 H 0.37055 0.22951 0.63323 0.0
H4697 H 0.34915 0.24303 0.61019 0.0
H4698 H 0.30357 0.26835 0.66164 0.0
H4699 H 0.30123 0.29259 0.66622 0.0
H4700 H 0.31815 0.27938 0.67838 0.0
H4701 H 0.34296 0.30262 0.66717 0.0
H4702 H 0.32587 0.31518 0.65439 0.0
H4703 H 0.34598 0.30641 0.64287 0.0
H4704 H 0.32328 0.25959 0.59271 0.0
H4705 H 0.2951 0.2763 0.58323 0.0
H4706 H 0.2946 0.30485 0.63544 0.0
C4707 C 0.35006 0.26198 0.66043 0.0
C4708 C 0.36154 0.24725 0.65548 0.0
C4709 C 0.36146 0.2406 0.63722 0.0
C4710 C 0.34952 0.2483 0.62409 0.0
C4711 C 0.33832 0.26297 0.62943 0.0
C4712 C 0.33867 0.26976 0.64719 0.0
C4713 C 0.32539 0.28547 0.64973 0.0
C4714 C 0.31125 0.28116 0.66488 0.0
C4715 C 0.33567 0.30349 0.65377 0.0
C4716 C 0.3167 0.28588 0.63091 0.0
C4717 C 0.32445 0.27305 0.61921 0.0
C4718 C 0.3174 0.26996 0.60162 0.0
C4719 C 0.30154 0.27964 0.59623 0.0
C4720 C 0.29298 0.29202 0.60853 0.0
C4721 C 0.30116 0.29571 0.62568 0.0
H4722 H 0.71401 0.28175 0.64161 0.0
H4723 H 0.70722 0.30177 0.58581 0.0
H4724 H 0.72229 0.33111 0.59494 0.0
H4725 H 0.70786 0.32398 0.66558 0.0
H4726 H 0.72519 0.31841 0.68233 0.0
H4727 H 0.71227 0.30034 0.67148 0.0
H4728 H 0.74261 0.28499 0.66089 0.0
H4729 H 0.75574 0.30307 0.67149 0.0
H4730 H 0.75885 0.29798 0.64743 0.0
H4731 H 0.73763 0.35896 0.61186 0.0
H4732 H 0.75228 0.38084 0.63359 0.0
H4733 H 0.75334 0.33831 0.67523 0.0
C4734 C 0.71556 0.29218 0.63112 0.0
C4735 C 0.7095 0.28935 0.61291 0.0
C4736 C 0.71172 0.30363 0.59987 0.0
C4737 C 0.72033 0.32027 0.60493 0.0
C4738 C 0.72681 0.32215 0.62294 0.0
C4739 C 0.72454 0.30831 0.6357 0.0
C4740 C 0.73336 0.3128 0.65387 0.0
C4741 C 0.71881 0.31395 0.66921 0.0
C4742 C 0.74855 0.29889 0.65869 0.0
C4743 C 0.74121 0.33141 0.64946 0.0
C4744 C 0.73697 0.33694 0.63178 0.0
C4745 C 0.74131 0.35456 0.62558 0.0
C4746 C 0.74972 0.36685 0.63796 0.0
C4747 C 0.75417 0.36122 0.65609 0.0
C4748 C 0.75038 0.34306 0.6615 0.0
H4749 H 0.25382 0.63053 0.63704 0.0
H4750 H 0.21436 0.65765 0.67291 0.0
H4751 H 0.22558 0.6875 0.66265 0.0
H4752 H 0.28953 0.65803 0.64114 0.0
H4753 H 0.29677 0.66037 0.61757 0.0
H4754 H 0.28409 0.64036 0.62464 0.0
H4755 H 0.25918 0.64649 0.60008 0.0
H4756 H 0.27214 0.66613 0.59233 0.0
H4757 H 0.2484 0.66876 0.5989 0.0
H4758 H 0.24984 0.71048 0.66042 0.0
H4759 H 0.27372 0.73189 0.65113 0.0
H4760 H 0.29026 0.69533 0.60704 0.0
C4761 C 0.24689 0.64273 0.64199 0.0
C4762 C 0.23379 0.64172 0.65644 0.0
C4763 C 0.22482 0.65798 0.66232 0.0
C4764 C 0.2311 0.67508 0.65661 0.0
C4765 C 0.24536 0.67566 0.64397 0.0
C4766 C 0.2522 0.66015 0.6355 0.0
C4767 C 0.26741 0.66533 0.62201 0.0
C4768 C 0.28552 0.65543 0.62663 0.0
C4769 C 0.26142 0.66145 0.60215 0.0
C4770 C 0.26889 0.68589 0.62561 0.0
C4771 C 0.25646 0.6911 0.63897 0.0
C4772 C 0.2582 0.70749 0.64847 0.0
C4773 C 0.27174 0.71971 0.64291 0.0
C4774 C 0.28218 0.71647 0.62679 0.0
C4775 C 0.28139 0.69886 0.61846 0.0
H4776 H 0.15993 0.38274 0.27582 0.0
H4777 H 0.1942 0.34147 0.3019 0.0
H4778 H 0.18067 0.31776 0.2823 0.0
H4779 H 0.11818 0.34782 0.27111 0.0
H4780 H 0.11101 0.35861 0.25 0.0
H4781 H 0.12111 0.37223 0.26808 0.0
H4782 H 0.14511 0.38421 0.2448 0.0
H4783 H 0.13575 0.36996 0.22687 0.0
H4784 H 0.1597 0.36806 0.23292 0.0
H4785 H 0.17506 0.30392 0.25247 0.0
H4786 H 0.16117 0.29076 0.2251 0.0
H4787 H 0.121 0.33489 0.22365 0.0
C4788 C 0.16354 0.36853 0.2783 0.0
C4789 C 0.17841 0.36391 0.29006 0.0
C4790 C 0.183 0.34524 0.29283 0.0
C4791 C 0.17558 0.33171 0.2816 0.0
C4792 C 0.16259 0.33693 0.26868 0.0
C4793 C 0.15529 0.3544 0.26792 0.0
C4794 C 0.1408 0.35547 0.25274 0.0
C4795 C 0.12163 0.35872 0.26097 0.0
C4796 C 0.14564 0.37031 0.23849 0.0
C4797 C 0.14236 0.33627 0.24447 0.0
C4798 C 0.15579 0.32642 0.25353 0.0
C4799 C 0.16317 0.31044 0.24636 0.0
C4800 C 0.15509 0.30305 0.23077 0.0
C4801 C 0.13867 0.31057 0.22344 0.0
C4802 C 0.13279 0.32812 0.22967 0.0
H4803 H 0.68809 0.15291 0.21504 0.0
H4804 H 0.66229 0.09936 0.21806 0.0
H4805 H 0.63754 0.11253 0.23761 0.0
H4806 H 0.6848 0.16185 0.25964 0.0
H4807 H 0.68079 0.18624 0.25786 0.0
H4808 H 0.69304 0.17452 0.23999 0.0
H4809 H 0.67038 0.18544 0.2152 0.0
H4810 H 0.65832 0.19829 0.23259 0.0
H4811 H 0.64605 0.18204 0.21849 0.0
H4812 H 0.61683 0.13263 0.25995 0.0
H4813 H 0.60406 0.15624 0.28134 0.0
H4814 H 0.64913 0.1924 0.26688 0.0
C4815 C 0.67691 0.14401 0.21926 0.0
C4816 C 0.67704 0.12518 0.21499 0.0
C4817 C 0.66228 0.11395 0.22096 0.0
C4818 C 0.64825 0.1213 0.23218 0.0
C4819 C 0.64933 0.13981 0.23723 0.0
C4820 C 0.66335 0.15093 0.23074 0.0
C4821 C 0.66339 0.16949 0.23976 0.0
C4822 C 0.68157 0.17321 0.24995 0.0
C4823 C 0.65928 0.18471 0.22567 0.0
C4824 C 0.64767 0.16701 0.25289 0.0
C4825 C 0.63909 0.15022 0.25098 0.0
C4826 C 0.62357 0.1458 0.26148 0.0
C4827 C 0.61651 0.15918 0.27373 0.0
C4828 C 0.62544 0.17638 0.27572 0.0
C4829 C 0.64156 0.17975 0.26555 0.0
H4830 H 0.83926 0.63446 0.28468 0.0
H4831 H 0.80098 0.61291 0.24453 0.0
H4832 H 0.82219 0.6206 0.21967 0.0
H4833 H 0.84938 0.67261 0.26175 0.0
H4834 H 0.8735 0.67405 0.2672 0.0
H4835 H 0.85828 0.66185 0.28223 0.0
H4836 H 0.87862 0.63273 0.27912 0.0
H4837 H 0.89386 0.64497 0.26387 0.0
H4838 H 0.88361 0.62362 0.25663 0.0
H4839 H 0.84304 0.6368 0.19889 0.0
H4840 H 0.8611 0.66174 0.18449 0.0
H4841 H 0.88651 0.67334 0.23693 0.0
C4842 C 0.83586 0.6306 0.27072 0.0
C4843 C 0.81862 0.62273 0.26661 0.0
C4844 C 0.8142 0.61861 0.2481 0.0
C4845 C 0.82626 0.62287 0.23379 0.0
C4846 C 0.84282 0.63133 0.23808 0.0
C4847 C 0.84775 0.6351 0.25611 0.0
C4848 C 0.86475 0.64714 0.25667 0.0
C4849 C 0.86124 0.66496 0.26759 0.0
C4850 C 0.88119 0.63647 0.26454 0.0
C4851 C 0.86743 0.65087 0.23631 0.0
C4852 C 0.85511 0.64102 0.22576 0.0
C4853 C 0.85324 0.64411 0.20688 0.0
C4854 C 0.8636 0.6582 0.19873 0.0
C4855 C 0.87549 0.66902 0.20953 0.0
C4856 C 0.87797 0.66478 0.22831 0.0
H4857 H 0.34784 0.83483 0.29027 0.0
H4858 H 0.38834 0.81209 0.25288 0.0
H4859 H 0.38165 0.83655 0.23064 0.0
H4860 H 0.31545 0.84293 0.26005 0.0
H4861 H 0.30712 0.86443 0.26911 0.0
H4862 H 0.31857 0.84854 0.28399 0.0
H4863 H 0.34213 0.87377 0.29302 0.0
H4864 H 0.33063 0.8898 0.27802 0.0
H4865 H 0.35488 0.88551 0.27532 0.0
H4866 H 0.36498 0.85768 0.20955 0.0
H4867 H 0.34055 0.87402 0.19253 0.0
H4868 H 0.31238 0.88484 0.24392 0.0
C4869 C 0.35584 0.83547 0.27774 0.0
C4870 C 0.36854 0.82151 0.27335 0.0
C4871 C 0.37858 0.82266 0.25667 0.0
C4872 C 0.37493 0.83659 0.24391 0.0
C4873 C 0.36157 0.8496 0.24819 0.0
C4874 C 0.35249 0.84943 0.26493 0.0
C4875 C 0.33707 0.86336 0.26525 0.0
C4876 C 0.31848 0.85426 0.26985 0.0
C4877 C 0.34145 0.87904 0.2787 0.0
C4878 C 0.33776 0.87004 0.24558 0.0
C4879 C 0.35228 0.86237 0.23603 0.0
C4880 C 0.35394 0.86431 0.21699 0.0
C4881 C 0.34001 0.87364 0.2074 0.0
C4882 C 0.3246 0.8807 0.21692 0.0
C4883 C 0.3241 0.87972 0.2363 0.0
H4884 H 0.15488 0.68758 0.78258 0.0
H4885 H 0.10322 0.65863 0.78912 0.0
H4886 H 0.11553 0.63292 0.77017 0.0
H4887 H 0.1583 0.67791 0.73535 0.0
H4888 H 0.18308 0.67724 0.73591 0.0
H4889 H 0.17072 0.69119 0.75208 0.0
H4890 H 0.18747 0.67476 0.77876 0.0
H4891 H 0.1994 0.65996 0.76294 0.0
H4892 H 0.18566 0.65014 0.78097 0.0
H4893 H 0.13494 0.61059 0.74807 0.0
H4894 H 0.15779 0.59614 0.72687 0.0
H4895 H 0.19232 0.64434 0.73255 0.0
C4896 C 0.14604 0.67585 0.78027 0.0
C4897 C 0.12805 0.67524 0.78734 0.0
C4898 C 0.11717 0.65938 0.784 0.0
C4899 C 0.12401 0.64478 0.77311 0.0
C4900 C 0.14157 0.64647 0.76546 0.0
C4901 C 0.15223 0.66181 0.76894 0.0
C4902 C 0.16979 0.66176 0.75811 0.0
C4903 C 0.1705 0.67797 0.74455 0.0
C4904 C 0.18656 0.66165 0.77097 0.0
C4905 C 0.16774 0.64385 0.74812 0.0
C4906 C 0.15161 0.63485 0.75243 0.0
C4907 C 0.14755 0.61769 0.74466 0.0
C4908 C 0.16052 0.60962 0.73255 0.0
C4909 C 0.17709 0.61893 0.7282 0.0
C4910 C 0.18019 0.63644 0.73582 0.0
H4911 H 0.38457 0.15305 0.72175 0.0
H4912 H 0.34149 0.18924 0.70169 0.0
H4913 H 0.32148 0.17945 0.72687 0.0
H4914 H 0.347 0.1155 0.73292 0.0
H4915 H 0.3606 0.10661 0.75161 0.0
H4916 H 0.37174 0.11583 0.73149 0.0
H4917 H 0.39015 0.13772 0.75263 0.0
H4918 H 0.37832 0.12931 0.7727 0.0
H4919 H 0.37798 0.1535 0.76737 0.0
H4920 H 0.31367 0.17629 0.76024 0.0
H4921 H 0.3023 0.16122 0.78805 0.0
H4922 H 0.34126 0.11667 0.77995 0.0
C4923 C 0.37057 0.15807 0.72196 0.0
C4924 C 0.36498 0.17285 0.71049 0.0
C4925 C 0.34634 0.17853 0.71084 0.0
C4926 C 0.33493 0.17332 0.72526 0.0
C4927 C 0.34173 0.16083 0.73791 0.0
C4928 C 0.35806 0.15159 0.7353 0.0
C4929 C 0.36017 0.13663 0.74988 0.0
C4930 C 0.35985 0.1175 0.74094 0.0
C4931 C 0.37771 0.13947 0.76131 0.0
C4932 C 0.34299 0.13997 0.76146 0.0
C4933 C 0.33355 0.15497 0.7548 0.0
C4934 C 0.31973 0.16348 0.76476 0.0
C4935 C 0.31353 0.15486 0.78064 0.0
C4936 C 0.31958 0.13687 0.78509 0.0
C4937 C 0.3356 0.12992 0.77631 0.0
H4938 H 0.82653 0.35202 0.70464 0.0
H4939 H 0.83139 0.40525 0.73061 0.0
H4940 H 0.85347 0.39235 0.75307 0.0
H4941 H 0.82341 0.32782 0.74284 0.0
H4942 H 0.8361 0.30793 0.73531 0.0
H4943 H 0.82483 0.32224 0.71873 0.0
H4944 H 0.85576 0.32718 0.70154 0.0
H4945 H 0.86708 0.31255 0.71802 0.0
H4946 H 0.87549 0.3355 0.714 0.0
H4947 H 0.86946 0.37144 0.77684 0.0
H4948 H 0.87929 0.34555 0.79701 0.0
H4949 H 0.86421 0.30725 0.754 0.0
C4950 C 0.8331 0.36115 0.71441 0.0
C4951 C 0.82764 0.37961 0.71575 0.0
C4952 C 0.83587 0.39114 0.72909 0.0
C4953 C 0.84829 0.38387 0.74199 0.0
C4954 C 0.85255 0.3652 0.74104 0.0
C4955 C 0.84552 0.35414 0.72719 0.0
C4956 C 0.85011 0.33419 0.73024 0.0
C4957 C 0.83258 0.32237 0.73188 0.0
C4958 C 0.86288 0.32693 0.71505 0.0
C4959 C 0.86002 0.33556 0.74837 0.0
C4960 C 0.86156 0.35344 0.75448 0.0
C4961 C 0.86868 0.35743 0.77193 0.0
C4962 C 0.87415 0.3427 0.78334 0.0
C4963 C 0.87211 0.32435 0.77724 0.0
C4964 C 0.8655 0.32102 0.75935 0.0
H4965 H 0.67498 0.8883 0.75813 0.0
H4966 H 0.65985 0.86681 0.81153 0.0
H4967 H 0.63453 0.84943 0.79727 0.0
H4968 H 0.62415 0.88673 0.7382 0.0
H4969 H 0.63321 0.88094 0.71589 0.0
H4970 H 0.64568 0.89641 0.73073 0.0
H4971 H 0.67433 0.87562 0.7279 0.0
H4972 H 0.66203 0.85984 0.71354 0.0
H4973 H 0.67274 0.85175 0.73438 0.0
H4974 H 0.61845 0.82798 0.77729 0.0
H4975 H 0.61023 0.806 0.75346 0.0
H4976 H 0.63449 0.84081 0.71182 0.0
C4977 C 0.66565 0.88069 0.76688 0.0
C4978 C 0.66925 0.87889 0.78591 0.0
C4979 C 0.65712 0.86861 0.79701 0.0
C4980 C 0.64271 0.85866 0.78898 0.0
C4981 C 0.64034 0.85962 0.76994 0.0
C4982 C 0.65108 0.87087 0.75905 0.0
C4983 C 0.64737 0.86748 0.73876 0.0
C4984 C 0.63699 0.88386 0.7304 0.0
C4985 C 0.66518 0.86341 0.72805 0.0
C4986 C 0.63494 0.8508 0.73992 0.0
C4987 C 0.63046 0.8471 0.75806 0.0
C4988 C 0.6212 0.83118 0.76303 0.0
C4989 C 0.61666 0.8186 0.74928 0.0
C4990 C 0.62133 0.8218 0.73068 0.0
C4991 C 0.6302 0.83835 0.72586 0.0
H4992 H 0.29077 0.17565 0.3521 0.0
H4993 H 0.26533 0.16814 0.40533 0.0
H4994 H 0.24351 0.14578 0.39172 0.0
H4995 H 0.25208 0.17831 0.3281 0.0
H4996 H 0.25995 0.16654 0.30777 0.0
H4997 H 0.27618 0.17803 0.32234 0.0
H4998 H 0.2947 0.14782 0.32628 0.0
H4999 H 0.27867 0.13623 0.31135 0.0
H5000 H 0.28316 0.12731 0.33402 0.0
H5001 H 0.22052 0.12908 0.37041 0.0
H5002 H 0.20078 0.11883 0.34435 0.0
H5003 H 0.24246 0.13757 0.30617 0.0
C5004 C 0.28116 0.16861 0.36104 0.0
C5005 C 0.27982 0.17336 0.37973 0.0
C5006 C 0.26681 0.16432 0.39102 0.0
C5007 C 0.25428 0.15171 0.38336 0.0
C5008 C 0.25527 0.14813 0.36452 0.0
C5009 C 0.26874 0.15606 0.35364 0.0
C5010 C 0.26579 0.15196 0.33355 0.0
C5011 C 0.26335 0.16976 0.3223 0.0
C5012 C 0.28151 0.14012 0.32585 0.0
C5013 C 0.24813 0.14121 0.33465 0.0
C5014 C 0.24222 0.13883 0.35252 0.0
C5015 C 0.22526 0.13058 0.35639 0.0
C5016 C 0.2141 0.12486 0.34157 0.0
C5017 C 0.21991 0.12778 0.32325 0.0
C5018 C 0.23735 0.13555 0.31997 0.0
H5019 H 0.85749 0.20734 0.33303 0.0
H5020 H 0.90265 0.24335 0.31896 0.0
H5021 H 0.89059 0.26695 0.34022 0.0
H5022 H 0.824 0.23806 0.33407 0.0
H5023 H 0.81167 0.2293 0.35368 0.0
H5024 H 0.82588 0.21419 0.3404 0.0
H5025 H 0.84412 0.20539 0.36979 0.0
H5026 H 0.8298 0.22057 0.38317 0.0
H5027 H 0.85443 0.22319 0.3836 0.0
H5028 H 0.86904 0.28906 0.35642 0.0
H5029 H 0.84214 0.30583 0.36899 0.0
H5030 H 0.81381 0.25386 0.37622 0.0
C5031 C 0.86527 0.21984 0.3352 0.0
C5032 C 0.88102 0.22354 0.32464 0.0
C5033 C 0.8907 0.2402 0.32726 0.0
C5034 C 0.88393 0.25369 0.33926 0.0
C5035 C 0.86785 0.24998 0.34901 0.0
C5036 C 0.85904 0.23315 0.3476 0.0
C5037 C 0.84127 0.23303 0.35832 0.0
C5038 C 0.82476 0.22839 0.34587 0.0
C5039 C 0.84249 0.21976 0.3747 0.0
C5040 C 0.84074 0.25277 0.36475 0.0
C5041 C 0.85618 0.26241 0.3594 0.0
C5042 C 0.85719 0.28152 0.36131 0.0
C5043 C 0.84185 0.29096 0.36844 0.0
C5044 C 0.82583 0.28122 0.3736 0.0
C5045 C 0.82581 0.26182 0.37249 0.0
H5046 H 0.79096 0.85577 0.33135 0.0
H5047 H 0.75797 0.90352 0.3185 0.0
H5048 H 0.73403 0.893 0.34019 0.0
H5049 H 0.75799 0.82445 0.33327 0.0
H5050 H 0.76648 0.81161 0.35267 0.0
H5051 H 0.78213 0.82474 0.33892 0.0
H5052 H 0.79296 0.84236 0.36803 0.0
H5053 H 0.77719 0.82915 0.38186 0.0
H5054 H 0.77628 0.85389 0.38228 0.0
H5055 H 0.71082 0.87292 0.35675 0.0
H5056 H 0.69256 0.8472 0.36965 0.0
H5057 H 0.74268 0.81546 0.37575 0.0
C5058 C 0.77907 0.86438 0.33383 0.0
C5059 C 0.77624 0.8804 0.32346 0.0
C5060 C 0.7604 0.89126 0.32656 0.0
C5061 C 0.74674 0.88539 0.33884 0.0
C5062 C 0.74955 0.86906 0.34841 0.0
C5063 C 0.76568 0.85908 0.34655 0.0
C5064 C 0.76487 0.84139 0.35732 0.0
C5065 C 0.76803 0.82458 0.34479 0.0
C5066 C 0.77864 0.84173 0.37332 0.0
C5067 C 0.74532 0.84225 0.36426 0.0
C5068 C 0.73661 0.85829 0.35914 0.0
C5069 C 0.71766 0.8606 0.36148 0.0
C5070 C 0.70736 0.84593 0.36881 0.0
C5071 C 0.71613 0.8293 0.37372 0.0
C5072 C 0.73546 0.82797 0.37222 0.0
H5073 H 0.15519 0.72669 0.39035 0.0
H5074 H 0.19407 0.70389 0.35125 0.0
H5075 H 0.18328 0.72571 0.32778 0.0
H5076 H 0.11835 0.73314 0.35245 0.0
H5077 H 0.10917 0.75319 0.36375 0.0
H5078 H 0.11887 0.73478 0.37717 0.0
H5079 H 0.14053 0.75832 0.39268 0.0
H5080 H 0.13156 0.77664 0.37868 0.0
H5081 H 0.15586 0.77184 0.37867 0.0
H5082 H 0.17723 0.75615 0.31423 0.0
H5083 H 0.16136 0.78195 0.29977 0.0
H5084 H 0.11914 0.78002 0.34205 0.0
C5085 C 0.16095 0.72591 0.37665 0.0
C5086 C 0.17626 0.71449 0.37276 0.0
C5087 C 0.183 0.71326 0.35463 0.0
C5088 C 0.17704 0.7256 0.34128 0.0
C5089 C 0.16367 0.73831 0.34616 0.0
C5090 C 0.15448 0.73761 0.36272 0.0
C5091 C 0.13924 0.75199 0.36325 0.0
C5092 C 0.12028 0.74272 0.3642 0.0
C5093 C 0.14198 0.76549 0.37928 0.0
C5094 C 0.14224 0.76142 0.34482 0.0
C5095 C 0.15709 0.75372 0.33586 0.0
C5096 C 0.16475 0.76152 0.32029 0.0
C5097 C 0.15569 0.77632 0.31234 0.0
C5098 C 0.13832 0.78216 0.31903 0.0
C5099 C 0.13204 0.77545 0.33621 0.0
H5100 H 0.25949 0.81683 0.62432 0.0
H5101 H 0.30789 0.84913 0.63707 0.0
H5102 H 0.28785 0.87481 0.64697 0.0
H5103 H 0.22463 0.85375 0.61572 0.0
H5104 H 0.2076 0.84173 0.62911 0.0
H5105 H 0.22471 0.82899 0.61647 0.0
H5106 H 0.2344 0.81232 0.64638 0.0
H5107 H 0.21738 0.82491 0.65899 0.0
H5108 H 0.24107 0.82579 0.66611 0.0
H5109 H 0.26285 0.8951 0.65949 0.0
H5110 H 0.23743 0.90522 0.67953 0.0
H5111 H 0.20699 0.85591 0.66609 0.0
C5112 C 0.26596 0.82946 0.62873 0.0
C5113 C 0.2853 0.83102 0.62983 0.0
C5114 C 0.29311 0.84774 0.63588 0.0
C5115 C 0.2818 0.86239 0.64148 0.0
C5116 C 0.26275 0.85985 0.6415 0.0
C5117 C 0.25494 0.84355 0.63567 0.0
C5118 C 0.23498 0.84211 0.64151 0.0
C5119 C 0.22223 0.84163 0.6247 0.0
C5120 C 0.2318 0.82529 0.65399 0.0
C5121 C 0.23288 0.85991 0.65206 0.0
C5122 C 0.24873 0.87039 0.65101 0.0
C5123 C 0.25037 0.88705 0.66029 0.0
C5124 C 0.23584 0.89271 0.67162 0.0
C5125 C 0.22031 0.8813 0.67424 0.0
C5126 C 0.2186 0.86497 0.66398 0.0
H5127 H 0.16107 0.28621 0.64059 0.0
H5128 H 0.19822 0.2457 0.61749 0.0
H5129 H 0.17739 0.22107 0.62649 0.0
H5130 H 0.15118 0.26393 0.67916 0.0
H5131 H 0.12701 0.26918 0.68074 0.0
H5132 H 0.14202 0.28418 0.6682 0.0
H5133 H 0.12162 0.28057 0.63922 0.0
H5134 H 0.10648 0.26549 0.65179 0.0
H5135 H 0.11664 0.25793 0.6305 0.0
H5136 H 0.15753 0.20066 0.64407 0.0
H5137 H 0.13903 0.18622 0.66865 0.0
H5138 H 0.11341 0.23859 0.68019 0.0
C5139 C 0.16435 0.27222 0.63675 0.0
C5140 C 0.18128 0.268 0.62822 0.0
C5141 C 0.18536 0.24943 0.62391 0.0
C5142 C 0.17351 0.23522 0.62889 0.0
C5143 C 0.15738 0.23966 0.63806 0.0
C5144 C 0.15255 0.2577 0.64174 0.0
C5145 C 0.13562 0.25839 0.65392 0.0
C5146 C 0.1392 0.26956 0.67155 0.0
C5147 C 0.11911 0.26605 0.64322 0.0
C5148 C 0.13302 0.23808 0.65797 0.0
C5149 C 0.14532 0.22748 0.64813 0.0
C5150 C 0.1473 0.20865 0.65132 0.0
C5151 C 0.13676 0.20053 0.66525 0.0
C5152 C 0.12445 0.21122 0.6757 0.0
C5153 C 0.12221 0.23007 0.67173 0.0
H5154 H 0.77805 0.14852 0.68629 0.0
H5155 H 0.7765 0.09536 0.65941 0.0
H5156 H 0.75599 0.10856 0.6353 0.0
H5157 H 0.73066 0.15578 0.68227 0.0
H5158 H 0.73354 0.18036 0.68077 0.0
H5159 H 0.75006 0.16672 0.69295 0.0
H5160 H 0.77599 0.1806 0.67245 0.0
H5161 H 0.75923 0.19376 0.65995 0.0
H5162 H 0.77435 0.17837 0.64782 0.0
H5163 H 0.73411 0.12998 0.61401 0.0
H5164 H 0.71392 0.15457 0.6011 0.0
H5165 H 0.72627 0.1884 0.64853 0.0
C5166 C 0.77363 0.13945 0.67538 0.0
C5167 C 0.77888 0.12085 0.67488 0.0
C5168 C 0.77278 0.10975 0.66005 0.0
C5169 C 0.76104 0.11713 0.64636 0.0
C5170 C 0.75536 0.13546 0.64801 0.0
C5171 C 0.76146 0.14621 0.66243 0.0
C5172 C 0.75221 0.16462 0.66306 0.0
C5173 C 0.74093 0.167 0.6808 0.0
C5174 C 0.76628 0.18025 0.66067 0.0
C5175 C 0.73993 0.16287 0.64665 0.0
C5176 C 0.742 0.14634 0.63759 0.0
C5177 C 0.73237 0.14284 0.62127 0.0
C5178 C 0.7208 0.1568 0.6141 0.0
C5179 C 0.71859 0.17368 0.62365 0.0
C5180 C 0.72783 0.17609 0.64044 0.0
H5181 H 0.82641 0.7069 0.64714 0.0
H5182 H 0.82839 0.73413 0.59436 0.0
H5183 H 0.85027 0.75698 0.60693 0.0
H5184 H 0.82398 0.74417 0.67307 0.0
H5185 H 0.83815 0.73631 0.6918 0.0
H5186 H 0.8264 0.71994 0.67762 0.0
H5187 H 0.85737 0.70383 0.67014 0.0
H5188 H 0.86918 0.72013 0.68459 0.0
H5189 H 0.87619 0.71711 0.66102 0.0
H5190 H 0.86638 0.78068 0.62764 0.0
H5191 H 0.87714 0.80045 0.65348 0.0
H5192 H 0.8661 0.75597 0.69137 0.0
C5193 C 0.83229 0.71708 0.63801 0.0
C5194 C 0.82609 0.71863 0.61977 0.0
C5195 C 0.83343 0.73247 0.60827 0.0
C5196 C 0.84575 0.74559 0.61535 0.0
C5197 C 0.85085 0.74432 0.63379 0.0
C5198 C 0.84474 0.73001 0.64478 0.0
C5199 C 0.85054 0.73257 0.66453 0.0
C5200 C 0.83377 0.7333 0.67749 0.0
C5201 C 0.86413 0.71751 0.67041 0.0
C5202 C 0.8599 0.75101 0.66319 0.0
C5203 C 0.86018 0.75765 0.64543 0.0
C5204 C 0.86658 0.77538 0.64153 0.0
C5205 C 0.8726 0.78655 0.65623 0.0
C5206 C 0.87188 0.77991 0.67447 0.0
C5207 C 0.8661 0.76173 0.67771 0.0
H5208 H 0.32183 0.20605 0.15263 0.0
H5209 H 0.33326 0.22745 0.0983 0.0
H5210 H 0.35422 0.25057 0.11184 0.0
H5211 H 0.31732 0.24618 0.17386 0.0
H5212 H 0.32803 0.24007 0.19534 0.0
H5213 H 0.31766 0.22258 0.18137 0.0
H5214 H 0.34824 0.20438 0.18033 0.0
H5215 H 0.35871 0.22156 0.19479 0.0
H5216 H 0.36901 0.21573 0.17303 0.0
H5217 H 0.36973 0.27498 0.13244 0.0
H5218 H 0.37943 0.29607 0.1576 0.0
H5219 H 0.35698 0.25793 0.19745 0.0
C5220 C 0.32943 0.21504 0.14352 0.0
C5221 C 0.32614 0.21482 0.12445 0.0
C5222 C 0.33592 0.22711 0.11294 0.0
C5223 C 0.34775 0.2404 0.12054 0.0
C5224 C 0.34987 0.24095 0.1396 0.0
C5225 C 0.34127 0.22823 0.15086 0.0
C5226 C 0.34413 0.23265 0.17092 0.0
C5227 C 0.32569 0.23555 0.18094 0.0
C5228 C 0.35572 0.21769 0.18032 0.0
C5229 C 0.35474 0.25037 0.16926 0.0
C5230 C 0.35831 0.25491 0.1512 0.0
C5231 C 0.36721 0.27135 0.14664 0.0
C5232 C 0.37258 0.2833 0.16096 0.0
C5233 C 0.36864 0.27886 0.17949 0.0
C5234 C 0.35985 0.26204 0.18348 0.0
H5235 H 0.36534 0.74324 0.806 0.0
H5236 H 0.3758 0.69687 0.8417 0.0
H5237 H 0.36446 0.71528 0.86831 0.0
H5238 H 0.37463 0.78052 0.83812 0.0
H5239 H 0.35592 0.79409 0.82923 0.0
H5240 H 0.36804 0.77844 0.81433 0.0
H5241 H 0.3373 0.76258 0.8059 0.0
H5242 H 0.32505 0.77805 0.82068 0.0
H5243 H 0.32288 0.75361 0.82395 0.0
H5244 H 0.34832 0.73826 0.89006 0.0
H5245 H 0.32697 0.76105 0.90366 0.0
H5246 H 0.32521 0.79035 0.85197 0.0
C5247 C 0.36507 0.73675 0.81929 0.0
C5248 C 0.37087 0.71843 0.82167 0.0
C5249 C 0.37125 0.71087 0.83957 0.0
C5250 C 0.3649 0.72127 0.85471 0.0
C5251 C 0.35848 0.73915 0.85158 0.0
C5252 C 0.35855 0.7467 0.83419 0.0
C5253 C 0.34909 0.76514 0.83357 0.0
C5254 C 0.36274 0.78045 0.82852 0.0
C5255 C 0.33261 0.7648 0.82026 0.0
C5256 C 0.34297 0.76671 0.8533 0.0
C5257 C 0.34894 0.75192 0.86369 0.0
C5258 C 0.34387 0.74999 0.88208 0.0
C5259 C 0.33187 0.76307 0.88974 0.0
C5260 C 0.32479 0.77756 0.87886 0.0
C5261 C 0.33081 0.77962 0.86063 0.0
H5262 H 0.21846 0.30994 0.84655 0.0
H5263 H 0.21656 0.33869 0.89873 0.0
H5264 H 0.23827 0.36204 0.88637 0.0
H5265 H 0.26554 0.31278 0.84167 0.0
H5266 H 0.26482 0.31476 0.81697 0.0
H5267 H 0.24676 0.30294 0.8289 0.0
H5268 H 0.22243 0.32431 0.81409 0.0
H5269 H 0.24035 0.33621 0.80194 0.0
H5270 H 0.22479 0.34886 0.8164 0.0
H5271 H 0.26184 0.38212 0.86665 0.0
H5272 H 0.28369 0.39467 0.84339 0.0
H5273 H 0.27366 0.34686 0.80928 0.0
C5274 C 0.22233 0.3212 0.85546 0.0
C5275 C 0.2158 0.3224 0.87363 0.0
C5276 C 0.22123 0.33756 0.88464 0.0
C5277 C 0.23367 0.35081 0.87777 0.0
C5278 C 0.24068 0.34847 0.86002 0.0
C5279 C 0.23512 0.33387 0.84919 0.0
C5280 C 0.24555 0.3329 0.8314 0.0
C5281 C 0.25632 0.31478 0.82966 0.0
C5282 C 0.2325 0.33574 0.815 0.0
C5283 C 0.25822 0.34901 0.83387 0.0
C5284 C 0.25501 0.35839 0.85004 0.0
C5285 C 0.2645 0.37466 0.85406 0.0
C5286 C 0.27702 0.38161 0.84088 0.0
C5287 C 0.28031 0.37191 0.82428 0.0
C5288 C 0.2713 0.35501 0.82144 0.0
H5289 H 0.63763 0.28894 0.83852 0.0
H5290 H 0.60787 0.24846 0.80669 0.0
H5291 H 0.61632 0.22449 0.82878 0.0
H5292 H 0.67439 0.26469 0.84536 0.0
H5293 H 0.67957 0.27129 0.86867 0.0
H5294 H 0.6662 0.28626 0.85446 0.0
H5295 H 0.64002 0.2861 0.87869 0.0
H5296 H 0.65347 0.27101 0.89303 0.0
H5297 H 0.63052 0.26455 0.88632 0.0
H5298 H 0.63485 0.20389 0.84807 0.0
H5299 H 0.66158 0.18918 0.86298 0.0
H5300 H 0.67889 0.24226 0.88368 0.0
C5301 C 0.63206 0.27524 0.8369 0.0
C5302 C 0.62198 0.27057 0.82106 0.0
C5303 C 0.61551 0.25235 0.81883 0.0
C5304 C 0.62016 0.23861 0.8314 0.0
C5305 C 0.63117 0.24328 0.84631 0.0
C5306 C 0.63677 0.26126 0.84936 0.0
C5307 C 0.65111 0.26206 0.86443 0.0
C5308 C 0.66885 0.27161 0.85781 0.0
C5309 C 0.64331 0.27149 0.88164 0.0
C5310 C 0.65407 0.24173 0.86784 0.0
C5311 C 0.64197 0.2311 0.85779 0.0
C5312 C 0.64399 0.21202 0.85653 0.0
C5313 C 0.65921 0.20372 0.86505 0.0
C5314 C 0.67225 0.2146 0.87444 0.0
C5315 C 0.669 0.23362 0.87667 0.0
H5316 H 0.71676 0.6286 0.84568 0.0
H5317 H 0.75127 0.62808 0.79724 0.0
H5318 H 0.77814 0.63499 0.81564 0.0
H5319 H 0.73738 0.6701 0.86061 0.0
H5320 H 0.7351 0.66526 0.88479 0.0
H5321 H 0.71939 0.65509 0.8687 0.0
H5322 H 0.72819 0.623 0.88174 0.0
H5323 H 0.7445 0.63343 0.89723 0.0
H5324 H 0.7519 0.61582 0.88144 0.0
H5325 H 0.80098 0.64448 0.83749 0.0
H5326 H 0.81645 0.6654 0.85902 0.0
H5327 H 0.76794 0.66586 0.89352 0.0
C5328 C 0.73013 0.62938 0.83918 0.0
C5329 C 0.73209 0.62619 0.82008 0.0
C5330 C 0.74952 0.62878 0.81187 0.0
C5331 C 0.765 0.63291 0.8223 0.0
C5332 C 0.76287 0.63553 0.84105 0.0
C5333 C 0.74578 0.63474 0.84938 0.0
C5334 C 0.74687 0.64264 0.86873 0.0
C5335 C 0.73393 0.65926 0.87081 0.0
C5336 C 0.74261 0.62783 0.88314 0.0
C5337 C 0.76702 0.64839 0.86954 0.0
C5338 C 0.77607 0.64328 0.85366 0.0
C5339 C 0.79421 0.64833 0.85016 0.0
C5340 C 0.803 0.66004 0.86257 0.0
C5341 C 0.79359 0.66678 0.87812 0.0
C5342 C 0.7757 0.66019 0.88215 0.0
H5343 H 0.691 0.77851 0.15322 0.0
H5344 H 0.65841 0.78457 0.10371 0.0
H5345 H 0.63509 0.76323 0.11687 0.0
H5346 H 0.68575 0.73052 0.15435 0.0
H5347 H 0.68659 0.7294 0.17909 0.0
H5348 H 0.69851 0.74742 0.16716 0.0
H5349 H 0.68104 0.77208 0.18604 0.0
H5350 H 0.66925 0.75418 0.19832 0.0
H5351 H 0.65625 0.77168 0.18661 0.0
H5352 H 0.61542 0.73994 0.13718 0.0
H5353 H 0.60337 0.71798 0.16049 0.0
H5354 H 0.65422 0.72349 0.19108 0.0
C5355 C 0.67904 0.77551 0.14495 0.0
C5356 C 0.67671 0.78316 0.12732 0.0
C5357 C 0.6605 0.77898 0.11733 0.0
C5358 C 0.64727 0.76675 0.12465 0.0
C5359 C 0.65078 0.75855 0.14169 0.0
C5360 C 0.6665 0.76275 0.15147 0.0
C5361 C 0.66862 0.75106 0.16837 0.0
C5362 C 0.68588 0.73888 0.16715 0.0
C5363 C 0.66878 0.76296 0.18586 0.0
C5364 C 0.6514 0.73975 0.167 0.0
C5365 C 0.64093 0.7443 0.15183 0.0
C5366 C 0.62373 0.73618 0.14892 0.0
C5367 C 0.61705 0.7236 0.16214 0.0
C5368 C 0.62777 0.71903 0.17777 0.0
C5369 C 0.64543 0.72676 0.17957 0.0
H5370 H 0.26981 0.64937 0.18783 0.0
H5371 H 0.2834 0.60314 0.15297 0.0
H5372 H 0.26194 0.61547 0.12912 0.0
H5373 H 0.22196 0.64635 0.18082 0.0
H5374 H 0.21911 0.67087 0.18303 0.0
H5375 H 0.23747 0.6595 0.19494 0.0
H5376 H 0.2623 0.68047 0.17897 0.0
H5377 H 0.24358 0.6925 0.16894 0.0
H5378 H 0.26125 0.6833 0.15437 0.0
H5379 H 0.23905 0.63702 0.10837 0.0
H5380 H 0.21691 0.66035 0.0966 0.0
H5381 H 0.21123 0.68185 0.15174 0.0
C5382 C 0.26819 0.64136 0.17551 0.0
C5383 C 0.27822 0.62513 0.17259 0.0
C5384 C 0.27598 0.61576 0.1556 0.0
C5385 C 0.26369 0.62261 0.14205 0.0
C5386 C 0.25328 0.63833 0.14612 0.0
C5387 C 0.25522 0.64703 0.16285 0.0
C5388 C 0.24206 0.66266 0.16533 0.0
C5389 C 0.2294 0.65964 0.18201 0.0
C5390 C 0.25291 0.68077 0.16694 0.0
C5391 C 0.23168 0.66139 0.14751 0.0
C5392 C 0.23885 0.64811 0.13596 0.0
C5393 C 0.23308 0.64701 0.11763 0.0
C5394 C 0.2203 0.6602 0.11109 0.0
C5395 C 0.21269 0.67359 0.12313 0.0
C5396 C 0.21754 0.67288 0.14182 0.0
H5397 H 0.70801 0.36533 0.15868 0.0
H5398 H 0.74738 0.40155 0.18479 0.0
H5399 H 0.77221 0.38849 0.1658 0.0
H5400 H 0.73262 0.32692 0.15483 0.0
H5401 H 0.72602 0.32046 0.13183 0.0
H5402 H 0.71106 0.33466 0.14536 0.0
H5403 H 0.71115 0.35937 0.11971 0.0
H5404 H 0.7262 0.34515 0.10604 0.0
H5405 H 0.7327 0.3684 0.11153 0.0
H5406 H 0.79341 0.368 0.14772 0.0
H5407 H 0.80876 0.34204 0.13185 0.0
H5408 H 0.75561 0.32052 0.11599 0.0
C5409 C 0.72176 0.3709 0.15988 0.0
C5410 C 0.72579 0.38442 0.17317 0.0
C5411 C 0.74396 0.39128 0.1746 0.0
C5412 C 0.75817 0.38398 0.16381 0.0
C5413 C 0.75388 0.37038 0.15105 0.0
C5414 C 0.73601 0.36426 0.14866 0.0
C5415 C 0.73524 0.34902 0.1345 0.0
C5416 C 0.72569 0.33175 0.14211 0.0
C5417 C 0.72576 0.35588 0.1169 0.0
C5418 C 0.75559 0.34596 0.13112 0.0
C5419 C 0.76611 0.35892 0.14017 0.0
C5420 C 0.78531 0.3581 0.14014 0.0
C5421 C 0.79395 0.34339 0.13103 0.0
C5422 C 0.78335 0.32955 0.12251 0.0
C5423 C 0.76399 0.33117 0.12214 0.0
loop_
_geom_bond_atom_site_label_1
_geom_bond_atom_site_label_2
_geom_bond_distance
_geom_bond_site_symmetry_2
_ccdc_geom_bond_type
Co0 O2 2.143 . S
Co0 O8 2.074 . S
Co0 O11 2.093 . S
Co0 O24 2.097 . S
Co0 N41 2.151 . S
Co0 N49 2.214 . S
Co1 O2 2.160 . S
Co1 O7 2.058 . S
Co1 O17 2.057 . S
Co1 O32 2.037 . S
Co1 N36 2.145 . S
Co1 N57 2.257 . S
O2 Co0 2.143 . S
O2 Co1 2.160 . S
C3 O4 1.278 . S
C3 O11 1.224 . S
O4 C3 1.278 . S
C5 O6 1.245 . S
C5 O17 1.232 . S
O6 C5 1.245 . S
O7 Co1 2.058 . S
O7 C33 1.269 . S
O8 Co0 2.074 . S
O8 C33 1.257 . S
H9 C34 0.930 . S
H10 C40 0.930 . S
O11 Co0 2.093 . S
O11 C3 1.224 . S
H12 C44 0.929 . S
H13 C46 0.930 . S
H14 C47 0.930 . S
H15 C45 0.929 . S
H16 C48 0.928 . S
O17 Co1 2.057 . S
O17 C5 1.232 . S
H18 C37 0.929 . S
H19 C38 0.929 . S
H20 C50 0.931 . S
H21 C42 0.929 . S
H22 C51 0.930 . S
H23 C43 0.931 . S
O24 Co0 2.097 . S
O24 C52 1.214 . S
H25 C53 0.929 . S
H26 C54 0.929 . S
H27 C55 0.930 . S
H28 C56 0.929 . S
H29 C58 0.930 . S
H30 C35 0.930 . S
H31 C39 0.930 . S
O32 Co1 2.037 . S
O32 C52 1.234 . S
C33 O7 1.269 . S
C33 O8 1.257 . S
C34 H9 0.930 . S
C34 C37 1.388 . S
C34 C39 1.418 . S
C35 H30 0.930 . S
C35 C38 1.404 . S
C35 C39 1.353 . S
N36 Co1 2.145 . S
N36 C37 1.397 . S
N36 C38 1.334 . S
C37 H18 0.929 . S
C37 C34 1.388 . S
C37 N36 1.397 . S
C38 H19 0.929 . S
C38 C35 1.404 . S
C38 N36 1.334 . S
C39 H31 0.930 . S
C39 C34 1.418 . S
C39 C35 1.353 . S
C40 H10 0.930 . S
C40 N41 1.330 . S
C40 C42 1.446 . S
N41 Co0 2.151 . S
N41 C40 1.330 . S
N41 C45 1.418 . S
C42 H21 0.929 . S
C42 C40 1.446 . S
C42 C43 1.332 . S
C43 H23 0.931 . S
C43 C42 1.332 . S
C43 C44 1.267 . S
C44 H12 0.929 . S
C44 C43 1.267 . S
C44 C45 1.251 . S
C45 H15 0.929 . S
C45 N41 1.418 . S
C45 C44 1.251 . S
C46 H13 0.930 . S
C46 C48 1.406 . S
C46 C51 1.261 . S
C47 H14 0.930 . S
C47 N49 1.325 . S
C47 C50 1.357 . S
C48 H16 0.928 . S
C48 C46 1.406 . S
C48 N49 1.261 . S
N49 Co0 2.214 . S
N49 C47 1.325 . S
N49 C48 1.261 . S
C50 H20 0.931 . S
C50 C47 1.357 . S
C50 C51 1.312 . S
C51 H22 0.930 . S
C51 C46 1.261 . S
C51 C50 1.312 . S
C52 O24 1.214 . S
C52 O32 1.234 . S
C53 H25 0.929 . S
C53 C56 1.391 . S
C53 C58 1.391 . S
C54 H26 0.929 . S
C54 C55 1.390 . S
C54 N57 1.391 . S
C55 H27 0.930 . S
C55 C54 1.390 . S
C55 C56 1.392 . S
C56 H28 0.929 . S
C56 C53 1.391 . S
C56 C55 1.392 . S
N57 Co1 2.257 . S
N57 C54 1.391 . S
N57 C58 1.388 . S
C58 H29 0.930 . S
C58 C53 1.391 . S
C58 N57 1.388 . S
Co59 O61 2.143 . S
Co59 O67 2.074 . S
Co59 O70 2.093 . S
Co59 O83 2.097 . S
Co59 N100 2.151 . S
Co59 N108 2.214 . S
Co60 O61 2.160 . S
Co60 O66 2.058 . S
Co60 O76 2.057 . S
Co60 O91 2.037 . S
Co60 N95 2.145 . S
Co60 N116 2.257 . S
O61 Co59 2.143 . S
O61 Co60 2.160 . S
C62 O63 1.278 . S
C62 O70 1.224 . S
O63 C62 1.278 . S
C64 O65 1.245 . S
C64 O76 1.232 . S
O65 C64 1.245 . S
O66 Co60 2.058 . S
O66 C92 1.269 . S
O67 Co59 2.074 . S
O67 C92 1.257 . S
H68 C93 0.930 . S
H69 C99 0.930 . S
O70 Co59 2.093 . S
O70 C62 1.224 . S
H71 C103 0.929 . S
H72 C105 0.930 . S
H73 C106 0.930 . S
H74 C104 0.929 . S
H75 C107 0.928 . S
O76 Co60 2.057 . S
O76 C64 1.232 . S
H77 C96 0.929 . S
H78 C97 0.929 . S
H79 C109 0.931 . S
H80 C101 0.929 . S
H81 C110 0.930 . S
H82 C102 0.931 . S
O83 Co59 2.097 . S
O83 C111 1.214 . S
H84 C112 0.929 . S
H85 C113 0.929 . S
H86 C114 0.930 . S
H87 C115 0.929 . S
H88 C117 0.930 . S
H89 C94 0.930 . S
H90 C98 0.930 . S
O91 Co60 2.037 . S
O91 C111 1.234 . S
C92 O66 1.269 . S
C92 O67 1.257 . S
C93 H68 0.930 . S
C93 C96 1.388 . S
C93 C98 1.418 . S
C94 H89 0.930 . S
C94 C97 1.404 . S
C94 C98 1.353 . S
N95 Co60 2.145 . S
N95 C96 1.397 . S
N95 C97 1.334 . S
C96 H77 0.929 . S
C96 C93 1.388 . S
C96 N95 1.397 . S
C97 H78 0.929 . S
C97 C94 1.404 . S
C97 N95 1.334 . S
C98 H90 0.930 . S
C98 C93 1.418 . S
C98 C94 1.353 . S
C99 H69 0.930 . S
C99 N100 1.330 . S
C99 C101 1.446 . S
N100 Co59 2.151 . S
N100 C99 1.330 . S
N100 C104 1.418 . S
C101 H80 0.929 . S
C101 C99 1.446 . S
C101 C102 1.332 . S
C102 H82 0.931 . S
C102 C101 1.332 . S
C102 C103 1.267 . S
C103 H71 0.929 . S
C103 C102 1.267 . S
C103 C104 1.251 . S
C104 H74 0.929 . S
C104 N100 1.418 . S
C104 C103 1.251 . S
C105 H72 0.930 . S
C105 C107 1.406 . S
C105 C110 1.261 . S
C106 H73 0.930 . S
C106 N108 1.325 . S
C106 C109 1.357 . S
C107 H75 0.928 . S
C107 C105 1.406 . S
C107 N108 1.261 . S
N108 Co59 2.214 . S
N108 C106 1.325 . S
N108 C107 1.261 . S
C109 H79 0.931 . S
C109 C106 1.357 . S
C109 C110 1.312 . S
C110 H81 0.930 . S
C110 C105 1.261 . S
C110 C109 1.312 . S
C111 O83 1.214 . S
C111 O91 1.234 . S
C112 H84 0.929 . S
C112 C115 1.391 . S
C112 C117 1.391 . S
C113 H85 0.929 . S
C113 C114 1.390 . S
C113 N116 1.391 . S
C114 H86 0.930 . S
C114 C113 1.390 . S
C114 C115 1.392 . S
C115 H87 0.929 . S
C115 C112 1.391 . S
C115 C114 1.392 . S
N116 Co60 2.257 . S
N116 C113 1.391 . S
N116 C117 1.388 . S
C117 H88 0.930 . S
C117 C112 1.391 . S
C117 N116 1.388 . S
Co118 O120 2.143 . S
Co118 O126 2.074 . S
Co118 O129 2.093 . S
Co118 O142 2.097 . S
Co118 N159 2.151 . S
Co118 N167 2.214 . S
Co119 O120 2.160 . S
Co119 O125 2.058 . S
Co119 O135 2.057 . S
Co119 O150 2.037 . S
Co119 N154 2.145 . S
Co119 N175 2.257 . S
O120 Co118 2.143 . S
O120 Co119 2.160 . S
C121 O122 1.278 . S
C121 O129 1.224 . S
O122 C121 1.278 . S
C123 O124 1.245 . S
C123 O135 1.232 . S
O124 C123 1.245 . S
O125 Co119 2.058 . S
O125 C151 1.269 . S
O126 Co118 2.074 . S
O126 C151 1.257 . S
H127 C152 0.930 . S
H128 C158 0.930 . S
O129 Co118 2.093 . S
O129 C121 1.224 . S
H130 C162 0.929 . S
H131 C164 0.930 . S
H132 C165 0.930 . S
H133 C163 0.929 . S
H134 C166 0.928 . S
O135 Co119 2.057 . S
O135 C123 1.232 . S
H136 C155 0.929 . S
H137 C156 0.929 . S
H138 C168 0.931 . S
H139 C160 0.929 . S
H140 C169 0.930 . S
H141 C161 0.931 . S
O142 Co118 2.097 . S
O142 C170 1.214 . S
H143 C171 0.929 . S
H144 C172 0.929 . S
H145 C173 0.930 . S
H146 C174 0.929 . S
H147 C176 0.930 . S
H148 C153 0.930 . S
H149 C157 0.930 . S
O150 Co119 2.037 . S
O150 C170 1.234 . S
C151 O125 1.269 . S
C151 O126 1.257 . S
C152 H127 0.930 . S
C152 C155 1.388 . S
C152 C157 1.418 . S
C153 H148 0.930 . S
C153 C156 1.404 . S
C153 C157 1.353 . S
N154 Co119 2.145 . S
N154 C155 1.397 . S
N154 C156 1.334 . S
C155 H136 0.929 . S
C155 C152 1.388 . S
C155 N154 1.397 . S
C156 H137 0.929 . S
C156 C153 1.404 . S
C156 N154 1.334 . S
C157 H149 0.930 . S
C157 C152 1.418 . S
C157 C153 1.353 . S
C158 H128 0.930 . S
C158 N159 1.330 . S
C158 C160 1.446 . S
N159 Co118 2.151 . S
N159 C158 1.330 . S
N159 C163 1.418 . S
C160 H139 0.929 . S
C160 C158 1.446 . S
C160 C161 1.332 . S
C161 H141 0.931 . S
C161 C160 1.332 . S
C161 C162 1.267 . S
C162 H130 0.929 . S
C162 C161 1.267 . S
C162 C163 1.251 . S
C163 H133 0.929 . S
C163 N159 1.418 . S
C163 C162 1.251 . S
C164 H131 0.930 . S
C164 C166 1.406 . S
C164 C169 1.261 . S
C165 H132 0.930 . S
C165 N167 1.325 . S
C165 C168 1.357 . S
C166 H134 0.928 . S
C166 C164 1.406 . S
C166 N167 1.261 . S
N167 Co118 2.214 . S
N167 C165 1.325 . S
N167 C166 1.261 . S
C168 H138 0.931 . S
C168 C165 1.357 . S
C168 C169 1.312 . S
C169 H140 0.930 . S
C169 C164 1.261 . S
C169 C168 1.312 . S
C170 O142 1.214 . S
C170 O150 1.234 . S
C171 H143 0.929 . S
C171 C174 1.391 . S
C171 C176 1.391 . S
C172 H144 0.929 . S
C172 C173 1.390 . S
C172 N175 1.391 . S
C173 H145 0.930 . S
C173 C172 1.390 . S
C173 C174 1.392 . S
C174 H146 0.929 . S
C174 C171 1.391 . S
C174 C173 1.392 . S
N175 Co119 2.257 . S
N175 C172 1.391 . S
N175 C176 1.388 . S
C176 H147 0.930 . S
C176 C171 1.391 . S
C176 N175 1.388 . S
Co177 O179 2.143 . S
Co177 O185 2.074 . S
Co177 O188 2.093 . S
Co177 O201 2.097 . S
Co177 N218 2.151 . S
Co177 N226 2.214 . S
Co178 O179 2.160 . S
Co178 O184 2.058 . S
Co178 O194 2.057 . S
Co178 O209 2.037 . S
Co178 N213 2.145 . S
Co178 N234 2.257 . S
O179 Co177 2.143 . S
O179 Co178 2.160 . S
C180 O181 1.278 . S
C180 O188 1.224 . S
O181 C180 1.278 . S
C182 O183 1.245 . S
C182 O194 1.232 . S
O183 C182 1.245 . S
O184 Co178 2.058 . S
O184 C210 1.269 . S
O185 Co177 2.074 . S
O185 C210 1.257 . S
H186 C211 0.930 . S
H187 C217 0.930 . S
O188 Co177 2.093 . S
O188 C180 1.224 . S
H189 C221 0.929 . S
H190 C223 0.930 . S
H191 C224 0.930 . S
H192 C222 0.929 . S
H193 C225 0.928 . S
O194 Co178 2.057 . S
O194 C182 1.232 . S
H195 C214 0.929 . S
H196 C215 0.929 . S
H197 C227 0.931 . S
H198 C219 0.929 . S
H199 C228 0.930 . S
H200 C220 0.931 . S
O201 Co177 2.097 . S
O201 C229 1.214 . S
H202 C230 0.929 . S
H203 C231 0.929 . S
H204 C232 0.930 . S
H205 C233 0.929 . S
H206 C235 0.930 . S
H207 C212 0.930 . S
H208 C216 0.930 . S
O209 Co178 2.037 . S
O209 C229 1.234 . S
C210 O184 1.269 . S
C210 O185 1.257 . S
C211 H186 0.930 . S
C211 C214 1.388 . S
C211 C216 1.418 . S
C212 H207 0.930 . S
C212 C215 1.404 . S
C212 C216 1.353 . S
N213 Co178 2.145 . S
N213 C214 1.397 . S
N213 C215 1.334 . S
C214 H195 0.929 . S
C214 C211 1.388 . S
C214 N213 1.397 . S
C215 H196 0.929 . S
C215 C212 1.404 . S
C215 N213 1.334 . S
C216 H208 0.930 . S
C216 C211 1.418 . S
C216 C212 1.353 . S
C217 H187 0.930 . S
C217 N218 1.330 . S
C217 C219 1.446 . S
N218 Co177 2.151 . S
N218 C217 1.330 . S
N218 C222 1.418 . S
C219 H198 0.929 . S
C219 C217 1.446 . S
C219 C220 1.332 . S
C220 H200 0.931 . S
C220 C219 1.332 . S
C220 C221 1.267 . S
C221 H189 0.929 . S
C221 C220 1.267 . S
C221 C222 1.251 . S
C222 H192 0.929 . S
C222 N218 1.418 . S
C222 C221 1.251 . S
C223 H190 0.930 . S
C223 C225 1.406 . S
C223 C228 1.261 . S
C224 H191 0.930 . S
C224 N226 1.325 . S
C224 C227 1.357 . S
C225 H193 0.928 . S
C225 C223 1.406 . S
C225 N226 1.261 . S
N226 Co177 2.214 . S
N226 C224 1.325 . S
N226 C225 1.261 . S
C227 H197 0.931 . S
C227 C224 1.357 . S
C227 C228 1.312 . S
C228 H199 0.930 . S
C228 C223 1.261 . S
C228 C227 1.312 . S
C229 O201 1.214 . S
C229 O209 1.234 . S
C230 H202 0.929 . S
C230 C233 1.391 . S
C230 C235 1.391 . S
C231 H203 0.929 . S
C231 C232 1.390 . S
C231 N234 1.391 . S
C232 H204 0.930 . S
C232 C231 1.390 . S
C232 C233 1.392 . S
C233 H205 0.929 . S
C233 C230 1.391 . S
C233 C232 1.392 . S
N234 Co178 2.257 . S
N234 C231 1.391 . S
N234 C235 1.388 . S
C235 H206 0.930 . S
C235 C230 1.391 . S
C235 N234 1.388 . S
Co236 O238 2.143 . S
Co236 O244 2.074 . S
Co236 O247 2.093 . S
Co236 O260 2.097 . S
Co236 N277 2.151 . S
Co236 N285 2.214 . S
Co237 O238 2.160 . S
Co237 O243 2.058 . S
Co237 O253 2.057 . S
Co237 O268 2.037 . S
Co237 N272 2.145 . S
Co237 N293 2.257 . S
O238 Co236 2.143 . S
O238 Co237 2.160 . S
C239 O240 1.278 . S
C239 O247 1.224 . S
O240 C239 1.278 . S
C241 O242 1.245 . S
C241 O253 1.232 . S
O242 C241 1.245 . S
O243 Co237 2.058 . S
O243 C269 1.269 . S
O244 Co236 2.074 . S
O244 C269 1.257 . S
H245 C270 0.930 . S
H246 C276 0.930 . S
O247 Co236 2.093 . S
O247 C239 1.224 . S
H248 C280 0.929 . S
H249 C282 0.930 . S
H250 C283 0.930 . S
H251 C281 0.929 . S
H252 C284 0.928 . S
O253 Co237 2.057 . S
O253 C241 1.232 . S
H254 C273 0.929 . S
H255 C274 0.929 . S
H256 C286 0.931 . S
H257 C278 0.929 . S
H258 C287 0.930 . S
H259 C279 0.931 . S
O260 Co236 2.097 . S
O260 C288 1.214 . S
H261 C289 0.929 . S
H262 C290 0.929 . S
H263 C291 0.930 . S
H264 C292 0.929 . S
H265 C294 0.930 . S
H266 C271 0.930 . S
H267 C275 0.930 . S
O268 Co237 2.037 . S
O268 C288 1.234 . S
C269 O243 1.269 . S
C269 O244 1.257 . S
C270 H245 0.930 . S
C270 C273 1.388 . S
C270 C275 1.418 . S
C271 H266 0.930 . S
C271 C274 1.404 . S
C271 C275 1.353 . S
N272 Co237 2.145 . S
N272 C273 1.397 . S
N272 C274 1.334 . S
C273 H254 0.929 . S
C273 C270 1.388 . S
C273 N272 1.397 . S
C274 H255 0.929 . S
C274 C271 1.404 . S
C274 N272 1.334 . S
C275 H267 0.930 . S
C275 C270 1.418 . S
C275 C271 1.353 . S
C276 H246 0.930 . S
C276 N277 1.330 . S
C276 C278 1.446 . S
N277 Co236 2.151 . S
N277 C276 1.330 . S
N277 C281 1.418 . S
C278 H257 0.929 . S
C278 C276 1.446 . S
C278 C279 1.332 . S
C279 H259 0.931 . S
C279 C278 1.332 . S
C279 C280 1.267 . S
C280 H248 0.929 . S
C280 C279 1.267 . S
C280 C281 1.251 . S
C281 H251 0.929 . S
C281 N277 1.418 . S
C281 C280 1.251 . S
C282 H249 0.930 . S
C282 C284 1.406 . S
C282 C287 1.261 . S
C283 H250 0.930 . S
C283 N285 1.325 . S
C283 C286 1.357 . S
C284 H252 0.928 . S
C284 C282 1.406 . S
C284 N285 1.261 . S
N285 Co236 2.214 . S
N285 C283 1.325 . S
N285 C284 1.261 . S
C286 H256 0.931 . S
C286 C283 1.357 . S
C286 C287 1.312 . S
C287 H258 0.930 . S
C287 C282 1.261 . S
C287 C286 1.312 . S
C288 O260 1.214 . S
C288 O268 1.234 . S
C289 H261 0.929 . S
C289 C292 1.391 . S
C289 C294 1.391 . S
C290 H262 0.929 . S
C290 C291 1.390 . S
C290 N293 1.391 . S
C291 H263 0.930 . S
C291 C290 1.390 . S
C291 C292 1.392 . S
C292 H264 0.929 . S
C292 C289 1.391 . S
C292 C291 1.392 . S
N293 Co237 2.257 . S
N293 C290 1.391 . S
N293 C294 1.388 . S
C294 H265 0.930 . S
C294 C289 1.391 . S
C294 N293 1.388 . S
Co295 O297 2.143 . S
Co295 O303 2.074 . S
Co295 O306 2.093 . S
Co295 O319 2.097 . S
Co295 N336 2.151 . S
Co295 N344 2.214 . S
Co296 O297 2.160 . S
Co296 O302 2.058 . S
Co296 O312 2.057 . S
Co296 O327 2.037 . S
Co296 N331 2.145 . S
Co296 N352 2.257 . S
O297 Co295 2.143 . S
O297 Co296 2.160 . S
C298 O299 1.278 . S
C298 O306 1.224 . S
O299 C298 1.278 . S
C300 O301 1.245 . S
C300 O312 1.232 . S
O301 C300 1.245 . S
O302 Co296 2.058 . S
O302 C328 1.269 . S
O303 Co295 2.074 . S
O303 C328 1.257 . S
H304 C329 0.930 . S
H305 C335 0.930 . S
O306 Co295 2.093 . S
O306 C298 1.224 . S
H307 C339 0.929 . S
H308 C341 0.930 . S
H309 C342 0.930 . S
H310 C340 0.929 . S
H311 C343 0.928 . S
O312 Co296 2.057 . S
O312 C300 1.232 . S
H313 C332 0.929 . S
H314 C333 0.929 . S
H315 C345 0.931 . S
H316 C337 0.929 . S
H317 C346 0.930 . S
H318 C338 0.931 . S
O319 Co295 2.097 . S
O319 C347 1.214 . S
H320 C348 0.929 . S
H321 C349 0.929 . S
H322 C350 0.930 . S
H323 C351 0.929 . S
H324 C353 0.930 . S
H325 C330 0.930 . S
H326 C334 0.930 . S
O327 Co296 2.037 . S
O327 C347 1.234 . S
C328 O302 1.269 . S
C328 O303 1.257 . S
C329 H304 0.930 . S
C329 C332 1.388 . S
C329 C334 1.418 . S
C330 H325 0.930 . S
C330 C333 1.404 . S
C330 C334 1.353 . S
N331 Co296 2.145 . S
N331 C332 1.397 . S
N331 C333 1.334 . S
C332 H313 0.929 . S
C332 C329 1.388 . S
C332 N331 1.397 . S
C333 H314 0.929 . S
C333 C330 1.404 . S
C333 N331 1.334 . S
C334 H326 0.930 . S
C334 C329 1.418 . S
C334 C330 1.353 . S
C335 H305 0.930 . S
C335 N336 1.330 . S
C335 C337 1.446 . S
N336 Co295 2.151 . S
N336 C335 1.330 . S
N336 C340 1.418 . S
C337 H316 0.929 . S
C337 C335 1.446 . S
C337 C338 1.332 . S
C338 H318 0.931 . S
C338 C337 1.332 . S
C338 C339 1.267 . S
C339 H307 0.929 . S
C339 C338 1.267 . S
C339 C340 1.251 . S
C340 H310 0.929 . S
C340 N336 1.418 . S
C340 C339 1.251 . S
C341 H308 0.930 . S
C341 C343 1.406 . S
C341 C346 1.261 . S
C342 H309 0.930 . S
C342 N344 1.325 . S
C342 C345 1.357 . S
C343 H311 0.928 . S
C343 C341 1.406 . S
C343 N344 1.261 . S
N344 Co295 2.214 . S
N344 C342 1.325 . S
N344 C343 1.261 . S
C345 H315 0.931 . S
C345 C342 1.357 . S
C345 C346 1.312 . S
C346 H317 0.930 . S
C346 C341 1.261 . S
C346 C345 1.312 . S
C347 O319 1.214 . S
C347 O327 1.234 . S
C348 H320 0.929 . S
C348 C351 1.391 . S
C348 C353 1.391 . S
C349 H321 0.929 . S
C349 C350 1.390 . S
C349 N352 1.391 . S
C350 H322 0.930 . S
C350 C349 1.390 . S
C350 C351 1.392 . S
C351 H323 0.929 . S
C351 C348 1.391 . S
C351 C350 1.392 . S
N352 Co296 2.257 . S
N352 C349 1.391 . S
N352 C353 1.388 . S
C353 H324 0.930 . S
C353 C348 1.391 . S
C353 N352 1.388 . S
Co354 O356 2.143 . S
Co354 O362 2.074 . S
Co354 O365 2.093 . S
Co354 O378 2.097 . S
Co354 N395 2.151 . S
Co354 N403 2.214 . S
Co355 O356 2.160 . S
Co355 O361 2.058 . S
Co355 O371 2.057 . S
Co355 O386 2.037 . S
Co355 N390 2.145 . S
Co355 N411 2.257 . S
O356 Co354 2.143 . S
O356 Co355 2.160 . S
C357 O358 1.278 . S
C357 O365 1.224 . S
O358 C357 1.278 . S
C359 O360 1.245 . S
C359 O371 1.232 . S
O360 C359 1.245 . S
O361 Co355 2.058 . S
O361 C387 1.269 . S
O362 Co354 2.074 . S
O362 C387 1.257 . S
H363 C388 0.930 . S
H364 C394 0.930 . S
O365 Co354 2.093 . S
O365 C357 1.224 . S
H366 C398 0.929 . S
H367 C400 0.930 . S
H368 C401 0.930 . S
H369 C399 0.929 . S
H370 C402 0.928 . S
O371 Co355 2.057 . S
O371 C359 1.232 . S
H372 C391 0.929 . S
H373 C392 0.929 . S
H374 C404 0.931 . S
H375 C396 0.929 . S
H376 C405 0.930 . S
H377 C397 0.931 . S
O378 Co354 2.097 . S
O378 C406 1.214 . S
H379 C407 0.929 . S
H380 C408 0.929 . S
H381 C409 0.930 . S
H382 C410 0.929 . S
H383 C412 0.930 . S
H384 C389 0.930 . S
H385 C393 0.930 . S
O386 Co355 2.037 . S
O386 C406 1.234 . S
C387 O361 1.269 . S
C387 O362 1.257 . S
C388 H363 0.930 . S
C388 C391 1.388 . S
C388 C393 1.418 . S
C389 H384 0.930 . S
C389 C392 1.404 . S
C389 C393 1.353 . S
N390 Co355 2.145 . S
N390 C391 1.397 . S
N390 C392 1.334 . S
C391 H372 0.929 . S
C391 C388 1.388 . S
C391 N390 1.397 . S
C392 H373 0.929 . S
C392 C389 1.404 . S
C392 N390 1.334 . S
C393 H385 0.930 . S
C393 C388 1.418 . S
C393 C389 1.353 . S
C394 H364 0.930 . S
C394 N395 1.330 . S
C394 C396 1.446 . S
N395 Co354 2.151 . S
N395 C394 1.330 . S
N395 C399 1.418 . S
C396 H375 0.929 . S
C396 C394 1.446 . S
C396 C397 1.332 . S
C397 H377 0.931 . S
C397 C396 1.332 . S
C397 C398 1.267 . S
C398 H366 0.929 . S
C398 C397 1.267 . S
C398 C399 1.251 . S
C399 H369 0.929 . S
C399 N395 1.418 . S
C399 C398 1.251 . S
C400 H367 0.930 . S
C400 C402 1.406 . S
C400 C405 1.261 . S
C401 H368 0.930 . S
C401 N403 1.325 . S
C401 C404 1.357 . S
C402 H370 0.928 . S
C402 C400 1.406 . S
C402 N403 1.261 . S
N403 Co354 2.214 . S
N403 C401 1.325 . S
N403 C402 1.261 . S
C404 H374 0.931 . S
C404 C401 1.357 . S
C404 C405 1.312 . S
C405 H376 0.930 . S
C405 C400 1.261 . S
C405 C404 1.312 . S
C406 O378 1.214 . S
C406 O386 1.234 . S
C407 H379 0.929 . S
C407 C410 1.391 . S
C407 C412 1.391 . S
C408 H380 0.929 . S
C408 C409 1.390 . S
C408 N411 1.391 . S
C409 H381 0.930 . S
C409 C408 1.390 . S
C409 C410 1.392 . S
C410 H382 0.929 . S
C410 C407 1.391 . S
C410 C409 1.392 . S
N411 Co355 2.257 . S
N411 C408 1.391 . S
N411 C412 1.388 . S
C412 H383 0.930 . S
C412 C407 1.391 . S
C412 N411 1.388 . S
Co413 O415 2.143 . S
Co413 O421 2.074 . S
Co413 O424 2.093 . S
Co413 O437 2.097 . S
Co413 N454 2.151 . S
Co413 N462 2.214 . S
Co414 O415 2.160 . S
Co414 O420 2.058 . S
Co414 O430 2.057 . S
Co414 O445 2.037 . S
Co414 N449 2.145 . S
Co414 N470 2.257 . S
O415 Co413 2.143 . S
O415 Co414 2.160 . S
C416 O417 1.278 . S
C416 O424 1.224 . S
O417 C416 1.278 . S
C418 O419 1.245 . S
C418 O430 1.232 . S
O419 C418 1.245 . S
O420 Co414 2.058 . S
O420 C446 1.269 . S
O421 Co413 2.074 . S
O421 C446 1.257 . S
H422 C447 0.930 . S
H423 C453 0.930 . S
O424 Co413 2.093 . S
O424 C416 1.224 . S
H425 C457 0.929 . S
H426 C459 0.930 . S
H427 C460 0.930 . S
H428 C458 0.929 . S
H429 C461 0.928 . S
O430 Co414 2.057 . S
O430 C418 1.232 . S
H431 C450 0.929 . S
H432 C451 0.929 . S
H433 C463 0.931 . S
H434 C455 0.929 . S
H435 C464 0.930 . S
H436 C456 0.931 . S
O437 Co413 2.097 . S
O437 C465 1.214 . S
H438 C466 0.929 . S
H439 C467 0.929 . S
H440 C468 0.930 . S
H441 C469 0.929 . S
H442 C471 0.930 . S
H443 C448 0.930 . S
H444 C452 0.930 . S
O445 Co414 2.037 . S
O445 C465 1.234 . S
C446 O420 1.269 . S
C446 O421 1.257 . S
C447 H422 0.930 . S
C447 C450 1.388 . S
C447 C452 1.418 . S
C448 H443 0.930 . S
C448 C451 1.404 . S
C448 C452 1.353 . S
N449 Co414 2.145 . S
N449 C450 1.397 . S
N449 C451 1.334 . S
C450 H431 0.929 . S
C450 C447 1.388 . S
C450 N449 1.397 . S
C451 H432 0.929 . S
C451 C448 1.404 . S
C451 N449 1.334 . S
C452 H444 0.930 . S
C452 C447 1.418 . S
C452 C448 1.353 . S
C453 H423 0.930 . S
C453 N454 1.330 . S
C453 C455 1.446 . S
N454 Co413 2.151 . S
N454 C453 1.330 . S
N454 C458 1.418 . S
C455 H434 0.929 . S
C455 C453 1.446 . S
C455 C456 1.332 . S
C456 H436 0.931 . S
C456 C455 1.332 . S
C456 C457 1.267 . S
C457 H425 0.929 . S
C457 C456 1.267 . S
C457 C458 1.251 . S
C458 H428 0.929 . S
C458 N454 1.418 . S
C458 C457 1.251 . S
C459 H426 0.930 . S
C459 C461 1.406 . S
C459 C464 1.261 . S
C460 H427 0.930 . S
C460 N462 1.325 . S
C460 C463 1.357 . S
C461 H429 0.928 . S
C461 C459 1.406 . S
C461 N462 1.261 . S
N462 Co413 2.214 . S
N462 C460 1.325 . S
N462 C461 1.261 . S
C463 H433 0.931 . S
C463 C460 1.357 . S
C463 C464 1.312 . S
C464 H435 0.930 . S
C464 C459 1.261 . S
C464 C463 1.312 . S
C465 O437 1.214 . S
C465 O445 1.234 . S
C466 H438 0.929 . S
C466 C469 1.391 . S
C466 C471 1.391 . S
C467 H439 0.929 . S
C467 C468 1.390 . S
C467 N470 1.391 . S
C468 H440 0.930 . S
C468 C467 1.390 . S
C468 C469 1.392 . S
C469 H441 0.929 . S
C469 C466 1.391 . S
C469 C468 1.392 . S
N470 Co414 2.257 . S
N470 C467 1.391 . S
N470 C471 1.388 . S
C471 H442 0.930 . S
C471 C466 1.391 . S
C471 N470 1.388 . S
Co472 O474 2.143 . S
Co472 O480 2.074 . S
Co472 O483 2.093 . S
Co472 O496 2.097 . S
Co472 N513 2.151 . S
Co472 N521 2.214 . S
Co473 O474 2.160 . S
Co473 O479 2.058 . S
Co473 O489 2.057 . S
Co473 O504 2.037 . S
Co473 N508 2.145 . S
Co473 N529 2.257 . S
O474 Co472 2.143 . S
O474 Co473 2.160 . S
C475 O476 1.278 . S
C475 O483 1.224 . S
O476 C475 1.278 . S
C477 O478 1.245 . S
C477 O489 1.232 . S
O478 C477 1.245 . S
O479 Co473 2.058 . S
O479 C505 1.269 . S
O480 Co472 2.074 . S
O480 C505 1.257 . S
H481 C506 0.930 . S
H482 C512 0.930 . S
O483 Co472 2.093 . S
O483 C475 1.224 . S
H484 C516 0.929 . S
H485 C518 0.930 . S
H486 C519 0.930 . S
H487 C517 0.929 . S
H488 C520 0.928 . S
O489 Co473 2.057 . S
O489 C477 1.232 . S
H490 C509 0.929 . S
H491 C510 0.929 . S
H492 C522 0.931 . S
H493 C514 0.929 . S
H494 C523 0.930 . S
H495 C515 0.931 . S
O496 Co472 2.097 . S
O496 C524 1.214 . S
H497 C525 0.929 . S
H498 C526 0.929 . S
H499 C527 0.930 . S
H500 C528 0.929 . S
H501 C530 0.930 . S
H502 C507 0.930 . S
H503 C511 0.930 . S
O504 Co473 2.037 . S
O504 C524 1.234 . S
C505 O479 1.269 . S
C505 O480 1.257 . S
C506 H481 0.930 . S
C506 C509 1.388 . S
C506 C511 1.418 . S
C507 H502 0.930 . S
C507 C510 1.404 . S
C507 C511 1.353 . S
N508 Co473 2.145 . S
N508 C509 1.397 . S
N508 C510 1.334 . S
C509 H490 0.929 . S
C509 C506 1.388 . S
C509 N508 1.397 . S
C510 H491 0.929 . S
C510 C507 1.404 . S
C510 N508 1.334 . S
C511 H503 0.930 . S
C511 C506 1.418 . S
C511 C507 1.353 . S
C512 H482 0.930 . S
C512 N513 1.330 . S
C512 C514 1.446 . S
N513 Co472 2.151 . S
N513 C512 1.330 . S
N513 C517 1.418 . S
C514 H493 0.929 . S
C514 C512 1.446 . S
C514 C515 1.332 . S
C515 H495 0.931 . S
C515 C514 1.332 . S
C515 C516 1.267 . S
C516 H484 0.929 . S
C516 C515 1.267 . S
C516 C517 1.251 . S
C517 H487 0.929 . S
C517 N513 1.418 . S
C517 C516 1.251 . S
C518 H485 0.930 . S
C518 C520 1.406 . S
C518 C523 1.261 . S
C519 H486 0.930 . S
C519 N521 1.325 . S
C519 C522 1.357 . S
C520 H488 0.928 . S
C520 C518 1.406 . S
C520 N521 1.261 . S
N521 Co472 2.214 . S
N521 C519 1.325 . S
N521 C520 1.261 . S
C522 H492 0.931 . S
C522 C519 1.357 . S
C522 C523 1.312 . S
C523 H494 0.930 . S
C523 C518 1.261 . S
C523 C522 1.312 . S
C524 O496 1.214 . S
C524 O504 1.234 . S
C525 H497 0.929 . S
C525 C528 1.391 . S
C525 C530 1.391 . S
C526 H498 0.929 . S
C526 C527 1.390 . S
C526 N529 1.391 . S
C527 H499 0.930 . S
C527 C526 1.390 . S
C527 C528 1.392 . S
C528 H500 0.929 . S
C528 C525 1.391 . S
C528 C527 1.392 . S
N529 Co473 2.257 . S
N529 C526 1.391 . S
N529 C530 1.388 . S
C530 H501 0.930 . S
C530 C525 1.391 . S
C530 N529 1.388 . S
Co531 O533 2.143 . S
Co531 O539 2.074 . S
Co531 O542 2.093 . S
Co531 O555 2.097 . S
Co531 N572 2.151 . S
Co531 N580 2.214 . S
Co532 O533 2.160 . S
Co532 O538 2.058 . S
Co532 O548 2.057 . S
Co532 O563 2.037 . S
Co532 N567 2.145 . S
Co532 N588 2.257 . S
O533 Co531 2.143 . S
O533 Co532 2.160 . S
C534 O535 1.278 . S
C534 O542 1.224 . S
O535 C534 1.278 . S
C536 O537 1.245 . S
C536 O548 1.232 . S
O537 C536 1.245 . S
O538 Co532 2.058 . S
O538 C564 1.269 . S
O539 Co531 2.074 . S
O539 C564 1.257 . S
H540 C565 0.930 . S
H541 C571 0.930 . S
O542 Co531 2.093 . S
O542 C534 1.224 . S
H543 C575 0.929 . S
H544 C577 0.930 . S
H545 C578 0.930 . S
H546 C576 0.929 . S
H547 C579 0.928 . S
O548 Co532 2.057 . S
O548 C536 1.232 . S
H549 C568 0.929 . S
H550 C569 0.929 . S
H551 C581 0.931 . S
H552 C573 0.929 . S
H553 C582 0.930 . S
H554 C574 0.931 . S
O555 Co531 2.097 . S
O555 C583 1.214 . S
H556 C584 0.929 . S
H557 C585 0.929 . S
H558 C586 0.930 . S
H559 C587 0.929 . S
H560 C589 0.930 . S
H561 C566 0.930 . S
H562 C570 0.930 . S
O563 Co532 2.037 . S
O563 C583 1.234 . S
C564 O538 1.269 . S
C564 O539 1.257 . S
C565 H540 0.930 . S
C565 C568 1.388 . S
C565 C570 1.418 . S
C566 H561 0.930 . S
C566 C569 1.404 . S
C566 C570 1.353 . S
N567 Co532 2.145 . S
N567 C568 1.397 . S
N567 C569 1.334 . S
C568 H549 0.929 . S
C568 C565 1.388 . S
C568 N567 1.397 . S
C569 H550 0.929 . S
C569 C566 1.404 . S
C569 N567 1.334 . S
C570 H562 0.930 . S
C570 C565 1.418 . S
C570 C566 1.353 . S
C571 H541 0.930 . S
C571 N572 1.330 . S
C571 C573 1.446 . S
N572 Co531 2.151 . S
N572 C571 1.330 . S
N572 C576 1.418 . S
C573 H552 0.929 . S
C573 C571 1.446 . S
C573 C574 1.332 . S
C574 H554 0.931 . S
C574 C573 1.332 . S
C574 C575 1.267 . S
C575 H543 0.929 . S
C575 C574 1.267 . S
C575 C576 1.251 . S
C576 H546 0.929 . S
C576 N572 1.418 . S
C576 C575 1.251 . S
C577 H544 0.930 . S
C577 C579 1.406 . S
C577 C582 1.261 . S
C578 H545 0.930 . S
C578 N580 1.325 . S
C578 C581 1.357 . S
C579 H547 0.928 . S
C579 C577 1.406 . S
C579 N580 1.261 . S
N580 Co531 2.214 . S
N580 C578 1.325 . S
N580 C579 1.261 . S
C581 H551 0.931 . S
C581 C578 1.357 . S
C581 C582 1.312 . S
C582 H553 0.930 . S
C582 C577 1.261 . S
C582 C581 1.312 . S
C583 O555 1.214 . S
C583 O563 1.234 . S
C584 H556 0.929 . S
C584 C587 1.391 . S
C584 C589 1.391 . S
C585 H557 0.929 . S
C585 C586 1.390 . S
C585 N588 1.391 . S
C586 H558 0.930 . S
C586 C585 1.390 . S
C586 C587 1.392 . S
C587 H559 0.929 . S
C587 C584 1.391 . S
C587 C586 1.392 . S
N588 Co532 2.257 . S
N588 C585 1.391 . S
N588 C589 1.388 . S
C589 H560 0.930 . S
C589 C584 1.391 . S
C589 N588 1.388 . S
Co590 O592 2.143 . S
Co590 O598 2.074 . S
Co590 O601 2.093 . S
Co590 O614 2.097 . S
Co590 N631 2.151 . S
Co590 N639 2.214 . S
Co591 O592 2.160 . S
Co591 O597 2.058 . S
Co591 O607 2.057 . S
Co591 O622 2.037 . S
Co591 N626 2.145 . S
Co591 N647 2.257 . S
O592 Co590 2.143 . S
O592 Co591 2.160 . S
C593 O594 1.278 . S
C593 O601 1.224 . S
O594 C593 1.278 . S
C595 O596 1.245 . S
C595 O607 1.232 . S
O596 C595 1.245 . S
O597 Co591 2.058 . S
O597 C623 1.269 . S
O598 Co590 2.074 . S
O598 C623 1.257 . S
H599 C624 0.930 . S
H600 C630 0.930 . S
O601 Co590 2.093 . S
O601 C593 1.224 . S
H602 C634 0.929 . S
H603 C636 0.930 . S
H604 C637 0.930 . S
H605 C635 0.929 . S
H606 C638 0.928 . S
O607 Co591 2.057 . S
O607 C595 1.232 . S
H608 C627 0.929 . S
H609 C628 0.929 . S
H610 C640 0.931 . S
H611 C632 0.929 . S
H612 C641 0.930 . S
H613 C633 0.931 . S
O614 Co590 2.097 . S
O614 C642 1.214 . S
H615 C643 0.929 . S
H616 C644 0.929 . S
H617 C645 0.930 . S
H618 C646 0.929 . S
H619 C648 0.930 . S
H620 C625 0.930 . S
H621 C629 0.930 . S
O622 Co591 2.037 . S
O622 C642 1.234 . S
C623 O597 1.269 . S
C623 O598 1.257 . S
C624 H599 0.930 . S
C624 C627 1.388 . S
C624 C629 1.418 . S
C625 H620 0.930 . S
C625 C628 1.404 . S
C625 C629 1.353 . S
N626 Co591 2.145 . S
N626 C627 1.397 . S
N626 C628 1.334 . S
C627 H608 0.929 . S
C627 C624 1.388 . S
C627 N626 1.397 . S
C628 H609 0.929 . S
C628 C625 1.404 . S
C628 N626 1.334 . S
C629 H621 0.930 . S
C629 C624 1.418 . S
C629 C625 1.353 . S
C630 H600 0.930 . S
C630 N631 1.330 . S
C630 C632 1.446 . S
N631 Co590 2.151 . S
N631 C630 1.330 . S
N631 C635 1.418 . S
C632 H611 0.929 . S
C632 C630 1.446 . S
C632 C633 1.332 . S
C633 H613 0.931 . S
C633 C632 1.332 . S
C633 C634 1.267 . S
C634 H602 0.929 . S
C634 C633 1.267 . S
C634 C635 1.251 . S
C635 H605 0.929 . S
C635 N631 1.418 . S
C635 C634 1.251 . S
C636 H603 0.930 . S
C636 C638 1.406 . S
C636 C641 1.261 . S
C637 H604 0.930 . S
C637 N639 1.325 . S
C637 C640 1.357 . S
C638 H606 0.928 . S
C638 C636 1.406 . S
C638 N639 1.261 . S
N639 Co590 2.214 . S
N639 C637 1.325 . S
N639 C638 1.261 . S
C640 H610 0.931 . S
C640 C637 1.357 . S
C640 C641 1.312 . S
C641 H612 0.930 . S
C641 C636 1.261 . S
C641 C640 1.312 . S
C642 O614 1.214 . S
C642 O622 1.234 . S
C643 H615 0.929 . S
C643 C646 1.391 . S
C643 C648 1.391 . S
C644 H616 0.929 . S
C644 C645 1.390 . S
C644 N647 1.391 . S
C645 H617 0.930 . S
C645 C644 1.390 . S
C645 C646 1.392 . S
C646 H618 0.929 . S
C646 C643 1.391 . S
C646 C645 1.392 . S
N647 Co591 2.257 . S
N647 C644 1.391 . S
N647 C648 1.388 . S
C648 H619 0.930 . S
C648 C643 1.391 . S
C648 N647 1.388 . S
Co649 O651 2.143 . S
Co649 O657 2.074 . S
Co649 O660 2.093 . S
Co649 O673 2.097 . S
Co649 N690 2.151 . S
Co649 N698 2.214 . S
Co650 O651 2.160 . S
Co650 O656 2.058 . S
Co650 O666 2.057 . S
Co650 O681 2.037 . S
Co650 N685 2.145 . S
Co650 N706 2.257 . S
O651 Co649 2.143 . S
O651 Co650 2.160 . S
C652 O653 1.278 . S
C652 O660 1.224 . S
O653 C652 1.278 . S
C654 O655 1.245 . S
C654 O666 1.232 . S
O655 C654 1.245 . S
O656 Co650 2.058 . S
O656 C682 1.269 . S
O657 Co649 2.074 . S
O657 C682 1.257 . S
H658 C683 0.930 . S
H659 C689 0.930 . S
O660 Co649 2.093 . S
O660 C652 1.224 . S
H661 C693 0.929 . S
H662 C695 0.930 . S
H663 C696 0.930 . S
H664 C694 0.929 . S
H665 C697 0.928 . S
O666 Co650 2.057 . S
O666 C654 1.232 . S
H667 C686 0.929 . S
H668 C687 0.929 . S
H669 C699 0.931 . S
H670 C691 0.929 . S
H671 C700 0.930 . S
H672 C692 0.931 . S
O673 Co649 2.097 . S
O673 C701 1.214 . S
H674 C702 0.929 . S
H675 C703 0.929 . S
H676 C704 0.930 . S
H677 C705 0.929 . S
H678 C707 0.930 . S
H679 C684 0.930 . S
H680 C688 0.930 . S
O681 Co650 2.037 . S
O681 C701 1.234 . S
C682 O656 1.269 . S
C682 O657 1.257 . S
C683 H658 0.930 . S
C683 C686 1.388 . S
C683 C688 1.418 . S
C684 H679 0.930 . S
C684 C687 1.404 . S
C684 C688 1.353 . S
N685 Co650 2.145 . S
N685 C686 1.397 . S
N685 C687 1.334 . S
C686 H667 0.929 . S
C686 C683 1.388 . S
C686 N685 1.397 . S
C687 H668 0.929 . S
C687 C684 1.404 . S
C687 N685 1.334 . S
C688 H680 0.930 . S
C688 C683 1.418 . S
C688 C684 1.353 . S
C689 H659 0.930 . S
C689 N690 1.330 . S
C689 C691 1.446 . S
N690 Co649 2.151 . S
N690 C689 1.330 . S
N690 C694 1.418 . S
C691 H670 0.929 . S
C691 C689 1.446 . S
C691 C692 1.332 . S
C692 H672 0.931 . S
C692 C691 1.332 . S
C692 C693 1.267 . S
C693 H661 0.929 . S
C693 C692 1.267 . S
C693 C694 1.251 . S
C694 H664 0.929 . S
C694 N690 1.418 . S
C694 C693 1.251 . S
C695 H662 0.930 . S
C695 C697 1.406 . S
C695 C700 1.261 . S
C696 H663 0.930 . S
C696 N698 1.325 . S
C696 C699 1.357 . S
C697 H665 0.928 . S
C697 C695 1.406 . S
C697 N698 1.261 . S
N698 Co649 2.214 . S
N698 C696 1.325 . S
N698 C697 1.261 . S
C699 H669 0.931 . S
C699 C696 1.357 . S
C699 C700 1.312 . S
C700 H671 0.930 . S
C700 C695 1.261 . S
C700 C699 1.312 . S
C701 O673 1.214 . S
C701 O681 1.234 . S
C702 H674 0.929 . S
C702 C705 1.391 . S
C702 C707 1.391 . S
C703 H675 0.929 . S
C703 C704 1.390 . S
C703 N706 1.391 . S
C704 H676 0.930 . S
C704 C703 1.390 . S
C704 C705 1.392 . S
C705 H677 0.929 . S
C705 C702 1.391 . S
C705 C704 1.392 . S
N706 Co650 2.257 . S
N706 C703 1.391 . S
N706 C707 1.388 . S
C707 H678 0.930 . S
C707 C702 1.391 . S
C707 N706 1.388 . S
Co708 O710 2.143 . S
Co708 O716 2.074 . S
Co708 O719 2.093 . S
Co708 O732 2.097 . S
Co708 N749 2.151 . S
Co708 N757 2.214 . S
Co709 O710 2.160 . S
Co709 O715 2.058 . S
Co709 O725 2.057 . S
Co709 O740 2.037 . S
Co709 N744 2.145 . S
Co709 N765 2.257 . S
O710 Co708 2.143 . S
O710 Co709 2.160 . S
C711 O712 1.278 . S
C711 O719 1.224 . S
O712 C711 1.278 . S
C713 O714 1.245 . S
C713 O725 1.232 . S
O714 C713 1.245 . S
O715 Co709 2.058 . S
O715 C741 1.269 . S
O716 Co708 2.074 . S
O716 C741 1.257 . S
H717 C742 0.930 . S
H718 C748 0.930 . S
O719 Co708 2.093 . S
O719 C711 1.224 . S
H720 C752 0.929 . S
H721 C754 0.930 . S
H722 C755 0.930 . S
H723 C753 0.929 . S
H724 C756 0.928 . S
O725 Co709 2.057 . S
O725 C713 1.232 . S
H726 C745 0.929 . S
H727 C746 0.929 . S
H728 C758 0.931 . S
H729 C750 0.929 . S
H730 C759 0.930 . S
H731 C751 0.931 . S
O732 Co708 2.097 . S
O732 C760 1.214 . S
H733 C761 0.929 . S
H734 C762 0.929 . S
H735 C763 0.930 . S
H736 C764 0.929 . S
H737 C766 0.930 . S
H738 C743 0.930 . S
H739 C747 0.930 . S
O740 Co709 2.037 . S
O740 C760 1.234 . S
C741 O715 1.269 . S
C741 O716 1.257 . S
C742 H717 0.930 . S
C742 C745 1.388 . S
C742 C747 1.418 . S
C743 H738 0.930 . S
C743 C746 1.404 . S
C743 C747 1.353 . S
N744 Co709 2.145 . S
N744 C745 1.397 . S
N744 C746 1.334 . S
C745 H726 0.929 . S
C745 C742 1.388 . S
C745 N744 1.397 . S
C746 H727 0.929 . S
C746 C743 1.404 . S
C746 N744 1.334 . S
C747 H739 0.930 . S
C747 C742 1.418 . S
C747 C743 1.353 . S
C748 H718 0.930 . S
C748 N749 1.330 . S
C748 C750 1.446 . S
N749 Co708 2.151 . S
N749 C748 1.330 . S
N749 C753 1.418 . S
C750 H729 0.929 . S
C750 C748 1.446 . S
C750 C751 1.332 . S
C751 H731 0.931 . S
C751 C750 1.332 . S
C751 C752 1.267 . S
C752 H720 0.929 . S
C752 C751 1.267 . S
C752 C753 1.251 . S
C753 H723 0.929 . S
C753 N749 1.418 . S
C753 C752 1.251 . S
C754 H721 0.930 . S
C754 C756 1.406 . S
C754 C759 1.261 . S
C755 H722 0.930 . S
C755 N757 1.325 . S
C755 C758 1.357 . S
C756 H724 0.928 . S
C756 C754 1.406 . S
C756 N757 1.261 . S
N757 Co708 2.214 . S
N757 C755 1.325 . S
N757 C756 1.261 . S
C758 H728 0.931 . S
C758 C755 1.357 . S
C758 C759 1.312 . S
C759 H730 0.930 . S
C759 C754 1.261 . S
C759 C758 1.312 . S
C760 O732 1.214 . S
C760 O740 1.234 . S
C761 H733 0.929 . S
C761 C764 1.391 . S
C761 C766 1.391 . S
C762 H734 0.929 . S
C762 C763 1.390 . S
C762 N765 1.391 . S
C763 H735 0.930 . S
C763 C762 1.390 . S
C763 C764 1.392 . S
C764 H736 0.929 . S
C764 C761 1.391 . S
C764 C763 1.392 . S
N765 Co709 2.257 . S
N765 C762 1.391 . S
N765 C766 1.388 . S
C766 H737 0.930 . S
C766 C761 1.391 . S
C766 N765 1.388 . S
Co767 O769 2.143 . S
Co767 O775 2.074 . S
Co767 O778 2.093 . S
Co767 O791 2.097 . S
Co767 N808 2.151 . S
Co767 N816 2.214 . S
Co768 O769 2.160 . S
Co768 O774 2.058 . S
Co768 O784 2.057 . S
Co768 O799 2.037 . S
Co768 N803 2.145 . S
Co768 N824 2.257 . S
O769 Co767 2.143 . S
O769 Co768 2.160 . S
C770 O771 1.278 . S
C770 O778 1.224 . S
O771 C770 1.278 . S
C772 O773 1.245 . S
C772 O784 1.232 . S
O773 C772 1.245 . S
O774 Co768 2.058 . S
O774 C800 1.269 . S
O775 Co767 2.074 . S
O775 C800 1.257 . S
H776 C801 0.930 . S
H777 C807 0.930 . S
O778 Co767 2.093 . S
O778 C770 1.224 . S
H779 C811 0.929 . S
H780 C813 0.930 . S
H781 C814 0.930 . S
H782 C812 0.929 . S
H783 C815 0.928 . S
O784 Co768 2.057 . S
O784 C772 1.232 . S
H785 C804 0.929 . S
H786 C805 0.929 . S
H787 C817 0.931 . S
H788 C809 0.929 . S
H789 C818 0.930 . S
H790 C810 0.931 . S
O791 Co767 2.097 . S
O791 C819 1.214 . S
H792 C820 0.929 . S
H793 C821 0.929 . S
H794 C822 0.930 . S
H795 C823 0.929 . S
H796 C825 0.930 . S
H797 C802 0.930 . S
H798 C806 0.930 . S
O799 Co768 2.037 . S
O799 C819 1.234 . S
C800 O774 1.269 . S
C800 O775 1.257 . S
C801 H776 0.930 . S
C801 C804 1.388 . S
C801 C806 1.418 . S
C802 H797 0.930 . S
C802 C805 1.404 . S
C802 C806 1.353 . S
N803 Co768 2.145 . S
N803 C804 1.397 . S
N803 C805 1.334 . S
C804 H785 0.929 . S
C804 C801 1.388 . S
C804 N803 1.397 . S
C805 H786 0.929 . S
C805 C802 1.404 . S
C805 N803 1.334 . S
C806 H798 0.930 . S
C806 C801 1.418 . S
C806 C802 1.353 . S
C807 H777 0.930 . S
C807 N808 1.330 . S
C807 C809 1.446 . S
N808 Co767 2.151 . S
N808 C807 1.330 . S
N808 C812 1.418 . S
C809 H788 0.929 . S
C809 C807 1.446 . S
C809 C810 1.332 . S
C810 H790 0.931 . S
C810 C809 1.332 . S
C810 C811 1.267 . S
C811 H779 0.929 . S
C811 C810 1.267 . S
C811 C812 1.251 . S
C812 H782 0.929 . S
C812 N808 1.418 . S
C812 C811 1.251 . S
C813 H780 0.930 . S
C813 C815 1.406 . S
C813 C818 1.261 . S
C814 H781 0.930 . S
C814 N816 1.325 . S
C814 C817 1.357 . S
C815 H783 0.928 . S
C815 C813 1.406 . S
C815 N816 1.261 . S
N816 Co767 2.214 . S
N816 C814 1.325 . S
N816 C815 1.261 . S
C817 H787 0.931 . S
C817 C814 1.357 . S
C817 C818 1.312 . S
C818 H789 0.930 . S
C818 C813 1.261 . S
C818 C817 1.312 . S
C819 O791 1.214 . S
C819 O799 1.234 . S
C820 H792 0.929 . S
C820 C823 1.391 . S
C820 C825 1.391 . S
C821 H793 0.929 . S
C821 C822 1.390 . S
C821 N824 1.391 . S
C822 H794 0.930 . S
C822 C821 1.390 . S
C822 C823 1.392 . S
C823 H795 0.929 . S
C823 C820 1.391 . S
C823 C822 1.392 . S
N824 Co768 2.257 . S
N824 C821 1.391 . S
N824 C825 1.388 . S
C825 H796 0.930 . S
C825 C820 1.391 . S
C825 N824 1.388 . S
Co826 O828 2.143 . S
Co826 O834 2.074 . S
Co826 O837 2.093 . S
Co826 O850 2.097 . S
Co826 N867 2.151 . S
Co826 N875 2.214 . S
Co827 O828 2.160 . S
Co827 O833 2.058 . S
Co827 O843 2.057 . S
Co827 O858 2.037 . S
Co827 N862 2.145 . S
Co827 N883 2.257 . S
O828 Co826 2.143 . S
O828 Co827 2.160 . S
C829 O830 1.278 . S
C829 O837 1.224 . S
O830 C829 1.278 . S
C831 O832 1.245 . S
C831 O843 1.232 . S
O832 C831 1.245 . S
O833 Co827 2.058 . S
O833 C859 1.269 . S
O834 Co826 2.074 . S
O834 C859 1.257 . S
H835 C860 0.930 . S
H836 C866 0.930 . S
O837 Co826 2.093 . S
O837 C829 1.224 . S
H838 C870 0.929 . S
H839 C872 0.930 . S
H840 C873 0.930 . S
H841 C871 0.929 . S
H842 C874 0.928 . S
O843 Co827 2.057 . S
O843 C831 1.232 . S
H844 C863 0.929 . S
H845 C864 0.929 . S
H846 C876 0.931 . S
H847 C868 0.929 . S
H848 C877 0.930 . S
H849 C869 0.931 . S
O850 Co826 2.097 . S
O850 C878 1.214 . S
H851 C879 0.929 . S
H852 C880 0.929 . S
H853 C881 0.930 . S
H854 C882 0.929 . S
H855 C884 0.930 . S
H856 C861 0.930 . S
H857 C865 0.930 . S
O858 Co827 2.037 . S
O858 C878 1.234 . S
C859 O833 1.269 . S
C859 O834 1.257 . S
C860 H835 0.930 . S
C860 C863 1.388 . S
C860 C865 1.418 . S
C861 H856 0.930 . S
C861 C864 1.404 . S
C861 C865 1.353 . S
N862 Co827 2.145 . S
N862 C863 1.397 . S
N862 C864 1.334 . S
C863 H844 0.929 . S
C863 C860 1.388 . S
C863 N862 1.397 . S
C864 H845 0.929 . S
C864 C861 1.404 . S
C864 N862 1.334 . S
C865 H857 0.930 . S
C865 C860 1.418 . S
C865 C861 1.353 . S
C866 H836 0.930 . S
C866 N867 1.330 . S
C866 C868 1.446 . S
N867 Co826 2.151 . S
N867 C866 1.330 . S
N867 C871 1.418 . S
C868 H847 0.929 . S
C868 C866 1.446 . S
C868 C869 1.332 . S
C869 H849 0.931 . S
C869 C868 1.332 . S
C869 C870 1.267 . S
C870 H838 0.929 . S
C870 C869 1.267 . S
C870 C871 1.251 . S
C871 H841 0.929 . S
C871 N867 1.418 . S
C871 C870 1.251 . S
C872 H839 0.930 . S
C872 C874 1.406 . S
C872 C877 1.261 . S
C873 H840 0.930 . S
C873 N875 1.325 . S
C873 C876 1.357 . S
C874 H842 0.928 . S
C874 C872 1.406 . S
C874 N875 1.261 . S
N875 Co826 2.214 . S
N875 C873 1.325 . S
N875 C874 1.261 . S
C876 H846 0.931 . S
C876 C873 1.357 . S
C876 C877 1.312 . S
C877 H848 0.930 . S
C877 C872 1.261 . S
C877 C876 1.312 . S
C878 O850 1.214 . S
C878 O858 1.234 . S
C879 H851 0.929 . S
C879 C882 1.391 . S
C879 C884 1.391 . S
C880 H852 0.929 . S
C880 C881 1.390 . S
C880 N883 1.391 . S
C881 H853 0.930 . S
C881 C880 1.390 . S
C881 C882 1.392 . S
C882 H854 0.929 . S
C882 C879 1.391 . S
C882 C881 1.392 . S
N883 Co827 2.257 . S
N883 C880 1.391 . S
N883 C884 1.388 . S
C884 H855 0.930 . S
C884 C879 1.391 . S
C884 N883 1.388 . S
Co885 O887 2.143 . S
Co885 O893 2.074 . S
Co885 O896 2.093 . S
Co885 O909 2.097 . S
Co885 N926 2.151 . S
Co885 N934 2.214 . S
Co886 O887 2.160 . S
Co886 O892 2.058 . S
Co886 O902 2.057 . S
Co886 O917 2.037 . S
Co886 N921 2.145 . S
Co886 N942 2.257 . S
O887 Co885 2.143 . S
O887 Co886 2.160 . S
C888 O889 1.278 . S
C888 O896 1.224 . S
O889 C888 1.278 . S
C890 O891 1.245 . S
C890 O902 1.232 . S
O891 C890 1.245 . S
O892 Co886 2.058 . S
O892 C918 1.269 . S
O893 Co885 2.074 . S
O893 C918 1.257 . S
H894 C919 0.930 . S
H895 C925 0.930 . S
O896 Co885 2.093 . S
O896 C888 1.224 . S
H897 C929 0.929 . S
H898 C931 0.930 . S
H899 C932 0.930 . S
H900 C930 0.929 . S
H901 C933 0.928 . S
O902 Co886 2.057 . S
O902 C890 1.232 . S
H903 C922 0.929 . S
H904 C923 0.929 . S
H905 C935 0.931 . S
H906 C927 0.929 . S
H907 C936 0.930 . S
H908 C928 0.931 . S
O909 Co885 2.097 . S
O909 C937 1.214 . S
H910 C938 0.929 . S
H911 C939 0.929 . S
H912 C940 0.930 . S
H913 C941 0.929 . S
H914 C943 0.930 . S
H915 C920 0.930 . S
H916 C924 0.930 . S
O917 Co886 2.037 . S
O917 C937 1.234 . S
C918 O892 1.269 . S
C918 O893 1.257 . S
C919 H894 0.930 . S
C919 C922 1.388 . S
C919 C924 1.418 . S
C920 H915 0.930 . S
C920 C923 1.404 . S
C920 C924 1.353 . S
N921 Co886 2.145 . S
N921 C922 1.397 . S
N921 C923 1.334 . S
C922 H903 0.929 . S
C922 C919 1.388 . S
C922 N921 1.397 . S
C923 H904 0.929 . S
C923 C920 1.404 . S
C923 N921 1.334 . S
C924 H916 0.930 . S
C924 C919 1.418 . S
C924 C920 1.353 . S
C925 H895 0.930 . S
C925 N926 1.330 . S
C925 C927 1.446 . S
N926 Co885 2.151 . S
N926 C925 1.330 . S
N926 C930 1.418 . S
C927 H906 0.929 . S
C927 C925 1.446 . S
C927 C928 1.332 . S
C928 H908 0.931 . S
C928 C927 1.332 . S
C928 C929 1.267 . S
C929 H897 0.929 . S
C929 C928 1.267 . S
C929 C930 1.251 . S
C930 H900 0.929 . S
C930 N926 1.418 . S
C930 C929 1.251 . S
C931 H898 0.930 . S
C931 C933 1.406 . S
C931 C936 1.261 . S
C932 H899 0.930 . S
C932 N934 1.325 . S
C932 C935 1.357 . S
C933 H901 0.928 . S
C933 C931 1.406 . S
C933 N934 1.261 . S
N934 Co885 2.214 . S
N934 C932 1.325 . S
N934 C933 1.261 . S
C935 H905 0.931 . S
C935 C932 1.357 . S
C935 C936 1.312 . S
C936 H907 0.930 . S
C936 C931 1.261 . S
C936 C935 1.312 . S
C937 O909 1.214 . S
C937 O917 1.234 . S
C938 H910 0.929 . S
C938 C941 1.391 . S
C938 C943 1.391 . S
C939 H911 0.929 . S
C939 C940 1.390 . S
C939 N942 1.391 . S
C940 H912 0.930 . S
C940 C939 1.390 . S
C940 C941 1.392 . S
C941 H913 0.929 . S
C941 C938 1.391 . S
C941 C940 1.392 . S
N942 Co886 2.257 . S
N942 C939 1.391 . S
N942 C943 1.388 . S
C943 H914 0.930 . S
C943 C938 1.391 . S
C943 N942 1.388 . S
Co944 O946 2.143 . S
Co944 O952 2.074 . S
Co944 O955 2.093 . S
Co944 O968 2.097 . S
Co944 N985 2.151 . S
Co944 N993 2.214 . S
Co945 O946 2.160 . S
Co945 O951 2.058 . S
Co945 O961 2.057 . S
Co945 O976 2.037 . S
Co945 N980 2.145 . S
Co945 N1001 2.257 . S
O946 Co944 2.143 . S
O946 Co945 2.160 . S
C947 O948 1.278 . S
C947 O955 1.224 . S
O948 C947 1.278 . S
C949 O950 1.245 . S
C949 O961 1.232 . S
O950 C949 1.245 . S
O951 Co945 2.058 . S
O951 C977 1.269 . S
O952 Co944 2.074 . S
O952 C977 1.257 . S
H953 C978 0.930 . S
H954 C984 0.930 . S
O955 Co944 2.093 . S
O955 C947 1.224 . S
H956 C988 0.929 . S
H957 C990 0.930 . S
H958 C991 0.930 . S
H959 C989 0.929 . S
H960 C992 0.928 . S
O961 Co945 2.057 . S
O961 C949 1.232 . S
H962 C981 0.929 . S
H963 C982 0.929 . S
H964 C994 0.931 . S
H965 C986 0.929 . S
H966 C995 0.930 . S
H967 C987 0.931 . S
O968 Co944 2.097 . S
O968 C996 1.214 . S
H969 C997 0.929 . S
H970 C998 0.929 . S
H971 C999 0.930 . S
H972 C1000 0.929 . S
H973 C1002 0.930 . S
H974 C979 0.930 . S
H975 C983 0.930 . S
O976 Co945 2.037 . S
O976 C996 1.234 . S
C977 O951 1.269 . S
C977 O952 1.257 . S
C978 H953 0.930 . S
C978 C981 1.388 . S
C978 C983 1.418 . S
C979 H974 0.930 . S
C979 C982 1.404 . S
C979 C983 1.353 . S
N980 Co945 2.145 . S
N980 C981 1.397 . S
N980 C982 1.334 . S
C981 H962 0.929 . S
C981 C978 1.388 . S
C981 N980 1.397 . S
C982 H963 0.929 . S
C982 C979 1.404 . S
C982 N980 1.334 . S
C983 H975 0.930 . S
C983 C978 1.418 . S
C983 C979 1.353 . S
C984 H954 0.930 . S
C984 N985 1.330 . S
C984 C986 1.446 . S
N985 Co944 2.151 . S
N985 C984 1.330 . S
N985 C989 1.418 . S
C986 H965 0.929 . S
C986 C984 1.446 . S
C986 C987 1.332 . S
C987 H967 0.931 . S
C987 C986 1.332 . S
C987 C988 1.267 . S
C988 H956 0.929 . S
C988 C987 1.267 . S
C988 C989 1.251 . S
C989 H959 0.929 . S
C989 N985 1.418 . S
C989 C988 1.251 . S
C990 H957 0.930 . S
C990 C992 1.406 . S
C990 C995 1.261 . S
C991 H958 0.930 . S
C991 N993 1.325 . S
C991 C994 1.357 . S
C992 H960 0.928 . S
C992 C990 1.406 . S
C992 N993 1.261 . S
N993 Co944 2.214 . S
N993 C991 1.325 . S
N993 C992 1.261 . S
C994 H964 0.931 . S
C994 C991 1.357 . S
C994 C995 1.312 . S
C995 H966 0.930 . S
C995 C990 1.261 . S
C995 C994 1.312 . S
C996 O968 1.214 . S
C996 O976 1.234 . S
C997 H969 0.929 . S
C997 C1000 1.391 . S
C997 C1002 1.391 . S
C998 H970 0.929 . S
C998 C999 1.390 . S
C998 N1001 1.391 . S
C999 H971 0.930 . S
C999 C998 1.390 . S
C999 C1000 1.392 . S
C1000 H972 0.929 . S
C1000 C997 1.391 . S
C1000 C999 1.392 . S
N1001 Co945 2.257 . S
N1001 C998 1.391 . S
N1001 C1002 1.388 . S
C1002 H973 0.930 . S
C1002 C997 1.391 . S
C1002 N1001 1.388 . S
Co1003 O1005 2.143 . S
Co1003 O1011 2.074 . S
Co1003 O1014 2.093 . S
Co1003 O1027 2.097 . S
Co1003 N1044 2.151 . S
Co1003 N1052 2.214 . S
Co1004 O1005 2.160 . S
Co1004 O1010 2.058 . S
Co1004 O1020 2.057 . S
Co1004 O1035 2.037 . S
Co1004 N1039 2.145 . S
Co1004 N1060 2.257 . S
O1005 Co1003 2.143 . S
O1005 Co1004 2.160 . S
C1006 O1007 1.278 . S
C1006 O1014 1.224 . S
O1007 C1006 1.278 . S
C1008 O1009 1.245 . S
C1008 O1020 1.232 . S
O1009 C1008 1.245 . S
O1010 Co1004 2.058 . S
O1010 C1036 1.269 . S
O1011 Co1003 2.074 . S
O1011 C1036 1.257 . S
H1012 C1037 0.930 . S
H1013 C1043 0.930 . S
O1014 Co1003 2.093 . S
O1014 C1006 1.224 . S
H1015 C1047 0.929 . S
H1016 C1049 0.930 . S
H1017 C1050 0.930 . S
H1018 C1048 0.929 . S
H1019 C1051 0.928 . S
O1020 Co1004 2.057 . S
O1020 C1008 1.232 . S
H1021 C1040 0.929 . S
H1022 C1041 0.929 . S
H1023 C1053 0.931 . S
H1024 C1045 0.929 . S
H1025 C1054 0.930 . S
H1026 C1046 0.931 . S
O1027 Co1003 2.097 . S
O1027 C1055 1.214 . S
H1028 C1056 0.929 . S
H1029 C1057 0.929 . S
H1030 C1058 0.930 . S
H1031 C1059 0.929 . S
H1032 C1061 0.930 . S
H1033 C1038 0.930 . S
H1034 C1042 0.930 . S
O1035 Co1004 2.037 . S
O1035 C1055 1.234 . S
C1036 O1010 1.269 . S
C1036 O1011 1.257 . S
C1037 H1012 0.930 . S
C1037 C1040 1.388 . S
C1037 C1042 1.418 . S
C1038 H1033 0.930 . S
C1038 C1041 1.404 . S
C1038 C1042 1.353 . S
N1039 Co1004 2.145 . S
N1039 C1040 1.397 . S
N1039 C1041 1.334 . S
C1040 H1021 0.929 . S
C1040 C1037 1.388 . S
C1040 N1039 1.397 . S
C1041 H1022 0.929 . S
C1041 C1038 1.404 . S
C1041 N1039 1.334 . S
C1042 H1034 0.930 . S
C1042 C1037 1.418 . S
C1042 C1038 1.353 . S
C1043 H1013 0.930 . S
C1043 N1044 1.330 . S
C1043 C1045 1.446 . S
N1044 Co1003 2.151 . S
N1044 C1043 1.330 . S
N1044 C1048 1.418 . S
C1045 H1024 0.929 . S
C1045 C1043 1.446 . S
C1045 C1046 1.332 . S
C1046 H1026 0.931 . S
C1046 C1045 1.332 . S
C1046 C1047 1.267 . S
C1047 H1015 0.929 . S
C1047 C1046 1.267 . S
C1047 C1048 1.251 . S
C1048 H1018 0.929 . S
C1048 N1044 1.418 . S
C1048 C1047 1.251 . S
C1049 H1016 0.930 . S
C1049 C1051 1.406 . S
C1049 C1054 1.261 . S
C1050 H1017 0.930 . S
C1050 N1052 1.325 . S
C1050 C1053 1.357 . S
C1051 H1019 0.928 . S
C1051 C1049 1.406 . S
C1051 N1052 1.261 . S
N1052 Co1003 2.214 . S
N1052 C1050 1.325 . S
N1052 C1051 1.261 . S
C1053 H1023 0.931 . S
C1053 C1050 1.357 . S
C1053 C1054 1.312 . S
C1054 H1025 0.930 . S
C1054 C1049 1.261 . S
C1054 C1053 1.312 . S
C1055 O1027 1.214 . S
C1055 O1035 1.234 . S
C1056 H1028 0.929 . S
C1056 C1059 1.391 . S
C1056 C1061 1.391 . S
C1057 H1029 0.929 . S
C1057 C1058 1.390 . S
C1057 N1060 1.391 . S
C1058 H1030 0.930 . S
C1058 C1057 1.390 . S
C1058 C1059 1.392 . S
C1059 H1031 0.929 . S
C1059 C1056 1.391 . S
C1059 C1058 1.392 . S
N1060 Co1004 2.257 . S
N1060 C1057 1.391 . S
N1060 C1061 1.388 . S
C1061 H1032 0.930 . S
C1061 C1056 1.391 . S
C1061 N1060 1.388 . S
Co1062 O1064 2.143 . S
Co1062 O1070 2.074 . S
Co1062 O1073 2.093 . S
Co1062 O1086 2.097 . S
Co1062 N1103 2.151 . S
Co1062 N1111 2.214 . S
Co1063 O1064 2.160 . S
Co1063 O1069 2.058 . S
Co1063 O1079 2.057 . S
Co1063 O1094 2.037 . S
Co1063 N1098 2.145 . S
Co1063 N1119 2.257 . S
O1064 Co1062 2.143 . S
O1064 Co1063 2.160 . S
C1065 O1066 1.278 . S
C1065 O1073 1.224 . S
O1066 C1065 1.278 . S
C1067 O1068 1.245 . S
C1067 O1079 1.232 . S
O1068 C1067 1.245 . S
O1069 Co1063 2.058 . S
O1069 C1095 1.269 . S
O1070 Co1062 2.074 . S
O1070 C1095 1.257 . S
H1071 C1096 0.930 . S
H1072 C1102 0.930 . S
O1073 Co1062 2.093 . S
O1073 C1065 1.224 . S
H1074 C1106 0.929 . S
H1075 C1108 0.930 . S
H1076 C1109 0.930 . S
H1077 C1107 0.929 . S
H1078 C1110 0.928 . S
O1079 Co1063 2.057 . S
O1079 C1067 1.232 . S
H1080 C1099 0.929 . S
H1081 C1100 0.929 . S
H1082 C1112 0.931 . S
H1083 C1104 0.929 . S
H1084 C1113 0.930 . S
H1085 C1105 0.931 . S
O1086 Co1062 2.097 . S
O1086 C1114 1.214 . S
H1087 C1115 0.929 . S
H1088 C1116 0.929 . S
H1089 C1117 0.930 . S
H1090 C1118 0.929 . S
H1091 C1120 0.930 . S
H1092 C1097 0.930 . S
H1093 C1101 0.930 . S
O1094 Co1063 2.037 . S
O1094 C1114 1.234 . S
C1095 O1069 1.269 . S
C1095 O1070 1.257 . S
C1096 H1071 0.930 . S
C1096 C1099 1.388 . S
C1096 C1101 1.418 . S
C1097 H1092 0.930 . S
C1097 C1100 1.404 . S
C1097 C1101 1.353 . S
N1098 Co1063 2.145 . S
N1098 C1099 1.397 . S
N1098 C1100 1.334 . S
C1099 H1080 0.929 . S
C1099 C1096 1.388 . S
C1099 N1098 1.397 . S
C1100 H1081 0.929 . S
C1100 C1097 1.404 . S
C1100 N1098 1.334 . S
C1101 H1093 0.930 . S
C1101 C1096 1.418 . S
C1101 C1097 1.353 . S
C1102 H1072 0.930 . S
C1102 N1103 1.330 . S
C1102 C1104 1.446 . S
N1103 Co1062 2.151 . S
N1103 C1102 1.330 . S
N1103 C1107 1.418 . S
C1104 H1083 0.929 . S
C1104 C1102 1.446 . S
C1104 C1105 1.332 . S
C1105 H1085 0.931 . S
C1105 C1104 1.332 . S
C1105 C1106 1.267 . S
C1106 H1074 0.929 . S
C1106 C1105 1.267 . S
C1106 C1107 1.251 . S
C1107 H1077 0.929 . S
C1107 N1103 1.418 . S
C1107 C1106 1.251 . S
C1108 H1075 0.930 . S
C1108 C1110 1.406 . S
C1108 C1113 1.261 . S
C1109 H1076 0.930 . S
C1109 N1111 1.325 . S
C1109 C1112 1.357 . S
C1110 H1078 0.928 . S
C1110 C1108 1.406 . S
C1110 N1111 1.261 . S
N1111 Co1062 2.214 . S
N1111 C1109 1.325 . S
N1111 C1110 1.261 . S
C1112 H1082 0.931 . S
C1112 C1109 1.357 . S
C1112 C1113 1.312 . S
C1113 H1084 0.930 . S
C1113 C1108 1.261 . S
C1113 C1112 1.312 . S
C1114 O1086 1.214 . S
C1114 O1094 1.234 . S
C1115 H1087 0.929 . S
C1115 C1118 1.391 . S
C1115 C1120 1.391 . S
C1116 H1088 0.929 . S
C1116 C1117 1.390 . S
C1116 N1119 1.391 . S
C1117 H1089 0.930 . S
C1117 C1116 1.390 . S
C1117 C1118 1.392 . S
C1118 H1090 0.929 . S
C1118 C1115 1.391 . S
C1118 C1117 1.392 . S
N1119 Co1063 2.257 . S
N1119 C1116 1.391 . S
N1119 C1120 1.388 . S
C1120 H1091 0.930 . S
C1120 C1115 1.391 . S
C1120 N1119 1.388 . S
Co1121 O1123 2.143 . S
Co1121 O1129 2.074 . S
Co1121 O1132 2.093 . S
Co1121 O1145 2.097 . S
Co1121 N1162 2.151 . S
Co1121 N1170 2.214 . S
Co1122 O1123 2.160 . S
Co1122 O1128 2.058 . S
Co1122 O1138 2.057 . S
Co1122 O1153 2.037 . S
Co1122 N1157 2.145 . S
Co1122 N1178 2.257 . S
O1123 Co1121 2.143 . S
O1123 Co1122 2.160 . S
C1124 O1125 1.278 . S
C1124 O1132 1.224 . S
O1125 C1124 1.278 . S
C1126 O1127 1.245 . S
C1126 O1138 1.232 . S
O1127 C1126 1.245 . S
O1128 Co1122 2.058 . S
O1128 C1154 1.269 . S
O1129 Co1121 2.074 . S
O1129 C1154 1.257 . S
H1130 C1155 0.930 . S
H1131 C1161 0.930 . S
O1132 Co1121 2.093 . S
O1132 C1124 1.224 . S
H1133 C1165 0.929 . S
H1134 C1167 0.930 . S
H1135 C1168 0.930 . S
H1136 C1166 0.929 . S
H1137 C1169 0.928 . S
O1138 Co1122 2.057 . S
O1138 C1126 1.232 . S
H1139 C1158 0.929 . S
H1140 C1159 0.929 . S
H1141 C1171 0.931 . S
H1142 C1163 0.929 . S
H1143 C1172 0.930 . S
H1144 C1164 0.931 . S
O1145 Co1121 2.097 . S
O1145 C1173 1.214 . S
H1146 C1174 0.929 . S
H1147 C1175 0.929 . S
H1148 C1176 0.930 . S
H1149 C1177 0.929 . S
H1150 C1179 0.930 . S
H1151 C1156 0.930 . S
H1152 C1160 0.930 . S
O1153 Co1122 2.037 . S
O1153 C1173 1.234 . S
C1154 O1128 1.269 . S
C1154 O1129 1.257 . S
C1155 H1130 0.930 . S
C1155 C1158 1.388 . S
C1155 C1160 1.418 . S
C1156 H1151 0.930 . S
C1156 C1159 1.404 . S
C1156 C1160 1.353 . S
N1157 Co1122 2.145 . S
N1157 C1158 1.397 . S
N1157 C1159 1.334 . S
C1158 H1139 0.929 . S
C1158 C1155 1.388 . S
C1158 N1157 1.397 . S
C1159 H1140 0.929 . S
C1159 C1156 1.404 . S
C1159 N1157 1.334 . S
C1160 H1152 0.930 . S
C1160 C1155 1.418 . S
C1160 C1156 1.353 . S
C1161 H1131 0.930 . S
C1161 N1162 1.330 . S
C1161 C1163 1.446 . S
N1162 Co1121 2.151 . S
N1162 C1161 1.330 . S
N1162 C1166 1.418 . S
C1163 H1142 0.929 . S
C1163 C1161 1.446 . S
C1163 C1164 1.332 . S
C1164 H1144 0.931 . S
C1164 C1163 1.332 . S
C1164 C1165 1.267 . S
C1165 H1133 0.929 . S
C1165 C1164 1.267 . S
C1165 C1166 1.251 . S
C1166 H1136 0.929 . S
C1166 N1162 1.418 . S
C1166 C1165 1.251 . S
C1167 H1134 0.930 . S
C1167 C1169 1.406 . S
C1167 C1172 1.261 . S
C1168 H1135 0.930 . S
C1168 N1170 1.325 . S
C1168 C1171 1.357 . S
C1169 H1137 0.928 . S
C1169 C1167 1.406 . S
C1169 N1170 1.261 . S
N1170 Co1121 2.214 . S
N1170 C1168 1.325 . S
N1170 C1169 1.261 . S
C1171 H1141 0.931 . S
C1171 C1168 1.357 . S
C1171 C1172 1.312 . S
C1172 H1143 0.930 . S
C1172 C1167 1.261 . S
C1172 C1171 1.312 . S
C1173 O1145 1.214 . S
C1173 O1153 1.234 . S
C1174 H1146 0.929 . S
C1174 C1177 1.391 . S
C1174 C1179 1.391 . S
C1175 H1147 0.929 . S
C1175 C1176 1.390 . S
C1175 N1178 1.391 . S
C1176 H1148 0.930 . S
C1176 C1175 1.390 . S
C1176 C1177 1.392 . S
C1177 H1149 0.929 . S
C1177 C1174 1.391 . S
C1177 C1176 1.392 . S
N1178 Co1122 2.257 . S
N1178 C1175 1.391 . S
N1178 C1179 1.388 . S
C1179 H1150 0.930 . S
C1179 C1174 1.391 . S
C1179 N1178 1.388 . S
Co1180 O1182 2.143 . S
Co1180 O1188 2.074 . S
Co1180 O1191 2.093 . S
Co1180 O1204 2.097 . S
Co1180 N1221 2.151 . S
Co1180 N1229 2.214 . S
Co1181 O1182 2.160 . S
Co1181 O1187 2.058 . S
Co1181 O1197 2.057 . S
Co1181 O1212 2.037 . S
Co1181 N1216 2.145 . S
Co1181 N1237 2.257 . S
O1182 Co1180 2.143 . S
O1182 Co1181 2.160 . S
C1183 O1184 1.278 . S
C1183 O1191 1.224 . S
O1184 C1183 1.278 . S
C1185 O1186 1.245 . S
C1185 O1197 1.232 . S
O1186 C1185 1.245 . S
O1187 Co1181 2.058 . S
O1187 C1213 1.269 . S
O1188 Co1180 2.074 . S
O1188 C1213 1.257 . S
H1189 C1214 0.930 . S
H1190 C1220 0.930 . S
O1191 Co1180 2.093 . S
O1191 C1183 1.224 . S
H1192 C1224 0.929 . S
H1193 C1226 0.930 . S
H1194 C1227 0.930 . S
H1195 C1225 0.929 . S
H1196 C1228 0.928 . S
O1197 Co1181 2.057 . S
O1197 C1185 1.232 . S
H1198 C1217 0.929 . S
H1199 C1218 0.929 . S
H1200 C1230 0.931 . S
H1201 C1222 0.929 . S
H1202 C1231 0.930 . S
H1203 C1223 0.931 . S
O1204 Co1180 2.097 . S
O1204 C1232 1.214 . S
H1205 C1233 0.929 . S
H1206 C1234 0.929 . S
H1207 C1235 0.930 . S
H1208 C1236 0.929 . S
H1209 C1238 0.930 . S
H1210 C1215 0.930 . S
H1211 C1219 0.930 . S
O1212 Co1181 2.037 . S
O1212 C1232 1.234 . S
C1213 O1187 1.269 . S
C1213 O1188 1.257 . S
C1214 H1189 0.930 . S
C1214 C1217 1.388 . S
C1214 C1219 1.418 . S
C1215 H1210 0.930 . S
C1215 C1218 1.404 . S
C1215 C1219 1.353 . S
N1216 Co1181 2.145 . S
N1216 C1217 1.397 . S
N1216 C1218 1.334 . S
C1217 H1198 0.929 . S
C1217 C1214 1.388 . S
C1217 N1216 1.397 . S
C1218 H1199 0.929 . S
C1218 C1215 1.404 . S
C1218 N1216 1.334 . S
C1219 H1211 0.930 . S
C1219 C1214 1.418 . S
C1219 C1215 1.353 . S
C1220 H1190 0.930 . S
C1220 N1221 1.330 . S
C1220 C1222 1.446 . S
N1221 Co1180 2.151 . S
N1221 C1220 1.330 . S
N1221 C1225 1.418 . S
C1222 H1201 0.929 . S
C1222 C1220 1.446 . S
C1222 C1223 1.332 . S
C1223 H1203 0.931 . S
C1223 C1222 1.332 . S
C1223 C1224 1.267 . S
C1224 H1192 0.929 . S
C1224 C1223 1.267 . S
C1224 C1225 1.251 . S
C1225 H1195 0.929 . S
C1225 N1221 1.418 . S
C1225 C1224 1.251 . S
C1226 H1193 0.930 . S
C1226 C1228 1.406 . S
C1226 C1231 1.261 . S
C1227 H1194 0.930 . S
C1227 N1229 1.325 . S
C1227 C1230 1.357 . S
C1228 H1196 0.928 . S
C1228 C1226 1.406 . S
C1228 N1229 1.261 . S
N1229 Co1180 2.214 . S
N1229 C1227 1.325 . S
N1229 C1228 1.261 . S
C1230 H1200 0.931 . S
C1230 C1227 1.357 . S
C1230 C1231 1.312 . S
C1231 H1202 0.930 . S
C1231 C1226 1.261 . S
C1231 C1230 1.312 . S
C1232 O1204 1.214 . S
C1232 O1212 1.234 . S
C1233 H1205 0.929 . S
C1233 C1236 1.391 . S
C1233 C1238 1.391 . S
C1234 H1206 0.929 . S
C1234 C1235 1.390 . S
C1234 N1237 1.391 . S
C1235 H1207 0.930 . S
C1235 C1234 1.390 . S
C1235 C1236 1.392 . S
C1236 H1208 0.929 . S
C1236 C1233 1.391 . S
C1236 C1235 1.392 . S
N1237 Co1181 2.257 . S
N1237 C1234 1.391 . S
N1237 C1238 1.388 . S
C1238 H1209 0.930 . S
C1238 C1233 1.391 . S
C1238 N1237 1.388 . S
Co1239 O1241 2.143 . S
Co1239 O1247 2.074 . S
Co1239 O1250 2.093 . S
Co1239 O1263 2.097 . S
Co1239 N1280 2.151 . S
Co1239 N1288 2.214 . S
Co1240 O1241 2.160 . S
Co1240 O1246 2.058 . S
Co1240 O1256 2.057 . S
Co1240 O1271 2.037 . S
Co1240 N1275 2.145 . S
Co1240 N1296 2.257 . S
O1241 Co1239 2.143 . S
O1241 Co1240 2.160 . S
C1242 O1243 1.278 . S
C1242 O1250 1.224 . S
O1243 C1242 1.278 . S
C1244 O1245 1.245 . S
C1244 O1256 1.232 . S
O1245 C1244 1.245 . S
O1246 Co1240 2.058 . S
O1246 C1272 1.269 . S
O1247 Co1239 2.074 . S
O1247 C1272 1.257 . S
H1248 C1273 0.930 . S
H1249 C1279 0.930 . S
O1250 Co1239 2.093 . S
O1250 C1242 1.224 . S
H1251 C1283 0.929 . S
H1252 C1285 0.930 . S
H1253 C1286 0.930 . S
H1254 C1284 0.929 . S
H1255 C1287 0.928 . S
O1256 Co1240 2.057 . S
O1256 C1244 1.232 . S
H1257 C1276 0.929 . S
H1258 C1277 0.929 . S
H1259 C1289 0.931 . S
H1260 C1281 0.929 . S
H1261 C1290 0.930 . S
H1262 C1282 0.931 . S
O1263 Co1239 2.097 . S
O1263 C1291 1.214 . S
H1264 C1292 0.929 . S
H1265 C1293 0.929 . S
H1266 C1294 0.930 . S
H1267 C1295 0.929 . S
H1268 C1297 0.930 . S
H1269 C1274 0.930 . S
H1270 C1278 0.930 . S
O1271 Co1240 2.037 . S
O1271 C1291 1.234 . S
C1272 O1246 1.269 . S
C1272 O1247 1.257 . S
C1273 H1248 0.930 . S
C1273 C1276 1.388 . S
C1273 C1278 1.418 . S
C1274 H1269 0.930 . S
C1274 C1277 1.404 . S
C1274 C1278 1.353 . S
N1275 Co1240 2.145 . S
N1275 C1276 1.397 . S
N1275 C1277 1.334 . S
C1276 H1257 0.929 . S
C1276 C1273 1.388 . S
C1276 N1275 1.397 . S
C1277 H1258 0.929 . S
C1277 C1274 1.404 . S
C1277 N1275 1.334 . S
C1278 H1270 0.930 . S
C1278 C1273 1.418 . S
C1278 C1274 1.353 . S
C1279 H1249 0.930 . S
C1279 N1280 1.330 . S
C1279 C1281 1.446 . S
N1280 Co1239 2.151 . S
N1280 C1279 1.330 . S
N1280 C1284 1.418 . S
C1281 H1260 0.929 . S
C1281 C1279 1.446 . S
C1281 C1282 1.332 . S
C1282 H1262 0.931 . S
C1282 C1281 1.332 . S
C1282 C1283 1.267 . S
C1283 H1251 0.929 . S
C1283 C1282 1.267 . S
C1283 C1284 1.251 . S
C1284 H1254 0.929 . S
C1284 N1280 1.418 . S
C1284 C1283 1.251 . S
C1285 H1252 0.930 . S
C1285 C1287 1.406 . S
C1285 C1290 1.261 . S
C1286 H1253 0.930 . S
C1286 N1288 1.325 . S
C1286 C1289 1.357 . S
C1287 H1255 0.928 . S
C1287 C1285 1.406 . S
C1287 N1288 1.261 . S
N1288 Co1239 2.214 . S
N1288 C1286 1.325 . S
N1288 C1287 1.261 . S
C1289 H1259 0.931 . S
C1289 C1286 1.357 . S
C1289 C1290 1.312 . S
C1290 H1261 0.930 . S
C1290 C1285 1.261 . S
C1290 C1289 1.312 . S
C1291 O1263 1.214 . S
C1291 O1271 1.234 . S
C1292 H1264 0.929 . S
C1292 C1295 1.391 . S
C1292 C1297 1.391 . S
C1293 H1265 0.929 . S
C1293 C1294 1.390 . S
C1293 N1296 1.391 . S
C1294 H1266 0.930 . S
C1294 C1293 1.390 . S
C1294 C1295 1.392 . S
C1295 H1267 0.929 . S
C1295 C1292 1.391 . S
C1295 C1294 1.392 . S
N1296 Co1240 2.257 . S
N1296 C1293 1.391 . S
N1296 C1297 1.388 . S
C1297 H1268 0.930 . S
C1297 C1292 1.391 . S
C1297 N1296 1.388 . S
Co1298 O1300 2.143 . S
Co1298 O1306 2.074 . S
Co1298 O1309 2.093 . S
Co1298 O1322 2.097 . S
Co1298 N1339 2.151 . S
Co1298 N1347 2.214 . S
Co1299 O1300 2.160 . S
Co1299 O1305 2.058 . S
Co1299 O1315 2.057 . S
Co1299 O1330 2.037 . S
Co1299 N1334 2.145 . S
Co1299 N1355 2.257 . S
O1300 Co1298 2.143 . S
O1300 Co1299 2.160 . S
C1301 O1302 1.278 . S
C1301 O1309 1.224 . S
O1302 C1301 1.278 . S
C1303 O1304 1.245 . S
C1303 O1315 1.232 . S
O1304 C1303 1.245 . S
O1305 Co1299 2.058 . S
O1305 C1331 1.269 . S
O1306 Co1298 2.074 . S
O1306 C1331 1.257 . S
H1307 C1332 0.930 . S
H1308 C1338 0.930 . S
O1309 Co1298 2.093 . S
O1309 C1301 1.224 . S
H1310 C1342 0.929 . S
H1311 C1344 0.930 . S
H1312 C1345 0.930 . S
H1313 C1343 0.929 . S
H1314 C1346 0.928 . S
O1315 Co1299 2.057 . S
O1315 C1303 1.232 . S
H1316 C1335 0.929 . S
H1317 C1336 0.929 . S
H1318 C1348 0.931 . S
H1319 C1340 0.929 . S
H1320 C1349 0.930 . S
H1321 C1341 0.931 . S
O1322 Co1298 2.097 . S
O1322 C1350 1.214 . S
H1323 C1351 0.929 . S
H1324 C1352 0.929 . S
H1325 C1353 0.930 . S
H1326 C1354 0.929 . S
H1327 C1356 0.930 . S
H1328 C1333 0.930 . S
H1329 C1337 0.930 . S
O1330 Co1299 2.037 . S
O1330 C1350 1.234 . S
C1331 O1305 1.269 . S
C1331 O1306 1.257 . S
C1332 H1307 0.930 . S
C1332 C1335 1.388 . S
C1332 C1337 1.418 . S
C1333 H1328 0.930 . S
C1333 C1336 1.404 . S
C1333 C1337 1.353 . S
N1334 Co1299 2.145 . S
N1334 C1335 1.397 . S
N1334 C1336 1.334 . S
C1335 H1316 0.929 . S
C1335 C1332 1.388 . S
C1335 N1334 1.397 . S
C1336 H1317 0.929 . S
C1336 C1333 1.404 . S
C1336 N1334 1.334 . S
C1337 H1329 0.930 . S
C1337 C1332 1.418 . S
C1337 C1333 1.353 . S
C1338 H1308 0.930 . S
C1338 N1339 1.330 . S
C1338 C1340 1.446 . S
N1339 Co1298 2.151 . S
N1339 C1338 1.330 . S
N1339 C1343 1.418 . S
C1340 H1319 0.929 . S
C1340 C1338 1.446 . S
C1340 C1341 1.332 . S
C1341 H1321 0.931 . S
C1341 C1340 1.332 . S
C1341 C1342 1.267 . S
C1342 H1310 0.929 . S
C1342 C1341 1.267 . S
C1342 C1343 1.251 . S
C1343 H1313 0.929 . S
C1343 N1339 1.418 . S
C1343 C1342 1.251 . S
C1344 H1311 0.930 . S
C1344 C1346 1.406 . S
C1344 C1349 1.261 . S
C1345 H1312 0.930 . S
C1345 N1347 1.325 . S
C1345 C1348 1.357 . S
C1346 H1314 0.928 . S
C1346 C1344 1.406 . S
C1346 N1347 1.261 . S
N1347 Co1298 2.214 . S
N1347 C1345 1.325 . S
N1347 C1346 1.261 . S
C1348 H1318 0.931 . S
C1348 C1345 1.357 . S
C1348 C1349 1.312 . S
C1349 H1320 0.930 . S
C1349 C1344 1.261 . S
C1349 C1348 1.312 . S
C1350 O1322 1.214 . S
C1350 O1330 1.234 . S
C1351 H1323 0.929 . S
C1351 C1354 1.391 . S
C1351 C1356 1.391 . S
C1352 H1324 0.929 . S
C1352 C1353 1.390 . S
C1352 N1355 1.391 . S
C1353 H1325 0.930 . S
C1353 C1352 1.390 . S
C1353 C1354 1.392 . S
C1354 H1326 0.929 . S
C1354 C1351 1.391 . S
C1354 C1353 1.392 . S
N1355 Co1299 2.257 . S
N1355 C1352 1.391 . S
N1355 C1356 1.388 . S
C1356 H1327 0.930 . S
C1356 C1351 1.391 . S
C1356 N1355 1.388 . S
Co1357 O1359 2.143 . S
Co1357 O1365 2.074 . S
Co1357 O1368 2.093 . S
Co1357 O1381 2.097 . S
Co1357 N1398 2.151 . S
Co1357 N1406 2.214 . S
Co1358 O1359 2.160 . S
Co1358 O1364 2.058 . S
Co1358 O1374 2.057 . S
Co1358 O1389 2.037 . S
Co1358 N1393 2.145 . S
Co1358 N1414 2.257 . S
O1359 Co1357 2.143 . S
O1359 Co1358 2.160 . S
C1360 O1361 1.278 . S
C1360 O1368 1.224 . S
O1361 C1360 1.278 . S
C1362 O1363 1.245 . S
C1362 O1374 1.232 . S
O1363 C1362 1.245 . S
O1364 Co1358 2.058 . S
O1364 C1390 1.269 . S
O1365 Co1357 2.074 . S
O1365 C1390 1.257 . S
H1366 C1391 0.930 . S
H1367 C1397 0.930 . S
O1368 Co1357 2.093 . S
O1368 C1360 1.224 . S
H1369 C1401 0.929 . S
H1370 C1403 0.930 . S
H1371 C1404 0.930 . S
H1372 C1402 0.929 . S
H1373 C1405 0.928 . S
O1374 Co1358 2.057 . S
O1374 C1362 1.232 . S
H1375 C1394 0.929 . S
H1376 C1395 0.929 . S
H1377 C1407 0.931 . S
H1378 C1399 0.929 . S
H1379 C1408 0.930 . S
H1380 C1400 0.931 . S
O1381 Co1357 2.097 . S
O1381 C1409 1.214 . S
H1382 C1410 0.929 . S
H1383 C1411 0.929 . S
H1384 C1412 0.930 . S
H1385 C1413 0.929 . S
H1386 C1415 0.930 . S
H1387 C1392 0.930 . S
H1388 C1396 0.930 . S
O1389 Co1358 2.037 . S
O1389 C1409 1.234 . S
C1390 O1364 1.269 . S
C1390 O1365 1.257 . S
C1391 H1366 0.930 . S
C1391 C1394 1.388 . S
C1391 C1396 1.418 . S
C1392 H1387 0.930 . S
C1392 C1395 1.404 . S
C1392 C1396 1.353 . S
N1393 Co1358 2.145 . S
N1393 C1394 1.397 . S
N1393 C1395 1.334 . S
C1394 H1375 0.929 . S
C1394 C1391 1.388 . S
C1394 N1393 1.397 . S
C1395 H1376 0.929 . S
C1395 C1392 1.404 . S
C1395 N1393 1.334 . S
C1396 H1388 0.930 . S
C1396 C1391 1.418 . S
C1396 C1392 1.353 . S
C1397 H1367 0.930 . S
C1397 N1398 1.330 . S
C1397 C1399 1.446 . S
N1398 Co1357 2.151 . S
N1398 C1397 1.330 . S
N1398 C1402 1.418 . S
C1399 H1378 0.929 . S
C1399 C1397 1.446 . S
C1399 C1400 1.332 . S
C1400 H1380 0.931 . S
C1400 C1399 1.332 . S
C1400 C1401 1.267 . S
C1401 H1369 0.929 . S
C1401 C1400 1.267 . S
C1401 C1402 1.251 . S
C1402 H1372 0.929 . S
C1402 N1398 1.418 . S
C1402 C1401 1.251 . S
C1403 H1370 0.930 . S
C1403 C1405 1.406 . S
C1403 C1408 1.261 . S
C1404 H1371 0.930 . S
C1404 N1406 1.325 . S
C1404 C1407 1.357 . S
C1405 H1373 0.928 . S
C1405 C1403 1.406 . S
C1405 N1406 1.261 . S
N1406 Co1357 2.214 . S
N1406 C1404 1.325 . S
N1406 C1405 1.261 . S
C1407 H1377 0.931 . S
C1407 C1404 1.357 . S
C1407 C1408 1.312 . S
C1408 H1379 0.930 . S
C1408 C1403 1.261 . S
C1408 C1407 1.312 . S
C1409 O1381 1.214 . S
C1409 O1389 1.234 . S
C1410 H1382 0.929 . S
C1410 C1413 1.391 . S
C1410 C1415 1.391 . S
C1411 H1383 0.929 . S
C1411 C1412 1.390 . S
C1411 N1414 1.391 . S
C1412 H1384 0.930 . S
C1412 C1411 1.390 . S
C1412 C1413 1.392 . S
C1413 H1385 0.929 . S
C1413 C1410 1.391 . S
C1413 C1412 1.392 . S
N1414 Co1358 2.257 . S
N1414 C1411 1.391 . S
N1414 C1415 1.388 . S
C1415 H1386 0.930 . S
C1415 C1410 1.391 . S
C1415 N1414 1.388 . S
Co1416 O1418 2.143 . S
Co1416 O1424 2.074 . S
Co1416 O1427 2.093 . S
Co1416 O1440 2.097 . S
Co1416 N1457 2.151 . S
Co1416 N1465 2.214 . S
Co1417 O1418 2.160 . S
Co1417 O1423 2.058 . S
Co1417 O1433 2.057 . S
Co1417 O1448 2.037 . S
Co1417 N1452 2.145 . S
Co1417 N1473 2.257 . S
O1418 Co1416 2.143 . S
O1418 Co1417 2.160 . S
C1419 O1420 1.278 . S
C1419 O1427 1.224 . S
O1420 C1419 1.278 . S
C1421 O1422 1.245 . S
C1421 O1433 1.232 . S
O1422 C1421 1.245 . S
O1423 Co1417 2.058 . S
O1423 C1449 1.269 . S
O1424 Co1416 2.074 . S
O1424 C1449 1.257 . S
H1425 C1450 0.930 . S
H1426 C1456 0.930 . S
O1427 Co1416 2.093 . S
O1427 C1419 1.224 . S
H1428 C1460 0.929 . S
H1429 C1462 0.930 . S
H1430 C1463 0.930 . S
H1431 C1461 0.929 . S
H1432 C1464 0.928 . S
O1433 Co1417 2.057 . S
O1433 C1421 1.232 . S
H1434 C1453 0.929 . S
H1435 C1454 0.929 . S
H1436 C1466 0.931 . S
H1437 C1458 0.929 . S
H1438 C1467 0.930 . S
H1439 C1459 0.931 . S
O1440 Co1416 2.097 . S
O1440 C1468 1.214 . S
H1441 C1469 0.929 . S
H1442 C1470 0.929 . S
H1443 C1471 0.930 . S
H1444 C1472 0.929 . S
H1445 C1474 0.930 . S
H1446 C1451 0.930 . S
H1447 C1455 0.930 . S
O1448 Co1417 2.037 . S
O1448 C1468 1.234 . S
C1449 O1423 1.269 . S
C1449 O1424 1.257 . S
C1450 H1425 0.930 . S
C1450 C1453 1.388 . S
C1450 C1455 1.418 . S
C1451 H1446 0.930 . S
C1451 C1454 1.404 . S
C1451 C1455 1.353 . S
N1452 Co1417 2.145 . S
N1452 C1453 1.397 . S
N1452 C1454 1.334 . S
C1453 H1434 0.929 . S
C1453 C1450 1.388 . S
C1453 N1452 1.397 . S
C1454 H1435 0.929 . S
C1454 C1451 1.404 . S
C1454 N1452 1.334 . S
C1455 H1447 0.930 . S
C1455 C1450 1.418 . S
C1455 C1451 1.353 . S
C1456 H1426 0.930 . S
C1456 N1457 1.330 . S
C1456 C1458 1.446 . S
N1457 Co1416 2.151 . S
N1457 C1456 1.330 . S
N1457 C1461 1.418 . S
C1458 H1437 0.929 . S
C1458 C1456 1.446 . S
C1458 C1459 1.332 . S
C1459 H1439 0.931 . S
C1459 C1458 1.332 . S
C1459 C1460 1.267 . S
C1460 H1428 0.929 . S
C1460 C1459 1.267 . S
C1460 C1461 1.251 . S
C1461 H1431 0.929 . S
C1461 N1457 1.418 . S
C1461 C1460 1.251 . S
C1462 H1429 0.930 . S
C1462 C1464 1.406 . S
C1462 C1467 1.261 . S
C1463 H1430 0.930 . S
C1463 N1465 1.325 . S
C1463 C1466 1.357 . S
C1464 H1432 0.928 . S
C1464 C1462 1.406 . S
C1464 N1465 1.261 . S
N1465 Co1416 2.214 . S
N1465 C1463 1.325 . S
N1465 C1464 1.261 . S
C1466 H1436 0.931 . S
C1466 C1463 1.357 . S
C1466 C1467 1.312 . S
C1467 H1438 0.930 . S
C1467 C1462 1.261 . S
C1467 C1466 1.312 . S
C1468 O1440 1.214 . S
C1468 O1448 1.234 . S
C1469 H1441 0.929 . S
C1469 C1472 1.391 . S
C1469 C1474 1.391 . S
C1470 H1442 0.929 . S
C1470 C1471 1.390 . S
C1470 N1473 1.391 . S
C1471 H1443 0.930 . S
C1471 C1470 1.390 . S
C1471 C1472 1.392 . S
C1472 H1444 0.929 . S
C1472 C1469 1.391 . S
C1472 C1471 1.392 . S
N1473 Co1417 2.257 . S
N1473 C1470 1.391 . S
N1473 C1474 1.388 . S
C1474 H1445 0.930 . S
C1474 C1469 1.391 . S
C1474 N1473 1.388 . S
Co1475 O1477 2.143 . S
Co1475 O1483 2.074 . S
Co1475 O1486 2.093 . S
Co1475 O1499 2.097 . S
Co1475 N1516 2.151 . S
Co1475 N1524 2.214 . S
Co1476 O1477 2.160 . S
Co1476 O1482 2.058 . S
Co1476 O1492 2.057 . S
Co1476 O1507 2.037 . S
Co1476 N1511 2.145 . S
Co1476 N1532 2.257 . S
O1477 Co1475 2.143 . S
O1477 Co1476 2.160 . S
C1478 O1479 1.278 . S
C1478 O1486 1.224 . S
O1479 C1478 1.278 . S
C1480 O1481 1.245 . S
C1480 O1492 1.232 . S
O1481 C1480 1.245 . S
O1482 Co1476 2.058 . S
O1482 C1508 1.269 . S
O1483 Co1475 2.074 . S
O1483 C1508 1.257 . S
H1484 C1509 0.930 . S
H1485 C1515 0.930 . S
O1486 Co1475 2.093 . S
O1486 C1478 1.224 . S
H1487 C1519 0.929 . S
H1488 C1521 0.930 . S
H1489 C1522 0.930 . S
H1490 C1520 0.929 . S
H1491 C1523 0.928 . S
O1492 Co1476 2.057 . S
O1492 C1480 1.232 . S
H1493 C1512 0.929 . S
H1494 C1513 0.929 . S
H1495 C1525 0.931 . S
H1496 C1517 0.929 . S
H1497 C1526 0.930 . S
H1498 C1518 0.931 . S
O1499 Co1475 2.097 . S
O1499 C1527 1.214 . S
H1500 C1528 0.929 . S
H1501 C1529 0.929 . S
H1502 C1530 0.930 . S
H1503 C1531 0.929 . S
H1504 C1533 0.930 . S
H1505 C1510 0.930 . S
H1506 C1514 0.930 . S
O1507 Co1476 2.037 . S
O1507 C1527 1.234 . S
C1508 O1482 1.269 . S
C1508 O1483 1.257 . S
C1509 H1484 0.930 . S
C1509 C1512 1.388 . S
C1509 C1514 1.418 . S
C1510 H1505 0.930 . S
C1510 C1513 1.404 . S
C1510 C1514 1.353 . S
N1511 Co1476 2.145 . S
N1511 C1512 1.397 . S
N1511 C1513 1.334 . S
C1512 H1493 0.929 . S
C1512 C1509 1.388 . S
C1512 N1511 1.397 . S
C1513 H1494 0.929 . S
C1513 C1510 1.404 . S
C1513 N1511 1.334 . S
C1514 H1506 0.930 . S
C1514 C1509 1.418 . S
C1514 C1510 1.353 . S
C1515 H1485 0.930 . S
C1515 N1516 1.330 . S
C1515 C1517 1.446 . S
N1516 Co1475 2.151 . S
N1516 C1515 1.330 . S
N1516 C1520 1.418 . S
C1517 H1496 0.929 . S
C1517 C1515 1.446 . S
C1517 C1518 1.332 . S
C1518 H1498 0.931 . S
C1518 C1517 1.332 . S
C1518 C1519 1.267 . S
C1519 H1487 0.929 . S
C1519 C1518 1.267 . S
C1519 C1520 1.251 . S
C1520 H1490 0.929 . S
C1520 N1516 1.418 . S
C1520 C1519 1.251 . S
C1521 H1488 0.930 . S
C1521 C1523 1.406 . S
C1521 C1526 1.261 . S
C1522 H1489 0.930 . S
C1522 N1524 1.325 . S
C1522 C1525 1.357 . S
C1523 H1491 0.928 . S
C1523 C1521 1.406 . S
C1523 N1524 1.261 . S
N1524 Co1475 2.214 . S
N1524 C1522 1.325 . S
N1524 C1523 1.261 . S
C1525 H1495 0.931 . S
C1525 C1522 1.357 . S
C1525 C1526 1.312 . S
C1526 H1497 0.930 . S
C1526 C1521 1.261 . S
C1526 C1525 1.312 . S
C1527 O1499 1.214 . S
C1527 O1507 1.234 . S
C1528 H1500 0.929 . S
C1528 C1531 1.391 . S
C1528 C1533 1.391 . S
C1529 H1501 0.929 . S
C1529 C1530 1.390 . S
C1529 N1532 1.391 . S
C1530 H1502 0.930 . S
C1530 C1529 1.390 . S
C1530 C1531 1.392 . S
C1531 H1503 0.929 . S
C1531 C1528 1.391 . S
C1531 C1530 1.392 . S
N1532 Co1476 2.257 . S
N1532 C1529 1.391 . S
N1532 C1533 1.388 . S
C1533 H1504 0.930 . S
C1533 C1528 1.391 . S
C1533 N1532 1.388 . S
Co1534 O1536 2.143 . S
Co1534 O1542 2.074 . S
Co1534 O1545 2.093 . S
Co1534 O1558 2.097 . S
Co1534 N1575 2.151 . S
Co1534 N1583 2.214 . S
Co1535 O1536 2.160 . S
Co1535 O1541 2.058 . S
Co1535 O1551 2.057 . S
Co1535 O1566 2.037 . S
Co1535 N1570 2.145 . S
Co1535 N1591 2.257 . S
O1536 Co1534 2.143 . S
O1536 Co1535 2.160 . S
C1537 O1538 1.278 . S
C1537 O1545 1.224 . S
O1538 C1537 1.278 . S
C1539 O1540 1.245 . S
C1539 O1551 1.232 . S
O1540 C1539 1.245 . S
O1541 Co1535 2.058 . S
O1541 C1567 1.269 . S
O1542 Co1534 2.074 . S
O1542 C1567 1.257 . S
H1543 C1568 0.930 . S
H1544 C1574 0.930 . S
O1545 Co1534 2.093 . S
O1545 C1537 1.224 . S
H1546 C1578 0.929 . S
H1547 C1580 0.930 . S
H1548 C1581 0.930 . S
H1549 C1579 0.929 . S
H1550 C1582 0.928 . S
O1551 Co1535 2.057 . S
O1551 C1539 1.232 . S
H1552 C1571 0.929 . S
H1553 C1572 0.929 . S
H1554 C1584 0.931 . S
H1555 C1576 0.929 . S
H1556 C1585 0.930 . S
H1557 C1577 0.931 . S
O1558 Co1534 2.097 . S
O1558 C1586 1.214 . S
H1559 C1587 0.929 . S
H1560 C1588 0.929 . S
H1561 C1589 0.930 . S
H1562 C1590 0.929 . S
H1563 C1592 0.930 . S
H1564 C1569 0.930 . S
H1565 C1573 0.930 . S
O1566 Co1535 2.037 . S
O1566 C1586 1.234 . S
C1567 O1541 1.269 . S
C1567 O1542 1.257 . S
C1568 H1543 0.930 . S
C1568 C1571 1.388 . S
C1568 C1573 1.418 . S
C1569 H1564 0.930 . S
C1569 C1572 1.404 . S
C1569 C1573 1.353 . S
N1570 Co1535 2.145 . S
N1570 C1571 1.397 . S
N1570 C1572 1.334 . S
C1571 H1552 0.929 . S
C1571 C1568 1.388 . S
C1571 N1570 1.397 . S
C1572 H1553 0.929 . S
C1572 C1569 1.404 . S
C1572 N1570 1.334 . S
C1573 H1565 0.930 . S
C1573 C1568 1.418 . S
C1573 C1569 1.353 . S
C1574 H1544 0.930 . S
C1574 N1575 1.330 . S
C1574 C1576 1.446 . S
N1575 Co1534 2.151 . S
N1575 C1574 1.330 . S
N1575 C1579 1.418 . S
C1576 H1555 0.929 . S
C1576 C1574 1.446 . S
C1576 C1577 1.332 . S
C1577 H1557 0.931 . S
C1577 C1576 1.332 . S
C1577 C1578 1.267 . S
C1578 H1546 0.929 . S
C1578 C1577 1.267 . S
C1578 C1579 1.251 . S
C1579 H1549 0.929 . S
C1579 N1575 1.418 . S
C1579 C1578 1.251 . S
C1580 H1547 0.930 . S
C1580 C1582 1.406 . S
C1580 C1585 1.261 . S
C1581 H1548 0.930 . S
C1581 N1583 1.325 . S
C1581 C1584 1.357 . S
C1582 H1550 0.928 . S
C1582 C1580 1.406 . S
C1582 N1583 1.261 . S
N1583 Co1534 2.214 . S
N1583 C1581 1.325 . S
N1583 C1582 1.261 . S
C1584 H1554 0.931 . S
C1584 C1581 1.357 . S
C1584 C1585 1.312 . S
C1585 H1556 0.930 . S
C1585 C1580 1.261 . S
C1585 C1584 1.312 . S
C1586 O1558 1.214 . S
C1586 O1566 1.234 . S
C1587 H1559 0.929 . S
C1587 C1590 1.391 . S
C1587 C1592 1.391 . S
C1588 H1560 0.929 . S
C1588 C1589 1.390 . S
C1588 N1591 1.391 . S
C1589 H1561 0.930 . S
C1589 C1588 1.390 . S
C1589 C1590 1.392 . S
C1590 H1562 0.929 . S
C1590 C1587 1.391 . S
C1590 C1589 1.392 . S
N1591 Co1535 2.257 . S
N1591 C1588 1.391 . S
N1591 C1592 1.388 . S
C1592 H1563 0.930 . S
C1592 C1587 1.391 . S
C1592 N1591 1.388 . S
Co1593 O1595 2.143 . S
Co1593 O1601 2.074 . S
Co1593 O1604 2.093 . S
Co1593 O1617 2.097 . S
Co1593 N1634 2.151 . S
Co1593 N1642 2.214 . S
Co1594 O1595 2.160 . S
Co1594 O1600 2.058 . S
Co1594 O1610 2.057 . S
Co1594 O1625 2.037 . S
Co1594 N1629 2.145 . S
Co1594 N1650 2.257 . S
O1595 Co1593 2.143 . S
O1595 Co1594 2.160 . S
C1596 O1597 1.278 . S
C1596 O1604 1.224 . S
O1597 C1596 1.278 . S
C1598 O1599 1.245 . S
C1598 O1610 1.232 . S
O1599 C1598 1.245 . S
O1600 Co1594 2.058 . S
O1600 C1626 1.269 . S
O1601 Co1593 2.074 . S
O1601 C1626 1.257 . S
H1602 C1627 0.930 . S
H1603 C1633 0.930 . S
O1604 Co1593 2.093 . S
O1604 C1596 1.224 . S
H1605 C1637 0.929 . S
H1606 C1639 0.930 . S
H1607 C1640 0.930 . S
H1608 C1638 0.929 . S
H1609 C1641 0.928 . S
O1610 Co1594 2.057 . S
O1610 C1598 1.232 . S
H1611 C1630 0.929 . S
H1612 C1631 0.929 . S
H1613 C1643 0.931 . S
H1614 C1635 0.929 . S
H1615 C1644 0.930 . S
H1616 C1636 0.931 . S
O1617 Co1593 2.097 . S
O1617 C1645 1.214 . S
H1618 C1646 0.929 . S
H1619 C1647 0.929 . S
H1620 C1648 0.930 . S
H1621 C1649 0.929 . S
H1622 C1651 0.930 . S
H1623 C1628 0.930 . S
H1624 C1632 0.930 . S
O1625 Co1594 2.037 . S
O1625 C1645 1.234 . S
C1626 O1600 1.269 . S
C1626 O1601 1.257 . S
C1627 H1602 0.930 . S
C1627 C1630 1.388 . S
C1627 C1632 1.418 . S
C1628 H1623 0.930 . S
C1628 C1631 1.404 . S
C1628 C1632 1.353 . S
N1629 Co1594 2.145 . S
N1629 C1630 1.397 . S
N1629 C1631 1.334 . S
C1630 H1611 0.929 . S
C1630 C1627 1.388 . S
C1630 N1629 1.397 . S
C1631 H1612 0.929 . S
C1631 C1628 1.404 . S
C1631 N1629 1.334 . S
C1632 H1624 0.930 . S
C1632 C1627 1.418 . S
C1632 C1628 1.353 . S
C1633 H1603 0.930 . S
C1633 N1634 1.330 . S
C1633 C1635 1.446 . S
N1634 Co1593 2.151 . S
N1634 C1633 1.330 . S
N1634 C1638 1.418 . S
C1635 H1614 0.929 . S
C1635 C1633 1.446 . S
C1635 C1636 1.332 . S
C1636 H1616 0.931 . S
C1636 C1635 1.332 . S
C1636 C1637 1.267 . S
C1637 H1605 0.929 . S
C1637 C1636 1.267 . S
C1637 C1638 1.251 . S
C1638 H1608 0.929 . S
C1638 N1634 1.418 . S
C1638 C1637 1.251 . S
C1639 H1606 0.930 . S
C1639 C1641 1.406 . S
C1639 C1644 1.261 . S
C1640 H1607 0.930 . S
C1640 N1642 1.325 . S
C1640 C1643 1.357 . S
C1641 H1609 0.928 . S
C1641 C1639 1.406 . S
C1641 N1642 1.261 . S
N1642 Co1593 2.214 . S
N1642 C1640 1.325 . S
N1642 C1641 1.261 . S
C1643 H1613 0.931 . S
C1643 C1640 1.357 . S
C1643 C1644 1.312 . S
C1644 H1615 0.930 . S
C1644 C1639 1.261 . S
C1644 C1643 1.312 . S
C1645 O1617 1.214 . S
C1645 O1625 1.234 . S
C1646 H1618 0.929 . S
C1646 C1649 1.391 . S
C1646 C1651 1.391 . S
C1647 H1619 0.929 . S
C1647 C1648 1.390 . S
C1647 N1650 1.391 . S
C1648 H1620 0.930 . S
C1648 C1647 1.390 . S
C1648 C1649 1.392 . S
C1649 H1621 0.929 . S
C1649 C1646 1.391 . S
C1649 C1648 1.392 . S
N1650 Co1594 2.257 . S
N1650 C1647 1.391 . S
N1650 C1651 1.388 . S
C1651 H1622 0.930 . S
C1651 C1646 1.391 . S
C1651 N1650 1.388 . S
Co1652 O1654 2.143 . S
Co1652 O1660 2.074 . S
Co1652 O1663 2.093 . S
Co1652 O1676 2.097 . S
Co1652 N1693 2.151 . S
Co1652 N1701 2.214 . S
Co1653 O1654 2.160 . S
Co1653 O1659 2.058 . S
Co1653 O1669 2.057 . S
Co1653 O1684 2.037 . S
Co1653 N1688 2.145 . S
Co1653 N1709 2.257 . S
O1654 Co1652 2.143 . S
O1654 Co1653 2.160 . S
C1655 O1656 1.278 . S
C1655 O1663 1.224 . S
O1656 C1655 1.278 . S
C1657 O1658 1.245 . S
C1657 O1669 1.232 . S
O1658 C1657 1.245 . S
O1659 Co1653 2.058 . S
O1659 C1685 1.269 . S
O1660 Co1652 2.074 . S
O1660 C1685 1.257 . S
H1661 C1686 0.930 . S
H1662 C1692 0.930 . S
O1663 Co1652 2.093 . S
O1663 C1655 1.224 . S
H1664 C1696 0.929 . S
H1665 C1698 0.930 . S
H1666 C1699 0.930 . S
H1667 C1697 0.929 . S
H1668 C1700 0.928 . S
O1669 Co1653 2.057 . S
O1669 C1657 1.232 . S
H1670 C1689 0.929 . S
H1671 C1690 0.929 . S
H1672 C1702 0.931 . S
H1673 C1694 0.929 . S
H1674 C1703 0.930 . S
H1675 C1695 0.931 . S
O1676 Co1652 2.097 . S
O1676 C1704 1.214 . S
H1677 C1705 0.929 . S
H1678 C1706 0.929 . S
H1679 C1707 0.930 . S
H1680 C1708 0.929 . S
H1681 C1710 0.930 . S
H1682 C1687 0.930 . S
H1683 C1691 0.930 . S
O1684 Co1653 2.037 . S
O1684 C1704 1.234 . S
C1685 O1659 1.269 . S
C1685 O1660 1.257 . S
C1686 H1661 0.930 . S
C1686 C1689 1.388 . S
C1686 C1691 1.418 . S
C1687 H1682 0.930 . S
C1687 C1690 1.404 . S
C1687 C1691 1.353 . S
N1688 Co1653 2.145 . S
N1688 C1689 1.397 . S
N1688 C1690 1.334 . S
C1689 H1670 0.929 . S
C1689 C1686 1.388 . S
C1689 N1688 1.397 . S
C1690 H1671 0.929 . S
C1690 C1687 1.404 . S
C1690 N1688 1.334 . S
C1691 H1683 0.930 . S
C1691 C1686 1.418 . S
C1691 C1687 1.353 . S
C1692 H1662 0.930 . S
C1692 N1693 1.330 . S
C1692 C1694 1.446 . S
N1693 Co1652 2.151 . S
N1693 C1692 1.330 . S
N1693 C1697 1.418 . S
C1694 H1673 0.929 . S
C1694 C1692 1.446 . S
C1694 C1695 1.332 . S
C1695 H1675 0.931 . S
C1695 C1694 1.332 . S
C1695 C1696 1.267 . S
C1696 H1664 0.929 . S
C1696 C1695 1.267 . S
C1696 C1697 1.251 . S
C1697 H1667 0.929 . S
C1697 N1693 1.418 . S
C1697 C1696 1.251 . S
C1698 H1665 0.930 . S
C1698 C1700 1.406 . S
C1698 C1703 1.261 . S
C1699 H1666 0.930 . S
C1699 N1701 1.325 . S
C1699 C1702 1.357 . S
C1700 H1668 0.928 . S
C1700 C1698 1.406 . S
C1700 N1701 1.261 . S
N1701 Co1652 2.214 . S
N1701 C1699 1.325 . S
N1701 C1700 1.261 . S
C1702 H1672 0.931 . S
C1702 C1699 1.357 . S
C1702 C1703 1.312 . S
C1703 H1674 0.930 . S
C1703 C1698 1.261 . S
C1703 C1702 1.312 . S
C1704 O1676 1.214 . S
C1704 O1684 1.234 . S
C1705 H1677 0.929 . S
C1705 C1708 1.391 . S
C1705 C1710 1.391 . S
C1706 H1678 0.929 . S
C1706 C1707 1.390 . S
C1706 N1709 1.391 . S
C1707 H1679 0.930 . S
C1707 C1706 1.390 . S
C1707 C1708 1.392 . S
C1708 H1680 0.929 . S
C1708 C1705 1.391 . S
C1708 C1707 1.392 . S
N1709 Co1653 2.257 . S
N1709 C1706 1.391 . S
N1709 C1710 1.388 . S
C1710 H1681 0.930 . S
C1710 C1705 1.391 . S
C1710 N1709 1.388 . S
Co1711 O1713 2.143 . S
Co1711 O1719 2.074 . S
Co1711 O1722 2.093 . S
Co1711 O1735 2.097 . S
Co1711 N1752 2.151 . S
Co1711 N1760 2.214 . S
Co1712 O1713 2.160 . S
Co1712 O1718 2.058 . S
Co1712 O1728 2.057 . S
Co1712 O1743 2.037 . S
Co1712 N1747 2.145 . S
Co1712 N1768 2.257 . S
O1713 Co1711 2.143 . S
O1713 Co1712 2.160 . S
C1714 O1715 1.278 . S
C1714 O1722 1.224 . S
O1715 C1714 1.278 . S
C1716 O1717 1.245 . S
C1716 O1728 1.232 . S
O1717 C1716 1.245 . S
O1718 Co1712 2.058 . S
O1718 C1744 1.269 . S
O1719 Co1711 2.074 . S
O1719 C1744 1.257 . S
H1720 C1745 0.930 . S
H1721 C1751 0.930 . S
O1722 Co1711 2.093 . S
O1722 C1714 1.224 . S
H1723 C1755 0.929 . S
H1724 C1757 0.930 . S
H1725 C1758 0.930 . S
H1726 C1756 0.929 . S
H1727 C1759 0.928 . S
O1728 Co1712 2.057 . S
O1728 C1716 1.232 . S
H1729 C1748 0.929 . S
H1730 C1749 0.929 . S
H1731 C1761 0.931 . S
H1732 C1753 0.929 . S
H1733 C1762 0.930 . S
H1734 C1754 0.931 . S
O1735 Co1711 2.097 . S
O1735 C1763 1.214 . S
H1736 C1764 0.929 . S
H1737 C1765 0.929 . S
H1738 C1766 0.930 . S
H1739 C1767 0.929 . S
H1740 C1769 0.930 . S
H1741 C1746 0.930 . S
H1742 C1750 0.930 . S
O1743 Co1712 2.037 . S
O1743 C1763 1.234 . S
C1744 O1718 1.269 . S
C1744 O1719 1.257 . S
C1745 H1720 0.930 . S
C1745 C1748 1.388 . S
C1745 C1750 1.418 . S
C1746 H1741 0.930 . S
C1746 C1749 1.404 . S
C1746 C1750 1.353 . S
N1747 Co1712 2.145 . S
N1747 C1748 1.397 . S
N1747 C1749 1.334 . S
C1748 H1729 0.929 . S
C1748 C1745 1.388 . S
C1748 N1747 1.397 . S
C1749 H1730 0.929 . S
C1749 C1746 1.404 . S
C1749 N1747 1.334 . S
C1750 H1742 0.930 . S
C1750 C1745 1.418 . S
C1750 C1746 1.353 . S
C1751 H1721 0.930 . S
C1751 N1752 1.330 . S
C1751 C1753 1.446 . S
N1752 Co1711 2.151 . S
N1752 C1751 1.330 . S
N1752 C1756 1.418 . S
C1753 H1732 0.929 . S
C1753 C1751 1.446 . S
C1753 C1754 1.332 . S
C1754 H1734 0.931 . S
C1754 C1753 1.332 . S
C1754 C1755 1.267 . S
C1755 H1723 0.929 . S
C1755 C1754 1.267 . S
C1755 C1756 1.251 . S
C1756 H1726 0.929 . S
C1756 N1752 1.418 . S
C1756 C1755 1.251 . S
C1757 H1724 0.930 . S
C1757 C1759 1.406 . S
C1757 C1762 1.261 . S
C1758 H1725 0.930 . S
C1758 N1760 1.325 . S
C1758 C1761 1.357 . S
C1759 H1727 0.928 . S
C1759 C1757 1.406 . S
C1759 N1760 1.261 . S
N1760 Co1711 2.214 . S
N1760 C1758 1.325 . S
N1760 C1759 1.261 . S
C1761 H1731 0.931 . S
C1761 C1758 1.357 . S
C1761 C1762 1.312 . S
C1762 H1733 0.930 . S
C1762 C1757 1.261 . S
C1762 C1761 1.312 . S
C1763 O1735 1.214 . S
C1763 O1743 1.234 . S
C1764 H1736 0.929 . S
C1764 C1767 1.391 . S
C1764 C1769 1.391 . S
C1765 H1737 0.929 . S
C1765 C1766 1.390 . S
C1765 N1768 1.391 . S
C1766 H1738 0.930 . S
C1766 C1765 1.390 . S
C1766 C1767 1.392 . S
C1767 H1739 0.929 . S
C1767 C1764 1.391 . S
C1767 C1766 1.392 . S
N1768 Co1712 2.257 . S
N1768 C1765 1.391 . S
N1768 C1769 1.388 . S
C1769 H1740 0.930 . S
C1769 C1764 1.391 . S
C1769 N1768 1.388 . S
Co1770 O1772 2.143 . S
Co1770 O1778 2.074 . S
Co1770 O1781 2.093 . S
Co1770 O1794 2.097 . S
Co1770 N1811 2.151 . S
Co1770 N1819 2.214 . S
Co1771 O1772 2.160 . S
Co1771 O1777 2.058 . S
Co1771 O1787 2.057 . S
Co1771 O1802 2.037 . S
Co1771 N1806 2.145 . S
Co1771 N1827 2.257 . S
O1772 Co1770 2.143 . S
O1772 Co1771 2.160 . S
C1773 O1774 1.278 . S
C1773 O1781 1.224 . S
O1774 C1773 1.278 . S
C1775 O1776 1.245 . S
C1775 O1787 1.232 . S
O1776 C1775 1.245 . S
O1777 Co1771 2.058 . S
O1777 C1803 1.269 . S
O1778 Co1770 2.074 . S
O1778 C1803 1.257 . S
H1779 C1804 0.930 . S
H1780 C1810 0.930 . S
O1781 Co1770 2.093 . S
O1781 C1773 1.224 . S
H1782 C1814 0.929 . S
H1783 C1816 0.930 . S
H1784 C1817 0.930 . S
H1785 C1815 0.929 . S
H1786 C1818 0.928 . S
O1787 Co1771 2.057 . S
O1787 C1775 1.232 . S
H1788 C1807 0.929 . S
H1789 C1808 0.929 . S
H1790 C1820 0.931 . S
H1791 C1812 0.929 . S
H1792 C1821 0.930 . S
H1793 C1813 0.931 . S
O1794 Co1770 2.097 . S
O1794 C1822 1.214 . S
H1795 C1823 0.929 . S
H1796 C1824 0.929 . S
H1797 C1825 0.930 . S
H1798 C1826 0.929 . S
H1799 C1828 0.930 . S
H1800 C1805 0.930 . S
H1801 C1809 0.930 . S
O1802 Co1771 2.037 . S
O1802 C1822 1.234 . S
C1803 O1777 1.269 . S
C1803 O1778 1.257 . S
C1804 H1779 0.930 . S
C1804 C1807 1.388 . S
C1804 C1809 1.418 . S
C1805 H1800 0.930 . S
C1805 C1808 1.404 . S
C1805 C1809 1.353 . S
N1806 Co1771 2.145 . S
N1806 C1807 1.397 . S
N1806 C1808 1.334 . S
C1807 H1788 0.929 . S
C1807 C1804 1.388 . S
C1807 N1806 1.397 . S
C1808 H1789 0.929 . S
C1808 C1805 1.404 . S
C1808 N1806 1.334 . S
C1809 H1801 0.930 . S
C1809 C1804 1.418 . S
C1809 C1805 1.353 . S
C1810 H1780 0.930 . S
C1810 N1811 1.330 . S
C1810 C1812 1.446 . S
N1811 Co1770 2.151 . S
N1811 C1810 1.330 . S
N1811 C1815 1.418 . S
C1812 H1791 0.929 . S
C1812 C1810 1.446 . S
C1812 C1813 1.332 . S
C1813 H1793 0.931 . S
C1813 C1812 1.332 . S
C1813 C1814 1.267 . S
C1814 H1782 0.929 . S
C1814 C1813 1.267 . S
C1814 C1815 1.251 . S
C1815 H1785 0.929 . S
C1815 N1811 1.418 . S
C1815 C1814 1.251 . S
C1816 H1783 0.930 . S
C1816 C1818 1.406 . S
C1816 C1821 1.261 . S
C1817 H1784 0.930 . S
C1817 N1819 1.325 . S
C1817 C1820 1.357 . S
C1818 H1786 0.928 . S
C1818 C1816 1.406 . S
C1818 N1819 1.261 . S
N1819 Co1770 2.214 . S
N1819 C1817 1.325 . S
N1819 C1818 1.261 . S
C1820 H1790 0.931 . S
C1820 C1817 1.357 . S
C1820 C1821 1.312 . S
C1821 H1792 0.930 . S
C1821 C1816 1.261 . S
C1821 C1820 1.312 . S
C1822 O1794 1.214 . S
C1822 O1802 1.234 . S
C1823 H1795 0.929 . S
C1823 C1826 1.391 . S
C1823 C1828 1.391 . S
C1824 H1796 0.929 . S
C1824 C1825 1.390 . S
C1824 N1827 1.391 . S
C1825 H1797 0.930 . S
C1825 C1824 1.390 . S
C1825 C1826 1.392 . S
C1826 H1798 0.929 . S
C1826 C1823 1.391 . S
C1826 C1825 1.392 . S
N1827 Co1771 2.257 . S
N1827 C1824 1.391 . S
N1827 C1828 1.388 . S
C1828 H1799 0.930 . S
C1828 C1823 1.391 . S
C1828 N1827 1.388 . S
Co1829 O1831 2.143 . S
Co1829 O1837 2.074 . S
Co1829 O1840 2.093 . S
Co1829 O1853 2.097 . S
Co1829 N1870 2.151 . S
Co1829 N1878 2.214 . S
Co1830 O1831 2.160 . S
Co1830 O1836 2.058 . S
Co1830 O1846 2.057 . S
Co1830 O1861 2.037 . S
Co1830 N1865 2.145 . S
Co1830 N1886 2.257 . S
O1831 Co1829 2.143 . S
O1831 Co1830 2.160 . S
C1832 O1833 1.278 . S
C1832 O1840 1.224 . S
O1833 C1832 1.278 . S
C1834 O1835 1.245 . S
C1834 O1846 1.232 . S
O1835 C1834 1.245 . S
O1836 Co1830 2.058 . S
O1836 C1862 1.269 . S
O1837 Co1829 2.074 . S
O1837 C1862 1.257 . S
H1838 C1863 0.930 . S
H1839 C1869 0.930 . S
O1840 Co1829 2.093 . S
O1840 C1832 1.224 . S
H1841 C1873 0.929 . S
H1842 C1875 0.930 . S
H1843 C1876 0.930 . S
H1844 C1874 0.929 . S
H1845 C1877 0.928 . S
O1846 Co1830 2.057 . S
O1846 C1834 1.232 . S
H1847 C1866 0.929 . S
H1848 C1867 0.929 . S
H1849 C1879 0.931 . S
H1850 C1871 0.929 . S
H1851 C1880 0.930 . S
H1852 C1872 0.931 . S
O1853 Co1829 2.097 . S
O1853 C1881 1.214 . S
H1854 C1882 0.929 . S
H1855 C1883 0.929 . S
H1856 C1884 0.930 . S
H1857 C1885 0.929 . S
H1858 C1887 0.930 . S
H1859 C1864 0.930 . S
H1860 C1868 0.930 . S
O1861 Co1830 2.037 . S
O1861 C1881 1.234 . S
C1862 O1836 1.269 . S
C1862 O1837 1.257 . S
C1863 H1838 0.930 . S
C1863 C1866 1.388 . S
C1863 C1868 1.418 . S
C1864 H1859 0.930 . S
C1864 C1867 1.404 . S
C1864 C1868 1.353 . S
N1865 Co1830 2.145 . S
N1865 C1866 1.397 . S
N1865 C1867 1.334 . S
C1866 H1847 0.929 . S
C1866 C1863 1.388 . S
C1866 N1865 1.397 . S
C1867 H1848 0.929 . S
C1867 C1864 1.404 . S
C1867 N1865 1.334 . S
C1868 H1860 0.930 . S
C1868 C1863 1.418 . S
C1868 C1864 1.353 . S
C1869 H1839 0.930 . S
C1869 N1870 1.330 . S
C1869 C1871 1.446 . S
N1870 Co1829 2.151 . S
N1870 C1869 1.330 . S
N1870 C1874 1.418 . S
C1871 H1850 0.929 . S
C1871 C1869 1.446 . S
C1871 C1872 1.332 . S
C1872 H1852 0.931 . S
C1872 C1871 1.332 . S
C1872 C1873 1.267 . S
C1873 H1841 0.929 . S
C1873 C1872 1.267 . S
C1873 C1874 1.251 . S
C1874 H1844 0.929 . S
C1874 N1870 1.418 . S
C1874 C1873 1.251 . S
C1875 H1842 0.930 . S
C1875 C1877 1.406 . S
C1875 C1880 1.261 . S
C1876 H1843 0.930 . S
C1876 N1878 1.325 . S
C1876 C1879 1.357 . S
C1877 H1845 0.928 . S
C1877 C1875 1.406 . S
C1877 N1878 1.261 . S
N1878 Co1829 2.214 . S
N1878 C1876 1.325 . S
N1878 C1877 1.261 . S
C1879 H1849 0.931 . S
C1879 C1876 1.357 . S
C1879 C1880 1.312 . S
C1880 H1851 0.930 . S
C1880 C1875 1.261 . S
C1880 C1879 1.312 . S
C1881 O1853 1.214 . S
C1881 O1861 1.234 . S
C1882 H1854 0.929 . S
C1882 C1885 1.391 . S
C1882 C1887 1.391 . S
C1883 H1855 0.929 . S
C1883 C1884 1.390 . S
C1883 N1886 1.391 . S
C1884 H1856 0.930 . S
C1884 C1883 1.390 . S
C1884 C1885 1.392 . S
C1885 H1857 0.929 . S
C1885 C1882 1.391 . S
C1885 C1884 1.392 . S
N1886 Co1830 2.257 . S
N1886 C1883 1.391 . S
N1886 C1887 1.388 . S
C1887 H1858 0.930 . S
C1887 C1882 1.391 . S
C1887 N1886 1.388 . S
Co1888 O1890 2.143 . S
Co1888 O1896 2.074 . S
Co1888 O1899 2.093 . S
Co1888 O1912 2.097 . S
Co1888 N1929 2.151 . S
Co1888 N1937 2.214 . S
Co1889 O1890 2.160 . S
Co1889 O1895 2.058 . S
Co1889 O1905 2.057 . S
Co1889 O1920 2.037 . S
Co1889 N1924 2.145 . S
Co1889 N1945 2.257 . S
O1890 Co1888 2.143 . S
O1890 Co1889 2.160 . S
C1891 O1892 1.278 . S
C1891 O1899 1.224 . S
O1892 C1891 1.278 . S
C1893 O1894 1.245 . S
C1893 O1905 1.232 . S
O1894 C1893 1.245 . S
O1895 Co1889 2.058 . S
O1895 C1921 1.269 . S
O1896 Co1888 2.074 . S
O1896 C1921 1.257 . S
H1897 C1922 0.930 . S
H1898 C1928 0.930 . S
O1899 Co1888 2.093 . S
O1899 C1891 1.224 . S
H1900 C1932 0.929 . S
H1901 C1934 0.930 . S
H1902 C1935 0.930 . S
H1903 C1933 0.929 . S
H1904 C1936 0.928 . S
O1905 Co1889 2.057 . S
O1905 C1893 1.232 . S
H1906 C1925 0.929 . S
H1907 C1926 0.929 . S
H1908 C1938 0.931 . S
H1909 C1930 0.929 . S
H1910 C1939 0.930 . S
H1911 C1931 0.931 . S
O1912 Co1888 2.097 . S
O1912 C1940 1.214 . S
H1913 C1941 0.929 . S
H1914 C1942 0.929 . S
H1915 C1943 0.930 . S
H1916 C1944 0.929 . S
H1917 C1946 0.930 . S
H1918 C1923 0.930 . S
H1919 C1927 0.930 . S
O1920 Co1889 2.037 . S
O1920 C1940 1.234 . S
C1921 O1895 1.269 . S
C1921 O1896 1.257 . S
C1922 H1897 0.930 . S
C1922 C1925 1.388 . S
C1922 C1927 1.418 . S
C1923 H1918 0.930 . S
C1923 C1926 1.404 . S
C1923 C1927 1.353 . S
N1924 Co1889 2.145 . S
N1924 C1925 1.397 . S
N1924 C1926 1.334 . S
C1925 H1906 0.929 . S
C1925 C1922 1.388 . S
C1925 N1924 1.397 . S
C1926 H1907 0.929 . S
C1926 C1923 1.404 . S
C1926 N1924 1.334 . S
C1927 H1919 0.930 . S
C1927 C1922 1.418 . S
C1927 C1923 1.353 . S
C1928 H1898 0.930 . S
C1928 N1929 1.330 . S
C1928 C1930 1.446 . S
N1929 Co1888 2.151 . S
N1929 C1928 1.330 . S
N1929 C1933 1.418 . S
C1930 H1909 0.929 . S
C1930 C1928 1.446 . S
C1930 C1931 1.332 . S
C1931 H1911 0.931 . S
C1931 C1930 1.332 . S
C1931 C1932 1.267 . S
C1932 H1900 0.929 . S
C1932 C1931 1.267 . S
C1932 C1933 1.251 . S
C1933 H1903 0.929 . S
C1933 N1929 1.418 . S
C1933 C1932 1.251 . S
C1934 H1901 0.930 . S
C1934 C1936 1.406 . S
C1934 C1939 1.261 . S
C1935 H1902 0.930 . S
C1935 N1937 1.325 . S
C1935 C1938 1.357 . S
C1936 H1904 0.928 . S
C1936 C1934 1.406 . S
C1936 N1937 1.261 . S
N1937 Co1888 2.214 . S
N1937 C1935 1.325 . S
N1937 C1936 1.261 . S
C1938 H1908 0.931 . S
C1938 C1935 1.357 . S
C1938 C1939 1.312 . S
C1939 H1910 0.930 . S
C1939 C1934 1.261 . S
C1939 C1938 1.312 . S
C1940 O1912 1.214 . S
C1940 O1920 1.234 . S
C1941 H1913 0.929 . S
C1941 C1944 1.391 . S
C1941 C1946 1.391 . S
C1942 H1914 0.929 . S
C1942 C1943 1.390 . S
C1942 N1945 1.391 . S
C1943 H1915 0.930 . S
C1943 C1942 1.390 . S
C1943 C1944 1.392 . S
C1944 H1916 0.929 . S
C1944 C1941 1.391 . S
C1944 C1943 1.392 . S
N1945 Co1889 2.257 . S
N1945 C1942 1.391 . S
N1945 C1946 1.388 . S
C1946 H1917 0.930 . S
C1946 C1941 1.391 . S
C1946 N1945 1.388 . S
Co1947 O1949 2.143 . S
Co1947 O1955 2.074 . S
Co1947 O1958 2.093 . S
Co1947 O1971 2.097 . S
Co1947 N1988 2.151 . S
Co1947 N1996 2.214 . S
Co1948 O1949 2.160 . S
Co1948 O1954 2.058 . S
Co1948 O1964 2.057 . S
Co1948 O1979 2.037 . S
Co1948 N1983 2.145 . S
Co1948 N2004 2.257 . S
O1949 Co1947 2.143 . S
O1949 Co1948 2.160 . S
C1950 O1951 1.278 . S
C1950 O1958 1.224 . S
O1951 C1950 1.278 . S
C1952 O1953 1.245 . S
C1952 O1964 1.232 . S
O1953 C1952 1.245 . S
O1954 Co1948 2.058 . S
O1954 C1980 1.269 . S
O1955 Co1947 2.074 . S
O1955 C1980 1.257 . S
H1956 C1981 0.930 . S
H1957 C1987 0.930 . S
O1958 Co1947 2.093 . S
O1958 C1950 1.224 . S
H1959 C1991 0.929 . S
H1960 C1993 0.930 . S
H1961 C1994 0.930 . S
H1962 C1992 0.929 . S
H1963 C1995 0.928 . S
O1964 Co1948 2.057 . S
O1964 C1952 1.232 . S
H1965 C1984 0.929 . S
H1966 C1985 0.929 . S
H1967 C1997 0.931 . S
H1968 C1989 0.929 . S
H1969 C1998 0.930 . S
H1970 C1990 0.931 . S
O1971 Co1947 2.097 . S
O1971 C1999 1.214 . S
H1972 C2000 0.929 . S
H1973 C2001 0.929 . S
H1974 C2002 0.930 . S
H1975 C2003 0.929 . S
H1976 C2005 0.930 . S
H1977 C1982 0.930 . S
H1978 C1986 0.930 . S
O1979 Co1948 2.037 . S
O1979 C1999 1.234 . S
C1980 O1954 1.269 . S
C1980 O1955 1.257 . S
C1981 H1956 0.930 . S
C1981 C1984 1.388 . S
C1981 C1986 1.418 . S
C1982 H1977 0.930 . S
C1982 C1985 1.404 . S
C1982 C1986 1.353 . S
N1983 Co1948 2.145 . S
N1983 C1984 1.397 . S
N1983 C1985 1.334 . S
C1984 H1965 0.929 . S
C1984 C1981 1.388 . S
C1984 N1983 1.397 . S
C1985 H1966 0.929 . S
C1985 C1982 1.404 . S
C1985 N1983 1.334 . S
C1986 H1978 0.930 . S
C1986 C1981 1.418 . S
C1986 C1982 1.353 . S
C1987 H1957 0.930 . S
C1987 N1988 1.330 . S
C1987 C1989 1.446 . S
N1988 Co1947 2.151 . S
N1988 C1987 1.330 . S
N1988 C1992 1.418 . S
C1989 H1968 0.929 . S
C1989 C1987 1.446 . S
C1989 C1990 1.332 . S
C1990 H1970 0.931 . S
C1990 C1989 1.332 . S
C1990 C1991 1.267 . S
C1991 H1959 0.929 . S
C1991 C1990 1.267 . S
C1991 C1992 1.251 . S
C1992 H1962 0.929 . S
C1992 N1988 1.418 . S
C1992 C1991 1.251 . S
C1993 H1960 0.930 . S
C1993 C1995 1.406 . S
C1993 C1998 1.261 . S
C1994 H1961 0.930 . S
C1994 N1996 1.325 . S
C1994 C1997 1.357 . S
C1995 H1963 0.928 . S
C1995 C1993 1.406 . S
C1995 N1996 1.261 . S
N1996 Co1947 2.214 . S
N1996 C1994 1.325 . S
N1996 C1995 1.261 . S
C1997 H1967 0.931 . S
C1997 C1994 1.357 . S
C1997 C1998 1.312 . S
C1998 H1969 0.930 . S
C1998 C1993 1.261 . S
C1998 C1997 1.312 . S
C1999 O1971 1.214 . S
C1999 O1979 1.234 . S
C2000 H1972 0.929 . S
C2000 C2003 1.391 . S
C2000 C2005 1.391 . S
C2001 H1973 0.929 . S
C2001 C2002 1.390 . S
C2001 N2004 1.391 . S
C2002 H1974 0.930 . S
C2002 C2001 1.390 . S
C2002 C2003 1.392 . S
C2003 H1975 0.929 . S
C2003 C2000 1.391 . S
C2003 C2002 1.392 . S
N2004 Co1948 2.257 . S
N2004 C2001 1.391 . S
N2004 C2005 1.388 . S
C2005 H1976 0.930 . S
C2005 C2000 1.391 . S
C2005 N2004 1.388 . S
Co2006 O2008 2.143 . S
Co2006 O2014 2.074 . S
Co2006 O2017 2.093 . S
Co2006 O2030 2.097 . S
Co2006 N2047 2.151 . S
Co2006 N2055 2.214 . S
Co2007 O2008 2.160 . S
Co2007 O2013 2.058 . S
Co2007 O2023 2.057 . S
Co2007 O2038 2.037 . S
Co2007 N2042 2.145 . S
Co2007 N2063 2.257 . S
O2008 Co2006 2.143 . S
O2008 Co2007 2.160 . S
C2009 O2010 1.278 . S
C2009 O2017 1.224 . S
O2010 C2009 1.278 . S
C2011 O2012 1.245 . S
C2011 O2023 1.232 . S
O2012 C2011 1.245 . S
O2013 Co2007 2.058 . S
O2013 C2039 1.269 . S
O2014 Co2006 2.074 . S
O2014 C2039 1.257 . S
H2015 C2040 0.930 . S
H2016 C2046 0.930 . S
O2017 Co2006 2.093 . S
O2017 C2009 1.224 . S
H2018 C2050 0.929 . S
H2019 C2052 0.930 . S
H2020 C2053 0.930 . S
H2021 C2051 0.929 . S
H2022 C2054 0.928 . S
O2023 Co2007 2.057 . S
O2023 C2011 1.232 . S
H2024 C2043 0.929 . S
H2025 C2044 0.929 . S
H2026 C2056 0.931 . S
H2027 C2048 0.929 . S
H2028 C2057 0.930 . S
H2029 C2049 0.931 . S
O2030 Co2006 2.097 . S
O2030 C2058 1.214 . S
H2031 C2059 0.929 . S
H2032 C2060 0.929 . S
H2033 C2061 0.930 . S
H2034 C2062 0.929 . S
H2035 C2064 0.930 . S
H2036 C2041 0.930 . S
H2037 C2045 0.930 . S
O2038 Co2007 2.037 . S
O2038 C2058 1.234 . S
C2039 O2013 1.269 . S
C2039 O2014 1.257 . S
C2040 H2015 0.930 . S
C2040 C2043 1.388 . S
C2040 C2045 1.418 . S
C2041 H2036 0.930 . S
C2041 C2044 1.404 . S
C2041 C2045 1.353 . S
N2042 Co2007 2.145 . S
N2042 C2043 1.397 . S
N2042 C2044 1.334 . S
C2043 H2024 0.929 . S
C2043 C2040 1.388 . S
C2043 N2042 1.397 . S
C2044 H2025 0.929 . S
C2044 C2041 1.404 . S
C2044 N2042 1.334 . S
C2045 H2037 0.930 . S
C2045 C2040 1.418 . S
C2045 C2041 1.353 . S
C2046 H2016 0.930 . S
C2046 N2047 1.330 . S
C2046 C2048 1.446 . S
N2047 Co2006 2.151 . S
N2047 C2046 1.330 . S
N2047 C2051 1.418 . S
C2048 H2027 0.929 . S
C2048 C2046 1.446 . S
C2048 C2049 1.332 . S
C2049 H2029 0.931 . S
C2049 C2048 1.332 . S
C2049 C2050 1.267 . S
C2050 H2018 0.929 . S
C2050 C2049 1.267 . S
C2050 C2051 1.251 . S
C2051 H2021 0.929 . S
C2051 N2047 1.418 . S
C2051 C2050 1.251 . S
C2052 H2019 0.930 . S
C2052 C2054 1.406 . S
C2052 C2057 1.261 . S
C2053 H2020 0.930 . S
C2053 N2055 1.325 . S
C2053 C2056 1.357 . S
C2054 H2022 0.928 . S
C2054 C2052 1.406 . S
C2054 N2055 1.261 . S
N2055 Co2006 2.214 . S
N2055 C2053 1.325 . S
N2055 C2054 1.261 . S
C2056 H2026 0.931 . S
C2056 C2053 1.357 . S
C2056 C2057 1.312 . S
C2057 H2028 0.930 . S
C2057 C2052 1.261 . S
C2057 C2056 1.312 . S
C2058 O2030 1.214 . S
C2058 O2038 1.234 . S
C2059 H2031 0.929 . S
C2059 C2062 1.391 . S
C2059 C2064 1.391 . S
C2060 H2032 0.929 . S
C2060 C2061 1.390 . S
C2060 N2063 1.391 . S
C2061 H2033 0.930 . S
C2061 C2060 1.390 . S
C2061 C2062 1.392 . S
C2062 H2034 0.929 . S
C2062 C2059 1.391 . S
C2062 C2061 1.392 . S
N2063 Co2007 2.257 . S
N2063 C2060 1.391 . S
N2063 C2064 1.388 . S
C2064 H2035 0.930 . S
C2064 C2059 1.391 . S
C2064 N2063 1.388 . S
Co2065 O2067 2.143 . S
Co2065 O2073 2.074 . S
Co2065 O2076 2.093 . S
Co2065 O2089 2.097 . S
Co2065 N2106 2.151 . S
Co2065 N2114 2.214 . S
Co2066 O2067 2.160 . S
Co2066 O2072 2.058 . S
Co2066 O2082 2.057 . S
Co2066 O2097 2.037 . S
Co2066 N2101 2.145 . S
Co2066 N2122 2.257 . S
O2067 Co2065 2.143 . S
O2067 Co2066 2.160 . S
C2068 O2069 1.278 . S
C2068 O2076 1.224 . S
O2069 C2068 1.278 . S
C2070 O2071 1.245 . S
C2070 O2082 1.232 . S
O2071 C2070 1.245 . S
O2072 Co2066 2.058 . S
O2072 C2098 1.269 . S
O2073 Co2065 2.074 . S
O2073 C2098 1.257 . S
H2074 C2099 0.930 . S
H2075 C2105 0.930 . S
O2076 Co2065 2.093 . S
O2076 C2068 1.224 . S
H2077 C2109 0.929 . S
H2078 C2111 0.930 . S
H2079 C2112 0.930 . S
H2080 C2110 0.929 . S
H2081 C2113 0.928 . S
O2082 Co2066 2.057 . S
O2082 C2070 1.232 . S
H2083 C2102 0.929 . S
H2084 C2103 0.929 . S
H2085 C2115 0.931 . S
H2086 C2107 0.929 . S
H2087 C2116 0.930 . S
H2088 C2108 0.931 . S
O2089 Co2065 2.097 . S
O2089 C2117 1.214 . S
H2090 C2118 0.929 . S
H2091 C2119 0.929 . S
H2092 C2120 0.930 . S
H2093 C2121 0.929 . S
H2094 C2123 0.930 . S
H2095 C2100 0.930 . S
H2096 C2104 0.930 . S
O2097 Co2066 2.037 . S
O2097 C2117 1.234 . S
C2098 O2072 1.269 . S
C2098 O2073 1.257 . S
C2099 H2074 0.930 . S
C2099 C2102 1.388 . S
C2099 C2104 1.418 . S
C2100 H2095 0.930 . S
C2100 C2103 1.404 . S
C2100 C2104 1.353 . S
N2101 Co2066 2.145 . S
N2101 C2102 1.397 . S
N2101 C2103 1.334 . S
C2102 H2083 0.929 . S
C2102 C2099 1.388 . S
C2102 N2101 1.397 . S
C2103 H2084 0.929 . S
C2103 C2100 1.404 . S
C2103 N2101 1.334 . S
C2104 H2096 0.930 . S
C2104 C2099 1.418 . S
C2104 C2100 1.353 . S
C2105 H2075 0.930 . S
C2105 N2106 1.330 . S
C2105 C2107 1.446 . S
N2106 Co2065 2.151 . S
N2106 C2105 1.330 . S
N2106 C2110 1.418 . S
C2107 H2086 0.929 . S
C2107 C2105 1.446 . S
C2107 C2108 1.332 . S
C2108 H2088 0.931 . S
C2108 C2107 1.332 . S
C2108 C2109 1.267 . S
C2109 H2077 0.929 . S
C2109 C2108 1.267 . S
C2109 C2110 1.251 . S
C2110 H2080 0.929 . S
C2110 N2106 1.418 . S
C2110 C2109 1.251 . S
C2111 H2078 0.930 . S
C2111 C2113 1.406 . S
C2111 C2116 1.261 . S
C2112 H2079 0.930 . S
C2112 N2114 1.325 . S
C2112 C2115 1.357 . S
C2113 H2081 0.928 . S
C2113 C2111 1.406 . S
C2113 N2114 1.261 . S
N2114 Co2065 2.214 . S
N2114 C2112 1.325 . S
N2114 C2113 1.261 . S
C2115 H2085 0.931 . S
C2115 C2112 1.357 . S
C2115 C2116 1.312 . S
C2116 H2087 0.930 . S
C2116 C2111 1.261 . S
C2116 C2115 1.312 . S
C2117 O2089 1.214 . S
C2117 O2097 1.234 . S
C2118 H2090 0.929 . S
C2118 C2121 1.391 . S
C2118 C2123 1.391 . S
C2119 H2091 0.929 . S
C2119 C2120 1.390 . S
C2119 N2122 1.391 . S
C2120 H2092 0.930 . S
C2120 C2119 1.390 . S
C2120 C2121 1.392 . S
C2121 H2093 0.929 . S
C2121 C2118 1.391 . S
C2121 C2120 1.392 . S
N2122 Co2066 2.257 . S
N2122 C2119 1.391 . S
N2122 C2123 1.388 . S
C2123 H2094 0.930 . S
C2123 C2118 1.391 . S
C2123 N2122 1.388 . S
Co2124 O2126 2.143 . S
Co2124 O2132 2.074 . S
Co2124 O2135 2.093 . S
Co2124 O2148 2.097 . S
Co2124 N2165 2.151 . S
Co2124 N2173 2.214 . S
Co2125 O2126 2.160 . S
Co2125 O2131 2.058 . S
Co2125 O2141 2.057 . S
Co2125 O2156 2.037 . S
Co2125 N2160 2.145 . S
Co2125 N2181 2.257 . S
O2126 Co2124 2.143 . S
O2126 Co2125 2.160 . S
C2127 O2128 1.278 . S
C2127 O2135 1.224 . S
O2128 C2127 1.278 . S
C2129 O2130 1.245 . S
C2129 O2141 1.232 . S
O2130 C2129 1.245 . S
O2131 Co2125 2.058 . S
O2131 C2157 1.269 . S
O2132 Co2124 2.074 . S
O2132 C2157 1.257 . S
H2133 C2158 0.930 . S
H2134 C2164 0.930 . S
O2135 Co2124 2.093 . S
O2135 C2127 1.224 . S
H2136 C2168 0.929 . S
H2137 C2170 0.930 . S
H2138 C2171 0.930 . S
H2139 C2169 0.929 . S
H2140 C2172 0.928 . S
O2141 Co2125 2.057 . S
O2141 C2129 1.232 . S
H2142 C2161 0.929 . S
H2143 C2162 0.929 . S
H2144 C2174 0.931 . S
H2145 C2166 0.929 . S
H2146 C2175 0.930 . S
H2147 C2167 0.931 . S
O2148 Co2124 2.097 . S
O2148 C2176 1.214 . S
H2149 C2177 0.929 . S
H2150 C2178 0.929 . S
H2151 C2179 0.930 . S
H2152 C2180 0.929 . S
H2153 C2182 0.930 . S
H2154 C2159 0.930 . S
H2155 C2163 0.930 . S
O2156 Co2125 2.037 . S
O2156 C2176 1.234 . S
C2157 O2131 1.269 . S
C2157 O2132 1.257 . S
C2158 H2133 0.930 . S
C2158 C2161 1.388 . S
C2158 C2163 1.418 . S
C2159 H2154 0.930 . S
C2159 C2162 1.404 . S
C2159 C2163 1.353 . S
N2160 Co2125 2.145 . S
N2160 C2161 1.397 . S
N2160 C2162 1.334 . S
C2161 H2142 0.929 . S
C2161 C2158 1.388 . S
C2161 N2160 1.397 . S
C2162 H2143 0.929 . S
C2162 C2159 1.404 . S
C2162 N2160 1.334 . S
C2163 H2155 0.930 . S
C2163 C2158 1.418 . S
C2163 C2159 1.353 . S
C2164 H2134 0.930 . S
C2164 N2165 1.330 . S
C2164 C2166 1.446 . S
N2165 Co2124 2.151 . S
N2165 C2164 1.330 . S
N2165 C2169 1.418 . S
C2166 H2145 0.929 . S
C2166 C2164 1.446 . S
C2166 C2167 1.332 . S
C2167 H2147 0.931 . S
C2167 C2166 1.332 . S
C2167 C2168 1.267 . S
C2168 H2136 0.929 . S
C2168 C2167 1.267 . S
C2168 C2169 1.251 . S
C2169 H2139 0.929 . S
C2169 N2165 1.418 . S
C2169 C2168 1.251 . S
C2170 H2137 0.930 . S
C2170 C2172 1.406 . S
C2170 C2175 1.261 . S
C2171 H2138 0.930 . S
C2171 N2173 1.325 . S
C2171 C2174 1.357 . S
C2172 H2140 0.928 . S
C2172 C2170 1.406 . S
C2172 N2173 1.261 . S
N2173 Co2124 2.214 . S
N2173 C2171 1.325 . S
N2173 C2172 1.261 . S
C2174 H2144 0.931 . S
C2174 C2171 1.357 . S
C2174 C2175 1.312 . S
C2175 H2146 0.930 . S
C2175 C2170 1.261 . S
C2175 C2174 1.312 . S
C2176 O2148 1.214 . S
C2176 O2156 1.234 . S
C2177 H2149 0.929 . S
C2177 C2180 1.391 . S
C2177 C2182 1.391 . S
C2178 H2150 0.929 . S
C2178 C2179 1.390 . S
C2178 N2181 1.391 . S
C2179 H2151 0.930 . S
C2179 C2178 1.390 . S
C2179 C2180 1.392 . S
C2180 H2152 0.929 . S
C2180 C2177 1.391 . S
C2180 C2179 1.392 . S
N2181 Co2125 2.257 . S
N2181 C2178 1.391 . S
N2181 C2182 1.388 . S
C2182 H2153 0.930 . S
C2182 C2177 1.391 . S
C2182 N2181 1.388 . S
Co2183 O2185 2.143 . S
Co2183 O2191 2.074 . S
Co2183 O2194 2.093 . S
Co2183 O2207 2.097 . S
Co2183 N2224 2.151 . S
Co2183 N2232 2.214 . S
Co2184 O2185 2.160 . S
Co2184 O2190 2.058 . S
Co2184 O2200 2.057 . S
Co2184 O2215 2.037 . S
Co2184 N2219 2.145 . S
Co2184 N2240 2.257 . S
O2185 Co2183 2.143 . S
O2185 Co2184 2.160 . S
C2186 O2187 1.278 . S
C2186 O2194 1.224 . S
O2187 C2186 1.278 . S
C2188 O2189 1.245 . S
C2188 O2200 1.232 . S
O2189 C2188 1.245 . S
O2190 Co2184 2.058 . S
O2190 C2216 1.269 . S
O2191 Co2183 2.074 . S
O2191 C2216 1.257 . S
H2192 C2217 0.930 . S
H2193 C2223 0.930 . S
O2194 Co2183 2.093 . S
O2194 C2186 1.224 . S
H2195 C2227 0.929 . S
H2196 C2229 0.930 . S
H2197 C2230 0.930 . S
H2198 C2228 0.929 . S
H2199 C2231 0.928 . S
O2200 Co2184 2.057 . S
O2200 C2188 1.232 . S
H2201 C2220 0.929 . S
H2202 C2221 0.929 . S
H2203 C2233 0.931 . S
H2204 C2225 0.929 . S
H2205 C2234 0.930 . S
H2206 C2226 0.931 . S
O2207 Co2183 2.097 . S
O2207 C2235 1.214 . S
H2208 C2236 0.929 . S
H2209 C2237 0.929 . S
H2210 C2238 0.930 . S
H2211 C2239 0.929 . S
H2212 C2241 0.930 . S
H2213 C2218 0.930 . S
H2214 C2222 0.930 . S
O2215 Co2184 2.037 . S
O2215 C2235 1.234 . S
C2216 O2190 1.269 . S
C2216 O2191 1.257 . S
C2217 H2192 0.930 . S
C2217 C2220 1.388 . S
C2217 C2222 1.418 . S
C2218 H2213 0.930 . S
C2218 C2221 1.404 . S
C2218 C2222 1.353 . S
N2219 Co2184 2.145 . S
N2219 C2220 1.397 . S
N2219 C2221 1.334 . S
C2220 H2201 0.929 . S
C2220 C2217 1.388 . S
C2220 N2219 1.397 . S
C2221 H2202 0.929 . S
C2221 C2218 1.404 . S
C2221 N2219 1.334 . S
C2222 H2214 0.930 . S
C2222 C2217 1.418 . S
C2222 C2218 1.353 . S
C2223 H2193 0.930 . S
C2223 N2224 1.330 . S
C2223 C2225 1.446 . S
N2224 Co2183 2.151 . S
N2224 C2223 1.330 . S
N2224 C2228 1.418 . S
C2225 H2204 0.929 . S
C2225 C2223 1.446 . S
C2225 C2226 1.332 . S
C2226 H2206 0.931 . S
C2226 C2225 1.332 . S
C2226 C2227 1.267 . S
C2227 H2195 0.929 . S
C2227 C2226 1.267 . S
C2227 C2228 1.251 . S
C2228 H2198 0.929 . S
C2228 N2224 1.418 . S
C2228 C2227 1.251 . S
C2229 H2196 0.930 . S
C2229 C2231 1.406 . S
C2229 C2234 1.261 . S
C2230 H2197 0.930 . S
C2230 N2232 1.325 . S
C2230 C2233 1.357 . S
C2231 H2199 0.928 . S
C2231 C2229 1.406 . S
C2231 N2232 1.261 . S
N2232 Co2183 2.214 . S
N2232 C2230 1.325 . S
N2232 C2231 1.261 . S
C2233 H2203 0.931 . S
C2233 C2230 1.357 . S
C2233 C2234 1.312 . S
C2234 H2205 0.930 . S
C2234 C2229 1.261 . S
C2234 C2233 1.312 . S
C2235 O2207 1.214 . S
C2235 O2215 1.234 . S
C2236 H2208 0.929 . S
C2236 C2239 1.391 . S
C2236 C2241 1.391 . S
C2237 H2209 0.929 . S
C2237 C2238 1.390 . S
C2237 N2240 1.391 . S
C2238 H2210 0.930 . S
C2238 C2237 1.390 . S
C2238 C2239 1.392 . S
C2239 H2211 0.929 . S
C2239 C2236 1.391 . S
C2239 C2238 1.392 . S
N2240 Co2184 2.257 . S
N2240 C2237 1.391 . S
N2240 C2241 1.388 . S
C2241 H2212 0.930 . S
C2241 C2236 1.391 . S
C2241 N2240 1.388 . S
Co2242 O2244 2.143 . S
Co2242 O2250 2.074 . S
Co2242 O2253 2.093 . S
Co2242 O2266 2.097 . S
Co2242 N2283 2.151 . S
Co2242 N2291 2.214 . S
Co2243 O2244 2.160 . S
Co2243 O2249 2.058 . S
Co2243 O2259 2.057 . S
Co2243 O2274 2.037 . S
Co2243 N2278 2.145 . S
Co2243 N2299 2.257 . S
O2244 Co2242 2.143 . S
O2244 Co2243 2.160 . S
C2245 O2246 1.278 . S
C2245 O2253 1.224 . S
O2246 C2245 1.278 . S
C2247 O2248 1.245 . S
C2247 O2259 1.232 . S
O2248 C2247 1.245 . S
O2249 Co2243 2.058 . S
O2249 C2275 1.269 . S
O2250 Co2242 2.074 . S
O2250 C2275 1.257 . S
H2251 C2276 0.930 . S
H2252 C2282 0.930 . S
O2253 Co2242 2.093 . S
O2253 C2245 1.224 . S
H2254 C2286 0.929 . S
H2255 C2288 0.930 . S
H2256 C2289 0.930 . S
H2257 C2287 0.929 . S
H2258 C2290 0.928 . S
O2259 Co2243 2.057 . S
O2259 C2247 1.232 . S
H2260 C2279 0.929 . S
H2261 C2280 0.929 . S
H2262 C2292 0.931 . S
H2263 C2284 0.929 . S
H2264 C2293 0.930 . S
H2265 C2285 0.931 . S
O2266 Co2242 2.097 . S
O2266 C2294 1.214 . S
H2267 C2295 0.929 . S
H2268 C2296 0.929 . S
H2269 C2297 0.930 . S
H2270 C2298 0.929 . S
H2271 C2300 0.930 . S
H2272 C2277 0.930 . S
H2273 C2281 0.930 . S
O2274 Co2243 2.037 . S
O2274 C2294 1.234 . S
C2275 O2249 1.269 . S
C2275 O2250 1.257 . S
C2276 H2251 0.930 . S
C2276 C2279 1.388 . S
C2276 C2281 1.418 . S
C2277 H2272 0.930 . S
C2277 C2280 1.404 . S
C2277 C2281 1.353 . S
N2278 Co2243 2.145 . S
N2278 C2279 1.397 . S
N2278 C2280 1.334 . S
C2279 H2260 0.929 . S
C2279 C2276 1.388 . S
C2279 N2278 1.397 . S
C2280 H2261 0.929 . S
C2280 C2277 1.404 . S
C2280 N2278 1.334 . S
C2281 H2273 0.930 . S
C2281 C2276 1.418 . S
C2281 C2277 1.353 . S
C2282 H2252 0.930 . S
C2282 N2283 1.330 . S
C2282 C2284 1.446 . S
N2283 Co2242 2.151 . S
N2283 C2282 1.330 . S
N2283 C2287 1.418 . S
C2284 H2263 0.929 . S
C2284 C2282 1.446 . S
C2284 C2285 1.332 . S
C2285 H2265 0.931 . S
C2285 C2284 1.332 . S
C2285 C2286 1.267 . S
C2286 H2254 0.929 . S
C2286 C2285 1.267 . S
C2286 C2287 1.251 . S
C2287 H2257 0.929 . S
C2287 N2283 1.418 . S
C2287 C2286 1.251 . S
C2288 H2255 0.930 . S
C2288 C2290 1.406 . S
C2288 C2293 1.261 . S
C2289 H2256 0.930 . S
C2289 N2291 1.325 . S
C2289 C2292 1.357 . S
C2290 H2258 0.928 . S
C2290 C2288 1.406 . S
C2290 N2291 1.261 . S
N2291 Co2242 2.214 . S
N2291 C2289 1.325 . S
N2291 C2290 1.261 . S
C2292 H2262 0.931 . S
C2292 C2289 1.357 . S
C2292 C2293 1.312 . S
C2293 H2264 0.930 . S
C2293 C2288 1.261 . S
C2293 C2292 1.312 . S
C2294 O2266 1.214 . S
C2294 O2274 1.234 . S
C2295 H2267 0.929 . S
C2295 C2298 1.391 . S
C2295 C2300 1.391 . S
C2296 H2268 0.929 . S
C2296 C2297 1.390 . S
C2296 N2299 1.391 . S
C2297 H2269 0.930 . S
C2297 C2296 1.390 . S
C2297 C2298 1.392 . S
C2298 H2270 0.929 . S
C2298 C2295 1.391 . S
C2298 C2297 1.392 . S
N2299 Co2243 2.257 . S
N2299 C2296 1.391 . S
N2299 C2300 1.388 . S
C2300 H2271 0.930 . S
C2300 C2295 1.391 . S
C2300 N2299 1.388 . S
Co2301 O2303 2.143 . S
Co2301 O2309 2.074 . S
Co2301 O2312 2.093 . S
Co2301 O2325 2.097 . S
Co2301 N2342 2.151 . S
Co2301 N2350 2.214 . S
Co2302 O2303 2.160 . S
Co2302 O2308 2.058 . S
Co2302 O2318 2.057 . S
Co2302 O2333 2.037 . S
Co2302 N2337 2.145 . S
Co2302 N2358 2.257 . S
O2303 Co2301 2.143 . S
O2303 Co2302 2.160 . S
C2304 O2305 1.278 . S
C2304 O2312 1.224 . S
O2305 C2304 1.278 . S
C2306 O2307 1.245 . S
C2306 O2318 1.232 . S
O2307 C2306 1.245 . S
O2308 Co2302 2.058 . S
O2308 C2334 1.269 . S
O2309 Co2301 2.074 . S
O2309 C2334 1.257 . S
H2310 C2335 0.930 . S
H2311 C2341 0.930 . S
O2312 Co2301 2.093 . S
O2312 C2304 1.224 . S
H2313 C2345 0.929 . S
H2314 C2347 0.930 . S
H2315 C2348 0.930 . S
H2316 C2346 0.929 . S
H2317 C2349 0.928 . S
O2318 Co2302 2.057 . S
O2318 C2306 1.232 . S
H2319 C2338 0.929 . S
H2320 C2339 0.929 . S
H2321 C2351 0.931 . S
H2322 C2343 0.929 . S
H2323 C2352 0.930 . S
H2324 C2344 0.931 . S
O2325 Co2301 2.097 . S
O2325 C2353 1.214 . S
H2326 C2354 0.929 . S
H2327 C2355 0.929 . S
H2328 C2356 0.930 . S
H2329 C2357 0.929 . S
H2330 C2359 0.930 . S
H2331 C2336 0.930 . S
H2332 C2340 0.930 . S
O2333 Co2302 2.037 . S
O2333 C2353 1.234 . S
C2334 O2308 1.269 . S
C2334 O2309 1.257 . S
C2335 H2310 0.930 . S
C2335 C2338 1.388 . S
C2335 C2340 1.418 . S
C2336 H2331 0.930 . S
C2336 C2339 1.404 . S
C2336 C2340 1.353 . S
N2337 Co2302 2.145 . S
N2337 C2338 1.397 . S
N2337 C2339 1.334 . S
C2338 H2319 0.929 . S
C2338 C2335 1.388 . S
C2338 N2337 1.397 . S
C2339 H2320 0.929 . S
C2339 C2336 1.404 . S
C2339 N2337 1.334 . S
C2340 H2332 0.930 . S
C2340 C2335 1.418 . S
C2340 C2336 1.353 . S
C2341 H2311 0.930 . S
C2341 N2342 1.330 . S
C2341 C2343 1.446 . S
N2342 Co2301 2.151 . S
N2342 C2341 1.330 . S
N2342 C2346 1.418 . S
C2343 H2322 0.929 . S
C2343 C2341 1.446 . S
C2343 C2344 1.332 . S
C2344 H2324 0.931 . S
C2344 C2343 1.332 . S
C2344 C2345 1.267 . S
C2345 H2313 0.929 . S
C2345 C2344 1.267 . S
C2345 C2346 1.251 . S
C2346 H2316 0.929 . S
C2346 N2342 1.418 . S
C2346 C2345 1.251 . S
C2347 H2314 0.930 . S
C2347 C2349 1.406 . S
C2347 C2352 1.261 . S
C2348 H2315 0.930 . S
C2348 N2350 1.325 . S
C2348 C2351 1.357 . S
C2349 H2317 0.928 . S
C2349 C2347 1.406 . S
C2349 N2350 1.261 . S
N2350 Co2301 2.214 . S
N2350 C2348 1.325 . S
N2350 C2349 1.261 . S
C2351 H2321 0.931 . S
C2351 C2348 1.357 . S
C2351 C2352 1.312 . S
C2352 H2323 0.930 . S
C2352 C2347 1.261 . S
C2352 C2351 1.312 . S
C2353 O2325 1.214 . S
C2353 O2333 1.234 . S
C2354 H2326 0.929 . S
C2354 C2357 1.391 . S
C2354 C2359 1.391 . S
C2355 H2327 0.929 . S
C2355 C2356 1.390 . S
C2355 N2358 1.391 . S
C2356 H2328 0.930 . S
C2356 C2355 1.390 . S
C2356 C2357 1.392 . S
C2357 H2329 0.929 . S
C2357 C2354 1.391 . S
C2357 C2356 1.392 . S
N2358 Co2302 2.257 . S
N2358 C2355 1.391 . S
N2358 C2359 1.388 . S
C2359 H2330 0.930 . S
C2359 C2354 1.391 . S
C2359 N2358 1.388 . S
Co2360 O2362 2.143 . S
Co2360 O2368 2.074 . S
Co2360 O2371 2.093 . S
Co2360 O2384 2.097 . S
Co2360 N2401 2.151 . S
Co2360 N2409 2.214 . S
Co2361 O2362 2.160 . S
Co2361 O2367 2.058 . S
Co2361 O2377 2.057 . S
Co2361 O2392 2.037 . S
Co2361 N2396 2.145 . S
Co2361 N2417 2.257 . S
O2362 Co2360 2.143 . S
O2362 Co2361 2.160 . S
C2363 O2364 1.278 . S
C2363 O2371 1.224 . S
O2364 C2363 1.278 . S
C2365 O2366 1.245 . S
C2365 O2377 1.232 . S
O2366 C2365 1.245 . S
O2367 Co2361 2.058 . S
O2367 C2393 1.269 . S
O2368 Co2360 2.074 . S
O2368 C2393 1.257 . S
H2369 C2394 0.930 . S
H2370 C2400 0.930 . S
O2371 Co2360 2.093 . S
O2371 C2363 1.224 . S
H2372 C2404 0.929 . S
H2373 C2406 0.930 . S
H2374 C2407 0.930 . S
H2375 C2405 0.929 . S
H2376 C2408 0.928 . S
O2377 Co2361 2.057 . S
O2377 C2365 1.232 . S
H2378 C2397 0.929 . S
H2379 C2398 0.929 . S
H2380 C2410 0.931 . S
H2381 C2402 0.929 . S
H2382 C2411 0.930 . S
H2383 C2403 0.931 . S
O2384 Co2360 2.097 . S
O2384 C2412 1.214 . S
H2385 C2413 0.929 . S
H2386 C2414 0.929 . S
H2387 C2415 0.930 . S
H2388 C2416 0.929 . S
H2389 C2418 0.930 . S
H2390 C2395 0.930 . S
H2391 C2399 0.930 . S
O2392 Co2361 2.037 . S
O2392 C2412 1.234 . S
C2393 O2367 1.269 . S
C2393 O2368 1.257 . S
C2394 H2369 0.930 . S
C2394 C2397 1.388 . S
C2394 C2399 1.418 . S
C2395 H2390 0.930 . S
C2395 C2398 1.404 . S
C2395 C2399 1.353 . S
N2396 Co2361 2.145 . S
N2396 C2397 1.397 . S
N2396 C2398 1.334 . S
C2397 H2378 0.929 . S
C2397 C2394 1.388 . S
C2397 N2396 1.397 . S
C2398 H2379 0.929 . S
C2398 C2395 1.404 . S
C2398 N2396 1.334 . S
C2399 H2391 0.930 . S
C2399 C2394 1.418 . S
C2399 C2395 1.353 . S
C2400 H2370 0.930 . S
C2400 N2401 1.330 . S
C2400 C2402 1.446 . S
N2401 Co2360 2.151 . S
N2401 C2400 1.330 . S
N2401 C2405 1.418 . S
C2402 H2381 0.929 . S
C2402 C2400 1.446 . S
C2402 C2403 1.332 . S
C2403 H2383 0.931 . S
C2403 C2402 1.332 . S
C2403 C2404 1.267 . S
C2404 H2372 0.929 . S
C2404 C2403 1.267 . S
C2404 C2405 1.251 . S
C2405 H2375 0.929 . S
C2405 N2401 1.418 . S
C2405 C2404 1.251 . S
C2406 H2373 0.930 . S
C2406 C2408 1.406 . S
C2406 C2411 1.261 . S
C2407 H2374 0.930 . S
C2407 N2409 1.325 . S
C2407 C2410 1.357 . S
C2408 H2376 0.928 . S
C2408 C2406 1.406 . S
C2408 N2409 1.261 . S
N2409 Co2360 2.214 . S
N2409 C2407 1.325 . S
N2409 C2408 1.261 . S
C2410 H2380 0.931 . S
C2410 C2407 1.357 . S
C2410 C2411 1.312 . S
C2411 H2382 0.930 . S
C2411 C2406 1.261 . S
C2411 C2410 1.312 . S
C2412 O2384 1.214 . S
C2412 O2392 1.234 . S
C2413 H2385 0.929 . S
C2413 C2416 1.391 . S
C2413 C2418 1.391 . S
C2414 H2386 0.929 . S
C2414 C2415 1.390 . S
C2414 N2417 1.391 . S
C2415 H2387 0.930 . S
C2415 C2414 1.390 . S
C2415 C2416 1.392 . S
C2416 H2388 0.929 . S
C2416 C2413 1.391 . S
C2416 C2415 1.392 . S
N2417 Co2361 2.257 . S
N2417 C2414 1.391 . S
N2417 C2418 1.388 . S
C2418 H2389 0.930 . S
C2418 C2413 1.391 . S
C2418 N2417 1.388 . S
Co2419 O2421 2.143 . S
Co2419 O2427 2.074 . S
Co2419 O2430 2.093 . S
Co2419 O2443 2.097 . S
Co2419 N2460 2.151 . S
Co2419 N2468 2.214 . S
Co2420 O2421 2.160 . S
Co2420 O2426 2.058 . S
Co2420 O2436 2.057 . S
Co2420 O2451 2.037 . S
Co2420 N2455 2.145 . S
Co2420 N2476 2.257 . S
O2421 Co2419 2.143 . S
O2421 Co2420 2.160 . S
C2422 O2423 1.278 . S
C2422 O2430 1.224 . S
O2423 C2422 1.278 . S
C2424 O2425 1.245 . S
C2424 O2436 1.232 . S
O2425 C2424 1.245 . S
O2426 Co2420 2.058 . S
O2426 C2452 1.269 . S
O2427 Co2419 2.074 . S
O2427 C2452 1.257 . S
H2428 C2453 0.930 . S
H2429 C2459 0.930 . S
O2430 Co2419 2.093 . S
O2430 C2422 1.224 . S
H2431 C2463 0.929 . S
H2432 C2465 0.930 . S
H2433 C2466 0.930 . S
H2434 C2464 0.929 . S
H2435 C2467 0.928 . S
O2436 Co2420 2.057 . S
O2436 C2424 1.232 . S
H2437 C2456 0.929 . S
H2438 C2457 0.929 . S
H2439 C2469 0.931 . S
H2440 C2461 0.929 . S
H2441 C2470 0.930 . S
H2442 C2462 0.931 . S
O2443 Co2419 2.097 . S
O2443 C2471 1.214 . S
H2444 C2472 0.929 . S
H2445 C2473 0.929 . S
H2446 C2474 0.930 . S
H2447 C2475 0.929 . S
H2448 C2477 0.930 . S
H2449 C2454 0.930 . S
H2450 C2458 0.930 . S
O2451 Co2420 2.037 . S
O2451 C2471 1.234 . S
C2452 O2426 1.269 . S
C2452 O2427 1.257 . S
C2453 H2428 0.930 . S
C2453 C2456 1.388 . S
C2453 C2458 1.418 . S
C2454 H2449 0.930 . S
C2454 C2457 1.404 . S
C2454 C2458 1.353 . S
N2455 Co2420 2.145 . S
N2455 C2456 1.397 . S
N2455 C2457 1.334 . S
C2456 H2437 0.929 . S
C2456 C2453 1.388 . S
C2456 N2455 1.397 . S
C2457 H2438 0.929 . S
C2457 C2454 1.404 . S
C2457 N2455 1.334 . S
C2458 H2450 0.930 . S
C2458 C2453 1.418 . S
C2458 C2454 1.353 . S
C2459 H2429 0.930 . S
C2459 N2460 1.330 . S
C2459 C2461 1.446 . S
N2460 Co2419 2.151 . S
N2460 C2459 1.330 . S
N2460 C2464 1.418 . S
C2461 H2440 0.929 . S
C2461 C2459 1.446 . S
C2461 C2462 1.332 . S
C2462 H2442 0.931 . S
C2462 C2461 1.332 . S
C2462 C2463 1.267 . S
C2463 H2431 0.929 . S
C2463 C2462 1.267 . S
C2463 C2464 1.251 . S
C2464 H2434 0.929 . S
C2464 N2460 1.418 . S
C2464 C2463 1.251 . S
C2465 H2432 0.930 . S
C2465 C2467 1.406 . S
C2465 C2470 1.261 . S
C2466 H2433 0.930 . S
C2466 N2468 1.325 . S
C2466 C2469 1.357 . S
C2467 H2435 0.928 . S
C2467 C2465 1.406 . S
C2467 N2468 1.261 . S
N2468 Co2419 2.214 . S
N2468 C2466 1.325 . S
N2468 C2467 1.261 . S
C2469 H2439 0.931 . S
C2469 C2466 1.357 . S
C2469 C2470 1.312 . S
C2470 H2441 0.930 . S
C2470 C2465 1.261 . S
C2470 C2469 1.312 . S
C2471 O2443 1.214 . S
C2471 O2451 1.234 . S
C2472 H2444 0.929 . S
C2472 C2475 1.391 . S
C2472 C2477 1.391 . S
C2473 H2445 0.929 . S
C2473 C2474 1.390 . S
C2473 N2476 1.391 . S
C2474 H2446 0.930 . S
C2474 C2473 1.390 . S
C2474 C2475 1.392 . S
C2475 H2447 0.929 . S
C2475 C2472 1.391 . S
C2475 C2474 1.392 . S
N2476 Co2420 2.257 . S
N2476 C2473 1.391 . S
N2476 C2477 1.388 . S
C2477 H2448 0.930 . S
C2477 C2472 1.391 . S
C2477 N2476 1.388 . S
Co2478 O2480 2.143 . S
Co2478 O2486 2.074 . S
Co2478 O2489 2.093 . S
Co2478 O2502 2.097 . S
Co2478 N2519 2.151 . S
Co2478 N2527 2.214 . S
Co2479 O2480 2.160 . S
Co2479 O2485 2.058 . S
Co2479 O2495 2.057 . S
Co2479 O2510 2.037 . S
Co2479 N2514 2.145 . S
Co2479 N2535 2.257 . S
O2480 Co2478 2.143 . S
O2480 Co2479 2.160 . S
C2481 O2482 1.278 . S
C2481 O2489 1.224 . S
O2482 C2481 1.278 . S
C2483 O2484 1.245 . S
C2483 O2495 1.232 . S
O2484 C2483 1.245 . S
O2485 Co2479 2.058 . S
O2485 C2511 1.269 . S
O2486 Co2478 2.074 . S
O2486 C2511 1.257 . S
H2487 C2512 0.930 . S
H2488 C2518 0.930 . S
O2489 Co2478 2.093 . S
O2489 C2481 1.224 . S
H2490 C2522 0.929 . S
H2491 C2524 0.930 . S
H2492 C2525 0.930 . S
H2493 C2523 0.929 . S
H2494 C2526 0.928 . S
O2495 Co2479 2.057 . S
O2495 C2483 1.232 . S
H2496 C2515 0.929 . S
H2497 C2516 0.929 . S
H2498 C2528 0.931 . S
H2499 C2520 0.929 . S
H2500 C2529 0.930 . S
H2501 C2521 0.931 . S
O2502 Co2478 2.097 . S
O2502 C2530 1.214 . S
H2503 C2531 0.929 . S
H2504 C2532 0.929 . S
H2505 C2533 0.930 . S
H2506 C2534 0.929 . S
H2507 C2536 0.930 . S
H2508 C2513 0.930 . S
H2509 C2517 0.930 . S
O2510 Co2479 2.037 . S
O2510 C2530 1.234 . S
C2511 O2485 1.269 . S
C2511 O2486 1.257 . S
C2512 H2487 0.930 . S
C2512 C2515 1.388 . S
C2512 C2517 1.418 . S
C2513 H2508 0.930 . S
C2513 C2516 1.404 . S
C2513 C2517 1.353 . S
N2514 Co2479 2.145 . S
N2514 C2515 1.397 . S
N2514 C2516 1.334 . S
C2515 H2496 0.929 . S
C2515 C2512 1.388 . S
C2515 N2514 1.397 . S
C2516 H2497 0.929 . S
C2516 C2513 1.404 . S
C2516 N2514 1.334 . S
C2517 H2509 0.930 . S
C2517 C2512 1.418 . S
C2517 C2513 1.353 . S
C2518 H2488 0.930 . S
C2518 N2519 1.330 . S
C2518 C2520 1.446 . S
N2519 Co2478 2.151 . S
N2519 C2518 1.330 . S
N2519 C2523 1.418 . S
C2520 H2499 0.929 . S
C2520 C2518 1.446 . S
C2520 C2521 1.332 . S
C2521 H2501 0.931 . S
C2521 C2520 1.332 . S
C2521 C2522 1.267 . S
C2522 H2490 0.929 . S
C2522 C2521 1.267 . S
C2522 C2523 1.251 . S
C2523 H2493 0.929 . S
C2523 N2519 1.418 . S
C2523 C2522 1.251 . S
C2524 H2491 0.930 . S
C2524 C2526 1.406 . S
C2524 C2529 1.261 . S
C2525 H2492 0.930 . S
C2525 N2527 1.325 . S
C2525 C2528 1.357 . S
C2526 H2494 0.928 . S
C2526 C2524 1.406 . S
C2526 N2527 1.261 . S
N2527 Co2478 2.214 . S
N2527 C2525 1.325 . S
N2527 C2526 1.261 . S
C2528 H2498 0.931 . S
C2528 C2525 1.357 . S
C2528 C2529 1.312 . S
C2529 H2500 0.930 . S
C2529 C2524 1.261 . S
C2529 C2528 1.312 . S
C2530 O2502 1.214 . S
C2530 O2510 1.234 . S
C2531 H2503 0.929 . S
C2531 C2534 1.391 . S
C2531 C2536 1.391 . S
C2532 H2504 0.929 . S
C2532 C2533 1.390 . S
C2532 N2535 1.391 . S
C2533 H2505 0.930 . S
C2533 C2532 1.390 . S
C2533 C2534 1.392 . S
C2534 H2506 0.929 . S
C2534 C2531 1.391 . S
C2534 C2533 1.392 . S
N2535 Co2479 2.257 . S
N2535 C2532 1.391 . S
N2535 C2536 1.388 . S
C2536 H2507 0.930 . S
C2536 C2531 1.391 . S
C2536 N2535 1.388 . S
Co2537 O2539 2.143 . S
Co2537 O2545 2.074 . S
Co2537 O2548 2.093 . S
Co2537 O2561 2.097 . S
Co2537 N2578 2.151 . S
Co2537 N2586 2.214 . S
Co2538 O2539 2.160 . S
Co2538 O2544 2.058 . S
Co2538 O2554 2.057 . S
Co2538 O2569 2.037 . S
Co2538 N2573 2.145 . S
Co2538 N2594 2.257 . S
O2539 Co2537 2.143 . S
O2539 Co2538 2.160 . S
C2540 O2541 1.278 . S
C2540 O2548 1.224 . S
O2541 C2540 1.278 . S
C2542 O2543 1.245 . S
C2542 O2554 1.232 . S
O2543 C2542 1.245 . S
O2544 Co2538 2.058 . S
O2544 C2570 1.269 . S
O2545 Co2537 2.074 . S
O2545 C2570 1.257 . S
H2546 C2571 0.930 . S
H2547 C2577 0.930 . S
O2548 Co2537 2.093 . S
O2548 C2540 1.224 . S
H2549 C2581 0.929 . S
H2550 C2583 0.930 . S
H2551 C2584 0.930 . S
H2552 C2582 0.929 . S
H2553 C2585 0.928 . S
O2554 Co2538 2.057 . S
O2554 C2542 1.232 . S
H2555 C2574 0.929 . S
H2556 C2575 0.929 . S
H2557 C2587 0.931 . S
H2558 C2579 0.929 . S
H2559 C2588 0.930 . S
H2560 C2580 0.931 . S
O2561 Co2537 2.097 . S
O2561 C2589 1.214 . S
H2562 C2590 0.929 . S
H2563 C2591 0.929 . S
H2564 C2592 0.930 . S
H2565 C2593 0.929 . S
H2566 C2595 0.930 . S
H2567 C2572 0.930 . S
H2568 C2576 0.930 . S
O2569 Co2538 2.037 . S
O2569 C2589 1.234 . S
C2570 O2544 1.269 . S
C2570 O2545 1.257 . S
C2571 H2546 0.930 . S
C2571 C2574 1.388 . S
C2571 C2576 1.418 . S
C2572 H2567 0.930 . S
C2572 C2575 1.404 . S
C2572 C2576 1.353 . S
N2573 Co2538 2.145 . S
N2573 C2574 1.397 . S
N2573 C2575 1.334 . S
C2574 H2555 0.929 . S
C2574 C2571 1.388 . S
C2574 N2573 1.397 . S
C2575 H2556 0.929 . S
C2575 C2572 1.404 . S
C2575 N2573 1.334 . S
C2576 H2568 0.930 . S
C2576 C2571 1.418 . S
C2576 C2572 1.353 . S
C2577 H2547 0.930 . S
C2577 N2578 1.330 . S
C2577 C2579 1.446 . S
N2578 Co2537 2.151 . S
N2578 C2577 1.330 . S
N2578 C2582 1.418 . S
C2579 H2558 0.929 . S
C2579 C2577 1.446 . S
C2579 C2580 1.332 . S
C2580 H2560 0.931 . S
C2580 C2579 1.332 . S
C2580 C2581 1.267 . S
C2581 H2549 0.929 . S
C2581 C2580 1.267 . S
C2581 C2582 1.251 . S
C2582 H2552 0.929 . S
C2582 N2578 1.418 . S
C2582 C2581 1.251 . S
C2583 H2550 0.930 . S
C2583 C2585 1.406 . S
C2583 C2588 1.261 . S
C2584 H2551 0.930 . S
C2584 N2586 1.325 . S
C2584 C2587 1.357 . S
C2585 H2553 0.928 . S
C2585 C2583 1.406 . S
C2585 N2586 1.261 . S
N2586 Co2537 2.214 . S
N2586 C2584 1.325 . S
N2586 C2585 1.261 . S
C2587 H2557 0.931 . S
C2587 C2584 1.357 . S
C2587 C2588 1.312 . S
C2588 H2559 0.930 . S
C2588 C2583 1.261 . S
C2588 C2587 1.312 . S
C2589 O2561 1.214 . S
C2589 O2569 1.234 . S
C2590 H2562 0.929 . S
C2590 C2593 1.391 . S
C2590 C2595 1.391 . S
C2591 H2563 0.929 . S
C2591 C2592 1.390 . S
C2591 N2594 1.391 . S
C2592 H2564 0.930 . S
C2592 C2591 1.390 . S
C2592 C2593 1.392 . S
C2593 H2565 0.929 . S
C2593 C2590 1.391 . S
C2593 C2592 1.392 . S
N2594 Co2538 2.257 . S
N2594 C2591 1.391 . S
N2594 C2595 1.388 . S
C2595 H2566 0.930 . S
C2595 C2590 1.391 . S
C2595 N2594 1.388 . S
Co2596 O2598 2.143 . S
Co2596 O2604 2.074 . S
Co2596 O2607 2.093 . S
Co2596 O2620 2.097 . S
Co2596 N2637 2.151 . S
Co2596 N2645 2.214 . S
Co2597 O2598 2.160 . S
Co2597 O2603 2.058 . S
Co2597 O2613 2.057 . S
Co2597 O2628 2.037 . S
Co2597 N2632 2.145 . S
Co2597 N2653 2.257 . S
O2598 Co2596 2.143 . S
O2598 Co2597 2.160 . S
C2599 O2600 1.278 . S
C2599 O2607 1.224 . S
O2600 C2599 1.278 . S
C2601 O2602 1.245 . S
C2601 O2613 1.232 . S
O2602 C2601 1.245 . S
O2603 Co2597 2.058 . S
O2603 C2629 1.269 . S
O2604 Co2596 2.074 . S
O2604 C2629 1.257 . S
H2605 C2630 0.930 . S
H2606 C2636 0.930 . S
O2607 Co2596 2.093 . S
O2607 C2599 1.224 . S
H2608 C2640 0.929 . S
H2609 C2642 0.930 . S
H2610 C2643 0.930 . S
H2611 C2641 0.929 . S
H2612 C2644 0.928 . S
O2613 Co2597 2.057 . S
O2613 C2601 1.232 . S
H2614 C2633 0.929 . S
H2615 C2634 0.929 . S
H2616 C2646 0.931 . S
H2617 C2638 0.929 . S
H2618 C2647 0.930 . S
H2619 C2639 0.931 . S
O2620 Co2596 2.097 . S
O2620 C2648 1.214 . S
H2621 C2649 0.929 . S
H2622 C2650 0.929 . S
H2623 C2651 0.930 . S
H2624 C2652 0.929 . S
H2625 C2654 0.930 . S
H2626 C2631 0.930 . S
H2627 C2635 0.930 . S
O2628 Co2597 2.037 . S
O2628 C2648 1.234 . S
C2629 O2603 1.269 . S
C2629 O2604 1.257 . S
C2630 H2605 0.930 . S
C2630 C2633 1.388 . S
C2630 C2635 1.418 . S
C2631 H2626 0.930 . S
C2631 C2634 1.404 . S
C2631 C2635 1.353 . S
N2632 Co2597 2.145 . S
N2632 C2633 1.397 . S
N2632 C2634 1.334 . S
C2633 H2614 0.929 . S
C2633 C2630 1.388 . S
C2633 N2632 1.397 . S
C2634 H2615 0.929 . S
C2634 C2631 1.404 . S
C2634 N2632 1.334 . S
C2635 H2627 0.930 . S
C2635 C2630 1.418 . S
C2635 C2631 1.353 . S
C2636 H2606 0.930 . S
C2636 N2637 1.330 . S
C2636 C2638 1.446 . S
N2637 Co2596 2.151 . S
N2637 C2636 1.330 . S
N2637 C2641 1.418 . S
C2638 H2617 0.929 . S
C2638 C2636 1.446 . S
C2638 C2639 1.332 . S
C2639 H2619 0.931 . S
C2639 C2638 1.332 . S
C2639 C2640 1.267 . S
C2640 H2608 0.929 . S
C2640 C2639 1.267 . S
C2640 C2641 1.251 . S
C2641 H2611 0.929 . S
C2641 N2637 1.418 . S
C2641 C2640 1.251 . S
C2642 H2609 0.930 . S
C2642 C2644 1.406 . S
C2642 C2647 1.261 . S
C2643 H2610 0.930 . S
C2643 N2645 1.325 . S
C2643 C2646 1.357 . S
C2644 H2612 0.928 . S
C2644 C2642 1.406 . S
C2644 N2645 1.261 . S
N2645 Co2596 2.214 . S
N2645 C2643 1.325 . S
N2645 C2644 1.261 . S
C2646 H2616 0.931 . S
C2646 C2643 1.357 . S
C2646 C2647 1.312 . S
C2647 H2618 0.930 . S
C2647 C2642 1.261 . S
C2647 C2646 1.312 . S
C2648 O2620 1.214 . S
C2648 O2628 1.234 . S
C2649 H2621 0.929 . S
C2649 C2652 1.391 . S
C2649 C2654 1.391 . S
C2650 H2622 0.929 . S
C2650 C2651 1.390 . S
C2650 N2653 1.391 . S
C2651 H2623 0.930 . S
C2651 C2650 1.390 . S
C2651 C2652 1.392 . S
C2652 H2624 0.929 . S
C2652 C2649 1.391 . S
C2652 C2651 1.392 . S
N2653 Co2597 2.257 . S
N2653 C2650 1.391 . S
N2653 C2654 1.388 . S
C2654 H2625 0.930 . S
C2654 C2649 1.391 . S
C2654 N2653 1.388 . S
Co2655 O2657 2.143 . S
Co2655 O2663 2.074 . S
Co2655 O2666 2.093 . S
Co2655 O2679 2.097 . S
Co2655 N2696 2.151 . S
Co2655 N2704 2.214 . S
Co2656 O2657 2.160 . S
Co2656 O2662 2.058 . S
Co2656 O2672 2.057 . S
Co2656 O2687 2.037 . S
Co2656 N2691 2.145 . S
Co2656 N2712 2.257 . S
O2657 Co2655 2.143 . S
O2657 Co2656 2.160 . S
C2658 O2659 1.278 . S
C2658 O2666 1.224 . S
O2659 C2658 1.278 . S
C2660 O2661 1.245 . S
C2660 O2672 1.232 . S
O2661 C2660 1.245 . S
O2662 Co2656 2.058 . S
O2662 C2688 1.269 . S
O2663 Co2655 2.074 . S
O2663 C2688 1.257 . S
H2664 C2689 0.930 . S
H2665 C2695 0.930 . S
O2666 Co2655 2.093 . S
O2666 C2658 1.224 . S
H2667 C2699 0.929 . S
H2668 C2701 0.930 . S
H2669 C2702 0.930 . S
H2670 C2700 0.929 . S
H2671 C2703 0.928 . S
O2672 Co2656 2.057 . S
O2672 C2660 1.232 . S
H2673 C2692 0.929 . S
H2674 C2693 0.929 . S
H2675 C2705 0.931 . S
H2676 C2697 0.929 . S
H2677 C2706 0.930 . S
H2678 C2698 0.931 . S
O2679 Co2655 2.097 . S
O2679 C2707 1.214 . S
H2680 C2708 0.929 . S
H2681 C2709 0.929 . S
H2682 C2710 0.930 . S
H2683 C2711 0.929 . S
H2684 C2713 0.930 . S
H2685 C2690 0.930 . S
H2686 C2694 0.930 . S
O2687 Co2656 2.037 . S
O2687 C2707 1.234 . S
C2688 O2662 1.269 . S
C2688 O2663 1.257 . S
C2689 H2664 0.930 . S
C2689 C2692 1.388 . S
C2689 C2694 1.418 . S
C2690 H2685 0.930 . S
C2690 C2693 1.404 . S
C2690 C2694 1.353 . S
N2691 Co2656 2.145 . S
N2691 C2692 1.397 . S
N2691 C2693 1.334 . S
C2692 H2673 0.929 . S
C2692 C2689 1.388 . S
C2692 N2691 1.397 . S
C2693 H2674 0.929 . S
C2693 C2690 1.404 . S
C2693 N2691 1.334 . S
C2694 H2686 0.930 . S
C2694 C2689 1.418 . S
C2694 C2690 1.353 . S
C2695 H2665 0.930 . S
C2695 N2696 1.330 . S
C2695 C2697 1.446 . S
N2696 Co2655 2.151 . S
N2696 C2695 1.330 . S
N2696 C2700 1.418 . S
C2697 H2676 0.929 . S
C2697 C2695 1.446 . S
C2697 C2698 1.332 . S
C2698 H2678 0.931 . S
C2698 C2697 1.332 . S
C2698 C2699 1.267 . S
C2699 H2667 0.929 . S
C2699 C2698 1.267 . S
C2699 C2700 1.251 . S
C2700 H2670 0.929 . S
C2700 N2696 1.418 . S
C2700 C2699 1.251 . S
C2701 H2668 0.930 . S
C2701 C2703 1.406 . S
C2701 C2706 1.261 . S
C2702 H2669 0.930 . S
C2702 N2704 1.325 . S
C2702 C2705 1.357 . S
C2703 H2671 0.928 . S
C2703 C2701 1.406 . S
C2703 N2704 1.261 . S
N2704 Co2655 2.214 . S
N2704 C2702 1.325 . S
N2704 C2703 1.261 . S
C2705 H2675 0.931 . S
C2705 C2702 1.357 . S
C2705 C2706 1.312 . S
C2706 H2677 0.930 . S
C2706 C2701 1.261 . S
C2706 C2705 1.312 . S
C2707 O2679 1.214 . S
C2707 O2687 1.234 . S
C2708 H2680 0.929 . S
C2708 C2711 1.391 . S
C2708 C2713 1.391 . S
C2709 H2681 0.929 . S
C2709 C2710 1.390 . S
C2709 N2712 1.391 . S
C2710 H2682 0.930 . S
C2710 C2709 1.390 . S
C2710 C2711 1.392 . S
C2711 H2683 0.929 . S
C2711 C2708 1.391 . S
C2711 C2710 1.392 . S
N2712 Co2656 2.257 . S
N2712 C2709 1.391 . S
N2712 C2713 1.388 . S
C2713 H2684 0.930 . S
C2713 C2708 1.391 . S
C2713 N2712 1.388 . S
Co2714 O2716 2.143 . S
Co2714 O2722 2.074 . S
Co2714 O2725 2.093 . S
Co2714 O2738 2.097 . S
Co2714 N2755 2.151 . S
Co2714 N2763 2.214 . S
Co2715 O2716 2.160 . S
Co2715 O2721 2.058 . S
Co2715 O2731 2.057 . S
Co2715 O2746 2.037 . S
Co2715 N2750 2.145 . S
Co2715 N2771 2.257 . S
O2716 Co2714 2.143 . S
O2716 Co2715 2.160 . S
C2717 O2718 1.278 . S
C2717 O2725 1.224 . S
O2718 C2717 1.278 . S
C2719 O2720 1.245 . S
C2719 O2731 1.232 . S
O2720 C2719 1.245 . S
O2721 Co2715 2.058 . S
O2721 C2747 1.269 . S
O2722 Co2714 2.074 . S
O2722 C2747 1.257 . S
H2723 C2748 0.930 . S
H2724 C2754 0.930 . S
O2725 Co2714 2.093 . S
O2725 C2717 1.224 . S
H2726 C2758 0.929 . S
H2727 C2760 0.930 . S
H2728 C2761 0.930 . S
H2729 C2759 0.929 . S
H2730 C2762 0.928 . S
O2731 Co2715 2.057 . S
O2731 C2719 1.232 . S
H2732 C2751 0.929 . S
H2733 C2752 0.929 . S
H2734 C2764 0.931 . S
H2735 C2756 0.929 . S
H2736 C2765 0.930 . S
H2737 C2757 0.931 . S
O2738 Co2714 2.097 . S
O2738 C2766 1.214 . S
H2739 C2767 0.929 . S
H2740 C2768 0.929 . S
H2741 C2769 0.930 . S
H2742 C2770 0.929 . S
H2743 C2772 0.930 . S
H2744 C2749 0.930 . S
H2745 C2753 0.930 . S
O2746 Co2715 2.037 . S
O2746 C2766 1.234 . S
C2747 O2721 1.269 . S
C2747 O2722 1.257 . S
C2748 H2723 0.930 . S
C2748 C2751 1.388 . S
C2748 C2753 1.418 . S
C2749 H2744 0.930 . S
C2749 C2752 1.404 . S
C2749 C2753 1.353 . S
N2750 Co2715 2.145 . S
N2750 C2751 1.397 . S
N2750 C2752 1.334 . S
C2751 H2732 0.929 . S
C2751 C2748 1.388 . S
C2751 N2750 1.397 . S
C2752 H2733 0.929 . S
C2752 C2749 1.404 . S
C2752 N2750 1.334 . S
C2753 H2745 0.930 . S
C2753 C2748 1.418 . S
C2753 C2749 1.353 . S
C2754 H2724 0.930 . S
C2754 N2755 1.330 . S
C2754 C2756 1.446 . S
N2755 Co2714 2.151 . S
N2755 C2754 1.330 . S
N2755 C2759 1.418 . S
C2756 H2735 0.929 . S
C2756 C2754 1.446 . S
C2756 C2757 1.332 . S
C2757 H2737 0.931 . S
C2757 C2756 1.332 . S
C2757 C2758 1.267 . S
C2758 H2726 0.929 . S
C2758 C2757 1.267 . S
C2758 C2759 1.251 . S
C2759 H2729 0.929 . S
C2759 N2755 1.418 . S
C2759 C2758 1.251 . S
C2760 H2727 0.930 . S
C2760 C2762 1.406 . S
C2760 C2765 1.261 . S
C2761 H2728 0.930 . S
C2761 N2763 1.325 . S
C2761 C2764 1.357 . S
C2762 H2730 0.928 . S
C2762 C2760 1.406 . S
C2762 N2763 1.261 . S
N2763 Co2714 2.214 . S
N2763 C2761 1.325 . S
N2763 C2762 1.261 . S
C2764 H2734 0.931 . S
C2764 C2761 1.357 . S
C2764 C2765 1.312 . S
C2765 H2736 0.930 . S
C2765 C2760 1.261 . S
C2765 C2764 1.312 . S
C2766 O2738 1.214 . S
C2766 O2746 1.234 . S
C2767 H2739 0.929 . S
C2767 C2770 1.391 . S
C2767 C2772 1.391 . S
C2768 H2740 0.929 . S
C2768 C2769 1.390 . S
C2768 N2771 1.391 . S
C2769 H2741 0.930 . S
C2769 C2768 1.390 . S
C2769 C2770 1.392 . S
C2770 H2742 0.929 . S
C2770 C2767 1.391 . S
C2770 C2769 1.392 . S
N2771 Co2715 2.257 . S
N2771 C2768 1.391 . S
N2771 C2772 1.388 . S
C2772 H2743 0.930 . S
C2772 C2767 1.391 . S
C2772 N2771 1.388 . S
Co2773 O2775 2.143 . S
Co2773 O2781 2.074 . S
Co2773 O2784 2.093 . S
Co2773 O2797 2.097 . S
Co2773 N2814 2.151 . S
Co2773 N2822 2.214 . S
Co2774 O2775 2.160 . S
Co2774 O2780 2.058 . S
Co2774 O2790 2.057 . S
Co2774 O2805 2.037 . S
Co2774 N2809 2.145 . S
Co2774 N2830 2.257 . S
O2775 Co2773 2.143 . S
O2775 Co2774 2.160 . S
C2776 O2777 1.278 . S
C2776 O2784 1.224 . S
O2777 C2776 1.278 . S
C2778 O2779 1.245 . S
C2778 O2790 1.232 . S
O2779 C2778 1.245 . S
O2780 Co2774 2.058 . S
O2780 C2806 1.269 . S
O2781 Co2773 2.074 . S
O2781 C2806 1.257 . S
H2782 C2807 0.930 . S
H2783 C2813 0.930 . S
O2784 Co2773 2.093 . S
O2784 C2776 1.224 . S
H2785 C2817 0.929 . S
H2786 C2819 0.930 . S
H2787 C2820 0.930 . S
H2788 C2818 0.929 . S
H2789 C2821 0.928 . S
O2790 Co2774 2.057 . S
O2790 C2778 1.232 . S
H2791 C2810 0.929 . S
H2792 C2811 0.929 . S
H2793 C2823 0.931 . S
H2794 C2815 0.929 . S
H2795 C2824 0.930 . S
H2796 C2816 0.931 . S
O2797 Co2773 2.097 . S
O2797 C2825 1.214 . S
H2798 C2826 0.929 . S
H2799 C2827 0.929 . S
H2800 C2828 0.930 . S
H2801 C2829 0.929 . S
H2802 C2831 0.930 . S
H2803 C2808 0.930 . S
H2804 C2812 0.930 . S
O2805 Co2774 2.037 . S
O2805 C2825 1.234 . S
C2806 O2780 1.269 . S
C2806 O2781 1.257 . S
C2807 H2782 0.930 . S
C2807 C2810 1.388 . S
C2807 C2812 1.418 . S
C2808 H2803 0.930 . S
C2808 C2811 1.404 . S
C2808 C2812 1.353 . S
N2809 Co2774 2.145 . S
N2809 C2810 1.397 . S
N2809 C2811 1.334 . S
C2810 H2791 0.929 . S
C2810 C2807 1.388 . S
C2810 N2809 1.397 . S
C2811 H2792 0.929 . S
C2811 C2808 1.404 . S
C2811 N2809 1.334 . S
C2812 H2804 0.930 . S
C2812 C2807 1.418 . S
C2812 C2808 1.353 . S
C2813 H2783 0.930 . S
C2813 N2814 1.330 . S
C2813 C2815 1.446 . S
N2814 Co2773 2.151 . S
N2814 C2813 1.330 . S
N2814 C2818 1.418 . S
C2815 H2794 0.929 . S
C2815 C2813 1.446 . S
C2815 C2816 1.332 . S
C2816 H2796 0.931 . S
C2816 C2815 1.332 . S
C2816 C2817 1.267 . S
C2817 H2785 0.929 . S
C2817 C2816 1.267 . S
C2817 C2818 1.251 . S
C2818 H2788 0.929 . S
C2818 N2814 1.418 . S
C2818 C2817 1.251 . S
C2819 H2786 0.930 . S
C2819 C2821 1.406 . S
C2819 C2824 1.261 . S
C2820 H2787 0.930 . S
C2820 N2822 1.325 . S
C2820 C2823 1.357 . S
C2821 H2789 0.928 . S
C2821 C2819 1.406 . S
C2821 N2822 1.261 . S
N2822 Co2773 2.214 . S
N2822 C2820 1.325 . S
N2822 C2821 1.261 . S
C2823 H2793 0.931 . S
C2823 C2820 1.357 . S
C2823 C2824 1.312 . S
C2824 H2795 0.930 . S
C2824 C2819 1.261 . S
C2824 C2823 1.312 . S
C2825 O2797 1.214 . S
C2825 O2805 1.234 . S
C2826 H2798 0.929 . S
C2826 C2829 1.391 . S
C2826 C2831 1.391 . S
C2827 H2799 0.929 . S
C2827 C2828 1.390 . S
C2827 N2830 1.391 . S
C2828 H2800 0.930 . S
C2828 C2827 1.390 . S
C2828 C2829 1.392 . S
C2829 H2801 0.929 . S
C2829 C2826 1.391 . S
C2829 C2828 1.392 . S
N2830 Co2774 2.257 . S
N2830 C2827 1.391 . S
N2830 C2831 1.388 . S
C2831 H2802 0.930 . S
C2831 C2826 1.391 . S
C2831 N2830 1.388 . S
H2832 C2844 0.930 . S
H2833 C2846 0.930 . S
H2834 C2847 0.930 . S
H2835 C2851 0.959 . S
H2836 C2851 0.959 . S
H2837 C2851 0.961 . S
H2838 C2852 0.960 . S
H2839 C2852 0.961 . S
H2840 C2852 0.959 . S
H2841 C2855 0.885 1_655 S
H2842 C2856 0.931 . S
H2843 C2858 0.930 . S
C2844 H2832 0.930 . S
C2844 C2845 1.399 . S
C2844 C2849 1.399 . S
C2845 C2844 1.399 . S
C2845 C2846 1.376 . S
C2846 H2833 0.930 . S
C2846 C2845 1.376 . S
C2846 C2847 1.388 . S
C2847 H2834 0.930 . S
C2847 C2846 1.388 . S
C2847 C2848 1.390 . S
C2848 C2847 1.390 . S
C2848 C2849 1.394 . S
C2848 C2854 1.426 1_655 S
C2849 C2844 1.399 . S
C2849 C2848 1.394 . S
C2849 C2850 1.516 1_655 S
C2850 C2849 1.516 1_455 S
C2850 C2851 1.502 . S
C2850 C2852 1.561 . S
C2850 C2853 1.526 . S
C2851 H2835 0.959 . S
C2851 H2836 0.959 . S
C2851 H2837 0.961 . S
C2851 C2850 1.502 . S
C2852 H2838 0.960 . S
C2852 H2839 0.961 . S
C2852 H2840 0.959 . S
C2852 C2850 1.561 . S
C2853 C2850 1.526 . S
C2853 C2854 1.442 . S
C2853 C2858 1.390 . S
C2854 C2848 1.426 1_455 S
C2854 C2853 1.442 . S
C2854 C2855 1.399 . S
C2855 H2841 0.885 1_455 S
C2855 C2854 1.399 . S
C2855 C2856 1.431 . S
C2856 H2842 0.931 . S
C2856 C2855 1.431 . S
C2856 C2857 1.389 . S
C2857 C2856 1.389 . S
C2857 C2858 1.387 . S
C2858 H2843 0.930 . S
C2858 C2853 1.390 . S
C2858 C2857 1.387 . S
H2859 C2871 0.930 . S
H2860 C2873 0.930 . S
H2861 C2874 0.930 1_545 S
H2862 C2878 0.959 . S
H2863 C2878 0.959 . S
H2864 C2878 0.961 . S
H2865 C2879 0.960 . S
H2866 C2879 0.961 . S
H2867 C2879 0.959 . S
H2868 C2882 0.929 . S
H2869 C2883 0.931 . S
H2870 C2885 0.930 . S
C2871 H2859 0.930 . S
C2871 C2872 1.399 . S
C2871 C2876 1.399 . S
C2872 C2871 1.399 . S
C2872 C2873 1.376 . S
C2873 H2860 0.930 . S
C2873 C2872 1.376 . S
C2873 C2874 1.388 . S
C2874 H2861 0.930 1_565 S
C2874 C2873 1.388 . S
C2874 C2875 1.390 . S
C2875 C2874 1.390 . S
C2875 C2876 1.394 . S
C2875 C2881 1.465 1_565 S
C2876 C2871 1.399 . S
C2876 C2875 1.394 . S
C2876 C2877 1.516 . S
C2877 C2876 1.516 . S
C2877 C2878 1.502 . S
C2877 C2879 1.561 . S
C2877 C2880 1.526 1_565 S
C2878 H2862 0.959 . S
C2878 H2863 0.959 . S
C2878 H2864 0.961 . S
C2878 C2877 1.502 . S
C2879 H2865 0.960 . S
C2879 H2866 0.961 . S
C2879 H2867 0.959 . S
C2879 C2877 1.561 . S
C2880 C2877 1.526 1_545 S
C2880 C2881 1.396 . S
C2880 C2885 1.390 . S
C2881 C2875 1.465 1_545 S
C2881 C2880 1.396 . S
C2881 C2882 1.399 . S
C2882 H2868 0.929 . S
C2882 C2881 1.399 . S
C2882 C2883 1.385 . S
C2883 H2869 0.931 . S
C2883 C2882 1.385 . S
C2883 C2884 1.389 . S
C2884 C2883 1.389 . S
C2884 C2885 1.387 . S
C2885 H2870 0.930 . S
C2885 C2880 1.390 . S
C2885 C2884 1.387 . S
H2886 C2898 0.930 . S
H2887 C2900 0.930 . S
H2888 C2901 0.930 1_655 S
H2889 C2905 0.959 . S
H2890 C2905 0.959 . S
H2891 C2905 0.961 . S
H2892 C2906 0.960 . S
H2893 C2906 0.961 1_655 S
H2894 C2906 0.959 1_655 S
H2895 C2909 0.929 . S
H2896 C2910 0.931 . S
H2897 C2912 0.930 . S
C2898 H2886 0.930 . S
C2898 C2899 1.399 . S
C2898 C2903 1.399 . S
C2899 C2898 1.399 . S
C2899 C2900 1.376 . S
C2900 H2887 0.930 . S
C2900 C2899 1.376 . S
C2900 C2901 1.388 . S
C2901 H2888 0.930 1_455 S
C2901 C2900 1.388 . S
C2901 C2902 1.390 . S
C2902 C2901 1.390 . S
C2902 C2903 1.394 . S
C2902 C2908 1.465 1_455 S
C2903 C2898 1.399 . S
C2903 C2902 1.394 . S
C2903 C2904 1.516 . S
C2904 C2903 1.516 . S
C2904 C2905 1.502 . S
C2904 C2906 1.561 . S
C2904 C2907 1.526 1_455 S
C2905 H2889 0.959 . S
C2905 H2890 0.959 . S
C2905 H2891 0.961 . S
C2905 C2904 1.502 . S
C2906 H2892 0.960 . S
C2906 H2893 0.961 1_455 S
C2906 H2894 0.959 1_455 S
C2906 C2904 1.561 . S
C2907 C2904 1.526 1_655 S
C2907 C2908 1.396 . S
C2907 C2912 1.390 . S
C2908 C2902 1.465 1_655 S
C2908 C2907 1.396 . S
C2908 C2909 1.399 . S
C2909 H2895 0.929 . S
C2909 C2908 1.399 . S
C2909 C2910 1.385 . S
C2910 H2896 0.931 . S
C2910 C2909 1.385 . S
C2910 C2911 1.389 . S
C2911 C2910 1.389 . S
C2911 C2912 1.387 . S
C2912 H2897 0.930 . S
C2912 C2907 1.390 . S
C2912 C2911 1.387 . S
H2913 C2925 0.930 . S
H2914 C2927 0.930 . S
H2915 C2928 0.907 1_545 S
H2916 C2932 0.959 . S
H2917 C2932 0.959 . S
H2918 C2932 0.961 . S
H2919 C2933 0.960 . S
H2920 C2933 0.961 . S
H2921 C2933 0.959 . S
H2922 C2936 0.929 . S
H2923 C2937 0.931 . S
H2924 C2939 0.930 . S
C2925 H2913 0.930 . S
C2925 C2926 1.399 . S
C2925 C2930 1.399 . S
C2926 C2925 1.399 . S
C2926 C2927 1.376 . S
C2927 H2914 0.930 . S
C2927 C2926 1.376 . S
C2927 C2928 1.411 . S
C2928 H2915 0.907 1_565 S
C2928 C2927 1.411 . S
C2928 C2929 1.391 . S
C2929 C2928 1.391 . S
C2929 C2930 1.394 . S
C2929 C2935 1.465 1_565 S
C2930 C2925 1.399 . S
C2930 C2929 1.394 . S
C2930 C2931 1.516 . S
C2931 C2930 1.516 . S
C2931 C2932 1.502 . S
C2931 C2933 1.561 . S
C2931 C2934 1.526 1_565 S
C2932 H2916 0.959 . S
C2932 H2917 0.959 . S
C2932 H2918 0.961 . S
C2932 C2931 1.502 . S
C2933 H2919 0.960 . S
C2933 H2920 0.961 . S
C2933 H2921 0.959 . S
C2933 C2931 1.561 . S
C2934 C2931 1.526 1_545 S
C2934 C2935 1.396 . S
C2934 C2939 1.390 . S
C2935 C2929 1.465 1_545 S
C2935 C2934 1.396 . S
C2935 C2936 1.399 . S
C2936 H2922 0.929 . S
C2936 C2935 1.399 . S
C2936 C2937 1.385 . S
C2937 H2923 0.931 . S
C2937 C2936 1.385 . S
C2937 C2938 1.389 . S
C2938 C2937 1.389 . S
C2938 C2939 1.387 . S
C2939 H2924 0.930 . S
C2939 C2934 1.390 . S
C2939 C2938 1.387 . S
H2940 C2952 0.930 . S
H2941 C2954 0.930 . S
H2942 C2955 0.930 . S
H2943 C2959 0.959 . S
H2944 C2959 0.959 . S
H2945 C2959 0.961 . S
H2946 C2960 0.946 1_655 S
H2947 C2960 0.961 . S
H2948 C2960 0.959 . S
H2949 C2963 0.929 . S
H2950 C2964 0.931 . S
H2951 C2966 0.930 . S
C2952 H2940 0.930 . S
C2952 C2953 1.399 . S
C2952 C2957 1.399 . S
C2953 C2952 1.399 . S
C2953 C2954 1.376 . S
C2954 H2941 0.930 . S
C2954 C2953 1.376 . S
C2954 C2955 1.388 . S
C2955 H2942 0.930 . S
C2955 C2954 1.388 . S
C2955 C2956 1.390 . S
C2956 C2955 1.390 . S
C2956 C2957 1.394 . S
C2956 C2962 1.465 1_655 S
C2957 C2952 1.399 . S
C2957 C2956 1.394 . S
C2957 C2958 1.516 . S
C2958 C2957 1.516 . S
C2958 C2959 1.502 . S
C2958 C2960 1.561 1_655 S
C2958 C2961 1.526 1_655 S
C2959 H2943 0.959 . S
C2959 H2944 0.959 . S
C2959 H2945 0.961 . S
C2959 C2958 1.502 . S
C2960 H2946 0.946 1_455 S
C2960 H2947 0.961 . S
C2960 H2948 0.959 . S
C2960 C2958 1.561 1_455 S
C2961 C2958 1.526 1_455 S
C2961 C2962 1.396 . S
C2961 C2966 1.390 . S
C2962 C2956 1.465 1_455 S
C2962 C2961 1.396 . S
C2962 C2963 1.399 . S
C2963 H2949 0.929 . S
C2963 C2962 1.399 . S
C2963 C2964 1.385 . S
C2964 H2950 0.931 . S
C2964 C2963 1.385 . S
C2964 C2965 1.389 . S
C2965 C2964 1.389 . S
C2965 C2966 1.387 . S
C2966 H2951 0.930 . S
C2966 C2961 1.390 . S
C2966 C2965 1.387 . S
H2967 C2979 0.930 . S
H2968 C2981 0.930 . S
H2969 C2982 0.930 1_565 S
H2970 C2986 0.959 . S
H2971 C2986 0.959 . S
H2972 C2986 0.961 . S
H2973 C2987 0.960 . S
H2974 C2987 0.961 . S
H2975 C2987 0.959 . S
H2976 C2990 0.929 . S
H2977 C2991 0.931 . S
H2978 C2993 0.930 . S
C2979 H2967 0.930 . S
C2979 C2980 1.399 . S
C2979 C2984 1.399 . S
C2980 C2979 1.399 . S
C2980 C2981 1.376 . S
C2981 H2968 0.930 . S
C2981 C2980 1.376 . S
C2981 C2982 1.388 . S
C2982 H2969 0.930 1_545 S
C2982 C2981 1.388 . S
C2982 C2983 1.390 . S
C2983 C2982 1.390 . S
C2983 C2984 1.394 . S
C2983 C2989 1.465 1_545 S
C2984 C2979 1.399 . S
C2984 C2983 1.394 . S
C2984 C2985 1.516 . S
C2985 C2984 1.516 . S
C2985 C2986 1.502 . S
C2985 C2987 1.561 . S
C2985 C2988 1.526 1_545 S
C2986 H2970 0.959 . S
C2986 H2971 0.959 . S
C2986 H2972 0.961 . S
C2986 C2985 1.502 . S
C2987 H2973 0.960 . S
C2987 H2974 0.961 . S
C2987 H2975 0.959 . S
C2987 C2985 1.561 . S
C2988 C2985 1.526 1_565 S
C2988 C2989 1.396 . S
C2988 C2993 1.390 . S
C2989 C2983 1.465 1_565 S
C2989 C2988 1.396 . S
C2989 C2990 1.399 . S
C2990 H2976 0.929 . S
C2990 C2989 1.399 . S
C2990 C2991 1.385 . S
C2991 H2977 0.931 . S
C2991 C2990 1.385 . S
C2991 C2992 1.389 . S
C2992 C2991 1.389 . S
C2992 C2993 1.387 . S
C2993 H2978 0.930 . S
C2993 C2988 1.390 . S
C2993 C2992 1.387 . S
H2994 C3006 0.930 . S
H2995 C3008 0.930 . S
H2996 C3009 0.930 1_655 S
H2997 C3013 0.959 . S
H2998 C3013 0.959 . S
H2999 C3013 0.961 . S
H3000 C3014 0.960 . S
H3001 C3014 0.961 . S
H3002 C3014 0.959 1_655 S
H3003 C3017 0.929 . S
H3004 C3018 0.931 . S
H3005 C3020 0.930 . S
C3006 H2994 0.930 . S
C3006 C3007 1.399 . S
C3006 C3011 1.399 . S
C3007 C3006 1.399 . S
C3007 C3008 1.376 . S
C3008 H2995 0.930 . S
C3008 C3007 1.376 . S
C3008 C3009 1.388 . S
C3009 H2996 0.930 1_455 S
C3009 C3008 1.388 . S
C3009 C3010 1.390 . S
C3010 C3009 1.390 . S
C3010 C3011 1.394 . S
C3010 C3016 1.465 1_455 S
C3011 C3006 1.399 . S
C3011 C3010 1.394 . S
C3011 C3012 1.516 . S
C3012 C3011 1.516 . S
C3012 C3013 1.502 . S
C3012 C3014 1.561 . S
C3012 C3015 1.526 1_455 S
C3013 H2997 0.959 . S
C3013 H2998 0.959 . S
C3013 H2999 0.961 . S
C3013 C3012 1.502 . S
C3014 H3000 0.960 . S
C3014 H3001 0.961 . S
C3014 H3002 0.959 1_455 S
C3014 C3012 1.561 . S
C3015 C3012 1.526 1_655 S
C3015 C3016 1.396 . S
C3015 C3020 1.390 . S
C3016 C3010 1.465 1_655 S
C3016 C3015 1.396 . S
C3016 C3017 1.399 . S
C3017 H3003 0.929 . S
C3017 C3016 1.399 . S
C3017 C3018 1.385 . S
C3018 H3004 0.931 . S
C3018 C3017 1.385 . S
C3018 C3019 1.389 . S
C3019 C3018 1.389 . S
C3019 C3020 1.387 . S
C3020 H3005 0.930 . S
C3020 C3015 1.390 . S
C3020 C3019 1.387 . S
H3021 C3033 0.930 . S
H3022 C3035 0.930 . S
H3023 C3036 0.930 . S
H3024 C3040 0.959 . S
H3025 C3040 0.959 . S
H3026 C3040 0.961 . S
H3027 C3041 0.960 . S
H3028 C3041 0.961 . S
H3029 C3041 0.959 . S
H3030 C3044 0.929 1_545 S
H3031 C3045 0.931 . S
H3032 C3047 0.930 . S
C3033 H3021 0.930 . S
C3033 C3034 1.399 . S
C3033 C3038 1.399 . S
C3034 C3033 1.399 . S
C3034 C3035 1.376 . S
C3035 H3022 0.930 . S
C3035 C3034 1.376 . S
C3035 C3036 1.388 . S
C3036 H3023 0.930 . S
C3036 C3035 1.388 . S
C3036 C3037 1.390 . S
C3037 C3036 1.390 . S
C3037 C3038 1.394 . S
C3037 C3043 1.465 1_545 S
C3038 C3033 1.399 . S
C3038 C3037 1.394 . S
C3038 C3039 1.516 1_545 S
C3039 C3038 1.516 1_565 S
C3039 C3040 1.502 . S
C3039 C3041 1.561 . S
C3039 C3042 1.526 . S
C3040 H3024 0.959 . S
C3040 H3025 0.959 . S
C3040 H3026 0.961 . S
C3040 C3039 1.502 . S
C3041 H3027 0.960 . S
C3041 H3028 0.961 . S
C3041 H3029 0.959 . S
C3041 C3039 1.561 . S
C3042 C3039 1.526 . S
C3042 C3043 1.396 . S
C3042 C3047 1.390 . S
C3043 C3037 1.465 1_565 S
C3043 C3042 1.396 . S
C3043 C3044 1.399 . S
C3044 H3030 0.929 1_565 S
C3044 C3043 1.399 . S
C3044 C3045 1.385 . S
C3045 H3031 0.931 . S
C3045 C3044 1.385 . S
C3045 C3046 1.389 . S
C3046 C3045 1.389 . S
C3046 C3047 1.387 . S
C3047 H3032 0.930 . S
C3047 C3042 1.390 . S
C3047 C3046 1.387 . S
H3048 C3060 0.930 . S
H3049 C3062 0.930 . S
H3050 C3063 0.930 . S
H3051 C3067 0.959 . S
H3052 C3067 0.959 . S
H3053 C3067 0.961 . S
H3054 C3068 0.960 1_554 S
H3055 C3068 0.961 . S
H3056 C3068 0.959 1_554 S
H3057 C3071 0.929 1_554 S
H3058 C3072 0.931 . S
H3059 C3074 0.930 . S
C3060 H3048 0.930 . S
C3060 C3061 1.399 . S
C3060 C3065 1.399 . S
C3061 C3060 1.399 . S
C3061 C3062 1.376 . S
C3062 H3049 0.930 . S
C3062 C3061 1.376 . S
C3062 C3063 1.388 . S
C3063 H3050 0.930 . S
C3063 C3062 1.388 . S
C3063 C3064 1.390 . S
C3064 C3063 1.390 . S
C3064 C3065 1.394 . S
C3064 C3070 1.465 1_554 S
C3065 C3060 1.399 . S
C3065 C3064 1.394 . S
C3065 C3066 1.516 1_554 S
C3066 C3065 1.516 1_556 S
C3066 C3067 1.502 . S
C3066 C3068 1.561 . S
C3066 C3069 1.526 . S
C3067 H3051 0.959 . S
C3067 H3052 0.959 . S
C3067 H3053 0.961 . S
C3067 C3066 1.502 . S
C3068 H3054 0.960 1_556 S
C3068 H3055 0.961 . S
C3068 H3056 0.959 1_556 S
C3068 C3066 1.561 . S
C3069 C3066 1.526 . S
C3069 C3070 1.396 . S
C3069 C3074 1.390 . S
C3070 C3064 1.465 1_556 S
C3070 C3069 1.396 . S
C3070 C3071 1.399 . S
C3071 H3057 0.929 1_556 S
C3071 C3070 1.399 . S
C3071 C3072 1.385 . S
C3072 H3058 0.931 . S
C3072 C3071 1.385 . S
C3072 C3073 1.389 . S
C3073 C3072 1.389 . S
C3073 C3074 1.387 . S
C3074 H3059 0.930 . S
C3074 C3069 1.390 . S
C3074 C3073 1.387 . S
H3075 C3087 0.930 . S
H3076 C3089 0.930 . S
H3077 C3090 0.897 1_554 S
H3078 C3094 0.959 . S
H3079 C3094 0.959 . S
H3080 C3094 0.961 . S
H3081 C3095 0.960 . S
H3082 C3095 0.961 . S
H3083 C3095 0.959 . S
H3084 C3098 0.929 . S
H3085 C3099 0.931 . S
H3086 C3101 0.930 . S
C3087 H3075 0.930 . S
C3087 C3088 1.399 . S
C3087 C3092 1.399 . S
C3088 C3087 1.399 . S
C3088 C3089 1.376 . S
C3089 H3076 0.930 . S
C3089 C3088 1.376 . S
C3089 C3090 1.422 . S
C3090 H3077 0.897 1_556 S
C3090 C3089 1.422 . S
C3090 C3091 1.390 . S
C3091 C3090 1.390 . S
C3091 C3092 1.438 . S
C3091 C3097 1.428 1_556 S
C3092 C3087 1.399 . S
C3092 C3091 1.438 . S
C3092 C3093 1.516 . S
C3093 C3092 1.516 . S
C3093 C3094 1.502 . S
C3093 C3095 1.561 . S
C3093 C3096 1.526 1_556 S
C3094 H3078 0.959 . S
C3094 H3079 0.959 . S
C3094 H3080 0.961 . S
C3094 C3093 1.502 . S
C3095 H3081 0.960 . S
C3095 H3082 0.961 . S
C3095 H3083 0.959 . S
C3095 C3093 1.561 . S
C3096 C3093 1.526 1_554 S
C3096 C3097 1.396 . S
C3096 C3101 1.390 . S
C3097 C3091 1.428 1_554 S
C3097 C3096 1.396 . S
C3097 C3098 1.399 . S
C3098 H3084 0.929 . S
C3098 C3097 1.399 . S
C3098 C3099 1.385 . S
C3099 H3085 0.931 . S
C3099 C3098 1.385 . S
C3099 C3100 1.389 . S
C3100 C3099 1.389 . S
C3100 C3101 1.387 . S
C3101 H3086 0.930 . S
C3101 C3096 1.390 . S
C3101 C3100 1.387 . S
H3102 C3114 0.930 . S
H3103 C3116 0.930 . S
H3104 C3117 0.930 . S
H3105 C3121 0.959 . S
H3106 C3121 0.959 . S
H3107 C3121 0.961 . S
H3108 C3122 0.960 . S
H3109 C3122 0.961 . S
H3110 C3122 0.959 . S
H3111 C3125 0.927 1_556 S
H3112 C3126 0.931 . S
H3113 C3128 0.930 . S
C3114 H3102 0.930 . S
C3114 C3115 1.399 . S
C3114 C3119 1.399 . S
C3115 C3114 1.399 . S
C3115 C3116 1.376 . S
C3116 H3103 0.930 . S
C3116 C3115 1.376 . S
C3116 C3117 1.388 . S
C3117 H3104 0.930 . S
C3117 C3116 1.388 . S
C3117 C3118 1.390 . S
C3118 C3117 1.390 . S
C3118 C3119 1.394 . S
C3118 C3124 1.434 1_556 S
C3119 C3114 1.399 . S
C3119 C3118 1.394 . S
C3119 C3120 1.516 1_556 S
C3120 C3119 1.516 1_554 S
C3120 C3121 1.502 . S
C3120 C3122 1.561 . S
C3120 C3123 1.526 . S
C3121 H3105 0.959 . S
C3121 H3106 0.959 . S
C3121 H3107 0.961 . S
C3121 C3120 1.502 . S
C3122 H3108 0.960 . S
C3122 H3109 0.961 . S
C3122 H3110 0.959 . S
C3122 C3120 1.561 . S
C3123 C3120 1.526 . S
C3123 C3124 1.434 . S
C3123 C3128 1.390 . S
C3124 C3118 1.434 1_554 S
C3124 C3123 1.434 . S
C3124 C3125 1.398 . S
C3125 H3111 0.927 1_554 S
C3125 C3124 1.398 . S
C3125 C3126 1.387 . S
C3126 H3112 0.931 . S
C3126 C3125 1.387 . S
C3126 C3127 1.389 . S
C3127 C3126 1.389 . S
C3127 C3128 1.387 . S
C3128 H3113 0.930 . S
C3128 C3123 1.390 . S
C3128 C3127 1.387 . S
H3129 C3141 0.930 . S
H3130 C3143 0.930 . S
H3131 C3144 0.930 1_554 S
H3132 C3148 0.959 . S
H3133 C3148 0.959 . S
H3134 C3148 0.961 . S
H3135 C3149 0.960 . S
H3136 C3149 0.961 . S
H3137 C3149 0.959 . S
H3138 C3152 0.929 . S
H3139 C3153 0.931 . S
H3140 C3155 0.930 . S
C3141 H3129 0.930 . S
C3141 C3142 1.399 . S
C3141 C3146 1.399 . S
C3142 C3141 1.399 . S
C3142 C3143 1.376 . S
C3143 H3130 0.930 . S
C3143 C3142 1.376 . S
C3143 C3144 1.388 . S
C3144 H3131 0.930 1_556 S
C3144 C3143 1.388 . S
C3144 C3145 1.390 . S
C3145 C3144 1.390 . S
C3145 C3146 1.394 . S
C3145 C3151 1.465 1_556 S
C3146 C3141 1.399 . S
C3146 C3145 1.394 . S
C3146 C3147 1.516 . S
C3147 C3146 1.516 . S
C3147 C3148 1.502 . S
C3147 C3149 1.561 . S
C3147 C3150 1.526 1_556 S
C3148 H3132 0.959 . S
C3148 H3133 0.959 . S
C3148 H3134 0.961 . S
C3148 C3147 1.502 . S
C3149 H3135 0.960 . S
C3149 H3136 0.961 . S
C3149 H3137 0.959 . S
C3149 C3147 1.561 . S
C3150 C3147 1.526 1_554 S
C3150 C3151 1.396 . S
C3150 C3155 1.390 . S
C3151 C3145 1.465 1_554 S
C3151 C3150 1.396 . S
C3151 C3152 1.399 . S
C3152 H3138 0.929 . S
C3152 C3151 1.399 . S
C3152 C3153 1.385 . S
C3153 H3139 0.931 . S
C3153 C3152 1.385 . S
C3153 C3154 1.389 . S
C3154 C3153 1.389 . S
C3154 C3155 1.387 . S
C3155 H3140 0.930 . S
C3155 C3150 1.390 . S
C3155 C3154 1.387 . S
H3156 C3168 0.930 . S
H3157 C3170 0.930 . S
H3158 C3171 0.930 . S
H3159 C3175 0.959 . S
H3160 C3175 0.959 . S
H3161 C3175 0.961 . S
H3162 C3176 0.960 . S
H3163 C3176 0.961 . S
H3164 C3176 0.959 . S
H3165 C3179 0.929 . S
H3166 C3180 0.931 . S
H3167 C3182 0.930 . S
C3168 H3156 0.930 . S
C3168 C3169 1.399 . S
C3168 C3173 1.399 . S
C3169 C3168 1.399 . S
C3169 C3170 1.376 . S
C3170 H3157 0.930 . S
C3170 C3169 1.376 . S
C3170 C3171 1.388 . S
C3171 H3158 0.930 . S
C3171 C3170 1.388 . S
C3171 C3172 1.390 . S
C3172 C3171 1.390 . S
C3172 C3173 1.394 . S
C3172 C3178 1.465 . S
C3173 C3168 1.399 . S
C3173 C3172 1.394 . S
C3173 C3174 1.516 . S
C3174 C3173 1.516 . S
C3174 C3175 1.502 . S
C3174 C3176 1.561 . S
C3174 C3177 1.526 . S
C3175 H3159 0.959 . S
C3175 H3160 0.959 . S
C3175 H3161 0.961 . S
C3175 C3174 1.502 . S
C3176 H3162 0.960 . S
C3176 H3163 0.961 . S
C3176 H3164 0.959 . S
C3176 C3174 1.561 . S
C3177 C3174 1.526 . S
C3177 C3178 1.396 . S
C3177 C3182 1.390 . S
C3178 C3172 1.465 . S
C3178 C3177 1.396 . S
C3178 C3179 1.399 . S
C3179 H3165 0.929 . S
C3179 C3178 1.399 . S
C3179 C3180 1.385 . S
C3180 H3166 0.931 . S
C3180 C3179 1.385 . S
C3180 C3181 1.389 . S
C3181 C3180 1.389 . S
C3181 C3182 1.387 . S
C3182 H3167 0.930 . S
C3182 C3177 1.390 . S
C3182 C3181 1.387 . S
H3183 C3195 0.930 . S
H3184 C3197 0.930 . S
H3185 C3198 0.930 . S
H3186 C3202 0.959 . S
H3187 C3202 0.959 . S
H3188 C3202 0.961 . S
H3189 C3203 0.960 . S
H3190 C3203 0.961 . S
H3191 C3203 0.959 . S
H3192 C3206 0.929 . S
H3193 C3207 0.931 . S
H3194 C3209 0.930 . S
C3195 H3183 0.930 . S
C3195 C3196 1.399 . S
C3195 C3200 1.399 . S
C3196 C3195 1.399 . S
C3196 C3197 1.376 . S
C3197 H3184 0.930 . S
C3197 C3196 1.376 . S
C3197 C3198 1.388 . S
C3198 H3185 0.930 . S
C3198 C3197 1.388 . S
C3198 C3199 1.390 . S
C3199 C3198 1.390 . S
C3199 C3200 1.394 . S
C3199 C3205 1.465 . S
C3200 C3195 1.399 . S
C3200 C3199 1.394 . S
C3200 C3201 1.516 . S
C3201 C3200 1.516 . S
C3201 C3202 1.502 . S
C3201 C3203 1.561 . S
C3201 C3204 1.526 . S
C3202 H3186 0.959 . S
C3202 H3187 0.959 . S
C3202 H3188 0.961 . S
C3202 C3201 1.502 . S
C3203 H3189 0.960 . S
C3203 H3190 0.961 . S
C3203 H3191 0.959 . S
C3203 C3201 1.561 . S
C3204 C3201 1.526 . S
C3204 C3205 1.396 . S
C3204 C3209 1.390 . S
C3205 C3199 1.465 . S
C3205 C3204 1.396 . S
C3205 C3206 1.399 . S
C3206 H3192 0.929 . S
C3206 C3205 1.399 . S
C3206 C3207 1.385 . S
C3207 H3193 0.931 . S
C3207 C3206 1.385 . S
C3207 C3208 1.389 . S
C3208 C3207 1.389 . S
C3208 C3209 1.387 . S
C3209 H3194 0.930 . S
C3209 C3204 1.390 . S
C3209 C3208 1.387 . S
H3210 C3222 0.930 . S
H3211 C3224 0.930 . S
H3212 C3225 0.930 . S
H3213 C3229 0.959 . S
H3214 C3229 0.959 . S
H3215 C3229 0.961 . S
H3216 C3230 0.960 . S
H3217 C3230 0.961 . S
H3218 C3230 0.959 . S
H3219 C3233 0.929 . S
H3220 C3234 0.931 . S
H3221 C3236 0.930 . S
C3222 H3210 0.930 . S
C3222 C3223 1.399 . S
C3222 C3227 1.399 . S
C3223 C3222 1.399 . S
C3223 C3224 1.376 . S
C3224 H3211 0.930 . S
C3224 C3223 1.376 . S
C3224 C3225 1.388 . S
C3225 H3212 0.930 . S
C3225 C3224 1.388 . S
C3225 C3226 1.390 . S
C3226 C3225 1.390 . S
C3226 C3227 1.394 . S
C3226 C3232 1.465 . S
C3227 C3222 1.399 . S
C3227 C3226 1.394 . S
C3227 C3228 1.516 . S
C3228 C3227 1.516 . S
C3228 C3229 1.502 . S
C3228 C3230 1.561 . S
C3228 C3231 1.526 . S
C3229 H3213 0.959 . S
C3229 H3214 0.959 . S
C3229 H3215 0.961 . S
C3229 C3228 1.502 . S
C3230 H3216 0.960 . S
C3230 H3217 0.961 . S
C3230 H3218 0.959 . S
C3230 C3228 1.561 . S
C3231 C3228 1.526 . S
C3231 C3232 1.396 . S
C3231 C3236 1.390 . S
C3232 C3226 1.465 . S
C3232 C3231 1.396 . S
C3232 C3233 1.399 . S
C3233 H3219 0.929 . S
C3233 C3232 1.399 . S
C3233 C3234 1.385 . S
C3234 H3220 0.931 . S
C3234 C3233 1.385 . S
C3234 C3235 1.389 . S
C3235 C3234 1.389 . S
C3235 C3236 1.387 . S
C3236 H3221 0.930 . S
C3236 C3231 1.390 . S
C3236 C3235 1.387 . S
H3237 C3249 0.930 . S
H3238 C3251 0.930 . S
H3239 C3252 0.930 . S
H3240 C3256 0.959 . S
H3241 C3256 0.959 . S
H3242 C3256 0.961 . S
H3243 C3257 0.960 . S
H3244 C3257 0.961 . S
H3245 C3257 0.959 . S
H3246 C3260 0.929 . S
H3247 C3261 0.931 . S
H3248 C3263 0.930 . S
C3249 H3237 0.930 . S
C3249 C3250 1.399 . S
C3249 C3254 1.399 . S
C3250 C3249 1.399 . S
C3250 C3251 1.376 . S
C3251 H3238 0.930 . S
C3251 C3250 1.376 . S
C3251 C3252 1.388 . S
C3252 H3239 0.930 . S
C3252 C3251 1.388 . S
C3252 C3253 1.390 . S
C3253 C3252 1.390 . S
C3253 C3254 1.394 . S
C3253 C3259 1.465 . S
C3254 C3249 1.399 . S
C3254 C3253 1.394 . S
C3254 C3255 1.516 . S
C3255 C3254 1.516 . S
C3255 C3256 1.502 . S
C3255 C3257 1.561 . S
C3255 C3258 1.526 . S
C3256 H3240 0.959 . S
C3256 H3241 0.959 . S
C3256 H3242 0.961 . S
C3256 C3255 1.502 . S
C3257 H3243 0.960 . S
C3257 H3244 0.961 . S
C3257 H3245 0.959 . S
C3257 C3255 1.561 . S
C3258 C3255 1.526 . S
C3258 C3259 1.396 . S
C3258 C3263 1.390 . S
C3259 C3253 1.465 . S
C3259 C3258 1.396 . S
C3259 C3260 1.399 . S
C3260 H3246 0.929 . S
C3260 C3259 1.399 . S
C3260 C3261 1.385 . S
C3261 H3247 0.931 . S
C3261 C3260 1.385 . S
C3261 C3262 1.389 . S
C3262 C3261 1.389 . S
C3262 C3263 1.387 . S
C3263 H3248 0.930 . S
C3263 C3258 1.390 . S
C3263 C3262 1.387 . S
H3264 C3276 0.930 . S
H3265 C3278 0.930 . S
H3266 C3279 0.930 . S
H3267 C3283 0.959 . S
H3268 C3283 0.959 . S
H3269 C3283 0.961 . S
H3270 C3284 0.960 . S
H3271 C3284 0.961 . S
H3272 C3284 0.959 . S
H3273 C3287 0.929 . S
H3274 C3288 0.931 . S
H3275 C3290 0.930 . S
C3276 H3264 0.930 . S
C3276 C3277 1.399 . S
C3276 C3281 1.399 . S
C3277 C3276 1.399 . S
C3277 C3278 1.376 . S
C3278 H3265 0.930 . S
C3278 C3277 1.376 . S
C3278 C3279 1.388 . S
C3279 H3266 0.930 . S
C3279 C3278 1.388 . S
C3279 C3280 1.390 . S
C3280 C3279 1.390 . S
C3280 C3281 1.394 . S
C3280 C3286 1.465 . S
C3281 C3276 1.399 . S
C3281 C3280 1.394 . S
C3281 C3282 1.516 . S
C3282 C3281 1.516 . S
C3282 C3283 1.502 . S
C3282 C3284 1.561 . S
C3282 C3285 1.526 . S
C3283 H3267 0.959 . S
C3283 H3268 0.959 . S
C3283 H3269 0.961 . S
C3283 C3282 1.502 . S
C3284 H3270 0.960 . S
C3284 H3271 0.961 . S
C3284 H3272 0.959 . S
C3284 C3282 1.561 . S
C3285 C3282 1.526 . S
C3285 C3286 1.396 . S
C3285 C3290 1.390 . S
C3286 C3280 1.465 . S
C3286 C3285 1.396 . S
C3286 C3287 1.399 . S
C3287 H3273 0.929 . S
C3287 C3286 1.399 . S
C3287 C3288 1.385 . S
C3288 H3274 0.931 . S
C3288 C3287 1.385 . S
C3288 C3289 1.389 . S
C3289 C3288 1.389 . S
C3289 C3290 1.387 . S
C3290 H3275 0.930 . S
C3290 C3285 1.390 . S
C3290 C3289 1.387 . S
H3291 C3303 0.930 . S
H3292 C3305 0.930 . S
H3293 C3306 0.930 . S
H3294 C3310 0.959 . S
H3295 C3310 0.959 . S
H3296 C3310 0.961 . S
H3297 C3311 0.960 . S
H3298 C3311 0.961 . S
H3299 C3311 0.959 . S
H3300 C3314 0.929 . S
H3301 C3315 0.931 . S
H3302 C3317 0.930 . S
C3303 H3291 0.930 . S
C3303 C3304 1.399 . S
C3303 C3308 1.399 . S
C3304 C3303 1.399 . S
C3304 C3305 1.376 . S
C3305 H3292 0.930 . S
C3305 C3304 1.376 . S
C3305 C3306 1.388 . S
C3306 H3293 0.930 . S
C3306 C3305 1.388 . S
C3306 C3307 1.390 . S
C3307 C3306 1.390 . S
C3307 C3308 1.394 . S
C3307 C3313 1.465 . S
C3308 C3303 1.399 . S
C3308 C3307 1.394 . S
C3308 C3309 1.516 . S
C3309 C3308 1.516 . S
C3309 C3310 1.502 . S
C3309 C3311 1.561 . S
C3309 C3312 1.526 . S
C3310 H3294 0.959 . S
C3310 H3295 0.959 . S
C3310 H3296 0.961 . S
C3310 C3309 1.502 . S
C3311 H3297 0.960 . S
C3311 H3298 0.961 . S
C3311 H3299 0.959 . S
C3311 C3309 1.561 . S
C3312 C3309 1.526 . S
C3312 C3313 1.396 . S
C3312 C3317 1.390 . S
C3313 C3307 1.465 . S
C3313 C3312 1.396 . S
C3313 C3314 1.399 . S
C3314 H3300 0.929 . S
C3314 C3313 1.399 . S
C3314 C3315 1.385 . S
C3315 H3301 0.931 . S
C3315 C3314 1.385 . S
C3315 C3316 1.389 . S
C3316 C3315 1.389 . S
C3316 C3317 1.387 . S
C3317 H3302 0.930 . S
C3317 C3312 1.390 . S
C3317 C3316 1.387 . S
H3318 C3330 0.930 . S
H3319 C3332 0.930 . S
H3320 C3333 0.930 . S
H3321 C3337 0.959 . S
H3322 C3337 0.959 . S
H3323 C3337 0.961 . S
H3324 C3338 0.960 . S
H3325 C3338 0.961 . S
H3326 C3338 0.959 . S
H3327 C3341 0.929 . S
H3328 C3342 0.931 . S
H3329 C3344 0.930 . S
C3330 H3318 0.930 . S
C3330 C3331 1.399 . S
C3330 C3335 1.399 . S
C3331 C3330 1.399 . S
C3331 C3332 1.376 . S
C3332 H3319 0.930 . S
C3332 C3331 1.376 . S
C3332 C3333 1.388 . S
C3333 H3320 0.930 . S
C3333 C3332 1.388 . S
C3333 C3334 1.390 . S
C3334 C3333 1.390 . S
C3334 C3335 1.394 . S
C3334 C3340 1.465 . S
C3335 C3330 1.399 . S
C3335 C3334 1.394 . S
C3335 C3336 1.516 . S
C3336 C3335 1.516 . S
C3336 C3337 1.502 . S
C3336 C3338 1.561 . S
C3336 C3339 1.526 . S
C3337 H3321 0.959 . S
C3337 H3322 0.959 . S
C3337 H3323 0.961 . S
C3337 C3336 1.502 . S
C3338 H3324 0.960 . S
C3338 H3325 0.961 . S
C3338 H3326 0.959 . S
C3338 C3336 1.561 . S
C3339 C3336 1.526 . S
C3339 C3340 1.396 . S
C3339 C3344 1.390 . S
C3340 C3334 1.465 . S
C3340 C3339 1.396 . S
C3340 C3341 1.399 . S
C3341 H3327 0.929 . S
C3341 C3340 1.399 . S
C3341 C3342 1.385 . S
C3342 H3328 0.931 . S
C3342 C3341 1.385 . S
C3342 C3343 1.389 . S
C3343 C3342 1.389 . S
C3343 C3344 1.387 . S
C3344 H3329 0.930 . S
C3344 C3339 1.390 . S
C3344 C3343 1.387 . S
H3345 C3357 0.930 . S
H3346 C3359 0.930 . S
H3347 C3360 0.930 . S
H3348 C3364 0.959 . S
H3349 C3364 0.959 . S
H3350 C3364 0.961 . S
H3351 C3365 0.960 . S
H3352 C3365 0.961 . S
H3353 C3365 0.959 . S
H3354 C3368 0.929 . S
H3355 C3369 0.931 . S
H3356 C3371 0.930 . S
C3357 H3345 0.930 . S
C3357 C3358 1.399 . S
C3357 C3362 1.399 . S
C3358 C3357 1.399 . S
C3358 C3359 1.376 . S
C3359 H3346 0.930 . S
C3359 C3358 1.376 . S
C3359 C3360 1.388 . S
C3360 H3347 0.930 . S
C3360 C3359 1.388 . S
C3360 C3361 1.390 . S
C3361 C3360 1.390 . S
C3361 C3362 1.394 . S
C3361 C3367 1.465 . S
C3362 C3357 1.399 . S
C3362 C3361 1.394 . S
C3362 C3363 1.516 . S
C3363 C3362 1.516 . S
C3363 C3364 1.502 . S
C3363 C3365 1.561 . S
C3363 C3366 1.526 . S
C3364 H3348 0.959 . S
C3364 H3349 0.959 . S
C3364 H3350 0.961 . S
C3364 C3363 1.502 . S
C3365 H3351 0.960 . S
C3365 H3352 0.961 . S
C3365 H3353 0.959 . S
C3365 C3363 1.561 . S
C3366 C3363 1.526 . S
C3366 C3367 1.396 . S
C3366 C3371 1.390 . S
C3367 C3361 1.465 . S
C3367 C3366 1.396 . S
C3367 C3368 1.399 . S
C3368 H3354 0.929 . S
C3368 C3367 1.399 . S
C3368 C3369 1.385 . S
C3369 H3355 0.931 . S
C3369 C3368 1.385 . S
C3369 C3370 1.389 . S
C3370 C3369 1.389 . S
C3370 C3371 1.387 . S
C3371 H3356 0.930 . S
C3371 C3366 1.390 . S
C3371 C3370 1.387 . S
H3372 C3384 0.930 . S
H3373 C3386 0.930 . S
H3374 C3387 0.930 . S
H3375 C3391 0.959 . S
H3376 C3391 0.959 . S
H3377 C3391 0.961 . S
H3378 C3392 0.960 . S
H3379 C3392 0.961 . S
H3380 C3392 0.959 . S
H3381 C3395 0.929 . S
H3382 C3396 0.931 . S
H3383 C3398 0.930 . S
C3384 H3372 0.930 . S
C3384 C3385 1.399 . S
C3384 C3389 1.399 . S
C3385 C3384 1.399 . S
C3385 C3386 1.376 . S
C3386 H3373 0.930 . S
C3386 C3385 1.376 . S
C3386 C3387 1.388 . S
C3387 H3374 0.930 . S
C3387 C3386 1.388 . S
C3387 C3388 1.390 . S
C3388 C3387 1.390 . S
C3388 C3389 1.394 . S
C3388 C3394 1.465 . S
C3389 C3384 1.399 . S
C3389 C3388 1.394 . S
C3389 C3390 1.516 . S
C3390 C3389 1.516 . S
C3390 C3391 1.502 . S
C3390 C3392 1.561 . S
C3390 C3393 1.526 . S
C3391 H3375 0.959 . S
C3391 H3376 0.959 . S
C3391 H3377 0.961 . S
C3391 C3390 1.502 . S
C3392 H3378 0.960 . S
C3392 H3379 0.961 . S
C3392 H3380 0.959 . S
C3392 C3390 1.561 . S
C3393 C3390 1.526 . S
C3393 C3394 1.396 . S
C3393 C3398 1.390 . S
C3394 C3388 1.465 . S
C3394 C3393 1.396 . S
C3394 C3395 1.399 . S
C3395 H3381 0.929 . S
C3395 C3394 1.399 . S
C3395 C3396 1.385 . S
C3396 H3382 0.931 . S
C3396 C3395 1.385 . S
C3396 C3397 1.389 . S
C3397 C3396 1.389 . S
C3397 C3398 1.387 . S
C3398 H3383 0.930 . S
C3398 C3393 1.390 . S
C3398 C3397 1.387 . S
H3399 C3411 0.930 . S
H3400 C3413 0.930 . S
H3401 C3414 0.930 . S
H3402 C3418 0.959 . S
H3403 C3418 0.959 . S
H3404 C3418 0.961 . S
H3405 C3419 0.960 . S
H3406 C3419 0.961 . S
H3407 C3419 0.959 . S
H3408 C3422 0.929 . S
H3409 C3423 0.931 . S
H3410 C3425 0.930 . S
C3411 H3399 0.930 . S
C3411 C3412 1.399 . S
C3411 C3416 1.399 . S
C3412 C3411 1.399 . S
C3412 C3413 1.376 . S
C3413 H3400 0.930 . S
C3413 C3412 1.376 . S
C3413 C3414 1.388 . S
C3414 H3401 0.930 . S
C3414 C3413 1.388 . S
C3414 C3415 1.390 . S
C3415 C3414 1.390 . S
C3415 C3416 1.394 . S
C3415 C3421 1.465 . S
C3416 C3411 1.399 . S
C3416 C3415 1.394 . S
C3416 C3417 1.516 . S
C3417 C3416 1.516 . S
C3417 C3418 1.502 . S
C3417 C3419 1.561 . S
C3417 C3420 1.526 . S
C3418 H3402 0.959 . S
C3418 H3403 0.959 . S
C3418 H3404 0.961 . S
C3418 C3417 1.502 . S
C3419 H3405 0.960 . S
C3419 H3406 0.961 . S
C3419 H3407 0.959 . S
C3419 C3417 1.561 . S
C3420 C3417 1.526 . S
C3420 C3421 1.396 . S
C3420 C3425 1.390 . S
C3421 C3415 1.465 . S
C3421 C3420 1.396 . S
C3421 C3422 1.399 . S
C3422 H3408 0.929 . S
C3422 C3421 1.399 . S
C3422 C3423 1.385 . S
C3423 H3409 0.931 . S
C3423 C3422 1.385 . S
C3423 C3424 1.389 . S
C3424 C3423 1.389 . S
C3424 C3425 1.387 . S
C3425 H3410 0.930 . S
C3425 C3420 1.390 . S
C3425 C3424 1.387 . S
H3426 C3438 0.930 . S
H3427 C3440 0.930 . S
H3428 C3441 0.930 . S
H3429 C3445 0.959 . S
H3430 C3445 0.959 . S
H3431 C3445 0.961 . S
H3432 C3446 0.960 . S
H3433 C3446 0.961 . S
H3434 C3446 0.959 . S
H3435 C3449 0.929 . S
H3436 C3450 0.931 . S
H3437 C3452 0.930 . S
C3438 H3426 0.930 . S
C3438 C3439 1.399 . S
C3438 C3443 1.399 . S
C3439 C3438 1.399 . S
C3439 C3440 1.376 . S
C3440 H3427 0.930 . S
C3440 C3439 1.376 . S
C3440 C3441 1.388 . S
C3441 H3428 0.930 . S
C3441 C3440 1.388 . S
C3441 C3442 1.390 . S
C3442 C3441 1.390 . S
C3442 C3443 1.394 . S
C3442 C3448 1.465 . S
C3443 C3438 1.399 . S
C3443 C3442 1.394 . S
C3443 C3444 1.516 . S
C3444 C3443 1.516 . S
C3444 C3445 1.502 . S
C3444 C3446 1.561 . S
C3444 C3447 1.526 . S
C3445 H3429 0.959 . S
C3445 H3430 0.959 . S
C3445 H3431 0.961 . S
C3445 C3444 1.502 . S
C3446 H3432 0.960 . S
C3446 H3433 0.961 . S
C3446 H3434 0.959 . S
C3446 C3444 1.561 . S
C3447 C3444 1.526 . S
C3447 C3448 1.396 . S
C3447 C3452 1.390 . S
C3448 C3442 1.465 . S
C3448 C3447 1.396 . S
C3448 C3449 1.399 . S
C3449 H3435 0.929 . S
C3449 C3448 1.399 . S
C3449 C3450 1.385 . S
C3450 H3436 0.931 . S
C3450 C3449 1.385 . S
C3450 C3451 1.389 . S
C3451 C3450 1.389 . S
C3451 C3452 1.387 . S
C3452 H3437 0.930 . S
C3452 C3447 1.390 . S
C3452 C3451 1.387 . S
H3453 C3465 0.930 . S
H3454 C3467 0.930 . S
H3455 C3468 0.930 . S
H3456 C3472 0.959 . S
H3457 C3472 0.959 . S
H3458 C3472 0.961 . S
H3459 C3473 0.960 . S
H3460 C3473 0.961 . S
H3461 C3473 0.959 . S
H3462 C3476 0.929 . S
H3463 C3477 0.931 . S
H3464 C3479 0.930 . S
C3465 H3453 0.930 . S
C3465 C3466 1.399 . S
C3465 C3470 1.399 . S
C3466 C3465 1.399 . S
C3466 C3467 1.376 . S
C3467 H3454 0.930 . S
C3467 C3466 1.376 . S
C3467 C3468 1.388 . S
C3468 H3455 0.930 . S
C3468 C3467 1.388 . S
C3468 C3469 1.390 . S
C3469 C3468 1.390 . S
C3469 C3470 1.394 . S
C3469 C3475 1.465 . S
C3470 C3465 1.399 . S
C3470 C3469 1.394 . S
C3470 C3471 1.516 . S
C3471 C3470 1.516 . S
C3471 C3472 1.502 . S
C3471 C3473 1.561 . S
C3471 C3474 1.526 . S
C3472 H3456 0.959 . S
C3472 H3457 0.959 . S
C3472 H3458 0.961 . S
C3472 C3471 1.502 . S
C3473 H3459 0.960 . S
C3473 H3460 0.961 . S
C3473 H3461 0.959 . S
C3473 C3471 1.561 . S
C3474 C3471 1.526 . S
C3474 C3475 1.396 . S
C3474 C3479 1.390 . S
C3475 C3469 1.465 . S
C3475 C3474 1.396 . S
C3475 C3476 1.399 . S
C3476 H3462 0.929 . S
C3476 C3475 1.399 . S
C3476 C3477 1.385 . S
C3477 H3463 0.931 . S
C3477 C3476 1.385 . S
C3477 C3478 1.389 . S
C3478 C3477 1.389 . S
C3478 C3479 1.387 . S
C3479 H3464 0.930 . S
C3479 C3474 1.390 . S
C3479 C3478 1.387 . S
H3480 C3492 0.930 . S
H3481 C3494 0.930 . S
H3482 C3495 0.930 . S
H3483 C3499 0.959 . S
H3484 C3499 0.959 . S
H3485 C3499 0.961 . S
H3486 C3500 0.960 . S
H3487 C3500 0.961 . S
H3488 C3500 0.959 . S
H3489 C3503 0.929 . S
H3490 C3504 0.931 . S
H3491 C3506 0.930 . S
C3492 H3480 0.930 . S
C3492 C3493 1.399 . S
C3492 C3497 1.399 . S
C3493 C3492 1.399 . S
C3493 C3494 1.376 . S
C3494 H3481 0.930 . S
C3494 C3493 1.376 . S
C3494 C3495 1.388 . S
C3495 H3482 0.930 . S
C3495 C3494 1.388 . S
C3495 C3496 1.390 . S
C3496 C3495 1.390 . S
C3496 C3497 1.394 . S
C3496 C3502 1.465 . S
C3497 C3492 1.399 . S
C3497 C3496 1.394 . S
C3497 C3498 1.516 . S
C3498 C3497 1.516 . S
C3498 C3499 1.502 . S
C3498 C3500 1.561 . S
C3498 C3501 1.526 . S
C3499 H3483 0.959 . S
C3499 H3484 0.959 . S
C3499 H3485 0.961 . S
C3499 C3498 1.502 . S
C3500 H3486 0.960 . S
C3500 H3487 0.961 . S
C3500 H3488 0.959 . S
C3500 C3498 1.561 . S
C3501 C3498 1.526 . S
C3501 C3502 1.396 . S
C3501 C3506 1.390 . S
C3502 C3496 1.465 . S
C3502 C3501 1.396 . S
C3502 C3503 1.399 . S
C3503 H3489 0.929 . S
C3503 C3502 1.399 . S
C3503 C3504 1.385 . S
C3504 H3490 0.931 . S
C3504 C3503 1.385 . S
C3504 C3505 1.389 . S
C3505 C3504 1.389 . S
C3505 C3506 1.387 . S
C3506 H3491 0.930 . S
C3506 C3501 1.390 . S
C3506 C3505 1.387 . S
H3507 C3519 0.930 . S
H3508 C3521 0.930 . S
H3509 C3522 0.930 . S
H3510 C3526 0.959 . S
H3511 C3526 0.959 . S
H3512 C3526 0.961 . S
H3513 C3527 0.960 . S
H3514 C3527 0.961 . S
H3515 C3527 0.959 . S
H3516 C3530 0.929 . S
H3517 C3531 0.931 . S
H3518 C3533 0.930 . S
C3519 H3507 0.930 . S
C3519 C3520 1.399 . S
C3519 C3524 1.399 . S
C3520 C3519 1.399 . S
C3520 C3521 1.376 . S
C3521 H3508 0.930 . S
C3521 C3520 1.376 . S
C3521 C3522 1.388 . S
C3522 H3509 0.930 . S
C3522 C3521 1.388 . S
C3522 C3523 1.390 . S
C3523 C3522 1.390 . S
C3523 C3524 1.394 . S
C3523 C3529 1.465 . S
C3524 C3519 1.399 . S
C3524 C3523 1.394 . S
C3524 C3525 1.516 . S
C3525 C3524 1.516 . S
C3525 C3526 1.502 . S
C3525 C3527 1.561 . S
C3525 C3528 1.526 . S
C3526 H3510 0.959 . S
C3526 H3511 0.959 . S
C3526 H3512 0.961 . S
C3526 C3525 1.502 . S
C3527 H3513 0.960 . S
C3527 H3514 0.961 . S
C3527 H3515 0.959 . S
C3527 C3525 1.561 . S
C3528 C3525 1.526 . S
C3528 C3529 1.396 . S
C3528 C3533 1.390 . S
C3529 C3523 1.465 . S
C3529 C3528 1.396 . S
C3529 C3530 1.399 . S
C3530 H3516 0.929 . S
C3530 C3529 1.399 . S
C3530 C3531 1.385 . S
C3531 H3517 0.931 . S
C3531 C3530 1.385 . S
C3531 C3532 1.389 . S
C3532 C3531 1.389 . S
C3532 C3533 1.387 . S
C3533 H3518 0.930 . S
C3533 C3528 1.390 . S
C3533 C3532 1.387 . S
H3534 C3546 0.930 . S
H3535 C3548 0.930 . S
H3536 C3549 0.930 . S
H3537 C3553 0.959 . S
H3538 C3553 0.959 . S
H3539 C3553 0.961 . S
H3540 C3554 0.960 . S
H3541 C3554 0.961 . S
H3542 C3554 0.959 . S
H3543 C3557 0.929 . S
H3544 C3558 0.931 . S
H3545 C3560 0.930 . S
C3546 H3534 0.930 . S
C3546 C3547 1.399 . S
C3546 C3551 1.399 . S
C3547 C3546 1.399 . S
C3547 C3548 1.376 . S
C3548 H3535 0.930 . S
C3548 C3547 1.376 . S
C3548 C3549 1.388 . S
C3549 H3536 0.930 . S
C3549 C3548 1.388 . S
C3549 C3550 1.390 . S
C3550 C3549 1.390 . S
C3550 C3551 1.394 . S
C3550 C3556 1.465 . S
C3551 C3546 1.399 . S
C3551 C3550 1.394 . S
C3551 C3552 1.516 . S
C3552 C3551 1.516 . S
C3552 C3553 1.502 . S
C3552 C3554 1.561 . S
C3552 C3555 1.526 . S
C3553 H3537 0.959 . S
C3553 H3538 0.959 . S
C3553 H3539 0.961 . S
C3553 C3552 1.502 . S
C3554 H3540 0.960 . S
C3554 H3541 0.961 . S
C3554 H3542 0.959 . S
C3554 C3552 1.561 . S
C3555 C3552 1.526 . S
C3555 C3556 1.396 . S
C3555 C3560 1.390 . S
C3556 C3550 1.465 . S
C3556 C3555 1.396 . S
C3556 C3557 1.399 . S
C3557 H3543 0.929 . S
C3557 C3556 1.399 . S
C3557 C3558 1.385 . S
C3558 H3544 0.931 . S
C3558 C3557 1.385 . S
C3558 C3559 1.389 . S
C3559 C3558 1.389 . S
C3559 C3560 1.387 . S
C3560 H3545 0.930 . S
C3560 C3555 1.390 . S
C3560 C3559 1.387 . S
H3561 C3573 0.930 . S
H3562 C3575 0.930 . S
H3563 C3576 0.930 . S
H3564 C3580 0.959 . S
H3565 C3580 0.959 . S
H3566 C3580 0.961 . S
H3567 C3581 0.960 . S
H3568 C3581 0.961 . S
H3569 C3581 0.959 . S
H3570 C3584 0.929 . S
H3571 C3585 0.931 . S
H3572 C3587 0.930 . S
C3573 H3561 0.930 . S
C3573 C3574 1.399 . S
C3573 C3578 1.399 . S
C3574 C3573 1.399 . S
C3574 C3575 1.376 . S
C3575 H3562 0.930 . S
C3575 C3574 1.376 . S
C3575 C3576 1.388 . S
C3576 H3563 0.930 . S
C3576 C3575 1.388 . S
C3576 C3577 1.390 . S
C3577 C3576 1.390 . S
C3577 C3578 1.394 . S
C3577 C3583 1.465 . S
C3578 C3573 1.399 . S
C3578 C3577 1.394 . S
C3578 C3579 1.516 . S
C3579 C3578 1.516 . S
C3579 C3580 1.502 . S
C3579 C3581 1.561 . S
C3579 C3582 1.526 . S
C3580 H3564 0.959 . S
C3580 H3565 0.959 . S
C3580 H3566 0.961 . S
C3580 C3579 1.502 . S
C3581 H3567 0.960 . S
C3581 H3568 0.961 . S
C3581 H3569 0.959 . S
C3581 C3579 1.561 . S
C3582 C3579 1.526 . S
C3582 C3583 1.396 . S
C3582 C3587 1.390 . S
C3583 C3577 1.465 . S
C3583 C3582 1.396 . S
C3583 C3584 1.399 . S
C3584 H3570 0.929 . S
C3584 C3583 1.399 . S
C3584 C3585 1.385 . S
C3585 H3571 0.931 . S
C3585 C3584 1.385 . S
C3585 C3586 1.389 . S
C3586 C3585 1.389 . S
C3586 C3587 1.387 . S
C3587 H3572 0.930 . S
C3587 C3582 1.390 . S
C3587 C3586 1.387 . S
H3588 C3600 0.930 . S
H3589 C3602 0.930 . S
H3590 C3603 0.930 . S
H3591 C3607 0.959 . S
H3592 C3607 0.959 . S
H3593 C3607 0.961 . S
H3594 C3608 0.960 . S
H3595 C3608 0.961 . S
H3596 C3608 0.959 . S
H3597 C3611 0.929 . S
H3598 C3612 0.931 . S
H3599 C3614 0.930 . S
C3600 H3588 0.930 . S
C3600 C3601 1.399 . S
C3600 C3605 1.399 . S
C3601 C3600 1.399 . S
C3601 C3602 1.376 . S
C3602 H3589 0.930 . S
C3602 C3601 1.376 . S
C3602 C3603 1.388 . S
C3603 H3590 0.930 . S
C3603 C3602 1.388 . S
C3603 C3604 1.390 . S
C3604 C3603 1.390 . S
C3604 C3605 1.394 . S
C3604 C3610 1.465 . S
C3605 C3600 1.399 . S
C3605 C3604 1.394 . S
C3605 C3606 1.516 . S
C3606 C3605 1.516 . S
C3606 C3607 1.502 . S
C3606 C3608 1.561 . S
C3606 C3609 1.526 . S
C3607 H3591 0.959 . S
C3607 H3592 0.959 . S
C3607 H3593 0.961 . S
C3607 C3606 1.502 . S
C3608 H3594 0.960 . S
C3608 H3595 0.961 . S
C3608 H3596 0.959 . S
C3608 C3606 1.561 . S
C3609 C3606 1.526 . S
C3609 C3610 1.396 . S
C3609 C3614 1.390 . S
C3610 C3604 1.465 . S
C3610 C3609 1.396 . S
C3610 C3611 1.399 . S
C3611 H3597 0.929 . S
C3611 C3610 1.399 . S
C3611 C3612 1.385 . S
C3612 H3598 0.931 . S
C3612 C3611 1.385 . S
C3612 C3613 1.389 . S
C3613 C3612 1.389 . S
C3613 C3614 1.387 . S
C3614 H3599 0.930 . S
C3614 C3609 1.390 . S
C3614 C3613 1.387 . S
H3615 C3627 0.930 . S
H3616 C3629 0.930 . S
H3617 C3630 0.930 . S
H3618 C3634 0.959 . S
H3619 C3634 0.959 . S
H3620 C3634 0.961 . S
H3621 C3635 0.960 . S
H3622 C3635 0.961 . S
H3623 C3635 0.959 . S
H3624 C3638 0.929 . S
H3625 C3639 0.931 . S
H3626 C3641 0.930 . S
C3627 H3615 0.930 . S
C3627 C3628 1.399 . S
C3627 C3632 1.399 . S
C3628 C3627 1.399 . S
C3628 C3629 1.376 . S
C3629 H3616 0.930 . S
C3629 C3628 1.376 . S
C3629 C3630 1.388 . S
C3630 H3617 0.930 . S
C3630 C3629 1.388 . S
C3630 C3631 1.390 . S
C3631 C3630 1.390 . S
C3631 C3632 1.394 . S
C3631 C3637 1.465 . S
C3632 C3627 1.399 . S
C3632 C3631 1.394 . S
C3632 C3633 1.516 . S
C3633 C3632 1.516 . S
C3633 C3634 1.502 . S
C3633 C3635 1.561 . S
C3633 C3636 1.526 . S
C3634 H3618 0.959 . S
C3634 H3619 0.959 . S
C3634 H3620 0.961 . S
C3634 C3633 1.502 . S
C3635 H3621 0.960 . S
C3635 H3622 0.961 . S
C3635 H3623 0.959 . S
C3635 C3633 1.561 . S
C3636 C3633 1.526 . S
C3636 C3637 1.396 . S
C3636 C3641 1.390 . S
C3637 C3631 1.465 . S
C3637 C3636 1.396 . S
C3637 C3638 1.399 . S
C3638 H3624 0.929 . S
C3638 C3637 1.399 . S
C3638 C3639 1.385 . S
C3639 H3625 0.931 . S
C3639 C3638 1.385 . S
C3639 C3640 1.389 . S
C3640 C3639 1.389 . S
C3640 C3641 1.387 . S
C3641 H3626 0.930 . S
C3641 C3636 1.390 . S
C3641 C3640 1.387 . S
H3642 C3654 0.930 . S
H3643 C3656 0.930 . S
H3644 C3657 0.930 . S
H3645 C3661 0.959 . S
H3646 C3661 0.959 . S
H3647 C3661 0.961 . S
H3648 C3662 0.960 . S
H3649 C3662 0.961 . S
H3650 C3662 0.959 . S
H3651 C3665 0.929 . S
H3652 C3666 0.931 . S
H3653 C3668 0.930 . S
C3654 H3642 0.930 . S
C3654 C3655 1.399 . S
C3654 C3659 1.399 . S
C3655 C3654 1.399 . S
C3655 C3656 1.376 . S
C3656 H3643 0.930 . S
C3656 C3655 1.376 . S
C3656 C3657 1.388 . S
C3657 H3644 0.930 . S
C3657 C3656 1.388 . S
C3657 C3658 1.390 . S
C3658 C3657 1.390 . S
C3658 C3659 1.394 . S
C3658 C3664 1.465 . S
C3659 C3654 1.399 . S
C3659 C3658 1.394 . S
C3659 C3660 1.516 . S
C3660 C3659 1.516 . S
C3660 C3661 1.502 . S
C3660 C3662 1.561 . S
C3660 C3663 1.526 . S
C3661 H3645 0.959 . S
C3661 H3646 0.959 . S
C3661 H3647 0.961 . S
C3661 C3660 1.502 . S
C3662 H3648 0.960 . S
C3662 H3649 0.961 . S
C3662 H3650 0.959 . S
C3662 C3660 1.561 . S
C3663 C3660 1.526 . S
C3663 C3664 1.396 . S
C3663 C3668 1.390 . S
C3664 C3658 1.465 . S
C3664 C3663 1.396 . S
C3664 C3665 1.399 . S
C3665 H3651 0.929 . S
C3665 C3664 1.399 . S
C3665 C3666 1.385 . S
C3666 H3652 0.931 . S
C3666 C3665 1.385 . S
C3666 C3667 1.389 . S
C3667 C3666 1.389 . S
C3667 C3668 1.387 . S
C3668 H3653 0.930 . S
C3668 C3663 1.390 . S
C3668 C3667 1.387 . S
H3669 C3681 0.930 . S
H3670 C3683 0.930 . S
H3671 C3684 0.930 . S
H3672 C3688 0.959 . S
H3673 C3688 0.959 . S
H3674 C3688 0.961 . S
H3675 C3689 0.960 . S
H3676 C3689 0.961 . S
H3677 C3689 0.959 . S
H3678 C3692 0.929 . S
H3679 C3693 0.931 . S
H3680 C3695 0.930 . S
C3681 H3669 0.930 . S
C3681 C3682 1.399 . S
C3681 C3686 1.399 . S
C3682 C3681 1.399 . S
C3682 C3683 1.376 . S
C3683 H3670 0.930 . S
C3683 C3682 1.376 . S
C3683 C3684 1.388 . S
C3684 H3671 0.930 . S
C3684 C3683 1.388 . S
C3684 C3685 1.390 . S
C3685 C3684 1.390 . S
C3685 C3686 1.394 . S
C3685 C3691 1.465 . S
C3686 C3681 1.399 . S
C3686 C3685 1.394 . S
C3686 C3687 1.516 . S
C3687 C3686 1.516 . S
C3687 C3688 1.502 . S
C3687 C3689 1.561 . S
C3687 C3690 1.526 . S
C3688 H3672 0.959 . S
C3688 H3673 0.959 . S
C3688 H3674 0.961 . S
C3688 C3687 1.502 . S
C3689 H3675 0.960 . S
C3689 H3676 0.961 . S
C3689 H3677 0.959 . S
C3689 C3687 1.561 . S
C3690 C3687 1.526 . S
C3690 C3691 1.396 . S
C3690 C3695 1.390 . S
C3691 C3685 1.465 . S
C3691 C3690 1.396 . S
C3691 C3692 1.399 . S
C3692 H3678 0.929 . S
C3692 C3691 1.399 . S
C3692 C3693 1.385 . S
C3693 H3679 0.931 . S
C3693 C3692 1.385 . S
C3693 C3694 1.389 . S
C3694 C3693 1.389 . S
C3694 C3695 1.387 . S
C3695 H3680 0.930 . S
C3695 C3690 1.390 . S
C3695 C3694 1.387 . S
H3696 C3708 0.930 . S
H3697 C3710 0.930 . S
H3698 C3711 0.930 . S
H3699 C3715 0.959 . S
H3700 C3715 0.959 . S
H3701 C3715 0.961 . S
H3702 C3716 0.960 . S
H3703 C3716 0.961 . S
H3704 C3716 0.959 . S
H3705 C3719 0.929 . S
H3706 C3720 0.931 . S
H3707 C3722 0.930 . S
C3708 H3696 0.930 . S
C3708 C3709 1.399 . S
C3708 C3713 1.399 . S
C3709 C3708 1.399 . S
C3709 C3710 1.376 . S
C3710 H3697 0.930 . S
C3710 C3709 1.376 . S
C3710 C3711 1.388 . S
C3711 H3698 0.930 . S
C3711 C3710 1.388 . S
C3711 C3712 1.390 . S
C3712 C3711 1.390 . S
C3712 C3713 1.394 . S
C3712 C3718 1.465 . S
C3713 C3708 1.399 . S
C3713 C3712 1.394 . S
C3713 C3714 1.516 . S
C3714 C3713 1.516 . S
C3714 C3715 1.502 . S
C3714 C3716 1.561 . S
C3714 C3717 1.526 . S
C3715 H3699 0.959 . S
C3715 H3700 0.959 . S
C3715 H3701 0.961 . S
C3715 C3714 1.502 . S
C3716 H3702 0.960 . S
C3716 H3703 0.961 . S
C3716 H3704 0.959 . S
C3716 C3714 1.561 . S
C3717 C3714 1.526 . S
C3717 C3718 1.396 . S
C3717 C3722 1.390 . S
C3718 C3712 1.465 . S
C3718 C3717 1.396 . S
C3718 C3719 1.399 . S
C3719 H3705 0.929 . S
C3719 C3718 1.399 . S
C3719 C3720 1.385 . S
C3720 H3706 0.931 . S
C3720 C3719 1.385 . S
C3720 C3721 1.389 . S
C3721 C3720 1.389 . S
C3721 C3722 1.387 . S
C3722 H3707 0.930 . S
C3722 C3717 1.390 . S
C3722 C3721 1.387 . S
H3723 C3735 0.930 . S
H3724 C3737 0.930 . S
H3725 C3738 0.930 . S
H3726 C3742 0.959 . S
H3727 C3742 0.959 . S
H3728 C3742 0.961 . S
H3729 C3743 0.960 . S
H3730 C3743 0.961 . S
H3731 C3743 0.959 . S
H3732 C3746 0.929 . S
H3733 C3747 0.931 . S
H3734 C3749 0.930 . S
C3735 H3723 0.930 . S
C3735 C3736 1.399 . S
C3735 C3740 1.399 . S
C3736 C3735 1.399 . S
C3736 C3737 1.376 . S
C3737 H3724 0.930 . S
C3737 C3736 1.376 . S
C3737 C3738 1.388 . S
C3738 H3725 0.930 . S
C3738 C3737 1.388 . S
C3738 C3739 1.390 . S
C3739 C3738 1.390 . S
C3739 C3740 1.394 . S
C3739 C3745 1.465 . S
C3740 C3735 1.399 . S
C3740 C3739 1.394 . S
C3740 C3741 1.516 . S
C3741 C3740 1.516 . S
C3741 C3742 1.502 . S
C3741 C3743 1.561 . S
C3741 C3744 1.526 . S
C3742 H3726 0.959 . S
C3742 H3727 0.959 . S
C3742 H3728 0.961 . S
C3742 C3741 1.502 . S
C3743 H3729 0.960 . S
C3743 H3730 0.961 . S
C3743 H3731 0.959 . S
C3743 C3741 1.561 . S
C3744 C3741 1.526 . S
C3744 C3745 1.396 . S
C3744 C3749 1.390 . S
C3745 C3739 1.465 . S
C3745 C3744 1.396 . S
C3745 C3746 1.399 . S
C3746 H3732 0.929 . S
C3746 C3745 1.399 . S
C3746 C3747 1.385 . S
C3747 H3733 0.931 . S
C3747 C3746 1.385 . S
C3747 C3748 1.389 . S
C3748 C3747 1.389 . S
C3748 C3749 1.387 . S
C3749 H3734 0.930 . S
C3749 C3744 1.390 . S
C3749 C3748 1.387 . S
H3750 C3762 0.930 . S
H3751 C3764 0.930 . S
H3752 C3765 0.930 . S
H3753 C3769 0.959 . S
H3754 C3769 0.959 . S
H3755 C3769 0.961 . S
H3756 C3770 0.960 . S
H3757 C3770 0.961 . S
H3758 C3770 0.959 . S
H3759 C3773 0.929 . S
H3760 C3774 0.931 . S
H3761 C3776 0.930 . S
C3762 H3750 0.930 . S
C3762 C3763 1.399 . S
C3762 C3767 1.399 . S
C3763 C3762 1.399 . S
C3763 C3764 1.376 . S
C3764 H3751 0.930 . S
C3764 C3763 1.376 . S
C3764 C3765 1.388 . S
C3765 H3752 0.930 . S
C3765 C3764 1.388 . S
C3765 C3766 1.390 . S
C3766 C3765 1.390 . S
C3766 C3767 1.394 . S
C3766 C3772 1.465 . S
C3767 C3762 1.399 . S
C3767 C3766 1.394 . S
C3767 C3768 1.516 . S
C3768 C3767 1.516 . S
C3768 C3769 1.502 . S
C3768 C3770 1.561 . S
C3768 C3771 1.526 . S
C3769 H3753 0.959 . S
C3769 H3754 0.959 . S
C3769 H3755 0.961 . S
C3769 C3768 1.502 . S
C3770 H3756 0.960 . S
C3770 H3757 0.961 . S
C3770 H3758 0.959 . S
C3770 C3768 1.561 . S
C3771 C3768 1.526 . S
C3771 C3772 1.396 . S
C3771 C3776 1.390 . S
C3772 C3766 1.465 . S
C3772 C3771 1.396 . S
C3772 C3773 1.399 . S
C3773 H3759 0.929 . S
C3773 C3772 1.399 . S
C3773 C3774 1.385 . S
C3774 H3760 0.931 . S
C3774 C3773 1.385 . S
C3774 C3775 1.389 . S
C3775 C3774 1.389 . S
C3775 C3776 1.387 . S
C3776 H3761 0.930 . S
C3776 C3771 1.390 . S
C3776 C3775 1.387 . S
H3777 C3789 0.930 . S
H3778 C3791 0.930 . S
H3779 C3792 0.930 . S
H3780 C3796 0.959 . S
H3781 C3796 0.959 . S
H3782 C3796 0.961 . S
H3783 C3797 0.960 . S
H3784 C3797 0.961 . S
H3785 C3797 0.959 . S
H3786 C3800 0.929 . S
H3787 C3801 0.931 . S
H3788 C3803 0.930 . S
C3789 H3777 0.930 . S
C3789 C3790 1.399 . S
C3789 C3794 1.399 . S
C3790 C3789 1.399 . S
C3790 C3791 1.376 . S
C3791 H3778 0.930 . S
C3791 C3790 1.376 . S
C3791 C3792 1.388 . S
C3792 H3779 0.930 . S
C3792 C3791 1.388 . S
C3792 C3793 1.390 . S
C3793 C3792 1.390 . S
C3793 C3794 1.394 . S
C3793 C3799 1.465 . S
C3794 C3789 1.399 . S
C3794 C3793 1.394 . S
C3794 C3795 1.516 . S
C3795 C3794 1.516 . S
C3795 C3796 1.502 . S
C3795 C3797 1.561 . S
C3795 C3798 1.526 . S
C3796 H3780 0.959 . S
C3796 H3781 0.959 . S
C3796 H3782 0.961 . S
C3796 C3795 1.502 . S
C3797 H3783 0.960 . S
C3797 H3784 0.961 . S
C3797 H3785 0.959 . S
C3797 C3795 1.561 . S
C3798 C3795 1.526 . S
C3798 C3799 1.396 . S
C3798 C3803 1.390 . S
C3799 C3793 1.465 . S
C3799 C3798 1.396 . S
C3799 C3800 1.399 . S
C3800 H3786 0.929 . S
C3800 C3799 1.399 . S
C3800 C3801 1.385 . S
C3801 H3787 0.931 . S
C3801 C3800 1.385 . S
C3801 C3802 1.389 . S
C3802 C3801 1.389 . S
C3802 C3803 1.387 . S
C3803 H3788 0.930 . S
C3803 C3798 1.390 . S
C3803 C3802 1.387 . S
H3804 C3816 0.930 . S
H3805 C3818 0.930 . S
H3806 C3819 0.930 . S
H3807 C3823 0.959 . S
H3808 C3823 0.959 . S
H3809 C3823 0.961 . S
H3810 C3824 0.960 . S
H3811 C3824 0.961 . S
H3812 C3824 0.959 . S
H3813 C3827 0.929 . S
H3814 C3828 0.931 . S
H3815 C3830 0.930 . S
C3816 H3804 0.930 . S
C3816 C3817 1.399 . S
C3816 C3821 1.399 . S
C3817 C3816 1.399 . S
C3817 C3818 1.376 . S
C3818 H3805 0.930 . S
C3818 C3817 1.376 . S
C3818 C3819 1.388 . S
C3819 H3806 0.930 . S
C3819 C3818 1.388 . S
C3819 C3820 1.390 . S
C3820 C3819 1.390 . S
C3820 C3821 1.394 . S
C3820 C3826 1.465 . S
C3821 C3816 1.399 . S
C3821 C3820 1.394 . S
C3821 C3822 1.516 . S
C3822 C3821 1.516 . S
C3822 C3823 1.502 . S
C3822 C3824 1.561 . S
C3822 C3825 1.526 . S
C3823 H3807 0.959 . S
C3823 H3808 0.959 . S
C3823 H3809 0.961 . S
C3823 C3822 1.502 . S
C3824 H3810 0.960 . S
C3824 H3811 0.961 . S
C3824 H3812 0.959 . S
C3824 C3822 1.561 . S
C3825 C3822 1.526 . S
C3825 C3826 1.396 . S
C3825 C3830 1.390 . S
C3826 C3820 1.465 . S
C3826 C3825 1.396 . S
C3826 C3827 1.399 . S
C3827 H3813 0.929 . S
C3827 C3826 1.399 . S
C3827 C3828 1.385 . S
C3828 H3814 0.931 . S
C3828 C3827 1.385 . S
C3828 C3829 1.389 . S
C3829 C3828 1.389 . S
C3829 C3830 1.387 . S
C3830 H3815 0.930 . S
C3830 C3825 1.390 . S
C3830 C3829 1.387 . S
H3831 C3843 0.930 . S
H3832 C3845 0.930 . S
H3833 C3846 0.930 . S
H3834 C3850 0.959 . S
H3835 C3850 0.959 . S
H3836 C3850 0.961 . S
H3837 C3851 0.960 . S
H3838 C3851 0.961 . S
H3839 C3851 0.959 . S
H3840 C3854 0.929 . S
H3841 C3855 0.931 . S
H3842 C3857 0.930 . S
C3843 H3831 0.930 . S
C3843 C3844 1.399 . S
C3843 C3848 1.399 . S
C3844 C3843 1.399 . S
C3844 C3845 1.376 . S
C3845 H3832 0.930 . S
C3845 C3844 1.376 . S
C3845 C3846 1.388 . S
C3846 H3833 0.930 . S
C3846 C3845 1.388 . S
C3846 C3847 1.390 . S
C3847 C3846 1.390 . S
C3847 C3848 1.394 . S
C3847 C3853 1.465 . S
C3848 C3843 1.399 . S
C3848 C3847 1.394 . S
C3848 C3849 1.516 . S
C3849 C3848 1.516 . S
C3849 C3850 1.502 . S
C3849 C3851 1.561 . S
C3849 C3852 1.526 . S
C3850 H3834 0.959 . S
C3850 H3835 0.959 . S
C3850 H3836 0.961 . S
C3850 C3849 1.502 . S
C3851 H3837 0.960 . S
C3851 H3838 0.961 . S
C3851 H3839 0.959 . S
C3851 C3849 1.561 . S
C3852 C3849 1.526 . S
C3852 C3853 1.396 . S
C3852 C3857 1.390 . S
C3853 C3847 1.465 . S
C3853 C3852 1.396 . S
C3853 C3854 1.399 . S
C3854 H3840 0.929 . S
C3854 C3853 1.399 . S
C3854 C3855 1.385 . S
C3855 H3841 0.931 . S
C3855 C3854 1.385 . S
C3855 C3856 1.389 . S
C3856 C3855 1.389 . S
C3856 C3857 1.387 . S
C3857 H3842 0.930 . S
C3857 C3852 1.390 . S
C3857 C3856 1.387 . S
H3858 C3870 0.930 . S
H3859 C3872 0.930 . S
H3860 C3873 0.930 . S
H3861 C3877 0.959 . S
H3862 C3877 0.959 . S
H3863 C3877 0.961 . S
H3864 C3878 0.960 . S
H3865 C3878 0.961 . S
H3866 C3878 0.959 . S
H3867 C3881 0.929 . S
H3868 C3882 0.931 . S
H3869 C3884 0.930 . S
C3870 H3858 0.930 . S
C3870 C3871 1.399 . S
C3870 C3875 1.399 . S
C3871 C3870 1.399 . S
C3871 C3872 1.376 . S
C3872 H3859 0.930 . S
C3872 C3871 1.376 . S
C3872 C3873 1.388 . S
C3873 H3860 0.930 . S
C3873 C3872 1.388 . S
C3873 C3874 1.390 . S
C3874 C3873 1.390 . S
C3874 C3875 1.394 . S
C3874 C3880 1.465 . S
C3875 C3870 1.399 . S
C3875 C3874 1.394 . S
C3875 C3876 1.516 . S
C3876 C3875 1.516 . S
C3876 C3877 1.502 . S
C3876 C3878 1.561 . S
C3876 C3879 1.526 . S
C3877 H3861 0.959 . S
C3877 H3862 0.959 . S
C3877 H3863 0.961 . S
C3877 C3876 1.502 . S
C3878 H3864 0.960 . S
C3878 H3865 0.961 . S
C3878 H3866 0.959 . S
C3878 C3876 1.561 . S
C3879 C3876 1.526 . S
C3879 C3880 1.396 . S
C3879 C3884 1.390 . S
C3880 C3874 1.465 . S
C3880 C3879 1.396 . S
C3880 C3881 1.399 . S
C3881 H3867 0.929 . S
C3881 C3880 1.399 . S
C3881 C3882 1.385 . S
C3882 H3868 0.931 . S
C3882 C3881 1.385 . S
C3882 C3883 1.389 . S
C3883 C3882 1.389 . S
C3883 C3884 1.387 . S
C3884 H3869 0.930 . S
C3884 C3879 1.390 . S
C3884 C3883 1.387 . S
H3885 C3897 0.930 . S
H3886 C3899 0.930 . S
H3887 C3900 0.930 . S
H3888 C3904 0.959 . S
H3889 C3904 0.959 . S
H3890 C3904 0.961 . S
H3891 C3905 0.960 . S
H3892 C3905 0.961 . S
H3893 C3905 0.959 . S
H3894 C3908 0.929 . S
H3895 C3909 0.931 . S
H3896 C3911 0.930 . S
C3897 H3885 0.930 . S
C3897 C3898 1.399 . S
C3897 C3902 1.399 . S
C3898 C3897 1.399 . S
C3898 C3899 1.376 . S
C3899 H3886 0.930 . S
C3899 C3898 1.376 . S
C3899 C3900 1.388 . S
C3900 H3887 0.930 . S
C3900 C3899 1.388 . S
C3900 C3901 1.390 . S
C3901 C3900 1.390 . S
C3901 C3902 1.394 . S
C3901 C3907 1.465 . S
C3902 C3897 1.399 . S
C3902 C3901 1.394 . S
C3902 C3903 1.516 . S
C3903 C3902 1.516 . S
C3903 C3904 1.502 . S
C3903 C3905 1.561 . S
C3903 C3906 1.526 . S
C3904 H3888 0.959 . S
C3904 H3889 0.959 . S
C3904 H3890 0.961 . S
C3904 C3903 1.502 . S
C3905 H3891 0.960 . S
C3905 H3892 0.961 . S
C3905 H3893 0.959 . S
C3905 C3903 1.561 . S
C3906 C3903 1.526 . S
C3906 C3907 1.396 . S
C3906 C3911 1.390 . S
C3907 C3901 1.465 . S
C3907 C3906 1.396 . S
C3907 C3908 1.399 . S
C3908 H3894 0.929 . S
C3908 C3907 1.399 . S
C3908 C3909 1.385 . S
C3909 H3895 0.931 . S
C3909 C3908 1.385 . S
C3909 C3910 1.389 . S
C3910 C3909 1.389 . S
C3910 C3911 1.387 . S
C3911 H3896 0.930 . S
C3911 C3906 1.390 . S
C3911 C3910 1.387 . S
H3912 C3924 0.930 . S
H3913 C3926 0.930 . S
H3914 C3927 0.930 . S
H3915 C3931 0.959 . S
H3916 C3931 0.959 . S
H3917 C3931 0.961 . S
H3918 C3932 0.960 . S
H3919 C3932 0.961 . S
H3920 C3932 0.959 . S
H3921 C3935 0.929 . S
H3922 C3936 0.931 . S
H3923 C3938 0.930 . S
C3924 H3912 0.930 . S
C3924 C3925 1.399 . S
C3924 C3929 1.399 . S
C3925 C3924 1.399 . S
C3925 C3926 1.376 . S
C3926 H3913 0.930 . S
C3926 C3925 1.376 . S
C3926 C3927 1.388 . S
C3927 H3914 0.930 . S
C3927 C3926 1.388 . S
C3927 C3928 1.390 . S
C3928 C3927 1.390 . S
C3928 C3929 1.394 . S
C3928 C3934 1.465 . S
C3929 C3924 1.399 . S
C3929 C3928 1.394 . S
C3929 C3930 1.516 . S
C3930 C3929 1.516 . S
C3930 C3931 1.502 . S
C3930 C3932 1.561 . S
C3930 C3933 1.526 . S
C3931 H3915 0.959 . S
C3931 H3916 0.959 . S
C3931 H3917 0.961 . S
C3931 C3930 1.502 . S
C3932 H3918 0.960 . S
C3932 H3919 0.961 . S
C3932 H3920 0.959 . S
C3932 C3930 1.561 . S
C3933 C3930 1.526 . S
C3933 C3934 1.396 . S
C3933 C3938 1.390 . S
C3934 C3928 1.465 . S
C3934 C3933 1.396 . S
C3934 C3935 1.399 . S
C3935 H3921 0.929 . S
C3935 C3934 1.399 . S
C3935 C3936 1.385 . S
C3936 H3922 0.931 . S
C3936 C3935 1.385 . S
C3936 C3937 1.389 . S
C3937 C3936 1.389 . S
C3937 C3938 1.387 . S
C3938 H3923 0.930 . S
C3938 C3933 1.390 . S
C3938 C3937 1.387 . S
H3939 C3951 0.930 . S
H3940 C3953 0.930 . S
H3941 C3954 0.930 . S
H3942 C3958 0.959 . S
H3943 C3958 0.959 . S
H3944 C3958 0.961 . S
H3945 C3959 0.960 . S
H3946 C3959 0.961 . S
H3947 C3959 0.959 . S
H3948 C3962 0.929 . S
H3949 C3963 0.931 . S
H3950 C3965 0.930 . S
C3951 H3939 0.930 . S
C3951 C3952 1.399 . S
C3951 C3956 1.399 . S
C3952 C3951 1.399 . S
C3952 C3953 1.376 . S
C3953 H3940 0.930 . S
C3953 C3952 1.376 . S
C3953 C3954 1.388 . S
C3954 H3941 0.930 . S
C3954 C3953 1.388 . S
C3954 C3955 1.390 . S
C3955 C3954 1.390 . S
C3955 C3956 1.394 . S
C3955 C3961 1.465 . S
C3956 C3951 1.399 . S
C3956 C3955 1.394 . S
C3956 C3957 1.516 . S
C3957 C3956 1.516 . S
C3957 C3958 1.502 . S
C3957 C3959 1.561 . S
C3957 C3960 1.526 . S
C3958 H3942 0.959 . S
C3958 H3943 0.959 . S
C3958 H3944 0.961 . S
C3958 C3957 1.502 . S
C3959 H3945 0.960 . S
C3959 H3946 0.961 . S
C3959 H3947 0.959 . S
C3959 C3957 1.561 . S
C3960 C3957 1.526 . S
C3960 C3961 1.396 . S
C3960 C3965 1.390 . S
C3961 C3955 1.465 . S
C3961 C3960 1.396 . S
C3961 C3962 1.399 . S
C3962 H3948 0.929 . S
C3962 C3961 1.399 . S
C3962 C3963 1.385 . S
C3963 H3949 0.931 . S
C3963 C3962 1.385 . S
C3963 C3964 1.389 . S
C3964 C3963 1.389 . S
C3964 C3965 1.387 . S
C3965 H3950 0.930 . S
C3965 C3960 1.390 . S
C3965 C3964 1.387 . S
H3966 C3978 0.930 . S
H3967 C3980 0.930 . S
H3968 C3981 0.930 . S
H3969 C3985 0.959 . S
H3970 C3985 0.959 . S
H3971 C3985 0.961 . S
H3972 C3986 0.960 . S
H3973 C3986 0.961 . S
H3974 C3986 0.959 . S
H3975 C3989 0.929 . S
H3976 C3990 0.931 . S
H3977 C3992 0.930 . S
C3978 H3966 0.930 . S
C3978 C3979 1.399 . S
C3978 C3983 1.399 . S
C3979 C3978 1.399 . S
C3979 C3980 1.376 . S
C3980 H3967 0.930 . S
C3980 C3979 1.376 . S
C3980 C3981 1.388 . S
C3981 H3968 0.930 . S
C3981 C3980 1.388 . S
C3981 C3982 1.390 . S
C3982 C3981 1.390 . S
C3982 C3983 1.394 . S
C3982 C3988 1.465 . S
C3983 C3978 1.399 . S
C3983 C3982 1.394 . S
C3983 C3984 1.516 . S
C3984 C3983 1.516 . S
C3984 C3985 1.502 . S
C3984 C3986 1.561 . S
C3984 C3987 1.526 . S
C3985 H3969 0.959 . S
C3985 H3970 0.959 . S
C3985 H3971 0.961 . S
C3985 C3984 1.502 . S
C3986 H3972 0.960 . S
C3986 H3973 0.961 . S
C3986 H3974 0.959 . S
C3986 C3984 1.561 . S
C3987 C3984 1.526 . S
C3987 C3988 1.396 . S
C3987 C3992 1.390 . S
C3988 C3982 1.465 . S
C3988 C3987 1.396 . S
C3988 C3989 1.399 . S
C3989 H3975 0.929 . S
C3989 C3988 1.399 . S
C3989 C3990 1.385 . S
C3990 H3976 0.931 . S
C3990 C3989 1.385 . S
C3990 C3991 1.389 . S
C3991 C3990 1.389 . S
C3991 C3992 1.387 . S
C3992 H3977 0.930 . S
C3992 C3987 1.390 . S
C3992 C3991 1.387 . S
H3993 C4005 0.930 . S
H3994 C4007 0.930 . S
H3995 C4008 0.930 . S
H3996 C4012 0.959 . S
H3997 C4012 0.959 . S
H3998 C4012 0.961 . S
H3999 C4013 0.960 . S
H4000 C4013 0.961 . S
H4001 C4013 0.959 . S
H4002 C4016 0.929 . S
H4003 C4017 0.931 . S
H4004 C4019 0.930 . S
C4005 H3993 0.930 . S
C4005 C4006 1.399 . S
C4005 C4010 1.399 . S
C4006 C4005 1.399 . S
C4006 C4007 1.376 . S
C4007 H3994 0.930 . S
C4007 C4006 1.376 . S
C4007 C4008 1.388 . S
C4008 H3995 0.930 . S
C4008 C4007 1.388 . S
C4008 C4009 1.390 . S
C4009 C4008 1.390 . S
C4009 C4010 1.394 . S
C4009 C4015 1.465 . S
C4010 C4005 1.399 . S
C4010 C4009 1.394 . S
C4010 C4011 1.516 . S
C4011 C4010 1.516 . S
C4011 C4012 1.502 . S
C4011 C4013 1.561 . S
C4011 C4014 1.526 . S
C4012 H3996 0.959 . S
C4012 H3997 0.959 . S
C4012 H3998 0.961 . S
C4012 C4011 1.502 . S
C4013 H3999 0.960 . S
C4013 H4000 0.961 . S
C4013 H4001 0.959 . S
C4013 C4011 1.561 . S
C4014 C4011 1.526 . S
C4014 C4015 1.396 . S
C4014 C4019 1.390 . S
C4015 C4009 1.465 . S
C4015 C4014 1.396 . S
C4015 C4016 1.399 . S
C4016 H4002 0.929 . S
C4016 C4015 1.399 . S
C4016 C4017 1.385 . S
C4017 H4003 0.931 . S
C4017 C4016 1.385 . S
C4017 C4018 1.389 . S
C4018 C4017 1.389 . S
C4018 C4019 1.387 . S
C4019 H4004 0.930 . S
C4019 C4014 1.390 . S
C4019 C4018 1.387 . S
H4020 C4032 0.930 . S
H4021 C4034 0.930 . S
H4022 C4035 0.930 . S
H4023 C4039 0.959 . S
H4024 C4039 0.959 . S
H4025 C4039 0.961 . S
H4026 C4040 0.960 . S
H4027 C4040 0.961 . S
H4028 C4040 0.959 . S
H4029 C4043 0.929 . S
H4030 C4044 0.931 . S
H4031 C4046 0.930 . S
C4032 H4020 0.930 . S
C4032 C4033 1.399 . S
C4032 C4037 1.399 . S
C4033 C4032 1.399 . S
C4033 C4034 1.376 . S
C4034 H4021 0.930 . S
C4034 C4033 1.376 . S
C4034 C4035 1.388 . S
C4035 H4022 0.930 . S
C4035 C4034 1.388 . S
C4035 C4036 1.390 . S
C4036 C4035 1.390 . S
C4036 C4037 1.394 . S
C4036 C4042 1.465 . S
C4037 C4032 1.399 . S
C4037 C4036 1.394 . S
C4037 C4038 1.516 . S
C4038 C4037 1.516 . S
C4038 C4039 1.502 . S
C4038 C4040 1.561 . S
C4038 C4041 1.526 . S
C4039 H4023 0.959 . S
C4039 H4024 0.959 . S
C4039 H4025 0.961 . S
C4039 C4038 1.502 . S
C4040 H4026 0.960 . S
C4040 H4027 0.961 . S
C4040 H4028 0.959 . S
C4040 C4038 1.561 . S
C4041 C4038 1.526 . S
C4041 C4042 1.396 . S
C4041 C4046 1.390 . S
C4042 C4036 1.465 . S
C4042 C4041 1.396 . S
C4042 C4043 1.399 . S
C4043 H4029 0.929 . S
C4043 C4042 1.399 . S
C4043 C4044 1.385 . S
C4044 H4030 0.931 . S
C4044 C4043 1.385 . S
C4044 C4045 1.389 . S
C4045 C4044 1.389 . S
C4045 C4046 1.387 . S
C4046 H4031 0.930 . S
C4046 C4041 1.390 . S
C4046 C4045 1.387 . S
H4047 C4059 0.930 . S
H4048 C4061 0.930 . S
H4049 C4062 0.930 . S
H4050 C4066 0.959 . S
H4051 C4066 0.959 . S
H4052 C4066 0.961 . S
H4053 C4067 0.960 . S
H4054 C4067 0.961 . S
H4055 C4067 0.959 . S
H4056 C4070 0.929 . S
H4057 C4071 0.931 . S
H4058 C4073 0.930 . S
C4059 H4047 0.930 . S
C4059 C4060 1.399 . S
C4059 C4064 1.399 . S
C4060 C4059 1.399 . S
C4060 C4061 1.376 . S
C4061 H4048 0.930 . S
C4061 C4060 1.376 . S
C4061 C4062 1.388 . S
C4062 H4049 0.930 . S
C4062 C4061 1.388 . S
C4062 C4063 1.390 . S
C4063 C4062 1.390 . S
C4063 C4064 1.394 . S
C4063 C4069 1.465 . S
C4064 C4059 1.399 . S
C4064 C4063 1.394 . S
C4064 C4065 1.516 . S
C4065 C4064 1.516 . S
C4065 C4066 1.502 . S
C4065 C4067 1.561 . S
C4065 C4068 1.526 . S
C4066 H4050 0.959 . S
C4066 H4051 0.959 . S
C4066 H4052 0.961 . S
C4066 C4065 1.502 . S
C4067 H4053 0.960 . S
C4067 H4054 0.961 . S
C4067 H4055 0.959 . S
C4067 C4065 1.561 . S
C4068 C4065 1.526 . S
C4068 C4069 1.396 . S
C4068 C4073 1.390 . S
C4069 C4063 1.465 . S
C4069 C4068 1.396 . S
C4069 C4070 1.399 . S
C4070 H4056 0.929 . S
C4070 C4069 1.399 . S
C4070 C4071 1.385 . S
C4071 H4057 0.931 . S
C4071 C4070 1.385 . S
C4071 C4072 1.389 . S
C4072 C4071 1.389 . S
C4072 C4073 1.387 . S
C4073 H4058 0.930 . S
C4073 C4068 1.390 . S
C4073 C4072 1.387 . S
H4074 C4086 0.930 . S
H4075 C4088 0.930 . S
H4076 C4089 0.930 . S
H4077 C4093 0.959 . S
H4078 C4093 0.959 . S
H4079 C4093 0.961 . S
H4080 C4094 0.960 . S
H4081 C4094 0.961 . S
H4082 C4094 0.959 . S
H4083 C4097 0.929 . S
H4084 C4098 0.931 . S
H4085 C4100 0.930 . S
C4086 H4074 0.930 . S
C4086 C4087 1.399 . S
C4086 C4091 1.399 . S
C4087 C4086 1.399 . S
C4087 C4088 1.376 . S
C4088 H4075 0.930 . S
C4088 C4087 1.376 . S
C4088 C4089 1.388 . S
C4089 H4076 0.930 . S
C4089 C4088 1.388 . S
C4089 C4090 1.390 . S
C4090 C4089 1.390 . S
C4090 C4091 1.394 . S
C4090 C4096 1.465 . S
C4091 C4086 1.399 . S
C4091 C4090 1.394 . S
C4091 C4092 1.516 . S
C4092 C4091 1.516 . S
C4092 C4093 1.502 . S
C4092 C4094 1.561 . S
C4092 C4095 1.526 . S
C4093 H4077 0.959 . S
C4093 H4078 0.959 . S
C4093 H4079 0.961 . S
C4093 C4092 1.502 . S
C4094 H4080 0.960 . S
C4094 H4081 0.961 . S
C4094 H4082 0.959 . S
C4094 C4092 1.561 . S
C4095 C4092 1.526 . S
C4095 C4096 1.396 . S
C4095 C4100 1.390 . S
C4096 C4090 1.465 . S
C4096 C4095 1.396 . S
C4096 C4097 1.399 . S
C4097 H4083 0.929 . S
C4097 C4096 1.399 . S
C4097 C4098 1.385 . S
C4098 H4084 0.931 . S
C4098 C4097 1.385 . S
C4098 C4099 1.389 . S
C4099 C4098 1.389 . S
C4099 C4100 1.387 . S
C4100 H4085 0.930 . S
C4100 C4095 1.390 . S
C4100 C4099 1.387 . S
H4101 C4113 0.930 . S
H4102 C4115 0.930 . S
H4103 C4116 0.930 . S
H4104 C4120 0.959 . S
H4105 C4120 0.959 . S
H4106 C4120 0.961 . S
H4107 C4121 0.960 . S
H4108 C4121 0.961 . S
H4109 C4121 0.959 . S
H4110 C4124 0.929 . S
H4111 C4125 0.931 . S
H4112 C4127 0.930 . S
C4113 H4101 0.930 . S
C4113 C4114 1.399 . S
C4113 C4118 1.399 . S
C4114 C4113 1.399 . S
C4114 C4115 1.376 . S
C4115 H4102 0.930 . S
C4115 C4114 1.376 . S
C4115 C4116 1.388 . S
C4116 H4103 0.930 . S
C4116 C4115 1.388 . S
C4116 C4117 1.390 . S
C4117 C4116 1.390 . S
C4117 C4118 1.394 . S
C4117 C4123 1.465 . S
C4118 C4113 1.399 . S
C4118 C4117 1.394 . S
C4118 C4119 1.516 . S
C4119 C4118 1.516 . S
C4119 C4120 1.502 . S
C4119 C4121 1.561 . S
C4119 C4122 1.526 . S
C4120 H4104 0.959 . S
C4120 H4105 0.959 . S
C4120 H4106 0.961 . S
C4120 C4119 1.502 . S
C4121 H4107 0.960 . S
C4121 H4108 0.961 . S
C4121 H4109 0.959 . S
C4121 C4119 1.561 . S
C4122 C4119 1.526 . S
C4122 C4123 1.396 . S
C4122 C4127 1.390 . S
C4123 C4117 1.465 . S
C4123 C4122 1.396 . S
C4123 C4124 1.399 . S
C4124 H4110 0.929 . S
C4124 C4123 1.399 . S
C4124 C4125 1.385 . S
C4125 H4111 0.931 . S
C4125 C4124 1.385 . S
C4125 C4126 1.389 . S
C4126 C4125 1.389 . S
C4126 C4127 1.387 . S
C4127 H4112 0.930 . S
C4127 C4122 1.390 . S
C4127 C4126 1.387 . S
H4128 C4140 0.930 . S
H4129 C4142 0.930 . S
H4130 C4143 0.930 . S
H4131 C4147 0.959 . S
H4132 C4147 0.959 . S
H4133 C4147 0.961 . S
H4134 C4148 0.960 . S
H4135 C4148 0.961 . S
H4136 C4148 0.959 . S
H4137 C4151 0.929 . S
H4138 C4152 0.931 . S
H4139 C4154 0.930 . S
C4140 H4128 0.930 . S
C4140 C4141 1.399 . S
C4140 C4145 1.399 . S
C4141 C4140 1.399 . S
C4141 C4142 1.376 . S
C4142 H4129 0.930 . S
C4142 C4141 1.376 . S
C4142 C4143 1.388 . S
C4143 H4130 0.930 . S
C4143 C4142 1.388 . S
C4143 C4144 1.390 . S
C4144 C4143 1.390 . S
C4144 C4145 1.394 . S
C4144 C4150 1.465 . S
C4145 C4140 1.399 . S
C4145 C4144 1.394 . S
C4145 C4146 1.516 . S
C4146 C4145 1.516 . S
C4146 C4147 1.502 . S
C4146 C4148 1.561 . S
C4146 C4149 1.526 . S
C4147 H4131 0.959 . S
C4147 H4132 0.959 . S
C4147 H4133 0.961 . S
C4147 C4146 1.502 . S
C4148 H4134 0.960 . S
C4148 H4135 0.961 . S
C4148 H4136 0.959 . S
C4148 C4146 1.561 . S
C4149 C4146 1.526 . S
C4149 C4150 1.396 . S
C4149 C4154 1.390 . S
C4150 C4144 1.465 . S
C4150 C4149 1.396 . S
C4150 C4151 1.399 . S
C4151 H4137 0.929 . S
C4151 C4150 1.399 . S
C4151 C4152 1.385 . S
C4152 H4138 0.931 . S
C4152 C4151 1.385 . S
C4152 C4153 1.389 . S
C4153 C4152 1.389 . S
C4153 C4154 1.387 . S
C4154 H4139 0.930 . S
C4154 C4149 1.390 . S
C4154 C4153 1.387 . S
H4155 C4167 0.930 . S
H4156 C4169 0.930 . S
H4157 C4170 0.930 . S
H4158 C4174 0.959 . S
H4159 C4174 0.959 . S
H4160 C4174 0.961 . S
H4161 C4175 0.960 . S
H4162 C4175 0.961 . S
H4163 C4175 0.959 . S
H4164 C4178 0.929 . S
H4165 C4179 0.931 . S
H4166 C4181 0.930 . S
C4167 H4155 0.930 . S
C4167 C4168 1.399 . S
C4167 C4172 1.399 . S
C4168 C4167 1.399 . S
C4168 C4169 1.376 . S
C4169 H4156 0.930 . S
C4169 C4168 1.376 . S
C4169 C4170 1.388 . S
C4170 H4157 0.930 . S
C4170 C4169 1.388 . S
C4170 C4171 1.390 . S
C4171 C4170 1.390 . S
C4171 C4172 1.394 . S
C4171 C4177 1.465 . S
C4172 C4167 1.399 . S
C4172 C4171 1.394 . S
C4172 C4173 1.516 . S
C4173 C4172 1.516 . S
C4173 C4174 1.502 . S
C4173 C4175 1.561 . S
C4173 C4176 1.526 . S
C4174 H4158 0.959 . S
C4174 H4159 0.959 . S
C4174 H4160 0.961 . S
C4174 C4173 1.502 . S
C4175 H4161 0.960 . S
C4175 H4162 0.961 . S
C4175 H4163 0.959 . S
C4175 C4173 1.561 . S
C4176 C4173 1.526 . S
C4176 C4177 1.396 . S
C4176 C4181 1.390 . S
C4177 C4171 1.465 . S
C4177 C4176 1.396 . S
C4177 C4178 1.399 . S
C4178 H4164 0.929 . S
C4178 C4177 1.399 . S
C4178 C4179 1.385 . S
C4179 H4165 0.931 . S
C4179 C4178 1.385 . S
C4179 C4180 1.389 . S
C4180 C4179 1.389 . S
C4180 C4181 1.387 . S
C4181 H4166 0.930 . S
C4181 C4176 1.390 . S
C4181 C4180 1.387 . S
H4182 C4194 0.930 . S
H4183 C4196 0.930 . S
H4184 C4197 0.930 . S
H4185 C4201 0.959 . S
H4186 C4201 0.959 . S
H4187 C4201 0.961 . S
H4188 C4202 0.960 . S
H4189 C4202 0.961 . S
H4190 C4202 0.959 . S
H4191 C4205 0.929 . S
H4192 C4206 0.931 . S
H4193 C4208 0.930 . S
C4194 H4182 0.930 . S
C4194 C4195 1.399 . S
C4194 C4199 1.399 . S
C4195 C4194 1.399 . S
C4195 C4196 1.376 . S
C4196 H4183 0.930 . S
C4196 C4195 1.376 . S
C4196 C4197 1.388 . S
C4197 H4184 0.930 . S
C4197 C4196 1.388 . S
C4197 C4198 1.390 . S
C4198 C4197 1.390 . S
C4198 C4199 1.394 . S
C4198 C4204 1.465 . S
C4199 C4194 1.399 . S
C4199 C4198 1.394 . S
C4199 C4200 1.516 . S
C4200 C4199 1.516 . S
C4200 C4201 1.502 . S
C4200 C4202 1.561 . S
C4200 C4203 1.526 . S
C4201 H4185 0.959 . S
C4201 H4186 0.959 . S
C4201 H4187 0.961 . S
C4201 C4200 1.502 . S
C4202 H4188 0.960 . S
C4202 H4189 0.961 . S
C4202 H4190 0.959 . S
C4202 C4200 1.561 . S
C4203 C4200 1.526 . S
C4203 C4204 1.396 . S
C4203 C4208 1.390 . S
C4204 C4198 1.465 . S
C4204 C4203 1.396 . S
C4204 C4205 1.399 . S
C4205 H4191 0.929 . S
C4205 C4204 1.399 . S
C4205 C4206 1.385 . S
C4206 H4192 0.931 . S
C4206 C4205 1.385 . S
C4206 C4207 1.389 . S
C4207 C4206 1.389 . S
C4207 C4208 1.387 . S
C4208 H4193 0.930 . S
C4208 C4203 1.390 . S
C4208 C4207 1.387 . S
H4209 C4221 0.930 . S
H4210 C4223 0.930 . S
H4211 C4224 0.930 . S
H4212 C4228 0.959 . S
H4213 C4228 0.959 . S
H4214 C4228 0.961 . S
H4215 C4229 0.960 . S
H4216 C4229 0.961 . S
H4217 C4229 0.959 . S
H4218 C4232 0.929 . S
H4219 C4233 0.931 . S
H4220 C4235 0.930 . S
C4221 H4209 0.930 . S
C4221 C4222 1.399 . S
C4221 C4226 1.399 . S
C4222 C4221 1.399 . S
C4222 C4223 1.376 . S
C4223 H4210 0.930 . S
C4223 C4222 1.376 . S
C4223 C4224 1.388 . S
C4224 H4211 0.930 . S
C4224 C4223 1.388 . S
C4224 C4225 1.390 . S
C4225 C4224 1.390 . S
C4225 C4226 1.394 . S
C4225 C4231 1.465 . S
C4226 C4221 1.399 . S
C4226 C4225 1.394 . S
C4226 C4227 1.516 . S
C4227 C4226 1.516 . S
C4227 C4228 1.502 . S
C4227 C4229 1.561 . S
C4227 C4230 1.526 . S
C4228 H4212 0.959 . S
C4228 H4213 0.959 . S
C4228 H4214 0.961 . S
C4228 C4227 1.502 . S
C4229 H4215 0.960 . S
C4229 H4216 0.961 . S
C4229 H4217 0.959 . S
C4229 C4227 1.561 . S
C4230 C4227 1.526 . S
C4230 C4231 1.396 . S
C4230 C4235 1.390 . S
C4231 C4225 1.465 . S
C4231 C4230 1.396 . S
C4231 C4232 1.399 . S
C4232 H4218 0.929 . S
C4232 C4231 1.399 . S
C4232 C4233 1.385 . S
C4233 H4219 0.931 . S
C4233 C4232 1.385 . S
C4233 C4234 1.389 . S
C4234 C4233 1.389 . S
C4234 C4235 1.387 . S
C4235 H4220 0.930 . S
C4235 C4230 1.390 . S
C4235 C4234 1.387 . S
H4236 C4248 0.930 . S
H4237 C4250 0.930 . S
H4238 C4251 0.930 . S
H4239 C4255 0.959 . S
H4240 C4255 0.959 . S
H4241 C4255 0.961 . S
H4242 C4256 0.960 . S
H4243 C4256 0.961 . S
H4244 C4256 0.959 . S
H4245 C4259 0.929 . S
H4246 C4260 0.931 . S
H4247 C4262 0.930 . S
C4248 H4236 0.930 . S
C4248 C4249 1.399 . S
C4248 C4253 1.399 . S
C4249 C4248 1.399 . S
C4249 C4250 1.376 . S
C4250 H4237 0.930 . S
C4250 C4249 1.376 . S
C4250 C4251 1.388 . S
C4251 H4238 0.930 . S
C4251 C4250 1.388 . S
C4251 C4252 1.390 . S
C4252 C4251 1.390 . S
C4252 C4253 1.394 . S
C4252 C4258 1.465 . S
C4253 C4248 1.399 . S
C4253 C4252 1.394 . S
C4253 C4254 1.516 . S
C4254 C4253 1.516 . S
C4254 C4255 1.502 . S
C4254 C4256 1.561 . S
C4254 C4257 1.526 . S
C4255 H4239 0.959 . S
C4255 H4240 0.959 . S
C4255 H4241 0.961 . S
C4255 C4254 1.502 . S
C4256 H4242 0.960 . S
C4256 H4243 0.961 . S
C4256 H4244 0.959 . S
C4256 C4254 1.561 . S
C4257 C4254 1.526 . S
C4257 C4258 1.396 . S
C4257 C4262 1.390 . S
C4258 C4252 1.465 . S
C4258 C4257 1.396 . S
C4258 C4259 1.399 . S
C4259 H4245 0.929 . S
C4259 C4258 1.399 . S
C4259 C4260 1.385 . S
C4260 H4246 0.931 . S
C4260 C4259 1.385 . S
C4260 C4261 1.389 . S
C4261 C4260 1.389 . S
C4261 C4262 1.387 . S
C4262 H4247 0.930 . S
C4262 C4257 1.390 . S
C4262 C4261 1.387 . S
H4263 C4275 0.930 . S
H4264 C4277 0.930 . S
H4265 C4278 0.930 . S
H4266 C4282 0.959 . S
H4267 C4282 0.959 . S
H4268 C4282 0.961 . S
H4269 C4283 0.960 . S
H4270 C4283 0.961 . S
H4271 C4283 0.959 . S
H4272 C4286 0.929 . S
H4273 C4287 0.931 . S
H4274 C4289 0.930 . S
C4275 H4263 0.930 . S
C4275 C4276 1.399 . S
C4275 C4280 1.399 . S
C4276 C4275 1.399 . S
C4276 C4277 1.376 . S
C4277 H4264 0.930 . S
C4277 C4276 1.376 . S
C4277 C4278 1.388 . S
C4278 H4265 0.930 . S
C4278 C4277 1.388 . S
C4278 C4279 1.390 . S
C4279 C4278 1.390 . S
C4279 C4280 1.394 . S
C4279 C4285 1.465 . S
C4280 C4275 1.399 . S
C4280 C4279 1.394 . S
C4280 C4281 1.516 . S
C4281 C4280 1.516 . S
C4281 C4282 1.502 . S
C4281 C4283 1.561 . S
C4281 C4284 1.526 . S
C4282 H4266 0.959 . S
C4282 H4267 0.959 . S
C4282 H4268 0.961 . S
C4282 C4281 1.502 . S
C4283 H4269 0.960 . S
C4283 H4270 0.961 . S
C4283 H4271 0.959 . S
C4283 C4281 1.561 . S
C4284 C4281 1.526 . S
C4284 C4285 1.396 . S
C4284 C4289 1.390 . S
C4285 C4279 1.465 . S
C4285 C4284 1.396 . S
C4285 C4286 1.399 . S
C4286 H4272 0.929 . S
C4286 C4285 1.399 . S
C4286 C4287 1.385 . S
C4287 H4273 0.931 . S
C4287 C4286 1.385 . S
C4287 C4288 1.389 . S
C4288 C4287 1.389 . S
C4288 C4289 1.387 . S
C4289 H4274 0.930 . S
C4289 C4284 1.390 . S
C4289 C4288 1.387 . S
H4290 C4302 0.930 . S
H4291 C4304 0.930 . S
H4292 C4305 0.930 . S
H4293 C4309 0.959 . S
H4294 C4309 0.959 . S
H4295 C4309 0.961 . S
H4296 C4310 0.960 . S
H4297 C4310 0.961 . S
H4298 C4310 0.959 . S
H4299 C4313 0.929 . S
H4300 C4314 0.931 . S
H4301 C4316 0.930 . S
C4302 H4290 0.930 . S
C4302 C4303 1.399 . S
C4302 C4307 1.399 . S
C4303 C4302 1.399 . S
C4303 C4304 1.376 . S
C4304 H4291 0.930 . S
C4304 C4303 1.376 . S
C4304 C4305 1.388 . S
C4305 H4292 0.930 . S
C4305 C4304 1.388 . S
C4305 C4306 1.390 . S
C4306 C4305 1.390 . S
C4306 C4307 1.394 . S
C4306 C4312 1.465 . S
C4307 C4302 1.399 . S
C4307 C4306 1.394 . S
C4307 C4308 1.516 . S
C4308 C4307 1.516 . S
C4308 C4309 1.502 . S
C4308 C4310 1.561 . S
C4308 C4311 1.526 . S
C4309 H4293 0.959 . S
C4309 H4294 0.959 . S
C4309 H4295 0.961 . S
C4309 C4308 1.502 . S
C4310 H4296 0.960 . S
C4310 H4297 0.961 . S
C4310 H4298 0.959 . S
C4310 C4308 1.561 . S
C4311 C4308 1.526 . S
C4311 C4312 1.396 . S
C4311 C4316 1.390 . S
C4312 C4306 1.465 . S
C4312 C4311 1.396 . S
C4312 C4313 1.399 . S
C4313 H4299 0.929 . S
C4313 C4312 1.399 . S
C4313 C4314 1.385 . S
C4314 H4300 0.931 . S
C4314 C4313 1.385 . S
C4314 C4315 1.389 . S
C4315 C4314 1.389 . S
C4315 C4316 1.387 . S
C4316 H4301 0.930 . S
C4316 C4311 1.390 . S
C4316 C4315 1.387 . S
H4317 C4329 0.930 . S
H4318 C4331 0.930 . S
H4319 C4332 0.930 . S
H4320 C4336 0.959 . S
H4321 C4336 0.959 . S
H4322 C4336 0.961 . S
H4323 C4337 0.960 . S
H4324 C4337 0.961 . S
H4325 C4337 0.959 . S
H4326 C4340 0.929 . S
H4327 C4341 0.931 . S
H4328 C4343 0.930 . S
C4329 H4317 0.930 . S
C4329 C4330 1.399 . S
C4329 C4334 1.399 . S
C4330 C4329 1.399 . S
C4330 C4331 1.376 . S
C4331 H4318 0.930 . S
C4331 C4330 1.376 . S
C4331 C4332 1.388 . S
C4332 H4319 0.930 . S
C4332 C4331 1.388 . S
C4332 C4333 1.390 . S
C4333 C4332 1.390 . S
C4333 C4334 1.394 . S
C4333 C4339 1.465 . S
C4334 C4329 1.399 . S
C4334 C4333 1.394 . S
C4334 C4335 1.516 . S
C4335 C4334 1.516 . S
C4335 C4336 1.502 . S
C4335 C4337 1.561 . S
C4335 C4338 1.526 . S
C4336 H4320 0.959 . S
C4336 H4321 0.959 . S
C4336 H4322 0.961 . S
C4336 C4335 1.502 . S
C4337 H4323 0.960 . S
C4337 H4324 0.961 . S
C4337 H4325 0.959 . S
C4337 C4335 1.561 . S
C4338 C4335 1.526 . S
C4338 C4339 1.396 . S
C4338 C4343 1.390 . S
C4339 C4333 1.465 . S
C4339 C4338 1.396 . S
C4339 C4340 1.399 . S
C4340 H4326 0.929 . S
C4340 C4339 1.399 . S
C4340 C4341 1.385 . S
C4341 H4327 0.931 . S
C4341 C4340 1.385 . S
C4341 C4342 1.389 . S
C4342 C4341 1.389 . S
C4342 C4343 1.387 . S
C4343 H4328 0.930 . S
C4343 C4338 1.390 . S
C4343 C4342 1.387 . S
H4344 C4356 0.930 . S
H4345 C4358 0.930 . S
H4346 C4359 0.930 . S
H4347 C4363 0.959 . S
H4348 C4363 0.959 . S
H4349 C4363 0.961 . S
H4350 C4364 0.960 . S
H4351 C4364 0.961 . S
H4352 C4364 0.959 . S
H4353 C4367 0.929 . S
H4354 C4368 0.931 . S
H4355 C4370 0.930 . S
C4356 H4344 0.930 . S
C4356 C4357 1.399 . S
C4356 C4361 1.399 . S
C4357 C4356 1.399 . S
C4357 C4358 1.376 . S
C4358 H4345 0.930 . S
C4358 C4357 1.376 . S
C4358 C4359 1.388 . S
C4359 H4346 0.930 . S
C4359 C4358 1.388 . S
C4359 C4360 1.390 . S
C4360 C4359 1.390 . S
C4360 C4361 1.394 . S
C4360 C4366 1.465 . S
C4361 C4356 1.399 . S
C4361 C4360 1.394 . S
C4361 C4362 1.516 . S
C4362 C4361 1.516 . S
C4362 C4363 1.502 . S
C4362 C4364 1.561 . S
C4362 C4365 1.526 . S
C4363 H4347 0.959 . S
C4363 H4348 0.959 . S
C4363 H4349 0.961 . S
C4363 C4362 1.502 . S
C4364 H4350 0.960 . S
C4364 H4351 0.961 . S
C4364 H4352 0.959 . S
C4364 C4362 1.561 . S
C4365 C4362 1.526 . S
C4365 C4366 1.396 . S
C4365 C4370 1.390 . S
C4366 C4360 1.465 . S
C4366 C4365 1.396 . S
C4366 C4367 1.399 . S
C4367 H4353 0.929 . S
C4367 C4366 1.399 . S
C4367 C4368 1.385 . S
C4368 H4354 0.931 . S
C4368 C4367 1.385 . S
C4368 C4369 1.389 . S
C4369 C4368 1.389 . S
C4369 C4370 1.387 . S
C4370 H4355 0.930 . S
C4370 C4365 1.390 . S
C4370 C4369 1.387 . S
H4371 C4383 0.930 . S
H4372 C4385 0.930 . S
H4373 C4386 0.930 . S
H4374 C4390 0.959 . S
H4375 C4390 0.959 . S
H4376 C4390 0.961 . S
H4377 C4391 0.960 . S
H4378 C4391 0.961 . S
H4379 C4391 0.959 . S
H4380 C4394 0.929 . S
H4381 C4395 0.931 . S
H4382 C4397 0.930 . S
C4383 H4371 0.930 . S
C4383 C4384 1.399 . S
C4383 C4388 1.399 . S
C4384 C4383 1.399 . S
C4384 C4385 1.376 . S
C4385 H4372 0.930 . S
C4385 C4384 1.376 . S
C4385 C4386 1.388 . S
C4386 H4373 0.930 . S
C4386 C4385 1.388 . S
C4386 C4387 1.390 . S
C4387 C4386 1.390 . S
C4387 C4388 1.394 . S
C4387 C4393 1.465 . S
C4388 C4383 1.399 . S
C4388 C4387 1.394 . S
C4388 C4389 1.516 . S
C4389 C4388 1.516 . S
C4389 C4390 1.502 . S
C4389 C4391 1.561 . S
C4389 C4392 1.526 . S
C4390 H4374 0.959 . S
C4390 H4375 0.959 . S
C4390 H4376 0.961 . S
C4390 C4389 1.502 . S
C4391 H4377 0.960 . S
C4391 H4378 0.961 . S
C4391 H4379 0.959 . S
C4391 C4389 1.561 . S
C4392 C4389 1.526 . S
C4392 C4393 1.396 . S
C4392 C4397 1.390 . S
C4393 C4387 1.465 . S
C4393 C4392 1.396 . S
C4393 C4394 1.399 . S
C4394 H4380 0.929 . S
C4394 C4393 1.399 . S
C4394 C4395 1.385 . S
C4395 H4381 0.931 . S
C4395 C4394 1.385 . S
C4395 C4396 1.389 . S
C4396 C4395 1.389 . S
C4396 C4397 1.387 . S
C4397 H4382 0.930 . S
C4397 C4392 1.390 . S
C4397 C4396 1.387 . S
H4398 C4410 0.930 . S
H4399 C4412 0.930 . S
H4400 C4413 0.930 . S
H4401 C4417 0.959 . S
H4402 C4417 0.959 . S
H4403 C4417 0.961 . S
H4404 C4418 0.960 . S
H4405 C4418 0.961 . S
H4406 C4418 0.959 . S
H4407 C4421 0.929 . S
H4408 C4422 0.931 . S
H4409 C4424 0.930 . S
C4410 H4398 0.930 . S
C4410 C4411 1.399 . S
C4410 C4415 1.399 . S
C4411 C4410 1.399 . S
C4411 C4412 1.376 . S
C4412 H4399 0.930 . S
C4412 C4411 1.376 . S
C4412 C4413 1.388 . S
C4413 H4400 0.930 . S
C4413 C4412 1.388 . S
C4413 C4414 1.390 . S
C4414 C4413 1.390 . S
C4414 C4415 1.394 . S
C4414 C4420 1.465 . S
C4415 C4410 1.399 . S
C4415 C4414 1.394 . S
C4415 C4416 1.516 . S
C4416 C4415 1.516 . S
C4416 C4417 1.502 . S
C4416 C4418 1.561 . S
C4416 C4419 1.526 . S
C4417 H4401 0.959 . S
C4417 H4402 0.959 . S
C4417 H4403 0.961 . S
C4417 C4416 1.502 . S
C4418 H4404 0.960 . S
C4418 H4405 0.961 . S
C4418 H4406 0.959 . S
C4418 C4416 1.561 . S
C4419 C4416 1.526 . S
C4419 C4420 1.396 . S
C4419 C4424 1.390 . S
C4420 C4414 1.465 . S
C4420 C4419 1.396 . S
C4420 C4421 1.399 . S
C4421 H4407 0.929 . S
C4421 C4420 1.399 . S
C4421 C4422 1.385 . S
C4422 H4408 0.931 . S
C4422 C4421 1.385 . S
C4422 C4423 1.389 . S
C4423 C4422 1.389 . S
C4423 C4424 1.387 . S
C4424 H4409 0.930 . S
C4424 C4419 1.390 . S
C4424 C4423 1.387 . S
H4425 C4437 0.930 . S
H4426 C4439 0.930 . S
H4427 C4440 0.930 . S
H4428 C4444 0.959 . S
H4429 C4444 0.959 . S
H4430 C4444 0.961 . S
H4431 C4445 0.960 . S
H4432 C4445 0.961 . S
H4433 C4445 0.959 . S
H4434 C4448 0.929 . S
H4435 C4449 0.931 . S
H4436 C4451 0.930 . S
C4437 H4425 0.930 . S
C4437 C4438 1.399 . S
C4437 C4442 1.399 . S
C4438 C4437 1.399 . S
C4438 C4439 1.376 . S
C4439 H4426 0.930 . S
C4439 C4438 1.376 . S
C4439 C4440 1.388 . S
C4440 H4427 0.930 . S
C4440 C4439 1.388 . S
C4440 C4441 1.390 . S
C4441 C4440 1.390 . S
C4441 C4442 1.394 . S
C4441 C4447 1.465 . S
C4442 C4437 1.399 . S
C4442 C4441 1.394 . S
C4442 C4443 1.516 . S
C4443 C4442 1.516 . S
C4443 C4444 1.502 . S
C4443 C4445 1.561 . S
C4443 C4446 1.526 . S
C4444 H4428 0.959 . S
C4444 H4429 0.959 . S
C4444 H4430 0.961 . S
C4444 C4443 1.502 . S
C4445 H4431 0.960 . S
C4445 H4432 0.961 . S
C4445 H4433 0.959 . S
C4445 C4443 1.561 . S
C4446 C4443 1.526 . S
C4446 C4447 1.396 . S
C4446 C4451 1.390 . S
C4447 C4441 1.465 . S
C4447 C4446 1.396 . S
C4447 C4448 1.399 . S
C4448 H4434 0.929 . S
C4448 C4447 1.399 . S
C4448 C4449 1.385 . S
C4449 H4435 0.931 . S
C4449 C4448 1.385 . S
C4449 C4450 1.389 . S
C4450 C4449 1.389 . S
C4450 C4451 1.387 . S
C4451 H4436 0.930 . S
C4451 C4446 1.390 . S
C4451 C4450 1.387 . S
H4452 C4464 0.930 . S
H4453 C4466 0.930 . S
H4454 C4467 0.930 . S
H4455 C4471 0.959 . S
H4456 C4471 0.959 . S
H4457 C4471 0.961 . S
H4458 C4472 0.960 . S
H4459 C4472 0.961 . S
H4460 C4472 0.959 . S
H4461 C4475 0.929 . S
H4462 C4476 0.931 . S
H4463 C4478 0.930 . S
C4464 H4452 0.930 . S
C4464 C4465 1.399 . S
C4464 C4469 1.399 . S
C4465 C4464 1.399 . S
C4465 C4466 1.376 . S
C4466 H4453 0.930 . S
C4466 C4465 1.376 . S
C4466 C4467 1.388 . S
C4467 H4454 0.930 . S
C4467 C4466 1.388 . S
C4467 C4468 1.390 . S
C4468 C4467 1.390 . S
C4468 C4469 1.394 . S
C4468 C4474 1.465 . S
C4469 C4464 1.399 . S
C4469 C4468 1.394 . S
C4469 C4470 1.516 . S
C4470 C4469 1.516 . S
C4470 C4471 1.502 . S
C4470 C4472 1.561 . S
C4470 C4473 1.526 . S
C4471 H4455 0.959 . S
C4471 H4456 0.959 . S
C4471 H4457 0.961 . S
C4471 C4470 1.502 . S
C4472 H4458 0.960 . S
C4472 H4459 0.961 . S
C4472 H4460 0.959 . S
C4472 C4470 1.561 . S
C4473 C4470 1.526 . S
C4473 C4474 1.396 . S
C4473 C4478 1.390 . S
C4474 C4468 1.465 . S
C4474 C4473 1.396 . S
C4474 C4475 1.399 . S
C4475 H4461 0.929 . S
C4475 C4474 1.399 . S
C4475 C4476 1.385 . S
C4476 H4462 0.931 . S
C4476 C4475 1.385 . S
C4476 C4477 1.389 . S
C4477 C4476 1.389 . S
C4477 C4478 1.387 . S
C4478 H4463 0.930 . S
C4478 C4473 1.390 . S
C4478 C4477 1.387 . S
H4479 C4491 0.930 . S
H4480 C4493 0.930 . S
H4481 C4494 0.930 . S
H4482 C4498 0.959 . S
H4483 C4498 0.959 . S
H4484 C4498 0.961 . S
H4485 C4499 0.960 . S
H4486 C4499 0.961 . S
H4487 C4499 0.959 . S
H4488 C4502 0.929 . S
H4489 C4503 0.931 . S
H4490 C4505 0.930 . S
C4491 H4479 0.930 . S
C4491 C4492 1.399 . S
C4491 C4496 1.399 . S
C4492 C4491 1.399 . S
C4492 C4493 1.376 . S
C4493 H4480 0.930 . S
C4493 C4492 1.376 . S
C4493 C4494 1.388 . S
C4494 H4481 0.930 . S
C4494 C4493 1.388 . S
C4494 C4495 1.390 . S
C4495 C4494 1.390 . S
C4495 C4496 1.394 . S
C4495 C4501 1.465 . S
C4496 C4491 1.399 . S
C4496 C4495 1.394 . S
C4496 C4497 1.516 . S
C4497 C4496 1.516 . S
C4497 C4498 1.502 . S
C4497 C4499 1.561 . S
C4497 C4500 1.526 . S
C4498 H4482 0.959 . S
C4498 H4483 0.959 . S
C4498 H4484 0.961 . S
C4498 C4497 1.502 . S
C4499 H4485 0.960 . S
C4499 H4486 0.961 . S
C4499 H4487 0.959 . S
C4499 C4497 1.561 . S
C4500 C4497 1.526 . S
C4500 C4501 1.396 . S
C4500 C4505 1.390 . S
C4501 C4495 1.465 . S
C4501 C4500 1.396 . S
C4501 C4502 1.399 . S
C4502 H4488 0.929 . S
C4502 C4501 1.399 . S
C4502 C4503 1.385 . S
C4503 H4489 0.931 . S
C4503 C4502 1.385 . S
C4503 C4504 1.389 . S
C4504 C4503 1.389 . S
C4504 C4505 1.387 . S
C4505 H4490 0.930 . S
C4505 C4500 1.390 . S
C4505 C4504 1.387 . S
H4506 C4518 0.930 . S
H4507 C4520 0.930 . S
H4508 C4521 0.930 . S
H4509 C4525 0.959 . S
H4510 C4525 0.959 . S
H4511 C4525 0.961 . S
H4512 C4526 0.960 . S
H4513 C4526 0.961 . S
H4514 C4526 0.959 . S
H4515 C4529 0.929 . S
H4516 C4530 0.931 . S
H4517 C4532 0.930 . S
C4518 H4506 0.930 . S
C4518 C4519 1.399 . S
C4518 C4523 1.399 . S
C4519 C4518 1.399 . S
C4519 C4520 1.376 . S
C4520 H4507 0.930 . S
C4520 C4519 1.376 . S
C4520 C4521 1.388 . S
C4521 H4508 0.930 . S
C4521 C4520 1.388 . S
C4521 C4522 1.390 . S
C4522 C4521 1.390 . S
C4522 C4523 1.394 . S
C4522 C4528 1.465 . S
C4523 C4518 1.399 . S
C4523 C4522 1.394 . S
C4523 C4524 1.516 . S
C4524 C4523 1.516 . S
C4524 C4525 1.502 . S
C4524 C4526 1.561 . S
C4524 C4527 1.526 . S
C4525 H4509 0.959 . S
C4525 H4510 0.959 . S
C4525 H4511 0.961 . S
C4525 C4524 1.502 . S
C4526 H4512 0.960 . S
C4526 H4513 0.961 . S
C4526 H4514 0.959 . S
C4526 C4524 1.561 . S
C4527 C4524 1.526 . S
C4527 C4528 1.396 . S
C4527 C4532 1.390 . S
C4528 C4522 1.465 . S
C4528 C4527 1.396 . S
C4528 C4529 1.399 . S
C4529 H4515 0.929 . S
C4529 C4528 1.399 . S
C4529 C4530 1.385 . S
C4530 H4516 0.931 . S
C4530 C4529 1.385 . S
C4530 C4531 1.389 . S
C4531 C4530 1.389 . S
C4531 C4532 1.387 . S
C4532 H4517 0.930 . S
C4532 C4527 1.390 . S
C4532 C4531 1.387 . S
H4533 C4545 0.930 . S
H4534 C4547 0.930 . S
H4535 C4548 0.930 . S
H4536 C4552 0.959 . S
H4537 C4552 0.959 . S
H4538 C4552 0.961 . S
H4539 C4553 0.960 . S
H4540 C4553 0.961 . S
H4541 C4553 0.959 . S
H4542 C4556 0.929 . S
H4543 C4557 0.931 . S
H4544 C4559 0.930 . S
C4545 H4533 0.930 . S
C4545 C4546 1.399 . S
C4545 C4550 1.399 . S
C4546 C4545 1.399 . S
C4546 C4547 1.376 . S
C4547 H4534 0.930 . S
C4547 C4546 1.376 . S
C4547 C4548 1.388 . S
C4548 H4535 0.930 . S
C4548 C4547 1.388 . S
C4548 C4549 1.390 . S
C4549 C4548 1.390 . S
C4549 C4550 1.394 . S
C4549 C4555 1.465 . S
C4550 C4545 1.399 . S
C4550 C4549 1.394 . S
C4550 C4551 1.516 . S
C4551 C4550 1.516 . S
C4551 C4552 1.502 . S
C4551 C4553 1.561 . S
C4551 C4554 1.526 . S
C4552 H4536 0.959 . S
C4552 H4537 0.959 . S
C4552 H4538 0.961 . S
C4552 C4551 1.502 . S
C4553 H4539 0.960 . S
C4553 H4540 0.961 . S
C4553 H4541 0.959 . S
C4553 C4551 1.561 . S
C4554 C4551 1.526 . S
C4554 C4555 1.396 . S
C4554 C4559 1.390 . S
C4555 C4549 1.465 . S
C4555 C4554 1.396 . S
C4555 C4556 1.399 . S
C4556 H4542 0.929 . S
C4556 C4555 1.399 . S
C4556 C4557 1.385 . S
C4557 H4543 0.931 . S
C4557 C4556 1.385 . S
C4557 C4558 1.389 . S
C4558 C4557 1.389 . S
C4558 C4559 1.387 . S
C4559 H4544 0.930 . S
C4559 C4554 1.390 . S
C4559 C4558 1.387 . S
H4560 C4572 0.930 . S
H4561 C4574 0.930 . S
H4562 C4575 0.930 . S
H4563 C4579 0.959 . S
H4564 C4579 0.959 . S
H4565 C4579 0.961 . S
H4566 C4580 0.960 . S
H4567 C4580 0.961 . S
H4568 C4580 0.959 . S
H4569 C4583 0.929 . S
H4570 C4584 0.931 . S
H4571 C4586 0.930 . S
C4572 H4560 0.930 . S
C4572 C4573 1.399 . S
C4572 C4577 1.399 . S
C4573 C4572 1.399 . S
C4573 C4574 1.376 . S
C4574 H4561 0.930 . S
C4574 C4573 1.376 . S
C4574 C4575 1.388 . S
C4575 H4562 0.930 . S
C4575 C4574 1.388 . S
C4575 C4576 1.390 . S
C4576 C4575 1.390 . S
C4576 C4577 1.394 . S
C4576 C4582 1.465 . S
C4577 C4572 1.399 . S
C4577 C4576 1.394 . S
C4577 C4578 1.516 . S
C4578 C4577 1.516 . S
C4578 C4579 1.502 . S
C4578 C4580 1.561 . S
C4578 C4581 1.526 . S
C4579 H4563 0.959 . S
C4579 H4564 0.959 . S
C4579 H4565 0.961 . S
C4579 C4578 1.502 . S
C4580 H4566 0.960 . S
C4580 H4567 0.961 . S
C4580 H4568 0.959 . S
C4580 C4578 1.561 . S
C4581 C4578 1.526 . S
C4581 C4582 1.396 . S
C4581 C4586 1.390 . S
C4582 C4576 1.465 . S
C4582 C4581 1.396 . S
C4582 C4583 1.399 . S
C4583 H4569 0.929 . S
C4583 C4582 1.399 . S
C4583 C4584 1.385 . S
C4584 H4570 0.931 . S
C4584 C4583 1.385 . S
C4584 C4585 1.389 . S
C4585 C4584 1.389 . S
C4585 C4586 1.387 . S
C4586 H4571 0.930 . S
C4586 C4581 1.390 . S
C4586 C4585 1.387 . S
H4587 C4599 0.930 . S
H4588 C4601 0.930 . S
H4589 C4602 0.930 . S
H4590 C4606 0.959 . S
H4591 C4606 0.959 . S
H4592 C4606 0.961 . S
H4593 C4607 0.960 . S
H4594 C4607 0.961 . S
H4595 C4607 0.959 . S
H4596 C4610 0.929 . S
H4597 C4611 0.931 . S
H4598 C4613 0.930 . S
C4599 H4587 0.930 . S
C4599 C4600 1.399 . S
C4599 C4604 1.399 . S
C4600 C4599 1.399 . S
C4600 C4601 1.376 . S
C4601 H4588 0.930 . S
C4601 C4600 1.376 . S
C4601 C4602 1.388 . S
C4602 H4589 0.930 . S
C4602 C4601 1.388 . S
C4602 C4603 1.390 . S
C4603 C4602 1.390 . S
C4603 C4604 1.394 . S
C4603 C4609 1.465 . S
C4604 C4599 1.399 . S
C4604 C4603 1.394 . S
C4604 C4605 1.516 . S
C4605 C4604 1.516 . S
C4605 C4606 1.502 . S
C4605 C4607 1.561 . S
C4605 C4608 1.526 . S
C4606 H4590 0.959 . S
C4606 H4591 0.959 . S
C4606 H4592 0.961 . S
C4606 C4605 1.502 . S
C4607 H4593 0.960 . S
C4607 H4594 0.961 . S
C4607 H4595 0.959 . S
C4607 C4605 1.561 . S
C4608 C4605 1.526 . S
C4608 C4609 1.396 . S
C4608 C4613 1.390 . S
C4609 C4603 1.465 . S
C4609 C4608 1.396 . S
C4609 C4610 1.399 . S
C4610 H4596 0.929 . S
C4610 C4609 1.399 . S
C4610 C4611 1.385 . S
C4611 H4597 0.931 . S
C4611 C4610 1.385 . S
C4611 C4612 1.389 . S
C4612 C4611 1.389 . S
C4612 C4613 1.387 . S
C4613 H4598 0.930 . S
C4613 C4608 1.390 . S
C4613 C4612 1.387 . S
H4614 C4626 0.930 . S
H4615 C4628 0.930 . S
H4616 C4629 0.930 . S
H4617 C4633 0.959 . S
H4618 C4633 0.959 . S
H4619 C4633 0.961 . S
H4620 C4634 0.960 . S
H4621 C4634 0.961 . S
H4622 C4634 0.959 . S
H4623 C4637 0.929 . S
H4624 C4638 0.931 . S
H4625 C4640 0.930 . S
C4626 H4614 0.930 . S
C4626 C4627 1.399 . S
C4626 C4631 1.399 . S
C4627 C4626 1.399 . S
C4627 C4628 1.376 . S
C4628 H4615 0.930 . S
C4628 C4627 1.376 . S
C4628 C4629 1.388 . S
C4629 H4616 0.930 . S
C4629 C4628 1.388 . S
C4629 C4630 1.390 . S
C4630 C4629 1.390 . S
C4630 C4631 1.394 . S
C4630 C4636 1.465 . S
C4631 C4626 1.399 . S
C4631 C4630 1.394 . S
C4631 C4632 1.516 . S
C4632 C4631 1.516 . S
C4632 C4633 1.502 . S
C4632 C4634 1.561 . S
C4632 C4635 1.526 . S
C4633 H4617 0.959 . S
C4633 H4618 0.959 . S
C4633 H4619 0.961 . S
C4633 C4632 1.502 . S
C4634 H4620 0.960 . S
C4634 H4621 0.961 . S
C4634 H4622 0.959 . S
C4634 C4632 1.561 . S
C4635 C4632 1.526 . S
C4635 C4636 1.396 . S
C4635 C4640 1.390 . S
C4636 C4630 1.465 . S
C4636 C4635 1.396 . S
C4636 C4637 1.399 . S
C4637 H4623 0.929 . S
C4637 C4636 1.399 . S
C4637 C4638 1.385 . S
C4638 H4624 0.931 . S
C4638 C4637 1.385 . S
C4638 C4639 1.389 . S
C4639 C4638 1.389 . S
C4639 C4640 1.387 . S
C4640 H4625 0.930 . S
C4640 C4635 1.390 . S
C4640 C4639 1.387 . S
H4641 C4653 0.930 . S
H4642 C4655 0.930 . S
H4643 C4656 0.930 . S
H4644 C4660 0.959 . S
H4645 C4660 0.959 . S
H4646 C4660 0.961 . S
H4647 C4661 0.960 . S
H4648 C4661 0.961 . S
H4649 C4661 0.959 . S
H4650 C4664 0.929 . S
H4651 C4665 0.931 . S
H4652 C4667 0.930 . S
C4653 H4641 0.930 . S
C4653 C4654 1.399 . S
C4653 C4658 1.399 . S
C4654 C4653 1.399 . S
C4654 C4655 1.376 . S
C4655 H4642 0.930 . S
C4655 C4654 1.376 . S
C4655 C4656 1.388 . S
C4656 H4643 0.930 . S
C4656 C4655 1.388 . S
C4656 C4657 1.390 . S
C4657 C4656 1.390 . S
C4657 C4658 1.394 . S
C4657 C4663 1.465 . S
C4658 C4653 1.399 . S
C4658 C4657 1.394 . S
C4658 C4659 1.516 . S
C4659 C4658 1.516 . S
C4659 C4660 1.502 . S
C4659 C4661 1.561 . S
C4659 C4662 1.526 . S
C4660 H4644 0.959 . S
C4660 H4645 0.959 . S
C4660 H4646 0.961 . S
C4660 C4659 1.502 . S
C4661 H4647 0.960 . S
C4661 H4648 0.961 . S
C4661 H4649 0.959 . S
C4661 C4659 1.561 . S
C4662 C4659 1.526 . S
C4662 C4663 1.396 . S
C4662 C4667 1.390 . S
C4663 C4657 1.465 . S
C4663 C4662 1.396 . S
C4663 C4664 1.399 . S
C4664 H4650 0.929 . S
C4664 C4663 1.399 . S
C4664 C4665 1.385 . S
C4665 H4651 0.931 . S
C4665 C4664 1.385 . S
C4665 C4666 1.389 . S
C4666 C4665 1.389 . S
C4666 C4667 1.387 . S
C4667 H4652 0.930 . S
C4667 C4662 1.390 . S
C4667 C4666 1.387 . S
H4668 C4680 0.930 . S
H4669 C4682 0.930 . S
H4670 C4683 0.930 . S
H4671 C4687 0.959 . S
H4672 C4687 0.959 . S
H4673 C4687 0.961 . S
H4674 C4688 0.960 . S
H4675 C4688 0.961 . S
H4676 C4688 0.959 . S
H4677 C4691 0.929 . S
H4678 C4692 0.931 . S
H4679 C4694 0.930 . S
C4680 H4668 0.930 . S
C4680 C4681 1.399 . S
C4680 C4685 1.399 . S
C4681 C4680 1.399 . S
C4681 C4682 1.376 . S
C4682 H4669 0.930 . S
C4682 C4681 1.376 . S
C4682 C4683 1.388 . S
C4683 H4670 0.930 . S
C4683 C4682 1.388 . S
C4683 C4684 1.390 . S
C4684 C4683 1.390 . S
C4684 C4685 1.394 . S
C4684 C4690 1.465 . S
C4685 C4680 1.399 . S
C4685 C4684 1.394 . S
C4685 C4686 1.516 . S
C4686 C4685 1.516 . S
C4686 C4687 1.502 . S
C4686 C4688 1.561 . S
C4686 C4689 1.526 . S
C4687 H4671 0.959 . S
C4687 H4672 0.959 . S
C4687 H4673 0.961 . S
C4687 C4686 1.502 . S
C4688 H4674 0.960 . S
C4688 H4675 0.961 . S
C4688 H4676 0.959 . S
C4688 C4686 1.561 . S
C4689 C4686 1.526 . S
C4689 C4690 1.396 . S
C4689 C4694 1.390 . S
C4690 C4684 1.465 . S
C4690 C4689 1.396 . S
C4690 C4691 1.399 . S
C4691 H4677 0.929 . S
C4691 C4690 1.399 . S
C4691 C4692 1.385 . S
C4692 H4678 0.931 . S
C4692 C4691 1.385 . S
C4692 C4693 1.389 . S
C4693 C4692 1.389 . S
C4693 C4694 1.387 . S
C4694 H4679 0.930 . S
C4694 C4689 1.390 . S
C4694 C4693 1.387 . S
H4695 C4707 0.930 . S
H4696 C4709 0.930 . S
H4697 C4710 0.930 . S
H4698 C4714 0.959 . S
H4699 C4714 0.959 . S
H4700 C4714 0.961 . S
H4701 C4715 0.960 . S
H4702 C4715 0.961 . S
H4703 C4715 0.959 . S
H4704 C4718 0.929 . S
H4705 C4719 0.931 . S
H4706 C4721 0.930 . S
C4707 H4695 0.930 . S
C4707 C4708 1.399 . S
C4707 C4712 1.399 . S
C4708 C4707 1.399 . S
C4708 C4709 1.376 . S
C4709 H4696 0.930 . S
C4709 C4708 1.376 . S
C4709 C4710 1.388 . S
C4710 H4697 0.930 . S
C4710 C4709 1.388 . S
C4710 C4711 1.390 . S
C4711 C4710 1.390 . S
C4711 C4712 1.394 . S
C4711 C4717 1.465 . S
C4712 C4707 1.399 . S
C4712 C4711 1.394 . S
C4712 C4713 1.516 . S
C4713 C4712 1.516 . S
C4713 C4714 1.502 . S
C4713 C4715 1.561 . S
C4713 C4716 1.526 . S
C4714 H4698 0.959 . S
C4714 H4699 0.959 . S
C4714 H4700 0.961 . S
C4714 C4713 1.502 . S
C4715 H4701 0.960 . S
C4715 H4702 0.961 . S
C4715 H4703 0.959 . S
C4715 C4713 1.561 . S
C4716 C4713 1.526 . S
C4716 C4717 1.396 . S
C4716 C4721 1.390 . S
C4717 C4711 1.465 . S
C4717 C4716 1.396 . S
C4717 C4718 1.399 . S
C4718 H4704 0.929 . S
C4718 C4717 1.399 . S
C4718 C4719 1.385 . S
C4719 H4705 0.931 . S
C4719 C4718 1.385 . S
C4719 C4720 1.389 . S
C4720 C4719 1.389 . S
C4720 C4721 1.387 . S
C4721 H4706 0.930 . S
C4721 C4716 1.390 . S
C4721 C4720 1.387 . S
H4722 C4734 0.930 . S
H4723 C4736 0.930 . S
H4724 C4737 0.930 . S
H4725 C4741 0.959 . S
H4726 C4741 0.959 . S
H4727 C4741 0.961 . S
H4728 C4742 0.960 . S
H4729 C4742 0.961 . S
H4730 C4742 0.959 . S
H4731 C4745 0.929 . S
H4732 C4746 0.931 . S
H4733 C4748 0.930 . S
C4734 H4722 0.930 . S
C4734 C4735 1.399 . S
C4734 C4739 1.399 . S
C4735 C4734 1.399 . S
C4735 C4736 1.376 . S
C4736 H4723 0.930 . S
C4736 C4735 1.376 . S
C4736 C4737 1.388 . S
C4737 H4724 0.930 . S
C4737 C4736 1.388 . S
C4737 C4738 1.390 . S
C4738 C4737 1.390 . S
C4738 C4739 1.394 . S
C4738 C4744 1.465 . S
C4739 C4734 1.399 . S
C4739 C4738 1.394 . S
C4739 C4740 1.516 . S
C4740 C4739 1.516 . S
C4740 C4741 1.502 . S
C4740 C4742 1.561 . S
C4740 C4743 1.526 . S
C4741 H4725 0.959 . S
C4741 H4726 0.959 . S
C4741 H4727 0.961 . S
C4741 C4740 1.502 . S
C4742 H4728 0.960 . S
C4742 H4729 0.961 . S
C4742 H4730 0.959 . S
C4742 C4740 1.561 . S
C4743 C4740 1.526 . S
C4743 C4744 1.396 . S
C4743 C4748 1.390 . S
C4744 C4738 1.465 . S
C4744 C4743 1.396 . S
C4744 C4745 1.399 . S
C4745 H4731 0.929 . S
C4745 C4744 1.399 . S
C4745 C4746 1.385 . S
C4746 H4732 0.931 . S
C4746 C4745 1.385 . S
C4746 C4747 1.389 . S
C4747 C4746 1.389 . S
C4747 C4748 1.387 . S
C4748 H4733 0.930 . S
C4748 C4743 1.390 . S
C4748 C4747 1.387 . S
H4749 C4761 0.930 . S
H4750 C4763 0.930 . S
H4751 C4764 0.930 . S
H4752 C4768 0.959 . S
H4753 C4768 0.959 . S
H4754 C4768 0.961 . S
H4755 C4769 0.960 . S
H4756 C4769 0.961 . S
H4757 C4769 0.959 . S
H4758 C4772 0.929 . S
H4759 C4773 0.931 . S
H4760 C4775 0.930 . S
C4761 H4749 0.930 . S
C4761 C4762 1.399 . S
C4761 C4766 1.399 . S
C4762 C4761 1.399 . S
C4762 C4763 1.376 . S
C4763 H4750 0.930 . S
C4763 C4762 1.376 . S
C4763 C4764 1.388 . S
C4764 H4751 0.930 . S
C4764 C4763 1.388 . S
C4764 C4765 1.390 . S
C4765 C4764 1.390 . S
C4765 C4766 1.394 . S
C4765 C4771 1.465 . S
C4766 C4761 1.399 . S
C4766 C4765 1.394 . S
C4766 C4767 1.516 . S
C4767 C4766 1.516 . S
C4767 C4768 1.502 . S
C4767 C4769 1.561 . S
C4767 C4770 1.526 . S
C4768 H4752 0.959 . S
C4768 H4753 0.959 . S
C4768 H4754 0.961 . S
C4768 C4767 1.502 . S
C4769 H4755 0.960 . S
C4769 H4756 0.961 . S
C4769 H4757 0.959 . S
C4769 C4767 1.561 . S
C4770 C4767 1.526 . S
C4770 C4771 1.396 . S
C4770 C4775 1.390 . S
C4771 C4765 1.465 . S
C4771 C4770 1.396 . S
C4771 C4772 1.399 . S
C4772 H4758 0.929 . S
C4772 C4771 1.399 . S
C4772 C4773 1.385 . S
C4773 H4759 0.931 . S
C4773 C4772 1.385 . S
C4773 C4774 1.389 . S
C4774 C4773 1.389 . S
C4774 C4775 1.387 . S
C4775 H4760 0.930 . S
C4775 C4770 1.390 . S
C4775 C4774 1.387 . S
H4776 C4788 0.930 . S
H4777 C4790 0.930 . S
H4778 C4791 0.930 . S
H4779 C4795 0.959 . S
H4780 C4795 0.959 . S
H4781 C4795 0.961 . S
H4782 C4796 0.960 . S
H4783 C4796 0.961 . S
H4784 C4796 0.959 . S
H4785 C4799 0.929 . S
H4786 C4800 0.931 . S
H4787 C4802 0.930 . S
C4788 H4776 0.930 . S
C4788 C4789 1.399 . S
C4788 C4793 1.399 . S
C4789 C4788 1.399 . S
C4789 C4790 1.376 . S
C4790 H4777 0.930 . S
C4790 C4789 1.376 . S
C4790 C4791 1.388 . S
C4791 H4778 0.930 . S
C4791 C4790 1.388 . S
C4791 C4792 1.390 . S
C4792 C4791 1.390 . S
C4792 C4793 1.394 . S
C4792 C4798 1.465 . S
C4793 C4788 1.399 . S
C4793 C4792 1.394 . S
C4793 C4794 1.516 . S
C4794 C4793 1.516 . S
C4794 C4795 1.502 . S
C4794 C4796 1.561 . S
C4794 C4797 1.526 . S
C4795 H4779 0.959 . S
C4795 H4780 0.959 . S
C4795 H4781 0.961 . S
C4795 C4794 1.502 . S
C4796 H4782 0.960 . S
C4796 H4783 0.961 . S
C4796 H4784 0.959 . S
C4796 C4794 1.561 . S
C4797 C4794 1.526 . S
C4797 C4798 1.396 . S
C4797 C4802 1.390 . S
C4798 C4792 1.465 . S
C4798 C4797 1.396 . S
C4798 C4799 1.399 . S
C4799 H4785 0.929 . S
C4799 C4798 1.399 . S
C4799 C4800 1.385 . S
C4800 H4786 0.931 . S
C4800 C4799 1.385 . S
C4800 C4801 1.389 . S
C4801 C4800 1.389 . S
C4801 C4802 1.387 . S
C4802 H4787 0.930 . S
C4802 C4797 1.390 . S
C4802 C4801 1.387 . S
H4803 C4815 0.930 . S
H4804 C4817 0.930 . S
H4805 C4818 0.930 . S
H4806 C4822 0.959 . S
H4807 C4822 0.959 . S
H4808 C4822 0.961 . S
H4809 C4823 0.960 . S
H4810 C4823 0.961 . S
H4811 C4823 0.959 . S
H4812 C4826 0.929 . S
H4813 C4827 0.931 . S
H4814 C4829 0.930 . S
C4815 H4803 0.930 . S
C4815 C4816 1.399 . S
C4815 C4820 1.399 . S
C4816 C4815 1.399 . S
C4816 C4817 1.376 . S
C4817 H4804 0.930 . S
C4817 C4816 1.376 . S
C4817 C4818 1.388 . S
C4818 H4805 0.930 . S
C4818 C4817 1.388 . S
C4818 C4819 1.390 . S
C4819 C4818 1.390 . S
C4819 C4820 1.394 . S
C4819 C4825 1.465 . S
C4820 C4815 1.399 . S
C4820 C4819 1.394 . S
C4820 C4821 1.516 . S
C4821 C4820 1.516 . S
C4821 C4822 1.502 . S
C4821 C4823 1.561 . S
C4821 C4824 1.526 . S
C4822 H4806 0.959 . S
C4822 H4807 0.959 . S
C4822 H4808 0.961 . S
C4822 C4821 1.502 . S
C4823 H4809 0.960 . S
C4823 H4810 0.961 . S
C4823 H4811 0.959 . S
C4823 C4821 1.561 . S
C4824 C4821 1.526 . S
C4824 C4825 1.396 . S
C4824 C4829 1.390 . S
C4825 C4819 1.465 . S
C4825 C4824 1.396 . S
C4825 C4826 1.399 . S
C4826 H4812 0.929 . S
C4826 C4825 1.399 . S
C4826 C4827 1.385 . S
C4827 H4813 0.931 . S
C4827 C4826 1.385 . S
C4827 C4828 1.389 . S
C4828 C4827 1.389 . S
C4828 C4829 1.387 . S
C4829 H4814 0.930 . S
C4829 C4824 1.390 . S
C4829 C4828 1.387 . S
H4830 C4842 0.930 . S
H4831 C4844 0.930 . S
H4832 C4845 0.930 . S
H4833 C4849 0.959 . S
H4834 C4849 0.959 . S
H4835 C4849 0.961 . S
H4836 C4850 0.960 . S
H4837 C4850 0.961 . S
H4838 C4850 0.959 . S
H4839 C4853 0.929 . S
H4840 C4854 0.931 . S
H4841 C4856 0.930 . S
C4842 H4830 0.930 . S
C4842 C4843 1.399 . S
C4842 C4847 1.399 . S
C4843 C4842 1.399 . S
C4843 C4844 1.376 . S
C4844 H4831 0.930 . S
C4844 C4843 1.376 . S
C4844 C4845 1.388 . S
C4845 H4832 0.930 . S
C4845 C4844 1.388 . S
C4845 C4846 1.390 . S
C4846 C4845 1.390 . S
C4846 C4847 1.394 . S
C4846 C4852 1.465 . S
C4847 C4842 1.399 . S
C4847 C4846 1.394 . S
C4847 C4848 1.516 . S
C4848 C4847 1.516 . S
C4848 C4849 1.502 . S
C4848 C4850 1.561 . S
C4848 C4851 1.526 . S
C4849 H4833 0.959 . S
C4849 H4834 0.959 . S
C4849 H4835 0.961 . S
C4849 C4848 1.502 . S
C4850 H4836 0.960 . S
C4850 H4837 0.961 . S
C4850 H4838 0.959 . S
C4850 C4848 1.561 . S
C4851 C4848 1.526 . S
C4851 C4852 1.396 . S
C4851 C4856 1.390 . S
C4852 C4846 1.465 . S
C4852 C4851 1.396 . S
C4852 C4853 1.399 . S
C4853 H4839 0.929 . S
C4853 C4852 1.399 . S
C4853 C4854 1.385 . S
C4854 H4840 0.931 . S
C4854 C4853 1.385 . S
C4854 C4855 1.389 . S
C4855 C4854 1.389 . S
C4855 C4856 1.387 . S
C4856 H4841 0.930 . S
C4856 C4851 1.390 . S
C4856 C4855 1.387 . S
H4857 C4869 0.930 . S
H4858 C4871 0.930 . S
H4859 C4872 0.930 . S
H4860 C4876 0.959 . S
H4861 C4876 0.959 . S
H4862 C4876 0.961 . S
H4863 C4877 0.960 . S
H4864 C4877 0.961 . S
H4865 C4877 0.959 . S
H4866 C4880 0.929 . S
H4867 C4881 0.931 . S
H4868 C4883 0.930 . S
C4869 H4857 0.930 . S
C4869 C4870 1.399 . S
C4869 C4874 1.399 . S
C4870 C4869 1.399 . S
C4870 C4871 1.376 . S
C4871 H4858 0.930 . S
C4871 C4870 1.376 . S
C4871 C4872 1.388 . S
C4872 H4859 0.930 . S
C4872 C4871 1.388 . S
C4872 C4873 1.390 . S
C4873 C4872 1.390 . S
C4873 C4874 1.394 . S
C4873 C4879 1.465 . S
C4874 C4869 1.399 . S
C4874 C4873 1.394 . S
C4874 C4875 1.516 . S
C4875 C4874 1.516 . S
C4875 C4876 1.502 . S
C4875 C4877 1.561 . S
C4875 C4878 1.526 . S
C4876 H4860 0.959 . S
C4876 H4861 0.959 . S
C4876 H4862 0.961 . S
C4876 C4875 1.502 . S
C4877 H4863 0.960 . S
C4877 H4864 0.961 . S
C4877 H4865 0.959 . S
C4877 C4875 1.561 . S
C4878 C4875 1.526 . S
C4878 C4879 1.396 . S
C4878 C4883 1.390 . S
C4879 C4873 1.465 . S
C4879 C4878 1.396 . S
C4879 C4880 1.399 . S
C4880 H4866 0.929 . S
C4880 C4879 1.399 . S
C4880 C4881 1.385 . S
C4881 H4867 0.931 . S
C4881 C4880 1.385 . S
C4881 C4882 1.389 . S
C4882 C4881 1.389 . S
C4882 C4883 1.387 . S
C4883 H4868 0.930 . S
C4883 C4878 1.390 . S
C4883 C4882 1.387 . S
H4884 C4896 0.930 . S
H4885 C4898 0.930 . S
H4886 C4899 0.930 . S
H4887 C4903 0.959 . S
H4888 C4903 0.959 . S
H4889 C4903 0.961 . S
H4890 C4904 0.960 . S
H4891 C4904 0.961 . S
H4892 C4904 0.959 . S
H4893 C4907 0.929 . S
H4894 C4908 0.931 . S
H4895 C4910 0.930 . S
C4896 H4884 0.930 . S
C4896 C4897 1.399 . S
C4896 C4901 1.399 . S
C4897 C4896 1.399 . S
C4897 C4898 1.376 . S
C4898 H4885 0.930 . S
C4898 C4897 1.376 . S
C4898 C4899 1.388 . S
C4899 H4886 0.930 . S
C4899 C4898 1.388 . S
C4899 C4900 1.390 . S
C4900 C4899 1.390 . S
C4900 C4901 1.394 . S
C4900 C4906 1.465 . S
C4901 C4896 1.399 . S
C4901 C4900 1.394 . S
C4901 C4902 1.516 . S
C4902 C4901 1.516 . S
C4902 C4903 1.502 . S
C4902 C4904 1.561 . S
C4902 C4905 1.526 . S
C4903 H4887 0.959 . S
C4903 H4888 0.959 . S
C4903 H4889 0.961 . S
C4903 C4902 1.502 . S
C4904 H4890 0.960 . S
C4904 H4891 0.961 . S
C4904 H4892 0.959 . S
C4904 C4902 1.561 . S
C4905 C4902 1.526 . S
C4905 C4906 1.396 . S
C4905 C4910 1.390 . S
C4906 C4900 1.465 . S
C4906 C4905 1.396 . S
C4906 C4907 1.399 . S
C4907 H4893 0.929 . S
C4907 C4906 1.399 . S
C4907 C4908 1.385 . S
C4908 H4894 0.931 . S
C4908 C4907 1.385 . S
C4908 C4909 1.389 . S
C4909 C4908 1.389 . S
C4909 C4910 1.387 . S
C4910 H4895 0.930 . S
C4910 C4905 1.390 . S
C4910 C4909 1.387 . S
H4911 C4923 0.930 . S
H4912 C4925 0.930 . S
H4913 C4926 0.930 . S
H4914 C4930 0.959 . S
H4915 C4930 0.959 . S
H4916 C4930 0.961 . S
H4917 C4931 0.960 . S
H4918 C4931 0.961 . S
H4919 C4931 0.959 . S
H4920 C4934 0.929 . S
H4921 C4935 0.931 . S
H4922 C4937 0.930 . S
C4923 H4911 0.930 . S
C4923 C4924 1.399 . S
C4923 C4928 1.399 . S
C4924 C4923 1.399 . S
C4924 C4925 1.376 . S
C4925 H4912 0.930 . S
C4925 C4924 1.376 . S
C4925 C4926 1.388 . S
C4926 H4913 0.930 . S
C4926 C4925 1.388 . S
C4926 C4927 1.390 . S
C4927 C4926 1.390 . S
C4927 C4928 1.394 . S
C4927 C4933 1.465 . S
C4928 C4923 1.399 . S
C4928 C4927 1.394 . S
C4928 C4929 1.516 . S
C4929 C4928 1.516 . S
C4929 C4930 1.502 . S
C4929 C4931 1.561 . S
C4929 C4932 1.526 . S
C4930 H4914 0.959 . S
C4930 H4915 0.959 . S
C4930 H4916 0.961 . S
C4930 C4929 1.502 . S
C4931 H4917 0.960 . S
C4931 H4918 0.961 . S
C4931 H4919 0.959 . S
C4931 C4929 1.561 . S
C4932 C4929 1.526 . S
C4932 C4933 1.396 . S
C4932 C4937 1.390 . S
C4933 C4927 1.465 . S
C4933 C4932 1.396 . S
C4933 C4934 1.399 . S
C4934 H4920 0.929 . S
C4934 C4933 1.399 . S
C4934 C4935 1.385 . S
C4935 H4921 0.931 . S
C4935 C4934 1.385 . S
C4935 C4936 1.389 . S
C4936 C4935 1.389 . S
C4936 C4937 1.387 . S
C4937 H4922 0.930 . S
C4937 C4932 1.390 . S
C4937 C4936 1.387 . S
H4938 C4950 0.930 . S
H4939 C4952 0.930 . S
H4940 C4953 0.930 . S
H4941 C4957 0.959 . S
H4942 C4957 0.959 . S
H4943 C4957 0.961 . S
H4944 C4958 0.960 . S
H4945 C4958 0.961 . S
H4946 C4958 0.959 . S
H4947 C4961 0.929 . S
H4948 C4962 0.931 . S
H4949 C4964 0.930 . S
C4950 H4938 0.930 . S
C4950 C4951 1.399 . S
C4950 C4955 1.399 . S
C4951 C4950 1.399 . S
C4951 C4952 1.376 . S
C4952 H4939 0.930 . S
C4952 C4951 1.376 . S
C4952 C4953 1.388 . S
C4953 H4940 0.930 . S
C4953 C4952 1.388 . S
C4953 C4954 1.390 . S
C4954 C4953 1.390 . S
C4954 C4955 1.394 . S
C4954 C4960 1.465 . S
C4955 C4950 1.399 . S
C4955 C4954 1.394 . S
C4955 C4956 1.516 . S
C4956 C4955 1.516 . S
C4956 C4957 1.502 . S
C4956 C4958 1.561 . S
C4956 C4959 1.526 . S
C4957 H4941 0.959 . S
C4957 H4942 0.959 . S
C4957 H4943 0.961 . S
C4957 C4956 1.502 . S
C4958 H4944 0.960 . S
C4958 H4945 0.961 . S
C4958 H4946 0.959 . S
C4958 C4956 1.561 . S
C4959 C4956 1.526 . S
C4959 C4960 1.396 . S
C4959 C4964 1.390 . S
C4960 C4954 1.465 . S
C4960 C4959 1.396 . S
C4960 C4961 1.399 . S
C4961 H4947 0.929 . S
C4961 C4960 1.399 . S
C4961 C4962 1.385 . S
C4962 H4948 0.931 . S
C4962 C4961 1.385 . S
C4962 C4963 1.389 . S
C4963 C4962 1.389 . S
C4963 C4964 1.387 . S
C4964 H4949 0.930 . S
C4964 C4959 1.390 . S
C4964 C4963 1.387 . S
H4965 C4977 0.930 . S
H4966 C4979 0.930 . S
H4967 C4980 0.930 . S
H4968 C4984 0.959 . S
H4969 C4984 0.959 . S
H4970 C4984 0.961 . S
H4971 C4985 0.960 . S
H4972 C4985 0.961 . S
H4973 C4985 0.959 . S
H4974 C4988 0.929 . S
H4975 C4989 0.931 . S
H4976 C4991 0.930 . S
C4977 H4965 0.930 . S
C4977 C4978 1.399 . S
C4977 C4982 1.399 . S
C4978 C4977 1.399 . S
C4978 C4979 1.376 . S
C4979 H4966 0.930 . S
C4979 C4978 1.376 . S
C4979 C4980 1.388 . S
C4980 H4967 0.930 . S
C4980 C4979 1.388 . S
C4980 C4981 1.390 . S
C4981 C4980 1.390 . S
C4981 C4982 1.394 . S
C4981 C4987 1.465 . S
C4982 C4977 1.399 . S
C4982 C4981 1.394 . S
C4982 C4983 1.516 . S
C4983 C4982 1.516 . S
C4983 C4984 1.502 . S
C4983 C4985 1.561 . S
C4983 C4986 1.526 . S
C4984 H4968 0.959 . S
C4984 H4969 0.959 . S
C4984 H4970 0.961 . S
C4984 C4983 1.502 . S
C4985 H4971 0.960 . S
C4985 H4972 0.961 . S
C4985 H4973 0.959 . S
C4985 C4983 1.561 . S
C4986 C4983 1.526 . S
C4986 C4987 1.396 . S
C4986 C4991 1.390 . S
C4987 C4981 1.465 . S
C4987 C4986 1.396 . S
C4987 C4988 1.399 . S
C4988 H4974 0.929 . S
C4988 C4987 1.399 . S
C4988 C4989 1.385 . S
C4989 H4975 0.931 . S
C4989 C4988 1.385 . S
C4989 C4990 1.389 . S
C4990 C4989 1.389 . S
C4990 C4991 1.387 . S
C4991 H4976 0.930 . S
C4991 C4986 1.390 . S
C4991 C4990 1.387 . S
H4992 C5004 0.930 . S
H4993 C5006 0.930 . S
H4994 C5007 0.930 . S
H4995 C5011 0.959 . S
H4996 C5011 0.959 . S
H4997 C5011 0.961 . S
H4998 C5012 0.960 . S
H4999 C5012 0.961 . S
H5000 C5012 0.959 . S
H5001 C5015 0.929 . S
H5002 C5016 0.931 . S
H5003 C5018 0.930 . S
C5004 H4992 0.930 . S
C5004 C5005 1.399 . S
C5004 C5009 1.399 . S
C5005 C5004 1.399 . S
C5005 C5006 1.376 . S
C5006 H4993 0.930 . S
C5006 C5005 1.376 . S
C5006 C5007 1.388 . S
C5007 H4994 0.930 . S
C5007 C5006 1.388 . S
C5007 C5008 1.390 . S
C5008 C5007 1.390 . S
C5008 C5009 1.394 . S
C5008 C5014 1.465 . S
C5009 C5004 1.399 . S
C5009 C5008 1.394 . S
C5009 C5010 1.516 . S
C5010 C5009 1.516 . S
C5010 C5011 1.502 . S
C5010 C5012 1.561 . S
C5010 C5013 1.526 . S
C5011 H4995 0.959 . S
C5011 H4996 0.959 . S
C5011 H4997 0.961 . S
C5011 C5010 1.502 . S
C5012 H4998 0.960 . S
C5012 H4999 0.961 . S
C5012 H5000 0.959 . S
C5012 C5010 1.561 . S
C5013 C5010 1.526 . S
C5013 C5014 1.396 . S
C5013 C5018 1.390 . S
C5014 C5008 1.465 . S
C5014 C5013 1.396 . S
C5014 C5015 1.399 . S
C5015 H5001 0.929 . S
C5015 C5014 1.399 . S
C5015 C5016 1.385 . S
C5016 H5002 0.931 . S
C5016 C5015 1.385 . S
C5016 C5017 1.389 . S
C5017 C5016 1.389 . S
C5017 C5018 1.387 . S
C5018 H5003 0.930 . S
C5018 C5013 1.390 . S
C5018 C5017 1.387 . S
H5019 C5031 0.930 . S
H5020 C5033 0.930 . S
H5021 C5034 0.930 . S
H5022 C5038 0.959 . S
H5023 C5038 0.959 . S
H5024 C5038 0.961 . S
H5025 C5039 0.960 . S
H5026 C5039 0.961 . S
H5027 C5039 0.959 . S
H5028 C5042 0.929 . S
H5029 C5043 0.931 . S
H5030 C5045 0.930 . S
C5031 H5019 0.930 . S
C5031 C5032 1.399 . S
C5031 C5036 1.399 . S
C5032 C5031 1.399 . S
C5032 C5033 1.376 . S
C5033 H5020 0.930 . S
C5033 C5032 1.376 . S
C5033 C5034 1.388 . S
C5034 H5021 0.930 . S
C5034 C5033 1.388 . S
C5034 C5035 1.390 . S
C5035 C5034 1.390 . S
C5035 C5036 1.394 . S
C5035 C5041 1.465 . S
C5036 C5031 1.399 . S
C5036 C5035 1.394 . S
C5036 C5037 1.516 . S
C5037 C5036 1.516 . S
C5037 C5038 1.502 . S
C5037 C5039 1.561 . S
C5037 C5040 1.526 . S
C5038 H5022 0.959 . S
C5038 H5023 0.959 . S
C5038 H5024 0.961 . S
C5038 C5037 1.502 . S
C5039 H5025 0.960 . S
C5039 H5026 0.961 . S
C5039 H5027 0.959 . S
C5039 C5037 1.561 . S
C5040 C5037 1.526 . S
C5040 C5041 1.396 . S
C5040 C5045 1.390 . S
C5041 C5035 1.465 . S
C5041 C5040 1.396 . S
C5041 C5042 1.399 . S
C5042 H5028 0.929 . S
C5042 C5041 1.399 . S
C5042 C5043 1.385 . S
C5043 H5029 0.931 . S
C5043 C5042 1.385 . S
C5043 C5044 1.389 . S
C5044 C5043 1.389 . S
C5044 C5045 1.387 . S
C5045 H5030 0.930 . S
C5045 C5040 1.390 . S
C5045 C5044 1.387 . S
H5046 C5058 0.930 . S
H5047 C5060 0.930 . S
H5048 C5061 0.930 . S
H5049 C5065 0.959 . S
H5050 C5065 0.959 . S
H5051 C5065 0.961 . S
H5052 C5066 0.960 . S
H5053 C5066 0.961 . S
H5054 C5066 0.959 . S
H5055 C5069 0.929 . S
H5056 C5070 0.931 . S
H5057 C5072 0.930 . S
C5058 H5046 0.930 . S
C5058 C5059 1.399 . S
C5058 C5063 1.399 . S
C5059 C5058 1.399 . S
C5059 C5060 1.376 . S
C5060 H5047 0.930 . S
C5060 C5059 1.376 . S
C5060 C5061 1.388 . S
C5061 H5048 0.930 . S
C5061 C5060 1.388 . S
C5061 C5062 1.390 . S
C5062 C5061 1.390 . S
C5062 C5063 1.394 . S
C5062 C5068 1.465 . S
C5063 C5058 1.399 . S
C5063 C5062 1.394 . S
C5063 C5064 1.516 . S
C5064 C5063 1.516 . S
C5064 C5065 1.502 . S
C5064 C5066 1.561 . S
C5064 C5067 1.526 . S
C5065 H5049 0.959 . S
C5065 H5050 0.959 . S
C5065 H5051 0.961 . S
C5065 C5064 1.502 . S
C5066 H5052 0.960 . S
C5066 H5053 0.961 . S
C5066 H5054 0.959 . S
C5066 C5064 1.561 . S
C5067 C5064 1.526 . S
C5067 C5068 1.396 . S
C5067 C5072 1.390 . S
C5068 C5062 1.465 . S
C5068 C5067 1.396 . S
C5068 C5069 1.399 . S
C5069 H5055 0.929 . S
C5069 C5068 1.399 . S
C5069 C5070 1.385 . S
C5070 H5056 0.931 . S
C5070 C5069 1.385 . S
C5070 C5071 1.389 . S
C5071 C5070 1.389 . S
C5071 C5072 1.387 . S
C5072 H5057 0.930 . S
C5072 C5067 1.390 . S
C5072 C5071 1.387 . S
H5073 C5085 0.930 . S
H5074 C5087 0.930 . S
H5075 C5088 0.930 . S
H5076 C5092 0.959 . S
H5077 C5092 0.959 . S
H5078 C5092 0.961 . S
H5079 C5093 0.960 . S
H5080 C5093 0.961 . S
H5081 C5093 0.959 . S
H5082 C5096 0.929 . S
H5083 C5097 0.931 . S
H5084 C5099 0.930 . S
C5085 H5073 0.930 . S
C5085 C5086 1.399 . S
C5085 C5090 1.399 . S
C5086 C5085 1.399 . S
C5086 C5087 1.376 . S
C5087 H5074 0.930 . S
C5087 C5086 1.376 . S
C5087 C5088 1.388 . S
C5088 H5075 0.930 . S
C5088 C5087 1.388 . S
C5088 C5089 1.390 . S
C5089 C5088 1.390 . S
C5089 C5090 1.394 . S
C5089 C5095 1.465 . S
C5090 C5085 1.399 . S
C5090 C5089 1.394 . S
C5090 C5091 1.516 . S
C5091 C5090 1.516 . S
C5091 C5092 1.502 . S
C5091 C5093 1.561 . S
C5091 C5094 1.526 . S
C5092 H5076 0.959 . S
C5092 H5077 0.959 . S
C5092 H5078 0.961 . S
C5092 C5091 1.502 . S
C5093 H5079 0.960 . S
C5093 H5080 0.961 . S
C5093 H5081 0.959 . S
C5093 C5091 1.561 . S
C5094 C5091 1.526 . S
C5094 C5095 1.396 . S
C5094 C5099 1.390 . S
C5095 C5089 1.465 . S
C5095 C5094 1.396 . S
C5095 C5096 1.399 . S
C5096 H5082 0.929 . S
C5096 C5095 1.399 . S
C5096 C5097 1.385 . S
C5097 H5083 0.931 . S
C5097 C5096 1.385 . S
C5097 C5098 1.389 . S
C5098 C5097 1.389 . S
C5098 C5099 1.387 . S
C5099 H5084 0.930 . S
C5099 C5094 1.390 . S
C5099 C5098 1.387 . S
H5100 C5112 0.930 . S
H5101 C5114 0.930 . S
H5102 C5115 0.930 . S
H5103 C5119 0.959 . S
H5104 C5119 0.959 . S
H5105 C5119 0.961 . S
H5106 C5120 0.960 . S
H5107 C5120 0.961 . S
H5108 C5120 0.959 . S
H5109 C5123 0.929 . S
H5110 C5124 0.931 . S
H5111 C5126 0.930 . S
C5112 H5100 0.930 . S
C5112 C5113 1.399 . S
C5112 C5117 1.399 . S
C5113 C5112 1.399 . S
C5113 C5114 1.376 . S
C5114 H5101 0.930 . S
C5114 C5113 1.376 . S
C5114 C5115 1.388 . S
C5115 H5102 0.930 . S
C5115 C5114 1.388 . S
C5115 C5116 1.390 . S
C5116 C5115 1.390 . S
C5116 C5117 1.394 . S
C5116 C5122 1.465 . S
C5117 C5112 1.399 . S
C5117 C5116 1.394 . S
C5117 C5118 1.516 . S
C5118 C5117 1.516 . S
C5118 C5119 1.502 . S
C5118 C5120 1.561 . S
C5118 C5121 1.526 . S
C5119 H5103 0.959 . S
C5119 H5104 0.959 . S
C5119 H5105 0.961 . S
C5119 C5118 1.502 . S
C5120 H5106 0.960 . S
C5120 H5107 0.961 . S
C5120 H5108 0.959 . S
C5120 C5118 1.561 . S
C5121 C5118 1.526 . S
C5121 C5122 1.396 . S
C5121 C5126 1.390 . S
C5122 C5116 1.465 . S
C5122 C5121 1.396 . S
C5122 C5123 1.399 . S
C5123 H5109 0.929 . S
C5123 C5122 1.399 . S
C5123 C5124 1.385 . S
C5124 H5110 0.931 . S
C5124 C5123 1.385 . S
C5124 C5125 1.389 . S
C5125 C5124 1.389 . S
C5125 C5126 1.387 . S
C5126 H5111 0.930 . S
C5126 C5121 1.390 . S
C5126 C5125 1.387 . S
H5127 C5139 0.930 . S
H5128 C5141 0.930 . S
H5129 C5142 0.930 . S
H5130 C5146 0.959 . S
H5131 C5146 0.959 . S
H5132 C5146 0.961 . S
H5133 C5147 0.960 . S
H5134 C5147 0.961 . S
H5135 C5147 0.959 . S
H5136 C5150 0.929 . S
H5137 C5151 0.931 . S
H5138 C5153 0.930 . S
C5139 H5127 0.930 . S
C5139 C5140 1.399 . S
C5139 C5144 1.399 . S
C5140 C5139 1.399 . S
C5140 C5141 1.376 . S
C5141 H5128 0.930 . S
C5141 C5140 1.376 . S
C5141 C5142 1.388 . S
C5142 H5129 0.930 . S
C5142 C5141 1.388 . S
C5142 C5143 1.390 . S
C5143 C5142 1.390 . S
C5143 C5144 1.394 . S
C5143 C5149 1.465 . S
C5144 C5139 1.399 . S
C5144 C5143 1.394 . S
C5144 C5145 1.516 . S
C5145 C5144 1.516 . S
C5145 C5146 1.502 . S
C5145 C5147 1.561 . S
C5145 C5148 1.526 . S
C5146 H5130 0.959 . S
C5146 H5131 0.959 . S
C5146 H5132 0.961 . S
C5146 C5145 1.502 . S
C5147 H5133 0.960 . S
C5147 H5134 0.961 . S
C5147 H5135 0.959 . S
C5147 C5145 1.561 . S
C5148 C5145 1.526 . S
C5148 C5149 1.396 . S
C5148 C5153 1.390 . S
C5149 C5143 1.465 . S
C5149 C5148 1.396 . S
C5149 C5150 1.399 . S
C5150 H5136 0.929 . S
C5150 C5149 1.399 . S
C5150 C5151 1.385 . S
C5151 H5137 0.931 . S
C5151 C5150 1.385 . S
C5151 C5152 1.389 . S
C5152 C5151 1.389 . S
C5152 C5153 1.387 . S
C5153 H5138 0.930 . S
C5153 C5148 1.390 . S
C5153 C5152 1.387 . S
H5154 C5166 0.930 . S
H5155 C5168 0.930 . S
H5156 C5169 0.930 . S
H5157 C5173 0.959 . S
H5158 C5173 0.959 . S
H5159 C5173 0.961 . S
H5160 C5174 0.960 . S
H5161 C5174 0.961 . S
H5162 C5174 0.959 . S
H5163 C5177 0.929 . S
H5164 C5178 0.931 . S
H5165 C5180 0.930 . S
C5166 H5154 0.930 . S
C5166 C5167 1.399 . S
C5166 C5171 1.399 . S
C5167 C5166 1.399 . S
C5167 C5168 1.376 . S
C5168 H5155 0.930 . S
C5168 C5167 1.376 . S
C5168 C5169 1.388 . S
C5169 H5156 0.930 . S
C5169 C5168 1.388 . S
C5169 C5170 1.390 . S
C5170 C5169 1.390 . S
C5170 C5171 1.394 . S
C5170 C5176 1.465 . S
C5171 C5166 1.399 . S
C5171 C5170 1.394 . S
C5171 C5172 1.516 . S
C5172 C5171 1.516 . S
C5172 C5173 1.502 . S
C5172 C5174 1.561 . S
C5172 C5175 1.526 . S
C5173 H5157 0.959 . S
C5173 H5158 0.959 . S
C5173 H5159 0.961 . S
C5173 C5172 1.502 . S
C5174 H5160 0.960 . S
C5174 H5161 0.961 . S
C5174 H5162 0.959 . S
C5174 C5172 1.561 . S
C5175 C5172 1.526 . S
C5175 C5176 1.396 . S
C5175 C5180 1.390 . S
C5176 C5170 1.465 . S
C5176 C5175 1.396 . S
C5176 C5177 1.399 . S
C5177 H5163 0.929 . S
C5177 C5176 1.399 . S
C5177 C5178 1.385 . S
C5178 H5164 0.931 . S
C5178 C5177 1.385 . S
C5178 C5179 1.389 . S
C5179 C5178 1.389 . S
C5179 C5180 1.387 . S
C5180 H5165 0.930 . S
C5180 C5175 1.390 . S
C5180 C5179 1.387 . S
H5181 C5193 0.930 . S
H5182 C5195 0.930 . S
H5183 C5196 0.930 . S
H5184 C5200 0.959 . S
H5185 C5200 0.959 . S
H5186 C5200 0.961 . S
H5187 C5201 0.960 . S
H5188 C5201 0.961 . S
H5189 C5201 0.959 . S
H5190 C5204 0.929 . S
H5191 C5205 0.931 . S
H5192 C5207 0.930 . S
C5193 H5181 0.930 . S
C5193 C5194 1.399 . S
C5193 C5198 1.399 . S
C5194 C5193 1.399 . S
C5194 C5195 1.376 . S
C5195 H5182 0.930 . S
C5195 C5194 1.376 . S
C5195 C5196 1.388 . S
C5196 H5183 0.930 . S
C5196 C5195 1.388 . S
C5196 C5197 1.390 . S
C5197 C5196 1.390 . S
C5197 C5198 1.394 . S
C5197 C5203 1.465 . S
C5198 C5193 1.399 . S
C5198 C5197 1.394 . S
C5198 C5199 1.516 . S
C5199 C5198 1.516 . S
C5199 C5200 1.502 . S
C5199 C5201 1.561 . S
C5199 C5202 1.526 . S
C5200 H5184 0.959 . S
C5200 H5185 0.959 . S
C5200 H5186 0.961 . S
C5200 C5199 1.502 . S
C5201 H5187 0.960 . S
C5201 H5188 0.961 . S
C5201 H5189 0.959 . S
C5201 C5199 1.561 . S
C5202 C5199 1.526 . S
C5202 C5203 1.396 . S
C5202 C5207 1.390 . S
C5203 C5197 1.465 . S
C5203 C5202 1.396 . S
C5203 C5204 1.399 . S
C5204 H5190 0.929 . S
C5204 C5203 1.399 . S
C5204 C5205 1.385 . S
C5205 H5191 0.931 . S
C5205 C5204 1.385 . S
C5205 C5206 1.389 . S
C5206 C5205 1.389 . S
C5206 C5207 1.387 . S
C5207 H5192 0.930 . S
C5207 C5202 1.390 . S
C5207 C5206 1.387 . S
H5208 C5220 0.930 . S
H5209 C5222 0.930 . S
H5210 C5223 0.930 . S
H5211 C5227 0.959 . S
H5212 C5227 0.959 . S
H5213 C5227 0.961 . S
H5214 C5228 0.960 . S
H5215 C5228 0.961 . S
H5216 C5228 0.959 . S
H5217 C5231 0.929 . S
H5218 C5232 0.931 . S
H5219 C5234 0.930 . S
C5220 H5208 0.930 . S
C5220 C5221 1.399 . S
C5220 C5225 1.399 . S
C5221 C5220 1.399 . S
C5221 C5222 1.376 . S
C5222 H5209 0.930 . S
C5222 C5221 1.376 . S
C5222 C5223 1.388 . S
C5223 H5210 0.930 . S
C5223 C5222 1.388 . S
C5223 C5224 1.390 . S
C5224 C5223 1.390 . S
C5224 C5225 1.394 . S
C5224 C5230 1.465 . S
C5225 C5220 1.399 . S
C5225 C5224 1.394 . S
C5225 C5226 1.516 . S
C5226 C5225 1.516 . S
C5226 C5227 1.502 . S
C5226 C5228 1.561 . S
C5226 C5229 1.526 . S
C5227 H5211 0.959 . S
C5227 H5212 0.959 . S
C5227 H5213 0.961 . S
C5227 C5226 1.502 . S
C5228 H5214 0.960 . S
C5228 H5215 0.961 . S
C5228 H5216 0.959 . S
C5228 C5226 1.561 . S
C5229 C5226 1.526 . S
C5229 C5230 1.396 . S
C5229 C5234 1.390 . S
C5230 C5224 1.465 . S
C5230 C5229 1.396 . S
C5230 C5231 1.399 . S
C5231 H5217 0.929 . S
C5231 C5230 1.399 . S
C5231 C5232 1.385 . S
C5232 H5218 0.931 . S
C5232 C5231 1.385 . S
C5232 C5233 1.389 . S
C5233 C5232 1.389 . S
C5233 C5234 1.387 . S
C5234 H5219 0.930 . S
C5234 C5229 1.390 . S
C5234 C5233 1.387 . S
H5235 C5247 0.930 . S
H5236 C5249 0.930 . S
H5237 C5250 0.930 . S
H5238 C5254 0.959 . S
H5239 C5254 0.959 . S
H5240 C5254 0.961 . S
H5241 C5255 0.960 . S
H5242 C5255 0.961 . S
H5243 C5255 0.959 . S
H5244 C5258 0.929 . S
H5245 C5259 0.931 . S
H5246 C5261 0.930 . S
C5247 H5235 0.930 . S
C5247 C5248 1.399 . S
C5247 C5252 1.399 . S
C5248 C5247 1.399 . S
C5248 C5249 1.376 . S
C5249 H5236 0.930 . S
C5249 C5248 1.376 . S
C5249 C5250 1.388 . S
C5250 H5237 0.930 . S
C5250 C5249 1.388 . S
C5250 C5251 1.390 . S
C5251 C5250 1.390 . S
C5251 C5252 1.394 . S
C5251 C5257 1.465 . S
C5252 C5247 1.399 . S
C5252 C5251 1.394 . S
C5252 C5253 1.516 . S
C5253 C5252 1.516 . S
C5253 C5254 1.502 . S
C5253 C5255 1.561 . S
C5253 C5256 1.526 . S
C5254 H5238 0.959 . S
C5254 H5239 0.959 . S
C5254 H5240 0.961 . S
C5254 C5253 1.502 . S
C5255 H5241 0.960 . S
C5255 H5242 0.961 . S
C5255 H5243 0.959 . S
C5255 C5253 1.561 . S
C5256 C5253 1.526 . S
C5256 C5257 1.396 . S
C5256 C5261 1.390 . S
C5257 C5251 1.465 . S
C5257 C5256 1.396 . S
C5257 C5258 1.399 . S
C5258 H5244 0.929 . S
C5258 C5257 1.399 . S
C5258 C5259 1.385 . S
C5259 H5245 0.931 . S
C5259 C5258 1.385 . S
C5259 C5260 1.389 . S
C5260 C5259 1.389 . S
C5260 C5261 1.387 . S
C5261 H5246 0.930 . S
C5261 C5256 1.390 . S
C5261 C5260 1.387 . S
H5262 C5274 0.930 . S
H5263 C5276 0.930 . S
H5264 C5277 0.930 . S
H5265 C5281 0.959 . S
H5266 C5281 0.959 . S
H5267 C5281 0.961 . S
H5268 C5282 0.960 . S
H5269 C5282 0.961 . S
H5270 C5282 0.959 . S
H5271 C5285 0.929 . S
H5272 C5286 0.931 . S
H5273 C5288 0.930 . S
C5274 H5262 0.930 . S
C5274 C5275 1.399 . S
C5274 C5279 1.399 . S
C5275 C5274 1.399 . S
C5275 C5276 1.376 . S
C5276 H5263 0.930 . S
C5276 C5275 1.376 . S
C5276 C5277 1.388 . S
C5277 H5264 0.930 . S
C5277 C5276 1.388 . S
C5277 C5278 1.390 . S
C5278 C5277 1.390 . S
C5278 C5279 1.394 . S
C5278 C5284 1.465 . S
C5279 C5274 1.399 . S
C5279 C5278 1.394 . S
C5279 C5280 1.516 . S
C5280 C5279 1.516 . S
C5280 C5281 1.502 . S
C5280 C5282 1.561 . S
C5280 C5283 1.526 . S
C5281 H5265 0.959 . S
C5281 H5266 0.959 . S
C5281 H5267 0.961 . S
C5281 C5280 1.502 . S
C5282 H5268 0.960 . S
C5282 H5269 0.961 . S
C5282 H5270 0.959 . S
C5282 C5280 1.561 . S
C5283 C5280 1.526 . S
C5283 C5284 1.396 . S
C5283 C5288 1.390 . S
C5284 C5278 1.465 . S
C5284 C5283 1.396 . S
C5284 C5285 1.399 . S
C5285 H5271 0.929 . S
C5285 C5284 1.399 . S
C5285 C5286 1.385 . S
C5286 H5272 0.931 . S
C5286 C5285 1.385 . S
C5286 C5287 1.389 . S
C5287 C5286 1.389 . S
C5287 C5288 1.387 . S
C5288 H5273 0.930 . S
C5288 C5283 1.390 . S
C5288 C5287 1.387 . S
H5289 C5301 0.930 . S
H5290 C5303 0.930 . S
H5291 C5304 0.930 . S
H5292 C5308 0.959 . S
H5293 C5308 0.959 . S
H5294 C5308 0.961 . S
H5295 C5309 0.960 . S
H5296 C5309 0.961 . S
H5297 C5309 0.959 . S
H5298 C5312 0.929 . S
H5299 C5313 0.931 . S
H5300 C5315 0.930 . S
C5301 H5289 0.930 . S
C5301 C5302 1.399 . S
C5301 C5306 1.399 . S
C5302 C5301 1.399 . S
C5302 C5303 1.376 . S
C5303 H5290 0.930 . S
C5303 C5302 1.376 . S
C5303 C5304 1.388 . S
C5304 H5291 0.930 . S
C5304 C5303 1.388 . S
C5304 C5305 1.390 . S
C5305 C5304 1.390 . S
C5305 C5306 1.394 . S
C5305 C5311 1.465 . S
C5306 C5301 1.399 . S
C5306 C5305 1.394 . S
C5306 C5307 1.516 . S
C5307 C5306 1.516 . S
C5307 C5308 1.502 . S
C5307 C5309 1.561 . S
C5307 C5310 1.526 . S
C5308 H5292 0.959 . S
C5308 H5293 0.959 . S
C5308 H5294 0.961 . S
C5308 C5307 1.502 . S
C5309 H5295 0.960 . S
C5309 H5296 0.961 . S
C5309 H5297 0.959 . S
C5309 C5307 1.561 . S
C5310 C5307 1.526 . S
C5310 C5311 1.396 . S
C5310 C5315 1.390 . S
C5311 C5305 1.465 . S
C5311 C5310 1.396 . S
C5311 C5312 1.399 . S
C5312 H5298 0.929 . S
C5312 C5311 1.399 . S
C5312 C5313 1.385 . S
C5313 H5299 0.931 . S
C5313 C5312 1.385 . S
C5313 C5314 1.389 . S
C5314 C5313 1.389 . S
C5314 C5315 1.387 . S
C5315 H5300 0.930 . S
C5315 C5310 1.390 . S
C5315 C5314 1.387 . S
H5316 C5328 0.930 . S
H5317 C5330 0.930 . S
H5318 C5331 0.930 . S
H5319 C5335 0.959 . S
H5320 C5335 0.959 . S
H5321 C5335 0.961 . S
H5322 C5336 0.960 . S
H5323 C5336 0.961 . S
H5324 C5336 0.959 . S
H5325 C5339 0.929 . S
H5326 C5340 0.931 . S
H5327 C5342 0.930 . S
C5328 H5316 0.930 . S
C5328 C5329 1.399 . S
C5328 C5333 1.399 . S
C5329 C5328 1.399 . S
C5329 C5330 1.376 . S
C5330 H5317 0.930 . S
C5330 C5329 1.376 . S
C5330 C5331 1.388 . S
C5331 H5318 0.930 . S
C5331 C5330 1.388 . S
C5331 C5332 1.390 . S
C5332 C5331 1.390 . S
C5332 C5333 1.394 . S
C5332 C5338 1.465 . S
C5333 C5328 1.399 . S
C5333 C5332 1.394 . S
C5333 C5334 1.516 . S
C5334 C5333 1.516 . S
C5334 C5335 1.502 . S
C5334 C5336 1.561 . S
C5334 C5337 1.526 . S
C5335 H5319 0.959 . S
C5335 H5320 0.959 . S
C5335 H5321 0.961 . S
C5335 C5334 1.502 . S
C5336 H5322 0.960 . S
C5336 H5323 0.961 . S
C5336 H5324 0.959 . S
C5336 C5334 1.561 . S
C5337 C5334 1.526 . S
C5337 C5338 1.396 . S
C5337 C5342 1.390 . S
C5338 C5332 1.465 . S
C5338 C5337 1.396 . S
C5338 C5339 1.399 . S
C5339 H5325 0.929 . S
C5339 C5338 1.399 . S
C5339 C5340 1.385 . S
C5340 H5326 0.931 . S
C5340 C5339 1.385 . S
C5340 C5341 1.389 . S
C5341 C5340 1.389 . S
C5341 C5342 1.387 . S
C5342 H5327 0.930 . S
C5342 C5337 1.390 . S
C5342 C5341 1.387 . S
H5343 C5355 0.930 . S
H5344 C5357 0.930 . S
H5345 C5358 0.930 . S
H5346 C5362 0.959 . S
H5347 C5362 0.959 . S
H5348 C5362 0.961 . S
H5349 C5363 0.960 . S
H5350 C5363 0.961 . S
H5351 C5363 0.959 . S
H5352 C5366 0.929 . S
H5353 C5367 0.931 . S
H5354 C5369 0.930 . S
C5355 H5343 0.930 . S
C5355 C5356 1.399 . S
C5355 C5360 1.399 . S
C5356 C5355 1.399 . S
C5356 C5357 1.376 . S
C5357 H5344 0.930 . S
C5357 C5356 1.376 . S
C5357 C5358 1.388 . S
C5358 H5345 0.930 . S
C5358 C5357 1.388 . S
C5358 C5359 1.390 . S
C5359 C5358 1.390 . S
C5359 C5360 1.394 . S
C5359 C5365 1.465 . S
C5360 C5355 1.399 . S
C5360 C5359 1.394 . S
C5360 C5361 1.516 . S
C5361 C5360 1.516 . S
C5361 C5362 1.502 . S
C5361 C5363 1.561 . S
C5361 C5364 1.526 . S
C5362 H5346 0.959 . S
C5362 H5347 0.959 . S
C5362 H5348 0.961 . S
C5362 C5361 1.502 . S
C5363 H5349 0.960 . S
C5363 H5350 0.961 . S
C5363 H5351 0.959 . S
C5363 C5361 1.561 . S
C5364 C5361 1.526 . S
C5364 C5365 1.396 . S
C5364 C5369 1.390 . S
C5365 C5359 1.465 . S
C5365 C5364 1.396 . S
C5365 C5366 1.399 . S
C5366 H5352 0.929 . S
C5366 C5365 1.399 . S
C5366 C5367 1.385 . S
C5367 H5353 0.931 . S
C5367 C5366 1.385 . S
C5367 C5368 1.389 . S
C5368 C5367 1.389 . S
C5368 C5369 1.387 . S
C5369 H5354 0.930 . S
C5369 C5364 1.390 . S
C5369 C5368 1.387 . S
H5370 C5382 0.930 . S
H5371 C5384 0.930 . S
H5372 C5385 0.930 . S
H5373 C5389 0.959 . S
H5374 C5389 0.959 . S
H5375 C5389 0.961 . S
H5376 C5390 0.960 . S
H5377 C5390 0.961 . S
H5378 C5390 0.959 . S
H5379 C5393 0.929 . S
H5380 C5394 0.931 . S
H5381 C5396 0.930 . S
C5382 H5370 0.930 . S
C5382 C5383 1.399 . S
C5382 C5387 1.399 . S
C5383 C5382 1.399 . S
C5383 C5384 1.376 . S
C5384 H5371 0.930 . S
C5384 C5383 1.376 . S
C5384 C5385 1.388 . S
C5385 H5372 0.930 . S
C5385 C5384 1.388 . S
C5385 C5386 1.390 . S
C5386 C5385 1.390 . S
C5386 C5387 1.394 . S
C5386 C5392 1.465 . S
C5387 C5382 1.399 . S
C5387 C5386 1.394 . S
C5387 C5388 1.516 . S
C5388 C5387 1.516 . S
C5388 C5389 1.502 . S
C5388 C5390 1.561 . S
C5388 C5391 1.526 . S
C5389 H5373 0.959 . S
C5389 H5374 0.959 . S
C5389 H5375 0.961 . S
C5389 C5388 1.502 . S
C5390 H5376 0.960 . S
C5390 H5377 0.961 . S
C5390 H5378 0.959 . S
C5390 C5388 1.561 . S
C5391 C5388 1.526 . S
C5391 C5392 1.396 . S
C5391 C5396 1.390 . S
C5392 C5386 1.465 . S
C5392 C5391 1.396 . S
C5392 C5393 1.399 . S
C5393 H5379 0.929 . S
C5393 C5392 1.399 . S
C5393 C5394 1.385 . S
C5394 H5380 0.931 . S
C5394 C5393 1.385 . S
C5394 C5395 1.389 . S
C5395 C5394 1.389 . S
C5395 C5396 1.387 . S
C5396 H5381 0.930 . S
C5396 C5391 1.390 . S
C5396 C5395 1.387 . S
H5397 C5409 0.930 . S
H5398 C5411 0.930 . S
H5399 C5412 0.930 . S
H5400 C5416 0.959 . S
H5401 C5416 0.959 . S
H5402 C5416 0.961 . S
H5403 C5417 0.960 . S
H5404 C5417 0.961 . S
H5405 C5417 0.959 . S
H5406 C5420 0.929 . S
H5407 C5421 0.931 . S
H5408 C5423 0.930 . S
C5409 H5397 0.930 . S
C5409 C5410 1.399 . S
C5409 C5414 1.399 . S
C5410 C5409 1.399 . S
C5410 C5411 1.376 . S
C5411 H5398 0.930 . S
C5411 C5410 1.376 . S
C5411 C5412 1.388 . S
C5412 H5399 0.930 . S
C5412 C5411 1.388 . S
C5412 C5413 1.390 . S
C5413 C5412 1.390 . S
C5413 C5414 1.394 . S
C5413 C5419 1.465 . S
C5414 C5409 1.399 . S
C5414 C5413 1.394 . S
C5414 C5415 1.516 . S
C5415 C5414 1.516 . S
C5415 C5416 1.502 . S
C5415 C5417 1.561 . S
C5415 C5418 1.526 . S
C5416 H5400 0.959 . S
C5416 H5401 0.959 . S
C5416 H5402 0.961 . S
C5416 C5415 1.502 . S
C5417 H5403 0.960 . S
C5417 H5404 0.961 . S
C5417 H5405 0.959 . S
C5417 C5415 1.561 . S
C5418 C5415 1.526 . S
C5418 C5419 1.396 . S
C5418 C5423 1.390 . S
C5419 C5413 1.465 . S
C5419 C5418 1.396 . S
C5419 C5420 1.399 . S
C5420 H5406 0.929 . S
C5420 C5419 1.399 . S
C5420 C5421 1.385 . S
C5421 H5407 0.931 . S
C5421 C5420 1.385 . S
C5421 C5422 1.389 . S
C5422 C5421 1.389 . S
C5422 C5423 1.387 . S
C5423 H5408 0.930 . S
C5423 C5418 1.390 . S
C5423 C5422 1.387 . S
C2845 C536 1.493 . S
C2857 C5 1.584 . S
C2872 C595 1.570 . S
C2884 C64 1.511 . S
C2899 C654 1.576 . S
C2911 C123 1.500 . S
C2926 C182 1.581 . S
C2938 C477 1.498 . S
C2953 C890 1.562 . S
C2965 C241 1.513 . S
C2980 C300 1.583 . S
C2992 C713 1.494 . S
C3007 C772 1.579 . S
C3019 C359 1.497 . S
C3034 C831 1.513 . S
C3046 C418 1.560 . S
C3061 C949 1.500 . S
C3073 C1067 1.579 . S
C3088 C1008 1.584 . S
C3100 C1303 1.493 . S
C3115 C1126 1.492 . S
C3127 C1362 1.584 . S
C3142 C1185 1.570 . S
C3154 C1244 1.512 . S
C3169 C1421 1.553 . S
C3181 C1952 1.529 . S
C3196 C2011 1.530 . S
C3208 C1480 1.543 . S
C3223 C1539 1.532 . S
C3235 C2070 1.541 . S
C3250 C1598 1.535 . S
C3262 C1893 1.547 . S
C3277 C2306 1.526 . S
C3289 C1657 1.556 . S
C3304 C2129 1.511 . S
C3316 C1716 1.562 . S
C3331 C2188 1.517 . S
C3343 C1775 1.564 . S
C3358 C2247 1.556 . S
C3370 C1834 1.526 . S
C3385 C2365 1.510 . S
C3397 C2483 1.563 . S
C3412 C2424 1.508 . S
C3424 C2719 1.571 . S
C3439 C2542 1.568 . S
C3451 C2778 1.514 . S
C3466 C2660 1.495 . S
C3478 C2601 1.582 . S
C3493 C524 1.460 . S
C3505 C33 1.436 . S
C3520 C583 1.461 . S
C3532 C92 1.441 . S
C3547 C151 1.472 . S
C3559 C642 1.432 . S
C3574 C210 1.435 . S
C3586 C701 1.459 . S
C3601 C269 1.473 . S
C3613 C760 1.418 . S
C3628 C328 1.473 . S
C3640 C819 1.415 . S
C3655 C387 1.422 . S
C3667 C878 1.436 . S
C3682 C937 1.388 . S
C3694 C446 1.449 . S
C3709 C505 1.470 . S
C3721 C996 1.403 . S
C3736 C1409 1.455 . S
C3748 C564 1.430 . S
C3763 C623 1.450 . S
C3775 C1291 1.389 . S
C3790 C682 1.473 . S
C3802 C1350 1.412 . S
C3817 C741 1.460 . S
C3829 C1055 1.391 . S
C3844 C800 1.472 . S
C3856 C1114 1.408 . S
C3871 C859 1.441 . S
C3883 C1173 1.392 . S
C3898 C1232 1.403 . S
C3910 C918 1.470 . S
C3925 C52 1.395 . S
C3937 C977 1.466 . S
C3952 C1036 1.458 . S
C3964 C288 1.390 . S
C3979 C1095 1.460 . S
C3991 C347 1.391 . S
C4006 C1154 1.442 . S
C4018 C406 1.461 . S
C4033 C465 1.421 . S
C4045 C1213 1.423 . S
C4060 C1272 1.441 . S
C4072 C170 1.461 . S
C4087 C1331 1.429 . S
C4099 C229 1.405 . S
C4114 C111 1.428 . S
C4126 C1390 1.472 . S
C4141 C1940 1.388 . S
C4153 C1449 1.454 . S
C4168 C1508 1.447 . S
C4180 C1999 1.460 . S
C4195 C1567 1.466 . S
C4207 C2058 1.446 . S
C4222 C2117 1.456 . S
C4234 C1626 1.457 . S
C4249 C2176 1.399 . S
C4261 C1685 1.432 . S
C4276 C1744 1.428 . S
C4288 C2235 1.453 . S
C4303 C2294 1.459 . S
C4315 C1803 1.452 . S
C4330 C2353 1.396 . S
C4342 C1862 1.435 . S
C4357 C1921 1.452 . S
C4369 C2412 1.459 . S
C4384 C1980 1.421 . S
C4396 C2825 1.428 . S
C4411 C2039 1.455 . S
C4423 C2707 1.457 . S
C4438 C2766 1.461 . S
C4450 C2098 1.444 . S
C4465 C2157 1.437 . S
C4477 C2471 1.394 . S
C4492 C2216 1.428 . S
C4504 C2530 1.453 . S
C4519 C2589 1.442 . S
C4531 C2275 1.468 . S
C4546 C2648 1.461 . S
C4558 C2334 1.448 . S
C4573 C2393 1.431 . S
C4585 C1468 1.456 . S
C4600 C2452 1.421 . S
C4612 C1704 1.432 . S
C4627 C1763 1.437 . S
C4639 C2511 1.470 . S
C4654 C2570 1.436 . S
C4666 C1822 1.396 . S
C4681 C2629 1.440 . S
C4693 C1881 1.460 . S
C4708 C1586 1.458 . S
C4720 C2688 1.455 . S
C4735 C2747 1.452 . S
C4747 C1645 1.459 . S
C4762 C1527 1.421 . S
C4774 C2806 1.423 . S
C4789 C1832 1.629 . S
C4801 C3 1.630 . S
C4816 C62 1.708 . S
C4828 C1655 1.707 . S
C4843 C1714 1.650 . S
C4855 C121 1.651 . S
C4870 C1773 1.669 . S
C4882 C180 1.669 . S
C4897 C239 1.705 . S
C4909 C1478 1.704 . S
C4924 C1537 1.630 . S
C4936 C298 1.631 . S
C4951 C1596 1.707 . S
C4963 C357 1.707 . S
C4978 C416 1.629 . S
C4990 C1419 1.630 . S
C5005 C2599 1.706 . S
C5017 C475 1.706 . S
C5032 C534 1.668 . S
C5044 C2422 1.669 . S
C5059 C593 1.668 . S
C5071 C2481 1.668 . S
C5086 C2540 1.629 . S
C5098 C652 1.630 . S
C5113 C2776 1.653 . S
C5125 C711 1.653 . S
C5140 C2658 1.654 . S
C5152 C770 1.655 . S
C5167 C829 1.708 . S
C5179 C2717 1.707 . S
C5194 C2363 1.698 . S
C5206 C888 1.698 . S
C5221 C947 1.706 . S
C5233 C2304 1.706 . S
C5248 C1950 1.681 . S
C5260 C1006 1.681 . S
C5275 C1065 1.708 . S
C5287 C2009 1.708 . S
C5302 C2068 1.656 . S
C5314 C1124 1.656 . S
C5329 C1891 1.640 . S
C5341 C1183 1.641 . S
C5356 C1242 1.703 . S
C5368 C2186 1.702 . S
C5383 C2245 1.705 . S
C5395 C1301 1.705 . S
C5410 C2127 1.644 . S
C5422 C1360 1.645 . S
