# Generated by pormake.
# Topology wgb, (5)-cn, num edge types: 1
# Building blocks:
#     Node 0, Type 0, BuildingBlock: XOMCOT_clean_sbu_0, # of connection points: 5
#     Node 1, Type 0, BuildingBlock: XOMCOT_clean_sbu_0, # of connection points: 5
#     Node 2, Type 0, BuildingBlock: XOMCOT_clean_sbu_0, # of connection points: 5
#     Node 3, Type 0, BuildingBlock: XOMCOT_clean_sbu_0, # of connection points: 5
#     Node 4, Type 0, BuildingBlock: XOMCOT_clean_sbu_0, # of connection points: 5
#     Node 5, Type 0, BuildingBlock: XOMCOT_clean_sbu_0, # of connection points: 5
#     Node 6, Type 0, BuildingBlock: XOMCOT_clean_sbu_0, # of connection points: 5
#     Node 7, Type 0, BuildingBlock: XOMCOT_clean_sbu_0, # of connection points: 5
#     Node 8, Type 0, BuildingBlock: XOMCOT_clean_sbu_0, # of connection points: 5
#     Node 9, Type 0, BuildingBlock: XOMCOT_clean_sbu_0, # of connection points: 5
#     Node 10, Type 0, BuildingBlock: XOMCOT_clean_sbu_0, # of connection points: 5
#     Node 11, Type 0, BuildingBlock: XOMCOT_clean_sbu_0, # of connection points: 5
#     Node 12, Type 0, BuildingBlock: XOMCOT_clean_sbu_0, # of connection points: 5
#     Node 13, Type 0, BuildingBlock: XOMCOT_clean_sbu_0, # of connection points: 5
#     Node 14, Type 0, BuildingBlock: XOMCOT_clean_sbu_0, # of connection points: 5
#     Node 15, Type 0, BuildingBlock: XOMCOT_clean_sbu_0, # of connection points: 5
#     Edge 16, Type (0, 0), BuildingBlock: AJUNOK_clean_linker_0, # of connection points: 2
#     Edge 17, Type (0, 0), BuildingBlock: AJUNOK_clean_linker_0, # of connection points: 2
#     Edge 18, Type (0, 0), BuildingBlock: AJUNOK_clean_linker_0, # of connection points: 2
#     Edge 19, Type (0, 0), BuildingBlock: AJUNOK_clean_linker_0, # of connection points: 2
#     Edge 20, Type (0, 0), BuildingBlock: AJUNOK_clean_linker_0, # of connection points: 2
#     Edge 21, Type (0, 0), BuildingBlock: AJUNOK_clean_linker_0, # of connection points: 2
#     Edge 22, Type (0, 0), BuildingBlock: AJUNOK_clean_linker_0, # of connection points: 2
#     Edge 23, Type (0, 0), BuildingBlock: AJUNOK_clean_linker_0, # of connection points: 2
#     Edge 24, Type (0, 0), BuildingBlock: AJUNOK_clean_linker_0, # of connection points: 2
#     Edge 25, Type (0, 0), BuildingBlock: AJUNOK_clean_linker_0, # of connection points: 2
#     Edge 26, Type (0, 0), BuildingBlock: AJUNOK_clean_linker_0, # of connection points: 2
#     Edge 27, Type (0, 0), BuildingBlock: AJUNOK_clean_linker_0, # of connection points: 2
#     Edge 28, Type (0, 0), BuildingBlock: AJUNOK_clean_linker_0, # of connection points: 2
#     Edge 29, Type (0, 0), BuildingBlock: AJUNOK_clean_linker_0, # of connection points: 2
#     Edge 30, Type (0, 0), BuildingBlock: AJUNOK_clean_linker_0, # of connection points: 2
#     Edge 31, Type (0, 0), BuildingBlock: AJUNOK_clean_linker_0, # of connection points: 2
#     Edge 32, Type (0, 0), BuildingBlock: AJUNOK_clean_linker_0, # of connection points: 2
#     Edge 33, Type (0, 0), BuildingBlock: AJUNOK_clean_linker_0, # of connection points: 2
#     Edge 34, Type (0, 0), BuildingBlock: AJUNOK_clean_linker_0, # of connection points: 2
#     Edge 35, Type (0, 0), BuildingBlock: AJUNOK_clean_linker_0, # of connection points: 2
#     Edge 36, Type (0, 0), BuildingBlock: AJUNOK_clean_linker_0, # of connection points: 2
#     Edge 37, Type (0, 0), BuildingBlock: AJUNOK_clean_linker_0, # of connection points: 2
#     Edge 38, Type (0, 0), BuildingBlock: AJUNOK_clean_linker_0, # of connection points: 2
#     Edge 39, Type (0, 0), BuildingBlock: AJUNOK_clean_linker_0, # of connection points: 2
#     Edge 40, Type (0, 0), BuildingBlock: AJUNOK_clean_linker_0, # of connection points: 2
#     Edge 41, Type (0, 0), BuildingBlock: AJUNOK_clean_linker_0, # of connection points: 2
#     Edge 42, Type (0, 0), BuildingBlock: AJUNOK_clean_linker_0, # of connection points: 2
#     Edge 43, Type (0, 0), BuildingBlock: AJUNOK_clean_linker_0, # of connection points: 2
#     Edge 44, Type (0, 0), BuildingBlock: AJUNOK_clean_linker_0, # of connection points: 2
#     Edge 45, Type (0, 0), BuildingBlock: AJUNOK_clean_linker_0, # of connection points: 2
#     Edge 46, Type (0, 0), BuildingBlock: AJUNOK_clean_linker_0, # of connection points: 2
#     Edge 47, Type (0, 0), BuildingBlock: AJUNOK_clean_linker_0, # of connection points: 2
#     Edge 48, Type (0, 0), BuildingBlock: AJUNOK_clean_linker_0, # of connection points: 2
#     Edge 49, Type (0, 0), BuildingBlock: AJUNOK_clean_linker_0, # of connection points: 2
#     Edge 50, Type (0, 0), BuildingBlock: AJUNOK_clean_linker_0, # of connection points: 2
#     Edge 51, Type (0, 0), BuildingBlock: AJUNOK_clean_linker_0, # of connection points: 2
#     Edge 52, Type (0, 0), BuildingBlock: AJUNOK_clean_linker_0, # of connection points: 2
#     Edge 53, Type (0, 0), BuildingBlock: AJUNOK_clean_linker_0, # of connection points: 2
#     Edge 54, Type (0, 0), BuildingBlock: AJUNOK_clean_linker_0, # of connection points: 2
#     Edge 55, Type (0, 0), BuildingBlock: AJUNOK_clean_linker_0, # of connection points: 2
# Relax obj value: 0.082
# Max RMSD: 0.115
# Mean RMSD: 0.115
data_MOF--net-wgb--node1-XOMCOT_clean_sbu_0--edge1-AJUNOK_clean_linker_0
_symmetry_space_group_name_H-M    P1
_symmetry_Int_Tables_number       1
_symmetry_cell_setting            triclinic
loop_
_symmetry_equiv_pos_as_xyz
'x, y, z'
_cell_length_a     43.912433
_cell_length_b     43.942309
_cell_length_c     20.983605
_cell_angle_alpha  90.052755
_cell_angle_beta   90.032712
_cell_angle_gamma 89.847331
loop_
_atom_site_label
_atom_site_type_symbol
_atom_site_fract_x
_atom_site_fract_y
_atom_site_fract_z
_atom_type_partial_charge
Co0 Co 0.34988 0.11007 0.21285 0.0
C1 C 0.35227 0.17643 0.19285 0.0
C2 C 0.33073 0.16546 0.28155 0.0
C3 C 0.32993 0.19653 0.27358 0.0
N4 N 0.34438 0.15288 0.23048 0.0
N5 N 0.34371 0.2035 0.21792 0.0
H6 H 0.36392 0.17376 0.14781 0.0
H7 H 0.32147 0.15301 0.32142 0.0
C8 C 0.29776 0.07779 0.28247 0.0
O9 O 0.29969 0.0535 0.24629 0.0
N10 N 0.3562 0.06717 0.19449 0.0
C11 C 0.3585 0.05444 0.13619 0.0
C12 C 0.3656 0.02422 0.14273 0.0
C13 C 0.36292 0.04445 0.23581 0.0
N14 N 0.3679 0.01775 0.20531 0.0
C15 C 0.34023 0.12267 0.07987 0.0
C16 C 0.27814 0.11339 0.07604 0.0
C17 C 0.29331 0.12012 0.01881 0.0
C18 C 0.32483 0.1249 0.02166 0.0
C19 C 0.29449 0.11107 0.13341 0.0
N20 N 0.32539 0.11494 0.13482 0.0
H21 H 0.36453 0.1261 0.07993 0.0
H22 H 0.28192 0.10618 0.17609 0.0
H23 H 0.35622 0.06615 0.09139 0.0
H24 H 0.36367 0.04731 0.28704 0.0
O25 O 0.39045 0.11845 0.17937 0.0
O26 O 0.37987 0.10768 0.27979 0.0
O27 O 0.31346 0.10152 0.26979 0.0
C28 C 0.40025 0.11433 0.23728 0.0
H29 H 0.31881 0.21244 0.30532 0.0
H30 H 0.36974 1.00845 0.10404 0.0
H31 H 0.25373 0.10998 0.07659 0.0
H32 H 0.33784 0.12946 0.97894 0.0
Co33 Co 0.10548 0.67252 0.82546 0.0
C34 C 0.17099 0.67296 0.85651 0.0
C35 C 0.16341 0.68064 0.75681 0.0
C36 C 0.19427 0.68205 0.76863 0.0
N37 N 0.14889 0.6754 0.81217 0.0
N38 N 0.19894 0.67751 0.83151 0.0
H39 H 0.16672 0.66754 0.90587 0.0
H40 H 0.15232 0.68331 0.71115 0.0
C41 C 0.0774 0.72665 0.75561 0.0
O42 O 0.052 0.72474 0.7882 0.0
N43 N 0.06167 0.66905 0.8394 0.0
C44 C 0.04605 0.67566 0.89316 0.0
C45 C 0.01578 0.6699 0.88356 0.0
C46 C 0.04025 0.65912 0.79776 0.0
N47 N 1.012 0.65992 0.82344 0.0
C48 C 0.1118 0.68016 0.96101 0.0
C49 C 0.11703 0.74281 0.96233 0.0
C50 C 0.11715 0.72715 0.02057 0.0
C51 C 0.11471 0.69539 0.01929 0.0
C52 C 0.11373 0.72675 0.90494 0.0
N53 N 0.11032 0.69581 0.90472 0.0
H54 H 0.10978 0.6557 0.96137 0.0
H55 H 0.11412 0.73945 0.8611 0.0
H56 H 0.05527 0.68449 0.93687 0.0
H57 H 0.04503 0.65222 0.74927 0.0
O58 O 0.1111 0.63108 0.85682 0.0
O59 O 0.10309 0.64386 0.75649 0.0
O60 O 0.10026 0.70989 0.76995 0.0
C61 C 0.10845 0.62249 0.79756 0.0
H62 H 0.21186 0.68673 0.73389 0.0
H63 H 0.99792 0.67255 0.91866 0.0
H64 H 0.11895 0.76737 0.96114 0.0
H65 H 0.11508 0.68237 0.0631 0.0
Co66 Co 0.67529 0.91287 0.20387 0.0
C67 C 0.6819 0.84716 0.17627 0.0
C68 C 0.68435 0.85666 0.27652 0.0
C69 C 0.68552 0.8256 0.26802 0.0
N70 N 0.68217 0.87011 0.21899 0.0
N71 N 0.68394 0.81982 0.20503 0.0
H72 H 0.67888 0.85015 0.12554 0.0
H73 H 0.68393 0.86858 0.32162 0.0
C74 C 0.72744 0.94455 0.27474 0.0
O75 O 0.72647 0.96882 0.23834 0.0
N76 N 0.66742 0.95578 0.18887 0.0
C77 C 0.66081 0.96868 0.13225 0.0
C78 C 0.6528 0.99844 0.1418 0.0
C79 C 0.66234 0.97793 0.23252 0.0
N80 N 0.65385 1.00444 0.20473 0.0
C81 C 0.68581 0.90584 0.06963 0.0
C82 C 0.74849 0.90978 0.0716 0.0
C83 C 0.73369 0.90728 1.01246 0.0
C84 C 0.70191 0.90476 1.01232 0.0
C85 C 0.73143 0.91112 0.12803 0.0
N86 N 0.70031 0.91028 0.12656 0.0
H87 H 0.66136 0.90377 0.06778 0.0
H88 H 0.74361 0.91235 0.17243 0.0
H89 H 0.66033 0.95735 0.08683 0.0
H90 H 0.66513 0.97464 0.28327 0.0
O91 O 0.63525 0.90345 0.16879 0.0
O92 O 0.64536 0.91294 0.27031 0.0
O93 O 0.71079 0.92151 0.26229 0.0
C94 C 0.62551 0.90557 0.22724 0.0
H95 H 0.68697 0.80856 0.30514 0.0
H96 H 0.64575 0.01425 0.10508 0.0
H97 H 0.7731 0.91035 0.07446 0.0
H98 H 0.6894 0.90248 0.96809 0.0
Co99 Co 0.91706 0.35194 0.83254 0.0
C100 C 0.85041 0.34848 0.85706 0.0
C101 C 0.86204 0.33198 0.76399 0.0
C102 C 0.83099 0.32949 0.77194 0.0
N103 N 0.87428 0.34352 0.81772 0.0
N104 N 0.82378 0.33993 0.83048 0.0
H105 H 0.8521 0.35864 0.90371 0.0
H106 H 0.87475 0.32574 0.72183 0.0
C107 C 0.95167 0.30408 0.75458 0.0
O108 O 0.97816 0.31228 0.77759 0.0
N109 N 0.95969 0.36128 0.84785 0.0
C110 C 0.97453 0.35996 0.90413 0.0
C111 C 1.00386 0.36987 0.89567 0.0
C112 C 0.98008 0.37312 0.80639 0.0
N113 N 1.00743 0.37788 0.83419 0.0
C114 C 0.90331 0.33932 0.96369 0.0
C115 C 0.92992 0.28243 0.96947 0.0
C116 C 0.91574 0.294 0.02435 0.0
C117 C 0.90236 0.32296 0.02071 0.0
C118 C 0.92936 0.29905 0.91274 0.0
N119 N 0.91596 0.32713 0.90992 0.0
H120 H 0.89419 0.36212 0.96332 0.0
H121 H 0.94079 0.28943 0.87226 0.0
H122 H 0.96493 0.3526 0.94886 0.0
H123 H 0.97508 0.3778 0.75685 0.0
O124 O 0.90647 0.39163 0.86742 0.0
O125 O 0.91584 0.38176 0.7658 0.0
O126 O 0.92694 0.31576 0.77581 0.0
C127 C 0.90854 0.4016 0.80913 0.0
H128 H 0.8151 0.32002 0.73788 0.0
H129 H 0.02141 0.3707 0.93188 0.0
H130 H 0.94207 0.26098 0.97032 0.0
H131 H 0.89133 0.33312 0.06169 0.0
Co132 Co 0.35559 0.41322 0.08582 0.0
C133 C 0.35697 0.34761 0.11368 0.0
C134 C 0.33472 0.35647 0.02459 0.0
C135 C 0.33271 0.32585 0.03748 0.0
N136 N 0.34966 0.37012 0.07275 0.0
N137 N 0.34647 0.32028 0.09384 0.0
H138 H 0.3697 0.35138 0.157 0.0
H139 H 0.32515 0.36791 0.98377 0.0
C140 C 0.30277 0.4449 0.01979 0.0
O141 O 0.30351 0.46769 0.06027 0.0
N142 N 0.36191 0.45652 0.09946 0.0
C143 C 0.36087 0.47168 0.15536 0.0
C144 C 0.36755 0.50171 0.14472 0.0
C145 C 0.36961 0.47772 0.05553 0.0
N146 N 0.37299 0.50558 0.08207 0.0
C147 C 0.34619 0.40465 0.22002 0.0
C148 C 0.28367 0.41129 0.22182 0.0
C149 C 0.29909 0.4077 0.27995 0.0
C150 C 0.3307 0.40342 0.27812 0.0
C151 C 0.30004 0.41209 0.16443 0.0
N152 N 0.33115 0.41017 0.16406 0.0
H153 H 0.37058 0.40193 0.22062 0.0
H154 H 0.28731 0.41413 0.1209 0.0
H155 H 0.35578 0.46203 0.20126 0.0
H156 H 0.373 0.47277 1.00552 0.0
O157 O 0.39604 0.40513 0.12014 0.0
O158 O 0.38548 0.41376 1.01868 0.0
O159 O 0.31954 0.42147 0.02841 0.0
C160 C 0.4058 0.40777 0.06186 0.0
H161 H 0.32097 0.30917 1.00858 0.0
H162 H 0.36822 0.51948 0.18048 0.0
H163 H 0.25915 0.41395 0.22068 0.0
H164 H 0.34351 0.39925 0.32137 0.0
Co165 Co 0.40823 0.67492 0.95955 0.0
C166 C 0.34107 0.67253 0.94488 0.0
C167 C 0.35502 0.71201 0.99713 0.0
C168 C 0.32419 0.71383 0.98682 0.0
N169 N 0.36572 0.68592 0.97148 0.0
N170 N 0.31535 0.68895 0.95417 0.0
H171 H 0.34204 0.65193 0.9167 0.0
H172 H 0.36869 0.72988 1.01754 0.0
C173 C 0.44415 0.72508 0.02879 0.0
O174 O 0.46724 0.72401 0.98907 0.0
N175 N 0.45047 0.66353 0.94568 0.0
C176 C 0.46216 0.65394 0.88978 0.0
C177 C 0.49178 0.64526 0.8988 0.0
C178 C 0.47312 0.65943 0.98873 0.0
N179 N 0.4989 0.64889 0.96081 0.0
C180 C 0.40166 0.68479 0.82513 0.0
C181 C 0.41135 0.74684 0.82451 0.0
C182 C 0.40689 0.73179 0.76636 0.0
C183 C 0.40179 0.70042 0.76716 0.0
C184 C 0.4117 0.7302 0.88153 0.0
N185 N 0.40794 0.69929 0.88131 0.0
H186 H 0.39708 0.66069 0.82442 0.0
H187 H 0.41448 0.74255 0.92539 0.0
H188 H 0.44997 0.65218 0.84542 0.0
H189 H 0.47085 0.6646 0.03891 0.0
O190 O 0.3964 0.63507 0.92622 0.0
O191 O 0.40588 0.6457 0.02724 0.0
O192 O 0.4201 0.70966 1.01773 0.0
C193 C 0.39851 0.62554 0.98486 0.0
H194 H 0.3099 0.73319 0.9982 0.0
H195 H 0.50683 0.63631 0.86244 0.0
H196 H 0.41477 0.77124 0.82582 0.0
H197 H 0.39757 0.68811 0.72328 0.0
Co198 Co 0.66918 0.61092 0.07589 0.0
C199 C 0.67625 0.67583 0.10712 0.0
C200 C 0.68425 0.66728 1.00779 0.0
C201 C 0.68664 0.69812 1.0187 0.0
N202 N 0.67781 0.65345 0.06334 0.0
N203 N 0.68141 0.70346 0.08114 0.0
H204 H 0.67156 0.67185 0.15694 0.0
H205 H 0.6864 0.65581 0.96237 0.0
C206 C 0.72287 0.57849 1.01273 0.0
O207 O 0.72329 0.55687 0.0559 0.0
N208 N 0.65971 0.56812 0.08852 0.0
C209 C 0.649 0.55564 0.14277 0.0
C210 C 0.64394 0.52527 0.13311 0.0
C211 C 0.65958 0.54511 0.04544 0.0
N212 N 0.65099 0.51852 0.07234 0.0
C213 C 0.67882 0.61405 0.21113 0.0
C214 C 0.74162 0.61327 0.21016 0.0
C215 C 0.7265 0.61323 0.26913 0.0
C216 C 0.69464 0.61424 0.26884 0.0
C217 C 0.72483 0.61287 0.15326 0.0
N218 N 0.69371 0.61176 0.15411 0.0
H219 H 0.65434 0.61581 0.21267 0.0
H220 H 0.73712 0.61427 0.10901 0.0
H221 H 0.64401 0.56758 0.18629 0.0
H222 H 0.66609 0.5476 0.99598 0.0
O223 O 0.62937 0.6217 0.11043 0.0
O224 O 0.63953 0.61285 1.00874 0.0
O225 O 0.70474 0.60109 1.01835 0.0
C226 C 0.61971 0.62046 0.05181 0.0
H227 H 0.69115 0.71534 0.98313 0.0
H228 H 0.6351 0.50939 0.16787 0.0
H229 H 0.76624 0.61416 0.20787 0.0
H230 H 0.68189 0.61491 0.31299 0.0
Co231 Co 0.61423 0.34899 0.95999 0.0
C232 C 0.68145 0.34925 0.94378 0.0
C233 C 0.66674 0.30937 0.99352 0.0
C234 C 0.69755 0.30689 0.98213 0.0
N235 N 0.65652 0.336 0.96947 0.0
N236 N 0.70661 0.33179 0.95009 0.0
H237 H 0.6811 0.37062 0.91831 0.0
H238 H 0.65276 0.29187 1.01436 0.0
C239 C 0.57584 0.30335 0.03626 0.0
O240 O 0.55051 0.31212 1.00871 0.0
N241 N 0.57254 0.3628 0.94871 0.0
C242 C 0.55826 0.36641 0.89233 0.0
C243 C 0.52961 0.37783 0.90304 0.0
C244 C 0.55278 0.37358 0.99286 0.0
N245 N 0.52598 0.38204 0.96624 0.0
C246 C 0.63092 0.33217 0.83316 0.0
C247 C 0.59007 0.28514 0.81738 0.0
C248 C 0.61034 0.29167 0.76749 0.0
C249 C 0.63095 0.31567 0.77624 0.0
C250 C 0.5916 0.30149 0.87452 0.0
N251 N 0.61186 0.32473 0.88206 0.0
H252 H 0.64632 0.3511 0.83779 0.0
H253 H 0.57574 0.29588 0.91142 0.0
H254 H 0.56797 0.36129 0.84622 0.0
H255 H 0.55778 0.37464 0.04331 0.0
O256 O 0.62715 0.38779 0.92435 0.0
O257 O 0.61992 0.37816 0.027 0.0
O258 O 0.60157 0.3138 1.01749 0.0
C259 C 0.62781 0.39741 0.9831 0.0
H260 H 0.71177 0.28739 0.99278 0.0
H261 H 0.51245 0.38209 0.86704 0.0
H262 H 0.57267 0.26793 0.81228 0.0
H263 H 0.6471 0.32176 0.73945 0.0
Co264 Co 0.84632 0.60943 0.70828 0.0
C265 C 0.84519 0.67457 0.67718 0.0
C266 C 0.82185 0.66604 0.76508 0.0
C267 C 0.81967 0.69661 0.75126 0.0
N268 N 0.83754 0.65226 0.71811 0.0
N269 N 0.83419 0.70198 0.69565 0.0
H270 H 0.85902 0.67065 0.63545 0.0
H271 H 0.8125 0.65478 0.80639 0.0
C272 C 0.79723 0.57525 0.78151 0.0
O273 O 0.8026 0.54997 0.75015 0.0
N274 N 0.85572 0.56643 0.6972 0.0
C275 C 0.85198 0.54964 0.64381 0.0
C276 C 0.86229 0.52067 0.65471 0.0
C277 C 0.86853 0.54715 0.73994 0.0
N278 N 0.8726 0.51904 0.715 0.0
C279 C 0.83752 0.61493 0.5736 0.0
C280 C 0.77507 0.6078 0.57122 0.0
C281 C 0.79068 0.61148 0.51345 0.0
C282 C 0.82224 0.6155 0.51532 0.0
C283 C 0.7913 0.60712 0.62885 0.0
N284 N 0.82232 0.60991 0.62952 0.0
H285 H 0.86186 0.61785 0.57319 0.0
H286 H 0.77863 0.60451 0.67239 0.0
H287 H 0.84221 0.55728 0.59954 0.0
H288 H 0.87478 0.55352 0.788 0.0
O289 O 0.88623 0.61931 0.67394 0.0
O290 O 0.87574 0.61249 0.77617 0.0
O291 O 0.81023 0.60009 0.76527 0.0
C292 C 0.89559 0.61926 0.73266 0.0
H293 H 0.80776 0.71346 0.77953 0.0
H294 H 0.86183 0.50198 0.62105 0.0
H295 H 0.75056 0.60508 0.57177 0.0
H296 H 0.83507 0.61917 0.47193 0.0
Co297 Co 0.61005 0.17186 0.32668 0.0
C298 C 0.67665 0.17821 0.3512 0.0
C299 C 0.66415 0.19254 0.25707 0.0
C300 C 0.69512 0.19612 0.26423 0.0
N301 N 0.65248 0.18175 0.31193 0.0
N302 N 0.70286 0.18731 0.32364 0.0
H303 H 0.6754 0.16924 0.39893 0.0
H304 H 0.65112 0.19713 0.21439 0.0
C305 C 0.57372 0.22018 0.25434 0.0
O306 O 0.54833 0.21295 0.28341 0.0
N307 N 0.56766 0.16102 0.34161 0.0
C308 C 0.55356 0.1601 0.3987 0.0
C309 C 0.52459 0.14914 0.39063 0.0
C310 C 0.54706 0.14976 0.29964 0.0
N311 N 0.52051 0.14252 0.32854 0.0
C312 C 0.62318 0.18245 0.45866 0.0
C313 C 0.59709 0.23943 0.46898 0.0
C314 C 0.60996 0.22618 0.52362 0.0
C315 C 0.62379 0.19755 0.51718 0.0
C316 C 0.59795 0.22399 0.41058 0.0
N317 N 0.61069 0.19565 0.40578 0.0
H318 H 0.63268 0.15984 0.45632 0.0
H319 H 0.58769 0.23493 0.37024 0.0
H320 H 0.56344 0.16659 0.44377 0.0
H321 H 0.55132 0.14706 0.24915 0.0
O322 O 0.62186 0.13212 0.35937 0.0
O323 O 0.61237 0.14295 0.25814 0.0
O324 O 0.599 0.20818 0.27154 0.0
C325 C 0.62067 0.12301 0.30039 0.0
H326 H 0.71075 0.20413 0.22814 0.0
H327 H 0.50761 0.14667 0.42763 0.0
H328 H 0.58599 0.26143 0.47132 0.0
H329 H 0.63516 0.18668 0.5569 0.0
Co330 Co 0.17655 0.41543 0.71511 0.0
C331 C 0.17646 0.3491 0.69154 0.0
C332 C 0.20041 0.36028 0.77755 0.0
C333 C 0.20235 0.32935 0.76789 0.0
N334 N 0.18434 0.37264 0.72946 0.0
N335 N 0.187 0.32218 0.71409 0.0
H336 H 0.16351 0.35176 0.648 0.0
H337 H 0.2107 0.37283 0.81625 0.0
C338 C 0.21121 0.44238 0.81852 0.0
O339 O 0.18488 0.45473 0.83313 0.0
N340 N 0.16926 0.4587 0.70058 0.0
C341 C 0.18782 0.47757 0.66797 0.0
C342 C 0.17707 0.50685 0.67311 0.0
C343 C 0.14776 0.47716 0.72648 0.0
N344 N 0.15204 0.5065 0.70999 0.0
C345 C 0.18557 0.41782 0.58012 0.0
C346 C 0.24704 0.40389 0.58061 0.0
C347 C 0.23265 0.40974 0.52208 0.0
C348 C 0.2014 0.41637 0.52233 0.0
C349 C 0.23033 0.4054 0.63742 0.0
N350 N 0.20013 0.41291 0.63671 0.0
H351 H 0.16162 0.42351 0.57964 0.0
H352 H 0.24167 0.40034 0.68185 0.0
H353 H 0.20864 0.47091 0.64429 0.0
H354 H 0.13004 0.46971 0.75859 0.0
O355 O 0.13641 0.40549 0.68174 0.0
O356 O 0.14703 0.41484 0.78293 0.0
O357 O 0.21339 0.42624 0.76792 0.0
C358 C 0.12686 0.40764 0.74029 0.0
H359 H 0.2153 0.31374 0.79712 0.0
H360 H 0.18765 0.52711 0.65398 0.0
H361 H 0.27097 0.39793 0.58244 0.0
H362 H 0.18939 0.42101 0.47827 0.0
Co363 Co 0.41564 0.85129 0.3265 0.0
C364 C 0.35058 0.84705 0.35533 0.0
C365 C 0.36083 0.82467 0.26699 0.0
C366 C 0.33039 0.82066 0.28035 0.0
N367 N 0.37343 0.84084 0.31464 0.0
N368 N 0.32401 0.83454 0.33626 0.0
H369 H 0.35349 0.86087 0.39742 0.0
H370 H 0.37284 0.81615 0.2257 0.0
C371 C 0.45109 0.80031 0.25818 0.0
O372 O 0.47665 0.80536 0.28871 0.0
N373 N 0.45785 0.86259 0.33943 0.0
C374 C 0.47065 0.87 0.39572 0.0
C375 C 0.50002 0.87904 0.38558 0.0
C376 C 0.47953 0.86845 0.29527 0.0
N377 N 0.50583 0.8778 0.3226 0.0
C378 C 0.40862 0.8432 0.46157 0.0
C379 C 0.41635 0.7809 0.46554 0.0
C380 C 0.41046 0.79644 0.52278 0.0
C381 C 0.40682 0.8281 0.52 0.0
C382 C 0.41846 0.79699 0.40797 0.0
N383 N 0.41522 0.82796 0.4064 0.0
H384 H 0.40516 0.8675 0.4612 0.0
H385 H 0.42201 0.78406 0.36508 0.0
H386 H 0.45959 0.86972 0.44142 0.0
H387 H 0.47635 0.86489 0.24467 0.0
O388 O 0.40363 0.89127 0.35811 0.0
O389 O 0.41255 0.87968 0.25705 0.0
O390 O 0.42674 0.81487 0.27204 0.0
C391 C 0.40424 0.89987 0.29882 0.0
H392 H 0.31438 0.80794 0.25162 0.0
H393 H 0.51589 0.88628 0.42203 0.0
H394 H 0.4188 0.75637 0.46497 0.0
H395 H 0.40295 0.84136 0.56274 0.0
Co396 Co 0.85348 0.9116 0.57345 0.0
C397 C 0.84917 0.8455 0.59825 0.0
C398 C 0.83451 0.857 0.50375 0.0
C399 C 0.83101 0.82619 0.51225 0.0
N400 N 0.84538 0.86911 0.558 0.0
N401 N 0.84057 0.81881 0.57154 0.0
H402 H 0.85823 0.84782 0.64592 0.0
H403 H 0.82937 0.86969 0.46098 0.0
C404 C 0.80003 0.94476 0.5085 0.0
O405 O 0.80167 0.96881 0.54546 0.0
N406 N 0.86239 0.95425 0.58903 0.0
C407 C 0.87079 0.96648 0.64527 0.0
C408 C 0.87726 0.99666 0.63669 0.0
C409 C 0.8651 0.97717 0.5463 0.0
N410 N 0.87348 1.00356 0.57465 0.0
C411 C 0.84503 0.9041 0.70817 0.0
C412 C 0.78242 0.90962 0.71098 0.0
C413 C 0.79826 0.90677 0.76869 0.0
C414 C 0.8299 0.90339 0.76664 0.0
C415 C 0.79853 0.91062 0.65329 0.0
N416 N 0.82966 0.90915 0.65243 0.0
H417 H 0.86942 0.90126 0.7082 0.0
H418 H 0.7856 0.91224 0.60989 0.0
H419 H 0.87318 0.95448 0.68966 0.0
H420 H 0.86028 0.97465 0.49601 0.0
O421 O 0.89375 0.90112 0.60572 0.0
O422 O 0.88252 0.91115 0.50501 0.0
O423 O 0.81709 0.92161 0.51808 0.0
C424 C 0.90286 0.90338 0.54691 0.0
H425 H 0.82119 0.81082 0.47771 0.0
H426 H 0.8848 0.01226 0.67337 0.0
H427 H 0.75782 0.91152 0.71052 0.0
H428 H 0.8429 0.90015 0.81001 0.0
Co429 Co 0.90998 0.17384 0.46265 0.0
C430 C 0.84235 0.17502 0.44765 0.0
C431 C 0.8591 0.21525 0.49343 0.0
C432 C 0.82877 0.21939 0.48017 0.0
N433 N 0.86789 0.18741 0.47303 0.0
N434 N 0.81839 0.19431 0.45058 0.0
H435 H 0.84184 0.15363 0.42212 0.0
H436 H 0.87396 0.23277 0.51144 0.0
C437 C 0.94818 0.21992 0.53909 0.0
O438 O 0.97397 0.21237 0.51171 0.0
N439 N 0.95165 0.15999 0.45059 0.0
C440 C 0.96526 0.15568 0.39374 0.0
C441 C 0.99424 0.14495 0.40364 0.0
C442 C 0.97221 0.1504 0.49437 0.0
N443 N 0.99882 0.14189 0.46687 0.0
C444 C 0.89272 0.18993 0.33643 0.0
C445 C 0.93378 0.23652 0.31766 0.0
C446 C 0.91403 0.2286 0.26764 0.0
C447 C 0.89276 0.20545 0.27857 0.0
C448 C 0.93221 0.22107 0.37594 0.0
N449 N 0.91205 0.19782 0.38458 0.0
H450 H 0.87708 0.17129 0.34229 0.0
H451 H 0.94788 0.22733 0.41289 0.0
H452 H 0.95489 0.15995 0.34788 0.0
H453 H 0.96785 0.15011 0.54511 0.0
O454 O 0.89668 0.13514 0.42734 0.0
O455 O 0.9046 0.14474 0.52982 0.0
O456 O 0.92293 0.20878 0.51976 0.0
C457 C 0.89671 0.1254 0.48598 0.0
H458 H 0.81585 0.24013 0.48751 0.0
H459 H 1.01097 0.1404 0.36694 0.0
H460 H 0.95068 0.25417 0.31159 0.0
H461 H 0.87611 0.19923 0.24286 0.0
Co462 Co 0.17082 0.11233 0.58138 0.0
C463 C 0.1722 0.17782 0.61107 0.0
C464 C 0.18986 0.16897 0.51754 0.0
C465 C 0.19271 0.1996 0.53035 0.0
N466 N 0.1773 0.15535 0.56851 0.0
N467 N 0.18182 0.20517 0.58945 0.0
H468 H 0.16146 0.17402 0.65666 0.0
H469 H 0.19694 0.15745 0.47448 0.0
C470 C 0.22442 0.0809 0.5157 0.0
O471 O 0.22451 0.05861 0.55734 0.0
N472 N 0.16363 0.06909 0.59479 0.0
C473 C 0.15729 0.05549 0.65083 0.0
C474 C 0.15171 0.02525 0.64041 0.0
C475 C 0.16062 0.0468 0.55047 0.0
N476 N 0.1542 0.01962 0.57756 0.0
C477 C 0.18075 0.11803 0.71637 0.0
C478 C 0.24359 0.11822 0.71529 0.0
C479 C 0.22847 0.1193 0.77416 0.0
C480 C 0.19664 0.11952 0.77403 0.0
C481 C 0.22675 0.11626 0.65842 0.0
N482 N 0.1956 0.11494 0.65941 0.0
H483 H 0.15622 0.11884 0.71798 0.0
H484 H 0.23904 0.11632 0.61407 0.0
H485 H 0.15562 0.06652 0.69644 0.0
H486 H 0.16348 0.05031 0.49977 0.0
O487 O 0.13061 0.12111 0.61633 0.0
O488 O 0.14059 0.11211 0.51475 0.0
O489 O 0.20676 0.10379 0.52328 0.0
C490 C 0.12052 0.11837 0.55826 0.0
H491 H 0.20286 0.21633 0.49911 0.0
H492 H 0.1454 1.00875 0.67633 0.0
H493 H 0.26823 0.11858 0.71323 0.0
H494 H 0.18405 0.12111 0.81831 0.0
Co495 Co 0.11443 0.85172 0.45547 0.0
C496 C 0.1803 0.84571 0.43174 0.0
C497 C 0.16839 0.8316 0.52629 0.0
C498 C 0.19923 0.82777 0.51835 0.0
N499 N 0.15655 0.84229 0.4716 0.0
N500 N 0.20682 0.83699 0.45901 0.0
H501 H 0.17823 0.85487 0.38413 0.0
H502 H 0.15556 0.82713 0.56916 0.0
C503 C 0.07962 0.80034 0.5233 0.0
O504 O 0.05538 0.80288 0.48705 0.0
N505 N 0.07217 0.86205 0.43923 0.0
C506 C 0.06038 0.87042 0.38258 0.0
C507 C 0.03066 0.87899 0.39097 0.0
C508 C 0.04951 0.86672 0.48187 0.0
N509 N 0.02361 0.8765 0.45326 0.0
C510 C 0.12253 0.84117 0.32113 0.0
C511 C 0.11492 0.77885 0.32144 0.0
C512 C 0.12012 0.79347 0.263 0.0
C513 C 0.12404 0.8251 0.26363 0.0
C514 C 0.11345 0.79584 0.37806 0.0
N515 N 0.11628 0.82685 0.37746 0.0
H516 H 0.12592 0.86546 0.31986 0.0
H517 H 0.11056 0.78358 0.42191 0.0
H518 H 0.07252 0.87143 0.33809 0.0
H519 H 0.0519 0.8624 0.53236 0.0
O520 O 0.12631 0.89134 0.42162 0.0
O521 O 0.11583 0.88143 0.52269 0.0
O522 O 0.10335 0.81628 0.51251 0.0
C523 C 0.1246 0.90096 0.48019 0.0
H524 H 0.2145 0.81818 0.55345 0.0
H525 H 0.01552 0.88712 0.35393 0.0
H526 H 0.1124 0.75436 0.32357 0.0
H527 H 0.12772 0.83757 0.21985 0.0
C528 C 0.26798 0.10535 0.36712 0.0
C529 C 0.27821 0.07769 0.34067 0.0
C530 C 0.251 0.10613 0.42386 0.0
C531 C 0.24382 0.07932 0.45735 0.0
H532 H 0.27294 0.12669 0.34361 0.0
H533 H 0.24362 0.12805 0.44178 0.0
S534 S 0.2652 1.00081 0.4088 0.0
N535 N 0.27982 0.02265 0.35267 0.0
N536 N 0.24813 0.02413 0.45924 0.0
C537 C 0.25397 0.05146 0.43161 0.0
C538 C 0.27099 0.05063 0.37331 0.0
C539 C 0.052 0.77495 0.61369 0.0
C540 C 0.07929 0.78023 0.58039 0.0
C541 C 0.05172 0.75835 0.67103 0.0
C542 C 0.0787 0.7462 0.69741 0.0
H543 H 0.03073 0.78422 0.59603 0.0
H544 H 0.03004 0.75479 0.69445 0.0
S545 S 0.15613 0.75276 0.62726 0.0
N546 N 0.1338 0.77084 0.57655 0.0
N547 N 0.13356 0.74082 0.68482 0.0
C548 C 0.10613 0.75128 0.66422 0.0
C549 C 0.10634 0.76794 0.6057 0.0
C550 C 0.77409 0.97177 0.41767 0.0
C551 C 0.77984 0.94472 0.45157 0.0
C552 C 0.75779 0.9715 0.35982 0.0
C553 C 0.74646 0.94419 0.33375 0.0
H554 H 0.78286 0.99324 0.43514 0.0
H555 H 0.75386 0.99294 0.33571 0.0
S556 S 0.75444 0.86723 0.40568 0.0
N557 N 0.77172 0.89012 0.45638 0.0
N558 N 0.74225 0.88932 0.34742 0.0
C559 C 0.75193 0.91703 0.36774 0.0
C560 C 0.76827 0.91738 0.42662 0.0
C561 C 0.97568 0.27807 0.66089 0.0
C562 C 0.9505 0.28159 0.70178 0.0
C563 C 0.97464 0.25832 0.6083 0.0
C564 C 0.9484 0.24118 0.59445 0.0
H565 H 0.99623 0.29113 0.66874 0.0
H566 H 0.99456 0.25669 0.57807 0.0
S567 S 0.87733 0.23987 0.6908 0.0
N568 N 0.89922 0.26491 0.72721 0.0
N569 N 0.89732 0.22749 0.62942 0.0
C570 C 0.92331 0.24392 0.6361 0.0
C571 C 0.92434 0.26418 0.68941 0.0
C572 C 0.25457 0.46341 0.969 0.0
C573 C 0.28095 0.44535 0.96564 0.0
C574 C 0.23283 0.463 0.92007 0.0
C575 C 0.23657 0.44466 0.86537 0.0
H576 H 0.2502 0.47741 1.01055 0.0
H577 H 0.21257 0.47682 0.92608 0.0
S578 S 0.30366 0.39604 0.82967 0.0
N579 N 0.31114 0.41086 0.90028 0.0
N580 N 0.27008 0.40974 0.8088 0.0
C581 C 0.26354 0.42752 0.86005 0.0
C582 C 0.28572 0.42792 0.91004 0.0
C583 C 0.47415 0.77852 0.15852 0.0
C584 C 0.45033 0.779 0.20335 0.0
C585 C 0.47196 0.76123 0.10214 0.0
C586 C 0.44599 0.74351 0.08869 0.0
H587 H 0.49419 0.7924 0.166 0.0
H588 H 0.49071 0.76201 0.06868 0.0
S589 S 0.37883 0.73457 0.19541 0.0
N590 N 0.40103 0.75886 0.23314 0.0
N591 N 0.39699 0.72585 0.12902 0.0
C592 C 0.42255 0.743 0.13488 0.0
C593 C 0.4247 0.76086 0.19163 0.0
C594 C 0.74796 0.60324 0.91894 0.0
C595 C 0.74258 0.57676 0.95504 0.0
C596 C 0.76512 0.60238 0.86259 0.0
C597 C 0.77745 0.57496 0.83924 0.0
H598 H 0.73891 0.62499 0.93437 0.0
H599 H 0.7686 0.62346 0.83699 0.0
S600 S 0.76953 0.49893 0.91482 0.0
N601 N 0.7507 0.52213 0.96269 0.0
N602 N 0.78286 0.52045 0.85676 0.0
C603 C 0.77204 0.5482 0.87448 0.0
C604 C 0.75475 0.54913 0.93238 0.0
C605 C 0.60089 0.25397 0.17646 0.0
C606 C 0.57336 0.24215 0.20021 0.0
C607 C 0.60147 0.27342 0.12345 0.0
C608 C 0.57457 0.28181 0.09125 0.0
H609 H 0.62233 0.24823 0.19904 0.0
H610 H 0.6233 0.28206 0.10803 0.0
S611 S 0.49623 0.25717 0.13423 0.0
N612 N 0.51832 0.24043 0.18737 0.0
N613 N 0.51933 0.27675 0.08789 0.0
C614 C 0.54678 0.27024 0.11468 0.0
C615 C 0.5462 0.25054 0.169 0.0
C616 C 0.34735 0.26406 0.09126 0.0
C617 C 0.3477 0.29132 0.12654 0.0
C618 C 0.34654 0.23563 0.12136 0.0
C619 C 0.34627 0.2331 0.18825 0.0
H620 H 0.34749 0.26463 0.03971 0.0
H621 H 0.34534 0.21553 0.09169 0.0
S622 S 0.34845 0.29744 0.30321 0.0
N623 N 0.34784 0.31388 0.23258 0.0
N624 N 0.34836 0.2605 0.28901 0.0
C625 C 0.34757 0.26015 0.22429 0.0
C626 C 0.34788 0.28919 0.19355 0.0
C627 C 0.25458 0.66876 0.83481 0.0
C628 C 0.2277 0.67875 0.86486 0.0
C629 C 0.28301 0.67118 0.865 0.0
C630 C 0.28569 0.68387 0.92637 0.0
H631 H 0.25366 0.65916 0.78733 0.0
H632 H 0.30311 0.66398 0.83921 0.0
S633 S 0.22222 0.71253 0.02681 0.0
N634 N 0.20566 0.70162 0.96 0.0
N635 N 0.25881 0.70509 1.01746 0.0
C636 C 0.25891 0.69321 0.95764 0.0
C637 C 0.23 0.69089 0.92681 0.0
C638 C 0.70136 0.78453 0.12139 0.0
C639 C 0.68295 0.79054 0.17463 0.0
C640 C 0.70079 0.75603 0.09128 0.0
C641 C 0.68147 0.73264 0.11285 0.0
H642 H 0.71663 0.80188 0.10365 0.0
H643 H 0.71588 0.75216 0.05131 0.0
S644 S 0.62607 0.73872 0.24605 0.0
N645 N 0.64353 0.77195 0.24533 0.0
N646 N 0.64153 0.7187 0.18777 0.0
C647 C 0.6623 0.73882 0.16515 0.0
C648 C 0.66325 0.7677 0.19624 0.0
C649 C 0.79139 0.33122 0.92492 0.0
C650 C 0.79425 0.33981 0.86059 0.0
C651 C 0.76271 0.3291 0.95412 0.0
C652 C 0.7359 0.33608 0.92047 0.0
H653 H 0.81142 0.32521 0.95232 0.0
H654 H 0.76141 0.32179 1.00331 0.0
S655 S 0.73103 0.36067 0.75166 0.0
N656 N 0.76787 0.3562 0.76474 0.0
N657 N 0.71403 0.35211 0.81946 0.0
C658 C 0.73848 0.34533 0.85654 0.0
C659 C 0.76763 0.34718 0.82663 0.0
C660 C 0.83717 0.78669 0.66817 0.0
C661 C 0.8402 0.78915 0.60157 0.0
C662 C 0.83567 0.75827 0.6983 0.0
C663 C 0.8368 0.73094 0.66326 0.0
H664 H 0.83539 0.80688 0.69747 0.0
H665 H 0.83362 0.75781 0.74966 0.0
S666 S 0.84532 0.72456 0.48747 0.0
N667 N 0.84598 0.76147 0.50171 0.0
N668 N 0.84077 0.7083 0.5576 0.0
C669 C 0.83993 0.73301 0.59654 0.0
C670 C 0.84212 0.76199 0.56594 0.0
C671 C 0.77089 0.16679 0.42496 0.0
C672 C 0.79012 0.19193 0.41621 0.0
C673 C 0.74242 0.16528 0.39434 0.0
C674 C 0.73257 0.18859 0.35296 0.0
H675 H 0.77766 0.14861 0.45682 0.0
H676 H 0.72801 0.14575 0.40289 0.0
S677 S 0.77551 0.25849 0.31202 0.0
N678 N 0.79808 0.23993 0.36158 0.0
N679 N 0.74473 0.23729 0.30451 0.0
C680 C 0.75204 0.21346 0.34283 0.0
C681 C 0.78077 0.21508 0.37435 0.0
C682 C 0.18147 0.28998 0.61771 0.0
C683 C 0.18431 0.2925 0.68436 0.0
C684 C 0.18018 0.26151 0.58748 0.0
C685 C 0.18183 0.23418 0.62237 0.0
H686 H 0.18087 0.31016 0.58823 0.0
H687 H 0.17793 0.26096 0.53614 0.0
S688 S 0.18858 0.22791 0.79845 0.0
N689 N 0.1871 0.26486 0.78473 0.0
N690 N 0.18671 0.21158 0.72776 0.0
C691 C 0.18442 0.23629 0.68918 0.0
C692 C 0.18524 0.26533 0.72011 0.0
C693 C 0.26778 0.83344 0.3331 0.0
C694 C 0.29493 0.83543 0.36847 0.0
C695 C 0.23928 0.83397 0.36297 0.0
C696 C 0.23659 0.83684 0.42957 0.0
H697 H 0.26846 0.83164 0.2817 0.0
H698 H 0.21921 0.83172 0.33342 0.0
S699 S 0.30069 0.84318 0.54451 0.0
N700 N 0.31726 0.83939 0.47445 0.0
N701 N 0.26379 0.84287 0.52991 0.0
C702 C 0.26356 0.83928 0.4656 0.0
C703 C 0.29266 0.83805 0.43527 0.0
C704 C 0.25479 0.09853 0.94189 0.0
C705 C 0.27662 0.12098 0.95637 0.0
C706 C 0.23946 0.09817 0.88303 0.0
C707 C 0.24547 0.12005 0.83576 0.0
H708 H 0.24981 0.08072 0.97594 0.0
H709 H 0.22298 0.08036 0.87411 0.0
S710 S 0.29828 0.18531 0.8509 0.0
N711 N 0.3017 0.16704 0.9193 0.0
N712 N 0.27344 0.16573 0.80841 0.0
C713 C 0.26689 0.14282 0.84958 0.0
C714 C 0.28229 0.14344 0.90981 0.0
C715 C 0.09816 0.75405 0.18889 0.0
C716 C 0.12071 0.77598 0.2017 0.0
C717 C 0.09739 0.73822 0.13063 0.0
C718 C 0.11902 0.74376 0.08253 0.0
H719 H 0.08054 0.74949 0.22366 0.0
H720 H 0.07931 0.72192 0.12268 0.0
S721 S 0.18468 0.79636 0.09422 0.0
N722 N 0.1667 0.80052 0.16281 0.0
N723 N 0.16481 0.7712 0.05319 0.0
C724 C 0.14205 0.7651 0.09509 0.0
C725 C 0.14301 0.78107 0.15459 0.0
C726 C 0.74303 0.88669 0.90197 0.0
C727 C 0.75096 0.90717 0.95106 0.0
C728 C 0.75816 0.88685 0.84298 0.0
C729 C 0.78206 0.90726 0.83092 0.0
H730 H 0.72507 0.87022 0.90928 0.0
H731 H 0.7514 0.87059 0.80684 0.0
S732 S 0.81044 0.9669 0.94092 0.0
N733 N 0.78335 0.94961 0.98156 0.0
N734 N 0.8122 0.94928 0.87149 0.0
C735 C 0.79018 0.92792 0.87919 0.0
C736 C 0.77459 0.928 0.93901 0.0
C737 C 0.91962 0.27623 0.20222 0.0
C738 C 0.91535 0.24451 0.20477 0.0
C739 C 0.91997 0.29186 0.14397 0.0
C740 C 0.91565 0.27658 0.08556 0.0
H741 H 0.92231 0.28926 0.24568 0.0
H742 H 0.92381 0.31619 0.14491 0.0
S743 S 0.90419 0.19335 0.06556 0.0
N744 N 0.90847 0.19808 0.14304 0.0
N745 N 0.90652 0.22771 0.03436 0.0
C746 C 0.91136 0.24482 0.08739 0.0
C747 C 0.91177 0.22879 0.14664 0.0
C748 C 0.23917 0.39267 0.40822 0.0
C749 C 0.25006 0.40923 0.46101 0.0
C750 C 0.25506 0.39225 0.35001 0.0
C751 C 0.28243 0.40848 0.34211 0.0
H752 H 0.21834 0.37967 0.41214 0.0
H753 H 0.24599 0.37881 0.31112 0.0
S754 S 0.31902 0.45778 0.46381 0.0
N755 N 0.28896 0.44363 0.50042 0.0
N756 N 0.31856 0.44322 0.39126 0.0
C757 C 0.29323 0.42556 0.39429 0.0
C758 C 0.27715 0.42584 0.45356 0.0
C759 C 0.42973 0.7566 0.59938 0.0
C760 C 0.40861 0.77983 0.58497 0.0
C761 C 0.42898 0.74116 0.658 0.0
C762 C 0.40734 0.74858 0.70492 0.0
H763 H 0.44732 0.75055 0.56546 0.0
H764 H 0.44571 0.72353 0.66707 0.0
S765 S 0.3453 0.80539 0.68991 0.0
N766 N 0.36386 0.80766 0.62166 0.0
N767 N 0.36336 0.77936 0.73236 0.0
C768 C 0.3859 0.77139 0.69122 0.0
C769 C 0.38632 0.78683 0.63122 0.0
C770 C 0.73455 0.63174 0.38159 0.0
C771 C 0.74353 0.61267 0.3308 0.0
C772 C 0.74959 0.63098 0.4407 0.0
C773 C 0.77437 0.6113 0.45126 0.0
H774 H 0.71588 0.64763 0.37549 0.0
H775 H 0.74208 0.64626 0.47811 0.0
S776 S 0.80561 0.5552 0.33623 0.0
N777 N 0.77787 0.57229 0.2968 0.0
N778 N 0.8064 0.57133 0.40731 0.0
C779 C 0.78346 0.59196 0.40128 0.0
C780 C 0.76804 0.59255 0.34126 0.0
C781 C 0.61398 0.28958 0.64776 0.0
C782 C 0.60969 0.27429 0.70609 0.0
C783 C 0.61397 0.27393 0.58946 0.0
C784 C 0.60922 0.24228 0.58651 0.0
H785 H 0.61726 0.31399 0.64685 0.0
H786 H 0.61812 0.28682 0.54639 0.0
S787 S 0.59585 0.19139 0.72509 0.0
N788 N 0.6011 0.2253 0.75698 0.0
N789 N 0.59848 0.19639 0.64738 0.0
C790 C 0.60422 0.22674 0.64435 0.0
C791 C 0.60499 0.24258 0.70393 0.0
C792 C 0.3935 0.9856 0.28664 0.0
C793 C 0.37474 0.98834 0.23241 0.0
C794 C 0.40248 0.95681 0.30955 0.0
C795 C 0.39328 0.93004 0.27831 0.0
H796 H 0.40204 1.00578 0.31017 0.0
H797 H 0.41752 0.95553 0.35041 0.0
S798 S 0.34006 0.9246 0.14177 0.0
N799 N 0.344 0.96149 0.15406 0.0
N800 N 0.36189 0.90782 0.19537 0.0
C801 C 0.3735 0.93246 0.2261 0.0
C802 C 0.36396 0.96151 0.20358 0.0
C803 C 0.95261 0.61572 0.73287 0.0
C804 C 0.92571 0.63093 0.75053 0.0
C805 C 0.98112 0.62593 0.75482 0.0
C806 C 0.9834 0.65173 0.79444 0.0
H807 H 0.95148 0.59531 0.70398 0.0
H808 H 1.00132 0.61295 0.74284 0.0
S809 S 0.91968 0.70217 0.84391 0.0
N810 N 0.90314 0.67448 0.80365 0.0
N811 N 0.95649 0.69437 0.84276 0.0
C812 C 0.95664 0.66806 0.80868 0.0
C813 C 0.92782 0.65744 0.78726 0.0
C814 C 0.65319 0.06032 0.19824 0.0
C815 C 0.64739 0.03367 0.23332 0.0
C816 C 0.64461 0.08894 0.22095 0.0
C817 C 0.6304 0.09231 0.28039 0.0
H818 H 0.66428 0.05909 0.15225 0.0
H819 H 0.64924 0.10866 0.19156 0.0
S820 S 0.61052 0.03034 0.39237 0.0
N821 N 0.62647 0.01269 0.3313 0.0
N822 N 0.61145 0.06702 0.37519 0.0
C823 C 0.62536 0.06619 0.31742 0.0
C824 C 0.63364 0.03674 0.29367 0.0
C825 C 0.08453 0.41331 0.81807 0.0
C826 C 0.09484 0.40224 0.75897 0.0
C827 C 0.05545 0.40634 0.84078 0.0
C828 C 0.03545 0.38794 0.80551 0.0
H829 H 0.09925 0.42709 0.84778 0.0
H830 H 0.04873 0.41493 0.88708 0.0
S831 S 0.05112 0.35354 0.64731 0.0
N832 N 0.08245 0.37261 0.66455 0.0
N833 N 0.02776 0.3591 0.7079 0.0
C834 C 0.04501 0.37749 0.74532 0.0
C835 C 0.07472 0.38472 0.72192 0.0
C836 C 0.40587 0.58358 0.06249 0.0
C837 C 0.39361 0.5935 1.00413 0.0
C838 C 0.39998 0.55445 0.08596 0.0
C839 C 0.38146 0.53392 0.05238 0.0
H840 H 0.4199 0.5986 0.09099 0.0
H841 H 0.40967 0.54809 0.13151 0.0
S842 S 0.34443 0.54822 0.89627 0.0
N843 N 0.36291 0.58009 0.91187 0.0
N844 N 0.35139 0.52519 0.9568 0.0
C845 C 0.36981 0.54304 0.99284 0.0
C846 C 0.37598 0.57287 0.96856 0.0
C847 C 0.58377 0.64087 0.97152 0.0
C848 C 0.58845 0.62914 0.03295 0.0
C849 C 0.55464 0.64823 0.94976 0.0
C850 C 0.52871 0.64373 0.98797 0.0
H851 H 0.60284 0.64446 0.93967 0.0
H852 H 0.55243 0.65734 0.90208 0.0
S853 S 0.52869 0.61387 0.15337 0.0
N854 N 0.56504 0.61417 0.13298 0.0
N855 N 0.50976 0.62707 0.09113 0.0
C856 C 0.53304 0.63264 0.05029 0.0
C857 C 0.56303 0.62552 0.07294 0.0
C858 C 0.63513 0.48364 0.9856 0.0
C859 C 0.64964 0.48861 0.04449 0.0
C860 C 0.62929 0.45387 0.9638 0.0
C861 C 0.63766 0.42841 1.00063 0.0
H862 H 0.62691 0.5028 0.95804 0.0
H863 H 0.61684 0.45081 0.91968 0.0
S864 S 0.68128 0.42952 0.15191 0.0
N865 N 0.67605 0.46575 0.1342 0.0
N866 N 0.66464 0.41014 0.09422 0.0
C867 C 0.65396 0.43322 0.05727 0.0
C868 C 0.66009 0.46327 0.07894 0.0
C869 C 0.44908 0.41778 0.98854 0.0
C870 C 0.43814 0.40365 0.044 0.0
C871 C 0.47843 0.41187 0.96567 0.0
C872 C 0.49801 0.39131 0.99687 0.0
H873 H 0.43461 0.43314 0.96171 0.0
H874 H 0.4856 0.42288 0.92208 0.0
S875 S 0.48041 0.34865 0.14491 0.0
N876 N 0.4494 0.36897 0.13109 0.0
N877 N 0.50446 0.3572 0.08718 0.0
C878 C 0.48777 0.3778 0.05378 0.0
C879 C 0.45784 0.3841 0.07752 0.0
C880 C 0.91189 0.44387 0.73101 0.0
C881 C 0.90224 0.43357 0.7911 0.0
C882 C 0.90341 0.47252 0.7082 0.0
C883 C 0.88491 0.4921 0.74439 0.0
H884 H 0.92551 0.42938 0.70037 0.0
H885 H 0.91068 0.47912 0.66089 0.0
S886 S 0.85488 0.47689 0.90626 0.0
N887 N 0.87445 0.44591 0.88807 0.0
N888 N 0.85824 0.49993 0.84448 0.0
C889 C 0.87625 0.48283 0.80584 0.0
C890 C 0.88497 0.45349 0.82935 0.0
C891 C 0.48109 0.14531 0.24419 0.0
C892 C 0.49256 0.13188 0.30018 0.0
C893 C 0.45159 0.1385 0.22203 0.0
C894 C 0.43265 0.11817 0.25537 0.0
H895 H 0.49438 0.16227 0.21931 0.0
H896 H 0.44306 0.15033 0.18037 0.0
S897 S 0.45421 0.07311 0.39794 0.0
N898 N 0.4843 0.09443 0.38334 0.0
N899 N 0.429 0.08197 0.34254 0.0
C900 C 0.44468 0.10325 0.30903 0.0
C901 C 0.47461 0.11002 0.33121 0.0
C902 C 0.13562 0.54007 0.79801 0.0
C903 C 0.13615 0.53297 0.73269 0.0
C904 C 0.12515 0.56861 0.8194 0.0
C905 C 0.11463 0.59079 0.77608 0.0
H906 H 0.14494 0.52411 0.8322 0.0
H907 H 0.12654 0.57375 0.86981 0.0
S908 S 0.10791 0.58097 0.60054 0.0
N909 N 0.12311 0.54876 0.62574 0.0
N910 N 0.10263 0.60194 0.66495 0.0
C911 C 0.11327 0.58289 0.71093 0.0
C912 C 0.12428 0.55411 0.68947 0.0
C913 C 0.59053 0.88318 0.30613 0.0
C914 C 0.59441 0.8971 0.24655 0.0
C915 C 0.56163 0.87605 0.32904 0.0
C916 C 0.53521 0.883 0.29394 0.0
H917 H 0.61007 0.87771 0.33561 0.0
H918 H 0.56001 0.86518 0.37516 0.0
S919 S 0.53312 0.9191 0.13419 0.0
N920 N 0.56979 0.91672 0.15136 0.0
N921 N 0.5149 0.90421 0.19556 0.0
C922 C 0.53873 0.89626 0.23331 0.0
C923 C 0.56848 0.90314 0.20939 0.0
C924 C 0.87569 0.08872 0.56398 0.0
C925 C 0.8882 0.09399 0.50347 0.0
C926 C 0.86984 0.05922 0.58534 0.0
C927 C 0.87669 0.03359 0.5476 0.0
H928 H 0.87065 0.10759 0.59558 0.0
H929 H 0.86024 0.05645 0.63247 0.0
S930 S 0.90936 0.03518 0.38459 0.0
N931 N 0.90639 0.07142 0.40477 0.0
N932 N 0.89622 0.01559 0.44582 0.0
C933 C 0.88841 0.03853 0.48604 0.0
C934 C 0.89401 0.06882 0.46382 0.0
C935 C 0.07671 0.10772 0.48639 0.0
C936 C 0.08799 0.12226 0.54118 0.0
C937 C 0.04701 0.11302 0.46472 0.0
C938 C 0.02736 0.13339 0.49637 0.0
H939 H 0.09113 0.09243 0.45927 0.0
H940 H 0.0396 0.10159 0.42173 0.0
S941 S 0.04578 0.17695 0.64305 0.0
N942 N 0.07699 0.15711 0.6282 0.0
N943 N 0.02131 0.16778 0.58645 0.0
C944 C 0.038 0.14735 0.55259 0.0
C945 C 0.06829 0.14164 0.57516 0.0
C946 C 0.12565 0.95797 0.46761 0.0
C947 C 0.13499 0.93148 0.49988 0.0
C948 C 0.13311 0.98705 0.49143 0.0
C949 C 0.15032 0.9903 0.54771 0.0
H950 H 0.11144 0.95622 0.42556 0.0
H951 H 0.12428 1.00702 0.46744 0.0
S952 S 0.18505 0.92778 0.64191 0.0
N953 N 0.16533 0.91029 0.58586 0.0
N954 N 0.18003 0.96452 0.62922 0.0
C955 C 0.1615 0.96386 0.57733 0.0
C956 C 0.15364 0.93453 0.55378 0.0
C957 C 0.96779 0.87721 0.44261 0.0
C958 C 0.99385 0.88195 0.48041 0.0
C959 C 0.93866 0.88415 0.46501 0.0
C960 C 0.93415 0.89565 0.52671 0.0
H961 H 0.96984 0.86804 0.39492 0.0
H962 H 0.91945 0.88028 0.43362 0.0
S963 S 0.99427 0.91213 0.64576 0.0
N964 N 0.01306 0.89918 0.58312 0.0
N965 N 0.95784 0.91117 0.62614 0.0
C966 C 0.95971 0.89979 0.56606 0.0
C967 C 0.98967 0.89315 0.54276 0.0
loop_
_geom_bond_atom_site_label_1
_geom_bond_atom_site_label_2
_geom_bond_distance
_geom_bond_site_symmetry_2
_ccdc_geom_bond_type
Co0 N4 2.148 . S
Co0 N10 2.128 . S
Co0 N20 2.194 . S
Co0 O25 2.351 . S
Co0 O26 2.155 . S
Co0 O27 2.096 . S
C1 N4 1.301 . S
C1 N5 1.328 . S
C1 H6 0.930 . S
C2 C3 1.333 . S
C2 N4 1.317 . S
C2 H7 0.930 . S
C3 C2 1.333 . S
C3 N5 1.350 . S
C3 H29 0.931 . S
N4 Co0 2.148 . S
N4 C1 1.301 . S
N4 C2 1.317 . S
N5 C1 1.328 . S
N5 C3 1.350 . S
H6 C1 0.930 . S
H7 C2 0.930 . S
C8 O9 1.224 . S
C8 O27 1.247 . S
O9 C8 1.224 . S
N10 Co0 2.128 . S
N10 C11 1.355 . S
N10 C13 1.311 . S
C11 N10 1.355 . S
C11 C12 1.363 . S
C11 H23 0.929 . S
C12 C11 1.363 . S
C12 N14 1.375 . S
C12 H30 0.931 1_545 S
C13 N10 1.311 . S
C13 N14 1.347 . S
C13 H24 0.929 . S
N14 C12 1.375 . S
N14 C13 1.347 . S
C15 C18 1.365 1_554 S
C15 N20 1.328 . S
C15 H21 0.929 . S
C16 C17 1.362 1_554 S
C16 C19 1.378 . S
C16 H31 0.929 . S
C17 C16 1.362 1_556 S
C17 C18 1.366 . S
C18 C15 1.365 1_556 S
C18 C17 1.366 . S
C18 H32 0.930 . S
C19 C16 1.378 . S
C19 N20 1.315 . S
C19 H22 0.930 . S
N20 Co0 2.194 . S
N20 C15 1.328 . S
N20 C19 1.315 . S
H21 C15 0.929 . S
H22 C19 0.930 . S
H23 C11 0.929 . S
H24 C13 0.929 . S
O25 Co0 2.351 . S
O25 C28 1.244 . S
O26 Co0 2.155 . S
O26 C28 1.240 . S
O27 Co0 2.096 . S
O27 C8 1.247 . S
C28 O25 1.244 . S
C28 O26 1.240 . S
H29 C3 0.931 . S
H30 C12 0.931 1_565 S
H31 C16 0.929 . S
H32 C18 0.930 . S
Co33 N37 2.148 . S
Co33 N43 2.128 . S
Co33 N53 2.194 . S
Co33 O58 2.351 . S
Co33 O59 2.155 . S
Co33 O60 2.096 . S
C34 N37 1.301 . S
C34 N38 1.328 . S
C34 H39 0.930 . S
C35 C36 1.333 . S
C35 N37 1.317 . S
C35 H40 0.930 . S
C36 C35 1.333 . S
C36 N38 1.350 . S
C36 H62 0.931 . S
N37 Co33 2.148 . S
N37 C34 1.301 . S
N37 C35 1.317 . S
N38 C34 1.328 . S
N38 C36 1.350 . S
H39 C34 0.930 . S
H40 C35 0.930 . S
C41 O42 1.224 . S
C41 O60 1.247 . S
O42 C41 1.224 . S
N43 Co33 2.128 . S
N43 C44 1.355 . S
N43 C46 1.311 . S
C44 N43 1.355 . S
C44 C45 1.363 . S
C44 H56 0.929 . S
C45 C44 1.363 . S
C45 N47 1.375 . S
C45 H63 0.931 1_455 S
C46 N43 1.311 . S
C46 N47 1.347 . S
C46 H57 0.929 . S
N47 C45 1.375 . S
N47 C46 1.347 . S
C48 C51 1.365 1_556 S
C48 N53 1.328 . S
C48 H54 0.929 . S
C49 C50 1.362 1_556 S
C49 C52 1.378 . S
C49 H64 0.929 . S
C50 C49 1.362 1_554 S
C50 C51 1.366 . S
C51 C48 1.365 1_554 S
C51 C50 1.366 . S
C51 H65 0.930 . S
C52 C49 1.378 . S
C52 N53 1.315 . S
C52 H55 0.930 . S
N53 Co33 2.194 . S
N53 C48 1.328 . S
N53 C52 1.315 . S
H54 C48 0.929 . S
H55 C52 0.930 . S
H56 C44 0.929 . S
H57 C46 0.929 . S
O58 Co33 2.351 . S
O58 C61 1.244 . S
O59 Co33 2.155 . S
O59 C61 1.240 . S
O60 Co33 2.096 . S
O60 C41 1.247 . S
C61 O58 1.244 . S
C61 O59 1.240 . S
H62 C36 0.931 . S
H63 C45 0.931 1_655 S
H64 C49 0.929 . S
H65 C51 0.930 . S
Co66 N70 2.148 . S
Co66 N76 2.128 . S
Co66 N86 2.194 . S
Co66 O91 2.351 . S
Co66 O92 2.155 . S
Co66 O93 2.096 . S
C67 N70 1.301 . S
C67 N71 1.328 . S
C67 H72 0.930 . S
C68 C69 1.333 . S
C68 N70 1.317 . S
C68 H73 0.930 . S
C69 C68 1.333 . S
C69 N71 1.350 . S
C69 H95 0.931 . S
N70 Co66 2.148 . S
N70 C67 1.301 . S
N70 C68 1.317 . S
N71 C67 1.328 . S
N71 C69 1.350 . S
H72 C67 0.930 . S
H73 C68 0.930 . S
C74 O75 1.224 . S
C74 O93 1.247 . S
O75 C74 1.224 . S
N76 Co66 2.128 . S
N76 C77 1.355 . S
N76 C79 1.311 . S
C77 N76 1.355 . S
C77 C78 1.363 . S
C77 H89 0.929 . S
C78 C77 1.363 . S
C78 N80 1.375 . S
C78 H96 0.931 1_565 S
C79 N76 1.311 . S
C79 N80 1.347 . S
C79 H90 0.929 . S
N80 C78 1.375 . S
N80 C79 1.347 . S
C81 C84 1.365 1_554 S
C81 N86 1.328 . S
C81 H87 0.929 . S
C82 C83 1.362 1_554 S
C82 C85 1.378 . S
C82 H97 0.929 . S
C83 C82 1.362 1_556 S
C83 C84 1.366 . S
C84 C81 1.365 1_556 S
C84 C83 1.366 . S
C84 H98 0.930 . S
C85 C82 1.378 . S
C85 N86 1.315 . S
C85 H88 0.930 . S
N86 Co66 2.194 . S
N86 C81 1.328 . S
N86 C85 1.315 . S
H87 C81 0.929 . S
H88 C85 0.930 . S
H89 C77 0.929 . S
H90 C79 0.929 . S
O91 Co66 2.351 . S
O91 C94 1.244 . S
O92 Co66 2.155 . S
O92 C94 1.240 . S
O93 Co66 2.096 . S
O93 C74 1.247 . S
C94 O91 1.244 . S
C94 O92 1.240 . S
H95 C69 0.931 . S
H96 C78 0.931 1_545 S
H97 C82 0.929 . S
H98 C84 0.930 . S
Co99 N103 2.148 . S
Co99 N109 2.128 . S
Co99 N119 2.194 . S
Co99 O124 2.351 . S
Co99 O125 2.155 . S
Co99 O126 2.096 . S
C100 N103 1.301 . S
C100 N104 1.328 . S
C100 H105 0.930 . S
C101 C102 1.333 . S
C101 N103 1.317 . S
C101 H106 0.930 . S
C102 C101 1.333 . S
C102 N104 1.350 . S
C102 H128 0.931 . S
N103 Co99 2.148 . S
N103 C100 1.301 . S
N103 C101 1.317 . S
N104 C100 1.328 . S
N104 C102 1.350 . S
H105 C100 0.930 . S
H106 C101 0.930 . S
C107 O108 1.224 . S
C107 O126 1.247 . S
O108 C107 1.224 . S
N109 Co99 2.128 . S
N109 C110 1.355 . S
N109 C112 1.311 . S
C110 N109 1.355 . S
C110 C111 1.363 . S
C110 H122 0.929 . S
C111 C110 1.363 . S
C111 N113 1.375 . S
C111 H129 0.931 1_655 S
C112 N109 1.311 . S
C112 N113 1.347 . S
C112 H123 0.929 . S
N113 C111 1.375 . S
N113 C112 1.347 . S
C114 C117 1.365 1_556 S
C114 N119 1.328 . S
C114 H120 0.929 . S
C115 C116 1.362 1_556 S
C115 C118 1.378 . S
C115 H130 0.929 . S
C116 C115 1.362 1_554 S
C116 C117 1.366 . S
C117 C114 1.365 1_554 S
C117 C116 1.366 . S
C117 H131 0.930 . S
C118 C115 1.378 . S
C118 N119 1.315 . S
C118 H121 0.930 . S
N119 Co99 2.194 . S
N119 C114 1.328 . S
N119 C118 1.315 . S
H120 C114 0.929 . S
H121 C118 0.930 . S
H122 C110 0.929 . S
H123 C112 0.929 . S
O124 Co99 2.351 . S
O124 C127 1.244 . S
O125 Co99 2.155 . S
O125 C127 1.240 . S
O126 Co99 2.096 . S
O126 C107 1.247 . S
C127 O124 1.244 . S
C127 O125 1.240 . S
H128 C102 0.931 . S
H129 C111 0.931 1_455 S
H130 C115 0.929 . S
H131 C117 0.930 . S
Co132 N136 2.148 . S
Co132 N142 2.128 . S
Co132 N152 2.194 . S
Co132 O157 2.351 . S
Co132 O158 2.155 . S
Co132 O159 2.096 1_554 S
C133 N136 1.301 . S
C133 N137 1.328 . S
C133 H138 0.930 . S
C134 C135 1.333 . S
C134 N136 1.317 . S
C134 H139 0.930 1_554 S
C135 C134 1.333 . S
C135 N137 1.350 . S
C135 H161 0.931 . S
N136 Co132 2.148 . S
N136 C133 1.301 . S
N136 C134 1.317 . S
N137 C133 1.328 . S
N137 C135 1.350 . S
H138 C133 0.930 . S
H139 C134 0.930 1_556 S
C140 O141 1.224 1_556 S
C140 O159 1.247 . S
O141 C140 1.224 1_554 S
N142 Co132 2.128 . S
N142 C143 1.355 . S
N142 C145 1.311 . S
C143 N142 1.355 . S
C143 C144 1.363 . S
C143 H155 0.929 . S
C144 C143 1.363 . S
C144 N146 1.375 . S
C144 H162 0.931 . S
C145 N142 1.311 . S
C145 N146 1.347 . S
C145 H156 0.929 1_554 S
N146 C144 1.375 . S
N146 C145 1.347 . S
C147 C150 1.365 . S
C147 N152 1.328 . S
C147 H153 0.929 . S
C148 C149 1.362 . S
C148 C151 1.378 . S
C148 H163 0.929 . S
C149 C148 1.362 . S
C149 C150 1.366 . S
C150 C147 1.365 . S
C150 C149 1.366 . S
C150 H164 0.930 . S
C151 C148 1.378 . S
C151 N152 1.315 . S
C151 H154 0.930 . S
N152 Co132 2.194 . S
N152 C147 1.328 . S
N152 C151 1.315 . S
H153 C147 0.929 . S
H154 C151 0.930 . S
H155 C143 0.929 . S
H156 C145 0.929 1_556 S
O157 Co132 2.351 . S
O157 C160 1.244 . S
O158 Co132 2.155 . S
O158 C160 1.240 . S
O159 Co132 2.096 1_556 S
O159 C140 1.247 . S
C160 O157 1.244 . S
C160 O158 1.240 . S
H161 C135 0.931 . S
H162 C144 0.931 . S
H163 C148 0.929 . S
H164 C150 0.930 . S
Co165 N169 2.148 . S
Co165 N175 2.128 . S
Co165 N185 2.194 . S
Co165 O190 2.351 . S
Co165 O191 2.155 . S
Co165 O192 2.096 1_556 S
C166 N169 1.301 . S
C166 N170 1.328 . S
C166 H171 0.930 . S
C167 C168 1.333 . S
C167 N169 1.317 . S
C167 H172 0.930 1_556 S
C168 C167 1.333 . S
C168 N170 1.350 . S
C168 H194 0.931 . S
N169 Co165 2.148 . S
N169 C166 1.301 . S
N169 C167 1.317 . S
N170 C166 1.328 . S
N170 C168 1.350 . S
H171 C166 0.930 . S
H172 C167 0.930 1_554 S
C173 O174 1.224 1_554 S
C173 O192 1.247 . S
O174 C173 1.224 1_556 S
N175 Co165 2.128 . S
N175 C176 1.355 . S
N175 C178 1.311 . S
C176 N175 1.355 . S
C176 C177 1.363 . S
C176 H188 0.929 . S
C177 C176 1.363 . S
C177 N179 1.375 . S
C177 H195 0.931 . S
C178 N175 1.311 . S
C178 N179 1.347 . S
C178 H189 0.929 1_556 S
N179 C177 1.375 . S
N179 C178 1.347 . S
C180 C183 1.365 . S
C180 N185 1.328 . S
C180 H186 0.929 . S
C181 C182 1.362 . S
C181 C184 1.378 . S
C181 H196 0.929 . S
C182 C181 1.362 . S
C182 C183 1.366 . S
C183 C180 1.365 . S
C183 C182 1.366 . S
C183 H197 0.930 . S
C184 C181 1.378 . S
C184 N185 1.315 . S
C184 H187 0.930 . S
N185 Co165 2.194 . S
N185 C180 1.328 . S
N185 C184 1.315 . S
H186 C180 0.929 . S
H187 C184 0.930 . S
H188 C176 0.929 . S
H189 C178 0.929 1_554 S
O190 Co165 2.351 . S
O190 C193 1.244 . S
O191 Co165 2.155 . S
O191 C193 1.240 . S
O192 Co165 2.096 1_554 S
O192 C173 1.247 . S
C193 O190 1.244 . S
C193 O191 1.240 . S
H194 C168 0.931 . S
H195 C177 0.931 . S
H196 C181 0.929 . S
H197 C183 0.930 . S
Co198 N202 2.148 . S
Co198 N208 2.128 . S
Co198 N218 2.194 . S
Co198 O223 2.351 . S
Co198 O224 2.155 . S
Co198 O225 2.096 1_554 S
C199 N202 1.301 . S
C199 N203 1.328 . S
C199 H204 0.930 . S
C200 C201 1.333 . S
C200 N202 1.317 . S
C200 H205 0.930 1_554 S
C201 C200 1.333 . S
C201 N203 1.350 . S
C201 H227 0.931 . S
N202 Co198 2.148 . S
N202 C199 1.301 . S
N202 C200 1.317 . S
N203 C199 1.328 . S
N203 C201 1.350 . S
H204 C199 0.930 . S
H205 C200 0.930 1_556 S
C206 O207 1.224 1_556 S
C206 O225 1.247 . S
O207 C206 1.224 1_554 S
N208 Co198 2.128 . S
N208 C209 1.355 . S
N208 C211 1.311 . S
C209 N208 1.355 . S
C209 C210 1.363 . S
C209 H221 0.929 . S
C210 C209 1.363 . S
C210 N212 1.375 . S
C210 H228 0.931 . S
C211 N208 1.311 . S
C211 N212 1.347 . S
C211 H222 0.929 1_554 S
N212 C210 1.375 . S
N212 C211 1.347 . S
C213 C216 1.365 . S
C213 N218 1.328 . S
C213 H219 0.929 . S
C214 C215 1.362 . S
C214 C217 1.378 . S
C214 H229 0.929 . S
C215 C214 1.362 . S
C215 C216 1.366 . S
C216 C213 1.365 . S
C216 C215 1.366 . S
C216 H230 0.930 . S
C217 C214 1.378 . S
C217 N218 1.315 . S
C217 H220 0.930 . S
N218 Co198 2.194 . S
N218 C213 1.328 . S
N218 C217 1.315 . S
H219 C213 0.929 . S
H220 C217 0.930 . S
H221 C209 0.929 . S
H222 C211 0.929 1_556 S
O223 Co198 2.351 . S
O223 C226 1.244 . S
O224 Co198 2.155 . S
O224 C226 1.240 . S
O225 Co198 2.096 1_556 S
O225 C206 1.247 . S
C226 O223 1.244 . S
C226 O224 1.240 . S
H227 C201 0.931 . S
H228 C210 0.931 . S
H229 C214 0.929 . S
H230 C216 0.930 . S
Co231 N235 2.148 . S
Co231 N241 2.128 . S
Co231 N251 2.194 . S
Co231 O256 2.351 . S
Co231 O257 2.155 . S
Co231 O258 2.096 1_556 S
C232 N235 1.301 . S
C232 N236 1.328 . S
C232 H237 0.930 . S
C233 C234 1.333 . S
C233 N235 1.317 . S
C233 H238 0.930 1_556 S
C234 C233 1.333 . S
C234 N236 1.350 . S
C234 H260 0.931 . S
N235 Co231 2.148 . S
N235 C232 1.301 . S
N235 C233 1.317 . S
N236 C232 1.328 . S
N236 C234 1.350 . S
H237 C232 0.930 . S
H238 C233 0.930 1_554 S
C239 O240 1.224 1_554 S
C239 O258 1.247 . S
O240 C239 1.224 1_556 S
N241 Co231 2.128 . S
N241 C242 1.355 . S
N241 C244 1.311 . S
C242 N241 1.355 . S
C242 C243 1.363 . S
C242 H254 0.929 . S
C243 C242 1.363 . S
C243 N245 1.375 . S
C243 H261 0.931 . S
C244 N241 1.311 . S
C244 N245 1.347 . S
C244 H255 0.929 1_556 S
N245 C243 1.375 . S
N245 C244 1.347 . S
C246 C249 1.365 . S
C246 N251 1.328 . S
C246 H252 0.929 . S
C247 C248 1.362 . S
C247 C250 1.378 . S
C247 H262 0.929 . S
C248 C247 1.362 . S
C248 C249 1.366 . S
C249 C246 1.365 . S
C249 C248 1.366 . S
C249 H263 0.930 . S
C250 C247 1.378 . S
C250 N251 1.315 . S
C250 H253 0.930 . S
N251 Co231 2.194 . S
N251 C246 1.328 . S
N251 C250 1.315 . S
H252 C246 0.929 . S
H253 C250 0.930 . S
H254 C242 0.929 . S
H255 C244 0.929 1_554 S
O256 Co231 2.351 . S
O256 C259 1.244 . S
O257 Co231 2.155 . S
O257 C259 1.240 . S
O258 Co231 2.096 1_554 S
O258 C239 1.247 . S
C259 O256 1.244 . S
C259 O257 1.240 . S
H260 C234 0.931 . S
H261 C243 0.931 . S
H262 C247 0.929 . S
H263 C249 0.930 . S
Co264 N268 2.148 . S
Co264 N274 2.128 . S
Co264 N284 2.194 . S
Co264 O289 2.351 . S
Co264 O290 2.155 . S
Co264 O291 2.096 . S
C265 N268 1.301 . S
C265 N269 1.328 . S
C265 H270 0.930 . S
C266 C267 1.333 . S
C266 N268 1.317 . S
C266 H271 0.930 . S
C267 C266 1.333 . S
C267 N269 1.350 . S
C267 H293 0.931 . S
N268 Co264 2.148 . S
N268 C265 1.301 . S
N268 C266 1.317 . S
N269 C265 1.328 . S
N269 C267 1.350 . S
H270 C265 0.930 . S
H271 C266 0.930 . S
C272 O273 1.224 . S
C272 O291 1.247 . S
O273 C272 1.224 . S
N274 Co264 2.128 . S
N274 C275 1.355 . S
N274 C277 1.311 . S
C275 N274 1.355 . S
C275 C276 1.363 . S
C275 H287 0.929 . S
C276 C275 1.363 . S
C276 N278 1.375 . S
C276 H294 0.931 . S
C277 N274 1.311 . S
C277 N278 1.347 . S
C277 H288 0.929 . S
N278 C276 1.375 . S
N278 C277 1.347 . S
C279 C282 1.365 . S
C279 N284 1.328 . S
C279 H285 0.929 . S
C280 C281 1.362 . S
C280 C283 1.378 . S
C280 H295 0.929 . S
C281 C280 1.362 . S
C281 C282 1.366 . S
C282 C279 1.365 . S
C282 C281 1.366 . S
C282 H296 0.930 . S
C283 C280 1.378 . S
C283 N284 1.315 . S
C283 H286 0.930 . S
N284 Co264 2.194 . S
N284 C279 1.328 . S
N284 C283 1.315 . S
H285 C279 0.929 . S
H286 C283 0.930 . S
H287 C275 0.929 . S
H288 C277 0.929 . S
O289 Co264 2.351 . S
O289 C292 1.244 . S
O290 Co264 2.155 . S
O290 C292 1.240 . S
O291 Co264 2.096 . S
O291 C272 1.247 . S
C292 O289 1.244 . S
C292 O290 1.240 . S
H293 C267 0.931 . S
H294 C276 0.931 . S
H295 C280 0.929 . S
H296 C282 0.930 . S
Co297 N301 2.148 . S
Co297 N307 2.128 . S
Co297 N317 2.194 . S
Co297 O322 2.351 . S
Co297 O323 2.155 . S
Co297 O324 2.096 . S
C298 N301 1.301 . S
C298 N302 1.328 . S
C298 H303 0.930 . S
C299 C300 1.333 . S
C299 N301 1.317 . S
C299 H304 0.930 . S
C300 C299 1.333 . S
C300 N302 1.350 . S
C300 H326 0.931 . S
N301 Co297 2.148 . S
N301 C298 1.301 . S
N301 C299 1.317 . S
N302 C298 1.328 . S
N302 C300 1.350 . S
H303 C298 0.930 . S
H304 C299 0.930 . S
C305 O306 1.224 . S
C305 O324 1.247 . S
O306 C305 1.224 . S
N307 Co297 2.128 . S
N307 C308 1.355 . S
N307 C310 1.311 . S
C308 N307 1.355 . S
C308 C309 1.363 . S
C308 H320 0.929 . S
C309 C308 1.363 . S
C309 N311 1.375 . S
C309 H327 0.931 . S
C310 N307 1.311 . S
C310 N311 1.347 . S
C310 H321 0.929 . S
N311 C309 1.375 . S
N311 C310 1.347 . S
C312 C315 1.365 . S
C312 N317 1.328 . S
C312 H318 0.929 . S
C313 C314 1.362 . S
C313 C316 1.378 . S
C313 H328 0.929 . S
C314 C313 1.362 . S
C314 C315 1.366 . S
C315 C312 1.365 . S
C315 C314 1.366 . S
C315 H329 0.930 . S
C316 C313 1.378 . S
C316 N317 1.315 . S
C316 H319 0.930 . S
N317 Co297 2.194 . S
N317 C312 1.328 . S
N317 C316 1.315 . S
H318 C312 0.929 . S
H319 C316 0.930 . S
H320 C308 0.929 . S
H321 C310 0.929 . S
O322 Co297 2.351 . S
O322 C325 1.244 . S
O323 Co297 2.155 . S
O323 C325 1.240 . S
O324 Co297 2.096 . S
O324 C305 1.247 . S
C325 O322 1.244 . S
C325 O323 1.240 . S
H326 C300 0.931 . S
H327 C309 0.931 . S
H328 C313 0.929 . S
H329 C315 0.930 . S
Co330 N334 2.148 . S
Co330 N340 2.128 . S
Co330 N350 2.194 . S
Co330 O355 2.351 . S
Co330 O356 2.155 . S
Co330 O357 2.096 . S
C331 N334 1.301 . S
C331 N335 1.328 . S
C331 H336 0.930 . S
C332 C333 1.333 . S
C332 N334 1.317 . S
C332 H337 0.930 . S
C333 C332 1.333 . S
C333 N335 1.350 . S
C333 H359 0.931 . S
N334 Co330 2.148 . S
N334 C331 1.301 . S
N334 C332 1.317 . S
N335 C331 1.328 . S
N335 C333 1.350 . S
H336 C331 0.930 . S
H337 C332 0.930 . S
C338 O339 1.224 . S
C338 O357 1.247 . S
O339 C338 1.224 . S
N340 Co330 2.128 . S
N340 C341 1.355 . S
N340 C343 1.311 . S
C341 N340 1.355 . S
C341 C342 1.363 . S
C341 H353 0.929 . S
C342 C341 1.363 . S
C342 N344 1.375 . S
C342 H360 0.931 . S
C343 N340 1.311 . S
C343 N344 1.347 . S
C343 H354 0.929 . S
N344 C342 1.375 . S
N344 C343 1.347 . S
C345 C348 1.365 . S
C345 N350 1.328 . S
C345 H351 0.929 . S
C346 C347 1.362 . S
C346 C349 1.378 . S
C346 H361 0.929 . S
C347 C346 1.362 . S
C347 C348 1.366 . S
C348 C345 1.365 . S
C348 C347 1.366 . S
C348 H362 0.930 . S
C349 C346 1.378 . S
C349 N350 1.315 . S
C349 H352 0.930 . S
N350 Co330 2.194 . S
N350 C345 1.328 . S
N350 C349 1.315 . S
H351 C345 0.929 . S
H352 C349 0.930 . S
H353 C341 0.929 . S
H354 C343 0.929 . S
O355 Co330 2.351 . S
O355 C358 1.244 . S
O356 Co330 2.155 . S
O356 C358 1.240 . S
O357 Co330 2.096 . S
O357 C338 1.247 . S
C358 O355 1.244 . S
C358 O356 1.240 . S
H359 C333 0.931 . S
H360 C342 0.931 . S
H361 C346 0.929 . S
H362 C348 0.930 . S
Co363 N367 2.148 . S
Co363 N373 2.128 . S
Co363 N383 2.194 . S
Co363 O388 2.351 . S
Co363 O389 2.155 . S
Co363 O390 2.096 . S
C364 N367 1.301 . S
C364 N368 1.328 . S
C364 H369 0.930 . S
C365 C366 1.333 . S
C365 N367 1.317 . S
C365 H370 0.930 . S
C366 C365 1.333 . S
C366 N368 1.350 . S
C366 H392 0.931 . S
N367 Co363 2.148 . S
N367 C364 1.301 . S
N367 C365 1.317 . S
N368 C364 1.328 . S
N368 C366 1.350 . S
H369 C364 0.930 . S
H370 C365 0.930 . S
C371 O372 1.224 . S
C371 O390 1.247 . S
O372 C371 1.224 . S
N373 Co363 2.128 . S
N373 C374 1.355 . S
N373 C376 1.311 . S
C374 N373 1.355 . S
C374 C375 1.363 . S
C374 H386 0.929 . S
C375 C374 1.363 . S
C375 N377 1.375 . S
C375 H393 0.931 . S
C376 N373 1.311 . S
C376 N377 1.347 . S
C376 H387 0.929 . S
N377 C375 1.375 . S
N377 C376 1.347 . S
C378 C381 1.365 . S
C378 N383 1.328 . S
C378 H384 0.929 . S
C379 C380 1.362 . S
C379 C382 1.378 . S
C379 H394 0.929 . S
C380 C379 1.362 . S
C380 C381 1.366 . S
C381 C378 1.365 . S
C381 C380 1.366 . S
C381 H395 0.930 . S
C382 C379 1.378 . S
C382 N383 1.315 . S
C382 H385 0.930 . S
N383 Co363 2.194 . S
N383 C378 1.328 . S
N383 C382 1.315 . S
H384 C378 0.929 . S
H385 C382 0.930 . S
H386 C374 0.929 . S
H387 C376 0.929 . S
O388 Co363 2.351 . S
O388 C391 1.244 . S
O389 Co363 2.155 . S
O389 C391 1.240 . S
O390 Co363 2.096 . S
O390 C371 1.247 . S
C391 O388 1.244 . S
C391 O389 1.240 . S
H392 C366 0.931 . S
H393 C375 0.931 . S
H394 C379 0.929 . S
H395 C381 0.930 . S
Co396 N400 2.148 . S
Co396 N406 2.128 . S
Co396 N416 2.194 . S
Co396 O421 2.351 . S
Co396 O422 2.155 . S
Co396 O423 2.096 . S
C397 N400 1.301 . S
C397 N401 1.328 . S
C397 H402 0.930 . S
C398 C399 1.333 . S
C398 N400 1.317 . S
C398 H403 0.930 . S
C399 C398 1.333 . S
C399 N401 1.350 . S
C399 H425 0.931 . S
N400 Co396 2.148 . S
N400 C397 1.301 . S
N400 C398 1.317 . S
N401 C397 1.328 . S
N401 C399 1.350 . S
H402 C397 0.930 . S
H403 C398 0.930 . S
C404 O405 1.224 . S
C404 O423 1.247 . S
O405 C404 1.224 . S
N406 Co396 2.128 . S
N406 C407 1.355 . S
N406 C409 1.311 . S
C407 N406 1.355 . S
C407 C408 1.363 . S
C407 H419 0.929 . S
C408 C407 1.363 . S
C408 N410 1.375 . S
C408 H426 0.931 1_565 S
C409 N406 1.311 . S
C409 N410 1.347 . S
C409 H420 0.929 . S
N410 C408 1.375 . S
N410 C409 1.347 . S
C411 C414 1.365 . S
C411 N416 1.328 . S
C411 H417 0.929 . S
C412 C413 1.362 . S
C412 C415 1.378 . S
C412 H427 0.929 . S
C413 C412 1.362 . S
C413 C414 1.366 . S
C414 C411 1.365 . S
C414 C413 1.366 . S
C414 H428 0.930 . S
C415 C412 1.378 . S
C415 N416 1.315 . S
C415 H418 0.930 . S
N416 Co396 2.194 . S
N416 C411 1.328 . S
N416 C415 1.315 . S
H417 C411 0.929 . S
H418 C415 0.930 . S
H419 C407 0.929 . S
H420 C409 0.929 . S
O421 Co396 2.351 . S
O421 C424 1.244 . S
O422 Co396 2.155 . S
O422 C424 1.240 . S
O423 Co396 2.096 . S
O423 C404 1.247 . S
C424 O421 1.244 . S
C424 O422 1.240 . S
H425 C399 0.931 . S
H426 C408 0.931 1_545 S
H427 C412 0.929 . S
H428 C414 0.930 . S
Co429 N433 2.148 . S
Co429 N439 2.128 . S
Co429 N449 2.194 . S
Co429 O454 2.351 . S
Co429 O455 2.155 . S
Co429 O456 2.096 . S
C430 N433 1.301 . S
C430 N434 1.328 . S
C430 H435 0.930 . S
C431 C432 1.333 . S
C431 N433 1.317 . S
C431 H436 0.930 . S
C432 C431 1.333 . S
C432 N434 1.350 . S
C432 H458 0.931 . S
N433 Co429 2.148 . S
N433 C430 1.301 . S
N433 C431 1.317 . S
N434 C430 1.328 . S
N434 C432 1.350 . S
H435 C430 0.930 . S
H436 C431 0.930 . S
C437 O438 1.224 . S
C437 O456 1.247 . S
O438 C437 1.224 . S
N439 Co429 2.128 . S
N439 C440 1.355 . S
N439 C442 1.311 . S
C440 N439 1.355 . S
C440 C441 1.363 . S
C440 H452 0.929 . S
C441 C440 1.363 . S
C441 N443 1.375 . S
C441 H459 0.931 1_655 S
C442 N439 1.311 . S
C442 N443 1.347 . S
C442 H453 0.929 . S
N443 C441 1.375 . S
N443 C442 1.347 . S
C444 C447 1.365 . S
C444 N449 1.328 . S
C444 H450 0.929 . S
C445 C446 1.362 . S
C445 C448 1.378 . S
C445 H460 0.929 . S
C446 C445 1.362 . S
C446 C447 1.366 . S
C447 C444 1.365 . S
C447 C446 1.366 . S
C447 H461 0.930 . S
C448 C445 1.378 . S
C448 N449 1.315 . S
C448 H451 0.930 . S
N449 Co429 2.194 . S
N449 C444 1.328 . S
N449 C448 1.315 . S
H450 C444 0.929 . S
H451 C448 0.930 . S
H452 C440 0.929 . S
H453 C442 0.929 . S
O454 Co429 2.351 . S
O454 C457 1.244 . S
O455 Co429 2.155 . S
O455 C457 1.240 . S
O456 Co429 2.096 . S
O456 C437 1.247 . S
C457 O454 1.244 . S
C457 O455 1.240 . S
H458 C432 0.931 . S
H459 C441 0.931 1_455 S
H460 C445 0.929 . S
H461 C447 0.930 . S
Co462 N466 2.148 . S
Co462 N472 2.128 . S
Co462 N482 2.194 . S
Co462 O487 2.351 . S
Co462 O488 2.155 . S
Co462 O489 2.096 . S
C463 N466 1.301 . S
C463 N467 1.328 . S
C463 H468 0.930 . S
C464 C465 1.333 . S
C464 N466 1.317 . S
C464 H469 0.930 . S
C465 C464 1.333 . S
C465 N467 1.350 . S
C465 H491 0.931 . S
N466 Co462 2.148 . S
N466 C463 1.301 . S
N466 C464 1.317 . S
N467 C463 1.328 . S
N467 C465 1.350 . S
H468 C463 0.930 . S
H469 C464 0.930 . S
C470 O471 1.224 . S
C470 O489 1.247 . S
O471 C470 1.224 . S
N472 Co462 2.128 . S
N472 C473 1.355 . S
N472 C475 1.311 . S
C473 N472 1.355 . S
C473 C474 1.363 . S
C473 H485 0.929 . S
C474 C473 1.363 . S
C474 N476 1.375 . S
C474 H492 0.931 1_545 S
C475 N472 1.311 . S
C475 N476 1.347 . S
C475 H486 0.929 . S
N476 C474 1.375 . S
N476 C475 1.347 . S
C477 C480 1.365 . S
C477 N482 1.328 . S
C477 H483 0.929 . S
C478 C479 1.362 . S
C478 C481 1.378 . S
C478 H493 0.929 . S
C479 C478 1.362 . S
C479 C480 1.366 . S
C480 C477 1.365 . S
C480 C479 1.366 . S
C480 H494 0.930 . S
C481 C478 1.378 . S
C481 N482 1.315 . S
C481 H484 0.930 . S
N482 Co462 2.194 . S
N482 C477 1.328 . S
N482 C481 1.315 . S
H483 C477 0.929 . S
H484 C481 0.930 . S
H485 C473 0.929 . S
H486 C475 0.929 . S
O487 Co462 2.351 . S
O487 C490 1.244 . S
O488 Co462 2.155 . S
O488 C490 1.240 . S
O489 Co462 2.096 . S
O489 C470 1.247 . S
C490 O487 1.244 . S
C490 O488 1.240 . S
H491 C465 0.931 . S
H492 C474 0.931 1_565 S
H493 C478 0.929 . S
H494 C480 0.930 . S
Co495 N499 2.148 . S
Co495 N505 2.128 . S
Co495 N515 2.194 . S
Co495 O520 2.351 . S
Co495 O521 2.155 . S
Co495 O522 2.096 . S
C496 N499 1.301 . S
C496 N500 1.328 . S
C496 H501 0.930 . S
C497 C498 1.333 . S
C497 N499 1.317 . S
C497 H502 0.930 . S
C498 C497 1.333 . S
C498 N500 1.350 . S
C498 H524 0.931 . S
N499 Co495 2.148 . S
N499 C496 1.301 . S
N499 C497 1.317 . S
N500 C496 1.328 . S
N500 C498 1.350 . S
H501 C496 0.930 . S
H502 C497 0.930 . S
C503 O504 1.224 . S
C503 O522 1.247 . S
O504 C503 1.224 . S
N505 Co495 2.128 . S
N505 C506 1.355 . S
N505 C508 1.311 . S
C506 N505 1.355 . S
C506 C507 1.363 . S
C506 H518 0.929 . S
C507 C506 1.363 . S
C507 N509 1.375 . S
C507 H525 0.931 1_455 S
C508 N505 1.311 . S
C508 N509 1.347 . S
C508 H519 0.929 . S
N509 C507 1.375 . S
N509 C508 1.347 . S
C510 C513 1.365 . S
C510 N515 1.328 . S
C510 H516 0.929 . S
C511 C512 1.362 . S
C511 C514 1.378 . S
C511 H526 0.929 . S
C512 C511 1.362 . S
C512 C513 1.366 . S
C513 C510 1.365 . S
C513 C512 1.366 . S
C513 H527 0.930 . S
C514 C511 1.378 . S
C514 N515 1.315 . S
C514 H517 0.930 . S
N515 Co495 2.194 . S
N515 C510 1.328 . S
N515 C514 1.315 . S
H516 C510 0.929 . S
H517 C514 0.930 . S
H518 C506 0.929 . S
H519 C508 0.929 . S
O520 Co495 2.351 . S
O520 C523 1.244 . S
O521 Co495 2.155 . S
O521 C523 1.240 . S
O522 Co495 2.096 . S
O522 C503 1.247 . S
C523 O520 1.244 . S
C523 O521 1.240 . S
H524 C498 0.931 . S
H525 C507 0.931 1_655 S
H526 C511 0.929 . S
H527 C513 0.930 . S
C528 C529 1.369 . S
C528 C530 1.419 . S
C528 H532 0.930 . S
C529 C528 1.369 . S
C529 C538 1.429 . S
C530 C528 1.419 . S
C530 C531 1.363 . S
C530 H533 0.929 . S
C531 C530 1.363 . S
C531 C537 1.428 . S
H532 C528 0.930 . S
H533 C530 0.929 . S
S534 N535 1.613 . S
S534 N536 1.610 . S
N535 S534 1.613 . S
N535 C538 1.350 . S
N536 S534 1.610 . S
N536 C537 1.351 . S
C537 C531 1.428 . S
C537 N536 1.351 . S
C537 C538 1.434 . S
C538 C529 1.429 . S
C538 N535 1.350 . S
C538 C537 1.434 . S
C539 C540 1.369 . S
C539 C541 1.419 . S
C539 H543 0.930 . S
C540 C539 1.369 . S
C540 C549 1.429 . S
C541 C539 1.419 . S
C541 C542 1.363 . S
C541 H544 0.929 . S
C542 C541 1.363 . S
C542 C548 1.428 . S
H543 C539 0.930 . S
H544 C541 0.929 . S
S545 N546 1.613 . S
S545 N547 1.610 . S
N546 S545 1.613 . S
N546 C549 1.350 . S
N547 S545 1.610 . S
N547 C548 1.351 . S
C548 C542 1.428 . S
C548 N547 1.351 . S
C548 C549 1.434 . S
C549 C540 1.429 . S
C549 N546 1.350 . S
C549 C548 1.434 . S
C550 C551 1.369 . S
C550 C552 1.419 . S
C550 H554 0.930 . S
C551 C550 1.369 . S
C551 C560 1.429 . S
C552 C550 1.419 . S
C552 C553 1.363 . S
C552 H555 0.929 . S
C553 C552 1.363 . S
C553 C559 1.428 . S
H554 C550 0.930 . S
H555 C552 0.929 . S
S556 N557 1.613 . S
S556 N558 1.610 . S
N557 S556 1.613 . S
N557 C560 1.350 . S
N558 S556 1.610 . S
N558 C559 1.351 . S
C559 C553 1.428 . S
C559 N558 1.351 . S
C559 C560 1.434 . S
C560 C551 1.429 . S
C560 N557 1.350 . S
C560 C559 1.434 . S
C561 C562 1.369 . S
C561 C563 1.419 . S
C561 H565 0.930 . S
C562 C561 1.369 . S
C562 C571 1.429 . S
C563 C561 1.419 . S
C563 C564 1.363 . S
C563 H566 0.929 . S
C564 C563 1.363 . S
C564 C570 1.428 . S
H565 C561 0.930 . S
H566 C563 0.929 . S
S567 N568 1.613 . S
S567 N569 1.610 . S
N568 S567 1.613 . S
N568 C571 1.350 . S
N569 S567 1.610 . S
N569 C570 1.351 . S
C570 C564 1.428 . S
C570 N569 1.351 . S
C570 C571 1.434 . S
C571 C562 1.429 . S
C571 N568 1.350 . S
C571 C570 1.434 . S
C572 C573 1.369 . S
C572 C574 1.419 . S
C572 H576 0.930 . S
C573 C572 1.369 . S
C573 C582 1.429 . S
C574 C572 1.419 . S
C574 C575 1.363 . S
C574 H577 0.929 . S
C575 C574 1.363 . S
C575 C581 1.428 . S
H576 C572 0.930 . S
H577 C574 0.929 . S
S578 N579 1.613 . S
S578 N580 1.610 . S
N579 S578 1.613 . S
N579 C582 1.350 . S
N580 S578 1.610 . S
N580 C581 1.351 . S
C581 C575 1.428 . S
C581 N580 1.351 . S
C581 C582 1.434 . S
C582 C573 1.429 . S
C582 N579 1.350 . S
C582 C581 1.434 . S
C583 C584 1.369 . S
C583 C585 1.419 . S
C583 H587 0.930 . S
C584 C583 1.369 . S
C584 C593 1.429 . S
C585 C583 1.419 . S
C585 C586 1.363 . S
C585 H588 0.929 . S
C586 C585 1.363 . S
C586 C592 1.428 . S
H587 C583 0.930 . S
H588 C585 0.929 . S
S589 N590 1.613 . S
S589 N591 1.610 . S
N590 S589 1.613 . S
N590 C593 1.350 . S
N591 S589 1.610 . S
N591 C592 1.351 . S
C592 C586 1.428 . S
C592 N591 1.351 . S
C592 C593 1.434 . S
C593 C584 1.429 . S
C593 N590 1.350 . S
C593 C592 1.434 . S
C594 C595 1.369 . S
C594 C596 1.419 . S
C594 H598 0.930 . S
C595 C594 1.369 . S
C595 C604 1.429 . S
C596 C594 1.419 . S
C596 C597 1.363 . S
C596 H599 0.929 . S
C597 C596 1.363 . S
C597 C603 1.428 . S
H598 C594 0.930 . S
H599 C596 0.929 . S
S600 N601 1.613 . S
S600 N602 1.610 . S
N601 S600 1.613 . S
N601 C604 1.350 . S
N602 S600 1.610 . S
N602 C603 1.351 . S
C603 C597 1.428 . S
C603 N602 1.351 . S
C603 C604 1.434 . S
C604 C595 1.429 . S
C604 N601 1.350 . S
C604 C603 1.434 . S
C605 C606 1.369 . S
C605 C607 1.419 . S
C605 H609 0.930 . S
C606 C605 1.369 . S
C606 C615 1.429 . S
C607 C605 1.419 . S
C607 C608 1.363 . S
C607 H610 0.929 . S
C608 C607 1.363 . S
C608 C614 1.428 . S
H609 C605 0.930 . S
H610 C607 0.929 . S
S611 N612 1.613 . S
S611 N613 1.610 . S
N612 S611 1.613 . S
N612 C615 1.350 . S
N613 S611 1.610 . S
N613 C614 1.351 . S
C614 C608 1.428 . S
C614 N613 1.351 . S
C614 C615 1.434 . S
C615 C606 1.429 . S
C615 N612 1.350 . S
C615 C614 1.434 . S
C616 C617 1.369 . S
C616 C618 1.419 . S
C616 H620 0.930 . S
C617 C616 1.369 . S
C617 C626 1.429 . S
C618 C616 1.419 . S
C618 C619 1.363 . S
C618 H621 0.929 . S
C619 C618 1.363 . S
C619 C625 1.428 . S
H620 C616 0.930 . S
H621 C618 0.929 . S
S622 N623 1.613 . S
S622 N624 1.610 . S
N623 S622 1.613 . S
N623 C626 1.350 . S
N624 S622 1.610 . S
N624 C625 1.351 . S
C625 C619 1.428 . S
C625 N624 1.351 . S
C625 C626 1.434 . S
C626 C617 1.429 . S
C626 N623 1.350 . S
C626 C625 1.434 . S
C627 C628 1.369 . S
C627 C629 1.419 . S
C627 H631 0.930 . S
C628 C627 1.369 . S
C628 C637 1.429 . S
C629 C627 1.419 . S
C629 C630 1.363 . S
C629 H632 0.929 . S
C630 C629 1.363 . S
C630 C636 1.428 . S
H631 C627 0.930 . S
H632 C629 0.929 . S
S633 N634 1.613 1_554 S
S633 N635 1.610 1_554 S
N634 S633 1.613 1_556 S
N634 C637 1.350 . S
N635 S633 1.610 1_556 S
N635 C636 1.351 . S
C636 C630 1.428 . S
C636 N635 1.351 . S
C636 C637 1.434 . S
C637 C628 1.429 . S
C637 N634 1.350 . S
C637 C636 1.434 . S
C638 C639 1.369 . S
C638 C640 1.419 . S
C638 H642 0.930 . S
C639 C638 1.369 . S
C639 C648 1.429 . S
C640 C638 1.419 . S
C640 C641 1.363 . S
C640 H643 0.929 . S
C641 C640 1.363 . S
C641 C647 1.428 . S
H642 C638 0.930 . S
H643 C640 0.929 . S
S644 N645 1.613 . S
S644 N646 1.610 . S
N645 S644 1.613 . S
N645 C648 1.350 . S
N646 S644 1.610 . S
N646 C647 1.351 . S
C647 C641 1.428 . S
C647 N646 1.351 . S
C647 C648 1.434 . S
C648 C639 1.429 . S
C648 N645 1.350 . S
C648 C647 1.434 . S
C649 C650 1.369 . S
C649 C651 1.419 . S
C649 H653 0.930 . S
C650 C649 1.369 . S
C650 C659 1.429 . S
C651 C649 1.419 . S
C651 C652 1.363 . S
C651 H654 0.929 . S
C652 C651 1.363 . S
C652 C658 1.428 . S
H653 C649 0.930 . S
H654 C651 0.929 . S
S655 N656 1.613 . S
S655 N657 1.610 . S
N656 S655 1.613 . S
N656 C659 1.350 . S
N657 S655 1.610 . S
N657 C658 1.351 . S
C658 C652 1.428 . S
C658 N657 1.351 . S
C658 C659 1.434 . S
C659 C650 1.429 . S
C659 N656 1.350 . S
C659 C658 1.434 . S
C660 C661 1.369 . S
C660 C662 1.419 . S
C660 H664 0.930 . S
C661 C660 1.369 . S
C661 C670 1.429 . S
C662 C660 1.419 . S
C662 C663 1.363 . S
C662 H665 0.929 . S
C663 C662 1.363 . S
C663 C669 1.428 . S
H664 C660 0.930 . S
H665 C662 0.929 . S
S666 N667 1.613 . S
S666 N668 1.610 . S
N667 S666 1.613 . S
N667 C670 1.350 . S
N668 S666 1.610 . S
N668 C669 1.351 . S
C669 C663 1.428 . S
C669 N668 1.351 . S
C669 C670 1.434 . S
C670 C661 1.429 . S
C670 N667 1.350 . S
C670 C669 1.434 . S
C671 C672 1.369 . S
C671 C673 1.419 . S
C671 H675 0.930 . S
C672 C671 1.369 . S
C672 C681 1.429 . S
C673 C671 1.419 . S
C673 C674 1.363 . S
C673 H676 0.929 . S
C674 C673 1.363 . S
C674 C680 1.428 . S
H675 C671 0.930 . S
H676 C673 0.929 . S
S677 N678 1.613 . S
S677 N679 1.610 . S
N678 S677 1.613 . S
N678 C681 1.350 . S
N679 S677 1.610 . S
N679 C680 1.351 . S
C680 C674 1.428 . S
C680 N679 1.351 . S
C680 C681 1.434 . S
C681 C672 1.429 . S
C681 N678 1.350 . S
C681 C680 1.434 . S
C682 C683 1.369 . S
C682 C684 1.419 . S
C682 H686 0.930 . S
C683 C682 1.369 . S
C683 C692 1.429 . S
C684 C682 1.419 . S
C684 C685 1.363 . S
C684 H687 0.929 . S
C685 C684 1.363 . S
C685 C691 1.428 . S
H686 C682 0.930 . S
H687 C684 0.929 . S
S688 N689 1.613 . S
S688 N690 1.610 . S
N689 S688 1.613 . S
N689 C692 1.350 . S
N690 S688 1.610 . S
N690 C691 1.351 . S
C691 C685 1.428 . S
C691 N690 1.351 . S
C691 C692 1.434 . S
C692 C683 1.429 . S
C692 N689 1.350 . S
C692 C691 1.434 . S
C693 C694 1.369 . S
C693 C695 1.419 . S
C693 H697 0.930 . S
C694 C693 1.369 . S
C694 C703 1.429 . S
C695 C693 1.419 . S
C695 C696 1.363 . S
C695 H698 0.929 . S
C696 C695 1.363 . S
C696 C702 1.428 . S
H697 C693 0.930 . S
H698 C695 0.929 . S
S699 N700 1.613 . S
S699 N701 1.610 . S
N700 S699 1.613 . S
N700 C703 1.350 . S
N701 S699 1.610 . S
N701 C702 1.351 . S
C702 C696 1.428 . S
C702 N701 1.351 . S
C702 C703 1.434 . S
C703 C694 1.429 . S
C703 N700 1.350 . S
C703 C702 1.434 . S
C704 C705 1.369 . S
C704 C706 1.419 . S
C704 H708 0.930 . S
C705 C704 1.369 . S
C705 C714 1.429 . S
C706 C704 1.419 . S
C706 C707 1.363 . S
C706 H709 0.929 . S
C707 C706 1.363 . S
C707 C713 1.428 . S
H708 C704 0.930 . S
H709 C706 0.929 . S
S710 N711 1.613 . S
S710 N712 1.610 . S
N711 S710 1.613 . S
N711 C714 1.350 . S
N712 S710 1.610 . S
N712 C713 1.351 . S
C713 C707 1.428 . S
C713 N712 1.351 . S
C713 C714 1.434 . S
C714 C705 1.429 . S
C714 N711 1.350 . S
C714 C713 1.434 . S
C715 C716 1.369 . S
C715 C717 1.419 . S
C715 H719 0.930 . S
C716 C715 1.369 . S
C716 C725 1.429 . S
C717 C715 1.419 . S
C717 C718 1.363 . S
C717 H720 0.929 . S
C718 C717 1.363 . S
C718 C724 1.428 . S
H719 C715 0.930 . S
H720 C717 0.929 . S
S721 N722 1.613 . S
S721 N723 1.610 . S
N722 S721 1.613 . S
N722 C725 1.350 . S
N723 S721 1.610 . S
N723 C724 1.351 . S
C724 C718 1.428 . S
C724 N723 1.351 . S
C724 C725 1.434 . S
C725 C716 1.429 . S
C725 N722 1.350 . S
C725 C724 1.434 . S
C726 C727 1.369 . S
C726 C728 1.419 . S
C726 H730 0.930 . S
C727 C726 1.369 . S
C727 C736 1.429 . S
C728 C726 1.419 . S
C728 C729 1.363 . S
C728 H731 0.929 . S
C729 C728 1.363 . S
C729 C735 1.428 . S
H730 C726 0.930 . S
H731 C728 0.929 . S
S732 N733 1.613 . S
S732 N734 1.610 . S
N733 S732 1.613 . S
N733 C736 1.350 . S
N734 S732 1.610 . S
N734 C735 1.351 . S
C735 C729 1.428 . S
C735 N734 1.351 . S
C735 C736 1.434 . S
C736 C727 1.429 . S
C736 N733 1.350 . S
C736 C735 1.434 . S
C737 C738 1.369 . S
C737 C739 1.419 . S
C737 H741 0.930 . S
C738 C737 1.369 . S
C738 C747 1.429 . S
C739 C737 1.419 . S
C739 C740 1.363 . S
C739 H742 0.929 . S
C740 C739 1.363 . S
C740 C746 1.428 . S
H741 C737 0.930 . S
H742 C739 0.929 . S
S743 N744 1.613 . S
S743 N745 1.610 . S
N744 S743 1.613 . S
N744 C747 1.350 . S
N745 S743 1.610 . S
N745 C746 1.351 . S
C746 C740 1.428 . S
C746 N745 1.351 . S
C746 C747 1.434 . S
C747 C738 1.429 . S
C747 N744 1.350 . S
C747 C746 1.434 . S
C748 C749 1.369 . S
C748 C750 1.419 . S
C748 H752 0.930 . S
C749 C748 1.369 . S
C749 C758 1.429 . S
C750 C748 1.419 . S
C750 C751 1.363 . S
C750 H753 0.929 . S
C751 C750 1.363 . S
C751 C757 1.428 . S
H752 C748 0.930 . S
H753 C750 0.929 . S
S754 N755 1.613 . S
S754 N756 1.610 . S
N755 S754 1.613 . S
N755 C758 1.350 . S
N756 S754 1.610 . S
N756 C757 1.351 . S
C757 C751 1.428 . S
C757 N756 1.351 . S
C757 C758 1.434 . S
C758 C749 1.429 . S
C758 N755 1.350 . S
C758 C757 1.434 . S
C759 C760 1.369 . S
C759 C761 1.419 . S
C759 H763 0.930 . S
C760 C759 1.369 . S
C760 C769 1.429 . S
C761 C759 1.419 . S
C761 C762 1.363 . S
C761 H764 0.929 . S
C762 C761 1.363 . S
C762 C768 1.428 . S
H763 C759 0.930 . S
H764 C761 0.929 . S
S765 N766 1.613 . S
S765 N767 1.610 . S
N766 S765 1.613 . S
N766 C769 1.350 . S
N767 S765 1.610 . S
N767 C768 1.351 . S
C768 C762 1.428 . S
C768 N767 1.351 . S
C768 C769 1.434 . S
C769 C760 1.429 . S
C769 N766 1.350 . S
C769 C768 1.434 . S
C770 C771 1.369 . S
C770 C772 1.419 . S
C770 H774 0.930 . S
C771 C770 1.369 . S
C771 C780 1.429 . S
C772 C770 1.419 . S
C772 C773 1.363 . S
C772 H775 0.929 . S
C773 C772 1.363 . S
C773 C779 1.428 . S
H774 C770 0.930 . S
H775 C772 0.929 . S
S776 N777 1.613 . S
S776 N778 1.610 . S
N777 S776 1.613 . S
N777 C780 1.350 . S
N778 S776 1.610 . S
N778 C779 1.351 . S
C779 C773 1.428 . S
C779 N778 1.351 . S
C779 C780 1.434 . S
C780 C771 1.429 . S
C780 N777 1.350 . S
C780 C779 1.434 . S
C781 C782 1.369 . S
C781 C783 1.419 . S
C781 H785 0.930 . S
C782 C781 1.369 . S
C782 C791 1.429 . S
C783 C781 1.419 . S
C783 C784 1.363 . S
C783 H786 0.929 . S
C784 C783 1.363 . S
C784 C790 1.428 . S
H785 C781 0.930 . S
H786 C783 0.929 . S
S787 N788 1.613 . S
S787 N789 1.610 . S
N788 S787 1.613 . S
N788 C791 1.350 . S
N789 S787 1.610 . S
N789 C790 1.351 . S
C790 C784 1.428 . S
C790 N789 1.351 . S
C790 C791 1.434 . S
C791 C782 1.429 . S
C791 N788 1.350 . S
C791 C790 1.434 . S
C792 C793 1.369 . S
C792 C794 1.419 . S
C792 H796 0.930 . S
C793 C792 1.369 . S
C793 C802 1.429 . S
C794 C792 1.419 . S
C794 C795 1.363 . S
C794 H797 0.929 . S
C795 C794 1.363 . S
C795 C801 1.428 . S
H796 C792 0.930 . S
H797 C794 0.929 . S
S798 N799 1.613 . S
S798 N800 1.610 . S
N799 S798 1.613 . S
N799 C802 1.350 . S
N800 S798 1.610 . S
N800 C801 1.351 . S
C801 C795 1.428 . S
C801 N800 1.351 . S
C801 C802 1.434 . S
C802 C793 1.429 . S
C802 N799 1.350 . S
C802 C801 1.434 . S
C803 C804 1.369 . S
C803 C805 1.419 . S
C803 H807 0.930 . S
C804 C803 1.369 . S
C804 C813 1.429 . S
C805 C803 1.419 . S
C805 C806 1.363 . S
C805 H808 0.929 . S
C806 C805 1.363 . S
C806 C812 1.428 . S
H807 C803 0.930 . S
H808 C805 0.929 . S
S809 N810 1.613 . S
S809 N811 1.610 . S
N810 S809 1.613 . S
N810 C813 1.350 . S
N811 S809 1.610 . S
N811 C812 1.351 . S
C812 C806 1.428 . S
C812 N811 1.351 . S
C812 C813 1.434 . S
C813 C804 1.429 . S
C813 N810 1.350 . S
C813 C812 1.434 . S
C814 C815 1.369 . S
C814 C816 1.419 . S
C814 H818 0.930 . S
C815 C814 1.369 . S
C815 C824 1.429 . S
C816 C814 1.419 . S
C816 C817 1.363 . S
C816 H819 0.929 . S
C817 C816 1.363 . S
C817 C823 1.428 . S
H818 C814 0.930 . S
H819 C816 0.929 . S
S820 N821 1.613 . S
S820 N822 1.610 . S
N821 S820 1.613 . S
N821 C824 1.349 . S
N822 S820 1.610 . S
N822 C823 1.351 . S
C823 C817 1.428 . S
C823 N822 1.351 . S
C823 C824 1.434 . S
C824 C815 1.429 . S
C824 N821 1.349 . S
C824 C823 1.434 . S
C825 C826 1.369 . S
C825 C827 1.419 . S
C825 H829 0.930 . S
C826 C825 1.369 . S
C826 C835 1.429 . S
C827 C825 1.419 . S
C827 C828 1.363 . S
C827 H830 0.929 . S
C828 C827 1.363 . S
C828 C834 1.428 . S
H829 C825 0.930 . S
H830 C827 0.929 . S
S831 N832 1.613 . S
S831 N833 1.610 . S
N832 S831 1.613 . S
N832 C835 1.350 . S
N833 S831 1.610 . S
N833 C834 1.351 . S
C834 C828 1.428 . S
C834 N833 1.351 . S
C834 C835 1.434 . S
C835 C826 1.429 . S
C835 N832 1.350 . S
C835 C834 1.434 . S
C836 C837 1.369 1_554 S
C836 C838 1.419 . S
C836 H840 0.930 . S
C837 C836 1.369 1_556 S
C837 C846 1.429 . S
C838 C836 1.419 . S
C838 C839 1.363 . S
C838 H841 0.929 . S
C839 C838 1.363 . S
C839 C845 1.428 1_554 S
H840 C836 0.930 . S
H841 C838 0.929 . S
S842 N843 1.613 . S
S842 N844 1.610 . S
N843 S842 1.613 . S
N843 C846 1.350 . S
N844 S842 1.610 . S
N844 C845 1.351 . S
C845 C839 1.428 1_556 S
C845 N844 1.351 . S
C845 C846 1.434 . S
C846 C837 1.429 . S
C846 N843 1.350 . S
C846 C845 1.434 . S
C847 C848 1.369 1_556 S
C847 C849 1.419 . S
C847 H851 0.930 . S
C848 C847 1.369 1_554 S
C848 C857 1.429 . S
C849 C847 1.419 . S
C849 C850 1.363 . S
C849 H852 0.929 . S
C850 C849 1.363 . S
C850 C856 1.428 1_556 S
H851 C847 0.930 . S
H852 C849 0.929 . S
S853 N854 1.613 . S
S853 N855 1.610 . S
N854 S853 1.613 . S
N854 C857 1.350 . S
N855 S853 1.610 . S
N855 C856 1.351 . S
C856 C850 1.428 1_554 S
C856 N855 1.351 . S
C856 C857 1.434 . S
C857 C848 1.429 . S
C857 N854 1.350 . S
C857 C856 1.434 . S
C858 C859 1.369 1_556 S
C858 C860 1.419 . S
C858 H862 0.930 . S
C859 C858 1.369 1_554 S
C859 C868 1.429 . S
C860 C858 1.419 . S
C860 C861 1.363 . S
C860 H863 0.929 . S
C861 C860 1.363 . S
C861 C867 1.428 1_556 S
H862 C858 0.930 . S
H863 C860 0.929 . S
S864 N865 1.613 . S
S864 N866 1.610 . S
N865 S864 1.613 . S
N865 C868 1.350 . S
N866 S864 1.610 . S
N866 C867 1.351 . S
C867 C861 1.428 1_554 S
C867 N866 1.351 . S
C867 C868 1.434 . S
C868 C859 1.429 . S
C868 N865 1.350 . S
C868 C867 1.434 . S
C869 C870 1.369 . S
C869 C871 1.419 1_554 S
C869 H873 0.930 . S
C870 C869 1.369 . S
C870 C879 1.429 . S
C871 C869 1.419 1_556 S
C871 C872 1.363 . S
C871 H874 0.929 . S
C872 C871 1.363 . S
C872 C878 1.428 1_556 S
H873 C869 0.930 . S
H874 C871 0.929 . S
S875 N876 1.613 . S
S875 N877 1.610 . S
N876 S875 1.613 . S
N876 C879 1.350 . S
N877 S875 1.610 . S
N877 C878 1.351 . S
C878 C872 1.428 1_554 S
C878 N877 1.351 . S
C878 C879 1.434 . S
C879 C870 1.429 . S
C879 N876 1.350 . S
C879 C878 1.434 . S
C880 C881 1.369 . S
C880 C882 1.419 . S
C880 H884 0.930 . S
C881 C880 1.369 . S
C881 C890 1.429 . S
C882 C880 1.419 . S
C882 C883 1.363 . S
C882 H885 0.929 . S
C883 C882 1.363 . S
C883 C889 1.428 . S
H884 C880 0.930 . S
H885 C882 0.929 . S
S886 N887 1.613 . S
S886 N888 1.610 . S
N887 S886 1.613 . S
N887 C890 1.350 . S
N888 S886 1.610 . S
N888 C889 1.351 . S
C889 C883 1.428 . S
C889 N888 1.351 . S
C889 C890 1.434 . S
C890 C881 1.429 . S
C890 N887 1.350 . S
C890 C889 1.434 . S
C891 C892 1.369 . S
C891 C893 1.419 . S
C891 H895 0.930 . S
C892 C891 1.369 . S
C892 C901 1.429 . S
C893 C891 1.419 . S
C893 C894 1.363 . S
C893 H896 0.929 . S
C894 C893 1.363 . S
C894 C900 1.428 . S
H895 C891 0.930 . S
H896 C893 0.929 . S
S897 N898 1.613 . S
S897 N899 1.610 . S
N898 S897 1.613 . S
N898 C901 1.350 . S
N899 S897 1.610 . S
N899 C900 1.351 . S
C900 C894 1.428 . S
C900 N899 1.351 . S
C900 C901 1.434 . S
C901 C892 1.429 . S
C901 N898 1.350 . S
C901 C900 1.434 . S
C902 C903 1.369 . S
C902 C904 1.419 . S
C902 H906 0.930 . S
C903 C902 1.369 . S
C903 C912 1.429 . S
C904 C902 1.419 . S
C904 C905 1.363 . S
C904 H907 0.929 . S
C905 C904 1.363 . S
C905 C911 1.428 . S
H906 C902 0.930 . S
H907 C904 0.929 . S
S908 N909 1.613 . S
S908 N910 1.610 . S
N909 S908 1.613 . S
N909 C912 1.350 . S
N910 S908 1.610 . S
N910 C911 1.351 . S
C911 C905 1.428 . S
C911 N910 1.351 . S
C911 C912 1.434 . S
C912 C903 1.429 . S
C912 N909 1.350 . S
C912 C911 1.434 . S
C913 C914 1.369 . S
C913 C915 1.419 . S
C913 H917 0.930 . S
C914 C913 1.369 . S
C914 C923 1.429 . S
C915 C913 1.419 . S
C915 C916 1.363 . S
C915 H918 0.929 . S
C916 C915 1.363 . S
C916 C922 1.428 . S
H917 C913 0.930 . S
H918 C915 0.929 . S
S919 N920 1.613 . S
S919 N921 1.610 . S
N920 S919 1.613 . S
N920 C923 1.350 . S
N921 S919 1.610 . S
N921 C922 1.351 . S
C922 C916 1.428 . S
C922 N921 1.351 . S
C922 C923 1.434 . S
C923 C914 1.429 . S
C923 N920 1.350 . S
C923 C922 1.434 . S
C924 C925 1.369 . S
C924 C926 1.419 . S
C924 H928 0.930 . S
C925 C924 1.369 . S
C925 C934 1.429 . S
C926 C924 1.419 . S
C926 C927 1.363 . S
C926 H929 0.929 . S
C927 C926 1.363 . S
C927 C933 1.428 . S
H928 C924 0.930 . S
H929 C926 0.929 . S
S930 N931 1.613 . S
S930 N932 1.610 . S
N931 S930 1.613 . S
N931 C934 1.350 . S
N932 S930 1.610 . S
N932 C933 1.351 . S
C933 C927 1.428 . S
C933 N932 1.351 . S
C933 C934 1.434 . S
C934 C925 1.429 . S
C934 N931 1.350 . S
C934 C933 1.434 . S
C935 C936 1.369 . S
C935 C937 1.419 . S
C935 H939 0.930 . S
C936 C935 1.369 . S
C936 C945 1.429 . S
C937 C935 1.419 . S
C937 C938 1.363 . S
C937 H940 0.929 . S
C938 C937 1.363 . S
C938 C944 1.428 . S
H939 C935 0.930 . S
H940 C937 0.929 . S
S941 N942 1.613 . S
S941 N943 1.610 . S
N942 S941 1.613 . S
N942 C945 1.350 . S
N943 S941 1.610 . S
N943 C944 1.351 . S
C944 C938 1.428 . S
C944 N943 1.351 . S
C944 C945 1.434 . S
C945 C936 1.429 . S
C945 N942 1.350 . S
C945 C944 1.434 . S
C946 C947 1.369 . S
C946 C948 1.419 . S
C946 H950 0.930 . S
C947 C946 1.369 . S
C947 C956 1.429 . S
C948 C946 1.419 . S
C948 C949 1.363 . S
C948 H951 0.929 . S
C949 C948 1.363 . S
C949 C955 1.428 . S
H950 C946 0.930 . S
H951 C948 0.929 . S
S952 N953 1.613 . S
S952 N954 1.610 . S
N953 S952 1.613 . S
N953 C956 1.350 . S
N954 S952 1.610 . S
N954 C955 1.351 . S
C955 C949 1.428 . S
C955 N954 1.351 . S
C955 C956 1.434 . S
C956 C947 1.429 . S
C956 N953 1.350 . S
C956 C955 1.434 . S
C957 C958 1.369 . S
C957 C959 1.419 . S
C957 H961 0.930 . S
C958 C957 1.369 . S
C958 C967 1.429 . S
C959 C957 1.419 . S
C959 C960 1.363 . S
C959 H962 0.929 . S
C960 C959 1.363 . S
C960 C966 1.428 . S
H961 C957 0.930 . S
H962 C959 0.929 . S
S963 N964 1.616 . S
S963 N965 1.610 . S
N964 S963 1.616 . S
N964 C967 1.358 . S
N965 S963 1.610 . S
N965 C966 1.351 . S
C966 C960 1.428 . S
C966 N965 1.351 . S
C966 C967 1.434 . S
C967 C958 1.429 . S
C967 N964 1.358 . S
C967 C966 1.434 . S
C529 C8 1.222 . S
C531 C470 1.222 . S
C540 C503 1.221 . S
C542 C41 1.222 . S
C551 C404 1.221 . S
C553 C74 1.221 . S
C562 C107 1.221 . S
C564 C437 1.221 . S
C573 C140 1.222 . S
C575 C338 1.221 . S
C584 C371 1.221 . S
C586 C173 1.222 . S
C595 C206 1.221 . S
C597 C272 1.222 . S
C606 C305 1.222 . S
C608 C239 1.221 . S
C617 N137 1.404 . S
C619 N5 1.401 . S
C628 N38 1.403 . S
C630 N170 1.401 . S
C639 N71 1.403 . S
C641 N203 1.404 . S
C650 N104 1.404 . S
C652 N236 1.404 . S
C661 N401 1.402 . S
C663 N269 1.404 . S
C672 N434 1.401 . S
C674 N302 1.402 . S
C683 N335 1.402 . S
C685 N467 1.404 . S
C694 N368 1.404 . S
C696 N500 1.402 . S
C705 C17 1.534 . S
C707 C479 1.535 . S
C716 C512 1.538 . S
C718 C50 1.534 . S
C727 C83 1.538 . S
C729 C413 1.539 . S
C738 C446 1.540 . S
C740 C116 1.535 . S
C749 C347 1.537 . S
C751 C149 1.539 . S
C760 C380 1.539 . S
C762 C182 1.534 . S
C771 C215 1.539 . S
C773 C281 1.538 . S
C782 C248 1.533 . S
C784 C314 1.538 . S
C793 N14 1.555 1_565 S
C795 C391 1.617 . S
C804 C292 1.618 . S
C806 N47 1.555 1_655 S
C815 N80 1.547 1_545 S
C817 C325 1.620 . S
C826 C358 1.619 . S
C828 N113 1.555 1_455 S
C837 C193 1.619 . S
C839 N146 1.555 . S
C848 C226 1.620 . S
C850 N179 1.548 . S
C859 N212 1.553 . S
C861 C259 1.616 . S
C870 C160 1.619 . S
C872 N245 1.555 . S
C881 C127 1.619 . S
C883 N278 1.555 . S
C892 N311 1.546 . S
C894 C28 1.618 . S
C903 N344 1.549 . S
C905 C61 1.617 . S
C914 C94 1.619 . S
C916 N377 1.547 . S
C925 C457 1.620 . S
C927 N410 1.554 1_545 S
C936 C490 1.621 . S
C938 N443 1.552 1_455 S
C947 C523 1.616 . S
C949 N476 1.553 1_565 S
C958 N509 1.550 1_655 S
C960 C424 1.620 . S
