# Generated by pormake.
# Topology vby, (6)-cn, num edge types: 1
# Building blocks:
#     Node 0, Type 0, BuildingBlock: INOVEN_clean_sbu_0, # of connection points: 6
#     Node 1, Type 0, BuildingBlock: INOVEN_clean_sbu_0, # of connection points: 6
#     Node 2, Type 0, BuildingBlock: INOVEN_clean_sbu_0, # of connection points: 6
#     Node 3, Type 0, BuildingBlock: INOVEN_clean_sbu_0, # of connection points: 6
#     Node 4, Type 0, BuildingBlock: INOVEN_clean_sbu_0, # of connection points: 6
#     Node 5, Type 0, BuildingBlock: INOVEN_clean_sbu_0, # of connection points: 6
#     Node 6, Type 0, BuildingBlock: INOVEN_clean_sbu_0, # of connection points: 6
#     Node 7, Type 0, BuildingBlock: INOVEN_clean_sbu_0, # of connection points: 6
#     Edge 8, Type (0, 0), BuildingBlock: XIVTED_clean_linker_0, # of connection points: 2
#     Edge 9, Type (0, 0), BuildingBlock: XIVTED_clean_linker_0, # of connection points: 2
#     Edge 10, Type (0, 0), BuildingBlock: XIVTED_clean_linker_0, # of connection points: 2
#     Edge 11, Type (0, 0), BuildingBlock: XIVTED_clean_linker_0, # of connection points: 2
#     Edge 12, Type (0, 0), BuildingBlock: XIVTED_clean_linker_0, # of connection points: 2
#     Edge 13, Type (0, 0), BuildingBlock: XIVTED_clean_linker_0, # of connection points: 2
#     Edge 14, Type (0, 0), BuildingBlock: XIVTED_clean_linker_0, # of connection points: 2
#     Edge 15, Type (0, 0), BuildingBlock: XIVTED_clean_linker_0, # of connection points: 2
#     Edge 16, Type (0, 0), BuildingBlock: XIVTED_clean_linker_0, # of connection points: 2
#     Edge 17, Type (0, 0), BuildingBlock: XIVTED_clean_linker_0, # of connection points: 2
#     Edge 18, Type (0, 0), BuildingBlock: XIVTED_clean_linker_0, # of connection points: 2
#     Edge 19, Type (0, 0), BuildingBlock: XIVTED_clean_linker_0, # of connection points: 2
#     Edge 20, Type (0, 0), BuildingBlock: XIVTED_clean_linker_0, # of connection points: 2
#     Edge 21, Type (0, 0), BuildingBlock: XIVTED_clean_linker_0, # of connection points: 2
#     Edge 22, Type (0, 0), BuildingBlock: XIVTED_clean_linker_0, # of connection points: 2
#     Edge 23, Type (0, 0), BuildingBlock: XIVTED_clean_linker_0, # of connection points: 2
#     Edge 24, Type (0, 0), BuildingBlock: XIVTED_clean_linker_0, # of connection points: 2
#     Edge 25, Type (0, 0), BuildingBlock: XIVTED_clean_linker_0, # of connection points: 2
#     Edge 26, Type (0, 0), BuildingBlock: XIVTED_clean_linker_0, # of connection points: 2
#     Edge 27, Type (0, 0), BuildingBlock: XIVTED_clean_linker_0, # of connection points: 2
#     Edge 28, Type (0, 0), BuildingBlock: XIVTED_clean_linker_0, # of connection points: 2
#     Edge 29, Type (0, 0), BuildingBlock: XIVTED_clean_linker_0, # of connection points: 2
#     Edge 30, Type (0, 0), BuildingBlock: XIVTED_clean_linker_0, # of connection points: 2
#     Edge 31, Type (0, 0), BuildingBlock: XIVTED_clean_linker_0, # of connection points: 2
# Relax obj value: 0.201
# Max RMSD: 0.220
# Mean RMSD: 0.220
data_MOF--net-vby--node1-INOVEN_clean_sbu_0--edge1-XIVTED_clean_linker_0
_symmetry_space_group_name_H-M    P1
_symmetry_Int_Tables_number       1
_symmetry_cell_setting            triclinic
loop_
_symmetry_equiv_pos_as_xyz
'x, y, z'
_cell_length_a     15.733494
_cell_length_b     103.99697
_cell_length_c     29.52268
_cell_angle_alpha  89.950178
_cell_angle_beta   84.275923
_cell_angle_gamma 90.347345
loop_
_atom_site_label
_atom_site_type_symbol
_atom_site_fract_x
_atom_site_fract_y
_atom_site_fract_z
_atom_type_partial_charge
Gd0 Gd 0.07245 0.40147 0.01219 0.0
Gd1 Gd 0.0649 0.37134 0.01908 0.0
C2 C 0.89 0.3866 0.01277 0.0
C3 C 0.06008 0.42605 0.00304 0.0
C4 C 0.0515 0.44028 0.00098 0.0
C5 C 1.02231 0.44712 0.04047 0.0
C6 C 0.07641 0.44724 0.96095 0.0
C7 C 0.04349 0.46763 0.0003 0.0
C8 C 0.07228 0.46075 0.96057 0.0
C9 C 1.01862 0.46056 0.0402 0.0
C10 C 0.08457 0.39102 0.09583 0.0
C11 C 0.24919 0.38637 0.00553 0.0
C12 C 0.06502 0.34801 0.05031 0.0
C13 C 0.10444 0.33514 0.04172 0.0
C14 C 0.09496 0.32815 0.0017 0.0
C15 C 0.14687 0.32929 0.07592 0.0
C16 C 0.16645 0.30953 0.03133 0.0
C17 C 0.1776 0.3167 0.07081 0.0
C18 C 0.12572 0.31552 0.99655 0.0
C19 C 0.07994 0.37837 0.92956 0.0
O20 O 0.93616 0.39685 0.99903 0.0
O21 O 0.92516 0.37619 0.02852 0.0
O22 O 1.0221 0.41957 0.0374 0.0
O23 O 0.10288 0.41902 0.97172 0.0
O24 O 0.12971 0.40068 0.07923 0.0
O25 O 0.0348 0.38733 0.06742 0.0
O26 O 0.2054 0.37603 0.02081 0.0
O27 O 0.21112 0.39701 0.99371 0.0
O28 O 1.0114 0.35208 0.02225 0.0
O29 O 0.11341 0.35722 0.06429 0.0
O30 O 0.0792 0.36657 0.94368 0.0
O31 O 0.07654 0.38566 0.96368 0.0
H32 H 1.00379 0.44211 0.07212 0.0
H33 H 0.09952 0.44226 0.92999 0.0
H34 H 0.09118 0.46579 0.92903 0.0
H35 H 0.99793 0.46541 0.07179 0.0
H36 H 0.06222 0.33231 0.9747 0.0
H37 H 0.15488 0.3344 0.10721 0.0
H38 H 0.20988 0.31255 0.09802 0.0
H39 H 0.11514 0.31032 0.96583 0.0
Gd40 Gd 1.00411 0.65732 0.01142 0.0
Gd41 Gd 0.98888 0.62898 0.02363 0.0
C42 C 0.81573 0.64424 0.02852 0.0
C43 C 0.99858 0.68142 0.98779 0.0
C44 C 0.95011 0.69366 0.99281 0.0
C45 C 0.92354 0.69893 0.03575 0.0
C46 C 0.93892 0.70092 0.95378 0.0
C47 C 0.88086 0.71887 0.00034 0.0
C48 C 0.90468 0.71334 0.95743 0.0
C49 C 0.88919 0.71137 0.03945 0.0
C50 C 1.01314 0.64926 0.09819 0.0
C51 C 0.17788 0.64225 0.00946 0.0
C52 C 0.98867 0.60488 0.04763 0.0
C53 C 1.01714 0.59151 0.03806 0.0
C54 C 1.02384 0.58631 0.99388 0.0
C55 C 1.02599 0.58329 0.07498 0.0
C56 C 0.03994 0.56468 0.02448 0.0
C57 C 0.03713 0.57006 0.06834 0.0
C58 C 0.03566 0.57303 0.98714 0.0
C59 C 0.98948 0.63702 0.9356 0.0
O60 O 0.86177 0.65376 0.00889 0.0
O61 O 0.85358 0.63446 0.04642 0.0
O62 O 0.03471 0.67728 0.02293 0.0
O63 O 0.96886 0.67208 0.96407 0.0
O64 O 0.05792 0.65858 0.07897 0.0
O65 O 0.96125 0.64498 0.07181 0.0
O66 O 0.13114 0.63259 0.02796 0.0
O67 O 0.14104 0.65217 0.99157 0.0
O68 O 0.9356 0.60984 0.0213 0.0
O69 O 0.04225 0.61334 0.06148 0.0
O70 O 0.94382 0.6276 0.95335 0.0
O71 O 0.03667 0.64125 0.96419 0.0
H72 H 0.93175 0.69361 0.06656 0.0
H73 H 0.9592 0.69714 0.92027 0.0
H74 H 0.89784 0.71867 0.92649 0.0
H75 H 0.87227 0.71528 0.0731 0.0
H76 H 1.01658 0.59242 0.9648 0.0
H77 H 1.02053 0.58704 0.10938 0.0
H78 H 0.04159 0.56397 0.09779 0.0
H79 H 0.03727 0.56922 0.95293 0.0
Gd80 Gd 0.04943 0.65582 0.51625 0.0
Gd81 Gd 0.05845 0.62747 0.51235 0.0
C82 C 0.23688 0.64185 0.50352 0.0
C83 C 0.05932 0.68017 0.53546 0.0
C84 C 0.11035 0.69225 0.52921 0.0
C85 C 0.11715 0.69904 0.48773 0.0
C86 C 0.14326 0.69796 0.56695 0.0
C87 C 0.18365 0.71732 0.52281 0.0
C88 C 0.17966 0.7103 0.56378 0.0
C89 C 0.15351 0.7114 0.48455 0.0
C90 C 1.03223 0.64633 0.43234 0.0
C91 C 0.87429 0.6412 0.52045 0.0
C92 C 0.04739 0.60276 0.50445 0.0
C93 C 0.04037 0.58851 0.50265 0.0
C94 C 1.02315 0.58146 0.54319 0.0
C95 C 0.05478 0.58176 0.46139 0.0
C96 C 0.03545 0.56116 0.50155 0.0
C97 C 0.05221 0.56824 0.46082 0.0
C98 C 1.02097 0.56801 0.54268 0.0
C99 C 0.07092 0.63783 0.59606 0.0
O100 O 0.19278 0.65242 0.51425 0.0
O101 O 0.19825 0.63091 0.49579 0.0
O102 O 1.0235 0.67567 0.50064 0.0
O103 O 0.086 0.67108 0.56118 0.0
O104 O 0.99104 0.6561 0.45013 0.0
O105 O 0.08524 0.64228 0.45856 0.0
O106 O 0.92006 0.63159 0.50179 0.0
O107 O 0.91242 0.65105 0.53822 0.0
O108 O 1.02239 0.609 0.54171 0.0
O109 O 0.076 0.61007 0.47001 0.0
O110 O 0.11986 0.62883 0.57823 0.0
O111 O 1.0184 0.64105 0.56866 0.0
H112 H 0.09164 0.69502 0.45804 0.0
H113 H 0.13828 0.69305 0.59949 0.0
H114 H 0.20346 0.71442 0.59377 0.0
H115 H 0.15461 0.71651 0.45253 0.0
H116 H 1.01284 0.58632 0.57569 0.0
H117 H 0.06849 0.58691 0.42958 0.0
H118 H 0.06283 0.56335 0.4284 0.0
H119 H 1.00973 0.563 0.57489 0.0
Gd120 Gd 0.99914 0.39995 0.52526 0.0
Gd121 Gd 1.01428 0.37188 0.50881 0.0
C122 C 0.18771 0.38713 0.51024 0.0
C123 C 1.00029 0.42377 0.55244 0.0
C124 C 1.0241 0.43731 0.54176 0.0
C125 C 1.01982 0.44262 0.49821 0.0
C126 C 0.04053 0.44548 0.57766 0.0
C127 C 0.04031 0.46423 0.52794 0.0
C128 C 0.04847 0.45877 0.5709 0.0
C129 C 1.02834 0.45596 0.49131 0.0
C130 C 1.0008 0.39305 0.43581 0.0
C131 C 0.82586 0.38441 0.52867 0.0
C132 C 1.0075 0.34822 0.48063 0.0
C133 C 0.95904 0.33594 0.48664 0.0
C134 C 0.94022 0.33023 0.52971 0.0
C135 C 0.93907 0.32916 0.44798 0.0
C136 C 0.88774 0.31078 0.49486 0.0
C137 C 0.90373 0.31676 0.45199 0.0
C138 C 0.90494 0.3178 0.53376 0.0
C139 C 1.02663 0.37851 0.59665 0.0
O140 O 0.14045 0.39632 0.53084 0.0
O141 O 0.15124 0.37757 0.48972 0.0
O142 O 0.94024 0.41866 0.53072 0.0
O143 O 0.0598 0.41557 0.56021 0.0
O144 O 0.95566 0.40228 0.45463 0.0
O145 O 0.04701 0.38848 0.46408 0.0
O146 O 0.87189 0.37519 0.50778 0.0
O147 O 0.86369 0.39409 0.54753 0.0
O148 O 0.05043 0.35196 0.51395 0.0
O149 O 0.97274 0.35781 0.4606 0.0
O150 O 0.06762 0.36924 0.57538 0.0
O151 O 0.97387 0.38339 0.57189 0.0
H152 H 1.00664 0.43652 0.46996 0.0
H153 H 0.04369 0.44163 0.61158 0.0
H154 H 0.05909 0.46481 0.59969 0.0
H155 H 1.02147 0.45984 0.45784 0.0
H156 H 0.95514 0.33519 0.56021 0.0
H157 H 0.95314 0.33331 0.41438 0.0
H158 H 0.88988 0.3118 0.42132 0.0
H159 H 0.89426 0.31353 0.56731 0.0
Gd160 Gd 0.58159 0.9017 -0.00051 0.0
Gd161 Gd 0.56643 0.87331 0.01197 0.0
C162 C 0.39291 0.88835 0.0132 0.0
C163 C 0.58061 0.92583 0.97537 0.0
C164 C 0.55558 0.93926 0.98732 0.0
C165 C 0.57199 0.94483 0.02898 0.0
C166 C 0.52553 0.94715 0.95383 0.0
C167 C 0.53475 0.96615 0.00191 0.0
C168 C 0.51509 0.9604 0.961 0.0
C169 C 0.56161 0.95811 0.03619 0.0
C170 C 0.58048 0.89375 0.08762 0.0
C171 C 0.75473 0.88639 0.99458 0.0
C172 C 0.57151 0.84923 0.03594 0.0
C173 C 0.61981 0.83697 0.03121 0.0
C174 C 0.64692 0.83168 0.98838 0.0
C175 C 0.63028 0.82971 0.07036 0.0
C176 C 0.68883 0.81174 0.02411 0.0
C177 C 0.6644 0.81729 0.06692 0.0
C178 C 0.68114 0.81923 0.9849 0.0
C179 C 0.5566 0.88134 0.9252 0.0
O180 O 0.43984 0.89791 0.99404 0.0
O181 O 0.42965 0.87854 0.03184 0.0
O182 O 0.63958 0.9206 0.99733 0.0
O183 O 0.52242 0.91756 0.96533 0.0
O184 O 0.62503 0.90332 0.07016 0.0
O185 O 0.53413 0.88941 0.05886 0.0
O186 O 0.70876 0.87687 0.01432 0.0
O187 O 0.71682 0.89616 0.97663 0.0
O188 O 0.5358 0.85334 0.00062 0.0
O189 O 0.60113 0.85858 0.05962 0.0
O190 O 0.51213 0.87201 0.94456 0.0
O191 O 0.60887 0.88562 0.95139 0.0
H192 H 0.59549 0.93902 0.05547 0.0
H193 H 0.51351 0.94314 0.92118 0.0
H194 H 0.49521 0.96621 0.93354 0.0
H195 H 0.57595 0.9621 0.06844 0.0
H196 H 0.63926 0.83698 0.95748 0.0
H197 H 0.60955 0.83351 0.10378 0.0
H198 H 0.67072 0.81197 0.09794 0.0
H199 H 0.69851 0.8153 0.95131 0.0
Gd200 Gd 0.49098 0.15579 0.01341 0.0
Gd201 Gd 0.47566 0.12749 0.02963 0.0
C202 C 0.3024 0.14285 0.03108 0.0
C203 C 0.48422 0.17963 0.9867 0.0
C204 C 0.43708 0.19196 0.99418 0.0
C205 C 0.43957 0.19907 0.03461 0.0
C206 C 0.39675 0.19743 0.95846 0.0
C207 C 0.36616 0.21709 0.00245 0.0
C208 C 0.36157 0.2098 0.96255 0.0
C209 C 0.40452 0.21144 0.03869 0.0
C210 C 0.49844 0.1488 0.10159 0.0
C211 C 0.66358 0.14078 0.0152 0.0
C212 C 0.47807 0.10373 0.05787 0.0
C213 C 0.49966 0.09019 0.04583 0.0
C214 C 0.48076 0.08469 0.00447 0.0
C215 C 0.53052 0.08221 0.0788 0.0
C216 C 0.51812 0.06329 0.03071 0.0
C217 C 0.53973 0.06896 0.07139 0.0
C218 C 0.48997 0.07141 0.99699 0.0
C219 C 0.47748 0.13422 0.94001 0.0
O220 O 0.34904 0.15224 0.01108 0.0
O221 O 0.33929 0.1331 0.04979 0.0
O222 O 0.52983 0.1757 0.01858 0.0
O223 O 0.44715 0.17014 0.96706 0.0
O224 O 0.54191 0.1581 0.08147 0.0
O225 O 0.44772 0.14406 0.07541 0.0
O226 O 0.61594 0.13167 0.03657 0.0
O227 O 0.62755 0.15021 0.99406 0.0
O228 O 0.41452 0.10888 0.03932 0.0
O229 O 0.53981 0.11193 0.06261 0.0
O230 O 0.43731 0.12441 0.95874 0.0
O231 O 0.52236 0.13923 0.96833 0.0
H232 H 0.47081 0.19524 0.06274 0.0
H233 H 0.39437 0.19227 0.92675 0.0
H234 H 0.3314 0.21368 0.93415 0.0
H235 H 0.41038 0.21675 0.06977 0.0
H236 H 0.45666 0.0906 0.9784 0.0
H237 H 0.54455 0.08617 0.11119 0.0
H238 H 0.56055 0.06309 0.09846 0.0
H239 H 0.47404 0.06748 0.96493 0.0
Gd240 Gd 0.55265 0.15691 0.52164 0.0
Gd241 Gd 0.56093 0.1289 0.51369 0.0
C242 C 0.74007 0.14308 0.50618 0.0
C243 C 0.56338 0.18106 0.5437 0.0
C244 C 0.61277 0.19324 0.53661 0.0
C245 C 0.62836 0.199 0.4934 0.0
C246 C 0.63605 0.19998 0.5747 0.0
C247 C 0.68407 0.21839 0.52718 0.0
C248 C 0.67137 0.21237 0.57009 0.0
C249 C 0.66377 0.21141 0.48874 0.0
C250 C 0.53504 0.14853 0.43603 0.0
C251 C 0.37761 0.14253 0.52378 0.0
C252 C 0.54677 0.10432 0.50375 0.0
C253 C 0.53666 0.09015 0.50033 0.0
C254 C 0.49646 0.08317 0.53738 0.0
C255 C 0.57252 0.08334 0.46206 0.0
C256 C 0.53135 0.06284 0.49895 0.0
C257 C 0.56992 0.06984 0.46137 0.0
C258 C 0.49384 0.06973 0.53671 0.0
C259 C 0.57804 0.13775 0.5991 0.0
O260 O 0.69605 0.15356 0.51814 0.0
O261 O 0.70116 0.13223 0.4974 0.0
O262 O 0.52211 0.17685 0.5104 0.0
O263 O 0.5954 0.17178 0.5665 0.0
O264 O 0.49401 0.15809 0.45544 0.0
O265 O 0.58784 0.14413 0.46162 0.0
O266 O 0.42364 0.13336 0.50258 0.0
O267 O 0.41583 0.15196 0.54385 0.0
O268 O 0.51426 0.11053 0.53972 0.0
O269 O 0.5847 0.11161 0.47152 0.0
O270 O 0.62469 0.12896 0.57829 0.0
O271 O 0.52424 0.14174 0.57336 0.0
H272 H 0.61069 0.1941 0.46333 0.0
H273 H 0.62436 0.19582 0.60842 0.0
H274 H 0.68762 0.2173 0.60036 0.0
H275 H 0.67198 0.21573 0.45519 0.0
H276 H 0.46876 0.08808 0.56761 0.0
H277 H 0.60418 0.08843 0.43303 0.0
H278 H 0.59852 0.06489 0.43144 0.0
H279 H 0.46471 0.06473 0.56656 0.0
Gd280 Gd 0.51438 0.89961 0.51026 0.0
Gd281 Gd 0.52269 0.87132 0.50709 0.0
C282 C 0.69796 0.88583 0.50296 0.0
C283 C 0.52751 0.92431 0.51728 0.0
C284 C 0.53652 0.93852 0.51944 0.0
C285 C 0.57487 0.94536 0.48157 0.0
C286 C 0.50211 0.94548 0.55768 0.0
C287 C 0.54111 0.96583 0.51925 0.0
C288 C 0.50431 0.95898 0.55758 0.0
C289 C 0.57715 0.95881 0.48147 0.0
C290 C 0.50098 0.88929 0.42671 0.0
C291 C 0.3355 0.88536 0.51936 0.0
C292 C 0.51233 0.84691 0.48875 0.0
C293 C 0.46085 0.83488 0.49523 0.0
C294 C 0.45442 0.82809 0.53672 0.0
C295 C 0.42715 0.82919 0.45768 0.0
C296 C 0.38687 0.80985 0.50197 0.0
C297 C 0.39043 0.81688 0.46101 0.0
C298 C 0.41771 0.81576 0.54007 0.0
C299 C 0.54011 0.88103 0.59079 0.0
O300 O 0.65214 0.89541 0.52174 0.0
O301 O 0.65981 0.876 0.48507 0.0
O302 O 0.55717 0.91789 0.4812 0.0
O303 O 0.49274 0.91719 0.55088 0.0
O304 O 0.45264 0.89833 0.44467 0.0
O305 O 0.55352 0.88594 0.45399 0.0
O306 O 0.37939 0.87474 0.50916 0.0
O307 O 0.37435 0.89633 0.52652 0.0
O308 O 0.54785 0.8515 0.52353 0.0
O309 O 0.48628 0.85594 0.46259 0.0
O310 O 0.58126 0.8712 0.57331 0.0
O311 O 0.48708 0.88495 0.56445 0.0
H312 H 0.60152 0.94032 0.45139 0.0
H313 H 0.47197 0.9405 0.58736 0.0
H314 H 0.4769 0.96404 0.58753 0.0
H315 H 0.60495 0.9637 0.45109 0.0
H316 H 0.48054 0.83209 0.56627 0.0
H317 H 0.43181 0.8341 0.42513 0.0
H318 H 0.36608 0.81277 0.43114 0.0
H319 H 0.41694 0.81065 0.57206 0.0
H320 H 0.35131 0.36643 0.02744 0.0
H321 H 0.79086 0.40627 0.98475 0.0
H322 H 0.36475 0.40579 0.98057 0.0
H323 H 0.77334 0.36728 0.03522 0.0
H324 H 0.63605 0.4062 0.98117 0.0
H325 H 0.50625 0.36647 0.02818 0.0
C326 C 0.38667 0.37509 0.0171 0.0
C327 C 0.34425 0.38614 0.00396 0.0
C328 C 0.6661 0.39766 0.993 0.0
C329 C 0.52301 0.38624 0.00494 0.0
C330 C 0.75469 0.39769 0.99509 0.0
C331 C 0.79575 0.38677 0.0104 0.0
C332 C 0.61773 0.38663 0.00624 0.0
C333 C 0.74497 0.37594 0.02327 0.0
C334 C 0.47547 0.3751 0.01762 0.0
C335 C 0.39426 0.39704 0.99095 0.0
N336 N 0.65899 0.37616 0.0209 0.0
N337 N 0.48072 0.39682 0.99187 0.0
H338 H 0.2935 0.66048 0.97478 0.0
H339 H 0.70072 0.62593 0.06376 0.0
H340 H 0.27872 0.6243 0.04689 0.0
H341 H 0.71387 0.66223 0.9924 0.0
H342 H 0.54658 0.62523 0.0586 0.0
H343 H 0.44722 0.66116 0.98056 0.0
C344 C 0.32248 0.65262 0.99162 0.0
C345 C 0.27254 0.64229 0.0103 0.0
C346 C 0.58305 0.63338 0.0442 0.0
C347 C 0.4497 0.64308 0.01736 0.0
C348 C 0.67129 0.63382 0.04728 0.0
C349 C 0.72089 0.64418 0.02856 0.0
C350 C 0.54349 0.64336 0.02216 0.0
C351 C 0.67862 0.65406 0.00745 0.0
C352 C 0.41054 0.65305 0.99503 0.0
C353 C 0.31431 0.63243 0.03183 0.0
N354 N 0.59271 0.65339 0.00475 0.0
N355 N 0.40019 0.63309 0.03482 0.0
H356 H 0.76137 0.66024 0.54915 0.0
H357 H 0.34915 0.62246 0.47811 0.0
H358 H 0.7718 0.62257 0.48776 0.0
H359 H 0.34143 0.66149 0.52793 0.0
H360 H 0.50336 0.62228 0.48214 0.0
H361 H 0.60748 0.6607 0.54333 0.0
C362 C 0.73138 0.65202 0.53464 0.0
C363 C 0.77999 0.64133 0.51902 0.0
C364 C 0.46811 0.63091 0.49201 0.0
C365 C 0.60307 0.64183 0.51205 0.0
C366 C 0.37979 0.63104 0.48966 0.0
C367 C 0.33171 0.64201 0.5027 0.0
C368 C 0.50928 0.64181 0.50779 0.0
C369 C 0.37556 0.65281 0.5174 0.0
C370 C 0.64335 0.65232 0.53117 0.0
C371 C 0.7372 0.63101 0.50035 0.0
N372 N 0.4616 0.65242 0.51972 0.0
N373 N 0.65142 0.63152 0.49743 0.0
H374 H 0.72502 0.36628 0.49185 0.0
H375 H 0.2868 0.40494 0.55015 0.0
H376 H 0.70964 0.40234 0.56429 0.0
H377 H 0.30475 0.36934 0.47493 0.0
H378 H 0.44083 0.40414 0.55616 0.0
H379 H 0.57087 0.36704 0.48694 0.0
C380 C 0.68931 0.37432 0.50706 0.0
C381 C 0.73094 0.38425 0.52861 0.0
C382 C 0.41114 0.39652 0.53822 0.0
C383 C 0.5534 0.38524 0.52266 0.0
C384 C 0.32302 0.39699 0.53464 0.0
C385 C 0.28224 0.38721 0.51187 0.0
C386 C 0.45937 0.38617 0.51905 0.0
C387 C 0.333 0.37713 0.49269 0.0
C388 C 0.60106 0.37477 0.50407 0.0
C389 C 0.6807 0.39444 0.54745 0.0
N390 N 0.4185 0.37686 0.49679 0.0
N391 N 0.59494 0.39468 0.54395 0.0
H392 H 0.86987 0.90461 0.9588 0.0
H393 H 0.27705 0.87024 0.04862 0.0
H394 H 0.85661 0.86845 0.03101 0.0
H395 H 0.29228 0.90614 0.97478 0.0
H396 H 0.12328 0.86956 0.04292 0.0
H397 H 1.0241 0.90529 0.96375 0.0
C398 C 0.89929 0.89675 0.97543 0.0
C399 C 0.84963 0.88643 0.99444 0.0
C400 C 0.16007 0.87761 0.02804 0.0
C401 C 1.02715 0.88723 0.00059 0.0
C402 C 0.24816 0.87804 0.0314 0.0
C403 C 0.29826 0.88829 0.01223 0.0
C404 C 0.121 0.8875 0.00528 0.0
C405 C 0.25659 0.89806 0.99022 0.0
C406 C 0.98758 0.89718 0.97837 0.0
C407 C 0.8919 0.87658 0.01572 0.0
N408 N 0.17068 0.89742 0.98732 0.0
N409 N 0.97786 0.87724 0.0183 0.0
H410 H 0.20355 0.16112 0.99456 0.0
H411 H 0.76117 0.12293 0.05487 0.0
H412 H 0.18447 0.12488 0.06631 0.0
H413 H 0.7821 0.15856 0.97942 0.0
H414 H 0.91541 0.12355 0.05997 0.0
H415 H 0.04916 0.16057 0.99023 0.0
C416 C 0.16699 0.15307 0.0097 0.0
C417 C 0.2076 0.14304 0.03091 0.0
C418 C 0.88636 0.13122 0.0422 0.0
C419 C 1.02983 0.1423 0.02571 0.0
C420 C 0.79809 0.13086 0.03915 0.0
C421 C 0.7581 0.1407 0.01658 0.0
C422 C 0.93558 0.14151 0.02267 0.0
C423 C 0.80977 0.15074 0.99706 0.0
C424 C 0.07862 0.15275 0.00705 0.0
C425 C 0.15632 0.13286 0.0497 0.0
N426 N 0.89547 0.15089 0.00064 0.0
N427 N 0.07045 0.13274 0.04659 0.0
H428 H 0.26357 0.16121 0.55513 0.0
H429 H 0.85312 0.12389 0.4791 0.0
H430 H 0.27619 0.12429 0.48824 0.0
H431 H 0.84397 0.16255 0.53229 0.0
H432 H 1.00744 0.12375 0.48326 0.0
H433 H 0.10957 0.16164 0.54911 0.0
C434 C 0.23404 0.15315 0.53938 0.0
C435 C 0.28328 0.14268 0.52226 0.0
C436 C 0.97183 0.1323 0.49384 0.0
C437 C 0.10635 0.14315 0.51506 0.0
C438 C 0.88346 0.13239 0.4914 0.0
C439 C 0.83496 0.14325 0.50535 0.0
C440 C 1.01256 0.1431 0.51065 0.0
C441 C 0.87841 0.15397 0.52103 0.0
C442 C 0.14599 0.15344 0.53578 0.0
C443 C 0.24111 0.13257 0.50199 0.0
N444 N 0.96443 0.1536 0.52345 0.0
N445 N 0.15535 0.13305 0.49902 0.0
H446 H 0.81095 0.86675 0.47468 0.0
H447 H 0.22334 0.90483 0.54402 0.0
H448 H 0.8003 0.90452 0.53539 0.0
H449 H 0.23084 0.86563 0.49593 0.0
H450 H 0.06903 0.90496 0.54024 0.0
H451 H 0.96488 0.86635 0.48043 0.0
C452 C 0.8409 0.875 0.48903 0.0
C453 C 0.79223 0.88571 0.50448 0.0
C454 C 0.10426 0.8963 0.5307 0.0
C455 C 0.96919 0.88527 0.51135 0.0
C456 C 0.19263 0.89621 0.53291 0.0
C457 C 0.24066 0.8852 0.52027 0.0
C458 C 0.06302 0.88534 0.51547 0.0
C459 C 0.19675 0.87433 0.50613 0.0
C460 C 0.92895 0.87474 0.49246 0.0
C461 C 0.83495 0.89606 0.52296 0.0
N462 N 0.11067 0.8747 0.50392 0.0
N463 N 0.92076 0.89559 0.52582 0.0
H464 H 0.13494 0.55027 0.95921 0.0
H465 H 0.9246 0.4832 0.04749 0.0
H466 H 0.94783 0.54648 0.07565 0.0
H467 H 0.15388 0.48519 0.95423 0.0
H468 H 0.92434 0.50658 0.0521 0.0
H469 H 0.13491 0.52673 0.95084 0.0
C470 C 0.09376 0.54451 0.98294 0.0
C471 C 0.04181 0.5504 0.01843 0.0
C472 C 0.97479 0.50192 0.03059 0.0
C473 C 0.04104 0.52346 0.00884 0.0
C474 C 0.97532 0.48851 0.02807 0.0
C475 C 0.04001 0.48205 0.00083 0.0
C476 C 0.03895 0.50912 0.00541 0.0
C477 C 0.10228 0.48964 0.97548 0.0
C478 C 0.09405 0.53107 0.97825 0.0
C479 C 0.99002 0.5424 0.04824 0.0
N480 N 0.10031 0.50274 0.97846 0.0
N481 N 0.99079 0.52942 0.04269 0.0
H482 H 0.95707 0.48179 0.58492 0.0
H483 H 0.13646 0.5443 0.44763 0.0
H484 H 0.11873 0.47929 0.45839 0.0
H485 H 0.93086 0.54492 0.55599 0.0
H486 H 0.13645 0.52075 0.45177 0.0
H487 H 0.95435 0.50511 0.57662 0.0
C488 C 0.9926 0.48616 0.55547 0.0
C489 C 0.03878 0.47852 0.52249 0.0
C490 C 0.09123 0.52607 0.47451 0.0
C491 C 0.03532 0.50541 0.51251 0.0
C492 C 0.09078 0.53954 0.47202 0.0
C493 C 0.03398 0.54674 0.50174 0.0
C494 C 0.03486 0.51969 0.50713 0.0
C495 C 0.97722 0.53991 0.533 0.0
C496 C 0.99045 0.4995 0.55057 0.0
C497 C 0.08207 0.48477 0.48459 0.0
N498 N 0.97949 0.52685 0.53499 0.0
N499 N 0.07974 0.49784 0.48077 0.0
H500 H 0.64445 0.98194 0.04383 0.0
H501 H 0.40722 0.04753 0.98932 0.0
H502 H 0.41787 0.98327 0.97277 0.0
H503 H 0.63616 0.04614 0.05843 0.0
H504 H 0.41068 0.02411 0.98239 0.0
H505 H 0.64099 1.00535 0.05046 0.0
C506 C 0.59335 0.9871 0.02998 0.0
C507 C 0.53123 0.98048 0.00774 0.0
C508 C 0.46028 0.02893 0.99901 0.0
C509 C 0.52783 1.00754 0.01462 0.0
C510 C 0.45881 0.04236 0.00268 0.0
C511 C 0.52154 0.04896 0.02452 0.0
C512 C 0.52493 0.02191 0.0173 0.0
C513 C 0.58566 0.04156 0.04186 0.0
C514 C 0.5919 1.00053 0.03346 0.0
C515 C 0.4678 0.98787 0.98973 0.0
N516 N 0.58561 0.0285 0.03791 0.0
N517 N 0.46777 1.00094 0.99357 0.0
H518 H 0.66072 0.0466 0.46599 0.0
H519 H 0.41239 0.98211 0.5526 0.0
H520 H 0.40499 0.04615 0.53425 0.0
H521 H 0.66634 0.98246 0.48218 0.0
H522 H 0.40948 1.00555 0.54724 0.0
H523 H 0.66351 0.02315 0.47093 0.0
C524 C 0.60476 0.0416 0.48163 0.0
C525 C 0.53252 0.04846 0.49976 0.0
C526 C 0.46591 1.00051 0.53298 0.0
C527 C 0.53591 0.02147 0.50622 0.0
C528 C 0.46793 0.98709 0.53637 0.0
C529 C 0.53974 0.98021 0.51782 0.0
C530 C 0.53623 1.00718 0.51091 0.0
C531 C 0.60907 0.98728 0.49646 0.0
C532 C 0.6067 0.02817 0.48477 0.0
C533 C 0.46264 0.04135 0.52035 0.0
N534 N 0.60555 1.00033 0.4936 0.0
N535 N 0.46615 0.0283 0.52306 0.0
H536 H 0.15893 0.29087 0.09794 0.0
H537 H 0.3739 0.23568 0.93535 0.0
H538 H 0.23878 0.29665 0.95521 0.0
H539 H 0.28546 0.22971 0.07699 0.0
H540 H 0.32416 0.25788 0.9417 0.0
H541 H 0.20604 0.26857 0.09087 0.0
C542 C 0.18693 0.28752 0.06512 0.0
C543 C 0.19506 0.2958 0.02718 0.0
C544 C 0.31546 0.25171 0.97139 0.0
C545 C 0.24845 0.26999 0.01871 0.0
C546 C 0.34335 0.23895 0.96774 0.0
C547 C 0.334 0.23067 0.00566 0.0
C548 C 0.27779 0.25636 0.01332 0.0
C549 C 0.29532 0.23569 0.04689 0.0
C550 C 0.21332 0.2747 0.06105 0.0
C551 C 0.23029 0.29068 0.98538 0.0
N552 N 0.26884 0.24815 0.04958 0.0
N553 N 0.25574 0.27816 0.98232 0.0
H554 H 0.81518 0.80132 0.96359 0.0
H555 H 0.75511 0.72928 0.06128 0.0
H556 H 0.63121 0.7908 0.07599 0.0
H557 H 0.93812 0.73981 0.94846 0.0
H558 H 0.70959 0.75173 0.06752 0.0
H559 H 0.86073 0.77888 0.95747 0.0
C560 C 0.78404 0.79432 0.98693 0.0
C561 C 0.71912 0.79808 0.02044 0.0
C562 C 0.75963 0.74913 0.04134 0.0
C563 C 0.77179 0.77221 0.01377 0.0
C564 C 0.78604 0.73628 0.03787 0.0
C565 C 0.85064 0.73253 0.00418 0.0
C566 C 0.79806 0.7584 0.01102 0.0
C567 C 0.88721 0.74212 0.97452 0.0
C568 C 0.81047 0.78148 0.98354 0.0
C569 C 0.68234 0.78849 0.05005 0.0
N570 N 0.86058 0.75454 0.97867 0.0
N571 N 0.70901 0.77606 0.04598 0.0
H572 H 0.15786 0.73623 0.58784 0.0
H573 H 0.412 0.79096 0.4369 0.0
H574 H 0.28058 0.7297 0.45252 0.0
H575 H 0.29048 0.79748 0.57247 0.0
H576 H 0.36312 0.76863 0.44174 0.0
H577 H 0.20668 0.75857 0.58306 0.0
C578 C 0.19578 0.73942 0.55723 0.0
C579 C 0.21522 0.73095 0.52059 0.0
C580 C 0.34696 0.77494 0.47043 0.0
C581 C 0.2704 0.75676 0.51463 0.0
C582 C 0.37431 0.78777 0.46758 0.0
C583 C 0.35522 0.79623 0.50427 0.0
C584 C 0.29997 0.77043 0.5103 0.0
C585 C 0.30766 0.79134 0.54346 0.0
C586 C 0.2231 0.75225 0.55441 0.0
C587 C 0.2631 0.73584 0.48149 0.0
N588 N 0.28173 0.77881 0.54541 0.0
N589 N 0.28896 0.74838 0.47958 0.0
H590 H 0.93218 0.29043 0.43788 0.0
H591 H 0.6417 0.23866 0.58467 0.0
H592 H 0.77298 0.29979 0.5609 0.0
H593 H 0.79555 0.22945 0.45977 0.0
H594 H 0.6906 0.26095 0.57702 0.0
H595 H 0.88281 0.26816 0.44522 0.0
C596 C 0.88622 0.28787 0.46626 0.0
C597 C 0.85663 0.29713 0.49871 0.0
C598 C 0.71381 0.25407 0.55128 0.0
C599 C 0.80063 0.27139 0.50772 0.0
C600 C 0.68639 0.24127 0.55579 0.0
C601 C 0.71471 0.23204 0.52295 0.0
C602 C 0.77025 0.25779 0.51361 0.0
C603 C 0.77121 0.23618 0.48577 0.0
C604 C 0.85851 0.27508 0.47059 0.0
C605 C 0.79848 0.29304 0.53526 0.0
N606 N 0.79711 0.2487 0.48219 0.0
N607 N 0.77249 0.28052 0.53872 0.0
H608 H 0.93765 0.38368 0.14762 0.0
H609 H 0.14017 0.383 0.38516 0.0
H610 H 0.20293 0.39283 0.15679 0.0
H611 H 0.8876 0.39766 0.37343 0.0
H612 H 0.16089 0.38057 0.30188 0.0
H613 H 0.91536 0.38263 0.23133 0.0
C614 C 0.9915 0.3852 0.16721 0.0
C615 C 0.07226 0.38838 0.14538 0.0
C616 C 0.10075 0.38422 0.31769 0.0
C617 C 0.0474 0.38706 0.24068 0.0
C618 C 0.08878 0.38557 0.3651 0.0
C619 C 1.01228 0.39064 0.38608 0.0
C620 C 0.03491 0.38762 0.29124 0.0
C621 C 0.94778 0.39382 0.35849 0.0
C622 C 0.97859 0.3847 0.21486 0.0
C623 C 0.13967 0.39039 0.17239 0.0
N624 N 0.96034 0.39221 0.31251 0.0
N625 N 0.12587 0.38966 0.21861 0.0
H626 H 0.1511 0.651 0.14586 0.0
H627 H 0.89283 0.64633 0.38589 0.0
H628 H 0.88721 0.63896 0.1595 0.0
H629 H 0.163 0.63872 0.36902 0.0
H630 H 0.88804 0.64395 0.30365 0.0
H631 H 0.15748 0.64699 0.22719 0.0
C632 C 0.09464 0.64739 0.16602 0.0
C633 C 1.01831 0.64539 0.1461 0.0
C634 C 0.94813 0.64257 0.31792 0.0
C635 C 1.02476 0.641 0.23939 0.0
C636 C 0.95096 0.64395 0.3648 0.0
C637 C 1.02846 0.64274 0.38412 0.0
C638 C 1.02389 0.64035 0.28985 0.0
C639 C 0.10194 0.63967 0.35541 0.0
C640 C 0.09849 0.64504 0.21236 0.0
C641 C 0.94723 0.64063 0.17361 0.0
N642 N 0.09823 0.63884 0.30951 0.0
N643 N 0.95166 0.63883 0.21911 0.0
H644 H 0.13258 0.64622 0.88475 0.0
H645 H 0.92695 0.64579 0.64803 0.0
H646 H 0.87421 0.63346 0.8739 0.0
H647 H 0.18988 0.6355 0.65671 0.0
H648 H 0.90652 0.64741 0.7315 0.0
H649 H 0.15401 0.64833 0.80127 0.0
C650 C 0.0801 0.64405 0.86484 0.0
C651 C 1.00167 0.63958 0.88606 0.0
C652 C 0.96886 0.64495 0.71498 0.0
C653 C 1.02522 0.64218 0.79117 0.0
C654 C 0.98069 0.64409 0.66746 0.0
C655 C 0.06011 0.64042 0.64558 0.0
C656 C 0.03745 0.64243 0.74065 0.0
C657 C 0.12753 0.63827 0.67238 0.0
C658 C 0.09248 0.64519 0.81735 0.0
C659 C 0.93581 0.63684 0.85873 0.0
N660 N 0.11478 0.63933 0.71853 0.0
N661 N 0.9489 0.63823 0.81271 0.0
H662 H 0.1632 0.37251 0.63989 0.0
H663 H 0.99221 0.39758 0.88898 0.0
H664 H 0.9213 0.39193 0.66233 0.0
H665 H 0.16997 0.36664 0.85949 0.0
H666 H 0.98118 0.40004 0.80622 0.0
H667 H 0.18352 0.37517 0.7197 0.0
C668 C 0.11419 0.37741 0.6617 0.0
C669 C 0.03965 0.38178 0.64448 0.0
C670 C 1.02344 0.39287 0.81804 0.0
C671 C 0.06254 0.38482 0.73701 0.0
C672 C 1.03047 0.39156 0.86506 0.0
C673 C 0.0826 0.38194 0.88088 0.0
C674 C 0.07027 0.38466 0.78704 0.0
C675 C 0.12934 0.3742 0.84873 0.0
C676 C 0.12593 0.37892 0.70745 0.0
C677 C 0.97937 0.3883 0.67436 0.0
N678 N 0.12218 0.37574 0.80363 0.0
N679 N 0.9916 0.3895 0.7195 0.0
H680 H 0.44115 0.88311 0.13745 0.0
H681 H 0.6473 0.88266 0.37391 0.0
H682 H 0.69462 0.89781 0.14977 0.0
H683 H 0.38127 0.89123 0.36656 0.0
H684 H 0.66814 0.88203 0.29023 0.0
H685 H 0.42113 0.88003 0.22052 0.0
C686 C 0.49289 0.88554 0.15759 0.0
C687 C 0.56943 0.89082 0.13692 0.0
C688 C 0.60507 0.88389 0.30708 0.0
C689 C 0.54759 0.88708 0.23135 0.0
C690 C 0.59301 0.88416 0.3547 0.0
C691 C 0.51249 0.88707 0.37701 0.0
C692 C 0.53569 0.88621 0.28178 0.0
C693 C 0.44441 0.88902 0.35054 0.0
C694 C 0.48131 0.88382 0.20485 0.0
C695 C 0.63441 0.89381 0.16452 0.0
N696 N 0.45743 0.88854 0.30429 0.0
N697 N 0.6222 0.89186 0.21032 0.0
H698 H 0.3711 0.13956 0.16442 0.0
H699 H 0.6619 0.13957 0.37293 0.0
H700 H 0.63652 0.1508 0.14908 0.0
H701 H 0.39639 0.15026 0.38891 0.0
H702 H 0.6531 0.13714 0.29038 0.0
H703 H 0.37952 0.13696 0.24698 0.0
C704 C 0.43135 0.14125 0.17831 0.0
C705 C 0.50301 0.14552 0.15013 0.0
C706 C 0.5966 0.13983 0.3122 0.0
C707 C 0.51352 0.14236 0.2438 0.0
C708 C 0.60151 0.14116 0.35919 0.0
C709 C 0.52994 0.14523 0.38755 0.0
C710 C 0.51906 0.14228 0.29384 0.0
C711 C 0.45323 0.14722 0.36803 0.0
C712 C 0.43606 0.13983 0.22529 0.0
C713 C 0.57958 0.14762 0.16981 0.0
N714 N 0.44972 0.14573 0.32246 0.0
N715 N 0.58292 0.14602 0.21534 0.0
H716 H 0.52936 0.15604 0.89148 0.0
H717 H 0.6343 0.12066 0.6587 0.0
H718 H 0.45887 0.11632 0.87471 0.0
H719 H 0.49759 0.15642 0.65459 0.0
H720 H 0.60932 0.12076 0.74163 0.0
H721 H 0.55325 0.15819 0.80765 0.0
C722 C 0.51899 0.1478 0.87022 0.0
C723 C 0.49206 0.13598 0.88998 0.0
C724 C 0.58537 0.12863 0.72256 0.0
C725 C 0.52103 0.13831 0.79505 0.0
C726 C 0.59975 0.12863 0.67523 0.0
C727 C 0.5674 0.13852 0.64957 0.0
C728 C 0.54027 0.13874 0.74485 0.0
C729 C 0.52307 0.14858 0.67312 0.0
C730 C 0.53218 0.14907 0.82263 0.0
C731 C 0.47939 0.12561 0.86097 0.0
N732 N 0.51107 0.14849 0.71965 0.0
N733 N 0.49519 0.12696 0.81511 0.0
H734 H 0.6788 0.88049 0.63783 0.0
H735 H 0.41844 0.88 0.8777 0.0
H736 H 0.41117 0.88992 0.65277 0.0
H737 H 0.68521 0.89046 0.86292 0.0
H738 H 0.41351 0.88316 0.7958 0.0
H739 H 0.68371 0.88372 0.71969 0.0
C740 C 0.62127 0.88342 0.6584 0.0
C741 C 0.54438 0.8849 0.63869 0.0
C742 C 0.47284 0.88496 0.81049 0.0
C743 C 0.54906 0.88831 0.73253 0.0
C744 C 0.47583 0.88311 0.85716 0.0
C745 C 0.55249 0.8849 0.87694 0.0
C746 C 0.54772 0.88828 0.78303 0.0
C747 C 0.62487 0.88898 0.84892 0.0
C748 C 0.62421 0.8853 0.70504 0.0
C749 C 0.47172 0.88872 0.6667 0.0
N750 N 0.62118 0.89029 0.80316 0.0
N751 N 0.47538 0.89004 0.71245 0.0
loop_
_geom_bond_atom_site_label_1
_geom_bond_atom_site_label_2
_geom_bond_distance
_geom_bond_site_symmetry_2
_ccdc_geom_bond_type
Gd0 C3 2.818 1_455 S
Gd0 O20 2.377 1_455 S
Gd0 O22 2.448 . S
Gd0 O23 2.506 1_554 S
Gd0 O24 2.435 . S
Gd0 O25 2.717 . S
Gd0 O27 2.395 . S
Gd0 O31 2.327 1_554 S
Gd1 C12 2.818 . S
Gd1 O21 2.395 1_455 S
Gd1 O25 2.327 . S
Gd1 O26 2.377 1_554 S
Gd1 O28 2.448 1_554 S
Gd1 O29 2.506 . S
Gd1 O30 2.435 1_554 S
Gd1 O31 2.717 1_554 S
C2 O20 1.240 . S
C2 O21 1.240 . S
C3 Gd0 2.818 1_655 S
C3 C4 1.510 . S
C3 O22 1.249 1_655 S
C3 O23 1.252 1_654 S
C4 C3 1.510 . S
C4 C5 1.404 . S
C4 C6 1.352 1_554 S
C5 C4 1.404 . S
C5 C9 1.389 . S
C5 H32 0.930 . S
C6 C4 1.352 1_556 S
C6 C8 1.374 . S
C6 H33 0.931 . S
C7 C8 1.359 . S
C7 C9 1.364 1_556 S
C8 C6 1.374 . S
C8 C7 1.359 . S
C8 H34 0.931 . S
C9 C5 1.389 . S
C9 C7 1.364 1_554 S
C9 H35 0.931 . S
C10 O24 1.256 . S
C10 O25 1.257 . S
C11 O26 1.240 1_554 S
C11 O27 1.240 . S
C12 Gd1 2.818 . S
C12 C13 1.510 . S
C12 O28 1.249 1_554 S
C12 O29 1.252 . S
C13 C12 1.510 . S
C13 C14 1.404 1_554 S
C13 C15 1.352 . S
C14 C13 1.404 1_556 S
C14 C18 1.389 . S
C14 H36 0.930 . S
C15 C13 1.352 . S
C15 C17 1.374 . S
C15 H37 0.931 . S
C16 C17 1.359 . S
C16 C18 1.364 1_554 S
C17 C15 1.374 . S
C17 C16 1.359 . S
C17 H38 0.931 . S
C18 C14 1.389 . S
C18 C16 1.364 1_556 S
C18 H39 0.931 . S
C19 O30 1.256 . S
C19 O31 1.257 . S
O20 Gd0 2.377 1_655 S
O20 C2 1.240 . S
O21 Gd1 2.395 1_655 S
O21 C2 1.240 . S
O22 Gd0 2.448 . S
O22 C3 1.249 1_455 S
O23 Gd0 2.506 1_556 S
O23 C3 1.252 1_456 S
O24 Gd0 2.435 . S
O24 C10 1.256 . S
O25 Gd0 2.717 . S
O25 Gd1 2.327 . S
O25 C10 1.257 . S
O26 Gd1 2.377 1_556 S
O26 C11 1.240 1_556 S
O27 Gd0 2.395 . S
O27 C11 1.240 . S
O28 Gd1 2.448 1_556 S
O28 C12 1.249 1_556 S
O29 Gd1 2.506 . S
O29 C12 1.252 . S
O30 Gd1 2.435 1_556 S
O30 C19 1.256 . S
O31 Gd0 2.327 1_556 S
O31 Gd1 2.717 1_556 S
O31 C19 1.257 . S
H32 C5 0.930 . S
H33 C6 0.931 . S
H34 C8 0.931 . S
H35 C9 0.931 . S
H36 C14 0.930 . S
H37 C15 0.931 . S
H38 C17 0.931 . S
H39 C18 0.931 . S
Gd40 C43 2.818 . S
Gd40 O60 2.377 . S
Gd40 O62 2.448 . S
Gd40 O63 2.506 1_554 S
Gd40 O64 2.435 . S
Gd40 O65 2.717 . S
Gd40 O67 2.395 1_655 S
Gd40 O71 2.327 1_554 S
Gd41 C52 2.818 . S
Gd41 O61 2.395 . S
Gd41 O65 2.327 . S
Gd41 O66 2.377 1_654 S
Gd41 O68 2.448 1_554 S
Gd41 O69 2.506 . S
Gd41 O70 2.435 1_554 S
Gd41 O71 2.717 1_554 S
C42 O60 1.240 . S
C42 O61 1.240 . S
C43 Gd40 2.818 . S
C43 C44 1.510 . S
C43 O62 1.249 . S
C43 O63 1.252 1_554 S
C44 C43 1.510 . S
C44 C45 1.404 . S
C44 C46 1.352 1_554 S
C45 C44 1.404 . S
C45 C49 1.389 . S
C45 H72 0.930 . S
C46 C44 1.352 1_556 S
C46 C48 1.374 . S
C46 H73 0.931 . S
C47 C48 1.359 1_554 S
C47 C49 1.364 . S
C48 C46 1.374 . S
C48 C47 1.359 1_556 S
C48 H74 0.931 . S
C49 C45 1.389 . S
C49 C47 1.364 . S
C49 H75 0.931 . S
C50 O64 1.256 . S
C50 O65 1.257 . S
C51 O66 1.240 1_554 S
C51 O67 1.240 . S
C52 Gd41 2.818 . S
C52 C53 1.511 1_655 S
C52 O68 1.249 1_554 S
C52 O69 1.252 . S
C53 C52 1.511 1_455 S
C53 C54 1.404 1_554 S
C53 C55 1.352 . S
C54 C53 1.404 1_556 S
C54 C58 1.389 . S
C54 H76 0.930 . S
C55 C53 1.352 . S
C55 C57 1.374 . S
C55 H77 0.931 . S
C56 C57 1.359 . S
C56 C58 1.364 1_554 S
C57 C55 1.374 . S
C57 C56 1.359 . S
C57 H78 0.931 . S
C58 C54 1.389 . S
C58 C56 1.364 1_556 S
C58 H79 0.931 . S
C59 O70 1.256 . S
C59 O71 1.257 . S
O60 Gd40 2.377 . S
O60 C42 1.240 . S
O61 Gd41 2.395 . S
O61 C42 1.240 . S
O62 Gd40 2.448 . S
O62 C43 1.249 . S
O63 Gd40 2.506 1_556 S
O63 C43 1.252 1_556 S
O64 Gd40 2.435 . S
O64 C50 1.256 . S
O65 Gd40 2.717 . S
O65 Gd41 2.327 . S
O65 C50 1.257 . S
O66 Gd41 2.377 1_456 S
O66 C51 1.240 1_556 S
O67 Gd40 2.395 1_455 S
O67 C51 1.240 . S
O68 Gd41 2.448 1_556 S
O68 C52 1.249 1_556 S
O69 Gd41 2.506 . S
O69 C52 1.252 . S
O70 Gd41 2.435 1_556 S
O70 C59 1.256 . S
O71 Gd40 2.327 1_556 S
O71 Gd41 2.717 1_556 S
O71 C59 1.257 . S
H72 C45 0.930 . S
H73 C46 0.931 . S
H74 C48 0.931 . S
H75 C49 0.931 . S
H76 C54 0.930 . S
H77 C55 0.931 . S
H78 C57 0.931 . S
H79 C58 0.931 . S
Gd80 C83 2.818 . S
Gd80 O100 2.377 . S
Gd80 O102 2.448 . S
Gd80 O103 2.506 . S
Gd80 O104 2.435 . S
Gd80 O105 2.717 . S
Gd80 O107 2.395 1_455 S
Gd80 O111 2.327 . S
Gd81 C92 2.818 . S
Gd81 O101 2.395 . S
Gd81 O105 2.327 . S
Gd81 O106 2.377 1_455 S
Gd81 O108 2.448 . S
Gd81 O109 2.506 . S
Gd81 O110 2.435 . S
Gd81 O111 2.717 . S
C82 O100 1.240 . S
C82 O101 1.240 . S
C83 Gd80 2.818 . S
C83 C84 1.510 . S
C83 O102 1.249 . S
C83 O103 1.252 . S
C84 C83 1.510 . S
C84 C85 1.404 . S
C84 C86 1.352 . S
C85 C84 1.404 . S
C85 C89 1.389 . S
C85 H112 0.930 . S
C86 C84 1.352 . S
C86 C88 1.374 . S
C86 H113 0.931 . S
C87 C88 1.359 . S
C87 C89 1.364 . S
C88 C86 1.374 . S
C88 C87 1.359 . S
C88 H114 0.931 . S
C89 C85 1.389 . S
C89 C87 1.364 . S
C89 H115 0.931 . S
C90 O104 1.256 . S
C90 O105 1.257 . S
C91 O106 1.240 . S
C91 O107 1.240 . S
C92 Gd81 2.818 . S
C92 C93 1.510 1_455 S
C92 O108 1.249 . S
C92 O109 1.252 . S
C93 C92 1.510 1_655 S
C93 C94 1.404 . S
C93 C95 1.352 . S
C94 C93 1.404 . S
C94 C98 1.389 . S
C94 H116 0.930 . S
C95 C93 1.352 . S
C95 C97 1.374 . S
C95 H117 0.931 . S
C96 C97 1.359 . S
C96 C98 1.364 . S
C97 C95 1.374 . S
C97 C96 1.359 . S
C97 H118 0.931 . S
C98 C94 1.389 . S
C98 C96 1.364 . S
C98 H119 0.931 . S
C99 O110 1.256 . S
C99 O111 1.257 . S
O100 Gd80 2.377 . S
O100 C82 1.240 . S
O101 Gd81 2.395 . S
O101 C82 1.240 . S
O102 Gd80 2.448 . S
O102 C83 1.249 . S
O103 Gd80 2.506 . S
O103 C83 1.252 . S
O104 Gd80 2.435 . S
O104 C90 1.256 . S
O105 Gd80 2.717 . S
O105 Gd81 2.327 . S
O105 C90 1.257 . S
O106 Gd81 2.377 1_655 S
O106 C91 1.240 . S
O107 Gd80 2.395 1_655 S
O107 C91 1.240 . S
O108 Gd81 2.448 . S
O108 C92 1.249 . S
O109 Gd81 2.506 . S
O109 C92 1.252 . S
O110 Gd81 2.435 . S
O110 C99 1.256 . S
O111 Gd80 2.327 . S
O111 Gd81 2.717 . S
O111 C99 1.257 . S
H112 C85 0.930 . S
H113 C86 0.931 . S
H114 C88 0.931 . S
H115 C89 0.931 . S
H116 C94 0.930 . S
H117 C95 0.931 . S
H118 C97 0.931 . S
H119 C98 0.931 . S
Gd120 C123 2.820 . S
Gd120 O140 2.377 1_655 S
Gd120 O142 2.448 . S
Gd120 O143 2.506 . S
Gd120 O144 2.435 . S
Gd120 O145 2.717 . S
Gd120 O147 2.395 . S
Gd120 O151 2.327 . S
Gd121 C132 2.818 . S
Gd121 O141 2.395 1_655 S
Gd121 O145 2.327 . S
Gd121 O146 2.377 . S
Gd121 O148 2.448 . S
Gd121 O149 2.506 . S
Gd121 O150 2.435 . S
Gd121 O151 2.717 . S
C122 O140 1.240 . S
C122 O141 1.240 . S
C123 Gd120 2.820 . S
C123 C124 1.508 1_655 S
C123 O142 1.251 . S
C123 O143 1.252 . S
C124 C123 1.508 1_455 S
C124 C125 1.404 . S
C124 C126 1.352 . S
C125 C124 1.404 . S
C125 C129 1.389 . S
C125 H152 0.930 . S
C126 C124 1.352 . S
C126 C128 1.374 . S
C126 H153 0.931 . S
C127 C128 1.359 . S
C127 C129 1.364 . S
C128 C126 1.374 . S
C128 C127 1.359 . S
C128 H154 0.931 . S
C129 C125 1.389 . S
C129 C127 1.364 . S
C129 H155 0.931 . S
C130 O144 1.256 . S
C130 O145 1.257 . S
C131 O146 1.240 . S
C131 O147 1.240 . S
C132 Gd121 2.818 . S
C132 C133 1.510 . S
C132 O148 1.249 . S
C132 O149 1.252 . S
C133 C132 1.510 . S
C133 C134 1.404 . S
C133 C135 1.352 . S
C134 C133 1.404 . S
C134 C138 1.389 . S
C134 H156 0.930 . S
C135 C133 1.352 . S
C135 C137 1.374 . S
C135 H157 0.931 . S
C136 C137 1.359 . S
C136 C138 1.364 . S
C137 C135 1.374 . S
C137 C136 1.359 . S
C137 H158 0.931 . S
C138 C134 1.389 . S
C138 C136 1.364 . S
C138 H159 0.931 . S
C139 O150 1.256 . S
C139 O151 1.257 . S
O140 Gd120 2.377 1_455 S
O140 C122 1.240 . S
O141 Gd121 2.395 1_455 S
O141 C122 1.240 . S
O142 Gd120 2.448 . S
O142 C123 1.251 . S
O143 Gd120 2.506 . S
O143 C123 1.252 . S
O144 Gd120 2.435 . S
O144 C130 1.256 . S
O145 Gd120 2.717 . S
O145 Gd121 2.327 . S
O145 C130 1.257 . S
O146 Gd121 2.377 . S
O146 C131 1.240 . S
O147 Gd120 2.395 . S
O147 C131 1.240 . S
O148 Gd121 2.448 . S
O148 C132 1.249 . S
O149 Gd121 2.506 . S
O149 C132 1.252 . S
O150 Gd121 2.435 . S
O150 C139 1.256 . S
O151 Gd120 2.327 . S
O151 Gd121 2.717 . S
O151 C139 1.257 . S
H152 C125 0.930 . S
H153 C126 0.931 . S
H154 C128 0.931 . S
H155 C129 0.931 . S
H156 C134 0.930 . S
H157 C135 0.931 . S
H158 C137 0.931 . S
H159 C138 0.931 . S
Gd160 C163 2.818 . S
Gd160 O180 2.377 . S
Gd160 O182 2.448 . S
Gd160 O183 2.506 1_554 S
Gd160 O184 2.435 . S
Gd160 O185 2.717 . S
Gd160 O187 2.395 . S
Gd160 O191 2.327 1_554 S
Gd161 C172 2.818 . S
Gd161 O181 2.395 . S
Gd161 O185 2.327 . S
Gd161 O186 2.377 1_554 S
Gd161 O188 2.448 1_554 S
Gd161 O189 2.506 . S
Gd161 O190 2.435 1_554 S
Gd161 O191 2.717 1_554 S
C162 O180 1.240 . S
C162 O181 1.240 . S
C163 Gd160 2.818 . S
C163 C164 1.510 . S
C163 O182 1.249 . S
C163 O183 1.252 1_554 S
C164 C163 1.510 . S
C164 C165 1.404 . S
C164 C166 1.352 1_554 S
C165 C164 1.404 . S
C165 C169 1.389 . S
C165 H192 0.930 . S
C166 C164 1.352 1_556 S
C166 C168 1.374 . S
C166 H193 0.931 . S
C167 C168 1.359 . S
C167 C169 1.364 1_556 S
C168 C166 1.374 . S
C168 C167 1.359 . S
C168 H194 0.931 . S
C169 C165 1.389 . S
C169 C167 1.364 1_554 S
C169 H195 0.931 . S
C170 O184 1.256 . S
C170 O185 1.257 . S
C171 O186 1.240 1_554 S
C171 O187 1.240 . S
C172 Gd161 2.818 . S
C172 C173 1.510 . S
C172 O188 1.249 1_554 S
C172 O189 1.252 . S
C173 C172 1.510 . S
C173 C174 1.404 1_554 S
C173 C175 1.352 . S
C174 C173 1.404 1_556 S
C174 C178 1.389 . S
C174 H196 0.930 . S
C175 C173 1.352 . S
C175 C177 1.374 . S
C175 H197 0.931 . S
C176 C177 1.359 . S
C176 C178 1.364 1_554 S
C177 C175 1.374 . S
C177 C176 1.359 . S
C177 H198 0.931 . S
C178 C174 1.389 . S
C178 C176 1.364 1_556 S
C178 H199 0.931 . S
C179 O190 1.256 . S
C179 O191 1.257 . S
O180 Gd160 2.377 . S
O180 C162 1.240 . S
O181 Gd161 2.395 . S
O181 C162 1.240 . S
O182 Gd160 2.448 . S
O182 C163 1.249 . S
O183 Gd160 2.506 1_556 S
O183 C163 1.252 1_556 S
O184 Gd160 2.435 . S
O184 C170 1.256 . S
O185 Gd160 2.717 . S
O185 Gd161 2.327 . S
O185 C170 1.257 . S
O186 Gd161 2.377 1_556 S
O186 C171 1.240 1_556 S
O187 Gd160 2.395 . S
O187 C171 1.240 . S
O188 Gd161 2.448 1_556 S
O188 C172 1.249 1_556 S
O189 Gd161 2.506 . S
O189 C172 1.252 . S
O190 Gd161 2.435 1_556 S
O190 C179 1.256 . S
O191 Gd160 2.327 1_556 S
O191 Gd161 2.717 1_556 S
O191 C179 1.257 . S
H192 C165 0.930 . S
H193 C166 0.931 . S
H194 C168 0.931 . S
H195 C169 0.931 . S
H196 C174 0.930 . S
H197 C175 0.931 . S
H198 C177 0.931 . S
H199 C178 0.931 . S
Gd200 C203 2.818 . S
Gd200 O220 2.377 . S
Gd200 O222 2.448 . S
Gd200 O223 2.506 1_554 S
Gd200 O224 2.435 . S
Gd200 O225 2.717 . S
Gd200 O227 2.395 . S
Gd200 O231 2.327 1_554 S
Gd201 C212 2.818 . S
Gd201 O221 2.395 . S
Gd201 O225 2.327 . S
Gd201 O226 2.377 1_554 S
Gd201 O228 2.448 1_554 S
Gd201 O229 2.506 . S
Gd201 O230 2.435 1_554 S
Gd201 O231 2.717 1_554 S
C202 O220 1.240 . S
C202 O221 1.240 . S
C203 Gd200 2.818 . S
C203 C204 1.510 . S
C203 O222 1.249 . S
C203 O223 1.252 1_554 S
C204 C203 1.510 . S
C204 C205 1.404 . S
C204 C206 1.352 1_554 S
C205 C204 1.404 . S
C205 C209 1.389 . S
C205 H232 0.930 . S
C206 C204 1.352 1_556 S
C206 C208 1.374 . S
C206 H233 0.931 . S
C207 C208 1.359 1_554 S
C207 C209 1.364 . S
C208 C206 1.374 . S
C208 C207 1.359 1_556 S
C208 H234 0.931 . S
C209 C205 1.389 . S
C209 C207 1.364 . S
C209 H235 0.931 . S
C210 O224 1.256 . S
C210 O225 1.257 . S
C211 O226 1.240 1_554 S
C211 O227 1.240 . S
C212 Gd201 2.818 . S
C212 C213 1.510 . S
C212 O228 1.249 1_554 S
C212 O229 1.252 . S
C213 C212 1.510 . S
C213 C214 1.404 1_554 S
C213 C215 1.352 . S
C214 C213 1.404 1_556 S
C214 C218 1.389 . S
C214 H236 0.930 . S
C215 C213 1.352 . S
C215 C217 1.374 . S
C215 H237 0.931 . S
C216 C217 1.359 . S
C216 C218 1.364 1_554 S
C217 C215 1.374 . S
C217 C216 1.359 . S
C217 H238 0.931 . S
C218 C214 1.389 . S
C218 C216 1.364 1_556 S
C218 H239 0.931 . S
C219 O230 1.256 . S
C219 O231 1.257 . S
O220 Gd200 2.377 . S
O220 C202 1.240 . S
O221 Gd201 2.395 . S
O221 C202 1.240 . S
O222 Gd200 2.448 . S
O222 C203 1.249 . S
O223 Gd200 2.506 1_556 S
O223 C203 1.252 1_556 S
O224 Gd200 2.435 . S
O224 C210 1.256 . S
O225 Gd200 2.717 . S
O225 Gd201 2.327 . S
O225 C210 1.257 . S
O226 Gd201 2.377 1_556 S
O226 C211 1.240 1_556 S
O227 Gd200 2.395 . S
O227 C211 1.240 . S
O228 Gd201 2.448 1_556 S
O228 C212 1.249 1_556 S
O229 Gd201 2.506 . S
O229 C212 1.252 . S
O230 Gd201 2.435 1_556 S
O230 C219 1.256 . S
O231 Gd200 2.327 1_556 S
O231 Gd201 2.717 1_556 S
O231 C219 1.257 . S
H232 C205 0.930 . S
H233 C206 0.931 . S
H234 C208 0.931 . S
H235 C209 0.931 . S
H236 C214 0.930 . S
H237 C215 0.931 . S
H238 C217 0.931 . S
H239 C218 0.931 . S
Gd240 C243 2.818 . S
Gd240 O260 2.377 . S
Gd240 O262 2.448 . S
Gd240 O263 2.506 . S
Gd240 O264 2.435 . S
Gd240 O265 2.717 . S
Gd240 O267 2.395 . S
Gd240 O271 2.327 . S
Gd241 C252 2.818 . S
Gd241 O261 2.395 . S
Gd241 O265 2.327 . S
Gd241 O266 2.377 . S
Gd241 O268 2.448 . S
Gd241 O269 2.506 . S
Gd241 O270 2.435 . S
Gd241 O271 2.717 . S
C242 O260 1.240 . S
C242 O261 1.240 . S
C243 Gd240 2.818 . S
C243 C244 1.510 . S
C243 O262 1.249 . S
C243 O263 1.252 . S
C244 C243 1.510 . S
C244 C245 1.404 . S
C244 C246 1.352 . S
C245 C244 1.404 . S
C245 C249 1.389 . S
C245 H272 0.930 . S
C246 C244 1.352 . S
C246 C248 1.374 . S
C246 H273 0.931 . S
C247 C248 1.359 . S
C247 C249 1.364 . S
C248 C246 1.374 . S
C248 C247 1.359 . S
C248 H274 0.931 . S
C249 C245 1.389 . S
C249 C247 1.364 . S
C249 H275 0.931 . S
C250 O264 1.256 . S
C250 O265 1.257 . S
C251 O266 1.240 . S
C251 O267 1.240 . S
C252 Gd241 2.818 . S
C252 C253 1.510 . S
C252 O268 1.249 . S
C252 O269 1.252 . S
C253 C252 1.510 . S
C253 C254 1.404 . S
C253 C255 1.352 . S
C254 C253 1.404 . S
C254 C258 1.389 . S
C254 H276 0.930 . S
C255 C253 1.352 . S
C255 C257 1.374 . S
C255 H277 0.931 . S
C256 C257 1.359 . S
C256 C258 1.364 . S
C257 C255 1.374 . S
C257 C256 1.359 . S
C257 H278 0.931 . S
C258 C254 1.389 . S
C258 C256 1.364 . S
C258 H279 0.931 . S
C259 O270 1.256 . S
C259 O271 1.257 . S
O260 Gd240 2.377 . S
O260 C242 1.240 . S
O261 Gd241 2.395 . S
O261 C242 1.240 . S
O262 Gd240 2.448 . S
O262 C243 1.249 . S
O263 Gd240 2.506 . S
O263 C243 1.252 . S
O264 Gd240 2.435 . S
O264 C250 1.256 . S
O265 Gd240 2.717 . S
O265 Gd241 2.327 . S
O265 C250 1.257 . S
O266 Gd241 2.377 . S
O266 C251 1.240 . S
O267 Gd240 2.395 . S
O267 C251 1.240 . S
O268 Gd241 2.448 . S
O268 C252 1.249 . S
O269 Gd241 2.506 . S
O269 C252 1.252 . S
O270 Gd241 2.435 . S
O270 C259 1.256 . S
O271 Gd240 2.327 . S
O271 Gd241 2.717 . S
O271 C259 1.257 . S
H272 C245 0.930 . S
H273 C246 0.931 . S
H274 C248 0.931 . S
H275 C249 0.931 . S
H276 C254 0.930 . S
H277 C255 0.931 . S
H278 C257 0.931 . S
H279 C258 0.931 . S
Gd280 C283 2.818 . S
Gd280 O300 2.377 . S
Gd280 O302 2.448 . S
Gd280 O303 2.506 . S
Gd280 O304 2.435 . S
Gd280 O305 2.717 . S
Gd280 O307 2.395 . S
Gd280 O311 2.327 . S
Gd281 C292 2.818 . S
Gd281 O301 2.395 . S
Gd281 O305 2.327 . S
Gd281 O306 2.377 . S
Gd281 O308 2.448 . S
Gd281 O309 2.506 . S
Gd281 O310 2.435 . S
Gd281 O311 2.717 . S
C282 O300 1.240 . S
C282 O301 1.240 . S
C283 Gd280 2.818 . S
C283 C284 1.510 . S
C283 O302 1.249 . S
C283 O303 1.252 . S
C284 C283 1.510 . S
C284 C285 1.404 . S
C284 C286 1.352 . S
C285 C284 1.404 . S
C285 C289 1.389 . S
C285 H312 0.930 . S
C286 C284 1.352 . S
C286 C288 1.374 . S
C286 H313 0.931 . S
C287 C288 1.359 . S
C287 C289 1.364 . S
C288 C286 1.374 . S
C288 C287 1.359 . S
C288 H314 0.931 . S
C289 C285 1.389 . S
C289 C287 1.364 . S
C289 H315 0.931 . S
C290 O304 1.256 . S
C290 O305 1.257 . S
C291 O306 1.240 . S
C291 O307 1.240 . S
C292 Gd281 2.818 . S
C292 C293 1.510 . S
C292 O308 1.249 . S
C292 O309 1.252 . S
C293 C292 1.510 . S
C293 C294 1.404 . S
C293 C295 1.352 . S
C294 C293 1.404 . S
C294 C298 1.389 . S
C294 H316 0.930 . S
C295 C293 1.352 . S
C295 C297 1.374 . S
C295 H317 0.931 . S
C296 C297 1.359 . S
C296 C298 1.364 . S
C297 C295 1.374 . S
C297 C296 1.359 . S
C297 H318 0.931 . S
C298 C294 1.389 . S
C298 C296 1.364 . S
C298 H319 0.931 . S
C299 O310 1.256 . S
C299 O311 1.257 . S
O300 Gd280 2.377 . S
O300 C282 1.240 . S
O301 Gd281 2.395 . S
O301 C282 1.240 . S
O302 Gd280 2.448 . S
O302 C283 1.249 . S
O303 Gd280 2.506 . S
O303 C283 1.252 . S
O304 Gd280 2.435 . S
O304 C290 1.256 . S
O305 Gd280 2.717 . S
O305 Gd281 2.327 . S
O305 C290 1.257 . S
O306 Gd281 2.377 . S
O306 C291 1.240 . S
O307 Gd280 2.395 . S
O307 C291 1.240 . S
O308 Gd281 2.448 . S
O308 C292 1.249 . S
O309 Gd281 2.506 . S
O309 C292 1.252 . S
O310 Gd281 2.435 . S
O310 C299 1.256 . S
O311 Gd280 2.327 . S
O311 Gd281 2.717 . S
O311 C299 1.257 . S
H312 C285 0.930 . S
H313 C286 0.931 . S
H314 C288 0.931 . S
H315 C289 0.931 . S
H316 C294 0.930 . S
H317 C295 0.931 . S
H318 C297 0.931 . S
H319 C298 0.931 . S
H320 C326 0.930 . S
H321 C330 0.930 . S
H322 C335 0.929 . S
H323 C333 0.929 . S
H324 C328 0.929 . S
H325 C334 0.929 . S
C326 H320 0.930 . S
C326 C327 1.367 1_556 S
C326 C334 1.378 . S
C327 C326 1.367 1_554 S
C327 C335 1.433 . S
C328 H324 0.929 . S
C328 C330 1.378 . S
C328 C332 1.350 . S
C329 C332 1.463 . S
C329 C334 1.350 1_554 S
C329 N337 1.427 . S
C330 H321 0.930 . S
C330 C328 1.378 . S
C330 C331 1.367 . S
C331 C330 1.367 . S
C331 C333 1.433 1_554 S
C332 C328 1.350 . S
C332 C329 1.463 . S
C332 N336 1.427 1_554 S
C333 H323 0.929 . S
C333 C331 1.433 1_556 S
C333 N336 1.384 . S
C334 H325 0.929 . S
C334 C326 1.378 . S
C334 C329 1.350 1_556 S
C335 H322 0.929 . S
C335 C327 1.433 . S
C335 N337 1.384 . S
N336 C332 1.427 1_556 S
N336 C333 1.384 . S
N337 C329 1.427 . S
N337 C335 1.384 . S
H338 C344 0.930 . S
H339 C348 0.930 . S
H340 C353 0.929 . S
H341 C351 0.929 . S
H342 C346 0.929 . S
H343 C352 0.929 . S
C344 H338 0.930 . S
C344 C345 1.367 1_556 S
C344 C352 1.378 . S
C345 C344 1.367 1_554 S
C345 C353 1.433 . S
C346 H342 0.929 . S
C346 C348 1.378 . S
C346 C350 1.350 . S
C347 C350 1.463 . S
C347 C352 1.350 1_554 S
C347 N355 1.427 . S
C348 H339 0.930 . S
C348 C346 1.378 . S
C348 C349 1.367 . S
C349 C348 1.367 . S
C349 C351 1.433 1_554 S
C350 C346 1.350 . S
C350 C347 1.463 . S
C350 N354 1.427 1_554 S
C351 H341 0.929 . S
C351 C349 1.433 1_556 S
C351 N354 1.384 . S
C352 H343 0.929 . S
C352 C344 1.378 . S
C352 C347 1.350 1_556 S
C353 H340 0.929 . S
C353 C345 1.433 . S
C353 N355 1.384 . S
N354 C350 1.427 1_556 S
N354 C351 1.384 . S
N355 C347 1.427 . S
N355 C353 1.384 . S
H356 C362 0.930 . S
H357 C366 0.930 . S
H358 C371 0.929 . S
H359 C369 0.929 . S
H360 C364 0.929 . S
H361 C370 0.929 . S
C362 H356 0.930 . S
C362 C363 1.367 . S
C362 C370 1.378 . S
C363 C362 1.367 . S
C363 C371 1.433 . S
C364 H360 0.929 . S
C364 C366 1.378 . S
C364 C368 1.350 . S
C365 C368 1.463 . S
C365 C370 1.350 . S
C365 N373 1.427 . S
C366 H357 0.930 . S
C366 C364 1.378 . S
C366 C367 1.367 . S
C367 C366 1.367 . S
C367 C369 1.433 . S
C368 C364 1.350 . S
C368 C365 1.463 . S
C368 N372 1.427 . S
C369 H359 0.929 . S
C369 C367 1.433 . S
C369 N372 1.384 . S
C370 H361 0.929 . S
C370 C362 1.378 . S
C370 C365 1.350 . S
C371 H358 0.929 . S
C371 C363 1.433 . S
C371 N373 1.384 . S
N372 C368 1.427 . S
N372 C369 1.384 . S
N373 C365 1.427 . S
N373 C371 1.384 . S
H374 C380 0.930 . S
H375 C384 0.930 . S
H376 C389 0.929 . S
H377 C387 0.929 . S
H378 C382 0.929 . S
H379 C388 0.929 . S
C380 H374 0.930 . S
C380 C381 1.367 . S
C380 C388 1.378 . S
C381 C380 1.367 . S
C381 C389 1.433 . S
C382 H378 0.929 . S
C382 C384 1.378 . S
C382 C386 1.350 . S
C383 C386 1.463 . S
C383 C388 1.350 . S
C383 N391 1.427 . S
C384 H375 0.930 . S
C384 C382 1.378 . S
C384 C385 1.367 . S
C385 C384 1.367 . S
C385 C387 1.433 . S
C386 C382 1.350 . S
C386 C383 1.463 . S
C386 N390 1.427 . S
C387 H377 0.929 . S
C387 C385 1.433 . S
C387 N390 1.384 . S
C388 H379 0.929 . S
C388 C380 1.378 . S
C388 C383 1.350 . S
C389 H376 0.929 . S
C389 C381 1.433 . S
C389 N391 1.384 . S
N390 C386 1.427 . S
N390 C387 1.384 . S
N391 C383 1.427 . S
N391 C389 1.384 . S
H392 C398 0.930 . S
H393 C402 0.930 . S
H394 C407 0.929 . S
H395 C405 0.929 . S
H396 C400 0.929 . S
H397 C406 0.929 1_455 S
C398 H392 0.930 . S
C398 C399 1.367 1_556 S
C398 C406 1.378 . S
C399 C398 1.367 1_554 S
C399 C407 1.433 . S
C400 H396 0.929 . S
C400 C402 1.378 . S
C400 C404 1.350 . S
C401 C404 1.463 . S
C401 C406 1.350 1_454 S
C401 N409 1.427 1_455 S
C402 H393 0.930 . S
C402 C400 1.378 . S
C402 C403 1.367 . S
C403 C402 1.367 . S
C403 C405 1.433 1_554 S
C404 C400 1.350 . S
C404 C401 1.463 . S
C404 N408 1.427 1_554 S
C405 H395 0.929 . S
C405 C403 1.433 1_556 S
C405 N408 1.384 . S
C406 H397 0.929 1_655 S
C406 C398 1.378 . S
C406 C401 1.350 1_656 S
C407 H394 0.929 . S
C407 C399 1.433 . S
C407 N409 1.384 . S
N408 C404 1.427 1_556 S
N408 C405 1.384 . S
N409 C401 1.427 1_655 S
N409 C407 1.384 . S
H410 C416 0.930 . S
H411 C420 0.930 . S
H412 C425 0.929 . S
H413 C423 0.929 . S
H414 C418 0.929 . S
H415 C424 0.929 1_655 S
C416 H410 0.930 . S
C416 C417 1.367 . S
C416 C424 1.378 . S
C417 C416 1.367 . S
C417 C425 1.433 1_554 S
C418 H414 0.929 . S
C418 C420 1.378 . S
C418 C422 1.350 1_556 S
C419 C422 1.463 . S
C419 C424 1.350 1_655 S
C419 N427 1.427 1_654 S
C420 H411 0.930 . S
C420 C418 1.378 . S
C420 C421 1.367 1_556 S
C421 C420 1.367 1_554 S
C421 C423 1.433 . S
C422 C418 1.350 1_554 S
C422 C419 1.463 . S
C422 N426 1.427 . S
C423 H413 0.929 . S
C423 C421 1.433 . S
C423 N426 1.384 . S
C424 H415 0.929 1_455 S
C424 C416 1.378 . S
C424 C419 1.350 1_455 S
C425 H412 0.929 . S
C425 C417 1.433 1_556 S
C425 N427 1.384 . S
N426 C422 1.427 . S
N426 C423 1.384 . S
N427 C419 1.427 1_456 S
N427 C425 1.384 . S
H428 C434 0.930 . S
H429 C438 0.930 . S
H430 C443 0.929 . S
H431 C441 0.929 . S
H432 C436 0.927 1_455 S
H433 C442 0.929 . S
C434 H428 0.930 . S
C434 C435 1.367 . S
C434 C442 1.378 . S
C435 C434 1.367 . S
C435 C443 1.433 . S
C436 H432 0.927 1_655 S
C436 C438 1.378 . S
C436 C440 1.350 1_655 S
C437 C440 1.463 . S
C437 C442 1.350 . S
C437 N445 1.427 . S
C438 H429 0.930 . S
C438 C436 1.378 . S
C438 C439 1.367 . S
C439 C438 1.367 . S
C439 C441 1.433 . S
C440 C436 1.350 1_455 S
C440 C437 1.463 . S
C440 N444 1.427 1_455 S
C441 H431 0.929 . S
C441 C439 1.433 . S
C441 N444 1.384 . S
C442 H433 0.929 . S
C442 C434 1.378 . S
C442 C437 1.350 . S
C443 H430 0.929 . S
C443 C435 1.433 . S
C443 N445 1.384 . S
N444 C440 1.427 1_655 S
N444 C441 1.384 . S
N445 C437 1.427 . S
N445 C443 1.384 . S
H446 C452 0.930 . S
H447 C456 0.930 . S
H448 C461 0.929 . S
H449 C459 0.929 . S
H450 C454 0.929 1_655 S
H451 C460 0.929 . S
C452 H446 0.930 . S
C452 C453 1.367 . S
C452 C460 1.378 . S
C453 C452 1.367 . S
C453 C461 1.433 . S
C454 H450 0.929 1_455 S
C454 C456 1.378 . S
C454 C458 1.350 1_455 S
C455 C458 1.463 . S
C455 C460 1.350 . S
C455 N463 1.427 . S
C456 H447 0.930 . S
C456 C454 1.378 . S
C456 C457 1.367 . S
C457 C456 1.367 . S
C457 C459 1.433 . S
C458 C454 1.350 1_655 S
C458 C455 1.463 . S
C458 N462 1.427 1_655 S
C459 H449 0.929 . S
C459 C457 1.433 . S
C459 N462 1.384 . S
C460 H451 0.929 . S
C460 C452 1.378 . S
C460 C455 1.350 . S
C461 H448 0.929 . S
C461 C453 1.433 . S
C461 N463 1.384 . S
N462 C458 1.427 1_455 S
N462 C459 1.384 . S
N463 C455 1.427 . S
N463 C461 1.384 . S
H464 C470 0.930 . S
H465 C474 0.930 . S
H466 C479 0.929 1_655 S
H467 C477 0.929 1_455 S
H468 C472 0.929 . S
H469 C478 0.929 1_556 S
C470 H464 0.930 . S
C470 C471 1.367 . S
C470 C478 1.378 . S
C471 C470 1.367 . S
C471 C479 1.433 . S
C472 H468 0.929 . S
C472 C474 1.378 . S
C472 C476 1.350 . S
C473 C476 1.463 1_455 S
C473 C478 1.350 . S
C473 N481 1.427 1_455 S
C474 H465 0.930 . S
C474 C472 1.378 . S
C474 C475 1.367 . S
C475 C474 1.367 . S
C475 C477 1.433 1_554 S
C476 C472 1.350 . S
C476 C473 1.463 1_655 S
C476 N480 1.427 1_654 S
C477 H467 0.929 1_655 S
C477 C475 1.433 1_556 S
C477 N480 1.384 1_655 S
C478 H469 0.929 1_554 S
C478 C470 1.378 . S
C478 C473 1.350 . S
C479 H466 0.929 1_455 S
C479 C471 1.433 . S
C479 N481 1.384 1_455 S
N480 C476 1.427 1_456 S
N480 C477 1.384 1_455 S
N481 C473 1.427 1_655 S
N481 C479 1.384 1_655 S
H482 C488 0.930 1_655 S
H483 C492 0.930 1_455 S
H484 C497 0.929 . S
H485 C495 0.929 . S
H486 C490 0.929 . S
H487 C496 0.929 . S
C488 H482 0.930 1_455 S
C488 C489 1.367 . S
C488 C496 1.378 1_455 S
C489 C488 1.367 . S
C489 C497 1.433 . S
C490 H486 0.929 . S
C490 C492 1.378 1_455 S
C490 C494 1.350 1_455 S
C491 C494 1.463 1_455 S
C491 C496 1.350 1_455 S
C491 N499 1.427 . S
C492 H483 0.930 1_655 S
C492 C490 1.378 1_655 S
C492 C493 1.367 . S
C493 C492 1.367 . S
C493 C495 1.433 . S
C494 C490 1.350 1_655 S
C494 C491 1.463 1_655 S
C494 N498 1.427 . S
C495 H485 0.929 . S
C495 C493 1.433 . S
C495 N498 1.384 . S
C496 H487 0.929 . S
C496 C488 1.378 1_655 S
C496 C491 1.350 1_655 S
C497 H484 0.929 . S
C497 C489 1.433 . S
C497 N499 1.384 . S
N498 C494 1.427 . S
N498 C495 1.384 . S
N499 C491 1.427 . S
N499 C497 1.384 . S
H500 C506 0.930 . S
H501 C510 0.930 . S
H502 C515 0.929 . S
H503 C513 0.929 . S
H504 C508 0.929 . S
H505 C514 0.929 . S
C506 H500 0.930 . S
C506 C507 1.367 . S
C506 C514 1.378 . S
C507 C506 1.367 . S
C507 C515 1.433 1_554 S
C508 H504 0.929 . S
C508 C510 1.378 . S
C508 C512 1.350 1_556 S
C509 C512 1.463 1_565 S
C509 C514 1.350 . S
C509 N517 1.427 1_554 S
C510 H501 0.930 . S
C510 C508 1.378 . S
C510 C511 1.367 1_556 S
C511 C510 1.367 1_554 S
C511 C513 1.433 . S
C512 C508 1.350 1_554 S
C512 C509 1.463 1_545 S
C512 N516 1.427 . S
C513 H503 0.929 . S
C513 C511 1.433 . S
C513 N516 1.384 . S
C514 H505 0.929 . S
C514 C506 1.378 . S
C514 C509 1.350 . S
C515 H502 0.929 . S
C515 C507 1.433 1_556 S
C515 N517 1.384 . S
N516 C512 1.427 . S
N516 C513 1.384 . S
N517 C509 1.427 1_556 S
N517 C515 1.384 . S
H518 C524 0.930 . S
H519 C528 0.930 . S
H520 C533 0.929 . S
H521 C531 0.929 . S
H522 C526 0.929 . S
H523 C532 0.929 . S
C524 H518 0.930 . S
C524 C525 1.367 . S
C524 C532 1.378 . S
C525 C524 1.367 . S
C525 C533 1.433 . S
C526 H522 0.929 . S
C526 C528 1.378 . S
C526 C530 1.350 . S
C527 C530 1.463 1_545 S
C527 C532 1.350 . S
C527 N535 1.427 . S
C528 H519 0.930 . S
C528 C526 1.378 . S
C528 C529 1.367 . S
C529 C528 1.367 . S
C529 C531 1.433 . S
C530 C526 1.350 . S
C530 C527 1.463 1_565 S
C530 N534 1.427 . S
C531 H521 0.929 . S
C531 C529 1.433 . S
C531 N534 1.384 . S
C532 H523 0.929 . S
C532 C524 1.378 . S
C532 C527 1.350 . S
C533 H520 0.929 . S
C533 C525 1.433 . S
C533 N535 1.384 . S
N534 C530 1.427 . S
N534 C531 1.384 . S
N535 C527 1.427 . S
N535 C533 1.384 . S
H536 C542 0.930 . S
H537 C546 0.930 . S
H538 C551 0.929 . S
H539 C549 0.929 . S
H540 C544 0.929 . S
H541 C550 0.929 . S
C542 H536 0.930 . S
C542 C543 1.367 . S
C542 C550 1.378 . S
C543 C542 1.367 . S
C543 C551 1.433 1_554 S
C544 H540 0.929 . S
C544 C546 1.378 . S
C544 C548 1.350 1_556 S
C545 C548 1.463 . S
C545 C550 1.350 . S
C545 N553 1.427 1_554 S
C546 H537 0.930 . S
C546 C544 1.378 . S
C546 C547 1.367 1_556 S
C547 C546 1.367 1_554 S
C547 C549 1.433 . S
C548 C544 1.350 1_554 S
C548 C545 1.463 . S
C548 N552 1.427 . S
C549 H539 0.929 . S
C549 C547 1.433 . S
C549 N552 1.384 . S
C550 H541 0.929 . S
C550 C542 1.378 . S
C550 C545 1.350 . S
C551 H538 0.929 . S
C551 C543 1.433 1_556 S
C551 N553 1.384 . S
N552 C548 1.427 . S
N552 C549 1.384 . S
N553 C545 1.427 1_556 S
N553 C551 1.384 . S
H554 C560 0.930 1_556 S
H555 C564 0.930 . S
H556 C569 0.929 . S
H557 C567 0.929 . S
H558 C562 0.929 . S
H559 C568 0.929 1_556 S
C560 H554 0.930 1_554 S
C560 C561 1.367 . S
C560 C568 1.378 . S
C561 C560 1.367 . S
C561 C569 1.433 . S
C562 H558 0.929 . S
C562 C564 1.378 . S
C562 C566 1.350 . S
C563 C566 1.463 . S
C563 C568 1.350 . S
C563 N571 1.427 . S
C564 H555 0.930 . S
C564 C562 1.378 . S
C564 C565 1.367 . S
C565 C564 1.367 . S
C565 C567 1.433 1_554 S
C566 C562 1.350 . S
C566 C563 1.463 . S
C566 N570 1.427 1_554 S
C567 H557 0.929 . S
C567 C565 1.433 1_556 S
C567 N570 1.384 . S
C568 H559 0.929 1_554 S
C568 C560 1.378 . S
C568 C563 1.350 . S
C569 H556 0.929 . S
C569 C561 1.433 . S
C569 N571 1.384 . S
N570 C566 1.427 1_556 S
N570 C567 1.384 . S
N571 C563 1.427 . S
N571 C569 1.384 . S
H572 C578 0.930 . S
H573 C582 0.930 . S
H574 C587 0.929 . S
H575 C585 0.929 . S
H576 C580 0.929 . S
H577 C586 0.929 . S
C578 H572 0.930 . S
C578 C579 1.367 . S
C578 C586 1.378 . S
C579 C578 1.367 . S
C579 C587 1.433 . S
C580 H576 0.929 . S
C580 C582 1.378 . S
C580 C584 1.350 . S
C581 C584 1.463 . S
C581 C586 1.350 . S
C581 N589 1.427 . S
C582 H573 0.930 . S
C582 C580 1.378 . S
C582 C583 1.367 . S
C583 C582 1.367 . S
C583 C585 1.433 . S
C584 C580 1.350 . S
C584 C581 1.463 . S
C584 N588 1.427 . S
C585 H575 0.929 . S
C585 C583 1.433 . S
C585 N588 1.384 . S
C586 H577 0.929 . S
C586 C578 1.378 . S
C586 C581 1.350 . S
C587 H574 0.929 . S
C587 C579 1.433 . S
C587 N589 1.384 . S
N588 C584 1.427 . S
N588 C585 1.384 . S
N589 C581 1.427 . S
N589 C587 1.384 . S
H590 C596 0.930 . S
H591 C600 0.930 . S
H592 C605 0.929 . S
H593 C603 0.929 . S
H594 C598 0.929 . S
H595 C604 0.929 . S
C596 H590 0.930 . S
C596 C597 1.367 . S
C596 C604 1.378 . S
C597 C596 1.367 . S
C597 C605 1.433 . S
C598 H594 0.929 . S
C598 C600 1.378 . S
C598 C602 1.350 . S
C599 C602 1.463 . S
C599 C604 1.350 . S
C599 N607 1.427 . S
C600 H591 0.930 . S
C600 C598 1.378 . S
C600 C601 1.367 . S
C601 C600 1.367 . S
C601 C603 1.433 . S
C602 C598 1.350 . S
C602 C599 1.463 . S
C602 N606 1.427 . S
C603 H593 0.929 . S
C603 C601 1.433 . S
C603 N606 1.384 . S
C604 H595 0.929 . S
C604 C596 1.378 . S
C604 C599 1.350 . S
C605 H592 0.929 . S
C605 C597 1.433 . S
C605 N607 1.384 . S
N606 C602 1.427 . S
N606 C603 1.384 . S
N607 C599 1.427 . S
N607 C605 1.384 . S
H608 C614 0.930 . S
H609 C618 0.930 . S
H610 C623 0.929 . S
H611 C621 0.929 . S
H612 C616 0.929 . S
H613 C622 0.929 . S
C614 H608 0.930 . S
C614 C615 1.367 1_655 S
C614 C622 1.378 . S
C615 C614 1.367 1_455 S
C615 C623 1.433 . S
C616 H612 0.929 . S
C616 C618 1.378 . S
C616 C620 1.350 1_455 S
C617 C620 1.463 1_455 S
C617 C622 1.350 1_455 S
C617 N625 1.427 . S
C618 H609 0.930 . S
C618 C616 1.378 . S
C618 C619 1.367 1_455 S
C619 C618 1.367 1_655 S
C619 C621 1.433 . S
C620 C616 1.350 1_655 S
C620 C617 1.463 1_655 S
C620 N624 1.427 . S
C621 H611 0.929 . S
C621 C619 1.433 . S
C621 N624 1.384 . S
C622 H613 0.929 . S
C622 C614 1.378 . S
C622 C617 1.350 1_655 S
C623 H610 0.929 . S
C623 C615 1.433 . S
C623 N625 1.384 . S
N624 C620 1.427 . S
N624 C621 1.384 . S
N625 C617 1.427 . S
N625 C623 1.384 . S
H626 C632 0.930 . S
H627 C636 0.930 . S
H628 C641 0.929 . S
H629 C639 0.929 . S
H630 C634 0.929 . S
H631 C640 0.929 . S
C632 H626 0.930 . S
C632 C633 1.367 1_455 S
C632 C640 1.378 . S
C633 C632 1.367 1_655 S
C633 C641 1.433 . S
C634 H630 0.929 . S
C634 C636 1.378 . S
C634 C638 1.350 1_655 S
C635 C638 1.463 1_655 S
C635 C640 1.350 1_655 S
C635 N643 1.427 . S
C636 H627 0.930 . S
C636 C634 1.378 . S
C636 C637 1.367 1_655 S
C637 C636 1.367 1_455 S
C637 C639 1.433 . S
C638 C634 1.350 1_455 S
C638 C635 1.463 1_455 S
C638 N642 1.427 . S
C639 H629 0.929 . S
C639 C637 1.433 . S
C639 N642 1.384 . S
C640 H631 0.929 . S
C640 C632 1.378 . S
C640 C635 1.350 1_455 S
C641 H628 0.929 . S
C641 C633 1.433 . S
C641 N643 1.384 . S
N642 C638 1.427 . S
N642 C639 1.384 . S
N643 C635 1.427 . S
N643 C641 1.384 . S
H644 C650 0.930 . S
H645 C654 0.930 . S
H646 C659 0.929 . S
H647 C657 0.929 . S
H648 C652 0.929 . S
H649 C658 0.929 . S
C650 H644 0.930 . S
C650 C651 1.367 1_455 S
C650 C658 1.378 . S
C651 C650 1.367 1_655 S
C651 C659 1.433 . S
C652 H648 0.929 . S
C652 C654 1.378 . S
C652 C656 1.350 1_655 S
C653 C656 1.463 1_655 S
C653 C658 1.350 1_655 S
C653 N661 1.427 . S
C654 H645 0.930 . S
C654 C652 1.378 . S
C654 C655 1.367 1_655 S
C655 C654 1.367 1_455 S
C655 C657 1.433 . S
C656 C652 1.350 1_455 S
C656 C653 1.463 1_455 S
C656 N660 1.427 . S
C657 H647 0.929 . S
C657 C655 1.433 . S
C657 N660 1.384 . S
C658 H649 0.929 . S
C658 C650 1.378 . S
C658 C653 1.350 1_455 S
C659 H646 0.929 . S
C659 C651 1.433 . S
C659 N661 1.384 . S
N660 C656 1.427 . S
N660 C657 1.384 . S
N661 C653 1.427 . S
N661 C659 1.384 . S
H662 C668 0.930 . S
H663 C672 0.930 . S
H664 C677 0.929 . S
H665 C675 0.929 . S
H666 C670 0.929 . S
H667 C676 0.929 . S
C668 H662 0.930 . S
C668 C669 1.367 1_455 S
C668 C676 1.378 . S
C669 C668 1.367 1_655 S
C669 C677 1.433 . S
C670 H666 0.929 . S
C670 C672 1.378 . S
C670 C674 1.350 1_655 S
C671 C674 1.463 1_655 S
C671 C676 1.350 1_655 S
C671 N679 1.427 . S
C672 H663 0.930 . S
C672 C670 1.378 . S
C672 C673 1.367 1_655 S
C673 C672 1.367 1_455 S
C673 C675 1.433 . S
C674 C670 1.350 1_455 S
C674 C671 1.463 1_455 S
C674 N678 1.427 . S
C675 H665 0.929 . S
C675 C673 1.433 . S
C675 N678 1.384 . S
C676 H667 0.929 . S
C676 C668 1.378 . S
C676 C671 1.350 1_455 S
C677 H664 0.929 . S
C677 C669 1.433 . S
C677 N679 1.384 . S
N678 C674 1.427 . S
N678 C675 1.384 . S
N679 C671 1.427 . S
N679 C677 1.384 . S
H680 C686 0.930 . S
H681 C690 0.930 . S
H682 C695 0.929 . S
H683 C693 0.929 . S
H684 C688 0.929 . S
H685 C694 0.929 . S
C686 H680 0.930 . S
C686 C687 1.367 . S
C686 C694 1.378 . S
C687 C686 1.367 . S
C687 C695 1.433 . S
C688 H684 0.929 . S
C688 C690 1.378 . S
C688 C692 1.350 . S
C689 C692 1.463 . S
C689 C694 1.350 . S
C689 N697 1.427 . S
C690 H681 0.930 . S
C690 C688 1.378 . S
C690 C691 1.367 . S
C691 C690 1.367 . S
C691 C693 1.433 . S
C692 C688 1.350 . S
C692 C689 1.463 . S
C692 N696 1.427 . S
C693 H683 0.929 . S
C693 C691 1.433 . S
C693 N696 1.384 . S
C694 H685 0.929 . S
C694 C686 1.378 . S
C694 C689 1.350 . S
C695 H682 0.929 . S
C695 C687 1.433 . S
C695 N697 1.384 . S
N696 C692 1.427 . S
N696 C693 1.384 . S
N697 C689 1.427 . S
N697 C695 1.384 . S
H698 C704 0.930 . S
H699 C708 0.930 . S
H700 C713 0.929 . S
H701 C711 0.929 . S
H702 C706 0.929 . S
H703 C712 0.929 . S
C704 H698 0.930 . S
C704 C705 1.367 . S
C704 C712 1.378 . S
C705 C704 1.367 . S
C705 C713 1.433 . S
C706 H702 0.929 . S
C706 C708 1.378 . S
C706 C710 1.350 . S
C707 C710 1.463 . S
C707 C712 1.350 . S
C707 N715 1.427 . S
C708 H699 0.930 . S
C708 C706 1.378 . S
C708 C709 1.367 . S
C709 C708 1.367 . S
C709 C711 1.433 . S
C710 C706 1.350 . S
C710 C707 1.463 . S
C710 N714 1.427 . S
C711 H701 0.929 . S
C711 C709 1.433 . S
C711 N714 1.384 . S
C712 H703 0.929 . S
C712 C704 1.378 . S
C712 C707 1.350 . S
C713 H700 0.929 . S
C713 C705 1.433 . S
C713 N715 1.384 . S
N714 C710 1.427 . S
N714 C711 1.384 . S
N715 C707 1.427 . S
N715 C713 1.384 . S
H716 C722 0.930 . S
H717 C726 0.930 . S
H718 C731 0.929 . S
H719 C729 0.929 . S
H720 C724 0.929 . S
H721 C730 0.929 . S
C722 H716 0.930 . S
C722 C723 1.367 . S
C722 C730 1.378 . S
C723 C722 1.367 . S
C723 C731 1.433 . S
C724 H720 0.929 . S
C724 C726 1.378 . S
C724 C728 1.350 . S
C725 C728 1.463 . S
C725 C730 1.350 . S
C725 N733 1.427 . S
C726 H717 0.930 . S
C726 C724 1.378 . S
C726 C727 1.367 . S
C727 C726 1.367 . S
C727 C729 1.433 . S
C728 C724 1.350 . S
C728 C725 1.463 . S
C728 N732 1.427 . S
C729 H719 0.929 . S
C729 C727 1.433 . S
C729 N732 1.384 . S
C730 H721 0.929 . S
C730 C722 1.378 . S
C730 C725 1.350 . S
C731 H718 0.929 . S
C731 C723 1.433 . S
C731 N733 1.384 . S
N732 C728 1.427 . S
N732 C729 1.384 . S
N733 C725 1.427 . S
N733 C731 1.384 . S
H734 C740 0.930 . S
H735 C744 0.930 . S
H736 C749 0.929 . S
H737 C747 0.929 . S
H738 C742 0.929 . S
H739 C748 0.929 . S
C740 H734 0.930 . S
C740 C741 1.367 . S
C740 C748 1.378 . S
C741 C740 1.367 . S
C741 C749 1.433 . S
C742 H738 0.929 . S
C742 C744 1.378 . S
C742 C746 1.350 . S
C743 C746 1.463 . S
C743 C748 1.350 . S
C743 N751 1.427 . S
C744 H735 0.930 . S
C744 C742 1.378 . S
C744 C745 1.367 . S
C745 C744 1.367 . S
C745 C747 1.433 . S
C746 C742 1.350 . S
C746 C743 1.463 . S
C746 N750 1.427 . S
C747 H737 0.929 . S
C747 C745 1.433 . S
C747 N750 1.384 . S
C748 H739 0.929 . S
C748 C740 1.378 . S
C748 C743 1.350 . S
C749 H736 0.929 . S
C749 C741 1.433 . S
C749 N751 1.384 . S
N750 C746 1.427 . S
N750 C747 1.384 . S
N751 C743 1.427 . S
N751 C749 1.384 . S
C327 C11 2.327 . S
C331 C2 2.327 . S
C345 C51 2.322 . S
C349 C42 2.322 . S
C363 C91 2.324 . S
C367 C82 2.324 . S
C381 C131 2.328 . S
C385 C122 2.328 . S
C399 C171 2.322 . S
C403 C162 2.322 . S
C417 C202 2.327 . S
C421 C211 2.327 . S
C435 C251 2.320 . S
C439 C242 2.320 . S
C453 C282 2.321 . S
C457 C291 2.321 . S
C471 C56 2.664 . S
C475 C7 2.664 1_554 S
C489 C127 2.650 . S
C493 C96 2.650 . S
C507 C167 2.651 1_554 S
C511 C216 2.651 . S
C525 C256 2.653 . S
C529 C287 2.653 . S
C543 C16 1.864 . S
C547 C207 1.864 . S
C561 C176 1.868 . S
C565 C47 1.868 . S
C579 C87 1.864 . S
C583 C296 1.864 . S
C597 C136 1.858 . S
C601 C247 1.858 . S
C615 C10 1.449 . S
C619 C130 1.458 . S
C633 C50 1.625 . S
C637 C90 1.615 . S
C651 C59 1.457 . S
C655 C99 1.449 . S
C669 C139 1.615 . S
C673 C19 1.625 . S
C687 C170 1.454 . S
C691 C290 1.448 . S
C705 C210 1.623 . S
C709 C250 1.629 . S
C723 C219 1.461 . S
C727 C259 1.447 . S
C741 C299 1.617 . S
C745 C179 1.625 . S
