# Generated by pormake.
# Topology etd, (3)-cn, num edge types: 1
# Building blocks:
#     Node 0, Type 0, BuildingBlock: OLANEW_clean_sbu_2, # of connection points: 3
#     Node 1, Type 0, BuildingBlock: OLANEW_clean_sbu_2, # of connection points: 3
#     Node 2, Type 0, BuildingBlock: OLANEW_clean_sbu_2, # of connection points: 3
#     Node 3, Type 0, BuildingBlock: OLANEW_clean_sbu_2, # of connection points: 3
#     Node 4, Type 0, BuildingBlock: OLANEW_clean_sbu_2, # of connection points: 3
#     Node 5, Type 0, BuildingBlock: OLANEW_clean_sbu_2, # of connection points: 3
#     Node 6, Type 0, BuildingBlock: OLANEW_clean_sbu_2, # of connection points: 3
#     Node 7, Type 0, BuildingBlock: OLANEW_clean_sbu_2, # of connection points: 3
#     Node 8, Type 0, BuildingBlock: OLANEW_clean_sbu_2, # of connection points: 3
#     Node 9, Type 0, BuildingBlock: OLANEW_clean_sbu_2, # of connection points: 3
#     Node 10, Type 0, BuildingBlock: OLANEW_clean_sbu_2, # of connection points: 3
#     Node 11, Type 0, BuildingBlock: OLANEW_clean_sbu_2, # of connection points: 3
#     Edge 12, Type (0, 0), BuildingBlock: AJUNOK_clean_linker_0, # of connection points: 2
#     Edge 13, Type (0, 0), BuildingBlock: AJUNOK_clean_linker_0, # of connection points: 2
#     Edge 14, Type (0, 0), BuildingBlock: AJUNOK_clean_linker_0, # of connection points: 2
#     Edge 15, Type (0, 0), BuildingBlock: AJUNOK_clean_linker_0, # of connection points: 2
#     Edge 16, Type (0, 0), BuildingBlock: AJUNOK_clean_linker_0, # of connection points: 2
#     Edge 17, Type (0, 0), BuildingBlock: AJUNOK_clean_linker_0, # of connection points: 2
#     Edge 18, Type (0, 0), BuildingBlock: AJUNOK_clean_linker_0, # of connection points: 2
#     Edge 19, Type (0, 0), BuildingBlock: AJUNOK_clean_linker_0, # of connection points: 2
#     Edge 20, Type (0, 0), BuildingBlock: AJUNOK_clean_linker_0, # of connection points: 2
#     Edge 21, Type (0, 0), BuildingBlock: AJUNOK_clean_linker_0, # of connection points: 2
#     Edge 22, Type (0, 0), BuildingBlock: AJUNOK_clean_linker_0, # of connection points: 2
#     Edge 23, Type (0, 0), BuildingBlock: AJUNOK_clean_linker_0, # of connection points: 2
#     Edge 24, Type (0, 0), BuildingBlock: AJUNOK_clean_linker_0, # of connection points: 2
#     Edge 25, Type (0, 0), BuildingBlock: AJUNOK_clean_linker_0, # of connection points: 2
#     Edge 26, Type (0, 0), BuildingBlock: AJUNOK_clean_linker_0, # of connection points: 2
#     Edge 27, Type (0, 0), BuildingBlock: AJUNOK_clean_linker_0, # of connection points: 2
#     Edge 28, Type (0, 0), BuildingBlock: AJUNOK_clean_linker_0, # of connection points: 2
#     Edge 29, Type (0, 0), BuildingBlock: AJUNOK_clean_linker_0, # of connection points: 2
# Relax obj value: 0.002
# Max RMSD: 0.036
# Mean RMSD: 0.036
data_MOF--net-etd--node1-OLANEW_clean_sbu_2--edge1-AJUNOK_clean_linker_0
_symmetry_space_group_name_H-M    P1
_symmetry_Int_Tables_number       1
_symmetry_cell_setting            triclinic
loop_
_symmetry_equiv_pos_as_xyz
'x, y, z'
_cell_length_a     46.956318
_cell_length_b     46.941761
_cell_length_c     33.16119
_cell_angle_alpha  89.841667
_cell_angle_beta   90.065861
_cell_angle_gamma 120.04493
loop_
_atom_site_label
_atom_site_type_symbol
_atom_site_fract_x
_atom_site_fract_y
_atom_site_fract_z
_atom_type_partial_charge
O0 O 0.58193 0.09674 0.16164 0.0
Cd1 Cd 0.59622 0.10544 0.08992 0.0
O2 O 0.56473 0.13104 0.14782 0.0
Cd3 Cd 0.54761 0.16596 0.15807 0.0
O4 O 0.54529 0.21026 0.1441 0.0
C5 C 0.57043 0.23795 0.15192 0.0
O6 O 0.59568 0.23846 0.16977 0.0
C7 C 0.56916 0.11354 0.17361 0.0
C8 C 0.58716 0.05096 0.046 0.0
O9 O 0.61511 0.07092 0.06175 0.0
O10 O 0.56323 0.05621 0.05217 0.0
O11 O 0.51514 0.61633 0.33779 0.0
Cd12 Cd 0.53716 0.64475 0.27357 0.0
O13 O 0.46741 0.59814 0.30879 0.0
Cd14 Cd 0.41398 0.57478 0.30272 0.0
O15 O 0.36585 0.5645 0.28076 0.0
C16 C 0.3528 0.58003 0.29604 0.0
O17 O 0.36805 0.60051 0.32583 0.0
C18 C 0.48397 0.59949 0.33985 0.0
C19 C 0.5594 0.61282 0.22259 0.0
O20 O 0.57938 0.63635 0.24551 0.0
O21 O 0.52886 0.60424 0.22399 0.0
O22 O 0.88526 0.5025 0.51599 0.0
Cd23 Cd 0.88418 0.53459 0.45841 0.0
O24 O 0.85346 0.45925 0.47966 0.0
Cd25 Cd 0.82033 0.4072 0.46609 0.0
O26 O 0.78317 0.35972 0.44185 0.0
C27 C 0.77095 0.3593 0.40747 0.0
O28 O 0.78166 0.38726 0.38803 0.0
C29 C 0.86915 0.4714 0.51228 0.0
C30 C 0.93617 0.55049 0.4054 0.0
O31 O 0.93841 0.57057 0.433 0.0
O32 O 0.90932 0.52284 0.40293 0.0
O33 O 0.39744 0.8897 0.69352 0.0
Cd34 Cd 0.36368 0.88528 0.63493 0.0
O35 O 0.40129 0.84994 0.66474 0.0
Cd36 Cd 0.41925 0.81551 0.65585 0.0
O37 O 0.42829 0.7764 0.63615 0.0
C38 C 0.41035 0.74759 0.65026 0.0
O39 O 0.38758 0.74268 0.67679 0.0
C40 C 0.40799 0.86952 0.69426 0.0
C41 C 0.39388 0.93832 0.58156 0.0
O42 O 0.37431 0.93742 0.60909 0.0
O43 O 0.39957 0.91435 0.57966 0.0
O44 O 0.50194 0.39786 0.84074 0.0
Cd45 Cd 0.48079 0.36931 0.77644 0.0
O46 O 0.54945 0.4104 0.81448 0.0
Cd47 Cd 0.60223 0.4279 0.81272 0.0
O48 O 0.64959 0.43392 0.7944 0.0
C49 C 0.65496 0.43382 0.75686 0.0
O50 O 0.63234 0.43123 0.73135 0.0
C51 C 0.53303 0.41195 0.84401 0.0
C52 C 0.4573 0.39896 0.72319 0.0
O53 O 0.43763 0.37521 0.74619 0.0
O54 O 0.48815 0.40906 0.72581 0.0
O55 O 0.0897 0.52127 0.98213 0.0
Cd56 Cd 0.09592 0.5179 0.9093 0.0
O57 O 0.13746 0.56563 0.97505 0.0
Cd58 Cd 0.182 0.61232 0.98816 0.0
O59 O 0.22756 0.6567 0.97093 0.0
C60 C 0.22872 0.66749 0.93539 0.0
O61 O 0.20259 0.652 0.91235 0.0
C62 C 0.11385 0.54639 0.99795 0.0
C63 C 0.03956 0.47344 0.86731 0.0
O64 O 0.06015 0.46512 0.88015 0.0
O65 O 0.0453 0.50256 0.87516 0.0
O66 O 0.88512 0.37691 0.64528 0.0
Cd67 Cd 0.88458 0.34613 0.70517 0.0
O68 O 0.85462 0.39074 0.68039 0.0
Cd69 Cd 0.82316 0.41167 0.69318 0.0
O70 O 0.78693 0.42334 0.71717 0.0
C71 C 0.76655 0.42558 0.69406 0.0
O72 O 0.76823 0.42166 0.65507 0.0
C73 C 0.8693 0.39227 0.64753 0.0
C74 C 0.93286 0.38642 0.76041 0.0
O75 O 0.93829 0.36951 0.73446 0.0
O76 O 0.90447 0.38409 0.76038 0.0
O77 O 0.52086 0.89389 0.82597 0.0
Cd78 Cd 0.55335 0.89419 0.88384 0.0
O79 O 0.47864 0.85567 0.85897 0.0
Cd80 Cd 0.4268 0.82128 0.87195 0.0
O81 O 0.37872 0.78353 0.89406 0.0
C82 C 0.35268 0.77504 0.87387 0.0
O83 O 0.355 0.78972 0.83924 0.0
C84 C 0.49017 0.87356 0.82766 0.0
C85 C 0.5659 0.94438 0.93823 0.0
O86 O 0.58677 0.94833 0.91077 0.0
O87 O 0.53899 0.91671 0.93982 0.0
O88 O 0.61204 0.50485 0.99905 0.0
Cd89 Cd 0.63859 0.52458 0.06464 0.0
O90 O 0.59386 0.45637 0.02604 0.0
Cd91 Cd 0.57147 0.40291 0.03084 0.0
O92 O 0.56306 0.35622 0.05607 0.0
C93 C 0.58079 0.35815 0.08612 0.0
O94 O 0.60223 0.38747 0.09972 0.0
C95 C 0.59575 0.47374 0.99554 0.0
C96 C 0.61029 0.55218 0.1132 0.0
O97 O 0.63542 0.57034 0.09118 0.0
O98 O 0.59829 0.52095 0.11185 0.0
O99 O 0.09466 0.57846 0.18533 0.0
Cd100 Cd 0.10259 0.59015 0.25766 0.0
O101 O 0.13876 0.57467 0.1926 0.0
Cd102 Cd 0.17914 0.56554 0.17971 0.0
O103 O 0.22271 0.56292 0.19701 0.0
C104 C 0.23386 0.5735 0.2321 0.0
O105 O 0.2188 0.58504 0.25439 0.0
C106 C 0.11633 0.57326 0.16971 0.0
C107 C 0.04681 0.57829 0.301 0.0
O108 O 0.06666 0.60694 0.28675 0.0
O109 O 0.05291 0.55506 0.29376 0.0
O110 O 0.50273 0.09601 0.35172 0.0
Cd111 Cd 0.49365 0.10476 0.42226 0.0
O112 O 0.55387 0.13018 0.36765 0.0
Cd113 Cd 0.60599 0.16524 0.35772 0.0
O114 O 0.6535 0.20927 0.36851 0.0
C115 C 0.66036 0.23592 0.35061 0.0
O116 O 0.63923 0.23566 0.3244 0.0
C117 C 0.53275 0.11249 0.34127 0.0
C118 C 0.45921 0.04866 0.47008 0.0
O119 O 0.44439 0.06194 0.45254 0.0
O120 O 0.49018 0.06133 0.46397 0.0
O121 O 0.40497 0.49931 0.48871 0.0
Cd122 Cd 0.37461 0.47502 0.5513 0.0
O123 O 0.41553 0.54529 0.51763 0.0
Cd124 Cd 0.4314 0.59754 0.52343 0.0
O125 O 0.43372 0.64158 0.54866 0.0
C126 C 0.41956 0.63795 0.58249 0.0
O127 O 0.40542 0.60876 0.59958 0.0
C128 C 0.41847 0.53046 0.48729 0.0
C129 C 0.40438 0.45186 0.60483 0.0
O130 O 0.38188 0.4323 0.58045 0.0
O131 O 0.4132 0.48247 0.60347 0.0
C132 C 0.53245 0.11524 0.227 0.0
C133 C 0.56044 0.11327 0.21654 0.0
C134 C 0.52343 0.11452 0.26747 0.0
C135 C 0.54245 0.11249 0.29891 0.0
H136 H 0.51703 0.11672 0.20375 0.0
H137 H 0.50164 0.116 0.27423 0.0
S138 S 0.61736 0.1057 0.28768 0.0
N139 N 0.60662 0.10829 0.24096 0.0
N140 N 0.5898 0.10731 0.317 0.0
C141 C 0.57036 0.11033 0.28893 0.0
C142 C 0.57928 0.11055 0.24773 0.0
C143 C 0.42227 0.53552 0.41227 0.0
C144 C 0.43563 0.54856 0.45032 0.0
C145 C 0.43783 0.55231 0.37667 0.0
C146 C 0.46756 0.58252 0.37782 0.0
H147 H 0.39944 0.51229 0.41 0.0
H148 H 0.42683 0.54114 0.34807 0.0
S149 S 0.51378 0.62594 0.46992 0.0
N150 N 0.48104 0.59256 0.48708 0.0
N151 N 0.5103 0.62423 0.42029 0.0
C152 C 0.48149 0.59547 0.41573 0.0
C153 C 0.46548 0.57852 0.45195 0.0
C154 C 0.86641 0.44013 0.61856 0.0
C155 C 0.86815 0.41139 0.61251 0.0
C156 C 0.86652 0.45922 0.5859 0.0
C157 C 0.86818 0.45021 0.54594 0.0
H158 H 0.86602 0.44861 0.64874 0.0
H159 H 0.86535 0.48128 0.59199 0.0
S160 S 0.87551 0.37856 0.51375 0.0
N161 N 0.87278 0.37551 0.56339 0.0
N162 N 0.87377 0.41189 0.50217 0.0
C163 C 0.87042 0.42185 0.53941 0.0
C164 C 0.87033 0.40239 0.57266 0.0
C165 C 0.45326 0.89985 0.74383 0.0
C166 C 0.42842 0.86972 0.7283 0.0
C167 C 0.47325 0.9008 0.77587 0.0
C168 C 0.46853 0.87169 0.79415 0.0
H169 H 0.45759 0.92285 0.73072 0.0
H170 H 0.49232 0.92453 0.78669 0.0
S171 S 0.40636 0.78653 0.76528 0.0
N172 N 0.39962 0.8101 0.73423 0.0
N173 N 0.43757 0.8119 0.79398 0.0
C174 C 0.44363 0.84141 0.77911 0.0
C175 C 0.42347 0.84043 0.74627 0.0
C176 C 0.55059 0.42808 0.95585 0.0
C177 C 0.58023 0.45839 0.95658 0.0
C178 C 0.53529 0.41341 0.91926 0.0
C179 C 0.54935 0.42827 0.88209 0.0
H180 H 0.53872 0.41588 0.98373 0.0
H181 H 0.51246 0.39007 0.92006 0.0
S182 S 0.62574 0.50842 0.86738 0.0
N183 N 0.62246 0.50328 0.91679 0.0
N184 N 0.5936 0.47567 0.84817 0.0
C185 C 0.57872 0.45872 0.88234 0.0
C186 C 0.59413 0.47382 0.91956 0.0
C187 C 0.14385 0.56932 0.06305 0.0
C188 C 0.114 0.55306 0.04165 0.0
C189 C 0.14442 0.57549 0.10453 0.0
C190 C 0.11518 0.56572 0.12616 0.0
H191 H 0.16695 0.57691 0.04787 0.0
H192 H 0.16803 0.5886 0.1195 0.0
S193 S 0.03053 0.52223 0.08427 0.0
N194 N 0.05443 0.52721 0.04527 0.0
N195 N 0.05552 0.53884 0.12307 0.0
C196 C 0.08518 0.54946 0.10511 0.0
C197 C 0.08458 0.54299 0.06297 0.0
C198 C 0.54973 0.26784 0.1091 0.0
C199 C 0.57243 0.26894 0.13772 0.0
C200 C 0.55247 0.29673 0.09289 0.0
C201 C 0.57786 0.32798 0.10487 0.0
H202 H 0.53002 0.24444 0.09834 0.0
H203 H 0.53461 0.29446 0.07054 0.0
S204 S 0.64264 0.34448 0.18079 0.0
N205 N 0.62043 0.30398 0.17862 0.0
N206 N 0.62553 0.35822 0.14844 0.0
C207 C 0.60026 0.32947 0.13429 0.0
C208 C 0.59757 0.30001 0.15061 0.0
C209 C 0.27785 0.59003 0.28419 0.0
C210 C 0.26364 0.57372 0.24776 0.0
C211 C 0.30632 0.59151 0.29963 0.0
C212 C 0.32179 0.57657 0.2795 0.0
H213 H 0.26716 0.60218 0.30089 0.0
H214 H 0.31632 0.60468 0.32757 0.0
S215 S 0.29398 0.52978 0.18355 0.0
N216 N 0.26686 0.54161 0.19229 0.0
N217 N 0.32031 0.54424 0.22139 0.0
C218 C 0.30759 0.55967 0.24332 0.0
C219 C 0.2786 0.55832 0.22743 0.0
C220 C 0.7343 0.29811 0.41085 0.0
C221 C 0.74408 0.328 0.39059 0.0
C222 C 0.70791 0.26841 0.39697 0.0
C223 C 0.69 0.2673 0.36235 0.0
H224 H 0.74681 0.29759 0.43807 0.0
H225 H 0.70106 0.24626 0.41422 0.0
S226 S 0.70685 0.33826 0.29662 0.0
N227 N 0.73466 0.35433 0.33274 0.0
N228 N 0.68505 0.29856 0.30684 0.0
C229 C 0.70007 0.29684 0.34108 0.0
C230 C 0.72708 0.32713 0.35513 0.0
C231 C 0.43418 0.69716 0.58345 0.0
C232 C 0.41801 0.66578 0.60154 0.0
C233 C 0.43214 0.72357 0.59989 0.0
C234 C 0.41366 0.71968 0.63497 0.0
H235 H 0.44835 0.7014 0.55609 0.0
H236 H 0.44468 0.74706 0.58442 0.0
S237 S 0.36803 0.64306 0.69538 0.0
N238 N 0.3839 0.63275 0.65764 0.0
N239 N 0.38 0.68228 0.68831 0.0
C240 C 0.3979 0.68863 0.65388 0.0
C241 C 0.4001 0.66175 0.63725 0.0
C242 C 0.68852 0.4308 0.70025 0.0
C243 C 0.68496 0.4342 0.74183 0.0
C244 C 0.71532 0.42882 0.68514 0.0
C245 C 0.73978 0.43015 0.71091 0.0
H246 H 0.67013 0.429 0.67905 0.0
H247 H 0.71642 0.42558 0.65297 0.0
S248 S 0.74348 0.44143 0.82207 0.0
N249 N 0.70928 0.44064 0.80843 0.0
N250 N 0.75964 0.43694 0.78007 0.0
C251 C 0.73714 0.4346 0.75248 0.0
C252 C 0.70977 0.43662 0.7679 0.0
C253 C 0.28854 0.70931 0.94262 0.0
C254 C 0.25954 0.69584 0.9195 0.0
C255 C 0.31832 0.735 0.92772 0.0
C256 C 0.32042 0.74849 0.8891 0.0
H257 H 0.28845 0.69967 0.97237 0.0
H258 H 0.33993 0.74419 0.94671 0.0
S259 S 0.25138 0.72289 0.8168 0.0
N260 N 0.23464 0.69859 0.85622 0.0
N261 N 0.29055 0.74684 0.82831 0.0
C262 C 0.29149 0.73566 0.86586 0.0
C263 C 0.26112 0.70938 0.88102 0.0
C264 C 0.55091 0.9969 0.01249 0.0
C265 C 0.58273 0.0233 0.02016 0.0
C266 C 0.5458 0.97119 0.98662 0.0
C267 C 0.57227 0.97116 0.9668 0.0
H268 H 0.52967 0.99609 0.02649 0.0
H269 H 0.52081 0.95156 0.98147 0.0
S270 S 0.66057 0.03416 0.9772 0.0
N271 N 0.64126 0.0474 0.00654 0.0
N272 N 0.6316 -0.00061 0.95743 0.0
C273 C 0.60427 0.99723 0.97448 0.0
C274 C 0.60952 0.02318 1.00131 0.0
C275 C 0.61644 0.59939 0.15442 0.0
C276 C 0.59635 0.56705 0.14043 0.0
C277 C 0.60436 0.61378 0.18135 0.0
C278 C 0.5715 0.59665 0.19467 0.0
H279 H 0.64193 0.61358 0.14504 0.0
H280 H 0.62084 0.6387 0.19144 0.0
S281 S 0.50852 0.51153 0.16636 0.0
N282 N 0.54191 0.5183 0.14176 0.0
N283 N 0.51896 0.54564 0.19163 0.0
C284 C 0.55099 0.56443 0.18053 0.0
C285 C 0.56348 0.54955 0.15365 0.0
C286 C 0.99237 0.5398 0.33246 0.0
C287 C 0.01819 0.57221 0.32614 0.0
C288 C 0.96568 0.53312 0.35747 0.0
C289 C 0.96399 0.55854 0.37773 0.0
H290 H 0.99277 0.51932 0.31805 0.0
H291 H 0.94656 0.50773 0.36159 0.0
S292 S 0.02487 0.6478 0.37078 0.0
N293 N 0.03997 0.63015 0.34152 0.0
N294 N 0.99007 0.61754 0.38898 0.0
C295 C 0.98947 0.59111 0.3714 0.0
C296 C 0.01645 0.59797 0.34547 0.0
C297 C 0.45457 -0.00041 0.50608 0.0
C298 C 0.44143 0.02009 0.49753 0.0
C299 C 0.4388 0.97298 0.53287 0.0
C300 C 0.40962 0.96623 0.55279 0.0
H301 H 0.47721 0.00404 0.49187 0.0
H302 H 0.44989 0.95792 0.53848 0.0
S303 S 0.365 0.0124 0.54087 0.0
N304 N 0.39722 0.03158 0.51084 0.0
N305 N 0.36794 0.98199 0.56171 0.0
C306 C 0.39618 0.98651 0.54452 0.0
C307 C 0.41196 0.01329 0.51672 0.0
C308 C 0.41257 0.39402 0.67783 0.0
C309 C 0.44452 0.41336 0.69343 0.0
C310 C 0.40009 0.40654 0.64866 0.0
C311 C 0.41877 0.43913 0.63467 0.0
H312 H 0.39722 0.3688 0.68775 0.0
H313 H 0.37539 0.39067 0.63747 0.0
S314 S 0.50366 0.50013 0.66634 0.0
N315 N 0.49465 0.46674 0.69267 0.0
N316 N 0.47082 0.49058 0.63868 0.0
C317 C 0.45064 0.45888 0.6503 0.0
C318 C 0.46361 0.4459 0.67943 0.0
C319 C 0.98592 0.40368 0.7962 0.0
C320 C 0.95882 0.40812 0.78929 0.0
C321 C 0.01136 0.42433 0.82238 0.0
C322 C 0.01103 0.45061 0.84224 0.0
H323 H 0.9876 0.3841 0.7812 0.0
H324 H 0.03186 0.42009 0.82626 0.0
S325 S 0.94526 0.47236 0.83545 0.0
N326 N 0.93272 0.44027 0.80543 0.0
N327 N 0.98081 0.47938 0.85414 0.0
C328 C 0.98388 0.45512 0.83605 0.0
C329 C 0.95772 0.43379 0.80975 0.0
loop_
_geom_bond_atom_site_label_1
_geom_bond_atom_site_label_2
_geom_bond_distance
_geom_bond_site_symmetry_2
_ccdc_geom_bond_type
O0 Cd1 2.300 . S
O0 C7 1.275 . S
Cd1 O0 2.300 . S
Cd1 O9 2.381 . S
Cd1 O10 2.378 . S
O2 Cd3 2.385 . S
O2 C7 1.255 . S
Cd3 O2 2.385 . S
Cd3 O4 2.317 . S
O4 Cd3 2.317 . S
O4 C5 1.232 . S
C5 O4 1.232 . S
C5 O6 1.218 . S
O6 C5 1.218 . S
C7 O0 1.275 . S
C7 O2 1.255 . S
C8 O9 1.258 . S
C8 O10 1.256 . S
O9 Cd1 2.381 . S
O9 C8 1.258 . S
O10 Cd1 2.378 . S
O10 C8 1.256 . S
O11 Cd12 2.300 . S
O11 C18 1.275 . S
Cd12 O11 2.300 . S
Cd12 O20 2.381 . S
Cd12 O21 2.378 . S
O13 Cd14 2.385 . S
O13 C18 1.255 . S
Cd14 O13 2.385 . S
Cd14 O15 2.317 . S
O15 Cd14 2.317 . S
O15 C16 1.232 . S
C16 O15 1.232 . S
C16 O17 1.218 . S
O17 C16 1.218 . S
C18 O11 1.275 . S
C18 O13 1.255 . S
C19 O20 1.258 . S
C19 O21 1.256 . S
O20 Cd12 2.381 . S
O20 C19 1.258 . S
O21 Cd12 2.378 . S
O21 C19 1.256 . S
O22 Cd23 2.300 . S
O22 C29 1.275 . S
Cd23 O22 2.300 . S
Cd23 O31 2.381 . S
Cd23 O32 2.378 . S
O24 Cd25 2.385 . S
O24 C29 1.255 . S
Cd25 O24 2.385 . S
Cd25 O26 2.317 . S
O26 Cd25 2.317 . S
O26 C27 1.232 . S
C27 O26 1.232 . S
C27 O28 1.218 . S
O28 C27 1.218 . S
C29 O22 1.275 . S
C29 O24 1.255 . S
C30 O31 1.258 . S
C30 O32 1.256 . S
O31 Cd23 2.381 . S
O31 C30 1.258 . S
O32 Cd23 2.378 . S
O32 C30 1.256 . S
O33 Cd34 2.300 . S
O33 C40 1.275 . S
Cd34 O33 2.300 . S
Cd34 O42 2.381 . S
Cd34 O43 2.378 . S
O35 Cd36 2.385 . S
O35 C40 1.255 . S
Cd36 O35 2.385 . S
Cd36 O37 2.317 . S
O37 Cd36 2.317 . S
O37 C38 1.232 . S
C38 O37 1.232 . S
C38 O39 1.218 . S
O39 C38 1.218 . S
C40 O33 1.275 . S
C40 O35 1.255 . S
C41 O42 1.258 . S
C41 O43 1.256 . S
O42 Cd34 2.381 . S
O42 C41 1.258 . S
O43 Cd34 2.378 . S
O43 C41 1.256 . S
O44 Cd45 2.300 . S
O44 C51 1.275 . S
Cd45 O44 2.300 . S
Cd45 O53 2.381 . S
Cd45 O54 2.378 . S
O46 Cd47 2.385 . S
O46 C51 1.255 . S
Cd47 O46 2.385 . S
Cd47 O48 2.317 . S
O48 Cd47 2.317 . S
O48 C49 1.232 . S
C49 O48 1.232 . S
C49 O50 1.218 . S
O50 C49 1.218 . S
C51 O44 1.275 . S
C51 O46 1.255 . S
C52 O53 1.258 . S
C52 O54 1.256 . S
O53 Cd45 2.381 . S
O53 C52 1.258 . S
O54 Cd45 2.378 . S
O54 C52 1.256 . S
O55 Cd56 2.300 . S
O55 C62 1.275 . S
Cd56 O55 2.300 . S
Cd56 O64 2.381 . S
Cd56 O65 2.378 . S
O57 Cd58 2.385 . S
O57 C62 1.255 . S
Cd58 O57 2.385 . S
Cd58 O59 2.317 . S
O59 Cd58 2.317 . S
O59 C60 1.232 . S
C60 O59 1.232 . S
C60 O61 1.218 . S
O61 C60 1.218 . S
C62 O55 1.275 . S
C62 O57 1.255 . S
C63 O64 1.258 . S
C63 O65 1.256 . S
O64 Cd56 2.381 . S
O64 C63 1.258 . S
O65 Cd56 2.378 . S
O65 C63 1.256 . S
O66 Cd67 2.300 . S
O66 C73 1.275 . S
Cd67 O66 2.300 . S
Cd67 O75 2.381 . S
Cd67 O76 2.378 . S
O68 Cd69 2.385 . S
O68 C73 1.255 . S
Cd69 O68 2.385 . S
Cd69 O70 2.317 . S
O70 Cd69 2.317 . S
O70 C71 1.232 . S
C71 O70 1.232 . S
C71 O72 1.218 . S
O72 C71 1.218 . S
C73 O66 1.275 . S
C73 O68 1.255 . S
C74 O75 1.258 . S
C74 O76 1.256 . S
O75 Cd67 2.381 . S
O75 C74 1.258 . S
O76 Cd67 2.378 . S
O76 C74 1.256 . S
O77 Cd78 2.300 . S
O77 C84 1.275 . S
Cd78 O77 2.300 . S
Cd78 O86 2.381 . S
Cd78 O87 2.378 . S
O79 Cd80 2.385 . S
O79 C84 1.255 . S
Cd80 O79 2.385 . S
Cd80 O81 2.317 . S
O81 Cd80 2.317 . S
O81 C82 1.232 . S
C82 O81 1.232 . S
C82 O83 1.218 . S
O83 C82 1.218 . S
C84 O77 1.275 . S
C84 O79 1.255 . S
C85 O86 1.258 . S
C85 O87 1.256 . S
O86 Cd78 2.381 . S
O86 C85 1.258 . S
O87 Cd78 2.378 . S
O87 C85 1.256 . S
O88 Cd89 2.300 . S
O88 C95 1.275 . S
Cd89 O88 2.300 . S
Cd89 O97 2.381 . S
Cd89 O98 2.378 . S
O90 Cd91 2.385 . S
O90 C95 1.255 . S
Cd91 O90 2.385 . S
Cd91 O92 2.317 . S
O92 Cd91 2.317 . S
O92 C93 1.232 . S
C93 O92 1.232 . S
C93 O94 1.218 . S
O94 C93 1.218 . S
C95 O88 1.275 . S
C95 O90 1.255 . S
C96 O97 1.258 . S
C96 O98 1.256 . S
O97 Cd89 2.381 . S
O97 C96 1.258 . S
O98 Cd89 2.378 . S
O98 C96 1.256 . S
O99 Cd100 2.300 . S
O99 C106 1.275 . S
Cd100 O99 2.300 . S
Cd100 O108 2.381 . S
Cd100 O109 2.378 . S
O101 Cd102 2.385 . S
O101 C106 1.255 . S
Cd102 O101 2.385 . S
Cd102 O103 2.317 . S
O103 Cd102 2.317 . S
O103 C104 1.232 . S
C104 O103 1.232 . S
C104 O105 1.218 . S
O105 C104 1.218 . S
C106 O99 1.275 . S
C106 O101 1.255 . S
C107 O108 1.258 . S
C107 O109 1.256 . S
O108 Cd100 2.381 . S
O108 C107 1.258 . S
O109 Cd100 2.378 . S
O109 C107 1.256 . S
O110 Cd111 2.300 . S
O110 C117 1.275 . S
Cd111 O110 2.300 . S
Cd111 O119 2.381 . S
Cd111 O120 2.378 . S
O112 Cd113 2.385 . S
O112 C117 1.255 . S
Cd113 O112 2.385 . S
Cd113 O114 2.317 . S
O114 Cd113 2.317 . S
O114 C115 1.232 . S
C115 O114 1.232 . S
C115 O116 1.218 . S
O116 C115 1.218 . S
C117 O110 1.275 . S
C117 O112 1.255 . S
C118 O119 1.258 . S
C118 O120 1.256 . S
O119 Cd111 2.381 . S
O119 C118 1.258 . S
O120 Cd111 2.378 . S
O120 C118 1.256 . S
O121 Cd122 2.300 . S
O121 C128 1.275 . S
Cd122 O121 2.300 . S
Cd122 O130 2.381 . S
Cd122 O131 2.378 . S
O123 Cd124 2.385 . S
O123 C128 1.255 . S
Cd124 O123 2.385 . S
Cd124 O125 2.317 . S
O125 Cd124 2.317 . S
O125 C126 1.232 . S
C126 O125 1.232 . S
C126 O127 1.218 . S
O127 C126 1.218 . S
C128 O121 1.275 . S
C128 O123 1.255 . S
C129 O130 1.258 . S
C129 O131 1.256 . S
O130 Cd122 2.381 . S
O130 C129 1.258 . S
O131 Cd122 2.378 . S
O131 C129 1.256 . S
C132 C133 1.369 . S
C132 C134 1.419 . S
C132 H136 0.930 . S
C133 C132 1.369 . S
C133 C142 1.429 . S
C134 C132 1.419 . S
C134 C135 1.363 . S
C134 H137 0.929 . S
C135 C134 1.363 . S
C135 C141 1.428 . S
H136 C132 0.930 . S
H137 C134 0.929 . S
S138 N139 1.613 . S
S138 N140 1.610 . S
N139 S138 1.613 . S
N139 C142 1.350 . S
N140 S138 1.610 . S
N140 C141 1.351 . S
C141 C135 1.428 . S
C141 N140 1.351 . S
C141 C142 1.434 . S
C142 C133 1.429 . S
C142 N139 1.350 . S
C142 C141 1.434 . S
C143 C144 1.369 . S
C143 C145 1.419 . S
C143 H147 0.930 . S
C144 C143 1.369 . S
C144 C153 1.429 . S
C145 C143 1.419 . S
C145 C146 1.363 . S
C145 H148 0.929 . S
C146 C145 1.363 . S
C146 C152 1.428 . S
H147 C143 0.930 . S
H148 C145 0.929 . S
S149 N150 1.613 . S
S149 N151 1.610 . S
N150 S149 1.613 . S
N150 C153 1.350 . S
N151 S149 1.610 . S
N151 C152 1.351 . S
C152 C146 1.428 . S
C152 N151 1.351 . S
C152 C153 1.434 . S
C153 C144 1.429 . S
C153 N150 1.350 . S
C153 C152 1.434 . S
C154 C155 1.369 . S
C154 C156 1.419 . S
C154 H158 0.930 . S
C155 C154 1.369 . S
C155 C164 1.429 . S
C156 C154 1.419 . S
C156 C157 1.363 . S
C156 H159 0.929 . S
C157 C156 1.363 . S
C157 C163 1.428 . S
H158 C154 0.930 . S
H159 C156 0.929 . S
S160 N161 1.613 . S
S160 N162 1.610 . S
N161 S160 1.613 . S
N161 C164 1.350 . S
N162 S160 1.610 . S
N162 C163 1.351 . S
C163 C157 1.428 . S
C163 N162 1.351 . S
C163 C164 1.434 . S
C164 C155 1.429 . S
C164 N161 1.350 . S
C164 C163 1.434 . S
C165 C166 1.369 . S
C165 C167 1.419 . S
C165 H169 0.930 . S
C166 C165 1.369 . S
C166 C175 1.429 . S
C167 C165 1.419 . S
C167 C168 1.363 . S
C167 H170 0.929 . S
C168 C167 1.363 . S
C168 C174 1.428 . S
H169 C165 0.930 . S
H170 C167 0.929 . S
S171 N172 1.613 . S
S171 N173 1.610 . S
N172 S171 1.613 . S
N172 C175 1.350 . S
N173 S171 1.610 . S
N173 C174 1.351 . S
C174 C168 1.428 . S
C174 N173 1.351 . S
C174 C175 1.434 . S
C175 C166 1.429 . S
C175 N172 1.350 . S
C175 C174 1.434 . S
C176 C177 1.369 . S
C176 C178 1.419 . S
C176 H180 0.930 . S
C177 C176 1.369 . S
C177 C186 1.429 . S
C178 C176 1.419 . S
C178 C179 1.363 . S
C178 H181 0.929 . S
C179 C178 1.363 . S
C179 C185 1.428 . S
H180 C176 0.930 . S
H181 C178 0.929 . S
S182 N183 1.613 . S
S182 N184 1.610 . S
N183 S182 1.613 . S
N183 C186 1.350 . S
N184 S182 1.610 . S
N184 C185 1.351 . S
C185 C179 1.428 . S
C185 N184 1.351 . S
C185 C186 1.434 . S
C186 C177 1.429 . S
C186 N183 1.350 . S
C186 C185 1.434 . S
C187 C188 1.369 . S
C187 C189 1.419 . S
C187 H191 0.930 . S
C188 C187 1.369 . S
C188 C197 1.429 . S
C189 C187 1.419 . S
C189 C190 1.363 . S
C189 H192 0.929 . S
C190 C189 1.363 . S
C190 C196 1.428 . S
H191 C187 0.930 . S
H192 C189 0.929 . S
S193 N194 1.613 . S
S193 N195 1.610 . S
N194 S193 1.613 . S
N194 C197 1.350 . S
N195 S193 1.610 . S
N195 C196 1.351 . S
C196 C190 1.428 . S
C196 N195 1.351 . S
C196 C197 1.434 . S
C197 C188 1.429 . S
C197 N194 1.350 . S
C197 C196 1.434 . S
C198 C199 1.369 . S
C198 C200 1.419 . S
C198 H202 0.930 . S
C199 C198 1.369 . S
C199 C208 1.429 . S
C200 C198 1.419 . S
C200 C201 1.363 . S
C200 H203 0.929 . S
C201 C200 1.363 . S
C201 C207 1.428 . S
H202 C198 0.930 . S
H203 C200 0.929 . S
S204 N205 1.613 . S
S204 N206 1.610 . S
N205 S204 1.613 . S
N205 C208 1.350 . S
N206 S204 1.610 . S
N206 C207 1.351 . S
C207 C201 1.428 . S
C207 N206 1.351 . S
C207 C208 1.434 . S
C208 C199 1.429 . S
C208 N205 1.350 . S
C208 C207 1.434 . S
C209 C210 1.369 . S
C209 C211 1.419 . S
C209 H213 0.930 . S
C210 C209 1.369 . S
C210 C219 1.429 . S
C211 C209 1.419 . S
C211 C212 1.363 . S
C211 H214 0.929 . S
C212 C211 1.363 . S
C212 C218 1.428 . S
H213 C209 0.930 . S
H214 C211 0.929 . S
S215 N216 1.613 . S
S215 N217 1.610 . S
N216 S215 1.613 . S
N216 C219 1.350 . S
N217 S215 1.610 . S
N217 C218 1.351 . S
C218 C212 1.428 . S
C218 N217 1.351 . S
C218 C219 1.434 . S
C219 C210 1.429 . S
C219 N216 1.350 . S
C219 C218 1.434 . S
C220 C221 1.369 . S
C220 C222 1.419 . S
C220 H224 0.930 . S
C221 C220 1.369 . S
C221 C230 1.429 . S
C222 C220 1.419 . S
C222 C223 1.363 . S
C222 H225 0.929 . S
C223 C222 1.363 . S
C223 C229 1.428 . S
H224 C220 0.930 . S
H225 C222 0.929 . S
S226 N227 1.613 . S
S226 N228 1.610 . S
N227 S226 1.613 . S
N227 C230 1.350 . S
N228 S226 1.610 . S
N228 C229 1.351 . S
C229 C223 1.428 . S
C229 N228 1.351 . S
C229 C230 1.434 . S
C230 C221 1.429 . S
C230 N227 1.350 . S
C230 C229 1.434 . S
C231 C232 1.369 . S
C231 C233 1.419 . S
C231 H235 0.930 . S
C232 C231 1.369 . S
C232 C241 1.429 . S
C233 C231 1.419 . S
C233 C234 1.363 . S
C233 H236 0.929 . S
C234 C233 1.363 . S
C234 C240 1.428 . S
H235 C231 0.930 . S
H236 C233 0.929 . S
S237 N238 1.613 . S
S237 N239 1.610 . S
N238 S237 1.613 . S
N238 C241 1.350 . S
N239 S237 1.610 . S
N239 C240 1.351 . S
C240 C234 1.428 . S
C240 N239 1.351 . S
C240 C241 1.434 . S
C241 C232 1.429 . S
C241 N238 1.350 . S
C241 C240 1.434 . S
C242 C243 1.369 . S
C242 C244 1.419 . S
C242 H246 0.930 . S
C243 C242 1.369 . S
C243 C252 1.429 . S
C244 C242 1.419 . S
C244 C245 1.363 . S
C244 H247 0.929 . S
C245 C244 1.363 . S
C245 C251 1.428 . S
H246 C242 0.930 . S
H247 C244 0.929 . S
S248 N249 1.613 . S
S248 N250 1.610 . S
N249 S248 1.613 . S
N249 C252 1.350 . S
N250 S248 1.610 . S
N250 C251 1.351 . S
C251 C245 1.428 . S
C251 N250 1.351 . S
C251 C252 1.434 . S
C252 C243 1.429 . S
C252 N249 1.350 . S
C252 C251 1.434 . S
C253 C254 1.369 . S
C253 C255 1.419 . S
C253 H257 0.930 . S
C254 C253 1.369 . S
C254 C263 1.429 . S
C255 C253 1.419 . S
C255 C256 1.363 . S
C255 H258 0.929 . S
C256 C255 1.363 . S
C256 C262 1.428 . S
H257 C253 0.930 . S
H258 C255 0.929 . S
S259 N260 1.613 . S
S259 N261 1.610 . S
N260 S259 1.613 . S
N260 C263 1.350 . S
N261 S259 1.610 . S
N261 C262 1.351 . S
C262 C256 1.428 . S
C262 N261 1.351 . S
C262 C263 1.434 . S
C263 C254 1.429 . S
C263 N260 1.350 . S
C263 C262 1.434 . S
C264 C265 1.369 . S
C264 C266 1.419 1_545 S
C264 H268 0.930 . S
C265 C264 1.369 . S
C265 C274 1.429 1_554 S
C266 C264 1.419 1_565 S
C266 C267 1.363 1_554 S
C266 H269 0.929 . S
C267 C266 1.363 1_556 S
C267 C273 1.428 . S
H268 C264 0.930 . S
H269 C266 0.929 . S
S270 N271 1.613 . S
S270 N272 1.610 1_545 S
N271 S270 1.613 . S
N271 C274 1.350 . S
N272 S270 1.610 1_565 S
N272 C273 1.351 . S
C273 C267 1.428 . S
C273 N272 1.351 . S
C273 C274 1.434 1_565 S
C274 C265 1.429 1_556 S
C274 N271 1.350 . S
C274 C273 1.434 1_545 S
C275 C276 1.369 . S
C275 C277 1.419 . S
C275 H279 0.930 . S
C276 C275 1.369 . S
C276 C285 1.429 . S
C277 C275 1.419 . S
C277 C278 1.363 . S
C277 H280 0.929 . S
C278 C277 1.363 . S
C278 C284 1.428 . S
H279 C275 0.930 . S
H280 C277 0.929 . S
S281 N282 1.613 . S
S281 N283 1.610 . S
N282 S281 1.613 . S
N282 C285 1.350 . S
N283 S281 1.610 . S
N283 C284 1.351 . S
C284 C278 1.428 . S
C284 N283 1.351 . S
C284 C285 1.434 . S
C285 C276 1.429 . S
C285 N282 1.350 . S
C285 C284 1.434 . S
C286 C287 1.369 . S
C286 C288 1.419 1_455 S
C286 H290 0.930 . S
C287 C286 1.369 . S
C287 C296 1.429 . S
C288 C286 1.419 1_655 S
C288 C289 1.363 . S
C288 H291 0.929 . S
C289 C288 1.363 . S
C289 C295 1.428 . S
H290 C286 0.930 . S
H291 C288 0.929 . S
S292 N293 1.613 . S
S292 N294 1.610 1_455 S
N293 S292 1.613 . S
N293 C296 1.350 . S
N294 S292 1.610 1_655 S
N294 C295 1.351 . S
C295 C289 1.428 . S
C295 N294 1.351 . S
C295 C296 1.434 1_655 S
C296 C287 1.429 . S
C296 N293 1.350 . S
C296 C295 1.434 1_455 S
C297 C298 1.369 . S
C297 C299 1.419 1_545 S
C297 H301 0.930 . S
C298 C297 1.369 . S
C298 C307 1.429 . S
C299 C297 1.419 1_565 S
C299 C300 1.363 . S
C299 H302 0.929 . S
C300 C299 1.363 . S
C300 C306 1.428 . S
H301 C297 0.930 . S
H302 C299 0.929 . S
S303 N304 1.613 1_565 S
S303 N305 1.610 . S
N304 S303 1.613 1_545 S
N304 C307 1.350 . S
N305 S303 1.610 . S
N305 C306 1.351 . S
C306 C300 1.428 . S
C306 N305 1.351 . S
C306 C307 1.434 1_565 S
C307 C298 1.429 . S
C307 N304 1.350 . S
C307 C306 1.434 1_545 S
C308 C309 1.369 . S
C308 C310 1.419 . S
C308 H312 0.930 . S
C309 C308 1.369 . S
C309 C318 1.429 . S
C310 C308 1.419 . S
C310 C311 1.363 . S
C310 H313 0.929 . S
C311 C310 1.363 . S
C311 C317 1.428 . S
H312 C308 0.930 . S
H313 C310 0.929 . S
S314 N315 1.613 . S
S314 N316 1.610 . S
N315 S314 1.613 . S
N315 C318 1.350 . S
N316 S314 1.610 . S
N316 C317 1.351 . S
C317 C311 1.428 . S
C317 N316 1.351 . S
C317 C318 1.434 . S
C318 C309 1.429 . S
C318 N315 1.350 . S
C318 C317 1.434 . S
C319 C320 1.369 . S
C319 C321 1.419 1_655 S
C319 H323 0.930 . S
C320 C319 1.369 . S
C320 C329 1.429 . S
C321 C319 1.419 1_455 S
C321 C322 1.363 . S
C321 H324 0.929 . S
C322 C321 1.363 . S
C322 C328 1.428 . S
H323 C319 0.930 . S
H324 C321 0.929 . S
S325 N326 1.613 1_455 S
S325 N327 1.610 . S
N326 S325 1.613 1_655 S
N326 C329 1.350 . S
N327 S325 1.610 . S
N327 C328 1.351 . S
C328 C322 1.428 . S
C328 N327 1.351 . S
C328 C329 1.434 1_455 S
C329 C320 1.429 . S
C329 N326 1.350 . S
C329 C328 1.434 1_655 S
C133 C7 1.549 . S
C135 C117 1.545 . S
C144 C128 1.543 . S
C146 C18 1.550 . S
C155 C73 1.545 . S
C157 C29 1.545 . S
C166 C40 1.551 . S
C168 C84 1.553 . S
C177 C95 1.549 1_556 S
C179 C51 1.544 . S
C188 C62 1.543 1_554 S
C190 C106 1.547 . S
C199 C5 1.315 . S
C201 C93 1.322 . S
C210 C104 1.307 . S
C212 C16 1.308 . S
C221 C27 1.322 . S
C223 C115 1.318 . S
C232 C126 1.323 . S
C234 C38 1.313 . S
C243 C49 1.304 . S
C245 C71 1.311 . S
C254 C60 1.322 . S
C256 C82 1.311 . S
C265 C8 1.577 . S
C267 C85 1.573 . S
C276 C96 1.575 . S
C278 C19 1.572 . S
C287 C107 1.577 . S
C289 C30 1.572 . S
C298 C118 1.576 . S
C300 C41 1.577 . S
C309 C52 1.572 . S
C311 C129 1.573 . S
C320 C74 1.571 . S
C322 C63 1.574 . S
