# Generated by pormake.
# Topology ato, (4)-cn, num edge types: 1
# Building blocks:
#     Node 0, Type 0, BuildingBlock: NAHDIM_clean_sbu_0, # of connection points: 4
#     Node 1, Type 0, BuildingBlock: NAHDIM_clean_sbu_0, # of connection points: 4
#     Node 2, Type 0, BuildingBlock: NAHDIM_clean_sbu_0, # of connection points: 4
#     Node 3, Type 0, BuildingBlock: NAHDIM_clean_sbu_0, # of connection points: 4
#     Node 4, Type 0, BuildingBlock: NAHDIM_clean_sbu_0, # of connection points: 4
#     Node 5, Type 0, BuildingBlock: NAHDIM_clean_sbu_0, # of connection points: 4
#     Node 6, Type 0, BuildingBlock: NAHDIM_clean_sbu_0, # of connection points: 4
#     Node 7, Type 0, BuildingBlock: NAHDIM_clean_sbu_0, # of connection points: 4
#     Node 8, Type 0, BuildingBlock: NAHDIM_clean_sbu_0, # of connection points: 4
#     Node 9, Type 0, BuildingBlock: NAHDIM_clean_sbu_0, # of connection points: 4
#     Node 10, Type 0, BuildingBlock: NAHDIM_clean_sbu_0, # of connection points: 4
#     Node 11, Type 0, BuildingBlock: NAHDIM_clean_sbu_0, # of connection points: 4
#     Node 12, Type 0, BuildingBlock: NAHDIM_clean_sbu_0, # of connection points: 4
#     Node 13, Type 0, BuildingBlock: NAHDIM_clean_sbu_0, # of connection points: 4
#     Node 14, Type 0, BuildingBlock: NAHDIM_clean_sbu_0, # of connection points: 4
#     Node 15, Type 0, BuildingBlock: NAHDIM_clean_sbu_0, # of connection points: 4
#     Node 16, Type 0, BuildingBlock: NAHDIM_clean_sbu_0, # of connection points: 4
#     Node 17, Type 0, BuildingBlock: NAHDIM_clean_sbu_0, # of connection points: 4
#     Node 18, Type 0, BuildingBlock: NAHDIM_clean_sbu_0, # of connection points: 4
#     Node 19, Type 0, BuildingBlock: NAHDIM_clean_sbu_0, # of connection points: 4
#     Node 20, Type 0, BuildingBlock: NAHDIM_clean_sbu_0, # of connection points: 4
#     Node 21, Type 0, BuildingBlock: NAHDIM_clean_sbu_0, # of connection points: 4
#     Node 22, Type 0, BuildingBlock: NAHDIM_clean_sbu_0, # of connection points: 4
#     Node 23, Type 0, BuildingBlock: NAHDIM_clean_sbu_0, # of connection points: 4
#     Node 24, Type 0, BuildingBlock: NAHDIM_clean_sbu_0, # of connection points: 4
#     Node 25, Type 0, BuildingBlock: NAHDIM_clean_sbu_0, # of connection points: 4
#     Node 26, Type 0, BuildingBlock: NAHDIM_clean_sbu_0, # of connection points: 4
#     Node 27, Type 0, BuildingBlock: NAHDIM_clean_sbu_0, # of connection points: 4
#     Node 28, Type 0, BuildingBlock: NAHDIM_clean_sbu_0, # of connection points: 4
#     Node 29, Type 0, BuildingBlock: NAHDIM_clean_sbu_0, # of connection points: 4
#     Node 30, Type 0, BuildingBlock: NAHDIM_clean_sbu_0, # of connection points: 4
#     Node 31, Type 0, BuildingBlock: NAHDIM_clean_sbu_0, # of connection points: 4
#     Node 32, Type 0, BuildingBlock: NAHDIM_clean_sbu_0, # of connection points: 4
#     Node 33, Type 0, BuildingBlock: NAHDIM_clean_sbu_0, # of connection points: 4
#     Node 34, Type 0, BuildingBlock: NAHDIM_clean_sbu_0, # of connection points: 4
#     Node 35, Type 0, BuildingBlock: NAHDIM_clean_sbu_0, # of connection points: 4
#     Edge 36, Type (0, 0), BuildingBlock: CIFDUS_clean_linker_0, # of connection points: 2
#     Edge 37, Type (0, 0), BuildingBlock: CIFDUS_clean_linker_0, # of connection points: 2
#     Edge 38, Type (0, 0), BuildingBlock: CIFDUS_clean_linker_0, # of connection points: 2
#     Edge 39, Type (0, 0), BuildingBlock: CIFDUS_clean_linker_0, # of connection points: 2
#     Edge 40, Type (0, 0), BuildingBlock: CIFDUS_clean_linker_0, # of connection points: 2
#     Edge 41, Type (0, 0), BuildingBlock: CIFDUS_clean_linker_0, # of connection points: 2
#     Edge 42, Type (0, 0), BuildingBlock: CIFDUS_clean_linker_0, # of connection points: 2
#     Edge 43, Type (0, 0), BuildingBlock: CIFDUS_clean_linker_0, # of connection points: 2
#     Edge 44, Type (0, 0), BuildingBlock: CIFDUS_clean_linker_0, # of connection points: 2
#     Edge 45, Type (0, 0), BuildingBlock: CIFDUS_clean_linker_0, # of connection points: 2
#     Edge 46, Type (0, 0), BuildingBlock: CIFDUS_clean_linker_0, # of connection points: 2
#     Edge 47, Type (0, 0), BuildingBlock: CIFDUS_clean_linker_0, # of connection points: 2
#     Edge 48, Type (0, 0), BuildingBlock: CIFDUS_clean_linker_0, # of connection points: 2
#     Edge 49, Type (0, 0), BuildingBlock: CIFDUS_clean_linker_0, # of connection points: 2
#     Edge 50, Type (0, 0), BuildingBlock: CIFDUS_clean_linker_0, # of connection points: 2
#     Edge 51, Type (0, 0), BuildingBlock: CIFDUS_clean_linker_0, # of connection points: 2
#     Edge 52, Type (0, 0), BuildingBlock: CIFDUS_clean_linker_0, # of connection points: 2
#     Edge 53, Type (0, 0), BuildingBlock: CIFDUS_clean_linker_0, # of connection points: 2
#     Edge 54, Type (0, 0), BuildingBlock: CIFDUS_clean_linker_0, # of connection points: 2
#     Edge 55, Type (0, 0), BuildingBlock: CIFDUS_clean_linker_0, # of connection points: 2
#     Edge 56, Type (0, 0), BuildingBlock: CIFDUS_clean_linker_0, # of connection points: 2
#     Edge 57, Type (0, 0), BuildingBlock: CIFDUS_clean_linker_0, # of connection points: 2
#     Edge 58, Type (0, 0), BuildingBlock: CIFDUS_clean_linker_0, # of connection points: 2
#     Edge 59, Type (0, 0), BuildingBlock: CIFDUS_clean_linker_0, # of connection points: 2
#     Edge 60, Type (0, 0), BuildingBlock: CIFDUS_clean_linker_0, # of connection points: 2
#     Edge 61, Type (0, 0), BuildingBlock: CIFDUS_clean_linker_0, # of connection points: 2
#     Edge 62, Type (0, 0), BuildingBlock: CIFDUS_clean_linker_0, # of connection points: 2
#     Edge 63, Type (0, 0), BuildingBlock: CIFDUS_clean_linker_0, # of connection points: 2
#     Edge 64, Type (0, 0), BuildingBlock: CIFDUS_clean_linker_0, # of connection points: 2
#     Edge 65, Type (0, 0), BuildingBlock: CIFDUS_clean_linker_0, # of connection points: 2
#     Edge 66, Type (0, 0), BuildingBlock: CIFDUS_clean_linker_0, # of connection points: 2
#     Edge 67, Type (0, 0), BuildingBlock: CIFDUS_clean_linker_0, # of connection points: 2
#     Edge 68, Type (0, 0), BuildingBlock: CIFDUS_clean_linker_0, # of connection points: 2
#     Edge 69, Type (0, 0), BuildingBlock: CIFDUS_clean_linker_0, # of connection points: 2
#     Edge 70, Type (0, 0), BuildingBlock: CIFDUS_clean_linker_0, # of connection points: 2
#     Edge 71, Type (0, 0), BuildingBlock: CIFDUS_clean_linker_0, # of connection points: 2
#     Edge 72, Type (0, 0), BuildingBlock: CIFDUS_clean_linker_0, # of connection points: 2
#     Edge 73, Type (0, 0), BuildingBlock: CIFDUS_clean_linker_0, # of connection points: 2
#     Edge 74, Type (0, 0), BuildingBlock: CIFDUS_clean_linker_0, # of connection points: 2
#     Edge 75, Type (0, 0), BuildingBlock: CIFDUS_clean_linker_0, # of connection points: 2
#     Edge 76, Type (0, 0), BuildingBlock: CIFDUS_clean_linker_0, # of connection points: 2
#     Edge 77, Type (0, 0), BuildingBlock: CIFDUS_clean_linker_0, # of connection points: 2
#     Edge 78, Type (0, 0), BuildingBlock: CIFDUS_clean_linker_0, # of connection points: 2
#     Edge 79, Type (0, 0), BuildingBlock: CIFDUS_clean_linker_0, # of connection points: 2
#     Edge 80, Type (0, 0), BuildingBlock: CIFDUS_clean_linker_0, # of connection points: 2
#     Edge 81, Type (0, 0), BuildingBlock: CIFDUS_clean_linker_0, # of connection points: 2
#     Edge 82, Type (0, 0), BuildingBlock: CIFDUS_clean_linker_0, # of connection points: 2
#     Edge 83, Type (0, 0), BuildingBlock: CIFDUS_clean_linker_0, # of connection points: 2
#     Edge 84, Type (0, 0), BuildingBlock: CIFDUS_clean_linker_0, # of connection points: 2
#     Edge 85, Type (0, 0), BuildingBlock: CIFDUS_clean_linker_0, # of connection points: 2
#     Edge 86, Type (0, 0), BuildingBlock: CIFDUS_clean_linker_0, # of connection points: 2
#     Edge 87, Type (0, 0), BuildingBlock: CIFDUS_clean_linker_0, # of connection points: 2
#     Edge 88, Type (0, 0), BuildingBlock: CIFDUS_clean_linker_0, # of connection points: 2
#     Edge 89, Type (0, 0), BuildingBlock: CIFDUS_clean_linker_0, # of connection points: 2
#     Edge 90, Type (0, 0), BuildingBlock: CIFDUS_clean_linker_0, # of connection points: 2
#     Edge 91, Type (0, 0), BuildingBlock: CIFDUS_clean_linker_0, # of connection points: 2
#     Edge 92, Type (0, 0), BuildingBlock: CIFDUS_clean_linker_0, # of connection points: 2
#     Edge 93, Type (0, 0), BuildingBlock: CIFDUS_clean_linker_0, # of connection points: 2
#     Edge 94, Type (0, 0), BuildingBlock: CIFDUS_clean_linker_0, # of connection points: 2
#     Edge 95, Type (0, 0), BuildingBlock: CIFDUS_clean_linker_0, # of connection points: 2
#     Edge 96, Type (0, 0), BuildingBlock: CIFDUS_clean_linker_0, # of connection points: 2
#     Edge 97, Type (0, 0), BuildingBlock: CIFDUS_clean_linker_0, # of connection points: 2
#     Edge 98, Type (0, 0), BuildingBlock: CIFDUS_clean_linker_0, # of connection points: 2
#     Edge 99, Type (0, 0), BuildingBlock: CIFDUS_clean_linker_0, # of connection points: 2
#     Edge 100, Type (0, 0), BuildingBlock: CIFDUS_clean_linker_0, # of connection points: 2
#     Edge 101, Type (0, 0), BuildingBlock: CIFDUS_clean_linker_0, # of connection points: 2
#     Edge 102, Type (0, 0), BuildingBlock: CIFDUS_clean_linker_0, # of connection points: 2
#     Edge 103, Type (0, 0), BuildingBlock: CIFDUS_clean_linker_0, # of connection points: 2
#     Edge 104, Type (0, 0), BuildingBlock: CIFDUS_clean_linker_0, # of connection points: 2
#     Edge 105, Type (0, 0), BuildingBlock: CIFDUS_clean_linker_0, # of connection points: 2
#     Edge 106, Type (0, 0), BuildingBlock: CIFDUS_clean_linker_0, # of connection points: 2
#     Edge 107, Type (0, 0), BuildingBlock: CIFDUS_clean_linker_0, # of connection points: 2
# Relax obj value: 0.058
# Max RMSD: 0.064
# Mean RMSD: 0.064
data_MOF--net-ato--node1-NAHDIM_clean_sbu_0--edge1-CIFDUS_clean_linker_0
_symmetry_space_group_name_H-M    P1
_symmetry_Int_Tables_number       1
_symmetry_cell_setting            triclinic
loop_
_symmetry_equiv_pos_as_xyz
'x, y, z'
_cell_length_a     88.644018
_cell_length_b     88.566201
_cell_length_c     21.477817
_cell_angle_alpha  90.018925
_cell_angle_beta   90.034429
_cell_angle_gamma 120.00811
loop_
_atom_site_label
_atom_site_type_symbol
_atom_site_fract_x
_atom_site_fract_y
_atom_site_fract_z
_atom_type_partial_charge
C0 C 0.22206 0.03572 0.38497 0.0
O1 O 0.21301 0.04212 0.35919 0.0
O2 O 0.24169 0.07117 0.27019 0.0
Zn3 Zn 0.24283 0.04906 0.27408 0.0
O4 O 0.2277 0.03073 0.21188 0.0
C5 C 0.27429 0.06121 0.20444 0.0
O6 O 0.26425 0.06146 0.15998 0.0
O7 O 0.23573 0.0378 0.35804 0.0
C8 C 0.22325 0.0327 0.15761 0.0
O9 O 0.22826 0.04845 0.13681 0.0
C10 C 0.22931 0.07369 0.2542 0.0
O11 O 0.21424 0.0604 0.23752 0.0
O12 O 0.26787 0.05597 0.25836 0.0
C13 C 0.97314 0.20296 0.3439 0.0
O14 O 0.97211 0.18958 0.31359 0.0
O15 O 0.93219 0.17606 0.25422 0.0
Zn16 Zn 0.95121 0.20107 0.24427 0.0
O17 O 0.96841 0.20332 0.17885 0.0
C18 C 0.92669 0.20927 0.1879 0.0
O19 O 0.919 0.19267 0.17297 0.0
O20 O 0.96465 0.21002 0.32386 0.0
C21 C 0.96563 0.20384 0.12112 0.0
O22 O 0.95076 0.20224 0.10288 0.0
C23 C 0.93269 0.16312 0.23093 0.0
O24 O 0.94654 0.16577 0.19967 0.0
O25 O 0.94067 0.21587 0.21971 0.0
C26 C 0.80788 0.76915 0.35676 0.0
O27 O 0.82355 0.77789 0.3325 0.0
O28 O 0.82599 0.75177 0.24952 0.0
Zn29 Zn 0.80226 0.74953 0.24607 0.0
O30 O 0.80097 0.76566 0.18378 0.0
C31 C 0.78757 0.7126 0.24117 0.0
O32 O 0.80087 0.71656 0.27806 0.0
O33 O 0.79628 0.75568 0.32876 0.0
C34 C 0.80181 0.76395 0.12544 0.0
O35 O 0.80459 0.75164 0.10424 0.0
C36 C 0.84003 0.76355 0.22519 0.0
O37 O 0.84003 0.77637 0.19447 0.0
O38 O 0.78496 0.72472 0.22236 0.0
C39 C 0.03768 0.22992 0.63447 0.0
O40 O 0.04027 0.21954 0.67105 0.0
O41 O 0.07224 0.24679 0.75353 0.0
Zn42 Zn 0.05444 0.25393 0.73479 0.0
O43 O 0.03492 0.24341 0.79654 0.0
C44 C 0.06934 0.2872 0.79378 0.0
O45 O 0.06461 0.27725 0.84352 0.0
O46 O 0.04341 0.24565 0.65085 0.0
C47 C 0.03528 0.23607 0.84685 0.0
O48 O 0.04928 0.23529 0.86121 0.0
C49 C 0.08238 0.24676 0.71185 0.0
O50 O 0.08078 0.25086 0.65441 0.0
O51 O 0.06622 0.28009 0.74031 0.0
C52 C 0.76937 0.79733 0.64093 0.0
O53 O 0.78185 0.80854 0.67752 0.0
O54 O 0.75418 0.82407 0.73445 0.0
Zn55 Zn 0.74937 0.79933 0.73928 0.0
O56 O 0.76446 0.79587 0.80079 0.0
C57 C 0.71761 0.78924 0.80463 0.0
O58 O 0.72734 0.80467 0.82989 0.0
O59 O 0.75362 0.79167 0.65653 0.0
C60 C 0.76707 0.80063 0.8574 0.0
O61 O 0.75999 0.8094 0.88022 0.0
C62 C 0.76745 0.83782 0.75438 0.0
O63 O 0.78031 0.83676 0.78028 0.0
O64 O 0.72424 0.78394 0.76365 0.0
C65 C 0.19514 0.96941 0.66986 0.0
O66 O 0.18345 0.97007 0.7056 0.0
O67 O 0.16782 0.92807 0.75973 0.0
Zn68 Zn 0.19291 0.94689 0.76656 0.0
O69 O 0.1962 0.96478 0.83036 0.0
C70 C 0.20323 0.9214 0.76005 0.0
O71 O 0.19103 0.91558 0.71711 0.0
O72 O 0.20111 0.95957 0.68547 0.0
C73 C 0.19342 0.96187 0.88823 0.0
O74 O 0.18787 0.94605 0.90962 0.0
C75 C 0.15465 0.9281 0.78299 0.0
O76 O 0.15678 0.9418 0.81415 0.0
O77 O 0.20694 0.93541 0.78866 0.0
C78 C 0.76479 0.97329 0.69659 0.0
O79 O 0.77701 0.98187 0.73822 0.0
O80 O 0.76006 0.92947 0.7803 0.0
Zn81 Zn 0.75219 0.94704 0.79223 0.0
O82 O 0.76729 0.96611 0.85263 0.0
C83 C 0.72222 0.92079 0.85806 0.0
O84 O 0.73295 0.91499 0.87016 0.0
O85 O 0.75265 0.95793 0.70907 0.0
C86 C 0.76762 0.96408 0.91105 0.0
O87 O 0.75821 0.94843 0.93501 0.0
C88 C 0.77354 0.92999 0.80311 0.0
O89 O 0.78434 0.94342 0.83713 0.0
O90 O 0.72753 0.93445 0.8251 0.0
C91 C 0.03172 0.79296 0.64288 0.0
O92 O 0.03204 0.80512 0.67885 0.0
O93 O 0.07235 0.81929 0.7314 0.0
Zn94 Zn 0.05356 0.79422 0.73886 0.0
O95 O 0.03562 0.79065 0.80255 0.0
C96 C 0.05829 0.76635 0.79199 0.0
O97 O 0.04194 0.75932 0.80935 0.0
O98 O 0.04082 0.7861 0.65801 0.0
C99 C 0.0383 0.79344 0.86052 0.0
O100 O 0.05415 0.79965 0.88256 0.0
C101 C 0.07235 0.83253 0.75421 0.0
O102 O 0.05876 0.83047 0.78576 0.0
O103 O 0.06526 0.78052 0.76139 0.0
C104 C 0.20376 0.22776 0.6292 0.0
O105 O 0.18938 0.21771 0.66025 0.0
O106 O 0.18026 0.2441 0.70798 0.0
Zn107 Zn 0.2053 0.25075 0.72248 0.0
O108 O 0.20834 0.23906 0.79785 0.0
C109 C 0.21509 0.28646 0.70332 0.0
O110 O 0.20275 0.2793 0.66106 0.0
O111 O 0.2135 0.24338 0.64735 0.0
C112 C 0.21084 0.24598 0.85147 0.0
O113 O 0.21052 0.26057 0.85807 0.0
C114 C 0.16969 0.24281 0.75033 0.0
O115 O 0.1747 0.24489 0.80878 0.0
O116 O 0.2191 0.27678 0.73449 0.0
C117 C 0.96535 0.77003 0.36043 0.0
O118 O 0.95989 0.77989 0.3347 0.0
O119 O 0.93112 0.7544 0.24411 0.0
Zn120 Zn 0.95075 0.74919 0.25026 0.0
O121 O 0.9696 0.76257 0.18801 0.0
C122 C 0.92853 0.71445 0.20229 0.0
O123 O 0.92076 0.72196 0.17477 0.0
O124 O 0.96222 0.75596 0.33373 0.0
C125 C 0.96717 0.76184 0.12961 0.0
O126 O 0.95132 0.75231 0.10745 0.0
C127 C 0.93227 0.76795 0.21914 0.0
O128 O 0.94724 0.77985 0.19575 0.0
O129 O 0.9416 0.72353 0.23712 0.0
C130 C 0.24009 0.20482 0.32489 0.0
O131 O 0.228 0.19036 0.29892 0.0
O132 O 0.25022 0.17824 0.22569 0.0
Zn133 Zn 0.2593 0.20411 0.21916 0.0
O134 O 0.24769 0.20946 0.14922 0.0
C135 C 0.2941 0.21054 0.2306 0.0
O136 O 0.28636 0.19769 0.27067 0.0
O137 O 0.25495 0.21315 0.29917 0.0
C138 C 0.24699 0.2037 0.0945 0.0
O139 O 0.25381 0.19377 0.08359 0.0
C140 C 0.23547 0.16608 0.20727 0.0
O141 O 0.22441 0.17 0.18158 0.0
O142 O 0.28509 0.21597 0.20256 0.0
C143 C 0.7842 0.02944 0.3859 0.0
O144 O 0.77453 0.02 0.33908 0.0
O145 O 0.82667 0.07523 0.29056 0.0
Zn146 Zn 0.80226 0.05472 0.2892 0.0
O147 O 0.79938 0.0356 0.23116 0.0
C148 C 0.79195 0.07642 0.22545 0.0
O149 O 0.80812 0.08348 0.2059 0.0
O150 O 0.7965 0.04487 0.3757 0.0
C151 C 0.80204 0.03756 0.17286 0.0
O152 O 0.80786 0.05308 0.14831 0.0
C153 C 0.84047 0.07633 0.26838 0.0
O154 O 0.83976 0.06268 0.24135 0.0
O155 O 0.78611 0.06348 0.26242 0.0
C156 C 0.88919 0.36295 0.63031 0.0
O157 O 0.87817 0.3661 0.60002 0.0
O158 O 0.90213 0.40041 0.53573 0.0
Zn159 Zn 0.91042 0.38295 0.5293 0.0
O160 O 0.89931 0.3662 0.45764 0.0
C161 C 0.94266 0.41067 0.48402 0.0
O162 O 0.93192 0.41576 0.46387 0.0
O163 O 0.90453 0.36904 0.60902 0.0
C164 C 0.89914 0.37105 0.40207 0.0
O165 O 0.90581 0.38774 0.39017 0.0
C166 C 0.88873 0.3997 0.51126 0.0
O167 O 0.87794 0.38593 0.47865 0.0
O168 O 0.93655 0.39658 0.51506 0.0
C169 C 0.63144 0.55391 0.6646 0.0
O170 O 0.63989 0.56597 0.62236 0.0
O171 O 0.58913 0.51327 0.54774 0.0
Zn172 Zn 0.60804 0.53803 0.56247 0.0
O173 O 0.62818 0.54479 0.50439 0.0
C174 C 0.59107 0.55265 0.49423 0.0
O175 O 0.59113 0.54181 0.45259 0.0
O176 O 0.61694 0.54067 0.65021 0.0
C177 C 0.62733 0.53711 0.45345 0.0
O178 O 0.61243 0.52366 0.43617 0.0
C179 C 0.58876 0.50026 0.57423 0.0
O180 O 0.60149 0.50284 0.61205 0.0
O181 O 0.59795 0.55365 0.54716 0.0
C182 C 0.44857 0.09155 0.62314 0.0
O183 O 0.43833 0.08468 0.57466 0.0
O184 O 0.49839 0.09573 0.55723 0.0
Zn185 Zn 0.47321 0.08852 0.5443 0.0
O186 O 0.47039 0.10115 0.47104 0.0
C187 C 0.46644 0.05717 0.48517 0.0
O188 O 0.48081 0.06844 0.45654 0.0
O189 O 0.46401 0.09411 0.62107 0.0
C190 C 0.45739 0.09298 0.43502 0.0
O191 O 0.44612 0.07654 0.4465 0.0
C192 C 0.51102 0.10758 0.5266 0.0
O193 O 0.50797 0.11651 0.48464 0.0
O194 O 0.46027 0.06265 0.52726 0.0
C195 C 0.68871 0.57074 0.97124 0.0
O196 O 0.68141 0.55733 0.00917 0.0
O197 O 0.73226 0.57543 0.04809 0.0
Zn198 Zn 0.7153 0.5838 0.06565 0.0
O199 O 0.69699 0.56866 0.12849 0.0
C200 C 0.74284 0.6134 0.12922 0.0
O201 O 0.74832 0.60227 0.13842 0.0
O202 O 0.70341 0.58373 0.98558 0.0
C203 C 0.69933 0.57134 0.18673 0.0
O204 O 0.71442 0.5838 0.2072 0.0
C205 C 0.7338 0.56415 0.07977 0.0
O206 O 0.72309 0.55631 0.12633 0.0
O207 O 0.72885 0.60851 0.09868 0.0
C208 C 0.42976 0.12336 0.94691 0.0
O209 O 0.43976 0.12887 0.99653 0.0
O210 O 0.41207 0.14956 0.0459 0.0
Zn211 Zn 0.40577 0.12459 0.03239 0.0
O212 O 0.41511 0.11608 0.10068 0.0
C213 C 0.3731 0.10711 0.0918 0.0
O214 O 0.38359 0.11329 0.14 0.0
O215 O 0.41438 0.12094 0.95013 0.0
C216 C 0.42704 0.12542 0.13925 0.0
O217 O 0.43486 0.14249 0.13518 0.0
C218 C 0.42582 0.16324 0.02863 0.0
O219 O 0.438 0.16182 -0.00112 0.0
O220 O 0.37962 0.11019 0.03737 0.0
C221 C 0.87054 0.30362 0.93294 0.0
O222 O 0.85588 0.30032 0.95977 0.0
O223 O 0.84462 0.26349 0.01666 0.0
Zn224 Zn 0.8695 0.28229 0.03301 0.0
O225 O 0.87133 0.29776 0.10494 0.0
C226 C 0.8786 0.25547 0.02998 0.0
O227 O 0.86603 0.24903 0.98843 0.0
O228 O 0.8792 0.29709 0.95614 0.0
C229 C 0.87146 0.29303 0.16072 0.0
O230 O 0.86969 0.2776 0.17102 0.0
C231 C 0.83195 0.25873 0.05417 0.0
O232 O 0.83445 0.26712 0.10702 0.0
O233 O 0.88303 0.27021 0.05432 0.0
C234 C 0.43405 0.2879 0.93262 0.0
O235 O 0.42997 0.27146 0.93006 0.0
O236 O 0.43114 0.26116 0.06309 0.0
Zn237 Zn 0.42715 0.28159 0.06581 0.0
O238 O 0.44198 0.29884 0.13134 0.0
C239 C 0.3931 0.25868 0.11599 0.0
O240 O 0.40097 0.25029 0.13512 0.0
O241 O 0.43343 0.29445 0.98449 0.0
C242 C 0.43831 0.29612 0.18883 0.0
O243 O 0.42493 0.28123 0.20639 0.0
C244 C 0.44501 0.26129 0.04724 0.0
O245 O 0.45877 0.27605 0.03089 0.0
O246 O 0.40169 0.27263 0.0847 0.0
C247 C 0.69628 0.13305 0.00165 0.0
O248 O 0.69751 0.14685 0.02939 0.0
O249 O 0.73386 0.15977 0.10476 0.0
Zn250 Zn 0.71675 0.13401 0.1067 0.0
O251 O 0.6996 0.12903 0.17538 0.0
C252 C 0.72267 0.10668 0.1521 0.0
O253 O 0.70612 0.09928 0.16725 0.0
O254 O 0.70381 0.12547 0.02579 0.0
C255 C 0.70507 0.13368 0.23064 0.0
O256 O 0.72194 0.14205 0.2412 0.0
C257 C 0.74429 0.16686 0.05954 0.0
O258 O 0.74339 0.15722 0.0116 0.0
O259 O 0.72986 0.1214 0.12493 0.0
C260 C 0.85946 0.55703 0.98287 0.0
O261 O 0.84691 0.54431 0.01489 0.0
O262 O 0.83092 0.56866 0.073 0.0
Zn263 Zn 0.85669 0.57766 0.08012 0.0
O264 O 0.86236 0.56696 0.15258 0.0
C265 C 0.88227 0.61288 0.12084 0.0
O266 O 0.8905 0.60537 0.1449 0.0
O267 O 0.86567 0.57262 0.00172 0.0
C268 C 0.85934 0.56934 0.20847 0.0
O269 O 0.85192 0.57874 0.21938 0.0
C270 C 0.81887 0.556 0.10298 0.0
O271 O 0.82285 0.54691 0.14108 0.0
O272 O 0.86809 0.60365 0.09155 0.0
C273 C 0.6356 0.10669 0.69963 0.0
O274 O 0.63075 0.11624 0.66801 0.0
O275 O 0.59686 0.08819 0.60755 0.0
Zn276 Zn 0.61655 0.08303 0.60226 0.0
O277 O 0.63228 0.0952 0.52939 0.0
C278 C 0.59193 0.04871 0.56061 0.0
O279 O 0.58423 0.05719 0.54079 0.0
O280 O 0.6309 0.09136 0.68067 0.0
C281 C 0.6267 0.09298 0.47371 0.0
O282 O 0.60997 0.08292 0.463 0.0
C283 C 0.5962 0.10056 0.58007 0.0
O284 O 0.60948 0.11168 0.54627 0.0
O285 O 0.60619 0.05699 0.59053 0.0
C286 C 0.88618 0.52186 0.68427 0.0
O287 O 0.87806 0.50628 0.65887 0.0
O288 O 0.90562 0.50515 0.57879 0.0
Zn289 Zn 0.90884 0.52933 0.57862 0.0
O290 O 0.89675 0.53319 0.50644 0.0
C291 C 0.94483 0.54509 0.61023 0.0
O292 O 0.93821 0.53379 0.65602 0.0
O293 O 0.89983 0.53383 0.65834 0.0
C294 C 0.90045 0.53157 0.45062 0.0
O295 O 0.9119 0.52656 0.44019 0.0
C296 C 0.89372 0.49172 0.5515 0.0
O297 O 0.88163 0.49286 0.51993 0.0
O298 O 0.93458 0.54602 0.57109 0.0
C299 C 0.46544 0.35865 0.66097 0.0
O300 O 0.47077 0.35366 0.61219 0.0
O301 O 0.49454 0.40317 0.56651 0.0
Zn302 Zn 0.46934 0.38454 0.57421 0.0
O303 O 0.46232 0.36619 0.50838 0.0
C304 C 0.46006 0.41109 0.58545 0.0
O305 O 0.47435 0.41846 0.61915 0.0
O306 O 0.46427 0.37237 0.65727 0.0
C307 C 0.47091 0.36685 0.46021 0.0
O308 O 0.48588 0.38096 0.44871 0.0
C309 C 0.50695 0.4044 0.59992 0.0
O310 O 0.50378 0.39228 0.64142 0.0
O311 O 0.4549 0.39605 0.5626 0.0
C312 C 0.56086 0.69647 0.00379 0.0
O313 O 0.54961 0.69445 0.96015 0.0
O314 O 0.57588 0.73603 0.89947 0.0
Zn315 Zn 0.58385 0.71849 0.91066 0.0
O316 O 0.57325 0.6995 0.8465 0.0
C317 C 0.61994 0.7444 0.93105 0.0
O318 O 0.61325 0.75013 0.97308 0.0
O319 O 0.57697 0.70691 0.99425 0.0
C320 C 0.56305 0.69854 0.80317 0.0
O321 O 0.55894 0.71082 0.79777 0.0
C322 C 0.57394 0.7439 0.94556 0.0
O323 O 0.57634 0.73989 0.00217 0.0
O324 O 0.60986 0.73084 0.89988 0.0
C325 C 0.30726 0.87286 0.02731 0.0
O326 O 0.30903 0.86205 0.9902 0.0
O327 O 0.26539 0.84445 0.93638 0.0
Zn328 Zn 0.2834 0.87006 0.93162 0.0
O329 O 0.30032 0.87475 0.86159 0.0
C330 C 0.25774 0.8776 0.88157 0.0
O331 O 0.25145 0.86181 0.85883 0.0
O332 O 0.29675 0.87805 0.01218 0.0
C333 C 0.29524 0.86863 0.8072 0.0
O334 O 0.2785 0.85858 0.79651 0.0
C335 C 0.26791 0.83216 0.91881 0.0
O336 O 0.28327 0.83591 0.89735 0.0
O337 O 0.27133 0.88393 0.91542 0.0
C338 C 0.14396 0.43923 0.06703 0.0
O339 O 0.16033 0.44461 0.05376 0.0
O340 O 0.16083 0.42695 0.93472 0.0
Zn341 Zn 0.136 0.42132 0.94624 0.0
O342 O 0.12853 0.43289 0.88272 0.0
C343 C 0.1195 0.3881 0.88598 0.0
O344 O 0.12818 0.3979 0.83837 0.0
O345 O 0.13209 0.4291 0.02954 0.0
C346 C 0.13456 0.4377 0.82819 0.0
O347 O 0.14722 0.43529 0.80845 0.0
C348 C 0.17393 0.44164 0.92114 0.0
O349 O 0.17191 0.45526 0.91391 0.0
O350 O 0.12066 0.39528 0.93839 0.0
C351 C 0.36909 0.8973 0.32576 0.0
O352 O 0.37739 0.88954 0.34698 0.0
O353 O 0.40432 0.91446 0.43346 0.0
Zn354 Zn 0.38368 0.91816 0.43598 0.0
O355 O 0.36795 0.90552 0.50793 0.0
C356 C 0.40725 0.95485 0.42316 0.0
O357 O 0.41509 0.94919 0.38582 0.0
O358 O 0.36999 0.91008 0.35595 0.0
C359 C 0.37342 0.91007 0.56328 0.0
O360 O 0.38961 0.92249 0.57224 0.0
C361 C 0.40566 0.90242 0.46056 0.0
O362 O 0.39246 0.8906 0.49297 0.0
O363 O 0.39301 0.94386 0.44876 0.0
C364 C 0.10407 0.46893 0.34238 0.0
O365 O 0.11596 0.47837 0.384 0.0
O366 O 0.08688 0.49577 0.43304 0.0
Zn367 Zn 0.08232 0.47111 0.43486 0.0
O368 O 0.09703 0.46837 0.49953 0.0
C369 C 0.04567 0.45822 0.4315 0.0
O370 O 0.05094 0.47183 0.39491 0.0
O371 O 0.08827 0.46454 0.35277 0.0
C372 C 0.09436 0.46829 0.55755 0.0
O373 O 0.08155 0.47049 0.57726 0.0
C374 C 0.10131 0.50921 0.4466 0.0
O375 O 0.11466 0.50743 0.46236 0.0
O376 O 0.05693 0.45493 0.45444 0.0
C377 C 0.5149 0.63014 0.28503 0.0
O378 O 0.49827 0.62076 0.29873 0.0
O379 O 0.4951 0.5955 0.39614 0.0
Zn380 Zn 0.51953 0.61587 0.40029 0.0
O381 O 0.52218 0.63201 0.47043 0.0
C382 C 0.53663 0.59646 0.3734 0.0
O383 O 0.52745 0.59315 0.32199 0.0
O384 O 0.52607 0.62973 0.32098 0.0
C385 C 0.52668 0.6299 0.52441 0.0
O386 O 0.52893 0.61654 0.53471 0.0
C387 C 0.48193 0.59527 0.42053 0.0
O388 O 0.48391 0.60923 0.44942 0.0
O389 O 0.53565 0.60634 0.41413 0.0
C390 C 0.09756 0.63752 0.33421 0.0
O391 O 0.10928 0.63857 0.37411 0.0
O392 O 0.07831 0.59521 0.43066 0.0
Zn393 Zn 0.07554 0.61645 0.43142 0.0
O394 O 0.09102 0.63462 0.49368 0.0
C395 C 0.04399 0.59939 0.50069 0.0
O396 O 0.05403 0.59621 0.53688 0.0
O397 O 0.08151 0.62808 0.34761 0.0
C398 C 0.0967 0.6325 0.54533 0.0
O399 O 0.0924 0.61671 0.56371 0.0
C400 C 0.09219 0.59453 0.43771 0.0
O401 O 0.10704 0.60898 0.44696 0.0
O402 O 0.05044 0.60834 0.45157 0.0
C403 C 0.35923 0.4602 0.30006 0.0
O404 O 0.36237 0.47498 0.32553 0.0
O405 O 0.39927 0.48551 0.38876 0.0
Zn406 Zn 0.37973 0.46095 0.40363 0.0
O407 O 0.36399 0.45998 0.47312 0.0
C408 C 0.40469 0.45307 0.45703 0.0
O409 O 0.41258 0.46982 0.46965 0.0
O410 O 0.36549 0.45156 0.32541 0.0
C411 C 0.36979 0.46543 0.52757 0.0
O412 O 0.38656 0.47245 0.53827 0.0
C413 C 0.39948 0.4993 0.40655 0.0
O414 O 0.38584 0.49808 0.43533 0.0
O415 O 0.39027 0.44613 0.42777 0.0
C416 C 0.52483 0.892 0.36202 0.0
O417 O 0.5097 0.88199 0.38875 0.0
O418 O 0.50387 0.90736 0.46642 0.0
Zn419 Zn 0.5291 0.9137 0.46746 0.0
O420 O 0.53439 0.90244 0.5387 0.0
C421 C 0.53877 0.94933 0.4498 0.0
O422 O 0.5254 0.94199 0.41168 0.0
O423 O 0.53542 0.90651 0.38708 0.0
C424 C 0.53062 0.90402 0.59447 0.0
O425 O 0.52242 0.91266 0.60557 0.0
C426 C 0.49104 0.89422 0.49159 0.0
O427 O 0.49362 0.88276 0.52146 0.0
O428 O 0.54338 0.93974 0.47848 0.0
C429 C 0.30152 0.43962 0.99208 0.0
O430 O 0.29837 0.4503 0.95957 0.0
O431 O 0.26033 0.41939 0.90261 0.0
Zn432 Zn 0.28158 0.41682 0.89331 0.0
O433 O 0.29718 0.43117 0.82294 0.0
C434 C 0.2608 0.38364 0.8364 0.0
O435 O 0.25343 0.39206 0.81294 0.0
O436 O 0.29549 0.42406 0.97297 0.0
C437 C 0.29178 0.43245 0.76944 0.0
O438 O 0.27495 0.42497 0.75911 0.0
C439 C 0.25889 0.43261 0.88949 0.0
O440 O 0.27239 0.44673 0.86739 0.0
O441 O 0.27339 0.39151 0.8744 0.0
C442 C 0.56517 0.8718 0.06228 0.0
O443 O 0.55346 0.85781 0.03274 0.0
O444 O 0.57986 0.84558 0.9792 0.0
Zn445 Zn 0.5862 0.87063 0.96469 0.0
O446 O 0.57285 0.87287 0.89283 0.0
C447 C 0.62257 0.88 0.95882 0.0
O448 O 0.61696 0.86524 0.98894 0.0
O449 O 0.58069 0.87983 0.04173 0.0
C450 C 0.57845 0.8741 0.83754 0.0
O451 O 0.59261 0.87319 0.82788 0.0
C452 C 0.5743 0.83394 0.93704 0.0
O453 O 0.57174 0.83789 0.88058 0.0
O454 O 0.61185 0.88506 0.94511 0.0
C455 C 0.14268 0.70111 0.04544 0.0
O456 O 0.1586 0.70734 0.02423 0.0
O457 O 0.16391 0.73858 0.94743 0.0
Zn458 Zn 0.14015 0.71742 0.93526 0.0
O459 O 0.13951 0.7006 0.87082 0.0
C460 C 0.12972 0.73987 0.87781 0.0
O461 O 0.14642 0.74845 0.86454 0.0
O462 O 0.13211 0.70414 0.01548 0.0
C463 C 0.14021 0.70357 0.81275 0.0
O464 O 0.14301 0.71883 0.79354 0.0
C465 C 0.1783 0.74155 0.92404 0.0
O466 O 0.17878 0.72962 0.8891 0.0
O467 O 0.12364 0.72579 0.90891 0.0
H468 H 0.18463 0.99121 0.6236 0.0
H469 H 0.22111 0.97318 0.59178 0.0
H470 H 0.23308 0.99263 0.50241 0.0
H471 H 0.23313 0.01462 0.4332 0.0
H472 H 0.19623 0.0322 0.46323 0.0
H473 H 0.18457 0.01313 0.55388 0.0
C474 C 0.19517 0.9915 0.59709 0.0
C475 C 0.20195 0.98075 0.6144 0.0
C476 C 0.20198 0.00269 0.54568 0.0
C477 C 0.21561 0.98128 0.57943 0.0
C478 C 0.22251 0.99244 0.5284 0.0
C479 C 0.22261 0.01439 0.45979 0.0
C480 C 0.2156 0.02487 0.44162 0.0
C481 C 0.21581 0.00322 0.51121 0.0
C482 C 0.20187 0.02427 0.47625 0.0
C483 C 0.19517 0.01334 0.52802 0.0
H484 H 0.0216 0.24429 0.57055 0.0
H485 H 0.02904 0.19972 0.57267 0.0
H486 H 0.00974 0.18745 0.48268 0.0
H487 H 0.99037 0.18917 0.40469 0.0
H488 H 0.98214 0.23328 0.40551 0.0
H489 H 0.00205 0.24588 0.49345 0.0
C490 C 0.01912 0.23196 0.55101 0.0
C491 C 0.02681 0.22297 0.57802 0.0
C492 C 0.00776 0.22483 0.50016 0.0
C493 C 0.02328 0.2069 0.55268 0.0
C494 C 0.01223 0.19987 0.50131 0.0
C495 C 0.99292 0.20154 0.4241 0.0
C496 C 0.98477 0.21026 0.3985 0.0
C497 C 0.00431 0.20867 0.47495 0.0
C498 C 0.98818 0.22625 0.42442 0.0
C499 C -0.00039 0.2335 0.4746 0.0
H500 H 0.77564 0.75921 0.40236 0.0
H501 H 0.83036 0.79413 0.43714 0.0
H502 H 0.82323 0.80607 0.52757 0.0
H503 H 0.80152 0.80679 0.59607 0.0
H504 H 0.74677 0.7723 0.56029 0.0
H505 H 0.75388 0.7601 0.47056 0.0
C506 C 0.78601 0.76935 0.42997 0.0
C507 C 0.8035 0.77573 0.41317 0.0
C508 C 0.78182 0.77633 0.4814 0.0
C509 C 0.81678 0.78899 0.44906 0.0
C510 C 0.81272 0.79585 0.50073 0.0
C511 C 0.79113 0.79664 0.56859 0.0
C512 C 0.77364 0.79048 0.58492 0.0
C513 C 0.7953 0.78968 0.51712 0.0
C514 C 0.76034 0.77732 0.54871 0.0
C515 C 0.76439 0.77029 0.49748 0.0
H516 H 0.78683 0.0067 0.66183 0.0
H517 H 0.74404 0.95814 0.59467 0.0
H518 H 0.7458 0.97144 0.49326 0.0
H519 H 0.76016 0.9966 0.42269 0.0
H520 H 0.80293 0.04508 0.4908 0.0
H521 H 0.80039 0.03204 0.59294 0.0
C522 C 0.77785 0.999 0.6251 0.0
C523 C 0.7654 0.98142 0.63575 0.0
C524 C 0.77892 0.00671 0.56704 0.0
C525 C 0.75378 0.9717 0.58772 0.0
C526 C 0.75478 0.97929 0.52967 0.0
C527 C 0.76886 0.00435 0.45995 0.0
C528 C 0.78177 0.02178 0.44889 0.0
C529 C 0.76739 0.99675 0.51867 0.0
C530 C 0.7929 0.03163 0.49785 0.0
C531 C 0.79149 0.02418 0.55633 0.0
H532 H 0.01168 0.80564 0.5974 0.0
H533 H 0.02575 0.76612 0.56503 0.0
H534 H 0.0059 0.75517 0.4763 0.0
H535 H 0.9847 0.75686 0.40793 0.0
H536 H 0.9711 0.79677 0.43844 0.0
H537 H 0.99057 0.80744 0.52847 0.0
C538 C 0.01044 0.79465 0.57091 0.0
C539 C 0.02019 0.78672 0.58784 0.0
C540 C 0.99903 0.78843 0.51991 0.0
C541 C 0.01843 0.7725 0.55292 0.0
C542 C 0.00705 0.76619 0.50228 0.0
C543 C 0.98589 0.76782 0.43449 0.0
C544 C 0.97642 0.77597 0.41667 0.0
C545 C 0.99727 0.77403 0.48549 0.0
C546 C 0.97824 0.79026 0.45123 0.0
C547 C 0.98939 0.79639 0.50262 0.0
H548 H 0.2108 0.18873 0.39521 0.0
H549 H 0.26078 0.23593 0.38372 0.0
H550 H 0.254 0.2472 0.47699 0.0
H551 H 0.23368 0.2438 0.561 0.0
H552 H 0.18389 0.19634 0.57251 0.0
H553 H 0.19085 0.18507 0.48004 0.0
C554 C 0.22024 0.20148 0.41307 0.0
C555 C 0.23624 0.21148 0.38236 0.0
C556 C 0.21629 0.20786 0.46672 0.0
C557 C 0.24835 0.22794 0.40642 0.0
C558 C 0.24448 0.23442 0.45973 0.0
C559 C 0.22435 0.23099 0.54328 0.0
C560 C 0.20827 0.22097 0.57358 0.0
C561 C 0.22845 0.22452 0.4901 0.0
C562 C 0.19637 0.20436 0.55017 0.0
C563 C 0.20032 0.19788 0.49721 0.0
H564 H 0.90674 0.35007 0.69564 0.0
H565 H 0.85887 0.35172 0.69392 0.0
H566 H 0.84906 0.33373 0.78729 0.0
H567 H 0.85381 0.3173 0.86884 0.0
H568 H 0.90131 0.31501 0.87054 0.0
H569 H 0.91148 0.33344 0.77781 0.0
C570 C 0.89419 0.34654 0.71581 0.0
C571 C 0.88358 0.35226 0.68772 0.0
C572 C 0.88852 0.33603 0.76945 0.0
C573 C 0.86731 0.34748 0.71437 0.0
C574 C 0.86166 0.33719 0.76786 0.0
C575 C 0.8664 0.32083 0.84906 0.0
C576 C 0.87677 0.31477 0.8767 0.0
C577 C 0.87213 0.33135 0.79566 0.0
C578 C 0.89304 0.31946 0.85021 0.0
C579 C 0.89888 0.33002 0.79718 0.0
H580 H 0.6626 0.57973 0.70775 0.0
H581 H 0.61796 0.53064 0.76062 0.0
H582 H 0.63163 0.53172 0.86044 0.0
H583 H 0.65659 0.5461 0.93134 0.0
H584 H 0.70127 0.59514 0.87846 0.0
H585 H 0.68721 0.59454 0.78 0.0
C586 C 0.65581 0.5693 0.74119 0.0
C587 C 0.6393 0.55511 0.72655 0.0
C588 C 0.66377 0.56994 0.79842 0.0
C589 C 0.63069 0.54173 0.77057 0.0
C590 C 0.6385 0.54231 0.82767 0.0
C591 C 0.66326 0.55668 0.89837 0.0
C592 C 0.68 0.5706 0.91222 0.0
C593 C 0.65511 0.55627 0.84183 0.0
C594 C 0.6884 0.58424 0.86902 0.0
C595 C 0.68037 0.58392 0.81265 0.0
H596 H 0.46699 0.10736 0.72777 0.0
H597 H 0.41622 0.08724 0.64386 0.0
H598 H 0.40605 0.09576 0.73579 0.0
H599 H 0.41148 0.1086 0.84057 0.0
H600 H 0.46227 0.12855 0.9242 0.0
H601 H 0.47251 0.12049 0.83156 0.0
C602 C 0.45369 0.10482 0.72951 0.0
C603 C 0.44238 0.09662 0.67902 0.0
C604 C 0.44793 0.10976 0.78242 0.0
C605 C 0.42521 0.09349 0.68208 0.0
C606 C 0.41937 0.09838 0.73463 0.0
C607 C 0.42481 0.11127 0.83843 0.0
C608 C 0.43607 0.11915 0.88934 0.0
C609 C 0.43062 0.1065 0.78512 0.0
C610 C 0.4533 0.12247 0.88579 0.0
C611 C 0.45918 0.11785 0.83283 0.0
H612 H 0.46004 0.32589 0.674 0.0
H613 H 0.45835 0.36709 0.77554 0.0
H614 H 0.4485 0.34878 0.86861 0.0
H615 H 0.44015 0.32103 0.92057 0.0
H616 H 0.44115 0.27959 0.81799 0.0
H617 H 0.45145 0.29808 0.7256 0.0
C618 C 0.45761 0.33092 0.71656 0.0
C619 C 0.45998 0.34785 0.71791 0.0
C620 C 0.45175 0.32026 0.76953 0.0
C621 C 0.45662 0.3541 0.77328 0.0
C622 C 0.45098 0.34364 0.82648 0.0
C623 C 0.44261 0.31602 0.87802 0.0
C624 C 0.43989 0.29894 0.87623 0.0
C625 C 0.44845 0.32668 0.82502 0.0
C626 C 0.44308 0.29266 0.82063 0.0
C627 C 0.44901 0.30324 0.7678 0.0
H628 H 0.68018 0.14707 0.93516 0.0
H629 H 0.68856 0.10307 0.93962 0.0
H630 H 0.6704 0.09094 0.84713 0.0
H631 H 0.65192 0.09268 0.76537 0.0
H632 H 0.64399 0.13695 0.76015 0.0
H633 H 0.66215 0.14906 0.85256 0.0
C634 C 0.67806 0.13484 0.9159 0.0
C635 C 0.6857 0.126 0.94443 0.0
C636 C 0.66764 0.12794 0.8626 0.0
C637 C 0.68286 0.11018 0.91862 0.0
C638 C 0.67244 0.1032 0.86575 0.0
C639 C 0.65413 0.10496 0.78452 0.0
C640 C 0.64656 0.11386 0.75594 0.0
C641 C 0.66471 0.11194 0.83748 0.0
C642 C 0.64966 0.12982 0.78115 0.0
C643 C 0.66005 0.13677 0.83405 0.0
H644 H 0.89786 0.55321 0.74113 0.0
H645 H 0.85895 0.49872 0.75603 0.0
H646 H 0.8473 0.50478 0.84972 0.0
H647 H 0.84805 0.52556 0.92709 0.0
H648 H 0.88674 0.5801 0.91116 0.0
H649 H 0.89854 0.57397 0.81814 0.0
C650 C 0.88686 0.54264 0.76491 0.0
C651 C 0.87931 0.52554 0.74156 0.0
C652 C 0.88015 0.54622 0.81853 0.0
C653 C 0.86501 0.51202 0.7729 0.0
C654 C 0.85833 0.51546 0.82652 0.0
C655 C 0.85906 0.53611 0.90331 0.0
C656 C 0.86648 0.55326 0.92615 0.0
C657 C 0.86577 0.53252 0.84967 0.0
C658 C 0.88074 0.56678 0.89461 0.0
C659 C 0.88753 0.56329 0.84141 0.0
H660 H 0.54799 0.65447 0.25387 0.0
H661 H 0.49468 0.63138 0.19135 0.0
H662 H 0.50418 0.65019 0.09964 0.0
H663 H 0.52763 0.67291 0.0367 0.0
H664 H 0.58091 0.69615 0.09993 0.0
H665 H 0.57135 0.67761 0.19219 0.0
C666 C 0.53843 0.65351 0.22015 0.0
C667 C 0.52065 0.64147 0.22934 0.0
C668 C 0.54396 0.66443 0.16779 0.0
C669 C 0.50845 0.64051 0.18541 0.0
C670 C 0.51387 0.65127 0.13295 0.0
C671 C 0.53716 0.67398 0.07074 0.0
C672 C 0.55497 0.68588 0.06127 0.0
C673 C 0.53159 0.66325 0.12364 0.0
C674 C 0.56712 0.68711 0.10599 0.0
C675 C 0.56167 0.67648 0.15873 0.0
H676 H 0.34729 0.90761 0.27719 0.0
H677 H 0.36734 0.87279 0.24446 0.0
H678 H 0.35 0.86219 0.14953 0.0
H679 H 0.32915 0.86274 0.07582 0.0
H680 H 0.30873 0.89721 0.10917 0.0
H681 H 0.32619 0.90795 0.20388 0.0
C682 C 0.34791 0.89773 0.24924 0.0
C683 C 0.35864 0.89104 0.26794 0.0
C684 C 0.3378 0.89159 0.19485 0.0
C685 C 0.35919 0.87817 0.23128 0.0
C686 C 0.34928 0.87209 0.17691 0.0
C687 C 0.3285 0.8726 0.10376 0.0
C688 C 0.31765 0.87916 0.08528 0.0
C689 C 0.33853 0.87869 0.15829 0.0
C690 C 0.31695 0.89191 0.12225 0.0
C691 C 0.32695 0.89809 0.17643 0.0
H692 H 0.13611 0.47435 0.31123 0.0
H693 H 0.08269 0.44887 0.24818 0.0
H694 H 0.09032 0.43717 0.15837 0.0
H695 H 0.11202 0.43399 0.0983 0.0
H696 H 0.1655 0.45957 0.1606 0.0
H697 H 0.15791 0.47132 0.25056 0.0
C698 C 0.12614 0.46629 0.27776 0.0
C699 C 0.10885 0.4625 0.28648 0.0
C700 C 0.13059 0.45954 0.22634 0.0
C701 C 0.0961 0.45201 0.24263 0.0
C702 C 0.10044 0.44527 0.19131 0.0
C703 C 0.12203 0.44207 0.13164 0.0
C704 C 0.1393 0.44584 0.12278 0.0
C705 C 0.11761 0.44889 0.18289 0.0
C706 C 0.1521 0.45643 0.16631 0.0
C707 C 0.14778 0.46319 0.21772 0.0
H708 H 0.13049 0.65745 0.29082 0.0
H709 H 0.07692 0.64137 0.24828 0.0
H710 H 0.0862 0.65989 0.15579 0.0
H711 H 0.10955 0.68089 0.08773 0.0
H712 H 0.16304 0.69648 0.1296 0.0
H713 H 0.15373 0.67794 0.2219 0.0
C714 C 0.12082 0.65794 0.26129 0.0
C715 C 0.10305 0.64806 0.27657 0.0
C716 C 0.12623 0.6686 0.20824 0.0
C717 C 0.0907 0.64882 0.23758 0.0
C718 C 0.09599 0.65945 0.18477 0.0
C719 C 0.11918 0.68029 0.11718 0.0
C720 C 0.13697 0.69012 0.10194 0.0
C721 C 0.11373 0.66946 0.16985 0.0
C722 C 0.14926 0.68906 0.14026 0.0
C723 C 0.14395 0.67845 0.19305 0.0
H724 H 0.34639 0.47684 0.23065 0.0
H725 H 0.34791 0.42894 0.2411 0.0
H726 H 0.32999 0.41822 0.14729 0.0
H727 H 0.31393 0.4225 0.06209 0.0
H728 H 0.31296 0.47069 0.05131 0.0
H729 H 0.33059 0.48119 0.1455 0.0
C730 C 0.3428 0.46404 0.21252 0.0
C731 C 0.34848 0.45371 0.24297 0.0
C732 C 0.33257 0.45799 0.15846 0.0
C733 C 0.34374 0.43718 0.21859 0.0
C734 C 0.33348 0.43103 0.16495 0.0
C735 C 0.31754 0.43528 0.08042 0.0
C736 C 0.3121 0.44576 0.04965 0.0
C737 C 0.32781 0.44132 0.1345 0.0
C738 C 0.31697 0.46233 0.07392 0.0
C739 C 0.32706 0.46837 0.12786 0.0
H740 H 0.55612 0.90774 0.30229 0.0
H741 H 0.50423 0.86309 0.2924 0.0
H742 H 0.5121 0.85304 0.19871 0.0
H743 H 0.53374 0.8567 0.12028 0.0
H744 H 0.58577 0.90109 0.13071 0.0
H745 H 0.57779 0.91143 0.22352 0.0
C746 C 0.54651 0.89584 0.27956 0.0
C747 C 0.52961 0.88619 0.30442 0.0
C748 C 0.55115 0.89005 0.22586 0.0
C749 C 0.51734 0.87077 0.27442 0.0
C750 C 0.52182 0.86499 0.22078 0.0
C751 C 0.54335 0.86865 0.14276 0.0
C752 C 0.56033 0.87809 0.11851 0.0
C753 C 0.5387 0.87449 0.19623 0.0
C754 C 0.5726 0.89354 0.14838 0.0
C755 C 0.56805 0.89948 0.20147 0.0
H756 H 0.19211 0.96121 0.01487 0.0
H757 H 0.20358 0.99549 0.85716 0.0
H758 H 0.21233 0.02022 0.92686 0.0
H759 H 0.2188 0.03252 0.03225 0.0
H760 H 0.20813 0.9984 0.18986 0.0
H761 H 0.19683 0.97325 0.12057 0.0
C762 C 0.19638 0.97406 0.99574 0.0
C763 C 0.19735 0.97649 0.93093 0.0
C764 C 0.20159 0.9883 0.03607 0.0
C765 C 0.20284 0.99324 0.90692 0.0
C766 C 0.20785 0.00742 0.94673 0.0
C767 C 0.21378 0.01956 0.05151 0.0
C768 C 0.21445 0.01738 0.11604 0.0
C769 C 0.20758 0.00516 0.01135 0.0
C770 C 0.20791 0.00048 0.14024 0.0
C771 C 0.20146 0.98607 0.10067 0.0
H772 H 0.96629 0.21205 -0.00079 0.0
H773 H 0.99639 0.20449 0.14113 0.0
H774 H 0.02036 0.21303 0.06776 0.0
H775 H 0.03329 0.22402 0.96484 0.0
H776 H 0.00337 0.23244 0.82446 0.0
H777 H 0.97881 0.22214 0.89579 0.0
C778 C 0.97802 0.21211 0.014 0.0
C779 C 0.97957 0.2077 0.07556 0.0
C780 C 0.99184 0.21729 0.97197 0.0
C781 C 0.9949 0.20791 0.09401 0.0
C782 C 0.00862 0.2128 0.05213 0.0
C783 C 0.02136 0.2235 0.94974 0.0
C784 C 0.02021 0.22907 0.88954 0.0
C785 C 0.00732 0.21775 0.99124 0.0
C786 C 0.00466 0.22833 0.8707 0.0
C787 C 0.99058 0.22243 0.91142 0.0
H788 H 0.77367 0.80678 0.98146 0.0
H789 H 0.78173 0.78103 0.82489 0.0
H790 H 0.79448 0.76849 0.89346 0.0
H791 H 0.80115 0.76289 -0.00118 0.0
H792 H 0.79287 0.78841 0.15559 0.0
H793 H 0.78258 0.80307 0.0859 0.0
C794 C 0.77837 0.79858 0.96222 0.0
C795 C 0.77653 0.7947 0.89826 0.0
C796 C 0.78559 0.79126 0.00199 0.0
C797 C 0.78283 0.78414 0.87406 0.0
C798 C 0.79012 0.77692 0.91324 0.0
C799 C 0.79728 0.7718 0.01772 0.0
C800 C 0.7976 0.77436 0.08238 0.0
C801 C 0.79122 0.78009 0.97745 0.0
C802 C 0.79265 0.78608 0.10601 0.0
C803 C 0.78672 0.79446 0.0662 0.0
H804 H 0.76971 0.96476 0.03761 0.0
H805 H 0.78689 0.9982 0.87593 0.0
H806 H 0.80011 0.02388 0.94282 0.0
H807 H 0.80498 0.03691 0.04691 0.0
H808 H 0.78749 0.0035 0.20861 0.0
H809 H 0.77637 0.97782 0.14196 0.0
C810 C 0.77648 0.97766 0.01696 0.0
C811 C 0.77714 0.97951 0.95184 0.0
C812 C 0.78395 0.99242 0.05569 0.0
C813 C 0.78608 0.99635 0.92593 0.0
C814 C 0.79363 0.01108 0.96414 0.0
C815 C 0.79888 0.02403 0.06766 0.0
C816 C 0.79694 0.02216 0.13264 0.0
C817 C 0.79236 0.00928 0.02905 0.0
C818 C 0.78909 0.00535 0.1587 0.0
C819 C 0.78268 0.99062 0.12061 0.0
H820 H 0.03884 0.79677 0.9867 0.0
H821 H 0.00403 0.77873 0.82862 0.0
H822 H 0.97901 0.76825 0.89772 0.0
H823 H 0.96686 0.76263 0.00311 0.0
H824 H 0.00158 0.78053 0.1614 0.0
H825 H 0.0267 0.79273 0.09208 0.0
C826 C 0.02579 0.79066 0.96734 0.0
C827 C 0.02334 0.78841 0.90265 0.0
C828 C 0.01139 0.78457 0.00736 0.0
C829 C 0.00633 0.78056 0.87831 0.0
C830 C 0.99197 0.77453 0.91777 0.0
C831 C 0.97991 0.76931 0.02247 0.0
C832 C 0.9823 0.77051 0.08731 0.0
C833 C 0.99434 0.77622 0.9824 0.0
C834 C -0.00067 0.77932 0.1116 0.0
C835 C 0.01374 0.78629 0.07202 0.0
H836 H 0.235 0.22652 0.09982 0.0
H837 H 0.24144 0.1921 0.97416 0.0
H838 H 0.22975 0.20135 0.88866 0.0
H839 H 0.21899 0.22019 0.84865 0.0
H840 H 0.2135 0.25531 0.97379 0.0
H841 H 0.22342 0.24468 0.06055 0.0
C842 C 0.23376 0.22096 0.05383 0.0
C843 C 0.23916 0.20869 0.04338 0.0
C844 C 0.22722 0.22647 0.00476 0.0
C845 C 0.23746 0.20162 0.98346 0.0
C846 C 0.23077 0.2069 0.93452 0.0
C847 C 0.21981 0.22541 0.895 0.0
C848 C 0.21556 0.23856 0.90466 0.0
C849 C 0.22579 0.21945 0.94451 0.0
C850 C 0.21676 0.24523 0.96499 0.0
C851 C 0.22245 0.23918 0.01465 0.0
H852 H 0.88769 0.33631 0.4095 0.0
H853 H 0.89608 0.37685 0.27897 0.0
H854 H 0.88735 0.35605 0.19315 0.0
H855 H 0.8788 0.32675 0.15455 0.0
H856 H 0.87113 0.28643 0.285 0.0
H857 H 0.87804 0.30676 0.37138 0.0
C858 C 0.8875 0.34059 0.36236 0.0
C859 C 0.89263 0.35815 0.35074 0.0
C860 C 0.88266 0.32862 0.3131 0.0
C861 C 0.89227 0.36343 0.2893 0.0
C862 C 0.88729 0.35155 0.24012 0.0
C863 C 0.87852 0.32236 0.20189 0.0
C864 C 0.87454 0.3051 0.21317 0.0
C865 C 0.88269 0.33417 0.25139 0.0
C866 C 0.87422 0.29965 0.27487 0.0
C867 C 0.87818 0.31127 0.32437 0.0
H868 H 0.6987 0.57732 0.31031 0.0
H869 H 0.667 0.54371 0.16115 0.0
H870 H 0.64213 0.5294 0.23163 0.0
H871 H 0.62895 0.52764 0.33403 0.0
H872 H 0.6606 0.56206 0.48169 0.0
H873 H 0.68591 0.57478 0.4133 0.0
C874 C 0.68641 0.56676 0.29325 0.0
C875 C 0.68471 0.56166 0.23048 0.0
C876 C 0.6721 0.55879 0.33368 0.0
C877 C 0.66866 0.54795 0.20923 0.0
C878 C 0.65441 0.53977 0.24947 0.0
C879 C 0.64141 0.53782 0.3514 0.0
C880 C 0.64283 0.54394 0.41278 0.0
C881 C 0.65591 0.54528 0.31155 0.0
C882 C 0.65909 0.55717 0.43452 0.0
C883 C 0.6736 0.56447 0.39546 0.0
H884 H 0.45261 0.14083 0.22705 0.0
H885 H 0.41106 0.09073 0.16509 0.0
H886 H 0.41706 0.07643 0.25029 0.0
H887 H 0.43347 0.07804 0.34352 0.0
H888 H 0.47525 0.1278 0.40641 0.0
H889 H 0.46981 0.14231 0.3195 0.0
C890 C 0.44491 0.12679 0.23211 0.0
C891 C 0.43137 0.11691 0.18983 0.0
C892 C 0.44843 0.11857 0.28138 0.0
C893 C 0.42156 0.0987 0.1969 0.0
C894 C 0.42496 0.09047 0.2457 0.0
C895 C 0.44142 0.09207 0.33831 0.0
C896 C 0.45466 0.10183 0.38156 0.0
C897 C 0.43826 0.10028 0.2884 0.0
C898 C 0.46494 0.11998 0.37374 0.0
C899 C 0.46183 0.12828 0.32413 0.0
H900 H 0.42978 0.29678 0.30953 0.0
H901 H 0.468 0.32745 0.17012 0.0
H902 H 0.48205 0.35186 0.24286 0.0
H903 H 0.48246 0.36505 0.34427 0.0
H904 H 0.44346 0.3344 0.48162 0.0
H905 H 0.43079 0.30948 0.41141 0.0
C906 C 0.44129 0.30873 0.29517 0.0
C907 C 0.44777 0.3103 0.23444 0.0
C908 C 0.4491 0.3228 0.33672 0.0
C909 C 0.46268 0.32592 0.21659 0.0
C910 C 0.47071 0.3399 0.2581 0.0
C911 C 0.47126 0.35289 0.35892 0.0
C912 C 0.46386 0.35166 0.41789 0.0
C913 C 0.46387 0.33859 0.31798 0.0
C914 C 0.44933 0.33578 0.43623 0.0
C915 C 0.44208 0.32148 0.39618 0.0
H916 H 0.66971 0.11621 0.22404 0.0
H917 H 0.71243 0.13994 0.35464 0.0
H918 H 0.69189 0.13015 0.44127 0.0
H919 H 0.6619 0.1137 0.48007 0.0
H920 H 0.61921 0.0897 0.34942 0.0
H921 H 0.63969 0.10086 0.26269 0.0
C922 C 0.67455 0.11934 0.27142 0.0
C923 C 0.6926 0.12871 0.2828 0.0
C924 C 0.66268 0.11358 0.32104 0.0
C925 C 0.69861 0.1327 0.3445 0.0
C926 C 0.68687 0.12709 0.39412 0.0
C927 C 0.65705 0.11099 0.43264 0.0
C928 C 0.63905 0.10078 0.42132 0.0
C929 C 0.66889 0.11734 0.38295 0.0
C930 C 0.633 0.09747 0.35953 0.0
C931 C 0.6447 0.10383 0.30985 0.0
H932 H 0.87982 0.54616 0.45733 0.0
H933 H 0.9041 0.52796 0.3261 0.0
H934 H 0.89294 0.53745 0.23965 0.0
H935 H 0.87728 0.55189 0.20145 0.0
H936 H 0.8536 0.57072 0.33278 0.0
H937 H 0.86354 0.55995 0.41905 0.0
C938 C 0.88259 0.54415 0.40983 0.0
C939 C 0.89283 0.53639 0.39827 0.0
C940 C 0.87631 0.54981 0.36034 0.0
C941 C 0.8963 0.53394 0.33639 0.0
C942 C 0.88994 0.53937 0.28688 0.0
C943 C 0.8742 0.55357 0.24891 0.0
C944 C 0.86474 0.56216 0.26058 0.0
C945 C 0.88008 0.54749 0.29834 0.0
C946 C 0.8609 0.56422 0.32241 0.0
C947 C 0.86658 0.55806 0.37182 0.0
H948 H 0.54212 0.63245 0.63602 0.0
H949 H 0.52064 0.65729 0.52215 0.0
H950 H 0.52937 0.68039 0.59961 0.0
H951 H 0.5443 0.69424 0.69747 0.0
H952 H 0.56646 0.66965 0.80936 0.0
H953 H 0.55624 0.64578 0.73484 0.0
C954 C 0.53921 0.64283 0.62832 0.0
C955 C 0.5308 0.64316 0.57331 0.0
C956 C 0.54448 0.65619 0.67253 0.0
C957 C 0.52717 0.65675 0.56403 0.0
C958 C 0.53217 0.66998 0.60826 0.0
C959 C 0.54682 0.68362 0.70571 0.0
C960 C 0.55621 0.6838 0.75876 0.0
C961 C 0.54104 0.66996 0.66232 0.0
C962 C 0.55936 0.66992 0.76872 0.0
C963 C 0.5535 0.65622 0.72616 0.0
H964 H 0.33044 0.88964 0.81325 0.0
H965 H 0.28859 0.85844 0.68554 0.0
H966 H 0.30926 0.86774 0.59944 0.0
H967 H 0.33893 0.88585 0.55953 0.0
H968 H 0.38072 0.91743 0.68686 0.0
H969 H 0.36034 0.90673 0.77399 0.0
C970 C 0.32583 0.88478 0.76666 0.0
C971 C 0.30796 0.87345 0.75587 0.0
C972 C 0.33777 0.89028 0.71722 0.0
C973 C 0.30226 0.86724 0.69521 0.0
C974 C 0.31407 0.87256 0.64586 0.0
C975 C 0.34363 0.89031 0.60638 0.0
C976 C 0.36132 0.90251 0.61653 0.0
C977 C 0.33181 0.88424 0.65621 0.0
C978 C 0.36717 0.90809 0.67761 0.0
C979 C 0.35551 0.90201 0.72751 0.0
H980 H 0.14185 0.4465 0.70601 0.0
H981 H 0.10915 0.44535 0.85705 0.0
H982 H 0.09452 0.45567 0.78748 0.0
H983 H 0.08993 0.46357 0.68272 0.0
H984 H 0.12224 0.46424 0.53117 0.0
H985 H 0.13813 0.45569 0.60211 0.0
C986 C 0.13161 0.44862 0.72382 0.0
C987 C 0.12655 0.44503 0.78653 0.0
C988 C 0.12312 0.45443 0.68345 0.0
C989 C 0.11326 0.44789 0.80886 0.0
C990 C 0.10487 0.4538 0.76912 0.0
C991 C 0.10053 0.46198 0.66527 0.0
C992 C 0.10479 0.46443 0.60169 0.0
C993 C 0.10952 0.45689 0.70616 0.0
C994 C 0.1186 0.46234 0.57989 0.0
C995 C 0.12771 0.45744 0.62039 0.0
H996 H 0.13535 0.70411 0.68813 0.0
H997 H 0.13316 0.67033 0.83701 0.0
H998 H 0.1206 0.64545 0.76606 0.0
H999 H 0.10784 0.63284 0.66408 0.0
H1000 H 0.10939 0.66672 0.51659 0.0
H1001 H 0.12463 0.69193 0.58467 0.0
C1002 C 0.13236 0.69136 0.70496 0.0
C1003 C 0.13505 0.68909 0.76795 0.0
C1004 C 0.12484 0.67705 0.66428 0.0
C1005 C 0.13113 0.67246 0.78881 0.0
C1006 C 0.12389 0.65819 0.74832 0.0
C1007 C 0.11165 0.64575 0.64666 0.0
C1008 C 0.10727 0.64782 0.58555 0.0
C1009 C 0.12028 0.66025 0.68632 0.0
C1010 C 0.11241 0.66469 0.56364 0.0
C1011 C 0.12115 0.67915 0.60252 0.0
H1012 H 0.32712 0.45025 0.77638 0.0
H1013 H 0.28454 0.43218 0.64559 0.0
H1014 H 0.30509 0.44187 0.55895 0.0
H1015 H 0.33492 0.45329 0.52032 0.0
H1016 H 0.37743 0.47116 0.65141 0.0
H1017 H 0.35711 0.46381 0.73785 0.0
C1018 C 0.32233 0.44858 0.72895 0.0
C1019 C 0.3043 0.44032 0.71753 0.0
C1020 C 0.33419 0.45403 0.67934 0.0
C1021 C 0.29834 0.43843 0.65578 0.0
C1022 C 0.31008 0.44391 0.60614 0.0
C1023 C 0.33977 0.45571 0.56777 0.0
C1024 C 0.35765 0.46257 0.57934 0.0
C1025 C 0.328 0.45137 0.61737 0.0
C1026 C 0.36372 0.4658 0.64111 0.0
C1027 C 0.3521 0.46157 0.69065 0.0
H1028 H 0.55332 0.88314 0.84349 0.0
H1029 H 0.58412 0.87267 0.71352 0.0
H1030 H 0.57117 0.87996 0.62668 0.0
H1031 H 0.55231 0.89073 0.58802 0.0
H1032 H 0.52235 0.90238 0.71782 0.0
H1033 H 0.53371 0.89309 0.80435 0.0
C1034 C 0.55709 0.88231 0.79614 0.0
C1035 C 0.56971 0.87743 0.78504 0.0
C1036 C 0.5498 0.88679 0.74642 0.0
C1037 C 0.5745 0.87648 0.72341 0.0
C1038 C 0.56711 0.88065 0.67369 0.0
C1039 C 0.54814 0.89112 0.63517 0.0
C1040 C 0.53654 0.8973 0.64643 0.0
C1041 C 0.55493 0.88604 0.68471 0.0
C1042 C 0.53132 0.89774 0.70786 0.0
C1043 C 0.53781 0.89245 0.75739 0.0
H1044 H 0.3559 0.09455 0.20067 0.0
H1045 H 0.34747 0.09769 0.00426 0.0
H1046 H 0.31603 0.08308 0.02162 0.0
H1047 H 0.29111 0.07064 0.09328 0.0
H1048 H 0.29965 0.06734 0.28956 0.0
H1049 H 0.33092 0.08072 0.27134 0.0
C1050 C 0.34719 0.092 0.16156 0.0
C1051 C 0.35403 0.09734 0.10133 0.0
C1052 C 0.32917 0.08359 0.17186 0.0
C1053 C 0.34255 0.09375 0.05111 0.0
C1054 C 0.32458 0.08543 0.06102 0.0
C1055 C 0.29979 0.07276 0.13207 0.0
C1056 C 0.29305 0.06811 0.19276 0.0
C1057 C 0.31777 0.08048 0.1213 0.0
C1058 C 0.30448 0.07082 0.24239 0.0
C1059 C 0.32238 0.07851 0.23206 0.0
H1060 H 0.90469 0.26473 0.11498 0.0
H1061 H 0.87001 0.22264 0.99369 0.0
H1062 H 0.88166 0.20467 0.03249 0.0
H1063 H 0.90131 0.20066 0.10166 0.0
H1064 H 0.93645 0.24273 0.22189 0.0
H1065 H 0.92495 0.26091 0.18277 0.0
C1066 C 0.89974 0.25166 0.09681 0.0
C1067 C 0.88647 0.24506 0.05149 0.0
C1068 C 0.9065 0.24134 0.11934 0.0
C1069 C 0.88022 0.22809 0.02848 0.0
C1070 C 0.88685 0.21776 0.05076 0.0
C1071 C 0.90644 0.21378 0.11952 0.0
C1072 C 0.91966 0.22028 0.16489 0.0
C1073 C 0.8999 0.22421 0.09642 0.0
C1074 C 0.92625 0.23739 0.18701 0.0
C1075 C 0.91969 0.2478 0.16464 0.0
H1076 H 0.73616 0.64016 0.11541 0.0
H1077 H 0.77164 0.62661 0.20318 0.0
H1078 H 0.78808 0.65579 0.24729 0.0
H1079 H 0.79279 0.68527 0.25959 0.0
H1080 H 0.7579 0.69935 0.17046 0.0
H1081 H 0.74078 0.66981 0.12864 0.0
C1082 C 0.74747 0.64358 0.14425 0.0
C1083 C 0.75266 0.63119 0.1558 0.0
C1084 C 0.75697 0.66047 0.16937 0.0
C1085 C 0.76736 0.63587 0.19329 0.0
C1086 C 0.77678 0.65257 0.21868 0.0
C1087 C 0.78138 0.68189 0.23133 0.0
C1088 C 0.77664 0.69452 0.21826 0.0
C1089 C 0.77174 0.66498 0.20686 0.0
C1090 C 0.76186 0.68988 0.18126 0.0
C1091 C 0.75207 0.673 0.15724 0.0
H1092 H 0.07517 0.30599 0.90005 0.0
H1093 H 0.0843 0.31161 0.70175 0.0
H1094 H 0.10037 0.34329 0.71284 0.0
H1095 H 0.11234 0.36935 0.77898 0.0
H1096 H 0.10297 0.36375 0.97714 0.0
H1097 H 0.08643 0.33208 0.96579 0.0
C1098 C 0.08065 0.31413 0.85919 0.0
C1099 C 0.07859 0.30642 0.8002 0.0
C1100 C 0.08984 0.33234 0.86585 0.0
C1101 C 0.08569 0.31718 0.74773 0.0
C1102 C 0.09491 0.33531 0.75402 0.0
C1103 C 0.10667 0.36122 0.81973 0.0
C1104 C 0.10897 0.36893 0.87886 0.0
C1105 C 0.09714 0.34302 0.81289 0.0
C1106 C 0.10142 0.35818 0.93107 0.0
C1107 C 0.09197 0.34005 0.92465 0.0
H1108 H 0.70035 0.79624 0.8942 0.0
H1109 H 0.69332 0.75775 0.75629 0.0
H1110 H 0.66262 0.74023 0.78471 0.0
H1111 H 0.63764 0.73622 0.84669 0.0
H1112 H 0.64472 0.77477 0.98444 0.0
H1113 H 0.67558 0.79182 0.95818 0.0
C1114 C 0.69213 0.784 0.87037 0.0
C1115 C 0.69913 0.77837 0.82297 0.0
C1116 C 0.6745 0.77399 0.8869 0.0
C1117 C 0.68828 0.76243 0.79286 0.0
C1118 C 0.67071 0.7524 0.80906 0.0
C1119 C 0.64593 0.74831 0.87121 0.0
C1120 C 0.63883 0.75422 0.91734 0.0
C1121 C 0.66367 0.75811 0.85573 0.0
C1122 C 0.64981 0.76991 0.9487 0.0
C1123 C 0.66747 0.7797 0.93365 0.0
H1124 H 0.2297 0.93008 0.84309 0.0
H1125 H 0.19637 0.89007 0.71258 0.0
H1126 H 0.21013 0.87303 0.73926 0.0
H1127 H 0.23146 0.86933 0.79953 0.0
H1128 H 0.26523 0.90932 0.92911 0.0
H1129 H 0.25143 0.92647 0.90293 0.0
C1130 C 0.22546 0.91764 0.82044 0.0
C1131 C 0.212 0.91139 0.77591 0.0
C1132 C 0.23347 0.90787 0.83589 0.0
C1133 C 0.2067 0.89525 0.74695 0.0
C1134 C 0.21455 0.88545 0.76223 0.0
C1135 C 0.2358 0.88178 0.82224 0.0
C1136 C 0.24933 0.88799 0.86636 0.0
C1137 C 0.22791 0.89161 0.80668 0.0
C1138 C 0.25483 0.90421 0.89497 0.0
C1139 C 0.24695 0.91404 0.88003 0.0
H1140 H 0.69702 0.92963 0.84457 0.0
H1141 H 0.70689 0.89092 0.92686 0.0
H1142 H 0.67716 0.8752 0.9665 0.0
H1143 H 0.64821 0.87211 0.97649 0.0
H1144 H 0.63818 0.91067 0.89394 0.0
H1145 H 0.66812 0.92678 0.85606 0.0
C1146 C 0.69268 0.91777 0.87122 0.0
C1147 C 0.70419 0.91146 0.88252 0.0
C1148 C 0.67553 0.90875 0.89395 0.0
C1149 C 0.69833 0.89608 0.91732 0.0
C1150 C 0.68131 0.88706 0.94008 0.0
C1151 C 0.65257 0.88408 0.95044 0.0
C1152 C 0.64093 0.89014 0.93809 0.0
C1153 C 0.66978 0.89324 0.9285 0.0
C1154 C 0.64684 0.90568 0.90418 0.0
C1155 C 0.66397 0.9149 0.88238 0.0
H1156 H 0.09251 0.77875 0.76792 0.0
H1157 H 0.04805 0.73633 0.85848 0.0
H1158 H 0.06613 0.72418 0.8925 0.0
H1159 H 0.09481 0.72601 0.89827 0.0
H1160 H 0.13907 0.76885 0.80808 0.0
H1161 H 0.12077 0.78039 0.77235 0.0
C1162 C 0.08671 0.7668 0.7949 0.0
C1163 C 0.06894 0.75848 0.81064 0.0
C1164 C 0.09717 0.75998 0.81462 0.0
C1165 C 0.06169 0.74301 0.84568 0.0
C1166 C 0.07203 0.73607 0.86525 0.0
C1167 C 0.10044 0.73786 0.87074 0.0
C1168 C 0.11831 0.74656 0.85609 0.0
C1169 C 0.08982 0.74451 0.85031 0.0
C1170 C 0.12538 0.76189 0.82027 0.0
C1171 C 0.11492 0.76851 0.7997 0.0
H1172 H 0.23984 0.30502 0.79095 0.0
H1173 H 0.20807 0.31011 0.64927 0.0
H1174 H 0.21954 0.34056 0.6778 0.0
H1175 H 0.23783 0.36546 0.74464 0.0
H1176 H 0.26986 0.36077 0.88607 0.0
H1177 H 0.25902 0.33042 0.85586 0.0
C1178 C 0.23551 0.31282 0.76602 0.0
C1179 C 0.22306 0.30524 0.71813 0.0
C1180 C 0.24212 0.33036 0.78281 0.0
C1181 C 0.21761 0.31556 0.68633 0.0
C1182 C 0.22414 0.33299 0.70269 0.0
C1183 C 0.24246 0.35783 0.76897 0.0
C1184 C 0.25456 0.36535 0.81783 0.0
C1185 C 0.23625 0.34046 0.75122 0.0
C1186 C 0.26053 0.35529 0.84838 0.0
C1187 C 0.25433 0.33793 0.83113 0.0
H1188 H 0.90075 0.6915 0.13318 0.0
H1189 H 0.94212 0.69514 0.24986 0.0
H1190 H 0.93166 0.66415 0.23419 0.0
H1191 H 0.91061 0.63593 0.18803 0.0
H1192 H 0.86914 0.63239 0.07209 0.0
H1193 H 0.87985 0.66341 0.08679 0.0
C1194 C 0.9075 0.68554 0.15519 0.0
C1195 C 0.92219 0.69565 0.19268 0.0
C1196 C 0.90141 0.66771 0.14611 0.0
C1197 C 0.93077 0.68768 0.22082 0.0
C1198 C 0.9248 0.66994 0.21187 0.0
C1199 C 0.90394 0.64195 0.16582 0.0
C1200 C 0.88909 0.63181 0.12901 0.0
C1201 C 0.91012 0.65982 0.17467 0.0
C1202 C 0.88059 0.63984 0.10073 0.0
C1203 C 0.8867 0.65761 0.1091 0.0
H1204 H 0.37289 0.23198 0.19364 0.0
H1205 H 0.37167 0.27049 0.07392 0.0
H1206 H 0.34098 0.25915 0.09936 0.0
H1207 H 0.31439 0.23802 0.15468 0.0
H1208 H 0.31601 0.19984 0.27527 0.0
H1209 H 0.34667 0.2114 0.25044 0.0
C1210 C 0.36594 0.23791 0.173 0.0
C1211 C 0.37457 0.25202 0.13171 0.0
C1212 C 0.34835 0.2314 0.18804 0.0
C1213 C 0.36535 0.25961 0.10581 0.0
C1214 C 0.34779 0.25312 0.12031 0.0
C1215 C 0.32146 0.23225 0.17564 0.0
C1216 C 0.31286 0.21805 0.21667 0.0
C1217 C 0.33915 0.23899 0.16124 0.0
C1218 C 0.32226 0.21078 0.24355 0.0
C1219 C 0.33981 0.21736 0.22932 0.0
H1220 H 0.75646 0.11786 0.12304 0.0
H1221 H 0.71213 0.07675 0.21887 0.0
H1222 H 0.72954 0.06361 0.24957 0.0
H1223 H 0.75757 0.06413 0.25098 0.0
H1224 H 0.80171 0.10529 0.15432 0.0
H1225 H 0.78412 0.11801 0.12229 0.0
C1226 C 0.75056 0.106 0.15052 0.0
C1227 C 0.73302 0.09835 0.16875 0.0
C1228 C 0.76063 0.09852 0.16805 0.0
C1229 C 0.72561 0.08293 0.20417 0.0
C1230 C 0.73556 0.07541 0.22186 0.0
C1231 C 0.76333 0.07587 0.22285 0.0
C1232 C 0.78096 0.08375 0.20533 0.0
C1233 C 0.75312 0.08315 0.20437 0.0
C1234 C 0.78819 0.09893 0.1686 0.0
C1235 C 0.77814 0.10624 0.15022 0.0
H1236 H 0.01924 0.46345 0.3967 0.0
H1237 H 0.03001 0.42823 0.50087 0.0
H1238 H 0.9991 0.41033 0.52648 0.0
H1239 H 0.96893 0.40475 0.51939 0.0
H1240 H 0.95871 0.44045 0.41559 0.0
H1241 H 0.98946 0.45804 0.38998 0.0
C1242 C 0.01487 0.45184 0.42492 0.0
C1243 C 0.02695 0.4472 0.4467 0.0
C1244 C 0.99713 0.44168 0.43969 0.0
C1245 C 0.021 0.43213 0.48343 0.0
C1246 C 0.00332 0.42187 0.49813 0.0
C1247 C 0.97344 0.41637 0.4912 0.0
C1248 C 0.96148 0.42123 0.46951 0.0
C1249 C 0.99125 0.42654 0.47656 0.0
C1250 C 0.96757 0.43636 0.43304 0.0
C1251 C 0.98519 0.44646 0.41824 0.0
H1252 H 0.5749 0.55269 0.3869 0.0
H1253 H 0.58794 0.57577 0.57019 0.0
H1254 H 0.57279 0.59186 0.54811 0.0
H1255 H 0.55505 0.59863 0.47798 0.0
H1256 H 0.54179 0.57517 0.29524 0.0
H1257 H 0.55789 0.56003 0.31598 0.0
C1258 C 0.5745 0.56128 0.42203 0.0
C1259 C 0.5825 0.56295 0.48021 0.0
C1260 C 0.5657 0.57041 0.40918 0.0
C1261 C 0.58187 0.5742 0.52505 0.0
C1262 C 0.57319 0.5834 0.51249 0.0
C1263 C 0.55575 0.59028 0.44253 0.0
C1264 C 0.54716 0.58801 0.38518 0.0
C1265 C 0.56495 0.5815 0.45488 0.0
C1266 C 0.54822 0.57713 0.33983 0.0
C1267 C 0.55743 0.56845 0.35165 0.0
H1268 H 0.4348 0.0312 0.52497 0.0
H1269 H 0.47772 0.04133 0.40385 0.0
H1270 H 0.46296 0.01078 0.37269 0.0
H1271 H 0.43814 0.98112 0.38063 0.0
H1272 H 0.39513 0.97077 0.50156 0.0
H1273 H 0.40962 0.00148 0.53154 0.0
C1274 C 0.44094 0.02672 0.49184 0.0
C1275 C 0.45738 0.03855 0.467 0.0
C1276 C 0.43235 0.00909 0.47386 0.0
C1277 C 0.46509 0.03253 0.42381 0.0
C1278 C 0.45666 0.01504 0.40588 0.0
C1279 C 0.43187 0.98557 0.41333 0.0
C1280 C 0.41557 0.97363 0.4388 0.0
C1281 C 0.44031 0.00321 0.43066 0.0
C1282 C 0.40767 0.97966 0.48115 0.0
C1283 C 0.41597 0.99722 0.49848 0.0
H1284 H 0.56507 0.02942 0.48252 0.0
H1285 H 0.60168 0.02586 0.60557 0.0
H1286 H 0.58872 0.99482 0.5811 0.0
H1287 H 0.56666 0.96863 0.52575 0.0
H1288 H 0.53045 0.97271 0.40188 0.0
H1289 H 0.5437 0.00367 0.42557 0.0
C1290 C 0.57023 0.02188 0.50418 0.0
C1291 C 0.58426 0.02994 0.54612 0.0
C1292 C 0.56282 0.00414 0.48961 0.0
C1293 C 0.59086 0.01998 0.57321 0.0
C1294 C 0.58346 0.00223 0.55923 0.0
C1295 C 0.56171 0.9763 0.50373 0.0
C1296 C 0.54754 0.96831 0.46219 0.0
C1297 C 0.5694 0.99417 0.51758 0.0
C1298 C 0.54133 0.97848 0.43402 0.0
C1299 C 0.54887 0.9962 0.44762 0.0
H1300 H 0.96257 0.56789 0.51656 0.0
H1301 H 0.9701 0.54561 0.68437 0.0
H1302 H 0.00147 0.56107 0.66659 0.0
H1303 H 0.0266 0.57974 0.60106 0.0
H1304 H 0.01917 0.6018 0.43252 0.0
H1305 H 0.98794 0.58765 0.45323 0.0
C1306 C 0.97107 0.56651 0.54952 0.0
C1307 C 0.96395 0.55552 0.60156 0.0
C1308 C 0.98912 0.57534 0.5388 0.0
C1309 C 0.97519 0.55392 0.64381 0.0
C1310 C 0.99315 0.56274 0.63366 0.0
C1311 C 0.01819 0.58155 0.56895 0.0
C1312 C 0.02523 0.59174 0.51512 0.0
C1313 C 0.00023 0.5733 0.58091 0.0
C1314 C 0.01411 0.59398 0.47423 0.0
C1315 C 0.99623 0.58588 0.48599 0.0
H1316 H 0.43266 0.46323 0.53254 0.0
H1317 H 0.39421 0.41915 0.42739 0.0
H1318 H 0.4076 0.40205 0.45962 0.0
H1319 H 0.43068 0.39991 0.51553 0.0
H1320 H 0.46894 0.44409 0.62096 0.0
H1321 H 0.45505 0.4608 0.59096 0.0
C1322 C 0.42718 0.44988 0.51659 0.0
C1323 C 0.41252 0.44253 0.47727 0.0
C1324 C 0.43489 0.44013 0.53545 0.0
C1325 C 0.40552 0.42515 0.45757 0.0
C1326 C 0.41316 0.41536 0.47597 0.0
C1327 C 0.43593 0.41316 0.53225 0.0
C1328 C 0.45088 0.42074 0.57028 0.0
C1329 C 0.42791 0.42275 0.51464 0.0
C1330 C 0.45747 0.43792 0.5916 0.0
C1331 C 0.44956 0.44752 0.57436 0.0
H1332 H 0.20768 0.08491 0.20965 0.0
H1333 H 0.258 0.10311 0.29516 0.0
H1334 H 0.26403 0.13304 0.28935 0.0
H1335 H 0.25556 0.15418 0.25789 0.0
H1336 H 0.20553 0.1366 0.17124 0.0
H1337 H 0.19888 0.10633 0.17981 0.0
C1338 C 0.21992 0.09542 0.22729 0.0
C1339 C 0.23237 0.09172 0.25261 0.0
C1340 C 0.22341 0.11274 0.22349 0.0
C1341 C 0.24818 0.10553 0.27518 0.0
C1342 C 0.25168 0.12269 0.27192 0.0
C1343 C 0.24316 0.14376 0.24096 0.0
C1344 C 0.23109 0.14768 0.2138 0.0
C1345 C 0.23946 0.12646 0.24577 0.0
C1346 C 0.21508 0.13396 0.19228 0.0
C1347 C 0.21127 0.11664 0.19713 0.0
H1348 H 0.87192 0.08465 0.21717 0.0
H1349 H 0.84596 0.10623 0.32451 0.0
H1350 H 0.87233 0.13465 0.32431 0.0
H1351 H 0.90231 0.1537 0.2907 0.0
H1352 H 0.92854 0.13266 0.18233 0.0
H1353 H 0.90255 0.10373 0.18626 0.0
C1354 C 0.87207 0.09554 0.24082 0.0
C1355 C 0.85693 0.09327 0.27056 0.0
C1356 C 0.88731 0.11198 0.24027 0.0
C1357 C 0.85737 0.10756 0.30102 0.0
C1358 C 0.87246 0.12386 0.30096 0.0
C1359 C 0.90242 0.1428 0.26815 0.0
C1360 C 0.91735 0.14539 0.23606 0.0
C1361 C 0.88743 0.12626 0.27023 0.0
C1362 C 0.91722 0.13106 0.20728 0.0
C1363 C 0.90235 0.1145 0.20943 0.0
H1364 H 0.90019 0.74631 0.26657 0.0
H1365 H 0.92948 0.79442 0.16462 0.0
H1366 H 0.90361 0.7975 0.15808 0.0
H1367 H 0.87248 0.78623 0.18016 0.0
H1368 H 0.84358 0.73807 0.28244 0.0
H1369 H 0.86953 0.73539 0.28995 0.0
C1370 C 0.90097 0.75751 0.24295 0.0
C1371 C 0.91676 0.77009 0.21603 0.0
C1372 C 0.88609 0.75919 0.23936 0.0
C1373 C 0.91749 0.78452 0.18576 0.0
C1374 C 0.9027 0.78629 0.18195 0.0
C1375 C 0.87187 0.77518 0.2042 0.0
C1376 C 0.85607 0.76238 0.23056 0.0
C1377 C 0.8869 0.77367 0.20841 0.0
C1378 C 0.85554 0.74814 0.26164 0.0
C1379 C 0.87038 0.74656 0.26598 0.0
H1380 H 0.10494 0.2438 0.63402 0.0
H1381 H 0.09215 0.24269 0.82852 0.0
H1382 H 0.11743 0.24018 0.85752 0.0
H1383 H 0.14426 0.24033 0.828 0.0
H1384 H 0.15702 0.24152 0.63337 0.0
H1385 H 0.13059 0.24182 0.6043 0.0
C1386 C 0.1076 0.24289 0.68275 0.0
C1387 C 0.09676 0.24362 0.72897 0.0
C1388 C 0.1222 0.24152 0.69919 0.0
C1389 C 0.10031 0.24224 0.7919 0.0
C1390 C 0.1148 0.24084 0.80861 0.0
C1391 C 0.14119 0.24049 0.77921 0.0
C1392 C 0.15271 0.24107 0.73305 0.0
C1393 C 0.126 0.24077 0.76268 0.0
C1394 C 0.14844 0.24115 0.66999 0.0
C1395 C 0.13333 0.24136 0.65323 0.0
H1396 H 0.79059 0.8687 0.80951 0.0
H1397 H 0.7444 0.84458 0.69455 0.0
H1398 H 0.74288 0.87126 0.69687 0.0
H1399 H 0.75356 0.90074 0.73576 0.0
H1400 H 0.79934 0.9251 0.8525 0.0
H1401 H 0.80216 0.89906 0.8448 0.0
C1402 C 0.78029 0.86934 0.7845 0.0
C1403 C 0.76758 0.8546 0.75224 0.0
C1404 C 0.77935 0.88473 0.78652 0.0
C1405 C 0.75431 0.85566 0.72011 0.0
C1406 C 0.75341 0.87093 0.72139 0.0
C1407 C 0.76425 0.90045 0.75929 0.0
C1408 C 0.77615 0.91484 0.79498 0.0
C1409 C 0.76569 0.88543 0.75517 0.0
C1410 C 0.78995 0.91421 0.82483 0.0
C1411 C 0.79156 0.8993 0.82054 0.0
H1412 H 0.14622 0.89884 0.71731 0.0
H1413 H 0.12417 0.92148 0.83935 0.0
H1414 H 0.0963 0.89412 0.83855 0.0
H1415 H 0.07879 0.86317 0.80795 0.0
H1416 H 0.10152 0.84092 0.68701 0.0
H1417 H 0.1285 0.86878 0.68262 0.0
C1418 C 0.13531 0.89788 0.74351 0.0
C1419 C 0.13733 0.91216 0.77873 0.0
C1420 C 0.11944 0.88213 0.74329 0.0
C1421 C 0.12299 0.91068 0.81196 0.0
C1422 C 0.10706 0.89501 0.81165 0.0
C1423 C 0.08959 0.86446 0.78024 0.0
C1424 C 0.08814 0.84991 0.7483 0.0
C1425 C 0.10522 0.88056 0.77821 0.0
C1426 C 0.10227 0.85184 0.71246 0.0
C1427 C 0.11774 0.86778 0.70987 0.0
H1428 H 0.9083 0.42932 0.57725 0.0
H1429 H 0.86341 0.4044 0.45644 0.0
H1430 H 0.86054 0.43047 0.45995 0.0
H1431 H 0.87163 0.46085 0.49391 0.0
H1432 H 0.91675 0.48543 0.614 0.0
H1433 H 0.9186 0.45893 0.61412 0.0
C1434 C 0.89781 0.42951 0.55186 0.0
C1435 C 0.88615 0.41494 0.51638 0.0
C1436 C 0.89631 0.44452 0.55374 0.0
C1437 C 0.8726 0.41543 0.48408 0.0
C1438 C 0.87097 0.43035 0.48595 0.0
C1439 C 0.8818 0.46038 0.52037 0.0
C1440 C 0.89408 0.47518 0.55359 0.0
C1441 C 0.88288 0.44506 0.52009 0.0
C1442 C 0.90716 0.4743 0.58775 0.0
C1443 C 0.90825 0.45913 0.58789 0.0
H1444 H 0.51668 0.43247 0.5251 0.0
H1445 H 0.53616 0.41234 0.66787 0.0
H1446 H 0.56375 0.43992 0.66953 0.0
H1447 H 0.58152 0.47043 0.63557 0.0
H1448 H 0.56144 0.49052 0.49471 0.0
H1449 H 0.53494 0.46222 0.48712 0.0
C1450 C 0.52699 0.43401 0.55624 0.0
C1451 C 0.52428 0.42038 0.59663 0.0
C1452 C 0.5427 0.44995 0.55759 0.0
C1453 C 0.53785 0.42263 0.63645 0.0
C1454 C 0.55363 0.43842 0.63754 0.0
C1455 C 0.57142 0.46858 0.6028 0.0
C1456 C 0.57343 0.48264 0.56617 0.0
C1457 C 0.55608 0.45228 0.59912 0.0
C1458 C 0.56021 0.47998 0.52383 0.0
C1459 C 0.54503 0.46379 0.51942 0.0
H1460 H 0.58817 0.12177 0.51322 0.0
H1461 H 0.56767 0.08113 0.65236 0.0
H1462 H 0.53995 0.08062 0.65081 0.0
H1463 H 0.52095 0.09031 0.60574 0.0
H1464 H 0.54086 0.13038 0.46465 0.0
H1465 H 0.56942 0.13259 0.47167 0.0
C1466 C 0.57769 0.11292 0.54364 0.0
C1467 C 0.57998 0.10144 0.58252 0.0
C1468 C 0.56165 0.11252 0.54202 0.0
C1469 C 0.56626 0.09005 0.62165 0.0
C1470 C 0.55037 0.08973 0.62082 0.0
C1471 C 0.53155 0.09964 0.57678 0.0
C1472 C 0.52872 0.11007 0.53442 0.0
C1473 C 0.54784 0.10069 0.58049 0.0
C1474 C 0.54265 0.12213 0.49752 0.0
C1475 C 0.55899 0.12338 0.50141 0.0
H1476 H 0.74336 0.54403 0.14644 0.0
H1477 H 0.75861 0.57918 0.98966 0.0
H1478 H 0.78562 0.5785 0.97994 0.0
H1479 H 0.80605 0.5701 0.02133 0.0
H1480 H 0.79134 0.53533 0.17887 0.0
H1481 H 0.76292 0.53354 0.18231 0.0
C1482 C 0.75249 0.55137 0.10966 0.0
C1483 C 0.74902 0.5618 0.06936 0.0
C1484 C 0.76816 0.55108 0.10463 0.0
C1485 C 0.76097 0.57114 0.02171 0.0
C1486 C 0.77646 0.5708 0.01611 0.0
C1487 C 0.79658 0.56199 0.05611 0.0
C1488 C 0.80091 0.55304 0.10025 0.0
C1489 C 0.78037 0.56116 0.05822 0.0
C1490 C 0.78838 0.54241 0.14446 0.0
C1491 C 0.77214 0.54143 0.14662 0.0
H1492 H 0.45316 0.19532 -0.00146 0.0
H1493 H 0.40237 0.17003 0.08515 0.0
H1494 H 0.40427 0.19813 0.10056 0.0
H1495 H 0.41964 0.22962 0.08625 0.0
H1496 H 0.47037 0.25543 -0.00027 0.0
H1497 H 0.46923 0.22738 0.98802 0.0
C1498 C 0.44254 0.19597 0.02101 0.0
C1499 C 0.4276 0.18054 0.04024 0.0
C1500 C 0.44368 0.21225 0.02973 0.0
C1501 C 0.41401 0.18165 0.06959 0.0
C1502 C 0.41506 0.19773 0.07846 0.0
C1503 C 0.43051 0.22917 0.06499 0.0
C1504 C 0.44502 0.2446 0.04352 0.0
C1505 C 0.42973 0.21307 0.05817 0.0
C1506 C 0.45902 0.24375 0.01658 0.0
C1507 C 0.45836 0.22771 0.00973 0.0
H1508 H 0.76967 0.18543 0.9745 0.0
H1509 H 0.75059 0.18977 0.15469 0.0
H1510 H 0.77534 0.21919 0.16668 0.0
H1511 H 0.80353 0.2428 0.12966 0.0
H1512 H 0.82289 0.23817 0.9504 0.0
H1513 H 0.79683 0.20986 0.93434 0.0
C1514 C 0.77082 0.19286 0.01616 0.0
C1515 C 0.75836 0.18531 0.06382 0.0
C1516 C 0.7852 0.20972 0.02312 0.0
C1517 C 0.76003 0.19519 0.11735 0.0
C1518 C 0.77421 0.21203 0.12435 0.0
C1519 C 0.80198 0.2357 0.08675 0.0
C1520 C 0.81524 0.24257 0.04161 0.0
C1521 C 0.78705 0.2193 0.07807 0.0
C1522 C 0.81295 0.23318 0.98618 0.0
C1523 C 0.79806 0.21695 0.97694 0.0
H1524 H 0.575 0.76694 0.03154 0.0
H1525 H 0.56654 0.7544 0.83573 0.0
H1526 H 0.56463 0.78057 0.81664 0.0
H1527 H 0.56741 0.80801 0.85426 0.0
H1528 H 0.57692 0.82103 0.0495 0.0
H1529 H 0.57625 0.79361 0.07002 0.0
C1530 C 0.57254 0.76981 0.98477 0.0
C1531 C 0.57103 0.75877 0.93511 0.0
C1532 C 0.57175 0.78503 0.97391 0.0
C1533 C 0.56786 0.76272 0.87479 0.0
C1534 C 0.56678 0.7777 0.86379 0.0
C1535 C 0.56917 0.80479 0.90142 0.0
C1536 C 0.57232 0.81663 0.95016 0.0
C1537 C 0.56903 0.78911 0.9128 0.0
C1538 C 0.57456 0.81221 0.011 0.0
C1539 C 0.5742 0.79653 0.02282 0.0
H1540 H 0.2114 0.7527 0.8828 0.0
H1541 H 0.18044 0.76957 0.98466 0.0
H1542 H 0.20551 0.79878 0.99377 0.0
H1543 H 0.23582 0.81992 0.96934 0.0
H1544 H 0.26713 0.80342 0.86812 0.0
H1545 H 0.24237 0.77372 0.86264 0.0
C1546 C 0.21017 0.76274 0.90729 0.0
C1547 C 0.194 0.75892 0.93265 0.0
C1548 C 0.22469 0.77962 0.91239 0.0
C1549 C 0.19268 0.7721 0.96452 0.0
C1550 C 0.20702 0.78885 0.96972 0.0
C1551 C 0.23728 0.80983 0.94628 0.0
C1552 C 0.25328 0.81394 0.91886 0.0
C1553 C 0.22302 0.79281 0.94325 0.0
C1554 C 0.25495 0.80064 0.88959 0.0
C1555 C 0.24079 0.78364 0.8863 0.0
H1556 H 0.18215 0.41632 0.93869 0.0
H1557 H 0.20459 0.47033 0.88545 0.0
H1558 H 0.23293 0.47238 0.87091 0.0
H1559 H 0.25127 0.45867 0.87273 0.0
H1560 H 0.22833 0.40462 0.92677 0.0
H1561 H 0.20027 0.40282 0.94151 0.0
C1562 C 0.19321 0.42858 0.92393 0.0
C1563 C 0.19122 0.44314 0.91311 0.0
C1564 C 0.20941 0.42966 0.91574 0.0
C1565 C 0.20575 0.45891 0.89415 0.0
C1566 C 0.22196 0.46009 0.88577 0.0
C1567 C 0.24013 0.4465 0.88773 0.0
C1568 C 0.24195 0.43181 0.89856 0.0
C1569 C 0.22394 0.44552 0.89631 0.0
C1570 C 0.22737 0.41616 0.91813 0.0
C1571 C 0.21127 0.41509 0.92657 0.0
H1572 H 0.41381 0.87964 0.51602 0.0
H1573 H 0.43503 0.92515 0.39773 0.0
H1574 H 0.46297 0.92618 0.3955 0.0
H1575 H 0.4817 0.91491 0.42947 0.0
H1576 H 0.46101 0.86956 0.54814 0.0
H1577 H 0.43253 0.8677 0.54751 0.0
C1578 C 0.42452 0.88973 0.48952 0.0
C1579 C 0.4223 0.90234 0.45734 0.0
C1580 C 0.44067 0.89032 0.48854 0.0
C1581 C 0.43633 0.9153 0.42312 0.0
C1582 C 0.45236 0.91592 0.4218 0.0
C1583 C 0.47097 0.90455 0.4551 0.0
C1584 C 0.47353 0.89244 0.48905 0.0
C1585 C 0.45471 0.90361 0.45475 0.0
C1586 C 0.45942 0.87908 0.52167 0.0
C1587 C 0.44313 0.87802 0.52142 0.0
H1588 H 0.11859 0.58764 0.45846 0.0
H1589 H 0.06383 0.56284 0.41301 0.0
H1590 H 0.06201 0.5345 0.41084 0.0
H1591 H 0.07568 0.51664 0.42277 0.0
H1592 H 0.13028 0.54096 0.46943 0.0
H1593 H 0.1324 0.56957 0.47007 0.0
C1594 C 0.10627 0.57604 0.44797 0.0
C1595 C 0.09139 0.57742 0.43595 0.0
C1596 C 0.10525 0.55968 0.44702 0.0
C1597 C 0.07551 0.56222 0.42255 0.0
C1598 C 0.07443 0.54597 0.42125 0.0
C1599 C 0.08808 0.52818 0.43296 0.0
C1600 C 0.10279 0.52663 0.44603 0.0
C1601 C 0.08919 0.54454 0.43356 0.0
C1602 C 0.11873 0.54176 0.45923 0.0
C1603 C 0.11996 0.55813 0.45962 0.0
H1604 H 0.47398 0.5646 0.36536 0.0
H1605 H 0.45128 0.5895 0.47238 0.0
H1606 H 0.42343 0.56219 0.47476 0.0
H1607 H 0.40596 0.53088 0.45061 0.0
H1608 H 0.42913 0.50615 0.34509 0.0
H1609 H 0.45633 0.53381 0.33783 0.0
C1610 C 0.46294 0.56412 0.38899 0.0
C1611 C 0.46476 0.57907 0.41896 0.0
C1612 C 0.44704 0.54838 0.3906 0.0
C1613 C 0.45026 0.57819 0.44908 0.0
C1614 C 0.43433 0.56256 0.45053 0.0
C1615 C 0.41691 0.53156 0.42562 0.0
C1616 C 0.4155 0.51642 0.39872 0.0
C1617 C 0.43263 0.54752 0.42207 0.0
C1618 C 0.42984 0.51756 0.36649 0.0
C1619 C 0.44543 0.53339 0.36232 0.0
loop_
_geom_bond_atom_site_label_1
_geom_bond_atom_site_label_2
_geom_bond_distance
_geom_bond_site_symmetry_2
_ccdc_geom_bond_type
C0 O1 1.160 . S
C0 O7 1.185 . S
O1 C0 1.160 . S
O2 Zn3 1.899 . S
O2 C10 1.284 . S
Zn3 O2 1.899 . S
Zn3 O4 2.032 . S
Zn3 O7 2.086 . S
Zn3 O12 1.977 . S
O4 Zn3 2.032 . S
O4 C8 1.278 . S
C5 O6 1.203 . S
C5 O12 1.267 . S
O6 C5 1.203 . S
O7 C0 1.185 . S
O7 Zn3 2.086 . S
C8 O4 1.278 . S
C8 O9 1.211 . S
O9 C8 1.211 . S
C10 O2 1.284 . S
C10 O11 1.273 . S
O11 C10 1.273 . S
O12 Zn3 1.977 . S
O12 C5 1.267 . S
C13 O14 1.160 . S
C13 O20 1.185 . S
O14 C13 1.160 . S
O15 Zn16 1.899 . S
O15 C23 1.284 . S
Zn16 O15 1.899 . S
Zn16 O17 2.032 . S
Zn16 O20 2.086 . S
Zn16 O25 1.977 . S
O17 Zn16 2.032 . S
O17 C21 1.278 . S
C18 O19 1.203 . S
C18 O25 1.267 . S
O19 C18 1.203 . S
O20 C13 1.185 . S
O20 Zn16 2.086 . S
C21 O17 1.278 . S
C21 O22 1.211 . S
O22 C21 1.211 . S
C23 O15 1.284 . S
C23 O24 1.273 . S
O24 C23 1.273 . S
O25 Zn16 1.977 . S
O25 C18 1.267 . S
C26 O27 1.160 . S
C26 O33 1.185 . S
O27 C26 1.160 . S
O28 Zn29 1.899 . S
O28 C36 1.284 . S
Zn29 O28 1.899 . S
Zn29 O30 2.032 . S
Zn29 O33 2.086 . S
Zn29 O38 1.977 . S
O30 Zn29 2.032 . S
O30 C34 1.278 . S
C31 O32 1.203 . S
C31 O38 1.267 . S
O32 C31 1.203 . S
O33 C26 1.185 . S
O33 Zn29 2.086 . S
C34 O30 1.278 . S
C34 O35 1.211 . S
O35 C34 1.211 . S
C36 O28 1.284 . S
C36 O37 1.273 . S
O37 C36 1.273 . S
O38 Zn29 1.977 . S
O38 C31 1.267 . S
C39 O40 1.160 . S
C39 O46 1.185 . S
O40 C39 1.160 . S
O41 Zn42 1.899 . S
O41 C49 1.284 . S
Zn42 O41 1.899 . S
Zn42 O43 2.032 . S
Zn42 O46 2.086 . S
Zn42 O51 1.977 . S
O43 Zn42 2.032 . S
O43 C47 1.278 . S
C44 O45 1.203 . S
C44 O51 1.267 . S
O45 C44 1.203 . S
O46 C39 1.185 . S
O46 Zn42 2.086 . S
C47 O43 1.278 . S
C47 O48 1.211 . S
O48 C47 1.211 . S
C49 O41 1.284 . S
C49 O50 1.273 . S
O50 C49 1.273 . S
O51 Zn42 1.977 . S
O51 C44 1.267 . S
C52 O53 1.160 . S
C52 O59 1.185 . S
O53 C52 1.160 . S
O54 Zn55 1.899 . S
O54 C62 1.284 . S
Zn55 O54 1.899 . S
Zn55 O56 2.032 . S
Zn55 O59 2.086 . S
Zn55 O64 1.977 . S
O56 Zn55 2.032 . S
O56 C60 1.278 . S
C57 O58 1.203 . S
C57 O64 1.267 . S
O58 C57 1.203 . S
O59 C52 1.185 . S
O59 Zn55 2.086 . S
C60 O56 1.278 . S
C60 O61 1.211 . S
O61 C60 1.211 . S
C62 O54 1.284 . S
C62 O63 1.273 . S
O63 C62 1.273 . S
O64 Zn55 1.977 . S
O64 C57 1.267 . S
C65 O66 1.160 . S
C65 O72 1.185 . S
O66 C65 1.160 . S
O67 Zn68 1.899 . S
O67 C75 1.284 . S
Zn68 O67 1.899 . S
Zn68 O69 2.032 . S
Zn68 O72 2.086 . S
Zn68 O77 1.977 . S
O69 Zn68 2.032 . S
O69 C73 1.278 . S
C70 O71 1.203 . S
C70 O77 1.267 . S
O71 C70 1.203 . S
O72 C65 1.185 . S
O72 Zn68 2.086 . S
C73 O69 1.278 . S
C73 O74 1.211 . S
O74 C73 1.211 . S
C75 O67 1.284 . S
C75 O76 1.273 . S
O76 C75 1.273 . S
O77 Zn68 1.977 . S
O77 C70 1.267 . S
C78 O79 1.160 . S
C78 O85 1.185 . S
O79 C78 1.160 . S
O80 Zn81 1.899 . S
O80 C88 1.284 . S
Zn81 O80 1.899 . S
Zn81 O82 2.032 . S
Zn81 O85 2.086 . S
Zn81 O90 1.977 . S
O82 Zn81 2.032 . S
O82 C86 1.278 . S
C83 O84 1.203 . S
C83 O90 1.267 . S
O84 C83 1.203 . S
O85 C78 1.185 . S
O85 Zn81 2.086 . S
C86 O82 1.278 . S
C86 O87 1.211 . S
O87 C86 1.211 . S
C88 O80 1.284 . S
C88 O89 1.273 . S
O89 C88 1.273 . S
O90 Zn81 1.977 . S
O90 C83 1.267 . S
C91 O92 1.160 . S
C91 O98 1.185 . S
O92 C91 1.160 . S
O93 Zn94 1.899 . S
O93 C101 1.284 . S
Zn94 O93 1.899 . S
Zn94 O95 2.032 . S
Zn94 O98 2.086 . S
Zn94 O103 1.977 . S
O95 Zn94 2.032 . S
O95 C99 1.278 . S
C96 O97 1.203 . S
C96 O103 1.267 . S
O97 C96 1.203 . S
O98 C91 1.185 . S
O98 Zn94 2.086 . S
C99 O95 1.278 . S
C99 O100 1.211 . S
O100 C99 1.211 . S
C101 O93 1.284 . S
C101 O102 1.273 . S
O102 C101 1.273 . S
O103 Zn94 1.977 . S
O103 C96 1.267 . S
C104 O105 1.160 . S
C104 O111 1.185 . S
O105 C104 1.160 . S
O106 Zn107 1.899 . S
O106 C114 1.284 . S
Zn107 O106 1.899 . S
Zn107 O108 2.032 . S
Zn107 O111 2.086 . S
Zn107 O116 1.977 . S
O108 Zn107 2.032 . S
O108 C112 1.278 . S
C109 O110 1.203 . S
C109 O116 1.267 . S
O110 C109 1.203 . S
O111 C104 1.185 . S
O111 Zn107 2.086 . S
C112 O108 1.278 . S
C112 O113 1.211 . S
O113 C112 1.211 . S
C114 O106 1.284 . S
C114 O115 1.273 . S
O115 C114 1.273 . S
O116 Zn107 1.977 . S
O116 C109 1.267 . S
C117 O118 1.160 . S
C117 O124 1.185 . S
O118 C117 1.160 . S
O119 Zn120 1.899 . S
O119 C127 1.284 . S
Zn120 O119 1.899 . S
Zn120 O121 2.032 . S
Zn120 O124 2.086 . S
Zn120 O129 1.977 . S
O121 Zn120 2.032 . S
O121 C125 1.278 . S
C122 O123 1.203 . S
C122 O129 1.267 . S
O123 C122 1.203 . S
O124 C117 1.185 . S
O124 Zn120 2.086 . S
C125 O121 1.278 . S
C125 O126 1.211 . S
O126 C125 1.211 . S
C127 O119 1.284 . S
C127 O128 1.273 . S
O128 C127 1.273 . S
O129 Zn120 1.977 . S
O129 C122 1.267 . S
C130 O131 1.160 . S
C130 O137 1.185 . S
O131 C130 1.160 . S
O132 Zn133 1.899 . S
O132 C140 1.284 . S
Zn133 O132 1.899 . S
Zn133 O134 2.032 . S
Zn133 O137 2.086 . S
Zn133 O142 1.977 . S
O134 Zn133 2.032 . S
O134 C138 1.278 . S
C135 O136 1.203 . S
C135 O142 1.267 . S
O136 C135 1.203 . S
O137 C130 1.185 . S
O137 Zn133 2.086 . S
C138 O134 1.278 . S
C138 O139 1.211 . S
O139 C138 1.211 . S
C140 O132 1.284 . S
C140 O141 1.273 . S
O141 C140 1.273 . S
O142 Zn133 1.977 . S
O142 C135 1.267 . S
C143 O144 1.160 . S
C143 O150 1.185 . S
O144 C143 1.160 . S
O145 Zn146 1.899 . S
O145 C153 1.284 . S
Zn146 O145 1.899 . S
Zn146 O147 2.032 . S
Zn146 O150 2.086 . S
Zn146 O155 1.977 . S
O147 Zn146 2.032 . S
O147 C151 1.278 . S
C148 O149 1.203 . S
C148 O155 1.267 . S
O149 C148 1.203 . S
O150 C143 1.185 . S
O150 Zn146 2.086 . S
C151 O147 1.278 . S
C151 O152 1.211 . S
O152 C151 1.211 . S
C153 O145 1.284 . S
C153 O154 1.273 . S
O154 C153 1.273 . S
O155 Zn146 1.977 . S
O155 C148 1.267 . S
C156 O157 1.160 . S
C156 O163 1.185 . S
O157 C156 1.160 . S
O158 Zn159 1.899 . S
O158 C166 1.284 . S
Zn159 O158 1.899 . S
Zn159 O160 2.032 . S
Zn159 O163 2.086 . S
Zn159 O168 1.977 . S
O160 Zn159 2.032 . S
O160 C164 1.278 . S
C161 O162 1.203 . S
C161 O168 1.267 . S
O162 C161 1.203 . S
O163 C156 1.185 . S
O163 Zn159 2.086 . S
C164 O160 1.278 . S
C164 O165 1.211 . S
O165 C164 1.211 . S
C166 O158 1.284 . S
C166 O167 1.273 . S
O167 C166 1.273 . S
O168 Zn159 1.977 . S
O168 C161 1.267 . S
C169 O170 1.160 . S
C169 O176 1.185 . S
O170 C169 1.160 . S
O171 Zn172 1.899 . S
O171 C179 1.284 . S
Zn172 O171 1.899 . S
Zn172 O173 2.032 . S
Zn172 O176 2.086 . S
Zn172 O181 1.977 . S
O173 Zn172 2.032 . S
O173 C177 1.278 . S
C174 O175 1.203 . S
C174 O181 1.267 . S
O175 C174 1.203 . S
O176 C169 1.185 . S
O176 Zn172 2.086 . S
C177 O173 1.278 . S
C177 O178 1.211 . S
O178 C177 1.211 . S
C179 O171 1.284 . S
C179 O180 1.273 . S
O180 C179 1.273 . S
O181 Zn172 1.977 . S
O181 C174 1.267 . S
C182 O183 1.160 . S
C182 O189 1.185 . S
O183 C182 1.160 . S
O184 Zn185 1.899 . S
O184 C192 1.284 . S
Zn185 O184 1.899 . S
Zn185 O186 2.032 . S
Zn185 O189 2.086 . S
Zn185 O194 1.977 . S
O186 Zn185 2.032 . S
O186 C190 1.278 . S
C187 O188 1.203 . S
C187 O194 1.267 . S
O188 C187 1.203 . S
O189 C182 1.185 . S
O189 Zn185 2.086 . S
C190 O186 1.278 . S
C190 O191 1.211 . S
O191 C190 1.211 . S
C192 O184 1.284 . S
C192 O193 1.273 . S
O193 C192 1.273 . S
O194 Zn185 1.977 . S
O194 C187 1.267 . S
C195 O196 1.160 . S
C195 O202 1.185 1_556 S
O196 C195 1.160 . S
O197 Zn198 1.899 . S
O197 C205 1.284 . S
Zn198 O197 1.899 . S
Zn198 O199 2.032 . S
Zn198 O202 2.086 . S
Zn198 O207 1.977 . S
O199 Zn198 2.032 . S
O199 C203 1.278 . S
C200 O201 1.203 . S
C200 O207 1.267 . S
O201 C200 1.203 . S
O202 C195 1.185 1_554 S
O202 Zn198 2.086 . S
C203 O199 1.278 . S
C203 O204 1.211 . S
O204 C203 1.211 . S
C205 O197 1.284 . S
C205 O206 1.273 . S
O206 C205 1.273 . S
O207 Zn198 1.977 . S
O207 C200 1.267 . S
C208 O209 1.160 . S
C208 O215 1.185 1_556 S
O209 C208 1.160 . S
O210 Zn211 1.899 . S
O210 C218 1.284 . S
Zn211 O210 1.899 . S
Zn211 O212 2.032 . S
Zn211 O215 2.086 . S
Zn211 O220 1.977 . S
O212 Zn211 2.032 . S
O212 C216 1.278 . S
C213 O214 1.203 . S
C213 O220 1.267 . S
O214 C213 1.203 . S
O215 C208 1.185 1_554 S
O215 Zn211 2.086 . S
C216 O212 1.278 . S
C216 O217 1.211 . S
O217 C216 1.211 . S
C218 O210 1.284 . S
C218 O219 1.273 . S
O219 C218 1.273 . S
O220 Zn211 1.977 . S
O220 C213 1.267 . S
C221 O222 1.160 . S
C221 O228 1.185 1_556 S
O222 C221 1.160 . S
O223 Zn224 1.899 . S
O223 C231 1.284 . S
Zn224 O223 1.899 . S
Zn224 O225 2.032 . S
Zn224 O228 2.086 . S
Zn224 O233 1.977 . S
O225 Zn224 2.032 . S
O225 C229 1.278 . S
C226 O227 1.203 . S
C226 O233 1.267 . S
O227 C226 1.203 . S
O228 C221 1.185 1_554 S
O228 Zn224 2.086 . S
C229 O225 1.278 . S
C229 O230 1.211 . S
O230 C229 1.211 . S
C231 O223 1.284 . S
C231 O232 1.273 . S
O232 C231 1.273 . S
O233 Zn224 1.977 . S
O233 C226 1.267 . S
C234 O235 1.160 . S
C234 O241 1.185 1_556 S
O235 C234 1.160 . S
O236 Zn237 1.899 . S
O236 C244 1.284 . S
Zn237 O236 1.899 . S
Zn237 O238 2.032 . S
Zn237 O241 2.086 . S
Zn237 O246 1.977 . S
O238 Zn237 2.032 . S
O238 C242 1.278 . S
C239 O240 1.203 . S
C239 O246 1.267 . S
O240 C239 1.203 . S
O241 C234 1.185 1_554 S
O241 Zn237 2.086 . S
C242 O238 1.278 . S
C242 O243 1.211 . S
O243 C242 1.211 . S
C244 O236 1.284 . S
C244 O245 1.273 . S
O245 C244 1.273 . S
O246 Zn237 1.977 . S
O246 C239 1.267 . S
C247 O248 1.160 . S
C247 O254 1.185 1_556 S
O248 C247 1.160 . S
O249 Zn250 1.899 . S
O249 C257 1.284 . S
Zn250 O249 1.899 . S
Zn250 O251 2.032 . S
Zn250 O254 2.086 . S
Zn250 O259 1.977 . S
O251 Zn250 2.032 . S
O251 C255 1.278 . S
C252 O253 1.203 . S
C252 O259 1.267 . S
O253 C252 1.203 . S
O254 C247 1.185 1_554 S
O254 Zn250 2.086 . S
C255 O251 1.278 . S
C255 O256 1.211 . S
O256 C255 1.211 . S
C257 O249 1.284 . S
C257 O258 1.273 . S
O258 C257 1.273 . S
O259 Zn250 1.977 . S
O259 C252 1.267 . S
C260 O261 1.160 . S
C260 O267 1.185 1_556 S
O261 C260 1.160 . S
O262 Zn263 1.899 . S
O262 C270 1.284 . S
Zn263 O262 1.899 . S
Zn263 O264 2.032 . S
Zn263 O267 2.086 . S
Zn263 O272 1.977 . S
O264 Zn263 2.032 . S
O264 C268 1.278 . S
C265 O266 1.203 . S
C265 O272 1.267 . S
O266 C265 1.203 . S
O267 C260 1.185 1_554 S
O267 Zn263 2.086 . S
C268 O264 1.278 . S
C268 O269 1.211 . S
O269 C268 1.211 . S
C270 O262 1.284 . S
C270 O271 1.273 . S
O271 C270 1.273 . S
O272 Zn263 1.977 . S
O272 C265 1.267 . S
C273 O274 1.160 . S
C273 O280 1.185 . S
O274 C273 1.160 . S
O275 Zn276 1.899 . S
O275 C283 1.284 . S
Zn276 O275 1.899 . S
Zn276 O277 2.032 . S
Zn276 O280 2.086 . S
Zn276 O285 1.977 . S
O277 Zn276 2.032 . S
O277 C281 1.278 . S
C278 O279 1.203 . S
C278 O285 1.267 . S
O279 C278 1.203 . S
O280 C273 1.185 . S
O280 Zn276 2.086 . S
C281 O277 1.278 . S
C281 O282 1.211 . S
O282 C281 1.211 . S
C283 O275 1.284 . S
C283 O284 1.273 . S
O284 C283 1.273 . S
O285 Zn276 1.977 . S
O285 C278 1.267 . S
C286 O287 1.160 . S
C286 O293 1.185 . S
O287 C286 1.160 . S
O288 Zn289 1.899 . S
O288 C296 1.284 . S
Zn289 O288 1.899 . S
Zn289 O290 2.032 . S
Zn289 O293 2.086 . S
Zn289 O298 1.977 . S
O290 Zn289 2.032 . S
O290 C294 1.278 . S
C291 O292 1.203 . S
C291 O298 1.267 . S
O292 C291 1.203 . S
O293 C286 1.185 . S
O293 Zn289 2.086 . S
C294 O290 1.278 . S
C294 O295 1.211 . S
O295 C294 1.211 . S
C296 O288 1.284 . S
C296 O297 1.273 . S
O297 C296 1.273 . S
O298 Zn289 1.977 . S
O298 C291 1.267 . S
C299 O300 1.160 . S
C299 O306 1.185 . S
O300 C299 1.160 . S
O301 Zn302 1.899 . S
O301 C309 1.284 . S
Zn302 O301 1.899 . S
Zn302 O303 2.032 . S
Zn302 O306 2.086 . S
Zn302 O311 1.977 . S
O303 Zn302 2.032 . S
O303 C307 1.278 . S
C304 O305 1.203 . S
C304 O311 1.267 . S
O305 C304 1.203 . S
O306 C299 1.185 . S
O306 Zn302 2.086 . S
C307 O303 1.278 . S
C307 O308 1.211 . S
O308 C307 1.211 . S
C309 O301 1.284 . S
C309 O310 1.273 . S
O310 C309 1.273 . S
O311 Zn302 1.977 . S
O311 C304 1.267 . S
C312 O313 1.160 . S
C312 O319 1.185 1_554 S
O313 C312 1.160 . S
O314 Zn315 1.899 . S
O314 C322 1.284 . S
Zn315 O314 1.899 . S
Zn315 O316 2.032 . S
Zn315 O319 2.086 . S
Zn315 O324 1.977 . S
O316 Zn315 2.032 . S
O316 C320 1.278 . S
C317 O318 1.203 . S
C317 O324 1.267 . S
O318 C317 1.203 . S
O319 C312 1.185 1_556 S
O319 Zn315 2.086 . S
C320 O316 1.278 . S
C320 O321 1.211 . S
O321 C320 1.211 . S
C322 O314 1.284 . S
C322 O323 1.273 . S
O323 C322 1.273 . S
O324 Zn315 1.977 . S
O324 C317 1.267 . S
C325 O326 1.160 . S
C325 O332 1.185 1_554 S
O326 C325 1.160 . S
O327 Zn328 1.899 . S
O327 C335 1.284 . S
Zn328 O327 1.899 . S
Zn328 O329 2.032 . S
Zn328 O332 2.086 . S
Zn328 O337 1.977 . S
O329 Zn328 2.032 . S
O329 C333 1.278 . S
C330 O331 1.203 . S
C330 O337 1.267 . S
O331 C330 1.203 . S
O332 C325 1.185 1_556 S
O332 Zn328 2.086 . S
C333 O329 1.278 . S
C333 O334 1.211 . S
O334 C333 1.211 . S
C335 O327 1.284 . S
C335 O336 1.273 . S
O336 C335 1.273 . S
O337 Zn328 1.977 . S
O337 C330 1.267 . S
C338 O339 1.160 . S
C338 O345 1.185 1_554 S
O339 C338 1.160 . S
O340 Zn341 1.899 . S
O340 C348 1.284 . S
Zn341 O340 1.899 . S
Zn341 O342 2.032 . S
Zn341 O345 2.086 . S
Zn341 O350 1.977 . S
O342 Zn341 2.032 . S
O342 C346 1.278 . S
C343 O344 1.203 . S
C343 O350 1.267 . S
O344 C343 1.203 . S
O345 C338 1.185 1_556 S
O345 Zn341 2.086 . S
C346 O342 1.278 . S
C346 O347 1.211 . S
O347 C346 1.211 . S
C348 O340 1.284 . S
C348 O349 1.273 . S
O349 C348 1.273 . S
O350 Zn341 1.977 . S
O350 C343 1.267 . S
C351 O352 1.160 . S
C351 O358 1.185 . S
O352 C351 1.160 . S
O353 Zn354 1.899 . S
O353 C361 1.284 . S
Zn354 O353 1.899 . S
Zn354 O355 2.032 . S
Zn354 O358 2.086 . S
Zn354 O363 1.977 . S
O355 Zn354 2.032 . S
O355 C359 1.278 . S
C356 O357 1.203 . S
C356 O363 1.267 . S
O357 C356 1.203 . S
O358 C351 1.185 . S
O358 Zn354 2.086 . S
C359 O355 1.278 . S
C359 O360 1.211 . S
O360 C359 1.211 . S
C361 O353 1.284 . S
C361 O362 1.273 . S
O362 C361 1.273 . S
O363 Zn354 1.977 . S
O363 C356 1.267 . S
C364 O365 1.160 . S
C364 O371 1.185 . S
O365 C364 1.160 . S
O366 Zn367 1.899 . S
O366 C374 1.284 . S
Zn367 O366 1.899 . S
Zn367 O368 2.032 . S
Zn367 O371 2.086 . S
Zn367 O376 1.977 . S
O368 Zn367 2.032 . S
O368 C372 1.278 . S
C369 O370 1.203 . S
C369 O376 1.267 . S
O370 C369 1.203 . S
O371 C364 1.185 . S
O371 Zn367 2.086 . S
C372 O368 1.278 . S
C372 O373 1.211 . S
O373 C372 1.211 . S
C374 O366 1.284 . S
C374 O375 1.273 . S
O375 C374 1.273 . S
O376 Zn367 1.977 . S
O376 C369 1.267 . S
C377 O378 1.160 . S
C377 O384 1.185 . S
O378 C377 1.160 . S
O379 Zn380 1.899 . S
O379 C387 1.284 . S
Zn380 O379 1.899 . S
Zn380 O381 2.032 . S
Zn380 O384 2.086 . S
Zn380 O389 1.977 . S
O381 Zn380 2.032 . S
O381 C385 1.278 . S
C382 O383 1.203 . S
C382 O389 1.267 . S
O383 C382 1.203 . S
O384 C377 1.185 . S
O384 Zn380 2.086 . S
C385 O381 1.278 . S
C385 O386 1.211 . S
O386 C385 1.211 . S
C387 O379 1.284 . S
C387 O388 1.273 . S
O388 C387 1.273 . S
O389 Zn380 1.977 . S
O389 C382 1.267 . S
C390 O391 1.160 . S
C390 O397 1.185 . S
O391 C390 1.160 . S
O392 Zn393 1.899 . S
O392 C400 1.284 . S
Zn393 O392 1.899 . S
Zn393 O394 2.032 . S
Zn393 O397 2.086 . S
Zn393 O402 1.977 . S
O394 Zn393 2.032 . S
O394 C398 1.278 . S
C395 O396 1.203 . S
C395 O402 1.267 . S
O396 C395 1.203 . S
O397 C390 1.185 . S
O397 Zn393 2.086 . S
C398 O394 1.278 . S
C398 O399 1.211 . S
O399 C398 1.211 . S
C400 O392 1.284 . S
C400 O401 1.273 . S
O401 C400 1.273 . S
O402 Zn393 1.977 . S
O402 C395 1.267 . S
C403 O404 1.160 . S
C403 O410 1.185 . S
O404 C403 1.160 . S
O405 Zn406 1.899 . S
O405 C413 1.284 . S
Zn406 O405 1.899 . S
Zn406 O407 2.032 . S
Zn406 O410 2.086 . S
Zn406 O415 1.977 . S
O407 Zn406 2.032 . S
O407 C411 1.278 . S
C408 O409 1.203 . S
C408 O415 1.267 . S
O409 C408 1.203 . S
O410 C403 1.185 . S
O410 Zn406 2.086 . S
C411 O407 1.278 . S
C411 O412 1.211 . S
O412 C411 1.211 . S
C413 O405 1.284 . S
C413 O414 1.273 . S
O414 C413 1.273 . S
O415 Zn406 1.977 . S
O415 C408 1.267 . S
C416 O417 1.160 . S
C416 O423 1.185 . S
O417 C416 1.160 . S
O418 Zn419 1.899 . S
O418 C426 1.284 . S
Zn419 O418 1.899 . S
Zn419 O420 2.032 . S
Zn419 O423 2.086 . S
Zn419 O428 1.977 . S
O420 Zn419 2.032 . S
O420 C424 1.278 . S
C421 O422 1.203 . S
C421 O428 1.267 . S
O422 C421 1.203 . S
O423 C416 1.185 . S
O423 Zn419 2.086 . S
C424 O420 1.278 . S
C424 O425 1.211 . S
O425 C424 1.211 . S
C426 O418 1.284 . S
C426 O427 1.273 . S
O427 C426 1.273 . S
O428 Zn419 1.977 . S
O428 C421 1.267 . S
C429 O430 1.160 . S
C429 O436 1.185 1_554 S
O430 C429 1.160 . S
O431 Zn432 1.899 . S
O431 C439 1.284 . S
Zn432 O431 1.899 . S
Zn432 O433 2.032 . S
Zn432 O436 2.086 . S
Zn432 O441 1.977 . S
O433 Zn432 2.032 . S
O433 C437 1.278 . S
C434 O435 1.203 . S
C434 O441 1.267 . S
O435 C434 1.203 . S
O436 C429 1.185 1_556 S
O436 Zn432 2.086 . S
C437 O433 1.278 . S
C437 O438 1.211 . S
O438 C437 1.211 . S
C439 O431 1.284 . S
C439 O440 1.273 . S
O440 C439 1.273 . S
O441 Zn432 1.977 . S
O441 C434 1.267 . S
C442 O443 1.160 . S
C442 O449 1.185 1_554 S
O443 C442 1.160 . S
O444 Zn445 1.899 . S
O444 C452 1.284 . S
Zn445 O444 1.899 . S
Zn445 O446 2.032 . S
Zn445 O449 2.086 . S
Zn445 O454 1.977 . S
O446 Zn445 2.032 . S
O446 C450 1.278 . S
C447 O448 1.203 . S
C447 O454 1.267 . S
O448 C447 1.203 . S
O449 C442 1.185 1_556 S
O449 Zn445 2.086 . S
C450 O446 1.278 . S
C450 O451 1.211 . S
O451 C450 1.211 . S
C452 O444 1.284 . S
C452 O453 1.273 . S
O453 C452 1.273 . S
O454 Zn445 1.977 . S
O454 C447 1.267 . S
C455 O456 1.160 . S
C455 O462 1.185 1_554 S
O456 C455 1.160 . S
O457 Zn458 1.899 . S
O457 C465 1.284 . S
Zn458 O457 1.899 . S
Zn458 O459 2.032 . S
Zn458 O462 2.086 . S
Zn458 O467 1.977 . S
O459 Zn458 2.032 . S
O459 C463 1.278 . S
C460 O461 1.203 . S
C460 O467 1.267 . S
O461 C460 1.203 . S
O462 C455 1.185 1_556 S
O462 Zn458 2.086 . S
C463 O459 1.278 . S
C463 O464 1.211 . S
O464 C463 1.211 . S
C465 O457 1.284 . S
C465 O466 1.273 . S
O466 C465 1.273 . S
O467 Zn458 1.977 . S
O467 C460 1.267 . S
H468 C474 0.930 . S
H469 C477 0.930 . S
H470 C478 0.930 . S
H471 C479 0.930 . S
H472 C482 0.930 . S
H473 C483 0.930 . S
C474 H468 0.930 . S
C474 C475 1.355 . S
C474 C476 1.415 1_565 S
C475 C474 1.355 . S
C475 C477 1.419 . S
C476 C474 1.415 1_545 S
C476 C481 1.425 1_545 S
C476 C483 1.409 . S
C477 H469 0.930 . S
C477 C475 1.419 . S
C477 C478 1.362 . S
C478 H470 0.930 . S
C478 C477 1.362 . S
C478 C481 1.409 . S
C479 H471 0.930 . S
C479 C480 1.355 . S
C479 C481 1.415 1_545 S
C480 C479 1.355 . S
C480 C482 1.419 . S
C481 C476 1.425 1_565 S
C481 C478 1.409 . S
C481 C479 1.415 1_565 S
C482 H472 0.930 . S
C482 C480 1.419 . S
C482 C483 1.362 . S
C483 H473 0.930 . S
C483 C476 1.409 . S
C483 C482 1.362 . S
H484 C490 0.930 . S
H485 C493 0.941 . S
H486 C494 0.930 . S
H487 C495 0.930 . S
H488 C498 0.941 . S
H489 C499 0.930 . S
C490 H484 0.930 . S
C490 C491 1.355 . S
C490 C492 1.415 . S
C491 C490 1.355 . S
C491 C493 1.374 1_455 S
C492 C490 1.415 . S
C492 C497 1.425 1_455 S
C492 C499 1.409 . S
C493 H485 0.941 . S
C493 C491 1.374 1_655 S
C493 C494 1.401 . S
C494 H486 0.930 . S
C494 C493 1.401 . S
C494 C497 1.409 . S
C495 H487 0.930 . S
C495 C496 1.355 . S
C495 C497 1.415 . S
C496 C495 1.355 . S
C496 C498 1.374 1_655 S
C497 C492 1.425 1_655 S
C497 C494 1.409 . S
C497 C495 1.415 . S
C498 H488 0.941 . S
C498 C496 1.374 1_455 S
C498 C499 1.401 . S
C499 H489 0.930 . S
C499 C492 1.409 . S
C499 C498 1.401 . S
H500 C506 0.930 . S
H501 C509 0.930 . S
H502 C510 0.930 . S
H503 C511 0.930 . S
H504 C514 0.930 . S
H505 C515 0.930 . S
C506 H500 0.930 . S
C506 C507 1.355 . S
C506 C508 1.415 . S
C507 C506 1.355 . S
C507 C509 1.419 . S
C508 C506 1.415 . S
C508 C513 1.425 . S
C508 C515 1.409 . S
C509 H501 0.930 . S
C509 C507 1.419 . S
C509 C510 1.362 . S
C510 H502 0.930 . S
C510 C509 1.362 . S
C510 C513 1.409 . S
C511 H503 0.930 . S
C511 C512 1.355 . S
C511 C513 1.415 . S
C512 C511 1.355 . S
C512 C514 1.419 . S
C513 C508 1.425 . S
C513 C510 1.409 . S
C513 C511 1.415 . S
C514 H504 0.930 . S
C514 C512 1.419 . S
C514 C515 1.362 . S
C515 H505 0.930 . S
C515 C508 1.409 . S
C515 C514 1.362 . S
H516 C522 0.930 1_545 S
H517 C525 0.930 . S
H518 C526 0.930 . S
H519 C527 0.930 1_565 S
H520 C530 0.930 . S
H521 C531 0.930 . S
C522 H516 0.930 1_565 S
C522 C523 1.355 . S
C522 C524 1.415 1_565 S
C523 C522 1.355 . S
C523 C525 1.419 . S
C524 C522 1.415 1_545 S
C524 C529 1.425 1_545 S
C524 C531 1.409 . S
C525 H517 0.930 . S
C525 C523 1.419 . S
C525 C526 1.362 . S
C526 H518 0.930 . S
C526 C525 1.362 . S
C526 C529 1.409 . S
C527 H519 0.930 1_545 S
C527 C528 1.355 . S
C527 C529 1.415 1_545 S
C528 C527 1.355 . S
C528 C530 1.419 . S
C529 C524 1.425 1_565 S
C529 C526 1.409 . S
C529 C527 1.415 1_565 S
C530 H520 0.930 . S
C530 C528 1.419 . S
C530 C531 1.362 . S
C531 H521 0.930 . S
C531 C524 1.409 . S
C531 C530 1.362 . S
H532 C538 0.930 . S
H533 C541 0.930 . S
H534 C542 0.930 . S
H535 C543 0.930 . S
H536 C546 0.930 . S
H537 C547 0.930 . S
C538 H532 0.930 . S
C538 C539 1.355 . S
C538 C540 1.415 . S
C539 C538 1.355 . S
C539 C541 1.419 . S
C540 C538 1.415 . S
C540 C545 1.425 1_455 S
C540 C547 1.409 . S
C541 H533 0.930 . S
C541 C539 1.419 . S
C541 C542 1.362 1_455 S
C542 H534 0.930 . S
C542 C541 1.362 1_655 S
C542 C545 1.409 . S
C543 H535 0.930 . S
C543 C544 1.355 . S
C543 C545 1.415 . S
C544 C543 1.355 . S
C544 C546 1.419 . S
C545 C540 1.425 1_655 S
C545 C542 1.409 . S
C545 C543 1.415 . S
C546 H536 0.930 . S
C546 C544 1.419 . S
C546 C547 1.362 1_655 S
C547 H537 0.930 . S
C547 C540 1.409 . S
C547 C546 1.362 1_455 S
H548 C554 0.930 . S
H549 C557 0.930 . S
H550 C558 0.930 . S
H551 C559 0.930 . S
H552 C562 0.930 . S
H553 C563 0.930 . S
C554 H548 0.930 . S
C554 C555 1.355 . S
C554 C556 1.415 . S
C555 C554 1.355 . S
C555 C557 1.419 . S
C556 C554 1.415 . S
C556 C561 1.425 . S
C556 C563 1.409 . S
C557 H549 0.930 . S
C557 C555 1.419 . S
C557 C558 1.362 . S
C558 H550 0.930 . S
C558 C557 1.362 . S
C558 C561 1.409 . S
C559 H551 0.930 . S
C559 C560 1.355 . S
C559 C561 1.415 . S
C560 C559 1.355 . S
C560 C562 1.419 . S
C561 C556 1.425 . S
C561 C558 1.409 . S
C561 C559 1.415 . S
C562 H552 0.930 . S
C562 C560 1.419 . S
C562 C563 1.362 . S
C563 H553 0.930 . S
C563 C556 1.409 . S
C563 C562 1.362 . S
H564 C570 0.930 . S
H565 C573 0.930 . S
H566 C574 0.930 . S
H567 C575 0.930 . S
H568 C578 0.930 . S
H569 C579 0.930 . S
C570 H564 0.930 . S
C570 C571 1.355 . S
C570 C572 1.415 . S
C571 C570 1.355 . S
C571 C573 1.419 . S
C572 C570 1.415 . S
C572 C577 1.425 . S
C572 C579 1.409 . S
C573 H565 0.930 . S
C573 C571 1.419 . S
C573 C574 1.362 . S
C574 H566 0.930 . S
C574 C573 1.362 . S
C574 C577 1.409 . S
C575 H567 0.930 . S
C575 C576 1.355 . S
C575 C577 1.415 . S
C576 C575 1.355 . S
C576 C578 1.419 . S
C577 C572 1.425 . S
C577 C574 1.409 . S
C577 C575 1.415 . S
C578 H568 0.930 . S
C578 C576 1.419 . S
C578 C579 1.362 . S
C579 H569 0.930 . S
C579 C572 1.409 . S
C579 C578 1.362 . S
H580 C586 0.930 . S
H581 C589 0.930 . S
H582 C590 0.930 . S
H583 C591 0.930 . S
H584 C594 0.930 . S
H585 C595 0.930 . S
C586 H580 0.930 . S
C586 C587 1.355 . S
C586 C588 1.415 . S
C587 C586 1.355 . S
C587 C589 1.419 . S
C588 C586 1.415 . S
C588 C593 1.425 . S
C588 C595 1.409 . S
C589 H581 0.930 . S
C589 C587 1.419 . S
C589 C590 1.362 . S
C590 H582 0.930 . S
C590 C589 1.362 . S
C590 C593 1.409 . S
C591 H583 0.930 . S
C591 C592 1.355 . S
C591 C593 1.415 . S
C592 C591 1.355 . S
C592 C594 1.419 . S
C593 C588 1.425 . S
C593 C590 1.409 . S
C593 C591 1.415 . S
C594 H584 0.930 . S
C594 C592 1.419 . S
C594 C595 1.362 . S
C595 H585 0.930 . S
C595 C588 1.409 . S
C595 C594 1.362 . S
H596 C602 0.930 . S
H597 C605 0.930 . S
H598 C606 0.930 . S
H599 C607 0.930 . S
H600 C610 0.930 . S
H601 C611 0.930 . S
C602 H596 0.930 . S
C602 C603 1.355 . S
C602 C604 1.415 . S
C603 C602 1.355 . S
C603 C605 1.419 . S
C604 C602 1.415 . S
C604 C609 1.425 . S
C604 C611 1.409 . S
C605 H597 0.930 . S
C605 C603 1.419 . S
C605 C606 1.362 . S
C606 H598 0.930 . S
C606 C605 1.362 . S
C606 C609 1.409 . S
C607 H599 0.930 . S
C607 C608 1.355 . S
C607 C609 1.415 . S
C608 C607 1.355 . S
C608 C610 1.419 . S
C609 C604 1.425 . S
C609 C606 1.409 . S
C609 C607 1.415 . S
C610 H600 0.930 . S
C610 C608 1.419 . S
C610 C611 1.362 . S
C611 H601 0.930 . S
C611 C604 1.409 . S
C611 C610 1.362 . S
H612 C618 0.930 . S
H613 C621 0.930 . S
H614 C622 0.930 . S
H615 C623 0.930 . S
H616 C626 0.930 . S
H617 C627 0.930 . S
C618 H612 0.930 . S
C618 C619 1.355 . S
C618 C620 1.415 . S
C619 C618 1.355 . S
C619 C621 1.419 . S
C620 C618 1.415 . S
C620 C625 1.425 . S
C620 C627 1.409 . S
C621 H613 0.930 . S
C621 C619 1.419 . S
C621 C622 1.362 . S
C622 H614 0.930 . S
C622 C621 1.362 . S
C622 C625 1.409 . S
C623 H615 0.930 . S
C623 C624 1.355 . S
C623 C625 1.415 . S
C624 C623 1.355 . S
C624 C626 1.419 . S
C625 C620 1.425 . S
C625 C622 1.409 . S
C625 C623 1.415 . S
C626 H616 0.930 . S
C626 C624 1.419 . S
C626 C627 1.362 . S
C627 H617 0.930 . S
C627 C620 1.409 . S
C627 C626 1.362 . S
H628 C634 0.930 . S
H629 C637 0.930 . S
H630 C638 0.930 . S
H631 C639 0.930 . S
H632 C642 0.930 . S
H633 C643 0.930 . S
C634 H628 0.930 . S
C634 C635 1.355 . S
C634 C636 1.415 . S
C635 C634 1.355 . S
C635 C637 1.419 . S
C636 C634 1.415 . S
C636 C641 1.425 . S
C636 C643 1.409 . S
C637 H629 0.930 . S
C637 C635 1.419 . S
C637 C638 1.362 . S
C638 H630 0.930 . S
C638 C637 1.362 . S
C638 C641 1.409 . S
C639 H631 0.930 . S
C639 C640 1.355 . S
C639 C641 1.415 . S
C640 C639 1.355 . S
C640 C642 1.419 . S
C641 C636 1.425 . S
C641 C638 1.409 . S
C641 C639 1.415 . S
C642 H632 0.930 . S
C642 C640 1.419 . S
C642 C643 1.362 . S
C643 H633 0.930 . S
C643 C636 1.409 . S
C643 C642 1.362 . S
H644 C650 0.930 . S
H645 C653 0.930 . S
H646 C654 0.930 . S
H647 C655 0.930 . S
H648 C658 0.930 . S
H649 C659 0.930 . S
C650 H644 0.930 . S
C650 C651 1.355 . S
C650 C652 1.415 . S
C651 C650 1.355 . S
C651 C653 1.419 . S
C652 C650 1.415 . S
C652 C657 1.425 . S
C652 C659 1.409 . S
C653 H645 0.930 . S
C653 C651 1.419 . S
C653 C654 1.362 . S
C654 H646 0.930 . S
C654 C653 1.362 . S
C654 C657 1.409 . S
C655 H647 0.930 . S
C655 C656 1.355 . S
C655 C657 1.415 . S
C656 C655 1.355 . S
C656 C658 1.419 . S
C657 C652 1.425 . S
C657 C654 1.409 . S
C657 C655 1.415 . S
C658 H648 0.930 . S
C658 C656 1.419 . S
C658 C659 1.362 . S
C659 H649 0.930 . S
C659 C652 1.409 . S
C659 C658 1.362 . S
H660 C666 0.930 . S
H661 C669 0.930 . S
H662 C670 0.930 . S
H663 C671 0.930 . S
H664 C674 0.930 . S
H665 C675 0.930 . S
C666 H660 0.930 . S
C666 C667 1.355 . S
C666 C668 1.415 . S
C667 C666 1.355 . S
C667 C669 1.419 . S
C668 C666 1.415 . S
C668 C673 1.425 . S
C668 C675 1.409 . S
C669 H661 0.930 . S
C669 C667 1.419 . S
C669 C670 1.362 . S
C670 H662 0.930 . S
C670 C669 1.362 . S
C670 C673 1.409 . S
C671 H663 0.930 . S
C671 C672 1.355 . S
C671 C673 1.415 . S
C672 C671 1.355 . S
C672 C674 1.419 . S
C673 C668 1.425 . S
C673 C670 1.409 . S
C673 C671 1.415 . S
C674 H664 0.930 . S
C674 C672 1.419 . S
C674 C675 1.362 . S
C675 H665 0.930 . S
C675 C668 1.409 . S
C675 C674 1.362 . S
H676 C682 0.930 . S
H677 C685 0.930 . S
H678 C686 0.930 . S
H679 C687 0.930 . S
H680 C690 0.930 . S
H681 C691 0.930 . S
C682 H676 0.930 . S
C682 C683 1.355 . S
C682 C684 1.415 . S
C683 C682 1.355 . S
C683 C685 1.419 . S
C684 C682 1.415 . S
C684 C689 1.425 . S
C684 C691 1.409 . S
C685 H677 0.930 . S
C685 C683 1.419 . S
C685 C686 1.362 . S
C686 H678 0.930 . S
C686 C685 1.362 . S
C686 C689 1.409 . S
C687 H679 0.930 . S
C687 C688 1.355 . S
C687 C689 1.415 . S
C688 C687 1.355 . S
C688 C690 1.419 . S
C689 C684 1.425 . S
C689 C686 1.409 . S
C689 C687 1.415 . S
C690 H680 0.930 . S
C690 C688 1.419 . S
C690 C691 1.362 . S
C691 H681 0.930 . S
C691 C684 1.409 . S
C691 C690 1.362 . S
H692 C698 0.930 . S
H693 C701 0.930 . S
H694 C702 0.930 . S
H695 C703 0.930 . S
H696 C706 0.930 . S
H697 C707 0.930 . S
C698 H692 0.930 . S
C698 C699 1.355 . S
C698 C700 1.415 . S
C699 C698 1.355 . S
C699 C701 1.419 . S
C700 C698 1.415 . S
C700 C705 1.425 . S
C700 C707 1.409 . S
C701 H693 0.930 . S
C701 C699 1.419 . S
C701 C702 1.362 . S
C702 H694 0.930 . S
C702 C701 1.362 . S
C702 C705 1.409 . S
C703 H695 0.930 . S
C703 C704 1.355 . S
C703 C705 1.415 . S
C704 C703 1.355 . S
C704 C706 1.419 . S
C705 C700 1.425 . S
C705 C702 1.409 . S
C705 C703 1.415 . S
C706 H696 0.930 . S
C706 C704 1.419 . S
C706 C707 1.362 . S
C707 H697 0.930 . S
C707 C700 1.409 . S
C707 C706 1.362 . S
H708 C714 0.930 . S
H709 C717 0.930 . S
H710 C718 0.930 . S
H711 C719 0.930 . S
H712 C722 0.930 . S
H713 C723 0.930 . S
C714 H708 0.930 . S
C714 C715 1.355 . S
C714 C716 1.415 . S
C715 C714 1.355 . S
C715 C717 1.419 . S
C716 C714 1.415 . S
C716 C721 1.425 . S
C716 C723 1.409 . S
C717 H709 0.930 . S
C717 C715 1.419 . S
C717 C718 1.362 . S
C718 H710 0.930 . S
C718 C717 1.362 . S
C718 C721 1.409 . S
C719 H711 0.930 . S
C719 C720 1.355 . S
C719 C721 1.415 . S
C720 C719 1.355 . S
C720 C722 1.419 . S
C721 C716 1.425 . S
C721 C718 1.409 . S
C721 C719 1.415 . S
C722 H712 0.930 . S
C722 C720 1.419 . S
C722 C723 1.362 . S
C723 H713 0.930 . S
C723 C716 1.409 . S
C723 C722 1.362 . S
H724 C730 0.930 . S
H725 C733 0.930 . S
H726 C734 0.930 . S
H727 C735 0.930 . S
H728 C738 0.930 . S
H729 C739 0.930 . S
C730 H724 0.930 . S
C730 C731 1.355 . S
C730 C732 1.415 . S
C731 C730 1.355 . S
C731 C733 1.419 . S
C732 C730 1.415 . S
C732 C737 1.425 . S
C732 C739 1.409 . S
C733 H725 0.930 . S
C733 C731 1.419 . S
C733 C734 1.362 . S
C734 H726 0.930 . S
C734 C733 1.362 . S
C734 C737 1.409 . S
C735 H727 0.930 . S
C735 C736 1.355 . S
C735 C737 1.415 . S
C736 C735 1.355 . S
C736 C738 1.419 . S
C737 C732 1.425 . S
C737 C734 1.409 . S
C737 C735 1.415 . S
C738 H728 0.930 . S
C738 C736 1.419 . S
C738 C739 1.362 . S
C739 H729 0.930 . S
C739 C732 1.409 . S
C739 C738 1.362 . S
H740 C746 0.930 . S
H741 C749 0.930 . S
H742 C750 0.930 . S
H743 C751 0.930 . S
H744 C754 0.930 . S
H745 C755 0.930 . S
C746 H740 0.930 . S
C746 C747 1.355 . S
C746 C748 1.415 . S
C747 C746 1.355 . S
C747 C749 1.419 . S
C748 C746 1.415 . S
C748 C753 1.425 . S
C748 C755 1.409 . S
C749 H741 0.930 . S
C749 C747 1.419 . S
C749 C750 1.362 . S
C750 H742 0.930 . S
C750 C749 1.362 . S
C750 C753 1.409 . S
C751 H743 0.930 . S
C751 C752 1.355 . S
C751 C753 1.415 . S
C752 C751 1.355 . S
C752 C754 1.419 . S
C753 C748 1.425 . S
C753 C750 1.409 . S
C753 C751 1.415 . S
C754 H744 0.930 . S
C754 C752 1.419 . S
C754 C755 1.362 . S
C755 H745 0.930 . S
C755 C748 1.409 . S
C755 C754 1.362 . S
H756 C762 0.930 . S
H757 C765 0.930 . S
H758 C766 0.930 . S
H759 C767 0.930 . S
H760 C770 0.930 . S
H761 C771 0.930 . S
C762 H756 0.930 . S
C762 C763 1.355 . S
C762 C764 1.415 1_556 S
C763 C762 1.355 . S
C763 C765 1.419 . S
C764 C762 1.415 1_554 S
C764 C769 1.425 1_564 S
C764 C771 1.409 . S
C765 H757 0.930 . S
C765 C763 1.419 . S
C765 C766 1.362 1_565 S
C766 H758 0.930 . S
C766 C765 1.362 1_545 S
C766 C769 1.409 . S
C767 H759 0.930 . S
C767 C768 1.355 . S
C767 C769 1.415 1_554 S
C768 C767 1.355 . S
C768 C770 1.419 . S
C769 C764 1.425 1_546 S
C769 C766 1.409 . S
C769 C767 1.415 1_556 S
C770 H760 0.930 . S
C770 C768 1.419 . S
C770 C771 1.362 1_545 S
C771 H761 0.930 . S
C771 C764 1.409 . S
C771 C770 1.362 1_565 S
H772 C778 0.930 . S
H773 C781 0.930 . S
H774 C782 0.930 . S
H775 C783 0.930 . S
H776 C786 0.930 . S
H777 C787 0.930 . S
C778 H772 0.930 . S
C778 C779 1.355 . S
C778 C780 1.415 1_554 S
C779 C778 1.355 . S
C779 C781 1.419 . S
C780 C778 1.415 1_556 S
C780 C785 1.425 1_656 S
C780 C787 1.409 . S
C781 H773 0.930 . S
C781 C779 1.419 . S
C781 C782 1.362 1_655 S
C782 H774 0.930 . S
C782 C781 1.362 1_455 S
C782 C785 1.409 . S
C783 H775 0.930 . S
C783 C784 1.355 . S
C783 C785 1.415 1_556 S
C784 C783 1.355 . S
C784 C786 1.419 . S
C785 C780 1.425 1_454 S
C785 C782 1.409 . S
C785 C783 1.415 1_554 S
C786 H776 0.930 . S
C786 C784 1.419 . S
C786 C787 1.362 1_455 S
C787 H777 0.930 . S
C787 C780 1.409 . S
C787 C786 1.362 1_655 S
H788 C794 0.930 . S
H789 C797 0.930 . S
H790 C798 0.930 . S
H791 C799 0.930 . S
H792 C802 0.930 . S
H793 C803 0.930 . S
C794 H788 0.930 . S
C794 C795 1.355 . S
C794 C796 1.415 1_556 S
C795 C794 1.355 . S
C795 C797 1.419 . S
C796 C794 1.415 1_554 S
C796 C801 1.425 1_554 S
C796 C803 1.409 . S
C797 H789 0.930 . S
C797 C795 1.419 . S
C797 C798 1.362 . S
C798 H790 0.930 . S
C798 C797 1.362 . S
C798 C801 1.409 . S
C799 H791 0.930 . S
C799 C800 1.355 . S
C799 C801 1.415 1_554 S
C800 C799 1.355 . S
C800 C802 1.419 . S
C801 C796 1.425 1_556 S
C801 C798 1.409 . S
C801 C799 1.415 1_556 S
C802 H792 0.930 . S
C802 C800 1.419 . S
C802 C803 1.362 . S
C803 H793 0.930 . S
C803 C796 1.409 . S
C803 C802 1.362 . S
H804 C810 0.930 . S
H805 C813 0.930 . S
H806 C814 0.875 1_545 S
H807 C815 0.930 . S
H808 C818 0.930 . S
H809 C819 0.875 1_565 S
C810 H804 0.930 . S
C810 C811 1.355 . S
C810 C812 1.415 . S
C811 C810 1.355 . S
C811 C813 1.419 . S
C812 C810 1.415 . S
C812 C817 1.425 1_566 S
C812 C819 1.420 1_566 S
C813 H805 0.930 . S
C813 C811 1.419 . S
C813 C814 1.409 . S
C814 H806 0.875 1_565 S
C814 C813 1.409 . S
C814 C817 1.420 1_566 S
C815 H807 0.930 . S
C815 C816 1.355 . S
C815 C817 1.415 . S
C816 C815 1.355 . S
C816 C818 1.419 . S
C817 C812 1.425 1_544 S
C817 C814 1.420 1_544 S
C817 C815 1.415 . S
C818 H808 0.930 . S
C818 C816 1.419 . S
C818 C819 1.409 . S
C819 H809 0.875 1_545 S
C819 C812 1.420 1_544 S
C819 C818 1.409 . S
H820 C826 0.930 . S
H821 C829 0.930 . S
H822 C830 0.930 . S
H823 C831 0.930 . S
H824 C834 0.930 . S
H825 C835 0.930 . S
C826 H820 0.930 . S
C826 C827 1.355 . S
C826 C828 1.415 . S
C827 C826 1.355 . S
C827 C829 1.419 . S
C828 C826 1.415 . S
C828 C833 1.425 1_456 S
C828 C835 1.409 1_456 S
C829 H821 0.930 . S
C829 C827 1.419 . S
C829 C830 1.362 . S
C830 H822 0.930 . S
C830 C829 1.362 . S
C830 C833 1.409 1_456 S
C831 H823 0.930 . S
C831 C832 1.355 . S
C831 C833 1.415 . S
C832 C831 1.355 . S
C832 C834 1.419 . S
C833 C828 1.425 1_654 S
C833 C830 1.409 1_654 S
C833 C831 1.415 . S
C834 H824 0.930 . S
C834 C832 1.419 . S
C834 C835 1.362 . S
C835 H825 0.930 . S
C835 C828 1.409 1_654 S
C835 C834 1.362 . S
H836 C842 0.930 . S
H837 C845 0.930 . S
H838 C846 0.930 . S
H839 C847 0.930 . S
H840 C850 0.930 . S
H841 C851 0.930 . S
C842 H836 0.930 . S
C842 C843 1.355 . S
C842 C844 1.415 . S
C843 C842 1.355 . S
C843 C845 1.419 . S
C844 C842 1.415 . S
C844 C849 1.425 1_554 S
C844 C851 1.409 . S
C845 H837 0.930 . S
C845 C843 1.419 . S
C845 C846 1.362 1_554 S
C846 H838 0.930 . S
C846 C845 1.362 1_556 S
C846 C849 1.409 . S
C847 H839 0.930 . S
C847 C848 1.355 . S
C847 C849 1.415 . S
C848 C847 1.355 . S
C848 C850 1.419 . S
C849 C844 1.425 1_556 S
C849 C846 1.409 . S
C849 C847 1.415 . S
C850 H840 0.930 . S
C850 C848 1.419 . S
C850 C851 1.362 1_556 S
C851 H841 0.930 . S
C851 C844 1.409 . S
C851 C850 1.362 1_554 S
H852 C858 0.930 . S
H853 C861 0.930 . S
H854 C862 0.930 . S
H855 C863 0.930 . S
H856 C866 0.930 . S
H857 C867 0.930 . S
C858 H852 0.930 . S
C858 C859 1.355 . S
C858 C860 1.415 . S
C859 C858 1.355 . S
C859 C861 1.419 . S
C860 C858 1.415 . S
C860 C865 1.425 . S
C860 C867 1.409 . S
C861 H853 0.930 . S
C861 C859 1.419 . S
C861 C862 1.362 . S
C862 H854 0.930 . S
C862 C861 1.362 . S
C862 C865 1.409 . S
C863 H855 0.930 . S
C863 C864 1.355 . S
C863 C865 1.415 . S
C864 C863 1.355 . S
C864 C866 1.419 . S
C865 C860 1.425 . S
C865 C862 1.409 . S
C865 C863 1.415 . S
C866 H856 0.930 . S
C866 C864 1.419 . S
C866 C867 1.362 . S
C867 H857 0.930 . S
C867 C860 1.409 . S
C867 C866 1.362 . S
H868 C874 0.930 . S
H869 C877 0.930 . S
H870 C878 0.930 . S
H871 C879 0.930 . S
H872 C882 0.930 . S
H873 C883 0.930 . S
C874 H868 0.930 . S
C874 C875 1.355 . S
C874 C876 1.415 . S
C875 C874 1.355 . S
C875 C877 1.419 . S
C876 C874 1.415 . S
C876 C881 1.425 . S
C876 C883 1.409 . S
C877 H869 0.930 . S
C877 C875 1.419 . S
C877 C878 1.362 . S
C878 H870 0.930 . S
C878 C877 1.362 . S
C878 C881 1.409 . S
C879 H871 0.930 . S
C879 C880 1.355 . S
C879 C881 1.415 . S
C880 C879 1.355 . S
C880 C882 1.419 . S
C881 C876 1.425 . S
C881 C878 1.409 . S
C881 C879 1.415 . S
C882 H872 0.930 . S
C882 C880 1.419 . S
C882 C883 1.362 . S
C883 H873 0.930 . S
C883 C876 1.409 . S
C883 C882 1.362 . S
H884 C890 0.930 . S
H885 C893 0.930 . S
H886 C894 0.930 . S
H887 C895 0.930 . S
H888 C898 0.930 . S
H889 C899 0.930 . S
C890 H884 0.930 . S
C890 C891 1.355 . S
C890 C892 1.415 . S
C891 C890 1.355 . S
C891 C893 1.419 . S
C892 C890 1.415 . S
C892 C897 1.425 . S
C892 C899 1.409 . S
C893 H885 0.930 . S
C893 C891 1.419 . S
C893 C894 1.362 . S
C894 H886 0.930 . S
C894 C893 1.362 . S
C894 C897 1.409 . S
C895 H887 0.930 . S
C895 C896 1.355 . S
C895 C897 1.415 . S
C896 C895 1.355 . S
C896 C898 1.419 . S
C897 C892 1.425 . S
C897 C894 1.409 . S
C897 C895 1.415 . S
C898 H888 0.930 . S
C898 C896 1.419 . S
C898 C899 1.362 . S
C899 H889 0.930 . S
C899 C892 1.409 . S
C899 C898 1.362 . S
H900 C906 0.930 . S
H901 C909 0.930 . S
H902 C910 0.930 . S
H903 C911 0.930 . S
H904 C914 0.930 . S
H905 C915 0.930 . S
C906 H900 0.930 . S
C906 C907 1.355 . S
C906 C908 1.415 . S
C907 C906 1.355 . S
C907 C909 1.419 . S
C908 C906 1.415 . S
C908 C913 1.425 . S
C908 C915 1.409 . S
C909 H901 0.930 . S
C909 C907 1.419 . S
C909 C910 1.362 . S
C910 H902 0.930 . S
C910 C909 1.362 . S
C910 C913 1.409 . S
C911 H903 0.930 . S
C911 C912 1.355 . S
C911 C913 1.415 . S
C912 C911 1.355 . S
C912 C914 1.419 . S
C913 C908 1.425 . S
C913 C910 1.409 . S
C913 C911 1.415 . S
C914 H904 0.930 . S
C914 C912 1.419 . S
C914 C915 1.362 . S
C915 H905 0.930 . S
C915 C908 1.409 . S
C915 C914 1.362 . S
H916 C922 0.930 . S
H917 C925 0.930 . S
H918 C926 0.930 . S
H919 C927 0.930 . S
H920 C930 0.930 . S
H921 C931 0.930 . S
C922 H916 0.930 . S
C922 C923 1.355 . S
C922 C924 1.415 . S
C923 C922 1.355 . S
C923 C925 1.419 . S
C924 C922 1.415 . S
C924 C929 1.425 . S
C924 C931 1.409 . S
C925 H917 0.930 . S
C925 C923 1.419 . S
C925 C926 1.362 . S
C926 H918 0.930 . S
C926 C925 1.362 . S
C926 C929 1.409 . S
C927 H919 0.930 . S
C927 C928 1.355 . S
C927 C929 1.415 . S
C928 C927 1.355 . S
C928 C930 1.419 . S
C929 C924 1.425 . S
C929 C926 1.409 . S
C929 C927 1.415 . S
C930 H920 0.930 . S
C930 C928 1.419 . S
C930 C931 1.362 . S
C931 H921 0.930 . S
C931 C924 1.409 . S
C931 C930 1.362 . S
H932 C938 0.930 . S
H933 C941 0.930 . S
H934 C942 0.930 . S
H935 C943 0.930 . S
H936 C946 0.930 . S
H937 C947 0.930 . S
C938 H932 0.930 . S
C938 C939 1.355 . S
C938 C940 1.415 . S
C939 C938 1.355 . S
C939 C941 1.419 . S
C940 C938 1.415 . S
C940 C945 1.425 . S
C940 C947 1.409 . S
C941 H933 0.930 . S
C941 C939 1.419 . S
C941 C942 1.362 . S
C942 H934 0.930 . S
C942 C941 1.362 . S
C942 C945 1.409 . S
C943 H935 0.930 . S
C943 C944 1.355 . S
C943 C945 1.415 . S
C944 C943 1.355 . S
C944 C946 1.419 . S
C945 C940 1.425 . S
C945 C942 1.409 . S
C945 C943 1.415 . S
C946 H936 0.930 . S
C946 C944 1.419 . S
C946 C947 1.362 . S
C947 H937 0.930 . S
C947 C940 1.409 . S
C947 C946 1.362 . S
H948 C954 0.930 . S
H949 C957 0.930 . S
H950 C958 0.930 . S
H951 C959 0.930 . S
H952 C962 0.930 . S
H953 C963 0.930 . S
C954 H948 0.930 . S
C954 C955 1.355 . S
C954 C956 1.415 . S
C955 C954 1.355 . S
C955 C957 1.419 . S
C956 C954 1.415 . S
C956 C961 1.425 . S
C956 C963 1.409 . S
C957 H949 0.930 . S
C957 C955 1.419 . S
C957 C958 1.362 . S
C958 H950 0.930 . S
C958 C957 1.362 . S
C958 C961 1.409 . S
C959 H951 0.930 . S
C959 C960 1.355 . S
C959 C961 1.415 . S
C960 C959 1.355 . S
C960 C962 1.419 . S
C961 C956 1.425 . S
C961 C958 1.409 . S
C961 C959 1.415 . S
C962 H952 0.930 . S
C962 C960 1.419 . S
C962 C963 1.362 . S
C963 H953 0.930 . S
C963 C956 1.409 . S
C963 C962 1.362 . S
H964 C970 0.930 . S
H965 C973 0.930 . S
H966 C974 0.930 . S
H967 C975 0.930 . S
H968 C978 0.930 . S
H969 C979 0.930 . S
C970 H964 0.930 . S
C970 C971 1.355 . S
C970 C972 1.415 . S
C971 C970 1.355 . S
C971 C973 1.419 . S
C972 C970 1.415 . S
C972 C977 1.425 . S
C972 C979 1.409 . S
C973 H965 0.930 . S
C973 C971 1.419 . S
C973 C974 1.362 . S
C974 H966 0.930 . S
C974 C973 1.362 . S
C974 C977 1.409 . S
C975 H967 0.930 . S
C975 C976 1.355 . S
C975 C977 1.415 . S
C976 C975 1.355 . S
C976 C978 1.419 . S
C977 C972 1.425 . S
C977 C974 1.409 . S
C977 C975 1.415 . S
C978 H968 0.930 . S
C978 C976 1.419 . S
C978 C979 1.362 . S
C979 H969 0.930 . S
C979 C972 1.409 . S
C979 C978 1.362 . S
H980 C986 0.930 . S
H981 C989 0.930 . S
H982 C990 0.930 . S
H983 C991 0.930 . S
H984 C994 0.930 . S
H985 C995 0.930 . S
C986 H980 0.930 . S
C986 C987 1.355 . S
C986 C988 1.415 . S
C987 C986 1.355 . S
C987 C989 1.419 . S
C988 C986 1.415 . S
C988 C993 1.425 . S
C988 C995 1.409 . S
C989 H981 0.930 . S
C989 C987 1.419 . S
C989 C990 1.362 . S
C990 H982 0.930 . S
C990 C989 1.362 . S
C990 C993 1.409 . S
C991 H983 0.930 . S
C991 C992 1.355 . S
C991 C993 1.415 . S
C992 C991 1.355 . S
C992 C994 1.419 . S
C993 C988 1.425 . S
C993 C990 1.409 . S
C993 C991 1.415 . S
C994 H984 0.930 . S
C994 C992 1.419 . S
C994 C995 1.362 . S
C995 H985 0.930 . S
C995 C988 1.409 . S
C995 C994 1.362 . S
H996 C1002 0.930 . S
H997 C1005 0.930 . S
H998 C1006 0.930 . S
H999 C1007 0.930 . S
H1000 C1010 0.930 . S
H1001 C1011 0.930 . S
C1002 H996 0.930 . S
C1002 C1003 1.355 . S
C1002 C1004 1.415 . S
C1003 C1002 1.355 . S
C1003 C1005 1.419 . S
C1004 C1002 1.415 . S
C1004 C1009 1.425 . S
C1004 C1011 1.409 . S
C1005 H997 0.930 . S
C1005 C1003 1.419 . S
C1005 C1006 1.362 . S
C1006 H998 0.930 . S
C1006 C1005 1.362 . S
C1006 C1009 1.409 . S
C1007 H999 0.930 . S
C1007 C1008 1.355 . S
C1007 C1009 1.415 . S
C1008 C1007 1.355 . S
C1008 C1010 1.419 . S
C1009 C1004 1.425 . S
C1009 C1006 1.409 . S
C1009 C1007 1.415 . S
C1010 H1000 0.930 . S
C1010 C1008 1.419 . S
C1010 C1011 1.362 . S
C1011 H1001 0.930 . S
C1011 C1004 1.409 . S
C1011 C1010 1.362 . S
H1012 C1018 0.930 . S
H1013 C1021 0.930 . S
H1014 C1022 0.930 . S
H1015 C1023 0.930 . S
H1016 C1026 0.930 . S
H1017 C1027 0.930 . S
C1018 H1012 0.930 . S
C1018 C1019 1.355 . S
C1018 C1020 1.415 . S
C1019 C1018 1.355 . S
C1019 C1021 1.419 . S
C1020 C1018 1.415 . S
C1020 C1025 1.425 . S
C1020 C1027 1.409 . S
C1021 H1013 0.930 . S
C1021 C1019 1.419 . S
C1021 C1022 1.362 . S
C1022 H1014 0.930 . S
C1022 C1021 1.362 . S
C1022 C1025 1.409 . S
C1023 H1015 0.930 . S
C1023 C1024 1.355 . S
C1023 C1025 1.415 . S
C1024 C1023 1.355 . S
C1024 C1026 1.419 . S
C1025 C1020 1.425 . S
C1025 C1022 1.409 . S
C1025 C1023 1.415 . S
C1026 H1016 0.930 . S
C1026 C1024 1.419 . S
C1026 C1027 1.362 . S
C1027 H1017 0.930 . S
C1027 C1020 1.409 . S
C1027 C1026 1.362 . S
H1028 C1034 0.930 . S
H1029 C1037 0.930 . S
H1030 C1038 0.930 . S
H1031 C1039 0.930 . S
H1032 C1042 0.930 . S
H1033 C1043 0.930 . S
C1034 H1028 0.930 . S
C1034 C1035 1.355 . S
C1034 C1036 1.415 . S
C1035 C1034 1.355 . S
C1035 C1037 1.419 . S
C1036 C1034 1.415 . S
C1036 C1041 1.425 . S
C1036 C1043 1.409 . S
C1037 H1029 0.930 . S
C1037 C1035 1.419 . S
C1037 C1038 1.362 . S
C1038 H1030 0.930 . S
C1038 C1037 1.362 . S
C1038 C1041 1.409 . S
C1039 H1031 0.930 . S
C1039 C1040 1.355 . S
C1039 C1041 1.415 . S
C1040 C1039 1.355 . S
C1040 C1042 1.419 . S
C1041 C1036 1.425 . S
C1041 C1038 1.409 . S
C1041 C1039 1.415 . S
C1042 H1032 0.930 . S
C1042 C1040 1.419 . S
C1042 C1043 1.362 . S
C1043 H1033 0.930 . S
C1043 C1036 1.409 . S
C1043 C1042 1.362 . S
H1044 C1050 0.930 . S
H1045 C1053 0.930 . S
H1046 C1054 0.930 . S
H1047 C1055 0.930 . S
H1048 C1058 0.930 . S
H1049 C1059 0.930 . S
C1050 H1044 0.930 . S
C1050 C1051 1.355 . S
C1050 C1052 1.415 . S
C1051 C1050 1.355 . S
C1051 C1053 1.419 . S
C1052 C1050 1.415 . S
C1052 C1057 1.425 . S
C1052 C1059 1.409 . S
C1053 H1045 0.930 . S
C1053 C1051 1.419 . S
C1053 C1054 1.362 . S
C1054 H1046 0.930 . S
C1054 C1053 1.362 . S
C1054 C1057 1.409 . S
C1055 H1047 0.930 . S
C1055 C1056 1.355 . S
C1055 C1057 1.415 . S
C1056 C1055 1.355 . S
C1056 C1058 1.419 . S
C1057 C1052 1.425 . S
C1057 C1054 1.409 . S
C1057 C1055 1.415 . S
C1058 H1048 0.930 . S
C1058 C1056 1.419 . S
C1058 C1059 1.362 . S
C1059 H1049 0.930 . S
C1059 C1052 1.409 . S
C1059 C1058 1.362 . S
H1060 C1066 0.930 . S
H1061 C1069 0.930 . S
H1062 C1070 0.930 . S
H1063 C1071 0.930 . S
H1064 C1074 0.930 . S
H1065 C1075 0.930 . S
C1066 H1060 0.930 . S
C1066 C1067 1.355 . S
C1066 C1068 1.415 . S
C1067 C1066 1.355 . S
C1067 C1069 1.419 . S
C1068 C1066 1.415 . S
C1068 C1073 1.425 . S
C1068 C1075 1.409 . S
C1069 H1061 0.930 . S
C1069 C1067 1.419 . S
C1069 C1070 1.362 . S
C1070 H1062 0.930 . S
C1070 C1069 1.362 . S
C1070 C1073 1.409 . S
C1071 H1063 0.930 . S
C1071 C1072 1.355 . S
C1071 C1073 1.415 . S
C1072 C1071 1.355 . S
C1072 C1074 1.419 . S
C1073 C1068 1.425 . S
C1073 C1070 1.409 . S
C1073 C1071 1.415 . S
C1074 H1064 0.930 . S
C1074 C1072 1.419 . S
C1074 C1075 1.362 . S
C1075 H1065 0.930 . S
C1075 C1068 1.409 . S
C1075 C1074 1.362 . S
H1076 C1082 0.930 . S
H1077 C1085 0.930 . S
H1078 C1086 0.930 . S
H1079 C1087 0.930 . S
H1080 C1090 0.930 . S
H1081 C1091 0.930 . S
C1082 H1076 0.930 . S
C1082 C1083 1.355 . S
C1082 C1084 1.415 . S
C1083 C1082 1.355 . S
C1083 C1085 1.419 . S
C1084 C1082 1.415 . S
C1084 C1089 1.425 . S
C1084 C1091 1.409 . S
C1085 H1077 0.930 . S
C1085 C1083 1.419 . S
C1085 C1086 1.362 . S
C1086 H1078 0.930 . S
C1086 C1085 1.362 . S
C1086 C1089 1.409 . S
C1087 H1079 0.930 . S
C1087 C1088 1.355 . S
C1087 C1089 1.415 . S
C1088 C1087 1.355 . S
C1088 C1090 1.419 . S
C1089 C1084 1.425 . S
C1089 C1086 1.409 . S
C1089 C1087 1.415 . S
C1090 H1080 0.930 . S
C1090 C1088 1.419 . S
C1090 C1091 1.362 . S
C1091 H1081 0.930 . S
C1091 C1084 1.409 . S
C1091 C1090 1.362 . S
H1092 C1098 0.930 . S
H1093 C1101 0.930 . S
H1094 C1102 0.930 . S
H1095 C1103 0.930 . S
H1096 C1106 0.930 . S
H1097 C1107 0.930 . S
C1098 H1092 0.930 . S
C1098 C1099 1.355 . S
C1098 C1100 1.415 . S
C1099 C1098 1.355 . S
C1099 C1101 1.419 . S
C1100 C1098 1.415 . S
C1100 C1105 1.425 . S
C1100 C1107 1.409 . S
C1101 H1093 0.930 . S
C1101 C1099 1.419 . S
C1101 C1102 1.362 . S
C1102 H1094 0.930 . S
C1102 C1101 1.362 . S
C1102 C1105 1.409 . S
C1103 H1095 0.930 . S
C1103 C1104 1.355 . S
C1103 C1105 1.415 . S
C1104 C1103 1.355 . S
C1104 C1106 1.419 . S
C1105 C1100 1.425 . S
C1105 C1102 1.409 . S
C1105 C1103 1.415 . S
C1106 H1096 0.930 . S
C1106 C1104 1.419 . S
C1106 C1107 1.362 . S
C1107 H1097 0.930 . S
C1107 C1100 1.409 . S
C1107 C1106 1.362 . S
H1108 C1114 0.930 . S
H1109 C1117 0.930 . S
H1110 C1118 0.930 . S
H1111 C1119 0.930 . S
H1112 C1122 0.930 . S
H1113 C1123 0.930 . S
C1114 H1108 0.930 . S
C1114 C1115 1.355 . S
C1114 C1116 1.415 . S
C1115 C1114 1.355 . S
C1115 C1117 1.419 . S
C1116 C1114 1.415 . S
C1116 C1121 1.425 . S
C1116 C1123 1.409 . S
C1117 H1109 0.930 . S
C1117 C1115 1.419 . S
C1117 C1118 1.362 . S
C1118 H1110 0.930 . S
C1118 C1117 1.362 . S
C1118 C1121 1.409 . S
C1119 H1111 0.930 . S
C1119 C1120 1.355 . S
C1119 C1121 1.415 . S
C1120 C1119 1.355 . S
C1120 C1122 1.419 . S
C1121 C1116 1.425 . S
C1121 C1118 1.409 . S
C1121 C1119 1.415 . S
C1122 H1112 0.930 . S
C1122 C1120 1.419 . S
C1122 C1123 1.362 . S
C1123 H1113 0.930 . S
C1123 C1116 1.409 . S
C1123 C1122 1.362 . S
H1124 C1130 0.930 . S
H1125 C1133 0.930 . S
H1126 C1134 0.930 . S
H1127 C1135 0.930 . S
H1128 C1138 0.930 . S
H1129 C1139 0.930 . S
C1130 H1124 0.930 . S
C1130 C1131 1.355 . S
C1130 C1132 1.415 . S
C1131 C1130 1.355 . S
C1131 C1133 1.419 . S
C1132 C1130 1.415 . S
C1132 C1137 1.425 . S
C1132 C1139 1.409 . S
C1133 H1125 0.930 . S
C1133 C1131 1.419 . S
C1133 C1134 1.362 . S
C1134 H1126 0.930 . S
C1134 C1133 1.362 . S
C1134 C1137 1.409 . S
C1135 H1127 0.930 . S
C1135 C1136 1.355 . S
C1135 C1137 1.415 . S
C1136 C1135 1.355 . S
C1136 C1138 1.419 . S
C1137 C1132 1.425 . S
C1137 C1134 1.409 . S
C1137 C1135 1.415 . S
C1138 H1128 0.930 . S
C1138 C1136 1.419 . S
C1138 C1139 1.362 . S
C1139 H1129 0.930 . S
C1139 C1132 1.409 . S
C1139 C1138 1.362 . S
H1140 C1146 0.930 . S
H1141 C1149 0.930 . S
H1142 C1150 0.930 . S
H1143 C1151 0.930 . S
H1144 C1154 0.930 . S
H1145 C1155 0.930 . S
C1146 H1140 0.930 . S
C1146 C1147 1.355 . S
C1146 C1148 1.415 . S
C1147 C1146 1.355 . S
C1147 C1149 1.419 . S
C1148 C1146 1.415 . S
C1148 C1153 1.425 . S
C1148 C1155 1.409 . S
C1149 H1141 0.930 . S
C1149 C1147 1.419 . S
C1149 C1150 1.362 . S
C1150 H1142 0.930 . S
C1150 C1149 1.362 . S
C1150 C1153 1.409 . S
C1151 H1143 0.930 . S
C1151 C1152 1.355 . S
C1151 C1153 1.415 . S
C1152 C1151 1.355 . S
C1152 C1154 1.419 . S
C1153 C1148 1.425 . S
C1153 C1150 1.409 . S
C1153 C1151 1.415 . S
C1154 H1144 0.930 . S
C1154 C1152 1.419 . S
C1154 C1155 1.362 . S
C1155 H1145 0.930 . S
C1155 C1148 1.409 . S
C1155 C1154 1.362 . S
H1156 C1162 0.930 . S
H1157 C1165 0.930 . S
H1158 C1166 0.930 . S
H1159 C1167 0.930 . S
H1160 C1170 0.930 . S
H1161 C1171 0.930 . S
C1162 H1156 0.930 . S
C1162 C1163 1.355 . S
C1162 C1164 1.415 . S
C1163 C1162 1.355 . S
C1163 C1165 1.419 . S
C1164 C1162 1.415 . S
C1164 C1169 1.425 . S
C1164 C1171 1.409 . S
C1165 H1157 0.930 . S
C1165 C1163 1.419 . S
C1165 C1166 1.362 . S
C1166 H1158 0.930 . S
C1166 C1165 1.362 . S
C1166 C1169 1.409 . S
C1167 H1159 0.930 . S
C1167 C1168 1.355 . S
C1167 C1169 1.415 . S
C1168 C1167 1.355 . S
C1168 C1170 1.419 . S
C1169 C1164 1.425 . S
C1169 C1166 1.409 . S
C1169 C1167 1.415 . S
C1170 H1160 0.930 . S
C1170 C1168 1.419 . S
C1170 C1171 1.362 . S
C1171 H1161 0.930 . S
C1171 C1164 1.409 . S
C1171 C1170 1.362 . S
H1172 C1178 0.930 . S
H1173 C1181 0.930 . S
H1174 C1182 0.930 . S
H1175 C1183 0.930 . S
H1176 C1186 0.930 . S
H1177 C1187 0.930 . S
C1178 H1172 0.930 . S
C1178 C1179 1.355 . S
C1178 C1180 1.415 . S
C1179 C1178 1.355 . S
C1179 C1181 1.419 . S
C1180 C1178 1.415 . S
C1180 C1185 1.425 . S
C1180 C1187 1.409 . S
C1181 H1173 0.930 . S
C1181 C1179 1.419 . S
C1181 C1182 1.362 . S
C1182 H1174 0.930 . S
C1182 C1181 1.362 . S
C1182 C1185 1.409 . S
C1183 H1175 0.930 . S
C1183 C1184 1.355 . S
C1183 C1185 1.415 . S
C1184 C1183 1.355 . S
C1184 C1186 1.419 . S
C1185 C1180 1.425 . S
C1185 C1182 1.409 . S
C1185 C1183 1.415 . S
C1186 H1176 0.930 . S
C1186 C1184 1.419 . S
C1186 C1187 1.362 . S
C1187 H1177 0.930 . S
C1187 C1180 1.409 . S
C1187 C1186 1.362 . S
H1188 C1194 0.930 . S
H1189 C1197 0.930 . S
H1190 C1198 0.930 . S
H1191 C1199 0.930 . S
H1192 C1202 0.930 . S
H1193 C1203 0.930 . S
C1194 H1188 0.930 . S
C1194 C1195 1.355 . S
C1194 C1196 1.415 . S
C1195 C1194 1.355 . S
C1195 C1197 1.419 . S
C1196 C1194 1.415 . S
C1196 C1201 1.425 . S
C1196 C1203 1.409 . S
C1197 H1189 0.930 . S
C1197 C1195 1.419 . S
C1197 C1198 1.362 . S
C1198 H1190 0.930 . S
C1198 C1197 1.362 . S
C1198 C1201 1.409 . S
C1199 H1191 0.930 . S
C1199 C1200 1.355 . S
C1199 C1201 1.415 . S
C1200 C1199 1.355 . S
C1200 C1202 1.419 . S
C1201 C1196 1.425 . S
C1201 C1198 1.409 . S
C1201 C1199 1.415 . S
C1202 H1192 0.930 . S
C1202 C1200 1.419 . S
C1202 C1203 1.362 . S
C1203 H1193 0.930 . S
C1203 C1196 1.409 . S
C1203 C1202 1.362 . S
H1204 C1210 0.930 . S
H1205 C1213 0.930 . S
H1206 C1214 0.930 . S
H1207 C1215 0.930 . S
H1208 C1218 0.930 . S
H1209 C1219 0.930 . S
C1210 H1204 0.930 . S
C1210 C1211 1.355 . S
C1210 C1212 1.415 . S
C1211 C1210 1.355 . S
C1211 C1213 1.419 . S
C1212 C1210 1.415 . S
C1212 C1217 1.425 . S
C1212 C1219 1.409 . S
C1213 H1205 0.930 . S
C1213 C1211 1.419 . S
C1213 C1214 1.362 . S
C1214 H1206 0.930 . S
C1214 C1213 1.362 . S
C1214 C1217 1.409 . S
C1215 H1207 0.930 . S
C1215 C1216 1.355 . S
C1215 C1217 1.415 . S
C1216 C1215 1.355 . S
C1216 C1218 1.419 . S
C1217 C1212 1.425 . S
C1217 C1214 1.409 . S
C1217 C1215 1.415 . S
C1218 H1208 0.930 . S
C1218 C1216 1.419 . S
C1218 C1219 1.362 . S
C1219 H1209 0.930 . S
C1219 C1212 1.409 . S
C1219 C1218 1.362 . S
H1220 C1226 0.930 . S
H1221 C1229 0.930 . S
H1222 C1230 0.930 . S
H1223 C1231 0.930 . S
H1224 C1234 0.930 . S
H1225 C1235 0.930 . S
C1226 H1220 0.930 . S
C1226 C1227 1.355 . S
C1226 C1228 1.415 . S
C1227 C1226 1.355 . S
C1227 C1229 1.419 . S
C1228 C1226 1.415 . S
C1228 C1233 1.425 . S
C1228 C1235 1.409 . S
C1229 H1221 0.930 . S
C1229 C1227 1.419 . S
C1229 C1230 1.362 . S
C1230 H1222 0.930 . S
C1230 C1229 1.362 . S
C1230 C1233 1.409 . S
C1231 H1223 0.930 . S
C1231 C1232 1.355 . S
C1231 C1233 1.415 . S
C1232 C1231 1.355 . S
C1232 C1234 1.419 . S
C1233 C1228 1.425 . S
C1233 C1230 1.409 . S
C1233 C1231 1.415 . S
C1234 H1224 0.930 . S
C1234 C1232 1.419 . S
C1234 C1235 1.362 . S
C1235 H1225 0.930 . S
C1235 C1228 1.409 . S
C1235 C1234 1.362 . S
H1236 C1242 0.930 . S
H1237 C1245 0.930 . S
H1238 C1246 0.930 . S
H1239 C1247 0.930 . S
H1240 C1250 0.930 . S
H1241 C1251 0.930 . S
C1242 H1236 0.930 . S
C1242 C1243 1.355 . S
C1242 C1244 1.415 . S
C1243 C1242 1.355 . S
C1243 C1245 1.419 . S
C1244 C1242 1.415 . S
C1244 C1249 1.425 1_455 S
C1244 C1251 1.409 1_455 S
C1245 H1237 0.930 . S
C1245 C1243 1.419 . S
C1245 C1246 1.362 . S
C1246 H1238 0.930 . S
C1246 C1245 1.362 . S
C1246 C1249 1.409 1_455 S
C1247 H1239 0.930 . S
C1247 C1248 1.355 . S
C1247 C1249 1.415 . S
C1248 C1247 1.355 . S
C1248 C1250 1.419 . S
C1249 C1244 1.425 1_655 S
C1249 C1246 1.409 1_655 S
C1249 C1247 1.415 . S
C1250 H1240 0.930 . S
C1250 C1248 1.419 . S
C1250 C1251 1.362 . S
C1251 H1241 0.930 . S
C1251 C1244 1.409 1_655 S
C1251 C1250 1.362 . S
H1252 C1258 0.930 . S
H1253 C1261 0.930 . S
H1254 C1262 0.930 . S
H1255 C1263 0.930 . S
H1256 C1266 0.930 . S
H1257 C1267 0.930 . S
C1258 H1252 0.930 . S
C1258 C1259 1.355 . S
C1258 C1260 1.415 . S
C1259 C1258 1.355 . S
C1259 C1261 1.419 . S
C1260 C1258 1.415 . S
C1260 C1265 1.425 . S
C1260 C1267 1.409 . S
C1261 H1253 0.930 . S
C1261 C1259 1.419 . S
C1261 C1262 1.362 . S
C1262 H1254 0.930 . S
C1262 C1261 1.362 . S
C1262 C1265 1.409 . S
C1263 H1255 0.930 . S
C1263 C1264 1.355 . S
C1263 C1265 1.415 . S
C1264 C1263 1.355 . S
C1264 C1266 1.419 . S
C1265 C1260 1.425 . S
C1265 C1262 1.409 . S
C1265 C1263 1.415 . S
C1266 H1256 0.930 . S
C1266 C1264 1.419 . S
C1266 C1267 1.362 . S
C1267 H1257 0.930 . S
C1267 C1260 1.409 . S
C1267 C1266 1.362 . S
H1268 C1274 0.930 . S
H1269 C1277 0.930 . S
H1270 C1278 0.930 . S
H1271 C1279 0.930 . S
H1272 C1282 0.930 . S
H1273 C1283 0.930 . S
C1274 H1268 0.930 . S
C1274 C1275 1.355 . S
C1274 C1276 1.415 . S
C1275 C1274 1.355 . S
C1275 C1277 1.419 . S
C1276 C1274 1.415 . S
C1276 C1281 1.425 1_545 S
C1276 C1283 1.409 1_545 S
C1277 H1269 0.930 . S
C1277 C1275 1.419 . S
C1277 C1278 1.362 . S
C1278 H1270 0.930 . S
C1278 C1277 1.362 . S
C1278 C1281 1.409 1_545 S
C1279 H1271 0.930 . S
C1279 C1280 1.355 . S
C1279 C1281 1.415 . S
C1280 C1279 1.355 . S
C1280 C1282 1.419 . S
C1281 C1276 1.425 1_565 S
C1281 C1278 1.409 1_565 S
C1281 C1279 1.415 . S
C1282 H1272 0.930 . S
C1282 C1280 1.419 . S
C1282 C1283 1.362 . S
C1283 H1273 0.930 . S
C1283 C1276 1.409 1_565 S
C1283 C1282 1.362 . S
H1284 C1290 0.930 . S
H1285 C1293 0.930 . S
H1286 C1294 0.930 . S
H1287 C1295 0.930 . S
H1288 C1298 0.930 . S
H1289 C1299 0.930 . S
C1290 H1284 0.930 . S
C1290 C1291 1.355 . S
C1290 C1292 1.415 . S
C1291 C1290 1.355 . S
C1291 C1293 1.419 . S
C1292 C1290 1.415 . S
C1292 C1297 1.425 1_545 S
C1292 C1299 1.409 1_545 S
C1293 H1285 0.930 . S
C1293 C1291 1.419 . S
C1293 C1294 1.362 . S
C1294 H1286 0.930 . S
C1294 C1293 1.362 . S
C1294 C1297 1.409 1_545 S
C1295 H1287 0.930 . S
C1295 C1296 1.355 . S
C1295 C1297 1.415 . S
C1296 C1295 1.355 . S
C1296 C1298 1.419 . S
C1297 C1292 1.425 1_565 S
C1297 C1294 1.409 1_565 S
C1297 C1295 1.415 . S
C1298 H1288 0.930 . S
C1298 C1296 1.419 . S
C1298 C1299 1.362 . S
C1299 H1289 0.930 . S
C1299 C1292 1.409 1_565 S
C1299 C1298 1.362 . S
H1300 C1306 0.930 . S
H1301 C1309 0.930 . S
H1302 C1310 0.930 . S
H1303 C1311 0.930 . S
H1304 C1314 0.930 . S
H1305 C1315 0.930 . S
C1306 H1300 0.930 . S
C1306 C1307 1.355 . S
C1306 C1308 1.415 . S
C1307 C1306 1.355 . S
C1307 C1309 1.419 . S
C1308 C1306 1.415 . S
C1308 C1313 1.425 1_655 S
C1308 C1315 1.409 1_655 S
C1309 H1301 0.930 . S
C1309 C1307 1.419 . S
C1309 C1310 1.362 . S
C1310 H1302 0.930 . S
C1310 C1309 1.362 . S
C1310 C1313 1.409 1_655 S
C1311 H1303 0.930 . S
C1311 C1312 1.355 . S
C1311 C1313 1.415 . S
C1312 C1311 1.355 . S
C1312 C1314 1.419 . S
C1313 C1308 1.425 1_455 S
C1313 C1310 1.409 1_455 S
C1313 C1311 1.415 . S
C1314 H1304 0.930 . S
C1314 C1312 1.419 . S
C1314 C1315 1.362 . S
C1315 H1305 0.930 . S
C1315 C1308 1.409 1_455 S
C1315 C1314 1.362 . S
H1316 C1322 0.930 . S
H1317 C1325 0.930 . S
H1318 C1326 0.930 . S
H1319 C1327 0.930 . S
H1320 C1330 0.930 . S
H1321 C1331 0.930 . S
C1322 H1316 0.930 . S
C1322 C1323 1.355 . S
C1322 C1324 1.415 . S
C1323 C1322 1.355 . S
C1323 C1325 1.419 . S
C1324 C1322 1.415 . S
C1324 C1329 1.425 . S
C1324 C1331 1.409 . S
C1325 H1317 0.930 . S
C1325 C1323 1.419 . S
C1325 C1326 1.362 . S
C1326 H1318 0.930 . S
C1326 C1325 1.362 . S
C1326 C1329 1.409 . S
C1327 H1319 0.930 . S
C1327 C1328 1.355 . S
C1327 C1329 1.415 . S
C1328 C1327 1.355 . S
C1328 C1330 1.419 . S
C1329 C1324 1.425 . S
C1329 C1326 1.409 . S
C1329 C1327 1.415 . S
C1330 H1320 0.930 . S
C1330 C1328 1.419 . S
C1330 C1331 1.362 . S
C1331 H1321 0.930 . S
C1331 C1324 1.409 . S
C1331 C1330 1.362 . S
H1332 C1338 0.930 . S
H1333 C1341 0.930 . S
H1334 C1342 0.930 . S
H1335 C1343 0.930 . S
H1336 C1346 0.930 . S
H1337 C1347 0.930 . S
C1338 H1332 0.930 . S
C1338 C1339 1.355 . S
C1338 C1340 1.415 . S
C1339 C1338 1.355 . S
C1339 C1341 1.419 . S
C1340 C1338 1.415 . S
C1340 C1345 1.425 . S
C1340 C1347 1.409 . S
C1341 H1333 0.930 . S
C1341 C1339 1.419 . S
C1341 C1342 1.362 . S
C1342 H1334 0.930 . S
C1342 C1341 1.362 . S
C1342 C1345 1.409 . S
C1343 H1335 0.930 . S
C1343 C1344 1.355 . S
C1343 C1345 1.415 . S
C1344 C1343 1.355 . S
C1344 C1346 1.419 . S
C1345 C1340 1.425 . S
C1345 C1342 1.409 . S
C1345 C1343 1.415 . S
C1346 H1336 0.930 . S
C1346 C1344 1.419 . S
C1346 C1347 1.362 . S
C1347 H1337 0.930 . S
C1347 C1340 1.409 . S
C1347 C1346 1.362 . S
H1348 C1354 0.930 . S
H1349 C1357 0.930 . S
H1350 C1358 0.930 . S
H1351 C1359 0.930 . S
H1352 C1362 0.930 . S
H1353 C1363 0.930 . S
C1354 H1348 0.930 . S
C1354 C1355 1.355 . S
C1354 C1356 1.415 . S
C1355 C1354 1.355 . S
C1355 C1357 1.419 . S
C1356 C1354 1.415 . S
C1356 C1361 1.425 . S
C1356 C1363 1.409 . S
C1357 H1349 0.930 . S
C1357 C1355 1.419 . S
C1357 C1358 1.362 . S
C1358 H1350 0.930 . S
C1358 C1357 1.362 . S
C1358 C1361 1.409 . S
C1359 H1351 0.930 . S
C1359 C1360 1.355 . S
C1359 C1361 1.415 . S
C1360 C1359 1.355 . S
C1360 C1362 1.419 . S
C1361 C1356 1.425 . S
C1361 C1358 1.409 . S
C1361 C1359 1.415 . S
C1362 H1352 0.930 . S
C1362 C1360 1.419 . S
C1362 C1363 1.362 . S
C1363 H1353 0.930 . S
C1363 C1356 1.409 . S
C1363 C1362 1.362 . S
H1364 C1370 0.930 . S
H1365 C1373 0.930 . S
H1366 C1374 0.930 . S
H1367 C1375 0.930 . S
H1368 C1378 0.930 . S
H1369 C1379 0.930 . S
C1370 H1364 0.930 . S
C1370 C1371 1.355 . S
C1370 C1372 1.415 . S
C1371 C1370 1.355 . S
C1371 C1373 1.419 . S
C1372 C1370 1.415 . S
C1372 C1377 1.425 . S
C1372 C1379 1.409 . S
C1373 H1365 0.930 . S
C1373 C1371 1.419 . S
C1373 C1374 1.362 . S
C1374 H1366 0.930 . S
C1374 C1373 1.362 . S
C1374 C1377 1.409 . S
C1375 H1367 0.930 . S
C1375 C1376 1.355 . S
C1375 C1377 1.415 . S
C1376 C1375 1.355 . S
C1376 C1378 1.419 . S
C1377 C1372 1.425 . S
C1377 C1374 1.409 . S
C1377 C1375 1.415 . S
C1378 H1368 0.930 . S
C1378 C1376 1.419 . S
C1378 C1379 1.362 . S
C1379 H1369 0.930 . S
C1379 C1372 1.409 . S
C1379 C1378 1.362 . S
H1380 C1386 0.930 . S
H1381 C1389 0.930 . S
H1382 C1390 0.930 . S
H1383 C1391 0.930 . S
H1384 C1394 0.930 . S
H1385 C1395 0.930 . S
C1386 H1380 0.930 . S
C1386 C1387 1.355 . S
C1386 C1388 1.415 . S
C1387 C1386 1.355 . S
C1387 C1389 1.419 . S
C1388 C1386 1.415 . S
C1388 C1393 1.425 . S
C1388 C1395 1.409 . S
C1389 H1381 0.930 . S
C1389 C1387 1.419 . S
C1389 C1390 1.362 . S
C1390 H1382 0.930 . S
C1390 C1389 1.362 . S
C1390 C1393 1.409 . S
C1391 H1383 0.930 . S
C1391 C1392 1.355 . S
C1391 C1393 1.415 . S
C1392 C1391 1.355 . S
C1392 C1394 1.419 . S
C1393 C1388 1.425 . S
C1393 C1390 1.409 . S
C1393 C1391 1.415 . S
C1394 H1384 0.930 . S
C1394 C1392 1.419 . S
C1394 C1395 1.362 . S
C1395 H1385 0.930 . S
C1395 C1388 1.409 . S
C1395 C1394 1.362 . S
H1396 C1402 0.930 . S
H1397 C1405 0.930 . S
H1398 C1406 0.930 . S
H1399 C1407 0.930 . S
H1400 C1410 0.930 . S
H1401 C1411 0.930 . S
C1402 H1396 0.930 . S
C1402 C1403 1.355 . S
C1402 C1404 1.415 . S
C1403 C1402 1.355 . S
C1403 C1405 1.419 . S
C1404 C1402 1.415 . S
C1404 C1409 1.425 . S
C1404 C1411 1.409 . S
C1405 H1397 0.930 . S
C1405 C1403 1.419 . S
C1405 C1406 1.362 . S
C1406 H1398 0.930 . S
C1406 C1405 1.362 . S
C1406 C1409 1.409 . S
C1407 H1399 0.930 . S
C1407 C1408 1.355 . S
C1407 C1409 1.415 . S
C1408 C1407 1.355 . S
C1408 C1410 1.419 . S
C1409 C1404 1.425 . S
C1409 C1406 1.409 . S
C1409 C1407 1.415 . S
C1410 H1400 0.930 . S
C1410 C1408 1.419 . S
C1410 C1411 1.362 . S
C1411 H1401 0.930 . S
C1411 C1404 1.409 . S
C1411 C1410 1.362 . S
H1412 C1418 0.930 . S
H1413 C1421 0.930 . S
H1414 C1422 0.930 . S
H1415 C1423 0.930 . S
H1416 C1426 0.930 . S
H1417 C1427 0.930 . S
C1418 H1412 0.930 . S
C1418 C1419 1.355 . S
C1418 C1420 1.415 . S
C1419 C1418 1.355 . S
C1419 C1421 1.419 . S
C1420 C1418 1.415 . S
C1420 C1425 1.425 . S
C1420 C1427 1.409 . S
C1421 H1413 0.930 . S
C1421 C1419 1.419 . S
C1421 C1422 1.362 . S
C1422 H1414 0.930 . S
C1422 C1421 1.362 . S
C1422 C1425 1.409 . S
C1423 H1415 0.930 . S
C1423 C1424 1.355 . S
C1423 C1425 1.415 . S
C1424 C1423 1.355 . S
C1424 C1426 1.419 . S
C1425 C1420 1.425 . S
C1425 C1422 1.409 . S
C1425 C1423 1.415 . S
C1426 H1416 0.930 . S
C1426 C1424 1.419 . S
C1426 C1427 1.362 . S
C1427 H1417 0.930 . S
C1427 C1420 1.409 . S
C1427 C1426 1.362 . S
H1428 C1434 0.930 . S
H1429 C1437 0.930 . S
H1430 C1438 0.930 . S
H1431 C1439 0.930 . S
H1432 C1442 0.930 . S
H1433 C1443 0.930 . S
C1434 H1428 0.930 . S
C1434 C1435 1.355 . S
C1434 C1436 1.415 . S
C1435 C1434 1.355 . S
C1435 C1437 1.419 . S
C1436 C1434 1.415 . S
C1436 C1441 1.425 . S
C1436 C1443 1.409 . S
C1437 H1429 0.930 . S
C1437 C1435 1.419 . S
C1437 C1438 1.362 . S
C1438 H1430 0.930 . S
C1438 C1437 1.362 . S
C1438 C1441 1.409 . S
C1439 H1431 0.930 . S
C1439 C1440 1.355 . S
C1439 C1441 1.415 . S
C1440 C1439 1.355 . S
C1440 C1442 1.419 . S
C1441 C1436 1.425 . S
C1441 C1438 1.409 . S
C1441 C1439 1.415 . S
C1442 H1432 0.930 . S
C1442 C1440 1.419 . S
C1442 C1443 1.362 . S
C1443 H1433 0.930 . S
C1443 C1436 1.409 . S
C1443 C1442 1.362 . S
H1444 C1450 0.930 . S
H1445 C1453 0.930 . S
H1446 C1454 0.930 . S
H1447 C1455 0.930 . S
H1448 C1458 0.930 . S
H1449 C1459 0.930 . S
C1450 H1444 0.930 . S
C1450 C1451 1.355 . S
C1450 C1452 1.415 . S
C1451 C1450 1.355 . S
C1451 C1453 1.419 . S
C1452 C1450 1.415 . S
C1452 C1457 1.425 . S
C1452 C1459 1.409 . S
C1453 H1445 0.930 . S
C1453 C1451 1.419 . S
C1453 C1454 1.362 . S
C1454 H1446 0.930 . S
C1454 C1453 1.362 . S
C1454 C1457 1.409 . S
C1455 H1447 0.930 . S
C1455 C1456 1.355 . S
C1455 C1457 1.415 . S
C1456 C1455 1.355 . S
C1456 C1458 1.419 . S
C1457 C1452 1.425 . S
C1457 C1454 1.409 . S
C1457 C1455 1.415 . S
C1458 H1448 0.930 . S
C1458 C1456 1.419 . S
C1458 C1459 1.362 . S
C1459 H1449 0.930 . S
C1459 C1452 1.409 . S
C1459 C1458 1.362 . S
H1460 C1466 0.930 . S
H1461 C1469 0.930 . S
H1462 C1470 0.930 . S
H1463 C1471 0.930 . S
H1464 C1474 0.930 . S
H1465 C1475 0.930 . S
C1466 H1460 0.930 . S
C1466 C1467 1.355 . S
C1466 C1468 1.415 . S
C1467 C1466 1.355 . S
C1467 C1469 1.419 . S
C1468 C1466 1.415 . S
C1468 C1473 1.425 . S
C1468 C1475 1.409 . S
C1469 H1461 0.930 . S
C1469 C1467 1.419 . S
C1469 C1470 1.362 . S
C1470 H1462 0.930 . S
C1470 C1469 1.362 . S
C1470 C1473 1.409 . S
C1471 H1463 0.930 . S
C1471 C1472 1.355 . S
C1471 C1473 1.415 . S
C1472 C1471 1.355 . S
C1472 C1474 1.419 . S
C1473 C1468 1.425 . S
C1473 C1470 1.409 . S
C1473 C1471 1.415 . S
C1474 H1464 0.930 . S
C1474 C1472 1.419 . S
C1474 C1475 1.362 . S
C1475 H1465 0.930 . S
C1475 C1468 1.409 . S
C1475 C1474 1.362 . S
H1476 C1482 0.930 . S
H1477 C1485 0.930 . S
H1478 C1486 0.930 1_556 S
H1479 C1487 0.930 . S
H1480 C1490 0.930 . S
H1481 C1491 0.930 . S
C1482 H1476 0.930 . S
C1482 C1483 1.355 . S
C1482 C1484 1.415 . S
C1483 C1482 1.355 . S
C1483 C1485 1.419 . S
C1484 C1482 1.415 . S
C1484 C1489 1.425 . S
C1484 C1491 1.409 . S
C1485 H1477 0.930 . S
C1485 C1483 1.419 . S
C1485 C1486 1.362 . S
C1486 H1478 0.930 1_554 S
C1486 C1485 1.362 . S
C1486 C1489 1.409 . S
C1487 H1479 0.930 . S
C1487 C1488 1.355 . S
C1487 C1489 1.415 . S
C1488 C1487 1.355 . S
C1488 C1490 1.419 . S
C1489 C1484 1.425 . S
C1489 C1486 1.409 . S
C1489 C1487 1.415 . S
C1490 H1480 0.930 . S
C1490 C1488 1.419 . S
C1490 C1491 1.362 . S
C1491 H1481 0.930 . S
C1491 C1484 1.409 . S
C1491 C1490 1.362 . S
H1492 C1498 0.930 . S
H1493 C1501 0.930 . S
H1494 C1502 0.930 . S
H1495 C1503 0.930 . S
H1496 C1506 0.930 . S
H1497 C1507 0.930 . S
C1498 H1492 0.930 . S
C1498 C1499 1.355 . S
C1498 C1500 1.415 . S
C1499 C1498 1.355 . S
C1499 C1501 1.419 . S
C1500 C1498 1.415 . S
C1500 C1505 1.425 . S
C1500 C1507 1.409 . S
C1501 H1493 0.930 . S
C1501 C1499 1.419 . S
C1501 C1502 1.362 . S
C1502 H1494 0.930 . S
C1502 C1501 1.362 . S
C1502 C1505 1.409 . S
C1503 H1495 0.930 . S
C1503 C1504 1.355 . S
C1503 C1505 1.415 . S
C1504 C1503 1.355 . S
C1504 C1506 1.419 . S
C1505 C1500 1.425 . S
C1505 C1502 1.409 . S
C1505 C1503 1.415 . S
C1506 H1496 0.930 . S
C1506 C1504 1.419 . S
C1506 C1507 1.362 . S
C1507 H1497 0.930 . S
C1507 C1500 1.409 . S
C1507 C1506 1.362 . S
H1508 C1514 0.930 . S
H1509 C1517 0.930 . S
H1510 C1518 0.930 . S
H1511 C1519 0.930 . S
H1512 C1522 0.930 . S
H1513 C1523 0.930 . S
C1514 H1508 0.930 . S
C1514 C1515 1.355 . S
C1514 C1516 1.415 . S
C1515 C1514 1.355 . S
C1515 C1517 1.419 . S
C1516 C1514 1.415 . S
C1516 C1521 1.425 . S
C1516 C1523 1.409 . S
C1517 H1509 0.930 . S
C1517 C1515 1.419 . S
C1517 C1518 1.362 . S
C1518 H1510 0.930 . S
C1518 C1517 1.362 . S
C1518 C1521 1.409 . S
C1519 H1511 0.930 . S
C1519 C1520 1.355 . S
C1519 C1521 1.415 . S
C1520 C1519 1.355 . S
C1520 C1522 1.419 . S
C1521 C1516 1.425 . S
C1521 C1518 1.409 . S
C1521 C1519 1.415 . S
C1522 H1512 0.930 . S
C1522 C1520 1.419 . S
C1522 C1523 1.362 . S
C1523 H1513 0.930 . S
C1523 C1516 1.409 . S
C1523 C1522 1.362 . S
H1524 C1530 0.930 . S
H1525 C1533 0.930 . S
H1526 C1534 0.930 . S
H1527 C1535 0.930 . S
H1528 C1538 0.930 . S
H1529 C1539 0.930 . S
C1530 H1524 0.930 . S
C1530 C1531 1.355 . S
C1530 C1532 1.415 . S
C1531 C1530 1.355 . S
C1531 C1533 1.419 . S
C1532 C1530 1.415 . S
C1532 C1537 1.425 . S
C1532 C1539 1.409 . S
C1533 H1525 0.930 . S
C1533 C1531 1.419 . S
C1533 C1534 1.362 . S
C1534 H1526 0.930 . S
C1534 C1533 1.362 . S
C1534 C1537 1.409 . S
C1535 H1527 0.930 . S
C1535 C1536 1.355 . S
C1535 C1537 1.415 . S
C1536 C1535 1.355 . S
C1536 C1538 1.419 . S
C1537 C1532 1.425 . S
C1537 C1534 1.409 . S
C1537 C1535 1.415 . S
C1538 H1528 0.930 . S
C1538 C1536 1.419 . S
C1538 C1539 1.362 . S
C1539 H1529 0.930 . S
C1539 C1532 1.409 . S
C1539 C1538 1.362 . S
H1540 C1546 0.930 . S
H1541 C1549 0.930 . S
H1542 C1550 0.930 1_554 S
H1543 C1551 0.930 . S
H1544 C1554 0.930 . S
H1545 C1555 0.930 . S
C1546 H1540 0.930 . S
C1546 C1547 1.355 . S
C1546 C1548 1.415 . S
C1547 C1546 1.355 . S
C1547 C1549 1.419 . S
C1548 C1546 1.415 . S
C1548 C1553 1.425 . S
C1548 C1555 1.409 . S
C1549 H1541 0.930 . S
C1549 C1547 1.419 . S
C1549 C1550 1.362 . S
C1550 H1542 0.930 1_556 S
C1550 C1549 1.362 . S
C1550 C1553 1.409 . S
C1551 H1543 0.930 . S
C1551 C1552 1.355 . S
C1551 C1553 1.415 . S
C1552 C1551 1.355 . S
C1552 C1554 1.419 . S
C1553 C1548 1.425 . S
C1553 C1550 1.409 . S
C1553 C1551 1.415 . S
C1554 H1544 0.930 . S
C1554 C1552 1.419 . S
C1554 C1555 1.362 . S
C1555 H1545 0.930 . S
C1555 C1548 1.409 . S
C1555 C1554 1.362 . S
H1556 C1562 0.930 . S
H1557 C1565 0.930 . S
H1558 C1566 0.930 . S
H1559 C1567 0.930 . S
H1560 C1570 0.930 . S
H1561 C1571 0.930 1_554 S
C1562 H1556 0.930 . S
C1562 C1563 1.355 . S
C1562 C1564 1.415 . S
C1563 C1562 1.355 . S
C1563 C1565 1.419 . S
C1564 C1562 1.415 . S
C1564 C1569 1.425 . S
C1564 C1571 1.409 . S
C1565 H1557 0.930 . S
C1565 C1563 1.419 . S
C1565 C1566 1.362 . S
C1566 H1558 0.930 . S
C1566 C1565 1.362 . S
C1566 C1569 1.409 . S
C1567 H1559 0.930 . S
C1567 C1568 1.355 . S
C1567 C1569 1.415 . S
C1568 C1567 1.355 . S
C1568 C1570 1.419 . S
C1569 C1564 1.425 . S
C1569 C1566 1.409 . S
C1569 C1567 1.415 . S
C1570 H1560 0.930 . S
C1570 C1568 1.419 . S
C1570 C1571 1.362 . S
C1571 H1561 0.930 1_556 S
C1571 C1564 1.409 . S
C1571 C1570 1.362 . S
H1572 C1578 0.930 . S
H1573 C1581 0.930 . S
H1574 C1582 0.930 . S
H1575 C1583 0.930 . S
H1576 C1586 0.930 . S
H1577 C1587 0.930 . S
C1578 H1572 0.930 . S
C1578 C1579 1.355 . S
C1578 C1580 1.415 . S
C1579 C1578 1.355 . S
C1579 C1581 1.419 . S
C1580 C1578 1.415 . S
C1580 C1585 1.425 . S
C1580 C1587 1.409 . S
C1581 H1573 0.930 . S
C1581 C1579 1.419 . S
C1581 C1582 1.362 . S
C1582 H1574 0.930 . S
C1582 C1581 1.362 . S
C1582 C1585 1.409 . S
C1583 H1575 0.930 . S
C1583 C1584 1.355 . S
C1583 C1585 1.415 . S
C1584 C1583 1.355 . S
C1584 C1586 1.419 . S
C1585 C1580 1.425 . S
C1585 C1582 1.409 . S
C1585 C1583 1.415 . S
C1586 H1576 0.930 . S
C1586 C1584 1.419 . S
C1586 C1587 1.362 . S
C1587 H1577 0.930 . S
C1587 C1580 1.409 . S
C1587 C1586 1.362 . S
H1588 C1594 0.930 . S
H1589 C1597 0.930 . S
H1590 C1598 0.930 . S
H1591 C1599 0.930 . S
H1592 C1602 0.930 . S
H1593 C1603 0.930 . S
C1594 H1588 0.930 . S
C1594 C1595 1.355 . S
C1594 C1596 1.415 . S
C1595 C1594 1.355 . S
C1595 C1597 1.419 . S
C1596 C1594 1.415 . S
C1596 C1601 1.425 . S
C1596 C1603 1.409 . S
C1597 H1589 0.930 . S
C1597 C1595 1.419 . S
C1597 C1598 1.362 . S
C1598 H1590 0.930 . S
C1598 C1597 1.362 . S
C1598 C1601 1.409 . S
C1599 H1591 0.930 . S
C1599 C1600 1.355 . S
C1599 C1601 1.415 . S
C1600 C1599 1.355 . S
C1600 C1602 1.419 . S
C1601 C1596 1.425 . S
C1601 C1598 1.409 . S
C1601 C1599 1.415 . S
C1602 H1592 0.930 . S
C1602 C1600 1.419 . S
C1602 C1603 1.362 . S
C1603 H1593 0.930 . S
C1603 C1596 1.409 . S
C1603 C1602 1.362 . S
H1604 C1610 0.930 . S
H1605 C1613 0.930 . S
H1606 C1614 0.930 . S
H1607 C1615 0.930 . S
H1608 C1618 0.930 . S
H1609 C1619 0.930 . S
C1610 H1604 0.930 . S
C1610 C1611 1.355 . S
C1610 C1612 1.415 . S
C1611 C1610 1.355 . S
C1611 C1613 1.419 . S
C1612 C1610 1.415 . S
C1612 C1617 1.425 . S
C1612 C1619 1.409 . S
C1613 H1605 0.930 . S
C1613 C1611 1.419 . S
C1613 C1614 1.362 . S
C1614 H1606 0.930 . S
C1614 C1613 1.362 . S
C1614 C1617 1.409 . S
C1615 H1607 0.930 . S
C1615 C1616 1.355 . S
C1615 C1617 1.415 . S
C1616 C1615 1.355 . S
C1616 C1618 1.419 . S
C1617 C1612 1.425 . S
C1617 C1614 1.409 . S
C1617 C1615 1.415 . S
C1618 H1608 0.930 . S
C1618 C1616 1.419 . S
C1618 C1619 1.362 . S
C1619 H1609 0.930 . S
C1619 C1612 1.409 . S
C1619 C1618 1.362 . S
C475 C65 1.510 . S
C480 C0 1.496 . S
C491 C39 1.537 . S
C496 C13 1.534 . S
C507 C26 1.497 . S
C512 C52 1.518 . S
C523 C78 1.506 . S
C528 C143 1.497 . S
C539 C91 1.539 . S
C544 C117 1.520 . S
C555 C130 1.526 . S
C560 C104 1.501 . S
C571 C156 1.503 . S
C576 C221 1.528 . S
C587 C169 1.498 . S
C592 C195 1.504 . S
C603 C182 1.538 . S
C608 C208 1.531 . S
C619 C299 1.524 . S
C624 C234 1.500 . S
C635 C247 1.523 . S
C640 C273 1.500 . S
C651 C286 1.512 . S
C656 C260 1.535 . S
C667 C377 1.496 . S
C672 C312 1.511 . S
C683 C351 1.508 . S
C688 C325 1.533 . S
C699 C364 1.529 . S
C704 C338 1.504 . S
C715 C390 1.523 . S
C720 C455 1.500 . S
C731 C403 1.537 . S
C736 C429 1.534 . S
C747 C416 1.497 . S
C752 C442 1.518 . S
C763 C73 1.283 . S
C768 C8 1.214 . S
C779 C21 1.282 . S
C784 C47 1.212 . S
C795 C60 1.277 . S
C800 C34 1.248 . S
C811 C86 1.206 . S
C816 C151 1.278 . S
C827 C99 1.202 . S
C832 C125 1.272 . S
C843 C138 1.253 . S
C848 C112 1.203 . S
C859 C164 1.201 . S
C864 C229 1.264 . S
C875 C203 1.247 . S
C880 C177 1.277 . S
C891 C216 1.242 . S
C896 C190 1.280 . S
C907 C242 1.273 . S
C912 C307 1.253 . S
C923 C255 1.262 . S
C928 C281 1.201 . S
C939 C294 1.204 . S
C944 C268 1.248 . S
C955 C385 1.284 . S
C960 C320 1.219 . S
C971 C333 1.215 . S
C976 C359 1.230 . S
C987 C346 1.217 . S
C992 C372 1.284 . S
C1003 C463 1.258 . S
C1008 C398 1.270 . S
C1019 C437 1.211 . S
C1024 C411 1.235 . S
C1035 C450 1.216 . S
C1040 C424 1.229 . S
C1051 C213 1.577 . S
C1056 C5 1.558 . S
C1067 C226 1.530 . S
C1072 C18 1.574 . S
C1083 C200 1.527 . S
C1088 C31 1.567 . S
C1099 C44 1.580 . S
C1104 C343 1.545 . S
C1115 C57 1.577 . S
C1120 C317 1.534 . S
C1131 C70 1.561 . S
C1136 C330 1.575 . S
C1147 C83 1.527 . S
C1152 C447 1.561 . S
C1163 C96 1.541 . S
C1168 C460 1.537 . S
C1179 C109 1.527 . S
C1184 C434 1.560 . S
C1195 C122 1.571 . S
C1200 C265 1.566 . S
C1211 C239 1.577 . S
C1216 C135 1.556 . S
C1227 C252 1.552 . S
C1232 C148 1.529 . S
C1243 C369 1.546 . S
C1248 C161 1.533 . S
C1259 C174 1.558 . S
C1264 C382 1.528 . S
C1275 C187 1.527 . S
C1280 C356 1.565 . S
C1291 C278 1.577 . S
C1296 C421 1.533 . S
C1307 C291 1.527 . S
C1312 C395 1.560 . S
C1323 C408 1.579 . S
C1328 C304 1.552 . S
C1339 C10 1.339 . S
C1344 C140 1.305 . S
C1355 C153 1.331 . S
C1360 C23 1.313 . S
C1371 C127 1.329 . S
C1376 C36 1.315 . S
C1387 C49 1.304 . S
C1392 C114 1.339 . S
C1403 C62 1.316 . S
C1408 C88 1.328 . S
C1419 C75 1.326 . S
C1424 C101 1.318 . S
C1435 C166 1.317 . S
C1440 C296 1.327 . S
C1451 C309 1.328 . S
C1456 C179 1.316 . S
C1467 C283 1.337 . S
C1472 C192 1.306 . S
C1483 C205 1.336 . S
C1488 C270 1.307 . S
C1499 C218 1.315 . S
C1504 C244 1.329 . S
C1515 C257 1.307 . S
C1520 C231 1.336 . S
C1531 C322 1.304 . S
C1536 C452 1.339 . S
C1547 C465 1.339 . S
C1552 C335 1.305 . S
C1563 C348 1.313 . S
C1568 C439 1.331 . S
C1579 C361 1.339 . S
C1584 C426 1.304 . S
C1595 C400 1.325 . S
C1600 C374 1.319 . S
C1611 C387 1.305 . S
C1616 C413 1.339 . S
