# Generated by pormake.
# Topology wfw, (7)-cn, num edge types: 1
# Building blocks:
#     Node 0, Type 0, BuildingBlock: HICVOG_clean_sbu_0, # of connection points: 7
#     Node 1, Type 0, BuildingBlock: HICVOG_clean_sbu_0, # of connection points: 7
#     Node 2, Type 0, BuildingBlock: HICVOG_clean_sbu_0, # of connection points: 7
#     Node 3, Type 0, BuildingBlock: HICVOG_clean_sbu_0, # of connection points: 7
#     Node 4, Type 0, BuildingBlock: HICVOG_clean_sbu_0, # of connection points: 7
#     Node 5, Type 0, BuildingBlock: HICVOG_clean_sbu_0, # of connection points: 7
#     Node 6, Type 0, BuildingBlock: HICVOG_clean_sbu_0, # of connection points: 7
#     Node 7, Type 0, BuildingBlock: HICVOG_clean_sbu_0, # of connection points: 7
#     Node 8, Type 0, BuildingBlock: HICVOG_clean_sbu_0, # of connection points: 7
#     Node 9, Type 0, BuildingBlock: HICVOG_clean_sbu_0, # of connection points: 7
#     Node 10, Type 0, BuildingBlock: HICVOG_clean_sbu_0, # of connection points: 7
#     Node 11, Type 0, BuildingBlock: HICVOG_clean_sbu_0, # of connection points: 7
#     Node 12, Type 0, BuildingBlock: HICVOG_clean_sbu_0, # of connection points: 7
#     Node 13, Type 0, BuildingBlock: HICVOG_clean_sbu_0, # of connection points: 7
#     Node 14, Type 0, BuildingBlock: HICVOG_clean_sbu_0, # of connection points: 7
#     Node 15, Type 0, BuildingBlock: HICVOG_clean_sbu_0, # of connection points: 7
#     Edge 16, Type (0, 0), BuildingBlock: CIFDUS_clean_linker_0, # of connection points: 2
#     Edge 17, Type (0, 0), BuildingBlock: CIFDUS_clean_linker_0, # of connection points: 2
#     Edge 18, Type (0, 0), BuildingBlock: CIFDUS_clean_linker_0, # of connection points: 2
#     Edge 19, Type (0, 0), BuildingBlock: CIFDUS_clean_linker_0, # of connection points: 2
#     Edge 20, Type (0, 0), BuildingBlock: CIFDUS_clean_linker_0, # of connection points: 2
#     Edge 21, Type (0, 0), BuildingBlock: CIFDUS_clean_linker_0, # of connection points: 2
#     Edge 22, Type (0, 0), BuildingBlock: CIFDUS_clean_linker_0, # of connection points: 2
#     Edge 23, Type (0, 0), BuildingBlock: CIFDUS_clean_linker_0, # of connection points: 2
#     Edge 24, Type (0, 0), BuildingBlock: CIFDUS_clean_linker_0, # of connection points: 2
#     Edge 25, Type (0, 0), BuildingBlock: CIFDUS_clean_linker_0, # of connection points: 2
#     Edge 26, Type (0, 0), BuildingBlock: CIFDUS_clean_linker_0, # of connection points: 2
#     Edge 27, Type (0, 0), BuildingBlock: CIFDUS_clean_linker_0, # of connection points: 2
#     Edge 28, Type (0, 0), BuildingBlock: CIFDUS_clean_linker_0, # of connection points: 2
#     Edge 29, Type (0, 0), BuildingBlock: CIFDUS_clean_linker_0, # of connection points: 2
#     Edge 30, Type (0, 0), BuildingBlock: CIFDUS_clean_linker_0, # of connection points: 2
#     Edge 31, Type (0, 0), BuildingBlock: CIFDUS_clean_linker_0, # of connection points: 2
#     Edge 32, Type (0, 0), BuildingBlock: CIFDUS_clean_linker_0, # of connection points: 2
#     Edge 33, Type (0, 0), BuildingBlock: CIFDUS_clean_linker_0, # of connection points: 2
#     Edge 34, Type (0, 0), BuildingBlock: CIFDUS_clean_linker_0, # of connection points: 2
#     Edge 35, Type (0, 0), BuildingBlock: CIFDUS_clean_linker_0, # of connection points: 2
#     Edge 36, Type (0, 0), BuildingBlock: CIFDUS_clean_linker_0, # of connection points: 2
#     Edge 37, Type (0, 0), BuildingBlock: CIFDUS_clean_linker_0, # of connection points: 2
#     Edge 38, Type (0, 0), BuildingBlock: CIFDUS_clean_linker_0, # of connection points: 2
#     Edge 39, Type (0, 0), BuildingBlock: CIFDUS_clean_linker_0, # of connection points: 2
#     Edge 40, Type (0, 0), BuildingBlock: CIFDUS_clean_linker_0, # of connection points: 2
#     Edge 41, Type (0, 0), BuildingBlock: CIFDUS_clean_linker_0, # of connection points: 2
#     Edge 42, Type (0, 0), BuildingBlock: CIFDUS_clean_linker_0, # of connection points: 2
#     Edge 43, Type (0, 0), BuildingBlock: CIFDUS_clean_linker_0, # of connection points: 2
#     Edge 44, Type (0, 0), BuildingBlock: CIFDUS_clean_linker_0, # of connection points: 2
#     Edge 45, Type (0, 0), BuildingBlock: CIFDUS_clean_linker_0, # of connection points: 2
#     Edge 46, Type (0, 0), BuildingBlock: CIFDUS_clean_linker_0, # of connection points: 2
#     Edge 47, Type (0, 0), BuildingBlock: CIFDUS_clean_linker_0, # of connection points: 2
#     Edge 48, Type (0, 0), BuildingBlock: CIFDUS_clean_linker_0, # of connection points: 2
#     Edge 49, Type (0, 0), BuildingBlock: CIFDUS_clean_linker_0, # of connection points: 2
#     Edge 50, Type (0, 0), BuildingBlock: CIFDUS_clean_linker_0, # of connection points: 2
#     Edge 51, Type (0, 0), BuildingBlock: CIFDUS_clean_linker_0, # of connection points: 2
#     Edge 52, Type (0, 0), BuildingBlock: CIFDUS_clean_linker_0, # of connection points: 2
#     Edge 53, Type (0, 0), BuildingBlock: CIFDUS_clean_linker_0, # of connection points: 2
#     Edge 54, Type (0, 0), BuildingBlock: CIFDUS_clean_linker_0, # of connection points: 2
#     Edge 55, Type (0, 0), BuildingBlock: CIFDUS_clean_linker_0, # of connection points: 2
#     Edge 56, Type (0, 0), BuildingBlock: CIFDUS_clean_linker_0, # of connection points: 2
#     Edge 57, Type (0, 0), BuildingBlock: CIFDUS_clean_linker_0, # of connection points: 2
#     Edge 58, Type (0, 0), BuildingBlock: CIFDUS_clean_linker_0, # of connection points: 2
#     Edge 59, Type (0, 0), BuildingBlock: CIFDUS_clean_linker_0, # of connection points: 2
#     Edge 60, Type (0, 0), BuildingBlock: CIFDUS_clean_linker_0, # of connection points: 2
#     Edge 61, Type (0, 0), BuildingBlock: CIFDUS_clean_linker_0, # of connection points: 2
#     Edge 62, Type (0, 0), BuildingBlock: CIFDUS_clean_linker_0, # of connection points: 2
#     Edge 63, Type (0, 0), BuildingBlock: CIFDUS_clean_linker_0, # of connection points: 2
#     Edge 64, Type (0, 0), BuildingBlock: CIFDUS_clean_linker_0, # of connection points: 2
#     Edge 65, Type (0, 0), BuildingBlock: CIFDUS_clean_linker_0, # of connection points: 2
#     Edge 66, Type (0, 0), BuildingBlock: CIFDUS_clean_linker_0, # of connection points: 2
#     Edge 67, Type (0, 0), BuildingBlock: CIFDUS_clean_linker_0, # of connection points: 2
#     Edge 68, Type (0, 0), BuildingBlock: CIFDUS_clean_linker_0, # of connection points: 2
#     Edge 69, Type (0, 0), BuildingBlock: CIFDUS_clean_linker_0, # of connection points: 2
#     Edge 70, Type (0, 0), BuildingBlock: CIFDUS_clean_linker_0, # of connection points: 2
#     Edge 71, Type (0, 0), BuildingBlock: CIFDUS_clean_linker_0, # of connection points: 2
# Relax obj value: 0.100
# Max RMSD: 0.170
# Mean RMSD: 0.170
data_MOF--net-wfw--node1-HICVOG_clean_sbu_0--edge1-CIFDUS_clean_linker_0
_symmetry_space_group_name_H-M    P1
_symmetry_Int_Tables_number       1
_symmetry_cell_setting            triclinic
loop_
_symmetry_equiv_pos_as_xyz
'x, y, z'
_cell_length_a     39.862913
_cell_length_b     40.017201
_cell_length_c     31.587707
_cell_angle_alpha  90.069842
_cell_angle_beta   90.119979
_cell_angle_gamma 89.898499
loop_
_atom_site_label
_atom_site_type_symbol
_atom_site_fract_x
_atom_site_fract_y
_atom_site_fract_z
_atom_type_partial_charge
Zn0 Zn 0.57157 0.2799 0.41023 0.0
C1 C 0.59527 0.18856 0.36163 0.0
N2 N 0.61672 0.18968 0.39434 0.0
C3 C 0.60805 0.2175 0.41482 0.0
N4 N 0.5823 0.23347 0.39582 0.0
N5 N 0.5736 0.21501 0.36233 0.0
C6 C 0.55078 0.2425 0.25149 0.0
O7 O 0.56203 0.26554 0.27746 0.0
O8 O 0.56412 0.28553 0.47378 0.0
Zn9 Zn 0.53056 0.21921 0.3316 0.0
N10 N 0.60997 0.30617 0.39315 0.0
C11 C 0.64078 0.33083 0.33678 0.0
C12 C 0.6144 0.31097 0.35097 0.0
C13 C 0.63136 0.31991 0.42188 0.0
N14 N 0.66149 0.34549 0.36543 0.0
C15 C 0.65769 0.34036 0.40771 0.0
O16 O 0.50702 0.2636 0.33921 0.0
C17 C 0.50775 0.29241 0.35621 0.0
O18 O 0.53088 0.30071 0.3819 0.0
H19 H 0.59723 0.29981 0.32866 0.0
H20 H 0.62708 0.31606 0.45536 0.0
C21 C 0.47697 0.16575 0.33851 0.0
C22 C 0.45755 0.14443 0.36444 0.0
C23 C 0.48525 0.16564 0.42527 0.0
C24 C 0.5043 0.18655 0.39989 0.0
N25 N 0.50027 0.18621 0.35712 0.0
N26 N 0.46254 0.14506 0.40702 0.0
H27 H 0.47379 0.16584 0.30448 0.0
C28 C 0.53738 0.27367 0.48966 0.0
O29 O 0.51627 0.25781 0.4648 0.0
O30 O 0.53598 0.2172 0.26714 0.0
H31 H 0.52224 0.20322 0.41434 0.0
H32 H 0.64438 0.33508 0.30328 0.0
H33 H 0.48847 0.16574 0.45929 0.0
Zn34 Zn 0.31875 0.52725 0.31279 0.0
C35 C 0.35004 0.58654 0.40756 0.0
N36 N 0.37792 0.58964 0.38463 0.0
C37 C 0.3699 0.5755 0.34735 0.0
N38 N 0.338 0.56323 0.34802 0.0
N39 N 0.32541 0.57147 0.38556 0.0
C40 C 0.24993 0.55145 0.4851 0.0
O41 O 0.22136 0.54993 0.46441 0.0
O42 O 0.32534 0.53316 0.24945 0.0
Zn43 Zn 0.27896 0.5744 0.40395 0.0
N44 N 0.33539 0.48451 0.33512 0.0
C45 C 0.31995 0.44079 0.38239 0.0
C46 C 0.31369 0.47167 0.36403 0.0
C47 C 0.36444 0.46795 0.32523 0.0
N48 N 0.34821 0.42399 0.37196 0.0
C49 C 0.37095 0.43656 0.3442 0.0
O50 O 0.24549 0.54766 0.37093 0.0
C51 C 0.24266 0.52927 0.33832 0.0
O52 O 0.26785 0.52169 0.31559 0.0
H53 H 0.29145 0.48535 0.37293 0.0
H54 H 0.38181 0.47868 0.30277 0.0
C55 C 0.23609 0.6303 0.42051 0.0
C56 C 0.2261 0.66397 0.41999 0.0
C57 C 0.27344 0.67699 0.37795 0.0
C58 C 0.28303 0.64339 0.37812 0.0
N59 N 0.26464 0.62082 0.40025 0.0
N60 N 0.24536 0.68659 0.39911 0.0
H61 H 0.22163 0.61192 0.43757 0.0
C62 C 0.3123 0.55934 0.23342 0.0
O63 O 0.29977 0.58205 0.25902 0.0
O64 O 0.27641 0.56036 0.46564 0.0
H65 H 0.30525 0.63549 0.36125 0.0
H66 H 0.30256 0.43027 0.40497 0.0
H67 H 0.28824 0.69531 0.36119 0.0
Zn68 Zn 0.9851 0.26868 0.40288 0.0
C69 C 0.94837 0.34926 0.3417 0.0
N70 N 0.92566 0.34607 0.3728 0.0
C71 C 0.93834 0.322 0.39714 0.0
N72 N 0.9676 0.31043 0.3819 0.0
N73 N 0.97465 0.32761 0.34703 0.0
C74 C 1.00799 0.28973 0.24852 0.0
O75 O 1.00334 0.26889 0.28002 0.0
O76 O 0.99164 0.26975 0.46613 0.0
Zn77 Zn 1.01967 0.32847 0.32023 0.0
N78 N 0.95166 0.23506 0.39028 0.0
C79 C 0.9255 0.197 0.34275 0.0
C80 C 0.95016 0.22079 0.35132 0.0
C81 C 0.9293 0.22681 0.42095 0.0
N82 N 0.90353 0.18826 0.37365 0.0
C83 C 0.90452 0.20262 0.41275 0.0
O84 O 0.05322 0.29113 0.33644 0.0
C85 C 0.05364 0.26387 0.35726 0.0
O86 O 0.02923 0.25472 0.38009 0.0
H87 H 0.96801 0.22776 0.32723 0.0
H88 H 0.93164 0.23841 0.45171 0.0
C89 C 0.06818 0.38578 0.31886 0.0
C90 C 0.07972 0.41698 0.33446 0.0
C91 C 0.0341 0.41826 0.38273 0.0
C92 C 0.02339 0.38741 0.36812 0.0
N93 N 0.03989 0.37186 0.3359 0.0
N94 N 0.06184 0.43213 0.36577 0.0
H95 H 0.08134 0.37279 0.29385 0.0
C96 C 0.99969 0.24399 0.48746 0.0
O97 O 1.00413 0.21538 0.46779 0.0
O98 O 1.01475 0.32011 0.25695 0.0
H99 H 1.00209 0.37596 0.38307 0.0
H100 H 0.92404 0.18529 0.31192 0.0
H101 H 1.02084 0.43088 0.40797 0.0
Zn102 Zn 0.27214 0.97388 0.40223 0.0
C103 C 0.18791 0.95157 0.33672 0.0
N104 N 0.18369 0.92989 0.3686 0.0
C105 C 0.2085 0.93807 0.39534 0.0
N106 N 0.22749 0.96339 0.38054 0.0
N107 N 0.21433 0.97236 0.34356 0.0
C108 C 0.245 1.00489 0.23427 0.0
O109 O 0.27167 0.99954 0.25781 0.0
O110 O 0.27332 0.98092 0.46599 0.0
Zn111 Zn 0.22 1.01669 0.31695 0.0
N112 N 0.30011 0.9353 0.39209 0.0
C113 C 0.31316 0.8847 0.35608 0.0
C114 C 0.29308 0.91309 0.36076 0.0
C115 C 0.3266 0.93059 0.41851 0.0
N116 N 0.33939 0.87971 0.38294 0.0
C117 C 0.34693 0.9021 0.41401 0.0
O118 O 0.26478 0.04017 0.32794 0.0
C119 C 0.29185 0.03676 0.34901 0.0
O120 O 0.29577 1.01309 0.3754 0.0
H121 H 0.27188 0.9172 0.33996 0.0
H122 H 0.33102 0.94848 0.44361 0.0
C123 C 0.17741 0.07734 0.32654 0.0
C124 C 0.15453 0.09724 0.34969 0.0
C125 C 0.14713 0.05282 0.39845 0.0
C126 C 0.17005 0.03352 0.37615 0.0
N127 N 0.18491 0.04585 0.34068 0.0
N128 N 0.14014 0.08413 0.38496 0.0
H129 H 0.18993 0.08713 0.29885 0.0
C130 C 0.26217 1.00653 0.48522 0.0
O131 O 0.24688 0.03003 0.46346 0.0
O132 O 0.21747 1.01252 0.25245 0.0
H133 H 0.1764 1.00911 0.38802 0.0
H134 H 0.30776 0.8666 0.33154 0.0
H135 H 0.13537 0.04322 0.42676 0.0
Zn136 Zn 1.02111 0.82503 0.18432 0.0
C137 C 0.08134 0.85648 0.09324 0.0
N138 N 0.08792 0.88275 0.11793 0.0
C139 C 0.07445 0.8741 0.15543 0.0
N140 N 0.05973 0.84332 0.15322 0.0
N141 N 0.06531 0.83234 0.1143 0.0
C142 C 0.04573 0.75966 0.01315 0.0
O143 O 0.04476 0.7317 0.03488 0.0
O144 O 0.0224 0.83611 0.24628 0.0
Zn145 Zn 0.06596 0.78741 0.09379 0.0
N146 N 0.98136 0.84231 0.15614 0.0
C147 C 0.94485 0.83205 0.09782 0.0
C148 C 0.9737 0.82455 0.1207 0.0
C149 C 0.96173 0.8684 0.16895 0.0
N150 N 0.92489 0.85742 0.11092 0.0
C151 C 0.93249 0.87605 0.14567 0.0
O152 O 0.0374 0.75463 0.1244 0.0
C153 C 1.01942 0.7501 0.15698 0.0
O154 O 1.01321 0.77395 0.18257 0.0
H155 H 0.98985 0.80442 0.11045 0.0
H156 H 0.96837 0.88244 0.19705 0.0
C157 C 0.12611 0.75701 0.06438 0.0
C158 C 0.15781 0.74211 0.06825 0.0
C159 C 0.15968 0.7586 0.14031 0.0
C160 C 0.12781 0.7729 0.13642 0.0
N161 N 0.11153 0.77142 0.09863 0.0
N162 N 0.17373 0.74302 0.10638 0.0
H163 H 0.11252 0.75579 0.03482 0.0
C164 C 0.04181 0.8176 0.26799 0.0
O165 O 0.05993 0.79492 0.2484 0.0
O166 O 0.05312 0.78674 0.03208 0.0
H167 H 0.11583 0.78451 0.16342 0.0
H168 H 0.93833 0.81781 0.06986 0.0
H169 H 0.17282 0.75922 0.17029 0.0
Zn170 Zn 0.7105 0.02694 0.18964 0.0
C171 C 0.70257 0.10802 0.1158 0.0
N172 N 0.67867 0.11675 0.14361 0.0
C173 C 0.68245 0.09389 0.17433 0.0
N174 N 0.70763 0.07212 0.16573 0.0
N175 N 0.72058 0.08138 0.12892 0.0
C176 C 0.75476 0.04222 0.02103 0.0
O177 O 0.73716 1.01905 0.04025 0.0
O178 O 0.70972 0.02884 0.25463 0.0
Zn179 Zn 0.76482 0.06956 0.10699 0.0
N180 N 0.67428 1.00156 0.16245 0.0
C181 C 0.64598 0.99619 0.09621 0.0
C182 C 0.67039 1.01098 0.12132 0.0
C183 C 0.65522 0.97639 0.17908 0.0
N184 N 0.62661 0.97183 0.11279 0.0
C185 C 0.63052 0.96115 0.15334 0.0
O186 O 0.78599 0.02753 0.12999 0.0
C187 C 0.78002 1.00334 0.15485 0.0
O188 O 0.75298 1.00153 0.17596 0.0
H189 H 0.68638 0.02976 0.10771 0.0
H190 H 0.65899 0.96858 0.21153 0.0
C191 C 0.82236 0.10881 0.09773 0.0
C192 C 0.8443 0.13558 0.10481 0.0
C193 C 0.80969 0.15392 0.16128 0.0
C194 C 0.78787 0.12723 0.15393 0.0
N195 N 0.79459 0.10545 0.12199 0.0
N196 N 0.83717 0.15773 0.1363 0.0
H197 H 0.82652 0.09133 0.07209 0.0
C198 C 0.73824 0.03633 0.27051 0.0
O199 O 0.76322 0.04238 0.24458 0.0
O200 O 0.76707 0.0661 0.04256 0.0
H201 H 0.76562 0.12418 0.17306 0.0
H202 H 0.64258 1.00383 0.06364 0.0
H203 H 0.80458 0.17172 0.18626 0.0
Zn204 Zn 0.51573 0.71716 0.18547 0.0
C205 C 0.43724 0.70439 0.10797 0.0
N206 N 0.43223 0.67722 0.13192 0.0
C207 C 0.45276 0.68242 0.16499 0.0
N208 N 0.47029 0.71133 0.16102 0.0
N209 N 0.45959 0.72562 0.12553 0.0
C210 C 0.48631 0.75035 0.02085 0.0
O211 O 0.49683 0.72332 0.04034 0.0
O212 O 0.51459 0.71398 0.25001 0.0
Zn213 Zn 0.46737 0.7712 0.10654 0.0
N214 N 0.54418 0.68269 0.15918 0.0
C215 C 0.54962 0.6498 0.09665 0.0
C216 C 0.53301 0.67406 0.11994 0.0
C217 C 0.57252 0.66828 0.17573 0.0
N218 N 0.57724 0.63512 0.11317 0.0
C219 C 0.58956 0.64349 0.15198 0.0
O220 O 0.50709 0.79439 0.13266 0.0
C221 C 0.53254 0.78996 0.15634 0.0
O222 O 0.53813 0.76218 0.17467 0.0
H223 H 0.51124 0.68597 0.10655 0.0
H224 H 0.5813 0.67559 0.20682 0.0
C225 C 0.41711 0.82165 0.09539 0.0
C226 C 0.38666 0.83796 0.10395 0.0
C227 C 0.38045 0.80539 0.16599 0.0
C228 C 0.41068 0.78907 0.15728 0.0
N229 N 0.42814 0.79719 0.12183 0.0
N230 N 0.36892 0.8292 0.13893 0.0
H231 H 0.43127 0.82743 0.06713 0.0
C232 C 0.50754 0.74136 0.26875 0.0
O233 O 0.50028 0.76774 0.24576 0.0
O234 O 0.47293 0.77367 0.04237 0.0
H235 H 0.41971 0.76948 0.17796 0.0
H236 H 0.5407 0.64268 0.06555 0.0
H237 H 0.36603 0.79885 0.19373 0.0
Zn238 Zn 0.82585 0.51947 0.18495 0.0
C239 C 0.85021 0.44413 0.10488 0.0
N240 N 0.87624 0.44028 0.1313 0.0
C241 C 0.86813 0.46021 0.16408 0.0
N242 N 0.83849 0.47628 0.15746 0.0
N243 N 0.82687 0.46511 0.12067 0.0
C244 C 0.80447 0.48704 0.01025 0.0
O245 O 0.83334 0.49607 0.02673 0.0
O246 O 0.83418 0.51768 0.24877 0.0
Zn247 Zn 0.78212 0.47027 0.09804 0.0
N248 N 0.85389 0.55307 0.1576 0.0
C249 C 0.87214 0.57059 0.08947 0.0
C250 C 0.85243 0.55019 0.11478 0.0
C251 C 0.87381 0.57665 0.17643 0.0
N252 N 0.8924 0.59351 0.10795 0.0
C253 C 0.89386 0.59749 0.15073 0.0
O254 O 0.75508 0.50624 0.12486 0.0
C255 C 0.75257 0.52886 0.15288 0.0
O256 O 0.77697 0.53578 0.17745 0.0
H257 H 0.83613 0.53183 0.10044 0.0
H258 H 0.87459 0.57866 0.21059 0.0
C259 C 0.74107 0.41454 0.07737 0.0
C260 C 0.72164 0.386 0.08523 0.0
C261 C 0.73464 0.39049 0.15831 0.0
C262 C 0.75422 0.41869 0.15021 0.0
N263 N 0.75695 0.43015 0.1099 0.0
N264 N 0.71864 0.37491 0.12576 0.0
H265 H 0.74317 0.42461 0.04573 0.0
C266 C 0.80948 0.50977 0.27231 0.0
O267 O 0.78039 0.50344 0.25446 0.0
O268 O 0.78125 0.47662 0.03432 0.0
H269 H 0.76687 0.43157 0.17578 0.0
H270 H 0.87141 0.56821 0.05536 0.0
H271 H 0.732 0.38118 0.19027 0.0
Zn272 Zn 0.47939 0.77236 0.59949 0.0
C273 C 0.47191 0.85668 0.66866 0.0
N274 N 0.45716 0.86895 0.63374 0.0
C275 C 0.461 0.84438 0.60526 0.0
N276 N 0.47715 0.81769 0.62209 0.0
N277 N 0.48529 0.82598 0.66155 0.0
C278 C 0.51139 0.79077 0.77486 0.0
O279 O 0.50292 0.76443 0.75244 0.0
O280 O 0.48803 0.77028 0.53603 0.0
Zn281 Zn 0.52667 0.81097 0.69121 0.0
N282 N 0.43732 0.74971 0.61088 0.0
C283 C 0.39433 0.73191 0.65794 0.0
C284 C 0.42378 0.74986 0.65033 0.0
C285 C 0.42265 0.73238 0.57885 0.0
N286 N 0.37946 0.71484 0.62571 0.0
C287 C 0.39271 0.71498 0.58605 0.0
O288 O 0.54121 0.76217 0.68239 0.0
C289 C 0.53435 0.73877 0.65652 0.0
O290 O 0.51294 0.74271 0.62717 0.0
H291 H 0.43599 0.76344 0.67566 0.0
H292 H 0.43434 0.73214 0.54797 0.0
C293 C 0.58408 0.85973 0.68466 0.0
C294 C 0.60716 0.87716 0.65892 0.0
C295 C 0.58693 0.8479 0.59866 0.0
C296 C 0.56426 0.83082 0.62392 0.0
N297 N 0.56281 0.83718 0.66615 0.0
N298 N 0.6076 0.87069 0.61662 0.0
H299 H 0.58256 0.86456 0.71832 0.0
C300 C 0.50305 0.79195 0.51368 0.0
O301 O 0.51484 0.81906 0.53184 0.0
O302 O 0.52244 0.81649 0.75557 0.0
H303 H 0.5475 0.81266 0.60996 0.0
H304 H 0.38338 0.73156 0.68925 0.0
H305 H 0.58801 0.84323 0.56495 0.0
Zn306 Zn 0.77613 0.46063 0.60742 0.0
C307 C 0.6929 0.42839 0.66802 0.0
N308 N 0.69722 0.40383 0.63956 0.0
C309 C 0.72284 0.41441 0.61623 0.0
N310 N 0.73417 0.44431 0.62936 0.0
N311 N 0.71548 0.45368 0.66215 0.0
C312 C 0.74688 0.48904 0.76747 0.0
O313 O 0.77248 0.4837 0.74221 0.0
O314 O 0.77316 0.46876 0.54407 0.0
Zn315 Zn 0.71614 0.49917 0.68685 0.0
N316 N 0.80811 0.42548 0.61808 0.0
C317 C 0.84443 0.39716 0.66594 0.0
C318 C 0.82136 0.42256 0.65755 0.0
C319 C 0.81642 0.4037 0.58679 0.0
N320 N 0.85341 0.37584 0.63441 0.0
C321 C 0.8398 0.3782 0.59495 0.0
O322 O 0.75693 0.52859 0.67348 0.0
C323 C 0.78568 0.52711 0.65598 0.0
O324 O 0.79457 0.50236 0.63348 0.0
H325 H 0.81408 0.43991 0.68218 0.0
H326 H 0.80561 0.4069 0.55561 0.0
C327 C 0.66493 0.55309 0.6793 0.0
C328 C 0.63595 0.56731 0.66053 0.0
C329 C 0.63104 0.51959 0.61606 0.0
C330 C 0.65965 0.50596 0.63415 0.0
N331 N 0.67593 0.52245 0.6658 0.0
N332 N 0.62001 0.54971 0.62956 0.0
H333 H 0.67845 0.56594 0.70416 0.0
C334 C 0.79865 0.47682 0.52209 0.0
O335 O 0.82788 0.48001 0.54095 0.0
O336 O 0.71843 0.49594 0.75125 0.0
H337 H 0.66884 0.48238 0.62244 0.0
H338 H 0.85541 0.39461 0.69712 0.0
H339 H 0.61784 0.50652 0.5911 0.0
Zn340 Zn 0.06724 0.7681 0.60179 0.0
C341 C 0.08188 0.67419 0.64894 0.0
N342 N 0.1018 0.6728 0.61478 0.0
C343 C 0.09719 0.70239 0.59636 0.0
N344 N 0.07558 0.72183 0.61806 0.0
N345 N 0.06463 0.70369 0.65049 0.0
C346 C 0.03906 0.72783 0.76395 0.0
O347 O 0.05112 0.75369 0.74344 0.0
O348 O 0.05969 0.76795 0.53892 0.0
Zn349 Zn 0.02221 0.71274 0.68018 0.0
N350 N 0.10738 0.79426 0.61217 0.0
C351 C 0.14489 0.82144 0.65973 0.0
C352 C 0.11697 0.80112 0.65254 0.0
C353 C 0.12474 0.8067 0.57871 0.0
N354 N 0.16211 0.83405 0.62624 0.0
C355 C 0.15298 0.82692 0.58568 0.0
O356 O 1.00427 0.76037 0.67659 0.0
C357 C 1.007 0.78849 0.65817 0.0
O358 O 0.02906 0.7933 0.62985 0.0
H359 H 0.10278 0.79122 0.67883 0.0
H360 H 0.11641 0.80117 0.5469 0.0
C361 C 0.96593 0.66412 0.66849 0.0
C362 C 0.93907 0.65207 0.64355 0.0
C363 C 0.95679 0.68641 0.58668 0.0
C364 C 0.98309 0.69841 0.6113 0.0
N365 N 0.98709 0.68743 0.6517 0.0
N366 N 0.93535 0.66377 0.6034 0.0
H367 H 0.96926 0.65593 0.70087 0.0
C368 C 0.04995 0.79354 0.51852 0.0
O369 O 0.04249 0.82101 0.53933 0.0
O370 O 0.02535 0.70438 0.74302 0.0
H371 H 0.99988 0.71713 0.59872 0.0
H372 H 0.15267 0.82736 0.69169 0.0
H373 H 0.95318 0.69526 0.55465 0.0
Zn374 Zn 0.82179 0.02805 0.6908 0.0
C375 C 0.84202 0.09877 0.60237 0.0
N376 N 0.86775 0.10702 0.62723 0.0
C377 C 0.86307 0.0882 0.66192 0.0
N378 N 0.83524 0.06844 0.65809 0.0
N379 N 0.82193 0.07607 0.62055 0.0
C380 C 0.7418 0.06029 0.52298 0.0
O381 O 0.71632 0.06128 0.54926 0.0
O382 O 0.8268 0.0338 0.75525 0.0
Zn383 Zn 0.77593 0.07322 0.60133 0.0
N384 N 0.84719 0.99076 0.66598 0.0
C385 C 0.84704 0.95874 0.60231 0.0
C386 C 0.83446 0.98476 0.62673 0.0
C387 C 0.87292 0.97167 0.68175 0.0
N388 N 0.87224 0.93963 0.61783 0.0
C389 C 0.88576 0.94517 0.65674 0.0
O390 O 0.74859 0.03848 0.62997 0.0
C391 C 0.74743 1.017 0.65944 0.0
O392 O 0.77265 1.01182 0.68344 0.0
H393 H 0.81433 1.00017 0.61456 0.0
H394 H 0.88298 0.97678 0.71293 0.0
C395 C 0.74435 0.13661 0.58299 0.0
C396 C 0.72684 0.16603 0.59347 0.0
C397 C 0.73346 0.15318 0.6663 0.0
C398 C 0.75034 0.12375 0.65571 0.0
N399 N 0.75509 0.11585 0.61432 0.0
N400 N 0.72167 0.17335 0.63504 0.0
H401 H 0.74817 0.12956 0.55029 0.0
C402 C 0.80064 0.04402 0.77462 0.0
O403 O 0.77393 0.05194 0.75239 0.0
O404 O 0.77128 0.06469 0.53771 0.0
H405 H 0.75917 0.10701 0.68021 0.0
H406 H 0.83687 0.95375 0.57116 0.0
H407 H 0.7292 0.15962 0.69912 0.0
Zn408 Zn 0.0239 0.21695 0.82567 0.0
C409 C 0.95728 0.18507 0.91097 0.0
N410 N 0.95351 0.15952 0.88375 0.0
C411 C 0.9689 0.17036 0.84856 0.0
N412 N 0.98267 0.20106 0.85461 0.0
N413 N 0.97386 0.21091 0.89314 0.0
C414 C 0.99684 0.24708 1.00167 0.0
O415 O 1.0083 0.21726 0.9919 0.0
O416 O 0.02347 0.20542 0.76298 0.0
Zn417 Zn 0.97367 0.25746 0.91138 0.0
N418 N 0.06216 0.197 0.85482 0.0
C419 C 0.09603 0.20319 0.91649 0.0
C420 C 0.06772 0.21165 0.89303 0.0
C421 C 0.08359 0.17323 0.83943 0.0
N422 N 0.11771 0.18012 0.90102 0.0
C423 C 0.11239 0.16463 0.86323 0.0
O424 O 1.00606 0.28698 0.8826 0.0
C425 C 0.02722 0.29108 0.85325 0.0
O426 O 0.03515 0.26711 0.82876 0.0
H427 H 0.05049 0.2304 0.90474 0.0
H428 H 0.07882 0.16193 0.80886 0.0
C429 C 0.92395 0.30668 0.92049 0.0
C430 C 0.89202 0.32126 0.91778 0.0
C431 C 0.87495 0.27759 0.87172 0.0
C432 C 0.90676 0.26301 0.87485 0.0
N433 N 0.93043 0.2777 0.89964 0.0
N434 N 0.86814 0.30608 0.89367 0.0
H435 H 0.94317 0.31739 0.94058 0.0
C436 C 1.01303 0.22879 0.73895 0.0
O437 O 1.00226 0.25667 0.75623 0.0
O438 O 0.98268 0.26485 0.97357 0.0
H439 H 0.91226 0.23982 0.85863 0.0
H440 H 0.10088 0.21501 0.9467 0.0
H441 H 0.85564 0.26601 0.85262 0.0
Zn442 Zn 0.33178 1.00511 0.81842 0.0
C443 C 0.32719 0.92634 0.8995 0.0
N444 N 0.35125 0.91315 0.87548 0.0
C445 C 0.35366 0.93466 0.843 0.0
N446 N 0.33209 0.96105 0.84764 0.0
N447 N 0.31525 0.95497 0.88313 0.0
C448 C 0.29321 0.98951 0.98896 0.0
O449 O 0.32028 1.0011 0.97045 0.0
O450 O 0.32904 0.99871 0.75371 0.0
Zn451 Zn 0.2724 0.97129 0.90234 0.0
N452 N 0.37293 0.02885 0.83596 0.0
C453 C 0.42308 0.02609 0.87713 0.0
C454 C 0.39454 1.01106 0.86072 0.0
C455 C 0.37885 0.06187 0.82755 0.0
N456 N 0.42864 0.05881 0.86942 0.0
C457 C 0.40739 0.07745 0.8453 0.0
O458 O 0.25629 1.01413 0.8775 0.0
C459 C 0.26489 0.0375 0.85276 0.0
O460 O 0.29239 0.03669 0.83226 0.0
H461 H 0.38965 0.98543 0.86858 0.0
H462 H 0.36097 0.07604 0.80897 0.0
C463 C 0.22579 0.91927 0.91752 0.0
C464 C 0.20186 0.89498 0.907 0.0
C465 C 0.20809 0.90887 0.83448 0.0
C466 C 0.23202 0.93293 0.84517 0.0
N467 N 0.24015 0.93775 0.88651 0.0
N468 N 0.19332 0.89067 0.86561 0.0
H469 H 0.23245 0.92406 0.95017 0.0
C470 C 0.30167 1.00412 0.73386 0.0
O471 O 0.27496 1.01312 0.7553 0.0
O472 O 0.2705 0.976 0.96649 0.0
H473 H 0.24385 0.94783 0.82087 0.0
H474 H 0.44035 1.01205 0.89672 0.0
H475 H 0.2011 0.9049 0.80176 0.0
Zn476 Zn 0.56132 0.27814 0.9183 0.0
C477 C 0.57783 0.35857 0.84646 0.0
N478 N 0.59916 0.36591 0.87812 0.0
C479 C 0.59189 0.34281 0.90734 0.0
N480 N 0.56764 0.32186 0.89421 0.0
N481 N 0.55835 0.33178 0.85581 0.0
C482 C 0.516 0.30133 0.73935 0.0
O483 O 0.51052 0.27218 0.757 0.0
O484 O 0.55577 0.27688 0.98245 0.0
Zn485 Zn 0.51514 0.32104 0.82767 0.0
N486 N 0.60101 0.2526 0.90471 0.0
C487 C 0.63501 0.22382 0.85468 0.0
C488 C 0.60732 0.24396 0.8639 0.0
C489 C 0.62169 0.24269 0.93656 0.0
N490 N 0.65497 0.21282 0.88674 0.0
C491 C 0.6492 0.22191 0.92764 0.0
O492 O 0.49519 0.27453 0.83909 0.0
C493 C 0.4991 0.25184 0.86688 0.0
O494 O 0.522 0.25372 0.89474 0.0
H495 H 0.59069 0.25227 0.83892 0.0
H496 H 0.61585 0.24975 0.96875 0.0
C497 C 0.46015 0.37195 0.83476 0.0
C498 C 0.44013 0.39315 0.86015 0.0
C499 C 0.46669 0.37168 0.92174 0.0
C500 C 0.48618 0.35074 0.89681 0.0
N501 N 0.48318 0.35158 0.85393 0.0
N502 N 0.44434 0.39237 0.90291 0.0
H503 H 0.45782 0.37203 0.80062 0.0
C504 C 0.54818 0.24845 0.99786 0.0
O505 O 0.54405 0.22312 0.97189 0.0
O506 O 0.51833 0.3271 0.76302 0.0
H507 H 0.50378 0.33382 0.9116 0.0
H508 H 0.64021 0.21643 0.8224 0.0
H509 H 0.4692 0.37146 0.95584 0.0
Zn510 Zn 0.21467 0.52487 0.82282 0.0
C511 C 0.18867 0.60313 0.89731 0.0
N512 N 0.16361 0.60696 0.86934 0.0
C513 C 0.17123 0.58456 0.8391 0.0
N514 N 0.20007 0.56779 0.84813 0.0
N515 N 0.21113 0.58005 0.88463 0.0
C516 C 0.27165 0.54316 0.98572 0.0
O517 O 0.27897 0.51833 0.96011 0.0
O518 O 0.20578 0.52345 0.75912 0.0
Zn519 Zn 0.25657 0.5786 0.90669 0.0
N520 N 0.18942 0.49084 0.85261 0.0
C521 C 0.17423 0.47263 0.9216 0.0
C522 C 0.19207 0.49397 0.89533 0.0
C523 C 0.17013 0.46636 0.8348 0.0
N524 N 0.15453 0.44875 0.90412 0.0
C525 C 0.15195 0.44472 0.86143 0.0
O526 O 0.28668 0.54539 0.87886 0.0
C527 C 0.28928 0.52166 0.85237 0.0
O528 O 0.26415 0.51188 0.83079 0.0
H529 H 0.20781 0.51321 0.90886 0.0
H530 H 0.16838 0.4643 0.8007 0.0
C531 C 0.30483 0.62862 0.92062 0.0
C532 C 0.3199 0.66021 0.91782 0.0
C533 C 0.27801 0.67675 0.86868 0.0
C534 C 0.26329 0.64516 0.87137 0.0
N535 N 0.27675 0.62192 0.89781 0.0
N536 N 0.30577 0.68367 0.89218 0.0
H537 H 0.3147 0.60967 0.9417 0.0
C538 C 0.23075 0.52987 0.73535 0.0
O539 O 0.25963 0.53731 0.75302 0.0
O540 O 0.25983 0.5701 0.97024 0.0
H541 H 0.2411 0.63943 0.85303 0.0
H542 H 0.17589 0.47507 0.95565 0.0
H543 H 0.26732 0.69569 0.84829 0.0
H544 H 0.6514 0.15282 0.35047 0.0
H545 H 0.55278 0.16541 0.29706 0.0
H546 H 0.57032 0.13379 0.23382 0.0
H547 H 0.6169 0.10804 0.19136 0.0
H548 H 0.71428 0.09679 0.24887 0.0
H549 H 0.69337 0.12024 0.31473 0.0
C550 C 0.63324 0.14856 0.32544 0.0
C551 C 0.60142 0.1641 0.32684 0.0
C552 C 0.64324 0.12946 0.29063 0.0
C553 C 0.5783 0.15678 0.29468 0.0
C554 C 0.58817 0.13782 0.25922 0.0
C555 C 0.63303 0.10966 0.21897 0.0
C556 C 0.66679 0.09908 0.21607 0.0
C557 C 0.6211 0.12507 0.25623 0.0
C558 C 0.68781 0.10239 0.25134 0.0
C559 C 0.67604 0.11684 0.28858 0.0
H560 H 0.39854 0.6352 0.33871 0.0
H561 H 0.38442 0.54248 0.27145 0.0
H562 H 0.41259 0.5667 0.20912 0.0
H563 H 0.43842 0.61621 0.17345 0.0
H564 H 0.45049 0.70767 0.24394 0.0
H565 H 0.42834 0.68099 0.307 0.0
C566 C 0.4019 0.61977 0.31076 0.0
C567 C 0.38816 0.58731 0.30918 0.0
C568 C 0.41896 0.63342 0.27633 0.0
C569 C 0.39302 0.56805 0.27261 0.0
C570 C 0.40978 0.58174 0.23744 0.0
C571 C 0.43719 0.62983 0.20312 0.0
C572 C 0.44781 0.66354 0.20466 0.0
C573 C 0.42245 0.61466 0.23882 0.0
C574 C 0.44495 0.68126 0.24272 0.0
C575 C 0.43117 0.66624 0.27841 0.0
H576 H 0.93285 0.44442 0.18246 0.0
H577 H 0.83435 0.45317 0.2372 0.0
H578 H 0.85321 0.42401 0.30022 0.0
H579 H 0.89339 0.38725 0.33272 0.0
H580 H 0.99124 0.37276 0.27777 0.0
H581 H 0.97662 0.41155 0.22067 0.0
C582 C 0.916 0.44102 0.20902 0.0
C583 C 0.88258 0.45269 0.20611 0.0
C584 C 0.92638 0.4215 0.24379 0.0
C585 C 0.86067 0.44696 0.23994 0.0
C586 C 0.87121 0.42908 0.27536 0.0
C587 C 0.91201 0.39249 0.30866 0.0
C588 C 0.94308 0.37544 0.30867 0.0
C589 C 0.90343 0.41498 0.27659 0.0
C590 C 0.96664 0.38371 0.27749 0.0
C591 C 0.95836 0.40647 0.24519 0.0
H592 H 0.12091 0.94173 0.32808 0.0
H593 H 0.2134 0.94618 0.2581 0.0
H594 H 0.18547 0.92306 0.19592 0.0
H595 H 0.13731 0.89545 0.16485 0.0
H596 H 0.04298 0.89222 0.23102 0.0
H597 H 0.0695 0.91901 0.29285 0.0
C598 C 0.13452 0.93868 0.29863 0.0
C599 C 0.16891 0.94719 0.29694 0.0
C600 C 0.11844 0.92389 0.26349 0.0
C601 C 0.18661 0.942 0.25928 0.0
C602 C 0.17081 0.92776 0.22418 0.0
C603 C 0.1222 0.90075 0.1926 0.0
C604 C 0.08842 0.89023 0.1941 0.0
C605 C 0.13711 0.91776 0.22645 0.0
C606 C 0.06945 0.89779 0.23018 0.0
C607 C 0.08448 0.91401 0.26496 0.0
H608 H 0.3858 0.87685 0.82957 0.0
H609 H 0.38116 0.97778 0.78231 0.0
H610 H 0.4221 0.96348 0.72753 0.0
H611 H 0.45623 0.92049 0.6903 0.0
H612 H 0.45694 0.8195 0.73752 0.0
H613 H 0.4228 0.83633 0.7975 0.0
C614 C 0.39373 0.89613 0.80767 0.0
C615 C 0.37916 0.92831 0.8094 0.0
C616 C 0.41777 0.88782 0.77723 0.0
C617 C 0.39036 0.95255 0.78069 0.0
C618 C 0.4144 0.94444 0.74983 0.0
C619 C 0.44981 0.90249 0.7146 0.0
C620 C 0.46052 0.86895 0.71042 0.0
C621 C 0.42789 0.91194 0.74744 0.0
C622 C 0.45112 0.84571 0.74136 0.0
C623 C 0.43053 0.85518 0.77493 0.0
H624 H 0.65376 0.37468 0.67918 0.0
H625 H 0.6665 0.47518 0.72555 0.0
H626 H 0.62678 0.46369 0.78288 0.0
H627 H 0.59393 0.4219 0.82416 0.0
H628 H 0.58293 0.32194 0.77503 0.0
H629 H 0.61486 0.33712 0.71243 0.0
C630 C 0.64797 0.39453 0.70141 0.0
C631 C 0.66531 0.42529 0.69968 0.0
C632 C 0.62446 0.38791 0.73303 0.0
C633 C 0.65594 0.4506 0.72805 0.0
C634 C 0.6325 0.44415 0.76022 0.0
C635 C 0.59738 0.40395 0.79877 0.0
C636 C 0.58515 0.37105 0.80359 0.0
C637 C 0.61745 0.41244 0.76378 0.0
C638 C 0.59056 0.34772 0.77121 0.0
C639 C 0.60969 0.35619 0.73594 0.0
H640 H 0.14003 0.64266 0.66263 0.0
H641 H 0.0403 0.65081 0.7139 0.0
H642 H 0.05853 0.61926 0.777 0.0
H643 H 0.1054 0.59452 0.81976 0.0
H644 H 0.20423 0.58895 0.76526 0.0
H645 H 0.18313 0.61205 0.69926 0.0
C646 C 0.12177 0.63733 0.68712 0.0
C647 C 0.08918 0.65113 0.68484 0.0
C648 C 0.13224 0.61851 0.72195 0.0
C649 C 0.06614 0.64303 0.71664 0.0
C650 C 0.07645 0.62421 0.75205 0.0
C651 C 0.12189 0.59719 0.79272 0.0
C652 C 0.15614 0.58834 0.79663 0.0
C653 C 0.10983 0.61268 0.75556 0.0
C654 C 0.17753 0.59318 0.76209 0.0
C655 C 0.1656 0.60749 0.7248 0.0
H656 H 0.9514 0.10607 0.82882 0.0
H657 H 0.95643 0.20571 0.77749 0.0
H658 H 0.9253 0.18785 0.71534 0.0
H659 H 0.89112 0.14671 0.68018 0.0
H660 H 0.88413 0.04611 0.72794 0.0
H661 H 0.91967 0.06204 0.78879 0.0
C662 C 0.94652 0.12353 0.80332 0.0
C663 C 0.95784 0.157 0.80693 0.0
C664 C 0.92669 0.11336 0.76845 0.0
C665 C 0.95024 0.17953 0.77436 0.0
C666 C 0.93141 0.1695 0.73938 0.0
C667 C 0.8974 0.12787 0.70357 0.0
C668 C 0.8838 0.0954 0.7002 0.0
C669 C 0.91877 0.13686 0.73681 0.0
C670 C 0.89258 0.07165 0.73093 0.0
C671 C 0.91359 0.08066 0.76511 0.0
H672 H 0.56973 0.28928 0.06172 0.0
H673 H 0.52136 0.19469 0.0381 0.0
H674 H 0.51842 0.18394 0.11398 0.0
H675 H 0.52941 0.20135 0.18755 0.0
H676 H 0.57867 0.2956 0.21088 0.0
H677 H 0.58161 0.30623 0.13509 0.0
C678 C 0.55839 0.26642 0.0732 0.0
C679 C 0.54567 0.24295 0.04419 0.0
C680 C 0.55706 0.26015 0.11702 0.0
C681 C 0.53137 0.21325 0.05966 0.0
C682 C 0.52968 0.20702 0.10313 0.0
C683 C 0.54085 0.22416 0.17605 0.0
C684 C 0.55366 0.24761 0.20505 0.0
C685 C 0.54248 0.23025 0.13217 0.0
C686 C 0.56852 0.27702 0.18944 0.0
C687 C 0.57018 0.28324 0.14599 0.0
H688 H 0.26983 0.59279 0.04521 0.0
H689 H 0.29345 0.48823 0.02902 0.0
H690 H 0.31026 0.48446 0.10318 0.0
H691 H 0.31757 0.51052 0.17322 0.0
H692 H 0.29354 0.61492 0.18952 0.0
H693 H 0.27818 0.6191 0.11487 0.0
C694 C 0.2785 0.56912 0.05792 0.0
C695 C 0.28017 0.54081 0.03146 0.0
C696 C 0.28843 0.56713 0.10066 0.0
C697 C 0.29175 0.51044 0.04855 0.0
C698 C 0.30151 0.50825 0.09101 0.0
C699 C 0.30937 0.53429 0.16034 0.0
C700 C 0.30676 0.56235 0.18705 0.0
C701 C 0.30001 0.53643 0.11739 0.0
C702 C 0.29578 0.59288 0.16979 0.0
C703 C 0.28685 0.59529 0.12706 0.0
H704 H 1.00116 0.3255 0.17544 0.0
H705 H 1.01278 0.22509 0.22305 0.0
H706 H 1.01155 0.20304 0.15113 0.0
H707 H 1.00657 0.21197 0.07445 0.0
H708 H 0.99226 0.312 0.02681 0.0
H709 H 0.99517 0.33434 0.09862 0.0
C710 C 1.00351 0.29883 0.16999 0.0
C711 C 1.00708 0.27703 0.20453 0.0
C712 C 1.00231 0.28615 0.12844 0.0
C713 C 1.00982 0.24246 0.19703 0.0
C714 C 1.00922 0.22977 0.15587 0.0
C715 C 1.00433 0.23866 0.0798 0.0
C716 C 0.99942 0.26025 0.04534 0.0
C717 C 1.00542 0.25135 0.12131 0.0
C718 C 0.99605 0.29478 0.05283 0.0
C719 C 0.99773 0.30763 0.0939 0.0
H720 H 0.30183 1.00435 0.18762 0.0
H721 H 0.19421 0.99765 0.17593 0.0
H722 H 0.19962 0.99101 0.09903 0.0
H723 H 0.23524 0.98763 0.03496 0.0
H724 H 0.34266 0.99669 0.04767 0.0
H725 H 0.33702 1.00167 0.12437 0.0
C726 C 0.27948 1.00139 0.16833 0.0
C727 C 0.24763 1.00149 0.18756 0.0
C728 C 0.2828 0.99799 0.12428 0.0
C729 C 0.219 0.99787 0.16195 0.0
C730 C 0.22211 0.99396 0.11799 0.0
C731 C 0.2574 0.99061 0.05458 0.0
C732 C 0.28936 0.99189 0.03557 0.0
C733 C 0.25391 0.99405 0.09878 0.0
C734 C 0.31779 0.99592 0.0614 0.0
C735 C 0.31458 0.9987 0.10529 0.0
H736 H 0.06598 0.77119 0.32216 0.0
H737 H 1.01762 0.8677 0.31861 0.0
H738 H 1.01583 0.86887 0.39609 0.0
H739 H 0.02724 0.84184 0.46474 0.0
H740 H 0.0743 0.74453 0.46708 0.0
H741 H 0.07717 0.74428 0.3901 0.0
C742 C 0.05523 0.79261 0.33829 0.0
C743 C 0.04198 0.81933 0.31471 0.0
C744 C 0.05381 0.79285 0.38261 0.0
C745 C 0.02789 0.84676 0.3361 0.0
C746 C 0.02684 0.84743 0.38036 0.0
C747 C 0.03804 0.82055 0.44839 0.0
C748 C 0.05039 0.79321 0.47171 0.0
C749 C 0.03952 0.82048 0.40394 0.0
C750 C 0.06436 0.76583 0.45 0.0
C751 C 0.06615 0.76569 0.40593 0.0
H752 H 0.69154 0.03649 0.33455 0.0
H753 H 0.79775 0.04556 0.31084 0.0
H754 H 0.80832 0.05375 0.38597 0.0
H755 H 0.78782 0.05865 0.45891 0.0
H756 H 0.68174 0.04987 0.48338 0.0
H757 H 0.67095 0.0413 0.40811 0.0
C758 C 0.71698 0.04005 0.34588 0.0
C759 C 0.74373 0.04028 0.31686 0.0
C760 C 0.72305 0.04489 0.38951 0.0
C761 C 0.77655 0.04525 0.33223 0.0
C762 C 0.78273 0.04995 0.37535 0.0
C763 C 0.76235 0.0548 0.44783 0.0
C764 C 0.73573 0.05487 0.47698 0.0
C765 C 0.75621 0.04988 0.40433 0.0
C766 C 0.70284 0.04992 0.46183 0.0
C767 C 0.69657 0.045 0.41866 0.0
H768 H 0.5143 0.7978 0.31469 0.0
H769 H 0.49971 0.69155 0.32771 0.0
H770 H 0.49658 0.69782 0.40491 0.0
H771 H 0.49729 0.73397 0.46859 0.0
H772 H 0.51435 0.83987 0.45441 0.0
H773 H 0.51719 0.83326 0.37769 0.0
C774 C 0.51044 0.77596 0.33438 0.0
C775 C 0.50707 0.74426 0.31551 0.0
C776 C 0.50911 0.77974 0.37852 0.0
C777 C 0.5025 0.71619 0.3415 0.0
C778 C 0.5006 0.71981 0.38559 0.0
C779 C 0.50167 0.75558 0.44866 0.0
C780 C 0.50559 0.78741 0.46723 0.0
C781 C 0.50376 0.75151 0.40445 0.0
C782 C 0.51146 0.8151 0.44102 0.0
C783 C 0.51299 0.81136 0.39711 0.0
H784 H 0.84837 0.49131 0.46549 0.0
H785 H 0.74163 0.47501 0.4744 0.0
H786 H 0.73578 0.48355 0.39832 0.0
H787 H 0.7607 0.49601 0.32941 0.0
H788 H 0.86732 0.51285 0.31961 0.0
H789 H 0.87344 0.50401 0.39593 0.0
C790 C 0.82381 0.48965 0.45082 0.0
C791 C 0.79546 0.48232 0.47575 0.0
C792 C 0.8206 0.49488 0.4069 0.0
C793 C 0.76388 0.48031 0.45606 0.0
C794 C 0.7605 0.48533 0.41251 0.0
C795 C 0.78534 0.49783 0.34386 0.0
C796 C 0.8135 0.50524 0.31872 0.0
C797 C 0.78865 0.49267 0.38765 0.0
C798 C 0.84517 0.50742 0.33817 0.0
C799 C 0.8487 0.50227 0.38182 0.0
H800 H 0.49016 0.80723 0.97293 0.0
H801 H 0.49053 0.69957 0.96431 0.0
H802 H 0.49796 0.7029 0.88783 0.0
H803 H 0.50523 0.73592 0.82368 0.0
H804 H 0.50742 0.84352 0.83076 0.0
H805 H 0.49837 0.84075 0.90756 0.0
C806 C 0.49173 0.78455 0.95419 0.0
C807 C 0.48984 0.75317 0.9743 0.0
C808 C 0.4967 0.78664 0.91006 0.0
C809 C 0.49217 0.724 0.9497 0.0
C810 C 0.49637 0.72588 0.90593 0.0
C811 C 0.50371 0.75885 0.84193 0.0
C812 C 0.507 0.7899 0.82149 0.0
C813 C 0.49887 0.757 0.88585 0.0
C814 C 0.50522 0.8193 0.84576 0.0
C815 C 0.4999 0.8177 0.88963 0.0
H816 H 0.80582 0.49119 0.81039 0.0
H817 H 0.69882 0.48469 0.82906 0.0
H818 H 0.70725 0.48298 0.90583 0.0
H819 H 0.7451 0.48362 0.9676 0.0
H820 H 0.85194 0.49214 0.94851 0.0
H821 H 0.84345 0.49278 0.8719 0.0
C822 C 0.78431 0.4893 0.83121 0.0
C823 C 0.75173 0.48798 0.81399 0.0
C824 C 0.78933 0.48879 0.87525 0.0
C825 C 0.72415 0.48585 0.84148 0.0
C826 C 0.72896 0.48482 0.88538 0.0
C827 C 0.76654 0.48563 0.94668 0.0
C828 C 0.79913 0.48793 0.96381 0.0
C829 C 0.76144 0.48634 0.90261 0.0
C830 C 0.8266 0.49062 0.93623 0.0
C831 C 0.82177 0.49087 0.89239 0.0
H832 H 0.04541 0.78108 0.81569 0.0
H833 H 0.03269 0.67406 0.81688 0.0
H834 H 0.03279 0.67443 0.89447 0.0
H835 H 0.03721 0.70539 0.96183 0.0
H836 H 0.04736 0.81275 0.95934 0.0
H837 H 0.04743 0.81203 0.88232 0.0
C838 C 0.0428 0.75779 0.8329 0.0
C839 C 0.03932 0.72756 0.81068 0.0
C840 C 0.0423 0.7583 0.87724 0.0
C841 C 0.03544 0.69765 0.83337 0.0
C842 C 0.03549 0.69787 0.87768 0.0
C843 C 0.03919 0.72865 0.94445 0.0
C844 C 0.04268 0.75909 0.96644 0.0
C845 C 0.0389 0.72808 0.89995 0.0
C846 C 0.04509 0.78897 0.94334 0.0
C847 C 0.04509 0.78859 0.89922 0.0
H848 H 0.74602 0.03183 0.82207 0.0
H849 H 0.85066 0.05763 0.83217 0.0
H850 H 0.84541 0.06106 0.90961 0.0
H851 H 0.81045 0.05681 0.97458 0.0
H852 H 0.70728 0.02582 0.96329 0.0
H853 H 0.71238 0.02451 0.88616 0.0
C854 C 0.7677 0.03824 0.84122 0.0
C855 C 0.79862 0.04476 0.82148 0.0
C856 C 0.76464 0.03929 0.88549 0.0
C857 C 0.82662 0.05246 0.84669 0.0
C858 C 0.82356 0.05453 0.8909 0.0
C859 C 0.78915 0.04986 0.95507 0.0
C860 C 0.75843 0.0416 0.97444 0.0
C861 C 0.79263 0.04807 0.91067 0.0
C862 C 0.73113 0.03217 0.94904 0.0
C863 C 0.73404 0.03146 0.90498 0.0
H864 H 1.00618 0.27825 0.68185 0.0
H865 H 1.01792 0.17134 0.69154 0.0
H866 H 1.01512 0.16647 0.61418 0.0
H867 H 1.00851 0.19293 0.54388 0.0
H868 H 0.99859 0.3002 0.53591 0.0
H869 H 1.00124 0.30453 0.61265 0.0
C870 C 1.00809 0.25381 0.66714 0.0
C871 C 1.01218 0.22518 0.69237 0.0
C872 C 1.00666 0.25129 0.62296 0.0
C873 C 1.01492 0.19377 0.67275 0.0
C874 C 1.01322 0.19099 0.62857 0.0
C875 C 1.00705 0.21725 0.55895 0.0
C876 C 1.00284 0.24619 0.53409 0.0
C877 C 1.00904 0.21962 0.60334 0.0
C878 C 1.00115 0.27749 0.55417 0.0
C879 C 1.00287 0.28002 0.59812 0.0
H880 H 0.30852 0.97657 0.53635 0.0
H881 H 0.2228 0.04254 0.53882 0.0
H882 H 0.22725 0.04698 0.61576 0.0
H883 H 0.25539 0.0324 0.68225 0.0
H884 H 0.34327 0.96935 0.68036 0.0
H885 H 0.33823 0.96361 0.60329 0.0
C886 C 0.29079 0.99185 0.55381 0.0
C887 C 0.26526 1.00912 0.53189 0.0
C888 C 0.29396 0.99489 0.59809 0.0
C889 C 0.24272 0.02911 0.55486 0.0
C890 C 0.24522 0.03161 0.59888 0.0
C891 C 0.27345 1.01733 0.66503 0.0
C892 C 0.29955 1.00113 0.68708 0.0
C893 C 0.27073 1.01466 0.6208 0.0
C894 C 0.32297 0.9821 0.66416 0.0
C895 C 0.32003 0.97875 0.62012 0.0
H896 H 0.49846 0.25478 0.68143 0.0
H897 H 0.5449 0.35165 0.69244 0.0
H898 H 0.55734 0.35116 0.61641 0.0
H899 H 0.55548 0.32237 0.54644 0.0
H900 H 0.50501 0.22739 0.53645 0.0
H901 H 0.49385 0.22789 0.61232 0.0
C902 C 0.51124 0.2759 0.66728 0.0
C903 C 0.52114 0.30301 0.6928 0.0
C904 C 0.51769 0.27568 0.62359 0.0
C905 C 0.53722 0.33034 0.67366 0.0
C906 C 0.54438 0.33003 0.63016 0.0
C907 C 0.54212 0.30182 0.56104 0.0
C908 C 0.53119 0.2748 0.53589 0.0
C909 C 0.53493 0.30268 0.60479 0.0
C910 C 0.51355 0.24852 0.55504 0.0
C911 C 0.50718 0.24876 0.59845 0.0
H912 H 0.28131 0.53083 0.67885 0.0
H913 H 0.1733 0.53201 0.68689 0.0
H914 H 0.16948 0.53775 0.6097 0.0
H915 H 0.19733 0.54459 0.54013 0.0
H916 H 0.30547 0.54243 0.53405 0.0
H917 H 0.3087 0.53509 0.61028 0.0
C918 C 0.25685 0.53225 0.66382 0.0
C919 C 0.22763 0.53115 0.68863 0.0
C920 C 0.25491 0.53555 0.61972 0.0
C921 C 0.19619 0.53269 0.6685 0.0
C922 C 0.19402 0.53609 0.62439 0.0
C923 C 0.22159 0.54228 0.55546 0.0
C924 C 0.2512 0.54462 0.53126 0.0
C925 C 0.22327 0.53783 0.59967 0.0
C926 C 0.28235 0.54145 0.55175 0.0
C927 C 0.28423 0.53705 0.59544 0.0
H928 H 0.67371 0.2276 0.42431 0.0
H929 H 0.58111 0.22128 0.49329 0.0
H930 H 0.61187 0.21165 0.55902 0.0
H931 H 0.66391 0.19136 0.59255 0.0
H932 H 0.75521 0.18759 0.51972 0.0
H933 H 0.72666 0.21404 0.45987 0.0
C934 C 0.6605 0.22574 0.45424 0.0
C935 C 0.62525 0.22662 0.45437 0.0
C936 C 0.67829 0.21674 0.49089 0.0
C937 C 0.60818 0.2229 0.49284 0.0
C938 C 0.62585 0.21618 0.53021 0.0
C939 C 0.67768 0.19714 0.5639 0.0
C940 C 0.7114 0.18709 0.56018 0.0
C941 C 0.66072 0.21107 0.52903 0.0
C942 C 0.72904 0.19453 0.52293 0.0
C943 C 0.71276 0.20975 0.4888 0.0
H944 H 0.35012 0.65286 0.41266 0.0
H945 H 0.34533 0.56388 0.48827 0.0
H946 H 0.35276 0.59724 0.55307 0.0
H947 H 0.36963 0.65103 0.58605 0.0
H948 H 0.37911 0.73859 0.50752 0.0
H949 H 0.36039 0.70688 0.44588 0.0
C950 C 0.34922 0.64105 0.44355 0.0
C951 C 0.34565 0.60629 0.44631 0.0
C952 C 0.35514 0.66021 0.47987 0.0
C953 C 0.34632 0.59084 0.48604 0.0
C954 C 0.35125 0.60987 0.5228 0.0
C955 C 0.36683 0.66318 0.55557 0.0
C956 C 0.37619 0.69686 0.55101 0.0
C957 C 0.35691 0.64448 0.51991 0.0
C958 C 0.3726 0.7125 0.51147 0.0
C959 C 0.36186 0.69442 0.47629 0.0
H960 H 0.90375 0.35954 0.58141 0.0
H961 H 0.80376 0.3486 0.53102 0.0
H962 H 0.82627 0.32156 0.46766 0.0
H963 H 0.8749 0.31061 0.42171 0.0
H964 H 0.97431 0.33056 0.4685 0.0
H965 H 0.95191 0.34315 0.53849 0.0
C966 C 0.88686 0.35046 0.557 0.0
C967 C 0.85228 0.35654 0.56044 0.0
C968 C 0.90008 0.33621 0.52003 0.0
C969 C 0.83059 0.3448 0.5286 0.0
C970 C 0.84345 0.32927 0.49245 0.0
C971 C 0.89161 0.31624 0.44792 0.0
C972 C 0.92632 0.31799 0.44072 0.0
C973 C 0.87824 0.32614 0.48707 0.0
C974 C 0.94777 0.32686 0.47411 0.0
C975 C 0.93485 0.33497 0.51382 0.0
H976 H 0.21017 0.87231 0.40987 0.0
H977 H 0.20754 0.96764 0.47249 0.0
H978 H 0.19615 0.94042 0.54025 0.0
H979 H 0.17669 0.89023 0.57843 0.0
H980 H 0.17085 0.79626 0.51187 0.0
H981 H 0.19511 0.82177 0.44902 0.0
C982 C 0.20832 0.88687 0.43879 0.0
C983 C 0.21146 0.92176 0.43687 0.0
C984 C 0.19899 0.87118 0.47665 0.0
C985 C 0.20768 0.94066 0.47395 0.0
C986 C 0.20007 0.92508 0.51239 0.0
C987 C 0.18139 0.87527 0.55039 0.0
C988 C 0.17165 0.8415 0.54964 0.0
C989 C 0.19431 0.89047 0.51373 0.0
C990 C 0.17768 0.82238 0.51307 0.0
C991 C 0.19163 0.83696 0.47711 0.0
H992 H 0.13533 0.88283 0.91211 0.0
H993 H 0.22895 0.86596 0.97737 0.0
H994 H 0.19879 0.84588 0.03952 0.0
H995 H 0.14595 0.84274 0.07913 0.0
H996 H 0.05247 0.86381 0.01622 0.0
H997 H 0.08208 0.87215 0.94904 0.0
C998 C 0.14905 0.87394 0.93959 0.0
C999 C 0.18418 0.87649 0.94065 0.0
C1000 C 0.13149 0.86349 0.97569 0.0
C1001 C 0.20182 0.86489 0.97631 0.0
C1002 C 0.18461 0.8534 0.0118 0.0
C1003 C 0.13215 0.84809 0.05025 0.0
C1004 C 0.09731 0.85242 0.05194 0.0
C1005 C 0.14947 0.85403 0.01247 0.0
C1006 C 0.07936 0.85998 0.01503 0.0
C1007 C 0.09632 0.86504 0.97689 0.0
H1008 H 0.70688 0.17399 0.10192 0.0
H1009 H 0.69926 0.07914 0.03868 0.0
H1010 H 0.68876 0.10714 0.9712 0.0
H1011 H 0.67113 0.15814 0.93378 0.0
H1012 H 0.67192 0.25263 0.99965 0.0
H1013 H 0.6953 0.22565 0.06249 0.0
C1014 C 0.7041 0.15967 0.07292 0.0
C1015 C 0.70539 0.12465 0.07456 0.0
C1016 C 0.69574 0.176 0.03505 0.0
C1017 C 0.70058 0.1061 0.0374 0.0
C1018 C 0.69361 0.12217 0.99912 0.0
C1019 C 0.67725 0.17292 0.96154 0.0
C1020 C 0.66927 0.20715 0.96241 0.0
C1021 C 0.68976 0.15704 0.99797 0.0
C1022 C 0.67719 0.22607 0.99859 0.0
C1023 C 0.69062 0.21068 0.03448 0.0
H1024 H 0.44123 0.66167 0.04382 0.0
H1025 H 0.39341 0.7532 0.08209 0.0
H1026 H 0.35597 0.75053 0.02087 0.0
H1027 H 0.33068 0.71661 0.9636 0.0
H1028 H 0.37551 0.62196 0.93055 0.0
H1029 H 0.42014 0.63107 0.98228 0.0
C1030 C 0.4232 0.6815 0.0379 0.0
C1031 C 0.42056 0.70807 0.06668 0.0
C1032 C 0.40068 0.67865 0.00403 0.0
C1033 C 0.39688 0.73336 0.05943 0.0
C1034 C 0.37497 0.73136 0.02483 0.0
C1035 C 0.35066 0.6984 0.96719 0.0
C1036 C 0.34955 0.6684 0.94399 0.0
C1037 C 0.37576 0.70339 0.99791 0.0
C1038 C 0.37551 0.64491 0.94878 0.0
C1039 C 0.40106 0.65014 0.97824 0.0
H1040 H 0.89032 0.44687 0.03711 0.0
H1041 H 0.80698 0.3932 0.08954 0.0
H1042 H 0.80833 0.35361 0.03065 0.0
H1043 H 0.83889 0.32961 0.96994 0.0
H1044 H 0.92738 0.37921 0.9236 0.0
H1045 H 0.91875 0.42492 0.97393 0.0
C1046 C 0.87188 0.42704 0.03471 0.0
C1047 C 0.84718 0.42403 0.06604 0.0
C1048 C 0.87439 0.40322 1.0022 0.0
C1049 C 0.82432 0.39751 0.06396 0.0
C1050 C 0.82581 0.37433 0.03086 0.0
C1051 C 0.85577 0.35085 0.97034 0.0
C1052 C 0.88379 0.35109 0.94341 0.0
C1053 C 0.85134 0.37639 1.00044 0.0
C1054 C 0.90581 0.37845 0.94439 0.0
C1055 C 0.9009 0.40452 0.97314 0.0
H1056 H 0.45572 0.89979 0.5583 0.0
H1057 H 0.4291 0.79595 0.55863 0.0
H1058 H 0.39469 0.80364 0.49546 0.0
H1059 H 0.36627 0.84208 0.44584 0.0
H1060 H 0.3906 0.94712 0.44898 0.0
H1061 H 0.43144 0.93714 0.50513 0.0
C1062 C 0.44281 0.87872 0.54407 0.0
C1063 C 0.44525 0.847 0.56292 0.0
C1064 C 0.42207 0.88393 0.50878 0.0
C1065 C 0.42832 0.82012 0.54428 0.0
C1066 C 0.40825 0.82479 0.50839 0.0
C1067 C 0.38093 0.86267 0.45835 0.0
C1068 C 0.37482 0.89538 0.44396 0.0
C1069 C 0.4041 0.85684 0.49117 0.0
C1070 C 0.3941 0.92182 0.46035 0.0
C1071 C 0.41762 0.91613 0.4923 0.0
H1072 H 0.69516 0.31569 0.47262 0.0
H1073 H 0.6667 0.40708 0.41005 0.0
H1074 H 0.69251 0.43983 0.46665 0.0
H1075 H 0.7136 0.44176 0.53974 0.0
H1076 H 0.74226 0.35069 0.60249 0.0
H1077 H 0.7274 0.31837 0.53942 0.0
C1078 C 0.69544 0.34277 0.47108 0.0
C1079 C 0.67861 0.35914 0.43795 0.0
C1080 C 0.71078 0.36141 0.50349 0.0
C1081 C 0.67939 0.39413 0.43559 0.0
C1082 C 0.69421 0.41283 0.46789 0.0
C1083 C 0.71872 0.41515 0.53852 0.0
C1084 C 0.72959 0.39861 0.5752 0.0
C1085 C 0.70892 0.39674 0.50272 0.0
C1086 C 0.73444 0.36387 0.57418 0.0
C1087 C 0.72539 0.34537 0.53841 0.0
H1088 H 0.22131 0.71214 0.47994 0.0
H1089 H 0.16298 0.63966 0.41089 0.0
H1090 H 0.11378 0.65259 0.45416 0.0
H1091 H 0.09046 0.67762 0.51857 0.0
H1092 H 0.15167 0.74254 0.59472 0.0
H1093 H 0.19618 0.7406 0.54164 0.0
C1094 C 0.19757 0.69976 0.47399 0.0
C1095 C 0.19562 0.67488 0.44265 0.0
C1096 C 0.16984 0.70631 0.50022 0.0
C1097 C 0.16497 0.65866 0.43523 0.0
C1098 C 0.1369 0.6661 0.45987 0.0
C1099 C 0.11296 0.6926 0.52232 0.0
C1100 C 0.11718 0.71166 0.55926 0.0
C1101 C 0.13937 0.68904 0.49334 0.0
C1102 C 0.14704 0.72952 0.56522 0.0
C1103 C 0.17287 0.72758 0.53539 0.0
H1104 H 0.8775 0.14065 0.42047 0.0
H1105 H 0.87938 0.23742 0.48122 0.0
H1106 H 0.85264 0.21395 0.54365 0.0
H1107 H 0.83875 0.1642 0.58547 0.0
H1108 H 0.839 0.06725 0.52635 0.0
H1109 H 0.85327 0.09263 0.45821 0.0
C1110 C 0.87139 0.15681 0.44695 0.0
C1111 C 0.88191 0.19041 0.44678 0.0
C1112 C 0.85615 0.14308 0.48304 0.0
C1113 C 0.87315 0.2111 0.48113 0.0
C1114 C 0.85751 0.19777 0.5168 0.0
C1115 C 0.84065 0.1489 0.55717 0.0
C1116 C 0.83759 0.11408 0.56051 0.0
C1117 C 0.85043 0.16352 0.51884 0.0
C1118 C 0.8405 0.09422 0.52411 0.0
C1119 C 0.84929 0.1087 0.48539 0.0
H1120 H 0.86501 0.19442 0.07176 0.0
H1121 H 0.88781 0.089 0.07368 0.0
H1122 H 0.9283 0.09643 0.01666 0.0
H1123 H 0.95168 0.13143 0.96069 0.0
H1124 H 0.9266 0.2359 0.95589 0.0
H1125 H 0.89336 0.23074 0.01994 0.0
C1126 C 0.87943 0.17326 0.06027 0.0
C1127 C 0.87302 0.14114 0.07621 0.0
C1128 C 0.90214 0.17758 0.02679 0.0
C1129 C 0.89182 0.11387 0.06118 0.0
C1130 C 0.91499 0.11809 0.02865 0.0
C1131 C 0.93931 0.15319 0.97404 0.0
C1132 C 0.94168 0.18416 0.95338 0.0
C1133 C 0.91942 0.1496 0.01024 0.0
C1134 C 0.92564 0.21203 0.9711 0.0
C1135 C 0.90631 0.20893 0.00774 0.0
H1136 H 0.32991 0.83426 0.05712 0.0
H1137 H 0.41452 0.89758 0.08454 0.0
H1138 H 0.39739 0.93612 0.02835 0.0
H1139 H 0.36442 0.94613 0.96428 0.0
H1140 H 0.28485 0.87882 0.93014 0.0
H1141 H 0.29296 0.84788 0.99639 0.0
C1142 C 0.34402 0.85694 0.05122 0.0
C1143 C 0.37342 0.86326 0.07449 0.0
C1144 C 0.33477 0.87817 0.01767 0.0
C1145 C 0.39191 0.89235 0.06663 0.0
C1146 C 0.38213 0.91429 0.03459 0.0
C1147 C 0.34789 0.92561 0.97247 0.0
C1148 C 0.32326 0.91539 0.94347 0.0
C1149 C 0.35437 0.90678 0.00895 0.0
C1150 C 0.30298 0.88785 0.953 0.0
C1151 C 0.30812 0.86982 0.99045 0.0
H1152 H 0.65725 0.36404 0.08534 0.0
H1153 H 0.74543 0.37063 0.00688 0.0
H1154 H 0.71326 0.35166 0.94563 0.0
H1155 H 0.65875 0.34135 0.9125 0.0
H1156 H 0.56938 0.33991 0.98866 0.0
H1157 H 0.60317 0.34758 0.05294 0.0
C1158 C 0.66946 0.3606 0.05498 0.0
C1159 C 0.70343 0.36931 0.05032 0.0
C1160 C 0.65053 0.35056 0.01956 0.0
C1161 C 0.71911 0.36476 0.01093 0.0
C1162 C 0.70077 0.35385 0.97596 0.0
C1163 C 0.64687 0.34184 0.94339 0.0
C1164 C 0.61186 0.33942 0.94626 0.0
C1165 C 0.66626 0.34792 0.97959 0.0
C1166 C 0.59646 0.34053 0.98608 0.0
C1167 C 0.61574 0.34554 0.02265 0.0
H1168 H 0.1831 0.6794 0.07069 0.0
H1169 H 0.16295 0.76148 0.98599 0.0
H1170 H 0.17543 0.72591 0.92505 0.0
H1171 H 0.1845 0.66988 0.89589 0.0
H1172 H 0.19914 0.58646 0.97979 0.0
H1173 H 0.1974 0.624 0.04115 0.0
C1174 C 0.18233 0.6896 0.0389 0.0
C1175 C 0.17186 0.72278 0.03261 0.0
C1176 C 0.18847 0.66868 1.00399 0.0
C1177 C 0.17061 0.73583 0.99138 0.0
C1178 C 0.17767 0.71552 0.95661 0.0
C1179 C 0.18795 0.66015 0.92766 0.0
C1180 C 0.19284 0.62575 0.9336 0.0
C1181 C 0.18539 0.68166 0.96251 0.0
C1182 C 0.19686 0.6131 0.97464 0.0
C1183 C 0.19522 0.6345 0.00965 0.0
H1184 H 0.39435 0.15715 0.33507 0.0
H1185 H 0.46402 0.07769 0.36251 0.0
H1186 H 0.41879 0.03668 0.35834 0.0
H1187 H 0.35856 0.02429 0.3557 0.0
H1188 H 0.28807 0.10301 0.32746 0.0
H1189 H 0.33417 0.14335 0.32309 0.0
C1190 C 0.39969 0.1307 0.33842 0.0
C1191 C 0.43256 0.12029 0.34827 0.0
C1192 C 0.37323 0.10725 0.33697 0.0
C1193 C 0.43905 0.08611 0.354 0.0
C1194 C 0.41311 0.06272 0.3522 0.0
C1195 C 0.3533 0.05024 0.34827 0.0
C1196 C 0.31987 0.06073 0.34264 0.0
C1197 C 0.37995 0.07314 0.34524 0.0
C1198 C 0.31356 0.09431 0.3322 0.0
C1199 C 0.33994 0.1174 0.32971 0.0
H1200 H 0.37345 0.37173 0.32283 0.0
H1201 H 0.43671 0.45592 0.35143 0.0
H1202 H 0.4856 0.41863 0.3568 0.0
H1203 H 0.50885 0.36096 0.36053 0.0
H1204 H 0.44463 0.27758 0.32981 0.0
H1205 H 0.39769 0.31557 0.31818 0.0
C1206 C 0.39815 0.38198 0.32916 0.0
C1207 C 0.40158 0.41646 0.33652 0.0
C1208 C 0.42583 0.3604 0.33262 0.0
C1209 C 0.43359 0.42951 0.34495 0.0
C1210 C 0.46141 0.40811 0.34859 0.0
C1211 C 0.48461 0.35118 0.35108 0.0
C1212 C 0.4802 0.31635 0.34667 0.0
C1213 C 0.45762 0.37334 0.34375 0.0
C1214 C 0.44877 0.30416 0.33364 0.0
C1215 C 0.42184 0.32589 0.32697 0.0
H1216 H 0.22863 0.46667 0.30818 0.0
H1217 H 0.18211 0.55859 0.3491 0.0
H1218 H 0.12687 0.53274 0.34427 0.0
H1219 H 0.09266 0.48296 0.33663 0.0
H1220 H 0.1385 0.38884 0.30299 0.0
H1221 H 0.1928 0.41672 0.29544 0.0
C1222 C 0.20628 0.48114 0.31513 0.0
C1223 C 0.20941 0.51452 0.32902 0.0
C1224 C 0.17448 0.46566 0.31375 0.0
C1225 C 0.18034 0.53288 0.33853 0.0
C1226 C 0.14876 0.51809 0.33581 0.0
C1227 C 0.11439 0.46844 0.32713 0.0
C1228 C 0.1113 0.43371 0.32073 0.0
C1229 C 0.14565 0.4843 0.32473 0.0
C1230 C 0.1398 0.41559 0.30781 0.0
C1231 C 0.17104 0.43151 0.30398 0.0
H1232 H 0.07674 0.22579 0.29175 0.0
H1233 H 0.09433 0.25039 0.42275 0.0
H1234 H 0.13262 0.20303 0.42966 0.0
H1235 H 0.15312 0.14978 0.40218 0.0
H1236 H 0.13379 0.12208 0.27266 0.0
H1237 H 0.10482 0.17557 0.26089 0.0
C1238 C 0.09005 0.22137 0.32121 0.0
C1239 C 0.08318 0.24166 0.35665 0.0
C1240 C 0.11126 0.19322 0.32532 0.0
C1241 C 0.09969 0.2353 0.39505 0.0
C1242 C 0.12133 0.20806 0.39908 0.0
C1243 C 0.14334 0.15588 0.37103 0.0
C1244 C 0.14541 0.13205 0.3384 0.0
C1245 C 0.12615 0.18612 0.36499 0.0
C1246 C 0.13273 0.14017 0.29817 0.0
C1247 C 0.11586 0.17061 0.29163 0.0
H1248 H 0.84808 1.00862 0.15334 0.0
H1249 H 0.76777 0.93727 0.16617 0.0
H1250 H 0.80843 0.8915 0.16843 0.0
H1251 H 0.86649 0.87151 0.16115 0.0
H1252 H 0.94734 0.94237 0.15244 0.0
H1253 H 0.90698 0.98877 0.15497 0.0
C1254 C 0.8396 0.98303 0.15682 0.0
C1255 C 0.805 0.97619 0.1589 0.0
C1256 C 0.8632 0.95689 0.15912 0.0
C1257 C 0.79427 0.94307 0.16429 0.0
C1258 C 0.81748 0.91692 0.16556 0.0
C1259 C 0.87521 0.89718 0.16083 0.0
C1260 C 0.90966 0.90371 0.1568 0.0
C1261 C 0.85193 0.9235 0.16236 0.0
C1262 C 0.9209 0.93691 0.15616 0.0
C1263 C 0.89781 0.96335 0.15712 0.0
H1264 H 0.51629 0.85554 0.15637 0.0
H1265 H 0.59988 0.78858 0.17462 0.0
H1266 H 0.63781 0.83643 0.18238 0.0
H1267 H 0.6478 0.89763 0.1762 0.0
H1268 H 0.5634 0.96346 0.15786 0.0
H1269 H 0.52508 0.91595 0.15908 0.0
C1270 C 0.5428 0.8514 0.16223 0.0
C1271 C 0.55538 0.81858 0.16403 0.0
C1272 C 0.56426 0.87893 0.16714 0.0
C1273 C 0.58964 0.81362 0.17268 0.0
C1274 C 0.61132 0.84098 0.17716 0.0
C1275 C 0.62091 0.90151 0.17413 0.0
C1276 C 0.60828 0.93396 0.16754 0.0
C1277 C 0.59902 0.87381 0.17364 0.0
C1278 C 0.57352 0.93871 0.16363 0.0
C1279 C 0.55167 0.91153 0.16378 0.0
H1280 H 0.73701 0.59102 0.18693 0.0
H1281 H 0.69272 0.50327 0.12995 0.0
H1282 H 0.63802 0.52968 0.13055 0.0
H1283 H 0.60337 0.57877 0.14051 0.0
H1284 H 0.64537 0.66851 0.19401 0.0
H1285 H 0.6998 0.64015 0.2026 0.0
C1286 C 0.71528 0.57765 0.17512 0.0
C1287 C 0.71927 0.54534 0.15772 0.0
C1288 C 0.68336 0.59332 0.17496 0.0
C1289 C 0.69073 0.52834 0.14273 0.0
C1290 C 0.65925 0.54336 0.14321 0.0
C1291 C 0.6243 0.59207 0.15467 0.0
C1292 C 0.62033 0.62572 0.1664 0.0
C1293 C 0.65543 0.57602 0.15823 0.0
C1294 C 0.64761 0.64247 0.18506 0.0
C1295 C 0.67886 0.62634 0.18948 0.0
H1296 H 0.96297 0.73304 0.20285 0.0
H1297 H 0.03968 0.69177 0.12164 0.0
H1298 H 1.00932 0.63934 0.11734 0.0
H1299 H 0.9579 0.60762 0.12855 0.0
H1300 H 0.88012 0.64713 0.20871 0.0
H1301 H 0.91404 0.69731 0.22219 0.0
C1302 C 0.97338 0.71231 0.18505 0.0
C1303 C 1.00342 0.71671 0.16208 0.0
C1304 C 0.95543 0.68188 0.18222 0.0
C1305 C 1.01645 0.68945 0.13915 0.0
C1306 C 0.99908 0.65933 0.1366 0.0
C1307 C 0.94871 0.6269 0.14978 0.0
C1308 C 0.91658 0.62374 0.16753 0.0
C1309 C 0.96808 0.65566 0.15677 0.0
C1310 C 0.90494 0.64883 0.19502 0.0
C1311 C 0.92423 0.67768 0.20233 0.0
H1312 H 0.7359 0.95992 0.70697 0.0
H1313 H 0.68767 0.02904 0.6211 0.0
H1314 H 0.63837 0.99383 0.61828 0.0
H1315 H 0.61117 0.94055 0.63295 0.0
H1316 H 0.65725 0.87035 0.71825 0.0
H1317 H 0.70454 0.90886 0.72927 0.0
C1318 C 0.71441 0.9675 0.68819 0.0
C1319 C 0.71607 0.99692 0.66358 0.0
C1320 C 0.68559 0.94687 0.68655 0.0
C1321 C 0.68768 1.00635 0.63974 0.0
C1322 C 0.65924 0.98623 0.63813 0.0
C1323 C 0.63115 0.93413 0.65489 0.0
C1324 C 0.63071 0.90286 0.67495 0.0
C1325 C 0.65827 0.95605 0.66037 0.0
C1326 C 0.65682 0.89457 0.70299 0.0
C1327 C 0.68404 0.91644 0.70883 0.0
H1328 H 0.57161 0.58646 0.65396 0.0
H1329 H 0.66876 0.62408 0.6907 0.0
H1330 H 0.64524 0.68059 0.69672 0.0
H1331 H 0.59761 0.72038 0.68419 0.0
H1332 H 0.50262 0.68073 0.64176 0.0
H1333 H 0.52485 0.62426 0.64494 0.0
C1334 C 0.58779 0.60689 0.66358 0.0
C1335 C 0.62199 0.60083 0.67158 0.0
C1336 C 0.57446 0.63925 0.66539 0.0
C1337 C 0.64227 0.62772 0.68468 0.0
C1338 C 0.62886 0.6602 0.68767 0.0
C1339 C 0.58183 0.69926 0.6761 0.0
C1340 C 0.54859 0.70482 0.66227 0.0
C1341 C 0.59511 0.66644 0.67702 0.0
C1342 C 0.5284 0.67724 0.65184 0.0
C1343 C 0.54103 0.64487 0.65379 0.0
H1344 H 0.87183 0.65883 0.64834 0.0
H1345 H 0.95196 0.58846 0.66959 0.0
H1346 H 0.91101 0.54317 0.67732 0.0
H1347 H 0.85267 0.5229 0.67004 0.0
H1348 H 0.77232 0.59388 0.65308 0.0
H1349 H 0.81294 0.6398 0.65194 0.0
C1350 C 0.88017 0.6337 0.65582 0.0
C1351 C 0.91476 0.62687 0.65856 0.0
C1352 C 0.85647 0.60794 0.66034 0.0
C1353 C 0.92544 0.59429 0.66795 0.0
C1354 C 0.90204 0.56839 0.67189 0.0
C1355 C 0.84411 0.54851 0.66664 0.0
C1356 C 0.80965 0.55506 0.66102 0.0
C1357 C 0.86756 0.57477 0.66688 0.0
C1358 C 0.79872 0.58829 0.65734 0.0
C1359 C 0.82195 0.61449 0.65655 0.0
H1360 H 1.01464 0.85619 0.64919 0.0
H1361 H 0.94368 0.78142 0.68928 0.0
H1362 H 0.9008 0.82442 0.69872 0.0
H1363 H 0.88153 0.88249 0.68784 0.0
H1364 H 0.9523 0.95756 0.64941 0.0
H1365 H 0.99726 0.91566 0.64797 0.0
C1366 C 0.9899 0.84938 0.66042 0.0
C1367 C 0.98234 0.81547 0.66794 0.0
C1368 C 0.96533 0.87442 0.66639 0.0
C1369 C 0.95025 0.80721 0.68309 0.0
C1370 C 0.92563 0.83183 0.68846 0.0
C1371 C 0.90711 0.88982 0.68084 0.0
C1372 C 0.91382 0.92317 0.66968 0.0
C1373 C 0.93265 0.86541 0.67939 0.0
C1374 C 0.94679 0.93224 0.65926 0.0
C1375 C 0.97236 0.90815 0.6578 0.0
H1376 H 0.19816 0.03414 0.83845 0.0
H1377 H 0.27907 0.10416 0.85543 0.0
H1378 H 0.23875 0.1506 0.85663 0.0
H1379 H 0.17993 0.1703 0.85989 0.0
H1380 H 0.09937 0.10061 0.83842 0.0
H1381 H 0.14002 0.05494 0.83113 0.0
C1382 C 0.20691 0.05966 0.84184 0.0
C1383 C 0.2414 0.06584 0.84744 0.0
C1384 C 0.18365 0.08615 0.84166 0.0
C1385 C 0.25262 0.09892 0.85115 0.0
C1386 C 0.22956 0.12538 0.852 0.0
C1387 C 0.17141 0.1452 0.85266 0.0
C1388 C 0.13675 0.13874 0.84973 0.0
C1389 C 0.19496 0.11919 0.84824 0.0
C1390 C 0.12591 0.10621 0.84035 0.0
C1391 C 0.14914 0.08007 0.8366 0.0
H1392 H 0.42401 0.11841 0.90842 0.0
H1393 H 0.40879 0.1169 0.77346 0.0
H1394 H 0.43334 0.17317 0.76795 0.0
H1395 H 0.4656 0.21992 0.80159 0.0
H1396 H 0.4811 0.21817 0.93692 0.0
H1397 H 0.45007 0.16626 0.9422 0.0
C1398 C 0.42552 0.13066 0.87783 0.0
C1399 C 0.41482 0.11359 0.84142 0.0
C1400 C 0.44024 0.1623 0.87497 0.0
C1401 C 0.41665 0.12972 0.80201 0.0
C1402 C 0.43102 0.16172 0.79887 0.0
C1403 C 0.46168 0.20835 0.83219 0.0
C1404 C 0.47632 0.22259 0.86871 0.0
C1405 C 0.44389 0.17787 0.83508 0.0
C1406 C 0.4709 0.20738 0.9082 0.0
C1407 C 0.45297 0.17772 0.91134 0.0
H1408 H 0.30506 0.46389 0.80867 0.0
H1409 H 0.34795 0.53989 0.88963 0.0
H1410 H 0.40002 0.50867 0.89381 0.0
H1411 H 0.43126 0.45718 0.88187 0.0
H1412 H 0.39004 0.37997 0.80235 0.0
H1413 H 0.33997 0.41447 0.78939 0.0
C1414 C 0.32596 0.47383 0.8267 0.0
C1415 C 0.32213 0.50402 0.84941 0.0
C1416 C 0.35624 0.45551 0.8293 0.0
C1417 C 0.34973 0.51657 0.87231 0.0
C1418 C 0.3797 0.49874 0.87474 0.0
C1419 C 0.41162 0.44823 0.86089 0.0
C1420 C 0.41424 0.41614 0.84316 0.0
C1421 C 0.38288 0.46781 0.85442 0.0
C1422 C 0.38873 0.40478 0.81599 0.0
C1423 C 0.35994 0.42436 0.80903 0.0
H1424 H 0.08407 0.30872 0.80857 0.0
H1425 H 1.0076 0.34855 0.89143 0.0
H1426 H 0.03786 0.40085 0.89698 0.0
H1427 H 0.08877 0.43316 0.88554 0.0
H1428 H 0.16598 0.39551 0.80311 0.0
H1429 H 0.13261 0.34496 0.78956 0.0
C1430 C 0.07378 0.32906 0.82721 0.0
C1431 C 0.04383 0.32426 0.85017 0.0
C1432 C 0.09154 0.3595 0.83057 0.0
C1433 C 0.03082 0.35109 0.87396 0.0
C1434 C 0.0481 0.38118 0.8772 0.0
C1435 C 0.09796 0.41415 0.86391 0.0
C1436 C 0.12972 0.41789 0.84547 0.0
C1437 C 0.07889 0.38529 0.85675 0.0
C1438 C 0.14141 0.39325 0.81738 0.0
C1439 C 0.12246 0.36423 0.81 0.0
loop_
_geom_bond_atom_site_label_1
_geom_bond_atom_site_label_2
_geom_bond_distance
_geom_bond_site_symmetry_2
_ccdc_geom_bond_type
Zn0 N4 2.020 . S
Zn0 O8 2.019 . S
Zn0 N10 2.119 . S
Zn0 O18 1.975 . S
C1 N2 1.334 . S
C1 N5 1.336 . S
N2 C1 1.334 . S
N2 C3 1.334 . S
C3 N2 1.334 . S
C3 N4 1.336 . S
N4 Zn0 2.020 . S
N4 C3 1.336 . S
N4 N5 1.354 . S
N5 C1 1.336 . S
N5 N4 1.354 . S
N5 Zn9 2.020 . S
C6 O7 1.244 . S
C6 O30 1.257 . S
O7 C6 1.244 . S
O8 Zn0 2.019 . S
O8 C28 1.257 . S
Zn9 N5 2.020 . S
Zn9 O16 1.975 . S
Zn9 N25 2.119 . S
Zn9 O30 2.019 . S
N10 Zn0 2.119 . S
N10 C12 1.334 . S
N10 C13 1.328 . S
C11 C12 1.391 . S
C11 N14 1.329 . S
C11 H32 0.930 . S
C12 N10 1.334 . S
C12 C11 1.391 . S
C12 H19 0.930 . S
C13 N10 1.328 . S
C13 C15 1.392 . S
C13 H20 0.930 . S
N14 C11 1.329 . S
N14 C15 1.331 . S
C15 C13 1.392 . S
C15 N14 1.331 . S
O16 Zn9 1.975 . S
O16 C17 1.252 . S
C17 O16 1.252 . S
C17 O18 1.252 . S
O18 Zn0 1.975 . S
O18 C17 1.252 . S
H19 C12 0.930 . S
H20 C13 0.930 . S
C21 C22 1.392 . S
C21 N25 1.328 . S
C21 H27 0.930 . S
C22 C21 1.392 . S
C22 N26 1.331 . S
C23 C24 1.391 . S
C23 N26 1.329 . S
C23 H33 0.930 . S
C24 C23 1.391 . S
C24 N25 1.334 . S
C24 H31 0.930 . S
N25 Zn9 2.119 . S
N25 C21 1.328 . S
N25 C24 1.334 . S
N26 C22 1.331 . S
N26 C23 1.329 . S
H27 C21 0.930 . S
C28 O8 1.257 . S
C28 O29 1.244 . S
O29 C28 1.244 . S
O30 C6 1.257 . S
O30 Zn9 2.019 . S
H31 C24 0.930 . S
H32 C11 0.930 . S
H33 C23 0.930 . S
Zn34 N38 2.020 . S
Zn34 O42 2.019 . S
Zn34 N44 2.119 . S
Zn34 O52 1.975 . S
C35 N36 1.334 . S
C35 N39 1.336 . S
N36 C35 1.334 . S
N36 C37 1.334 . S
C37 N36 1.334 . S
C37 N38 1.336 . S
N38 Zn34 2.020 . S
N38 C37 1.336 . S
N38 N39 1.354 . S
N39 C35 1.336 . S
N39 N38 1.354 . S
N39 Zn43 2.020 . S
C40 O41 1.244 . S
C40 O64 1.257 . S
O41 C40 1.244 . S
O42 Zn34 2.019 . S
O42 C62 1.257 . S
Zn43 N39 2.020 . S
Zn43 O50 1.975 . S
Zn43 N59 2.119 . S
Zn43 O64 2.019 . S
N44 Zn34 2.119 . S
N44 C46 1.334 . S
N44 C47 1.328 . S
C45 C46 1.391 . S
C45 N48 1.329 . S
C45 H66 0.930 . S
C46 N44 1.334 . S
C46 C45 1.391 . S
C46 H53 0.930 . S
C47 N44 1.328 . S
C47 C49 1.392 . S
C47 H54 0.930 . S
N48 C45 1.329 . S
N48 C49 1.331 . S
C49 C47 1.392 . S
C49 N48 1.331 . S
O50 Zn43 1.975 . S
O50 C51 1.252 . S
C51 O50 1.252 . S
C51 O52 1.252 . S
O52 Zn34 1.975 . S
O52 C51 1.252 . S
H53 C46 0.930 . S
H54 C47 0.930 . S
C55 C56 1.392 . S
C55 N59 1.328 . S
C55 H61 0.930 . S
C56 C55 1.392 . S
C56 N60 1.331 . S
C57 C58 1.391 . S
C57 N60 1.329 . S
C57 H67 0.930 . S
C58 C57 1.391 . S
C58 N59 1.334 . S
C58 H65 0.930 . S
N59 Zn43 2.119 . S
N59 C55 1.328 . S
N59 C58 1.334 . S
N60 C56 1.331 . S
N60 C57 1.329 . S
H61 C55 0.930 . S
C62 O42 1.257 . S
C62 O63 1.244 . S
O63 C62 1.244 . S
O64 C40 1.257 . S
O64 Zn43 2.019 . S
H65 C58 0.930 . S
H66 C45 0.930 . S
H67 C57 0.930 . S
Zn68 N72 2.020 . S
Zn68 O76 2.019 . S
Zn68 N78 2.119 . S
Zn68 O86 1.975 1_655 S
C69 N70 1.334 . S
C69 N73 1.336 . S
N70 C69 1.334 . S
N70 C71 1.334 . S
C71 N70 1.334 . S
C71 N72 1.336 . S
N72 Zn68 2.020 . S
N72 C71 1.336 . S
N72 N73 1.354 . S
N73 C69 1.336 . S
N73 N72 1.354 . S
N73 Zn77 2.020 . S
C74 O75 1.244 . S
C74 O98 1.257 1_655 S
O75 C74 1.244 . S
O76 Zn68 2.019 . S
O76 C96 1.257 . S
Zn77 N73 2.020 . S
Zn77 O84 1.975 1_655 S
Zn77 N93 2.119 1_655 S
Zn77 O98 2.019 1_655 S
N78 Zn68 2.119 . S
N78 C80 1.334 . S
N78 C81 1.328 . S
C79 C80 1.391 . S
C79 N82 1.329 . S
C79 H100 0.930 . S
C80 N78 1.334 . S
C80 C79 1.391 . S
C80 H87 0.930 . S
C81 N78 1.328 . S
C81 C83 1.392 . S
C81 H88 0.930 . S
N82 C79 1.329 . S
N82 C83 1.331 . S
C83 C81 1.392 . S
C83 N82 1.331 . S
O84 Zn77 1.975 1_455 S
O84 C85 1.252 . S
C85 O84 1.252 . S
C85 O86 1.252 . S
O86 Zn68 1.975 1_455 S
O86 C85 1.252 . S
H87 C80 0.930 . S
H88 C81 0.930 . S
C89 C90 1.392 . S
C89 N93 1.328 . S
C89 H95 0.930 . S
C90 C89 1.392 . S
C90 N94 1.331 . S
C91 C92 1.391 . S
C91 N94 1.329 . S
C91 H101 0.930 . S
C92 C91 1.391 . S
C92 N93 1.334 . S
C92 H99 0.930 . S
N93 Zn77 2.119 1_455 S
N93 C89 1.328 . S
N93 C92 1.334 . S
N94 C90 1.331 . S
N94 C91 1.329 . S
H95 C89 0.930 . S
C96 O76 1.257 . S
C96 O97 1.244 . S
O97 C96 1.244 . S
O98 C74 1.257 1_455 S
O98 Zn77 2.019 1_455 S
H99 C92 0.930 . S
H100 C79 0.930 . S
H101 C91 0.930 . S
Zn102 N106 2.020 . S
Zn102 O110 2.019 . S
Zn102 N112 2.119 . S
Zn102 O120 1.975 1_565 S
C103 N104 1.334 . S
C103 N107 1.336 . S
N104 C103 1.334 . S
N104 C105 1.334 . S
C105 N104 1.334 . S
C105 N106 1.336 . S
N106 Zn102 2.020 . S
N106 C105 1.336 . S
N106 N107 1.354 . S
N107 C103 1.336 . S
N107 N106 1.354 . S
N107 Zn111 2.020 . S
C108 O109 1.244 . S
C108 O132 1.257 1_565 S
O109 C108 1.244 . S
O110 Zn102 2.019 . S
O110 C130 1.257 . S
Zn111 N107 2.020 . S
Zn111 O118 1.975 1_565 S
Zn111 N127 2.119 1_565 S
Zn111 O132 2.019 1_565 S
N112 Zn102 2.119 . S
N112 C114 1.334 . S
N112 C115 1.328 . S
C113 C114 1.391 . S
C113 N116 1.329 . S
C113 H134 0.930 . S
C114 N112 1.334 . S
C114 C113 1.391 . S
C114 H121 0.930 . S
C115 N112 1.328 . S
C115 C117 1.392 . S
C115 H122 0.930 . S
N116 C113 1.329 . S
N116 C117 1.331 . S
C117 C115 1.392 . S
C117 N116 1.331 . S
O118 Zn111 1.975 1_545 S
O118 C119 1.252 . S
C119 O118 1.252 . S
C119 O120 1.252 . S
O120 Zn102 1.975 1_545 S
O120 C119 1.252 . S
H121 C114 0.930 . S
H122 C115 0.930 . S
C123 C124 1.392 . S
C123 N127 1.328 . S
C123 H129 0.930 . S
C124 C123 1.392 . S
C124 N128 1.331 . S
C125 C126 1.391 . S
C125 N128 1.329 . S
C125 H135 0.930 . S
C126 C125 1.391 . S
C126 N127 1.334 . S
C126 H133 0.930 . S
N127 Zn111 2.119 1_545 S
N127 C123 1.328 . S
N127 C126 1.334 . S
N128 C124 1.331 . S
N128 C125 1.329 . S
H129 C123 0.930 . S
C130 O110 1.257 . S
C130 O131 1.244 . S
O131 C130 1.244 . S
O132 C108 1.257 1_545 S
O132 Zn111 2.019 1_545 S
H133 C126 0.930 . S
H134 C113 0.930 . S
H135 C125 0.930 . S
Zn136 N140 2.020 . S
Zn136 O144 2.019 1_455 S
Zn136 N146 2.119 1_455 S
Zn136 O154 1.975 1_455 S
C137 N138 1.334 . S
C137 N141 1.336 . S
N138 C137 1.334 . S
N138 C139 1.334 . S
C139 N138 1.334 . S
C139 N140 1.336 . S
N140 Zn136 2.020 . S
N140 C139 1.336 . S
N140 N141 1.354 . S
N141 C137 1.336 . S
N141 N140 1.354 . S
N141 Zn145 2.020 . S
C142 O143 1.244 1_556 S
C142 O166 1.257 1_556 S
O143 C142 1.244 1_554 S
O144 Zn136 2.019 1_655 S
O144 C164 1.257 1_655 S
Zn145 N141 2.020 . S
Zn145 O152 1.975 1_455 S
Zn145 N161 2.119 . S
Zn145 O166 2.019 . S
N146 Zn136 2.119 1_655 S
N146 C148 1.334 . S
N146 C149 1.328 . S
C147 C148 1.391 . S
C147 N150 1.329 . S
C147 H168 0.930 . S
C148 N146 1.334 . S
C148 C147 1.391 . S
C148 H155 0.930 . S
C149 N146 1.328 . S
C149 C151 1.392 . S
C149 H156 0.930 . S
N150 C147 1.329 . S
N150 C151 1.331 . S
C151 C149 1.392 . S
C151 N150 1.331 . S
O152 Zn145 1.975 1_655 S
O152 C153 1.252 . S
C153 O152 1.252 . S
C153 O154 1.252 . S
O154 Zn136 1.975 1_655 S
O154 C153 1.252 . S
H155 C148 0.930 . S
H156 C149 0.930 . S
C157 C158 1.392 . S
C157 N161 1.328 . S
C157 H163 0.930 . S
C158 C157 1.392 . S
C158 N162 1.331 . S
C159 C160 1.391 . S
C159 N162 1.329 . S
C159 H169 0.930 . S
C160 C159 1.391 . S
C160 N161 1.334 . S
C160 H167 0.930 . S
N161 Zn145 2.119 . S
N161 C157 1.328 . S
N161 C160 1.334 . S
N162 C158 1.331 . S
N162 C159 1.329 . S
H163 C157 0.930 . S
C164 O144 1.257 1_455 S
C164 O165 1.244 . S
O165 C164 1.244 . S
O166 C142 1.257 1_554 S
O166 Zn145 2.019 . S
H167 C160 0.930 . S
H168 C147 0.930 . S
H169 C159 0.930 . S
Zn170 N174 2.020 . S
Zn170 O178 2.019 1_545 S
Zn170 N180 2.119 1_545 S
Zn170 O188 1.975 1_545 S
C171 N172 1.334 . S
C171 N175 1.336 . S
N172 C171 1.334 . S
N172 C173 1.334 . S
C173 N172 1.334 . S
C173 N174 1.336 . S
N174 Zn170 2.020 . S
N174 C173 1.336 . S
N174 N175 1.354 . S
N175 C171 1.336 . S
N175 N174 1.354 . S
N175 Zn179 2.020 . S
C176 O177 1.244 1_556 S
C176 O200 1.257 1_556 S
O177 C176 1.244 1_554 S
O178 Zn170 2.019 1_565 S
O178 C198 1.257 1_565 S
Zn179 N175 2.020 . S
Zn179 O186 1.975 1_545 S
Zn179 N195 2.119 . S
Zn179 O200 2.019 . S
N180 Zn170 2.119 1_565 S
N180 C182 1.334 . S
N180 C183 1.328 . S
C181 C182 1.391 . S
C181 N184 1.329 . S
C181 H202 0.930 . S
C182 N180 1.334 . S
C182 C181 1.391 . S
C182 H189 0.930 . S
C183 N180 1.328 . S
C183 C185 1.392 . S
C183 H190 0.930 . S
N184 C181 1.329 . S
N184 C185 1.331 . S
C185 C183 1.392 . S
C185 N184 1.331 . S
O186 Zn179 1.975 1_565 S
O186 C187 1.252 . S
C187 O186 1.252 . S
C187 O188 1.252 . S
O188 Zn170 1.975 1_565 S
O188 C187 1.252 . S
H189 C182 0.930 . S
H190 C183 0.930 . S
C191 C192 1.392 . S
C191 N195 1.328 . S
C191 H197 0.930 . S
C192 C191 1.392 . S
C192 N196 1.331 . S
C193 C194 1.391 . S
C193 N196 1.329 . S
C193 H203 0.930 . S
C194 C193 1.391 . S
C194 N195 1.334 . S
C194 H201 0.930 . S
N195 Zn179 2.119 . S
N195 C191 1.328 . S
N195 C194 1.334 . S
N196 C192 1.331 . S
N196 C193 1.329 . S
H197 C191 0.930 . S
C198 O178 1.257 1_545 S
C198 O199 1.244 . S
O199 C198 1.244 . S
O200 C176 1.257 1_554 S
O200 Zn179 2.019 . S
H201 C194 0.930 . S
H202 C181 0.930 . S
H203 C193 0.930 . S
Zn204 N208 2.020 . S
Zn204 O212 2.019 . S
Zn204 N214 2.119 . S
Zn204 O222 1.975 . S
C205 N206 1.334 . S
C205 N209 1.336 . S
N206 C205 1.334 . S
N206 C207 1.334 . S
C207 N206 1.334 . S
C207 N208 1.336 . S
N208 Zn204 2.020 . S
N208 C207 1.336 . S
N208 N209 1.354 . S
N209 C205 1.336 . S
N209 N208 1.354 . S
N209 Zn213 2.020 . S
C210 O211 1.244 1_556 S
C210 O234 1.257 1_556 S
O211 C210 1.244 1_554 S
O212 Zn204 2.019 . S
O212 C232 1.257 . S
Zn213 N209 2.020 . S
Zn213 O220 1.975 . S
Zn213 N229 2.119 . S
Zn213 O234 2.019 . S
N214 Zn204 2.119 . S
N214 C216 1.334 . S
N214 C217 1.328 . S
C215 C216 1.391 . S
C215 N218 1.329 . S
C215 H236 0.930 . S
C216 N214 1.334 . S
C216 C215 1.391 . S
C216 H223 0.930 . S
C217 N214 1.328 . S
C217 C219 1.392 . S
C217 H224 0.930 . S
N218 C215 1.329 . S
N218 C219 1.331 . S
C219 C217 1.392 . S
C219 N218 1.331 . S
O220 Zn213 1.975 . S
O220 C221 1.252 . S
C221 O220 1.252 . S
C221 O222 1.252 . S
O222 Zn204 1.975 . S
O222 C221 1.252 . S
H223 C216 0.930 . S
H224 C217 0.930 . S
C225 C226 1.392 . S
C225 N229 1.328 . S
C225 H231 0.930 . S
C226 C225 1.392 . S
C226 N230 1.331 . S
C227 C228 1.391 . S
C227 N230 1.329 . S
C227 H237 0.930 . S
C228 C227 1.391 . S
C228 N229 1.334 . S
C228 H235 0.930 . S
N229 Zn213 2.119 . S
N229 C225 1.328 . S
N229 C228 1.334 . S
N230 C226 1.331 . S
N230 C227 1.329 . S
H231 C225 0.930 . S
C232 O212 1.257 . S
C232 O233 1.244 . S
O233 C232 1.244 . S
O234 C210 1.257 1_554 S
O234 Zn213 2.019 . S
H235 C228 0.930 . S
H236 C215 0.930 . S
H237 C227 0.930 . S
Zn238 N242 2.020 . S
Zn238 O246 2.019 . S
Zn238 N248 2.119 . S
Zn238 O256 1.975 . S
C239 N240 1.334 . S
C239 N243 1.336 . S
N240 C239 1.334 . S
N240 C241 1.334 . S
C241 N240 1.334 . S
C241 N242 1.336 . S
N242 Zn238 2.020 . S
N242 C241 1.336 . S
N242 N243 1.354 . S
N243 C239 1.336 . S
N243 N242 1.354 . S
N243 Zn247 2.020 . S
C244 O245 1.244 1_556 S
C244 O268 1.257 1_556 S
O245 C244 1.244 1_554 S
O246 Zn238 2.019 . S
O246 C266 1.257 . S
Zn247 N243 2.020 . S
Zn247 O254 1.975 . S
Zn247 N263 2.119 . S
Zn247 O268 2.019 . S
N248 Zn238 2.119 . S
N248 C250 1.334 . S
N248 C251 1.328 . S
C249 C250 1.391 . S
C249 N252 1.329 . S
C249 H270 0.930 . S
C250 N248 1.334 . S
C250 C249 1.391 . S
C250 H257 0.930 . S
C251 N248 1.328 . S
C251 C253 1.392 . S
C251 H258 0.930 . S
N252 C249 1.329 . S
N252 C253 1.331 . S
C253 C251 1.392 . S
C253 N252 1.331 . S
O254 Zn247 1.975 . S
O254 C255 1.252 . S
C255 O254 1.252 . S
C255 O256 1.252 . S
O256 Zn238 1.975 . S
O256 C255 1.252 . S
H257 C250 0.930 . S
H258 C251 0.930 . S
C259 C260 1.392 . S
C259 N263 1.328 . S
C259 H265 0.930 . S
C260 C259 1.392 . S
C260 N264 1.331 . S
C261 C262 1.391 . S
C261 N264 1.329 . S
C261 H271 0.930 . S
C262 C261 1.391 . S
C262 N263 1.334 . S
C262 H269 0.930 . S
N263 Zn247 2.119 . S
N263 C259 1.328 . S
N263 C262 1.334 . S
N264 C260 1.331 . S
N264 C261 1.329 . S
H265 C259 0.930 . S
C266 O246 1.257 . S
C266 O267 1.244 . S
O267 C266 1.244 . S
O268 C244 1.257 1_554 S
O268 Zn247 2.019 . S
H269 C262 0.930 . S
H270 C249 0.930 . S
H271 C261 0.930 . S
Zn272 N276 2.020 . S
Zn272 O280 2.019 . S
Zn272 N282 2.119 . S
Zn272 O290 1.975 . S
C273 N274 1.334 . S
C273 N277 1.336 . S
N274 C273 1.334 . S
N274 C275 1.334 . S
C275 N274 1.334 . S
C275 N276 1.336 . S
N276 Zn272 2.020 . S
N276 C275 1.336 . S
N276 N277 1.354 . S
N277 C273 1.336 . S
N277 N276 1.354 . S
N277 Zn281 2.020 . S
C278 O279 1.244 . S
C278 O302 1.257 . S
O279 C278 1.244 . S
O280 Zn272 2.019 . S
O280 C300 1.257 . S
Zn281 N277 2.020 . S
Zn281 O288 1.975 . S
Zn281 N297 2.119 . S
Zn281 O302 2.019 . S
N282 Zn272 2.119 . S
N282 C284 1.334 . S
N282 C285 1.328 . S
C283 C284 1.391 . S
C283 N286 1.329 . S
C283 H304 0.930 . S
C284 N282 1.334 . S
C284 C283 1.391 . S
C284 H291 0.930 . S
C285 N282 1.328 . S
C285 C287 1.392 . S
C285 H292 0.930 . S
N286 C283 1.329 . S
N286 C287 1.331 . S
C287 C285 1.392 . S
C287 N286 1.331 . S
O288 Zn281 1.975 . S
O288 C289 1.252 . S
C289 O288 1.252 . S
C289 O290 1.252 . S
O290 Zn272 1.975 . S
O290 C289 1.252 . S
H291 C284 0.930 . S
H292 C285 0.930 . S
C293 C294 1.392 . S
C293 N297 1.328 . S
C293 H299 0.930 . S
C294 C293 1.392 . S
C294 N298 1.331 . S
C295 C296 1.391 . S
C295 N298 1.329 . S
C295 H305 0.930 . S
C296 C295 1.391 . S
C296 N297 1.334 . S
C296 H303 0.930 . S
N297 Zn281 2.119 . S
N297 C293 1.328 . S
N297 C296 1.334 . S
N298 C294 1.331 . S
N298 C295 1.329 . S
H299 C293 0.930 . S
C300 O280 1.257 . S
C300 O301 1.244 . S
O301 C300 1.244 . S
O302 C278 1.257 . S
O302 Zn281 2.019 . S
H303 C296 0.930 . S
H304 C283 0.930 . S
H305 C295 0.930 . S
Zn306 N310 2.020 . S
Zn306 O314 2.019 . S
Zn306 N316 2.119 . S
Zn306 O324 1.975 . S
C307 N308 1.334 . S
C307 N311 1.336 . S
N308 C307 1.334 . S
N308 C309 1.334 . S
C309 N308 1.334 . S
C309 N310 1.336 . S
N310 Zn306 2.020 . S
N310 C309 1.336 . S
N310 N311 1.354 . S
N311 C307 1.336 . S
N311 N310 1.354 . S
N311 Zn315 2.020 . S
C312 O313 1.244 . S
C312 O336 1.257 . S
O313 C312 1.244 . S
O314 Zn306 2.019 . S
O314 C334 1.257 . S
Zn315 N311 2.020 . S
Zn315 O322 1.975 . S
Zn315 N331 2.119 . S
Zn315 O336 2.019 . S
N316 Zn306 2.119 . S
N316 C318 1.334 . S
N316 C319 1.328 . S
C317 C318 1.391 . S
C317 N320 1.329 . S
C317 H338 0.930 . S
C318 N316 1.334 . S
C318 C317 1.391 . S
C318 H325 0.930 . S
C319 N316 1.328 . S
C319 C321 1.392 . S
C319 H326 0.930 . S
N320 C317 1.329 . S
N320 C321 1.331 . S
C321 C319 1.392 . S
C321 N320 1.331 . S
O322 Zn315 1.975 . S
O322 C323 1.252 . S
C323 O322 1.252 . S
C323 O324 1.252 . S
O324 Zn306 1.975 . S
O324 C323 1.252 . S
H325 C318 0.930 . S
H326 C319 0.930 . S
C327 C328 1.392 . S
C327 N331 1.328 . S
C327 H333 0.930 . S
C328 C327 1.392 . S
C328 N332 1.331 . S
C329 C330 1.391 . S
C329 N332 1.329 . S
C329 H339 0.930 . S
C330 C329 1.391 . S
C330 N331 1.334 . S
C330 H337 0.930 . S
N331 Zn315 2.119 . S
N331 C327 1.328 . S
N331 C330 1.334 . S
N332 C328 1.331 . S
N332 C329 1.329 . S
H333 C327 0.930 . S
C334 O314 1.257 . S
C334 O335 1.244 . S
O335 C334 1.244 . S
O336 C312 1.257 . S
O336 Zn315 2.019 . S
H337 C330 0.930 . S
H338 C317 0.930 . S
H339 C329 0.930 . S
Zn340 N344 2.020 . S
Zn340 O348 2.019 . S
Zn340 N350 2.119 . S
Zn340 O358 1.975 1_455 S
C341 N342 1.334 . S
C341 N345 1.336 . S
N342 C341 1.334 . S
N342 C343 1.334 . S
C343 N342 1.334 . S
C343 N344 1.336 . S
N344 Zn340 2.020 . S
N344 C343 1.336 . S
N344 N345 1.354 . S
N345 C341 1.336 . S
N345 N344 1.354 . S
N345 Zn349 2.020 . S
C346 O347 1.244 . S
C346 O370 1.257 1_455 S
O347 C346 1.244 . S
O348 Zn340 2.019 . S
O348 C368 1.257 . S
Zn349 N345 2.020 . S
Zn349 O356 1.975 1_455 S
Zn349 N365 2.119 1_455 S
Zn349 O370 2.019 1_455 S
N350 Zn340 2.119 . S
N350 C352 1.334 . S
N350 C353 1.328 . S
C351 C352 1.391 . S
C351 N354 1.329 . S
C351 H372 0.930 . S
C352 N350 1.334 . S
C352 C351 1.391 . S
C352 H359 0.930 . S
C353 N350 1.328 . S
C353 C355 1.392 . S
C353 H360 0.930 . S
N354 C351 1.329 . S
N354 C355 1.331 . S
C355 C353 1.392 . S
C355 N354 1.331 . S
O356 Zn349 1.975 1_655 S
O356 C357 1.252 . S
C357 O356 1.252 . S
C357 O358 1.252 . S
O358 Zn340 1.975 1_655 S
O358 C357 1.252 . S
H359 C352 0.930 . S
H360 C353 0.930 . S
C361 C362 1.392 . S
C361 N365 1.328 . S
C361 H367 0.930 . S
C362 C361 1.392 . S
C362 N366 1.331 . S
C363 C364 1.391 . S
C363 N366 1.329 . S
C363 H373 0.930 . S
C364 C363 1.391 . S
C364 N365 1.334 . S
C364 H371 0.930 . S
N365 Zn349 2.119 1_655 S
N365 C361 1.328 . S
N365 C364 1.334 . S
N366 C362 1.331 . S
N366 C363 1.329 . S
H367 C361 0.930 . S
C368 O348 1.257 . S
C368 O369 1.244 . S
O369 C368 1.244 . S
O370 C346 1.257 1_655 S
O370 Zn349 2.019 1_655 S
H371 C364 0.930 . S
H372 C351 0.930 . S
H373 C363 0.930 . S
Zn374 N378 2.020 . S
Zn374 O382 2.019 1_545 S
Zn374 N384 2.119 1_545 S
Zn374 O392 1.975 1_545 S
C375 N376 1.334 . S
C375 N379 1.336 . S
N376 C375 1.334 . S
N376 C377 1.334 . S
C377 N376 1.334 . S
C377 N378 1.336 . S
N378 Zn374 2.020 . S
N378 C377 1.336 . S
N378 N379 1.354 . S
N379 C375 1.336 . S
N379 N378 1.354 . S
N379 Zn383 2.020 . S
C380 O381 1.244 . S
C380 O404 1.257 . S
O381 C380 1.244 . S
O382 Zn374 2.019 1_565 S
O382 C402 1.257 1_565 S
Zn383 N379 2.020 . S
Zn383 O390 1.975 1_545 S
Zn383 N399 2.119 . S
Zn383 O404 2.019 . S
N384 Zn374 2.119 1_565 S
N384 C386 1.334 . S
N384 C387 1.328 . S
C385 C386 1.391 . S
C385 N388 1.329 . S
C385 H406 0.930 . S
C386 N384 1.334 . S
C386 C385 1.391 . S
C386 H393 0.930 . S
C387 N384 1.328 . S
C387 C389 1.392 . S
C387 H394 0.930 . S
N388 C385 1.329 . S
N388 C389 1.331 . S
C389 C387 1.392 . S
C389 N388 1.331 . S
O390 Zn383 1.975 1_565 S
O390 C391 1.252 . S
C391 O390 1.252 . S
C391 O392 1.252 . S
O392 Zn374 1.975 1_565 S
O392 C391 1.252 . S
H393 C386 0.930 . S
H394 C387 0.930 . S
C395 C396 1.392 . S
C395 N399 1.328 . S
C395 H401 0.930 . S
C396 C395 1.392 . S
C396 N400 1.331 . S
C397 C398 1.391 . S
C397 N400 1.329 . S
C397 H407 0.930 . S
C398 C397 1.391 . S
C398 N399 1.334 . S
C398 H405 0.930 . S
N399 Zn383 2.119 . S
N399 C395 1.328 . S
N399 C398 1.334 . S
N400 C396 1.331 . S
N400 C397 1.329 . S
H401 C395 0.930 . S
C402 O382 1.257 1_545 S
C402 O403 1.244 . S
O403 C402 1.244 . S
O404 C380 1.257 . S
O404 Zn383 2.019 . S
H405 C398 0.930 . S
H406 C385 0.930 . S
H407 C397 0.930 . S
Zn408 N412 2.020 . S
Zn408 O416 2.019 1_655 S
Zn408 N418 2.119 1_655 S
Zn408 O426 1.975 1_655 S
C409 N410 1.334 . S
C409 N413 1.336 . S
N410 C409 1.334 . S
N410 C411 1.334 . S
C411 N410 1.334 . S
C411 N412 1.336 . S
N412 Zn408 2.020 . S
N412 C411 1.336 . S
N412 N413 1.354 . S
N413 C409 1.336 . S
N413 N412 1.354 . S
N413 Zn417 2.020 . S
C414 O415 1.244 1_554 S
C414 O438 1.257 1_554 S
O415 C414 1.244 1_556 S
O416 Zn408 2.019 1_455 S
O416 C436 1.257 1_455 S
Zn417 N413 2.020 . S
Zn417 O424 1.975 1_655 S
Zn417 N433 2.119 . S
Zn417 O438 2.019 . S
N418 Zn408 2.119 1_455 S
N418 C420 1.334 . S
N418 C421 1.328 . S
C419 C420 1.391 . S
C419 N422 1.329 . S
C419 H440 0.930 . S
C420 N418 1.334 . S
C420 C419 1.391 . S
C420 H427 0.930 . S
C421 N418 1.328 . S
C421 C423 1.392 . S
C421 H428 0.930 . S
N422 C419 1.329 . S
N422 C423 1.331 . S
C423 C421 1.392 . S
C423 N422 1.331 . S
O424 Zn417 1.975 1_455 S
O424 C425 1.252 . S
C425 O424 1.252 . S
C425 O426 1.252 . S
O426 Zn408 1.975 1_455 S
O426 C425 1.252 . S
H427 C420 0.930 . S
H428 C421 0.930 . S
C429 C430 1.392 . S
C429 N433 1.328 . S
C429 H435 0.930 . S
C430 C429 1.392 . S
C430 N434 1.331 . S
C431 C432 1.391 . S
C431 N434 1.329 . S
C431 H441 0.930 . S
C432 C431 1.391 . S
C432 N433 1.334 . S
C432 H439 0.930 . S
N433 Zn417 2.119 . S
N433 C429 1.328 . S
N433 C432 1.334 . S
N434 C430 1.331 . S
N434 C431 1.329 . S
H435 C429 0.930 . S
C436 O416 1.257 1_655 S
C436 O437 1.244 . S
O437 C436 1.244 . S
O438 C414 1.257 1_556 S
O438 Zn417 2.019 . S
H439 C432 0.930 . S
H440 C419 0.930 . S
H441 C431 0.930 . S
Zn442 N446 2.020 . S
Zn442 O450 2.019 1_565 S
Zn442 N452 2.119 1_565 S
Zn442 O460 1.975 1_565 S
C443 N444 1.334 . S
C443 N447 1.336 . S
N444 C443 1.334 . S
N444 C445 1.334 . S
C445 N444 1.334 . S
C445 N446 1.336 . S
N446 Zn442 2.020 . S
N446 C445 1.336 . S
N446 N447 1.354 . S
N447 C443 1.336 . S
N447 N446 1.354 . S
N447 Zn451 2.020 . S
C448 O449 1.244 1_554 S
C448 O472 1.257 1_554 S
O449 C448 1.244 1_556 S
O450 Zn442 2.019 1_545 S
O450 C470 1.257 1_545 S
Zn451 N447 2.020 . S
Zn451 O458 1.975 1_565 S
Zn451 N467 2.119 . S
Zn451 O472 2.019 . S
N452 Zn442 2.119 1_545 S
N452 C454 1.334 . S
N452 C455 1.328 . S
C453 C454 1.391 . S
C453 N456 1.329 . S
C453 H474 0.930 . S
C454 N452 1.334 . S
C454 C453 1.391 . S
C454 H461 0.930 . S
C455 N452 1.328 . S
C455 C457 1.392 . S
C455 H462 0.930 . S
N456 C453 1.329 . S
N456 C457 1.331 . S
C457 C455 1.392 . S
C457 N456 1.331 . S
O458 Zn451 1.975 1_545 S
O458 C459 1.252 . S
C459 O458 1.252 . S
C459 O460 1.252 . S
O460 Zn442 1.975 1_545 S
O460 C459 1.252 . S
H461 C454 0.930 . S
H462 C455 0.930 . S
C463 C464 1.392 . S
C463 N467 1.328 . S
C463 H469 0.930 . S
C464 C463 1.392 . S
C464 N468 1.331 . S
C465 C466 1.391 . S
C465 N468 1.329 . S
C465 H475 0.930 . S
C466 C465 1.391 . S
C466 N467 1.334 . S
C466 H473 0.930 . S
N467 Zn451 2.119 . S
N467 C463 1.328 . S
N467 C466 1.334 . S
N468 C464 1.331 . S
N468 C465 1.329 . S
H469 C463 0.930 . S
C470 O450 1.257 1_565 S
C470 O471 1.244 . S
O471 C470 1.244 . S
O472 C448 1.257 1_556 S
O472 Zn451 2.019 . S
H473 C466 0.930 . S
H474 C453 0.930 . S
H475 C465 0.930 . S
Zn476 N480 2.020 . S
Zn476 O484 2.019 . S
Zn476 N486 2.119 . S
Zn476 O494 1.975 . S
C477 N478 1.334 . S
C477 N481 1.336 . S
N478 C477 1.334 . S
N478 C479 1.334 . S
C479 N478 1.334 . S
C479 N480 1.336 . S
N480 Zn476 2.020 . S
N480 C479 1.336 . S
N480 N481 1.354 . S
N481 C477 1.336 . S
N481 N480 1.354 . S
N481 Zn485 2.020 . S
C482 O483 1.244 . S
C482 O506 1.257 . S
O483 C482 1.244 . S
O484 Zn476 2.019 . S
O484 C504 1.257 1_556 S
Zn485 N481 2.020 . S
Zn485 O492 1.975 . S
Zn485 N501 2.119 . S
Zn485 O506 2.019 . S
N486 Zn476 2.119 . S
N486 C488 1.334 . S
N486 C489 1.328 . S
C487 C488 1.391 . S
C487 N490 1.329 . S
C487 H508 0.930 . S
C488 N486 1.334 . S
C488 C487 1.391 . S
C488 H495 0.930 . S
C489 N486 1.328 . S
C489 C491 1.392 . S
C489 H496 0.930 . S
N490 C487 1.329 . S
N490 C491 1.331 . S
C491 C489 1.392 . S
C491 N490 1.331 . S
O492 Zn485 1.975 . S
O492 C493 1.252 . S
C493 O492 1.252 . S
C493 O494 1.252 . S
O494 Zn476 1.975 . S
O494 C493 1.252 . S
H495 C488 0.930 . S
H496 C489 0.930 . S
C497 C498 1.392 . S
C497 N501 1.328 . S
C497 H503 0.930 . S
C498 C497 1.392 . S
C498 N502 1.331 . S
C499 C500 1.391 . S
C499 N502 1.329 . S
C499 H509 0.930 . S
C500 C499 1.391 . S
C500 N501 1.334 . S
C500 H507 0.930 . S
N501 Zn485 2.119 . S
N501 C497 1.328 . S
N501 C500 1.334 . S
N502 C498 1.331 . S
N502 C499 1.329 . S
H503 C497 0.930 . S
C504 O484 1.257 1_554 S
C504 O505 1.244 1_554 S
O505 C504 1.244 1_556 S
O506 C482 1.257 . S
O506 Zn485 2.019 . S
H507 C500 0.930 . S
H508 C487 0.930 . S
H509 C499 0.930 . S
Zn510 N514 2.020 . S
Zn510 O518 2.019 . S
Zn510 N520 2.119 . S
Zn510 O528 1.975 . S
C511 N512 1.334 . S
C511 N515 1.336 . S
N512 C511 1.334 . S
N512 C513 1.334 . S
C513 N512 1.334 . S
C513 N514 1.336 . S
N514 Zn510 2.020 . S
N514 C513 1.336 . S
N514 N515 1.354 . S
N515 C511 1.336 . S
N515 N514 1.354 . S
N515 Zn519 2.020 . S
C516 O517 1.244 1_554 S
C516 O540 1.257 1_554 S
O517 C516 1.244 1_556 S
O518 Zn510 2.019 . S
O518 C538 1.257 . S
Zn519 N515 2.020 . S
Zn519 O526 1.975 . S
Zn519 N535 2.119 . S
Zn519 O540 2.019 . S
N520 Zn510 2.119 . S
N520 C522 1.334 . S
N520 C523 1.328 . S
C521 C522 1.391 . S
C521 N524 1.329 . S
C521 H542 0.930 . S
C522 N520 1.334 . S
C522 C521 1.391 . S
C522 H529 0.930 . S
C523 N520 1.328 . S
C523 C525 1.392 . S
C523 H530 0.930 . S
N524 C521 1.329 . S
N524 C525 1.331 . S
C525 C523 1.392 . S
C525 N524 1.331 . S
O526 Zn519 1.975 . S
O526 C527 1.252 . S
C527 O526 1.252 . S
C527 O528 1.252 . S
O528 Zn510 1.975 . S
O528 C527 1.252 . S
H529 C522 0.930 . S
H530 C523 0.930 . S
C531 C532 1.392 . S
C531 N535 1.328 . S
C531 H537 0.930 . S
C532 C531 1.392 . S
C532 N536 1.331 . S
C533 C534 1.391 . S
C533 N536 1.329 . S
C533 H543 0.930 . S
C534 C533 1.391 . S
C534 N535 1.334 . S
C534 H541 0.930 . S
N535 Zn519 2.119 . S
N535 C531 1.328 . S
N535 C534 1.334 . S
N536 C532 1.331 . S
N536 C533 1.329 . S
H537 C531 0.930 . S
C538 O518 1.257 . S
C538 O539 1.244 . S
O539 C538 1.244 . S
O540 C516 1.257 1_556 S
O540 Zn519 2.019 . S
H541 C534 0.930 . S
H542 C521 0.930 . S
H543 C533 0.930 . S
H544 C550 0.930 . S
H545 C553 0.930 . S
H546 C554 0.930 . S
H547 C555 0.930 . S
H548 C558 0.930 . S
H549 C559 0.930 . S
C550 H544 0.930 . S
C550 C551 1.355 . S
C550 C552 1.415 . S
C551 C550 1.355 . S
C551 C553 1.419 . S
C552 C550 1.415 . S
C552 C557 1.425 . S
C552 C559 1.409 . S
C553 H545 0.930 . S
C553 C551 1.419 . S
C553 C554 1.362 . S
C554 H546 0.930 . S
C554 C553 1.362 . S
C554 C557 1.409 . S
C555 H547 0.930 . S
C555 C556 1.355 . S
C555 C557 1.415 . S
C556 C555 1.355 . S
C556 C558 1.419 . S
C557 C552 1.425 . S
C557 C554 1.409 . S
C557 C555 1.415 . S
C558 H548 0.930 . S
C558 C556 1.419 . S
C558 C559 1.362 . S
C559 H549 0.930 . S
C559 C552 1.409 . S
C559 C558 1.362 . S
H560 C566 0.930 . S
H561 C569 0.930 . S
H562 C570 0.930 . S
H563 C571 0.930 . S
H564 C574 0.930 . S
H565 C575 0.930 . S
C566 H560 0.930 . S
C566 C567 1.355 . S
C566 C568 1.415 . S
C567 C566 1.355 . S
C567 C569 1.419 . S
C568 C566 1.415 . S
C568 C573 1.425 . S
C568 C575 1.409 . S
C569 H561 0.930 . S
C569 C567 1.419 . S
C569 C570 1.362 . S
C570 H562 0.930 . S
C570 C569 1.362 . S
C570 C573 1.409 . S
C571 H563 0.930 . S
C571 C572 1.355 . S
C571 C573 1.415 . S
C572 C571 1.355 . S
C572 C574 1.419 . S
C573 C568 1.425 . S
C573 C570 1.409 . S
C573 C571 1.415 . S
C574 H564 0.930 . S
C574 C572 1.419 . S
C574 C575 1.362 . S
C575 H565 0.930 . S
C575 C568 1.409 . S
C575 C574 1.362 . S
H576 C582 0.930 . S
H577 C585 0.930 . S
H578 C586 0.930 . S
H579 C587 0.930 . S
H580 C590 0.930 . S
H581 C591 0.930 . S
C582 H576 0.930 . S
C582 C583 1.355 . S
C582 C584 1.415 . S
C583 C582 1.355 . S
C583 C585 1.419 . S
C584 C582 1.415 . S
C584 C589 1.425 . S
C584 C591 1.409 . S
C585 H577 0.930 . S
C585 C583 1.419 . S
C585 C586 1.362 . S
C586 H578 0.930 . S
C586 C585 1.362 . S
C586 C589 1.409 . S
C587 H579 0.930 . S
C587 C588 1.355 . S
C587 C589 1.415 . S
C588 C587 1.355 . S
C588 C590 1.419 . S
C589 C584 1.425 . S
C589 C586 1.409 . S
C589 C587 1.415 . S
C590 H580 0.930 . S
C590 C588 1.419 . S
C590 C591 1.362 . S
C591 H581 0.930 . S
C591 C584 1.409 . S
C591 C590 1.362 . S
H592 C598 0.930 . S
H593 C601 0.930 . S
H594 C602 0.930 . S
H595 C603 0.930 . S
H596 C606 0.930 . S
H597 C607 0.930 . S
C598 H592 0.930 . S
C598 C599 1.355 . S
C598 C600 1.415 . S
C599 C598 1.355 . S
C599 C601 1.419 . S
C600 C598 1.415 . S
C600 C605 1.425 . S
C600 C607 1.409 . S
C601 H593 0.930 . S
C601 C599 1.419 . S
C601 C602 1.362 . S
C602 H594 0.930 . S
C602 C601 1.362 . S
C602 C605 1.409 . S
C603 H595 0.930 . S
C603 C604 1.355 . S
C603 C605 1.415 . S
C604 C603 1.355 . S
C604 C606 1.419 . S
C605 C600 1.425 . S
C605 C602 1.409 . S
C605 C603 1.415 . S
C606 H596 0.930 . S
C606 C604 1.419 . S
C606 C607 1.362 . S
C607 H597 0.930 . S
C607 C600 1.409 . S
C607 C606 1.362 . S
H608 C614 0.930 . S
H609 C617 0.930 . S
H610 C618 0.930 . S
H611 C619 0.930 . S
H612 C622 0.930 . S
H613 C623 0.930 . S
C614 H608 0.930 . S
C614 C615 1.355 . S
C614 C616 1.415 . S
C615 C614 1.355 . S
C615 C617 1.419 . S
C616 C614 1.415 . S
C616 C621 1.425 . S
C616 C623 1.409 . S
C617 H609 0.930 . S
C617 C615 1.419 . S
C617 C618 1.362 . S
C618 H610 0.930 . S
C618 C617 1.362 . S
C618 C621 1.409 . S
C619 H611 0.930 . S
C619 C620 1.355 . S
C619 C621 1.415 . S
C620 C619 1.355 . S
C620 C622 1.419 . S
C621 C616 1.425 . S
C621 C618 1.409 . S
C621 C619 1.415 . S
C622 H612 0.930 . S
C622 C620 1.419 . S
C622 C623 1.362 . S
C623 H613 0.930 . S
C623 C616 1.409 . S
C623 C622 1.362 . S
H624 C630 0.930 . S
H625 C633 0.930 . S
H626 C634 0.930 . S
H627 C635 0.930 . S
H628 C638 0.930 . S
H629 C639 0.930 . S
C630 H624 0.930 . S
C630 C631 1.355 . S
C630 C632 1.415 . S
C631 C630 1.355 . S
C631 C633 1.419 . S
C632 C630 1.415 . S
C632 C637 1.425 . S
C632 C639 1.409 . S
C633 H625 0.930 . S
C633 C631 1.419 . S
C633 C634 1.362 . S
C634 H626 0.930 . S
C634 C633 1.362 . S
C634 C637 1.409 . S
C635 H627 0.930 . S
C635 C636 1.355 . S
C635 C637 1.415 . S
C636 C635 1.355 . S
C636 C638 1.419 . S
C637 C632 1.425 . S
C637 C634 1.409 . S
C637 C635 1.415 . S
C638 H628 0.930 . S
C638 C636 1.419 . S
C638 C639 1.362 . S
C639 H629 0.930 . S
C639 C632 1.409 . S
C639 C638 1.362 . S
H640 C646 0.930 . S
H641 C649 0.930 . S
H642 C650 0.930 . S
H643 C651 0.930 . S
H644 C654 0.930 . S
H645 C655 0.930 . S
C646 H640 0.930 . S
C646 C647 1.355 . S
C646 C648 1.415 . S
C647 C646 1.355 . S
C647 C649 1.419 . S
C648 C646 1.415 . S
C648 C653 1.425 . S
C648 C655 1.409 . S
C649 H641 0.930 . S
C649 C647 1.419 . S
C649 C650 1.362 . S
C650 H642 0.930 . S
C650 C649 1.362 . S
C650 C653 1.409 . S
C651 H643 0.930 . S
C651 C652 1.355 . S
C651 C653 1.415 . S
C652 C651 1.355 . S
C652 C654 1.419 . S
C653 C648 1.425 . S
C653 C650 1.409 . S
C653 C651 1.415 . S
C654 H644 0.930 . S
C654 C652 1.419 . S
C654 C655 1.362 . S
C655 H645 0.930 . S
C655 C648 1.409 . S
C655 C654 1.362 . S
H656 C662 0.930 . S
H657 C665 0.930 . S
H658 C666 0.930 . S
H659 C667 0.930 . S
H660 C670 0.930 . S
H661 C671 0.930 . S
C662 H656 0.930 . S
C662 C663 1.355 . S
C662 C664 1.415 . S
C663 C662 1.355 . S
C663 C665 1.419 . S
C664 C662 1.415 . S
C664 C669 1.425 . S
C664 C671 1.409 . S
C665 H657 0.930 . S
C665 C663 1.419 . S
C665 C666 1.362 . S
C666 H658 0.930 . S
C666 C665 1.362 . S
C666 C669 1.409 . S
C667 H659 0.930 . S
C667 C668 1.355 . S
C667 C669 1.415 . S
C668 C667 1.355 . S
C668 C670 1.419 . S
C669 C664 1.425 . S
C669 C666 1.409 . S
C669 C667 1.415 . S
C670 H660 0.930 . S
C670 C668 1.419 . S
C670 C671 1.362 . S
C671 H661 0.930 . S
C671 C664 1.409 . S
C671 C670 1.362 . S
H672 C678 0.930 . S
H673 C681 0.930 . S
H674 C682 0.930 . S
H675 C683 0.930 . S
H676 C686 0.930 . S
H677 C687 0.930 . S
C678 H672 0.930 . S
C678 C679 1.355 . S
C678 C680 1.415 . S
C679 C678 1.355 . S
C679 C681 1.419 . S
C680 C678 1.415 . S
C680 C685 1.425 . S
C680 C687 1.409 . S
C681 H673 0.930 . S
C681 C679 1.419 . S
C681 C682 1.362 . S
C682 H674 0.930 . S
C682 C681 1.362 . S
C682 C685 1.409 . S
C683 H675 0.930 . S
C683 C684 1.355 . S
C683 C685 1.415 . S
C684 C683 1.355 . S
C684 C686 1.419 . S
C685 C680 1.425 . S
C685 C682 1.409 . S
C685 C683 1.415 . S
C686 H676 0.930 . S
C686 C684 1.419 . S
C686 C687 1.362 . S
C687 H677 0.930 . S
C687 C680 1.409 . S
C687 C686 1.362 . S
H688 C694 0.930 . S
H689 C697 0.930 . S
H690 C698 0.930 . S
H691 C699 0.930 . S
H692 C702 0.930 . S
H693 C703 0.930 . S
C694 H688 0.930 . S
C694 C695 1.355 . S
C694 C696 1.415 . S
C695 C694 1.355 . S
C695 C697 1.419 . S
C696 C694 1.415 . S
C696 C701 1.425 . S
C696 C703 1.409 . S
C697 H689 0.930 . S
C697 C695 1.419 . S
C697 C698 1.362 . S
C698 H690 0.930 . S
C698 C697 1.362 . S
C698 C701 1.409 . S
C699 H691 0.930 . S
C699 C700 1.355 . S
C699 C701 1.415 . S
C700 C699 1.355 . S
C700 C702 1.419 . S
C701 C696 1.425 . S
C701 C698 1.409 . S
C701 C699 1.415 . S
C702 H692 0.930 . S
C702 C700 1.419 . S
C702 C703 1.362 . S
C703 H693 0.930 . S
C703 C696 1.409 . S
C703 C702 1.362 . S
H704 C710 0.930 1_455 S
H705 C713 0.930 . S
H706 C714 0.930 . S
H707 C715 0.930 . S
H708 C718 0.931 . S
H709 C719 0.930 . S
C710 H704 0.930 1_655 S
C710 C711 1.355 . S
C710 C712 1.415 . S
C711 C710 1.355 . S
C711 C713 1.419 . S
C712 C710 1.415 . S
C712 C717 1.425 . S
C712 C719 1.409 1_655 S
C713 H705 0.930 . S
C713 C711 1.419 . S
C713 C714 1.362 . S
C714 H706 0.930 . S
C714 C713 1.362 . S
C714 C717 1.409 . S
C715 H707 0.930 . S
C715 C716 1.355 . S
C715 C717 1.415 . S
C716 C715 1.355 . S
C716 C718 1.417 1_655 S
C717 C712 1.425 . S
C717 C714 1.409 . S
C717 C715 1.415 . S
C718 H708 0.931 . S
C718 C716 1.417 1_455 S
C718 C719 1.363 . S
C719 H709 0.930 . S
C719 C712 1.409 1_455 S
C719 C718 1.363 . S
H720 C726 0.930 . S
H721 C729 0.930 . S
H722 C730 0.930 . S
H723 C731 0.930 . S
H724 C734 0.930 . S
H725 C735 0.930 . S
C726 H720 0.930 . S
C726 C727 1.355 . S
C726 C728 1.415 . S
C727 C726 1.355 . S
C727 C729 1.419 . S
C728 C726 1.415 . S
C728 C733 1.425 . S
C728 C735 1.409 . S
C729 H721 0.930 . S
C729 C727 1.419 . S
C729 C730 1.362 . S
C730 H722 0.930 . S
C730 C729 1.362 . S
C730 C733 1.409 . S
C731 H723 0.930 . S
C731 C732 1.355 . S
C731 C733 1.415 . S
C732 C731 1.355 . S
C732 C734 1.419 . S
C733 C728 1.425 . S
C733 C730 1.409 . S
C733 C731 1.415 . S
C734 H724 0.930 . S
C734 C732 1.419 . S
C734 C735 1.362 . S
C735 H725 0.930 . S
C735 C728 1.409 . S
C735 C734 1.362 . S
H736 C742 0.930 . S
H737 C745 0.930 . S
H738 C746 0.930 . S
H739 C747 0.930 . S
H740 C750 0.930 . S
H741 C751 0.930 . S
C742 H736 0.930 . S
C742 C743 1.355 . S
C742 C744 1.415 . S
C743 C742 1.355 . S
C743 C745 1.419 1_455 S
C744 C742 1.415 . S
C744 C749 1.425 1_455 S
C744 C751 1.409 . S
C745 H737 0.930 . S
C745 C743 1.419 1_655 S
C745 C746 1.362 . S
C746 H738 0.930 . S
C746 C745 1.362 . S
C746 C749 1.409 . S
C747 H739 0.930 . S
C747 C748 1.355 1_655 S
C747 C749 1.415 . S
C748 C747 1.355 1_455 S
C748 C750 1.419 . S
C749 C744 1.425 1_655 S
C749 C746 1.409 . S
C749 C747 1.415 . S
C750 H740 0.930 . S
C750 C748 1.419 . S
C750 C751 1.362 . S
C751 H741 0.930 . S
C751 C744 1.409 . S
C751 C750 1.362 . S
H752 C758 0.930 . S
H753 C761 0.930 . S
H754 C762 0.930 . S
H755 C763 0.930 . S
H756 C766 0.930 . S
H757 C767 0.930 . S
C758 H752 0.930 . S
C758 C759 1.355 1_565 S
C758 C760 1.415 . S
C759 C758 1.355 1_545 S
C759 C761 1.419 . S
C760 C758 1.415 . S
C760 C765 1.425 1_565 S
C760 C767 1.409 . S
C761 H753 0.930 . S
C761 C759 1.419 . S
C761 C762 1.362 . S
C762 H754 0.930 . S
C762 C761 1.362 . S
C762 C765 1.409 . S
C763 H755 0.930 . S
C763 C764 1.355 . S
C763 C765 1.415 . S
C764 C763 1.355 . S
C764 C766 1.419 1_545 S
C765 C760 1.425 1_545 S
C765 C762 1.409 . S
C765 C763 1.415 . S
C766 H756 0.930 . S
C766 C764 1.419 1_565 S
C766 C767 1.362 . S
C767 H757 0.930 . S
C767 C760 1.409 . S
C767 C766 1.362 . S
H768 C774 0.930 . S
H769 C777 0.930 . S
H770 C778 0.930 . S
H771 C779 0.930 . S
H772 C782 0.930 . S
H773 C783 0.930 . S
C774 H768 0.930 . S
C774 C775 1.355 . S
C774 C776 1.415 . S
C775 C774 1.355 . S
C775 C777 1.419 . S
C776 C774 1.415 . S
C776 C781 1.425 . S
C776 C783 1.409 . S
C777 H769 0.930 . S
C777 C775 1.419 . S
C777 C778 1.362 . S
C778 H770 0.930 . S
C778 C777 1.362 . S
C778 C781 1.409 . S
C779 H771 0.930 . S
C779 C780 1.355 . S
C779 C781 1.415 . S
C780 C779 1.355 . S
C780 C782 1.419 . S
C781 C776 1.425 . S
C781 C778 1.409 . S
C781 C779 1.415 . S
C782 H772 0.930 . S
C782 C780 1.419 . S
C782 C783 1.362 . S
C783 H773 0.930 . S
C783 C776 1.409 . S
C783 C782 1.362 . S
H784 C790 0.930 . S
H785 C793 0.930 . S
H786 C794 0.930 . S
H787 C795 0.930 . S
H788 C798 0.930 . S
H789 C799 0.930 . S
C790 H784 0.930 . S
C790 C791 1.355 . S
C790 C792 1.415 . S
C791 C790 1.355 . S
C791 C793 1.419 . S
C792 C790 1.415 . S
C792 C797 1.425 . S
C792 C799 1.409 . S
C793 H785 0.930 . S
C793 C791 1.419 . S
C793 C794 1.362 . S
C794 H786 0.930 . S
C794 C793 1.362 . S
C794 C797 1.409 . S
C795 H787 0.930 . S
C795 C796 1.355 . S
C795 C797 1.415 . S
C796 C795 1.355 . S
C796 C798 1.419 . S
C797 C792 1.425 . S
C797 C794 1.409 . S
C797 C795 1.415 . S
C798 H788 0.930 . S
C798 C796 1.419 . S
C798 C799 1.362 . S
C799 H789 0.930 . S
C799 C792 1.409 . S
C799 C798 1.362 . S
H800 C806 0.930 . S
H801 C809 0.930 . S
H802 C810 0.930 . S
H803 C811 0.930 . S
H804 C814 0.930 . S
H805 C815 0.930 . S
C806 H800 0.930 . S
C806 C807 1.355 . S
C806 C808 1.415 . S
C807 C806 1.355 . S
C807 C809 1.419 . S
C808 C806 1.415 . S
C808 C813 1.425 . S
C808 C815 1.409 . S
C809 H801 0.930 . S
C809 C807 1.419 . S
C809 C810 1.362 . S
C810 H802 0.930 . S
C810 C809 1.362 . S
C810 C813 1.409 . S
C811 H803 0.930 . S
C811 C812 1.355 . S
C811 C813 1.415 . S
C812 C811 1.355 . S
C812 C814 1.419 . S
C813 C808 1.425 . S
C813 C810 1.409 . S
C813 C811 1.415 . S
C814 H804 0.930 . S
C814 C812 1.419 . S
C814 C815 1.362 . S
C815 H805 0.930 . S
C815 C808 1.409 . S
C815 C814 1.362 . S
H816 C822 0.930 . S
H817 C825 0.930 . S
H818 C826 0.930 . S
H819 C827 0.930 . S
H820 C830 0.930 . S
H821 C831 0.930 . S
C822 H816 0.930 . S
C822 C823 1.355 . S
C822 C824 1.415 . S
C823 C822 1.355 . S
C823 C825 1.419 . S
C824 C822 1.415 . S
C824 C829 1.425 . S
C824 C831 1.409 . S
C825 H817 0.930 . S
C825 C823 1.419 . S
C825 C826 1.362 . S
C826 H818 0.930 . S
C826 C825 1.362 . S
C826 C829 1.409 . S
C827 H819 0.930 . S
C827 C828 1.355 . S
C827 C829 1.415 . S
C828 C827 1.355 . S
C828 C830 1.419 . S
C829 C824 1.425 . S
C829 C826 1.409 . S
C829 C827 1.415 . S
C830 H820 0.930 . S
C830 C828 1.419 . S
C830 C831 1.362 . S
C831 H821 0.930 . S
C831 C824 1.409 . S
C831 C830 1.362 . S
H832 C838 0.930 . S
H833 C841 0.930 . S
H834 C842 0.930 . S
H835 C843 0.930 1_655 S
H836 C846 0.930 . S
H837 C847 0.930 . S
C838 H832 0.930 . S
C838 C839 1.355 . S
C838 C840 1.415 . S
C839 C838 1.355 . S
C839 C841 1.419 1_455 S
C840 C838 1.415 . S
C840 C845 1.425 . S
C840 C847 1.409 . S
C841 H833 0.930 . S
C841 C839 1.419 1_655 S
C841 C842 1.362 . S
C842 H834 0.930 . S
C842 C841 1.362 . S
C842 C845 1.409 1_655 S
C843 H835 0.930 1_455 S
C843 C844 1.355 . S
C843 C845 1.415 . S
C844 C843 1.355 . S
C844 C846 1.419 . S
C845 C840 1.425 . S
C845 C842 1.409 1_455 S
C845 C843 1.415 . S
C846 H836 0.930 . S
C846 C844 1.419 . S
C846 C847 1.362 . S
C847 H837 0.930 . S
C847 C840 1.409 . S
C847 C846 1.362 . S
H848 C854 0.930 . S
H849 C857 0.930 . S
H850 C858 0.930 . S
H851 C859 0.930 . S
H852 C862 0.930 . S
H853 C863 0.930 . S
C854 H848 0.930 . S
C854 C855 1.355 1_565 S
C854 C856 1.415 . S
C855 C854 1.355 1_545 S
C855 C857 1.419 . S
C856 C854 1.415 . S
C856 C861 1.425 1_565 S
C856 C863 1.409 . S
C857 H849 0.930 . S
C857 C855 1.419 . S
C857 C858 1.362 . S
C858 H850 0.930 . S
C858 C857 1.362 . S
C858 C861 1.409 . S
C859 H851 0.930 . S
C859 C860 1.355 . S
C859 C861 1.415 . S
C860 C859 1.355 . S
C860 C862 1.419 1_545 S
C861 C856 1.425 1_545 S
C861 C858 1.409 . S
C861 C859 1.415 . S
C862 H852 0.930 . S
C862 C860 1.419 1_565 S
C862 C863 1.362 . S
C863 H853 0.930 . S
C863 C856 1.409 . S
C863 C862 1.362 . S
H864 C870 0.930 . S
H865 C873 0.930 . S
H866 C874 0.930 . S
H867 C875 0.930 . S
H868 C878 0.930 . S
H869 C879 0.930 . S
C870 H864 0.930 . S
C870 C871 1.355 . S
C870 C872 1.415 . S
C871 C870 1.355 . S
C871 C873 1.419 . S
C872 C870 1.415 . S
C872 C877 1.425 . S
C872 C879 1.409 . S
C873 H865 0.930 . S
C873 C871 1.419 . S
C873 C874 1.362 . S
C874 H866 0.930 . S
C874 C873 1.362 . S
C874 C877 1.409 . S
C875 H867 0.930 . S
C875 C876 1.355 . S
C875 C877 1.415 . S
C876 C875 1.355 . S
C876 C878 1.419 . S
C877 C872 1.425 . S
C877 C874 1.409 . S
C877 C875 1.415 . S
C878 H868 0.930 . S
C878 C876 1.419 . S
C878 C879 1.362 . S
C879 H869 0.930 . S
C879 C872 1.409 . S
C879 C878 1.362 . S
H880 C886 0.930 . S
H881 C889 0.930 . S
H882 C890 0.930 . S
H883 C891 0.930 . S
H884 C894 0.930 . S
H885 C895 0.930 . S
C886 H880 0.930 . S
C886 C887 1.355 . S
C886 C888 1.415 . S
C887 C886 1.355 . S
C887 C889 1.419 1_565 S
C888 C886 1.415 . S
C888 C893 1.425 1_565 S
C888 C895 1.409 . S
C889 H881 0.930 . S
C889 C887 1.419 1_545 S
C889 C890 1.362 . S
C890 H882 0.930 . S
C890 C889 1.362 . S
C890 C893 1.409 . S
C891 H883 0.930 . S
C891 C892 1.355 1_545 S
C891 C893 1.415 . S
C892 C891 1.355 1_565 S
C892 C894 1.419 . S
C893 C888 1.425 1_545 S
C893 C890 1.409 . S
C893 C891 1.415 . S
C894 H884 0.930 . S
C894 C892 1.419 . S
C894 C895 1.362 . S
C895 H885 0.930 . S
C895 C888 1.409 . S
C895 C894 1.362 . S
H896 C902 0.930 . S
H897 C905 0.930 . S
H898 C906 0.930 . S
H899 C907 0.930 . S
H900 C910 0.930 . S
H901 C911 0.930 . S
C902 H896 0.930 . S
C902 C903 1.355 . S
C902 C904 1.415 . S
C903 C902 1.355 . S
C903 C905 1.419 . S
C904 C902 1.415 . S
C904 C909 1.425 . S
C904 C911 1.409 . S
C905 H897 0.930 . S
C905 C903 1.419 . S
C905 C906 1.362 . S
C906 H898 0.930 . S
C906 C905 1.362 . S
C906 C909 1.409 . S
C907 H899 0.930 . S
C907 C908 1.355 . S
C907 C909 1.415 . S
C908 C907 1.355 . S
C908 C910 1.419 . S
C909 C904 1.425 . S
C909 C906 1.409 . S
C909 C907 1.415 . S
C910 H900 0.930 . S
C910 C908 1.419 . S
C910 C911 1.362 . S
C911 H901 0.930 . S
C911 C904 1.409 . S
C911 C910 1.362 . S
H912 C918 0.930 . S
H913 C921 0.930 . S
H914 C922 0.930 . S
H915 C923 0.930 . S
H916 C926 0.930 . S
H917 C927 0.930 . S
C918 H912 0.930 . S
C918 C919 1.355 . S
C918 C920 1.415 . S
C919 C918 1.355 . S
C919 C921 1.419 . S
C920 C918 1.415 . S
C920 C925 1.425 . S
C920 C927 1.409 . S
C921 H913 0.930 . S
C921 C919 1.419 . S
C921 C922 1.362 . S
C922 H914 0.930 . S
C922 C921 1.362 . S
C922 C925 1.409 . S
C923 H915 0.930 . S
C923 C924 1.355 . S
C923 C925 1.415 . S
C924 C923 1.355 . S
C924 C926 1.419 . S
C925 C920 1.425 . S
C925 C922 1.409 . S
C925 C923 1.415 . S
C926 H916 0.930 . S
C926 C924 1.419 . S
C926 C927 1.362 . S
C927 H917 0.930 . S
C927 C920 1.409 . S
C927 C926 1.362 . S
H928 C934 0.930 . S
H929 C937 0.930 . S
H930 C938 0.930 . S
H931 C939 0.930 . S
H932 C942 0.930 . S
H933 C943 0.930 . S
C934 H928 0.930 . S
C934 C935 1.355 . S
C934 C936 1.415 . S
C935 C934 1.355 . S
C935 C937 1.419 . S
C936 C934 1.415 . S
C936 C941 1.425 . S
C936 C943 1.409 . S
C937 H929 0.930 . S
C937 C935 1.419 . S
C937 C938 1.362 . S
C938 H930 0.930 . S
C938 C937 1.362 . S
C938 C941 1.409 . S
C939 H931 0.930 . S
C939 C940 1.355 . S
C939 C941 1.415 . S
C940 C939 1.355 . S
C940 C942 1.419 . S
C941 C936 1.425 . S
C941 C938 1.409 . S
C941 C939 1.415 . S
C942 H932 0.930 . S
C942 C940 1.419 . S
C942 C943 1.362 . S
C943 H933 0.930 . S
C943 C936 1.409 . S
C943 C942 1.362 . S
H944 C950 0.930 . S
H945 C953 0.930 . S
H946 C954 0.930 . S
H947 C955 0.930 . S
H948 C958 0.930 . S
H949 C959 0.930 . S
C950 H944 0.930 . S
C950 C951 1.355 . S
C950 C952 1.415 . S
C951 C950 1.355 . S
C951 C953 1.419 . S
C952 C950 1.415 . S
C952 C957 1.425 . S
C952 C959 1.409 . S
C953 H945 0.930 . S
C953 C951 1.419 . S
C953 C954 1.362 . S
C954 H946 0.930 . S
C954 C953 1.362 . S
C954 C957 1.409 . S
C955 H947 0.930 . S
C955 C956 1.355 . S
C955 C957 1.415 . S
C956 C955 1.355 . S
C956 C958 1.419 . S
C957 C952 1.425 . S
C957 C954 1.409 . S
C957 C955 1.415 . S
C958 H948 0.930 . S
C958 C956 1.419 . S
C958 C959 1.362 . S
C959 H949 0.930 . S
C959 C952 1.409 . S
C959 C958 1.362 . S
H960 C966 0.930 . S
H961 C969 0.930 . S
H962 C970 0.930 . S
H963 C971 0.930 . S
H964 C974 0.930 . S
H965 C975 0.930 . S
C966 H960 0.930 . S
C966 C967 1.355 . S
C966 C968 1.415 . S
C967 C966 1.355 . S
C967 C969 1.419 . S
C968 C966 1.415 . S
C968 C973 1.425 . S
C968 C975 1.409 . S
C969 H961 0.930 . S
C969 C967 1.419 . S
C969 C970 1.362 . S
C970 H962 0.930 . S
C970 C969 1.362 . S
C970 C973 1.409 . S
C971 H963 0.930 . S
C971 C972 1.355 . S
C971 C973 1.415 . S
C972 C971 1.355 . S
C972 C974 1.419 . S
C973 C968 1.425 . S
C973 C970 1.409 . S
C973 C971 1.415 . S
C974 H964 0.930 . S
C974 C972 1.419 . S
C974 C975 1.362 . S
C975 H965 0.930 . S
C975 C968 1.409 . S
C975 C974 1.362 . S
H976 C982 0.930 . S
H977 C985 0.930 . S
H978 C986 0.930 . S
H979 C987 0.930 . S
H980 C990 0.930 . S
H981 C991 0.930 . S
C982 H976 0.930 . S
C982 C983 1.355 . S
C982 C984 1.415 . S
C983 C982 1.355 . S
C983 C985 1.419 . S
C984 C982 1.415 . S
C984 C989 1.425 . S
C984 C991 1.409 . S
C985 H977 0.930 . S
C985 C983 1.419 . S
C985 C986 1.362 . S
C986 H978 0.930 . S
C986 C985 1.362 . S
C986 C989 1.409 . S
C987 H979 0.930 . S
C987 C988 1.355 . S
C987 C989 1.415 . S
C988 C987 1.355 . S
C988 C990 1.419 . S
C989 C984 1.425 . S
C989 C986 1.409 . S
C989 C987 1.415 . S
C990 H980 0.930 . S
C990 C988 1.419 . S
C990 C991 1.362 . S
C991 H981 0.930 . S
C991 C984 1.409 . S
C991 C990 1.362 . S
H992 C998 0.930 . S
H993 C1001 0.930 . S
H994 C1002 0.930 . S
H995 C1003 0.930 . S
H996 C1006 0.930 . S
H997 C1007 0.930 . S
C998 H992 0.930 . S
C998 C999 1.355 . S
C998 C1000 1.415 . S
C999 C998 1.355 . S
C999 C1001 1.419 1_556 S
C1000 C998 1.415 . S
C1000 C1005 1.425 1_556 S
C1000 C1007 1.409 . S
C1001 H993 0.930 . S
C1001 C999 1.419 1_554 S
C1001 C1002 1.362 . S
C1002 H994 0.930 . S
C1002 C1001 1.362 . S
C1002 C1005 1.409 . S
C1003 H995 0.930 . S
C1003 C1004 1.355 . S
C1003 C1005 1.415 . S
C1004 C1003 1.355 . S
C1004 C1006 1.419 . S
C1005 C1000 1.425 1_554 S
C1005 C1002 1.409 . S
C1005 C1003 1.415 . S
C1006 H996 0.930 . S
C1006 C1004 1.419 . S
C1006 C1007 1.362 1_554 S
C1007 H997 0.930 . S
C1007 C1000 1.409 . S
C1007 C1006 1.362 1_556 S
H1008 C1014 0.930 . S
H1009 C1017 0.930 . S
H1010 C1018 0.930 . S
H1011 C1019 0.930 . S
H1012 C1022 0.930 . S
H1013 C1023 0.930 . S
C1014 H1008 0.930 . S
C1014 C1015 1.355 . S
C1014 C1016 1.415 . S
C1015 C1014 1.355 . S
C1015 C1017 1.419 . S
C1016 C1014 1.415 . S
C1016 C1021 1.425 . S
C1016 C1023 1.409 1_554 S
C1017 H1009 0.930 . S
C1017 C1015 1.419 . S
C1017 C1018 1.362 . S
C1018 H1010 0.930 . S
C1018 C1017 1.362 . S
C1018 C1021 1.409 . S
C1019 H1011 0.930 . S
C1019 C1020 1.355 . S
C1019 C1021 1.415 1_556 S
C1020 C1019 1.355 . S
C1020 C1022 1.419 . S
C1021 C1016 1.425 . S
C1021 C1018 1.409 . S
C1021 C1019 1.415 1_554 S
C1022 H1012 0.930 . S
C1022 C1020 1.419 . S
C1022 C1023 1.362 . S
C1023 H1013 0.930 . S
C1023 C1016 1.409 1_556 S
C1023 C1022 1.362 . S
H1024 C1030 0.930 . S
H1025 C1033 0.930 . S
H1026 C1034 0.930 . S
H1027 C1035 0.930 . S
H1028 C1038 0.930 . S
H1029 C1039 0.930 . S
C1030 H1024 0.930 . S
C1030 C1031 1.355 . S
C1030 C1032 1.415 . S
C1031 C1030 1.355 . S
C1031 C1033 1.419 . S
C1032 C1030 1.415 . S
C1032 C1037 1.425 . S
C1032 C1039 1.409 1_554 S
C1033 H1025 0.930 . S
C1033 C1031 1.419 . S
C1033 C1034 1.362 . S
C1034 H1026 0.930 . S
C1034 C1033 1.362 . S
C1034 C1037 1.409 . S
C1035 H1027 0.930 . S
C1035 C1036 1.355 . S
C1035 C1037 1.415 1_556 S
C1036 C1035 1.355 . S
C1036 C1038 1.419 . S
C1037 C1032 1.425 . S
C1037 C1034 1.409 . S
C1037 C1035 1.415 1_554 S
C1038 H1028 0.930 . S
C1038 C1036 1.419 . S
C1038 C1039 1.362 . S
C1039 H1029 0.930 . S
C1039 C1032 1.409 1_556 S
C1039 C1038 1.362 . S
H1040 C1046 0.930 . S
H1041 C1049 0.930 . S
H1042 C1050 0.930 . S
H1043 C1051 0.930 . S
H1044 C1054 0.930 . S
H1045 C1055 0.930 . S
C1046 H1040 0.930 . S
C1046 C1047 1.355 . S
C1046 C1048 1.415 . S
C1047 C1046 1.355 . S
C1047 C1049 1.419 . S
C1048 C1046 1.415 . S
C1048 C1053 1.425 . S
C1048 C1055 1.409 1_554 S
C1049 H1041 0.930 . S
C1049 C1047 1.419 . S
C1049 C1050 1.362 . S
C1050 H1042 0.930 . S
C1050 C1049 1.362 . S
C1050 C1053 1.409 . S
C1051 H1043 0.930 . S
C1051 C1052 1.355 . S
C1051 C1053 1.415 1_556 S
C1052 C1051 1.355 . S
C1052 C1054 1.419 . S
C1053 C1048 1.425 . S
C1053 C1050 1.409 . S
C1053 C1051 1.415 1_554 S
C1054 H1044 0.930 . S
C1054 C1052 1.419 . S
C1054 C1055 1.362 . S
C1055 H1045 0.930 . S
C1055 C1048 1.409 1_556 S
C1055 C1054 1.362 . S
H1056 C1062 0.930 . S
H1057 C1065 0.930 . S
H1058 C1066 0.930 . S
H1059 C1067 0.930 . S
H1060 C1070 0.930 . S
H1061 C1071 0.930 . S
C1062 H1056 0.930 . S
C1062 C1063 1.355 . S
C1062 C1064 1.415 . S
C1063 C1062 1.355 . S
C1063 C1065 1.419 . S
C1064 C1062 1.415 . S
C1064 C1069 1.425 . S
C1064 C1071 1.409 . S
C1065 H1057 0.930 . S
C1065 C1063 1.419 . S
C1065 C1066 1.362 . S
C1066 H1058 0.930 . S
C1066 C1065 1.362 . S
C1066 C1069 1.409 . S
C1067 H1059 0.930 . S
C1067 C1068 1.355 . S
C1067 C1069 1.415 . S
C1068 C1067 1.355 . S
C1068 C1070 1.419 . S
C1069 C1064 1.425 . S
C1069 C1066 1.409 . S
C1069 C1067 1.415 . S
C1070 H1060 0.930 . S
C1070 C1068 1.419 . S
C1070 C1071 1.362 . S
C1071 H1061 0.930 . S
C1071 C1064 1.409 . S
C1071 C1070 1.362 . S
H1072 C1078 0.930 . S
H1073 C1081 0.930 . S
H1074 C1082 0.930 . S
H1075 C1083 0.930 . S
H1076 C1086 0.930 . S
H1077 C1087 0.930 . S
C1078 H1072 0.930 . S
C1078 C1079 1.355 . S
C1078 C1080 1.415 . S
C1079 C1078 1.355 . S
C1079 C1081 1.419 . S
C1080 C1078 1.415 . S
C1080 C1085 1.425 . S
C1080 C1087 1.409 . S
C1081 H1073 0.930 . S
C1081 C1079 1.419 . S
C1081 C1082 1.362 . S
C1082 H1074 0.930 . S
C1082 C1081 1.362 . S
C1082 C1085 1.409 . S
C1083 H1075 0.930 . S
C1083 C1084 1.355 . S
C1083 C1085 1.415 . S
C1084 C1083 1.355 . S
C1084 C1086 1.419 . S
C1085 C1080 1.425 . S
C1085 C1082 1.409 . S
C1085 C1083 1.415 . S
C1086 H1076 0.930 . S
C1086 C1084 1.419 . S
C1086 C1087 1.362 . S
C1087 H1077 0.930 . S
C1087 C1080 1.409 . S
C1087 C1086 1.362 . S
H1088 C1094 0.930 . S
H1089 C1097 0.930 . S
H1090 C1098 0.930 . S
H1091 C1099 0.930 . S
H1092 C1102 0.930 . S
H1093 C1103 0.930 . S
C1094 H1088 0.930 . S
C1094 C1095 1.355 . S
C1094 C1096 1.415 . S
C1095 C1094 1.355 . S
C1095 C1097 1.419 . S
C1096 C1094 1.415 . S
C1096 C1101 1.425 . S
C1096 C1103 1.409 . S
C1097 H1089 0.930 . S
C1097 C1095 1.419 . S
C1097 C1098 1.362 . S
C1098 H1090 0.930 . S
C1098 C1097 1.362 . S
C1098 C1101 1.409 . S
C1099 H1091 0.930 . S
C1099 C1100 1.355 . S
C1099 C1101 1.415 . S
C1100 C1099 1.355 . S
C1100 C1102 1.419 . S
C1101 C1096 1.425 . S
C1101 C1098 1.409 . S
C1101 C1099 1.415 . S
C1102 H1092 0.930 . S
C1102 C1100 1.419 . S
C1102 C1103 1.362 . S
C1103 H1093 0.930 . S
C1103 C1096 1.409 . S
C1103 C1102 1.362 . S
H1104 C1110 0.930 . S
H1105 C1113 0.930 . S
H1106 C1114 0.930 . S
H1107 C1115 0.930 . S
H1108 C1118 0.930 . S
H1109 C1119 0.930 . S
C1110 H1104 0.930 . S
C1110 C1111 1.355 . S
C1110 C1112 1.415 . S
C1111 C1110 1.355 . S
C1111 C1113 1.419 . S
C1112 C1110 1.415 . S
C1112 C1117 1.425 . S
C1112 C1119 1.409 . S
C1113 H1105 0.930 . S
C1113 C1111 1.419 . S
C1113 C1114 1.362 . S
C1114 H1106 0.930 . S
C1114 C1113 1.362 . S
C1114 C1117 1.409 . S
C1115 H1107 0.930 . S
C1115 C1116 1.355 . S
C1115 C1117 1.415 . S
C1116 C1115 1.355 . S
C1116 C1118 1.419 . S
C1117 C1112 1.425 . S
C1117 C1114 1.409 . S
C1117 C1115 1.415 . S
C1118 H1108 0.930 . S
C1118 C1116 1.419 . S
C1118 C1119 1.362 . S
C1119 H1109 0.930 . S
C1119 C1112 1.409 . S
C1119 C1118 1.362 . S
H1120 C1126 0.930 . S
H1121 C1129 0.930 . S
H1122 C1130 0.930 . S
H1123 C1131 0.930 . S
H1124 C1134 0.930 . S
H1125 C1135 0.930 . S
C1126 H1120 0.930 . S
C1126 C1127 1.355 . S
C1126 C1128 1.415 1_554 S
C1127 C1126 1.355 . S
C1127 C1129 1.419 . S
C1128 C1126 1.415 1_556 S
C1128 C1133 1.425 . S
C1128 C1135 1.409 . S
C1129 H1121 0.930 . S
C1129 C1127 1.419 . S
C1129 C1130 1.362 1_554 S
C1130 H1122 0.930 . S
C1130 C1129 1.362 1_556 S
C1130 C1133 1.409 . S
C1131 H1123 0.930 . S
C1131 C1132 1.355 . S
C1131 C1133 1.415 . S
C1132 C1131 1.355 . S
C1132 C1134 1.419 . S
C1133 C1128 1.425 . S
C1133 C1130 1.409 . S
C1133 C1131 1.415 . S
C1134 H1124 0.930 . S
C1134 C1132 1.419 . S
C1134 C1135 1.362 . S
C1135 H1125 0.930 . S
C1135 C1128 1.409 . S
C1135 C1134 1.362 . S
H1136 C1142 0.930 . S
H1137 C1145 0.930 . S
H1138 C1146 0.930 . S
H1139 C1147 0.930 . S
H1140 C1150 0.930 . S
H1141 C1151 0.930 . S
C1142 H1136 0.930 . S
C1142 C1143 1.355 . S
C1142 C1144 1.415 1_554 S
C1143 C1142 1.355 . S
C1143 C1145 1.419 . S
C1144 C1142 1.415 1_556 S
C1144 C1149 1.425 . S
C1144 C1151 1.409 . S
C1145 H1137 0.930 . S
C1145 C1143 1.419 . S
C1145 C1146 1.362 . S
C1146 H1138 0.930 . S
C1146 C1145 1.362 . S
C1146 C1149 1.409 1_554 S
C1147 H1139 0.930 . S
C1147 C1148 1.355 . S
C1147 C1149 1.415 . S
C1148 C1147 1.355 . S
C1148 C1150 1.419 . S
C1149 C1144 1.425 . S
C1149 C1146 1.409 1_556 S
C1149 C1147 1.415 . S
C1150 H1140 0.930 . S
C1150 C1148 1.419 . S
C1150 C1151 1.362 . S
C1151 H1141 0.930 . S
C1151 C1144 1.409 . S
C1151 C1150 1.362 . S
H1152 C1158 0.930 . S
H1153 C1161 0.930 . S
H1154 C1162 0.930 . S
H1155 C1163 0.930 . S
H1156 C1166 0.930 . S
H1157 C1167 0.933 . S
C1158 H1152 0.930 . S
C1158 C1159 1.355 . S
C1158 C1160 1.415 1_554 S
C1159 C1158 1.355 . S
C1159 C1161 1.419 . S
C1160 C1158 1.415 1_556 S
C1160 C1165 1.425 . S
C1160 C1167 1.409 . S
C1161 H1153 0.930 . S
C1161 C1159 1.419 . S
C1161 C1162 1.362 1_554 S
C1162 H1154 0.930 . S
C1162 C1161 1.362 1_556 S
C1162 C1165 1.409 . S
C1163 H1155 0.930 . S
C1163 C1164 1.355 . S
C1163 C1165 1.415 . S
C1164 C1163 1.355 . S
C1164 C1166 1.419 . S
C1165 C1160 1.425 . S
C1165 C1162 1.409 . S
C1165 C1163 1.415 . S
C1166 H1156 0.930 . S
C1166 C1164 1.419 . S
C1166 C1167 1.362 . S
C1167 H1157 0.933 . S
C1167 C1160 1.409 . S
C1167 C1166 1.362 . S
H1168 C1174 0.930 . S
H1169 C1177 0.930 . S
H1170 C1178 0.930 . S
H1171 C1179 0.930 . S
H1172 C1182 0.930 . S
H1173 C1183 0.930 . S
C1174 H1168 0.930 . S
C1174 C1175 1.355 . S
C1174 C1176 1.415 1_554 S
C1175 C1174 1.355 . S
C1175 C1177 1.419 . S
C1176 C1174 1.415 1_556 S
C1176 C1181 1.425 . S
C1176 C1183 1.409 . S
C1177 H1169 0.930 . S
C1177 C1175 1.419 . S
C1177 C1178 1.362 . S
C1178 H1170 0.930 . S
C1178 C1177 1.362 . S
C1178 C1181 1.409 1_554 S
C1179 H1171 0.930 . S
C1179 C1180 1.355 . S
C1179 C1181 1.415 . S
C1180 C1179 1.355 . S
C1180 C1182 1.419 . S
C1181 C1176 1.425 . S
C1181 C1178 1.409 1_556 S
C1181 C1179 1.415 . S
C1182 H1172 0.930 . S
C1182 C1180 1.419 . S
C1182 C1183 1.362 . S
C1183 H1173 0.930 . S
C1183 C1176 1.409 . S
C1183 C1182 1.362 . S
H1184 C1190 0.930 . S
H1185 C1193 0.930 . S
H1186 C1194 0.930 . S
H1187 C1195 0.930 . S
H1188 C1198 0.930 . S
H1189 C1199 0.930 . S
C1190 H1184 0.930 . S
C1190 C1191 1.355 . S
C1190 C1192 1.415 . S
C1191 C1190 1.355 . S
C1191 C1193 1.419 . S
C1192 C1190 1.415 . S
C1192 C1197 1.425 . S
C1192 C1199 1.409 . S
C1193 H1185 0.930 . S
C1193 C1191 1.419 . S
C1193 C1194 1.362 . S
C1194 H1186 0.930 . S
C1194 C1193 1.362 . S
C1194 C1197 1.409 . S
C1195 H1187 0.930 . S
C1195 C1196 1.355 . S
C1195 C1197 1.415 . S
C1196 C1195 1.355 . S
C1196 C1198 1.419 . S
C1197 C1192 1.425 . S
C1197 C1194 1.409 . S
C1197 C1195 1.415 . S
C1198 H1188 0.930 . S
C1198 C1196 1.419 . S
C1198 C1199 1.362 . S
C1199 H1189 0.930 . S
C1199 C1192 1.409 . S
C1199 C1198 1.362 . S
H1200 C1206 0.930 . S
H1201 C1209 0.930 . S
H1202 C1210 0.930 . S
H1203 C1211 0.930 . S
H1204 C1214 0.930 . S
H1205 C1215 0.930 . S
C1206 H1200 0.930 . S
C1206 C1207 1.355 . S
C1206 C1208 1.415 . S
C1207 C1206 1.355 . S
C1207 C1209 1.419 . S
C1208 C1206 1.415 . S
C1208 C1213 1.425 . S
C1208 C1215 1.409 . S
C1209 H1201 0.930 . S
C1209 C1207 1.419 . S
C1209 C1210 1.362 . S
C1210 H1202 0.930 . S
C1210 C1209 1.362 . S
C1210 C1213 1.409 . S
C1211 H1203 0.930 . S
C1211 C1212 1.355 . S
C1211 C1213 1.415 . S
C1212 C1211 1.355 . S
C1212 C1214 1.419 . S
C1213 C1208 1.425 . S
C1213 C1210 1.409 . S
C1213 C1211 1.415 . S
C1214 H1204 0.930 . S
C1214 C1212 1.419 . S
C1214 C1215 1.362 . S
C1215 H1205 0.930 . S
C1215 C1208 1.409 . S
C1215 C1214 1.362 . S
H1216 C1222 0.930 . S
H1217 C1225 0.930 . S
H1218 C1226 0.930 . S
H1219 C1227 0.930 . S
H1220 C1230 0.930 . S
H1221 C1231 0.930 . S
C1222 H1216 0.930 . S
C1222 C1223 1.355 . S
C1222 C1224 1.415 . S
C1223 C1222 1.355 . S
C1223 C1225 1.419 . S
C1224 C1222 1.415 . S
C1224 C1229 1.425 . S
C1224 C1231 1.409 . S
C1225 H1217 0.930 . S
C1225 C1223 1.419 . S
C1225 C1226 1.362 . S
C1226 H1218 0.930 . S
C1226 C1225 1.362 . S
C1226 C1229 1.409 . S
C1227 H1219 0.930 . S
C1227 C1228 1.355 . S
C1227 C1229 1.415 . S
C1228 C1227 1.355 . S
C1228 C1230 1.419 . S
C1229 C1224 1.425 . S
C1229 C1226 1.409 . S
C1229 C1227 1.415 . S
C1230 H1220 0.930 . S
C1230 C1228 1.419 . S
C1230 C1231 1.362 . S
C1231 H1221 0.930 . S
C1231 C1224 1.409 . S
C1231 C1230 1.362 . S
H1232 C1238 0.930 . S
H1233 C1241 0.930 . S
H1234 C1242 0.930 . S
H1235 C1243 0.930 . S
H1236 C1246 0.930 . S
H1237 C1247 0.930 . S
C1238 H1232 0.930 . S
C1238 C1239 1.355 . S
C1238 C1240 1.415 . S
C1239 C1238 1.355 . S
C1239 C1241 1.419 . S
C1240 C1238 1.415 . S
C1240 C1245 1.425 . S
C1240 C1247 1.409 . S
C1241 H1233 0.930 . S
C1241 C1239 1.419 . S
C1241 C1242 1.362 . S
C1242 H1234 0.930 . S
C1242 C1241 1.362 . S
C1242 C1245 1.409 . S
C1243 H1235 0.930 . S
C1243 C1244 1.355 . S
C1243 C1245 1.415 . S
C1244 C1243 1.355 . S
C1244 C1246 1.419 . S
C1245 C1240 1.425 . S
C1245 C1242 1.409 . S
C1245 C1243 1.415 . S
C1246 H1236 0.930 . S
C1246 C1244 1.419 . S
C1246 C1247 1.362 . S
C1247 H1237 0.930 . S
C1247 C1240 1.409 . S
C1247 C1246 1.362 . S
H1248 C1254 0.930 . S
H1249 C1257 0.930 . S
H1250 C1258 0.930 . S
H1251 C1259 0.930 . S
H1252 C1262 0.930 . S
H1253 C1263 0.930 . S
C1254 H1248 0.930 . S
C1254 C1255 1.355 . S
C1254 C1256 1.415 . S
C1255 C1254 1.355 . S
C1255 C1257 1.419 . S
C1256 C1254 1.415 . S
C1256 C1261 1.425 . S
C1256 C1263 1.409 . S
C1257 H1249 0.930 . S
C1257 C1255 1.419 . S
C1257 C1258 1.362 . S
C1258 H1250 0.930 . S
C1258 C1257 1.362 . S
C1258 C1261 1.409 . S
C1259 H1251 0.930 . S
C1259 C1260 1.355 . S
C1259 C1261 1.415 . S
C1260 C1259 1.355 . S
C1260 C1262 1.419 . S
C1261 C1256 1.425 . S
C1261 C1258 1.409 . S
C1261 C1259 1.415 . S
C1262 H1252 0.930 . S
C1262 C1260 1.419 . S
C1262 C1263 1.362 . S
C1263 H1253 0.930 . S
C1263 C1256 1.409 . S
C1263 C1262 1.362 . S
H1264 C1270 0.930 . S
H1265 C1273 0.930 . S
H1266 C1274 0.930 . S
H1267 C1275 0.930 . S
H1268 C1278 0.930 . S
H1269 C1279 0.930 . S
C1270 H1264 0.930 . S
C1270 C1271 1.355 . S
C1270 C1272 1.415 . S
C1271 C1270 1.355 . S
C1271 C1273 1.419 . S
C1272 C1270 1.415 . S
C1272 C1277 1.425 . S
C1272 C1279 1.409 . S
C1273 H1265 0.930 . S
C1273 C1271 1.419 . S
C1273 C1274 1.362 . S
C1274 H1266 0.930 . S
C1274 C1273 1.362 . S
C1274 C1277 1.409 . S
C1275 H1267 0.930 . S
C1275 C1276 1.355 . S
C1275 C1277 1.415 . S
C1276 C1275 1.355 . S
C1276 C1278 1.419 . S
C1277 C1272 1.425 . S
C1277 C1274 1.409 . S
C1277 C1275 1.415 . S
C1278 H1268 0.930 . S
C1278 C1276 1.419 . S
C1278 C1279 1.362 . S
C1279 H1269 0.930 . S
C1279 C1272 1.409 . S
C1279 C1278 1.362 . S
H1280 C1286 0.930 . S
H1281 C1289 0.930 . S
H1282 C1290 0.930 . S
H1283 C1291 0.930 . S
H1284 C1294 0.930 . S
H1285 C1295 0.930 . S
C1286 H1280 0.930 . S
C1286 C1287 1.355 . S
C1286 C1288 1.415 . S
C1287 C1286 1.355 . S
C1287 C1289 1.419 . S
C1288 C1286 1.415 . S
C1288 C1293 1.425 . S
C1288 C1295 1.409 . S
C1289 H1281 0.930 . S
C1289 C1287 1.419 . S
C1289 C1290 1.362 . S
C1290 H1282 0.930 . S
C1290 C1289 1.362 . S
C1290 C1293 1.409 . S
C1291 H1283 0.930 . S
C1291 C1292 1.355 . S
C1291 C1293 1.415 . S
C1292 C1291 1.355 . S
C1292 C1294 1.419 . S
C1293 C1288 1.425 . S
C1293 C1290 1.409 . S
C1293 C1291 1.415 . S
C1294 H1284 0.930 . S
C1294 C1292 1.419 . S
C1294 C1295 1.362 . S
C1295 H1285 0.930 . S
C1295 C1288 1.409 . S
C1295 C1294 1.362 . S
H1296 C1302 0.930 . S
H1297 C1305 0.930 . S
H1298 C1306 0.930 . S
H1299 C1307 0.930 . S
H1300 C1310 0.930 . S
H1301 C1311 0.930 . S
C1302 H1296 0.930 . S
C1302 C1303 1.355 . S
C1302 C1304 1.415 . S
C1303 C1302 1.355 . S
C1303 C1305 1.419 . S
C1304 C1302 1.415 . S
C1304 C1309 1.425 . S
C1304 C1311 1.409 . S
C1305 H1297 0.930 . S
C1305 C1303 1.419 . S
C1305 C1306 1.362 . S
C1306 H1298 0.930 . S
C1306 C1305 1.362 . S
C1306 C1309 1.409 . S
C1307 H1299 0.930 . S
C1307 C1308 1.355 . S
C1307 C1309 1.415 . S
C1308 C1307 1.355 . S
C1308 C1310 1.419 . S
C1309 C1304 1.425 . S
C1309 C1306 1.409 . S
C1309 C1307 1.415 . S
C1310 H1300 0.930 . S
C1310 C1308 1.419 . S
C1310 C1311 1.362 . S
C1311 H1301 0.930 . S
C1311 C1304 1.409 . S
C1311 C1310 1.362 . S
H1312 C1318 0.930 . S
H1313 C1321 0.930 . S
H1314 C1322 0.930 . S
H1315 C1323 0.930 . S
H1316 C1326 0.930 . S
H1317 C1327 0.930 . S
C1318 H1312 0.930 . S
C1318 C1319 1.355 . S
C1318 C1320 1.415 . S
C1319 C1318 1.355 . S
C1319 C1321 1.419 . S
C1320 C1318 1.415 . S
C1320 C1325 1.425 . S
C1320 C1327 1.409 . S
C1321 H1313 0.930 . S
C1321 C1319 1.419 . S
C1321 C1322 1.362 . S
C1322 H1314 0.930 . S
C1322 C1321 1.362 . S
C1322 C1325 1.409 . S
C1323 H1315 0.930 . S
C1323 C1324 1.355 . S
C1323 C1325 1.415 . S
C1324 C1323 1.355 . S
C1324 C1326 1.419 . S
C1325 C1320 1.425 . S
C1325 C1322 1.409 . S
C1325 C1323 1.415 . S
C1326 H1316 0.930 . S
C1326 C1324 1.419 . S
C1326 C1327 1.362 . S
C1327 H1317 0.930 . S
C1327 C1320 1.409 . S
C1327 C1326 1.362 . S
H1328 C1334 0.930 . S
H1329 C1337 0.930 . S
H1330 C1338 0.930 . S
H1331 C1339 0.930 . S
H1332 C1342 0.930 . S
H1333 C1343 0.930 . S
C1334 H1328 0.930 . S
C1334 C1335 1.355 . S
C1334 C1336 1.415 . S
C1335 C1334 1.355 . S
C1335 C1337 1.419 . S
C1336 C1334 1.415 . S
C1336 C1341 1.425 . S
C1336 C1343 1.409 . S
C1337 H1329 0.930 . S
C1337 C1335 1.419 . S
C1337 C1338 1.362 . S
C1338 H1330 0.930 . S
C1338 C1337 1.362 . S
C1338 C1341 1.409 . S
C1339 H1331 0.930 . S
C1339 C1340 1.355 . S
C1339 C1341 1.415 . S
C1340 C1339 1.355 . S
C1340 C1342 1.419 . S
C1341 C1336 1.425 . S
C1341 C1338 1.409 . S
C1341 C1339 1.415 . S
C1342 H1332 0.930 . S
C1342 C1340 1.419 . S
C1342 C1343 1.362 . S
C1343 H1333 0.930 . S
C1343 C1336 1.409 . S
C1343 C1342 1.362 . S
H1344 C1350 0.930 . S
H1345 C1353 0.930 . S
H1346 C1354 0.930 . S
H1347 C1355 0.930 . S
H1348 C1358 0.930 . S
H1349 C1359 0.930 . S
C1350 H1344 0.930 . S
C1350 C1351 1.355 . S
C1350 C1352 1.415 . S
C1351 C1350 1.355 . S
C1351 C1353 1.419 . S
C1352 C1350 1.415 . S
C1352 C1357 1.425 . S
C1352 C1359 1.409 . S
C1353 H1345 0.930 . S
C1353 C1351 1.419 . S
C1353 C1354 1.362 . S
C1354 H1346 0.930 . S
C1354 C1353 1.362 . S
C1354 C1357 1.409 . S
C1355 H1347 0.930 . S
C1355 C1356 1.355 . S
C1355 C1357 1.415 . S
C1356 C1355 1.355 . S
C1356 C1358 1.419 . S
C1357 C1352 1.425 . S
C1357 C1354 1.409 . S
C1357 C1355 1.415 . S
C1358 H1348 0.930 . S
C1358 C1356 1.419 . S
C1358 C1359 1.362 . S
C1359 H1349 0.930 . S
C1359 C1352 1.409 . S
C1359 C1358 1.362 . S
H1360 C1366 0.930 . S
H1361 C1369 0.930 . S
H1362 C1370 0.930 . S
H1363 C1371 0.930 . S
H1364 C1374 0.930 . S
H1365 C1375 0.930 . S
C1366 H1360 0.930 . S
C1366 C1367 1.355 . S
C1366 C1368 1.415 . S
C1367 C1366 1.355 . S
C1367 C1369 1.419 . S
C1368 C1366 1.415 . S
C1368 C1373 1.425 . S
C1368 C1375 1.409 . S
C1369 H1361 0.930 . S
C1369 C1367 1.419 . S
C1369 C1370 1.362 . S
C1370 H1362 0.930 . S
C1370 C1369 1.362 . S
C1370 C1373 1.409 . S
C1371 H1363 0.930 . S
C1371 C1372 1.355 . S
C1371 C1373 1.415 . S
C1372 C1371 1.355 . S
C1372 C1374 1.419 . S
C1373 C1368 1.425 . S
C1373 C1370 1.409 . S
C1373 C1371 1.415 . S
C1374 H1364 0.930 . S
C1374 C1372 1.419 . S
C1374 C1375 1.362 . S
C1375 H1365 0.930 . S
C1375 C1368 1.409 . S
C1375 C1374 1.362 . S
H1376 C1382 0.930 . S
H1377 C1385 0.930 . S
H1378 C1386 0.930 . S
H1379 C1387 0.930 . S
H1380 C1390 0.930 . S
H1381 C1391 0.930 . S
C1382 H1376 0.930 . S
C1382 C1383 1.355 . S
C1382 C1384 1.415 . S
C1383 C1382 1.355 . S
C1383 C1385 1.419 . S
C1384 C1382 1.415 . S
C1384 C1389 1.425 . S
C1384 C1391 1.409 . S
C1385 H1377 0.930 . S
C1385 C1383 1.419 . S
C1385 C1386 1.362 . S
C1386 H1378 0.930 . S
C1386 C1385 1.362 . S
C1386 C1389 1.409 . S
C1387 H1379 0.930 . S
C1387 C1388 1.355 . S
C1387 C1389 1.415 . S
C1388 C1387 1.355 . S
C1388 C1390 1.419 . S
C1389 C1384 1.425 . S
C1389 C1386 1.409 . S
C1389 C1387 1.415 . S
C1390 H1380 0.930 . S
C1390 C1388 1.419 . S
C1390 C1391 1.362 . S
C1391 H1381 0.930 . S
C1391 C1384 1.409 . S
C1391 C1390 1.362 . S
H1392 C1398 0.930 . S
H1393 C1401 0.930 . S
H1394 C1402 0.930 . S
H1395 C1403 0.930 . S
H1396 C1406 0.930 . S
H1397 C1407 0.930 . S
C1398 H1392 0.930 . S
C1398 C1399 1.355 . S
C1398 C1400 1.415 . S
C1399 C1398 1.355 . S
C1399 C1401 1.419 . S
C1400 C1398 1.415 . S
C1400 C1405 1.425 . S
C1400 C1407 1.409 . S
C1401 H1393 0.930 . S
C1401 C1399 1.419 . S
C1401 C1402 1.362 . S
C1402 H1394 0.930 . S
C1402 C1401 1.362 . S
C1402 C1405 1.409 . S
C1403 H1395 0.930 . S
C1403 C1404 1.355 . S
C1403 C1405 1.415 . S
C1404 C1403 1.355 . S
C1404 C1406 1.419 . S
C1405 C1400 1.425 . S
C1405 C1402 1.409 . S
C1405 C1403 1.415 . S
C1406 H1396 0.930 . S
C1406 C1404 1.419 . S
C1406 C1407 1.362 . S
C1407 H1397 0.930 . S
C1407 C1400 1.409 . S
C1407 C1406 1.362 . S
H1408 C1414 0.930 . S
H1409 C1417 0.930 . S
H1410 C1418 0.930 . S
H1411 C1419 0.930 . S
H1412 C1422 0.930 . S
H1413 C1423 0.930 . S
C1414 H1408 0.930 . S
C1414 C1415 1.355 . S
C1414 C1416 1.415 . S
C1415 C1414 1.355 . S
C1415 C1417 1.419 . S
C1416 C1414 1.415 . S
C1416 C1421 1.425 . S
C1416 C1423 1.409 . S
C1417 H1409 0.930 . S
C1417 C1415 1.419 . S
C1417 C1418 1.362 . S
C1418 H1410 0.930 . S
C1418 C1417 1.362 . S
C1418 C1421 1.409 . S
C1419 H1411 0.930 . S
C1419 C1420 1.355 . S
C1419 C1421 1.415 . S
C1420 C1419 1.355 . S
C1420 C1422 1.419 . S
C1421 C1416 1.425 . S
C1421 C1418 1.409 . S
C1421 C1419 1.415 . S
C1422 H1412 0.930 . S
C1422 C1420 1.419 . S
C1422 C1423 1.362 . S
C1423 H1413 0.930 . S
C1423 C1416 1.409 . S
C1423 C1422 1.362 . S
H1424 C1430 0.930 . S
H1425 C1433 0.930 . S
H1426 C1434 0.930 . S
H1427 C1435 0.930 . S
H1428 C1438 0.930 . S
H1429 C1439 0.930 . S
C1430 H1424 0.930 . S
C1430 C1431 1.355 . S
C1430 C1432 1.415 . S
C1431 C1430 1.355 . S
C1431 C1433 1.419 . S
C1432 C1430 1.415 . S
C1432 C1437 1.425 . S
C1432 C1439 1.409 . S
C1433 H1425 0.930 . S
C1433 C1431 1.419 . S
C1433 C1434 1.362 . S
C1434 H1426 0.930 . S
C1434 C1433 1.362 . S
C1434 C1437 1.409 . S
C1435 H1427 0.930 . S
C1435 C1436 1.355 . S
C1435 C1437 1.415 . S
C1436 C1435 1.355 . S
C1436 C1438 1.419 . S
C1437 C1432 1.425 . S
C1437 C1434 1.409 . S
C1437 C1435 1.415 . S
C1438 H1428 0.930 . S
C1438 C1436 1.419 . S
C1438 C1439 1.362 . S
C1439 H1429 0.930 . S
C1439 C1432 1.409 . S
C1439 C1438 1.362 . S
C551 C1 1.874 . S
C556 C173 1.831 . S
C567 C37 1.873 . S
C572 C207 1.830 . S
C583 C241 1.854 . S
C588 C69 1.887 . S
C599 C103 1.818 . S
C604 C139 1.858 . S
C615 C445 1.827 . S
C620 C273 1.814 . S
C631 C307 1.860 . S
C636 C477 1.818 . S
C647 C341 1.875 . S
C652 C513 1.831 . S
C663 C411 1.860 . S
C668 C377 1.888 . S
C679 C504 1.320 . S
C684 C6 1.326 . S
C695 C516 1.314 . S
C700 C62 1.325 . S
C711 C74 1.325 . S
C716 C414 1.318 . S
C727 C108 1.349 . S
C732 C448 1.347 . S
C743 C164 1.334 . S
C748 C368 1.312 . S
C759 C198 1.328 . S
C764 C380 1.329 . S
C775 C232 1.345 . S
C780 C300 1.350 . S
C791 C334 1.331 . S
C796 C266 1.347 . S
C807 C210 1.346 . S
C812 C278 1.349 . S
C823 C312 1.348 . S
C828 C244 1.348 . S
C839 C346 1.334 . S
C844 C142 1.312 . S
C855 C402 1.335 . S
C860 C176 1.342 . S
C871 C436 1.330 . S
C876 C96 1.310 . S
C887 C130 1.349 . S
C892 C470 1.343 . S
C903 C482 1.348 . S
C908 C28 1.349 . S
C919 C538 1.330 . S
C924 C40 1.310 . S
C935 C3 1.455 . S
C940 C396 1.554 . S
C951 C35 1.498 . S
C956 C287 1.560 . S
C967 C321 1.560 . S
C972 C71 1.509 . S
C983 C105 1.452 . S
C988 C355 1.553 . S
C999 C464 1.560 . S
C1004 C137 1.516 . S
C1015 C171 1.449 . S
C1020 C491 1.552 . S
C1031 C205 1.506 . S
C1036 C532 1.549 . S
C1047 C239 1.508 . S
C1052 C430 1.550 . S
C1063 C275 1.476 . S
C1068 C117 1.546 . S
C1079 C15 1.556 . S
C1084 C309 1.524 . S
C1095 C56 1.557 . S
C1100 C343 1.524 . S
C1111 C83 1.550 . S
C1116 C375 1.447 . S
C1127 C192 1.554 . S
C1132 C409 1.522 . S
C1143 C226 1.551 . S
C1148 C443 1.514 . S
C1159 C260 1.556 . S
C1164 C479 1.462 . S
C1175 C158 1.551 . S
C1180 C511 1.447 . S
C1191 C22 1.686 . S
C1196 C119 1.990 . S
C1207 C49 1.693 . S
C1212 C17 1.994 . S
C1223 C51 2.007 . S
C1228 C90 1.758 . S
C1239 C85 2.022 . S
C1244 C124 1.781 . S
C1255 C187 2.011 . S
C1260 C151 1.739 . S
C1271 C221 1.997 . S
C1276 C185 1.700 . S
C1287 C255 2.018 . S
C1292 C219 1.784 . S
C1303 C153 1.987 . S
C1308 C253 1.687 . S
C1319 C391 2.023 . S
C1324 C294 1.786 . S
C1335 C328 1.774 . S
C1340 C289 2.013 . S
C1351 C362 1.720 . S
C1356 C323 2.004 . S
C1367 C357 1.999 . S
C1372 C389 1.706 . S
C1383 C459 1.999 . S
C1388 C423 1.704 . S
C1399 C457 1.787 . S
C1404 C493 2.023 . S
C1415 C527 1.991 . S
C1420 C498 1.706 . S
C1431 C425 2.014 . S
C1436 C525 1.775 . S
