# Generated by pormake.
# Topology kag, (6)-cn, num edge types: 1
# Building blocks:
#     Node 0, Type 0, BuildingBlock: CIFDUS_clean_sbu_1, # of connection points: 6
#     Node 1, Type 0, BuildingBlock: CIFDUS_clean_sbu_1, # of connection points: 6
#     Node 2, Type 0, BuildingBlock: CIFDUS_clean_sbu_1, # of connection points: 6
#     Edge 3, Type (0, 0), BuildingBlock: MIFKUJ_clean_linker_0, # of connection points: 2
#     Edge 4, Type (0, 0), BuildingBlock: MIFKUJ_clean_linker_0, # of connection points: 2
#     Edge 5, Type (0, 0), BuildingBlock: MIFKUJ_clean_linker_0, # of connection points: 2
#     Edge 6, Type (0, 0), BuildingBlock: MIFKUJ_clean_linker_0, # of connection points: 2
#     Edge 7, Type (0, 0), BuildingBlock: MIFKUJ_clean_linker_0, # of connection points: 2
#     Edge 8, Type (0, 0), BuildingBlock: MIFKUJ_clean_linker_0, # of connection points: 2
#     Edge 9, Type (0, 0), BuildingBlock: MIFKUJ_clean_linker_0, # of connection points: 2
#     Edge 10, Type (0, 0), BuildingBlock: MIFKUJ_clean_linker_0, # of connection points: 2
#     Edge 11, Type (0, 0), BuildingBlock: MIFKUJ_clean_linker_0, # of connection points: 2
# Relax obj value: 0.121
# Max RMSD: 0.164
# Mean RMSD: 0.158
data_MOF--net-kag--node1-CIFDUS_clean_sbu_1--edge1-MIFKUJ_clean_linker_0
_symmetry_space_group_name_H-M    P1
_symmetry_Int_Tables_number       1
_symmetry_cell_setting            triclinic
loop_
_symmetry_equiv_pos_as_xyz
'x, y, z'
_cell_length_a     39.640015
_cell_length_b     39.697319
_cell_length_c     19.909095
_cell_angle_alpha  90.228503
_cell_angle_beta   100.49555
_cell_angle_gamma 119.73629
loop_
_atom_site_label
_atom_site_type_symbol
_atom_site_fract_x
_atom_site_fract_y
_atom_site_fract_z
_atom_type_partial_charge
O0 O 0.05934 0.48121 0.02934 0.0
Mn1 Mn 0.01791 0.49833 0.02347 0.0
O2 O 0.11298 0.53385 0.08827 0.0
Mn3 Mn 0.08589 0.55029 0.13457 0.0
O4 O 0.97401 0.51298 0.01493 0.0
O5 O 0.0034 0.48246 0.91813 0.0
Mn6 Mn 0.9539 0.44401 0.91076 0.0
O7 O 0.97798 0.4436 0.05041 0.0
O8 O 0.92479 0.465 0.93621 0.0
O9 O 0.05838 0.55511 1.00075 0.0
O10 O 0.08468 0.59241 0.10117 0.0
O11 O 0.95952 0.44461 0.82371 0.0
O12 O 0.95378 0.40374 0.95524 0.0
C13 C 0.04533 0.50781 0.18678 0.0
C14 C 0.09672 0.50172 0.05063 0.0
C15 C 0.93832 0.49508 0.97899 0.0
C16 C -0.00517 0.47291 0.85138 0.0
C17 C 0.95949 0.40901 0.01955 0.0
C18 C 0.07756 0.5891 0.03602 0.0
O19 O 0.0339 0.51645 0.12687 0.0
O20 O 0.08191 0.53159 0.21701 0.0
O21 O 0.57722 0.03784 0.99585 0.0
Mn22 Mn 0.52194 -0.00273 0.01777 0.0
O23 O 0.61426 0.07542 0.09349 0.0
Mn24 Mn 0.56951 0.06443 0.12369 0.0
O25 O 0.46537 0.95502 0.03511 0.0
O26 O 0.50281 0.98014 0.91455 0.0
Mn27 Mn 0.4731 0.92837 0.91071 0.0
O28 O 0.54281 0.95873 0.03586 0.0
O29 O 0.42848 0.925 0.93102 0.0
O30 O 0.50147 0.03669 1.00021 0.0
O31 O 0.54035 0.08607 0.08353 0.0
O32 O 0.49389 0.9378 0.83416 0.0
O33 O 0.49397 0.90473 0.971 0.0
C34 C 0.54996 0.02348 0.19046 0.0
C35 C 0.6109 0.06321 0.03274 0.0
C36 C 0.43131 0.93266 0.99453 0.0
C37 C 0.51339 0.97399 0.85983 0.0
C38 C 0.52532 0.92218 0.0174 0.0
C39 C 0.51213 0.06993 0.03116 0.0
O40 O 0.53908 0.01328 0.12356 0.0
O41 O 0.57242 0.06025 0.21283 0.0
O42 O 0.49491 0.4348 1.00227 0.0
Mn43 Mn 0.51592 0.49402 0.0241 0.0
O44 O 0.53239 0.42191 0.08364 0.0
Mn45 Mn 0.5548 0.46758 0.14071 0.0
O46 O 0.53588 0.55333 0.04357 0.0
O47 O 0.50616 0.49567 0.91754 0.0
Mn48 Mn 0.47168 0.51216 0.9146 0.0
O49 O 0.45883 0.48044 0.03569 0.0
O50 O 0.49214 0.55983 0.96467 0.0
O51 O 0.5746 0.50875 0.01992 0.0
O52 O 0.60304 0.50566 0.12671 0.0
O53 O 0.47611 0.51298 0.82799 0.0
O54 O 0.42521 0.47257 0.93076 0.0
C55 C 0.51363 0.4778 0.18066 0.0
C56 C 0.50592 0.4118 0.0293 0.0
C57 C 0.52062 0.5733 0.01675 0.0
C58 C 0.49837 0.49841 0.85104 0.0
C59 C 0.42578 0.46881 0.9935 0.0
C60 C 0.60552 0.51632 0.06662 0.0
O61 O 0.52838 0.49326 0.12804 0.0
O62 O 0.53006 0.45953 0.21239 0.0
H63 H 0.04334 0.45446 0.80204 0.0
H64 H 0.05175 0.46131 0.68333 0.0
H65 H 0.00616 0.54023 0.66743 0.0
H66 H -0.00221 0.53325 0.7863 0.0
H67 H 0.96173 0.47695 0.57238 0.0
H68 H 0.10057 0.56961 0.65001 0.0
H69 H 0.16837 0.59434 0.71833 0.0
H70 H 0.17262 0.49931 0.62453 0.0
H71 H 0.10449 0.47345 0.55689 0.0
H72 H -0.00661 0.52391 0.23111 0.0
H73 H 0.98199 0.51582 0.34828 0.0
H74 H 0.03086 0.43966 0.37035 0.0
H75 H 0.04263 0.44819 0.25377 0.0
H76 H 0.07349 0.50235 0.46245 0.0
H77 H 0.93636 0.4077 0.38903 0.0
H78 H 0.86741 0.37871 0.3232 0.0
H79 H 0.85891 0.473 0.40872 0.0
H80 H 0.92807 0.50288 0.47453 0.0
C81 C 0.03776 0.47536 0.77476 0.0
C82 C 0.0207 0.49395 0.80387 0.0
C83 C 0.04188 0.47875 0.70631 0.0
C84 C 0.02905 0.50089 0.66592 0.0
C85 C 0.01605 0.52281 0.69734 0.0
C86 C 0.01217 0.51956 0.7659 0.0
C87 C 0.02444 0.49714 0.58976 0.0
C88 C 0.98635 0.48324 0.54821 0.0
C89 C 0.05611 0.50375 0.55828 0.0
C90 C 0.09721 0.51936 0.59883 0.0
C91 C 0.11579 0.55374 0.64445 0.0
C92 C 0.15431 0.56798 0.68307 0.0
C93 C 0.17473 0.54831 0.67605 0.0
C94 C 0.15673 0.51444 0.63017 0.0
C95 C 0.11815 0.49997 0.59168 0.0
C96 C -0.00082 0.50338 0.25931 0.0
C97 C 0.01862 0.48643 0.23319 0.0
C98 C -0.00678 0.49921 0.32687 0.0
C99 C 0.0063 0.47771 0.36881 0.0
C100 C 0.02093 0.45674 0.33939 0.0
C101 C 0.02694 0.461 0.27216 0.0
C102 C 0.01076 0.4821 0.44491 0.0
C103 C 0.04884 0.49616 0.48649 0.0
C104 C 0.979 0.47524 0.47638 0.0
C105 C 0.9376 0.45778 0.43613 0.0
C106 C 0.91997 0.42252 0.39324 0.0
C107 C 0.88081 0.40585 0.35609 0.0
C108 C 0.85883 0.42404 0.3617 0.0
C109 C 0.876 0.45897 0.40442 0.0
C110 C 0.91518 0.47576 0.44171 0.0
H111 H 0.82845 0.41095 0.33322 0.0
H112 H 0.20454 0.55936 0.70601 0.0
H113 H 0.60193 0.01655 0.28471 0.0
H114 H 0.59554 0.01007 0.40236 0.0
H115 H 0.46893 0.96368 0.33919 0.0
H116 H 0.47689 0.97581 0.22066 0.0
H117 H 0.49297 0.01621 0.43176 0.0
H118 H 0.52423 0.91227 0.42798 0.0
H119 H 0.56384 0.88351 0.40233 0.0
H120 H 0.66831 0.97687 0.53313 0.0
H121 H 0.62945 0.0063 0.55921 0.0
H122 H 0.4623 0.98521 0.77062 0.0
H123 H 0.46672 0.99147 0.65199 0.0
H124 H 0.5925 0.03198 0.70799 0.0
H125 H 0.58589 0.01893 0.82644 0.0
H126 H 0.56684 0.98038 0.61758 0.0
H127 H 0.53743 0.08586 0.61942 0.0
H128 H 0.49898 0.11604 0.64469 0.0
H129 H 0.39294 0.02215 0.51812 0.0
H130 H 0.43065 0.99133 0.49241 0.0
C131 C 0.5723 0.00287 0.29524 0.0
C132 C 0.53993 -0.00344 0.24347 0.0
C133 C 0.56857 -0.00089 0.36336 0.0
C134 C 0.53161 0.98594 0.38106 0.0
C135 C 0.49796 0.97426 0.32753 0.0
C136 C 0.50217 0.98006 0.25924 0.0
C137 C 0.52943 0.98986 0.45487 0.0
C138 C 0.50858 0.00766 0.47223 0.0
C139 C 0.55104 0.98037 0.50872 0.0
C140 C 0.57386 0.96147 0.49551 0.0
C141 C 0.55561 0.92659 0.4514 0.0
C142 C 0.57796 0.91021 0.43672 0.0
C143 C 0.61855 0.92836 0.46607 0.0
C144 C 0.63685 0.96279 0.51055 0.0
C145 C 0.61464 0.97924 0.52551 0.0
C146 C 0.49142 -0.0025 0.75827 0.0
C147 C 0.5237 0.00149 0.80771 0.0
C148 C 0.49403 0.00118 0.6895 0.0
C149 C 0.53004 0.01234 0.66932 0.0
C150 C 0.56403 0.02254 0.72122 0.0
C151 C 0.56067 0.01621 0.78959 0.0
C152 C 0.53086 0.00733 0.59491 0.0
C153 C 0.55132 0.98913 0.57734 0.0
C154 C 0.5091 0.01669 0.54098 0.0
C155 C 0.4869 0.03627 0.55414 0.0
C156 C 0.50594 0.07171 0.5969 0.0
C157 C 0.48425 0.0889 0.61135 0.0
C158 C 0.44355 0.07101 0.58308 0.0
C159 C 0.42448 0.03603 0.5399 0.0
C160 C 0.44602 0.01876 0.52517 0.0
H161 H 0.42679 0.08426 0.59463 0.0
H162 H 0.63583 0.91574 0.45436 0.0
H163 H 0.57085 0.52544 0.8159 0.0
H164 H 0.57606 0.51939 0.69602 0.0
H165 H 0.45068 0.43374 0.64279 0.0
H166 H 0.44732 0.43594 0.76248 0.0
H167 H 0.47594 0.42255 0.55129 0.0
H168 H 0.50374 0.55111 0.65436 0.0
H169 H 0.54543 0.61125 0.73521 0.0
H170 H 0.64738 0.63429 0.65458 0.0
H171 H 0.60627 0.57431 0.57349 0.0
H172 H 0.43988 0.45013 0.20968 0.0
H173 H 0.43404 0.45608 0.32885 0.0
H174 H 0.55784 0.54643 0.38092 0.0
H175 H 0.56103 0.54496 0.26119 0.0
H176 H 0.53395 0.55463 0.47402 0.0
H177 H 0.5058 0.42599 0.36918 0.0
H178 H 0.46425 0.36476 0.29094 0.0
H179 H 0.36339 0.34073 0.37591 0.0
H180 H 0.40431 0.4018 0.45428 0.0
C181 C 0.54531 0.50334 0.77917 0.0
C182 C 0.5086 0.4813 0.79821 0.0
C183 C 0.5478 0.50087 0.70996 0.0
C184 C 0.51309 0.47823 0.65879 0.0
C185 C 0.47796 0.45219 0.68 0.0
C186 C 0.47609 0.45311 0.74915 0.0
C187 C 0.51123 0.48426 0.58411 0.0
C188 C 0.48863 0.45154 0.53464 0.0
C189 C 0.52793 0.52186 0.56093 0.0
C190 C 0.55209 0.55823 0.60849 0.0
C191 C 0.53503 0.5691 0.65396 0.0
C192 C 0.55856 0.6031 0.69981 0.0
C193 C 0.59904 0.62652 0.70014 0.0
C194 C 0.61605 0.61613 0.65433 0.0
C195 C 0.59266 0.58221 0.60838 0.0
C196 C 0.46475 0.47331 0.24589 0.0
C197 C 0.50122 0.49656 0.22654 0.0
C198 C 0.46204 0.47557 0.31492 0.0
C199 C 0.49647 0.49918 0.36587 0.0
C200 C 0.53079 0.52694 0.34409 0.0
C201 C 0.53252 0.52658 0.27467 0.0
C202 C 0.49885 0.49287 0.44065 0.0
C203 C 0.52145 0.52557 0.4903 0.0
C204 C 0.48218 0.45517 0.46392 0.0
C205 C 0.45795 0.41856 0.41685 0.0
C206 C 0.47475 0.40763 0.37093 0.0
C207 C 0.45131 0.37298 0.32662 0.0
C208 C 0.41118 0.34895 0.32831 0.0
C209 C 0.39443 0.35939 0.37452 0.0
C210 C 0.41771 0.39397 0.41889 0.0
H211 H 0.39309 0.32219 0.2939 0.0
H212 H 0.61722 0.65275 0.73582 0.0
H213 H 0.15769 0.53977 0.98677 0.0
H214 H 0.20679 0.52143 0.97243 0.0
H215 H 0.14323 0.41542 0.06428 0.0
H216 H 0.09314 0.43317 0.07645 0.0
H217 H 0.22757 0.47168 0.13111 0.0
H218 H 0.14526 0.40223 0.90877 0.0
H219 H 0.10629 0.39638 0.79312 0.0
H220 H 0.20972 0.49135 0.73971 0.0
H221 H 0.24912 0.49815 0.85525 0.0
H222 H 0.37209 0.41509 0.06364 0.0
H223 H 0.31033 0.4125 0.07937 0.0
H224 H 0.34532 0.52048 0.98888 0.0
H225 H 0.40657 0.5237 0.97515 0.0
H226 H 0.26899 0.45127 0.92126 0.0
H227 H 0.34606 0.53347 0.12922 0.0
H228 H 0.39144 0.55406 0.24288 0.0
H229 H 0.306 0.45351 0.32174 0.0
H230 H 0.26038 0.43189 0.20783 0.0
C231 C 0.15382 0.51214 1.00222 0.0
C232 C 0.12214 0.48781 0.03283 0.0
C233 C 0.18162 0.50164 0.99383 0.0
C234 C 0.17841 0.46713 0.01737 0.0
C235 C 0.14583 0.44201 0.04552 0.0
C236 C 0.11741 0.45208 0.05234 0.0
C237 C 0.21189 0.46037 0.02058 0.0
C238 C 0.23603 0.4659 0.08542 0.0
C239 C 0.22373 0.45506 0.96058 0.0
C240 C 0.20007 0.4508 0.89085 0.0
C241 C 0.15961 0.42204 0.87252 0.0
C242 C 0.13745 0.41853 0.80693 0.0
C243 C 0.15547 0.44353 0.75912 0.0
C244 C 0.19574 0.47202 0.77674 0.0
C245 C 0.21801 0.47566 0.84224 0.0
C246 C 0.36681 0.43862 0.04918 0.0
C247 C 0.39335 0.46929 0.01754 0.0
C248 C 0.33175 0.43709 0.05775 0.0
C249 C 0.32337 0.46602 0.03407 0.0
C250 C 0.35124 0.49777 0.00668 0.0
C251 C 0.38611 0.49957 0.99909 0.0
C252 C 0.28434 0.46215 0.03176 0.0
C253 C 0.25962 0.45533 0.96708 0.0
C254 C 0.27283 0.46811 0.09154 0.0
C255 C 0.30024 0.48056 0.1597 0.0
C256 C 0.33724 0.51537 0.17046 0.0
C257 C 0.36294 0.52733 0.23499 0.0
C258 C 0.35174 0.50496 0.2894 0.0
C259 C 0.31473 0.47068 0.27942 0.0
C260 C 0.28896 0.45853 0.21487 0.0
H261 H 0.37164 0.51428 0.33939 0.0
H262 H 0.13824 0.44075 0.7084 0.0
H263 H 0.68324 0.06963 0.06446 0.0
H264 H 0.74481 0.12999 0.06034 0.0
H265 H 0.67671 0.17456 0.93905 0.0
H266 H 0.61552 0.11327 0.93985 0.0
H267 H 0.74413 0.20636 0.90826 0.0
H268 H 0.70206 0.19091 0.11864 0.0
H269 H 0.68158 0.16309 0.22459 0.0
H270 H 0.79429 0.1704 0.29476 0.0
H271 H 0.81522 0.19765 0.18875 0.0
H272 H 0.89502 0.40493 0.05135 0.0
H273 H 0.83281 0.34397 0.05067 0.0
H274 H 0.89373 0.27938 0.04826 0.0
H275 H 0.9556 0.34019 0.04499 0.0
H276 H 0.82658 0.26286 0.14309 0.0
H277 H 0.86143 0.27768 0.91224 0.0
H278 H 0.87549 0.31182 0.80885 0.0
H279 H 0.76625 0.31318 0.7828 0.0
H280 H 0.75209 0.27995 0.88722 0.0
C281 C 0.6818 0.09141 0.03335 0.0
C282 C 0.64495 0.08699 1.00208 0.0
C283 C 0.71681 0.12625 0.03243 0.0
C284 C 0.71515 0.15742 1.00206 0.0
C285 C 0.6787 0.15112 0.96361 0.0
C286 C 0.64376 0.11586 0.96312 0.0
C287 C 0.75058 0.1972 0.01541 0.0
C288 C 0.7619 0.21868 0.95974 0.0
C289 C 0.77327 0.21402 0.08288 0.0
C290 C 0.76004 0.19592 0.14529 0.0
C291 C 0.72228 0.1861 0.15621 0.0
C292 C 0.71064 0.17054 0.21641 0.0
C293 C 0.73658 0.16491 0.26631 0.0
C294 C 0.77419 0.1747 0.25602 0.0
C295 C 0.78594 0.19018 0.19588 0.0
C296 C 0.89548 0.37788 0.05409 0.0
C297 C 0.93002 0.37701 0.04961 0.0
C298 C 0.85989 0.34316 0.0525 0.0
C299 C 0.8589 0.30747 0.0482 0.0
C300 C 0.89421 0.30688 0.05109 0.0
C301 C 0.92955 0.34149 0.05039 0.0
C302 C 0.82074 0.27053 0.03579 0.0
C303 C 0.80865 0.25009 0.09183 0.0
C304 C 0.79649 0.25543 0.96918 0.0
C305 C 0.80616 0.27709 0.90845 0.0
C306 C 0.84088 0.28606 0.88547 0.0
C307 C 0.84874 0.30505 0.8264 0.0
C308 C 0.82188 0.31484 0.78946 0.0
C309 C 0.78714 0.30577 0.81164 0.0
C310 C 0.77924 0.28695 0.87084 0.0
H311 H 0.82789 0.32927 0.74347 0.0
H312 H 0.7276 0.15304 0.31302 0.0
H313 H 0.59484 0.92546 0.01081 0.0
H314 H 0.60923 0.87252 0.03376 0.0
H315 H 0.50234 0.81041 0.11324 0.0
H316 H 0.48819 0.863 0.09034 0.0
H317 H 0.55729 0.79722 0.18157 0.0
H318 H 0.49949 0.79443 0.95117 0.0
H319 H 0.49126 0.81762 0.83813 0.0
H320 H 0.59894 0.82466 0.80747 0.0
H321 H 0.60839 0.80243 0.92138 0.0
H322 H 0.47745 0.59706 0.06939 0.0
H323 H 0.49316 0.66437 0.0923 0.0
H324 H 0.60902 0.70616 0.04698 0.0
H325 H 0.59323 0.63824 0.02441 0.0
H326 H 0.56081 0.73432 0.96912 0.0
H327 H 0.60351 0.72139 0.20869 0.0
H328 H 0.59221 0.68609 0.31149 0.0
H329 H 0.4883 0.6947 0.31017 0.0
H330 H 0.4987 0.72961 0.20693 0.0
C331 C 0.57554 0.90123 0.03593 0.0
C332 C 0.54071 0.89813 0.04961 0.0
C333 C 0.58347 0.87089 0.04833 0.0
C334 C 0.55656 0.83734 0.0744 0.0
C335 C 0.52356 0.83602 0.09334 0.0
C336 C 0.51552 0.86605 0.08045 0.0
C337 C 0.55973 0.8017 0.07457 0.0
C338 C 0.55847 0.78369 0.13528 0.0
C339 C 0.56025 0.78352 0.01366 0.0
C340 C 0.55513 0.79757 0.94555 0.0
C341 C 0.52179 0.80152 0.92088 0.0
C342 C 0.51683 0.81439 0.85654 0.0
C343 C 0.54468 0.82282 0.81579 0.0
C344 C 0.57751 0.81833 0.83929 0.0
C345 C 0.58274 0.80568 0.90383 0.0
C346 C 0.5068 0.6207 0.06687 0.0
C347 C 0.53453 0.61286 0.04666 0.0
C348 C 0.51568 0.65905 0.07962 0.0
C349 C 0.55235 0.69018 0.07176 0.0
C350 C 0.58071 0.68243 0.05383 0.0
C351 C 0.57194 0.64385 0.04178 0.0
C352 C 0.55912 0.73034 0.07637 0.0
C353 C 0.56144 0.74881 0.01606 0.0
C354 C 0.55727 0.74781 0.13656 0.0
C355 C 0.55195 0.72814 0.20015 0.0
C356 C 0.57826 0.71573 0.23034 0.0
C357 C 0.57198 0.69576 0.28864 0.0
C358 C 0.53958 0.68818 0.31737 0.0
C359 C 0.51344 0.70067 0.28798 0.0
C360 C 0.51958 0.72063 0.22969 0.0
H361 H 0.53472 0.67263 0.3624 0.0
H362 H 0.54072 0.83265 0.76588 0.0
H363 H 0.93403 0.52803 0.09591 0.0
H364 H 0.88144 0.54168 0.11001 0.0
H365 H 0.82802 0.50546 0.8942 0.0
H366 H 0.87993 0.49167 0.88006 0.0
H367 H 0.82747 0.56985 0.93695 0.0
H368 H 0.79457 0.44429 0.00485 0.0
H369 H 0.80243 0.39487 0.06921 0.0
H370 H 0.80468 0.4501 0.25714 0.0
H371 H 0.79799 0.50055 0.19424 0.0
H372 H 0.62147 0.50652 0.94215 0.0
H373 H 0.68453 0.51427 0.92439 0.0
H374 H 0.74 0.5656 0.13435 0.0
H375 H 0.67755 0.55832 0.15228 0.0
H376 H 0.74061 0.49563 0.09637 0.0
H377 H 0.77066 0.6211 0.01643 0.0
H378 H 0.755 0.66296 0.94142 0.0
H379 H 0.74857 0.59709 0.76312 0.0
H380 H 0.76367 0.5545 0.83706 0.0
C381 C 0.91143 0.52375 0.05145 0.0
C382 C 0.91075 0.50865 0.98702 0.0
C383 C 0.88137 0.53128 0.05957 0.0
C384 C 0.85075 0.52419 1.00317 0.0
C385 C 0.85136 0.51106 0.93827 0.0
C386 C 0.88092 0.50307 0.93037 0.0
C387 C 0.81678 0.52846 0.01167 0.0
C388 C 0.80846 0.5536 0.97179 0.0
C389 C 0.79182 0.50685 0.05664 0.0
C390 C 0.79656 0.47678 0.09489 0.0
C391 C 0.79742 0.44635 0.06006 0.0
C392 C 0.80156 0.41804 0.09628 0.0
C393 C 0.80428 0.41944 0.16729 0.0
C394 C 0.80281 0.44914 0.20219 0.0
C395 C 0.79892 0.47766 0.16628 0.0
C396 C 0.64752 0.52082 0.98359 0.0
C397 C 0.6446 0.53134 0.04883 0.0
C398 C 0.68338 0.52496 0.97359 0.0
C399 C 0.71653 0.53989 0.02854 0.0
C400 C 0.71453 0.55358 0.09172 0.0
C401 C 0.67892 0.54956 0.10168 0.0
C402 C 0.75194 0.5376 0.02278 0.0
C403 C 0.76017 0.5124 0.0626 0.0
C404 C 0.77611 0.55824 0.97648 0.0
C405 C 0.76801 0.58445 0.93224 0.0
C406 C 0.76569 0.61541 0.96121 0.0
C407 C 0.75694 0.63929 0.91889 0.0
C408 C 0.75071 0.63264 0.84754 0.0
C409 C 0.75339 0.6022 0.81839 0.0
C410 C 0.7621 0.57823 0.86048 0.0
H411 H 0.74386 0.65111 0.81486 0.0
H412 H 0.80736 0.39743 0.19519 0.0
H413 H 0.08923 0.66224 0.05042 0.0
H414 H 0.15033 0.72207 0.04079 0.0
H415 H 0.19269 0.65325 0.9571 0.0
H416 H 0.1309 0.59339 0.96422 0.0
H417 H 0.24377 0.70821 0.08508 0.0
H418 H 0.18065 0.70282 0.85489 0.0
H419 H 0.12471 0.69403 0.76413 0.0
H420 H 0.13049 0.79506 0.85723 0.0
H421 H 0.18613 0.80405 0.94935 0.0
H422 H 0.42184 0.86316 0.01772 0.0
H423 H 0.36013 0.80475 0.02436 0.0
H424 H 0.30497 0.8742 0.03899 0.0
H425 H 0.3667 0.93285 0.02574 0.0
H426 H 0.2599 0.81685 0.94655 0.0
H427 H 0.32871 0.82266 0.17732 0.0
H428 H 0.38636 0.82955 0.26143 0.0
H429 H 0.37195 0.72546 0.16288 0.0
H430 H 0.31458 0.71825 0.07752 0.0
C431 C 0.1107 0.66008 0.02665 0.0
C432 C 0.10511 0.62341 0.00667 0.0
C433 C 0.14578 0.69412 0.02219 0.0
C434 C 0.17609 0.69187 0.99919 0.0
C435 C 0.16961 0.65544 0.97525 0.0
C436 C 0.13405 0.62139 0.97808 0.0
C437 C 0.21531 0.72753 1.0047 0.0
C438 C 0.24762 0.73192 0.05446 0.0
C439 C 0.21987 0.7584 0.96543 0.0
C440 C 0.18724 0.75387 0.90933 0.0
C441 C 0.1698 0.723 0.85627 0.0
C442 C 0.13818 0.718 0.80456 0.0
C443 C 0.12397 0.74391 0.80502 0.0
C444 C 0.14151 0.77499 0.85702 0.0
C445 C 0.17311 0.78008 0.90897 0.0
C446 C 0.39696 0.86613 0.02502 0.0
C447 C 0.39902 0.90239 0.0227 0.0
C448 C 0.36157 0.83263 0.02894 0.0
C449 C 0.3278 0.83486 0.0335 0.0
C450 C 0.33064 0.8717 0.03576 0.0
C451 C 0.36595 0.90527 0.02937 0.0
C452 C 0.28882 0.79838 0.0283 0.0
C453 C 0.25633 0.79357 0.97815 0.0
C454 C 0.28437 0.76698 0.06699 0.0
C455 C 0.3174 0.77002 0.12082 0.0
C456 C 0.3378 0.80121 0.17361 0.0
C457 C 0.37049 0.80522 0.22143 0.0
C458 C 0.38284 0.778 0.21744 0.0
C459 C 0.36234 0.74652 0.16593 0.0
C460 C 0.32967 0.74241 0.1179 0.0
H461 H 0.40828 0.78127 0.25429 0.0
H462 H 0.09942 0.73994 0.765 0.0
H463 H 0.46533 0.34811 0.09009 0.0
H464 H 0.45664 0.28394 0.06261 0.0
H465 H 0.50051 0.32102 0.87754 0.0
H466 H 0.50919 0.38579 0.90517 0.0
H467 H 0.43405 0.23476 0.87649 0.0
H468 H 0.56602 0.33372 0.99126 0.0
H469 H 0.61573 0.38827 0.07849 0.0
H470 H 0.57601 0.31558 0.2391 0.0
H471 H 0.52542 0.26084 0.15293 0.0
H472 H 0.50374 0.09345 0.90363 0.0
H473 H 0.49221 0.14796 0.87748 0.0
H474 H 0.46855 0.15246 0.07948 0.0
H475 H 0.48039 0.09872 0.10563 0.0
H476 H 0.53115 0.22147 0.05386 0.0
H477 H 0.39564 0.12644 0.94436 0.0
H478 H 0.34433 0.07066 0.86074 0.0
H479 H 0.39067 0.13464 0.69439 0.0
H480 H 0.44256 0.19067 0.77722 0.0
C481 C 0.4713 0.34191 0.04191 0.0
C482 C 0.48761 0.37142 0.99934 0.0
C483 C 0.46661 0.30545 0.02652 0.0
C484 C 0.47849 0.29817 0.96867 0.0
C485 C 0.49112 0.32629 0.92231 0.0
C486 C 0.49579 0.36302 0.93776 0.0
C487 C 0.48301 0.26363 0.96348 0.0
C488 C 0.45578 0.232 0.91422 0.0
C489 C 0.51118 0.26019 0.01343 0.0
C490 C 0.54158 0.29324 0.0655 0.0
C491 C 0.56752 0.32948 0.04517 0.0
C492 C 0.59593 0.36043 0.09446 0.0
C493 C 0.59896 0.35542 0.1643 0.0
C494 C 0.57359 0.31945 0.18499 0.0
C495 C 0.54504 0.28845 0.13593 0.0
C496 C 0.49433 0.10506 0.94098 0.0
C497 C 0.49269 0.09205 0.00639 0.0
C498 C 0.48812 0.13632 0.92635 0.0
C499 C 0.48005 0.15444 0.97698 0.0
C500 C 0.47509 0.13906 0.04003 0.0
C501 C 0.48146 0.10819 0.05467 0.0
C502 C 0.48122 0.19196 0.96839 0.0
C503 C 0.50985 0.22434 0.01519 0.0
C504 C 0.45436 0.19596 0.9165 0.0
C505 C 0.42316 0.1625 0.86686 0.0
C506 C 0.39506 0.12846 0.88995 0.0
C507 C 0.36584 0.09685 0.84273 0.0
C508 C 0.3643 0.09906 0.7723 0.0
C509 C 0.39192 0.13295 0.74895 0.0
C510 C 0.4212 0.16465 0.79599 0.0
H511 H 0.34166 0.07454 0.73579 0.0
H512 H 0.62103 0.37939 0.20236 0.0
loop_
_geom_bond_atom_site_label_1
_geom_bond_atom_site_label_2
_geom_bond_distance
_geom_bond_site_symmetry_2
_ccdc_geom_bond_type
O0 Mn1 2.163 1_556 S
O0 C14 1.244 1_556 S
Mn1 O0 2.163 1_554 S
Mn1 O4 2.160 1_455 S
Mn1 O5 2.221 1_554 S
Mn1 O7 2.163 1_455 S
Mn1 O9 2.160 . S
Mn1 O19 2.221 . S
O2 Mn3 2.087 . S
O2 C14 1.256 . S
Mn3 O2 2.087 . S
Mn3 O10 2.089 . S
Mn3 O19 2.290 . S
Mn3 O20 2.251 . S
O4 Mn1 2.160 1_655 S
O4 C15 1.239 1_554 S
O5 Mn1 2.221 1_556 S
O5 Mn6 2.290 1_455 S
O5 C16 1.278 . S
Mn6 O5 2.290 1_655 S
Mn6 O8 2.089 . S
Mn6 O11 2.251 . S
Mn6 O12 2.087 . S
O7 Mn1 2.163 1_655 S
O7 C17 1.244 1_554 S
O8 Mn6 2.089 . S
O8 C15 1.256 . S
O9 Mn1 2.160 . S
O9 C18 1.239 . S
O10 Mn3 2.089 . S
O10 C18 1.256 . S
O11 Mn6 2.251 . S
O11 C16 1.241 1_655 S
O12 Mn6 2.087 . S
O12 C17 1.257 . S
C13 O19 1.278 . S
C13 O20 1.241 . S
C14 O0 1.244 1_554 S
C14 O2 1.256 . S
C15 O4 1.239 1_556 S
C15 O8 1.256 . S
C16 O5 1.278 . S
C16 O11 1.241 1_455 S
C17 O7 1.244 1_556 S
C17 O12 1.257 . S
C18 O9 1.239 . S
C18 O10 1.256 . S
O19 Mn1 2.221 . S
O19 Mn3 2.290 . S
O19 C13 1.278 . S
O20 Mn3 2.251 . S
O20 C13 1.241 . S
O21 Mn22 2.163 . S
O21 C35 1.244 . S
Mn22 O21 2.163 . S
Mn22 O25 2.160 1_545 S
Mn22 O26 2.221 1_544 S
Mn22 O28 2.163 1_545 S
Mn22 O30 2.160 1_554 S
Mn22 O40 2.221 . S
O23 Mn24 2.087 . S
O23 C35 1.256 . S
Mn24 O23 2.087 . S
Mn24 O31 2.089 . S
Mn24 O40 2.290 . S
Mn24 O41 2.251 . S
O25 Mn22 2.160 1_565 S
O25 C36 1.239 1_554 S
O26 Mn22 2.221 1_566 S
O26 Mn27 2.290 . S
O26 C37 1.278 . S
Mn27 O26 2.290 . S
Mn27 O29 2.089 . S
Mn27 O32 2.251 . S
Mn27 O33 2.087 . S
O28 Mn22 2.163 1_565 S
O28 C38 1.244 . S
O29 Mn27 2.089 . S
O29 C36 1.256 . S
O30 Mn22 2.160 1_556 S
O30 C39 1.239 1_556 S
O31 Mn24 2.089 . S
O31 C39 1.256 . S
O32 Mn27 2.251 . S
O32 C37 1.241 . S
O33 Mn27 2.087 . S
O33 C38 1.256 1_556 S
C34 O40 1.278 . S
C34 O41 1.241 . S
C35 O21 1.244 . S
C35 O23 1.256 . S
C36 O25 1.239 1_556 S
C36 O29 1.256 . S
C37 O26 1.278 . S
C37 O32 1.241 . S
C38 O28 1.244 . S
C38 O33 1.256 1_554 S
C39 O30 1.239 1_554 S
C39 O31 1.256 . S
O40 Mn22 2.221 . S
O40 Mn24 2.290 . S
O40 C34 1.278 . S
O41 Mn24 2.251 . S
O41 C34 1.241 . S
O42 Mn43 2.163 1_556 S
O42 C56 1.244 1_556 S
Mn43 O42 2.163 1_554 S
Mn43 O46 2.160 . S
Mn43 O47 2.221 1_554 S
Mn43 O49 2.163 . S
Mn43 O51 2.160 . S
Mn43 O61 2.221 . S
O44 Mn45 2.087 . S
O44 C56 1.256 . S
Mn45 O44 2.087 . S
Mn45 O52 2.089 . S
Mn45 O61 2.290 . S
Mn45 O62 2.251 . S
O46 Mn43 2.160 . S
O46 C57 1.239 . S
O47 Mn43 2.221 1_556 S
O47 Mn48 2.290 . S
O47 C58 1.278 . S
Mn48 O47 2.290 . S
Mn48 O50 2.089 . S
Mn48 O53 2.251 . S
Mn48 O54 2.087 . S
O49 Mn43 2.163 . S
O49 C59 1.244 1_554 S
O50 Mn48 2.089 . S
O50 C57 1.256 1_556 S
O51 Mn43 2.160 . S
O51 C60 1.239 . S
O52 Mn45 2.089 . S
O52 C60 1.256 . S
O53 Mn48 2.251 . S
O53 C58 1.241 . S
O54 Mn48 2.087 . S
O54 C59 1.256 . S
C55 O61 1.278 . S
C55 O62 1.241 . S
C56 O42 1.244 1_554 S
C56 O44 1.256 . S
C57 O46 1.239 . S
C57 O50 1.256 1_554 S
C58 O47 1.278 . S
C58 O53 1.241 . S
C59 O49 1.244 1_556 S
C59 O54 1.256 . S
C60 O51 1.239 . S
C60 O52 1.256 . S
O61 Mn43 2.221 . S
O61 Mn45 2.290 . S
O61 C55 1.278 . S
O62 Mn45 2.251 . S
O62 C55 1.241 . S
H63 C81 0.951 . S
H64 C83 0.951 . S
H65 C85 0.950 . S
H66 C86 0.950 . S
H67 C88 0.950 . S
H68 C91 0.950 . S
H69 C92 0.950 . S
H70 C94 0.950 . S
H71 C95 0.950 . S
H72 C96 0.960 . S
H73 C98 0.939 1_655 S
H74 C100 0.950 . S
H75 C101 0.950 . S
H76 C103 0.950 . S
H77 C106 0.950 . S
H78 C107 0.950 . S
H79 C109 0.950 . S
H80 C110 0.950 . S
C81 H63 0.951 . S
C81 C82 1.366 . S
C81 C83 1.388 . S
C82 C81 1.366 . S
C82 C86 1.385 . S
C83 H64 0.951 . S
C83 C81 1.388 . S
C83 C84 1.366 . S
C84 C83 1.366 . S
C84 C85 1.414 . S
C84 C87 1.499 . S
C85 H65 0.950 . S
C85 C84 1.414 . S
C85 C86 1.374 . S
C86 H66 0.950 . S
C86 C82 1.385 . S
C86 C85 1.374 . S
C87 C84 1.499 . S
C87 C88 1.373 1_455 S
C87 C89 1.389 . S
C88 H67 0.950 . S
C88 C87 1.373 1_655 S
C88 C104 1.377 . S
C89 C87 1.389 . S
C89 C90 1.524 . S
C89 C103 1.377 . S
C90 C89 1.524 . S
C90 C91 1.397 . S
C90 C95 1.363 . S
C91 H68 0.950 . S
C91 C90 1.397 . S
C91 C92 1.334 . S
C92 H69 0.950 . S
C92 C91 1.334 . S
C92 C93 1.287 . S
C93 C92 1.287 . S
C93 C94 1.524 . S
C93 H112 0.913 . S
C94 H70 0.950 . S
C94 C93 1.524 . S
C94 C95 1.415 . S
C95 H71 0.950 . S
C95 C90 1.363 . S
C95 C94 1.415 . S
C96 H72 0.960 . S
C96 C97 1.366 . S
C96 C98 1.388 . S
C97 C96 1.366 . S
C97 C101 1.385 . S
C98 H73 0.939 1_455 S
C98 C96 1.388 . S
C98 C99 1.366 . S
C99 C98 1.366 . S
C99 C100 1.414 . S
C99 C102 1.499 . S
C100 H74 0.950 . S
C100 C99 1.414 . S
C100 C101 1.374 . S
C101 H75 0.950 . S
C101 C97 1.385 . S
C101 C100 1.374 . S
C102 C99 1.499 . S
C102 C103 1.373 . S
C102 C104 1.389 1_455 S
C103 H76 0.950 . S
C103 C89 1.377 . S
C103 C102 1.373 . S
C104 C88 1.377 . S
C104 C102 1.389 1_655 S
C104 C105 1.524 . S
C105 C104 1.524 . S
C105 C106 1.397 . S
C105 C110 1.363 . S
C106 H77 0.950 . S
C106 C105 1.397 . S
C106 C107 1.334 . S
C107 H78 0.950 . S
C107 C106 1.334 . S
C107 C108 1.287 . S
C108 C107 1.287 . S
C108 C109 1.524 . S
C108 H111 0.999 . S
C109 H79 0.950 . S
C109 C108 1.524 . S
C109 C110 1.415 . S
C110 H80 0.950 . S
C110 C105 1.363 . S
C110 C109 1.415 . S
H111 C108 0.999 . S
H112 C93 0.913 . S
H113 C131 0.951 . S
H114 C133 0.951 . S
H115 C135 0.950 . S
H116 C136 0.950 . S
H117 C138 0.950 . S
H118 C141 0.950 . S
H119 C142 0.950 . S
H120 C144 0.950 1_545 S
H121 C145 0.950 . S
H122 C146 0.951 . S
H123 C148 0.951 . S
H124 C150 0.950 . S
H125 C151 0.950 . S
H126 C153 0.950 1_565 S
H127 C156 0.950 . S
H128 C157 0.950 . S
H129 C159 0.950 . S
H130 C160 0.950 1_565 S
C131 H113 0.951 . S
C131 C132 1.366 . S
C131 C133 1.388 . S
C132 C131 1.366 . S
C132 C136 1.385 1_545 S
C133 H114 0.951 . S
C133 C131 1.388 . S
C133 C134 1.366 . S
C134 C133 1.366 . S
C134 C135 1.414 1_545 S
C134 C137 1.499 . S
C135 H115 0.950 . S
C135 C134 1.414 1_565 S
C135 C136 1.374 . S
C136 H116 0.950 . S
C136 C132 1.385 1_565 S
C136 C135 1.374 . S
C137 C134 1.499 . S
C137 C138 1.373 . S
C137 C139 1.389 1_545 S
C138 H117 0.950 . S
C138 C137 1.373 . S
C138 C154 1.377 . S
C139 C137 1.389 1_565 S
C139 C140 1.524 . S
C139 C153 1.377 1_565 S
C140 C139 1.524 . S
C140 C141 1.397 . S
C140 C145 1.363 1_565 S
C141 H118 0.950 . S
C141 C140 1.397 . S
C141 C142 1.334 . S
C142 H119 0.950 . S
C142 C141 1.334 . S
C142 C143 1.287 . S
C143 C142 1.287 . S
C143 C144 1.524 . S
C143 H162 0.913 . S
C144 H120 0.950 1_565 S
C144 C143 1.524 . S
C144 C145 1.415 1_565 S
C145 H121 0.950 . S
C145 C140 1.363 1_545 S
C145 C144 1.415 1_545 S
C146 H122 0.951 . S
C146 C147 1.366 1_565 S
C146 C148 1.388 . S
C147 C146 1.366 1_545 S
C147 C151 1.385 . S
C148 H123 0.951 . S
C148 C146 1.388 . S
C148 C149 1.366 1_565 S
C149 C148 1.366 1_545 S
C149 C150 1.414 . S
C149 C152 1.499 . S
C150 H124 0.950 . S
C150 C149 1.414 . S
C150 C151 1.374 . S
C151 H125 0.950 . S
C151 C147 1.385 . S
C151 C150 1.374 . S
C152 C149 1.499 . S
C152 C153 1.373 . S
C152 C154 1.389 . S
C153 H126 0.950 1_545 S
C153 C139 1.377 1_545 S
C153 C152 1.373 . S
C154 C138 1.377 . S
C154 C152 1.389 . S
C154 C155 1.524 . S
C155 C154 1.524 . S
C155 C156 1.397 . S
C155 C160 1.363 . S
C156 H127 0.950 . S
C156 C155 1.397 . S
C156 C157 1.334 . S
C157 H128 0.950 . S
C157 C156 1.334 . S
C157 C158 1.287 . S
C158 C157 1.287 . S
C158 C159 1.524 . S
C158 H161 0.999 . S
C159 H129 0.950 . S
C159 C158 1.524 . S
C159 C160 1.415 . S
C160 H130 0.950 1_545 S
C160 C155 1.363 . S
C160 C159 1.415 . S
H161 C158 0.999 . S
H162 C143 0.913 . S
H163 C181 0.951 . S
H164 C183 0.951 . S
H165 C185 0.950 . S
H166 C186 0.950 . S
H167 C188 0.950 . S
H168 C191 0.950 . S
H169 C192 0.950 . S
H170 C194 0.950 . S
H171 C195 0.950 . S
H172 C196 0.951 . S
H173 C198 0.951 . S
H174 C200 0.950 . S
H175 C201 0.950 . S
H176 C203 0.950 . S
H177 C206 0.950 . S
H178 C207 0.950 . S
H179 C209 0.950 . S
H180 C210 0.950 . S
C181 H163 0.951 . S
C181 C182 1.366 . S
C181 C183 1.388 . S
C182 C181 1.366 . S
C182 C186 1.385 . S
C183 H164 0.951 . S
C183 C181 1.388 . S
C183 C184 1.366 . S
C184 C183 1.366 . S
C184 C185 1.414 . S
C184 C187 1.499 . S
C185 H165 0.950 . S
C185 C184 1.414 . S
C185 C186 1.374 . S
C186 H166 0.950 . S
C186 C182 1.385 . S
C186 C185 1.374 . S
C187 C184 1.499 . S
C187 C188 1.373 . S
C187 C189 1.389 . S
C188 H167 0.950 . S
C188 C187 1.373 . S
C188 C204 1.377 . S
C189 C187 1.389 . S
C189 C190 1.524 . S
C189 C203 1.377 . S
C190 C189 1.524 . S
C190 C191 1.397 . S
C190 C195 1.363 . S
C191 H168 0.950 . S
C191 C190 1.397 . S
C191 C192 1.334 . S
C192 H169 0.950 . S
C192 C191 1.334 . S
C192 C193 1.287 . S
C193 C192 1.287 . S
C193 C194 1.524 . S
C193 H212 0.913 . S
C194 H170 0.950 . S
C194 C193 1.524 . S
C194 C195 1.415 . S
C195 H171 0.950 . S
C195 C190 1.363 . S
C195 C194 1.415 . S
C196 H172 0.951 . S
C196 C197 1.366 . S
C196 C198 1.388 . S
C197 C196 1.366 . S
C197 C201 1.385 . S
C198 H173 0.951 . S
C198 C196 1.388 . S
C198 C199 1.366 . S
C199 C198 1.366 . S
C199 C200 1.414 . S
C199 C202 1.499 . S
C200 H174 0.950 . S
C200 C199 1.414 . S
C200 C201 1.374 . S
C201 H175 0.950 . S
C201 C197 1.385 . S
C201 C200 1.374 . S
C202 C199 1.499 . S
C202 C203 1.373 . S
C202 C204 1.389 . S
C203 H176 0.950 . S
C203 C189 1.377 . S
C203 C202 1.373 . S
C204 C188 1.377 . S
C204 C202 1.389 . S
C204 C205 1.524 . S
C205 C204 1.524 . S
C205 C206 1.397 . S
C205 C210 1.363 . S
C206 H177 0.950 . S
C206 C205 1.397 . S
C206 C207 1.334 . S
C207 H178 0.950 . S
C207 C206 1.334 . S
C207 C208 1.287 . S
C208 C207 1.287 . S
C208 C209 1.524 . S
C208 H211 0.999 . S
C209 H179 0.950 . S
C209 C208 1.524 . S
C209 C210 1.415 . S
C210 H180 0.950 . S
C210 C205 1.363 . S
C210 C209 1.415 . S
H211 C208 0.999 . S
H212 C193 0.913 . S
H213 C231 0.951 . S
H214 C233 0.951 . S
H215 C235 0.950 . S
H216 C236 0.950 . S
H217 C238 0.950 . S
H218 C241 0.950 . S
H219 C242 0.950 . S
H220 C244 0.950 . S
H221 C245 0.950 . S
H222 C246 0.951 . S
H223 C248 0.951 . S
H224 C250 0.950 . S
H225 C251 0.950 . S
H226 C253 0.950 . S
H227 C256 0.950 . S
H228 C257 0.950 . S
H229 C259 0.950 . S
H230 C260 0.950 . S
C231 H213 0.951 . S
C231 C232 1.366 1_556 S
C231 C233 1.388 . S
C232 C231 1.366 1_554 S
C232 C236 1.385 . S
C233 H214 0.951 . S
C233 C231 1.388 . S
C233 C234 1.366 1_556 S
C234 C233 1.366 1_554 S
C234 C235 1.414 . S
C234 C237 1.499 . S
C235 H215 0.950 . S
C235 C234 1.414 . S
C235 C236 1.374 . S
C236 H216 0.950 . S
C236 C232 1.385 . S
C236 C235 1.374 . S
C237 C234 1.499 . S
C237 C238 1.373 . S
C237 C239 1.389 1_554 S
C238 H217 0.950 . S
C238 C237 1.373 . S
C238 C254 1.377 . S
C239 C237 1.389 1_556 S
C239 C240 1.524 . S
C239 C253 1.377 . S
C240 C239 1.524 . S
C240 C241 1.397 . S
C240 C245 1.363 . S
C241 H218 0.950 . S
C241 C240 1.397 . S
C241 C242 1.334 . S
C242 H219 0.950 . S
C242 C241 1.334 . S
C242 C243 1.287 . S
C243 C242 1.287 . S
C243 C244 1.524 . S
C243 H262 0.913 . S
C244 H220 0.950 . S
C244 C243 1.524 . S
C244 C245 1.415 . S
C245 H221 0.950 . S
C245 C240 1.363 . S
C245 C244 1.415 . S
C246 H222 0.951 . S
C246 C247 1.366 . S
C246 C248 1.388 . S
C247 C246 1.366 . S
C247 C251 1.385 1_554 S
C248 H223 0.951 . S
C248 C246 1.388 . S
C248 C249 1.366 . S
C249 C248 1.366 . S
C249 C250 1.414 1_554 S
C249 C252 1.499 . S
C250 H224 0.950 . S
C250 C249 1.414 1_556 S
C250 C251 1.374 . S
C251 H225 0.950 . S
C251 C247 1.385 1_556 S
C251 C250 1.374 . S
C252 C249 1.499 . S
C252 C253 1.373 1_554 S
C252 C254 1.389 . S
C253 H226 0.950 . S
C253 C239 1.377 . S
C253 C252 1.373 1_556 S
C254 C238 1.377 . S
C254 C252 1.389 . S
C254 C255 1.524 . S
C255 C254 1.524 . S
C255 C256 1.397 . S
C255 C260 1.363 . S
C256 H227 0.950 . S
C256 C255 1.397 . S
C256 C257 1.334 . S
C257 H228 0.950 . S
C257 C256 1.334 . S
C257 C258 1.287 . S
C258 C257 1.287 . S
C258 C259 1.524 . S
C258 H261 0.999 . S
C259 H229 0.950 . S
C259 C258 1.524 . S
C259 C260 1.415 . S
C260 H230 0.950 . S
C260 C255 1.363 . S
C260 C259 1.415 . S
H261 C258 0.999 . S
H262 C243 0.913 . S
H263 C281 0.951 . S
H264 C283 0.951 . S
H265 C285 0.950 . S
H266 C286 0.950 . S
H267 C288 0.950 . S
H268 C291 0.950 . S
H269 C292 0.950 . S
H270 C294 0.950 . S
H271 C295 0.950 . S
H272 C296 0.951 . S
H273 C298 0.951 . S
H274 C300 0.950 . S
H275 C301 0.950 . S
H276 C303 0.950 . S
H277 C306 0.950 . S
H278 C307 0.950 . S
H279 C309 0.950 . S
H280 C310 0.950 . S
C281 H263 0.951 . S
C281 C282 1.366 . S
C281 C283 1.388 . S
C282 C281 1.366 . S
C282 C286 1.385 1_554 S
C283 H264 0.951 . S
C283 C281 1.388 . S
C283 C284 1.366 . S
C284 C283 1.366 . S
C284 C285 1.414 1_554 S
C284 C287 1.499 . S
C285 H265 0.950 . S
C285 C284 1.414 1_556 S
C285 C286 1.374 . S
C286 H266 0.950 . S
C286 C282 1.385 1_556 S
C286 C285 1.374 . S
C287 C284 1.499 . S
C287 C288 1.373 1_554 S
C287 C289 1.389 . S
C288 H267 0.950 . S
C288 C287 1.373 1_556 S
C288 C304 1.377 . S
C289 C287 1.389 . S
C289 C290 1.524 . S
C289 C303 1.377 . S
C290 C289 1.524 . S
C290 C291 1.397 . S
C290 C295 1.363 . S
C291 H268 0.950 . S
C291 C290 1.397 . S
C291 C292 1.334 . S
C292 H269 0.950 . S
C292 C291 1.334 . S
C292 C293 1.287 . S
C293 C292 1.287 . S
C293 C294 1.524 . S
C293 H312 0.913 . S
C294 H270 0.950 . S
C294 C293 1.524 . S
C294 C295 1.415 . S
C295 H271 0.950 . S
C295 C290 1.363 . S
C295 C294 1.415 . S
C296 H272 0.951 . S
C296 C297 1.366 1_556 S
C296 C298 1.388 . S
C297 C296 1.366 1_554 S
C297 C301 1.385 . S
C298 H273 0.951 . S
C298 C296 1.388 . S
C298 C299 1.366 1_556 S
C299 C298 1.366 1_554 S
C299 C300 1.414 . S
C299 C302 1.499 . S
C300 H274 0.950 . S
C300 C299 1.414 . S
C300 C301 1.374 . S
C301 H275 0.950 . S
C301 C297 1.385 . S
C301 C300 1.374 . S
C302 C299 1.499 . S
C302 C303 1.373 . S
C302 C304 1.389 1_554 S
C303 H276 0.950 . S
C303 C289 1.377 . S
C303 C302 1.373 . S
C304 C288 1.377 . S
C304 C302 1.389 1_556 S
C304 C305 1.524 . S
C305 C304 1.524 . S
C305 C306 1.397 . S
C305 C310 1.363 . S
C306 H277 0.950 . S
C306 C305 1.397 . S
C306 C307 1.334 . S
C307 H278 0.950 . S
C307 C306 1.334 . S
C307 C308 1.287 . S
C308 C307 1.287 . S
C308 C309 1.524 . S
C308 H311 0.999 . S
C309 H279 0.950 . S
C309 C308 1.524 . S
C309 C310 1.415 . S
C310 H280 0.950 . S
C310 C305 1.363 . S
C310 C309 1.415 . S
H311 C308 0.999 . S
H312 C293 0.913 . S
H313 C331 0.956 . S
H314 C333 0.951 1_556 S
H315 C335 0.950 . S
H316 C336 0.950 . S
H317 C338 0.950 . S
H318 C341 0.950 . S
H319 C342 0.950 . S
H320 C344 0.950 . S
H321 C345 0.950 . S
H322 C346 0.951 . S
H323 C348 0.951 . S
H324 C350 0.950 1_556 S
H325 C351 0.950 1_556 S
H326 C353 0.950 . S
H327 C356 0.950 . S
H328 C357 0.950 . S
H329 C359 0.950 . S
H330 C360 0.950 . S
C331 H313 0.956 . S
C331 C332 1.366 . S
C331 C333 1.388 . S
C332 C331 1.366 . S
C332 C336 1.385 . S
C333 H314 0.951 1_554 S
C333 C331 1.388 . S
C333 C334 1.366 . S
C334 C333 1.366 . S
C334 C335 1.414 . S
C334 C337 1.499 . S
C335 H315 0.950 . S
C335 C334 1.414 . S
C335 C336 1.374 . S
C336 H316 0.950 . S
C336 C332 1.385 . S
C336 C335 1.374 . S
C337 C334 1.499 . S
C337 C338 1.373 . S
C337 C339 1.389 1_554 S
C338 H317 0.950 . S
C338 C337 1.373 . S
C338 C354 1.377 . S
C339 C337 1.389 1_556 S
C339 C340 1.524 . S
C339 C353 1.377 . S
C340 C339 1.524 . S
C340 C341 1.397 . S
C340 C345 1.363 . S
C341 H318 0.950 . S
C341 C340 1.397 . S
C341 C342 1.334 . S
C342 H319 0.950 . S
C342 C341 1.334 . S
C342 C343 1.287 . S
C343 C342 1.287 . S
C343 C344 1.524 . S
C343 H362 0.913 . S
C344 H320 0.950 . S
C344 C343 1.524 . S
C344 C345 1.415 . S
C345 H321 0.950 . S
C345 C340 1.363 . S
C345 C344 1.415 . S
C346 H322 0.951 . S
C346 C347 1.366 . S
C346 C348 1.388 . S
C347 C346 1.366 . S
C347 C351 1.385 . S
C348 H323 0.951 . S
C348 C346 1.388 . S
C348 C349 1.366 . S
C349 C348 1.366 . S
C349 C350 1.414 . S
C349 C352 1.499 . S
C350 H324 0.950 1_554 S
C350 C349 1.414 . S
C350 C351 1.374 . S
C351 H325 0.950 1_554 S
C351 C347 1.385 . S
C351 C350 1.374 . S
C352 C349 1.499 . S
C352 C353 1.373 1_554 S
C352 C354 1.389 . S
C353 H326 0.950 . S
C353 C339 1.377 . S
C353 C352 1.373 1_556 S
C354 C338 1.377 . S
C354 C352 1.389 . S
C354 C355 1.524 . S
C355 C354 1.524 . S
C355 C356 1.397 . S
C355 C360 1.363 . S
C356 H327 0.950 . S
C356 C355 1.397 . S
C356 C357 1.334 . S
C357 H328 0.950 . S
C357 C356 1.334 . S
C357 C358 1.287 . S
C358 C357 1.287 . S
C358 C359 1.524 . S
C358 H361 0.999 . S
C359 H329 0.950 . S
C359 C358 1.524 . S
C359 C360 1.415 . S
C360 H330 0.950 . S
C360 C355 1.363 . S
C360 C359 1.415 . S
H361 C358 0.999 . S
H362 C343 0.913 . S
H363 C381 0.951 . S
H364 C383 0.951 . S
H365 C385 0.950 . S
H366 C386 0.950 . S
H367 C388 0.950 . S
H368 C391 0.950 . S
H369 C392 0.950 . S
H370 C394 0.950 . S
H371 C395 0.950 . S
H372 C396 0.951 . S
H373 C398 0.951 . S
H374 C400 0.950 . S
H375 C401 0.950 . S
H376 C403 0.950 . S
H377 C406 0.950 1_554 S
H378 C407 0.950 . S
H379 C409 0.950 . S
H380 C410 0.950 . S
C381 H363 0.951 . S
C381 C382 1.366 . S
C381 C383 1.388 . S
C382 C381 1.366 . S
C382 C386 1.385 1_554 S
C383 H364 0.951 . S
C383 C381 1.388 . S
C383 C384 1.366 . S
C384 C383 1.366 . S
C384 C385 1.414 1_554 S
C384 C387 1.499 . S
C385 H365 0.950 . S
C385 C384 1.414 1_556 S
C385 C386 1.374 . S
C386 H366 0.950 . S
C386 C382 1.385 1_556 S
C386 C385 1.374 . S
C387 C384 1.499 . S
C387 C388 1.373 1_554 S
C387 C389 1.389 . S
C388 H367 0.950 . S
C388 C387 1.373 1_556 S
C388 C404 1.377 . S
C389 C387 1.389 . S
C389 C390 1.524 . S
C389 C403 1.377 . S
C390 C389 1.524 . S
C390 C391 1.397 . S
C390 C395 1.363 . S
C391 H368 0.950 . S
C391 C390 1.397 . S
C391 C392 1.334 . S
C392 H369 0.950 . S
C392 C391 1.334 . S
C392 C393 1.287 . S
C393 C392 1.287 . S
C393 C394 1.524 . S
C393 H412 0.913 . S
C394 H370 0.950 . S
C394 C393 1.524 . S
C394 C395 1.415 . S
C395 H371 0.950 . S
C395 C390 1.363 . S
C395 C394 1.415 . S
C396 H372 0.951 . S
C396 C397 1.366 1_556 S
C396 C398 1.388 . S
C397 C396 1.366 1_554 S
C397 C401 1.385 . S
C398 H373 0.951 . S
C398 C396 1.388 . S
C398 C399 1.366 1_556 S
C399 C398 1.366 1_554 S
C399 C400 1.414 . S
C399 C402 1.499 . S
C400 H374 0.950 . S
C400 C399 1.414 . S
C400 C401 1.374 . S
C401 H375 0.950 . S
C401 C397 1.385 . S
C401 C400 1.374 . S
C402 C399 1.499 . S
C402 C403 1.373 . S
C402 C404 1.389 1_554 S
C403 H376 0.950 . S
C403 C389 1.377 . S
C403 C402 1.373 . S
C404 C388 1.377 . S
C404 C402 1.389 1_556 S
C404 C405 1.524 . S
C405 C404 1.524 . S
C405 C406 1.397 . S
C405 C410 1.363 . S
C406 H377 0.950 1_556 S
C406 C405 1.397 . S
C406 C407 1.334 . S
C407 H378 0.950 . S
C407 C406 1.334 . S
C407 C408 1.287 . S
C408 C407 1.287 . S
C408 C409 1.524 . S
C408 H411 0.999 . S
C409 H379 0.950 . S
C409 C408 1.524 . S
C409 C410 1.415 . S
C410 H380 0.950 . S
C410 C405 1.363 . S
C410 C409 1.415 . S
H411 C408 0.999 . S
H412 C393 0.913 . S
H413 C431 0.951 . S
H414 C433 0.951 . S
H415 C435 0.950 . S
H416 C436 0.950 . S
H417 C438 0.950 . S
H418 C441 0.950 . S
H419 C442 0.950 . S
H420 C444 0.950 . S
H421 C445 0.950 . S
H422 C446 0.951 1_556 S
H423 C448 0.950 1_556 S
H424 C450 0.950 . S
H425 C451 0.950 . S
H426 C453 0.950 . S
H427 C456 0.950 . S
H428 C457 0.950 . S
H429 C459 0.950 . S
H430 C460 0.950 . S
C431 H413 0.951 . S
C431 C432 1.366 . S
C431 C433 1.388 . S
C432 C431 1.366 . S
C432 C436 1.385 . S
C433 H414 0.951 . S
C433 C431 1.388 . S
C433 C434 1.366 . S
C434 C433 1.366 . S
C434 C435 1.414 . S
C434 C437 1.499 . S
C435 H415 0.950 . S
C435 C434 1.414 . S
C435 C436 1.374 . S
C436 H416 0.950 . S
C436 C432 1.385 . S
C436 C435 1.374 . S
C437 C434 1.499 . S
C437 C438 1.373 . S
C437 C439 1.389 1_554 S
C438 H417 0.950 . S
C438 C437 1.373 . S
C438 C454 1.377 . S
C439 C437 1.389 1_556 S
C439 C440 1.524 . S
C439 C453 1.377 . S
C440 C439 1.524 . S
C440 C441 1.397 . S
C440 C445 1.363 . S
C441 H418 0.950 . S
C441 C440 1.397 . S
C441 C442 1.334 . S
C442 H419 0.950 . S
C442 C441 1.334 . S
C442 C443 1.287 . S
C443 C442 1.287 . S
C443 C444 1.524 . S
C443 H462 0.913 . S
C444 H420 0.950 . S
C444 C443 1.524 . S
C444 C445 1.415 . S
C445 H421 0.950 . S
C445 C440 1.363 . S
C445 C444 1.415 . S
C446 H422 0.951 1_554 S
C446 C447 1.366 . S
C446 C448 1.388 . S
C447 C446 1.366 . S
C447 C451 1.385 . S
C448 H423 0.950 1_554 S
C448 C446 1.388 . S
C448 C449 1.366 . S
C449 C448 1.366 . S
C449 C450 1.414 . S
C449 C452 1.499 . S
C450 H424 0.950 . S
C450 C449 1.414 . S
C450 C451 1.374 . S
C451 H425 0.950 . S
C451 C447 1.385 . S
C451 C450 1.374 . S
C452 C449 1.499 . S
C452 C453 1.373 1_554 S
C452 C454 1.389 . S
C453 H426 0.950 . S
C453 C439 1.377 . S
C453 C452 1.373 1_556 S
C454 C438 1.377 . S
C454 C452 1.389 . S
C454 C455 1.524 . S
C455 C454 1.524 . S
C455 C456 1.397 . S
C455 C460 1.363 . S
C456 H427 0.950 . S
C456 C455 1.397 . S
C456 C457 1.334 . S
C457 H428 0.950 . S
C457 C456 1.334 . S
C457 C458 1.287 . S
C458 C457 1.287 . S
C458 C459 1.524 . S
C458 H461 0.999 . S
C459 H429 0.950 . S
C459 C458 1.524 . S
C459 C460 1.415 . S
C460 H430 0.950 . S
C460 C455 1.363 . S
C460 C459 1.415 . S
H461 C458 0.999 . S
H462 C443 0.913 . S
H463 C481 0.951 . S
H464 C483 0.951 . S
H465 C485 0.950 . S
H466 C486 0.950 . S
H467 C488 0.950 . S
H468 C491 0.950 . S
H469 C492 0.950 . S
H470 C494 0.950 . S
H471 C495 0.950 . S
H472 C496 0.951 . S
H473 C498 0.951 . S
H474 C500 0.950 . S
H475 C501 0.950 . S
H476 C503 0.950 . S
H477 C506 0.950 . S
H478 C507 0.950 . S
H479 C509 0.950 . S
H480 C510 0.950 . S
C481 H463 0.951 . S
C481 C482 1.366 1_554 S
C481 C483 1.388 . S
C482 C481 1.366 1_556 S
C482 C486 1.385 . S
C483 H464 0.951 . S
C483 C481 1.388 . S
C483 C484 1.366 1_554 S
C484 C483 1.366 1_556 S
C484 C485 1.414 . S
C484 C487 1.499 . S
C485 H465 0.950 . S
C485 C484 1.414 . S
C485 C486 1.374 . S
C486 H466 0.950 . S
C486 C482 1.385 . S
C486 C485 1.374 . S
C487 C484 1.499 . S
C487 C488 1.373 . S
C487 C489 1.389 1_556 S
C488 H467 0.950 . S
C488 C487 1.373 . S
C488 C504 1.377 . S
C489 C487 1.389 1_554 S
C489 C490 1.524 . S
C489 C503 1.377 . S
C490 C489 1.524 . S
C490 C491 1.397 . S
C490 C495 1.363 . S
C491 H468 0.950 . S
C491 C490 1.397 . S
C491 C492 1.334 . S
C492 H469 0.950 . S
C492 C491 1.334 . S
C492 C493 1.287 . S
C493 C492 1.287 . S
C493 C494 1.524 . S
C493 H512 0.913 . S
C494 H470 0.950 . S
C494 C493 1.524 . S
C494 C495 1.415 . S
C495 H471 0.950 . S
C495 C490 1.363 . S
C495 C494 1.415 . S
C496 H472 0.951 . S
C496 C497 1.366 . S
C496 C498 1.388 . S
C497 C496 1.366 . S
C497 C501 1.385 1_556 S
C498 H473 0.951 . S
C498 C496 1.388 . S
C498 C499 1.366 . S
C499 C498 1.366 . S
C499 C500 1.414 1_556 S
C499 C502 1.499 . S
C500 H474 0.950 . S
C500 C499 1.414 1_554 S
C500 C501 1.374 . S
C501 H475 0.950 . S
C501 C497 1.385 1_554 S
C501 C500 1.374 . S
C502 C499 1.499 . S
C502 C503 1.373 1_556 S
C502 C504 1.389 . S
C503 H476 0.950 . S
C503 C489 1.377 . S
C503 C502 1.373 1_554 S
C504 C488 1.377 . S
C504 C502 1.389 . S
C504 C505 1.524 . S
C505 C504 1.524 . S
C505 C506 1.397 . S
C505 C510 1.363 . S
C506 H477 0.950 . S
C506 C505 1.397 . S
C506 C507 1.334 . S
C507 H478 0.950 . S
C507 C506 1.334 . S
C507 C508 1.287 . S
C508 C507 1.287 . S
C508 C509 1.524 . S
C508 H511 0.999 . S
C509 H479 0.950 . S
C509 C508 1.524 . S
C509 C510 1.415 . S
C510 H480 0.950 . S
C510 C505 1.363 . S
C510 C509 1.415 . S
H511 C508 0.999 . S
H512 C493 0.913 . S
C82 C16 1.291 . S
C97 C13 1.291 . S
C132 C34 1.276 . S
C147 C37 1.277 1_545 S
C182 C58 1.278 . S
C197 C55 1.279 . S
C232 C14 1.071 . S
C247 C59 1.071 1_554 S
C282 C35 1.072 . S
C297 C17 1.072 1_554 S
C332 C38 1.055 . S
C347 C57 1.054 . S
C382 C15 1.037 1_554 S
C397 C60 1.038 . S
C432 C18 1.036 . S
C447 C36 1.038 1_554 S
C482 C56 1.055 1_556 S
C497 C39 1.054 1_556 S
