# Generated by pormake.
# Topology afw, (4)-cn, num edge types: 1
# Building blocks:
#     Node 0, Type 0, BuildingBlock: CEKHIL_clean_sbu_0, # of connection points: 4
#     Node 1, Type 0, BuildingBlock: CEKHIL_clean_sbu_0, # of connection points: 4
#     Node 2, Type 0, BuildingBlock: CEKHIL_clean_sbu_0, # of connection points: 4
#     Node 3, Type 0, BuildingBlock: CEKHIL_clean_sbu_0, # of connection points: 4
#     Node 4, Type 0, BuildingBlock: CEKHIL_clean_sbu_0, # of connection points: 4
#     Node 5, Type 0, BuildingBlock: CEKHIL_clean_sbu_0, # of connection points: 4
#     Node 6, Type 0, BuildingBlock: CEKHIL_clean_sbu_0, # of connection points: 4
#     Node 7, Type 0, BuildingBlock: CEKHIL_clean_sbu_0, # of connection points: 4
#     Node 8, Type 0, BuildingBlock: CEKHIL_clean_sbu_0, # of connection points: 4
#     Edge 9, Type (0, 0), BuildingBlock: ZUJKAS_clean_linker_0, # of connection points: 2
#     Edge 10, Type (0, 0), BuildingBlock: ZUJKAS_clean_linker_0, # of connection points: 2
#     Edge 11, Type (0, 0), BuildingBlock: ZUJKAS_clean_linker_0, # of connection points: 2
#     Edge 12, Type (0, 0), BuildingBlock: ZUJKAS_clean_linker_0, # of connection points: 2
#     Edge 13, Type (0, 0), BuildingBlock: ZUJKAS_clean_linker_0, # of connection points: 2
#     Edge 14, Type (0, 0), BuildingBlock: ZUJKAS_clean_linker_0, # of connection points: 2
#     Edge 15, Type (0, 0), BuildingBlock: ZUJKAS_clean_linker_0, # of connection points: 2
#     Edge 16, Type (0, 0), BuildingBlock: ZUJKAS_clean_linker_0, # of connection points: 2
#     Edge 17, Type (0, 0), BuildingBlock: ZUJKAS_clean_linker_0, # of connection points: 2
#     Edge 18, Type (0, 0), BuildingBlock: ZUJKAS_clean_linker_0, # of connection points: 2
#     Edge 19, Type (0, 0), BuildingBlock: ZUJKAS_clean_linker_0, # of connection points: 2
#     Edge 20, Type (0, 0), BuildingBlock: ZUJKAS_clean_linker_0, # of connection points: 2
#     Edge 21, Type (0, 0), BuildingBlock: ZUJKAS_clean_linker_0, # of connection points: 2
#     Edge 22, Type (0, 0), BuildingBlock: ZUJKAS_clean_linker_0, # of connection points: 2
#     Edge 23, Type (0, 0), BuildingBlock: ZUJKAS_clean_linker_0, # of connection points: 2
#     Edge 24, Type (0, 0), BuildingBlock: ZUJKAS_clean_linker_0, # of connection points: 2
#     Edge 25, Type (0, 0), BuildingBlock: ZUJKAS_clean_linker_0, # of connection points: 2
#     Edge 26, Type (0, 0), BuildingBlock: ZUJKAS_clean_linker_0, # of connection points: 2
# Relax obj value: 0.199
# Max RMSD: 0.207
# Mean RMSD: 0.200
data_MOF--net-afw--node1-CEKHIL_clean_sbu_0--edge1-ZUJKAS_clean_linker_0
_symmetry_space_group_name_H-M    P1
_symmetry_Int_Tables_number       1
_symmetry_cell_setting            triclinic
loop_
_symmetry_equiv_pos_as_xyz
'x, y, z'
_cell_length_a     55.405961
_cell_length_b     55.913096
_cell_length_c     40.428935
_cell_angle_alpha  90.632073
_cell_angle_beta   90.648677
_cell_angle_gamma 119.8821
loop_
_atom_site_label
_atom_site_type_symbol
_atom_site_fract_x
_atom_site_fract_y
_atom_site_fract_z
_atom_type_partial_charge
Co0 Co 0.02635 0.21919 0.00655 0.0
O1 O 0.04655 0.25625 0.99097 0.0
O2 O 0.00275 0.22626 0.97717 0.0
C3 C 0.05961 0.20805 -0.00236 0.0
O4 O -0.00063 0.17881 0.01715 0.0
Co5 Co 0.04871 0.20365 0.06885 0.0
O6 O 0.0208 0.16565 0.05438 0.0
C7 C 0.02016 0.23569 0.07697 0.0
C8 C 0.02422 0.25086 0.97429 0.0
C9 C 0.00076 0.16013 0.03419 0.0
O10 O 0.01383 0.23233 0.0459 0.0
O11 O 0.03566 0.2275 0.09063 0.0
O12 O 0.0434 0.20693 0.97349 0.0
O13 O 0.05733 0.21888 0.025 0.0
Co14 Co 0.81454 0.81069 0.03052 0.0
O15 O 0.79699 0.77298 0.0435 0.0
O16 O 0.78525 0.80318 0.0618 0.0
C17 C 0.85835 0.81876 0.03642 0.0
O18 O 0.82949 0.85189 0.02319 0.0
Co19 Co 0.85134 0.82865 0.96767 0.0
O20 O 0.86449 0.86584 0.98715 0.0
C21 C 0.79008 0.79893 0.96047 0.0
C22 C 0.78144 0.77823 0.06245 0.0
C23 C 0.8506 0.87102 0.00812 0.0
O24 O 0.78753 0.80026 0.99196 0.0
O25 O 0.8135 0.80737 0.94647 0.0
O26 O 0.84519 0.82027 0.06206 0.0
O27 O 0.84385 0.81007 0.00934 0.0
Co28 Co 0.19768 0.99572 0.0068 0.0
O29 O 0.21404 0.9742 0.99266 0.0
O30 O 0.22501 0.01532 0.97345 0.0
C31 C 0.15334 0.96117 0.00492 0.0
O32 O 0.18417 0.02324 0.01398 0.0
Co33 Co 0.16471 0.98293 0.07223 0.0
O34 O 0.1521 0.00764 0.05375 0.0
C35 C 0.22608 0.011 0.07464 0.0
C36 C 0.22863 0.99405 0.97258 0.0
C37 C 0.16499 0.02427 0.03057 0.0
O38 O 0.22686 0.01358 0.043 0.0
O39 O 0.2034 -0.00231 0.09047 0.0
O40 O 0.16525 0.97385 0.97798 0.0
O41 O 0.16924 0.96798 0.03092 0.0
Co42 Co 0.64793 0.53281 0.34604 0.0
O43 O 0.62845 0.54937 0.36628 0.0
O44 O 0.67329 0.56319 0.37444 0.0
C45 C 0.61689 0.48829 0.35537 0.0
O46 O 0.67474 0.52028 0.33075 0.0
Co47 Co 0.62318 0.49535 0.2834 0.0
O48 O 0.65311 0.48638 0.29245 0.0
C49 C 0.64612 0.55507 0.2783 0.0
C50 C 0.65204 0.56624 0.38086 0.0
C51 C 0.6736 0.50091 0.31212 0.0
O52 O 0.65696 0.55826 0.30744 0.0
O53 O 0.62953 0.53136 0.26527 0.0
O54 O 0.63412 0.50381 0.37867 0.0
O55 O 0.61649 0.50108 0.32905 0.0
Co56 Co 0.4907 0.13898 0.35621 0.0
O57 O 0.47114 0.10095 0.36847 0.0
O58 O 0.46031 0.13234 0.38495 0.0
C59 C 0.53409 0.14673 0.36562 0.0
O60 O 0.50692 0.18034 0.3494 0.0
Co61 Co 0.53031 0.15712 0.29605 0.0
O62 O 0.54175 0.19473 0.3131 0.0
C63 C 0.4696 0.12757 0.28469 0.0
C64 C 0.45514 0.10695 0.38561 0.0
C65 C 0.52757 0.19963 0.33392 0.0
O66 O 0.46585 0.12969 0.31572 0.0
O67 O 0.49352 0.13522 0.27247 0.0
O68 O 0.51945 0.14754 0.39006 0.0
O69 O 0.52091 0.13814 0.33763 0.0
Co70 Co 0.87931 0.37117 0.34073 0.0
O71 O 0.91683 0.39235 0.35797 0.0
O72 O 0.88573 0.35016 0.37333 0.0
C73 C 0.86788 0.40444 0.34383 0.0
O74 O 0.83883 0.34334 0.33093 0.0
Co75 Co 0.85957 0.38486 0.27527 0.0
O76 O 0.82168 0.35831 0.29072 0.0
C77 C 0.89426 0.3585 0.27303 0.0
C78 C 0.9105 0.37145 0.37692 0.0
C79 C 0.81838 0.34154 0.31364 0.0
O80 O 0.89214 0.35532 0.30453 0.0
O81 O 0.88443 0.3715 0.25705 0.0
O82 O 0.86735 0.39092 0.37001 0.0
O83 O 0.8782 0.3996 0.31774 0.0
Co84 Co 0.35906 0.88504 0.67266 0.0
O85 O 0.38009 0.92054 0.65312 0.0
O86 O 0.33516 0.89183 0.64349 0.0
C87 C 0.38967 0.87042 0.66373 0.0
O88 O 0.3311 0.84622 0.68763 0.0
Co89 Co 0.38322 0.87218 0.73551 0.0
O90 O 0.35273 0.83397 0.7257 0.0
C91 C 0.36126 0.91018 0.74042 0.0
C92 C 0.35731 0.91535 0.63766 0.0
C93 C 0.33213 0.82816 0.70629 0.0
O94 O 0.35035 0.90248 0.71124 0.0
O95 O 0.37755 0.90264 0.75335 0.0
O96 O 0.37271 0.86873 0.64019 0.0
O97 O 0.38978 0.88378 0.69005 0.0
Co98 Co 0.14493 0.47993 0.69284 0.0
O99 O 0.12734 0.44242 0.70692 0.0
O100 O 0.11673 0.47351 0.72512 0.0
C101 C 0.1889 0.48803 0.69728 0.0
O102 O 0.1597 0.521 0.68456 0.0
Co103 Co 0.18024 0.49698 0.62882 0.0
O104 O 0.1931 0.53467 0.64641 0.0
C105 C 0.11885 0.46488 0.62398 0.0
C106 C 0.11236 0.44839 0.726 0.0
C107 C 0.17988 0.54001 0.66816 0.0
O108 O 0.1169 0.46832 0.65518 0.0
O109 O 0.14205 0.47297 0.60958 0.0
O110 O 0.17644 0.49011 0.7233 0.0
O111 O 0.1737 0.47887 0.67076 0.0
Co112 Co 0.5266 0.65691 0.6739 0.0
O113 O 0.54713 0.6394 0.6596 0.0
O114 O 0.55481 0.68032 0.6434 0.0
C115 C 0.48378 0.62008 0.66752 0.0
O116 O 0.50924 0.68106 0.68156 0.0
Co117 Co 0.48935 0.63772 0.73601 0.0
O118 O 0.47519 0.66159 0.71868 0.0
C119 C 0.55051 0.66993 0.74394 0.0
C120 C 0.56119 0.66091 0.64148 0.0
C121 C 0.48847 0.67975 0.69708 0.0
O122 O 0.55306 0.6745 0.71268 0.0
O123 O 0.52718 0.65407 0.75742 0.0
O124 O 0.4966 0.6348 0.6421 0.0
O125 O 0.49824 0.62636 0.69469 0.0
H126 H 0.12496 0.03206 0.05926 0.0
H127 H 0.11163 0.06627 0.0458 0.0
H128 H 0.17388 0.09895 0.97049 0.0
H129 H 0.1877 0.06474 0.98392 0.0
H130 H 0.17266 0.1397 0.01262 0.0
H131 H 0.06798 0.06501 0.96196 0.0
H132 H 0.0747 0.05593 0.0021 0.0
H133 H 0.09513 0.0564 0.96758 0.0
C134 C 0.1359 0.04645 0.03979 0.0
C135 C 0.15737 0.04552 0.02258 0.0
C136 C 0.12811 0.06591 0.03203 0.0
C137 C 0.14146 0.08479 0.00681 0.0
C138 C 0.16321 0.08437 0.98989 0.0
H139 H 0.06562 0.18186 0.94371 0.0
H140 H 0.08946 0.155 0.94137 0.0
C141 C 0.17105 0.0648 -0.00239 0.0
C142 C 0.1327 0.10511 -0.00126 0.0
H143 H 0.07543 0.10969 0.97752 0.0
C144 C 0.15154 0.13325 0.00447 0.0
C145 C 0.10529 0.09665 0.98755 0.0
C146 C 0.08468 0.06687 0.9791 0.0
C147 C 0.14317 0.15305 0.00104 0.0
C148 C 0.11518 0.14432 0.99216 0.0
C149 C 0.09682 0.11635 0.98468 0.0
C150 C 0.10387 0.16337 0.99241 0.0
C151 C 0.16428 0.18305 0.00728 0.0
C152 C 0.10426 0.17717 0.02181 0.0
C153 C 0.09072 0.19257 0.0232 0.0
C154 C 0.07629 0.19419 0.9953 0.0
C155 C 0.07655 0.18097 0.96564 0.0
C156 C 0.09016 0.16564 0.96424 0.0
H157 H 0.18581 0.18718 0.00313 0.0
H158 H 0.1602 0.19661 0.99108 0.0
H159 H 0.16311 0.18858 0.03343 0.0
H160 H 0.11413 0.17518 0.04406 0.0
H161 H 0.09081 0.20246 0.04642 0.0
H162 H 0.90065 0.91545 0.9947 0.0
H163 H 0.91471 0.96397 4e-05 0.0
H164 H 0.8346 0.94261 0.03955 0.0
H165 H 0.82022 0.89333 0.03458 0.0
H166 H 0.88894 0.99062 0.9691 0.0
H167 H 0.89108 0.00046 0.10662 0.0
H168 H 0.89035 0.97126 0.0861 0.0
H169 H 0.8596 0.97427 0.08658 0.0
C170 C 0.88591 0.9209 0.00464 0.0
C171 C 0.8592 0.90044 0.01404 0.0
C172 C 0.89402 0.94873 0.00762 0.0
C173 C 0.87571 0.95693 0.02005 0.0
C174 C 0.84913 0.93671 0.0301 0.0
H175 H 0.94939 0.13853 0.0027 0.0
H176 H 0.91265 0.0898 -0.00082 0.0
C177 C 0.84096 0.9086 0.02727 0.0
C178 C 0.88515 0.98682 0.02194 0.0
H179 H 0.91052 0.04127 0.07657 0.0
C180 C 0.89314 0.00176 0.99253 0.0
C181 C 0.89051 0.00117 0.05256 0.0
C182 C 0.88262 0.98614 0.08488 0.0
C183 C 0.90825 0.03072 0.99301 0.0
C184 C 0.91508 0.04509 0.02378 0.0
C185 C 0.90523 0.03016 0.05304 0.0
C186 C 0.93611 0.07486 0.0266 0.0
C187 C 0.91859 0.04559 0.96083 0.0
C188 C 0.96123 0.08263 0.04352 0.0
C189 C 0.98201 0.11021 0.04573 0.0
C190 C 0.97828 0.13087 0.03103 0.0
C191 C 0.95302 0.12314 0.01411 0.0
C192 C 0.93202 0.09532 0.01205 0.0
H193 H 0.91473 0.03116 0.93972 0.0
H194 H 0.90774 0.05729 0.95533 0.0
H195 H 0.94127 0.06055 0.96271 0.0
H196 H 0.96494 0.0672 0.05472 0.0
H197 H 0.00117 0.11524 0.05886 0.0
H198 H 0.89656 0.85057 0.08445 0.0
H199 H 0.94745 0.87268 0.08112 0.0
H200 H 0.93894 0.83444 0.98522 0.0
H201 H 0.88835 0.81236 0.98828 0.0
H202 H 0.97929 0.83287 0.03189 0.0
H203 H 0.99147 0.93694 0.01388 0.0
H204 H 0.97162 0.91792 0.04883 0.0
H205 H 0.95854 0.90554 0.0077 0.0
C206 C 0.90559 0.84665 0.06288 0.0
C207 C 0.88863 0.82995 0.03652 0.0
C208 C 0.93455 0.85935 0.06096 0.0
C209 C 0.94673 0.85532 0.03278 0.0
C210 C 0.9298 0.83778 0.00709 0.0
H211 H 0.11343 0.9514 0.95789 0.0
H212 H 0.06279 0.92403 0.96404 0.0
C213 C 0.90096 0.82527 0.00888 0.0
C214 C 0.97715 0.8702 0.02912 0.0
H215 H 0.03251 0.93402 0.0154 0.0
C216 C 0.99103 0.85499 0.02844 0.0
C217 C 0.99208 0.89894 0.02405 0.0
C218 C 0.97777 0.9159 0.02338 0.0
C219 C 0.01973 0.86794 0.0231 0.0
C220 C 0.03473 0.89675 0.01852 0.0
C221 C 0.02081 0.91191 0.01895 0.0
C222 C 0.06508 0.91173 0.01401 0.0
C223 C 0.03374 0.85072 0.02185 0.0
C224 C 0.08287 0.91369 0.04008 0.0
C225 C 0.11162 0.92926 0.03668 0.0
C226 C 0.12303 0.94316 0.00717 0.0
C227 C 0.10517 0.94078 0.98084 0.0
C228 C 0.07633 0.92527 0.98433 0.0
H229 H 0.01844 0.82841 0.01835 0.0
H230 H 0.04891 0.85738 0.0015 0.0
H231 H 0.04529 0.85347 0.04549 0.0
H232 H 0.07449 0.90369 0.06331 0.0
H233 H 0.1249 0.93078 0.05742 0.0
H234 H 0.85974 0.42909 0.29022 0.0
H235 H 0.83016 0.44999 0.28663 0.0
H236 H 0.81233 0.43572 0.39043 0.0
H237 H 0.8415 0.41438 0.39412 0.0
H238 H 0.7653 0.41585 0.35113 0.0
H239 H 0.8408 0.52399 0.3197 0.0
H240 H 0.84227 0.49886 0.29304 0.0
H241 H 0.85144 0.5007 0.33617 0.0
C242 C 0.84987 0.43079 0.31239 0.0
C243 C 0.85284 0.42001 0.34243 0.0
C244 C 0.83311 0.44289 0.31034 0.0
C245 C 0.81929 0.44465 0.33834 0.0
C246 C 0.82291 0.43464 0.36857 0.0
H247 H 0.72036 0.52591 0.35209 0.0
H248 H 0.7562 0.51289 0.35873 0.0
C249 C 0.8396 0.42249 0.37063 0.0
C250 C 0.79922 0.45471 0.33549 0.0
H251 H 0.79259 0.50978 0.31258 0.0
C252 C 0.77129 0.43646 0.34293 0.0
C253 C 0.80717 0.48167 0.32508 0.0
C254 C 0.8371 0.50255 0.31833 0.0
C255 C 0.75095 0.44422 0.33954 0.0
C256 C 0.75869 0.47078 0.32782 0.0
C257 C 0.78672 0.48931 0.32117 0.0
C258 C 0.73787 0.4796 0.32239 0.0
C259 C 0.72138 0.42399 0.3488 0.0
C260 C 0.7161 0.46558 0.29918 0.0
C261 C 0.69555 0.47289 0.29533 0.0
C262 C 0.69649 0.49451 0.3145 0.0
C263 C 0.7189 0.50911 0.33698 0.0
C264 C 0.73944 0.50174 0.34082 0.0
H265 H 0.72035 0.40774 0.36526 0.0
H266 H 0.71157 0.43465 0.36142 0.0
H267 H 0.70898 0.41371 0.32601 0.0
H268 H 0.71484 0.44876 0.28428 0.0
H269 H 0.67872 0.46128 0.27766 0.0
H270 H 0.50702 0.22105 0.38026 0.0
H271 H 0.51965 0.26947 0.3883 0.0
H272 H 0.57704 0.29241 0.30783 0.0
H273 H 0.56524 0.2446 0.30019 0.0
H274 H 0.60001 0.32673 0.36008 0.0
H275 H 0.49569 0.31349 0.33139 0.0
H276 H 0.4963 0.29267 0.36453 0.0
H277 H 0.5041 0.28671 0.32324 0.0
C278 C 0.52229 0.23641 0.36425 0.0
C279 C 0.53498 0.22882 0.33947 0.0
C280 C 0.52936 0.26406 0.36875 0.0
C281 C 0.54895 0.28452 0.34829 0.0
C282 C 0.5618 0.277 0.32385 0.0
H283 H 0.58606 0.45044 0.30667 0.0
H284 H 0.56835 0.4006 0.30705 0.0
C285 C 0.55496 0.24954 0.31951 0.0
C286 C 0.55669 0.31393 0.35232 0.0
H287 H 0.53102 0.35819 0.34828 0.0
C288 C 0.5849 0.33359 0.35764 0.0
C289 C 0.53699 0.32289 0.34868 0.0
C290 C 0.50661 0.30291 0.34134 0.0
C291 C 0.59401 0.36192 0.35913 0.0
C292 C 0.57427 0.37083 0.35606 0.0
C293 C 0.54604 0.35124 0.35092 0.0
C294 C 0.5828 0.40053 0.35699 0.0
C295 C 0.62482 0.3821 0.36288 0.0
C296 C 0.59601 0.41682 0.38527 0.0
C297 C 0.60621 0.44525 0.38507 0.0
C298 C 0.6032 0.45788 0.35665 0.0
C299 C 0.58878 0.44133 0.32888 0.0
C300 C 0.57865 0.41286 0.32907 0.0
H301 H 0.63754 0.37238 0.35675 0.0
H302 H 0.63115 0.40013 0.34672 0.0
H303 H 0.6297 0.38973 0.3889 0.0
H304 H 0.59893 0.40762 0.40729 0.0
H305 H 0.61705 0.4574 0.40696 0.0
H306 H 0.56859 0.17885 0.41636 0.0
H307 H 0.61917 0.20921 0.41407 0.0
H308 H 0.61891 0.17794 0.31598 0.0
H309 H 0.56867 0.14732 0.31826 0.0
H310 H 0.66507 0.1873 0.35539 0.0
H311 H 0.64789 0.27727 0.35474 0.0
H312 H 0.6344 0.25511 0.38968 0.0
H313 H 0.61981 0.24224 0.34911 0.0
C314 C 0.57944 0.17802 0.39463 0.0
C315 C 0.56471 0.16106 0.36727 0.0
C316 C 0.60825 0.19547 0.39329 0.0
C317 C 0.62255 0.19616 0.36457 0.0
C318 C 0.60816 0.17779 0.33826 0.0
H319 H 0.76971 0.32725 0.27993 0.0
H320 H 0.72276 0.29114 0.29373 0.0
C321 C 0.57946 0.16038 0.33958 0.0
C322 C 0.65195 0.21747 0.36042 0.0
H323 H 0.69412 0.28668 0.35066 0.0
C324 C 0.67156 0.20907 0.35464 0.0
C325 C 0.66005 0.24574 0.35881 0.0
C326 C 0.63947 0.25574 0.36312 0.0
C327 C 0.69915 0.22825 0.34697 0.0
C328 C 0.7073 0.25655 0.34566 0.0
C329 C 0.68775 0.26496 0.35181 0.0
C330 C 0.73584 0.2778 0.33703 0.0
C331 C 0.71901 0.21795 0.33919 0.0
C332 C 0.75863 0.28228 0.35693 0.0
C333 C 0.78547 0.30273 0.34902 0.0
C334 C 0.78997 0.31931 0.32123 0.0
C335 C 0.76701 0.31483 0.30144 0.0
C336 C 0.74018 0.29425 0.3093 0.0
H337 H 0.70782 0.19551 0.33308 0.0
H338 H 0.7324 0.2292 0.31811 0.0
H339 H 0.7327 0.22146 0.3611 0.0
H340 H 0.75563 0.27021 0.37885 0.0
H341 H 0.80262 0.30577 0.36502 0.0
H342 H 0.42045 0.86463 0.71285 0.0
H343 H 0.44069 0.83456 0.71244 0.0
H344 H 0.41264 0.8104 0.61127 0.0
H345 H 0.39169 0.83995 0.61178 0.0
H346 H 0.39799 0.76646 0.6496 0.0
H347 H 0.50978 0.84151 0.6708 0.0
H348 H 0.4884 0.8448 0.70145 0.0
H349 H 0.4849 0.85191 0.65888 0.0
C350 C 0.41891 0.8532 0.69037 0.0
C351 C 0.40442 0.85456 0.66238 0.0
C352 C 0.43068 0.83618 0.69009 0.0
C353 C 0.42853 0.82054 0.66166 0.0
C354 C 0.41466 0.82241 0.6334 0.0
H355 H 0.51038 0.72117 0.65182 0.0
H356 H 0.49581 0.75497 0.64007 0.0
C357 C 0.40273 0.8393 0.63373 0.0
C358 C 0.43863 0.8005 0.66245 0.0
H359 H 0.49526 0.79405 0.68154 0.0
C360 C 0.41935 0.77255 0.65617 0.0
C361 C 0.46658 0.80849 0.67056 0.0
C362 C 0.48867 0.83836 0.67546 0.0
C363 C 0.42698 0.75222 0.65909 0.0
C364 C 0.45448 0.76003 0.66927 0.0
C365 C 0.47408 0.78808 0.67419 0.0
C366 C 0.46303 0.73932 0.67601 0.0
C367 C 0.4055 0.72258 0.65128 0.0
C368 C 0.44963 0.71954 0.70038 0.0
C369 C 0.45781 0.70015 0.70711 0.0
C370 C 0.47979 0.70033 0.68982 0.0
C371 C 0.49337 0.72039 0.6656 0.0
C372 C 0.48509 0.73974 0.65884 0.0
H373 H 0.38877 0.72111 0.6345 0.0
H374 H 0.41511 0.71136 0.63958 0.0
H375 H 0.39567 0.7121 0.67456 0.0
H376 H 0.43297 0.71925 0.71445 0.0
H377 H 0.44695 0.68513 0.72602 0.0
H378 H 0.28054 0.80681 0.67567 0.0
H379 H 0.24344 0.7583 0.6727 0.0
H380 H 0.29496 0.73551 0.7296 0.0
H381 H 0.33141 0.78345 0.73349 0.0
H382 H 0.24365 0.71587 0.64464 0.0
H383 H 0.22346 0.69244 0.77654 0.0
H384 H 0.24312 0.72741 0.76224 0.0
H385 H 0.26002 0.70746 0.76981 0.0
C386 C 0.28377 0.79148 0.68793 0.0
C387 C 0.30893 0.79914 0.70502 0.0
C388 C 0.26253 0.76377 0.68627 0.0
C389 C 0.26606 0.74327 0.70169 0.0
C390 C 0.29121 0.75095 0.71858 0.0
H391 H 0.22593 0.5849 0.6451 0.0
H392 H 0.24035 0.63323 0.65319 0.0
C393 C 0.31224 0.77849 0.72048 0.0
C394 C 0.24492 0.71352 0.69776 0.0
H395 H 0.21482 0.65333 0.74033 0.0
C396 C 0.23679 0.70229 0.66565 0.0
C397 C 0.23518 0.69568 0.72509 0.0
C398 C 0.24067 0.70648 0.76033 0.0
C399 C 0.22141 0.67365 0.66005 0.0
C400 C 0.21469 0.65576 0.68719 0.0
C401 C 0.22053 0.66699 0.71943 0.0
C402 C 0.20488 0.62591 0.68237 0.0
C403 C 0.21328 0.66287 0.62495 0.0
C404 C 0.18063 0.60551 0.69731 0.0
C405 C 0.17236 0.57747 0.69306 0.0
C406 C 0.18831 0.56947 0.67389 0.0
C407 C 0.21282 0.59012 0.6596 0.0
C408 C 0.22105 0.6179 0.66397 0.0
H409 H 0.21012 0.67748 0.6096 0.0
H410 H 0.23032 0.6607 0.61381 0.0
H411 H 0.19392 0.64246 0.62392 0.0
H412 H 0.16806 0.61126 0.71206 0.0
H413 H 0.15345 0.56214 0.70453 0.0
H414 H 0.21771 0.48256 0.64683 0.0
H415 H 0.26795 0.50209 0.6433 0.0
H416 H 0.27878 0.5368 0.74181 0.0
H417 H 0.2282 0.51733 0.74554 0.0
H418 H 0.313 0.57443 0.69219 0.0
H419 H 0.31843 0.47791 0.6913 0.0
H420 H 0.29364 0.47792 0.66227 0.0
H421 H 0.28853 0.47944 0.70589 0.0
C422 C 0.23072 0.49413 0.66791 0.0
C423 C 0.21908 0.49843 0.6965 0.0
C424 C 0.25939 0.50513 0.66589 0.0
C425 C 0.27693 0.52055 0.69243 0.0
C426 C 0.26544 0.52475 0.72117 0.0
H427 H 0.45362 0.58422 0.7152 0.0
H428 H 0.40301 0.55895 0.72006 0.0
C429 C 0.23663 0.51361 0.72329 0.0
C430 C 0.30737 0.53348 0.6892 0.0
H431 H 0.35946 0.51892 0.67604 0.0
C432 C 0.32324 0.56235 0.68886 0.0
C433 C 0.32052 0.51756 0.68499 0.0
C434 C 0.30449 0.48649 0.6864 0.0
C435 C 0.352 0.57579 0.68376 0.0
C436 C 0.36499 0.55984 0.67852 0.0
C437 C 0.34924 0.53099 0.67956 0.0
C438 C 0.39524 0.57292 0.67358 0.0
C439 C 0.36834 0.60693 0.68436 0.0
C440 C 0.40742 0.58834 0.64526 0.0
C441 C 0.43636 0.60271 0.64231 0.0
C442 C 0.45338 0.60186 0.66774 0.0
C443 C 0.44099 0.58534 0.69531 0.0
C444 C 0.41213 0.5709 0.69813 0.0
H445 H 0.35627 0.61602 0.69507 0.0
H446 H 0.38804 0.61462 0.69889 0.0
H447 H 0.3738 0.61435 0.6587 0.0
H448 H 0.39457 0.5898 0.62589 0.0
H449 H 0.44539 0.61532 0.62083 0.0
H450 H 0.98774 0.24281 0.92305 0.0
H451 H -0.00637 0.27629 0.88044 0.0
H452 H 0.06689 0.33881 0.93217 0.0
H453 H 0.06142 0.3057 0.97436 0.0
H454 H 0.0043 0.3367 0.88305 0.0
H455 H 0.09092 0.32222 0.83876 0.0
H456 H 0.06416 0.29792 0.86534 0.0
H457 H 0.09188 0.32982 0.88224 0.0
C458 C 0.00472 0.26386 0.92567 0.0
C459 C 0.02438 0.27155 0.95172 0.0
C460 C 0.008 0.28294 0.90141 0.0
C461 C 0.03083 0.30989 0.90312 0.0
C462 C 0.04924 0.31805 0.93038 0.0
H463 H 0.09438 0.45678 0.78567 0.0
H464 H 0.06929 0.42179 0.82746 0.0
C465 C 0.04612 0.29906 0.95437 0.0
C466 C 0.03781 0.32848 0.87469 0.0
H467 H 0.08646 0.35822 0.81508 0.0
C468 C 0.02209 0.34131 0.86791 0.0
C469 C 0.06085 0.33416 0.8549 0.0
C470 C 0.07786 0.32019 0.86038 0.0
C471 C 0.02935 0.36033 0.84214 0.0
C472 C 0.05305 0.36673 0.82311 0.0
C473 C 0.0683 0.35336 0.82964 0.0
C474 C 0.06302 0.38728 0.79635 0.0
C475 C 0.01156 0.37321 0.83536 0.0
C476 C 0.06746 0.37954 0.76487 0.0
C477 C 0.0822 0.39945 0.74139 0.0
C478 C 0.09258 0.42754 0.74874 0.0
C479 C 0.08644 0.43523 0.77934 0.0
C480 C 0.07197 0.41523 0.80315 0.0
H481 H 0.99033 0.36066 0.84538 0.0
H482 H 0.02132 0.39392 0.84749 0.0
H483 H 0.00975 0.37576 0.8084 0.0
H484 H 0.06073 0.35813 0.75904 0.0
H485 H 0.08643 0.39293 0.71788 0.0
H486 H 0.78772 0.80378 0.89371 0.0
H487 H 0.74657 0.78359 0.85759 0.0
H488 H 0.69436 0.74706 0.94176 0.0
H489 H 0.73554 0.76774 0.97844 0.0
H490 H 0.7097 0.72878 0.84808 0.0
H491 H 0.6558 0.78328 0.89482 0.0
H492 H 0.69173 0.79451 0.90509 0.0
H493 H 0.66421 0.76597 0.92618 0.0
C494 C 0.7675 0.79158 0.90467 0.0
C495 C 0.7649 0.78731 0.93898 0.0
C496 C 0.74401 0.78011 0.88395 0.0
C497 C 0.71746 0.76412 0.89705 0.0
C498 C 0.71467 0.75986 0.93128 0.0
H499 H 0.5536 0.66513 0.81083 0.0
H500 H 0.59465 0.68836 0.84696 0.0
C501 C 0.73821 0.77155 0.95215 0.0
C502 C 0.69297 0.75079 0.87447 0.0
H503 H 0.63056 0.74631 0.85633 0.0
C504 C 0.69245 0.73271 0.84974 0.0
C505 C 0.67058 0.75604 0.87678 0.0
C506 C 0.67062 0.7762 0.90194 0.0
C507 C 0.66985 0.71932 0.82752 0.0
C508 C 0.64741 0.72444 0.82995 0.0
C509 C 0.6479 0.74252 0.85463 0.0
C510 C 0.62283 0.7106 0.80766 0.0
C511 C 0.66987 0.69936 0.80209 0.0
C512 C 0.62519 0.71564 0.77361 0.0
C513 C 0.60174 0.70234 0.75274 0.0
C514 C 0.57556 0.68391 0.76569 0.0
C515 C 0.57339 0.67914 0.79993 0.0
C516 C 0.5968 0.69242 0.8207 0.0
H517 H 0.68566 0.69327 0.8081 0.0
H518 H 0.64908 0.68046 0.80008 0.0
H519 H 0.67478 0.70925 0.77756 0.0
H520 H 0.64512 0.72997 0.76325 0.0
H521 H 0.60414 0.7066 0.72655 0.0
H522 H 0.31285 0.91167 0.73754 0.0
H523 H 0.29784 0.9356 0.77567 0.0
H524 H 0.37749 0.97202 0.82679 0.0
H525 H 0.39199 0.94684 0.78975 0.0
H526 H 0.33967 0.95158 0.86921 0.0
H527 H 0.31094 0.01138 0.78656 0.0
H528 H 0.29256 0.97587 0.77359 0.0
H529 H 0.33008 0.99511 0.77212 0.0
C530 C 0.32732 0.92515 0.75656 0.0
C531 C 0.35352 0.92729 0.76082 0.0
C532 C 0.31883 0.93908 0.77819 0.0
C533 C 0.33669 0.95609 0.80384 0.0
C534 C 0.36334 0.95909 0.80719 0.0
H535 H 0.26842 0.03455 0.93452 0.0
H536 H 0.29915 0.02964 0.89508 0.0
C537 C 0.37159 0.94467 0.78605 0.0
C538 C 0.32638 0.96798 0.82935 0.0
H539 H 0.28776 -0.0004 0.83973 0.0
C540 C 0.32884 0.96259 0.8627 0.0
C541 C 0.31275 0.98293 0.82122 0.0
C542 C 0.31175 0.99192 0.78643 0.0
C543 C 0.31662 0.97019 0.88781 0.0
C544 C 0.30052 0.98252 0.87925 0.0
C545 C 0.29958 0.98958 0.84623 0.0
C546 C 0.28281 0.98614 0.90373 0.0
C547 C 0.32087 0.96458 0.92321 0.0
C548 C 0.26322 0.9633 0.92128 0.0
C549 C 0.24605 0.96613 0.94399 0.0
C550 C 0.24762 0.99176 0.94912 0.0
C551 C 0.26686 0.01459 0.93114 0.0
C552 C 0.28437 0.0118 0.90862 0.0
H553 H 0.34115 0.96528 0.92662 0.0
H554 H 0.32022 0.97971 0.94066 0.0
H555 H 0.30424 0.94356 0.92966 0.0
H556 H 0.26092 0.94309 0.91711 0.0
H557 H 0.23116 0.94806 0.95709 0.0
H558 H 0.46944 0.12367 0.21717 0.0
H559 H 0.4295 0.106 0.17917 0.0
H560 H 0.37473 0.08786 0.26167 0.0
H561 H 0.4146 0.10586 0.30005 0.0
H562 H 0.38306 0.05368 0.17543 0.0
H563 H 0.35341 0.13315 0.20168 0.0
H564 H 0.38665 0.13725 0.21429 0.0
H565 H 0.35613 0.11636 0.23798 0.0
C566 C 0.44894 0.116 0.22735 0.0
C567 C 0.44527 0.11634 0.26173 0.0
C568 C 0.42615 0.10592 0.20554 0.0
C569 C 0.3993 0.09608 0.21762 0.0
C570 C 0.39542 0.09596 0.25186 0.0
H571 H 0.23265 0.01484 0.14186 0.0
H572 H 0.27601 0.03638 0.17406 0.0
C573 C 0.41822 0.10611 0.27375 0.0
C574 C 0.37526 0.08529 0.19439 0.0
H575 H 0.3207 0.09355 0.1703 0.0
C576 C 0.36955 0.06252 0.17402 0.0
C577 C 0.35787 0.09707 0.19255 0.0
C578 C 0.36392 0.12248 0.21255 0.0
C579 C 0.3462 0.05052 0.15266 0.0
C580 C 0.32842 0.06184 0.15156 0.0
C581 C 0.33445 0.08496 0.17137 0.0
C582 C 0.3025 0.049 0.13144 0.0
C583 C 0.34016 0.0253 0.13229 0.0
C584 C 0.30319 0.0492 0.09678 0.0
C585 C 0.27837 0.0369 0.07814 0.0
C586 C 0.25254 0.02422 0.09398 0.0
C587 C 0.25211 0.02428 0.12878 0.0
C588 C 0.27686 0.03663 0.14729 0.0
H589 H 0.35343 0.01654 0.13998 0.0
H590 H 0.31795 0.00912 0.13434 0.0
H591 H 0.34409 0.03093 0.10587 0.0
H592 H 0.3229 0.05897 0.0842 0.0
H593 H 0.27945 0.03727 0.0514 0.0
H594 H 0.02193 0.24009 0.14465 0.0
H595 H 0.00056 0.26024 0.17933 0.0
H596 H 0.97065 0.28185 0.09211 0.0
H597 H 0.99147 0.26135 0.05716 0.0
H598 H 0.00954 0.31333 0.18235 0.0
H599 H 0.90014 0.23961 0.14516 0.0
H600 H 0.92848 0.23359 0.13588 0.0
H601 H 0.9221 0.25631 0.11077 0.0
C602 C 0.01082 0.24912 0.13277 0.0
C603 C 0.00824 0.24889 0.09808 0.0
C604 C -0.00139 0.26061 0.15267 0.0
C605 C 0.98359 0.27204 0.13829 0.0
C606 C 0.98156 0.27249 0.10371 0.0
H607 H 0.8999 0.35748 0.20592 0.0
H608 H 0.92231 0.33649 0.17483 0.0
C609 C -0.00637 0.26089 0.08377 0.0
C610 C 0.97038 0.28388 0.15943 0.0
H611 H 0.90805 0.27948 0.17606 0.0
C612 C 0.98733 0.30582 0.1812 0.0
C613 C 0.94137 0.2739 0.15795 0.0
C614 C 0.9219 0.24938 0.13643 0.0
C615 C 0.97613 0.31863 0.20082 0.0
C616 C 0.94723 0.30902 0.19877 0.0
C617 C 0.93023 0.28685 0.17738 0.0
C618 C 0.93425 0.32209 0.21806 0.0
C619 C -0.00466 0.3428 0.22293 0.0
C620 C 0.93344 0.32075 0.25267 0.0
C621 C 0.9206 0.33271 0.27062 0.0
C622 C 0.9083 0.34616 0.25419 0.0
C623 C 0.9092 0.34739 0.21944 0.0
C624 C 0.92196 0.33537 0.20158 0.0
H625 H 0.01756 0.35112 0.21669 0.0
H626 H 0.99028 0.35963 0.22109 0.0
H627 H 0.99259 0.33608 0.24901 0.0
H628 H 0.94246 0.3102 0.26576 0.0
H629 H 0.92024 0.33129 0.29732 0.0
H630 H 0.69427 0.60459 0.28265 0.0
H631 H 0.70876 0.6443 0.24723 0.0
H632 H 0.62973 0.60193 0.19471 0.0
H633 H 0.61581 0.56146 0.22894 0.0
H634 H 0.66733 0.62238 0.15264 0.0
H635 H 0.69356 0.70585 0.2439 0.0
H636 H 0.71286 0.689 0.25407 0.0
H637 H 0.67531 0.67004 0.25525 0.0
C638 C 0.67985 0.60387 0.26381 0.0
C639 C 0.65395 0.57989 0.25849 0.0
C640 C 0.68803 0.62676 0.24377 0.0
C641 C 0.67013 0.62652 0.21868 0.0
C642 C 0.6439 0.60276 0.21395 0.0
H643 H 0.74078 0.77889 0.10074 0.0
H644 H 0.70847 0.7422 0.13736 0.0
C645 C 0.63598 0.57961 0.23348 0.0
C646 C 0.67997 0.6498 0.19528 0.0
H647 H 0.71776 0.72009 0.19129 0.0
C648 C 0.67779 0.64372 0.16121 0.0
C649 C 0.69302 0.67778 0.20604 0.0
C650 C 0.69349 0.68598 0.24181 0.0
C651 C 0.68997 0.66466 0.13793 0.0
C652 C 0.70578 0.69247 0.14901 0.0
C653 C 0.7062 0.69875 0.18279 0.0
C654 C 0.72438 0.71466 0.12645 0.0
C655 C 0.68619 0.65664 0.10167 0.0
C656 C 0.7443 0.71158 0.10873 0.0
C657 C 0.76235 0.73214 0.08776 0.0
C658 C 0.76141 0.75666 0.08444 0.0
C659 C 0.74186 0.76014 0.10267 0.0
C660 C 0.72345 0.73924 0.12356 0.0
H661 H 0.66586 0.63761 0.09684 0.0
H662 H 0.68729 0.67332 0.08601 0.0
H663 H 0.70278 0.65218 0.09417 0.0
H664 H 0.74616 0.69331 0.1114 0.0
H665 H 0.7774 0.72891 0.07452 0.0
H666 H 0.11453 0.46875 0.55764 0.0
H667 H 0.07352 0.44333 0.52214 0.0
H668 H 0.02442 0.40236 0.60709 0.0
H669 H 0.06563 0.42846 0.64327 0.0
H670 H 0.04216 0.3869 0.51319 0.0
H671 H 0.97794 0.43073 0.56081 0.0
H672 H 0.01458 0.44619 0.57079 0.0
H673 H 0.98989 0.41493 0.59033 0.0
C674 C 0.09501 0.45448 0.56891 0.0
C675 C 0.09329 0.4506 0.60326 0.0
C676 C 0.0716 0.4399 0.54855 0.0
C677 C 0.04597 0.421 0.56198 0.0
C678 C 0.04396 0.41715 0.59632 0.0
H679 H 0.89828 0.33743 0.42952 0.0
H680 H 0.92885 0.34318 0.47692 0.0
C681 C 0.06747 0.43204 0.61691 0.0
C682 C 0.02179 0.40555 0.53929 0.0
H683 H 0.96133 0.40217 0.5134 0.0
C684 C 0.02421 0.3898 0.51357 0.0
C685 C -0.00164 0.40927 0.54 0.0
C686 C -0.00506 0.42631 0.56679 0.0
C687 C 0.00472 0.3792 0.48738 0.0
C688 C 0.98233 0.38442 0.48711 0.0
C689 C 0.97871 0.39837 0.51391 0.0
C690 C 0.96466 0.37887 0.45736 0.0
C691 C 0.0088 0.36364 0.45934 0.0
C692 C 0.97498 0.39694 0.43077 0.0
C693 C 0.9576 0.39396 0.40394 0.0
C694 C 0.9297 0.37272 0.40326 0.0
C695 C 0.91974 0.35394 0.42936 0.0
C696 C 0.93708 0.35718 0.45643 0.0
H697 H 0.02394 0.35687 0.46607 0.0
H698 H 0.98866 0.34528 0.4519 0.0
H699 H 0.01676 0.37721 0.43761 0.0
H700 H -0.00374 0.4139 0.43133 0.0
H701 H 0.96582 0.40866 0.38414 0.0
H702 H 0.63356 0.60243 0.37272 0.0
H703 H 0.63073 0.63245 0.41517 0.0
H704 H 0.66896 0.60383 0.48634 0.0
H705 H 0.67387 0.57572 0.4431 0.0
H706 H 0.59972 0.61471 0.46344 0.0
H707 H 0.70459 0.68058 0.51787 0.0
H708 H 0.69921 0.6616 0.47953 0.0
H709 H 0.69611 0.64525 0.51874 0.0
C710 C 0.64214 0.60336 0.39723 0.0
C711 C 0.65396 0.58699 0.40487 0.0
C712 C 0.64053 0.62045 0.42148 0.0
C713 C 0.64984 0.62072 0.45407 0.0
C714 C 0.66249 0.60488 0.46131 0.0
H715 H 0.58204 0.62601 0.63677 0.0
H716 H 0.60911 0.62257 0.59151 0.0
C717 C 0.66502 0.58855 0.43669 0.0
C718 C 0.64233 0.6339 0.48116 0.0
H719 H 0.6657 0.6709 0.55387 0.0
C720 C 0.61444 0.6276 0.48265 0.0
C721 C 0.66138 0.6507 0.50651 0.0
C722 C 0.69203 0.66014 0.50533 0.0
C723 C 0.60483 0.63648 0.5093 0.0
C724 C 0.62344 0.65175 0.53546 0.0
C725 C 0.65151 0.65899 0.53372 0.0
C726 C 0.61297 0.65798 0.56583 0.0
C727 C 0.57449 0.62853 0.5101 0.0
C728 C 0.60704 0.67959 0.5667 0.0
C729 C 0.59156 0.68164 0.59255 0.0
C730 C 0.58163 0.66191 0.61761 0.0
C731 C 0.58922 0.64139 0.61768 0.0
C732 C 0.60483 0.63948 0.592 0.0
H733 H 0.56256 0.61597 0.48806 0.0
H734 H 0.56482 0.6166 0.53266 0.0
H735 H 0.5727 0.64743 0.51117 0.0
H736 H 0.61304 0.6939 0.54649 0.0
H737 H 0.58607 0.69771 0.59187 0.0
H738 H 0.31936 0.90559 0.58756 0.0
H739 H 0.32523 0.93648 0.54163 0.0
H740 H 0.40184 -0.00024 0.58675 0.0
H741 H 0.39636 0.96923 0.63219 0.0
H742 H 0.33973 -0.00139 0.5389 0.0
H743 H 0.41951 0.97401 0.49426 0.0
H744 H 0.39298 0.95256 0.52298 0.0
H745 H 0.42289 0.98406 0.53721 0.0
C746 C 0.33708 0.92632 0.588 0.0
C747 C 0.35762 0.93489 0.61315 0.0
C748 C 0.34037 0.94391 0.56184 0.0
C749 C 0.36409 0.97024 0.5608 0.0
C750 C 0.38348 0.97945 0.58711 0.0
H751 H 0.43475 0.11489 0.44344 0.0
H752 H 0.40632 0.07938 0.48308 0.0
C753 C 0.38036 0.96192 0.61297 0.0
C754 C 0.37083 0.98696 0.53068 0.0
H755 H 0.4187 0.01183 0.46973 0.0
C756 C 0.3567 0.0013 0.52337 0.0
C757 C 0.3927 0.99003 0.51031 0.0
C758 C 0.4078 0.9742 0.5163 0.0
C759 C 0.36478 0.01964 0.4968 0.0
C760 C 0.38781 0.02395 0.47763 0.0
C761 C 0.40107 0.00865 0.48435 0.0
C762 C 0.39979 0.04501 0.45149 0.0
C763 C 0.34862 0.03419 0.48961 0.0
C764 C 0.40536 0.03762 0.42038 0.0
C765 C 0.42219 0.05787 0.3982 0.0
C766 C 0.43342 0.08593 0.40644 0.0
C767 C 0.42616 0.09336 0.43643 0.0
C768 C 0.40973 0.07305 0.459 0.0
H769 H 0.32686 0.02206 0.49821 0.0
H770 H 0.35862 0.05437 0.50305 0.0
H771 H 0.34821 0.03798 0.46276 0.0
H772 H 0.39792 0.01616 0.41398 0.0
H773 H 0.4273 0.05159 0.3751 0.0
loop_
_geom_bond_atom_site_label_1
_geom_bond_atom_site_label_2
_geom_bond_distance
_geom_bond_site_symmetry_2
_ccdc_geom_bond_type
Co0 O1 2.216 1_554 S
Co0 O2 2.091 1_554 S
Co0 O4 2.001 1_454 S
Co0 O10 2.021 1_455 S
Co0 O12 2.137 1_554 S
Co0 O13 2.244 . S
O1 Co0 2.216 1_556 S
O1 C8 1.247 . S
O2 Co0 2.091 1_556 S
O2 C8 1.261 . S
C3 O12 1.247 1_554 S
C3 O13 1.272 . S
O4 Co0 2.001 1_656 S
O4 C9 1.235 1_556 S
Co5 O6 2.061 1_455 S
Co5 O11 2.052 . S
Co5 O13 2.135 . S
O6 Co5 2.061 1_655 S
O6 C9 1.235 . S
C7 O10 1.238 . S
C7 O11 1.241 1_655 S
C8 O1 1.247 . S
C8 O2 1.261 . S
C9 O4 1.235 1_554 S
C9 O6 1.235 . S
O10 Co0 2.021 1_655 S
O10 C7 1.238 . S
O11 Co5 2.052 . S
O11 C7 1.241 1_455 S
O12 Co0 2.137 1_556 S
O12 C3 1.247 1_556 S
O13 Co0 2.244 . S
O13 C3 1.272 . S
O13 Co5 2.135 . S
Co14 O15 2.216 . S
Co14 O16 2.091 . S
Co14 O18 2.004 . S
Co14 O24 2.021 . S
Co14 O26 2.137 . S
Co14 O27 2.244 1_554 S
O15 Co14 2.216 . S
O15 C22 1.247 . S
O16 Co14 2.091 . S
O16 C22 1.261 . S
C17 O26 1.247 . S
C17 O27 1.272 1_554 S
O18 Co14 2.004 . S
O18 C23 1.259 . S
Co19 O20 2.061 . S
Co19 O25 2.052 . S
Co19 O27 2.135 . S
O20 Co19 2.061 . S
O20 C23 1.235 1_556 S
C21 O24 1.238 1_556 S
C21 O25 1.241 . S
C22 O15 1.247 . S
C22 O16 1.261 . S
C23 O18 1.259 . S
C23 O20 1.235 1_554 S
O24 Co14 2.021 . S
O24 C21 1.238 1_554 S
O25 Co19 2.052 . S
O25 C21 1.241 . S
O26 Co14 2.137 . S
O26 C17 1.247 . S
O27 Co14 2.244 1_556 S
O27 C17 1.272 1_556 S
O27 Co19 2.135 . S
Co28 O29 2.216 1_544 S
Co28 O30 2.091 1_554 S
Co28 O32 2.004 1_554 S
Co28 O38 2.021 . S
Co28 O40 2.137 1_544 S
Co28 O41 2.244 1_545 S
O29 Co28 2.216 1_566 S
O29 C36 1.247 . S
O30 Co28 2.091 1_556 S
O30 C36 1.261 1_545 S
C31 O40 1.247 1_554 S
C31 O41 1.272 . S
O32 Co28 2.004 1_556 S
O32 C37 1.259 1_556 S
Co33 O34 2.061 . S
Co33 O39 2.052 . S
Co33 O41 2.135 1_545 S
O34 Co33 2.061 . S
O34 C37 1.235 . S
C35 O38 1.238 . S
C35 O39 1.241 . S
C36 O29 1.247 . S
C36 O30 1.261 1_565 S
C37 O32 1.259 1_554 S
C37 O34 1.235 . S
O38 Co28 2.021 . S
O38 C35 1.238 . S
O39 Co33 2.052 . S
O39 C35 1.241 . S
O40 Co28 2.137 1_566 S
O40 C31 1.247 1_556 S
O41 Co28 2.244 1_565 S
O41 C31 1.272 . S
O41 Co33 2.135 1_565 S
Co42 O43 2.216 . S
Co42 O44 2.091 . S
Co42 O46 2.004 . S
Co42 O52 2.021 . S
Co42 O54 2.137 . S
Co42 O55 2.244 . S
O43 Co42 2.216 . S
O43 C50 1.247 . S
O44 Co42 2.091 . S
O44 C50 1.261 . S
C45 O54 1.247 . S
C45 O55 1.272 . S
O46 Co42 2.004 . S
O46 C51 1.259 . S
Co47 O48 2.061 . S
Co47 O53 2.052 . S
Co47 O55 2.135 . S
O48 Co47 2.061 . S
O48 C51 1.235 . S
C49 O52 1.238 . S
C49 O53 1.241 . S
C50 O43 1.247 . S
C50 O44 1.261 . S
C51 O46 1.259 . S
C51 O48 1.235 . S
O52 Co42 2.021 . S
O52 C49 1.238 . S
O53 Co47 2.052 . S
O53 C49 1.241 . S
O54 Co42 2.137 . S
O54 C45 1.247 . S
O55 Co42 2.244 . S
O55 C45 1.272 . S
O55 Co47 2.135 . S
Co56 O57 2.216 . S
Co56 O58 2.091 . S
Co56 O60 2.004 . S
Co56 O66 2.021 . S
Co56 O68 2.137 . S
Co56 O69 2.244 . S
O57 Co56 2.216 . S
O57 C64 1.247 . S
O58 Co56 2.091 . S
O58 C64 1.261 . S
C59 O68 1.247 . S
C59 O69 1.272 . S
O60 Co56 2.004 . S
O60 C65 1.259 . S
Co61 O62 2.061 . S
Co61 O67 2.052 . S
Co61 O69 2.135 . S
O62 Co61 2.061 . S
O62 C65 1.235 . S
C63 O66 1.238 . S
C63 O67 1.241 . S
C64 O57 1.247 . S
C64 O58 1.261 . S
C65 O60 1.259 . S
C65 O62 1.235 . S
O66 Co56 2.021 . S
O66 C63 1.238 . S
O67 Co61 2.052 . S
O67 C63 1.241 . S
O68 Co56 2.137 . S
O68 C59 1.247 . S
O69 Co56 2.244 . S
O69 C59 1.272 . S
O69 Co61 2.135 . S
Co70 O71 2.216 . S
Co70 O72 2.091 . S
Co70 O74 2.004 . S
Co70 O80 2.021 . S
Co70 O82 2.137 . S
Co70 O83 2.244 . S
O71 Co70 2.216 . S
O71 C78 1.247 . S
O72 Co70 2.091 . S
O72 C78 1.261 . S
C73 O82 1.247 . S
C73 O83 1.272 . S
O74 Co70 2.004 . S
O74 C79 1.259 . S
Co75 O76 2.061 . S
Co75 O81 2.052 . S
Co75 O83 2.135 . S
O76 Co75 2.061 . S
O76 C79 1.235 . S
C77 O80 1.238 . S
C77 O81 1.241 . S
C78 O71 1.247 . S
C78 O72 1.261 . S
C79 O74 1.259 . S
C79 O76 1.235 . S
O80 Co70 2.021 . S
O80 C77 1.238 . S
O81 Co75 2.052 . S
O81 C77 1.241 . S
O82 Co70 2.137 . S
O82 C73 1.247 . S
O83 Co70 2.244 . S
O83 C73 1.272 . S
O83 Co75 2.135 . S
Co84 O85 2.216 . S
Co84 O86 2.091 . S
Co84 O88 2.004 . S
Co84 O94 2.021 . S
Co84 O96 2.137 . S
Co84 O97 2.244 . S
O85 Co84 2.216 . S
O85 C92 1.247 . S
O86 Co84 2.091 . S
O86 C92 1.261 . S
C87 O96 1.247 . S
C87 O97 1.272 . S
O88 Co84 2.004 . S
O88 C93 1.259 . S
Co89 O90 2.061 . S
Co89 O95 2.052 . S
Co89 O97 2.135 . S
O90 Co89 2.061 . S
O90 C93 1.235 . S
C91 O94 1.238 . S
C91 O95 1.241 . S
C92 O85 1.247 . S
C92 O86 1.261 . S
C93 O88 1.259 . S
C93 O90 1.235 . S
O94 Co84 2.021 . S
O94 C91 1.238 . S
O95 Co89 2.052 . S
O95 C91 1.241 . S
O96 Co84 2.137 . S
O96 C87 1.247 . S
O97 Co84 2.244 . S
O97 C87 1.272 . S
O97 Co89 2.135 . S
Co98 O99 2.216 . S
Co98 O100 2.091 . S
Co98 O102 2.004 . S
Co98 O108 2.021 . S
Co98 O110 2.137 . S
Co98 O111 2.244 . S
O99 Co98 2.216 . S
O99 C106 1.247 . S
O100 Co98 2.091 . S
O100 C106 1.261 . S
C101 O110 1.247 . S
C101 O111 1.272 . S
O102 Co98 2.004 . S
O102 C107 1.259 . S
Co103 O104 2.061 . S
Co103 O109 2.052 . S
Co103 O111 2.135 . S
O104 Co103 2.061 . S
O104 C107 1.235 . S
C105 O108 1.238 . S
C105 O109 1.241 . S
C106 O99 1.247 . S
C106 O100 1.261 . S
C107 O102 1.259 . S
C107 O104 1.235 . S
O108 Co98 2.021 . S
O108 C105 1.238 . S
O109 Co103 2.052 . S
O109 C105 1.241 . S
O110 Co98 2.137 . S
O110 C101 1.247 . S
O111 Co98 2.244 . S
O111 C101 1.272 . S
O111 Co103 2.135 . S
Co112 O113 2.216 . S
Co112 O114 2.091 . S
Co112 O116 2.004 . S
Co112 O122 2.021 . S
Co112 O124 2.137 . S
Co112 O125 2.244 . S
O113 Co112 2.216 . S
O113 C120 1.247 . S
O114 Co112 2.091 . S
O114 C120 1.261 . S
C115 O124 1.247 . S
C115 O125 1.272 . S
O116 Co112 2.004 . S
O116 C121 1.259 . S
Co117 O118 2.061 . S
Co117 O123 2.052 . S
Co117 O125 2.135 . S
O118 Co117 2.061 . S
O118 C121 1.235 . S
C119 O122 1.238 . S
C119 O123 1.241 . S
C120 O113 1.247 . S
C120 O114 1.261 . S
C121 O116 1.259 . S
C121 O118 1.235 . S
O122 Co112 2.021 . S
O122 C119 1.238 . S
O123 Co117 2.052 . S
O123 C119 1.241 . S
O124 Co112 2.137 . S
O124 C115 1.247 . S
O125 Co112 2.244 . S
O125 C115 1.272 . S
O125 Co117 2.135 . S
H126 C134 0.929 . S
H127 C136 0.930 . S
H128 C138 0.930 . S
H129 C141 0.929 . S
H130 C144 0.930 . S
H131 C146 0.960 . S
H132 C146 0.960 . S
H133 C146 0.960 . S
C134 H126 0.929 . S
C134 C135 1.377 . S
C134 C136 1.384 . S
C135 C134 1.377 . S
C135 C141 1.390 1_554 S
C136 H127 0.930 . S
C136 C134 1.384 . S
C136 C137 1.372 . S
C137 C136 1.372 . S
C137 C138 1.400 1_554 S
C137 C142 1.490 . S
C138 H128 0.930 . S
C138 C137 1.400 1_556 S
C138 C141 1.386 . S
H139 C155 0.930 . S
H140 C156 0.931 . S
C141 H129 0.929 . S
C141 C135 1.390 1_556 S
C141 C138 1.386 . S
C142 C137 1.490 . S
C142 C144 1.395 . S
C142 C145 1.403 . S
H143 C149 0.930 . S
C144 H130 0.930 . S
C144 C142 1.395 . S
C144 C147 1.403 . S
C145 C142 1.403 . S
C145 C146 1.524 . S
C145 C149 1.400 . S
C146 H131 0.960 . S
C146 H132 0.960 . S
C146 H133 0.960 . S
C146 C145 1.524 . S
C147 C144 1.403 . S
C147 C148 1.392 . S
C147 C151 1.495 . S
C148 C147 1.392 . S
C148 C149 1.385 . S
C148 C150 1.478 . S
C149 H143 0.930 . S
C149 C145 1.400 . S
C149 C148 1.385 . S
C150 C148 1.478 . S
C150 C152 1.381 . S
C150 C156 1.383 1_554 S
C151 C147 1.495 . S
C151 H157 0.959 . S
C151 H158 0.961 1_554 S
C151 H159 0.960 . S
C152 C150 1.381 . S
C152 C153 1.394 . S
C152 H160 0.930 . S
C153 C152 1.394 . S
C153 C154 1.383 . S
C153 H161 0.929 . S
C154 C153 1.383 . S
C154 C155 1.377 1_554 S
C155 H139 0.930 . S
C155 C154 1.377 1_556 S
C155 C156 1.379 . S
C156 H140 0.931 . S
C156 C150 1.383 1_556 S
C156 C155 1.379 . S
H157 C151 0.959 . S
H158 C151 0.961 1_556 S
H159 C151 0.960 . S
H160 C152 0.930 . S
H161 C153 0.929 . S
H162 C170 0.929 . S
H163 C172 0.930 . S
H164 C174 0.930 . S
H165 C177 0.929 . S
H166 C180 0.930 . S
H167 C182 0.960 1_545 S
H168 C182 0.960 . S
H169 C182 0.960 . S
C170 H162 0.929 . S
C170 C171 1.377 . S
C170 C172 1.384 . S
C171 C170 1.377 . S
C171 C177 1.390 . S
C172 H163 0.930 . S
C172 C170 1.384 . S
C172 C173 1.372 . S
C173 C172 1.372 . S
C173 C174 1.400 . S
C173 C178 1.490 . S
C174 H164 0.930 . S
C174 C173 1.400 . S
C174 C177 1.386 . S
H175 C191 0.930 . S
H176 C192 0.931 . S
C177 H165 0.929 . S
C177 C171 1.390 . S
C177 C174 1.386 . S
C178 C173 1.490 . S
C178 C180 1.395 1_554 S
C178 C181 1.403 1_565 S
H179 C185 0.930 . S
C180 H166 0.930 . S
C180 C178 1.395 1_556 S
C180 C183 1.403 1_565 S
C181 C178 1.403 1_545 S
C181 C182 1.524 1_545 S
C181 C185 1.400 . S
C182 H167 0.960 1_565 S
C182 H168 0.960 . S
C182 H169 0.960 . S
C182 C181 1.524 1_565 S
C183 C180 1.403 1_545 S
C183 C184 1.392 1_556 S
C183 C187 1.495 . S
C184 C183 1.392 1_554 S
C184 C185 1.385 . S
C184 C186 1.478 . S
C185 H179 0.930 . S
C185 C181 1.400 . S
C185 C184 1.385 . S
C186 C184 1.478 . S
C186 C188 1.381 . S
C186 C192 1.383 . S
C187 C183 1.495 . S
C187 H193 0.959 . S
C187 H194 0.961 . S
C187 H195 0.960 . S
C188 C186 1.381 . S
C188 C189 1.394 . S
C188 H196 0.931 1_554 S
C189 C188 1.394 . S
C189 C190 1.383 . S
C189 H197 0.929 . S
C190 C189 1.383 . S
C190 C191 1.377 . S
C191 H175 0.930 . S
C191 C190 1.377 . S
C191 C192 1.379 . S
C192 H176 0.931 . S
C192 C186 1.383 . S
C192 C191 1.379 . S
H193 C187 0.959 . S
H194 C187 0.961 . S
H195 C187 0.960 . S
H196 C188 0.931 1_556 S
H197 C189 0.929 . S
H198 C206 0.929 . S
H199 C208 0.930 . S
H200 C210 0.930 . S
H201 C213 0.929 . S
H202 C216 0.930 . S
H203 C218 0.958 1_455 S
H204 C218 0.960 . S
H205 C218 0.960 1_556 S
C206 H198 0.929 . S
C206 C207 1.377 . S
C206 C208 1.384 . S
C207 C206 1.377 . S
C207 C213 1.390 1_554 S
C208 H199 0.930 . S
C208 C206 1.384 . S
C208 C209 1.372 . S
C209 C208 1.372 . S
C209 C210 1.400 1_554 S
C209 C214 1.490 . S
C210 H200 0.930 . S
C210 C209 1.400 1_556 S
C210 C213 1.386 . S
H211 C227 0.930 . S
H212 C228 0.931 . S
C213 H201 0.929 . S
C213 C207 1.390 1_556 S
C213 C210 1.386 . S
C214 C209 1.490 . S
C214 C216 1.395 . S
C214 C217 1.404 . S
H215 C221 0.930 . S
C216 H202 0.930 . S
C216 C214 1.395 . S
C216 C219 1.403 1_655 S
C217 C214 1.404 . S
C217 C218 1.545 . S
C217 C221 1.376 1_655 S
C218 H203 0.958 1_655 S
C218 H204 0.960 . S
C218 H205 0.960 1_554 S
C218 C217 1.545 . S
C219 C216 1.403 1_455 S
C219 C220 1.392 . S
C219 C223 1.495 . S
C220 C219 1.392 . S
C220 C221 1.385 . S
C220 C222 1.478 . S
C221 H215 0.930 . S
C221 C217 1.376 1_455 S
C221 C220 1.385 . S
C222 C220 1.478 . S
C222 C224 1.381 . S
C222 C228 1.383 1_554 S
C223 C219 1.495 . S
C223 H229 0.959 . S
C223 H230 0.961 . S
C223 H231 0.960 . S
C224 C222 1.381 . S
C224 C225 1.394 . S
C224 H232 0.930 . S
C225 C224 1.394 . S
C225 C226 1.383 . S
C225 H233 0.929 . S
C226 C225 1.383 . S
C226 C227 1.377 1_554 S
C227 H211 0.930 . S
C227 C226 1.377 1_556 S
C227 C228 1.379 . S
C228 H212 0.931 . S
C228 C222 1.383 1_556 S
C228 C227 1.379 . S
H229 C223 0.959 . S
H230 C223 0.961 . S
H231 C223 0.960 . S
H232 C224 0.930 . S
H233 C225 0.929 . S
H234 C242 0.929 . S
H235 C244 0.930 . S
H236 C246 0.930 . S
H237 C249 0.929 . S
H238 C252 0.930 . S
H239 C254 0.960 . S
H240 C254 0.960 . S
H241 C254 0.960 . S
C242 H234 0.929 . S
C242 C243 1.377 . S
C242 C244 1.384 . S
C243 C242 1.377 . S
C243 C249 1.390 . S
C244 H235 0.930 . S
C244 C242 1.384 . S
C244 C245 1.372 . S
C245 C244 1.372 . S
C245 C246 1.400 . S
C245 C250 1.490 . S
C246 H236 0.930 . S
C246 C245 1.400 . S
C246 C249 1.386 . S
H247 C263 0.930 . S
H248 C264 0.931 . S
C249 H237 0.929 . S
C249 C243 1.390 . S
C249 C246 1.386 . S
C250 C245 1.490 . S
C250 C252 1.395 . S
C250 C253 1.403 . S
H251 C257 0.930 . S
C252 H238 0.930 . S
C252 C250 1.395 . S
C252 C255 1.403 . S
C253 C250 1.403 . S
C253 C254 1.524 . S
C253 C257 1.400 . S
C254 H239 0.960 . S
C254 H240 0.960 . S
C254 H241 0.960 . S
C254 C253 1.524 . S
C255 C252 1.403 . S
C255 C256 1.392 . S
C255 C259 1.495 . S
C256 C255 1.392 . S
C256 C257 1.385 . S
C256 C258 1.478 . S
C257 H251 0.930 . S
C257 C253 1.400 . S
C257 C256 1.385 . S
C258 C256 1.478 . S
C258 C260 1.381 . S
C258 C264 1.383 . S
C259 C255 1.495 . S
C259 H265 0.959 . S
C259 H266 0.961 . S
C259 H267 0.960 . S
C260 C258 1.381 . S
C260 C261 1.394 . S
C260 H268 0.930 . S
C261 C260 1.394 . S
C261 C262 1.383 . S
C261 H269 0.929 . S
C262 C261 1.383 . S
C262 C263 1.377 . S
C263 H247 0.930 . S
C263 C262 1.377 . S
C263 C264 1.379 . S
C264 H248 0.931 . S
C264 C258 1.383 . S
C264 C263 1.379 . S
H265 C259 0.959 . S
H266 C259 0.961 . S
H267 C259 0.960 . S
H268 C260 0.930 . S
H269 C261 0.929 . S
H270 C278 0.929 . S
H271 C280 0.930 . S
H272 C282 0.930 . S
H273 C285 0.929 . S
H274 C288 0.930 . S
H275 C290 0.960 . S
H276 C290 0.960 . S
H277 C290 0.960 . S
C278 H270 0.929 . S
C278 C279 1.377 . S
C278 C280 1.384 . S
C279 C278 1.377 . S
C279 C285 1.390 . S
C280 H271 0.930 . S
C280 C278 1.384 . S
C280 C281 1.372 . S
C281 C280 1.372 . S
C281 C282 1.400 . S
C281 C286 1.490 . S
C282 H272 0.930 . S
C282 C281 1.400 . S
C282 C285 1.386 . S
H283 C299 0.930 . S
H284 C300 0.931 . S
C285 H273 0.929 . S
C285 C279 1.390 . S
C285 C282 1.386 . S
C286 C281 1.490 . S
C286 C288 1.395 . S
C286 C289 1.403 . S
H287 C293 0.930 . S
C288 H274 0.930 . S
C288 C286 1.395 . S
C288 C291 1.403 . S
C289 C286 1.403 . S
C289 C290 1.524 . S
C289 C293 1.400 . S
C290 H275 0.960 . S
C290 H276 0.960 . S
C290 H277 0.960 . S
C290 C289 1.524 . S
C291 C288 1.403 . S
C291 C292 1.392 . S
C291 C295 1.495 . S
C292 C291 1.392 . S
C292 C293 1.385 . S
C292 C294 1.478 . S
C293 H287 0.930 . S
C293 C289 1.400 . S
C293 C292 1.385 . S
C294 C292 1.478 . S
C294 C296 1.381 . S
C294 C300 1.383 . S
C295 C291 1.495 . S
C295 H301 0.959 . S
C295 H302 0.961 . S
C295 H303 0.960 . S
C296 C294 1.381 . S
C296 C297 1.394 . S
C296 H304 0.930 . S
C297 C296 1.394 . S
C297 C298 1.383 . S
C297 H305 0.929 . S
C298 C297 1.383 . S
C298 C299 1.377 . S
C299 H283 0.930 . S
C299 C298 1.377 . S
C299 C300 1.379 . S
C300 H284 0.931 . S
C300 C294 1.383 . S
C300 C299 1.379 . S
H301 C295 0.959 . S
H302 C295 0.961 . S
H303 C295 0.960 . S
H304 C296 0.930 . S
H305 C297 0.929 . S
H306 C314 0.929 . S
H307 C316 0.930 . S
H308 C318 0.930 . S
H309 C321 0.929 . S
H310 C324 0.930 . S
H311 C326 0.960 . S
H312 C326 0.960 . S
H313 C326 0.960 . S
C314 H306 0.929 . S
C314 C315 1.377 . S
C314 C316 1.384 . S
C315 C314 1.377 . S
C315 C321 1.390 . S
C316 H307 0.930 . S
C316 C314 1.384 . S
C316 C317 1.372 . S
C317 C316 1.372 . S
C317 C318 1.400 . S
C317 C322 1.490 . S
C318 H308 0.930 . S
C318 C317 1.400 . S
C318 C321 1.386 . S
H319 C335 0.930 . S
H320 C336 0.931 . S
C321 H309 0.929 . S
C321 C315 1.390 . S
C321 C318 1.386 . S
C322 C317 1.490 . S
C322 C324 1.395 . S
C322 C325 1.403 . S
H323 C329 0.930 . S
C324 H310 0.930 . S
C324 C322 1.395 . S
C324 C327 1.403 . S
C325 C322 1.403 . S
C325 C326 1.524 . S
C325 C329 1.400 . S
C326 H311 0.960 . S
C326 H312 0.960 . S
C326 H313 0.960 . S
C326 C325 1.524 . S
C327 C324 1.403 . S
C327 C328 1.392 . S
C327 C331 1.495 . S
C328 C327 1.392 . S
C328 C329 1.385 . S
C328 C330 1.478 . S
C329 H323 0.930 . S
C329 C325 1.400 . S
C329 C328 1.385 . S
C330 C328 1.478 . S
C330 C332 1.381 . S
C330 C336 1.383 . S
C331 C327 1.495 . S
C331 H337 0.959 . S
C331 H338 0.961 . S
C331 H339 0.960 . S
C332 C330 1.381 . S
C332 C333 1.394 . S
C332 H340 0.930 . S
C333 C332 1.394 . S
C333 C334 1.383 . S
C333 H341 0.929 . S
C334 C333 1.383 . S
C334 C335 1.377 . S
C335 H319 0.930 . S
C335 C334 1.377 . S
C335 C336 1.379 . S
C336 H320 0.931 . S
C336 C330 1.383 . S
C336 C335 1.379 . S
H337 C331 0.959 . S
H338 C331 0.961 . S
H339 C331 0.960 . S
H340 C332 0.930 . S
H341 C333 0.929 . S
H342 C350 0.929 . S
H343 C352 0.930 . S
H344 C354 0.930 . S
H345 C357 0.929 . S
H346 C360 0.930 . S
H347 C362 0.960 . S
H348 C362 0.960 . S
H349 C362 0.960 . S
C350 H342 0.929 . S
C350 C351 1.377 . S
C350 C352 1.384 . S
C351 C350 1.377 . S
C351 C357 1.390 . S
C352 H343 0.930 . S
C352 C350 1.384 . S
C352 C353 1.372 . S
C353 C352 1.372 . S
C353 C354 1.400 . S
C353 C358 1.490 . S
C354 H344 0.930 . S
C354 C353 1.400 . S
C354 C357 1.386 . S
H355 C371 0.930 . S
H356 C372 0.931 . S
C357 H345 0.929 . S
C357 C351 1.390 . S
C357 C354 1.386 . S
C358 C353 1.490 . S
C358 C360 1.395 . S
C358 C361 1.403 . S
H359 C365 0.930 . S
C360 H346 0.930 . S
C360 C358 1.395 . S
C360 C363 1.403 . S
C361 C358 1.403 . S
C361 C362 1.524 . S
C361 C365 1.400 . S
C362 H347 0.960 . S
C362 H348 0.960 . S
C362 H349 0.960 . S
C362 C361 1.524 . S
C363 C360 1.403 . S
C363 C364 1.392 . S
C363 C367 1.495 . S
C364 C363 1.392 . S
C364 C365 1.385 . S
C364 C366 1.478 . S
C365 H359 0.930 . S
C365 C361 1.400 . S
C365 C364 1.385 . S
C366 C364 1.478 . S
C366 C368 1.381 . S
C366 C372 1.383 . S
C367 C363 1.495 . S
C367 H373 0.959 . S
C367 H374 0.961 . S
C367 H375 0.960 . S
C368 C366 1.381 . S
C368 C369 1.394 . S
C368 H376 0.930 . S
C369 C368 1.394 . S
C369 C370 1.383 . S
C369 H377 0.929 . S
C370 C369 1.383 . S
C370 C371 1.377 . S
C371 H355 0.930 . S
C371 C370 1.377 . S
C371 C372 1.379 . S
C372 H356 0.931 . S
C372 C366 1.383 . S
C372 C371 1.379 . S
H373 C367 0.959 . S
H374 C367 0.961 . S
H375 C367 0.960 . S
H376 C368 0.930 . S
H377 C369 0.929 . S
H378 C386 0.929 . S
H379 C388 0.930 . S
H380 C390 0.930 . S
H381 C393 0.929 . S
H382 C396 0.930 . S
H383 C398 0.960 . S
H384 C398 0.960 . S
H385 C398 0.960 . S
C386 H378 0.929 . S
C386 C387 1.377 . S
C386 C388 1.384 . S
C387 C386 1.377 . S
C387 C393 1.390 . S
C388 H379 0.930 . S
C388 C386 1.384 . S
C388 C389 1.372 . S
C389 C388 1.372 . S
C389 C390 1.400 . S
C389 C394 1.490 . S
C390 H380 0.930 . S
C390 C389 1.400 . S
C390 C393 1.386 . S
H391 C407 0.930 . S
H392 C408 0.931 . S
C393 H381 0.929 . S
C393 C387 1.390 . S
C393 C390 1.386 . S
C394 C389 1.490 . S
C394 C396 1.395 . S
C394 C397 1.403 . S
H395 C401 0.930 . S
C396 H382 0.930 . S
C396 C394 1.395 . S
C396 C399 1.403 . S
C397 C394 1.403 . S
C397 C398 1.524 . S
C397 C401 1.400 . S
C398 H383 0.960 . S
C398 H384 0.960 . S
C398 H385 0.960 . S
C398 C397 1.524 . S
C399 C396 1.403 . S
C399 C400 1.392 . S
C399 C403 1.495 . S
C400 C399 1.392 . S
C400 C401 1.385 . S
C400 C402 1.478 . S
C401 H395 0.930 . S
C401 C397 1.400 . S
C401 C400 1.385 . S
C402 C400 1.478 . S
C402 C404 1.381 . S
C402 C408 1.383 . S
C403 C399 1.495 . S
C403 H409 0.959 . S
C403 H410 0.961 . S
C403 H411 0.960 . S
C404 C402 1.381 . S
C404 C405 1.394 . S
C404 H412 0.930 . S
C405 C404 1.394 . S
C405 C406 1.383 . S
C405 H413 0.929 . S
C406 C405 1.383 . S
C406 C407 1.377 . S
C407 H391 0.930 . S
C407 C406 1.377 . S
C407 C408 1.379 . S
C408 H392 0.931 . S
C408 C402 1.383 . S
C408 C407 1.379 . S
H409 C403 0.959 . S
H410 C403 0.961 . S
H411 C403 0.960 . S
H412 C404 0.930 . S
H413 C405 0.929 . S
H414 C422 0.929 . S
H415 C424 0.930 . S
H416 C426 0.930 . S
H417 C429 0.929 . S
H418 C432 0.930 . S
H419 C434 0.960 . S
H420 C434 0.960 . S
H421 C434 0.960 . S
C422 H414 0.929 . S
C422 C423 1.377 . S
C422 C424 1.384 . S
C423 C422 1.377 . S
C423 C429 1.390 . S
C424 H415 0.930 . S
C424 C422 1.384 . S
C424 C425 1.372 . S
C425 C424 1.372 . S
C425 C426 1.400 . S
C425 C430 1.490 . S
C426 H416 0.930 . S
C426 C425 1.400 . S
C426 C429 1.386 . S
H427 C443 0.930 . S
H428 C444 0.931 . S
C429 H417 0.929 . S
C429 C423 1.390 . S
C429 C426 1.386 . S
C430 C425 1.490 . S
C430 C432 1.395 . S
C430 C433 1.403 . S
H431 C437 0.930 . S
C432 H418 0.930 . S
C432 C430 1.395 . S
C432 C435 1.403 . S
C433 C430 1.403 . S
C433 C434 1.524 . S
C433 C437 1.400 . S
C434 H419 0.960 . S
C434 H420 0.960 . S
C434 H421 0.960 . S
C434 C433 1.524 . S
C435 C432 1.403 . S
C435 C436 1.392 . S
C435 C439 1.495 . S
C436 C435 1.392 . S
C436 C437 1.385 . S
C436 C438 1.478 . S
C437 H431 0.930 . S
C437 C433 1.400 . S
C437 C436 1.385 . S
C438 C436 1.478 . S
C438 C440 1.381 . S
C438 C444 1.383 . S
C439 C435 1.495 . S
C439 H445 0.959 . S
C439 H446 0.961 . S
C439 H447 0.960 . S
C440 C438 1.381 . S
C440 C441 1.394 . S
C440 H448 0.930 . S
C441 C440 1.394 . S
C441 C442 1.383 . S
C441 H449 0.929 . S
C442 C441 1.383 . S
C442 C443 1.377 . S
C443 H427 0.930 . S
C443 C442 1.377 . S
C443 C444 1.379 . S
C444 H428 0.931 . S
C444 C438 1.383 . S
C444 C443 1.379 . S
H445 C439 0.959 . S
H446 C439 0.961 . S
H447 C439 0.960 . S
H448 C440 0.930 . S
H449 C441 0.929 . S
H450 C458 0.929 . S
H451 C460 0.930 . S
H452 C462 0.930 . S
H453 C465 0.929 . S
H454 C468 0.930 . S
H455 C470 0.960 . S
H456 C470 0.960 . S
H457 C470 0.960 . S
C458 H450 0.929 . S
C458 C459 1.377 . S
C458 C460 1.384 . S
C459 C458 1.377 . S
C459 C465 1.390 . S
C460 H451 0.930 . S
C460 C458 1.384 . S
C460 C461 1.372 . S
C461 C460 1.372 . S
C461 C462 1.400 . S
C461 C466 1.490 . S
C462 H452 0.930 . S
C462 C461 1.400 . S
C462 C465 1.386 . S
H463 C479 0.930 . S
H464 C480 0.931 . S
C465 H453 0.929 . S
C465 C459 1.390 . S
C465 C462 1.386 . S
C466 C461 1.490 . S
C466 C468 1.395 . S
C466 C469 1.403 . S
H467 C473 0.930 . S
C468 H454 0.930 . S
C468 C466 1.395 . S
C468 C471 1.403 . S
C469 C466 1.403 . S
C469 C470 1.524 . S
C469 C473 1.400 . S
C470 H455 0.960 . S
C470 H456 0.960 . S
C470 H457 0.960 . S
C470 C469 1.524 . S
C471 C468 1.403 . S
C471 C472 1.392 . S
C471 C475 1.495 . S
C472 C471 1.392 . S
C472 C473 1.385 . S
C472 C474 1.478 . S
C473 H467 0.930 . S
C473 C469 1.400 . S
C473 C472 1.385 . S
C474 C472 1.478 . S
C474 C476 1.381 . S
C474 C480 1.383 . S
C475 C471 1.495 . S
C475 H481 0.959 . S
C475 H482 0.961 . S
C475 H483 0.960 . S
C476 C474 1.381 . S
C476 C477 1.394 . S
C476 H484 0.930 . S
C477 C476 1.394 . S
C477 C478 1.383 . S
C477 H485 0.929 . S
C478 C477 1.383 . S
C478 C479 1.377 . S
C479 H463 0.930 . S
C479 C478 1.377 . S
C479 C480 1.379 . S
C480 H464 0.931 . S
C480 C474 1.383 . S
C480 C479 1.379 . S
H481 C475 0.959 . S
H482 C475 0.961 . S
H483 C475 0.960 . S
H484 C476 0.930 . S
H485 C477 0.929 . S
H486 C494 0.929 . S
H487 C496 0.930 . S
H488 C498 0.930 . S
H489 C501 0.929 . S
H490 C504 0.930 . S
H491 C506 0.960 . S
H492 C506 0.960 . S
H493 C506 0.960 . S
C494 H486 0.929 . S
C494 C495 1.377 . S
C494 C496 1.384 . S
C495 C494 1.377 . S
C495 C501 1.390 . S
C496 H487 0.930 . S
C496 C494 1.384 . S
C496 C497 1.372 . S
C497 C496 1.372 . S
C497 C498 1.400 . S
C497 C502 1.490 . S
C498 H488 0.930 . S
C498 C497 1.400 . S
C498 C501 1.386 . S
H499 C515 0.930 . S
H500 C516 0.931 . S
C501 H489 0.929 . S
C501 C495 1.390 . S
C501 C498 1.386 . S
C502 C497 1.490 . S
C502 C504 1.395 . S
C502 C505 1.403 . S
H503 C509 0.930 . S
C504 H490 0.930 . S
C504 C502 1.395 . S
C504 C507 1.403 . S
C505 C502 1.403 . S
C505 C506 1.524 . S
C505 C509 1.400 . S
C506 H491 0.960 . S
C506 H492 0.960 . S
C506 H493 0.960 . S
C506 C505 1.524 . S
C507 C504 1.403 . S
C507 C508 1.392 . S
C507 C511 1.495 . S
C508 C507 1.392 . S
C508 C509 1.385 . S
C508 C510 1.478 . S
C509 H503 0.930 . S
C509 C505 1.400 . S
C509 C508 1.385 . S
C510 C508 1.478 . S
C510 C512 1.381 . S
C510 C516 1.383 . S
C511 C507 1.495 . S
C511 H517 0.959 . S
C511 H518 0.961 . S
C511 H519 0.960 . S
C512 C510 1.381 . S
C512 C513 1.394 . S
C512 H520 0.930 . S
C513 C512 1.394 . S
C513 C514 1.383 . S
C513 H521 0.929 . S
C514 C513 1.383 . S
C514 C515 1.377 . S
C515 H499 0.930 . S
C515 C514 1.377 . S
C515 C516 1.379 . S
C516 H500 0.931 . S
C516 C510 1.383 . S
C516 C515 1.379 . S
H517 C511 0.959 . S
H518 C511 0.961 . S
H519 C511 0.960 . S
H520 C512 0.930 . S
H521 C513 0.929 . S
H522 C530 0.929 . S
H523 C532 0.930 . S
H524 C534 0.930 . S
H525 C537 0.929 . S
H526 C540 0.930 . S
H527 C542 0.960 . S
H528 C542 0.960 . S
H529 C542 0.960 . S
C530 H522 0.929 . S
C530 C531 1.377 . S
C530 C532 1.384 . S
C531 C530 1.377 . S
C531 C537 1.390 . S
C532 H523 0.930 . S
C532 C530 1.384 . S
C532 C533 1.372 . S
C533 C532 1.372 . S
C533 C534 1.400 . S
C533 C538 1.490 . S
C534 H524 0.930 . S
C534 C533 1.400 . S
C534 C537 1.386 . S
H535 C551 0.930 1_545 S
H536 C552 0.931 . S
C537 H525 0.929 . S
C537 C531 1.390 . S
C537 C534 1.386 . S
C538 C533 1.490 . S
C538 C540 1.395 . S
C538 C541 1.403 . S
H539 C545 0.930 . S
C540 H526 0.930 . S
C540 C538 1.395 . S
C540 C543 1.403 . S
C541 C538 1.403 . S
C541 C542 1.524 . S
C541 C545 1.400 . S
C542 H527 0.960 . S
C542 H528 0.960 . S
C542 H529 0.960 . S
C542 C541 1.524 . S
C543 C540 1.403 . S
C543 C544 1.392 . S
C543 C547 1.495 . S
C544 C543 1.392 . S
C544 C545 1.385 . S
C544 C546 1.478 . S
C545 H539 0.930 . S
C545 C541 1.400 . S
C545 C544 1.385 . S
C546 C544 1.478 . S
C546 C548 1.381 . S
C546 C552 1.383 . S
C547 C543 1.495 . S
C547 H553 0.959 . S
C547 H554 0.961 . S
C547 H555 0.960 . S
C548 C546 1.381 . S
C548 C549 1.394 . S
C548 H556 0.930 . S
C549 C548 1.394 . S
C549 C550 1.383 . S
C549 H557 0.929 . S
C550 C549 1.383 . S
C550 C551 1.377 . S
C551 H535 0.930 1_565 S
C551 C550 1.377 . S
C551 C552 1.379 . S
C552 H536 0.931 . S
C552 C546 1.383 . S
C552 C551 1.379 . S
H553 C547 0.959 . S
H554 C547 0.961 . S
H555 C547 0.960 . S
H556 C548 0.930 . S
H557 C549 0.929 . S
H558 C566 0.929 . S
H559 C568 0.930 . S
H560 C570 0.930 . S
H561 C573 0.929 . S
H562 C576 0.930 . S
H563 C578 0.960 . S
H564 C578 0.960 . S
H565 C578 0.960 . S
C566 H558 0.929 . S
C566 C567 1.377 . S
C566 C568 1.384 . S
C567 C566 1.377 . S
C567 C573 1.390 . S
C568 H559 0.930 . S
C568 C566 1.384 . S
C568 C569 1.372 . S
C569 C568 1.372 . S
C569 C570 1.400 . S
C569 C574 1.490 . S
C570 H560 0.930 . S
C570 C569 1.400 . S
C570 C573 1.386 . S
H571 C587 0.930 . S
H572 C588 0.931 . S
C573 H561 0.929 . S
C573 C567 1.390 . S
C573 C570 1.386 . S
C574 C569 1.490 . S
C574 C576 1.395 . S
C574 C577 1.403 . S
H575 C581 0.930 . S
C576 H562 0.930 . S
C576 C574 1.395 . S
C576 C579 1.403 . S
C577 C574 1.403 . S
C577 C578 1.524 . S
C577 C581 1.400 . S
C578 H563 0.960 . S
C578 H564 0.960 . S
C578 H565 0.960 . S
C578 C577 1.524 . S
C579 C576 1.403 . S
C579 C580 1.392 . S
C579 C583 1.495 . S
C580 C579 1.392 . S
C580 C581 1.385 . S
C580 C582 1.478 . S
C581 H575 0.930 . S
C581 C577 1.400 . S
C581 C580 1.385 . S
C582 C580 1.478 . S
C582 C584 1.381 . S
C582 C588 1.383 . S
C583 C579 1.495 . S
C583 H589 0.959 . S
C583 H590 0.961 . S
C583 H591 0.960 . S
C584 C582 1.381 . S
C584 C585 1.394 . S
C584 H592 0.930 . S
C585 C584 1.394 . S
C585 C586 1.383 . S
C585 H593 0.929 . S
C586 C585 1.383 . S
C586 C587 1.377 . S
C587 H571 0.930 . S
C587 C586 1.377 . S
C587 C588 1.379 . S
C588 H572 0.931 . S
C588 C582 1.383 . S
C588 C587 1.379 . S
H589 C583 0.959 . S
H590 C583 0.961 . S
H591 C583 0.960 . S
H592 C584 0.930 . S
H593 C585 0.929 . S
H594 C602 0.929 . S
H595 C604 0.930 . S
H596 C606 0.930 . S
H597 C609 0.929 . S
H598 C612 0.930 . S
H599 C614 0.960 . S
H600 C614 0.960 . S
H601 C614 0.960 . S
C602 H594 0.929 . S
C602 C603 1.377 . S
C602 C604 1.384 . S
C603 C602 1.377 . S
C603 C609 1.390 . S
C604 H595 0.930 . S
C604 C602 1.384 . S
C604 C605 1.372 . S
C605 C604 1.372 . S
C605 C606 1.400 . S
C605 C610 1.490 . S
C606 H596 0.930 . S
C606 C605 1.400 . S
C606 C609 1.386 . S
H607 C623 0.930 . S
H608 C624 0.931 . S
C609 H597 0.929 . S
C609 C603 1.390 . S
C609 C606 1.386 . S
C610 C605 1.490 . S
C610 C612 1.395 . S
C610 C613 1.403 . S
H611 C617 0.930 . S
C612 H598 0.930 . S
C612 C610 1.395 . S
C612 C615 1.403 . S
C613 C610 1.403 . S
C613 C614 1.524 . S
C613 C617 1.400 . S
C614 H599 0.960 . S
C614 H600 0.960 . S
C614 H601 0.960 . S
C614 C613 1.524 . S
C615 C612 1.403 . S
C615 C616 1.392 . S
C615 C619 1.495 . S
C616 C615 1.392 . S
C616 C617 1.385 . S
C616 C618 1.478 . S
C617 H611 0.930 . S
C617 C613 1.400 . S
C617 C616 1.385 . S
C618 C616 1.478 . S
C618 C620 1.381 . S
C618 C624 1.383 . S
C619 C615 1.495 . S
C619 H625 0.959 . S
C619 H626 0.961 . S
C619 H627 0.960 . S
C620 C618 1.381 . S
C620 C621 1.394 . S
C620 H628 0.930 . S
C621 C620 1.394 . S
C621 C622 1.383 . S
C621 H629 0.929 . S
C622 C621 1.383 . S
C622 C623 1.377 . S
C623 H607 0.930 . S
C623 C622 1.377 . S
C623 C624 1.379 . S
C624 H608 0.931 . S
C624 C618 1.383 . S
C624 C623 1.379 . S
H625 C619 0.959 . S
H626 C619 0.961 . S
H627 C619 0.960 . S
H628 C620 0.930 . S
H629 C621 0.929 . S
H630 C638 0.929 . S
H631 C640 0.930 . S
H632 C642 0.930 . S
H633 C645 0.929 . S
H634 C648 0.930 . S
H635 C650 0.960 . S
H636 C650 0.960 . S
H637 C650 0.960 . S
C638 H630 0.929 . S
C638 C639 1.377 . S
C638 C640 1.384 . S
C639 C638 1.377 . S
C639 C645 1.390 . S
C640 H631 0.930 . S
C640 C638 1.384 . S
C640 C641 1.372 . S
C641 C640 1.372 . S
C641 C642 1.400 . S
C641 C646 1.490 . S
C642 H632 0.930 . S
C642 C641 1.400 . S
C642 C645 1.386 . S
H643 C659 0.930 . S
H644 C660 0.931 . S
C645 H633 0.929 . S
C645 C639 1.390 . S
C645 C642 1.386 . S
C646 C641 1.490 . S
C646 C648 1.395 . S
C646 C649 1.403 . S
H647 C653 0.930 . S
C648 H634 0.930 . S
C648 C646 1.395 . S
C648 C651 1.403 . S
C649 C646 1.403 . S
C649 C650 1.524 . S
C649 C653 1.400 . S
C650 H635 0.960 . S
C650 H636 0.960 . S
C650 H637 0.960 . S
C650 C649 1.524 . S
C651 C648 1.403 . S
C651 C652 1.392 . S
C651 C655 1.495 . S
C652 C651 1.392 . S
C652 C653 1.385 . S
C652 C654 1.478 . S
C653 H647 0.930 . S
C653 C649 1.400 . S
C653 C652 1.385 . S
C654 C652 1.478 . S
C654 C656 1.381 . S
C654 C660 1.383 . S
C655 C651 1.495 . S
C655 H661 0.959 . S
C655 H662 0.961 . S
C655 H663 0.960 . S
C656 C654 1.381 . S
C656 C657 1.394 . S
C656 H664 0.930 . S
C657 C656 1.394 . S
C657 C658 1.383 . S
C657 H665 0.929 . S
C658 C657 1.383 . S
C658 C659 1.377 . S
C659 H643 0.930 . S
C659 C658 1.377 . S
C659 C660 1.379 . S
C660 H644 0.931 . S
C660 C654 1.383 . S
C660 C659 1.379 . S
H661 C655 0.959 . S
H662 C655 0.961 . S
H663 C655 0.960 . S
H664 C656 0.930 . S
H665 C657 0.929 . S
H666 C674 0.929 . S
H667 C676 0.930 . S
H668 C678 0.930 . S
H669 C681 0.929 . S
H670 C684 0.930 . S
H671 C686 0.960 1_655 S
H672 C686 0.960 . S
H673 C686 0.960 . S
C674 H666 0.929 . S
C674 C675 1.377 . S
C674 C676 1.384 . S
C675 C674 1.377 . S
C675 C681 1.390 . S
C676 H667 0.930 . S
C676 C674 1.384 . S
C676 C677 1.372 . S
C677 C676 1.372 . S
C677 C678 1.400 . S
C677 C682 1.490 . S
C678 H668 0.930 . S
C678 C677 1.400 . S
C678 C681 1.386 . S
H679 C695 0.930 . S
H680 C696 0.931 . S
C681 H669 0.929 . S
C681 C675 1.390 . S
C681 C678 1.386 . S
C682 C677 1.490 . S
C682 C684 1.395 . S
C682 C685 1.403 . S
H683 C689 0.961 . S
C684 H670 0.930 . S
C684 C682 1.395 . S
C684 C687 1.403 . S
C685 C682 1.403 . S
C685 C686 1.524 . S
C685 C689 1.384 1_455 S
C686 H671 0.960 1_455 S
C686 H672 0.960 . S
C686 H673 0.960 . S
C686 C685 1.524 . S
C687 C684 1.403 . S
C687 C688 1.392 . S
C687 C691 1.495 . S
C688 C687 1.392 . S
C688 C689 1.372 1_455 S
C688 C690 1.478 1_455 S
C689 H683 0.961 . S
C689 C685 1.384 1_655 S
C689 C688 1.372 1_655 S
C690 C688 1.478 1_655 S
C690 C692 1.381 . S
C690 C696 1.383 . S
C691 C687 1.495 . S
C691 H697 0.959 . S
C691 H698 0.961 . S
C691 H699 0.960 . S
C692 C690 1.381 . S
C692 C693 1.394 . S
C692 H700 0.930 1_655 S
C693 C692 1.394 . S
C693 C694 1.383 . S
C693 H701 0.929 . S
C694 C693 1.383 . S
C694 C695 1.377 . S
C695 H679 0.930 . S
C695 C694 1.377 . S
C695 C696 1.379 . S
C696 H680 0.931 . S
C696 C690 1.383 . S
C696 C695 1.379 . S
H697 C691 0.959 . S
H698 C691 0.961 . S
H699 C691 0.960 . S
H700 C692 0.930 1_455 S
H701 C693 0.929 . S
H702 C710 0.929 . S
H703 C712 0.930 . S
H704 C714 0.930 . S
H705 C717 0.929 . S
H706 C720 0.930 . S
H707 C722 0.960 . S
H708 C722 0.960 . S
H709 C722 0.960 . S
C710 H702 0.929 . S
C710 C711 1.377 . S
C710 C712 1.384 . S
C711 C710 1.377 . S
C711 C717 1.390 . S
C712 H703 0.930 . S
C712 C710 1.384 . S
C712 C713 1.372 . S
C713 C712 1.372 . S
C713 C714 1.400 . S
C713 C718 1.490 . S
C714 H704 0.930 . S
C714 C713 1.400 . S
C714 C717 1.386 . S
H715 C731 0.930 . S
H716 C732 0.931 . S
C717 H705 0.929 . S
C717 C711 1.390 . S
C717 C714 1.386 . S
C718 C713 1.490 . S
C718 C720 1.395 . S
C718 C721 1.403 . S
H719 C725 0.930 . S
C720 H706 0.930 . S
C720 C718 1.395 . S
C720 C723 1.403 . S
C721 C718 1.403 . S
C721 C722 1.524 . S
C721 C725 1.400 . S
C722 H707 0.960 . S
C722 H708 0.960 . S
C722 H709 0.960 . S
C722 C721 1.524 . S
C723 C720 1.403 . S
C723 C724 1.392 . S
C723 C727 1.495 . S
C724 C723 1.392 . S
C724 C725 1.385 . S
C724 C726 1.478 . S
C725 H719 0.930 . S
C725 C721 1.400 . S
C725 C724 1.385 . S
C726 C724 1.478 . S
C726 C728 1.381 . S
C726 C732 1.383 . S
C727 C723 1.495 . S
C727 H733 0.959 . S
C727 H734 0.961 . S
C727 H735 0.960 . S
C728 C726 1.381 . S
C728 C729 1.394 . S
C728 H736 0.930 . S
C729 C728 1.394 . S
C729 C730 1.383 . S
C729 H737 0.929 . S
C730 C729 1.383 . S
C730 C731 1.377 . S
C731 H715 0.930 . S
C731 C730 1.377 . S
C731 C732 1.379 . S
C732 H716 0.931 . S
C732 C726 1.383 . S
C732 C731 1.379 . S
H733 C727 0.959 . S
H734 C727 0.961 . S
H735 C727 0.960 . S
H736 C728 0.930 . S
H737 C729 0.929 . S
H738 C746 0.929 . S
H739 C748 0.930 . S
H740 C750 0.930 . S
H741 C753 0.929 . S
H742 C756 0.930 . S
H743 C758 0.960 . S
H744 C758 0.960 . S
H745 C758 0.960 . S
C746 H738 0.929 . S
C746 C747 1.377 . S
C746 C748 1.384 . S
C747 C746 1.377 . S
C747 C753 1.390 . S
C748 H739 0.930 . S
C748 C746 1.384 . S
C748 C749 1.372 . S
C749 C748 1.372 . S
C749 C750 1.400 . S
C749 C754 1.490 . S
C750 H740 0.930 . S
C750 C749 1.400 . S
C750 C753 1.386 . S
H751 C767 0.930 . S
H752 C768 0.931 . S
C753 H741 0.929 . S
C753 C747 1.390 . S
C753 C750 1.386 . S
C754 C749 1.490 . S
C754 C756 1.395 1_565 S
C754 C757 1.403 1_565 S
H755 C761 0.930 . S
C756 H742 0.930 . S
C756 C754 1.395 1_545 S
C756 C759 1.403 . S
C757 C754 1.403 1_545 S
C757 C758 1.524 1_545 S
C757 C761 1.400 . S
C758 H743 0.960 . S
C758 H744 0.960 . S
C758 H745 0.960 . S
C758 C757 1.524 1_565 S
C759 C756 1.403 . S
C759 C760 1.392 . S
C759 C763 1.495 . S
C760 C759 1.392 . S
C760 C761 1.385 . S
C760 C762 1.478 . S
C761 H755 0.930 . S
C761 C757 1.400 . S
C761 C760 1.385 . S
C762 C760 1.478 . S
C762 C764 1.381 . S
C762 C768 1.383 . S
C763 C759 1.495 . S
C763 H769 0.959 . S
C763 H770 0.961 . S
C763 H771 0.960 . S
C764 C762 1.381 . S
C764 C765 1.394 . S
C764 H772 0.930 . S
C765 C764 1.394 . S
C765 C766 1.383 . S
C765 H773 0.929 . S
C766 C765 1.383 . S
C766 C767 1.377 . S
C767 H751 0.930 . S
C767 C766 1.377 . S
C767 C768 1.379 . S
C768 H752 0.931 . S
C768 C762 1.383 . S
C768 C767 1.379 . S
H769 C763 0.959 . S
H770 C763 0.961 . S
H771 C763 0.960 . S
H772 C764 0.930 . S
H773 C765 0.929 . S
C135 C37 0.838 . S
C154 C3 0.877 . S
C171 C23 0.856 . S
C190 C9 0.879 . S
C207 C17 0.884 . S
C226 C31 0.919 . S
C243 C73 0.854 . S
C262 C51 0.798 . S
C279 C65 0.833 . S
C298 C45 0.823 . S
C315 C59 0.855 . S
C334 C79 0.882 . S
C351 C87 0.842 . S
C370 C121 0.819 . S
C387 C93 0.800 . S
C406 C107 0.790 . S
C423 C101 0.825 . S
C442 C115 0.815 . S
C459 C8 1.351 . S
C478 C106 1.352 . S
C495 C21 1.363 . S
C514 C119 1.386 . S
C531 C91 1.348 . S
C550 C36 1.371 . S
C567 C63 1.321 . S
C586 C35 1.335 . S
C603 C7 1.344 . S
C622 C77 1.364 . S
C639 C49 1.363 . S
C658 C22 1.382 . S
C675 C105 1.336 . S
C694 C78 1.369 . S
C711 C50 1.374 . S
C730 C120 1.363 . S
C747 C92 1.392 . S
C766 C64 1.391 . S
