# Generated by pormake.
# Topology wjw, (5)-cn, num edge types: 1
# Building blocks:
#     Node 0, Type 0, BuildingBlock: XOMCOT_clean_sbu_1, # of connection points: 5
#     Node 1, Type 0, BuildingBlock: XOMCOT_clean_sbu_1, # of connection points: 5
#     Node 2, Type 0, BuildingBlock: XOMCOT_clean_sbu_1, # of connection points: 5
#     Node 3, Type 0, BuildingBlock: XOMCOT_clean_sbu_1, # of connection points: 5
#     Node 4, Type 0, BuildingBlock: XOMCOT_clean_sbu_1, # of connection points: 5
#     Node 5, Type 0, BuildingBlock: XOMCOT_clean_sbu_1, # of connection points: 5
#     Node 6, Type 0, BuildingBlock: XOMCOT_clean_sbu_1, # of connection points: 5
#     Node 7, Type 0, BuildingBlock: XOMCOT_clean_sbu_1, # of connection points: 5
#     Node 8, Type 0, BuildingBlock: XOMCOT_clean_sbu_1, # of connection points: 5
#     Node 9, Type 0, BuildingBlock: XOMCOT_clean_sbu_1, # of connection points: 5
#     Node 10, Type 0, BuildingBlock: XOMCOT_clean_sbu_1, # of connection points: 5
#     Node 11, Type 0, BuildingBlock: XOMCOT_clean_sbu_1, # of connection points: 5
#     Edge 12, Type (0, 0), BuildingBlock: KIFKEQ_clean_linker_1, # of connection points: 2
#     Edge 13, Type (0, 0), BuildingBlock: KIFKEQ_clean_linker_1, # of connection points: 2
#     Edge 14, Type (0, 0), BuildingBlock: KIFKEQ_clean_linker_1, # of connection points: 2
#     Edge 15, Type (0, 0), BuildingBlock: KIFKEQ_clean_linker_1, # of connection points: 2
#     Edge 16, Type (0, 0), BuildingBlock: KIFKEQ_clean_linker_1, # of connection points: 2
#     Edge 17, Type (0, 0), BuildingBlock: KIFKEQ_clean_linker_1, # of connection points: 2
#     Edge 18, Type (0, 0), BuildingBlock: KIFKEQ_clean_linker_1, # of connection points: 2
#     Edge 19, Type (0, 0), BuildingBlock: KIFKEQ_clean_linker_1, # of connection points: 2
#     Edge 20, Type (0, 0), BuildingBlock: KIFKEQ_clean_linker_1, # of connection points: 2
#     Edge 21, Type (0, 0), BuildingBlock: KIFKEQ_clean_linker_1, # of connection points: 2
#     Edge 22, Type (0, 0), BuildingBlock: KIFKEQ_clean_linker_1, # of connection points: 2
#     Edge 23, Type (0, 0), BuildingBlock: KIFKEQ_clean_linker_1, # of connection points: 2
#     Edge 24, Type (0, 0), BuildingBlock: KIFKEQ_clean_linker_1, # of connection points: 2
#     Edge 25, Type (0, 0), BuildingBlock: KIFKEQ_clean_linker_1, # of connection points: 2
#     Edge 26, Type (0, 0), BuildingBlock: KIFKEQ_clean_linker_1, # of connection points: 2
#     Edge 27, Type (0, 0), BuildingBlock: KIFKEQ_clean_linker_1, # of connection points: 2
#     Edge 28, Type (0, 0), BuildingBlock: KIFKEQ_clean_linker_1, # of connection points: 2
#     Edge 29, Type (0, 0), BuildingBlock: KIFKEQ_clean_linker_1, # of connection points: 2
#     Edge 30, Type (0, 0), BuildingBlock: KIFKEQ_clean_linker_1, # of connection points: 2
#     Edge 31, Type (0, 0), BuildingBlock: KIFKEQ_clean_linker_1, # of connection points: 2
#     Edge 32, Type (0, 0), BuildingBlock: KIFKEQ_clean_linker_1, # of connection points: 2
#     Edge 33, Type (0, 0), BuildingBlock: KIFKEQ_clean_linker_1, # of connection points: 2
#     Edge 34, Type (0, 0), BuildingBlock: KIFKEQ_clean_linker_1, # of connection points: 2
#     Edge 35, Type (0, 0), BuildingBlock: KIFKEQ_clean_linker_1, # of connection points: 2
#     Edge 36, Type (0, 0), BuildingBlock: KIFKEQ_clean_linker_1, # of connection points: 2
#     Edge 37, Type (0, 0), BuildingBlock: KIFKEQ_clean_linker_1, # of connection points: 2
#     Edge 38, Type (0, 0), BuildingBlock: KIFKEQ_clean_linker_1, # of connection points: 2
#     Edge 39, Type (0, 0), BuildingBlock: KIFKEQ_clean_linker_1, # of connection points: 2
#     Edge 40, Type (0, 0), BuildingBlock: KIFKEQ_clean_linker_1, # of connection points: 2
#     Edge 41, Type (0, 0), BuildingBlock: KIFKEQ_clean_linker_1, # of connection points: 2
# Relax obj value: 0.184
# Max RMSD: 0.165
# Mean RMSD: 0.161
data_MOF--net-wjw--node1-XOMCOT_clean_sbu_1--edge1-KIFKEQ_clean_linker_1
_symmetry_space_group_name_H-M    P1
_symmetry_Int_Tables_number       1
_symmetry_cell_setting            triclinic
loop_
_symmetry_equiv_pos_as_xyz
'x, y, z'
_cell_length_a     40.682148
_cell_length_b     40.751099
_cell_length_c     37.209481
_cell_angle_alpha  89.910352
_cell_angle_beta   89.991876
_cell_angle_gamma 120.26001
loop_
_atom_site_label
_atom_site_type_symbol
_atom_site_fract_x
_atom_site_fract_y
_atom_site_fract_z
_atom_type_partial_charge
C0 C 0.22661 0.41535 0.28469 0.0
C1 C 0.25119 0.40146 0.28582 0.0
N2 N 0.23768 0.37264 0.30972 0.0
N3 N 0.19779 0.39557 0.30791 0.0
C4 C 0.20512 0.36955 0.32249 0.0
H5 H 0.22957 0.43843 0.268 0.0
Co6 Co 0.15726 0.40359 0.31685 0.0
C7 C 0.14185 0.38873 0.39502 0.0
O8 O 0.13394 0.41625 0.39649 0.0
N9 N 0.11526 0.41093 0.32515 0.0
C10 C 0.05508 0.39508 0.33587 0.0
C11 C 0.08032 0.38212 0.33418 0.0
C12 C 0.11026 0.44132 0.32156 0.0
N13 N 0.07391 0.43236 0.32791 0.0
O14 O 0.12314 0.35564 0.29534 0.0
H15 H 0.07348 0.35321 0.33925 0.0
H16 H 0.13224 0.46938 0.31366 0.0
O17 O 0.15073 0.38031 0.3648 0.0
C18 C 0.12455 0.36007 0.26133 0.0
O19 O 0.14938 0.3935 0.24814 0.0
N20 N 0.19223 0.45216 0.33374 0.0
C21 C 0.25421 0.52537 0.3416 0.0
C22 C 0.24604 0.49763 0.36794 0.0
C23 C 0.21538 0.4608 0.36308 0.0
C24 C 0.20004 0.47887 0.30795 0.0
C25 C 0.23048 0.51575 0.31154 0.0
H26 H 0.21227 0.43903 0.38157 0.0
H27 H 0.18356 0.47086 0.28341 0.0
H28 H 0.18718 0.34903 0.34246 0.0
H29 H 0.27683 0.41167 0.26998 0.0
H30 H 0.02521 0.37841 0.3428 0.0
H31 H 0.26466 0.50367 0.39085 0.0
H32 H 0.2362 0.5362 0.29034 0.0
C33 C 0.81758 0.2211 0.62514 0.0
C34 C 0.85565 0.23962 0.61677 0.0
N35 N 0.86985 0.21704 0.62555 0.0
N36 N 0.80759 0.18716 0.64003 0.0
C37 C 0.83936 0.18448 0.63753 0.0
H38 H 0.79907 0.23284 0.62258 0.0
Co39 Co 0.76061 0.15316 0.66222 0.0
C40 C 0.81903 0.17084 0.72299 0.0
O41 O 0.84701 0.20038 0.70697 0.0
N42 N 0.71334 0.11912 0.68333 0.0
C43 C 0.66692 0.0935 0.7238 0.0
C44 C 0.70467 0.11926 0.71827 0.0
C45 C 0.67999 0.09315 0.66799 0.0
N46 N 0.65115 0.07691 0.69221 0.0
O47 O 0.76384 0.11131 0.64257 0.0
H48 H 0.72399 0.13845 0.73819 0.0
H49 H 0.67678 0.08703 0.63951 0.0
O50 O 0.78611 0.15229 0.70812 0.0
C51 C 0.75419 0.1091 0.60961 0.0
O52 O 0.74399 0.1331 0.59779 0.0
N53 N 0.75505 0.19391 0.67788 0.0
C54 C 0.74499 0.25653 0.68546 0.0
C55 C 0.7739 0.25453 0.70428 0.0
C56 C 0.77825 0.22282 0.70038 0.0
C57 C 0.72609 0.19476 0.66035 0.0
C58 C 0.72014 0.22537 0.66421 0.0
H59 H 0.80152 0.22297 0.71398 0.0
H60 H 0.70818 0.17198 0.6422 0.0
H61 H 0.84081 0.16046 0.64797 0.0
H62 H 0.87207 0.26887 0.60799 0.0
H63 H 0.65189 0.0889 0.74898 0.0
H64 H 0.79426 0.27794 0.72062 0.0
H65 H 0.69675 0.22484 0.64984 0.0
C66 C 0.60447 0.81328 0.96517 0.0
C67 C 0.61954 0.852 0.96686 0.0
N68 N 0.65041 0.86672 0.98833 0.0
N69 N 0.62558 0.80356 0.98568 0.0
C70 C 0.65364 0.83677 0.99895 0.0
H71 H 0.57942 0.79344 0.95033 0.0
Co72 Co 0.6169 0.7547 0.99427 0.0
C73 C 0.63549 0.7551 0.07229 0.0
O74 O 0.61046 0.71868 0.07498 0.0
N75 N 0.60885 0.70514 1.0022 0.0
C76 C 0.62325 0.65972 1.01129 0.0
C77 C 0.63728 0.69821 1.00988 0.0
C78 C 0.57768 0.66999 0.99897 0.0
N79 N 0.58571 0.64195 1.00438 0.0
O80 O 0.66437 0.76832 0.97161 0.0
H81 H 0.66663 0.71991 1.01421 0.0
H82 H 0.54971 0.66458 0.99182 0.0
O83 O 0.64118 0.77164 0.04173 0.0
C84 C 0.65933 0.76538 0.93768 0.0
O85 O 0.62566 0.75673 0.92525 0.0
N86 N 0.56882 0.74135 1.01256 0.0
C87 C 0.49613 0.73043 0.02406 0.0
C88 C 0.52506 0.74933 0.04962 0.0
C89 C 0.56146 0.75526 0.04301 0.0
C90 C 0.54107 0.72307 0.98748 0.0
C91 C 0.50447 0.71682 0.99284 0.0
H92 H 0.58386 0.77322 0.0613 0.0
H93 H 0.54804 0.715 0.96217 0.0
H94 H 0.67631 0.83898 1.01577 0.0
H95 H 0.60799 0.86786 0.95404 0.0
H96 H 0.63943 0.64592 1.01724 0.0
H97 H 0.52009 0.7608 0.0739 0.0
H98 H 0.48361 0.70338 0.9717 0.0
C99 C 0.80526 0.61238 0.28585 0.0
C100 C 0.78373 0.62975 0.28318 0.0
N101 N 0.79752 0.65895 0.3066 0.0
N102 N 0.83241 0.63044 0.31093 0.0
C103 C 0.82744 0.65906 0.32249 0.0
H104 H 0.80014 0.58696 0.27191 0.0
Co105 Co 0.86515 0.61505 0.33005 0.0
C106 C 0.88703 0.66037 0.39883 0.0
O107 O 0.92387 0.67508 0.39456 0.0
N108 N 0.89786 0.59953 0.34953 0.0
C109 C 0.92368 0.57644 0.38719 0.0
C110 C 0.89827 0.58908 0.38391 0.0
C111 C 0.92271 0.59212 0.33224 0.0
N112 N 0.93896 0.57818 0.35466 0.0
O113 O 0.908 0.66099 0.31243 0.0
H114 H 0.87994 0.58889 0.40505 0.0
H115 H 0.92791 0.59578 0.3036 0.0
O116 O 0.86396 0.63756 0.37549 0.0
C117 C 0.91013 0.65493 0.27907 0.0
O118 O 0.88535 0.62141 0.26609 0.0
N119 N 0.82313 0.56887 0.34368 0.0
C120 C 0.75724 0.49792 0.34983 0.0
C121 C 0.75995 0.53003 0.36682 0.0
C122 C 0.7933 0.56532 0.36355 0.0
C123 C 0.82134 0.53803 0.32763 0.0
C124 C 0.7891 0.50224 0.331 0.0
H125 H 0.79425 0.59006 0.37517 0.0
H126 H 0.84468 0.54141 0.31105 0.0
H127 H 0.84477 0.67898 0.34307 0.0
H128 H 0.75852 0.62011 0.26684 0.0
H129 H 0.92891 0.56484 0.41128 0.0
H130 H 0.73601 0.52845 0.3811 0.0
H131 H 0.78897 0.47839 0.3181 0.0
C132 C 0.19474 0.79865 0.61511 0.0
C133 C 0.15604 0.78214 0.61072 0.0
N134 N 0.14369 0.80104 0.63108 0.0
N135 N 0.20704 0.82755 0.63885 0.0
C136 C 0.1754 0.82933 0.64653 0.0
H137 H 0.21202 0.78898 0.6022 0.0
Co138 Co 0.25609 0.8596 0.65939 0.0
C139 C 0.20356 0.82588 0.72181 0.0
O140 O 0.18754 0.79322 0.70474 0.0
N141 N 0.30442 0.89191 0.67869 0.0
C142 C 0.35237 0.92661 0.71589 0.0
C143 C 0.31344 0.90665 0.71215 0.0
C144 C 0.33841 0.90386 0.66241 0.0
N145 N 0.36794 0.92494 0.68459 0.0
O146 O 0.2521 0.9028 0.64516 0.0
H147 H 0.29326 0.90279 0.73292 0.0
H148 H 0.3414 0.89625 0.63524 0.0
O149 O 0.23168 0.85533 0.70733 0.0
C150 C 0.26074 0.90647 0.61179 0.0
O151 O 0.27067 0.88315 0.59773 0.0
N152 N 0.26295 0.81829 0.66921 0.0
C153 C 0.2715 0.75483 0.67208 0.0
C154 C 0.26717 0.77083 0.70383 0.0
C155 C 0.26389 0.80337 0.70187 0.0
C156 C 0.27246 0.80619 0.63899 0.0
C157 C 0.27586 0.77392 0.63957 0.0
H158 H 0.2618 0.8161 0.72652 0.0
H159 H 0.2762 0.82108 0.6139 0.0
H160 H 0.17541 0.84988 0.6649 0.0
H161 H 0.13819 0.75669 0.5954 0.0
H162 H 0.36814 0.94101 0.73984 0.0
H163 H 0.26532 0.75783 0.72973 0.0
H164 H 0.2814 0.76375 0.61471 0.0
C165 C 0.39594 0.19735 0.94956 0.0
C166 C 0.38115 0.15896 0.9447 0.0
N167 N 0.35282 0.14016 0.96868 0.0
N168 N 0.37711 0.20285 0.9765 0.0
C169 C 0.35068 0.16751 0.98721 0.0
H170 H 0.42013 0.21987 0.93556 0.0
Co171 Co 0.39088 0.24976 0.99747 0.0
C172 C 0.34032 0.22465 0.06324 0.0
O173 O 0.32816 0.2487 0.05836 0.0
N174 N 0.40536 0.29711 0.01855 0.0
C175 C 0.42749 0.34455 0.05788 0.0
C176 C 0.41388 0.30639 0.0535 0.0
C177 C 0.41496 0.33043 1.00209 0.0
N178 N 0.42838 0.35977 0.02551 0.0
O179 O 0.34719 0.24818 0.97578 0.0
H180 H 0.41232 0.28711 0.0743 0.0
H181 H 0.4135 0.3334 0.97334 0.0
O182 O 0.36361 0.22366 0.04097 0.0
C183 C 0.35742 0.25898 0.94336 0.0
O184 O 0.39267 0.26975 0.93427 0.0
N185 N 0.43503 0.25245 1.01478 0.0
C186 C 0.50371 0.25395 0.02374 0.0
C187 C 0.47023 0.22534 0.03998 0.0
C188 C 0.43603 0.2251 0.03518 0.0
C189 C 0.4674 0.28116 0.99998 0.0
C190 C 0.50213 0.28283 1.00463 0.0
H191 H 0.4101 0.20161 0.04585 0.0
H192 H 0.46597 0.30198 0.98303 0.0
H193 H 0.33166 0.16188 1.00961 0.0
H194 H 0.3914 0.14605 0.92573 0.0
H195 H 0.43817 0.36031 0.08267 0.0
H196 H 0.46994 0.20218 0.05454 0.0
H197 H 0.52727 0.30591 0.99224 0.0
C198 C 0.61294 0.79958 0.40926 0.0
C199 C 0.62741 0.7755 0.40748 0.0
N200 N 0.65744 0.79077 0.38492 0.0
N201 N 0.63364 0.82987 0.38782 0.0
C202 C 0.66082 0.82389 0.37376 0.0
H203 H 0.5885 0.79498 0.42479 0.0
Co204 Co 0.62518 0.8702 0.37867 0.0
C205 C 0.64043 0.88494 0.29994 0.0
O206 O 0.61478 0.89541 0.29777 0.0
N207 N 0.61756 0.91186 0.3698 0.0
C208 C 0.63259 0.9712 0.35643 0.0
C209 C 0.64611 0.94654 0.35983 0.0
C210 C 0.58692 0.9166 0.37277 0.0
N211 N 0.59528 0.95238 0.36457 0.0
O212 O 0.67323 0.90484 0.40029 0.0
H213 H 0.67515 0.95352 0.35507 0.0
H214 H 0.55884 0.89446 0.38047 0.0
O215 O 0.64792 0.87584 0.33057 0.0
C216 C 0.66833 0.90251 0.4343 0.0
O217 O 0.63507 0.87648 0.44689 0.0
N218 N 0.57648 0.835 0.36204 0.0
C219 C 0.50304 0.77322 0.35444 0.0
C220 C 0.53066 0.78136 0.32795 0.0
C221 C 0.5676 0.81195 0.33266 0.0
C222 C 0.54987 0.82726 0.38795 0.0
C223 C 0.51289 0.7969 0.38451 0.0
H224 H 0.58922 0.81504 0.31399 0.0
H225 H 0.55804 0.84384 0.4124 0.0
H226 H 0.68293 0.84366 0.3559 0.0
H227 H 0.616 0.74836 0.42097 0.0
H228 H 0.64921 1.00091 0.3491 0.0
H229 H 0.52443 0.76281 0.30501 0.0
H230 H 0.49253 0.79124 0.4058 0.0
C231 C 0.82276 0.6167 0.74225 0.0
C232 C 0.86174 0.63398 0.73944 0.0
N233 N 0.8738 0.66235 0.71516 0.0
N234 N 0.81024 0.63401 0.71978 0.0
C235 C 0.84199 0.66187 0.70389 0.0
H236 H 0.80459 0.59272 0.75921 0.0
Co237 Co 0.75973 0.62105 0.7125 0.0
C238 C 0.75466 0.63049 0.6343 0.0
O239 O 0.72028 0.60051 0.63505 0.0
N240 N 0.70829 0.609 0.70568 0.0
C241 C 0.66104 0.62053 0.69497 0.0
C242 C 0.69977 0.63572 0.69547 0.0
C243 C 0.67366 0.57753 0.71124 0.0
N244 N 0.64455 0.58388 0.70494 0.0
O245 O 0.77062 0.66851 0.7331 0.0
H246 H 0.72058 0.66476 0.68872 0.0
H247 H 0.66927 0.55055 0.72049 0.0
O248 O 0.77317 0.64289 0.66371 0.0
C249 C 0.76861 0.66462 0.76718 0.0
O250 O 0.7624 0.63214 0.78065 0.0
N251 N 0.74953 0.57321 0.6963 0.0
C252 C 0.74302 0.5024 0.68687 0.0
C253 C 0.7645 0.53206 0.6628 0.0
C254 C 0.76775 0.5675 0.66817 0.0
C255 C 0.73011 0.54499 0.72077 0.0
C256 C 0.72539 0.50897 0.71596 0.0
H257 H 0.78709 0.59077 0.6512 0.0
H258 H 0.7199 0.55108 0.74526 0.0
H259 H 0.84186 0.68168 0.68463 0.0
H260 H 0.87965 0.62563 0.75353 0.0
H261 H 0.64616 0.63527 0.68743 0.0
H262 H 0.77976 0.52825 0.64085 0.0
H263 H 0.71009 0.48714 0.73599 0.0
C264 C 0.22413 0.81828 0.08061 0.0
C265 C 0.24828 0.85668 0.07611 0.0
N266 N 0.23277 0.86955 0.05188 0.0
N267 N 0.19359 0.80683 0.05915 0.0
C268 C 0.19947 0.83873 0.04228 0.0
H269 H 0.22857 0.79985 0.09837 0.0
Co270 Co 0.15275 0.75734 0.05446 0.0
C271 C 0.13402 0.74865 0.97666 0.0
O272 O 0.12492 0.71287 0.97898 0.0
N273 N 0.11035 0.7071 0.05032 0.0
C274 C 0.04975 0.66168 0.04309 0.0
C275 C 0.07482 0.70011 0.04301 0.0
C276 C 0.10584 0.67193 0.05459 0.0
N277 N 0.06927 0.64392 0.05037 0.0
O278 O 0.11942 0.77294 0.07467 0.0
H279 H 0.06748 0.72168 0.03743 0.0
H280 H 0.12849 0.66646 0.06097 0.0
O281 O 0.14464 0.76938 1.00491 0.0
C282 C 0.1224 0.77274 0.10882 0.0
O283 O 0.14863 0.7665 0.12229 0.0
N284 N 0.18697 0.74229 0.03924 0.0
C285 C 0.24856 0.73051 0.03351 0.0
C286 C 0.23982 0.74784 1.00542 0.0
C287 C 0.20928 0.75425 1.00912 0.0
C288 C 0.19527 0.72549 0.06666 0.0
C289 C 0.22541 0.71868 0.06414 0.0
H290 H 0.20564 0.7712 0.98898 0.0
H291 H 0.17927 0.71889 0.09146 0.0
H292 H 0.17988 0.83924 0.02297 0.0
H293 H 0.27501 0.87379 0.08995 0.0
H294 H 0.01958 0.64787 0.03742 0.0
H295 H 0.25791 0.75862 0.9819 0.0
H296 H 0.2314 0.70556 0.08659 0.0
C297 C 0.40303 0.21164 0.4148 0.0
C298 C 0.39062 0.23738 0.41444 0.0
N299 N 0.36374 0.22694 0.38881 0.0
N300 N 0.38417 0.18503 0.38951 0.0
C301 C 0.36021 0.19491 0.37432 0.0
H302 H 0.42497 0.21262 0.43195 0.0
Co303 Co 0.39325 0.14569 0.37842 0.0
C304 C 0.37839 0.13257 0.30057 0.0
O305 O 0.40811 0.12797 0.29914 0.0
N306 N 0.40169 0.1047 0.3682 0.0
C307 C 0.38663 0.04559 0.35395 0.0
C308 C 0.37341 0.07051 0.35692 0.0
C309 C 0.43183 0.09936 0.37241 0.0
N310 N 0.42347 0.06369 0.36378 0.0
O311 O 0.34672 0.11026 0.40209 0.0
H312 H 0.34468 0.064 0.35122 0.0
H313 H 0.45918 0.12051 0.38258 0.0
O314 O 0.36782 0.13873 0.33109 0.0
C315 C 0.35484 0.1114 0.43539 0.0
O316 O 0.38994 0.13531 0.44545 0.0
N317 N 0.44063 0.18227 0.35958 0.0
C318 C 0.51122 0.24744 0.34904 0.0
C319 C 0.48041 0.23992 0.32689 0.0
C320 C 0.44515 0.20731 0.33282 0.0
C321 C 0.47022 0.19004 0.38192 0.0
C322 C 0.5061 0.22179 0.37644 0.0
H323 H 0.42107 0.20421 0.31782 0.0
H324 H 0.46528 0.17314 0.40587 0.0
H325 H 0.34137 0.1796 0.35231 0.0
H326 H 0.4008 0.26196 0.43169 0.0
H327 H 0.37028 0.01641 0.34503 0.0
H328 H 0.48313 0.25999 0.30632 0.0
H329 H 0.52886 0.22772 0.39512 0.0
C330 C 0.191 0.39083 0.73733 0.0
C331 C 0.15201 0.37466 0.73664 0.0
N332 N 0.13758 0.34462 0.71424 0.0
N333 N 0.20119 0.37134 0.71514 0.0
C334 C 0.16792 0.34283 0.70217 0.0
H335 H 0.21083 0.4166 0.75124 0.0
Co336 Co 0.25074 0.38687 0.69933 0.0
C337 C 0.23106 0.34098 0.63013 0.0
O338 O 0.25421 0.32765 0.6346 0.0
N339 N 0.30036 0.40288 0.68286 0.0
C340 C 0.35098 0.42613 0.64703 0.0
C341 C 0.31261 0.41274 0.64868 0.0
C342 C 0.33225 0.41165 0.70174 0.0
N343 N 0.36346 0.42561 0.68039 0.0
O344 O 0.24715 0.3419 0.71991 0.0
H345 H 0.29519 0.41211 0.62646 0.0
H346 H 0.33278 0.40891 0.73063 0.0
O347 O 0.22949 0.36289 0.65356 0.0
C348 C 0.25283 0.34909 0.75351 0.0
O349 O 0.25947 0.38246 0.76477 0.0
N350 N 0.25557 0.43225 0.68327 0.0
C351 C 0.26261 0.50311 0.67269 0.0
C352 C 0.23742 0.47186 0.65158 0.0
C353 C 0.23414 0.43641 0.65743 0.0
C354 C 0.28052 0.46231 0.70355 0.0
C355 C 0.28462 0.49801 0.69864 0.0
H356 H 0.2134 0.41226 0.64222 0.0
H357 H 0.29634 0.45812 0.72465 0.0
H358 H 0.16604 0.32269 0.68223 0.0
H359 H 0.13572 0.38524 0.75029 0.0
H360 H 0.36875 0.43747 0.62339 0.0
H361 H 0.21992 0.47457 0.63122 0.0
H362 H 0.30371 0.52098 0.71614 0.0
C363 C 0.80462 0.19285 0.0901 0.0
C364 C 0.78287 0.15383 0.09229 0.0
N365 N 0.79536 0.13877 0.06727 0.0
N366 N 0.83068 0.20232 0.0638 0.0
C367 C 0.82474 0.16882 0.05087 0.0
H368 H 0.80039 0.21304 0.10529 0.0
Co369 Co 0.86264 0.25103 0.04545 0.0
C370 C 0.89025 0.23073 0.97984 0.0
O371 O 0.92604 0.25193 0.98938 0.0
N372 N 0.89451 0.29998 0.02681 0.0
C373 C 0.92043 0.3494 0.98956 0.0
C374 C 0.89535 0.3111 0.99246 0.0
C375 C 0.91877 0.3323 0.04447 0.0
N376 N 0.93512 0.36282 0.02229 0.0
O377 O 0.90585 0.24956 0.06364 0.0
H378 H 0.87776 0.29282 0.971 0.0
H379 H 0.92373 0.33356 0.07314 0.0
O380 O 0.86399 0.22892 0.99984 0.0
C381 C 0.90784 0.25685 0.09715 0.0
O382 O 0.88242 0.26408 0.111 0.0
N383 N 0.8201 0.25333 0.03109 0.0
C384 C 0.75214 0.25379 0.02483 0.0
C385 C 0.75743 0.22674 1.00635 0.0
C386 C 0.79176 0.22699 1.00983 0.0
C387 C 0.8159 0.28039 0.04839 0.0
C388 C 0.78243 0.28152 0.04519 0.0
H389 H 0.7946 0.20469 0.99723 0.0
H390 H 0.83819 0.30036 0.06596 0.0
H391 H 0.84084 0.16641 0.02897 0.0
H392 H 0.75833 0.13795 0.10947 0.0
H393 H 0.92601 0.36642 0.96552 0.0
H394 H 0.73469 0.20442 0.9908 0.0
H395 H 0.78002 0.3034 0.05938 0.0
H396 H 0.91085 0.2619 0.16967 0.0
H397 H 0.97357 0.25713 0.07809 0.0
H398 H 0.96346 0.27519 0.20867 0.0
H399 H 0.02661 0.2693 0.11784 0.0
H400 H 0.126 0.36041 0.18848 0.0
H401 H 0.07311 0.32436 0.14826 0.0
H402 H 1.00403 0.25812 0.23815 0.0
H403 H 0.05704 0.29578 0.27892 0.0
C404 C 0.93573 0.26298 0.15789 0.0
C405 C 0.93833 0.25922 0.12061 0.0
C406 C 0.96588 0.2701 0.1805 0.0
C407 C 0.99955 0.27354 0.16655 0.0
C408 C 1.00129 0.26737 0.12946 0.0
C409 C 0.97091 0.26026 0.10667 0.0
C410 C 0.09977 0.33767 0.19968 0.0
C411 C 0.0954 0.33157 0.23702 0.0
C412 C 0.06941 0.31662 0.17644 0.0
C413 C 0.03392 0.28872 0.18991 0.0
C414 C 0.03071 0.28005 0.22694 0.0
C415 C 0.06116 0.30139 0.25032 0.0
H416 H 0.72755 0.97439 0.41903 0.0
H417 H 0.66977 0.8969 0.50676 0.0
H418 H 0.76072 0.02619 0.46212 0.0
H419 H 0.70133 0.94837 0.54941 0.0
H420 H 0.7617 0.04653 0.62389 0.0
H421 H 0.75404 0.99745 0.581 0.0
H422 H 0.73708 0.05928 0.49543 0.0
H423 H 0.74575 0.10799 0.53744 0.0
C424 C 0.72267 0.96821 0.44749 0.0
C425 C 0.69554 0.93174 0.45944 0.0
C426 C 0.74135 0.99794 0.47224 0.0
C427 C 0.73308 0.99174 0.50932 0.0
C428 C 0.70864 0.95442 0.52125 0.0
C429 C 0.6902 0.92484 0.49663 0.0
C430 C 0.757 0.04978 0.59579 0.0
C431 C 0.75374 0.08084 0.58424 0.0
C432 C 0.75249 0.02166 0.57119 0.0
C433 C 0.74477 0.0242 0.53461 0.0
C434 C 0.74357 0.0564 0.52307 0.0
C435 C 0.74802 0.08424 0.54746 0.0
H436 H 0.65629 0.7644 0.86488 0.0
H437 H 0.72638 0.76702 0.95325 0.0
H438 H 0.69409 0.75153 0.82347 0.0
H439 H 0.76589 0.7558 0.91118 0.0
H440 H 0.77102 0.6649 0.83996 0.0
H441 H 0.75544 0.70108 0.88074 0.0
H442 H 0.74918 0.76553 0.79121 0.0
H443 H 0.76319 0.72753 0.74984 0.0
C444 C 0.6805 0.76321 0.87539 0.0
C445 C 0.6878 0.76589 0.91252 0.0
C446 C 0.7026 0.75623 0.85142 0.0
C447 C 0.73289 0.75203 0.86384 0.0
C448 C 0.74224 0.758 0.9007 0.0
C449 C 0.71981 0.76472 0.92484 0.0
C450 C 0.76694 0.68719 0.82888 0.0
C451 C 0.76751 0.69276 0.79154 0.0
C452 C 0.75839 0.70839 0.85248 0.0
C453 C 0.75044 0.73603 0.83942 0.0
C454 C 0.75428 0.74388 0.80221 0.0
C455 C 0.76262 0.72235 0.77846 0.0
H456 H 0.12626 0.77843 0.18149 0.0
H457 H 0.05228 0.76365 0.09218 0.0
H458 H 0.07402 0.75986 0.22299 0.0
H459 H 0.99986 0.74674 0.13416 0.0
H460 H 0.91205 0.65042 0.20672 0.0
H461 H 0.96284 0.69018 0.1661 0.0
H462 H 0.026 0.76458 0.25411 0.0
H463 H 0.9748 0.72315 0.29564 0.0
C464 C 0.099 0.77231 0.17075 0.0
C465 C 0.09319 0.7716 0.13342 0.0
C466 C 0.06896 0.76196 0.19474 0.0
C467 C 0.03231 0.75091 0.18206 0.0
C468 C 0.02747 0.75406 0.14488 0.0
C469 C 0.05759 0.76413 0.12075 0.0
C470 C 0.93654 0.67544 0.21758 0.0
C471 C 0.93965 0.68318 0.25463 0.0
C472 C 0.96564 0.69873 0.19398 0.0
C473 C 0.99883 0.73074 0.20659 0.0
C474 C 1.00109 0.73985 0.24346 0.0
C475 C 0.97174 0.71626 0.26729 0.0
H476 H 0.36262 0.11662 0.50775 0.0
H477 H 0.2869 0.04481 0.42428 0.0
H478 H 0.32825 0.06729 0.55179 0.0
H479 H 0.25092 0.99537 0.46909 0.0
H480 H 0.2548 0.90334 0.53962 0.0
H481 H 0.26608 0.95365 0.4984 0.0
H482 H 0.27568 0.0256 0.58785 0.0
H483 H 0.26555 0.97467 0.62974 0.0
C484 C 0.33789 0.09052 0.49892 0.0
C485 C 0.32805 0.08426 0.46231 0.0
C486 C 0.31778 0.06225 0.52444 0.0
C487 C 0.28706 0.0269 0.51412 0.0
C488 C 0.275 0.02194 0.47793 0.0
C489 C 0.29539 0.05033 0.45222 0.0
C490 C 0.25879 0.92969 0.55065 0.0
C491 C 0.26016 0.93535 0.58802 0.0
C492 C 0.26476 0.95855 0.52681 0.0
C493 C 0.27223 0.99406 0.53957 0.0
C494 C 0.27068 0.99881 0.57704 0.0
C495 C 0.26464 0.96964 0.60109 0.0
H496 H 0.24501 0.35047 0.82548 0.0
H497 H 0.26539 0.28928 0.74211 0.0
H498 H 0.26087 0.31832 0.87097 0.0
H499 H 0.28021 0.25558 0.78821 0.0
H500 H 0.36962 0.26566 0.87167 0.0
H501 H 0.33432 0.2763 0.82559 0.0
H502 H 0.25101 0.26437 0.90455 0.0
H503 H 0.28767 0.25472 0.95159 0.0
C504 C 0.25207 0.32937 0.81687 0.0
C505 C 0.25473 0.323 0.78011 0.0
C506 C 0.26077 0.31051 0.84315 0.0
C507 C 0.27237 0.28462 0.83346 0.0
C508 C 0.27208 0.27593 0.79667 0.0
C509 C 0.26333 0.29496 0.7702 0.0
C510 C 0.34358 0.26492 0.87938 0.0
C511 C 0.33188 0.26009 0.91554 0.0
C512 C 0.32292 0.27051 0.85264 0.0
C513 C 0.28977 0.27141 0.86113 0.0
C514 C 0.27673 0.26438 0.89707 0.0
C515 C 0.29758 0.2587 0.92405 0.0
H516 H 0.16239 0.33422 0.40427 0.0
H517 H 0.13597 0.40922 0.46331 0.0
H518 H 0.17873 0.31479 0.46054 0.0
H519 H 0.15341 0.39111 0.51884 0.0
H520 H 0.16497 0.34085 0.61904 0.0
H521 H 0.13761 0.34428 0.56217 0.0
H522 H 0.2271 0.33819 0.50536 0.0
H523 H 0.25331 0.33274 0.56272 0.0
C524 C 0.15982 0.34639 0.42919 0.0
C525 C 0.14794 0.3734 0.42912 0.0
C526 C 0.16946 0.33545 0.4615 0.0
C527 C 0.16751 0.35131 0.4945 0.0
C528 C 0.15463 0.37755 0.49429 0.0
C529 C 0.14481 0.38823 0.46219 0.0
C530 C 0.17837 0.33944 0.5944 0.0
C531 C 0.21144 0.33673 0.5954 0.0
C532 C 0.16289 0.34181 0.56167 0.0
C533 C 0.18053 0.34243 0.52892 0.0
C534 C 0.2125 0.3376 0.52988 0.0
C535 C 0.22763 0.33453 0.5628 0.0
H536 H 0.88084 0.17298 0.75254 0.0
H537 H 0.77158 0.15917 0.77969 0.0
H538 H 0.8975 0.17893 0.8161 0.0
H539 H 0.78845 0.16678 0.84297 0.0
H540 H 0.93548 0.24953 0.92018 0.0
H541 H 0.91613 0.22643 0.85921 0.0
H542 H 0.80249 0.14753 0.8972 0.0
H543 H 0.82166 0.17208 0.95791 0.0
C544 C 0.86002 0.17033 0.77227 0.0
C545 C 0.82473 0.16517 0.7612 0.0
C546 C 0.86973 0.17428 0.8087 0.0
C547 C 0.84469 0.17408 0.83493 0.0
C548 C 0.80842 0.16663 0.82384 0.0
C549 C 0.79851 0.16205 0.78739 0.0
C550 C 0.90653 0.22688 0.91556 0.0
C551 C 0.88003 0.21296 0.9438 0.0
C552 C 0.89536 0.21337 0.88053 0.0
C553 C 0.85752 0.18513 0.87293 0.0
C554 C 0.8316 0.16984 0.90169 0.0
C555 C 0.84265 0.18376 0.93661 0.0
H556 H 0.67543 0.84266 0.29279 0.0
H557 H 0.63189 0.90202 0.23074 0.0
H558 H 0.68394 0.81524 0.23782 0.0
H559 H 0.64008 0.87446 0.17585 0.0
H560 H 0.62775 0.72991 0.14171 0.0
H561 H 0.63839 0.76659 0.19645 0.0
H562 H 0.68379 0.86958 0.13361 0.0
H563 H 0.67287 0.83277 0.07884 0.0
C564 C 0.66842 0.85052 0.26744 0.0
C565 C 0.65263 0.87429 0.26636 0.0
C566 C 0.67303 0.83455 0.23588 0.0
C567 C 0.66232 0.84229 0.20239 0.0
C568 C 0.64889 0.86804 0.20109 0.0
C569 C 0.64402 0.88375 0.23267 0.0
C570 C 0.64072 0.76047 0.13953 0.0
C571 C 0.649 0.77827 0.10567 0.0
C572 C 0.647 0.78158 0.17103 0.0
C573 C 0.66158 0.82105 0.16947 0.0
C574 C 0.67199 0.83916 0.13577 0.0
C575 C 0.66594 0.81805 0.1043 0.0
H576 H 0.82842 0.68744 0.6207 0.0
H577 H 0.72621 0.60218 0.56809 0.0
H578 H 0.86245 0.70214 0.56344 0.0
H579 H 0.76011 0.61544 0.51183 0.0
H580 H 0.91952 0.67791 0.46596 0.0
H581 H 0.88853 0.67692 0.52257 0.0
H582 H 0.78802 0.65598 0.46388 0.0
H583 H 0.81807 0.65441 0.40813 0.0
C584 C 0.8131 0.67207 0.59694 0.0
C585 C 0.77454 0.64353 0.59915 0.0
C586 C 0.83272 0.68026 0.56409 0.0
C587 C 0.81426 0.65999 0.53271 0.0
C588 C 0.77537 0.63234 0.53496 0.0
C589 C 0.75581 0.62446 0.56754 0.0
C590 C 0.89099 0.6736 0.46526 0.0
C591 C 0.87113 0.66593 0.43261 0.0
C592 C 0.87319 0.67319 0.49773 0.0
C593 C 0.83535 0.66572 0.49813 0.0
C594 C 0.81666 0.66064 0.46501 0.0
C595 C 0.83407 0.66019 0.43284 0.0
H596 H 0.17548 0.82428 0.95706 0.0
H597 H 0.10487 0.71167 0.91377 0.0
H598 H 0.19002 0.85027 0.8959 0.0
H599 H 0.11986 0.73714 0.85333 0.0
H600 H 0.24702 0.86336 0.78088 0.0
H601 H 0.22687 0.84979 0.84388 0.0
H602 H 0.11117 0.77433 0.80951 0.0
H603 H 0.13167 0.78667 0.74714 0.0
C604 C 0.16251 0.80517 0.9346 0.0
C605 C 0.13895 0.76585 0.94037 0.0
C606 C 0.17116 0.82002 0.89952 0.0
C607 C 0.15615 0.79591 0.86951 0.0
C608 C 0.13151 0.75683 0.87558 0.0
C609 C 0.12305 0.74207 0.91041 0.0
C610 C 0.21716 0.84477 0.78692 0.0
C611 C 0.19096 0.82589 0.75913 0.0
C612 C 0.20554 0.8369 0.82304 0.0
C613 C 0.16746 0.81027 0.83189 0.0
C614 C 0.14088 0.79413 0.80383 0.0
C615 C 0.15255 0.80151 0.768 0.0
H616 H 0.32936 0.24597 0.12998 0.0
H617 H 0.33781 0.15747 0.07485 0.0
H618 H 0.33136 0.21846 0.18774 0.0
H619 H 0.33748 0.12859 0.13211 0.0
H620 H 0.32471 0.15443 0.29002 0.0
H621 H 0.30665 0.17086 0.23288 0.0
H622 H 0.38169 0.14195 0.17676 0.0
H623 H 0.3981 0.12425 0.23288 0.0
C624 C 0.33042 0.21994 0.1302 0.0
C625 C 0.33379 0.2041 0.09785 0.0
C626 C 0.33148 0.20402 0.16338 0.0
C627 C 0.33536 0.17155 0.16492 0.0
C628 C 0.33576 0.15425 0.13229 0.0
C629 C 0.33553 0.17058 0.09929 0.0
C630 C 0.33671 0.15093 0.26535 0.0
C631 C 0.363 0.13812 0.26622 0.0
C632 C 0.32663 0.16069 0.23254 0.0
C633 C 0.34266 0.1579 0.19986 0.0
C634 C 0.36796 0.14388 0.20094 0.0
C635 C 0.37773 0.13395 0.23346 0.0
H636 H 0.99441 0.58056 0.39628 0.0
H637 H 0.93907 0.54192 0.29358 0.0
H638 H 0.03062 0.54862 0.3855 0.0
H639 H 0.97559 0.51007 0.2825 0.0
H640 H 1.00258 0.41335 0.30796 0.0
H641 H 0.97376 0.45326 0.31021 0.0
H642 H 0.08031 0.54752 0.34688 0.0
H643 H 0.10908 0.50722 0.34494 0.0
C644 C 0.99038 0.56561 0.37118 0.0
C645 C 0.96372 0.56354 0.34589 0.0
C646 C 0.01134 0.54755 0.36486 0.0
C647 C 1.00587 0.52662 0.33322 0.0
C648 C 0.98022 0.52571 0.30728 0.0
C649 C 0.95955 0.54421 0.31345 0.0
C650 C 0.01989 0.44262 0.31638 0.0
C651 C 0.05802 0.45703 0.32657 0.0
C652 C 1.0035 0.46563 0.31729 0.0
C653 C 0.02471 0.50358 0.32875 0.0
C654 C 0.06315 0.51832 0.33813 0.0
C655 C 0.07971 0.49536 0.3368 0.0
H656 H 0.61031 0.06366 0.63015 0.0
H657 H 0.60055 0.02869 0.74107 0.0
H658 H 0.54159 0.02189 0.62274 0.0
H659 H 0.53252 0.98932 0.73453 0.0
H660 H 0.41298 0.90261 0.71517 0.0
H661 H 0.48228 0.93434 0.71161 0.0
H662 H 0.4826 0.01696 0.63821 0.0
H663 H 0.41281 0.98321 0.64057 0.0
C664 C 0.59367 0.04694 0.65287 0.0
C665 C 0.61114 0.04999 0.68633 0.0
C666 C 0.55411 0.02327 0.64877 0.0
C667 C 0.53106 1.00206 0.67802 0.0
C668 C 0.54895 0.00448 0.71108 0.0
C669 C 0.58823 0.02775 0.71506 0.0
C670 C 0.42807 0.92704 0.69769 0.0
C671 C 0.40791 0.94053 0.67808 0.0
C672 C 0.4678 0.94561 0.69589 0.0
C673 C 0.48851 0.97891 0.67518 0.0
C674 C 0.46792 0.99134 0.65424 0.0
C675 C 0.42797 0.97217 0.65557 0.0
H676 H 0.46811 0.39747 0.96594 0.0
H677 H 0.42759 0.41296 0.06806 0.0
H678 H 0.50313 0.46635 0.95667 0.0
H679 H 0.4629 0.48166 0.05917 0.0
H680 H 0.51057 0.60364 0.02132 0.0
H681 H 0.46801 0.53467 0.02207 0.0
H682 H 0.56018 0.51947 0.98542 0.0
H683 H 0.60234 0.58817 0.98412 0.0
C684 C 0.46614 0.41553 0.98609 0.0
C685 C 0.44527 0.3998 1.01784 0.0
C686 C 0.48648 0.45499 0.98097 0.0
C687 C 0.48603 0.47954 1.0073 0.0
C688 C 0.46369 0.46362 0.03825 0.0
C689 C 0.44371 0.42427 0.0435 0.0
C690 C 0.52154 0.58556 1.01295 0.0
C691 C 0.55992 0.6014 1.00291 0.0
C692 C 0.49726 0.54606 1.01362 0.0
C693 C 0.5107 0.52154 1.00386 0.0
C694 C 0.54877 0.53749 0.99277 0.0
C695 C 0.57309 0.57689 0.99244 0.0
H696 H 0.60161 0.0108 0.3243 0.0
H697 H 0.53156 0.92903 0.405 0.0
H698 H 0.56024 0.03783 0.3251 0.0
H699 H 0.49017 0.95628 0.40607 0.0
H700 H 0.40272 0.98928 0.37083 0.0
H701 H 0.444 0.9622 0.37079 0.0
H702 H 0.54232 0.07477 0.3617 0.0
H703 H 0.50083 0.10178 0.36009 0.0
C704 C 0.57757 0.99877 0.34249 0.0
C705 C 0.57006 0.96775 0.36467 0.0
C706 C 0.55382 0.01437 0.34301 0.0
C707 C 0.52188 0.99945 0.36579 0.0
C708 C 0.51421 0.96824 0.38783 0.0
C709 C 0.53795 0.95256 0.38723 0.0
C710 C 0.43309 0.00833 0.36848 0.0
C711 C 0.44828 0.04782 0.36523 0.0
C712 C 0.45687 0.99276 0.36893 0.0
C713 C 0.49658 0.0162 0.36621 0.0
C714 C 0.51185 0.05574 0.36338 0.0
C715 C 0.48804 0.07133 0.3629 0.0
H716 H 0.58983 0.59986 0.72355 0.0
H717 H 0.60749 0.50784 0.69278 0.0
H718 H 0.52119 0.55674 0.72302 0.0
H719 H 0.53854 0.4643 0.69279 0.0
H720 H 0.41791 0.42204 0.64236 0.0
H721 H 0.48625 0.457 0.65362 0.0
H722 H 0.46716 0.50076 0.7522 0.0
H723 H 0.39846 0.46584 0.74049 0.0
C724 C 0.57903 0.57031 0.71691 0.0
C725 C 0.60415 0.55739 0.70782 0.0
C726 C 0.53965 0.54546 0.71705 0.0
C727 C 0.52428 0.50703 0.70781 0.0
C728 C 0.54944 0.4938 0.69979 0.0
C729 C 0.58894 0.51865 0.70001 0.0
C730 C 0.4283 0.43872 0.66668 0.0
C731 C 0.40287 0.44143 0.69039 0.0
C732 C 0.46746 0.45854 0.6733 0.0
C733 C 0.48228 0.48191 0.70371 0.0
C734 C 0.45669 0.48329 0.72834 0.0
C735 C 0.41734 0.46304 0.72186 0.0
H736 H 0.99032 0.41678 0.98073 0.0
H737 H 0.93567 0.39844 0.08408 0.0
H738 H 0.0265 0.48495 0.99212 0.0
H739 H 0.97236 0.46685 0.09587 0.0
H740 H 0.99891 0.59085 0.07257 0.0
H741 H 0.97044 0.52202 0.07012 0.0
H742 H 0.07623 0.53577 0.02981 0.0
H743 H 0.10454 0.6049 0.03176 0.0
C744 C 0.98641 0.42734 1.0061 0.0
C745 C 0.95989 0.40227 0.03136 0.0
C746 C 0.00741 0.46638 1.01279 0.0
C747 C 1.0022 0.48141 0.04483 0.0
C748 C 0.97676 0.45619 0.07077 0.0
C749 C 0.95599 0.41699 0.06419 0.0
C750 C 0.01614 0.57919 0.06333 0.0
C751 C 0.05387 0.60335 0.05204 0.0
C752 C 0.99996 0.53972 0.06231 0.0
C753 C 0.02101 0.52335 0.0497 0.0
C754 C 0.05916 0.5475 0.03942 0.0
C755 C 0.07548 0.58708 0.04078 0.0
H756 H 0.2027 0.30153 0.33852 0.0
H757 H 0.31239 0.3939 0.30524 0.0
H758 H 0.23266 0.2657 0.35821 0.0
H759 H 0.34197 0.35754 0.32354 0.0
H760 H 0.38876 0.30203 0.39724 0.0
H761 H 0.35714 0.33626 0.37846 0.0
H762 H 0.2644 0.23267 0.33488 0.0
H763 H 0.29541 0.19794 0.35502 0.0
C764 C 0.23315 0.31424 0.33535 0.0
C765 C 0.25507 0.35075 0.32033 0.0
C766 C 0.25027 0.29348 0.34628 0.0
C767 C 0.28974 0.30877 0.34255 0.0
C768 C 0.31157 0.34509 0.32724 0.0
C769 C 0.29448 0.36579 0.31631 0.0
C770 C 0.36141 0.28633 0.3841 0.0
C771 C 0.34467 0.2471 0.37778 0.0
C772 C 0.34348 0.30613 0.37288 0.0
C773 C 0.30831 0.28729 0.35496 0.0
C774 C 0.29134 0.24801 0.34884 0.0
C775 C 0.30933 0.22816 0.36006 0.0
H776 H 0.93125 0.2784 0.59575 0.0
H777 H 0.90025 0.18529 0.66978 0.0
H778 H 0.99701 0.30761 0.61587 0.0
H779 H 0.96619 0.21419 0.68883 0.0
H780 H 0.09927 0.27093 0.69319 0.0
H781 H 0.03509 0.23635 0.66719 0.0
H782 H 0.02566 0.33677 0.67734 0.0
H783 H 0.08933 0.37105 0.70326 0.0
C784 C 0.93828 0.26383 0.61596 0.0
C785 C 0.90976 0.2298 0.63163 0.0
C786 C 0.97608 0.28063 0.62744 0.0
C787 C 0.98658 0.26352 0.65438 0.0
C788 C 0.95891 0.22807 0.66804 0.0
C789 C 0.92094 0.21144 0.65691 0.0
C790 C 0.08335 0.28547 0.68989 0.0
C791 C 0.09923 0.32361 0.70052 0.0
C792 C 0.04668 0.26571 0.6751 0.0
C793 C 0.02552 0.28397 0.66997 0.0
C794 C 0.04146 0.32208 0.68058 0.0
C795 C 0.07774 0.34157 0.69587 0.0
H796 H 0.75283 0.07664 0.10876 0.0
H797 H 0.79673 0.11134 1.00113 0.0
H798 H 0.7189 0.0104 0.08944 0.0
H799 H 0.76412 0.04533 0.98225 0.0
H800 H 0.66237 0.92942 0.95175 0.0
H801 H 0.699 0.99523 0.97154 0.0
H802 H 0.72874 0.95896 0.06927 0.0
H803 H 0.69104 0.89309 0.05002 0.0
C804 C 0.75547 0.07016 0.08109 0.0
C805 C 0.77753 0.09942 0.05658 0.0
C806 C 0.73633 0.03217 0.07007 0.0
C807 C 0.73869 0.02257 0.03425 0.0
C808 C 0.76131 0.05176 1.00993 0.0
C809 C 0.78048 0.08968 0.02094 0.0
C810 C 0.67655 0.93543 0.97752 0.0
C811 C 0.67364 0.90585 0.99927 0.0
C812 C 0.69792 0.97322 0.98871 0.0
C813 C 0.71685 0.98239 0.022 0.0
C814 C 0.71423 0.95287 0.04363 0.0
C815 C 0.69295 0.91507 0.03238 0.0
H816 H 0.75152 0.67446 0.26581 0.0
H817 H 0.8042 0.6943 0.37043 0.0
H818 H 0.71869 0.7079 0.28459 0.0
H819 H 0.7723 0.72829 0.38871 0.0
H820 H 0.67148 0.74229 0.42275 0.0
H821 H 0.70691 0.71203 0.40274 0.0
H822 H 0.73005 0.77148 0.30138 0.0
H823 H 0.69382 0.801 0.32112 0.0
C824 C 0.75629 0.68603 0.2927 0.0
C825 C 0.78042 0.68133 0.31658 0.0
C826 C 0.73772 0.7055 0.30337 0.0
C827 C 0.74267 0.72054 0.33825 0.0
C828 C 0.76743 0.7166 0.36182 0.0
C829 C 0.78611 0.69737 0.35112 0.0
C830 C 0.684 0.74881 0.39617 0.0
C831 C 0.67977 0.77411 0.37358 0.0
C832 C 0.70463 0.73175 0.3848 0.0
C833 C 0.72138 0.73938 0.35045 0.0
C834 C 0.71728 0.76477 0.32788 0.0
C835 C 0.69684 0.78204 0.33936 0.0
H836 H 0.11746 0.81511 0.69305 0.0
H837 H 0.08058 0.75711 0.59118 0.0
H838 H 0.05163 0.78585 0.71264 0.0
H839 H 0.01462 0.72689 0.61127 0.0
H840 H 0.89641 0.69652 0.64987 0.0
H841 H 0.96162 0.73576 0.62827 0.0
H842 H 1.00382 0.72175 0.73027 0.0
H843 H 0.93881 0.68362 0.75216 0.0
C844 C 0.0954 0.79662 0.67453 0.0
C845 C 0.10457 0.7882 0.64059 0.0
C846 C 0.05755 0.77945 0.68599 0.0
C847 C 0.02782 0.75356 0.66376 0.0
C848 C 0.03677 0.74675 0.62908 0.0
C849 C 0.07466 0.76384 0.61766 0.0
C850 C 0.9196 0.70232 0.66788 0.0
C851 C 0.91232 0.68682 0.70277 0.0
C852 C 0.957 0.72452 0.65536 0.0
C853 C 0.98801 0.73194 0.67751 0.0
C854 C 0.98068 0.71704 0.71262 0.0
C855 C 0.94335 0.69474 0.72505 0.0
H856 H 0.2844 0.09875 1.00199 0.0
H857 H 0.37664 0.09001 0.95452 0.0
H858 H 0.25447 0.03262 0.02116 0.0
H859 H 0.34596 0.02367 0.97234 0.0
H860 H 0.30742 0.92393 0.04979 0.0
H861 H 0.33476 0.98871 0.02789 0.0
H862 H 0.22255 0.96714 0.99987 0.0
H863 H 0.19495 0.90257 0.02315 0.0
C864 C 0.2982 0.08274 0.99539 0.0
C865 C 0.33316 0.1 0.97689 0.0
C866 C 0.28081 0.04466 1.00607 0.0
C867 C 0.29794 0.02287 0.99853 0.0
C868 C 0.33227 0.03977 0.97909 0.0
C869 C 0.34964 0.0778 0.96842 0.0
C870 C 0.28845 0.933 0.03932 0.0
C871 C 0.2489 0.90791 0.03842 0.0
C872 C 0.30422 0.97008 0.02628 0.0
C873 C 0.28089 0.98313 1.01193 0.0
C874 C 0.24132 0.95811 1.01098 0.0
C875 C 0.22552 0.92092 0.02401 0.0
H876 H 0.46739 0.72073 0.40714 0.0
H877 H 0.45404 0.74668 0.29748 0.0
H878 H 0.40646 0.66192 0.40409 0.0
H879 H 0.3922 0.68828 0.29459 0.0
H880 H 0.30672 0.56101 0.2889 0.0
H881 H 0.36576 0.62169 0.292 0.0
H882 H 0.33975 0.63566 0.40167 0.0
H883 H 0.2811 0.57404 0.39872 0.0
C884 C 0.45101 0.71408 0.38254 0.0
C885 C 0.46529 0.73826 0.35256 0.0
C886 C 0.41599 0.68042 0.38082 0.0
C887 C 0.39424 0.67031 0.34914 0.0
C888 C 0.40842 0.69485 0.31925 0.0
C889 C 0.44373 0.72835 0.32087 0.0
C890 C 0.3135 0.57728 0.31354 0.0
C891 C 0.28933 0.56298 0.34355 0.0
C892 C 0.34728 0.61215 0.3153 0.0
C893 C 0.35756 0.63375 0.34703 0.0
C894 C 0.33305 0.61955 0.37696 0.0
C895 C 0.29941 0.58438 0.3753 0.0
H896 H 0.80345 0.49159 0.68965 0.0
H897 H 0.68114 0.4317 0.67943 0.0
H898 H 0.80233 0.43079 0.69035 0.0
H899 H 0.68018 0.37085 0.67895 0.0
H900 H 0.72229 0.28637 0.63098 0.0
H901 H 0.71965 0.34473 0.63135 0.0
H902 H 0.76179 0.36706 0.74004 0.0
H903 H 0.76206 0.30727 0.74112 0.0
C904 C 0.77647 0.46538 0.68702 0.0
C905 C 0.74239 0.46602 0.68425 0.0
C906 C 0.77582 0.4308 0.68769 0.0
C907 C 0.74117 0.39649 0.68483 0.0
C908 C 0.70716 0.39712 0.68119 0.0
C909 C 0.70771 0.4317 0.68139 0.0
C910 C 0.73002 0.30293 0.65544 0.0
C911 C 0.74224 0.29168 0.68613 0.0
C912 C 0.72881 0.33655 0.65539 0.0
C913 C 0.74064 0.36011 0.68564 0.0
C914 C 0.75279 0.34923 0.71633 0.0
C915 C 0.75317 0.31513 0.71676 0.0
H916 H 0.48192 0.78462 0.05062 0.0
H917 H 0.4256 0.67146 1.00558 0.0
H918 H 0.42128 0.78275 0.05349 0.0
H919 H 0.36491 0.67013 1.00772 0.0
H920 H 0.27619 0.70694 0.97822 0.0
H921 H 0.33551 0.70512 0.97715 0.0
H922 H 0.35926 0.74726 0.08605 0.0
H923 H 0.30065 0.74964 0.08693 0.0
C924 C 0.45656 0.75906 0.0419 0.0
C925 C 0.45867 0.72809 0.02805 0.0
C926 C 0.42183 0.75812 0.04335 0.0
C927 C 0.38845 0.72633 0.03074 0.0
C928 C 0.39033 0.69519 1.0172 0.0
C929 C 0.42506 0.69598 1.01602 0.0
C930 C 0.29416 0.71576 1.00185 0.0
C931 C 0.28374 0.72821 0.0327 0.0
C932 C 0.32786 0.71444 1.00136 0.0
C933 C 0.35191 0.72602 0.03155 0.0
C934 C 0.34139 0.73838 0.06235 0.0
C935 C 0.30766 0.73939 0.06295 0.0
H936 H 0.58265 0.25907 0.33915 0.0
H937 H 0.52039 0.31785 0.35516 0.0
H938 H 0.6427 0.32018 0.33925 0.0
H939 H 0.58041 0.37878 0.35625 0.0
H940 H 0.70302 0.46648 0.40331 0.0
H941 H 0.64284 0.40614 0.4018 0.0
H942 H 0.6696 0.3838 0.29579 0.0
H943 H 0.72839 0.44483 0.29588 0.0
C944 C 0.58195 0.28512 0.3425 0.0
C945 C 0.54716 0.28406 0.34678 0.0
C946 C 0.61609 0.31987 0.34261 0.0
C947 C 0.6159 0.35389 0.34794 0.0
C948 C 0.58112 0.3528 0.3523 0.0
C949 C 0.54695 0.31815 0.35136 0.0
C950 C 0.69598 0.44909 0.37943 0.0
C951 C 0.72096 0.46069 0.34984 0.0
C952 C 0.66163 0.41448 0.37872 0.0
C953 C 0.65197 0.39051 0.34876 0.0
C954 C 0.6768 0.40172 0.31935 0.0
C955 C 0.71067 0.4366 0.31967 0.0
H956 H 0.2324 0.69574 0.62642 0.0
H957 H 0.30769 0.73063 0.71805 0.0
H958 H 0.23085 0.63521 0.62508 0.0
H959 H 0.30559 0.66949 0.71711 0.0
H960 H 0.32563 0.5742 0.67614 0.0
H961 H 0.32775 0.63511 0.6766 0.0
H962 H 0.20579 0.57709 0.66291 0.0
H963 H 0.20346 0.51612 0.66307 0.0
C964 C 0.24872 0.69046 0.64621 0.0
C965 C 0.27039 0.71796 0.6722 0.0
C966 C 0.24754 0.65569 0.64563 0.0
C967 C 0.26813 0.64769 0.67093 0.0
C968 C 0.28973 0.6751 0.69705 0.0
C969 C 0.29069 0.70989 0.69781 0.0
C970 C 0.29924 0.57442 0.67332 0.0
C971 C 0.26436 0.54028 0.66962 0.0
C972 C 0.30049 0.60928 0.67367 0.0
C973 C 0.26693 0.61078 0.67002 0.0
C974 C 0.23216 0.57678 0.66545 0.0
C975 C 0.23087 0.54188 0.66534 0.0
H976 H 0.55539 0.27241 0.96943 0.0
H977 H 0.5327 0.23123 0.07896 0.0
H978 H 0.6145 0.27165 0.97021 0.0
H979 H 0.59076 0.22776 0.0788 0.0
H980 H 0.71743 0.26818 0.08065 0.0
H981 H 0.65753 0.26754 0.08027 0.0
H982 H 0.64014 0.2312 0.96934 0.0
H983 H 0.70162 0.23465 0.96893 0.0
C984 C 0.56302 0.26326 0.99378 0.0
C985 C 0.53945 0.25244 0.02436 0.0
C986 C 0.59668 0.26213 0.99396 0.0
C987 C 0.60748 0.24957 0.02452 0.0
C988 C 0.58363 0.23811 0.05494 0.0
C989 C 0.55007 0.23967 0.05491 0.0
C990 C 0.70122 0.2607 0.05593 0.0
C991 C 0.71473 0.25202 0.02464 0.0
C992 C 0.66642 0.25964 0.05593 0.0
C993 C 0.6439 0.24934 0.02479 0.0
C994 C 0.657 0.23986 0.99367 0.0
C995 C 0.69208 0.24136 0.99355 0.0
loop_
_geom_bond_atom_site_label_1
_geom_bond_atom_site_label_2
_geom_bond_distance
_geom_bond_site_symmetry_2
_ccdc_geom_bond_type
C0 C1 1.351 . S
C0 N3 1.368 . S
C0 H5 0.931 . S
C1 C0 1.351 . S
C1 N2 1.373 . S
C1 H29 0.930 . S
N2 C1 1.373 . S
N2 C4 1.340 . S
N3 C0 1.368 . S
N3 C4 1.321 . S
N3 Co6 2.135 . S
C4 N2 1.340 . S
C4 N3 1.321 . S
C4 H28 0.930 . S
H5 C0 0.931 . S
Co6 N3 2.135 . S
Co6 N9 2.121 . S
Co6 O14 2.055 . S
Co6 O17 2.039 . S
Co6 N20 2.140 . S
C7 O8 1.227 . S
C7 O17 1.265 . S
O8 C7 1.227 . S
N9 Co6 2.121 . S
N9 C11 1.375 . S
N9 C12 1.313 . S
C10 C11 1.338 . S
C10 N13 1.377 . S
C10 H30 0.930 . S
C11 N9 1.375 . S
C11 C10 1.338 . S
C11 H15 0.931 . S
C12 N9 1.313 . S
C12 N13 1.344 . S
C12 H16 0.930 . S
N13 C10 1.377 . S
N13 C12 1.344 . S
O14 Co6 2.055 . S
O14 C18 1.253 . S
H15 C11 0.931 . S
H16 C12 0.930 . S
O17 Co6 2.039 . S
O17 C7 1.265 . S
C18 O14 1.253 . S
C18 O19 1.227 . S
O19 C18 1.227 . S
N20 Co6 2.140 . S
N20 C23 1.346 . S
N20 C24 1.345 . S
C21 C22 1.387 . S
C21 C25 1.391 . S
C22 C21 1.387 . S
C22 C23 1.369 . S
C22 H31 0.929 . S
C23 N20 1.346 . S
C23 C22 1.369 . S
C23 H26 0.928 . S
C24 N20 1.345 . S
C24 C25 1.371 . S
C24 H27 0.931 . S
C25 C21 1.391 . S
C25 C24 1.371 . S
C25 H32 0.930 . S
H26 C23 0.928 . S
H27 C24 0.931 . S
H28 C4 0.930 . S
H29 C1 0.930 . S
H30 C10 0.930 . S
H31 C22 0.929 . S
H32 C25 0.930 . S
C33 C34 1.351 . S
C33 N36 1.368 . S
C33 H38 0.931 . S
C34 C33 1.351 . S
C34 N35 1.373 . S
C34 H62 0.930 . S
N35 C34 1.373 . S
N35 C37 1.340 . S
N36 C33 1.368 . S
N36 C37 1.321 . S
N36 Co39 2.135 . S
C37 N35 1.340 . S
C37 N36 1.321 . S
C37 H61 0.930 . S
H38 C33 0.931 . S
Co39 N36 2.135 . S
Co39 N42 2.121 . S
Co39 O47 2.055 . S
Co39 O50 2.039 . S
Co39 N53 2.140 . S
C40 O41 1.227 . S
C40 O50 1.265 . S
O41 C40 1.227 . S
N42 Co39 2.121 . S
N42 C44 1.375 . S
N42 C45 1.313 . S
C43 C44 1.338 . S
C43 N46 1.377 . S
C43 H63 0.930 . S
C44 N42 1.375 . S
C44 C43 1.338 . S
C44 H48 0.931 . S
C45 N42 1.313 . S
C45 N46 1.344 . S
C45 H49 0.930 . S
N46 C43 1.377 . S
N46 C45 1.344 . S
O47 Co39 2.055 . S
O47 C51 1.253 . S
H48 C44 0.931 . S
H49 C45 0.930 . S
O50 Co39 2.039 . S
O50 C40 1.265 . S
C51 O47 1.253 . S
C51 O52 1.227 . S
O52 C51 1.227 . S
N53 Co39 2.140 . S
N53 C56 1.346 . S
N53 C57 1.345 . S
C54 C55 1.387 . S
C54 C58 1.391 . S
C55 C54 1.387 . S
C55 C56 1.369 . S
C55 H64 0.929 . S
C56 N53 1.346 . S
C56 C55 1.369 . S
C56 H59 0.928 . S
C57 N53 1.345 . S
C57 C58 1.371 . S
C57 H60 0.931 . S
C58 C54 1.391 . S
C58 C57 1.371 . S
C58 H65 0.930 . S
H59 C56 0.928 . S
H60 C57 0.931 . S
H61 C37 0.930 . S
H62 C34 0.930 . S
H63 C43 0.930 . S
H64 C55 0.929 . S
H65 C58 0.930 . S
C66 C67 1.351 . S
C66 N69 1.368 . S
C66 H71 0.931 . S
C67 C66 1.351 . S
C67 N68 1.373 . S
C67 H95 0.930 . S
N68 C67 1.373 . S
N68 C70 1.340 1_556 S
N69 C66 1.368 . S
N69 C70 1.321 1_556 S
N69 Co72 2.135 1_556 S
C70 N68 1.340 1_554 S
C70 N69 1.321 1_554 S
C70 H94 0.930 . S
H71 C66 0.931 . S
Co72 N69 2.135 1_554 S
Co72 N75 2.121 . S
Co72 O80 2.055 1_554 S
Co72 O83 2.039 . S
Co72 N86 2.140 1_554 S
C73 O74 1.227 . S
C73 O83 1.265 . S
O74 C73 1.227 . S
N75 Co72 2.121 . S
N75 C77 1.375 . S
N75 C78 1.314 . S
C76 C77 1.338 . S
C76 N79 1.377 . S
C76 H96 0.930 . S
C77 N75 1.375 . S
C77 C76 1.338 . S
C77 H81 0.931 . S
C78 N75 1.314 . S
C78 N79 1.344 . S
C78 H82 0.929 1_554 S
N79 C76 1.377 . S
N79 C78 1.344 . S
O80 Co72 2.055 1_556 S
O80 C84 1.253 . S
H81 C77 0.931 . S
H82 C78 0.929 1_556 S
O83 Co72 2.039 . S
O83 C73 1.265 . S
C84 O80 1.253 . S
C84 O85 1.227 . S
O85 C84 1.227 . S
N86 Co72 2.140 1_556 S
N86 C89 1.346 1_556 S
N86 C90 1.345 . S
C87 C88 1.387 . S
C87 C91 1.391 . S
C88 C87 1.387 . S
C88 C89 1.369 1_556 S
C88 H97 0.929 1_556 S
C89 N86 1.346 1_554 S
C89 C88 1.369 1_554 S
C89 H92 0.928 . S
C90 N86 1.345 . S
C90 C91 1.371 . S
C90 H93 0.931 . S
C91 C87 1.391 . S
C91 C90 1.371 . S
C91 H98 0.930 . S
H92 C89 0.928 . S
H93 C90 0.931 . S
H94 C70 0.930 . S
H95 C67 0.930 . S
H96 C76 0.930 . S
H97 C88 0.929 1_554 S
H98 C91 0.930 . S
C99 C100 1.351 . S
C99 N102 1.368 . S
C99 H104 0.931 . S
C100 C99 1.351 . S
C100 N101 1.373 . S
C100 H128 0.930 . S
N101 C100 1.373 . S
N101 C103 1.340 . S
N102 C99 1.368 . S
N102 C103 1.321 . S
N102 Co105 2.135 . S
C103 N101 1.340 . S
C103 N102 1.321 . S
C103 H127 0.930 . S
H104 C99 0.931 . S
Co105 N102 2.135 . S
Co105 N108 2.121 . S
Co105 O113 2.055 . S
Co105 O116 2.039 . S
Co105 N119 2.140 . S
C106 O107 1.227 . S
C106 O116 1.265 . S
O107 C106 1.227 . S
N108 Co105 2.121 . S
N108 C110 1.375 . S
N108 C111 1.313 . S
C109 C110 1.338 . S
C109 N112 1.377 . S
C109 H129 0.930 . S
C110 N108 1.375 . S
C110 C109 1.338 . S
C110 H114 0.931 . S
C111 N108 1.313 . S
C111 N112 1.344 . S
C111 H115 0.930 . S
N112 C109 1.377 . S
N112 C111 1.344 . S
O113 Co105 2.055 . S
O113 C117 1.253 . S
H114 C110 0.931 . S
H115 C111 0.930 . S
O116 Co105 2.039 . S
O116 C106 1.265 . S
C117 O113 1.253 . S
C117 O118 1.227 . S
O118 C117 1.227 . S
N119 Co105 2.140 . S
N119 C122 1.346 . S
N119 C123 1.345 . S
C120 C121 1.387 . S
C120 C124 1.391 . S
C121 C120 1.387 . S
C121 C122 1.369 . S
C121 H130 0.929 . S
C122 N119 1.346 . S
C122 C121 1.369 . S
C122 H125 0.928 . S
C123 N119 1.345 . S
C123 C124 1.371 . S
C123 H126 0.931 . S
C124 C120 1.391 . S
C124 C123 1.371 . S
C124 H131 0.930 . S
H125 C122 0.928 . S
H126 C123 0.931 . S
H127 C103 0.930 . S
H128 C100 0.930 . S
H129 C109 0.930 . S
H130 C121 0.929 . S
H131 C124 0.930 . S
C132 C133 1.351 . S
C132 N135 1.368 . S
C132 H137 0.931 . S
C133 C132 1.351 . S
C133 N134 1.373 . S
C133 H161 0.930 . S
N134 C133 1.373 . S
N134 C136 1.340 . S
N135 C132 1.368 . S
N135 C136 1.321 . S
N135 Co138 2.135 . S
C136 N134 1.340 . S
C136 N135 1.321 . S
C136 H160 0.930 . S
H137 C132 0.931 . S
Co138 N135 2.135 . S
Co138 N141 2.121 . S
Co138 O146 2.055 . S
Co138 O149 2.039 . S
Co138 N152 2.140 . S
C139 O140 1.227 . S
C139 O149 1.265 . S
O140 C139 1.227 . S
N141 Co138 2.121 . S
N141 C143 1.375 . S
N141 C144 1.313 . S
C142 C143 1.338 . S
C142 N145 1.377 . S
C142 H162 0.930 . S
C143 N141 1.375 . S
C143 C142 1.338 . S
C143 H147 0.931 . S
C144 N141 1.313 . S
C144 N145 1.344 . S
C144 H148 0.930 . S
N145 C142 1.377 . S
N145 C144 1.344 . S
O146 Co138 2.055 . S
O146 C150 1.253 . S
H147 C143 0.931 . S
H148 C144 0.930 . S
O149 Co138 2.039 . S
O149 C139 1.265 . S
C150 O146 1.253 . S
C150 O151 1.227 . S
O151 C150 1.227 . S
N152 Co138 2.140 . S
N152 C155 1.346 . S
N152 C156 1.345 . S
C153 C154 1.387 . S
C153 C157 1.391 . S
C154 C153 1.387 . S
C154 C155 1.369 . S
C154 H163 0.929 . S
C155 N152 1.346 . S
C155 C154 1.369 . S
C155 H158 0.928 . S
C156 N152 1.345 . S
C156 C157 1.371 . S
C156 H159 0.931 . S
C157 C153 1.391 . S
C157 C156 1.371 . S
C157 H164 0.930 . S
H158 C155 0.928 . S
H159 C156 0.931 . S
H160 C136 0.930 . S
H161 C133 0.930 . S
H162 C142 0.930 . S
H163 C154 0.929 . S
H164 C157 0.930 . S
C165 C166 1.351 . S
C165 N168 1.368 . S
C165 H170 0.931 . S
C166 C165 1.351 . S
C166 N167 1.373 . S
C166 H194 0.930 . S
N167 C166 1.373 . S
N167 C169 1.340 1_556 S
N168 C165 1.368 . S
N168 C169 1.321 1_556 S
N168 Co171 2.135 1_556 S
C169 N167 1.340 1_554 S
C169 N168 1.321 1_554 S
C169 H193 0.930 . S
H170 C165 0.931 . S
Co171 N168 2.135 1_554 S
Co171 N174 2.121 . S
Co171 O179 2.055 1_554 S
Co171 O182 2.039 . S
Co171 N185 2.140 1_554 S
C172 O173 1.227 . S
C172 O182 1.265 . S
O173 C172 1.227 . S
N174 Co171 2.121 . S
N174 C176 1.375 . S
N174 C177 1.314 . S
C175 C176 1.338 . S
C175 N178 1.377 . S
C175 H195 0.930 . S
C176 N174 1.375 . S
C176 C175 1.338 . S
C176 H180 0.931 . S
C177 N174 1.314 . S
C177 N178 1.344 . S
C177 H181 0.929 1_554 S
N178 C175 1.377 . S
N178 C177 1.344 . S
O179 Co171 2.055 1_556 S
O179 C183 1.253 . S
H180 C176 0.931 . S
H181 C177 0.929 1_556 S
O182 Co171 2.039 . S
O182 C172 1.265 . S
C183 O179 1.253 . S
C183 O184 1.227 . S
O184 C183 1.227 . S
N185 Co171 2.140 1_556 S
N185 C188 1.346 1_556 S
N185 C189 1.345 . S
C186 C187 1.387 . S
C186 C190 1.391 . S
C187 C186 1.387 . S
C187 C188 1.369 1_556 S
C187 H196 0.929 1_556 S
C188 N185 1.346 1_554 S
C188 C187 1.369 1_554 S
C188 H191 0.928 . S
C189 N185 1.345 . S
C189 C190 1.371 . S
C189 H192 0.931 . S
C190 C186 1.391 . S
C190 C189 1.371 . S
C190 H197 0.930 . S
H191 C188 0.928 . S
H192 C189 0.931 . S
H193 C169 0.930 . S
H194 C166 0.930 . S
H195 C175 0.930 . S
H196 C187 0.929 1_554 S
H197 C190 0.930 . S
C198 C199 1.351 . S
C198 N201 1.368 . S
C198 H203 0.931 . S
C199 C198 1.351 . S
C199 N200 1.373 . S
C199 H227 0.930 . S
N200 C199 1.373 . S
N200 C202 1.340 . S
N201 C198 1.368 . S
N201 C202 1.321 . S
N201 Co204 2.135 . S
C202 N200 1.340 . S
C202 N201 1.321 . S
C202 H226 0.930 . S
H203 C198 0.931 . S
Co204 N201 2.135 . S
Co204 N207 2.121 . S
Co204 O212 2.055 . S
Co204 O215 2.039 . S
Co204 N218 2.140 . S
C205 O206 1.227 . S
C205 O215 1.265 . S
O206 C205 1.227 . S
N207 Co204 2.121 . S
N207 C209 1.375 . S
N207 C210 1.313 . S
C208 C209 1.338 . S
C208 N211 1.377 . S
C208 H228 0.930 . S
C209 N207 1.375 . S
C209 C208 1.338 . S
C209 H213 0.931 . S
C210 N207 1.313 . S
C210 N211 1.344 . S
C210 H214 0.930 . S
N211 C208 1.377 . S
N211 C210 1.344 . S
O212 Co204 2.055 . S
O212 C216 1.253 . S
H213 C209 0.931 . S
H214 C210 0.930 . S
O215 Co204 2.039 . S
O215 C205 1.265 . S
C216 O212 1.253 . S
C216 O217 1.227 . S
O217 C216 1.227 . S
N218 Co204 2.140 . S
N218 C221 1.346 . S
N218 C222 1.345 . S
C219 C220 1.387 . S
C219 C223 1.391 . S
C220 C219 1.387 . S
C220 C221 1.369 . S
C220 H229 0.929 . S
C221 N218 1.346 . S
C221 C220 1.369 . S
C221 H224 0.928 . S
C222 N218 1.345 . S
C222 C223 1.371 . S
C222 H225 0.931 . S
C223 C219 1.391 . S
C223 C222 1.371 . S
C223 H230 0.930 . S
H224 C221 0.928 . S
H225 C222 0.931 . S
H226 C202 0.930 . S
H227 C199 0.930 . S
H228 C208 0.930 . S
H229 C220 0.929 . S
H230 C223 0.930 . S
C231 C232 1.351 . S
C231 N234 1.368 . S
C231 H236 0.931 . S
C232 C231 1.351 . S
C232 N233 1.373 . S
C232 H260 0.930 . S
N233 C232 1.373 . S
N233 C235 1.340 . S
N234 C231 1.368 . S
N234 C235 1.321 . S
N234 Co237 2.135 . S
C235 N233 1.340 . S
C235 N234 1.321 . S
C235 H259 0.930 . S
H236 C231 0.931 . S
Co237 N234 2.135 . S
Co237 N240 2.121 . S
Co237 O245 2.055 . S
Co237 O248 2.039 . S
Co237 N251 2.140 . S
C238 O239 1.227 . S
C238 O248 1.265 . S
O239 C238 1.227 . S
N240 Co237 2.121 . S
N240 C242 1.375 . S
N240 C243 1.313 . S
C241 C242 1.338 . S
C241 N244 1.377 . S
C241 H261 0.930 . S
C242 N240 1.375 . S
C242 C241 1.338 . S
C242 H246 0.931 . S
C243 N240 1.313 . S
C243 N244 1.344 . S
C243 H247 0.930 . S
N244 C241 1.377 . S
N244 C243 1.344 . S
O245 Co237 2.055 . S
O245 C249 1.253 . S
H246 C242 0.931 . S
H247 C243 0.930 . S
O248 Co237 2.039 . S
O248 C238 1.265 . S
C249 O245 1.253 . S
C249 O250 1.227 . S
O250 C249 1.227 . S
N251 Co237 2.140 . S
N251 C254 1.346 . S
N251 C255 1.345 . S
C252 C253 1.387 . S
C252 C256 1.391 . S
C253 C252 1.387 . S
C253 C254 1.369 . S
C253 H262 0.929 . S
C254 N251 1.346 . S
C254 C253 1.369 . S
C254 H257 0.928 . S
C255 N251 1.345 . S
C255 C256 1.371 . S
C255 H258 0.931 . S
C256 C252 1.391 . S
C256 C255 1.371 . S
C256 H263 0.930 . S
H257 C254 0.928 . S
H258 C255 0.931 . S
H259 C235 0.930 . S
H260 C232 0.930 . S
H261 C241 0.930 . S
H262 C253 0.929 . S
H263 C256 0.930 . S
C264 C265 1.351 . S
C264 N267 1.368 . S
C264 H269 0.931 . S
C265 C264 1.351 . S
C265 N266 1.373 . S
C265 H293 0.930 . S
N266 C265 1.373 . S
N266 C268 1.340 1_554 S
N267 C264 1.368 . S
N267 C268 1.321 1_554 S
N267 Co270 2.135 1_554 S
C268 N266 1.340 1_556 S
C268 N267 1.321 1_556 S
C268 H292 0.930 . S
H269 C264 0.931 . S
Co270 N267 2.135 1_556 S
Co270 N273 2.121 . S
Co270 O278 2.055 1_556 S
Co270 O281 2.039 . S
Co270 N284 2.140 1_556 S
C271 O272 1.227 . S
C271 O281 1.265 . S
O272 C271 1.227 . S
N273 Co270 2.121 . S
N273 C275 1.375 . S
N273 C276 1.314 . S
C274 C275 1.338 . S
C274 N277 1.377 . S
C274 H294 0.930 . S
C275 N273 1.375 . S
C275 C274 1.338 . S
C275 H279 0.931 . S
C276 N273 1.314 . S
C276 N277 1.344 . S
C276 H280 0.929 1_556 S
N277 C274 1.377 . S
N277 C276 1.344 . S
O278 Co270 2.055 1_554 S
O278 C282 1.253 . S
H279 C275 0.931 . S
H280 C276 0.929 1_554 S
O281 Co270 2.039 . S
O281 C271 1.265 . S
C282 O278 1.253 . S
C282 O283 1.227 . S
O283 C282 1.227 . S
N284 Co270 2.140 1_554 S
N284 C287 1.346 1_554 S
N284 C288 1.345 . S
C285 C286 1.387 . S
C285 C289 1.391 . S
C286 C285 1.387 . S
C286 C287 1.369 1_554 S
C286 H295 0.929 1_554 S
C287 N284 1.346 1_556 S
C287 C286 1.369 1_556 S
C287 H290 0.928 . S
C288 N284 1.345 . S
C288 C289 1.371 . S
C288 H291 0.931 . S
C289 C285 1.391 . S
C289 C288 1.371 . S
C289 H296 0.930 . S
H290 C287 0.928 . S
H291 C288 0.931 . S
H292 C268 0.930 . S
H293 C265 0.930 . S
H294 C274 0.930 . S
H295 C286 0.929 1_556 S
H296 C289 0.930 . S
C297 C298 1.351 . S
C297 N300 1.368 . S
C297 H302 0.931 . S
C298 C297 1.351 . S
C298 N299 1.373 . S
C298 H326 0.930 . S
N299 C298 1.373 . S
N299 C301 1.340 . S
N300 C297 1.368 . S
N300 C301 1.321 . S
N300 Co303 2.135 . S
C301 N299 1.340 . S
C301 N300 1.321 . S
C301 H325 0.930 . S
H302 C297 0.931 . S
Co303 N300 2.135 . S
Co303 N306 2.121 . S
Co303 O311 2.055 . S
Co303 O314 2.039 . S
Co303 N317 2.140 . S
C304 O305 1.227 . S
C304 O314 1.265 . S
O305 C304 1.227 . S
N306 Co303 2.121 . S
N306 C308 1.375 . S
N306 C309 1.313 . S
C307 C308 1.338 . S
C307 N310 1.377 . S
C307 H327 0.930 . S
C308 N306 1.375 . S
C308 C307 1.338 . S
C308 H312 0.931 . S
C309 N306 1.313 . S
C309 N310 1.344 . S
C309 H313 0.930 . S
N310 C307 1.377 . S
N310 C309 1.344 . S
O311 Co303 2.055 . S
O311 C315 1.253 . S
H312 C308 0.931 . S
H313 C309 0.930 . S
O314 Co303 2.039 . S
O314 C304 1.265 . S
C315 O311 1.253 . S
C315 O316 1.227 . S
O316 C315 1.227 . S
N317 Co303 2.140 . S
N317 C320 1.346 . S
N317 C321 1.345 . S
C318 C319 1.387 . S
C318 C322 1.391 . S
C319 C318 1.387 . S
C319 C320 1.369 . S
C319 H328 0.929 . S
C320 N317 1.346 . S
C320 C319 1.369 . S
C320 H323 0.928 . S
C321 N317 1.345 . S
C321 C322 1.371 . S
C321 H324 0.931 . S
C322 C318 1.391 . S
C322 C321 1.371 . S
C322 H329 0.930 . S
H323 C320 0.928 . S
H324 C321 0.931 . S
H325 C301 0.930 . S
H326 C298 0.930 . S
H327 C307 0.930 . S
H328 C319 0.929 . S
H329 C322 0.930 . S
C330 C331 1.351 . S
C330 N333 1.368 . S
C330 H335 0.931 . S
C331 C330 1.351 . S
C331 N332 1.373 . S
C331 H359 0.930 . S
N332 C331 1.373 . S
N332 C334 1.340 . S
N333 C330 1.368 . S
N333 C334 1.321 . S
N333 Co336 2.135 . S
C334 N332 1.340 . S
C334 N333 1.321 . S
C334 H358 0.930 . S
H335 C330 0.931 . S
Co336 N333 2.135 . S
Co336 N339 2.121 . S
Co336 O344 2.055 . S
Co336 O347 2.039 . S
Co336 N350 2.140 . S
C337 O338 1.227 . S
C337 O347 1.265 . S
O338 C337 1.227 . S
N339 Co336 2.121 . S
N339 C341 1.375 . S
N339 C342 1.313 . S
C340 C341 1.338 . S
C340 N343 1.377 . S
C340 H360 0.930 . S
C341 N339 1.375 . S
C341 C340 1.338 . S
C341 H345 0.931 . S
C342 N339 1.313 . S
C342 N343 1.344 . S
C342 H346 0.930 . S
N343 C340 1.377 . S
N343 C342 1.344 . S
O344 Co336 2.055 . S
O344 C348 1.253 . S
H345 C341 0.931 . S
H346 C342 0.930 . S
O347 Co336 2.039 . S
O347 C337 1.265 . S
C348 O344 1.253 . S
C348 O349 1.227 . S
O349 C348 1.227 . S
N350 Co336 2.140 . S
N350 C353 1.346 . S
N350 C354 1.345 . S
C351 C352 1.387 . S
C351 C355 1.391 . S
C352 C351 1.387 . S
C352 C353 1.369 . S
C352 H361 0.929 . S
C353 N350 1.346 . S
C353 C352 1.369 . S
C353 H356 0.928 . S
C354 N350 1.345 . S
C354 C355 1.371 . S
C354 H357 0.931 . S
C355 C351 1.391 . S
C355 C354 1.371 . S
C355 H362 0.930 . S
H356 C353 0.928 . S
H357 C354 0.931 . S
H358 C334 0.930 . S
H359 C331 0.930 . S
H360 C340 0.930 . S
H361 C352 0.929 . S
H362 C355 0.930 . S
C363 C364 1.351 . S
C363 N366 1.368 . S
C363 H368 0.931 . S
C364 C363 1.351 . S
C364 N365 1.373 . S
C364 H392 0.930 . S
N365 C364 1.373 . S
N365 C367 1.340 1_554 S
N366 C363 1.368 . S
N366 C367 1.321 1_554 S
N366 Co369 2.135 1_554 S
C367 N365 1.340 1_556 S
C367 N366 1.321 1_556 S
C367 H391 0.930 . S
H368 C363 0.931 . S
Co369 N366 2.135 1_556 S
Co369 N372 2.121 . S
Co369 O377 2.055 1_556 S
Co369 O380 2.039 . S
Co369 N383 2.140 1_556 S
C370 O371 1.227 . S
C370 O380 1.265 . S
O371 C370 1.227 . S
N372 Co369 2.121 . S
N372 C374 1.375 . S
N372 C375 1.314 . S
C373 C374 1.338 . S
C373 N376 1.377 . S
C373 H393 0.930 . S
C374 N372 1.375 . S
C374 C373 1.338 . S
C374 H378 0.931 . S
C375 N372 1.314 . S
C375 N376 1.344 . S
C375 H379 0.929 1_556 S
N376 C373 1.377 . S
N376 C375 1.344 . S
O377 Co369 2.055 1_554 S
O377 C381 1.253 . S
H378 C374 0.931 . S
H379 C375 0.929 1_554 S
O380 Co369 2.039 . S
O380 C370 1.265 . S
C381 O377 1.253 . S
C381 O382 1.227 . S
O382 C381 1.227 . S
N383 Co369 2.140 1_554 S
N383 C386 1.346 1_554 S
N383 C387 1.345 . S
C384 C385 1.387 . S
C384 C388 1.391 . S
C385 C384 1.387 . S
C385 C386 1.369 1_554 S
C385 H394 0.929 1_554 S
C386 N383 1.346 1_556 S
C386 C385 1.369 1_556 S
C386 H389 0.928 . S
C387 N383 1.345 . S
C387 C388 1.371 . S
C387 H390 0.931 . S
C388 C384 1.391 . S
C388 C387 1.371 . S
C388 H395 0.930 . S
H389 C386 0.928 . S
H390 C387 0.931 . S
H391 C367 0.930 . S
H392 C364 0.930 . S
H393 C373 0.930 . S
H394 C385 0.929 1_556 S
H395 C388 0.930 . S
H396 C404 0.950 . S
H397 C409 0.950 . S
H398 C406 0.950 . S
H399 C408 0.950 1_455 S
H400 C410 0.950 . S
H401 C412 0.950 . S
H402 C414 0.973 . S
H403 C415 0.950 . S
C404 H396 0.950 . S
C404 C405 1.386 . S
C404 C406 1.391 . S
C405 C404 1.386 . S
C405 C409 1.393 . S
C406 H398 0.950 . S
C406 C404 1.391 . S
C406 C407 1.400 . S
C407 C406 1.400 . S
C407 C408 1.398 . S
C407 C413 1.491 1_655 S
C408 H399 0.950 1_655 S
C408 C407 1.398 . S
C408 C409 1.391 . S
C409 H397 0.950 . S
C409 C405 1.393 . S
C409 C408 1.391 . S
C410 H400 0.950 . S
C410 C411 1.386 . S
C410 C412 1.391 . S
C411 C410 1.386 . S
C411 C415 1.393 . S
C412 H401 0.950 . S
C412 C410 1.391 . S
C412 C413 1.400 . S
C413 C407 1.491 1_455 S
C413 C412 1.400 . S
C413 C414 1.388 1_455 S
C414 H402 0.973 . S
C414 C413 1.388 1_655 S
C414 C415 1.380 1_655 S
C415 H403 0.950 . S
C415 C411 1.393 . S
C415 C414 1.380 1_455 S
H416 C424 0.950 . S
H417 C429 0.950 . S
H418 C426 0.915 1_545 S
H419 C428 0.950 . S
H420 C430 0.950 . S
H421 C432 0.915 1_565 S
H422 C434 0.950 . S
H423 C435 0.950 . S
C424 H416 0.950 . S
C424 C425 1.386 . S
C424 C426 1.409 . S
C425 C424 1.386 . S
C425 C429 1.393 . S
C426 H418 0.915 1_565 S
C426 C424 1.409 . S
C426 C427 1.418 . S
C427 C426 1.418 . S
C427 C428 1.398 . S
C427 C433 1.491 1_565 S
C428 H419 0.950 . S
C428 C427 1.398 . S
C428 C429 1.391 . S
C429 H417 0.950 . S
C429 C425 1.393 . S
C429 C428 1.391 . S
C430 H420 0.950 . S
C430 C431 1.386 . S
C430 C432 1.409 . S
C431 C430 1.386 . S
C431 C435 1.393 . S
C432 H421 0.915 1_545 S
C432 C430 1.409 . S
C432 C433 1.417 . S
C433 C427 1.491 1_545 S
C433 C432 1.417 . S
C433 C434 1.398 . S
C434 H422 0.950 . S
C434 C433 1.398 . S
C434 C435 1.391 . S
C435 H423 0.950 . S
C435 C431 1.393 . S
C435 C434 1.391 . S
H436 C444 0.950 . S
H437 C449 0.950 . S
H438 C446 0.950 . S
H439 C448 0.950 . S
H440 C450 0.950 . S
H441 C452 0.950 . S
H442 C454 0.950 . S
H443 C455 0.950 . S
C444 H436 0.950 . S
C444 C445 1.386 . S
C444 C446 1.391 . S
C445 C444 1.386 . S
C445 C449 1.393 . S
C446 H438 0.950 . S
C446 C444 1.391 . S
C446 C447 1.400 . S
C447 C446 1.400 . S
C447 C448 1.398 . S
C447 C453 1.491 . S
C448 H439 0.950 . S
C448 C447 1.398 . S
C448 C449 1.391 . S
C449 H437 0.950 . S
C449 C445 1.393 . S
C449 C448 1.391 . S
C450 H440 0.950 . S
C450 C451 1.386 . S
C450 C452 1.391 . S
C451 C450 1.386 . S
C451 C455 1.393 . S
C452 H441 0.950 . S
C452 C450 1.391 . S
C452 C453 1.400 . S
C453 C447 1.491 . S
C453 C452 1.400 . S
C453 C454 1.398 . S
C454 H442 0.950 . S
C454 C453 1.398 . S
C454 C455 1.391 . S
C455 H443 0.950 . S
C455 C451 1.393 . S
C455 C454 1.391 . S
H456 C464 0.950 . S
H457 C469 0.950 . S
H458 C466 0.950 . S
H459 C468 0.950 1_655 S
H460 C470 0.950 . S
H461 C472 0.950 . S
H462 C474 0.950 1_455 S
H463 C475 0.950 . S
C464 H456 0.950 . S
C464 C465 1.386 . S
C464 C466 1.391 . S
C465 C464 1.386 . S
C465 C469 1.393 . S
C466 H458 0.950 . S
C466 C464 1.391 . S
C466 C467 1.400 . S
C467 C466 1.400 . S
C467 C468 1.398 . S
C467 C473 1.491 1_455 S
C468 H459 0.950 1_455 S
C468 C467 1.398 . S
C468 C469 1.391 . S
C469 H457 0.950 . S
C469 C465 1.393 . S
C469 C468 1.391 . S
C470 H460 0.950 . S
C470 C471 1.386 . S
C470 C472 1.391 . S
C471 C470 1.386 . S
C471 C475 1.393 . S
C472 H461 0.950 . S
C472 C470 1.391 . S
C472 C473 1.400 . S
C473 C467 1.491 1_655 S
C473 C472 1.400 . S
C473 C474 1.398 . S
C474 H462 0.950 1_655 S
C474 C473 1.398 . S
C474 C475 1.391 . S
C475 H463 0.950 . S
C475 C471 1.393 . S
C475 C474 1.391 . S
H476 C484 0.950 . S
H477 C489 0.950 . S
H478 C486 0.950 . S
H479 C488 0.950 . S
H480 C490 0.950 . S
H481 C492 0.950 . S
H482 C494 0.950 . S
H483 C495 0.950 . S
C484 H476 0.950 . S
C484 C485 1.386 . S
C484 C486 1.391 . S
C485 C484 1.386 . S
C485 C489 1.393 . S
C486 H478 0.950 . S
C486 C484 1.391 . S
C486 C487 1.400 . S
C487 C486 1.400 . S
C487 C488 1.398 . S
C487 C493 1.491 1_545 S
C488 H479 0.950 . S
C488 C487 1.398 . S
C488 C489 1.391 . S
C489 H477 0.950 . S
C489 C485 1.393 . S
C489 C488 1.391 . S
C490 H480 0.950 . S
C490 C491 1.386 . S
C490 C492 1.391 . S
C491 C490 1.386 . S
C491 C495 1.393 . S
C492 H481 0.950 . S
C492 C490 1.391 . S
C492 C493 1.400 . S
C493 C487 1.491 1_565 S
C493 C492 1.400 . S
C493 C494 1.398 . S
C494 H482 0.950 . S
C494 C493 1.398 . S
C494 C495 1.391 . S
C495 H483 0.950 . S
C495 C491 1.393 . S
C495 C494 1.391 . S
H496 C504 0.950 . S
H497 C509 0.950 . S
H498 C506 0.950 . S
H499 C508 0.950 . S
H500 C510 0.950 . S
H501 C512 0.950 . S
H502 C514 0.950 . S
H503 C515 0.950 . S
C504 H496 0.950 . S
C504 C505 1.386 . S
C504 C506 1.391 . S
C505 C504 1.386 . S
C505 C509 1.393 . S
C506 H498 0.950 . S
C506 C504 1.391 . S
C506 C507 1.400 . S
C507 C506 1.400 . S
C507 C508 1.398 . S
C507 C513 1.491 . S
C508 H499 0.950 . S
C508 C507 1.398 . S
C508 C509 1.391 . S
C509 H497 0.950 . S
C509 C505 1.393 . S
C509 C508 1.391 . S
C510 H500 0.950 . S
C510 C511 1.386 . S
C510 C512 1.391 . S
C511 C510 1.386 . S
C511 C515 1.393 . S
C512 H501 0.950 . S
C512 C510 1.391 . S
C512 C513 1.400 . S
C513 C507 1.491 . S
C513 C512 1.400 . S
C513 C514 1.398 . S
C514 H502 0.950 . S
C514 C513 1.398 . S
C514 C515 1.391 . S
C515 H503 0.950 . S
C515 C511 1.393 . S
C515 C514 1.391 . S
H516 C524 0.950 . S
H517 C529 0.950 . S
H518 C526 0.950 . S
H519 C528 0.950 . S
H520 C530 0.950 . S
H521 C532 0.950 . S
H522 C534 0.950 . S
H523 C535 0.950 . S
C524 H516 0.950 . S
C524 C525 1.386 . S
C524 C526 1.391 . S
C525 C524 1.386 . S
C525 C529 1.393 . S
C526 H518 0.950 . S
C526 C524 1.391 . S
C526 C527 1.400 . S
C527 C526 1.400 . S
C527 C528 1.398 . S
C527 C533 1.491 . S
C528 H519 0.950 . S
C528 C527 1.398 . S
C528 C529 1.391 . S
C529 H517 0.950 . S
C529 C525 1.393 . S
C529 C528 1.391 . S
C530 H520 0.950 . S
C530 C531 1.386 . S
C530 C532 1.391 . S
C531 C530 1.386 . S
C531 C535 1.393 . S
C532 H521 0.950 . S
C532 C530 1.391 . S
C532 C533 1.400 . S
C533 C527 1.491 . S
C533 C532 1.400 . S
C533 C534 1.398 . S
C534 H522 0.950 . S
C534 C533 1.398 . S
C534 C535 1.391 . S
C535 H523 0.950 . S
C535 C531 1.393 . S
C535 C534 1.391 . S
H536 C544 0.950 . S
H537 C549 0.950 . S
H538 C546 0.950 . S
H539 C548 0.950 . S
H540 C550 0.950 . S
H541 C552 0.950 . S
H542 C554 0.950 . S
H543 C555 0.950 . S
C544 H536 0.950 . S
C544 C545 1.386 . S
C544 C546 1.391 . S
C545 C544 1.386 . S
C545 C549 1.393 . S
C546 H538 0.950 . S
C546 C544 1.391 . S
C546 C547 1.400 . S
C547 C546 1.400 . S
C547 C548 1.398 . S
C547 C553 1.491 . S
C548 H539 0.950 . S
C548 C547 1.398 . S
C548 C549 1.391 . S
C549 H537 0.950 . S
C549 C545 1.393 . S
C549 C548 1.391 . S
C550 H540 0.950 . S
C550 C551 1.386 . S
C550 C552 1.391 . S
C551 C550 1.386 . S
C551 C555 1.393 . S
C552 H541 0.950 . S
C552 C550 1.391 . S
C552 C553 1.400 . S
C553 C547 1.491 . S
C553 C552 1.400 . S
C553 C554 1.398 . S
C554 H542 0.950 . S
C554 C553 1.398 . S
C554 C555 1.391 . S
C555 H543 0.950 . S
C555 C551 1.393 . S
C555 C554 1.391 . S
H556 C564 0.950 . S
H557 C569 0.950 . S
H558 C566 0.950 . S
H559 C568 0.950 . S
H560 C570 0.950 . S
H561 C572 0.950 . S
H562 C574 0.950 . S
H563 C575 0.950 . S
C564 H556 0.950 . S
C564 C565 1.386 . S
C564 C566 1.391 . S
C565 C564 1.386 . S
C565 C569 1.393 . S
C566 H558 0.950 . S
C566 C564 1.391 . S
C566 C567 1.400 . S
C567 C566 1.400 . S
C567 C568 1.398 . S
C567 C573 1.491 . S
C568 H559 0.950 . S
C568 C567 1.398 . S
C568 C569 1.391 . S
C569 H557 0.950 . S
C569 C565 1.393 . S
C569 C568 1.391 . S
C570 H560 0.950 . S
C570 C571 1.386 . S
C570 C572 1.391 . S
C571 C570 1.386 . S
C571 C575 1.393 . S
C572 H561 0.950 . S
C572 C570 1.391 . S
C572 C573 1.400 . S
C573 C567 1.491 . S
C573 C572 1.400 . S
C573 C574 1.398 . S
C574 H562 0.950 . S
C574 C573 1.398 . S
C574 C575 1.391 . S
C575 H563 0.950 . S
C575 C571 1.393 . S
C575 C574 1.391 . S
H576 C584 0.950 . S
H577 C589 0.950 . S
H578 C586 0.950 . S
H579 C588 0.950 . S
H580 C590 0.950 . S
H581 C592 0.950 . S
H582 C594 0.950 . S
H583 C595 0.950 . S
C584 H576 0.950 . S
C584 C585 1.386 . S
C584 C586 1.391 . S
C585 C584 1.386 . S
C585 C589 1.393 . S
C586 H578 0.950 . S
C586 C584 1.391 . S
C586 C587 1.400 . S
C587 C586 1.400 . S
C587 C588 1.398 . S
C587 C593 1.491 . S
C588 H579 0.950 . S
C588 C587 1.398 . S
C588 C589 1.391 . S
C589 H577 0.950 . S
C589 C585 1.393 . S
C589 C588 1.391 . S
C590 H580 0.950 . S
C590 C591 1.386 . S
C590 C592 1.391 . S
C591 C590 1.386 . S
C591 C595 1.393 . S
C592 H581 0.950 . S
C592 C590 1.391 . S
C592 C593 1.400 . S
C593 C587 1.491 . S
C593 C592 1.400 . S
C593 C594 1.398 . S
C594 H582 0.950 . S
C594 C593 1.398 . S
C594 C595 1.391 . S
C595 H583 0.950 . S
C595 C591 1.393 . S
C595 C594 1.391 . S
H596 C604 0.950 . S
H597 C609 0.950 . S
H598 C606 0.950 . S
H599 C608 0.950 . S
H600 C610 0.950 . S
H601 C612 0.950 . S
H602 C614 0.950 . S
H603 C615 0.950 . S
C604 H596 0.950 . S
C604 C605 1.386 . S
C604 C606 1.391 . S
C605 C604 1.386 . S
C605 C609 1.393 . S
C606 H598 0.950 . S
C606 C604 1.391 . S
C606 C607 1.400 . S
C607 C606 1.400 . S
C607 C608 1.398 . S
C607 C613 1.491 . S
C608 H599 0.950 . S
C608 C607 1.398 . S
C608 C609 1.391 . S
C609 H597 0.950 . S
C609 C605 1.393 . S
C609 C608 1.391 . S
C610 H600 0.950 . S
C610 C611 1.386 . S
C610 C612 1.391 . S
C611 C610 1.386 . S
C611 C615 1.393 . S
C612 H601 0.950 . S
C612 C610 1.391 . S
C612 C613 1.400 . S
C613 C607 1.491 . S
C613 C612 1.400 . S
C613 C614 1.398 . S
C614 H602 0.950 . S
C614 C613 1.398 . S
C614 C615 1.391 . S
C615 H603 0.950 . S
C615 C611 1.393 . S
C615 C614 1.391 . S
H616 C624 0.950 . S
H617 C629 0.950 . S
H618 C626 0.950 . S
H619 C628 0.950 . S
H620 C630 0.950 . S
H621 C632 0.950 . S
H622 C634 0.950 . S
H623 C635 0.950 . S
C624 H616 0.950 . S
C624 C625 1.386 . S
C624 C626 1.391 . S
C625 C624 1.386 . S
C625 C629 1.393 . S
C626 H618 0.950 . S
C626 C624 1.391 . S
C626 C627 1.400 . S
C627 C626 1.400 . S
C627 C628 1.398 . S
C627 C633 1.491 . S
C628 H619 0.950 . S
C628 C627 1.398 . S
C628 C629 1.391 . S
C629 H617 0.950 . S
C629 C625 1.393 . S
C629 C628 1.391 . S
C630 H620 0.950 . S
C630 C631 1.386 . S
C630 C632 1.391 . S
C631 C630 1.386 . S
C631 C635 1.393 . S
C632 H621 0.950 . S
C632 C630 1.391 . S
C632 C633 1.400 . S
C633 C627 1.491 . S
C633 C632 1.400 . S
C633 C634 1.398 . S
C634 H622 0.950 . S
C634 C633 1.398 . S
C634 C635 1.391 . S
C635 H623 0.950 . S
C635 C631 1.393 . S
C635 C634 1.391 . S
H636 C644 0.950 . S
H637 C649 0.950 . S
H638 C646 0.950 . S
H639 C648 0.950 . S
H640 C650 0.950 . S
H641 C652 0.950 . S
H642 C654 0.950 . S
H643 C655 0.950 . S
C644 H636 0.950 . S
C644 C645 1.386 . S
C644 C646 1.391 1_655 S
C645 C644 1.386 . S
C645 C649 1.393 . S
C646 H638 0.950 . S
C646 C644 1.391 1_455 S
C646 C647 1.400 1_455 S
C647 C646 1.400 1_655 S
C647 C648 1.398 . S
C647 C653 1.491 1_655 S
C648 H639 0.950 . S
C648 C647 1.398 . S
C648 C649 1.391 . S
C649 H637 0.950 . S
C649 C645 1.393 . S
C649 C648 1.391 . S
C650 H640 0.950 . S
C650 C651 1.386 . S
C650 C652 1.391 1_455 S
C651 C650 1.386 . S
C651 C655 1.393 . S
C652 H641 0.950 . S
C652 C650 1.391 1_655 S
C652 C653 1.400 1_655 S
C653 C647 1.491 1_455 S
C653 C652 1.400 1_455 S
C653 C654 1.398 . S
C654 H642 0.950 . S
C654 C653 1.398 . S
C654 C655 1.391 . S
C655 H643 0.950 . S
C655 C651 1.393 . S
C655 C654 1.391 . S
H656 C664 0.950 . S
H657 C669 0.950 . S
H658 C666 0.950 . S
H659 C668 0.949 . S
H660 C670 0.950 . S
H661 C672 0.950 . S
H662 C674 0.949 . S
H663 C675 0.950 . S
C664 H656 0.950 . S
C664 C665 1.386 . S
C664 C666 1.391 . S
C665 C664 1.386 . S
C665 C669 1.393 . S
C666 H658 0.950 . S
C666 C664 1.391 . S
C666 C667 1.400 . S
C667 C666 1.400 . S
C667 C668 1.399 1_545 S
C667 C673 1.491 1_545 S
C668 H659 0.949 . S
C668 C667 1.399 1_565 S
C668 C669 1.391 1_565 S
C669 H657 0.950 . S
C669 C665 1.393 . S
C669 C668 1.391 1_545 S
C670 H660 0.950 . S
C670 C671 1.386 . S
C670 C672 1.391 . S
C671 C670 1.386 . S
C671 C675 1.393 . S
C672 H661 0.950 . S
C672 C670 1.391 . S
C672 C673 1.400 . S
C673 C667 1.491 1_565 S
C673 C672 1.400 . S
C673 C674 1.399 1_565 S
C674 H662 0.949 . S
C674 C673 1.399 1_545 S
C674 C675 1.391 1_545 S
C675 H663 0.950 . S
C675 C671 1.393 . S
C675 C674 1.391 1_565 S
H676 C684 0.950 . S
H677 C689 0.950 . S
H678 C686 0.950 . S
H679 C688 0.950 . S
H680 C690 0.950 . S
H681 C692 0.950 . S
H682 C694 0.950 . S
H683 C695 0.950 . S
C684 H676 0.950 . S
C684 C685 1.386 1_556 S
C684 C686 1.391 . S
C685 C684 1.386 1_554 S
C685 C689 1.393 . S
C686 H678 0.950 . S
C686 C684 1.391 . S
C686 C687 1.400 1_556 S
C687 C686 1.400 1_554 S
C687 C688 1.398 . S
C687 C693 1.491 . S
C688 H679 0.950 . S
C688 C687 1.398 . S
C688 C689 1.391 . S
C689 H677 0.950 . S
C689 C685 1.393 . S
C689 C688 1.391 . S
C690 H680 0.950 . S
C690 C691 1.386 . S
C690 C692 1.391 . S
C691 C690 1.386 . S
C691 C695 1.393 1_554 S
C692 H681 0.950 . S
C692 C690 1.391 . S
C692 C693 1.400 . S
C693 C687 1.491 . S
C693 C692 1.400 . S
C693 C694 1.398 1_554 S
C694 H682 0.950 . S
C694 C693 1.398 1_556 S
C694 C695 1.391 . S
C695 H683 0.950 . S
C695 C691 1.393 1_556 S
C695 C694 1.391 . S
H696 C704 0.950 . S
H697 C709 0.950 . S
H698 C706 0.950 . S
H699 C708 0.950 . S
H700 C710 0.950 . S
H701 C712 0.950 . S
H702 C714 0.950 . S
H703 C715 0.950 . S
C704 H696 0.950 . S
C704 C705 1.386 . S
C704 C706 1.391 1_565 S
C705 C704 1.386 . S
C705 C709 1.393 . S
C706 H698 0.950 . S
C706 C704 1.391 1_545 S
C706 C707 1.400 1_545 S
C707 C706 1.400 1_565 S
C707 C708 1.398 . S
C707 C713 1.491 1_565 S
C708 H699 0.950 . S
C708 C707 1.398 . S
C708 C709 1.391 . S
C709 H697 0.950 . S
C709 C705 1.393 . S
C709 C708 1.391 . S
C710 H700 0.950 . S
C710 C711 1.386 . S
C710 C712 1.391 1_545 S
C711 C710 1.386 . S
C711 C715 1.393 . S
C712 H701 0.950 . S
C712 C710 1.391 1_565 S
C712 C713 1.400 1_565 S
C713 C707 1.491 1_545 S
C713 C712 1.400 1_545 S
C713 C714 1.398 . S
C714 H702 0.950 . S
C714 C713 1.398 . S
C714 C715 1.391 . S
C715 H703 0.950 . S
C715 C711 1.393 . S
C715 C714 1.391 . S
H716 C724 0.950 . S
H717 C729 0.950 . S
H718 C726 0.950 . S
H719 C728 0.950 . S
H720 C730 0.950 . S
H721 C732 0.950 . S
H722 C734 0.950 . S
H723 C735 0.950 . S
C724 H716 0.950 . S
C724 C725 1.386 . S
C724 C726 1.391 . S
C725 C724 1.386 . S
C725 C729 1.393 . S
C726 H718 0.950 . S
C726 C724 1.391 . S
C726 C727 1.400 . S
C727 C726 1.400 . S
C727 C728 1.398 . S
C727 C733 1.491 . S
C728 H719 0.950 . S
C728 C727 1.398 . S
C728 C729 1.391 . S
C729 H717 0.950 . S
C729 C725 1.393 . S
C729 C728 1.391 . S
C730 H720 0.950 . S
C730 C731 1.386 . S
C730 C732 1.391 . S
C731 C730 1.386 . S
C731 C735 1.393 . S
C732 H721 0.950 . S
C732 C730 1.391 . S
C732 C733 1.400 . S
C733 C727 1.491 . S
C733 C732 1.400 . S
C733 C734 1.398 . S
C734 H722 0.950 . S
C734 C733 1.398 . S
C734 C735 1.391 . S
C735 H723 0.950 . S
C735 C731 1.393 . S
C735 C734 1.391 . S
H736 C744 0.950 . S
H737 C749 0.950 . S
H738 C746 0.959 . S
H739 C748 0.950 . S
H740 C750 0.950 . S
H741 C752 0.959 . S
H742 C754 0.950 . S
H743 C755 0.950 . S
C744 H736 0.950 . S
C744 C745 1.386 . S
C744 C746 1.391 1_655 S
C745 C744 1.386 . S
C745 C749 1.393 1_556 S
C746 H738 0.959 . S
C746 C744 1.391 1_455 S
C746 C747 1.392 1_455 S
C747 C746 1.392 1_655 S
C747 C748 1.398 1_556 S
C747 C753 1.491 1_655 S
C748 H739 0.950 . S
C748 C747 1.398 1_554 S
C748 C749 1.391 . S
C749 H737 0.950 . S
C749 C745 1.393 1_554 S
C749 C748 1.391 . S
C750 H740 0.950 . S
C750 C751 1.386 1_554 S
C750 C752 1.391 1_455 S
C751 C750 1.386 1_556 S
C751 C755 1.393 . S
C752 H741 0.959 . S
C752 C750 1.391 1_655 S
C752 C753 1.392 1_654 S
C753 C747 1.491 1_455 S
C753 C752 1.392 1_456 S
C753 C754 1.398 . S
C754 H742 0.950 . S
C754 C753 1.398 . S
C754 C755 1.391 . S
C755 H743 0.950 . S
C755 C751 1.393 . S
C755 C754 1.391 . S
H756 C764 0.950 . S
H757 C769 0.950 . S
H758 C766 0.950 . S
H759 C768 0.950 . S
H760 C770 0.950 . S
H761 C772 0.950 . S
H762 C774 0.950 . S
H763 C775 0.950 . S
C764 H756 0.950 . S
C764 C765 1.386 . S
C764 C766 1.391 . S
C765 C764 1.386 . S
C765 C769 1.393 . S
C766 H758 0.950 . S
C766 C764 1.391 . S
C766 C767 1.400 . S
C767 C766 1.400 . S
C767 C768 1.398 . S
C767 C773 1.491 . S
C768 H759 0.950 . S
C768 C767 1.398 . S
C768 C769 1.391 . S
C769 H757 0.950 . S
C769 C765 1.393 . S
C769 C768 1.391 . S
C770 H760 0.950 . S
C770 C771 1.386 . S
C770 C772 1.391 . S
C771 C770 1.386 . S
C771 C775 1.393 . S
C772 H761 0.950 . S
C772 C770 1.391 . S
C772 C773 1.400 . S
C773 C767 1.491 . S
C773 C772 1.400 . S
C773 C774 1.398 . S
C774 H762 0.950 . S
C774 C773 1.398 . S
C774 C775 1.391 . S
C775 H763 0.950 . S
C775 C771 1.393 . S
C775 C774 1.391 . S
H776 C784 0.950 . S
H777 C789 0.950 . S
H778 C786 0.950 . S
H779 C788 0.950 . S
H780 C790 0.950 . S
H781 C792 0.950 . S
H782 C794 0.950 . S
H783 C795 0.950 . S
C784 H776 0.950 . S
C784 C785 1.386 . S
C784 C786 1.391 . S
C785 C784 1.386 . S
C785 C789 1.393 . S
C786 H778 0.950 . S
C786 C784 1.391 . S
C786 C787 1.400 . S
C787 C786 1.400 . S
C787 C788 1.398 . S
C787 C793 1.491 1_655 S
C788 H779 0.950 . S
C788 C787 1.398 . S
C788 C789 1.391 . S
C789 H777 0.950 . S
C789 C785 1.393 . S
C789 C788 1.391 . S
C790 H780 0.950 . S
C790 C791 1.386 . S
C790 C792 1.391 . S
C791 C790 1.386 . S
C791 C795 1.393 . S
C792 H781 0.950 . S
C792 C790 1.391 . S
C792 C793 1.400 . S
C793 C787 1.491 1_455 S
C793 C792 1.400 . S
C793 C794 1.398 . S
C794 H782 0.950 . S
C794 C793 1.398 . S
C794 C795 1.391 . S
C795 H783 0.950 . S
C795 C791 1.393 . S
C795 C794 1.391 . S
H796 C804 0.950 . S
H797 C809 0.950 . S
H798 C806 0.950 . S
H799 C808 0.950 . S
H800 C810 0.950 . S
H801 C812 0.950 . S
H802 C814 0.950 . S
H803 C815 0.950 . S
C804 H796 0.950 . S
C804 C805 1.386 . S
C804 C806 1.391 . S
C805 C804 1.386 . S
C805 C809 1.393 1_554 S
C806 H798 0.950 . S
C806 C804 1.391 . S
C806 C807 1.400 . S
C807 C806 1.400 . S
C807 C808 1.398 1_554 S
C807 C813 1.489 1_544 S
C808 H799 0.950 . S
C808 C807 1.398 1_556 S
C808 C809 1.391 . S
C809 H797 0.950 . S
C809 C805 1.393 1_556 S
C809 C808 1.391 . S
C810 H800 0.950 . S
C810 C811 1.386 . S
C810 C812 1.391 . S
C811 C810 1.386 . S
C811 C815 1.393 1_556 S
C812 H801 0.950 . S
C812 C810 1.391 . S
C812 C813 1.424 . S
C813 C807 1.489 1_566 S
C813 C812 1.424 . S
C813 C814 1.377 1_556 S
C814 H802 0.950 . S
C814 C813 1.377 1_554 S
C814 C815 1.391 . S
C815 H803 0.950 . S
C815 C811 1.393 1_554 S
C815 C814 1.391 . S
H816 C824 0.950 . S
H817 C829 0.950 . S
H818 C826 0.950 . S
H819 C828 0.950 . S
H820 C830 0.950 . S
H821 C832 0.950 . S
H822 C834 0.950 . S
H823 C835 0.950 . S
C824 H816 0.950 . S
C824 C825 1.386 . S
C824 C826 1.391 . S
C825 C824 1.386 . S
C825 C829 1.393 . S
C826 H818 0.950 . S
C826 C824 1.391 . S
C826 C827 1.400 . S
C827 C826 1.400 . S
C827 C828 1.398 . S
C827 C833 1.491 . S
C828 H819 0.950 . S
C828 C827 1.398 . S
C828 C829 1.391 . S
C829 H817 0.950 . S
C829 C825 1.393 . S
C829 C828 1.391 . S
C830 H820 0.950 . S
C830 C831 1.386 . S
C830 C832 1.391 . S
C831 C830 1.386 . S
C831 C835 1.393 . S
C832 H821 0.950 . S
C832 C830 1.391 . S
C832 C833 1.400 . S
C833 C827 1.491 . S
C833 C832 1.400 . S
C833 C834 1.398 . S
C834 H822 0.950 . S
C834 C833 1.398 . S
C834 C835 1.391 . S
C835 H823 0.950 . S
C835 C831 1.393 . S
C835 C834 1.391 . S
H836 C844 0.950 . S
H837 C849 0.950 . S
H838 C846 0.950 . S
H839 C848 0.950 . S
H840 C850 0.950 . S
H841 C852 0.950 . S
H842 C854 0.950 . S
H843 C855 0.950 . S
C844 H836 0.950 . S
C844 C845 1.386 . S
C844 C846 1.391 . S
C845 C844 1.386 . S
C845 C849 1.393 . S
C846 H838 0.950 . S
C846 C844 1.391 . S
C846 C847 1.400 . S
C847 C846 1.400 . S
C847 C848 1.398 . S
C847 C853 1.491 1_455 S
C848 H839 0.950 . S
C848 C847 1.398 . S
C848 C849 1.391 . S
C849 H837 0.950 . S
C849 C845 1.393 . S
C849 C848 1.391 . S
C850 H840 0.950 . S
C850 C851 1.386 . S
C850 C852 1.391 . S
C851 C850 1.386 . S
C851 C855 1.393 . S
C852 H841 0.950 . S
C852 C850 1.391 . S
C852 C853 1.400 . S
C853 C847 1.491 1_655 S
C853 C852 1.400 . S
C853 C854 1.398 . S
C854 H842 0.950 . S
C854 C853 1.398 . S
C854 C855 1.391 . S
C855 H843 0.950 . S
C855 C851 1.393 . S
C855 C854 1.391 . S
H856 C864 0.950 . S
H857 C869 0.950 . S
H858 C866 0.950 . S
H859 C868 0.950 . S
H860 C870 0.950 . S
H861 C872 0.950 . S
H862 C874 0.950 . S
H863 C875 0.950 . S
C864 H856 0.950 . S
C864 C865 1.386 1_554 S
C864 C866 1.391 . S
C865 C864 1.386 1_556 S
C865 C869 1.393 . S
C866 H858 0.950 . S
C866 C864 1.391 . S
C866 C867 1.400 1_554 S
C867 C866 1.400 1_556 S
C867 C868 1.398 . S
C867 C873 1.491 1_546 S
C868 H859 0.950 . S
C868 C867 1.398 . S
C868 C869 1.391 . S
C869 H857 0.950 . S
C869 C865 1.393 . S
C869 C868 1.391 . S
C870 H860 0.950 . S
C870 C871 1.386 1_556 S
C870 C872 1.391 . S
C871 C870 1.386 1_554 S
C871 C875 1.393 . S
C872 H861 0.950 . S
C872 C870 1.391 . S
C872 C873 1.400 1_556 S
C873 C867 1.491 1_564 S
C873 C872 1.400 1_554 S
C873 C874 1.398 . S
C874 H862 0.950 . S
C874 C873 1.398 . S
C874 C875 1.391 . S
C875 H863 0.950 . S
C875 C871 1.393 . S
C875 C874 1.391 . S
H876 C884 0.950 . S
H877 C889 0.950 . S
H878 C886 0.950 . S
H879 C888 0.950 . S
H880 C890 0.950 . S
H881 C892 0.950 . S
H882 C894 0.950 . S
H883 C895 0.950 . S
C884 H876 0.950 . S
C884 C885 1.386 . S
C884 C886 1.391 . S
C885 C884 1.386 . S
C885 C889 1.393 . S
C886 H878 0.950 . S
C886 C884 1.391 . S
C886 C887 1.400 . S
C887 C886 1.400 . S
C887 C888 1.398 . S
C887 C893 1.491 . S
C888 H879 0.950 . S
C888 C887 1.398 . S
C888 C889 1.391 . S
C889 H877 0.950 . S
C889 C885 1.393 . S
C889 C888 1.391 . S
C890 H880 0.950 . S
C890 C891 1.386 . S
C890 C892 1.391 . S
C891 C890 1.386 . S
C891 C895 1.393 . S
C892 H881 0.950 . S
C892 C890 1.391 . S
C892 C893 1.400 . S
C893 C887 1.491 . S
C893 C892 1.400 . S
C893 C894 1.398 . S
C894 H882 0.950 . S
C894 C893 1.398 . S
C894 C895 1.391 . S
C895 H883 0.950 . S
C895 C891 1.393 . S
C895 C894 1.391 . S
H896 C904 0.950 . S
H897 C909 0.950 . S
H898 C906 0.950 . S
H899 C908 0.950 . S
H900 C910 0.950 . S
H901 C912 0.950 . S
H902 C914 0.950 . S
H903 C915 0.950 . S
C904 H896 0.950 . S
C904 C905 1.386 . S
C904 C906 1.391 . S
C905 C904 1.386 . S
C905 C909 1.393 . S
C906 H898 0.950 . S
C906 C904 1.391 . S
C906 C907 1.400 . S
C907 C906 1.400 . S
C907 C908 1.398 . S
C907 C913 1.491 . S
C908 H899 0.950 . S
C908 C907 1.398 . S
C908 C909 1.391 . S
C909 H897 0.950 . S
C909 C905 1.393 . S
C909 C908 1.391 . S
C910 H900 0.950 . S
C910 C911 1.386 . S
C910 C912 1.391 . S
C911 C910 1.386 . S
C911 C915 1.393 . S
C912 H901 0.950 . S
C912 C910 1.391 . S
C912 C913 1.400 . S
C913 C907 1.491 . S
C913 C912 1.400 . S
C913 C914 1.398 . S
C914 H902 0.950 . S
C914 C913 1.398 . S
C914 C915 1.391 . S
C915 H903 0.950 . S
C915 C911 1.393 . S
C915 C914 1.391 . S
H916 C924 0.950 . S
H917 C929 0.950 1_554 S
H918 C926 0.950 . S
H919 C928 0.950 . S
H920 C930 0.950 . S
H921 C932 0.950 . S
H922 C934 0.950 . S
H923 C935 0.950 1_556 S
C924 H916 0.950 . S
C924 C925 1.386 . S
C924 C926 1.391 . S
C925 C924 1.386 . S
C925 C929 1.393 . S
C926 H918 0.950 . S
C926 C924 1.391 . S
C926 C927 1.400 . S
C927 C926 1.400 . S
C927 C928 1.398 1_556 S
C927 C933 1.491 1_556 S
C928 H919 0.950 . S
C928 C927 1.398 1_554 S
C928 C929 1.391 1_554 S
C929 H917 0.950 1_556 S
C929 C925 1.393 . S
C929 C928 1.391 1_556 S
C930 H920 0.950 . S
C930 C931 1.386 . S
C930 C932 1.391 . S
C931 C930 1.386 . S
C931 C935 1.393 . S
C932 H921 0.950 . S
C932 C930 1.391 . S
C932 C933 1.400 . S
C933 C927 1.491 1_554 S
C933 C932 1.400 . S
C933 C934 1.398 1_554 S
C934 H922 0.950 . S
C934 C933 1.398 1_556 S
C934 C935 1.391 1_556 S
C935 H923 0.950 1_554 S
C935 C931 1.393 . S
C935 C934 1.391 1_554 S
H936 C944 0.950 . S
H937 C949 0.950 . S
H938 C946 0.950 . S
H939 C948 0.950 . S
H940 C950 0.950 . S
H941 C952 0.950 . S
H942 C954 0.950 . S
H943 C955 0.950 . S
C944 H936 0.950 . S
C944 C945 1.386 . S
C944 C946 1.391 . S
C945 C944 1.386 . S
C945 C949 1.393 . S
C946 H938 0.950 . S
C946 C944 1.391 . S
C946 C947 1.400 . S
C947 C946 1.400 . S
C947 C948 1.398 . S
C947 C953 1.491 . S
C948 H939 0.950 . S
C948 C947 1.398 . S
C948 C949 1.391 . S
C949 H937 0.950 . S
C949 C945 1.393 . S
C949 C948 1.391 . S
C950 H940 0.950 . S
C950 C951 1.386 . S
C950 C952 1.391 . S
C951 C950 1.386 . S
C951 C955 1.393 . S
C952 H941 0.950 . S
C952 C950 1.391 . S
C952 C953 1.400 . S
C953 C947 1.491 . S
C953 C952 1.400 . S
C953 C954 1.398 . S
C954 H942 0.950 . S
C954 C953 1.398 . S
C954 C955 1.391 . S
C955 H943 0.950 . S
C955 C951 1.393 . S
C955 C954 1.391 . S
H956 C964 0.950 . S
H957 C969 0.950 . S
H958 C966 0.950 . S
H959 C968 0.950 . S
H960 C970 0.950 . S
H961 C972 0.950 . S
H962 C974 0.950 . S
H963 C975 0.950 . S
C964 H956 0.950 . S
C964 C965 1.386 . S
C964 C966 1.391 . S
C965 C964 1.386 . S
C965 C969 1.393 . S
C966 H958 0.950 . S
C966 C964 1.391 . S
C966 C967 1.400 . S
C967 C966 1.400 . S
C967 C968 1.398 . S
C967 C973 1.491 . S
C968 H959 0.950 . S
C968 C967 1.398 . S
C968 C969 1.391 . S
C969 H957 0.950 . S
C969 C965 1.393 . S
C969 C968 1.391 . S
C970 H960 0.950 . S
C970 C971 1.386 . S
C970 C972 1.391 . S
C971 C970 1.386 . S
C971 C975 1.393 . S
C972 H961 0.950 . S
C972 C970 1.391 . S
C972 C973 1.400 . S
C973 C967 1.491 . S
C973 C972 1.400 . S
C973 C974 1.398 . S
C974 H962 0.950 . S
C974 C973 1.398 . S
C974 C975 1.391 . S
C975 H963 0.950 . S
C975 C971 1.393 . S
C975 C974 1.391 . S
H976 C984 0.950 . S
H977 C989 0.950 . S
H978 C986 0.950 . S
H979 C988 0.950 . S
H980 C990 0.950 . S
H981 C992 0.950 . S
H982 C994 0.950 . S
H983 C995 0.950 . S
C984 H976 0.950 . S
C984 C985 1.386 . S
C984 C986 1.391 . S
C985 C984 1.386 . S
C985 C989 1.393 1_556 S
C986 H978 0.950 . S
C986 C984 1.391 . S
C986 C987 1.400 . S
C987 C986 1.400 . S
C987 C988 1.398 1_556 S
C987 C993 1.491 1_556 S
C988 H979 0.950 . S
C988 C987 1.398 1_554 S
C988 C989 1.391 . S
C989 H977 0.950 . S
C989 C985 1.393 1_554 S
C989 C988 1.391 . S
C990 H980 0.950 . S
C990 C991 1.386 . S
C990 C992 1.391 . S
C991 C990 1.386 . S
C991 C995 1.393 1_554 S
C992 H981 0.950 . S
C992 C990 1.391 . S
C992 C993 1.400 . S
C993 C987 1.491 1_554 S
C993 C992 1.400 . S
C993 C994 1.398 1_554 S
C994 H982 0.950 . S
C994 C993 1.398 1_556 S
C994 C995 1.391 . S
C995 H983 0.950 . S
C995 C991 1.393 1_556 S
C995 C994 1.391 . S
C405 C381 1.908 . S
C411 C18 1.897 . S
C425 C216 1.989 . S
C431 C51 1.995 . S
C445 C84 1.910 . S
C451 C249 1.901 . S
C465 C282 1.910 . S
C471 C117 1.902 . S
C485 C315 1.997 . S
C491 C150 1.996 . S
C505 C348 1.910 . S
C511 C183 1.901 . S
C525 C7 0.542 . S
C531 C337 0.578 . S
C545 C40 0.562 . S
C551 C370 0.543 . S
C565 C205 0.543 . S
C571 C73 0.549 . S
C585 C238 0.520 . S
C591 C106 0.495 . S
C605 C271 0.543 . S
C611 C139 0.575 . S
C625 C172 0.616 . S
C631 C304 0.626 . S
C645 N112 1.269 . S
C651 N13 1.283 . S
C665 N46 1.295 . S
C671 N145 1.284 . S
C685 N178 1.296 . S
C691 N79 1.281 . S
C705 N211 1.276 . S
C711 N310 1.290 . S
C725 N244 1.269 . S
C731 N343 1.286 . S
C745 N376 1.276 . S
C751 N277 1.289 . S
C765 N2 0.942 . S
C771 N299 0.930 . S
C785 N35 0.951 . S
C791 N332 0.959 . S
C805 N365 0.942 . S
C811 N68 0.932 . S
C825 N101 0.945 . S
C831 N200 0.931 . S
C845 N134 0.937 . S
C851 N233 0.952 . S
C865 N167 0.917 . S
C871 N266 0.925 . S
C885 C219 1.697 . S
C891 C21 1.695 . S
C905 C252 1.696 . S
C911 C54 1.696 . S
C925 C87 1.692 . S
C931 C285 1.691 . S
C945 C318 1.688 . S
C951 C120 1.689 . S
C965 C153 1.698 . S
C971 C351 1.698 . S
C985 C186 1.686 . S
C991 C384 1.685 . S
