# Generated by pormake.
# Topology sma, (6)-cn, num edge types: 1
# Building blocks:
#     Node 0, Type 0, BuildingBlock: BETFEN_clean_sbu_0, # of connection points: 6
#     Node 1, Type 0, BuildingBlock: BETFEN_clean_sbu_0, # of connection points: 6
#     Node 2, Type 0, BuildingBlock: BETFEN_clean_sbu_0, # of connection points: 6
#     Edge 3, Type (0, 0), BuildingBlock: XIVTED_clean_linker_0, # of connection points: 2
#     Edge 4, Type (0, 0), BuildingBlock: XIVTED_clean_linker_0, # of connection points: 2
#     Edge 5, Type (0, 0), BuildingBlock: XIVTED_clean_linker_0, # of connection points: 2
#     Edge 6, Type (0, 0), BuildingBlock: XIVTED_clean_linker_0, # of connection points: 2
#     Edge 7, Type (0, 0), BuildingBlock: XIVTED_clean_linker_0, # of connection points: 2
#     Edge 8, Type (0, 0), BuildingBlock: XIVTED_clean_linker_0, # of connection points: 2
#     Edge 9, Type (0, 0), BuildingBlock: XIVTED_clean_linker_0, # of connection points: 2
#     Edge 10, Type (0, 0), BuildingBlock: XIVTED_clean_linker_0, # of connection points: 2
#     Edge 11, Type (0, 0), BuildingBlock: XIVTED_clean_linker_0, # of connection points: 2
# Relax obj value: 0.131
# Max RMSD: 0.256
# Mean RMSD: 0.202
data_MOF--net-sma--node1-BETFEN_clean_sbu_0--edge1-XIVTED_clean_linker_0
_symmetry_space_group_name_H-M    P1
_symmetry_Int_Tables_number       1
_symmetry_cell_setting            triclinic
loop_
_symmetry_equiv_pos_as_xyz
'x, y, z'
_cell_length_a     31.170135
_cell_length_b     41.054536
_cell_length_c     14.224022
_cell_angle_alpha  90.496115
_cell_angle_beta   95.388633
_cell_angle_gamma 98.832315
loop_
_atom_site_label
_atom_site_type_symbol
_atom_site_fract_x
_atom_site_fract_y
_atom_site_fract_z
_atom_type_partial_charge
Pr0 Pr 0.08886 0.50414 0.04797 0.0
Pr1 Pr 0.09888 0.57787 -0.01227 0.0
C2 C 0.07157 0.44738 0.14144 0.0
C3 C 1.03674 0.41931 0.15575 0.0
C4 C 1.034 0.38964 0.10387 0.0
C5 C 1.00384 0.3621 0.12238 0.0
C6 C 0.97582 0.36335 0.19389 0.0
C7 C 0.97797 0.39324 0.24464 0.0
C8 C 1.00816 0.42085 0.22603 0.0
C9 C 0.0848 0.51245 0.85521 0.0
C10 C 0.99949 0.54039 -0.00184 0.0
C11 C 0.12124 0.64007 0.93029 0.0
C12 C 0.14533 0.66974 -0.01866 0.0
C13 C 0.15043 0.67069 0.08045 0.0
C14 C 0.17394 0.69831 0.12986 0.0
C15 C 0.19332 0.7256 0.08132 0.0
C16 C 0.18814 0.72453 -0.01829 0.0
C17 C 0.16436 0.69681 0.93222 0.0
C18 C 0.1053 0.56791 0.18095 0.0
C19 C 0.18401 0.53776 -0.00964 0.0
O20 O 0.06856 0.47632 0.17761 0.0
O21 O 0.0877 0.44912 0.05955 0.0
O22 O 0.06816 0.52937 0.91195 0.0
O23 O 0.10049 0.48796 0.89573 0.0
O24 O 1.0237 0.56406 -0.04423 0.0
O25 O 1.0169 0.51696 0.04468 0.0
O26 O 0.14399 0.61657 0.916 0.0
O27 O 0.08297 0.62897 -0.04208 0.0
O28 O 0.12208 0.55228 0.12175 0.0
O29 O 0.08621 0.59084 0.14196 0.0
O30 O 0.16492 0.51567 0.04658 0.0
O31 O 0.16309 0.56026 0.94927 0.0
H32 H 1.05574 0.38745 0.04984 0.0
H33 H 1.00272 0.33971 0.08082 0.0
H34 H 0.9573 0.39505 0.30095 0.0
H35 H 1.00972 0.44316 0.26824 0.0
H36 H 0.13622 0.64999 0.11987 0.0
H37 H 0.17653 0.69835 0.20631 0.0
H38 H 0.20304 0.74487 0.94189 0.0
H39 H 0.16111 0.69643 0.85571 0.0
Pr40 Pr 0.62948 0.04296 0.51322 0.0
Pr41 Pr 0.53329 1.02636 0.55852 0.0
C42 C 0.70216 0.06562 0.43004 0.0
C43 C 0.72869 0.09723 0.40832 0.0
C44 C 0.77409 0.10137 0.42886 0.0
C45 C 0.80019 0.1306 0.40673 0.0
C46 C 0.78149 0.15641 0.36288 0.0
C47 C 0.73579 0.15237 0.34362 0.0
C48 C 0.70965 0.12312 0.36626 0.0
C49 C 0.61907 0.04277 0.70375 0.0
C50 C 0.57077 0.10416 0.54523 0.0
C51 C 0.45393 0.99914 0.60332 0.0
C52 C 0.4217 0.97326 0.55252 0.0
C53 C 0.41937 0.97025 0.45362 0.0
C54 C 0.39177 0.94416 0.40535 0.0
C55 C 0.36611 0.92023 0.45484 0.0
C56 C 0.3682 0.92344 0.55396 0.0
C57 C 0.39575 0.94975 0.60232 0.0
C58 C 0.54627 1.0242 0.36836 0.0
C59 C 0.59821 0.96847 0.57997 0.0
O60 O 0.66356 0.05798 0.38337 0.0
O61 O 0.70292 0.05754 0.51891 0.0
O62 O 0.5945 0.05416 0.64128 0.0
O63 O 0.65278 0.03343 0.67022 0.0
O64 O 0.54318 0.08298 0.58826 0.0
O65 O 0.60225 0.09412 0.50105 0.0
O66 O 0.48985 0.98949 0.63973 0.0
O67 O 0.46104 1.02747 0.56152 0.0
O68 O 0.56921 1.01289 0.43353 0.0
O69 O 0.51433 0.03631 0.39966 0.0
O70 O 0.62532 0.98547 0.52547 0.0
O71 O 0.5652 0.9809 0.61012 0.0
H72 H 0.78948 0.08184 0.4618 0.0
H73 H 0.83509 0.133 0.42451 0.0
H74 H 0.72021 0.17151 0.30921 0.0
H75 H 0.67464 0.12067 0.34999 0.0
H76 H 0.43968 0.98768 0.41355 0.0
H77 H 0.39161 0.94218 0.32933 0.0
H78 H 0.34865 0.90556 0.59417 0.0
H79 H 0.39739 0.9514 0.67866 0.0
Pr80 Pr 0.57588 0.50506 0.80519 0.0
Pr81 Pr 0.59531 0.58163 0.86715 0.0
C82 C 0.54914 0.44665 0.71331 0.0
C83 C 0.55541 0.41204 0.6998 0.0
C84 C 0.51889 0.38738 0.69894 0.0
C85 C 0.52262 0.35436 0.68353 0.0
C86 C 0.5631 0.34508 0.66864 0.0
C87 C 0.59983 0.36988 0.66927 0.0
C88 C 0.59604 0.40311 0.68485 0.0
C89 C 0.58778 0.51776 -0.00369 0.0
C90 C 0.67612 0.53567 0.88155 0.0
C91 C 0.62176 0.64414 0.93233 0.0
C92 C 0.62297 0.67743 0.89353 0.0
C93 C 0.6176 0.68197 0.7956 0.0
C94 C 0.61862 0.71372 0.75953 0.0
C95 C 0.6248 0.74151 0.82077 0.0
C96 C 0.63054 0.73673 0.91887 0.0
C97 C 0.62962 0.70502 -0.04523 0.0
C98 C 0.58498 0.56764 0.67525 0.0
C99 C 0.49343 0.5471 0.83674 0.0
O100 O 0.57669 0.47027 0.68078 0.0
O101 O 0.53476 0.45451 0.79264 0.0
O102 O 0.56822 0.53406 0.93681 0.0
O103 O 0.59847 0.49129 -0.04049 0.0
O104 O 0.65998 0.56088 0.91591 0.0
O105 O 0.65192 0.51211 0.82722 0.0
O106 O 0.58318 0.62772 0.94326 0.0
O107 O 0.6478 0.62586 0.89837 0.0
O108 O 0.60464 0.5524 0.73676 0.0
O109 O 0.57189 0.59313 0.7109 0.0
O110 O 0.50679 0.52319 0.78912 0.0
O111 O 0.52112 0.57065 0.88327 0.0
H112 H 0.48715 0.39373 0.70936 0.0
H113 H 0.49347 0.33614 0.68174 0.0
H114 H 0.63156 0.36359 0.65879 0.0
H115 H 0.62474 0.42171 0.6851 0.0
H116 H 0.61236 0.66095 0.74707 0.0
H117 H 0.61358 0.71641 0.6838 0.0
H118 H 0.63593 0.75756 -0.03192 0.0
H119 H 0.63404 0.70203 0.03051 0.0
H120 H 0.23221 0.48655 0.00096 0.0
H121 H 0.4509 0.59824 0.87435 0.0
H122 H 0.23995 0.58932 0.93204 0.0
H123 H 0.42949 0.49274 0.82882 0.0
H124 H 0.37555 0.59521 0.91193 0.0
H125 H 0.30705 0.48795 -0.0433 0.0
C126 C 0.24971 0.50939 -0.02269 0.0
C127 C 0.22981 0.53784 -0.02986 0.0
C128 C 0.38717 0.57272 0.89294 0.0
C129 C 0.31497 0.53961 0.9198 0.0
C130 C 0.43017 0.57445 0.8713 0.0
C131 C 0.44642 0.54574 0.84783 0.0
C132 C 0.36027 0.54196 0.89308 0.0
C133 C 0.4181 0.51553 0.84548 0.0
C134 C 0.29217 0.5101 0.95135 0.0
C135 C 0.25384 0.56673 0.9383 0.0
N136 N 0.37647 0.51436 0.86887 0.0
N137 N 0.29508 0.5669 0.91487 0.0
H138 H 0.86148 0.16206 0.29313 0.0
H139 H 0.89153 0.35842 0.24319 0.0
H140 H 0.76608 0.22083 0.37041 0.0
H141 H 0.99155 0.29939 0.19965 0.0
H142 H 0.84369 0.30851 0.28388 0.0
H143 H 0.90796 0.21218 0.25233 0.0
C144 C 0.85033 0.1855 0.30225 0.0
C145 C 0.80974 0.18704 0.33612 0.0
C146 C 0.8761 0.30652 0.26529 0.0
C147 C 0.8629 0.24488 0.28757 0.0
C148 C 0.90355 0.33505 0.24242 0.0
C149 C 0.94574 0.33324 0.21753 0.0
C150 C 0.89085 0.27587 0.26332 0.0
C151 C 0.95914 0.30207 0.21665 0.0
C152 C 0.87688 0.21418 0.27826 0.0
C153 C 0.79683 0.21826 0.34389 0.0
N154 N 0.93187 0.27475 0.23915 0.0
N155 N 0.82332 0.24589 0.31996 0.0
H156 H 0.56055 0.93561 0.72323 0.0
H157 H 0.66073 0.76939 0.66413 0.0
H158 H 0.65076 0.92555 0.51613 0.0
H159 H 0.58577 0.79058 0.89099 0.0
H160 H 0.65661 0.82485 0.60361 0.0
H161 H 0.56874 0.88138 0.77995 0.0
C162 C 0.58213 0.92196 0.68914 0.0
C163 C 0.60482 0.9353 0.61404 0.0
C164 C 0.64129 0.81733 0.66685 0.0
C165 C 0.61447 0.87231 0.67993 0.0
C166 C 0.64339 0.78562 0.70118 0.0
C167 C 0.62366 0.77523 0.78313 0.0
C168 C 0.61898 0.83869 0.71431 0.0
C169 C 0.60204 0.79751 0.82856 0.0
C170 C 0.58691 0.89083 0.72215 0.0
C171 C 0.63263 0.91628 0.57411 0.0
N172 N 0.60019 0.82796 0.79344 0.0
N173 N 0.63653 0.88561 0.60725 0.0
H174 H 0.72008 0.48264 0.86983 0.0
H175 H 0.95457 0.59128 -0.04084 0.0
H176 H 0.73963 0.58636 0.94472 0.0
H177 H 0.93544 0.48697 0.01236 0.0
H178 H 0.87561 0.5892 0.93539 0.0
H179 H 0.79892 0.4828 0.90433 0.0
C180 C 0.74086 0.50538 0.8936 0.0
C181 C 0.72321 0.53453 0.90437 0.0
C182 C 0.88865 0.56678 0.95271 0.0
C183 C 0.81309 0.53491 0.94268 0.0
C184 C 0.93372 0.56791 -0.03405 0.0
C185 C 0.9516 0.53925 -0.01221 0.0
C186 C 0.86107 0.53665 -0.04045 0.0
C187 C 0.92297 0.50968 -0.00391 0.0
C188 C 0.78573 0.5054 0.91363 0.0
C189 C 0.75166 0.56326 0.93575 0.0
N190 N 0.87902 0.50905 -0.01897 0.0
N191 N 0.79514 0.56278 0.95291 0.0
H192 H 0.35474 0.85522 0.50479 0.0
H193 H 0.19664 0.79141 0.04068 0.0
H194 H 0.31526 0.91962 0.28591 0.0
H195 H 0.24835 0.72671 0.24465 0.0
H196 H 0.23765 0.83881 0.13177 0.0
H197 H 0.31244 0.80811 0.41467 0.0
C198 C 0.33683 0.85952 0.43824 0.0
C199 C 0.33865 0.8915 0.40299 0.0
C200 C 0.23999 0.81422 0.15657 0.0
C201 C 0.29045 0.83749 0.29856 0.0
C202 C 0.21678 0.78708 0.10418 0.0
C203 C 0.2188 0.75486 0.13487 0.0
C204 C 0.26544 0.80924 0.2406 0.0
C205 C 0.24505 0.751 0.21879 0.0
C206 C 0.31295 0.83255 0.38637 0.0
C207 C 0.31526 0.89541 0.31543 0.0
N208 N 0.26721 0.77778 0.26858 0.0
N209 N 0.29219 0.86878 0.26635 0.0
H210 H 0.52258 0.29142 0.75663 0.0
H211 H 0.62211 0.15646 0.47028 0.0
H212 H 0.61105 0.31766 0.54389 0.0
H213 H 0.51682 0.13372 0.64746 0.0
H214 H 0.62177 0.21539 0.49995 0.0
H215 H 0.5241 0.23339 0.72304 0.0
C216 C 0.54224 0.28501 0.70245 0.0
C217 C 0.56635 0.30962 0.65237 0.0
C218 C 0.59867 0.19744 0.53191 0.0
C219 C 0.56864 0.24275 0.61406 0.0
C220 C 0.59877 0.16378 0.51489 0.0
C221 C 0.56945 0.13998 0.55645 0.0
C222 C 0.56928 0.20736 0.59144 0.0
C223 C 0.54003 0.15103 0.61375 0.0
C224 C 0.54319 0.25177 0.68347 0.0
C225 C 0.59211 0.29962 0.5847 0.0
N226 N 0.54086 0.18379 0.62978 0.0
N227 N 0.59249 0.26696 0.56732 0.0
H228 H 1.05533 0.56346 0.76342 0.0
H229 H 0.14193 0.51965 0.27393 0.0
H230 H 0.12157 0.48015 0.72347 0.0
H231 H 0.06836 0.59878 0.31382 0.0
H232 H 0.13781 0.50584 0.4402 0.0
H233 H 1.06229 0.5778 0.59924 0.0
C234 C 0.07116 0.54811 0.71966 0.0
C235 C 0.08771 0.52052 0.75612 0.0
C236 C 0.12267 0.52626 0.41253 0.0
C237 C 0.09604 0.53679 0.56907 0.0
C238 C 0.12507 0.53413 0.318 0.0
C239 C 0.10522 0.56021 0.28085 0.0
C240 C 0.10042 0.54477 0.46953 0.0
C241 C 0.08394 0.5784 0.34015 0.0
C242 C 0.07523 0.55632 0.62614 0.0
C243 C 0.10822 0.50154 0.69728 0.0
N244 N 0.08201 0.57027 0.43178 0.0
N245 N 0.11184 0.51005 0.60616 0.0
H246 H 0.50107 0.04981 0.22261 0.0
H247 H 0.66506 1.01568 0.84718 0.0
H248 H 0.61206 1.00016 0.29066 0.0
H249 H 0.55034 0.06137 0.78165 0.0
H250 H 0.64646 1.00917 0.01013 0.0
H251 H 0.51839 0.05326 0.05924 0.0
C252 C 0.52904 0.03954 0.20279 0.0
C253 C 0.55543 1.0249 0.26957 0.0
C254 C 0.62541 1.02062 -0.04001 0.0
C255 C 0.57558 1.02884 0.08364 0.0
C256 C 0.63609 1.02442 0.86741 0.0
C257 C 0.60928 0.03924 0.80182 0.0
C258 C 0.58775 0.03178 -0.01371 0.0
C259 C 0.57195 0.04995 0.83059 0.0
C260 C 0.53896 0.04153 0.1097 0.0
C261 C 0.59116 1.01184 0.24081 0.0
N262 N 0.56231 0.04604 0.92094 0.0
N263 N 0.60039 1.01425 0.14963 0.0
H264 H 0.55188 0.60133 0.52873 0.0
H265 H 0.62182 0.48368 0.14122 0.0
H266 H 0.62293 0.5208 0.59587 0.0
H267 H 0.56709 0.57227 0.07649 0.0
H268 H 0.62457 0.49753 0.30952 0.0
H269 H 0.5577 0.59128 0.36113 0.0
C270 C 0.56846 0.58147 0.50784 0.0
C271 C 0.58651 0.56159 0.57503 0.0
C272 C 0.61225 0.51402 0.25829 0.0
C273 C 0.5936 0.5501 0.38571 0.0
C274 C 0.61072 0.50611 0.16274 0.0
C275 C 0.5936 0.52664 0.09615 0.0
C276 C 0.59633 0.5425 0.28605 0.0
C277 C 0.57995 0.5556 0.12637 0.0
C278 C 0.57202 0.57583 0.41269 0.0
C279 C 0.60803 0.53633 0.54553 0.0
N280 N 0.58127 0.56256 0.21956 0.0
N281 N 0.61089 0.53121 0.45262 0.0
loop_
_geom_bond_atom_site_label_1
_geom_bond_atom_site_label_2
_geom_bond_distance
_geom_bond_site_symmetry_2
_ccdc_geom_bond_type
Pr0 C2 2.880 1_455 S
Pr0 O20 2.562 1_455 S
Pr0 O21 2.490 1_455 S
Pr0 O22 2.695 . S
Pr0 O23 2.512 1_554 S
Pr0 O25 2.437 1_455 S
Pr0 O28 2.436 . S
Pr0 O30 2.438 . S
Pr1 C11 2.880 . S
Pr1 O22 2.436 . S
Pr1 O24 2.438 1_455 S
Pr1 O26 2.562 . S
Pr1 O27 2.490 . S
Pr1 O28 2.695 . S
Pr1 O29 2.512 . S
Pr1 O31 2.437 . S
C2 Pr0 2.880 1_655 S
C2 C3 1.491 . S
C2 O20 1.254 . S
C2 O21 1.225 . S
C3 C2 1.491 . S
C3 C4 1.392 . S
C3 C8 1.356 . S
C4 C3 1.392 . S
C4 C5 1.368 . S
C4 H32 0.929 1_554 S
C5 C4 1.368 . S
C5 C6 1.386 . S
C5 H33 0.929 . S
C6 C5 1.386 . S
C6 C7 1.373 . S
C7 C6 1.373 . S
C7 C8 1.409 . S
C7 H34 0.931 . S
C8 C3 1.356 . S
C8 C7 1.409 . S
C8 H35 0.930 . S
C9 O22 1.270 1_556 S
C9 O23 1.248 . S
C10 O24 1.267 . S
C10 O25 1.278 . S
C11 Pr1 2.880 . S
C11 C12 1.491 . S
C11 O26 1.254 . S
C11 O27 1.225 . S
C12 C11 1.491 . S
C12 C13 1.392 . S
C12 C17 1.356 . S
C13 C12 1.392 . S
C13 C14 1.368 . S
C13 H36 0.929 . S
C14 C13 1.368 . S
C14 C15 1.386 . S
C14 H37 0.929 . S
C15 C14 1.386 . S
C15 C16 1.373 . S
C16 C15 1.373 . S
C16 C17 1.409 . S
C16 H38 0.931 1_554 S
C17 C12 1.356 . S
C17 C16 1.409 . S
C17 H39 0.930 1_554 S
C18 O28 1.270 . S
C18 O29 1.248 . S
C19 O30 1.267 . S
C19 O31 1.278 . S
O20 Pr0 2.562 1_655 S
O20 C2 1.254 . S
O21 Pr0 2.490 1_655 S
O21 C2 1.225 . S
O22 Pr0 2.695 . S
O22 Pr1 2.436 . S
O22 C9 1.270 1_554 S
O23 Pr0 2.512 1_556 S
O23 C9 1.248 . S
O24 Pr1 2.438 1_655 S
O24 C10 1.267 . S
O25 Pr0 2.437 1_655 S
O25 C10 1.278 . S
O26 Pr1 2.562 . S
O26 C11 1.254 . S
O27 Pr1 2.490 . S
O27 C11 1.225 . S
O28 Pr0 2.436 . S
O28 Pr1 2.695 . S
O28 C18 1.270 . S
O29 Pr1 2.512 . S
O29 C18 1.248 . S
O30 Pr0 2.438 . S
O30 C19 1.267 . S
O31 Pr1 2.437 . S
O31 C19 1.278 . S
H32 C4 0.929 1_556 S
H33 C5 0.929 . S
H34 C7 0.931 . S
H35 C8 0.930 . S
H36 C13 0.929 . S
H37 C14 0.929 . S
H38 C16 0.931 1_556 S
H39 C17 0.930 1_556 S
Pr40 C42 2.880 . S
Pr40 O60 2.562 . S
Pr40 O61 2.490 . S
Pr40 O62 2.695 . S
Pr40 O63 2.512 . S
Pr40 O65 2.437 . S
Pr40 O68 2.436 . S
Pr40 O70 2.438 1_545 S
Pr41 C51 2.880 . S
Pr41 O62 2.436 1_565 S
Pr41 O64 2.438 1_565 S
Pr41 O66 2.562 . S
Pr41 O67 2.490 . S
Pr41 O68 2.695 1_565 S
Pr41 O69 2.512 . S
Pr41 O71 2.437 . S
C42 Pr40 2.880 . S
C42 C43 1.491 . S
C42 O60 1.254 . S
C42 O61 1.225 . S
C43 C42 1.491 . S
C43 C44 1.392 . S
C43 C48 1.356 . S
C44 C43 1.392 . S
C44 C45 1.368 . S
C44 H72 0.929 . S
C45 C44 1.368 . S
C45 C46 1.386 . S
C45 H73 0.929 . S
C46 C45 1.386 . S
C46 C47 1.373 . S
C47 C46 1.373 . S
C47 C48 1.409 . S
C47 H74 0.931 . S
C48 C43 1.356 . S
C48 C47 1.409 . S
C48 H75 0.930 . S
C49 O62 1.270 . S
C49 O63 1.248 . S
C50 O64 1.267 . S
C50 O65 1.278 . S
C51 Pr41 2.880 . S
C51 C52 1.491 . S
C51 O66 1.254 . S
C51 O67 1.225 . S
C52 C51 1.491 . S
C52 C53 1.392 . S
C52 C57 1.356 . S
C53 C52 1.392 . S
C53 C54 1.368 . S
C53 H76 0.929 . S
C54 C53 1.368 . S
C54 C55 1.386 . S
C54 H77 0.929 . S
C55 C54 1.386 . S
C55 C56 1.373 . S
C56 C55 1.373 . S
C56 C57 1.409 . S
C56 H78 0.931 . S
C57 C52 1.356 . S
C57 C56 1.409 . S
C57 H79 0.930 . S
C58 O68 1.270 . S
C58 O69 1.238 1_545 S
C59 O70 1.267 . S
C59 O71 1.278 . S
O60 Pr40 2.562 . S
O60 C42 1.254 . S
O61 Pr40 2.490 . S
O61 C42 1.225 . S
O62 Pr40 2.695 . S
O62 Pr41 2.436 1_545 S
O62 C49 1.270 . S
O63 Pr40 2.512 . S
O63 C49 1.248 . S
O64 Pr41 2.438 1_545 S
O64 C50 1.267 . S
O65 Pr40 2.437 . S
O65 C50 1.278 . S
O66 Pr41 2.562 . S
O66 C51 1.254 . S
O67 Pr41 2.490 . S
O67 C51 1.225 . S
O68 Pr40 2.436 . S
O68 Pr41 2.695 1_545 S
O68 C58 1.270 . S
O69 Pr41 2.512 . S
O69 C58 1.238 1_565 S
O70 Pr40 2.438 1_565 S
O70 C59 1.267 . S
O71 Pr41 2.437 . S
O71 C59 1.278 . S
H72 C44 0.929 . S
H73 C45 0.929 . S
H74 C47 0.931 . S
H75 C48 0.930 . S
H76 C53 0.929 . S
H77 C54 0.929 . S
H78 C56 0.931 . S
H79 C57 0.930 . S
Pr80 C82 2.880 . S
Pr80 O100 2.562 . S
Pr80 O101 2.490 . S
Pr80 O102 2.695 . S
Pr80 O103 2.512 1_556 S
Pr80 O105 2.437 . S
Pr80 O108 2.436 . S
Pr80 O110 2.438 . S
Pr81 C91 2.880 . S
Pr81 O102 2.436 . S
Pr81 O104 2.438 . S
Pr81 O106 2.562 . S
Pr81 O107 2.490 . S
Pr81 O108 2.695 . S
Pr81 O109 2.512 . S
Pr81 O111 2.437 . S
C82 Pr80 2.880 . S
C82 C83 1.491 . S
C82 O100 1.254 . S
C82 O101 1.225 . S
C83 C82 1.491 . S
C83 C84 1.392 . S
C83 C88 1.356 . S
C84 C83 1.392 . S
C84 C85 1.368 . S
C84 H112 0.929 . S
C85 C84 1.368 . S
C85 C86 1.386 . S
C85 H113 0.929 . S
C86 C85 1.386 . S
C86 C87 1.373 . S
C87 C86 1.373 . S
C87 C88 1.409 . S
C87 H114 0.931 . S
C88 C83 1.356 . S
C88 C87 1.409 . S
C88 H115 0.930 . S
C89 O102 1.270 1_554 S
C89 O103 1.248 . S
C90 O104 1.267 . S
C90 O105 1.278 . S
C91 Pr81 2.880 . S
C91 C92 1.491 . S
C91 O106 1.254 . S
C91 O107 1.225 . S
C92 C91 1.491 . S
C92 C93 1.392 . S
C92 C97 1.356 . S
C93 C92 1.392 . S
C93 C94 1.368 . S
C93 H116 0.929 . S
C94 C93 1.368 . S
C94 C95 1.386 . S
C94 H117 0.929 . S
C95 C94 1.386 . S
C95 C96 1.373 . S
C96 C95 1.373 . S
C96 C97 1.409 . S
C96 H118 0.931 1_556 S
C97 C92 1.356 . S
C97 C96 1.409 . S
C97 H119 0.930 . S
C98 O108 1.270 . S
C98 O109 1.248 . S
C99 O110 1.267 . S
C99 O111 1.278 . S
O100 Pr80 2.562 . S
O100 C82 1.254 . S
O101 Pr80 2.490 . S
O101 C82 1.225 . S
O102 Pr80 2.695 . S
O102 Pr81 2.436 . S
O102 C89 1.270 1_556 S
O103 Pr80 2.512 1_554 S
O103 C89 1.248 . S
O104 Pr81 2.438 . S
O104 C90 1.267 . S
O105 Pr80 2.437 . S
O105 C90 1.278 . S
O106 Pr81 2.562 . S
O106 C91 1.254 . S
O107 Pr81 2.490 . S
O107 C91 1.225 . S
O108 Pr80 2.436 . S
O108 Pr81 2.695 . S
O108 C98 1.270 . S
O109 Pr81 2.512 . S
O109 C98 1.248 . S
O110 Pr80 2.438 . S
O110 C99 1.267 . S
O111 Pr81 2.437 . S
O111 C99 1.278 . S
H112 C84 0.929 . S
H113 C85 0.929 . S
H114 C87 0.931 . S
H115 C88 0.930 . S
H116 C93 0.929 . S
H117 C94 0.929 . S
H118 C96 0.931 1_554 S
H119 C97 0.930 . S
H120 C126 0.930 . S
H121 C130 0.930 . S
H122 C135 0.929 . S
H123 C133 0.929 . S
H124 C128 0.929 . S
H125 C134 0.926 1_556 S
C126 H120 0.930 . S
C126 C127 1.367 . S
C126 C134 1.378 . S
C127 C126 1.367 . S
C127 C135 1.433 . S
C128 H124 0.929 . S
C128 C130 1.378 . S
C128 C132 1.350 . S
C129 C132 1.463 1_554 S
C129 C134 1.350 . S
C129 N137 1.427 . S
C130 H121 0.930 . S
C130 C128 1.378 . S
C130 C131 1.367 . S
C131 C130 1.367 . S
C131 C133 1.433 . S
C132 C128 1.350 . S
C132 C129 1.463 1_556 S
C132 N136 1.427 . S
C133 H123 0.929 . S
C133 C131 1.433 . S
C133 N136 1.384 . S
C134 H125 0.926 1_554 S
C134 C126 1.378 . S
C134 C129 1.350 . S
C135 H122 0.929 . S
C135 C127 1.433 . S
C135 N137 1.384 . S
N136 C132 1.427 . S
N136 C133 1.384 . S
N137 C129 1.427 . S
N137 C135 1.384 . S
H138 C144 0.930 . S
H139 C148 0.930 . S
H140 C153 0.929 . S
H141 C151 0.929 . S
H142 C146 0.929 . S
H143 C152 0.929 . S
C144 H138 0.930 . S
C144 C145 1.367 . S
C144 C152 1.378 . S
C145 C144 1.367 . S
C145 C153 1.433 . S
C146 H142 0.929 . S
C146 C148 1.378 . S
C146 C150 1.350 . S
C147 C150 1.463 . S
C147 C152 1.350 . S
C147 N155 1.427 . S
C148 H139 0.930 . S
C148 C146 1.378 . S
C148 C149 1.367 . S
C149 C148 1.367 . S
C149 C151 1.433 . S
C150 C146 1.350 . S
C150 C147 1.463 . S
C150 N154 1.427 . S
C151 H141 0.929 . S
C151 C149 1.433 . S
C151 N154 1.384 . S
C152 H143 0.929 . S
C152 C144 1.378 . S
C152 C147 1.350 . S
C153 H140 0.929 . S
C153 C145 1.433 . S
C153 N155 1.384 . S
N154 C150 1.427 . S
N154 C151 1.384 . S
N155 C147 1.427 . S
N155 C153 1.384 . S
H156 C162 0.930 . S
H157 C166 0.930 . S
H158 C171 0.929 . S
H159 C169 0.929 . S
H160 C164 0.929 . S
H161 C170 0.929 . S
C162 H156 0.930 . S
C162 C163 1.367 . S
C162 C170 1.378 . S
C163 C162 1.367 . S
C163 C171 1.433 . S
C164 H160 0.929 . S
C164 C166 1.378 . S
C164 C168 1.350 . S
C165 C168 1.463 . S
C165 C170 1.350 . S
C165 N173 1.427 . S
C166 H157 0.930 . S
C166 C164 1.378 . S
C166 C167 1.367 . S
C167 C166 1.367 . S
C167 C169 1.433 . S
C168 C164 1.350 . S
C168 C165 1.463 . S
C168 N172 1.427 . S
C169 H159 0.929 . S
C169 C167 1.433 . S
C169 N172 1.384 . S
C170 H161 0.929 . S
C170 C162 1.378 . S
C170 C165 1.350 . S
C171 H158 0.929 . S
C171 C163 1.433 . S
C171 N173 1.384 . S
N172 C168 1.427 . S
N172 C169 1.384 . S
N173 C165 1.427 . S
N173 C171 1.384 . S
H174 C180 0.930 . S
H175 C184 0.930 . S
H176 C189 0.929 . S
H177 C187 0.929 . S
H178 C182 0.929 . S
H179 C188 0.929 . S
C180 H174 0.930 . S
C180 C181 1.367 . S
C180 C188 1.378 . S
C181 C180 1.367 . S
C181 C189 1.433 1_556 S
C182 H178 0.929 . S
C182 C184 1.378 . S
C182 C186 1.350 . S
C183 C186 1.463 1_556 S
C183 C188 1.350 . S
C183 N191 1.427 1_556 S
C184 H175 0.930 . S
C184 C182 1.378 . S
C184 C185 1.367 . S
C185 C184 1.367 . S
C185 C187 1.433 1_554 S
C186 C182 1.350 . S
C186 C183 1.463 1_554 S
C186 N190 1.427 1_554 S
C187 H177 0.929 . S
C187 C185 1.433 1_556 S
C187 N190 1.384 . S
C188 H179 0.929 . S
C188 C180 1.378 . S
C188 C183 1.350 . S
C189 H176 0.929 . S
C189 C181 1.433 1_554 S
C189 N191 1.384 . S
N190 C186 1.427 1_556 S
N190 C187 1.384 . S
N191 C183 1.427 1_554 S
N191 C189 1.384 . S
H192 C198 0.930 . S
H193 C202 0.930 . S
H194 C207 0.929 . S
H195 C205 0.929 . S
H196 C200 0.929 . S
H197 C206 0.929 . S
C198 H192 0.930 . S
C198 C199 1.367 . S
C198 C206 1.378 . S
C199 C198 1.367 . S
C199 C207 1.433 . S
C200 H196 0.929 . S
C200 C202 1.378 . S
C200 C204 1.350 . S
C201 C204 1.463 . S
C201 C206 1.350 . S
C201 N209 1.427 . S
C202 H193 0.930 . S
C202 C200 1.378 . S
C202 C203 1.367 . S
C203 C202 1.367 . S
C203 C205 1.433 . S
C204 C200 1.350 . S
C204 C201 1.463 . S
C204 N208 1.427 . S
C205 H195 0.929 . S
C205 C203 1.433 . S
C205 N208 1.384 . S
C206 H197 0.929 . S
C206 C198 1.378 . S
C206 C201 1.350 . S
C207 H194 0.929 . S
C207 C199 1.433 . S
C207 N209 1.384 . S
N208 C204 1.427 . S
N208 C205 1.384 . S
N209 C201 1.427 . S
N209 C207 1.384 . S
H210 C216 0.930 . S
H211 C220 0.930 . S
H212 C225 0.929 . S
H213 C223 0.929 . S
H214 C218 0.929 . S
H215 C224 0.929 . S
C216 H210 0.930 . S
C216 C217 1.367 . S
C216 C224 1.378 . S
C217 C216 1.367 . S
C217 C225 1.433 . S
C218 H214 0.929 . S
C218 C220 1.378 . S
C218 C222 1.350 . S
C219 C222 1.463 . S
C219 C224 1.350 . S
C219 N227 1.427 . S
C220 H211 0.930 . S
C220 C218 1.378 . S
C220 C221 1.367 . S
C221 C220 1.367 . S
C221 C223 1.433 . S
C222 C218 1.350 . S
C222 C219 1.463 . S
C222 N226 1.427 . S
C223 H213 0.929 . S
C223 C221 1.433 . S
C223 N226 1.384 . S
C224 H215 0.929 . S
C224 C216 1.378 . S
C224 C219 1.350 . S
C225 H212 0.929 . S
C225 C217 1.433 . S
C225 N227 1.384 . S
N226 C222 1.427 . S
N226 C223 1.384 . S
N227 C219 1.427 . S
N227 C225 1.384 . S
H228 C234 0.930 . S
H229 C238 0.930 1_655 S
H230 C243 0.929 1_655 S
H231 C241 0.929 . S
H232 C236 0.929 1_655 S
H233 C242 0.929 . S
C234 H228 0.930 . S
C234 C235 1.367 . S
C234 C242 1.378 . S
C235 C234 1.367 . S
C235 C243 1.433 . S
C236 H232 0.929 1_455 S
C236 C238 1.378 . S
C236 C240 1.350 . S
C237 C240 1.463 . S
C237 C242 1.350 . S
C237 N245 1.427 . S
C238 H229 0.930 1_455 S
C238 C236 1.378 . S
C238 C239 1.367 . S
C239 C238 1.367 . S
C239 C241 1.433 . S
C240 C236 1.350 . S
C240 C237 1.463 . S
C240 N244 1.427 . S
C241 H231 0.929 . S
C241 C239 1.433 . S
C241 N244 1.384 . S
C242 H233 0.929 . S
C242 C234 1.378 . S
C242 C237 1.350 . S
C243 H230 0.929 1_455 S
C243 C235 1.433 . S
C243 N245 1.384 . S
N244 C240 1.427 . S
N244 C241 1.384 . S
N245 C237 1.427 . S
N245 C243 1.384 . S
H246 C252 0.930 . S
H247 C256 0.930 . S
H248 C261 0.929 . S
H249 C259 0.929 . S
H250 C254 0.929 . S
H251 C260 0.929 . S
C252 H246 0.930 . S
C252 C253 1.367 . S
C252 C260 1.378 . S
C253 C252 1.367 . S
C253 C261 1.433 . S
C254 H250 0.929 . S
C254 C256 1.378 . S
C254 C258 1.350 . S
C255 C258 1.463 1_554 S
C255 C260 1.350 . S
C255 N263 1.427 . S
C256 H247 0.930 . S
C256 C254 1.378 . S
C256 C257 1.367 . S
C257 C256 1.367 . S
C257 C259 1.433 . S
C258 C254 1.350 . S
C258 C255 1.463 1_556 S
C258 N262 1.427 . S
C259 H249 0.929 . S
C259 C257 1.433 . S
C259 N262 1.384 . S
C260 H251 0.929 . S
C260 C252 1.378 . S
C260 C255 1.350 . S
C261 H248 0.929 . S
C261 C253 1.433 . S
C261 N263 1.384 . S
N262 C258 1.427 . S
N262 C259 1.384 . S
N263 C255 1.427 . S
N263 C261 1.384 . S
H264 C270 0.930 . S
H265 C274 0.930 . S
H266 C279 0.929 . S
H267 C277 0.929 . S
H268 C272 0.929 . S
H269 C278 0.929 . S
C270 H264 0.930 . S
C270 C271 1.367 . S
C270 C278 1.378 . S
C271 C270 1.367 . S
C271 C279 1.433 . S
C272 H268 0.929 . S
C272 C274 1.378 . S
C272 C276 1.350 . S
C273 C276 1.463 . S
C273 C278 1.350 . S
C273 N281 1.427 . S
C274 H265 0.930 . S
C274 C272 1.378 . S
C274 C275 1.367 . S
C275 C274 1.367 . S
C275 C277 1.433 . S
C276 C272 1.350 . S
C276 C273 1.463 . S
C276 N280 1.427 . S
C277 H267 0.929 . S
C277 C275 1.433 . S
C277 N280 1.384 . S
C278 H269 0.929 . S
C278 C270 1.378 . S
C278 C273 1.350 . S
C279 H266 0.929 . S
C279 C271 1.433 . S
C279 N281 1.384 . S
N280 C276 1.427 . S
N280 C277 1.384 . S
N281 C273 1.427 . S
N281 C279 1.384 . S
C127 C19 2.997 . S
C131 C99 2.952 . S
C145 C46 1.562 . S
C149 C6 1.564 . S
C163 C59 2.565 . S
C167 C95 2.434 . S
C181 C90 2.660 . S
C185 C10 2.699 . S
C199 C55 1.542 . S
C203 C15 1.536 . S
C217 C86 2.212 . S
C221 C50 2.203 . S
C235 C9 0.562 . S
C239 C18 0.562 . S
C253 C58 0.524 . S
C257 C49 0.524 . S
C271 C98 0.576 . S
C275 C89 0.576 . S
