# Generated by pormake.
# Topology vma, (5)-cn, num edge types: 1
# Building blocks:
#     Node 0, Type 0, BuildingBlock: BEQFEK_clean_sbu_0, # of connection points: 5
#     Node 1, Type 0, BuildingBlock: BEQFEK_clean_sbu_0, # of connection points: 5
#     Node 2, Type 0, BuildingBlock: BEQFEK_clean_sbu_0, # of connection points: 5
#     Node 3, Type 0, BuildingBlock: BEQFEK_clean_sbu_0, # of connection points: 5
#     Node 4, Type 0, BuildingBlock: BEQFEK_clean_sbu_0, # of connection points: 5
#     Node 5, Type 0, BuildingBlock: BEQFEK_clean_sbu_0, # of connection points: 5
#     Node 6, Type 0, BuildingBlock: BEQFEK_clean_sbu_0, # of connection points: 5
#     Node 7, Type 0, BuildingBlock: BEQFEK_clean_sbu_0, # of connection points: 5
#     Edge 8, Type (0, 0), BuildingBlock: ZUJKAS_clean_linker_0, # of connection points: 2
#     Edge 9, Type (0, 0), BuildingBlock: ZUJKAS_clean_linker_0, # of connection points: 2
#     Edge 10, Type (0, 0), BuildingBlock: ZUJKAS_clean_linker_0, # of connection points: 2
#     Edge 11, Type (0, 0), BuildingBlock: ZUJKAS_clean_linker_0, # of connection points: 2
#     Edge 12, Type (0, 0), BuildingBlock: ZUJKAS_clean_linker_0, # of connection points: 2
#     Edge 13, Type (0, 0), BuildingBlock: ZUJKAS_clean_linker_0, # of connection points: 2
#     Edge 14, Type (0, 0), BuildingBlock: ZUJKAS_clean_linker_0, # of connection points: 2
#     Edge 15, Type (0, 0), BuildingBlock: ZUJKAS_clean_linker_0, # of connection points: 2
#     Edge 16, Type (0, 0), BuildingBlock: ZUJKAS_clean_linker_0, # of connection points: 2
#     Edge 17, Type (0, 0), BuildingBlock: ZUJKAS_clean_linker_0, # of connection points: 2
#     Edge 18, Type (0, 0), BuildingBlock: ZUJKAS_clean_linker_0, # of connection points: 2
#     Edge 19, Type (0, 0), BuildingBlock: ZUJKAS_clean_linker_0, # of connection points: 2
#     Edge 20, Type (0, 0), BuildingBlock: ZUJKAS_clean_linker_0, # of connection points: 2
#     Edge 21, Type (0, 0), BuildingBlock: ZUJKAS_clean_linker_0, # of connection points: 2
#     Edge 22, Type (0, 0), BuildingBlock: ZUJKAS_clean_linker_0, # of connection points: 2
#     Edge 23, Type (0, 0), BuildingBlock: ZUJKAS_clean_linker_0, # of connection points: 2
#     Edge 24, Type (0, 0), BuildingBlock: ZUJKAS_clean_linker_0, # of connection points: 2
#     Edge 25, Type (0, 0), BuildingBlock: ZUJKAS_clean_linker_0, # of connection points: 2
#     Edge 26, Type (0, 0), BuildingBlock: ZUJKAS_clean_linker_0, # of connection points: 2
#     Edge 27, Type (0, 0), BuildingBlock: ZUJKAS_clean_linker_0, # of connection points: 2
# Relax obj value: 0.013
# Max RMSD: 0.085
# Mean RMSD: 0.085
data_MOF--net-vma--node1-BEQFEK_clean_sbu_0--edge1-ZUJKAS_clean_linker_0
_symmetry_space_group_name_H-M    P1
_symmetry_Int_Tables_number       1
_symmetry_cell_setting            triclinic
loop_
_symmetry_equiv_pos_as_xyz
'x, y, z'
_cell_length_a     47.571673
_cell_length_b     36.92618
_cell_length_c     53.99063
_cell_angle_alpha  89.99383
_cell_angle_beta   99.424372
_cell_angle_gamma 90.006561
loop_
_atom_site_label
_atom_site_type_symbol
_atom_site_fract_x
_atom_site_fract_y
_atom_site_fract_z
_atom_type_partial_charge
Co0 Co 0.36826 0.1176 0.36498 0.0
Co1 Co 0.3282 0.16563 0.32618 0.0
C2 C 0.39086 0.16101 0.32533 0.0
O3 O 0.39438 0.13907 0.34378 0.0
O4 O 0.36639 0.17401 0.3168 0.0
C5 C 0.41557 0.10375 0.40408 0.0
O6 O 0.42464 0.13505 0.39691 0.0
C7 C 0.30595 0.23179 0.29991 0.0
C8 C 0.26128 0.21674 0.28571 0.0
C9 C 0.28059 0.24503 0.28648 0.0
N10 N 0.30171 0.19743 0.30667 0.0
N11 N 0.27503 0.1885 0.29796 0.0
C12 C 0.33306 0.25211 0.30833 0.0
H13 H 0.34515 0.23959 0.32553 0.0
H14 H 0.32858 0.28091 0.31208 0.0
H15 H 0.34643 0.25096 0.29333 0.0
C16 C 0.34015 0.16007 0.40069 0.0
N17 N 0.34517 0.15302 0.3773 0.0
N18 N 0.32839 0.17335 0.36116 0.0
C19 C 0.31226 0.19419 0.37383 0.0
C20 C 0.31913 0.18644 0.39931 0.0
C21 C 0.35304 0.13903 0.42344 0.0
H22 H 0.35279 0.10973 0.41891 0.0
H23 H 0.37556 0.1475 0.42909 0.0
H24 H 0.34144 0.1434 0.4394 0.0
O25 O 0.34384 0.08145 0.34482 0.0
O26 O 0.3159 0.11507 0.31683 0.0
H27 H 0.27332 0.20625 0.34936 0.0
H28 H 0.28131 0.23691 0.37575 0.0
C29 C 0.29057 0.22085 0.36172 0.0
H30 H 0.30075 0.23979 0.34999 0.0
H31 H 0.2661 0.16331 0.30074 0.0
O32 O 0.39183 0.09141 0.3931 0.0
C33 C 0.32396 0.08423 0.326 0.0
Co34 Co 0.63655 0.11863 0.13771 0.0
Co35 Co 0.67717 0.16772 0.17541 0.0
C36 C 0.6152 0.16157 0.17842 0.0
O37 O 0.61139 0.13954 0.16002 0.0
O38 O 0.6396 0.17532 0.18624 0.0
C39 C 0.58817 0.10482 0.09973 0.0
O40 O 0.57949 0.13616 0.10718 0.0
C41 C 0.70048 0.23314 0.20255 0.0
C42 C 0.74645 0.22033 0.21054 0.0
C43 C 0.72677 0.24708 0.21329 0.0
N44 N 0.7045 0.19973 0.19383 0.0
N45 N 0.73198 0.19212 0.1989 0.0
C46 C 0.67242 0.25236 0.19837 0.0
H47 H 0.65886 0.24209 0.1811 0.0
H48 H 0.67542 0.28202 0.19676 0.0
H49 H 0.66134 0.24707 0.21455 0.0
C50 C 0.66257 0.16161 0.1009 0.0
N51 N 0.65843 0.1546 0.12455 0.0
N52 N 0.67517 0.17563 0.14023 0.0
C53 C 0.69023 0.19705 0.12696 0.0
C54 C 0.68289 0.18878 0.10162 0.0
C55 C 0.64968 0.13981 0.07852 0.0
H56 H 0.65034 0.11063 0.08342 0.0
H57 H 0.62705 0.1478 0.07297 0.0
H58 H 0.66101 0.14403 0.06236 0.0
O59 O 0.66216 0.08289 0.157 0.0
O60 O 0.69038 0.11726 0.18428 0.0
H61 H 0.73045 0.21094 0.14871 0.0
H62 H 0.71808 0.24272 0.12384 0.0
C63 C 0.71143 0.2248 0.13832 0.0
H64 H 0.70191 0.24173 0.15171 0.0
H65 H 0.74095 0.16796 0.19388 0.0
O66 O 0.61211 0.09235 0.11016 0.0
C67 C 0.68259 0.08621 0.17531 0.0
Co68 Co 0.63325 0.88141 0.63752 0.0
Co69 Co 0.67428 0.83481 0.67682 0.0
C70 C 0.61141 0.8407 0.6783 0.0
O71 O 0.60711 0.86073 0.65886 0.0
O72 O 0.63625 0.82911 0.68708 0.0
C73 C 0.5857 0.89559 0.59865 0.0
O74 O 0.57619 0.86483 0.60629 0.0
C75 C 0.69698 0.76752 0.70252 0.0
C76 C 0.74025 0.78484 0.71966 0.0
C77 C 0.72205 0.75528 0.71706 0.0
N78 N 0.70048 0.80248 0.69655 0.0
N79 N 0.72637 0.81262 0.70695 0.0
C80 C 0.66983 0.74679 0.69512 0.0
H81 H 0.65145 0.76527 0.69057 0.0
H82 H 0.67124 0.73049 0.67812 0.0
H83 H 0.66623 0.72812 0.71041 0.0
C84 C 0.66063 0.83759 0.60216 0.0
N85 N 0.65598 0.84534 0.62554 0.0
N86 N 0.67331 0.82588 0.64185 0.0
C87 C 0.68963 0.80516 0.62929 0.0
C88 C 0.6821 0.81182 0.60372 0.0
C89 C 0.6471 0.85765 0.57917 0.0
H90 H 0.64807 0.88718 0.58293 0.0
H91 H 0.62434 0.84974 0.57457 0.0
H92 H 0.65774 0.85186 0.5628 0.0
O93 O 0.65811 0.91775 0.65726 0.0
O94 O 0.68746 0.88528 0.68495 0.0
H95 H 0.72852 0.79592 0.65461 0.0
H96 H 0.72324 0.76574 0.62779 0.0
C97 C 0.71254 0.78023 0.64163 0.0
H98 H 0.70303 0.75979 0.65275 0.0
H99 H 0.7346 0.83856 0.70533 0.0
O100 O 0.60979 0.90742 0.60922 0.0
C101 C 0.67874 0.91573 0.67552 0.0
Co102 Co 0.36677 0.88401 0.86762 0.0
Co103 Co 0.32561 0.8379 0.82817 0.0
C104 C 0.38848 0.84315 0.82676 0.0
O105 O 0.39272 0.86358 0.846 0.0
O106 O 0.36368 0.83135 0.81809 0.0
C107 C 0.41548 0.89979 0.90501 0.0
O108 O 0.42602 0.87085 0.89574 0.0
C109 C 0.30265 0.76992 0.80436 0.0
C110 C 0.26175 0.78824 0.78257 0.0
C111 C 0.27873 0.75783 0.78809 0.0
N112 N 0.29969 0.80562 0.80831 0.0
N113 N 0.27518 0.81635 0.79524 0.0
C114 C 0.32861 0.74862 0.81498 0.0
H115 H 0.34684 0.76679 0.82149 0.0
H116 H 0.32424 0.73281 0.83139 0.0
H117 H 0.33428 0.72944 0.80075 0.0
C118 C 0.3399 0.83941 0.90283 0.0
N119 N 0.34421 0.84763 0.87944 0.0
N120 N 0.32628 0.82899 0.8631 0.0
C121 C 0.30964 0.80871 0.87565 0.0
C122 C 0.3178 0.81452 0.90126 0.0
C123 C 0.35642 0.85574 0.92613 0.0
H124 H 0.35174 0.88516 0.92653 0.0
H125 H 0.37952 0.85251 0.92583 0.0
H126 H 0.35133 0.84274 0.94337 0.0
O127 O 0.34153 0.92059 0.84831 0.0
O128 O 0.31285 0.88837 0.81988 0.0
H129 H 0.27259 0.80367 0.84727 0.0
H130 H 0.26915 0.78225 0.87664 0.0
C131 C 0.28404 0.78802 0.86333 0.0
H132 H 0.29104 0.76196 0.85618 0.0
H133 H 0.26771 0.84295 0.79483 0.0
O134 O 0.3903 0.90985 0.89605 0.0
C135 C 0.32121 0.91868 0.82975 0.0
Co136 Co 0.86731 0.61837 0.36687 0.0
Co137 Co 0.82786 0.667 0.32767 0.0
C138 C 0.89059 0.65989 0.32696 0.0
O139 O 0.89394 0.63831 0.3456 0.0
O140 O 0.86627 0.67318 0.31837 0.0
C141 C 0.91457 0.60373 0.40569 0.0
O142 O 0.92408 0.63446 0.398 0.0
C143 C 0.80601 0.73512 0.30256 0.0
C144 C 0.76317 0.7182 0.28401 0.0
C145 C 0.78142 0.74769 0.28746 0.0
N146 N 0.80221 0.7 0.30798 0.0
N147 N 0.77655 0.69013 0.29678 0.0
C148 C 0.83306 0.75564 0.31094 0.0
H149 H 0.85115 0.73705 0.31666 0.0
H150 H 0.8307 0.77257 0.32743 0.0
H151 H 0.83777 0.77374 0.29572 0.0
C152 C 0.84018 0.6624 0.40227 0.0
N153 N 0.84509 0.65498 0.37892 0.0
N154 N 0.8282 0.67503 0.36265 0.0
C155 C 0.81189 0.69578 0.37521 0.0
C156 C 0.819 0.68855 0.40073 0.0
C157 C 0.85311 0.64166 0.42515 0.0
H158 H 0.85177 0.61221 0.42109 0.0
H159 H 0.87595 0.64901 0.43008 0.0
H160 H 0.8423 0.6474 0.44142 0.0
O161 O 0.84171 0.5829 0.34713 0.0
O162 O 0.81449 0.61669 0.31863 0.0
H163 H 0.7736 0.70614 0.34935 0.0
H164 H 0.77835 0.73531 0.3767 0.0
C165 C 0.78938 0.72126 0.36289 0.0
H166 H 0.79935 0.74204 0.35239 0.0
H167 H 0.76819 0.66415 0.2978 0.0
O168 O 0.89045 0.59193 0.39516 0.0
C169 C 0.82187 0.5859 0.32828 0.0
Co170 Co 0.13365 0.61686 0.1388 0.0
Co171 Co 0.1756 0.66448 0.17656 0.0
C172 C 0.1132 0.65861 0.17987 0.0
O173 O 0.10859 0.63732 0.16111 0.0
O174 O 0.13798 0.67129 0.1876 0.0
C175 C 0.08355 0.59791 0.10368 0.0
O176 O 0.07186 0.62439 0.11467 0.0
C177 C 0.19935 0.73271 0.19956 0.0
C178 C 0.24091 0.71439 0.22011 0.0
C179 C 0.2238 0.74478 0.21513 0.0
N180 N 0.20212 0.69701 0.1955 0.0
N181 N 0.22703 0.68629 0.20782 0.0
C182 C 0.1731 0.75401 0.18977 0.0
H183 H 0.15474 0.73585 0.18375 0.0
H184 H 0.17677 0.76994 0.17318 0.0
H185 H 0.16806 0.77311 0.2043 0.0
C186 C 0.15866 0.661 0.10211 0.0
N187 N 0.15537 0.65327 0.12585 0.0
N188 N 0.17358 0.6726 0.14148 0.0
C189 C 0.18943 0.69281 0.12814 0.0
C190 C 0.18041 0.68625 0.10272 0.0
C191 C 0.14153 0.6439 0.0794 0.0
H192 H 0.1471 0.61476 0.07886 0.0
H193 H 0.11856 0.64592 0.08066 0.0
H194 H 0.14528 0.6572 0.06181 0.0
O195 O 0.15948 0.58088 0.15802 0.0
O196 O 0.18908 0.61429 0.18486 0.0
H197 H 0.22732 0.69888 0.15543 0.0
H198 H 0.22932 0.7199 0.12565 0.0
C199 C 0.21511 0.7141 0.13953 0.0
H200 H 0.20814 0.74014 0.14673 0.0
H201 H 0.23447 0.65969 0.20799 0.0
O202 O 0.1097 0.5904 0.11093 0.0
C203 C 0.18053 0.58355 0.17586 0.0
Co204 Co 0.13651 0.38458 0.63786 0.0
Co205 Co 0.17737 0.33632 0.67598 0.0
C206 C 0.11504 0.34076 0.67805 0.0
O207 O 0.11117 0.36275 0.65962 0.0
O208 O 0.1396 0.32771 0.68622 0.0
C209 C 0.08823 0.39828 0.59965 0.0
O210 O 0.07937 0.36708 0.60719 0.0
C211 C 0.20109 0.27154 0.70371 0.0
C212 C 0.24692 0.28504 0.71192 0.0
C213 C 0.22742 0.25812 0.7148 0.0
N214 N 0.20489 0.30483 0.6947 0.0
N215 N 0.23231 0.31284 0.69987 0.0
C216 C 0.1732 0.2519 0.69956 0.0
H217 H 0.15976 0.26149 0.68203 0.0
H218 H 0.17648 0.22223 0.69845 0.0
H219 H 0.16184 0.25757 0.71552 0.0
C220 C 0.16361 0.34227 0.60143 0.0
N221 N 0.15922 0.34931 0.625 0.0
N222 N 0.17607 0.32862 0.64084 0.0
C223 C 0.19145 0.30737 0.62774 0.0
C224 C 0.1842 0.31541 0.60234 0.0
C225 C 0.1505 0.36366 0.57891 0.0
H226 H 0.15078 0.39288 0.58366 0.0
H227 H 0.12798 0.35519 0.57336 0.0
H228 H 0.16194 0.35956 0.56281 0.0
O229 O 0.1612 0.42075 0.65764 0.0
O230 O 0.18963 0.38703 0.68518 0.0
H231 H 0.23163 0.29377 0.64967 0.0
H232 H 0.2194 0.2617 0.62495 0.0
C233 C 0.21265 0.27977 0.63931 0.0
H234 H 0.20312 0.26297 0.65276 0.0
H235 H 0.24112 0.33702 0.6947 0.0
O236 O 0.1122 0.41064 0.6101 0.0
C237 C 0.18138 0.41791 0.67619 0.0
Co238 Co 0.86889 0.38227 0.86461 0.0
Co239 Co 0.82853 0.33446 0.8256 0.0
C240 C 0.89122 0.34074 0.82416 0.0
O241 O 0.89501 0.36198 0.84299 0.0
O242 O 0.86668 0.32792 0.8157 0.0
C243 C 0.91748 0.3982 0.90205 0.0
O244 O 0.92843 0.36986 0.89241 0.0
C245 C 0.80524 0.26741 0.79978 0.0
C246 C 0.7621 0.28548 0.78284 0.0
C247 C 0.78004 0.25567 0.7852 0.0
N248 N 0.80208 0.30236 0.80596 0.0
N249 N 0.77626 0.31293 0.7957 0.0
C250 C 0.83219 0.24623 0.80701 0.0
H251 H 0.85069 0.26439 0.81211 0.0
H252 H 0.83045 0.22922 0.82362 0.0
H253 H 0.83582 0.22816 0.79141 0.0
C254 C 0.84157 0.3387 0.90015 0.0
N255 N 0.84636 0.34601 0.87674 0.0
N256 N 0.82929 0.32605 0.86057 0.0
C257 C 0.81303 0.30539 0.87324 0.0
C258 C 0.82026 0.31268 0.89875 0.0
C259 C 0.85478 0.35947 0.92292 0.0
H260 H 0.85292 0.38892 0.91895 0.0
H261 H 0.87778 0.3527 0.92733 0.0
H262 H 0.84455 0.35333 0.93947 0.0
O263 O 0.84374 0.41841 0.84505 0.0
O264 O 0.81544 0.38499 0.81716 0.0
H265 H 0.77414 0.2951 0.84817 0.0
H266 H 0.78026 0.26489 0.87496 0.0
C267 C 0.79052 0.27982 0.86103 0.0
H268 H 0.80029 0.2598 0.8498 0.0
H269 H 0.76828 0.33896 0.79747 0.0
O270 O 0.89227 0.40807 0.89307 0.0
C271 C 0.82344 0.41573 0.82655 0.0
H272 H 0.24086 0.313 0.59991 0.0
H273 H 0.26356 0.29096 0.56518 0.0
H274 H 0.18095 0.26618 0.52262 0.0
H275 H 0.15819 0.28754 0.55765 0.0
H276 H 0.22182 0.2103 0.52269 0.0
H277 H 0.26433 0.34324 0.49811 0.0
H278 H 0.27387 0.33088 0.53058 0.0
H279 H 0.23715 0.33911 0.51769 0.0
C280 C 0.2276 0.3026 0.58319 0.0
C281 C 0.19783 0.30181 0.58139 0.0
C282 C 0.24055 0.29039 0.56329 0.0
C283 C 0.22391 0.27744 0.54119 0.0
C284 C 0.19415 0.27627 0.53946 0.0
H285 H 0.26233 0.18702 0.40151 0.0
H286 H 0.23898 0.20912 0.43584 0.0
C287 C 0.18119 0.28853 0.55938 0.0
C288 C 0.23765 0.26453 0.52006 0.0
H289 H 0.27999 0.29151 0.47812 0.0
C290 C 0.23441 0.22806 0.51283 0.0
C291 C 0.25413 0.28777 0.5073 0.0
C292 C 0.25744 0.32751 0.51361 0.0
C293 C 0.24769 0.21401 0.4935 0.0
C294 C 0.2642 0.23725 0.48076 0.0
C295 C 0.26738 0.27374 0.48795 0.0
C296 C 0.27825 0.22428 0.45982 0.0
C297 C 0.24449 0.17421 0.48732 0.0
C298 C 0.308 0.22638 0.46161 0.0
C299 C 0.3213 0.21419 0.44189 0.0
C300 C 0.30505 0.2 0.42 0.0
C301 C 0.27529 0.19818 0.41813 0.0
C302 C 0.26199 0.2104 0.43782 0.0
H303 H 0.2378 0.15854 0.50293 0.0
H304 H 0.22793 0.17067 0.47047 0.0
H305 H 0.26476 0.16268 0.48314 0.0
H306 H 0.32093 0.23717 0.47837 0.0
H307 H 0.34428 0.21593 0.44368 0.0
H308 H 0.73949 0.19048 0.09903 0.0
H309 H 0.76226 0.2123 0.06426 0.0
H310 H 0.67971 0.23758 0.02178 0.0
H311 H 0.65689 0.21633 0.05681 0.0
H312 H 0.75349 0.18672 0.014 0.0
H313 H 0.72546 0.33229 0.01941 0.0
H314 H 0.72346 0.30092 0.04472 0.0
H315 H 0.69605 0.30131 0.01755 0.0
C316 C 0.72628 0.20113 0.08237 0.0
C317 C 0.69651 0.20218 0.08061 0.0
C318 C 0.73926 0.21336 0.06251 0.0
C319 C 0.7227 0.22701 0.0406 0.0
C320 C 0.6929 0.22775 0.03871 0.0
H321 H 0.76368 0.3151 0.9016 0.0
H322 H 0.74002 0.29296 0.93574 0.0
C323 C 0.6799 0.21543 0.05859 0.0
C324 C 0.73668 0.23967 0.01956 0.0
H325 H 0.74757 0.31446 0.98515 0.0
C326 C 0.75229 0.21466 0.00771 0.0
C327 C 0.73498 0.27611 0.01139 0.0
C328 C 0.7193 0.30437 0.02401 0.0
C329 C 0.76594 0.22498 0.98763 0.0
C330 C 0.76442 0.2615 0.97956 0.0
C331 C 0.74872 0.28649 0.99137 0.0
C332 C 0.77887 0.27436 0.95881 0.0
C333 C 0.7813 0.19651 0.97489 0.0
C334 C 0.80859 0.27163 0.96056 0.0
C335 C 0.82206 0.28394 0.94097 0.0
C336 C 0.80604 0.29937 0.91941 0.0
C337 C 0.7764 0.30268 0.91786 0.0
C338 C 0.76293 0.29027 0.93739 0.0
H339 H 0.77397 0.16877 0.97863 0.0
H340 H 0.77814 0.20086 0.95427 0.0
H341 H 0.80447 0.19809 0.9822 0.0
H342 H 0.8214 0.26024 0.97716 0.0
H343 H 0.84497 0.28138 0.94262 0.0
H344 H 0.65732 0.77859 0.56066 0.0
H345 H 0.6807 0.75698 0.52607 0.0
H346 H 0.76174 0.79416 0.56563 0.0
H347 H 0.7384 0.81578 0.6001 0.0
H348 H 0.7129 0.79744 0.4963 0.0
H349 H 0.7778 0.68848 0.54859 0.0
H350 H 0.74801 0.70932 0.55993 0.0
H351 H 0.7818 0.73215 0.5634 0.0
C352 C 0.68013 0.78193 0.56191 0.0
C353 C 0.6962 0.79829 0.58308 0.0
C354 C 0.69344 0.76963 0.54223 0.0
C355 C 0.72302 0.7734 0.54351 0.0
C356 C 0.73901 0.7902 0.56454 0.0
H357 H 0.84363 0.72108 0.44409 0.0
H358 H 0.82004 0.74254 0.47859 0.0
C359 C 0.7257 0.80253 0.58418 0.0
C360 C 0.73706 0.7607 0.52253 0.0
H361 H 0.78771 0.7025 0.50799 0.0
C362 C 0.72915 0.77654 0.49879 0.0
C363 C 0.75832 0.73354 0.5259 0.0
C364 C 0.76687 0.7146 0.55076 0.0
C365 C 0.74231 0.7664 0.47838 0.0
C366 C 0.76357 0.73924 0.48175 0.0
C367 C 0.77146 0.72338 0.5055 0.0
C368 C 0.77772 0.72664 0.46081 0.0
C369 C 0.73379 0.78542 0.45354 0.0
C370 C 0.7618 0.71018 0.4396 0.0
C371 C 0.77522 0.69798 0.41999 0.0
C372 C 0.80477 0.70197 0.42131 0.0
C373 C 0.82077 0.71796 0.44266 0.0
C374 C 0.80735 0.73016 0.4623 0.0
H375 H 0.72296 0.81159 0.45576 0.0
H376 H 0.75264 0.79061 0.44435 0.0
H377 H 0.71877 0.76798 0.44091 0.0
H378 H 0.73903 0.70639 0.43834 0.0
H379 H 0.76257 0.68501 0.40392 0.0
H380 H 0.30613 0.74455 0.91184 0.0
H381 H 0.28171 0.72239 0.94564 0.0
H382 H 0.27328 0.8322 0.97069 0.0
H383 H 0.29708 0.85437 0.93667 0.0
H384 H 0.29773 0.73228 0.99805 0.0
H385 H 0.19166 0.79248 0.96326 0.0
H386 H 0.21888 0.78795 0.94375 0.0
H387 H 0.22072 0.8241 0.96625 0.0
C388 C 0.29891 0.76384 0.92455 0.0
C389 C 0.30354 0.80107 0.92183 0.0
C390 C 0.28507 0.75122 0.94382 0.0
C391 C 0.27539 0.7757 0.96047 0.0
C392 C 0.28017 0.8129 0.95781 0.0
H393 H 0.19137 0.75604 0.09108 0.0
H394 H 0.21491 0.77755 0.05657 0.0
C395 C 0.29402 0.82549 0.93859 0.0
C396 C 0.26084 0.76233 0.98095 0.0
H397 H 0.19835 0.76704 0.00421 0.0
C398 C 0.27595 0.73967 0.99934 0.0
C399 C 0.23245 0.77215 0.98259 0.0
C400 C 0.21483 0.79524 0.96281 0.0
C401 C 0.2636 0.72712 0.01964 0.0
C402 C 0.23524 0.73699 0.02131 0.0
C403 C 0.22011 0.75959 0.00289 0.0
C404 C 0.22083 0.72399 0.04199 0.0
C405 C 0.28125 0.70408 0.03945 0.0
C406 C 0.21606 0.68685 0.04498 0.0
C407 C 0.20272 0.67462 0.06462 0.0
C408 C 0.19373 0.69934 0.08147 0.0
C409 C 0.1982 0.73651 0.07832 0.0
C410 C 0.21154 0.74877 0.05864 0.0
H411 H 0.3044 0.7066 0.03886 0.0
H412 H 0.27738 0.71164 0.05851 0.0
H413 H 0.2752 0.67524 0.03618 0.0
H414 H 0.22266 0.66733 0.0321 0.0
H415 H 0.19976 0.64578 0.06685 0.0
H416 H 0.61014 0.21716 0.21116 0.0
H417 H 0.5719 0.22659 0.23582 0.0
H418 H 0.52871 0.13155 0.20215 0.0
H419 H 0.56604 0.12297 0.17672 0.0
H420 H 0.49155 0.1825 0.20597 0.0
H421 H 0.5636 0.17092 0.29749 0.0
H422 H 0.57259 0.20748 0.27837 0.0
H423 H 0.57533 0.16143 0.26808 0.0
C424 C 0.59238 0.19844 0.20891 0.0
C425 C 0.59125 0.16916 0.19211 0.0
C426 C 0.57064 0.20369 0.22318 0.0
C427 C 0.54774 0.17925 0.22137 0.0
C428 C 0.54619 0.1507 0.20401 0.0
H429 H 0.44074 0.12357 0.32829 0.0
H430 H 0.47845 0.13242 0.30327 0.0
C431 C 0.5676 0.14581 0.18945 0.0
C432 C 0.5255 0.18267 0.23768 0.0
H433 H 0.51531 0.18365 0.29887 0.0
C434 C 0.49675 0.18288 0.22629 0.0
C435 C 0.53226 0.18277 0.26423 0.0
C436 C 0.56259 0.18029 0.2778 0.0
C437 C 0.47462 0.18221 0.24061 0.0
C438 C 0.48137 0.18278 0.26716 0.0
C439 C 0.51012 0.18353 0.27854 0.0
C440 C 0.45913 0.17952 0.28347 0.0
C441 C 0.44433 0.17905 0.22705 0.0
C442 C 0.43599 0.20362 0.28126 0.0
C443 C 0.41404 0.19821 0.29527 0.0
C444 C 0.41519 0.16911 0.31224 0.0
C445 C 0.43915 0.14625 0.31541 0.0
C446 C 0.46078 0.15129 0.30109 0.0
H447 H 0.44342 0.16921 0.20749 0.0
H448 H 0.43174 0.16027 0.237 0.0
H449 H 0.43407 0.20611 0.22614 0.0
H450 H 0.43465 0.2263 0.26841 0.0
H451 H 0.39604 0.21656 0.29262 0.0
H452 H 0.55551 0.8609 0.66546 0.0
H453 H 0.51757 0.85466 0.69068 0.0
H454 H 0.57506 0.79798 0.74772 0.0
H455 H 0.61313 0.80359 0.72251 0.0
H456 H 0.51915 0.76836 0.73836 0.0
H457 H 0.51875 0.91698 0.75409 0.0
H458 H 0.51346 0.90386 0.72163 0.0
H459 H 0.54685 0.89431 0.74141 0.0
C460 C 0.56007 0.84674 0.68324 0.0
C461 C 0.58752 0.83318 0.6921 0.0
C462 C 0.53836 0.84334 0.69767 0.0
C463 C 0.5437 0.82652 0.72127 0.0
C464 C 0.57058 0.81127 0.72961 0.0
H465 H 0.44444 0.86271 0.83999 0.0
H466 H 0.48289 0.85481 0.81555 0.0
C467 C 0.59232 0.81457 0.71517 0.0
C468 C 0.52173 0.82655 0.73782 0.0
H469 H 0.48261 0.8831 0.7688 0.0
C470 C 0.51115 0.79339 0.74508 0.0
C471 C 0.51173 0.85926 0.74689 0.0
C472 C 0.52343 0.89564 0.74084 0.0
C473 C 0.49036 0.79213 0.76082 0.0
C474 C 0.47972 0.82491 0.76921 0.0
C475 C 0.49068 0.85799 0.76225 0.0
C476 C 0.45711 0.82589 0.78513 0.0
C477 C 0.48031 0.75577 0.76863 0.0
C478 C 0.4299 0.81186 0.77629 0.0
C479 C 0.40783 0.81622 0.79027 0.0
C480 C 0.4125 0.83505 0.81325 0.0
C481 C 0.44003 0.84816 0.82236 0.0
C482 C 0.46206 0.84368 0.80841 0.0
H483 H 0.49582 0.73397 0.76645 0.0
H484 H 0.47679 0.75627 0.78846 0.0
H485 H 0.4598 0.7489 0.75659 0.0
H486 H 0.42543 0.79866 0.75816 0.0
H487 H 0.3869 0.80586 0.78264 0.0
H488 H 0.06243 0.62328 0.17714 0.0
H489 H 0.02524 0.63363 0.20239 0.0
H490 H 0.07283 0.72355 0.23914 0.0
H491 H 0.11088 0.71237 0.21454 0.0
H492 H 0.05461 0.68293 0.27253 0.0
H493 H 0.9635 0.70685 0.19709 0.0
H494 H 0.97989 0.66436 0.19223 0.0
H495 H 0.99971 0.70582 0.19115 0.0
C496 C 0.06488 0.64559 0.19035 0.0
C497 C 0.08962 0.66705 0.19377 0.0
C498 C 0.04343 0.65166 0.20468 0.0
C499 C 0.04585 0.67989 0.22233 0.0
C500 C 0.07037 0.70174 0.22554 0.0
H501 H 0.89601 0.7157 0.29467 0.0
H502 H 0.93516 0.72646 0.27132 0.0
C503 C 0.09209 0.69534 0.21145 0.0
C504 C 0.02371 0.68475 0.23855 0.0
H505 H 0.95174 0.68739 0.23696 0.0
C506 C 0.03213 0.68451 0.26473 0.0
C507 C 0.99439 0.68771 0.22851 0.0
C508 C 0.98391 0.69163 0.2007 0.0
C509 C 0.012 0.68522 0.28107 0.0
C510 C 0.98259 0.68482 0.27096 0.0
C511 C 0.97424 0.68702 0.24481 0.0
C512 C 0.96014 0.68038 0.28693 0.0
C513 C 0.02259 0.68644 0.30897 0.0
C514 C 0.96112 0.65103 0.30361 0.0
C515 C 0.93903 0.64521 0.3173 0.0
C516 C 0.91508 0.66807 0.31412 0.0
C517 C 0.91414 0.69756 0.29752 0.0
C518 C 0.93651 0.70373 0.28414 0.0
H519 H 0.04364 0.70013 0.31317 0.0
H520 H 0.00742 0.70083 0.31911 0.0
H521 H 0.0254 0.65838 0.31631 0.0
H522 H 0.97857 0.63189 0.30551 0.0
H523 H 0.94026 0.62199 0.3297 0.0
H524 H 0.11095 0.28582 0.71151 0.0
H525 H 0.07224 0.27495 0.73541 0.0
H526 H 0.02688 0.36719 0.69967 0.0
H527 H 0.06472 0.3772 0.67506 0.0
H528 H 0.05465 0.31494 0.7692 0.0
H529 H 0.96335 0.29664 0.69307 0.0
H530 H 0.99963 0.2967 0.68726 0.0
H531 H 0.98074 0.33874 0.68907 0.0
C532 C 0.09249 0.30339 0.70845 0.0
C533 C 0.09087 0.33225 0.69127 0.0
C534 C 0.07038 0.29719 0.72215 0.0
C535 C 0.04631 0.31983 0.71906 0.0
C536 C 0.04469 0.34856 0.70184 0.0
H537 H 0.94157 0.37729 0.82741 0.0
H538 H 0.97958 0.36735 0.8029 0.0
C539 C 0.06652 0.35443 0.68788 0.0
C540 C 0.02391 0.3153 0.73509 0.0
H541 H 0.95184 0.31519 0.73322 0.0
C542 C 0.03218 0.31439 0.76129 0.0
C543 C 0.99454 0.31371 0.72491 0.0
C544 C 0.9841 0.31107 0.69703 0.0
C545 C 0.01194 0.31382 0.77753 0.0
C546 C 0.98258 0.31555 0.76734 0.0
C547 C 0.97431 0.31454 0.74114 0.0
C548 C 0.96014 0.32011 0.78334 0.0
C549 C 0.02236 0.31127 0.80542 0.0
C550 C 0.93603 0.29754 0.78011 0.0
C551 C 0.91385 0.30373 0.79371 0.0
C552 C 0.91544 0.3325 0.81097 0.0
C553 C 0.93982 0.35462 0.81452 0.0
C554 C 0.96173 0.34877 0.80062 0.0
H555 H 0.04309 0.29681 0.80941 0.0
H556 H 0.02574 0.33897 0.81331 0.0
H557 H 0.00681 0.29698 0.8152 0.0
H558 H 0.93419 0.27536 0.76681 0.0
H559 H 0.89536 0.28619 0.79054 0.0
H560 H 0.2549 0.76111 0.26047 0.0
H561 H 0.26894 0.8209 0.27761 0.0
H562 H 0.22404 0.87106 0.21052 0.0
H563 H 0.21045 0.81139 0.19297 0.0
H564 H 0.30073 0.87352 0.25416 0.0
H565 H 0.19506 0.92564 0.26929 0.0
H566 H 0.20193 0.87795 0.26577 0.0
H567 H 0.19708 0.9071 0.23881 0.0
C568 C 0.24782 0.78486 0.2494 0.0
C569 C 0.23094 0.78141 0.22558 0.0
C570 C 0.25582 0.81898 0.25925 0.0
C571 C 0.24711 0.85037 0.24551 0.0
C572 C 0.23037 0.84716 0.22168 0.0
H573 H 0.28505 0.07792 0.28261 0.0
H574 H 0.26586 0.02199 0.26197 0.0
C575 C 0.22241 0.81296 0.21175 0.0
C576 C 0.25691 0.88625 0.25572 0.0
H577 H 0.23424 0.96542 0.27854 0.0
C578 C 0.28621 0.89366 0.25947 0.0
C579 C 0.23785 0.91252 0.26236 0.0
C580 C 0.20621 0.90553 0.25906 0.0
C581 C 0.29705 0.92661 0.26986 0.0
C582 C 0.27811 0.95249 0.27725 0.0
C583 C 0.2487 0.94545 0.27296 0.0
C584 C 0.28864 0.98645 0.29021 0.0
C585 C 0.32868 0.93352 0.2726 0.0
C586 C 0.3072 0.98499 0.31323 0.0
C587 C 0.31827 0.01676 0.325 0.0
C588 C 0.31078 0.05076 0.31411 0.0
C589 C 0.29136 0.0522 0.29146 0.0
C590 C 0.28036 0.02029 0.27964 0.0
H591 H 0.33876 0.91635 0.2596 0.0
H592 H 0.33315 0.96237 0.26893 0.0
H593 H 0.33885 0.92689 0.29206 0.0
H594 H 0.31332 0.95918 0.32202 0.0
H595 H 0.33291 0.01458 0.34254 0.0
H596 H 0.72261 0.08086 0.21803 0.0
H597 H 0.7443 0.02554 0.2377 0.0
H598 H 0.69646 0.96157 0.17853 0.0
H599 H 0.67479 0.01643 0.15869 0.0
H600 H 0.71416 0.96567 0.25426 0.0
H601 H 0.77887 0.92433 0.18242 0.0
H602 H 0.76525 0.96974 0.18427 0.0
H603 H 0.74232 0.93422 0.16995 0.0
C604 C 0.7169 0.05506 0.20905 0.0
C605 C 0.69695 0.05313 0.18675 0.0
C606 C 0.7293 0.0235 0.22034 0.0
C607 C 0.72225 0.98955 0.20938 0.0
C608 C 0.70258 0.98757 0.18704 0.0
H609 H 0.74984 0.76381 0.24224 0.0
H610 H 0.73712 0.82367 0.22443 0.0
C611 C 0.69009 0.01899 0.17581 0.0
C612 C 0.73414 0.9559 0.22189 0.0
H613 H 0.7719 0.87979 0.21284 0.0
C614 C 0.7271 0.94705 0.2454 0.0
C615 C 0.75091 0.9317 0.2102 0.0
C616 C 0.76004 0.94054 0.18542 0.0
C617 C 0.73542 0.91389 0.25709 0.0
C618 C 0.75174 0.88933 0.24516 0.0
C619 C 0.75934 0.89861 0.22192 0.0
C620 C 0.76015 0.85324 0.25597 0.0
C621 C 0.7257 0.90485 0.28161 0.0
C622 C 0.77752 0.84999 0.27951 0.0
C623 C 0.78467 0.81579 0.28981 0.0
C624 C 0.77496 0.7842 0.27655 0.0
C625 C 0.75774 0.78762 0.25289 0.0
C626 C 0.75055 0.82178 0.24264 0.0
H627 H 0.7078 0.92244 0.2851 0.0
H628 H 0.71881 0.87614 0.28192 0.0
H629 H 0.74367 0.90894 0.29726 0.0
H630 H 0.7854 0.8739 0.29002 0.0
H631 H 0.79711 0.81432 0.30841 0.0
H632 H 0.71968 0.92365 0.71739 0.0
H633 H 0.73897 0.98033 0.73678 0.0
H634 H 0.68757 0.04108 0.67784 0.0
H635 H 0.66789 0.98489 0.65855 0.0
H636 H 0.7684 0.03747 0.71797 0.0
H637 H 0.66517 0.08397 0.74165 0.0
H638 H 0.67102 0.03797 0.73239 0.0
H639 H 0.66353 0.07297 0.70906 0.0
C640 C 0.71253 0.94906 0.7085 0.0
C641 C 0.69199 0.94969 0.68654 0.0
C642 C 0.72359 0.9814 0.71961 0.0
C643 C 0.71426 0.01488 0.70901 0.0
C644 C 0.69455 0.01555 0.68665 0.0
H645 H 0.74624 0.24123 0.74075 0.0
H646 H 0.73184 0.18201 0.72262 0.0
C647 C 0.68343 0.98333 0.67558 0.0
C648 C 0.72486 0.04923 0.72134 0.0
H649 H 0.70266 0.12732 0.74596 0.0
C650 C 0.75411 0.05703 0.72429 0.0
C651 C 0.70614 0.07459 0.72966 0.0
C652 C 0.67476 0.06688 0.72828 0.0
C653 C 0.765 0.0901 0.7346 0.0
C654 C 0.74614 0.11573 0.74237 0.0
C655 C 0.717 0.10768 0.7398 0.0
C656 C 0.75607 0.15135 0.75298 0.0
C657 C 0.79641 0.09782 0.73649 0.0
C658 C 0.77423 0.15369 0.77617 0.0
C659 C 0.78239 0.1875 0.78663 0.0
C660 C 0.77265 0.21956 0.77399 0.0
C661 C 0.75429 0.21703 0.75084 0.0
C662 C 0.74609 0.18326 0.74044 0.0
H663 H 0.80693 0.07872 0.72501 0.0
H664 H 0.79995 0.12592 0.73035 0.0
H665 H 0.80683 0.09511 0.75635 0.0
H666 H 0.78152 0.12936 0.78648 0.0
H667 H 0.79548 0.18833 0.80497 0.0
H668 H 0.19918 0.22114 0.74719 0.0
H669 H 0.21273 0.16314 0.76786 0.0
H670 H 0.28473 0.15631 0.72875 0.0
H671 H 0.27177 0.21474 0.70878 0.0
H672 H 0.21803 0.09626 0.75131 0.0
H673 H 0.3235 0.14255 0.79943 0.0
H674 H 0.29722 0.17342 0.78352 0.0
H675 H 0.31988 0.14818 0.7661 0.0
C676 C 0.21776 0.20707 0.7429 0.0
C677 C 0.23444 0.22231 0.72639 0.0
C678 C 0.22556 0.17403 0.75478 0.0
C679 C 0.2501 0.15568 0.75028 0.0
C680 C 0.26622 0.17043 0.73314 0.0
H681 H 0.29172 0.92965 0.78246 0.0
H682 H 0.27282 0.98682 0.7639 0.0
C683 C 0.25871 0.20369 0.72161 0.0
C684 C 0.25891 0.12117 0.76347 0.0
H685 H 0.3156 0.0787 0.79853 0.0
C686 C 0.23929 0.09248 0.76182 0.0
C687 C 0.28646 0.11643 0.77764 0.0
C688 C 0.30784 0.14693 0.78203 0.0
C689 C 0.24669 0.05896 0.77341 0.0
C690 C 0.27478 0.05358 0.78632 0.0
C691 C 0.29415 0.08257 0.78842 0.0
C692 C 0.28478 0.01831 0.79785 0.0
C693 C 0.22411 0.02999 0.77205 0.0
C694 C 0.29847 0.01696 0.82294 0.0
C695 C 0.30997 0.9845 0.83339 0.0
C696 C 0.30773 0.95257 0.81904 0.0
C697 C 0.2935 0.95372 0.79408 0.0
C698 C 0.28247 0.98638 0.78349 0.0
H699 H 0.20238 0.04194 0.76927 0.0
H700 H 0.22543 0.01208 0.75579 0.0
H701 H 0.22697 0.01323 0.78936 0.0
H702 H 0.30059 0.04119 0.83441 0.0
H703 H 0.32071 0.98447 0.8527 0.0
H704 H 0.7929 0.57636 0.28055 0.0
H705 H 0.77345 0.5198 0.26126 0.0
H706 H 0.79895 0.46401 0.33159 0.0
H707 H 0.81949 0.52 0.35061 0.0
H708 H 0.81491 0.42719 0.29558 0.0
H709 H 0.70205 0.46518 0.26514 0.0
H710 H 0.72584 0.49494 0.25243 0.0
H711 H 0.7265 0.49326 0.28586 0.0
C712 C 0.79403 0.55211 0.29196 0.0
C713 C 0.80779 0.55262 0.31708 0.0
C714 C 0.78271 0.51982 0.28096 0.0
C715 C 0.7843 0.48765 0.29505 0.0
C716 C 0.79741 0.48843 0.32032 0.0
H717 H 0.69854 0.28488 0.24532 0.0
H718 H 0.71204 0.34341 0.26523 0.0
C719 C 0.80916 0.52048 0.33118 0.0
C720 C 0.77428 0.45263 0.28315 0.0
H721 H 0.7175 0.41037 0.24785 0.0
C722 C 0.79351 0.4235 0.28532 0.0
C723 C 0.74626 0.44754 0.27001 0.0
C724 C 0.72389 0.47679 0.26843 0.0
C725 C 0.7857 0.38968 0.27454 0.0
C726 C 0.75818 0.38513 0.26029 0.0
C727 C 0.73873 0.41401 0.25845 0.0
C728 C 0.74921 0.35051 0.24733 0.0
C729 C 0.80692 0.35901 0.27904 0.0
C730 C 0.76522 0.33541 0.23024 0.0
C731 C 0.75774 0.30187 0.21914 0.0
C732 C 0.73363 0.28328 0.22432 0.0
C733 C 0.71701 0.29891 0.24073 0.0
C734 C 0.72476 0.33225 0.25217 0.0
H735 H 0.8227 0.36345 0.29636 0.0
H736 H 0.79615 0.33267 0.28074 0.0
H737 H 0.81884 0.35736 0.26305 0.0
H738 H 0.78367 0.34944 0.22562 0.0
H739 H 0.77076 0.29053 0.20637 0.0
H740 H 0.227 0.57792 0.21317 0.0
H741 H 0.24936 0.52249 0.23189 0.0
H742 H 0.18846 0.45831 0.18249 0.0
H743 H 0.16628 0.51333 0.1634 0.0
H744 H 0.22522 0.46949 0.25687 0.0
H745 H 0.26337 0.41114 0.17394 0.0
H746 H 0.25202 0.45768 0.17507 0.0
H747 H 0.22614 0.42208 0.16781 0.0
C748 C 0.21851 0.55202 0.20611 0.0
C749 C 0.19487 0.55012 0.18671 0.0
C750 C 0.23133 0.52037 0.21685 0.0
C751 C 0.22087 0.48628 0.20831 0.0
C752 C 0.19733 0.4843 0.18895 0.0
H753 H 0.23045 0.28116 0.28342 0.0
H754 H 0.21836 0.34099 0.26545 0.0
C755 C 0.18455 0.51586 0.17817 0.0
C756 C 0.23346 0.45272 0.22052 0.0
H757 H 0.26115 0.37058 0.20827 0.0
C758 C 0.23338 0.44802 0.24631 0.0
C759 C 0.24451 0.42495 0.20681 0.0
C760 C 0.24682 0.42931 0.17943 0.0
C761 C 0.24296 0.41569 0.25854 0.0
C762 C 0.25237 0.3871 0.24449 0.0
C763 C 0.25358 0.39236 0.21895 0.0
C764 C 0.26004 0.35109 0.25574 0.0
C765 C 0.24286 0.41245 0.28638 0.0
C766 C 0.28722 0.33641 0.25558 0.0
C767 C 0.29412 0.30202 0.26566 0.0
C768 C 0.27392 0.28174 0.27608 0.0
C769 C 0.24657 0.29629 0.27578 0.0
C770 C 0.2397 0.3306 0.26572 0.0
H771 H 0.24338 0.43948 0.2955 0.0
H772 H 0.22304 0.39856 0.28949 0.0
H773 H 0.26134 0.39637 0.29569 0.0
H774 H 0.30307 0.35155 0.24758 0.0
H775 H 0.31502 0.29111 0.26473 0.0
H776 H 0.22007 0.42429 0.71974 0.0
H777 H 0.23893 0.48028 0.74052 0.0
H778 H 0.19197 0.54296 0.68014 0.0
H779 H 0.17269 0.4875 0.65949 0.0
H780 H 0.2706 0.53719 0.72464 0.0
H781 H 0.16523 0.58534 0.74204 0.0
H782 H 0.17122 0.53942 0.73271 0.0
H783 H 0.16574 0.575 0.70964 0.0
C784 C 0.21383 0.44998 0.71084 0.0
C785 C 0.19459 0.45137 0.68807 0.0
C786 C 0.22463 0.48194 0.72275 0.0
C787 C 0.21635 0.51577 0.71214 0.0
C788 C 0.19806 0.51716 0.68898 0.0
H789 H 0.24904 0.74131 0.74219 0.0
H790 H 0.23559 0.68143 0.72485 0.0
C791 C 0.18717 0.48536 0.67713 0.0
C792 C 0.22652 0.54978 0.72524 0.0
H793 H 0.20301 0.62854 0.74793 0.0
C794 C 0.25589 0.55704 0.72998 0.0
C795 C 0.20726 0.5755 0.73234 0.0
C796 C 0.17563 0.56833 0.72917 0.0
C797 C 0.2664 0.59004 0.74074 0.0
C798 C 0.24703 0.61616 0.74705 0.0
C799 C 0.21776 0.60852 0.74286 0.0
C800 C 0.2565 0.65209 0.75738 0.0
C801 C 0.29803 0.59726 0.74457 0.0
C802 C 0.2725 0.65539 0.78152 0.0
C803 C 0.28008 0.68964 0.79157 0.0
C804 C 0.27194 0.72115 0.77755 0.0
C805 C 0.25581 0.7176 0.75342 0.0
C806 C 0.24815 0.68343 0.74345 0.0
H807 H 0.30957 0.5771 0.73472 0.0
H808 H 0.30233 0.62478 0.73778 0.0
H809 H 0.30671 0.59603 0.76492 0.0
H810 H 0.27851 0.63153 0.79282 0.0
H811 H 0.29143 0.69126 0.81058 0.0
H812 H 0.75547 0.73958 0.76151 0.0
H813 H 0.76915 0.67986 0.77913 0.0
H814 H 0.71856 0.62907 0.71493 0.0
H815 H 0.70586 0.68851 0.6967 0.0
H816 H 0.73537 0.62362 0.7921 0.0
H817 H 0.79596 0.58094 0.71737 0.0
H818 H 0.78499 0.6272 0.72082 0.0
H819 H 0.75979 0.59421 0.70625 0.0
C820 C 0.74726 0.71568 0.75114 0.0
C821 C 0.7291 0.71888 0.72793 0.0
C822 C 0.75501 0.6816 0.76127 0.0
C823 C 0.74504 0.65003 0.74826 0.0
C824 C 0.72674 0.65308 0.72517 0.0
H825 H 0.78264 0.42221 0.78447 0.0
H826 H 0.76108 0.47805 0.76556 0.0
C827 C 0.71904 0.68718 0.71498 0.0
C828 C 0.75398 0.61402 0.75892 0.0
H829 H 0.79069 0.53755 0.74845 0.0
C830 C 0.74743 0.60476 0.78255 0.0
C831 C 0.76964 0.58943 0.74638 0.0
C832 C 0.77827 0.59845 0.72141 0.0
C833 C 0.75619 0.57161 0.79401 0.0
C834 C 0.77225 0.54733 0.78166 0.0
C835 C 0.77831 0.55622 0.75782 0.0
C836 C 0.78424 0.51341 0.79369 0.0
C837 C 0.7481 0.56277 0.81921 0.0
C838 C 0.80451 0.51487 0.81567 0.0
C839 C 0.81692 0.48312 0.82648 0.0
C840 C 0.80938 0.4492 0.81547 0.0
C841 C 0.78889 0.44783 0.79349 0.0
C842 C 0.77656 0.47968 0.78264 0.0
H843 H 0.7296 0.5791 0.82286 0.0
H844 H 0.74284 0.5336 0.82048 0.0
H845 H 0.76637 0.56892 0.8342 0.0
H846 H 0.81114 0.54067 0.82424 0.0
H847 H 0.83266 0.48528 0.84335 0.0
H848 H 0.4027 0.03859 0.42361 0.0
H849 H 0.43162 0.00383 0.45702 0.0
H850 H 0.49655 0.0864 0.46404 0.0
H851 H 0.46767 0.12157 0.43084 0.0
H852 H 0.48683 0.97666 0.45791 0.0
H853 H 0.48299 0.07254 0.53651 0.0
H854 H 0.45886 0.07554 0.50706 0.0
H855 H 0.49469 0.09228 0.50955 0.0
C856 C 0.42306 0.04949 0.43234 0.0
C857 C 0.43284 0.08293 0.42459 0.0
C858 C 0.43957 0.02955 0.45141 0.0
C859 C 0.46604 0.04276 0.46322 0.0
C860 C 0.47592 0.07605 0.4555 0.0
H861 H 0.59897 0.96035 0.57879 0.0
H862 H 0.57013 0.99519 0.54537 0.0
C863 C 0.45944 0.09602 0.43642 0.0
C864 C 0.48368 0.02114 0.48308 0.0
H865 H 0.5147 0.02279 0.54476 0.0
C866 C 0.49283 0.98664 0.47693 0.0
C867 C 0.4915 0.03431 0.50786 0.0
C868 C 0.48133 0.07056 0.51579 0.0
C869 C 0.51001 0.96515 0.49481 0.0
C870 C 0.51784 0.97832 0.51958 0.0
C871 C 0.5087 0.01282 0.52573 0.0
C872 C 0.53542 0.95667 0.53945 0.0
C873 C 0.52015 0.92886 0.48692 0.0
C874 C 0.52535 0.92358 0.54731 0.0
C875 C 0.54177 0.90357 0.56641 0.0
C876 C 0.56851 0.91641 0.57809 0.0
C877 C 0.5785 0.94964 0.57018 0.0
C878 C 0.56204 0.96963 0.5511 0.0
H879 H 0.51835 0.92676 0.46619 0.0
H880 H 0.54266 0.92394 0.49555 0.0
H881 H 0.50687 0.90717 0.49331 0.0
H882 H 0.50463 0.91342 0.53887 0.0
H883 H 0.53339 0.87819 0.57213 0.0
H884 H 0.60033 0.03993 0.07941 0.0
H885 H 0.57063 0.00581 0.04612 0.0
H886 H 0.5059 0.08843 0.0411 0.0
H887 H 0.53555 0.12299 0.07417 0.0
H888 H 0.51583 0.97837 0.04572 0.0
H889 H 0.5176 0.07657 0.96809 0.0
H890 H 0.54224 0.07902 0.99727 0.0
H891 H 0.5064 0.09547 0.99554 0.0
C892 C 0.57983 0.05097 0.07116 0.0
C893 C 0.57035 0.08427 0.0794 0.0
C894 C 0.56289 0.0314 0.05215 0.0
C895 C 0.53625 0.04482 0.04092 0.0
C896 C 0.52664 0.07793 0.04918 0.0
H897 H 0.40128 0.96277 0.92668 0.0
H898 H 0.43026 0.99728 0.96026 0.0
C899 C 0.54357 0.09754 0.06818 0.0
C900 C 0.51822 0.02366 0.02103 0.0
H901 H 0.48589 0.02681 0.95972 0.0
C902 C 0.50937 0.98887 0.02688 0.0
C903 C 0.50981 0.03749 0.99649 0.0
C904 C 0.51968 0.07405 0.98882 0.0
C905 C 0.49198 0.96771 0.00894 0.0
C906 C 0.48356 0.98155 0.98443 0.0
C907 C 0.49234 0.01636 0.97857 0.0
C908 C 0.4659 0.96017 0.96448 0.0
C909 C 0.48231 0.93098 0.01645 0.0
C910 C 0.47646 0.92803 0.95563 0.0
C911 C 0.46001 0.90828 0.93642 0.0
C912 C 0.43269 0.92039 0.92566 0.0
C913 C 0.42219 0.95264 0.93459 0.0
C914 C 0.43872 0.97243 0.95375 0.0
H915 H 0.48487 0.92799 0.03718 0.0
H916 H 0.45962 0.92619 0.00832 0.0
H917 H 0.4953 0.90973 0.00919 0.0
H918 H 0.49758 0.91843 0.9634 0.0
H919 H 0.46878 0.88364 0.92993 0.0
H920 H 0.03545 0.38055 0.57419 0.0
H921 H 0.00607 0.41512 0.54091 0.0
H922 H 0.0711 0.4974 0.54614 0.0
H923 H 0.10077 0.4629 0.57919 0.0
H924 H 0.98529 0.4861 0.54335 0.0
H925 H 0.05521 0.47406 0.4709 0.0
H926 H 0.05923 0.44554 0.49842 0.0
H927 H 0.07277 0.49107 0.5006 0.0
C928 C 0.0436 0.4059 0.56818 0.0
C929 C 0.07051 0.4189 0.5793 0.0
C930 C 0.02675 0.42563 0.54918 0.0
C931 C 0.03657 0.45856 0.54083 0.0
C932 C 0.06335 0.4717 0.55197 0.0
H933 H 0.96728 0.62071 0.43154 0.0
H934 H 0.99611 0.58571 0.46489 0.0
C935 C 0.08021 0.45202 0.57096 0.0
C936 C 0.01848 0.47967 0.52096 0.0
H937 H 0.01627 0.51482 0.46218 0.0
C938 C 0.99196 0.49224 0.52553 0.0
C939 C 0.0273 0.48767 0.49779 0.0
C940 C 0.05506 0.47364 0.49145 0.0
C941 C 0.97423 0.51323 0.50772 0.0
C942 C 0.98308 0.5213 0.48456 0.0
C943 C 0.00958 0.50866 0.47998 0.0
C944 C 0.96516 0.54276 0.46478 0.0
C945 C 0.94648 0.52729 0.51406 0.0
C946 C 0.93828 0.53007 0.45355 0.0
C947 C 0.92171 0.55002 0.43451 0.0
C948 C 0.93183 0.58294 0.42623 0.0
C949 C 0.95881 0.59552 0.4375 0.0
C950 C 0.97535 0.57554 0.45654 0.0
H951 H 0.94628 0.52672 0.53461 0.0
H952 H 0.94241 0.55546 0.50721 0.0
H953 H 0.92875 0.50999 0.50482 0.0
H954 H 0.93025 0.50449 0.45929 0.0
H955 H 0.90108 0.53947 0.42616 0.0
H956 H 0.02708 0.60609 0.08431 0.0
H957 H 0.99898 0.57152 0.0503 0.0
H958 H 0.07336 0.50904 0.04176 0.0
H959 H 0.10161 0.54318 0.0759 0.0
H960 H 0.00793 0.56417 1.00016 0.0
H961 H 0.01336 0.43131 0.04898 0.0
H962 H 0.02236 0.47339 0.06541 0.0
H963 H 0.0473 0.45228 0.04828 0.0
C964 C 0.03748 0.58493 0.07526 0.0
C965 C 0.06656 0.57725 0.08293 0.0
C966 C 0.02138 0.56523 0.05582 0.0
C967 C 0.03399 0.53738 0.04379 0.0
C968 C 0.06308 0.52994 0.05116 0.0
H969 H 0.97338 0.3882 0.9227 0.0
H970 H 0.00146 0.42272 0.95674 0.0
C971 C 0.07922 0.54961 0.0706 0.0
C972 C 0.01682 0.51663 0.02318 0.0
H973 H 0.99301 0.43164 0.00587 0.0
C974 C 0.00454 0.53522 1.00141 0.0
C975 C 0.01253 0.47886 0.0249 0.0
C976 C 0.02435 0.45775 0.04822 0.0
C977 C 0.98847 0.51693 0.98108 0.0
C978 C 0.98412 0.47916 0.98281 0.0
C979 C 0.9964 0.46058 0.00459 0.0
C980 C 0.96691 0.45837 0.9622 0.0
C981 C 0.97688 0.53809 0.95771 0.0
C982 C 0.93805 0.46663 0.95424 0.0
C983 C 0.92196 0.44706 0.93472 0.0
C984 C 0.93438 0.41861 0.92297 0.0
C985 C 0.96317 0.40999 0.93131 0.0
C986 C 0.97926 0.42967 0.95076 0.0
H987 H 0.98838 0.56412 0.95678 0.0
H988 H 0.9784 0.52218 0.94053 0.0
H989 H 0.9541 0.5444 0.9578 0.0
H990 H 0.92791 0.4881 0.96321 0.0
H991 H 0.89977 0.45417 0.92892 0.0
loop_
_geom_bond_atom_site_label_1
_geom_bond_atom_site_label_2
_geom_bond_distance
_geom_bond_site_symmetry_2
_ccdc_geom_bond_type
Co0 O3 1.970 . S
Co0 N17 1.989 . S
Co0 O25 1.967 . S
Co0 O32 1.920 . S
Co1 O4 1.966 . S
Co1 N10 2.022 . S
Co1 N18 1.993 . S
Co1 O26 1.941 . S
C2 O3 1.258 . S
C2 O4 1.263 . S
O3 Co0 1.970 . S
O3 C2 1.258 . S
O4 Co1 1.966 . S
O4 C2 1.263 . S
C5 O6 1.235 . S
C5 O32 1.289 . S
O6 C5 1.235 . S
C7 C9 1.400 . S
C7 N10 1.351 . S
C7 C12 1.501 . S
C8 C9 1.387 . S
C8 N11 1.341 . S
C9 C7 1.400 . S
C9 C8 1.387 . S
N10 Co1 2.022 . S
N10 C7 1.351 . S
N10 N11 1.365 . S
N11 C8 1.341 . S
N11 N10 1.365 . S
N11 H31 0.862 . S
C12 C7 1.501 . S
C12 H13 0.961 . S
C12 H14 0.961 . S
C12 H15 0.960 . S
H13 C12 0.961 . S
H14 C12 0.961 . S
H15 C12 0.960 . S
C16 N17 1.342 . S
C16 C20 1.401 . S
C16 C21 1.499 . S
N17 Co0 1.989 . S
N17 C16 1.342 . S
N17 N18 1.388 . S
N18 Co1 1.993 . S
N18 N17 1.388 . S
N18 C19 1.346 . S
C19 N18 1.346 . S
C19 C20 1.396 . S
C19 C29 1.510 . S
C20 C16 1.401 . S
C20 C19 1.396 . S
C21 C16 1.499 . S
C21 H22 0.959 . S
C21 H23 0.960 . S
C21 H24 0.961 . S
H22 C21 0.959 . S
H23 C21 0.960 . S
H24 C21 0.961 . S
O25 Co0 1.967 . S
O25 C33 1.258 . S
O26 Co1 1.941 . S
O26 C33 1.266 . S
H27 C29 0.959 . S
H28 C29 0.961 . S
C29 C19 1.510 . S
C29 H27 0.959 . S
C29 H28 0.961 . S
C29 H30 0.960 . S
H30 C29 0.960 . S
H31 N11 0.862 . S
O32 Co0 1.920 . S
O32 C5 1.289 . S
C33 O25 1.258 . S
C33 O26 1.266 . S
Co34 O37 1.970 . S
Co34 N51 1.989 . S
Co34 O59 1.967 . S
Co34 O66 1.920 . S
Co35 O38 1.966 . S
Co35 N44 2.022 . S
Co35 N52 1.993 . S
Co35 O60 1.941 . S
C36 O37 1.258 . S
C36 O38 1.263 . S
O37 Co34 1.970 . S
O37 C36 1.258 . S
O38 Co35 1.966 . S
O38 C36 1.263 . S
C39 O40 1.235 . S
C39 O66 1.289 . S
O40 C39 1.235 . S
C41 C43 1.400 . S
C41 N44 1.351 . S
C41 C46 1.501 . S
C42 C43 1.387 . S
C42 N45 1.341 . S
C43 C41 1.400 . S
C43 C42 1.387 . S
N44 Co35 2.022 . S
N44 C41 1.351 . S
N44 N45 1.365 . S
N45 C42 1.341 . S
N45 N44 1.365 . S
N45 H65 0.862 . S
C46 C41 1.501 . S
C46 H47 0.961 . S
C46 H48 0.961 . S
C46 H49 0.960 . S
H47 C46 0.961 . S
H48 C46 0.961 . S
H49 C46 0.960 . S
C50 N51 1.342 . S
C50 C54 1.401 . S
C50 C55 1.499 . S
N51 Co34 1.989 . S
N51 C50 1.342 . S
N51 N52 1.388 . S
N52 Co35 1.993 . S
N52 N51 1.388 . S
N52 C53 1.346 . S
C53 N52 1.346 . S
C53 C54 1.396 . S
C53 C63 1.510 . S
C54 C50 1.401 . S
C54 C53 1.396 . S
C55 C50 1.499 . S
C55 H56 0.959 . S
C55 H57 0.960 . S
C55 H58 0.961 . S
H56 C55 0.959 . S
H57 C55 0.960 . S
H58 C55 0.961 . S
O59 Co34 1.967 . S
O59 C67 1.258 . S
O60 Co35 1.941 . S
O60 C67 1.266 . S
H61 C63 0.959 . S
H62 C63 0.961 . S
C63 C53 1.510 . S
C63 H61 0.959 . S
C63 H62 0.961 . S
C63 H64 0.960 . S
H64 C63 0.960 . S
H65 N45 0.862 . S
O66 Co34 1.920 . S
O66 C39 1.289 . S
C67 O59 1.258 . S
C67 O60 1.266 . S
Co68 O71 1.970 . S
Co68 N85 1.989 . S
Co68 O93 1.967 . S
Co68 O100 1.920 . S
Co69 O72 1.966 . S
Co69 N78 2.022 . S
Co69 N86 1.993 . S
Co69 O94 1.941 . S
C70 O71 1.258 . S
C70 O72 1.263 . S
O71 Co68 1.970 . S
O71 C70 1.258 . S
O72 Co69 1.966 . S
O72 C70 1.263 . S
C73 O74 1.235 . S
C73 O100 1.289 . S
O74 C73 1.235 . S
C75 C77 1.400 . S
C75 N78 1.351 . S
C75 C80 1.501 . S
C76 C77 1.387 . S
C76 N79 1.341 . S
C77 C75 1.400 . S
C77 C76 1.387 . S
N78 Co69 2.022 . S
N78 C75 1.351 . S
N78 N79 1.365 . S
N79 C76 1.341 . S
N79 N78 1.365 . S
N79 H99 0.862 . S
C80 C75 1.501 . S
C80 H81 0.961 . S
C80 H82 0.961 . S
C80 H83 0.960 . S
H81 C80 0.961 . S
H82 C80 0.961 . S
H83 C80 0.960 . S
C84 N85 1.342 . S
C84 C88 1.401 . S
C84 C89 1.499 . S
N85 Co68 1.989 . S
N85 C84 1.342 . S
N85 N86 1.388 . S
N86 Co69 1.993 . S
N86 N85 1.388 . S
N86 C87 1.346 . S
C87 N86 1.346 . S
C87 C88 1.396 . S
C87 C97 1.510 . S
C88 C84 1.401 . S
C88 C87 1.396 . S
C89 C84 1.499 . S
C89 H90 0.959 . S
C89 H91 0.960 . S
C89 H92 0.961 . S
H90 C89 0.959 . S
H91 C89 0.960 . S
H92 C89 0.961 . S
O93 Co68 1.967 . S
O93 C101 1.258 . S
O94 Co69 1.941 . S
O94 C101 1.266 . S
H95 C97 0.959 . S
H96 C97 0.961 . S
C97 C87 1.510 . S
C97 H95 0.959 . S
C97 H96 0.961 . S
C97 H98 0.960 . S
H98 C97 0.960 . S
H99 N79 0.862 . S
O100 Co68 1.920 . S
O100 C73 1.289 . S
C101 O93 1.258 . S
C101 O94 1.266 . S
Co102 O105 1.970 . S
Co102 N119 1.989 . S
Co102 O127 1.967 . S
Co102 O134 1.920 . S
Co103 O106 1.966 . S
Co103 N112 2.022 . S
Co103 N120 1.993 . S
Co103 O128 1.941 . S
C104 O105 1.258 . S
C104 O106 1.263 . S
O105 Co102 1.970 . S
O105 C104 1.258 . S
O106 Co103 1.966 . S
O106 C104 1.263 . S
C107 O108 1.235 . S
C107 O134 1.289 . S
O108 C107 1.235 . S
C109 C111 1.400 . S
C109 N112 1.351 . S
C109 C114 1.501 . S
C110 C111 1.387 . S
C110 N113 1.341 . S
C111 C109 1.400 . S
C111 C110 1.387 . S
N112 Co103 2.022 . S
N112 C109 1.351 . S
N112 N113 1.365 . S
N113 C110 1.341 . S
N113 N112 1.365 . S
N113 H133 0.862 . S
C114 C109 1.501 . S
C114 H115 0.961 . S
C114 H116 0.961 . S
C114 H117 0.960 . S
H115 C114 0.961 . S
H116 C114 0.961 . S
H117 C114 0.960 . S
C118 N119 1.342 . S
C118 C122 1.401 . S
C118 C123 1.499 . S
N119 Co102 1.989 . S
N119 C118 1.342 . S
N119 N120 1.388 . S
N120 Co103 1.993 . S
N120 N119 1.388 . S
N120 C121 1.346 . S
C121 N120 1.346 . S
C121 C122 1.396 . S
C121 C131 1.510 . S
C122 C118 1.401 . S
C122 C121 1.396 . S
C123 C118 1.499 . S
C123 H124 0.959 . S
C123 H125 0.960 . S
C123 H126 0.961 . S
H124 C123 0.959 . S
H125 C123 0.960 . S
H126 C123 0.961 . S
O127 Co102 1.967 . S
O127 C135 1.258 . S
O128 Co103 1.941 . S
O128 C135 1.266 . S
H129 C131 0.959 . S
H130 C131 0.961 . S
C131 C121 1.510 . S
C131 H129 0.959 . S
C131 H130 0.961 . S
C131 H132 0.960 . S
H132 C131 0.960 . S
H133 N113 0.862 . S
O134 Co102 1.920 . S
O134 C107 1.289 . S
C135 O127 1.258 . S
C135 O128 1.266 . S
Co136 O139 1.970 . S
Co136 N153 1.989 . S
Co136 O161 1.967 . S
Co136 O168 1.920 . S
Co137 O140 1.966 . S
Co137 N146 2.022 . S
Co137 N154 1.993 . S
Co137 O162 1.941 . S
C138 O139 1.258 . S
C138 O140 1.263 . S
O139 Co136 1.970 . S
O139 C138 1.258 . S
O140 Co137 1.966 . S
O140 C138 1.263 . S
C141 O142 1.235 . S
C141 O168 1.289 . S
O142 C141 1.235 . S
C143 C145 1.400 . S
C143 N146 1.351 . S
C143 C148 1.501 . S
C144 C145 1.387 . S
C144 N147 1.341 . S
C145 C143 1.400 . S
C145 C144 1.387 . S
N146 Co137 2.022 . S
N146 C143 1.351 . S
N146 N147 1.365 . S
N147 C144 1.341 . S
N147 N146 1.365 . S
N147 H167 0.862 . S
C148 C143 1.501 . S
C148 H149 0.961 . S
C148 H150 0.961 . S
C148 H151 0.960 . S
H149 C148 0.961 . S
H150 C148 0.961 . S
H151 C148 0.960 . S
C152 N153 1.342 . S
C152 C156 1.401 . S
C152 C157 1.499 . S
N153 Co136 1.989 . S
N153 C152 1.342 . S
N153 N154 1.388 . S
N154 Co137 1.993 . S
N154 N153 1.388 . S
N154 C155 1.346 . S
C155 N154 1.346 . S
C155 C156 1.396 . S
C155 C165 1.510 . S
C156 C152 1.401 . S
C156 C155 1.396 . S
C157 C152 1.499 . S
C157 H158 0.959 . S
C157 H159 0.960 . S
C157 H160 0.961 . S
H158 C157 0.959 . S
H159 C157 0.960 . S
H160 C157 0.961 . S
O161 Co136 1.967 . S
O161 C169 1.258 . S
O162 Co137 1.941 . S
O162 C169 1.266 . S
H163 C165 0.959 . S
H164 C165 0.961 . S
C165 C155 1.510 . S
C165 H163 0.959 . S
C165 H164 0.961 . S
C165 H166 0.960 . S
H166 C165 0.960 . S
H167 N147 0.862 . S
O168 Co136 1.920 . S
O168 C141 1.289 . S
C169 O161 1.258 . S
C169 O162 1.266 . S
Co170 O173 1.970 . S
Co170 N187 1.989 . S
Co170 O195 1.967 . S
Co170 O202 1.920 . S
Co171 O174 1.966 . S
Co171 N180 2.022 . S
Co171 N188 1.993 . S
Co171 O196 1.941 . S
C172 O173 1.258 . S
C172 O174 1.263 . S
O173 Co170 1.970 . S
O173 C172 1.258 . S
O174 Co171 1.966 . S
O174 C172 1.263 . S
C175 O176 1.235 . S
C175 O202 1.289 . S
O176 C175 1.235 . S
C177 C179 1.400 . S
C177 N180 1.351 . S
C177 C182 1.501 . S
C178 C179 1.387 . S
C178 N181 1.341 . S
C179 C177 1.400 . S
C179 C178 1.387 . S
N180 Co171 2.022 . S
N180 C177 1.351 . S
N180 N181 1.365 . S
N181 C178 1.341 . S
N181 N180 1.365 . S
N181 H201 0.862 . S
C182 C177 1.501 . S
C182 H183 0.961 . S
C182 H184 0.961 . S
C182 H185 0.960 . S
H183 C182 0.961 . S
H184 C182 0.961 . S
H185 C182 0.960 . S
C186 N187 1.342 . S
C186 C190 1.401 . S
C186 C191 1.499 . S
N187 Co170 1.989 . S
N187 C186 1.342 . S
N187 N188 1.388 . S
N188 Co171 1.993 . S
N188 N187 1.388 . S
N188 C189 1.346 . S
C189 N188 1.346 . S
C189 C190 1.396 . S
C189 C199 1.510 . S
C190 C186 1.401 . S
C190 C189 1.396 . S
C191 C186 1.499 . S
C191 H192 0.959 . S
C191 H193 0.960 . S
C191 H194 0.961 . S
H192 C191 0.959 . S
H193 C191 0.960 . S
H194 C191 0.961 . S
O195 Co170 1.967 . S
O195 C203 1.258 . S
O196 Co171 1.941 . S
O196 C203 1.266 . S
H197 C199 0.959 . S
H198 C199 0.961 . S
C199 C189 1.510 . S
C199 H197 0.959 . S
C199 H198 0.961 . S
C199 H200 0.960 . S
H200 C199 0.960 . S
H201 N181 0.862 . S
O202 Co170 1.920 . S
O202 C175 1.289 . S
C203 O195 1.258 . S
C203 O196 1.266 . S
Co204 O207 1.970 . S
Co204 N221 1.989 . S
Co204 O229 1.967 . S
Co204 O236 1.920 . S
Co205 O208 1.966 . S
Co205 N214 2.022 . S
Co205 N222 1.993 . S
Co205 O230 1.941 . S
C206 O207 1.258 . S
C206 O208 1.263 . S
O207 Co204 1.970 . S
O207 C206 1.258 . S
O208 Co205 1.966 . S
O208 C206 1.263 . S
C209 O210 1.235 . S
C209 O236 1.289 . S
O210 C209 1.235 . S
C211 C213 1.400 . S
C211 N214 1.351 . S
C211 C216 1.501 . S
C212 C213 1.387 . S
C212 N215 1.341 . S
C213 C211 1.400 . S
C213 C212 1.387 . S
N214 Co205 2.022 . S
N214 C211 1.351 . S
N214 N215 1.365 . S
N215 C212 1.341 . S
N215 N214 1.365 . S
N215 H235 0.862 . S
C216 C211 1.501 . S
C216 H217 0.961 . S
C216 H218 0.961 . S
C216 H219 0.960 . S
H217 C216 0.961 . S
H218 C216 0.961 . S
H219 C216 0.960 . S
C220 N221 1.342 . S
C220 C224 1.401 . S
C220 C225 1.499 . S
N221 Co204 1.989 . S
N221 C220 1.342 . S
N221 N222 1.388 . S
N222 Co205 1.993 . S
N222 N221 1.388 . S
N222 C223 1.346 . S
C223 N222 1.346 . S
C223 C224 1.396 . S
C223 C233 1.510 . S
C224 C220 1.401 . S
C224 C223 1.396 . S
C225 C220 1.499 . S
C225 H226 0.959 . S
C225 H227 0.960 . S
C225 H228 0.961 . S
H226 C225 0.959 . S
H227 C225 0.960 . S
H228 C225 0.961 . S
O229 Co204 1.967 . S
O229 C237 1.258 . S
O230 Co205 1.941 . S
O230 C237 1.266 . S
H231 C233 0.959 . S
H232 C233 0.961 . S
C233 C223 1.510 . S
C233 H231 0.959 . S
C233 H232 0.961 . S
C233 H234 0.960 . S
H234 C233 0.960 . S
H235 N215 0.862 . S
O236 Co204 1.920 . S
O236 C209 1.289 . S
C237 O229 1.258 . S
C237 O230 1.266 . S
Co238 O241 1.970 . S
Co238 N255 1.989 . S
Co238 O263 1.967 . S
Co238 O270 1.920 . S
Co239 O242 1.966 . S
Co239 N248 2.022 . S
Co239 N256 1.993 . S
Co239 O264 1.941 . S
C240 O241 1.258 . S
C240 O242 1.263 . S
O241 Co238 1.970 . S
O241 C240 1.258 . S
O242 Co239 1.966 . S
O242 C240 1.263 . S
C243 O244 1.235 . S
C243 O270 1.289 . S
O244 C243 1.235 . S
C245 C247 1.400 . S
C245 N248 1.351 . S
C245 C250 1.501 . S
C246 C247 1.387 . S
C246 N249 1.341 . S
C247 C245 1.400 . S
C247 C246 1.387 . S
N248 Co239 2.022 . S
N248 C245 1.351 . S
N248 N249 1.365 . S
N249 C246 1.341 . S
N249 N248 1.365 . S
N249 H269 0.862 . S
C250 C245 1.501 . S
C250 H251 0.961 . S
C250 H252 0.961 . S
C250 H253 0.960 . S
H251 C250 0.961 . S
H252 C250 0.961 . S
H253 C250 0.960 . S
C254 N255 1.342 . S
C254 C258 1.401 . S
C254 C259 1.499 . S
N255 Co238 1.989 . S
N255 C254 1.342 . S
N255 N256 1.388 . S
N256 Co239 1.993 . S
N256 N255 1.388 . S
N256 C257 1.346 . S
C257 N256 1.346 . S
C257 C258 1.396 . S
C257 C267 1.510 . S
C258 C254 1.401 . S
C258 C257 1.396 . S
C259 C254 1.499 . S
C259 H260 0.959 . S
C259 H261 0.960 . S
C259 H262 0.961 . S
H260 C259 0.959 . S
H261 C259 0.960 . S
H262 C259 0.961 . S
O263 Co238 1.967 . S
O263 C271 1.258 . S
O264 Co239 1.941 . S
O264 C271 1.266 . S
H265 C267 0.959 . S
H266 C267 0.961 . S
C267 C257 1.510 . S
C267 H265 0.959 . S
C267 H266 0.961 . S
C267 H268 0.960 . S
H268 C267 0.960 . S
H269 N249 0.862 . S
O270 Co238 1.920 . S
O270 C243 1.289 . S
C271 O263 1.258 . S
C271 O264 1.266 . S
H272 C280 0.929 . S
H273 C282 0.930 . S
H274 C284 0.930 . S
H275 C287 0.929 . S
H276 C290 0.930 . S
H277 C292 0.960 . S
H278 C292 0.960 . S
H279 C292 0.960 . S
C280 H272 0.929 . S
C280 C281 1.377 . S
C280 C282 1.384 . S
C281 C280 1.377 . S
C281 C287 1.390 . S
C282 H273 0.930 . S
C282 C280 1.384 . S
C282 C283 1.372 . S
C283 C282 1.372 . S
C283 C284 1.400 . S
C283 C288 1.490 . S
C284 H274 0.930 . S
C284 C283 1.400 . S
C284 C287 1.386 . S
H285 C301 0.930 . S
H286 C302 0.931 . S
C287 H275 0.929 . S
C287 C281 1.390 . S
C287 C284 1.386 . S
C288 C283 1.490 . S
C288 C290 1.395 . S
C288 C291 1.403 . S
H289 C295 0.930 . S
C290 H276 0.930 . S
C290 C288 1.395 . S
C290 C293 1.403 . S
C291 C288 1.403 . S
C291 C292 1.524 . S
C291 C295 1.400 . S
C292 H277 0.960 . S
C292 H278 0.960 . S
C292 H279 0.960 . S
C292 C291 1.524 . S
C293 C290 1.403 . S
C293 C294 1.392 . S
C293 C297 1.495 . S
C294 C293 1.392 . S
C294 C295 1.385 . S
C294 C296 1.478 . S
C295 H289 0.930 . S
C295 C291 1.400 . S
C295 C294 1.385 . S
C296 C294 1.478 . S
C296 C298 1.381 . S
C296 C302 1.383 . S
C297 C293 1.495 . S
C297 H303 0.959 . S
C297 H304 0.961 . S
C297 H305 0.960 . S
C298 C296 1.381 . S
C298 C299 1.394 . S
C298 H306 0.930 . S
C299 C298 1.394 . S
C299 C300 1.383 . S
C299 H307 0.929 . S
C300 C299 1.383 . S
C300 C301 1.377 . S
C301 H285 0.930 . S
C301 C300 1.377 . S
C301 C302 1.379 . S
C302 H286 0.931 . S
C302 C296 1.383 . S
C302 C301 1.379 . S
H303 C297 0.959 . S
H304 C297 0.961 . S
H305 C297 0.960 . S
H306 C298 0.930 . S
H307 C299 0.929 . S
H308 C316 0.929 . S
H309 C318 0.930 . S
H310 C320 0.930 . S
H311 C323 0.929 . S
H312 C326 0.930 . S
H313 C328 0.960 1_556 S
H314 C328 0.960 . S
H315 C328 0.960 . S
C316 H308 0.929 . S
C316 C317 1.377 . S
C316 C318 1.384 . S
C317 C316 1.377 . S
C317 C323 1.390 . S
C318 H309 0.930 . S
C318 C316 1.384 . S
C318 C319 1.372 . S
C319 C318 1.372 . S
C319 C320 1.400 . S
C319 C324 1.490 . S
C320 H310 0.930 . S
C320 C319 1.400 . S
C320 C323 1.386 . S
H321 C337 0.930 . S
H322 C338 0.931 . S
C323 H311 0.929 . S
C323 C317 1.390 . S
C323 C320 1.386 . S
C324 C319 1.490 . S
C324 C326 1.395 . S
C324 C327 1.403 . S
H325 C331 0.930 . S
C326 H312 0.930 . S
C326 C324 1.395 . S
C326 C329 1.403 . S
C327 C324 1.403 . S
C327 C328 1.524 . S
C327 C331 1.400 1_554 S
C328 H313 0.960 1_554 S
C328 H314 0.960 . S
C328 H315 0.960 . S
C328 C327 1.524 . S
C329 C326 1.403 . S
C329 C330 1.392 1_554 S
C329 C333 1.495 . S
C330 C329 1.392 1_556 S
C330 C331 1.385 . S
C330 C332 1.478 . S
C331 H325 0.930 . S
C331 C327 1.400 1_556 S
C331 C330 1.385 . S
C332 C330 1.478 . S
C332 C334 1.381 . S
C332 C338 1.383 . S
C333 C329 1.495 . S
C333 H339 0.959 . S
C333 H340 0.961 1_554 S
C333 H341 0.960 . S
C334 C332 1.381 . S
C334 C335 1.394 . S
C334 H342 0.930 . S
C335 C334 1.394 . S
C335 C336 1.383 . S
C335 H343 0.929 . S
C336 C335 1.383 . S
C336 C337 1.377 . S
C337 H321 0.930 . S
C337 C336 1.377 . S
C337 C338 1.379 . S
C338 H322 0.931 . S
C338 C332 1.383 . S
C338 C337 1.379 . S
H339 C333 0.959 . S
H340 C333 0.961 1_556 S
H341 C333 0.960 . S
H342 C334 0.930 . S
H343 C335 0.929 . S
H344 C352 0.929 . S
H345 C354 0.930 . S
H346 C356 0.930 . S
H347 C359 0.929 . S
H348 C362 0.930 . S
H349 C364 0.960 . S
H350 C364 0.960 . S
H351 C364 0.960 . S
C352 H344 0.929 . S
C352 C353 1.377 . S
C352 C354 1.384 . S
C353 C352 1.377 . S
C353 C359 1.390 . S
C354 H345 0.930 . S
C354 C352 1.384 . S
C354 C355 1.372 . S
C355 C354 1.372 . S
C355 C356 1.400 . S
C355 C360 1.490 . S
C356 H346 0.930 . S
C356 C355 1.400 . S
C356 C359 1.386 . S
H357 C373 0.930 . S
H358 C374 0.931 . S
C359 H347 0.929 . S
C359 C353 1.390 . S
C359 C356 1.386 . S
C360 C355 1.490 . S
C360 C362 1.395 . S
C360 C363 1.403 . S
H361 C367 0.930 . S
C362 H348 0.930 . S
C362 C360 1.395 . S
C362 C365 1.403 . S
C363 C360 1.403 . S
C363 C364 1.524 . S
C363 C367 1.400 . S
C364 H349 0.960 . S
C364 H350 0.960 . S
C364 H351 0.960 . S
C364 C363 1.524 . S
C365 C362 1.403 . S
C365 C366 1.392 . S
C365 C369 1.495 . S
C366 C365 1.392 . S
C366 C367 1.385 . S
C366 C368 1.478 . S
C367 H361 0.930 . S
C367 C363 1.400 . S
C367 C366 1.385 . S
C368 C366 1.478 . S
C368 C370 1.381 . S
C368 C374 1.383 . S
C369 C365 1.495 . S
C369 H375 0.959 . S
C369 H376 0.961 . S
C369 H377 0.960 . S
C370 C368 1.381 . S
C370 C371 1.394 . S
C370 H378 0.930 . S
C371 C370 1.394 . S
C371 C372 1.383 . S
C371 H379 0.929 . S
C372 C371 1.383 . S
C372 C373 1.377 . S
C373 H357 0.930 . S
C373 C372 1.377 . S
C373 C374 1.379 . S
C374 H358 0.931 . S
C374 C368 1.383 . S
C374 C373 1.379 . S
H375 C369 0.959 . S
H376 C369 0.961 . S
H377 C369 0.960 . S
H378 C370 0.930 . S
H379 C371 0.929 . S
H380 C388 0.929 . S
H381 C390 0.930 . S
H382 C392 0.930 . S
H383 C395 0.929 . S
H384 C398 0.930 . S
H385 C400 0.960 . S
H386 C400 0.960 . S
H387 C400 0.960 . S
C388 H380 0.929 . S
C388 C389 1.377 . S
C388 C390 1.384 . S
C389 C388 1.377 . S
C389 C395 1.390 . S
C390 H381 0.930 . S
C390 C388 1.384 . S
C390 C391 1.372 . S
C391 C390 1.372 . S
C391 C392 1.400 . S
C391 C396 1.490 . S
C392 H382 0.930 . S
C392 C391 1.400 . S
C392 C395 1.386 . S
H393 C409 0.930 . S
H394 C410 0.931 . S
C395 H383 0.929 . S
C395 C389 1.390 . S
C395 C392 1.386 . S
C396 C391 1.490 . S
C396 C398 1.395 1_556 S
C396 C399 1.403 . S
H397 C403 0.929 . S
C398 H384 0.930 . S
C398 C396 1.395 1_554 S
C398 C401 1.403 . S
C399 C396 1.403 . S
C399 C400 1.524 . S
C399 C403 1.435 . S
C400 H385 0.960 . S
C400 H386 0.960 . S
C400 H387 0.960 . S
C400 C399 1.524 . S
C401 C398 1.403 . S
C401 C402 1.392 . S
C401 C405 1.495 . S
C402 C401 1.392 . S
C402 C403 1.352 1_554 S
C402 C404 1.478 . S
C403 H397 0.929 . S
C403 C399 1.435 . S
C403 C402 1.352 1_556 S
C404 C402 1.478 . S
C404 C406 1.381 . S
C404 C410 1.383 . S
C405 C401 1.495 . S
C405 H411 0.959 . S
C405 H412 0.961 . S
C405 H413 0.960 . S
C406 C404 1.381 . S
C406 C407 1.394 . S
C406 H414 0.930 . S
C407 C406 1.394 . S
C407 C408 1.383 . S
C407 H415 0.929 . S
C408 C407 1.383 . S
C408 C409 1.377 . S
C409 H393 0.930 . S
C409 C408 1.377 . S
C409 C410 1.379 . S
C410 H394 0.931 . S
C410 C404 1.383 . S
C410 C409 1.379 . S
H411 C405 0.959 . S
H412 C405 0.961 . S
H413 C405 0.960 . S
H414 C406 0.930 . S
H415 C407 0.929 . S
H416 C424 0.929 . S
H417 C426 0.930 . S
H418 C428 0.930 . S
H419 C431 0.929 . S
H420 C434 0.930 . S
H421 C436 0.960 . S
H422 C436 0.960 . S
H423 C436 0.960 . S
C424 H416 0.929 . S
C424 C425 1.377 . S
C424 C426 1.384 . S
C425 C424 1.377 . S
C425 C431 1.390 . S
C426 H417 0.930 . S
C426 C424 1.384 . S
C426 C427 1.372 . S
C427 C426 1.372 . S
C427 C428 1.400 . S
C427 C432 1.490 . S
C428 H418 0.930 . S
C428 C427 1.400 . S
C428 C431 1.386 . S
H429 C445 0.930 . S
H430 C446 0.931 . S
C431 H419 0.929 . S
C431 C425 1.390 . S
C431 C428 1.386 . S
C432 C427 1.490 . S
C432 C434 1.395 . S
C432 C435 1.403 . S
H433 C439 0.930 . S
C434 H420 0.930 . S
C434 C432 1.395 . S
C434 C437 1.403 . S
C435 C432 1.403 . S
C435 C436 1.524 . S
C435 C439 1.400 . S
C436 H421 0.960 . S
C436 H422 0.960 . S
C436 H423 0.960 . S
C436 C435 1.524 . S
C437 C434 1.403 . S
C437 C438 1.392 . S
C437 C441 1.495 . S
C438 C437 1.392 . S
C438 C439 1.385 . S
C438 C440 1.478 . S
C439 H433 0.930 . S
C439 C435 1.400 . S
C439 C438 1.385 . S
C440 C438 1.478 . S
C440 C442 1.381 . S
C440 C446 1.383 . S
C441 C437 1.495 . S
C441 H447 0.959 . S
C441 H448 0.961 . S
C441 H449 0.960 . S
C442 C440 1.381 . S
C442 C443 1.394 . S
C442 H450 0.930 . S
C443 C442 1.394 . S
C443 C444 1.383 . S
C443 H451 0.929 . S
C444 C443 1.383 . S
C444 C445 1.377 . S
C445 H429 0.930 . S
C445 C444 1.377 . S
C445 C446 1.379 . S
C446 H430 0.931 . S
C446 C440 1.383 . S
C446 C445 1.379 . S
H447 C441 0.959 . S
H448 C441 0.961 . S
H449 C441 0.960 . S
H450 C442 0.930 . S
H451 C443 0.929 . S
H452 C460 0.929 . S
H453 C462 0.930 . S
H454 C464 0.930 . S
H455 C467 0.929 . S
H456 C470 0.930 . S
H457 C472 0.960 . S
H458 C472 0.960 . S
H459 C472 0.960 . S
C460 H452 0.929 . S
C460 C461 1.377 . S
C460 C462 1.384 . S
C461 C460 1.377 . S
C461 C467 1.390 . S
C462 H453 0.930 . S
C462 C460 1.384 . S
C462 C463 1.372 . S
C463 C462 1.372 . S
C463 C464 1.400 . S
C463 C468 1.490 . S
C464 H454 0.930 . S
C464 C463 1.400 . S
C464 C467 1.386 . S
H465 C481 0.930 . S
H466 C482 0.931 . S
C467 H455 0.929 . S
C467 C461 1.390 . S
C467 C464 1.386 . S
C468 C463 1.490 . S
C468 C470 1.395 . S
C468 C471 1.403 . S
H469 C475 0.930 . S
C470 H456 0.930 . S
C470 C468 1.395 . S
C470 C473 1.403 . S
C471 C468 1.403 . S
C471 C472 1.524 . S
C471 C475 1.400 . S
C472 H457 0.960 . S
C472 H458 0.960 . S
C472 H459 0.960 . S
C472 C471 1.524 . S
C473 C470 1.403 . S
C473 C474 1.392 . S
C473 C477 1.495 . S
C474 C473 1.392 . S
C474 C475 1.385 . S
C474 C476 1.478 . S
C475 H469 0.930 . S
C475 C471 1.400 . S
C475 C474 1.385 . S
C476 C474 1.478 . S
C476 C478 1.381 . S
C476 C482 1.383 . S
C477 C473 1.495 . S
C477 H483 0.959 . S
C477 H484 0.961 . S
C477 H485 0.960 . S
C478 C476 1.381 . S
C478 C479 1.394 . S
C478 H486 0.930 . S
C479 C478 1.394 . S
C479 C480 1.383 . S
C479 H487 0.929 . S
C480 C479 1.383 . S
C480 C481 1.377 . S
C481 H465 0.930 . S
C481 C480 1.377 . S
C481 C482 1.379 . S
C482 H466 0.931 . S
C482 C476 1.383 . S
C482 C481 1.379 . S
H483 C477 0.959 . S
H484 C477 0.961 . S
H485 C477 0.960 . S
H486 C478 0.930 . S
H487 C479 0.929 . S
H488 C496 0.929 . S
H489 C498 0.930 . S
H490 C500 0.930 . S
H491 C503 0.929 . S
H492 C506 0.930 . S
H493 C508 0.960 . S
H494 C508 0.960 . S
H495 C508 0.950 1_455 S
C496 H488 0.929 . S
C496 C497 1.377 . S
C496 C498 1.384 . S
C497 C496 1.377 . S
C497 C503 1.390 . S
C498 H489 0.930 . S
C498 C496 1.384 . S
C498 C499 1.372 . S
C499 C498 1.372 . S
C499 C500 1.400 . S
C499 C504 1.490 . S
C500 H490 0.930 . S
C500 C499 1.400 . S
C500 C503 1.386 . S
H501 C517 0.930 . S
H502 C518 0.931 . S
C503 H491 0.929 . S
C503 C497 1.390 . S
C503 C500 1.386 . S
C504 C499 1.490 . S
C504 C506 1.395 . S
C504 C507 1.403 1_455 S
H505 C511 0.930 . S
C506 H492 0.930 . S
C506 C504 1.395 . S
C506 C509 1.403 . S
C507 C504 1.403 1_655 S
C507 C508 1.524 . S
C507 C511 1.400 . S
C508 H493 0.960 . S
C508 H494 0.960 . S
C508 H495 0.950 1_655 S
C508 C507 1.524 . S
C509 C506 1.403 . S
C509 C510 1.392 1_455 S
C509 C513 1.495 . S
C510 C509 1.392 1_655 S
C510 C511 1.385 . S
C510 C512 1.478 . S
C511 H505 0.930 . S
C511 C507 1.400 . S
C511 C510 1.385 . S
C512 C510 1.478 . S
C512 C514 1.381 . S
C512 C518 1.383 . S
C513 C509 1.495 . S
C513 H519 0.959 . S
C513 H520 0.961 . S
C513 H521 0.981 . S
C514 C512 1.381 . S
C514 C515 1.394 . S
C514 H522 0.930 . S
C515 C514 1.394 . S
C515 C516 1.383 . S
C515 H523 0.929 . S
C516 C515 1.383 . S
C516 C517 1.377 . S
C517 H501 0.930 . S
C517 C516 1.377 . S
C517 C518 1.379 . S
C518 H502 0.931 . S
C518 C512 1.383 . S
C518 C517 1.379 . S
H519 C513 0.959 . S
H520 C513 0.961 . S
H521 C513 0.981 . S
H522 C514 0.930 . S
H523 C515 0.929 . S
H524 C532 0.929 . S
H525 C534 0.930 . S
H526 C536 0.930 . S
H527 C539 0.929 . S
H528 C542 0.930 . S
H529 C544 0.960 . S
H530 C544 0.960 . S
H531 C544 0.979 . S
C532 H524 0.929 . S
C532 C533 1.377 . S
C532 C534 1.384 . S
C533 C532 1.377 . S
C533 C539 1.390 . S
C534 H525 0.930 . S
C534 C532 1.384 . S
C534 C535 1.372 . S
C535 C534 1.372 . S
C535 C536 1.400 . S
C535 C540 1.490 . S
C536 H526 0.930 . S
C536 C535 1.400 . S
C536 C539 1.386 . S
H537 C553 0.930 . S
H538 C554 0.931 . S
C539 H527 0.929 . S
C539 C533 1.390 . S
C539 C536 1.386 . S
C540 C535 1.490 . S
C540 C542 1.395 . S
C540 C543 1.403 1_455 S
H541 C547 0.930 . S
C542 H528 0.930 . S
C542 C540 1.395 . S
C542 C545 1.403 . S
C543 C540 1.403 1_655 S
C543 C544 1.524 . S
C543 C547 1.400 . S
C544 H529 0.960 . S
C544 H530 0.960 . S
C544 H531 0.979 . S
C544 C543 1.524 . S
C545 C542 1.403 . S
C545 C546 1.392 1_455 S
C545 C549 1.495 . S
C546 C545 1.392 1_655 S
C546 C547 1.385 . S
C546 C548 1.478 . S
C547 H541 0.930 . S
C547 C543 1.400 . S
C547 C546 1.385 . S
C548 C546 1.478 . S
C548 C550 1.381 . S
C548 C554 1.383 . S
C549 C545 1.495 . S
C549 H555 0.959 . S
C549 H556 0.961 . S
C549 H557 0.960 . S
C550 C548 1.381 . S
C550 C551 1.394 . S
C550 H558 0.930 . S
C551 C550 1.394 . S
C551 C552 1.383 . S
C551 H559 0.929 . S
C552 C551 1.383 . S
C552 C553 1.377 . S
C553 H537 0.930 . S
C553 C552 1.377 . S
C553 C554 1.379 . S
C554 H538 0.931 . S
C554 C548 1.383 . S
C554 C553 1.379 . S
H555 C549 0.959 . S
H556 C549 0.961 . S
H557 C549 0.960 . S
H558 C550 0.930 . S
H559 C551 0.929 . S
H560 C568 0.929 . S
H561 C570 0.930 . S
H562 C572 0.930 . S
H563 C575 0.929 . S
H564 C578 0.930 . S
H565 C580 0.960 . S
H566 C580 0.960 . S
H567 C580 0.960 . S
C568 H560 0.929 . S
C568 C569 1.377 . S
C568 C570 1.384 . S
C569 C568 1.377 . S
C569 C575 1.390 . S
C570 H561 0.930 . S
C570 C568 1.384 . S
C570 C571 1.372 . S
C571 C570 1.372 . S
C571 C572 1.400 . S
C571 C576 1.490 . S
C572 H562 0.930 . S
C572 C571 1.400 . S
C572 C575 1.386 . S
H573 C589 0.930 . S
H574 C590 0.931 . S
C575 H563 0.929 . S
C575 C569 1.390 . S
C575 C572 1.386 . S
C576 C571 1.490 . S
C576 C578 1.395 . S
C576 C579 1.403 . S
H577 C583 0.930 . S
C578 H564 0.930 . S
C578 C576 1.395 . S
C578 C581 1.403 . S
C579 C576 1.403 . S
C579 C580 1.524 . S
C579 C583 1.400 . S
C580 H565 0.960 . S
C580 H566 0.960 . S
C580 H567 0.960 . S
C580 C579 1.524 . S
C581 C578 1.403 . S
C581 C582 1.392 . S
C581 C585 1.495 . S
C582 C581 1.392 . S
C582 C583 1.385 . S
C582 C584 1.478 1_565 S
C583 H577 0.930 . S
C583 C579 1.400 . S
C583 C582 1.385 . S
C584 C582 1.478 1_545 S
C584 C586 1.381 . S
C584 C590 1.383 . S
C585 C581 1.495 . S
C585 H591 0.959 . S
C585 H592 0.961 . S
C585 H593 0.960 . S
C586 C584 1.381 . S
C586 C587 1.394 . S
C586 H594 0.930 1_545 S
C587 C586 1.394 . S
C587 C588 1.383 . S
C587 H595 0.929 . S
C588 C587 1.383 . S
C588 C589 1.377 . S
C589 H573 0.930 . S
C589 C588 1.377 . S
C589 C590 1.379 . S
C590 H574 0.931 . S
C590 C584 1.383 . S
C590 C589 1.379 . S
H591 C585 0.959 . S
H592 C585 0.961 . S
H593 C585 0.960 . S
H594 C586 0.930 1_565 S
H595 C587 0.929 . S
H596 C604 0.929 . S
H597 C606 0.930 . S
H598 C608 0.930 1_565 S
H599 C611 0.929 . S
H600 C614 0.930 . S
H601 C616 0.960 . S
H602 C616 0.960 . S
H603 C616 0.960 . S
C604 H596 0.929 . S
C604 C605 1.377 . S
C604 C606 1.384 . S
C605 C604 1.377 . S
C605 C611 1.390 . S
C606 H597 0.930 . S
C606 C604 1.384 . S
C606 C607 1.372 . S
C607 C606 1.372 . S
C607 C608 1.400 . S
C607 C612 1.490 1_545 S
C608 H598 0.930 1_545 S
C608 C607 1.400 . S
C608 C611 1.386 . S
H609 C625 0.930 . S
H610 C626 0.931 . S
C611 H599 0.929 . S
C611 C605 1.390 . S
C611 C608 1.386 . S
C612 C607 1.490 1_565 S
C612 C614 1.395 . S
C612 C615 1.403 . S
H613 C619 0.930 . S
C614 H600 0.930 . S
C614 C612 1.395 . S
C614 C617 1.403 . S
C615 C612 1.403 . S
C615 C616 1.524 . S
C615 C619 1.400 . S
C616 H601 0.960 . S
C616 H602 0.960 . S
C616 H603 0.960 . S
C616 C615 1.524 . S
C617 C614 1.403 . S
C617 C618 1.392 . S
C617 C621 1.495 . S
C618 C617 1.392 . S
C618 C619 1.385 . S
C618 C620 1.478 . S
C619 H613 0.930 . S
C619 C615 1.400 . S
C619 C618 1.385 . S
C620 C618 1.478 . S
C620 C622 1.381 . S
C620 C626 1.383 . S
C621 C617 1.495 . S
C621 H627 0.959 . S
C621 H628 0.961 . S
C621 H629 0.960 . S
C622 C620 1.381 . S
C622 C623 1.394 . S
C622 H630 0.930 . S
C623 C622 1.394 . S
C623 C624 1.383 . S
C623 H631 0.929 . S
C624 C623 1.383 . S
C624 C625 1.377 . S
C625 H609 0.930 . S
C625 C624 1.377 . S
C625 C626 1.379 . S
C626 H610 0.931 . S
C626 C620 1.383 . S
C626 C625 1.379 . S
H627 C621 0.959 . S
H628 C621 0.961 . S
H629 C621 0.960 . S
H630 C622 0.930 . S
H631 C623 0.929 . S
H632 C640 0.929 . S
H633 C642 0.930 . S
H634 C644 0.930 1_545 S
H635 C647 0.929 . S
H636 C650 0.930 . S
H637 C652 0.960 . S
H638 C652 0.960 . S
H639 C652 0.960 . S
C640 H632 0.929 . S
C640 C641 1.377 . S
C640 C642 1.384 . S
C641 C640 1.377 . S
C641 C647 1.390 . S
C642 H633 0.930 . S
C642 C640 1.384 . S
C642 C643 1.372 . S
C643 C642 1.372 . S
C643 C644 1.400 . S
C643 C648 1.490 1_565 S
C644 H634 0.930 1_565 S
C644 C643 1.400 . S
C644 C647 1.386 . S
H645 C661 0.930 . S
H646 C662 0.931 . S
C647 H635 0.929 . S
C647 C641 1.390 . S
C647 C644 1.386 . S
C648 C643 1.490 1_545 S
C648 C650 1.395 . S
C648 C651 1.403 . S
H649 C655 0.930 . S
C650 H636 0.930 . S
C650 C648 1.395 . S
C650 C653 1.403 . S
C651 C648 1.403 . S
C651 C652 1.524 . S
C651 C655 1.400 . S
C652 H637 0.960 . S
C652 H638 0.960 . S
C652 H639 0.960 . S
C652 C651 1.524 . S
C653 C650 1.403 . S
C653 C654 1.392 . S
C653 C657 1.495 . S
C654 C653 1.392 . S
C654 C655 1.385 . S
C654 C656 1.478 . S
C655 H649 0.930 . S
C655 C651 1.400 . S
C655 C654 1.385 . S
C656 C654 1.478 . S
C656 C658 1.381 . S
C656 C662 1.383 . S
C657 C653 1.495 . S
C657 H663 0.959 . S
C657 H664 0.961 . S
C657 H665 0.960 . S
C658 C656 1.381 . S
C658 C659 1.394 . S
C658 H666 0.930 . S
C659 C658 1.394 . S
C659 C660 1.383 . S
C659 H667 0.929 . S
C660 C659 1.383 . S
C660 C661 1.377 . S
C661 H645 0.930 . S
C661 C660 1.377 . S
C661 C662 1.379 . S
C662 H646 0.931 . S
C662 C656 1.383 . S
C662 C661 1.379 . S
H663 C657 0.959 . S
H664 C657 0.961 . S
H665 C657 0.960 . S
H666 C658 0.930 . S
H667 C659 0.929 . S
H668 C676 0.929 . S
H669 C678 0.930 . S
H670 C680 0.930 . S
H671 C683 0.929 . S
H672 C686 0.930 . S
H673 C688 0.960 . S
H674 C688 0.960 . S
H675 C688 0.960 . S
C676 H668 0.929 . S
C676 C677 1.377 . S
C676 C678 1.384 . S
C677 C676 1.377 . S
C677 C683 1.390 . S
C678 H669 0.930 . S
C678 C676 1.384 . S
C678 C679 1.372 . S
C679 C678 1.372 . S
C679 C680 1.400 . S
C679 C684 1.490 . S
C680 H670 0.930 . S
C680 C679 1.400 . S
C680 C683 1.386 . S
H681 C697 0.930 . S
H682 C698 0.931 . S
C683 H671 0.929 . S
C683 C677 1.390 . S
C683 C680 1.386 . S
C684 C679 1.490 . S
C684 C686 1.395 . S
C684 C687 1.403 . S
H685 C691 0.930 . S
C686 H672 0.930 . S
C686 C684 1.395 . S
C686 C689 1.403 . S
C687 C684 1.403 . S
C687 C688 1.524 . S
C687 C691 1.400 . S
C688 H673 0.960 . S
C688 H674 0.960 . S
C688 H675 0.960 . S
C688 C687 1.524 . S
C689 C686 1.403 . S
C689 C690 1.392 . S
C689 C693 1.495 1_545 S
C690 C689 1.392 . S
C690 C691 1.385 . S
C690 C692 1.478 1_545 S
C691 H685 0.930 . S
C691 C687 1.400 . S
C691 C690 1.385 . S
C692 C690 1.478 1_565 S
C692 C694 1.381 . S
C692 C698 1.383 . S
C693 C689 1.495 1_565 S
C693 H699 0.959 1_565 S
C693 H700 0.961 . S
C693 H701 0.960 . S
C694 C692 1.381 . S
C694 C695 1.394 . S
C694 H702 0.930 . S
C695 C694 1.394 . S
C695 C696 1.383 . S
C695 H703 0.929 . S
C696 C695 1.383 . S
C696 C697 1.377 . S
C697 H681 0.930 . S
C697 C696 1.377 . S
C697 C698 1.379 . S
C698 H682 0.931 . S
C698 C692 1.383 . S
C698 C697 1.379 . S
H699 C693 0.959 1_545 S
H700 C693 0.961 . S
H701 C693 0.960 . S
H702 C694 0.930 . S
H703 C695 0.929 . S
H704 C712 0.929 . S
H705 C714 0.930 . S
H706 C716 0.930 . S
H707 C719 0.929 . S
H708 C722 0.930 . S
H709 C724 0.960 . S
H710 C724 0.960 . S
H711 C724 0.960 . S
C712 H704 0.929 . S
C712 C713 1.377 . S
C712 C714 1.384 . S
C713 C712 1.377 . S
C713 C719 1.390 . S
C714 H705 0.930 . S
C714 C712 1.384 . S
C714 C715 1.372 . S
C715 C714 1.372 . S
C715 C716 1.400 . S
C715 C720 1.490 . S
C716 H706 0.930 . S
C716 C715 1.400 . S
C716 C719 1.386 . S
H717 C733 0.930 . S
H718 C734 0.931 . S
C719 H707 0.929 . S
C719 C713 1.390 . S
C719 C716 1.386 . S
C720 C715 1.490 . S
C720 C722 1.395 . S
C720 C723 1.403 . S
H721 C727 0.930 . S
C722 H708 0.930 . S
C722 C720 1.395 . S
C722 C725 1.403 . S
C723 C720 1.403 . S
C723 C724 1.524 . S
C723 C727 1.400 . S
C724 H709 0.960 . S
C724 H710 0.960 . S
C724 H711 0.960 . S
C724 C723 1.524 . S
C725 C722 1.403 . S
C725 C726 1.392 . S
C725 C729 1.495 . S
C726 C725 1.392 . S
C726 C727 1.385 . S
C726 C728 1.478 . S
C727 H721 0.930 . S
C727 C723 1.400 . S
C727 C726 1.385 . S
C728 C726 1.478 . S
C728 C730 1.381 . S
C728 C734 1.383 . S
C729 C725 1.495 . S
C729 H735 0.959 . S
C729 H736 0.961 . S
C729 H737 0.960 . S
C730 C728 1.381 . S
C730 C731 1.394 . S
C730 H738 0.930 . S
C731 C730 1.394 . S
C731 C732 1.383 . S
C731 H739 0.929 . S
C732 C731 1.383 . S
C732 C733 1.377 . S
C733 H717 0.930 . S
C733 C732 1.377 . S
C733 C734 1.379 . S
C734 H718 0.931 . S
C734 C728 1.383 . S
C734 C733 1.379 . S
H735 C729 0.959 . S
H736 C729 0.961 . S
H737 C729 0.960 . S
H738 C730 0.930 . S
H739 C731 0.929 . S
H740 C748 0.929 . S
H741 C750 0.930 . S
H742 C752 0.930 . S
H743 C755 0.929 . S
H744 C758 0.930 . S
H745 C760 0.960 . S
H746 C760 0.960 . S
H747 C760 0.960 . S
C748 H740 0.929 . S
C748 C749 1.377 . S
C748 C750 1.384 . S
C749 C748 1.377 . S
C749 C755 1.390 . S
C750 H741 0.930 . S
C750 C748 1.384 . S
C750 C751 1.372 . S
C751 C750 1.372 . S
C751 C752 1.400 . S
C751 C756 1.490 . S
C752 H742 0.930 . S
C752 C751 1.400 . S
C752 C755 1.386 . S
H753 C769 0.930 . S
H754 C770 0.931 . S
C755 H743 0.929 . S
C755 C749 1.390 . S
C755 C752 1.386 . S
C756 C751 1.490 . S
C756 C758 1.395 . S
C756 C759 1.403 . S
H757 C763 0.930 . S
C758 H744 0.930 . S
C758 C756 1.395 . S
C758 C761 1.403 . S
C759 C756 1.403 . S
C759 C760 1.524 . S
C759 C763 1.400 . S
C760 H745 0.960 . S
C760 H746 0.960 . S
C760 H747 0.960 . S
C760 C759 1.524 . S
C761 C758 1.403 . S
C761 C762 1.392 . S
C761 C765 1.495 . S
C762 C761 1.392 . S
C762 C763 1.385 . S
C762 C764 1.478 . S
C763 H757 0.930 . S
C763 C759 1.400 . S
C763 C762 1.385 . S
C764 C762 1.478 . S
C764 C766 1.381 . S
C764 C770 1.383 . S
C765 C761 1.495 . S
C765 H771 0.959 . S
C765 H772 0.961 . S
C765 H773 0.960 . S
C766 C764 1.381 . S
C766 C767 1.394 . S
C766 H774 0.930 . S
C767 C766 1.394 . S
C767 C768 1.383 . S
C767 H775 0.929 . S
C768 C767 1.383 . S
C768 C769 1.377 . S
C769 H753 0.930 . S
C769 C768 1.377 . S
C769 C770 1.379 . S
C770 H754 0.931 . S
C770 C764 1.383 . S
C770 C769 1.379 . S
H771 C765 0.959 . S
H772 C765 0.961 . S
H773 C765 0.960 . S
H774 C766 0.930 . S
H775 C767 0.929 . S
H776 C784 0.929 . S
H777 C786 0.930 . S
H778 C788 0.930 . S
H779 C791 0.929 . S
H780 C794 0.930 . S
H781 C796 0.960 . S
H782 C796 0.960 . S
H783 C796 0.960 . S
C784 H776 0.929 . S
C784 C785 1.377 . S
C784 C786 1.384 . S
C785 C784 1.377 . S
C785 C791 1.390 . S
C786 H777 0.930 . S
C786 C784 1.384 . S
C786 C787 1.372 . S
C787 C786 1.372 . S
C787 C788 1.400 . S
C787 C792 1.490 . S
C788 H778 0.930 . S
C788 C787 1.400 . S
C788 C791 1.386 . S
H789 C805 0.930 . S
H790 C806 0.931 . S
C791 H779 0.929 . S
C791 C785 1.390 . S
C791 C788 1.386 . S
C792 C787 1.490 . S
C792 C794 1.395 . S
C792 C795 1.403 . S
H793 C799 0.930 . S
C794 H780 0.930 . S
C794 C792 1.395 . S
C794 C797 1.403 . S
C795 C792 1.403 . S
C795 C796 1.524 . S
C795 C799 1.400 . S
C796 H781 0.960 . S
C796 H782 0.960 . S
C796 H783 0.960 . S
C796 C795 1.524 . S
C797 C794 1.403 . S
C797 C798 1.392 . S
C797 C801 1.495 . S
C798 C797 1.392 . S
C798 C799 1.385 . S
C798 C800 1.478 . S
C799 H793 0.930 . S
C799 C795 1.400 . S
C799 C798 1.385 . S
C800 C798 1.478 . S
C800 C802 1.381 . S
C800 C806 1.383 . S
C801 C797 1.495 . S
C801 H807 0.959 . S
C801 H808 0.961 . S
C801 H809 0.960 . S
C802 C800 1.381 . S
C802 C803 1.394 . S
C802 H810 0.930 . S
C803 C802 1.394 . S
C803 C804 1.383 . S
C803 H811 0.929 . S
C804 C803 1.383 . S
C804 C805 1.377 . S
C805 H789 0.930 . S
C805 C804 1.377 . S
C805 C806 1.379 . S
C806 H790 0.931 . S
C806 C800 1.383 . S
C806 C805 1.379 . S
H807 C801 0.959 . S
H808 C801 0.961 . S
H809 C801 0.960 . S
H810 C802 0.930 . S
H811 C803 0.929 . S
H812 C820 0.929 . S
H813 C822 0.930 . S
H814 C824 0.930 . S
H815 C827 0.929 . S
H816 C830 0.930 . S
H817 C832 0.960 . S
H818 C832 0.960 . S
H819 C832 0.960 . S
C820 H812 0.929 . S
C820 C821 1.377 . S
C820 C822 1.384 . S
C821 C820 1.377 . S
C821 C827 1.390 . S
C822 H813 0.930 . S
C822 C820 1.384 . S
C822 C823 1.372 . S
C823 C822 1.372 . S
C823 C824 1.400 . S
C823 C828 1.490 . S
C824 H814 0.930 . S
C824 C823 1.400 . S
C824 C827 1.386 . S
H825 C841 0.930 . S
H826 C842 0.931 . S
C827 H815 0.929 . S
C827 C821 1.390 . S
C827 C824 1.386 . S
C828 C823 1.490 . S
C828 C830 1.395 . S
C828 C831 1.403 . S
H829 C835 0.930 . S
C830 H816 0.930 . S
C830 C828 1.395 . S
C830 C833 1.403 . S
C831 C828 1.403 . S
C831 C832 1.524 . S
C831 C835 1.400 . S
C832 H817 0.960 . S
C832 H818 0.960 . S
C832 H819 0.960 . S
C832 C831 1.524 . S
C833 C830 1.403 . S
C833 C834 1.392 . S
C833 C837 1.495 . S
C834 C833 1.392 . S
C834 C835 1.385 . S
C834 C836 1.478 . S
C835 H829 0.930 . S
C835 C831 1.400 . S
C835 C834 1.385 . S
C836 C834 1.478 . S
C836 C838 1.381 . S
C836 C842 1.383 . S
C837 C833 1.495 . S
C837 H843 0.959 . S
C837 H844 0.961 . S
C837 H845 0.960 . S
C838 C836 1.381 . S
C838 C839 1.394 . S
C838 H846 0.930 . S
C839 C838 1.394 . S
C839 C840 1.383 . S
C839 H847 0.929 . S
C840 C839 1.383 . S
C840 C841 1.377 . S
C841 H825 0.930 . S
C841 C840 1.377 . S
C841 C842 1.379 . S
C842 H826 0.931 . S
C842 C836 1.383 . S
C842 C841 1.379 . S
H843 C837 0.959 . S
H844 C837 0.961 . S
H845 C837 0.960 . S
H846 C838 0.930 . S
H847 C839 0.929 . S
H848 C856 0.929 . S
H849 C858 0.930 1_565 S
H850 C860 0.930 . S
H851 C863 0.929 . S
H852 C866 0.930 . S
H853 C868 0.960 . S
H854 C868 0.960 . S
H855 C868 0.960 . S
C856 H848 0.929 . S
C856 C857 1.377 . S
C856 C858 1.384 . S
C857 C856 1.377 . S
C857 C863 1.390 . S
C858 H849 0.930 1_545 S
C858 C856 1.384 . S
C858 C859 1.372 . S
C859 C858 1.372 . S
C859 C860 1.400 . S
C859 C864 1.490 . S
C860 H850 0.930 . S
C860 C859 1.400 . S
C860 C863 1.386 . S
H861 C877 0.930 . S
H862 C878 0.931 . S
C863 H851 0.929 . S
C863 C857 1.390 . S
C863 C860 1.386 . S
C864 C859 1.490 . S
C864 C866 1.395 1_545 S
C864 C867 1.403 . S
H865 C871 0.930 . S
C866 H852 0.930 . S
C866 C864 1.395 1_565 S
C866 C869 1.403 . S
C867 C864 1.403 . S
C867 C868 1.524 . S
C867 C871 1.400 . S
C868 H853 0.960 . S
C868 H854 0.960 . S
C868 H855 0.960 . S
C868 C867 1.524 . S
C869 C866 1.403 . S
C869 C870 1.392 . S
C869 C873 1.495 . S
C870 C869 1.392 . S
C870 C871 1.385 1_565 S
C870 C872 1.478 . S
C871 H865 0.930 . S
C871 C867 1.400 . S
C871 C870 1.385 1_545 S
C872 C870 1.478 . S
C872 C874 1.381 . S
C872 C878 1.383 . S
C873 C869 1.495 . S
C873 H879 0.959 . S
C873 H880 0.961 . S
C873 H881 0.960 . S
C874 C872 1.381 . S
C874 C875 1.394 . S
C874 H882 0.930 . S
C875 C874 1.394 . S
C875 C876 1.383 . S
C875 H883 0.929 . S
C876 C875 1.383 . S
C876 C877 1.377 . S
C877 H861 0.930 . S
C877 C876 1.377 . S
C877 C878 1.379 . S
C878 H862 0.931 . S
C878 C872 1.383 . S
C878 C877 1.379 . S
H879 C873 0.959 . S
H880 C873 0.961 . S
H881 C873 0.960 . S
H882 C874 0.930 . S
H883 C875 0.929 . S
H884 C892 0.929 . S
H885 C894 0.930 1_565 S
H886 C896 0.930 . S
H887 C899 0.929 . S
H888 C902 0.930 . S
H889 C904 0.960 . S
H890 C904 0.960 . S
H891 C904 0.960 . S
C892 H884 0.929 . S
C892 C893 1.377 . S
C892 C894 1.384 . S
C893 C892 1.377 . S
C893 C899 1.390 . S
C894 H885 0.930 1_545 S
C894 C892 1.384 . S
C894 C895 1.372 . S
C895 C894 1.372 . S
C895 C896 1.400 . S
C895 C900 1.490 . S
C896 H886 0.930 . S
C896 C895 1.400 . S
C896 C899 1.386 . S
H897 C913 0.930 . S
H898 C914 0.931 1_545 S
C899 H887 0.929 . S
C899 C893 1.390 . S
C899 C896 1.386 . S
C900 C895 1.490 . S
C900 C902 1.395 1_545 S
C900 C903 1.403 1_554 S
H901 C907 0.930 1_545 S
C902 H888 0.930 . S
C902 C900 1.395 1_565 S
C902 C905 1.403 . S
C903 C900 1.403 1_556 S
C903 C904 1.524 . S
C903 C907 1.398 1_545 S
C904 H889 0.960 . S
C904 H890 0.960 . S
C904 H891 0.960 . S
C904 C903 1.524 . S
C905 C902 1.403 . S
C905 C906 1.392 1_554 S
C905 C909 1.495 . S
C906 C905 1.392 1_556 S
C906 C907 1.387 . S
C906 C908 1.478 . S
C907 H901 0.930 1_565 S
C907 C903 1.398 1_565 S
C907 C906 1.387 . S
C908 C906 1.478 . S
C908 C910 1.381 . S
C908 C914 1.383 . S
C909 C905 1.495 . S
C909 H915 0.959 . S
C909 H916 0.961 . S
C909 H917 0.960 . S
C910 C908 1.381 . S
C910 C911 1.394 . S
C910 H918 0.930 . S
C911 C910 1.394 . S
C911 C912 1.383 . S
C911 H919 0.929 . S
C912 C911 1.383 . S
C912 C913 1.377 . S
C913 H897 0.930 . S
C913 C912 1.377 . S
C913 C914 1.379 . S
C914 H898 0.931 1_565 S
C914 C908 1.383 . S
C914 C913 1.379 . S
H915 C909 0.959 . S
H916 C909 0.961 . S
H917 C909 0.960 . S
H918 C910 0.930 . S
H919 C911 0.929 . S
H920 C928 0.929 . S
H921 C930 0.930 . S
H922 C932 0.930 . S
H923 C935 0.929 . S
H924 C938 0.930 . S
H925 C940 0.960 . S
H926 C940 0.960 . S
H927 C940 0.960 . S
C928 H920 0.929 . S
C928 C929 1.377 . S
C928 C930 1.384 . S
C929 C928 1.377 . S
C929 C935 1.390 . S
C930 H921 0.930 . S
C930 C928 1.384 . S
C930 C931 1.372 . S
C931 C930 1.372 . S
C931 C932 1.400 . S
C931 C936 1.490 . S
C932 H922 0.930 . S
C932 C931 1.400 . S
C932 C935 1.386 . S
H933 C949 0.930 . S
H934 C950 0.931 . S
C935 H923 0.929 . S
C935 C929 1.390 . S
C935 C932 1.386 . S
C936 C931 1.490 . S
C936 C938 1.395 1_455 S
C936 C939 1.403 . S
H937 C943 0.930 . S
C938 H924 0.930 . S
C938 C936 1.395 1_655 S
C938 C941 1.403 . S
C939 C936 1.403 . S
C939 C940 1.524 . S
C939 C943 1.400 . S
C940 H925 0.960 . S
C940 H926 0.960 . S
C940 H927 0.960 . S
C940 C939 1.524 . S
C941 C938 1.403 . S
C941 C942 1.392 . S
C941 C945 1.495 . S
C942 C941 1.392 . S
C942 C943 1.385 1_655 S
C942 C944 1.478 . S
C943 H937 0.930 . S
C943 C939 1.400 . S
C943 C942 1.385 1_455 S
C944 C942 1.478 . S
C944 C946 1.381 . S
C944 C950 1.383 . S
C945 C941 1.495 . S
C945 H951 0.959 . S
C945 H952 0.961 . S
C945 H953 0.960 . S
C946 C944 1.381 . S
C946 C947 1.394 . S
C946 H954 0.930 . S
C947 C946 1.394 . S
C947 C948 1.383 . S
C947 H955 0.929 . S
C948 C947 1.383 . S
C948 C949 1.377 . S
C949 H933 0.930 . S
C949 C948 1.377 . S
C949 C950 1.379 . S
C950 H934 0.931 . S
C950 C944 1.383 . S
C950 C949 1.379 . S
H951 C945 0.959 . S
H952 C945 0.961 . S
H953 C945 0.960 . S
H954 C946 0.930 . S
H955 C947 0.929 . S
H956 C964 0.929 . S
H957 C966 0.930 . S
H958 C968 0.930 . S
H959 C971 0.929 . S
H960 C974 0.930 . S
H961 C976 0.960 . S
H962 C976 0.960 . S
H963 C976 0.960 . S
C964 H956 0.929 . S
C964 C965 1.377 . S
C964 C966 1.384 . S
C965 C964 1.377 . S
C965 C971 1.390 . S
C966 H957 0.930 . S
C966 C964 1.384 . S
C966 C967 1.372 . S
C967 C966 1.372 . S
C967 C968 1.400 . S
C967 C972 1.490 . S
C968 H958 0.930 . S
C968 C967 1.400 . S
C968 C971 1.386 . S
H969 C985 0.930 . S
H970 C986 0.931 . S
C971 H959 0.929 . S
C971 C965 1.390 . S
C971 C968 1.386 . S
C972 C967 1.490 . S
C972 C974 1.395 1_455 S
C972 C975 1.403 . S
H973 C979 0.930 1_455 S
C974 H960 0.930 . S
C974 C972 1.395 1_655 S
C974 C977 1.403 1_554 S
C975 C972 1.403 . S
C975 C976 1.524 . S
C975 C979 1.400 1_454 S
C976 H961 0.960 . S
C976 H962 0.960 . S
C976 H963 0.960 . S
C976 C975 1.524 . S
C977 C974 1.403 1_556 S
C977 C978 1.392 . S
C977 C981 1.495 . S
C978 C977 1.392 . S
C978 C979 1.385 . S
C978 C980 1.478 . S
C979 H973 0.930 1_655 S
C979 C975 1.400 1_656 S
C979 C978 1.385 . S
C980 C978 1.478 . S
C980 C982 1.381 . S
C980 C986 1.383 . S
C981 C977 1.495 . S
C981 H987 0.959 . S
C981 H988 0.961 . S
C981 H989 0.960 . S
C982 C980 1.381 . S
C982 C983 1.394 . S
C982 H990 0.930 . S
C983 C982 1.394 . S
C983 C984 1.383 . S
C983 H991 0.929 . S
C984 C983 1.383 . S
C984 C985 1.377 . S
C985 H969 0.930 . S
C985 C984 1.377 . S
C985 C986 1.379 . S
C986 H970 0.931 . S
C986 C980 1.383 . S
C986 C985 1.379 . S
H987 C981 0.959 . S
H988 C981 0.961 . S
H989 C981 0.960 . S
H990 C982 0.930 . S
H991 C983 0.929 . S
C281 C224 1.215 . S
C300 C20 1.208 . S
C317 C54 1.216 . S
C336 C258 1.215 . S
C353 C88 1.216 . S
C372 C156 1.217 . S
C389 C122 1.216 . S
C408 C190 1.215 . S
C425 C36 1.611 . S
C444 C2 1.606 . S
C461 C70 1.610 . S
C480 C104 1.613 . S
C497 C172 1.609 . S
C516 C138 1.604 . S
C533 C206 1.611 . S
C552 C240 1.610 . S
C569 C179 1.522 . S
C588 C33 1.556 . S
C605 C67 1.561 . S
C624 C145 1.502 . S
C641 C101 1.560 . S
C660 C247 1.533 . S
C677 C213 1.518 . S
C696 C135 1.558 . S
C713 C169 1.561 . S
C732 C43 1.497 . S
C749 C203 1.561 . S
C768 C9 1.536 . S
C785 C237 1.560 . S
C804 C111 1.539 . S
C821 C77 1.517 . S
C840 C271 1.558 . S
C857 C5 1.590 . S
C876 C73 1.576 . S
C893 C39 1.591 . S
C912 C107 1.581 . S
C929 C209 1.585 . S
C948 C141 1.583 . S
C965 C175 1.590 . S
C984 C243 1.603 . S
