# Generated by pormake.
# Topology uos, (4)-cn, num edge types: 1
# Building blocks:
#     Node 0, Type 0, BuildingBlock: UXUYUI_clean_sbu_0, # of connection points: 4
#     Node 1, Type 0, BuildingBlock: UXUYUI_clean_sbu_0, # of connection points: 4
#     Node 2, Type 0, BuildingBlock: UXUYUI_clean_sbu_0, # of connection points: 4
#     Node 3, Type 0, BuildingBlock: UXUYUI_clean_sbu_0, # of connection points: 4
#     Node 4, Type 0, BuildingBlock: UXUYUI_clean_sbu_0, # of connection points: 4
#     Node 5, Type 0, BuildingBlock: UXUYUI_clean_sbu_0, # of connection points: 4
#     Node 6, Type 0, BuildingBlock: UXUYUI_clean_sbu_0, # of connection points: 4
#     Node 7, Type 0, BuildingBlock: UXUYUI_clean_sbu_0, # of connection points: 4
#     Node 8, Type 0, BuildingBlock: UXUYUI_clean_sbu_0, # of connection points: 4
#     Node 9, Type 0, BuildingBlock: UXUYUI_clean_sbu_0, # of connection points: 4
#     Node 10, Type 0, BuildingBlock: UXUYUI_clean_sbu_0, # of connection points: 4
#     Node 11, Type 0, BuildingBlock: UXUYUI_clean_sbu_0, # of connection points: 4
#     Node 12, Type 0, BuildingBlock: UXUYUI_clean_sbu_0, # of connection points: 4
#     Node 13, Type 0, BuildingBlock: UXUYUI_clean_sbu_0, # of connection points: 4
#     Node 14, Type 0, BuildingBlock: UXUYUI_clean_sbu_0, # of connection points: 4
#     Node 15, Type 0, BuildingBlock: UXUYUI_clean_sbu_0, # of connection points: 4
#     Node 16, Type 0, BuildingBlock: UXUYUI_clean_sbu_0, # of connection points: 4
#     Node 17, Type 0, BuildingBlock: UXUYUI_clean_sbu_0, # of connection points: 4
#     Node 18, Type 0, BuildingBlock: UXUYUI_clean_sbu_0, # of connection points: 4
#     Node 19, Type 0, BuildingBlock: UXUYUI_clean_sbu_0, # of connection points: 4
#     Node 20, Type 0, BuildingBlock: UXUYUI_clean_sbu_0, # of connection points: 4
#     Node 21, Type 0, BuildingBlock: UXUYUI_clean_sbu_0, # of connection points: 4
#     Node 22, Type 0, BuildingBlock: UXUYUI_clean_sbu_0, # of connection points: 4
#     Node 23, Type 0, BuildingBlock: UXUYUI_clean_sbu_0, # of connection points: 4
#     Node 24, Type 0, BuildingBlock: UXUYUI_clean_sbu_0, # of connection points: 4
#     Node 25, Type 0, BuildingBlock: UXUYUI_clean_sbu_0, # of connection points: 4
#     Node 26, Type 0, BuildingBlock: UXUYUI_clean_sbu_0, # of connection points: 4
#     Node 27, Type 0, BuildingBlock: UXUYUI_clean_sbu_0, # of connection points: 4
#     Node 28, Type 0, BuildingBlock: UXUYUI_clean_sbu_0, # of connection points: 4
#     Node 29, Type 0, BuildingBlock: UXUYUI_clean_sbu_0, # of connection points: 4
#     Node 30, Type 0, BuildingBlock: UXUYUI_clean_sbu_0, # of connection points: 4
#     Node 31, Type 0, BuildingBlock: UXUYUI_clean_sbu_0, # of connection points: 4
#     Edge 32, Type (0, 0), BuildingBlock: KIFKEQ_clean_linker_1, # of connection points: 2
#     Edge 33, Type (0, 0), BuildingBlock: KIFKEQ_clean_linker_1, # of connection points: 2
#     Edge 34, Type (0, 0), BuildingBlock: KIFKEQ_clean_linker_1, # of connection points: 2
#     Edge 35, Type (0, 0), BuildingBlock: KIFKEQ_clean_linker_1, # of connection points: 2
#     Edge 36, Type (0, 0), BuildingBlock: KIFKEQ_clean_linker_1, # of connection points: 2
#     Edge 37, Type (0, 0), BuildingBlock: KIFKEQ_clean_linker_1, # of connection points: 2
#     Edge 38, Type (0, 0), BuildingBlock: KIFKEQ_clean_linker_1, # of connection points: 2
#     Edge 39, Type (0, 0), BuildingBlock: KIFKEQ_clean_linker_1, # of connection points: 2
#     Edge 40, Type (0, 0), BuildingBlock: KIFKEQ_clean_linker_1, # of connection points: 2
#     Edge 41, Type (0, 0), BuildingBlock: KIFKEQ_clean_linker_1, # of connection points: 2
#     Edge 42, Type (0, 0), BuildingBlock: KIFKEQ_clean_linker_1, # of connection points: 2
#     Edge 43, Type (0, 0), BuildingBlock: KIFKEQ_clean_linker_1, # of connection points: 2
#     Edge 44, Type (0, 0), BuildingBlock: KIFKEQ_clean_linker_1, # of connection points: 2
#     Edge 45, Type (0, 0), BuildingBlock: KIFKEQ_clean_linker_1, # of connection points: 2
#     Edge 46, Type (0, 0), BuildingBlock: KIFKEQ_clean_linker_1, # of connection points: 2
#     Edge 47, Type (0, 0), BuildingBlock: KIFKEQ_clean_linker_1, # of connection points: 2
#     Edge 48, Type (0, 0), BuildingBlock: KIFKEQ_clean_linker_1, # of connection points: 2
#     Edge 49, Type (0, 0), BuildingBlock: KIFKEQ_clean_linker_1, # of connection points: 2
#     Edge 50, Type (0, 0), BuildingBlock: KIFKEQ_clean_linker_1, # of connection points: 2
#     Edge 51, Type (0, 0), BuildingBlock: KIFKEQ_clean_linker_1, # of connection points: 2
#     Edge 52, Type (0, 0), BuildingBlock: KIFKEQ_clean_linker_1, # of connection points: 2
#     Edge 53, Type (0, 0), BuildingBlock: KIFKEQ_clean_linker_1, # of connection points: 2
#     Edge 54, Type (0, 0), BuildingBlock: KIFKEQ_clean_linker_1, # of connection points: 2
#     Edge 55, Type (0, 0), BuildingBlock: KIFKEQ_clean_linker_1, # of connection points: 2
#     Edge 56, Type (0, 0), BuildingBlock: KIFKEQ_clean_linker_1, # of connection points: 2
#     Edge 57, Type (0, 0), BuildingBlock: KIFKEQ_clean_linker_1, # of connection points: 2
#     Edge 58, Type (0, 0), BuildingBlock: KIFKEQ_clean_linker_1, # of connection points: 2
#     Edge 59, Type (0, 0), BuildingBlock: KIFKEQ_clean_linker_1, # of connection points: 2
#     Edge 60, Type (0, 0), BuildingBlock: KIFKEQ_clean_linker_1, # of connection points: 2
#     Edge 61, Type (0, 0), BuildingBlock: KIFKEQ_clean_linker_1, # of connection points: 2
#     Edge 62, Type (0, 0), BuildingBlock: KIFKEQ_clean_linker_1, # of connection points: 2
#     Edge 63, Type (0, 0), BuildingBlock: KIFKEQ_clean_linker_1, # of connection points: 2
#     Edge 64, Type (0, 0), BuildingBlock: KIFKEQ_clean_linker_1, # of connection points: 2
#     Edge 65, Type (0, 0), BuildingBlock: KIFKEQ_clean_linker_1, # of connection points: 2
#     Edge 66, Type (0, 0), BuildingBlock: KIFKEQ_clean_linker_1, # of connection points: 2
#     Edge 67, Type (0, 0), BuildingBlock: KIFKEQ_clean_linker_1, # of connection points: 2
#     Edge 68, Type (0, 0), BuildingBlock: KIFKEQ_clean_linker_1, # of connection points: 2
#     Edge 69, Type (0, 0), BuildingBlock: KIFKEQ_clean_linker_1, # of connection points: 2
#     Edge 70, Type (0, 0), BuildingBlock: KIFKEQ_clean_linker_1, # of connection points: 2
#     Edge 71, Type (0, 0), BuildingBlock: KIFKEQ_clean_linker_1, # of connection points: 2
#     Edge 72, Type (0, 0), BuildingBlock: KIFKEQ_clean_linker_1, # of connection points: 2
#     Edge 73, Type (0, 0), BuildingBlock: KIFKEQ_clean_linker_1, # of connection points: 2
#     Edge 74, Type (0, 0), BuildingBlock: KIFKEQ_clean_linker_1, # of connection points: 2
#     Edge 75, Type (0, 0), BuildingBlock: KIFKEQ_clean_linker_1, # of connection points: 2
#     Edge 76, Type (0, 0), BuildingBlock: KIFKEQ_clean_linker_1, # of connection points: 2
#     Edge 77, Type (0, 0), BuildingBlock: KIFKEQ_clean_linker_1, # of connection points: 2
#     Edge 78, Type (0, 0), BuildingBlock: KIFKEQ_clean_linker_1, # of connection points: 2
#     Edge 79, Type (0, 0), BuildingBlock: KIFKEQ_clean_linker_1, # of connection points: 2
#     Edge 80, Type (0, 0), BuildingBlock: KIFKEQ_clean_linker_1, # of connection points: 2
#     Edge 81, Type (0, 0), BuildingBlock: KIFKEQ_clean_linker_1, # of connection points: 2
#     Edge 82, Type (0, 0), BuildingBlock: KIFKEQ_clean_linker_1, # of connection points: 2
#     Edge 83, Type (0, 0), BuildingBlock: KIFKEQ_clean_linker_1, # of connection points: 2
#     Edge 84, Type (0, 0), BuildingBlock: KIFKEQ_clean_linker_1, # of connection points: 2
#     Edge 85, Type (0, 0), BuildingBlock: KIFKEQ_clean_linker_1, # of connection points: 2
#     Edge 86, Type (0, 0), BuildingBlock: KIFKEQ_clean_linker_1, # of connection points: 2
#     Edge 87, Type (0, 0), BuildingBlock: KIFKEQ_clean_linker_1, # of connection points: 2
#     Edge 88, Type (0, 0), BuildingBlock: KIFKEQ_clean_linker_1, # of connection points: 2
#     Edge 89, Type (0, 0), BuildingBlock: KIFKEQ_clean_linker_1, # of connection points: 2
#     Edge 90, Type (0, 0), BuildingBlock: KIFKEQ_clean_linker_1, # of connection points: 2
#     Edge 91, Type (0, 0), BuildingBlock: KIFKEQ_clean_linker_1, # of connection points: 2
#     Edge 92, Type (0, 0), BuildingBlock: KIFKEQ_clean_linker_1, # of connection points: 2
#     Edge 93, Type (0, 0), BuildingBlock: KIFKEQ_clean_linker_1, # of connection points: 2
#     Edge 94, Type (0, 0), BuildingBlock: KIFKEQ_clean_linker_1, # of connection points: 2
#     Edge 95, Type (0, 0), BuildingBlock: KIFKEQ_clean_linker_1, # of connection points: 2
# Relax obj value: 0.138
# Max RMSD: 0.134
# Mean RMSD: 0.134
data_MOF--net-uos--node1-UXUYUI_clean_sbu_0--edge1-KIFKEQ_clean_linker_1
_symmetry_space_group_name_H-M    P1
_symmetry_Int_Tables_number       1
_symmetry_cell_setting            triclinic
loop_
_symmetry_equiv_pos_as_xyz
'x, y, z'
_cell_length_a     124.61121
_cell_length_b     124.60391
_cell_length_c     35.390766
_cell_angle_alpha  90.0032
_cell_angle_beta   89.995449
_cell_angle_gamma 90.002185
loop_
_atom_site_label
_atom_site_type_symbol
_atom_site_fract_x
_atom_site_fract_y
_atom_site_fract_z
_atom_type_partial_charge
Li0 Li 0.18013 0.15819 0.13541 0.0
Li1 Li 0.16192 0.15751 0.16021 0.0
Li2 Li 0.16457 0.15456 0.09172 0.0
Li3 Li 0.16673 0.17209 0.11987 0.0
C4 C 0.17485 0.13664 0.1216 0.0
N5 N 0.18444 0.11832 0.09347 0.0
C6 C 0.17243 0.12663 0.13718 0.0
C7 C 0.18214 0.13734 0.09165 0.0
C8 C 0.17737 0.11746 0.12259 0.0
C9 C 0.1869 0.12798 0.07784 0.0
C10 C 0.17222 0.17029 0.20684 0.0
C11 C 0.16388 0.17924 0.25961 0.0
N12 N 0.17012 0.17346 0.28372 0.0
C13 C 0.17862 0.16451 0.23208 0.0
C14 C 0.16485 0.17777 0.22063 0.0
C15 C 0.17741 0.16621 0.27087 0.0
C16 C 0.2013 0.16461 0.1483 0.0
N17 N 0.19472 0.15593 0.14977 0.0
C18 C 0.20821 0.14574 0.18181 0.0
C19 C 0.19797 0.14657 0.16598 0.0
C20 C 0.2151 0.15467 0.18152 0.0
C21 C 0.21158 0.16415 0.16391 0.0
H22 H 0.19838 0.17205 0.13641 0.0
H23 H 0.19246 0.13991 0.16826 0.0
C24 C 0.14393 0.15599 0.21011 0.0
N25 N 0.15418 0.15278 0.20343 0.0
C26 C 0.13845 0.1523 0.24203 0.0
C27 C 0.15418 0.14207 0.25942 0.0
C28 C 0.15932 0.14591 0.2271 0.0
C29 C 0.14359 0.14525 0.2672 0.0
H30 H 0.13998 0.16134 0.19061 0.0
H31 H 0.16743 0.14339 0.22076 0.0
C32 C 0.1782 0.17156 0.05546 0.0
N33 N 0.18077 0.18606 0.99712 0.0
C34 C 0.16985 0.17335 0.02987 0.0
C35 C 0.18786 0.17713 0.05138 0.0
C36 C 0.1713 0.18072 1.00058 0.0
C37 C 0.18901 0.18443 0.02167 0.0
C38 C 0.14528 0.16993 0.10786 0.0
C39 C 0.14057 0.16922 0.07209 0.0
C40 C 0.1415 0.17752 0.13372 0.0
C41 C 0.13221 0.17619 0.06269 0.0
C42 C 0.13313 0.18436 0.12322 0.0
N43 N 0.1287 0.18356 0.08822 0.0
C44 C 0.15015 0.14099 0.05526 0.0
C45 C 0.16468 0.14612 0.01602 0.0
C46 C 0.14545 0.13527 0.02566 0.0
N47 N 0.15949 0.1464 0.04981 0.0
C48 C 0.16023 0.14053 0.98551 0.0
C49 C 0.1504 0.1351 0.98995 0.0
H50 H 0.14626 0.14128 0.08257 0.0
H51 H 0.17216 0.1504 0.01256 0.0
C52 C 0.17269 0.19328 0.13358 0.0
N53 N 0.16586 0.18736 0.11204 0.0
C54 C 0.17291 0.20444 0.13038 0.0
C55 C 0.15909 0.2033 0.08269 0.0
C56 C 0.15926 0.19213 0.0864 0.0
C57 C 0.166 0.20959 0.10487 0.0
H58 H 0.17801 0.18932 0.15328 0.0
H59 H 0.15415 0.1873 0.0686 0.0
O60 O 0.17002 0.14566 0.13558 0.0
O61 O 0.17312 0.16859 0.16882 0.0
O62 O 0.17689 0.16442 0.08446 0.0
O63 O 0.1534 0.16309 0.11766 0.0
H64 H 0.16679 0.12596 0.16035 0.0
H65 H 0.18413 0.14501 0.07922 0.0
H66 H 0.17558 0.10965 0.1344 0.0
H67 H 0.19256 0.12841 0.05471 0.0
H68 H 0.15817 0.18497 0.2707 0.0
H69 H 0.18437 0.15869 0.22187 0.0
H70 H 0.15992 0.18239 0.20143 0.0
H71 H 0.18225 0.16174 0.29077 0.0
H72 H 0.21051 0.13835 0.1957 0.0
H73 H 0.21664 0.17121 0.16286 0.0
H74 H 0.13032 0.155 0.24706 0.0
H75 H 0.15838 0.13651 0.2777 0.0
H76 H 0.16229 0.16918 0.03284 0.0
H77 H 0.19442 0.17581 0.07083 0.0
H78 H 0.16489 0.18222 0.98068 0.0
H79 H 0.19645 0.18879 0.01813 0.0
H80 H 0.14335 0.16337 0.05175 0.0
H81 H 0.14506 0.17819 0.16147 0.0
H82 H 0.12851 0.17575 0.03508 0.0
H83 H 0.13018 0.19031 0.14289 0.0
H84 H 0.13801 0.13103 0.03074 0.0
H85 H 0.16432 0.14069 0.95851 0.0
H86 H 0.17834 0.20901 0.14808 0.0
H87 H 0.15376 0.20697 0.06229 0.0
Li88 Li 0.09289 0.92977 0.38658 0.0
Li89 Li 0.09375 0.91081 0.40873 0.0
Li90 Li 0.09642 0.91465 0.34158 0.0
Li91 Li 0.07878 0.91683 0.37241 0.0
C92 C 0.11436 0.92461 0.37197 0.0
N93 N 0.13252 0.93487 0.34553 0.0
C94 C 0.12439 0.92225 0.38752 0.0
C95 C 0.11356 0.93217 0.34291 0.0
C96 C 0.13348 0.92753 0.37378 0.0
C97 C 0.12284 0.93727 0.32996 0.0
C98 C 0.0739 0.92338 0.44101 0.0
C99 C 0.05925 0.91606 0.47741 0.0
N100 N 0.0542 0.92572 0.47599 0.0
C101 C 0.06862 0.93327 0.44031 0.0
C102 C 0.06924 0.91473 0.46006 0.0
C103 C 0.05865 0.93428 0.45802 0.0
C104 C 0.08845 0.95193 0.39183 0.0
N105 N 0.09572 0.94423 0.4009 0.0
C106 C 0.10567 0.95671 0.43842 0.0
C107 C 0.10429 0.94644 0.42335 0.0
C108 C 0.098 0.96475 0.43112 0.0
C109 C 0.08939 0.96226 0.40688 0.0
H110 H 0.08163 0.94991 0.37436 0.0
H111 H 0.10989 0.94013 0.43053 0.0
C112 C 0.10476 0.89349 0.44573 0.0
N113 N 0.09875 0.90251 0.45046 0.0
C114 C 0.10869 0.88793 0.47715 0.0
C115 C 0.1006 0.90133 0.51755 0.0
C116 C 0.09667 0.9065 0.48546 0.0
C117 C 0.10669 0.89193 0.51356 0.0
H118 H 0.10664 0.89068 0.4176 0.0
H119 H 0.09212 0.91383 0.48844 0.0
C120 C 0.08058 0.92903 0.30492 0.0
N121 N 0.06901 0.93315 0.23995 0.0
C122 C 0.07515 0.92071 0.28656 0.0
C123 C 0.08011 0.93944 0.29032 0.0
C124 C 0.06934 0.92296 0.25375 0.0
C125 C 0.07424 0.94135 0.25739 0.0
C126 C 0.08756 0.89276 0.37223 0.0
C127 C 0.09399 0.88597 0.35045 0.0
C128 C 0.0816 0.8885 0.40214 0.0
C129 C 0.09455 0.87507 0.35951 0.0
C130 C 0.08238 0.87756 0.41034 0.0
N131 N 0.0888 0.87113 0.38906 0.0
C132 C 0.11334 0.90402 0.30518 0.0
C133 C 0.10168 0.91272 0.26217 0.0
C134 C 0.11929 0.89967 0.27541 0.0
N135 N 0.10457 0.91021 0.29815 0.0
C136 C 0.10739 0.90853 0.23152 0.0
C137 C 0.11623 0.90175 0.23789 0.0
H138 H 0.1155 0.90217 0.33407 0.0
H139 H 0.09488 0.91785 0.257 0.0
C140 C 0.05784 0.92504 0.36032 0.0
N141 N 0.06355 0.91586 0.36565 0.0
C142 C 0.04667 0.92469 0.35714 0.0
C143 C 0.04746 0.90542 0.36412 0.0
C144 C 0.05861 0.90615 0.36712 0.0
C145 C 0.04132 0.91478 0.35938 0.0
H146 H 0.06197 0.93267 0.35917 0.0
H147 H 0.06332 0.89896 0.37085 0.0
O148 O 0.10541 0.91946 0.3851 0.0
O149 O 0.08355 0.92215 0.42297 0.0
O150 O 0.08616 0.92707 0.33743 0.0
O151 O 0.08696 0.90347 0.36384 0.0
H152 H 0.12513 0.91639 0.40997 0.0
H153 H 0.10587 0.93409 0.33046 0.0
H154 H 0.1413 0.92578 0.38556 0.0
H155 H 0.12234 0.94314 0.30751 0.0
H156 H 0.05553 0.90941 0.49205 0.0
H157 H 0.07209 0.94005 0.42583 0.0
H158 H 0.07328 0.90708 0.46154 0.0
H159 H 0.05443 0.94187 0.45737 0.0
H160 H 0.11256 0.95824 0.45621 0.0
H161 H 0.08316 0.96805 0.40079 0.0
H162 H 0.11351 0.8808 0.47301 0.0
H163 H 0.09892 0.90465 0.54521 0.0
H164 H 0.07545 0.9126 0.2975 0.0
H165 H 0.08428 0.94595 0.30422 0.0
H166 H 0.06509 0.91661 0.23923 0.0
H167 H 0.07383 0.94936 0.2457 0.0
H168 H 0.09845 0.88904 0.32664 0.0
H169 H 0.07649 0.89358 0.41903 0.0
H170 H 0.09954 0.86974 0.34297 0.0
H171 H 0.07788 0.87418 0.43363 0.0
H172 H 0.12598 0.89443 0.28177 0.0
H173 H 0.10487 0.91055 0.20311 0.0
H174 H 0.04227 0.93213 0.35392 0.0
H175 H 0.04369 0.89759 0.36538 0.0
Li176 Li 0.3213 0.84294 0.63367 0.0
Li177 Li 0.34007 0.84361 0.65686 0.0
Li178 Li 0.33671 0.84607 0.58936 0.0
Li179 Li 0.33438 0.82818 0.61988 0.0
C180 C 0.32673 0.86424 0.61817 0.0
N181 N 0.31681 0.8823 0.58934 0.0
C182 C 0.32906 0.87436 0.63308 0.0
C183 C 0.31937 0.86331 0.5885 0.0
C184 C 0.32395 0.88339 0.61814 0.0
C185 C 0.31444 0.87253 0.57435 0.0
C186 C 0.32731 0.82646 0.6984 0.0
C187 C 0.33324 0.81169 0.73716 0.0
N188 N 0.3244 0.81288 0.7593 0.0
C189 C 0.31827 0.82754 0.72152 0.0
C190 C 0.33486 0.81848 0.70628 0.0
C191 C 0.31695 0.8206 0.75219 0.0
C192 C 0.3 0.83686 0.6463 0.0
N193 N 0.30678 0.84537 0.64825 0.0
C194 C 0.29341 0.85586 0.67965 0.0
C195 C 0.30369 0.85478 0.66436 0.0
C196 C 0.2863 0.84708 0.6793 0.0
C197 C 0.28971 0.83751 0.66185 0.0
H198 H 0.30277 0.82938 0.63416 0.0
H199 H 0.3093 0.86137 0.66646 0.0
C200 C 0.35778 0.85347 0.69542 0.0
N201 N 0.34814 0.84847 0.69954 0.0
C202 C 0.36325 0.85739 0.72701 0.0
C203 C 0.34856 0.85141 0.76629 0.0
C204 C 0.34346 0.84745 0.73407 0.0
C205 C 0.35857 0.85645 0.76295 0.0
H206 H 0.36114 0.85461 0.66759 0.0
H207 H 0.33565 0.84379 0.73659 0.0
C208 C 0.322 0.83012 0.55286 0.0
N209 N 0.31737 0.8183 0.48892 0.0
C210 C 0.33015 0.82453 0.53415 0.0
C211 C 0.31149 0.82964 0.53926 0.0
C212 C 0.32764 0.81861 0.50184 0.0
C213 C 0.30931 0.82365 0.50679 0.0
C214 C 0.35841 0.83664 0.62068 0.0
C215 C 0.36546 0.8427 0.59859 0.0
C216 C 0.36245 0.83047 0.65048 0.0
C217 C 0.37642 0.84263 0.60705 0.0
C218 C 0.37345 0.83062 0.65807 0.0
N219 N 0.38014 0.83665 0.6364 0.0
C220 C 0.34756 0.86282 0.55325 0.0
C221 C 0.33921 0.85101 0.50985 0.0
C222 C 0.35198 0.86879 0.52369 0.0
N223 N 0.34145 0.85401 0.54595 0.0
C224 C 0.3435 0.85674 0.47937 0.0
C225 C 0.35011 0.86569 0.48606 0.0
H226 H 0.34918 0.86507 0.58222 0.0
H227 H 0.33423 0.84411 0.5045 0.0
C228 C 0.32602 0.80723 0.61434 0.0
N229 N 0.33527 0.81301 0.61392 0.0
C230 C 0.32632 0.79605 0.61122 0.0
C231 C 0.34567 0.797 0.60734 0.0
C232 C 0.34498 0.80817 0.61016 0.0
C233 C 0.33626 0.79079 0.608 0.0
H234 H 0.31841 0.81132 0.61746 0.0
H235 H 0.3522 0.81296 0.60963 0.0
O236 O 0.33175 0.85535 0.63236 0.0
O237 O 0.32869 0.8332 0.66826 0.0
O238 O 0.32424 0.83587 0.58476 0.0
O239 O 0.34766 0.83664 0.61276 0.0
H240 H 0.33477 0.87521 0.65595 0.0
H241 H 0.31748 0.85556 0.5765 0.0
H242 H 0.32567 0.89128 0.62942 0.0
H243 H 0.30872 0.87193 0.55144 0.0
H244 H 0.33901 0.80546 0.74351 0.0
H245 H 0.31239 0.83373 0.71605 0.0
H246 H 0.34185 0.81746 0.68864 0.0
H247 H 0.31001 0.82137 0.77035 0.0
H248 H 0.29115 0.86346 0.69213 0.0
H249 H 0.28467 0.83044 0.66144 0.0
H250 H 0.37088 0.86142 0.72327 0.0
H251 H 0.34468 0.85057 0.79353 0.0
H252 H 0.33833 0.82483 0.5444 0.0
H253 H 0.3051 0.83389 0.55359 0.0
H254 H 0.33387 0.81426 0.48701 0.0
H255 H 0.30122 0.82324 0.49581 0.0
H256 H 0.36254 0.84737 0.57504 0.0
H257 H 0.35714 0.82573 0.66783 0.0
H258 H 0.38195 0.84731 0.59024 0.0
H259 H 0.37665 0.82595 0.68122 0.0
H260 H 0.35684 0.87574 0.53031 0.0
H261 H 0.34189 0.85398 0.45092 0.0
H262 H 0.31889 0.79156 0.61223 0.0
H263 H 0.35348 0.79327 0.60449 0.0
Li264 Li 0.40796 0.09145 0.91032 0.0
Li265 Li 0.40905 0.0724 0.89079 0.0
Li266 Li 0.42309 0.08567 0.87514 0.0
Li267 Li 0.40527 0.08717 0.8444 0.0
C268 C 0.42821 0.07857 0.9425 0.0
N269 N 0.44826 0.07466 0.97302 0.0
C270 C 0.43183 0.06804 0.9472 0.0
C271 C 0.43475 0.08711 0.95378 0.0
C272 C 0.44199 0.06623 0.96261 0.0
C273 C 0.44488 0.08497 0.96898 0.0
C274 C 0.38755 0.07667 0.87711 0.0
C275 C 0.37902 0.06389 0.8357 0.0
N276 N 0.36971 0.06506 0.85532 0.0
C277 C 0.3779 0.07775 0.89688 0.0
C278 C 0.38813 0.06969 0.84629 0.0
C279 C 0.36897 0.07181 0.88542 0.0
C280 C 0.39248 0.10434 0.94569 0.0
N281 N 0.40254 0.10029 0.94986 0.0
C282 C 0.40394 0.1079 0.01164 0.0
C283 C 0.40831 0.10198 0.98188 0.0
C284 C 0.39346 0.11197 0.00852 0.0
C285 C 0.38776 0.11023 0.97483 0.0
H286 H 0.38806 0.10282 0.91992 0.0
H287 H 0.41622 0.09854 0.98471 0.0
C288 C 0.41289 0.04992 0.89401 0.0
N289 N 0.40633 0.05795 0.90589 0.0
C290 C 0.41187 0.0396 0.90913 0.0
C291 C 0.39699 0.04588 0.94687 0.0
C292 C 0.39841 0.05611 0.93147 0.0
C293 C 0.40394 0.03748 0.93648 0.0
H294 H 0.41926 0.05166 0.87415 0.0
H295 H 0.39337 0.06267 0.94075 0.0
C296 C 0.41233 0.10908 0.87595 0.0
N297 N 0.40748 0.1297 0.89919 0.0
C298 C 0.40343 0.11442 0.86102 0.0
C299 C 0.41882 0.11427 0.90251 0.0
C300 C 0.4011 0.12483 0.87315 0.0
C301 C 0.41622 0.12468 0.91397 0.0
C302 C 0.41941 0.07151 0.80742 0.0
C303 C 0.4268 0.07758 0.78679 0.0
C304 C 0.41586 0.06167 0.79316 0.0
C305 C 0.43044 0.07376 0.75197 0.0
C306 C 0.41969 0.05812 0.75822 0.0
N307 N 0.42683 0.06419 0.73851 0.0
C308 C 0.44379 0.07732 0.8635 0.0
C309 C 0.44337 0.09628 0.86818 0.0
C310 C 0.45497 0.07743 0.86071 0.0
N311 N 0.43826 0.08664 0.86761 0.0
C312 C 0.45456 0.09676 0.86584 0.0
C313 C 0.46054 0.08723 0.86247 0.0
H314 H 0.43951 0.06977 0.863 0.0
H315 H 0.43878 0.10358 0.87132 0.0
C316 C 0.38701 0.09418 0.80256 0.0
N317 N 0.39755 0.09144 0.79951 0.0
C318 C 0.38148 0.09842 0.77159 0.0
C319 C 0.39768 0.0969 0.73462 0.0
C320 C 0.4029 0.09273 0.76635 0.0
C321 C 0.38683 0.09995 0.73705 0.0
H322 H 0.38298 0.09352 0.82947 0.0
H323 H 0.41133 0.09088 0.76469 0.0
O324 O 0.41838 0.08052 0.92654 0.0
O325 O 0.39637 0.08239 0.88826 0.0
O326 O 0.41456 0.09877 0.86516 0.0
O327 O 0.4159 0.07499 0.84195 0.0
H328 H 0.42688 0.06133 0.93898 0.0
H329 H 0.43216 0.09531 0.95008 0.0
H330 H 0.44491 0.05812 0.96622 0.0
H331 H 0.45006 0.09151 0.9774 0.0
H332 H 0.37935 0.05846 0.81187 0.0
H333 H 0.37734 0.08312 0.92087 0.0
H334 H 0.39551 0.06878 0.83062 0.0
H335 H 0.36145 0.07256 0.90046 0.0
H336 H 0.40854 0.10893 0.03733 0.0
H337 H 0.3797 0.11331 0.97118 0.0
H338 H 0.41755 0.03349 0.90056 0.0
H339 H 0.39061 0.04465 0.96718 0.0
H340 H 0.39832 0.11056 0.84047 0.0
H341 H 0.42568 0.11025 0.91465 0.0
H342 H 0.39421 0.12903 0.86194 0.0
H343 H 0.42112 0.12875 0.93473 0.0
H344 H 0.4296 0.08524 0.79731 0.0
H345 H 0.41023 0.05681 0.80893 0.0
H346 H 0.43611 0.0784 0.73562 0.0
H347 H 0.41699 0.05053 0.7468 0.0
H348 H 0.45917 0.06989 0.85736 0.0
H349 H 0.45847 0.1045 0.86774 0.0
H350 H 0.3732 0.10086 0.7752 0.0
H351 H 0.40215 0.09783 0.7086 0.0
Li352 Li 0.16587 0.84645 0.91161 0.0
Li353 Li 0.1675 0.82898 0.88009 0.0
Li354 Li 0.17982 0.8438 0.86459 0.0
Li355 Li 0.16085 0.84423 0.84455 0.0
C356 C 0.18063 0.83584 0.95049 0.0
N357 N 0.18491 0.8355 0.02703 0.0
C358 C 0.17644 0.82767 0.97313 0.0
C359 C 0.18707 0.84378 0.96665 0.0
C360 C 0.17868 0.82764 0.01181 0.0
C361 C 0.18912 0.84349 0.00544 0.0
C362 C 0.14358 0.83826 0.88382 0.0
C363 C 0.12756 0.83339 0.84957 0.0
N364 N 0.12188 0.84067 0.87007 0.0
C365 C 0.13758 0.84567 0.9046 0.0
C366 C 0.13853 0.83204 0.85615 0.0
C367 C 0.12662 0.84677 0.89722 0.0
C368 C 0.16252 0.86429 0.96045 0.0
N369 N 0.16175 0.85344 0.95754 0.0
C370 C 0.15308 0.85243 0.01773 0.0
C371 C 0.1572 0.84747 0.98542 0.0
C372 C 0.15351 0.86366 0.02125 0.0
C373 C 0.15846 0.86959 0.99222 0.0
H374 H 0.16595 0.86888 0.93756 0.0
H375 H 0.15647 0.83888 0.98203 0.0
C376 C 0.17625 0.80836 0.8888 0.0
N377 N 0.16683 0.81379 0.88608 0.0
C378 C 0.1763 0.79718 0.89119 0.0
C379 C 0.15691 0.79739 0.88921 0.0
C380 C 0.15725 0.80858 0.88666 0.0
C381 C 0.16654 0.79154 0.89114 0.0
H382 H 0.18375 0.81274 0.88865 0.0
H383 H 0.14987 0.81309 0.88476 0.0
C384 C 0.17499 0.86469 0.85804 0.0
N385 N 0.18693 0.88226 0.8358 0.0
C386 C 0.17285 0.86972 0.82356 0.0
C387 C 0.18313 0.86864 0.88136 0.0
C388 C 0.17899 0.87859 0.81278 0.0
C389 C 0.1891 0.87752 0.86956 0.0
C390 C 0.17424 0.82479 0.81115 0.0
C391 C 0.18475 0.82092 0.80924 0.0
C392 C 0.16588 0.81883 0.79532 0.0
C393 C 0.18671 0.81105 0.79182 0.0
C394 C 0.16816 0.80898 0.77821 0.0
N395 N 0.17844 0.80533 0.77684 0.0
C396 C 0.20271 0.84296 0.86527 0.0
C397 C 0.19487 0.85167 0.8126 0.0
C398 C 0.2129 0.84378 0.84889 0.0
N399 N 0.19395 0.84679 0.84677 0.0
C400 C 0.2049 0.85288 0.79562 0.0
C401 C 0.21411 0.84866 0.81323 0.0
H402 H 0.20171 0.83885 0.89196 0.0
H403 H 0.18775 0.85433 0.7979 0.0
C404 C 0.14349 0.85573 0.81067 0.0
N405 N 0.15192 0.84904 0.8043 0.0
C406 C 0.13749 0.85972 0.78043 0.0
C407 C 0.14921 0.85021 0.73758 0.0
C408 C 0.15484 0.84624 0.76866 0.0
C409 C 0.1404 0.85709 0.74311 0.0
H410 H 0.14152 0.85811 0.83918 0.0
H411 H 0.16177 0.84117 0.76429 0.0
O412 O 0.17842 0.83608 0.91269 0.0
O413 O 0.15432 0.83708 0.89056 0.0
O414 O 0.16913 0.85594 0.86892 0.0
O415 O 0.17212 0.83429 0.829 0.0
H416 H 0.17141 0.82147 0.96104 0.0
H417 H 0.19043 0.85012 0.94942 0.0
H418 H 0.17544 0.8214 0.02974 0.0
H419 H 0.19406 0.84961 0.01839 0.0
H420 H 0.12357 0.82867 0.8281 0.0
H421 H 0.14134 0.85059 0.926 0.0
H422 H 0.14306 0.82631 0.83964 0.0
H423 H 0.12188 0.8525 0.91301 0.0
H424 H 0.14946 0.8475 0.03948 0.0
H425 H 0.15883 0.87826 0.99331 0.0
H426 H 0.1839 0.79301 0.89321 0.0
H427 H 0.14921 0.79336 0.88884 0.0
H428 H 0.16656 0.86677 0.80521 0.0
H429 H 0.18486 0.86485 0.90816 0.0
H430 H 0.17746 0.88253 0.7861 0.0
H431 H 0.19546 0.88063 0.88723 0.0
H432 H 0.19131 0.82542 0.82145 0.0
H433 H 0.1577 0.82172 0.79654 0.0
H434 H 0.19479 0.80792 0.79033 0.0
H435 H 0.16176 0.80424 0.76606 0.0
H436 H 0.21966 0.84022 0.8634 0.0
H437 H 0.20536 0.8569 0.76856 0.0
H438 H 0.13071 0.86488 0.78635 0.0
H439 H 0.15199 0.84815 0.70952 0.0
Li440 Li 0.4232 0.9167 0.1259 0.0
Li441 Li 0.40559 0.91498 0.1581 0.0
Li442 Li 0.40777 0.91091 0.09124 0.0
Li443 Li 0.40903 0.92993 0.11232 0.0
C444 C 0.41314 0.89295 0.12784 0.0
N445 N 0.40982 0.87148 0.11202 0.0
C446 C 0.40612 0.88689 0.15006 0.0
C447 C 0.41855 0.88806 0.09783 0.0
C448 C 0.40453 0.87605 0.14155 0.0
C449 C 0.41673 0.87721 0.09019 0.0
C450 C 0.42002 0.93036 0.19501 0.0
C451 C 0.42093 0.94343 0.24516 0.0
N452 N 0.42805 0.93708 0.26382 0.0
C453 C 0.42739 0.92399 0.21457 0.0
C454 C 0.4168 0.94019 0.21028 0.0
C455 C 0.43134 0.92752 0.24936 0.0
C456 C 0.44416 0.92443 0.14092 0.0
N457 N 0.43846 0.91554 0.13125 0.0
C458 C 0.4546 0.9053 0.12546 0.0
C459 C 0.44343 0.90605 0.12387 0.0
C460 C 0.46068 0.91435 0.1354 0.0
C461 C 0.45533 0.92399 0.14352 0.0
H462 H 0.44002 0.93192 0.14614 0.0
H463 H 0.43873 0.89911 0.11622 0.0
C464 C 0.38759 0.90735 0.19951 0.0
N465 N 0.398 0.91051 0.20303 0.0
C466 C 0.38201 0.9032 0.23051 0.0
C467 C 0.39796 0.90549 0.26835 0.0
C468 C 0.40322 0.90961 0.23664 0.0
C469 C 0.38722 0.90212 0.26551 0.0
H470 H 0.38369 0.90772 0.17229 0.0
H471 H 0.41155 0.91179 0.23876 0.0
C472 C 0.42783 0.92331 0.0582 0.0
N473 N 0.44784 0.92578 0.02567 0.0
C474 C 0.43301 0.93325 0.05941 0.0
C475 C 0.43278 0.91465 0.04014 0.0
C476 C 0.44314 0.93433 0.04286 0.0
C477 C 0.44291 0.91605 0.02394 0.0
C478 C 0.3876 0.92546 0.12745 0.0
C479 C 0.37774 0.92416 0.10925 0.0
C480 C 0.38844 0.93248 0.15809 0.0
C481 C 0.36884 0.92993 0.12208 0.0
C482 C 0.37936 0.9381 0.17008 0.0
N483 N 0.36983 0.93672 0.15198 0.0
C484 C 0.39513 0.8944 0.05779 0.0
C485 C 0.40525 0.90496 0.01503 0.0
C486 C 0.39084 0.88843 0.02798 0.0
N487 N 0.4023 0.90238 0.05085 0.0
C488 C 0.40103 0.89932 0.98435 0.0
C489 C 0.39371 0.89091 0.99051 0.0
H490 H 0.39269 0.8927 0.08647 0.0
H491 H 0.41069 0.91156 0.01018 0.0
C492 C 0.41319 0.95229 0.10852 0.0
N493 N 0.40631 0.9444 0.09776 0.0
C494 C 0.41219 0.96263 0.0936 0.0
C495 C 0.39669 0.95667 0.05837 0.0
C496 C 0.39809 0.94641 0.07352 0.0
C497 C 0.40395 0.96492 0.06759 0.0
H498 H 0.41976 0.95042 0.12741 0.0
H499 H 0.3928 0.93997 0.06506 0.0
O500 O 0.41477 0.90359 0.13572 0.0
O501 O 0.41623 0.9272 0.16048 0.0
O502 O 0.41808 0.922 0.07542 0.0
O503 O 0.39638 0.91988 0.11507 0.0
H504 H 0.40194 0.89048 0.17363 0.0
H505 H 0.42397 0.89262 0.08021 0.0
H506 H 0.3991 0.87127 0.15844 0.0
H507 H 0.4208 0.87336 0.06685 0.0
H508 H 0.41849 0.95101 0.25735 0.0
H509 H 0.42994 0.91634 0.20324 0.0
H510 H 0.41119 0.94528 0.1953 0.0
H511 H 0.43701 0.92264 0.26489 0.0
H512 H 0.45846 0.89771 0.11917 0.0
H513 H 0.45977 0.93117 0.15089 0.0
H514 H 0.37382 0.9005 0.22673 0.0
H515 H 0.4023 0.90486 0.29477 0.0
H516 H 0.42934 0.94002 0.0734 0.0
H517 H 0.42889 0.9069 0.03894 0.0
H518 H 0.44727 0.94196 0.04384 0.0
H519 H 0.44686 0.9094 0.01011 0.0
H520 H 0.37698 0.91875 0.08545 0.0
H521 H 0.39599 0.93356 0.17255 0.0
H522 H 0.36115 0.92901 0.10827 0.0
H523 H 0.37988 0.94355 0.19379 0.0
H524 H 0.38532 0.88198 0.03433 0.0
H525 H 0.40328 0.90176 0.95608 0.0
H526 H 0.4181 0.96862 0.10124 0.0
H527 H 0.39008 0.95804 0.03912 0.0
Li528 Li 0.33463 0.17283 0.38048 0.0
Li529 Li 0.33625 0.15505 0.41 0.0
Li530 Li 0.33966 0.15716 0.34459 0.0
Li531 Li 0.32127 0.15796 0.36506 0.0
C532 C 0.35745 0.15908 0.39233 0.0
N533 N 0.37694 0.14907 0.40447 0.0
C534 C 0.35869 0.14817 0.38417 0.0
C535 C 0.36613 0.16489 0.40666 0.0
C536 C 0.3686 0.14326 0.39051 0.0
C537 C 0.37592 0.15969 0.41259 0.0
C538 C 0.32065 0.16919 0.4479 0.0
C539 C 0.30729 0.17008 0.49711 0.0
N540 N 0.31349 0.17726 0.5161 0.0
C541 C 0.32684 0.17667 0.46769 0.0
C542 C 0.31075 0.16594 0.46249 0.0
C543 C 0.3231 0.18062 0.50222 0.0
C544 C 0.32622 0.19353 0.38269 0.0
N545 N 0.33554 0.18795 0.38598 0.0
C546 C 0.34543 0.20421 0.39473 0.0
C547 C 0.34505 0.19301 0.39203 0.0
C548 C 0.33594 0.21022 0.39093 0.0
C549 C 0.32623 0.2047 0.38511 0.0
H550 H 0.31878 0.18925 0.37795 0.0
H551 H 0.35235 0.18835 0.39434 0.0
C552 C 0.34375 0.13711 0.45274 0.0
N553 N 0.34105 0.14767 0.45516 0.0
C554 C 0.34809 0.13173 0.48382 0.0
C555 C 0.34691 0.14816 0.51962 0.0
C556 C 0.34263 0.15324 0.48775 0.0
C557 C 0.34978 0.13726 0.5179 0.0
H558 H 0.34289 0.13288 0.42629 0.0
H559 H 0.34084 0.16169 0.48888 0.0
C560 C 0.33108 0.17003 0.29449 0.0
N561 N 0.3364 0.17325 0.21963 0.0
C562 C 0.32576 0.16431 0.26615 0.0
C563 C 0.33903 0.17744 0.28485 0.0
C564 C 0.3286 0.16604 0.22843 0.0
C565 C 0.34162 0.17894 0.24681 0.0
C566 C 0.32564 0.13686 0.38168 0.0
C567 C 0.32686 0.12678 0.36495 0.0
C568 C 0.31874 0.13806 0.41253 0.0
C569 C 0.32115 0.11804 0.37939 0.0
C570 C 0.31317 0.12914 0.42615 0.0
N571 N 0.31448 0.11939 0.40944 0.0
C572 C 0.35736 0.15662 0.29224 0.0
C573 C 0.34325 0.14418 0.28221 0.0
C574 C 0.36285 0.15271 0.26062 0.0
N575 N 0.34778 0.15227 0.30237 0.0
C576 C 0.3484 0.14009 0.25038 0.0
C577 C 0.35838 0.14429 0.23927 0.0
H578 H 0.36073 0.16311 0.3087 0.0
H579 H 0.33554 0.141 0.29067 0.0
C580 C 0.2994 0.16325 0.35747 0.0
N581 N 0.30682 0.15554 0.35008 0.0
C582 C 0.28909 0.16249 0.34214 0.0
C583 C 0.29418 0.14574 0.31281 0.0
C584 C 0.30441 0.14685 0.32847 0.0
C585 C 0.2864 0.15373 0.3189 0.0
H586 H 0.30163 0.17019 0.37409 0.0
H587 H 0.31054 0.14097 0.32229 0.0
O588 O 0.34781 0.16409 0.38658 0.0
O589 O 0.32403 0.16541 0.41361 0.0
O590 O 0.32865 0.16822 0.33159 0.0
O591 O 0.33119 0.14546 0.36766 0.0
H592 H 0.35208 0.14351 0.3731 0.0
H593 H 0.3653 0.17334 0.41321 0.0
H594 H 0.36966 0.13482 0.38435 0.0
H595 H 0.3827 0.1641 0.42368 0.0
H596 H 0.29966 0.1676 0.50881 0.0
H597 H 0.3345 0.17931 0.45676 0.0
H598 H 0.30576 0.16031 0.44718 0.0
H599 H 0.32784 0.18635 0.51797 0.0
H600 H 0.3531 0.20812 0.39886 0.0
H601 H 0.3187 0.20898 0.38258 0.0
H602 H 0.35042 0.12341 0.4807 0.0
H603 H 0.34802 0.15278 0.54525 0.0
H604 H 0.31961 0.15852 0.27325 0.0
H605 H 0.34323 0.18189 0.30656 0.0
H606 H 0.32461 0.16162 0.20617 0.0
H607 H 0.34781 0.1846 0.23889 0.0
H608 H 0.33218 0.12571 0.34107 0.0
H609 H 0.31773 0.14576 0.42596 0.0
H610 H 0.32202 0.11019 0.36672 0.0
H611 H 0.30782 0.12995 0.45005 0.0
H612 H 0.37055 0.15615 0.2533 0.0
H613 H 0.34452 0.13378 0.23439 0.0
H614 H 0.28345 0.16895 0.34718 0.0
H615 H 0.29247 0.13877 0.29554 0.0
Li616 Li 0.07911 0.0844 0.6285 0.0
Li617 Li 0.09704 0.08577 0.65762 0.0
Li618 Li 0.09408 0.09026 0.59219 0.0
Li619 Li 0.09299 0.07117 0.61147 0.0
C620 C 0.09006 0.10777 0.62804 0.0
N621 N 0.09509 0.12851 0.60677 0.0
C622 C 0.09939 0.11266 0.64159 0.0
C623 C 0.08326 0.11345 0.60381 0.0
C624 C 0.10179 0.12315 0.6305 0.0
C625 C 0.08595 0.12391 0.59332 0.0
C626 C 0.08343 0.0712 0.69723 0.0
C627 C 0.08368 0.0592 0.75069 0.0
N628 N 0.07725 0.0661 0.77002 0.0
C629 C 0.07675 0.07813 0.7175 0.0
C630 C 0.08687 0.06162 0.71382 0.0
C631 C 0.07374 0.07542 0.75431 0.0
C632 C 0.05839 0.07601 0.6378 0.0
N633 N 0.064 0.08536 0.63699 0.0
C634 C 0.04781 0.09552 0.643 0.0
C635 C 0.05899 0.09501 0.64017 0.0
C636 C 0.04176 0.08599 0.64245 0.0
C637 C 0.04721 0.07614 0.64034 0.0
H638 H 0.06261 0.06845 0.6355 0.0
H639 H 0.06366 0.10232 0.63968 0.0
C640 C 0.11533 0.08955 0.707 0.0
N641 N 0.10447 0.09015 0.70311 0.0
C642 C 0.12039 0.09377 0.73898 0.0
C643 C 0.10308 0.09938 0.76233 0.0
C644 C 0.09836 0.09503 0.72995 0.0
C645 C 0.11427 0.09885 0.76709 0.0
H646 H 0.1202 0.08616 0.68488 0.0
H647 H 0.08983 0.09588 0.72565 0.0
C648 C 0.07368 0.07777 0.5604 0.0
N649 N 0.05361 0.07449 0.52914 0.0
C650 C 0.07004 0.06736 0.55322 0.0
C651 C 0.06716 0.08652 0.55119 0.0
C652 C 0.05987 0.06587 0.53749 0.0
C653 C 0.05702 0.08469 0.53558 0.0
C654 C 0.11465 0.07534 0.6234 0.0
C655 C 0.12452 0.0775 0.60628 0.0
C656 C 0.1139 0.0672 0.65046 0.0
C657 C 0.13353 0.07152 0.61677 0.0
C658 C 0.12309 0.0614 0.66016 0.0
N659 N 0.13263 0.06366 0.64327 0.0
C660 C 0.10902 0.10368 0.55578 0.0
C661 C 0.09323 0.1004 0.52032 0.0
C662 C 0.11337 0.10967 0.52616 0.0
N663 N 0.09914 0.09917 0.55227 0.0
C664 C 0.09726 0.10632 0.49001 0.0
C665 C 0.10752 0.11095 0.4925 0.0
H666 H 0.1136 0.10245 0.58138 0.0
H667 H 0.08547 0.09662 0.51802 0.0
C668 C 0.08844 0.04897 0.60758 0.0
N669 N 0.09537 0.05674 0.59601 0.0
C670 C 0.08916 0.03862 0.59259 0.0
C671 C 0.1045 0.0443 0.55586 0.0
C672 C 0.10336 0.0546 0.57094 0.0
C673 C 0.09719 0.03624 0.56606 0.0
H674 H 0.0821 0.05095 0.62724 0.0
H675 H 0.10864 0.06097 0.56177 0.0
O676 O 0.08771 0.09741 0.63783 0.0
O677 O 0.08638 0.07361 0.66098 0.0
O678 O 0.08353 0.07939 0.57665 0.0
O679 O 0.10575 0.08103 0.61297 0.0
H680 H 0.1048 0.10837 0.6601 0.0
H681 H 0.07604 0.10978 0.59284 0.0
H682 H 0.10902 0.12701 0.64064 0.0
H683 H 0.0808 0.12837 0.57441 0.0
H684 H 0.0863 0.05182 0.76391 0.0
H685 H 0.07397 0.08555 0.70506 0.0
H686 H 0.09192 0.05609 0.69832 0.0
H687 H 0.06862 0.08074 0.77039 0.0
H688 H 0.04393 0.10328 0.64437 0.0
H689 H 0.04288 0.0686 0.6404 0.0
H690 H 0.12905 0.0934 0.74096 0.0
H691 H 0.09803 0.10321 0.78324 0.0
H692 H 0.07499 0.0605 0.55977 0.0
H693 H 0.06979 0.09463 0.55678 0.0
H694 H 0.05694 0.05784 0.53197 0.0
H695 H 0.05185 0.09139 0.52876 0.0
H696 H 0.12521 0.08373 0.58511 0.0
H697 H 0.10633 0.06541 0.66388 0.0
H698 H 0.14123 0.07311 0.60381 0.0
H699 H 0.12263 0.0551 0.68112 0.0
H700 H 0.12137 0.11297 0.52916 0.0
H701 H 0.09242 0.10719 0.46478 0.0
H702 H 0.0834 0.03258 0.60118 0.0
H703 H 0.11073 0.04279 0.5352 0.0
Li704 Li 0.84034 0.84439 0.84188 0.0
Li705 Li 0.8363 0.84759 0.90809 0.0
Li706 Li 0.83373 0.82919 0.8779 0.0
Li707 Li 0.82126 0.84402 0.86328 0.0
C708 C 0.85769 0.83776 0.87553 0.0
N709 N 0.87872 0.8387 0.85099 0.0
C710 C 0.86421 0.84641 0.88575 0.0
C711 C 0.8619 0.82953 0.85319 0.0
C712 C 0.87481 0.84676 0.87297 0.0
C713 C 0.87254 0.83016 0.84097 0.0
C714 C 0.82756 0.86608 0.87396 0.0
C715 C 0.81422 0.87671 0.90617 0.0
N716 N 0.81928 0.88581 0.89459 0.0
C717 C 0.83256 0.87553 0.862 0.0
C718 C 0.81827 0.86667 0.89591 0.0
C719 C 0.82828 0.88543 0.87289 0.0
C720 C 0.85025 0.84378 0.76889 0.0
N721 N 0.8495 0.84918 0.80216 0.0
C722 C 0.8608 0.86316 0.77863 0.0
C723 C 0.85473 0.85863 0.80766 0.0
C724 C 0.86154 0.85788 0.74369 0.0
C725 C 0.85633 0.84797 0.73918 0.0
H726 H 0.84591 0.83637 0.76499 0.0
H727 H 0.85404 0.86271 0.83449 0.0
C728 C 0.84044 0.85062 0.98679 0.0
N729 N 0.84117 0.85518 0.95197 0.0
C730 C 0.84471 0.85584 0.01842 0.0
C731 C 0.85044 0.87032 0.97776 0.0
C732 C 0.84604 0.86484 0.94701 0.0
C733 C 0.8499 0.8658 0.01409 0.0
H734 H 0.83672 0.84283 0.98989 0.0
H735 H 0.84679 0.86817 0.91896 0.0
C736 C 0.82649 0.82567 0.80561 0.0
N737 N 0.82172 0.80782 0.76238 0.0
C738 C 0.8159 0.82361 0.79477 0.0
C739 C 0.83466 0.81871 0.79416 0.0
C740 C 0.81365 0.81453 0.77297 0.0
C741 C 0.83208 0.80971 0.77242 0.0
C742 C 0.81597 0.83609 0.93873 0.0
C743 C 0.81027 0.82645 0.94093 0.0
C744 C 0.81347 0.84445 0.96359 0.0
C745 C 0.80197 0.82543 0.96725 0.0
C746 C 0.80513 0.84312 0.98953 0.0
N747 N 0.79959 0.83372 0.99078 0.0
C748 C 0.8432 0.80919 0.89952 0.0
C749 C 0.82568 0.80803 0.87384 0.0
C750 C 0.84378 0.79799 0.90244 0.0
N751 N 0.83429 0.81395 0.88492 0.0
C752 C 0.82599 0.79685 0.87555 0.0
C753 C 0.83515 0.79171 0.88971 0.0
H754 H 0.84991 0.81408 0.90843 0.0
H755 H 0.8186 0.81198 0.86306 0.0
C756 C 0.80596 0.85411 0.81777 0.0
N757 N 0.80693 0.84712 0.84706 0.0
C758 C 0.79601 0.85575 0.80052 0.0
C759 C 0.78816 0.84318 0.84451 0.0
C760 C 0.79827 0.84176 0.86084 0.0
C761 C 0.78696 0.85011 0.81344 0.0
H762 H 0.81301 0.85816 0.80702 0.0
H763 H 0.79925 0.83603 0.88339 0.0
O764 O 0.84721 0.83742 0.88699 0.0
O765 O 0.83168 0.85632 0.86361 0.0
O766 O 0.82881 0.83445 0.8274 0.0
O767 O 0.82421 0.83716 0.91338 0.0
H768 H 0.86109 0.85285 0.90302 0.0
H769 H 0.857 0.82273 0.84534 0.0
H770 H 0.87993 0.85344 0.88044 0.0
H771 H 0.87588 0.82387 0.82351 0.0
H772 H 0.80704 0.87727 0.92321 0.0
H773 H 0.83969 0.87525 0.84462 0.0
H774 H 0.81413 0.85948 0.90454 0.0
H775 H 0.83211 0.8928 0.86403 0.0
H776 H 0.86478 0.87077 0.78332 0.0
H777 H 0.85663 0.84371 0.71251 0.0
H778 H 0.84424 0.85197 0.04576 0.0
H779 H 0.85428 0.878 0.97303 0.0
H780 H 0.80947 0.82891 0.80319 0.0
H781 H 0.84289 0.82015 0.80234 0.0
H782 H 0.80549 0.81282 0.76451 0.0
H783 H 0.83832 0.80421 0.76362 0.0
H784 H 0.81215 0.81984 0.92231 0.0
H785 H 0.81797 0.85186 0.96314 0.0
H786 H 0.79744 0.81804 0.969 0.0
H787 H 0.80309 0.84954 0.0088 0.0
H788 H 0.85098 0.79429 0.91354 0.0
H789 H 0.81912 0.79227 0.86596 0.0
H790 H 0.79545 0.86125 0.77691 0.0
H791 H 0.78145 0.83853 0.85503 0.0
Li792 Li 0.90719 0.08981 0.5928 0.0
Li793 Li 0.90456 0.08664 0.65863 0.0
Li794 Li 0.92314 0.08458 0.62863 0.0
Li795 Li 0.90802 0.07154 0.61633 0.0
C796 C 0.915 0.1081 0.62394 0.0
N797 N 0.91671 0.12923 0.60103 0.0
C798 C 0.90587 0.11458 0.62198 0.0
C799 C 0.92501 0.11237 0.61433 0.0
C800 C 0.90689 0.12524 0.61026 0.0
C801 C 0.92571 0.12308 0.60283 0.0
C802 C 0.8855 0.08074 0.63083 0.0
C803 C 0.87247 0.07207 0.67092 0.0
N804 N 0.86519 0.0798 0.66203 0.0
C805 C 0.87787 0.08856 0.62191 0.0
C806 C 0.88277 0.07239 0.65538 0.0
C807 C 0.86765 0.08796 0.63804 0.0
C808 C 0.89286 0.09447 0.53462 0.0
N809 N 0.90234 0.09779 0.5496 0.0
C810 C 0.90385 0.11149 0.50252 0.0
C811 C 0.908 0.10595 0.53358 0.0
C812 C 0.89389 0.10846 0.48728 0.0
C813 C 0.88847 0.09971 0.50346 0.0
H814 H 0.88875 0.08765 0.5467 0.0
H815 H 0.91574 0.10815 0.54471 0.0
C816 C 0.90002 0.08789 0.73794 0.0
N817 N 0.89723 0.09159 0.70312 0.0
C818 C 0.89489 0.09185 0.77029 0.0
C819 C 0.88408 0.10325 0.73031 0.0
C820 C 0.8895 0.09919 0.69894 0.0
C821 C 0.88678 0.09963 0.76662 0.0
H822 H 0.9063 0.08195 0.74064 0.0
H823 H 0.88756 0.10219 0.67121 0.0
C824 C 0.91907 0.07979 0.54274 0.0
N825 N 0.92056 0.08293 0.4657 0.0
C826 C 0.91212 0.07437 0.5183 0.0
C827 C 0.9268 0.08676 0.52808 0.0
C828 C 0.913 0.07609 0.47941 0.0
C829 C 0.92742 0.08824 0.48902 0.0
C830 C 0.91751 0.06521 0.6815 0.0
C831 C 0.92757 0.06044 0.67673 0.0
C832 C 0.90964 0.05994 0.70267 0.0
C833 C 0.92952 0.05036 0.69258 0.0
C834 C 0.9119 0.04987 0.71808 0.0
N835 N 0.92171 0.04532 0.71271 0.0
C836 C 0.94297 0.09192 0.66039 0.0
C837 C 0.94426 0.07964 0.60948 0.0
C838 C 0.95417 0.09257 0.66275 0.0
N839 N 0.93829 0.08559 0.63379 0.0
C840 C 0.95544 0.08001 0.61091 0.0
C841 C 0.96057 0.0866 0.63761 0.0
H842 H 0.93801 0.09656 0.67944 0.0
H843 H 0.94032 0.07455 0.58899 0.0
C844 C 0.89563 0.05348 0.59232 0.0
N845 N 0.9056 0.05692 0.60228 0.0
C846 C 0.89419 0.04319 0.57736 0.0
C847 C 0.91326 0.04018 0.58323 0.0
C848 C 0.91435 0.05053 0.59782 0.0
C849 C 0.90309 0.03642 0.57234 0.0
H850 H 0.88885 0.05884 0.59467 0.0
H851 H 0.92224 0.05363 0.6042 0.0
O852 O 0.9142 0.09767 0.63563 0.0
O853 O 0.8956 0.08126 0.6157 0.0
O854 O 0.91812 0.07847 0.58092 0.0
O855 O 0.91543 0.07503 0.66587 0.0
H856 H 0.89805 0.11138 0.62875 0.0
H857 H 0.93216 0.10747 0.61542 0.0
H858 H 0.89988 0.13033 0.60838 0.0
H859 H 0.93339 0.12648 0.59521 0.0
H860 H 0.87026 0.06566 0.69003 0.0
H861 H 0.87986 0.09515 0.60328 0.0
H862 H 0.88853 0.06622 0.66225 0.0
H863 H 0.8617 0.09401 0.63161 0.0
H864 H 0.90836 0.11815 0.49093 0.0
H865 H 0.88095 0.09683 0.49196 0.0
H866 H 0.8972 0.08884 0.79781 0.0
H867 H 0.87801 0.10937 0.72624 0.0
H868 H 0.90605 0.069 0.5293 0.0
H869 H 0.93216 0.09108 0.54672 0.0
H870 H 0.90764 0.072 0.46014 0.0
H871 H 0.93333 0.09366 0.47725 0.0
H872 H 0.93378 0.06443 0.66063 0.0
H873 H 0.9019 0.06361 0.70736 0.0
H874 H 0.93724 0.04654 0.68884 0.0
H875 H 0.90587 0.04569 0.73439 0.0
H876 H 0.95776 0.09783 0.6836 0.0
H877 H 0.96001 0.07508 0.59151 0.0
H878 H 0.8862 0.04062 0.56932 0.0
H879 H 0.92039 0.03534 0.57904 0.0
Li880 Li 0.66141 0.15808 0.34292 0.0
Li881 Li 0.66489 0.15527 0.40877 0.0
Li882 Li 0.6665 0.17394 0.38 0.0
Li883 Li 0.67978 0.15933 0.36654 0.0
C884 C 0.64323 0.16692 0.37642 0.0
N885 N 0.62219 0.17156 0.3577 0.0
C886 C 0.63525 0.15912 0.38064 0.0
C887 C 0.64048 0.1771 0.36285 0.0
C888 C 0.62467 0.16162 0.37094 0.0
C889 C 0.62981 0.17928 0.35351 0.0
C890 C 0.67037 0.13641 0.37839 0.0
C891 C 0.67817 0.12243 0.41669 0.0
N892 N 0.67019 0.11565 0.40584 0.0
C893 C 0.66229 0.12928 0.36741 0.0
C894 C 0.67842 0.13295 0.40304 0.0
C895 C 0.66232 0.11882 0.38167 0.0
C896 C 0.65843 0.14464 0.28133 0.0
N897 N 0.6536 0.15291 0.29971 0.0
C898 C 0.63928 0.15295 0.2547 0.0
C899 C 0.64428 0.15722 0.28666 0.0
C900 C 0.64399 0.14427 0.23555 0.0
C901 C 0.65377 0.14019 0.24914 0.0
H902 H 0.666 0.14155 0.29153 0.0
H903 H 0.64075 0.16405 0.30053 0.0
C904 C 0.66388 0.14956 0.48743 0.0
N905 N 0.65995 0.14753 0.45229 0.0
C906 C 0.65961 0.14425 0.51895 0.0
C907 C 0.64752 0.13476 0.47737 0.0
C908 C 0.65194 0.1403 0.44688 0.0
C909 C 0.65123 0.13679 0.5142 0.0
H910 H 0.67016 0.15546 0.49109 0.0
H911 H 0.64888 0.13889 0.4188 0.0
C912 C 0.67138 0.16982 0.29298 0.0
N913 N 0.6686 0.17018 0.21555 0.0
C914 C 0.67809 0.16375 0.26964 0.0
C915 C 0.66328 0.1761 0.27695 0.0
C916 C 0.67656 0.16404 0.23055 0.0
C917 C 0.662 0.17617 0.23774 0.0
C918 C 0.68612 0.16855 0.43141 0.0
C919 C 0.69045 0.17885 0.42809 0.0
C920 C 0.69193 0.16054 0.45 0.0
C921 C 0.70063 0.18093 0.44289 0.0
C922 C 0.70209 0.16294 0.46441 0.0
N923 N 0.7062 0.17299 0.46055 0.0
C924 C 0.66179 0.19326 0.42017 0.0
C925 C 0.66805 0.19543 0.35738 0.0
C926 C 0.66102 0.2044 0.42464 0.0
N927 N 0.66522 0.18904 0.38686 0.0
C928 C 0.66728 0.20656 0.36043 0.0
C929 C 0.66372 0.21118 0.39436 0.0
H930 H 0.65966 0.18797 0.44323 0.0
H931 H 0.67097 0.19188 0.3315 0.0
C932 C 0.69828 0.14758 0.3423 0.0
N933 N 0.69444 0.15738 0.35238 0.0
C934 C 0.7085 0.14662 0.32625 0.0
C935 C 0.71068 0.16581 0.33213 0.0
C936 C 0.7004 0.16641 0.34763 0.0
C937 C 0.7148 0.15585 0.32036 0.0
H938 H 0.69324 0.14057 0.34505 0.0
H939 H 0.69701 0.17414 0.35453 0.0
O940 O 0.6536 0.1647 0.38639 0.0
O941 O 0.67041 0.14671 0.36505 0.0
O942 O 0.67253 0.16936 0.33137 0.0
O943 O 0.67622 0.16633 0.41671 0.0
H944 H 0.63719 0.15122 0.39109 0.0
H945 H 0.64652 0.18323 0.35919 0.0
H946 H 0.61843 0.15565 0.37396 0.0
H947 H 0.62759 0.18711 0.34284 0.0
H948 H 0.68433 0.11966 0.4359 0.0
H949 H 0.65595 0.13183 0.34854 0.0
H950 H 0.68478 0.13832 0.41153 0.0
H951 H 0.65607 0.11325 0.37363 0.0
H952 H 0.63174 0.15637 0.24534 0.0
H953 H 0.65787 0.13369 0.23481 0.0
H954 H 0.66265 0.1462 0.54677 0.0
H955 H 0.64124 0.12896 0.47204 0.0
H956 H 0.68434 0.15876 0.28158 0.0
H957 H 0.65791 0.18072 0.29466 0.0
H958 H 0.68166 0.15935 0.21215 0.0
H959 H 0.65571 0.18093 0.22497 0.0
H960 H 0.68604 0.18515 0.41387 0.0
H961 H 0.68863 0.15258 0.45332 0.0
H962 H 0.70412 0.18885 0.44028 0.0
H963 H 0.7067 0.15681 0.47871 0.0
H964 H 0.65823 0.20766 0.45124 0.0
H965 H 0.66962 0.21151 0.33666 0.0
H966 H 0.71123 0.13879 0.31704 0.0
H967 H 0.71524 0.17314 0.32867 0.0
Li968 Li 0.59469 0.91107 0.09559 0.0
Li969 Li 0.59698 0.91576 0.16343 0.0
Li970 Li 0.57906 0.91719 0.12981 0.0
Li971 Li 0.59332 0.92975 0.11594 0.0
C972 C 0.58961 0.89367 0.13194 0.0
N973 N 0.59381 0.87264 0.11219 0.0
C974 C 0.59862 0.88843 0.14653 0.0
C975 C 0.58271 0.88821 0.10747 0.0
C976 C 0.6006 0.8778 0.13618 0.0
C977 C 0.58498 0.87758 0.09777 0.0
C978 C 0.61419 0.9262 0.10726 0.0
C979 C 0.62683 0.94061 0.11692 0.0
N980 N 0.63025 0.9395 0.08063 0.0
C981 C 0.61786 0.92518 0.07009 0.0
C982 C 0.61874 0.93394 0.13092 0.0
C983 C 0.62598 0.93199 0.05716 0.0
C984 C 0.59482 0.90078 0.02382 0.0
N985 N 0.60013 0.90188 0.05712 0.0
C986 C 0.61458 0.89104 0.0344 0.0
C987 C 0.60978 0.89707 0.06304 0.0
C988 C 0.60936 0.88993 0.99946 0.0
C989 C 0.59927 0.89474 0.99453 0.0
H990 H 0.58727 0.90485 0.01954 0.0
H991 H 0.61388 0.89818 0.08969 0.0
C992 C 0.59829 0.90608 0.23529 0.0
N993 N 0.60409 0.91134 0.20857 0.0
C994 C 0.6034 0.90161 0.26675 0.0
C995 C 0.62031 0.90832 0.24311 0.0
C996 C 0.61489 0.91257 0.21193 0.0
C997 C 0.61458 0.9026 0.27077 0.0
H998 H 0.58973 0.9051 0.23159 0.0
H999 H 0.61934 0.9166 0.18988 0.0
C1000 C 0.57502 0.92373 0.05988 0.0
N1001 N 0.55596 0.92738 0.02201 0.0
C1002 C 0.57171 0.93422 0.05203 0.0
C1003 C 0.56863 0.9151 0.04833 0.0
C1004 C 0.56205 0.93589 0.03285 0.0
C1005 C 0.55902 0.91711 0.02931 0.0
C1006 C 0.58638 0.93607 0.18911 0.0
C1007 C 0.57738 0.94265 0.19341 0.0
C1008 C 0.5957 0.93829 0.20964 0.0
C1009 C 0.57791 0.95146 0.21779 0.0
C1010 C 0.59592 0.94716 0.23374 0.0
N1011 N 0.5871 0.95352 0.23726 0.0
C1012 C 0.55913 0.90648 0.14417 0.0
C1013 C 0.55789 0.92502 0.1298 0.0
C1014 C 0.54794 0.90567 0.14594 0.0
N1015 N 0.56385 0.91603 0.13572 0.0
C1016 C 0.54672 0.92453 0.13055 0.0
C1017 C 0.54161 0.91475 0.13841 0.0
H1018 H 0.56405 0.89947 0.14906 0.0
H1019 H 0.56184 0.93253 0.12359 0.0
C1020 C 0.59901 0.94426 0.06044 0.0
N1021 N 0.5963 0.94401 0.09765 0.0
C1022 C 0.60069 0.95401 0.04202 0.0
C1023 C 0.59671 0.9632 0.10038 0.0
C1024 C 0.59529 0.95323 0.11789 0.0
C1025 C 0.59933 0.96371 0.06172 0.0
H1026 H 0.59963 0.93684 0.04477 0.0
H1027 H 0.59312 0.95296 0.14732 0.0
O1028 O 0.58768 0.90417 0.14092 0.0
O1029 O 0.6061 0.91975 0.12022 0.0
O1030 O 0.58438 0.92193 0.07911 0.0
O1031 O 0.58597 0.92739 0.16554 0.0
H1032 H 0.60409 0.89256 0.16526 0.0
H1033 H 0.57572 0.89216 0.09584 0.0
H1034 H 0.60757 0.87365 0.1471 0.0
H1035 H 0.57974 0.87327 0.07871 0.0
H1036 H 0.63037 0.94667 0.13488 0.0
H1037 H 0.61437 0.91933 0.05119 0.0
H1038 H 0.61599 0.93488 0.15969 0.0
H1039 H 0.62884 0.93133 0.0284 0.0
H1040 H 0.62235 0.88741 0.03936 0.0
H1041 H 0.59506 0.8942 0.96783 0.0
H1042 H 0.59866 0.89734 0.28755 0.0
H1043 H 0.62895 0.90916 0.24483 0.0
H1044 H 0.57645 0.94102 0.06105 0.0
H1045 H 0.57098 0.90694 0.05458 0.0
H1046 H 0.55938 0.94397 0.02674 0.0
H1047 H 0.55397 0.91051 0.02048 0.0
H1048 H 0.57007 0.94101 0.17801 0.0
H1049 H 0.60269 0.93322 0.20702 0.0
H1050 H 0.57103 0.95665 0.22124 0.0
H1051 H 0.6031 0.949 0.24968 0.0
H1052 H 0.54426 0.89799 0.15209 0.0
H1053 H 0.5421 0.93173 0.12504 0.0
H1054 H 0.60293 0.95389 0.01247 0.0
H1055 H 0.59543 0.97042 0.1168 0.0
Li1056 Li 0.83426 0.1728 0.12437 0.0
Li1057 Li 0.82155 0.15813 0.13843 0.0
Li1058 Li 0.83959 0.15696 0.15943 0.0
Li1059 Li 0.83633 0.15419 0.09375 0.0
C1060 C 0.82559 0.16661 0.21042 0.0
N1061 N 0.81906 0.16387 0.28441 0.0
C1062 C 0.82375 0.15631 0.22465 0.0
C1063 C 0.8242 0.17551 0.23394 0.0
C1064 C 0.82041 0.15509 0.26208 0.0
C1065 C 0.82087 0.17396 0.27124 0.0
C1066 C 0.81662 0.16849 0.06509 0.0
C1067 C 0.80581 0.16628 0.00905 0.0
N1068 N 0.80074 0.17569 0.01679 0.0
C1069 C 0.81141 0.17821 0.07214 0.0
C1070 C 0.8139 0.16253 0.03299 0.0
C1071 C 0.80336 0.18169 0.04755 0.0
C1072 C 0.84265 0.19258 0.09522 0.0
N1073 N 0.83542 0.18793 0.11889 0.0
C1074 C 0.82913 0.2051 0.13912 0.0
C1075 C 0.82871 0.19392 0.14055 0.0
C1076 C 0.83655 0.21019 0.11521 0.0
C1077 C 0.84334 0.20378 0.09285 0.0
H1078 H 0.84792 0.18759 0.07844 0.0
H1079 H 0.82297 0.19 0.15879 0.0
C1080 C 0.80378 0.1466 0.17031 0.0
N1081 N 0.80682 0.15593 0.15333 0.0
C1082 C 0.79353 0.14558 0.18595 0.0
C1083 C 0.78962 0.16368 0.16595 0.0
C1084 C 0.79998 0.1644 0.15107 0.0
C1085 C 0.78633 0.15423 0.18417 0.0
H1086 H 0.80942 0.14008 0.17321 0.0
H1087 H 0.8027 0.17189 0.13922 0.0
C1088 C 0.85746 0.16362 0.13057 0.0
N1089 N 0.87772 0.16276 0.16198 0.0
C1090 C 0.86385 0.15453 0.12548 0.0
C1091 C 0.86138 0.17232 0.15136 0.0
C1092 C 0.87407 0.15423 0.14169 0.0
C1093 C 0.87165 0.17172 0.16707 0.0
C1094 C 0.82564 0.13651 0.12266 0.0
C1095 C 0.82788 0.12621 0.13616 0.0
C1096 C 0.8178 0.13788 0.09488 0.0
C1097 C 0.8223 0.11744 0.12135 0.0
C1098 C 0.81239 0.12892 0.0808 0.0
N1099 N 0.81474 0.11896 0.09418 0.0
C1100 C 0.85153 0.15866 0.2283 0.0
C1101 C 0.85106 0.14148 0.19953 0.0
C1102 C 0.85731 0.15456 0.25892 0.0
N1103 N 0.84842 0.15205 0.19975 0.0
C1104 C 0.85673 0.13703 0.22962 0.0
C1105 C 0.85979 0.14356 0.26009 0.0
H1106 H 0.84932 0.16705 0.22766 0.0
H1107 H 0.84861 0.13647 0.17614 0.0
C1108 C 0.84186 0.15177 0.01598 0.0
N1109 N 0.84128 0.14673 0.04997 0.0
C1110 C 0.84634 0.14653 0.98475 0.0
C1111 C 0.84939 0.13097 0.02404 0.0
C1112 C 0.84497 0.13655 0.05449 0.0
C1113 C 0.85027 0.13598 0.98856 0.0
H1114 H 0.83906 0.15996 0.01334 0.0
H1115 H 0.84469 0.1328 0.08201 0.0
O1116 O 0.82904 0.16801 0.17403 0.0
O1117 O 0.82468 0.16504 0.08845 0.0
O1118 O 0.84733 0.16394 0.11591 0.0
O1119 O 0.83112 0.14516 0.1368 0.0
H1120 H 0.82497 0.14931 0.20713 0.0
H1121 H 0.82573 0.18353 0.22359 0.0
H1122 H 0.81895 0.14716 0.27343 0.0
H1123 H 0.81977 0.18078 0.28975 0.0
H1124 H 0.80359 0.16172 0.98424 0.0
H1125 H 0.81351 0.18301 0.09646 0.0
H1126 H 0.818 0.15511 0.02648 0.0
H1127 H 0.79921 0.18916 0.05288 0.0
H1128 H 0.8236 0.2097 0.15631 0.0
H1129 H 0.84924 0.20737 0.07427 0.0
H1130 H 0.79133 0.13815 0.19983 0.0
H1131 H 0.7844 0.17063 0.16469 0.0
H1132 H 0.8609 0.14772 0.10958 0.0
H1133 H 0.85649 0.17939 0.15566 0.0
H1134 H 0.87909 0.14722 0.13822 0.0
H1135 H 0.87477 0.17835 0.18342 0.0
H1136 H 0.83388 0.12498 0.15784 0.0
H1137 H 0.8158 0.14577 0.08474 0.0
H1138 H 0.82398 0.10942 0.13148 0.0
H1139 H 0.80628 0.12989 0.05933 0.0
H1140 H 0.85948 0.15984 0.28199 0.0
H1141 H 0.85864 0.12855 0.22922 0.0
H1142 H 0.84699 0.15082 0.95826 0.0
H1143 H 0.85215 0.12283 0.02842 0.0
Li1144 Li 0.59392 0.07081 0.88711 0.0
Li1145 Li 0.57934 0.08343 0.87418 0.0
Li1146 Li 0.59751 0.08592 0.84247 0.0
Li1147 Li 0.59474 0.08952 0.90934 0.0
C1148 C 0.58379 0.06533 0.81643 0.0
N1149 N 0.57735 0.04792 0.77371 0.0
C1150 C 0.57656 0.05788 0.83133 0.0
C1151 C 0.5878 0.0639 0.7799 0.0
C1152 C 0.57339 0.04914 0.80927 0.0
C1153 C 0.58443 0.05505 0.75872 0.0
C1154 C 0.57555 0.07611 0.94489 0.0
C1155 C 0.55968 0.08223 0.97745 0.0
N1156 N 0.55717 0.0719 0.98605 0.0
C1157 C 0.57281 0.06554 0.95402 0.0
C1158 C 0.56894 0.08453 0.95671 0.0
C1159 C 0.56349 0.06358 0.97488 0.0
C1160 C 0.59977 0.05537 0.9392 0.0
N1161 N 0.59753 0.05649 0.90181 0.0
C1162 C 0.59897 0.03752 0.89268 0.0
C1163 C 0.59751 0.04787 0.87821 0.0
C1164 C 0.60078 0.03612 0.93155 0.0
C1165 C 0.60145 0.04522 0.95475 0.0
H1166 H 0.59986 0.06239 0.95723 0.0
H1167 H 0.59618 0.04895 0.84832 0.0
C1168 C 0.55964 0.09386 0.85442 0.0
N1169 N 0.56403 0.08457 0.86753 0.0
C1170 C 0.54847 0.095 0.85209 0.0
C1171 C 0.54657 0.07697 0.87626 0.0
C1172 C 0.55771 0.07614 0.87761 0.0
C1173 C 0.54181 0.08653 0.86379 0.0
H1174 H 0.56481 0.10044 0.84634 0.0
H1175 H 0.56127 0.06883 0.88784 0.0
C1176 C 0.6153 0.07527 0.87538 0.0
N1177 N 0.63327 0.0636 0.85538 0.0
C1178 C 0.6245 0.07564 0.89789 0.0
C1179 C 0.6152 0.06892 0.84282 0.0
C1180 C 0.63352 0.06969 0.88726 0.0
C1181 C 0.62437 0.06309 0.83315 0.0
C1182 C 0.58902 0.10717 0.87751 0.0
C1183 C 0.5983 0.11286 0.86799 0.0
C1184 C 0.58123 0.112 0.90024 0.0
C1185 C 0.59968 0.12328 0.88173 0.0
C1186 C 0.5829 0.12243 0.91342 0.0
N1187 N 0.59202 0.12781 0.904 0.0
C1188 C 0.5994 0.09257 0.76594 0.0
C1189 C 0.61549 0.0936 0.80134 0.0
C1190 C 0.6045 0.09705 0.73443 0.0
N1191 N 0.60493 0.09094 0.79852 0.0
C1192 C 0.62092 0.098 0.77051 0.0
C1193 C 0.61542 0.09991 0.73648 0.0
H1194 H 0.59095 0.09061 0.76471 0.0
H1195 H 0.61967 0.0925 0.82781 0.0
C1196 C 0.59427 0.10049 0.98044 0.0
N1197 N 0.60015 0.09829 0.94905 0.0
C1198 C 0.59875 0.1064 0.01003 0.0
C1199 C 0.61523 0.10772 0.97429 0.0
C1200 C 0.61041 0.10184 0.94534 0.0
C1201 C 0.60941 0.10996 0.00736 0.0
H1202 H 0.58619 0.09749 0.98294 0.0
H1203 H 0.6149 0.09997 0.92001 0.0
O1204 O 0.58703 0.07396 0.83745 0.0
O1205 O 0.58462 0.07818 0.9243 0.0
O1206 O 0.60636 0.08091 0.8858 0.0
O1207 O 0.5877 0.09684 0.86532 0.0
H1208 H 0.57374 0.05861 0.86003 0.0
H1209 H 0.59348 0.06954 0.76805 0.0
H1210 H 0.56785 0.04327 0.82054 0.0
H1211 H 0.58747 0.05385 0.7304 0.0
H1212 H 0.55445 0.08867 0.98654 0.0
H1213 H 0.57772 0.0589 0.94473 0.0
H1214 H 0.5708 0.09273 0.94929 0.0
H1215 H 0.56126 0.05544 0.98203 0.0
H1216 H 0.59859 0.03069 0.8738 0.0
H1217 H 0.6028 0.04447 0.98487 0.0
H1218 H 0.54508 0.1025 0.8423 0.0
H1219 H 0.54172 0.0702 0.88505 0.0
H1220 H 0.62467 0.08046 0.92334 0.0
H1221 H 0.60813 0.06849 0.82521 0.0
H1222 H 0.6407 0.06991 0.90438 0.0
H1223 H 0.62442 0.05815 0.80801 0.0
H1224 H 0.60444 0.10921 0.85059 0.0
H1225 H 0.57399 0.10772 0.90781 0.0
H1226 H 0.60686 0.12775 0.8748 0.0
H1227 H 0.57696 0.12625 0.9312 0.0
H1228 H 0.59984 0.09853 0.70914 0.0
H1229 H 0.62935 0.09994 0.77346 0.0
H1230 H 0.59403 0.10784 0.03524 0.0
H1231 H 0.62343 0.11042 0.97093 0.0
Li1232 Li 0.66733 0.82848 0.6231 0.0
Li1233 Li 0.68012 0.84347 0.63664 0.0
Li1234 Li 0.66177 0.84409 0.66089 0.0
Li1235 Li 0.66515 0.84709 0.59486 0.0
C1236 C 0.67235 0.83223 0.70991 0.0
N1237 N 0.67001 0.83086 0.78736 0.0
C1238 C 0.67874 0.83851 0.73366 0.0
C1239 C 0.66482 0.8252 0.72551 0.0
C1240 C 0.67743 0.83771 0.77276 0.0
C1241 C 0.66374 0.82464 0.76475 0.0
C1242 C 0.68696 0.8347 0.57304 0.0
C1243 C 0.70317 0.84128 0.54391 0.0
N1244 N 0.70761 0.83135 0.54722 0.0
C1245 C 0.69164 0.82454 0.57589 0.0
C1246 C 0.69272 0.84312 0.55668 0.0
C1247 C 0.70211 0.82302 0.56276 0.0
C1248 C 0.66101 0.80891 0.58713 0.0
N1249 N 0.66655 0.81335 0.61629 0.0
C1250 C 0.67169 0.79602 0.63875 0.0
C1251 C 0.67184 0.80718 0.64185 0.0
C1252 C 0.66605 0.79114 0.60896 0.0
C1253 C 0.66062 0.79774 0.58297 0.0
H1254 H 0.6569 0.81404 0.56716 0.0
H1255 H 0.67621 0.81094 0.66469 0.0
C1256 C 0.69849 0.85596 0.65734 0.0
N1257 N 0.69473 0.84591 0.65039 0.0
C1258 C 0.70882 0.85742 0.67191 0.0
C1259 C 0.71124 0.83817 0.67136 0.0
C1260 C 0.70085 0.83709 0.65713 0.0
C1261 C 0.71532 0.84844 0.67942 0.0
H1262 H 0.69336 0.86282 0.65271 0.0
H1263 H 0.69753 0.82918 0.65262 0.0
C1264 C 0.64391 0.8343 0.62663 0.0
N1265 N 0.62322 0.82798 0.6441 0.0
C1266 C 0.63525 0.84111 0.61906 0.0
C1267 C 0.64202 0.82425 0.64294 0.0
C1268 C 0.62486 0.83778 0.62818 0.0
C1269 C 0.63151 0.82121 0.65157 0.0
C1270 C 0.66912 0.86607 0.62609 0.0
C1271 C 0.66042 0.87224 0.63836 0.0
C1272 C 0.6765 0.87046 0.6007 0.0
C1273 C 0.6592 0.88269 0.62468 0.0
C1274 C 0.67499 0.88093 0.58764 0.0
N1275 N 0.66645 0.88678 0.59978 0.0
C1276 C 0.65901 0.85669 0.72464 0.0
C1277 C 0.64441 0.84477 0.71647 0.0
C1278 C 0.6544 0.86085 0.75743 0.0
N1279 N 0.65397 0.84885 0.70469 0.0
C1280 C 0.63944 0.84877 0.74893 0.0
C1281 C 0.64442 0.85696 0.76988 0.0
H1282 H 0.6667 0.85967 0.71515 0.0
H1283 H 0.64061 0.83838 0.70107 0.0
C1284 C 0.66469 0.85335 0.51684 0.0
N1285 N 0.66011 0.85478 0.55136 0.0
C1286 C 0.66065 0.85877 0.48521 0.0
C1287 C 0.64737 0.8671 0.52536 0.0
C1288 C 0.65158 0.86145 0.55601 0.0
C1289 C 0.65186 0.86575 0.48929 0.0
H1290 H 0.67142 0.84793 0.51379 0.0
H1291 H 0.64799 0.86236 0.58357 0.0
O1292 O 0.67327 0.83316 0.67157 0.0
O1293 O 0.6768 0.8364 0.58636 0.0
O1294 O 0.65412 0.83736 0.61726 0.0
O1295 O 0.67039 0.85578 0.63882 0.0
H1296 H 0.68456 0.84405 0.72202 0.0
H1297 H 0.65979 0.82032 0.70749 0.0
H1298 H 0.68227 0.84256 0.79149 0.0
H1299 H 0.6579 0.81928 0.77722 0.0
H1300 H 0.70774 0.84774 0.53136 0.0
H1301 H 0.68729 0.81793 0.58842 0.0
H1302 H 0.68918 0.85101 0.55396 0.0
H1303 H 0.70586 0.81522 0.565 0.0
H1304 H 0.67585 0.79127 0.65975 0.0
H1305 H 0.65626 0.79433 0.55939 0.0
H1306 H 0.71166 0.86547 0.67765 0.0
H1307 H 0.71587 0.83102 0.6774 0.0
H1308 H 0.63652 0.84889 0.60634 0.0
H1309 H 0.64858 0.8189 0.64934 0.0
H1310 H 0.6181 0.84298 0.62256 0.0
H1311 H 0.62995 0.81348 0.66433 0.0
H1312 H 0.65458 0.86896 0.65778 0.0
H1313 H 0.68329 0.86581 0.59103 0.0
H1314 H 0.65247 0.88753 0.63374 0.0
H1315 H 0.68062 0.88441 0.56783 0.0
H1316 H 0.6587 0.86696 0.77303 0.0
H1317 H 0.63172 0.84556 0.7572 0.0
H1318 H 0.66438 0.85753 0.45792 0.0
H1319 H 0.64049 0.87226 0.52973 0.0
Li1320 Li 0.90759 0.93041 0.38868 0.0
Li1321 Li 0.92278 0.91762 0.37317 0.0
Li1322 Li 0.90398 0.9155 0.34386 0.0
Li1323 Li 0.90723 0.91223 0.40963 0.0
C1324 C 0.91804 0.93547 0.31539 0.0
N1325 N 0.92529 0.95159 0.26819 0.0
C1326 C 0.92802 0.94025 0.32175 0.0
C1327 C 0.9118 0.93879 0.28469 0.0
C1328 C 0.93153 0.94841 0.29768 0.0
C1329 C 0.91559 0.94698 0.26125 0.0
C1330 C 0.92023 0.92063 0.4588 0.0
C1331 C 0.92947 0.90955 0.50421 0.0
N1332 N 0.92397 0.91445 0.53258 0.0
C1333 C 0.91471 0.92559 0.48839 0.0
C1334 C 0.9277 0.91256 0.46671 0.0
C1335 C 0.91669 0.92234 0.52551 0.0
C1336 C 0.897 0.94603 0.43172 0.0
N1337 N 0.90458 0.94483 0.40438 0.0
C1338 C 0.90906 0.96347 0.4082 0.0
C1339 C 0.91049 0.95331 0.39216 0.0
C1340 C 0.90155 0.96488 0.43742 0.0
C1341 C 0.89535 0.95603 0.44869 0.0
H1342 H 0.8925 0.93913 0.44132 0.0
H1343 H 0.91661 0.95217 0.37105 0.0
C1344 C 0.9424 0.9103 0.33947 0.0
N1345 N 0.93789 0.91661 0.36652 0.0
C1346 C 0.95358 0.90958 0.33643 0.0
C1347 C 0.95519 0.92192 0.38885 0.0
C1348 C 0.94403 0.92242 0.39079 0.0
C1349 C 0.96013 0.91537 0.3616 0.0
H1350 H 0.93731 0.90576 0.32057 0.0
H1351 H 0.94022 0.92745 0.41178 0.0
C1352 C 0.88612 0.92541 0.37469 0.0
N1353 N 0.86786 0.93547 0.34811 0.0
C1354 C 0.87601 0.92223 0.38759 0.0
C1355 C 0.88695 0.93372 0.34839 0.0
C1356 C 0.86687 0.92741 0.37377 0.0
C1357 C 0.87763 0.93871 0.33528 0.0
C1358 C 0.91311 0.89384 0.3711 0.0
C1359 C 0.90307 0.88885 0.37073 0.0
C1360 C 0.92237 0.8877 0.37663 0.0
C1361 C 0.90245 0.87777 0.37621 0.0
C1362 C 0.9214 0.87663 0.38197 0.0
N1363 N 0.91155 0.87194 0.38167 0.0
C1364 C 0.90126 0.91099 0.26543 0.0
C1365 C 0.88657 0.90622 0.30445 0.0
C1366 C 0.89608 0.9067 0.23373 0.0
N1367 N 0.89646 0.91064 0.29992 0.0
C1368 C 0.88112 0.90184 0.27361 0.0
C1369 C 0.8859 0.90193 0.23764 0.0
H1370 H 0.90921 0.9144 0.2627 0.0
H1371 H 0.88298 0.90589 0.33222 0.0
C1372 C 0.89414 0.90795 0.47125 0.0
N1373 N 0.90265 0.90382 0.4521 0.0
C1374 C 0.89032 0.90288 0.5037 0.0
C1375 C 0.90396 0.88928 0.49599 0.0
C1376 C 0.90766 0.89472 0.46403 0.0
C1377 C 0.89522 0.89341 0.51631 0.0
H1378 H 0.89043 0.9153 0.46159 0.0
H1379 H 0.91465 0.89179 0.44932 0.0
O1380 O 0.91455 0.92734 0.33827 0.0
O1381 O 0.91816 0.92346 0.4222 0.0
O1382 O 0.89511 0.92033 0.38788 0.0
O1383 O 0.91392 0.90466 0.3658 0.0
H1384 H 0.93295 0.93779 0.34533 0.0
H1385 H 0.90413 0.93507 0.27891 0.0
H1386 H 0.93921 0.95223 0.30245 0.0
H1387 H 0.91084 0.94965 0.23748 0.0
H1388 H 0.93517 0.90327 0.51075 0.0
H1389 H 0.90887 0.93181 0.48272 0.0
H1390 H 0.93194 0.90855 0.44408 0.0
H1391 H 0.91243 0.92606 0.54868 0.0
H1392 H 0.91413 0.97002 0.39897 0.0
H1393 H 0.8894 0.95676 0.47086 0.0
H1394 H 0.95706 0.90439 0.31517 0.0
H1395 H 0.9599 0.92667 0.40837 0.0
H1396 H 0.87523 0.91579 0.40795 0.0
H1397 H 0.89469 0.93636 0.33845 0.0
H1398 H 0.85899 0.92501 0.38344 0.0
H1399 H 0.87816 0.94517 0.31494 0.0
H1400 H 0.89584 0.89351 0.36673 0.0
H1401 H 0.9302 0.89146 0.377 0.0
H1402 H 0.89472 0.8738 0.3762 0.0
H1403 H 0.92849 0.87178 0.3864 0.0
H1404 H 0.90015 0.90684 0.20669 0.0
H1405 H 0.87324 0.89838 0.27797 0.0
H1406 H 0.88354 0.9063 0.51864 0.0
H1407 H 0.90803 0.88206 0.50526 0.0
Li1408 Li 0.68042 0.65785 0.63729 0.0
Li1409 Li 0.66203 0.65721 0.658 0.0
Li1410 Li 0.66547 0.65476 0.5926 0.0
Li1411 Li 0.66712 0.67268 0.62097 0.0
C1412 C 0.67597 0.63666 0.6225 0.0
N1413 N 0.6871 0.61893 0.59677 0.0
C1414 C 0.67497 0.62681 0.64107 0.0
C1415 C 0.68262 0.63749 0.59086 0.0
C1416 C 0.68067 0.61794 0.62764 0.0
C1417 C 0.68818 0.62844 0.57828 0.0
C1418 C 0.67041 0.67063 0.70675 0.0
C1419 C 0.65943 0.68004 0.75198 0.0
N1420 N 0.6646 0.67487 0.78053 0.0
C1421 C 0.67567 0.66547 0.73649 0.0
C1422 C 0.66226 0.67801 0.71445 0.0
C1423 C 0.6726 0.6677 0.77363 0.0
C1424 C 0.70277 0.66197 0.6413 0.0
N1425 N 0.69479 0.65526 0.65262 0.0
C1426 C 0.70673 0.64614 0.69458 0.0
C1427 C 0.69659 0.64738 0.67839 0.0
C1428 C 0.71509 0.65315 0.68439 0.0
C1429 C 0.71305 0.66102 0.65679 0.0
H1430 H 0.70104 0.66831 0.62133 0.0
H1431 H 0.69004 0.64229 0.68737 0.0
C1432 C 0.64424 0.65659 0.7102 0.0
N1433 N 0.65399 0.65252 0.70072 0.0
C1434 C 0.63882 0.65273 0.74207 0.0
C1435 C 0.65373 0.64079 0.75401 0.0
C1436 C 0.65879 0.6448 0.72187 0.0
C1437 C 0.64356 0.64467 0.76439 0.0
H1438 H 0.64065 0.6628 0.69297 0.0
H1439 H 0.66663 0.64184 0.71391 0.0
C1440 C 0.68111 0.66847 0.55349 0.0
N1441 N 0.68829 0.67575 0.48421 0.0
C1442 C 0.67516 0.67607 0.53335 0.0
C1443 C 0.6908 0.66471 0.53866 0.0
C1444 C 0.6789 0.67961 0.49829 0.0
C1445 C 0.69427 0.66845 0.50351 0.0
C1446 C 0.64426 0.65889 0.61002 0.0
C1447 C 0.64297 0.64806 0.61925 0.0
C1448 C 0.63563 0.66461 0.59486 0.0
C1449 C 0.63306 0.64312 0.61317 0.0
C1450 C 0.62583 0.65939 0.58922 0.0
N1451 N 0.62476 0.64884 0.59841 0.0
C1452 C 0.65763 0.6367 0.55126 0.0
C1453 C 0.65935 0.6525 0.51474 0.0
C1454 C 0.65316 0.63123 0.52058 0.0
N1455 N 0.66064 0.64716 0.54794 0.0
C1456 C 0.65501 0.64731 0.48321 0.0
C1457 C 0.65173 0.63654 0.48589 0.0
H1458 H 0.65834 0.63266 0.57813 0.0
H1459 H 0.66141 0.66088 0.51283 0.0
C1460 C 0.67527 0.69353 0.61972 0.0
N1461 N 0.66614 0.68776 0.61445 0.0
C1462 C 0.67515 0.70468 0.61605 0.0
C1463 C 0.65622 0.70376 0.6014 0.0
C1464 C 0.65671 0.6926 0.60541 0.0
C1465 C 0.66552 0.70997 0.60681 0.0
H1466 H 0.68264 0.68944 0.62707 0.0
H1467 H 0.64958 0.68779 0.60139 0.0
O1468 O 0.67045 0.6454 0.63556 0.0
O1469 O 0.67307 0.66832 0.6702 0.0
O1470 O 0.67773 0.66509 0.5883 0.0
O1471 O 0.65391 0.66392 0.61548 0.0
H1472 H 0.66984 0.62604 0.66561 0.0
H1473 H 0.68343 0.645 0.57602 0.0
H1474 H 0.67997 0.61027 0.64174 0.0
H1475 H 0.69334 0.62896 0.55377 0.0
H1476 H 0.65309 0.68568 0.7584 0.0
H1477 H 0.68198 0.6597 0.73092 0.0
H1478 H 0.65809 0.68203 0.69167 0.0
H1479 H 0.67654 0.66372 0.79695 0.0
H1480 H 0.70796 0.63989 0.71539 0.0
H1481 H 0.7192 0.66668 0.64845 0.0
H1482 H 0.63097 0.65592 0.74877 0.0
H1483 H 0.65783 0.63478 0.77075 0.0
H1484 H 0.66764 0.67908 0.54438 0.0
H1485 H 0.69562 0.65899 0.55419 0.0
H1486 H 0.67433 0.68542 0.48227 0.0
H1487 H 0.70173 0.66557 0.49164 0.0
H1488 H 0.64954 0.64347 0.63095 0.0
H1489 H 0.63649 0.67299 0.58746 0.0
H1490 H 0.63196 0.63474 0.62016 0.0
H1491 H 0.61909 0.66372 0.57752 0.0
H1492 H 0.65054 0.62302 0.5245 0.0
H1493 H 0.65417 0.65176 0.45709 0.0
H1494 H 0.68247 0.70913 0.6211 0.0
H1495 H 0.64866 0.70746 0.59387 0.0
Li1496 Li 0.59183 0.42939 0.89094 0.0
Li1497 Li 0.59328 0.41036 0.91052 0.0
Li1498 Li 0.59609 0.41465 0.84468 0.0
Li1499 Li 0.57815 0.41581 0.87485 0.0
C1500 C 0.6134 0.42558 0.87715 0.0
N1501 N 0.63093 0.43748 0.85422 0.0
C1502 C 0.62319 0.42457 0.89604 0.0
C1503 C 0.61251 0.43264 0.84663 0.0
C1504 C 0.63197 0.43066 0.88401 0.0
C1505 C 0.62147 0.43858 0.83546 0.0
C1506 C 0.57264 0.42274 0.94208 0.0
C1507 C 0.55603 0.41588 0.96755 0.0
N1508 N 0.55242 0.42609 0.97206 0.0
C1509 C 0.56879 0.43317 0.9473 0.0
C1510 C 0.56625 0.41402 0.95264 0.0
C1511 C 0.55854 0.4347 0.96239 0.0
C1512 C 0.58717 0.45169 0.89519 0.0
N1513 N 0.59422 0.44394 0.90579 0.0
C1514 C 0.60377 0.45644 0.9445 0.0
C1515 C 0.60247 0.44613 0.92968 0.0
C1516 C 0.59633 0.46456 0.93556 0.0
C1517 C 0.58802 0.46206 0.91003 0.0
H1518 H 0.58058 0.44968 0.87661 0.0
H1519 H 0.60791 0.4398 0.93803 0.0
C1520 C 0.6092 0.39836 0.9471 0.0
N1521 N 0.59883 0.40164 0.95019 0.0
C1522 C 0.61402 0.39262 0.97638 0.0
C1523 C 0.5973 0.3934 0.01093 0.0
C1524 C 0.59284 0.39926 0.98118 0.0
C1525 C 0.60808 0.39016 0.00896 0.0
H1526 H 0.61376 0.40038 0.92209 0.0
H1527 H 0.58467 0.40206 0.98315 0.0
C1528 C 0.58134 0.4299 0.80759 0.0
N1529 N 0.57311 0.43685 0.73935 0.0
C1530 C 0.57441 0.42331 0.78692 0.0
C1531 C 0.58402 0.44005 0.79368 0.0
C1532 C 0.57035 0.42696 0.75245 0.0
C1533 C 0.5798 0.4434 0.75908 0.0
C1534 C 0.58934 0.39261 0.87633 0.0
C1535 C 0.59843 0.38742 0.86214 0.0
C1536 C 0.5828 0.38731 0.90247 0.0
C1537 C 0.60089 0.37707 0.87461 0.0
C1538 C 0.58553 0.37697 0.91429 0.0
N1539 N 0.59445 0.37211 0.90025 0.0
C1540 C 0.61462 0.40755 0.80543 0.0
C1541 C 0.59951 0.40999 0.76583 0.0
C1542 C 0.62061 0.40352 0.77521 0.0
N1543 N 0.60424 0.41064 0.8004 0.0
C1544 C 0.60522 0.40606 0.73475 0.0
C1545 C 0.61588 0.40261 0.73932 0.0
H1546 H 0.61816 0.40782 0.83328 0.0
H1547 H 0.59121 0.41216 0.76246 0.0
C1548 C 0.55726 0.42374 0.86199 0.0
N1549 N 0.563 0.41455 0.86659 0.0
C1550 C 0.54611 0.42334 0.85821 0.0
C1551 C 0.54698 0.40403 0.86388 0.0
C1552 C 0.55813 0.40478 0.86698 0.0
C1553 C 0.54083 0.41339 0.85964 0.0
H1554 H 0.56135 0.4314 0.86193 0.0
H1555 H 0.56288 0.3976 0.87032 0.0
O1556 O 0.60474 0.41968 0.88877 0.0
O1557 O 0.58257 0.42108 0.92644 0.0
O1558 O 0.58524 0.4266 0.84179 0.0
O1559 O 0.58697 0.40286 0.86518 0.0
H1560 H 0.624 0.41915 0.91978 0.0
H1561 H 0.60502 0.43351 0.83162 0.0
H1562 H 0.6396 0.42997 0.89837 0.0
H1563 H 0.62091 0.44407 0.81186 0.0
H1564 H 0.55096 0.40919 0.97536 0.0
H1565 H 0.57363 0.44002 0.93977 0.0
H1566 H 0.56902 0.4059 0.94857 0.0
H1567 H 0.55545 0.44273 0.96639 0.0
H1568 H 0.61047 0.45794 0.96322 0.0
H1569 H 0.58195 0.4679 0.90261 0.0
H1570 H 0.62234 0.39019 0.97372 0.0
H1571 H 0.5925 0.39177 0.03579 0.0
H1572 H 0.5723 0.41541 0.79714 0.0
H1573 H 0.58932 0.44528 0.80947 0.0
H1574 H 0.56502 0.42193 0.73608 0.0
H1575 H 0.58183 0.45123 0.74793 0.0
H1576 H 0.60357 0.39133 0.84186 0.0
H1577 H 0.57578 0.3912 0.91402 0.0
H1578 H 0.60793 0.37299 0.86396 0.0
H1579 H 0.58058 0.37283 0.93474 0.0
H1580 H 0.62881 0.40101 0.78004 0.0
H1581 H 0.60119 0.40533 0.70776 0.0
H1582 H 0.54164 0.43075 0.85532 0.0
H1583 H 0.54319 0.3962 0.86478 0.0
Li1584 Li 0.82203 0.34307 0.14045 0.0
Li1585 Li 0.84106 0.3439 0.1601 0.0
Li1586 Li 0.83691 0.3468 0.0944 0.0
Li1587 Li 0.83514 0.32888 0.1245 0.0
C1588 C 0.82641 0.36447 0.1266 0.0
N1589 N 0.81481 0.38219 0.10355 0.0
C1590 C 0.8273 0.37416 0.14622 0.0
C1591 C 0.81961 0.36379 0.0953 0.0
C1592 C 0.82137 0.38303 0.13412 0.0
C1593 C 0.81382 0.37284 0.08407 0.0
C1594 C 0.82792 0.32387 0.19256 0.0
C1595 C 0.834 0.30694 0.21788 0.0
N1596 N 0.82365 0.30412 0.2249 0.0
C1597 C 0.81735 0.32083 0.20034 0.0
C1598 C 0.83633 0.31691 0.20174 0.0
C1599 C 0.81536 0.31081 0.21661 0.0
C1600 C 0.79965 0.33904 0.14345 0.0
N1601 N 0.80757 0.34576 0.15521 0.0
C1602 C 0.79532 0.35505 0.1956 0.0
C1603 C 0.80558 0.35373 0.18044 0.0
C1604 C 0.78703 0.34797 0.18526 0.0
C1605 C 0.78929 0.33998 0.15826 0.0
H1606 H 0.80152 0.33262 0.12395 0.0
H1607 H 0.81206 0.35888 0.18968 0.0
C1608 C 0.85299 0.35945 0.1993 0.0
N1609 N 0.84996 0.34898 0.20012 0.0
C1610 C 0.85897 0.3638 0.22894 0.0
C1611 C 0.85888 0.34642 0.25921 0.0
C1612 C 0.8528 0.34244 0.22917 0.0
C1613 C 0.86193 0.35729 0.25969 0.0
H1614 H 0.8506 0.36448 0.17583 0.0
H1615 H 0.85028 0.33416 0.22921 0.0
C1616 C 0.82106 0.33262 0.05728 0.0
N1617 N 0.81357 0.32483 0.98911 0.0
C1618 C 0.82714 0.32521 0.03676 0.0
C1619 C 0.81114 0.33601 0.04327 0.0
C1620 C 0.82322 0.32138 0.00231 0.0
C1621 C 0.8075 0.332 0.0087 0.0
C1622 C 0.85863 0.33927 0.1266 0.0
C1623 C 0.86384 0.34869 0.11554 0.0
C1624 C 0.86389 0.33202 0.15043 0.0
C1625 C 0.87421 0.35075 0.12868 0.0
C1626 C 0.87425 0.33437 0.16299 0.0
N1627 N 0.87915 0.34361 0.15197 0.0
C1628 C 0.84437 0.365 0.05326 0.0
C1629 C 0.84214 0.34937 0.01611 0.0
C1630 C 0.84858 0.37057 0.02231 0.0
N1631 N 0.84127 0.35457 0.04974 0.0
C1632 C 0.84625 0.35464 0.98439 0.0
C1633 C 0.84968 0.36536 0.98727 0.0
H1634 H 0.84396 0.36891 0.08048 0.0
H1635 H 0.83994 0.34104 0.01399 0.0
C1636 C 0.82641 0.30821 0.11605 0.0
N1637 N 0.83583 0.31371 0.11635 0.0
C1638 C 0.82639 0.29704 0.11332 0.0
C1639 C 0.84575 0.2974 0.10975 0.0
C1640 C 0.8454 0.30858 0.11256 0.0
C1641 C 0.83616 0.29145 0.11069 0.0
H1642 H 0.81891 0.31252 0.11873 0.0
H1643 H 0.85276 0.31316 0.1124 0.0
O1644 O 0.83213 0.35571 0.13838 0.0
O1645 O 0.83001 0.33357 0.17591 0.0
O1646 O 0.82463 0.33632 0.09145 0.0
O1647 O 0.84835 0.33728 0.11493 0.0
H1648 H 0.8325 0.37481 0.17062 0.0
H1649 H 0.81883 0.35638 0.07971 0.0
H1650 H 0.82198 0.39059 0.14905 0.0
H1651 H 0.80853 0.37242 0.05985 0.0
H1652 H 0.84043 0.30143 0.22464 0.0
H1653 H 0.81075 0.32613 0.19394 0.0
H1654 H 0.84454 0.31904 0.19557 0.0
H1655 H 0.80721 0.30835 0.22261 0.0
H1656 H 0.79396 0.36145 0.21573 0.0
H1657 H 0.78326 0.3342 0.14978 0.0
H1658 H 0.86098 0.37225 0.22819 0.0
H1659 H 0.86111 0.34103 0.28187 0.0
H1660 H 0.83487 0.32255 0.04702 0.0
H1661 H 0.80629 0.34168 0.05892 0.0
H1662 H 0.82787 0.31569 0.98605 0.0
H1663 H 0.79985 0.33457 0.99748 0.0
H1664 H 0.85989 0.35441 0.09731 0.0
H1665 H 0.85996 0.32475 0.15965 0.0
H1666 H 0.87831 0.35803 0.12048 0.0
H1667 H 0.87838 0.32888 0.18165 0.0
H1668 H 0.8513 0.37875 0.02623 0.0
H1669 H 0.84683 0.3503 0.95796 0.0
H1670 H 0.81879 0.29281 0.11346 0.0
H1671 H 0.85347 0.29344 0.10798 0.0
Li1672 Li 0.90734 0.59082 0.41105 0.0
Li1673 Li 0.9082 0.57181 0.39044 0.0
Li1674 Li 0.92241 0.58491 0.37562 0.0
Li1675 Li 0.90464 0.58676 0.34481 0.0
C1676 C 0.92734 0.57777 0.44315 0.0
N1677 N 0.94729 0.57402 0.47474 0.0
C1678 C 0.93115 0.56728 0.4471 0.0
C1679 C 0.93364 0.58635 0.45575 0.0
C1680 C 0.94125 0.56555 0.46305 0.0
C1681 C 0.94371 0.58429 0.47148 0.0
C1682 C 0.88675 0.57639 0.37706 0.0
C1683 C 0.87814 0.56375 0.33535 0.0
N1684 N 0.86878 0.56512 0.35448 0.0
C1685 C 0.87705 0.57768 0.39634 0.0
C1686 C 0.88732 0.56937 0.34635 0.0
C1687 C 0.86805 0.57191 0.38448 0.0
C1688 C 0.89337 0.60575 0.44548 0.0
N1689 N 0.90223 0.5996 0.45126 0.0
C1690 C 0.90306 0.60507 0.5159 0.0
C1691 C 0.9071 0.59915 0.48558 0.0
C1692 C 0.89389 0.61149 0.51092 0.0
C1693 C 0.8891 0.61185 0.47496 0.0
H1694 H 0.88956 0.60581 0.41802 0.0
H1695 H 0.91396 0.59399 0.48969 0.0
C1696 C 0.91219 0.54949 0.39189 0.0
N1697 N 0.90551 0.55732 0.4046 0.0
C1698 C 0.91142 0.53908 0.40636 0.0
C1699 C 0.89655 0.54488 0.44521 0.0
C1700 C 0.8977 0.55521 0.43036 0.0
C1701 C 0.90364 0.53672 0.43388 0.0
H1702 H 0.91844 0.55145 0.37184 0.0
H1703 H 0.89262 0.56164 0.44043 0.0
C1704 C 0.91221 0.60857 0.3759 0.0
N1705 N 0.9082 0.62959 0.39651 0.0
C1706 C 0.90388 0.61429 0.35877 0.0
C1707 C 0.91858 0.61359 0.40322 0.0
C1708 C 0.90197 0.6249 0.36962 0.0
C1709 C 0.9164 0.6242 0.41336 0.0
C1710 C 0.9187 0.57118 0.30715 0.0
C1711 C 0.92624 0.57728 0.28731 0.0
C1712 C 0.91509 0.56148 0.29197 0.0
C1713 C 0.92995 0.57363 0.25235 0.0
C1714 C 0.91899 0.5581 0.25693 0.0
N1715 N 0.92628 0.56419 0.23801 0.0
C1716 C 0.94303 0.57631 0.36536 0.0
C1717 C 0.94276 0.59531 0.36795 0.0
C1718 C 0.9542 0.5763 0.36249 0.0
N1719 N 0.93758 0.58571 0.3685 0.0
C1720 C 0.95394 0.59568 0.36506 0.0
C1721 C 0.95982 0.58607 0.3627 0.0
H1722 H 0.93868 0.56879 0.36563 0.0
H1723 H 0.93822 0.60267 0.37035 0.0
C1724 C 0.88647 0.59375 0.30206 0.0
N1725 N 0.89708 0.59121 0.29985 0.0
C1726 C 0.88105 0.59788 0.27065 0.0
C1727 C 0.89756 0.59682 0.23516 0.0
C1728 C 0.90265 0.59273 0.26726 0.0
C1729 C 0.88662 0.59956 0.23662 0.0
H1730 H 0.88225 0.59293 0.32857 0.0
H1731 H 0.91113 0.59109 0.26635 0.0
O1732 O 0.91758 0.57965 0.42662 0.0
O1733 O 0.89563 0.58196 0.38856 0.0
O1734 O 0.91409 0.59811 0.3661 0.0
O1735 O 0.91513 0.57448 0.34182 0.0
H1736 H 0.92639 0.56054 0.43778 0.0
H1737 H 0.93085 0.59452 0.45293 0.0
H1738 H 0.94432 0.55747 0.46605 0.0
H1739 H 0.9487 0.59086 0.48099 0.0
H1740 H 0.87846 0.5583 0.31158 0.0
H1741 H 0.8765 0.58308 0.42023 0.0
H1742 H 0.89474 0.56831 0.33106 0.0
H1743 H 0.86048 0.57282 0.39913 0.0
H1744 H 0.9069 0.60435 0.54323 0.0
H1745 H 0.88209 0.61676 0.46966 0.0
H1746 H 0.917 0.533 0.39673 0.0
H1747 H 0.89052 0.54342 0.46665 0.0
H1748 H 0.89889 0.61058 0.33749 0.0
H1749 H 0.92506 0.6093 0.41676 0.0
H1750 H 0.89551 0.6294 0.35672 0.0
H1751 H 0.92121 0.62814 0.43467 0.0
H1752 H 0.9291 0.58484 0.29851 0.0
H1753 H 0.90934 0.55659 0.30711 0.0
H1754 H 0.93574 0.5783 0.23661 0.0
H1755 H 0.91624 0.55061 0.24481 0.0
H1756 H 0.95838 0.56871 0.36012 0.0
H1757 H 0.95795 0.60339 0.36562 0.0
H1758 H 0.87269 0.60009 0.27344 0.0
H1759 H 0.90219 0.59792 0.20956 0.0
Li1760 Li 0.66514 0.34769 0.41108 0.0
Li1761 Li 0.6666 0.32931 0.38121 0.0
Li1762 Li 0.68006 0.3441 0.3648 0.0
Li1763 Li 0.66183 0.3449 0.34567 0.0
C1764 C 0.6817 0.33191 0.44417 0.0
N1765 N 0.69093 0.32119 0.50426 0.0
C1766 C 0.67547 0.3252 0.46695 0.0
C1767 C 0.69263 0.33315 0.45187 0.0
C1768 C 0.68028 0.31985 0.49721 0.0
C1769 C 0.69714 0.32767 0.48242 0.0
C1770 C 0.6433 0.34013 0.38019 0.0
C1771 C 0.62589 0.33351 0.36162 0.0
N1772 N 0.62207 0.34373 0.36161 0.0
C1773 C 0.63919 0.35056 0.38012 0.0
C1774 C 0.6366 0.33152 0.37094 0.0
C1775 C 0.62844 0.35222 0.37058 0.0
C1776 C 0.65643 0.3652 0.45151 0.0
N1777 N 0.66086 0.3553 0.4559 0.0
C1778 C 0.65767 0.356 0.52256 0.0
C1779 C 0.66163 0.3507 0.49062 0.0
C1780 C 0.65279 0.36613 0.51878 0.0
C1781 C 0.65232 0.37076 0.4826 0.0
H1782 H 0.65585 0.3687 0.42364 0.0
H1783 H 0.66513 0.34284 0.49357 0.0
C1784 C 0.67374 0.3081 0.37578 0.0
N1785 N 0.66555 0.31426 0.38893 0.0
C1786 C 0.67342 0.29696 0.37988 0.0
C1787 C 0.65625 0.2987 0.41112 0.0
C1788 C 0.65695 0.30983 0.40669 0.0
C1789 C 0.66455 0.29212 0.39751 0.0
H1790 H 0.68048 0.31187 0.36184 0.0
H1791 H 0.65065 0.31494 0.41751 0.0
C1792 C 0.67593 0.36525 0.38308 0.0
N1793 N 0.6872 0.38229 0.41357 0.0
C1794 C 0.67418 0.37568 0.36988 0.0
C1795 C 0.6834 0.36351 0.41194 0.0
C1796 C 0.67996 0.38418 0.38562 0.0
C1797 C 0.68902 0.37222 0.42693 0.0
C1798 C 0.67026 0.33199 0.29511 0.0
C1799 C 0.67473 0.33863 0.26744 0.0
C1800 C 0.66332 0.3237 0.28464 0.0
C1801 C 0.67203 0.33695 0.22958 0.0
C1802 C 0.66085 0.32227 0.24647 0.0
N1803 N 0.6652 0.32887 0.21997 0.0
C1804 C 0.70106 0.33731 0.35034 0.0
C1805 C 0.69793 0.35543 0.33324 0.0
C1806 C 0.71133 0.33768 0.33461 0.0
N1807 N 0.69458 0.34608 0.3492 0.0
C1808 C 0.7082 0.3562 0.31755 0.0
C1809 C 0.71498 0.34719 0.31755 0.0
H1810 H 0.69809 0.32991 0.36246 0.0
H1811 H 0.69252 0.36218 0.33142 0.0
C1812 C 0.64542 0.34402 0.28744 0.0
N1813 N 0.65354 0.34978 0.30321 0.0
C1814 C 0.63994 0.34797 0.2559 0.0
C1815 C 0.65156 0.36348 0.25646 0.0
C1816 C 0.65671 0.3593 0.2882 0.0
C1817 C 0.64298 0.35785 0.23995 0.0
H1818 H 0.64328 0.33629 0.29894 0.0
H1819 H 0.6634 0.36357 0.30044 0.0
O1820 O 0.67721 0.33712 0.41407 0.0
O1821 O 0.65381 0.33835 0.38941 0.0
O1822 O 0.67021 0.3569 0.36797 0.0
O1823 O 0.67259 0.33368 0.33235 0.0
H1824 H 0.66698 0.32421 0.46149 0.0
H1825 H 0.69757 0.33833 0.4345 0.0
H1826 H 0.67554 0.31465 0.51512 0.0
H1827 H 0.70559 0.32857 0.48876 0.0
H1828 H 0.62063 0.32693 0.35424 0.0
H1829 H 0.64429 0.35732 0.38676 0.0
H1830 H 0.63967 0.3234 0.37043 0.0
H1831 H 0.62517 0.36026 0.37019 0.0
H1832 H 0.65839 0.35216 0.54988 0.0
H1833 H 0.64852 0.37847 0.47805 0.0
H1834 H 0.67993 0.29217 0.36866 0.0
H1835 H 0.64934 0.2953 0.4253 0.0
H1836 H 0.66837 0.3772 0.34779 0.0
H1837 H 0.68489 0.35556 0.42274 0.0
H1838 H 0.67867 0.39229 0.37565 0.0
H1839 H 0.69483 0.37098 0.44922 0.0
H1840 H 0.6801 0.34509 0.2752 0.0
H1841 H 0.6598 0.31852 0.30583 0.0
H1842 H 0.67535 0.34207 0.20784 0.0
H1843 H 0.65543 0.31593 0.23792 0.0
H1844 H 0.71633 0.33057 0.33534 0.0
H1845 H 0.71063 0.36363 0.30415 0.0
H1846 H 0.63337 0.34333 0.24434 0.0
H1847 H 0.65444 0.37096 0.24465 0.0
Li1848 Li 0.90465 0.41501 0.65948 0.0
Li1849 Li 0.92303 0.41671 0.62885 0.0
Li1850 Li 0.90777 0.42988 0.6132 0.0
Li1851 Li 0.90732 0.4116 0.59414 0.0
C1852 C 0.91945 0.43176 0.69366 0.0
N1853 N 0.92842 0.4411 0.75701 0.0
C1854 C 0.9264 0.42586 0.71666 0.0
C1855 C 0.91712 0.44242 0.7027 0.0
C1856 C 0.93084 0.43072 0.74862 0.0
C1857 C 0.92172 0.447 0.7349 0.0
C1858 C 0.91307 0.39324 0.62874 0.0
C1859 C 0.92082 0.37625 0.61093 0.0
N1860 N 0.91085 0.3718 0.61048 0.0
C1861 C 0.90291 0.3885 0.62832 0.0
C1862 C 0.92211 0.38707 0.62013 0.0
C1863 C 0.90195 0.37766 0.61891 0.0
C1864 C 0.88741 0.40572 0.69872 0.0
N1865 N 0.89709 0.41053 0.70421 0.0
C1866 C 0.89588 0.40733 0.77081 0.0
C1867 C 0.90134 0.41147 0.73946 0.0
C1868 C 0.886 0.40208 0.76581 0.0
C1869 C 0.88172 0.40143 0.72916 0.0
H1870 H 0.88418 0.40503 0.67048 0.0
H1871 H 0.90906 0.41521 0.74329 0.0
C1872 C 0.9442 0.42319 0.61629 0.0
N1873 N 0.93817 0.41583 0.63506 0.0
C1874 C 0.95538 0.42297 0.61897 0.0
C1875 C 0.95396 0.40764 0.66049 0.0
C1876 C 0.94279 0.40814 0.65691 0.0
C1877 C 0.96043 0.41512 0.64132 0.0
H1878 H 0.9403 0.42919 0.59898 0.0
H1879 H 0.93778 0.40241 0.67169 0.0
C1880 C 0.88676 0.42534 0.63175 0.0
N1881 N 0.86956 0.43635 0.66227 0.0
C1882 C 0.8764 0.42364 0.61788 0.0
C1883 C 0.88835 0.43262 0.66131 0.0
C1884 C 0.86781 0.42929 0.63364 0.0
C1885 C 0.87956 0.43812 0.67631 0.0
C1886 C 0.91946 0.42066 0.54247 0.0
C1887 C 0.91233 0.42515 0.51646 0.0
C1888 C 0.92778 0.41405 0.52984 0.0
C1889 C 0.91355 0.42282 0.47808 0.0
C1890 C 0.92874 0.41193 0.49122 0.0
N1891 N 0.92165 0.41631 0.46637 0.0
C1892 C 0.914 0.45109 0.59963 0.0
C1893 C 0.89599 0.44754 0.58227 0.0
C1894 C 0.91335 0.46142 0.58449 0.0
N1895 N 0.90542 0.44438 0.59804 0.0
C1896 C 0.89494 0.45785 0.56717 0.0
C1897 C 0.90375 0.46492 0.56753 0.0
H1898 H 0.92148 0.44826 0.61152 0.0
H1899 H 0.88936 0.44198 0.58034 0.0
C1900 C 0.90871 0.3952 0.53623 0.0
N1901 N 0.90263 0.40311 0.55193 0.0
C1902 C 0.90507 0.3897 0.50428 0.0
C1903 C 0.88918 0.40081 0.50447 0.0
C1904 C 0.89304 0.40598 0.53667 0.0
C1905 C 0.89522 0.39256 0.48789 0.0
H1906 H 0.91649 0.39333 0.54788 0.0
H1907 H 0.88848 0.41245 0.54906 0.0
O1908 O 0.91516 0.42723 0.66188 0.0
O1909 O 0.91418 0.40385 0.63785 0.0
O1910 O 0.89521 0.41977 0.6166 0.0
O1911 O 0.91823 0.42261 0.5802 0.0
H1912 H 0.92823 0.41759 0.71017 0.0
H1913 H 0.91181 0.44712 0.68502 0.0
H1914 H 0.93619 0.42624 0.76678 0.0
H1915 H 0.91997 0.45524 0.7423 0.0
H1916 H 0.92774 0.37138 0.60403 0.0
H1917 H 0.89583 0.39318 0.63464 0.0
H1918 H 0.93003 0.39063 0.62017 0.0
H1919 H 0.89412 0.3739 0.61822 0.0
H1920 H 0.89954 0.40792 0.79849 0.0
H1921 H 0.87407 0.39758 0.72399 0.0
H1922 H 0.96001 0.4288 0.60319 0.0
H1923 H 0.95747 0.40154 0.67842 0.0
H1924 H 0.87498 0.41798 0.59524 0.0
H1925 H 0.89625 0.43403 0.67267 0.0
H1926 H 0.85975 0.42804 0.62313 0.0
H1927 H 0.88069 0.44377 0.69914 0.0
H1928 H 0.90583 0.43027 0.52589 0.0
H1929 H 0.93334 0.41049 0.54972 0.0
H1930 H 0.90803 0.42617 0.45763 0.0
H1931 H 0.93509 0.40677 0.48102 0.0
H1932 H 0.92043 0.46644 0.58485 0.0
H1933 H 0.88733 0.46019 0.55488 0.0
H1934 H 0.91004 0.38349 0.49192 0.0
H1935 H 0.88152 0.40323 0.49271 0.0
Li1936 Li 0.83408 0.67277 0.88014 0.0
Li1937 Li 0.83703 0.65497 0.90984 0.0
Li1938 Li 0.83973 0.65788 0.84345 0.0
Li1939 Li 0.82164 0.65836 0.86587 0.0
C1940 C 0.85764 0.66471 0.87089 0.0
N1941 N 0.87763 0.66418 0.83715 0.0
C1942 C 0.86492 0.65658 0.88002 0.0
C1943 C 0.86055 0.67261 0.84479 0.0
C1944 C 0.87498 0.65644 0.8626 0.0
C1945 C 0.87069 0.67219 0.828 0.0
C1946 C 0.82199 0.67251 0.94215 0.0
C1947 C 0.80922 0.68409 0.97307 0.0
N1948 N 0.81734 0.6886 0.99329 0.0
C1949 C 0.8302 0.6772 0.96341 0.0
C1950 C 0.81141 0.67593 0.9471 0.0
C1951 C 0.82769 0.68535 0.98903 0.0
C1952 C 0.82532 0.6935 0.88213 0.0
N1953 N 0.83464 0.68799 0.8864 0.0
C1954 C 0.84431 0.70432 0.89631 0.0
C1955 C 0.84402 0.69312 0.89391 0.0
C1956 C 0.83482 0.7103 0.89162 0.0
C1957 C 0.82519 0.70467 0.8851 0.0
H1958 H 0.81796 0.68919 0.87633 0.0
H1959 H 0.85131 0.68854 0.89751 0.0
C1960 C 0.84817 0.63831 0.94606 0.0
N1961 N 0.84197 0.64707 0.95288 0.0
C1962 C 0.85253 0.63244 0.976 0.0
C1963 C 0.84375 0.6445 0.0196 0.0
C1964 C 0.83955 0.65013 0.98876 0.0
C1965 C 0.85047 0.6356 0.01345 0.0
H1966 H 0.84983 0.63594 0.91724 0.0
H1967 H 0.83446 0.65701 0.99356 0.0
C1968 C 0.82444 0.667 0.79524 0.0
N1969 N 0.81579 0.66403 0.72413 0.0
C1970 C 0.82337 0.65665 0.7804 0.0
C1971 C 0.82109 0.67583 0.77396 0.0
C1972 C 0.81898 0.65532 0.74439 0.0
C1973 C 0.81675 0.67416 0.73804 0.0
C1974 C 0.82694 0.63693 0.88101 0.0
C1975 C 0.82889 0.62691 0.86468 0.0
C1976 C 0.81997 0.63773 0.91186 0.0
C1977 C 0.8238 0.61784 0.87942 0.0
C1978 C 0.81504 0.62847 0.92578 0.0
N1979 N 0.81705 0.6188 0.90941 0.0
C1980 C 0.85248 0.64333 0.80238 0.0
C1981 C 0.84996 0.66006 0.77173 0.0
C1982 C 0.85829 0.63944 0.77155 0.0
N1983 N 0.84837 0.65342 0.80172 0.0
C1984 C 0.85568 0.65648 0.74024 0.0
C1985 C 0.85983 0.646 0.73971 0.0
H1986 H 0.85109 0.63825 0.82667 0.0
H1987 H 0.84668 0.66809 0.7721 0.0
C1988 C 0.80039 0.66437 0.85179 0.0
N1989 N 0.80706 0.65573 0.85148 0.0
C1990 C 0.7901 0.66364 0.83632 0.0
C1991 C 0.79369 0.64513 0.82043 0.0
C1992 C 0.8039 0.6462 0.83632 0.0
C1993 C 0.78668 0.65397 0.81983 0.0
H1994 H 0.80326 0.67197 0.86257 0.0
H1995 H 0.80944 0.63955 0.83499 0.0
O1996 O 0.84766 0.66484 0.88694 0.0
O1997 O 0.82432 0.66466 0.91638 0.0
O1998 O 0.82858 0.66855 0.83064 0.0
O1999 O 0.83194 0.64584 0.8668 0.0
H2000 H 0.86281 0.65042 0.90019 0.0
H2001 H 0.85496 0.67888 0.83701 0.0
H2002 H 0.88067 0.65017 0.86928 0.0
H2003 H 0.87302 0.6782 0.80752 0.0
H2004 H 0.80107 0.68684 0.97716 0.0
H2005 H 0.83845 0.67467 0.95973 0.0
H2006 H 0.80495 0.67231 0.93118 0.0
H2007 H 0.83397 0.6891 0.00546 0.0
H2008 H 0.85196 0.70821 0.90089 0.0
H2009 H 0.81761 0.70882 0.88223 0.0
H2010 H 0.85748 0.62552 0.96984 0.0
H2011 H 0.84198 0.64727 0.04791 0.0
H2012 H 0.82587 0.64971 0.79647 0.0
H2013 H 0.82183 0.68388 0.78515 0.0
H2014 H 0.8181 0.64736 0.73257 0.0
H2015 H 0.81412 0.68092 0.72125 0.0
H2016 H 0.83427 0.62616 0.8408 0.0
H2017 H 0.81834 0.64539 0.92497 0.0
H2018 H 0.82523 0.61003 0.86703 0.0
H2019 H 0.80963 0.62897 0.9496 0.0
H2020 H 0.86126 0.63127 0.7722 0.0
H2021 H 0.85681 0.66185 0.71651 0.0
H2022 H 0.78507 0.67072 0.83581 0.0
H2023 H 0.79138 0.63751 0.80814 0.0
Li2024 Li 0.57846 0.58564 0.12779 0.0
Li2025 Li 0.59616 0.58677 0.15901 0.0
Li2026 Li 0.5937 0.59147 0.09198 0.0
Li2027 Li 0.59257 0.57245 0.11195 0.0
C2028 C 0.58959 0.60896 0.12851 0.0
N2029 N 0.59493 0.62971 0.1083 0.0
C2030 C 0.59817 0.61417 0.14616 0.0
C2031 C 0.5837 0.61433 0.10073 0.0
C2032 C 0.60075 0.62466 0.13553 0.0
C2033 C 0.58654 0.62481 0.09084 0.0
C2034 C 0.58445 0.57102 0.19677 0.0
C2035 C 0.59005 0.55914 0.24681 0.0
N2036 N 0.5825 0.56352 0.26991 0.0
C2037 C 0.57668 0.57532 0.22085 0.0
C2038 C 0.59113 0.56279 0.20968 0.0
C2039 C 0.57585 0.57146 0.25779 0.0
C2040 C 0.55776 0.57775 0.14357 0.0
N2041 N 0.56332 0.58683 0.1352 0.0
C2042 C 0.54707 0.597 0.13252 0.0
C2043 C 0.55825 0.59639 0.13023 0.0
C2044 C 0.54111 0.58772 0.14066 0.0
C2045 C 0.54659 0.57803 0.1467 0.0
H2046 H 0.562 0.57024 0.14709 0.0
H2047 H 0.56286 0.60349 0.12369 0.0
C2048 C 0.61445 0.59224 0.20328 0.0
N2049 N 0.60363 0.59084 0.20431 0.0
C2050 C 0.61989 0.59643 0.23454 0.0
C2051 C 0.60299 0.59757 0.26763 0.0
C2052 C 0.59787 0.59347 0.2356 0.0
C2053 C 0.61416 0.59927 0.26729 0.0
H2054 H 0.61883 0.59054 0.17764 0.0
H2055 H 0.58924 0.59273 0.23532 0.0
C2056 C 0.57332 0.57852 0.06103 0.0
N2057 N 0.55307 0.57445 0.03254 0.0
C2058 C 0.56939 0.56802 0.05975 0.0
C2059 C 0.56697 0.58694 0.04757 0.0
C2060 C 0.55913 0.56613 0.04527 0.0
C2061 C 0.55675 0.58472 0.03337 0.0
C2062 C 0.61432 0.57678 0.1138 0.0
C2063 C 0.62107 0.57771 0.08244 0.0
C2064 C 0.61705 0.56981 0.14319 0.0
C2065 C 0.63044 0.57157 0.08088 0.0
C2066 C 0.6265 0.56381 0.14059 0.0
N2067 N 0.63293 0.5648 0.10974 0.0
C2068 C 0.60891 0.60508 0.05809 0.0
C2069 C 0.59379 0.60138 0.01957 0.0
C2070 C 0.61363 0.61106 0.02916 0.0
N2071 N 0.59921 0.60033 0.05269 0.0
C2072 C 0.59817 0.60737 0.99 0.0
C2073 C 0.60828 0.61217 0.99443 0.0
H2074 H 0.61306 0.60404 0.08469 0.0
H2075 H 0.58619 0.59738 0.01578 0.0
C2076 C 0.5897 0.54978 0.11136 0.0
N2077 N 0.59524 0.55806 0.09577 0.0
C2078 C 0.59048 0.53946 0.09598 0.0
C2079 C 0.60307 0.5463 0.05004 0.0
C2080 C 0.60185 0.5565 0.06573 0.0
C2081 C 0.59714 0.53759 0.06447 0.0
H2082 H 0.58428 0.55128 0.13465 0.0
H2083 H 0.60594 0.56326 0.05313 0.0
O2084 O 0.58711 0.5986 0.13787 0.0
O2085 O 0.58535 0.57466 0.16047 0.0
O2086 O 0.58322 0.58056 0.07618 0.0
O2087 O 0.60505 0.58262 0.11557 0.0
H2088 H 0.60284 0.61016 0.16765 0.0
H2089 H 0.57713 0.61039 0.08637 0.0
H2090 H 0.60739 0.62877 0.14887 0.0
H2091 H 0.5821 0.62902 0.06915 0.0
H2092 H 0.59519 0.5528 0.25723 0.0
H2093 H 0.57142 0.58168 0.21126 0.0
H2094 H 0.59704 0.55922 0.19118 0.0
H2095 H 0.56992 0.57478 0.27683 0.0
H2096 H 0.54313 0.60464 0.12795 0.0
H2097 H 0.54226 0.57068 0.15267 0.0
H2098 H 0.62845 0.59781 0.23241 0.0
H2099 H 0.5982 0.59954 0.29218 0.0
H2100 H 0.57416 0.5614 0.07008 0.0
H2101 H 0.5698 0.59514 0.04885 0.0
H2102 H 0.55598 0.55804 0.04427 0.0
H2103 H 0.55171 0.59118 0.02324 0.0
H2104 H 0.61904 0.58305 0.0594 0.0
H2105 H 0.61196 0.56909 0.16778 0.0
H2106 H 0.63572 0.57217 0.05671 0.0
H2107 H 0.62871 0.55838 0.16312 0.0
H2108 H 0.62142 0.61469 0.03378 0.0
H2109 H 0.59386 0.6079 0.96348 0.0
H2110 H 0.58556 0.53314 0.10783 0.0
H2111 H 0.60848 0.54532 0.02637 0.0
Li2112 Li 0.32122 0.34413 0.36448 0.0
Li2113 Li 0.33404 0.32884 0.37882 0.0
Li2114 Li 0.33624 0.34754 0.40921 0.0
Li2115 Li 0.3393 0.34453 0.34333 0.0
C2116 C 0.3162 0.33348 0.43717 0.0
N2117 N 0.29999 0.32625 0.48404 0.0
C2118 C 0.31136 0.32353 0.43054 0.0
C2119 C 0.31288 0.33968 0.46796 0.0
C2120 C 0.30315 0.32004 0.45446 0.0
C2121 C 0.30465 0.3359 0.49123 0.0
C2122 C 0.3307 0.33188 0.29328 0.0
C2123 C 0.34087 0.32234 0.24603 0.0
N2124 N 0.33641 0.3286 0.21875 0.0
C2125 C 0.32617 0.33818 0.26478 0.0
C2126 C 0.33809 0.32387 0.28389 0.0
C2127 C 0.32918 0.33641 0.22727 0.0
C2128 C 0.30555 0.35499 0.32241 0.0
N2129 N 0.30677 0.34721 0.34901 0.0
C2130 C 0.28816 0.34265 0.34442 0.0
C2131 C 0.2983 0.34115 0.36048 0.0
C2132 C 0.28675 0.35036 0.31587 0.0
C2133 C 0.29558 0.3567 0.30536 0.0
H2134 H 0.31244 0.35962 0.3134 0.0
H2135 H 0.29946 0.33487 0.38098 0.0
C2136 C 0.34137 0.30914 0.41182 0.0
N2137 N 0.33495 0.3137 0.38522 0.0
C2138 C 0.34177 0.29795 0.41557 0.0
C2139 C 0.32896 0.29646 0.36457 0.0
C2140 C 0.32882 0.30762 0.3618 0.0
C2141 C 0.33546 0.29146 0.3918 0.0
H2142 H 0.34615 0.31419 0.43013 0.0
H2143 H 0.32377 0.31146 0.34095 0.0
C2144 C 0.32623 0.36547 0.38042 0.0
N2145 N 0.31625 0.38345 0.40972 0.0
C2146 C 0.32967 0.37573 0.36992 0.0
C2147 C 0.31771 0.36437 0.40578 0.0
C2148 C 0.32452 0.38471 0.38507 0.0
C2149 C 0.31277 0.37355 0.42027 0.0
C2150 C 0.3577 0.33815 0.37786 0.0
C2151 C 0.36304 0.34801 0.37783 0.0
C2152 C 0.36334 0.32876 0.36932 0.0
C2153 C 0.37395 0.34833 0.36877 0.0
C2154 C 0.37424 0.32942 0.36048 0.0
N2155 N 0.37927 0.33911 0.36034 0.0
C2156 C 0.3405 0.35035 0.48806 0.0
C2157 C 0.34613 0.36457 0.44832 0.0
C2158 C 0.34486 0.35552 0.51966 0.0
N2159 N 0.34123 0.35492 0.45327 0.0
C2160 C 0.35062 0.36999 0.47902 0.0
C2161 C 0.35011 0.36544 0.51531 0.0
H2162 H 0.33672 0.34258 0.49115 0.0
H2163 H 0.34674 0.36797 0.42032 0.0
C2164 C 0.34445 0.35884 0.28584 0.0
N2165 N 0.34769 0.34937 0.30106 0.0
C2166 C 0.34969 0.36308 0.25441 0.0
C2167 C 0.3615 0.34771 0.25443 0.0
C2168 C 0.35596 0.34371 0.28577 0.0
C2169 C 0.35839 0.35755 0.23835 0.0
H2170 H 0.33766 0.36302 0.29776 0.0
H2171 H 0.35821 0.33605 0.29751 0.0
O2172 O 0.32438 0.33695 0.41445 0.0
O2173 O 0.32807 0.33367 0.33027 0.0
O2174 O 0.3313 0.35662 0.36604 0.0
O2175 O 0.34704 0.33765 0.38665 0.0
H2176 H 0.31379 0.31863 0.40688 0.0
H2177 H 0.31664 0.34732 0.47392 0.0
H2178 H 0.29928 0.31239 0.44947 0.0
H2179 H 0.30199 0.34064 0.51507 0.0
H2180 H 0.34663 0.31622 0.23836 0.0
H2181 H 0.32048 0.34444 0.27159 0.0
H2182 H 0.34178 0.31902 0.30566 0.0
H2183 H 0.32579 0.34127 0.20493 0.0
H2184 H 0.28162 0.33748 0.35303 0.0
H2185 H 0.29483 0.3628 0.2837 0.0
H2186 H 0.34684 0.29445 0.43714 0.0
H2187 H 0.3241 0.29179 0.34525 0.0
H2188 H 0.33629 0.37673 0.35046 0.0
H2189 H 0.31489 0.35653 0.41397 0.0
H2190 H 0.32712 0.3927 0.37725 0.0
H2191 H 0.30615 0.37279 0.43989 0.0
H2192 H 0.35877 0.35535 0.38427 0.0
H2193 H 0.35931 0.32107 0.36928 0.0
H2194 H 0.37817 0.35592 0.36837 0.0
H2195 H 0.37871 0.32223 0.35364 0.0
H2196 H 0.34439 0.35164 0.54699 0.0
H2197 H 0.35447 0.37767 0.47433 0.0
H2198 H 0.3468 0.37054 0.24245 0.0
H2199 H 0.36817 0.34316 0.24311 0.0
Li2200 Li 0.40744 0.59047 0.09266 0.0
Li2201 Li 0.40431 0.5867 0.15924 0.0
Li2202 Li 0.42269 0.58409 0.12901 0.0
Li2203 Li 0.40795 0.57146 0.11541 0.0
C2204 C 0.41417 0.60807 0.126 0.0
N2205 N 0.41354 0.62917 0.10211 0.0
C2206 C 0.40569 0.61473 0.13679 0.0
C2207 C 0.42242 0.61219 0.10349 0.0
C2208 C 0.40549 0.62536 0.12431 0.0
C2209 C 0.42193 0.62287 0.09158 0.0
C2210 C 0.38569 0.57819 0.12561 0.0
C2211 C 0.37445 0.5654 0.15809 0.0
N2212 N 0.36561 0.57092 0.14673 0.0
C2213 C 0.37647 0.58366 0.11386 0.0
C2214 C 0.38467 0.56894 0.14758 0.0
C2215 C 0.3664 0.57988 0.125 0.0
C2216 C 0.40766 0.59935 0.01836 0.0
N2217 N 0.40264 0.59942 0.05246 0.0
C2218 C 0.38921 0.61139 0.0291 0.0
C2219 C 0.39365 0.60535 0.0584 0.0
C2220 C 0.3941 0.61132 0.99334 0.0
C2221 C 0.40354 0.60533 0.98829 0.0
H2222 H 0.41468 0.59443 0.0141 0.0
H2223 H 0.38981 0.60524 0.0858 0.0
C2224 C 0.40104 0.59075 0.23795 0.0
N2225 N 0.3967 0.59174 0.20285 0.0
C2226 C 0.39581 0.59515 0.26935 0.0
C2227 C 0.3818 0.60154 0.22789 0.0
C2228 C 0.38726 0.59699 0.1974 0.0
C2229 C 0.3861 0.60075 0.26449 0.0
H2230 H 0.40866 0.58673 0.24146 0.0
H2231 H 0.38412 0.59793 0.16917 0.0
C2232 C 0.42622 0.57674 0.05687 0.0
N2233 N 0.44409 0.57234 0.01322 0.0
C2234 C 0.42849 0.56619 0.04599 0.0
C2235 C 0.43298 0.58505 0.04514 0.0
C2236 C 0.43757 0.56413 0.02401 0.0
C2237 C 0.44199 0.58266 0.02322 0.0
C2238 C 0.41577 0.56639 0.19031 0.0
C2239 C 0.42544 0.56075 0.19313 0.0
C2240 C 0.40725 0.56374 0.21428 0.0
C2241 C 0.42631 0.55235 0.21909 0.0
C2242 C 0.40845 0.5553 0.23992 0.0
N2243 N 0.41787 0.54981 0.24173 0.0
C2244 C 0.44254 0.59386 0.14978 0.0
C2245 C 0.44394 0.57622 0.12519 0.0
C2246 C 0.45372 0.59462 0.15246 0.0
N2247 N 0.43791 0.58481 0.1358 0.0
C2248 C 0.45511 0.5767 0.12679 0.0
C2249 C 0.46014 0.58602 0.14025 0.0
H2250 H 0.43757 0.60054 0.15837 0.0
H2251 H 0.44007 0.56904 0.11489 0.0
C2252 C 0.39695 0.55525 0.07543 0.0
N2253 N 0.40503 0.55696 0.10058 0.0
C2254 C 0.39545 0.54509 0.05946 0.0
C2255 C 0.4105 0.53861 0.09591 0.0
C2256 C 0.41169 0.54887 0.11126 0.0
C2257 C 0.40241 0.53665 0.06909 0.0
H2258 H 0.39193 0.56187 0.06668 0.0
H2259 H 0.41826 0.55047 0.13026 0.0
O2260 O 0.41439 0.59757 0.13731 0.0
O2261 O 0.39562 0.58182 0.11507 0.0
O2262 O 0.41744 0.57888 0.07888 0.0
O2263 O 0.41483 0.57472 0.16529 0.0
H2264 H 0.39926 0.6117 0.15429 0.0
H2265 H 0.42913 0.60721 0.09535 0.0
H2266 H 0.39892 0.63058 0.13222 0.0
H2267 H 0.42824 0.62614 0.07401 0.0
H2268 H 0.37357 0.55826 0.17515 0.0
H2269 H 0.37709 0.59077 0.09648 0.0
H2270 H 0.39167 0.56444 0.15602 0.0
H2271 H 0.35921 0.58408 0.11632 0.0
H2272 H 0.38197 0.61597 0.03424 0.0
H2273 H 0.40746 0.60494 0.96102 0.0
H2274 H 0.3995 0.59447 0.29695 0.0
H2275 H 0.37431 0.6057 0.22279 0.0
H2276 H 0.42332 0.55966 0.05443 0.0
H2277 H 0.43133 0.59325 0.05309 0.0
H2278 H 0.43945 0.556 0.01553 0.0
H2279 H 0.44732 0.58902 0.0142 0.0
H2280 H 0.43217 0.56277 0.17525 0.0
H2281 H 0.39983 0.56821 0.21345 0.0
H2282 H 0.43372 0.54786 0.22129 0.0
H2283 H 0.4019 0.55315 0.2585 0.0
H2284 H 0.45732 0.60195 0.16299 0.0
H2285 H 0.45978 0.56984 0.11765 0.0
H2286 H 0.38921 0.544 0.03851 0.0
H2287 H 0.41601 0.53233 0.10436 0.0
Li2288 Li 0.16143 0.65756 0.84089 0.0
Li2289 Li 0.16466 0.65421 0.90667 0.0
Li2290 Li 0.16705 0.67302 0.87769 0.0
Li2291 Li 0.17967 0.65768 0.86252 0.0
C2292 C 0.14322 0.66431 0.87591 0.0
N2293 N 0.12163 0.66432 0.85825 0.0
C2294 C 0.13746 0.65469 0.87551 0.0
C2295 C 0.13799 0.67395 0.86757 0.0
C2296 C 0.12656 0.65486 0.86641 0.0
C2297 C 0.12707 0.67378 0.85868 0.0
C2298 C 0.17291 0.63562 0.87494 0.0
C2299 C 0.18533 0.62464 0.91009 0.0
N2300 N 0.17964 0.61575 0.90027 0.0
C2301 C 0.16721 0.62637 0.86503 0.0
C2302 C 0.18206 0.63475 0.89755 0.0
C2303 C 0.17073 0.61641 0.87819 0.0
C2304 C 0.15651 0.64385 0.78161 0.0
N2305 N 0.1531 0.6531 0.79807 0.0
C2306 C 0.13934 0.65508 0.75142 0.0
C2307 C 0.14478 0.65881 0.78338 0.0
C2308 C 0.1427 0.64553 0.734 0.0
C2309 C 0.15142 0.63991 0.74943 0.0
H2310 H 0.16332 0.63962 0.79316 0.0
H2311 H 0.14246 0.66635 0.79591 0.0
C2312 C 0.16135 0.65087 0.98558 0.0
N2313 N 0.15972 0.64673 0.9505 0.0
C2314 C 0.1571 0.64573 0.01741 0.0
C2315 C 0.14966 0.63213 0.97642 0.0
C2316 C 0.154 0.63755 0.94548 0.0
C2317 C 0.15107 0.63626 0.01306 0.0
H2318 H 0.16578 0.65828 0.98876 0.0
H2319 H 0.15262 0.63452 0.91732 0.0
C2320 C 0.17076 0.67006 0.79164 0.0
N2321 N 0.16603 0.67319 0.71623 0.0
C2322 C 0.1755 0.66356 0.76414 0.0
C2323 C 0.16368 0.6782 0.78086 0.0
C2324 C 0.17299 0.66526 0.72614 0.0
C2325 C 0.16138 0.67964 0.74256 0.0
C2326 C 0.18554 0.66649 0.93447 0.0
C2327 C 0.19084 0.67636 0.93248 0.0
C2328 C 0.18919 0.65864 0.95958 0.0
C2329 C 0.19991 0.67809 0.95484 0.0
C2330 C 0.19829 0.66068 0.9815 0.0
N2331 N 0.20343 0.67028 0.97865 0.0
C2332 C 0.15955 0.69281 0.90931 0.0
C2333 C 0.17338 0.69403 0.86348 0.0
C2334 C 0.15933 0.70399 0.91303 0.0
N2335 N 0.16649 0.68811 0.88469 0.0
C2336 C 0.17347 0.70519 0.86643 0.0
C2337 C 0.16638 0.71033 0.89141 0.0
H2338 H 0.15419 0.68788 0.92593 0.0
H2339 H 0.1788 0.69005 0.84414 0.0
C2340 C 0.1965 0.64595 0.827 0.0
N2341 N 0.19412 0.65502 0.84673 0.0
C2342 C 0.20661 0.64466 0.81048 0.0
C2343 C 0.21166 0.66205 0.83488 0.0
C2344 C 0.20145 0.66301 0.8508 0.0
C2345 C 0.21431 0.65285 0.81382 0.0
H2346 H 0.1904 0.63991 0.82268 0.0
H2347 H 0.19925 0.67034 0.86503 0.0
O2348 O 0.15388 0.66434 0.8849 0.0
O2349 O 0.16946 0.64545 0.8627 0.0
O2350 O 0.17286 0.66832 0.82902 0.0
O2351 O 0.17659 0.66469 0.91295 0.0
H2352 H 0.14141 0.64716 0.88172 0.0
H2353 H 0.14234 0.68147 0.86766 0.0
H2354 H 0.12201 0.64746 0.86577 0.0
H2355 H 0.12293 0.68117 0.85201 0.0
H2356 H 0.1924 0.62386 0.92758 0.0
H2357 H 0.16008 0.62691 0.8477 0.0
H2358 H 0.18664 0.64179 0.90499 0.0
H2359 H 0.16636 0.60919 0.8709 0.0
H2360 H 0.13276 0.65972 0.73993 0.0
H2361 H 0.15424 0.6325 0.73687 0.0
H2362 H 0.15828 0.64931 0.04498 0.0
H2363 H 0.14521 0.6248 0.97159 0.0
H2364 H 0.18096 0.6572 0.77212 0.0
H2365 H 0.15988 0.68323 0.8019 0.0
H2366 H 0.17653 0.66024 0.70453 0.0
H2367 H 0.15586 0.68586 0.73379 0.0
H2368 H 0.18804 0.68258 0.91357 0.0
H2369 H 0.185 0.65108 0.96238 0.0
H2370 H 0.20415 0.68566 0.9533 0.0
H2371 H 0.20123 0.65466 1.0009 0.0
H2372 H 0.1538 0.70763 0.93285 0.0
H2373 H 0.17893 0.70975 0.84885 0.0
H2374 H 0.2082 0.63754 0.79388 0.0
H2375 H 0.21734 0.66855 0.83843 0.0
Li2376 Li 0.094 0.41134 0.5934 0.0
Li2377 Li 0.09753 0.41527 0.66038 0.0
Li2378 Li 0.07905 0.41698 0.63183 0.0
Li2379 Li 0.09279 0.43033 0.61699 0.0
C2380 C 0.08966 0.3934 0.62925 0.0
N2381 N 0.09338 0.37233 0.60869 0.0
C2382 C 0.09821 0.38773 0.64516 0.0
C2383 C 0.08294 0.38833 0.60313 0.0
C2384 C 0.09997 0.37708 0.63436 0.0
C2385 C 0.08498 0.37769 0.59301 0.0
C2386 C 0.11574 0.42425 0.61854 0.0
C2387 C 0.12837 0.4376 0.64016 0.0
N2388 N 0.13654 0.43178 0.625 0.0
C2389 C 0.12426 0.41848 0.60277 0.0
C2390 C 0.1178 0.43395 0.63705 0.0
C2391 C 0.13472 0.42239 0.6065 0.0
C2392 C 0.09373 0.40363 0.51797 0.0
N2393 N 0.09872 0.40276 0.55197 0.0
C2394 C 0.11145 0.39041 0.52628 0.0
C2395 C 0.10737 0.39626 0.5567 0.0
C2396 C 0.10657 0.39123 0.49057 0.0
C2397 C 0.09749 0.39786 0.48683 0.0
H2398 H 0.08694 0.40893 0.51481 0.0
H2399 H 0.11122 0.39576 0.584 0.0
C2400 C 0.09955 0.40744 0.73461 0.0
N2401 N 0.10539 0.41052 0.70404 0.0
C2402 C 0.10461 0.40305 0.76632 0.0
C2403 C 0.12167 0.40527 0.73488 0.0
C2404 C 0.11626 0.40954 0.70371 0.0
C2405 C 0.11584 0.40182 0.7667 0.0
H2406 H 0.0909 0.40817 0.73396 0.0
H2407 H 0.12078 0.41187 0.67907 0.0
C2408 C 0.07362 0.42436 0.56442 0.0
N2409 N 0.05374 0.42804 0.53235 0.0
C2410 C 0.06978 0.43484 0.56056 0.0
C2411 C 0.0674 0.41576 0.5516 0.0
C2412 C 0.0597 0.43653 0.54433 0.0
C2413 C 0.05736 0.41778 0.5356 0.0
C2414 C 0.08754 0.4347 0.69443 0.0
C2415 C 0.07858 0.44065 0.70567 0.0
C2416 C 0.09745 0.43659 0.71173 0.0
C2417 C 0.07975 0.44859 0.73325 0.0
C2418 C 0.09829 0.44458 0.73923 0.0
N2419 N 0.0895 0.45039 0.74928 0.0
C2420 C 0.0591 0.40589 0.6426 0.0
C2421 C 0.0581 0.42487 0.64118 0.0
C2422 C 0.04793 0.40515 0.64572 0.0
N2423 N 0.06392 0.41565 0.64008 0.0
C2424 C 0.04694 0.42451 0.64439 0.0
C2425 C 0.04169 0.41455 0.64645 0.0
H2426 H 0.06391 0.39868 0.64169 0.0
H2427 H 0.06211 0.43252 0.63846 0.0
C2428 C 0.10169 0.44643 0.57168 0.0
N2429 N 0.09507 0.44488 0.60171 0.0
C2430 C 0.10274 0.45661 0.55549 0.0
C2431 C 0.09024 0.46346 0.60176 0.0
C2432 C 0.08945 0.45314 0.61709 0.0
C2433 C 0.09683 0.46527 0.57011 0.0
H2434 H 0.10589 0.43967 0.55948 0.0
H2435 H 0.08402 0.45168 0.64026 0.0
O2436 O 0.08792 0.40388 0.639 0.0
O2437 O 0.10545 0.42052 0.61506 0.0
O2438 O 0.08338 0.42252 0.58099 0.0
O2439 O 0.0865 0.42683 0.66766 0.0
H2440 H 0.1035 0.39151 0.66537 0.0
H2441 H 0.07629 0.3926 0.59052 0.0
H2442 H 0.10659 0.37261 0.6463 0.0
H2443 H 0.07988 0.37369 0.57265 0.0
H2444 H 0.13006 0.44508 0.65447 0.0
H2445 H 0.12285 0.41104 0.58793 0.0
H2446 H 0.11133 0.4387 0.64846 0.0
H2447 H 0.14138 0.41797 0.59464 0.0
H2448 H 0.11856 0.38556 0.53053 0.0
H2449 H 0.09335 0.39864 0.46007 0.0
H2450 H 0.09974 0.40038 0.78981 0.0
H2451 H 0.13033 0.40464 0.73392 0.0
H2452 H 0.07448 0.44159 0.57022 0.0
H2453 H 0.07024 0.4076 0.55439 0.0
H2454 H 0.0566 0.4446 0.54134 0.0
H2455 H 0.05242 0.4112 0.52587 0.0
H2456 H 0.07081 0.43921 0.69315 0.0
H2457 H 0.10441 0.43188 0.70433 0.0
H2458 H 0.07289 0.45331 0.74195 0.0
H2459 H 0.10593 0.44615 0.75269 0.0
H2460 H 0.04422 0.3973 0.64758 0.0
H2461 H 0.04246 0.43196 0.64418 0.0
H2462 H 0.10778 0.45756 0.5308 0.0
H2463 H 0.08559 0.4699 0.61415 0.0
Li2464 Li 0.32124 0.65778 0.63774 0.0
Li2465 Li 0.33345 0.67223 0.62319 0.0
Li2466 Li 0.33579 0.65472 0.59355 0.0
Li2467 Li 0.33967 0.657 0.65968 0.0
C2468 C 0.31516 0.67151 0.57861 0.0
N2469 N 0.29844 0.68513 0.56048 0.0
C2470 C 0.30948 0.67678 0.60715 0.0
C2471 C 0.31233 0.67315 0.54085 0.0
C2472 C 0.30105 0.68364 0.59742 0.0
C2473 C 0.30385 0.68007 0.53225 0.0
C2474 C 0.33233 0.67399 0.70178 0.0
C2475 C 0.34641 0.68496 0.72818 0.0
N2476 N 0.34006 0.68714 0.75847 0.0
C2477 C 0.32594 0.67634 0.73316 0.0
C2478 C 0.34266 0.67834 0.69923 0.0
C2479 C 0.32999 0.68301 0.76152 0.0
C2480 C 0.30573 0.65365 0.69165 0.0
N2481 N 0.30701 0.65438 0.65363 0.0
C2482 C 0.2882 0.65167 0.64407 0.0
C2483 C 0.29855 0.65326 0.62968 0.0
C2484 C 0.28659 0.6512 0.68341 0.0
C2485 C 0.29557 0.65208 0.70721 0.0
H2486 H 0.31263 0.65454 0.70996 0.0
H2487 H 0.29979 0.65382 0.59949 0.0
C2488 C 0.34103 0.69188 0.59103 0.0
N2489 N 0.33433 0.6875 0.61716 0.0
C2490 C 0.34184 0.70305 0.58746 0.0
C2491 C 0.32882 0.70494 0.63763 0.0
C2492 C 0.32819 0.6938 0.63993 0.0
C2493 C 0.33576 0.70972 0.61132 0.0
H2494 H 0.34581 0.6867 0.57318 0.0
H2495 H 0.3228 0.69018 0.66017 0.0
C2496 C 0.32569 0.63657 0.62355 0.0
N2497 N 0.31459 0.61876 0.59832 0.0
C2498 C 0.3266 0.6268 0.64268 0.0
C2499 C 0.31913 0.63729 0.5916 0.0
C2500 C 0.32093 0.61788 0.62947 0.0
C2501 C 0.31359 0.62819 0.5793 0.0
C2502 C 0.35694 0.65978 0.60955 0.0
C2503 C 0.35899 0.64901 0.61792 0.0
C2504 C 0.36502 0.6661 0.59363 0.0
C2505 C 0.36911 0.64474 0.61017 0.0
C2506 C 0.37505 0.66153 0.58632 0.0
N2507 N 0.37687 0.65103 0.59466 0.0
C2508 C 0.34108 0.65259 0.51549 0.0
C2509 C 0.34437 0.6371 0.55251 0.0
C2510 C 0.34551 0.64759 0.48364 0.0
N2511 N 0.34067 0.64732 0.54911 0.0
C2512 C 0.34888 0.63183 0.52154 0.0
C2513 C 0.34961 0.6371 0.48656 0.0
H2514 H 0.33819 0.66076 0.51364 0.0
H2515 H 0.34407 0.63308 0.57955 0.0
C2516 C 0.34268 0.64546 0.72518 0.0
N2517 N 0.34792 0.65229 0.70169 0.0
C2518 C 0.34782 0.64134 0.757 0.0
C2519 C 0.36367 0.65144 0.74012 0.0
C2520 C 0.35817 0.65545 0.70869 0.0
C2521 C 0.3585 0.64422 0.76469 0.0
H2522 H 0.33447 0.64323 0.71911 0.0
H2523 H 0.36211 0.66103 0.68982 0.0
O2524 O 0.32347 0.66476 0.58727 0.0
O2525 O 0.32845 0.66746 0.67386 0.0
O2526 O 0.33119 0.64534 0.63636 0.0
O2527 O 0.34706 0.66415 0.6164 0.0
H2528 H 0.31152 0.67558 0.63653 0.0
H2529 H 0.31665 0.66912 0.51843 0.0
H2530 H 0.29659 0.68776 0.61924 0.0
H2531 H 0.30158 0.68142 0.50314 0.0
H2532 H 0.35438 0.68838 0.72656 0.0
H2533 H 0.31793 0.67307 0.73553 0.0
H2534 H 0.34772 0.67665 0.67516 0.0
H2535 H 0.32513 0.6849 0.78595 0.0
H2536 H 0.28154 0.65089 0.62462 0.0
H2537 H 0.29475 0.65193 0.73766 0.0
H2538 H 0.34731 0.70643 0.56688 0.0
H2539 H 0.32387 0.70979 0.65613 0.0
H2540 H 0.33164 0.62612 0.66748 0.0
H2541 H 0.31833 0.64476 0.57638 0.0
H2542 H 0.32156 0.61027 0.64398 0.0
H2543 H 0.30849 0.62863 0.55461 0.0
H2544 H 0.35284 0.644 0.63026 0.0
H2545 H 0.36355 0.67445 0.58693 0.0
H2546 H 0.3708 0.63641 0.61648 0.0
H2547 H 0.38138 0.66632 0.57398 0.0
H2548 H 0.346 0.65201 0.45736 0.0
H2549 H 0.3518 0.6237 0.52504 0.0
H2550 H 0.3434 0.63602 0.77554 0.0
H2551 H 0.37192 0.65385 0.74472 0.0
Li2552 Li 0.09303 0.57201 0.38694 0.0
Li2553 Li 0.07833 0.58432 0.37317 0.0
Li2554 Li 0.09692 0.58655 0.3422 0.0
Li2555 Li 0.09407 0.59001 0.40872 0.0
C2556 C 0.08426 0.5649 0.32106 0.0
N2557 N 0.0805 0.54495 0.28963 0.0
C2558 C 0.07547 0.5588 0.33279 0.0
C2559 C 0.09102 0.56095 0.29278 0.0
C2560 C 0.07374 0.5487 0.31677 0.0
C2561 C 0.08901 0.55083 0.27736 0.0
C2562 C 0.08438 0.57639 0.45967 0.0
C2563 C 0.07693 0.57359 0.52175 0.0
N2564 N 0.08682 0.57081 0.5347 0.0
C2565 C 0.09448 0.57353 0.47358 0.0
C2566 C 0.07553 0.57644 0.4839 0.0
C2567 C 0.09555 0.57072 0.5116 0.0
C2568 C 0.10441 0.55181 0.40183 0.0
N2569 N 0.09489 0.55717 0.4018 0.0
C2570 C 0.0862 0.54224 0.43152 0.0
C2571 C 0.08586 0.55253 0.41601 0.0
C2572 C 0.09596 0.53662 0.43278 0.0
C2573 C 0.10513 0.54149 0.4173 0.0
H2574 H 0.11154 0.55553 0.39076 0.0
H2575 H 0.07841 0.55697 0.41631 0.0
C2576 C 0.05858 0.59262 0.34423 0.0
N2577 N 0.06324 0.58531 0.36755 0.0
C2578 C 0.0474 0.59307 0.34096 0.0
C2579 C 0.0461 0.57845 0.38567 0.0
C2580 C 0.05726 0.57834 0.38823 0.0
C2581 C 0.04101 0.58587 0.36174 0.0
H2582 H 0.06356 0.59809 0.32819 0.0
H2583 H 0.0612 0.57265 0.4067 0.0
C2584 C 0.1152 0.5766 0.37823 0.0
N2585 N 0.13447 0.56646 0.3635 0.0
C2586 C 0.12314 0.57611 0.40606 0.0
C2587 C 0.11706 0.57194 0.34292 0.0
C2588 C 0.13283 0.57094 0.39807 0.0
C2589 C 0.12686 0.56685 0.33601 0.0
C2590 C 0.0869 0.60763 0.37972 0.0
C2591 C 0.09571 0.61444 0.37495 0.0
C2592 C 0.07805 0.61108 0.40068 0.0
C2593 C 0.09554 0.62461 0.39158 0.0
C2594 C 0.07818 0.62132 0.41681 0.0
N2595 N 0.08686 0.6278 0.412 0.0
C2596 C 0.09992 0.59088 0.26378 0.0
C2597 C 0.11397 0.59659 0.30413 0.0
C2598 C 0.10518 0.59524 0.23241 0.0
N2599 N 0.10436 0.59167 0.29872 0.0
C2600 C 0.11954 0.601 0.2736 0.0
C2601 C 0.11512 0.60046 0.23708 0.0
H2602 H 0.0922 0.58702 0.2604 0.0
H2603 H 0.11728 0.59718 0.33232 0.0
C2604 C 0.09244 0.60207 0.4775 0.0
N2605 N 0.09899 0.59889 0.44888 0.0
C2606 C 0.09658 0.60797 0.50776 0.0
C2607 C 0.11404 0.60738 0.47796 0.0
C2608 C 0.10956 0.60156 0.44829 0.0
C2609 C 0.10756 0.61053 0.50849 0.0
H2610 H 0.08405 0.59986 0.47714 0.0
H2611 H 0.11454 0.59903 0.42489 0.0
O2612 O 0.08607 0.57482 0.33646 0.0
O2613 O 0.08314 0.57935 0.4227 0.0
O2614 O 0.10575 0.58178 0.38551 0.0
O2615 O 0.08705 0.59753 0.36473 0.0
H2616 H 0.07007 0.56179 0.35423 0.0
H2617 H 0.09767 0.56569 0.28246 0.0
H2618 H 0.06702 0.54385 0.32587 0.0
H2619 H 0.0942 0.54766 0.25552 0.0
H2620 H 0.07015 0.57361 0.54086 0.0
H2621 H 0.10144 0.57352 0.45529 0.0
H2622 H 0.06768 0.57872 0.4736 0.0
H2623 H 0.10331 0.56849 0.52276 0.0
H2624 H 0.07896 0.53888 0.44359 0.0
H2625 H 0.1128 0.53741 0.41735 0.0
H2626 H 0.0438 0.59887 0.32202 0.0
H2627 H 0.04149 0.57288 0.40265 0.0
H2628 H 0.12183 0.57968 0.43357 0.0
H2629 H 0.11102 0.57222 0.32117 0.0
H2630 H 0.13905 0.5705 0.41934 0.0
H2631 H 0.12839 0.56321 0.3088 0.0
H2632 H 0.10264 0.61185 0.35896 0.0
H2633 H 0.0712 0.60586 0.40483 0.0
H2634 H 0.10232 0.62995 0.38835 0.0
H2635 H 0.07142 0.62408 0.4333 0.0
H2636 H 0.10137 0.59475 0.20498 0.0
H2637 H 0.12723 0.60478 0.27862 0.0
H2638 H 0.09134 0.61021 0.53085 0.0
H2639 H 0.1225 0.60935 0.47713 0.0
Li2640 Li 0.1803 0.34314 0.13739 0.0
Li2641 Li 0.1677 0.32821 0.12373 0.0
Li2642 Li 0.16558 0.34659 0.09448 0.0
Li2643 Li 0.16169 0.34378 0.16085 0.0
C2644 C 0.18747 0.33428 0.07429 0.0
N2645 N 0.20822 0.33094 0.04943 0.0
C2646 C 0.1921 0.32409 0.0769 0.0
C2647 C 0.19334 0.34274 0.0587 0.0
C2648 C 0.20261 0.32257 0.06424 0.0
C2649 C 0.20383 0.3409 0.0464 0.0
C2650 C 0.17301 0.33275 0.21165 0.0
C2651 C 0.16531 0.32625 0.26989 0.0
N2652 N 0.1722 0.33256 0.28973 0.0
C2653 C 0.18004 0.33914 0.23267 0.0
C2654 C 0.16561 0.32621 0.23043 0.0
C2655 C 0.1795 0.33893 0.2721 0.0
C2656 C 0.19853 0.35587 0.15796 0.0
N2657 N 0.19491 0.34576 0.15102 0.0
C2658 C 0.21157 0.33828 0.17177 0.0
C2659 C 0.20119 0.33704 0.15761 0.0
C2660 C 0.21546 0.34859 0.18 0.0
C2661 C 0.20884 0.35748 0.1726 0.0
H2662 H 0.19329 0.36266 0.15334 0.0
H2663 H 0.19798 0.32908 0.15308 0.0
C2664 C 0.16323 0.30863 0.08453 0.0
N2665 N 0.16684 0.31306 0.11725 0.0
C2666 C 0.16298 0.29746 0.08027 0.0
C2667 C 0.17 0.2957 0.14362 0.0
C2668 C 0.17021 0.30685 0.14649 0.0
C2669 C 0.16644 0.29081 0.11006 0.0
H2670 H 0.16066 0.31378 0.06164 0.0
H2671 H 0.17311 0.31058 0.17209 0.0
C2672 C 0.16876 0.36562 0.12584 0.0
N2673 N 0.16516 0.38611 0.09887 0.0
C2674 C 0.15979 0.37141 0.13787 0.0
C2675 C 0.17596 0.37027 0.10038 0.0
C2676 C 0.1581 0.38176 0.12384 0.0
C2677 C 0.17398 0.38063 0.08697 0.0
C2678 C 0.14465 0.3324 0.12176 0.0
C2679 C 0.13567 0.3366 0.10328 0.0
C2680 C 0.14352 0.32334 0.14468 0.0
C2681 C 0.12568 0.33173 0.1084 0.0
C2682 C 0.13339 0.31869 0.14906 0.0
N2683 N 0.12475 0.32295 0.131 0.0
C2684 C 0.16535 0.35355 0.0168 0.0
C2685 C 0.15128 0.35998 0.05567 0.0
C2686 C 0.16101 0.35887 0.98544 0.0
N2687 N 0.16042 0.35417 0.051 0.0
C2688 C 0.14674 0.36549 0.02532 0.0
C2689 C 0.15152 0.36491 0.98937 0.0
H2690 H 0.17254 0.34878 0.01371 0.0
H2691 H 0.14747 0.36027 0.08308 0.0
C2692 C 0.15847 0.35533 0.22712 0.0
N2693 N 0.15326 0.34867 0.20285 0.0
C2694 C 0.15326 0.35936 0.259 0.0
C2695 C 0.13724 0.3499 0.23985 0.0
C2696 C 0.14281 0.34595 0.20853 0.0
C2697 C 0.14249 0.35666 0.26563 0.0
H2698 H 0.16671 0.35756 0.22156 0.0
H2699 H 0.13871 0.34078 0.1889 0.0
O2700 O 0.17726 0.33596 0.08707 0.0
O2701 O 0.17327 0.33299 0.17296 0.0
O2702 O 0.17047 0.35542 0.13881 0.0
O2703 O 0.1545 0.33703 0.11673 0.0
H2704 H 0.18766 0.31744 0.08888 0.0
H2705 H 0.18985 0.35066 0.05632 0.0
H2706 H 0.20632 0.31474 0.06628 0.0
H2707 H 0.20849 0.34739 0.03447 0.0
H2708 H 0.15958 0.32126 0.28473 0.0
H2709 H 0.18576 0.34433 0.21882 0.0
H2710 H 0.16011 0.3212 0.21479 0.0
H2711 H 0.18486 0.34389 0.28867 0.0
H2712 H 0.21632 0.3312 0.1777 0.0
H2713 H 0.21154 0.36556 0.17851 0.0
H2714 H 0.16029 0.29409 0.05371 0.0
H2715 H 0.17256 0.29096 0.16763 0.0
H2716 H 0.15411 0.36791 0.15746 0.0
H2717 H 0.18296 0.36591 0.09089 0.0
H2718 H 0.15115 0.38631 0.13272 0.0
H2719 H 0.17945 0.38431 0.06709 0.0
H2720 H 0.1364 0.34355 0.08515 0.0
H2721 H 0.15035 0.31997 0.15913 0.0
H2722 H 0.11866 0.33492 0.09436 0.0
H2723 H 0.1324 0.3117 0.16683 0.0
H2724 H 0.16492 0.35805 0.95828 0.0
H2725 H 0.13955 0.37018 0.0301 0.0
H2726 H 0.15755 0.3647 0.27785 0.0
H2727 H 0.12894 0.34761 0.24404 0.0
Li2728 Li 0.40785 0.43029 0.89032 0.0
Li2729 Li 0.4224 0.41797 0.87513 0.0
Li2730 Li 0.40469 0.4154 0.84379 0.0
Li2731 Li 0.40736 0.41124 0.90986 0.0
C2732 C 0.42196 0.43522 0.82591 0.0
N2733 N 0.43685 0.44957 0.79768 0.0
C2734 C 0.42661 0.44288 0.84962 0.0
C2735 C 0.42489 0.43485 0.78782 0.0
C2736 C 0.43412 0.45007 0.83484 0.0
C2737 C 0.43243 0.44217 0.77408 0.0
C2738 C 0.42614 0.42404 0.94823 0.0
C2739 C 0.44191 0.41702 0.97914 0.0
N2740 N 0.44419 0.42701 0.99245 0.0
C2741 C 0.42865 0.43424 0.96218 0.0
C2742 C 0.43282 0.41537 0.95677 0.0
C2743 C 0.4378 0.43557 0.98451 0.0
C2744 C 0.40198 0.44546 0.94406 0.0
N2745 N 0.40395 0.44439 0.9065 0.0
C2746 C 0.40199 0.46331 0.8974 0.0
C2747 C 0.40367 0.453 0.88288 0.0
C2748 C 0.40046 0.46473 0.93649 0.0
C2749 C 0.40024 0.45559 0.95975 0.0
H2750 H 0.40218 0.43846 0.9621 0.0
H2751 H 0.40507 0.4519 0.85297 0.0
C2752 C 0.442 0.4086 0.84952 0.0
N2753 N 0.43773 0.41721 0.8678 0.0
C2754 C 0.45314 0.40755 0.84583 0.0
C2755 C 0.45528 0.42432 0.87922 0.0
C2756 C 0.44414 0.42512 0.88174 0.0
C2757 C 0.45991 0.41539 0.86147 0.0
H2758 H 0.43675 0.40247 0.83829 0.0
H2759 H 0.44067 0.43198 0.89566 0.0
C2760 C 0.38675 0.42551 0.87532 0.0
N2761 N 0.36898 0.43698 0.85185 0.0
C2762 C 0.37718 0.42497 0.89582 0.0
C2763 C 0.3873 0.43193 0.84297 0.0
C2764 C 0.36828 0.43081 0.88346 0.0
C2765 C 0.37822 0.43765 0.83155 0.0
C2766 C 0.4137 0.39402 0.87681 0.0
C2767 C 0.40418 0.38834 0.87083 0.0
C2768 C 0.42225 0.38907 0.89546 0.0
C2769 C 0.40333 0.37781 0.88404 0.0
C2770 C 0.42109 0.37852 0.90821 0.0
N2771 N 0.41173 0.37316 0.90232 0.0
C2772 C 0.40206 0.41049 0.76534 0.0
C2773 C 0.38712 0.4065 0.80421 0.0
C2774 C 0.39683 0.40617 0.73382 0.0
N2775 N 0.39716 0.41056 0.79966 0.0
C2776 C 0.38161 0.40208 0.77355 0.0
C2777 C 0.38649 0.40177 0.73776 0.0
H2778 H 0.41014 0.41354 0.76263 0.0
H2779 H 0.38345 0.40646 0.8319 0.0
C2780 C 0.40845 0.39848 0.97757 0.0
N2781 N 0.40211 0.40204 0.94894 0.0
C2782 C 0.40405 0.39251 0.00718 0.0
C2783 C 0.38671 0.39379 0.97688 0.0
C2784 C 0.39147 0.39966 0.94776 0.0
C2785 C 0.393 0.39029 0.00743 0.0
H2786 H 0.41686 0.40045 0.97799 0.0
H2787 H 0.38663 0.40248 0.92443 0.0
O2788 O 0.4146 0.42809 0.83986 0.0
O2789 O 0.41724 0.42261 0.92607 0.0
O2790 O 0.39555 0.4199 0.88736 0.0
O2791 O 0.41455 0.40445 0.8651 0.0
H2792 H 0.42457 0.44319 0.8793 0.0
H2793 H 0.42138 0.42898 0.76903 0.0
H2794 H 0.43781 0.45601 0.85295 0.0
H2795 H 0.43477 0.44198 0.74465 0.0
H2796 H 0.44719 0.41039 0.9857 0.0
H2797 H 0.42368 0.44108 0.95554 0.0
H2798 H 0.43118 0.40749 0.94545 0.0
H2799 H 0.43985 0.44342 0.99539 0.0
H2800 H 0.40204 0.4701 0.87834 0.0
H2801 H 0.39918 0.45628 0.99002 0.0
H2802 H 0.45643 0.40055 0.83189 0.0
H2803 H 0.46022 0.43062 0.89113 0.0
H2804 H 0.37664 0.4201 0.92109 0.0
H2805 H 0.39463 0.43251 0.82678 0.0
H2806 H 0.36082 0.43045 0.89904 0.0
H2807 H 0.37853 0.44264 0.80655 0.0
H2808 H 0.39746 0.39207 0.85664 0.0
H2809 H 0.42969 0.39333 0.90016 0.0
H2810 H 0.39598 0.37334 0.87986 0.0
H2811 H 0.42763 0.37461 0.92283 0.0
H2812 H 0.40097 0.40596 0.70694 0.0
H2813 H 0.37362 0.39888 0.77791 0.0
H2814 H 0.40915 0.39003 0.03034 0.0
H2815 H 0.37819 0.39212 0.97573 0.0
H2816 H 0.26668 0.15974 0.34657 0.0
H2817 H 0.282 0.1467 0.24707 0.0
H2818 H 0.2495 0.15977 0.31352 0.0
H2819 H 0.2648 0.14655 0.21447 0.0
H2820 H 0.22995 0.13841 0.1816 0.0
H2821 H 0.24698 0.1377 0.21581 0.0
H2822 H 0.24109 0.16945 0.26019 0.0
H2823 H 0.22399 0.17006 0.22681 0.0
C2824 C 0.26641 0.1569 0.31768 0.0
C2825 C 0.27577 0.15322 0.29958 0.0
C2826 C 0.25655 0.1569 0.29875 0.0
C2827 C 0.25579 0.15318 0.26134 0.0
C2828 C 0.26509 0.14934 0.24344 0.0
C2829 C 0.27496 0.14939 0.26225 0.0
C2830 C 0.23228 0.14521 0.1988 0.0
C2831 C 0.22563 0.1543 0.20134 0.0
C2832 C 0.24207 0.14484 0.21817 0.0
C2833 C 0.24538 0.15352 0.24077 0.0
C2834 C 0.23872 0.16259 0.24334 0.0
C2835 C 0.22898 0.16299 0.22381 0.0
H2836 H 0.10561 0.96936 0.50235 0.0
H2837 H 0.09174 0.9845 0.4037 0.0
H2838 H 0.10594 0.98665 0.53443 0.0
H2839 H 0.09158 0.00164 0.43696 0.0
H2840 H 0.08078 0.02572 0.53144 0.0
H2841 H 0.08147 0.00854 0.4979 0.0
H2842 H 0.11513 0.00563 0.52478 0.0
H2843 H 0.11448 0.02293 0.5579 0.0
C2844 C 0.10275 0.97634 0.48719 0.0
C2845 C 0.09864 0.97544 0.45021 0.0
C2846 C 0.10288 0.98624 0.50581 0.0
C2847 C 0.09873 0.99544 0.48823 0.0
C2848 C 0.09471 0.99462 0.45129 0.0
C2849 C 0.09476 0.98477 0.43236 0.0
C2850 C 0.0883 0.02137 0.53036 0.0
C2851 C 0.09757 0.02561 0.54733 0.0
C2852 C 0.08872 0.01161 0.51094 0.0
C2853 C 0.09836 0.00581 0.5087 0.0
C2854 C 0.10759 0.00995 0.52621 0.0
C2855 C 0.10723 0.01983 0.54501 0.0
H2856 H 0.21815 0.84718 0.73702 0.0
H2857 H 0.23431 0.85051 0.84454 0.0
H2858 H 0.23526 0.84763 0.70486 0.0
H2859 H 0.25153 0.84994 0.81246 0.0
H2860 H 0.28086 0.8583 0.74355 0.0
H2861 H 0.26355 0.85931 0.77458 0.0
H2862 H 0.25034 0.8375 0.69172 0.0
H2863 H 0.26738 0.83727 0.65874 0.0
C2864 C 0.22533 0.84805 0.75396 0.0
C2865 C 0.22473 0.84889 0.79359 0.0
C2866 C 0.23523 0.84809 0.73541 0.0
C2867 C 0.24488 0.84875 0.75588 0.0
C2868 C 0.24431 0.84957 0.79552 0.0
C2869 C 0.23438 0.84972 0.81408 0.0
C2870 C 0.27422 0.8539 0.73134 0.0
C2871 C 0.2756 0.84774 0.69833 0.0
C2872 C 0.26429 0.85432 0.74968 0.0
C2873 C 0.25546 0.84846 0.73594 0.0
C2874 C 0.25685 0.84228 0.70299 0.0
C2875 C 0.26673 0.842 0.6843 0.0
H2876 H 0.40778 0.01752 0.90587 0.0
H2877 H 0.39865 0.03305 0.01027 0.0
H2878 H 0.40773 1.00026 0.93778 0.0
H2879 H 0.39776 0.01573 0.04132 0.0
H2880 H 0.40863 0.98479 0.09752 0.0
H2881 H 0.40857 0.00204 0.06562 0.0
H2882 H 0.39691 0.98683 0.96382 0.0
H2883 H 0.39779 0.96948 0.99474 0.0
C2884 C 0.4057 0.01728 0.93556 0.0
C2885 C 0.40325 0.02677 0.95534 0.0
C2886 C 0.40551 0.00732 0.95381 0.0
C2887 C 0.40273 0.00652 0.99229 0.0
C2888 C 0.4001 0.01599 0.01188 0.0
C2889 C 0.40043 0.02596 0.99377 0.0
C2890 C 0.40617 0.98508 0.0682 0.0
C2891 C 0.40324 0.97565 0.04886 0.0
C2892 C 0.40598 0.99504 0.04998 0.0
C2893 C 0.40273 0.99591 0.01198 0.0
C2894 C 0.39963 0.98651 0.99286 0.0
C2895 C 0.39994 0.97653 0.01092 0.0
H2896 H 0.76677 0.85131 0.84406 0.0
H2897 H 0.78348 0.85062 0.73716 0.0
H2898 H 0.74961 0.85152 0.81069 0.0
H2899 H 0.76636 0.85114 0.70387 0.0
H2900 H 0.73389 0.83788 0.66161 0.0
H2901 H 0.75119 0.83894 0.69372 0.0
H2902 H 0.73838 0.86289 0.76955 0.0
H2903 H 0.72099 0.86163 0.73798 0.0
C2904 C 0.76678 0.85126 0.81346 0.0
C2905 C 0.7765 0.85094 0.79331 0.0
C2906 C 0.75695 0.85149 0.79432 0.0
C2907 C 0.75661 0.85133 0.75459 0.0
C2908 C 0.76634 0.85116 0.73447 0.0
C2909 C 0.77616 0.85099 0.75358 0.0
C2910 C 0.73477 0.84337 0.68513 0.0
C2911 C 0.72606 0.84965 0.69726 0.0
C2912 C 0.74471 0.84405 0.70333 0.0
C2913 C 0.74616 0.85099 0.73425 0.0
C2914 C 0.73749 0.85739 0.74605 0.0
C2915 C 0.72757 0.85676 0.72769 0.0
H2916 H 0.9016 0.9851 0.40683 0.0
H2917 H 0.89971 0.96835 0.51346 0.0
H2918 H 0.90138 0.00225 0.44026 0.0
H2919 H 0.8992 0.98548 0.54677 0.0
H2920 H 0.91273 0.0175 0.59231 0.0
H2921 H 0.91171 1.00025 0.55987 0.0
H2922 H 0.88968 0.01385 0.47872 0.0
H2923 H 0.89093 0.03118 0.5106 0.0
C2924 C 0.90108 0.98508 0.43738 0.0
C2925 C 0.90068 0.97535 0.45744 0.0
C2926 C 0.90085 0.99491 0.45652 0.0
C2927 C 0.9003 0.99523 0.49621 0.0
C2928 C 0.89974 0.9855 0.51622 0.0
C2929 C 0.8999 0.97569 0.49708 0.0
C2930 C 0.90768 0.01681 0.56753 0.0
C2931 C 0.90192 0.02572 0.55404 0.0
C2932 C 0.90701 0.00689 0.54914 0.0
C2933 C 0.90062 0.00567 0.51667 0.0
C2934 C 0.89476 0.01455 0.50345 0.0
C2935 C 0.89538 0.02445 0.52198 0.0
H2936 H 0.73021 0.14006 0.32499 0.0
H2937 H 0.72319 0.17015 0.26948 0.0
H2938 H 0.74712 0.13894 0.29058 0.0
H2939 H 0.74032 0.16937 0.23714 0.0
H2940 H 0.7669 0.16064 0.1563 0.0
H2941 H 0.74957 0.16043 0.18828 0.0
H2942 H 0.76452 0.14666 0.28729 0.0
H2943 H 0.78176 0.1466 0.25474 0.0
C2944 C 0.73226 0.14645 0.30556 0.0
C2945 C 0.72531 0.15522 0.30025 0.0
C2946 C 0.74204 0.14587 0.28612 0.0
C2947 C 0.74514 0.15406 0.26098 0.0
C2948 C 0.73818 0.16283 0.25577 0.0
C2949 C 0.7284 0.16337 0.27494 0.0
C2950 C 0.76645 0.15754 0.18486 0.0
C2951 C 0.77569 0.15364 0.20299 0.0
C2952 C 0.75653 0.15746 0.20332 0.0
C2953 C 0.75561 0.15359 0.24057 0.0
C2954 C 0.76485 0.14955 0.25846 0.0
C2955 C 0.77476 0.14953 0.23983 0.0
H2956 H 0.58696 0.01951 0.92051 0.0
H2957 H 0.61569 0.02828 0.98108 0.0
H2958 H 0.5869 0.00211 0.95163 0.0
H2959 H 0.616 0.01065 0.01116 0.0
H2960 H 0.60694 0.98297 0.08912 0.0
H2961 H 0.60744 1.00022 0.05715 0.0
H2962 H 0.59502 0.98539 0.95575 0.0
H2963 H 0.59363 0.96842 0.98859 0.0
C2964 C 0.59339 0.0176 0.93996 0.0
C2965 C 0.60134 0.02523 0.94833 0.0
C2966 C 0.5934 0.0076 0.9578 0.0
C2967 C 0.60145 0.00489 0.98405 0.0
C2968 C 0.60954 0.01248 0.99174 0.0
C2969 C 0.60943 0.02256 0.97431 0.0
C2970 C 0.60417 0.9834 0.06017 0.0
C2971 C 0.60022 0.97422 0.04165 0.0
C2972 C 0.60463 0.9933 0.04154 0.0
C2973 C 0.60128 0.99428 0.0037 0.0
C2974 C 0.59752 0.98505 0.98502 0.0
C2975 C 0.5969 0.97521 0.00379 0.0
H2976 H 0.71891 0.6498 0.7596 0.0
H2977 H 0.7352 0.65549 0.65371 0.0
H2978 H 0.73611 0.6494 0.79222 0.0
H2979 H 0.75242 0.65547 0.68665 0.0
H2980 H 0.78199 0.64424 0.75244 0.0
H2981 H 0.76474 0.6435 0.71995 0.0
H2982 H 0.75027 0.66183 0.81017 0.0
H2983 H 0.76744 0.66226 0.84325 0.0
C2984 C 0.72617 0.65088 0.74319 0.0
C2985 C 0.72566 0.65263 0.70396 0.0
C2986 C 0.73603 0.65079 0.76201 0.0
C2987 C 0.74565 0.65244 0.74211 0.0
C2988 C 0.74517 0.65407 0.7028 0.0
C2989 C 0.73529 0.65419 0.68397 0.0
C2990 C 0.77509 0.64798 0.76561 0.0
C2991 C 0.77609 0.65328 0.80054 0.0
C2992 C 0.76523 0.64767 0.74675 0.0
C2993 C 0.75612 0.65262 0.7624 0.0
C2994 C 0.7571 0.65784 0.79748 0.0
C2995 C 0.76696 0.65818 0.81629 0.0
H2996 H 0.60352 0.46954 0.00707 0.0
H2997 H 0.59049 0.48424 0.90633 0.0
H2998 H 0.60454 0.48696 0.037 0.0
H2999 H 0.59048 0.50151 0.93774 0.0
H3000 H 0.59998 0.53304 0.98896 0.0
H3001 H 0.60069 0.5157 0.95847 0.0
H3002 H 0.59466 0.50025 0.06579 0.0
H3003 H 0.59506 0.51756 0.09696 0.0
C3004 C 0.60088 0.47646 0.9911 0.0
C3005 C 0.59697 0.47536 0.95396 0.0
C3006 C 0.60127 0.4865 0.00872 0.0
C3007 C 0.59753 0.49575 0.99012 0.0
C3008 C 0.5936 0.49466 0.953 0.0
C3009 C 0.59342 0.48465 0.93509 0.0
C3010 C 0.59908 0.52597 0.0064 0.0
C3011 C 0.59753 0.52683 0.04572 0.0
C3012 C 0.59926 0.51595 0.98862 0.0
C3013 C 0.59766 0.50645 0.00939 0.0
C3014 C 0.59609 0.5073 0.0487 0.0
C3015 C 0.59612 0.51732 0.06662 0.0
H3016 H 0.7235 0.33236 0.26934 0.0
H3017 H 0.73031 0.3629 0.32179 0.0
H3018 H 0.74078 0.33299 0.23681 0.0
H3019 H 0.74759 0.36357 0.28897 0.0
H3020 H 0.78249 0.35304 0.2591 0.0
H3021 H 0.76508 0.35332 0.29029 0.0
H3022 H 0.74977 0.344 0.18597 0.0
H3023 H 0.76715 0.34404 0.15417 0.0
C3024 C 0.72872 0.33918 0.27407 0.0
C3025 C 0.72557 0.34756 0.29826 0.0
C3026 C 0.73856 0.3396 0.25513 0.0
C3027 C 0.74553 0.34834 0.26026 0.0
C3028 C 0.74241 0.3567 0.28463 0.0
C3029 C 0.7325 0.35634 0.30323 0.0
C3030 C 0.77542 0.35126 0.24245 0.0
C3031 C 0.77629 0.34853 0.20394 0.0
C3032 C 0.76544 0.35138 0.26048 0.0
C3033 C 0.75607 0.34865 0.24063 0.0
C3034 C 0.75688 0.34601 0.20213 0.0
C3035 C 0.76686 0.346 0.18395 0.0
H3036 H 0.89286 0.47041 0.50274 0.0
H3037 H 0.91326 0.48383 0.58957 0.0
H3038 H 0.89242 0.48774 0.47093 0.0
H3039 H 0.91309 0.50104 0.55681 0.0
H3040 H 0.92056 0.5253 0.46149 0.0
H3041 H 0.9202 0.50806 0.49431 0.0
H3042 H 0.88575 0.50685 0.48194 0.0
H3043 H 0.88612 0.52413 0.44888 0.0
C3044 C 0.89715 0.47705 0.5154 0.0
C3045 C 0.90311 0.47565 0.54886 0.0
C3046 C 0.89693 0.48699 0.49698 0.0
C3047 C 0.90277 0.49572 0.51126 0.0
C3048 C 0.90863 0.4944 0.54485 0.0
C3049 C 0.90875 0.48451 0.56354 0.0
C3050 C 0.91292 0.5213 0.46545 0.0
C3051 C 0.90337 0.52604 0.45247 0.0
C3052 C 0.9127 0.51149 0.48459 0.0
C3053 C 0.90294 0.50613 0.49082 0.0
C3054 C 0.8934 0.51078 0.47738 0.0
C3055 C 0.8936 0.52068 0.45866 0.0
H3056 H 0.28346 0.35229 0.23982 0.0
H3057 H 0.26648 0.35035 0.34597 0.0
H3058 H 0.2664 0.3528 0.20602 0.0
H3059 H 0.24939 0.35068 0.31206 0.0
H3060 H 0.22072 0.3614 0.23999 0.0
H3061 H 0.23803 0.36273 0.27224 0.0
H3062 H 0.25156 0.33992 0.19371 0.0
H3063 H 0.23432 0.3387 0.16118 0.0
C3064 C 0.27608 0.35209 0.25598 0.0
C3065 C 0.27633 0.35129 0.29561 0.0
C3066 C 0.26631 0.35228 0.23657 0.0
C3067 C 0.25654 0.35175 0.25634 0.0
C3068 C 0.25677 0.35119 0.29603 0.0
C3069 C 0.26656 0.35091 0.31543 0.0
C3070 C 0.22744 0.35679 0.2293 0.0
C3071 C 0.22616 0.34995 0.19803 0.0
C3072 C 0.23732 0.35747 0.248 0.0
C3073 C 0.24616 0.35141 0.2356 0.0
C3074 C 0.24494 0.34476 0.20378 0.0
C3075 C 0.23504 0.344 0.18532 0.0
H3076 H 0.41888 0.52427 0.04269 0.0
H3077 H 0.3843 0.5252 0.05079 0.0
H3078 H 0.41782 0.50715 0.00977 0.0
H3079 H 0.38323 0.50817 0.01667 0.0
H3080 H 0.38725 0.47166 0.99359 0.0
H3081 H 0.38743 0.48907 0.02525 0.0
H3082 H 0.41218 0.49998 0.94889 0.0
H3083 H 0.41225 0.48249 0.9181 0.0
C3084 C 0.41104 0.52079 0.03764 0.0
C3085 C 0.40167 0.52609 0.04959 0.0
C3086 C 0.41043 0.51104 0.01828 0.0
C3087 C 0.40043 0.50631 0.01036 0.0
C3088 C 0.39105 0.51156 0.02251 0.0
C3089 C 0.39167 0.52136 0.04179 0.0
C3090 C 0.39273 0.47778 0.98355 0.0
C3091 C 0.39977 0.47565 0.95339 0.0
C3092 C 0.39276 0.48779 0.00149 0.0
C3093 C 0.39987 0.4959 0.98979 0.0
C3094 C 0.4067 0.49386 0.95897 0.0
C3095 C 0.40665 0.48387 0.94098 0.0
H3096 H 0.28018 0.63962 0.74541 0.0
H3097 H 0.26812 0.66092 0.65895 0.0
H3098 H 0.26268 0.63971 0.77601 0.0
H3099 H 0.25048 0.66059 0.68851 0.0
H3100 H 0.22509 0.66883 0.7767 0.0
H3101 H 0.24224 0.66777 0.74428 0.0
H3102 H 0.24426 0.63399 0.77094 0.0
H3103 H 0.22727 0.63517 0.80504 0.0
C3104 C 0.27378 0.64426 0.73274 0.0
C3105 C 0.27561 0.65033 0.69985 0.0
C3106 C 0.26369 0.64421 0.75007 0.0
C3107 C 0.25516 0.65022 0.73491 0.0
C3108 C 0.25691 0.65601 0.70133 0.0
C3109 C 0.267 0.65608 0.68405 0.0
C3110 C 0.22924 0.66119 0.77614 0.0
C3111 C 0.22481 0.6521 0.79381 0.0
C3112 C 0.23902 0.66055 0.75698 0.0
C3113 C 0.24463 0.65078 0.75478 0.0
C3114 C 0.2402 0.64166 0.77233 0.0
C3115 C 0.2304 0.64232 0.79158 0.0
H3116 H 0.11414 0.47581 0.53954 0.0
H3117 H 0.07996 0.47883 0.557 0.0
H3118 H 0.11421 0.49278 0.50511 0.0
H3119 H 0.0801 0.49596 0.52403 0.0
H3120 H 0.0817 0.51998 0.42759 0.0
H3121 H 0.08218 0.50285 0.46078 0.0
H3122 H 0.11204 0.51197 0.51386 0.0
H3123 H 0.11158 0.52909 0.48041 0.0
C3124 C 0.10665 0.48011 0.53618 0.0
C3125 C 0.09705 0.47593 0.55107 0.0
C3126 C 0.1067 0.48989 0.51674 0.0
C3127 C 0.09715 0.49573 0.51162 0.0
C3128 C 0.08758 0.49162 0.52694 0.0
C3129 C 0.08753 0.48185 0.54637 0.0
C3130 C 0.08835 0.51834 0.44641 0.0
C3131 C 0.09658 0.52592 0.45141 0.0
C3132 C 0.08862 0.50852 0.46553 0.0
C3133 C 0.09711 0.50604 0.49026 0.0
C3134 C 0.10544 0.51355 0.49473 0.0
C3135 C 0.10519 0.52337 0.47551 0.0
H3136 H 0.15993 0.12332 0.93341 0.0
H3137 H 0.129 0.13435 0.97262 0.0
H3138 H 0.1513 0.11464 0.87959 0.0
H3139 H 0.12035 0.12525 0.92006 0.0
H3140 H 0.10954 0.1182 0.79961 0.0
H3141 H 0.11833 0.12679 0.85304 0.0
H3142 H 0.13983 0.09974 0.86314 0.0
H3143 H 0.13106 0.09117 0.80936 0.0
C3144 C 0.1513 0.12389 0.93062 0.0
C3145 C 0.14518 0.12955 0.95746 0.0
C3146 C 0.14633 0.1188 0.89999 0.0
C3147 C 0.13512 0.11923 0.89541 0.0
C3148 C 0.12901 0.12484 0.92236 0.0
C3149 C 0.13397 0.12995 0.95287 0.0
C3150 C 0.11606 0.11402 0.81347 0.0
C3151 C 0.11955 0.10397 0.80026 0.0
C3152 C 0.12112 0.11895 0.84416 0.0
C3153 C 0.12979 0.11396 0.86256 0.0
C3154 C 0.13329 0.10389 0.84935 0.0
C3155 C 0.12824 0.09897 0.81855 0.0
H3156 H 0.16073 0.88135 0.06019 0.0
H3157 H 0.13458 0.8586 0.0563 0.0
H3158 H 0.15183 0.89083 0.11174 0.0
H3159 H 0.12595 0.86777 0.10881 0.0
H3160 H 0.10749 0.8932 0.17366 0.0
H3161 H 0.11667 0.8843 0.12168 0.0
H3162 H 0.14706 0.8891 0.17795 0.0
H3163 H 0.13789 0.8984 0.22936 0.0
C3164 C 0.1531 0.87834 0.07036 0.0
C3165 C 0.14839 0.8692 0.05398 0.0
C3166 C 0.14805 0.88372 0.10022 0.0
C3167 C 0.13815 0.8801 0.11442 0.0
C3168 C 0.1335 0.87089 0.0983 0.0
C3169 C 0.13853 0.86552 0.06847 0.0
C3170 C 0.11614 0.89251 0.17474 0.0
C3171 C 0.12194 0.89655 0.20573 0.0
C3172 C 0.12141 0.88727 0.14513 0.0
C3173 C 0.13261 0.88591 0.14567 0.0
C3174 C 0.13843 0.89007 0.17644 0.0
C3175 C 0.13316 0.8953 0.20612 0.0
H3176 H 0.36638 0.90498 0.28867 0.0
H3177 H 0.39543 0.88781 0.31658 0.0
H3178 H 0.35728 0.89656 0.34208 0.0
H3179 H 0.38635 0.87937 0.3697 0.0
H3180 H 0.37045 0.87402 0.48321 0.0
H3181 H 0.37911 0.8833 0.43102 0.0
H3182 H 0.35052 0.87939 0.36341 0.0
H3183 H 0.34164 0.87054 0.41636 0.0
C3184 C 0.37081 0.89937 0.30606 0.0
C3185 C 0.38166 0.89712 0.29839 0.0
C3186 C 0.36559 0.89452 0.33667 0.0
C3187 C 0.37108 0.8873 0.36033 0.0
C3188 C 0.38192 0.88505 0.35257 0.0
C3189 C 0.38714 0.8899 0.32206 0.0
C3190 C 0.36593 0.87528 0.45746 0.0
C3191 C 0.35532 0.87153 0.45414 0.0
C3192 C 0.37096 0.88048 0.42728 0.0
C3193 C 0.36555 0.88205 0.39285 0.0
C3194 C 0.3549 0.87841 0.3896 0.0
C3195 C 0.34985 0.87321 0.41985 0.0
H3196 H 0.36595 0.09739 0.71365 0.0
H3197 H 0.39515 0.11443 0.68656 0.0
H3198 H 0.35678 0.10653 0.66201 0.0
H3199 H 0.38617 0.12311 0.63383 0.0
H3200 H 0.36448 0.1455 0.56787 0.0
H3201 H 0.37302 0.13652 0.62094 0.0
H3202 H 0.35574 0.10741 0.59447 0.0
H3203 H 0.34675 0.11657 0.54255 0.0
C3204 C 0.37043 0.10306 0.69666 0.0
C3205 C 0.38131 0.10515 0.70441 0.0
C3206 C 0.3652 0.10821 0.66671 0.0
C3207 C 0.37071 0.11559 0.64367 0.0
C3208 C 0.38161 0.1176 0.65123 0.0
C3209 C 0.38682 0.11248 0.68122 0.0
C3210 C 0.36235 0.13723 0.57368 0.0
C3211 C 0.35488 0.13179 0.55084 0.0
C3212 C 0.36739 0.13202 0.60386 0.0
C3213 C 0.36514 0.12119 0.61197 0.0
C3214 C 0.35761 0.11577 0.58934 0.0
C3215 C 0.35254 0.121 0.55922 0.0
H3216 H 0.8692 0.87632 0.01617 0.0
H3217 H 0.84222 0.86767 0.08652 0.0
H3218 H 0.87766 0.88518 0.06977 0.0
H3219 H 0.8507 0.87656 0.14022 0.0
H3220 H 0.87458 0.88309 0.23634 0.0
H3221 H 0.86576 0.87459 0.18272 0.0
H3222 H 0.87601 0.90063 0.11067 0.0
H3223 H 0.88487 0.90913 0.16439 0.0
C3224 C 0.865 0.87641 0.04297 0.0
C3225 C 0.855 0.87129 0.04694 0.0
C3226 C 0.86987 0.8815 0.07376 0.0
C3227 C 0.86487 0.88161 0.10938 0.0
C3228 C 0.85486 0.87651 0.11336 0.0
C3229 C 0.84999 0.87141 0.08255 0.0
C3230 C 0.87486 0.88708 0.20917 0.0
C3231 C 0.88043 0.89682 0.20477 0.0
C3232 C 0.86979 0.88219 0.17837 0.0
C3233 C 0.87015 0.88692 0.1423 0.0
C3234 C 0.8757 0.89668 0.1379 0.0
C3235 C 0.88078 0.90156 0.16872 0.0
H3236 H 0.84506 0.13697 0.91308 0.0
H3237 H 0.86748 0.12221 0.99042 0.0
H3238 H 0.85394 0.12813 0.86041 0.0
H3239 H 0.87585 0.11279 0.93815 0.0
H3240 H 0.89594 0.10672 0.83222 0.0
H3241 H 0.88713 0.11539 0.88562 0.0
H3242 H 0.8564 0.11138 0.83062 0.0
H3243 H 0.86531 0.10303 0.77681 0.0
C3244 C 0.85186 0.13183 0.91896 0.0
C3245 C 0.85551 0.13034 0.9562 0.0
C3246 C 0.85687 0.12661 0.88871 0.0
C3247 C 0.86563 0.11968 0.89485 0.0
C3248 C 0.86923 0.11815 0.93212 0.0
C3249 C 0.86429 0.12344 0.9623 0.0
C3250 C 0.88729 0.10761 0.83178 0.0
C3251 C 0.88133 0.10422 0.80029 0.0
C3252 C 0.88222 0.11257 0.86243 0.0
C3253 C 0.87102 0.11416 0.86255 0.0
C3254 C 0.86505 0.11053 0.8313 0.0
C3255 C 0.87014 0.10568 0.8005 0.0
H3256 H 0.61279 0.09577 0.66072 0.0
H3257 H 0.63059 0.1159 0.73798 0.0
H3258 H 0.62154 0.10459 0.60748 0.0
H3259 H 0.6395 0.12451 0.68472 0.0
H3260 H 0.6609 0.1294 0.57914 0.0
H3261 H 0.65246 0.1204 0.6328 0.0
H3262 H 0.62166 0.12268 0.5776 0.0
H3263 H 0.62998 0.13186 0.52448 0.0
C3264 C 0.61852 0.1021 0.66644 0.0
C3265 C 0.62095 0.1051 0.70381 0.0
C3266 C 0.62356 0.10714 0.63588 0.0
C3267 C 0.63122 0.11525 0.64188 0.0
C3268 C 0.63374 0.11818 0.67916 0.0
C3269 C 0.62864 0.11321 0.70972 0.0
C3270 C 0.65231 0.12809 0.57857 0.0
C3271 C 0.64616 0.13133 0.54724 0.0
C3272 C 0.64749 0.1229 0.60931 0.0
C3273 C 0.6364 0.12077 0.60935 0.0
C3274 C 0.63025 0.12403 0.57815 0.0
C3275 C 0.63504 0.12928 0.54761 0.0
H3276 H 0.64761 0.85756 0.41909 0.0
H3277 H 0.64537 0.8867 0.48471 0.0
H3278 H 0.63898 0.86659 0.36583 0.0
H3279 H 0.63658 0.89566 0.43171 0.0
H3280 H 0.63069 0.91088 0.31471 0.0
H3281 H 0.64027 0.90207 0.36645 0.0
H3282 H 0.62084 0.8737 0.35106 0.0
H3283 H 0.61142 0.88243 0.299 0.0
C3284 C 0.64536 0.86592 0.42202 0.0
C3285 C 0.64716 0.87141 0.45615 0.0
C3286 C 0.64032 0.87106 0.39166 0.0
C3287 C 0.63704 0.88183 0.3946 0.0
C3288 C 0.63906 0.88738 0.42844 0.0
C3289 C 0.64402 0.88222 0.4589 0.0
C3290 C 0.62851 0.90275 0.32229 0.0
C3291 C 0.62027 0.89737 0.30281 0.0
C3292 C 0.63394 0.89773 0.35209 0.0
C3293 C 0.63133 0.88718 0.36283 0.0
C3294 C 0.62312 0.88179 0.34324 0.0
C3295 C 0.61763 0.88684 0.3137 0.0
H3296 H 0.65358 0.61539 0.46432 0.0
H3297 H 0.63789 0.64506 0.43343 0.0
H3298 H 0.64437 0.60623 0.413 0.0
H3299 H 0.62928 0.63607 0.38067 0.0
H3300 H 0.60656 0.61522 0.31373 0.0
H3301 H 0.61555 0.62376 0.3666 0.0
H3302 H 0.64365 0.60424 0.34659 0.0
H3303 H 0.63437 0.59516 0.29521 0.0
C3304 C 0.6482 0.61999 0.44658 0.0
C3305 C 0.6465 0.63099 0.45328 0.0
C3306 C 0.64302 0.61475 0.41672 0.0
C3307 C 0.63604 0.62037 0.39253 0.0
C3308 C 0.63445 0.63141 0.39896 0.0
C3309 C 0.63955 0.63662 0.42898 0.0
C3310 C 0.61458 0.61258 0.32095 0.0
C3311 C 0.61969 0.60443 0.30007 0.0
C3312 C 0.61983 0.61763 0.35101 0.0
C3313 C 0.63039 0.61478 0.3609 0.0
C3314 C 0.63549 0.6066 0.34016 0.0
C3315 C 0.6302 0.60147 0.31026 0.0
H3316 H 0.62869 0.38479 0.74101 0.0
H3317 H 0.61647 0.40904 0.6652 0.0
H3318 H 0.63808 0.37626 0.68851 0.0
H3319 H 0.62566 0.40035 0.61244 0.0
H3320 H 0.65259 0.38772 0.53507 0.0
H3321 H 0.64398 0.39672 0.58826 0.0
H3322 H 0.63333 0.36609 0.63121 0.0
H3323 H 0.64175 0.35709 0.57783 0.0
C3324 C 0.62808 0.38836 0.71319 0.0
C3325 C 0.62184 0.39762 0.70734 0.0
C3326 C 0.63336 0.3834 0.68302 0.0
C3327 C 0.63259 0.3876 0.64626 0.0
C3328 C 0.62649 0.39695 0.64046 0.0
C3329 C 0.62114 0.40188 0.67062 0.0
C3330 C 0.64835 0.38289 0.55567 0.0
C3331 C 0.6479 0.37165 0.55203 0.0
C3332 C 0.64342 0.38806 0.5862 0.0
C3333 C 0.63798 0.38213 0.614 0.0
C3334 C 0.6376 0.37089 0.6106 0.0
C3335 C 0.64247 0.36572 0.57998 0.0
H3336 H 0.88321 0.40997 0.83759 0.0
H3337 H 0.87612 0.38249 0.76751 0.0
H3338 H 0.87434 0.40123 0.89102 0.0
H3339 H 0.86706 0.3739 0.8205 0.0
H3340 H 0.86344 0.35688 0.93472 0.0
H3341 H 0.87191 0.36588 0.88149 0.0
H3342 H 0.85627 0.39551 0.91245 0.0
H3343 H 0.84762 0.38647 0.96556 0.0
C3344 C 0.87975 0.40208 0.83358 0.0
C3345 C 0.88037 0.39694 0.79825 0.0
C3346 C 0.87459 0.39712 0.86408 0.0
C3347 C 0.87 0.38686 0.86005 0.0
C3348 C 0.87059 0.38176 0.82469 0.0
C3349 C 0.87569 0.38674 0.79418 0.0
C3350 C 0.86165 0.36527 0.92996 0.0
C3351 C 0.85477 0.37091 0.95445 0.0
C3352 C 0.86655 0.37044 0.89943 0.0
C3353 C 0.86475 0.38141 0.89264 0.0
C3354 C 0.85792 0.38709 0.91716 0.0
C3355 C 0.85297 0.3819 0.94763 0.0
H3356 H 0.89474 0.61452 0.18764 0.0
H3357 H 0.86616 0.596 0.21051 0.0
H3358 H 0.8859 0.62283 0.1338 0.0
H3359 H 0.85728 0.60438 0.15655 0.0
H3360 H 0.84155 0.63046 0.08214 0.0
H3361 H 0.85018 0.62167 0.13577 0.0
H3362 H 0.87941 0.61859 0.07107 0.0
H3363 H 0.87094 0.62773 0.01811 0.0
C3364 C 0.88661 0.61211 0.18093 0.0
C3365 C 0.88119 0.60453 0.20339 0.0
C3366 C 0.88153 0.6169 0.15003 0.0
C3367 C 0.87088 0.61426 0.14072 0.0
C3368 C 0.86544 0.6067 0.16319 0.0
C3369 C 0.87053 0.60189 0.19413 0.0
C3370 C 0.84984 0.62797 0.07945 0.0
C3371 C 0.85554 0.62983 0.04576 0.0
C3372 C 0.85475 0.62282 0.11006 0.0
C3373 C 0.8655 0.61943 0.1078 0.0
C3374 C 0.87116 0.6212 0.07398 0.0
C3375 C 0.86625 0.62633 0.0434 0.0
H3376 H 0.36954 0.37569 0.5172 0.0
H3377 H 0.34247 0.36749 0.58773 0.0
H3378 H 0.37811 0.38454 0.57058 0.0
H3379 H 0.35102 0.37642 0.6412 0.0
H3380 H 0.37474 0.38319 0.73744 0.0
H3381 H 0.36587 0.37458 0.68414 0.0
H3382 H 0.37678 0.40005 0.61073 0.0
H3383 H 0.38573 0.40862 0.6641 0.0
C3384 C 0.36535 0.37588 0.54401 0.0
C3385 C 0.35529 0.37089 0.54809 0.0
C3386 C 0.37028 0.38098 0.57467 0.0
C3387 C 0.36527 0.38124 0.61028 0.0
C3388 C 0.3552 0.37625 0.61437 0.0
C3389 C 0.35028 0.37113 0.58369 0.0
C3390 C 0.37516 0.38702 0.71001 0.0
C3391 C 0.38095 0.39662 0.70512 0.0
C3392 C 0.37006 0.38208 0.67939 0.0
C3393 C 0.37059 0.3866 0.64303 0.0
C3394 C 0.37634 0.39623 0.63817 0.0
C3395 C 0.38147 0.40116 0.6688 0.0
H3396 H 0.3679 0.62494 0.48659 0.0
H3397 H 0.34332 0.63722 0.41223 0.0
H3398 H 0.37656 0.61614 0.43327 0.0
H3399 H 0.35195 0.62834 0.35879 0.0
H3400 H 0.37658 0.62054 0.26659 0.0
H3401 H 0.36774 0.62924 0.31978 0.0
H3402 H 0.37436 0.60155 0.38947 0.0
H3403 H 0.38329 0.59289 0.33624 0.0
C3404 C 0.36427 0.62567 0.4589 0.0
C3405 C 0.35488 0.63176 0.45375 0.0
C3406 C 0.36924 0.62061 0.42828 0.0
C3407 C 0.36496 0.62149 0.39165 0.0
C3408 C 0.35557 0.62761 0.38648 0.0
C3409 C 0.35061 0.6327 0.41713 0.0
C3410 C 0.37606 0.61626 0.29316 0.0
C3411 C 0.38063 0.60599 0.29708 0.0
C3412 C 0.37098 0.62125 0.3237 0.0
C3413 C 0.3703 0.61611 0.359 0.0
C3414 C 0.37486 0.60583 0.3629 0.0
C3415 C 0.37998 0.60085 0.33236 0.0
H3416 H 0.13131 0.62664 0.01685 0.0
H3417 H 0.15929 0.63368 0.08462 0.0
H3418 H 0.12302 0.61776 0.07069 0.0
H3419 H 0.15086 0.62493 0.13875 0.0
H3420 H 0.12645 0.61935 0.23565 0.0
H3421 H 0.13543 0.62771 0.18207 0.0
H3422 H 0.12533 0.60157 0.11036 0.0
H3423 H 0.11649 0.59307 0.16407 0.0
C3424 C 0.13576 0.62621 0.04309 0.0
C3425 C 0.14602 0.63086 0.04622 0.0
C3426 C 0.13098 0.62112 0.07401 0.0
C3427 C 0.13628 0.62061 0.10898 0.0
C3428 C 0.14651 0.6253 0.11228 0.0
C3429 C 0.15134 0.63033 0.08125 0.0
C3430 C 0.12626 0.61528 0.20864 0.0
C3431 C 0.12073 0.6055 0.20432 0.0
C3432 C 0.13141 0.6201 0.17788 0.0
C3433 C 0.13109 0.61532 0.14194 0.0
C3434 C 0.1256 0.60554 0.13758 0.0
C3435 C 0.12051 0.60067 0.16839 0.0
H3436 H 0.13318 0.38819 0.76577 0.0
H3437 H 0.11111 0.40382 0.84227 0.0
H3438 H 0.14202 0.37959 0.81924 0.0
H3439 H 0.11983 0.395 0.89556 0.0
H3440 H 0.13007 0.36722 0.9737 0.0
H3441 H 0.12177 0.37645 0.92065 0.0
H3442 H 0.1531 0.38405 0.87601 0.0
H3443 H 0.16147 0.37503 0.92969 0.0
C3444 C 0.13027 0.38991 0.79395 0.0
C3445 C 0.1214 0.39673 0.79954 0.0
C3446 C 0.13534 0.38494 0.82462 0.0
C3447 C 0.13161 0.38659 0.86164 0.0
C3448 C 0.1228 0.39345 0.86733 0.0
C3449 C 0.11778 0.39848 0.83671 0.0
C3450 C 0.13523 0.37098 0.95296 0.0
C3451 C 0.14648 0.37041 0.95631 0.0
C3452 C 0.13045 0.37626 0.92244 0.0
C3453 C 0.13677 0.38103 0.89417 0.0
C3454 C 0.148 0.38037 0.89715 0.0
C3455 C 0.1528 0.37516 0.9279 0.0
H3456 H 0.15176 0.27793 0.07366 0.0
H3457 H 0.18123 0.27658 0.13786 0.0
H3458 H 0.15181 0.25843 0.06849 0.0
H3459 H 0.18087 0.25716 0.13503 0.0
H3460 H 0.18329 0.22283 0.09761 0.0
H3461 H 0.18345 0.24237 0.09529 0.0
H3462 H 0.14884 0.24269 0.10429 0.0
H3463 H 0.14873 0.2231 0.1051 0.0
C3464 C 0.15826 0.2735 0.08662 0.0
C3465 C 0.16646 0.27888 0.10632 0.0
C3466 C 0.15821 0.26228 0.08411 0.0
C3467 C 0.16633 0.25615 0.10141 0.0
C3468 C 0.17456 0.26156 0.12084 0.0
C3469 C 0.17466 0.27275 0.12303 0.0
C3470 C 0.17572 0.2271 0.09897 0.0
C3471 C 0.166 0.22146 0.10172 0.0
C3472 C 0.1758 0.23831 0.09783 0.0
C3473 C 0.16616 0.24418 0.09999 0.0
C3474 C 0.15641 0.23848 0.10204 0.0
C3475 C 0.15634 0.22725 0.10266 0.0
H3476 H 0.9741 0.91373 0.42076 0.0
H3477 H 0.97309 0.91523 0.29888 0.0
H3478 H 0.99362 0.9133 0.41881 0.0
H3479 H 0.99269 0.91444 0.29685 0.0
H3480 H 0.0277 0.9261 0.31327 0.0
H3481 H 0.00812 0.92579 0.3129 0.0
H3482 H 0.00838 0.9017 0.40068 0.0
H3483 H 0.02792 0.9023 0.40203 0.0
C3484 C 0.97805 0.91395 0.39351 0.0
C3485 C 0.97203 0.91458 0.35998 0.0
C3486 C 0.98925 0.91358 0.39237 0.0
C3487 C 0.99473 0.91382 0.35767 0.0
C3488 C 0.98872 0.91434 0.32406 0.0
C3489 C 0.97749 0.91468 0.3252 0.0
C3490 C 0.02358 0.92078 0.33262 0.0
C3491 C 0.02939 0.91425 0.35777 0.0
C3492 C 0.01235 0.92051 0.33209 0.0
C3493 C 0.00667 0.91373 0.3568 0.0
C3494 C 0.0125 0.9071 0.38156 0.0
C3495 C 0.02371 0.90735 0.38204 0.0
H3496 H 0.32382 0.77712 0.5661 0.0
H3497 H 0.34992 0.77756 0.64638 0.0
H3498 H 0.32431 0.75749 0.56551 0.0
H3499 H 0.35049 0.75797 0.64539 0.0
H3500 H 0.33784 0.72373 0.67 0.0
H3501 H 0.33841 0.74329 0.66757 0.0
H3502 H 0.33631 0.74216 0.54584 0.0
H3503 H 0.33564 0.72251 0.54832 0.0
C3504 C 0.32967 0.77302 0.58354 0.0
C3505 C 0.33681 0.77888 0.60635 0.0
C3506 C 0.33002 0.7618 0.58292 0.0
C3507 C 0.33743 0.75619 0.60543 0.0
C3508 C 0.34464 0.76206 0.62796 0.0
C3509 C 0.34437 0.77327 0.62828 0.0
C3510 C 0.3375 0.72766 0.64271 0.0
C3511 C 0.33665 0.7216 0.60935 0.0
C3512 C 0.33791 0.73885 0.64131 0.0
C3513 C 0.3374 0.74426 0.60652 0.0
C3514 C 0.33665 0.73821 0.57308 0.0
C3515 C 0.33635 0.72698 0.57447 0.0
H3516 H 0.47386 0.10211 0.82911 0.0
H3517 H 0.47443 0.07291 0.89499 0.0
H3518 H 0.4934 0.10271 0.83044 0.0
H3519 H 0.49388 0.07311 0.89409 0.0
H3520 H 0.5281 0.08148 0.92084 0.0
H3521 H 0.50859 0.08221 0.92064 0.0
H3522 H 0.50917 0.09439 0.80624 0.0
H3523 H 0.52879 0.09397 0.80716 0.0
C3524 C 0.47813 0.0958 0.84382 0.0
C3525 C 0.47251 0.08747 0.86196 0.0
C3526 C 0.48936 0.09607 0.84415 0.0
C3527 C 0.49527 0.08798 0.86246 0.0
C3528 C 0.48964 0.07959 0.88024 0.0
C3529 C 0.47844 0.07938 0.8802 0.0
C3530 C 0.52404 0.08433 0.89569 0.0
C3531 C 0.52995 0.08759 0.86391 0.0
C3532 C 0.51285 0.0847 0.89545 0.0
C3533 C 0.50724 0.08822 0.86323 0.0
C3534 C 0.51319 0.09172 0.83169 0.0
C3535 C 0.52443 0.09146 0.83212 0.0
H3536 H 0.17952 0.77764 0.85273 0.0
H3537 H 0.15327 0.77846 0.93237 0.0
H3538 H 0.17939 0.75811 0.85453 0.0
H3539 H 0.15319 0.75887 0.93449 0.0
H3540 H 0.14898 0.72374 0.89519 0.0
H3541 H 0.14894 0.74333 0.89627 0.0
H3542 H 0.18362 0.74337 0.89571 0.0
H3543 H 0.18364 0.72383 0.89425 0.0
C3544 C 0.1738 0.77365 0.87097 0.0
C3545 C 0.16643 0.77961 0.8925 0.0
C3546 C 0.17372 0.76244 0.87205 0.0
C3547 C 0.16631 0.7569 0.89481 0.0
C3548 C 0.15892 0.76286 0.9163 0.0
C3549 C 0.15897 0.77409 0.91511 0.0
C3550 C 0.15659 0.72794 0.89574 0.0
C3551 C 0.16631 0.72223 0.89438 0.0
C3552 C 0.15658 0.73918 0.89638 0.0
C3553 C 0.16628 0.74495 0.8958 0.0
C3554 C 0.176 0.7392 0.89536 0.0
C3555 C 0.17601 0.72799 0.89459 0.0
H3556 H 0.474 0.92105 0.19194 0.0
H3557 H 0.47411 0.9065 0.08126 0.0
H3558 H 0.49366 0.92054 0.19302 0.0
H3559 H 0.49376 0.90608 0.08217 0.0
H3560 H 0.52807 0.92158 0.08313 0.0
H3561 H 0.50844 0.92094 0.08276 0.0
H3562 H 0.50875 0.90587 0.19258 0.0
H3563 H 0.52844 0.9064 0.19274 0.0
C3564 C 0.47824 0.91774 0.1679 0.0
C3565 C 0.47256 0.91381 0.13652 0.0
C3566 C 0.48946 0.91739 0.16862 0.0
C3567 C 0.49521 0.91327 0.13768 0.0
C3568 C 0.48952 0.90933 0.10632 0.0
C3569 C 0.4783 0.90952 0.10588 0.0
C3570 C 0.52393 0.91812 0.10714 0.0
C3571 C 0.52974 0.91406 0.138 0.0
C3572 C 0.51273 0.91769 0.10682 0.0
C3573 C 0.5071 0.91336 0.13765 0.0
C3574 C 0.51291 0.9093 0.16855 0.0
C3575 C 0.52414 0.90954 0.16856 0.0
H3576 H 0.34744 0.22327 0.4386 0.0
H3577 H 0.32491 0.2242 0.34591 0.0
H3578 H 0.34744 0.24288 0.44092 0.0
H3579 H 0.32491 0.24371 0.34821 0.0
H3580 H 0.31845 0.27766 0.38755 0.0
H3581 H 0.31873 0.25813 0.38872 0.0
H3582 H 0.3531 0.25866 0.40456 0.0
H3583 H 0.35282 0.27827 0.40336 0.0
C3584 C 0.34255 0.22766 0.41855 0.0
C3585 C 0.33612 0.22216 0.39223 0.0
C3586 C 0.34255 0.23889 0.41989 0.0
C3587 C 0.33611 0.24488 0.39494 0.0
C3588 C 0.32979 0.23936 0.36838 0.0
C3589 C 0.32979 0.22816 0.36706 0.0
C3590 C 0.32608 0.27362 0.39111 0.0
C3591 C 0.33563 0.27954 0.39498 0.0
C3592 C 0.32624 0.26242 0.39177 0.0
C3593 C 0.33595 0.25682 0.39635 0.0
C3594 C 0.34547 0.26273 0.40129 0.0
C3595 C 0.34531 0.27396 0.40062 0.0
H3596 H 0.97458 0.08699 0.57807 0.0
H3597 H 0.97362 0.08761 0.70012 0.0
H3598 H 0.99411 0.08707 0.57993 0.0
H3599 H 0.99322 0.08783 0.70187 0.0
H3600 H 0.02856 0.09856 0.68597 0.0
H3601 H 0.00893 0.09921 0.68512 0.0
H3602 H 0.00846 0.07466 0.59896 0.0
H3603 H 0.02801 0.0742 0.59916 0.0
C3604 C 0.97853 0.08708 0.60534 0.0
C3605 C 0.9725 0.08719 0.63896 0.0
C3606 C 0.98973 0.08715 0.60637 0.0
C3607 C 0.99522 0.08738 0.64105 0.0
C3608 C 0.98923 0.08774 0.67469 0.0
C3609 C 0.97799 0.08763 0.67367 0.0
C3610 C 0.02425 0.09335 0.66673 0.0
C3611 C 0.02984 0.08631 0.64269 0.0
C3612 C 0.01302 0.09366 0.66648 0.0
C3613 C 0.00714 0.08701 0.64192 0.0
C3614 C 0.01275 0.07997 0.61793 0.0
C3615 C 0.02395 0.07962 0.61835 0.0
H3616 H 0.82226 0.72429 0.85094 0.0
H3617 H 0.84775 0.72371 0.93385 0.0
H3618 H 0.82232 0.74368 0.85235 0.0
H3619 H 0.84849 0.74318 0.93253 0.0
H3620 H 0.84019 0.77865 0.94923 0.0
H3621 H 0.84004 0.75905 0.95074 0.0
H3622 H 0.83175 0.75852 0.83201 0.0
H3623 H 0.83135 0.77804 0.83145 0.0
C3624 C 0.82789 0.72825 0.86958 0.0
C3625 C 0.83497 0.7223 0.89241 0.0
C3626 C 0.82807 0.73946 0.8698 0.0
C3627 C 0.83549 0.74511 0.89226 0.0
C3628 C 0.84258 0.73918 0.91512 0.0
C3629 C 0.84227 0.72794 0.9154 0.0
C3630 C 0.83837 0.77429 0.92354 0.0
C3631 C 0.8357 0.77983 0.89032 0.0
C3632 C 0.83833 0.76305 0.92427 0.0
C3633 C 0.83581 0.7571 0.89155 0.0
C3634 C 0.83344 0.76274 0.85807 0.0
C3635 C 0.83329 0.77395 0.85759 0.0
H3636 H 0.65491 0.22526 0.34424 0.0
H3637 H 0.67092 0.22382 0.4523 0.0
H3638 H 0.65465 0.24483 0.34784 0.0
H3639 H 0.67058 0.24345 0.45609 0.0
H3640 H 0.68035 0.27816 0.41903 0.0
H3641 H 0.67953 0.25856 0.42089 0.0
H3642 H 0.64639 0.25968 0.38552 0.0
H3643 H 0.64725 0.27926 0.38318 0.0
C3644 C 0.65833 0.22914 0.36884 0.0
C3645 C 0.66297 0.22303 0.39792 0.0
C3646 C 0.6581 0.24034 0.37105 0.0
C3647 C 0.6626 0.24567 0.40223 0.0
C3648 C 0.66712 0.23955 0.4316 0.0
C3649 C 0.66723 0.22833 0.42958 0.0
C3650 C 0.67289 0.27421 0.4117 0.0
C3651 C 0.66388 0.28025 0.40081 0.0
C3652 C 0.67239 0.263 0.41311 0.0
C3653 C 0.6629 0.25759 0.40329 0.0
C3654 C 0.65384 0.26363 0.39297 0.0
C3655 C 0.6543 0.27484 0.39193 0.0
H3656 H 0.84899 0.27815 0.06832 0.0
H3657 H 0.8238 0.27768 0.1522 0.0
H3658 H 0.84959 0.25856 0.06931 0.0
H3659 H 0.8241 0.25816 0.15204 0.0
H3660 H 0.83549 0.22419 0.17453 0.0
H3661 H 0.83562 0.24371 0.1727 0.0
H3662 H 0.8391 0.2428 0.05129 0.0
H3663 H 0.839 0.22319 0.05316 0.0
C3664 C 0.84358 0.27388 0.08692 0.0
C3665 C 0.83635 0.27951 0.11017 0.0
C3666 C 0.84384 0.26265 0.08719 0.0
C3667 C 0.83692 0.25678 0.11082 0.0
C3668 C 0.82965 0.26242 0.13385 0.0
C3669 C 0.82938 0.27363 0.13357 0.0
C3670 C 0.83622 0.22814 0.14739 0.0
C3671 C 0.83715 0.22212 0.11396 0.0
C3672 C 0.83629 0.23935 0.14634 0.0
C3673 C 0.83727 0.24484 0.11182 0.0
C3674 C 0.83843 0.23883 0.0784 0.0
C3675 C 0.83837 0.22759 0.07947 0.0
H3676 H 0.64979 0.7237 0.63135 0.0
H3677 H 0.68056 0.72325 0.57505 0.0
H3678 H 0.64973 0.74325 0.62895 0.0
H3679 H 0.68051 0.74279 0.57281 0.0
H3680 H 0.68265 0.77711 0.61959 0.0
H3681 H 0.68221 0.7576 0.61703 0.0
H3682 H 0.64868 0.75865 0.58622 0.0
H3683 H 0.64903 0.77822 0.59012 0.0
C3684 C 0.65647 0.72775 0.61799 0.0
C3685 C 0.66521 0.72188 0.6036 0.0
C3686 C 0.65644 0.73898 0.61662 0.0
C3687 C 0.66514 0.7446 0.60086 0.0
C3688 C 0.67377 0.73872 0.58575 0.0
C3689 C 0.67379 0.72751 0.58707 0.0
C3690 C 0.67516 0.77319 0.61247 0.0
C3691 C 0.66586 0.77924 0.6053 0.0
C3692 C 0.67494 0.76199 0.61056 0.0
C3693 C 0.66541 0.75654 0.60141 0.0
C3694 C 0.65613 0.76259 0.59371 0.0
C3695 C 0.65636 0.77381 0.59555 0.0
H3696 H 0.52743 0.42334 0.80947 0.0
H3697 H 0.52743 0.4023 0.90638 0.0
H3698 H 0.50778 0.42307 0.80876 0.0
H3699 H 0.5078 0.40205 0.90572 0.0
H3700 H 0.47392 0.41751 0.91992 0.0
H3701 H 0.49349 0.41634 0.91813 0.0
H3702 H 0.49224 0.40961 0.79854 0.0
H3703 H 0.47258 0.41074 0.80039 0.0
C3704 C 0.52322 0.41864 0.8305 0.0
C3705 C 0.52894 0.41285 0.85799 0.0
C3706 C 0.51199 0.41842 0.82993 0.0
C3707 C 0.50627 0.41255 0.85721 0.0
C3708 C 0.51201 0.40669 0.88448 0.0
C3709 C 0.52322 0.40677 0.8847 0.0
C3710 C 0.47783 0.41576 0.89327 0.0
C3711 C 0.47175 0.41424 0.86026 0.0
C3712 C 0.48901 0.41502 0.8923 0.0
C3713 C 0.49437 0.41289 0.8582 0.0
C3714 C 0.4883 0.41132 0.82516 0.0
C3715 C 0.47708 0.41189 0.82626 0.0
H3716 H 0.97373 0.57285 0.39995 0.0
H3717 H 0.9729 0.59963 0.32254 0.0
H3718 H 0.99325 0.57293 0.39782 0.0
H3719 H 0.9925 0.5997 0.32029 0.0
H3720 H 0.02771 0.6034 0.3603 0.0
H3721 H 0.00811 0.60358 0.35928 0.0
H3722 H 0.00785 0.56892 0.35531 0.0
H3723 H 0.02739 0.56875 0.35663 0.0
C3724 C 0.97772 0.57868 0.38212 0.0
C3725 C 0.97175 0.5862 0.36126 0.0
C3726 C 0.98892 0.57873 0.38088 0.0
C3727 C 0.99446 0.58628 0.35871 0.0
C3728 C 0.98849 0.59385 0.33799 0.0
C3729 C 0.97727 0.59381 0.33926 0.0
C3730 C 0.02346 0.59583 0.35877 0.0
C3731 C 0.02911 0.58606 0.35886 0.0
C3732 C 0.01223 0.59593 0.35817 0.0
C3733 C 0.0064 0.58626 0.35753 0.0
C3734 C 0.01207 0.57651 0.35663 0.0
C3735 C 0.02328 0.57641 0.35734 0.0
H3736 H 0.9735 0.39738 0.64295 0.0
H3737 H 0.97441 0.43203 0.64652 0.0
H3738 H 0.99303 0.39685 0.64699 0.0
H3739 H 0.99391 0.43151 0.64874 0.0
H3740 H 0.02819 0.4271 0.68854 0.0
H3741 H 0.00864 0.42691 0.68933 0.0
H3742 H 0.00864 0.40078 0.60906 0.0
H3743 H 0.02821 0.40091 0.60859 0.0
C3744 C 0.97785 0.40489 0.64475 0.0
C3745 C 0.97235 0.41475 0.64436 0.0
C3746 C 0.98907 0.40459 0.6466 0.0
C3747 C 0.99507 0.41414 0.64811 0.0
C3748 C 0.98956 0.42399 0.64806 0.0
C3749 C 0.97836 0.42429 0.64627 0.0
C3750 C 0.02402 0.42132 0.67102 0.0
C3751 C 0.02977 0.41404 0.6484 0.0
C3752 C 0.0128 0.42123 0.67141 0.0
C3753 C 0.00703 0.41387 0.64909 0.0
C3754 C 0.0128 0.40646 0.627 0.0
C3755 C 0.02403 0.40654 0.6267 0.0
H3756 H 0.47304 0.59254 0.19843 0.0
H3757 H 0.47398 0.58121 0.08321 0.0
H3758 H 0.4927 0.59338 0.19932 0.0
H3759 H 0.49359 0.58209 0.08404 0.0
H3760 H 0.52763 0.59669 0.08885 0.0
H3761 H 0.50799 0.59673 0.08929 0.0
H3762 H 0.50813 0.57953 0.19516 0.0
H3763 H 0.52779 0.57945 0.19466 0.0
C3764 C 0.47746 0.5903 0.17328 0.0
C3765 C 0.47201 0.58678 0.14079 0.0
C3766 C 0.48868 0.59071 0.17387 0.0
C3767 C 0.49465 0.58781 0.14174 0.0
C3768 C 0.48919 0.58445 0.1091 0.0
C3769 C 0.47799 0.58387 0.10872 0.0
C3770 C 0.52345 0.593 0.11235 0.0
C3771 C 0.52922 0.58807 0.14173 0.0
C3772 C 0.51224 0.59296 0.11247 0.0
C3773 C 0.50655 0.58813 0.14225 0.0
C3774 C 0.51231 0.58338 0.172 0.0
C3775 C 0.52354 0.58327 0.17158 0.0
H3776 H 0.15146 0.14272 0.33882 0.0
H3777 H 0.12285 0.13818 0.27177 0.0
H3778 H 0.1424 0.13489 0.39335 0.0
H3779 H 0.11368 0.13066 0.32662 0.0
H3780 H 0.10639 0.10532 0.41794 0.0
H3781 H 0.11468 0.11423 0.36415 0.0
H3782 H 0.12789 0.1383 0.43863 0.0
H3783 H 0.11953 0.12941 0.49262 0.0
C3784 C 0.14322 0.14008 0.33578 0.0
C3785 C 0.13789 0.14102 0.30093 0.0
C3786 C 0.13799 0.1357 0.36713 0.0
C3787 C 0.12732 0.13213 0.36431 0.0
C3788 C 0.12194 0.13323 0.32961 0.0
C3789 C 0.12716 0.13764 0.29829 0.0
C3790 C 0.11092 0.11261 0.42284 0.0
C3791 C 0.11228 0.11666 0.45962 0.0
C3792 C 0.11568 0.11771 0.39197 0.0
C3793 C 0.12194 0.12698 0.3971 0.0
C3794 C 0.12323 0.1311 0.43381 0.0
C3795 C 0.11844 0.126 0.46473 0.0
H3796 H 0.11837 0.90113 0.5697 0.0
H3797 H 0.1054 0.87077 0.53309 0.0
H3798 H 0.12617 0.89252 0.62493 0.0
H3799 H 0.11271 0.86213 0.58944 0.0
H3800 H 0.13643 0.84793 0.67368 0.0
H3801 H 0.12842 0.85625 0.61851 0.0
H3802 H 0.12237 0.88504 0.68334 0.0
H3803 H 0.13127 0.87711 0.73734 0.0
C3804 C 0.11708 0.89261 0.57386 0.0
C3805 C 0.11129 0.88661 0.54726 0.0
C3806 C 0.12148 0.88767 0.60567 0.0
C3807 C 0.12003 0.8766 0.61205 0.0
C3808 C 0.11416 0.87062 0.58533 0.0
C3809 C 0.10992 0.87555 0.55311 0.0
C3810 C 0.13353 0.8561 0.67611 0.0
C3811 C 0.13463 0.86184 0.71015 0.0
C3812 C 0.12875 0.86082 0.64449 0.0
C3813 C 0.12475 0.87137 0.64616 0.0
C3814 C 0.12554 0.87699 0.68055 0.0
C3815 C 0.13049 0.87233 0.71195 0.0
H3816 H 0.37321 0.88295 0.98438 0.0
H3817 H 0.40303 0.88562 0.92257 0.0
H3818 H 0.3651 0.87386 0.93098 0.0
H3819 H 0.39463 0.87734 0.86798 0.0
H3820 H 0.37937 0.85388 0.78566 0.0
H3821 H 0.38799 0.86141 0.84167 0.0
H3822 H 0.35835 0.87749 0.87088 0.0
H3823 H 0.34972 0.86955 0.81593 0.0
C3824 C 0.37808 0.88158 0.95951 0.0
C3825 C 0.38881 0.88507 0.95799 0.0
C3826 C 0.37335 0.87651 0.92849 0.0
C3827 C 0.37914 0.87494 0.89482 0.0
C3828 C 0.38992 0.8783 0.89346 0.0
C3829 C 0.3947 0.88322 0.92469 0.0
C3830 C 0.37474 0.85902 0.8042 0.0
C3831 C 0.36388 0.8611 0.79665 0.0
C3832 C 0.37967 0.86339 0.83622 0.0
C3833 C 0.37389 0.87007 0.86105 0.0
C3834 C 0.36302 0.87219 0.85306 0.0
C3835 C 0.35807 0.86769 0.82143 0.0
H3836 H 0.37323 0.1089 0.03569 0.0
H3837 H 0.4021 0.12728 0.0551 0.0
H3838 H 0.36497 0.11713 0.09103 0.0
H3839 H 0.39386 0.13541 0.11101 0.0
H3840 H 0.36991 0.15519 0.18526 0.0
H3841 H 0.37857 0.14781 0.12897 0.0
H3842 H 0.3681 0.11604 0.16065 0.0
H3843 H 0.35968 0.1233 0.21715 0.0
C3844 C 0.37777 0.11478 0.05156 0.0
C3845 C 0.38831 0.11745 0.04104 0.0
C3846 C 0.37308 0.11941 0.08347 0.0
C3847 C 0.3788 0.12686 0.10547 0.0
C3848 C 0.38925 0.12973 0.09449 0.0
C3849 C 0.39398 0.12502 0.06269 0.0
C3850 C 0.36958 0.14661 0.1805 0.0
C3851 C 0.36402 0.13986 0.20564 0.0
C3852 C 0.37451 0.1424 0.1482 0.0
C3853 C 0.37391 0.13137 0.14025 0.0
C3854 C 0.36851 0.1246 0.16565 0.0
C3855 C 0.36367 0.12878 0.198 0.0
H3856 H 0.88984 0.87232 0.52448 0.0
H3857 H 0.89162 0.90225 0.58542 0.0
H3858 H 0.88211 0.86362 0.57998 0.0
H3859 H 0.88439 0.89353 0.64155 0.0
H3860 H 0.85964 0.87848 0.71927 0.0
H3861 H 0.86822 0.88683 0.66505 0.0
H3862 H 0.88503 0.85719 0.64163 0.0
H3863 H 0.87603 0.84875 0.69528 0.0
C3864 C 0.88872 0.87697 0.55004 0.0
C3865 C 0.89123 0.88795 0.55069 0.0
C3866 C 0.88435 0.87199 0.58195 0.0
C3867 C 0.88254 0.87786 0.61537 0.0
C3868 C 0.8854 0.88879 0.61615 0.0
C3869 C 0.8896 0.89379 0.58409 0.0
C3870 C 0.86524 0.87379 0.70268 0.0
C3871 C 0.8672 0.86298 0.71152 0.0
C3872 C 0.87022 0.87858 0.67162 0.0
C3873 C 0.8774 0.87273 0.64887 0.0
C3874 C 0.87943 0.86192 0.65806 0.0
C3875 C 0.87433 0.85708 0.68889 0.0
H3876 H 0.87735 0.151 0.29863 0.0
H3877 H 0.85404 0.12536 0.29731 0.0
H3878 H 0.88584 0.143 0.35444 0.0
H3879 H 0.86253 0.11736 0.35258 0.0
H3880 H 0.87277 0.11344 0.47563 0.0
H3881 H 0.86477 0.12223 0.42104 0.0
H3882 H 0.89614 0.1259 0.37097 0.0
H3883 H 0.90419 0.11684 0.42522 0.0
C3884 C 0.87405 0.14368 0.31031 0.0
C3885 C 0.86507 0.13878 0.29361 0.0
C3886 C 0.87894 0.13907 0.34201 0.0
C3887 C 0.87482 0.12958 0.35785 0.0
C3888 C 0.86582 0.12473 0.34118 0.0
C3889 C 0.86102 0.12925 0.30935 0.0
C3890 C 0.87798 0.11601 0.45287 0.0
C3891 C 0.88913 0.11432 0.45471 0.0
C3892 C 0.87338 0.12109 0.42167 0.0
C3893 C 0.87983 0.12469 0.3917 0.0
C3894 C 0.891 0.12328 0.39385 0.0
C3895 C 0.8956 0.11811 0.42497 0.0
H3896 H 0.64297 0.12305 0.21588 0.0
H3897 H 0.63319 0.1546 0.17847 0.0
H3898 H 0.63478 0.11517 0.15995 0.0
H3899 H 0.62478 0.14662 0.12286 0.0
H3900 H 0.60107 0.12592 0.05179 0.0
H3901 H 0.60938 0.13442 0.1068 0.0
H3902 H 0.6378 0.11513 0.09039 0.0
H3903 H 0.62944 0.1065 0.036 0.0
C3904 C 0.63915 0.12832 0.19562 0.0
C3905 C 0.6388 0.13947 0.20167 0.0
C3906 C 0.63443 0.12379 0.16361 0.0
C3907 C 0.62917 0.13028 0.13698 0.0
C3908 C 0.62869 0.14141 0.14311 0.0
C3909 C 0.63349 0.14597 0.17504 0.0
C3910 C 0.60909 0.12349 0.06001 0.0
C3911 C 0.6146 0.11554 0.0396 0.0
C3912 C 0.61387 0.12842 0.09127 0.0
C3913 C 0.62422 0.12541 0.10294 0.0
C3914 C 0.62977 0.11754 0.08228 0.0
C3915 C 0.62503 0.11268 0.05091 0.0
H3916 H 0.63264 0.84635 0.82393 0.0
H3917 H 0.64442 0.87787 0.79397 0.0
H3918 H 0.62414 0.85389 0.88013 0.0
H3919 H 0.63621 0.88526 0.85069 0.0
H3920 H 0.63008 0.89205 0.97596 0.0
H3921 H 0.63862 0.88368 0.9213 0.0
H3922 H 0.60912 0.86703 0.89558 0.0
H3923 H 0.60058 0.87534 0.9506 0.0
C3924 C 0.63338 0.85488 0.82912 0.0
C3925 C 0.63926 0.86148 0.80434 0.0
C3926 C 0.62854 0.85918 0.86141 0.0
C3927 C 0.62957 0.87014 0.86985 0.0
C3928 C 0.63543 0.87674 0.84519 0.0
C3929 C 0.64017 0.87248 0.81274 0.0
C3930 C 0.62547 0.88649 0.95894 0.0
C3931 C 0.61467 0.88433 0.96754 0.0
C3932 C 0.63032 0.88179 0.92746 0.0
C3933 C 0.62452 0.87475 0.90413 0.0
C3934 C 0.6138 0.87239 0.91322 0.0
C3935 C 0.6089 0.87719 0.9445 0.0
H3936 H 0.62897 0.61018 0.97042 0.0
H3937 H 0.59931 0.62665 0.9455 0.0
H3938 H 0.63733 0.61849 0.91538 0.0
H3939 H 0.60767 0.63489 0.89001 0.0
H3940 H 0.63121 0.65542 0.81659 0.0
H3941 H 0.62253 0.64805 0.87288 0.0
H3942 H 0.63479 0.61661 0.84528 0.0
H3943 H 0.64319 0.62383 0.7887 0.0
C3944 C 0.62427 0.61567 0.95341 0.0
C3945 C 0.61348 0.61776 0.96225 0.0
C3946 C 0.62903 0.62035 0.9217 0.0
C3947 C 0.62313 0.62729 0.8983 0.0
C3948 C 0.61242 0.62961 0.90765 0.0
C3949 C 0.60762 0.62484 0.93921 0.0
C3950 C 0.63194 0.64691 0.82223 0.0
C3951 C 0.63798 0.64024 0.79818 0.0
C3952 C 0.627 0.64271 0.85454 0.0
C3953 C 0.62808 0.63178 0.86362 0.0
C3954 C 0.63399 0.6251 0.83938 0.0
C3955 C 0.63883 0.62926 0.80699 0.0
H3956 H 0.63473 0.34683 0.17906 0.0
H3957 H 0.63849 0.37891 0.22393 0.0
H3958 H 0.62604 0.35425 0.12298 0.0
H3959 H 0.63022 0.38624 0.16723 0.0
H3960 H 0.62727 0.39509 0.0413 0.0
H3961 H 0.63549 0.38693 0.097 0.0
H3962 H 0.60876 0.36505 0.10637 0.0
H3963 H 0.60049 0.37325 0.05049 0.0
C3964 C 0.63364 0.35543 0.17724 0.0
C3965 C 0.63739 0.36226 0.20609 0.0
C3966 C 0.62871 0.35967 0.145 0.0
C3967 C 0.62755 0.37081 0.1407 0.0
C3968 C 0.63117 0.37763 0.16959 0.0
C3969 C 0.63596 0.3734 0.202 0.0
C3970 C 0.6232 0.38847 0.05502 0.0
C3971 C 0.61325 0.38479 0.0416 0.0
C3972 C 0.62786 0.38387 0.08704 0.0
C3973 C 0.62273 0.3754 0.10602 0.0
C3974 C 0.61289 0.37154 0.09214 0.0
C3975 C 0.60815 0.37626 0.06038 0.0
H3976 H 0.88731 0.40182 0.42395 0.0
H3977 H 0.89424 0.37101 0.47413 0.0
H3978 H 0.88005 0.39287 0.36807 0.0
H3979 H 0.88699 0.36203 0.41807 0.0
H3980 H 0.85941 0.35236 0.33475 0.0
H3981 H 0.8684 0.36043 0.38882 0.0
H3982 H 0.88638 0.38104 0.31401 0.0
H3983 H 0.87768 0.37275 0.25958 0.0
C3984 C 0.88729 0.39313 0.42294 0.0
C3985 C 0.89128 0.3871 0.45339 0.0
C3986 C 0.88323 0.38802 0.39087 0.0
C3987 C 0.88296 0.37676 0.38877 0.0
C3988 C 0.88705 0.37072 0.41907 0.0
C3989 C 0.89125 0.37585 0.45097 0.0
C3990 C 0.86544 0.35845 0.32961 0.0
C3991 C 0.86779 0.3619 0.29263 0.0
C3992 C 0.87057 0.36309 0.36069 0.0
C3993 C 0.87806 0.37138 0.3556 0.0
C3994 C 0.88053 0.37475 0.31875 0.0
C3995 C 0.87551 0.37002 0.2876 0.0
H3996 H 0.85404 0.64867 0.66585 0.0
H3997 H 0.87803 0.63369 0.73645 0.0
H3998 H 0.86261 0.64113 0.60987 0.0
H3999 H 0.88644 0.62591 0.68046 0.0
H4000 H 0.90436 0.62211 0.56804 0.0
H4001 H 0.89648 0.63101 0.62285 0.0
H4002 H 0.86477 0.62315 0.58214 0.0
H4003 H 0.8726 0.61413 0.52771 0.0
C4004 C 0.8612 0.64384 0.66939 0.0
C4005 C 0.86535 0.64177 0.7056 0.0
C4006 C 0.86604 0.63944 0.63734 0.0
C4007 C 0.87517 0.63289 0.64074 0.0
C4008 C 0.87946 0.63099 0.67688 0.0
C4009 C 0.87458 0.63536 0.70897 0.0
C4010 C 0.89571 0.62223 0.57086 0.0
C4011 C 0.88912 0.61739 0.54341 0.0
C4012 C 0.8912 0.62734 0.60225 0.0
C4013 C 0.88 0.62778 0.60683 0.0
C4014 C 0.87342 0.62309 0.57914 0.0
C4015 C 0.87792 0.61794 0.54787 0.0
H4016 H 0.36322 0.37858 0.22375 0.0
H4017 H 0.36646 0.34669 0.17696 0.0
H4018 H 0.37159 0.38608 0.16751 0.0
H4019 H 0.37512 0.35425 0.12101 0.0
H4020 H 0.40009 0.37257 0.046 0.0
H4021 H 0.39205 0.36436 0.10219 0.0
H4022 H 0.3665 0.38775 0.09913 0.0
H4023 H 0.37456 0.39601 0.04351 0.0
C4024 C 0.36567 0.37316 0.20144 0.0
C4025 C 0.36406 0.36202 0.20483 0.0
C4026 C 0.37049 0.37747 0.16926 0.0
C4027 C 0.37393 0.37075 0.13978 0.0
C4028 C 0.37261 0.3596 0.14344 0.0
C4029 C 0.36768 0.35528 0.17556 0.0
C4030 C 0.39275 0.37594 0.0574 0.0
C4031 C 0.38794 0.38492 0.04035 0.0
C4032 C 0.38813 0.3712 0.08934 0.0
C4033 C 0.37869 0.37545 0.1051 0.0
C4034 C 0.37384 0.38437 0.08783 0.0
C4035 C 0.37839 0.38903 0.05575 0.0
H4036 H 0.37295 0.61127 0.97375 0.0
H4037 H 0.40377 0.6238 0.93945 0.0
H4038 H 0.36461 0.61961 0.91879 0.0
H4039 H 0.3954 0.63207 0.884 0.0
H4040 H 0.37288 0.65418 0.81214 0.0
H4041 H 0.38176 0.64662 0.86768 0.0
H4042 H 0.36565 0.61643 0.84868 0.0
H4043 H 0.35703 0.62381 0.79275 0.0
C4044 C 0.37792 0.6159 0.95467 0.0
C4045 C 0.38901 0.61689 0.96091 0.0
C4046 C 0.37316 0.62059 0.92301 0.0
C4047 C 0.37937 0.62643 0.89704 0.0
C4048 C 0.39042 0.62765 0.90368 0.0
C4049 C 0.39521 0.62286 0.93521 0.0
C4050 C 0.37134 0.64589 0.81947 0.0
C4051 C 0.36417 0.63964 0.79804 0.0
C4052 C 0.3764 0.64158 0.85136 0.0
C4053 C 0.37431 0.63098 0.86265 0.0
C4054 C 0.36726 0.6247 0.84103 0.0
C4055 C 0.36229 0.62895 0.80903 0.0
H4056 H 0.12115 0.64332 0.72155 0.0
H4057 H 0.15205 0.63848 0.66911 0.0
H4058 H 0.11237 0.63522 0.66674 0.0
H4059 H 0.14334 0.63065 0.61403 0.0
H4060 H 0.12614 0.60545 0.54465 0.0
H4061 H 0.13432 0.61444 0.59835 0.0
H4062 H 0.10815 0.63721 0.60063 0.0
H4063 H 0.09984 0.628 0.54703 0.0
C4064 C 0.12604 0.64067 0.69802 0.0
C4065 C 0.13727 0.64141 0.69969 0.0
C4066 C 0.12102 0.63605 0.66659 0.0
C4067 C 0.12715 0.63217 0.63611 0.0
C4068 C 0.13838 0.6333 0.63737 0.0
C4069 C 0.14338 0.63782 0.66885 0.0
C4070 C 0.12217 0.61243 0.55642 0.0
C4071 C 0.1124 0.61608 0.54144 0.0
C4072 C 0.12687 0.61761 0.58718 0.0
C4073 C 0.12196 0.62663 0.60363 0.0
C4074 C 0.11211 0.63023 0.58888 0.0
C4075 C 0.10735 0.62498 0.55816 0.0
H4076 H 0.14958 0.35774 0.33855 0.0
H4077 H 0.12246 0.36554 0.26772 0.0
H4078 H 0.1404 0.36563 0.39291 0.0
H4079 H 0.11323 0.37333 0.32218 0.0
H4080 H 0.10797 0.39849 0.41758 0.0
H4081 H 0.11606 0.38953 0.36349 0.0
H4082 H 0.12411 0.36239 0.43374 0.0
H4083 H 0.11573 0.37118 0.48786 0.0
C4084 C 0.14165 0.36112 0.33466 0.0
C4085 C 0.13674 0.36105 0.29891 0.0
C4086 C 0.13636 0.36555 0.36581 0.0
C4087 C 0.1261 0.3701 0.36175 0.0
C4088 C 0.12116 0.36995 0.32606 0.0
C4089 C 0.1264 0.36542 0.295 0.0
C4090 C 0.11126 0.39052 0.42148 0.0
C4091 C 0.11117 0.38557 0.45722 0.0
C4092 C 0.11594 0.38541 0.39044 0.0
C4093 C 0.12073 0.37528 0.39442 0.0
C4094 C 0.12058 0.37026 0.42997 0.0
C4095 C 0.11581 0.37532 0.46098 0.0
loop_
_geom_bond_atom_site_label_1
_geom_bond_atom_site_label_2
_geom_bond_distance
_geom_bond_site_symmetry_2
_ccdc_geom_bond_type
Li0 N17 1.990 . S
Li0 O60 1.956 . S
Li0 O61 1.970 . S
Li0 O62 1.961 . S
Li1 N25 1.990 . S
Li1 O60 1.970 . S
Li1 O61 1.956 . S
Li1 O63 1.961 . S
Li2 N47 1.990 . S
Li2 O60 1.961 . S
Li2 O62 1.956 . S
Li2 O63 1.970 . S
Li3 N53 1.990 . S
Li3 O61 1.961 . S
Li3 O62 1.970 . S
Li3 O63 1.956 . S
C4 C6 1.348 . S
C4 C7 1.356 . S
C4 O60 1.325 . S
N5 C8 1.314 . S
N5 C9 1.279 . S
C6 C4 1.348 . S
C6 C8 1.353 . S
C6 H64 0.929 . S
C7 C4 1.356 . S
C7 C9 1.358 . S
C7 H65 0.930 . S
C8 N5 1.314 . S
C8 C6 1.353 . S
C8 H66 0.930 . S
C9 N5 1.279 . S
C9 C7 1.358 . S
C9 H67 0.930 . S
C10 C13 1.348 . S
C10 C14 1.356 . S
C10 O61 1.325 . S
C11 N12 1.279 . S
C11 C14 1.358 . S
C11 H68 0.930 . S
N12 C11 1.279 . S
N12 C15 1.314 . S
C13 C10 1.348 . S
C13 C15 1.353 . S
C13 H69 0.929 . S
C14 C10 1.356 . S
C14 C11 1.358 . S
C14 H70 0.930 . S
C15 N12 1.314 . S
C15 C13 1.353 . S
C15 H71 0.930 . S
C16 N17 1.314 . S
C16 C21 1.353 . S
C16 H22 0.930 . S
N17 Li0 1.990 . S
N17 C16 1.314 . S
N17 C19 1.279 . S
C18 C19 1.358 . S
C18 C20 1.356 . S
C18 H72 0.930 . S
C19 N17 1.279 . S
C19 C18 1.358 . S
C19 H23 0.930 . S
C20 C18 1.356 . S
C20 C21 1.348 . S
C21 C16 1.353 . S
C21 C20 1.348 . S
C21 H73 0.929 . S
H22 C16 0.930 . S
H23 C19 0.930 . S
C24 N25 1.314 . S
C24 C26 1.353 . S
C24 H30 0.930 . S
N25 Li1 1.990 . S
N25 C24 1.314 . S
N25 C28 1.279 . S
C26 C24 1.353 . S
C26 C29 1.348 . S
C26 H74 0.929 . S
C27 C28 1.358 . S
C27 C29 1.356 . S
C27 H75 0.930 . S
C28 N25 1.279 . S
C28 C27 1.358 . S
C28 H31 0.930 . S
C29 C26 1.348 . S
C29 C27 1.356 . S
H30 C24 0.930 . S
H31 C28 0.930 . S
C32 C34 1.348 . S
C32 C35 1.356 . S
C32 O62 1.325 . S
N33 C36 1.314 . S
N33 C37 1.279 . S
C34 C32 1.348 . S
C34 C36 1.353 . S
C34 H76 0.929 . S
C35 C32 1.356 . S
C35 C37 1.358 . S
C35 H77 0.930 . S
C36 N33 1.314 . S
C36 C34 1.353 . S
C36 H78 0.930 . S
C37 N33 1.279 . S
C37 C35 1.358 . S
C37 H79 0.930 . S
C38 C39 1.348 . S
C38 C40 1.356 . S
C38 O63 1.325 . S
C39 C38 1.348 . S
C39 C41 1.353 . S
C39 H80 0.929 . S
C40 C38 1.356 . S
C40 C42 1.358 . S
C40 H81 0.930 . S
C41 C39 1.353 . S
C41 N43 1.314 . S
C41 H82 0.930 . S
C42 C40 1.358 . S
C42 N43 1.279 . S
C42 H83 0.930 . S
N43 C41 1.314 . S
N43 C42 1.279 . S
C44 C46 1.353 . S
C44 N47 1.314 . S
C44 H50 0.930 . S
C45 N47 1.279 . S
C45 C48 1.358 1_554 S
C45 H51 0.930 . S
C46 C44 1.353 . S
C46 C49 1.348 1_554 S
C46 H84 0.929 . S
N47 Li2 1.990 . S
N47 C44 1.314 . S
N47 C45 1.279 . S
C48 C45 1.358 1_556 S
C48 C49 1.356 . S
C48 H85 0.930 . S
C49 C46 1.348 1_556 S
C49 C48 1.356 . S
H50 C44 0.930 . S
H51 C45 0.930 . S
C52 N53 1.314 . S
C52 C54 1.353 . S
C52 H58 0.930 . S
N53 Li3 1.990 . S
N53 C52 1.314 . S
N53 C56 1.279 . S
C54 C52 1.353 . S
C54 C57 1.348 . S
C54 H86 0.929 . S
C55 C56 1.358 . S
C55 C57 1.356 . S
C55 H87 0.930 . S
C56 N53 1.279 . S
C56 C55 1.358 . S
C56 H59 0.930 . S
C57 C54 1.348 . S
C57 C55 1.356 . S
H58 C52 0.930 . S
H59 C56 0.930 . S
O60 Li0 1.956 . S
O60 Li1 1.970 . S
O60 Li2 1.961 . S
O60 C4 1.325 . S
O61 Li0 1.970 . S
O61 Li1 1.956 . S
O61 Li3 1.961 . S
O61 C10 1.325 . S
O62 Li0 1.961 . S
O62 Li2 1.956 . S
O62 Li3 1.970 . S
O62 C32 1.325 . S
O63 Li1 1.961 . S
O63 Li2 1.970 . S
O63 Li3 1.956 . S
O63 C38 1.325 . S
H64 C6 0.929 . S
H65 C7 0.930 . S
H66 C8 0.930 . S
H67 C9 0.930 . S
H68 C11 0.930 . S
H69 C13 0.929 . S
H70 C14 0.930 . S
H71 C15 0.930 . S
H72 C18 0.930 . S
H73 C21 0.929 . S
H74 C26 0.929 . S
H75 C27 0.930 . S
H76 C34 0.929 . S
H77 C35 0.930 . S
H78 C36 0.930 . S
H79 C37 0.930 . S
H80 C39 0.929 . S
H81 C40 0.930 . S
H82 C41 0.930 . S
H83 C42 0.930 . S
H84 C46 0.929 . S
H85 C48 0.930 . S
H86 C54 0.929 . S
H87 C55 0.930 . S
Li88 N105 1.990 . S
Li88 O148 1.956 . S
Li88 O149 1.970 . S
Li88 O150 1.961 . S
Li89 N113 1.990 . S
Li89 O148 1.970 . S
Li89 O149 1.956 . S
Li89 O151 1.961 . S
Li90 N135 1.990 . S
Li90 O148 1.961 . S
Li90 O150 1.956 . S
Li90 O151 1.970 . S
Li91 N141 1.990 . S
Li91 O149 1.961 . S
Li91 O150 1.970 . S
Li91 O151 1.956 . S
C92 C94 1.348 . S
C92 C95 1.356 . S
C92 O148 1.325 . S
N93 C96 1.314 . S
N93 C97 1.279 . S
C94 C92 1.348 . S
C94 C96 1.353 . S
C94 H152 0.929 . S
C95 C92 1.356 . S
C95 C97 1.358 . S
C95 H153 0.930 . S
C96 N93 1.314 . S
C96 C94 1.353 . S
C96 H154 0.930 . S
C97 N93 1.279 . S
C97 C95 1.358 . S
C97 H155 0.930 . S
C98 C101 1.348 . S
C98 C102 1.356 . S
C98 O149 1.325 . S
C99 N100 1.279 . S
C99 C102 1.358 . S
C99 H156 0.930 . S
N100 C99 1.279 . S
N100 C103 1.314 . S
C101 C98 1.348 . S
C101 C103 1.353 . S
C101 H157 0.929 . S
C102 C98 1.356 . S
C102 C99 1.358 . S
C102 H158 0.930 . S
C103 N100 1.314 . S
C103 C101 1.353 . S
C103 H159 0.930 . S
C104 N105 1.314 . S
C104 C109 1.353 . S
C104 H110 0.930 . S
N105 Li88 1.990 . S
N105 C104 1.314 . S
N105 C107 1.279 . S
C106 C107 1.358 . S
C106 C108 1.356 . S
C106 H160 0.930 . S
C107 N105 1.279 . S
C107 C106 1.358 . S
C107 H111 0.930 . S
C108 C106 1.356 . S
C108 C109 1.348 . S
C109 C104 1.353 . S
C109 C108 1.348 . S
C109 H161 0.929 . S
H110 C104 0.930 . S
H111 C107 0.930 . S
C112 N113 1.314 . S
C112 C114 1.353 . S
C112 H118 0.930 . S
N113 Li89 1.990 . S
N113 C112 1.314 . S
N113 C116 1.279 . S
C114 C112 1.353 . S
C114 C117 1.348 . S
C114 H162 0.929 . S
C115 C116 1.358 . S
C115 C117 1.356 . S
C115 H163 0.930 . S
C116 N113 1.279 . S
C116 C115 1.358 . S
C116 H119 0.930 . S
C117 C114 1.348 . S
C117 C115 1.356 . S
H118 C112 0.930 . S
H119 C116 0.930 . S
C120 C122 1.348 . S
C120 C123 1.356 . S
C120 O150 1.325 . S
N121 C124 1.314 . S
N121 C125 1.279 . S
C122 C120 1.348 . S
C122 C124 1.353 . S
C122 H164 0.929 . S
C123 C120 1.356 . S
C123 C125 1.358 . S
C123 H165 0.930 . S
C124 N121 1.314 . S
C124 C122 1.353 . S
C124 H166 0.930 . S
C125 N121 1.279 . S
C125 C123 1.358 . S
C125 H167 0.930 . S
C126 C127 1.348 . S
C126 C128 1.356 . S
C126 O151 1.325 . S
C127 C126 1.348 . S
C127 C129 1.353 . S
C127 H168 0.929 . S
C128 C126 1.356 . S
C128 C130 1.358 . S
C128 H169 0.930 . S
C129 C127 1.353 . S
C129 N131 1.314 . S
C129 H170 0.930 . S
C130 C128 1.358 . S
C130 N131 1.279 . S
C130 H171 0.930 . S
N131 C129 1.314 . S
N131 C130 1.279 . S
C132 C134 1.353 . S
C132 N135 1.314 . S
C132 H138 0.930 . S
C133 N135 1.279 . S
C133 C136 1.358 . S
C133 H139 0.930 . S
C134 C132 1.353 . S
C134 C137 1.348 . S
C134 H172 0.929 . S
N135 Li90 1.990 . S
N135 C132 1.314 . S
N135 C133 1.279 . S
C136 C133 1.358 . S
C136 C137 1.356 . S
C136 H173 0.930 . S
C137 C134 1.348 . S
C137 C136 1.356 . S
H138 C132 0.930 . S
H139 C133 0.930 . S
C140 N141 1.314 . S
C140 C142 1.353 . S
C140 H146 0.930 . S
N141 Li91 1.990 . S
N141 C140 1.314 . S
N141 C144 1.279 . S
C142 C140 1.353 . S
C142 C145 1.348 . S
C142 H174 0.929 . S
C143 C144 1.358 . S
C143 C145 1.356 . S
C143 H175 0.930 . S
C144 N141 1.279 . S
C144 C143 1.358 . S
C144 H147 0.930 . S
C145 C142 1.348 . S
C145 C143 1.356 . S
H146 C140 0.930 . S
H147 C144 0.930 . S
O148 Li88 1.956 . S
O148 Li89 1.970 . S
O148 Li90 1.961 . S
O148 C92 1.325 . S
O149 Li88 1.970 . S
O149 Li89 1.956 . S
O149 Li91 1.961 . S
O149 C98 1.325 . S
O150 Li88 1.961 . S
O150 Li90 1.956 . S
O150 Li91 1.970 . S
O150 C120 1.325 . S
O151 Li89 1.961 . S
O151 Li90 1.970 . S
O151 Li91 1.956 . S
O151 C126 1.325 . S
H152 C94 0.929 . S
H153 C95 0.930 . S
H154 C96 0.930 . S
H155 C97 0.930 . S
H156 C99 0.930 . S
H157 C101 0.929 . S
H158 C102 0.930 . S
H159 C103 0.930 . S
H160 C106 0.930 . S
H161 C109 0.929 . S
H162 C114 0.929 . S
H163 C115 0.930 . S
H164 C122 0.929 . S
H165 C123 0.930 . S
H166 C124 0.930 . S
H167 C125 0.930 . S
H168 C127 0.929 . S
H169 C128 0.930 . S
H170 C129 0.930 . S
H171 C130 0.930 . S
H172 C134 0.929 . S
H173 C136 0.930 . S
H174 C142 0.929 . S
H175 C143 0.930 . S
Li176 N193 1.990 . S
Li176 O236 1.956 . S
Li176 O237 1.970 . S
Li176 O238 1.961 . S
Li177 N201 1.990 . S
Li177 O236 1.970 . S
Li177 O237 1.956 . S
Li177 O239 1.961 . S
Li178 N223 1.990 . S
Li178 O236 1.961 . S
Li178 O238 1.956 . S
Li178 O239 1.970 . S
Li179 N229 1.990 . S
Li179 O237 1.961 . S
Li179 O238 1.970 . S
Li179 O239 1.956 . S
C180 C182 1.348 . S
C180 C183 1.356 . S
C180 O236 1.325 . S
N181 C184 1.314 . S
N181 C185 1.279 . S
C182 C180 1.348 . S
C182 C184 1.353 . S
C182 H240 0.929 . S
C183 C180 1.356 . S
C183 C185 1.358 . S
C183 H241 0.930 . S
C184 N181 1.314 . S
C184 C182 1.353 . S
C184 H242 0.930 . S
C185 N181 1.279 . S
C185 C183 1.358 . S
C185 H243 0.930 . S
C186 C189 1.348 . S
C186 C190 1.356 . S
C186 O237 1.325 . S
C187 N188 1.279 . S
C187 C190 1.358 . S
C187 H244 0.930 . S
N188 C187 1.279 . S
N188 C191 1.314 . S
C189 C186 1.348 . S
C189 C191 1.353 . S
C189 H245 0.929 . S
C190 C186 1.356 . S
C190 C187 1.358 . S
C190 H246 0.930 . S
C191 N188 1.314 . S
C191 C189 1.353 . S
C191 H247 0.930 . S
C192 N193 1.314 . S
C192 C197 1.353 . S
C192 H198 0.930 . S
N193 Li176 1.990 . S
N193 C192 1.314 . S
N193 C195 1.279 . S
C194 C195 1.358 . S
C194 C196 1.356 . S
C194 H248 0.930 . S
C195 N193 1.279 . S
C195 C194 1.358 . S
C195 H199 0.930 . S
C196 C194 1.356 . S
C196 C197 1.348 . S
C197 C192 1.353 . S
C197 C196 1.348 . S
C197 H249 0.929 . S
H198 C192 0.930 . S
H199 C195 0.930 . S
C200 N201 1.314 . S
C200 C202 1.353 . S
C200 H206 0.930 . S
N201 Li177 1.990 . S
N201 C200 1.314 . S
N201 C204 1.279 . S
C202 C200 1.353 . S
C202 C205 1.348 . S
C202 H250 0.929 . S
C203 C204 1.358 . S
C203 C205 1.356 . S
C203 H251 0.930 . S
C204 N201 1.279 . S
C204 C203 1.358 . S
C204 H207 0.930 . S
C205 C202 1.348 . S
C205 C203 1.356 . S
H206 C200 0.930 . S
H207 C204 0.930 . S
C208 C210 1.348 . S
C208 C211 1.356 . S
C208 O238 1.325 . S
N209 C212 1.314 . S
N209 C213 1.279 . S
C210 C208 1.348 . S
C210 C212 1.353 . S
C210 H252 0.929 . S
C211 C208 1.356 . S
C211 C213 1.358 . S
C211 H253 0.930 . S
C212 N209 1.314 . S
C212 C210 1.353 . S
C212 H254 0.930 . S
C213 N209 1.279 . S
C213 C211 1.358 . S
C213 H255 0.930 . S
C214 C215 1.348 . S
C214 C216 1.356 . S
C214 O239 1.325 . S
C215 C214 1.348 . S
C215 C217 1.353 . S
C215 H256 0.929 . S
C216 C214 1.356 . S
C216 C218 1.358 . S
C216 H257 0.930 . S
C217 C215 1.353 . S
C217 N219 1.314 . S
C217 H258 0.930 . S
C218 C216 1.358 . S
C218 N219 1.279 . S
C218 H259 0.930 . S
N219 C217 1.314 . S
N219 C218 1.279 . S
C220 C222 1.353 . S
C220 N223 1.314 . S
C220 H226 0.930 . S
C221 N223 1.279 . S
C221 C224 1.358 . S
C221 H227 0.930 . S
C222 C220 1.353 . S
C222 C225 1.348 . S
C222 H260 0.929 . S
N223 Li178 1.990 . S
N223 C220 1.314 . S
N223 C221 1.279 . S
C224 C221 1.358 . S
C224 C225 1.356 . S
C224 H261 0.930 . S
C225 C222 1.348 . S
C225 C224 1.356 . S
H226 C220 0.930 . S
H227 C221 0.930 . S
C228 N229 1.314 . S
C228 C230 1.353 . S
C228 H234 0.930 . S
N229 Li179 1.990 . S
N229 C228 1.314 . S
N229 C232 1.279 . S
C230 C228 1.353 . S
C230 C233 1.348 . S
C230 H262 0.929 . S
C231 C232 1.358 . S
C231 C233 1.356 . S
C231 H263 0.930 . S
C232 N229 1.279 . S
C232 C231 1.358 . S
C232 H235 0.930 . S
C233 C230 1.348 . S
C233 C231 1.356 . S
H234 C228 0.930 . S
H235 C232 0.930 . S
O236 Li176 1.956 . S
O236 Li177 1.970 . S
O236 Li178 1.961 . S
O236 C180 1.325 . S
O237 Li176 1.970 . S
O237 Li177 1.956 . S
O237 Li179 1.961 . S
O237 C186 1.325 . S
O238 Li176 1.961 . S
O238 Li178 1.956 . S
O238 Li179 1.970 . S
O238 C208 1.325 . S
O239 Li177 1.961 . S
O239 Li178 1.970 . S
O239 Li179 1.956 . S
O239 C214 1.325 . S
H240 C182 0.929 . S
H241 C183 0.930 . S
H242 C184 0.930 . S
H243 C185 0.930 . S
H244 C187 0.930 . S
H245 C189 0.929 . S
H246 C190 0.930 . S
H247 C191 0.930 . S
H248 C194 0.930 . S
H249 C197 0.929 . S
H250 C202 0.929 . S
H251 C203 0.930 . S
H252 C210 0.929 . S
H253 C211 0.930 . S
H254 C212 0.930 . S
H255 C213 0.930 . S
H256 C215 0.929 . S
H257 C216 0.930 . S
H258 C217 0.930 . S
H259 C218 0.930 . S
H260 C222 0.929 . S
H261 C224 0.930 . S
H262 C230 0.929 . S
H263 C231 0.930 . S
Li264 N281 1.990 . S
Li264 O324 1.956 . S
Li264 O325 1.970 . S
Li264 O326 1.961 . S
Li265 N289 1.990 . S
Li265 O324 1.970 . S
Li265 O325 1.956 . S
Li265 O327 1.961 . S
Li266 N311 1.990 . S
Li266 O324 1.961 . S
Li266 O326 1.956 . S
Li266 O327 1.970 . S
Li267 N317 1.990 . S
Li267 O325 1.961 . S
Li267 O326 1.970 . S
Li267 O327 1.956 . S
C268 C270 1.348 . S
C268 C271 1.356 . S
C268 O324 1.325 . S
N269 C272 1.314 . S
N269 C273 1.279 . S
C270 C268 1.348 . S
C270 C272 1.353 1_556 S
C270 H328 0.929 . S
C271 C268 1.356 . S
C271 C273 1.358 1_556 S
C271 H329 0.930 . S
C272 N269 1.314 . S
C272 C270 1.353 1_554 S
C272 H330 0.930 . S
C273 N269 1.279 . S
C273 C271 1.358 1_554 S
C273 H331 0.930 . S
C274 C277 1.348 . S
C274 C278 1.356 . S
C274 O325 1.325 . S
C275 N276 1.279 . S
C275 C278 1.358 . S
C275 H332 0.930 . S
N276 C275 1.279 . S
N276 C279 1.314 . S
C277 C274 1.348 . S
C277 C279 1.353 . S
C277 H333 0.929 . S
C278 C274 1.356 . S
C278 C275 1.358 . S
C278 H334 0.930 . S
C279 N276 1.314 . S
C279 C277 1.353 . S
C279 H335 0.930 . S
C280 N281 1.314 . S
C280 C285 1.353 . S
C280 H286 0.930 . S
N281 Li264 1.990 . S
N281 C280 1.314 . S
N281 C283 1.279 1_556 S
C282 C283 1.358 . S
C282 C284 1.356 . S
C282 H336 0.930 . S
C283 N281 1.279 1_554 S
C283 C282 1.358 . S
C283 H287 0.930 . S
C284 C282 1.356 . S
C284 C285 1.348 1_554 S
C285 C280 1.353 . S
C285 C284 1.348 1_556 S
C285 H337 0.929 . S
H286 C280 0.930 . S
H287 C283 0.930 . S
C288 N289 1.314 . S
C288 C290 1.353 . S
C288 H294 0.930 . S
N289 Li265 1.990 . S
N289 C288 1.314 . S
N289 C292 1.279 . S
C290 C288 1.353 . S
C290 C293 1.348 . S
C290 H338 0.929 . S
C291 C292 1.358 . S
C291 C293 1.356 . S
C291 H339 0.930 . S
C292 N289 1.279 . S
C292 C291 1.358 . S
C292 H295 0.930 . S
C293 C290 1.348 . S
C293 C291 1.356 . S
H294 C288 0.930 . S
H295 C292 0.930 . S
C296 C298 1.348 . S
C296 C299 1.356 . S
C296 O326 1.325 . S
N297 C300 1.314 . S
N297 C301 1.279 . S
C298 C296 1.348 . S
C298 C300 1.353 . S
C298 H340 0.929 . S
C299 C296 1.356 . S
C299 C301 1.358 . S
C299 H341 0.930 . S
C300 N297 1.314 . S
C300 C298 1.353 . S
C300 H342 0.930 . S
C301 N297 1.279 . S
C301 C299 1.358 . S
C301 H343 0.930 . S
C302 C303 1.348 . S
C302 C304 1.356 . S
C302 O327 1.325 . S
C303 C302 1.348 . S
C303 C305 1.353 . S
C303 H344 0.929 . S
C304 C302 1.356 . S
C304 C306 1.358 . S
C304 H345 0.930 . S
C305 C303 1.353 . S
C305 N307 1.314 . S
C305 H346 0.930 . S
C306 C304 1.358 . S
C306 N307 1.279 . S
C306 H347 0.930 . S
N307 C305 1.314 . S
N307 C306 1.279 . S
C308 C310 1.353 . S
C308 N311 1.314 . S
C308 H314 0.930 . S
C309 N311 1.279 . S
C309 C312 1.358 . S
C309 H315 0.930 . S
C310 C308 1.353 . S
C310 C313 1.348 . S
C310 H348 0.929 . S
N311 Li266 1.990 . S
N311 C308 1.314 . S
N311 C309 1.279 . S
C312 C309 1.358 . S
C312 C313 1.356 . S
C312 H349 0.930 . S
C313 C310 1.348 . S
C313 C312 1.356 . S
H314 C308 0.930 . S
H315 C309 0.930 . S
C316 N317 1.314 . S
C316 C318 1.353 . S
C316 H322 0.930 . S
N317 Li267 1.990 . S
N317 C316 1.314 . S
N317 C320 1.279 . S
C318 C316 1.353 . S
C318 C321 1.348 . S
C318 H350 0.929 . S
C319 C320 1.358 . S
C319 C321 1.356 . S
C319 H351 0.930 . S
C320 N317 1.279 . S
C320 C319 1.358 . S
C320 H323 0.930 . S
C321 C318 1.348 . S
C321 C319 1.356 . S
H322 C316 0.930 . S
H323 C320 0.930 . S
O324 Li264 1.956 . S
O324 Li265 1.970 . S
O324 Li266 1.961 . S
O324 C268 1.325 . S
O325 Li264 1.970 . S
O325 Li265 1.956 . S
O325 Li267 1.961 . S
O325 C274 1.325 . S
O326 Li264 1.961 . S
O326 Li266 1.956 . S
O326 Li267 1.970 . S
O326 C296 1.325 . S
O327 Li265 1.961 . S
O327 Li266 1.970 . S
O327 Li267 1.956 . S
O327 C302 1.325 . S
H328 C270 0.929 . S
H329 C271 0.930 . S
H330 C272 0.930 . S
H331 C273 0.930 . S
H332 C275 0.930 . S
H333 C277 0.929 . S
H334 C278 0.930 . S
H335 C279 0.930 . S
H336 C282 0.930 . S
H337 C285 0.929 . S
H338 C290 0.929 . S
H339 C291 0.930 . S
H340 C298 0.929 . S
H341 C299 0.930 . S
H342 C300 0.930 . S
H343 C301 0.930 . S
H344 C303 0.929 . S
H345 C304 0.930 . S
H346 C305 0.930 . S
H347 C306 0.930 . S
H348 C310 0.929 . S
H349 C312 0.930 . S
H350 C318 0.929 . S
H351 C319 0.930 . S
Li352 N369 1.990 . S
Li352 O412 1.956 . S
Li352 O413 1.970 . S
Li352 O414 1.961 . S
Li353 N377 1.990 . S
Li353 O412 1.970 . S
Li353 O413 1.956 . S
Li353 O415 1.961 . S
Li354 N399 1.990 . S
Li354 O412 1.961 . S
Li354 O414 1.956 . S
Li354 O415 1.970 . S
Li355 N405 1.990 . S
Li355 O413 1.961 . S
Li355 O414 1.970 . S
Li355 O415 1.956 . S
C356 C358 1.348 . S
C356 C359 1.356 . S
C356 O412 1.325 . S
N357 C360 1.314 . S
N357 C361 1.279 . S
C358 C356 1.348 . S
C358 C360 1.353 . S
C358 H416 0.929 . S
C359 C356 1.356 . S
C359 C361 1.358 . S
C359 H417 0.930 . S
C360 N357 1.314 . S
C360 C358 1.353 . S
C360 H418 0.930 . S
C361 N357 1.279 . S
C361 C359 1.358 . S
C361 H419 0.930 . S
C362 C365 1.348 . S
C362 C366 1.356 . S
C362 O413 1.325 . S
C363 N364 1.279 . S
C363 C366 1.358 . S
C363 H420 0.930 . S
N364 C363 1.279 . S
N364 C367 1.314 . S
C365 C362 1.348 . S
C365 C367 1.353 . S
C365 H421 0.929 . S
C366 C362 1.356 . S
C366 C363 1.358 . S
C366 H422 0.930 . S
C367 N364 1.314 . S
C367 C365 1.353 . S
C367 H423 0.930 . S
C368 N369 1.314 . S
C368 C373 1.353 . S
C368 H374 0.930 . S
N369 Li352 1.990 . S
N369 C368 1.314 . S
N369 C371 1.279 . S
C370 C371 1.358 1_554 S
C370 C372 1.356 . S
C370 H424 0.930 . S
C371 N369 1.279 . S
C371 C370 1.358 1_556 S
C371 H375 0.930 . S
C372 C370 1.356 . S
C372 C373 1.348 1_554 S
C373 C368 1.353 . S
C373 C372 1.348 1_556 S
C373 H425 0.929 . S
H374 C368 0.930 . S
H375 C371 0.930 . S
C376 N377 1.314 . S
C376 C378 1.353 . S
C376 H382 0.930 . S
N377 Li353 1.990 . S
N377 C376 1.314 . S
N377 C380 1.279 . S
C378 C376 1.353 . S
C378 C381 1.348 . S
C378 H426 0.929 . S
C379 C380 1.358 . S
C379 C381 1.356 . S
C379 H427 0.930 . S
C380 N377 1.279 . S
C380 C379 1.358 . S
C380 H383 0.930 . S
C381 C378 1.348 . S
C381 C379 1.356 . S
H382 C376 0.930 . S
H383 C380 0.930 . S
C384 C386 1.348 . S
C384 C387 1.356 . S
C384 O414 1.325 . S
N385 C388 1.314 . S
N385 C389 1.279 . S
C386 C384 1.348 . S
C386 C388 1.353 . S
C386 H428 0.929 . S
C387 C384 1.356 . S
C387 C389 1.358 . S
C387 H429 0.930 . S
C388 N385 1.314 . S
C388 C386 1.353 . S
C388 H430 0.930 . S
C389 N385 1.279 . S
C389 C387 1.358 . S
C389 H431 0.930 . S
C390 C391 1.348 . S
C390 C392 1.356 . S
C390 O415 1.325 . S
C391 C390 1.348 . S
C391 C393 1.353 . S
C391 H432 0.929 . S
C392 C390 1.356 . S
C392 C394 1.358 . S
C392 H433 0.930 . S
C393 C391 1.353 . S
C393 N395 1.314 . S
C393 H434 0.930 . S
C394 C392 1.358 . S
C394 N395 1.279 . S
C394 H435 0.930 . S
N395 C393 1.314 . S
N395 C394 1.279 . S
C396 C398 1.353 . S
C396 N399 1.314 . S
C396 H402 0.930 . S
C397 N399 1.279 . S
C397 C400 1.358 . S
C397 H403 0.930 . S
C398 C396 1.353 . S
C398 C401 1.348 . S
C398 H436 0.929 . S
N399 Li354 1.990 . S
N399 C396 1.314 . S
N399 C397 1.279 . S
C400 C397 1.358 . S
C400 C401 1.356 . S
C400 H437 0.930 . S
C401 C398 1.348 . S
C401 C400 1.356 . S
H402 C396 0.930 . S
H403 C397 0.930 . S
C404 N405 1.314 . S
C404 C406 1.353 . S
C404 H410 0.930 . S
N405 Li355 1.990 . S
N405 C404 1.314 . S
N405 C408 1.279 . S
C406 C404 1.353 . S
C406 C409 1.348 . S
C406 H438 0.929 . S
C407 C408 1.358 . S
C407 C409 1.356 . S
C407 H439 0.930 . S
C408 N405 1.279 . S
C408 C407 1.358 . S
C408 H411 0.930 . S
C409 C406 1.348 . S
C409 C407 1.356 . S
H410 C404 0.930 . S
H411 C408 0.930 . S
O412 Li352 1.956 . S
O412 Li353 1.970 . S
O412 Li354 1.961 . S
O412 C356 1.325 . S
O413 Li352 1.970 . S
O413 Li353 1.956 . S
O413 Li355 1.961 . S
O413 C362 1.325 . S
O414 Li352 1.961 . S
O414 Li354 1.956 . S
O414 Li355 1.970 . S
O414 C384 1.325 . S
O415 Li353 1.961 . S
O415 Li354 1.970 . S
O415 Li355 1.956 . S
O415 C390 1.325 . S
H416 C358 0.929 . S
H417 C359 0.930 . S
H418 C360 0.930 . S
H419 C361 0.930 . S
H420 C363 0.930 . S
H421 C365 0.929 . S
H422 C366 0.930 . S
H423 C367 0.930 . S
H424 C370 0.930 . S
H425 C373 0.929 . S
H426 C378 0.929 . S
H427 C379 0.930 . S
H428 C386 0.929 . S
H429 C387 0.930 . S
H430 C388 0.930 . S
H431 C389 0.930 . S
H432 C391 0.929 . S
H433 C392 0.930 . S
H434 C393 0.930 . S
H435 C394 0.930 . S
H436 C398 0.929 . S
H437 C400 0.930 . S
H438 C406 0.929 . S
H439 C407 0.930 . S
Li440 N457 1.990 . S
Li440 O500 1.956 . S
Li440 O501 1.970 . S
Li440 O502 1.961 . S
Li441 N465 1.990 . S
Li441 O500 1.970 . S
Li441 O501 1.956 . S
Li441 O503 1.961 . S
Li442 N487 1.990 . S
Li442 O500 1.961 . S
Li442 O502 1.956 . S
Li442 O503 1.970 . S
Li443 N493 1.990 . S
Li443 O501 1.961 . S
Li443 O502 1.970 . S
Li443 O503 1.956 . S
C444 C446 1.348 . S
C444 C447 1.356 . S
C444 O500 1.325 . S
N445 C448 1.314 . S
N445 C449 1.279 . S
C446 C444 1.348 . S
C446 C448 1.353 . S
C446 H504 0.929 . S
C447 C444 1.356 . S
C447 C449 1.358 . S
C447 H505 0.930 . S
C448 N445 1.314 . S
C448 C446 1.353 . S
C448 H506 0.930 . S
C449 N445 1.279 . S
C449 C447 1.358 . S
C449 H507 0.930 . S
C450 C453 1.348 . S
C450 C454 1.356 . S
C450 O501 1.325 . S
C451 N452 1.279 . S
C451 C454 1.358 . S
C451 H508 0.930 . S
N452 C451 1.279 . S
N452 C455 1.314 . S
C453 C450 1.348 . S
C453 C455 1.353 . S
C453 H509 0.929 . S
C454 C450 1.356 . S
C454 C451 1.358 . S
C454 H510 0.930 . S
C455 N452 1.314 . S
C455 C453 1.353 . S
C455 H511 0.930 . S
C456 N457 1.314 . S
C456 C461 1.353 . S
C456 H462 0.930 . S
N457 Li440 1.990 . S
N457 C456 1.314 . S
N457 C459 1.279 . S
C458 C459 1.358 . S
C458 C460 1.356 . S
C458 H512 0.930 . S
C459 N457 1.279 . S
C459 C458 1.358 . S
C459 H463 0.930 . S
C460 C458 1.356 . S
C460 C461 1.348 . S
C461 C456 1.353 . S
C461 C460 1.348 . S
C461 H513 0.929 . S
H462 C456 0.930 . S
H463 C459 0.930 . S
C464 N465 1.314 . S
C464 C466 1.353 . S
C464 H470 0.930 . S
N465 Li441 1.990 . S
N465 C464 1.314 . S
N465 C468 1.279 . S
C466 C464 1.353 . S
C466 C469 1.348 . S
C466 H514 0.929 . S
C467 C468 1.358 . S
C467 C469 1.356 . S
C467 H515 0.930 . S
C468 N465 1.279 . S
C468 C467 1.358 . S
C468 H471 0.930 . S
C469 C466 1.348 . S
C469 C467 1.356 . S
H470 C464 0.930 . S
H471 C468 0.930 . S
C472 C474 1.348 . S
C472 C475 1.356 . S
C472 O502 1.325 . S
N473 C476 1.314 . S
N473 C477 1.279 . S
C474 C472 1.348 . S
C474 C476 1.353 1_554 S
C474 H516 0.929 . S
C475 C472 1.356 . S
C475 C477 1.358 1_554 S
C475 H517 0.930 . S
C476 N473 1.314 . S
C476 C474 1.353 1_556 S
C476 H518 0.930 . S
C477 N473 1.279 . S
C477 C475 1.358 1_556 S
C477 H519 0.930 . S
C478 C479 1.348 . S
C478 C480 1.356 . S
C478 O503 1.325 . S
C479 C478 1.348 . S
C479 C481 1.353 . S
C479 H520 0.929 . S
C480 C478 1.356 . S
C480 C482 1.358 . S
C480 H521 0.930 . S
C481 C479 1.353 . S
C481 N483 1.314 . S
C481 H522 0.930 . S
C482 C480 1.358 . S
C482 N483 1.279 . S
C482 H523 0.930 . S
N483 C481 1.314 . S
N483 C482 1.279 . S
C484 C486 1.353 . S
C484 N487 1.314 . S
C484 H490 0.930 . S
C485 N487 1.279 1_556 S
C485 C488 1.358 . S
C485 H491 0.930 . S
C486 C484 1.353 . S
C486 C489 1.348 1_554 S
C486 H524 0.929 . S
N487 Li442 1.990 . S
N487 C484 1.314 . S
N487 C485 1.279 1_554 S
C488 C485 1.358 . S
C488 C489 1.356 . S
C488 H525 0.930 . S
C489 C486 1.348 1_556 S
C489 C488 1.356 . S
H490 C484 0.930 . S
H491 C485 0.930 . S
C492 N493 1.314 . S
C492 C494 1.353 . S
C492 H498 0.930 . S
N493 Li443 1.990 . S
N493 C492 1.314 . S
N493 C496 1.279 . S
C494 C492 1.353 . S
C494 C497 1.348 . S
C494 H526 0.929 . S
C495 C496 1.358 . S
C495 C497 1.356 . S
C495 H527 0.930 . S
C496 N493 1.279 . S
C496 C495 1.358 . S
C496 H499 0.930 . S
C497 C494 1.348 . S
C497 C495 1.356 . S
H498 C492 0.930 . S
H499 C496 0.930 . S
O500 Li440 1.956 . S
O500 Li441 1.970 . S
O500 Li442 1.961 . S
O500 C444 1.325 . S
O501 Li440 1.970 . S
O501 Li441 1.956 . S
O501 Li443 1.961 . S
O501 C450 1.325 . S
O502 Li440 1.961 . S
O502 Li442 1.956 . S
O502 Li443 1.970 . S
O502 C472 1.325 . S
O503 Li441 1.961 . S
O503 Li442 1.970 . S
O503 Li443 1.956 . S
O503 C478 1.325 . S
H504 C446 0.929 . S
H505 C447 0.930 . S
H506 C448 0.930 . S
H507 C449 0.930 . S
H508 C451 0.930 . S
H509 C453 0.929 . S
H510 C454 0.930 . S
H511 C455 0.930 . S
H512 C458 0.930 . S
H513 C461 0.929 . S
H514 C466 0.929 . S
H515 C467 0.930 . S
H516 C474 0.929 . S
H517 C475 0.930 . S
H518 C476 0.930 . S
H519 C477 0.930 . S
H520 C479 0.929 . S
H521 C480 0.930 . S
H522 C481 0.930 . S
H523 C482 0.930 . S
H524 C486 0.929 . S
H525 C488 0.930 . S
H526 C494 0.929 . S
H527 C495 0.930 . S
Li528 N545 1.990 . S
Li528 O588 1.956 . S
Li528 O589 1.970 . S
Li528 O590 1.961 . S
Li529 N553 1.990 . S
Li529 O588 1.970 . S
Li529 O589 1.956 . S
Li529 O591 1.961 . S
Li530 N575 1.990 . S
Li530 O588 1.961 . S
Li530 O590 1.956 . S
Li530 O591 1.970 . S
Li531 N581 1.990 . S
Li531 O589 1.961 . S
Li531 O590 1.970 . S
Li531 O591 1.956 . S
C532 C534 1.348 . S
C532 C535 1.356 . S
C532 O588 1.325 . S
N533 C536 1.314 . S
N533 C537 1.279 . S
C534 C532 1.348 . S
C534 C536 1.353 . S
C534 H592 0.929 . S
C535 C532 1.356 . S
C535 C537 1.358 . S
C535 H593 0.930 . S
C536 N533 1.314 . S
C536 C534 1.353 . S
C536 H594 0.930 . S
C537 N533 1.279 . S
C537 C535 1.358 . S
C537 H595 0.930 . S
C538 C541 1.348 . S
C538 C542 1.356 . S
C538 O589 1.325 . S
C539 N540 1.279 . S
C539 C542 1.358 . S
C539 H596 0.930 . S
N540 C539 1.279 . S
N540 C543 1.314 . S
C541 C538 1.348 . S
C541 C543 1.353 . S
C541 H597 0.929 . S
C542 C538 1.356 . S
C542 C539 1.358 . S
C542 H598 0.930 . S
C543 N540 1.314 . S
C543 C541 1.353 . S
C543 H599 0.930 . S
C544 N545 1.314 . S
C544 C549 1.353 . S
C544 H550 0.930 . S
N545 Li528 1.990 . S
N545 C544 1.314 . S
N545 C547 1.279 . S
C546 C547 1.358 . S
C546 C548 1.356 . S
C546 H600 0.930 . S
C547 N545 1.279 . S
C547 C546 1.358 . S
C547 H551 0.930 . S
C548 C546 1.356 . S
C548 C549 1.348 . S
C549 C544 1.353 . S
C549 C548 1.348 . S
C549 H601 0.929 . S
H550 C544 0.930 . S
H551 C547 0.930 . S
C552 N553 1.314 . S
C552 C554 1.353 . S
C552 H558 0.930 . S
N553 Li529 1.990 . S
N553 C552 1.314 . S
N553 C556 1.279 . S
C554 C552 1.353 . S
C554 C557 1.348 . S
C554 H602 0.929 . S
C555 C556 1.358 . S
C555 C557 1.356 . S
C555 H603 0.930 . S
C556 N553 1.279 . S
C556 C555 1.358 . S
C556 H559 0.930 . S
C557 C554 1.348 . S
C557 C555 1.356 . S
H558 C552 0.930 . S
H559 C556 0.930 . S
C560 C562 1.348 . S
C560 C563 1.356 . S
C560 O590 1.325 . S
N561 C564 1.314 . S
N561 C565 1.279 . S
C562 C560 1.348 . S
C562 C564 1.353 . S
C562 H604 0.929 . S
C563 C560 1.356 . S
C563 C565 1.358 . S
C563 H605 0.930 . S
C564 N561 1.314 . S
C564 C562 1.353 . S
C564 H606 0.930 . S
C565 N561 1.279 . S
C565 C563 1.358 . S
C565 H607 0.930 . S
C566 C567 1.348 . S
C566 C568 1.356 . S
C566 O591 1.325 . S
C567 C566 1.348 . S
C567 C569 1.353 . S
C567 H608 0.929 . S
C568 C566 1.356 . S
C568 C570 1.358 . S
C568 H609 0.930 . S
C569 C567 1.353 . S
C569 N571 1.314 . S
C569 H610 0.930 . S
C570 C568 1.358 . S
C570 N571 1.279 . S
C570 H611 0.930 . S
N571 C569 1.314 . S
N571 C570 1.279 . S
C572 C574 1.353 . S
C572 N575 1.314 . S
C572 H578 0.930 . S
C573 N575 1.279 . S
C573 C576 1.358 . S
C573 H579 0.930 . S
C574 C572 1.353 . S
C574 C577 1.348 . S
C574 H612 0.929 . S
N575 Li530 1.990 . S
N575 C572 1.314 . S
N575 C573 1.279 . S
C576 C573 1.358 . S
C576 C577 1.356 . S
C576 H613 0.930 . S
C577 C574 1.348 . S
C577 C576 1.356 . S
H578 C572 0.930 . S
H579 C573 0.930 . S
C580 N581 1.314 . S
C580 C582 1.353 . S
C580 H586 0.930 . S
N581 Li531 1.990 . S
N581 C580 1.314 . S
N581 C584 1.279 . S
C582 C580 1.353 . S
C582 C585 1.348 . S
C582 H614 0.929 . S
C583 C584 1.358 . S
C583 C585 1.356 . S
C583 H615 0.930 . S
C584 N581 1.279 . S
C584 C583 1.358 . S
C584 H587 0.930 . S
C585 C582 1.348 . S
C585 C583 1.356 . S
H586 C580 0.930 . S
H587 C584 0.930 . S
O588 Li528 1.956 . S
O588 Li529 1.970 . S
O588 Li530 1.961 . S
O588 C532 1.325 . S
O589 Li528 1.970 . S
O589 Li529 1.956 . S
O589 Li531 1.961 . S
O589 C538 1.325 . S
O590 Li528 1.961 . S
O590 Li530 1.956 . S
O590 Li531 1.970 . S
O590 C560 1.325 . S
O591 Li529 1.961 . S
O591 Li530 1.970 . S
O591 Li531 1.956 . S
O591 C566 1.325 . S
H592 C534 0.929 . S
H593 C535 0.930 . S
H594 C536 0.930 . S
H595 C537 0.930 . S
H596 C539 0.930 . S
H597 C541 0.929 . S
H598 C542 0.930 . S
H599 C543 0.930 . S
H600 C546 0.930 . S
H601 C549 0.929 . S
H602 C554 0.929 . S
H603 C555 0.930 . S
H604 C562 0.929 . S
H605 C563 0.930 . S
H606 C564 0.930 . S
H607 C565 0.930 . S
H608 C567 0.929 . S
H609 C568 0.930 . S
H610 C569 0.930 . S
H611 C570 0.930 . S
H612 C574 0.929 . S
H613 C576 0.930 . S
H614 C582 0.929 . S
H615 C583 0.930 . S
Li616 N633 1.990 . S
Li616 O676 1.956 . S
Li616 O677 1.970 . S
Li616 O678 1.961 . S
Li617 N641 1.990 . S
Li617 O676 1.970 . S
Li617 O677 1.956 . S
Li617 O679 1.961 . S
Li618 N663 1.990 . S
Li618 O676 1.961 . S
Li618 O678 1.956 . S
Li618 O679 1.970 . S
Li619 N669 1.990 . S
Li619 O677 1.961 . S
Li619 O678 1.970 . S
Li619 O679 1.956 . S
C620 C622 1.348 . S
C620 C623 1.356 . S
C620 O676 1.325 . S
N621 C624 1.314 . S
N621 C625 1.279 . S
C622 C620 1.348 . S
C622 C624 1.353 . S
C622 H680 0.929 . S
C623 C620 1.356 . S
C623 C625 1.358 . S
C623 H681 0.930 . S
C624 N621 1.314 . S
C624 C622 1.353 . S
C624 H682 0.930 . S
C625 N621 1.279 . S
C625 C623 1.358 . S
C625 H683 0.930 . S
C626 C629 1.348 . S
C626 C630 1.356 . S
C626 O677 1.325 . S
C627 N628 1.279 . S
C627 C630 1.358 . S
C627 H684 0.930 . S
N628 C627 1.279 . S
N628 C631 1.314 . S
C629 C626 1.348 . S
C629 C631 1.353 . S
C629 H685 0.929 . S
C630 C626 1.356 . S
C630 C627 1.358 . S
C630 H686 0.930 . S
C631 N628 1.314 . S
C631 C629 1.353 . S
C631 H687 0.930 . S
C632 N633 1.314 . S
C632 C637 1.353 . S
C632 H638 0.930 . S
N633 Li616 1.990 . S
N633 C632 1.314 . S
N633 C635 1.279 . S
C634 C635 1.358 . S
C634 C636 1.356 . S
C634 H688 0.930 . S
C635 N633 1.279 . S
C635 C634 1.358 . S
C635 H639 0.930 . S
C636 C634 1.356 . S
C636 C637 1.348 . S
C637 C632 1.353 . S
C637 C636 1.348 . S
C637 H689 0.929 . S
H638 C632 0.930 . S
H639 C635 0.930 . S
C640 N641 1.314 . S
C640 C642 1.353 . S
C640 H646 0.930 . S
N641 Li617 1.990 . S
N641 C640 1.314 . S
N641 C644 1.279 . S
C642 C640 1.353 . S
C642 C645 1.348 . S
C642 H690 0.929 . S
C643 C644 1.358 . S
C643 C645 1.356 . S
C643 H691 0.930 . S
C644 N641 1.279 . S
C644 C643 1.358 . S
C644 H647 0.930 . S
C645 C642 1.348 . S
C645 C643 1.356 . S
H646 C640 0.930 . S
H647 C644 0.930 . S
C648 C650 1.348 . S
C648 C651 1.356 . S
C648 O678 1.325 . S
N649 C652 1.314 . S
N649 C653 1.279 . S
C650 C648 1.348 . S
C650 C652 1.353 . S
C650 H692 0.929 . S
C651 C648 1.356 . S
C651 C653 1.358 . S
C651 H693 0.930 . S
C652 N649 1.314 . S
C652 C650 1.353 . S
C652 H694 0.930 . S
C653 N649 1.279 . S
C653 C651 1.358 . S
C653 H695 0.930 . S
C654 C655 1.348 . S
C654 C656 1.356 . S
C654 O679 1.325 . S
C655 C654 1.348 . S
C655 C657 1.353 . S
C655 H696 0.929 . S
C656 C654 1.356 . S
C656 C658 1.358 . S
C656 H697 0.930 . S
C657 C655 1.353 . S
C657 N659 1.314 . S
C657 H698 0.930 . S
C658 C656 1.358 . S
C658 N659 1.279 . S
C658 H699 0.930 . S
N659 C657 1.314 . S
N659 C658 1.279 . S
C660 C662 1.353 . S
C660 N663 1.314 . S
C660 H666 0.930 . S
C661 N663 1.279 . S
C661 C664 1.358 . S
C661 H667 0.930 . S
C662 C660 1.353 . S
C662 C665 1.348 . S
C662 H700 0.929 . S
N663 Li618 1.990 . S
N663 C660 1.314 . S
N663 C661 1.279 . S
C664 C661 1.358 . S
C664 C665 1.356 . S
C664 H701 0.930 . S
C665 C662 1.348 . S
C665 C664 1.356 . S
H666 C660 0.930 . S
H667 C661 0.930 . S
C668 N669 1.314 . S
C668 C670 1.353 . S
C668 H674 0.930 . S
N669 Li619 1.990 . S
N669 C668 1.314 . S
N669 C672 1.279 . S
C670 C668 1.353 . S
C670 C673 1.348 . S
C670 H702 0.929 . S
C671 C672 1.358 . S
C671 C673 1.356 . S
C671 H703 0.930 . S
C672 N669 1.279 . S
C672 C671 1.358 . S
C672 H675 0.930 . S
C673 C670 1.348 . S
C673 C671 1.356 . S
H674 C668 0.930 . S
H675 C672 0.930 . S
O676 Li616 1.956 . S
O676 Li617 1.970 . S
O676 Li618 1.961 . S
O676 C620 1.325 . S
O677 Li616 1.970 . S
O677 Li617 1.956 . S
O677 Li619 1.961 . S
O677 C626 1.325 . S
O678 Li616 1.961 . S
O678 Li618 1.956 . S
O678 Li619 1.970 . S
O678 C648 1.325 . S
O679 Li617 1.961 . S
O679 Li618 1.970 . S
O679 Li619 1.956 . S
O679 C654 1.325 . S
H680 C622 0.929 . S
H681 C623 0.930 . S
H682 C624 0.930 . S
H683 C625 0.930 . S
H684 C627 0.930 . S
H685 C629 0.929 . S
H686 C630 0.930 . S
H687 C631 0.930 . S
H688 C634 0.930 . S
H689 C637 0.929 . S
H690 C642 0.929 . S
H691 C643 0.930 . S
H692 C650 0.929 . S
H693 C651 0.930 . S
H694 C652 0.930 . S
H695 C653 0.930 . S
H696 C655 0.929 . S
H697 C656 0.930 . S
H698 C657 0.930 . S
H699 C658 0.930 . S
H700 C662 0.929 . S
H701 C664 0.930 . S
H702 C670 0.929 . S
H703 C671 0.930 . S
Li704 N721 1.990 . S
Li704 O764 1.956 . S
Li704 O765 1.970 . S
Li704 O766 1.961 . S
Li705 N729 1.990 . S
Li705 O764 1.970 . S
Li705 O765 1.956 . S
Li705 O767 1.961 . S
Li706 N751 1.990 . S
Li706 O764 1.961 . S
Li706 O766 1.956 . S
Li706 O767 1.970 . S
Li707 N757 1.990 . S
Li707 O765 1.961 . S
Li707 O766 1.970 . S
Li707 O767 1.956 . S
C708 C710 1.348 . S
C708 C711 1.356 . S
C708 O764 1.325 . S
N709 C712 1.314 . S
N709 C713 1.279 . S
C710 C708 1.348 . S
C710 C712 1.353 . S
C710 H768 0.929 . S
C711 C708 1.356 . S
C711 C713 1.358 . S
C711 H769 0.930 . S
C712 N709 1.314 . S
C712 C710 1.353 . S
C712 H770 0.930 . S
C713 N709 1.279 . S
C713 C711 1.358 . S
C713 H771 0.930 . S
C714 C717 1.348 . S
C714 C718 1.356 . S
C714 O765 1.325 . S
C715 N716 1.279 . S
C715 C718 1.358 . S
C715 H772 0.930 . S
N716 C715 1.279 . S
N716 C719 1.314 . S
C717 C714 1.348 . S
C717 C719 1.353 . S
C717 H773 0.929 . S
C718 C714 1.356 . S
C718 C715 1.358 . S
C718 H774 0.930 . S
C719 N716 1.314 . S
C719 C717 1.353 . S
C719 H775 0.930 . S
C720 N721 1.314 . S
C720 C725 1.353 . S
C720 H726 0.930 . S
N721 Li704 1.990 . S
N721 C720 1.314 . S
N721 C723 1.279 . S
C722 C723 1.358 . S
C722 C724 1.356 . S
C722 H776 0.930 . S
C723 N721 1.279 . S
C723 C722 1.358 . S
C723 H727 0.930 . S
C724 C722 1.356 . S
C724 C725 1.348 . S
C725 C720 1.353 . S
C725 C724 1.348 . S
C725 H777 0.929 . S
H726 C720 0.930 . S
H727 C723 0.930 . S
C728 N729 1.314 . S
C728 C730 1.353 1_556 S
C728 H734 0.930 . S
N729 Li705 1.990 . S
N729 C728 1.314 . S
N729 C732 1.279 . S
C730 C728 1.353 1_554 S
C730 C733 1.348 . S
C730 H778 0.929 . S
C731 C732 1.358 . S
C731 C733 1.356 1_556 S
C731 H779 0.930 . S
C732 N729 1.279 . S
C732 C731 1.358 . S
C732 H735 0.930 . S
C733 C730 1.348 . S
C733 C731 1.356 1_554 S
H734 C728 0.930 . S
H735 C732 0.930 . S
C736 C738 1.348 . S
C736 C739 1.356 . S
C736 O766 1.325 . S
N737 C740 1.314 . S
N737 C741 1.279 . S
C738 C736 1.348 . S
C738 C740 1.353 . S
C738 H780 0.929 . S
C739 C736 1.356 . S
C739 C741 1.358 . S
C739 H781 0.930 . S
C740 N737 1.314 . S
C740 C738 1.353 . S
C740 H782 0.930 . S
C741 N737 1.279 . S
C741 C739 1.358 . S
C741 H783 0.930 . S
C742 C743 1.348 . S
C742 C744 1.356 . S
C742 O767 1.325 . S
C743 C742 1.348 . S
C743 C745 1.353 . S
C743 H784 0.929 . S
C744 C742 1.356 . S
C744 C746 1.358 . S
C744 H785 0.930 . S
C745 C743 1.353 . S
C745 N747 1.314 . S
C745 H786 0.930 . S
C746 C744 1.358 . S
C746 N747 1.279 . S
C746 H787 0.930 . S
N747 C745 1.314 . S
N747 C746 1.279 . S
C748 C750 1.353 . S
C748 N751 1.314 . S
C748 H754 0.930 . S
C749 N751 1.279 . S
C749 C752 1.358 . S
C749 H755 0.930 . S
C750 C748 1.353 . S
C750 C753 1.348 . S
C750 H788 0.929 . S
N751 Li706 1.990 . S
N751 C748 1.314 . S
N751 C749 1.279 . S
C752 C749 1.358 . S
C752 C753 1.356 . S
C752 H789 0.930 . S
C753 C750 1.348 . S
C753 C752 1.356 . S
H754 C748 0.930 . S
H755 C749 0.930 . S
C756 N757 1.314 . S
C756 C758 1.353 . S
C756 H762 0.930 . S
N757 Li707 1.990 . S
N757 C756 1.314 . S
N757 C760 1.279 . S
C758 C756 1.353 . S
C758 C761 1.348 . S
C758 H790 0.929 . S
C759 C760 1.358 . S
C759 C761 1.356 . S
C759 H791 0.930 . S
C760 N757 1.279 . S
C760 C759 1.358 . S
C760 H763 0.930 . S
C761 C758 1.348 . S
C761 C759 1.356 . S
H762 C756 0.930 . S
H763 C760 0.930 . S
O764 Li704 1.956 . S
O764 Li705 1.970 . S
O764 Li706 1.961 . S
O764 C708 1.325 . S
O765 Li704 1.970 . S
O765 Li705 1.956 . S
O765 Li707 1.961 . S
O765 C714 1.325 . S
O766 Li704 1.961 . S
O766 Li706 1.956 . S
O766 Li707 1.970 . S
O766 C736 1.325 . S
O767 Li705 1.961 . S
O767 Li706 1.970 . S
O767 Li707 1.956 . S
O767 C742 1.325 . S
H768 C710 0.929 . S
H769 C711 0.930 . S
H770 C712 0.930 . S
H771 C713 0.930 . S
H772 C715 0.930 . S
H773 C717 0.929 . S
H774 C718 0.930 . S
H775 C719 0.930 . S
H776 C722 0.930 . S
H777 C725 0.929 . S
H778 C730 0.929 . S
H779 C731 0.930 . S
H780 C738 0.929 . S
H781 C739 0.930 . S
H782 C740 0.930 . S
H783 C741 0.930 . S
H784 C743 0.929 . S
H785 C744 0.930 . S
H786 C745 0.930 . S
H787 C746 0.930 . S
H788 C750 0.929 . S
H789 C752 0.930 . S
H790 C758 0.929 . S
H791 C759 0.930 . S
Li792 N809 1.990 . S
Li792 O852 1.956 . S
Li792 O853 1.970 . S
Li792 O854 1.961 . S
Li793 N817 1.990 . S
Li793 O852 1.970 . S
Li793 O853 1.956 . S
Li793 O855 1.961 . S
Li794 N839 1.990 . S
Li794 O852 1.961 . S
Li794 O854 1.956 . S
Li794 O855 1.970 . S
Li795 N845 1.990 . S
Li795 O853 1.961 . S
Li795 O854 1.970 . S
Li795 O855 1.956 . S
C796 C798 1.348 . S
C796 C799 1.356 . S
C796 O852 1.325 . S
N797 C800 1.314 . S
N797 C801 1.279 . S
C798 C796 1.348 . S
C798 C800 1.353 . S
C798 H856 0.929 . S
C799 C796 1.356 . S
C799 C801 1.358 . S
C799 H857 0.930 . S
C800 N797 1.314 . S
C800 C798 1.353 . S
C800 H858 0.930 . S
C801 N797 1.279 . S
C801 C799 1.358 . S
C801 H859 0.930 . S
C802 C805 1.348 . S
C802 C806 1.356 . S
C802 O853 1.325 . S
C803 N804 1.279 . S
C803 C806 1.358 . S
C803 H860 0.930 . S
N804 C803 1.279 . S
N804 C807 1.314 . S
C805 C802 1.348 . S
C805 C807 1.353 . S
C805 H861 0.929 . S
C806 C802 1.356 . S
C806 C803 1.358 . S
C806 H862 0.930 . S
C807 N804 1.314 . S
C807 C805 1.353 . S
C807 H863 0.930 . S
C808 N809 1.314 . S
C808 C813 1.353 . S
C808 H814 0.930 . S
N809 Li792 1.990 . S
N809 C808 1.314 . S
N809 C811 1.279 . S
C810 C811 1.358 . S
C810 C812 1.356 . S
C810 H864 0.930 . S
C811 N809 1.279 . S
C811 C810 1.358 . S
C811 H815 0.930 . S
C812 C810 1.356 . S
C812 C813 1.348 . S
C813 C808 1.353 . S
C813 C812 1.348 . S
C813 H865 0.929 . S
H814 C808 0.930 . S
H815 C811 0.930 . S
C816 N817 1.314 . S
C816 C818 1.353 . S
C816 H822 0.930 . S
N817 Li793 1.990 . S
N817 C816 1.314 . S
N817 C820 1.279 . S
C818 C816 1.353 . S
C818 C821 1.348 . S
C818 H866 0.929 . S
C819 C820 1.358 . S
C819 C821 1.356 . S
C819 H867 0.930 . S
C820 N817 1.279 . S
C820 C819 1.358 . S
C820 H823 0.930 . S
C821 C818 1.348 . S
C821 C819 1.356 . S
H822 C816 0.930 . S
H823 C820 0.930 . S
C824 C826 1.348 . S
C824 C827 1.356 . S
C824 O854 1.325 . S
N825 C828 1.314 . S
N825 C829 1.279 . S
C826 C824 1.348 . S
C826 C828 1.353 . S
C826 H868 0.929 . S
C827 C824 1.356 . S
C827 C829 1.358 . S
C827 H869 0.930 . S
C828 N825 1.314 . S
C828 C826 1.353 . S
C828 H870 0.930 . S
C829 N825 1.279 . S
C829 C827 1.358 . S
C829 H871 0.930 . S
C830 C831 1.348 . S
C830 C832 1.356 . S
C830 O855 1.325 . S
C831 C830 1.348 . S
C831 C833 1.353 . S
C831 H872 0.929 . S
C832 C830 1.356 . S
C832 C834 1.358 . S
C832 H873 0.930 . S
C833 C831 1.353 . S
C833 N835 1.314 . S
C833 H874 0.930 . S
C834 C832 1.358 . S
C834 N835 1.279 . S
C834 H875 0.930 . S
N835 C833 1.314 . S
N835 C834 1.279 . S
C836 C838 1.353 . S
C836 N839 1.314 . S
C836 H842 0.930 . S
C837 N839 1.279 . S
C837 C840 1.358 . S
C837 H843 0.930 . S
C838 C836 1.353 . S
C838 C841 1.348 . S
C838 H876 0.929 . S
N839 Li794 1.990 . S
N839 C836 1.314 . S
N839 C837 1.279 . S
C840 C837 1.358 . S
C840 C841 1.356 . S
C840 H877 0.930 . S
C841 C838 1.348 . S
C841 C840 1.356 . S
H842 C836 0.930 . S
H843 C837 0.930 . S
C844 N845 1.314 . S
C844 C846 1.353 . S
C844 H850 0.930 . S
N845 Li795 1.990 . S
N845 C844 1.314 . S
N845 C848 1.279 . S
C846 C844 1.353 . S
C846 C849 1.348 . S
C846 H878 0.929 . S
C847 C848 1.358 . S
C847 C849 1.356 . S
C847 H879 0.930 . S
C848 N845 1.279 . S
C848 C847 1.358 . S
C848 H851 0.930 . S
C849 C846 1.348 . S
C849 C847 1.356 . S
H850 C844 0.930 . S
H851 C848 0.930 . S
O852 Li792 1.956 . S
O852 Li793 1.970 . S
O852 Li794 1.961 . S
O852 C796 1.325 . S
O853 Li792 1.970 . S
O853 Li793 1.956 . S
O853 Li795 1.961 . S
O853 C802 1.325 . S
O854 Li792 1.961 . S
O854 Li794 1.956 . S
O854 Li795 1.970 . S
O854 C824 1.325 . S
O855 Li793 1.961 . S
O855 Li794 1.970 . S
O855 Li795 1.956 . S
O855 C830 1.325 . S
H856 C798 0.929 . S
H857 C799 0.930 . S
H858 C800 0.930 . S
H859 C801 0.930 . S
H860 C803 0.930 . S
H861 C805 0.929 . S
H862 C806 0.930 . S
H863 C807 0.930 . S
H864 C810 0.930 . S
H865 C813 0.929 . S
H866 C818 0.929 . S
H867 C819 0.930 . S
H868 C826 0.929 . S
H869 C827 0.930 . S
H870 C828 0.930 . S
H871 C829 0.930 . S
H872 C831 0.929 . S
H873 C832 0.930 . S
H874 C833 0.930 . S
H875 C834 0.930 . S
H876 C838 0.929 . S
H877 C840 0.930 . S
H878 C846 0.929 . S
H879 C847 0.930 . S
Li880 N897 1.990 . S
Li880 O940 1.956 . S
Li880 O941 1.970 . S
Li880 O942 1.961 . S
Li881 N905 1.990 . S
Li881 O940 1.970 . S
Li881 O941 1.956 . S
Li881 O943 1.961 . S
Li882 N927 1.990 . S
Li882 O940 1.961 . S
Li882 O942 1.956 . S
Li882 O943 1.970 . S
Li883 N933 1.990 . S
Li883 O941 1.961 . S
Li883 O942 1.970 . S
Li883 O943 1.956 . S
C884 C886 1.348 . S
C884 C887 1.356 . S
C884 O940 1.325 . S
N885 C888 1.314 . S
N885 C889 1.279 . S
C886 C884 1.348 . S
C886 C888 1.353 . S
C886 H944 0.929 . S
C887 C884 1.356 . S
C887 C889 1.358 . S
C887 H945 0.930 . S
C888 N885 1.314 . S
C888 C886 1.353 . S
C888 H946 0.930 . S
C889 N885 1.279 . S
C889 C887 1.358 . S
C889 H947 0.930 . S
C890 C893 1.348 . S
C890 C894 1.356 . S
C890 O941 1.325 . S
C891 N892 1.279 . S
C891 C894 1.358 . S
C891 H948 0.930 . S
N892 C891 1.279 . S
N892 C895 1.314 . S
C893 C890 1.348 . S
C893 C895 1.353 . S
C893 H949 0.929 . S
C894 C890 1.356 . S
C894 C891 1.358 . S
C894 H950 0.930 . S
C895 N892 1.314 . S
C895 C893 1.353 . S
C895 H951 0.930 . S
C896 N897 1.314 . S
C896 C901 1.353 . S
C896 H902 0.930 . S
N897 Li880 1.990 . S
N897 C896 1.314 . S
N897 C899 1.279 . S
C898 C899 1.358 . S
C898 C900 1.356 . S
C898 H952 0.930 . S
C899 N897 1.279 . S
C899 C898 1.358 . S
C899 H903 0.930 . S
C900 C898 1.356 . S
C900 C901 1.348 . S
C901 C896 1.353 . S
C901 C900 1.348 . S
C901 H953 0.929 . S
H902 C896 0.930 . S
H903 C899 0.930 . S
C904 N905 1.314 . S
C904 C906 1.353 . S
C904 H910 0.930 . S
N905 Li881 1.990 . S
N905 C904 1.314 . S
N905 C908 1.279 . S
C906 C904 1.353 . S
C906 C909 1.348 . S
C906 H954 0.929 . S
C907 C908 1.358 . S
C907 C909 1.356 . S
C907 H955 0.930 . S
C908 N905 1.279 . S
C908 C907 1.358 . S
C908 H911 0.930 . S
C909 C906 1.348 . S
C909 C907 1.356 . S
H910 C904 0.930 . S
H911 C908 0.930 . S
C912 C914 1.348 . S
C912 C915 1.356 . S
C912 O942 1.325 . S
N913 C916 1.314 . S
N913 C917 1.279 . S
C914 C912 1.348 . S
C914 C916 1.353 . S
C914 H956 0.929 . S
C915 C912 1.356 . S
C915 C917 1.358 . S
C915 H957 0.930 . S
C916 N913 1.314 . S
C916 C914 1.353 . S
C916 H958 0.930 . S
C917 N913 1.279 . S
C917 C915 1.358 . S
C917 H959 0.930 . S
C918 C919 1.348 . S
C918 C920 1.356 . S
C918 O943 1.325 . S
C919 C918 1.348 . S
C919 C921 1.353 . S
C919 H960 0.929 . S
C920 C918 1.356 . S
C920 C922 1.358 . S
C920 H961 0.930 . S
C921 C919 1.353 . S
C921 N923 1.314 . S
C921 H962 0.930 . S
C922 C920 1.358 . S
C922 N923 1.279 . S
C922 H963 0.930 . S
N923 C921 1.314 . S
N923 C922 1.279 . S
C924 C926 1.353 . S
C924 N927 1.314 . S
C924 H930 0.930 . S
C925 N927 1.279 . S
C925 C928 1.358 . S
C925 H931 0.930 . S
C926 C924 1.353 . S
C926 C929 1.348 . S
C926 H964 0.929 . S
N927 Li882 1.990 . S
N927 C924 1.314 . S
N927 C925 1.279 . S
C928 C925 1.358 . S
C928 C929 1.356 . S
C928 H965 0.930 . S
C929 C926 1.348 . S
C929 C928 1.356 . S
H930 C924 0.930 . S
H931 C925 0.930 . S
C932 N933 1.314 . S
C932 C934 1.353 . S
C932 H938 0.930 . S
N933 Li883 1.990 . S
N933 C932 1.314 . S
N933 C936 1.279 . S
C934 C932 1.353 . S
C934 C937 1.348 . S
C934 H966 0.929 . S
C935 C936 1.358 . S
C935 C937 1.356 . S
C935 H967 0.930 . S
C936 N933 1.279 . S
C936 C935 1.358 . S
C936 H939 0.930 . S
C937 C934 1.348 . S
C937 C935 1.356 . S
H938 C932 0.930 . S
H939 C936 0.930 . S
O940 Li880 1.956 . S
O940 Li881 1.970 . S
O940 Li882 1.961 . S
O940 C884 1.325 . S
O941 Li880 1.970 . S
O941 Li881 1.956 . S
O941 Li883 1.961 . S
O941 C890 1.325 . S
O942 Li880 1.961 . S
O942 Li882 1.956 . S
O942 Li883 1.970 . S
O942 C912 1.325 . S
O943 Li881 1.961 . S
O943 Li882 1.970 . S
O943 Li883 1.956 . S
O943 C918 1.325 . S
H944 C886 0.929 . S
H945 C887 0.930 . S
H946 C888 0.930 . S
H947 C889 0.930 . S
H948 C891 0.930 . S
H949 C893 0.929 . S
H950 C894 0.930 . S
H951 C895 0.930 . S
H952 C898 0.930 . S
H953 C901 0.929 . S
H954 C906 0.929 . S
H955 C907 0.930 . S
H956 C914 0.929 . S
H957 C915 0.930 . S
H958 C916 0.930 . S
H959 C917 0.930 . S
H960 C919 0.929 . S
H961 C920 0.930 . S
H962 C921 0.930 . S
H963 C922 0.930 . S
H964 C926 0.929 . S
H965 C928 0.930 . S
H966 C934 0.929 . S
H967 C935 0.930 . S
Li968 N985 1.990 . S
Li968 O1028 1.956 . S
Li968 O1029 1.970 . S
Li968 O1030 1.961 . S
Li969 N993 1.990 . S
Li969 O1028 1.970 . S
Li969 O1029 1.956 . S
Li969 O1031 1.961 . S
Li970 N1015 1.990 . S
Li970 O1028 1.961 . S
Li970 O1030 1.956 . S
Li970 O1031 1.970 . S
Li971 N1021 1.990 . S
Li971 O1029 1.961 . S
Li971 O1030 1.970 . S
Li971 O1031 1.956 . S
C972 C974 1.348 . S
C972 C975 1.356 . S
C972 O1028 1.325 . S
N973 C976 1.314 . S
N973 C977 1.279 . S
C974 C972 1.348 . S
C974 C976 1.353 . S
C974 H1032 0.929 . S
C975 C972 1.356 . S
C975 C977 1.358 . S
C975 H1033 0.930 . S
C976 N973 1.314 . S
C976 C974 1.353 . S
C976 H1034 0.930 . S
C977 N973 1.279 . S
C977 C975 1.358 . S
C977 H1035 0.930 . S
C978 C981 1.348 . S
C978 C982 1.356 . S
C978 O1029 1.325 . S
C979 N980 1.279 . S
C979 C982 1.358 . S
C979 H1036 0.930 . S
N980 C979 1.279 . S
N980 C983 1.314 . S
C981 C978 1.348 . S
C981 C983 1.353 . S
C981 H1037 0.929 . S
C982 C978 1.356 . S
C982 C979 1.358 . S
C982 H1038 0.930 . S
C983 N980 1.314 . S
C983 C981 1.353 . S
C983 H1039 0.930 . S
C984 N985 1.314 1_556 S
C984 C989 1.353 . S
C984 H990 0.930 . S
N985 Li968 1.990 . S
N985 C984 1.314 1_554 S
N985 C987 1.279 . S
C986 C987 1.358 1_556 S
C986 C988 1.356 . S
C986 H1040 0.927 1_556 S
C987 N985 1.279 . S
C987 C986 1.358 1_554 S
C987 H991 0.930 . S
C988 C986 1.356 . S
C988 C989 1.348 . S
C989 C984 1.353 . S
C989 C988 1.348 . S
C989 H1041 0.929 . S
H990 C984 0.930 . S
H991 C987 0.930 . S
C992 N993 1.314 . S
C992 C994 1.353 . S
C992 H998 0.930 . S
N993 Li969 1.990 . S
N993 C992 1.314 . S
N993 C996 1.279 . S
C994 C992 1.353 . S
C994 C997 1.348 . S
C994 H1042 0.929 . S
C995 C996 1.358 . S
C995 C997 1.356 . S
C995 H1043 0.930 . S
C996 N993 1.279 . S
C996 C995 1.358 . S
C996 H999 0.930 . S
C997 C994 1.348 . S
C997 C995 1.356 . S
H998 C992 0.930 . S
H999 C996 0.930 . S
C1000 C1002 1.348 . S
C1000 C1003 1.356 . S
C1000 O1030 1.325 . S
N1001 C1004 1.314 . S
N1001 C1005 1.279 . S
C1002 C1000 1.348 . S
C1002 C1004 1.353 1_554 S
C1002 H1044 0.929 . S
C1003 C1000 1.356 . S
C1003 C1005 1.358 1_554 S
C1003 H1045 0.930 . S
C1004 N1001 1.314 . S
C1004 C1002 1.353 1_556 S
C1004 H1046 0.930 . S
C1005 N1001 1.279 . S
C1005 C1003 1.358 1_556 S
C1005 H1047 0.930 . S
C1006 C1007 1.348 . S
C1006 C1008 1.356 . S
C1006 O1031 1.325 . S
C1007 C1006 1.348 . S
C1007 C1009 1.353 . S
C1007 H1048 0.929 . S
C1008 C1006 1.356 . S
C1008 C1010 1.358 . S
C1008 H1049 0.930 . S
C1009 C1007 1.353 . S
C1009 N1011 1.314 . S
C1009 H1050 0.930 . S
C1010 C1008 1.358 . S
C1010 N1011 1.279 . S
C1010 H1051 0.930 . S
N1011 C1009 1.314 . S
N1011 C1010 1.279 . S
C1012 C1014 1.353 . S
C1012 N1015 1.314 . S
C1012 H1018 0.930 . S
C1013 N1015 1.279 . S
C1013 C1016 1.358 . S
C1013 H1019 0.930 . S
C1014 C1012 1.353 . S
C1014 C1017 1.348 . S
C1014 H1052 0.929 . S
N1015 Li970 1.990 . S
N1015 C1012 1.314 . S
N1015 C1013 1.279 . S
C1016 C1013 1.358 . S
C1016 C1017 1.356 . S
C1016 H1053 0.930 . S
C1017 C1014 1.348 . S
C1017 C1016 1.356 . S
H1018 C1012 0.930 . S
H1019 C1013 0.930 . S
C1020 N1021 1.314 . S
C1020 C1022 1.353 . S
C1020 H1026 0.930 . S
N1021 Li971 1.990 . S
N1021 C1020 1.314 . S
N1021 C1024 1.279 . S
C1022 C1020 1.353 . S
C1022 C1025 1.348 . S
C1022 H1054 0.929 . S
C1023 C1024 1.358 . S
C1023 C1025 1.356 . S
C1023 H1055 0.930 . S
C1024 N1021 1.279 . S
C1024 C1023 1.358 . S
C1024 H1027 0.930 . S
C1025 C1022 1.348 . S
C1025 C1023 1.356 . S
H1026 C1020 0.930 . S
H1027 C1024 0.930 . S
O1028 Li968 1.956 . S
O1028 Li969 1.970 . S
O1028 Li970 1.961 . S
O1028 C972 1.325 . S
O1029 Li968 1.970 . S
O1029 Li969 1.956 . S
O1029 Li971 1.961 . S
O1029 C978 1.325 . S
O1030 Li968 1.961 . S
O1030 Li970 1.956 . S
O1030 Li971 1.970 . S
O1030 C1000 1.325 . S
O1031 Li969 1.961 . S
O1031 Li970 1.970 . S
O1031 Li971 1.956 . S
O1031 C1006 1.325 . S
H1032 C974 0.929 . S
H1033 C975 0.930 . S
H1034 C976 0.930 . S
H1035 C977 0.930 . S
H1036 C979 0.930 . S
H1037 C981 0.929 . S
H1038 C982 0.930 . S
H1039 C983 0.930 . S
H1040 C986 0.927 1_554 S
H1041 C989 0.929 . S
H1042 C994 0.929 . S
H1043 C995 0.930 . S
H1044 C1002 0.929 . S
H1045 C1003 0.930 . S
H1046 C1004 0.930 . S
H1047 C1005 0.930 . S
H1048 C1007 0.929 . S
H1049 C1008 0.930 . S
H1050 C1009 0.930 . S
H1051 C1010 0.930 . S
H1052 C1014 0.929 . S
H1053 C1016 0.930 . S
H1054 C1022 0.929 . S
H1055 C1023 0.930 . S
Li1056 N1073 1.990 . S
Li1056 O1116 1.956 . S
Li1056 O1117 1.970 . S
Li1056 O1118 1.961 . S
Li1057 N1081 1.990 . S
Li1057 O1116 1.970 . S
Li1057 O1117 1.956 . S
Li1057 O1119 1.961 . S
Li1058 N1103 1.990 . S
Li1058 O1116 1.961 . S
Li1058 O1118 1.956 . S
Li1058 O1119 1.970 . S
Li1059 N1109 1.990 . S
Li1059 O1117 1.961 . S
Li1059 O1118 1.970 . S
Li1059 O1119 1.956 . S
C1060 C1062 1.348 . S
C1060 C1063 1.356 . S
C1060 O1116 1.325 . S
N1061 C1064 1.314 . S
N1061 C1065 1.279 . S
C1062 C1060 1.348 . S
C1062 C1064 1.353 . S
C1062 H1120 0.929 . S
C1063 C1060 1.356 . S
C1063 C1065 1.358 . S
C1063 H1121 0.930 . S
C1064 N1061 1.314 . S
C1064 C1062 1.353 . S
C1064 H1122 0.930 . S
C1065 N1061 1.279 . S
C1065 C1063 1.358 . S
C1065 H1123 0.930 . S
C1066 C1069 1.348 . S
C1066 C1070 1.356 . S
C1066 O1117 1.325 . S
C1067 N1068 1.279 . S
C1067 C1070 1.358 . S
C1067 H1124 0.930 . S
N1068 C1067 1.279 . S
N1068 C1071 1.314 . S
C1069 C1066 1.348 . S
C1069 C1071 1.353 . S
C1069 H1125 0.929 . S
C1070 C1066 1.356 . S
C1070 C1067 1.358 . S
C1070 H1126 0.930 . S
C1071 N1068 1.314 . S
C1071 C1069 1.353 . S
C1071 H1127 0.930 . S
C1072 N1073 1.314 . S
C1072 C1077 1.353 . S
C1072 H1078 0.930 . S
N1073 Li1056 1.990 . S
N1073 C1072 1.314 . S
N1073 C1075 1.279 . S
C1074 C1075 1.358 . S
C1074 C1076 1.356 . S
C1074 H1128 0.930 . S
C1075 N1073 1.279 . S
C1075 C1074 1.358 . S
C1075 H1079 0.930 . S
C1076 C1074 1.356 . S
C1076 C1077 1.348 . S
C1077 C1072 1.353 . S
C1077 C1076 1.348 . S
C1077 H1129 0.929 . S
H1078 C1072 0.930 . S
H1079 C1075 0.930 . S
C1080 N1081 1.314 . S
C1080 C1082 1.353 . S
C1080 H1086 0.930 . S
N1081 Li1057 1.990 . S
N1081 C1080 1.314 . S
N1081 C1084 1.279 . S
C1082 C1080 1.353 . S
C1082 C1085 1.348 . S
C1082 H1130 0.929 . S
C1083 C1084 1.358 . S
C1083 C1085 1.356 . S
C1083 H1131 0.930 . S
C1084 N1081 1.279 . S
C1084 C1083 1.358 . S
C1084 H1087 0.930 . S
C1085 C1082 1.348 . S
C1085 C1083 1.356 . S
H1086 C1080 0.930 . S
H1087 C1084 0.930 . S
C1088 C1090 1.348 . S
C1088 C1091 1.356 . S
C1088 O1118 1.325 . S
N1089 C1092 1.314 . S
N1089 C1093 1.279 . S
C1090 C1088 1.348 . S
C1090 C1092 1.353 . S
C1090 H1132 0.929 . S
C1091 C1088 1.356 . S
C1091 C1093 1.358 . S
C1091 H1133 0.930 . S
C1092 N1089 1.314 . S
C1092 C1090 1.353 . S
C1092 H1134 0.930 . S
C1093 N1089 1.279 . S
C1093 C1091 1.358 . S
C1093 H1135 0.930 . S
C1094 C1095 1.348 . S
C1094 C1096 1.356 . S
C1094 O1119 1.325 . S
C1095 C1094 1.348 . S
C1095 C1097 1.353 . S
C1095 H1136 0.929 . S
C1096 C1094 1.356 . S
C1096 C1098 1.358 . S
C1096 H1137 0.930 . S
C1097 C1095 1.353 . S
C1097 N1099 1.314 . S
C1097 H1138 0.930 . S
C1098 C1096 1.358 . S
C1098 N1099 1.279 . S
C1098 H1139 0.930 . S
N1099 C1097 1.314 . S
N1099 C1098 1.279 . S
C1100 C1102 1.353 . S
C1100 N1103 1.314 . S
C1100 H1106 0.930 . S
C1101 N1103 1.279 . S
C1101 C1104 1.358 . S
C1101 H1107 0.930 . S
C1102 C1100 1.353 . S
C1102 C1105 1.348 . S
C1102 H1140 0.929 . S
N1103 Li1058 1.990 . S
N1103 C1100 1.314 . S
N1103 C1101 1.279 . S
C1104 C1101 1.358 . S
C1104 C1105 1.356 . S
C1104 H1141 0.930 . S
C1105 C1102 1.348 . S
C1105 C1104 1.356 . S
H1106 C1100 0.930 . S
H1107 C1101 0.930 . S
C1108 N1109 1.314 . S
C1108 C1110 1.353 1_554 S
C1108 H1114 0.930 . S
N1109 Li1059 1.990 . S
N1109 C1108 1.314 . S
N1109 C1112 1.279 . S
C1110 C1108 1.353 1_556 S
C1110 C1113 1.348 . S
C1110 H1142 0.929 . S
C1111 C1112 1.358 . S
C1111 C1113 1.356 1_554 S
C1111 H1143 0.930 . S
C1112 N1109 1.279 . S
C1112 C1111 1.358 . S
C1112 H1115 0.930 . S
C1113 C1110 1.348 . S
C1113 C1111 1.356 1_556 S
H1114 C1108 0.930 . S
H1115 C1112 0.930 . S
O1116 Li1056 1.956 . S
O1116 Li1057 1.970 . S
O1116 Li1058 1.961 . S
O1116 C1060 1.325 . S
O1117 Li1056 1.970 . S
O1117 Li1057 1.956 . S
O1117 Li1059 1.961 . S
O1117 C1066 1.325 . S
O1118 Li1056 1.961 . S
O1118 Li1058 1.956 . S
O1118 Li1059 1.970 . S
O1118 C1088 1.325 . S
O1119 Li1057 1.961 . S
O1119 Li1058 1.970 . S
O1119 Li1059 1.956 . S
O1119 C1094 1.325 . S
H1120 C1062 0.929 . S
H1121 C1063 0.930 . S
H1122 C1064 0.930 . S
H1123 C1065 0.930 . S
H1124 C1067 0.930 . S
H1125 C1069 0.929 . S
H1126 C1070 0.930 . S
H1127 C1071 0.930 . S
H1128 C1074 0.930 . S
H1129 C1077 0.929 . S
H1130 C1082 0.929 . S
H1131 C1083 0.930 . S
H1132 C1090 0.929 . S
H1133 C1091 0.930 . S
H1134 C1092 0.930 . S
H1135 C1093 0.930 . S
H1136 C1095 0.929 . S
H1137 C1096 0.930 . S
H1138 C1097 0.930 . S
H1139 C1098 0.930 . S
H1140 C1102 0.929 . S
H1141 C1104 0.930 . S
H1142 C1110 0.929 . S
H1143 C1111 0.930 . S
Li1144 N1161 1.990 . S
Li1144 O1204 1.956 . S
Li1144 O1205 1.970 . S
Li1144 O1206 1.961 . S
Li1145 N1169 1.990 . S
Li1145 O1204 1.970 . S
Li1145 O1205 1.956 . S
Li1145 O1207 1.961 . S
Li1146 N1191 1.990 . S
Li1146 O1204 1.961 . S
Li1146 O1206 1.956 . S
Li1146 O1207 1.970 . S
Li1147 N1197 1.990 . S
Li1147 O1205 1.961 . S
Li1147 O1206 1.970 . S
Li1147 O1207 1.956 . S
C1148 C1150 1.348 . S
C1148 C1151 1.356 . S
C1148 O1204 1.325 . S
N1149 C1152 1.314 . S
N1149 C1153 1.279 . S
C1150 C1148 1.348 . S
C1150 C1152 1.353 . S
C1150 H1208 0.929 . S
C1151 C1148 1.356 . S
C1151 C1153 1.358 . S
C1151 H1209 0.930 . S
C1152 N1149 1.314 . S
C1152 C1150 1.353 . S
C1152 H1210 0.930 . S
C1153 N1149 1.279 . S
C1153 C1151 1.358 . S
C1153 H1211 0.930 . S
C1154 C1157 1.348 . S
C1154 C1158 1.356 . S
C1154 O1205 1.325 . S
C1155 N1156 1.279 . S
C1155 C1158 1.358 1_554 S
C1155 H1212 0.930 . S
N1156 C1155 1.279 . S
N1156 C1159 1.314 . S
C1157 C1154 1.348 . S
C1157 C1159 1.353 1_556 S
C1157 H1213 0.929 . S
C1158 C1154 1.356 . S
C1158 C1155 1.358 1_556 S
C1158 H1214 0.930 . S
C1159 N1156 1.314 . S
C1159 C1157 1.353 1_554 S
C1159 H1215 0.930 . S
C1160 N1161 1.314 . S
C1160 C1165 1.353 . S
C1160 H1166 0.930 . S
N1161 Li1144 1.990 . S
N1161 C1160 1.314 . S
N1161 C1163 1.279 . S
C1162 C1163 1.358 . S
C1162 C1164 1.356 . S
C1162 H1216 0.930 . S
C1163 N1161 1.279 . S
C1163 C1162 1.358 . S
C1163 H1167 0.930 . S
C1164 C1162 1.356 . S
C1164 C1165 1.348 . S
C1165 C1160 1.353 . S
C1165 C1164 1.348 . S
C1165 H1217 0.929 . S
H1166 C1160 0.930 . S
H1167 C1163 0.930 . S
C1168 N1169 1.314 . S
C1168 C1170 1.353 . S
C1168 H1174 0.930 . S
N1169 Li1145 1.990 . S
N1169 C1168 1.314 . S
N1169 C1172 1.279 . S
C1170 C1168 1.353 . S
C1170 C1173 1.348 . S
C1170 H1218 0.929 . S
C1171 C1172 1.358 . S
C1171 C1173 1.356 . S
C1171 H1219 0.930 . S
C1172 N1169 1.279 . S
C1172 C1171 1.358 . S
C1172 H1175 0.930 . S
C1173 C1170 1.348 . S
C1173 C1171 1.356 . S
H1174 C1168 0.930 . S
H1175 C1172 0.930 . S
C1176 C1178 1.348 . S
C1176 C1179 1.356 . S
C1176 O1206 1.325 . S
N1177 C1180 1.314 . S
N1177 C1181 1.279 . S
C1178 C1176 1.348 . S
C1178 C1180 1.353 . S
C1178 H1220 0.929 . S
C1179 C1176 1.356 . S
C1179 C1181 1.358 . S
C1179 H1221 0.930 . S
C1180 N1177 1.314 . S
C1180 C1178 1.353 . S
C1180 H1222 0.930 . S
C1181 N1177 1.279 . S
C1181 C1179 1.358 . S
C1181 H1223 0.930 . S
C1182 C1183 1.348 . S
C1182 C1184 1.356 . S
C1182 O1207 1.325 . S
C1183 C1182 1.348 . S
C1183 C1185 1.353 . S
C1183 H1224 0.929 . S
C1184 C1182 1.356 . S
C1184 C1186 1.358 . S
C1184 H1225 0.930 . S
C1185 C1183 1.353 . S
C1185 N1187 1.314 . S
C1185 H1226 0.930 . S
C1186 C1184 1.358 . S
C1186 N1187 1.279 . S
C1186 H1227 0.930 . S
N1187 C1185 1.314 . S
N1187 C1186 1.279 . S
C1188 C1190 1.353 . S
C1188 N1191 1.314 . S
C1188 H1194 0.930 . S
C1189 N1191 1.279 . S
C1189 C1192 1.358 . S
C1189 H1195 0.930 . S
C1190 C1188 1.353 . S
C1190 C1193 1.348 . S
C1190 H1228 0.929 . S
N1191 Li1146 1.990 . S
N1191 C1188 1.314 . S
N1191 C1189 1.279 . S
C1192 C1189 1.358 . S
C1192 C1193 1.356 . S
C1192 H1229 0.930 . S
C1193 C1190 1.348 . S
C1193 C1192 1.356 . S
H1194 C1188 0.930 . S
H1195 C1189 0.930 . S
C1196 N1197 1.314 1_554 S
C1196 C1198 1.353 . S
C1196 H1202 0.930 . S
N1197 Li1147 1.990 . S
N1197 C1196 1.314 1_556 S
N1197 C1200 1.279 . S
C1198 C1196 1.353 . S
C1198 C1201 1.348 . S
C1198 H1230 0.929 . S
C1199 C1200 1.358 1_554 S
C1199 C1201 1.356 . S
C1199 H1231 0.927 1_554 S
C1200 N1197 1.279 . S
C1200 C1199 1.358 1_556 S
C1200 H1203 0.930 . S
C1201 C1198 1.348 . S
C1201 C1199 1.356 . S
H1202 C1196 0.930 . S
H1203 C1200 0.930 . S
O1204 Li1144 1.956 . S
O1204 Li1145 1.970 . S
O1204 Li1146 1.961 . S
O1204 C1148 1.325 . S
O1205 Li1144 1.970 . S
O1205 Li1145 1.956 . S
O1205 Li1147 1.961 . S
O1205 C1154 1.325 . S
O1206 Li1144 1.961 . S
O1206 Li1146 1.956 . S
O1206 Li1147 1.970 . S
O1206 C1176 1.325 . S
O1207 Li1145 1.961 . S
O1207 Li1146 1.970 . S
O1207 Li1147 1.956 . S
O1207 C1182 1.325 . S
H1208 C1150 0.929 . S
H1209 C1151 0.930 . S
H1210 C1152 0.930 . S
H1211 C1153 0.930 . S
H1212 C1155 0.930 . S
H1213 C1157 0.929 . S
H1214 C1158 0.930 . S
H1215 C1159 0.930 . S
H1216 C1162 0.930 . S
H1217 C1165 0.929 . S
H1218 C1170 0.929 . S
H1219 C1171 0.930 . S
H1220 C1178 0.929 . S
H1221 C1179 0.930 . S
H1222 C1180 0.930 . S
H1223 C1181 0.930 . S
H1224 C1183 0.929 . S
H1225 C1184 0.930 . S
H1226 C1185 0.930 . S
H1227 C1186 0.930 . S
H1228 C1190 0.929 . S
H1229 C1192 0.930 . S
H1230 C1198 0.929 . S
H1231 C1199 0.927 1_556 S
Li1232 N1249 1.990 . S
Li1232 O1292 1.956 . S
Li1232 O1293 1.970 . S
Li1232 O1294 1.961 . S
Li1233 N1257 1.990 . S
Li1233 O1292 1.970 . S
Li1233 O1293 1.956 . S
Li1233 O1295 1.961 . S
Li1234 N1279 1.990 . S
Li1234 O1292 1.961 . S
Li1234 O1294 1.956 . S
Li1234 O1295 1.970 . S
Li1235 N1285 1.990 . S
Li1235 O1293 1.961 . S
Li1235 O1294 1.970 . S
Li1235 O1295 1.956 . S
C1236 C1238 1.348 . S
C1236 C1239 1.356 . S
C1236 O1292 1.325 . S
N1237 C1240 1.314 . S
N1237 C1241 1.279 . S
C1238 C1236 1.348 . S
C1238 C1240 1.353 . S
C1238 H1296 0.929 . S
C1239 C1236 1.356 . S
C1239 C1241 1.358 . S
C1239 H1297 0.930 . S
C1240 N1237 1.314 . S
C1240 C1238 1.353 . S
C1240 H1298 0.930 . S
C1241 N1237 1.279 . S
C1241 C1239 1.358 . S
C1241 H1299 0.930 . S
C1242 C1245 1.348 . S
C1242 C1246 1.356 . S
C1242 O1293 1.325 . S
C1243 N1244 1.279 . S
C1243 C1246 1.358 . S
C1243 H1300 0.930 . S
N1244 C1243 1.279 . S
N1244 C1247 1.314 . S
C1245 C1242 1.348 . S
C1245 C1247 1.353 . S
C1245 H1301 0.929 . S
C1246 C1242 1.356 . S
C1246 C1243 1.358 . S
C1246 H1302 0.930 . S
C1247 N1244 1.314 . S
C1247 C1245 1.353 . S
C1247 H1303 0.930 . S
C1248 N1249 1.314 . S
C1248 C1253 1.353 . S
C1248 H1254 0.930 . S
N1249 Li1232 1.990 . S
N1249 C1248 1.314 . S
N1249 C1251 1.279 . S
C1250 C1251 1.358 . S
C1250 C1252 1.356 . S
C1250 H1304 0.930 . S
C1251 N1249 1.279 . S
C1251 C1250 1.358 . S
C1251 H1255 0.930 . S
C1252 C1250 1.356 . S
C1252 C1253 1.348 . S
C1253 C1248 1.353 . S
C1253 C1252 1.348 . S
C1253 H1305 0.929 . S
H1254 C1248 0.930 . S
H1255 C1251 0.930 . S
C1256 N1257 1.314 . S
C1256 C1258 1.353 . S
C1256 H1262 0.930 . S
N1257 Li1233 1.990 . S
N1257 C1256 1.314 . S
N1257 C1260 1.279 . S
C1258 C1256 1.353 . S
C1258 C1261 1.348 . S
C1258 H1306 0.929 . S
C1259 C1260 1.358 . S
C1259 C1261 1.356 . S
C1259 H1307 0.930 . S
C1260 N1257 1.279 . S
C1260 C1259 1.358 . S
C1260 H1263 0.930 . S
C1261 C1258 1.348 . S
C1261 C1259 1.356 . S
H1262 C1256 0.930 . S
H1263 C1260 0.930 . S
C1264 C1266 1.348 . S
C1264 C1267 1.356 . S
C1264 O1294 1.325 . S
N1265 C1268 1.314 . S
N1265 C1269 1.279 . S
C1266 C1264 1.348 . S
C1266 C1268 1.353 . S
C1266 H1308 0.929 . S
C1267 C1264 1.356 . S
C1267 C1269 1.358 . S
C1267 H1309 0.930 . S
C1268 N1265 1.314 . S
C1268 C1266 1.353 . S
C1268 H1310 0.930 . S
C1269 N1265 1.279 . S
C1269 C1267 1.358 . S
C1269 H1311 0.930 . S
C1270 C1271 1.348 . S
C1270 C1272 1.356 . S
C1270 O1295 1.325 . S
C1271 C1270 1.348 . S
C1271 C1273 1.353 . S
C1271 H1312 0.929 . S
C1272 C1270 1.356 . S
C1272 C1274 1.358 . S
C1272 H1313 0.930 . S
C1273 C1271 1.353 . S
C1273 N1275 1.314 . S
C1273 H1314 0.930 . S
C1274 C1272 1.358 . S
C1274 N1275 1.279 . S
C1274 H1315 0.930 . S
N1275 C1273 1.314 . S
N1275 C1274 1.279 . S
C1276 C1278 1.353 . S
C1276 N1279 1.314 . S
C1276 H1282 0.930 . S
C1277 N1279 1.279 . S
C1277 C1280 1.358 . S
C1277 H1283 0.930 . S
C1278 C1276 1.353 . S
C1278 C1281 1.348 . S
C1278 H1316 0.929 . S
N1279 Li1234 1.990 . S
N1279 C1276 1.314 . S
N1279 C1277 1.279 . S
C1280 C1277 1.358 . S
C1280 C1281 1.356 . S
C1280 H1317 0.930 . S
C1281 C1278 1.348 . S
C1281 C1280 1.356 . S
H1282 C1276 0.930 . S
H1283 C1277 0.930 . S
C1284 N1285 1.314 . S
C1284 C1286 1.353 . S
C1284 H1290 0.930 . S
N1285 Li1235 1.990 . S
N1285 C1284 1.314 . S
N1285 C1288 1.279 . S
C1286 C1284 1.353 . S
C1286 C1289 1.348 . S
C1286 H1318 0.929 . S
C1287 C1288 1.358 . S
C1287 C1289 1.356 . S
C1287 H1319 0.930 . S
C1288 N1285 1.279 . S
C1288 C1287 1.358 . S
C1288 H1291 0.930 . S
C1289 C1286 1.348 . S
C1289 C1287 1.356 . S
H1290 C1284 0.930 . S
H1291 C1288 0.930 . S
O1292 Li1232 1.956 . S
O1292 Li1233 1.970 . S
O1292 Li1234 1.961 . S
O1292 C1236 1.325 . S
O1293 Li1232 1.970 . S
O1293 Li1233 1.956 . S
O1293 Li1235 1.961 . S
O1293 C1242 1.325 . S
O1294 Li1232 1.961 . S
O1294 Li1234 1.956 . S
O1294 Li1235 1.970 . S
O1294 C1264 1.325 . S
O1295 Li1233 1.961 . S
O1295 Li1234 1.970 . S
O1295 Li1235 1.956 . S
O1295 C1270 1.325 . S
H1296 C1238 0.929 . S
H1297 C1239 0.930 . S
H1298 C1240 0.930 . S
H1299 C1241 0.930 . S
H1300 C1243 0.930 . S
H1301 C1245 0.929 . S
H1302 C1246 0.930 . S
H1303 C1247 0.930 . S
H1304 C1250 0.930 . S
H1305 C1253 0.929 . S
H1306 C1258 0.929 . S
H1307 C1259 0.930 . S
H1308 C1266 0.929 . S
H1309 C1267 0.930 . S
H1310 C1268 0.930 . S
H1311 C1269 0.930 . S
H1312 C1271 0.929 . S
H1313 C1272 0.930 . S
H1314 C1273 0.930 . S
H1315 C1274 0.930 . S
H1316 C1278 0.929 . S
H1317 C1280 0.930 . S
H1318 C1286 0.929 . S
H1319 C1287 0.930 . S
Li1320 N1337 1.990 . S
Li1320 O1380 1.956 . S
Li1320 O1381 1.970 . S
Li1320 O1382 1.961 . S
Li1321 N1345 1.990 . S
Li1321 O1380 1.970 . S
Li1321 O1381 1.956 . S
Li1321 O1383 1.961 . S
Li1322 N1367 1.990 . S
Li1322 O1380 1.961 . S
Li1322 O1382 1.956 . S
Li1322 O1383 1.970 . S
Li1323 N1373 1.990 . S
Li1323 O1381 1.961 . S
Li1323 O1382 1.970 . S
Li1323 O1383 1.956 . S
C1324 C1326 1.348 . S
C1324 C1327 1.356 . S
C1324 O1380 1.325 . S
N1325 C1328 1.314 . S
N1325 C1329 1.279 . S
C1326 C1324 1.348 . S
C1326 C1328 1.353 . S
C1326 H1384 0.929 . S
C1327 C1324 1.356 . S
C1327 C1329 1.358 . S
C1327 H1385 0.930 . S
C1328 N1325 1.314 . S
C1328 C1326 1.353 . S
C1328 H1386 0.930 . S
C1329 N1325 1.279 . S
C1329 C1327 1.358 . S
C1329 H1387 0.930 . S
C1330 C1333 1.348 . S
C1330 C1334 1.356 . S
C1330 O1381 1.325 . S
C1331 N1332 1.279 . S
C1331 C1334 1.358 . S
C1331 H1388 0.930 . S
N1332 C1331 1.279 . S
N1332 C1335 1.314 . S
C1333 C1330 1.348 . S
C1333 C1335 1.353 . S
C1333 H1389 0.929 . S
C1334 C1330 1.356 . S
C1334 C1331 1.358 . S
C1334 H1390 0.930 . S
C1335 N1332 1.314 . S
C1335 C1333 1.353 . S
C1335 H1391 0.930 . S
C1336 N1337 1.314 . S
C1336 C1341 1.353 . S
C1336 H1342 0.930 . S
N1337 Li1320 1.990 . S
N1337 C1336 1.314 . S
N1337 C1339 1.279 . S
C1338 C1339 1.358 . S
C1338 C1340 1.356 . S
C1338 H1392 0.930 . S
C1339 N1337 1.279 . S
C1339 C1338 1.358 . S
C1339 H1343 0.930 . S
C1340 C1338 1.356 . S
C1340 C1341 1.348 . S
C1341 C1336 1.353 . S
C1341 C1340 1.348 . S
C1341 H1393 0.929 . S
H1342 C1336 0.930 . S
H1343 C1339 0.930 . S
C1344 N1345 1.314 . S
C1344 C1346 1.353 . S
C1344 H1350 0.930 . S
N1345 Li1321 1.990 . S
N1345 C1344 1.314 . S
N1345 C1348 1.279 . S
C1346 C1344 1.353 . S
C1346 C1349 1.348 . S
C1346 H1394 0.929 . S
C1347 C1348 1.358 . S
C1347 C1349 1.356 . S
C1347 H1395 0.930 . S
C1348 N1345 1.279 . S
C1348 C1347 1.358 . S
C1348 H1351 0.930 . S
C1349 C1346 1.348 . S
C1349 C1347 1.356 . S
H1350 C1344 0.930 . S
H1351 C1348 0.930 . S
C1352 C1354 1.348 . S
C1352 C1355 1.356 . S
C1352 O1382 1.325 . S
N1353 C1356 1.314 . S
N1353 C1357 1.279 . S
C1354 C1352 1.348 . S
C1354 C1356 1.353 . S
C1354 H1396 0.929 . S
C1355 C1352 1.356 . S
C1355 C1357 1.358 . S
C1355 H1397 0.930 . S
C1356 N1353 1.314 . S
C1356 C1354 1.353 . S
C1356 H1398 0.930 . S
C1357 N1353 1.279 . S
C1357 C1355 1.358 . S
C1357 H1399 0.930 . S
C1358 C1359 1.348 . S
C1358 C1360 1.356 . S
C1358 O1383 1.325 . S
C1359 C1358 1.348 . S
C1359 C1361 1.353 . S
C1359 H1400 0.929 . S
C1360 C1358 1.356 . S
C1360 C1362 1.358 . S
C1360 H1401 0.930 . S
C1361 C1359 1.353 . S
C1361 N1363 1.314 . S
C1361 H1402 0.930 . S
C1362 C1360 1.358 . S
C1362 N1363 1.279 . S
C1362 H1403 0.930 . S
N1363 C1361 1.314 . S
N1363 C1362 1.279 . S
C1364 C1366 1.353 . S
C1364 N1367 1.314 . S
C1364 H1370 0.930 . S
C1365 N1367 1.279 . S
C1365 C1368 1.358 . S
C1365 H1371 0.930 . S
C1366 C1364 1.353 . S
C1366 C1369 1.348 . S
C1366 H1404 0.929 . S
N1367 Li1322 1.990 . S
N1367 C1364 1.314 . S
N1367 C1365 1.279 . S
C1368 C1365 1.358 . S
C1368 C1369 1.356 . S
C1368 H1405 0.930 . S
C1369 C1366 1.348 . S
C1369 C1368 1.356 . S
H1370 C1364 0.930 . S
H1371 C1365 0.930 . S
C1372 N1373 1.314 . S
C1372 C1374 1.353 . S
C1372 H1378 0.930 . S
N1373 Li1323 1.990 . S
N1373 C1372 1.314 . S
N1373 C1376 1.279 . S
C1374 C1372 1.353 . S
C1374 C1377 1.348 . S
C1374 H1406 0.929 . S
C1375 C1376 1.358 . S
C1375 C1377 1.356 . S
C1375 H1407 0.930 . S
C1376 N1373 1.279 . S
C1376 C1375 1.358 . S
C1376 H1379 0.930 . S
C1377 C1374 1.348 . S
C1377 C1375 1.356 . S
H1378 C1372 0.930 . S
H1379 C1376 0.930 . S
O1380 Li1320 1.956 . S
O1380 Li1321 1.970 . S
O1380 Li1322 1.961 . S
O1380 C1324 1.325 . S
O1381 Li1320 1.970 . S
O1381 Li1321 1.956 . S
O1381 Li1323 1.961 . S
O1381 C1330 1.325 . S
O1382 Li1320 1.961 . S
O1382 Li1322 1.956 . S
O1382 Li1323 1.970 . S
O1382 C1352 1.325 . S
O1383 Li1321 1.961 . S
O1383 Li1322 1.970 . S
O1383 Li1323 1.956 . S
O1383 C1358 1.325 . S
H1384 C1326 0.929 . S
H1385 C1327 0.930 . S
H1386 C1328 0.930 . S
H1387 C1329 0.930 . S
H1388 C1331 0.930 . S
H1389 C1333 0.929 . S
H1390 C1334 0.930 . S
H1391 C1335 0.930 . S
H1392 C1338 0.930 . S
H1393 C1341 0.929 . S
H1394 C1346 0.929 . S
H1395 C1347 0.930 . S
H1396 C1354 0.929 . S
H1397 C1355 0.930 . S
H1398 C1356 0.930 . S
H1399 C1357 0.930 . S
H1400 C1359 0.929 . S
H1401 C1360 0.930 . S
H1402 C1361 0.930 . S
H1403 C1362 0.930 . S
H1404 C1366 0.929 . S
H1405 C1368 0.930 . S
H1406 C1374 0.929 . S
H1407 C1375 0.930 . S
Li1408 N1425 1.990 . S
Li1408 O1468 1.956 . S
Li1408 O1469 1.970 . S
Li1408 O1470 1.961 . S
Li1409 N1433 1.990 . S
Li1409 O1468 1.970 . S
Li1409 O1469 1.956 . S
Li1409 O1471 1.961 . S
Li1410 N1455 1.990 . S
Li1410 O1468 1.961 . S
Li1410 O1470 1.956 . S
Li1410 O1471 1.970 . S
Li1411 N1461 1.990 . S
Li1411 O1469 1.961 . S
Li1411 O1470 1.970 . S
Li1411 O1471 1.956 . S
C1412 C1414 1.348 . S
C1412 C1415 1.356 . S
C1412 O1468 1.325 . S
N1413 C1416 1.314 . S
N1413 C1417 1.279 . S
C1414 C1412 1.348 . S
C1414 C1416 1.353 . S
C1414 H1472 0.929 . S
C1415 C1412 1.356 . S
C1415 C1417 1.358 . S
C1415 H1473 0.930 . S
C1416 N1413 1.314 . S
C1416 C1414 1.353 . S
C1416 H1474 0.930 . S
C1417 N1413 1.279 . S
C1417 C1415 1.358 . S
C1417 H1475 0.930 . S
C1418 C1421 1.348 . S
C1418 C1422 1.356 . S
C1418 O1469 1.325 . S
C1419 N1420 1.279 . S
C1419 C1422 1.358 . S
C1419 H1476 0.930 . S
N1420 C1419 1.279 . S
N1420 C1423 1.314 . S
C1421 C1418 1.348 . S
C1421 C1423 1.353 . S
C1421 H1477 0.929 . S
C1422 C1418 1.356 . S
C1422 C1419 1.358 . S
C1422 H1478 0.930 . S
C1423 N1420 1.314 . S
C1423 C1421 1.353 . S
C1423 H1479 0.930 . S
C1424 N1425 1.314 . S
C1424 C1429 1.353 . S
C1424 H1430 0.930 . S
N1425 Li1408 1.990 . S
N1425 C1424 1.314 . S
N1425 C1427 1.279 . S
C1426 C1427 1.358 . S
C1426 C1428 1.356 . S
C1426 H1480 0.930 . S
C1427 N1425 1.279 . S
C1427 C1426 1.358 . S
C1427 H1431 0.930 . S
C1428 C1426 1.356 . S
C1428 C1429 1.348 . S
C1429 C1424 1.353 . S
C1429 C1428 1.348 . S
C1429 H1481 0.929 . S
H1430 C1424 0.930 . S
H1431 C1427 0.930 . S
C1432 N1433 1.314 . S
C1432 C1434 1.353 . S
C1432 H1438 0.930 . S
N1433 Li1409 1.990 . S
N1433 C1432 1.314 . S
N1433 C1436 1.279 . S
C1434 C1432 1.353 . S
C1434 C1437 1.348 . S
C1434 H1482 0.929 . S
C1435 C1436 1.358 . S
C1435 C1437 1.356 . S
C1435 H1483 0.930 . S
C1436 N1433 1.279 . S
C1436 C1435 1.358 . S
C1436 H1439 0.930 . S
C1437 C1434 1.348 . S
C1437 C1435 1.356 . S
H1438 C1432 0.930 . S
H1439 C1436 0.930 . S
C1440 C1442 1.348 . S
C1440 C1443 1.356 . S
C1440 O1470 1.325 . S
N1441 C1444 1.314 . S
N1441 C1445 1.279 . S
C1442 C1440 1.348 . S
C1442 C1444 1.353 . S
C1442 H1484 0.929 . S
C1443 C1440 1.356 . S
C1443 C1445 1.358 . S
C1443 H1485 0.930 . S
C1444 N1441 1.314 . S
C1444 C1442 1.353 . S
C1444 H1486 0.930 . S
C1445 N1441 1.279 . S
C1445 C1443 1.358 . S
C1445 H1487 0.930 . S
C1446 C1447 1.348 . S
C1446 C1448 1.356 . S
C1446 O1471 1.325 . S
C1447 C1446 1.348 . S
C1447 C1449 1.353 . S
C1447 H1488 0.929 . S
C1448 C1446 1.356 . S
C1448 C1450 1.358 . S
C1448 H1489 0.930 . S
C1449 C1447 1.353 . S
C1449 N1451 1.314 . S
C1449 H1490 0.930 . S
C1450 C1448 1.358 . S
C1450 N1451 1.279 . S
C1450 H1491 0.930 . S
N1451 C1449 1.314 . S
N1451 C1450 1.279 . S
C1452 C1454 1.353 . S
C1452 N1455 1.314 . S
C1452 H1458 0.930 . S
C1453 N1455 1.279 . S
C1453 C1456 1.358 . S
C1453 H1459 0.930 . S
C1454 C1452 1.353 . S
C1454 C1457 1.348 . S
C1454 H1492 0.929 . S
N1455 Li1410 1.990 . S
N1455 C1452 1.314 . S
N1455 C1453 1.279 . S
C1456 C1453 1.358 . S
C1456 C1457 1.356 . S
C1456 H1493 0.930 . S
C1457 C1454 1.348 . S
C1457 C1456 1.356 . S
H1458 C1452 0.930 . S
H1459 C1453 0.930 . S
C1460 N1461 1.314 . S
C1460 C1462 1.353 . S
C1460 H1466 0.930 . S
N1461 Li1411 1.990 . S
N1461 C1460 1.314 . S
N1461 C1464 1.279 . S
C1462 C1460 1.353 . S
C1462 C1465 1.348 . S
C1462 H1494 0.929 . S
C1463 C1464 1.358 . S
C1463 C1465 1.356 . S
C1463 H1495 0.930 . S
C1464 N1461 1.279 . S
C1464 C1463 1.358 . S
C1464 H1467 0.930 . S
C1465 C1462 1.348 . S
C1465 C1463 1.356 . S
H1466 C1460 0.930 . S
H1467 C1464 0.930 . S
O1468 Li1408 1.956 . S
O1468 Li1409 1.970 . S
O1468 Li1410 1.961 . S
O1468 C1412 1.325 . S
O1469 Li1408 1.970 . S
O1469 Li1409 1.956 . S
O1469 Li1411 1.961 . S
O1469 C1418 1.325 . S
O1470 Li1408 1.961 . S
O1470 Li1410 1.956 . S
O1470 Li1411 1.970 . S
O1470 C1440 1.325 . S
O1471 Li1409 1.961 . S
O1471 Li1410 1.970 . S
O1471 Li1411 1.956 . S
O1471 C1446 1.325 . S
H1472 C1414 0.929 . S
H1473 C1415 0.930 . S
H1474 C1416 0.930 . S
H1475 C1417 0.930 . S
H1476 C1419 0.930 . S
H1477 C1421 0.929 . S
H1478 C1422 0.930 . S
H1479 C1423 0.930 . S
H1480 C1426 0.930 . S
H1481 C1429 0.929 . S
H1482 C1434 0.929 . S
H1483 C1435 0.930 . S
H1484 C1442 0.929 . S
H1485 C1443 0.930 . S
H1486 C1444 0.930 . S
H1487 C1445 0.930 . S
H1488 C1447 0.929 . S
H1489 C1448 0.930 . S
H1490 C1449 0.930 . S
H1491 C1450 0.930 . S
H1492 C1454 0.929 . S
H1493 C1456 0.930 . S
H1494 C1462 0.929 . S
H1495 C1463 0.930 . S
Li1496 N1513 1.990 . S
Li1496 O1556 1.956 . S
Li1496 O1557 1.970 . S
Li1496 O1558 1.961 . S
Li1497 N1521 1.990 . S
Li1497 O1556 1.970 . S
Li1497 O1557 1.956 . S
Li1497 O1559 1.961 . S
Li1498 N1543 1.990 . S
Li1498 O1556 1.961 . S
Li1498 O1558 1.956 . S
Li1498 O1559 1.970 . S
Li1499 N1549 1.990 . S
Li1499 O1557 1.961 . S
Li1499 O1558 1.970 . S
Li1499 O1559 1.956 . S
C1500 C1502 1.348 . S
C1500 C1503 1.356 . S
C1500 O1556 1.325 . S
N1501 C1504 1.314 . S
N1501 C1505 1.279 . S
C1502 C1500 1.348 . S
C1502 C1504 1.353 . S
C1502 H1560 0.929 . S
C1503 C1500 1.356 . S
C1503 C1505 1.358 . S
C1503 H1561 0.930 . S
C1504 N1501 1.314 . S
C1504 C1502 1.353 . S
C1504 H1562 0.930 . S
C1505 N1501 1.279 . S
C1505 C1503 1.358 . S
C1505 H1563 0.930 . S
C1506 C1509 1.348 . S
C1506 C1510 1.356 . S
C1506 O1557 1.325 . S
C1507 N1508 1.279 . S
C1507 C1510 1.358 1_554 S
C1507 H1564 0.930 . S
N1508 C1507 1.279 . S
N1508 C1511 1.314 . S
C1509 C1506 1.348 . S
C1509 C1511 1.353 1_556 S
C1509 H1565 0.929 . S
C1510 C1506 1.356 . S
C1510 C1507 1.358 1_556 S
C1510 H1566 0.930 . S
C1511 N1508 1.314 . S
C1511 C1509 1.353 1_554 S
C1511 H1567 0.930 . S
C1512 N1513 1.314 . S
C1512 C1517 1.353 . S
C1512 H1518 0.930 . S
N1513 Li1496 1.990 . S
N1513 C1512 1.314 . S
N1513 C1515 1.279 . S
C1514 C1515 1.358 . S
C1514 C1516 1.356 . S
C1514 H1568 0.930 . S
C1515 N1513 1.279 . S
C1515 C1514 1.358 . S
C1515 H1519 0.930 . S
C1516 C1514 1.356 . S
C1516 C1517 1.348 . S
C1517 C1512 1.353 . S
C1517 C1516 1.348 . S
C1517 H1569 0.929 . S
H1518 C1512 0.930 . S
H1519 C1515 0.930 . S
C1520 N1521 1.314 . S
C1520 C1522 1.353 . S
C1520 H1526 0.930 . S
N1521 Li1497 1.990 . S
N1521 C1520 1.314 . S
N1521 C1524 1.279 1_556 S
C1522 C1520 1.353 . S
C1522 C1525 1.348 1_556 S
C1522 H1570 0.929 . S
C1523 C1524 1.358 . S
C1523 C1525 1.356 . S
C1523 H1571 0.930 . S
C1524 N1521 1.279 1_554 S
C1524 C1523 1.358 . S
C1524 H1527 0.930 . S
C1525 C1522 1.348 1_554 S
C1525 C1523 1.356 . S
H1526 C1520 0.930 . S
H1527 C1524 0.930 . S
C1528 C1530 1.348 . S
C1528 C1531 1.356 . S
C1528 O1558 1.325 . S
N1529 C1532 1.314 . S
N1529 C1533 1.279 . S
C1530 C1528 1.348 . S
C1530 C1532 1.353 . S
C1530 H1572 0.929 . S
C1531 C1528 1.356 . S
C1531 C1533 1.358 . S
C1531 H1573 0.930 . S
C1532 N1529 1.314 . S
C1532 C1530 1.353 . S
C1532 H1574 0.930 . S
C1533 N1529 1.279 . S
C1533 C1531 1.358 . S
C1533 H1575 0.930 . S
C1534 C1535 1.348 . S
C1534 C1536 1.356 . S
C1534 O1559 1.325 . S
C1535 C1534 1.348 . S
C1535 C1537 1.353 . S
C1535 H1576 0.929 . S
C1536 C1534 1.356 . S
C1536 C1538 1.358 . S
C1536 H1577 0.930 . S
C1537 C1535 1.353 . S
C1537 N1539 1.314 . S
C1537 H1578 0.930 . S
C1538 C1536 1.358 . S
C1538 N1539 1.279 . S
C1538 H1579 0.930 . S
N1539 C1537 1.314 . S
N1539 C1538 1.279 . S
C1540 C1542 1.353 . S
C1540 N1543 1.314 . S
C1540 H1546 0.930 . S
C1541 N1543 1.279 . S
C1541 C1544 1.358 . S
C1541 H1547 0.930 . S
C1542 C1540 1.353 . S
C1542 C1545 1.348 . S
C1542 H1580 0.929 . S
N1543 Li1498 1.990 . S
N1543 C1540 1.314 . S
N1543 C1541 1.279 . S
C1544 C1541 1.358 . S
C1544 C1545 1.356 . S
C1544 H1581 0.930 . S
C1545 C1542 1.348 . S
C1545 C1544 1.356 . S
H1546 C1540 0.930 . S
H1547 C1541 0.930 . S
C1548 N1549 1.314 . S
C1548 C1550 1.353 . S
C1548 H1554 0.930 . S
N1549 Li1499 1.990 . S
N1549 C1548 1.314 . S
N1549 C1552 1.279 . S
C1550 C1548 1.353 . S
C1550 C1553 1.348 . S
C1550 H1582 0.929 . S
C1551 C1552 1.358 . S
C1551 C1553 1.356 . S
C1551 H1583 0.930 . S
C1552 N1549 1.279 . S
C1552 C1551 1.358 . S
C1552 H1555 0.930 . S
C1553 C1550 1.348 . S
C1553 C1551 1.356 . S
H1554 C1548 0.930 . S
H1555 C1552 0.930 . S
O1556 Li1496 1.956 . S
O1556 Li1497 1.970 . S
O1556 Li1498 1.961 . S
O1556 C1500 1.325 . S
O1557 Li1496 1.970 . S
O1557 Li1497 1.956 . S
O1557 Li1499 1.961 . S
O1557 C1506 1.325 . S
O1558 Li1496 1.961 . S
O1558 Li1498 1.956 . S
O1558 Li1499 1.970 . S
O1558 C1528 1.325 . S
O1559 Li1497 1.961 . S
O1559 Li1498 1.970 . S
O1559 Li1499 1.956 . S
O1559 C1534 1.325 . S
H1560 C1502 0.929 . S
H1561 C1503 0.930 . S
H1562 C1504 0.930 . S
H1563 C1505 0.930 . S
H1564 C1507 0.930 . S
H1565 C1509 0.929 . S
H1566 C1510 0.930 . S
H1567 C1511 0.930 . S
H1568 C1514 0.930 . S
H1569 C1517 0.929 . S
H1570 C1522 0.929 . S
H1571 C1523 0.930 . S
H1572 C1530 0.929 . S
H1573 C1531 0.930 . S
H1574 C1532 0.930 . S
H1575 C1533 0.930 . S
H1576 C1535 0.929 . S
H1577 C1536 0.930 . S
H1578 C1537 0.930 . S
H1579 C1538 0.930 . S
H1580 C1542 0.929 . S
H1581 C1544 0.930 . S
H1582 C1550 0.929 . S
H1583 C1551 0.930 . S
Li1584 N1601 1.990 . S
Li1584 O1644 1.956 . S
Li1584 O1645 1.970 . S
Li1584 O1646 1.961 . S
Li1585 N1609 1.990 . S
Li1585 O1644 1.970 . S
Li1585 O1645 1.956 . S
Li1585 O1647 1.961 . S
Li1586 N1631 1.990 . S
Li1586 O1644 1.961 . S
Li1586 O1646 1.956 . S
Li1586 O1647 1.970 . S
Li1587 N1637 1.990 . S
Li1587 O1645 1.961 . S
Li1587 O1646 1.970 . S
Li1587 O1647 1.956 . S
C1588 C1590 1.348 . S
C1588 C1591 1.356 . S
C1588 O1644 1.325 . S
N1589 C1592 1.314 . S
N1589 C1593 1.279 . S
C1590 C1588 1.348 . S
C1590 C1592 1.353 . S
C1590 H1648 0.929 . S
C1591 C1588 1.356 . S
C1591 C1593 1.358 . S
C1591 H1649 0.930 . S
C1592 N1589 1.314 . S
C1592 C1590 1.353 . S
C1592 H1650 0.930 . S
C1593 N1589 1.279 . S
C1593 C1591 1.358 . S
C1593 H1651 0.930 . S
C1594 C1597 1.348 . S
C1594 C1598 1.356 . S
C1594 O1645 1.325 . S
C1595 N1596 1.279 . S
C1595 C1598 1.358 . S
C1595 H1652 0.930 . S
N1596 C1595 1.279 . S
N1596 C1599 1.314 . S
C1597 C1594 1.348 . S
C1597 C1599 1.353 . S
C1597 H1653 0.929 . S
C1598 C1594 1.356 . S
C1598 C1595 1.358 . S
C1598 H1654 0.930 . S
C1599 N1596 1.314 . S
C1599 C1597 1.353 . S
C1599 H1655 0.930 . S
C1600 N1601 1.314 . S
C1600 C1605 1.353 . S
C1600 H1606 0.930 . S
N1601 Li1584 1.990 . S
N1601 C1600 1.314 . S
N1601 C1603 1.279 . S
C1602 C1603 1.358 . S
C1602 C1604 1.356 . S
C1602 H1656 0.930 . S
C1603 N1601 1.279 . S
C1603 C1602 1.358 . S
C1603 H1607 0.930 . S
C1604 C1602 1.356 . S
C1604 C1605 1.348 . S
C1605 C1600 1.353 . S
C1605 C1604 1.348 . S
C1605 H1657 0.929 . S
H1606 C1600 0.930 . S
H1607 C1603 0.930 . S
C1608 N1609 1.314 . S
C1608 C1610 1.353 . S
C1608 H1614 0.930 . S
N1609 Li1585 1.990 . S
N1609 C1608 1.314 . S
N1609 C1612 1.279 . S
C1610 C1608 1.353 . S
C1610 C1613 1.348 . S
C1610 H1658 0.929 . S
C1611 C1612 1.358 . S
C1611 C1613 1.356 . S
C1611 H1659 0.930 . S
C1612 N1609 1.279 . S
C1612 C1611 1.358 . S
C1612 H1615 0.930 . S
C1613 C1610 1.348 . S
C1613 C1611 1.356 . S
H1614 C1608 0.930 . S
H1615 C1612 0.930 . S
C1616 C1618 1.348 . S
C1616 C1619 1.356 . S
C1616 O1646 1.325 . S
N1617 C1620 1.314 . S
N1617 C1621 1.279 . S
C1618 C1616 1.348 . S
C1618 C1620 1.353 . S
C1618 H1660 0.929 . S
C1619 C1616 1.356 . S
C1619 C1621 1.358 . S
C1619 H1661 0.930 . S
C1620 N1617 1.314 . S
C1620 C1618 1.353 . S
C1620 H1662 0.930 . S
C1621 N1617 1.279 . S
C1621 C1619 1.358 . S
C1621 H1663 0.930 . S
C1622 C1623 1.348 . S
C1622 C1624 1.356 . S
C1622 O1647 1.325 . S
C1623 C1622 1.348 . S
C1623 C1625 1.353 . S
C1623 H1664 0.929 . S
C1624 C1622 1.356 . S
C1624 C1626 1.358 . S
C1624 H1665 0.930 . S
C1625 C1623 1.353 . S
C1625 N1627 1.314 . S
C1625 H1666 0.930 . S
C1626 C1624 1.358 . S
C1626 N1627 1.279 . S
C1626 H1667 0.930 . S
N1627 C1625 1.314 . S
N1627 C1626 1.279 . S
C1628 C1630 1.353 . S
C1628 N1631 1.314 . S
C1628 H1634 0.930 . S
C1629 N1631 1.279 . S
C1629 C1632 1.358 1_554 S
C1629 H1635 0.930 . S
C1630 C1628 1.353 . S
C1630 C1633 1.348 1_554 S
C1630 H1668 0.929 . S
N1631 Li1586 1.990 . S
N1631 C1628 1.314 . S
N1631 C1629 1.279 . S
C1632 C1629 1.358 1_556 S
C1632 C1633 1.356 . S
C1632 H1669 0.930 . S
C1633 C1630 1.348 1_556 S
C1633 C1632 1.356 . S
H1634 C1628 0.930 . S
H1635 C1629 0.930 . S
C1636 N1637 1.314 . S
C1636 C1638 1.353 . S
C1636 H1642 0.930 . S
N1637 Li1587 1.990 . S
N1637 C1636 1.314 . S
N1637 C1640 1.279 . S
C1638 C1636 1.353 . S
C1638 C1641 1.348 . S
C1638 H1670 0.929 . S
C1639 C1640 1.358 . S
C1639 C1641 1.356 . S
C1639 H1671 0.930 . S
C1640 N1637 1.279 . S
C1640 C1639 1.358 . S
C1640 H1643 0.930 . S
C1641 C1638 1.348 . S
C1641 C1639 1.356 . S
H1642 C1636 0.930 . S
H1643 C1640 0.930 . S
O1644 Li1584 1.956 . S
O1644 Li1585 1.970 . S
O1644 Li1586 1.961 . S
O1644 C1588 1.325 . S
O1645 Li1584 1.970 . S
O1645 Li1585 1.956 . S
O1645 Li1587 1.961 . S
O1645 C1594 1.325 . S
O1646 Li1584 1.961 . S
O1646 Li1586 1.956 . S
O1646 Li1587 1.970 . S
O1646 C1616 1.325 . S
O1647 Li1585 1.961 . S
O1647 Li1586 1.970 . S
O1647 Li1587 1.956 . S
O1647 C1622 1.325 . S
H1648 C1590 0.929 . S
H1649 C1591 0.930 . S
H1650 C1592 0.930 . S
H1651 C1593 0.930 . S
H1652 C1595 0.930 . S
H1653 C1597 0.929 . S
H1654 C1598 0.930 . S
H1655 C1599 0.930 . S
H1656 C1602 0.930 . S
H1657 C1605 0.929 . S
H1658 C1610 0.929 . S
H1659 C1611 0.930 . S
H1660 C1618 0.929 . S
H1661 C1619 0.930 . S
H1662 C1620 0.930 . S
H1663 C1621 0.930 . S
H1664 C1623 0.929 . S
H1665 C1624 0.930 . S
H1666 C1625 0.930 . S
H1667 C1626 0.930 . S
H1668 C1630 0.929 . S
H1669 C1632 0.930 . S
H1670 C1638 0.929 . S
H1671 C1639 0.930 . S
Li1672 N1689 1.990 . S
Li1672 O1732 1.956 . S
Li1672 O1733 1.970 . S
Li1672 O1734 1.961 . S
Li1673 N1697 1.990 . S
Li1673 O1732 1.970 . S
Li1673 O1733 1.956 . S
Li1673 O1735 1.961 . S
Li1674 N1719 1.990 . S
Li1674 O1732 1.961 . S
Li1674 O1734 1.956 . S
Li1674 O1735 1.970 . S
Li1675 N1725 1.990 . S
Li1675 O1733 1.961 . S
Li1675 O1734 1.970 . S
Li1675 O1735 1.956 . S
C1676 C1678 1.348 . S
C1676 C1679 1.356 . S
C1676 O1732 1.325 . S
N1677 C1680 1.314 . S
N1677 C1681 1.279 . S
C1678 C1676 1.348 . S
C1678 C1680 1.353 . S
C1678 H1736 0.929 . S
C1679 C1676 1.356 . S
C1679 C1681 1.358 . S
C1679 H1737 0.930 . S
C1680 N1677 1.314 . S
C1680 C1678 1.353 . S
C1680 H1738 0.930 . S
C1681 N1677 1.279 . S
C1681 C1679 1.358 . S
C1681 H1739 0.930 . S
C1682 C1685 1.348 . S
C1682 C1686 1.356 . S
C1682 O1733 1.325 . S
C1683 N1684 1.279 . S
C1683 C1686 1.358 . S
C1683 H1740 0.930 . S
N1684 C1683 1.279 . S
N1684 C1687 1.314 . S
C1685 C1682 1.348 . S
C1685 C1687 1.353 . S
C1685 H1741 0.929 . S
C1686 C1682 1.356 . S
C1686 C1683 1.358 . S
C1686 H1742 0.930 . S
C1687 N1684 1.314 . S
C1687 C1685 1.353 . S
C1687 H1743 0.930 . S
C1688 N1689 1.314 . S
C1688 C1693 1.353 . S
C1688 H1694 0.930 . S
N1689 Li1672 1.990 . S
N1689 C1688 1.314 . S
N1689 C1691 1.279 . S
C1690 C1691 1.358 . S
C1690 C1692 1.356 . S
C1690 H1744 0.930 . S
C1691 N1689 1.279 . S
C1691 C1690 1.358 . S
C1691 H1695 0.930 . S
C1692 C1690 1.356 . S
C1692 C1693 1.348 . S
C1693 C1688 1.353 . S
C1693 C1692 1.348 . S
C1693 H1745 0.929 . S
H1694 C1688 0.930 . S
H1695 C1691 0.930 . S
C1696 N1697 1.314 . S
C1696 C1698 1.353 . S
C1696 H1702 0.930 . S
N1697 Li1673 1.990 . S
N1697 C1696 1.314 . S
N1697 C1700 1.279 . S
C1698 C1696 1.353 . S
C1698 C1701 1.348 . S
C1698 H1746 0.929 . S
C1699 C1700 1.358 . S
C1699 C1701 1.356 . S
C1699 H1747 0.930 . S
C1700 N1697 1.279 . S
C1700 C1699 1.358 . S
C1700 H1703 0.930 . S
C1701 C1698 1.348 . S
C1701 C1699 1.356 . S
H1702 C1696 0.930 . S
H1703 C1700 0.930 . S
C1704 C1706 1.348 . S
C1704 C1707 1.356 . S
C1704 O1734 1.325 . S
N1705 C1708 1.314 . S
N1705 C1709 1.279 . S
C1706 C1704 1.348 . S
C1706 C1708 1.353 . S
C1706 H1748 0.929 . S
C1707 C1704 1.356 . S
C1707 C1709 1.358 . S
C1707 H1749 0.930 . S
C1708 N1705 1.314 . S
C1708 C1706 1.353 . S
C1708 H1750 0.930 . S
C1709 N1705 1.279 . S
C1709 C1707 1.358 . S
C1709 H1751 0.930 . S
C1710 C1711 1.348 . S
C1710 C1712 1.356 . S
C1710 O1735 1.325 . S
C1711 C1710 1.348 . S
C1711 C1713 1.353 . S
C1711 H1752 0.929 . S
C1712 C1710 1.356 . S
C1712 C1714 1.358 . S
C1712 H1753 0.930 . S
C1713 C1711 1.353 . S
C1713 N1715 1.314 . S
C1713 H1754 0.930 . S
C1714 C1712 1.358 . S
C1714 N1715 1.279 . S
C1714 H1755 0.930 . S
N1715 C1713 1.314 . S
N1715 C1714 1.279 . S
C1716 C1718 1.353 . S
C1716 N1719 1.314 . S
C1716 H1722 0.930 . S
C1717 N1719 1.279 . S
C1717 C1720 1.358 . S
C1717 H1723 0.930 . S
C1718 C1716 1.353 . S
C1718 C1721 1.348 . S
C1718 H1756 0.929 . S
N1719 Li1674 1.990 . S
N1719 C1716 1.314 . S
N1719 C1717 1.279 . S
C1720 C1717 1.358 . S
C1720 C1721 1.356 . S
C1720 H1757 0.930 . S
C1721 C1718 1.348 . S
C1721 C1720 1.356 . S
H1722 C1716 0.930 . S
H1723 C1717 0.930 . S
C1724 N1725 1.314 . S
C1724 C1726 1.353 . S
C1724 H1730 0.930 . S
N1725 Li1675 1.990 . S
N1725 C1724 1.314 . S
N1725 C1728 1.279 . S
C1726 C1724 1.353 . S
C1726 C1729 1.348 . S
C1726 H1758 0.929 . S
C1727 C1728 1.358 . S
C1727 C1729 1.356 . S
C1727 H1759 0.930 . S
C1728 N1725 1.279 . S
C1728 C1727 1.358 . S
C1728 H1731 0.930 . S
C1729 C1726 1.348 . S
C1729 C1727 1.356 . S
H1730 C1724 0.930 . S
H1731 C1728 0.930 . S
O1732 Li1672 1.956 . S
O1732 Li1673 1.970 . S
O1732 Li1674 1.961 . S
O1732 C1676 1.325 . S
O1733 Li1672 1.970 . S
O1733 Li1673 1.956 . S
O1733 Li1675 1.961 . S
O1733 C1682 1.325 . S
O1734 Li1672 1.961 . S
O1734 Li1674 1.956 . S
O1734 Li1675 1.970 . S
O1734 C1704 1.325 . S
O1735 Li1673 1.961 . S
O1735 Li1674 1.970 . S
O1735 Li1675 1.956 . S
O1735 C1710 1.325 . S
H1736 C1678 0.929 . S
H1737 C1679 0.930 . S
H1738 C1680 0.930 . S
H1739 C1681 0.930 . S
H1740 C1683 0.930 . S
H1741 C1685 0.929 . S
H1742 C1686 0.930 . S
H1743 C1687 0.930 . S
H1744 C1690 0.930 . S
H1745 C1693 0.929 . S
H1746 C1698 0.929 . S
H1747 C1699 0.930 . S
H1748 C1706 0.929 . S
H1749 C1707 0.930 . S
H1750 C1708 0.930 . S
H1751 C1709 0.930 . S
H1752 C1711 0.929 . S
H1753 C1712 0.930 . S
H1754 C1713 0.930 . S
H1755 C1714 0.930 . S
H1756 C1718 0.929 . S
H1757 C1720 0.930 . S
H1758 C1726 0.929 . S
H1759 C1727 0.930 . S
Li1760 N1777 1.990 . S
Li1760 O1820 1.956 . S
Li1760 O1821 1.970 . S
Li1760 O1822 1.961 . S
Li1761 N1785 1.990 . S
Li1761 O1820 1.970 . S
Li1761 O1821 1.956 . S
Li1761 O1823 1.961 . S
Li1762 N1807 1.990 . S
Li1762 O1820 1.961 . S
Li1762 O1822 1.956 . S
Li1762 O1823 1.970 . S
Li1763 N1813 1.990 . S
Li1763 O1821 1.961 . S
Li1763 O1822 1.970 . S
Li1763 O1823 1.956 . S
C1764 C1766 1.348 . S
C1764 C1767 1.356 . S
C1764 O1820 1.325 . S
N1765 C1768 1.314 . S
N1765 C1769 1.279 . S
C1766 C1764 1.348 . S
C1766 C1768 1.353 . S
C1766 H1824 0.929 . S
C1767 C1764 1.356 . S
C1767 C1769 1.358 . S
C1767 H1825 0.930 . S
C1768 N1765 1.314 . S
C1768 C1766 1.353 . S
C1768 H1826 0.930 . S
C1769 N1765 1.279 . S
C1769 C1767 1.358 . S
C1769 H1827 0.930 . S
C1770 C1773 1.348 . S
C1770 C1774 1.356 . S
C1770 O1821 1.325 . S
C1771 N1772 1.279 . S
C1771 C1774 1.358 . S
C1771 H1828 0.930 . S
N1772 C1771 1.279 . S
N1772 C1775 1.314 . S
C1773 C1770 1.348 . S
C1773 C1775 1.353 . S
C1773 H1829 0.929 . S
C1774 C1770 1.356 . S
C1774 C1771 1.358 . S
C1774 H1830 0.930 . S
C1775 N1772 1.314 . S
C1775 C1773 1.353 . S
C1775 H1831 0.930 . S
C1776 N1777 1.314 . S
C1776 C1781 1.353 . S
C1776 H1782 0.930 . S
N1777 Li1760 1.990 . S
N1777 C1776 1.314 . S
N1777 C1779 1.279 . S
C1778 C1779 1.358 . S
C1778 C1780 1.356 . S
C1778 H1832 0.930 . S
C1779 N1777 1.279 . S
C1779 C1778 1.358 . S
C1779 H1783 0.930 . S
C1780 C1778 1.356 . S
C1780 C1781 1.348 . S
C1781 C1776 1.353 . S
C1781 C1780 1.348 . S
C1781 H1833 0.929 . S
H1782 C1776 0.930 . S
H1783 C1779 0.930 . S
C1784 N1785 1.314 . S
C1784 C1786 1.353 . S
C1784 H1790 0.930 . S
N1785 Li1761 1.990 . S
N1785 C1784 1.314 . S
N1785 C1788 1.279 . S
C1786 C1784 1.353 . S
C1786 C1789 1.348 . S
C1786 H1834 0.929 . S
C1787 C1788 1.358 . S
C1787 C1789 1.356 . S
C1787 H1835 0.930 . S
C1788 N1785 1.279 . S
C1788 C1787 1.358 . S
C1788 H1791 0.930 . S
C1789 C1786 1.348 . S
C1789 C1787 1.356 . S
H1790 C1784 0.930 . S
H1791 C1788 0.930 . S
C1792 C1794 1.348 . S
C1792 C1795 1.356 . S
C1792 O1822 1.325 . S
N1793 C1796 1.314 . S
N1793 C1797 1.279 . S
C1794 C1792 1.348 . S
C1794 C1796 1.353 . S
C1794 H1836 0.929 . S
C1795 C1792 1.356 . S
C1795 C1797 1.358 . S
C1795 H1837 0.930 . S
C1796 N1793 1.314 . S
C1796 C1794 1.353 . S
C1796 H1838 0.930 . S
C1797 N1793 1.279 . S
C1797 C1795 1.358 . S
C1797 H1839 0.930 . S
C1798 C1799 1.348 . S
C1798 C1800 1.356 . S
C1798 O1823 1.325 . S
C1799 C1798 1.348 . S
C1799 C1801 1.353 . S
C1799 H1840 0.929 . S
C1800 C1798 1.356 . S
C1800 C1802 1.358 . S
C1800 H1841 0.930 . S
C1801 C1799 1.353 . S
C1801 N1803 1.314 . S
C1801 H1842 0.930 . S
C1802 C1800 1.358 . S
C1802 N1803 1.279 . S
C1802 H1843 0.930 . S
N1803 C1801 1.314 . S
N1803 C1802 1.279 . S
C1804 C1806 1.353 . S
C1804 N1807 1.314 . S
C1804 H1810 0.930 . S
C1805 N1807 1.279 . S
C1805 C1808 1.358 . S
C1805 H1811 0.930 . S
C1806 C1804 1.353 . S
C1806 C1809 1.348 . S
C1806 H1844 0.929 . S
N1807 Li1762 1.990 . S
N1807 C1804 1.314 . S
N1807 C1805 1.279 . S
C1808 C1805 1.358 . S
C1808 C1809 1.356 . S
C1808 H1845 0.930 . S
C1809 C1806 1.348 . S
C1809 C1808 1.356 . S
H1810 C1804 0.930 . S
H1811 C1805 0.930 . S
C1812 N1813 1.314 . S
C1812 C1814 1.353 . S
C1812 H1818 0.930 . S
N1813 Li1763 1.990 . S
N1813 C1812 1.314 . S
N1813 C1816 1.279 . S
C1814 C1812 1.353 . S
C1814 C1817 1.348 . S
C1814 H1846 0.929 . S
C1815 C1816 1.358 . S
C1815 C1817 1.356 . S
C1815 H1847 0.930 . S
C1816 N1813 1.279 . S
C1816 C1815 1.358 . S
C1816 H1819 0.930 . S
C1817 C1814 1.348 . S
C1817 C1815 1.356 . S
H1818 C1812 0.930 . S
H1819 C1816 0.930 . S
O1820 Li1760 1.956 . S
O1820 Li1761 1.970 . S
O1820 Li1762 1.961 . S
O1820 C1764 1.325 . S
O1821 Li1760 1.970 . S
O1821 Li1761 1.956 . S
O1821 Li1763 1.961 . S
O1821 C1770 1.325 . S
O1822 Li1760 1.961 . S
O1822 Li1762 1.956 . S
O1822 Li1763 1.970 . S
O1822 C1792 1.325 . S
O1823 Li1761 1.961 . S
O1823 Li1762 1.970 . S
O1823 Li1763 1.956 . S
O1823 C1798 1.325 . S
H1824 C1766 0.929 . S
H1825 C1767 0.930 . S
H1826 C1768 0.930 . S
H1827 C1769 0.930 . S
H1828 C1771 0.930 . S
H1829 C1773 0.929 . S
H1830 C1774 0.930 . S
H1831 C1775 0.930 . S
H1832 C1778 0.930 . S
H1833 C1781 0.929 . S
H1834 C1786 0.929 . S
H1835 C1787 0.930 . S
H1836 C1794 0.929 . S
H1837 C1795 0.930 . S
H1838 C1796 0.930 . S
H1839 C1797 0.930 . S
H1840 C1799 0.929 . S
H1841 C1800 0.930 . S
H1842 C1801 0.930 . S
H1843 C1802 0.930 . S
H1844 C1806 0.929 . S
H1845 C1808 0.930 . S
H1846 C1814 0.929 . S
H1847 C1815 0.930 . S
Li1848 N1865 1.990 . S
Li1848 O1908 1.956 . S
Li1848 O1909 1.970 . S
Li1848 O1910 1.961 . S
Li1849 N1873 1.990 . S
Li1849 O1908 1.970 . S
Li1849 O1909 1.956 . S
Li1849 O1911 1.961 . S
Li1850 N1895 1.990 . S
Li1850 O1908 1.961 . S
Li1850 O1910 1.956 . S
Li1850 O1911 1.970 . S
Li1851 N1901 1.990 . S
Li1851 O1909 1.961 . S
Li1851 O1910 1.970 . S
Li1851 O1911 1.956 . S
C1852 C1854 1.348 . S
C1852 C1855 1.356 . S
C1852 O1908 1.325 . S
N1853 C1856 1.314 . S
N1853 C1857 1.279 . S
C1854 C1852 1.348 . S
C1854 C1856 1.353 . S
C1854 H1912 0.929 . S
C1855 C1852 1.356 . S
C1855 C1857 1.358 . S
C1855 H1913 0.930 . S
C1856 N1853 1.314 . S
C1856 C1854 1.353 . S
C1856 H1914 0.930 . S
C1857 N1853 1.279 . S
C1857 C1855 1.358 . S
C1857 H1915 0.930 . S
C1858 C1861 1.348 . S
C1858 C1862 1.356 . S
C1858 O1909 1.325 . S
C1859 N1860 1.279 . S
C1859 C1862 1.358 . S
C1859 H1916 0.930 . S
N1860 C1859 1.279 . S
N1860 C1863 1.314 . S
C1861 C1858 1.348 . S
C1861 C1863 1.353 . S
C1861 H1917 0.929 . S
C1862 C1858 1.356 . S
C1862 C1859 1.358 . S
C1862 H1918 0.930 . S
C1863 N1860 1.314 . S
C1863 C1861 1.353 . S
C1863 H1919 0.930 . S
C1864 N1865 1.314 . S
C1864 C1869 1.353 . S
C1864 H1870 0.930 . S
N1865 Li1848 1.990 . S
N1865 C1864 1.314 . S
N1865 C1867 1.279 . S
C1866 C1867 1.358 . S
C1866 C1868 1.356 . S
C1866 H1920 0.930 . S
C1867 N1865 1.279 . S
C1867 C1866 1.358 . S
C1867 H1871 0.930 . S
C1868 C1866 1.356 . S
C1868 C1869 1.348 . S
C1869 C1864 1.353 . S
C1869 C1868 1.348 . S
C1869 H1921 0.929 . S
H1870 C1864 0.930 . S
H1871 C1867 0.930 . S
C1872 N1873 1.314 . S
C1872 C1874 1.353 . S
C1872 H1878 0.930 . S
N1873 Li1849 1.990 . S
N1873 C1872 1.314 . S
N1873 C1876 1.279 . S
C1874 C1872 1.353 . S
C1874 C1877 1.348 . S
C1874 H1922 0.929 . S
C1875 C1876 1.358 . S
C1875 C1877 1.356 . S
C1875 H1923 0.930 . S
C1876 N1873 1.279 . S
C1876 C1875 1.358 . S
C1876 H1879 0.930 . S
C1877 C1874 1.348 . S
C1877 C1875 1.356 . S
H1878 C1872 0.930 . S
H1879 C1876 0.930 . S
C1880 C1882 1.348 . S
C1880 C1883 1.356 . S
C1880 O1910 1.325 . S
N1881 C1884 1.314 . S
N1881 C1885 1.279 . S
C1882 C1880 1.348 . S
C1882 C1884 1.353 . S
C1882 H1924 0.929 . S
C1883 C1880 1.356 . S
C1883 C1885 1.358 . S
C1883 H1925 0.930 . S
C1884 N1881 1.314 . S
C1884 C1882 1.353 . S
C1884 H1926 0.930 . S
C1885 N1881 1.279 . S
C1885 C1883 1.358 . S
C1885 H1927 0.930 . S
C1886 C1887 1.348 . S
C1886 C1888 1.356 . S
C1886 O1911 1.325 . S
C1887 C1886 1.348 . S
C1887 C1889 1.353 . S
C1887 H1928 0.929 . S
C1888 C1886 1.356 . S
C1888 C1890 1.358 . S
C1888 H1929 0.930 . S
C1889 C1887 1.353 . S
C1889 N1891 1.314 . S
C1889 H1930 0.930 . S
C1890 C1888 1.358 . S
C1890 N1891 1.279 . S
C1890 H1931 0.930 . S
N1891 C1889 1.314 . S
N1891 C1890 1.279 . S
C1892 C1894 1.353 . S
C1892 N1895 1.314 . S
C1892 H1898 0.930 . S
C1893 N1895 1.279 . S
C1893 C1896 1.358 . S
C1893 H1899 0.930 . S
C1894 C1892 1.353 . S
C1894 C1897 1.348 . S
C1894 H1932 0.929 . S
N1895 Li1850 1.990 . S
N1895 C1892 1.314 . S
N1895 C1893 1.279 . S
C1896 C1893 1.358 . S
C1896 C1897 1.356 . S
C1896 H1933 0.930 . S
C1897 C1894 1.348 . S
C1897 C1896 1.356 . S
H1898 C1892 0.930 . S
H1899 C1893 0.930 . S
C1900 N1901 1.314 . S
C1900 C1902 1.353 . S
C1900 H1906 0.930 . S
N1901 Li1851 1.990 . S
N1901 C1900 1.314 . S
N1901 C1904 1.279 . S
C1902 C1900 1.353 . S
C1902 C1905 1.348 . S
C1902 H1934 0.929 . S
C1903 C1904 1.358 . S
C1903 C1905 1.356 . S
C1903 H1935 0.930 . S
C1904 N1901 1.279 . S
C1904 C1903 1.358 . S
C1904 H1907 0.930 . S
C1905 C1902 1.348 . S
C1905 C1903 1.356 . S
H1906 C1900 0.930 . S
H1907 C1904 0.930 . S
O1908 Li1848 1.956 . S
O1908 Li1849 1.970 . S
O1908 Li1850 1.961 . S
O1908 C1852 1.325 . S
O1909 Li1848 1.970 . S
O1909 Li1849 1.956 . S
O1909 Li1851 1.961 . S
O1909 C1858 1.325 . S
O1910 Li1848 1.961 . S
O1910 Li1850 1.956 . S
O1910 Li1851 1.970 . S
O1910 C1880 1.325 . S
O1911 Li1849 1.961 . S
O1911 Li1850 1.970 . S
O1911 Li1851 1.956 . S
O1911 C1886 1.325 . S
H1912 C1854 0.929 . S
H1913 C1855 0.930 . S
H1914 C1856 0.930 . S
H1915 C1857 0.930 . S
H1916 C1859 0.930 . S
H1917 C1861 0.929 . S
H1918 C1862 0.930 . S
H1919 C1863 0.930 . S
H1920 C1866 0.930 . S
H1921 C1869 0.929 . S
H1922 C1874 0.929 . S
H1923 C1875 0.930 . S
H1924 C1882 0.929 . S
H1925 C1883 0.930 . S
H1926 C1884 0.930 . S
H1927 C1885 0.930 . S
H1928 C1887 0.929 . S
H1929 C1888 0.930 . S
H1930 C1889 0.930 . S
H1931 C1890 0.930 . S
H1932 C1894 0.929 . S
H1933 C1896 0.930 . S
H1934 C1902 0.929 . S
H1935 C1903 0.930 . S
Li1936 N1953 1.990 . S
Li1936 O1996 1.956 . S
Li1936 O1997 1.970 . S
Li1936 O1998 1.961 . S
Li1937 N1961 1.990 . S
Li1937 O1996 1.970 . S
Li1937 O1997 1.956 . S
Li1937 O1999 1.961 . S
Li1938 N1983 1.990 . S
Li1938 O1996 1.961 . S
Li1938 O1998 1.956 . S
Li1938 O1999 1.970 . S
Li1939 N1989 1.990 . S
Li1939 O1997 1.961 . S
Li1939 O1998 1.970 . S
Li1939 O1999 1.956 . S
C1940 C1942 1.348 . S
C1940 C1943 1.356 . S
C1940 O1996 1.325 . S
N1941 C1944 1.314 . S
N1941 C1945 1.279 . S
C1942 C1940 1.348 . S
C1942 C1944 1.353 . S
C1942 H2000 0.929 . S
C1943 C1940 1.356 . S
C1943 C1945 1.358 . S
C1943 H2001 0.930 . S
C1944 N1941 1.314 . S
C1944 C1942 1.353 . S
C1944 H2002 0.930 . S
C1945 N1941 1.279 . S
C1945 C1943 1.358 . S
C1945 H2003 0.930 . S
C1946 C1949 1.348 . S
C1946 C1950 1.356 . S
C1946 O1997 1.325 . S
C1947 N1948 1.279 . S
C1947 C1950 1.358 . S
C1947 H2004 0.930 . S
N1948 C1947 1.279 . S
N1948 C1951 1.314 . S
C1949 C1946 1.348 . S
C1949 C1951 1.353 . S
C1949 H2005 0.929 . S
C1950 C1946 1.356 . S
C1950 C1947 1.358 . S
C1950 H2006 0.930 . S
C1951 N1948 1.314 . S
C1951 C1949 1.353 . S
C1951 H2007 0.930 . S
C1952 N1953 1.314 . S
C1952 C1957 1.353 . S
C1952 H1958 0.930 . S
N1953 Li1936 1.990 . S
N1953 C1952 1.314 . S
N1953 C1955 1.279 . S
C1954 C1955 1.358 . S
C1954 C1956 1.356 . S
C1954 H2008 0.930 . S
C1955 N1953 1.279 . S
C1955 C1954 1.358 . S
C1955 H1959 0.930 . S
C1956 C1954 1.356 . S
C1956 C1957 1.348 . S
C1957 C1952 1.353 . S
C1957 C1956 1.348 . S
C1957 H2009 0.929 . S
H1958 C1952 0.930 . S
H1959 C1955 0.930 . S
C1960 N1961 1.314 . S
C1960 C1962 1.353 . S
C1960 H1966 0.930 . S
N1961 Li1937 1.990 . S
N1961 C1960 1.314 . S
N1961 C1964 1.279 . S
C1962 C1960 1.353 . S
C1962 C1965 1.348 1_556 S
C1962 H2010 0.929 . S
C1963 C1964 1.358 1_554 S
C1963 C1965 1.356 . S
C1963 H2011 0.930 . S
C1964 N1961 1.279 . S
C1964 C1963 1.358 1_556 S
C1964 H1967 0.930 . S
C1965 C1962 1.348 1_554 S
C1965 C1963 1.356 . S
H1966 C1960 0.930 . S
H1967 C1964 0.930 . S
C1968 C1970 1.348 . S
C1968 C1971 1.356 . S
C1968 O1998 1.325 . S
N1969 C1972 1.314 . S
N1969 C1973 1.279 . S
C1970 C1968 1.348 . S
C1970 C1972 1.353 . S
C1970 H2012 0.929 . S
C1971 C1968 1.356 . S
C1971 C1973 1.358 . S
C1971 H2013 0.930 . S
C1972 N1969 1.314 . S
C1972 C1970 1.353 . S
C1972 H2014 0.930 . S
C1973 N1969 1.279 . S
C1973 C1971 1.358 . S
C1973 H2015 0.930 . S
C1974 C1975 1.348 . S
C1974 C1976 1.356 . S
C1974 O1999 1.325 . S
C1975 C1974 1.348 . S
C1975 C1977 1.353 . S
C1975 H2016 0.929 . S
C1976 C1974 1.356 . S
C1976 C1978 1.358 . S
C1976 H2017 0.930 . S
C1977 C1975 1.353 . S
C1977 N1979 1.314 . S
C1977 H2018 0.930 . S
C1978 C1976 1.358 . S
C1978 N1979 1.279 . S
C1978 H2019 0.930 . S
N1979 C1977 1.314 . S
N1979 C1978 1.279 . S
C1980 C1982 1.353 . S
C1980 N1983 1.314 . S
C1980 H1986 0.930 . S
C1981 N1983 1.279 . S
C1981 C1984 1.358 . S
C1981 H1987 0.930 . S
C1982 C1980 1.353 . S
C1982 C1985 1.348 . S
C1982 H2020 0.929 . S
N1983 Li1938 1.990 . S
N1983 C1980 1.314 . S
N1983 C1981 1.279 . S
C1984 C1981 1.358 . S
C1984 C1985 1.356 . S
C1984 H2021 0.930 . S
C1985 C1982 1.348 . S
C1985 C1984 1.356 . S
H1986 C1980 0.930 . S
H1987 C1981 0.930 . S
C1988 N1989 1.314 . S
C1988 C1990 1.353 . S
C1988 H1994 0.930 . S
N1989 Li1939 1.990 . S
N1989 C1988 1.314 . S
N1989 C1992 1.279 . S
C1990 C1988 1.353 . S
C1990 C1993 1.348 . S
C1990 H2022 0.929 . S
C1991 C1992 1.358 . S
C1991 C1993 1.356 . S
C1991 H2023 0.930 . S
C1992 N1989 1.279 . S
C1992 C1991 1.358 . S
C1992 H1995 0.930 . S
C1993 C1990 1.348 . S
C1993 C1991 1.356 . S
H1994 C1988 0.930 . S
H1995 C1992 0.930 . S
O1996 Li1936 1.956 . S
O1996 Li1937 1.970 . S
O1996 Li1938 1.961 . S
O1996 C1940 1.325 . S
O1997 Li1936 1.970 . S
O1997 Li1937 1.956 . S
O1997 Li1939 1.961 . S
O1997 C1946 1.325 . S
O1998 Li1936 1.961 . S
O1998 Li1938 1.956 . S
O1998 Li1939 1.970 . S
O1998 C1968 1.325 . S
O1999 Li1937 1.961 . S
O1999 Li1938 1.970 . S
O1999 Li1939 1.956 . S
O1999 C1974 1.325 . S
H2000 C1942 0.929 . S
H2001 C1943 0.930 . S
H2002 C1944 0.930 . S
H2003 C1945 0.930 . S
H2004 C1947 0.930 . S
H2005 C1949 0.929 . S
H2006 C1950 0.930 . S
H2007 C1951 0.930 . S
H2008 C1954 0.930 . S
H2009 C1957 0.929 . S
H2010 C1962 0.929 . S
H2011 C1963 0.930 . S
H2012 C1970 0.929 . S
H2013 C1971 0.930 . S
H2014 C1972 0.930 . S
H2015 C1973 0.930 . S
H2016 C1975 0.929 . S
H2017 C1976 0.930 . S
H2018 C1977 0.930 . S
H2019 C1978 0.930 . S
H2020 C1982 0.929 . S
H2021 C1984 0.930 . S
H2022 C1990 0.929 . S
H2023 C1991 0.930 . S
Li2024 N2041 1.990 . S
Li2024 O2084 1.956 . S
Li2024 O2085 1.970 . S
Li2024 O2086 1.961 . S
Li2025 N2049 1.990 . S
Li2025 O2084 1.970 . S
Li2025 O2085 1.956 . S
Li2025 O2087 1.961 . S
Li2026 N2071 1.990 . S
Li2026 O2084 1.961 . S
Li2026 O2086 1.956 . S
Li2026 O2087 1.970 . S
Li2027 N2077 1.990 . S
Li2027 O2085 1.961 . S
Li2027 O2086 1.970 . S
Li2027 O2087 1.956 . S
C2028 C2030 1.348 . S
C2028 C2031 1.356 . S
C2028 O2084 1.325 . S
N2029 C2032 1.314 . S
N2029 C2033 1.279 . S
C2030 C2028 1.348 . S
C2030 C2032 1.353 . S
C2030 H2088 0.929 . S
C2031 C2028 1.356 . S
C2031 C2033 1.358 . S
C2031 H2089 0.930 . S
C2032 N2029 1.314 . S
C2032 C2030 1.353 . S
C2032 H2090 0.930 . S
C2033 N2029 1.279 . S
C2033 C2031 1.358 . S
C2033 H2091 0.930 . S
C2034 C2037 1.348 . S
C2034 C2038 1.356 . S
C2034 O2085 1.325 . S
C2035 N2036 1.279 . S
C2035 C2038 1.358 . S
C2035 H2092 0.930 . S
N2036 C2035 1.279 . S
N2036 C2039 1.314 . S
C2037 C2034 1.348 . S
C2037 C2039 1.353 . S
C2037 H2093 0.929 . S
C2038 C2034 1.356 . S
C2038 C2035 1.358 . S
C2038 H2094 0.930 . S
C2039 N2036 1.314 . S
C2039 C2037 1.353 . S
C2039 H2095 0.930 . S
C2040 N2041 1.314 . S
C2040 C2045 1.353 . S
C2040 H2046 0.930 . S
N2041 Li2024 1.990 . S
N2041 C2040 1.314 . S
N2041 C2043 1.279 . S
C2042 C2043 1.358 . S
C2042 C2044 1.356 . S
C2042 H2096 0.930 . S
C2043 N2041 1.279 . S
C2043 C2042 1.358 . S
C2043 H2047 0.930 . S
C2044 C2042 1.356 . S
C2044 C2045 1.348 . S
C2045 C2040 1.353 . S
C2045 C2044 1.348 . S
C2045 H2097 0.929 . S
H2046 C2040 0.930 . S
H2047 C2043 0.930 . S
C2048 N2049 1.314 . S
C2048 C2050 1.353 . S
C2048 H2054 0.930 . S
N2049 Li2025 1.990 . S
N2049 C2048 1.314 . S
N2049 C2052 1.279 . S
C2050 C2048 1.353 . S
C2050 C2053 1.348 . S
C2050 H2098 0.929 . S
C2051 C2052 1.358 . S
C2051 C2053 1.356 . S
C2051 H2099 0.930 . S
C2052 N2049 1.279 . S
C2052 C2051 1.358 . S
C2052 H2055 0.930 . S
C2053 C2050 1.348 . S
C2053 C2051 1.356 . S
H2054 C2048 0.930 . S
H2055 C2052 0.930 . S
C2056 C2058 1.348 . S
C2056 C2059 1.356 . S
C2056 O2086 1.325 . S
N2057 C2060 1.314 . S
N2057 C2061 1.279 . S
C2058 C2056 1.348 . S
C2058 C2060 1.353 1_554 S
C2058 H2100 0.929 . S
C2059 C2056 1.356 . S
C2059 C2061 1.358 1_554 S
C2059 H2101 0.930 . S
C2060 N2057 1.314 . S
C2060 C2058 1.353 1_556 S
C2060 H2102 0.930 . S
C2061 N2057 1.279 . S
C2061 C2059 1.358 1_556 S
C2061 H2103 0.930 . S
C2062 C2063 1.348 . S
C2062 C2064 1.356 . S
C2062 O2087 1.325 . S
C2063 C2062 1.348 . S
C2063 C2065 1.353 . S
C2063 H2104 0.929 . S
C2064 C2062 1.356 . S
C2064 C2066 1.358 . S
C2064 H2105 0.930 . S
C2065 C2063 1.353 . S
C2065 N2067 1.314 . S
C2065 H2106 0.930 . S
C2066 C2064 1.358 . S
C2066 N2067 1.279 . S
C2066 H2107 0.930 . S
N2067 C2065 1.314 . S
N2067 C2066 1.279 . S
C2068 C2070 1.353 . S
C2068 N2071 1.314 . S
C2068 H2074 0.930 . S
C2069 N2071 1.279 1_556 S
C2069 C2072 1.358 . S
C2069 H2075 0.930 . S
C2070 C2068 1.353 . S
C2070 C2073 1.348 1_554 S
C2070 H2108 0.929 . S
N2071 Li2026 1.990 . S
N2071 C2068 1.314 . S
N2071 C2069 1.279 1_554 S
C2072 C2069 1.358 . S
C2072 C2073 1.356 . S
C2072 H2109 0.930 . S
C2073 C2070 1.348 1_556 S
C2073 C2072 1.356 . S
H2074 C2068 0.930 . S
H2075 C2069 0.930 . S
C2076 N2077 1.314 . S
C2076 C2078 1.353 . S
C2076 H2082 0.930 . S
N2077 Li2027 1.990 . S
N2077 C2076 1.314 . S
N2077 C2080 1.279 . S
C2078 C2076 1.353 . S
C2078 C2081 1.348 . S
C2078 H2110 0.929 . S
C2079 C2080 1.358 . S
C2079 C2081 1.356 . S
C2079 H2111 0.930 . S
C2080 N2077 1.279 . S
C2080 C2079 1.358 . S
C2080 H2083 0.930 . S
C2081 C2078 1.348 . S
C2081 C2079 1.356 . S
H2082 C2076 0.930 . S
H2083 C2080 0.930 . S
O2084 Li2024 1.956 . S
O2084 Li2025 1.970 . S
O2084 Li2026 1.961 . S
O2084 C2028 1.325 . S
O2085 Li2024 1.970 . S
O2085 Li2025 1.956 . S
O2085 Li2027 1.961 . S
O2085 C2034 1.325 . S
O2086 Li2024 1.961 . S
O2086 Li2026 1.956 . S
O2086 Li2027 1.970 . S
O2086 C2056 1.325 . S
O2087 Li2025 1.961 . S
O2087 Li2026 1.970 . S
O2087 Li2027 1.956 . S
O2087 C2062 1.325 . S
H2088 C2030 0.929 . S
H2089 C2031 0.930 . S
H2090 C2032 0.930 . S
H2091 C2033 0.930 . S
H2092 C2035 0.930 . S
H2093 C2037 0.929 . S
H2094 C2038 0.930 . S
H2095 C2039 0.930 . S
H2096 C2042 0.930 . S
H2097 C2045 0.929 . S
H2098 C2050 0.929 . S
H2099 C2051 0.930 . S
H2100 C2058 0.929 . S
H2101 C2059 0.930 . S
H2102 C2060 0.930 . S
H2103 C2061 0.930 . S
H2104 C2063 0.929 . S
H2105 C2064 0.930 . S
H2106 C2065 0.930 . S
H2107 C2066 0.930 . S
H2108 C2070 0.929 . S
H2109 C2072 0.930 . S
H2110 C2078 0.929 . S
H2111 C2079 0.930 . S
Li2112 N2129 1.990 . S
Li2112 O2172 1.956 . S
Li2112 O2173 1.970 . S
Li2112 O2174 1.961 . S
Li2113 N2137 1.990 . S
Li2113 O2172 1.970 . S
Li2113 O2173 1.956 . S
Li2113 O2175 1.961 . S
Li2114 N2159 1.990 . S
Li2114 O2172 1.961 . S
Li2114 O2174 1.956 . S
Li2114 O2175 1.970 . S
Li2115 N2165 1.990 . S
Li2115 O2173 1.961 . S
Li2115 O2174 1.970 . S
Li2115 O2175 1.956 . S
C2116 C2118 1.348 . S
C2116 C2119 1.356 . S
C2116 O2172 1.325 . S
N2117 C2120 1.314 . S
N2117 C2121 1.279 . S
C2118 C2116 1.348 . S
C2118 C2120 1.353 . S
C2118 H2176 0.929 . S
C2119 C2116 1.356 . S
C2119 C2121 1.358 . S
C2119 H2177 0.930 . S
C2120 N2117 1.314 . S
C2120 C2118 1.353 . S
C2120 H2178 0.930 . S
C2121 N2117 1.279 . S
C2121 C2119 1.358 . S
C2121 H2179 0.930 . S
C2122 C2125 1.348 . S
C2122 C2126 1.356 . S
C2122 O2173 1.325 . S
C2123 N2124 1.279 . S
C2123 C2126 1.358 . S
C2123 H2180 0.930 . S
N2124 C2123 1.279 . S
N2124 C2127 1.314 . S
C2125 C2122 1.348 . S
C2125 C2127 1.353 . S
C2125 H2181 0.929 . S
C2126 C2122 1.356 . S
C2126 C2123 1.358 . S
C2126 H2182 0.930 . S
C2127 N2124 1.314 . S
C2127 C2125 1.353 . S
C2127 H2183 0.930 . S
C2128 N2129 1.314 . S
C2128 C2133 1.353 . S
C2128 H2134 0.930 . S
N2129 Li2112 1.990 . S
N2129 C2128 1.314 . S
N2129 C2131 1.279 . S
C2130 C2131 1.358 . S
C2130 C2132 1.356 . S
C2130 H2184 0.930 . S
C2131 N2129 1.279 . S
C2131 C2130 1.358 . S
C2131 H2135 0.930 . S
C2132 C2130 1.356 . S
C2132 C2133 1.348 . S
C2133 C2128 1.353 . S
C2133 C2132 1.348 . S
C2133 H2185 0.929 . S
H2134 C2128 0.930 . S
H2135 C2131 0.930 . S
C2136 N2137 1.314 . S
C2136 C2138 1.353 . S
C2136 H2142 0.930 . S
N2137 Li2113 1.990 . S
N2137 C2136 1.314 . S
N2137 C2140 1.279 . S
C2138 C2136 1.353 . S
C2138 C2141 1.348 . S
C2138 H2186 0.929 . S
C2139 C2140 1.358 . S
C2139 C2141 1.356 . S
C2139 H2187 0.930 . S
C2140 N2137 1.279 . S
C2140 C2139 1.358 . S
C2140 H2143 0.930 . S
C2141 C2138 1.348 . S
C2141 C2139 1.356 . S
H2142 C2136 0.930 . S
H2143 C2140 0.930 . S
C2144 C2146 1.348 . S
C2144 C2147 1.356 . S
C2144 O2174 1.325 . S
N2145 C2148 1.314 . S
N2145 C2149 1.279 . S
C2146 C2144 1.348 . S
C2146 C2148 1.353 . S
C2146 H2188 0.929 . S
C2147 C2144 1.356 . S
C2147 C2149 1.358 . S
C2147 H2189 0.930 . S
C2148 N2145 1.314 . S
C2148 C2146 1.353 . S
C2148 H2190 0.930 . S
C2149 N2145 1.279 . S
C2149 C2147 1.358 . S
C2149 H2191 0.930 . S
C2150 C2151 1.348 . S
C2150 C2152 1.356 . S
C2150 O2175 1.325 . S
C2151 C2150 1.348 . S
C2151 C2153 1.353 . S
C2151 H2192 0.929 . S
C2152 C2150 1.356 . S
C2152 C2154 1.358 . S
C2152 H2193 0.930 . S
C2153 C2151 1.353 . S
C2153 N2155 1.314 . S
C2153 H2194 0.930 . S
C2154 C2152 1.358 . S
C2154 N2155 1.279 . S
C2154 H2195 0.930 . S
N2155 C2153 1.314 . S
N2155 C2154 1.279 . S
C2156 C2158 1.353 . S
C2156 N2159 1.314 . S
C2156 H2162 0.930 . S
C2157 N2159 1.279 . S
C2157 C2160 1.358 . S
C2157 H2163 0.930 . S
C2158 C2156 1.353 . S
C2158 C2161 1.348 . S
C2158 H2196 0.929 . S
N2159 Li2114 1.990 . S
N2159 C2156 1.314 . S
N2159 C2157 1.279 . S
C2160 C2157 1.358 . S
C2160 C2161 1.356 . S
C2160 H2197 0.930 . S
C2161 C2158 1.348 . S
C2161 C2160 1.356 . S
H2162 C2156 0.930 . S
H2163 C2157 0.930 . S
C2164 N2165 1.314 . S
C2164 C2166 1.353 . S
C2164 H2170 0.930 . S
N2165 Li2115 1.990 . S
N2165 C2164 1.314 . S
N2165 C2168 1.279 . S
C2166 C2164 1.353 . S
C2166 C2169 1.348 . S
C2166 H2198 0.929 . S
C2167 C2168 1.358 . S
C2167 C2169 1.356 . S
C2167 H2199 0.930 . S
C2168 N2165 1.279 . S
C2168 C2167 1.358 . S
C2168 H2171 0.930 . S
C2169 C2166 1.348 . S
C2169 C2167 1.356 . S
H2170 C2164 0.930 . S
H2171 C2168 0.930 . S
O2172 Li2112 1.956 . S
O2172 Li2113 1.970 . S
O2172 Li2114 1.961 . S
O2172 C2116 1.325 . S
O2173 Li2112 1.970 . S
O2173 Li2113 1.956 . S
O2173 Li2115 1.961 . S
O2173 C2122 1.325 . S
O2174 Li2112 1.961 . S
O2174 Li2114 1.956 . S
O2174 Li2115 1.970 . S
O2174 C2144 1.325 . S
O2175 Li2113 1.961 . S
O2175 Li2114 1.970 . S
O2175 Li2115 1.956 . S
O2175 C2150 1.325 . S
H2176 C2118 0.929 . S
H2177 C2119 0.930 . S
H2178 C2120 0.930 . S
H2179 C2121 0.930 . S
H2180 C2123 0.930 . S
H2181 C2125 0.929 . S
H2182 C2126 0.930 . S
H2183 C2127 0.930 . S
H2184 C2130 0.930 . S
H2185 C2133 0.929 . S
H2186 C2138 0.929 . S
H2187 C2139 0.930 . S
H2188 C2146 0.929 . S
H2189 C2147 0.930 . S
H2190 C2148 0.930 . S
H2191 C2149 0.930 . S
H2192 C2151 0.929 . S
H2193 C2152 0.930 . S
H2194 C2153 0.930 . S
H2195 C2154 0.930 . S
H2196 C2158 0.929 . S
H2197 C2160 0.930 . S
H2198 C2166 0.929 . S
H2199 C2167 0.930 . S
Li2200 N2217 1.990 . S
Li2200 O2260 1.956 . S
Li2200 O2261 1.970 . S
Li2200 O2262 1.961 . S
Li2201 N2225 1.990 . S
Li2201 O2260 1.970 . S
Li2201 O2261 1.956 . S
Li2201 O2263 1.961 . S
Li2202 N2247 1.990 . S
Li2202 O2260 1.961 . S
Li2202 O2262 1.956 . S
Li2202 O2263 1.970 . S
Li2203 N2253 1.990 . S
Li2203 O2261 1.961 . S
Li2203 O2262 1.970 . S
Li2203 O2263 1.956 . S
C2204 C2206 1.348 . S
C2204 C2207 1.356 . S
C2204 O2260 1.325 . S
N2205 C2208 1.314 . S
N2205 C2209 1.279 . S
C2206 C2204 1.348 . S
C2206 C2208 1.353 . S
C2206 H2264 0.929 . S
C2207 C2204 1.356 . S
C2207 C2209 1.358 . S
C2207 H2265 0.930 . S
C2208 N2205 1.314 . S
C2208 C2206 1.353 . S
C2208 H2266 0.930 . S
C2209 N2205 1.279 . S
C2209 C2207 1.358 . S
C2209 H2267 0.930 . S
C2210 C2213 1.348 . S
C2210 C2214 1.356 . S
C2210 O2261 1.325 . S
C2211 N2212 1.279 . S
C2211 C2214 1.358 . S
C2211 H2268 0.930 . S
N2212 C2211 1.279 . S
N2212 C2215 1.314 . S
C2213 C2210 1.348 . S
C2213 C2215 1.353 . S
C2213 H2269 0.929 . S
C2214 C2210 1.356 . S
C2214 C2211 1.358 . S
C2214 H2270 0.930 . S
C2215 N2212 1.314 . S
C2215 C2213 1.353 . S
C2215 H2271 0.930 . S
C2216 N2217 1.314 1_556 S
C2216 C2221 1.353 . S
C2216 H2222 0.930 . S
N2217 Li2200 1.990 . S
N2217 C2216 1.314 1_554 S
N2217 C2219 1.279 . S
C2218 C2219 1.358 1_556 S
C2218 C2220 1.356 . S
C2218 H2272 0.927 1_556 S
C2219 N2217 1.279 . S
C2219 C2218 1.358 1_554 S
C2219 H2223 0.930 . S
C2220 C2218 1.356 . S
C2220 C2221 1.348 . S
C2221 C2216 1.353 . S
C2221 C2220 1.348 . S
C2221 H2273 0.929 . S
H2222 C2216 0.930 . S
H2223 C2219 0.930 . S
C2224 N2225 1.314 . S
C2224 C2226 1.353 . S
C2224 H2230 0.930 . S
N2225 Li2201 1.990 . S
N2225 C2224 1.314 . S
N2225 C2228 1.279 . S
C2226 C2224 1.353 . S
C2226 C2229 1.348 . S
C2226 H2274 0.929 . S
C2227 C2228 1.358 . S
C2227 C2229 1.356 . S
C2227 H2275 0.930 . S
C2228 N2225 1.279 . S
C2228 C2227 1.358 . S
C2228 H2231 0.930 . S
C2229 C2226 1.348 . S
C2229 C2227 1.356 . S
H2230 C2224 0.930 . S
H2231 C2228 0.930 . S
C2232 C2234 1.348 . S
C2232 C2235 1.356 . S
C2232 O2262 1.325 . S
N2233 C2236 1.314 . S
N2233 C2237 1.279 . S
C2234 C2232 1.348 . S
C2234 C2236 1.353 1_554 S
C2234 H2276 0.929 . S
C2235 C2232 1.356 . S
C2235 C2237 1.358 1_554 S
C2235 H2277 0.930 . S
C2236 N2233 1.314 . S
C2236 C2234 1.353 1_556 S
C2236 H2278 0.930 . S
C2237 N2233 1.279 . S
C2237 C2235 1.358 1_556 S
C2237 H2279 0.930 . S
C2238 C2239 1.348 . S
C2238 C2240 1.356 . S
C2238 O2263 1.325 . S
C2239 C2238 1.348 . S
C2239 C2241 1.353 . S
C2239 H2280 0.929 . S
C2240 C2238 1.356 . S
C2240 C2242 1.358 . S
C2240 H2281 0.930 . S
C2241 C2239 1.353 . S
C2241 N2243 1.314 . S
C2241 H2282 0.930 . S
C2242 C2240 1.358 . S
C2242 N2243 1.279 . S
C2242 H2283 0.930 . S
N2243 C2241 1.314 . S
N2243 C2242 1.279 . S
C2244 C2246 1.353 . S
C2244 N2247 1.314 . S
C2244 H2250 0.930 . S
C2245 N2247 1.279 . S
C2245 C2248 1.358 . S
C2245 H2251 0.930 . S
C2246 C2244 1.353 . S
C2246 C2249 1.348 . S
C2246 H2284 0.929 . S
N2247 Li2202 1.990 . S
N2247 C2244 1.314 . S
N2247 C2245 1.279 . S
C2248 C2245 1.358 . S
C2248 C2249 1.356 . S
C2248 H2285 0.930 . S
C2249 C2246 1.348 . S
C2249 C2248 1.356 . S
H2250 C2244 0.930 . S
H2251 C2245 0.930 . S
C2252 N2253 1.314 . S
C2252 C2254 1.353 . S
C2252 H2258 0.930 . S
N2253 Li2203 1.990 . S
N2253 C2252 1.314 . S
N2253 C2256 1.279 . S
C2254 C2252 1.353 . S
C2254 C2257 1.348 . S
C2254 H2286 0.929 . S
C2255 C2256 1.358 . S
C2255 C2257 1.356 . S
C2255 H2287 0.930 . S
C2256 N2253 1.279 . S
C2256 C2255 1.358 . S
C2256 H2259 0.930 . S
C2257 C2254 1.348 . S
C2257 C2255 1.356 . S
H2258 C2252 0.930 . S
H2259 C2256 0.930 . S
O2260 Li2200 1.956 . S
O2260 Li2201 1.970 . S
O2260 Li2202 1.961 . S
O2260 C2204 1.325 . S
O2261 Li2200 1.970 . S
O2261 Li2201 1.956 . S
O2261 Li2203 1.961 . S
O2261 C2210 1.325 . S
O2262 Li2200 1.961 . S
O2262 Li2202 1.956 . S
O2262 Li2203 1.970 . S
O2262 C2232 1.325 . S
O2263 Li2201 1.961 . S
O2263 Li2202 1.970 . S
O2263 Li2203 1.956 . S
O2263 C2238 1.325 . S
H2264 C2206 0.929 . S
H2265 C2207 0.930 . S
H2266 C2208 0.930 . S
H2267 C2209 0.930 . S
H2268 C2211 0.930 . S
H2269 C2213 0.929 . S
H2270 C2214 0.930 . S
H2271 C2215 0.930 . S
H2272 C2218 0.927 1_554 S
H2273 C2221 0.929 . S
H2274 C2226 0.929 . S
H2275 C2227 0.930 . S
H2276 C2234 0.929 . S
H2277 C2235 0.930 . S
H2278 C2236 0.930 . S
H2279 C2237 0.930 . S
H2280 C2239 0.929 . S
H2281 C2240 0.930 . S
H2282 C2241 0.930 . S
H2283 C2242 0.930 . S
H2284 C2246 0.929 . S
H2285 C2248 0.930 . S
H2286 C2254 0.929 . S
H2287 C2255 0.930 . S
Li2288 N2305 1.990 . S
Li2288 O2348 1.956 . S
Li2288 O2349 1.970 . S
Li2288 O2350 1.961 . S
Li2289 N2313 1.990 . S
Li2289 O2348 1.970 . S
Li2289 O2349 1.956 . S
Li2289 O2351 1.961 . S
Li2290 N2335 1.990 . S
Li2290 O2348 1.961 . S
Li2290 O2350 1.956 . S
Li2290 O2351 1.970 . S
Li2291 N2341 1.990 . S
Li2291 O2349 1.961 . S
Li2291 O2350 1.970 . S
Li2291 O2351 1.956 . S
C2292 C2294 1.348 . S
C2292 C2295 1.356 . S
C2292 O2348 1.325 . S
N2293 C2296 1.314 . S
N2293 C2297 1.279 . S
C2294 C2292 1.348 . S
C2294 C2296 1.353 . S
C2294 H2352 0.929 . S
C2295 C2292 1.356 . S
C2295 C2297 1.358 . S
C2295 H2353 0.930 . S
C2296 N2293 1.314 . S
C2296 C2294 1.353 . S
C2296 H2354 0.930 . S
C2297 N2293 1.279 . S
C2297 C2295 1.358 . S
C2297 H2355 0.930 . S
C2298 C2301 1.348 . S
C2298 C2302 1.356 . S
C2298 O2349 1.325 . S
C2299 N2300 1.279 . S
C2299 C2302 1.358 . S
C2299 H2356 0.930 . S
N2300 C2299 1.279 . S
N2300 C2303 1.314 . S
C2301 C2298 1.348 . S
C2301 C2303 1.353 . S
C2301 H2357 0.929 . S
C2302 C2298 1.356 . S
C2302 C2299 1.358 . S
C2302 H2358 0.930 . S
C2303 N2300 1.314 . S
C2303 C2301 1.353 . S
C2303 H2359 0.930 . S
C2304 N2305 1.314 . S
C2304 C2309 1.353 . S
C2304 H2310 0.930 . S
N2305 Li2288 1.990 . S
N2305 C2304 1.314 . S
N2305 C2307 1.279 . S
C2306 C2307 1.358 . S
C2306 C2308 1.356 . S
C2306 H2360 0.930 . S
C2307 N2305 1.279 . S
C2307 C2306 1.358 . S
C2307 H2311 0.930 . S
C2308 C2306 1.356 . S
C2308 C2309 1.348 . S
C2309 C2304 1.353 . S
C2309 C2308 1.348 . S
C2309 H2361 0.929 . S
H2310 C2304 0.930 . S
H2311 C2307 0.930 . S
C2312 N2313 1.314 . S
C2312 C2314 1.353 1_556 S
C2312 H2318 0.930 . S
N2313 Li2289 1.990 . S
N2313 C2312 1.314 . S
N2313 C2316 1.279 . S
C2314 C2312 1.353 1_554 S
C2314 C2317 1.348 . S
C2314 H2362 0.929 . S
C2315 C2316 1.358 . S
C2315 C2317 1.356 1_556 S
C2315 H2363 0.930 . S
C2316 N2313 1.279 . S
C2316 C2315 1.358 . S
C2316 H2319 0.930 . S
C2317 C2314 1.348 . S
C2317 C2315 1.356 1_554 S
H2318 C2312 0.930 . S
H2319 C2316 0.930 . S
C2320 C2322 1.348 . S
C2320 C2323 1.356 . S
C2320 O2350 1.325 . S
N2321 C2324 1.314 . S
N2321 C2325 1.279 . S
C2322 C2320 1.348 . S
C2322 C2324 1.353 . S
C2322 H2364 0.929 . S
C2323 C2320 1.356 . S
C2323 C2325 1.358 . S
C2323 H2365 0.930 . S
C2324 N2321 1.314 . S
C2324 C2322 1.353 . S
C2324 H2366 0.930 . S
C2325 N2321 1.279 . S
C2325 C2323 1.358 . S
C2325 H2367 0.930 . S
C2326 C2327 1.348 . S
C2326 C2328 1.356 . S
C2326 O2351 1.325 . S
C2327 C2326 1.348 . S
C2327 C2329 1.353 . S
C2327 H2368 0.929 . S
C2328 C2326 1.356 . S
C2328 C2330 1.358 . S
C2328 H2369 0.930 . S
C2329 C2327 1.353 . S
C2329 N2331 1.314 . S
C2329 H2370 0.930 . S
C2330 C2328 1.358 . S
C2330 N2331 1.279 . S
C2330 H2371 0.930 . S
N2331 C2329 1.314 . S
N2331 C2330 1.279 . S
C2332 C2334 1.353 . S
C2332 N2335 1.314 . S
C2332 H2338 0.930 . S
C2333 N2335 1.279 . S
C2333 C2336 1.358 . S
C2333 H2339 0.930 . S
C2334 C2332 1.353 . S
C2334 C2337 1.348 . S
C2334 H2372 0.929 . S
N2335 Li2290 1.990 . S
N2335 C2332 1.314 . S
N2335 C2333 1.279 . S
C2336 C2333 1.358 . S
C2336 C2337 1.356 . S
C2336 H2373 0.930 . S
C2337 C2334 1.348 . S
C2337 C2336 1.356 . S
H2338 C2332 0.930 . S
H2339 C2333 0.930 . S
C2340 N2341 1.314 . S
C2340 C2342 1.353 . S
C2340 H2346 0.930 . S
N2341 Li2291 1.990 . S
N2341 C2340 1.314 . S
N2341 C2344 1.279 . S
C2342 C2340 1.353 . S
C2342 C2345 1.348 . S
C2342 H2374 0.929 . S
C2343 C2344 1.358 . S
C2343 C2345 1.356 . S
C2343 H2375 0.930 . S
C2344 N2341 1.279 . S
C2344 C2343 1.358 . S
C2344 H2347 0.930 . S
C2345 C2342 1.348 . S
C2345 C2343 1.356 . S
H2346 C2340 0.930 . S
H2347 C2344 0.930 . S
O2348 Li2288 1.956 . S
O2348 Li2289 1.970 . S
O2348 Li2290 1.961 . S
O2348 C2292 1.325 . S
O2349 Li2288 1.970 . S
O2349 Li2289 1.956 . S
O2349 Li2291 1.961 . S
O2349 C2298 1.325 . S
O2350 Li2288 1.961 . S
O2350 Li2290 1.956 . S
O2350 Li2291 1.970 . S
O2350 C2320 1.325 . S
O2351 Li2289 1.961 . S
O2351 Li2290 1.970 . S
O2351 Li2291 1.956 . S
O2351 C2326 1.325 . S
H2352 C2294 0.929 . S
H2353 C2295 0.930 . S
H2354 C2296 0.930 . S
H2355 C2297 0.930 . S
H2356 C2299 0.930 . S
H2357 C2301 0.929 . S
H2358 C2302 0.930 . S
H2359 C2303 0.930 . S
H2360 C2306 0.930 . S
H2361 C2309 0.929 . S
H2362 C2314 0.929 . S
H2363 C2315 0.930 . S
H2364 C2322 0.929 . S
H2365 C2323 0.930 . S
H2366 C2324 0.930 . S
H2367 C2325 0.930 . S
H2368 C2327 0.929 . S
H2369 C2328 0.930 . S
H2370 C2329 0.930 . S
H2371 C2330 0.930 . S
H2372 C2334 0.929 . S
H2373 C2336 0.930 . S
H2374 C2342 0.929 . S
H2375 C2343 0.930 . S
Li2376 N2393 1.990 . S
Li2376 O2436 1.956 . S
Li2376 O2437 1.970 . S
Li2376 O2438 1.961 . S
Li2377 N2401 1.990 . S
Li2377 O2436 1.970 . S
Li2377 O2437 1.956 . S
Li2377 O2439 1.961 . S
Li2378 N2423 1.990 . S
Li2378 O2436 1.961 . S
Li2378 O2438 1.956 . S
Li2378 O2439 1.970 . S
Li2379 N2429 1.990 . S
Li2379 O2437 1.961 . S
Li2379 O2438 1.970 . S
Li2379 O2439 1.956 . S
C2380 C2382 1.348 . S
C2380 C2383 1.356 . S
C2380 O2436 1.325 . S
N2381 C2384 1.314 . S
N2381 C2385 1.279 . S
C2382 C2380 1.348 . S
C2382 C2384 1.353 . S
C2382 H2440 0.929 . S
C2383 C2380 1.356 . S
C2383 C2385 1.358 . S
C2383 H2441 0.930 . S
C2384 N2381 1.314 . S
C2384 C2382 1.353 . S
C2384 H2442 0.930 . S
C2385 N2381 1.279 . S
C2385 C2383 1.358 . S
C2385 H2443 0.930 . S
C2386 C2389 1.348 . S
C2386 C2390 1.356 . S
C2386 O2437 1.325 . S
C2387 N2388 1.279 . S
C2387 C2390 1.358 . S
C2387 H2444 0.930 . S
N2388 C2387 1.279 . S
N2388 C2391 1.314 . S
C2389 C2386 1.348 . S
C2389 C2391 1.353 . S
C2389 H2445 0.929 . S
C2390 C2386 1.356 . S
C2390 C2387 1.358 . S
C2390 H2446 0.930 . S
C2391 N2388 1.314 . S
C2391 C2389 1.353 . S
C2391 H2447 0.930 . S
C2392 N2393 1.314 . S
C2392 C2397 1.353 . S
C2392 H2398 0.930 . S
N2393 Li2376 1.990 . S
N2393 C2392 1.314 . S
N2393 C2395 1.279 . S
C2394 C2395 1.358 . S
C2394 C2396 1.356 . S
C2394 H2448 0.930 . S
C2395 N2393 1.279 . S
C2395 C2394 1.358 . S
C2395 H2399 0.930 . S
C2396 C2394 1.356 . S
C2396 C2397 1.348 . S
C2397 C2392 1.353 . S
C2397 C2396 1.348 . S
C2397 H2449 0.929 . S
H2398 C2392 0.930 . S
H2399 C2395 0.930 . S
C2400 N2401 1.314 . S
C2400 C2402 1.353 . S
C2400 H2406 0.930 . S
N2401 Li2377 1.990 . S
N2401 C2400 1.314 . S
N2401 C2404 1.279 . S
C2402 C2400 1.353 . S
C2402 C2405 1.348 . S
C2402 H2450 0.929 . S
C2403 C2404 1.358 . S
C2403 C2405 1.356 . S
C2403 H2451 0.930 . S
C2404 N2401 1.279 . S
C2404 C2403 1.358 . S
C2404 H2407 0.930 . S
C2405 C2402 1.348 . S
C2405 C2403 1.356 . S
H2406 C2400 0.930 . S
H2407 C2404 0.930 . S
C2408 C2410 1.348 . S
C2408 C2411 1.356 . S
C2408 O2438 1.325 . S
N2409 C2412 1.314 . S
N2409 C2413 1.279 . S
C2410 C2408 1.348 . S
C2410 C2412 1.353 . S
C2410 H2452 0.929 . S
C2411 C2408 1.356 . S
C2411 C2413 1.358 . S
C2411 H2453 0.930 . S
C2412 N2409 1.314 . S
C2412 C2410 1.353 . S
C2412 H2454 0.930 . S
C2413 N2409 1.279 . S
C2413 C2411 1.358 . S
C2413 H2455 0.930 . S
C2414 C2415 1.348 . S
C2414 C2416 1.356 . S
C2414 O2439 1.325 . S
C2415 C2414 1.348 . S
C2415 C2417 1.353 . S
C2415 H2456 0.929 . S
C2416 C2414 1.356 . S
C2416 C2418 1.358 . S
C2416 H2457 0.930 . S
C2417 C2415 1.353 . S
C2417 N2419 1.314 . S
C2417 H2458 0.930 . S
C2418 C2416 1.358 . S
C2418 N2419 1.279 . S
C2418 H2459 0.930 . S
N2419 C2417 1.314 . S
N2419 C2418 1.279 . S
C2420 C2422 1.353 . S
C2420 N2423 1.314 . S
C2420 H2426 0.930 . S
C2421 N2423 1.279 . S
C2421 C2424 1.358 . S
C2421 H2427 0.930 . S
C2422 C2420 1.353 . S
C2422 C2425 1.348 . S
C2422 H2460 0.929 . S
N2423 Li2378 1.990 . S
N2423 C2420 1.314 . S
N2423 C2421 1.279 . S
C2424 C2421 1.358 . S
C2424 C2425 1.356 . S
C2424 H2461 0.930 . S
C2425 C2422 1.348 . S
C2425 C2424 1.356 . S
H2426 C2420 0.930 . S
H2427 C2421 0.930 . S
C2428 N2429 1.314 . S
C2428 C2430 1.353 . S
C2428 H2434 0.930 . S
N2429 Li2379 1.990 . S
N2429 C2428 1.314 . S
N2429 C2432 1.279 . S
C2430 C2428 1.353 . S
C2430 C2433 1.348 . S
C2430 H2462 0.929 . S
C2431 C2432 1.358 . S
C2431 C2433 1.356 . S
C2431 H2463 0.930 . S
C2432 N2429 1.279 . S
C2432 C2431 1.358 . S
C2432 H2435 0.930 . S
C2433 C2430 1.348 . S
C2433 C2431 1.356 . S
H2434 C2428 0.930 . S
H2435 C2432 0.930 . S
O2436 Li2376 1.956 . S
O2436 Li2377 1.970 . S
O2436 Li2378 1.961 . S
O2436 C2380 1.325 . S
O2437 Li2376 1.970 . S
O2437 Li2377 1.956 . S
O2437 Li2379 1.961 . S
O2437 C2386 1.325 . S
O2438 Li2376 1.961 . S
O2438 Li2378 1.956 . S
O2438 Li2379 1.970 . S
O2438 C2408 1.325 . S
O2439 Li2377 1.961 . S
O2439 Li2378 1.970 . S
O2439 Li2379 1.956 . S
O2439 C2414 1.325 . S
H2440 C2382 0.929 . S
H2441 C2383 0.930 . S
H2442 C2384 0.930 . S
H2443 C2385 0.930 . S
H2444 C2387 0.930 . S
H2445 C2389 0.929 . S
H2446 C2390 0.930 . S
H2447 C2391 0.930 . S
H2448 C2394 0.930 . S
H2449 C2397 0.929 . S
H2450 C2402 0.929 . S
H2451 C2403 0.930 . S
H2452 C2410 0.929 . S
H2453 C2411 0.930 . S
H2454 C2412 0.930 . S
H2455 C2413 0.930 . S
H2456 C2415 0.929 . S
H2457 C2416 0.930 . S
H2458 C2417 0.930 . S
H2459 C2418 0.930 . S
H2460 C2422 0.929 . S
H2461 C2424 0.930 . S
H2462 C2430 0.929 . S
H2463 C2431 0.930 . S
Li2464 N2481 1.990 . S
Li2464 O2524 1.956 . S
Li2464 O2525 1.970 . S
Li2464 O2526 1.961 . S
Li2465 N2489 1.990 . S
Li2465 O2524 1.970 . S
Li2465 O2525 1.956 . S
Li2465 O2527 1.961 . S
Li2466 N2511 1.990 . S
Li2466 O2524 1.961 . S
Li2466 O2526 1.956 . S
Li2466 O2527 1.970 . S
Li2467 N2517 1.990 . S
Li2467 O2525 1.961 . S
Li2467 O2526 1.970 . S
Li2467 O2527 1.956 . S
C2468 C2470 1.348 . S
C2468 C2471 1.356 . S
C2468 O2524 1.325 . S
N2469 C2472 1.314 . S
N2469 C2473 1.279 . S
C2470 C2468 1.348 . S
C2470 C2472 1.353 . S
C2470 H2528 0.929 . S
C2471 C2468 1.356 . S
C2471 C2473 1.358 . S
C2471 H2529 0.930 . S
C2472 N2469 1.314 . S
C2472 C2470 1.353 . S
C2472 H2530 0.930 . S
C2473 N2469 1.279 . S
C2473 C2471 1.358 . S
C2473 H2531 0.930 . S
C2474 C2477 1.348 . S
C2474 C2478 1.356 . S
C2474 O2525 1.325 . S
C2475 N2476 1.279 . S
C2475 C2478 1.358 . S
C2475 H2532 0.930 . S
N2476 C2475 1.279 . S
N2476 C2479 1.314 . S
C2477 C2474 1.348 . S
C2477 C2479 1.353 . S
C2477 H2533 0.929 . S
C2478 C2474 1.356 . S
C2478 C2475 1.358 . S
C2478 H2534 0.930 . S
C2479 N2476 1.314 . S
C2479 C2477 1.353 . S
C2479 H2535 0.930 . S
C2480 N2481 1.314 . S
C2480 C2485 1.353 . S
C2480 H2486 0.930 . S
N2481 Li2464 1.990 . S
N2481 C2480 1.314 . S
N2481 C2483 1.279 . S
C2482 C2483 1.358 . S
C2482 C2484 1.356 . S
C2482 H2536 0.930 . S
C2483 N2481 1.279 . S
C2483 C2482 1.358 . S
C2483 H2487 0.930 . S
C2484 C2482 1.356 . S
C2484 C2485 1.348 . S
C2485 C2480 1.353 . S
C2485 C2484 1.348 . S
C2485 H2537 0.929 . S
H2486 C2480 0.930 . S
H2487 C2483 0.930 . S
C2488 N2489 1.314 . S
C2488 C2490 1.353 . S
C2488 H2494 0.930 . S
N2489 Li2465 1.990 . S
N2489 C2488 1.314 . S
N2489 C2492 1.279 . S
C2490 C2488 1.353 . S
C2490 C2493 1.348 . S
C2490 H2538 0.929 . S
C2491 C2492 1.358 . S
C2491 C2493 1.356 . S
C2491 H2539 0.930 . S
C2492 N2489 1.279 . S
C2492 C2491 1.358 . S
C2492 H2495 0.930 . S
C2493 C2490 1.348 . S
C2493 C2491 1.356 . S
H2494 C2488 0.930 . S
H2495 C2492 0.930 . S
C2496 C2498 1.348 . S
C2496 C2499 1.356 . S
C2496 O2526 1.325 . S
N2497 C2500 1.314 . S
N2497 C2501 1.279 . S
C2498 C2496 1.348 . S
C2498 C2500 1.353 . S
C2498 H2540 0.929 . S
C2499 C2496 1.356 . S
C2499 C2501 1.358 . S
C2499 H2541 0.930 . S
C2500 N2497 1.314 . S
C2500 C2498 1.353 . S
C2500 H2542 0.930 . S
C2501 N2497 1.279 . S
C2501 C2499 1.358 . S
C2501 H2543 0.930 . S
C2502 C2503 1.348 . S
C2502 C2504 1.356 . S
C2502 O2527 1.325 . S
C2503 C2502 1.348 . S
C2503 C2505 1.353 . S
C2503 H2544 0.929 . S
C2504 C2502 1.356 . S
C2504 C2506 1.358 . S
C2504 H2545 0.930 . S
C2505 C2503 1.353 . S
C2505 N2507 1.314 . S
C2505 H2546 0.930 . S
C2506 C2504 1.358 . S
C2506 N2507 1.279 . S
C2506 H2547 0.930 . S
N2507 C2505 1.314 . S
N2507 C2506 1.279 . S
C2508 C2510 1.353 . S
C2508 N2511 1.314 . S
C2508 H2514 0.930 . S
C2509 N2511 1.279 . S
C2509 C2512 1.358 . S
C2509 H2515 0.930 . S
C2510 C2508 1.353 . S
C2510 C2513 1.348 . S
C2510 H2548 0.929 . S
N2511 Li2466 1.990 . S
N2511 C2508 1.314 . S
N2511 C2509 1.279 . S
C2512 C2509 1.358 . S
C2512 C2513 1.356 . S
C2512 H2549 0.930 . S
C2513 C2510 1.348 . S
C2513 C2512 1.356 . S
H2514 C2508 0.930 . S
H2515 C2509 0.930 . S
C2516 N2517 1.314 . S
C2516 C2518 1.353 . S
C2516 H2522 0.930 . S
N2517 Li2467 1.990 . S
N2517 C2516 1.314 . S
N2517 C2520 1.279 . S
C2518 C2516 1.353 . S
C2518 C2521 1.348 . S
C2518 H2550 0.929 . S
C2519 C2520 1.358 . S
C2519 C2521 1.356 . S
C2519 H2551 0.930 . S
C2520 N2517 1.279 . S
C2520 C2519 1.358 . S
C2520 H2523 0.930 . S
C2521 C2518 1.348 . S
C2521 C2519 1.356 . S
H2522 C2516 0.930 . S
H2523 C2520 0.930 . S
O2524 Li2464 1.956 . S
O2524 Li2465 1.970 . S
O2524 Li2466 1.961 . S
O2524 C2468 1.325 . S
O2525 Li2464 1.970 . S
O2525 Li2465 1.956 . S
O2525 Li2467 1.961 . S
O2525 C2474 1.325 . S
O2526 Li2464 1.961 . S
O2526 Li2466 1.956 . S
O2526 Li2467 1.970 . S
O2526 C2496 1.325 . S
O2527 Li2465 1.961 . S
O2527 Li2466 1.970 . S
O2527 Li2467 1.956 . S
O2527 C2502 1.325 . S
H2528 C2470 0.929 . S
H2529 C2471 0.930 . S
H2530 C2472 0.930 . S
H2531 C2473 0.930 . S
H2532 C2475 0.930 . S
H2533 C2477 0.929 . S
H2534 C2478 0.930 . S
H2535 C2479 0.930 . S
H2536 C2482 0.930 . S
H2537 C2485 0.929 . S
H2538 C2490 0.929 . S
H2539 C2491 0.930 . S
H2540 C2498 0.929 . S
H2541 C2499 0.930 . S
H2542 C2500 0.930 . S
H2543 C2501 0.930 . S
H2544 C2503 0.929 . S
H2545 C2504 0.930 . S
H2546 C2505 0.930 . S
H2547 C2506 0.930 . S
H2548 C2510 0.929 . S
H2549 C2512 0.930 . S
H2550 C2518 0.929 . S
H2551 C2519 0.930 . S
Li2552 N2569 1.990 . S
Li2552 O2612 1.956 . S
Li2552 O2613 1.970 . S
Li2552 O2614 1.961 . S
Li2553 N2577 1.990 . S
Li2553 O2612 1.970 . S
Li2553 O2613 1.956 . S
Li2553 O2615 1.961 . S
Li2554 N2599 1.990 . S
Li2554 O2612 1.961 . S
Li2554 O2614 1.956 . S
Li2554 O2615 1.970 . S
Li2555 N2605 1.990 . S
Li2555 O2613 1.961 . S
Li2555 O2614 1.970 . S
Li2555 O2615 1.956 . S
C2556 C2558 1.348 . S
C2556 C2559 1.356 . S
C2556 O2612 1.325 . S
N2557 C2560 1.314 . S
N2557 C2561 1.279 . S
C2558 C2556 1.348 . S
C2558 C2560 1.353 . S
C2558 H2616 0.929 . S
C2559 C2556 1.356 . S
C2559 C2561 1.358 . S
C2559 H2617 0.930 . S
C2560 N2557 1.314 . S
C2560 C2558 1.353 . S
C2560 H2618 0.930 . S
C2561 N2557 1.279 . S
C2561 C2559 1.358 . S
C2561 H2619 0.930 . S
C2562 C2565 1.348 . S
C2562 C2566 1.356 . S
C2562 O2613 1.325 . S
C2563 N2564 1.279 . S
C2563 C2566 1.358 . S
C2563 H2620 0.930 . S
N2564 C2563 1.279 . S
N2564 C2567 1.314 . S
C2565 C2562 1.348 . S
C2565 C2567 1.353 . S
C2565 H2621 0.929 . S
C2566 C2562 1.356 . S
C2566 C2563 1.358 . S
C2566 H2622 0.930 . S
C2567 N2564 1.314 . S
C2567 C2565 1.353 . S
C2567 H2623 0.930 . S
C2568 N2569 1.314 . S
C2568 C2573 1.353 . S
C2568 H2574 0.930 . S
N2569 Li2552 1.990 . S
N2569 C2568 1.314 . S
N2569 C2571 1.279 . S
C2570 C2571 1.358 . S
C2570 C2572 1.356 . S
C2570 H2624 0.930 . S
C2571 N2569 1.279 . S
C2571 C2570 1.358 . S
C2571 H2575 0.930 . S
C2572 C2570 1.356 . S
C2572 C2573 1.348 . S
C2573 C2568 1.353 . S
C2573 C2572 1.348 . S
C2573 H2625 0.929 . S
H2574 C2568 0.930 . S
H2575 C2571 0.930 . S
C2576 N2577 1.314 . S
C2576 C2578 1.353 . S
C2576 H2582 0.930 . S
N2577 Li2553 1.990 . S
N2577 C2576 1.314 . S
N2577 C2580 1.279 . S
C2578 C2576 1.353 . S
C2578 C2581 1.348 . S
C2578 H2626 0.929 . S
C2579 C2580 1.358 . S
C2579 C2581 1.356 . S
C2579 H2627 0.930 . S
C2580 N2577 1.279 . S
C2580 C2579 1.358 . S
C2580 H2583 0.930 . S
C2581 C2578 1.348 . S
C2581 C2579 1.356 . S
H2582 C2576 0.930 . S
H2583 C2580 0.930 . S
C2584 C2586 1.348 . S
C2584 C2587 1.356 . S
C2584 O2614 1.325 . S
N2585 C2588 1.314 . S
N2585 C2589 1.279 . S
C2586 C2584 1.348 . S
C2586 C2588 1.353 . S
C2586 H2628 0.929 . S
C2587 C2584 1.356 . S
C2587 C2589 1.358 . S
C2587 H2629 0.930 . S
C2588 N2585 1.314 . S
C2588 C2586 1.353 . S
C2588 H2630 0.930 . S
C2589 N2585 1.279 . S
C2589 C2587 1.358 . S
C2589 H2631 0.930 . S
C2590 C2591 1.348 . S
C2590 C2592 1.356 . S
C2590 O2615 1.325 . S
C2591 C2590 1.348 . S
C2591 C2593 1.353 . S
C2591 H2632 0.929 . S
C2592 C2590 1.356 . S
C2592 C2594 1.358 . S
C2592 H2633 0.930 . S
C2593 C2591 1.353 . S
C2593 N2595 1.314 . S
C2593 H2634 0.930 . S
C2594 C2592 1.358 . S
C2594 N2595 1.279 . S
C2594 H2635 0.930 . S
N2595 C2593 1.314 . S
N2595 C2594 1.279 . S
C2596 C2598 1.353 . S
C2596 N2599 1.314 . S
C2596 H2602 0.930 . S
C2597 N2599 1.279 . S
C2597 C2600 1.358 . S
C2597 H2603 0.930 . S
C2598 C2596 1.353 . S
C2598 C2601 1.348 . S
C2598 H2636 0.929 . S
N2599 Li2554 1.990 . S
N2599 C2596 1.314 . S
N2599 C2597 1.279 . S
C2600 C2597 1.358 . S
C2600 C2601 1.356 . S
C2600 H2637 0.930 . S
C2601 C2598 1.348 . S
C2601 C2600 1.356 . S
H2602 C2596 0.930 . S
H2603 C2597 0.930 . S
C2604 N2605 1.314 . S
C2604 C2606 1.353 . S
C2604 H2610 0.930 . S
N2605 Li2555 1.990 . S
N2605 C2604 1.314 . S
N2605 C2608 1.279 . S
C2606 C2604 1.353 . S
C2606 C2609 1.348 . S
C2606 H2638 0.929 . S
C2607 C2608 1.358 . S
C2607 C2609 1.356 . S
C2607 H2639 0.930 . S
C2608 N2605 1.279 . S
C2608 C2607 1.358 . S
C2608 H2611 0.930 . S
C2609 C2606 1.348 . S
C2609 C2607 1.356 . S
H2610 C2604 0.930 . S
H2611 C2608 0.930 . S
O2612 Li2552 1.956 . S
O2612 Li2553 1.970 . S
O2612 Li2554 1.961 . S
O2612 C2556 1.325 . S
O2613 Li2552 1.970 . S
O2613 Li2553 1.956 . S
O2613 Li2555 1.961 . S
O2613 C2562 1.325 . S
O2614 Li2552 1.961 . S
O2614 Li2554 1.956 . S
O2614 Li2555 1.970 . S
O2614 C2584 1.325 . S
O2615 Li2553 1.961 . S
O2615 Li2554 1.970 . S
O2615 Li2555 1.956 . S
O2615 C2590 1.325 . S
H2616 C2558 0.929 . S
H2617 C2559 0.930 . S
H2618 C2560 0.930 . S
H2619 C2561 0.930 . S
H2620 C2563 0.930 . S
H2621 C2565 0.929 . S
H2622 C2566 0.930 . S
H2623 C2567 0.930 . S
H2624 C2570 0.930 . S
H2625 C2573 0.929 . S
H2626 C2578 0.929 . S
H2627 C2579 0.930 . S
H2628 C2586 0.929 . S
H2629 C2587 0.930 . S
H2630 C2588 0.930 . S
H2631 C2589 0.930 . S
H2632 C2591 0.929 . S
H2633 C2592 0.930 . S
H2634 C2593 0.930 . S
H2635 C2594 0.930 . S
H2636 C2598 0.929 . S
H2637 C2600 0.930 . S
H2638 C2606 0.929 . S
H2639 C2607 0.930 . S
Li2640 N2657 1.990 . S
Li2640 O2700 1.956 . S
Li2640 O2701 1.970 . S
Li2640 O2702 1.961 . S
Li2641 N2665 1.990 . S
Li2641 O2700 1.970 . S
Li2641 O2701 1.956 . S
Li2641 O2703 1.961 . S
Li2642 N2687 1.990 . S
Li2642 O2700 1.961 . S
Li2642 O2702 1.956 . S
Li2642 O2703 1.970 . S
Li2643 N2693 1.990 . S
Li2643 O2701 1.961 . S
Li2643 O2702 1.970 . S
Li2643 O2703 1.956 . S
C2644 C2646 1.348 . S
C2644 C2647 1.356 . S
C2644 O2700 1.325 . S
N2645 C2648 1.314 . S
N2645 C2649 1.279 . S
C2646 C2644 1.348 . S
C2646 C2648 1.353 . S
C2646 H2704 0.929 . S
C2647 C2644 1.356 . S
C2647 C2649 1.358 . S
C2647 H2705 0.930 . S
C2648 N2645 1.314 . S
C2648 C2646 1.353 . S
C2648 H2706 0.930 . S
C2649 N2645 1.279 . S
C2649 C2647 1.358 . S
C2649 H2707 0.930 . S
C2650 C2653 1.348 . S
C2650 C2654 1.356 . S
C2650 O2701 1.325 . S
C2651 N2652 1.279 . S
C2651 C2654 1.358 . S
C2651 H2708 0.930 . S
N2652 C2651 1.279 . S
N2652 C2655 1.314 . S
C2653 C2650 1.348 . S
C2653 C2655 1.353 . S
C2653 H2709 0.929 . S
C2654 C2650 1.356 . S
C2654 C2651 1.358 . S
C2654 H2710 0.930 . S
C2655 N2652 1.314 . S
C2655 C2653 1.353 . S
C2655 H2711 0.930 . S
C2656 N2657 1.314 . S
C2656 C2661 1.353 . S
C2656 H2662 0.930 . S
N2657 Li2640 1.990 . S
N2657 C2656 1.314 . S
N2657 C2659 1.279 . S
C2658 C2659 1.358 . S
C2658 C2660 1.356 . S
C2658 H2712 0.930 . S
C2659 N2657 1.279 . S
C2659 C2658 1.358 . S
C2659 H2663 0.930 . S
C2660 C2658 1.356 . S
C2660 C2661 1.348 . S
C2661 C2656 1.353 . S
C2661 C2660 1.348 . S
C2661 H2713 0.929 . S
H2662 C2656 0.930 . S
H2663 C2659 0.930 . S
C2664 N2665 1.314 . S
C2664 C2666 1.353 . S
C2664 H2670 0.930 . S
N2665 Li2641 1.990 . S
N2665 C2664 1.314 . S
N2665 C2668 1.279 . S
C2666 C2664 1.353 . S
C2666 C2669 1.348 . S
C2666 H2714 0.929 . S
C2667 C2668 1.358 . S
C2667 C2669 1.356 . S
C2667 H2715 0.930 . S
C2668 N2665 1.279 . S
C2668 C2667 1.358 . S
C2668 H2671 0.930 . S
C2669 C2666 1.348 . S
C2669 C2667 1.356 . S
H2670 C2664 0.930 . S
H2671 C2668 0.930 . S
C2672 C2674 1.348 . S
C2672 C2675 1.356 . S
C2672 O2702 1.325 . S
N2673 C2676 1.314 . S
N2673 C2677 1.279 . S
C2674 C2672 1.348 . S
C2674 C2676 1.353 . S
C2674 H2716 0.929 . S
C2675 C2672 1.356 . S
C2675 C2677 1.358 . S
C2675 H2717 0.930 . S
C2676 N2673 1.314 . S
C2676 C2674 1.353 . S
C2676 H2718 0.930 . S
C2677 N2673 1.279 . S
C2677 C2675 1.358 . S
C2677 H2719 0.930 . S
C2678 C2679 1.348 . S
C2678 C2680 1.356 . S
C2678 O2703 1.325 . S
C2679 C2678 1.348 . S
C2679 C2681 1.353 . S
C2679 H2720 0.929 . S
C2680 C2678 1.356 . S
C2680 C2682 1.358 . S
C2680 H2721 0.930 . S
C2681 C2679 1.353 . S
C2681 N2683 1.314 . S
C2681 H2722 0.930 . S
C2682 C2680 1.358 . S
C2682 N2683 1.279 . S
C2682 H2723 0.930 . S
N2683 C2681 1.314 . S
N2683 C2682 1.279 . S
C2684 C2686 1.353 1_554 S
C2684 N2687 1.314 . S
C2684 H2690 0.930 . S
C2685 N2687 1.279 . S
C2685 C2688 1.358 . S
C2685 H2691 0.930 . S
C2686 C2684 1.353 1_556 S
C2686 C2689 1.348 . S
C2686 H2724 0.929 . S
N2687 Li2642 1.990 . S
N2687 C2684 1.314 . S
N2687 C2685 1.279 . S
C2688 C2685 1.358 . S
C2688 C2689 1.356 1_554 S
C2688 H2725 0.930 . S
C2689 C2686 1.348 . S
C2689 C2688 1.356 1_556 S
H2690 C2684 0.930 . S
H2691 C2685 0.930 . S
C2692 N2693 1.314 . S
C2692 C2694 1.353 . S
C2692 H2698 0.930 . S
N2693 Li2643 1.990 . S
N2693 C2692 1.314 . S
N2693 C2696 1.279 . S
C2694 C2692 1.353 . S
C2694 C2697 1.348 . S
C2694 H2726 0.929 . S
C2695 C2696 1.358 . S
C2695 C2697 1.356 . S
C2695 H2727 0.930 . S
C2696 N2693 1.279 . S
C2696 C2695 1.358 . S
C2696 H2699 0.930 . S
C2697 C2694 1.348 . S
C2697 C2695 1.356 . S
H2698 C2692 0.930 . S
H2699 C2696 0.930 . S
O2700 Li2640 1.956 . S
O2700 Li2641 1.970 . S
O2700 Li2642 1.961 . S
O2700 C2644 1.325 . S
O2701 Li2640 1.970 . S
O2701 Li2641 1.956 . S
O2701 Li2643 1.961 . S
O2701 C2650 1.325 . S
O2702 Li2640 1.961 . S
O2702 Li2642 1.956 . S
O2702 Li2643 1.970 . S
O2702 C2672 1.325 . S
O2703 Li2641 1.961 . S
O2703 Li2642 1.970 . S
O2703 Li2643 1.956 . S
O2703 C2678 1.325 . S
H2704 C2646 0.929 . S
H2705 C2647 0.930 . S
H2706 C2648 0.930 . S
H2707 C2649 0.930 . S
H2708 C2651 0.930 . S
H2709 C2653 0.929 . S
H2710 C2654 0.930 . S
H2711 C2655 0.930 . S
H2712 C2658 0.930 . S
H2713 C2661 0.929 . S
H2714 C2666 0.929 . S
H2715 C2667 0.930 . S
H2716 C2674 0.929 . S
H2717 C2675 0.930 . S
H2718 C2676 0.930 . S
H2719 C2677 0.930 . S
H2720 C2679 0.929 . S
H2721 C2680 0.930 . S
H2722 C2681 0.930 . S
H2723 C2682 0.930 . S
H2724 C2686 0.929 . S
H2725 C2688 0.930 . S
H2726 C2694 0.929 . S
H2727 C2695 0.930 . S
Li2728 N2745 1.990 . S
Li2728 O2788 1.956 . S
Li2728 O2789 1.970 . S
Li2728 O2790 1.961 . S
Li2729 N2753 1.990 . S
Li2729 O2788 1.970 . S
Li2729 O2789 1.956 . S
Li2729 O2791 1.961 . S
Li2730 N2775 1.990 . S
Li2730 O2788 1.961 . S
Li2730 O2790 1.956 . S
Li2730 O2791 1.970 . S
Li2731 N2781 1.990 . S
Li2731 O2789 1.961 . S
Li2731 O2790 1.970 . S
Li2731 O2791 1.956 . S
C2732 C2734 1.348 . S
C2732 C2735 1.356 . S
C2732 O2788 1.325 . S
N2733 C2736 1.314 . S
N2733 C2737 1.279 . S
C2734 C2732 1.348 . S
C2734 C2736 1.353 . S
C2734 H2792 0.929 . S
C2735 C2732 1.356 . S
C2735 C2737 1.358 . S
C2735 H2793 0.930 . S
C2736 N2733 1.314 . S
C2736 C2734 1.353 . S
C2736 H2794 0.930 . S
C2737 N2733 1.279 . S
C2737 C2735 1.358 . S
C2737 H2795 0.930 . S
C2738 C2741 1.348 . S
C2738 C2742 1.356 . S
C2738 O2789 1.325 . S
C2739 N2740 1.279 . S
C2739 C2742 1.358 1_554 S
C2739 H2796 0.930 . S
N2740 C2739 1.279 . S
N2740 C2743 1.314 . S
C2741 C2738 1.348 . S
C2741 C2743 1.353 1_556 S
C2741 H2797 0.929 . S
C2742 C2738 1.356 . S
C2742 C2739 1.358 1_556 S
C2742 H2798 0.930 . S
C2743 N2740 1.314 . S
C2743 C2741 1.353 1_554 S
C2743 H2799 0.930 . S
C2744 N2745 1.314 . S
C2744 C2749 1.353 . S
C2744 H2750 0.930 . S
N2745 Li2728 1.990 . S
N2745 C2744 1.314 . S
N2745 C2747 1.279 . S
C2746 C2747 1.358 . S
C2746 C2748 1.356 . S
C2746 H2800 0.930 . S
C2747 N2745 1.279 . S
C2747 C2746 1.358 . S
C2747 H2751 0.930 . S
C2748 C2746 1.356 . S
C2748 C2749 1.348 . S
C2749 C2744 1.353 . S
C2749 C2748 1.348 . S
C2749 H2801 0.929 . S
H2750 C2744 0.930 . S
H2751 C2747 0.930 . S
C2752 N2753 1.314 . S
C2752 C2754 1.353 . S
C2752 H2758 0.930 . S
N2753 Li2729 1.990 . S
N2753 C2752 1.314 . S
N2753 C2756 1.279 . S
C2754 C2752 1.353 . S
C2754 C2757 1.348 . S
C2754 H2802 0.929 . S
C2755 C2756 1.358 . S
C2755 C2757 1.356 . S
C2755 H2803 0.930 . S
C2756 N2753 1.279 . S
C2756 C2755 1.358 . S
C2756 H2759 0.930 . S
C2757 C2754 1.348 . S
C2757 C2755 1.356 . S
H2758 C2752 0.930 . S
H2759 C2756 0.930 . S
C2760 C2762 1.348 . S
C2760 C2763 1.356 . S
C2760 O2790 1.325 . S
N2761 C2764 1.314 . S
N2761 C2765 1.279 . S
C2762 C2760 1.348 . S
C2762 C2764 1.353 . S
C2762 H2804 0.929 . S
C2763 C2760 1.356 . S
C2763 C2765 1.358 . S
C2763 H2805 0.930 . S
C2764 N2761 1.314 . S
C2764 C2762 1.353 . S
C2764 H2806 0.930 . S
C2765 N2761 1.279 . S
C2765 C2763 1.358 . S
C2765 H2807 0.930 . S
C2766 C2767 1.348 . S
C2766 C2768 1.356 . S
C2766 O2791 1.325 . S
C2767 C2766 1.348 . S
C2767 C2769 1.353 . S
C2767 H2808 0.929 . S
C2768 C2766 1.356 . S
C2768 C2770 1.358 . S
C2768 H2809 0.930 . S
C2769 C2767 1.353 . S
C2769 N2771 1.314 . S
C2769 H2810 0.930 . S
C2770 C2768 1.358 . S
C2770 N2771 1.279 . S
C2770 H2811 0.930 . S
N2771 C2769 1.314 . S
N2771 C2770 1.279 . S
C2772 C2774 1.353 . S
C2772 N2775 1.314 . S
C2772 H2778 0.930 . S
C2773 N2775 1.279 . S
C2773 C2776 1.358 . S
C2773 H2779 0.930 . S
C2774 C2772 1.353 . S
C2774 C2777 1.348 . S
C2774 H2812 0.929 . S
N2775 Li2730 1.990 . S
N2775 C2772 1.314 . S
N2775 C2773 1.279 . S
C2776 C2773 1.358 . S
C2776 C2777 1.356 . S
C2776 H2813 0.930 . S
C2777 C2774 1.348 . S
C2777 C2776 1.356 . S
H2778 C2772 0.930 . S
H2779 C2773 0.930 . S
C2780 N2781 1.314 1_554 S
C2780 C2782 1.353 . S
C2780 H2786 0.930 . S
N2781 Li2731 1.990 . S
N2781 C2780 1.314 1_556 S
N2781 C2784 1.279 . S
C2782 C2780 1.353 . S
C2782 C2785 1.348 . S
C2782 H2814 0.929 . S
C2783 C2784 1.358 1_554 S
C2783 C2785 1.356 . S
C2783 H2815 0.927 1_554 S
C2784 N2781 1.279 . S
C2784 C2783 1.358 1_556 S
C2784 H2787 0.930 . S
C2785 C2782 1.348 . S
C2785 C2783 1.356 . S
H2786 C2780 0.930 . S
H2787 C2784 0.930 . S
O2788 Li2728 1.956 . S
O2788 Li2729 1.970 . S
O2788 Li2730 1.961 . S
O2788 C2732 1.325 . S
O2789 Li2728 1.970 . S
O2789 Li2729 1.956 . S
O2789 Li2731 1.961 . S
O2789 C2738 1.325 . S
O2790 Li2728 1.961 . S
O2790 Li2730 1.956 . S
O2790 Li2731 1.970 . S
O2790 C2760 1.325 . S
O2791 Li2729 1.961 . S
O2791 Li2730 1.970 . S
O2791 Li2731 1.956 . S
O2791 C2766 1.325 . S
H2792 C2734 0.929 . S
H2793 C2735 0.930 . S
H2794 C2736 0.930 . S
H2795 C2737 0.930 . S
H2796 C2739 0.930 . S
H2797 C2741 0.929 . S
H2798 C2742 0.930 . S
H2799 C2743 0.930 . S
H2800 C2746 0.930 . S
H2801 C2749 0.929 . S
H2802 C2754 0.929 . S
H2803 C2755 0.930 . S
H2804 C2762 0.929 . S
H2805 C2763 0.930 . S
H2806 C2764 0.930 . S
H2807 C2765 0.930 . S
H2808 C2767 0.929 . S
H2809 C2768 0.930 . S
H2810 C2769 0.930 . S
H2811 C2770 0.930 . S
H2812 C2774 0.929 . S
H2813 C2776 0.930 . S
H2814 C2782 0.929 . S
H2815 C2783 0.927 1_556 S
H2816 C2824 0.950 . S
H2817 C2829 0.950 . S
H2818 C2826 0.950 . S
H2819 C2828 0.950 . S
H2820 C2830 0.950 . S
H2821 C2832 0.950 . S
H2822 C2834 0.950 . S
H2823 C2835 0.950 . S
C2824 H2816 0.950 . S
C2824 C2825 1.386 . S
C2824 C2826 1.391 . S
C2825 C2824 1.386 . S
C2825 C2829 1.393 . S
C2826 H2818 0.950 . S
C2826 C2824 1.391 . S
C2826 C2827 1.400 . S
C2827 C2826 1.400 . S
C2827 C2828 1.398 . S
C2827 C2833 1.491 . S
C2828 H2819 0.950 . S
C2828 C2827 1.398 . S
C2828 C2829 1.391 . S
C2829 H2817 0.950 . S
C2829 C2825 1.393 . S
C2829 C2828 1.391 . S
C2830 H2820 0.950 . S
C2830 C2831 1.386 . S
C2830 C2832 1.391 . S
C2831 C2830 1.386 . S
C2831 C2835 1.393 . S
C2832 H2821 0.950 . S
C2832 C2830 1.391 . S
C2832 C2833 1.400 . S
C2833 C2827 1.491 . S
C2833 C2832 1.400 . S
C2833 C2834 1.398 . S
C2834 H2822 0.950 . S
C2834 C2833 1.398 . S
C2834 C2835 1.391 . S
C2835 H2823 0.950 . S
C2835 C2831 1.393 . S
C2835 C2834 1.391 . S
H2836 C2844 0.950 . S
H2837 C2849 0.950 . S
H2838 C2846 0.950 . S
H2839 C2848 0.921 1_545 S
H2840 C2850 0.950 . S
H2841 C2852 0.950 . S
H2842 C2854 0.921 1_565 S
H2843 C2855 0.950 . S
C2844 H2836 0.950 . S
C2844 C2845 1.386 . S
C2844 C2846 1.391 . S
C2845 C2844 1.386 . S
C2845 C2849 1.393 . S
C2846 H2838 0.950 . S
C2846 C2844 1.391 . S
C2846 C2847 1.400 . S
C2847 C2846 1.400 . S
C2847 C2848 1.398 . S
C2847 C2853 1.491 1_565 S
C2848 H2839 0.921 1_565 S
C2848 C2847 1.398 . S
C2848 C2849 1.391 . S
C2849 H2837 0.950 . S
C2849 C2845 1.393 . S
C2849 C2848 1.391 . S
C2850 H2840 0.950 . S
C2850 C2851 1.386 . S
C2850 C2852 1.391 . S
C2851 C2850 1.386 . S
C2851 C2855 1.393 . S
C2852 H2841 0.950 . S
C2852 C2850 1.391 . S
C2852 C2853 1.400 . S
C2853 C2847 1.491 1_545 S
C2853 C2852 1.400 . S
C2853 C2854 1.398 . S
C2854 H2842 0.921 1_545 S
C2854 C2853 1.398 . S
C2854 C2855 1.391 . S
C2855 H2843 0.950 . S
C2855 C2851 1.393 . S
C2855 C2854 1.391 . S
H2856 C2864 0.950 . S
H2857 C2869 0.950 . S
H2858 C2866 0.950 . S
H2859 C2868 0.950 . S
H2860 C2870 0.950 . S
H2861 C2872 0.950 . S
H2862 C2874 0.950 . S
H2863 C2875 0.950 . S
C2864 H2856 0.950 . S
C2864 C2865 1.386 . S
C2864 C2866 1.391 . S
C2865 C2864 1.386 . S
C2865 C2869 1.393 . S
C2866 H2858 0.950 . S
C2866 C2864 1.391 . S
C2866 C2867 1.400 . S
C2867 C2866 1.400 . S
C2867 C2868 1.398 . S
C2867 C2873 1.491 . S
C2868 H2859 0.950 . S
C2868 C2867 1.398 . S
C2868 C2869 1.391 . S
C2869 H2857 0.950 . S
C2869 C2865 1.393 . S
C2869 C2868 1.391 . S
C2870 H2860 0.950 . S
C2870 C2871 1.386 . S
C2870 C2872 1.391 . S
C2871 C2870 1.386 . S
C2871 C2875 1.393 . S
C2872 H2861 0.950 . S
C2872 C2870 1.391 . S
C2872 C2873 1.400 . S
C2873 C2867 1.491 . S
C2873 C2872 1.400 . S
C2873 C2874 1.398 . S
C2874 H2862 0.950 . S
C2874 C2873 1.398 . S
C2874 C2875 1.391 . S
C2875 H2863 0.950 . S
C2875 C2871 1.393 . S
C2875 C2874 1.391 . S
H2876 C2884 0.950 . S
H2877 C2889 0.950 . S
H2878 C2886 0.950 1_565 S
H2879 C2888 0.950 . S
H2880 C2890 0.950 . S
H2881 C2892 0.950 1_545 S
H2882 C2894 0.950 . S
H2883 C2895 0.950 . S
C2884 H2876 0.950 . S
C2884 C2885 1.386 . S
C2884 C2886 1.391 . S
C2885 C2884 1.386 . S
C2885 C2889 1.393 . S
C2886 H2878 0.950 1_545 S
C2886 C2884 1.391 . S
C2886 C2887 1.400 . S
C2887 C2886 1.400 . S
C2887 C2888 1.398 1_556 S
C2887 C2893 1.491 1_546 S
C2888 H2879 0.950 . S
C2888 C2887 1.398 1_554 S
C2888 C2889 1.391 1_554 S
C2889 H2877 0.950 . S
C2889 C2885 1.393 . S
C2889 C2888 1.391 1_556 S
C2890 H2880 0.950 . S
C2890 C2891 1.386 . S
C2890 C2892 1.391 . S
C2891 C2890 1.386 . S
C2891 C2895 1.393 . S
C2892 H2881 0.950 1_565 S
C2892 C2890 1.391 . S
C2892 C2893 1.400 . S
C2893 C2887 1.491 1_564 S
C2893 C2892 1.400 . S
C2893 C2894 1.398 1_554 S
C2894 H2882 0.950 . S
C2894 C2893 1.398 1_556 S
C2894 C2895 1.391 1_556 S
C2895 H2883 0.950 . S
C2895 C2891 1.393 . S
C2895 C2894 1.391 1_554 S
H2896 C2904 0.950 . S
H2897 C2909 0.950 . S
H2898 C2906 0.950 . S
H2899 C2908 0.950 . S
H2900 C2910 0.950 . S
H2901 C2912 0.950 . S
H2902 C2914 0.950 . S
H2903 C2915 0.950 . S
C2904 H2896 0.950 . S
C2904 C2905 1.386 . S
C2904 C2906 1.391 . S
C2905 C2904 1.386 . S
C2905 C2909 1.393 . S
C2906 H2898 0.950 . S
C2906 C2904 1.391 . S
C2906 C2907 1.400 . S
C2907 C2906 1.400 . S
C2907 C2908 1.398 . S
C2907 C2913 1.491 . S
C2908 H2899 0.950 . S
C2908 C2907 1.398 . S
C2908 C2909 1.391 . S
C2909 H2897 0.950 . S
C2909 C2905 1.393 . S
C2909 C2908 1.391 . S
C2910 H2900 0.950 . S
C2910 C2911 1.386 . S
C2910 C2912 1.391 . S
C2911 C2910 1.386 . S
C2911 C2915 1.393 . S
C2912 H2901 0.950 . S
C2912 C2910 1.391 . S
C2912 C2913 1.400 . S
C2913 C2907 1.491 . S
C2913 C2912 1.400 . S
C2913 C2914 1.398 . S
C2914 H2902 0.950 . S
C2914 C2913 1.398 . S
C2914 C2915 1.391 . S
C2915 H2903 0.950 . S
C2915 C2911 1.393 . S
C2915 C2914 1.391 . S
H2916 C2924 0.950 . S
H2917 C2929 0.950 . S
H2918 C2926 0.950 1_545 S
H2919 C2928 0.950 . S
H2920 C2930 0.950 . S
H2921 C2932 0.950 1_565 S
H2922 C2934 0.950 . S
H2923 C2935 0.950 . S
C2924 H2916 0.950 . S
C2924 C2925 1.386 . S
C2924 C2926 1.391 . S
C2925 C2924 1.386 . S
C2925 C2929 1.393 . S
C2926 H2918 0.950 1_565 S
C2926 C2924 1.391 . S
C2926 C2927 1.400 . S
C2927 C2926 1.400 . S
C2927 C2928 1.398 . S
C2927 C2933 1.491 1_565 S
C2928 H2919 0.950 . S
C2928 C2927 1.398 . S
C2928 C2929 1.391 . S
C2929 H2917 0.950 . S
C2929 C2925 1.393 . S
C2929 C2928 1.391 . S
C2930 H2920 0.950 . S
C2930 C2931 1.386 . S
C2930 C2932 1.391 . S
C2931 C2930 1.386 . S
C2931 C2935 1.393 . S
C2932 H2921 0.950 1_545 S
C2932 C2930 1.391 . S
C2932 C2933 1.400 . S
C2933 C2927 1.491 1_545 S
C2933 C2932 1.400 . S
C2933 C2934 1.398 . S
C2934 H2922 0.950 . S
C2934 C2933 1.398 . S
C2934 C2935 1.391 . S
C2935 H2923 0.950 . S
C2935 C2931 1.393 . S
C2935 C2934 1.391 . S
H2936 C2944 0.950 . S
H2937 C2949 0.950 . S
H2938 C2946 0.950 . S
H2939 C2948 0.950 . S
H2940 C2950 0.950 . S
H2941 C2952 0.950 . S
H2942 C2954 0.950 . S
H2943 C2955 0.950 . S
C2944 H2936 0.950 . S
C2944 C2945 1.386 . S
C2944 C2946 1.391 . S
C2945 C2944 1.386 . S
C2945 C2949 1.393 . S
C2946 H2938 0.950 . S
C2946 C2944 1.391 . S
C2946 C2947 1.400 . S
C2947 C2946 1.400 . S
C2947 C2948 1.398 . S
C2947 C2953 1.491 . S
C2948 H2939 0.950 . S
C2948 C2947 1.398 . S
C2948 C2949 1.391 . S
C2949 H2937 0.950 . S
C2949 C2945 1.393 . S
C2949 C2948 1.391 . S
C2950 H2940 0.950 . S
C2950 C2951 1.386 . S
C2950 C2952 1.391 . S
C2951 C2950 1.386 . S
C2951 C2955 1.393 . S
C2952 H2941 0.950 . S
C2952 C2950 1.391 . S
C2952 C2953 1.400 . S
C2953 C2947 1.491 . S
C2953 C2952 1.400 . S
C2953 C2954 1.398 . S
C2954 H2942 0.950 . S
C2954 C2953 1.398 . S
C2954 C2955 1.391 . S
C2955 H2943 0.950 . S
C2955 C2951 1.393 . S
C2955 C2954 1.391 . S
H2956 C2964 0.950 . S
H2957 C2969 0.950 . S
H2958 C2966 1.014 . S
H2959 C2968 0.950 1_554 S
H2960 C2970 0.950 . S
H2961 C2972 1.014 . S
H2962 C2974 0.950 1_556 S
H2963 C2975 0.950 . S
C2964 H2956 0.950 . S
C2964 C2965 1.386 . S
C2964 C2966 1.391 . S
C2965 C2964 1.386 . S
C2965 C2969 1.393 . S
C2966 H2958 1.014 . S
C2966 C2964 1.391 . S
C2966 C2967 1.400 . S
C2967 C2966 1.400 . S
C2967 C2968 1.398 . S
C2967 C2973 1.491 1_546 S
C2968 H2959 0.950 1_556 S
C2968 C2967 1.398 . S
C2968 C2969 1.391 . S
C2969 H2957 0.950 . S
C2969 C2965 1.393 . S
C2969 C2968 1.391 . S
C2970 H2960 0.950 . S
C2970 C2971 1.386 . S
C2970 C2972 1.391 . S
C2971 C2970 1.386 . S
C2971 C2975 1.393 . S
C2972 H2961 1.014 . S
C2972 C2970 1.391 . S
C2972 C2973 1.400 . S
C2973 C2967 1.491 1_564 S
C2973 C2972 1.400 . S
C2973 C2974 1.398 . S
C2974 H2962 0.950 1_554 S
C2974 C2973 1.398 . S
C2974 C2975 1.391 . S
C2975 H2963 0.950 . S
C2975 C2971 1.393 . S
C2975 C2974 1.391 . S
H2976 C2984 0.950 . S
H2977 C2989 0.950 . S
H2978 C2986 0.950 . S
H2979 C2988 0.950 . S
H2980 C2990 0.950 . S
H2981 C2992 0.950 . S
H2982 C2994 0.950 . S
H2983 C2995 0.950 . S
C2984 H2976 0.950 . S
C2984 C2985 1.386 . S
C2984 C2986 1.391 . S
C2985 C2984 1.386 . S
C2985 C2989 1.393 . S
C2986 H2978 0.950 . S
C2986 C2984 1.391 . S
C2986 C2987 1.400 . S
C2987 C2986 1.400 . S
C2987 C2988 1.398 . S
C2987 C2993 1.491 . S
C2988 H2979 0.950 . S
C2988 C2987 1.398 . S
C2988 C2989 1.391 . S
C2989 H2977 0.950 . S
C2989 C2985 1.393 . S
C2989 C2988 1.391 . S
C2990 H2980 0.950 . S
C2990 C2991 1.386 . S
C2990 C2992 1.391 . S
C2991 C2990 1.386 . S
C2991 C2995 1.393 . S
C2992 H2981 0.950 . S
C2992 C2990 1.391 . S
C2992 C2993 1.400 . S
C2993 C2987 1.491 . S
C2993 C2992 1.400 . S
C2993 C2994 1.398 . S
C2994 H2982 0.950 . S
C2994 C2993 1.398 . S
C2994 C2995 1.391 . S
C2995 H2983 0.950 . S
C2995 C2991 1.393 . S
C2995 C2994 1.391 . S
H2996 C3004 0.950 . S
H2997 C3009 0.950 . S
H2998 C3006 0.950 . S
H2999 C3008 0.950 . S
H3000 C3010 0.950 . S
H3001 C3012 0.950 . S
H3002 C3014 0.950 . S
H3003 C3015 0.950 . S
C3004 H2996 0.950 . S
C3004 C3005 1.386 . S
C3004 C3006 1.391 1_556 S
C3005 C3004 1.386 . S
C3005 C3009 1.393 . S
C3006 H2998 0.950 . S
C3006 C3004 1.391 1_554 S
C3006 C3007 1.400 1_554 S
C3007 C3006 1.400 1_556 S
C3007 C3008 1.398 . S
C3007 C3013 1.491 1_556 S
C3008 H2999 0.950 . S
C3008 C3007 1.398 . S
C3008 C3009 1.391 . S
C3009 H2997 0.950 . S
C3009 C3005 1.393 . S
C3009 C3008 1.391 . S
C3010 H3000 0.950 . S
C3010 C3011 1.386 . S
C3010 C3012 1.391 1_554 S
C3011 C3010 1.386 . S
C3011 C3015 1.393 . S
C3012 H3001 0.950 . S
C3012 C3010 1.391 1_556 S
C3012 C3013 1.400 1_556 S
C3013 C3007 1.491 1_554 S
C3013 C3012 1.400 1_554 S
C3013 C3014 1.398 . S
C3014 H3002 0.950 . S
C3014 C3013 1.398 . S
C3014 C3015 1.391 . S
C3015 H3003 0.950 . S
C3015 C3011 1.393 . S
C3015 C3014 1.391 . S
H3016 C3024 0.950 . S
H3017 C3029 0.950 . S
H3018 C3026 0.950 . S
H3019 C3028 0.950 . S
H3020 C3030 0.950 . S
H3021 C3032 0.950 . S
H3022 C3034 0.950 . S
H3023 C3035 0.950 . S
C3024 H3016 0.950 . S
C3024 C3025 1.386 . S
C3024 C3026 1.391 . S
C3025 C3024 1.386 . S
C3025 C3029 1.393 . S
C3026 H3018 0.950 . S
C3026 C3024 1.391 . S
C3026 C3027 1.400 . S
C3027 C3026 1.400 . S
C3027 C3028 1.398 . S
C3027 C3033 1.491 . S
C3028 H3019 0.950 . S
C3028 C3027 1.398 . S
C3028 C3029 1.391 . S
C3029 H3017 0.950 . S
C3029 C3025 1.393 . S
C3029 C3028 1.391 . S
C3030 H3020 0.950 . S
C3030 C3031 1.386 . S
C3030 C3032 1.391 . S
C3031 C3030 1.386 . S
C3031 C3035 1.393 . S
C3032 H3021 0.950 . S
C3032 C3030 1.391 . S
C3032 C3033 1.400 . S
C3033 C3027 1.491 . S
C3033 C3032 1.400 . S
C3033 C3034 1.398 . S
C3034 H3022 0.950 . S
C3034 C3033 1.398 . S
C3034 C3035 1.391 . S
C3035 H3023 0.950 . S
C3035 C3031 1.393 . S
C3035 C3034 1.391 . S
H3036 C3044 0.950 . S
H3037 C3049 0.950 . S
H3038 C3046 0.950 . S
H3039 C3048 0.950 . S
H3040 C3050 0.950 . S
H3041 C3052 0.950 . S
H3042 C3054 0.950 . S
H3043 C3055 0.950 . S
C3044 H3036 0.950 . S
C3044 C3045 1.386 . S
C3044 C3046 1.391 . S
C3045 C3044 1.386 . S
C3045 C3049 1.393 . S
C3046 H3038 0.950 . S
C3046 C3044 1.391 . S
C3046 C3047 1.400 . S
C3047 C3046 1.400 . S
C3047 C3048 1.398 . S
C3047 C3053 1.491 . S
C3048 H3039 0.950 . S
C3048 C3047 1.398 . S
C3048 C3049 1.391 . S
C3049 H3037 0.950 . S
C3049 C3045 1.393 . S
C3049 C3048 1.391 . S
C3050 H3040 0.950 . S
C3050 C3051 1.386 . S
C3050 C3052 1.391 . S
C3051 C3050 1.386 . S
C3051 C3055 1.393 . S
C3052 H3041 0.950 . S
C3052 C3050 1.391 . S
C3052 C3053 1.400 . S
C3053 C3047 1.491 . S
C3053 C3052 1.400 . S
C3053 C3054 1.398 . S
C3054 H3042 0.950 . S
C3054 C3053 1.398 . S
C3054 C3055 1.391 . S
C3055 H3043 0.950 . S
C3055 C3051 1.393 . S
C3055 C3054 1.391 . S
H3056 C3064 0.950 . S
H3057 C3069 0.950 . S
H3058 C3066 0.950 . S
H3059 C3068 0.950 . S
H3060 C3070 0.950 . S
H3061 C3072 0.950 . S
H3062 C3074 0.950 . S
H3063 C3075 0.950 . S
C3064 H3056 0.950 . S
C3064 C3065 1.386 . S
C3064 C3066 1.391 . S
C3065 C3064 1.386 . S
C3065 C3069 1.393 . S
C3066 H3058 0.950 . S
C3066 C3064 1.391 . S
C3066 C3067 1.400 . S
C3067 C3066 1.400 . S
C3067 C3068 1.398 . S
C3067 C3073 1.491 . S
C3068 H3059 0.950 . S
C3068 C3067 1.398 . S
C3068 C3069 1.391 . S
C3069 H3057 0.950 . S
C3069 C3065 1.393 . S
C3069 C3068 1.391 . S
C3070 H3060 0.950 . S
C3070 C3071 1.386 . S
C3070 C3072 1.391 . S
C3071 C3070 1.386 . S
C3071 C3075 1.393 . S
C3072 H3061 0.950 . S
C3072 C3070 1.391 . S
C3072 C3073 1.400 . S
C3073 C3067 1.491 . S
C3073 C3072 1.400 . S
C3073 C3074 1.398 . S
C3074 H3062 0.950 . S
C3074 C3073 1.398 . S
C3074 C3075 1.391 . S
C3075 H3063 0.950 . S
C3075 C3071 1.393 . S
C3075 C3074 1.391 . S
H3076 C3084 0.950 . S
H3077 C3089 0.950 . S
H3078 C3086 0.950 1_556 S
H3079 C3088 0.950 . S
H3080 C3090 0.950 . S
H3081 C3092 0.950 1_554 S
H3082 C3094 0.950 . S
H3083 C3095 0.950 . S
C3084 H3076 0.950 . S
C3084 C3085 1.386 . S
C3084 C3086 1.391 . S
C3085 C3084 1.386 . S
C3085 C3089 1.393 . S
C3086 H3078 0.950 1_554 S
C3086 C3084 1.391 . S
C3086 C3087 1.400 . S
C3087 C3086 1.400 . S
C3087 C3088 1.398 . S
C3087 C3093 1.491 1_554 S
C3088 H3079 0.950 . S
C3088 C3087 1.398 . S
C3088 C3089 1.391 . S
C3089 H3077 0.950 . S
C3089 C3085 1.393 . S
C3089 C3088 1.391 . S
C3090 H3080 0.950 . S
C3090 C3091 1.386 . S
C3090 C3092 1.391 . S
C3091 C3090 1.386 . S
C3091 C3095 1.393 . S
C3092 H3081 0.950 1_556 S
C3092 C3090 1.391 . S
C3092 C3093 1.400 . S
C3093 C3087 1.491 1_556 S
C3093 C3092 1.400 . S
C3093 C3094 1.398 . S
C3094 H3082 0.950 . S
C3094 C3093 1.398 . S
C3094 C3095 1.391 . S
C3095 H3083 0.950 . S
C3095 C3091 1.393 . S
C3095 C3094 1.391 . S
H3096 C3104 0.950 . S
H3097 C3109 0.950 . S
H3098 C3106 0.950 . S
H3099 C3108 0.950 . S
H3100 C3110 0.950 . S
H3101 C3112 0.950 . S
H3102 C3114 0.950 . S
H3103 C3115 0.950 . S
C3104 H3096 0.950 . S
C3104 C3105 1.386 . S
C3104 C3106 1.391 . S
C3105 C3104 1.386 . S
C3105 C3109 1.393 . S
C3106 H3098 0.950 . S
C3106 C3104 1.391 . S
C3106 C3107 1.400 . S
C3107 C3106 1.400 . S
C3107 C3108 1.398 . S
C3107 C3113 1.491 . S
C3108 H3099 0.950 . S
C3108 C3107 1.398 . S
C3108 C3109 1.391 . S
C3109 H3097 0.950 . S
C3109 C3105 1.393 . S
C3109 C3108 1.391 . S
C3110 H3100 0.950 . S
C3110 C3111 1.386 . S
C3110 C3112 1.391 . S
C3111 C3110 1.386 . S
C3111 C3115 1.393 . S
C3112 H3101 0.950 . S
C3112 C3110 1.391 . S
C3112 C3113 1.400 . S
C3113 C3107 1.491 . S
C3113 C3112 1.400 . S
C3113 C3114 1.398 . S
C3114 H3102 0.950 . S
C3114 C3113 1.398 . S
C3114 C3115 1.391 . S
C3115 H3103 0.950 . S
C3115 C3111 1.393 . S
C3115 C3114 1.391 . S
H3116 C3124 0.950 . S
H3117 C3129 0.950 . S
H3118 C3126 0.950 . S
H3119 C3128 0.950 . S
H3120 C3130 0.950 . S
H3121 C3132 0.950 . S
H3122 C3134 0.950 . S
H3123 C3135 0.950 . S
C3124 H3116 0.950 . S
C3124 C3125 1.386 . S
C3124 C3126 1.391 . S
C3125 C3124 1.386 . S
C3125 C3129 1.393 . S
C3126 H3118 0.950 . S
C3126 C3124 1.391 . S
C3126 C3127 1.400 . S
C3127 C3126 1.400 . S
C3127 C3128 1.398 . S
C3127 C3133 1.491 . S
C3128 H3119 0.950 . S
C3128 C3127 1.398 . S
C3128 C3129 1.391 . S
C3129 H3117 0.950 . S
C3129 C3125 1.393 . S
C3129 C3128 1.391 . S
C3130 H3120 0.950 . S
C3130 C3131 1.386 . S
C3130 C3132 1.391 . S
C3131 C3130 1.386 . S
C3131 C3135 1.393 . S
C3132 H3121 0.950 . S
C3132 C3130 1.391 . S
C3132 C3133 1.400 . S
C3133 C3127 1.491 . S
C3133 C3132 1.400 . S
C3133 C3134 1.398 . S
C3134 H3122 0.950 . S
C3134 C3133 1.398 . S
C3134 C3135 1.391 . S
C3135 H3123 0.950 . S
C3135 C3131 1.393 . S
C3135 C3134 1.391 . S
H3136 C3144 0.950 . S
H3137 C3149 0.950 . S
H3138 C3146 0.950 . S
H3139 C3148 0.950 . S
H3140 C3150 0.950 . S
H3141 C3152 0.950 . S
H3142 C3154 0.950 . S
H3143 C3155 0.950 . S
C3144 H3136 0.950 . S
C3144 C3145 1.386 . S
C3144 C3146 1.391 . S
C3145 C3144 1.386 . S
C3145 C3149 1.393 . S
C3146 H3138 0.950 . S
C3146 C3144 1.391 . S
C3146 C3147 1.400 . S
C3147 C3146 1.400 . S
C3147 C3148 1.398 . S
C3147 C3153 1.491 . S
C3148 H3139 0.950 . S
C3148 C3147 1.398 . S
C3148 C3149 1.391 . S
C3149 H3137 0.950 . S
C3149 C3145 1.393 . S
C3149 C3148 1.391 . S
C3150 H3140 0.950 . S
C3150 C3151 1.386 . S
C3150 C3152 1.391 . S
C3151 C3150 1.386 . S
C3151 C3155 1.393 . S
C3152 H3141 0.950 . S
C3152 C3150 1.391 . S
C3152 C3153 1.400 . S
C3153 C3147 1.491 . S
C3153 C3152 1.400 . S
C3153 C3154 1.398 . S
C3154 H3142 0.950 . S
C3154 C3153 1.398 . S
C3154 C3155 1.391 . S
C3155 H3143 0.950 . S
C3155 C3151 1.393 . S
C3155 C3154 1.391 . S
H3156 C3164 0.950 . S
H3157 C3169 0.950 . S
H3158 C3166 0.950 . S
H3159 C3168 0.950 . S
H3160 C3170 0.950 . S
H3161 C3172 0.950 . S
H3162 C3174 0.950 . S
H3163 C3175 0.950 . S
C3164 H3156 0.950 . S
C3164 C3165 1.386 . S
C3164 C3166 1.391 . S
C3165 C3164 1.386 . S
C3165 C3169 1.393 . S
C3166 H3158 0.950 . S
C3166 C3164 1.391 . S
C3166 C3167 1.400 . S
C3167 C3166 1.400 . S
C3167 C3168 1.398 . S
C3167 C3173 1.491 . S
C3168 H3159 0.950 . S
C3168 C3167 1.398 . S
C3168 C3169 1.391 . S
C3169 H3157 0.950 . S
C3169 C3165 1.393 . S
C3169 C3168 1.391 . S
C3170 H3160 0.950 . S
C3170 C3171 1.386 . S
C3170 C3172 1.391 . S
C3171 C3170 1.386 . S
C3171 C3175 1.393 . S
C3172 H3161 0.950 . S
C3172 C3170 1.391 . S
C3172 C3173 1.400 . S
C3173 C3167 1.491 . S
C3173 C3172 1.400 . S
C3173 C3174 1.398 . S
C3174 H3162 0.950 . S
C3174 C3173 1.398 . S
C3174 C3175 1.391 . S
C3175 H3163 0.950 . S
C3175 C3171 1.393 . S
C3175 C3174 1.391 . S
H3176 C3184 0.950 . S
H3177 C3189 0.950 . S
H3178 C3186 0.950 . S
H3179 C3188 0.950 . S
H3180 C3190 0.950 . S
H3181 C3192 0.950 . S
H3182 C3194 0.950 . S
H3183 C3195 0.950 . S
C3184 H3176 0.950 . S
C3184 C3185 1.386 . S
C3184 C3186 1.391 . S
C3185 C3184 1.386 . S
C3185 C3189 1.393 . S
C3186 H3178 0.950 . S
C3186 C3184 1.391 . S
C3186 C3187 1.400 . S
C3187 C3186 1.400 . S
C3187 C3188 1.398 . S
C3187 C3193 1.491 . S
C3188 H3179 0.950 . S
C3188 C3187 1.398 . S
C3188 C3189 1.391 . S
C3189 H3177 0.950 . S
C3189 C3185 1.393 . S
C3189 C3188 1.391 . S
C3190 H3180 0.950 . S
C3190 C3191 1.386 . S
C3190 C3192 1.391 . S
C3191 C3190 1.386 . S
C3191 C3195 1.393 . S
C3192 H3181 0.950 . S
C3192 C3190 1.391 . S
C3192 C3193 1.400 . S
C3193 C3187 1.491 . S
C3193 C3192 1.400 . S
C3193 C3194 1.398 . S
C3194 H3182 0.950 . S
C3194 C3193 1.398 . S
C3194 C3195 1.391 . S
C3195 H3183 0.950 . S
C3195 C3191 1.393 . S
C3195 C3194 1.391 . S
H3196 C3204 0.950 . S
H3197 C3209 0.950 . S
H3198 C3206 0.950 . S
H3199 C3208 0.950 . S
H3200 C3210 0.950 . S
H3201 C3212 0.950 . S
H3202 C3214 0.950 . S
H3203 C3215 0.950 . S
C3204 H3196 0.950 . S
C3204 C3205 1.386 . S
C3204 C3206 1.391 . S
C3205 C3204 1.386 . S
C3205 C3209 1.393 . S
C3206 H3198 0.950 . S
C3206 C3204 1.391 . S
C3206 C3207 1.400 . S
C3207 C3206 1.400 . S
C3207 C3208 1.398 . S
C3207 C3213 1.491 . S
C3208 H3199 0.950 . S
C3208 C3207 1.398 . S
C3208 C3209 1.391 . S
C3209 H3197 0.950 . S
C3209 C3205 1.393 . S
C3209 C3208 1.391 . S
C3210 H3200 0.950 . S
C3210 C3211 1.386 . S
C3210 C3212 1.391 . S
C3211 C3210 1.386 . S
C3211 C3215 1.393 . S
C3212 H3201 0.950 . S
C3212 C3210 1.391 . S
C3212 C3213 1.400 . S
C3213 C3207 1.491 . S
C3213 C3212 1.400 . S
C3213 C3214 1.398 . S
C3214 H3202 0.950 . S
C3214 C3213 1.398 . S
C3214 C3215 1.391 . S
C3215 H3203 0.950 . S
C3215 C3211 1.393 . S
C3215 C3214 1.391 . S
H3216 C3224 0.950 . S
H3217 C3229 0.950 . S
H3218 C3226 0.950 . S
H3219 C3228 0.950 . S
H3220 C3230 0.950 . S
H3221 C3232 0.950 . S
H3222 C3234 0.950 . S
H3223 C3235 0.950 . S
C3224 H3216 0.950 . S
C3224 C3225 1.386 . S
C3224 C3226 1.391 . S
C3225 C3224 1.386 . S
C3225 C3229 1.393 . S
C3226 H3218 0.950 . S
C3226 C3224 1.391 . S
C3226 C3227 1.400 . S
C3227 C3226 1.400 . S
C3227 C3228 1.398 . S
C3227 C3233 1.491 . S
C3228 H3219 0.950 . S
C3228 C3227 1.398 . S
C3228 C3229 1.391 . S
C3229 H3217 0.950 . S
C3229 C3225 1.393 . S
C3229 C3228 1.391 . S
C3230 H3220 0.950 . S
C3230 C3231 1.386 . S
C3230 C3232 1.391 . S
C3231 C3230 1.386 . S
C3231 C3235 1.393 . S
C3232 H3221 0.950 . S
C3232 C3230 1.391 . S
C3232 C3233 1.400 . S
C3233 C3227 1.491 . S
C3233 C3232 1.400 . S
C3233 C3234 1.398 . S
C3234 H3222 0.950 . S
C3234 C3233 1.398 . S
C3234 C3235 1.391 . S
C3235 H3223 0.950 . S
C3235 C3231 1.393 . S
C3235 C3234 1.391 . S
H3236 C3244 0.950 . S
H3237 C3249 0.950 . S
H3238 C3246 0.950 . S
H3239 C3248 0.950 . S
H3240 C3250 0.950 . S
H3241 C3252 0.950 . S
H3242 C3254 0.950 . S
H3243 C3255 0.950 . S
C3244 H3236 0.950 . S
C3244 C3245 1.386 . S
C3244 C3246 1.391 . S
C3245 C3244 1.386 . S
C3245 C3249 1.393 . S
C3246 H3238 0.950 . S
C3246 C3244 1.391 . S
C3246 C3247 1.400 . S
C3247 C3246 1.400 . S
C3247 C3248 1.398 . S
C3247 C3253 1.491 . S
C3248 H3239 0.950 . S
C3248 C3247 1.398 . S
C3248 C3249 1.391 . S
C3249 H3237 0.950 . S
C3249 C3245 1.393 . S
C3249 C3248 1.391 . S
C3250 H3240 0.950 . S
C3250 C3251 1.386 . S
C3250 C3252 1.391 . S
C3251 C3250 1.386 . S
C3251 C3255 1.393 . S
C3252 H3241 0.950 . S
C3252 C3250 1.391 . S
C3252 C3253 1.400 . S
C3253 C3247 1.491 . S
C3253 C3252 1.400 . S
C3253 C3254 1.398 . S
C3254 H3242 0.950 . S
C3254 C3253 1.398 . S
C3254 C3255 1.391 . S
C3255 H3243 0.950 . S
C3255 C3251 1.393 . S
C3255 C3254 1.391 . S
H3256 C3264 0.950 . S
H3257 C3269 0.950 . S
H3258 C3266 0.950 . S
H3259 C3268 0.950 . S
H3260 C3270 0.950 . S
H3261 C3272 0.950 . S
H3262 C3274 0.950 . S
H3263 C3275 0.950 . S
C3264 H3256 0.950 . S
C3264 C3265 1.386 . S
C3264 C3266 1.391 . S
C3265 C3264 1.386 . S
C3265 C3269 1.393 . S
C3266 H3258 0.950 . S
C3266 C3264 1.391 . S
C3266 C3267 1.400 . S
C3267 C3266 1.400 . S
C3267 C3268 1.398 . S
C3267 C3273 1.491 . S
C3268 H3259 0.950 . S
C3268 C3267 1.398 . S
C3268 C3269 1.391 . S
C3269 H3257 0.950 . S
C3269 C3265 1.393 . S
C3269 C3268 1.391 . S
C3270 H3260 0.950 . S
C3270 C3271 1.386 . S
C3270 C3272 1.391 . S
C3271 C3270 1.386 . S
C3271 C3275 1.393 . S
C3272 H3261 0.950 . S
C3272 C3270 1.391 . S
C3272 C3273 1.400 . S
C3273 C3267 1.491 . S
C3273 C3272 1.400 . S
C3273 C3274 1.398 . S
C3274 H3262 0.950 . S
C3274 C3273 1.398 . S
C3274 C3275 1.391 . S
C3275 H3263 0.950 . S
C3275 C3271 1.393 . S
C3275 C3274 1.391 . S
H3276 C3284 0.950 . S
H3277 C3289 0.950 . S
H3278 C3286 0.950 . S
H3279 C3288 0.950 . S
H3280 C3290 0.950 . S
H3281 C3292 0.950 . S
H3282 C3294 0.950 . S
H3283 C3295 0.950 . S
C3284 H3276 0.950 . S
C3284 C3285 1.386 . S
C3284 C3286 1.391 . S
C3285 C3284 1.386 . S
C3285 C3289 1.393 . S
C3286 H3278 0.950 . S
C3286 C3284 1.391 . S
C3286 C3287 1.400 . S
C3287 C3286 1.400 . S
C3287 C3288 1.398 . S
C3287 C3293 1.491 . S
C3288 H3279 0.950 . S
C3288 C3287 1.398 . S
C3288 C3289 1.391 . S
C3289 H3277 0.950 . S
C3289 C3285 1.393 . S
C3289 C3288 1.391 . S
C3290 H3280 0.950 . S
C3290 C3291 1.386 . S
C3290 C3292 1.391 . S
C3291 C3290 1.386 . S
C3291 C3295 1.393 . S
C3292 H3281 0.950 . S
C3292 C3290 1.391 . S
C3292 C3293 1.400 . S
C3293 C3287 1.491 . S
C3293 C3292 1.400 . S
C3293 C3294 1.398 . S
C3294 H3282 0.950 . S
C3294 C3293 1.398 . S
C3294 C3295 1.391 . S
C3295 H3283 0.950 . S
C3295 C3291 1.393 . S
C3295 C3294 1.391 . S
H3296 C3304 0.950 . S
H3297 C3309 0.950 . S
H3298 C3306 0.950 . S
H3299 C3308 0.950 . S
H3300 C3310 0.950 . S
H3301 C3312 0.950 . S
H3302 C3314 0.950 . S
H3303 C3315 0.950 . S
C3304 H3296 0.950 . S
C3304 C3305 1.386 . S
C3304 C3306 1.391 . S
C3305 C3304 1.386 . S
C3305 C3309 1.393 . S
C3306 H3298 0.950 . S
C3306 C3304 1.391 . S
C3306 C3307 1.400 . S
C3307 C3306 1.400 . S
C3307 C3308 1.398 . S
C3307 C3313 1.491 . S
C3308 H3299 0.950 . S
C3308 C3307 1.398 . S
C3308 C3309 1.391 . S
C3309 H3297 0.950 . S
C3309 C3305 1.393 . S
C3309 C3308 1.391 . S
C3310 H3300 0.950 . S
C3310 C3311 1.386 . S
C3310 C3312 1.391 . S
C3311 C3310 1.386 . S
C3311 C3315 1.393 . S
C3312 H3301 0.950 . S
C3312 C3310 1.391 . S
C3312 C3313 1.400 . S
C3313 C3307 1.491 . S
C3313 C3312 1.400 . S
C3313 C3314 1.398 . S
C3314 H3302 0.950 . S
C3314 C3313 1.398 . S
C3314 C3315 1.391 . S
C3315 H3303 0.950 . S
C3315 C3311 1.393 . S
C3315 C3314 1.391 . S
H3316 C3324 0.950 . S
H3317 C3329 0.950 . S
H3318 C3326 0.950 . S
H3319 C3328 0.950 . S
H3320 C3330 0.950 . S
H3321 C3332 0.950 . S
H3322 C3334 0.950 . S
H3323 C3335 0.950 . S
C3324 H3316 0.950 . S
C3324 C3325 1.386 . S
C3324 C3326 1.391 . S
C3325 C3324 1.386 . S
C3325 C3329 1.393 . S
C3326 H3318 0.950 . S
C3326 C3324 1.391 . S
C3326 C3327 1.400 . S
C3327 C3326 1.400 . S
C3327 C3328 1.398 . S
C3327 C3333 1.491 . S
C3328 H3319 0.950 . S
C3328 C3327 1.398 . S
C3328 C3329 1.391 . S
C3329 H3317 0.950 . S
C3329 C3325 1.393 . S
C3329 C3328 1.391 . S
C3330 H3320 0.950 . S
C3330 C3331 1.386 . S
C3330 C3332 1.391 . S
C3331 C3330 1.386 . S
C3331 C3335 1.393 . S
C3332 H3321 0.950 . S
C3332 C3330 1.391 . S
C3332 C3333 1.400 . S
C3333 C3327 1.491 . S
C3333 C3332 1.400 . S
C3333 C3334 1.398 . S
C3334 H3322 0.950 . S
C3334 C3333 1.398 . S
C3334 C3335 1.391 . S
C3335 H3323 0.950 . S
C3335 C3331 1.393 . S
C3335 C3334 1.391 . S
H3336 C3344 0.950 . S
H3337 C3349 0.950 . S
H3338 C3346 0.950 . S
H3339 C3348 0.950 . S
H3340 C3350 0.950 . S
H3341 C3352 0.950 . S
H3342 C3354 0.950 . S
H3343 C3355 0.950 . S
C3344 H3336 0.950 . S
C3344 C3345 1.386 . S
C3344 C3346 1.391 . S
C3345 C3344 1.386 . S
C3345 C3349 1.393 . S
C3346 H3338 0.950 . S
C3346 C3344 1.391 . S
C3346 C3347 1.400 . S
C3347 C3346 1.400 . S
C3347 C3348 1.398 . S
C3347 C3353 1.491 . S
C3348 H3339 0.950 . S
C3348 C3347 1.398 . S
C3348 C3349 1.391 . S
C3349 H3337 0.950 . S
C3349 C3345 1.393 . S
C3349 C3348 1.391 . S
C3350 H3340 0.950 . S
C3350 C3351 1.386 . S
C3350 C3352 1.391 . S
C3351 C3350 1.386 . S
C3351 C3355 1.393 . S
C3352 H3341 0.950 . S
C3352 C3350 1.391 . S
C3352 C3353 1.400 . S
C3353 C3347 1.491 . S
C3353 C3352 1.400 . S
C3353 C3354 1.398 . S
C3354 H3342 0.950 . S
C3354 C3353 1.398 . S
C3354 C3355 1.391 . S
C3355 H3343 0.950 . S
C3355 C3351 1.393 . S
C3355 C3354 1.391 . S
H3356 C3364 0.950 . S
H3357 C3369 0.950 . S
H3358 C3366 0.950 . S
H3359 C3368 0.950 . S
H3360 C3370 0.950 . S
H3361 C3372 0.950 . S
H3362 C3374 0.950 . S
H3363 C3375 0.950 . S
C3364 H3356 0.950 . S
C3364 C3365 1.386 . S
C3364 C3366 1.391 . S
C3365 C3364 1.386 . S
C3365 C3369 1.393 . S
C3366 H3358 0.950 . S
C3366 C3364 1.391 . S
C3366 C3367 1.400 . S
C3367 C3366 1.400 . S
C3367 C3368 1.398 . S
C3367 C3373 1.491 . S
C3368 H3359 0.950 . S
C3368 C3367 1.398 . S
C3368 C3369 1.391 . S
C3369 H3357 0.950 . S
C3369 C3365 1.393 . S
C3369 C3368 1.391 . S
C3370 H3360 0.950 . S
C3370 C3371 1.386 . S
C3370 C3372 1.391 . S
C3371 C3370 1.386 . S
C3371 C3375 1.393 . S
C3372 H3361 0.950 . S
C3372 C3370 1.391 . S
C3372 C3373 1.400 . S
C3373 C3367 1.491 . S
C3373 C3372 1.400 . S
C3373 C3374 1.398 . S
C3374 H3362 0.950 . S
C3374 C3373 1.398 . S
C3374 C3375 1.391 . S
C3375 H3363 0.950 . S
C3375 C3371 1.393 . S
C3375 C3374 1.391 . S
H3376 C3384 0.950 . S
H3377 C3389 0.950 . S
H3378 C3386 0.950 . S
H3379 C3388 0.950 . S
H3380 C3390 0.950 . S
H3381 C3392 0.950 . S
H3382 C3394 0.950 . S
H3383 C3395 0.950 . S
C3384 H3376 0.950 . S
C3384 C3385 1.386 . S
C3384 C3386 1.391 . S
C3385 C3384 1.386 . S
C3385 C3389 1.393 . S
C3386 H3378 0.950 . S
C3386 C3384 1.391 . S
C3386 C3387 1.400 . S
C3387 C3386 1.400 . S
C3387 C3388 1.398 . S
C3387 C3393 1.491 . S
C3388 H3379 0.950 . S
C3388 C3387 1.398 . S
C3388 C3389 1.391 . S
C3389 H3377 0.950 . S
C3389 C3385 1.393 . S
C3389 C3388 1.391 . S
C3390 H3380 0.950 . S
C3390 C3391 1.386 . S
C3390 C3392 1.391 . S
C3391 C3390 1.386 . S
C3391 C3395 1.393 . S
C3392 H3381 0.950 . S
C3392 C3390 1.391 . S
C3392 C3393 1.400 . S
C3393 C3387 1.491 . S
C3393 C3392 1.400 . S
C3393 C3394 1.398 . S
C3394 H3382 0.950 . S
C3394 C3393 1.398 . S
C3394 C3395 1.391 . S
C3395 H3383 0.950 . S
C3395 C3391 1.393 . S
C3395 C3394 1.391 . S
H3396 C3404 0.950 . S
H3397 C3409 0.950 . S
H3398 C3406 0.950 . S
H3399 C3408 0.950 . S
H3400 C3410 0.950 . S
H3401 C3412 0.950 . S
H3402 C3414 0.950 . S
H3403 C3415 0.950 . S
C3404 H3396 0.950 . S
C3404 C3405 1.386 . S
C3404 C3406 1.391 . S
C3405 C3404 1.386 . S
C3405 C3409 1.393 . S
C3406 H3398 0.950 . S
C3406 C3404 1.391 . S
C3406 C3407 1.400 . S
C3407 C3406 1.400 . S
C3407 C3408 1.398 . S
C3407 C3413 1.491 . S
C3408 H3399 0.950 . S
C3408 C3407 1.398 . S
C3408 C3409 1.391 . S
C3409 H3397 0.950 . S
C3409 C3405 1.393 . S
C3409 C3408 1.391 . S
C3410 H3400 0.950 . S
C3410 C3411 1.386 . S
C3410 C3412 1.391 . S
C3411 C3410 1.386 . S
C3411 C3415 1.393 . S
C3412 H3401 0.950 . S
C3412 C3410 1.391 . S
C3412 C3413 1.400 . S
C3413 C3407 1.491 . S
C3413 C3412 1.400 . S
C3413 C3414 1.398 . S
C3414 H3402 0.950 . S
C3414 C3413 1.398 . S
C3414 C3415 1.391 . S
C3415 H3403 0.950 . S
C3415 C3411 1.393 . S
C3415 C3414 1.391 . S
H3416 C3424 0.950 . S
H3417 C3429 0.950 . S
H3418 C3426 0.950 . S
H3419 C3428 0.950 . S
H3420 C3430 0.950 . S
H3421 C3432 0.950 . S
H3422 C3434 0.950 . S
H3423 C3435 0.950 . S
C3424 H3416 0.950 . S
C3424 C3425 1.386 . S
C3424 C3426 1.391 . S
C3425 C3424 1.386 . S
C3425 C3429 1.393 . S
C3426 H3418 0.950 . S
C3426 C3424 1.391 . S
C3426 C3427 1.400 . S
C3427 C3426 1.400 . S
C3427 C3428 1.398 . S
C3427 C3433 1.491 . S
C3428 H3419 0.950 . S
C3428 C3427 1.398 . S
C3428 C3429 1.391 . S
C3429 H3417 0.950 . S
C3429 C3425 1.393 . S
C3429 C3428 1.391 . S
C3430 H3420 0.950 . S
C3430 C3431 1.386 . S
C3430 C3432 1.391 . S
C3431 C3430 1.386 . S
C3431 C3435 1.393 . S
C3432 H3421 0.950 . S
C3432 C3430 1.391 . S
C3432 C3433 1.400 . S
C3433 C3427 1.491 . S
C3433 C3432 1.400 . S
C3433 C3434 1.398 . S
C3434 H3422 0.950 . S
C3434 C3433 1.398 . S
C3434 C3435 1.391 . S
C3435 H3423 0.950 . S
C3435 C3431 1.393 . S
C3435 C3434 1.391 . S
H3436 C3444 0.950 . S
H3437 C3449 0.950 . S
H3438 C3446 0.950 . S
H3439 C3448 0.950 . S
H3440 C3450 0.950 . S
H3441 C3452 0.950 . S
H3442 C3454 0.950 . S
H3443 C3455 0.950 . S
C3444 H3436 0.950 . S
C3444 C3445 1.386 . S
C3444 C3446 1.391 . S
C3445 C3444 1.386 . S
C3445 C3449 1.393 . S
C3446 H3438 0.950 . S
C3446 C3444 1.391 . S
C3446 C3447 1.400 . S
C3447 C3446 1.400 . S
C3447 C3448 1.398 . S
C3447 C3453 1.491 . S
C3448 H3439 0.950 . S
C3448 C3447 1.398 . S
C3448 C3449 1.391 . S
C3449 H3437 0.950 . S
C3449 C3445 1.393 . S
C3449 C3448 1.391 . S
C3450 H3440 0.950 . S
C3450 C3451 1.386 . S
C3450 C3452 1.391 . S
C3451 C3450 1.386 . S
C3451 C3455 1.393 . S
C3452 H3441 0.950 . S
C3452 C3450 1.391 . S
C3452 C3453 1.400 . S
C3453 C3447 1.491 . S
C3453 C3452 1.400 . S
C3453 C3454 1.398 . S
C3454 H3442 0.950 . S
C3454 C3453 1.398 . S
C3454 C3455 1.391 . S
C3455 H3443 0.950 . S
C3455 C3451 1.393 . S
C3455 C3454 1.391 . S
H3456 C3464 0.950 . S
H3457 C3469 0.950 . S
H3458 C3466 0.950 . S
H3459 C3468 0.950 . S
H3460 C3470 0.950 . S
H3461 C3472 0.950 . S
H3462 C3474 0.950 . S
H3463 C3475 0.950 . S
C3464 H3456 0.950 . S
C3464 C3465 1.386 . S
C3464 C3466 1.391 . S
C3465 C3464 1.386 . S
C3465 C3469 1.393 . S
C3466 H3458 0.950 . S
C3466 C3464 1.391 . S
C3466 C3467 1.400 . S
C3467 C3466 1.400 . S
C3467 C3468 1.398 . S
C3467 C3473 1.491 . S
C3468 H3459 0.950 . S
C3468 C3467 1.398 . S
C3468 C3469 1.391 . S
C3469 H3457 0.950 . S
C3469 C3465 1.393 . S
C3469 C3468 1.391 . S
C3470 H3460 0.950 . S
C3470 C3471 1.386 . S
C3470 C3472 1.391 . S
C3471 C3470 1.386 . S
C3471 C3475 1.393 . S
C3472 H3461 0.950 . S
C3472 C3470 1.391 . S
C3472 C3473 1.400 . S
C3473 C3467 1.491 . S
C3473 C3472 1.400 . S
C3473 C3474 1.398 . S
C3474 H3462 0.950 . S
C3474 C3473 1.398 . S
C3474 C3475 1.391 . S
C3475 H3463 0.950 . S
C3475 C3471 1.393 . S
C3475 C3474 1.391 . S
H3476 C3484 0.950 . S
H3477 C3489 0.950 . S
H3478 C3486 0.950 . S
H3479 C3488 0.950 . S
H3480 C3490 0.950 . S
H3481 C3492 0.950 . S
H3482 C3494 0.950 . S
H3483 C3495 0.950 . S
C3484 H3476 0.950 . S
C3484 C3485 1.386 . S
C3484 C3486 1.391 . S
C3485 C3484 1.386 . S
C3485 C3489 1.393 . S
C3486 H3478 0.950 . S
C3486 C3484 1.391 . S
C3486 C3487 1.400 . S
C3487 C3486 1.400 . S
C3487 C3488 1.398 . S
C3487 C3493 1.491 1_655 S
C3488 H3479 0.950 . S
C3488 C3487 1.398 . S
C3488 C3489 1.391 . S
C3489 H3477 0.950 . S
C3489 C3485 1.393 . S
C3489 C3488 1.391 . S
C3490 H3480 0.950 . S
C3490 C3491 1.386 . S
C3490 C3492 1.391 . S
C3491 C3490 1.386 . S
C3491 C3495 1.393 . S
C3492 H3481 0.950 . S
C3492 C3490 1.391 . S
C3492 C3493 1.400 . S
C3493 C3487 1.491 1_455 S
C3493 C3492 1.400 . S
C3493 C3494 1.398 . S
C3494 H3482 0.950 . S
C3494 C3493 1.398 . S
C3494 C3495 1.391 . S
C3495 H3483 0.950 . S
C3495 C3491 1.393 . S
C3495 C3494 1.391 . S
H3496 C3504 0.950 . S
H3497 C3509 0.950 . S
H3498 C3506 0.950 . S
H3499 C3508 0.950 . S
H3500 C3510 0.950 . S
H3501 C3512 0.950 . S
H3502 C3514 0.950 . S
H3503 C3515 0.950 . S
C3504 H3496 0.950 . S
C3504 C3505 1.386 . S
C3504 C3506 1.391 . S
C3505 C3504 1.386 . S
C3505 C3509 1.393 . S
C3506 H3498 0.950 . S
C3506 C3504 1.391 . S
C3506 C3507 1.400 . S
C3507 C3506 1.400 . S
C3507 C3508 1.398 . S
C3507 C3513 1.491 . S
C3508 H3499 0.950 . S
C3508 C3507 1.398 . S
C3508 C3509 1.391 . S
C3509 H3497 0.950 . S
C3509 C3505 1.393 . S
C3509 C3508 1.391 . S
C3510 H3500 0.950 . S
C3510 C3511 1.386 . S
C3510 C3512 1.391 . S
C3511 C3510 1.386 . S
C3511 C3515 1.393 . S
C3512 H3501 0.950 . S
C3512 C3510 1.391 . S
C3512 C3513 1.400 . S
C3513 C3507 1.491 . S
C3513 C3512 1.400 . S
C3513 C3514 1.398 . S
C3514 H3502 0.950 . S
C3514 C3513 1.398 . S
C3514 C3515 1.391 . S
C3515 H3503 0.950 . S
C3515 C3511 1.393 . S
C3515 C3514 1.391 . S
H3516 C3524 0.950 . S
H3517 C3529 0.950 . S
H3518 C3526 0.950 . S
H3519 C3528 0.950 . S
H3520 C3530 0.950 . S
H3521 C3532 0.950 . S
H3522 C3534 0.950 . S
H3523 C3535 0.950 . S
C3524 H3516 0.950 . S
C3524 C3525 1.386 . S
C3524 C3526 1.391 . S
C3525 C3524 1.386 . S
C3525 C3529 1.393 . S
C3526 H3518 0.950 . S
C3526 C3524 1.391 . S
C3526 C3527 1.400 . S
C3527 C3526 1.400 . S
C3527 C3528 1.398 . S
C3527 C3533 1.491 . S
C3528 H3519 0.950 . S
C3528 C3527 1.398 . S
C3528 C3529 1.391 . S
C3529 H3517 0.950 . S
C3529 C3525 1.393 . S
C3529 C3528 1.391 . S
C3530 H3520 0.950 . S
C3530 C3531 1.386 . S
C3530 C3532 1.391 . S
C3531 C3530 1.386 . S
C3531 C3535 1.393 . S
C3532 H3521 0.950 . S
C3532 C3530 1.391 . S
C3532 C3533 1.400 . S
C3533 C3527 1.491 . S
C3533 C3532 1.400 . S
C3533 C3534 1.398 . S
C3534 H3522 0.950 . S
C3534 C3533 1.398 . S
C3534 C3535 1.391 . S
C3535 H3523 0.950 . S
C3535 C3531 1.393 . S
C3535 C3534 1.391 . S
H3536 C3544 0.950 . S
H3537 C3549 0.950 . S
H3538 C3546 0.950 . S
H3539 C3548 0.950 . S
H3540 C3550 0.950 . S
H3541 C3552 0.950 . S
H3542 C3554 0.950 . S
H3543 C3555 0.950 . S
C3544 H3536 0.950 . S
C3544 C3545 1.386 . S
C3544 C3546 1.391 . S
C3545 C3544 1.386 . S
C3545 C3549 1.393 . S
C3546 H3538 0.950 . S
C3546 C3544 1.391 . S
C3546 C3547 1.400 . S
C3547 C3546 1.400 . S
C3547 C3548 1.398 . S
C3547 C3553 1.491 . S
C3548 H3539 0.950 . S
C3548 C3547 1.398 . S
C3548 C3549 1.391 . S
C3549 H3537 0.950 . S
C3549 C3545 1.393 . S
C3549 C3548 1.391 . S
C3550 H3540 0.950 . S
C3550 C3551 1.386 . S
C3550 C3552 1.391 . S
C3551 C3550 1.386 . S
C3551 C3555 1.393 . S
C3552 H3541 0.950 . S
C3552 C3550 1.391 . S
C3552 C3553 1.400 . S
C3553 C3547 1.491 . S
C3553 C3552 1.400 . S
C3553 C3554 1.398 . S
C3554 H3542 0.950 . S
C3554 C3553 1.398 . S
C3554 C3555 1.391 . S
C3555 H3543 0.950 . S
C3555 C3551 1.393 . S
C3555 C3554 1.391 . S
H3556 C3564 0.950 . S
H3557 C3569 0.950 . S
H3558 C3566 0.950 . S
H3559 C3568 0.950 . S
H3560 C3570 0.950 . S
H3561 C3572 0.950 . S
H3562 C3574 0.950 . S
H3563 C3575 0.950 . S
C3564 H3556 0.950 . S
C3564 C3565 1.386 . S
C3564 C3566 1.391 . S
C3565 C3564 1.386 . S
C3565 C3569 1.393 . S
C3566 H3558 0.950 . S
C3566 C3564 1.391 . S
C3566 C3567 1.400 . S
C3567 C3566 1.400 . S
C3567 C3568 1.398 . S
C3567 C3573 1.491 . S
C3568 H3559 0.950 . S
C3568 C3567 1.398 . S
C3568 C3569 1.391 . S
C3569 H3557 0.950 . S
C3569 C3565 1.393 . S
C3569 C3568 1.391 . S
C3570 H3560 0.950 . S
C3570 C3571 1.386 . S
C3570 C3572 1.391 . S
C3571 C3570 1.386 . S
C3571 C3575 1.393 . S
C3572 H3561 0.950 . S
C3572 C3570 1.391 . S
C3572 C3573 1.400 . S
C3573 C3567 1.491 . S
C3573 C3572 1.400 . S
C3573 C3574 1.398 . S
C3574 H3562 0.950 . S
C3574 C3573 1.398 . S
C3574 C3575 1.391 . S
C3575 H3563 0.950 . S
C3575 C3571 1.393 . S
C3575 C3574 1.391 . S
H3576 C3584 0.950 . S
H3577 C3589 0.950 . S
H3578 C3586 0.950 . S
H3579 C3588 0.950 . S
H3580 C3590 0.950 . S
H3581 C3592 0.950 . S
H3582 C3594 0.950 . S
H3583 C3595 0.950 . S
C3584 H3576 0.950 . S
C3584 C3585 1.386 . S
C3584 C3586 1.391 . S
C3585 C3584 1.386 . S
C3585 C3589 1.393 . S
C3586 H3578 0.950 . S
C3586 C3584 1.391 . S
C3586 C3587 1.400 . S
C3587 C3586 1.400 . S
C3587 C3588 1.398 . S
C3587 C3593 1.491 . S
C3588 H3579 0.950 . S
C3588 C3587 1.398 . S
C3588 C3589 1.391 . S
C3589 H3577 0.950 . S
C3589 C3585 1.393 . S
C3589 C3588 1.391 . S
C3590 H3580 0.950 . S
C3590 C3591 1.386 . S
C3590 C3592 1.391 . S
C3591 C3590 1.386 . S
C3591 C3595 1.393 . S
C3592 H3581 0.950 . S
C3592 C3590 1.391 . S
C3592 C3593 1.400 . S
C3593 C3587 1.491 . S
C3593 C3592 1.400 . S
C3593 C3594 1.398 . S
C3594 H3582 0.950 . S
C3594 C3593 1.398 . S
C3594 C3595 1.391 . S
C3595 H3583 0.950 . S
C3595 C3591 1.393 . S
C3595 C3594 1.391 . S
H3596 C3604 0.950 . S
H3597 C3609 0.950 . S
H3598 C3606 0.950 . S
H3599 C3608 0.950 . S
H3600 C3610 0.950 . S
H3601 C3612 0.950 . S
H3602 C3614 0.950 . S
H3603 C3615 0.950 . S
C3604 H3596 0.950 . S
C3604 C3605 1.386 . S
C3604 C3606 1.391 . S
C3605 C3604 1.386 . S
C3605 C3609 1.393 . S
C3606 H3598 0.950 . S
C3606 C3604 1.391 . S
C3606 C3607 1.400 . S
C3607 C3606 1.400 . S
C3607 C3608 1.398 . S
C3607 C3613 1.491 1_655 S
C3608 H3599 0.950 . S
C3608 C3607 1.398 . S
C3608 C3609 1.391 . S
C3609 H3597 0.950 . S
C3609 C3605 1.393 . S
C3609 C3608 1.391 . S
C3610 H3600 0.950 . S
C3610 C3611 1.386 . S
C3610 C3612 1.391 . S
C3611 C3610 1.386 . S
C3611 C3615 1.393 . S
C3612 H3601 0.950 . S
C3612 C3610 1.391 . S
C3612 C3613 1.400 . S
C3613 C3607 1.491 1_455 S
C3613 C3612 1.400 . S
C3613 C3614 1.398 . S
C3614 H3602 0.950 . S
C3614 C3613 1.398 . S
C3614 C3615 1.391 . S
C3615 H3603 0.950 . S
C3615 C3611 1.393 . S
C3615 C3614 1.391 . S
H3616 C3624 0.950 . S
H3617 C3629 0.950 . S
H3618 C3626 0.950 . S
H3619 C3628 0.950 . S
H3620 C3630 0.950 . S
H3621 C3632 0.950 . S
H3622 C3634 0.950 . S
H3623 C3635 0.950 . S
C3624 H3616 0.950 . S
C3624 C3625 1.386 . S
C3624 C3626 1.391 . S
C3625 C3624 1.386 . S
C3625 C3629 1.393 . S
C3626 H3618 0.950 . S
C3626 C3624 1.391 . S
C3626 C3627 1.400 . S
C3627 C3626 1.400 . S
C3627 C3628 1.398 . S
C3627 C3633 1.491 . S
C3628 H3619 0.950 . S
C3628 C3627 1.398 . S
C3628 C3629 1.391 . S
C3629 H3617 0.950 . S
C3629 C3625 1.393 . S
C3629 C3628 1.391 . S
C3630 H3620 0.950 . S
C3630 C3631 1.386 . S
C3630 C3632 1.391 . S
C3631 C3630 1.386 . S
C3631 C3635 1.393 . S
C3632 H3621 0.950 . S
C3632 C3630 1.391 . S
C3632 C3633 1.400 . S
C3633 C3627 1.491 . S
C3633 C3632 1.400 . S
C3633 C3634 1.398 . S
C3634 H3622 0.950 . S
C3634 C3633 1.398 . S
C3634 C3635 1.391 . S
C3635 H3623 0.950 . S
C3635 C3631 1.393 . S
C3635 C3634 1.391 . S
H3636 C3644 0.950 . S
H3637 C3649 0.950 . S
H3638 C3646 0.950 . S
H3639 C3648 0.950 . S
H3640 C3650 0.950 . S
H3641 C3652 0.950 . S
H3642 C3654 0.950 . S
H3643 C3655 0.950 . S
C3644 H3636 0.950 . S
C3644 C3645 1.386 . S
C3644 C3646 1.391 . S
C3645 C3644 1.386 . S
C3645 C3649 1.393 . S
C3646 H3638 0.950 . S
C3646 C3644 1.391 . S
C3646 C3647 1.400 . S
C3647 C3646 1.400 . S
C3647 C3648 1.398 . S
C3647 C3653 1.491 . S
C3648 H3639 0.950 . S
C3648 C3647 1.398 . S
C3648 C3649 1.391 . S
C3649 H3637 0.950 . S
C3649 C3645 1.393 . S
C3649 C3648 1.391 . S
C3650 H3640 0.950 . S
C3650 C3651 1.386 . S
C3650 C3652 1.391 . S
C3651 C3650 1.386 . S
C3651 C3655 1.393 . S
C3652 H3641 0.950 . S
C3652 C3650 1.391 . S
C3652 C3653 1.400 . S
C3653 C3647 1.491 . S
C3653 C3652 1.400 . S
C3653 C3654 1.398 . S
C3654 H3642 0.950 . S
C3654 C3653 1.398 . S
C3654 C3655 1.391 . S
C3655 H3643 0.950 . S
C3655 C3651 1.393 . S
C3655 C3654 1.391 . S
H3656 C3664 0.950 . S
H3657 C3669 0.950 . S
H3658 C3666 0.950 . S
H3659 C3668 0.950 . S
H3660 C3670 0.950 . S
H3661 C3672 0.950 . S
H3662 C3674 0.950 . S
H3663 C3675 0.950 . S
C3664 H3656 0.950 . S
C3664 C3665 1.386 . S
C3664 C3666 1.391 . S
C3665 C3664 1.386 . S
C3665 C3669 1.393 . S
C3666 H3658 0.950 . S
C3666 C3664 1.391 . S
C3666 C3667 1.400 . S
C3667 C3666 1.400 . S
C3667 C3668 1.398 . S
C3667 C3673 1.491 . S
C3668 H3659 0.950 . S
C3668 C3667 1.398 . S
C3668 C3669 1.391 . S
C3669 H3657 0.950 . S
C3669 C3665 1.393 . S
C3669 C3668 1.391 . S
C3670 H3660 0.950 . S
C3670 C3671 1.386 . S
C3670 C3672 1.391 . S
C3671 C3670 1.386 . S
C3671 C3675 1.393 . S
C3672 H3661 0.950 . S
C3672 C3670 1.391 . S
C3672 C3673 1.400 . S
C3673 C3667 1.491 . S
C3673 C3672 1.400 . S
C3673 C3674 1.398 . S
C3674 H3662 0.950 . S
C3674 C3673 1.398 . S
C3674 C3675 1.391 . S
C3675 H3663 0.950 . S
C3675 C3671 1.393 . S
C3675 C3674 1.391 . S
H3676 C3684 0.950 . S
H3677 C3689 0.950 . S
H3678 C3686 0.950 . S
H3679 C3688 0.950 . S
H3680 C3690 0.950 . S
H3681 C3692 0.950 . S
H3682 C3694 0.950 . S
H3683 C3695 0.950 . S
C3684 H3676 0.950 . S
C3684 C3685 1.386 . S
C3684 C3686 1.391 . S
C3685 C3684 1.386 . S
C3685 C3689 1.393 . S
C3686 H3678 0.950 . S
C3686 C3684 1.391 . S
C3686 C3687 1.400 . S
C3687 C3686 1.400 . S
C3687 C3688 1.398 . S
C3687 C3693 1.491 . S
C3688 H3679 0.950 . S
C3688 C3687 1.398 . S
C3688 C3689 1.391 . S
C3689 H3677 0.950 . S
C3689 C3685 1.393 . S
C3689 C3688 1.391 . S
C3690 H3680 0.950 . S
C3690 C3691 1.386 . S
C3690 C3692 1.391 . S
C3691 C3690 1.386 . S
C3691 C3695 1.393 . S
C3692 H3681 0.950 . S
C3692 C3690 1.391 . S
C3692 C3693 1.400 . S
C3693 C3687 1.491 . S
C3693 C3692 1.400 . S
C3693 C3694 1.398 . S
C3694 H3682 0.950 . S
C3694 C3693 1.398 . S
C3694 C3695 1.391 . S
C3695 H3683 0.950 . S
C3695 C3691 1.393 . S
C3695 C3694 1.391 . S
H3696 C3704 0.950 . S
H3697 C3709 0.950 . S
H3698 C3706 0.950 . S
H3699 C3708 0.950 . S
H3700 C3710 0.950 . S
H3701 C3712 0.950 . S
H3702 C3714 0.950 . S
H3703 C3715 0.950 . S
C3704 H3696 0.950 . S
C3704 C3705 1.386 . S
C3704 C3706 1.391 . S
C3705 C3704 1.386 . S
C3705 C3709 1.393 . S
C3706 H3698 0.950 . S
C3706 C3704 1.391 . S
C3706 C3707 1.400 . S
C3707 C3706 1.400 . S
C3707 C3708 1.398 . S
C3707 C3713 1.491 . S
C3708 H3699 0.950 . S
C3708 C3707 1.398 . S
C3708 C3709 1.391 . S
C3709 H3697 0.950 . S
C3709 C3705 1.393 . S
C3709 C3708 1.391 . S
C3710 H3700 0.950 . S
C3710 C3711 1.386 . S
C3710 C3712 1.391 . S
C3711 C3710 1.386 . S
C3711 C3715 1.393 . S
C3712 H3701 0.950 . S
C3712 C3710 1.391 . S
C3712 C3713 1.400 . S
C3713 C3707 1.491 . S
C3713 C3712 1.400 . S
C3713 C3714 1.398 . S
C3714 H3702 0.950 . S
C3714 C3713 1.398 . S
C3714 C3715 1.391 . S
C3715 H3703 0.950 . S
C3715 C3711 1.393 . S
C3715 C3714 1.391 . S
H3716 C3724 0.950 . S
H3717 C3729 0.950 . S
H3718 C3726 0.950 . S
H3719 C3728 0.950 . S
H3720 C3730 0.950 . S
H3721 C3732 0.950 . S
H3722 C3734 0.950 . S
H3723 C3735 0.950 . S
C3724 H3716 0.950 . S
C3724 C3725 1.386 . S
C3724 C3726 1.391 . S
C3725 C3724 1.386 . S
C3725 C3729 1.393 . S
C3726 H3718 0.950 . S
C3726 C3724 1.391 . S
C3726 C3727 1.400 . S
C3727 C3726 1.400 . S
C3727 C3728 1.398 . S
C3727 C3733 1.491 1_655 S
C3728 H3719 0.950 . S
C3728 C3727 1.398 . S
C3728 C3729 1.391 . S
C3729 H3717 0.950 . S
C3729 C3725 1.393 . S
C3729 C3728 1.391 . S
C3730 H3720 0.950 . S
C3730 C3731 1.386 . S
C3730 C3732 1.391 . S
C3731 C3730 1.386 . S
C3731 C3735 1.393 . S
C3732 H3721 0.950 . S
C3732 C3730 1.391 . S
C3732 C3733 1.400 . S
C3733 C3727 1.491 1_455 S
C3733 C3732 1.400 . S
C3733 C3734 1.398 . S
C3734 H3722 0.950 . S
C3734 C3733 1.398 . S
C3734 C3735 1.391 . S
C3735 H3723 0.950 . S
C3735 C3731 1.393 . S
C3735 C3734 1.391 . S
H3736 C3744 0.950 . S
H3737 C3749 0.950 . S
H3738 C3746 0.950 . S
H3739 C3748 0.950 . S
H3740 C3750 0.950 . S
H3741 C3752 0.950 . S
H3742 C3754 0.950 . S
H3743 C3755 0.950 . S
C3744 H3736 0.950 . S
C3744 C3745 1.386 . S
C3744 C3746 1.391 . S
C3745 C3744 1.386 . S
C3745 C3749 1.393 . S
C3746 H3738 0.950 . S
C3746 C3744 1.391 . S
C3746 C3747 1.400 . S
C3747 C3746 1.400 . S
C3747 C3748 1.398 . S
C3747 C3753 1.491 1_655 S
C3748 H3739 0.950 . S
C3748 C3747 1.398 . S
C3748 C3749 1.391 . S
C3749 H3737 0.950 . S
C3749 C3745 1.393 . S
C3749 C3748 1.391 . S
C3750 H3740 0.950 . S
C3750 C3751 1.386 . S
C3750 C3752 1.391 . S
C3751 C3750 1.386 . S
C3751 C3755 1.393 . S
C3752 H3741 0.950 . S
C3752 C3750 1.391 . S
C3752 C3753 1.400 . S
C3753 C3747 1.491 1_455 S
C3753 C3752 1.400 . S
C3753 C3754 1.398 . S
C3754 H3742 0.950 . S
C3754 C3753 1.398 . S
C3754 C3755 1.391 . S
C3755 H3743 0.950 . S
C3755 C3751 1.393 . S
C3755 C3754 1.391 . S
H3756 C3764 0.950 . S
H3757 C3769 0.950 . S
H3758 C3766 0.950 . S
H3759 C3768 0.950 . S
H3760 C3770 0.950 . S
H3761 C3772 0.950 . S
H3762 C3774 0.950 . S
H3763 C3775 0.950 . S
C3764 H3756 0.950 . S
C3764 C3765 1.386 . S
C3764 C3766 1.391 . S
C3765 C3764 1.386 . S
C3765 C3769 1.393 . S
C3766 H3758 0.950 . S
C3766 C3764 1.391 . S
C3766 C3767 1.400 . S
C3767 C3766 1.400 . S
C3767 C3768 1.398 . S
C3767 C3773 1.491 . S
C3768 H3759 0.950 . S
C3768 C3767 1.398 . S
C3768 C3769 1.391 . S
C3769 H3757 0.950 . S
C3769 C3765 1.393 . S
C3769 C3768 1.391 . S
C3770 H3760 0.950 . S
C3770 C3771 1.386 . S
C3770 C3772 1.391 . S
C3771 C3770 1.386 . S
C3771 C3775 1.393 . S
C3772 H3761 0.950 . S
C3772 C3770 1.391 . S
C3772 C3773 1.400 . S
C3773 C3767 1.491 . S
C3773 C3772 1.400 . S
C3773 C3774 1.398 . S
C3774 H3762 0.950 . S
C3774 C3773 1.398 . S
C3774 C3775 1.391 . S
C3775 H3763 0.950 . S
C3775 C3771 1.393 . S
C3775 C3774 1.391 . S
H3776 C3784 0.950 . S
H3777 C3789 0.950 . S
H3778 C3786 0.950 . S
H3779 C3788 0.950 . S
H3780 C3790 0.950 . S
H3781 C3792 0.950 . S
H3782 C3794 0.950 . S
H3783 C3795 0.950 . S
C3784 H3776 0.950 . S
C3784 C3785 1.386 . S
C3784 C3786 1.391 . S
C3785 C3784 1.386 . S
C3785 C3789 1.393 . S
C3786 H3778 0.950 . S
C3786 C3784 1.391 . S
C3786 C3787 1.400 . S
C3787 C3786 1.400 . S
C3787 C3788 1.398 . S
C3787 C3793 1.491 . S
C3788 H3779 0.950 . S
C3788 C3787 1.398 . S
C3788 C3789 1.391 . S
C3789 H3777 0.950 . S
C3789 C3785 1.393 . S
C3789 C3788 1.391 . S
C3790 H3780 0.950 . S
C3790 C3791 1.386 . S
C3790 C3792 1.391 . S
C3791 C3790 1.386 . S
C3791 C3795 1.393 . S
C3792 H3781 0.950 . S
C3792 C3790 1.391 . S
C3792 C3793 1.400 . S
C3793 C3787 1.491 . S
C3793 C3792 1.400 . S
C3793 C3794 1.398 . S
C3794 H3782 0.950 . S
C3794 C3793 1.398 . S
C3794 C3795 1.391 . S
C3795 H3783 0.950 . S
C3795 C3791 1.393 . S
C3795 C3794 1.391 . S
H3796 C3804 0.950 . S
H3797 C3809 0.950 . S
H3798 C3806 0.950 . S
H3799 C3808 0.950 . S
H3800 C3810 0.950 . S
H3801 C3812 0.950 . S
H3802 C3814 0.950 . S
H3803 C3815 0.950 . S
C3804 H3796 0.950 . S
C3804 C3805 1.386 . S
C3804 C3806 1.391 . S
C3805 C3804 1.386 . S
C3805 C3809 1.393 . S
C3806 H3798 0.950 . S
C3806 C3804 1.391 . S
C3806 C3807 1.400 . S
C3807 C3806 1.400 . S
C3807 C3808 1.398 . S
C3807 C3813 1.491 . S
C3808 H3799 0.950 . S
C3808 C3807 1.398 . S
C3808 C3809 1.391 . S
C3809 H3797 0.950 . S
C3809 C3805 1.393 . S
C3809 C3808 1.391 . S
C3810 H3800 0.950 . S
C3810 C3811 1.386 . S
C3810 C3812 1.391 . S
C3811 C3810 1.386 . S
C3811 C3815 1.393 . S
C3812 H3801 0.950 . S
C3812 C3810 1.391 . S
C3812 C3813 1.400 . S
C3813 C3807 1.491 . S
C3813 C3812 1.400 . S
C3813 C3814 1.398 . S
C3814 H3802 0.950 . S
C3814 C3813 1.398 . S
C3814 C3815 1.391 . S
C3815 H3803 0.950 . S
C3815 C3811 1.393 . S
C3815 C3814 1.391 . S
H3816 C3824 0.950 . S
H3817 C3829 0.950 . S
H3818 C3826 0.950 . S
H3819 C3828 0.950 . S
H3820 C3830 0.950 . S
H3821 C3832 0.950 . S
H3822 C3834 0.950 . S
H3823 C3835 0.950 . S
C3824 H3816 0.950 . S
C3824 C3825 1.386 . S
C3824 C3826 1.391 . S
C3825 C3824 1.386 . S
C3825 C3829 1.393 . S
C3826 H3818 0.950 . S
C3826 C3824 1.391 . S
C3826 C3827 1.400 . S
C3827 C3826 1.400 . S
C3827 C3828 1.398 . S
C3827 C3833 1.491 . S
C3828 H3819 0.950 . S
C3828 C3827 1.398 . S
C3828 C3829 1.391 . S
C3829 H3817 0.950 . S
C3829 C3825 1.393 . S
C3829 C3828 1.391 . S
C3830 H3820 0.950 . S
C3830 C3831 1.386 . S
C3830 C3832 1.391 . S
C3831 C3830 1.386 . S
C3831 C3835 1.393 . S
C3832 H3821 0.950 . S
C3832 C3830 1.391 . S
C3832 C3833 1.400 . S
C3833 C3827 1.491 . S
C3833 C3832 1.400 . S
C3833 C3834 1.398 . S
C3834 H3822 0.950 . S
C3834 C3833 1.398 . S
C3834 C3835 1.391 . S
C3835 H3823 0.950 . S
C3835 C3831 1.393 . S
C3835 C3834 1.391 . S
H3836 C3844 0.950 . S
H3837 C3849 0.950 . S
H3838 C3846 0.950 . S
H3839 C3848 0.950 . S
H3840 C3850 0.950 . S
H3841 C3852 0.950 . S
H3842 C3854 0.950 . S
H3843 C3855 0.950 . S
C3844 H3836 0.950 . S
C3844 C3845 1.386 . S
C3844 C3846 1.391 . S
C3845 C3844 1.386 . S
C3845 C3849 1.393 . S
C3846 H3838 0.950 . S
C3846 C3844 1.391 . S
C3846 C3847 1.400 . S
C3847 C3846 1.400 . S
C3847 C3848 1.398 . S
C3847 C3853 1.491 . S
C3848 H3839 0.950 . S
C3848 C3847 1.398 . S
C3848 C3849 1.391 . S
C3849 H3837 0.950 . S
C3849 C3845 1.393 . S
C3849 C3848 1.391 . S
C3850 H3840 0.950 . S
C3850 C3851 1.386 . S
C3850 C3852 1.391 . S
C3851 C3850 1.386 . S
C3851 C3855 1.393 . S
C3852 H3841 0.950 . S
C3852 C3850 1.391 . S
C3852 C3853 1.400 . S
C3853 C3847 1.491 . S
C3853 C3852 1.400 . S
C3853 C3854 1.398 . S
C3854 H3842 0.950 . S
C3854 C3853 1.398 . S
C3854 C3855 1.391 . S
C3855 H3843 0.950 . S
C3855 C3851 1.393 . S
C3855 C3854 1.391 . S
H3856 C3864 0.950 . S
H3857 C3869 0.950 . S
H3858 C3866 0.950 . S
H3859 C3868 0.950 . S
H3860 C3870 0.950 . S
H3861 C3872 0.950 . S
H3862 C3874 0.950 . S
H3863 C3875 0.950 . S
C3864 H3856 0.950 . S
C3864 C3865 1.386 . S
C3864 C3866 1.391 . S
C3865 C3864 1.386 . S
C3865 C3869 1.393 . S
C3866 H3858 0.950 . S
C3866 C3864 1.391 . S
C3866 C3867 1.400 . S
C3867 C3866 1.400 . S
C3867 C3868 1.398 . S
C3867 C3873 1.491 . S
C3868 H3859 0.950 . S
C3868 C3867 1.398 . S
C3868 C3869 1.391 . S
C3869 H3857 0.950 . S
C3869 C3865 1.393 . S
C3869 C3868 1.391 . S
C3870 H3860 0.950 . S
C3870 C3871 1.386 . S
C3870 C3872 1.391 . S
C3871 C3870 1.386 . S
C3871 C3875 1.393 . S
C3872 H3861 0.950 . S
C3872 C3870 1.391 . S
C3872 C3873 1.400 . S
C3873 C3867 1.491 . S
C3873 C3872 1.400 . S
C3873 C3874 1.398 . S
C3874 H3862 0.950 . S
C3874 C3873 1.398 . S
C3874 C3875 1.391 . S
C3875 H3863 0.950 . S
C3875 C3871 1.393 . S
C3875 C3874 1.391 . S
H3876 C3884 0.950 . S
H3877 C3889 0.950 . S
H3878 C3886 0.950 . S
H3879 C3888 0.950 . S
H3880 C3890 0.950 . S
H3881 C3892 0.950 . S
H3882 C3894 0.950 . S
H3883 C3895 0.950 . S
C3884 H3876 0.950 . S
C3884 C3885 1.386 . S
C3884 C3886 1.391 . S
C3885 C3884 1.386 . S
C3885 C3889 1.393 . S
C3886 H3878 0.950 . S
C3886 C3884 1.391 . S
C3886 C3887 1.400 . S
C3887 C3886 1.400 . S
C3887 C3888 1.398 . S
C3887 C3893 1.491 . S
C3888 H3879 0.950 . S
C3888 C3887 1.398 . S
C3888 C3889 1.391 . S
C3889 H3877 0.950 . S
C3889 C3885 1.393 . S
C3889 C3888 1.391 . S
C3890 H3880 0.950 . S
C3890 C3891 1.386 . S
C3890 C3892 1.391 . S
C3891 C3890 1.386 . S
C3891 C3895 1.393 . S
C3892 H3881 0.950 . S
C3892 C3890 1.391 . S
C3892 C3893 1.400 . S
C3893 C3887 1.491 . S
C3893 C3892 1.400 . S
C3893 C3894 1.398 . S
C3894 H3882 0.950 . S
C3894 C3893 1.398 . S
C3894 C3895 1.391 . S
C3895 H3883 0.950 . S
C3895 C3891 1.393 . S
C3895 C3894 1.391 . S
H3896 C3904 0.950 . S
H3897 C3909 0.950 . S
H3898 C3906 0.950 . S
H3899 C3908 0.950 . S
H3900 C3910 0.950 . S
H3901 C3912 0.950 . S
H3902 C3914 0.950 . S
H3903 C3915 0.950 . S
C3904 H3896 0.950 . S
C3904 C3905 1.386 . S
C3904 C3906 1.391 . S
C3905 C3904 1.386 . S
C3905 C3909 1.393 . S
C3906 H3898 0.950 . S
C3906 C3904 1.391 . S
C3906 C3907 1.400 . S
C3907 C3906 1.400 . S
C3907 C3908 1.398 . S
C3907 C3913 1.491 . S
C3908 H3899 0.950 . S
C3908 C3907 1.398 . S
C3908 C3909 1.391 . S
C3909 H3897 0.950 . S
C3909 C3905 1.393 . S
C3909 C3908 1.391 . S
C3910 H3900 0.950 . S
C3910 C3911 1.386 . S
C3910 C3912 1.391 . S
C3911 C3910 1.386 . S
C3911 C3915 1.393 . S
C3912 H3901 0.950 . S
C3912 C3910 1.391 . S
C3912 C3913 1.400 . S
C3913 C3907 1.491 . S
C3913 C3912 1.400 . S
C3913 C3914 1.398 . S
C3914 H3902 0.950 . S
C3914 C3913 1.398 . S
C3914 C3915 1.391 . S
C3915 H3903 0.950 . S
C3915 C3911 1.393 . S
C3915 C3914 1.391 . S
H3916 C3924 0.950 . S
H3917 C3929 0.950 . S
H3918 C3926 0.950 . S
H3919 C3928 0.950 . S
H3920 C3930 0.950 . S
H3921 C3932 0.950 . S
H3922 C3934 0.950 . S
H3923 C3935 0.950 . S
C3924 H3916 0.950 . S
C3924 C3925 1.386 . S
C3924 C3926 1.391 . S
C3925 C3924 1.386 . S
C3925 C3929 1.393 . S
C3926 H3918 0.950 . S
C3926 C3924 1.391 . S
C3926 C3927 1.400 . S
C3927 C3926 1.400 . S
C3927 C3928 1.398 . S
C3927 C3933 1.491 . S
C3928 H3919 0.950 . S
C3928 C3927 1.398 . S
C3928 C3929 1.391 . S
C3929 H3917 0.950 . S
C3929 C3925 1.393 . S
C3929 C3928 1.391 . S
C3930 H3920 0.950 . S
C3930 C3931 1.386 . S
C3930 C3932 1.391 . S
C3931 C3930 1.386 . S
C3931 C3935 1.393 . S
C3932 H3921 0.950 . S
C3932 C3930 1.391 . S
C3932 C3933 1.400 . S
C3933 C3927 1.491 . S
C3933 C3932 1.400 . S
C3933 C3934 1.398 . S
C3934 H3922 0.950 . S
C3934 C3933 1.398 . S
C3934 C3935 1.391 . S
C3935 H3923 0.950 . S
C3935 C3931 1.393 . S
C3935 C3934 1.391 . S
H3936 C3944 0.950 . S
H3937 C3949 0.950 . S
H3938 C3946 0.950 . S
H3939 C3948 0.950 . S
H3940 C3950 0.950 . S
H3941 C3952 0.950 . S
H3942 C3954 0.950 . S
H3943 C3955 0.950 . S
C3944 H3936 0.950 . S
C3944 C3945 1.386 . S
C3944 C3946 1.391 . S
C3945 C3944 1.386 . S
C3945 C3949 1.393 . S
C3946 H3938 0.950 . S
C3946 C3944 1.391 . S
C3946 C3947 1.400 . S
C3947 C3946 1.400 . S
C3947 C3948 1.398 . S
C3947 C3953 1.491 . S
C3948 H3939 0.950 . S
C3948 C3947 1.398 . S
C3948 C3949 1.391 . S
C3949 H3937 0.950 . S
C3949 C3945 1.393 . S
C3949 C3948 1.391 . S
C3950 H3940 0.950 . S
C3950 C3951 1.386 . S
C3950 C3952 1.391 . S
C3951 C3950 1.386 . S
C3951 C3955 1.393 . S
C3952 H3941 0.950 . S
C3952 C3950 1.391 . S
C3952 C3953 1.400 . S
C3953 C3947 1.491 . S
C3953 C3952 1.400 . S
C3953 C3954 1.398 . S
C3954 H3942 0.950 . S
C3954 C3953 1.398 . S
C3954 C3955 1.391 . S
C3955 H3943 0.950 . S
C3955 C3951 1.393 . S
C3955 C3954 1.391 . S
H3956 C3964 0.950 . S
H3957 C3969 0.950 . S
H3958 C3966 0.950 . S
H3959 C3968 0.950 . S
H3960 C3970 0.950 . S
H3961 C3972 0.950 . S
H3962 C3974 0.950 . S
H3963 C3975 0.950 . S
C3964 H3956 0.950 . S
C3964 C3965 1.386 . S
C3964 C3966 1.391 . S
C3965 C3964 1.386 . S
C3965 C3969 1.393 . S
C3966 H3958 0.950 . S
C3966 C3964 1.391 . S
C3966 C3967 1.400 . S
C3967 C3966 1.400 . S
C3967 C3968 1.398 . S
C3967 C3973 1.491 . S
C3968 H3959 0.950 . S
C3968 C3967 1.398 . S
C3968 C3969 1.391 . S
C3969 H3957 0.950 . S
C3969 C3965 1.393 . S
C3969 C3968 1.391 . S
C3970 H3960 0.950 . S
C3970 C3971 1.386 . S
C3970 C3972 1.391 . S
C3971 C3970 1.386 . S
C3971 C3975 1.393 . S
C3972 H3961 0.950 . S
C3972 C3970 1.391 . S
C3972 C3973 1.400 . S
C3973 C3967 1.491 . S
C3973 C3972 1.400 . S
C3973 C3974 1.398 . S
C3974 H3962 0.950 . S
C3974 C3973 1.398 . S
C3974 C3975 1.391 . S
C3975 H3963 0.950 . S
C3975 C3971 1.393 . S
C3975 C3974 1.391 . S
H3976 C3984 0.950 . S
H3977 C3989 0.950 . S
H3978 C3986 0.950 . S
H3979 C3988 0.950 . S
H3980 C3990 0.950 . S
H3981 C3992 0.950 . S
H3982 C3994 0.950 . S
H3983 C3995 0.950 . S
C3984 H3976 0.950 . S
C3984 C3985 1.386 . S
C3984 C3986 1.391 . S
C3985 C3984 1.386 . S
C3985 C3989 1.393 . S
C3986 H3978 0.950 . S
C3986 C3984 1.391 . S
C3986 C3987 1.400 . S
C3987 C3986 1.400 . S
C3987 C3988 1.398 . S
C3987 C3993 1.491 . S
C3988 H3979 0.950 . S
C3988 C3987 1.398 . S
C3988 C3989 1.391 . S
C3989 H3977 0.950 . S
C3989 C3985 1.393 . S
C3989 C3988 1.391 . S
C3990 H3980 0.950 . S
C3990 C3991 1.386 . S
C3990 C3992 1.391 . S
C3991 C3990 1.386 . S
C3991 C3995 1.393 . S
C3992 H3981 0.950 . S
C3992 C3990 1.391 . S
C3992 C3993 1.400 . S
C3993 C3987 1.491 . S
C3993 C3992 1.400 . S
C3993 C3994 1.398 . S
C3994 H3982 0.950 . S
C3994 C3993 1.398 . S
C3994 C3995 1.391 . S
C3995 H3983 0.950 . S
C3995 C3991 1.393 . S
C3995 C3994 1.391 . S
H3996 C4004 0.950 . S
H3997 C4009 0.950 . S
H3998 C4006 0.950 . S
H3999 C4008 0.950 . S
H4000 C4010 0.950 . S
H4001 C4012 0.950 . S
H4002 C4014 0.950 . S
H4003 C4015 0.950 . S
C4004 H3996 0.950 . S
C4004 C4005 1.386 . S
C4004 C4006 1.391 . S
C4005 C4004 1.386 . S
C4005 C4009 1.393 . S
C4006 H3998 0.950 . S
C4006 C4004 1.391 . S
C4006 C4007 1.400 . S
C4007 C4006 1.400 . S
C4007 C4008 1.398 . S
C4007 C4013 1.491 . S
C4008 H3999 0.950 . S
C4008 C4007 1.398 . S
C4008 C4009 1.391 . S
C4009 H3997 0.950 . S
C4009 C4005 1.393 . S
C4009 C4008 1.391 . S
C4010 H4000 0.950 . S
C4010 C4011 1.386 . S
C4010 C4012 1.391 . S
C4011 C4010 1.386 . S
C4011 C4015 1.393 . S
C4012 H4001 0.950 . S
C4012 C4010 1.391 . S
C4012 C4013 1.400 . S
C4013 C4007 1.491 . S
C4013 C4012 1.400 . S
C4013 C4014 1.398 . S
C4014 H4002 0.950 . S
C4014 C4013 1.398 . S
C4014 C4015 1.391 . S
C4015 H4003 0.950 . S
C4015 C4011 1.393 . S
C4015 C4014 1.391 . S
H4016 C4024 0.950 . S
H4017 C4029 0.950 . S
H4018 C4026 0.950 . S
H4019 C4028 0.950 . S
H4020 C4030 0.950 . S
H4021 C4032 0.950 . S
H4022 C4034 0.950 . S
H4023 C4035 0.950 . S
C4024 H4016 0.950 . S
C4024 C4025 1.386 . S
C4024 C4026 1.391 . S
C4025 C4024 1.386 . S
C4025 C4029 1.393 . S
C4026 H4018 0.950 . S
C4026 C4024 1.391 . S
C4026 C4027 1.400 . S
C4027 C4026 1.400 . S
C4027 C4028 1.398 . S
C4027 C4033 1.491 . S
C4028 H4019 0.950 . S
C4028 C4027 1.398 . S
C4028 C4029 1.391 . S
C4029 H4017 0.950 . S
C4029 C4025 1.393 . S
C4029 C4028 1.391 . S
C4030 H4020 0.950 . S
C4030 C4031 1.386 . S
C4030 C4032 1.391 . S
C4031 C4030 1.386 . S
C4031 C4035 1.393 . S
C4032 H4021 0.950 . S
C4032 C4030 1.391 . S
C4032 C4033 1.400 . S
C4033 C4027 1.491 . S
C4033 C4032 1.400 . S
C4033 C4034 1.398 . S
C4034 H4022 0.950 . S
C4034 C4033 1.398 . S
C4034 C4035 1.391 . S
C4035 H4023 0.950 . S
C4035 C4031 1.393 . S
C4035 C4034 1.391 . S
H4036 C4044 0.950 . S
H4037 C4049 0.950 . S
H4038 C4046 0.950 . S
H4039 C4048 0.950 . S
H4040 C4050 0.950 . S
H4041 C4052 0.950 . S
H4042 C4054 0.950 . S
H4043 C4055 0.950 . S
C4044 H4036 0.950 . S
C4044 C4045 1.386 . S
C4044 C4046 1.391 . S
C4045 C4044 1.386 . S
C4045 C4049 1.393 . S
C4046 H4038 0.950 . S
C4046 C4044 1.391 . S
C4046 C4047 1.400 . S
C4047 C4046 1.400 . S
C4047 C4048 1.398 . S
C4047 C4053 1.491 . S
C4048 H4039 0.950 . S
C4048 C4047 1.398 . S
C4048 C4049 1.391 . S
C4049 H4037 0.950 . S
C4049 C4045 1.393 . S
C4049 C4048 1.391 . S
C4050 H4040 0.950 . S
C4050 C4051 1.386 . S
C4050 C4052 1.391 . S
C4051 C4050 1.386 . S
C4051 C4055 1.393 . S
C4052 H4041 0.950 . S
C4052 C4050 1.391 . S
C4052 C4053 1.400 . S
C4053 C4047 1.491 . S
C4053 C4052 1.400 . S
C4053 C4054 1.398 . S
C4054 H4042 0.950 . S
C4054 C4053 1.398 . S
C4054 C4055 1.391 . S
C4055 H4043 0.950 . S
C4055 C4051 1.393 . S
C4055 C4054 1.391 . S
H4056 C4064 0.950 . S
H4057 C4069 0.950 . S
H4058 C4066 0.950 . S
H4059 C4068 0.950 . S
H4060 C4070 0.950 . S
H4061 C4072 0.950 . S
H4062 C4074 0.950 . S
H4063 C4075 0.950 . S
C4064 H4056 0.950 . S
C4064 C4065 1.386 . S
C4064 C4066 1.391 . S
C4065 C4064 1.386 . S
C4065 C4069 1.393 . S
C4066 H4058 0.950 . S
C4066 C4064 1.391 . S
C4066 C4067 1.400 . S
C4067 C4066 1.400 . S
C4067 C4068 1.398 . S
C4067 C4073 1.491 . S
C4068 H4059 0.950 . S
C4068 C4067 1.398 . S
C4068 C4069 1.391 . S
C4069 H4057 0.950 . S
C4069 C4065 1.393 . S
C4069 C4068 1.391 . S
C4070 H4060 0.950 . S
C4070 C4071 1.386 . S
C4070 C4072 1.391 . S
C4071 C4070 1.386 . S
C4071 C4075 1.393 . S
C4072 H4061 0.950 . S
C4072 C4070 1.391 . S
C4072 C4073 1.400 . S
C4073 C4067 1.491 . S
C4073 C4072 1.400 . S
C4073 C4074 1.398 . S
C4074 H4062 0.950 . S
C4074 C4073 1.398 . S
C4074 C4075 1.391 . S
C4075 H4063 0.950 . S
C4075 C4071 1.393 . S
C4075 C4074 1.391 . S
H4076 C4084 0.950 . S
H4077 C4089 0.950 . S
H4078 C4086 0.950 . S
H4079 C4088 0.950 . S
H4080 C4090 0.950 . S
H4081 C4092 0.950 . S
H4082 C4094 0.950 . S
H4083 C4095 0.950 . S
C4084 H4076 0.950 . S
C4084 C4085 1.386 . S
C4084 C4086 1.391 . S
C4085 C4084 1.386 . S
C4085 C4089 1.393 . S
C4086 H4078 0.950 . S
C4086 C4084 1.391 . S
C4086 C4087 1.400 . S
C4087 C4086 1.400 . S
C4087 C4088 1.398 . S
C4087 C4093 1.491 . S
C4088 H4079 0.950 . S
C4088 C4087 1.398 . S
C4088 C4089 1.391 . S
C4089 H4077 0.950 . S
C4089 C4085 1.393 . S
C4089 C4088 1.391 . S
C4090 H4080 0.950 . S
C4090 C4091 1.386 . S
C4090 C4092 1.391 . S
C4091 C4090 1.386 . S
C4091 C4095 1.393 . S
C4092 H4081 0.950 . S
C4092 C4090 1.391 . S
C4092 C4093 1.400 . S
C4093 C4087 1.491 . S
C4093 C4092 1.400 . S
C4093 C4094 1.398 . S
C4094 H4082 0.950 . S
C4094 C4093 1.398 . S
C4094 C4095 1.391 . S
C4095 H4083 0.950 . S
C4095 C4091 1.393 . S
C4095 C4094 1.391 . S
C2825 C585 1.673 . S
C2831 C20 1.676 . S
C2845 C108 1.691 . S
C2851 C673 1.687 . S
C2865 C401 1.687 . S
C2871 C196 1.681 . S
C2885 C293 1.678 . S
C2891 C497 1.684 . S
C2905 C761 1.676 . S
C2911 C1261 1.669 . S
C2925 C1340 1.674 . S
C2931 C849 1.668 . S
C2945 C937 1.671 . S
C2951 C1085 1.666 . S
C2965 C1164 1.683 . S
C2971 C1025 1.678 . S
C2985 C1428 1.687 . S
C2991 C1993 1.681 . S
C3005 C1516 1.690 . S
C3011 C2081 1.685 . S
C3025 C1809 1.682 . S
C3031 C1604 1.676 . S
C3045 C1897 1.691 . S
C3051 C1701 1.690 . S
C3065 C2132 1.675 . S
C3071 C2660 1.682 . S
C3085 C2257 1.681 . S
C3091 C2748 1.684 . S
C3105 C2484 1.667 . S
C3111 C2345 1.667 . S
C3125 C2433 1.672 . S
C3131 C2572 1.667 . S
C3145 C49 1.677 . S
C3151 C645 1.675 . S
C3165 C372 1.675 . S
C3171 C137 1.676 . S
C3185 C469 1.675 . S
C3191 C225 1.677 . S
C3205 C321 1.675 . S
C3211 C557 1.676 . S
C3225 C733 1.669 . S
C3231 C1369 1.667 . S
C3245 C1113 1.670 . S
C3251 C821 1.672 . S
C3265 C1193 1.666 . S
C3271 C909 1.667 . S
C3285 C1289 1.665 . S
C3291 C997 1.666 . S
C3305 C1457 1.675 . S
C3311 C2053 1.675 . S
C3325 C1545 1.679 . S
C3331 C1780 1.681 . S
C3345 C1868 1.678 . S
C3351 C1633 1.675 . S
C3365 C1729 1.681 . S
C3371 C1965 1.678 . S
C3385 C2161 1.672 . S
C3391 C2777 1.670 . S
C3405 C2513 1.672 . S
C3411 C2229 1.670 . S
C3425 C2317 1.668 . S
C3431 C2601 1.666 . S
C3445 C2405 1.672 . S
C3451 C2689 1.669 . S
C3465 C2669 1.473 . S
C3471 C57 1.473 . S
C3485 C1349 1.476 . S
C3491 C145 1.470 . S
C3505 C233 1.477 . S
C3511 C2493 1.468 . S
C3525 C313 1.476 . S
C3531 C1173 1.469 . S
C3545 C381 1.473 . S
C3551 C2337 1.473 . S
C3565 C460 1.477 . S
C3571 C1017 1.468 . S
C3585 C548 1.475 . S
C3591 C2141 1.471 . S
C3605 C841 1.476 . S
C3611 C636 1.470 . S
C3625 C1956 1.471 . S
C3631 C753 1.475 . S
C3645 C929 1.476 . S
C3651 C1789 1.471 . S
C3665 C1641 1.477 . S
C3671 C1076 1.468 . S
C3685 C1465 1.472 . S
C3691 C1252 1.474 . S
C3705 C1553 1.477 . S
C3711 C2757 1.468 . S
C3725 C1721 1.472 . S
C3731 C2581 1.473 . S
C3745 C1877 1.473 . S
C3751 C2425 1.473 . S
C3765 C2249 1.468 . S
C3771 C2044 1.477 . S
C3785 C29 0.373 . S
C3791 C665 0.363 . S
C3805 C117 0.348 . S
C3811 C409 0.339 . S
C3825 C489 0.339 . S
C3831 C205 0.349 . S
C3845 C284 0.336 . S
C3851 C577 0.338 . S
C3865 C1377 0.340 . S
C3871 C724 0.330 . S
C3885 C1105 0.323 . S
C3891 C812 0.328 . S
C3905 C900 0.360 . S
C3911 C1201 0.362 . S
C3925 C1281 0.326 . S
C3931 C988 0.323 . S
C3945 C2073 0.336 . S
C3951 C1437 0.339 . S
C3965 C1817 0.373 . S
C3971 C1525 0.378 . S
C3985 C1905 0.375 . S
C3991 C1613 0.366 . S
C4005 C1985 0.362 . S
C4011 C1692 0.349 . S
C4025 C2169 0.360 . S
C4031 C2785 0.362 . S
C4045 C2220 0.361 . S
C4051 C2521 0.357 . S
C4065 C2308 0.335 . S
C4071 C2609 0.327 . S
C4085 C2697 0.328 . S
C4091 C2396 0.336 . S
