# Generated by pormake.
# Topology uog, (4)-cn, num edge types: 1
# Building blocks:
#     Node 0, Type 0, BuildingBlock: MUDLON_clean_sbu_0, # of connection points: 4
#     Node 1, Type 0, BuildingBlock: MUDLON_clean_sbu_0, # of connection points: 4
#     Node 2, Type 0, BuildingBlock: MUDLON_clean_sbu_0, # of connection points: 4
#     Node 3, Type 0, BuildingBlock: MUDLON_clean_sbu_0, # of connection points: 4
#     Node 4, Type 0, BuildingBlock: MUDLON_clean_sbu_0, # of connection points: 4
#     Node 5, Type 0, BuildingBlock: MUDLON_clean_sbu_0, # of connection points: 4
#     Edge 6, Type (0, 0), BuildingBlock: KIFKEQ_clean_linker_1, # of connection points: 2
#     Edge 7, Type (0, 0), BuildingBlock: KIFKEQ_clean_linker_1, # of connection points: 2
#     Edge 8, Type (0, 0), BuildingBlock: KIFKEQ_clean_linker_1, # of connection points: 2
#     Edge 9, Type (0, 0), BuildingBlock: KIFKEQ_clean_linker_1, # of connection points: 2
#     Edge 10, Type (0, 0), BuildingBlock: KIFKEQ_clean_linker_1, # of connection points: 2
#     Edge 11, Type (0, 0), BuildingBlock: KIFKEQ_clean_linker_1, # of connection points: 2
#     Edge 12, Type (0, 0), BuildingBlock: KIFKEQ_clean_linker_1, # of connection points: 2
#     Edge 13, Type (0, 0), BuildingBlock: KIFKEQ_clean_linker_1, # of connection points: 2
#     Edge 14, Type (0, 0), BuildingBlock: KIFKEQ_clean_linker_1, # of connection points: 2
#     Edge 15, Type (0, 0), BuildingBlock: KIFKEQ_clean_linker_1, # of connection points: 2
#     Edge 16, Type (0, 0), BuildingBlock: KIFKEQ_clean_linker_1, # of connection points: 2
#     Edge 17, Type (0, 0), BuildingBlock: KIFKEQ_clean_linker_1, # of connection points: 2
# Relax obj value: 0.035
# Max RMSD: 0.253
# Mean RMSD: 0.253
data_MOF--net-uog--node1-MUDLON_clean_sbu_0--edge1-KIFKEQ_clean_linker_1
_symmetry_space_group_name_H-M    P1
_symmetry_Int_Tables_number       1
_symmetry_cell_setting            triclinic
loop_
_symmetry_equiv_pos_as_xyz
'x, y, z'
_cell_length_a     30.28898
_cell_length_b     30.29656
_cell_length_c     45.222665
_cell_angle_alpha  90.494664
_cell_angle_beta   90.682753
_cell_angle_gamma 119.97482
loop_
_atom_site_label
_atom_site_type_symbol
_atom_site_fract_x
_atom_site_fract_y
_atom_site_fract_z
_atom_type_partial_charge
Mg0 Mg 0.5946 0.29146 0.19325 0.0
C1 C 0.61024 0.30557 0.12999 0.0
O2 O 0.5606 0.28325 0.13302 0.0
C3 C 0.61256 0.28852 0.25631 0.0
O4 O 0.56432 0.25413 0.25199 0.0
C5 C 0.58173 0.18954 0.19005 0.0
O6 O 0.63129 0.22066 0.19033 0.0
O7 O 0.55263 0.2086 0.19106 0.0
O8 O 0.63819 0.31546 0.15309 0.0
O9 O 0.55058 0.33035 0.19494 0.0
C10 C 0.57476 0.37642 0.18657 0.0
O11 O 0.62149 0.39484 0.17713 0.0
O12 O 0.63879 0.31225 0.23411 0.0
Mg13 Mg 0.31434 0.6096 0.52114 0.0
C14 C 0.30315 0.65721 0.46421 0.0
O15 O 0.25684 0.64036 0.47388 0.0
C16 C 0.33413 0.62332 0.5843 0.0
O17 O 0.31518 0.57438 0.5789 0.0
C18 C 0.40022 0.5924 0.51503 0.0
O19 O 0.41937 0.64156 0.51128 0.0
O20 O 0.35264 0.56511 0.51953 0.0
O21 O 0.33543 0.6529 0.48038 0.0
O22 O 0.23148 0.56692 0.5234 0.0
C23 C 0.21183 0.59307 0.53248 0.0
O24 O 0.24232 0.64101 0.54018 0.0
O25 O 0.34049 0.65231 0.56261 0.0
Mg26 Mg 0.73543 0.30934 0.86078 0.0
C27 C 0.71883 0.30882 0.79758 0.0
O28 O 0.73998 0.28047 0.80137 0.0
C29 C 0.73899 0.32916 0.92403 0.0
O30 O 0.77325 0.31524 0.92006 0.0
C31 C 0.83711 0.39826 0.85858 0.0
O32 O 0.8059 0.4166 0.85866 0.0
O33 O 0.81819 0.35016 0.85946 0.0
O34 O 0.71033 0.32835 0.82027 0.0
O35 O 0.6965 0.2266 0.86134 0.0
C36 C 0.64867 0.20631 0.85673 0.0
O37 O 0.6296 0.23628 0.85208 0.0
O38 O 0.71519 0.33227 0.90151 0.0
Mg39 Mg 0.41935 0.70405 0.1915 0.0
C40 C 0.37789 0.64863 0.13213 0.0
O41 O 0.40086 0.62388 0.14087 0.0
C42 C 0.36785 0.71574 0.24636 0.0
O43 O 0.38217 0.76071 0.23524 0.0
C44 C 0.44272 0.80885 0.17815 0.0
O45 O 0.3977 0.78026 0.16558 0.0
O46 O 0.46426 0.78712 0.19099 0.0
O47 O 0.37656 0.68113 0.14958 0.0
O48 O 0.46253 0.66429 0.19462 0.0
C49 C 0.4359 0.61777 0.20189 0.0
O50 O 0.38744 0.59967 0.20754 0.0
O51 O 0.37481 0.68383 0.23162 0.0
Mg52 Mg 0.72649 0.43453 0.52779 0.0
C53 C 0.72337 0.41812 0.46432 0.0
O54 O 0.75048 0.46779 0.46824 0.0
C55 C 0.70496 0.41787 0.59053 0.0
O56 O 0.71918 0.46612 0.58684 0.0
C57 C 0.63958 0.4502 0.51938 0.0
O58 O 0.6211 0.40125 0.5143 0.0
O59 O 0.68682 0.47768 0.52584 0.0
O60 O 0.70606 0.3903 0.48693 0.0
O61 O 0.80947 0.47781 0.52995 0.0
C62 C 0.83095 0.45361 0.52049 0.0
O63 O 0.80226 0.40701 0.51 0.0
O64 O 0.70259 0.39121 0.56804 0.0
Mg65 Mg 0.3222 0.72232 0.86008 0.0
C66 C 0.33591 0.7252 0.79653 0.0
O67 O 0.31665 0.75484 0.80187 0.0
C68 C 0.31643 0.65975 0.91383 0.0
O69 O 0.27295 0.62632 0.90122 0.0
C70 C 0.21684 0.64013 0.84644 0.0
O71 O 0.24482 0.62378 0.83361 0.0
O72 O 0.23916 0.68354 0.85947 0.0
O73 O 0.34436 0.70385 0.81826 0.0
O74 O 0.36189 0.80515 0.86185 0.0
C75 C 0.4094 0.82503 0.85718 0.0
O76 O 0.42787 0.79466 0.85204 0.0
O77 O 0.3458 0.70055 0.90034 0.0
H78 H 0.48167 0.11296 0.19078 0.0
H79 H 0.63551 0.13969 0.18601 0.0
H80 H 0.44898 0.02114 0.18839 0.0
H81 H 0.60292 0.04837 0.18297 0.0
H82 H 0.52873 0.88012 0.20832 0.0
H83 H 0.56178 0.97193 0.21197 0.0
H84 H 0.44039 0.95604 0.15372 0.0
H85 H 0.40691 0.8646 0.15057 0.0
C86 C 0.50847 0.0993 0.18912 0.0
C87 C 0.56116 0.1337 0.18857 0.0
C88 C 0.48977 0.04668 0.1876 0.0
C89 C 0.52334 0.02731 0.18546 0.0
C90 C 0.576 0.06183 0.18502 0.0
C91 C 0.59466 0.11431 0.18657 0.0
C92 C 0.5093 0.89631 0.19619 0.0
C93 C 0.46516 0.86497 0.1792 0.0
C94 C 0.52828 0.94896 0.19822 0.0
C95 C 0.50356 0.9714 0.18327 0.0
C96 C 0.45985 0.94001 0.16597 0.0
C97 C 0.44089 0.88753 0.16399 0.0
H98 H 0.50044 0.64011 0.50053 0.0
H99 H 0.37767 0.49553 0.52946 0.0
H100 H 0.558 0.60606 0.50125 0.0
H101 H 0.43587 0.46168 0.53099 0.0
H102 H 0.54019 0.40225 0.5009 0.0
H103 H 0.48241 0.43606 0.49946 0.0
H104 H 0.60227 0.58011 0.53472 0.0
H105 H 0.6607 0.54654 0.53537 0.0
C106 C 0.48572 0.60102 0.50717 0.0
C107 C 0.43438 0.57051 0.51493 0.0
C108 C 0.51894 0.5816 0.50779 0.0
C109 C 0.50179 0.53119 0.51633 0.0
C110 C 0.45029 0.50051 0.52395 0.0
C111 C 0.41691 0.51992 0.52319 0.0
C112 C 0.55435 0.44121 0.50831 0.0
C113 C 0.60514 0.47174 0.51823 0.0
C114 C 0.521 0.46048 0.50768 0.0
C115 C 0.53748 0.51076 0.51708 0.0
C116 C 0.58841 0.5414 0.52695 0.0
C117 C 0.6219 0.52214 0.52745 0.0
H118 H 0.91384 0.37489 0.85928 0.0
H119 H 0.88657 0.50175 0.85485 0.0
H120 H 1.00551 0.43402 0.85685 0.0
H121 H 0.97768 0.56044 0.85176 0.0
H122 H 0.14742 0.65521 0.87689 0.0
H123 H 0.05592 0.59635 0.8807 0.0
H124 H 0.06832 0.48981 0.8221 0.0
H125 H 0.15955 0.54791 0.8188 0.0
C126 C 0.92735 0.41531 0.85771 0.0
C127 C 0.89285 0.43353 0.85724 0.0
C128 C 0.97986 0.44921 0.85616 0.0
C129 C 0.99901 0.50205 0.85407 0.0
C130 C 0.9644 0.52014 0.85376 0.0
C131 C 0.91204 0.48633 0.85534 0.0
C132 C 0.13053 0.61933 0.86472 0.0
C133 C 0.16083 0.60628 0.84758 0.0
C134 C 0.07806 0.58561 0.86684 0.0
C135 C 0.05476 0.53816 0.85182 0.0
C136 C 0.08508 0.52555 0.83439 0.0
C137 C 0.13742 0.55915 0.83232 0.0
H138 H 0.13612 0.49318 0.52632 0.0
H139 H 0.16118 0.64582 0.53731 0.0
H140 H 0.04425 0.45989 0.52459 0.0
H141 H 0.06997 0.61317 0.53422 0.0
H142 H 0.90078 0.53516 0.55409 0.0
H143 H 0.99233 0.56757 0.5586 0.0
H144 H 0.97899 0.45532 0.49394 0.0
H145 H 0.88757 0.42177 0.49057 0.0
C146 C 0.12201 0.51962 0.52823 0.0
C147 C 0.15594 0.57208 0.53199 0.0
C148 C 0.06931 0.50065 0.52703 0.0
C149 C 0.04938 0.5338 0.52914 0.0
C150 C 0.08357 0.58628 0.53303 0.0
C151 C 0.13608 0.60509 0.53462 0.0
C152 C 0.91757 0.51763 0.54081 0.0
C153 C 0.88696 0.47587 0.52205 0.0
C154 C 0.97012 0.53626 0.54329 0.0
C155 C 0.99334 0.51397 0.52674 0.0
C156 C 0.96256 0.47277 0.50758 0.0
C157 C 0.91007 0.45378 0.50542 0.0
H158 H 0.50922 0.87666 0.84185 0.0
H159 H 0.38801 0.89998 0.87306 0.0
H160 H 0.56683 0.96818 0.84192 0.0
H161 H 0.44635 0.99197 0.87402 0.0
H162 H 0.54797 0.15351 0.84119 0.0
H163 H 0.49044 0.06199 0.84157 0.0
H164 H 0.61316 0.04058 0.87399 0.0
H165 H 0.67134 0.13251 0.87272 0.0
C166 C 0.4949 0.90134 0.84893 0.0
C167 C 0.44393 0.88097 0.85742 0.0
C168 C 0.52816 0.95394 0.84918 0.0
C169 C 0.51144 0.98762 0.85808 0.0
C170 C 0.4604 0.96722 0.86666 0.0
C171 C 0.42697 0.91447 0.86625 0.0
C172 C 0.5628 0.12934 0.84839 0.0
C173 C 0.61433 0.15035 0.8569 0.0
C174 C 0.5296 0.07677 0.84882 0.0
C175 C 0.54695 0.04375 0.85794 0.0
C176 C 0.59858 0.06478 0.86647 0.0
C177 C 0.63194 0.1175 0.86587 0.0
H178 H 0.3829 0.51417 0.2035 0.0
H179 H 0.53596 0.64206 0.1983 0.0
H180 H 0.41542 0.45568 0.19962 0.0
H181 H 0.56908 0.5834 0.19576 0.0
H182 H 0.60736 0.46686 0.15926 0.0
H183 H 0.57406 0.52476 0.16359 0.0
H184 H 0.46032 0.42173 0.224 0.0
H185 H 0.49254 0.36267 0.21854 0.0
C186 C 0.42369 0.52987 0.20194 0.0
C187 C 0.45686 0.58285 0.20115 0.0
C188 C 0.44242 0.49619 0.19989 0.0
C189 C 0.49497 0.51455 0.19734 0.0
C190 C 0.52828 0.56771 0.19712 0.0
C191 C 0.5094 0.60145 0.1988 0.0
C192 C 0.57506 0.45643 0.17337 0.0
C193 C 0.55252 0.41012 0.18853 0.0
C194 C 0.55622 0.48994 0.17609 0.0
C195 C 0.51468 0.47838 0.19436 0.0
C196 C 0.49192 0.43176 0.20941 0.0
C197 C 0.51043 0.39786 0.20637 0.0
H198 H 0.77883 0.3179 0.97581 0.0
H199 H 0.66828 0.35533 0.94098 0.0
H200 H 0.75064 0.31936 0.02563 0.0
H201 H 0.641 0.35838 0.99119 0.0
H202 H 0.55887 0.28287 0.07721 0.0
H203 H 0.59362 0.2966 0.02791 0.0
H204 H 0.74625 0.36964 0.06549 0.0
H205 H 0.71117 0.35445 0.11515 0.0
C206 C 0.74902 0.32729 0.97881 0.0
C207 C 0.72539 0.33595 0.95437 0.0
C208 C 0.73311 0.32852 1.00749 0.0
C209 C 0.69333 0.3387 1.01246 0.0
C210 C 0.67117 0.34955 0.98809 0.0
C211 C 0.68697 0.3481 0.95933 0.0
C212 C 0.59989 0.30215 0.07503 0.0
C213 C 0.63225 0.31717 0.10013 0.0
C214 C 0.61986 0.31045 0.04667 0.0
C215 C 0.67276 0.33424 0.04267 0.0
C216 C 0.70527 0.35059 0.06779 0.0
C217 C 0.68522 0.34206 0.09624 0.0
H218 H 0.34115 0.77072 0.28297 0.0
H219 H 0.36062 0.63879 0.28076 0.0
H220 H 0.32587 0.76001 0.33614 0.0
H221 H 0.34578 0.62856 0.33378 0.0
H222 H 0.38372 0.6678 0.43213 0.0
H223 H 0.39641 0.68204 0.37912 0.0
H224 H 0.2612 0.69519 0.37238 0.0
H225 H 0.24806 0.68056 0.42548 0.0
C226 C 0.3416 0.73915 0.29373 0.0
C227 C 0.35224 0.7057 0.27763 0.0
C228 C 0.33286 0.73306 0.32414 0.0
C229 C 0.33534 0.69389 0.3391 0.0
C230 C 0.34445 0.65959 0.32287 0.0
C231 C 0.35247 0.6652 0.29244 0.0
C232 C 0.35704 0.67442 0.41948 0.0
C233 C 0.31474 0.67282 0.43301 0.0
C234 C 0.36409 0.68211 0.38908 0.0
C235 C 0.32942 0.68907 0.37162 0.0
C236 C 0.28847 0.68991 0.38533 0.0
C237 C 0.28099 0.6815 0.4157 0.0
H238 H 0.67227 0.36286 0.78095 0.0
H239 H 0.74092 0.27871 0.74568 0.0
H240 H 0.65911 0.38368 0.73071 0.0
H241 H 0.72937 0.30072 0.69588 0.0
H242 H 0.67603 0.32023 0.60691 0.0
H243 H 0.67003 0.28881 0.65709 0.0
H244 H 0.71113 0.43783 0.69233 0.0
H245 H 0.71542 0.46855 0.64249 0.0
C246 C 0.6844 0.34871 0.7625 0.0
C247 C 0.70793 0.31943 0.76732 0.0
C248 C 0.67706 0.36078 0.73373 0.0
C249 C 0.69332 0.34401 0.70921 0.0
C250 C 0.71561 0.31362 0.71412 0.0
C251 C 0.72267 0.30136 0.74278 0.0
C252 C 0.68311 0.34602 0.62541 0.0
C253 C 0.69665 0.39698 0.6207 0.0
C254 C 0.67995 0.32813 0.65417 0.0
C255 C 0.69052 0.3609 0.67879 0.0
C256 C 0.70212 0.41131 0.67399 0.0
C257 C 0.705 0.42907 0.64531 0.0
H258 H 0.38795 0.73252 0.95102 0.0
H259 H 0.26792 0.57482 0.9479 0.0
H260 H 0.3985 0.72651 1.00411 0.0
H261 H 0.27901 0.56889 1.00116 0.0
H262 H 0.36323 0.57532 0.09129 0.0
H263 H 0.34769 0.57529 0.0381 0.0
H264 H 0.34196 0.71405 0.04868 0.0
H265 H 0.3571 0.71407 0.10185 0.0
C266 C 0.36426 0.69636 0.96156 0.0
C267 C 0.32699 0.65415 0.94522 0.0
C268 C 0.37001 0.69312 0.99202 0.0
C269 C 0.33913 0.64743 1.00677 0.0
C270 C 0.30327 0.60458 0.99031 0.0
C271 C 0.29698 0.60801 0.95986 0.0
C272 C 0.35792 0.60543 0.08233 0.0
C273 C 0.36157 0.6448 0.10077 0.0
C274 C 0.34897 0.60533 0.0519 0.0
C275 C 0.34425 0.64498 0.03928 0.0
C276 C 0.34617 0.68339 0.05782 0.0
C277 C 0.35438 0.68312 0.08829 0.0
H278 H 0.67124 0.31713 0.44758 0.0
H279 H 0.75048 0.46921 0.41249 0.0
H280 H 0.65005 0.2818 0.39727 0.0
H281 H 0.72817 0.43423 0.36256 0.0
H282 H 0.70989 0.35933 0.27401 0.0
H283 H 0.74169 0.38677 0.32458 0.0
H284 H 0.59413 0.27716 0.35785 0.0
H285 H 0.56302 0.24883 0.30764 0.0
C286 C 0.68422 0.34298 0.42916 0.0
C287 C 0.71224 0.39595 0.43404 0.0
C288 C 0.67195 0.32279 0.40035 0.0
C289 C 0.68731 0.35518 0.37584 0.0
C290 C 0.71639 0.40808 0.38082 0.0
C291 C 0.7288 0.42819 0.40954 0.0
C292 C 0.68452 0.34068 0.29216 0.0
C293 C 0.63382 0.30224 0.28679 0.0
C294 C 0.70262 0.35657 0.32114 0.0
C295 C 0.67033 0.33446 0.3453 0.0
C296 C 0.62026 0.29465 0.33986 0.0
C297 C 0.60228 0.27866 0.31098 0.0
H298 H 0.3749 0.66596 0.77652 0.0
H299 H 0.31609 0.76198 0.74647 0.0
H300 H 0.38374 0.64629 0.72515 0.0
H301 H 0.32339 0.74125 0.6955 0.0
H302 H 0.36997 0.72138 0.60466 0.0
H303 H 0.37939 0.75048 0.65614 0.0
H304 H 0.32777 0.597 0.68519 0.0
H305 H 0.31994 0.56849 0.63416 0.0
C306 C 0.36405 0.68299 0.75899 0.0
C307 C 0.34448 0.71523 0.76561 0.0
C308 C 0.36889 0.67158 0.72955 0.0
C309 C 0.35408 0.69202 0.70612 0.0
C310 C 0.33589 0.72539 0.71286 0.0
C311 C 0.33127 0.73692 0.7422 0.0
C312 C 0.36126 0.69408 0.62209 0.0
C313 C 0.34386 0.64258 0.61528 0.0
C314 C 0.36639 0.71065 0.65159 0.0
C315 C 0.35408 0.67604 0.67488 0.0
C316 C 0.33829 0.62492 0.66795 0.0
C317 C 0.33337 0.60845 0.63856 0.0
loop_
_geom_bond_atom_site_label_1
_geom_bond_atom_site_label_2
_geom_bond_distance
_geom_bond_site_symmetry_2
_ccdc_geom_bond_type
Mg0 O7 2.141 . S
Mg0 O8 2.048 . S
Mg0 O9 2.048 . S
Mg0 O12 2.141 . S
C1 O2 1.313 . S
C1 O8 1.195 . S
O2 C1 1.313 . S
C3 O4 1.245 . S
C3 O12 1.289 . S
O4 C3 1.245 . S
C5 O6 1.245 . S
C5 O7 1.289 . S
O6 C5 1.245 . S
O7 Mg0 2.141 . S
O7 C5 1.289 . S
O8 Mg0 2.048 . S
O8 C1 1.195 . S
O9 Mg0 2.048 . S
O9 C10 1.195 . S
C10 O9 1.195 . S
C10 O11 1.313 . S
O11 C10 1.313 . S
O12 Mg0 2.141 . S
O12 C3 1.289 . S
Mg13 O20 2.141 . S
Mg13 O21 2.048 . S
Mg13 O22 2.048 . S
Mg13 O25 2.141 . S
C14 O15 1.313 . S
C14 O21 1.195 . S
O15 C14 1.313 . S
C16 O17 1.245 . S
C16 O25 1.289 . S
O17 C16 1.245 . S
C18 O19 1.245 . S
C18 O20 1.289 . S
O19 C18 1.245 . S
O20 Mg13 2.141 . S
O20 C18 1.289 . S
O21 Mg13 2.048 . S
O21 C14 1.195 . S
O22 Mg13 2.048 . S
O22 C23 1.195 . S
C23 O22 1.195 . S
C23 O24 1.313 . S
O24 C23 1.313 . S
O25 Mg13 2.141 . S
O25 C16 1.289 . S
Mg26 O33 2.141 . S
Mg26 O34 2.048 . S
Mg26 O35 2.048 . S
Mg26 O38 2.141 . S
C27 O28 1.313 . S
C27 O34 1.195 . S
O28 C27 1.313 . S
C29 O30 1.245 . S
C29 O38 1.289 . S
O30 C29 1.245 . S
C31 O32 1.245 . S
C31 O33 1.289 . S
O32 C31 1.245 . S
O33 Mg26 2.141 . S
O33 C31 1.289 . S
O34 Mg26 2.048 . S
O34 C27 1.195 . S
O35 Mg26 2.048 . S
O35 C36 1.195 . S
C36 O35 1.195 . S
C36 O37 1.313 . S
O37 C36 1.313 . S
O38 Mg26 2.141 . S
O38 C29 1.289 . S
Mg39 O46 2.141 . S
Mg39 O47 2.048 . S
Mg39 O48 2.048 . S
Mg39 O51 2.141 . S
C40 O41 1.313 . S
C40 O47 1.195 . S
O41 C40 1.313 . S
C42 O43 1.245 . S
C42 O51 1.289 . S
O43 C42 1.245 . S
C44 O45 1.245 . S
C44 O46 1.289 . S
O45 C44 1.245 . S
O46 Mg39 2.141 . S
O46 C44 1.289 . S
O47 Mg39 2.048 . S
O47 C40 1.195 . S
O48 Mg39 2.048 . S
O48 C49 1.195 . S
C49 O48 1.195 . S
C49 O50 1.313 . S
O50 C49 1.313 . S
O51 Mg39 2.141 . S
O51 C42 1.289 . S
Mg52 O59 2.141 . S
Mg52 O60 2.048 . S
Mg52 O61 2.048 . S
Mg52 O64 2.141 . S
C53 O54 1.313 . S
C53 O60 1.195 . S
O54 C53 1.313 . S
C55 O56 1.245 . S
C55 O64 1.289 . S
O56 C55 1.245 . S
C57 O58 1.245 . S
C57 O59 1.289 . S
O58 C57 1.245 . S
O59 Mg52 2.141 . S
O59 C57 1.289 . S
O60 Mg52 2.048 . S
O60 C53 1.195 . S
O61 Mg52 2.048 . S
O61 C62 1.195 . S
C62 O61 1.195 . S
C62 O63 1.313 . S
O63 C62 1.313 . S
O64 Mg52 2.141 . S
O64 C55 1.289 . S
Mg65 O72 2.141 . S
Mg65 O73 2.048 . S
Mg65 O74 2.048 . S
Mg65 O77 2.141 . S
C66 O67 1.313 . S
C66 O73 1.195 . S
O67 C66 1.313 . S
C68 O69 1.245 . S
C68 O77 1.289 . S
O69 C68 1.245 . S
C70 O71 1.245 . S
C70 O72 1.289 . S
O71 C70 1.245 . S
O72 Mg65 2.141 . S
O72 C70 1.289 . S
O73 Mg65 2.048 . S
O73 C66 1.195 . S
O74 Mg65 2.048 . S
O74 C75 1.195 . S
C75 O74 1.195 . S
C75 O76 1.313 . S
O76 C75 1.313 . S
O77 Mg65 2.141 . S
O77 C68 1.289 . S
H78 C86 0.950 . S
H79 C91 0.950 . S
H80 C88 0.950 . S
H81 C90 0.950 . S
H82 C92 0.950 . S
H83 C94 0.950 . S
H84 C96 0.950 . S
H85 C97 0.950 . S
C86 H78 0.950 . S
C86 C87 1.386 . S
C86 C88 1.391 . S
C87 C86 1.386 . S
C87 C91 1.393 . S
C88 H80 0.950 . S
C88 C86 1.391 . S
C88 C89 1.400 . S
C89 C88 1.400 . S
C89 C90 1.398 . S
C89 C95 1.491 1_545 S
C90 H81 0.950 . S
C90 C89 1.398 . S
C90 C91 1.391 . S
C91 H79 0.950 . S
C91 C87 1.393 . S
C91 C90 1.391 . S
C92 H82 0.950 . S
C92 C93 1.386 . S
C92 C94 1.391 . S
C93 C92 1.386 . S
C93 C97 1.393 . S
C94 H83 0.950 . S
C94 C92 1.391 . S
C94 C95 1.400 . S
C95 C89 1.491 1_565 S
C95 C94 1.400 . S
C95 C96 1.398 . S
C96 H84 0.950 . S
C96 C95 1.398 . S
C96 C97 1.391 . S
C97 H85 0.950 . S
C97 C93 1.393 . S
C97 C96 1.391 . S
H98 C106 0.950 . S
H99 C111 0.950 . S
H100 C108 0.950 . S
H101 C110 0.950 . S
H102 C112 0.950 . S
H103 C114 0.950 . S
H104 C116 0.950 . S
H105 C117 0.950 . S
C106 H98 0.950 . S
C106 C107 1.386 . S
C106 C108 1.391 . S
C107 C106 1.386 . S
C107 C111 1.393 . S
C108 H100 0.950 . S
C108 C106 1.391 . S
C108 C109 1.400 . S
C109 C108 1.400 . S
C109 C110 1.398 . S
C109 C115 1.491 . S
C110 H101 0.950 . S
C110 C109 1.398 . S
C110 C111 1.391 . S
C111 H99 0.950 . S
C111 C107 1.393 . S
C111 C110 1.391 . S
C112 H102 0.950 . S
C112 C113 1.386 . S
C112 C114 1.391 . S
C113 C112 1.386 . S
C113 C117 1.393 . S
C114 H103 0.950 . S
C114 C112 1.391 . S
C114 C115 1.400 . S
C115 C109 1.491 . S
C115 C114 1.400 . S
C115 C116 1.398 . S
C116 H104 0.950 . S
C116 C115 1.398 . S
C116 C117 1.391 . S
C117 H105 0.950 . S
C117 C113 1.393 . S
C117 C116 1.391 . S
H118 C126 0.950 . S
H119 C131 0.950 . S
H120 C128 0.950 . S
H121 C130 0.950 . S
H122 C132 0.950 . S
H123 C134 0.950 . S
H124 C136 0.950 . S
H125 C137 0.950 . S
C126 H118 0.950 . S
C126 C127 1.386 . S
C126 C128 1.391 . S
C127 C126 1.386 . S
C127 C131 1.393 . S
C128 H120 0.950 . S
C128 C126 1.391 . S
C128 C129 1.400 . S
C129 C128 1.400 . S
C129 C130 1.398 . S
C129 C135 1.491 1_655 S
C130 H121 0.950 . S
C130 C129 1.398 . S
C130 C131 1.391 . S
C131 H119 0.950 . S
C131 C127 1.393 . S
C131 C130 1.391 . S
C132 H122 0.950 . S
C132 C133 1.386 . S
C132 C134 1.391 . S
C133 C132 1.386 . S
C133 C137 1.393 . S
C134 H123 0.950 . S
C134 C132 1.391 . S
C134 C135 1.400 . S
C135 C129 1.491 1_455 S
C135 C134 1.400 . S
C135 C136 1.398 . S
C136 H124 0.950 . S
C136 C135 1.398 . S
C136 C137 1.391 . S
C137 H125 0.950 . S
C137 C133 1.393 . S
C137 C136 1.391 . S
H138 C146 0.950 . S
H139 C151 0.950 . S
H140 C148 0.950 . S
H141 C150 0.950 . S
H142 C152 0.950 . S
H143 C154 0.950 . S
H144 C156 0.950 . S
H145 C157 0.950 . S
C146 H138 0.950 . S
C146 C147 1.386 . S
C146 C148 1.391 . S
C147 C146 1.386 . S
C147 C151 1.393 . S
C148 H140 0.950 . S
C148 C146 1.391 . S
C148 C149 1.400 . S
C149 C148 1.400 . S
C149 C150 1.398 . S
C149 C155 1.491 1_455 S
C150 H141 0.950 . S
C150 C149 1.398 . S
C150 C151 1.391 . S
C151 H139 0.950 . S
C151 C147 1.393 . S
C151 C150 1.391 . S
C152 H142 0.950 . S
C152 C153 1.386 . S
C152 C154 1.391 . S
C153 C152 1.386 . S
C153 C157 1.393 . S
C154 H143 0.950 . S
C154 C152 1.391 . S
C154 C155 1.400 . S
C155 C149 1.491 1_655 S
C155 C154 1.400 . S
C155 C156 1.398 . S
C156 H144 0.950 . S
C156 C155 1.398 . S
C156 C157 1.391 . S
C157 H145 0.950 . S
C157 C153 1.393 . S
C157 C156 1.391 . S
H158 C166 0.950 . S
H159 C171 0.950 . S
H160 C168 0.950 . S
H161 C170 0.950 . S
H162 C172 0.950 . S
H163 C174 0.950 . S
H164 C176 0.950 . S
H165 C177 0.950 . S
C166 H158 0.950 . S
C166 C167 1.386 . S
C166 C168 1.391 . S
C167 C166 1.386 . S
C167 C171 1.393 . S
C168 H160 0.950 . S
C168 C166 1.391 . S
C168 C169 1.400 . S
C169 C168 1.400 . S
C169 C170 1.398 . S
C169 C175 1.491 1_565 S
C170 H161 0.950 . S
C170 C169 1.398 . S
C170 C171 1.391 . S
C171 H159 0.950 . S
C171 C167 1.393 . S
C171 C170 1.391 . S
C172 H162 0.950 . S
C172 C173 1.386 . S
C172 C174 1.391 . S
C173 C172 1.386 . S
C173 C177 1.393 . S
C174 H163 0.950 . S
C174 C172 1.391 . S
C174 C175 1.400 . S
C175 C169 1.491 1_545 S
C175 C174 1.400 . S
C175 C176 1.398 . S
C176 H164 0.950 . S
C176 C175 1.398 . S
C176 C177 1.391 . S
C177 H165 0.950 . S
C177 C173 1.393 . S
C177 C176 1.391 . S
H178 C186 0.950 . S
H179 C191 0.950 . S
H180 C188 0.950 . S
H181 C190 0.950 . S
H182 C192 0.950 . S
H183 C194 0.950 . S
H184 C196 0.950 . S
H185 C197 0.950 . S
C186 H178 0.950 . S
C186 C187 1.386 . S
C186 C188 1.391 . S
C187 C186 1.386 . S
C187 C191 1.393 . S
C188 H180 0.950 . S
C188 C186 1.391 . S
C188 C189 1.400 . S
C189 C188 1.400 . S
C189 C190 1.398 . S
C189 C195 1.491 . S
C190 H181 0.950 . S
C190 C189 1.398 . S
C190 C191 1.391 . S
C191 H179 0.950 . S
C191 C187 1.393 . S
C191 C190 1.391 . S
C192 H182 0.950 . S
C192 C193 1.386 . S
C192 C194 1.391 . S
C193 C192 1.386 . S
C193 C197 1.393 . S
C194 H183 0.950 . S
C194 C192 1.391 . S
C194 C195 1.400 . S
C195 C189 1.491 . S
C195 C194 1.400 . S
C195 C196 1.398 . S
C196 H184 0.950 . S
C196 C195 1.398 . S
C196 C197 1.391 . S
C197 H185 0.950 . S
C197 C193 1.393 . S
C197 C196 1.391 . S
H198 C206 0.950 . S
H199 C211 0.950 . S
H200 C208 0.950 . S
H201 C210 0.950 . S
H202 C212 0.950 . S
H203 C214 0.950 . S
H204 C216 0.950 . S
H205 C217 0.950 . S
C206 H198 0.950 . S
C206 C207 1.386 . S
C206 C208 1.391 . S
C207 C206 1.386 . S
C207 C211 1.393 . S
C208 H200 0.950 . S
C208 C206 1.391 . S
C208 C209 1.400 . S
C209 C208 1.400 . S
C209 C210 1.398 . S
C209 C215 1.491 1_556 S
C210 H201 0.950 . S
C210 C209 1.398 . S
C210 C211 1.391 . S
C211 H199 0.950 . S
C211 C207 1.393 . S
C211 C210 1.391 . S
C212 H202 0.950 . S
C212 C213 1.386 . S
C212 C214 1.391 . S
C213 C212 1.386 . S
C213 C217 1.393 . S
C214 H203 0.950 . S
C214 C212 1.391 . S
C214 C215 1.400 . S
C215 C209 1.491 1_554 S
C215 C214 1.400 . S
C215 C216 1.398 . S
C216 H204 0.950 . S
C216 C215 1.398 . S
C216 C217 1.391 . S
C217 H205 0.950 . S
C217 C213 1.393 . S
C217 C216 1.391 . S
H218 C226 0.950 . S
H219 C231 0.950 . S
H220 C228 0.950 . S
H221 C230 0.950 . S
H222 C232 0.950 . S
H223 C234 0.950 . S
H224 C236 0.950 . S
H225 C237 0.950 . S
C226 H218 0.950 . S
C226 C227 1.386 . S
C226 C228 1.391 . S
C227 C226 1.386 . S
C227 C231 1.393 . S
C228 H220 0.950 . S
C228 C226 1.391 . S
C228 C229 1.400 . S
C229 C228 1.400 . S
C229 C230 1.398 . S
C229 C235 1.491 . S
C230 H221 0.950 . S
C230 C229 1.398 . S
C230 C231 1.391 . S
C231 H219 0.950 . S
C231 C227 1.393 . S
C231 C230 1.391 . S
C232 H222 0.950 . S
C232 C233 1.386 . S
C232 C234 1.391 . S
C233 C232 1.386 . S
C233 C237 1.393 . S
C234 H223 0.950 . S
C234 C232 1.391 . S
C234 C235 1.400 . S
C235 C229 1.491 . S
C235 C234 1.400 . S
C235 C236 1.398 . S
C236 H224 0.950 . S
C236 C235 1.398 . S
C236 C237 1.391 . S
C237 H225 0.950 . S
C237 C233 1.393 . S
C237 C236 1.391 . S
H238 C246 0.950 . S
H239 C251 0.950 . S
H240 C248 0.950 . S
H241 C250 0.950 . S
H242 C252 0.950 . S
H243 C254 0.950 . S
H244 C256 0.950 . S
H245 C257 0.950 . S
C246 H238 0.950 . S
C246 C247 1.386 . S
C246 C248 1.391 . S
C247 C246 1.386 . S
C247 C251 1.393 . S
C248 H240 0.950 . S
C248 C246 1.391 . S
C248 C249 1.400 . S
C249 C248 1.400 . S
C249 C250 1.398 . S
C249 C255 1.491 . S
C250 H241 0.950 . S
C250 C249 1.398 . S
C250 C251 1.391 . S
C251 H239 0.950 . S
C251 C247 1.393 . S
C251 C250 1.391 . S
C252 H242 0.950 . S
C252 C253 1.386 . S
C252 C254 1.391 . S
C253 C252 1.386 . S
C253 C257 1.393 . S
C254 H243 0.950 . S
C254 C252 1.391 . S
C254 C255 1.400 . S
C255 C249 1.491 . S
C255 C254 1.400 . S
C255 C256 1.398 . S
C256 H244 0.950 . S
C256 C255 1.398 . S
C256 C257 1.391 . S
C257 H245 0.950 . S
C257 C253 1.393 . S
C257 C256 1.391 . S
H258 C266 0.950 . S
H259 C271 0.950 . S
H260 C268 0.950 . S
H261 C270 0.950 . S
H262 C272 0.950 . S
H263 C274 0.950 . S
H264 C276 0.950 . S
H265 C277 0.950 . S
C266 H258 0.950 . S
C266 C267 1.386 . S
C266 C268 1.391 . S
C267 C266 1.386 . S
C267 C271 1.393 . S
C268 H260 0.950 . S
C268 C266 1.391 . S
C268 C269 1.400 . S
C269 C268 1.400 . S
C269 C270 1.398 . S
C269 C275 1.491 1_556 S
C270 H261 0.950 . S
C270 C269 1.398 . S
C270 C271 1.391 . S
C271 H259 0.950 . S
C271 C267 1.393 . S
C271 C270 1.391 . S
C272 H262 0.950 . S
C272 C273 1.386 . S
C272 C274 1.391 . S
C273 C272 1.386 . S
C273 C277 1.393 . S
C274 H263 0.950 . S
C274 C272 1.391 . S
C274 C275 1.400 . S
C275 C269 1.491 1_554 S
C275 C274 1.400 . S
C275 C276 1.398 . S
C276 H264 0.950 . S
C276 C275 1.398 . S
C276 C277 1.391 . S
C277 H265 0.950 . S
C277 C273 1.393 . S
C277 C276 1.391 . S
H278 C286 0.950 . S
H279 C291 0.950 . S
H280 C288 0.950 . S
H281 C290 0.950 . S
H282 C292 0.950 . S
H283 C294 0.950 . S
H284 C296 0.950 . S
H285 C297 0.950 . S
C286 H278 0.950 . S
C286 C287 1.386 . S
C286 C288 1.391 . S
C287 C286 1.386 . S
C287 C291 1.393 . S
C288 H280 0.950 . S
C288 C286 1.391 . S
C288 C289 1.400 . S
C289 C288 1.400 . S
C289 C290 1.398 . S
C289 C295 1.491 . S
C290 H281 0.950 . S
C290 C289 1.398 . S
C290 C291 1.391 . S
C291 H279 0.950 . S
C291 C287 1.393 . S
C291 C290 1.391 . S
C292 H282 0.950 . S
C292 C293 1.386 . S
C292 C294 1.391 . S
C293 C292 1.386 . S
C293 C297 1.393 . S
C294 H283 0.950 . S
C294 C292 1.391 . S
C294 C295 1.400 . S
C295 C289 1.491 . S
C295 C294 1.400 . S
C295 C296 1.398 . S
C296 H284 0.950 . S
C296 C295 1.398 . S
C296 C297 1.391 . S
C297 H285 0.950 . S
C297 C293 1.393 . S
C297 C296 1.391 . S
H298 C306 0.950 . S
H299 C311 0.950 . S
H300 C308 0.950 . S
H301 C310 0.950 . S
H302 C312 0.950 . S
H303 C314 0.950 . S
H304 C316 0.950 . S
H305 C317 0.950 . S
C306 H298 0.950 . S
C306 C307 1.386 . S
C306 C308 1.391 . S
C307 C306 1.386 . S
C307 C311 1.393 . S
C308 H300 0.950 . S
C308 C306 1.391 . S
C308 C309 1.400 . S
C309 C308 1.400 . S
C309 C310 1.398 . S
C309 C315 1.491 . S
C310 H301 0.950 . S
C310 C309 1.398 . S
C310 C311 1.391 . S
C311 H299 0.950 . S
C311 C307 1.393 . S
C311 C310 1.391 . S
C312 H302 0.950 . S
C312 C313 1.386 . S
C312 C314 1.391 . S
C313 C312 1.386 . S
C313 C317 1.393 . S
C314 H303 0.950 . S
C314 C312 1.391 . S
C314 C315 1.400 . S
C315 C309 1.491 . S
C315 C314 1.400 . S
C315 C316 1.398 . S
C316 H304 0.950 . S
C316 C315 1.398 . S
C316 C317 1.391 . S
C317 H305 0.950 . S
C317 C313 1.393 . S
C317 C316 1.391 . S
C87 C5 1.944 . S
C93 C44 1.944 . S
C107 C18 1.938 . S
C113 C57 1.939 . S
C127 C31 1.945 . S
C133 C70 1.945 . S
C147 C23 2.023 . S
C153 C62 2.023 . S
C167 C75 2.015 . S
C173 C36 2.015 . S
C187 C49 2.020 . S
C193 C10 2.020 . S
C207 C29 1.635 . S
C213 C1 1.642 . S
C227 C42 1.620 . S
C233 C14 1.627 . S
C247 C27 1.629 . S
C253 C55 1.624 . S
C267 C68 1.629 . S
C273 C40 1.646 . S
C287 C53 1.637 . S
C293 C3 1.633 . S
C307 C66 1.638 . S
C313 C16 1.633 . S
