# Generated by pormake.
# Topology yfw, (5)-cn, num edge types: 1
# Building blocks:
#     Node 0, Type 0, BuildingBlock: XOMCOT_clean_sbu_0, # of connection points: 5
#     Node 1, Type 0, BuildingBlock: XOMCOT_clean_sbu_0, # of connection points: 5
#     Node 2, Type 0, BuildingBlock: XOMCOT_clean_sbu_0, # of connection points: 5
#     Node 3, Type 0, BuildingBlock: XOMCOT_clean_sbu_0, # of connection points: 5
#     Node 4, Type 0, BuildingBlock: XOMCOT_clean_sbu_0, # of connection points: 5
#     Node 5, Type 0, BuildingBlock: XOMCOT_clean_sbu_0, # of connection points: 5
#     Node 6, Type 0, BuildingBlock: XOMCOT_clean_sbu_0, # of connection points: 5
#     Node 7, Type 0, BuildingBlock: XOMCOT_clean_sbu_0, # of connection points: 5
#     Node 8, Type 0, BuildingBlock: XOMCOT_clean_sbu_0, # of connection points: 5
#     Node 9, Type 0, BuildingBlock: XOMCOT_clean_sbu_0, # of connection points: 5
#     Node 10, Type 0, BuildingBlock: XOMCOT_clean_sbu_0, # of connection points: 5
#     Node 11, Type 0, BuildingBlock: XOMCOT_clean_sbu_0, # of connection points: 5
#     Node 12, Type 0, BuildingBlock: XOMCOT_clean_sbu_0, # of connection points: 5
#     Node 13, Type 0, BuildingBlock: XOMCOT_clean_sbu_0, # of connection points: 5
#     Node 14, Type 0, BuildingBlock: XOMCOT_clean_sbu_0, # of connection points: 5
#     Node 15, Type 0, BuildingBlock: XOMCOT_clean_sbu_0, # of connection points: 5
#     Edge 16, Type (0, 0), BuildingBlock: AJUNOK_clean_linker_0, # of connection points: 2
#     Edge 17, Type (0, 0), BuildingBlock: AJUNOK_clean_linker_0, # of connection points: 2
#     Edge 18, Type (0, 0), BuildingBlock: AJUNOK_clean_linker_0, # of connection points: 2
#     Edge 19, Type (0, 0), BuildingBlock: AJUNOK_clean_linker_0, # of connection points: 2
#     Edge 20, Type (0, 0), BuildingBlock: AJUNOK_clean_linker_0, # of connection points: 2
#     Edge 21, Type (0, 0), BuildingBlock: AJUNOK_clean_linker_0, # of connection points: 2
#     Edge 22, Type (0, 0), BuildingBlock: AJUNOK_clean_linker_0, # of connection points: 2
#     Edge 23, Type (0, 0), BuildingBlock: AJUNOK_clean_linker_0, # of connection points: 2
#     Edge 24, Type (0, 0), BuildingBlock: AJUNOK_clean_linker_0, # of connection points: 2
#     Edge 25, Type (0, 0), BuildingBlock: AJUNOK_clean_linker_0, # of connection points: 2
#     Edge 26, Type (0, 0), BuildingBlock: AJUNOK_clean_linker_0, # of connection points: 2
#     Edge 27, Type (0, 0), BuildingBlock: AJUNOK_clean_linker_0, # of connection points: 2
#     Edge 28, Type (0, 0), BuildingBlock: AJUNOK_clean_linker_0, # of connection points: 2
#     Edge 29, Type (0, 0), BuildingBlock: AJUNOK_clean_linker_0, # of connection points: 2
#     Edge 30, Type (0, 0), BuildingBlock: AJUNOK_clean_linker_0, # of connection points: 2
#     Edge 31, Type (0, 0), BuildingBlock: AJUNOK_clean_linker_0, # of connection points: 2
#     Edge 32, Type (0, 0), BuildingBlock: AJUNOK_clean_linker_0, # of connection points: 2
#     Edge 33, Type (0, 0), BuildingBlock: AJUNOK_clean_linker_0, # of connection points: 2
#     Edge 34, Type (0, 0), BuildingBlock: AJUNOK_clean_linker_0, # of connection points: 2
#     Edge 35, Type (0, 0), BuildingBlock: AJUNOK_clean_linker_0, # of connection points: 2
#     Edge 36, Type (0, 0), BuildingBlock: AJUNOK_clean_linker_0, # of connection points: 2
#     Edge 37, Type (0, 0), BuildingBlock: AJUNOK_clean_linker_0, # of connection points: 2
#     Edge 38, Type (0, 0), BuildingBlock: AJUNOK_clean_linker_0, # of connection points: 2
#     Edge 39, Type (0, 0), BuildingBlock: AJUNOK_clean_linker_0, # of connection points: 2
#     Edge 40, Type (0, 0), BuildingBlock: AJUNOK_clean_linker_0, # of connection points: 2
#     Edge 41, Type (0, 0), BuildingBlock: AJUNOK_clean_linker_0, # of connection points: 2
#     Edge 42, Type (0, 0), BuildingBlock: AJUNOK_clean_linker_0, # of connection points: 2
#     Edge 43, Type (0, 0), BuildingBlock: AJUNOK_clean_linker_0, # of connection points: 2
#     Edge 44, Type (0, 0), BuildingBlock: AJUNOK_clean_linker_0, # of connection points: 2
#     Edge 45, Type (0, 0), BuildingBlock: AJUNOK_clean_linker_0, # of connection points: 2
#     Edge 46, Type (0, 0), BuildingBlock: AJUNOK_clean_linker_0, # of connection points: 2
#     Edge 47, Type (0, 0), BuildingBlock: AJUNOK_clean_linker_0, # of connection points: 2
#     Edge 48, Type (0, 0), BuildingBlock: AJUNOK_clean_linker_0, # of connection points: 2
#     Edge 49, Type (0, 0), BuildingBlock: AJUNOK_clean_linker_0, # of connection points: 2
#     Edge 50, Type (0, 0), BuildingBlock: AJUNOK_clean_linker_0, # of connection points: 2
#     Edge 51, Type (0, 0), BuildingBlock: AJUNOK_clean_linker_0, # of connection points: 2
#     Edge 52, Type (0, 0), BuildingBlock: AJUNOK_clean_linker_0, # of connection points: 2
#     Edge 53, Type (0, 0), BuildingBlock: AJUNOK_clean_linker_0, # of connection points: 2
#     Edge 54, Type (0, 0), BuildingBlock: AJUNOK_clean_linker_0, # of connection points: 2
#     Edge 55, Type (0, 0), BuildingBlock: AJUNOK_clean_linker_0, # of connection points: 2
# Relax obj value: 0.100
# Max RMSD: 0.156
# Mean RMSD: 0.156
data_MOF--net-yfw--node1-XOMCOT_clean_sbu_0--edge1-AJUNOK_clean_linker_0
_symmetry_space_group_name_H-M    P1
_symmetry_Int_Tables_number       1
_symmetry_cell_setting            triclinic
loop_
_symmetry_equiv_pos_as_xyz
'x, y, z'
_cell_length_a     44.422451
_cell_length_b     44.424996
_cell_length_c     18.555192
_cell_angle_alpha  90.168575
_cell_angle_beta   89.786182
_cell_angle_gamma 89.967169
loop_
_atom_site_label
_atom_site_type_symbol
_atom_site_fract_x
_atom_site_fract_y
_atom_site_fract_z
_atom_type_partial_charge
Co0 Co 0.16022 0.07714 0.9735 0.0
C1 C 0.22117 0.10182 0.94056 0.0
C2 C 0.22294 0.05981 0.99733 0.0
C3 C 0.25183 0.06846 0.98067 0.0
N4 N 0.20369 0.08077 0.97278 0.0
N5 N 0.25084 0.09502 0.94552 0.0
H6 H 0.21243 0.1213 0.91278 0.0
H7 H 0.21638 0.03895 0.02286 0.0
C8 C 0.14347 0.04499 0.11167 0.0
O9 O 0.11526 0.05339 0.10765 0.0
N10 N 0.11639 0.07364 0.97097 0.0
C11 C 0.09635 0.0964 0.96505 0.0
C12 C 0.06785 0.08467 0.95851 0.0
C13 C 0.09962 0.04827 0.96551 0.0
N14 N 0.06991 0.05449 0.95962 0.0
C15 C 0.15615 0.14206 0.97502 0.0
C16 C 0.14673 0.14839 0.12155 0.0
C17 C 0.14443 0.17395 0.078 0.0
C18 C 0.14968 0.17062 0.00377 0.0
C19 C 0.15326 0.12044 0.09093 0.0
N20 N 0.15684 0.11713 0.01809 0.0
H21 H 0.15919 0.13983 0.91751 0.0
H22 H 0.15461 0.10171 0.12697 0.0
H23 H 0.10167 0.12005 0.96466 0.0
H24 H 0.1089 0.02575 0.96708 0.0
O25 O 0.1589 0.08714 0.87152 0.0
O26 O 0.16384 0.04128 0.9171 0.0
O27 O 0.16346 0.05557 0.06915 0.0
C28 C 0.16173 0.05821 0.86071 0.0
H29 H 0.27193 0.05539 0.99078 0.0
H30 H 0.04709 0.09734 0.9547 0.0
H31 H 0.14244 0.14966 0.17898 0.0
H32 H 0.14831 0.18982 0.96809 0.0
Co33 Co 0.94763 0.65196 0.22974 0.0
C34 C 0.93529 0.71537 0.18205 0.0
C35 C 0.93791 0.71116 0.29706 0.0
C36 C 0.93145 0.74062 0.28067 0.0
N37 N 0.94073 0.69525 0.23539 0.0
N38 N 0.92995 0.74333 0.20846 0.0
H39 H 0.93502 0.70986 0.12525 0.0
H40 H 0.93949 0.70193 0.35074 0.0
C41 C 0.98377 0.63562 0.36317 0.0
O42 O 0.9836 0.60696 0.34708 0.0
N43 N 0.95319 0.60839 0.22119 0.0
C44 C 0.93091 0.58776 0.21768 0.0
C45 C 0.9432 0.55971 0.20795 0.0
C46 C 0.97871 0.59249 0.20831 0.0
N47 N 0.97331 0.56254 0.20321 0.0
C48 C 0.88263 0.65367 0.23755 0.0
C49 C 0.87792 0.62367 0.36761 0.0
C50 C 0.85154 0.63054 0.33011 0.0
C51 C 0.85398 0.64648 0.26512 0.0
C52 C 0.90586 0.63134 0.33868 0.0
N53 N 0.90812 0.64551 0.27361 0.0
H54 H 0.88445 0.66504 0.18628 0.0
H55 H 0.92559 0.62423 0.36728 0.0
H56 H 0.90711 0.59247 0.22114 0.0
H57 H 1.00081 0.60263 0.20469 0.0
O58 O 0.93819 0.6513 0.12714 0.0
O59 O 0.98347 0.65863 0.17441 0.0
O60 O 0.9682 0.65467 0.32754 0.0
C61 C 0.96706 0.65555 0.11738 0.0
H62 H 0.92724 0.75852 0.31912 0.0
H63 H 0.93089 0.5387 0.20643 0.0
H64 H 0.87699 0.61168 0.41834 0.0
H65 H 0.83405 0.6523 0.23471 0.0
Co66 Co 0.371 0.4568 0.46063 0.0
C67 C 0.30975 0.43295 0.43301 0.0
C68 C 0.30984 0.46421 0.52154 0.0
C69 C 0.28092 0.45388 0.51185 0.0
N70 N 0.32798 0.45099 0.47234 0.0
N71 N 0.28091 0.43422 0.45637 0.0
H72 H 0.31739 0.41912 0.38845 0.0
H73 H 0.31686 0.48052 0.56134 0.0
C74 C 0.39385 0.4788 0.60366 0.0
O75 O 0.41761 0.46126 0.59873 0.0
N76 N 0.41418 0.46284 0.4466 0.0
C77 C 0.43366 0.44463 0.41118 0.0
C78 C 0.46112 0.45868 0.40571 0.0
C79 C 0.43007 0.48826 0.45978 0.0
N80 N 0.45882 0.48609 0.43618 0.0
C81 C 0.38521 0.39341 0.45313 0.0
C82 C 0.37959 0.38162 0.59867 0.0
C83 C 0.39109 0.35907 0.55336 0.0
C84 C 0.39313 0.36497 0.4794 0.0
C85 C 0.3725 0.40994 0.57025 0.0
N86 N 0.37735 0.41623 0.499 0.0
H87 H 0.38604 0.39722 0.39576 0.0
H88 H 0.36325 0.4267 0.60613 0.0
H89 H 0.42854 0.42301 0.38817 0.0
H90 H 0.4207 0.50813 0.48528 0.0
O91 O 0.36765 0.44854 0.3582 0.0
O92 O 0.3639 0.49343 0.40982 0.0
O93 O 0.37275 0.47678 0.55771 0.0
C94 C 0.36432 0.47761 0.35115 0.0
H95 H 0.26122 0.46092 0.54204 0.0
H96 H 0.48133 0.44929 0.38184 0.0
H97 H 0.37699 0.37772 0.65596 0.0
H98 H 0.40099 0.34779 0.44228 0.0
Co99 Co 0.57727 0.88023 0.73921 0.0
C100 C 0.59662 0.81704 0.70463 0.0
C101 C 0.55584 0.81872 0.76638 0.0
C102 C 0.56105 0.78934 0.74654 0.0
N103 N 0.57849 0.83623 0.74183 0.0
N104 N 0.58654 0.78833 0.70712 0.0
H105 H 0.61521 0.82392 0.67107 0.0
H106 H 0.53583 0.82693 0.79336 0.0
C107 C 0.56186 0.86526 0.89082 0.0
O108 O 0.58527 0.84716 0.89141 0.0
N109 N 0.57538 0.92368 0.73404 0.0
C110 C 0.59737 0.94197 0.70998 0.0
C111 C 0.58705 0.97116 0.71164 0.0
C112 C 0.55182 0.94187 0.74905 0.0
N113 N 0.5584 0.97117 0.73621 0.0
C114 C 0.64264 0.87452 0.74522 0.0
C115 C 0.64903 0.90604 0.87286 0.0
C116 C 0.67501 0.89492 0.83897 0.0
C117 C 0.67156 0.8793 0.77357 0.0
C118 C 0.62075 0.90059 0.84317 0.0
N119 N 0.61752 0.88403 0.78141 0.0
H120 H 0.6407 0.8644 0.69269 0.0
H121 H 0.60147 0.91095 0.86866 0.0
H122 H 0.6193 0.93455 0.69169 0.0
H123 H 0.53007 0.93357 0.76621 0.0
O124 O 0.58663 0.87886 0.63712 0.0
O125 O 0.54086 0.87747 0.68523 0.0
O126 O 0.55689 0.88162 0.83592 0.0
C127 C 0.5575 0.87716 0.62778 0.0
H128 H 0.5466 0.77034 0.75808 0.0
H129 H 0.59967 0.99087 0.69555 0.0
H130 H 0.65051 0.91987 0.92088 0.0
H131 H 0.69103 0.87123 0.744 0.0
Co132 Co 0.87685 0.0785 0.47803 0.0
C133 C 0.81513 0.0957 0.43127 0.0
C134 C 0.81507 0.05857 0.50522 0.0
C135 C 0.78599 0.06386 0.4837 0.0
N136 N 0.83334 0.07851 0.47256 0.0
N137 N 0.78594 0.08714 0.43714 0.0
H138 H 0.82324 0.11316 0.3956 0.0
H139 H 0.82243 0.04077 0.54065 0.0
C140 C 0.88607 0.03565 0.59316 0.0
O141 O 0.90121 0.0211 0.5432 0.0
N142 N 0.92072 0.07851 0.48506 0.0
C143 C 0.93686 0.09529 0.53186 0.0
C144 C 0.96652 0.08694 0.5281 0.0
C145 C 0.94111 0.05971 0.45423 0.0
N146 N 0.96913 0.06423 0.48032 0.0
C147 C 0.88949 0.14171 0.47193 0.0
C148 C 0.87 0.15524 0.61005 0.0
C149 C 0.88591 0.17719 0.57119 0.0
C150 C 0.89477 0.17047 0.50032 0.0
C151 C 0.86491 0.12685 0.57942 0.0
N152 N 0.87604 0.11994 0.51269 0.0
H153 H 0.89814 0.13624 0.41899 0.0
H154 H 0.85313 0.11009 0.61068 0.0
H155 H 0.92774 0.11154 0.5694 0.0
H156 H 0.93543 0.04162 0.41764 0.0
O157 O 0.87962 0.08523 0.37427 0.0
O158 O 0.87696 0.04071 0.42745 0.0
O159 O 0.87479 0.06147 0.57866 0.0
C160 C 0.87865 0.05601 0.36842 0.0
H161 H 0.76634 0.05125 0.50042 0.0
H162 H 0.98459 0.09606 0.56047 0.0
H163 H 0.86228 0.15972 0.66448 0.0
H164 H 0.90724 0.18668 0.46855 0.0
Co165 Co 0.94939 0.37645 0.73415 0.0
C166 C 0.93465 0.31338 0.68857 0.0
C167 C 0.93534 0.31873 0.80344 0.0
C168 C 0.92608 0.28993 0.78755 0.0
N169 N 0.94092 0.33352 0.7415 0.0
N170 N 0.92543 0.28653 0.71531 0.0
H171 H 0.93646 0.3183 0.63176 0.0
H172 H 0.93653 0.32855 0.85673 0.0
C173 C 0.98629 0.39221 0.86648 0.0
O174 O 0.98468 0.42115 0.85464 0.0
N175 N 0.95634 0.41964 0.72377 0.0
C176 C 0.93454 0.44027 0.71214 0.0
C177 C 0.94747 0.46793 0.7009 0.0
C178 C 0.98245 0.43499 0.71498 0.0
N179 N 0.97753 0.46468 0.70375 0.0
C180 C 0.88444 0.376 0.74382 0.0
C181 C 0.88083 0.40838 0.87119 0.0
C182 C 0.85408 0.40035 0.83647 0.0
C183 C 0.85604 0.38355 0.77234 0.0
C184 C 0.90853 0.40034 0.84131 0.0
N185 N 0.91022 0.3847 0.77795 0.0
H186 H 0.88583 0.36368 0.69358 0.0
H187 H 0.92855 0.40786 0.86813 0.0
H188 H 0.91067 0.43566 0.71093 0.0
H189 H 1.00455 0.42484 0.71879 0.0
O190 O 0.93995 0.37617 0.63156 0.0
O191 O 0.98488 0.36834 0.6792 0.0
O192 O 0.97016 0.37352 0.83116 0.0
C193 C 0.96873 0.37113 0.62173 0.0
H194 H 0.91916 0.27314 0.82637 0.0
H195 H 0.93569 0.48901 0.69314 0.0
H196 H 0.88039 0.42122 0.92093 0.0
H197 H 0.83591 0.37711 0.74341 0.0
Co198 Co 0.65395 0.45686 0.00705 0.0
C199 C 0.71609 0.43655 0.96805 0.0
C200 C 0.71645 0.47184 0.04674 0.0
C201 C 0.74566 0.46576 0.02673 0.0
N202 N 0.69773 0.4529 0.0118 0.0
N203 N 0.74548 0.44355 0.97716 0.0
H204 H 0.7082 0.42199 0.92551 0.0
H205 H 0.70945 0.49031 0.08089 0.0
C206 C 0.66539 0.46815 0.1638 0.0
O207 O 0.68192 0.44364 0.16641 0.0
N208 N 0.61085 0.46147 -0.0001 0.0
C209 C 0.59206 0.44289 0.9646 0.0
C210 C 0.56374 0.45539 0.96513 0.0
C211 C 0.59386 0.48502 0.02146 0.0
N212 N 0.56484 0.48199 0.00049 0.0
C213 C 0.65832 0.39133 0.00937 0.0
C214 C 0.62121 0.38391 0.12788 0.0
C215 C 0.63309 0.35815 0.09445 0.0
C216 C 0.65199 0.36219 0.03436 0.0
C217 C 0.6284 0.41247 0.10187 0.0
N218 N 0.64738 0.41614 0.04438 0.0
H219 H 0.67119 0.39369 0.96059 0.0
H220 H 0.61781 0.43173 0.12699 0.0
H221 H 0.59875 0.42217 0.93826 0.0
H222 H 0.6028 0.50399 0.05101 0.0
O223 O 0.65539 0.44944 0.90408 0.0
O224 O 0.65926 0.49407 0.95735 0.0
O225 O 0.65226 0.47534 0.10555 0.0
C226 C 0.65831 0.47863 0.8981 0.0
H227 H 0.76544 0.4777 0.0451 0.0
H228 H 0.54412 0.44622 0.93853 0.0
H229 H 0.60576 0.38206 0.17293 0.0
H230 H 0.66173 0.34308 0.00647 0.0
Co231 Co 0.57673 0.15253 0.22235 0.0
C232 C 0.5979 0.2155 0.19539 0.0
C233 C 0.56134 0.21414 0.27077 0.0
C234 C 0.56871 0.24377 0.25865 0.0
N235 N 0.58039 0.19616 0.23344 0.0
N236 N 0.59157 0.24456 0.21101 0.0
H237 H 0.61385 0.20879 0.15441 0.0
H238 H 0.54222 0.20649 0.30183 0.0
C239 C 0.56401 0.16125 0.37987 0.0
O240 O 0.58883 0.1772 0.38513 0.0
N241 N 0.57263 0.10957 0.20855 0.0
C242 C 0.59281 0.09161 0.17519 0.0
C243 C 0.5809 0.06314 0.16955 0.0
C244 C 0.5486 0.09195 0.22233 0.0
N245 N 0.55303 0.06345 0.19862 0.0
C246 C 0.64232 0.15602 0.2269 0.0
C247 C 0.64856 0.1179 0.34339 0.0
C248 C 0.67461 0.12943 0.31097 0.0
C249 C 0.67127 0.14878 0.25189 0.0
C250 C 0.62026 0.12576 0.31709 0.0
N251 N 0.61716 0.14532 0.2608 0.0
H252 H 0.64036 0.16901 0.17835 0.0
H253 H 0.60077 0.11514 0.34081 0.0
H254 H 0.61455 0.09886 0.1554 0.0
H255 H 0.52803 0.09997 0.2473 0.0
O256 O 0.58503 0.15599 0.11964 0.0
O257 O 0.53996 0.15884 0.17199 0.0
O258 O 0.55719 0.14892 0.32007 0.0
C259 C 0.55588 0.15899 0.11347 0.0
H260 H 0.5571 0.2633 0.28004 0.0
H261 H 0.59201 0.04367 0.14644 0.0
H262 H 0.65002 0.10244 0.38828 0.0
H263 H 0.69082 0.15724 0.22343 0.0
Co264 Co 0.6518 0.57916 0.50681 0.0
C265 C 0.71349 0.59625 0.46072 0.0
C266 C 0.71394 0.56458 0.54803 0.0
C267 C 0.74313 0.56965 0.52612 0.0
N268 N 0.69536 0.58122 0.50705 0.0
N269 N 0.74282 0.58929 0.47076 0.0
H270 H 0.70531 0.61085 0.41846 0.0
H271 H 0.7068 0.54901 0.58936 0.0
C272 C 0.63986 0.54116 0.62809 0.0
O273 O 0.62377 0.5265 0.58035 0.0
N274 N 0.60785 0.57763 0.5075 0.0
C275 C 0.59017 0.59345 0.55322 0.0
C276 C 0.56082 0.58469 0.54454 0.0
C277 C 0.58873 0.55906 0.47205 0.0
N278 N 0.55982 0.56289 0.49396 0.0
C279 C 0.63537 0.64073 0.4848 0.0
C280 C 0.65278 0.6612 0.61942 0.0
C281 C 0.63536 0.68011 0.57571 0.0
C282 C 0.62782 0.67 0.5063 0.0
C283 C 0.6599 0.63205 0.5958 0.0
N284 N 0.6498 0.62174 0.53083 0.0
H285 H 0.62781 0.63255 0.43301 0.0
H286 H 0.67226 0.61733 0.63126 0.0
H287 H 0.59812 0.60944 0.59281 0.0
H288 H 0.59599 0.54165 0.43509 0.0
O289 O 0.65234 0.58047 0.40128 0.0
O290 O 0.65482 0.5394 0.46819 0.0
O291 O 0.65183 0.56636 0.61081 0.0
C292 C 0.65542 0.55126 0.40481 0.0
H293 H 0.76305 0.55931 0.54856 0.0
H294 H 0.54176 0.59306 0.57512 0.0
H295 H 0.65941 0.66823 0.673 0.0
H296 H 0.61512 0.68417 0.47001 0.0
Co297 Co 0.45552 0.16308 0.73021 0.0
C298 C 0.43377 0.2236 0.68577 0.0
C299 C 0.47496 0.22567 0.74597 0.0
C300 C 0.46788 0.25425 0.72304 0.0
N301 N 0.45366 0.20648 0.72252 0.0
N302 N 0.44199 0.25294 0.6855 0.0
H303 H 0.41454 0.21464 0.65719 0.0
H304 H 0.49489 0.21915 0.7754 0.0
C305 C 0.4713 0.14848 0.8825 0.0
O306 O 0.45435 0.12433 0.88055 0.0
N307 N 0.45817 0.11896 0.73693 0.0
C308 C 0.4359 0.09838 0.74484 0.0
C309 C 0.44819 0.07015 0.7502 0.0
C310 C 0.48383 0.10235 0.73738 0.0
N311 N 0.47827 0.07265 0.74602 0.0
C312 C 0.39139 0.15204 0.71532 0.0
C313 C 0.37665 0.16834 0.85484 0.0
C314 C 0.35563 0.15173 0.81492 0.0
C315 C 0.36256 0.14536 0.74243 0.0
C316 C 0.40528 0.17375 0.82643 0.0
N317 N 0.41321 0.16296 0.76004 0.0
H318 H 0.39717 0.14526 0.661 0.0
H319 H 0.42129 0.18577 0.85921 0.0
H320 H 0.41225 0.10273 0.74971 0.0
H321 H 0.50622 0.11177 0.73346 0.0
O322 O 0.45258 0.15961 0.62524 0.0
O323 O 0.49465 0.16403 0.68796 0.0
O324 O 0.47084 0.16757 0.83147 0.0
C325 C 0.48198 0.16153 0.62565 0.0
H326 H 0.48102 0.27442 0.73203 0.0
H327 H 0.43586 0.0493 0.75648 0.0
H328 H 0.37154 0.17595 0.90902 0.0
H329 H 0.34674 0.13345 0.70849 0.0
Co330 Co 0.87807 0.9531 0.9796 0.0
C331 C 0.81634 0.93227 0.94428 0.0
C332 C 0.8159 0.96703 0.02503 0.0
C333 C 0.78669 0.95833 0.01191 0.0
N334 N 0.83453 0.95049 0.98326 0.0
N335 N 0.78702 0.93653 0.96126 0.0
H336 H 0.82434 0.9162 0.90463 0.0
H337 H 0.82286 0.98461 0.06169 0.0
C338 C 0.89867 0.97856 0.12303 0.0
O339 O 0.92606 0.9682 0.11389 0.0
N340 N 0.92202 0.9556 0.97385 0.0
C341 C 0.94218 0.93282 0.97763 0.0
C342 C 0.97077 0.94428 0.97336 0.0
C343 C 0.93907 0.98072 0.96584 0.0
N344 N 0.96884 0.97434 0.96669 0.0
C345 C 0.88463 0.88828 0.97114 0.0
C346 C 0.88428 0.87813 0.11795 0.0
C347 C 0.89267 0.85447 0.07199 0.0
C348 C 0.89135 0.85938 0.99738 0.0
C349 C 0.87789 0.90652 0.08974 0.0
N350 N 0.88024 0.91194 0.01745 0.0
H351 H 0.88527 0.89208 0.9137 0.0
H352 H 0.87157 0.92397 0.12708 0.0
H353 H 0.93721 0.90936 0.98504 0.0
H354 H 0.93 1.00329 0.96304 0.0
O355 O 0.87733 0.94573 0.87616 0.0
O356 O 0.8748 0.99045 0.92871 0.0
O357 O 0.87768 0.97221 0.07864 0.0
C358 C 0.87526 0.97493 0.86955 0.0
H359 H 0.76663 0.96779 0.03639 0.0
H360 H 0.9915 0.93151 0.97599 0.0
H361 H 0.88332 0.87491 0.17577 0.0
H362 H 0.89696 0.84154 0.95977 0.0
Co363 Co 0.07434 0.37056 0.23045 0.0
C364 C 0.09028 0.30791 0.1886 0.0
C365 C 0.07949 0.31137 0.30113 0.0
C366 C 0.08967 0.28264 0.28712 0.0
N367 N 0.07984 0.32731 0.23934 0.0
N368 N 0.09661 0.28063 0.21653 0.0
H369 H 0.09496 0.31393 0.13327 0.0
H370 H 0.07373 0.32025 0.35365 0.0
C371 C 0.0248 0.37091 0.33697 0.0
O372 O 1.00674 0.36984 0.28129 0.0
N373 N 0.0702 0.41377 0.22036 0.0
C374 C 0.09279 0.43209 0.19937 0.0
C375 C 0.08206 0.46095 0.19395 0.0
C376 C 0.04568 0.43168 0.22556 0.0
N377 N 0.05255 0.46066 0.21048 0.0
C378 C 0.13885 0.36595 0.24308 0.0
C379 C 0.14335 0.40007 0.3676 0.0
C380 C 0.16985 0.38913 0.33553 0.0
C381 C 0.16735 0.37188 0.27226 0.0
C382 C 0.11544 0.39366 0.33686 0.0
N383 N 0.11339 0.37682 0.27538 0.0
H384 H 0.13719 0.35306 0.19376 0.0
H385 H 0.09552 0.40332 0.36117 0.0
H386 H 0.1155 0.42485 0.18736 0.0
H387 H 0.02336 0.42385 0.23936 0.0
O388 O 0.08538 0.36921 0.12824 0.0
O389 O 0.03947 0.36416 0.17253 0.0
O390 O 0.05337 0.37172 0.32737 0.0
C391 C 0.05664 0.36561 0.1165 0.0
H392 H 0.09248 0.26482 0.3262 0.0
H393 H 0.09474 0.48055 0.17725 0.0
H394 H 0.14419 0.41433 0.41499 0.0
H395 H 0.18723 0.36315 0.24545 0.0
Co396 Co 0.37449 0.57988 0.95751 0.0
C397 C 0.31268 0.60219 0.92597 0.0
C398 C 0.3128 0.55621 0.96126 0.0
C399 C 0.28373 0.56433 0.94547 0.0
N400 N 0.33098 0.57993 0.94956 0.0
N401 N 0.28352 0.59321 0.92312 0.0
H402 H 0.3206 0.62439 0.91147 0.0
H403 H 0.3201 0.53417 0.97811 0.0
C404 C 0.37027 0.53251 0.0679 0.0
O405 O 0.37281 0.51358 0.01388 0.0
N406 N 0.41823 0.57973 0.9643 0.0
C407 C 0.43719 0.59601 0.92292 0.0
C408 C 0.46613 0.58639 0.93405 0.0
C409 C 0.43618 0.56005 -0.00056 0.0
N410 N 0.4656 0.56382 0.98236 0.0
C411 C 0.38529 0.64393 0.96004 0.0
C412 C 0.3695 0.65276 0.1026 0.0
C413 C 0.38552 0.67562 0.06701 0.0
C414 C 0.392 0.67143 0.99352 0.0
C415 C 0.36376 0.62542 0.06746 0.0
N416 N 0.37356 0.62053 -0.00149 0.0
H417 H 0.3908 0.64105 0.90382 0.0
H418 H 0.35208 0.60803 0.09677 0.0
H419 H 0.43056 0.61205 0.88249 0.0
H420 H 0.42798 0.54229 0.03381 0.0
O421 O 0.37773 0.58836 0.85358 0.0
O422 O 0.37662 0.54337 0.90343 0.0
O423 O 0.37125 0.56095 0.05644 0.0
C424 C 0.37918 0.55919 0.84588 0.0
H425 H 0.26426 0.54972 0.94829 0.0
H426 H 0.48567 0.59372 0.90387 0.0
H427 H 0.36216 0.65557 0.15792 0.0
H428 H 0.40351 0.68866 0.96281 0.0
Co429 Co 0.45472 0.87066 0.2378 0.0
C430 C 0.43179 0.80945 0.20299 0.0
C431 C 0.4733 0.80817 0.26188 0.0
C432 C 0.46514 0.77915 0.24461 0.0
N433 N 0.45238 0.82713 0.23603 0.0
N434 N 0.43887 0.77984 0.20811 0.0
H435 H 0.41233 0.81811 0.17486 0.0
H436 H 0.49372 0.81505 0.28888 0.0
C437 C 0.49784 0.88009 0.35072 0.0
O438 O 0.51212 0.89461 0.29964 0.0
N439 N 0.45676 0.91464 0.24088 0.0
C440 C 0.44046 0.93229 0.28568 0.0
C441 C 0.45037 0.96138 0.28056 0.0
C442 C 0.4769 0.93358 0.20989 0.0
N443 N 0.4736 0.9623 0.23373 0.0
C444 C 0.39221 0.88604 0.22816 0.0
C445 C 0.37688 0.86877 0.36665 0.0
C446 C 0.35571 0.88463 0.32555 0.0
C447 C 0.36336 0.89249 0.25463 0.0
C448 C 0.40541 0.86261 0.33801 0.0
N449 N 0.41317 0.8725 0.27089 0.0
H450 H 0.39843 0.89368 0.1749 0.0
H451 H 0.42158 0.85086 0.37091 0.0
H452 H 0.42347 0.92458 0.32306 0.0
H453 H 0.49509 0.92608 0.17545 0.0
O454 O 0.44913 0.87136 0.13304 0.0
O455 O 0.4927 0.86779 0.18993 0.0
O456 O 0.47144 0.86959 0.33876 0.0
C457 C 0.47834 0.86837 0.12973 0.0
H458 H 0.47839 0.75923 0.25526 0.0
H459 H 0.44181 0.98022 0.31157 0.0
H460 H 0.37165 0.86183 0.42119 0.0
H461 H 0.34778 0.90492 0.22123 0.0
Co462 Co 0.15612 0.95289 0.47337 0.0
C463 C 0.21926 0.93626 0.43315 0.0
C464 C 0.21201 0.93638 0.5475 0.0
C465 C 0.24082 0.92645 0.53381 0.0
N466 N 0.19845 0.94274 0.4845 0.0
N467 N 0.24535 0.92617 0.46189 0.0
H468 H 0.21537 0.93859 0.37601 0.0
H469 H 0.20134 0.93761 0.5999 0.0
C470 C 0.13789 0.98705 0.60859 0.0
O471 O 0.1092 0.98307 0.59659 0.0
N472 N 0.11354 0.96188 0.4592 0.0
C473 C 0.09241 0.94145 0.44071 0.0
C474 C 0.0655 0.95596 0.42944 0.0
C475 C 0.09937 0.98883 0.45509 0.0
N476 N 0.06988 0.98563 0.439 0.0
C477 C 0.15417 0.88809 0.4767 0.0
C478 C 0.12084 0.88335 0.60228 0.0
C479 C 0.12869 0.85701 0.56534 0.0
C480 C 0.14594 0.85948 0.5021 0.0
C481 C 0.12962 0.91124 0.57554 0.0
N482 N 0.14574 0.91356 0.51305 0.0
H483 H 0.16702 0.88991 0.42731 0.0
H484 H 0.12267 0.93075 0.60496 0.0
H485 H 0.09619 0.91749 0.43575 0.0
H486 H 0.11002 1.01019 0.46696 0.0
O487 O 0.15759 0.94391 0.37073 0.0
O488 O 0.16659 0.98833 0.42108 0.0
O489 O 0.15785 0.97305 0.57169 0.0
C490 C 0.16372 0.97251 0.36273 0.0
H491 H 0.25683 0.9189 0.57371 0.0
H492 H 0.04403 0.94546 0.41808 0.0
H493 H 0.10775 0.88243 0.65164 0.0
H494 H 0.15233 0.83961 0.47171 0.0
Co495 Co 0.07307 0.65787 0.73272 0.0
C496 C 0.09111 0.71936 0.69178 0.0
C497 C 0.05503 0.71986 0.76921 0.0
C498 C 0.0612 0.74903 0.74914 0.0
N499 N 0.07383 0.70132 0.73331 0.0
N500 N 0.08384 0.74871 0.70039 0.0
H501 H 0.10757 0.71102 0.65353 0.0
H502 H 0.03737 0.71273 0.80557 0.0
C503 C 0.04696 0.63731 0.8753 0.0
O504 O 0.05877 0.61045 0.86752 0.0
N505 N 0.07266 0.61387 0.72944 0.0
C506 C 0.09613 0.5948 0.73821 0.0
C507 C 0.08618 0.56572 0.73183 0.0
C508 C 0.04874 0.59571 0.71677 0.0
N509 N 0.05644 0.56631 0.71893 0.0
C510 C 0.13765 0.65401 0.72229 0.0
C511 C 0.14923 0.65552 0.86839 0.0
C512 C 0.1729 0.64815 0.82114 0.0
C513 C 0.16693 0.64847 0.74685 0.0
C514 C 0.12021 0.66041 0.84174 0.0
N515 N 0.11431 0.65782 0.76975 0.0
H516 H 0.13337 0.6527 0.66516 0.0
H517 H 0.1026 0.66549 0.87987 0.0
H518 H 0.11896 0.60087 0.75069 0.0
H519 H 0.02596 0.60369 0.70919 0.0
O520 O 0.08051 0.65776 0.62931 0.0
O521 O 0.03563 0.65913 0.68139 0.0
O522 O 0.05374 0.65863 0.83199 0.0
C523 C 0.0513 0.65858 0.62237 0.0
H524 H 0.04952 0.76895 0.76805 0.0
H525 H 0.09973 0.54559 0.73731 0.0
H526 H 0.15288 0.65655 0.92603 0.0
H527 H 0.18418 0.64263 0.70792 0.0
C528 C 0.99546 0.01837 0.91578 0.0
C529 C 0.9938 0.99501 0.96653 0.0
C530 C 0.02065 0.03752 0.91302 0.0
C531 C 0.04496 0.03381 0.96075 0.0
H532 H 0.97743 0.02147 0.87738 0.0
H533 H 0.0213 0.05521 0.87302 0.0
S534 S 0.04916 0.97899 0.11034 0.0
N535 N 0.01704 0.9712 0.06994 0.0
N536 N 0.06428 1.007 0.06446 0.0
C537 C 0.04308 1.01109 0.01288 0.0
C538 C 0.0175 0.99175 0.01588 0.0
C539 C 0.98682 0.51057 0.16739 0.0
C540 C 0.99452 0.53788 0.20174 0.0
C541 C 1.00556 0.48518 0.17142 0.0
C542 C 0.0328 0.48628 0.20928 0.0
H543 H 0.96606 0.5088 0.13732 0.0
H544 H 0.99897 0.46468 0.14397 0.0
S545 S 0.06289 0.55116 0.31176 0.0
N546 N 0.03098 0.56363 0.2776 0.0
N547 N 0.06637 0.5161 0.28326 0.0
C548 C 0.04091 0.51327 0.24348 0.0
C549 C 0.02178 0.53904 0.24007 0.0
C550 C 0.5115 0.53934 0.52919 0.0
C551 C 0.53384 0.5447 0.47651 0.0
C552 C 0.48652 0.52107 0.51476 0.0
C553 C 0.483 0.50714 0.44736 0.0
H554 H 0.51367 0.54863 0.58288 0.0
H555 H 0.47039 0.51691 0.55748 0.0
S556 S 0.533 0.5162 0.28834 0.0
N557 N 0.54925 0.53641 0.35212 0.0
N558 N 0.50256 0.50152 0.32562 0.0
C559 C 0.50462 0.51284 0.3935 0.0
C560 C 0.52998 0.5317 0.40794 0.0
C561 C 0.54238 0.02165 0.69467 0.0
C562 C 0.53878 0.99708 0.74201 0.0
C563 C 0.52323 0.04677 0.69788 0.0
C564 C 0.49956 0.0482 0.74807 0.0
H565 H 0.55966 0.02118 0.65343 0.0
H566 H 0.52627 0.06473 0.65921 0.0
S567 S 0.48219 0.99181 0.88916 0.0
N568 N 0.51107 0.9773 0.84482 0.0
N569 N 0.47484 0.02424 0.84971 0.0
C570 C 0.49619 0.02435 0.79711 0.0
C571 C 0.5158 0.99886 0.79429 0.0
C572 C 0.02795 0.0157 0.39011 0.0
C573 C 0.04629 1.00741 0.44837 0.0
C574 C 1.0028 0.03454 0.40049 0.0
C575 C 0.99521 0.04542 0.46957 0.0
H576 H 0.03296 1.00726 0.33658 0.0
H577 H 0.98916 0.0406 0.3545 0.0
S578 S 0.03362 0.02618 0.64064 0.0
N579 N 0.05358 1.00905 0.57753 0.0
N580 N 1.00651 0.044 0.59765 0.0
C581 C 1.01308 0.03659 0.52823 0.0
C582 C 0.03858 0.01766 0.51746 0.0
C583 C 0.99639 0.5129 0.65556 0.0
C584 C 0.99892 0.489 0.7049 0.0
C585 C 0.01513 0.5383 0.66037 0.0
C586 C 0.03688 0.5406 0.71486 0.0
H587 H 0.97968 0.51193 0.61329 0.0
H588 H 1.01278 0.55615 0.62116 0.0
S589 S 0.04958 0.48642 0.86294 0.0
N590 N 0.02317 0.47064 0.81319 0.0
N591 N 0.05809 0.51835 0.82254 0.0
C592 C 0.03918 0.51721 0.76523 0.0
C593 C 0.02029 0.49138 0.76013 0.0
C594 C 0.51037 0.49294 0.00867 0.0
C595 C 0.54034 0.50332 0.00678 0.0
C596 C 0.48595 0.51288 0.00466 0.0
C597 C 0.49049 0.5441 -0.00117 0.0
H598 H 0.50571 0.46905 0.01118 0.0
H599 H 0.46345 0.5036 0.00247 0.0
S600 S 0.56415 0.58344 0.00061 0.0
N601 N 0.57292 0.54737 0.00366 0.0
N602 N 0.52703 0.58477 -0.00032 0.0
C603 C 0.52022 0.55497 0.00173 0.0
C604 C 0.54513 0.53465 0.005 0.0
C605 C 0.49659 1.00979 0.27687 0.0
C606 C 0.49335 0.98779 0.22238 0.0
C607 C 0.51563 0.03461 0.2681 0.0
C608 C 0.53268 0.03833 0.20499 0.0
H609 H 0.4848 1.00764 0.32769 0.0
H610 H 0.51765 0.05065 0.31189 0.0
S611 S 0.53161 0.98849 0.0442 0.0
N612 N 0.50795 0.97248 0.10119 0.0
N613 N 0.54446 0.01875 0.08576 0.0
C614 C 0.52967 0.01677 0.14975 0.0
C615 C 0.5099 0.9916 0.15822 0.0
C616 C 0.17446 0.01783 0.28854 0.0
C617 C 0.1636 0.98802 0.29237 0.0
C618 C 0.1691 0.03585 0.22815 0.0
C619 C 0.15247 0.02473 0.16997 0.0
H620 H 0.18612 0.02782 0.33387 0.0
H621 H 0.17676 0.059 0.22842 0.0
S622 S 0.12307 0.94728 0.14767 0.0
N623 N 0.13839 0.94736 0.22866 0.0
N624 N 0.12819 0.98149 0.11513 0.0
C625 C 0.14317 0.99455 0.17071 0.0
C626 C 0.14887 0.97605 0.23191 0.0
C627 C 1.00533 0.66503 0.54701 0.0
C628 C 0.03592 0.65672 0.55197 0.0
C629 C 0.98876 0.65974 0.48401 0.0
C630 C 1.00214 0.64545 0.42458 0.0
H631 H 0.99383 0.67496 0.59285 0.0
H632 H 0.96506 0.6655 0.48307 0.0
S633 S 0.08193 0.62208 0.40677 0.0
N634 N 0.07937 0.63588 0.4893 0.0
N635 N 0.04798 0.62531 0.37157 0.0
C636 C 0.03291 0.63827 0.42746 0.0
C637 C 0.04992 0.64413 0.49101 0.0
C638 C 0.40969 0.49916 0.72312 0.0
C639 C 0.39166 0.50179 0.66153 0.0
C640 C 0.40672 0.51942 0.7805 0.0
C641 C 0.38602 0.54339 0.77812 0.0
H642 H 0.42544 0.48067 0.72837 0.0
H643 H 0.42006 0.51565 0.82847 0.0
S644 S 0.3358 0.56246 0.62658 0.0
N645 N 0.35398 0.53203 0.59916 0.0
N646 N 0.34868 0.57003 0.70805 0.0
C647 C 0.36908 0.54748 0.71561 0.0
C648 C 0.37179 0.52664 0.65708 0.0
C649 C 0.4945 0.88635 0.00824 0.0
C650 C 0.49566 0.86467 0.06286 0.0
C651 C 0.51603 0.88635 0.95257 0.0
C652 C 0.53939 0.86473 0.95007 0.0
H653 H 0.47789 0.9042 0.01051 0.0
H654 H 0.51474 0.90388 0.91222 0.0
S655 S 0.54992 0.80162 0.07839 0.0
N656 N 0.52033 0.82007 0.10943 0.0
N657 N 0.56062 0.81983 0.00524 0.0
C658 C 0.53985 0.8423 0.00335 0.0
C659 C 0.518 0.84234 0.05959 0.0
C660 C 0.88879 0.99003 0.67126 0.0
C661 C 0.88152 0.02081 0.66394 0.0
C662 C 0.88567 0.97508 0.73721 0.0
C663 C 0.87542 0.99033 0.79885 0.0
H664 H 0.89718 0.97721 0.62568 0.0
H665 H 0.89213 0.9516 0.74022 0.0
S666 S 0.85175 0.07056 0.80834 0.0
N667 N 0.86233 0.06564 0.72374 0.0
N668 N 0.85661 0.0377 0.84801 0.0
C669 C 0.86737 0.02094 0.79217 0.0
C670 C 0.87035 0.03613 0.72469 0.0
C671 C 0.99567 0.36172 0.9765 0.0
C672 C 1.00642 0.38144 0.9236 0.0
C673 C 1.01335 0.35472 0.03649 0.0
C674 C 0.04251 0.36679 0.04481 0.0
H675 H 0.97291 0.35305 0.97361 0.0
H676 H 1.0035 0.34092 0.07847 0.0
S677 S 0.08287 0.4147 0.91335 0.0
N678 N 0.04928 0.4095 0.87746 0.0
N679 N 0.08263 0.39614 0.99034 0.0
C680 C 0.05443 0.38434 0.989 0.0
C681 C 0.03627 0.39181 0.92838 0.0
C682 C 0.64546 0.53722 0.27636 0.0
C683 C 0.65996 0.5315 0.34178 0.0
C684 C 0.64718 0.51643 0.21939 0.0
C685 C 0.6637 0.48933 0.22569 0.0
H686 H 0.63197 0.55736 0.26991 0.0
H687 H 0.63526 0.52167 0.17017 0.0
S688 S 0.70776 0.4654 0.38512 0.0
N689 N 0.69273 0.49792 0.40895 0.0
N690 N 0.69603 0.459 0.30221 0.0
C691 C 0.67895 0.4839 0.29053 0.0
C692 C 0.67708 0.50496 0.34842 0.0
C693 C 0.55086 0.1722 0.50807 0.0
C694 C 0.54237 0.16018 0.44114 0.0
C695 C 0.53084 0.17276 0.56631 0.0
C696 C 0.50128 0.16151 0.5604 0.0
H697 H 0.57322 0.18132 0.51591 0.0
H698 H 0.53874 0.18227 0.61663 0.0
S699 S 0.46753 0.12741 0.39726 0.0
N700 N 0.50205 0.13651 0.37223 0.0
N701 N 0.46443 0.13782 0.4825 0.0
C702 C 0.49226 0.14953 0.49392 0.0
C703 C 0.5128 0.14872 0.43424 0.0
C704 C 0.64416 0.47974 0.76876 0.0
C705 C 0.65707 0.49427 0.82814 0.0
C706 C 0.63876 0.49531 0.70481 0.0
C707 C 0.6463 0.52601 0.69727 0.0
H708 H 0.63718 0.45642 0.77235 0.0
H709 H 0.62836 0.483 0.66102 0.0
S710 S 0.68291 0.57379 0.83551 0.0
N711 N 0.67887 0.54071 0.87475 0.0
N712 N 0.66891 0.56989 0.75371 0.0
C713 C 0.66025 0.54057 0.75542 0.0
C714 C 0.66558 0.52472 0.82103 0.0
C715 C 0.52266 0.18266 0.02313 0.0
C716 C 0.54006 0.15785 0.04453 0.0
C717 C 0.50069 0.17967 0.96943 0.0
C718 C 0.49464 0.15148 0.93808 0.0
H719 H 0.52528 0.20418 0.05 0.0
H720 H 0.48756 0.19922 0.95442 0.0
S721 S 0.53504 0.08001 0.97364 0.0
N722 N 0.55095 0.10474 0.02817 0.0
N723 N 0.50902 0.09877 0.92895 0.0
C724 C 0.51245 0.12672 0.95783 0.0
C725 C 0.53534 0.12999 0.01081 0.0
C726 C 0.90843 0.04109 0.26055 0.0
C727 C 0.88134 0.03993 0.29957 0.0
C728 C 0.91395 0.0209 0.20368 0.0
C729 C 0.89232 0.99934 0.18341 0.0
H730 H 0.92598 0.05669 0.27626 0.0
H731 H 0.93532 0.02213 0.1755 0.0
S732 S 0.81749 0.98801 0.26817 0.0
N733 N 0.83268 0.01593 0.31443 0.0
N734 N 0.84253 0.97866 0.20595 0.0
C735 C 0.86477 0.99869 0.22077 0.0
C736 C 0.85945 0.01881 0.27943 0.0
C737 C 0.98 0.37514 0.41884 0.0
C738 C 1.01131 0.37087 0.41034 0.0
C739 C 0.96628 0.37479 0.48705 0.0
C740 C 0.98327 0.37002 0.54958 0.0
H741 H 0.96583 0.37901 0.37241 0.0
H742 H 0.94222 0.37851 0.49069 0.0
S743 S 0.06601 0.35687 0.55702 0.0
N744 N 0.05882 0.3613 0.47057 0.0
N745 N 0.03328 0.36038 0.59851 0.0
C746 C 1.01462 0.36544 0.54188 0.0
C747 C 0.02858 0.36598 0.47242 0.0
C748 C 0.36271 0.4886 0.14928 0.0
C749 C 0.36713 0.51988 0.14128 0.0
C750 C 0.36114 0.47522 0.21726 0.0
C751 C 0.36374 0.49255 0.28013 0.0
H752 H 0.36075 0.47406 0.10258 0.0
H753 H 0.35821 0.45105 0.2204 0.0
S754 S 0.37504 0.57547 0.28944 0.0
N755 N 0.3737 0.56786 0.20242 0.0
N756 N 0.3705 0.54288 0.33055 0.0
C757 C 0.36751 0.52398 0.27325 0.0
C758 C 0.36926 0.5376 0.20377 0.0
C759 C 0.4968 0.87397 0.48463 0.0
C760 C 0.51328 0.87626 0.42039 0.0
C761 C 0.51148 0.8737 0.55134 0.0
C762 C 0.54316 0.87548 0.55611 0.0
H763 H 0.47242 0.87345 0.48356 0.0
H764 H 0.49772 0.87268 0.59959 0.0
S765 S 0.5967 0.87798 0.40263 0.0
N766 N 0.56311 0.87757 0.36493 0.0
N767 N 0.59051 0.87711 0.49034 0.0
C768 C 0.55992 0.87635 0.49204 0.0
C769 C 0.54502 0.87672 0.42417 0.0
C770 C 0.16922 0.99897 0.71611 0.0
C771 C 0.14685 1.00749 0.66714 0.0
C772 C 0.17526 0.01674 0.77685 0.0
C773 C 0.15971 0.04392 0.78934 0.0
H774 H 0.18097 0.97776 0.7095 0.0
H775 H 0.19145 1.0086 0.81577 0.0
S776 S 0.10192 0.0779 0.67151 0.0
N777 N 0.1111 0.04602 0.63096 0.0
N778 N 0.12289 0.07965 0.74474 0.0
C779 C 0.13883 0.05367 0.73807 0.0
C780 C 0.13224 0.03531 0.67702 0.0
C781 C 1.00188 0.67567 0.02409 0.0
C782 C 0.98217 0.65282 0.04696 0.0
C783 C 0.0222 0.67086 0.96697 0.0
C784 C 0.02434 0.6426 0.93291 0.0
H785 H 1.00226 0.69709 0.05216 0.0
H786 H 0.03721 0.68896 0.9515 0.0
S787 S 0.97721 0.57558 0.9725 0.0
N788 N 0.96522 0.60143 0.03 0.0
N789 N 1.004 0.59183 0.92447 0.0
C790 C 1.00426 0.61977 0.9545 0.0
C791 C 0.98301 0.62502 0.01113 0.0
C792 C 0.09947 0.24576 0.11256 0.0
C793 C 0.11032 0.25543 0.17985 0.0
C794 C 0.11138 0.22003 0.07844 0.0
C795 C 0.13479 0.20326 0.11012 0.0
H796 H 0.08096 0.25759 0.08747 0.0
H797 H 0.10142 0.21261 0.02825 0.0
S798 S 0.17432 0.22247 0.28008 0.0
N799 N 0.14782 0.24836 0.27304 0.0
N800 N 0.17064 0.20053 0.20867 0.0
C801 C 0.1469 0.21384 0.1755 0.0
C802 C 0.13456 0.23976 0.21042 0.0
C803 C 0.79844 0.63952 0.37444 0.0
C804 C 0.82211 0.61949 0.35819 0.0
C805 C 0.77202 0.62942 0.40918 0.0
C806 C 0.7685 0.59902 0.42887 0.0
H807 H 0.80084 0.66328 0.36276 0.0
H808 H 0.75475 0.64564 0.42322 0.0
S809 S 0.82174 0.53692 0.38732 0.0
N810 N 0.83876 0.56741 0.35693 0.0
N811 N 0.78936 0.54855 0.42143 0.0
C812 C 0.79131 0.57862 0.40911 0.0
C813 C 0.81802 0.58882 0.37397 0.0
C814 C 0.43321 0.32269 0.57314 0.0
C815 C 0.40277 0.33036 0.58356 0.0
C816 C 0.44568 0.29706 0.60558 0.0
C817 C 0.42805 0.27773 0.6483 0.0
H818 H 0.44774 0.33714 0.54146 0.0
H819 H 0.46939 0.29237 0.59768 0.0
S820 S 0.34694 0.28693 0.6898 0.0
N821 N 0.35512 0.31618 0.63847 0.0
N822 N 0.37849 0.26751 0.69782 0.0
C823 C 0.3974 0.28458 0.65735 0.0
C824 C 0.3848 0.31105 0.62552 0.0
C825 C 0.72888 0.91247 0.82567 0.0
C826 C 0.70536 0.90164 0.86987 0.0
C827 C 0.75625 0.9225 0.85539 0.0
C828 C 0.76093 0.92229 0.93029 0.0
H829 H 0.72565 0.91449 0.76806 0.0
H830 H 0.77329 0.93182 0.82006 0.0
S831 S 0.70888 0.89201 0.06846 0.0
N832 N 0.69052 0.8879 0.99184 0.0
N833 N 0.7414 0.9077 0.04711 0.0
C834 C 0.73837 0.91016 0.97454 0.0
C835 C 0.71076 0.89959 0.94451 0.0
C836 C 0.92057 0.23113 0.70725 0.0
C837 C 0.91582 0.25977 0.67682 0.0
C838 C 0.91053 0.20478 0.67309 0.0
C839 C 0.89543 0.20581 0.60664 0.0
H840 H 0.9324 0.22899 0.75786 0.0
H841 H 0.91504 0.18332 0.6985 0.0
S842 S 0.8756 0.27485 0.50547 0.0
N843 N 0.89356 0.28742 0.57727 0.0
N844 N 0.87536 0.23779 0.51245 0.0
C845 C 0.89047 0.23417 0.57536 0.0
C846 C 0.90049 0.26114 0.61049 0.0
C847 C 0.82145 0.44142 0.8865 0.0
C848 C 0.82473 0.41099 0.86655 0.0
C849 C 0.79532 0.4519 0.9209 0.0
C850 C 0.77124 0.43245 0.93707 0.0
H851 H 0.83945 0.45728 0.87602 0.0
H852 H 0.79406 0.4755 0.93524 0.0
S853 S 0.76841 0.35066 0.89629 0.0
N854 N 0.8015 0.3615 0.86483 0.0
N855 N 0.75233 0.38119 0.92996 0.0
C856 C 0.77386 0.40207 0.91592 0.0
C857 C 0.80058 0.39137 0.88059 0.0
C858 C 0.61332 0.29517 0.22556 0.0
C859 C 0.60455 0.27138 0.18031 0.0
C860 C 0.62356 0.32257 0.1972 0.0
C861 C 0.62495 0.32758 0.12222 0.0
H862 H 0.61197 0.29257 0.28349 0.0
H863 H 0.63007 0.34017 0.23455 0.0
S864 S 0.60315 0.27242 0.98077 0.0
N865 N 0.59764 0.25429 0.05728 0.0
N866 N 0.61591 0.30606 0.00335 0.0
C867 C 0.61648 0.30368 0.0763 0.0
C868 C 0.60648 0.27556 0.10546 0.0
C869 C 0.71012 0.08851 0.34765 0.0
C870 C 0.70477 0.11938 0.3367 0.0
C871 C 0.73703 0.07826 0.37811 0.0
C872 C 0.75988 0.09837 0.39914 0.0
H873 H 0.69312 0.07208 0.33336 0.0
H874 H 0.73985 0.05429 0.38602 0.0
S875 S 0.75743 0.18146 0.381 0.0
N876 N 0.7249 0.17003 0.34781 0.0
N877 N 0.77557 0.15069 0.40551 0.0
C878 C 0.75532 0.12925 0.38644 0.0
C879 C 0.72777 0.13976 0.35516 0.0
C880 C 0.62982 0.75622 0.67177 0.0
C881 C 0.59875 0.7624 0.66997 0.0
C882 C 0.64169 0.72982 0.6404 0.0
C883 C 0.62297 0.70896 0.60481 0.0
H884 H 0.64487 0.77149 0.6995 0.0
H885 H 0.66564 0.72562 0.64433 0.0
S886 S 0.54024 0.71561 0.5819 0.0
N887 N 0.54977 0.74623 0.62696 0.0
N888 N 0.57182 0.69674 0.56884 0.0
C889 C 0.59198 0.71537 0.60114 0.0
C890 C 0.57994 0.74203 0.63349 0.0
C891 C 0.29994 0.13898 0.81618 0.0
C892 C 0.32818 0.13892 0.85069 0.0
C893 C 0.27447 0.12552 0.84828 0.0
C894 C 0.27631 0.11119 0.9158 0.0
H895 H 0.29752 0.14938 0.7638 0.0
H896 H 0.25342 0.12552 0.81907 0.0
S897 S 0.34459 0.10529 0.02963 0.0
N898 N 0.35614 0.12306 0.95667 0.0
N899 N 0.30833 0.09918 0.01756 0.0
C900 C 0.30419 0.1116 0.95147 0.0
C901 C 0.33005 0.12507 0.91886 0.0
C902 C 0.89264 0.79752 0.07991 0.0
C903 C 0.90404 0.82558 0.10277 0.0
C904 C 0.90194 0.77046 0.11274 0.0
C905 C 0.92291 0.77057 0.16951 0.0
H906 H 0.87575 0.79656 0.03802 0.0
H907 H 0.89187 0.74946 0.09549 0.0
S908 S 0.96305 0.83734 0.24118 0.0
N909 N 0.94003 0.85117 0.17998 0.0
N910 N 0.95714 0.80066 0.24141 0.0
C911 C 0.9355 0.79827 0.19016 0.0
C912 C 0.92617 0.82565 0.15688 0.0
C913 C 0.24992 0.41964 0.35122 0.0
C914 C 0.25484 0.41958 0.42607 0.0
C915 C 0.22285 0.40871 0.32189 0.0
C916 C 0.19981 0.39717 0.3664 0.0
H917 H 0.26656 0.42942 0.3155 0.0
H918 H 0.21945 0.41046 0.26428 0.0
S919 S 0.204 0.3875 0.56475 0.0
N920 N 0.23604 0.40408 0.5431 0.0
N921 N 0.18552 0.3831 0.48839 0.0
C922 C 0.20535 0.39541 0.44094 0.0
C923 C 0.23274 0.40672 0.47064 0.0
C924 C 0.40895 0.75683 0.10928 0.0
C925 C 0.42335 0.75432 0.17652 0.0
C926 C 0.39613 0.73158 0.07503 0.0
C927 C 0.39698 0.70276 0.10675 0.0
H928 H 0.40842 0.77827 0.08177 0.0
H929 H 0.38572 0.73464 0.02288 0.0
S930 S 0.43052 0.68447 0.2846 0.0
N931 N 0.43588 0.72102 0.27566 0.0
N932 N 0.41314 0.67361 0.21054 0.0
C933 C 0.41065 0.70019 0.17493 0.0
C934 C 0.4235 0.72589 0.20986 0.0
C935 C 0.3007 0.92065 0.45765 0.0
C936 C 0.27243 0.91619 0.42524 0.0
C937 C 0.32731 0.91021 0.42518 0.0
C938 C 0.32686 0.89494 0.35868 0.0
H939 H 0.30233 0.93253 0.50849 0.0
H940 H 0.3485 0.91449 0.45206 0.0
S941 S 0.25881 0.87579 0.2529 0.0
N942 N 0.24564 0.89414 0.32386 0.0
N943 N 0.29576 0.87502 0.26234 0.0
C944 C 0.29883 0.89028 0.32545 0.0
C945 C 0.27162 0.90077 0.35878 0.0
C946 C 0.08699 0.82431 0.61019 0.0
C947 C 0.11766 0.82758 0.59284 0.0
C948 C 0.07614 0.79828 0.64374 0.0
C949 C 0.09548 0.77436 0.66155 0.0
H950 H 0.07125 0.8423 0.59867 0.0
H951 H 0.05236 0.79696 0.65626 0.0
S952 S 0.17781 0.77164 0.62737 0.0
N953 N 0.16726 0.80458 0.59496 0.0
N954 N 0.1469 0.75556 0.65862 0.0
C955 C 0.12612 0.77695 0.64281 0.0
C956 C 0.1372 0.80356 0.60832 0.0
C957 C 0.22901 0.60343 0.93274 0.0
C958 C 0.25705 0.60974 0.9006 0.0
C959 C 0.20235 0.61664 0.90796 0.0
C960 C 0.20235 0.63698 0.84987 0.0
H961 H 0.22754 0.58769 0.97702 0.0
H962 H 0.18139 0.60996 0.93327 0.0
S963 S 0.27004 0.6628 0.74949 0.0
N964 N 0.28335 0.63856 0.80873 0.0
N965 N 0.23334 0.66428 0.76364 0.0
C966 C 0.23039 0.64438 0.81868 0.0
C967 C 0.25767 0.6307 0.84383 0.0
loop_
_geom_bond_atom_site_label_1
_geom_bond_atom_site_label_2
_geom_bond_distance
_geom_bond_site_symmetry_2
_ccdc_geom_bond_type
Co0 N4 2.148 . S
Co0 N10 2.128 . S
Co0 N20 2.194 1_556 S
Co0 O25 2.351 . S
Co0 O26 2.155 . S
Co0 O27 2.096 1_556 S
C1 N4 1.301 . S
C1 N5 1.328 . S
C1 H6 0.930 . S
C2 C3 1.333 . S
C2 N4 1.317 1_554 S
C2 H7 0.930 . S
C3 C2 1.333 . S
C3 N5 1.350 1_554 S
C3 H29 0.931 . S
N4 Co0 2.148 . S
N4 C1 1.301 . S
N4 C2 1.317 1_556 S
N5 C1 1.328 . S
N5 C3 1.350 1_556 S
H6 C1 0.930 . S
H7 C2 0.930 . S
C8 O9 1.224 . S
C8 O27 1.247 . S
O9 C8 1.224 . S
N10 Co0 2.128 . S
N10 C11 1.355 . S
N10 C13 1.311 1_556 S
C11 N10 1.355 . S
C11 C12 1.363 . S
C11 H23 0.929 . S
C12 C11 1.363 . S
C12 N14 1.375 1_556 S
C12 H30 0.931 . S
C13 N10 1.311 1_554 S
C13 N14 1.347 . S
C13 H24 0.929 . S
N14 C12 1.375 1_554 S
N14 C13 1.347 . S
C15 C18 1.365 . S
C15 N20 1.328 1_556 S
C15 H21 0.929 . S
C16 C17 1.362 . S
C16 C19 1.378 . S
C16 H31 0.929 . S
C17 C16 1.362 . S
C17 C18 1.366 1_554 S
C18 C15 1.365 . S
C18 C17 1.366 1_556 S
C18 H32 0.930 . S
C19 C16 1.378 . S
C19 N20 1.315 . S
C19 H22 0.930 . S
N20 Co0 2.194 1_554 S
N20 C15 1.328 1_554 S
N20 C19 1.315 . S
H21 C15 0.929 . S
H22 C19 0.930 . S
H23 C11 0.929 . S
H24 C13 0.929 . S
O25 Co0 2.351 . S
O25 C28 1.244 . S
O26 Co0 2.155 . S
O26 C28 1.240 . S
O27 Co0 2.096 1_554 S
O27 C8 1.247 . S
C28 O25 1.244 . S
C28 O26 1.240 . S
H29 C3 0.931 . S
H30 C12 0.931 . S
H31 C16 0.929 . S
H32 C18 0.930 . S
Co33 N37 2.148 . S
Co33 N43 2.128 . S
Co33 N53 2.194 . S
Co33 O58 2.351 . S
Co33 O59 2.155 . S
Co33 O60 2.096 . S
C34 N37 1.301 . S
C34 N38 1.328 . S
C34 H39 0.930 . S
C35 C36 1.333 . S
C35 N37 1.317 . S
C35 H40 0.930 . S
C36 C35 1.333 . S
C36 N38 1.350 . S
C36 H62 0.931 . S
N37 Co33 2.148 . S
N37 C34 1.301 . S
N37 C35 1.317 . S
N38 C34 1.328 . S
N38 C36 1.350 . S
H39 C34 0.930 . S
H40 C35 0.930 . S
C41 O42 1.224 . S
C41 O60 1.247 . S
O42 C41 1.224 . S
N43 Co33 2.128 . S
N43 C44 1.355 . S
N43 C46 1.311 . S
C44 N43 1.355 . S
C44 C45 1.363 . S
C44 H56 0.929 . S
C45 C44 1.363 . S
C45 N47 1.375 . S
C45 H63 0.931 . S
C46 N43 1.311 . S
C46 N47 1.347 . S
C46 H57 0.929 . S
N47 C45 1.375 . S
N47 C46 1.347 . S
C48 C51 1.365 . S
C48 N53 1.328 . S
C48 H54 0.929 . S
C49 C50 1.362 . S
C49 C52 1.378 . S
C49 H64 0.929 . S
C50 C49 1.362 . S
C50 C51 1.366 . S
C51 C48 1.365 . S
C51 C50 1.366 . S
C51 H65 0.930 . S
C52 C49 1.378 . S
C52 N53 1.315 . S
C52 H55 0.930 . S
N53 Co33 2.194 . S
N53 C48 1.328 . S
N53 C52 1.315 . S
H54 C48 0.929 . S
H55 C52 0.930 . S
H56 C44 0.929 . S
H57 C46 0.929 . S
O58 Co33 2.351 . S
O58 C61 1.244 . S
O59 Co33 2.155 . S
O59 C61 1.240 . S
O60 Co33 2.096 . S
O60 C41 1.247 . S
C61 O58 1.244 . S
C61 O59 1.240 . S
H62 C36 0.931 . S
H63 C45 0.931 . S
H64 C49 0.929 . S
H65 C51 0.930 . S
Co66 N70 2.148 . S
Co66 N76 2.128 . S
Co66 N86 2.194 . S
Co66 O91 2.351 . S
Co66 O92 2.155 . S
Co66 O93 2.096 . S
C67 N70 1.301 . S
C67 N71 1.328 . S
C67 H72 0.930 . S
C68 C69 1.333 . S
C68 N70 1.317 . S
C68 H73 0.930 . S
C69 C68 1.333 . S
C69 N71 1.350 . S
C69 H95 0.931 . S
N70 Co66 2.148 . S
N70 C67 1.301 . S
N70 C68 1.317 . S
N71 C67 1.328 . S
N71 C69 1.350 . S
H72 C67 0.930 . S
H73 C68 0.930 . S
C74 O75 1.224 . S
C74 O93 1.247 . S
O75 C74 1.224 . S
N76 Co66 2.128 . S
N76 C77 1.355 . S
N76 C79 1.311 . S
C77 N76 1.355 . S
C77 C78 1.363 . S
C77 H89 0.929 . S
C78 C77 1.363 . S
C78 N80 1.375 . S
C78 H96 0.931 . S
C79 N76 1.311 . S
C79 N80 1.347 . S
C79 H90 0.929 . S
N80 C78 1.375 . S
N80 C79 1.347 . S
C81 C84 1.365 . S
C81 N86 1.328 . S
C81 H87 0.929 . S
C82 C83 1.362 . S
C82 C85 1.378 . S
C82 H97 0.929 . S
C83 C82 1.362 . S
C83 C84 1.366 . S
C84 C81 1.365 . S
C84 C83 1.366 . S
C84 H98 0.930 . S
C85 C82 1.378 . S
C85 N86 1.315 . S
C85 H88 0.930 . S
N86 Co66 2.194 . S
N86 C81 1.328 . S
N86 C85 1.315 . S
H87 C81 0.929 . S
H88 C85 0.930 . S
H89 C77 0.929 . S
H90 C79 0.929 . S
O91 Co66 2.351 . S
O91 C94 1.244 . S
O92 Co66 2.155 . S
O92 C94 1.240 . S
O93 Co66 2.096 . S
O93 C74 1.247 . S
C94 O91 1.244 . S
C94 O92 1.240 . S
H95 C69 0.931 . S
H96 C78 0.931 . S
H97 C82 0.929 . S
H98 C84 0.930 . S
Co99 N103 2.148 . S
Co99 N109 2.128 . S
Co99 N119 2.194 . S
Co99 O124 2.351 . S
Co99 O125 2.155 . S
Co99 O126 2.096 . S
C100 N103 1.301 . S
C100 N104 1.328 . S
C100 H105 0.930 . S
C101 C102 1.333 . S
C101 N103 1.317 . S
C101 H106 0.930 . S
C102 C101 1.333 . S
C102 N104 1.350 . S
C102 H128 0.931 . S
N103 Co99 2.148 . S
N103 C100 1.301 . S
N103 C101 1.317 . S
N104 C100 1.328 . S
N104 C102 1.350 . S
H105 C100 0.930 . S
H106 C101 0.930 . S
C107 O108 1.224 . S
C107 O126 1.247 . S
O108 C107 1.224 . S
N109 Co99 2.128 . S
N109 C110 1.355 . S
N109 C112 1.311 . S
C110 N109 1.355 . S
C110 C111 1.363 . S
C110 H122 0.929 . S
C111 C110 1.363 . S
C111 N113 1.375 . S
C111 H129 0.931 . S
C112 N109 1.311 . S
C112 N113 1.347 . S
C112 H123 0.929 . S
N113 C111 1.375 . S
N113 C112 1.347 . S
C114 C117 1.365 . S
C114 N119 1.328 . S
C114 H120 0.929 . S
C115 C116 1.362 . S
C115 C118 1.378 . S
C115 H130 0.929 . S
C116 C115 1.362 . S
C116 C117 1.366 . S
C117 C114 1.365 . S
C117 C116 1.366 . S
C117 H131 0.930 . S
C118 C115 1.378 . S
C118 N119 1.315 . S
C118 H121 0.930 . S
N119 Co99 2.194 . S
N119 C114 1.328 . S
N119 C118 1.315 . S
H120 C114 0.929 . S
H121 C118 0.930 . S
H122 C110 0.929 . S
H123 C112 0.929 . S
O124 Co99 2.351 . S
O124 C127 1.244 . S
O125 Co99 2.155 . S
O125 C127 1.240 . S
O126 Co99 2.096 . S
O126 C107 1.247 . S
C127 O124 1.244 . S
C127 O125 1.240 . S
H128 C102 0.931 . S
H129 C111 0.931 . S
H130 C115 0.929 . S
H131 C117 0.930 . S
Co132 N136 2.148 . S
Co132 N142 2.128 . S
Co132 N152 2.194 . S
Co132 O157 2.351 . S
Co132 O158 2.155 . S
Co132 O159 2.096 . S
C133 N136 1.301 . S
C133 N137 1.328 . S
C133 H138 0.930 . S
C134 C135 1.333 . S
C134 N136 1.317 . S
C134 H139 0.930 . S
C135 C134 1.333 . S
C135 N137 1.350 . S
C135 H161 0.931 . S
N136 Co132 2.148 . S
N136 C133 1.301 . S
N136 C134 1.317 . S
N137 C133 1.328 . S
N137 C135 1.350 . S
H138 C133 0.930 . S
H139 C134 0.930 . S
C140 O141 1.224 . S
C140 O159 1.247 . S
O141 C140 1.224 . S
N142 Co132 2.128 . S
N142 C143 1.355 . S
N142 C145 1.311 . S
C143 N142 1.355 . S
C143 C144 1.363 . S
C143 H155 0.929 . S
C144 C143 1.363 . S
C144 N146 1.375 . S
C144 H162 0.931 . S
C145 N142 1.311 . S
C145 N146 1.347 . S
C145 H156 0.929 . S
N146 C144 1.375 . S
N146 C145 1.347 . S
C147 C150 1.365 . S
C147 N152 1.328 . S
C147 H153 0.929 . S
C148 C149 1.362 . S
C148 C151 1.378 . S
C148 H163 0.929 . S
C149 C148 1.362 . S
C149 C150 1.366 . S
C150 C147 1.365 . S
C150 C149 1.366 . S
C150 H164 0.930 . S
C151 C148 1.378 . S
C151 N152 1.315 . S
C151 H154 0.930 . S
N152 Co132 2.194 . S
N152 C147 1.328 . S
N152 C151 1.315 . S
H153 C147 0.929 . S
H154 C151 0.930 . S
H155 C143 0.929 . S
H156 C145 0.929 . S
O157 Co132 2.351 . S
O157 C160 1.244 . S
O158 Co132 2.155 . S
O158 C160 1.240 . S
O159 Co132 2.096 . S
O159 C140 1.247 . S
C160 O157 1.244 . S
C160 O158 1.240 . S
H161 C135 0.931 . S
H162 C144 0.931 . S
H163 C148 0.929 . S
H164 C150 0.930 . S
Co165 N169 2.148 . S
Co165 N175 2.128 . S
Co165 N185 2.194 . S
Co165 O190 2.351 . S
Co165 O191 2.155 . S
Co165 O192 2.096 . S
C166 N169 1.301 . S
C166 N170 1.328 . S
C166 H171 0.930 . S
C167 C168 1.333 . S
C167 N169 1.317 . S
C167 H172 0.930 . S
C168 C167 1.333 . S
C168 N170 1.350 . S
C168 H194 0.931 . S
N169 Co165 2.148 . S
N169 C166 1.301 . S
N169 C167 1.317 . S
N170 C166 1.328 . S
N170 C168 1.350 . S
H171 C166 0.930 . S
H172 C167 0.930 . S
C173 O174 1.224 . S
C173 O192 1.247 . S
O174 C173 1.224 . S
N175 Co165 2.128 . S
N175 C176 1.355 . S
N175 C178 1.311 . S
C176 N175 1.355 . S
C176 C177 1.363 . S
C176 H188 0.929 . S
C177 C176 1.363 . S
C177 N179 1.375 . S
C177 H195 0.931 . S
C178 N175 1.311 . S
C178 N179 1.347 . S
C178 H189 0.929 . S
N179 C177 1.375 . S
N179 C178 1.347 . S
C180 C183 1.365 . S
C180 N185 1.328 . S
C180 H186 0.929 . S
C181 C182 1.362 . S
C181 C184 1.378 . S
C181 H196 0.929 . S
C182 C181 1.362 . S
C182 C183 1.366 . S
C183 C180 1.365 . S
C183 C182 1.366 . S
C183 H197 0.930 . S
C184 C181 1.378 . S
C184 N185 1.315 . S
C184 H187 0.930 . S
N185 Co165 2.194 . S
N185 C180 1.328 . S
N185 C184 1.315 . S
H186 C180 0.929 . S
H187 C184 0.930 . S
H188 C176 0.929 . S
H189 C178 0.929 . S
O190 Co165 2.351 . S
O190 C193 1.244 . S
O191 Co165 2.155 . S
O191 C193 1.240 . S
O192 Co165 2.096 . S
O192 C173 1.247 . S
C193 O190 1.244 . S
C193 O191 1.240 . S
H194 C168 0.931 . S
H195 C177 0.931 . S
H196 C181 0.929 . S
H197 C183 0.930 . S
Co198 N202 2.148 . S
Co198 N208 2.128 . S
Co198 N218 2.194 1_556 S
Co198 O223 2.351 . S
Co198 O224 2.155 . S
Co198 O225 2.096 1_556 S
C199 N202 1.301 . S
C199 N203 1.328 . S
C199 H204 0.930 . S
C200 C201 1.333 . S
C200 N202 1.317 1_554 S
C200 H205 0.930 . S
C201 C200 1.333 . S
C201 N203 1.350 1_554 S
C201 H227 0.931 . S
N202 Co198 2.148 . S
N202 C199 1.301 . S
N202 C200 1.317 1_556 S
N203 C199 1.328 . S
N203 C201 1.350 1_556 S
H204 C199 0.930 . S
H205 C200 0.930 . S
C206 O207 1.224 . S
C206 O225 1.247 . S
O207 C206 1.224 . S
N208 Co198 2.128 . S
N208 C209 1.355 . S
N208 C211 1.311 1_556 S
C209 N208 1.355 . S
C209 C210 1.363 . S
C209 H221 0.929 . S
C210 C209 1.363 . S
C210 N212 1.375 1_556 S
C210 H228 0.931 . S
C211 N208 1.311 1_554 S
C211 N212 1.347 . S
C211 H222 0.929 . S
N212 C210 1.375 1_554 S
N212 C211 1.347 . S
C213 C216 1.365 . S
C213 N218 1.328 1_556 S
C213 H219 0.929 . S
C214 C215 1.362 . S
C214 C217 1.378 . S
C214 H229 0.929 . S
C215 C214 1.362 . S
C215 C216 1.366 1_554 S
C216 C213 1.365 . S
C216 C215 1.366 1_556 S
C216 H230 0.930 . S
C217 C214 1.378 . S
C217 N218 1.315 . S
C217 H220 0.930 . S
N218 Co198 2.194 1_554 S
N218 C213 1.328 1_554 S
N218 C217 1.315 . S
H219 C213 0.929 . S
H220 C217 0.930 . S
H221 C209 0.929 . S
H222 C211 0.929 . S
O223 Co198 2.351 . S
O223 C226 1.244 . S
O224 Co198 2.155 . S
O224 C226 1.240 . S
O225 Co198 2.096 1_554 S
O225 C206 1.247 . S
C226 O223 1.244 . S
C226 O224 1.240 . S
H227 C201 0.931 . S
H228 C210 0.931 . S
H229 C214 0.929 . S
H230 C216 0.930 . S
Co231 N235 2.148 . S
Co231 N241 2.128 . S
Co231 N251 2.194 . S
Co231 O256 2.351 . S
Co231 O257 2.155 . S
Co231 O258 2.096 . S
C232 N235 1.301 . S
C232 N236 1.328 . S
C232 H237 0.930 . S
C233 C234 1.333 . S
C233 N235 1.317 . S
C233 H238 0.930 . S
C234 C233 1.333 . S
C234 N236 1.350 . S
C234 H260 0.931 . S
N235 Co231 2.148 . S
N235 C232 1.301 . S
N235 C233 1.317 . S
N236 C232 1.328 . S
N236 C234 1.350 . S
H237 C232 0.930 . S
H238 C233 0.930 . S
C239 O240 1.224 . S
C239 O258 1.247 . S
O240 C239 1.224 . S
N241 Co231 2.128 . S
N241 C242 1.355 . S
N241 C244 1.311 . S
C242 N241 1.355 . S
C242 C243 1.363 . S
C242 H254 0.929 . S
C243 C242 1.363 . S
C243 N245 1.375 . S
C243 H261 0.931 . S
C244 N241 1.311 . S
C244 N245 1.347 . S
C244 H255 0.929 . S
N245 C243 1.375 . S
N245 C244 1.347 . S
C246 C249 1.365 . S
C246 N251 1.328 . S
C246 H252 0.929 . S
C247 C248 1.362 . S
C247 C250 1.378 . S
C247 H262 0.929 . S
C248 C247 1.362 . S
C248 C249 1.366 . S
C249 C246 1.365 . S
C249 C248 1.366 . S
C249 H263 0.930 . S
C250 C247 1.378 . S
C250 N251 1.315 . S
C250 H253 0.930 . S
N251 Co231 2.194 . S
N251 C246 1.328 . S
N251 C250 1.315 . S
H252 C246 0.929 . S
H253 C250 0.930 . S
H254 C242 0.929 . S
H255 C244 0.929 . S
O256 Co231 2.351 . S
O256 C259 1.244 . S
O257 Co231 2.155 . S
O257 C259 1.240 . S
O258 Co231 2.096 . S
O258 C239 1.247 . S
C259 O256 1.244 . S
C259 O257 1.240 . S
H260 C234 0.931 . S
H261 C243 0.931 . S
H262 C247 0.929 . S
H263 C249 0.930 . S
Co264 N268 2.148 . S
Co264 N274 2.128 . S
Co264 N284 2.194 . S
Co264 O289 2.351 . S
Co264 O290 2.155 . S
Co264 O291 2.096 . S
C265 N268 1.301 . S
C265 N269 1.328 . S
C265 H270 0.930 . S
C266 C267 1.333 . S
C266 N268 1.317 . S
C266 H271 0.930 . S
C267 C266 1.333 . S
C267 N269 1.350 . S
C267 H293 0.931 . S
N268 Co264 2.148 . S
N268 C265 1.301 . S
N268 C266 1.317 . S
N269 C265 1.328 . S
N269 C267 1.350 . S
H270 C265 0.930 . S
H271 C266 0.930 . S
C272 O273 1.224 . S
C272 O291 1.247 . S
O273 C272 1.224 . S
N274 Co264 2.128 . S
N274 C275 1.355 . S
N274 C277 1.311 . S
C275 N274 1.355 . S
C275 C276 1.363 . S
C275 H287 0.929 . S
C276 C275 1.363 . S
C276 N278 1.375 . S
C276 H294 0.931 . S
C277 N274 1.311 . S
C277 N278 1.347 . S
C277 H288 0.929 . S
N278 C276 1.375 . S
N278 C277 1.347 . S
C279 C282 1.365 . S
C279 N284 1.328 . S
C279 H285 0.929 . S
C280 C281 1.362 . S
C280 C283 1.378 . S
C280 H295 0.929 . S
C281 C280 1.362 . S
C281 C282 1.366 . S
C282 C279 1.365 . S
C282 C281 1.366 . S
C282 H296 0.930 . S
C283 C280 1.378 . S
C283 N284 1.315 . S
C283 H286 0.930 . S
N284 Co264 2.194 . S
N284 C279 1.328 . S
N284 C283 1.315 . S
H285 C279 0.929 . S
H286 C283 0.930 . S
H287 C275 0.929 . S
H288 C277 0.929 . S
O289 Co264 2.351 . S
O289 C292 1.244 . S
O290 Co264 2.155 . S
O290 C292 1.240 . S
O291 Co264 2.096 . S
O291 C272 1.247 . S
C292 O289 1.244 . S
C292 O290 1.240 . S
H293 C267 0.931 . S
H294 C276 0.931 . S
H295 C280 0.929 . S
H296 C282 0.930 . S
Co297 N301 2.148 . S
Co297 N307 2.128 . S
Co297 N317 2.194 . S
Co297 O322 2.351 . S
Co297 O323 2.155 . S
Co297 O324 2.096 . S
C298 N301 1.301 . S
C298 N302 1.328 . S
C298 H303 0.930 . S
C299 C300 1.333 . S
C299 N301 1.317 . S
C299 H304 0.930 . S
C300 C299 1.333 . S
C300 N302 1.350 . S
C300 H326 0.931 . S
N301 Co297 2.148 . S
N301 C298 1.301 . S
N301 C299 1.317 . S
N302 C298 1.328 . S
N302 C300 1.350 . S
H303 C298 0.930 . S
H304 C299 0.930 . S
C305 O306 1.224 . S
C305 O324 1.247 . S
O306 C305 1.224 . S
N307 Co297 2.128 . S
N307 C308 1.355 . S
N307 C310 1.311 . S
C308 N307 1.355 . S
C308 C309 1.363 . S
C308 H320 0.929 . S
C309 C308 1.363 . S
C309 N311 1.375 . S
C309 H327 0.931 . S
C310 N307 1.311 . S
C310 N311 1.347 . S
C310 H321 0.929 . S
N311 C309 1.375 . S
N311 C310 1.347 . S
C312 C315 1.365 . S
C312 N317 1.328 . S
C312 H318 0.929 . S
C313 C314 1.362 . S
C313 C316 1.378 . S
C313 H328 0.929 . S
C314 C313 1.362 . S
C314 C315 1.366 . S
C315 C312 1.365 . S
C315 C314 1.366 . S
C315 H329 0.930 . S
C316 C313 1.378 . S
C316 N317 1.315 . S
C316 H319 0.930 . S
N317 Co297 2.194 . S
N317 C312 1.328 . S
N317 C316 1.315 . S
H318 C312 0.929 . S
H319 C316 0.930 . S
H320 C308 0.929 . S
H321 C310 0.929 . S
O322 Co297 2.351 . S
O322 C325 1.244 . S
O323 Co297 2.155 . S
O323 C325 1.240 . S
O324 Co297 2.096 . S
O324 C305 1.247 . S
C325 O322 1.244 . S
C325 O323 1.240 . S
H326 C300 0.931 . S
H327 C309 0.931 . S
H328 C313 0.929 . S
H329 C315 0.930 . S
Co330 N334 2.148 . S
Co330 N340 2.128 . S
Co330 N350 2.194 1_556 S
Co330 O355 2.351 . S
Co330 O356 2.155 . S
Co330 O357 2.096 1_556 S
C331 N334 1.301 . S
C331 N335 1.328 . S
C331 H336 0.930 . S
C332 C333 1.333 . S
C332 N334 1.317 1_554 S
C332 H337 0.930 . S
C333 C332 1.333 . S
C333 N335 1.350 1_554 S
C333 H359 0.931 . S
N334 Co330 2.148 . S
N334 C331 1.301 . S
N334 C332 1.317 1_556 S
N335 C331 1.328 . S
N335 C333 1.350 1_556 S
H336 C331 0.930 . S
H337 C332 0.930 . S
C338 O339 1.224 . S
C338 O357 1.247 . S
O339 C338 1.224 . S
N340 Co330 2.128 . S
N340 C341 1.355 . S
N340 C343 1.311 1_556 S
C341 N340 1.355 . S
C341 C342 1.363 . S
C341 H353 0.929 . S
C342 C341 1.363 . S
C342 N344 1.375 1_556 S
C342 H360 0.931 . S
C343 N340 1.311 1_554 S
C343 N344 1.347 . S
C343 H354 0.929 . S
N344 C342 1.375 1_554 S
N344 C343 1.347 . S
C345 C348 1.365 . S
C345 N350 1.328 1_556 S
C345 H351 0.929 . S
C346 C347 1.362 . S
C346 C349 1.378 . S
C346 H361 0.929 . S
C347 C346 1.362 . S
C347 C348 1.366 1_554 S
C348 C345 1.365 . S
C348 C347 1.366 1_556 S
C348 H362 0.930 . S
C349 C346 1.378 . S
C349 N350 1.315 . S
C349 H352 0.930 . S
N350 Co330 2.194 1_554 S
N350 C345 1.328 1_554 S
N350 C349 1.315 . S
H351 C345 0.929 . S
H352 C349 0.930 . S
H353 C341 0.929 . S
H354 C343 0.929 . S
O355 Co330 2.351 . S
O355 C358 1.244 . S
O356 Co330 2.155 . S
O356 C358 1.240 . S
O357 Co330 2.096 1_554 S
O357 C338 1.247 . S
C358 O355 1.244 . S
C358 O356 1.240 . S
H359 C333 0.931 . S
H360 C342 0.931 . S
H361 C346 0.929 . S
H362 C348 0.930 . S
Co363 N367 2.148 . S
Co363 N373 2.128 . S
Co363 N383 2.194 . S
Co363 O388 2.351 . S
Co363 O389 2.155 . S
Co363 O390 2.096 . S
C364 N367 1.301 . S
C364 N368 1.328 . S
C364 H369 0.930 . S
C365 C366 1.333 . S
C365 N367 1.317 . S
C365 H370 0.930 . S
C366 C365 1.333 . S
C366 N368 1.350 . S
C366 H392 0.931 . S
N367 Co363 2.148 . S
N367 C364 1.301 . S
N367 C365 1.317 . S
N368 C364 1.328 . S
N368 C366 1.350 . S
H369 C364 0.930 . S
H370 C365 0.930 . S
C371 O372 1.224 . S
C371 O390 1.247 . S
O372 C371 1.224 . S
N373 Co363 2.128 . S
N373 C374 1.355 . S
N373 C376 1.311 . S
C374 N373 1.355 . S
C374 C375 1.363 . S
C374 H386 0.929 . S
C375 C374 1.363 . S
C375 N377 1.375 . S
C375 H393 0.931 . S
C376 N373 1.311 . S
C376 N377 1.347 . S
C376 H387 0.929 . S
N377 C375 1.375 . S
N377 C376 1.347 . S
C378 C381 1.365 . S
C378 N383 1.328 . S
C378 H384 0.929 . S
C379 C380 1.362 . S
C379 C382 1.378 . S
C379 H394 0.929 . S
C380 C379 1.362 . S
C380 C381 1.366 . S
C381 C378 1.365 . S
C381 C380 1.366 . S
C381 H395 0.930 . S
C382 C379 1.378 . S
C382 N383 1.315 . S
C382 H385 0.930 . S
N383 Co363 2.194 . S
N383 C378 1.328 . S
N383 C382 1.315 . S
H384 C378 0.929 . S
H385 C382 0.930 . S
H386 C374 0.929 . S
H387 C376 0.929 . S
O388 Co363 2.351 . S
O388 C391 1.244 . S
O389 Co363 2.155 . S
O389 C391 1.240 . S
O390 Co363 2.096 . S
O390 C371 1.247 . S
C391 O388 1.244 . S
C391 O389 1.240 . S
H392 C366 0.931 . S
H393 C375 0.931 . S
H394 C379 0.929 . S
H395 C381 0.930 . S
Co396 N400 2.148 . S
Co396 N406 2.128 . S
Co396 N416 2.194 1_556 S
Co396 O421 2.351 . S
Co396 O422 2.155 . S
Co396 O423 2.096 1_556 S
C397 N400 1.301 . S
C397 N401 1.328 . S
C397 H402 0.930 . S
C398 C399 1.333 . S
C398 N400 1.317 1_554 S
C398 H403 0.930 . S
C399 C398 1.333 . S
C399 N401 1.350 1_554 S
C399 H425 0.931 . S
N400 Co396 2.148 . S
N400 C397 1.301 . S
N400 C398 1.317 1_556 S
N401 C397 1.328 . S
N401 C399 1.350 1_556 S
H402 C397 0.930 . S
H403 C398 0.930 . S
C404 O405 1.224 . S
C404 O423 1.247 . S
O405 C404 1.224 . S
N406 Co396 2.128 . S
N406 C407 1.355 . S
N406 C409 1.311 1_556 S
C407 N406 1.355 . S
C407 C408 1.363 . S
C407 H419 0.929 . S
C408 C407 1.363 . S
C408 N410 1.375 1_556 S
C408 H426 0.931 . S
C409 N406 1.311 1_554 S
C409 N410 1.347 . S
C409 H420 0.929 . S
N410 C408 1.375 1_554 S
N410 C409 1.347 . S
C411 C414 1.365 . S
C411 N416 1.328 1_556 S
C411 H417 0.929 . S
C412 C413 1.362 . S
C412 C415 1.378 . S
C412 H427 0.929 . S
C413 C412 1.362 . S
C413 C414 1.366 1_554 S
C414 C411 1.365 . S
C414 C413 1.366 1_556 S
C414 H428 0.930 . S
C415 C412 1.378 . S
C415 N416 1.315 . S
C415 H418 0.930 . S
N416 Co396 2.194 1_554 S
N416 C411 1.328 1_554 S
N416 C415 1.315 . S
H417 C411 0.929 . S
H418 C415 0.930 . S
H419 C407 0.929 . S
H420 C409 0.929 . S
O421 Co396 2.351 . S
O421 C424 1.244 . S
O422 Co396 2.155 . S
O422 C424 1.240 . S
O423 Co396 2.096 1_554 S
O423 C404 1.247 . S
C424 O421 1.244 . S
C424 O422 1.240 . S
H425 C399 0.931 . S
H426 C408 0.931 . S
H427 C412 0.929 . S
H428 C414 0.930 . S
Co429 N433 2.148 . S
Co429 N439 2.128 . S
Co429 N449 2.194 . S
Co429 O454 2.351 . S
Co429 O455 2.155 . S
Co429 O456 2.096 . S
C430 N433 1.301 . S
C430 N434 1.328 . S
C430 H435 0.930 . S
C431 C432 1.333 . S
C431 N433 1.317 . S
C431 H436 0.930 . S
C432 C431 1.333 . S
C432 N434 1.350 . S
C432 H458 0.931 . S
N433 Co429 2.148 . S
N433 C430 1.301 . S
N433 C431 1.317 . S
N434 C430 1.328 . S
N434 C432 1.350 . S
H435 C430 0.930 . S
H436 C431 0.930 . S
C437 O438 1.224 . S
C437 O456 1.247 . S
O438 C437 1.224 . S
N439 Co429 2.128 . S
N439 C440 1.355 . S
N439 C442 1.311 . S
C440 N439 1.355 . S
C440 C441 1.363 . S
C440 H452 0.929 . S
C441 C440 1.363 . S
C441 N443 1.375 . S
C441 H459 0.931 . S
C442 N439 1.311 . S
C442 N443 1.347 . S
C442 H453 0.929 . S
N443 C441 1.375 . S
N443 C442 1.347 . S
C444 C447 1.365 . S
C444 N449 1.328 . S
C444 H450 0.929 . S
C445 C446 1.362 . S
C445 C448 1.378 . S
C445 H460 0.929 . S
C446 C445 1.362 . S
C446 C447 1.366 . S
C447 C444 1.365 . S
C447 C446 1.366 . S
C447 H461 0.930 . S
C448 C445 1.378 . S
C448 N449 1.315 . S
C448 H451 0.930 . S
N449 Co429 2.194 . S
N449 C444 1.328 . S
N449 C448 1.315 . S
H450 C444 0.929 . S
H451 C448 0.930 . S
H452 C440 0.929 . S
H453 C442 0.929 . S
O454 Co429 2.351 . S
O454 C457 1.244 . S
O455 Co429 2.155 . S
O455 C457 1.240 . S
O456 Co429 2.096 . S
O456 C437 1.247 . S
C457 O454 1.244 . S
C457 O455 1.240 . S
H458 C432 0.931 . S
H459 C441 0.931 . S
H460 C445 0.929 . S
H461 C447 0.930 . S
Co462 N466 2.148 . S
Co462 N472 2.128 . S
Co462 N482 2.194 . S
Co462 O487 2.351 . S
Co462 O488 2.155 . S
Co462 O489 2.096 . S
C463 N466 1.301 . S
C463 N467 1.328 . S
C463 H468 0.930 . S
C464 C465 1.333 . S
C464 N466 1.317 . S
C464 H469 0.930 . S
C465 C464 1.333 . S
C465 N467 1.350 . S
C465 H491 0.931 . S
N466 Co462 2.148 . S
N466 C463 1.301 . S
N466 C464 1.317 . S
N467 C463 1.328 . S
N467 C465 1.350 . S
H468 C463 0.930 . S
H469 C464 0.930 . S
C470 O471 1.224 . S
C470 O489 1.247 . S
O471 C470 1.224 . S
N472 Co462 2.128 . S
N472 C473 1.355 . S
N472 C475 1.311 . S
C473 N472 1.355 . S
C473 C474 1.363 . S
C473 H485 0.929 . S
C474 C473 1.363 . S
C474 N476 1.375 . S
C474 H492 0.931 . S
C475 N472 1.311 . S
C475 N476 1.347 . S
C475 H486 0.929 . S
N476 C474 1.375 . S
N476 C475 1.347 . S
C477 C480 1.365 . S
C477 N482 1.328 . S
C477 H483 0.929 . S
C478 C479 1.362 . S
C478 C481 1.378 . S
C478 H493 0.929 . S
C479 C478 1.362 . S
C479 C480 1.366 . S
C480 C477 1.365 . S
C480 C479 1.366 . S
C480 H494 0.930 . S
C481 C478 1.378 . S
C481 N482 1.315 . S
C481 H484 0.930 . S
N482 Co462 2.194 . S
N482 C477 1.328 . S
N482 C481 1.315 . S
H483 C477 0.929 . S
H484 C481 0.930 . S
H485 C473 0.929 . S
H486 C475 0.929 . S
O487 Co462 2.351 . S
O487 C490 1.244 . S
O488 Co462 2.155 . S
O488 C490 1.240 . S
O489 Co462 2.096 . S
O489 C470 1.247 . S
C490 O487 1.244 . S
C490 O488 1.240 . S
H491 C465 0.931 . S
H492 C474 0.931 . S
H493 C478 0.929 . S
H494 C480 0.930 . S
Co495 N499 2.148 . S
Co495 N505 2.128 . S
Co495 N515 2.194 . S
Co495 O520 2.351 . S
Co495 O521 2.155 . S
Co495 O522 2.096 . S
C496 N499 1.301 . S
C496 N500 1.328 . S
C496 H501 0.930 . S
C497 C498 1.333 . S
C497 N499 1.317 . S
C497 H502 0.930 . S
C498 C497 1.333 . S
C498 N500 1.350 . S
C498 H524 0.931 . S
N499 Co495 2.148 . S
N499 C496 1.301 . S
N499 C497 1.317 . S
N500 C496 1.328 . S
N500 C498 1.350 . S
H501 C496 0.930 . S
H502 C497 0.930 . S
C503 O504 1.224 . S
C503 O522 1.247 . S
O504 C503 1.224 . S
N505 Co495 2.128 . S
N505 C506 1.355 . S
N505 C508 1.311 . S
C506 N505 1.355 . S
C506 C507 1.363 . S
C506 H518 0.929 . S
C507 C506 1.363 . S
C507 N509 1.375 . S
C507 H525 0.931 . S
C508 N505 1.311 . S
C508 N509 1.347 . S
C508 H519 0.929 . S
N509 C507 1.375 . S
N509 C508 1.347 . S
C510 C513 1.365 . S
C510 N515 1.328 . S
C510 H516 0.929 . S
C511 C512 1.362 . S
C511 C514 1.378 . S
C511 H526 0.929 . S
C512 C511 1.362 . S
C512 C513 1.366 . S
C513 C510 1.365 . S
C513 C512 1.366 . S
C513 H527 0.930 . S
C514 C511 1.378 . S
C514 N515 1.315 . S
C514 H517 0.930 . S
N515 Co495 2.194 . S
N515 C510 1.328 . S
N515 C514 1.315 . S
H516 C510 0.929 . S
H517 C514 0.930 . S
H518 C506 0.929 . S
H519 C508 0.929 . S
O520 Co495 2.351 . S
O520 C523 1.244 . S
O521 Co495 2.155 . S
O521 C523 1.240 . S
O522 Co495 2.096 . S
O522 C503 1.247 . S
C523 O520 1.244 . S
C523 O521 1.240 . S
H524 C498 0.931 . S
H525 C507 0.931 . S
H526 C511 0.929 . S
H527 C513 0.930 . S
C528 C529 1.369 1_545 S
C528 C530 1.419 1_655 S
C528 H532 0.930 1_554 S
C529 C528 1.369 1_565 S
C529 C538 1.429 . S
C530 C528 1.419 1_455 S
C530 C531 1.363 . S
C530 H533 0.929 1_554 S
C531 C530 1.363 . S
C531 C537 1.428 1_545 S
H532 C528 0.930 1_556 S
H533 C530 0.929 1_556 S
S534 N535 1.613 1_455 S
S534 N536 1.610 . S
N535 S534 1.613 1_655 S
N535 C538 1.350 . S
N536 S534 1.610 . S
N536 C537 1.351 . S
C537 C531 1.428 1_565 S
C537 N536 1.351 . S
C537 C538 1.434 1_455 S
C538 C529 1.429 . S
C538 N535 1.350 . S
C538 C537 1.434 1_655 S
C539 C540 1.369 . S
C539 C541 1.419 . S
C539 H543 0.930 . S
C540 C539 1.369 . S
C540 C549 1.429 1_655 S
C541 C539 1.419 . S
C541 C542 1.363 1_655 S
C541 H544 0.929 . S
C542 C541 1.363 1_455 S
C542 C548 1.428 . S
H543 C539 0.930 . S
H544 C541 0.929 . S
S545 N546 1.613 . S
S545 N547 1.610 . S
N546 S545 1.613 . S
N546 C549 1.350 . S
N547 S545 1.610 . S
N547 C548 1.351 . S
C548 C542 1.428 . S
C548 N547 1.351 . S
C548 C549 1.434 . S
C549 C540 1.429 1_455 S
C549 N546 1.350 . S
C549 C548 1.434 . S
C550 C551 1.369 . S
C550 C552 1.419 . S
C550 H554 0.930 . S
C551 C550 1.369 . S
C551 C560 1.429 . S
C552 C550 1.419 . S
C552 C553 1.363 . S
C552 H555 0.929 . S
C553 C552 1.363 . S
C553 C559 1.428 . S
H554 C550 0.930 . S
H555 C552 0.929 . S
S556 N557 1.613 . S
S556 N558 1.610 . S
N557 S556 1.613 . S
N557 C560 1.350 . S
N558 S556 1.610 . S
N558 C559 1.351 . S
C559 C553 1.428 . S
C559 N558 1.351 . S
C559 C560 1.434 . S
C560 C551 1.429 . S
C560 N557 1.350 . S
C560 C559 1.434 . S
C561 C562 1.369 . S
C561 C563 1.419 1_565 S
C561 H565 0.930 . S
C562 C561 1.369 . S
C562 C571 1.429 . S
C563 C561 1.419 1_545 S
C563 C564 1.363 . S
C563 H566 0.929 . S
C564 C563 1.363 . S
C564 C570 1.428 . S
H565 C561 0.930 . S
H566 C563 0.929 . S
S567 N568 1.613 . S
S567 N569 1.610 1_565 S
N568 S567 1.613 . S
N568 C571 1.350 . S
N569 S567 1.610 1_545 S
N569 C570 1.351 . S
C570 C564 1.428 . S
C570 N569 1.351 . S
C570 C571 1.434 1_545 S
C571 C562 1.429 . S
C571 N568 1.350 . S
C571 C570 1.434 1_565 S
C572 C573 1.369 . S
C572 C574 1.419 1_455 S
C572 H576 0.930 . S
C573 C572 1.369 . S
C573 C582 1.429 1_565 S
C574 C572 1.419 1_655 S
C574 C575 1.363 1_565 S
C574 H577 0.929 . S
C575 C574 1.363 1_545 S
C575 C581 1.428 . S
H576 C572 0.930 . S
H577 C574 0.929 . S
S578 N579 1.613 . S
S578 N580 1.610 1_455 S
N579 S578 1.613 . S
N579 C582 1.350 . S
N580 S578 1.610 1_655 S
N580 C581 1.351 . S
C581 C575 1.428 . S
C581 N580 1.351 . S
C581 C582 1.434 1_655 S
C582 C573 1.429 1_545 S
C582 N579 1.350 . S
C582 C581 1.434 1_455 S
C583 C584 1.369 . S
C583 C585 1.418 1_655 S
C583 H587 0.930 . S
C584 C583 1.369 . S
C584 C593 1.433 . S
C585 C583 1.418 1_455 S
C585 C586 1.364 . S
C585 H588 0.929 1_455 S
C586 C585 1.364 . S
C586 C592 1.428 . S
H587 C583 0.930 . S
H588 C585 0.929 1_655 S
S589 N590 1.619 . S
S589 N591 1.610 . S
N590 S589 1.619 . S
N590 C593 1.350 1_455 S
N591 S589 1.610 . S
N591 C592 1.351 . S
C592 C586 1.428 . S
C592 N591 1.351 . S
C592 C593 1.430 1_455 S
C593 C584 1.433 . S
C593 N590 1.350 1_655 S
C593 C592 1.430 1_655 S
C594 C595 1.369 . S
C594 C596 1.419 . S
C594 H598 0.930 1_554 S
C595 C594 1.369 . S
C595 C604 1.429 . S
C596 C594 1.419 . S
C596 C597 1.363 . S
C596 H599 0.929 1_554 S
C597 C596 1.363 . S
C597 C603 1.428 . S
H598 C594 0.930 1_556 S
H599 C596 0.929 1_556 S
S600 N601 1.613 . S
S600 N602 1.610 . S
N601 S600 1.613 . S
N601 C604 1.350 . S
N602 S600 1.610 . S
N602 C603 1.351 . S
C603 C597 1.428 . S
C603 N602 1.351 . S
C603 C604 1.434 . S
C604 C595 1.429 . S
C604 N601 1.350 . S
C604 C603 1.434 . S
C605 C606 1.369 . S
C605 C607 1.419 1_565 S
C605 H609 0.930 . S
C606 C605 1.369 . S
C606 C615 1.429 . S
C607 C605 1.419 1_545 S
C607 C608 1.363 . S
C607 H610 0.929 . S
C608 C607 1.363 . S
C608 C614 1.428 . S
H609 C605 0.930 . S
H610 C607 0.929 . S
S611 N612 1.613 1_545 S
S611 N613 1.610 . S
N612 S611 1.613 1_565 S
N612 C615 1.350 . S
N613 S611 1.610 . S
N613 C614 1.351 . S
C614 C608 1.428 . S
C614 N613 1.351 . S
C614 C615 1.434 1_545 S
C615 C606 1.429 . S
C615 N612 1.350 . S
C615 C614 1.434 1_565 S
C616 C617 1.369 1_545 S
C616 C618 1.419 . S
C616 H620 0.930 . S
C617 C616 1.369 1_565 S
C617 C626 1.429 . S
C618 C616 1.419 . S
C618 C619 1.363 . S
C618 H621 0.929 . S
C619 C618 1.363 . S
C619 C625 1.428 1_545 S
H620 C616 0.930 . S
H621 C618 0.929 . S
S622 N623 1.613 . S
S622 N624 1.610 . S
N623 S622 1.613 . S
N623 C626 1.350 . S
N624 S622 1.610 . S
N624 C625 1.351 . S
C625 C619 1.428 1_565 S
C625 N624 1.351 . S
C625 C626 1.434 . S
C626 C617 1.429 . S
C626 N623 1.350 . S
C626 C625 1.434 . S
C627 C628 1.369 . S
C627 C629 1.419 1_455 S
C627 H631 0.936 . S
C628 C627 1.369 . S
C628 C637 1.429 . S
C629 C627 1.419 1_655 S
C629 C630 1.363 . S
C629 H632 0.929 . S
C630 C629 1.363 . S
C630 C636 1.428 1_655 S
H631 C627 0.936 . S
H632 C629 0.929 . S
S633 N634 1.613 . S
S633 N635 1.610 . S
N634 S633 1.613 . S
N634 C637 1.350 . S
N635 S633 1.610 . S
N635 C636 1.351 . S
C636 C630 1.428 1_455 S
C636 N635 1.351 . S
C636 C637 1.434 . S
C637 C628 1.429 . S
C637 N634 1.350 . S
C637 C636 1.434 . S
C638 C639 1.369 . S
C638 C640 1.419 . S
C638 H642 0.930 . S
C639 C638 1.369 . S
C639 C648 1.429 . S
C640 C638 1.419 . S
C640 C641 1.363 . S
C640 H643 0.929 . S
C641 C640 1.363 . S
C641 C647 1.428 . S
H642 C638 0.930 . S
H643 C640 0.929 . S
S644 N645 1.613 . S
S644 N646 1.610 . S
N645 S644 1.613 . S
N645 C648 1.350 . S
N646 S644 1.610 . S
N646 C647 1.351 . S
C647 C641 1.428 . S
C647 N646 1.351 . S
C647 C648 1.434 . S
C648 C639 1.429 . S
C648 N645 1.350 . S
C648 C647 1.434 . S
C649 C650 1.369 1_556 S
C649 C651 1.419 . S
C649 H653 0.930 . S
C650 C649 1.369 1_554 S
C650 C659 1.429 . S
C651 C649 1.419 . S
C651 C652 1.363 . S
C651 H654 0.929 . S
C652 C651 1.363 . S
C652 C658 1.428 . S
H653 C649 0.930 . S
H654 C651 0.929 . S
S655 N656 1.613 . S
S655 N657 1.610 . S
N656 S655 1.613 . S
N656 C659 1.350 . S
N657 S655 1.610 . S
N657 C658 1.351 1_554 S
C658 C652 1.428 . S
C658 N657 1.351 1_556 S
C658 C659 1.434 1_556 S
C659 C650 1.429 . S
C659 N656 1.350 . S
C659 C658 1.434 1_554 S
C660 C661 1.380 . S
C660 C662 1.401 1_545 S
C660 H664 0.939 . S
C661 C660 1.380 . S
C661 C670 1.429 . S
C662 C660 1.401 1_565 S
C662 C663 1.363 . S
C662 H665 0.929 . S
C663 C662 1.363 . S
C663 C669 1.428 . S
H664 C660 0.939 . S
H665 C662 0.929 . S
S666 N667 1.613 1_565 S
S666 N668 1.610 . S
N667 S666 1.613 1_545 S
N667 C670 1.350 . S
N668 S666 1.610 . S
N668 C669 1.351 . S
C669 C663 1.428 . S
C669 N668 1.351 . S
C669 C670 1.434 1_565 S
C670 C661 1.429 . S
C670 N667 1.350 . S
C670 C669 1.434 1_545 S
C671 C672 1.369 . S
C671 C673 1.419 1_656 S
C671 H675 0.930 . S
C672 C671 1.369 . S
C672 C681 1.429 1_655 S
C673 C671 1.419 1_454 S
C673 C674 1.363 . S
C673 H676 0.929 1_455 S
C674 C673 1.363 . S
C674 C680 1.428 1_554 S
H675 C671 0.930 . S
H676 C673 0.929 1_655 S
S677 N678 1.613 . S
S677 N679 1.610 . S
N678 S677 1.613 . S
N678 C681 1.350 . S
N679 S677 1.610 . S
N679 C680 1.351 . S
C680 C674 1.428 1_556 S
C680 N679 1.351 . S
C680 C681 1.434 . S
C681 C672 1.429 1_455 S
C681 N678 1.350 . S
C681 C680 1.434 . S
C682 C683 1.369 . S
C682 C684 1.419 . S
C682 H686 0.930 . S
C683 C682 1.369 . S
C683 C692 1.429 . S
C684 C682 1.419 . S
C684 C685 1.363 . S
C684 H687 0.929 . S
C685 C684 1.363 . S
C685 C691 1.428 . S
H686 C682 0.930 . S
H687 C684 0.929 . S
S688 N689 1.613 . S
S688 N690 1.610 . S
N689 S688 1.613 . S
N689 C692 1.350 . S
N690 S688 1.610 . S
N690 C691 1.351 . S
C691 C685 1.428 . S
C691 N690 1.351 . S
C691 C692 1.434 . S
C692 C683 1.429 . S
C692 N689 1.350 . S
C692 C691 1.434 . S
C693 C694 1.369 . S
C693 C695 1.419 . S
C693 H697 0.930 . S
C694 C693 1.369 . S
C694 C703 1.429 . S
C695 C693 1.419 . S
C695 C696 1.363 . S
C695 H698 0.929 . S
C696 C695 1.363 . S
C696 C702 1.428 . S
H697 C693 0.930 . S
H698 C695 0.929 . S
S699 N700 1.613 . S
S699 N701 1.610 . S
N700 S699 1.613 . S
N700 C703 1.350 . S
N701 S699 1.610 . S
N701 C702 1.351 . S
C702 C696 1.428 . S
C702 N701 1.351 . S
C702 C703 1.434 . S
C703 C694 1.429 . S
C703 N700 1.350 . S
C703 C702 1.434 . S
C704 C705 1.369 . S
C704 C706 1.419 . S
C704 H708 0.930 . S
C705 C704 1.369 . S
C705 C714 1.429 . S
C706 C704 1.419 . S
C706 C707 1.363 . S
C706 H709 0.929 . S
C707 C706 1.363 . S
C707 C713 1.428 . S
H708 C704 0.930 . S
H709 C706 0.929 . S
S710 N711 1.613 . S
S710 N712 1.610 . S
N711 S710 1.613 . S
N711 C714 1.350 . S
N712 S710 1.610 . S
N712 C713 1.351 . S
C713 C707 1.428 . S
C713 N712 1.351 . S
C713 C714 1.434 . S
C714 C705 1.429 . S
C714 N711 1.350 . S
C714 C713 1.434 . S
C715 C716 1.369 . S
C715 C717 1.419 1_554 S
C715 H719 0.930 . S
C716 C715 1.369 . S
C716 C725 1.429 1_554 S
C717 C715 1.419 1_556 S
C717 C718 1.363 . S
C717 H720 0.929 . S
C718 C717 1.363 . S
C718 C724 1.428 . S
H719 C715 0.930 . S
H720 C717 0.929 . S
S721 N722 1.613 . S
S721 N723 1.610 . S
N722 S721 1.613 . S
N722 C725 1.350 . S
N723 S721 1.610 . S
N723 C724 1.351 . S
C724 C718 1.428 . S
C724 N723 1.351 . S
C724 C725 1.434 . S
C725 C716 1.429 1_556 S
C725 N722 1.350 . S
C725 C724 1.434 . S
C726 C727 1.369 . S
C726 C728 1.419 . S
C726 H730 0.930 . S
C727 C726 1.369 . S
C727 C736 1.429 . S
C728 C726 1.419 . S
C728 C729 1.363 1_545 S
C728 H731 0.929 . S
C729 C728 1.363 1_565 S
C729 C735 1.428 . S
H730 C726 0.930 . S
H731 C728 0.929 . S
S732 N733 1.613 . S
S732 N734 1.610 . S
N733 S732 1.613 . S
N733 C736 1.350 1_565 S
N734 S732 1.610 . S
N734 C735 1.351 . S
C735 C729 1.428 . S
C735 N734 1.351 . S
C735 C736 1.434 1_565 S
C736 C727 1.429 . S
C736 N733 1.350 1_545 S
C736 C735 1.434 1_545 S
C737 C738 1.369 1_655 S
C737 C739 1.419 . S
C737 H741 0.930 . S
C738 C737 1.369 1_455 S
C738 C747 1.429 . S
C739 C737 1.419 . S
C739 C740 1.363 . S
C739 H742 0.929 . S
C740 C739 1.363 . S
C740 C746 1.428 1_655 S
H741 C737 0.930 . S
H742 C739 0.929 . S
S743 N744 1.613 . S
S743 N745 1.610 . S
N744 S743 1.613 . S
N744 C747 1.350 . S
N745 S743 1.610 . S
N745 C746 1.351 . S
C746 C740 1.428 1_455 S
C746 N745 1.351 . S
C746 C747 1.434 . S
C747 C738 1.429 . S
C747 N744 1.350 . S
C747 C746 1.434 . S
C748 C749 1.369 . S
C748 C750 1.419 . S
C748 H752 0.930 . S
C749 C748 1.369 . S
C749 C758 1.429 . S
C750 C748 1.419 . S
C750 C751 1.363 . S
C750 H753 0.929 . S
C751 C750 1.363 . S
C751 C757 1.428 . S
H752 C748 0.930 . S
H753 C750 0.929 . S
S754 N755 1.613 . S
S754 N756 1.610 . S
N755 S754 1.613 . S
N755 C758 1.350 . S
N756 S754 1.610 . S
N756 C757 1.351 . S
C757 C751 1.428 . S
C757 N756 1.351 . S
C757 C758 1.434 . S
C758 C749 1.429 . S
C758 N755 1.350 . S
C758 C757 1.434 . S
C759 C760 1.369 . S
C759 C761 1.419 . S
C759 H763 0.930 . S
C760 C759 1.369 . S
C760 C769 1.429 . S
C761 C759 1.419 . S
C761 C762 1.363 . S
C761 H764 0.929 . S
C762 C761 1.363 . S
C762 C768 1.428 . S
H763 C759 0.930 . S
H764 C761 0.929 . S
S765 N766 1.613 . S
S765 N767 1.610 . S
N766 S765 1.613 . S
N766 C769 1.350 . S
N767 S765 1.610 . S
N767 C768 1.351 . S
C768 C762 1.428 . S
C768 N767 1.351 . S
C768 C769 1.434 . S
C769 C760 1.429 . S
C769 N766 1.350 . S
C769 C768 1.434 . S
C770 C771 1.369 . S
C770 C772 1.424 . S
C770 H774 0.930 . S
C771 C770 1.369 . S
C771 C780 1.429 1_565 S
C772 C770 1.424 . S
C772 C773 1.354 1_565 S
C772 H775 0.933 . S
C773 C772 1.354 1_545 S
C773 C779 1.428 . S
H774 C770 0.930 . S
H775 C772 0.933 . S
S776 N777 1.613 . S
S776 N778 1.610 . S
N777 S776 1.613 . S
N777 C780 1.350 . S
N778 S776 1.610 . S
N778 C779 1.351 . S
C779 C773 1.428 . S
C779 N778 1.351 . S
C779 C780 1.434 . S
C780 C771 1.429 1_545 S
C780 N777 1.350 . S
C780 C779 1.434 . S
C781 C782 1.369 . S
C781 C783 1.419 1_654 S
C781 H785 0.930 . S
C782 C781 1.369 . S
C782 C791 1.429 1_554 S
C783 C781 1.419 1_456 S
C783 C784 1.363 . S
C783 H786 0.929 . S
C784 C783 1.363 . S
C784 C790 1.428 1_455 S
H785 C781 0.930 . S
H786 C783 0.929 . S
S787 N788 1.613 . S
S787 N789 1.610 . S
N788 S787 1.613 . S
N788 C791 1.350 . S
N789 S787 1.610 . S
N789 C790 1.351 . S
C790 C784 1.428 1_655 S
C790 N789 1.351 . S
C790 C791 1.434 . S
C791 C782 1.429 1_556 S
C791 N788 1.350 . S
C791 C790 1.434 . S
C792 C793 1.369 . S
C792 C794 1.419 . S
C792 H796 0.930 . S
C793 C792 1.369 . S
C793 C802 1.429 . S
C794 C792 1.419 . S
C794 C795 1.363 . S
C794 H797 0.929 1_554 S
C795 C794 1.363 . S
C795 C801 1.428 . S
H796 C792 0.930 . S
H797 C794 0.929 1_556 S
S798 N799 1.613 . S
S798 N800 1.610 . S
N799 S798 1.613 . S
N799 C802 1.350 . S
N800 S798 1.610 . S
N800 C801 1.351 . S
C801 C795 1.428 . S
C801 N800 1.351 . S
C801 C802 1.434 . S
C802 C793 1.429 . S
C802 N799 1.350 . S
C802 C801 1.434 . S
C803 C804 1.369 . S
C803 C805 1.419 . S
C803 H807 0.930 . S
C804 C803 1.369 . S
C804 C813 1.429 . S
C805 C803 1.419 . S
C805 C806 1.363 . S
C805 H808 0.929 . S
C806 C805 1.363 . S
C806 C812 1.428 . S
H807 C803 0.930 . S
H808 C805 0.929 . S
S809 N810 1.613 . S
S809 N811 1.610 . S
N810 S809 1.613 . S
N810 C813 1.350 . S
N811 S809 1.610 . S
N811 C812 1.351 . S
C812 C806 1.428 . S
C812 N811 1.351 . S
C812 C813 1.434 . S
C813 C804 1.429 . S
C813 N810 1.350 . S
C813 C812 1.434 . S
C814 C815 1.369 . S
C814 C816 1.419 . S
C814 H818 0.930 . S
C815 C814 1.369 . S
C815 C824 1.429 . S
C816 C814 1.419 . S
C816 C817 1.363 . S
C816 H819 0.929 . S
C817 C816 1.363 . S
C817 C823 1.428 . S
H818 C814 0.930 . S
H819 C816 0.929 . S
S820 N821 1.613 . S
S820 N822 1.610 . S
N821 S820 1.613 . S
N821 C824 1.350 . S
N822 S820 1.610 . S
N822 C823 1.351 . S
C823 C817 1.428 . S
C823 N822 1.351 . S
C823 C824 1.434 . S
C824 C815 1.429 . S
C824 N821 1.350 . S
C824 C823 1.434 . S
C825 C826 1.369 . S
C825 C827 1.419 . S
C825 H829 0.930 . S
C826 C825 1.369 . S
C826 C835 1.429 . S
C827 C825 1.419 . S
C827 C828 1.363 . S
C827 H830 0.929 . S
C828 C827 1.363 . S
C828 C834 1.428 . S
H829 C825 0.930 . S
H830 C827 0.929 . S
S831 N832 1.613 1_554 S
S831 N833 1.610 . S
N832 S831 1.613 1_556 S
N832 C835 1.350 . S
N833 S831 1.610 . S
N833 C834 1.351 1_554 S
C834 C828 1.428 . S
C834 N833 1.351 1_556 S
C834 C835 1.434 . S
C835 C826 1.429 . S
C835 N832 1.350 . S
C835 C834 1.434 . S
C836 C837 1.369 . S
C836 C838 1.419 . S
C836 H840 0.930 . S
C837 C836 1.369 . S
C837 C846 1.429 . S
C838 C836 1.419 . S
C838 C839 1.363 . S
C838 H841 0.929 . S
C839 C838 1.363 . S
C839 C845 1.428 . S
H840 C836 0.930 . S
H841 C838 0.929 . S
S842 N843 1.613 . S
S842 N844 1.610 . S
N843 S842 1.613 . S
N843 C846 1.350 . S
N844 S842 1.610 . S
N844 C845 1.351 . S
C845 C839 1.428 . S
C845 N844 1.351 . S
C845 C846 1.434 . S
C846 C837 1.429 . S
C846 N843 1.350 . S
C846 C845 1.434 . S
C847 C848 1.369 . S
C847 C849 1.419 . S
C847 H851 0.930 . S
C848 C847 1.369 . S
C848 C857 1.429 . S
C849 C847 1.419 . S
C849 C850 1.363 . S
C849 H852 0.929 . S
C850 C849 1.363 . S
C850 C856 1.428 . S
H851 C847 0.930 . S
H852 C849 0.929 . S
S853 N854 1.613 . S
S853 N855 1.610 . S
N854 S853 1.613 . S
N854 C857 1.350 . S
N855 S853 1.610 . S
N855 C856 1.351 . S
C856 C850 1.428 . S
C856 N855 1.351 . S
C856 C857 1.434 . S
C857 C848 1.429 . S
C857 N854 1.350 . S
C857 C856 1.434 . S
C858 C859 1.369 . S
C858 C860 1.419 . S
C858 H862 0.930 . S
C859 C858 1.369 . S
C859 C868 1.429 . S
C860 C858 1.419 . S
C860 C861 1.363 . S
C860 H863 0.929 . S
C861 C860 1.363 . S
C861 C867 1.428 . S
H862 C858 0.930 . S
H863 C860 0.929 . S
S864 N865 1.613 1_556 S
S864 N866 1.610 . S
N865 S864 1.613 1_554 S
N865 C868 1.350 . S
N866 S864 1.610 . S
N866 C867 1.351 1_556 S
C867 C861 1.428 . S
C867 N866 1.351 1_554 S
C867 C868 1.434 . S
C868 C859 1.429 . S
C868 N865 1.350 . S
C868 C867 1.434 . S
C869 C870 1.369 . S
C869 C871 1.419 . S
C869 H873 0.930 . S
C870 C869 1.369 . S
C870 C879 1.429 . S
C871 C869 1.419 . S
C871 C872 1.363 . S
C871 H874 0.929 . S
C872 C871 1.363 . S
C872 C878 1.428 . S
H873 C869 0.930 . S
H874 C871 0.929 . S
S875 N876 1.613 . S
S875 N877 1.610 . S
N876 S875 1.613 . S
N876 C879 1.350 . S
N877 S875 1.610 . S
N877 C878 1.351 . S
C878 C872 1.428 . S
C878 N877 1.351 . S
C878 C879 1.434 . S
C879 C870 1.429 . S
C879 N876 1.350 . S
C879 C878 1.434 . S
C880 C881 1.369 . S
C880 C882 1.419 . S
C880 H884 0.930 . S
C881 C880 1.369 . S
C881 C890 1.429 . S
C882 C880 1.419 . S
C882 C883 1.363 . S
C882 H885 0.929 . S
C883 C882 1.363 . S
C883 C889 1.428 . S
H884 C880 0.930 . S
H885 C882 0.929 . S
S886 N887 1.613 . S
S886 N888 1.610 . S
N887 S886 1.613 . S
N887 C890 1.350 . S
N888 S886 1.610 . S
N888 C889 1.351 . S
C889 C883 1.428 . S
C889 N888 1.351 . S
C889 C890 1.434 . S
C890 C881 1.429 . S
C890 N887 1.350 . S
C890 C889 1.434 . S
C891 C892 1.369 . S
C891 C893 1.419 . S
C891 H895 0.930 . S
C892 C891 1.369 . S
C892 C901 1.429 . S
C893 C891 1.419 . S
C893 C894 1.363 . S
C893 H896 0.929 . S
C894 C893 1.363 . S
C894 C900 1.428 . S
H895 C891 0.930 . S
H896 C893 0.929 . S
S897 N898 1.613 1_554 S
S897 N899 1.610 . S
N898 S897 1.613 1_556 S
N898 C901 1.350 . S
N899 S897 1.610 . S
N899 C900 1.351 1_554 S
C900 C894 1.428 . S
C900 N899 1.351 1_556 S
C900 C901 1.434 . S
C901 C892 1.429 . S
C901 N898 1.350 . S
C901 C900 1.434 . S
C902 C903 1.369 . S
C902 C904 1.419 . S
C902 H906 0.930 . S
C903 C902 1.369 . S
C903 C912 1.429 . S
C904 C902 1.419 . S
C904 C905 1.363 . S
C904 H907 0.929 . S
C905 C904 1.363 . S
C905 C911 1.428 . S
H906 C902 0.930 . S
H907 C904 0.929 . S
S908 N909 1.613 . S
S908 N910 1.610 . S
N909 S908 1.613 . S
N909 C912 1.350 . S
N910 S908 1.610 . S
N910 C911 1.351 . S
C911 C905 1.428 . S
C911 N910 1.351 . S
C911 C912 1.434 . S
C912 C903 1.429 . S
C912 N909 1.350 . S
C912 C911 1.434 . S
C913 C914 1.369 . S
C913 C915 1.419 . S
C913 H917 0.930 . S
C914 C913 1.369 . S
C914 C923 1.429 . S
C915 C913 1.419 . S
C915 C916 1.363 . S
C915 H918 0.929 . S
C916 C915 1.363 . S
C916 C922 1.428 . S
H917 C913 0.930 . S
H918 C915 0.929 . S
S919 N920 1.613 . S
S919 N921 1.610 . S
N920 S919 1.613 . S
N920 C923 1.350 . S
N921 S919 1.610 . S
N921 C922 1.351 . S
C922 C916 1.428 . S
C922 N921 1.351 . S
C922 C923 1.434 . S
C923 C914 1.429 . S
C923 N920 1.350 . S
C923 C922 1.434 . S
C924 C925 1.369 . S
C924 C926 1.419 . S
C924 H928 0.930 . S
C925 C924 1.369 . S
C925 C934 1.429 . S
C926 C924 1.419 . S
C926 C927 1.363 . S
C926 H929 0.929 1_554 S
C927 C926 1.363 . S
C927 C933 1.428 . S
H928 C924 0.930 . S
H929 C926 0.929 1_556 S
S930 N931 1.613 . S
S930 N932 1.610 . S
N931 S930 1.613 . S
N931 C934 1.350 . S
N932 S930 1.610 . S
N932 C933 1.351 . S
C933 C927 1.428 . S
C933 N932 1.351 . S
C933 C934 1.434 . S
C934 C925 1.429 . S
C934 N931 1.350 . S
C934 C933 1.434 . S
C935 C936 1.369 . S
C935 C937 1.419 . S
C935 H939 0.930 . S
C936 C935 1.369 . S
C936 C945 1.429 . S
C937 C935 1.419 . S
C937 C938 1.363 . S
C937 H940 0.929 . S
C938 C937 1.363 . S
C938 C944 1.428 . S
H939 C935 0.930 . S
H940 C937 0.929 . S
S941 N942 1.613 . S
S941 N943 1.610 . S
N942 S941 1.613 . S
N942 C945 1.350 . S
N943 S941 1.610 . S
N943 C944 1.351 . S
C944 C938 1.428 . S
C944 N943 1.351 . S
C944 C945 1.434 . S
C945 C936 1.429 . S
C945 N942 1.350 . S
C945 C944 1.434 . S
C946 C947 1.369 . S
C946 C948 1.419 . S
C946 H950 0.930 . S
C947 C946 1.369 . S
C947 C956 1.429 . S
C948 C946 1.419 . S
C948 C949 1.363 . S
C948 H951 0.929 . S
C949 C948 1.363 . S
C949 C955 1.428 . S
H950 C946 0.930 . S
H951 C948 0.929 . S
S952 N953 1.613 . S
S952 N954 1.610 . S
N953 S952 1.613 . S
N953 C956 1.350 . S
N954 S952 1.610 . S
N954 C955 1.351 . S
C955 C949 1.428 . S
C955 N954 1.351 . S
C955 C956 1.434 . S
C956 C947 1.429 . S
C956 N953 1.350 . S
C956 C955 1.434 . S
C957 C958 1.369 . S
C957 C959 1.419 . S
C957 H961 0.930 . S
C958 C957 1.369 . S
C958 C967 1.429 . S
C959 C957 1.419 . S
C959 C960 1.363 . S
C959 H962 0.929 . S
C960 C959 1.363 . S
C960 C966 1.428 . S
H961 C957 0.930 . S
H962 C959 0.929 . S
S963 N964 1.613 . S
S963 N965 1.610 . S
N964 S963 1.613 . S
N964 C967 1.350 . S
N965 S963 1.610 . S
N965 C966 1.351 . S
C966 C960 1.428 . S
C966 N965 1.351 . S
C966 C967 1.434 . S
C967 C958 1.429 . S
C967 N964 1.350 . S
C967 C966 1.434 . S
C529 N344 1.518 . S
C531 N14 1.518 . S
C540 N47 1.516 . S
C542 N377 1.515 . S
C551 N278 1.510 . S
C553 N80 1.511 . S
C562 N113 1.516 . S
C564 N311 1.515 . S
C573 N476 1.519 . S
C575 N146 1.517 . S
C584 N179 1.519 . S
C586 N509 1.518 . S
C595 N212 1.519 . S
C597 N410 1.517 . S
C606 N443 1.511 . S
C608 N245 1.511 . S
C617 C490 1.110 . S
C619 C8 1.119 . S
C628 C523 1.109 . S
C630 C41 1.120 . S
C639 C74 1.120 . S
C641 C424 1.110 . S
C650 C457 1.102 . S
C652 C107 1.119 . S
C661 C140 1.121 . S
C663 C358 1.108 . S
C672 C173 1.120 . S
C674 C391 1.108 . S
C683 C292 1.102 . S
C685 C206 1.118 . S
C694 C239 1.122 . S
C696 C325 1.109 . S
C705 C226 1.102 . S
C707 C272 1.121 . S
C716 C259 1.109 . S
C718 C305 1.120 . S
C727 C160 1.104 . S
C729 C338 1.119 . S
C738 C371 1.120 . S
C740 C193 1.104 . S
C749 C404 1.119 . S
C751 C94 1.101 . S
C760 C437 1.121 . S
C762 C127 1.109 . S
C771 C470 1.120 . S
C773 C28 1.111 . S
C782 C61 1.105 . S
C784 C503 1.119 . S
C793 N368 1.756 . S
C795 C17 1.711 . S
C804 C50 1.714 . S
C806 N269 1.754 . S
C815 C83 1.711 . S
C817 N302 1.756 . S
C826 C116 1.710 . S
C828 N335 1.757 . S
C837 N170 1.756 . S
C839 C149 1.714 . S
C848 C182 1.716 . S
C850 N203 1.756 . S
C859 N236 1.753 . S
C861 C215 1.716 . S
C870 C248 1.716 . S
C872 N137 1.755 . S
C881 N104 1.753 . S
C883 C281 1.715 . S
C892 C314 1.711 . S
C894 N5 1.756 . S
C903 C347 1.712 . S
C905 N38 1.753 . S
C914 N71 1.756 . S
C916 C380 1.712 . S
C925 N434 1.755 . S
C927 C413 1.711 . S
C936 N467 1.755 . S
C938 C446 1.715 . S
C947 C479 1.717 . S
C949 N500 1.754 . S
C958 N401 1.755 . S
C960 C512 1.717 . S
