# Generated by pormake.
# Topology zfu, (5)-cn, num edge types: 1
# Building blocks:
#     Node 0, Type 0, BuildingBlock: XOMCOT_clean_sbu_0, # of connection points: 5
#     Node 1, Type 0, BuildingBlock: XOMCOT_clean_sbu_0, # of connection points: 5
#     Node 2, Type 0, BuildingBlock: XOMCOT_clean_sbu_0, # of connection points: 5
#     Node 3, Type 0, BuildingBlock: XOMCOT_clean_sbu_0, # of connection points: 5
#     Node 4, Type 0, BuildingBlock: XOMCOT_clean_sbu_0, # of connection points: 5
#     Node 5, Type 0, BuildingBlock: XOMCOT_clean_sbu_0, # of connection points: 5
#     Node 6, Type 0, BuildingBlock: XOMCOT_clean_sbu_0, # of connection points: 5
#     Node 7, Type 0, BuildingBlock: XOMCOT_clean_sbu_0, # of connection points: 5
#     Edge 8, Type (0, 0), BuildingBlock: OJICUG_clean_linker_0, # of connection points: 2
#     Edge 9, Type (0, 0), BuildingBlock: OJICUG_clean_linker_0, # of connection points: 2
#     Edge 10, Type (0, 0), BuildingBlock: OJICUG_clean_linker_0, # of connection points: 2
#     Edge 11, Type (0, 0), BuildingBlock: OJICUG_clean_linker_0, # of connection points: 2
#     Edge 12, Type (0, 0), BuildingBlock: OJICUG_clean_linker_0, # of connection points: 2
#     Edge 13, Type (0, 0), BuildingBlock: OJICUG_clean_linker_0, # of connection points: 2
#     Edge 14, Type (0, 0), BuildingBlock: OJICUG_clean_linker_0, # of connection points: 2
#     Edge 15, Type (0, 0), BuildingBlock: OJICUG_clean_linker_0, # of connection points: 2
#     Edge 16, Type (0, 0), BuildingBlock: OJICUG_clean_linker_0, # of connection points: 2
#     Edge 17, Type (0, 0), BuildingBlock: OJICUG_clean_linker_0, # of connection points: 2
#     Edge 18, Type (0, 0), BuildingBlock: OJICUG_clean_linker_0, # of connection points: 2
#     Edge 19, Type (0, 0), BuildingBlock: OJICUG_clean_linker_0, # of connection points: 2
#     Edge 20, Type (0, 0), BuildingBlock: OJICUG_clean_linker_0, # of connection points: 2
#     Edge 21, Type (0, 0), BuildingBlock: OJICUG_clean_linker_0, # of connection points: 2
#     Edge 22, Type (0, 0), BuildingBlock: OJICUG_clean_linker_0, # of connection points: 2
#     Edge 23, Type (0, 0), BuildingBlock: OJICUG_clean_linker_0, # of connection points: 2
#     Edge 24, Type (0, 0), BuildingBlock: OJICUG_clean_linker_0, # of connection points: 2
#     Edge 25, Type (0, 0), BuildingBlock: OJICUG_clean_linker_0, # of connection points: 2
#     Edge 26, Type (0, 0), BuildingBlock: OJICUG_clean_linker_0, # of connection points: 2
#     Edge 27, Type (0, 0), BuildingBlock: OJICUG_clean_linker_0, # of connection points: 2
# Relax obj value: 0.185
# Max RMSD: 0.196
# Mean RMSD: 0.196
data_MOF--net-zfu--node1-XOMCOT_clean_sbu_0--edge1-OJICUG_clean_linker_0
_symmetry_space_group_name_H-M    P1
_symmetry_Int_Tables_number       1
_symmetry_cell_setting            triclinic
loop_
_symmetry_equiv_pos_as_xyz
'x, y, z'
_cell_length_a     31.108978
_cell_length_b     30.307855
_cell_length_c     18.701735
_cell_angle_alpha  90.398627
_cell_angle_beta   90.380249
_cell_angle_gamma 90.055878
loop_
_atom_site_label
_atom_site_type_symbol
_atom_site_fract_x
_atom_site_fract_y
_atom_site_fract_z
_atom_type_partial_charge
Co0 Co 0.46149 0.77299 0.97619 0.0
C1 C 0.52731 0.70614 1.02108 0.0
C2 C 0.48927 0.6846 0.93161 0.0
C3 C 0.52055 0.65383 0.94356 0.0
N4 N 0.49292 0.71744 0.98044 0.0
N5 N 0.54498 0.66745 0.99917 0.0
H6 H 0.54033 0.72671 0.06346 0.0
H7 H 0.46661 0.68329 0.88785 0.0
C8 C 0.38053 0.74681 0.90472 0.0
O9 O 0.36148 0.77068 0.95413 0.0
N10 N 0.43158 0.82936 0.96341 0.0
C11 C 0.43576 0.8672 1.00173 0.0
C12 C 0.42077 0.90209 0.96167 0.0
C13 C 0.41541 0.84276 0.89946 0.0
N14 N 0.40793 0.88645 0.89751 0.0
C15 C 0.41872 0.78042 0.11053 0.0
C16 C 0.38967 0.69445 0.11722 0.0
C17 C 0.3846 0.72224 0.17684 0.0
C18 C 0.39871 0.76589 0.17238 0.0
C19 C 0.40932 0.71065 0.0555 0.0
N20 N 0.42384 0.75325 0.05273 0.0
H21 H 0.43234 0.81288 0.11137 0.0
H22 H 0.414 0.68846 1.0108 0.0
H23 H 0.45249 0.87061 0.05222 0.0
H24 H 0.41278 0.82186 0.85257 0.0
O25 O 0.5024 0.80029 0.03841 0.0
O26 O 0.5089 0.79849 0.92051 0.0
O27 O 0.42168 0.7457 0.90162 0.0
C28 C 0.52413 0.81117 0.98289 0.0
H29 H 0.52509 0.62394 0.91261 0.0
H30 H 0.42122 0.93657 0.9772 0.0
H31 H 0.37906 0.66042 0.11861 0.0
H32 H 0.39629 0.78813 0.21779 0.0
Co33 Co 0.73947 0.9746 0.23518 0.0
C34 C 0.80865 0.03519 0.29381 0.0
C35 C 0.80446 0.03125 0.17912 0.0
C36 C 0.83497 0.06196 0.19682 0.0
N37 N 0.78789 1.01439 0.23938 0.0
N38 N 0.83763 0.06453 0.26857 0.0
H39 H 0.80221 0.02974 0.34987 0.0
H40 H 0.79413 1.02245 0.12556 0.0
C41 C 0.77553 0.89808 0.15879 0.0
O42 O 0.75581 0.87456 0.20744 0.0
N43 N 0.68921 0.93635 0.22122 0.0
C44 C 0.6524 0.9349 0.25936 0.0
C45 C 0.62075 0.91435 0.21905 0.0
C46 C 0.67823 0.91817 0.15703 0.0
N47 N 0.6374 0.90367 0.15508 0.0
C48 C 0.74047 0.92589 0.36559 0.0
C49 C 0.8279 0.91021 0.37021 0.0
C50 C 0.80261 0.8985 0.4289 0.0
C51 C 0.75832 0.90576 0.42545 0.0
C52 C 0.80849 0.92949 0.31031 0.0
N53 N 0.7652 0.9375 0.30876 0.0
H54 H 0.70704 0.93432 0.36723 0.0
H55 H 0.82853 0.93956 0.26629 0.0
H56 H 0.6472 0.95105 0.31021 0.0
H57 H 0.69823 0.91894 0.11005 0.0
O58 O 0.70865 1.01113 0.3003 0.0
O59 O 0.70773 1.02069 0.18297 0.0
O60 O 0.77099 0.94017 0.15798 0.0
C61 C 0.69492 0.03345 0.24643 0.0
H62 H 0.8541 0.08088 0.15978 0.0
H63 H 0.58755 0.90955 0.23417 0.0
H64 H 0.86236 0.90514 0.3711 0.0
H65 H 0.73786 0.89806 0.47035 0.0
Co66 Co 0.5608 0.2783 0.48039 0.0
C67 C 0.49196 0.34471 0.51483 0.0
C68 C 0.53538 0.36746 0.43493 0.0
C69 C 0.50346 0.3981 0.44246 0.0
N70 N 0.52882 0.33387 0.48066 0.0
N71 N 0.47564 0.3838 0.49206 0.0
H72 H 0.47655 0.32366 0.55341 0.0
H73 H 0.56085 0.36969 0.39651 0.0
C74 C 0.64103 0.30156 0.40509 0.0
O75 O 0.66108 0.27919 0.45512 0.0
N76 N 0.59126 0.22185 0.47231 0.0
C77 C 0.58924 0.18622 0.51539 0.0
C78 C 0.60417 0.14968 0.47903 0.0
C79 C 0.60607 0.20538 0.40934 0.0
N80 N 0.61475 0.1619 0.41241 0.0
C81 C 0.60296 0.27677 0.61653 0.0
C82 C 0.63623 0.36119 0.61432 0.0
C83 C 0.64084 0.33592 0.67642 0.0
C84 C 0.62446 0.29307 0.67657 0.0
C85 C 0.61527 0.34305 0.55425 0.0
N86 N 0.59889 0.30111 0.55571 0.0
H87 H 0.58746 0.24542 0.62119 0.0
H88 H 0.61132 0.36327 0.50741 0.0
H89 H 0.57365 0.18493 0.56665 0.0
H90 H 0.60691 0.22378 0.36004 0.0
O91 O 0.52022 0.25257 0.54396 0.0
O92 O 0.51367 0.25003 0.42603 0.0
O93 O 0.59983 0.30304 0.40365 0.0
C94 C 0.49881 0.23898 0.48885 0.0
H95 H 0.50109 0.42849 0.41277 0.0
H96 H 0.60496 0.1162 0.49882 0.0
H97 H 0.64834 0.39467 0.61248 0.0
H98 H 0.62634 0.27297 0.7242 0.0
Co99 Co 0.28196 0.06786 0.71906 0.0
C100 C 0.21151 1.006 0.76663 0.0
C101 C 0.21148 1.02068 0.6545 0.0
C102 C 0.17938 0.99099 0.66692 0.0
N103 N 0.23149 0.03053 0.71662 0.0
N104 N 0.17931 0.98138 0.73718 0.0
H105 H 0.22078 1.00555 0.82249 0.0
H106 H 0.22026 0.03362 0.60289 0.0
C107 C 0.24923 0.14832 0.65099 0.0
O108 O 0.27012 0.16909 0.70249 0.0
N109 N 0.33407 0.10407 0.71137 0.0
C110 C 0.37072 0.10239 0.75069 0.0
C111 C 0.40333 0.1233 0.71425 0.0
C112 C 0.34605 0.12455 0.65022 0.0
N113 N 0.38743 0.13741 0.65141 0.0
C114 C 0.28268 0.11323 0.85373 0.0
C115 C 0.19677 0.13588 0.85575 0.0
C116 C 0.22256 0.1459 0.91574 0.0
C117 C 0.26618 0.1348 0.91344 0.0
C118 C 0.21481 0.11459 0.7964 0.0
N119 N 0.25748 0.10379 0.79564 0.0
H120 H 0.31551 0.10263 0.85591 0.0
H121 H 0.19425 0.10599 0.75158 0.0
H122 H 0.37496 0.08413 0.79961 0.0
H123 H 0.32619 0.12689 0.6028 0.0
O124 O 0.31033 0.02792 0.78155 0.0
O125 O 0.3123 1.02217 0.66342 0.0
O126 O 0.25268 0.10631 0.64469 0.0
C127 C 0.32393 1.00694 0.72607 0.0
H128 H 0.15741 0.97787 0.627 0.0
H129 H 0.43654 0.12634 0.73126 0.0
H130 H 0.16268 0.14302 0.85545 0.0
H131 H 0.28751 0.14198 0.95802 0.0
Co132 Co 0.95918 0.77564 0.88206 0.0
C133 C 0.0251 0.84229 0.8371 0.0
C134 C 0.9894 0.86315 0.92874 0.0
C135 C 0.021 0.89358 0.91672 0.0
N136 N 0.99137 0.83094 0.87863 0.0
N137 N 0.04396 0.88039 0.85969 0.0
H138 H 0.03683 0.82212 0.79351 0.0
H139 H 0.96765 0.86428 0.97332 0.0
C140 C 0.88132 0.80072 0.9614 0.0
O141 O 0.86035 0.77789 0.91237 0.0
N142 N 0.92887 0.71929 0.89354 0.0
C143 C 0.93067 0.68262 0.85192 0.0
C144 C 0.91598 0.64691 0.88999 0.0
C145 C 0.91452 0.70426 0.95743 0.0
N146 N 0.90574 0.66075 0.95621 0.0
C147 C 0.9111 0.7721 0.75124 0.0
C148 C 0.88311 0.85852 0.75268 0.0
C149 C 0.87515 0.83221 0.69208 0.0
C150 C 0.88867 0.78831 0.69247 0.0
C151 C 0.90495 0.84057 0.81143 0.0
N152 N 0.91897 0.79777 0.81013 0.0
H153 H 0.92431 0.73962 0.74688 0.0
H154 H 0.91171 0.86159 0.85698 0.0
H155 H 0.94546 0.68039 0.79999 0.0
H156 H 0.91392 0.72375 1.00604 0.0
O157 O 0.99723 0.74924 0.81492 0.0
O158 O 1.00821 0.74826 0.9321 0.0
O159 O 0.92254 0.80163 0.96136 0.0
C160 C 0.02082 0.73675 0.86786 0.0
H161 H 0.02675 0.92294 0.94858 0.0
H162 H 0.91477 0.613 0.87149 0.0
H163 H 0.87318 0.89275 0.75414 0.0
H164 H 0.88408 0.76727 0.64596 0.0
Co165 Co 0.78097 0.47633 0.13524 0.0
C166 C 0.71122 0.53943 0.08971 0.0
C167 C 0.71299 0.52538 0.20204 0.0
C168 C 0.6815 0.55589 0.1902 0.0
N169 N 0.73144 0.51463 0.13939 0.0
N170 N 0.68035 0.56507 0.11981 0.0
H171 H 0.71943 0.53934 0.03357 0.0
H172 H 0.72247 0.51253 0.25356 0.0
C173 C 0.74853 0.3973 0.20941 0.0
O174 O 0.7669 0.37445 0.15805 0.0
N175 N 0.83246 0.43929 0.14083 0.0
C176 C 0.868 0.44049 0.09951 0.0
C177 C 0.90165 0.42053 0.13508 0.0
C178 C 0.84616 0.41994 0.20219 0.0
N179 N 0.88763 0.40756 0.1995 0.0
C180 C 0.77718 0.42983 1.0018 0.0
C181 C 0.69001 0.41253 1.0016 0.0
C182 C 0.71421 0.40185 0.94088 0.0
C183 C 0.75836 0.41 0.94206 0.0
C184 C 0.71048 0.4314 0.06152 0.0
N185 N 0.75367 0.44012 0.06096 0.0
H186 H 0.81032 0.439 0.99828 0.0
H187 H 0.69135 0.4404 0.10741 0.0
H188 H 0.87098 0.45819 0.04987 0.0
H189 H 0.82767 0.41866 0.25083 0.0
O190 O 0.80851 0.51531 0.07041 0.0
O191 O 0.81356 0.52194 0.18822 0.0
O192 O 0.75308 0.43934 0.21231 0.0
C193 C 0.82386 0.53653 0.12478 0.0
H194 H 0.66071 0.56987 0.23059 0.0
H195 H 0.93443 0.41772 0.11652 0.0
H196 H 0.65565 0.4068 1.00239 0.0
H197 H 0.77793 0.40312 0.89557 0.0
Co198 Co 0.0639 0.26898 0.37001 0.0
C199 C 0.99054 0.20506 0.361 0.0
C200 C 0.05121 0.17327 0.37827 0.0
C201 C 0.01962 0.14149 0.37632 0.0
N202 N 0.03305 0.21318 0.36875 0.0
N203 N 0.98147 0.16151 0.36549 0.0
H204 H 0.96664 0.23021 0.35187 0.0
H205 H 0.0853 0.16751 0.38476 0.0
C206 C 0.13898 0.25522 0.47343 0.0
O207 O 0.15743 0.29148 0.45129 0.0
N208 N 0.09355 0.32511 0.3756 0.0
C209 C 0.11204 0.34913 0.32383 0.0
C210 C 0.12612 0.38853 0.35374 0.0
C211 C 0.09508 0.35076 0.43509 0.0
N212 N 0.11586 0.38893 0.42379 0.0
C213 C 0.07869 0.23191 0.23442 0.0
C214 C 0.16729 0.23131 0.23348 0.0
C215 C 0.14474 0.21716 0.17225 0.0
C216 C 0.09991 0.21735 0.1736 0.0
C217 C 0.1446 0.24623 0.29358 0.0
N218 N 0.10065 0.24641 0.29365 0.0
H219 H 0.04398 0.23164 0.23362 0.0
H220 H 0.16278 0.25834 0.33822 0.0
H221 H 0.11493 0.33893 0.26855 0.0
H222 H 0.08242 0.34092 0.48637 0.0
O223 O 0.02337 0.29551 0.30663 0.0
O224 O 0.017 0.297 0.42443 0.0
O225 O 0.10228 0.24294 0.44843 0.0
C226 C 1.00256 0.30929 0.36169 0.0
H227 H 0.02462 0.10623 0.37976 0.0
H228 H 0.14331 0.41449 0.32655 0.0
H229 H 0.20211 0.23183 0.23431 0.0
H230 H 0.08118 0.20593 0.12803 0.0
Co231 Co 0.2388 0.57872 0.61815 0.0
C232 C 0.30786 0.51447 0.56938 0.0
C233 C 0.3015 0.52274 0.6829 0.0
C234 C 0.33205 0.49139 0.67076 0.0
N235 N 0.28641 0.53769 0.61995 0.0
N236 N 0.33612 0.48575 0.59963 0.0
H237 H 0.30242 0.51787 0.51247 0.0
H238 H 0.29022 0.5333 0.73482 0.0
C239 C 0.27278 0.65236 0.70458 0.0
O240 O 0.25571 0.67756 0.65507 0.0
N241 N 0.18889 0.61787 0.62755 0.0
C242 C 0.15359 0.62138 0.58518 0.0
C243 C 0.12104 0.6417 0.62302 0.0
C244 C 0.17588 0.63444 0.69155 0.0
N245 N 0.13556 0.65014 0.68959 0.0
C246 C 0.24652 0.63264 0.49459 0.0
C247 C 0.33467 0.64324 0.49937 0.0
C248 C 0.31159 0.65865 0.43989 0.0
C249 C 0.26696 0.65398 0.4388 0.0
C250 C 0.31263 0.62292 0.55549 0.0
N251 N 0.26899 0.6173 0.55214 0.0
H252 H 0.21283 0.62623 0.48879 0.0
H253 H 0.33081 0.6102 0.6003 0.0
H254 H 0.14995 0.60695 0.53256 0.0
H255 H 0.1938 0.63146 0.74095 0.0
O256 O 0.21103 0.54574 0.54455 0.0
O257 O 0.20273 0.5315 0.65936 0.0
O258 O 0.26705 0.61041 0.70236 0.0
C259 C 0.19301 0.52205 0.5926 0.0
H260 H 0.35027 0.47438 0.71161 0.0
H261 H 0.08858 0.64775 0.60431 0.0
H262 H 0.36935 0.64619 0.50184 0.0
H263 H 0.24811 0.66447 0.39305 0.0
C264 C 0.63087 0.6288 0.12573 0.0
C265 C 0.65035 0.59469 0.08593 0.0
H266 H 0.58192 0.67814 0.13014 0.0
C267 C 0.63739 0.58798 1.01478 0.0
H268 H 0.64088 0.63579 0.18015 0.0
C269 C 0.60398 0.613 0.98556 0.0
C270 C 0.58249 0.64514 0.02698 0.0
H271 H 0.65178 0.56221 0.98256 0.0
H272 H 0.5946 0.60639 0.93077 0.0
C273 C 0.59726 0.65356 0.09677 0.0
C274 C 0.93222 0.09779 0.37973 0.0
C275 C 0.94074 0.14006 0.35215 0.0
H276 H 0.89132 0.04052 0.37546 0.0
C277 C 0.91041 0.15933 0.30603 0.0
H278 H 0.95458 0.08238 0.4164 0.0
C279 C 0.8744 0.13551 0.28332 0.0
C280 C 0.86765 0.09212 0.30659 0.0
H281 H 0.91584 0.19164 0.28358 0.0
H282 H 0.85298 0.14999 0.24411 0.0
C283 C 0.8958 0.07406 0.35732 0.0
C284 C 0.41625 0.39438 0.57823 0.0
C285 C 0.43684 0.40618 0.51462 0.0
H286 H 0.36705 0.40926 0.65347 0.0
C287 C 0.41975 0.44165 0.47479 0.0
H288 H 0.42779 0.36723 0.61022 0.0
C289 C 0.38516 0.46649 0.50054 0.0
C290 C 0.36657 0.45629 0.5664 0.0
H291 H 0.43352 0.45114 0.42429 0.0
H292 H 0.37433 0.49485 0.47053 0.0
C293 C 0.38147 0.41891 0.60346 0.0
C294 C 0.09463 0.89444 0.76078 0.0
C295 C 0.08129 0.90248 0.83117 0.0
H296 H 0.13712 0.91203 0.6766 0.0
C297 C 0.10415 0.93394 0.87258 0.0
H298 H 0.07824 0.87043 0.72732 0.0
C299 C 0.13758 0.95856 0.84294 0.0
C300 C 0.14919 0.95217 0.77134 0.0
H301 H 0.0959 0.94027 0.92774 0.0
H302 H 0.15311 0.98376 0.87527 0.0
C303 C 0.12824 0.91879 0.73141 0.0
C304 C 0.31852 0.71616 0.34571 0.0
C305 C 0.3332 0.67667 0.37618 0.0
H306 H 0.32307 0.76124 0.25846 0.0
C307 C 0.36514 0.65223 0.34097 0.0
H308 H 0.29373 0.73543 0.37169 0.0
C309 C 0.3814 0.66658 0.27548 0.0
C310 C 0.3664 0.70592 0.24475 0.0
H311 H 0.37649 0.62134 0.36293 0.0
H312 H 0.40591 0.64714 0.24913 0.0
C313 C 0.33516 0.73079 0.28093 0.0
C314 C 0.80463 0.84339 0.5277 0.0
C315 C 0.82199 0.88106 0.49541 0.0
H316 H 0.80785 0.79856 0.61566 0.0
C317 C 0.85612 0.90344 0.52935 0.0
H318 H 0.77823 0.82565 0.50263 0.0
C319 C 0.87247 0.88847 0.59471 0.0
C320 C 0.85539 0.85048 0.62649 0.0
H321 H 0.86965 0.93291 0.50593 0.0
H322 H 0.89906 0.90598 0.61962 0.0
C323 C 0.82143 0.82803 0.5923 0.0
C324 C 0.71033 0.34587 0.84243 0.0
C325 C 0.69402 0.38428 0.87468 0.0
H326 H 0.70621 0.30061 0.75408 0.0
C327 C 0.66084 0.40753 0.84032 0.0
H328 H 0.7361 0.32756 0.86774 0.0
C329 C 0.6445 0.39274 0.77439 0.0
C330 C 0.66059 0.35405 0.7426 0.0
H331 H 0.64821 0.43759 0.86376 0.0
H332 H 0.61873 0.41097 0.74896 0.0
C333 C 0.69347 0.33065 0.7774 0.0
C334 C 0.17155 0.19802 0.97713 0.0
C335 C 0.20402 0.16594 0.9816 0.0
H336 H 0.12795 0.23989 0.03398 0.0
C337 C 0.21838 0.15264 0.04979 0.0
H338 H 0.16026 0.20964 0.92571 0.0
C339 C 0.2003 0.17049 0.11179 0.0
C340 C 0.16711 0.2016 0.10705 0.0
H341 H 0.24278 0.12745 0.05549 0.0
H342 H 0.21118 0.15872 0.16339 0.0
C343 C 0.15324 0.21554 0.03913 0.0
C344 C 0.28686 0.71555 0.7861 0.0
C345 C 0.29896 0.67372 0.76074 0.0
H346 H 0.30332 0.77125 0.85157 0.0
C347 C 0.33834 0.65565 0.78295 0.0
H348 H 0.25672 0.73027 0.76933 0.0
C349 C 0.36573 0.67979 0.82852 0.0
C350 C 0.35355 0.72178 0.85355 0.0
H351 H 0.34856 0.62369 0.76311 0.0
H352 H 0.39602 0.6654 0.84487 0.0
C353 C 0.3136 0.73908 0.83274 0.0
C354 C 0.84055 0.89344 0.08005 0.0
C355 C 0.80248 0.87472 0.1062 0.0
H356 H 0.89648 0.88392 1.01483 0.0
C357 C 0.79159 0.83138 0.08612 0.0
H358 H 0.84983 0.92664 0.09549 0.0
C359 C 0.81787 0.8073 0.04016 0.0
C360 C 0.85619 0.82558 1.01463 0.0
H361 H 0.76246 0.8161 0.10563 0.0
H362 H 0.80826 0.77418 1.02469 0.0
C363 C 0.86752 0.8688 0.03508 0.0
C364 C 0.73042 0.32956 0.27782 0.0
C365 C 0.72148 0.37379 0.26141 0.0
H366 H 0.71183 0.27221 0.33658 0.0
C367 C 0.68504 0.39395 0.29119 0.0
H368 H 0.75827 0.31318 0.2555 0.0
C369 C 0.65773 0.36999 0.33594 0.0
C370 C 0.66699 0.32588 0.3527 0.0
H371 H 0.67722 0.42789 0.27882 0.0
H372 H 0.63019 0.38638 0.35895 0.0
C373 C 0.70379 0.30606 0.32384 0.0
C374 C 0.19743 0.24623 0.56267 0.0
C375 C 0.16422 0.2269 0.52206 0.0
H376 H 0.25037 0.23665 0.63355 0.0
C377 C 0.15892 0.18081 0.52361 0.0
H378 H 0.20241 0.28163 0.56275 0.0
C379 C 0.18712 0.1546 0.5641 0.0
C380 C 0.22058 0.17427 0.60407 0.0
H381 H 0.13382 0.16499 0.49229 0.0
H382 H 0.18252 0.11917 0.56468 0.0
C383 C 0.22512 0.22034 0.60315 0.0
C384 C 0.35481 0.8989 0.80072 0.0
C385 C 0.39242 0.91165 0.83754 0.0
H386 H 0.3032 0.91987 0.73197 0.0
C387 C 0.41247 0.9514 0.81912 0.0
H388 H 0.33885 0.8683 0.81407 0.0
C389 C 0.39324 0.97977 0.76967 0.0
C390 C 0.35299 0.96958 0.73916 0.0
H391 H 0.44181 0.9616 0.84603 0.0
H392 H 0.40752 1.01194 0.7616 0.0
C393 C 0.3349 0.92796 0.75256 0.0
C394 C 0.55296 0.88376 1.01531 0.0
C395 C 0.56161 0.83985 0.99536 0.0
H396 H 0.56979 0.93807 0.08462 0.0
C397 C 0.59987 0.82029 1.0199 0.0
H398 H 0.52328 0.89936 0.99861 0.0
C399 C 0.62676 0.84277 0.06855 0.0
C400 C 0.61509 0.88457 0.09475 0.0
H401 H 0.60656 0.78599 1.00762 0.0
H402 H 0.65458 0.82607 0.09053 0.0
C403 C 0.57904 0.90565 0.0655 0.0
C404 C 0.6825 0.11364 0.26599 0.0
C405 C 0.66584 0.07057 0.26177 0.0
H406 H 0.67865 0.17715 0.31799 0.0
C407 C 0.62807 0.06072 0.29925 0.0
H408 H 0.71243 0.12163 0.23973 0.0
C409 C 0.60986 0.09165 0.34574 0.0
C410 C 0.62862 0.13341 0.35495 0.0
H411 H 0.6151 0.02754 0.29822 0.0
H412 H 0.58248 0.08212 0.37758 0.0
C413 C 0.66366 0.14507 0.31174 0.0
C414 C 0.42357 0.22525 0.52501 0.0
C415 C 0.46315 0.20816 0.50197 0.0
H416 H 0.36779 0.21523 0.59056 0.0
C417 C 0.47413 0.16478 0.52096 0.0
H418 H 0.41504 0.25914 0.51353 0.0
C419 C 0.44839 0.14074 0.56796 0.0
C420 C 0.41045 0.1591 0.59504 0.0
H421 H 0.50481 0.15107 0.50539 0.0
H422 H 0.45907 0.10865 0.58589 0.0
C423 C 0.39703 0.20055 0.57022 0.0
C424 C 0.91043 0.59282 0.02759 0.0
C425 C 0.89127 0.63388 1.01468 0.0
H426 H 0.9053 0.53035 0.07931 0.0
C427 C 0.85524 0.64631 0.05514 0.0
H428 H 0.93852 0.58275 0.99775 0.0
C429 C 0.83591 0.61607 0.10172 0.0
C430 C 0.8531 0.57352 0.10988 0.0
H431 H 0.83992 0.67786 0.04594 0.0
H432 H 0.80529 0.62437 0.12557 0.0
C433 C 0.89181 0.56318 0.07529 0.0
C434 C 0.9259 0.32696 0.33728 0.0
C435 C 0.96826 0.34163 0.34874 0.0
H436 H 0.86643 0.33734 0.28032 0.0
C437 C 0.98107 0.38195 0.31887 0.0
H438 H 0.91567 0.29529 0.35759 0.0
C439 C 0.9538 0.40477 0.27243 0.0
C440 C 0.91275 0.38827 0.25621 0.0
H441 H 0.01394 0.39333 0.32521 0.0
H442 H 0.96556 0.43409 0.24616 0.0
C443 C 0.89808 0.35055 0.29206 0.0
C444 C 0.13657 0.4988 0.5078 0.0
C445 C 0.16264 0.48779 0.56693 0.0
H446 H 0.10216 0.4758 0.41505 0.0
C447 C 0.16795 0.4431 0.58408 0.0
H448 H 0.13217 0.53295 0.49277 0.0
C449 C 0.1501 0.41018 0.53929 0.0
C450 C 0.12761 0.42174 0.4764 0.0
H451 H 0.18873 0.43362 0.62805 0.0
H452 H 0.15652 0.37582 0.55072 0.0
C453 C 0.11976 0.46624 0.46264 0.0
C454 C 0.12394 0.70734 0.78209 0.0
C455 C 0.11163 0.66747 0.74904 0.0
H456 H 0.10425 0.76109 0.84995 0.0
C457 C 0.0743 0.64612 0.77199 0.0
H458 H 0.15283 0.72414 0.76513 0.0
C459 C 0.04787 0.66599 0.82314 0.0
C460 C 0.05756 0.70817 0.85069 0.0
H461 H 0.06463 0.61509 0.74774 0.0
H462 H 0.01752 0.65037 0.83544 0.0
C463 C 0.09673 0.72792 0.83181 0.0
loop_
_geom_bond_atom_site_label_1
_geom_bond_atom_site_label_2
_geom_bond_distance
_geom_bond_site_symmetry_2
_ccdc_geom_bond_type
Co0 N4 2.148 . S
Co0 N10 2.128 . S
Co0 N20 2.194 1_556 S
Co0 O25 2.351 1_556 S
Co0 O26 2.155 . S
Co0 O27 2.096 . S
C1 N4 1.301 1_554 S
C1 N5 1.328 . S
C1 H6 0.930 . S
C2 C3 1.333 . S
C2 N4 1.317 . S
C2 H7 0.930 . S
C3 C2 1.333 . S
C3 N5 1.350 1_556 S
C3 H29 0.931 . S
N4 Co0 2.148 . S
N4 C1 1.301 1_556 S
N4 C2 1.317 . S
N5 C1 1.328 . S
N5 C3 1.350 1_554 S
H6 C1 0.930 . S
H7 C2 0.930 . S
C8 O9 1.224 . S
C8 O27 1.247 . S
O9 C8 1.224 . S
N10 Co0 2.128 . S
N10 C11 1.355 1_556 S
N10 C13 1.311 . S
C11 N10 1.355 1_554 S
C11 C12 1.363 . S
C11 H23 0.929 . S
C12 C11 1.363 . S
C12 N14 1.375 1_554 S
C12 H30 0.931 . S
C13 N10 1.311 . S
C13 N14 1.347 . S
C13 H24 0.929 . S
N14 C12 1.375 1_556 S
N14 C13 1.347 . S
C15 C18 1.365 . S
C15 N20 1.328 . S
C15 H21 0.929 . S
C16 C17 1.362 . S
C16 C19 1.378 . S
C16 H31 0.929 . S
C17 C16 1.362 . S
C17 C18 1.366 . S
C18 C15 1.365 . S
C18 C17 1.366 . S
C18 H32 0.930 . S
C19 C16 1.378 . S
C19 N20 1.315 . S
C19 H22 0.930 . S
N20 Co0 2.194 1_554 S
N20 C15 1.328 . S
N20 C19 1.315 . S
H21 C15 0.929 . S
H22 C19 0.930 . S
H23 C11 0.929 . S
H24 C13 0.929 . S
O25 Co0 2.351 1_554 S
O25 C28 1.244 . S
O26 Co0 2.155 . S
O26 C28 1.240 1_556 S
O27 Co0 2.096 . S
O27 C8 1.247 . S
C28 O25 1.244 . S
C28 O26 1.240 1_554 S
H29 C3 0.931 . S
H30 C12 0.931 . S
H31 C16 0.929 . S
H32 C18 0.930 . S
Co33 N37 2.148 . S
Co33 N43 2.128 . S
Co33 N53 2.194 . S
Co33 O58 2.351 . S
Co33 O59 2.155 . S
Co33 O60 2.096 . S
C34 N37 1.301 1_545 S
C34 N38 1.328 . S
C34 H39 0.930 . S
C35 C36 1.333 1_565 S
C35 N37 1.317 . S
C35 H40 0.930 . S
C36 C35 1.333 1_545 S
C36 N38 1.350 . S
C36 H62 0.931 . S
N37 Co33 2.148 . S
N37 C34 1.301 1_565 S
N37 C35 1.317 . S
N38 C34 1.328 . S
N38 C36 1.350 . S
H39 C34 0.930 . S
H40 C35 0.930 . S
C41 O42 1.224 . S
C41 O60 1.247 . S
O42 C41 1.224 . S
N43 Co33 2.128 . S
N43 C44 1.355 . S
N43 C46 1.311 . S
C44 N43 1.355 . S
C44 C45 1.363 . S
C44 H56 0.929 . S
C45 C44 1.363 . S
C45 N47 1.375 . S
C45 H63 0.931 . S
C46 N43 1.311 . S
C46 N47 1.347 . S
C46 H57 0.929 . S
N47 C45 1.375 . S
N47 C46 1.347 . S
C48 C51 1.365 . S
C48 N53 1.328 . S
C48 H54 0.929 . S
C49 C50 1.362 . S
C49 C52 1.378 . S
C49 H64 0.929 . S
C50 C49 1.362 . S
C50 C51 1.366 . S
C51 C48 1.365 . S
C51 C50 1.366 . S
C51 H65 0.930 . S
C52 C49 1.378 . S
C52 N53 1.315 . S
C52 H55 0.930 . S
N53 Co33 2.194 . S
N53 C48 1.328 . S
N53 C52 1.315 . S
H54 C48 0.929 . S
H55 C52 0.930 . S
H56 C44 0.929 . S
H57 C46 0.929 . S
O58 Co33 2.351 . S
O58 C61 1.244 1_565 S
O59 Co33 2.155 . S
O59 C61 1.240 1_565 S
O60 Co33 2.096 . S
O60 C41 1.247 . S
C61 O58 1.244 1_545 S
C61 O59 1.240 1_545 S
H62 C36 0.931 . S
H63 C45 0.931 . S
H64 C49 0.929 . S
H65 C51 0.930 . S
Co66 N70 2.148 . S
Co66 N76 2.128 . S
Co66 N86 2.194 . S
Co66 O91 2.351 . S
Co66 O92 2.155 . S
Co66 O93 2.096 . S
C67 N70 1.301 . S
C67 N71 1.328 . S
C67 H72 0.930 . S
C68 C69 1.333 . S
C68 N70 1.317 . S
C68 H73 0.930 . S
C69 C68 1.333 . S
C69 N71 1.350 . S
C69 H95 0.931 . S
N70 Co66 2.148 . S
N70 C67 1.301 . S
N70 C68 1.317 . S
N71 C67 1.328 . S
N71 C69 1.350 . S
H72 C67 0.930 . S
H73 C68 0.930 . S
C74 O75 1.224 . S
C74 O93 1.247 . S
O75 C74 1.224 . S
N76 Co66 2.128 . S
N76 C77 1.355 . S
N76 C79 1.311 . S
C77 N76 1.355 . S
C77 C78 1.363 . S
C77 H89 0.929 . S
C78 C77 1.363 . S
C78 N80 1.375 . S
C78 H96 0.931 . S
C79 N76 1.311 . S
C79 N80 1.347 . S
C79 H90 0.929 . S
N80 C78 1.375 . S
N80 C79 1.347 . S
C81 C84 1.365 . S
C81 N86 1.328 . S
C81 H87 0.929 . S
C82 C83 1.362 . S
C82 C85 1.378 . S
C82 H97 0.929 . S
C83 C82 1.362 . S
C83 C84 1.366 . S
C84 C81 1.365 . S
C84 C83 1.366 . S
C84 H98 0.930 . S
C85 C82 1.378 . S
C85 N86 1.315 . S
C85 H88 0.930 . S
N86 Co66 2.194 . S
N86 C81 1.328 . S
N86 C85 1.315 . S
H87 C81 0.929 . S
H88 C85 0.930 . S
H89 C77 0.929 . S
H90 C79 0.929 . S
O91 Co66 2.351 . S
O91 C94 1.244 . S
O92 Co66 2.155 . S
O92 C94 1.240 . S
O93 Co66 2.096 . S
O93 C74 1.247 . S
C94 O91 1.244 . S
C94 O92 1.240 . S
H95 C69 0.931 . S
H96 C78 0.931 . S
H97 C82 0.929 . S
H98 C84 0.930 . S
Co99 N103 2.148 . S
Co99 N109 2.128 . S
Co99 N119 2.194 . S
Co99 O124 2.351 . S
Co99 O125 2.155 . S
Co99 O126 2.096 . S
C100 N103 1.301 1_565 S
C100 N104 1.328 . S
C100 H105 0.930 . S
C101 C102 1.333 1_545 S
C101 N103 1.317 . S
C101 H106 0.930 . S
C102 C101 1.333 1_565 S
C102 N104 1.350 . S
C102 H128 0.931 . S
N103 Co99 2.148 . S
N103 C100 1.301 1_545 S
N103 C101 1.317 . S
N104 C100 1.328 . S
N104 C102 1.350 . S
H105 C100 0.930 . S
H106 C101 0.930 . S
C107 O108 1.224 . S
C107 O126 1.247 . S
O108 C107 1.224 . S
N109 Co99 2.128 . S
N109 C110 1.355 . S
N109 C112 1.311 . S
C110 N109 1.355 . S
C110 C111 1.363 . S
C110 H122 0.929 . S
C111 C110 1.363 . S
C111 N113 1.375 . S
C111 H129 0.931 . S
C112 N109 1.311 . S
C112 N113 1.347 . S
C112 H123 0.929 . S
N113 C111 1.375 . S
N113 C112 1.347 . S
C114 C117 1.365 . S
C114 N119 1.328 . S
C114 H120 0.929 . S
C115 C116 1.362 . S
C115 C118 1.378 . S
C115 H130 0.929 . S
C116 C115 1.362 . S
C116 C117 1.366 . S
C117 C114 1.365 . S
C117 C116 1.366 . S
C117 H131 0.930 . S
C118 C115 1.378 . S
C118 N119 1.315 . S
C118 H121 0.930 . S
N119 Co99 2.194 . S
N119 C114 1.328 . S
N119 C118 1.315 . S
H120 C114 0.929 . S
H121 C118 0.930 . S
H122 C110 0.929 . S
H123 C112 0.929 . S
O124 Co99 2.351 . S
O124 C127 1.244 1_545 S
O125 Co99 2.155 . S
O125 C127 1.240 1_545 S
O126 Co99 2.096 . S
O126 C107 1.247 . S
C127 O124 1.244 1_565 S
C127 O125 1.240 1_565 S
H128 C102 0.931 . S
H129 C111 0.931 . S
H130 C115 0.929 . S
H131 C117 0.930 . S
Co132 N136 2.148 . S
Co132 N142 2.128 . S
Co132 N152 2.194 . S
Co132 O157 2.351 . S
Co132 O158 2.155 . S
Co132 O159 2.096 . S
C133 N136 1.301 1_455 S
C133 N137 1.328 . S
C133 H138 0.930 . S
C134 C135 1.333 1_655 S
C134 N136 1.317 . S
C134 H139 0.930 . S
C135 C134 1.333 1_455 S
C135 N137 1.350 . S
C135 H161 0.931 . S
N136 Co132 2.148 . S
N136 C133 1.301 1_655 S
N136 C134 1.317 . S
N137 C133 1.328 . S
N137 C135 1.350 . S
H138 C133 0.930 . S
H139 C134 0.930 . S
C140 O141 1.224 . S
C140 O159 1.247 . S
O141 C140 1.224 . S
N142 Co132 2.128 . S
N142 C143 1.355 . S
N142 C145 1.311 . S
C143 N142 1.355 . S
C143 C144 1.363 . S
C143 H155 0.929 . S
C144 C143 1.363 . S
C144 N146 1.375 . S
C144 H162 0.931 . S
C145 N142 1.311 . S
C145 N146 1.347 . S
C145 H156 0.929 . S
N146 C144 1.375 . S
N146 C145 1.347 . S
C147 C150 1.365 . S
C147 N152 1.328 . S
C147 H153 0.929 . S
C148 C149 1.362 . S
C148 C151 1.378 . S
C148 H163 0.929 . S
C149 C148 1.362 . S
C149 C150 1.366 . S
C150 C147 1.365 . S
C150 C149 1.366 . S
C150 H164 0.930 . S
C151 C148 1.378 . S
C151 N152 1.315 . S
C151 H154 0.930 . S
N152 Co132 2.194 . S
N152 C147 1.328 . S
N152 C151 1.315 . S
H153 C147 0.929 . S
H154 C151 0.930 . S
H155 C143 0.929 . S
H156 C145 0.929 . S
O157 Co132 2.351 . S
O157 C160 1.244 1_655 S
O158 Co132 2.155 . S
O158 C160 1.240 1_655 S
O159 Co132 2.096 . S
O159 C140 1.247 . S
C160 O157 1.244 1_455 S
C160 O158 1.240 1_455 S
H161 C135 0.931 . S
H162 C144 0.931 . S
H163 C148 0.929 . S
H164 C150 0.930 . S
Co165 N169 2.148 . S
Co165 N175 2.128 . S
Co165 N185 2.194 1_554 S
Co165 O190 2.351 1_554 S
Co165 O191 2.155 . S
Co165 O192 2.096 . S
C166 N169 1.301 . S
C166 N170 1.328 . S
C166 H171 0.930 1_554 S
C167 C168 1.333 . S
C167 N169 1.317 . S
C167 H172 0.930 . S
C168 C167 1.333 . S
C168 N170 1.350 . S
C168 H194 0.931 . S
N169 Co165 2.148 . S
N169 C166 1.301 . S
N169 C167 1.317 . S
N170 C166 1.328 . S
N170 C168 1.350 . S
H171 C166 0.930 1_556 S
H172 C167 0.930 . S
C173 O174 1.224 . S
C173 O192 1.247 . S
O174 C173 1.224 . S
N175 Co165 2.128 . S
N175 C176 1.355 . S
N175 C178 1.311 . S
C176 N175 1.355 . S
C176 C177 1.363 . S
C176 H188 0.929 1_554 S
C177 C176 1.363 . S
C177 N179 1.375 . S
C177 H195 0.931 . S
C178 N175 1.311 . S
C178 N179 1.347 . S
C178 H189 0.929 . S
N179 C177 1.375 . S
N179 C178 1.347 . S
C180 C183 1.365 . S
C180 N185 1.328 . S
C180 H186 0.929 . S
C181 C182 1.362 . S
C181 C184 1.378 . S
C181 H196 0.929 . S
C182 C181 1.362 . S
C182 C183 1.366 . S
C183 C180 1.365 . S
C183 C182 1.366 . S
C183 H197 0.930 . S
C184 C181 1.378 . S
C184 N185 1.315 . S
C184 H187 0.930 1_556 S
N185 Co165 2.194 1_556 S
N185 C180 1.328 . S
N185 C184 1.315 . S
H186 C180 0.929 . S
H187 C184 0.930 1_554 S
H188 C176 0.929 1_556 S
H189 C178 0.929 . S
O190 Co165 2.351 1_556 S
O190 C193 1.244 1_556 S
O191 Co165 2.155 . S
O191 C193 1.240 . S
O192 Co165 2.096 . S
O192 C173 1.247 . S
C193 O190 1.244 1_554 S
C193 O191 1.240 . S
H194 C168 0.931 . S
H195 C177 0.931 . S
H196 C181 0.929 . S
H197 C183 0.930 . S
Co198 N202 2.148 . S
Co198 N208 2.128 . S
Co198 N218 2.194 . S
Co198 O223 2.351 . S
Co198 O224 2.155 . S
Co198 O225 2.096 . S
C199 N202 1.301 1_655 S
C199 N203 1.328 . S
C199 H204 0.930 . S
C200 C201 1.333 1_455 S
C200 N202 1.317 . S
C200 H205 0.930 . S
C201 C200 1.333 1_655 S
C201 N203 1.350 . S
C201 H227 0.931 . S
N202 Co198 2.148 . S
N202 C199 1.301 1_455 S
N202 C200 1.317 . S
N203 C199 1.328 . S
N203 C201 1.350 . S
H204 C199 0.930 . S
H205 C200 0.930 . S
C206 O207 1.224 . S
C206 O225 1.247 . S
O207 C206 1.224 . S
N208 Co198 2.128 . S
N208 C209 1.355 . S
N208 C211 1.311 . S
C209 N208 1.355 . S
C209 C210 1.363 . S
C209 H221 0.929 . S
C210 C209 1.363 . S
C210 N212 1.375 . S
C210 H228 0.931 . S
C211 N208 1.311 . S
C211 N212 1.347 . S
C211 H222 0.929 . S
N212 C210 1.375 . S
N212 C211 1.347 . S
C213 C216 1.365 . S
C213 N218 1.328 . S
C213 H219 0.929 . S
C214 C215 1.362 . S
C214 C217 1.378 . S
C214 H229 0.929 . S
C215 C214 1.362 . S
C215 C216 1.366 . S
C216 C213 1.365 . S
C216 C215 1.366 . S
C216 H230 0.930 . S
C217 C214 1.378 . S
C217 N218 1.315 . S
C217 H220 0.930 . S
N218 Co198 2.194 . S
N218 C213 1.328 . S
N218 C217 1.315 . S
H219 C213 0.929 . S
H220 C217 0.930 . S
H221 C209 0.929 . S
H222 C211 0.929 . S
O223 Co198 2.351 . S
O223 C226 1.244 1_455 S
O224 Co198 2.155 . S
O224 C226 1.240 1_455 S
O225 Co198 2.096 . S
O225 C206 1.247 . S
C226 O223 1.244 1_655 S
C226 O224 1.240 1_655 S
H227 C201 0.931 . S
H228 C210 0.931 . S
H229 C214 0.929 . S
H230 C216 0.930 . S
Co231 N235 2.148 . S
Co231 N241 2.128 . S
Co231 N251 2.194 . S
Co231 O256 2.351 . S
Co231 O257 2.155 . S
Co231 O258 2.096 . S
C232 N235 1.301 . S
C232 N236 1.328 . S
C232 H237 0.930 . S
C233 C234 1.333 . S
C233 N235 1.317 . S
C233 H238 0.930 . S
C234 C233 1.333 . S
C234 N236 1.350 . S
C234 H260 0.931 . S
N235 Co231 2.148 . S
N235 C232 1.301 . S
N235 C233 1.317 . S
N236 C232 1.328 . S
N236 C234 1.350 . S
H237 C232 0.930 . S
H238 C233 0.930 . S
C239 O240 1.224 . S
C239 O258 1.247 . S
O240 C239 1.224 . S
N241 Co231 2.128 . S
N241 C242 1.355 . S
N241 C244 1.311 . S
C242 N241 1.355 . S
C242 C243 1.363 . S
C242 H254 0.929 . S
C243 C242 1.363 . S
C243 N245 1.375 . S
C243 H261 0.931 . S
C244 N241 1.311 . S
C244 N245 1.347 . S
C244 H255 0.929 . S
N245 C243 1.375 . S
N245 C244 1.347 . S
C246 C249 1.365 . S
C246 N251 1.328 . S
C246 H252 0.929 . S
C247 C248 1.362 . S
C247 C250 1.378 . S
C247 H262 0.929 . S
C248 C247 1.362 . S
C248 C249 1.366 . S
C249 C246 1.365 . S
C249 C248 1.366 . S
C249 H263 0.930 . S
C250 C247 1.378 . S
C250 N251 1.315 . S
C250 H253 0.930 . S
N251 Co231 2.194 . S
N251 C246 1.328 . S
N251 C250 1.315 . S
H252 C246 0.929 . S
H253 C250 0.930 . S
H254 C242 0.929 . S
H255 C244 0.929 . S
O256 Co231 2.351 . S
O256 C259 1.244 . S
O257 Co231 2.155 . S
O257 C259 1.240 . S
O258 Co231 2.096 . S
O258 C239 1.247 . S
C259 O256 1.244 . S
C259 O257 1.240 . S
H260 C234 0.931 . S
H261 C243 0.931 . S
H262 C247 0.929 . S
H263 C249 0.930 . S
C264 C265 1.387 . S
C264 H268 0.950 . S
C264 C273 1.390 . S
C265 C264 1.387 . S
C265 C267 1.387 1_554 S
H266 C273 0.950 . S
C267 C265 1.387 1_556 S
C267 C269 1.390 . S
C267 H271 0.950 . S
H268 C264 0.950 . S
C269 C267 1.390 . S
C269 C270 1.387 1_556 S
C269 H272 0.950 . S
C270 C269 1.387 1_554 S
C270 C273 1.387 . S
H271 C267 0.950 . S
H272 C269 0.950 . S
C273 C264 1.390 . S
C273 H266 0.950 . S
C273 C270 1.387 . S
C274 C275 1.387 . S
C274 H278 0.950 . S
C274 C283 1.390 . S
C275 C274 1.387 . S
C275 C277 1.387 . S
H276 C283 0.950 . S
C277 C275 1.387 . S
C277 C279 1.390 . S
C277 H281 0.950 . S
H278 C274 0.950 . S
C279 C277 1.390 . S
C279 C280 1.387 . S
C279 H282 0.950 . S
C280 C279 1.387 . S
C280 C283 1.387 . S
H281 C277 0.950 . S
H282 C279 0.950 . S
C283 C274 1.390 . S
C283 H276 0.950 . S
C283 C280 1.387 . S
C284 C285 1.387 . S
C284 H288 0.950 . S
C284 C293 1.390 . S
C285 C284 1.387 . S
C285 C287 1.387 . S
H286 C293 0.950 . S
C287 C285 1.387 . S
C287 C289 1.390 . S
C287 H291 0.950 . S
H288 C284 0.950 . S
C289 C287 1.390 . S
C289 C290 1.387 . S
C289 H292 0.950 . S
C290 C289 1.387 . S
C290 C293 1.387 . S
H291 C287 0.950 . S
H292 C289 0.950 . S
C293 C284 1.390 . S
C293 H286 0.950 . S
C293 C290 1.387 . S
C294 C295 1.387 . S
C294 H298 0.950 . S
C294 C303 1.390 . S
C295 C294 1.387 . S
C295 C297 1.387 . S
H296 C303 0.950 . S
C297 C295 1.387 . S
C297 C299 1.390 . S
C297 H301 0.950 . S
H298 C294 0.950 . S
C299 C297 1.390 . S
C299 C300 1.387 . S
C299 H302 0.950 . S
C300 C299 1.387 . S
C300 C303 1.387 . S
H301 C297 0.950 . S
H302 C299 0.950 . S
C303 C294 1.390 . S
C303 H296 0.950 . S
C303 C300 1.387 . S
C304 C305 1.387 . S
C304 H308 0.950 . S
C304 C313 1.390 . S
C305 C304 1.387 . S
C305 C307 1.387 . S
H306 C313 0.950 . S
C307 C305 1.387 . S
C307 C309 1.390 . S
C307 H311 0.950 . S
H308 C304 0.950 . S
C309 C307 1.390 . S
C309 C310 1.387 . S
C309 H312 0.950 . S
C310 C309 1.387 . S
C310 C313 1.387 . S
H311 C307 0.950 . S
H312 C309 0.950 . S
C313 C304 1.390 . S
C313 H306 0.950 . S
C313 C310 1.387 . S
C314 C315 1.387 . S
C314 H318 0.950 . S
C314 C323 1.390 . S
C315 C314 1.387 . S
C315 C317 1.387 . S
H316 C323 0.950 . S
C317 C315 1.387 . S
C317 C319 1.390 . S
C317 H321 0.950 . S
H318 C314 0.950 . S
C319 C317 1.390 . S
C319 C320 1.387 . S
C319 H322 0.950 . S
C320 C319 1.387 . S
C320 C323 1.387 . S
H321 C317 0.950 . S
H322 C319 0.950 . S
C323 C314 1.390 . S
C323 H316 0.950 . S
C323 C320 1.387 . S
C324 C325 1.387 . S
C324 H328 0.950 . S
C324 C333 1.390 . S
C325 C324 1.387 . S
C325 C327 1.387 . S
H326 C333 0.950 . S
C327 C325 1.387 . S
C327 C329 1.390 . S
C327 H331 0.950 . S
H328 C324 0.950 . S
C329 C327 1.390 . S
C329 C330 1.387 . S
C329 H332 0.950 . S
C330 C329 1.387 . S
C330 C333 1.387 . S
H331 C327 0.950 . S
H332 C329 0.950 . S
C333 C324 1.390 . S
C333 H326 0.950 . S
C333 C330 1.387 . S
C334 C335 1.387 . S
C334 H338 0.950 . S
C334 C343 1.390 1_556 S
C335 C334 1.387 . S
C335 C337 1.387 1_556 S
H336 C343 0.950 . S
C337 C335 1.387 1_554 S
C337 C339 1.390 . S
C337 H341 0.950 . S
H338 C334 0.950 . S
C339 C337 1.390 . S
C339 C340 1.387 . S
C339 H342 0.950 . S
C340 C339 1.387 . S
C340 C343 1.387 . S
H341 C337 0.950 . S
H342 C339 0.950 . S
C343 C334 1.390 1_554 S
C343 H336 0.950 . S
C343 C340 1.387 . S
C344 C345 1.387 . S
C344 H348 0.950 . S
C344 C353 1.390 . S
C345 C344 1.387 . S
C345 C347 1.387 . S
H346 C353 0.950 . S
C347 C345 1.387 . S
C347 C349 1.390 . S
C347 H351 0.950 . S
H348 C344 0.950 . S
C349 C347 1.390 . S
C349 C350 1.387 . S
C349 H352 0.950 . S
C350 C349 1.387 . S
C350 C353 1.387 . S
H351 C347 0.950 . S
H352 C349 0.950 . S
C353 C344 1.390 . S
C353 H346 0.950 . S
C353 C350 1.387 . S
C354 C355 1.387 1_556 S
C354 H358 0.950 . S
C354 C363 1.390 . S
C355 C354 1.387 1_554 S
C355 C357 1.387 . S
H356 C363 0.950 . S
C357 C355 1.387 . S
C357 C359 1.390 . S
C357 H361 0.950 . S
H358 C354 0.950 . S
C359 C357 1.390 . S
C359 C360 1.388 . S
C359 H362 0.950 . S
C360 C359 1.388 . S
C360 C363 1.387 1_554 S
H361 C357 0.950 . S
H362 C359 0.950 . S
C363 C354 1.390 . S
C363 H356 0.950 . S
C363 C360 1.387 1_556 S
C364 C365 1.387 . S
C364 H368 0.950 . S
C364 C373 1.390 . S
C365 C364 1.387 . S
C365 C367 1.387 . S
H366 C373 0.950 . S
C367 C365 1.387 . S
C367 C369 1.390 . S
C367 H371 0.950 . S
H368 C364 0.950 . S
C369 C367 1.390 . S
C369 C370 1.387 . S
C369 H372 0.950 . S
C370 C369 1.387 . S
C370 C373 1.387 . S
H371 C367 0.950 . S
H372 C369 0.950 . S
C373 C364 1.390 . S
C373 H366 0.950 . S
C373 C370 1.387 . S
C374 C375 1.387 . S
C374 H378 0.950 . S
C374 C383 1.390 . S
C375 C374 1.387 . S
C375 C377 1.387 . S
H376 C383 0.950 . S
C377 C375 1.387 . S
C377 C379 1.390 . S
C377 H381 0.950 . S
H378 C374 0.950 . S
C379 C377 1.390 . S
C379 C380 1.387 . S
C379 H382 0.950 . S
C380 C379 1.387 . S
C380 C383 1.387 . S
H381 C377 0.950 . S
H382 C379 0.950 . S
C383 C374 1.390 . S
C383 H376 0.950 . S
C383 C380 1.387 . S
C384 C385 1.387 . S
C384 H388 0.950 . S
C384 C393 1.390 . S
C385 C384 1.387 . S
C385 C387 1.387 . S
H386 C393 0.950 . S
C387 C385 1.387 . S
C387 C389 1.390 . S
C387 H391 0.950 . S
H388 C384 0.950 . S
C389 C387 1.390 . S
C389 C390 1.387 . S
C389 H392 0.950 . S
C390 C389 1.387 . S
C390 C393 1.387 . S
H391 C387 0.950 . S
H392 C389 0.950 . S
C393 C384 1.390 . S
C393 H386 0.950 . S
C393 C390 1.387 . S
C394 C395 1.387 . S
C394 H398 0.950 . S
C394 C403 1.390 . S
C395 C394 1.387 . S
C395 C397 1.387 . S
H396 C403 0.950 . S
C397 C395 1.387 . S
C397 C399 1.390 . S
C397 H401 0.950 . S
H398 C394 0.950 . S
C399 C397 1.390 . S
C399 C400 1.387 . S
C399 H402 0.950 . S
C400 C399 1.387 . S
C400 C403 1.387 . S
H401 C397 0.950 . S
H402 C399 0.950 . S
C403 C394 1.390 . S
C403 H396 0.950 . S
C403 C400 1.387 . S
C404 C405 1.387 . S
C404 H408 0.950 . S
C404 C413 1.390 . S
C405 C404 1.387 . S
C405 C407 1.387 . S
H406 C413 0.950 . S
C407 C405 1.387 . S
C407 C409 1.390 . S
C407 H411 0.950 . S
H408 C404 0.950 . S
C409 C407 1.390 . S
C409 C410 1.387 . S
C409 H412 0.950 . S
C410 C409 1.387 . S
C410 C413 1.387 . S
H411 C407 0.950 . S
H412 C409 0.950 . S
C413 C404 1.390 . S
C413 H406 0.950 . S
C413 C410 1.387 . S
C414 C415 1.387 . S
C414 H418 0.950 . S
C414 C423 1.390 . S
C415 C414 1.387 . S
C415 C417 1.387 . S
H416 C423 0.950 . S
C417 C415 1.387 . S
C417 C419 1.390 . S
C417 H421 0.950 . S
H418 C414 0.950 . S
C419 C417 1.390 . S
C419 C420 1.387 . S
C419 H422 0.950 . S
C420 C419 1.387 . S
C420 C423 1.387 . S
H421 C417 0.950 . S
H422 C419 0.950 . S
C423 C414 1.390 . S
C423 H416 0.950 . S
C423 C420 1.387 . S
C424 C425 1.387 . S
C424 H428 0.950 . S
C424 C433 1.390 . S
C425 C424 1.387 . S
C425 C427 1.387 . S
H426 C433 0.950 . S
C427 C425 1.387 . S
C427 C429 1.390 1_556 S
C427 H431 0.950 . S
H428 C424 0.950 . S
C429 C427 1.390 1_554 S
C429 C430 1.387 . S
C429 H432 0.950 . S
C430 C429 1.387 . S
C430 C433 1.387 1_554 S
H431 C427 0.950 . S
H432 C429 0.950 . S
C433 C424 1.390 . S
C433 H426 0.950 . S
C433 C430 1.387 1_556 S
C434 C435 1.387 . S
C434 H438 0.950 . S
C434 C443 1.390 . S
C435 C434 1.387 . S
C435 C437 1.387 . S
H436 C443 0.950 . S
C437 C435 1.387 . S
C437 C439 1.390 . S
C437 H441 0.950 . S
H438 C434 0.950 . S
C439 C437 1.390 . S
C439 C440 1.387 . S
C439 H442 0.950 . S
C440 C439 1.387 . S
C440 C443 1.387 . S
H441 C437 0.950 . S
H442 C439 0.950 . S
C443 C434 1.390 . S
C443 H436 0.950 . S
C443 C440 1.387 . S
C444 C445 1.387 . S
C444 H448 0.950 . S
C444 C453 1.390 . S
C445 C444 1.387 . S
C445 C447 1.387 . S
H446 C453 0.950 . S
C447 C445 1.387 . S
C447 C449 1.390 . S
C447 H451 0.950 . S
H448 C444 0.950 . S
C449 C447 1.390 . S
C449 C450 1.387 . S
C449 H452 0.950 . S
C450 C449 1.387 . S
C450 C453 1.387 . S
H451 C447 0.950 . S
H452 C449 0.950 . S
C453 C444 1.390 . S
C453 H446 0.950 . S
C453 C450 1.387 . S
C454 C455 1.387 . S
C454 H458 0.950 . S
C454 C463 1.390 . S
C455 C454 1.387 . S
C455 C457 1.387 . S
H456 C463 0.950 . S
C457 C455 1.387 . S
C457 C459 1.390 . S
C457 H461 0.950 . S
H458 C454 0.950 . S
C459 C457 1.390 . S
C459 C460 1.387 . S
C459 H462 0.950 . S
C460 C459 1.387 . S
C460 C463 1.387 . S
H461 C457 0.950 . S
H462 C459 0.950 . S
C463 C454 1.390 . S
C463 H456 0.950 . S
C463 C460 1.387 . S
C265 N170 1.300 . S
C270 N5 1.301 . S
C275 N203 1.300 . S
C280 N38 1.301 . S
C285 N71 1.301 . S
C290 N236 1.300 . S
C295 N137 1.301 . S
C300 N104 1.300 . S
C305 C248 0.979 . S
C310 C17 0.978 . S
C315 C50 0.980 . S
C320 C149 0.978 . S
C325 C182 0.979 . S
C330 C83 0.978 . S
C335 C116 0.980 . S
C340 C215 0.978 . S
C345 C239 1.760 . S
C350 C8 1.760 . S
C355 C41 1.762 . S
C360 C140 1.761 1_554 S
C365 C173 1.759 . S
C370 C74 1.759 . S
C375 C206 1.760 . S
C380 C107 1.760 . S
C385 N14 1.810 . S
C390 C127 1.795 . S
C395 C28 1.797 . S
C400 N47 1.810 . S
C405 C61 1.795 . S
C410 N80 1.809 . S
C415 C94 1.795 . S
C420 N113 1.810 . S
C425 N146 1.811 . S
C430 C193 1.797 . S
C435 C226 1.795 . S
C440 N179 1.810 . S
C445 C259 1.797 . S
C450 N212 1.810 . S
C455 N245 1.810 . S
C460 C160 1.795 . S
