# Generated by pormake.
# Topology pcu-h, (3)-cn, num edge types: 1
# Building blocks:
#     Node 0, Type 0, BuildingBlock: WUSLED_clean_sbu_0, # of connection points: 3
#     Node 1, Type 0, BuildingBlock: WUSLED_clean_sbu_0, # of connection points: 3
#     Node 2, Type 0, BuildingBlock: WUSLED_clean_sbu_0, # of connection points: 3
#     Node 3, Type 0, BuildingBlock: WUSLED_clean_sbu_0, # of connection points: 3
#     Node 4, Type 0, BuildingBlock: WUSLED_clean_sbu_0, # of connection points: 3
#     Node 5, Type 0, BuildingBlock: WUSLED_clean_sbu_0, # of connection points: 3
#     Node 6, Type 0, BuildingBlock: WUSLED_clean_sbu_0, # of connection points: 3
#     Node 7, Type 0, BuildingBlock: WUSLED_clean_sbu_0, # of connection points: 3
#     Node 8, Type 0, BuildingBlock: WUSLED_clean_sbu_0, # of connection points: 3
#     Node 9, Type 0, BuildingBlock: WUSLED_clean_sbu_0, # of connection points: 3
#     Node 10, Type 0, BuildingBlock: WUSLED_clean_sbu_0, # of connection points: 3
#     Node 11, Type 0, BuildingBlock: WUSLED_clean_sbu_0, # of connection points: 3
#     Node 12, Type 0, BuildingBlock: WUSLED_clean_sbu_0, # of connection points: 3
#     Node 13, Type 0, BuildingBlock: WUSLED_clean_sbu_0, # of connection points: 3
#     Node 14, Type 0, BuildingBlock: WUSLED_clean_sbu_0, # of connection points: 3
#     Node 15, Type 0, BuildingBlock: WUSLED_clean_sbu_0, # of connection points: 3
#     Node 16, Type 0, BuildingBlock: WUSLED_clean_sbu_0, # of connection points: 3
#     Node 17, Type 0, BuildingBlock: WUSLED_clean_sbu_0, # of connection points: 3
#     Edge 18, Type (0, 0), BuildingBlock: KIFKEQ_clean_linker_1, # of connection points: 2
#     Edge 19, Type (0, 0), BuildingBlock: KIFKEQ_clean_linker_1, # of connection points: 2
#     Edge 20, Type (0, 0), BuildingBlock: KIFKEQ_clean_linker_1, # of connection points: 2
#     Edge 21, Type (0, 0), BuildingBlock: KIFKEQ_clean_linker_1, # of connection points: 2
#     Edge 22, Type (0, 0), BuildingBlock: KIFKEQ_clean_linker_1, # of connection points: 2
#     Edge 23, Type (0, 0), BuildingBlock: KIFKEQ_clean_linker_1, # of connection points: 2
#     Edge 24, Type (0, 0), BuildingBlock: KIFKEQ_clean_linker_1, # of connection points: 2
#     Edge 25, Type (0, 0), BuildingBlock: KIFKEQ_clean_linker_1, # of connection points: 2
#     Edge 26, Type (0, 0), BuildingBlock: KIFKEQ_clean_linker_1, # of connection points: 2
#     Edge 27, Type (0, 0), BuildingBlock: KIFKEQ_clean_linker_1, # of connection points: 2
#     Edge 28, Type (0, 0), BuildingBlock: KIFKEQ_clean_linker_1, # of connection points: 2
#     Edge 29, Type (0, 0), BuildingBlock: KIFKEQ_clean_linker_1, # of connection points: 2
#     Edge 30, Type (0, 0), BuildingBlock: KIFKEQ_clean_linker_1, # of connection points: 2
#     Edge 31, Type (0, 0), BuildingBlock: KIFKEQ_clean_linker_1, # of connection points: 2
#     Edge 32, Type (0, 0), BuildingBlock: KIFKEQ_clean_linker_1, # of connection points: 2
#     Edge 33, Type (0, 0), BuildingBlock: KIFKEQ_clean_linker_1, # of connection points: 2
#     Edge 34, Type (0, 0), BuildingBlock: KIFKEQ_clean_linker_1, # of connection points: 2
#     Edge 35, Type (0, 0), BuildingBlock: KIFKEQ_clean_linker_1, # of connection points: 2
#     Edge 36, Type (0, 0), BuildingBlock: KIFKEQ_clean_linker_1, # of connection points: 2
#     Edge 37, Type (0, 0), BuildingBlock: KIFKEQ_clean_linker_1, # of connection points: 2
#     Edge 38, Type (0, 0), BuildingBlock: KIFKEQ_clean_linker_1, # of connection points: 2
#     Edge 39, Type (0, 0), BuildingBlock: KIFKEQ_clean_linker_1, # of connection points: 2
#     Edge 40, Type (0, 0), BuildingBlock: KIFKEQ_clean_linker_1, # of connection points: 2
#     Edge 41, Type (0, 0), BuildingBlock: KIFKEQ_clean_linker_1, # of connection points: 2
#     Edge 42, Type (0, 0), BuildingBlock: KIFKEQ_clean_linker_1, # of connection points: 2
#     Edge 43, Type (0, 0), BuildingBlock: KIFKEQ_clean_linker_1, # of connection points: 2
#     Edge 44, Type (0, 0), BuildingBlock: KIFKEQ_clean_linker_1, # of connection points: 2
# Relax obj value: 0.000
# Max RMSD: 0.008
# Mean RMSD: 0.007
data_MOF--net-pcu-h--node1-WUSLED_clean_sbu_0--edge1-KIFKEQ_clean_linker_1
_symmetry_space_group_name_H-M    P1
_symmetry_Int_Tables_number       1
_symmetry_cell_setting            triclinic
loop_
_symmetry_equiv_pos_as_xyz
'x, y, z'
_cell_length_a     116.86198
_cell_length_b     116.2432
_cell_length_c     35.65347
_cell_angle_alpha  90.000361
_cell_angle_beta   90.074344
_cell_angle_gamma 120.01507
loop_
_atom_site_label
_atom_site_type_symbol
_atom_site_fract_x
_atom_site_fract_y
_atom_site_fract_z
_atom_type_partial_charge
C0 C 0.25135 0.16479 0.04436 0.0
C1 C 0.24068 0.15811 0.0195 0.0
C2 C 0.23412 0.17481 0.02981 0.0
C3 C 0.23217 0.1631 0.01219 0.0
C4 C 0.2448 0.18137 0.05487 0.0
C5 C 0.25331 0.17642 0.062 0.0
U6 U 0.26072 0.13738 0.0521 0.0
O7 O 0.27925 0.13802 0.03589 0.0
O8 O 0.27288 0.13479 0.0947 0.0
C9 C 0.2823 0.13697 0.07075 0.0
C10 C 0.2607 0.16001 0.05204 0.0
C11 C 0.2961 0.14628 0.0826 0.0
C12 C 0.31217 0.16248 0.12632 0.0
C13 C 0.29906 0.15461 0.11407 0.0
C14 C 0.31961 0.1541 0.07538 0.0
C15 C 0.3226 0.16224 0.10731 0.0
C16 C 0.30653 0.14621 0.06329 0.0
C17 C 0.2341 0.10085 0.03073 0.0
C18 C 0.23677 0.08211 0.01265 0.0
C19 C 0.21569 0.07823 0.03599 0.0
C20 C 0.22093 0.09192 0.04027 0.0
C21 C 0.22351 0.07312 0.02198 0.0
C22 C 0.24204 0.09585 0.01709 0.0
C23 C 0.23902 0.11526 0.03415 0.0
O24 O 0.25826 0.1526 0.0821 0.0
O25 O 0.26435 0.15561 0.02307 0.0
O26 O 0.24782 0.12308 0.00938 0.0
O27 O 0.2416 0.12016 0.06832 0.0
H28 H 0.23893 0.14907 0.0057 0.0
H29 H 0.22396 0.15771 0.99309 0.0
H30 H 0.24672 0.19048 0.06857 0.0
H31 H 0.26151 0.18174 0.0812 0.0
H32 H 0.31412 0.16874 0.15074 0.0
H33 H 0.29126 0.15493 0.12959 0.0
H34 H 0.32734 0.15352 0.06031 0.0
H35 H 0.30452 0.1398 0.03916 0.0
H36 H 0.24311 0.07852 0.00216 0.0
H37 H 0.2054 0.07166 0.04294 0.0
H38 H 0.21461 0.09556 0.05064 0.0
H39 H 0.25226 0.10254 0.00965 0.0
C40 C 0.89319 0.09902 0.03719 0.0
C41 C 0.90093 0.09287 0.03706 0.0
C42 C 0.88182 0.07189 0.01727 0.0
C43 C 0.89527 0.0794 0.02731 0.0
C44 C 0.87419 0.07818 0.01737 0.0
C45 C 0.87982 0.09158 0.02721 0.0
U46 U 0.92144 0.13544 0.04874 0.0
O47 O 0.92105 0.15381 0.0364 0.0
O48 O 0.92463 0.14967 0.0939 0.0
C49 C 0.92232 0.15737 0.07185 0.0
C50 C 0.89865 0.11308 0.04795 0.0
C51 C 0.91312 0.16175 0.08584 0.0
C52 C 0.89948 0.16328 0.13521 0.0
C53 C 0.90736 0.15822 0.1217 0.0
C54 C 0.90281 0.17535 0.07723 0.0
C55 C 0.89717 0.17198 0.11323 0.0
C56 C 0.91072 0.17035 0.06382 0.0
C57 C 0.95713 0.14533 0.01969 0.0
C58 C 0.9772 0.16616 0.03372 0.0
C59 C 0.97784 0.15076 0.98918 0.0
C60 C 0.96433 0.14209 0.99468 0.0
C61 C 0.98449 0.16292 0.00863 0.0
C62 C 0.96363 0.15746 0.03912 0.0
C63 C 0.94293 0.13577 0.02513 0.0
O64 O 0.90656 0.11727 0.07725 0.0
O65 O 0.90276 0.12168 0.02024 0.0
O66 O 0.93476 0.13714 0.00269 0.0
O67 O 0.93874 0.13319 0.05999 0.0
H68 H 0.9113 0.09846 0.04454 0.0
H69 H 0.90146 0.07492 0.02722 0.0
H70 H 0.86378 0.0727 0.01041 0.0
H71 H 0.87367 0.09612 0.02725 0.0
H72 H 0.8952 0.16036 0.16291 0.0
H73 H 0.90904 0.15168 0.13958 0.0
H74 H 0.90143 0.18218 0.05973 0.0
H75 H 0.91517 0.17341 0.03632 0.0
H76 H 0.98196 0.17549 0.04887 0.0
H77 H 0.98312 0.14782 0.9701 0.0
H78 H 0.9595 0.13276 0.9795 0.0
H79 H 0.95824 0.16017 0.05847 0.0
C80 C 0.89517 0.80653 0.04528 0.0
C81 C 0.90241 0.81798 0.02341 0.0
C82 C 0.88476 0.82336 0.02904 0.0
C83 C 0.89724 0.8263 0.01528 0.0
C84 C 0.87762 0.81189 0.05112 0.0
C85 C 0.88277 0.80358 0.0591 0.0
U86 U 0.92298 0.79796 0.05076 0.0
O87 O 0.9269 0.7869 0.09419 0.0
O88 O 0.92244 0.77924 0.03662 0.0
C89 C 0.92466 0.77711 0.07137 0.0
C90 C 0.90024 0.79747 0.05379 0.0
C91 C 0.91611 0.76356 0.08595 0.0
C92 C 0.89532 0.74616 0.11184 0.0
C93 C 0.90303 0.75902 0.09718 0.0
C94 C 0.91368 0.74226 0.10377 0.0
C95 C 0.9006 0.73765 0.11562 0.0
C96 C 0.92132 0.75505 0.08915 0.0
C97 C 0.95836 0.82413 0.02081 0.0
C98 C 0.97821 0.82277 0.03206 0.0
C99 C 0.97923 0.84012 0.99217 0.0
C100 C 0.96573 0.83524 0.99794 0.0
C101 C 0.98568 0.83398 0.0092 0.0
C102 C 0.96466 0.81787 0.03774 0.0
C103 C 0.94421 0.81946 0.02695 0.0
O104 O 0.90401 0.79319 0.02482 0.0
O105 O 0.90841 0.80084 0.08239 0.0
O106 O 0.94025 0.81762 0.06204 0.0
O107 O 0.9359 0.81001 0.00442 0.0
H108 H 0.91204 0.82047 0.0126 0.0
H109 H 0.90309 0.83512 0.99858 0.0
H110 H 0.86792 0.80919 0.06177 0.0
H111 H 0.87702 0.79477 0.07596 0.0
H112 H 0.88534 0.74299 0.12091 0.0
H113 H 0.89883 0.76546 0.09491 0.0
H114 H 0.91801 0.73593 0.10556 0.0
H115 H 0.93138 0.75835 0.08046 0.0
H116 H 0.9828 0.81771 0.04527 0.0
H117 H 0.98466 0.84886 0.97485 0.0
H118 H 0.96105 0.84023 0.98473 0.0
H119 H 0.95913 0.80924 0.0554 0.0
C120 C 0.11019 0.23987 0.94947 0.0
C121 C 0.10508 0.22612 0.9527 0.0
C122 C 0.08307 0.22279 0.9655 0.0
C123 C 0.09164 0.21765 0.96055 0.0
C124 C 0.08833 0.23661 0.96251 0.0
C125 C 0.10173 0.24504 0.95457 0.0
U126 U 0.14656 0.24867 0.9409 0.0
O127 O 0.16125 0.26033 0.89763 0.0
O128 O 0.16466 0.2673 0.95597 0.0
C129 C 0.16866 0.27 0.92098 0.0
C130 C 0.12422 0.24903 0.94056 0.0
C131 C 0.17331 0.28379 0.90822 0.0
C132 C 0.17304 0.2997 0.86408 0.0
C133 C 0.16777 0.2866 0.87693 0.0
C134 C 0.18926 0.30742 0.91398 0.0
C135 C 0.18392 0.31027 0.88231 0.0
C136 C 0.18404 0.29435 0.92667 0.0
C137 C 0.15596 0.22212 0.96724 0.0
C138 C 0.17819 0.22529 0.966 0.0
C139 C 0.15982 0.20426 0.9863 0.0
C140 C 0.1512 0.20914 0.98024 0.0
C141 C 0.17345 0.21228 0.97948 0.0
C142 C 0.16952 0.23019 0.96 0.0
C143 C 0.14657 0.22697 0.962 0.0
O144 O 0.1324 0.25303 0.96921 0.0
O145 O 0.1289 0.24598 0.911 0.0
O146 O 0.14446 0.22922 0.92725 0.0
O147 O 0.14774 0.23621 0.98551 0.0
H148 H 0.11147 0.22194 0.94906 0.0
H149 H 0.08798 0.20709 0.96308 0.0
H150 H 0.08204 0.24092 0.9656 0.0
H151 H 0.10548 0.25562 0.95214 0.0
H152 H 0.16859 0.30154 0.83986 0.0
H153 H 0.15947 0.27869 0.8621 0.0
H154 H 0.19774 0.31526 0.92843 0.0
H155 H 0.18857 0.29245 0.95064 0.0
H156 H 0.18864 0.23178 0.96075 0.0
H157 H 0.15577 0.19414 0.99606 0.0
H158 H 0.14075 0.20275 0.98585 0.0
H159 H 0.17339 0.24026 0.95 0.0
C160 C 0.81764 0.94588 0.93909 0.0
C161 C 0.82744 0.95034 0.96701 0.0
C162 C 0.83298 0.97332 0.95595 0.0
C163 C 0.83504 0.96394 0.97536 0.0
C164 C 0.82333 0.96875 0.92746 0.0
C165 C 0.81575 0.9552 0.91922 0.0
U166 U 0.80982 0.90942 0.93311 0.0
O167 O 0.79133 0.89105 0.94637 0.0
O168 O 0.79904 0.8946 0.88888 0.0
C169 C 0.78925 0.88695 0.91134 0.0
C170 C 0.809 0.93161 0.93068 0.0
C171 C 0.77576 0.88196 0.89636 0.0
C172 C 0.75478 0.88169 0.89442 0.0
C173 C 0.7678 0.88723 0.90767 0.0
C174 C 0.75765 0.86579 0.85777 0.0
C175 C 0.74947 0.87078 0.86963 0.0
C176 C 0.77061 0.8713 0.87104 0.0
C177 C 0.83624 0.90041 0.96203 0.0
C178 C 0.83262 0.87793 0.96674 0.0
C179 C 0.85466 0.89678 0.97443 0.0
C180 C 0.84973 0.90541 0.96873 0.0
C181 C 0.84619 0.88292 0.97357 0.0
C182 C 0.82769 0.8866 0.96094 0.0
C183 C 0.83138 0.90981 0.95652 0.0
O184 O 0.81247 0.92697 0.90193 0.0
O185 O 0.80487 0.92348 0.95953 0.0
O186 O 0.82189 0.90843 0.97909 0.0
O187 O 0.82952 0.91207 0.92156 0.0
H188 H 0.8291 0.94332 0.98265 0.0
H189 H 0.84231 0.96707 0.99761 0.0
H190 H 0.82163 0.97565 0.91138 0.0
H191 H 0.8083 0.95197 0.89743 0.0
H192 H 0.74877 0.88575 0.90435 0.0
H193 H 0.77157 0.89549 0.92714 0.0
H194 H 0.75404 0.8576 0.83813 0.0
H195 H 0.77659 0.86712 0.86179 0.0
H196 H 0.82583 0.86733 0.96547 0.0
H197 H 0.86511 0.901 0.98017 0.0
H198 H 0.85648 0.91603 0.96977 0.0
H199 H 0.81724 0.88254 0.95565 0.0
C200 C 0.11115 0.88234 0.94892 0.0
C201 C 0.10638 0.89113 0.95499 0.0
C202 C 0.08414 0.87244 0.96579 0.0
C203 C 0.093 0.88622 0.96328 0.0
C204 C 0.08907 0.86372 0.96003 0.0
C205 C 0.10241 0.86864 0.95168 0.0
U206 U 0.14771 0.90971 0.93976 0.0
O207 O 0.16568 0.9087 0.95139 0.0
O208 O 0.16182 0.91299 0.89431 0.0
C209 C 0.16933 0.91037 0.91601 0.0
C210 C 0.12508 0.88716 0.939 0.0
C211 C 0.1736 0.90129 0.90035 0.0
C212 C 0.17581 0.88153 0.90409 0.0
C213 C 0.17075 0.88935 0.91822 0.0
C214 C 0.18637 0.89725 0.85359 0.0
C215 C 0.18377 0.88543 0.87172 0.0
C216 C 0.18138 0.90508 0.8678 0.0
C217 C 0.15831 0.94574 0.97017 0.0
C218 C 0.17643 0.96703 0.94893 0.0
C219 C 0.16578 0.96562 0.00829 0.0
C220 C 0.15736 0.95199 0.0027 0.0
C221 C 0.17536 0.97337 0.98135 0.0
C222 C 0.16801 0.95335 0.94343 0.0
C223 C 0.14862 0.9315 0.96428 0.0
O224 O 0.12967 0.89523 0.91008 0.0
O225 O 0.13347 0.89092 0.96714 0.0
O226 O 0.14973 0.92307 0.98642 0.0
O227 O 0.14583 0.92735 0.92937 0.0
H228 H 0.11299 0.90177 0.95313 0.0
H229 H 0.0896 0.89323 0.96798 0.0
H230 H 0.08255 0.85307 0.96118 0.0
H231 H 0.1059 0.86169 0.94698 0.0
H232 H 0.17348 0.87242 0.91853 0.0
H233 H 0.16475 0.88613 0.94335 0.0
H234 H 0.1926 0.90068 0.82894 0.0
H235 H 0.18381 0.91428 0.85367 0.0
H236 H 0.18379 0.97265 0.92781 0.0
H237 H 0.16452 0.97015 0.03331 0.0
H238 H 0.1499 0.94635 0.0236 0.0
H239 H 0.169 0.94877 0.91811 0.0
C240 C 0.91957 0.49945 0.37738 0.0
C241 C 0.90674 0.49082 0.36416 0.0
C242 C 0.90238 0.50928 0.36001 0.0
C243 C 0.89822 0.49569 0.35556 0.0
C244 C 0.91529 0.51784 0.37316 0.0
C245 C 0.92378 0.51297 0.38173 0.0
U246 U 0.92792 0.47157 0.38923 0.0
O247 O 0.94641 0.4716 0.37731 0.0
O248 O 0.93879 0.46839 0.43488 0.0
C249 C 0.94855 0.47021 0.41282 0.0
C250 C 0.92864 0.49456 0.38736 0.0
C251 C 0.96205 0.479 0.42745 0.0
C252 C 0.98336 0.49951 0.42632 0.0
C253 C 0.97039 0.49176 0.41282 0.0
C254 C 0.97973 0.48197 0.46962 0.0
C255 C 0.98821 0.49468 0.45484 0.0
C256 C 0.96683 0.47424 0.45604 0.0
C257 C 0.90087 0.4353 0.36574 0.0
C258 C 0.90131 0.41601 0.34049 0.0
C259 C 0.8826 0.41295 0.37724 0.0
C260 C 0.88855 0.4267 0.38193 0.0
C261 C 0.88879 0.4074 0.35598 0.0
C262 C 0.90729 0.42982 0.34527 0.0
C263 C 0.90625 0.44983 0.36877 0.0
O264 O 0.92545 0.48703 0.41742 0.0
O265 O 0.93263 0.49003 0.35948 0.0
O266 O 0.91564 0.45751 0.34517 0.0
O267 O 0.90822 0.45474 0.40291 0.0
H268 H 0.90332 0.48033 0.3606 0.0
H269 H 0.88842 0.48882 0.34511 0.0
H270 H 0.91879 0.52831 0.37753 0.0
H271 H 0.93363 0.51977 0.39208 0.0
H272 H 0.98957 0.5093 0.41456 0.0
H273 H 0.96693 0.4957 0.39082 0.0
H274 H 0.98315 0.47782 0.49115 0.0
H275 H 0.96061 0.4644 0.46761 0.0
H276 H 0.90634 0.41212 0.32374 0.0
H277 H 0.87309 0.40665 0.39022 0.0
H278 H 0.88339 0.43066 0.3978 0.0
H279 H 0.9168 0.43619 0.33237 0.0
C280 C 0.56164 0.43248 0.38374 0.0
C281 C 0.56757 0.4282 0.3571 0.0
C282 C 0.55048 0.40508 0.3674 0.0
C283 C 0.56201 0.41463 0.34891 0.0
C284 C 0.5447 0.40947 0.39428 0.0
C285 C 0.55022 0.423 0.4023 0.0
U286 U 0.58976 0.46902 0.39026 0.0
O287 O 0.58938 0.48734 0.37736 0.0
O288 O 0.5936 0.48371 0.43478 0.0
C289 C 0.59133 0.49135 0.41248 0.0
C290 C 0.56697 0.44669 0.39237 0.0
C291 C 0.58274 0.49623 0.4276 0.0
C292 C 0.56237 0.49721 0.42735 0.0
C293 C 0.56985 0.49164 0.41413 0.0
C294 C 0.5804 0.51173 0.46833 0.0
C295 C 0.56763 0.50747 0.45426 0.0
C296 C 0.58785 0.50619 0.45509 0.0
C297 C 0.62522 0.47836 0.36122 0.0
C298 C 0.64409 0.50084 0.36029 0.0
C299 C 0.6471 0.48219 0.34564 0.0
C300 C 0.6336 0.47349 0.35111 0.0
C301 C 0.65256 0.49599 0.35017 0.0
C302 C 0.63054 0.4921 0.36583 0.0
C303 C 0.61102 0.46888 0.36668 0.0
O304 O 0.57505 0.45136 0.42119 0.0
O305 O 0.57087 0.45487 0.36364 0.0
O306 O 0.60286 0.47025 0.3442 0.0
O307 O 0.60693 0.46654 0.40163 0.0
H308 H 0.57644 0.43535 0.34255 0.0
H309 H 0.5668 0.4116 0.32835 0.0
H310 H 0.53573 0.40246 0.40867 0.0
H311 H 0.54548 0.42609 0.42287 0.0
H312 H 0.55262 0.49373 0.41567 0.0
H313 H 0.56565 0.48393 0.39294 0.0
H314 H 0.58469 0.5194 0.48958 0.0
H315 H 0.59773 0.50985 0.46601 0.0
H316 H 0.64795 0.51138 0.3644 0.0
H317 H 0.65324 0.47809 0.33729 0.0
H318 H 0.62967 0.46292 0.3473 0.0
H319 H 0.62422 0.49604 0.37375 0.0
C320 C 0.56097 0.13872 0.3734 0.0
C321 C 0.56949 0.15248 0.37003 0.0
C322 C 0.55069 0.15572 0.35799 0.0
C323 C 0.5644 0.16091 0.36241 0.0
C324 C 0.54226 0.14189 0.361 0.0
C325 C 0.54735 0.13351 0.36864 0.0
U326 U 0.58877 0.13016 0.38151 0.0
O327 O 0.59209 0.11867 0.42486 0.0
O328 O 0.58841 0.11156 0.36665 0.0
C329 C 0.59004 0.10905 0.40158 0.0
C330 C 0.56599 0.12963 0.3822 0.0
C331 C 0.58131 0.09529 0.4148 0.0
C332 C 0.56321 0.07897 0.45325 0.0
C333 C 0.57067 0.09195 0.43925 0.0
C334 C 0.5767 0.07245 0.41776 0.0
C335 C 0.56626 0.06909 0.44311 0.0
C336 C 0.58412 0.08539 0.40387 0.0
C337 C 0.6245 0.1567 0.3549 0.0
C338 C 0.6445 0.15585 0.36835 0.0
C339 C 0.64546 0.17285 0.32707 0.0
C340 C 0.63188 0.16773 0.33177 0.0
C341 C 0.652 0.16705 0.34548 0.0
C342 C 0.63087 0.15072 0.37301 0.0
C343 C 0.61027 0.15186 0.36001 0.0
O344 O 0.57015 0.12564 0.35348 0.0
O345 O 0.57377 0.13274 0.41164 0.0
O346 O 0.60592 0.1497 0.39474 0.0
O347 O 0.60223 0.14259 0.33658 0.0
H348 H 0.58006 0.15671 0.37357 0.0
H349 H 0.57118 0.1715 0.36066 0.0
H350 H 0.53169 0.13749 0.35714 0.0
H351 H 0.54062 0.1229 0.37093 0.0
H352 H 0.55531 0.07678 0.47286 0.0
H353 H 0.56828 0.09942 0.44805 0.0
H354 H 0.57918 0.06508 0.40869 0.0
H355 H 0.59224 0.08772 0.38492 0.0
H356 H 0.64919 0.15118 0.3832 0.0
H357 H 0.65082 0.1813 0.3087 0.0
H358 H 0.62714 0.17245 0.31739 0.0
H359 H 0.62533 0.14217 0.39098 0.0
C360 C 0.77757 0.57353 0.28155 0.0
C361 C 0.77337 0.56146 0.30031 0.0
C362 C 0.75045 0.55656 0.29788 0.0
C363 C 0.75994 0.55305 0.30841 0.0
C364 C 0.75477 0.56865 0.27878 0.0
C365 C 0.76817 0.57703 0.27076 0.0
U366 U 0.81391 0.5822 0.27519 0.0
O367 O 0.82892 0.59398 0.23277 0.0
O368 O 0.83199 0.60067 0.29135 0.0
C369 C 0.83634 0.60342 0.2567 0.0
C370 C 0.79166 0.58271 0.27338 0.0
C371 C 0.84132 0.61725 0.24425 0.0
C372 C 0.8388 0.63413 0.21079 0.0
C373 C 0.83351 0.62098 0.22331 0.0
C374 C 0.85964 0.63995 0.24053 0.0
C375 C 0.85196 0.64379 0.2192 0.0
C376 C 0.85438 0.62685 0.25285 0.0
C377 C 0.8232 0.55569 0.30173 0.0
C378 C 0.84532 0.55869 0.29725 0.0
C379 C 0.82751 0.53838 0.32338 0.0
C380 C 0.81877 0.54314 0.31761 0.0
C381 C 0.84091 0.54609 0.31338 0.0
C382 C 0.83654 0.56346 0.29155 0.0
C383 C 0.8137 0.5604 0.29623 0.0
O384 O 0.79966 0.58661 0.30245 0.0
O385 O 0.79649 0.57971 0.24413 0.0
O386 O 0.81178 0.56276 0.26142 0.0
O387 O 0.81467 0.56952 0.31987 0.0
H388 H 0.78049 0.55859 0.30891 0.0
H389 H 0.75703 0.54391 0.32346 0.0
H390 H 0.74777 0.5716 0.26965 0.0
H391 H 0.77121 0.58628 0.25612 0.0
H392 H 0.83256 0.63675 0.19475 0.0
H393 H 0.82337 0.61374 0.21645 0.0
H394 H 0.86986 0.64703 0.24707 0.0
H395 H 0.8606 0.62417 0.26883 0.0
H396 H 0.85559 0.56495 0.28955 0.0
H397 H 0.8237 0.52856 0.33528 0.0
H398 H 0.8085 0.53698 0.32553 0.0
H399 H 0.84015 0.57321 0.27933 0.0
C400 C 0.48441 0.27967 0.28371 0.0
C401 C 0.49822 0.28554 0.28574 0.0
C402 C 0.50024 0.30677 0.30381 0.0
C403 C 0.50607 0.29898 0.29558 0.0
C404 C 0.48639 0.30077 0.30188 0.0
C405 C 0.47858 0.28739 0.29193 0.0
U406 U 0.47662 0.24342 0.27226 0.0
O407 O 0.45797 0.22488 0.28291 0.0
O408 O 0.46627 0.22934 0.22613 0.0
C409 C 0.45626 0.2213 0.24745 0.0
C410 C 0.47584 0.26565 0.27267 0.0
C411 C 0.44295 0.21671 0.23185 0.0
C412 C 0.42386 0.21942 0.22078 0.0
C413 C 0.43667 0.22428 0.23509 0.0
C414 C 0.42358 0.19949 0.19959 0.0
C415 C 0.41714 0.20695 0.20284 0.0
C416 C 0.43633 0.20433 0.21392 0.0
C417 C 0.50254 0.2338 0.3024 0.0
C418 C 0.50196 0.21305 0.28787 0.0
C419 C 0.51808 0.22849 0.33206 0.0
C420 C 0.51307 0.23708 0.32708 0.0
C421 C 0.51267 0.21638 0.31236 0.0
C422 C 0.49694 0.22168 0.28294 0.0
C423 C 0.49777 0.2433 0.29717 0.0
O424 O 0.47973 0.26152 0.24361 0.0
O425 O 0.47127 0.25699 0.30022 0.0
O426 O 0.48801 0.24164 0.319 0.0
O427 O 0.4964 0.24611 0.26232 0.0
H428 H 0.50292 0.27974 0.27966 0.0
H429 H 0.51668 0.30323 0.29717 0.0
H430 H 0.48156 0.30647 0.30746 0.0
H431 H 0.46795 0.28306 0.29041 0.0
H432 H 0.41928 0.2255 0.22346 0.0
H433 H 0.44164 0.23389 0.24876 0.0
H434 H 0.41867 0.18977 0.18656 0.0
H435 H 0.44098 0.19832 0.21128 0.0
H436 H 0.49761 0.20388 0.27199 0.0
H437 H 0.52614 0.2313 0.35166 0.0
H438 H 0.51749 0.24636 0.34251 0.0
H439 H 0.48878 0.21895 0.26375 0.0
C440 C 0.77756 0.21587 0.28522 0.0
C441 C 0.77265 0.22457 0.29057 0.0
C442 C 0.75051 0.20578 0.30203 0.0
C443 C 0.75924 0.21957 0.29883 0.0
C444 C 0.75558 0.19716 0.29699 0.0
C445 C 0.76895 0.20216 0.28867 0.0
U446 U 0.81395 0.24355 0.27628 0.0
O447 O 0.83208 0.24288 0.28815 0.0
O448 O 0.82821 0.24713 0.23104 0.0
C449 C 0.83589 0.2448 0.2529 0.0
C450 C 0.79153 0.22081 0.27539 0.0
C451 C 0.84048 0.23601 0.23744 0.0
C452 C 0.83948 0.21461 0.23293 0.0
C453 C 0.83444 0.22248 0.24686 0.0
C454 C 0.85648 0.23363 0.19958 0.0
C455 C 0.8506 0.2201 0.20917 0.0
C456 C 0.85147 0.24147 0.21357 0.0
C457 C 0.82394 0.2795 0.30654 0.0
C458 C 0.83962 0.30159 0.283 0.0
C459 C 0.83244 0.2988 0.34765 0.0
C460 C 0.82453 0.28511 0.34185 0.0
C461 C 0.83992 0.30728 0.31815 0.0
C462 C 0.83171 0.28786 0.27723 0.0
C463 C 0.81445 0.26517 0.30063 0.0
O464 O 0.79606 0.22886 0.24643 0.0
O465 O 0.79989 0.22467 0.3036 0.0
O466 O 0.81569 0.25683 0.32287 0.0
O467 O 0.81166 0.26095 0.26578 0.0
H468 H 0.77916 0.23521 0.28819 0.0
H469 H 0.75574 0.22652 0.30297 0.0
H470 H 0.74916 0.1865 0.29872 0.0
H471 H 0.77255 0.19528 0.28455 0.0
H472 H 0.83462 0.2042 0.24057 0.0
H473 H 0.8259 0.21803 0.26515 0.0
H474 H 0.86515 0.23826 0.18186 0.0
H475 H 0.85632 0.25189 0.20609 0.0
H476 H 0.84514 0.3078 0.25954 0.0
H477 H 0.8326 0.30275 0.37527 0.0
H478 H 0.81864 0.27891 0.36491 0.0
H479 H 0.83146 0.28385 0.24962 0.0
C480 C 0.58572 0.831 0.71463 0.0
C481 C 0.57385 0.8234 0.6949 0.0
C482 C 0.56873 0.84131 0.70026 0.0
C483 C 0.56544 0.82852 0.68769 0.0
C484 C 0.58065 0.84884 0.72006 0.0
C485 C 0.58904 0.84373 0.72712 0.0
U486 U 0.59371 0.80276 0.71945 0.0
O487 O 0.61191 0.80268 0.70406 0.0
O488 O 0.60483 0.79865 0.76217 0.0
C489 C 0.61424 0.80047 0.73862 0.0
C490 C 0.59474 0.82587 0.72254 0.0
C491 C 0.62793 0.8087 0.75219 0.0
C492 C 0.64722 0.83007 0.76727 0.0
C493 C 0.63405 0.82259 0.75501 0.0
C494 C 0.64816 0.80983 0.77425 0.0
C495 C 0.65448 0.82377 0.77675 0.0
C496 C 0.63506 0.80241 0.76208 0.0
C497 C 0.56672 0.76735 0.69097 0.0
C498 C 0.56813 0.7473 0.69919 0.0
C499 C 0.54951 0.74624 0.66614 0.0
C500 C 0.55478 0.75988 0.67164 0.0
C501 C 0.55608 0.73973 0.67991 0.0
C502 C 0.57342 0.761 0.70461 0.0
C503 C 0.57181 0.78166 0.69695 0.0
O504 O 0.59157 0.8178 0.75138 0.0
O505 O 0.59864 0.82184 0.69329 0.0
O506 O 0.58113 0.78976 0.67387 0.0
O507 O 0.57405 0.78576 0.73196 0.0
H508 H 0.57107 0.81351 0.68517 0.0
H509 H 0.55628 0.82238 0.67276 0.0
H510 H 0.58359 0.85877 0.72973 0.0
H511 H 0.59817 0.84976 0.74234 0.0
H512 H 0.65179 0.84078 0.76864 0.0
H513 H 0.6287 0.82763 0.74748 0.0
H514 H 0.65331 0.8046 0.78197 0.0
H515 H 0.63048 0.7917 0.76028 0.0
H516 H 0.57353 0.74266 0.70984 0.0
H517 H 0.54013 0.74073 0.65172 0.0
H518 H 0.54944 0.7646 0.66102 0.0
H519 H 0.58269 0.76662 0.71953 0.0
C520 C 0.2284 0.76635 0.71075 0.0
C521 C 0.2359 0.76184 0.69161 0.0
C522 C 0.21743 0.73901 0.69409 0.0
C523 C 0.23046 0.74829 0.68328 0.0
C524 C 0.21004 0.74365 0.71348 0.0
C525 C 0.21547 0.75716 0.72168 0.0
U526 U 0.25664 0.80275 0.71755 0.0
O527 O 0.25653 0.82108 0.70253 0.0
O528 O 0.26021 0.81772 0.76074 0.0
C529 C 0.25831 0.82535 0.73734 0.0
C530 C 0.2337 0.78055 0.7192 0.0
C531 C 0.24957 0.83028 0.75049 0.0
C532 C 0.22855 0.8267 0.77473 0.0
C533 C 0.23655 0.82163 0.7622 0.0
C534 C 0.2465 0.84908 0.76381 0.0
C535 C 0.23343 0.84051 0.77558 0.0
C536 C 0.25446 0.84401 0.75141 0.0
C537 C 0.29215 0.81176 0.69031 0.0
C538 C 0.31179 0.83344 0.69908 0.0
C539 C 0.31337 0.81613 0.66583 0.0
C540 C 0.29983 0.80752 0.671 0.0
C541 C 0.31958 0.82919 0.67993 0.0
C542 C 0.2982 0.82479 0.70423 0.0
C543 C 0.27794 0.80233 0.6957 0.0
O544 O 0.24163 0.78524 0.74835 0.0
O545 O 0.23786 0.78865 0.69029 0.0
O546 O 0.26987 0.80354 0.6724 0.0
O547 O 0.2737 0.80027 0.73054 0.0
H548 H 0.24593 0.76879 0.68303 0.0
H549 H 0.23649 0.74507 0.66867 0.0
H550 H 0.19993 0.73686 0.72174 0.0
H551 H 0.2095 0.76045 0.73636 0.0
H552 H 0.21851 0.8198 0.78325 0.0
H553 H 0.23258 0.81098 0.76159 0.0
H554 H 0.25068 0.85975 0.76464 0.0
H555 H 0.2645 0.85086 0.74263 0.0
H556 H 0.31623 0.84338 0.71062 0.0
H557 H 0.31895 0.81256 0.65036 0.0
H558 H 0.29533 0.79752 0.65988 0.0
H559 H 0.29243 0.82825 0.71923 0.0
C560 C 0.22922 0.47352 0.70739 0.0
C561 C 0.23784 0.48711 0.70094 0.0
C562 C 0.21907 0.49052 0.6904 0.0
C563 C 0.23281 0.49553 0.6926 0.0
C564 C 0.21052 0.47685 0.69658 0.0
C565 C 0.21555 0.46847 0.70499 0.0
U566 U 0.25694 0.46494 0.71654 0.0
O567 O 0.2606 0.45421 0.76167 0.0
O568 O 0.25646 0.44612 0.70451 0.0
C569 C 0.25843 0.44423 0.73973 0.0
C570 C 0.2342 0.46448 0.7172 0.0
C571 C 0.24973 0.4308 0.75499 0.0
C572 C 0.22796 0.41169 0.76681 0.0
C573 C 0.2359 0.42456 0.75248 0.0
C574 C 0.24758 0.41126 0.78646 0.0
C575 C 0.23371 0.40487 0.78405 0.0
C576 C 0.25548 0.42407 0.77211 0.0
C577 C 0.2925 0.491 0.68754 0.0
C578 C 0.31193 0.48871 0.69638 0.0
C579 C 0.3139 0.50791 0.66393 0.0
C580 C 0.30036 0.50303 0.66878 0.0
C581 C 0.31991 0.50087 0.6778 0.0
C582 C 0.29835 0.48382 0.70123 0.0
C583 C 0.27832 0.4863 0.69269 0.0
O584 O 0.23815 0.46005 0.68899 0.0
O585 O 0.24218 0.46798 0.74629 0.0
O586 O 0.27414 0.48468 0.72755 0.0
O587 O 0.27018 0.47665 0.67036 0.0
H588 H 0.24844 0.49119 0.70252 0.0
H589 H 0.23969 0.50596 0.68758 0.0
H590 H 0.1999 0.47265 0.69566 0.0
H591 H 0.20874 0.45801 0.70997 0.0
H592 H 0.21732 0.40714 0.76476 0.0
H593 H 0.23127 0.42962 0.73944 0.0
H594 H 0.25239 0.40628 0.79894 0.0
H595 H 0.26613 0.42869 0.77419 0.0
H596 H 0.31622 0.48307 0.70772 0.0
H597 H 0.31963 0.51717 0.64891 0.0
H598 H 0.29602 0.50869 0.65787 0.0
H599 H 0.29243 0.47451 0.71584 0.0
C600 C 0.44498 0.90653 0.61623 0.0
C601 C 0.44017 0.89319 0.6259 0.0
C602 C 0.41779 0.88967 0.63178 0.0
C603 C 0.4267 0.88483 0.63362 0.0
C604 C 0.42276 0.9031 0.62229 0.0
C605 C 0.4362 0.91142 0.6146 0.0
U606 U 0.48115 0.91468 0.60993 0.0
O607 O 0.49606 0.92577 0.56653 0.0
O608 O 0.49941 0.93317 0.6244 0.0
C609 C 0.50372 0.93539 0.58965 0.0
C610 C 0.45907 0.91552 0.60759 0.0
C611 C 0.50896 0.94906 0.5757 0.0
C612 C 0.50616 0.96749 0.55514 0.0
C613 C 0.50074 0.95438 0.56819 0.0
C614 C 0.52801 0.97 0.55699 0.0
C615 C 0.51989 0.97549 0.54957 0.0
C616 C 0.5226 0.95696 0.56991 0.0
C617 C 0.49015 0.88822 0.63924 0.0
C618 C 0.51194 0.89055 0.63239 0.0
C619 C 0.49464 0.87149 0.66488 0.0
C620 C 0.48594 0.87628 0.65858 0.0
C621 C 0.50776 0.87856 0.65194 0.0
C622 C 0.50321 0.89536 0.62618 0.0
C623 C 0.48071 0.89297 0.63318 0.0
O624 O 0.46714 0.91962 0.6365 0.0
O625 O 0.46376 0.91214 0.57875 0.0
O626 O 0.47865 0.89495 0.59813 0.0
O627 O 0.48189 0.90241 0.6559 0.0
H628 H 0.44681 0.88923 0.62729 0.0
H629 H 0.42323 0.87452 0.64043 0.0
H630 H 0.41628 0.90725 0.62118 0.0
H631 H 0.43974 0.92171 0.60736 0.0
H632 H 0.49962 0.97141 0.54996 0.0
H633 H 0.49017 0.94842 0.57255 0.0
H634 H 0.53857 0.97574 0.5524 0.0
H635 H 0.5291 0.95301 0.57537 0.0
H636 H 0.522 0.89632 0.62237 0.0
H637 H 0.491 0.86214 0.67951 0.0
H638 H 0.47588 0.8706 0.66878 0.0
H639 H 0.50665 0.90464 0.61129 0.0
C640 C 0.15229 0.61368 0.61009 0.0
C641 C 0.164 0.61807 0.6307 0.0
C642 C 0.16861 0.641 0.62696 0.0
C643 C 0.17207 0.6316 0.63913 0.0
C644 C 0.15689 0.63649 0.60608 0.0
C645 C 0.14884 0.623 0.59778 0.0
U646 U 0.14408 0.57721 0.60396 0.0
O647 O 0.12564 0.55897 0.61858 0.0
O648 O 0.13284 0.56223 0.56062 0.0
C649 C 0.12326 0.55464 0.5838 0.0
C650 C 0.14341 0.59949 0.60156 0.0
C651 C 0.10967 0.54972 0.57014 0.0
C652 C 0.09151 0.55316 0.55195 0.0
C653 C 0.10458 0.55826 0.5643 0.0
C654 C 0.08856 0.53101 0.551 0.0
C655 C 0.08329 0.53944 0.5454 0.0
C656 C 0.10159 0.53611 0.56324 0.0
C657 C 0.17037 0.56801 0.6331 0.0
C658 C 0.16906 0.54669 0.62232 0.0
C659 C 0.1864 0.56318 0.66174 0.0
C660 C 0.1815 0.57182 0.65579 0.0
C661 C 0.18028 0.5505 0.64507 0.0
C662 C 0.16413 0.55536 0.61647 0.0
C663 C 0.16562 0.57748 0.62702 0.0
O664 O 0.14675 0.59475 0.57274 0.0
O665 O 0.13934 0.59141 0.63049 0.0
O666 O 0.15631 0.57639 0.64985 0.0
O667 O 0.1636 0.57954 0.59198 0.0
H668 H 0.16686 0.61102 0.64035 0.0
H669 H 0.18108 0.63472 0.65491 0.0
H670 H 0.15378 0.64337 0.59673 0.0
H671 H 0.13982 0.6198 0.58195 0.0
H672 H 0.08776 0.55993 0.54822 0.0
H673 H 0.11069 0.56882 0.56955 0.0
H674 H 0.08264 0.52045 0.54563 0.0
H675 H 0.10535 0.52937 0.56742 0.0
H676 H 0.16401 0.53696 0.60937 0.0
H677 H 0.19515 0.56655 0.67895 0.0
H678 H 0.18647 0.58155 0.66879 0.0
H679 H 0.15548 0.5522 0.59895 0.0
C680 C 0.44517 0.54834 0.61577 0.0
C681 C 0.44058 0.55697 0.62616 0.0
C682 C 0.41808 0.53822 0.63193 0.0
C683 C 0.42716 0.55196 0.63412 0.0
C684 C 0.42281 0.52965 0.62163 0.0
C685 C 0.43621 0.53467 0.61363 0.0
U686 U 0.48122 0.57651 0.60891 0.0
O687 O 0.4996 0.57654 0.62288 0.0
O688 O 0.49608 0.58061 0.56522 0.0
C689 C 0.50384 0.57875 0.58806 0.0
C690 C 0.45922 0.5534 0.60687 0.0
C691 C 0.50915 0.57046 0.57362 0.0
C692 C 0.50655 0.54923 0.55377 0.0
C693 C 0.5011 0.55674 0.56783 0.0
C694 C 0.52809 0.56911 0.55132 0.0
C695 C 0.52012 0.55535 0.54512 0.0
C696 C 0.52266 0.57655 0.56537 0.0
C697 C 0.48966 0.61195 0.63787 0.0
C698 C 0.51078 0.63212 0.6279 0.0
C699 C 0.49365 0.63299 0.66377 0.0
C700 C 0.48536 0.61933 0.6585 0.0
C701 C 0.50647 0.6396 0.64849 0.0
C702 C 0.50246 0.6184 0.62271 0.0
C703 C 0.4805 0.59763 0.63213 0.0
O704 O 0.46386 0.56143 0.57791 0.0
O705 O 0.46735 0.55745 0.63564 0.0
O706 O 0.48198 0.58956 0.65485 0.0
O707 O 0.47837 0.59349 0.59715 0.0
H708 H 0.44738 0.56757 0.62809 0.0
H709 H 0.42393 0.55884 0.64239 0.0
H710 H 0.41612 0.51905 0.61911 0.0
H711 H 0.43956 0.52786 0.60557 0.0
H712 H 0.50011 0.53869 0.54911 0.0
H713 H 0.49063 0.55186 0.57402 0.0
H714 H 0.5386 0.57413 0.5457 0.0
H715 H 0.52904 0.58712 0.56983 0.0
H716 H 0.52062 0.63685 0.61605 0.0
H717 H 0.48989 0.63842 0.67924 0.0
H718 H 0.4755 0.61453 0.6703 0.0
H719 H 0.50597 0.61286 0.60676 0.0
H720 H 0.22713 0.05996 0.96317 0.0
H721 H 0.20659 0.05306 0.06867 0.0
H722 H 0.21676 0.036 0.95342 0.0
H723 H 0.19589 0.0292 0.05833 0.0
H724 H 0.18727 0.98684 0.04609 0.0
H725 H 0.19985 1.01079 0.05601 0.0
H726 H 0.19523 1.01713 0.93891 0.0
H727 H 0.18268 0.99315 0.92899 0.0
C728 C 0.22048 0.05335 0.98442 0.0
C729 C 0.21768 0.05848 0.01667 0.0
C730 C 0.21441 0.0396 0.97862 0.0
C731 C 0.20543 0.03061 0.005 0.0
C732 C 0.20284 0.03577 0.03756 0.0
C733 C 0.20887 0.04949 0.0433 0.0
C734 C 0.18891 0.99333 0.02244 0.0
C735 C 0.18386 0.98802 0.98678 0.0
C736 C 0.19613 1.00709 0.02814 0.0
C737 C 0.1985 1.01595 0.99834 0.0
C738 C 0.19375 1.01064 0.96245 0.0
C739 C 0.18654 0.99686 0.95674 0.0
H740 H 0.99833 0.16904 0.94262 0.0
H741 H 1.00349 0.1775 0.06135 0.0
H742 H 1.02201 0.18329 0.93313 0.0
H743 H 1.02723 0.19177 0.05185 0.0
H744 H 0.06719 0.22682 0.0141 0.0
H745 H 0.04351 0.21269 0.02445 0.0
H746 H 0.04272 0.18408 0.9456 0.0
H747 H 0.0663 0.19845 0.93423 0.0
C748 C 1.00452 0.17386 0.96678 0.0
C749 C 0.99896 0.17205 0.0028 0.0
C750 C 1.01813 0.18203 0.96133 0.0
C751 C 1.02659 0.18864 0.99173 0.0
C752 C 1.02102 0.18697 0.0277 0.0
C753 C 1.00738 0.17879 0.03316 0.0
C754 C 0.06196 0.21756 0.99876 0.0
C755 C 0.06869 0.21383 0.97318 0.0
C756 C 0.04838 0.20937 0.00502 0.0
C757 C 0.04114 0.19723 0.98581 0.0
C758 C 0.04791 0.19343 0.96055 0.0
C759 C 0.06149 0.2016 0.95436 0.0
H760 H 0.87117 0.83098 0.07603 0.0
H761 H 0.88558 0.83561 0.9624 0.0
H762 H 0.86169 0.84498 0.06178 0.0
H763 H 0.87605 0.84959 0.94807 0.0
H764 H 0.86944 0.88537 0.94786 0.0
H765 H 0.87873 0.87114 0.96123 0.0
H766 H 0.84417 0.84525 0.02657 0.0
H767 H 0.83511 0.85978 0.0144 0.0
C768 C 0.87223 0.83489 0.04789 0.0
C769 C 0.87915 0.83213 0.02038 0.0
C770 C 0.86676 0.84291 0.03968 0.0
C771 C 0.86804 0.84841 0.00371 0.0
C772 C 0.87501 0.84569 0.97622 0.0
C773 C 0.88049 0.83767 0.98445 0.0
C774 C 0.86385 0.87669 0.96531 0.0
C775 C 0.85154 0.87379 0.9802 0.0
C776 C 0.86912 0.86843 0.97263 0.0
C777 C 0.86224 0.85703 0.99508 0.0
C778 C 0.84984 0.85403 0.00957 0.0
C779 C 0.84456 0.86228 0.0022 0.0
H780 H 0.88547 0.05255 0.05021 0.0
H781 H 0.86411 0.05868 0.96086 0.0
H782 H 0.87417 0.02882 0.03555 0.0
H783 H 0.85286 0.03507 0.94625 0.0
H784 H 0.82385 0.99086 0.95992 0.0
H785 H 0.83616 1.01449 0.97394 0.0
H786 H 0.87173 1.01233 0.98857 0.0
H787 H 0.85936 0.98857 0.97431 0.0
C788 C 0.87849 0.04888 0.02715 0.0
C789 C 0.87562 0.05754 0.00698 0.0
C790 C 0.872 0.03526 0.01875 0.0
C791 C 0.86248 0.02997 0.98996 0.0
C792 C 0.8599 0.03871 0.96917 0.0
C793 C 0.86637 0.05229 0.97755 0.0
C794 C 0.83432 0.99541 0.96571 0.0
C795 C 0.8406 0.98777 0.9656 0.0
C796 C 0.84141 1.009 0.97379 0.0
C797 C 0.85499 1.01539 0.98208 0.0
C798 C 0.86126 1.00773 0.98261 0.0
C799 C 0.85416 0.99409 0.97445 0.0
H800 H 0.06794 0.88131 0.93855 0.0
H801 H 0.06776 0.85139 0.01079 0.0
H802 H 0.0444 0.8722 0.95003 0.0
H803 H 0.04412 0.84197 0.02111 0.0
H804 H 1.00437 0.83674 0.06084 0.0
H805 H 1.02808 0.84619 0.05137 0.0
H806 H 1.02346 0.8529 0.93458 0.0
H807 H 0.9998 0.8435 0.94406 0.0
C808 C 0.06291 0.87283 0.95704 0.0
C809 C 0.0698 0.86709 0.97368 0.0
C810 C 0.04935 0.86749 0.96326 0.0
C811 C 0.04229 0.85628 0.98635 0.0
C812 C 0.04922 0.85066 0.00341 0.0
C813 C 0.06277 0.85599 0.99714 0.0
C814 C 1.00839 0.84011 0.03305 0.0
C815 C 1.00014 0.83938 0.00326 0.0
C816 C 1.02201 0.84555 0.02761 0.0
C817 C 1.02775 0.85039 0.99223 0.0
C818 C 1.01947 0.84953 0.96239 0.0
C819 C 1.00586 0.84411 0.96783 0.0
H820 H 0.22369 0.17651 0.96229 0.0
H821 H 0.2242 0.18542 0.08008 0.0
H822 H 0.20916 0.18557 0.95003 0.0
H823 H 0.21004 0.19482 0.06769 0.0
H824 H 0.17312 0.19709 0.03868 0.0
H825 H 0.18749 0.18789 0.05002 0.0
H826 H 0.20924 0.20669 0.94908 0.0
H827 H 0.19453 0.21557 0.93705 0.0
C828 C 0.22068 0.18036 0.9856 0.0
C829 C 0.22513 0.18022 0.02219 0.0
C830 C 0.21246 0.1857 0.9785 0.0
C831 C 0.20842 0.19096 0.00784 0.0
C832 C 0.21284 0.19075 0.04444 0.0
C833 C 0.22108 0.18547 0.0515 0.0
C834 C 0.18089 0.19919 0.01869 0.0
C835 C 0.1826 0.20704 0.98684 0.0
C836 C 0.18924 0.19402 0.02543 0.0
C837 C 0.19956 0.19654 0.0005 0.0
C838 C 0.20132 0.20443 0.96869 0.0
C839 C 0.19298 0.20965 0.96201 0.0
H840 H 0.83256 0.32263 0.35819 0.0
H841 H 0.8645 0.32539 0.29064 0.0
H842 H 0.84471 0.34656 0.36737 0.0
H843 H 0.87648 0.34951 0.29866 0.0
H844 H 0.89957 0.39104 0.35492 0.0
H845 H 0.88815 0.367 0.34541 0.0
H846 H 0.8512 0.36657 0.33215 0.0
H847 H 0.86255 0.39048 0.34151 0.0
C848 C 0.84221 0.32832 0.34541 0.0
C849 C 0.84754 0.322 0.32376 0.0
C850 C 0.84912 0.34211 0.35028 0.0
C851 C 0.86157 0.35003 0.33359 0.0
C852 C 0.86697 0.34373 0.31217 0.0
C853 C 0.86003 0.3299 0.30723 0.0
C854 C 0.88903 0.38583 0.34966 0.0
C855 C 0.88199 0.39274 0.34937 0.0
C856 C 0.88247 0.37203 0.34419 0.0
C857 C 0.86872 0.36478 0.33831 0.0
C858 C 0.86174 0.37174 0.33742 0.0
C859 C 0.86827 0.3855 0.34284 0.0
H860 H 0.6647 0.52035 0.31539 0.0
H861 H 0.67323 0.4925 0.37113 0.0
H862 H 0.68823 0.53496 0.30359 0.0
H863 H 0.69673 0.50708 0.35933 0.0
H864 H 0.73586 0.5293 0.29467 0.0
H865 H 0.71244 0.51495 0.30818 0.0
H866 H 0.70909 0.54941 0.33456 0.0
H867 H 0.73251 0.56376 0.32117 0.0
C868 C 0.67159 0.5174 0.32552 0.0
C869 C 0.66701 0.50519 0.34409 0.0
C870 C 0.68511 0.52579 0.31872 0.0
C871 C 0.69442 0.5222 0.33034 0.0
C872 C 0.68985 0.51007 0.34933 0.0
C873 C 0.67635 0.5017 0.35613 0.0
C874 C 0.73018 0.53383 0.30373 0.0
C875 C 0.73613 0.54772 0.30672 0.0
C876 C 0.71671 0.52558 0.31148 0.0
C877 C 0.70882 0.531 0.32244 0.0
C878 C 0.71478 0.54489 0.3256 0.0
C879 C 0.72825 0.55313 0.3179 0.0
H880 H 0.52807 0.15395 0.38668 0.0
H881 H 0.5607 0.17776 0.31254 0.0
H882 H 0.5189 0.16834 0.37444 0.0
H883 H 0.55152 0.19219 0.30032 0.0
H884 H 0.53869 0.22318 0.31943 0.0
H885 H 0.54776 0.20862 0.33031 0.0
H886 H 0.50842 0.17448 0.32616 0.0
H887 H 0.49929 0.1891 0.31679 0.0
C888 C 0.53324 0.16218 0.36745 0.0
C889 C 0.54514 0.16464 0.35057 0.0
C890 C 0.52796 0.17044 0.3604 0.0
C891 C 0.53443 0.18144 0.3363 0.0
C892 C 0.54635 0.18393 0.31945 0.0
C893 C 0.55163 0.17565 0.32649 0.0
C894 C 0.53194 0.21258 0.32115 0.0
C895 C 0.51822 0.20736 0.31744 0.0
C896 C 0.53718 0.2042 0.32694 0.0
C897 C 0.52885 0.19034 0.32918 0.0
C898 C 0.51514 0.1851 0.32506 0.0
C899 C 0.5099 0.19349 0.31922 0.0
H900 H 0.54725 0.39329 0.29838 0.0
H901 H 0.53969 0.38405 0.41623 0.0
H902 H 0.53592 0.3696 0.28371 0.0
H903 H 0.52841 0.36041 0.40162 0.0
H904 H 0.4953 0.3204 0.35807 0.0
H905 H 0.50803 0.34396 0.37312 0.0
H906 H 0.53686 0.34921 0.28915 0.0
H907 H 0.52383 0.32564 0.27315 0.0
C908 C 0.54335 0.38622 0.32123 0.0
C909 C 0.54432 0.39062 0.35848 0.0
C910 C 0.53684 0.37261 0.31281 0.0
C911 C 0.53114 0.36304 0.34143 0.0
C912 C 0.53242 0.36747 0.37876 0.0
C913 C 0.53891 0.38105 0.38715 0.0
C914 C 0.50431 0.32658 0.34262 0.0
C915 C 0.50848 0.32109 0.31423 0.0
C916 C 0.51171 0.34009 0.35158 0.0
C917 C 0.52351 0.34854 0.33241 0.0
C918 C 0.52777 0.34305 0.30426 0.0
C919 C 0.52037 0.32949 0.29536 0.0
H920 H 0.66585 0.15377 0.33805 0.0
H921 H 0.67126 0.19333 0.34243 0.0
H922 H 0.68956 0.16319 0.32871 0.0
H923 H 0.69491 0.20272 0.33304 0.0
H924 H 0.73406 0.21418 0.27378 0.0
H925 H 0.7105 0.20491 0.28524 0.0
H926 H 0.71079 0.17573 0.35965 0.0
H927 H 0.73436 0.185 0.34815 0.0
C928 C 0.67209 0.16448 0.33742 0.0
C929 C 0.66657 0.17276 0.34082 0.0
C930 C 0.68571 0.16989 0.33204 0.0
C931 C 0.69419 0.18374 0.32993 0.0
C932 C 0.68869 0.19201 0.33379 0.0
C933 C 0.67508 0.18661 0.33918 0.0
C934 C 0.72915 0.20589 0.29294 0.0
C935 C 0.73616 0.20035 0.30998 0.0
C936 C 0.71561 0.20055 0.29952 0.0
C937 C 0.70869 0.18953 0.32336 0.0
C938 C 0.71572 0.18406 0.34063 0.0
C939 C 0.72926 0.1894 0.33405 0.0
H940 H 0.9083 0.53286 0.32622 0.0
H941 H 0.87582 0.49761 0.3748 0.0
H942 H 0.89372 0.54187 0.31521 0.0
H943 H 0.86111 0.50638 0.36235 0.0
H944 H 0.84218 0.53237 0.37429 0.0
H945 H 0.85686 0.52345 0.38446 0.0
H946 H 0.87538 0.53914 0.27738 0.0
H947 H 0.86068 0.54811 0.26726 0.0
C948 C 0.89805 0.52701 0.33452 0.0
C949 C 0.89329 0.51451 0.3516 0.0
C950 C 0.88963 0.53212 0.32778 0.0
C951 C 0.87621 0.52489 0.33795 0.0
C952 C 0.87141 0.51232 0.35459 0.0
C953 C 0.87983 0.50721 0.36131 0.0
C954 C 0.8493 0.53384 0.35274 0.0
C955 C 0.85018 0.54093 0.31986 0.0
C956 C 0.85773 0.52869 0.35856 0.0
C957 C 0.86729 0.53048 0.33168 0.0
C958 C 0.86826 0.53769 0.29893 0.0
C959 C 0.85982 0.54285 0.29312 0.0
H960 H 0.55512 0.72138 0.73029 0.0
H961 H 0.54361 0.72485 0.61757 0.0
H962 H 0.5445 0.69734 0.72259 0.0
H963 H 0.53257 0.70081 0.61039 0.0
H964 H 0.52285 0.65804 0.59687 0.0
H965 H 0.53606 0.6821 0.60436 0.0
H966 H 0.52241 0.67848 0.7186 0.0
H967 H 0.50963 0.65443 0.71157 0.0
C968 C 0.55042 0.71705 0.70376 0.0
C969 C 0.55019 0.72509 0.67463 0.0
C970 C 0.54419 0.70322 0.69948 0.0
C971 C 0.53759 0.69708 0.66593 0.0
C972 C 0.53764 0.70517 0.63651 0.0
C973 C 0.54384 0.71897 0.6408 0.0
C974 C 0.52283 0.66235 0.62378 0.0
C975 C 0.5151 0.65425 0.65354 0.0
C976 C 0.5303 0.67618 0.62795 0.0
C977 C 0.53027 0.68229 0.66203 0.0
C978 C 0.52279 0.67415 0.69205 0.0
C979 C 0.51531 0.66034 0.68786 0.0
H980 H 0.40617 0.87039 0.68598 0.0
H981 H 0.39671 0.88878 0.59507 0.0
H982 H 0.38267 0.85608 0.69876 0.0
H983 H 0.37325 0.87449 0.60782 0.0
H984 H 0.33268 0.85586 0.66316 0.0
H985 H 0.35631 0.87051 0.6531 0.0
H986 H 0.36295 0.83764 0.6728 0.0
H987 H 0.33943 0.82315 0.68436 0.0
C988 C 0.39909 0.87132 0.66849 0.0
C989 C 0.40339 0.88079 0.63951 0.0
C990 C 0.38559 0.8631 0.67585 0.0
C991 C 0.376 0.86412 0.65441 0.0
C992 C 0.38031 0.87357 0.62539 0.0
C993 C 0.3938 0.88178 0.61804 0.0
C994 C 0.33919 0.85178 0.66583 0.0
C995 C 0.33408 0.83828 0.67449 0.0
C996 C 0.35274 0.86016 0.6596 0.0
C997 C 0.36158 0.85528 0.66194 0.0
C998 C 0.35649 0.84181 0.67107 0.0
C999 C 0.34295 0.83344 0.67726 0.0
H1000 H 0.18991 0.5461 0.71039 0.0
H1001 H 0.18292 0.53427 0.59399 0.0
H1002 H 0.19934 0.53181 0.7204 0.0
H1003 H 0.1924 0.51997 0.60398 0.0
H1004 H 0.19792 0.48559 0.64573 0.0
H1005 H 0.18838 0.49977 0.63496 0.0
H1006 H 0.21856 0.53013 0.70501 0.0
H1007 H 0.22779 0.51574 0.71693 0.0
C1008 C 0.19047 0.54053 0.68682 0.0
C1009 C 0.18568 0.5414 0.65133 0.0
C1010 C 0.19591 0.53233 0.69256 0.0
C1011 C 0.19672 0.52476 0.66298 0.0
C1012 C 0.1918 0.52552 0.62755 0.0
C1013 C 0.18635 0.53372 0.62181 0.0
C1014 C 0.20248 0.49525 0.65907 0.0
C1015 C 0.21361 0.49947 0.68235 0.0
C1016 C 0.19708 0.50346 0.65254 0.0
C1017 C 0.20266 0.51611 0.66916 0.0
C1018 C 0.21389 0.52039 0.69211 0.0
C1019 C 0.21929 0.51219 0.69858 0.0
H1020 H 0.18128 0.65218 0.69336 0.0
H1021 H 0.17489 0.66252 0.58201 0.0
H1022 H 0.19414 0.67571 0.70949 0.0
H1023 H 0.18731 0.68599 0.59856 0.0
H1024 H 0.21974 0.72773 0.62888 0.0
H1025 H 0.20915 0.70419 0.6129 0.0
H1026 H 0.19049 0.69408 0.72176 0.0
H1027 H 0.20146 0.71755 0.73821 0.0
C1028 C 0.18268 0.65946 0.67221 0.0
C1029 C 0.17698 0.6554 0.6364 0.0
C1030 C 0.18994 0.67297 0.68161 0.0
C1031 C 0.19173 0.6828 0.65542 0.0
C1032 C 0.18626 0.67874 0.61937 0.0
C1033 C 0.17898 0.66525 0.61001 0.0
C1034 C 0.21354 0.72048 0.64963 0.0
C1035 C 0.21143 0.72459 0.68481 0.0
C1036 C 0.20733 0.70697 0.64029 0.0
C1037 C 0.19889 0.69718 0.66593 0.0
C1038 C 0.19701 0.70129 0.70139 0.0
C1039 C 0.20319 0.71479 0.71068 0.0
H1040 H 0.40109 0.51544 0.67007 0.0
H1041 H 0.40249 0.54871 0.61193 0.0
H1042 H 0.3776 0.50642 0.6821 0.0
H1043 H 0.379 0.53969 0.62394 0.0
H1044 H 0.33993 0.52674 0.68398 0.0
H1045 H 0.3635 0.5357 0.67387 0.0
H1046 H 0.35643 0.49623 0.65021 0.0
H1047 H 0.33282 0.48725 0.66031 0.0
C1048 C 0.39638 0.5208 0.6596 0.0
C1049 C 0.40374 0.53282 0.63997 0.0
C1050 C 0.38288 0.51561 0.6665 0.0
C1051 C 0.37635 0.5223 0.654 0.0
C1052 C 0.38372 0.53436 0.63454 0.0
C1053 C 0.39722 0.53955 0.62764 0.0
C1054 C 0.34337 0.51996 0.67635 0.0
C1055 C 0.33441 0.50625 0.67279 0.0
C1056 C 0.35691 0.52512 0.67053 0.0
C1057 C 0.36191 0.51672 0.66103 0.0
C1058 C 0.35298 0.50299 0.65795 0.0
C1059 C 0.33942 0.49782 0.66376 0.0
H1060 H 0.5104 0.86705 0.71599 0.0
H1061 H 0.52602 0.87832 0.60389 0.0
H1062 H 0.52488 0.85793 0.72706 0.0
H1063 H 0.54085 0.86957 0.61541 0.0
H1064 H 0.55492 0.83945 0.63592 0.0
H1065 H 0.54031 0.84845 0.62426 0.0
H1066 H 0.54802 0.86497 0.73607 0.0
H1067 H 0.56225 0.85563 0.74812 0.0
C1068 C 0.51692 0.86758 0.69366 0.0
C1069 C 0.51699 0.87339 0.65898 0.0
C1070 C 0.52535 0.86247 0.70016 0.0
C1071 C 0.53407 0.86301 0.67216 0.0
C1072 C 0.53418 0.86886 0.6375 0.0
C1073 C 0.52577 0.87402 0.63103 0.0
C1074 C 0.5534 0.84489 0.65814 0.0
C1075 C 0.55978 0.84679 0.69298 0.0
C1076 C 0.54514 0.8502 0.6513 0.0
C1077 C 0.54298 0.85747 0.67919 0.0
C1078 C 0.54934 0.85933 0.71404 0.0
C1079 C 0.55763 0.85408 0.72082 0.0
H1080 H 0.33146 0.16577 0.18005 0.0
H1081 H 0.3453 0.1764 0.06619 0.0
H1082 H 0.35423 0.17739 0.20253 0.0
H1083 H 0.36807 0.18812 0.08863 0.0
H1084 H 0.40673 0.1933 0.13728 0.0
H1085 H 0.38409 0.18328 0.11468 0.0
H1086 H 0.37381 0.19875 0.21109 0.0
H1087 H 0.3964 0.20833 0.23453 0.0
C1088 C 0.33934 0.17076 0.15983 0.0
C1089 C 0.33651 0.17008 0.12125 0.0
C1090 C 0.35243 0.17745 0.17274 0.0
C1091 C 0.36306 0.18367 0.14744 0.0
C1092 C 0.36019 0.18324 0.10893 0.0
C1093 C 0.34711 0.17653 0.09603 0.0
C1094 C 0.39964 0.19451 0.15383 0.0
C1095 C 0.40343 0.20157 0.18791 0.0
C1096 C 0.38665 0.18889 0.14059 0.0
C1097 C 0.37705 0.19017 0.161 0.0
C1098 C 0.38088 0.19742 0.1948 0.0
C1099 C 0.3939 0.20306 0.20804 0.0
H1100 H 0.86026 0.22037 0.13891 0.0
H1101 H 0.85389 0.20132 0.24695 0.0
H1102 H 0.87084 0.20817 0.11661 0.0
H1103 H 0.86403 0.1887 0.22413 0.0
H1104 H 0.89756 0.18144 0.18406 0.0
H1105 H 0.88553 0.19212 0.20717 0.0
H1106 H 0.86674 0.18649 0.09903 0.0
H1107 H 0.87883 0.17588 0.07589 0.0
C1108 C 0.86107 0.21353 0.15791 0.0
C1109 C 0.85627 0.21192 0.19485 0.0
C1110 C 0.86701 0.2064 0.14494 0.0
C1111 C 0.86833 0.19742 0.16852 0.0
C1112 C 0.86333 0.19563 0.20529 0.0
C1113 C 0.85736 0.20276 0.21825 0.0
C1114 C 0.89073 0.18231 0.16534 0.0
C1115 C 0.88923 0.17783 0.12802 0.0
C1116 C 0.8838 0.18844 0.17863 0.0
C1117 C 0.87518 0.19025 0.15497 0.0
C1118 C 0.87347 0.18551 0.11788 0.0
C1119 C 0.88041 0.1794 0.10459 0.0
H1120 H 0.86834 0.66682 0.25697 0.0
H1121 H 0.84896 0.65243 0.15005 0.0
H1122 H 0.87926 0.68949 0.23323 0.0
H1123 H 0.85993 0.67517 0.12617 0.0
H1124 H 0.87431 0.71929 0.10443 0.0
H1125 H 0.86169 0.69692 0.13074 0.0
H1126 H 0.89655 0.70283 0.18966 0.0
H1127 H 0.90896 0.72523 0.16461 0.0
C1128 C 0.86643 0.66848 0.22833 0.0
C1129 C 0.85784 0.65774 0.20536 0.0
C1130 C 0.87271 0.68151 0.21467 0.0
C1131 C 0.8706 0.6842 0.17761 0.0
C1132 C 0.8617 0.67351 0.15496 0.0
C1133 C 0.8554 0.66045 0.16866 0.0
C1134 C 0.87923 0.71587 0.12338 0.0
C1135 C 0.89269 0.72409 0.13224 0.0
C1136 C 0.87202 0.70298 0.13816 0.0
C1137 C 0.87807 0.69802 0.16236 0.0
C1138 C 0.89149 0.70632 0.17151 0.0
C1139 C 0.89867 0.71915 0.15672 0.0
H1140 H 0.19294 0.3333 0.92278 0.0
H1141 H 0.18868 0.3188 0.80919 0.0
H1142 H 0.20398 0.35607 0.89962 0.0
H1143 H 0.19981 0.34159 0.78598 0.0
H1144 H 0.21127 0.38401 0.75351 0.0
H1145 H 0.19826 0.36139 0.77754 0.0
H1146 H 0.22469 0.37189 0.87237 0.0
H1147 H 0.23732 0.39456 0.8492 0.0
C1148 C 0.1944 0.33496 0.89284 0.0
C1149 C 0.18996 0.32418 0.86791 0.0
C1150 C 0.20075 0.34805 0.87953 0.0
C1151 C 0.2029 0.35074 0.84088 0.0
C1152 C 0.1982 0.33994 0.81587 0.0
C1153 C 0.19181 0.32684 0.8292 0.0
C1154 C 0.21419 0.38154 0.77977 0.0
C1155 C 0.2254 0.39114 0.79929 0.0
C1156 C 0.20681 0.36851 0.79335 0.0
C1157 C 0.21041 0.36474 0.8269 0.0
C1158 C 0.2215 0.37441 0.84669 0.0
C1159 C 0.22886 0.38741 0.83311 0.0
H1160 H 0.73195 0.84423 0.86059 0.0
H1161 H 0.73501 0.88268 0.84968 0.0
H1162 H 0.70933 0.83361 0.83774 0.0
H1163 H 0.71221 0.87197 0.8269 0.0
H1164 H 0.66619 0.84555 0.82362 0.0
H1165 H 0.68906 0.85735 0.84605 0.0
H1166 H 0.69756 0.83144 0.77978 0.0
H1167 H 0.67485 0.81973 0.75739 0.0
C1168 C 0.72785 0.85046 0.85299 0.0
C1169 C 0.73542 0.86436 0.85666 0.0
C1170 C 0.71483 0.84434 0.83988 0.0
C1171 C 0.70894 0.85192 0.83008 0.0
C1172 C 0.71639 0.86581 0.83443 0.0
C1173 C 0.72947 0.87195 0.84753 0.0
C1174 C 0.67299 0.84247 0.81351 0.0
C1175 C 0.6686 0.83157 0.789 0.0
C1176 C 0.6861 0.84924 0.8264 0.0
C1177 C 0.69514 0.84526 0.8151 0.0
C1178 C 0.69082 0.83459 0.7898 0.0
C1179 C 0.67776 0.82786 0.77694 0.0
H1180 H 0.23175 0.86138 0.74606 0.0
H1181 H 0.21607 0.83229 0.83492 0.0
H1182 H 0.21914 0.87136 0.7693 0.0
H1183 H 0.20299 0.84197 0.8574 0.0
H1184 H 0.19485 0.87337 0.91228 0.0
H1185 H 0.20588 0.86172 0.88868 0.0
H1186 H 0.19718 0.86785 0.77507 0.0
H1187 H 0.18624 0.87956 0.79869 0.0
C1188 C 0.22558 0.85708 0.77054 0.0
C1189 C 0.22503 0.84607 0.78872 0.0
C1190 C 0.21819 0.86271 0.78363 0.0
C1191 C 0.21 0.85749 0.81529 0.0
C1192 C 0.20929 0.84635 0.83319 0.0
C1193 C 0.21668 0.8407 0.82003 0.0
C1194 C 0.19512 0.87207 0.88228 0.0
C1195 C 0.18971 0.8775 0.85742 0.0
C1196 C 0.20145 0.86537 0.86871 0.0
C1197 C 0.20253 0.86389 0.8299 0.0
C1198 C 0.1968 0.86902 0.8051 0.0
C1199 C 0.1905 0.87573 0.81866 0.0
H1200 H 0.06164 0.51644 0.56897 0.0
H1201 H 0.07306 0.54962 0.49409 0.0
H1202 H 0.03893 0.50656 0.54721 0.0
H1203 H 0.05013 0.53994 0.4732 0.0
H1204 H 1.01084 0.50976 0.41397 0.0
H1205 H 1.03365 0.52135 0.43641 0.0
H1206 H 1.01986 0.50925 0.54975 0.0
H1207 H 0.99711 0.49764 0.52733 0.0
C1208 C 0.05931 0.52165 0.54786 0.0
C1209 C 0.06925 0.5338 0.53314 0.0
C1210 C 0.04621 0.51605 0.53569 0.0
C1211 C 0.04262 0.52244 0.50844 0.0
C1212 C 0.05253 0.53467 0.49396 0.0
C1213 C 0.06567 0.5403 0.50624 0.0
C1214 C 1.01266 0.50973 0.44375 0.0
C1215 C 1.00211 0.50265 0.46876 0.0
C1216 C 1.02576 0.51639 0.45665 0.0
C1217 C 1.02865 0.51616 0.4949 0.0
C1218 C 1.01806 0.50942 0.52001 0.0
C1219 C 1.00499 0.50276 0.50713 0.0
H1220 H 0.57716 0.53393 0.46757 0.0
H1221 H 0.541 0.49601 0.46931 0.0
H1222 H 0.56518 0.54479 0.48894 0.0
H1223 H 0.52886 0.50702 0.48939 0.0
H1224 H 0.51519 0.53045 0.56576 0.0
H1225 H 0.52608 0.5185 0.54302 0.0
H1226 H 0.54939 0.55071 0.46674 0.0
H1227 H 0.53857 0.56261 0.48942 0.0
C1228 C 0.56664 0.52787 0.4726 0.0
C1229 C 0.56009 0.51405 0.46686 0.0
C1230 C 0.55972 0.53415 0.4844 0.0
C1231 C 0.54601 0.52682 0.49075 0.0
C1232 C 0.53942 0.51298 0.48507 0.0
C1233 C 0.54636 0.50668 0.47316 0.0
C1234 C 0.52253 0.5349 0.54381 0.0
C1235 C 0.52609 0.54757 0.52975 0.0
C1236 C 0.52878 0.52804 0.53075 0.0
C1237 C 0.53874 0.53368 0.50329 0.0
C1238 C 0.542 0.54618 0.48851 0.0
C1239 C 0.53577 0.55301 0.50154 0.0
H1240 H 0.53957 0.05363 0.45718 0.0
H1241 H 0.57641 0.05361 0.46683 0.0
H1242 H 0.52787 0.03136 0.48456 0.0
H1243 H 0.56471 0.03129 0.49272 0.0
H1244 H 0.54279 0.99724 0.5734 0.0
H1245 H 0.55342 1.01978 0.54891 0.0
H1246 H 0.52127 1.00823 0.47054 0.0
H1247 H 0.51058 0.98557 0.49518 0.0
C1248 C 0.54518 0.04891 0.46516 0.0
C1249 C 0.55895 0.05545 0.45964 0.0
C1250 C 0.53845 0.03607 0.4805 0.0
C1251 C 0.54532 0.0295 0.49097 0.0
C1252 C 0.55909 0.03608 0.4855 0.0
C1253 C 0.56579 0.04885 0.47013 0.0
C1254 C 0.53799 0.99946 0.55082 0.0
C1255 C 0.52587 0.9895 0.53603 0.0
C1256 C 0.5441 1.01242 0.53674 0.0
C1257 C 0.5383 1.01584 0.50741 0.0
C1258 C 0.52598 1.00599 0.49332 0.0
C1259 C 0.51984 0.99299 0.50747 0.0
loop_
_geom_bond_atom_site_label_1
_geom_bond_atom_site_label_2
_geom_bond_distance
_geom_bond_site_symmetry_2
_ccdc_geom_bond_type
C0 C1 1.264 1_554 S
C0 C5 1.479 . S
C0 C10 1.465 . S
C1 C0 1.264 1_556 S
C1 C3 1.339 . S
C1 H28 0.931 . S
C2 C3 1.395 1_554 S
C2 C4 1.320 . S
C3 C1 1.339 . S
C3 C2 1.395 1_556 S
C3 H29 0.929 . S
C4 C2 1.320 . S
C4 C5 1.405 . S
C4 H30 0.930 . S
C5 C0 1.479 . S
C5 C4 1.405 . S
C5 H31 0.931 . S
U6 O7 2.454 . S
U6 O8 2.458 . S
U6 C9 2.984 . S
U6 C10 2.847 . S
U6 C23 2.882 . S
U6 O24 2.441 . S
U6 O25 2.411 1_554 S
U6 O26 2.455 . S
U6 O27 2.449 1_554 S
O7 U6 2.454 . S
O7 C9 1.353 . S
O8 U6 2.458 . S
O8 C9 1.286 . S
C9 U6 2.984 . S
C9 O7 1.353 . S
C9 O8 1.286 . S
C9 C11 1.363 . S
C10 C0 1.465 . S
C10 U6 2.847 . S
C10 O24 1.249 . S
C10 O25 1.193 1_554 S
C11 C9 1.363 . S
C11 C13 1.408 . S
C11 C16 1.342 . S
C12 C13 1.310 . S
C12 C15 1.461 . S
C12 H32 0.932 . S
C13 C11 1.408 . S
C13 C12 1.310 . S
C13 H33 0.930 . S
C14 C15 1.474 . S
C14 C16 1.285 . S
C14 H34 0.929 . S
C15 C12 1.461 . S
C15 C14 1.474 . S
C16 C11 1.342 . S
C16 C14 1.285 . S
C16 H35 0.930 . S
C17 C20 1.424 . S
C17 C22 1.245 . S
C17 C23 1.428 . S
C18 C21 1.260 . S
C18 C22 1.477 . S
C18 H36 0.932 . S
C19 C20 1.382 1_556 S
C19 C21 1.473 1_556 S
C19 H37 0.936 . S
C20 C17 1.424 . S
C20 C19 1.382 1_554 S
C20 H38 0.928 . S
C21 C18 1.260 . S
C21 C19 1.473 1_554 S
C22 C17 1.245 . S
C22 C18 1.477 . S
C22 H39 0.932 . S
C23 U6 2.882 . S
C23 C17 1.428 . S
C23 O26 1.301 . S
C23 O27 1.282 1_554 S
O24 U6 2.441 . S
O24 C10 1.249 . S
O25 U6 2.411 1_556 S
O25 C10 1.193 1_556 S
O26 U6 2.455 . S
O26 C23 1.301 . S
O27 U6 2.449 1_556 S
O27 C23 1.282 1_556 S
H28 C1 0.931 . S
H29 C3 0.929 . S
H30 C4 0.930 . S
H31 C5 0.931 . S
H32 C12 0.932 . S
H33 C13 0.930 . S
H34 C14 0.929 . S
H35 C16 0.930 . S
H36 C18 0.932 . S
H37 C19 0.936 . S
H38 C20 0.928 . S
H39 C22 0.932 . S
C40 C41 1.264 . S
C40 C45 1.479 . S
C40 C50 1.465 . S
C41 C40 1.264 . S
C41 C43 1.339 . S
C41 H68 0.931 1_554 S
C42 C43 1.395 . S
C42 C44 1.320 . S
C43 C41 1.339 . S
C43 C42 1.395 . S
C43 H69 0.929 1_554 S
C44 C42 1.320 . S
C44 C45 1.405 . S
C44 H70 0.930 . S
C45 C40 1.479 . S
C45 C44 1.405 . S
C45 H71 0.931 . S
U46 O47 2.454 . S
U46 O48 2.458 . S
U46 C49 2.984 . S
U46 C50 2.847 . S
U46 C63 2.882 . S
U46 O64 2.441 . S
U46 O65 2.420 . S
U46 O66 2.455 . S
U46 O67 2.449 . S
O47 U46 2.454 . S
O47 C49 1.353 . S
O48 U46 2.458 . S
O48 C49 1.286 . S
C49 U46 2.984 . S
C49 O47 1.353 . S
C49 O48 1.286 . S
C49 C51 1.363 . S
C50 C40 1.465 . S
C50 U46 2.847 . S
C50 O64 1.249 . S
C50 O65 1.202 . S
C51 C49 1.363 . S
C51 C53 1.408 . S
C51 C56 1.342 . S
C52 C53 1.310 . S
C52 C55 1.461 . S
C52 H72 0.932 . S
C53 C51 1.408 . S
C53 C52 1.310 . S
C53 H73 0.930 . S
C54 C55 1.474 . S
C54 C56 1.285 . S
C54 H74 0.929 . S
C55 C52 1.461 . S
C55 C54 1.474 . S
C56 C51 1.342 . S
C56 C54 1.285 . S
C56 H75 0.930 . S
C57 C60 1.424 . S
C57 C62 1.245 . S
C57 C63 1.428 . S
C58 C61 1.260 . S
C58 C62 1.477 . S
C58 H76 0.932 . S
C59 C60 1.384 . S
C59 C61 1.479 . S
C59 H77 0.929 . S
C60 C57 1.424 . S
C60 C59 1.384 . S
C60 H78 0.928 . S
C61 C58 1.260 . S
C61 C59 1.479 . S
C62 C57 1.245 . S
C62 C58 1.477 . S
C62 H79 0.932 . S
C63 U46 2.882 . S
C63 C57 1.428 . S
C63 O66 1.301 . S
C63 O67 1.282 . S
O64 U46 2.441 . S
O64 C50 1.249 . S
O65 U46 2.420 . S
O65 C50 1.202 . S
O66 U46 2.455 . S
O66 C63 1.301 . S
O67 U46 2.449 . S
O67 C63 1.282 . S
H68 C41 0.931 1_556 S
H69 C43 0.929 1_556 S
H70 C44 0.930 . S
H71 C45 0.931 . S
H72 C52 0.932 . S
H73 C53 0.930 . S
H74 C54 0.929 . S
H75 C56 0.930 . S
H76 C58 0.932 . S
H77 C59 0.929 . S
H78 C60 0.928 . S
H79 C62 0.932 . S
C80 C81 1.264 . S
C80 C85 1.479 . S
C80 C90 1.465 . S
C81 C80 1.264 . S
C81 C83 1.329 1_554 S
C81 H108 0.931 . S
C82 C83 1.398 . S
C82 C84 1.320 1_556 S
C83 C81 1.329 1_556 S
C83 C82 1.398 . S
C83 H109 0.937 . S
C84 C82 1.320 1_554 S
C84 C85 1.405 . S
C84 H110 0.930 . S
C85 C80 1.479 . S
C85 C84 1.405 . S
C85 H111 0.931 . S
U86 O87 2.454 . S
U86 O88 2.458 . S
U86 C89 2.984 . S
U86 C90 2.847 . S
U86 C103 2.882 . S
U86 O104 2.441 . S
U86 O105 2.420 . S
U86 O106 2.455 . S
U86 O107 2.449 . S
O87 U86 2.454 . S
O87 C89 1.353 . S
O88 U86 2.458 . S
O88 C89 1.286 . S
C89 U86 2.984 . S
C89 O87 1.353 . S
C89 O88 1.286 . S
C89 C91 1.363 . S
C90 C80 1.465 . S
C90 U86 2.847 . S
C90 O104 1.249 . S
C90 O105 1.202 . S
C91 C89 1.363 . S
C91 C93 1.408 . S
C91 C96 1.342 . S
C92 C93 1.310 . S
C92 C95 1.461 . S
C92 H112 0.932 . S
C93 C91 1.408 . S
C93 C92 1.310 . S
C93 H113 0.930 . S
C94 C95 1.474 . S
C94 C96 1.285 . S
C94 H114 0.929 . S
C95 C92 1.461 . S
C95 C94 1.474 . S
C96 C91 1.342 . S
C96 C94 1.285 . S
C96 H115 0.930 . S
C97 C100 1.424 . S
C97 C102 1.245 . S
C97 C103 1.428 . S
C98 C101 1.260 . S
C98 C102 1.477 . S
C98 H116 0.932 . S
C99 C100 1.384 . S
C99 C101 1.479 . S
C99 H117 0.929 1_554 S
C100 C97 1.424 . S
C100 C99 1.384 . S
C100 H118 0.928 . S
C101 C98 1.260 . S
C101 C99 1.479 . S
C102 C97 1.245 . S
C102 C98 1.477 . S
C102 H119 0.932 . S
C103 U86 2.882 . S
C103 C97 1.428 . S
C103 O106 1.301 . S
C103 O107 1.282 . S
O104 U86 2.441 . S
O104 C90 1.249 . S
O105 U86 2.420 . S
O105 C90 1.202 . S
O106 U86 2.455 . S
O106 C103 1.301 . S
O107 U86 2.449 . S
O107 C103 1.282 . S
H108 C81 0.931 . S
H109 C83 0.937 . S
H110 C84 0.930 . S
H111 C85 0.931 . S
H112 C92 0.932 . S
H113 C93 0.930 . S
H114 C94 0.929 . S
H115 C96 0.930 . S
H116 C98 0.932 . S
H117 C99 0.929 1_556 S
H118 C100 0.928 . S
H119 C102 0.932 . S
C120 C121 1.264 . S
C120 C125 1.479 . S
C120 C130 1.465 . S
C121 C120 1.264 . S
C121 C123 1.339 . S
C121 H148 0.931 . S
C122 C123 1.395 . S
C122 C124 1.320 . S
C123 C121 1.339 . S
C123 C122 1.395 . S
C123 H149 0.924 1_556 S
C124 C122 1.320 . S
C124 C125 1.405 . S
C124 H150 0.930 . S
C125 C120 1.479 . S
C125 C124 1.405 . S
C125 H151 0.931 . S
U126 O127 2.454 . S
U126 O128 2.458 . S
U126 C129 2.984 . S
U126 C130 2.847 . S
U126 C143 2.882 . S
U126 O144 2.441 . S
U126 O145 2.420 . S
U126 O146 2.455 . S
U126 O147 2.449 . S
O127 U126 2.454 . S
O127 C129 1.353 . S
O128 U126 2.458 . S
O128 C129 1.286 . S
C129 U126 2.984 . S
C129 O127 1.353 . S
C129 O128 1.286 . S
C129 C131 1.363 . S
C130 C120 1.465 . S
C130 U126 2.847 . S
C130 O144 1.249 . S
C130 O145 1.202 . S
C131 C129 1.363 . S
C131 C133 1.408 . S
C131 C136 1.342 . S
C132 C133 1.310 . S
C132 C135 1.461 . S
C132 H152 0.932 . S
C133 C131 1.408 . S
C133 C132 1.310 . S
C133 H153 0.930 . S
C134 C135 1.474 . S
C134 C136 1.285 . S
C134 H154 0.929 . S
C135 C132 1.461 . S
C135 C134 1.474 . S
C136 C131 1.342 . S
C136 C134 1.285 . S
C136 H155 0.930 . S
C137 C140 1.424 . S
C137 C142 1.245 . S
C137 C143 1.428 . S
C138 C141 1.260 . S
C138 C142 1.477 . S
C138 H156 0.932 . S
C139 C140 1.384 . S
C139 C141 1.479 . S
C139 H157 0.929 1_556 S
C140 C137 1.424 . S
C140 C139 1.384 . S
C140 H158 0.928 . S
C141 C138 1.260 . S
C141 C139 1.479 . S
C142 C137 1.245 . S
C142 C138 1.477 . S
C142 H159 0.932 . S
C143 U126 2.882 . S
C143 C137 1.428 . S
C143 O146 1.301 . S
C143 O147 1.282 . S
O144 U126 2.441 . S
O144 C130 1.249 . S
O145 U126 2.420 . S
O145 C130 1.202 . S
O146 U126 2.455 . S
O146 C143 1.301 . S
O147 U126 2.449 . S
O147 C143 1.282 . S
H148 C121 0.931 . S
H149 C123 0.924 1_554 S
H150 C124 0.930 . S
H151 C125 0.931 . S
H152 C132 0.932 . S
H153 C133 0.930 . S
H154 C134 0.929 . S
H155 C136 0.930 . S
H156 C138 0.932 . S
H157 C139 0.929 1_554 S
H158 C140 0.928 . S
H159 C142 0.932 . S
C160 C161 1.264 . S
C160 C165 1.479 . S
C160 C170 1.465 . S
C161 C160 1.264 . S
C161 C163 1.339 . S
C161 H188 0.931 . S
C162 C163 1.395 . S
C162 C164 1.320 . S
C163 C161 1.339 . S
C163 C162 1.395 . S
C163 H189 0.929 . S
C164 C162 1.320 . S
C164 C165 1.405 . S
C164 H190 0.930 . S
C165 C160 1.479 . S
C165 C164 1.405 . S
C165 H191 0.931 . S
U166 O167 2.454 . S
U166 O168 2.458 . S
U166 C169 2.984 . S
U166 C170 2.847 . S
U166 C183 2.882 . S
U166 O184 2.441 . S
U166 O185 2.420 . S
U166 O186 2.455 . S
U166 O187 2.449 . S
O167 U166 2.454 . S
O167 C169 1.353 . S
O168 U166 2.458 . S
O168 C169 1.286 . S
C169 U166 2.984 . S
C169 O167 1.353 . S
C169 O168 1.286 . S
C169 C171 1.363 . S
C170 C160 1.465 . S
C170 U166 2.847 . S
C170 O184 1.249 . S
C170 O185 1.202 . S
C171 C169 1.363 . S
C171 C173 1.408 . S
C171 C176 1.342 . S
C172 C173 1.310 . S
C172 C175 1.461 . S
C172 H192 0.932 . S
C173 C171 1.408 . S
C173 C172 1.310 . S
C173 H193 0.930 . S
C174 C175 1.474 . S
C174 C176 1.285 . S
C174 H194 0.929 . S
C175 C172 1.461 . S
C175 C174 1.474 . S
C176 C171 1.342 . S
C176 C174 1.285 . S
C176 H195 0.930 . S
C177 C180 1.424 . S
C177 C182 1.245 . S
C177 C183 1.428 . S
C178 C181 1.260 . S
C178 C182 1.477 . S
C178 H196 0.932 . S
C179 C180 1.384 . S
C179 C181 1.479 . S
C179 H197 0.929 . S
C180 C177 1.424 . S
C180 C179 1.384 . S
C180 H198 0.928 . S
C181 C178 1.260 . S
C181 C179 1.479 . S
C182 C177 1.245 . S
C182 C178 1.477 . S
C182 H199 0.932 . S
C183 U166 2.882 . S
C183 C177 1.428 . S
C183 O186 1.301 . S
C183 O187 1.282 . S
O184 U166 2.441 . S
O184 C170 1.249 . S
O185 U166 2.420 . S
O185 C170 1.202 . S
O186 U166 2.455 . S
O186 C183 1.301 . S
O187 U166 2.449 . S
O187 C183 1.282 . S
H188 C161 0.931 . S
H189 C163 0.929 . S
H190 C164 0.930 . S
H191 C165 0.931 . S
H192 C172 0.932 . S
H193 C173 0.930 . S
H194 C174 0.929 . S
H195 C176 0.930 . S
H196 C178 0.932 . S
H197 C179 0.929 . S
H198 C180 0.928 . S
H199 C182 0.932 . S
C200 C201 1.264 1_556 S
C200 C205 1.479 . S
C200 C210 1.465 . S
C201 C200 1.264 1_554 S
C201 C203 1.339 . S
C201 H228 0.931 . S
C202 C203 1.395 1_556 S
C202 C204 1.320 . S
C203 C201 1.339 . S
C203 C202 1.395 1_554 S
C203 H229 0.929 . S
C204 C202 1.320 . S
C204 C205 1.405 . S
C204 H230 0.930 . S
C205 C200 1.479 . S
C205 C204 1.405 . S
C205 H231 0.931 . S
U206 O207 2.454 . S
U206 O208 2.458 . S
U206 C209 2.984 . S
U206 C210 2.847 . S
U206 C223 2.881 1_556 S
U206 O224 2.441 . S
U206 O225 2.420 1_556 S
U206 O226 2.455 . S
U206 O227 2.449 1_556 S
O207 U206 2.454 . S
O207 C209 1.353 . S
O208 U206 2.458 . S
O208 C209 1.286 . S
C209 U206 2.984 . S
C209 O207 1.353 . S
C209 O208 1.286 . S
C209 C211 1.363 . S
C210 C200 1.465 . S
C210 U206 2.847 . S
C210 O224 1.249 . S
C210 O225 1.202 1_556 S
C211 C209 1.363 . S
C211 C213 1.408 . S
C211 C216 1.342 . S
C212 C213 1.310 . S
C212 C215 1.461 . S
C212 H232 0.932 . S
C213 C211 1.408 . S
C213 C212 1.310 . S
C213 H233 0.930 . S
C214 C215 1.474 . S
C214 C216 1.285 . S
C214 H234 0.929 . S
C215 C212 1.461 . S
C215 C214 1.474 . S
C216 C211 1.342 . S
C216 C214 1.285 . S
C216 H235 0.930 . S
C217 C220 1.424 . S
C217 C222 1.245 1_554 S
C217 C223 1.428 . S
C218 C221 1.258 1_556 S
C218 C222 1.477 . S
C218 H236 0.932 . S
C219 C220 1.384 . S
C219 C221 1.482 . S
C219 H237 0.929 . S
C220 C217 1.424 . S
C220 C219 1.384 . S
C220 H238 0.928 . S
C221 C218 1.258 1_554 S
C221 C219 1.482 . S
C222 C217 1.245 1_556 S
C222 C218 1.477 . S
C222 H239 0.932 . S
C223 U206 2.881 1_554 S
C223 C217 1.428 . S
C223 O226 1.300 1_554 S
C223 O227 1.283 . S
O224 U206 2.441 . S
O224 C210 1.249 . S
O225 U206 2.420 1_554 S
O225 C210 1.202 1_554 S
O226 U206 2.455 . S
O226 C223 1.300 1_556 S
O227 U206 2.449 1_554 S
O227 C223 1.283 . S
H228 C201 0.931 . S
H229 C203 0.929 . S
H230 C204 0.930 . S
H231 C205 0.931 . S
H232 C212 0.932 . S
H233 C213 0.930 . S
H234 C214 0.929 . S
H235 C216 0.930 . S
H236 C218 0.932 . S
H237 C219 0.929 . S
H238 C220 0.928 . S
H239 C222 0.932 . S
C240 C241 1.264 . S
C240 C245 1.479 . S
C240 C250 1.465 . S
C241 C240 1.264 . S
C241 C243 1.339 . S
C241 H268 0.931 . S
C242 C243 1.395 . S
C242 C244 1.320 . S
C243 C241 1.339 . S
C243 C242 1.395 . S
C243 H269 0.929 . S
C244 C242 1.320 . S
C244 C245 1.405 . S
C244 H270 0.930 . S
C245 C240 1.479 . S
C245 C244 1.405 . S
C245 H271 0.931 . S
U246 O247 2.454 . S
U246 O248 2.458 . S
U246 C249 2.984 . S
U246 C250 2.847 . S
U246 C263 2.882 . S
U246 O264 2.441 . S
U246 O265 2.420 . S
U246 O266 2.455 . S
U246 O267 2.449 . S
O247 U246 2.454 . S
O247 C249 1.353 . S
O248 U246 2.458 . S
O248 C249 1.286 . S
C249 U246 2.984 . S
C249 O247 1.353 . S
C249 O248 1.286 . S
C249 C251 1.363 . S
C250 C240 1.465 . S
C250 U246 2.847 . S
C250 O264 1.249 . S
C250 O265 1.202 . S
C251 C249 1.363 . S
C251 C253 1.408 . S
C251 C256 1.342 . S
C252 C253 1.310 . S
C252 C255 1.461 . S
C252 H272 0.932 . S
C253 C251 1.408 . S
C253 C252 1.310 . S
C253 H273 0.930 . S
C254 C255 1.474 . S
C254 C256 1.285 . S
C254 H274 0.929 . S
C255 C252 1.461 . S
C255 C254 1.474 . S
C256 C251 1.342 . S
C256 C254 1.285 . S
C256 H275 0.930 . S
C257 C260 1.424 . S
C257 C262 1.245 . S
C257 C263 1.428 . S
C258 C261 1.260 . S
C258 C262 1.477 . S
C258 H276 0.932 . S
C259 C260 1.384 . S
C259 C261 1.479 . S
C259 H277 0.929 . S
C260 C257 1.424 . S
C260 C259 1.384 . S
C260 H278 0.928 . S
C261 C258 1.260 . S
C261 C259 1.479 . S
C262 C257 1.245 . S
C262 C258 1.477 . S
C262 H279 0.932 . S
C263 U246 2.882 . S
C263 C257 1.428 . S
C263 O266 1.301 . S
C263 O267 1.282 . S
O264 U246 2.441 . S
O264 C250 1.249 . S
O265 U246 2.420 . S
O265 C250 1.202 . S
O266 U246 2.455 . S
O266 C263 1.301 . S
O267 U246 2.449 . S
O267 C263 1.282 . S
H268 C241 0.931 . S
H269 C243 0.929 . S
H270 C244 0.930 . S
H271 C245 0.931 . S
H272 C252 0.932 . S
H273 C253 0.930 . S
H274 C254 0.929 . S
H275 C256 0.930 . S
H276 C258 0.932 . S
H277 C259 0.929 . S
H278 C260 0.928 . S
H279 C262 0.932 . S
C280 C281 1.264 . S
C280 C285 1.479 . S
C280 C290 1.465 . S
C281 C280 1.264 . S
C281 C283 1.339 . S
C281 H308 0.931 . S
C282 C283 1.395 . S
C282 C284 1.320 . S
C283 C281 1.339 . S
C283 C282 1.395 . S
C283 H309 0.929 . S
C284 C282 1.320 . S
C284 C285 1.405 . S
C284 H310 0.930 . S
C285 C280 1.479 . S
C285 C284 1.405 . S
C285 H311 0.931 . S
U286 O287 2.454 . S
U286 O288 2.458 . S
U286 C289 2.984 . S
U286 C290 2.847 . S
U286 C303 2.882 . S
U286 O304 2.441 . S
U286 O305 2.420 . S
U286 O306 2.455 . S
U286 O307 2.449 . S
O287 U286 2.454 . S
O287 C289 1.353 . S
O288 U286 2.458 . S
O288 C289 1.286 . S
C289 U286 2.984 . S
C289 O287 1.353 . S
C289 O288 1.286 . S
C289 C291 1.363 . S
C290 C280 1.465 . S
C290 U286 2.847 . S
C290 O304 1.249 . S
C290 O305 1.202 . S
C291 C289 1.363 . S
C291 C293 1.408 . S
C291 C296 1.342 . S
C292 C293 1.310 . S
C292 C295 1.461 . S
C292 H312 0.932 . S
C293 C291 1.408 . S
C293 C292 1.310 . S
C293 H313 0.930 . S
C294 C295 1.474 . S
C294 C296 1.285 . S
C294 H314 0.929 . S
C295 C292 1.461 . S
C295 C294 1.474 . S
C296 C291 1.342 . S
C296 C294 1.285 . S
C296 H315 0.930 . S
C297 C300 1.424 . S
C297 C302 1.245 . S
C297 C303 1.428 . S
C298 C301 1.260 . S
C298 C302 1.477 . S
C298 H316 0.932 . S
C299 C300 1.384 . S
C299 C301 1.479 . S
C299 H317 0.929 . S
C300 C297 1.424 . S
C300 C299 1.384 . S
C300 H318 0.928 . S
C301 C298 1.260 . S
C301 C299 1.479 . S
C302 C297 1.245 . S
C302 C298 1.477 . S
C302 H319 0.932 . S
C303 U286 2.882 . S
C303 C297 1.428 . S
C303 O306 1.301 . S
C303 O307 1.282 . S
O304 U286 2.441 . S
O304 C290 1.249 . S
O305 U286 2.420 . S
O305 C290 1.202 . S
O306 U286 2.455 . S
O306 C303 1.301 . S
O307 U286 2.449 . S
O307 C303 1.282 . S
H308 C281 0.931 . S
H309 C283 0.929 . S
H310 C284 0.930 . S
H311 C285 0.931 . S
H312 C292 0.932 . S
H313 C293 0.930 . S
H314 C294 0.929 . S
H315 C296 0.930 . S
H316 C298 0.932 . S
H317 C299 0.929 . S
H318 C300 0.928 . S
H319 C302 0.932 . S
C320 C321 1.264 . S
C320 C325 1.479 . S
C320 C330 1.465 . S
C321 C320 1.264 . S
C321 C323 1.339 . S
C321 H348 0.931 . S
C322 C323 1.395 . S
C322 C324 1.320 . S
C323 C321 1.339 . S
C323 C322 1.395 . S
C323 H349 0.929 . S
C324 C322 1.320 . S
C324 C325 1.405 . S
C324 H350 0.930 . S
C325 C320 1.479 . S
C325 C324 1.405 . S
C325 H351 0.931 . S
U326 O327 2.454 . S
U326 O328 2.458 . S
U326 C329 2.984 . S
U326 C330 2.847 . S
U326 C343 2.882 . S
U326 O344 2.441 . S
U326 O345 2.420 . S
U326 O346 2.455 . S
U326 O347 2.449 . S
O327 U326 2.454 . S
O327 C329 1.353 . S
O328 U326 2.458 . S
O328 C329 1.286 . S
C329 U326 2.984 . S
C329 O327 1.353 . S
C329 O328 1.286 . S
C329 C331 1.363 . S
C330 C320 1.465 . S
C330 U326 2.847 . S
C330 O344 1.249 . S
C330 O345 1.202 . S
C331 C329 1.363 . S
C331 C333 1.408 . S
C331 C336 1.342 . S
C332 C333 1.310 . S
C332 C335 1.461 . S
C332 H352 0.932 . S
C333 C331 1.408 . S
C333 C332 1.310 . S
C333 H353 0.930 . S
C334 C335 1.474 . S
C334 C336 1.285 . S
C334 H354 0.929 . S
C335 C332 1.461 . S
C335 C334 1.474 . S
C336 C331 1.342 . S
C336 C334 1.285 . S
C336 H355 0.930 . S
C337 C340 1.424 . S
C337 C342 1.245 . S
C337 C343 1.428 . S
C338 C341 1.260 . S
C338 C342 1.477 . S
C338 H356 0.932 . S
C339 C340 1.384 . S
C339 C341 1.479 . S
C339 H357 0.929 . S
C340 C337 1.424 . S
C340 C339 1.384 . S
C340 H358 0.928 . S
C341 C338 1.260 . S
C341 C339 1.479 . S
C342 C337 1.245 . S
C342 C338 1.477 . S
C342 H359 0.932 . S
C343 U326 2.882 . S
C343 C337 1.428 . S
C343 O346 1.301 . S
C343 O347 1.282 . S
O344 U326 2.441 . S
O344 C330 1.249 . S
O345 U326 2.420 . S
O345 C330 1.202 . S
O346 U326 2.455 . S
O346 C343 1.301 . S
O347 U326 2.449 . S
O347 C343 1.282 . S
H348 C321 0.931 . S
H349 C323 0.929 . S
H350 C324 0.930 . S
H351 C325 0.931 . S
H352 C332 0.932 . S
H353 C333 0.930 . S
H354 C334 0.929 . S
H355 C336 0.930 . S
H356 C338 0.932 . S
H357 C339 0.929 . S
H358 C340 0.928 . S
H359 C342 0.932 . S
C360 C361 1.264 . S
C360 C365 1.479 . S
C360 C370 1.465 . S
C361 C360 1.264 . S
C361 C363 1.339 . S
C361 H388 0.931 . S
C362 C363 1.395 . S
C362 C364 1.320 . S
C363 C361 1.339 . S
C363 C362 1.395 . S
C363 H389 0.929 . S
C364 C362 1.320 . S
C364 C365 1.405 . S
C364 H390 0.930 . S
C365 C360 1.479 . S
C365 C364 1.405 . S
C365 H391 0.931 . S
U366 O367 2.454 . S
U366 O368 2.458 . S
U366 C369 2.984 . S
U366 C370 2.847 . S
U366 C383 2.882 . S
U366 O384 2.441 . S
U366 O385 2.420 . S
U366 O386 2.455 . S
U366 O387 2.449 . S
O367 U366 2.454 . S
O367 C369 1.353 . S
O368 U366 2.458 . S
O368 C369 1.286 . S
C369 U366 2.984 . S
C369 O367 1.353 . S
C369 O368 1.286 . S
C369 C371 1.363 . S
C370 C360 1.465 . S
C370 U366 2.847 . S
C370 O384 1.249 . S
C370 O385 1.202 . S
C371 C369 1.363 . S
C371 C373 1.408 . S
C371 C376 1.342 . S
C372 C373 1.310 . S
C372 C375 1.461 . S
C372 H392 0.932 . S
C373 C371 1.408 . S
C373 C372 1.310 . S
C373 H393 0.930 . S
C374 C375 1.474 . S
C374 C376 1.285 . S
C374 H394 0.929 . S
C375 C372 1.461 . S
C375 C374 1.474 . S
C376 C371 1.342 . S
C376 C374 1.285 . S
C376 H395 0.930 . S
C377 C380 1.424 . S
C377 C382 1.245 . S
C377 C383 1.428 . S
C378 C381 1.260 . S
C378 C382 1.477 . S
C378 H396 0.932 . S
C379 C380 1.384 . S
C379 C381 1.479 . S
C379 H397 0.929 . S
C380 C377 1.424 . S
C380 C379 1.384 . S
C380 H398 0.928 . S
C381 C378 1.260 . S
C381 C379 1.479 . S
C382 C377 1.245 . S
C382 C378 1.477 . S
C382 H399 0.932 . S
C383 U366 2.882 . S
C383 C377 1.428 . S
C383 O386 1.301 . S
C383 O387 1.282 . S
O384 U366 2.441 . S
O384 C370 1.249 . S
O385 U366 2.420 . S
O385 C370 1.202 . S
O386 U366 2.455 . S
O386 C383 1.301 . S
O387 U366 2.449 . S
O387 C383 1.282 . S
H388 C361 0.931 . S
H389 C363 0.929 . S
H390 C364 0.930 . S
H391 C365 0.931 . S
H392 C372 0.932 . S
H393 C373 0.930 . S
H394 C374 0.929 . S
H395 C376 0.930 . S
H396 C378 0.932 . S
H397 C379 0.929 . S
H398 C380 0.928 . S
H399 C382 0.932 . S
C400 C401 1.264 . S
C400 C405 1.479 . S
C400 C410 1.465 . S
C401 C400 1.264 . S
C401 C403 1.339 . S
C401 H428 0.931 . S
C402 C403 1.395 . S
C402 C404 1.320 . S
C403 C401 1.339 . S
C403 C402 1.395 . S
C403 H429 0.929 . S
C404 C402 1.320 . S
C404 C405 1.405 . S
C404 H430 0.930 . S
C405 C400 1.479 . S
C405 C404 1.405 . S
C405 H431 0.931 . S
U406 O407 2.454 . S
U406 O408 2.458 . S
U406 C409 2.984 . S
U406 C410 2.847 . S
U406 C423 2.882 . S
U406 O424 2.441 . S
U406 O425 2.420 . S
U406 O426 2.455 . S
U406 O427 2.449 . S
O407 U406 2.454 . S
O407 C409 1.353 . S
O408 U406 2.458 . S
O408 C409 1.286 . S
C409 U406 2.984 . S
C409 O407 1.353 . S
C409 O408 1.286 . S
C409 C411 1.363 . S
C410 C400 1.465 . S
C410 U406 2.847 . S
C410 O424 1.249 . S
C410 O425 1.202 . S
C411 C409 1.363 . S
C411 C413 1.408 . S
C411 C416 1.342 . S
C412 C413 1.310 . S
C412 C415 1.461 . S
C412 H432 0.932 . S
C413 C411 1.408 . S
C413 C412 1.310 . S
C413 H433 0.930 . S
C414 C415 1.474 . S
C414 C416 1.285 . S
C414 H434 0.929 . S
C415 C412 1.461 . S
C415 C414 1.474 . S
C416 C411 1.342 . S
C416 C414 1.285 . S
C416 H435 0.930 . S
C417 C420 1.424 . S
C417 C422 1.245 . S
C417 C423 1.428 . S
C418 C421 1.260 . S
C418 C422 1.477 . S
C418 H436 0.932 . S
C419 C420 1.384 . S
C419 C421 1.479 . S
C419 H437 0.929 . S
C420 C417 1.424 . S
C420 C419 1.384 . S
C420 H438 0.928 . S
C421 C418 1.260 . S
C421 C419 1.479 . S
C422 C417 1.245 . S
C422 C418 1.477 . S
C422 H439 0.932 . S
C423 U406 2.882 . S
C423 C417 1.428 . S
C423 O426 1.301 . S
C423 O427 1.282 . S
O424 U406 2.441 . S
O424 C410 1.249 . S
O425 U406 2.420 . S
O425 C410 1.202 . S
O426 U406 2.455 . S
O426 C423 1.301 . S
O427 U406 2.449 . S
O427 C423 1.282 . S
H428 C401 0.931 . S
H429 C403 0.929 . S
H430 C404 0.930 . S
H431 C405 0.931 . S
H432 C412 0.932 . S
H433 C413 0.930 . S
H434 C414 0.929 . S
H435 C416 0.930 . S
H436 C418 0.932 . S
H437 C419 0.929 . S
H438 C420 0.928 . S
H439 C422 0.932 . S
C440 C441 1.264 . S
C440 C445 1.479 . S
C440 C450 1.465 . S
C441 C440 1.264 . S
C441 C443 1.339 . S
C441 H468 0.931 . S
C442 C443 1.395 . S
C442 C444 1.320 . S
C443 C441 1.339 . S
C443 C442 1.395 . S
C443 H469 0.929 . S
C444 C442 1.320 . S
C444 C445 1.405 . S
C444 H470 0.930 . S
C445 C440 1.479 . S
C445 C444 1.405 . S
C445 H471 0.931 . S
U446 O447 2.454 . S
U446 O448 2.458 . S
U446 C449 2.984 . S
U446 C450 2.847 . S
U446 C463 2.882 . S
U446 O464 2.441 . S
U446 O465 2.420 . S
U446 O466 2.455 . S
U446 O467 2.449 . S
O447 U446 2.454 . S
O447 C449 1.353 . S
O448 U446 2.458 . S
O448 C449 1.286 . S
C449 U446 2.984 . S
C449 O447 1.353 . S
C449 O448 1.286 . S
C449 C451 1.363 . S
C450 C440 1.465 . S
C450 U446 2.847 . S
C450 O464 1.249 . S
C450 O465 1.202 . S
C451 C449 1.363 . S
C451 C453 1.408 . S
C451 C456 1.342 . S
C452 C453 1.310 . S
C452 C455 1.461 . S
C452 H472 0.932 . S
C453 C451 1.408 . S
C453 C452 1.310 . S
C453 H473 0.930 . S
C454 C455 1.474 . S
C454 C456 1.285 . S
C454 H474 0.929 . S
C455 C452 1.461 . S
C455 C454 1.474 . S
C456 C451 1.342 . S
C456 C454 1.285 . S
C456 H475 0.930 . S
C457 C460 1.424 . S
C457 C462 1.245 . S
C457 C463 1.428 . S
C458 C461 1.260 . S
C458 C462 1.477 . S
C458 H476 0.932 . S
C459 C460 1.384 . S
C459 C461 1.479 . S
C459 H477 0.929 . S
C460 C457 1.424 . S
C460 C459 1.384 . S
C460 H478 0.928 . S
C461 C458 1.260 . S
C461 C459 1.479 . S
C462 C457 1.245 . S
C462 C458 1.477 . S
C462 H479 0.932 . S
C463 U446 2.882 . S
C463 C457 1.428 . S
C463 O466 1.301 . S
C463 O467 1.282 . S
O464 U446 2.441 . S
O464 C450 1.249 . S
O465 U446 2.420 . S
O465 C450 1.202 . S
O466 U446 2.455 . S
O466 C463 1.301 . S
O467 U446 2.449 . S
O467 C463 1.282 . S
H468 C441 0.931 . S
H469 C443 0.929 . S
H470 C444 0.930 . S
H471 C445 0.931 . S
H472 C452 0.932 . S
H473 C453 0.930 . S
H474 C454 0.929 . S
H475 C456 0.930 . S
H476 C458 0.932 . S
H477 C459 0.929 . S
H478 C460 0.928 . S
H479 C462 0.932 . S
C480 C481 1.264 . S
C480 C485 1.479 . S
C480 C490 1.465 . S
C481 C480 1.264 . S
C481 C483 1.339 . S
C481 H508 0.931 . S
C482 C483 1.395 . S
C482 C484 1.320 . S
C483 C481 1.339 . S
C483 C482 1.395 . S
C483 H509 0.929 . S
C484 C482 1.320 . S
C484 C485 1.405 . S
C484 H510 0.930 . S
C485 C480 1.479 . S
C485 C484 1.405 . S
C485 H511 0.931 . S
U486 O487 2.454 . S
U486 O488 2.458 . S
U486 C489 2.984 . S
U486 C490 2.847 . S
U486 C503 2.882 . S
U486 O504 2.441 . S
U486 O505 2.420 . S
U486 O506 2.455 . S
U486 O507 2.449 . S
O487 U486 2.454 . S
O487 C489 1.353 . S
O488 U486 2.458 . S
O488 C489 1.286 . S
C489 U486 2.984 . S
C489 O487 1.353 . S
C489 O488 1.286 . S
C489 C491 1.363 . S
C490 C480 1.465 . S
C490 U486 2.847 . S
C490 O504 1.249 . S
C490 O505 1.202 . S
C491 C489 1.363 . S
C491 C493 1.408 . S
C491 C496 1.342 . S
C492 C493 1.310 . S
C492 C495 1.461 . S
C492 H512 0.932 . S
C493 C491 1.408 . S
C493 C492 1.310 . S
C493 H513 0.930 . S
C494 C495 1.474 . S
C494 C496 1.285 . S
C494 H514 0.929 . S
C495 C492 1.461 . S
C495 C494 1.474 . S
C496 C491 1.342 . S
C496 C494 1.285 . S
C496 H515 0.930 . S
C497 C500 1.424 . S
C497 C502 1.245 . S
C497 C503 1.428 . S
C498 C501 1.260 . S
C498 C502 1.477 . S
C498 H516 0.932 . S
C499 C500 1.384 . S
C499 C501 1.479 . S
C499 H517 0.929 . S
C500 C497 1.424 . S
C500 C499 1.384 . S
C500 H518 0.928 . S
C501 C498 1.260 . S
C501 C499 1.479 . S
C502 C497 1.245 . S
C502 C498 1.477 . S
C502 H519 0.932 . S
C503 U486 2.882 . S
C503 C497 1.428 . S
C503 O506 1.301 . S
C503 O507 1.282 . S
O504 U486 2.441 . S
O504 C490 1.249 . S
O505 U486 2.420 . S
O505 C490 1.202 . S
O506 U486 2.455 . S
O506 C503 1.301 . S
O507 U486 2.449 . S
O507 C503 1.282 . S
H508 C481 0.931 . S
H509 C483 0.929 . S
H510 C484 0.930 . S
H511 C485 0.931 . S
H512 C492 0.932 . S
H513 C493 0.930 . S
H514 C494 0.929 . S
H515 C496 0.930 . S
H516 C498 0.932 . S
H517 C499 0.929 . S
H518 C500 0.928 . S
H519 C502 0.932 . S
C520 C521 1.264 . S
C520 C525 1.479 . S
C520 C530 1.465 . S
C521 C520 1.264 . S
C521 C523 1.339 . S
C521 H548 0.931 . S
C522 C523 1.395 . S
C522 C524 1.320 . S
C523 C521 1.339 . S
C523 C522 1.395 . S
C523 H549 0.929 . S
C524 C522 1.320 . S
C524 C525 1.405 . S
C524 H550 0.930 . S
C525 C520 1.479 . S
C525 C524 1.405 . S
C525 H551 0.931 . S
U526 O527 2.454 . S
U526 O528 2.458 . S
U526 C529 2.984 . S
U526 C530 2.847 . S
U526 C543 2.882 . S
U526 O544 2.441 . S
U526 O545 2.420 . S
U526 O546 2.455 . S
U526 O547 2.449 . S
O527 U526 2.454 . S
O527 C529 1.353 . S
O528 U526 2.458 . S
O528 C529 1.286 . S
C529 U526 2.984 . S
C529 O527 1.353 . S
C529 O528 1.286 . S
C529 C531 1.363 . S
C530 C520 1.465 . S
C530 U526 2.847 . S
C530 O544 1.249 . S
C530 O545 1.202 . S
C531 C529 1.363 . S
C531 C533 1.408 . S
C531 C536 1.342 . S
C532 C533 1.310 . S
C532 C535 1.461 . S
C532 H552 0.932 . S
C533 C531 1.408 . S
C533 C532 1.310 . S
C533 H553 0.930 . S
C534 C535 1.474 . S
C534 C536 1.285 . S
C534 H554 0.929 . S
C535 C532 1.461 . S
C535 C534 1.474 . S
C536 C531 1.342 . S
C536 C534 1.285 . S
C536 H555 0.930 . S
C537 C540 1.424 . S
C537 C542 1.245 . S
C537 C543 1.428 . S
C538 C541 1.260 . S
C538 C542 1.477 . S
C538 H556 0.932 . S
C539 C540 1.384 . S
C539 C541 1.479 . S
C539 H557 0.929 . S
C540 C537 1.424 . S
C540 C539 1.384 . S
C540 H558 0.928 . S
C541 C538 1.260 . S
C541 C539 1.479 . S
C542 C537 1.245 . S
C542 C538 1.477 . S
C542 H559 0.932 . S
C543 U526 2.882 . S
C543 C537 1.428 . S
C543 O546 1.301 . S
C543 O547 1.282 . S
O544 U526 2.441 . S
O544 C530 1.249 . S
O545 U526 2.420 . S
O545 C530 1.202 . S
O546 U526 2.455 . S
O546 C543 1.301 . S
O547 U526 2.449 . S
O547 C543 1.282 . S
H548 C521 0.931 . S
H549 C523 0.929 . S
H550 C524 0.930 . S
H551 C525 0.931 . S
H552 C532 0.932 . S
H553 C533 0.930 . S
H554 C534 0.929 . S
H555 C536 0.930 . S
H556 C538 0.932 . S
H557 C539 0.929 . S
H558 C540 0.928 . S
H559 C542 0.932 . S
C560 C561 1.264 . S
C560 C565 1.479 . S
C560 C570 1.465 . S
C561 C560 1.264 . S
C561 C563 1.339 . S
C561 H588 0.931 . S
C562 C563 1.395 . S
C562 C564 1.320 . S
C563 C561 1.339 . S
C563 C562 1.395 . S
C563 H589 0.929 . S
C564 C562 1.320 . S
C564 C565 1.405 . S
C564 H590 0.930 . S
C565 C560 1.479 . S
C565 C564 1.405 . S
C565 H591 0.931 . S
U566 O567 2.454 . S
U566 O568 2.458 . S
U566 C569 2.984 . S
U566 C570 2.847 . S
U566 C583 2.882 . S
U566 O584 2.441 . S
U566 O585 2.420 . S
U566 O586 2.455 . S
U566 O587 2.449 . S
O567 U566 2.454 . S
O567 C569 1.353 . S
O568 U566 2.458 . S
O568 C569 1.286 . S
C569 U566 2.984 . S
C569 O567 1.353 . S
C569 O568 1.286 . S
C569 C571 1.363 . S
C570 C560 1.465 . S
C570 U566 2.847 . S
C570 O584 1.249 . S
C570 O585 1.202 . S
C571 C569 1.363 . S
C571 C573 1.408 . S
C571 C576 1.342 . S
C572 C573 1.310 . S
C572 C575 1.461 . S
C572 H592 0.932 . S
C573 C571 1.408 . S
C573 C572 1.310 . S
C573 H593 0.930 . S
C574 C575 1.474 . S
C574 C576 1.285 . S
C574 H594 0.929 . S
C575 C572 1.461 . S
C575 C574 1.474 . S
C576 C571 1.342 . S
C576 C574 1.285 . S
C576 H595 0.930 . S
C577 C580 1.424 . S
C577 C582 1.245 . S
C577 C583 1.428 . S
C578 C581 1.260 . S
C578 C582 1.477 . S
C578 H596 0.932 . S
C579 C580 1.384 . S
C579 C581 1.479 . S
C579 H597 0.929 . S
C580 C577 1.424 . S
C580 C579 1.384 . S
C580 H598 0.928 . S
C581 C578 1.260 . S
C581 C579 1.479 . S
C582 C577 1.245 . S
C582 C578 1.477 . S
C582 H599 0.932 . S
C583 U566 2.882 . S
C583 C577 1.428 . S
C583 O586 1.301 . S
C583 O587 1.282 . S
O584 U566 2.441 . S
O584 C570 1.249 . S
O585 U566 2.420 . S
O585 C570 1.202 . S
O586 U566 2.455 . S
O586 C583 1.301 . S
O587 U566 2.449 . S
O587 C583 1.282 . S
H588 C561 0.931 . S
H589 C563 0.929 . S
H590 C564 0.930 . S
H591 C565 0.931 . S
H592 C572 0.932 . S
H593 C573 0.930 . S
H594 C574 0.929 . S
H595 C576 0.930 . S
H596 C578 0.932 . S
H597 C579 0.929 . S
H598 C580 0.928 . S
H599 C582 0.932 . S
C600 C601 1.264 . S
C600 C605 1.479 . S
C600 C610 1.465 . S
C601 C600 1.264 . S
C601 C603 1.339 . S
C601 H628 0.931 . S
C602 C603 1.395 . S
C602 C604 1.320 . S
C603 C601 1.339 . S
C603 C602 1.395 . S
C603 H629 0.929 . S
C604 C602 1.320 . S
C604 C605 1.405 . S
C604 H630 0.930 . S
C605 C600 1.479 . S
C605 C604 1.405 . S
C605 H631 0.931 . S
U606 O607 2.454 . S
U606 O608 2.458 . S
U606 C609 2.984 . S
U606 C610 2.847 . S
U606 C623 2.882 . S
U606 O624 2.441 . S
U606 O625 2.420 . S
U606 O626 2.455 . S
U606 O627 2.449 . S
O607 U606 2.454 . S
O607 C609 1.353 . S
O608 U606 2.458 . S
O608 C609 1.286 . S
C609 U606 2.984 . S
C609 O607 1.353 . S
C609 O608 1.286 . S
C609 C611 1.363 . S
C610 C600 1.465 . S
C610 U606 2.847 . S
C610 O624 1.249 . S
C610 O625 1.202 . S
C611 C609 1.363 . S
C611 C613 1.408 . S
C611 C616 1.342 . S
C612 C613 1.310 . S
C612 C615 1.461 . S
C612 H632 0.932 . S
C613 C611 1.408 . S
C613 C612 1.310 . S
C613 H633 0.930 . S
C614 C615 1.474 . S
C614 C616 1.285 . S
C614 H634 0.929 . S
C615 C612 1.461 . S
C615 C614 1.474 . S
C616 C611 1.342 . S
C616 C614 1.285 . S
C616 H635 0.930 . S
C617 C620 1.424 . S
C617 C622 1.245 . S
C617 C623 1.428 . S
C618 C621 1.260 . S
C618 C622 1.477 . S
C618 H636 0.932 . S
C619 C620 1.384 . S
C619 C621 1.479 . S
C619 H637 0.929 . S
C620 C617 1.424 . S
C620 C619 1.384 . S
C620 H638 0.928 . S
C621 C618 1.260 . S
C621 C619 1.479 . S
C622 C617 1.245 . S
C622 C618 1.477 . S
C622 H639 0.932 . S
C623 U606 2.882 . S
C623 C617 1.428 . S
C623 O626 1.301 . S
C623 O627 1.282 . S
O624 U606 2.441 . S
O624 C610 1.249 . S
O625 U606 2.420 . S
O625 C610 1.202 . S
O626 U606 2.455 . S
O626 C623 1.301 . S
O627 U606 2.449 . S
O627 C623 1.282 . S
H628 C601 0.931 . S
H629 C603 0.929 . S
H630 C604 0.930 . S
H631 C605 0.931 . S
H632 C612 0.932 . S
H633 C613 0.930 . S
H634 C614 0.929 . S
H635 C616 0.930 . S
H636 C618 0.932 . S
H637 C619 0.929 . S
H638 C620 0.928 . S
H639 C622 0.932 . S
C640 C641 1.264 . S
C640 C645 1.479 . S
C640 C650 1.465 . S
C641 C640 1.264 . S
C641 C643 1.339 . S
C641 H668 0.931 . S
C642 C643 1.395 . S
C642 C644 1.320 . S
C643 C641 1.339 . S
C643 C642 1.395 . S
C643 H669 0.929 . S
C644 C642 1.320 . S
C644 C645 1.405 . S
C644 H670 0.930 . S
C645 C640 1.479 . S
C645 C644 1.405 . S
C645 H671 0.931 . S
U646 O647 2.454 . S
U646 O648 2.458 . S
U646 C649 2.984 . S
U646 C650 2.847 . S
U646 C663 2.882 . S
U646 O664 2.441 . S
U646 O665 2.420 . S
U646 O666 2.455 . S
U646 O667 2.449 . S
O647 U646 2.454 . S
O647 C649 1.353 . S
O648 U646 2.458 . S
O648 C649 1.286 . S
C649 U646 2.984 . S
C649 O647 1.353 . S
C649 O648 1.286 . S
C649 C651 1.363 . S
C650 C640 1.465 . S
C650 U646 2.847 . S
C650 O664 1.249 . S
C650 O665 1.202 . S
C651 C649 1.363 . S
C651 C653 1.408 . S
C651 C656 1.342 . S
C652 C653 1.310 . S
C652 C655 1.461 . S
C652 H672 0.932 . S
C653 C651 1.408 . S
C653 C652 1.310 . S
C653 H673 0.930 . S
C654 C655 1.474 . S
C654 C656 1.285 . S
C654 H674 0.929 . S
C655 C652 1.461 . S
C655 C654 1.474 . S
C656 C651 1.342 . S
C656 C654 1.285 . S
C656 H675 0.930 . S
C657 C660 1.424 . S
C657 C662 1.245 . S
C657 C663 1.428 . S
C658 C661 1.260 . S
C658 C662 1.477 . S
C658 H676 0.932 . S
C659 C660 1.384 . S
C659 C661 1.479 . S
C659 H677 0.929 . S
C660 C657 1.424 . S
C660 C659 1.384 . S
C660 H678 0.928 . S
C661 C658 1.260 . S
C661 C659 1.479 . S
C662 C657 1.245 . S
C662 C658 1.477 . S
C662 H679 0.932 . S
C663 U646 2.882 . S
C663 C657 1.428 . S
C663 O666 1.301 . S
C663 O667 1.282 . S
O664 U646 2.441 . S
O664 C650 1.249 . S
O665 U646 2.420 . S
O665 C650 1.202 . S
O666 U646 2.455 . S
O666 C663 1.301 . S
O667 U646 2.449 . S
O667 C663 1.282 . S
H668 C641 0.931 . S
H669 C643 0.929 . S
H670 C644 0.930 . S
H671 C645 0.931 . S
H672 C652 0.932 . S
H673 C653 0.930 . S
H674 C654 0.929 . S
H675 C656 0.930 . S
H676 C658 0.932 . S
H677 C659 0.929 . S
H678 C660 0.928 . S
H679 C662 0.932 . S
C680 C681 1.264 . S
C680 C685 1.479 . S
C680 C690 1.465 . S
C681 C680 1.264 . S
C681 C683 1.339 . S
C681 H708 0.931 . S
C682 C683 1.395 . S
C682 C684 1.320 . S
C683 C681 1.339 . S
C683 C682 1.395 . S
C683 H709 0.929 . S
C684 C682 1.320 . S
C684 C685 1.405 . S
C684 H710 0.930 . S
C685 C680 1.479 . S
C685 C684 1.405 . S
C685 H711 0.931 . S
U686 O687 2.454 . S
U686 O688 2.458 . S
U686 C689 2.984 . S
U686 C690 2.847 . S
U686 C703 2.882 . S
U686 O704 2.441 . S
U686 O705 2.420 . S
U686 O706 2.455 . S
U686 O707 2.449 . S
O687 U686 2.454 . S
O687 C689 1.353 . S
O688 U686 2.458 . S
O688 C689 1.286 . S
C689 U686 2.984 . S
C689 O687 1.353 . S
C689 O688 1.286 . S
C689 C691 1.363 . S
C690 C680 1.465 . S
C690 U686 2.847 . S
C690 O704 1.249 . S
C690 O705 1.202 . S
C691 C689 1.363 . S
C691 C693 1.408 . S
C691 C696 1.342 . S
C692 C693 1.310 . S
C692 C695 1.461 . S
C692 H712 0.932 . S
C693 C691 1.408 . S
C693 C692 1.310 . S
C693 H713 0.930 . S
C694 C695 1.474 . S
C694 C696 1.285 . S
C694 H714 0.929 . S
C695 C692 1.461 . S
C695 C694 1.474 . S
C696 C691 1.342 . S
C696 C694 1.285 . S
C696 H715 0.930 . S
C697 C700 1.424 . S
C697 C702 1.245 . S
C697 C703 1.428 . S
C698 C701 1.260 . S
C698 C702 1.477 . S
C698 H716 0.932 . S
C699 C700 1.384 . S
C699 C701 1.479 . S
C699 H717 0.929 . S
C700 C697 1.424 . S
C700 C699 1.384 . S
C700 H718 0.928 . S
C701 C698 1.260 . S
C701 C699 1.479 . S
C702 C697 1.245 . S
C702 C698 1.477 . S
C702 H719 0.932 . S
C703 U686 2.882 . S
C703 C697 1.428 . S
C703 O706 1.301 . S
C703 O707 1.282 . S
O704 U686 2.441 . S
O704 C690 1.249 . S
O705 U686 2.420 . S
O705 C690 1.202 . S
O706 U686 2.455 . S
O706 C703 1.301 . S
O707 U686 2.449 . S
O707 C703 1.282 . S
H708 C681 0.931 . S
H709 C683 0.929 . S
H710 C684 0.930 . S
H711 C685 0.931 . S
H712 C692 0.932 . S
H713 C693 0.930 . S
H714 C694 0.929 . S
H715 C696 0.930 . S
H716 C698 0.932 . S
H717 C699 0.929 . S
H718 C700 0.928 . S
H719 C702 0.932 . S
H720 C728 0.950 . S
H721 C733 0.950 . S
H722 C730 0.950 . S
H723 C732 0.950 . S
H724 C734 0.950 . S
H725 C736 0.950 . S
H726 C738 0.950 . S
H727 C739 0.950 . S
C728 H720 0.950 . S
C728 C729 1.386 1_556 S
C728 C730 1.391 . S
C729 C728 1.386 1_554 S
C729 C733 1.393 . S
C730 H722 0.950 . S
C730 C728 1.391 . S
C730 C731 1.400 1_556 S
C731 C730 1.400 1_554 S
C731 C732 1.398 . S
C731 C737 1.491 1_545 S
C732 H723 0.950 . S
C732 C731 1.398 . S
C732 C733 1.391 . S
C733 H721 0.950 . S
C733 C729 1.393 . S
C733 C732 1.391 . S
C734 H724 0.950 . S
C734 C735 1.365 1_554 S
C734 C736 1.391 . S
C735 C734 1.365 1_556 S
C735 C739 1.412 . S
C736 H725 0.950 . S
C736 C734 1.391 . S
C736 C737 1.400 . S
C737 C731 1.491 1_565 S
C737 C736 1.400 . S
C737 C738 1.398 1_554 S
C738 H726 0.950 . S
C738 C737 1.398 1_556 S
C738 C739 1.391 . S
C739 H727 0.950 . S
C739 C735 1.412 . S
C739 C738 1.391 . S
H740 C748 0.950 . S
H741 C753 0.950 . S
H742 C750 0.950 . S
H743 C752 0.950 . S
H744 C754 0.950 . S
H745 C756 0.950 . S
H746 C758 0.950 . S
H747 C759 0.950 . S
C748 H740 0.950 . S
C748 C749 1.386 1_556 S
C748 C750 1.391 . S
C749 C748 1.386 1_554 S
C749 C753 1.393 . S
C750 H742 0.950 . S
C750 C748 1.391 . S
C750 C751 1.400 1_556 S
C751 C750 1.400 1_554 S
C751 C752 1.398 . S
C751 C757 1.491 1_655 S
C752 H743 0.950 . S
C752 C751 1.398 . S
C752 C753 1.391 . S
C753 H741 0.950 . S
C753 C749 1.393 . S
C753 C752 1.391 . S
C754 H744 0.950 . S
C754 C755 1.386 . S
C754 C756 1.391 . S
C755 C754 1.386 . S
C755 C759 1.393 1_554 S
C756 H745 0.950 . S
C756 C754 1.391 . S
C756 C757 1.400 . S
C757 C751 1.491 1_455 S
C757 C756 1.400 . S
C757 C758 1.398 1_554 S
C758 H746 0.950 . S
C758 C757 1.398 1_556 S
C758 C759 1.391 . S
C759 H747 0.950 . S
C759 C755 1.393 1_556 S
C759 C758 1.391 . S
H760 C768 0.950 . S
H761 C773 0.950 . S
H762 C770 0.950 . S
H763 C772 0.950 . S
H764 C774 0.950 . S
H765 C776 0.950 . S
H766 C778 0.950 1_554 S
H767 C779 0.950 1_554 S
C768 H760 0.950 . S
C768 C769 1.386 1_554 S
C768 C770 1.391 . S
C769 C768 1.386 1_556 S
C769 C773 1.393 . S
C770 H762 0.950 . S
C770 C768 1.391 . S
C770 C771 1.400 1_554 S
C771 C770 1.400 1_556 S
C771 C772 1.398 . S
C771 C777 1.491 . S
C772 H763 0.950 . S
C772 C771 1.398 . S
C772 C773 1.391 . S
C773 H761 0.950 . S
C773 C769 1.393 . S
C773 C772 1.391 . S
C774 H764 0.950 . S
C774 C775 1.386 . S
C774 C776 1.391 . S
C775 C774 1.386 . S
C775 C779 1.393 . S
C776 H765 0.950 . S
C776 C774 1.391 . S
C776 C777 1.400 . S
C777 C771 1.491 . S
C777 C776 1.400 . S
C777 C778 1.398 . S
C778 H766 0.950 1_556 S
C778 C777 1.398 . S
C778 C779 1.391 . S
C779 H767 0.950 1_556 S
C779 C775 1.393 . S
C779 C778 1.391 . S
H780 C788 0.950 . S
H781 C793 0.950 . S
H782 C790 0.951 . S
H783 C792 0.950 . S
H784 C794 0.950 . S
H785 C796 0.950 . S
H786 C798 0.950 . S
H787 C799 0.950 . S
C788 H780 0.950 . S
C788 C789 1.386 . S
C788 C790 1.388 1_554 S
C789 C788 1.386 . S
C789 C793 1.393 . S
C790 H782 0.951 . S
C790 C788 1.388 1_556 S
C790 C791 1.403 . S
C791 C790 1.403 . S
C791 C792 1.398 . S
C791 C797 1.491 1_545 S
C792 H783 0.950 . S
C792 C791 1.398 . S
C792 C793 1.391 1_556 S
C793 H781 0.950 . S
C793 C789 1.393 . S
C793 C792 1.391 1_554 S
C794 H784 0.950 . S
C794 C795 1.386 . S
C794 C796 1.391 . S
C795 C794 1.386 . S
C795 C799 1.393 . S
C796 H785 0.950 . S
C796 C794 1.391 . S
C796 C797 1.400 . S
C797 C791 1.491 1_565 S
C797 C796 1.400 . S
C797 C798 1.398 . S
C798 H786 0.950 . S
C798 C797 1.398 . S
C798 C799 1.391 . S
C799 H787 0.950 . S
C799 C795 1.393 . S
C799 C798 1.391 . S
H800 C808 0.950 . S
H801 C813 0.950 . S
H802 C810 0.950 . S
H803 C812 0.950 . S
H804 C814 0.950 . S
H805 C816 0.950 . S
H806 C818 0.950 . S
H807 C819 0.950 . S
C808 H800 0.950 . S
C808 C809 1.386 . S
C808 C810 1.391 . S
C809 C808 1.386 . S
C809 C813 1.393 1_556 S
C810 H802 0.950 . S
C810 C808 1.391 . S
C810 C811 1.400 . S
C811 C810 1.400 . S
C811 C812 1.398 1_556 S
C811 C817 1.491 1_455 S
C812 H803 0.950 . S
C812 C811 1.398 1_554 S
C812 C813 1.391 . S
C813 H801 0.950 . S
C813 C809 1.393 1_554 S
C813 C812 1.391 . S
C814 H804 0.950 . S
C814 C815 1.386 . S
C814 C816 1.391 . S
C815 C814 1.386 . S
C815 C819 1.393 1_554 S
C816 H805 0.950 . S
C816 C814 1.391 . S
C816 C817 1.390 1_554 S
C817 C811 1.491 1_655 S
C817 C816 1.390 1_556 S
C817 C818 1.408 . S
C818 H806 0.950 . S
C818 C817 1.408 . S
C818 C819 1.391 . S
C819 H807 0.950 . S
C819 C815 1.393 1_556 S
C819 C818 1.391 . S
H820 C828 0.950 . S
H821 C833 0.950 . S
H822 C830 0.950 . S
H823 C832 0.950 . S
H824 C834 0.950 . S
H825 C836 0.950 . S
H826 C838 0.950 . S
H827 C839 0.950 . S
C828 H820 0.950 . S
C828 C829 1.386 1_556 S
C828 C830 1.391 . S
C829 C828 1.386 1_554 S
C829 C833 1.393 . S
C830 H822 0.950 . S
C830 C828 1.391 . S
C830 C831 1.400 1_556 S
C831 C830 1.400 1_554 S
C831 C832 1.398 . S
C831 C837 1.491 . S
C832 H823 0.950 . S
C832 C831 1.398 . S
C832 C833 1.391 . S
C833 H821 0.950 . S
C833 C829 1.393 . S
C833 C832 1.391 . S
C834 H824 0.950 . S
C834 C835 1.394 . S
C834 C836 1.391 . S
C835 C834 1.394 . S
C835 C839 1.385 1_554 S
C836 H825 0.950 . S
C836 C834 1.391 . S
C836 C837 1.400 . S
C837 C831 1.491 . S
C837 C836 1.400 . S
C837 C838 1.398 1_554 S
C838 H826 0.950 . S
C838 C837 1.398 1_556 S
C838 C839 1.391 . S
C839 H827 0.950 . S
C839 C835 1.385 1_556 S
C839 C838 1.391 . S
H840 C848 0.950 . S
H841 C853 0.950 . S
H842 C850 0.950 . S
H843 C852 0.950 . S
H844 C854 0.950 . S
H845 C856 0.950 . S
H846 C858 0.950 . S
H847 C859 0.950 . S
C848 H840 0.950 . S
C848 C849 1.386 . S
C848 C850 1.391 . S
C849 C848 1.386 . S
C849 C853 1.393 . S
C850 H842 0.950 . S
C850 C848 1.391 . S
C850 C851 1.400 . S
C851 C850 1.400 . S
C851 C852 1.398 . S
C851 C857 1.491 . S
C852 H843 0.950 . S
C852 C851 1.398 . S
C852 C853 1.391 . S
C853 H841 0.950 . S
C853 C849 1.393 . S
C853 C852 1.391 . S
C854 H844 0.950 . S
C854 C855 1.386 . S
C854 C856 1.391 . S
C855 C854 1.386 . S
C855 C859 1.393 . S
C856 H845 0.950 . S
C856 C854 1.391 . S
C856 C857 1.400 . S
C857 C851 1.491 . S
C857 C856 1.400 . S
C857 C858 1.398 . S
C858 H846 0.950 . S
C858 C857 1.398 . S
C858 C859 1.391 . S
C859 H847 0.950 . S
C859 C855 1.393 . S
C859 C858 1.391 . S
H860 C868 0.950 . S
H861 C873 0.950 . S
H862 C870 0.950 . S
H863 C872 0.950 . S
H864 C874 0.950 . S
H865 C876 0.950 . S
H866 C878 0.950 . S
H867 C879 0.950 . S
C868 H860 0.950 . S
C868 C869 1.386 . S
C868 C870 1.391 . S
C869 C868 1.386 . S
C869 C873 1.393 . S
C870 H862 0.950 . S
C870 C868 1.391 . S
C870 C871 1.400 . S
C871 C870 1.400 . S
C871 C872 1.398 . S
C871 C877 1.491 . S
C872 H863 0.950 . S
C872 C871 1.398 . S
C872 C873 1.391 . S
C873 H861 0.950 . S
C873 C869 1.393 . S
C873 C872 1.391 . S
C874 H864 0.950 . S
C874 C875 1.386 . S
C874 C876 1.391 . S
C875 C874 1.386 . S
C875 C879 1.393 . S
C876 H865 0.950 . S
C876 C874 1.391 . S
C876 C877 1.400 . S
C877 C871 1.491 . S
C877 C876 1.400 . S
C877 C878 1.398 . S
C878 H866 0.950 . S
C878 C877 1.398 . S
C878 C879 1.391 . S
C879 H867 0.950 . S
C879 C875 1.393 . S
C879 C878 1.391 . S
H880 C888 0.950 . S
H881 C893 0.950 . S
H882 C890 0.950 . S
H883 C892 0.950 . S
H884 C894 0.950 . S
H885 C896 0.950 . S
H886 C898 0.950 . S
H887 C899 0.950 . S
C888 H880 0.950 . S
C888 C889 1.386 . S
C888 C890 1.391 . S
C889 C888 1.386 . S
C889 C893 1.393 . S
C890 H882 0.950 . S
C890 C888 1.391 . S
C890 C891 1.400 . S
C891 C890 1.400 . S
C891 C892 1.398 . S
C891 C897 1.491 . S
C892 H883 0.950 . S
C892 C891 1.398 . S
C892 C893 1.391 . S
C893 H881 0.950 . S
C893 C889 1.393 . S
C893 C892 1.391 . S
C894 H884 0.950 . S
C894 C895 1.386 . S
C894 C896 1.391 . S
C895 C894 1.386 . S
C895 C899 1.393 . S
C896 H885 0.950 . S
C896 C894 1.391 . S
C896 C897 1.400 . S
C897 C891 1.491 . S
C897 C896 1.400 . S
C897 C898 1.398 . S
C898 H886 0.950 . S
C898 C897 1.398 . S
C898 C899 1.391 . S
C899 H887 0.950 . S
C899 C895 1.393 . S
C899 C898 1.391 . S
H900 C908 0.950 . S
H901 C913 0.950 . S
H902 C910 0.950 . S
H903 C912 0.950 . S
H904 C914 0.950 . S
H905 C916 0.950 . S
H906 C918 0.950 . S
H907 C919 0.950 . S
C908 H900 0.950 . S
C908 C909 1.386 . S
C908 C910 1.391 . S
C909 C908 1.386 . S
C909 C913 1.393 . S
C910 H902 0.950 . S
C910 C908 1.391 . S
C910 C911 1.400 . S
C911 C910 1.400 . S
C911 C912 1.398 . S
C911 C917 1.491 . S
C912 H903 0.950 . S
C912 C911 1.398 . S
C912 C913 1.391 . S
C913 H901 0.950 . S
C913 C909 1.393 . S
C913 C912 1.391 . S
C914 H904 0.950 . S
C914 C915 1.386 . S
C914 C916 1.391 . S
C915 C914 1.386 . S
C915 C919 1.393 . S
C916 H905 0.950 . S
C916 C914 1.391 . S
C916 C917 1.400 . S
C917 C911 1.491 . S
C917 C916 1.400 . S
C917 C918 1.398 . S
C918 H906 0.950 . S
C918 C917 1.398 . S
C918 C919 1.391 . S
C919 H907 0.950 . S
C919 C915 1.393 . S
C919 C918 1.391 . S
H920 C928 0.950 . S
H921 C933 0.950 . S
H922 C930 0.950 . S
H923 C932 0.950 . S
H924 C934 0.950 . S
H925 C936 0.950 . S
H926 C938 0.950 . S
H927 C939 0.950 . S
C928 H920 0.950 . S
C928 C929 1.386 . S
C928 C930 1.391 . S
C929 C928 1.386 . S
C929 C933 1.393 . S
C930 H922 0.950 . S
C930 C928 1.391 . S
C930 C931 1.400 . S
C931 C930 1.400 . S
C931 C932 1.398 . S
C931 C937 1.491 . S
C932 H923 0.950 . S
C932 C931 1.398 . S
C932 C933 1.391 . S
C933 H921 0.950 . S
C933 C929 1.393 . S
C933 C932 1.391 . S
C934 H924 0.950 . S
C934 C935 1.386 . S
C934 C936 1.391 . S
C935 C934 1.386 . S
C935 C939 1.393 . S
C936 H925 0.950 . S
C936 C934 1.391 . S
C936 C937 1.400 . S
C937 C931 1.491 . S
C937 C936 1.400 . S
C937 C938 1.398 . S
C938 H926 0.950 . S
C938 C937 1.398 . S
C938 C939 1.391 . S
C939 H927 0.950 . S
C939 C935 1.393 . S
C939 C938 1.391 . S
H940 C948 0.950 . S
H941 C953 0.950 . S
H942 C950 0.950 . S
H943 C952 0.950 . S
H944 C954 0.950 . S
H945 C956 0.950 . S
H946 C958 0.950 . S
H947 C959 0.950 . S
C948 H940 0.950 . S
C948 C949 1.386 . S
C948 C950 1.391 . S
C949 C948 1.386 . S
C949 C953 1.393 . S
C950 H942 0.950 . S
C950 C948 1.391 . S
C950 C951 1.400 . S
C951 C950 1.400 . S
C951 C952 1.398 . S
C951 C957 1.491 . S
C952 H943 0.950 . S
C952 C951 1.398 . S
C952 C953 1.391 . S
C953 H941 0.950 . S
C953 C949 1.393 . S
C953 C952 1.391 . S
C954 H944 0.950 . S
C954 C955 1.386 . S
C954 C956 1.391 . S
C955 C954 1.386 . S
C955 C959 1.393 . S
C956 H945 0.950 . S
C956 C954 1.391 . S
C956 C957 1.400 . S
C957 C951 1.491 . S
C957 C956 1.400 . S
C957 C958 1.398 . S
C958 H946 0.950 . S
C958 C957 1.398 . S
C958 C959 1.391 . S
C959 H947 0.950 . S
C959 C955 1.393 . S
C959 C958 1.391 . S
H960 C968 0.950 . S
H961 C973 0.950 . S
H962 C970 0.950 . S
H963 C972 0.950 . S
H964 C974 0.950 . S
H965 C976 0.950 . S
H966 C978 0.950 . S
H967 C979 0.950 . S
C968 H960 0.950 . S
C968 C969 1.386 . S
C968 C970 1.391 . S
C969 C968 1.386 . S
C969 C973 1.393 . S
C970 H962 0.950 . S
C970 C968 1.391 . S
C970 C971 1.400 . S
C971 C970 1.400 . S
C971 C972 1.398 . S
C971 C977 1.491 . S
C972 H963 0.950 . S
C972 C971 1.398 . S
C972 C973 1.391 . S
C973 H961 0.950 . S
C973 C969 1.393 . S
C973 C972 1.391 . S
C974 H964 0.950 . S
C974 C975 1.386 . S
C974 C976 1.391 . S
C975 C974 1.386 . S
C975 C979 1.393 . S
C976 H965 0.950 . S
C976 C974 1.391 . S
C976 C977 1.400 . S
C977 C971 1.491 . S
C977 C976 1.400 . S
C977 C978 1.398 . S
C978 H966 0.950 . S
C978 C977 1.398 . S
C978 C979 1.391 . S
C979 H967 0.950 . S
C979 C975 1.393 . S
C979 C978 1.391 . S
H980 C988 0.950 . S
H981 C993 0.950 . S
H982 C990 0.950 . S
H983 C992 0.950 . S
H984 C994 0.950 . S
H985 C996 0.950 . S
H986 C998 0.950 . S
H987 C999 0.950 . S
C988 H980 0.950 . S
C988 C989 1.386 . S
C988 C990 1.391 . S
C989 C988 1.386 . S
C989 C993 1.393 . S
C990 H982 0.950 . S
C990 C988 1.391 . S
C990 C991 1.400 . S
C991 C990 1.400 . S
C991 C992 1.398 . S
C991 C997 1.491 . S
C992 H983 0.950 . S
C992 C991 1.398 . S
C992 C993 1.391 . S
C993 H981 0.950 . S
C993 C989 1.393 . S
C993 C992 1.391 . S
C994 H984 0.950 . S
C994 C995 1.386 . S
C994 C996 1.391 . S
C995 C994 1.386 . S
C995 C999 1.393 . S
C996 H985 0.950 . S
C996 C994 1.391 . S
C996 C997 1.400 . S
C997 C991 1.491 . S
C997 C996 1.400 . S
C997 C998 1.398 . S
C998 H986 0.950 . S
C998 C997 1.398 . S
C998 C999 1.391 . S
C999 H987 0.950 . S
C999 C995 1.393 . S
C999 C998 1.391 . S
H1000 C1008 0.950 . S
H1001 C1013 0.950 . S
H1002 C1010 0.950 . S
H1003 C1012 0.950 . S
H1004 C1014 0.950 . S
H1005 C1016 0.950 . S
H1006 C1018 0.950 . S
H1007 C1019 0.950 . S
C1008 H1000 0.950 . S
C1008 C1009 1.386 . S
C1008 C1010 1.391 . S
C1009 C1008 1.386 . S
C1009 C1013 1.393 . S
C1010 H1002 0.950 . S
C1010 C1008 1.391 . S
C1010 C1011 1.400 . S
C1011 C1010 1.400 . S
C1011 C1012 1.398 . S
C1011 C1017 1.491 . S
C1012 H1003 0.950 . S
C1012 C1011 1.398 . S
C1012 C1013 1.391 . S
C1013 H1001 0.950 . S
C1013 C1009 1.393 . S
C1013 C1012 1.391 . S
C1014 H1004 0.950 . S
C1014 C1015 1.386 . S
C1014 C1016 1.391 . S
C1015 C1014 1.386 . S
C1015 C1019 1.393 . S
C1016 H1005 0.950 . S
C1016 C1014 1.391 . S
C1016 C1017 1.400 . S
C1017 C1011 1.491 . S
C1017 C1016 1.400 . S
C1017 C1018 1.398 . S
C1018 H1006 0.950 . S
C1018 C1017 1.398 . S
C1018 C1019 1.391 . S
C1019 H1007 0.950 . S
C1019 C1015 1.393 . S
C1019 C1018 1.391 . S
H1020 C1028 0.950 . S
H1021 C1033 0.950 . S
H1022 C1030 0.950 . S
H1023 C1032 0.950 . S
H1024 C1034 0.950 . S
H1025 C1036 0.950 . S
H1026 C1038 0.950 . S
H1027 C1039 0.950 . S
C1028 H1020 0.950 . S
C1028 C1029 1.386 . S
C1028 C1030 1.391 . S
C1029 C1028 1.386 . S
C1029 C1033 1.393 . S
C1030 H1022 0.950 . S
C1030 C1028 1.391 . S
C1030 C1031 1.400 . S
C1031 C1030 1.400 . S
C1031 C1032 1.398 . S
C1031 C1037 1.491 . S
C1032 H1023 0.950 . S
C1032 C1031 1.398 . S
C1032 C1033 1.391 . S
C1033 H1021 0.950 . S
C1033 C1029 1.393 . S
C1033 C1032 1.391 . S
C1034 H1024 0.950 . S
C1034 C1035 1.386 . S
C1034 C1036 1.391 . S
C1035 C1034 1.386 . S
C1035 C1039 1.393 . S
C1036 H1025 0.950 . S
C1036 C1034 1.391 . S
C1036 C1037 1.400 . S
C1037 C1031 1.491 . S
C1037 C1036 1.400 . S
C1037 C1038 1.398 . S
C1038 H1026 0.950 . S
C1038 C1037 1.398 . S
C1038 C1039 1.391 . S
C1039 H1027 0.950 . S
C1039 C1035 1.393 . S
C1039 C1038 1.391 . S
H1040 C1048 0.950 . S
H1041 C1053 0.950 . S
H1042 C1050 0.950 . S
H1043 C1052 0.950 . S
H1044 C1054 0.950 . S
H1045 C1056 0.950 . S
H1046 C1058 0.950 . S
H1047 C1059 0.950 . S
C1048 H1040 0.950 . S
C1048 C1049 1.386 . S
C1048 C1050 1.391 . S
C1049 C1048 1.386 . S
C1049 C1053 1.393 . S
C1050 H1042 0.950 . S
C1050 C1048 1.391 . S
C1050 C1051 1.400 . S
C1051 C1050 1.400 . S
C1051 C1052 1.398 . S
C1051 C1057 1.491 . S
C1052 H1043 0.950 . S
C1052 C1051 1.398 . S
C1052 C1053 1.391 . S
C1053 H1041 0.950 . S
C1053 C1049 1.393 . S
C1053 C1052 1.391 . S
C1054 H1044 0.950 . S
C1054 C1055 1.386 . S
C1054 C1056 1.391 . S
C1055 C1054 1.386 . S
C1055 C1059 1.393 . S
C1056 H1045 0.950 . S
C1056 C1054 1.391 . S
C1056 C1057 1.400 . S
C1057 C1051 1.491 . S
C1057 C1056 1.400 . S
C1057 C1058 1.398 . S
C1058 H1046 0.950 . S
C1058 C1057 1.398 . S
C1058 C1059 1.391 . S
C1059 H1047 0.950 . S
C1059 C1055 1.393 . S
C1059 C1058 1.391 . S
H1060 C1068 0.950 . S
H1061 C1073 0.950 . S
H1062 C1070 0.950 . S
H1063 C1072 0.950 . S
H1064 C1074 0.950 . S
H1065 C1076 0.950 . S
H1066 C1078 0.950 . S
H1067 C1079 0.950 . S
C1068 H1060 0.950 . S
C1068 C1069 1.386 . S
C1068 C1070 1.391 . S
C1069 C1068 1.386 . S
C1069 C1073 1.393 . S
C1070 H1062 0.950 . S
C1070 C1068 1.391 . S
C1070 C1071 1.400 . S
C1071 C1070 1.400 . S
C1071 C1072 1.398 . S
C1071 C1077 1.491 . S
C1072 H1063 0.950 . S
C1072 C1071 1.398 . S
C1072 C1073 1.391 . S
C1073 H1061 0.950 . S
C1073 C1069 1.393 . S
C1073 C1072 1.391 . S
C1074 H1064 0.950 . S
C1074 C1075 1.386 . S
C1074 C1076 1.391 . S
C1075 C1074 1.386 . S
C1075 C1079 1.393 . S
C1076 H1065 0.950 . S
C1076 C1074 1.391 . S
C1076 C1077 1.400 . S
C1077 C1071 1.491 . S
C1077 C1076 1.400 . S
C1077 C1078 1.398 . S
C1078 H1066 0.950 . S
C1078 C1077 1.398 . S
C1078 C1079 1.391 . S
C1079 H1067 0.950 . S
C1079 C1075 1.393 . S
C1079 C1078 1.391 . S
H1080 C1088 0.950 . S
H1081 C1093 0.950 . S
H1082 C1090 0.950 . S
H1083 C1092 0.950 . S
H1084 C1094 0.950 . S
H1085 C1096 0.950 . S
H1086 C1098 0.950 . S
H1087 C1099 0.950 . S
C1088 H1080 0.950 . S
C1088 C1089 1.386 . S
C1088 C1090 1.391 . S
C1089 C1088 1.386 . S
C1089 C1093 1.393 . S
C1090 H1082 0.950 . S
C1090 C1088 1.391 . S
C1090 C1091 1.400 . S
C1091 C1090 1.400 . S
C1091 C1092 1.398 . S
C1091 C1097 1.491 . S
C1092 H1083 0.950 . S
C1092 C1091 1.398 . S
C1092 C1093 1.391 . S
C1093 H1081 0.950 . S
C1093 C1089 1.393 . S
C1093 C1092 1.391 . S
C1094 H1084 0.950 . S
C1094 C1095 1.386 . S
C1094 C1096 1.391 . S
C1095 C1094 1.386 . S
C1095 C1099 1.393 . S
C1096 H1085 0.950 . S
C1096 C1094 1.391 . S
C1096 C1097 1.400 . S
C1097 C1091 1.491 . S
C1097 C1096 1.400 . S
C1097 C1098 1.398 . S
C1098 H1086 0.950 . S
C1098 C1097 1.398 . S
C1098 C1099 1.391 . S
C1099 H1087 0.950 . S
C1099 C1095 1.393 . S
C1099 C1098 1.391 . S
H1100 C1108 0.950 . S
H1101 C1113 0.950 . S
H1102 C1110 0.950 . S
H1103 C1112 0.950 . S
H1104 C1114 0.950 . S
H1105 C1116 0.950 . S
H1106 C1118 0.950 . S
H1107 C1119 0.950 . S
C1108 H1100 0.950 . S
C1108 C1109 1.386 . S
C1108 C1110 1.391 . S
C1109 C1108 1.386 . S
C1109 C1113 1.393 . S
C1110 H1102 0.950 . S
C1110 C1108 1.391 . S
C1110 C1111 1.400 . S
C1111 C1110 1.400 . S
C1111 C1112 1.398 . S
C1111 C1117 1.491 . S
C1112 H1103 0.950 . S
C1112 C1111 1.398 . S
C1112 C1113 1.391 . S
C1113 H1101 0.950 . S
C1113 C1109 1.393 . S
C1113 C1112 1.391 . S
C1114 H1104 0.950 . S
C1114 C1115 1.386 . S
C1114 C1116 1.391 . S
C1115 C1114 1.386 . S
C1115 C1119 1.393 . S
C1116 H1105 0.950 . S
C1116 C1114 1.391 . S
C1116 C1117 1.400 . S
C1117 C1111 1.491 . S
C1117 C1116 1.400 . S
C1117 C1118 1.398 . S
C1118 H1106 0.950 . S
C1118 C1117 1.398 . S
C1118 C1119 1.391 . S
C1119 H1107 0.950 . S
C1119 C1115 1.393 . S
C1119 C1118 1.391 . S
H1120 C1128 0.950 . S
H1121 C1133 0.950 . S
H1122 C1130 0.950 . S
H1123 C1132 0.950 . S
H1124 C1134 0.950 . S
H1125 C1136 0.950 . S
H1126 C1138 0.950 . S
H1127 C1139 0.950 . S
C1128 H1120 0.950 . S
C1128 C1129 1.386 . S
C1128 C1130 1.391 . S
C1129 C1128 1.386 . S
C1129 C1133 1.393 . S
C1130 H1122 0.950 . S
C1130 C1128 1.391 . S
C1130 C1131 1.400 . S
C1131 C1130 1.400 . S
C1131 C1132 1.398 . S
C1131 C1137 1.491 . S
C1132 H1123 0.950 . S
C1132 C1131 1.398 . S
C1132 C1133 1.391 . S
C1133 H1121 0.950 . S
C1133 C1129 1.393 . S
C1133 C1132 1.391 . S
C1134 H1124 0.950 . S
C1134 C1135 1.386 . S
C1134 C1136 1.391 . S
C1135 C1134 1.386 . S
C1135 C1139 1.393 . S
C1136 H1125 0.950 . S
C1136 C1134 1.391 . S
C1136 C1137 1.400 . S
C1137 C1131 1.491 . S
C1137 C1136 1.400 . S
C1137 C1138 1.398 . S
C1138 H1126 0.950 . S
C1138 C1137 1.398 . S
C1138 C1139 1.391 . S
C1139 H1127 0.950 . S
C1139 C1135 1.393 . S
C1139 C1138 1.391 . S
H1140 C1148 0.950 . S
H1141 C1153 0.950 . S
H1142 C1150 0.950 . S
H1143 C1152 0.950 . S
H1144 C1154 0.950 . S
H1145 C1156 0.950 . S
H1146 C1158 0.950 . S
H1147 C1159 0.950 . S
C1148 H1140 0.950 . S
C1148 C1149 1.386 . S
C1148 C1150 1.391 . S
C1149 C1148 1.386 . S
C1149 C1153 1.393 . S
C1150 H1142 0.950 . S
C1150 C1148 1.391 . S
C1150 C1151 1.400 . S
C1151 C1150 1.400 . S
C1151 C1152 1.398 . S
C1151 C1157 1.491 . S
C1152 H1143 0.950 . S
C1152 C1151 1.398 . S
C1152 C1153 1.391 . S
C1153 H1141 0.950 . S
C1153 C1149 1.393 . S
C1153 C1152 1.391 . S
C1154 H1144 0.950 . S
C1154 C1155 1.386 . S
C1154 C1156 1.391 . S
C1155 C1154 1.386 . S
C1155 C1159 1.393 . S
C1156 H1145 0.950 . S
C1156 C1154 1.391 . S
C1156 C1157 1.400 . S
C1157 C1151 1.491 . S
C1157 C1156 1.400 . S
C1157 C1158 1.398 . S
C1158 H1146 0.950 . S
C1158 C1157 1.398 . S
C1158 C1159 1.391 . S
C1159 H1147 0.950 . S
C1159 C1155 1.393 . S
C1159 C1158 1.391 . S
H1160 C1168 0.950 . S
H1161 C1173 0.950 . S
H1162 C1170 0.950 . S
H1163 C1172 0.950 . S
H1164 C1174 0.950 . S
H1165 C1176 0.950 . S
H1166 C1178 0.950 . S
H1167 C1179 0.950 . S
C1168 H1160 0.950 . S
C1168 C1169 1.386 . S
C1168 C1170 1.391 . S
C1169 C1168 1.386 . S
C1169 C1173 1.393 . S
C1170 H1162 0.950 . S
C1170 C1168 1.391 . S
C1170 C1171 1.400 . S
C1171 C1170 1.400 . S
C1171 C1172 1.398 . S
C1171 C1177 1.491 . S
C1172 H1163 0.950 . S
C1172 C1171 1.398 . S
C1172 C1173 1.391 . S
C1173 H1161 0.950 . S
C1173 C1169 1.393 . S
C1173 C1172 1.391 . S
C1174 H1164 0.950 . S
C1174 C1175 1.386 . S
C1174 C1176 1.391 . S
C1175 C1174 1.386 . S
C1175 C1179 1.393 . S
C1176 H1165 0.950 . S
C1176 C1174 1.391 . S
C1176 C1177 1.400 . S
C1177 C1171 1.491 . S
C1177 C1176 1.400 . S
C1177 C1178 1.398 . S
C1178 H1166 0.950 . S
C1178 C1177 1.398 . S
C1178 C1179 1.391 . S
C1179 H1167 0.950 . S
C1179 C1175 1.393 . S
C1179 C1178 1.391 . S
H1180 C1188 0.950 . S
H1181 C1193 0.950 . S
H1182 C1190 0.950 . S
H1183 C1192 0.950 . S
H1184 C1194 0.950 . S
H1185 C1196 0.950 . S
H1186 C1198 0.950 . S
H1187 C1199 0.950 . S
C1188 H1180 0.950 . S
C1188 C1189 1.386 . S
C1188 C1190 1.391 . S
C1189 C1188 1.386 . S
C1189 C1193 1.393 . S
C1190 H1182 0.950 . S
C1190 C1188 1.391 . S
C1190 C1191 1.400 . S
C1191 C1190 1.400 . S
C1191 C1192 1.398 . S
C1191 C1197 1.491 . S
C1192 H1183 0.950 . S
C1192 C1191 1.398 . S
C1192 C1193 1.391 . S
C1193 H1181 0.950 . S
C1193 C1189 1.393 . S
C1193 C1192 1.391 . S
C1194 H1184 0.950 . S
C1194 C1195 1.386 . S
C1194 C1196 1.391 . S
C1195 C1194 1.386 . S
C1195 C1199 1.393 . S
C1196 H1185 0.950 . S
C1196 C1194 1.391 . S
C1196 C1197 1.400 . S
C1197 C1191 1.491 . S
C1197 C1196 1.400 . S
C1197 C1198 1.398 . S
C1198 H1186 0.950 . S
C1198 C1197 1.398 . S
C1198 C1199 1.391 . S
C1199 H1187 0.950 . S
C1199 C1195 1.393 . S
C1199 C1198 1.391 . S
H1200 C1208 0.950 . S
H1201 C1213 0.950 . S
H1202 C1210 0.950 . S
H1203 C1212 0.950 . S
H1204 C1214 0.950 . S
H1205 C1216 0.950 . S
H1206 C1218 0.950 . S
H1207 C1219 0.950 . S
C1208 H1200 0.950 . S
C1208 C1209 1.386 . S
C1208 C1210 1.391 . S
C1209 C1208 1.386 . S
C1209 C1213 1.393 . S
C1210 H1202 0.950 . S
C1210 C1208 1.391 . S
C1210 C1211 1.400 . S
C1211 C1210 1.400 . S
C1211 C1212 1.398 . S
C1211 C1217 1.491 1_455 S
C1212 H1203 0.950 . S
C1212 C1211 1.398 . S
C1212 C1213 1.391 . S
C1213 H1201 0.950 . S
C1213 C1209 1.393 . S
C1213 C1212 1.391 . S
C1214 H1204 0.950 . S
C1214 C1215 1.386 . S
C1214 C1216 1.391 . S
C1215 C1214 1.386 . S
C1215 C1219 1.393 . S
C1216 H1205 0.950 . S
C1216 C1214 1.391 . S
C1216 C1217 1.400 . S
C1217 C1211 1.491 1_655 S
C1217 C1216 1.400 . S
C1217 C1218 1.398 . S
C1218 H1206 0.950 . S
C1218 C1217 1.398 . S
C1218 C1219 1.391 . S
C1219 H1207 0.950 . S
C1219 C1215 1.393 . S
C1219 C1218 1.391 . S
H1220 C1228 0.950 . S
H1221 C1233 0.950 . S
H1222 C1230 0.950 . S
H1223 C1232 0.950 . S
H1224 C1234 0.950 . S
H1225 C1236 0.950 . S
H1226 C1238 0.950 . S
H1227 C1239 0.950 . S
C1228 H1220 0.950 . S
C1228 C1229 1.386 . S
C1228 C1230 1.391 . S
C1229 C1228 1.386 . S
C1229 C1233 1.393 . S
C1230 H1222 0.950 . S
C1230 C1228 1.391 . S
C1230 C1231 1.400 . S
C1231 C1230 1.400 . S
C1231 C1232 1.398 . S
C1231 C1237 1.491 . S
C1232 H1223 0.950 . S
C1232 C1231 1.398 . S
C1232 C1233 1.391 . S
C1233 H1221 0.950 . S
C1233 C1229 1.393 . S
C1233 C1232 1.391 . S
C1234 H1224 0.950 . S
C1234 C1235 1.386 . S
C1234 C1236 1.391 . S
C1235 C1234 1.386 . S
C1235 C1239 1.393 . S
C1236 H1225 0.950 . S
C1236 C1234 1.391 . S
C1236 C1237 1.400 . S
C1237 C1231 1.491 . S
C1237 C1236 1.400 . S
C1237 C1238 1.398 . S
C1238 H1226 0.950 . S
C1238 C1237 1.398 . S
C1238 C1239 1.391 . S
C1239 H1227 0.950 . S
C1239 C1235 1.393 . S
C1239 C1238 1.391 . S
H1240 C1248 0.950 . S
H1241 C1253 0.950 . S
H1242 C1250 0.950 . S
H1243 C1252 0.950 . S
H1244 C1254 0.950 . S
H1245 C1256 0.950 . S
H1246 C1258 0.950 . S
H1247 C1259 0.950 . S
C1248 H1240 0.950 . S
C1248 C1249 1.386 . S
C1248 C1250 1.391 . S
C1249 C1248 1.386 . S
C1249 C1253 1.393 . S
C1250 H1242 0.950 . S
C1250 C1248 1.391 . S
C1250 C1251 1.400 . S
C1251 C1250 1.400 . S
C1251 C1252 1.398 . S
C1251 C1257 1.491 1_545 S
C1252 H1243 0.950 . S
C1252 C1251 1.398 . S
C1252 C1253 1.391 . S
C1253 H1241 0.950 . S
C1253 C1249 1.393 . S
C1253 C1252 1.391 . S
C1254 H1244 0.950 . S
C1254 C1255 1.386 . S
C1254 C1256 1.391 . S
C1255 C1254 1.386 . S
C1255 C1259 1.393 . S
C1256 H1245 0.950 . S
C1256 C1254 1.391 . S
C1256 C1257 1.400 . S
C1257 C1251 1.491 1_565 S
C1257 C1256 1.400 . S
C1257 C1258 1.398 . S
C1258 H1246 0.950 . S
C1258 C1257 1.398 . S
C1258 C1259 1.391 . S
C1259 H1247 0.950 . S
C1259 C1255 1.393 . S
C1259 C1258 1.391 . S
C729 C21 1.540 . S
C735 C221 1.541 1_556 S
C749 C61 1.478 . S
C755 C122 1.468 1_554 S
C769 C82 1.465 . S
C775 C181 1.477 . S
C789 C42 1.469 . S
C795 C162 1.468 . S
C809 C202 1.545 . S
C815 C101 1.522 . S
C829 C2 1.540 . S
C835 C141 1.522 1_554 S
C849 C461 1.536 . S
C855 C261 1.534 . S
C869 C301 1.486 . S
C875 C362 1.457 . S
C889 C322 1.460 . S
C895 C421 1.480 . S
C909 C282 1.472 . S
C915 C402 1.462 . S
C929 C341 1.537 . S
C935 C442 1.547 . S
C949 C242 1.538 . S
C955 C381 1.528 . S
C969 C501 1.539 . S
C975 C701 1.540 . S
C989 C602 1.471 . S
C995 C541 1.477 . S
C1009 C661 1.473 . S
C1015 C562 1.469 . S
C1029 C642 1.466 . S
C1035 C522 1.460 . S
C1049 C682 1.547 . S
C1055 C581 1.537 . S
C1069 C621 1.514 . S
C1075 C482 1.533 . S
C1089 C15 1.503 . S
C1095 C415 1.502 . S
C1109 C455 1.512 . S
C1115 C55 1.512 . S
C1129 C375 1.525 . S
C1135 C95 1.525 . S
C1149 C135 1.525 . S
C1155 C575 1.525 . S
C1169 C175 1.502 . S
C1175 C495 1.503 . S
C1189 C535 1.511 . S
C1195 C215 1.512 . S
C1209 C655 1.501 . S
C1215 C255 1.503 . S
C1229 C295 1.512 . S
C1235 C695 1.512 . S
C1249 C335 1.531 . S
C1255 C615 1.531 . S
