# Generated by pormake.
# Topology sml, (6)-cn, num edge types: 1
# Building blocks:
#     Node 0, Type 0, BuildingBlock: IZENUY_clean_sbu_0, # of connection points: 6
#     Node 1, Type 0, BuildingBlock: IZENUY_clean_sbu_0, # of connection points: 6
#     Node 2, Type 0, BuildingBlock: IZENUY_clean_sbu_0, # of connection points: 6
#     Node 3, Type 0, BuildingBlock: IZENUY_clean_sbu_0, # of connection points: 6
#     Node 4, Type 0, BuildingBlock: IZENUY_clean_sbu_0, # of connection points: 6
#     Node 5, Type 0, BuildingBlock: IZENUY_clean_sbu_0, # of connection points: 6
#     Edge 6, Type (0, 0), BuildingBlock: CIFDUS_clean_linker_0, # of connection points: 2
#     Edge 7, Type (0, 0), BuildingBlock: CIFDUS_clean_linker_0, # of connection points: 2
#     Edge 8, Type (0, 0), BuildingBlock: CIFDUS_clean_linker_0, # of connection points: 2
#     Edge 9, Type (0, 0), BuildingBlock: CIFDUS_clean_linker_0, # of connection points: 2
#     Edge 10, Type (0, 0), BuildingBlock: CIFDUS_clean_linker_0, # of connection points: 2
#     Edge 11, Type (0, 0), BuildingBlock: CIFDUS_clean_linker_0, # of connection points: 2
#     Edge 12, Type (0, 0), BuildingBlock: CIFDUS_clean_linker_0, # of connection points: 2
#     Edge 13, Type (0, 0), BuildingBlock: CIFDUS_clean_linker_0, # of connection points: 2
#     Edge 14, Type (0, 0), BuildingBlock: CIFDUS_clean_linker_0, # of connection points: 2
#     Edge 15, Type (0, 0), BuildingBlock: CIFDUS_clean_linker_0, # of connection points: 2
#     Edge 16, Type (0, 0), BuildingBlock: CIFDUS_clean_linker_0, # of connection points: 2
#     Edge 17, Type (0, 0), BuildingBlock: CIFDUS_clean_linker_0, # of connection points: 2
#     Edge 18, Type (0, 0), BuildingBlock: CIFDUS_clean_linker_0, # of connection points: 2
#     Edge 19, Type (0, 0), BuildingBlock: CIFDUS_clean_linker_0, # of connection points: 2
#     Edge 20, Type (0, 0), BuildingBlock: CIFDUS_clean_linker_0, # of connection points: 2
#     Edge 21, Type (0, 0), BuildingBlock: CIFDUS_clean_linker_0, # of connection points: 2
#     Edge 22, Type (0, 0), BuildingBlock: CIFDUS_clean_linker_0, # of connection points: 2
#     Edge 23, Type (0, 0), BuildingBlock: CIFDUS_clean_linker_0, # of connection points: 2
# Relax obj value: 0.327
# Max RMSD: 0.283
# Mean RMSD: 0.283
data_MOF--net-sml--node1-IZENUY_clean_sbu_0--edge1-CIFDUS_clean_linker_0
_symmetry_space_group_name_H-M    P1
_symmetry_Int_Tables_number       1
_symmetry_cell_setting            triclinic
loop_
_symmetry_equiv_pos_as_xyz
'x, y, z'
_cell_length_a     35.069717
_cell_length_b     35.232599
_cell_length_c     13.016233
_cell_angle_alpha  90.308801
_cell_angle_beta   89.562876
_cell_angle_gamma 120.12206
loop_
_atom_site_label
_atom_site_type_symbol
_atom_site_fract_x
_atom_site_fract_y
_atom_site_fract_z
_atom_type_partial_charge
Fe0 Fe 0.292 0.46861 0.08053 0.0
Fe1 Fe 0.21836 0.38091 -0.00179 0.0
O2 O 0.24681 0.43914 -0.00221 0.0
Fe3 Fe 0.22957 0.46691 0.91462 0.0
O4 O 0.2448 0.51283 -0.00036 0.0
O5 O 0.2662 0.49693 0.14363 0.0
O6 O 0.26939 0.42714 0.1824 0.0
C7 C 0.22977 0.39814 0.20089 0.0
C8 C 0.31902 0.52061 0.90033 0.0
O9 O 0.20238 0.37959 0.13012 0.0
C10 C 0.22326 0.39712 0.79531 0.0
O11 O 0.32152 0.44405 0.01913 0.0
O12 O 0.26671 0.37661 0.03277 0.0
O13 O 0.28372 0.49654 0.85094 0.0
O14 O 0.32165 0.51445 -0.00537 0.0
C15 C 0.15044 0.40007 0.98546 0.0
O16 O 0.2331 0.37965 0.86627 0.0
O17 O 0.21139 0.42505 0.81354 0.0
C18 C 0.3066 0.40334 0.01131 0.0
O19 O 0.1647 0.37439 0.96381 0.0
O20 O 0.17538 0.44095 0.97671 0.0
C21 C 0.25367 0.51965 0.09385 0.0
Fe22 Fe 0.85204 0.29209 0.40465 0.0
Fe23 Fe 0.86192 0.21235 0.3488 0.0
O24 O 0.83169 0.2403 0.34407 0.0
Fe25 Fe 0.78109 0.21646 0.27666 0.0
O26 O 0.75131 0.21395 0.39239 0.0
O27 O 0.79627 0.28234 0.43933 0.0
O28 O 0.85289 0.27001 0.52814 0.0
C29 C 0.8711 0.2482 0.55028 0.0
C30 C 0.81799 0.30802 0.23659 0.0
O31 O 0.88335 0.23113 0.4806 0.0
C32 C 0.83325 0.20271 0.14262 0.0
O33 O 0.91117 0.31108 0.37824 0.0
O34 O 0.90867 0.25709 0.28791 0.0
O35 O 0.78555 0.26918 0.23963 0.0
O36 O 0.85245 0.31827 0.28598 0.0
C37 C 0.77919 0.14297 0.37144 0.0
O38 O 0.84608 0.1888 0.21723 0.0
O39 O 0.80892 0.21901 0.15768 0.0
C40 C 0.92785 0.29698 0.3117 0.0
O41 O 0.81693 0.16539 0.40919 0.0
O42 O 0.76614 0.1587 0.3015 0.0
C43 C 0.75817 0.248 0.44052 0.0
Fe44 Fe 0.58771 0.76125 0.57799 0.0
Fe45 Fe 0.58556 0.8303 0.7209 0.0
O46 O 0.61547 0.81162 0.64599 0.0
Fe47 Fe 0.67377 0.84362 0.63966 0.0
O48 O 0.68261 0.79691 0.62641 0.0
O49 O 0.61723 0.73931 0.64898 0.0
O50 O 0.54398 0.73469 0.67119 0.0
C51 C 0.53786 0.74255 0.76242 0.0
C52 C 0.65503 0.81733 0.43951 0.0
O53 O 0.56044 0.78067 0.80108 0.0
C54 C 0.64713 0.90623 0.6256 0.0
O55 O 0.55434 0.77872 0.50521 0.0
O56 O 0.53778 0.80631 0.63918 0.0
O57 O 0.67278 0.84941 0.50085 0.0
O58 O 0.62718 0.77931 0.47086 0.0
C59 C 0.65955 0.85167 0.84344 0.0
O60 O 0.6068 0.88003 0.64345 0.0
O61 O 0.67576 0.89633 0.65106 0.0
C62 C 0.52959 0.79058 0.54971 0.0
O63 O 0.62852 0.85801 0.81775 0.0
O64 O 0.67808 0.83945 0.77833 0.0
C65 C 0.65864 0.75764 0.65526 0.0
Fe66 Fe 0.84436 0.57528 0.92635 0.0
Fe67 Fe 0.76927 0.56883 0.06303 0.0
O68 O 0.81904 0.60067 -0.00644 0.0
Fe69 Fe 0.84376 0.65848 0.99134 0.0
O70 O 0.90031 0.66905 0.98151 0.0
O71 O 0.8944 0.60481 0.00398 0.0
O72 O 0.82603 0.53002 0.016 0.0
C73 C 0.81207 0.52414 0.10751 0.0
C74 C 0.85448 0.64203 0.79096 0.0
O75 O 0.79428 0.54494 0.14449 0.0
C76 C 0.75415 0.62964 0.96905 0.0
O77 O 0.79526 0.5431 0.84677 0.0
O78 O 0.74819 0.52198 0.9765 0.0
O79 O 0.83838 0.65832 0.8521 0.0
O80 O 0.86711 0.61631 0.82315 0.0
C81 C 0.81878 0.64121 0.1931 0.0
O82 O 0.74071 0.58947 0.98386 0.0
O83 O 0.79175 0.6585 0.00033 0.0
C84 C 0.75752 0.51743 0.88504 0.0
O85 O 0.78182 0.6104 0.16304 0.0
O86 O 0.85036 0.66134 0.13055 0.0
C87 C 0.9162 0.6461 0.01341 0.0
Fe88 Fe 0.28777 0.82546 0.26795 0.0
Fe89 Fe 0.21891 0.7538 0.41029 0.0
O90 O 0.23853 0.80378 0.34209 0.0
Fe91 Fe 0.20876 0.83224 0.34713 0.0
O92 O 0.25805 0.887 0.3403 0.0
O93 O 0.31364 0.87498 0.34641 0.0
O94 O 0.31381 0.80396 0.34948 0.0
C95 C 0.30729 0.78867 0.43918 0.0
C96 C 0.23278 0.84262 0.14409 0.0
O97 O 0.27029 0.77499 0.48379 0.0
C98 C 0.14234 0.74386 0.3268 0.0
O99 O 0.26557 0.77609 0.18694 0.0
O100 O 0.23907 0.72993 0.31715 0.0
O101 O 0.20151 0.82844 0.20815 0.0
O102 O 0.27085 0.85149 0.17113 0.0
C103 C 0.20162 0.80596 0.54764 0.0
O104 O 0.16744 0.72825 0.33882 0.0
O105 O 0.1543 0.78265 0.35509 0.0
C106 C 0.25221 0.73837 0.22532 0.0
O107 O 0.19473 0.76898 0.51679 0.0
O108 O 0.21384 0.83764 0.48629 0.0
C109 C 0.29742 0.89919 0.3652 0.0
Fe110 Fe 0.47886 0.20665 0.71141 0.0
Fe111 Fe 0.39383 0.20733 0.66175 0.0
O112 O 0.45198 0.23193 0.65202 0.0
Fe113 Fe 0.48346 0.28199 0.5843 0.0
O114 O 0.51487 0.30976 0.69663 0.0
O115 O 0.53058 0.25881 0.7384 0.0
O116 O 0.46015 0.21317 0.83565 0.0
C117 C 0.42112 0.20159 0.86098 0.0
C118 C 0.52612 0.23256 0.5359 0.0
O119 O 0.3907 0.1869 0.79434 0.0
C120 C 0.41352 0.23659 0.45478 0.0
O121 O 0.43259 0.14949 0.69546 0.0
O122 O 0.38502 0.15745 0.60321 0.0
O123 O 0.5261 0.26866 0.54101 0.0
O124 O 0.49951 0.20013 0.58923 0.0
C125 C 0.41945 0.29402 0.69095 0.0
O126 O 0.38709 0.22358 0.53095 0.0
O127 O 0.45462 0.25751 0.4673 0.0
C128 C 0.40025 0.1341 0.63404 0.0
O129 O 0.39831 0.25513 0.72172 0.0
O130 O 0.44702 0.30467 0.61746 0.0
C131 C 0.53903 0.29833 0.74192 0.0
H132 H 0.3856 0.28612 0.88011 0.0
H133 H 0.43008 0.3729 0.6187 0.0
H134 H 0.40371 0.41844 0.70226 0.0
H135 H 0.36087 0.42861 0.84349 0.0
H136 H 0.31313 0.33717 0.09597 0.0
H137 H 0.34856 0.2986 0.0227 0.0
C138 C 0.3899 0.31516 0.84109 0.0
C139 C 0.40918 0.32567 0.74234 0.0
C140 C 0.37409 0.34034 0.8885 0.0
C141 C 0.41518 0.36393 0.69436 0.0
C142 C 0.39993 0.38982 0.74209 0.0
C143 C 0.3593 0.40089 0.88332 0.0
C144 C 0.33481 0.38583 0.97549 0.0
C145 C 0.37842 0.37775 0.83833 0.0
C146 C 0.33199 0.34934 0.02542 0.0
C147 C 0.35202 0.32721 0.98326 0.0
H148 H 0.12026 0.4298 0.14297 0.0
H149 H 0.07866 0.32678 0.91673 0.0
H150 H 1.00538 0.28802 -0.00528 0.0
H151 H 0.95561 0.28009 0.13352 0.0
H152 H 0.9956 0.37967 0.36816 0.0
H153 H 0.06715 0.42332 0.28052 0.0
C154 C 0.09472 0.39936 0.10974 0.0
C155 C 0.10465 0.38123 0.02367 0.0
C156 C 0.05283 0.37637 0.15746 0.0
C157 C 0.07171 0.34134 0.98255 0.0
C158 C 1.02992 0.3191 0.02743 0.0
C159 C 0.97985 0.31136 0.16619 0.0
C160 C 0.97046 0.32617 0.25864 0.0
C161 C 1.02056 0.33573 0.11622 0.0
C162 C 1.00204 0.36729 0.29774 0.0
C163 C 0.04294 0.39218 0.24758 0.0
H164 H 0.6945 0.09221 0.44435 0.0
H165 H 0.81172 0.08882 0.35787 0.0
H166 H 0.78029 1.01478 0.4259 0.0
H167 H 0.72287 0.95372 0.52143 0.0
H168 H 0.60475 0.95437 0.61245 0.0
H169 H 0.63293 0.02659 0.53151 0.0
C170 C 0.71249 0.07467 0.4386 0.0
C171 C 0.75529 0.09573 0.39606 0.0
C172 C 0.69447 0.03206 0.48037 0.0
C173 C 0.77872 0.07312 0.39025 0.0
C174 C 0.7609 0.03092 0.42962 0.0
C175 C 0.70321 0.96962 0.52407 0.0
C176 C 0.6622 0.94912 0.57486 0.0
C177 C 0.71941 1.0106 0.47718 0.0
C178 C 0.63669 0.96971 0.57485 0.0
C179 C 0.65279 1.01096 0.52844 0.0
H180 H 0.6216 0.67876 0.75956 0.0
H181 H 0.74579 0.78453 0.64657 0.0
H182 H 0.78506 0.75361 0.73225 0.0
H183 H 0.78556 0.69997 0.8471 0.0
H184 H 0.66345 0.59166 0.9584 0.0
H185 H 0.62202 0.62004 0.86568 0.0
C186 C 0.65717 0.69463 0.75258 0.0
C187 C 0.68057 0.73427 0.6972 0.0
C188 C 0.68005 0.67659 0.80284 0.0
C189 C 0.72674 0.75431 0.68914 0.0
C190 C 0.74942 0.73671 0.73839 0.0
C191 C 0.74983 0.68251 0.85146 0.0
C192 C 0.72762 0.64432 0.91124 0.0
C193 C 0.72657 0.69853 0.79707 0.0
C194 C 0.6813 0.62142 0.91365 0.0
C195 C 0.65768 0.63767 0.86064 0.0
H196 H 0.09754 0.77514 0.22412 0.0
H197 H 0.09109 0.65392 0.30856 0.0
H198 H 1.02107 0.61228 0.21631 0.0
H199 H 0.9608 0.61078 0.11257 0.0
H200 H 0.97169 0.73403 0.02496 0.0
H201 H 0.04072 0.77401 0.11636 0.0
C202 C 0.08067 0.73956 0.2234 0.0
C203 C 0.09915 0.7177 0.27483 0.0
C204 C 0.04122 0.71607 0.16851 0.0
C205 C 0.07736 0.67159 0.27048 0.0
C206 C 0.03737 0.64778 0.21744 0.0
C207 C 0.97853 0.64635 0.11264 0.0
C208 C 0.96062 0.6691 0.06174 0.0
C209 C 1.01889 0.66969 0.16596 0.0
C210 C 0.98422 0.71533 0.06324 0.0
C211 C 1.02385 0.73846 0.11596 0.0
H212 H 0.43367 0.08232 0.56782 0.0
H213 H 0.31229 0.08182 0.62781 0.0
H214 H 0.27012 1.00929 0.55083 0.0
H215 H 0.26747 0.94822 0.45697 0.0
H216 H 0.38746 0.94659 0.39272 0.0
H217 H 0.43032 1.01753 0.47994 0.0
C218 C 0.39797 0.06575 0.56588 0.0
C219 C 0.37608 0.08729 0.60377 0.0
C220 C 0.3737 0.02406 0.51888 0.0
C221 C 0.32984 0.06587 0.5992 0.0
C222 C 0.30568 0.02449 0.55467 0.0
C223 C 0.30305 0.96338 0.46136 0.0
C224 C 0.32421 0.94239 0.41665 0.0
C225 C 0.32728 1.00375 0.51216 0.0
C226 C 0.37029 0.96221 0.42545 0.0
C227 C 0.39482 1.00274 0.47566 0.0
H228 H 0.16367 0.38192 0.64992 0.0
H229 H 0.28575 0.38416 0.70682 0.0
H230 H 0.29612 0.37873 0.52229 0.0
H231 H 0.27595 0.38556 0.34616 0.0
H232 H 0.15311 0.38179 0.28935 0.0
H233 H 0.13675 0.37482 0.47365 0.0
C234 C 0.19199 0.3803 0.62143 0.0
C235 C 0.22443 0.38434 0.68966 0.0
C236 C 0.19761 0.37726 0.51626 0.0
C237 C 0.26065 0.38132 0.65413 0.0
C238 C 0.26667 0.3785 0.54916 0.0
C239 C 0.24529 0.38236 0.3746 0.0
C240 C 0.21612 0.3851 0.30652 0.0
C241 C 0.23627 0.37836 0.47967 0.0
C242 C 0.17598 0.38 0.34195 0.0
C243 C 0.16679 0.37626 0.44679 0.0
H244 H 0.88171 0.27303 0.026 0.0
H245 H 0.8161 0.13201 0.02031 0.0
H246 H 0.8281 0.13341 0.83335 0.0
H247 H 0.84824 0.17537 0.66833 0.0
H248 H 0.91181 0.31649 0.67978 0.0
H249 H 0.9108 0.31473 0.86706 0.0
C250 C 0.87102 0.24268 0.9839 0.0
C251 C 0.84805 0.20251 0.03608 0.0
C252 C 0.87764 0.2439 0.87716 0.0
C253 C 0.83417 0.16331 0.98144 0.0
C254 C 0.84077 0.16418 0.87454 0.0
C255 C 0.86315 0.20566 0.7122 0.0
C256 C 0.88023 0.24608 0.66042 0.0
C257 C 0.86127 0.20431 0.82091 0.0
C258 C 0.89864 0.28508 0.71801 0.0
C259 C 0.89779 0.28408 0.82511 0.0
H260 H 0.67345 0.88678 0.31739 0.0
H261 H 0.6629 0.75949 0.31564 0.0
H262 H 0.67172 0.76264 0.12899 0.0
H263 H 0.67211 0.79696 0.96463 0.0
H264 H 0.67364 0.91997 0.96554 0.0
H265 H 0.67952 0.92375 0.15295 0.0
C266 C 0.67409 0.86028 0.27605 0.0
C267 C 0.6674 0.82294 0.32969 0.0
C268 C 0.67731 0.86149 0.16818 0.0
C269 C 0.66769 0.78845 0.27553 0.0
C270 C 0.6727 0.79021 0.16887 0.0
C271 C 0.67508 0.82513 0.00603 0.0
C272 C 0.67281 0.85828 0.95207 0.0
C273 C 0.6761 0.8259 0.11403 0.0
C274 C 0.67554 0.89419 0.00609 0.0
C275 C 0.67862 0.89622 0.11312 0.0
H276 H 0.7982 0.65335 0.67032 0.0
H277 H 0.92105 0.65324 0.66369 0.0
H278 H 0.92431 0.66012 0.47658 0.0
H279 H 0.88783 0.65726 0.31354 0.0
H280 H 0.76065 0.64816 0.31963 0.0
H281 H 0.76357 0.65444 0.50717 0.0
C282 C 0.82609 0.65581 0.62782 0.0
C283 C 0.85938 0.65292 0.68039 0.0
C284 C 0.82674 0.65779 0.51978 0.0
C285 C 0.895 0.65532 0.62458 0.0
C286 C 0.89684 0.65917 0.51764 0.0
C287 C 0.86135 0.65776 0.35609 0.0
C288 C 0.82425 0.65261 0.30335 0.0
C289 C 0.86229 0.65918 0.46414 0.0
C290 C 0.78958 0.65223 0.35902 0.0
C291 C 0.79116 0.65563 0.46615 0.0
H292 H 0.25136 0.87631 0.66922 0.0
H293 H 0.13735 0.74636 0.67245 0.0
H294 H 0.13219 0.74959 0.85941 0.0
H295 H 0.16601 0.78534 0.02337 0.0
H296 H 0.28544 0.91116 0.02054 0.0
H297 H 0.28238 0.91415 0.83317 0.0
C298 C 0.22487 0.8492 0.71097 0.0
C299 C 0.19479 0.81119 0.65765 0.0
C300 C 0.22334 0.8505 0.8189 0.0
C301 C 0.16098 0.7759 0.71232 0.0
C302 C 0.15806 0.77769 0.81913 0.0
C303 C 0.19058 0.81386 0.98156 0.0
C304 C 0.2257 0.8481 0.03502 0.0
C305 C 0.18986 0.81425 0.87355 0.0
C306 C 0.25803 0.88451 0.98044 0.0
C307 C 0.25641 0.88612 0.87343 0.0
H308 H 0.447 0.28951 0.29153 0.0
H309 H 0.34581 0.15948 0.37827 0.0
H310 H 0.33441 0.13707 0.19671 0.0
H311 H 0.36212 0.15223 0.01483 0.0
H312 H 0.46615 0.28254 0.93663 0.0
H313 H 0.46719 0.3072 0.11196 0.0
C314 C 0.42161 0.25657 0.27041 0.0
C315 C 0.39744 0.22616 0.34781 0.0
C316 C 0.41625 0.2438 0.16697 0.0
C317 C 0.36456 0.18361 0.31974 0.0
C318 C 0.35846 0.17067 0.21599 0.0
C319 C 0.38423 0.18612 0.03633 0.0
C320 C 0.41449 0.21544 0.96366 0.0
C321 C 0.3854 0.20005 0.13906 0.0
C322 C 0.44307 0.2593 -0.00805 0.0
C323 C 0.44368 0.27347 0.0921 0.0
H324 H 0.23599 0.57587 -0.00723 0.0
H325 H 0.28031 0.5563 0.28665 0.0
H326 H 0.28983 0.62672 0.34626 0.0
H327 H 0.28287 0.69144 0.31609 0.0
H328 H 0.23634 0.7096 0.02471 0.0
H329 H 0.23268 0.64216 0.95975 0.0
C330 C 0.24772 0.58664 0.07026 0.0
C331 C 0.25704 0.56039 0.13582 0.0
C332 C 0.25362 0.62707 0.10291 0.0
C333 C 0.27241 0.57544 0.23529 0.0
C334 C 0.2782 0.6158 0.26883 0.0
C335 C 0.27233 0.68086 0.23773 0.0
C336 C 0.2594 0.70499 0.17502 0.0
C337 C 0.26871 0.6416 0.20327 0.0
C338 C 0.24664 0.69163 0.07361 0.0
C339 C 0.24396 0.65286 0.03747 0.0
H340 H 0.67175 0.18666 0.41581 0.0
H341 H 0.75652 0.31771 0.53185 0.0
H342 H 0.69229 0.32642 0.56064 0.0
H343 H 0.61177 0.29656 0.5529 0.0
H344 H 0.52789 0.16518 0.43917 0.0
H345 H 0.5924 0.15746 0.40592 0.0
C346 C 0.67638 0.21709 0.44835 0.0
C347 C 0.71913 0.25137 0.47218 0.0
C348 C 0.63952 0.22223 0.46251 0.0
C349 C 0.72411 0.29057 0.51363 0.0
C350 C 0.68741 0.29577 0.52911 0.0
C351 C 0.60782 0.26674 0.51819 0.0
C352 C 0.56526 0.23176 0.49633 0.0
C353 C 0.64499 0.26198 0.50278 0.0
C354 C 0.56041 0.19273 0.45481 0.0
C355 C 0.5972 0.18815 0.43703 0.0
H356 H 0.38919 0.58321 0.00432 0.0
H357 H 0.33158 0.55133 0.70111 0.0
H358 H 0.39277 0.62073 0.63641 0.0
H359 H 0.463 0.68789 0.66541 0.0
H360 H 0.52174 0.71866 0.96678 0.0
H361 H 0.45764 0.6519 0.03491 0.0
C362 C 0.38973 0.59102 0.92366 0.0
C363 C 0.35588 0.56157 0.85701 0.0
C364 C 0.42459 0.63076 0.88777 0.0
C365 C 0.35725 0.573 0.75355 0.0
C366 C 0.39207 0.61271 0.71693 0.0
C367 C 0.46185 0.68011 0.74637 0.0
C368 C 0.49736 0.70766 0.81118 0.0
C369 C 0.42592 0.64147 0.78335 0.0
C370 C 0.49487 0.69794 0.9159 0.0
C371 C 0.45853 0.65964 0.95414 0.0
H372 H 0.84156 0.38436 0.33439 0.0
H373 H 0.77691 0.31027 0.06203 0.0
H374 H 0.76529 0.36982 0.00405 0.0
H375 H 0.77825 0.44435 0.0259 0.0
H376 H 0.83976 0.51795 0.30052 0.0
H377 H 0.84738 0.45649 0.36474 0.0
C378 C 0.82521 0.38149 0.26196 0.0
C379 C 0.81117 0.34371 0.2006 0.0
C380 C 0.8177 0.41527 0.23089 0.0
C381 C 0.7886 0.33945 0.10908 0.0
C382 C 0.78185 0.37331 0.07643 0.0
C383 C 0.79226 0.44645 0.10112 0.0
C384 C 0.80826 0.4853 0.15899 0.0
C385 C 0.7967 0.41145 0.13623 0.0
C386 C 0.82677 0.48806 0.25565 0.0
C387 C 0.83156 0.4532 0.29142 0.0
H388 H 0.36699 0.78002 0.32565 0.0
H389 H 0.3248 0.777 0.63982 0.0
H390 H 0.38816 0.77132 0.69911 0.0
H391 H 0.45838 0.77504 0.66127 0.0
H392 H 0.50311 0.78347 0.34761 0.0
H393 H 0.43444 0.77845 0.28734 0.0
C394 C 0.37148 0.77826 0.40751 0.0
C395 C 0.34178 0.78017 0.47885 0.0
C396 C 0.40815 0.77601 0.4403 0.0
C397 C 0.34736 0.77614 0.58383 0.0
C398 C 0.3836 0.77304 0.61735 0.0
C399 C 0.45329 0.77579 0.57936 0.0
C400 C 0.48636 0.78078 0.50859 0.0
C401 C 0.41471 0.77424 0.54623 0.0
C402 C 0.47844 0.78005 0.40319 0.0
C403 C 0.43938 0.77747 0.36916 0.0
H404 H 0.71093 0.43727 0.96685 0.0
H405 H 0.7288 0.50855 0.6857 0.0
H406 H 0.66236 0.44524 0.61461 0.0
H407 H 0.59536 0.37271 0.64134 0.0
H408 H 0.5801 0.30114 0.92079 0.0
H409 H 0.65005 0.36176 0.98455 0.0
C410 C 0.70097 0.43856 0.88889 0.0
C411 C 0.72455 0.47743 0.83134 0.0
C412 C 0.663 0.40241 0.84959 0.0
C413 C 0.71131 0.47884 0.7308 0.0
C414 C 0.67313 0.44286 0.6909 0.0
C415 C 0.60754 0.3705 0.71613 0.0
C416 C 0.58238 0.3332 0.77789 0.0
C417 C 0.64803 0.40506 0.75101 0.0
C418 C 0.59882 0.32983 0.87301 0.0
C419 C 0.63868 0.3644 0.90915 0.0
loop_
_geom_bond_atom_site_label_1
_geom_bond_atom_site_label_2
_geom_bond_distance
_geom_bond_site_symmetry_2
_ccdc_geom_bond_type
Fe0 O2 1.918 1_554 S
Fe0 O5 1.997 . S
Fe0 O6 2.002 . S
Fe0 O11 1.976 . S
Fe0 O14 1.996 1_554 S
Fe1 O2 1.918 . S
Fe1 O9 1.994 1_556 S
Fe1 O12 1.996 . S
Fe1 O16 1.978 . S
Fe1 O19 2.002 1_556 S
O2 Fe0 1.918 1_556 S
O2 Fe1 1.918 . S
O2 Fe3 1.918 . S
Fe3 O2 1.918 . S
Fe3 O4 2.002 1_556 S
Fe3 O13 1.976 . S
Fe3 O17 1.996 . S
Fe3 O20 1.997 . S
O4 Fe3 2.002 1_554 S
O4 C21 1.295 . S
O5 Fe0 1.997 . S
O5 C21 1.235 . S
O6 Fe0 2.002 . S
O6 C7 1.295 . S
C7 O6 1.295 . S
C7 O9 1.235 . S
C8 O13 1.287 . S
C8 O14 1.255 . S
O9 Fe1 1.994 1_554 S
O9 C7 1.235 . S
C10 O16 1.287 . S
C10 O17 1.255 . S
O11 Fe0 1.976 . S
O11 C18 1.287 . S
O12 Fe1 1.996 . S
O12 C18 1.255 1_556 S
O13 Fe3 1.976 . S
O13 C8 1.287 . S
O14 Fe0 1.996 1_556 S
O14 C8 1.255 . S
C15 O19 1.296 . S
C15 O20 1.234 1_554 S
O16 Fe1 1.978 . S
O16 C10 1.287 . S
O17 Fe3 1.996 . S
O17 C10 1.255 . S
C18 O11 1.287 . S
C18 O12 1.255 1_554 S
O19 Fe1 2.002 1_554 S
O19 C15 1.296 . S
O20 Fe3 1.997 . S
O20 C15 1.234 1_556 S
C21 O4 1.295 . S
C21 O5 1.235 . S
Fe22 O24 1.918 . S
Fe22 O27 1.997 . S
Fe22 O28 2.002 . S
Fe22 O33 1.976 . S
Fe22 O36 1.996 . S
Fe23 O24 1.918 . S
Fe23 O31 1.997 . S
Fe23 O34 1.996 . S
Fe23 O38 1.976 . S
Fe23 O41 2.002 . S
O24 Fe22 1.918 . S
O24 Fe23 1.918 . S
O24 Fe25 1.918 . S
Fe25 O24 1.918 . S
Fe25 O26 2.002 . S
Fe25 O35 1.976 . S
Fe25 O39 1.996 . S
Fe25 O42 1.997 . S
O26 Fe25 2.002 . S
O26 C43 1.295 . S
O27 Fe22 1.997 . S
O27 C43 1.235 . S
O28 Fe22 2.002 . S
O28 C29 1.295 . S
C29 O28 1.295 . S
C29 O31 1.235 . S
C30 O35 1.287 . S
C30 O36 1.255 . S
O31 Fe23 1.997 . S
O31 C29 1.235 . S
C32 O38 1.287 . S
C32 O39 1.255 . S
O33 Fe22 1.976 . S
O33 C40 1.287 . S
O34 Fe23 1.996 . S
O34 C40 1.255 . S
O35 Fe25 1.976 . S
O35 C30 1.287 . S
O36 Fe22 1.996 . S
O36 C30 1.255 . S
C37 O41 1.295 . S
C37 O42 1.235 . S
O38 Fe23 1.976 . S
O38 C32 1.287 . S
O39 Fe25 1.996 . S
O39 C32 1.255 . S
C40 O33 1.287 . S
C40 O34 1.255 . S
O41 Fe23 2.002 . S
O41 C37 1.295 . S
O42 Fe25 1.997 . S
O42 C37 1.235 . S
C43 O26 1.295 . S
C43 O27 1.235 . S
Fe44 O46 1.918 . S
Fe44 O49 1.997 . S
Fe44 O50 2.002 . S
Fe44 O55 1.976 . S
Fe44 O58 1.996 . S
Fe45 O46 1.918 . S
Fe45 O53 1.997 . S
Fe45 O56 1.996 . S
Fe45 O60 1.976 . S
Fe45 O63 2.002 . S
O46 Fe44 1.918 . S
O46 Fe45 1.918 . S
O46 Fe47 1.918 . S
Fe47 O46 1.918 . S
Fe47 O48 2.002 . S
Fe47 O57 1.976 . S
Fe47 O61 1.996 . S
Fe47 O64 1.997 . S
O48 Fe47 2.002 . S
O48 C65 1.295 . S
O49 Fe44 1.997 . S
O49 C65 1.235 . S
O50 Fe44 2.002 . S
O50 C51 1.295 . S
C51 O50 1.295 . S
C51 O53 1.235 . S
C52 O57 1.287 . S
C52 O58 1.255 . S
O53 Fe45 1.997 . S
O53 C51 1.235 . S
C54 O60 1.287 . S
C54 O61 1.255 . S
O55 Fe44 1.976 . S
O55 C62 1.287 . S
O56 Fe45 1.996 . S
O56 C62 1.255 . S
O57 Fe47 1.976 . S
O57 C52 1.287 . S
O58 Fe44 1.996 . S
O58 C52 1.255 . S
C59 O63 1.295 . S
C59 O64 1.235 . S
O60 Fe45 1.976 . S
O60 C54 1.287 . S
O61 Fe47 1.996 . S
O61 C54 1.255 . S
C62 O55 1.287 . S
C62 O56 1.255 . S
O63 Fe45 2.002 . S
O63 C59 1.295 . S
O64 Fe47 1.997 . S
O64 C59 1.235 . S
C65 O48 1.295 . S
C65 O49 1.235 . S
Fe66 O68 1.918 . S
Fe66 O71 1.997 . S
Fe66 O72 2.002 1_556 S
Fe66 O77 1.976 . S
Fe66 O80 1.996 . S
Fe67 O68 1.918 1_554 S
Fe67 O75 1.997 . S
Fe67 O78 1.996 1_554 S
Fe67 O82 1.976 . S
Fe67 O85 2.002 . S
O68 Fe66 1.918 . S
O68 Fe67 1.918 1_556 S
O68 Fe69 1.918 . S
Fe69 O68 1.918 . S
Fe69 O70 2.002 1_556 S
Fe69 O79 1.978 . S
Fe69 O83 1.996 . S
Fe69 O86 1.994 1_556 S
O70 Fe69 2.002 1_554 S
O70 C87 1.296 . S
O71 Fe66 1.997 . S
O71 C87 1.234 1_556 S
O72 Fe66 2.002 1_554 S
O72 C73 1.295 . S
C73 O72 1.295 . S
C73 O75 1.235 . S
C74 O79 1.287 . S
C74 O80 1.255 . S
O75 Fe67 1.997 . S
O75 C73 1.235 . S
C76 O82 1.287 . S
C76 O83 1.255 1_554 S
O77 Fe66 1.976 . S
O77 C84 1.287 . S
O78 Fe67 1.996 1_556 S
O78 C84 1.255 . S
O79 Fe69 1.978 . S
O79 C74 1.287 . S
O80 Fe66 1.996 . S
O80 C74 1.255 . S
C81 O85 1.295 . S
C81 O86 1.235 . S
O82 Fe67 1.976 . S
O82 C76 1.287 . S
O83 Fe69 1.996 . S
O83 C76 1.255 1_556 S
C84 O77 1.287 . S
C84 O78 1.255 . S
O85 Fe67 2.002 . S
O85 C81 1.295 . S
O86 Fe69 1.994 1_554 S
O86 C81 1.235 . S
C87 O70 1.296 . S
C87 O71 1.234 1_554 S
Fe88 O90 1.918 . S
Fe88 O93 1.997 . S
Fe88 O94 2.002 . S
Fe88 O99 1.976 . S
Fe88 O102 1.996 . S
Fe89 O90 1.918 . S
Fe89 O97 1.997 . S
Fe89 O100 1.996 . S
Fe89 O104 1.976 . S
Fe89 O107 2.002 . S
O90 Fe88 1.918 . S
O90 Fe89 1.918 . S
O90 Fe91 1.918 . S
Fe91 O90 1.918 . S
Fe91 O92 2.002 . S
Fe91 O101 1.976 . S
Fe91 O105 1.996 . S
Fe91 O108 1.997 . S
O92 Fe91 2.002 . S
O92 C109 1.295 . S
O93 Fe88 1.997 . S
O93 C109 1.235 . S
O94 Fe88 2.002 . S
O94 C95 1.295 . S
C95 O94 1.295 . S
C95 O97 1.235 . S
C96 O101 1.287 . S
C96 O102 1.255 . S
O97 Fe89 1.997 . S
O97 C95 1.235 . S
C98 O104 1.287 . S
C98 O105 1.255 . S
O99 Fe88 1.976 . S
O99 C106 1.287 . S
O100 Fe89 1.996 . S
O100 C106 1.255 . S
O101 Fe91 1.976 . S
O101 C96 1.287 . S
O102 Fe88 1.996 . S
O102 C96 1.255 . S
C103 O107 1.295 . S
C103 O108 1.235 . S
O104 Fe89 1.976 . S
O104 C98 1.287 . S
O105 Fe91 1.996 . S
O105 C98 1.255 . S
C106 O99 1.287 . S
C106 O100 1.255 . S
O107 Fe89 2.002 . S
O107 C103 1.295 . S
O108 Fe91 1.997 . S
O108 C103 1.235 . S
C109 O92 1.295 . S
C109 O93 1.235 . S
Fe110 O112 1.918 . S
Fe110 O115 1.997 . S
Fe110 O116 2.002 . S
Fe110 O121 1.976 . S
Fe110 O124 1.996 . S
Fe111 O112 1.918 . S
Fe111 O119 1.997 . S
Fe111 O122 1.996 . S
Fe111 O126 1.976 . S
Fe111 O129 2.002 . S
O112 Fe110 1.918 . S
O112 Fe111 1.918 . S
O112 Fe113 1.918 . S
Fe113 O112 1.918 . S
Fe113 O114 2.002 . S
Fe113 O123 1.976 . S
Fe113 O127 1.996 . S
Fe113 O130 1.997 . S
O114 Fe113 2.002 . S
O114 C131 1.295 . S
O115 Fe110 1.997 . S
O115 C131 1.235 . S
O116 Fe110 2.002 . S
O116 C117 1.295 . S
C117 O116 1.295 . S
C117 O119 1.235 . S
C118 O123 1.287 . S
C118 O124 1.255 . S
O119 Fe111 1.997 . S
O119 C117 1.235 . S
C120 O126 1.287 . S
C120 O127 1.255 . S
O121 Fe110 1.976 . S
O121 C128 1.287 . S
O122 Fe111 1.996 . S
O122 C128 1.255 . S
O123 Fe113 1.976 . S
O123 C118 1.287 . S
O124 Fe110 1.996 . S
O124 C118 1.255 . S
C125 O129 1.295 . S
C125 O130 1.235 . S
O126 Fe111 1.976 . S
O126 C120 1.287 . S
O127 Fe113 1.996 . S
O127 C120 1.255 . S
C128 O121 1.287 . S
C128 O122 1.255 . S
O129 Fe111 2.002 . S
O129 C125 1.295 . S
O130 Fe113 1.997 . S
O130 C125 1.235 . S
C131 O114 1.295 . S
C131 O115 1.235 . S
H132 C138 0.930 . S
H133 C141 0.930 . S
H134 C142 0.930 . S
H135 C143 0.930 . S
H136 C146 0.930 . S
H137 C147 0.930 . S
C138 H132 0.930 . S
C138 C139 1.355 . S
C138 C140 1.415 . S
C139 C138 1.355 . S
C139 C141 1.419 . S
C140 C138 1.415 . S
C140 C145 1.425 . S
C140 C147 1.409 . S
C141 H133 0.930 . S
C141 C139 1.419 . S
C141 C142 1.362 . S
C142 H134 0.930 . S
C142 C141 1.362 . S
C142 C145 1.409 . S
C143 H135 0.930 . S
C143 C144 1.355 . S
C143 C145 1.415 . S
C144 C143 1.355 . S
C144 C146 1.419 . S
C145 C140 1.425 . S
C145 C142 1.409 . S
C145 C143 1.415 . S
C146 H136 0.930 . S
C146 C144 1.419 . S
C146 C147 1.362 . S
C147 H137 0.930 . S
C147 C140 1.409 . S
C147 C146 1.362 . S
H148 C154 0.930 . S
H149 C157 0.930 . S
H150 C158 0.930 . S
H151 C159 0.930 . S
H152 C162 0.930 . S
H153 C163 0.930 . S
C154 H148 0.930 . S
C154 C155 1.355 . S
C154 C156 1.415 . S
C155 C154 1.355 . S
C155 C157 1.419 . S
C156 C154 1.415 . S
C156 C161 1.431 1_455 S
C156 C163 1.409 1_455 S
C157 H149 0.930 . S
C157 C155 1.419 . S
C157 C158 1.362 . S
C158 H150 0.930 . S
C158 C157 1.362 . S
C158 C161 1.391 1_455 S
C159 H151 0.930 . S
C159 C160 1.355 . S
C159 C161 1.427 . S
C160 C159 1.355 . S
C160 C162 1.419 . S
C161 C156 1.431 1_655 S
C161 C158 1.391 1_655 S
C161 C159 1.427 . S
C162 H152 0.930 . S
C162 C160 1.419 . S
C162 C163 1.362 . S
C163 H153 0.930 . S
C163 C156 1.409 1_655 S
C163 C162 1.362 . S
H164 C170 0.930 . S
H165 C173 0.930 . S
H166 C174 0.930 . S
H167 C175 0.930 . S
H168 C178 0.930 . S
H169 C179 0.930 . S
C170 H164 0.930 . S
C170 C171 1.355 . S
C170 C172 1.415 . S
C171 C170 1.355 . S
C171 C173 1.419 . S
C172 C170 1.415 . S
C172 C177 1.425 . S
C172 C179 1.409 1_545 S
C173 H165 0.930 . S
C173 C171 1.419 . S
C173 C174 1.362 . S
C174 H166 0.930 . S
C174 C173 1.362 . S
C174 C177 1.409 . S
C175 H167 0.930 . S
C175 C176 1.355 . S
C175 C177 1.415 1_565 S
C176 C175 1.355 . S
C176 C178 1.419 . S
C177 C172 1.425 . S
C177 C174 1.409 . S
C177 C175 1.415 1_545 S
C178 H168 0.930 . S
C178 C176 1.419 . S
C178 C179 1.362 . S
C179 H169 0.930 . S
C179 C172 1.409 1_565 S
C179 C178 1.362 . S
H180 C186 0.930 . S
H181 C189 0.930 . S
H182 C190 0.930 . S
H183 C191 0.930 . S
H184 C194 0.930 1_554 S
H185 C195 0.930 . S
C186 H180 0.930 . S
C186 C187 1.355 . S
C186 C188 1.415 . S
C187 C186 1.355 . S
C187 C189 1.419 . S
C188 C186 1.415 . S
C188 C193 1.425 . S
C188 C195 1.409 . S
C189 H181 0.930 . S
C189 C187 1.419 . S
C189 C190 1.362 . S
C190 H182 0.930 . S
C190 C189 1.362 . S
C190 C193 1.409 . S
C191 H183 0.930 . S
C191 C192 1.355 . S
C191 C193 1.415 . S
C192 C191 1.355 . S
C192 C194 1.419 . S
C193 C188 1.425 . S
C193 C190 1.409 . S
C193 C191 1.415 . S
C194 H184 0.930 1_556 S
C194 C192 1.419 . S
C194 C195 1.362 . S
C195 H185 0.930 . S
C195 C188 1.409 . S
C195 C194 1.362 . S
H196 C202 0.930 . S
H197 C205 0.930 . S
H198 C206 0.930 . S
H199 C207 0.930 . S
H200 C210 0.930 . S
H201 C211 0.930 . S
C202 H196 0.930 . S
C202 C203 1.355 . S
C202 C204 1.428 . S
C203 C202 1.355 . S
C203 C205 1.419 . S
C204 C202 1.428 . S
C204 C209 1.432 1_455 S
C204 C211 1.390 1_455 S
C205 H197 0.930 . S
C205 C203 1.419 . S
C205 C206 1.362 . S
C206 H198 0.930 . S
C206 C205 1.362 . S
C206 C209 1.409 1_455 S
C207 H199 0.930 . S
C207 C208 1.355 . S
C207 C209 1.415 . S
C208 C207 1.355 . S
C208 C210 1.419 . S
C209 C204 1.432 1_655 S
C209 C206 1.409 1_655 S
C209 C207 1.415 . S
C210 H200 0.930 . S
C210 C208 1.419 . S
C210 C211 1.362 . S
C211 H201 0.930 . S
C211 C204 1.390 1_655 S
C211 C210 1.362 . S
H212 C218 0.930 . S
H213 C221 0.930 . S
H214 C222 0.930 . S
H215 C223 0.930 . S
H216 C226 0.930 . S
H217 C227 0.930 1_545 S
C218 H212 0.930 . S
C218 C219 1.355 . S
C218 C220 1.415 . S
C219 C218 1.355 . S
C219 C221 1.419 . S
C220 C218 1.415 . S
C220 C225 1.425 1_545 S
C220 C227 1.409 1_545 S
C221 H213 0.930 . S
C221 C219 1.419 . S
C221 C222 1.362 1_545 S
C222 H214 0.930 . S
C222 C221 1.362 1_565 S
C222 C225 1.409 . S
C223 H215 0.930 . S
C223 C224 1.355 . S
C223 C225 1.415 . S
C224 C223 1.355 . S
C224 C226 1.419 . S
C225 C220 1.425 1_565 S
C225 C222 1.409 . S
C225 C223 1.415 . S
C226 H216 0.930 . S
C226 C224 1.419 . S
C226 C227 1.362 . S
C227 H217 0.930 1_565 S
C227 C220 1.409 1_565 S
C227 C226 1.362 . S
H228 C234 0.930 . S
H229 C237 0.930 . S
H230 C238 0.930 . S
H231 C239 0.930 . S
H232 C242 0.930 . S
H233 C243 0.930 . S
C234 H228 0.930 . S
C234 C235 1.355 . S
C234 C236 1.415 . S
C235 C234 1.355 . S
C235 C237 1.419 . S
C236 C234 1.415 . S
C236 C241 1.425 . S
C236 C243 1.409 . S
C237 H229 0.930 . S
C237 C235 1.419 . S
C237 C238 1.362 . S
C238 H230 0.930 . S
C238 C237 1.362 . S
C238 C241 1.409 . S
C239 H231 0.930 . S
C239 C240 1.355 . S
C239 C241 1.415 . S
C240 C239 1.355 . S
C240 C242 1.419 . S
C241 C236 1.425 . S
C241 C238 1.409 . S
C241 C239 1.415 . S
C242 H232 0.930 . S
C242 C240 1.419 . S
C242 C243 1.362 . S
C243 H233 0.930 . S
C243 C236 1.409 . S
C243 C242 1.362 . S
H244 C250 0.930 1_554 S
H245 C253 0.930 1_554 S
H246 C254 0.930 . S
H247 C255 0.930 . S
H248 C258 0.930 . S
H249 C259 0.930 . S
C250 H244 0.930 1_556 S
C250 C251 1.355 1_556 S
C250 C252 1.415 . S
C251 C250 1.355 1_554 S
C251 C253 1.419 1_554 S
C252 C250 1.415 . S
C252 C257 1.425 . S
C252 C259 1.409 . S
C253 H245 0.930 1_556 S
C253 C251 1.419 1_556 S
C253 C254 1.362 . S
C254 H246 0.930 . S
C254 C253 1.362 . S
C254 C257 1.409 . S
C255 H247 0.930 . S
C255 C256 1.355 . S
C255 C257 1.415 . S
C256 C255 1.355 . S
C256 C258 1.419 . S
C257 C252 1.425 . S
C257 C254 1.409 . S
C257 C255 1.415 . S
C258 H248 0.930 . S
C258 C256 1.419 . S
C258 C259 1.362 . S
C259 H249 0.930 . S
C259 C252 1.409 . S
C259 C258 1.362 . S
H260 C266 0.930 . S
H261 C269 0.930 . S
H262 C270 0.930 . S
H263 C271 0.930 . S
H264 C274 0.930 1_556 S
H265 C275 0.930 . S
C266 H260 0.930 . S
C266 C267 1.355 . S
C266 C268 1.415 . S
C267 C266 1.355 . S
C267 C269 1.419 . S
C268 C266 1.415 . S
C268 C273 1.425 . S
C268 C275 1.409 . S
C269 H261 0.930 . S
C269 C267 1.419 . S
C269 C270 1.362 . S
C270 H262 0.930 . S
C270 C269 1.362 . S
C270 C273 1.409 . S
C271 H263 0.930 . S
C271 C272 1.355 1_554 S
C271 C273 1.415 . S
C272 C271 1.355 1_556 S
C272 C274 1.419 1_556 S
C273 C268 1.425 . S
C273 C270 1.409 . S
C273 C271 1.415 . S
C274 H264 0.930 1_554 S
C274 C272 1.419 1_554 S
C274 C275 1.362 . S
C275 H265 0.930 . S
C275 C268 1.409 . S
C275 C274 1.362 . S
H276 C282 0.930 . S
H277 C285 0.930 . S
H278 C286 0.930 . S
H279 C287 0.930 . S
H280 C290 0.930 . S
H281 C291 0.930 . S
C282 H276 0.930 . S
C282 C283 1.355 . S
C282 C284 1.415 . S
C283 C282 1.355 . S
C283 C285 1.419 . S
C284 C282 1.415 . S
C284 C289 1.425 . S
C284 C291 1.409 . S
C285 H277 0.930 . S
C285 C283 1.419 . S
C285 C286 1.362 . S
C286 H278 0.930 . S
C286 C285 1.362 . S
C286 C289 1.409 . S
C287 H279 0.930 . S
C287 C288 1.355 . S
C287 C289 1.415 . S
C288 C287 1.355 . S
C288 C290 1.419 . S
C289 C284 1.425 . S
C289 C286 1.409 . S
C289 C287 1.415 . S
C290 H280 0.930 . S
C290 C288 1.419 . S
C290 C291 1.362 . S
C291 H281 0.930 . S
C291 C284 1.409 . S
C291 C290 1.362 . S
H292 C298 0.930 . S
H293 C301 0.930 . S
H294 C302 0.930 . S
H295 C303 0.930 . S
H296 C306 0.930 1_554 S
H297 C307 0.930 . S
C298 H292 0.930 . S
C298 C299 1.355 . S
C298 C300 1.415 . S
C299 C298 1.355 . S
C299 C301 1.419 . S
C300 C298 1.415 . S
C300 C305 1.425 . S
C300 C307 1.409 . S
C301 H293 0.930 . S
C301 C299 1.419 . S
C301 C302 1.362 . S
C302 H294 0.930 . S
C302 C301 1.362 . S
C302 C305 1.409 . S
C303 H295 0.930 . S
C303 C304 1.355 1_556 S
C303 C305 1.415 . S
C304 C303 1.355 1_554 S
C304 C306 1.419 1_554 S
C305 C300 1.425 . S
C305 C302 1.409 . S
C305 C303 1.415 . S
C306 H296 0.930 1_556 S
C306 C304 1.419 1_556 S
C306 C307 1.362 . S
C307 H297 0.930 . S
C307 C300 1.409 . S
C307 C306 1.362 . S
H308 C314 0.930 . S
H309 C317 0.930 . S
H310 C318 0.930 . S
H311 C319 0.930 . S
H312 C322 0.930 1_556 S
H313 C323 0.930 . S
C314 H308 0.930 . S
C314 C315 1.355 . S
C314 C316 1.415 . S
C315 C314 1.355 . S
C315 C317 1.419 . S
C316 C314 1.415 . S
C316 C321 1.425 . S
C316 C323 1.409 . S
C317 H309 0.930 . S
C317 C315 1.419 . S
C317 C318 1.362 . S
C318 H310 0.930 . S
C318 C317 1.362 . S
C318 C321 1.409 . S
C319 H311 0.930 . S
C319 C320 1.355 1_554 S
C319 C321 1.415 . S
C320 C319 1.355 1_556 S
C320 C322 1.419 1_556 S
C321 C316 1.425 . S
C321 C318 1.409 . S
C321 C319 1.415 . S
C322 H312 0.930 1_554 S
C322 C320 1.419 1_554 S
C322 C323 1.362 . S
C323 H313 0.930 . S
C323 C316 1.409 . S
C323 C322 1.362 . S
H324 C330 0.930 . S
H325 C333 0.930 . S
H326 C334 0.930 . S
H327 C335 0.930 . S
H328 C338 0.930 . S
H329 C339 0.930 . S
C330 H324 0.930 . S
C330 C331 1.355 . S
C330 C332 1.415 . S
C331 C330 1.355 . S
C331 C333 1.419 . S
C332 C330 1.415 . S
C332 C337 1.425 . S
C332 C339 1.409 . S
C333 H325 0.930 . S
C333 C331 1.419 . S
C333 C334 1.362 . S
C334 H326 0.930 . S
C334 C333 1.362 . S
C334 C337 1.409 . S
C335 H327 0.930 . S
C335 C336 1.355 . S
C335 C337 1.415 . S
C336 C335 1.355 . S
C336 C338 1.419 . S
C337 C332 1.425 . S
C337 C334 1.409 . S
C337 C335 1.415 . S
C338 H328 0.930 . S
C338 C336 1.419 . S
C338 C339 1.362 . S
C339 H329 0.930 . S
C339 C332 1.409 . S
C339 C338 1.362 . S
H340 C346 0.930 . S
H341 C349 0.930 . S
H342 C350 0.930 . S
H343 C351 0.930 . S
H344 C354 0.930 . S
H345 C355 0.930 . S
C346 H340 0.930 . S
C346 C347 1.355 . S
C346 C348 1.415 . S
C347 C346 1.355 . S
C347 C349 1.419 . S
C348 C346 1.415 . S
C348 C353 1.425 . S
C348 C355 1.409 . S
C349 H341 0.930 . S
C349 C347 1.419 . S
C349 C350 1.362 . S
C350 H342 0.930 . S
C350 C349 1.362 . S
C350 C353 1.409 . S
C351 H343 0.930 . S
C351 C352 1.355 . S
C351 C353 1.415 . S
C352 C351 1.355 . S
C352 C354 1.419 . S
C353 C348 1.425 . S
C353 C350 1.409 . S
C353 C351 1.415 . S
C354 H344 0.930 . S
C354 C352 1.419 . S
C354 C355 1.362 . S
C355 H345 0.930 . S
C355 C348 1.409 . S
C355 C354 1.362 . S
H356 C362 0.930 . S
H357 C365 0.930 . S
H358 C366 0.930 . S
H359 C367 0.930 . S
H360 C370 0.930 . S
H361 C371 0.932 . S
C362 H356 0.930 . S
C362 C363 1.355 . S
C362 C364 1.415 . S
C363 C362 1.355 . S
C363 C365 1.419 . S
C364 C362 1.415 . S
C364 C369 1.425 . S
C364 C371 1.409 . S
C365 H357 0.930 . S
C365 C363 1.419 . S
C365 C366 1.362 . S
C366 H358 0.930 . S
C366 C365 1.362 . S
C366 C369 1.409 . S
C367 H359 0.930 . S
C367 C368 1.355 . S
C367 C369 1.415 . S
C368 C367 1.355 . S
C368 C370 1.419 . S
C369 C364 1.425 . S
C369 C366 1.409 . S
C369 C367 1.415 . S
C370 H360 0.930 . S
C370 C368 1.419 . S
C370 C371 1.362 . S
C371 H361 0.932 . S
C371 C364 1.409 . S
C371 C370 1.362 . S
H372 C378 0.930 . S
H373 C381 0.930 . S
H374 C382 0.930 . S
H375 C383 0.930 . S
H376 C386 0.930 . S
H377 C387 0.930 . S
C378 H372 0.930 . S
C378 C379 1.355 . S
C378 C380 1.415 . S
C379 C378 1.355 . S
C379 C381 1.419 . S
C380 C378 1.415 . S
C380 C385 1.425 . S
C380 C387 1.409 . S
C381 H373 0.930 . S
C381 C379 1.419 . S
C381 C382 1.362 . S
C382 H374 0.930 . S
C382 C381 1.362 . S
C382 C385 1.409 . S
C383 H375 0.930 . S
C383 C384 1.355 . S
C383 C385 1.415 . S
C384 C383 1.355 . S
C384 C386 1.419 . S
C385 C380 1.425 . S
C385 C382 1.409 . S
C385 C383 1.415 . S
C386 H376 0.930 . S
C386 C384 1.419 . S
C386 C387 1.362 . S
C387 H377 0.930 . S
C387 C380 1.409 . S
C387 C386 1.362 . S
H388 C394 0.930 . S
H389 C397 0.930 . S
H390 C398 0.930 . S
H391 C399 0.930 . S
H392 C402 0.930 . S
H393 C403 0.930 . S
C394 H388 0.930 . S
C394 C395 1.355 . S
C394 C396 1.415 . S
C395 C394 1.355 . S
C395 C397 1.419 . S
C396 C394 1.415 . S
C396 C401 1.425 . S
C396 C403 1.409 . S
C397 H389 0.930 . S
C397 C395 1.419 . S
C397 C398 1.362 . S
C398 H390 0.930 . S
C398 C397 1.362 . S
C398 C401 1.409 . S
C399 H391 0.930 . S
C399 C400 1.355 . S
C399 C401 1.415 . S
C400 C399 1.355 . S
C400 C402 1.419 . S
C401 C396 1.425 . S
C401 C398 1.409 . S
C401 C399 1.415 . S
C402 H392 0.930 . S
C402 C400 1.419 . S
C402 C403 1.362 . S
C403 H393 0.930 . S
C403 C396 1.409 . S
C403 C402 1.362 . S
H404 C410 0.930 . S
H405 C413 0.930 . S
H406 C414 0.930 . S
H407 C415 0.930 . S
H408 C418 0.930 . S
H409 C419 0.930 . S
C410 H404 0.930 . S
C410 C411 1.355 . S
C410 C412 1.415 . S
C411 C410 1.355 . S
C411 C413 1.419 . S
C412 C410 1.415 . S
C412 C417 1.425 . S
C412 C419 1.409 . S
C413 H405 0.930 . S
C413 C411 1.419 . S
C413 C414 1.362 . S
C414 H406 0.930 . S
C414 C413 1.362 . S
C414 C417 1.409 . S
C415 H407 0.930 . S
C415 C416 1.355 . S
C415 C417 1.415 . S
C416 C415 1.355 . S
C416 C418 1.419 . S
C417 C412 1.425 . S
C417 C414 1.409 . S
C417 C415 1.415 . S
C418 H408 0.930 . S
C418 C416 1.419 . S
C418 C419 1.362 . S
C419 H409 0.930 . S
C419 C412 1.409 . S
C419 C418 1.362 . S
C139 C125 1.734 . S
C144 C18 1.684 1_556 S
C155 C15 1.704 . S
C160 C40 1.694 . S
C171 C37 1.699 . S
C176 C54 1.681 . S
C187 C65 1.714 . S
C192 C76 1.712 1_556 S
C203 C98 1.714 . S
C208 C87 1.717 . S
C219 C128 1.699 . S
C224 C109 1.742 . S
C235 C10 1.107 . S
C240 C7 1.049 . S
C251 C32 1.097 . S
C256 C29 1.076 . S
C267 C52 1.110 . S
C272 C59 1.054 . S
C283 C74 1.027 . S
C288 C81 1.098 . S
C299 C103 1.111 . S
C304 C96 1.034 . S
C315 C120 1.109 . S
C320 C117 1.051 . S
C331 C21 1.300 . S
C336 C106 1.308 . S
C347 C43 1.242 . S
C352 C118 1.262 . S
C363 C8 1.314 . S
C368 C51 1.306 . S
C379 C30 1.266 . S
C384 C73 1.247 . S
C395 C95 1.308 . S
C400 C62 1.324 . S
C411 C84 1.296 . S
C416 C131 1.286 . S
