# Generated by pormake.
# Topology smg, (6)-cn, num edge types: 1
# Building blocks:
#     Node 0, Type 0, BuildingBlock: OJICUG_clean_sbu_0, # of connection points: 6
#     Node 1, Type 0, BuildingBlock: OJICUG_clean_sbu_0, # of connection points: 6
#     Node 2, Type 0, BuildingBlock: OJICUG_clean_sbu_0, # of connection points: 6
#     Node 3, Type 0, BuildingBlock: OJICUG_clean_sbu_0, # of connection points: 6
#     Node 4, Type 0, BuildingBlock: OJICUG_clean_sbu_0, # of connection points: 6
#     Node 5, Type 0, BuildingBlock: OJICUG_clean_sbu_0, # of connection points: 6
#     Node 6, Type 0, BuildingBlock: OJICUG_clean_sbu_0, # of connection points: 6
#     Node 7, Type 0, BuildingBlock: OJICUG_clean_sbu_0, # of connection points: 6
#     Node 8, Type 0, BuildingBlock: OJICUG_clean_sbu_0, # of connection points: 6
#     Node 9, Type 0, BuildingBlock: OJICUG_clean_sbu_0, # of connection points: 6
#     Node 10, Type 0, BuildingBlock: OJICUG_clean_sbu_0, # of connection points: 6
#     Node 11, Type 0, BuildingBlock: OJICUG_clean_sbu_0, # of connection points: 6
#     Node 12, Type 0, BuildingBlock: OJICUG_clean_sbu_0, # of connection points: 6
#     Node 13, Type 0, BuildingBlock: OJICUG_clean_sbu_0, # of connection points: 6
#     Node 14, Type 0, BuildingBlock: OJICUG_clean_sbu_0, # of connection points: 6
#     Node 15, Type 0, BuildingBlock: OJICUG_clean_sbu_0, # of connection points: 6
#     Node 16, Type 0, BuildingBlock: OJICUG_clean_sbu_0, # of connection points: 6
#     Node 17, Type 0, BuildingBlock: OJICUG_clean_sbu_0, # of connection points: 6
#     Edge 18, Type (0, 0), BuildingBlock: UVAHIK_clean_linker_0, # of connection points: 2
#     Edge 19, Type (0, 0), BuildingBlock: UVAHIK_clean_linker_0, # of connection points: 2
#     Edge 20, Type (0, 0), BuildingBlock: UVAHIK_clean_linker_0, # of connection points: 2
#     Edge 21, Type (0, 0), BuildingBlock: UVAHIK_clean_linker_0, # of connection points: 2
#     Edge 22, Type (0, 0), BuildingBlock: UVAHIK_clean_linker_0, # of connection points: 2
#     Edge 23, Type (0, 0), BuildingBlock: UVAHIK_clean_linker_0, # of connection points: 2
#     Edge 24, Type (0, 0), BuildingBlock: UVAHIK_clean_linker_0, # of connection points: 2
#     Edge 25, Type (0, 0), BuildingBlock: UVAHIK_clean_linker_0, # of connection points: 2
#     Edge 26, Type (0, 0), BuildingBlock: UVAHIK_clean_linker_0, # of connection points: 2
#     Edge 27, Type (0, 0), BuildingBlock: UVAHIK_clean_linker_0, # of connection points: 2
#     Edge 28, Type (0, 0), BuildingBlock: UVAHIK_clean_linker_0, # of connection points: 2
#     Edge 29, Type (0, 0), BuildingBlock: UVAHIK_clean_linker_0, # of connection points: 2
#     Edge 30, Type (0, 0), BuildingBlock: UVAHIK_clean_linker_0, # of connection points: 2
#     Edge 31, Type (0, 0), BuildingBlock: UVAHIK_clean_linker_0, # of connection points: 2
#     Edge 32, Type (0, 0), BuildingBlock: UVAHIK_clean_linker_0, # of connection points: 2
#     Edge 33, Type (0, 0), BuildingBlock: UVAHIK_clean_linker_0, # of connection points: 2
#     Edge 34, Type (0, 0), BuildingBlock: UVAHIK_clean_linker_0, # of connection points: 2
#     Edge 35, Type (0, 0), BuildingBlock: UVAHIK_clean_linker_0, # of connection points: 2
#     Edge 36, Type (0, 0), BuildingBlock: UVAHIK_clean_linker_0, # of connection points: 2
#     Edge 37, Type (0, 0), BuildingBlock: UVAHIK_clean_linker_0, # of connection points: 2
#     Edge 38, Type (0, 0), BuildingBlock: UVAHIK_clean_linker_0, # of connection points: 2
#     Edge 39, Type (0, 0), BuildingBlock: UVAHIK_clean_linker_0, # of connection points: 2
#     Edge 40, Type (0, 0), BuildingBlock: UVAHIK_clean_linker_0, # of connection points: 2
#     Edge 41, Type (0, 0), BuildingBlock: UVAHIK_clean_linker_0, # of connection points: 2
#     Edge 42, Type (0, 0), BuildingBlock: UVAHIK_clean_linker_0, # of connection points: 2
#     Edge 43, Type (0, 0), BuildingBlock: UVAHIK_clean_linker_0, # of connection points: 2
#     Edge 44, Type (0, 0), BuildingBlock: UVAHIK_clean_linker_0, # of connection points: 2
#     Edge 45, Type (0, 0), BuildingBlock: UVAHIK_clean_linker_0, # of connection points: 2
#     Edge 46, Type (0, 0), BuildingBlock: UVAHIK_clean_linker_0, # of connection points: 2
#     Edge 47, Type (0, 0), BuildingBlock: UVAHIK_clean_linker_0, # of connection points: 2
#     Edge 48, Type (0, 0), BuildingBlock: UVAHIK_clean_linker_0, # of connection points: 2
#     Edge 49, Type (0, 0), BuildingBlock: UVAHIK_clean_linker_0, # of connection points: 2
#     Edge 50, Type (0, 0), BuildingBlock: UVAHIK_clean_linker_0, # of connection points: 2
#     Edge 51, Type (0, 0), BuildingBlock: UVAHIK_clean_linker_0, # of connection points: 2
#     Edge 52, Type (0, 0), BuildingBlock: UVAHIK_clean_linker_0, # of connection points: 2
#     Edge 53, Type (0, 0), BuildingBlock: UVAHIK_clean_linker_0, # of connection points: 2
#     Edge 54, Type (0, 0), BuildingBlock: UVAHIK_clean_linker_0, # of connection points: 2
#     Edge 55, Type (0, 0), BuildingBlock: UVAHIK_clean_linker_0, # of connection points: 2
#     Edge 56, Type (0, 0), BuildingBlock: UVAHIK_clean_linker_0, # of connection points: 2
#     Edge 57, Type (0, 0), BuildingBlock: UVAHIK_clean_linker_0, # of connection points: 2
#     Edge 58, Type (0, 0), BuildingBlock: UVAHIK_clean_linker_0, # of connection points: 2
#     Edge 59, Type (0, 0), BuildingBlock: UVAHIK_clean_linker_0, # of connection points: 2
#     Edge 60, Type (0, 0), BuildingBlock: UVAHIK_clean_linker_0, # of connection points: 2
#     Edge 61, Type (0, 0), BuildingBlock: UVAHIK_clean_linker_0, # of connection points: 2
#     Edge 62, Type (0, 0), BuildingBlock: UVAHIK_clean_linker_0, # of connection points: 2
#     Edge 63, Type (0, 0), BuildingBlock: UVAHIK_clean_linker_0, # of connection points: 2
#     Edge 64, Type (0, 0), BuildingBlock: UVAHIK_clean_linker_0, # of connection points: 2
#     Edge 65, Type (0, 0), BuildingBlock: UVAHIK_clean_linker_0, # of connection points: 2
#     Edge 66, Type (0, 0), BuildingBlock: UVAHIK_clean_linker_0, # of connection points: 2
#     Edge 67, Type (0, 0), BuildingBlock: UVAHIK_clean_linker_0, # of connection points: 2
#     Edge 68, Type (0, 0), BuildingBlock: UVAHIK_clean_linker_0, # of connection points: 2
#     Edge 69, Type (0, 0), BuildingBlock: UVAHIK_clean_linker_0, # of connection points: 2
#     Edge 70, Type (0, 0), BuildingBlock: UVAHIK_clean_linker_0, # of connection points: 2
#     Edge 71, Type (0, 0), BuildingBlock: UVAHIK_clean_linker_0, # of connection points: 2
# Relax obj value: 0.210
# Max RMSD: 0.238
# Mean RMSD: 0.238
data_MOF--net-smg--node1-OJICUG_clean_sbu_0--edge1-UVAHIK_clean_linker_0
_symmetry_space_group_name_H-M    P1
_symmetry_Int_Tables_number       1
_symmetry_cell_setting            triclinic
loop_
_symmetry_equiv_pos_as_xyz
'x, y, z'
_cell_length_a     57.320829
_cell_length_b     57.430182
_cell_length_c     57.300297
_cell_angle_alpha  90.024044
_cell_angle_beta   90.075276
_cell_angle_gamma 120.004
loop_
_atom_site_label
_atom_site_type_symbol
_atom_site_fract_x
_atom_site_fract_y
_atom_site_fract_z
_atom_type_partial_charge
Sc0 Sc 0.99062 0.61339 0.24695 0.0
Sc1 Sc 0.96084 0.55336 0.21427 0.0
Sc2 Sc 0.01905 0.57175 0.24819 0.0
O3 O 0.99017 0.57954 0.23641 0.0
C4 C 0.0531 0.63405 0.23802 0.0
C5 C 0.97394 0.6102 0.19361 0.0
C6 C 0.01234 0.55259 0.19506 0.0
C7 C 0.92785 0.56988 0.24802 0.0
C8 C 0.0081 0.59692 0.2936 0.0
C9 C 0.96565 0.51484 0.25176 0.0
O10 O 0.03336 0.63785 0.24169 0.0
O11 O 0.96381 0.58488 0.19211 0.0
O12 O 0.02405 0.55809 0.21476 0.0
O13 O 0.94816 0.5922 0.25373 0.0
O14 O 0.01865 0.5849 0.28327 0.0
O15 O 0.95402 0.51896 0.23464 0.0
O16 O -0.00403 0.60709 0.28289 0.0
O17 O 0.92889 0.55337 0.23393 0.0
O18 O 0.98898 0.53221 0.25893 0.0
O19 O 0.98514 0.62353 0.21199 0.0
O20 O 0.05103 0.61096 0.23856 0.0
O21 O 0.98962 0.55089 0.19183 0.0
Sc22 Sc 0.45416 0.42039 0.24651 0.0
Sc23 Sc 0.41321 0.43819 0.27942 0.0
Sc24 Sc 0.38417 0.37635 0.24963 0.0
O25 O 0.41725 0.41164 0.25859 0.0
C26 C 0.41687 0.39364 0.20191 0.0
C27 C 0.45585 0.47676 0.24201 0.0
C28 C 0.36135 0.41671 0.24674 0.0
C29 C 0.46806 0.44303 0.29846 0.0
C30 C 0.42768 0.35785 0.25682 0.0
C31 C 0.37366 0.38189 0.30339 0.0
O32 O 0.43969 0.40818 0.21148 0.0
O33 O 0.43757 0.47147 0.25699 0.0
O34 O 0.36096 0.39499 0.24188 0.0
O35 O 0.47281 0.43386 0.28001 0.0
O36 O 0.4038 0.35369 0.25552 0.0
O37 O 0.38849 0.40733 0.30378 0.0
O38 O 0.44835 0.38106 0.25466 0.0
O39 O 0.44752 0.44586 0.30073 0.0
O40 O 0.36981 0.36786 0.2851 0.0
O41 O 0.46408 0.46053 0.23683 0.0
O42 O 0.39512 0.38115 0.21344 0.0
O43 O 0.37864 0.4343 0.26045 0.0
Sc44 Sc 0.57476 0.01752 0.21761 0.0
Sc45 Sc 0.55239 0.96947 0.26273 0.0
Sc46 Sc 0.61675 0.99413 0.23844 0.0
O47 O 0.58121 0.99366 0.23962 0.0
C48 C 0.60386 0.99408 0.18511 0.0
C49 C 0.51829 0.96307 0.21655 0.0
C50 C 0.57572 0.93202 0.24907 0.0
C51 C 0.54862 0.02291 0.26489 0.0
C52 C 0.63576 0.056 0.22935 0.0
C53 C 0.60719 0.99424 0.29263 0.0
O54 O 0.59186 0.00744 0.18839 0.0
O55 O 0.52047 0.95553 0.23694 0.0
O56 O 0.59883 0.95178 0.24448 0.0
O57 O 0.55726 0.03037 0.24428 0.0
O58 O 0.64025 0.03668 0.23223 0.0
O59 O 0.58159 0.98088 0.29072 0.0
O60 O 0.61242 0.05266 0.22602 0.0
O61 O 0.54619 0.00163 0.27396 0.0
O62 O 0.62291 0.00209 0.27512 0.0
O63 O 0.53647 0.98469 0.20734 0.0
O64 O 0.61269 0.98596 0.20172 0.0
O65 O 0.55567 0.93475 0.25411 0.0
Sc66 Sc 0.97329 0.36358 0.74734 0.0
Sc67 Sc 0.0136 0.43051 0.76427 0.0
Sc68 Sc 0.95332 0.41045 0.73452 0.0
O69 O 0.98002 0.40144 0.74881 0.0
C70 C 0.95287 0.36825 0.6979 0.0
C71 C 0.03678 0.39886 0.73773 0.0
C72 C 0.00822 0.45951 0.71902 0.0
C73 C -0.00232 0.37988 0.79747 0.0
C74 C 0.91485 0.35564 0.75834 0.0
C75 C 0.97106 0.44555 0.78129 0.0
O76 O 0.96682 0.36156 0.71045 0.0
O77 O 0.03898 0.42128 0.74339 0.0
O78 O 0.9846 0.44108 0.71363 0.0
O79 O 0.97955 0.36256 0.78418 0.0
O80 O 0.92096 0.37985 0.75462 0.0
O81 O 0.99022 0.44131 0.78626 0.0
O82 O 0.93077 0.34668 0.75417 0.0
O83 O 0.01267 0.40435 0.79164 0.0
O84 O 0.95862 0.43876 0.76185 0.0
O85 O 0.01509 0.37647 0.74032 0.0
O86 O 0.94406 0.3833 0.70528 0.0
O87 O 0.01926 0.4603 0.7385 0.0
Sc88 Sc 0.55073 0.59078 0.74011 0.0
Sc89 Sc 0.59419 0.57284 0.71158 0.0
Sc90 Sc 0.61926 0.63863 0.73272 0.0
O91 O 0.58802 0.60072 0.72813 0.0
C92 C 0.57137 0.64865 0.71818 0.0
C93 C 0.53646 0.55866 0.69192 0.0
C94 C 0.63032 0.62501 0.68141 0.0
C95 C 0.55566 0.5394 0.75358 0.0
C96 C 0.58778 0.62939 0.78062 0.0
C97 C 0.647 0.60375 0.74334 0.0
O98 O 0.55231 0.62603 0.725 0.0
O99 O 0.55836 0.55821 0.69054 0.0
O100 O 0.63384 0.64124 0.69786 0.0
O101 O 0.54583 0.55478 0.75643 0.0
O102 O 0.60874 0.64119 0.76808 0.0
O103 O 0.63079 0.58393 0.73076 0.0
O104 O 0.56544 0.61071 0.77296 0.0
O105 O 0.57288 0.54319 0.73792 0.0
O106 O 0.64501 0.62464 0.74607 0.0
O107 O 0.53115 0.56957 0.70879 0.0
O108 O 0.59614 0.65572 0.71972 0.0
O109 O 0.61607 0.59967 0.68357 0.0
Sc110 Sc 0.42476 0.97184 0.77285 0.0
Sc111 Sc 0.45614 0.03459 0.744 0.0
Sc112 Sc 0.3856 0.99537 0.74509 0.0
O113 O 0.42218 0.00059 0.75398 0.0
C114 C 0.37528 0.93587 0.73935 0.0
C115 C 0.47143 0.98857 0.73586 0.0
C116 C 0.41941 0.01983 0.69868 0.0
C117 C 0.47192 0.02653 0.79511 0.0
C118 C 0.37757 0.97605 0.79807 0.0
C119 C 0.41778 0.05812 0.75611 0.0
O120 O 0.39361 0.93841 0.75333 0.0
O121 O 0.47514 0.01218 0.73323 0.0
O122 O 0.39727 0.006 0.70941 0.0
O123 O 0.4562 0.00119 0.79517 0.0
O124 O 0.37082 0.98449 0.78022 0.0
O125 O 0.44104 0.06092 0.75348 0.0
O126 O 0.39641 0.97045 0.79787 0.0
O127 O 0.47355 0.04132 0.77806 0.0
O128 O 0.39628 0.03571 0.75369 0.0
O129 O 0.45346 0.9712 0.74919 0.0
O130 O 0.37056 0.95469 0.73482 0.0
O131 O 0.44215 0.03158 0.70885 0.0
Sc132 Sc 0.70118 0.98318 0.57359 0.0
Sc133 Sc 0.6639 0.91683 0.55326 0.0
Sc134 Sc 0.72109 0.93613 0.58848 0.0
O135 O 0.69543 0.9454 0.57177 0.0
C136 C 0.76131 0.99382 0.56848 0.0
C137 C 0.68337 0.96871 0.52091 0.0
C138 C 0.7106 0.90496 0.53994 0.0
C139 C 0.63727 0.94689 0.57817 0.0
C140 C 0.71528 0.97488 0.62523 0.0
C141 C 0.6645 0.88421 0.59819 0.0
O142 O 0.74389 0.00134 0.5689 0.0
O143 O 0.66958 0.94365 0.52495 0.0
O144 O 0.72259 0.9131 0.55945 0.0
O145 O 0.65922 0.96921 0.57878 0.0
O146 O 0.72318 0.95856 0.61944 0.0
O147 O 0.65421 0.88662 0.57936 0.0
O148 O 0.70539 0.98437 0.6108 0.0
O149 O 0.63562 0.92536 0.57049 0.0
O150 O 0.68836 0.90109 0.60464 0.0
O151 O 0.69721 0.98589 0.53649 0.0
O152 O 0.75602 0.97017 0.57367 0.0
O153 O 0.68959 0.90596 0.53461 0.0
Sc154 Sc 0.06161 0.69163 0.57979 0.0
Sc155 Sc 0.12763 0.73466 0.5595 0.0
Sc156 Sc 0.09547 0.75984 0.59574 0.0
O157 O 0.09495 0.72868 0.57835 0.0
C158 C 0.03645 0.72994 0.57391 0.0
C159 C 0.07911 0.69468 0.52669 0.0
C160 C 0.12573 0.78806 0.54852 0.0
C161 C 0.10899 0.67786 0.58246 0.0
C162 C 0.06449 0.71168 0.63188 0.0
C163 C 0.15411 0.76891 0.60585 0.0
O164 O 0.03509 0.70718 0.57348 0.0
O165 O 0.10376 0.71196 0.53006 0.0
O166 O 0.1137 0.7872 0.56733 0.0
O167 O 0.08482 0.6723 0.58556 0.0
O168 O 0.07729 0.73638 0.62639 0.0
O169 O 0.15488 0.75728 0.58723 0.0
O170 O 0.05768 0.69293 0.61705 0.0
O171 O 0.12717 0.69969 0.57364 0.0
O172 O 0.13398 0.77136 0.6115 0.0
O173 O 0.06164 0.68597 0.54284 0.0
O174 O 0.05706 0.75115 0.58133 0.0
O175 O 0.13179 0.77029 0.543 0.0
Sc176 Sc 0.26616 0.29793 0.5821 0.0
Sc177 Sc 0.23814 0.33674 0.56388 0.0
Sc178 Sc 0.19895 0.27674 0.59531 0.0
O179 O 0.2343 0.30385 0.58041 0.0
C180 C 0.21782 0.23732 0.57819 0.0
C181 C 0.26636 0.3137 0.52961 0.0
C182 C 0.17911 0.29145 0.54856 0.0
C183 C 0.29667 0.36208 0.5841 0.0
C184 C 0.24397 0.28556 0.6332 0.0
C185 C 0.20333 0.33292 0.60854 0.0
O186 O 0.24241 0.25494 0.58064 0.0
O187 O 0.25753 0.3296 0.53453 0.0
O188 O 0.1752 0.27597 0.56578 0.0
O189 O 0.29595 0.33969 0.58388 0.0
O190 O 0.21949 0.27492 0.62653 0.0
O191 O 0.21875 0.34609 0.59168 0.0
O192 O 0.26394 0.29698 0.61937 0.0
O193 O 0.27617 0.36428 0.57985 0.0
O194 O 0.19496 0.30808 0.61195 0.0
O195 O 0.26922 0.29907 0.54475 0.0
O196 O 0.19888 0.24252 0.57994 0.0
O197 O 0.20074 0.31369 0.54579 0.0
Sc198 Sc 0.67703 0.77433 0.08661 0.0
Sc199 Sc 0.61282 0.7449 0.06053 0.0
Sc200 Sc 0.645 0.70694 0.06819 0.0
O201 O 0.64493 0.742 0.07177 0.0
C202 C 0.70481 0.75141 0.05325 0.0
C203 C 0.66132 0.80151 0.04566 0.0
C204 C 0.6171 0.70854 0.02078 0.0
C205 C 0.62769 0.776 0.10942 0.0
C206 C 0.67458 0.7266 0.11681 0.0
C207 C 0.58477 0.68729 0.08439 0.0
O208 O 0.70492 0.77117 0.06344 0.0
O209 O 0.63822 0.78138 0.04152 0.0
O210 O 0.63095 0.70144 0.03297 0.0
O211 O 0.65137 0.77946 0.11098 0.0
O212 O 0.65898 0.70775 0.10322 0.0
O213 O 0.58468 0.70859 0.07849 0.0
O214 O 0.68323 0.75121 0.11248 0.0
O215 O 0.61291 0.76608 0.09146 0.0
O216 O 0.60473 0.68377 0.08112 0.0
O217 O 0.676 0.80224 0.06254 0.0
O218 O 0.68526 0.72736 0.05448 0.0
O219 O 0.60863 0.72368 0.02849 0.0
Sc220 Sc 0.2238 0.92089 0.09685 0.0
Sc221 Sc 0.24746 0.88863 0.05983 0.0
Sc222 Sc 0.29224 0.95197 0.08255 0.0
O223 O 0.2544 0.92043 0.07977 0.0
C224 C 0.25743 0.98132 0.08241 0.0
C225 C 0.19721 0.89531 0.04767 0.0
C226 C 0.28766 0.93945 0.02906 0.0
C227 C 0.21032 0.86079 0.10419 0.0
C228 C 0.27218 0.94469 0.13411 0.0
C229 C 0.30303 0.90258 0.08159 0.0
O230 O 0.23462 0.96007 0.08372 0.0
O231 O 0.21517 0.88965 0.04185 0.0
O232 O 0.29508 0.95671 0.0454 0.0
O233 O 0.21049 0.8818 0.11138 0.0
O234 O 0.29067 0.94856 0.11975 0.0
O235 O 0.27913 0.88492 0.07631 0.0
O236 O 0.24814 0.93749 0.12788 0.0
O237 O 0.22095 0.85986 0.08501 0.0
O238 O 0.31109 0.92758 0.08173 0.0
O239 O 0.19637 0.90449 0.06766 0.0
O240 O 0.27956 0.98143 0.08413 0.0
O241 O 0.27336 0.91423 0.03251 0.0
Sc242 Sc 0.08309 0.32589 0.10886 0.0
Sc243 Sc 0.1156 0.3744 0.06482 0.0
Sc244 Sc 0.04886 0.35366 0.07986 0.0
O245 O 0.08264 0.35136 0.08459 0.0
C246 C 0.02352 0.29096 0.09049 0.0
C247 C 0.11479 0.31857 0.06645 0.0
C248 C 0.06672 0.3531 0.02821 0.0
C249 C 0.14157 0.37711 0.11493 0.0
C250 C 0.05281 0.35307 0.13457 0.0
C251 C 0.09463 0.41481 0.07142 0.0
O252 O 0.04523 0.29236 0.09742 0.0
O253 O 0.12007 0.34044 0.05648 0.0
O254 O 0.0482 0.34515 0.04346 0.0
O255 O 0.12098 0.35636 0.12288 0.0
O256 O 0.04752 0.36203 0.11621 0.0
O257 O 0.11441 0.41074 0.07114 0.0
O258 O 0.06364 0.33834 0.13418 0.0
O259 O 0.1429 0.38535 0.0941 0.0
O260 O 0.07033 0.39606 0.07296 0.0
O261 O 0.10275 0.3112 0.08598 0.0
O262 O 0.02196 0.31164 0.08547 0.0
O263 O 0.09173 0.36592 0.03332 0.0
Sc264 Sc 0.34274 0.30363 0.91803 0.0
Sc265 Sc 0.31022 0.23365 0.91001 0.0
Sc266 Sc 0.37769 0.26911 0.9298 0.0
O267 O 0.34354 0.26877 0.9193 0.0
C268 C 0.4006 0.32139 0.89768 0.0
C269 C 0.3086 0.27338 0.8726 0.0
C270 C 0.35813 0.22817 0.88718 0.0
C271 C 0.28554 0.26313 0.9398 0.0
C272 C 0.37713 0.3117 0.96443 0.0
C273 C 0.33158 0.21575 0.95378 0.0
O274 O 0.37939 0.32312 0.89852 0.0
O275 O 0.30327 0.2501 0.87898 0.0
O276 O 0.37619 0.24517 0.90069 0.0
O277 O 0.30585 0.28656 0.93744 0.0
O278 O 0.38268 0.29339 0.95983 0.0
O279 O 0.31302 0.21337 0.94022 0.0
O280 O 0.36386 0.31806 0.95063 0.0
O281 O 0.28374 0.24238 0.93009 0.0
O282 O 0.35605 0.23415 0.95175 0.0
O283 O 0.32193 0.29421 0.88509 0.0
O284 O 0.40357 0.30404 0.90907 0.0
O285 O 0.33336 0.22129 0.88888 0.0
Sc286 Sc 0.79075 0.0922 0.90617 0.0
Sc287 Sc 0.75084 0.10682 0.94271 0.0
Sc288 Sc 0.72232 0.04696 0.91102 0.0
O289 O 0.75466 0.08209 0.92008 0.0
C290 C 0.75037 0.06458 0.86307 0.0
C291 C 0.78936 0.14628 0.90309 0.0
C292 C 0.69634 0.08476 0.91614 0.0
C293 C 0.80678 0.1142 0.95833 0.0
C294 C 0.76859 0.03155 0.91404 0.0
C295 C 0.71334 0.04813 0.96455 0.0
O296 O 0.77349 0.07445 0.87261 0.0
O297 O 0.7767 0.14216 0.9223 0.0
O298 O 0.69496 0.0623 0.91241 0.0
O299 O 0.81287 0.11104 0.9377 0.0
O300 O 0.74505 0.02648 0.9084 0.0
O301 O 0.72384 0.07364 0.96467 0.0
O302 O 0.78788 0.05523 0.91784 0.0
O303 O 0.78379 0.11083 0.96366 0.0
O304 O 0.71392 0.03493 0.94694 0.0
O305 O 0.79471 0.12928 0.89395 0.0
O306 O 0.72896 0.0572 0.87474 0.0
O307 O 0.71727 0.10498 0.92426 0.0
Sc308 Sc 0.92626 0.71216 0.88639 0.0
Sc309 Sc 0.89785 0.65772 0.92593 0.0
Sc310 Sc 0.96763 0.69258 0.91591 0.0
O311 O 0.93055 0.68751 0.90939 0.0
C312 C 0.96835 0.69997 0.86073 0.0
C313 C 0.87338 0.65614 0.87549 0.0
C314 C 0.93084 0.62845 0.91385 0.0
C315 C 0.88762 0.70746 0.92836 0.0
C316 C 0.98091 0.75327 0.91169 0.0
C317 C 0.94225 0.67924 0.96651 0.0
O318 O 0.95066 0.70718 0.86061 0.0
O319 O 0.87281 0.6459 0.89525 0.0
O320 O 0.95333 0.65024 0.91416 0.0
O321 O 0.90135 0.71902 0.91023 0.0
O322 O 0.98614 0.73536 0.91845 0.0
O323 O 0.91825 0.66552 0.95899 0.0
O324 O 0.96016 0.74829 0.89995 0.0
O325 O 0.88469 0.6854 0.9362 0.0
O326 O 0.96243 0.69129 0.95308 0.0
O327 O 0.89171 0.67959 0.86975 0.0
O328 O 0.97658 0.69432 0.87933 0.0
O329 O 0.90847 0.62766 0.91696 0.0
Sc330 Sc 0.35131 0.04805 0.4168 0.0
Sc331 Sc 0.3721 0.11476 0.43058 0.0
Sc332 Sc 0.31346 0.07688 0.39793 0.0
O333 O 0.34557 0.07976 0.41512 0.0
C334 C 0.3292 0.04145 0.36572 0.0
C335 C 0.41064 0.09768 0.40739 0.0
C336 C 0.35878 0.13411 0.38319 0.0
C337 C 0.3708 0.0719 0.46661 0.0
C338 C 0.28771 0.02189 0.42472 0.0
C339 C 0.31723 0.11046 0.44359 0.0
O340 O 0.34577 0.04079 0.38 0.0
O341 O 0.40512 0.11614 0.41162 0.0
O342 O 0.33965 0.11121 0.37705 0.0
O343 O 0.35716 0.05171 0.45361 0.0
O344 O 0.28582 0.04178 0.41735 0.0
O345 O 0.34013 0.11443 0.45016 0.0
O346 O 0.30935 0.02082 0.42378 0.0
O347 O 0.37969 0.09592 0.45984 0.0
O348 O 0.30727 0.10101 0.42358 0.0
O349 O 0.39399 0.07276 0.41048 0.0
O350 O 0.31493 0.05204 0.37057 0.0
O351 O 0.36889 0.13904 0.40356 0.0
Sc352 Sc 0.86737 0.25011 0.41644 0.0
Sc353 Sc 0.91068 0.23857 0.38102 0.0
Sc354 Sc 0.93506 0.30053 0.40963 0.0
O355 O 0.90438 0.26307 0.40235 0.0
C356 C 0.88459 0.30959 0.40284 0.0
C357 C 0.85249 0.2253 0.36499 0.0
C358 C 0.94336 0.29566 0.3556 0.0
C359 C 0.87513 0.19939 0.42209 0.0
C360 C 0.90662 0.28339 0.45864 0.0
C361 C 0.96509 0.26634 0.40986 0.0
O362 O 0.86646 0.28501 0.40436 0.0
O363 O 0.87549 0.2282 0.3608 0.0
O364 O 0.94523 0.30962 0.37346 0.0
O365 O 0.86617 0.21438 0.42938 0.0
O366 O 0.92782 0.29487 0.44635 0.0
O367 O 0.94668 0.24637 0.39894 0.0
O368 O 0.8833 0.26845 0.45003 0.0
O369 O 0.88954 0.20456 0.40387 0.0
O370 O 0.96422 0.28764 0.41396 0.0
O371 O 0.84614 0.23049 0.38477 0.0
O372 O 0.9095 0.31789 0.40612 0.0
O373 O 0.93255 0.27018 0.35611 0.0
Sc374 Sc 0.76358 0.66227 0.42333 0.0
Sc375 Sc 0.79966 0.71571 0.38414 0.0
Sc376 Sc 0.73425 0.69857 0.40096 0.0
O377 O 0.76587 0.69215 0.40288 0.0
C378 C 0.70335 0.6345 0.40507 0.0
C379 C 0.79073 0.65687 0.37673 0.0
C380 C 0.75218 0.70524 0.34864 0.0
C381 C 0.82462 0.70767 0.43123 0.0
C382 C 0.73855 0.69026 0.45491 0.0
C383 C 0.78449 0.75859 0.39984 0.0
O384 O 0.72361 0.6329 0.41179 0.0
O385 O 0.79871 0.68068 0.36964 0.0
O386 O 0.73347 0.69585 0.36372 0.0
O387 O 0.8028 0.6875 0.43794 0.0
O388 O 0.7328 0.70129 0.43834 0.0
O389 O 0.8027 0.75238 0.39722 0.0
O390 O 0.7482 0.67478 0.45182 0.0
O391 O 0.82692 0.7191 0.41171 0.0
O392 O 0.75949 0.74146 0.39961 0.0
O393 O 0.77923 0.64783 0.39629 0.0
O394 O 0.70441 0.65681 0.40162 0.0
O395 O 0.77697 0.7155 0.35395 0.0
C396 C 0.11511 0.46032 0.08909 0.0
C397 C 0.09937 0.44234 0.07151 0.0
C398 C 0.11272 0.48292 0.09381 0.0
C399 C 0.05737 0.49637 0.0907 0.0
H400 H 0.10601 0.5591 0.12698 0.0
C401 C 0.01572 0.54502 0.15232 0.0
C402 C 0.02628 0.54863 0.17504 0.0
C403 C 0.0288 0.54074 0.13365 0.0
C404 C 0.09222 0.54175 0.11673 0.0
H405 H 0.07183 0.43527 0.04298 0.0
H406 H 0.06863 0.4754 0.05039 0.0
H407 H 0.12419 0.53698 0.1026 0.0
H408 H 0.05948 0.55166 0.19575 0.0
H409 H 0.08164 0.54339 0.16348 0.0
H410 H 0.02534 0.49993 0.10578 0.0
C411 C 0.08198 0.47171 0.06116 0.0
C412 C 0.10263 0.52914 0.10276 0.0
C413 C 0.0839 0.44885 0.05683 0.0
C414 C 0.05064 0.54877 0.17853 0.0
C415 C 0.06361 0.54441 0.15992 0.0
C416 C 0.04702 0.50893 0.1046 0.0
C417 C 0.0948 0.48787 0.08075 0.0
C418 C 0.08519 0.50557 0.09042 0.0
C419 C 0.05262 0.53989 0.13734 0.0
C420 C 0.06421 0.53099 0.1186 0.0
H421 H 0.12709 0.45551 0.10065 0.0
H422 H 0.12286 0.49486 0.10907 0.0
H423 H 0.0432 0.47805 0.08176 0.0
H424 H -0.00278 0.5452 0.14896 0.0
H425 H 0.01996 0.53755 0.1164 0.0
C426 C 0.49095 0.51171 0.21622 0.0
C427 C 0.46719 0.50243 0.22922 0.0
C428 C 0.50075 0.53503 0.20292 0.0
C429 C 0.47878 0.57487 0.1708 0.0
H430 H 0.55551 0.62553 0.16761 0.0
C431 C 0.54784 0.67379 0.11359 0.0
C432 C 0.56207 0.6666 0.09792 0.0
C433 C 0.53109 0.65542 0.13045 0.0
C434 C 0.53399 0.61175 0.16864 0.0
H435 H 0.43527 0.51057 0.23875 0.0
H436 H 0.45244 0.55133 0.21517 0.0
H437 H 0.53807 0.59117 0.19805 0.0
H438 H 0.56791 0.63405 0.08593 0.0
H439 H 0.53854 0.60208 0.11525 0.0
H440 H 0.47517 0.59493 0.14049 0.0
C441 C 0.46339 0.54048 0.21543 0.0
C442 C 0.52407 0.59208 0.18587 0.0
C443 C 0.45371 0.51726 0.22898 0.0
C444 C 0.55736 0.64015 0.09793 0.0
C445 C 0.54056 0.62187 0.11459 0.0
C446 C 0.4888 0.59461 0.15344 0.0
C447 C 0.48691 0.54944 0.20219 0.0
C448 C 0.49652 0.57292 0.18663 0.0
C449 C 0.52824 0.62975 0.13146 0.0
C450 C 0.51653 0.61261 0.15197 0.0
H451 H 0.50182 0.50078 0.21606 0.0
H452 H 0.51877 0.54134 0.19261 0.0
H453 H 0.45747 0.56019 0.17097 0.0
H454 H 0.55127 0.69412 0.11401 0.0
H455 H 0.52182 0.66178 0.14354 0.0
C456 C 0.47161 0.92303 0.21189 0.0
C457 C 0.49403 0.94579 0.20237 0.0
C458 C 0.44879 0.90724 0.19813 0.0
C459 C 0.42535 0.89468 0.13632 0.0
H460 H 0.35792 0.88375 0.16161 0.0
C461 C 0.31286 0.872 0.10529 0.0
C462 C 0.32183 0.89409 0.09016 0.0
C463 C 0.3315 0.86762 0.11747 0.0
C464 C 0.37637 0.88589 0.15442 0.0
H465 H 0.51026 0.96925 0.17071 0.0
H466 H 0.47076 0.94225 0.14715 0.0
H467 H 0.39617 0.89658 0.1876 0.0
H468 H 0.35686 0.92746 0.0743 0.0
H469 H 0.38931 0.91943 0.09498 0.0
H470 H 0.40611 0.88617 0.10285 0.0
C471 C 0.47077 0.93624 0.16507 0.0
C472 C 0.3983 0.89327 0.16931 0.0
C473 C 0.49336 0.952 0.17874 0.0
C474 C 0.34949 0.91033 0.08591 0.0
C475 C 0.36803 0.90561 0.09764 0.0
C476 C 0.40351 0.88753 0.12143 0.0
C477 C 0.44815 0.91379 0.17458 0.0
C478 C 0.42341 0.89913 0.1602 0.0
C479 C 0.35926 0.88488 0.1142 0.0
C480 C 0.37926 0.88438 0.13021 0.0
H481 H 0.47152 0.9176 0.23 0.0
H482 H 0.43162 0.89004 0.20593 0.0
H483 H 0.44429 0.89843 0.12889 0.0
H484 H 0.29159 0.85931 0.10896 0.0
H485 H 0.3243 0.85154 0.13018 0.0
C486 C 0.44865 0.12537 0.38023 0.0
C487 C 0.43679 0.10482 0.39695 0.0
C488 C 0.47042 0.12829 0.36695 0.0
C489 C 0.52022 0.10521 0.36132 0.0
H490 H 0.49812 0.09321 0.29637 0.0
C491 C 0.53624 0.03456 0.30318 0.0
C492 C 0.54234 0.04038 0.27941 0.0
C493 C 0.53106 0.05128 0.31718 0.0
C494 C 0.5051 0.09723 0.31428 0.0
H495 H 0.43967 0.07298 0.41455 0.0
H496 H 0.4777 0.07823 0.39174 0.0
H497 H 0.47672 0.10957 0.32329 0.0
H498 H 0.54807 0.06863 0.25177 0.0
H499 H 0.53861 0.09772 0.27634 0.0
H500 H 0.54742 0.09126 0.35257 0.0
C501 C 0.47032 0.09204 0.38869 0.0
C502 C 0.49289 0.1067 0.32971 0.0
C503 C 0.44837 0.08884 0.40161 0.0
C504 C 0.54329 0.06347 0.27 0.0
C505 C 0.53794 0.08018 0.28403 0.0
C506 C 0.53245 0.0958 0.3459 0.0
C507 C 0.48087 0.11105 0.37061 0.0
C508 C 0.49935 0.1094 0.35359 0.0
C509 C 0.53179 0.07423 0.30777 0.0
C510 C 0.52397 0.09037 0.32251 0.0
H511 H 0.43997 0.13791 0.3763 0.0
H512 H 0.47825 0.14311 0.35312 0.0
H513 H 0.52581 0.1075 0.3796 0.0
H514 H 0.53543 0.01704 0.31108 0.0
H515 H 0.52579 0.04582 0.33529 0.0
C516 C 0.92423 0.46999 0.25863 0.0
C517 C 0.94988 0.49036 0.26594 0.0
C518 C 0.90777 0.449 0.27372 0.0
C519 C 0.8966 0.43357 0.33603 0.0
H520 H 0.87102 0.35939 0.31888 0.0
C521 C 0.89466 0.35665 0.39756 0.0
C522 C 0.87739 0.3291 0.39359 0.0
C523 C 0.89263 0.37561 0.38392 0.0
C524 C 0.87715 0.37987 0.32383 0.0
H525 H 0.97862 0.50403 0.2946 0.0
H526 H 0.94996 0.46755 0.3207 0.0
H527 H 0.89005 0.39424 0.28906 0.0
H528 H 0.84252 0.29973 0.37412 0.0
H529 H 0.83905 0.33304 0.3501 0.0
H530 H 0.885 0.41949 0.37098 0.0
C531 C 0.9425 0.46805 0.30342 0.0
C532 C 0.88822 0.39981 0.30674 0.0
C533 C 0.95904 0.48874 0.28832 0.0
C534 C 0.85618 0.32088 0.37748 0.0
C535 C 0.85429 0.33991 0.36364 0.0
C536 C 0.88537 0.41365 0.35306 0.0
C537 C 0.91655 0.44833 0.29644 0.0
C538 C 0.8993 0.42692 0.31299 0.0
C539 C 0.87339 0.36737 0.36594 0.0
C540 C 0.87692 0.38679 0.34737 0.0
H541 H 0.91657 0.47063 0.24149 0.0
H542 H 0.88791 0.43379 0.26792 0.0
H543 H 0.90456 0.45437 0.34111 0.0
H544 H 0.91101 0.36353 0.41005 0.0
H545 H 0.90778 0.39657 0.38611 0.0
C546 C 0.51462 0.45748 0.31253 0.0
C547 C 0.4886 0.45292 0.31723 0.0
C548 C 0.53527 0.47043 0.32883 0.0
C549 C 0.55355 0.51887 0.37691 0.0
H550 H 0.61882 0.51439 0.37551 0.0
C551 C 0.67313 0.58417 0.40713 0.0
C552 C 0.67731 0.60964 0.40078 0.0
C553 C 0.64828 0.56098 0.40283 0.0
C554 C 0.60063 0.51567 0.37657 0.0
H555 H 0.46329 0.45619 0.34361 0.0
H556 H 0.49921 0.47806 0.37246 0.0
H557 H 0.57747 0.47818 0.35877 0.0
H558 H 0.65861 0.63057 0.38478 0.0
H559 H 0.61608 0.59058 0.37683 0.0
H560 H 0.5766 0.5562 0.39482 0.0
C561 C 0.50388 0.47247 0.3558 0.0
C562 C 0.57696 0.49505 0.36666 0.0
C563 C 0.48324 0.45983 0.3393 0.0
C564 C 0.65613 0.61138 0.39012 0.0
C565 C 0.63152 0.58835 0.38575 0.0
C566 C 0.57705 0.53922 0.3871 0.0
C567 C 0.5304 0.47884 0.35043 0.0
C568 C 0.55347 0.49706 0.36568 0.0
C569 C 0.62719 0.56286 0.39207 0.0
C570 C 0.6012 0.53854 0.38598 0.0
H571 H 0.5195 0.45239 0.29573 0.0
H572 H 0.55539 0.47524 0.3238 0.0
H573 H 0.53601 0.52131 0.37653 0.0
H574 H 0.689 0.58214 0.41544 0.0
H575 H 0.64557 0.54164 0.40797 0.0
C576 C 0.90695 0.57891 0.90466 0.0
C577 C 0.93103 0.60345 0.90785 0.0
C578 C 0.90754 0.55634 0.89618 0.0
C579 C 0.91459 0.52096 0.86075 0.0
H580 H 0.97615 0.51145 0.87116 0.0
C581 C 0.94936 0.47254 0.79189 0.0
C582 C 0.96273 0.45882 0.79882 0.0
C583 C 0.94189 0.48548 0.80838 0.0
C584 C 0.95847 0.5133 0.86827 0.0
H585 H 0.97469 0.62299 0.90577 0.0
H586 H 0.97562 0.58433 0.89053 0.0
H587 H 0.96893 0.54102 0.89655 0.0
H588 H 0.97777 0.44689 0.82854 0.0
H589 H 0.96392 0.46866 0.85745 0.0
H590 H 0.90385 0.49284 0.83273 0.0
C591 C 0.95624 0.58212 0.89491 0.0
C592 C 0.95455 0.53062 0.88268 0.0
C593 C 0.95567 0.6045 0.90347 0.0
C594 C 0.96786 0.45768 0.82265 0.0
C595 C 0.95995 0.47022 0.83921 0.0
C596 C 0.91827 0.50328 0.84656 0.0
C597 C 0.9322 0.55789 0.89066 0.0
C598 C 0.9332 0.53552 0.87851 0.0
C599 C 0.94717 0.4846 0.83227 0.0
C600 C 0.94085 0.50002 0.84955 0.0
H601 H 0.88763 0.57734 0.908 0.0
H602 H 0.88865 0.53786 0.89343 0.0
H603 H 0.89794 0.52423 0.85695 0.0
H604 H 0.94523 0.47385 0.77363 0.0
H605 H 0.93265 0.49681 0.80224 0.0
C606 C 0.55142 0.49494 0.76325 0.0
C607 C 0.54679 0.51606 0.76922 0.0
C608 C 0.54225 0.47247 0.77766 0.0
C609 C 0.5183 0.44733 0.83697 0.0
H610 H 0.47006 0.37971 0.80634 0.0
C611 C 0.44954 0.34904 0.88753 0.0
C612 C 0.42241 0.3401 0.88221 0.0
C613 C 0.47001 0.36818 0.87335 0.0
C614 C 0.48388 0.39836 0.81506 0.0
H615 H 0.52992 0.53065 0.79545 0.0
H616 H 0.51393 0.49139 0.82059 0.0
H617 H 0.49776 0.41966 0.78283 0.0
H618 H 0.39525 0.34285 0.85742 0.0
H619 H 0.43087 0.37575 0.83255 0.0
H620 H 0.5033 0.42622 0.86923 0.0
C621 C 0.52472 0.49231 0.80479 0.0
C622 C 0.49977 0.42115 0.80165 0.0
C623 C 0.53358 0.51462 0.79026 0.0
C624 C 0.41603 0.34963 0.86204 0.0
C625 C 0.43636 0.36822 0.84769 0.0
C626 C 0.50263 0.42443 0.85039 0.0
C627 C 0.52864 0.47089 0.79846 0.0
C628 C 0.51628 0.44604 0.81252 0.0
C629 C 0.4635 0.37797 0.8534 0.0
C630 C 0.48451 0.40007 0.8395 0.0
H631 H 0.5616 0.49547 0.74718 0.0
H632 H 0.5455 0.45618 0.77244 0.0
H633 H 0.53109 0.46629 0.8457 0.0
H634 H 0.45492 0.34195 0.90301 0.0
H635 H 0.49086 0.37556 0.87808 0.0
C636 C 0.4928 0.0237 0.83267 0.0
C637 C 0.49022 0.03939 0.81518 0.0
C638 C 0.51249 0.03577 0.84994 0.0
C639 C 0.57938 0.09404 0.85623 0.0
H640 H 0.57428 0.06327 0.9175 0.0
C641 C 0.67386 0.1115 0.90633 0.0
C642 C 0.67211 0.08673 0.91141 0.0
C643 C 0.65067 0.11249 0.90036 0.0
C644 C 0.57596 0.07236 0.90057 0.0
H645 H 0.50478 0.08031 0.8033 0.0
H646 H 0.53904 0.10127 0.8335 0.0
H647 H 0.53317 0.05235 0.89608 0.0
H648 H 0.64469 0.04394 0.91574 0.0
H649 H 0.60457 0.04567 0.90542 0.0
H650 H 0.62211 0.11277 0.86012 0.0
C651 C 0.52617 0.07962 0.83358 0.0
C652 C 0.55248 0.06604 0.88829 0.0
C653 C 0.50653 0.06756 0.81627 0.0
C654 C 0.64673 0.06328 0.91159 0.0
C655 C 0.62366 0.06432 0.90601 0.0
C656 C 0.60284 0.10041 0.86854 0.0
C657 C 0.52993 0.06379 0.85014 0.0
C658 C 0.55398 0.07572 0.8655 0.0
C659 C 0.62542 0.08881 0.89989 0.0
C660 C 0.60132 0.0885 0.89028 0.0
H661 H 0.48047 0.00199 0.83246 0.0
H662 H 0.51504 0.02294 0.86228 0.0
H663 H 0.58128 0.10173 0.83866 0.0
H664 H 0.69319 0.1299 0.90616 0.0
H665 H 0.65253 0.13161 0.89565 0.0
C666 C 0.59384 0.92205 0.60017 0.0
C667 C 0.61377 0.94586 0.58963 0.0
C668 C 0.57543 0.92283 0.61572 0.0
C669 C 0.57508 0.97005 0.65711 0.0
H670 H 0.49738 0.9251 0.65998 0.0
C671 C 0.51025 0.00041 0.70935 0.0
C672 C 0.48801 0.98076 0.7218 0.0
C673 C 0.52487 0.99311 0.6947 0.0
C674 C 0.51913 0.93745 0.65961 0.0
H675 H 0.62824 0.98844 0.58506 0.0
H676 H 0.59613 0.98968 0.61196 0.0
H677 H 0.52261 0.91722 0.62938 0.0
H678 H 0.46395 0.93798 0.72893 0.0
H679 H 0.48979 0.92526 0.70322 0.0
H680 H 0.5719 0.99044 0.68702 0.0
C681 C 0.59512 0.97062 0.60867 0.0
C682 C 0.53346 0.93301 0.64209 0.0
C683 C 0.61341 0.96987 0.59322 0.0
C684 C 0.48104 0.95362 0.71962 0.0
C685 C 0.49567 0.94629 0.7048 0.0
C686 C 0.56087 0.97437 0.67459 0.0
C687 C 0.57683 0.94741 0.62083 0.0
C688 C 0.56145 0.94985 0.64035 0.0
C689 C 0.51762 0.966 0.69212 0.0
C690 C 0.5327 0.95866 0.67562 0.0
H691 H 0.59367 0.90326 0.59772 0.0
H692 H 0.56136 0.90467 0.62487 0.0
H693 H 0.59678 0.98285 0.65645 0.0
H694 H 0.5162 0.02149 0.7106 0.0
H695 H 0.54147 0.00872 0.68489 0.0
C696 C 0.01894 0.47427 0.67758 0.0
C697 C 0.02434 0.48 0.70144 0.0
C698 C 0.03514 0.49303 0.66085 0.0
C699 C 0.09992 0.55762 0.65319 0.0
H700 H 0.06074 0.56728 0.60254 0.0
C701 C 0.12423 0.65747 0.61231 0.0
C702 C 0.11557 0.65743 0.58946 0.0
C703 C 0.12188 0.63399 0.62174 0.0
C704 C 0.07227 0.56449 0.61613 0.0
H705 H 0.05093 0.50973 0.72657 0.0
H706 H 0.07833 0.54307 0.69746 0.0
H707 H 0.03762 0.52889 0.62796 0.0
H708 H 0.10026 0.63443 0.55764 0.0
H709 H 0.09655 0.59335 0.57393 0.0
H710 H 0.13411 0.59465 0.64212 0.0
C711 C 0.06221 0.52376 0.69156 0.0
C712 C 0.05893 0.54241 0.63082 0.0
C713 C 0.04628 0.50481 0.70828 0.0
C714 C 0.10719 0.63473 0.5753 0.0
C715 C 0.10497 0.6113 0.58465 0.0
C716 C 0.11324 0.57997 0.63858 0.0
C717 C 0.05679 0.51813 0.66763 0.0
C718 C 0.07232 0.53916 0.65 0.0
C719 C 0.11064 0.61025 0.60838 0.0
C720 C 0.09926 0.58402 0.62037 0.0
H721 H 0.00249 0.45507 0.67179 0.0
H722 H 0.03065 0.48784 0.64258 0.0
H723 H 0.111 0.55535 0.6675 0.0
H724 H 0.13042 0.67483 0.6235 0.0
H725 H 0.12622 0.63376 0.64011 0.0
C726 C 0.32415 0.40923 0.59934 0.0
C727 C 0.32275 0.38628 0.58924 0.0
C728 C 0.34909 0.43105 0.60583 0.0
C729 C 0.41724 0.44506 0.62157 0.0
H730 H 0.43489 0.51962 0.62012 0.0
C731 C 0.51787 0.52772 0.65748 0.0
C732 C 0.51539 0.54444 0.674 0.0
C733 C 0.49641 0.51162 0.64264 0.0
C734 C 0.4302 0.49886 0.62056 0.0
H735 H 0.3463 0.36893 0.57635 0.0
H736 H 0.38959 0.40709 0.58695 0.0
H737 H 0.39276 0.485 0.60249 0.0
H738 H 0.48916 0.55887 0.68667 0.0
H739 H 0.45176 0.5306 0.66097 0.0
H740 H 0.45425 0.45867 0.63992 0.0
C741 C 0.37153 0.40797 0.59072 0.0
C742 C 0.40607 0.47906 0.61058 0.0
C743 C 0.34671 0.38612 0.58459 0.0
C744 C 0.49166 0.54599 0.67432 0.0
C745 C 0.47027 0.52997 0.65944 0.0
C746 C 0.44132 0.46479 0.63136 0.0
C747 C 0.37301 0.43038 0.60202 0.0
C748 C 0.39922 0.45189 0.61121 0.0
C749 C 0.47213 0.51203 0.64397 0.0
C750 C 0.44793 0.49184 0.63122 0.0
H751 H 0.30595 0.40987 0.60306 0.0
H752 H 0.34952 0.44794 0.61465 0.0
H753 H 0.41236 0.4243 0.62287 0.0
H754 H 0.53594 0.5262 0.6566 0.0
H755 H 0.49849 0.49821 0.63062 0.0
C756 C 0.80546 0.79777 0.42658 0.0
C757 C 0.79169 0.78621 0.40573 0.0
C758 C 0.80359 0.81891 0.43681 0.0
C759 C 0.75151 0.83716 0.43925 0.0
H760 H 0.79972 0.89178 0.48282 0.0
C761 C 0.71403 0.89194 0.4989 0.0
C762 C 0.72256 0.89525 0.52228 0.0
C763 C 0.72612 0.88388 0.48206 0.0
C764 C 0.78603 0.87653 0.47075 0.0
H765 H 0.76816 0.78933 0.37764 0.0
H766 H 0.76594 0.82701 0.39485 0.0
H767 H 0.81735 0.87083 0.45634 0.0
H768 H 0.7506 0.89274 0.54626 0.0
H769 H 0.77105 0.87788 0.51701 0.0
H770 H 0.72 0.84176 0.45416 0.0
C771 C 0.7774 0.81937 0.40376 0.0
C772 C 0.79616 0.86466 0.45553 0.0
C773 C 0.77888 0.79802 0.39379 0.0
C774 C 0.74351 0.89037 0.52841 0.0
C775 C 0.75547 0.88214 0.51158 0.0
C776 C 0.74142 0.8489 0.45444 0.0
C777 C 0.7881 0.82874 0.42613 0.0
C778 C 0.77889 0.84453 0.43988 0.0
C779 C 0.74687 0.87874 0.48822 0.0
C780 C 0.75842 0.86836 0.47066 0.0
H781 H 0.81518 0.78869 0.43616 0.0
H782 H 0.81204 0.82565 0.45406 0.0
H783 H 0.73746 0.82123 0.42786 0.0
H784 H 0.69822 0.89589 0.49351 0.0
H785 H 0.71925 0.88178 0.46415 0.0
C786 C 0.26875 0.98581 0.45446 0.0
C787 C 0.26436 -0.00056 0.43619 0.0
C788 C 0.2471 0.96438 0.46552 0.0
C789 C 0.1825 0.90872 0.45646 0.0
H790 H 0.17891 0.90703 0.52409 0.0
C791 C 0.14734 0.81373 0.51187 0.0
C792 C 0.13337 0.81114 0.53273 0.0
C793 C 0.15622 0.83661 0.498 0.0
C794 C 0.17917 0.90726 0.50519 0.0
H795 H 0.23404 0.00156 0.41511 0.0
H796 H 0.19576 0.9629 0.43417 0.0
H797 H 0.20822 0.94928 0.5042 0.0
H798 H 0.11631 0.82985 0.55456 0.0
H799 H 0.13204 0.86974 0.53043 0.0
H800 H 0.15472 0.86627 0.45754 0.0
C801 C 0.21608 0.96934 0.44 0.0
C802 C 0.19599 0.9314 0.49386 0.0
C803 C 0.23786 0.99133 0.4292 0.0
C804 C 0.12734 0.83131 0.53879 0.0
C805 C 0.13627 0.85416 0.52496 0.0
C806 C 0.16584 0.88441 0.46783 0.0
C807 C 0.22067 0.95586 0.45829 0.0
C808 C 0.19843 0.9321 0.4695 0.0
C809 C 0.15133 0.85732 0.50474 0.0
C810 C 0.16473 0.88336 0.49233 0.0
H811 H 0.28897 0.99182 0.46034 0.0
H812 H 0.25105 0.95406 0.47946 0.0
H813 H 0.1843 0.90887 0.43763 0.0
H814 H 0.15214 0.7985 0.50659 0.0
H815 H 0.16806 0.83867 0.48261 0.0
C816 C 0.01271 0.28758 0.42362 0.0
C817 C 0.98799 0.26427 0.41906 0.0
C818 C 0.03385 0.28568 0.43369 0.0
C819 C 0.0462 0.24588 0.47435 0.0
H820 H 0.11988 0.28646 0.45232 0.0
C821 C 0.13526 0.25747 0.53025 0.0
C822 C 0.15759 0.28365 0.53096 0.0
C823 C 0.1149 0.25058 0.51368 0.0
C824 C 0.09943 0.27508 0.45876 0.0
H825 H 0.96604 0.22068 0.42112 0.0
H826 H 0.00297 0.21752 0.43942 0.0
H827 H 0.08334 0.28309 0.42799 0.0
H828 H 0.17609 0.32308 0.51473 0.0
H829 H 0.14047 0.31141 0.48657 0.0
H830 H 0.06221 0.23932 0.50575 0.0
C831 C 0.00596 0.23713 0.43485 0.0
C832 C 0.07858 0.27306 0.44476 0.0
C833 C 0.98495 0.23898 0.42435 0.0
C834 C 0.15927 0.30267 0.51463 0.0
C835 C 0.1389 0.29588 0.49827 0.0
C836 C 0.0671 0.24823 0.48853 0.0
C837 C 0.03047 0.26049 0.43974 0.0
C838 C 0.05191 0.25904 0.45273 0.0
C839 C 0.11641 0.26981 0.49762 0.0
C840 C 0.09402 0.26357 0.48117 0.0
H841 H 0.01563 0.3073 0.41963 0.0
H842 H 0.05254 0.30399 0.43755 0.0
H843 H 0.02575 0.23511 0.48089 0.0
H844 H 0.1335 0.24228 0.54248 0.0
H845 H 0.09796 0.23025 0.51349 0.0
C846 C 0.06216 0.37519 0.72859 0.0
C847 C 0.06032 0.39865 0.72759 0.0
C848 C 0.08386 0.37449 0.71839 0.0
C849 C 0.13061 0.40218 0.67067 0.0
H850 H 0.1656 0.3677 0.70157 0.0
C851 C 0.19992 0.37325 0.62063 0.0
C852 C 0.19401 0.34669 0.62471 0.0
C853 C 0.18947 0.38533 0.63525 0.0
C854 C 0.15605 0.3774 0.6927 0.0
H855 H 0.07989 0.43989 0.71529 0.0
H856 H 0.11768 0.43837 0.69689 0.0
H857 H 0.13581 0.37833 0.72376 0.0
H858 H 0.17327 0.31241 0.64792 0.0
H859 H 0.15484 0.33317 0.67292 0.0
H860 H 0.1495 0.39981 0.63929 0.0
C861 C 0.10237 0.42069 0.70583 0.0
C862 C 0.1391 0.38354 0.70542 0.0
C863 C 0.08083 0.42154 0.71639 0.0
C864 C 0.17819 0.33286 0.64414 0.0
C865 C 0.16782 0.34489 0.65869 0.0
C866 C 0.1474 0.3958 0.65786 0.0
C867 C 0.104 0.39711 0.70672 0.0
C868 C 0.12555 0.39516 0.69434 0.0
C869 C 0.17303 0.37113 0.65428 0.0
C870 C 0.15953 0.38247 0.66858 0.0
H871 H 0.04676 0.35728 0.73719 0.0
H872 H 0.08446 0.35594 0.71905 0.0
H873 H 0.12027 0.41102 0.66172 0.0
H874 H 0.21215 0.38454 0.60589 0.0
H875 H 0.19401 0.40566 0.63152 0.0
C876 C 0.57104 0.67244 0.68268 0.0
C877 C 0.56506 0.66739 0.70644 0.0
C878 C 0.57167 0.69459 0.67217 0.0
C879 C 0.59031 0.76239 0.68821 0.0
H880 H 0.57685 0.76679 0.62249 0.0
C881 C 0.65877 0.85382 0.63183 0.0
C882 C 0.64753 0.86084 0.61323 0.0
C883 C 0.64264 0.83109 0.64533 0.0
C884 C 0.58035 0.76604 0.64098 0.0
H885 H 0.55376 0.68019 0.73784 0.0
H886 H 0.55493 0.7194 0.71942 0.0
H887 H 0.5553 0.72323 0.64177 0.0
H888 H 0.61023 0.85026 0.595 0.0
H889 H 0.58223 0.81089 0.61866 0.0
H890 H 0.61597 0.80513 0.68726 0.0
C891 C 0.55895 0.70614 0.70888 0.0
C892 C 0.56811 0.74103 0.65198 0.0
C893 C 0.55807 0.68371 0.71936 0.0
C894 C 0.61967 0.84519 0.60895 0.0
C895 C 0.60357 0.8226 0.62251 0.0
C896 C 0.60251 0.78743 0.67723 0.0
C897 C 0.56672 0.7123 0.68538 0.0
C898 C 0.57385 0.73884 0.67544 0.0
C899 C 0.61493 0.81503 0.64061 0.0
C900 C 0.59849 0.78938 0.65328 0.0
H901 H 0.57684 0.66017 0.67259 0.0
H902 H 0.57813 0.69895 0.65416 0.0
H903 H 0.59528 0.76137 0.70628 0.0
H904 H 0.68012 0.86547 0.63562 0.0
H905 H 0.65212 0.82559 0.65893 0.0
C906 C 0.17998 0.7959 0.6408 0.0
C907 C 0.17741 0.77911 0.62195 0.0
C908 C 0.20218 0.8056 0.65576 0.0
C909 C 0.2723 0.82033 0.65632 0.0
H910 H 0.26805 0.83614 0.72145 0.0
C911 C 0.34466 0.88597 0.73906 0.0
C912 C 0.35876 0.91039 0.72698 0.0
C913 C 0.32463 0.86309 0.72759 0.0
C914 C 0.26958 0.83129 0.70346 0.0
H915 H 0.19559 0.7584 0.60469 0.0
H916 H 0.23403 0.77507 0.63091 0.0
H917 H 0.22673 0.80829 0.69949 0.0
H918 H 0.36485 0.92993 0.69344 0.0
H919 H 0.33054 0.89024 0.6734 0.0
H920 H 0.31509 0.84395 0.6601 0.0
C921 C 0.2192 0.78119 0.63385 0.0
C922 C 0.2459 0.8157 0.69078 0.0
C923 C 0.19715 0.77166 0.6188 0.0
C924 C 0.35415 0.91123 0.70306 0.0
C925 C 0.33462 0.88844 0.69157 0.0
C926 C 0.29592 0.83582 0.66899 0.0
C927 C 0.22218 0.79855 0.65233 0.0
C928 C 0.247 0.81096 0.66683 0.0
C929 C 0.31897 0.86438 0.70386 0.0
C930 C 0.29477 0.84242 0.69241 0.0
H931 H 0.16513 0.80196 0.64377 0.0
H932 H 0.20407 0.8193 0.66959 0.0
H933 H 0.27394 0.81716 0.6379 0.0
H934 H 0.34785 0.88504 0.7576 0.0
H935 H 0.31287 0.84475 0.73743 0.0
C936 C 0.54713 0.8831 0.2395 0.0
C937 C 0.57206 0.90487 0.24641 0.0
C938 C 0.54547 0.85916 0.23193 0.0
C939 C 0.58524 0.82422 0.22454 0.0
H940 H 0.55728 0.81309 0.16141 0.0
C941 C 0.63255 0.79847 0.14811 0.0
C942 C 0.61614 0.78276 0.1296 0.0
C943 C 0.62143 0.80524 0.16678 0.0
C944 C 0.56464 0.8153 0.17915 0.0
H945 H 0.61395 0.9177 0.25353 0.0
H946 H 0.61116 0.87634 0.24024 0.0
H947 H 0.546 0.838 0.18882 0.0
H948 H 0.57492 0.76048 0.11687 0.0
H949 H 0.55564 0.77216 0.14946 0.0
H950 H 0.6052 0.80276 0.21426 0.0
C951 C 0.59286 0.87749 0.24056 0.0
C952 C 0.55805 0.82953 0.19495 0.0
C953 C 0.59456 0.90137 0.24793 0.0
C954 C 0.58825 0.77311 0.1306 0.0
C955 C 0.57714 0.7797 0.14932 0.0
C956 C 0.59184 0.80994 0.2087 0.0
C957 C 0.56865 0.85664 0.23138 0.0
C958 C 0.56928 0.83522 0.21747 0.0
C959 C 0.59366 0.79625 0.1674 0.0
C960 C 0.58255 0.80638 0.18554 0.0
H961 H 0.52941 0.88521 0.23832 0.0
H962 H 0.52646 0.84326 0.22519 0.0
H963 H 0.59386 0.82798 0.24191 0.0
H964 H 0.65407 0.8061 0.14792 0.0
H965 H 0.63479 0.81838 0.18027 0.0
C966 C 0.08392 0.68354 0.23537 0.0
C967 C 0.07891 0.65739 0.23088 0.0
C968 C 0.1059 0.70562 0.22522 0.0
C969 C 0.14244 0.72097 0.17128 0.0
H970 H 0.18206 0.79257 0.19789 0.0
C971 C 0.20259 0.81502 0.11411 0.0
C972 C 0.19898 0.83692 0.1195 0.0
C973 C 0.19345 0.79323 0.12931 0.0
C974 C 0.17111 0.77268 0.19022 0.0
H975 H 0.09412 0.63395 0.21375 0.0
H976 H 0.13251 0.67272 0.19574 0.0
H977 H 0.158 0.75378 0.22358 0.0
H978 H 0.18272 0.85294 0.14503 0.0
H979 H 0.16615 0.8146 0.17118 0.0
H980 H 0.15422 0.73981 0.1379 0.0
C981 C 0.11932 0.67601 0.20708 0.0
C982 C 0.15754 0.75053 0.20492 0.0
C983 C 0.09742 0.65388 0.21744 0.0
C984 C 0.18585 0.83643 0.14033 0.0
C985 C 0.17663 0.81459 0.15547 0.0
C986 C 0.15592 0.74311 0.15659 0.0
C987 C 0.12318 0.70196 0.21025 0.0
C988 C 0.14234 0.72457 0.19552 0.0
C989 C 0.18044 0.79282 0.15017 0.0
C990 C 0.16962 0.76925 0.16587 0.0
H991 H 0.07017 0.68689 0.24587 0.0
H992 H 0.10823 0.72536 0.22783 0.0
H993 H 0.13058 0.70122 0.16352 0.0
H994 H 0.21287 0.81484 0.09832 0.0
H995 H 0.19682 0.77682 0.12482 0.0
C996 C 0.1651 0.38213 0.15308 0.0
C997 C 0.16535 0.39165 0.13042 0.0
C998 C 0.1882 0.39424 0.16697 0.0
C999 C 0.2612 0.43099 0.16015 0.0
H1000 H 0.2596 0.42985 0.22785 0.0
C1001 C 0.33505 0.44101 0.24252 0.0
C1002 C 0.34173 0.42195 0.23444 0.0
C1003 C 0.31612 0.44515 0.2304 0.0
C1004 C 0.26055 0.43087 0.20897 0.0
H1005 H 0.18971 0.42258 0.10523 0.0
H1006 H 0.23001 0.44381 0.12961 0.0
H1007 H 0.22026 0.42383 0.206 0.0
H1008 H 0.33443 0.39296 0.20695 0.0
H1009 H 0.30194 0.40023 0.18612 0.0
H1010 H 0.30104 0.43702 0.16309 0.0
C1011 C 0.212 0.42666 0.13644 0.0
C1012 C 0.23795 0.42713 0.19645 0.0
C1013 C 0.18888 0.41448 0.12247 0.0
C1014 C 0.32961 0.40762 0.21385 0.0
C1015 C 0.31118 0.41201 0.20169 0.0
C1016 C 0.28371 0.43472 0.17263 0.0
C1017 C 0.21212 0.41625 0.15862 0.0
C1018 C 0.23764 0.42601 0.1719 0.0
C1019 C 0.30415 0.43071 0.20981 0.0
C1020 C 0.28315 0.43349 0.19712 0.0
H1021 H 0.14732 0.3647 0.15987 0.0
H1022 H 0.18763 0.38544 0.18382 0.0
H1023 H 0.26169 0.43013 0.14129 0.0
H1024 H 0.3441 0.45238 0.2583 0.0
H1025 H 0.31091 0.45963 0.23704 0.0
C1026 C 0.12965 0.30455 0.03092 0.0
C1027 C 0.12369 0.3014 0.05487 0.0
C1028 C 0.14046 0.2903 0.0202 0.0
C1029 C 0.15639 0.25183 -0.00044 0.0
H1030 H 0.22185 0.2647 0.03081 0.0
C1031 C 0.23785 0.23656 0.95402 0.0
C1032 C 0.2634 0.25987 0.9551 0.0
C1033 C 0.21698 0.2339 0.96841 0.0
C1034 C 0.20344 0.26062 0.02202 0.0
H1035 H 0.12305 0.27979 0.08614 0.0
H1036 H 0.14255 0.25515 0.06735 0.0
H1037 H 0.18942 0.27264 0.05168 0.0
H1038 H 0.28732 0.29822 0.97265 0.0
H1039 H 0.25102 0.29353 -0.00236 0.0
H1040 H 0.17133 0.24148 0.96942 0.0
C1041 C 0.13871 0.26864 0.05696 0.0
C1042 C 0.18476 0.26491 0.03401 0.0
C1043 C 0.12756 0.28271 0.06767 0.0
C1044 C 0.26783 0.28011 0.97122 0.0
C1045 C 0.24713 0.27729 0.98576 0.0
C1046 C 0.17502 0.24739 0.98761 0.0
C1047 C 0.14575 0.27274 0.03322 0.0
C1048 C 0.16166 0.26172 0.02255 0.0
C1049 C 0.22148 0.25428 0.98438 0.0
C1050 C 0.19925 0.25292 -0.00156 0.0
H1051 H 0.1266 0.31856 0.02053 0.0
H1052 H 0.14601 0.29415 0.00196 0.0
H1053 H 0.13859 0.24897 0.99043 0.0
H1054 H 0.23385 0.22059 0.94179 0.0
H1055 H 0.19733 0.216 0.96703 0.0
C1056 C 0.66452 0.82081 0.00582 0.0
C1057 C 0.67323 0.82421 0.02914 0.0
C1058 C 0.6786 0.84122 0.98952 0.0
C1059 C 0.74513 0.90244 0.9803 0.0
H1060 H 0.70597 0.92111 0.93611 0.0
C1061 C 0.78274 0.00679 0.94066 0.0
C1062 C 0.7716 0.0082 0.91927 0.0
C1063 C 0.77652 0.98177 0.94977 0.0
C1064 C 0.71733 0.91578 0.94791 0.0
H1065 H 0.70264 0.85209 0.05392 0.0
H1066 H 0.72654 0.88784 0.02574 0.0
H1067 H 0.68139 0.88239 0.96124 0.0
H1068 H 0.74885 0.98563 0.88901 0.0
H1069 H 0.73875 0.94206 0.90454 0.0
H1070 H 0.78101 0.93679 0.96761 0.0
C1071 C 0.70947 0.86914 0.01981 0.0
C1072 C 0.70317 0.89359 0.9624 0.0
C1073 C 0.69556 0.84876 0.03602 0.0
C1074 C 0.75739 0.98488 0.90569 0.0
C1075 C 0.75147 0.95998 0.91464 0.0
C1076 C 0.75932 0.92477 0.96585 0.0
C1077 C 0.70151 0.86542 -0.0037 0.0
C1078 C 0.71683 0.88708 0.97916 0.0
C1079 C 0.75933 0.95804 0.93744 0.0
C1080 C 0.74548 0.93199 0.94986 0.0
H1081 H 0.64755 0.80201 -4e-05 0.0
H1082 H 0.67199 0.83774 0.9715 0.0
H1083 H 0.75628 0.89755 0.99274 0.0
H1084 H 0.79364 0.02455 0.95146 0.0
H1085 H 0.7829 0.98091 0.96739 0.0
C1086 C 0.18298 0.8934 0.00627 0.0
C1087 C 0.17675 0.89148 0.03013 0.0
C1088 C 0.16345 0.88867 0.9895 0.0
C1089 C 0.0932 0.87609 0.98146 0.0
H1090 H 0.09224 0.82987 0.93171 0.0
C1091 C -0.00108 0.78871 0.94177 0.0
C1092 C -0.00028 0.78088 0.91878 0.0
C1093 C 0.02083 0.81175 0.951 0.0
C1094 C 0.09246 0.84336 0.94504 0.0
H1095 H 0.1456 0.88418 0.05524 0.0
H1096 H 0.11098 0.87444 0.02601 0.0
H1097 H 0.13115 0.85195 0.9569 0.0
H1098 H 0.02261 0.79134 0.88674 0.0
H1099 H 0.06118 0.83194 0.90283 0.0
H1100 H 0.05334 0.86553 0.97038 0.0
C1101 C 0.13115 0.88041 0.02014 0.0
C1102 C 0.11487 0.85608 0.9596 0.0
C1103 C 0.15089 0.88569 0.03694 0.0
C1104 C 0.02164 0.79735 0.90448 0.0
C1105 C 0.04365 0.8204 0.91372 0.0
C1106 C 0.07058 0.86308 0.96698 0.0
C1107 C 0.13705 0.88132 -0.00381 0.0
C1108 C 0.11519 0.87187 0.97849 0.0
C1109 C 0.04399 0.82703 0.93741 0.0
C1110 C 0.06967 0.84588 0.94912 0.0
H1111 H 0.20298 0.89846 0.00054 0.0
H1112 H 0.16893 0.89022 0.97125 0.0
H1113 H 0.09302 0.88861 -0.00448 0.0
H1114 H 0.98222 0.77592 0.95309 0.0
H1115 H 0.02058 0.81612 0.96936 0.0
C1116 C 0.34765 0.19432 0.85532 0.0
C1117 C 0.36668 0.21615 0.86865 0.0
C1118 C 0.35609 0.18244 0.83858 0.0
C1119 C 0.41316 0.17281 0.82614 0.0
H1120 H 0.37547 0.14316 0.76782 0.0
C1121 C 0.43813 0.10611 0.76919 0.0
C1122 C 0.41532 0.0816 0.76295 0.0
C1123 C 0.43524 0.12738 0.77756 0.0
C1124 C 0.38623 0.15142 0.78403 0.0
H1125 H 0.40951 0.24353 0.87394 0.0
H1126 H 0.42406 0.22287 0.84473 0.0
H1127 H 0.36412 0.17155 0.79145 0.0
H1128 H 0.37173 0.06077 0.75937 0.0
H1129 H 0.36676 0.09752 0.77427 0.0
H1130 H 0.4345 0.15192 0.81931 0.0
C1131 C 0.40266 0.21464 0.84752 0.0
C1132 C 0.3797 0.16758 0.79754 0.0
C1133 C 0.39427 0.22644 0.86427 0.0
C1134 C 0.38975 0.07928 0.7642 0.0
C1135 C 0.38688 0.10048 0.77251 0.0
C1136 C 0.41966 0.15666 0.81267 0.0
C1137 C 0.38369 0.19223 0.83481 0.0
C1138 C 0.39265 0.17787 0.81901 0.0
C1139 C 0.40951 0.12453 0.77976 0.0
C1140 C 0.40577 0.14522 0.79179 0.0
H1141 H 0.32626 0.18598 0.8582 0.0
H1142 H 0.341 0.16497 0.82921 0.0
H1143 H 0.42328 0.18018 0.84275 0.0
H1144 H 0.45814 0.10864 0.76827 0.0
H1145 H 0.45306 0.14582 0.78283 0.0
C1146 C 0.80271 0.17244 0.866 0.0
C1147 C 0.79588 0.1708 0.88972 0.0
C1148 C 0.8064 0.19421 0.85259 0.0
C1149 C 0.82766 0.26449 0.8555 0.0
H1150 H 0.80133 0.25174 0.7917 0.0
C1151 C 0.8786 0.34669 0.78712 0.0
C1152 C 0.88911 0.33729 0.76972 0.0
C1153 C 0.85762 0.32843 0.80139 0.0
C1154 C 0.80846 0.2557 0.80958 0.0
H1155 H 0.78807 0.1911 0.91805 0.0
H1156 H 0.79539 0.22978 0.8945 0.0
H1157 H 0.78328 0.21458 0.8195 0.0
H1158 H 0.88441 0.3019 0.75193 0.0
H1159 H 0.84781 0.27017 0.77648 0.0
H1160 H 0.85436 0.3051 0.84515 0.0
C1161 C 0.79741 0.21384 0.88639 0.0
C1162 C 0.79822 0.23447 0.82543 0.0
C1163 C 0.79336 0.19179 0.89983 0.0
C1164 C 0.87677 0.30961 0.76537 0.0
C1165 C 0.85562 0.29146 0.77932 0.0
C1166 C 0.83799 0.28574 0.8396 0.0
C1167 C 0.80359 0.215 0.86258 0.0
C1168 C 0.80886 0.2384 0.84812 0.0
C1169 C 0.84662 0.30063 0.79811 0.0
C1170 C 0.82958 0.28114 0.81616 0.0
H1171 H 0.80468 0.15662 0.85758 0.0
H1172 H 0.81179 0.19494 0.83438 0.0
H1173 H 0.83615 0.26802 0.87292 0.0
H1174 H 0.88785 0.368 0.79079 0.0
H1175 H 0.85097 0.33598 0.81572 0.0
C1176 C 0.82731 0.61758 0.86649 0.0
C1177 C 0.8506 0.64108 0.85917 0.0
C1178 C 0.8043 0.60573 0.85242 0.0
C1179 C 0.77775 0.60608 0.79332 0.0
H1180 H 0.71578 0.59812 0.82746 0.0
C1181 C 0.67694 0.58388 0.7493 0.0
C1182 C 0.66878 0.60232 0.75593 0.0
C1183 C 0.69768 0.58289 0.76138 0.0
C1184 C 0.73284 0.6 0.81773 0.0
H1185 H 0.86865 0.6692 0.83048 0.0
H1186 H 0.8285 0.64865 0.80612 0.0
H1187 H 0.75572 0.60549 0.84874 0.0
H1188 H 0.67564 0.6338 0.78065 0.0
H1189 H 0.71147 0.63187 0.80169 0.0
H1190 H 0.75507 0.60182 0.76222 0.0
C1191 C 0.82802 0.63936 0.8227 0.0
C1192 C 0.75561 0.60395 0.8299 0.0
C1193 C 0.85098 0.65129 0.83679 0.0
C1194 C 0.68151 0.61946 0.775 0.0
C1195 C 0.70188 0.6182 0.7872 0.0
C1196 C 0.75481 0.6019 0.78112 0.0
C1197 C 0.80417 0.61702 0.83071 0.0
C1198 C 0.77862 0.60789 0.81781 0.0
C1199 C 0.7102 0.59997 0.78051 0.0
C1200 C 0.73253 0.59974 0.79323 0.0
H1201 H 0.82636 0.60901 0.88353 0.0
H1202 H 0.78628 0.58831 0.8589 0.0
H1203 H 0.79513 0.60885 0.78358 0.0
H1204 H 0.66753 0.57043 0.73466 0.0
H1205 H 0.70379 0.56868 0.7559 0.0
C1206 C 0.87325 0.74207 0.93106 0.0
C1207 C 0.87465 0.72041 0.94103 0.0
C1208 C 0.86031 0.75375 0.94279 0.0
C1209 C 0.83468 0.75918 0.0005 0.0
H1210 H 0.77831 0.76164 0.96499 0.0
C1211 C 0.75405 0.77771 0.04354 0.0
C1212 C 0.72802 0.75634 0.03872 0.0
C1213 C 0.77604 0.7809 0.0304 0.0
C1214 C 0.79426 0.76147 0.97503 0.0
H1215 H 0.86442 0.69475 0.97155 0.0
H1216 H 0.84174 0.71501 0.99188 0.0
H1217 H 0.81078 0.75304 0.94492 0.0
H1218 H 0.7043 0.72254 0.01572 0.0
H1219 H 0.74244 0.72829 0.99278 0.0
H1220 H 0.81714 0.76613 0.03079 0.0
C1221 C 0.85081 0.72306 0.97506 0.0
C1222 C 0.81291 0.7567 0.96356 0.0
C1223 C 0.86353 0.71124 0.96328 0.0
C1224 C 0.72418 0.739 0.02 0.0
C1225 C 0.74596 0.74247 0.00669 0.0
C1226 C 0.81613 0.76416 0.01196 0.0
C1227 C 0.84879 0.7442 0.96482 0.0
C1228 C 0.83263 0.75445 0.97632 0.0
C1229 C 0.77213 0.76316 0.01197 0.0
C1230 C 0.79513 0.76426 -0.00059 0.0
H1231 H 0.88171 0.74972 0.91399 0.0
H1232 H 0.85908 0.77008 0.93455 0.0
H1233 H 0.84992 0.75787 0.01068 0.0
H1234 H 0.75752 0.79137 0.05788 0.0
H1235 H 0.79608 0.79697 0.03479 0.0
C1236 C 0.29909 0.18631 0.98393 0.0
C1237 C 0.324 0.19604 0.97272 0.0
C1238 C 0.29079 0.16623 0.0008 0.0
C1239 C 0.31467 0.12753 0.03635 0.0
H1240 H 0.23876 0.07385 0.03576 0.0
C1241 C 0.24382 0.00841 0.05819 0.0
C1242 C 0.25885 0.0069 0.07681 0.0
C1243 C 0.24923 0.03342 0.04975 0.0
C1244 C 0.26006 0.08851 0.03607 0.0
H1245 H 0.36005 0.19299 0.97045 0.0
H1246 H 0.34504 0.1568 -0.00114 0.0
H1247 H 0.25474 0.11384 0.01209 0.0
H1248 H 0.28945 0.0297 0.10267 0.0
H1249 H 0.29764 0.07336 0.08912 0.0
H1250 H 0.32044 0.10113 0.05855 0.0
C1251 C 0.33221 0.16524 -0.00457 0.0
C1252 C 0.26923 0.11181 0.02276 0.0
C1253 C 0.34081 0.18586 0.979 0.0
C1254 C 0.27782 0.03053 0.08809 0.0
C1255 C 0.28268 0.05551 0.08012 0.0
C1256 C 0.30562 0.10394 0.04919 0.0
C1257 C 0.30691 0.15491 0.00636 0.0
C1258 C 0.29676 0.13142 0.02236 0.0
C1259 C 0.26935 0.05736 0.06018 0.0
C1260 C 0.27825 0.08385 0.04889 0.0
H1261 H 0.28596 0.1942 0.97958 0.0
H1262 H 0.27156 0.15941 0.00923 0.0
H1263 H 0.3359 0.14241 0.037 0.0
H1264 H 0.22925 0.99035 0.04913 0.0
H1265 H 0.23872 0.03385 0.0342 0.0
C1266 C 0.85503 0.13682 0.97072 0.0
C1267 C 0.82762 0.12303 0.97671 0.0
C1268 C 0.87481 0.14697 0.98805 0.0
C1269 C 0.91509 0.16171 0.02687 0.0
H1270 H 0.89962 0.19487 0.07895 0.0
C1271 C 0.00086 0.24097 0.0838 0.0
C1272 C -0.00078 0.26445 0.08645 0.0
C1273 C 0.97832 0.21699 0.07638 0.0
C1274 C 0.90429 0.18566 0.06456 0.0
H1275 H 0.79942 0.1075 0.00551 0.0
H1276 H 0.83394 0.12434 0.03581 0.0
H1277 H 0.86351 0.16535 0.05292 0.0
H1278 H 0.97216 0.28063 0.08515 0.0
H1279 H 0.93355 0.23955 0.07191 0.0
H1280 H 0.95638 0.18415 0.03733 0.0
C1281 C 0.84022 0.12819 0.01774 0.0
C1282 C 0.88344 0.16835 0.04974 0.0
C1283 C 0.82041 0.11846 0.00038 0.0
C1284 C 0.97425 0.26301 0.08305 0.0
C1285 C 0.95189 0.23922 0.0757 0.0
C1286 C 0.93605 0.17942 0.04148 0.0
C1287 C 0.8677 0.14316 0.01183 0.0
C1288 C 0.88875 0.15704 0.0301 0.0
C1289 C 0.95377 0.21608 0.07162 0.0
C1290 C 0.93106 0.19254 0.05988 0.0
H1291 H 0.86124 0.14074 0.95262 0.0
H1292 H 0.89564 0.15882 0.98269 0.0
H1293 H 0.91983 0.15271 0.01237 0.0
H1294 H 0.0198 0.24141 0.08638 0.0
H1295 H 0.98035 0.19942 0.07368 0.0
C1296 C 0.30666 0.11808 0.48418 0.0
C1297 C 0.30108 0.11627 0.46016 0.0
C1298 C 0.29128 0.12321 0.49996 0.0
C1299 C 0.22816 0.12636 0.50611 0.0
H1300 H 0.27007 0.17923 0.55339 0.0
C1301 C 0.20113 0.20043 0.54911 0.0
C1302 C 0.21212 0.21047 0.57119 0.0
C1303 C 0.2046 0.18025 0.53888 0.0
C1304 C 0.25782 0.16392 0.54072 0.0
H1305 H 0.27466 0.11792 0.43388 0.0
H1306 H 0.2485 0.12801 0.46136 0.0
H1307 H 0.29179 0.16186 0.5285 0.0
H1308 H 0.23215 0.20551 0.6012 0.0
H1309 H 0.23714 0.16945 0.58386 0.0
H1310 H 0.19444 0.12978 0.51782 0.0
C1311 C 0.26431 0.12477 0.46807 0.0
C1312 C 0.27035 0.15396 0.52636 0.0
C1313 C 0.2795 0.11928 0.45229 0.0
C1314 C 0.22361 0.198 0.58409 0.0
C1315 C 0.22663 0.17756 0.57408 0.0
C1316 C 0.21558 0.13651 0.52049 0.0
C1317 C 0.2702 0.12706 0.49208 0.0
C1318 C 0.25584 0.1354 0.50863 0.0
C1319 C 0.21891 0.16987 0.55079 0.0
C1320 C 0.23042 0.1557 0.53773 0.0
H1321 H 0.32281 0.11533 0.49085 0.0
H1322 H 0.29603 0.12431 0.51837 0.0
H1323 H 0.21633 0.11178 0.4928 0.0
H1324 H 0.19244 0.21005 0.53885 0.0
H1325 H 0.19845 0.17477 0.5209 0.0
C1326 C 0.87656 0.1568 0.42789 0.0
C1327 C 0.87081 0.17631 0.43661 0.0
C1328 C 0.87459 0.1363 0.44236 0.0
C1329 C 0.84798 0.08639 0.47429 0.0
H1330 H 0.87225 0.10334 0.53851 0.0
C1331 C 0.79865 0.04059 0.56384 0.0
C1332 C 0.78804 0.01314 0.55932 0.0
C1333 C 0.81996 0.05972 0.55062 0.0
C1334 C 0.86573 0.09825 0.52055 0.0
H1335 H 0.8585 0.18953 0.46735 0.0
H1336 H 0.855 0.1538 0.49243 0.0
H1337 H 0.88707 0.13948 0.50988 0.0
H1338 H 0.79282 0.98388 0.53915 0.0
H1339 H 0.83012 0.01757 0.51558 0.0
H1340 H 0.82486 0.04548 0.48525 0.0
C1341 C 0.86128 0.15453 0.47449 0.0
C1342 C 0.87412 0.1189 0.50422 0.0
C1343 C 0.8629 0.17476 0.46001 0.0
C1344 C 0.80074 0.00501 0.54293 0.0
C1345 C 0.82194 0.02424 0.5294 0.0
C1346 C 0.83943 0.06572 0.49066 0.0
C1347 C 0.86728 0.13523 0.46586 0.0
C1348 C 0.86413 0.11325 0.48129 0.0
C1349 C 0.83085 0.05175 0.5324 0.0
C1350 C 0.847 0.07167 0.51424 0.0
H1351 H 0.88277 0.15747 0.40994 0.0
H1352 H 0.87909 0.12149 0.43529 0.0
H1353 H 0.84004 0.08152 0.45669 0.0
H1354 H 0.78924 0.04728 0.57652 0.0
H1355 H 0.82612 0.08069 0.55331 0.0
C1356 C 0.99408 0.70984 0.55041 0.0
C1357 C 0.01417 0.73199 0.56281 0.0
C1358 C 0.9752 0.71238 0.53703 0.0
C1359 C 0.93915 0.74797 0.52847 0.0
H1360 H 0.93389 0.72416 0.46427 0.0
C1361 C 0.84492 0.71093 0.47058 0.0
C1362 C 0.84835 0.71783 0.44678 0.0
C1363 C 0.86722 0.71878 0.48507 0.0
C1364 C 0.93537 0.7313 0.48201 0.0
H1365 H 0.0291 0.77384 0.57181 0.0
H1366 H 0.99529 0.77796 0.54865 0.0
H1367 H 0.9687 0.72558 0.48975 0.0
H1368 H 0.87788 0.73933 0.41976 0.0
H1369 H 0.91694 0.75262 0.4451 0.0
H1370 H 0.90497 0.75255 0.52094 0.0
C1371 C 0.99468 0.75881 0.54922 0.0
C1372 C 0.95513 0.73189 0.49662 0.0
C1373 C 0.01396 0.75641 0.56245 0.0
C1374 C 0.87458 0.73361 0.43799 0.0
C1375 C 0.89692 0.74119 0.45245 0.0
C1376 C 0.91906 0.74702 0.5139 0.0
C1377 C 0.97566 0.73699 0.53592 0.0
C1378 C 0.95681 0.73966 0.52007 0.0
C1379 C 0.89342 0.73346 0.47604 0.0
C1380 C 0.91671 0.73818 0.49066 0.0
H1381 H 0.99347 0.69069 0.55025 0.0
H1382 H 0.96043 0.69516 0.52718 0.0
H1383 H 0.9401 0.754 0.54652 0.0
H1384 H 0.82497 0.69903 0.47797 0.0
H1385 H 0.86392 0.71232 0.50312 0.0
C1386 C 0.90032 0.56512 0.28271 0.0
C1387 C 0.90198 0.56325 0.25846 0.0
C1388 C 0.87753 0.56375 0.29269 0.0
C1389 C 0.83617 0.59036 0.2804 0.0
H1390 H 0.79931 0.55555 0.33766 0.0
C1391 C 0.7904 0.63913 0.33706 0.0
C1392 C 0.79431 0.63858 0.36117 0.0
C1393 C 0.79424 0.62214 0.32214 0.0
C1394 C 0.80953 0.56558 0.32173 0.0
H1395 H 0.88111 0.55709 0.22554 0.0
H1396 H 0.84143 0.55604 0.24303 0.0
H1397 H 0.82268 0.53713 0.31537 0.0
H1398 H 0.8046 0.61964 0.38882 0.0
H1399 H 0.81333 0.59141 0.3628 0.0
H1400 H 0.82595 0.62046 0.28766 0.0
C1401 C 0.85742 0.55776 0.25428 0.0
C1402 C 0.82251 0.55475 0.30884 0.0
C1403 C 0.88 0.5584 0.24434 0.0
C1404 C 0.80152 0.6204 0.37024 0.0
C1405 C 0.80615 0.60396 0.35527 0.0
C1406 C 0.8238 0.60157 0.29352 0.0
C1407 C 0.85643 0.56121 0.27846 0.0
C1408 C 0.83669 0.56762 0.28852 0.0
C1409 C 0.80292 0.60485 0.33095 0.0
C1410 C 0.81122 0.58994 0.31486 0.0
H1411 H 0.91716 0.56887 0.29383 0.0
H1412 H 0.87738 0.56686 0.31133 0.0
H1413 H 0.84736 0.60087 0.26494 0.0
H1414 H 0.78424 0.65263 0.32976 0.0
H1415 H 0.79081 0.62295 0.30365 0.0
C1416 C 0.45505 0.33701 0.27005 0.0
C1417 C 0.43087 0.3343 0.26138 0.0
C1418 C 0.4562 0.31424 0.27708 0.0
C1419 C 0.41474 0.23877 0.27878 0.0
H1420 H 0.44277 0.24859 0.34173 0.0
C1421 C 0.38211 0.18247 0.3726 0.0
C1422 C 0.3714 0.15561 0.36577 0.0
C1423 C 0.39624 0.20317 0.3567 0.0
C1424 C 0.43468 0.24545 0.32419 0.0
H1425 H 0.38978 0.30553 0.25124 0.0
H1426 H 0.39143 0.26656 0.26399 0.0
H1427 H 0.45626 0.28752 0.31708 0.0
H1428 H 0.36756 0.12909 0.3373 0.0
H1429 H 0.39313 0.16529 0.30958 0.0
H1430 H 0.39075 0.1971 0.28674 0.0
C1431 C 0.40973 0.28588 0.26524 0.0
C1432 C 0.44293 0.26781 0.30982 0.0
C1433 C 0.40861 0.30843 0.25826 0.0
C1434 C 0.37519 0.14971 0.3428 0.0
C1435 C 0.38993 0.17047 0.32698 0.0
C1436 C 0.40594 0.2165 0.29335 0.0
C1437 C 0.43321 0.28847 0.27545 0.0
C1438 C 0.43174 0.26486 0.28744 0.0
C1439 C 0.40064 0.19751 0.33373 0.0
C1440 C 0.41463 0.2198 0.31669 0.0
H1441 H 0.47264 0.35671 0.27241 0.0
H1442 H 0.47472 0.3169 0.28461 0.0
H1443 H 0.40648 0.2357 0.26131 0.0
H1444 H 0.37942 0.18748 0.39025 0.0
H1445 H 0.40331 0.22359 0.36243 0.0
C1446 C 0.80619 0.21096 0.34956 0.0
C1447 C 0.83244 0.21562 0.34587 0.0
C1448 C 0.78714 0.20078 0.33159 0.0
C1449 C 0.75346 0.18785 0.28675 0.0
H1450 H 0.74875 0.12415 0.25889 0.0
C1451 C 0.68369 0.09021 0.22314 0.0
C1452 C 0.65854 0.08327 0.23263 0.0
C1453 C 0.70677 0.11333 0.23067 0.0
C1454 C 0.75006 0.1423 0.26582 0.0
H1455 H 0.85961 0.21461 0.31997 0.0
H1456 H 0.82635 0.19677 0.28884 0.0
H1457 H 0.7859 0.15173 0.28454 0.0
H1458 H 0.6371 0.09573 0.25591 0.0
H1459 H 0.67751 0.13536 0.27015 0.0
H1460 H 0.7171 0.17794 0.26831 0.0
C1461 C 0.82047 0.20072 0.30569 0.0
C1462 C 0.7714 0.15807 0.28071 0.0
C1463 C 0.83948 0.21089 0.32358 0.0
C1464 C 0.65639 0.10084 0.24831 0.0
C1465 C 0.67959 0.12362 0.25638 0.0
C1466 C 0.73213 0.17216 0.27157 0.0
C1467 C 0.79399 0.19506 0.30964 0.0
C1468 C 0.773 0.18063 0.29174 0.0
C1469 C 0.70518 0.12935 0.2485 0.0
C1470 C 0.72985 0.14881 0.26136 0.0
H1471 H 0.80016 0.2146 0.36645 0.0
H1472 H 0.76676 0.19633 0.33515 0.0
H1473 H 0.75442 0.20534 0.29489 0.0
H1474 H 0.68566 0.07701 0.21077 0.0
H1475 H 0.72605 0.11765 0.22363 0.0
C1476 C 0.04326 0.67233 0.49647 0.0
C1477 C 0.07039 0.68347 0.50311 0.0
C1478 C 0.03475 0.66081 0.47444 0.0
C1479 C 0.0498 0.62765 0.42806 0.0
H1480 H 0.01244 0.65237 0.38751 0.0
C1481 C 0.03419 0.60259 0.33007 0.0
C1482 C 0.01152 0.60085 0.31901 0.0
C1483 C 0.03921 0.60969 0.35358 0.0
C1484 C 0.02229 0.64475 0.39875 0.0
H1485 H 0.10984 0.69125 0.49206 0.0
H1486 H 0.09472 0.67062 0.45359 0.0
H1487 H 0.02556 0.6711 0.4266 0.0
H1488 H 0.97529 0.60322 0.32407 0.0
H1489 H 0.98337 0.61443 0.36538 0.0
H1490 H 0.04617 0.60093 0.40052 0.0
C1491 C 0.08021 0.67098 0.46546 0.0
C1492 C 0.02997 0.65566 0.42105 0.0
C1493 C 0.08885 0.68294 0.48733 0.0
C1494 C 0.99315 0.60482 0.33214 0.0
C1495 C -0.00211 0.61142 0.35575 0.0
C1496 C 0.04173 0.61638 0.40588 0.0
C1497 C 0.05311 0.65984 0.45889 0.0
C1498 C 0.04406 0.64744 0.43573 0.0
C1499 C 0.02139 0.61472 0.36658 0.0
C1500 C 0.02817 0.62505 0.39084 0.0
H1501 H 0.02863 0.67257 0.50827 0.0
H1502 H 0.01374 0.65228 0.46967 0.0
H1503 H 0.0604 0.62083 0.43928 0.0
H1504 H 0.04875 0.59976 0.32029 0.0
H1505 H 0.05768 0.61236 0.36122 0.0
C1506 C 0.28874 0.2999 0.49941 0.0
C1507 C 0.27379 0.31243 0.50514 0.0
C1508 C 0.29692 0.30006 0.47643 0.0
C1509 C 0.3288 0.32495 0.43195 0.0
H1510 H 0.28412 0.31768 0.3784 0.0
C1511 C 0.37122 0.3816 0.34681 0.0
C1512 C 0.36111 0.36815 0.32549 0.0
C1513 C 0.35968 0.36895 0.36781 0.0
C1514 C 0.29671 0.31931 0.39314 0.0
H1515 H 0.25462 0.33383 0.49105 0.0
H1516 H 0.26904 0.33422 0.45111 0.0
H1517 H 0.26372 0.30464 0.41712 0.0
H1518 H 0.33106 0.33077 0.30949 0.0
H1519 H 0.31043 0.30879 0.34651 0.0
H1520 H 0.36196 0.34063 0.40815 0.0
C1521 C 0.27432 0.32417 0.46433 0.0
C1522 C 0.2851 0.31206 0.41527 0.0
C1523 C 0.26633 0.32421 0.48729 0.0
C1524 C 0.33926 0.34165 0.32565 0.0
C1525 C 0.32745 0.32908 0.34676 0.0
C1526 C 0.34042 0.33236 0.40988 0.0
C1527 C 0.29005 0.31249 0.45874 0.0
C1528 C 0.3012 0.3156 0.43496 0.0
C1529 C 0.33762 0.34267 0.368 0.0
C1530 C 0.32461 0.33039 0.39042 0.0
H1531 H 0.2947 0.29052 0.51273 0.0
H1532 H 0.30894 0.29081 0.47253 0.0
H1533 H 0.34172 0.32803 0.44683 0.0
H1534 H 0.38815 0.40194 0.34732 0.0
H1535 H 0.36764 0.38002 0.38393 0.0
C1536 C 0.68775 0.00436 0.49307 0.0
C1537 C 0.68255 0.97804 0.4971 0.0
C1538 C 0.68458 0.01218 0.47071 0.0
C1539 C 0.68047 0.99439 0.40859 0.0
H1540 H 0.63183 0.0227 0.40287 0.0
C1541 C 0.60304 0.99243 0.33626 0.0
C1542 C 0.61936 -2e-05 0.31623 0.0
C1543 C 0.61447 0.99588 0.35843 0.0
C1544 C 0.64559 0.01498 0.40424 0.0
H1545 H 0.67123 0.93972 0.48077 0.0
H1546 H 0.66602 0.95344 0.44187 0.0
H1547 H 0.64651 0.0172 0.44159 0.0
H1548 H 0.66069 0.01839 0.30395 0.0
H1549 H 0.68047 0.02424 0.34264 0.0
H1550 H 0.67875 0.9911 0.37141 0.0
C1551 C 0.67242 0.96799 0.45593 0.0
C1552 C 0.65417 0.01207 0.42633 0.0
C1553 C 0.6752 0.96007 0.47824 0.0
C1554 C 0.64745 0.0121 0.31896 0.0
C1555 C 0.65884 0.01543 0.34111 0.0
C1556 C 0.67209 -0.0025 0.38654 0.0
C1557 C 0.67666 0.99394 0.45201 0.0
C1558 C 0.67108 0.00105 0.4287 0.0
C1559 C 0.64242 0.00688 0.36102 0.0
C1560 C 0.65402 0.00716 0.38418 0.0
H1561 H 0.6934 0.01862 0.5073 0.0
H1562 H 0.68804 0.03234 0.46807 0.0
H1563 H 0.69366 0.98601 0.40998 0.0
H1564 H 0.58136 0.9832 0.33483 0.0
H1565 H 0.60129 0.98887 0.37348 0.0
C1566 C 0.68502 0.04364 -0.0012 0.0
C1567 C 0.69811 0.03324 0.98529 0.0
C1568 C 0.66991 0.02964 0.01815 0.0
C1569 C 0.66757 0.98966 0.06516 0.0
H1570 H 0.59493 0.97698 0.07324 0.0
C1571 C 0.61989 0.97227 0.15626 0.0
C1572 C 0.60841 0.98846 0.16087 0.0
C1573 C 0.62586 0.96858 0.13339 0.0
C1574 C 0.61515 0.98028 0.07126 0.0
H1575 H 0.70583 0.00013 0.98134 0.0
H1576 H 0.68006 0.976 0.01626 0.0
H1577 H 0.6156 0.98784 0.03461 0.0
H1578 H 0.59317 0.01253 0.14493 0.0
H1579 H 0.60419 0.00676 0.10538 0.0
H1580 H 0.66821 0.98457 0.10204 0.0
C1581 C 0.6812 0.99475 0.01134 0.0
C1582 C 0.62683 0.98624 0.04916 0.0
C1583 C 0.69588 0.00852 0.99153 0.0
C1584 C 0.60206 -1e-05 0.14206 0.0
C1585 C 0.60814 -0.00358 0.11928 0.0
C1586 C 0.65603 0.98406 0.08737 0.0
C1587 C 0.66798 0.00521 0.02462 0.0
C1588 C 0.65348 0.99205 0.04617 0.0
C1589 C 0.62051 0.98105 0.11469 0.0
C1590 C 0.63015 0.98054 0.09079 0.0
H1591 H 0.68618 0.06251 0.99426 0.0
H1592 H 0.66016 0.03821 0.02839 0.0
H1593 H 0.68825 0.99429 0.06319 0.0
H1594 H 0.62475 0.96281 0.17034 0.0
H1595 H 0.63511 0.95639 0.1304 0.0
C1596 C 0.992 0.65138 0.16864 0.0
C1597 C 0.97212 0.6246 0.17307 0.0
C1598 C 0.99057 0.66442 0.14853 0.0
C1599 C 0.94425 0.66389 0.10469 0.0
H1600 H 0.00166 0.68414 0.05968 0.0
C1601 C 0.92601 0.66295 0.00692 0.0
C1602 C 0.94684 0.68051 0.99199 0.0
C1603 C 0.93063 0.66276 0.03077 0.0
C1604 C 0.98574 0.67932 0.07219 0.0
H1605 H 0.93477 0.59079 0.1606 0.0
H1606 H 0.93198 0.61378 0.12584 0.0
H1607 H 0.00719 0.67219 0.09932 0.0
H1608 H 0.98855 0.71261 0.99061 0.0
H1609 H -0.00355 0.7126 0.03246 0.0
H1610 H 0.92254 0.67054 0.07767 0.0
C1611 C 0.94871 0.62456 0.13777 0.0
C1612 C 0.98893 0.67242 0.09485 0.0
C1613 C 0.95044 0.61137 0.1575 0.0
C1614 C 0.97215 0.69859 0.00161 0.0
C1615 C 0.97671 0.69856 0.02558 0.0
C1616 C 0.94121 0.67119 0.08217 0.0
C1617 C 0.96888 0.65105 0.133 0.0
C1618 C 0.96779 0.66367 0.11095 0.0
C1619 C 0.9561 0.68032 0.04038 0.0
C1620 C 0.96145 0.67786 0.06536 0.0
H1621 H 0.00896 0.66197 0.18037 0.0
H1622 H 0.00637 0.68484 0.14506 0.0
H1623 H 0.92781 0.65745 0.11698 0.0
H1624 H 0.90629 0.6487 0.00011 0.0
H1625 H 0.91442 0.64804 0.0415 0.0
C1626 C 0.43902 0.40404 0.16262 0.0
C1627 C 0.41554 0.39077 0.17624 0.0
C1628 C 0.43773 0.40052 0.13845 0.0
C1629 C 0.43064 0.37349 0.09129 0.0
H1630 H 0.36961 0.36628 0.05595 0.0
C1631 C 0.39694 0.31669 0.00429 0.0
C1632 C 0.38599 0.32584 0.98704 0.0
C1633 C 0.40395 0.32911 0.02609 0.0
C1634 C 0.38704 0.36867 0.06543 0.0
H1635 H 0.37222 0.36381 0.17504 0.0
H1636 H 0.37013 0.35741 0.13308 0.0
H1637 H 0.37532 0.38075 0.09649 0.0
H1638 H 0.37488 0.35596 0.97886 0.0
H1639 H 0.38748 0.37782 0.01687 0.0
H1640 H 0.44232 0.36135 0.0602 0.0
C1641 C 0.38946 0.37083 0.14101 0.0
C1642 C 0.39011 0.37664 0.08874 0.0
C1643 C 0.39073 0.37434 0.16512 0.0
C1644 C 0.383 0.34822 0.99184 0.0
C1645 C 0.39016 0.36072 0.01363 0.0
C1646 C 0.42762 0.3656 0.06793 0.0
C1647 C 0.41296 0.38372 0.12744 0.0
C1648 C 0.41157 0.37849 0.10205 0.0
C1649 C 0.40032 0.35104 0.03109 0.0
C1650 C 0.40544 0.36251 0.05493 0.0
H1651 H 0.45845 0.41696 0.1706 0.0
H1652 H 0.45614 0.41091 0.12838 0.0
H1653 H 0.44731 0.3746 0.10114 0.0
H1654 H 0.39948 0.29948 0.00119 0.0
H1655 H 0.41135 0.3209 0.03929 0.0
C1656 C 0.92472 0.3568 0.66169 0.0
C1657 C 0.9468 0.3582 0.67369 0.0
C1658 C 0.91907 0.3472 0.63878 0.0
C1659 C 0.95122 0.34184 0.58644 0.0
H1660 H 0.88063 0.284 0.56818 0.0
C1661 C 0.93373 0.29546 0.49524 0.0
C1662 C 0.90933 0.28849 0.48398 0.0
C1663 C 0.93718 0.30222 0.51884 0.0
C1664 C 0.90035 0.30042 0.57289 0.0
H1665 H 0.98037 0.35088 0.67109 0.0
H1666 H 0.9708 0.33472 0.63089 0.0
H1667 H 0.88868 0.30009 0.60851 0.0
H1668 H 0.86921 0.28259 0.48861 0.0
H1669 H 0.87554 0.29543 0.52969 0.0
H1670 H 0.96288 0.34306 0.55095 0.0
C1671 C 0.95779 0.34081 0.63933 0.0
C1672 C 0.90492 0.30952 0.59598 0.0
C1673 C 0.96316 0.34994 0.66233 0.0
C1674 C 0.88819 0.28777 0.49691 0.0
C1675 C 0.89181 0.29502 0.52048 0.0
C1676 C 0.94657 0.33309 0.56333 0.0
C1677 C 0.93571 0.33935 0.62739 0.0
C1678 C 0.93046 0.33013 0.60293 0.0
C1679 C 0.91651 0.30271 0.53165 0.0
C1680 C 0.92115 0.31209 0.55628 0.0
H1681 H 0.91169 0.36291 0.67005 0.0
H1682 H 0.90202 0.34636 0.62981 0.0
H1683 H 0.97099 0.35803 0.59138 0.0
H1684 H 0.95024 0.29579 0.48576 0.0
H1685 H 0.95619 0.30726 0.52699 0.0
C1686 C 0.64125 0.61897 0.64046 0.0
C1687 C 0.64336 0.63618 0.65878 0.0
C1688 C 0.65393 0.62951 0.61923 0.0
C1689 C 0.68197 0.6893 0.58211 0.0
H1690 H 0.71976 0.65613 0.5541 0.0
C1691 C 0.75001 0.69479 0.49695 0.0
C1692 C 0.7333 0.69478 0.47905 0.0
C1693 C 0.74285 0.69439 0.52018 0.0
C1694 C 0.70973 0.66599 0.56183 0.0
H1695 H 0.65996 0.67801 0.66895 0.0
H1696 H 0.68227 0.69633 0.63177 0.0
H1697 H 0.69916 0.64121 0.59214 0.0
H1698 H 0.69729 0.69659 0.47109 0.0
H1699 H 0.6841 0.69485 0.51191 0.0
H1700 H 0.69255 0.71403 0.55153 0.0
C1701 C 0.67069 0.67471 0.63393 0.0
C1702 C 0.69759 0.65713 0.58347 0.0
C1703 C 0.65805 0.66418 0.65524 0.0
C1704 C 0.7104 0.69649 0.48468 0.0
C1705 C 0.70296 0.69564 0.50801 0.0
C1706 C 0.69417 0.69821 0.56033 0.0
C1707 C 0.66895 0.65745 0.61586 0.0
C1708 C 0.68321 0.66834 0.59362 0.0
C1709 C 0.71858 0.69343 0.5259 0.0
C1710 C 0.70791 0.6864 0.54989 0.0
H1711 H 0.62995 0.59733 0.64252 0.0
H1712 H 0.65193 0.61575 0.6054 0.0
H1713 H 0.67092 0.69822 0.5896 0.0
H1714 H 0.76812 0.69407 0.49297 0.0
H1715 H 0.75564 0.69343 0.53364 0.0
C1716 C 0.44024 0.04507 0.66203 0.0
C1717 C 0.41857 0.02331 0.67333 0.0
C1718 C 0.4384 0.04986 0.63846 0.0
C1719 C 0.40251 0.01986 0.58419 0.0
H1720 H 0.41235 0.09057 0.57148 0.0
C1721 C 0.36211 0.04195 0.5008 0.0
C1722 C 0.37762 0.06714 0.49018 0.0
C1723 C 0.36937 0.03685 0.52257 0.0
C1724 C 0.41003 0.07092 0.57459 0.0
H1725 H 0.37871 0.98857 0.66862 0.0
H1726 H 0.37565 -0.00309 0.6273 0.0
H1727 H 0.42258 0.08047 0.61015 0.0
H1728 H 0.41286 0.10678 0.49388 0.0
H1729 H 0.42597 0.09766 0.53172 0.0
H1730 H 0.39003 0.01023 0.54867 0.0
C1731 C 0.39393 0.01026 0.63676 0.0
C1732 C 0.41585 0.06517 0.59671 0.0
C1733 C 0.3956 0.00565 0.6604 0.0
C1734 C 0.40039 0.08725 0.50179 0.0
C1735 C 0.40787 0.08203 0.52346 0.0
C1736 C 0.39701 0.02571 0.56195 0.0
C1737 C 0.41506 0.03274 0.62579 0.0
C1738 C 0.41169 0.03947 0.60175 0.0
C1739 C 0.39249 0.05674 0.53402 0.0
C1740 C 0.40022 0.05114 0.55706 0.0
H1741 H 0.45823 0.05899 0.67155 0.0
H1742 H 0.45497 0.06724 0.63022 0.0
H1743 H 0.39938 -4e-05 0.58774 0.0
H1744 H 0.3443 0.02616 0.4923 0.0
H1745 H 0.35673 0.01738 0.5305 0.0
C1746 C 0.3745 0.96931 0.84114 0.0
C1747 C 0.36478 0.97503 0.82067 0.0
C1748 C 0.36472 0.97112 0.86283 0.0
C1749 C 0.30716 0.96649 0.89248 0.0
H1750 H 0.35878 -0.00128 0.94304 0.0
C1751 C 0.31208 0.97626 -0.00022 0.0
C1752 C 0.29481 0.94889 0.00479 0.0
C1753 C 0.31848 0.98489 0.97669 0.0
C1754 C 0.34408 0.99019 0.92909 0.0
H1755 H 0.33648 0.98635 0.80697 0.0
H1756 H 0.31898 0.98898 0.84522 0.0
H1757 H 0.3747 0.00409 0.90294 0.0
H1758 H 0.27003 0.90931 0.98943 0.0
H1759 H 0.28158 0.92428 0.94945 0.0
H1760 H 0.27659 0.9517 0.91876 0.0
C1761 C 0.33442 0.9834 0.84423 0.0
C1762 C 0.35321 0.99303 0.90619 0.0
C1763 C 0.34439 0.9818 0.8224 0.0
C1764 C 0.2836 0.93049 0.98626 0.0
C1765 C 0.28989 0.93913 0.96328 0.0
C1766 C 0.29802 0.9636 0.91543 0.0
C1767 C 0.3449 0.97854 0.8646 0.0
C1768 C 0.3349 0.98023 0.88785 0.0
C1769 C 0.30757 0.96634 0.95826 0.0
C1770 C 0.31649 0.97446 0.93398 0.0
H1771 H 0.39013 0.96398 0.84052 0.0
H1772 H 0.37265 0.96661 0.87828 0.0
H1773 H 0.29267 0.95651 0.87859 0.0
H1774 H 0.32086 0.99098 0.01366 0.0
H1775 H 0.33215 0.006 0.97324 0.0
C1776 C 0.07728 0.36282 0.9858 0.0
C1777 C 0.05869 0.34811 0.00342 0.0
C1778 C 0.06905 0.35982 0.96255 0.0
C1779 C 0.00799 0.33958 0.9277 0.0
H1780 H 0.05637 0.3504 0.87635 0.0
C1781 C 0.98275 0.34744 0.83092 0.0
C1782 C 0.00259 0.37117 0.82025 0.0
C1783 C 0.98784 0.3394 0.85245 0.0
C1784 C 0.04261 0.34717 0.89055 0.0
H1785 H 0.01727 0.31746 0.01033 0.0
H1786 H 0.00308 0.31181 0.96966 0.0
H1787 H 0.06865 0.34453 0.91581 0.0
H1788 H 0.04343 0.40474 0.82346 0.0
H1789 H 0.05229 0.39053 0.8608 0.0
H1790 H 0.98217 0.34264 0.90233 0.0
C1791 C 0.02384 0.3262 0.97389 0.0
C1792 C 0.04966 0.34395 0.91312 0.0
C1793 C 0.032 0.3294 -0.00282 0.0
C1794 C 0.02766 0.38646 0.83131 0.0
C1795 C 0.03286 0.37821 0.85256 0.0
C1796 C 0.00081 0.3425 0.90507 0.0
C1797 C 0.04212 0.34181 0.95637 0.0
C1798 C 0.03283 0.341 0.93206 0.0
C1799 C 0.01301 0.35468 0.86334 0.0
C1800 C 0.01846 0.34716 0.88645 0.0
H1801 H 0.09797 0.37742 0.99004 0.0
H1802 H 0.08359 0.37247 0.94957 0.0
H1803 H 0.99468 0.33766 0.94189 0.0
H1804 H 0.96323 0.33528 0.82278 0.0
H1805 H 0.97223 0.3212 0.86054 0.0
C1806 C 0.61404 0.65826 0.81434 0.0
C1807 C 0.58953 0.63779 0.8052 0.0
C1808 C 0.61585 0.66602 0.83759 0.0
C1809 C 0.61788 0.66486 0.89012 0.0
H1810 H 0.56201 0.67405 0.91942 0.0
C1811 C 0.6161 0.67874 0.98868 0.0
C1812 C 0.61116 0.69909 -0.00359 0.0
C1813 C 0.61189 0.67064 0.96543 0.0
C1814 C 0.57782 0.67171 0.9114 0.0
H1815 H 0.54761 0.60962 0.8133 0.0
H1816 H 0.55097 0.62309 0.85404 0.0
H1817 H 0.55817 0.66201 0.8781 0.0
H1818 H 0.59736 0.72653 0.98594 0.0
H1819 H 0.59038 0.71257 0.9451 0.0
H1820 H 0.63781 0.67502 0.92315 0.0
C1821 C 0.56864 0.63326 0.84307 0.0
C1822 C 0.5755 0.66458 0.88787 0.0
C1823 C 0.5668 0.62545 0.81978 0.0
C1824 C 0.6013 0.71075 0.98051 0.0
C1825 C 0.5972 0.7027 0.95717 0.0
C1826 C 0.62019 0.67197 0.91358 0.0
C1827 C 0.59323 0.65349 0.8522 0.0
C1828 C 0.59553 0.66112 0.87705 0.0
C1829 C 0.60281 0.68282 0.94938 0.0
C1830 C 0.60016 0.67538 0.92446 0.0
H1831 H 0.63191 0.66828 0.80358 0.0
H1832 H 0.63497 0.68194 0.84413 0.0
H1833 H 0.63348 0.66204 0.88228 0.0
H1834 H 0.6234 0.66911 0.00054 0.0
H1835 H 0.61588 0.6549 0.95999 0.0
C1836 C 0.70194 0.9935 0.65877 0.0
C1837 C 0.71821 0.98374 0.64976 0.0
C1838 C 0.70522 0.00267 0.68175 0.0
C1839 C 0.73636 0.0012 0.7383 0.0
H1840 H 0.72743 0.06236 0.75249 0.0
C1841 C 0.76853 0.05738 0.82588 0.0
C1842 C 0.74806 0.05923 0.83772 0.0
C1843 C 0.76523 0.04945 0.80254 0.0
C1844 C 0.72987 0.04522 0.74871 0.0
H1845 H 0.75074 0.97605 0.65765 0.0
H1846 H 0.7572 0.99297 0.69745 0.0
H1847 H 0.721 0.04546 0.71252 0.0
H1848 H 0.70864 0.05551 0.83408 0.0
H1849 H 0.7032 0.0422 0.79297 0.0
H1850 H 0.74603 0.00162 0.77445 0.0
C1851 C 0.74134 0.99283 0.68707 0.0
C1852 C 0.72603 0.03539 0.72589 0.0
C1853 C 0.73774 0.98323 0.6642 0.0
C1854 C 0.72471 0.05414 0.82545 0.0
C1855 C 0.72162 0.04663 0.80195 0.0
C1856 C 0.74062 0.01131 0.76099 0.0
C1857 C 0.72515 0.00272 0.69613 0.0
C1858 C 0.72917 0.0132 0.72041 0.0
C1859 C 0.74162 0.04367 0.7905 0.0
C1860 C 0.73738 0.03336 0.76637 0.0
H1861 H 0.68651 0.99387 0.6481 0.0
H1862 H 0.69198 0.00956 0.68825 0.0
H1863 H 0.73839 0.98376 0.73488 0.0
H1864 H 0.78673 0.0611 0.83485 0.0
H1865 H 0.78101 0.04751 0.79396 0.0
C1866 C 0.0375 0.67852 0.6632 0.0
C1867 C 0.05696 0.70475 0.6566 0.0
C1868 C 0.02912 0.6728 0.68643 0.0
C1869 C 0.00152 0.67506 0.73116 0.0
H1870 H 0.05063 0.70869 0.78311 0.0
C1871 C 0.96885 0.70083 0.81707 0.0
C1872 C 0.97903 0.69697 0.83815 0.0
C1873 C 0.97826 0.69718 0.79575 0.0
C1874 C 0.03666 0.6988 0.76887 0.0
H1875 H 0.08389 0.74516 0.6694 0.0
H1876 H 0.06917 0.73521 0.70965 0.0
H1877 H 0.06856 0.70953 0.74433 0.0
H1878 H 0.00707 0.68611 0.85327 0.0
H1879 H 0.02356 0.67989 0.81592 0.0
H1880 H 0.96964 0.66486 0.75558 0.0
C1881 C 0.06046 0.71903 0.69698 0.0
C1882 C 0.04692 0.69946 0.74666 0.0
C1883 C 0.06867 0.7248 0.67383 0.0
C1884 C -0.00113 0.68939 0.83738 0.0
C1885 C 0.00835 0.68582 0.81601 0.0
C1886 C 0.99126 0.67445 0.75335 0.0
C1887 C 0.04027 0.69313 0.70346 0.0
C1888 C 0.02947 0.6883 0.72748 0.0
C1889 C -0.00191 0.68965 0.795 0.0
C1890 C 0.00876 0.68702 0.77227 0.0
H1891 H 0.02818 0.66261 0.65034 0.0
H1892 H 0.01362 0.65261 0.69101 0.0
H1893 H 0.98759 0.66643 0.71669 0.0
H1894 H 0.95354 0.70662 0.81698 0.0
H1895 H 0.97034 0.70075 0.77982 0.0
C1896 C 0.27411 0.30529 0.66769 0.0
C1897 C 0.24957 0.2853 0.65827 0.0
C1898 C 0.27949 0.30542 0.69143 0.0
C1899 C 0.24661 0.27644 0.74835 0.0
H1900 H 0.31976 0.29796 0.76692 0.0
C1901 C 0.27796 0.25455 0.83815 0.0
C1902 C 0.29976 0.2765 0.84923 0.0
C1903 C 0.27058 0.25708 0.81549 0.0
C1904 C 0.29932 0.29217 0.76195 0.0
H1905 H 0.21142 0.24973 0.66618 0.0
H1906 H 0.22125 0.24918 0.7075 0.0
H1907 H 0.30942 0.2988 0.72584 0.0
H1908 H 0.33073 0.31835 0.84545 0.0
H1909 H 0.31814 0.3225 0.80553 0.0
H1910 H 0.23653 0.26868 0.78463 0.0
C1911 C 0.23605 0.26527 0.69674 0.0
C1912 C 0.29336 0.29273 0.73845 0.0
C1913 C 0.23047 0.26544 0.67303 0.0
C1914 C 0.31377 0.30114 0.83737 0.0
C1915 C 0.30669 0.30351 0.81456 0.0
C1916 C 0.25252 0.27544 0.77185 0.0
C1917 C 0.26065 0.28527 0.70622 0.0
C1918 C 0.26693 0.2849 0.73133 0.0
C1919 C 0.28518 0.28143 0.80341 0.0
C1920 C 0.27892 0.28332 0.77878 0.0
H1921 H 0.28905 0.32112 0.65677 0.0
H1922 H 0.29837 0.3215 0.69817 0.0
H1923 H 0.22615 0.27073 0.74358 0.0
H1924 H 0.26674 0.23536 0.84693 0.0
H1925 H 0.25403 0.23976 0.80713 0.0
C1926 C 0.05533 0.35417 0.17807 0.0
C1927 C 0.04517 0.35905 0.15746 0.0
C1928 C 0.04608 0.35701 0.19976 0.0
C1929 C 0.98503 0.34861 0.22552 0.0
H1930 H 0.02831 0.36946 0.28195 0.0
C1931 C 0.97153 0.3375 0.33228 0.0
C1932 C 0.95392 0.30953 0.33313 0.0
C1933 C 0.98211 0.35028 0.31098 0.0
C1934 C 0.01596 0.36405 0.26637 0.0
H1935 H 0.01854 0.37232 0.14348 0.0
H1936 H 0.00213 0.37697 0.18156 0.0
H1937 H 0.0504 0.38245 0.24396 0.0
H1938 H 0.93283 0.27324 0.31222 0.0
H1939 H 0.95131 0.29548 0.27523 0.0
H1940 H 0.95065 0.32916 0.24788 0.0
C1941 C 0.0172 0.37088 0.18081 0.0
C1942 C 0.02859 0.37131 0.24465 0.0
C1943 C 0.02663 0.36824 0.15905 0.0
C1944 C 0.94651 0.29477 0.31221 0.0
C1945 C 0.95684 0.30756 0.29098 0.0
C1946 C 0.97242 0.34127 0.24722 0.0
C1947 C 0.02639 0.36467 0.20133 0.0
C1948 C 0.01327 0.3627 0.22402 0.0
C1949 C 0.97496 0.33536 0.29016 0.0
C1950 C 0.98781 0.34798 0.26777 0.0
H1951 H 0.06986 0.34737 0.17747 0.0
H1952 H 0.05332 0.35176 0.21524 0.0
H1953 H 0.97269 0.34157 0.20994 0.0
H1954 H 0.97757 0.34945 0.3481 0.0
H1955 H -0.00396 0.37175 0.31078 0.0
C1956 C 0.7182 0.6873 0.31639 0.0
C1957 C 0.74485 0.70435 0.32386 0.0
C1958 C 0.71118 0.68696 0.29301 0.0
C1959 C 0.73012 0.73059 0.24299 0.0
H1960 H 0.6892 0.6657 0.20627 0.0
C1961 C 0.70948 0.73794 0.14708 0.0
C1962 C 0.68358 0.72014 0.1386 0.0
C1963 C 0.71769 0.73356 0.16866 0.0
C1964 C 0.70037 0.68395 0.21639 0.0
H1965 H 0.78513 0.73399 0.31266 0.0
H1966 H 0.77265 0.73371 0.27191 0.0
H1967 H 0.70195 0.66249 0.24645 0.0
H1968 H 0.6462 0.68328 0.14539 0.0
H1969 H 0.66013 0.67611 0.18387 0.0
H1970 H 0.72787 0.75213 0.21366 0.0
C1971 C 0.75732 0.72059 0.28418 0.0
C1972 C 0.70772 0.6821 0.23928 0.0
C1973 C 0.76443 0.72069 0.30745 0.0
C1974 C 0.6663 0.69726 0.15165 0.0
C1975 C 0.67434 0.69314 0.17358 0.0
C1976 C 0.7225 0.73243 0.22032 0.0
C1977 C 0.73061 0.70391 0.27684 0.0
C1978 C 0.72281 0.70545 0.25265 0.0
C1979 C 0.69994 0.71163 0.18252 0.0
C1980 C 0.70775 0.70918 0.20666 0.0
H1981 H 0.70273 0.67429 0.32859 0.0
H1982 H 0.69042 0.67407 0.28772 0.0
H1983 H 0.74131 0.74882 0.25315 0.0
H1984 H 0.72336 0.75546 0.13708 0.0
H1985 H 0.73784 0.74772 0.17468 0.0
C1986 C 0.3446 0.02223 0.33403 0.0
C1987 C 0.32535 0.02827 0.34285 0.0
C1988 C 0.34039 0.00914 0.31258 0.0
C1989 C 0.28718 0.96558 0.27189 0.0
H1990 H 0.34079 -0.00022 0.22333 0.0
C1991 C 0.26038 0.949 0.1752 0.0
C1992 C 0.27897 0.94916 0.15917 0.0
C1993 C 0.26713 0.95436 0.1987 0.0
C1994 C 0.32586 0.98959 0.23681 0.0
H1995 H 0.28655 0.02514 0.3363 0.0
H1996 H 0.27924 0.00221 0.29903 0.0
H1997 H 0.35113 0.01734 0.26308 0.0
H1998 H 0.31889 0.95402 0.15541 0.0
H1999 H 0.33051 0.96312 0.19663 0.0
H2000 H 0.26167 0.93814 0.24568 0.0
C2001 C 0.29749 0.00753 0.30872 0.0
C2002 C 0.33178 -0.00031 0.25951 0.0
C2003 C 0.30183 0.0209 0.32993 0.0
C2004 C 0.30419 0.95404 0.16728 0.0
C2005 C 0.31089 0.95928 0.19087 0.0
C2006 C 0.28133 0.95532 0.24928 0.0
C2007 C 0.3167 0.00154 0.29989 0.0
C2008 C 0.31215 0.98829 0.27701 0.0
C2009 C 0.29253 0.95981 0.20675 0.0
C2010 C 0.30028 0.9678 0.23134 0.0
H2011 H 0.36295 0.02772 0.34361 0.0
H2012 H 0.35549 0.00475 0.306 0.0
H2013 H 0.27189 0.95625 0.28526 0.0
H2014 H 0.24079 0.94535 0.16956 0.0
H2015 H 0.2527 0.9551 0.21043 0.0
loop_
_geom_bond_atom_site_label_1
_geom_bond_atom_site_label_2
_geom_bond_distance
_geom_bond_site_symmetry_2
_ccdc_geom_bond_type
Sc0 O3 2.025 . S
Sc0 O10 2.105 . S
Sc0 O13 2.105 1_455 S
Sc0 O16 2.105 . S
Sc0 O19 2.105 1_455 S
Sc1 O3 2.025 1_655 S
Sc1 O11 2.105 . S
Sc1 O15 2.105 . S
Sc1 O17 2.105 . S
Sc1 O21 2.105 . S
Sc2 O3 2.025 . S
Sc2 O12 2.105 . S
Sc2 O14 2.105 . S
Sc2 O18 2.105 . S
Sc2 O20 2.105 . S
O3 Sc0 2.025 . S
O3 Sc1 2.025 1_455 S
O3 Sc2 2.025 . S
C4 O10 1.268 . S
C4 O20 1.268 . S
C5 O11 1.268 . S
C5 O19 1.268 . S
C6 O12 1.268 . S
C6 O21 1.268 1_455 S
C7 O13 1.268 . S
C7 O17 1.268 . S
C8 O14 1.268 . S
C8 O16 1.268 . S
C9 O15 1.268 . S
C9 O18 1.268 1_655 S
O10 Sc0 2.105 . S
O10 C4 1.268 . S
O11 Sc1 2.105 . S
O11 C5 1.268 . S
O12 Sc2 2.105 . S
O12 C6 1.268 . S
O13 Sc0 2.105 1_655 S
O13 C7 1.268 . S
O14 Sc2 2.105 . S
O14 C8 1.268 . S
O15 Sc1 2.105 . S
O15 C9 1.268 . S
O16 Sc0 2.105 . S
O16 C8 1.268 . S
O17 Sc1 2.105 . S
O17 C7 1.268 . S
O18 Sc2 2.105 . S
O18 C9 1.268 1_455 S
O19 Sc0 2.105 1_655 S
O19 C5 1.268 . S
O20 Sc2 2.105 . S
O20 C4 1.268 . S
O21 Sc1 2.105 . S
O21 C6 1.268 1_655 S
Sc22 O25 2.025 . S
Sc22 O32 2.105 . S
Sc22 O35 2.105 . S
Sc22 O38 2.105 . S
Sc22 O41 2.105 . S
Sc23 O25 2.025 . S
Sc23 O33 2.105 . S
Sc23 O37 2.105 . S
Sc23 O39 2.105 . S
Sc23 O43 2.105 . S
Sc24 O25 2.025 . S
Sc24 O34 2.105 . S
Sc24 O36 2.105 . S
Sc24 O40 2.105 . S
Sc24 O42 2.105 . S
O25 Sc22 2.025 . S
O25 Sc23 2.025 . S
O25 Sc24 2.025 . S
C26 O32 1.268 . S
C26 O42 1.268 . S
C27 O33 1.268 . S
C27 O41 1.268 . S
C28 O34 1.268 . S
C28 O43 1.268 . S
C29 O35 1.268 . S
C29 O39 1.268 . S
C30 O36 1.268 . S
C30 O38 1.268 . S
C31 O37 1.268 . S
C31 O40 1.268 . S
O32 Sc22 2.105 . S
O32 C26 1.268 . S
O33 Sc23 2.105 . S
O33 C27 1.268 . S
O34 Sc24 2.105 . S
O34 C28 1.268 . S
O35 Sc22 2.105 . S
O35 C29 1.268 . S
O36 Sc24 2.105 . S
O36 C30 1.268 . S
O37 Sc23 2.105 . S
O37 C31 1.268 . S
O38 Sc22 2.105 . S
O38 C30 1.268 . S
O39 Sc23 2.105 . S
O39 C29 1.268 . S
O40 Sc24 2.105 . S
O40 C31 1.268 . S
O41 Sc22 2.105 . S
O41 C27 1.268 . S
O42 Sc24 2.105 . S
O42 C26 1.268 . S
O43 Sc23 2.105 . S
O43 C28 1.268 . S
Sc44 O47 2.025 . S
Sc44 O54 2.105 . S
Sc44 O57 2.105 . S
Sc44 O60 2.105 . S
Sc44 O63 2.105 . S
Sc45 O47 2.025 1_565 S
Sc45 O55 2.105 . S
Sc45 O59 2.105 . S
Sc45 O61 2.105 . S
Sc45 O65 2.105 . S
Sc46 O47 2.025 . S
Sc46 O56 2.105 1_545 S
Sc46 O58 2.105 . S
Sc46 O62 2.105 1_545 S
Sc46 O64 2.105 . S
O47 Sc44 2.025 . S
O47 Sc45 2.025 1_545 S
O47 Sc46 2.025 . S
C48 O54 1.268 . S
C48 O64 1.268 . S
C49 O55 1.268 . S
C49 O63 1.268 1_565 S
C50 O56 1.268 . S
C50 O65 1.268 . S
C51 O57 1.268 . S
C51 O61 1.268 1_545 S
C52 O58 1.268 . S
C52 O60 1.268 . S
C53 O59 1.268 . S
C53 O62 1.268 . S
O54 Sc44 2.105 . S
O54 C48 1.268 . S
O55 Sc45 2.105 . S
O55 C49 1.268 . S
O56 Sc46 2.105 1_565 S
O56 C50 1.268 . S
O57 Sc44 2.105 . S
O57 C51 1.268 . S
O58 Sc46 2.105 . S
O58 C52 1.268 . S
O59 Sc45 2.105 . S
O59 C53 1.268 . S
O60 Sc44 2.105 . S
O60 C52 1.268 . S
O61 Sc45 2.105 . S
O61 C51 1.268 1_565 S
O62 Sc46 2.105 1_565 S
O62 C53 1.268 . S
O63 Sc44 2.105 . S
O63 C49 1.268 1_545 S
O64 Sc46 2.105 . S
O64 C48 1.268 . S
O65 Sc45 2.105 . S
O65 C50 1.268 . S
Sc66 O69 2.025 . S
Sc66 O76 2.105 1_455 S
Sc66 O79 2.105 . S
Sc66 O82 2.105 1_455 S
Sc66 O85 2.105 . S
Sc67 O69 2.025 . S
Sc67 O77 2.105 . S
Sc67 O81 2.105 . S
Sc67 O83 2.105 . S
Sc67 O87 2.105 . S
Sc68 O69 2.025 1_655 S
Sc68 O78 2.105 . S
Sc68 O80 2.105 . S
Sc68 O84 2.105 . S
Sc68 O86 2.105 . S
O69 Sc66 2.025 . S
O69 Sc67 2.025 . S
O69 Sc68 2.025 1_455 S
C70 O76 1.268 . S
C70 O86 1.268 . S
C71 O77 1.268 . S
C71 O85 1.268 . S
C72 O78 1.268 1_455 S
C72 O87 1.268 . S
C73 O79 1.268 . S
C73 O83 1.268 . S
C74 O80 1.268 . S
C74 O82 1.268 . S
C75 O81 1.268 1_655 S
C75 O84 1.268 . S
O76 Sc66 2.105 1_655 S
O76 C70 1.268 . S
O77 Sc67 2.105 . S
O77 C71 1.268 . S
O78 Sc68 2.105 . S
O78 C72 1.268 1_655 S
O79 Sc66 2.105 . S
O79 C73 1.268 . S
O80 Sc68 2.105 . S
O80 C74 1.268 . S
O81 Sc67 2.105 . S
O81 C75 1.268 1_455 S
O82 Sc66 2.105 1_655 S
O82 C74 1.268 . S
O83 Sc67 2.105 . S
O83 C73 1.268 . S
O84 Sc68 2.105 . S
O84 C75 1.268 . S
O85 Sc66 2.105 . S
O85 C71 1.268 . S
O86 Sc68 2.105 . S
O86 C70 1.268 . S
O87 Sc67 2.105 . S
O87 C72 1.268 . S
Sc88 O91 2.025 . S
Sc88 O98 2.105 . S
Sc88 O101 2.105 . S
Sc88 O104 2.105 . S
Sc88 O107 2.105 . S
Sc89 O91 2.025 . S
Sc89 O99 2.105 . S
Sc89 O103 2.105 . S
Sc89 O105 2.105 . S
Sc89 O109 2.105 . S
Sc90 O91 2.025 . S
Sc90 O100 2.105 . S
Sc90 O102 2.105 . S
Sc90 O106 2.105 . S
Sc90 O108 2.105 . S
O91 Sc88 2.025 . S
O91 Sc89 2.025 . S
O91 Sc90 2.025 . S
C92 O98 1.268 . S
C92 O108 1.268 . S
C93 O99 1.268 . S
C93 O107 1.268 . S
C94 O100 1.268 . S
C94 O109 1.268 . S
C95 O101 1.268 . S
C95 O105 1.268 . S
C96 O102 1.268 . S
C96 O104 1.268 . S
C97 O103 1.268 . S
C97 O106 1.268 . S
O98 Sc88 2.105 . S
O98 C92 1.268 . S
O99 Sc89 2.105 . S
O99 C93 1.268 . S
O100 Sc90 2.105 . S
O100 C94 1.268 . S
O101 Sc88 2.105 . S
O101 C95 1.268 . S
O102 Sc90 2.105 . S
O102 C96 1.268 . S
O103 Sc89 2.105 . S
O103 C97 1.268 . S
O104 Sc88 2.105 . S
O104 C96 1.268 . S
O105 Sc89 2.105 . S
O105 C95 1.268 . S
O106 Sc90 2.105 . S
O106 C97 1.268 . S
O107 Sc88 2.105 . S
O107 C93 1.268 . S
O108 Sc90 2.105 . S
O108 C92 1.268 . S
O109 Sc89 2.105 . S
O109 C94 1.268 . S
Sc110 O113 2.025 1_565 S
Sc110 O120 2.105 . S
Sc110 O123 2.105 . S
Sc110 O126 2.105 . S
Sc110 O129 2.105 . S
Sc111 O113 2.025 . S
Sc111 O121 2.105 . S
Sc111 O125 2.105 . S
Sc111 O127 2.105 . S
Sc111 O131 2.105 . S
Sc112 O113 2.025 . S
Sc112 O122 2.105 . S
Sc112 O124 2.105 1_545 S
Sc112 O128 2.105 . S
Sc112 O130 2.105 1_545 S
O113 Sc110 2.025 1_545 S
O113 Sc111 2.025 . S
O113 Sc112 2.025 . S
C114 O120 1.268 . S
C114 O130 1.268 . S
C115 O121 1.268 1_565 S
C115 O129 1.268 . S
C116 O122 1.268 . S
C116 O131 1.268 . S
C117 O123 1.268 1_545 S
C117 O127 1.268 . S
C118 O124 1.268 . S
C118 O126 1.268 . S
C119 O125 1.268 . S
C119 O128 1.268 . S
O120 Sc110 2.105 . S
O120 C114 1.268 . S
O121 Sc111 2.105 . S
O121 C115 1.268 1_545 S
O122 Sc112 2.105 . S
O122 C116 1.268 . S
O123 Sc110 2.105 . S
O123 C117 1.268 1_565 S
O124 Sc112 2.105 1_565 S
O124 C118 1.268 . S
O125 Sc111 2.105 . S
O125 C119 1.268 . S
O126 Sc110 2.105 . S
O126 C118 1.268 . S
O127 Sc111 2.105 . S
O127 C117 1.268 . S
O128 Sc112 2.105 . S
O128 C119 1.268 . S
O129 Sc110 2.105 . S
O129 C115 1.268 . S
O130 Sc112 2.105 1_565 S
O130 C114 1.268 . S
O131 Sc111 2.105 . S
O131 C116 1.268 . S
Sc132 O135 2.025 . S
Sc132 O142 2.105 . S
Sc132 O145 2.105 . S
Sc132 O148 2.105 . S
Sc132 O151 2.105 . S
Sc133 O135 2.025 . S
Sc133 O143 2.105 . S
Sc133 O147 2.105 . S
Sc133 O149 2.105 . S
Sc133 O153 2.105 . S
Sc134 O135 2.025 . S
Sc134 O144 2.105 . S
Sc134 O146 2.105 . S
Sc134 O150 2.105 . S
Sc134 O152 2.105 . S
O135 Sc132 2.025 . S
O135 Sc133 2.025 . S
O135 Sc134 2.025 . S
C136 O142 1.268 . S
C136 O152 1.268 . S
C137 O143 1.268 . S
C137 O151 1.268 . S
C138 O144 1.268 . S
C138 O153 1.268 . S
C139 O145 1.268 . S
C139 O149 1.268 . S
C140 O146 1.268 . S
C140 O148 1.268 . S
C141 O147 1.268 . S
C141 O150 1.268 . S
O142 Sc132 2.105 . S
O142 C136 1.268 . S
O143 Sc133 2.105 . S
O143 C137 1.268 . S
O144 Sc134 2.105 . S
O144 C138 1.268 . S
O145 Sc132 2.105 . S
O145 C139 1.268 . S
O146 Sc134 2.105 . S
O146 C140 1.268 . S
O147 Sc133 2.105 . S
O147 C141 1.268 . S
O148 Sc132 2.105 . S
O148 C140 1.268 . S
O149 Sc133 2.105 . S
O149 C139 1.268 . S
O150 Sc134 2.105 . S
O150 C141 1.268 . S
O151 Sc132 2.105 . S
O151 C137 1.268 . S
O152 Sc134 2.105 . S
O152 C136 1.268 . S
O153 Sc133 2.105 . S
O153 C138 1.268 . S
Sc154 O157 2.025 . S
Sc154 O164 2.105 . S
Sc154 O167 2.105 . S
Sc154 O170 2.105 . S
Sc154 O173 2.105 . S
Sc155 O157 2.025 . S
Sc155 O165 2.105 . S
Sc155 O169 2.105 . S
Sc155 O171 2.105 . S
Sc155 O175 2.105 . S
Sc156 O157 2.025 . S
Sc156 O166 2.105 . S
Sc156 O168 2.105 . S
Sc156 O172 2.105 . S
Sc156 O174 2.105 . S
O157 Sc154 2.025 . S
O157 Sc155 2.025 . S
O157 Sc156 2.025 . S
C158 O164 1.268 . S
C158 O174 1.268 . S
C159 O165 1.268 . S
C159 O173 1.268 . S
C160 O166 1.268 . S
C160 O175 1.268 . S
C161 O167 1.268 . S
C161 O171 1.268 . S
C162 O168 1.268 . S
C162 O170 1.268 . S
C163 O169 1.268 . S
C163 O172 1.268 . S
O164 Sc154 2.105 . S
O164 C158 1.268 . S
O165 Sc155 2.105 . S
O165 C159 1.268 . S
O166 Sc156 2.105 . S
O166 C160 1.268 . S
O167 Sc154 2.105 . S
O167 C161 1.268 . S
O168 Sc156 2.105 . S
O168 C162 1.268 . S
O169 Sc155 2.105 . S
O169 C163 1.268 . S
O170 Sc154 2.105 . S
O170 C162 1.268 . S
O171 Sc155 2.105 . S
O171 C161 1.268 . S
O172 Sc156 2.105 . S
O172 C163 1.268 . S
O173 Sc154 2.105 . S
O173 C159 1.268 . S
O174 Sc156 2.105 . S
O174 C158 1.268 . S
O175 Sc155 2.105 . S
O175 C160 1.268 . S
Sc176 O179 2.025 . S
Sc176 O186 2.105 . S
Sc176 O189 2.105 . S
Sc176 O192 2.105 . S
Sc176 O195 2.105 . S
Sc177 O179 2.025 . S
Sc177 O187 2.105 . S
Sc177 O191 2.105 . S
Sc177 O193 2.105 . S
Sc177 O197 2.105 . S
Sc178 O179 2.025 . S
Sc178 O188 2.105 . S
Sc178 O190 2.105 . S
Sc178 O194 2.105 . S
Sc178 O196 2.105 . S
O179 Sc176 2.025 . S
O179 Sc177 2.025 . S
O179 Sc178 2.025 . S
C180 O186 1.268 . S
C180 O196 1.268 . S
C181 O187 1.268 . S
C181 O195 1.268 . S
C182 O188 1.268 . S
C182 O197 1.268 . S
C183 O189 1.268 . S
C183 O193 1.268 . S
C184 O190 1.268 . S
C184 O192 1.268 . S
C185 O191 1.268 . S
C185 O194 1.268 . S
O186 Sc176 2.105 . S
O186 C180 1.268 . S
O187 Sc177 2.105 . S
O187 C181 1.268 . S
O188 Sc178 2.105 . S
O188 C182 1.268 . S
O189 Sc176 2.105 . S
O189 C183 1.268 . S
O190 Sc178 2.105 . S
O190 C184 1.268 . S
O191 Sc177 2.105 . S
O191 C185 1.268 . S
O192 Sc176 2.105 . S
O192 C184 1.268 . S
O193 Sc177 2.105 . S
O193 C183 1.268 . S
O194 Sc178 2.105 . S
O194 C185 1.268 . S
O195 Sc176 2.105 . S
O195 C181 1.268 . S
O196 Sc178 2.105 . S
O196 C180 1.268 . S
O197 Sc177 2.105 . S
O197 C182 1.268 . S
Sc198 O201 2.025 . S
Sc198 O208 2.105 . S
Sc198 O211 2.105 . S
Sc198 O214 2.105 . S
Sc198 O217 2.105 . S
Sc199 O201 2.025 . S
Sc199 O209 2.105 . S
Sc199 O213 2.105 . S
Sc199 O215 2.105 . S
Sc199 O219 2.105 . S
Sc200 O201 2.025 . S
Sc200 O210 2.105 . S
Sc200 O212 2.105 . S
Sc200 O216 2.105 . S
Sc200 O218 2.105 . S
O201 Sc198 2.025 . S
O201 Sc199 2.025 . S
O201 Sc200 2.025 . S
C202 O208 1.268 . S
C202 O218 1.268 . S
C203 O209 1.268 . S
C203 O217 1.268 . S
C204 O210 1.268 . S
C204 O219 1.268 . S
C205 O211 1.268 . S
C205 O215 1.268 . S
C206 O212 1.268 . S
C206 O214 1.268 . S
C207 O213 1.268 . S
C207 O216 1.268 . S
O208 Sc198 2.105 . S
O208 C202 1.268 . S
O209 Sc199 2.105 . S
O209 C203 1.268 . S
O210 Sc200 2.105 . S
O210 C204 1.268 . S
O211 Sc198 2.105 . S
O211 C205 1.268 . S
O212 Sc200 2.105 . S
O212 C206 1.268 . S
O213 Sc199 2.105 . S
O213 C207 1.268 . S
O214 Sc198 2.105 . S
O214 C206 1.268 . S
O215 Sc199 2.105 . S
O215 C205 1.268 . S
O216 Sc200 2.105 . S
O216 C207 1.268 . S
O217 Sc198 2.105 . S
O217 C203 1.268 . S
O218 Sc200 2.105 . S
O218 C202 1.268 . S
O219 Sc199 2.105 . S
O219 C204 1.268 . S
Sc220 O223 2.025 . S
Sc220 O230 2.105 . S
Sc220 O233 2.105 . S
Sc220 O236 2.105 . S
Sc220 O239 2.105 . S
Sc221 O223 2.025 . S
Sc221 O231 2.105 . S
Sc221 O235 2.105 . S
Sc221 O237 2.105 . S
Sc221 O241 2.105 . S
Sc222 O223 2.025 . S
Sc222 O232 2.105 . S
Sc222 O234 2.105 . S
Sc222 O238 2.105 . S
Sc222 O240 2.105 . S
O223 Sc220 2.025 . S
O223 Sc221 2.025 . S
O223 Sc222 2.025 . S
C224 O230 1.268 . S
C224 O240 1.268 . S
C225 O231 1.268 . S
C225 O239 1.268 . S
C226 O232 1.268 . S
C226 O241 1.268 . S
C227 O233 1.268 . S
C227 O237 1.268 . S
C228 O234 1.268 . S
C228 O236 1.268 . S
C229 O235 1.268 . S
C229 O238 1.268 . S
O230 Sc220 2.105 . S
O230 C224 1.268 . S
O231 Sc221 2.105 . S
O231 C225 1.268 . S
O232 Sc222 2.105 . S
O232 C226 1.268 . S
O233 Sc220 2.105 . S
O233 C227 1.268 . S
O234 Sc222 2.105 . S
O234 C228 1.268 . S
O235 Sc221 2.105 . S
O235 C229 1.268 . S
O236 Sc220 2.105 . S
O236 C228 1.268 . S
O237 Sc221 2.105 . S
O237 C227 1.268 . S
O238 Sc222 2.105 . S
O238 C229 1.268 . S
O239 Sc220 2.105 . S
O239 C225 1.268 . S
O240 Sc222 2.105 . S
O240 C224 1.268 . S
O241 Sc221 2.105 . S
O241 C226 1.268 . S
Sc242 O245 2.025 . S
Sc242 O252 2.105 . S
Sc242 O255 2.105 . S
Sc242 O258 2.105 . S
Sc242 O261 2.105 . S
Sc243 O245 2.025 . S
Sc243 O253 2.105 . S
Sc243 O257 2.105 . S
Sc243 O259 2.105 . S
Sc243 O263 2.105 . S
Sc244 O245 2.025 . S
Sc244 O254 2.105 . S
Sc244 O256 2.105 . S
Sc244 O260 2.105 . S
Sc244 O262 2.105 . S
O245 Sc242 2.025 . S
O245 Sc243 2.025 . S
O245 Sc244 2.025 . S
C246 O252 1.268 . S
C246 O262 1.268 . S
C247 O253 1.268 . S
C247 O261 1.268 . S
C248 O254 1.268 . S
C248 O263 1.268 . S
C249 O255 1.268 . S
C249 O259 1.268 . S
C250 O256 1.268 . S
C250 O258 1.268 . S
C251 O257 1.268 . S
C251 O260 1.268 . S
O252 Sc242 2.105 . S
O252 C246 1.268 . S
O253 Sc243 2.105 . S
O253 C247 1.268 . S
O254 Sc244 2.105 . S
O254 C248 1.268 . S
O255 Sc242 2.105 . S
O255 C249 1.268 . S
O256 Sc244 2.105 . S
O256 C250 1.268 . S
O257 Sc243 2.105 . S
O257 C251 1.268 . S
O258 Sc242 2.105 . S
O258 C250 1.268 . S
O259 Sc243 2.105 . S
O259 C249 1.268 . S
O260 Sc244 2.105 . S
O260 C251 1.268 . S
O261 Sc242 2.105 . S
O261 C247 1.268 . S
O262 Sc244 2.105 . S
O262 C246 1.268 . S
O263 Sc243 2.105 . S
O263 C248 1.268 . S
Sc264 O267 2.025 . S
Sc264 O274 2.105 . S
Sc264 O277 2.105 . S
Sc264 O280 2.105 . S
Sc264 O283 2.105 . S
Sc265 O267 2.025 . S
Sc265 O275 2.105 . S
Sc265 O279 2.105 . S
Sc265 O281 2.105 . S
Sc265 O285 2.105 . S
Sc266 O267 2.025 . S
Sc266 O276 2.105 . S
Sc266 O278 2.105 . S
Sc266 O282 2.105 . S
Sc266 O284 2.105 . S
O267 Sc264 2.025 . S
O267 Sc265 2.025 . S
O267 Sc266 2.025 . S
C268 O274 1.268 . S
C268 O284 1.268 . S
C269 O275 1.268 . S
C269 O283 1.268 . S
C270 O276 1.268 . S
C270 O285 1.268 . S
C271 O277 1.268 . S
C271 O281 1.268 . S
C272 O278 1.268 . S
C272 O280 1.268 . S
C273 O279 1.268 . S
C273 O282 1.268 . S
O274 Sc264 2.105 . S
O274 C268 1.268 . S
O275 Sc265 2.105 . S
O275 C269 1.268 . S
O276 Sc266 2.105 . S
O276 C270 1.268 . S
O277 Sc264 2.105 . S
O277 C271 1.268 . S
O278 Sc266 2.105 . S
O278 C272 1.268 . S
O279 Sc265 2.105 . S
O279 C273 1.268 . S
O280 Sc264 2.105 . S
O280 C272 1.268 . S
O281 Sc265 2.105 . S
O281 C271 1.268 . S
O282 Sc266 2.105 . S
O282 C273 1.268 . S
O283 Sc264 2.105 . S
O283 C269 1.268 . S
O284 Sc266 2.105 . S
O284 C268 1.268 . S
O285 Sc265 2.105 . S
O285 C270 1.268 . S
Sc286 O289 2.025 . S
Sc286 O296 2.105 . S
Sc286 O299 2.105 . S
Sc286 O302 2.105 . S
Sc286 O305 2.105 . S
Sc287 O289 2.025 . S
Sc287 O297 2.105 . S
Sc287 O301 2.105 . S
Sc287 O303 2.105 . S
Sc287 O307 2.105 . S
Sc288 O289 2.025 . S
Sc288 O298 2.105 . S
Sc288 O300 2.105 . S
Sc288 O304 2.105 . S
Sc288 O306 2.105 . S
O289 Sc286 2.025 . S
O289 Sc287 2.025 . S
O289 Sc288 2.025 . S
C290 O296 1.268 . S
C290 O306 1.268 . S
C291 O297 1.268 . S
C291 O305 1.268 . S
C292 O298 1.268 . S
C292 O307 1.268 . S
C293 O299 1.268 . S
C293 O303 1.268 . S
C294 O300 1.268 . S
C294 O302 1.268 . S
C295 O301 1.268 . S
C295 O304 1.268 . S
O296 Sc286 2.105 . S
O296 C290 1.268 . S
O297 Sc287 2.105 . S
O297 C291 1.268 . S
O298 Sc288 2.105 . S
O298 C292 1.268 . S
O299 Sc286 2.105 . S
O299 C293 1.268 . S
O300 Sc288 2.105 . S
O300 C294 1.268 . S
O301 Sc287 2.105 . S
O301 C295 1.268 . S
O302 Sc286 2.105 . S
O302 C294 1.268 . S
O303 Sc287 2.105 . S
O303 C293 1.268 . S
O304 Sc288 2.105 . S
O304 C295 1.268 . S
O305 Sc286 2.105 . S
O305 C291 1.268 . S
O306 Sc288 2.105 . S
O306 C290 1.268 . S
O307 Sc287 2.105 . S
O307 C292 1.268 . S
Sc308 O311 2.025 . S
Sc308 O318 2.105 . S
Sc308 O321 2.105 . S
Sc308 O324 2.105 . S
Sc308 O327 2.105 . S
Sc309 O311 2.025 . S
Sc309 O319 2.105 . S
Sc309 O323 2.105 . S
Sc309 O325 2.105 . S
Sc309 O329 2.105 . S
Sc310 O311 2.025 . S
Sc310 O320 2.105 . S
Sc310 O322 2.105 . S
Sc310 O326 2.105 . S
Sc310 O328 2.105 . S
O311 Sc308 2.025 . S
O311 Sc309 2.025 . S
O311 Sc310 2.025 . S
C312 O318 1.268 . S
C312 O328 1.268 . S
C313 O319 1.268 . S
C313 O327 1.268 . S
C314 O320 1.268 . S
C314 O329 1.268 . S
C315 O321 1.268 . S
C315 O325 1.268 . S
C316 O322 1.268 . S
C316 O324 1.268 . S
C317 O323 1.268 . S
C317 O326 1.268 . S
O318 Sc308 2.105 . S
O318 C312 1.268 . S
O319 Sc309 2.105 . S
O319 C313 1.268 . S
O320 Sc310 2.105 . S
O320 C314 1.268 . S
O321 Sc308 2.105 . S
O321 C315 1.268 . S
O322 Sc310 2.105 . S
O322 C316 1.268 . S
O323 Sc309 2.105 . S
O323 C317 1.268 . S
O324 Sc308 2.105 . S
O324 C316 1.268 . S
O325 Sc309 2.105 . S
O325 C315 1.268 . S
O326 Sc310 2.105 . S
O326 C317 1.268 . S
O327 Sc308 2.105 . S
O327 C313 1.268 . S
O328 Sc310 2.105 . S
O328 C312 1.268 . S
O329 Sc309 2.105 . S
O329 C314 1.268 . S
Sc330 O333 2.025 . S
Sc330 O340 2.105 . S
Sc330 O343 2.105 . S
Sc330 O346 2.105 . S
Sc330 O349 2.105 . S
Sc331 O333 2.025 . S
Sc331 O341 2.105 . S
Sc331 O345 2.105 . S
Sc331 O347 2.105 . S
Sc331 O351 2.105 . S
Sc332 O333 2.025 . S
Sc332 O342 2.105 . S
Sc332 O344 2.105 . S
Sc332 O348 2.105 . S
Sc332 O350 2.105 . S
O333 Sc330 2.025 . S
O333 Sc331 2.025 . S
O333 Sc332 2.025 . S
C334 O340 1.268 . S
C334 O350 1.268 . S
C335 O341 1.268 . S
C335 O349 1.268 . S
C336 O342 1.268 . S
C336 O351 1.268 . S
C337 O343 1.268 . S
C337 O347 1.268 . S
C338 O344 1.268 . S
C338 O346 1.268 . S
C339 O345 1.268 . S
C339 O348 1.268 . S
O340 Sc330 2.105 . S
O340 C334 1.268 . S
O341 Sc331 2.105 . S
O341 C335 1.268 . S
O342 Sc332 2.105 . S
O342 C336 1.268 . S
O343 Sc330 2.105 . S
O343 C337 1.268 . S
O344 Sc332 2.105 . S
O344 C338 1.268 . S
O345 Sc331 2.105 . S
O345 C339 1.268 . S
O346 Sc330 2.105 . S
O346 C338 1.268 . S
O347 Sc331 2.105 . S
O347 C337 1.268 . S
O348 Sc332 2.105 . S
O348 C339 1.268 . S
O349 Sc330 2.105 . S
O349 C335 1.268 . S
O350 Sc332 2.105 . S
O350 C334 1.268 . S
O351 Sc331 2.105 . S
O351 C336 1.268 . S
Sc352 O355 2.025 . S
Sc352 O362 2.105 . S
Sc352 O365 2.105 . S
Sc352 O368 2.105 . S
Sc352 O371 2.105 . S
Sc353 O355 2.025 . S
Sc353 O363 2.105 . S
Sc353 O367 2.105 . S
Sc353 O369 2.105 . S
Sc353 O373 2.105 . S
Sc354 O355 2.025 . S
Sc354 O364 2.105 . S
Sc354 O366 2.105 . S
Sc354 O370 2.105 . S
Sc354 O372 2.105 . S
O355 Sc352 2.025 . S
O355 Sc353 2.025 . S
O355 Sc354 2.025 . S
C356 O362 1.268 . S
C356 O372 1.268 . S
C357 O363 1.268 . S
C357 O371 1.268 . S
C358 O364 1.268 . S
C358 O373 1.268 . S
C359 O365 1.268 . S
C359 O369 1.268 . S
C360 O366 1.268 . S
C360 O368 1.268 . S
C361 O367 1.268 . S
C361 O370 1.268 . S
O362 Sc352 2.105 . S
O362 C356 1.268 . S
O363 Sc353 2.105 . S
O363 C357 1.268 . S
O364 Sc354 2.105 . S
O364 C358 1.268 . S
O365 Sc352 2.105 . S
O365 C359 1.268 . S
O366 Sc354 2.105 . S
O366 C360 1.268 . S
O367 Sc353 2.105 . S
O367 C361 1.268 . S
O368 Sc352 2.105 . S
O368 C360 1.268 . S
O369 Sc353 2.105 . S
O369 C359 1.268 . S
O370 Sc354 2.105 . S
O370 C361 1.268 . S
O371 Sc352 2.105 . S
O371 C357 1.268 . S
O372 Sc354 2.105 . S
O372 C356 1.268 . S
O373 Sc353 2.105 . S
O373 C358 1.268 . S
Sc374 O377 2.025 . S
Sc374 O384 2.105 . S
Sc374 O387 2.105 . S
Sc374 O390 2.105 . S
Sc374 O393 2.105 . S
Sc375 O377 2.025 . S
Sc375 O385 2.105 . S
Sc375 O389 2.105 . S
Sc375 O391 2.105 . S
Sc375 O395 2.105 . S
Sc376 O377 2.025 . S
Sc376 O386 2.105 . S
Sc376 O388 2.105 . S
Sc376 O392 2.105 . S
Sc376 O394 2.105 . S
O377 Sc374 2.025 . S
O377 Sc375 2.025 . S
O377 Sc376 2.025 . S
C378 O384 1.268 . S
C378 O394 1.268 . S
C379 O385 1.268 . S
C379 O393 1.268 . S
C380 O386 1.268 . S
C380 O395 1.268 . S
C381 O387 1.268 . S
C381 O391 1.268 . S
C382 O388 1.268 . S
C382 O390 1.268 . S
C383 O389 1.268 . S
C383 O392 1.268 . S
O384 Sc374 2.105 . S
O384 C378 1.268 . S
O385 Sc375 2.105 . S
O385 C379 1.268 . S
O386 Sc376 2.105 . S
O386 C380 1.268 . S
O387 Sc374 2.105 . S
O387 C381 1.268 . S
O388 Sc376 2.105 . S
O388 C382 1.268 . S
O389 Sc375 2.105 . S
O389 C383 1.268 . S
O390 Sc374 2.105 . S
O390 C382 1.268 . S
O391 Sc375 2.105 . S
O391 C381 1.268 . S
O392 Sc376 2.105 . S
O392 C383 1.268 . S
O393 Sc374 2.105 . S
O393 C379 1.268 . S
O394 Sc376 2.105 . S
O394 C378 1.268 . S
O395 Sc375 2.105 . S
O395 C380 1.268 . S
C396 C397 1.349 . S
C396 C398 1.327 . S
C396 H421 0.950 . S
C397 C396 1.349 . S
C397 C413 1.349 . S
C398 C396 1.327 . S
C398 C417 1.429 . S
C398 H422 0.950 . S
C399 C416 1.574 . S
C399 C418 1.368 . S
C399 H423 0.949 . S
H400 C404 0.949 . S
C401 C402 1.349 . S
C401 C403 1.327 . S
C401 H424 0.950 . S
C402 C401 1.349 . S
C402 C414 1.349 . S
C403 C401 1.327 . S
C403 C419 1.429 . S
C403 H425 0.950 . S
C404 H400 0.949 . S
C404 C412 1.574 . S
C404 C420 1.368 . S
H405 C413 0.950 . S
H406 C411 0.950 . S
H407 C412 0.949 . S
H408 C414 0.950 . S
H409 C415 0.950 . S
H410 C416 0.949 . S
C411 H406 0.950 . S
C411 C413 1.327 . S
C411 C417 1.429 . S
C412 C404 1.574 . S
C412 H407 0.949 . S
C412 C418 1.368 . S
C413 C397 1.349 . S
C413 H405 0.950 . S
C413 C411 1.327 . S
C414 C402 1.349 . S
C414 H408 0.950 . S
C414 C415 1.327 . S
C415 H409 0.950 . S
C415 C414 1.327 . S
C415 C419 1.429 . S
C416 C399 1.574 . S
C416 H410 0.949 . S
C416 C420 1.368 . S
C417 C398 1.429 . S
C417 C411 1.429 . S
C417 C418 1.523 . S
C418 C399 1.368 . S
C418 C412 1.368 . S
C418 C417 1.523 . S
C419 C403 1.429 . S
C419 C415 1.429 . S
C419 C420 1.523 . S
C420 C404 1.368 . S
C420 C416 1.368 . S
C420 C419 1.523 . S
H421 C396 0.950 . S
H422 C398 0.950 . S
H423 C399 0.949 . S
H424 C401 0.950 . S
H425 C403 0.950 . S
C426 C427 1.349 . S
C426 C428 1.327 . S
C426 H451 0.950 . S
C427 C426 1.349 . S
C427 C443 1.349 . S
C428 C426 1.327 . S
C428 C447 1.429 . S
C428 H452 0.950 . S
C429 C446 1.574 . S
C429 C448 1.368 . S
C429 H453 0.949 . S
H430 C434 0.949 . S
C431 C432 1.349 . S
C431 C433 1.327 . S
C431 H454 0.950 . S
C432 C431 1.349 . S
C432 C444 1.349 . S
C433 C431 1.327 . S
C433 C449 1.429 . S
C433 H455 0.950 . S
C434 H430 0.949 . S
C434 C442 1.574 . S
C434 C450 1.368 . S
H435 C443 0.950 . S
H436 C441 0.950 . S
H437 C442 0.949 . S
H438 C444 0.950 . S
H439 C445 0.950 . S
H440 C446 0.949 . S
C441 H436 0.950 . S
C441 C443 1.327 . S
C441 C447 1.429 . S
C442 C434 1.574 . S
C442 H437 0.949 . S
C442 C448 1.368 . S
C443 C427 1.349 . S
C443 H435 0.950 . S
C443 C441 1.327 . S
C444 C432 1.349 . S
C444 H438 0.950 . S
C444 C445 1.327 . S
C445 H439 0.950 . S
C445 C444 1.327 . S
C445 C449 1.429 . S
C446 C429 1.574 . S
C446 H440 0.949 . S
C446 C450 1.368 . S
C447 C428 1.429 . S
C447 C441 1.429 . S
C447 C448 1.523 . S
C448 C429 1.368 . S
C448 C442 1.368 . S
C448 C447 1.523 . S
C449 C433 1.429 . S
C449 C445 1.429 . S
C449 C450 1.523 . S
C450 C434 1.368 . S
C450 C446 1.368 . S
C450 C449 1.523 . S
H451 C426 0.950 . S
H452 C428 0.950 . S
H453 C429 0.949 . S
H454 C431 0.950 . S
H455 C433 0.950 . S
C456 C457 1.349 . S
C456 C458 1.327 . S
C456 H481 0.950 . S
C457 C456 1.349 . S
C457 C473 1.349 . S
C458 C456 1.327 . S
C458 C477 1.429 . S
C458 H482 0.950 . S
C459 C476 1.574 . S
C459 C478 1.368 . S
C459 H483 0.949 . S
H460 C464 0.949 . S
C461 C462 1.349 . S
C461 C463 1.327 . S
C461 H484 0.950 . S
C462 C461 1.349 . S
C462 C474 1.349 . S
C463 C461 1.327 . S
C463 C479 1.429 . S
C463 H485 0.950 . S
C464 H460 0.949 . S
C464 C472 1.574 . S
C464 C480 1.368 . S
H465 C473 0.950 1_545 S
H466 C471 0.950 . S
H467 C472 0.949 . S
H468 C474 0.950 . S
H469 C475 0.950 . S
H470 C476 0.949 . S
C471 H466 0.950 . S
C471 C473 1.327 . S
C471 C477 1.429 . S
C472 C464 1.574 . S
C472 H467 0.949 . S
C472 C478 1.368 . S
C473 C457 1.349 . S
C473 H465 0.950 1_565 S
C473 C471 1.327 . S
C474 C462 1.349 . S
C474 H468 0.950 . S
C474 C475 1.327 . S
C475 H469 0.950 . S
C475 C474 1.327 . S
C475 C479 1.429 . S
C476 C459 1.574 . S
C476 H470 0.949 . S
C476 C480 1.368 . S
C477 C458 1.429 . S
C477 C471 1.429 . S
C477 C478 1.523 . S
C478 C459 1.368 . S
C478 C472 1.368 . S
C478 C477 1.523 . S
C479 C463 1.429 . S
C479 C475 1.429 . S
C479 C480 1.523 . S
C480 C464 1.368 . S
C480 C476 1.368 . S
C480 C479 1.523 . S
H481 C456 0.950 . S
H482 C458 0.950 . S
H483 C459 0.949 . S
H484 C461 0.950 . S
H485 C463 0.950 . S
C486 C487 1.349 . S
C486 C488 1.327 . S
C486 H511 0.950 . S
C487 C486 1.349 . S
C487 C503 1.349 . S
C488 C486 1.327 . S
C488 C507 1.429 . S
C488 H512 0.950 . S
C489 C506 1.574 . S
C489 C508 1.368 . S
C489 H513 0.949 . S
H490 C494 0.949 . S
C491 C492 1.349 . S
C491 C493 1.327 . S
C491 H514 0.950 1_545 S
C492 C491 1.349 . S
C492 C504 1.349 . S
C493 C491 1.327 . S
C493 C509 1.429 . S
C493 H515 0.950 . S
C494 H490 0.949 . S
C494 C502 1.574 . S
C494 C510 1.368 . S
H495 C503 0.950 . S
H496 C501 0.950 . S
H497 C502 0.949 . S
H498 C504 0.950 . S
H499 C505 0.950 . S
H500 C506 0.949 . S
C501 H496 0.950 . S
C501 C503 1.327 . S
C501 C507 1.429 . S
C502 C494 1.574 . S
C502 H497 0.949 . S
C502 C508 1.368 . S
C503 C487 1.349 . S
C503 H495 0.950 . S
C503 C501 1.327 . S
C504 C492 1.349 . S
C504 H498 0.950 . S
C504 C505 1.327 . S
C505 H499 0.950 . S
C505 C504 1.327 . S
C505 C509 1.429 . S
C506 C489 1.574 . S
C506 H500 0.949 . S
C506 C510 1.368 . S
C507 C488 1.429 . S
C507 C501 1.429 . S
C507 C508 1.523 . S
C508 C489 1.368 . S
C508 C502 1.368 . S
C508 C507 1.523 . S
C509 C493 1.429 . S
C509 C505 1.429 . S
C509 C510 1.523 . S
C510 C494 1.368 . S
C510 C506 1.368 . S
C510 C509 1.523 . S
H511 C486 0.950 . S
H512 C488 0.950 . S
H513 C489 0.949 . S
H514 C491 0.950 1_565 S
H515 C493 0.950 . S
C516 C517 1.349 . S
C516 C518 1.327 . S
C516 H541 0.950 . S
C517 C516 1.349 . S
C517 C533 1.349 . S
C518 C516 1.327 . S
C518 C537 1.429 . S
C518 H542 0.950 . S
C519 C536 1.574 . S
C519 C538 1.368 . S
C519 H543 0.949 . S
H520 C524 0.949 . S
C521 C522 1.349 . S
C521 C523 1.327 . S
C521 H544 0.950 . S
C522 C521 1.349 . S
C522 C534 1.349 . S
C523 C521 1.327 . S
C523 C539 1.429 . S
C523 H545 0.950 . S
C524 H520 0.949 . S
C524 C532 1.574 . S
C524 C540 1.368 . S
H525 C533 0.950 . S
H526 C531 0.950 . S
H527 C532 0.949 . S
H528 C534 0.950 . S
H529 C535 0.950 . S
H530 C536 0.949 . S
C531 H526 0.950 . S
C531 C533 1.327 . S
C531 C537 1.429 . S
C532 C524 1.574 . S
C532 H527 0.949 . S
C532 C538 1.368 . S
C533 C517 1.349 . S
C533 H525 0.950 . S
C533 C531 1.327 . S
C534 C522 1.349 . S
C534 H528 0.950 . S
C534 C535 1.327 . S
C535 H529 0.950 . S
C535 C534 1.327 . S
C535 C539 1.429 . S
C536 C519 1.574 . S
C536 H530 0.949 . S
C536 C540 1.368 . S
C537 C518 1.429 . S
C537 C531 1.429 . S
C537 C538 1.523 . S
C538 C519 1.368 . S
C538 C532 1.368 . S
C538 C537 1.523 . S
C539 C523 1.429 . S
C539 C535 1.429 . S
C539 C540 1.523 . S
C540 C524 1.368 . S
C540 C536 1.368 . S
C540 C539 1.523 . S
H541 C516 0.950 . S
H542 C518 0.950 . S
H543 C519 0.949 . S
H544 C521 0.950 . S
H545 C523 0.950 . S
C546 C547 1.349 . S
C546 C548 1.327 . S
C546 H571 0.950 . S
C547 C546 1.349 . S
C547 C563 1.349 . S
C548 C546 1.327 . S
C548 C567 1.429 . S
C548 H572 0.950 . S
C549 C566 1.574 . S
C549 C568 1.368 . S
C549 H573 0.949 . S
H550 C554 0.949 . S
C551 C552 1.349 . S
C551 C553 1.327 . S
C551 H574 0.950 . S
C552 C551 1.349 . S
C552 C564 1.349 . S
C553 C551 1.327 . S
C553 C569 1.429 . S
C553 H575 0.950 . S
C554 H550 0.949 . S
C554 C562 1.574 . S
C554 C570 1.368 . S
H555 C563 0.950 . S
H556 C561 0.950 . S
H557 C562 0.949 . S
H558 C564 0.950 . S
H559 C565 0.950 . S
H560 C566 0.949 . S
C561 H556 0.950 . S
C561 C563 1.327 . S
C561 C567 1.429 . S
C562 C554 1.574 . S
C562 H557 0.949 . S
C562 C568 1.368 . S
C563 C547 1.349 . S
C563 H555 0.950 . S
C563 C561 1.327 . S
C564 C552 1.349 . S
C564 H558 0.950 . S
C564 C565 1.327 . S
C565 H559 0.950 . S
C565 C564 1.327 . S
C565 C569 1.429 . S
C566 C549 1.574 . S
C566 H560 0.949 . S
C566 C570 1.368 . S
C567 C548 1.429 . S
C567 C561 1.429 . S
C567 C568 1.523 . S
C568 C549 1.368 . S
C568 C562 1.368 . S
C568 C567 1.523 . S
C569 C553 1.429 . S
C569 C565 1.429 . S
C569 C570 1.523 . S
C570 C554 1.368 . S
C570 C566 1.368 . S
C570 C569 1.523 . S
H571 C546 0.950 . S
H572 C548 0.950 . S
H573 C549 0.949 . S
H574 C551 0.950 . S
H575 C553 0.950 . S
C576 C577 1.349 . S
C576 C578 1.327 . S
C576 H601 0.950 . S
C577 C576 1.349 . S
C577 C593 1.349 . S
C578 C576 1.327 . S
C578 C597 1.429 . S
C578 H602 0.950 . S
C579 C596 1.574 . S
C579 C598 1.368 . S
C579 H603 0.949 . S
H580 C584 0.949 . S
C581 C582 1.349 . S
C581 C583 1.327 . S
C581 H604 0.950 . S
C582 C581 1.349 . S
C582 C594 1.349 . S
C583 C581 1.327 . S
C583 C599 1.429 . S
C583 H605 0.950 . S
C584 H580 0.949 . S
C584 C592 1.574 . S
C584 C600 1.368 . S
H585 C593 0.950 . S
H586 C591 0.950 . S
H587 C592 0.949 . S
H588 C594 0.950 . S
H589 C595 0.950 . S
H590 C596 0.949 . S
C591 H586 0.950 . S
C591 C593 1.327 . S
C591 C597 1.429 . S
C592 C584 1.574 . S
C592 H587 0.949 . S
C592 C598 1.368 . S
C593 C577 1.349 . S
C593 H585 0.950 . S
C593 C591 1.327 . S
C594 C582 1.349 . S
C594 H588 0.950 . S
C594 C595 1.327 . S
C595 H589 0.950 . S
C595 C594 1.327 . S
C595 C599 1.429 . S
C596 C579 1.574 . S
C596 H590 0.949 . S
C596 C600 1.368 . S
C597 C578 1.429 . S
C597 C591 1.429 . S
C597 C598 1.523 . S
C598 C579 1.368 . S
C598 C592 1.368 . S
C598 C597 1.523 . S
C599 C583 1.429 . S
C599 C595 1.429 . S
C599 C600 1.523 . S
C600 C584 1.368 . S
C600 C596 1.368 . S
C600 C599 1.523 . S
H601 C576 0.950 . S
H602 C578 0.950 . S
H603 C579 0.949 . S
H604 C581 0.950 . S
H605 C583 0.950 . S
C606 C607 1.349 . S
C606 C608 1.327 . S
C606 H631 0.950 . S
C607 C606 1.349 . S
C607 C623 1.349 . S
C608 C606 1.327 . S
C608 C627 1.429 . S
C608 H632 0.950 . S
C609 C626 1.574 . S
C609 C628 1.368 . S
C609 H633 0.949 . S
H610 C614 0.949 . S
C611 C612 1.349 . S
C611 C613 1.327 . S
C611 H634 0.950 . S
C612 C611 1.349 . S
C612 C624 1.349 . S
C613 C611 1.327 . S
C613 C629 1.429 . S
C613 H635 0.950 . S
C614 H610 0.949 . S
C614 C622 1.574 . S
C614 C630 1.368 . S
H615 C623 0.950 . S
H616 C621 0.950 . S
H617 C622 0.949 . S
H618 C624 0.950 . S
H619 C625 0.950 . S
H620 C626 0.949 . S
C621 H616 0.950 . S
C621 C623 1.327 . S
C621 C627 1.429 . S
C622 C614 1.574 . S
C622 H617 0.949 . S
C622 C628 1.368 . S
C623 C607 1.349 . S
C623 H615 0.950 . S
C623 C621 1.327 . S
C624 C612 1.349 . S
C624 H618 0.950 . S
C624 C625 1.327 . S
C625 H619 0.950 . S
C625 C624 1.327 . S
C625 C629 1.429 . S
C626 C609 1.574 . S
C626 H620 0.949 . S
C626 C630 1.368 . S
C627 C608 1.429 . S
C627 C621 1.429 . S
C627 C628 1.523 . S
C628 C609 1.368 . S
C628 C622 1.368 . S
C628 C627 1.523 . S
C629 C613 1.429 . S
C629 C625 1.429 . S
C629 C630 1.523 . S
C630 C614 1.368 . S
C630 C626 1.368 . S
C630 C629 1.523 . S
H631 C606 0.950 . S
H632 C608 0.950 . S
H633 C609 0.949 . S
H634 C611 0.950 . S
H635 C613 0.950 . S
C636 C637 1.349 . S
C636 C638 1.327 . S
C636 H661 0.950 1_545 S
C637 C636 1.349 . S
C637 C653 1.349 . S
C638 C636 1.327 . S
C638 C657 1.429 . S
C638 H662 0.950 . S
C639 C656 1.574 . S
C639 C658 1.368 . S
C639 H663 0.949 . S
H640 C644 0.949 . S
C641 C642 1.349 . S
C641 C643 1.327 . S
C641 H664 0.950 . S
C642 C641 1.349 . S
C642 C654 1.349 . S
C643 C641 1.327 . S
C643 C659 1.429 . S
C643 H665 0.950 . S
C644 H640 0.949 . S
C644 C652 1.574 . S
C644 C660 1.368 . S
H645 C653 0.950 . S
H646 C651 0.950 . S
H647 C652 0.949 . S
H648 C654 0.950 . S
H649 C655 0.950 . S
H650 C656 0.949 . S
C651 H646 0.950 . S
C651 C653 1.327 . S
C651 C657 1.429 . S
C652 C644 1.574 . S
C652 H647 0.949 . S
C652 C658 1.368 . S
C653 C637 1.349 . S
C653 H645 0.950 . S
C653 C651 1.327 . S
C654 C642 1.349 . S
C654 H648 0.950 . S
C654 C655 1.327 . S
C655 H649 0.950 . S
C655 C654 1.327 . S
C655 C659 1.429 . S
C656 C639 1.574 . S
C656 H650 0.949 . S
C656 C660 1.368 . S
C657 C638 1.429 . S
C657 C651 1.429 . S
C657 C658 1.523 . S
C658 C639 1.368 . S
C658 C652 1.368 . S
C658 C657 1.523 . S
C659 C643 1.429 . S
C659 C655 1.429 . S
C659 C660 1.523 . S
C660 C644 1.368 . S
C660 C656 1.368 . S
C660 C659 1.523 . S
H661 C636 0.950 1_565 S
H662 C638 0.950 . S
H663 C639 0.949 . S
H664 C641 0.950 . S
H665 C643 0.950 . S
C666 C667 1.349 . S
C666 C668 1.327 . S
C666 H691 0.950 . S
C667 C666 1.349 . S
C667 C683 1.349 . S
C668 C666 1.327 . S
C668 C687 1.429 . S
C668 H692 0.950 . S
C669 C686 1.574 . S
C669 C688 1.368 . S
C669 H693 0.949 . S
H670 C674 0.949 . S
C671 C672 1.349 . S
C671 C673 1.327 . S
C671 H694 0.950 . S
C672 C671 1.349 . S
C672 C684 1.349 . S
C673 C671 1.327 . S
C673 C689 1.429 . S
C673 H695 0.950 . S
C674 H670 0.949 . S
C674 C682 1.574 . S
C674 C690 1.368 . S
H675 C683 0.950 . S
H676 C681 0.950 . S
H677 C682 0.949 . S
H678 C684 0.950 . S
H679 C685 0.950 . S
H680 C686 0.949 . S
C681 H676 0.950 . S
C681 C683 1.327 . S
C681 C687 1.429 . S
C682 C674 1.574 . S
C682 H677 0.949 . S
C682 C688 1.368 . S
C683 C667 1.349 . S
C683 H675 0.950 . S
C683 C681 1.327 . S
C684 C672 1.349 . S
C684 H678 0.950 . S
C684 C685 1.327 . S
C685 H679 0.950 . S
C685 C684 1.327 . S
C685 C689 1.429 . S
C686 C669 1.574 . S
C686 H680 0.949 . S
C686 C690 1.368 . S
C687 C668 1.429 . S
C687 C681 1.429 . S
C687 C688 1.523 . S
C688 C669 1.368 . S
C688 C682 1.368 . S
C688 C687 1.523 . S
C689 C673 1.429 . S
C689 C685 1.429 . S
C689 C690 1.523 . S
C690 C674 1.368 . S
C690 C686 1.368 . S
C690 C689 1.523 . S
H691 C666 0.950 . S
H692 C668 0.950 . S
H693 C669 0.949 . S
H694 C671 0.950 . S
H695 C673 0.950 . S
C696 C697 1.349 . S
C696 C698 1.327 . S
C696 H721 0.950 . S
C697 C696 1.349 . S
C697 C713 1.349 . S
C698 C696 1.327 . S
C698 C717 1.429 . S
C698 H722 0.950 . S
C699 C716 1.574 . S
C699 C718 1.368 . S
C699 H723 0.949 . S
H700 C704 0.949 . S
C701 C702 1.349 . S
C701 C703 1.327 . S
C701 H724 0.950 . S
C702 C701 1.349 . S
C702 C714 1.349 . S
C703 C701 1.327 . S
C703 C719 1.429 . S
C703 H725 0.950 . S
C704 H700 0.949 . S
C704 C712 1.574 . S
C704 C720 1.368 . S
H705 C713 0.950 . S
H706 C711 0.950 . S
H707 C712 0.949 . S
H708 C714 0.950 . S
H709 C715 0.950 . S
H710 C716 0.949 . S
C711 H706 0.950 . S
C711 C713 1.327 . S
C711 C717 1.429 . S
C712 C704 1.574 . S
C712 H707 0.949 . S
C712 C718 1.368 . S
C713 C697 1.349 . S
C713 H705 0.950 . S
C713 C711 1.327 . S
C714 C702 1.349 . S
C714 H708 0.950 . S
C714 C715 1.327 . S
C715 H709 0.950 . S
C715 C714 1.327 . S
C715 C719 1.429 . S
C716 C699 1.574 . S
C716 H710 0.949 . S
C716 C720 1.368 . S
C717 C698 1.429 . S
C717 C711 1.429 . S
C717 C718 1.523 . S
C718 C699 1.368 . S
C718 C712 1.368 . S
C718 C717 1.523 . S
C719 C703 1.429 . S
C719 C715 1.429 . S
C719 C720 1.523 . S
C720 C704 1.368 . S
C720 C716 1.368 . S
C720 C719 1.523 . S
H721 C696 0.950 . S
H722 C698 0.950 . S
H723 C699 0.949 . S
H724 C701 0.950 . S
H725 C703 0.950 . S
C726 C727 1.349 . S
C726 C728 1.327 . S
C726 H751 0.950 . S
C727 C726 1.349 . S
C727 C743 1.349 . S
C728 C726 1.327 . S
C728 C747 1.429 . S
C728 H752 0.950 . S
C729 C746 1.574 . S
C729 C748 1.368 . S
C729 H753 0.949 . S
H730 C734 0.949 . S
C731 C732 1.349 . S
C731 C733 1.327 . S
C731 H754 0.950 . S
C732 C731 1.349 . S
C732 C744 1.349 . S
C733 C731 1.327 . S
C733 C749 1.429 . S
C733 H755 0.950 . S
C734 H730 0.949 . S
C734 C742 1.574 . S
C734 C750 1.368 . S
H735 C743 0.950 . S
H736 C741 0.950 . S
H737 C742 0.949 . S
H738 C744 0.950 . S
H739 C745 0.950 . S
H740 C746 0.949 . S
C741 H736 0.950 . S
C741 C743 1.327 . S
C741 C747 1.429 . S
C742 C734 1.574 . S
C742 H737 0.949 . S
C742 C748 1.368 . S
C743 C727 1.349 . S
C743 H735 0.950 . S
C743 C741 1.327 . S
C744 C732 1.349 . S
C744 H738 0.950 . S
C744 C745 1.327 . S
C745 H739 0.950 . S
C745 C744 1.327 . S
C745 C749 1.429 . S
C746 C729 1.574 . S
C746 H740 0.949 . S
C746 C750 1.368 . S
C747 C728 1.429 . S
C747 C741 1.429 . S
C747 C748 1.523 . S
C748 C729 1.368 . S
C748 C742 1.368 . S
C748 C747 1.523 . S
C749 C733 1.429 . S
C749 C745 1.429 . S
C749 C750 1.523 . S
C750 C734 1.368 . S
C750 C746 1.368 . S
C750 C749 1.523 . S
H751 C726 0.950 . S
H752 C728 0.950 . S
H753 C729 0.949 . S
H754 C731 0.950 . S
H755 C733 0.950 . S
C756 C757 1.349 . S
C756 C758 1.327 . S
C756 H781 0.950 . S
C757 C756 1.349 . S
C757 C773 1.349 . S
C758 C756 1.327 . S
C758 C777 1.429 . S
C758 H782 0.950 . S
C759 C776 1.574 . S
C759 C778 1.368 . S
C759 H783 0.949 . S
H760 C764 0.949 . S
C761 C762 1.349 . S
C761 C763 1.327 . S
C761 H784 0.950 . S
C762 C761 1.349 . S
C762 C774 1.349 . S
C763 C761 1.327 . S
C763 C779 1.429 . S
C763 H785 0.950 . S
C764 H760 0.949 . S
C764 C772 1.574 . S
C764 C780 1.368 . S
H765 C773 0.950 . S
H766 C771 0.950 . S
H767 C772 0.949 . S
H768 C774 0.950 . S
H769 C775 0.950 . S
H770 C776 0.949 . S
C771 H766 0.950 . S
C771 C773 1.327 . S
C771 C777 1.429 . S
C772 C764 1.574 . S
C772 H767 0.949 . S
C772 C778 1.368 . S
C773 C757 1.349 . S
C773 H765 0.950 . S
C773 C771 1.327 . S
C774 C762 1.349 . S
C774 H768 0.950 . S
C774 C775 1.327 . S
C775 H769 0.950 . S
C775 C774 1.327 . S
C775 C779 1.429 . S
C776 C759 1.574 . S
C776 H770 0.949 . S
C776 C780 1.368 . S
C777 C758 1.429 . S
C777 C771 1.429 . S
C777 C778 1.523 . S
C778 C759 1.368 . S
C778 C772 1.368 . S
C778 C777 1.523 . S
C779 C763 1.429 . S
C779 C775 1.429 . S
C779 C780 1.523 . S
C780 C764 1.368 . S
C780 C776 1.368 . S
C780 C779 1.523 . S
H781 C756 0.950 . S
H782 C758 0.950 . S
H783 C759 0.949 . S
H784 C761 0.950 . S
H785 C763 0.950 . S
C786 C787 1.349 . S
C786 C788 1.327 1_545 S
C786 H811 0.950 . S
C787 C786 1.349 . S
C787 C803 1.349 1_545 S
C788 C786 1.327 1_565 S
C788 C807 1.429 . S
C788 H812 0.950 . S
C789 C806 1.574 . S
C789 C808 1.368 . S
C789 H813 0.949 . S
H790 C794 0.949 . S
C791 C792 1.349 . S
C791 C793 1.327 . S
C791 H814 0.950 . S
C792 C791 1.349 . S
C792 C804 1.349 . S
C793 C791 1.327 . S
C793 C809 1.429 . S
C793 H815 0.950 . S
C794 H790 0.949 . S
C794 C802 1.574 . S
C794 C810 1.368 . S
H795 C803 0.950 . S
H796 C801 0.950 . S
H797 C802 0.949 . S
H798 C804 0.950 . S
H799 C805 0.950 . S
H800 C806 0.949 . S
C801 H796 0.950 . S
C801 C803 1.327 . S
C801 C807 1.429 . S
C802 C794 1.574 . S
C802 H797 0.949 . S
C802 C808 1.368 . S
C803 C787 1.349 1_565 S
C803 H795 0.950 . S
C803 C801 1.327 . S
C804 C792 1.349 . S
C804 H798 0.950 . S
C804 C805 1.327 . S
C805 H799 0.950 . S
C805 C804 1.327 . S
C805 C809 1.429 . S
C806 C789 1.574 . S
C806 H800 0.949 . S
C806 C810 1.368 . S
C807 C788 1.429 . S
C807 C801 1.429 . S
C807 C808 1.523 . S
C808 C789 1.368 . S
C808 C802 1.368 . S
C808 C807 1.523 . S
C809 C793 1.429 . S
C809 C805 1.429 . S
C809 C810 1.523 . S
C810 C794 1.368 . S
C810 C806 1.368 . S
C810 C809 1.523 . S
H811 C786 0.950 . S
H812 C788 0.950 . S
H813 C789 0.949 . S
H814 C791 0.950 . S
H815 C793 0.950 . S
C816 C817 1.338 1_455 S
C816 C818 1.327 . S
C816 H841 0.950 . S
C817 C816 1.338 1_655 S
C817 C833 1.320 1_655 S
C818 C816 1.327 . S
C818 C837 1.429 . S
C818 H842 0.950 . S
C819 C836 1.574 . S
C819 C838 1.368 . S
C819 H843 0.949 . S
H820 C824 0.949 . S
C821 C822 1.349 . S
C821 C823 1.327 . S
C821 H844 0.950 . S
C822 C821 1.349 . S
C822 C834 1.349 . S
C823 C821 1.327 . S
C823 C839 1.429 . S
C823 H845 0.950 . S
C824 H820 0.949 . S
C824 C832 1.574 . S
C824 C840 1.368 . S
H825 C833 0.950 1_655 S
H826 C831 0.950 . S
H827 C832 0.949 . S
H828 C834 0.950 . S
H829 C835 0.950 . S
H830 C836 0.949 . S
C831 H826 0.950 . S
C831 C833 1.327 . S
C831 C837 1.429 . S
C832 C824 1.574 . S
C832 H827 0.949 . S
C832 C838 1.368 . S
C833 C817 1.320 1_455 S
C833 H825 0.950 1_455 S
C833 C831 1.327 . S
C834 C822 1.349 . S
C834 H828 0.950 . S
C834 C835 1.327 . S
C835 H829 0.950 . S
C835 C834 1.327 . S
C835 C839 1.429 . S
C836 C819 1.574 . S
C836 H830 0.949 . S
C836 C840 1.368 . S
C837 C818 1.429 . S
C837 C831 1.429 . S
C837 C838 1.523 . S
C838 C819 1.368 . S
C838 C832 1.368 . S
C838 C837 1.523 . S
C839 C823 1.429 . S
C839 C835 1.429 . S
C839 C840 1.523 . S
C840 C824 1.368 . S
C840 C836 1.368 . S
C840 C839 1.523 . S
H841 C816 0.950 . S
H842 C818 0.950 . S
H843 C819 0.949 . S
H844 C821 0.950 . S
H845 C823 0.950 . S
C846 C847 1.349 . S
C846 C848 1.327 . S
C846 H871 0.950 . S
C847 C846 1.349 . S
C847 C863 1.349 . S
C848 C846 1.327 . S
C848 C867 1.429 . S
C848 H872 0.950 . S
C849 C866 1.574 . S
C849 C868 1.368 . S
C849 H873 0.949 . S
H850 C854 0.949 . S
C851 C852 1.349 . S
C851 C853 1.327 . S
C851 H874 0.950 . S
C852 C851 1.349 . S
C852 C864 1.349 . S
C853 C851 1.327 . S
C853 C869 1.429 . S
C853 H875 0.950 . S
C854 H850 0.949 . S
C854 C862 1.574 . S
C854 C870 1.368 . S
H855 C863 0.950 . S
H856 C861 0.950 . S
H857 C862 0.949 . S
H858 C864 0.950 . S
H859 C865 0.950 . S
H860 C866 0.949 . S
C861 H856 0.950 . S
C861 C863 1.327 . S
C861 C867 1.429 . S
C862 C854 1.574 . S
C862 H857 0.949 . S
C862 C868 1.368 . S
C863 C847 1.349 . S
C863 H855 0.950 . S
C863 C861 1.327 . S
C864 C852 1.349 . S
C864 H858 0.950 . S
C864 C865 1.327 . S
C865 H859 0.950 . S
C865 C864 1.327 . S
C865 C869 1.429 . S
C866 C849 1.574 . S
C866 H860 0.949 . S
C866 C870 1.368 . S
C867 C848 1.429 . S
C867 C861 1.429 . S
C867 C868 1.523 . S
C868 C849 1.368 . S
C868 C862 1.368 . S
C868 C867 1.523 . S
C869 C853 1.429 . S
C869 C865 1.429 . S
C869 C870 1.523 . S
C870 C854 1.368 . S
C870 C866 1.368 . S
C870 C869 1.523 . S
H871 C846 0.950 . S
H872 C848 0.950 . S
H873 C849 0.949 . S
H874 C851 0.950 . S
H875 C853 0.950 . S
C876 C877 1.349 . S
C876 C878 1.327 . S
C876 H901 0.950 . S
C877 C876 1.349 . S
C877 C893 1.349 . S
C878 C876 1.327 . S
C878 C897 1.429 . S
C878 H902 0.950 . S
C879 C896 1.574 . S
C879 C898 1.368 . S
C879 H903 0.949 . S
H880 C884 0.949 . S
C881 C882 1.349 . S
C881 C883 1.327 . S
C881 H904 0.950 . S
C882 C881 1.349 . S
C882 C894 1.349 . S
C883 C881 1.327 . S
C883 C899 1.429 . S
C883 H905 0.950 . S
C884 H880 0.949 . S
C884 C892 1.574 . S
C884 C900 1.368 . S
H885 C893 0.950 . S
H886 C891 0.950 . S
H887 C892 0.949 . S
H888 C894 0.950 . S
H889 C895 0.950 . S
H890 C896 0.949 . S
C891 H886 0.950 . S
C891 C893 1.327 . S
C891 C897 1.429 . S
C892 C884 1.574 . S
C892 H887 0.949 . S
C892 C898 1.368 . S
C893 C877 1.349 . S
C893 H885 0.950 . S
C893 C891 1.327 . S
C894 C882 1.349 . S
C894 H888 0.950 . S
C894 C895 1.327 . S
C895 H889 0.950 . S
C895 C894 1.327 . S
C895 C899 1.429 . S
C896 C879 1.574 . S
C896 H890 0.949 . S
C896 C900 1.368 . S
C897 C878 1.429 . S
C897 C891 1.429 . S
C897 C898 1.523 . S
C898 C879 1.368 . S
C898 C892 1.368 . S
C898 C897 1.523 . S
C899 C883 1.429 . S
C899 C895 1.429 . S
C899 C900 1.523 . S
C900 C884 1.368 . S
C900 C896 1.368 . S
C900 C899 1.523 . S
H901 C876 0.950 . S
H902 C878 0.950 . S
H903 C879 0.949 . S
H904 C881 0.950 . S
H905 C883 0.950 . S
C906 C907 1.349 . S
C906 C908 1.327 . S
C906 H931 0.950 . S
C907 C906 1.349 . S
C907 C923 1.349 . S
C908 C906 1.327 . S
C908 C927 1.429 . S
C908 H932 0.950 . S
C909 C926 1.574 . S
C909 C928 1.368 . S
C909 H933 0.949 . S
H910 C914 0.949 . S
C911 C912 1.349 . S
C911 C913 1.327 . S
C911 H934 0.950 . S
C912 C911 1.349 . S
C912 C924 1.349 . S
C913 C911 1.327 . S
C913 C929 1.429 . S
C913 H935 0.950 . S
C914 H910 0.949 . S
C914 C922 1.574 . S
C914 C930 1.368 . S
H915 C923 0.950 . S
H916 C921 0.950 . S
H917 C922 0.949 . S
H918 C924 0.950 . S
H919 C925 0.950 . S
H920 C926 0.949 . S
C921 H916 0.950 . S
C921 C923 1.327 . S
C921 C927 1.429 . S
C922 C914 1.574 . S
C922 H917 0.949 . S
C922 C928 1.368 . S
C923 C907 1.349 . S
C923 H915 0.950 . S
C923 C921 1.327 . S
C924 C912 1.349 . S
C924 H918 0.950 . S
C924 C925 1.327 . S
C925 H919 0.950 . S
C925 C924 1.327 . S
C925 C929 1.429 . S
C926 C909 1.574 . S
C926 H920 0.949 . S
C926 C930 1.368 . S
C927 C908 1.429 . S
C927 C921 1.429 . S
C927 C928 1.523 . S
C928 C909 1.368 . S
C928 C922 1.368 . S
C928 C927 1.523 . S
C929 C913 1.429 . S
C929 C925 1.429 . S
C929 C930 1.523 . S
C930 C914 1.368 . S
C930 C926 1.368 . S
C930 C929 1.523 . S
H931 C906 0.950 . S
H932 C908 0.950 . S
H933 C909 0.949 . S
H934 C911 0.950 . S
H935 C913 0.950 . S
C936 C937 1.349 . S
C936 C938 1.327 . S
C936 H961 0.950 . S
C937 C936 1.349 . S
C937 C953 1.349 . S
C938 C936 1.327 . S
C938 C957 1.429 . S
C938 H962 0.950 . S
C939 C956 1.574 . S
C939 C958 1.368 . S
C939 H963 0.949 . S
H940 C944 0.949 . S
C941 C942 1.349 . S
C941 C943 1.327 . S
C941 H964 0.950 . S
C942 C941 1.349 . S
C942 C954 1.349 . S
C943 C941 1.327 . S
C943 C959 1.429 . S
C943 H965 0.950 . S
C944 H940 0.949 . S
C944 C952 1.574 . S
C944 C960 1.368 . S
H945 C953 0.950 . S
H946 C951 0.950 . S
H947 C952 0.949 . S
H948 C954 0.950 . S
H949 C955 0.950 . S
H950 C956 0.949 . S
C951 H946 0.950 . S
C951 C953 1.327 . S
C951 C957 1.429 . S
C952 C944 1.574 . S
C952 H947 0.949 . S
C952 C958 1.368 . S
C953 C937 1.349 . S
C953 H945 0.950 . S
C953 C951 1.327 . S
C954 C942 1.349 . S
C954 H948 0.950 . S
C954 C955 1.327 . S
C955 H949 0.950 . S
C955 C954 1.327 . S
C955 C959 1.429 . S
C956 C939 1.574 . S
C956 H950 0.949 . S
C956 C960 1.368 . S
C957 C938 1.429 . S
C957 C951 1.429 . S
C957 C958 1.523 . S
C958 C939 1.368 . S
C958 C952 1.368 . S
C958 C957 1.523 . S
C959 C943 1.429 . S
C959 C955 1.429 . S
C959 C960 1.523 . S
C960 C944 1.368 . S
C960 C956 1.368 . S
C960 C959 1.523 . S
H961 C936 0.950 . S
H962 C938 0.950 . S
H963 C939 0.949 . S
H964 C941 0.950 . S
H965 C943 0.950 . S
C966 C967 1.349 . S
C966 C968 1.327 . S
C966 H991 0.950 . S
C967 C966 1.349 . S
C967 C983 1.349 . S
C968 C966 1.327 . S
C968 C987 1.429 . S
C968 H992 0.950 . S
C969 C986 1.574 . S
C969 C988 1.368 . S
C969 H993 0.949 . S
H970 C974 0.949 . S
C971 C972 1.349 . S
C971 C973 1.327 . S
C971 H994 0.950 . S
C972 C971 1.349 . S
C972 C984 1.349 . S
C973 C971 1.327 . S
C973 C989 1.429 . S
C973 H995 0.950 . S
C974 H970 0.949 . S
C974 C982 1.574 . S
C974 C990 1.368 . S
H975 C983 0.950 . S
H976 C981 0.950 . S
H977 C982 0.949 . S
H978 C984 0.950 . S
H979 C985 0.950 . S
H980 C986 0.949 . S
C981 H976 0.950 . S
C981 C983 1.327 . S
C981 C987 1.429 . S
C982 C974 1.574 . S
C982 H977 0.949 . S
C982 C988 1.368 . S
C983 C967 1.349 . S
C983 H975 0.950 . S
C983 C981 1.327 . S
C984 C972 1.349 . S
C984 H978 0.950 . S
C984 C985 1.327 . S
C985 H979 0.950 . S
C985 C984 1.327 . S
C985 C989 1.429 . S
C986 C969 1.574 . S
C986 H980 0.949 . S
C986 C990 1.368 . S
C987 C968 1.429 . S
C987 C981 1.429 . S
C987 C988 1.523 . S
C988 C969 1.368 . S
C988 C982 1.368 . S
C988 C987 1.523 . S
C989 C973 1.429 . S
C989 C985 1.429 . S
C989 C990 1.523 . S
C990 C974 1.368 . S
C990 C986 1.368 . S
C990 C989 1.523 . S
H991 C966 0.950 . S
H992 C968 0.950 . S
H993 C969 0.949 . S
H994 C971 0.950 . S
H995 C973 0.950 . S
C996 C997 1.349 . S
C996 C998 1.327 . S
C996 H1021 0.950 . S
C997 C996 1.349 . S
C997 C1013 1.349 . S
C998 C996 1.327 . S
C998 C1017 1.429 . S
C998 H1022 0.950 . S
C999 C1016 1.574 . S
C999 C1018 1.368 . S
C999 H1023 0.949 . S
H1000 C1004 0.949 . S
C1001 C1002 1.349 . S
C1001 C1003 1.327 . S
C1001 H1024 0.950 . S
C1002 C1001 1.349 . S
C1002 C1014 1.349 . S
C1003 C1001 1.327 . S
C1003 C1019 1.429 . S
C1003 H1025 0.950 . S
C1004 H1000 0.949 . S
C1004 C1012 1.574 . S
C1004 C1020 1.368 . S
H1005 C1013 0.950 . S
H1006 C1011 0.950 . S
H1007 C1012 0.949 . S
H1008 C1014 0.950 . S
H1009 C1015 0.950 . S
H1010 C1016 0.949 . S
C1011 H1006 0.950 . S
C1011 C1013 1.327 . S
C1011 C1017 1.429 . S
C1012 C1004 1.574 . S
C1012 H1007 0.949 . S
C1012 C1018 1.368 . S
C1013 C997 1.349 . S
C1013 H1005 0.950 . S
C1013 C1011 1.327 . S
C1014 C1002 1.349 . S
C1014 H1008 0.950 . S
C1014 C1015 1.327 . S
C1015 H1009 0.950 . S
C1015 C1014 1.327 . S
C1015 C1019 1.429 . S
C1016 C999 1.574 . S
C1016 H1010 0.949 . S
C1016 C1020 1.368 . S
C1017 C998 1.429 . S
C1017 C1011 1.429 . S
C1017 C1018 1.523 . S
C1018 C999 1.368 . S
C1018 C1012 1.368 . S
C1018 C1017 1.523 . S
C1019 C1003 1.429 . S
C1019 C1015 1.429 . S
C1019 C1020 1.523 . S
C1020 C1004 1.368 . S
C1020 C1016 1.368 . S
C1020 C1019 1.523 . S
H1021 C996 0.950 . S
H1022 C998 0.950 . S
H1023 C999 0.949 . S
H1024 C1001 0.950 . S
H1025 C1003 0.950 . S
C1026 C1027 1.349 . S
C1026 C1028 1.327 . S
C1026 H1051 0.950 . S
C1027 C1026 1.349 . S
C1027 C1043 1.349 . S
C1028 C1026 1.327 . S
C1028 C1047 1.429 . S
C1028 H1052 0.950 . S
C1029 C1046 1.574 1_554 S
C1029 C1048 1.368 . S
C1029 H1053 0.949 . S
H1030 C1034 0.949 . S
C1031 C1032 1.349 . S
C1031 C1033 1.327 . S
C1031 H1054 0.950 . S
C1032 C1031 1.349 . S
C1032 C1044 1.349 . S
C1033 C1031 1.327 . S
C1033 C1049 1.429 . S
C1033 H1055 0.950 . S
C1034 H1030 0.949 . S
C1034 C1042 1.574 . S
C1034 C1050 1.368 . S
H1035 C1043 0.950 . S
H1036 C1041 0.950 . S
H1037 C1042 0.949 . S
H1038 C1044 0.950 . S
H1039 C1045 0.950 . S
H1040 C1046 0.949 . S
C1041 H1036 0.950 . S
C1041 C1043 1.327 . S
C1041 C1047 1.429 . S
C1042 C1034 1.574 . S
C1042 H1037 0.949 . S
C1042 C1048 1.368 1_556 S
C1043 C1027 1.349 . S
C1043 H1035 0.950 . S
C1043 C1041 1.327 . S
C1044 C1032 1.349 . S
C1044 H1038 0.950 . S
C1044 C1045 1.327 . S
C1045 H1039 0.950 . S
C1045 C1044 1.327 . S
C1045 C1049 1.429 . S
C1046 C1029 1.574 1_556 S
C1046 H1040 0.949 . S
C1046 C1050 1.368 . S
C1047 C1028 1.429 . S
C1047 C1041 1.429 . S
C1047 C1048 1.523 . S
C1048 C1029 1.368 . S
C1048 C1042 1.368 1_554 S
C1048 C1047 1.523 . S
C1049 C1033 1.429 . S
C1049 C1045 1.429 . S
C1049 C1050 1.523 . S
C1050 C1034 1.368 . S
C1050 C1046 1.368 . S
C1050 C1049 1.523 . S
H1051 C1026 0.950 . S
H1052 C1028 0.950 . S
H1053 C1029 0.949 . S
H1054 C1031 0.950 . S
H1055 C1033 0.950 . S
C1056 C1057 1.349 . S
C1056 C1058 1.327 . S
C1056 H1081 0.950 . S
C1057 C1056 1.349 . S
C1057 C1073 1.349 . S
C1058 C1056 1.327 . S
C1058 C1077 1.429 . S
C1058 H1082 0.919 1_554 S
C1059 C1076 1.574 1_554 S
C1059 C1078 1.368 . S
C1059 H1083 0.949 . S
H1060 C1064 0.949 . S
C1061 C1062 1.349 . S
C1061 C1063 1.327 1_545 S
C1061 H1084 0.950 . S
C1062 C1061 1.349 . S
C1062 C1074 1.349 1_545 S
C1063 C1061 1.327 1_565 S
C1063 C1079 1.429 . S
C1063 H1085 0.950 . S
C1064 H1060 0.949 . S
C1064 C1072 1.574 . S
C1064 C1080 1.368 . S
H1065 C1073 0.950 . S
H1066 C1071 0.950 . S
H1067 C1072 0.949 . S
H1068 C1074 0.950 . S
H1069 C1075 0.950 . S
H1070 C1076 0.949 . S
C1071 H1066 0.950 . S
C1071 C1073 1.327 . S
C1071 C1077 1.429 . S
C1072 C1064 1.574 . S
C1072 H1067 0.949 . S
C1072 C1078 1.368 1_556 S
C1073 C1057 1.349 . S
C1073 H1065 0.950 . S
C1073 C1071 1.327 . S
C1074 C1062 1.349 1_565 S
C1074 H1068 0.950 . S
C1074 C1075 1.327 . S
C1075 H1069 0.950 . S
C1075 C1074 1.327 . S
C1075 C1079 1.429 . S
C1076 C1059 1.574 1_556 S
C1076 H1070 0.949 . S
C1076 C1080 1.368 . S
C1077 C1058 1.429 . S
C1077 C1071 1.429 . S
C1077 C1078 1.523 . S
C1078 C1059 1.368 . S
C1078 C1072 1.368 1_554 S
C1078 C1077 1.523 . S
C1079 C1063 1.429 . S
C1079 C1075 1.429 . S
C1079 C1080 1.523 . S
C1080 C1064 1.368 . S
C1080 C1076 1.368 . S
C1080 C1079 1.523 . S
H1081 C1056 0.950 . S
H1082 C1058 0.919 1_556 S
H1083 C1059 0.949 . S
H1084 C1061 0.950 . S
H1085 C1063 0.950 . S
C1086 C1087 1.349 . S
C1086 C1088 1.327 . S
C1086 H1111 0.950 . S
C1087 C1086 1.349 . S
C1087 C1103 1.349 . S
C1088 C1086 1.327 . S
C1088 C1107 1.429 . S
C1088 H1112 0.950 1_554 S
C1089 C1106 1.574 . S
C1089 C1108 1.368 . S
C1089 H1113 0.949 . S
H1090 C1094 0.949 . S
C1091 C1092 1.347 1_455 S
C1091 C1093 1.336 . S
C1091 H1114 0.941 1_455 S
C1092 C1091 1.347 1_655 S
C1092 C1104 1.321 1_655 S
C1093 C1091 1.336 . S
C1093 C1109 1.429 . S
C1093 H1115 0.950 . S
C1094 H1090 0.949 . S
C1094 C1102 1.574 . S
C1094 C1110 1.368 . S
H1095 C1103 0.950 . S
H1096 C1101 0.950 . S
H1097 C1102 0.949 . S
H1098 C1104 0.950 . S
H1099 C1105 0.950 . S
H1100 C1106 0.949 . S
C1101 H1096 0.950 . S
C1101 C1103 1.327 . S
C1101 C1107 1.429 . S
C1102 C1094 1.574 . S
C1102 H1097 0.949 . S
C1102 C1108 1.368 1_556 S
C1103 C1087 1.349 . S
C1103 H1095 0.950 . S
C1103 C1101 1.327 . S
C1104 C1092 1.321 1_455 S
C1104 H1098 0.950 . S
C1104 C1105 1.327 . S
C1105 H1099 0.950 . S
C1105 C1104 1.327 . S
C1105 C1109 1.429 . S
C1106 C1089 1.574 . S
C1106 H1100 0.949 . S
C1106 C1110 1.368 1_554 S
C1107 C1088 1.429 . S
C1107 C1101 1.429 . S
C1107 C1108 1.523 . S
C1108 C1089 1.368 . S
C1108 C1102 1.368 1_554 S
C1108 C1107 1.523 . S
C1109 C1093 1.429 . S
C1109 C1105 1.429 . S
C1109 C1110 1.523 . S
C1110 C1094 1.368 . S
C1110 C1106 1.368 1_556 S
C1110 C1109 1.523 . S
H1111 C1086 0.950 . S
H1112 C1088 0.950 1_556 S
H1113 C1089 0.949 . S
H1114 C1091 0.941 1_655 S
H1115 C1093 0.950 . S
C1116 C1117 1.349 . S
C1116 C1118 1.327 . S
C1116 H1141 0.950 . S
C1117 C1116 1.349 . S
C1117 C1133 1.349 . S
C1118 C1116 1.327 . S
C1118 C1137 1.429 . S
C1118 H1142 0.950 . S
C1119 C1136 1.574 . S
C1119 C1138 1.368 . S
C1119 H1143 0.949 . S
H1120 C1124 0.949 . S
C1121 C1122 1.349 . S
C1121 C1123 1.327 . S
C1121 H1144 0.950 . S
C1122 C1121 1.349 . S
C1122 C1134 1.349 . S
C1123 C1121 1.327 . S
C1123 C1139 1.429 . S
C1123 H1145 0.950 . S
C1124 H1120 0.949 . S
C1124 C1132 1.574 . S
C1124 C1140 1.368 . S
H1125 C1133 0.950 . S
H1126 C1131 0.950 . S
H1127 C1132 0.949 . S
H1128 C1134 0.950 . S
H1129 C1135 0.950 . S
H1130 C1136 0.949 . S
C1131 H1126 0.950 . S
C1131 C1133 1.327 . S
C1131 C1137 1.429 . S
C1132 C1124 1.574 . S
C1132 H1127 0.949 . S
C1132 C1138 1.368 . S
C1133 C1117 1.349 . S
C1133 H1125 0.950 . S
C1133 C1131 1.327 . S
C1134 C1122 1.349 . S
C1134 H1128 0.950 . S
C1134 C1135 1.327 . S
C1135 H1129 0.950 . S
C1135 C1134 1.327 . S
C1135 C1139 1.429 . S
C1136 C1119 1.574 . S
C1136 H1130 0.949 . S
C1136 C1140 1.368 . S
C1137 C1118 1.429 . S
C1137 C1131 1.429 . S
C1137 C1138 1.523 . S
C1138 C1119 1.368 . S
C1138 C1132 1.368 . S
C1138 C1137 1.523 . S
C1139 C1123 1.429 . S
C1139 C1135 1.429 . S
C1139 C1140 1.523 . S
C1140 C1124 1.368 . S
C1140 C1136 1.368 . S
C1140 C1139 1.523 . S
H1141 C1116 0.950 . S
H1142 C1118 0.950 . S
H1143 C1119 0.949 . S
H1144 C1121 0.950 . S
H1145 C1123 0.950 . S
C1146 C1147 1.349 . S
C1146 C1148 1.327 . S
C1146 H1171 0.950 . S
C1147 C1146 1.349 . S
C1147 C1163 1.349 . S
C1148 C1146 1.327 . S
C1148 C1167 1.429 . S
C1148 H1172 0.950 . S
C1149 C1166 1.574 . S
C1149 C1168 1.368 . S
C1149 H1173 0.949 . S
H1150 C1154 0.949 . S
C1151 C1152 1.349 . S
C1151 C1153 1.327 . S
C1151 H1174 0.950 . S
C1152 C1151 1.349 . S
C1152 C1164 1.349 . S
C1153 C1151 1.327 . S
C1153 C1169 1.429 . S
C1153 H1175 0.950 . S
C1154 H1150 0.949 . S
C1154 C1162 1.574 . S
C1154 C1170 1.368 . S
H1155 C1163 0.950 . S
H1156 C1161 0.950 . S
H1157 C1162 0.949 . S
H1158 C1164 0.950 . S
H1159 C1165 0.950 . S
H1160 C1166 0.949 . S
C1161 H1156 0.950 . S
C1161 C1163 1.327 . S
C1161 C1167 1.429 . S
C1162 C1154 1.574 . S
C1162 H1157 0.949 . S
C1162 C1168 1.368 . S
C1163 C1147 1.349 . S
C1163 H1155 0.950 . S
C1163 C1161 1.327 . S
C1164 C1152 1.349 . S
C1164 H1158 0.950 . S
C1164 C1165 1.327 . S
C1165 H1159 0.950 . S
C1165 C1164 1.327 . S
C1165 C1169 1.429 . S
C1166 C1149 1.574 . S
C1166 H1160 0.949 . S
C1166 C1170 1.368 . S
C1167 C1148 1.429 . S
C1167 C1161 1.429 . S
C1167 C1168 1.523 . S
C1168 C1149 1.368 . S
C1168 C1162 1.368 . S
C1168 C1167 1.523 . S
C1169 C1153 1.429 . S
C1169 C1165 1.429 . S
C1169 C1170 1.523 . S
C1170 C1154 1.368 . S
C1170 C1166 1.368 . S
C1170 C1169 1.523 . S
H1171 C1146 0.950 . S
H1172 C1148 0.950 . S
H1173 C1149 0.949 . S
H1174 C1151 0.950 . S
H1175 C1153 0.950 . S
C1176 C1177 1.349 . S
C1176 C1178 1.327 . S
C1176 H1201 0.950 . S
C1177 C1176 1.349 . S
C1177 C1193 1.349 . S
C1178 C1176 1.327 . S
C1178 C1197 1.429 . S
C1178 H1202 0.950 . S
C1179 C1196 1.574 . S
C1179 C1198 1.368 . S
C1179 H1203 0.949 . S
H1180 C1184 0.949 . S
C1181 C1182 1.349 . S
C1181 C1183 1.327 . S
C1181 H1204 0.950 . S
C1182 C1181 1.349 . S
C1182 C1194 1.349 . S
C1183 C1181 1.327 . S
C1183 C1199 1.429 . S
C1183 H1205 0.950 . S
C1184 H1180 0.949 . S
C1184 C1192 1.574 . S
C1184 C1200 1.368 . S
H1185 C1193 0.950 . S
H1186 C1191 0.950 . S
H1187 C1192 0.949 . S
H1188 C1194 0.950 . S
H1189 C1195 0.950 . S
H1190 C1196 0.949 . S
C1191 H1186 0.950 . S
C1191 C1193 1.327 . S
C1191 C1197 1.429 . S
C1192 C1184 1.574 . S
C1192 H1187 0.949 . S
C1192 C1198 1.368 . S
C1193 C1177 1.349 . S
C1193 H1185 0.950 . S
C1193 C1191 1.327 . S
C1194 C1182 1.349 . S
C1194 H1188 0.950 . S
C1194 C1195 1.327 . S
C1195 H1189 0.950 . S
C1195 C1194 1.327 . S
C1195 C1199 1.429 . S
C1196 C1179 1.574 . S
C1196 H1190 0.949 . S
C1196 C1200 1.368 . S
C1197 C1178 1.429 . S
C1197 C1191 1.429 . S
C1197 C1198 1.523 . S
C1198 C1179 1.368 . S
C1198 C1192 1.368 . S
C1198 C1197 1.523 . S
C1199 C1183 1.429 . S
C1199 C1195 1.429 . S
C1199 C1200 1.523 . S
C1200 C1184 1.368 . S
C1200 C1196 1.368 . S
C1200 C1199 1.523 . S
H1201 C1176 0.950 . S
H1202 C1178 0.950 . S
H1203 C1179 0.949 . S
H1204 C1181 0.950 . S
H1205 C1183 0.950 . S
C1206 C1207 1.349 . S
C1206 C1208 1.327 . S
C1206 H1231 0.950 . S
C1207 C1206 1.349 . S
C1207 C1223 1.349 . S
C1208 C1206 1.327 . S
C1208 C1227 1.429 . S
C1208 H1232 0.950 . S
C1209 C1226 1.574 . S
C1209 C1228 1.368 1_554 S
C1209 H1233 0.949 . S
H1210 C1214 0.949 . S
C1211 C1212 1.349 . S
C1211 C1213 1.327 . S
C1211 H1234 0.950 . S
C1212 C1211 1.349 . S
C1212 C1224 1.349 . S
C1213 C1211 1.327 . S
C1213 C1229 1.429 . S
C1213 H1235 0.950 . S
C1214 H1210 0.949 . S
C1214 C1222 1.574 . S
C1214 C1230 1.368 1_556 S
H1215 C1223 0.950 . S
H1216 C1221 0.950 1_554 S
H1217 C1222 0.949 . S
H1218 C1224 0.950 . S
H1219 C1225 0.950 . S
H1220 C1226 0.949 . S
C1221 H1216 0.950 1_556 S
C1221 C1223 1.327 . S
C1221 C1227 1.429 . S
C1222 C1214 1.574 . S
C1222 H1217 0.949 . S
C1222 C1228 1.368 . S
C1223 C1207 1.349 . S
C1223 H1215 0.950 . S
C1223 C1221 1.327 . S
C1224 C1212 1.349 . S
C1224 H1218 0.950 . S
C1224 C1225 1.327 . S
C1225 H1219 0.950 . S
C1225 C1224 1.327 . S
C1225 C1229 1.429 . S
C1226 C1209 1.574 . S
C1226 H1220 0.949 . S
C1226 C1230 1.368 . S
C1227 C1208 1.429 . S
C1227 C1221 1.429 . S
C1227 C1228 1.523 . S
C1228 C1209 1.368 1_556 S
C1228 C1222 1.368 . S
C1228 C1227 1.523 . S
C1229 C1213 1.429 . S
C1229 C1225 1.429 . S
C1229 C1230 1.523 . S
C1230 C1214 1.368 1_554 S
C1230 C1226 1.368 . S
C1230 C1229 1.523 . S
H1231 C1206 0.950 . S
H1232 C1208 0.950 . S
H1233 C1209 0.949 . S
H1234 C1211 0.950 . S
H1235 C1213 0.950 . S
C1236 C1237 1.349 . S
C1236 C1238 1.327 . S
C1236 H1261 0.950 . S
C1237 C1236 1.349 . S
C1237 C1253 1.349 . S
C1238 C1236 1.327 . S
C1238 C1257 1.429 . S
C1238 H1262 0.950 1_556 S
C1239 C1256 1.574 . S
C1239 C1258 1.368 . S
C1239 H1263 0.949 . S
H1240 C1244 0.949 . S
C1241 C1242 1.351 1_545 S
C1241 C1243 1.327 . S
C1241 H1264 0.950 1_545 S
C1242 C1241 1.351 1_565 S
C1242 C1254 1.307 1_565 S
C1243 C1241 1.327 . S
C1243 C1259 1.429 . S
C1243 H1265 0.950 . S
C1244 H1240 0.949 . S
C1244 C1252 1.574 . S
C1244 C1260 1.368 . S
H1245 C1253 0.950 . S
H1246 C1251 0.950 . S
H1247 C1252 0.949 . S
H1248 C1254 0.950 . S
H1249 C1255 0.950 . S
H1250 C1256 0.949 . S
C1251 H1246 0.950 . S
C1251 C1253 1.327 . S
C1251 C1257 1.429 . S
C1252 C1244 1.574 . S
C1252 H1247 0.949 . S
C1252 C1258 1.368 1_554 S
C1253 C1237 1.349 . S
C1253 H1245 0.950 . S
C1253 C1251 1.327 . S
C1254 C1242 1.307 1_545 S
C1254 H1248 0.950 . S
C1254 C1255 1.327 . S
C1255 H1249 0.950 . S
C1255 C1254 1.327 . S
C1255 C1259 1.429 . S
C1256 C1239 1.574 . S
C1256 H1250 0.949 . S
C1256 C1260 1.368 1_556 S
C1257 C1238 1.429 . S
C1257 C1251 1.429 . S
C1257 C1258 1.523 . S
C1258 C1239 1.368 . S
C1258 C1252 1.368 1_556 S
C1258 C1257 1.523 . S
C1259 C1243 1.429 . S
C1259 C1255 1.429 . S
C1259 C1260 1.523 . S
C1260 C1244 1.368 . S
C1260 C1256 1.368 1_554 S
C1260 C1259 1.523 . S
H1261 C1236 0.950 . S
H1262 C1238 0.950 1_554 S
H1263 C1239 0.949 . S
H1264 C1241 0.950 1_565 S
H1265 C1243 0.950 . S
C1266 C1267 1.349 . S
C1266 C1268 1.327 . S
C1266 H1291 0.950 . S
C1267 C1266 1.349 . S
C1267 C1283 1.349 . S
C1268 C1266 1.327 . S
C1268 C1287 1.429 . S
C1268 H1292 0.950 . S
C1269 C1286 1.574 . S
C1269 C1288 1.368 1_554 S
C1269 H1293 0.949 . S
H1270 C1274 0.949 . S
C1271 C1272 1.349 1_655 S
C1271 C1273 1.327 . S
C1271 H1294 0.950 1_655 S
C1272 C1271 1.349 1_455 S
C1272 C1284 1.349 . S
C1273 C1271 1.327 . S
C1273 C1289 1.429 . S
C1273 H1295 0.950 . S
C1274 H1270 0.949 . S
C1274 C1282 1.574 . S
C1274 C1290 1.368 1_556 S
H1275 C1283 0.950 . S
H1276 C1281 0.950 1_554 S
H1277 C1282 0.949 . S
H1278 C1284 0.950 . S
H1279 C1285 0.950 . S
H1280 C1286 0.949 . S
C1281 H1276 0.950 1_556 S
C1281 C1283 1.327 . S
C1281 C1287 1.429 . S
C1282 C1274 1.574 . S
C1282 H1277 0.949 . S
C1282 C1288 1.368 . S
C1283 C1267 1.349 . S
C1283 H1275 0.950 . S
C1283 C1281 1.327 . S
C1284 C1272 1.349 . S
C1284 H1278 0.950 . S
C1284 C1285 1.327 1_455 S
C1285 H1279 0.950 . S
C1285 C1284 1.327 1_655 S
C1285 C1289 1.429 . S
C1286 C1269 1.574 . S
C1286 H1280 0.949 . S
C1286 C1290 1.368 . S
C1287 C1268 1.429 . S
C1287 C1281 1.429 . S
C1287 C1288 1.523 . S
C1288 C1269 1.368 1_556 S
C1288 C1282 1.368 . S
C1288 C1287 1.523 . S
C1289 C1273 1.429 . S
C1289 C1285 1.429 . S
C1289 C1290 1.523 . S
C1290 C1274 1.368 1_554 S
C1290 C1286 1.368 . S
C1290 C1289 1.523 . S
H1291 C1266 0.950 . S
H1292 C1268 0.950 . S
H1293 C1269 0.949 . S
H1294 C1271 0.950 1_455 S
H1295 C1273 0.950 . S
C1296 C1297 1.349 . S
C1296 C1298 1.327 . S
C1296 H1321 0.950 . S
C1297 C1296 1.349 . S
C1297 C1313 1.349 . S
C1298 C1296 1.327 . S
C1298 C1317 1.429 . S
C1298 H1322 0.950 . S
C1299 C1316 1.574 . S
C1299 C1318 1.368 . S
C1299 H1323 0.949 . S
H1300 C1304 0.949 . S
C1301 C1302 1.349 . S
C1301 C1303 1.327 . S
C1301 H1324 0.950 . S
C1302 C1301 1.349 . S
C1302 C1314 1.349 . S
C1303 C1301 1.327 . S
C1303 C1319 1.429 . S
C1303 H1325 0.950 . S
C1304 H1300 0.949 . S
C1304 C1312 1.574 . S
C1304 C1320 1.368 . S
H1305 C1313 0.950 . S
H1306 C1311 0.950 . S
H1307 C1312 0.949 . S
H1308 C1314 0.950 . S
H1309 C1315 0.950 . S
H1310 C1316 0.949 . S
C1311 H1306 0.950 . S
C1311 C1313 1.327 . S
C1311 C1317 1.429 . S
C1312 C1304 1.574 . S
C1312 H1307 0.949 . S
C1312 C1318 1.368 . S
C1313 C1297 1.349 . S
C1313 H1305 0.950 . S
C1313 C1311 1.327 . S
C1314 C1302 1.349 . S
C1314 H1308 0.950 . S
C1314 C1315 1.327 . S
C1315 H1309 0.950 . S
C1315 C1314 1.327 . S
C1315 C1319 1.429 . S
C1316 C1299 1.574 . S
C1316 H1310 0.949 . S
C1316 C1320 1.368 . S
C1317 C1298 1.429 . S
C1317 C1311 1.429 . S
C1317 C1318 1.523 . S
C1318 C1299 1.368 . S
C1318 C1312 1.368 . S
C1318 C1317 1.523 . S
C1319 C1303 1.429 . S
C1319 C1315 1.429 . S
C1319 C1320 1.523 . S
C1320 C1304 1.368 . S
C1320 C1316 1.368 . S
C1320 C1319 1.523 . S
H1321 C1296 0.950 . S
H1322 C1298 0.950 . S
H1323 C1299 0.949 . S
H1324 C1301 0.950 . S
H1325 C1303 0.950 . S
C1326 C1327 1.349 . S
C1326 C1328 1.327 . S
C1326 H1351 0.950 . S
C1327 C1326 1.349 . S
C1327 C1343 1.349 . S
C1328 C1326 1.327 . S
C1328 C1347 1.429 . S
C1328 H1352 0.950 . S
C1329 C1346 1.574 . S
C1329 C1348 1.368 . S
C1329 H1353 0.949 . S
H1330 C1334 0.949 . S
C1331 C1332 1.342 1_545 S
C1331 C1333 1.360 . S
C1331 H1354 0.924 1_545 S
C1332 C1331 1.342 1_565 S
C1332 C1344 1.324 1_565 S
C1333 C1331 1.360 . S
C1333 C1349 1.429 . S
C1333 H1355 0.950 . S
C1334 H1330 0.949 . S
C1334 C1342 1.574 . S
C1334 C1350 1.368 . S
H1335 C1343 0.950 . S
H1336 C1341 0.950 . S
H1337 C1342 0.949 . S
H1338 C1344 0.950 . S
H1339 C1345 0.950 . S
H1340 C1346 0.949 . S
C1341 H1336 0.950 . S
C1341 C1343 1.327 . S
C1341 C1347 1.429 . S
C1342 C1334 1.574 . S
C1342 H1337 0.949 . S
C1342 C1348 1.368 . S
C1343 C1327 1.349 . S
C1343 H1335 0.950 . S
C1343 C1341 1.327 . S
C1344 C1332 1.324 1_545 S
C1344 H1338 0.950 . S
C1344 C1345 1.327 . S
C1345 H1339 0.950 . S
C1345 C1344 1.327 . S
C1345 C1349 1.429 . S
C1346 C1329 1.574 . S
C1346 H1340 0.949 . S
C1346 C1350 1.368 . S
C1347 C1328 1.429 . S
C1347 C1341 1.429 . S
C1347 C1348 1.523 . S
C1348 C1329 1.368 . S
C1348 C1342 1.368 . S
C1348 C1347 1.523 . S
C1349 C1333 1.429 . S
C1349 C1345 1.429 . S
C1349 C1350 1.523 . S
C1350 C1334 1.368 . S
C1350 C1346 1.368 . S
C1350 C1349 1.523 . S
H1351 C1326 0.950 . S
H1352 C1328 0.950 . S
H1353 C1329 0.949 . S
H1354 C1331 0.924 1_565 S
H1355 C1333 0.950 . S
C1356 C1357 1.349 . S
C1356 C1358 1.327 1_455 S
C1356 H1381 0.950 . S
C1357 C1356 1.349 . S
C1357 C1373 1.349 1_455 S
C1358 C1356 1.327 1_655 S
C1358 C1377 1.429 . S
C1358 H1382 0.950 . S
C1359 C1376 1.574 . S
C1359 C1378 1.368 . S
C1359 H1383 0.949 . S
H1360 C1364 0.949 . S
C1361 C1362 1.349 . S
C1361 C1363 1.327 . S
C1361 H1384 0.950 . S
C1362 C1361 1.349 . S
C1362 C1374 1.349 . S
C1363 C1361 1.327 . S
C1363 C1379 1.429 . S
C1363 H1385 0.950 . S
C1364 H1360 0.949 . S
C1364 C1372 1.574 . S
C1364 C1380 1.368 . S
H1365 C1373 0.950 . S
H1366 C1371 0.950 . S
H1367 C1372 0.949 . S
H1368 C1374 0.950 . S
H1369 C1375 0.950 . S
H1370 C1376 0.949 . S
C1371 H1366 0.950 . S
C1371 C1373 1.327 . S
C1371 C1377 1.429 . S
C1372 C1364 1.574 . S
C1372 H1367 0.949 . S
C1372 C1378 1.368 . S
C1373 C1357 1.349 1_655 S
C1373 H1365 0.950 . S
C1373 C1371 1.327 . S
C1374 C1362 1.349 . S
C1374 H1368 0.950 . S
C1374 C1375 1.327 . S
C1375 H1369 0.950 . S
C1375 C1374 1.327 . S
C1375 C1379 1.429 . S
C1376 C1359 1.574 . S
C1376 H1370 0.949 . S
C1376 C1380 1.368 . S
C1377 C1358 1.429 . S
C1377 C1371 1.429 . S
C1377 C1378 1.523 . S
C1378 C1359 1.368 . S
C1378 C1372 1.368 . S
C1378 C1377 1.523 . S
C1379 C1363 1.429 . S
C1379 C1375 1.429 . S
C1379 C1380 1.523 . S
C1380 C1364 1.368 . S
C1380 C1376 1.368 . S
C1380 C1379 1.523 . S
H1381 C1356 0.950 . S
H1382 C1358 0.950 . S
H1383 C1359 0.949 . S
H1384 C1361 0.950 . S
H1385 C1363 0.950 . S
C1386 C1387 1.349 . S
C1386 C1388 1.327 . S
C1386 H1411 0.950 . S
C1387 C1386 1.349 . S
C1387 C1403 1.349 . S
C1388 C1386 1.327 . S
C1388 C1407 1.429 . S
C1388 H1412 0.950 . S
C1389 C1406 1.574 . S
C1389 C1408 1.368 . S
C1389 H1413 0.949 . S
H1390 C1394 0.949 . S
C1391 C1392 1.349 . S
C1391 C1393 1.327 . S
C1391 H1414 0.950 . S
C1392 C1391 1.349 . S
C1392 C1404 1.349 . S
C1393 C1391 1.327 . S
C1393 C1409 1.429 . S
C1393 H1415 0.950 . S
C1394 H1390 0.949 . S
C1394 C1402 1.574 . S
C1394 C1410 1.368 . S
H1395 C1403 0.950 . S
H1396 C1401 0.950 . S
H1397 C1402 0.949 . S
H1398 C1404 0.950 . S
H1399 C1405 0.950 . S
H1400 C1406 0.949 . S
C1401 H1396 0.950 . S
C1401 C1403 1.327 . S
C1401 C1407 1.429 . S
C1402 C1394 1.574 . S
C1402 H1397 0.949 . S
C1402 C1408 1.368 . S
C1403 C1387 1.349 . S
C1403 H1395 0.950 . S
C1403 C1401 1.327 . S
C1404 C1392 1.349 . S
C1404 H1398 0.950 . S
C1404 C1405 1.327 . S
C1405 H1399 0.950 . S
C1405 C1404 1.327 . S
C1405 C1409 1.429 . S
C1406 C1389 1.574 . S
C1406 H1400 0.949 . S
C1406 C1410 1.368 . S
C1407 C1388 1.429 . S
C1407 C1401 1.429 . S
C1407 C1408 1.523 . S
C1408 C1389 1.368 . S
C1408 C1402 1.368 . S
C1408 C1407 1.523 . S
C1409 C1393 1.429 . S
C1409 C1405 1.429 . S
C1409 C1410 1.523 . S
C1410 C1394 1.368 . S
C1410 C1406 1.368 . S
C1410 C1409 1.523 . S
H1411 C1386 0.950 . S
H1412 C1388 0.950 . S
H1413 C1389 0.949 . S
H1414 C1391 0.950 . S
H1415 C1393 0.950 . S
C1416 C1417 1.349 . S
C1416 C1418 1.327 . S
C1416 H1441 0.950 . S
C1417 C1416 1.349 . S
C1417 C1433 1.349 . S
C1418 C1416 1.327 . S
C1418 C1437 1.429 . S
C1418 H1442 0.950 . S
C1419 C1436 1.574 . S
C1419 C1438 1.368 . S
C1419 H1443 0.949 . S
H1420 C1424 0.949 . S
C1421 C1422 1.349 . S
C1421 C1423 1.327 . S
C1421 H1444 0.950 . S
C1422 C1421 1.349 . S
C1422 C1434 1.349 . S
C1423 C1421 1.327 . S
C1423 C1439 1.429 . S
C1423 H1445 0.950 . S
C1424 H1420 0.949 . S
C1424 C1432 1.574 . S
C1424 C1440 1.368 . S
H1425 C1433 0.950 . S
H1426 C1431 0.950 . S
H1427 C1432 0.949 . S
H1428 C1434 0.950 . S
H1429 C1435 0.950 . S
H1430 C1436 0.949 . S
C1431 H1426 0.950 . S
C1431 C1433 1.327 . S
C1431 C1437 1.429 . S
C1432 C1424 1.574 . S
C1432 H1427 0.949 . S
C1432 C1438 1.368 . S
C1433 C1417 1.349 . S
C1433 H1425 0.950 . S
C1433 C1431 1.327 . S
C1434 C1422 1.349 . S
C1434 H1428 0.950 . S
C1434 C1435 1.327 . S
C1435 H1429 0.950 . S
C1435 C1434 1.327 . S
C1435 C1439 1.429 . S
C1436 C1419 1.574 . S
C1436 H1430 0.949 . S
C1436 C1440 1.368 . S
C1437 C1418 1.429 . S
C1437 C1431 1.429 . S
C1437 C1438 1.523 . S
C1438 C1419 1.368 . S
C1438 C1432 1.368 . S
C1438 C1437 1.523 . S
C1439 C1423 1.429 . S
C1439 C1435 1.429 . S
C1439 C1440 1.523 . S
C1440 C1424 1.368 . S
C1440 C1436 1.368 . S
C1440 C1439 1.523 . S
H1441 C1416 0.950 . S
H1442 C1418 0.950 . S
H1443 C1419 0.949 . S
H1444 C1421 0.950 . S
H1445 C1423 0.950 . S
C1446 C1447 1.349 . S
C1446 C1448 1.327 . S
C1446 H1471 0.950 . S
C1447 C1446 1.349 . S
C1447 C1463 1.349 . S
C1448 C1446 1.327 . S
C1448 C1467 1.429 . S
C1448 H1472 0.950 . S
C1449 C1466 1.574 . S
C1449 C1468 1.368 . S
C1449 H1473 0.949 . S
H1450 C1454 0.949 . S
C1451 C1452 1.349 . S
C1451 C1453 1.327 . S
C1451 H1474 0.950 . S
C1452 C1451 1.349 . S
C1452 C1464 1.349 . S
C1453 C1451 1.327 . S
C1453 C1469 1.429 . S
C1453 H1475 0.950 . S
C1454 H1450 0.949 . S
C1454 C1462 1.574 . S
C1454 C1470 1.368 . S
H1455 C1463 0.950 . S
H1456 C1461 0.950 . S
H1457 C1462 0.949 . S
H1458 C1464 0.950 . S
H1459 C1465 0.950 . S
H1460 C1466 0.949 . S
C1461 H1456 0.950 . S
C1461 C1463 1.327 . S
C1461 C1467 1.429 . S
C1462 C1454 1.574 . S
C1462 H1457 0.949 . S
C1462 C1468 1.368 . S
C1463 C1447 1.349 . S
C1463 H1455 0.950 . S
C1463 C1461 1.327 . S
C1464 C1452 1.349 . S
C1464 H1458 0.950 . S
C1464 C1465 1.327 . S
C1465 H1459 0.950 . S
C1465 C1464 1.327 . S
C1465 C1469 1.429 . S
C1466 C1449 1.574 . S
C1466 H1460 0.949 . S
C1466 C1470 1.368 . S
C1467 C1448 1.429 . S
C1467 C1461 1.429 . S
C1467 C1468 1.523 . S
C1468 C1449 1.368 . S
C1468 C1462 1.368 . S
C1468 C1467 1.523 . S
C1469 C1453 1.429 . S
C1469 C1465 1.429 . S
C1469 C1470 1.523 . S
C1470 C1454 1.368 . S
C1470 C1466 1.368 . S
C1470 C1469 1.523 . S
H1471 C1446 0.950 . S
H1472 C1448 0.950 . S
H1473 C1449 0.949 . S
H1474 C1451 0.950 . S
H1475 C1453 0.950 . S
C1476 C1477 1.349 . S
C1476 C1478 1.327 . S
C1476 H1501 0.950 . S
C1477 C1476 1.349 . S
C1477 C1493 1.349 . S
C1478 C1476 1.327 . S
C1478 C1497 1.429 . S
C1478 H1502 0.950 . S
C1479 C1496 1.574 . S
C1479 C1498 1.368 . S
C1479 H1503 0.949 . S
H1480 C1484 0.949 . S
C1481 C1482 1.349 . S
C1481 C1483 1.327 . S
C1481 H1504 0.950 . S
C1482 C1481 1.349 . S
C1482 C1494 1.349 . S
C1483 C1481 1.327 . S
C1483 C1499 1.429 . S
C1483 H1505 0.950 . S
C1484 H1480 0.949 . S
C1484 C1492 1.574 . S
C1484 C1500 1.368 . S
H1485 C1493 0.950 . S
H1486 C1491 0.950 . S
H1487 C1492 0.949 . S
H1488 C1494 0.950 . S
H1489 C1495 0.950 . S
H1490 C1496 0.949 . S
C1491 H1486 0.950 . S
C1491 C1493 1.327 . S
C1491 C1497 1.429 . S
C1492 C1484 1.574 . S
C1492 H1487 0.949 . S
C1492 C1498 1.368 . S
C1493 C1477 1.349 . S
C1493 H1485 0.950 . S
C1493 C1491 1.327 . S
C1494 C1482 1.349 . S
C1494 H1488 0.950 . S
C1494 C1495 1.327 . S
C1495 H1489 0.950 . S
C1495 C1494 1.327 . S
C1495 C1499 1.429 . S
C1496 C1479 1.574 . S
C1496 H1490 0.949 . S
C1496 C1500 1.368 . S
C1497 C1478 1.429 . S
C1497 C1491 1.429 . S
C1497 C1498 1.523 . S
C1498 C1479 1.368 . S
C1498 C1492 1.368 . S
C1498 C1497 1.523 . S
C1499 C1483 1.429 . S
C1499 C1495 1.429 . S
C1499 C1500 1.523 . S
C1500 C1484 1.368 . S
C1500 C1496 1.368 . S
C1500 C1499 1.523 . S
H1501 C1476 0.950 . S
H1502 C1478 0.950 . S
H1503 C1479 0.949 . S
H1504 C1481 0.950 . S
H1505 C1483 0.950 . S
C1506 C1507 1.349 . S
C1506 C1508 1.327 . S
C1506 H1531 0.950 . S
C1507 C1506 1.349 . S
C1507 C1523 1.349 . S
C1508 C1506 1.327 . S
C1508 C1527 1.429 . S
C1508 H1532 0.950 . S
C1509 C1526 1.574 . S
C1509 C1528 1.368 . S
C1509 H1533 0.949 . S
H1510 C1514 0.949 . S
C1511 C1512 1.349 . S
C1511 C1513 1.327 . S
C1511 H1534 0.950 . S
C1512 C1511 1.349 . S
C1512 C1524 1.349 . S
C1513 C1511 1.327 . S
C1513 C1529 1.429 . S
C1513 H1535 0.950 . S
C1514 H1510 0.949 . S
C1514 C1522 1.574 . S
C1514 C1530 1.368 . S
H1515 C1523 0.950 . S
H1516 C1521 0.950 . S
H1517 C1522 0.949 . S
H1518 C1524 0.950 . S
H1519 C1525 0.950 . S
H1520 C1526 0.949 . S
C1521 H1516 0.950 . S
C1521 C1523 1.327 . S
C1521 C1527 1.429 . S
C1522 C1514 1.574 . S
C1522 H1517 0.949 . S
C1522 C1528 1.368 . S
C1523 C1507 1.349 . S
C1523 H1515 0.950 . S
C1523 C1521 1.327 . S
C1524 C1512 1.349 . S
C1524 H1518 0.950 . S
C1524 C1525 1.327 . S
C1525 H1519 0.950 . S
C1525 C1524 1.327 . S
C1525 C1529 1.429 . S
C1526 C1509 1.574 . S
C1526 H1520 0.949 . S
C1526 C1530 1.368 . S
C1527 C1508 1.429 . S
C1527 C1521 1.429 . S
C1527 C1528 1.523 . S
C1528 C1509 1.368 . S
C1528 C1522 1.368 . S
C1528 C1527 1.523 . S
C1529 C1513 1.429 . S
C1529 C1525 1.429 . S
C1529 C1530 1.523 . S
C1530 C1514 1.368 . S
C1530 C1526 1.368 . S
C1530 C1529 1.523 . S
H1531 C1506 0.950 . S
H1532 C1508 0.950 . S
H1533 C1509 0.949 . S
H1534 C1511 0.950 . S
H1535 C1513 0.950 . S
C1536 C1537 1.349 . S
C1536 C1538 1.327 . S
C1536 H1561 0.950 . S
C1537 C1536 1.349 . S
C1537 C1553 1.349 . S
C1538 C1536 1.327 . S
C1538 C1557 1.429 . S
C1538 H1562 0.950 . S
C1539 C1556 1.574 . S
C1539 C1558 1.368 . S
C1539 H1563 0.949 . S
H1540 C1544 0.949 1_545 S
C1541 C1542 1.349 . S
C1541 C1543 1.327 . S
C1541 H1564 0.950 . S
C1542 C1541 1.349 . S
C1542 C1554 1.349 . S
C1543 C1541 1.327 . S
C1543 C1559 1.429 . S
C1543 H1565 0.950 . S
C1544 H1540 0.949 1_565 S
C1544 C1552 1.574 . S
C1544 C1560 1.368 . S
H1545 C1553 0.950 . S
H1546 C1551 0.950 . S
H1547 C1552 0.949 . S
H1548 C1554 0.950 1_545 S
H1549 C1555 0.950 1_545 S
H1550 C1556 0.949 . S
C1551 H1546 0.950 . S
C1551 C1553 1.327 . S
C1551 C1557 1.429 . S
C1552 C1544 1.574 . S
C1552 H1547 0.949 . S
C1552 C1558 1.368 . S
C1553 C1537 1.349 . S
C1553 H1545 0.950 . S
C1553 C1551 1.327 . S
C1554 C1542 1.349 . S
C1554 H1548 0.950 1_565 S
C1554 C1555 1.327 . S
C1555 H1549 0.950 1_565 S
C1555 C1554 1.327 . S
C1555 C1559 1.429 . S
C1556 C1539 1.574 . S
C1556 H1550 0.949 . S
C1556 C1560 1.368 . S
C1557 C1538 1.429 . S
C1557 C1551 1.429 . S
C1557 C1558 1.523 . S
C1558 C1539 1.368 . S
C1558 C1552 1.368 . S
C1558 C1557 1.523 . S
C1559 C1543 1.429 . S
C1559 C1555 1.429 . S
C1559 C1560 1.523 . S
C1560 C1544 1.368 . S
C1560 C1556 1.368 . S
C1560 C1559 1.523 . S
H1561 C1536 0.950 . S
H1562 C1538 0.950 . S
H1563 C1539 0.949 . S
H1564 C1541 0.950 . S
H1565 C1543 0.950 . S
C1566 C1567 1.352 . S
C1566 C1568 1.322 1_556 S
C1566 H1591 0.952 . S
C1567 C1566 1.352 . S
C1567 C1583 1.349 . S
C1568 C1566 1.322 1_554 S
C1568 C1587 1.429 . S
C1568 H1592 0.950 . S
C1569 C1586 1.574 . S
C1569 C1588 1.368 . S
C1569 H1593 0.949 . S
H1570 C1574 0.949 . S
C1571 C1572 1.349 . S
C1571 C1573 1.327 . S
C1571 H1594 0.950 . S
C1572 C1571 1.349 . S
C1572 C1584 1.349 . S
C1573 C1571 1.327 . S
C1573 C1589 1.429 . S
C1573 H1595 0.950 . S
C1574 H1570 0.949 . S
C1574 C1582 1.574 . S
C1574 C1590 1.368 . S
H1575 C1583 0.950 . S
H1576 C1581 0.950 . S
H1577 C1582 0.949 . S
H1578 C1584 0.950 . S
H1579 C1585 0.950 . S
H1580 C1586 0.949 . S
C1581 H1576 0.950 . S
C1581 C1583 1.327 1_554 S
C1581 C1587 1.429 . S
C1582 C1574 1.574 . S
C1582 H1577 0.949 . S
C1582 C1588 1.368 . S
C1583 C1567 1.349 . S
C1583 H1575 0.950 . S
C1583 C1581 1.327 1_556 S
C1584 C1572 1.349 . S
C1584 H1578 0.950 . S
C1584 C1585 1.327 . S
C1585 H1579 0.950 . S
C1585 C1584 1.327 . S
C1585 C1589 1.429 . S
C1586 C1569 1.574 . S
C1586 H1580 0.949 . S
C1586 C1590 1.368 . S
C1587 C1568 1.429 . S
C1587 C1581 1.429 . S
C1587 C1588 1.523 . S
C1588 C1569 1.368 . S
C1588 C1582 1.368 . S
C1588 C1587 1.523 . S
C1589 C1573 1.429 . S
C1589 C1585 1.429 . S
C1589 C1590 1.523 . S
C1590 C1574 1.368 . S
C1590 C1586 1.368 . S
C1590 C1589 1.523 . S
H1591 C1566 0.952 . S
H1592 C1568 0.950 . S
H1593 C1569 0.949 . S
H1594 C1571 0.950 . S
H1595 C1573 0.950 . S
C1596 C1597 1.349 . S
C1596 C1598 1.327 . S
C1596 H1621 0.950 1_655 S
C1597 C1596 1.349 . S
C1597 C1613 1.349 . S
C1598 C1596 1.327 . S
C1598 C1617 1.429 . S
C1598 H1622 0.950 1_655 S
C1599 C1616 1.574 . S
C1599 C1618 1.368 . S
C1599 H1623 0.949 . S
H1600 C1604 0.949 . S
C1601 C1602 1.349 1_554 S
C1601 C1603 1.327 . S
C1601 H1624 0.950 1_554 S
C1602 C1601 1.349 1_556 S
C1602 C1614 1.349 . S
C1603 C1601 1.327 . S
C1603 C1619 1.429 . S
C1603 H1625 0.950 . S
C1604 H1600 0.949 . S
C1604 C1612 1.574 . S
C1604 C1620 1.368 . S
H1605 C1613 0.950 . S
H1606 C1611 0.950 . S
H1607 C1612 0.949 1_455 S
H1608 C1614 0.950 . S
H1609 C1615 0.950 . S
H1610 C1616 0.949 . S
C1611 H1606 0.950 . S
C1611 C1613 1.327 . S
C1611 C1617 1.429 . S
C1612 C1604 1.574 . S
C1612 H1607 0.949 1_655 S
C1612 C1618 1.368 . S
C1613 C1597 1.349 . S
C1613 H1605 0.950 . S
C1613 C1611 1.327 . S
C1614 C1602 1.349 . S
C1614 H1608 0.950 . S
C1614 C1615 1.327 1_556 S
C1615 H1609 0.950 . S
C1615 C1614 1.327 1_554 S
C1615 C1619 1.429 . S
C1616 C1599 1.574 . S
C1616 H1610 0.949 . S
C1616 C1620 1.368 . S
C1617 C1598 1.429 . S
C1617 C1611 1.429 . S
C1617 C1618 1.523 . S
C1618 C1599 1.368 . S
C1618 C1612 1.368 . S
C1618 C1617 1.523 . S
C1619 C1603 1.429 . S
C1619 C1615 1.429 . S
C1619 C1620 1.523 . S
C1620 C1604 1.368 . S
C1620 C1616 1.368 . S
C1620 C1619 1.523 . S
H1621 C1596 0.950 1_455 S
H1622 C1598 0.950 1_455 S
H1623 C1599 0.949 . S
H1624 C1601 0.950 1_556 S
H1625 C1603 0.950 . S
C1626 C1627 1.349 . S
C1626 C1628 1.327 . S
C1626 H1651 0.950 . S
C1627 C1626 1.349 . S
C1627 C1643 1.349 . S
C1628 C1626 1.327 . S
C1628 C1647 1.429 . S
C1628 H1652 0.950 . S
C1629 C1646 1.574 . S
C1629 C1648 1.368 . S
C1629 H1653 0.949 . S
H1630 C1634 0.949 . S
C1631 C1632 1.349 1_554 S
C1631 C1633 1.327 . S
C1631 H1654 0.950 1_554 S
C1632 C1631 1.349 1_556 S
C1632 C1644 1.349 . S
C1633 C1631 1.327 . S
C1633 C1649 1.429 . S
C1633 H1655 0.950 . S
C1634 H1630 0.949 . S
C1634 C1642 1.574 . S
C1634 C1650 1.368 . S
H1635 C1643 0.950 . S
H1636 C1641 0.950 . S
H1637 C1642 0.949 . S
H1638 C1644 0.950 . S
H1639 C1645 0.950 . S
H1640 C1646 0.949 . S
C1641 H1636 0.950 . S
C1641 C1643 1.327 . S
C1641 C1647 1.429 . S
C1642 C1634 1.574 . S
C1642 H1637 0.949 . S
C1642 C1648 1.368 . S
C1643 C1627 1.349 . S
C1643 H1635 0.950 . S
C1643 C1641 1.327 . S
C1644 C1632 1.349 . S
C1644 H1638 0.950 . S
C1644 C1645 1.327 1_556 S
C1645 H1639 0.950 . S
C1645 C1644 1.327 1_554 S
C1645 C1649 1.429 . S
C1646 C1629 1.574 . S
C1646 H1640 0.949 . S
C1646 C1650 1.368 . S
C1647 C1628 1.429 . S
C1647 C1641 1.429 . S
C1647 C1648 1.523 . S
C1648 C1629 1.368 . S
C1648 C1642 1.368 . S
C1648 C1647 1.523 . S
C1649 C1633 1.429 . S
C1649 C1645 1.429 . S
C1649 C1650 1.523 . S
C1650 C1634 1.368 . S
C1650 C1646 1.368 . S
C1650 C1649 1.523 . S
H1651 C1626 0.950 . S
H1652 C1628 0.950 . S
H1653 C1629 0.949 . S
H1654 C1631 0.950 1_556 S
H1655 C1633 0.950 . S
C1656 C1657 1.349 . S
C1656 C1658 1.327 . S
C1656 H1681 0.950 . S
C1657 C1656 1.349 . S
C1657 C1673 1.349 . S
C1658 C1656 1.327 . S
C1658 C1677 1.429 . S
C1658 H1682 0.950 . S
C1659 C1676 1.574 . S
C1659 C1678 1.368 . S
C1659 H1683 0.949 1_655 S
H1660 C1664 0.949 . S
C1661 C1662 1.349 . S
C1661 C1663 1.327 . S
C1661 H1684 0.950 . S
C1662 C1661 1.349 . S
C1662 C1674 1.349 . S
C1663 C1661 1.327 . S
C1663 C1679 1.429 . S
C1663 H1685 0.950 . S
C1664 H1660 0.949 . S
C1664 C1672 1.574 . S
C1664 C1680 1.368 . S
H1665 C1673 0.950 1_455 S
H1666 C1671 0.950 1_455 S
H1667 C1672 0.949 . S
H1668 C1674 0.950 . S
H1669 C1675 0.950 . S
H1670 C1676 0.949 . S
C1671 H1666 0.950 1_655 S
C1671 C1673 1.327 . S
C1671 C1677 1.429 . S
C1672 C1664 1.574 . S
C1672 H1667 0.949 . S
C1672 C1678 1.368 . S
C1673 C1657 1.349 . S
C1673 H1665 0.950 1_655 S
C1673 C1671 1.327 . S
C1674 C1662 1.349 . S
C1674 H1668 0.950 . S
C1674 C1675 1.327 . S
C1675 H1669 0.950 . S
C1675 C1674 1.327 . S
C1675 C1679 1.429 . S
C1676 C1659 1.574 . S
C1676 H1670 0.949 . S
C1676 C1680 1.368 . S
C1677 C1658 1.429 . S
C1677 C1671 1.429 . S
C1677 C1678 1.523 . S
C1678 C1659 1.368 . S
C1678 C1672 1.368 . S
C1678 C1677 1.523 . S
C1679 C1663 1.429 . S
C1679 C1675 1.429 . S
C1679 C1680 1.523 . S
C1680 C1664 1.368 . S
C1680 C1676 1.368 . S
C1680 C1679 1.523 . S
H1681 C1656 0.950 . S
H1682 C1658 0.950 . S
H1683 C1659 0.949 1_455 S
H1684 C1661 0.950 . S
H1685 C1663 0.950 . S
C1686 C1687 1.349 . S
C1686 C1688 1.327 . S
C1686 H1711 0.950 . S
C1687 C1686 1.349 . S
C1687 C1703 1.349 . S
C1688 C1686 1.327 . S
C1688 C1707 1.429 . S
C1688 H1712 0.950 . S
C1689 C1706 1.574 . S
C1689 C1708 1.368 . S
C1689 H1713 0.949 . S
H1690 C1694 0.949 . S
C1691 C1692 1.349 . S
C1691 C1693 1.327 . S
C1691 H1714 0.950 . S
C1692 C1691 1.349 . S
C1692 C1704 1.349 . S
C1693 C1691 1.327 . S
C1693 C1709 1.429 . S
C1693 H1715 0.950 . S
C1694 H1690 0.949 . S
C1694 C1702 1.574 . S
C1694 C1710 1.368 . S
H1695 C1703 0.950 . S
H1696 C1701 0.950 . S
H1697 C1702 0.949 . S
H1698 C1704 0.950 . S
H1699 C1705 0.950 . S
H1700 C1706 0.949 . S
C1701 H1696 0.950 . S
C1701 C1703 1.327 . S
C1701 C1707 1.429 . S
C1702 C1694 1.574 . S
C1702 H1697 0.949 . S
C1702 C1708 1.368 . S
C1703 C1687 1.349 . S
C1703 H1695 0.950 . S
C1703 C1701 1.327 . S
C1704 C1692 1.349 . S
C1704 H1698 0.950 . S
C1704 C1705 1.327 . S
C1705 H1699 0.950 . S
C1705 C1704 1.327 . S
C1705 C1709 1.429 . S
C1706 C1689 1.574 . S
C1706 H1700 0.949 . S
C1706 C1710 1.368 . S
C1707 C1688 1.429 . S
C1707 C1701 1.429 . S
C1707 C1708 1.523 . S
C1708 C1689 1.368 . S
C1708 C1702 1.368 . S
C1708 C1707 1.523 . S
C1709 C1693 1.429 . S
C1709 C1705 1.429 . S
C1709 C1710 1.523 . S
C1710 C1694 1.368 . S
C1710 C1706 1.368 . S
C1710 C1709 1.523 . S
H1711 C1686 0.950 . S
H1712 C1688 0.950 . S
H1713 C1689 0.949 . S
H1714 C1691 0.950 . S
H1715 C1693 0.950 . S
C1716 C1717 1.349 . S
C1716 C1718 1.327 . S
C1716 H1741 0.950 . S
C1717 C1716 1.349 . S
C1717 C1733 1.349 . S
C1718 C1716 1.327 . S
C1718 C1737 1.429 . S
C1718 H1742 0.950 . S
C1719 C1736 1.574 . S
C1719 C1738 1.368 . S
C1719 H1743 0.949 . S
H1720 C1724 0.949 . S
C1721 C1722 1.349 . S
C1721 C1723 1.327 . S
C1721 H1744 0.950 . S
C1722 C1721 1.349 . S
C1722 C1734 1.349 . S
C1723 C1721 1.327 . S
C1723 C1739 1.429 . S
C1723 H1745 0.950 . S
C1724 H1720 0.949 . S
C1724 C1732 1.574 . S
C1724 C1740 1.368 . S
H1725 C1733 0.950 . S
H1726 C1731 0.950 . S
H1727 C1732 0.949 . S
H1728 C1734 0.950 . S
H1729 C1735 0.950 . S
H1730 C1736 0.949 . S
C1731 H1726 0.950 . S
C1731 C1733 1.327 . S
C1731 C1737 1.429 . S
C1732 C1724 1.574 . S
C1732 H1727 0.949 . S
C1732 C1738 1.368 . S
C1733 C1717 1.349 . S
C1733 H1725 0.950 . S
C1733 C1731 1.327 . S
C1734 C1722 1.349 . S
C1734 H1728 0.950 . S
C1734 C1735 1.327 . S
C1735 H1729 0.950 . S
C1735 C1734 1.327 . S
C1735 C1739 1.429 . S
C1736 C1719 1.574 . S
C1736 H1730 0.949 . S
C1736 C1740 1.368 . S
C1737 C1718 1.429 . S
C1737 C1731 1.429 . S
C1737 C1738 1.523 . S
C1738 C1719 1.368 . S
C1738 C1732 1.368 . S
C1738 C1737 1.523 . S
C1739 C1723 1.429 . S
C1739 C1735 1.429 . S
C1739 C1740 1.523 . S
C1740 C1724 1.368 . S
C1740 C1736 1.368 . S
C1740 C1739 1.523 . S
H1741 C1716 0.950 . S
H1742 C1718 0.950 . S
H1743 C1719 0.949 . S
H1744 C1721 0.950 . S
H1745 C1723 0.950 . S
C1746 C1747 1.349 . S
C1746 C1748 1.327 . S
C1746 H1771 0.950 . S
C1747 C1746 1.349 . S
C1747 C1763 1.349 . S
C1748 C1746 1.327 . S
C1748 C1767 1.429 . S
C1748 H1772 0.950 . S
C1749 C1766 1.574 . S
C1749 C1768 1.368 . S
C1749 H1773 0.949 . S
H1750 C1754 0.949 . S
C1751 C1752 1.349 1_556 S
C1751 C1753 1.327 . S
C1751 H1774 0.950 1_556 S
C1752 C1751 1.349 1_554 S
C1752 C1764 1.349 . S
C1753 C1751 1.327 . S
C1753 C1769 1.429 . S
C1753 H1775 0.950 . S
C1754 H1750 0.949 . S
C1754 C1762 1.574 . S
C1754 C1770 1.368 . S
H1755 C1763 0.950 1_545 S
H1756 C1761 0.950 . S
H1757 C1762 0.949 . S
H1758 C1764 0.950 . S
H1759 C1765 0.950 . S
H1760 C1766 0.949 . S
C1761 H1756 0.950 . S
C1761 C1763 1.327 . S
C1761 C1767 1.429 . S
C1762 C1754 1.574 . S
C1762 H1757 0.949 . S
C1762 C1768 1.368 . S
C1763 C1747 1.349 . S
C1763 H1755 0.950 1_565 S
C1763 C1761 1.327 . S
C1764 C1752 1.349 . S
C1764 H1758 0.950 . S
C1764 C1765 1.327 1_554 S
C1765 H1759 0.950 . S
C1765 C1764 1.327 1_556 S
C1765 C1769 1.429 . S
C1766 C1749 1.574 . S
C1766 H1760 0.949 . S
C1766 C1770 1.368 . S
C1767 C1748 1.429 . S
C1767 C1761 1.429 . S
C1767 C1768 1.523 . S
C1768 C1749 1.368 . S
C1768 C1762 1.368 . S
C1768 C1767 1.523 . S
C1769 C1753 1.429 . S
C1769 C1765 1.429 . S
C1769 C1770 1.523 . S
C1770 C1754 1.368 . S
C1770 C1766 1.368 . S
C1770 C1769 1.523 . S
H1771 C1746 0.950 . S
H1772 C1748 0.950 . S
H1773 C1749 0.949 . S
H1774 C1751 0.950 1_554 S
H1775 C1753 0.950 . S
C1776 C1777 1.344 1_556 S
C1776 C1778 1.336 . S
C1776 H1801 0.945 1_556 S
C1777 C1776 1.344 1_554 S
C1777 C1793 1.349 . S
C1778 C1776 1.336 . S
C1778 C1797 1.429 . S
C1778 H1802 0.950 . S
C1779 C1796 1.574 . S
C1779 C1798 1.368 . S
C1779 H1803 0.949 . S
H1780 C1784 0.949 . S
C1781 C1782 1.349 . S
C1781 C1783 1.327 . S
C1781 H1804 0.951 . S
C1782 C1781 1.349 . S
C1782 C1794 1.349 . S
C1783 C1781 1.327 . S
C1783 C1799 1.429 . S
C1783 H1805 0.950 . S
C1784 H1780 0.949 . S
C1784 C1792 1.574 . S
C1784 C1800 1.368 . S
H1785 C1793 0.950 . S
H1786 C1791 0.950 . S
H1787 C1792 0.949 . S
H1788 C1794 0.950 . S
H1789 C1795 0.950 . S
H1790 C1796 0.949 . S
C1791 H1786 0.950 . S
C1791 C1793 1.327 1_556 S
C1791 C1797 1.429 . S
C1792 C1784 1.574 . S
C1792 H1787 0.949 . S
C1792 C1798 1.368 . S
C1793 C1777 1.349 . S
C1793 H1785 0.950 . S
C1793 C1791 1.327 1_554 S
C1794 C1782 1.349 . S
C1794 H1788 0.950 . S
C1794 C1795 1.327 . S
C1795 H1789 0.950 . S
C1795 C1794 1.327 . S
C1795 C1799 1.429 . S
C1796 C1779 1.574 . S
C1796 H1790 0.949 . S
C1796 C1800 1.368 . S
C1797 C1778 1.429 . S
C1797 C1791 1.429 . S
C1797 C1798 1.523 . S
C1798 C1779 1.368 . S
C1798 C1792 1.368 . S
C1798 C1797 1.523 . S
C1799 C1783 1.429 . S
C1799 C1795 1.429 . S
C1799 C1800 1.523 . S
C1800 C1784 1.368 . S
C1800 C1796 1.368 . S
C1800 C1799 1.523 . S
H1801 C1776 0.945 1_554 S
H1802 C1778 0.950 . S
H1803 C1779 0.949 . S
H1804 C1781 0.951 . S
H1805 C1783 0.950 . S
C1806 C1807 1.349 . S
C1806 C1808 1.327 . S
C1806 H1831 0.950 . S
C1807 C1806 1.349 . S
C1807 C1823 1.349 . S
C1808 C1806 1.327 . S
C1808 C1827 1.429 . S
C1808 H1832 0.950 . S
C1809 C1826 1.574 . S
C1809 C1828 1.368 . S
C1809 H1833 0.949 . S
H1810 C1814 0.949 . S
C1811 C1812 1.349 . S
C1811 C1813 1.327 1_554 S
C1811 H1834 0.950 . S
C1812 C1811 1.349 . S
C1812 C1824 1.349 1_554 S
C1813 C1811 1.327 1_556 S
C1813 C1829 1.429 . S
C1813 H1835 0.950 . S
C1814 H1810 0.949 . S
C1814 C1822 1.574 . S
C1814 C1830 1.368 . S
H1815 C1823 0.950 . S
H1816 C1821 0.950 . S
H1817 C1822 0.949 . S
H1818 C1824 0.950 1_554 S
H1819 C1825 0.950 . S
H1820 C1826 0.949 . S
C1821 H1816 0.950 . S
C1821 C1823 1.327 . S
C1821 C1827 1.429 . S
C1822 C1814 1.574 . S
C1822 H1817 0.949 . S
C1822 C1828 1.368 . S
C1823 C1807 1.349 . S
C1823 H1815 0.950 . S
C1823 C1821 1.327 . S
C1824 C1812 1.349 1_556 S
C1824 H1818 0.950 1_556 S
C1824 C1825 1.327 . S
C1825 H1819 0.950 . S
C1825 C1824 1.327 . S
C1825 C1829 1.429 . S
C1826 C1809 1.574 . S
C1826 H1820 0.949 . S
C1826 C1830 1.368 . S
C1827 C1808 1.429 . S
C1827 C1821 1.429 . S
C1827 C1828 1.523 . S
C1828 C1809 1.368 . S
C1828 C1822 1.368 . S
C1828 C1827 1.523 . S
C1829 C1813 1.429 . S
C1829 C1825 1.429 . S
C1829 C1830 1.523 . S
C1830 C1814 1.368 . S
C1830 C1826 1.368 . S
C1830 C1829 1.523 . S
H1831 C1806 0.950 . S
H1832 C1808 0.950 . S
H1833 C1809 0.949 . S
H1834 C1811 0.950 . S
H1835 C1813 0.950 . S
C1836 C1837 1.349 . S
C1836 C1838 1.327 1_565 S
C1836 H1861 0.950 1_565 S
C1837 C1836 1.349 . S
C1837 C1853 1.349 . S
C1838 C1836 1.327 1_545 S
C1838 C1857 1.429 1_545 S
C1838 H1862 0.950 . S
C1839 C1856 1.574 . S
C1839 C1858 1.388 . S
C1839 H1863 0.949 . S
H1840 C1844 0.949 . S
C1841 C1842 1.349 . S
C1841 C1843 1.327 . S
C1841 H1864 0.950 . S
C1842 C1841 1.349 . S
C1842 C1854 1.349 . S
C1843 C1841 1.327 . S
C1843 C1859 1.429 . S
C1843 H1865 0.950 1_545 S
C1844 H1840 0.949 . S
C1844 C1852 1.574 . S
C1844 C1860 1.368 . S
H1845 C1853 0.950 . S
H1846 C1851 0.950 . S
H1847 C1852 0.949 . S
H1848 C1854 0.950 . S
H1849 C1855 0.950 . S
H1850 C1856 0.949 . S
C1851 H1846 0.950 . S
C1851 C1853 1.327 . S
C1851 C1857 1.429 . S
C1852 C1844 1.574 . S
C1852 H1847 0.949 . S
C1852 C1858 1.345 1_545 S
C1853 C1837 1.349 . S
C1853 H1845 0.950 . S
C1853 C1851 1.327 . S
C1854 C1842 1.349 . S
C1854 H1848 0.950 . S
C1854 C1855 1.327 . S
C1855 H1849 0.950 . S
C1855 C1854 1.327 . S
C1855 C1859 1.429 . S
C1856 C1839 1.574 . S
C1856 H1850 0.949 . S
C1856 C1860 1.368 1_565 S
C1857 C1838 1.429 1_565 S
C1857 C1851 1.429 . S
C1857 C1858 1.529 . S
C1858 C1839 1.388 . S
C1858 C1852 1.345 1_565 S
C1858 C1857 1.529 . S
C1859 C1843 1.429 . S
C1859 C1855 1.429 . S
C1859 C1860 1.523 . S
C1860 C1844 1.368 . S
C1860 C1856 1.368 1_545 S
C1860 C1859 1.523 . S
H1861 C1836 0.950 1_545 S
H1862 C1838 0.950 . S
H1863 C1839 0.949 . S
H1864 C1841 0.950 . S
H1865 C1843 0.950 1_565 S
C1866 C1867 1.349 . S
C1866 C1868 1.327 . S
C1866 H1891 0.950 . S
C1867 C1866 1.349 . S
C1867 C1883 1.349 . S
C1868 C1866 1.327 . S
C1868 C1887 1.429 . S
C1868 H1892 0.950 . S
C1869 C1886 1.581 . S
C1869 C1888 1.368 . S
C1869 H1893 0.949 . S
H1870 C1874 0.949 . S
C1871 C1872 1.349 . S
C1871 C1873 1.327 . S
C1871 H1894 0.950 . S
C1872 C1871 1.349 . S
C1872 C1884 1.349 . S
C1873 C1871 1.327 . S
C1873 C1889 1.429 . S
C1873 H1895 0.950 . S
C1874 H1870 0.949 . S
C1874 C1882 1.574 . S
C1874 C1890 1.353 1_455 S
H1875 C1883 0.950 . S
H1876 C1881 0.950 . S
H1877 C1882 0.949 . S
H1878 C1884 0.950 . S
H1879 C1885 0.950 . S
H1880 C1886 0.933 1_655 S
C1881 H1876 0.950 . S
C1881 C1883 1.327 . S
C1881 C1887 1.429 . S
C1882 C1874 1.574 . S
C1882 H1877 0.949 . S
C1882 C1888 1.368 . S
C1883 C1867 1.349 . S
C1883 H1875 0.950 . S
C1883 C1881 1.327 . S
C1884 C1872 1.349 . S
C1884 H1878 0.950 . S
C1884 C1885 1.327 . S
C1885 H1879 0.950 . S
C1885 C1884 1.327 . S
C1885 C1889 1.429 . S
C1886 C1869 1.581 . S
C1886 H1880 0.933 1_455 S
C1886 C1890 1.392 1_455 S
C1887 C1868 1.429 . S
C1887 C1881 1.429 . S
C1887 C1888 1.523 . S
C1888 C1869 1.368 . S
C1888 C1882 1.368 . S
C1888 C1887 1.523 . S
C1889 C1873 1.429 . S
C1889 C1885 1.429 . S
C1889 C1890 1.529 . S
C1890 C1874 1.353 1_655 S
C1890 C1886 1.392 1_655 S
C1890 C1889 1.529 . S
H1891 C1866 0.950 . S
H1892 C1868 0.950 . S
H1893 C1869 0.949 . S
H1894 C1871 0.950 . S
H1895 C1873 0.950 . S
C1896 C1897 1.349 . S
C1896 C1898 1.327 . S
C1896 H1921 0.950 . S
C1897 C1896 1.349 . S
C1897 C1913 1.349 . S
C1898 C1896 1.327 . S
C1898 C1917 1.429 . S
C1898 H1922 0.950 . S
C1899 C1916 1.574 . S
C1899 C1918 1.368 . S
C1899 H1923 0.949 . S
H1900 C1904 0.949 . S
C1901 C1902 1.349 . S
C1901 C1903 1.327 . S
C1901 H1924 0.950 . S
C1902 C1901 1.349 . S
C1902 C1914 1.349 . S
C1903 C1901 1.327 . S
C1903 C1919 1.429 . S
C1903 H1925 0.950 . S
C1904 H1900 0.949 . S
C1904 C1912 1.574 . S
C1904 C1920 1.368 . S
H1905 C1913 0.950 . S
H1906 C1911 0.950 . S
H1907 C1912 0.949 . S
H1908 C1914 0.950 . S
H1909 C1915 0.950 . S
H1910 C1916 0.949 . S
C1911 H1906 0.950 . S
C1911 C1913 1.327 . S
C1911 C1917 1.429 . S
C1912 C1904 1.574 . S
C1912 H1907 0.949 . S
C1912 C1918 1.368 . S
C1913 C1897 1.349 . S
C1913 H1905 0.950 . S
C1913 C1911 1.327 . S
C1914 C1902 1.349 . S
C1914 H1908 0.950 . S
C1914 C1915 1.327 . S
C1915 H1909 0.950 . S
C1915 C1914 1.327 . S
C1915 C1919 1.429 . S
C1916 C1899 1.574 . S
C1916 H1910 0.949 . S
C1916 C1920 1.368 . S
C1917 C1898 1.429 . S
C1917 C1911 1.429 . S
C1917 C1918 1.523 . S
C1918 C1899 1.368 . S
C1918 C1912 1.368 . S
C1918 C1917 1.523 . S
C1919 C1903 1.429 . S
C1919 C1915 1.429 . S
C1919 C1920 1.523 . S
C1920 C1904 1.368 . S
C1920 C1916 1.368 . S
C1920 C1919 1.523 . S
H1921 C1896 0.950 . S
H1922 C1898 0.950 . S
H1923 C1899 0.949 . S
H1924 C1901 0.950 . S
H1925 C1903 0.950 . S
C1926 C1927 1.349 . S
C1926 C1928 1.327 . S
C1926 H1951 0.950 . S
C1927 C1926 1.349 . S
C1927 C1943 1.349 . S
C1928 C1926 1.327 . S
C1928 C1947 1.429 . S
C1928 H1952 0.950 . S
C1929 C1946 1.581 . S
C1929 C1948 1.368 . S
C1929 H1953 0.949 . S
H1930 C1934 0.949 . S
C1931 C1932 1.349 . S
C1931 C1933 1.327 . S
C1931 H1954 0.950 . S
C1932 C1931 1.349 . S
C1932 C1944 1.349 . S
C1933 C1931 1.327 . S
C1933 C1949 1.429 . S
C1933 H1955 0.950 . S
C1934 H1930 0.949 . S
C1934 C1942 1.574 . S
C1934 C1950 1.353 1_455 S
H1935 C1943 0.950 . S
H1936 C1941 0.950 . S
H1937 C1942 0.949 . S
H1938 C1944 0.950 . S
H1939 C1945 0.950 . S
H1940 C1946 0.931 1_655 S
C1941 H1936 0.950 . S
C1941 C1943 1.327 . S
C1941 C1947 1.429 . S
C1942 C1934 1.574 . S
C1942 H1937 0.949 . S
C1942 C1948 1.368 . S
C1943 C1927 1.349 . S
C1943 H1935 0.950 . S
C1943 C1941 1.327 . S
C1944 C1932 1.349 . S
C1944 H1938 0.950 . S
C1944 C1945 1.327 . S
C1945 H1939 0.950 . S
C1945 C1944 1.327 . S
C1945 C1949 1.429 . S
C1946 C1929 1.581 . S
C1946 H1940 0.931 1_455 S
C1946 C1950 1.393 1_455 S
C1947 C1928 1.429 . S
C1947 C1941 1.429 . S
C1947 C1948 1.523 . S
C1948 C1929 1.368 . S
C1948 C1942 1.368 . S
C1948 C1947 1.523 . S
C1949 C1933 1.429 . S
C1949 C1945 1.429 . S
C1949 C1950 1.529 . S
C1950 C1934 1.353 1_655 S
C1950 C1946 1.393 1_655 S
C1950 C1949 1.529 . S
H1951 C1926 0.950 . S
H1952 C1928 0.950 . S
H1953 C1929 0.949 . S
H1954 C1931 0.950 . S
H1955 C1933 0.950 . S
C1956 C1957 1.349 . S
C1956 C1958 1.327 . S
C1956 H1981 0.950 . S
C1957 C1956 1.349 . S
C1957 C1973 1.349 . S
C1958 C1956 1.327 . S
C1958 C1977 1.429 . S
C1958 H1982 0.950 . S
C1959 C1976 1.574 . S
C1959 C1978 1.368 . S
C1959 H1983 0.949 . S
H1960 C1964 0.949 . S
C1961 C1962 1.349 . S
C1961 C1963 1.327 . S
C1961 H1984 0.950 . S
C1962 C1961 1.349 . S
C1962 C1974 1.349 . S
C1963 C1961 1.327 . S
C1963 C1979 1.429 . S
C1963 H1985 0.950 . S
C1964 H1960 0.949 . S
C1964 C1972 1.574 . S
C1964 C1980 1.368 . S
H1965 C1973 0.950 . S
H1966 C1971 0.950 . S
H1967 C1972 0.949 . S
H1968 C1974 0.950 . S
H1969 C1975 0.950 . S
H1970 C1976 0.949 . S
C1971 H1966 0.950 . S
C1971 C1973 1.327 . S
C1971 C1977 1.429 . S
C1972 C1964 1.574 . S
C1972 H1967 0.949 . S
C1972 C1978 1.368 . S
C1973 C1957 1.349 . S
C1973 H1965 0.950 . S
C1973 C1971 1.327 . S
C1974 C1962 1.349 . S
C1974 H1968 0.950 . S
C1974 C1975 1.327 . S
C1975 H1969 0.950 . S
C1975 C1974 1.327 . S
C1975 C1979 1.429 . S
C1976 C1959 1.574 . S
C1976 H1970 0.949 . S
C1976 C1980 1.368 . S
C1977 C1958 1.429 . S
C1977 C1971 1.429 . S
C1977 C1978 1.523 . S
C1978 C1959 1.368 . S
C1978 C1972 1.368 . S
C1978 C1977 1.523 . S
C1979 C1963 1.429 . S
C1979 C1975 1.429 . S
C1979 C1980 1.523 . S
C1980 C1964 1.368 . S
C1980 C1976 1.368 . S
C1980 C1979 1.523 . S
H1981 C1956 0.950 . S
H1982 C1958 0.950 . S
H1983 C1959 0.949 . S
H1984 C1961 0.950 . S
H1985 C1963 0.950 . S
C1986 C1987 1.349 . S
C1986 C1988 1.327 . S
C1986 H2011 0.950 . S
C1987 C1986 1.349 . S
C1987 C2003 1.349 . S
C1988 C1986 1.327 . S
C1988 C2007 1.429 . S
C1988 H2012 0.950 . S
C1989 C2006 1.574 . S
C1989 C2008 1.368 1_565 S
C1989 H2013 0.949 . S
H1990 C1994 0.949 . S
C1991 C1992 1.349 . S
C1991 C1993 1.327 . S
C1991 H2014 0.950 . S
C1992 C1991 1.349 . S
C1992 C2004 1.349 . S
C1993 C1991 1.327 . S
C1993 C2009 1.429 . S
C1993 H2015 0.950 . S
C1994 H1990 0.949 . S
C1994 C2002 1.574 . S
C1994 C2010 1.362 1_545 S
H1995 C2003 0.950 . S
H1996 C2001 0.950 1_565 S
H1997 C2002 0.949 . S
H1998 C2004 0.950 1_545 S
H1999 C2005 0.950 . S
H2000 C2006 0.949 . S
C2001 H1996 0.950 1_545 S
C2001 C2003 1.327 . S
C2001 C2007 1.429 . S
C2002 C1994 1.574 . S
C2002 H1997 0.949 . S
C2002 C2008 1.368 . S
C2003 C1987 1.349 . S
C2003 H1995 0.950 . S
C2003 C2001 1.327 . S
C2004 C1992 1.349 . S
C2004 H1998 0.950 1_565 S
C2004 C2005 1.327 1_565 S
C2005 H1999 0.950 . S
C2005 C2004 1.327 1_545 S
C2005 C2009 1.429 1_545 S
C2006 C1989 1.574 . S
C2006 H2000 0.949 . S
C2006 C2010 1.370 . S
C2007 C1988 1.429 . S
C2007 C2001 1.429 . S
C2007 C2008 1.523 . S
C2008 C1989 1.368 1_545 S
C2008 C2002 1.368 . S
C2008 C2007 1.523 . S
C2009 C1993 1.429 . S
C2009 C2005 1.429 1_565 S
C2009 C2010 1.529 . S
C2010 C1994 1.362 1_565 S
C2010 C2006 1.370 . S
C2010 C2009 1.529 . S
H2011 C1986 0.950 . S
H2012 C1988 0.950 . S
H2013 C1989 0.949 . S
H2014 C1991 0.950 . S
H2015 C1993 0.950 . S
C397 C251 1.081 . S
C402 C6 1.076 . S
C427 C27 1.076 . S
C432 C207 1.081 . S
C457 C49 1.076 . S
C462 C229 1.081 . S
C487 C335 1.081 . S
C492 C51 1.076 . S
C517 C9 1.076 . S
C522 C356 1.081 . S
C547 C29 1.076 . S
C552 C378 1.081 . S
C577 C314 1.081 . S
C582 C75 1.076 . S
C607 C95 1.076 . S
C612 C268 1.081 . S
C637 C117 1.076 . S
C642 C292 1.081 . S
C667 C139 1.081 . S
C672 C115 1.076 . S
C697 C72 1.076 . S
C702 C161 1.081 . S
C727 C183 1.081 . S
C732 C93 1.076 . S
C757 C383 1.081 . S
C762 C138 1.076 . S
C787 C338 1.081 . S
C792 C160 1.076 . S
C817 C361 1.120 . S
C822 C182 1.076 . S
C847 C71 1.081 . S
C852 C185 1.076 . S
C877 C92 1.081 . S
C882 C141 1.076 . S
C907 C163 1.076 . S
C912 C114 1.081 . S
C937 C50 1.081 . S
C942 C205 1.076 . S
C967 C4 1.081 . S
C972 C227 1.076 . S
C997 C249 1.076 . S
C1002 C28 1.081 . S
C1027 C247 1.076 . S
C1032 C271 1.081 . S
C1057 C203 1.076 . S
C1062 C294 1.081 . S
C1087 C225 1.076 . S
C1092 C316 1.101 . S
C1117 C270 1.076 . S
C1122 C119 1.081 . S
C1147 C291 1.076 . S
C1152 C74 1.081 . S
C1177 C313 1.076 . S
C1182 C97 1.081 . S
C1207 C315 1.076 . S
C1212 C202 1.081 . S
C1237 C273 1.076 . S
C1242 C224 1.120 . S
C1267 C293 1.076 . S
C1272 C246 1.081 . S
C1297 C339 1.076 . S
C1302 C180 1.081 . S
C1327 C359 1.076 . S
C1332 C136 1.101 . S
C1357 C158 1.081 . S
C1362 C381 1.076 . S
C1387 C7 1.081 . S
C1392 C379 1.076 . S
C1417 C30 1.081 . S
C1422 C336 1.076 . S
C1447 C357 1.076 . S
C1452 C52 1.081 . S
C1477 C159 1.364 . S
C1482 C8 1.364 . S
C1507 C181 1.364 . S
C1512 C31 1.364 . S
C1537 C137 1.364 . S
C1542 C53 1.364 . S
C1567 C295 1.364 . S
C1572 C48 1.364 . S
C1597 C5 1.364 . S
C1602 C317 1.364 . S
C1627 C26 1.364 . S
C1632 C272 1.364 . S
C1657 C70 1.364 . S
C1662 C360 1.364 . S
C1687 C94 1.364 . S
C1692 C382 1.364 . S
C1717 C116 1.364 . S
C1722 C337 1.364 . S
C1747 C118 1.364 . S
C1752 C226 1.364 . S
C1777 C248 1.364 . S
C1782 C73 1.364 . S
C1807 C96 1.364 . S
C1812 C204 1.364 . S
C1837 C140 1.364 . S
C1842 C290 1.364 . S
C1867 C162 1.364 . S
C1872 C312 1.364 . S
C1897 C184 1.364 . S
C1902 C269 1.364 . S
C1927 C250 1.364 . S
C1932 C358 1.364 . S
C1957 C380 1.364 . S
C1962 C206 1.364 . S
C1987 C334 1.364 . S
C1992 C228 1.364 . S
