# Generated by pormake.
# Topology sxi, (6)-cn, num edge types: 1
# Building blocks:
#     Node 0, Type 0, BuildingBlock: OJICUG_clean_sbu_0, # of connection points: 6
#     Node 1, Type 0, BuildingBlock: OJICUG_clean_sbu_0, # of connection points: 6
#     Node 2, Type 0, BuildingBlock: OJICUG_clean_sbu_0, # of connection points: 6
#     Node 3, Type 0, BuildingBlock: OJICUG_clean_sbu_0, # of connection points: 6
#     Node 4, Type 0, BuildingBlock: OJICUG_clean_sbu_0, # of connection points: 6
#     Node 5, Type 0, BuildingBlock: OJICUG_clean_sbu_0, # of connection points: 6
#     Node 6, Type 0, BuildingBlock: OJICUG_clean_sbu_0, # of connection points: 6
#     Node 7, Type 0, BuildingBlock: OJICUG_clean_sbu_0, # of connection points: 6
#     Node 8, Type 0, BuildingBlock: OJICUG_clean_sbu_0, # of connection points: 6
#     Node 9, Type 0, BuildingBlock: OJICUG_clean_sbu_0, # of connection points: 6
#     Node 10, Type 0, BuildingBlock: OJICUG_clean_sbu_0, # of connection points: 6
#     Node 11, Type 0, BuildingBlock: OJICUG_clean_sbu_0, # of connection points: 6
#     Node 12, Type 0, BuildingBlock: OJICUG_clean_sbu_0, # of connection points: 6
#     Node 13, Type 0, BuildingBlock: OJICUG_clean_sbu_0, # of connection points: 6
#     Node 14, Type 0, BuildingBlock: OJICUG_clean_sbu_0, # of connection points: 6
#     Node 15, Type 0, BuildingBlock: OJICUG_clean_sbu_0, # of connection points: 6
#     Node 16, Type 0, BuildingBlock: OJICUG_clean_sbu_0, # of connection points: 6
#     Node 17, Type 0, BuildingBlock: OJICUG_clean_sbu_0, # of connection points: 6
#     Node 18, Type 0, BuildingBlock: OJICUG_clean_sbu_0, # of connection points: 6
#     Node 19, Type 0, BuildingBlock: OJICUG_clean_sbu_0, # of connection points: 6
#     Node 20, Type 0, BuildingBlock: OJICUG_clean_sbu_0, # of connection points: 6
#     Node 21, Type 0, BuildingBlock: OJICUG_clean_sbu_0, # of connection points: 6
#     Node 22, Type 0, BuildingBlock: OJICUG_clean_sbu_0, # of connection points: 6
#     Node 23, Type 0, BuildingBlock: OJICUG_clean_sbu_0, # of connection points: 6
#     Edge 24, Type (0, 0), BuildingBlock: ZUJKAS_clean_linker_0, # of connection points: 2
#     Edge 25, Type (0, 0), BuildingBlock: ZUJKAS_clean_linker_0, # of connection points: 2
#     Edge 26, Type (0, 0), BuildingBlock: ZUJKAS_clean_linker_0, # of connection points: 2
#     Edge 27, Type (0, 0), BuildingBlock: ZUJKAS_clean_linker_0, # of connection points: 2
#     Edge 28, Type (0, 0), BuildingBlock: ZUJKAS_clean_linker_0, # of connection points: 2
#     Edge 29, Type (0, 0), BuildingBlock: ZUJKAS_clean_linker_0, # of connection points: 2
#     Edge 30, Type (0, 0), BuildingBlock: ZUJKAS_clean_linker_0, # of connection points: 2
#     Edge 31, Type (0, 0), BuildingBlock: ZUJKAS_clean_linker_0, # of connection points: 2
#     Edge 32, Type (0, 0), BuildingBlock: ZUJKAS_clean_linker_0, # of connection points: 2
#     Edge 33, Type (0, 0), BuildingBlock: ZUJKAS_clean_linker_0, # of connection points: 2
#     Edge 34, Type (0, 0), BuildingBlock: ZUJKAS_clean_linker_0, # of connection points: 2
#     Edge 35, Type (0, 0), BuildingBlock: ZUJKAS_clean_linker_0, # of connection points: 2
#     Edge 36, Type (0, 0), BuildingBlock: ZUJKAS_clean_linker_0, # of connection points: 2
#     Edge 37, Type (0, 0), BuildingBlock: ZUJKAS_clean_linker_0, # of connection points: 2
#     Edge 38, Type (0, 0), BuildingBlock: ZUJKAS_clean_linker_0, # of connection points: 2
#     Edge 39, Type (0, 0), BuildingBlock: ZUJKAS_clean_linker_0, # of connection points: 2
#     Edge 40, Type (0, 0), BuildingBlock: ZUJKAS_clean_linker_0, # of connection points: 2
#     Edge 41, Type (0, 0), BuildingBlock: ZUJKAS_clean_linker_0, # of connection points: 2
#     Edge 42, Type (0, 0), BuildingBlock: ZUJKAS_clean_linker_0, # of connection points: 2
#     Edge 43, Type (0, 0), BuildingBlock: ZUJKAS_clean_linker_0, # of connection points: 2
#     Edge 44, Type (0, 0), BuildingBlock: ZUJKAS_clean_linker_0, # of connection points: 2
#     Edge 45, Type (0, 0), BuildingBlock: ZUJKAS_clean_linker_0, # of connection points: 2
#     Edge 46, Type (0, 0), BuildingBlock: ZUJKAS_clean_linker_0, # of connection points: 2
#     Edge 47, Type (0, 0), BuildingBlock: ZUJKAS_clean_linker_0, # of connection points: 2
#     Edge 48, Type (0, 0), BuildingBlock: ZUJKAS_clean_linker_0, # of connection points: 2
#     Edge 49, Type (0, 0), BuildingBlock: ZUJKAS_clean_linker_0, # of connection points: 2
#     Edge 50, Type (0, 0), BuildingBlock: ZUJKAS_clean_linker_0, # of connection points: 2
#     Edge 51, Type (0, 0), BuildingBlock: ZUJKAS_clean_linker_0, # of connection points: 2
#     Edge 52, Type (0, 0), BuildingBlock: ZUJKAS_clean_linker_0, # of connection points: 2
#     Edge 53, Type (0, 0), BuildingBlock: ZUJKAS_clean_linker_0, # of connection points: 2
#     Edge 54, Type (0, 0), BuildingBlock: ZUJKAS_clean_linker_0, # of connection points: 2
#     Edge 55, Type (0, 0), BuildingBlock: ZUJKAS_clean_linker_0, # of connection points: 2
#     Edge 56, Type (0, 0), BuildingBlock: ZUJKAS_clean_linker_0, # of connection points: 2
#     Edge 57, Type (0, 0), BuildingBlock: ZUJKAS_clean_linker_0, # of connection points: 2
#     Edge 58, Type (0, 0), BuildingBlock: ZUJKAS_clean_linker_0, # of connection points: 2
#     Edge 59, Type (0, 0), BuildingBlock: ZUJKAS_clean_linker_0, # of connection points: 2
#     Edge 60, Type (0, 0), BuildingBlock: ZUJKAS_clean_linker_0, # of connection points: 2
#     Edge 61, Type (0, 0), BuildingBlock: ZUJKAS_clean_linker_0, # of connection points: 2
#     Edge 62, Type (0, 0), BuildingBlock: ZUJKAS_clean_linker_0, # of connection points: 2
#     Edge 63, Type (0, 0), BuildingBlock: ZUJKAS_clean_linker_0, # of connection points: 2
#     Edge 64, Type (0, 0), BuildingBlock: ZUJKAS_clean_linker_0, # of connection points: 2
#     Edge 65, Type (0, 0), BuildingBlock: ZUJKAS_clean_linker_0, # of connection points: 2
#     Edge 66, Type (0, 0), BuildingBlock: ZUJKAS_clean_linker_0, # of connection points: 2
#     Edge 67, Type (0, 0), BuildingBlock: ZUJKAS_clean_linker_0, # of connection points: 2
#     Edge 68, Type (0, 0), BuildingBlock: ZUJKAS_clean_linker_0, # of connection points: 2
#     Edge 69, Type (0, 0), BuildingBlock: ZUJKAS_clean_linker_0, # of connection points: 2
#     Edge 70, Type (0, 0), BuildingBlock: ZUJKAS_clean_linker_0, # of connection points: 2
#     Edge 71, Type (0, 0), BuildingBlock: ZUJKAS_clean_linker_0, # of connection points: 2
#     Edge 72, Type (0, 0), BuildingBlock: ZUJKAS_clean_linker_0, # of connection points: 2
#     Edge 73, Type (0, 0), BuildingBlock: ZUJKAS_clean_linker_0, # of connection points: 2
#     Edge 74, Type (0, 0), BuildingBlock: ZUJKAS_clean_linker_0, # of connection points: 2
#     Edge 75, Type (0, 0), BuildingBlock: ZUJKAS_clean_linker_0, # of connection points: 2
#     Edge 76, Type (0, 0), BuildingBlock: ZUJKAS_clean_linker_0, # of connection points: 2
#     Edge 77, Type (0, 0), BuildingBlock: ZUJKAS_clean_linker_0, # of connection points: 2
#     Edge 78, Type (0, 0), BuildingBlock: ZUJKAS_clean_linker_0, # of connection points: 2
#     Edge 79, Type (0, 0), BuildingBlock: ZUJKAS_clean_linker_0, # of connection points: 2
#     Edge 80, Type (0, 0), BuildingBlock: ZUJKAS_clean_linker_0, # of connection points: 2
#     Edge 81, Type (0, 0), BuildingBlock: ZUJKAS_clean_linker_0, # of connection points: 2
#     Edge 82, Type (0, 0), BuildingBlock: ZUJKAS_clean_linker_0, # of connection points: 2
#     Edge 83, Type (0, 0), BuildingBlock: ZUJKAS_clean_linker_0, # of connection points: 2
#     Edge 84, Type (0, 0), BuildingBlock: ZUJKAS_clean_linker_0, # of connection points: 2
#     Edge 85, Type (0, 0), BuildingBlock: ZUJKAS_clean_linker_0, # of connection points: 2
#     Edge 86, Type (0, 0), BuildingBlock: ZUJKAS_clean_linker_0, # of connection points: 2
#     Edge 87, Type (0, 0), BuildingBlock: ZUJKAS_clean_linker_0, # of connection points: 2
#     Edge 88, Type (0, 0), BuildingBlock: ZUJKAS_clean_linker_0, # of connection points: 2
#     Edge 89, Type (0, 0), BuildingBlock: ZUJKAS_clean_linker_0, # of connection points: 2
#     Edge 90, Type (0, 0), BuildingBlock: ZUJKAS_clean_linker_0, # of connection points: 2
#     Edge 91, Type (0, 0), BuildingBlock: ZUJKAS_clean_linker_0, # of connection points: 2
#     Edge 92, Type (0, 0), BuildingBlock: ZUJKAS_clean_linker_0, # of connection points: 2
#     Edge 93, Type (0, 0), BuildingBlock: ZUJKAS_clean_linker_0, # of connection points: 2
#     Edge 94, Type (0, 0), BuildingBlock: ZUJKAS_clean_linker_0, # of connection points: 2
#     Edge 95, Type (0, 0), BuildingBlock: ZUJKAS_clean_linker_0, # of connection points: 2
# Relax obj value: 0.447
# Max RMSD: 0.271
# Mean RMSD: 0.271
data_MOF--net-sxi--node1-OJICUG_clean_sbu_0--edge1-ZUJKAS_clean_linker_0
_symmetry_space_group_name_H-M    P1
_symmetry_Int_Tables_number       1
_symmetry_cell_setting            triclinic
loop_
_symmetry_equiv_pos_as_xyz
'x, y, z'
_cell_length_a     61.017922
_cell_length_b     61.020343
_cell_length_c     61.01012
_cell_angle_alpha  89.985118
_cell_angle_beta   90.009361
_cell_angle_gamma 90.029521
loop_
_atom_site_label
_atom_site_type_symbol
_atom_site_fract_x
_atom_site_fract_y
_atom_site_fract_z
_atom_type_partial_charge
Sc0 Sc 0.01343 0.32397 0.39004 0.0
Sc1 Sc 0.06557 0.33923 0.37193 0.0
Sc2 Sc 0.03012 0.37806 0.39416 0.0
O3 O 0.03631 0.34707 0.38535 0.0
C4 C 0.985 0.36515 0.37396 0.0
C5 C 0.0325 0.30752 0.346 0.0
C6 C 0.05459 0.38296 0.34772 0.0
C7 C 0.05823 0.30065 0.40474 0.0
C8 C 0.00764 0.35102 0.43333 0.0
C9 C 0.07879 0.37449 0.40833 0.0
O10 O 0.98682 0.34524 0.38002 0.0
O11 O 0.05191 0.31346 0.35098 0.0
O12 O 0.04638 0.39095 0.36523 0.0
O13 O 0.03767 0.3003 0.40087 0.0
O14 O 0.01288 0.36893 0.42395 0.0
O15 O 0.08393 0.36321 0.3915 0.0
O16 O 0.00896 0.33259 0.42377 0.0
O17 O 0.07096 0.31541 0.39722 0.0
O18 O 0.05915 0.37894 0.41325 0.0
O19 O 0.01585 0.31367 0.35676 0.0
O20 O 0.00036 0.37899 0.37601 0.0
O21 O 0.06064 0.36302 0.34621 0.0
Sc22 Sc 0.93645 0.77208 0.64471 0.0
Sc23 Sc 0.91172 0.81926 0.62141 0.0
Sc24 Sc 0.87987 0.77312 0.63609 0.0
O25 O 0.90937 0.78822 0.634 0.0
C26 C 0.91056 0.73458 0.6193 0.0
C27 C 0.95435 0.79659 0.60195 0.0
C28 C 0.87515 0.79817 0.59035 0.0
C29 C 0.94567 0.82037 0.66169 0.0
C30 C 0.90193 0.75665 0.68061 0.0
C31 C 0.86899 0.82178 0.65166 0.0
O32 O 0.92826 0.74263 0.62686 0.0
O33 O 0.93892 0.81051 0.59995 0.0
O34 O 0.87039 0.78299 0.60373 0.0
O35 O 0.94721 0.79969 0.66339 0.0
O36 O 0.88531 0.76086 0.66881 0.0
O37 O 0.88486 0.83107 0.6417 0.0
O38 O 0.92136 0.75979 0.674 0.0
O39 O 0.93419 0.82973 0.64695 0.0
O40 O 0.86533 0.80132 0.65077 0.0
O41 O 0.95532 0.78263 0.61731 0.0
O42 O 0.89201 0.74369 0.62164 0.0
O43 O 0.88942 0.81284 0.59442 0.0
Sc44 Sc 0.47859 0.67603 0.88961 0.0
Sc45 Sc 0.42798 0.65956 0.86922 0.0
Sc46 Sc 0.46276 0.62178 0.89358 0.0
O47 O 0.45658 0.65247 0.88421 0.0
C48 C 0.50871 0.63531 0.87572 0.0
C49 C 0.4608 0.69307 0.84582 0.0
C50 C 0.44193 0.61695 0.84541 0.0
C51 C 0.43236 0.6975 0.90275 0.0
C52 C 0.4835 0.6494 0.93332 0.0
C53 C 0.41351 0.62304 0.90359 0.0
O54 O 0.50602 0.65532 0.88108 0.0
O55 O 0.44136 0.68707 0.85047 0.0
O56 O 0.44819 0.60886 0.86371 0.0
O57 O 0.45295 0.69882 0.8991 0.0
O58 O 0.47845 0.63142 0.92398 0.0
O59 O 0.40964 0.63362 0.88602 0.0
O60 O 0.48221 0.66778 0.92362 0.0
O61 O 0.42039 0.68212 0.89512 0.0
O62 O 0.43266 0.6207 0.91115 0.0
O63 O 0.47728 0.68575 0.85605 0.0
O64 O 0.49361 0.62109 0.8772 0.0
O65 O 0.43602 0.63692 0.84334 0.0
Sc66 Sc 0.57482 0.22014 0.1549 0.0
Sc67 Sc 0.59108 0.17507 0.12245 0.0
Sc68 Sc 0.6305 0.21095 0.14584 0.0
O69 O 0.59881 0.20197 0.14101 0.0
C70 C 0.6075 0.2572 0.13883 0.0
C71 C 0.55395 0.20872 0.10815 0.0
C72 C 0.63096 0.19655 0.0956 0.0
C73 C 0.55708 0.17184 0.16221 0.0
C74 C 0.61068 0.22085 0.19301 0.0
C75 C 0.63295 0.1588 0.14919 0.0
O76 O 0.58823 0.25048 0.143 0.0
O77 O 0.56614 0.19239 0.10361 0.0
O78 O 0.6378 0.20789 0.11166 0.0
O79 O 0.55929 0.19165 0.16814 0.0
O80 O 0.62674 0.21544 0.18087 0.0
O81 O 0.61479 0.15474 0.13971 0.0
O82 O 0.59145 0.22352 0.1856 0.0
O83 O 0.56652 0.16372 0.14548 0.0
O84 O 0.64049 0.17801 0.15181 0.0
O85 O 0.55525 0.21922 0.12603 0.0
O86 O 0.62424 0.24495 0.14004 0.0
O87 O 0.61483 0.18333 0.0971 0.0
Sc88 Sc 0.53264 0.12173 0.60147 0.0
Sc89 Sc 0.5705 0.15918 0.62471 0.0
Sc90 Sc 0.52497 0.17799 0.59406 0.0
O91 O 0.54276 0.15298 0.6068 0.0
C92 C 0.52277 0.14339 0.55493 0.0
C93 C 0.58455 0.11725 0.59689 0.0
C94 C 0.57389 0.19434 0.58608 0.0
C95 C 0.54822 0.11954 0.65133 0.0
C96 C 0.48706 0.1458 0.60933 0.0
C97 C 0.5383 0.19688 0.64105 0.0
O98 O 0.52739 0.1268 0.56672 0.0
O99 O 0.5895 0.13493 0.6068 0.0
O100 O 0.55369 0.19351 0.58121 0.0
O101 O 0.53639 0.1133 0.63537 0.0
O102 O 0.49414 0.16494 0.60518 0.0
O103 O 0.55478 0.18449 0.64425 0.0
O104 O 0.49906 0.12889 0.60829 0.0
O105 O 0.56177 0.1354 0.64986 0.0
O106 O 0.5266 0.19627 0.62389 0.0
O107 O 0.565 0.11067 0.59432 0.0
O108 O 0.52116 0.1626 0.56273 0.0
O109 O 0.58237 0.18356 0.6018 0.0
Sc110 Sc 0.12364 0.2858 0.8544 0.0
Sc111 Sc 0.08562 0.32097 0.87848 0.0
Sc112 Sc 0.06885 0.27087 0.85619 0.0
O113 O 0.09266 0.2925 0.863 0.0
C114 C 0.09696 0.26651 0.81329 0.0
C115 C 0.12256 0.33552 0.84417 0.0
C116 C 0.04757 0.31759 0.84436 0.0
C117 C 0.12841 0.30675 0.90257 0.0
C118 C 0.10844 0.23991 0.87139 0.0
C119 C 0.05182 0.28764 0.90109 0.0
O120 O 0.11473 0.27101 0.8233 0.0
O121 O 0.11081 0.33967 0.86095 0.0
O122 O 0.04667 0.29677 0.84623 0.0
O123 O 0.13639 0.29947 0.88466 0.0
O124 O 0.08872 0.24294 0.86522 0.0
O125 O 0.05887 0.30703 0.89783 0.0
O126 O 0.123 0.25472 0.87038 0.0
O127 O 0.10863 0.31328 0.90423 0.0
O128 O 0.05737 0.27159 0.88918 0.0
O129 O 0.12618 0.31619 0.83758 0.0
O130 O 0.07835 0.26777 0.8225 0.0
O131 O 0.06245 0.32921 0.85331 0.0
Sc132 Sc 0.96635 0.87776 0.09898 0.0
Sc133 Sc 0.93333 0.83964 0.12665 0.0
Sc134 Sc 0.98014 0.82258 0.09769 0.0
O135 O 0.95996 0.84662 0.10786 0.0
C136 C 0.98 0.85178 0.05529 0.0
C137 C 0.9154 0.87678 0.094 0.0
C138 C 0.93235 0.8014 0.09192 0.0
C139 C 0.9501 0.88289 0.14899 0.0
C140 C 0.0137 0.86122 0.10969 0.0
C141 C 0.96937 0.80597 0.1452 0.0
O142 O 0.97692 0.86931 0.06615 0.0
O143 O 0.91263 0.86399 0.11032 0.0
O144 O 0.95314 0.80107 0.09015 0.0
O145 O 0.95691 0.89043 0.13074 0.0
O146 O 0.00933 0.84163 0.10397 0.0
O147 O 0.9501 0.81407 0.14542 0.0
O148 O -0.00071 0.87618 0.11065 0.0
O149 O 0.94285 0.86342 0.15112 0.0
O150 O 0.98299 0.80977 0.12998 0.0
O151 O 0.93412 0.88145 0.08632 0.0
O152 O 0.97955 0.83298 0.06415 0.0
O153 O 0.92215 0.8156 0.10332 0.0
Sc154 Sc 0.37286 0.7142 0.35536 0.0
Sc155 Sc 0.41067 0.67928 0.38005 0.0
Sc156 Sc 0.42743 0.72957 0.35785 0.0
O157 O 0.40375 0.70773 0.36444 0.0
C158 C 0.3997 0.73428 0.31482 0.0
C159 C 0.37492 0.66479 0.34439 0.0
C160 C 0.44931 0.68305 0.3464 0.0
C161 C 0.36705 0.6926 0.40303 0.0
C162 C 0.3874 0.75978 0.3734 0.0
C163 C 0.44373 0.71301 0.40334 0.0
O164 O 0.38193 0.72972 0.32473 0.0
O165 O 0.3861 0.66048 0.36155 0.0
O166 O 0.44986 0.70391 0.34791 0.0
O167 O 0.3595 0.69977 0.38491 0.0
O168 O 0.40714 0.75714 0.36707 0.0
O169 O 0.43669 0.69356 0.4003 0.0
O170 O 0.37299 0.74485 0.37204 0.0
O171 O 0.38691 0.68652 0.40529 0.0
O172 O 0.43875 0.72881 0.39086 0.0
O173 O 0.37128 0.68417 0.33797 0.0
O174 O 0.41827 0.73285 0.32407 0.0
O175 O 0.4346 0.67133 0.35551 0.0
Sc176 Sc 0.38866 0.02262 0.37673 0.0
Sc177 Sc 0.36836 0.06158 0.33868 0.0
Sc178 Sc 0.39197 0.01172 0.32066 0.0
O179 O 0.38298 0.03208 0.34534 0.0
C180 C 0.43198 0.00477 0.35354 0.0
C181 C 0.40007 0.07338 0.37888 0.0
C182 C 0.40613 0.05859 0.30249 0.0
C183 C 0.34112 0.04446 0.38021 0.0
C184 C 0.37169 0.97843 0.35504 0.0
C185 C 0.34683 0.03083 0.30229 0.0
O186 O 0.42191 0.01185 0.37037 0.0
O187 O 0.38906 0.079 0.36204 0.0
O188 O 0.40818 0.03789 0.30369 0.0
O189 O 0.35635 0.03186 0.3867 0.0
O190 O 0.37655 0.98362 0.33546 0.0
O191 O 0.34625 0.04806 0.31407 0.0
O192 O 0.37579 0.99059 0.37137 0.0
O193 O 0.34288 0.05654 0.36323 0.0
O194 O 0.36225 0.01698 0.30323 0.0
O195 O 0.40134 0.05382 0.38573 0.0
O196 O 0.42299 0.00362 0.33485 0.0
O197 O 0.39215 0.06943 0.31358 0.0
Sc198 Sc 0.21798 0.15135 0.56732 0.0
Sc199 Sc 0.17391 0.12035 0.58842 0.0
Sc200 Sc 0.21461 0.14177 0.62377 0.0
O201 O 0.20213 0.13774 0.59319 0.0
C202 C 0.25733 0.13203 0.59527 0.0
C203 C 0.20132 0.10616 0.54661 0.0
C204 C 0.19728 0.0924 0.62625 0.0
C205 C 0.16841 0.16116 0.55565 0.0
C206 C 0.22591 0.18842 0.60327 0.0
C207 C 0.16342 0.14783 0.6319 0.0
O208 O 0.249 0.13737 0.57689 0.0
O209 O 0.18762 0.10114 0.56155 0.0
O210 O 0.20966 0.10804 0.63218 0.0
O211 O 0.18856 0.16644 0.5558 0.0
O212 O 0.22138 0.17635 0.61964 0.0
O213 O 0.15712 0.13798 0.61458 0.0
O214 O 0.22566 0.18129 0.58378 0.0
O215 O 0.16096 0.1444 0.56566 0.0
O216 O 0.18342 0.15014 0.63716 0.0
O217 O 0.21237 0.12373 0.54675 0.0
O218 O 0.24697 0.13335 0.61328 0.0
O219 O 0.18345 0.09425 0.61072 0.0
Sc220 Sc 0.1095 0.98458 0.81917 0.0
Sc221 Sc 0.13155 0.93429 0.83817 0.0
Sc222 Sc 0.11432 0.97512 0.87548 0.0
O223 O 0.11849 0.96459 0.84424 0.0
C224 C 0.13076 0.01872 0.85228 0.0
C225 C 0.1531 0.96335 0.80009 0.0
C226 C 0.16132 0.95201 0.87759 0.0
C227 C 0.09321 0.93747 0.80274 0.0
C228 C 0.07045 0.99266 0.85293 0.0
C229 C 0.10149 0.92484 0.88016 0.0
O230 O 0.12487 0.01314 0.83311 0.0
O231 O 0.15236 0.94592 0.81156 0.0
O232 O 0.14668 0.96511 0.88444 0.0
O233 O 0.09317 0.95831 0.80234 0.0
O234 O 0.08129 0.98649 0.86965 0.0
O235 O 0.11189 0.91833 0.86329 0.0
O236 O 0.07854 0.99287 0.83375 0.0
O237 O 0.10586 0.92637 0.81509 0.0
O238 O 0.10085 0.94473 0.88607 0.0
O239 O 0.13923 0.97871 0.80173 0.0
O240 O 0.12778 0.00671 0.86895 0.0
O241 O 0.15857 0.93953 0.86102 0.0
Sc242 Sc 0.27822 0.85246 0.06779 0.0
Sc243 Sc 0.32437 0.88026 0.08882 0.0
Sc244 Sc 0.28161 0.86313 0.12393 0.0
O245 O 0.29479 0.86534 0.09352 0.0
C246 C 0.23992 0.87471 0.09458 0.0
C247 C 0.29855 0.89593 0.04663 0.0
C248 C 0.30172 0.91113 0.12485 0.0
C249 C 0.32682 0.8388 0.05652 0.0
C250 C 0.26856 0.81659 0.10471 0.0
C251 C 0.33236 0.85383 0.13312 0.0
O252 O 0.24829 0.86914 0.07633 0.0
O253 O 0.31221 0.90027 0.06182 0.0
O254 O 0.28722 0.89722 0.13022 0.0
O255 O 0.30641 0.8348 0.05705 0.0
O256 O 0.27412 0.82854 0.12087 0.0
O257 O 0.3395 0.86146 0.11503 0.0
O258 O 0.26833 0.82363 0.08516 0.0
O259 O 0.33544 0.85527 0.06606 0.0
O260 O 0.31227 0.85429 0.13853 0.0
O261 O 0.28637 0.8791 0.04667 0.0
O262 O 0.24968 0.87224 0.11278 0.0
O263 O 0.31695 0.90705 0.11115 0.0
Sc264 Sc 0.9018 0.4771 0.67254 0.0
Sc265 Sc 0.86992 0.43144 0.65777 0.0
Sc266 Sc 0.89853 0.46174 0.61766 0.0
O267 O 0.89006 0.45672 0.64932 0.0
C268 C 0.89142 0.51029 0.63316 0.0
C269 C 0.85388 0.46973 0.69015 0.0
C270 C 0.84747 0.4486 0.61441 0.0
C271 C 0.90513 0.42994 0.69559 0.0
C272 C 0.94357 0.47311 0.6425 0.0
C273 C 0.90014 0.41039 0.6202 0.0
O274 O 0.89668 0.50611 0.65291 0.0
O275 O 0.85221 0.45035 0.6825 0.0
O276 O 0.86568 0.4548 0.60625 0.0
O277 O 0.90845 0.45051 0.69476 0.0
O278 O 0.93245 0.46982 0.62513 0.0
O279 O 0.88497 0.40884 0.63447 0.0
O280 O 0.93485 0.47428 0.66132 0.0
O281 O 0.89263 0.41993 0.68221 0.0
O282 O 0.90811 0.42846 0.61381 0.0
O283 O 0.87009 0.48207 0.68607 0.0
O284 O 0.88977 0.49558 0.61859 0.0
O285 O 0.84575 0.44118 0.63385 0.0
Sc286 Sc 0.77487 0.64288 0.87493 0.0
Sc287 Sc 0.81549 0.6219 0.91064 0.0
Sc288 Sc 0.76591 0.64397 0.93143 0.0
O289 O 0.78551 0.63622 0.9057 0.0
C290 C 0.75755 0.68519 0.90034 0.0
C291 C 0.82532 0.65533 0.87137 0.0
C292 C 0.81342 0.65805 0.94847 0.0
C293 C 0.79728 0.59571 0.86932 0.0
C294 C 0.73153 0.6248 0.89724 0.0
C295 C 0.78621 0.59865 0.94739 0.0
O296 O 0.76357 0.67541 0.88297 0.0
O297 O 0.8318 0.6426 0.88659 0.0
O298 O 0.7926 0.65901 0.94879 0.0
O299 O 0.78453 0.61107 0.8634 0.0
O300 O 0.7374 0.62923 0.91673 0.0
O301 O 0.80343 0.59937 0.93563 0.0
O302 O 0.74319 0.62918 0.88062 0.0
O303 O 0.80967 0.5969 0.88608 0.0
O304 O 0.77156 0.61332 0.94707 0.0
O305 O 0.80536 0.6573 0.86594 0.0
O306 O 0.75753 0.67589 0.91896 0.0
O307 O 0.82405 0.6456 0.93551 0.0
Sc308 Sc 0.60117 0.53291 0.1215 0.0
Sc309 Sc 0.626 0.57003 0.15846 0.0
Sc310 Sc 0.59941 0.52235 0.17764 0.0
O311 O 0.60892 0.5418 0.15256 0.0
C312 C 0.55772 0.51803 0.14706 0.0
C313 C 0.59255 0.5839 0.12024 0.0
C314 C 0.59028 0.57052 0.19634 0.0
C315 C 0.65005 0.55203 0.11609 0.0
C316 C 0.61523 0.48755 0.14181 0.0
C317 C 0.64644 0.53714 0.19398 0.0
O318 O 0.56839 0.52207 0.12961 0.0
O319 O 0.60737 0.5887 0.13419 0.0
O320 O 0.58825 0.54978 0.19663 0.0
O321 O 0.63291 0.54241 0.1091 0.0
O322 O 0.60988 0.493 0.1612 0.0
O323 O 0.64671 0.55537 0.18377 0.0
O324 O 0.61372 0.5004 0.12551 0.0
O325 O 0.6508 0.56178 0.13452 0.0
O326 O 0.63094 0.52345 0.19231 0.0
O327 O 0.5877 0.56437 0.11504 0.0
O328 O 0.56651 0.51864 0.16588 0.0
O329 O 0.60273 0.58055 0.18292 0.0
Sc330 Sc 0.72619 0.36535 0.3715 0.0
Sc331 Sc 0.68435 0.38111 0.40846 0.0
Sc332 Sc 0.73479 0.35993 0.42791 0.0
O333 O 0.71502 0.36879 0.40265 0.0
C334 C 0.74453 0.32165 0.39367 0.0
C335 C 0.67635 0.3502 0.36704 0.0
C336 C 0.68826 0.34326 0.44453 0.0
C337 C 0.70131 0.4111 0.36877 0.0
C338 C 0.76865 0.38305 0.39585 0.0
C339 C 0.71262 0.40384 0.44597 0.0
O340 O 0.7381 0.33234 0.37694 0.0
O341 O 0.66949 0.35914 0.38462 0.0
O342 O 0.709 0.3419 0.44365 0.0
O343 O 0.71616 0.39783 0.36287 0.0
O344 O 0.76289 0.37704 0.41494 0.0
O345 O 0.69598 0.40386 0.43335 0.0
O346 O 0.75732 0.37924 0.37889 0.0
O347 O 0.68784 0.40705 0.38421 0.0
O348 O 0.7272 0.38904 0.44577 0.0
O349 O 0.69597 0.35172 0.36033 0.0
O350 O 0.74451 0.32969 0.41286 0.0
O351 O 0.67719 0.357 0.43341 0.0
Sc352 Sc 0.32086 0.38895 0.01671 0.0
Sc353 Sc 0.33851 0.36635 0.06719 0.0
Sc354 Sc 0.37689 0.38203 0.02658 0.0
O355 O 0.34541 0.37911 0.03691 0.0
C356 C 0.35366 0.36675 0.98272 0.0
C357 C 0.30082 0.34542 0.03717 0.0
C358 C 0.37721 0.33534 0.05025 0.0
C359 C 0.3038 0.40521 0.06356 0.0
C360 C 0.35593 0.4268 0.00913 0.0
C361 C 0.38123 0.39524 0.07689 0.0
O362 O 0.33475 0.37363 0.98801 0.0
O363 O 0.31192 0.3458 0.05488 0.0
O364 O 0.38453 0.34929 0.03666 0.0
O365 O 0.30384 0.40543 0.04273 0.0
O366 O 0.37237 0.41522 0.01472 0.0
O367 O 0.36372 0.38583 0.08326 0.0
O368 O 0.33641 0.41959 0.00934 0.0
O369 O 0.3157 0.39227 0.07477 0.0
O370 O 0.38766 0.39514 0.05713 0.0
O371 O 0.30289 0.3595 0.02204 0.0
O372 O 0.37021 0.36873 0.99507 0.0
O373 O 0.36097 0.33901 0.06286 0.0
Sc374 Sc 0.87154 0.11038 0.9778 0.0
Sc375 Sc 0.83821 0.12721 0.9336 0.0
Sc376 Sc 0.8146 0.1072 0.98276 0.0
O377 O 0.8414 0.115 0.96467 0.0
C378 C 0.84633 0.06861 0.99715 0.0
C379 C 0.87897 0.09405 0.92917 0.0
C380 C 0.80218 0.08925 0.93516 0.0
C381 C 0.87775 0.15578 0.95181 0.0
C382 C 0.84545 0.13083 0.01777 0.0
C383 C 0.79808 0.15013 0.95826 0.0
O384 O 0.86372 0.07907 0.99248 0.0
O385 O 0.86451 0.10661 0.92079 0.0
O386 O 0.80011 0.08979 0.95589 0.0
O387 O 0.88367 0.14092 0.96514 0.0
O388 O 0.8268 0.12388 0.01148 0.0
O389 O 0.81132 0.14912 0.94218 0.0
O390 O 0.863 0.12756 0.00709 0.0
O391 O 0.86081 0.15397 0.93974 0.0
O392 O 0.79799 0.13653 0.97392 0.0
O393 O 0.88252 0.09296 0.94963 0.0
O394 O 0.8274 0.07651 0.99394 0.0
O395 O 0.81532 0.10164 0.92466 0.0
Sc396 Sc 0.14575 0.56742 0.22608 0.0
Sc397 Sc 0.1221 0.58835 0.17745 0.0
Sc398 Sc 0.14058 0.62403 0.21929 0.0
O399 O 0.13614 0.59325 0.2075 0.0
C400 C 0.12598 0.59862 0.2624 0.0
C401 C 0.10101 0.54972 0.20567 0.0
C402 C 0.09322 0.62738 0.19771 0.0
C403 C 0.16036 0.55241 0.17829 0.0
C404 C 0.18489 0.60128 0.2346 0.0
C405 C 0.15159 0.63048 0.16859 0.0
O406 O 0.1299 0.57953 0.25512 0.0
O407 O 0.10002 0.56293 0.18952 0.0
O408 O 0.10728 0.63268 0.21213 0.0
O409 O 0.16237 0.55246 0.19902 0.0
O410 O 0.17446 0.61815 0.22809 0.0
O411 O 0.14275 0.61284 0.1618 0.0
O412 O 0.17628 0.58233 0.23524 0.0
O413 O 0.14625 0.56405 0.16823 0.0
O414 O 0.15134 0.63649 0.18846 0.0
O415 O 0.11656 0.54955 0.2194 0.0
O416 O 0.13 0.61585 0.25156 0.0
O417 O 0.09651 0.61248 0.18341 0.0
Sc418 Sc 0.68049 0.89505 0.47923 0.0
Sc419 Sc 0.66289 0.86877 0.4312 0.0
Sc420 Sc 0.62559 0.89608 0.46498 0.0
O421 O 0.65638 0.88656 0.45849 0.0
C422 C 0.64101 0.8829 0.51182 0.0
C423 C 0.69591 0.84794 0.46665 0.0
C424 C 0.61911 0.847 0.44666 0.0
C425 C 0.70214 0.90205 0.43174 0.0
C426 C 0.65298 0.93823 0.48067 0.0
C427 C 0.62691 0.90335 0.41464 0.0
O428 O 0.66068 0.88886 0.50807 0.0
O429 O 0.68846 0.84917 0.44713 0.0
O430 O 0.61186 0.86541 0.4534 0.0
O431 O 0.70273 0.9024 0.45263 0.0
O432 O 0.63508 0.92791 0.47769 0.0
O433 O 0.63849 0.88625 0.41127 0.0
O434 O 0.67152 0.92896 0.47928 0.0
O435 O 0.68724 0.89215 0.42097 0.0
O436 O 0.62314 0.91084 0.43362 0.0
O437 O 0.69159 0.86209 0.48122 0.0
O438 O 0.62641 0.88227 0.49703 0.0
O439 O 0.63878 0.84441 0.44015 0.0
Sc440 Sc 0.35347 0.37298 0.71909 0.0
Sc441 Sc 0.37602 0.4108 0.68206 0.0
Sc442 Sc 0.35567 0.42804 0.73336 0.0
O443 O 0.36176 0.40404 0.71149 0.0
C444 C 0.31348 0.39928 0.74082 0.0
C445 C 0.3394 0.37499 0.66993 0.0
C446 C 0.34205 0.44946 0.68727 0.0
C447 C 0.39972 0.3669 0.69461 0.0
C448 C 0.37366 0.38899 0.76359 0.0
C449 C 0.40088 0.44416 0.71412 0.0
O450 O 0.32314 0.38165 0.73536 0.0
O451 O 0.35539 0.38727 0.66435 0.0
O452 O 0.34276 0.44925 0.70814 0.0
O453 O 0.38265 0.35962 0.70414 0.0
O454 O 0.36769 0.4088 0.76067 0.0
O455 O 0.39806 0.43565 0.69528 0.0
O456 O 0.371 0.37414 0.74927 0.0
O457 O 0.40107 0.38638 0.68727 0.0
O458 O 0.38787 0.44108 0.73001 0.0
O459 O 0.33522 0.37007 0.68967 0.0
O460 O 0.32264 0.41787 0.73936 0.0
O461 O 0.35227 0.43586 0.6752 0.0
Sc462 Sc 0.1191 0.60433 0.53731 0.0
Sc463 Sc 0.15798 0.62961 0.57236 0.0
Sc464 Sc 0.17491 0.59993 0.5255 0.0
O465 O 0.15069 0.61134 0.54512 0.0
C466 C 0.14198 0.55922 0.52471 0.0
C467 C 0.11839 0.59966 0.58919 0.0
C468 C 0.19424 0.59201 0.57334 0.0
C469 C 0.11616 0.6544 0.55244 0.0
C470 C 0.13946 0.6141 0.49032 0.0
C471 C 0.19349 0.64718 0.53832 0.0
O472 O 0.12535 0.56991 0.53134 0.0
O473 O 0.13553 0.61096 0.59292 0.0
O474 O 0.19246 0.58715 0.55317 0.0
O475 O 0.10949 0.63779 0.54181 0.0
O476 O 0.15934 0.61133 0.49593 0.0
O477 O 0.18201 0.64991 0.55553 0.0
O478 O 0.12358 0.61158 0.50346 0.0
O479 O 0.13312 0.65399 0.56466 0.0
O480 O 0.19242 0.63015 0.5265 0.0
O481 O 0.11074 0.59634 0.57019 0.0
O482 O 0.16051 0.56813 0.52168 0.0
O483 O 0.18351 0.60733 0.58255 0.0
Sc484 Sc 0.64342 0.93132 0.77189 0.0
Sc485 Sc 0.61615 0.9127 0.81941 0.0
Sc486 Sc 0.63132 0.87563 0.77762 0.0
O487 O 0.63023 0.90654 0.7897 0.0
C488 C 0.61884 0.90386 0.73539 0.0
C489 C 0.60108 0.95442 0.79251 0.0
C490 C 0.58398 0.87613 0.79957 0.0
C491 C 0.65884 0.94357 0.81971 0.0
C492 C 0.6777 0.89317 0.76176 0.0
C493 C 0.64209 0.86811 0.8283 0.0
O494 O 0.62556 0.92217 0.7428 0.0
O495 O 0.59659 0.93978 0.80672 0.0
O496 O 0.59763 0.86972 0.78526 0.0
O497 O 0.6623 0.94233 0.79923 0.0
O498 O 0.66541 0.87763 0.7682 0.0
O499 O 0.63451 0.88638 0.83506 0.0
O500 O 0.67144 0.91297 0.76153 0.0
O501 O 0.64221 0.93497 0.829 0.0
O502 O 0.64144 0.86218 0.80835 0.0
O503 O 0.61768 0.95349 0.78006 0.0
O504 O 0.62082 0.88596 0.74582 0.0
O505 O 0.58845 0.891 0.81354 0.0
Sc506 Sc 0.85387 0.07095 0.27183 0.0
Sc507 Sc 0.8793 0.08805 0.32011 0.0
Sc508 Sc 0.85152 0.12543 0.28717 0.0
O509 O 0.86155 0.09478 0.29299 0.0
C510 C 0.86508 0.11132 0.24007 0.0
C511 C 0.90047 0.05557 0.2846 0.0
C512 C 0.90085 0.13162 0.30482 0.0
C513 C 0.84651 0.04888 0.3191 0.0
C514 C 0.81004 0.09737 0.27079 0.0
C515 C 0.84523 0.1241 0.33722 0.0
O516 O 0.85933 0.09151 0.2434 0.0
O517 O 0.89821 0.06184 0.30441 0.0
O518 O 0.88214 0.13914 0.29922 0.0
O519 O 0.84733 0.04804 0.2982 0.0
O520 O 0.81996 0.11548 0.274 0.0
O521 O 0.86282 0.11313 0.33996 0.0
O522 O 0.81971 0.079 0.27207 0.0
O523 O 0.85534 0.06423 0.3302 0.0
O524 O 0.83655 0.12691 0.3186 0.0
O525 O 0.88731 0.0612 0.26956 0.0
O526 O 0.86555 0.1256 0.25518 0.0
O527 O 0.90372 0.11173 0.31054 0.0
H528 H 0.94696 0.34187 0.36948 0.0
H529 H 0.91033 0.3568 0.3644 0.0
H530 H 0.93737 0.42168 0.35675 0.0
H531 H 0.97418 0.40698 0.36194 0.0
H532 H 0.90737 0.41879 0.39009 0.0
H533 H 0.87333 0.38189 0.31491 0.0
H534 H 0.88628 0.36143 0.33156 0.0
H535 H 0.90246 0.38334 0.32011 0.0
C536 C 0.94523 0.35922 0.36615 0.0
C537 C 0.96347 0.37326 0.36648 0.0
C538 C 0.92427 0.36771 0.36305 0.0
C539 C 0.92123 0.39031 0.36005 0.0
C540 C 0.93947 0.40418 0.35894 0.0
H541 H 0.78073 0.40949 0.36209 0.0
H542 H 0.81792 0.42063 0.35248 0.0
C543 C 0.96046 0.39571 0.36197 0.0
C544 C 0.89897 0.39948 0.36167 0.0
H545 H 0.84705 0.38956 0.34417 0.0
C546 C 0.89418 0.41299 0.37967 0.0
C547 C 0.88191 0.39231 0.34782 0.0
C548 C 0.88631 0.37913 0.32738 0.0
C549 C 0.87247 0.41756 0.3855 0.0
C550 C 0.85533 0.40809 0.37318 0.0
C551 C 0.86022 0.39657 0.35385 0.0
C552 C 0.83271 0.40678 0.38157 0.0
C553 C 0.86811 0.43156 0.40539 0.0
C554 C 0.82865 0.39606 0.40156 0.0
C555 C 0.8074 0.38973 0.40715 0.0
C556 C 0.79005 0.39369 0.39261 0.0
C557 C 0.79392 0.40591 0.37344 0.0
C558 C 0.8151 0.41241 0.36797 0.0
H559 H 0.88121 0.44403 0.40754 0.0
H560 H 0.85204 0.44002 0.40423 0.0
H561 H 0.86808 0.42103 0.42023 0.0
H562 H 0.84207 0.39111 0.41207 0.0
H563 H 0.80487 0.38032 0.422 0.0
H564 H 0.89185 0.54673 0.65925 0.0
H565 H 0.89185 0.58492 0.64742 0.0
H566 H 0.8854 0.56449 0.58007 0.0
H567 H 0.88547 0.52617 0.59163 0.0
H568 H 0.92056 0.59399 0.58832 0.0
H569 H 0.84209 0.62368 0.62294 0.0
H570 H 0.8583 0.60875 0.64244 0.0
H571 H 0.84776 0.59494 0.61861 0.0
C572 C 0.8901 0.55031 0.64195 0.0
C573 C 0.88876 0.53338 0.6264 0.0
C574 C 0.89 0.57214 0.63524 0.0
C575 C 0.88846 0.5774 0.61292 0.0
C576 C 0.88651 0.56065 0.59738 0.0
H577 H 0.88055 0.7174 0.59115 0.0
H578 H 0.87597 0.67878 0.58187 0.0
C579 C 0.88652 0.53879 0.60406 0.0
C580 C 0.89059 0.60039 0.6059 0.0
H581 H 0.86938 0.65104 0.61527 0.0
C582 C 0.90917 0.6065 0.59378 0.0
C583 C 0.8755 0.6165 0.61274 0.0
C584 C 0.85467 0.61064 0.62471 0.0
C585 C 0.91385 0.62861 0.58966 0.0
C586 C 0.89968 0.64483 0.59812 0.0
C587 C 0.88032 0.63857 0.60889 0.0
C588 C 0.90554 0.66829 0.59835 0.0
C589 C 0.93416 0.63441 0.57682 0.0
C590 C 0.92424 0.67525 0.60983 0.0
C591 C 0.92698 0.69735 0.61508 0.0
C592 C 0.91082 0.71264 0.60924 0.0
C593 C 0.8931 0.70588 0.59614 0.0
C594 C 0.89049 0.68386 0.59075 0.0
H595 H 0.93864 0.62107 0.56527 0.0
H596 H 0.93191 0.64983 0.56743 0.0
H597 H 0.94805 0.63665 0.58834 0.0
H598 H 0.93585 0.66344 0.61623 0.0
H599 H 0.94077 0.70209 0.62521 0.0
H600 H 0.70531 0.60343 0.92674 0.0
H601 H 0.66732 0.59183 0.92118 0.0
H602 H 0.67047 0.61401 0.85404 0.0
H603 H 0.7084 0.62465 0.85917 0.0
H604 H 0.63735 0.62002 0.91412 0.0
H605 H 0.63294 0.56183 0.84555 0.0
H606 H 0.65842 0.56766 0.85947 0.0
H607 H 0.64919 0.58477 0.83715 0.0
C608 C 0.69801 0.60531 0.91067 0.0
C609 C 0.70969 0.61522 0.89348 0.0
C610 C 0.6764 0.59854 0.90746 0.0
C611 C 0.66611 0.60179 0.88711 0.0
C612 C 0.67818 0.61065 0.86967 0.0
H613 H 0.54468 0.66021 0.8662 0.0
H614 H 0.58276 0.64801 0.86694 0.0
C615 C 0.69984 0.61706 0.87274 0.0
C616 C 0.64203 0.60023 0.88517 0.0
H617 H 0.60139 0.5871 0.84902 0.0
C618 C 0.62947 0.61226 0.9002 0.0
C619 C 0.6316 0.58994 0.86717 0.0
C620 C 0.6438 0.57513 0.85161 0.0
C621 C 0.60714 0.61576 0.89677 0.0
C622 C 0.5973 0.60754 0.8775 0.0
C623 C 0.60928 0.59397 0.86339 0.0
C624 C 0.57478 0.61379 0.8717 0.0
C625 C 0.59444 0.6289 0.91346 0.0
C626 C 0.55792 0.59828 0.87257 0.0
C627 C 0.53613 0.60515 0.87196 0.0
C628 C 0.53105 0.62764 0.87066 0.0
C629 C 0.54807 0.64284 0.86761 0.0
C630 C 0.5698 0.63591 0.86803 0.0
H631 H 0.60253 0.62861 0.92978 0.0
H632 H 0.59352 0.64622 0.90799 0.0
H633 H 0.57747 0.62257 0.91526 0.0
H634 H 0.56157 0.58111 0.87524 0.0
H635 H 0.52338 0.59299 0.87414 0.0
H636 H 0.64629 0.27945 0.1374 0.0
H637 H 0.65145 0.31887 0.13357 0.0
H638 H 0.58192 0.32724 0.12401 0.0
H639 H 0.57642 0.28778 0.12835 0.0
H640 H 0.64137 0.35041 0.10197 0.0
H641 H 0.59507 0.3627 0.17936 0.0
H642 H 0.60393 0.33604 0.17023 0.0
H643 H 0.57987 0.34846 0.15858 0.0
C644 C 0.63208 0.2896 0.13424 0.0
C645 C 0.61086 0.28056 0.13364 0.0
C646 C 0.63511 0.31211 0.13196 0.0
C647 C 0.61702 0.32588 0.12895 0.0
C648 C 0.59601 0.3168 0.1268 0.0
H649 H 0.61103 0.46412 0.10404 0.0
H650 H 0.61561 0.42463 0.09977 0.0
C651 C 0.59291 0.2943 0.12928 0.0
C652 C 0.61995 0.34981 0.13002 0.0
H653 H 0.6051 0.39456 0.15976 0.0
C654 C 0.63353 0.36014 0.1146 0.0
C655 C 0.61012 0.36224 0.1469 0.0
C656 C 0.59661 0.3518 0.16485 0.0
C657 C 0.63713 0.38284 0.11533 0.0
C658 C 0.62649 0.39537 0.13165 0.0
C659 C 0.61324 0.3849 0.14725 0.0
C660 C 0.62795 0.41948 0.13266 0.0
C661 C 0.65243 0.39309 0.09884 0.0
C662 C 0.63358 0.42969 0.15249 0.0
C663 C 0.63046 0.45213 0.15514 0.0
C664 C 0.62189 0.46474 0.13791 0.0
C665 C 0.61776 0.45478 0.11756 0.0
C666 C 0.62054 0.43224 0.11503 0.0
H667 H 0.66443 0.38096 0.09249 0.0
H668 H 0.64275 0.39922 0.08472 0.0
H669 H 0.66154 0.4071 0.10607 0.0
H670 H 0.63933 0.42008 0.16628 0.0
H671 H 0.63401 0.45948 0.17092 0.0
H672 H 0.45412 0.17613 0.60622 0.0
H673 H 0.41475 0.16908 0.60777 0.0
H674 H 0.42717 0.10129 0.62344 0.0
H675 H 0.46653 0.10803 0.6218 0.0
H676 H 0.39987 0.10746 0.58711 0.0
H677 H 0.37229 0.15645 0.65852 0.0
H678 H 0.38901 0.17156 0.63958 0.0
H679 H 0.4006 0.14886 0.65437 0.0
C680 C 0.44851 0.15982 0.61045 0.0
C681 C 0.46347 0.1426 0.61367 0.0
C682 C 0.42602 0.15585 0.6114 0.0
C683 C 0.41817 0.13469 0.61579 0.0
C684 C 0.433 0.11772 0.62002 0.0
H685 H 0.27854 0.11207 0.62912 0.0
H686 H 0.31803 0.10824 0.63386 0.0
C687 C 0.45547 0.12164 0.61907 0.0
C688 C 0.3946 0.12987 0.61391 0.0
H689 H 0.34454 0.14487 0.63338 0.0
C690 C 0.38774 0.11539 0.5974 0.0
C691 C 0.37895 0.14009 0.62751 0.0
C692 C 0.38555 0.15495 0.64614 0.0
C693 C 0.36544 0.11151 0.59356 0.0
C694 C 0.34977 0.12264 0.6064 0.0
C695 C 0.35667 0.13645 0.62347 0.0
C696 C 0.3261 0.12121 0.60187 0.0
C697 C 0.35885 0.09571 0.57572 0.0
C698 C 0.31764 0.12914 0.58201 0.0
C699 C 0.29504 0.13132 0.57919 0.0
C700 C 0.28067 0.12586 0.59633 0.0
C701 C 0.28921 0.11667 0.61569 0.0
C702 C 0.31174 0.11442 0.61844 0.0
H703 H 0.37225 0.084 0.57189 0.0
H704 H 0.344 0.0863 0.58044 0.0
H705 H 0.35508 0.10504 0.56057 0.0
H706 H 0.32852 0.1348 0.56917 0.0
H707 H 0.28897 0.1385 0.56413 0.0
H708 H 0.14813 0.22734 0.8882 0.0
H709 H 0.16141 0.18987 0.89309 0.0
H710 H 0.09809 0.16489 0.87398 0.0
H711 H 0.08452 0.20213 0.86938 0.0
H712 H 0.11806 0.14152 0.9084 0.0
H713 H 0.17404 0.15414 0.83724 0.0
H714 H 0.17699 0.17224 0.8603 0.0
H715 H 0.1526 0.17336 0.84389 0.0
C716 C 0.13691 0.21388 0.88537 0.0
C717 C 0.11537 0.21769 0.87798 0.0
C718 C 0.14457 0.19252 0.88813 0.0
C719 C 0.13085 0.17474 0.88343 0.0
C720 C 0.10894 0.17849 0.87758 0.0
H721 H 0.12653 0.05447 0.82577 0.0
H722 H 0.13362 0.09249 0.8359 0.0
C723 C 0.10122 0.19979 0.87492 0.0
C724 C 0.13944 0.15221 0.88252 0.0
H725 H 0.16913 0.11821 0.84958 0.0
C726 C 0.12963 0.13637 0.89593 0.0
C727 C 0.15448 0.14575 0.8661 0.0
C728 C 0.16511 0.16217 0.85093 0.0
C729 C 0.13318 0.114 0.89231 0.0
C730 C 0.14734 0.10749 0.87512 0.0
C731 C 0.15839 0.12339 0.86277 0.0
C732 C 0.14785 0.0846 0.86746 0.0
C733 C 0.12036 0.0976 0.90572 0.0
C734 C 0.1546 0.06765 0.88137 0.0
C735 C 0.15031 0.04592 0.87574 0.0
C736 C 0.13948 0.04092 0.85599 0.0
C737 C 0.13476 0.05784 0.84114 0.0
C738 C 0.13884 0.07955 0.8469 0.0
H739 H 0.10766 0.10555 0.91606 0.0
H740 H 0.11219 0.08547 0.89489 0.0
H741 H 0.13171 0.08859 0.9167 0.0
H742 H 0.16204 0.07127 0.89708 0.0
H743 H 0.15453 0.03313 0.88732 0.0
H744 H 0.04938 0.83417 0.11061 0.0
H745 H 0.08781 0.84495 0.11225 0.0
H746 H 0.06896 0.91271 0.119 0.0
H747 H 0.03036 0.9022 0.11723 0.0
H748 H 0.09886 0.90462 0.08485 0.0
H749 H 0.12632 0.86718 0.16281 0.0
H750 H 0.11142 0.84831 0.14586 0.0
H751 H 0.09778 0.87211 0.15666 0.0
C752 C 0.05333 0.85133 0.11281 0.0
C753 C 0.03678 0.86732 0.11366 0.0
C754 C 0.07531 0.85744 0.11387 0.0
C755 C 0.0811 0.87958 0.11592 0.0
C756 C 0.0647 0.89553 0.11751 0.0
H757 H 0.22148 0.89988 0.12635 0.0
H758 H 0.1826 0.90782 0.1312 0.0
C759 C 0.04269 0.88945 0.11653 0.0
C760 C 0.10431 0.88602 0.1144 0.0
H761 H 0.15437 0.87458 0.13605 0.0
C762 C 0.11103 0.89847 0.09626 0.0
C763 C 0.12 0.87826 0.12951 0.0
C764 C 0.11351 0.86591 0.14993 0.0
C765 C 0.13331 0.90212 0.09204 0.0
C766 C 0.14907 0.89277 0.10618 0.0
C767 C 0.14224 0.88159 0.1251 0.0
C768 C 0.17265 0.89246 0.10083 0.0
C769 C 0.13975 0.91546 0.07225 0.0
C770 C 0.17995 0.88186 0.08176 0.0
C771 C 0.20219 0.87738 0.07887 0.0
C772 C 0.21732 0.88311 0.09523 0.0
C773 C 0.21011 0.89499 0.11361 0.0
C774 C 0.18795 0.89964 0.11637 0.0
H775 H 0.12672 0.92738 0.06782 0.0
H776 H 0.15528 0.92452 0.07511 0.0
H777 H 0.14211 0.90433 0.05806 0.0
H778 H 0.16834 0.87578 0.06978 0.0
H779 H 0.2073 0.86815 0.06459 0.0
H780 H 0.34774 0.77131 0.39098 0.0
H781 H 0.33425 0.80845 0.39754 0.0
H782 H 0.39721 0.83465 0.37887 0.0
H783 H 0.41099 0.79777 0.37262 0.0
H784 H 0.37718 0.85661 0.41429 0.0
H785 H 0.32105 0.8458 0.34287 0.0
H786 H 0.31849 0.82719 0.36559 0.0
H787 H 0.34259 0.82646 0.34875 0.0
C788 C 0.35884 0.78497 0.3886 0.0
C789 C 0.38033 0.78164 0.38083 0.0
C790 C 0.35106 0.80613 0.39235 0.0
C791 C 0.36462 0.82417 0.38826 0.0
C792 C 0.3865 0.82084 0.38204 0.0
H793 H 0.37464 0.94158 0.32997 0.0
H794 H 0.36505 0.90439 0.34117 0.0
C795 C 0.39433 0.79974 0.37841 0.0
C796 C 0.3559 0.84664 0.38806 0.0
H797 H 0.32771 0.88153 0.35475 0.0
C798 C 0.36587 0.86214 0.40173 0.0
C799 C 0.34114 0.85355 0.37157 0.0
C800 C 0.3302 0.83748 0.35624 0.0
C801 C 0.36315 0.88459 0.39802 0.0
C802 C 0.34963 0.89153 0.38048 0.0
C803 C 0.33802 0.87602 0.36815 0.0
C804 C 0.35076 0.91416 0.37217 0.0
C805 C 0.37639 0.90056 0.41155 0.0
C806 C 0.34491 0.93191 0.38545 0.0
C807 C 0.3507 0.95312 0.37925 0.0
C808 C 0.36209 0.9568 0.35953 0.0
C809 C 0.36602 0.93918 0.34531 0.0
C810 C 0.36048 0.91797 0.35166 0.0
H811 H 0.38828 0.89217 0.42249 0.0
H812 H 0.38557 0.91199 0.40076 0.0
H813 H 0.36519 0.91041 0.42194 0.0
H814 H 0.33696 0.92927 0.4011 0.0
H815 H 0.34706 0.96653 0.3903 0.0
H816 H 0.3272 0.37054 0.94675 0.0
H817 H 0.33738 0.36282 0.90888 0.0
H818 H 0.39875 0.3353 0.93067 0.0
H819 H 0.38884 0.34315 0.96859 0.0
H820 H 0.40425 0.36928 0.90266 0.0
H821 H 0.34448 0.31091 0.8679 0.0
H822 H 0.33086 0.33251 0.88244 0.0
H823 H 0.34856 0.31396 0.89709 0.0
C824 C 0.34255 0.36223 0.94355 0.0
C825 C 0.35738 0.35783 0.96058 0.0
C826 C 0.3483 0.35768 0.9219 0.0
C827 C 0.36879 0.3484 0.91704 0.0
C828 C 0.38287 0.34243 0.93414 0.0
H829 H 0.38889 0.34863 0.77573 0.0
H830 H 0.39479 0.33547 0.81301 0.0
C831 C 0.37719 0.34704 0.95576 0.0
C832 C 0.37682 0.34857 0.89426 0.0
H833 H 0.36068 0.33692 0.84219 0.0
C834 C 0.39511 0.36169 0.88943 0.0
C835 C 0.36512 0.3384 0.8771 0.0
C836 C 0.34631 0.32296 0.88143 0.0
C837 C 0.40077 0.36654 0.86774 0.0
C838 C 0.38761 0.35824 0.85063 0.0
C839 C 0.3706 0.34349 0.85541 0.0
C840 C 0.38902 0.36696 0.82816 0.0
C841 C 0.42013 0.38127 0.86338 0.0
C842 C 0.3845 0.38919 0.82439 0.0
C843 C 0.38103 0.3968 0.80314 0.0
C844 C 0.38179 0.38221 0.78535 0.0
C845 C 0.38792 0.36027 0.78909 0.0
C846 C 0.39137 0.35269 0.81036 0.0
H847 H 0.4326 0.37978 0.87657 0.0
H848 H 0.42795 0.37741 0.8474 0.0
H849 H 0.41452 0.39857 0.86301 0.0
H850 H 0.38221 0.40038 0.83798 0.0
H851 H 0.37642 0.41379 0.80084 0.0
H852 H 0.87847 0.15701 0.0328 0.0
H853 H 0.88626 0.16576 0.07113 0.0
H854 H 0.82541 0.13536 0.09042 0.0
H855 H 0.8172 0.12708 0.0522 0.0
H856 H 0.83725 0.17087 0.11698 0.0
H857 H 0.90582 0.1116 0.10537 0.0
H858 H 0.90632 0.13581 0.08864 0.0
H859 H 0.88506 0.11579 0.08479 0.0
C860 C 0.86648 0.15271 0.04517 0.0
C861 C 0.84748 0.14086 0.03962 0.0
C862 C 0.87097 0.15772 0.06702 0.0
C863 C 0.85671 0.15062 0.08354 0.0
C864 C 0.83669 0.14083 0.07784 0.0
H865 H 0.86143 0.08735 0.20244 0.0
H866 H 0.86357 0.10089 0.16492 0.0
C867 C 0.83204 0.13607 0.05599 0.0
C868 C 0.86378 0.15012 0.10664 0.0
H869 H 0.89745 0.12186 0.14119 0.0
C870 C 0.85071 0.16058 0.12236 0.0
C871 C 0.88127 0.13645 0.11343 0.0
C872 C 0.89538 0.12412 0.09726 0.0
C873 C 0.85382 0.1567 0.14479 0.0
C874 C 0.87069 0.14229 0.15148 0.0
C875 C 0.88463 0.13296 0.13584 0.0
C876 C 0.87199 0.13409 0.17415 0.0
C877 C 0.83811 0.16677 0.16102 0.0
C878 C 0.87677 0.14817 0.19162 0.0
C879 C 0.87549 0.14051 0.21313 0.0
C880 C 0.86949 0.11862 0.21742 0.0
C881 C 0.86597 0.1043 0.19975 0.0
C882 C 0.8672 0.112 0.1783 0.0
H883 H 0.82416 0.17513 0.15283 0.0
H884 H 0.83149 0.15402 0.1722 0.0
H885 H 0.84693 0.17903 0.17115 0.0
H886 H 0.88089 0.16518 0.18863 0.0
H887 H 0.87854 0.15193 0.22637 0.0
H888 H 0.10951 0.56702 0.2898 0.0
H889 H 0.10215 0.57084 0.32904 0.0
H890 H 0.11875 0.63953 0.32541 0.0
H891 H 0.12518 0.63612 0.28642 0.0
H892 H 0.13324 0.58003 0.35624 0.0
H893 H 0.06939 0.64275 0.36746 0.0
H894 H 0.07418 0.62978 0.34131 0.0
H895 H 0.09021 0.6532 0.34962 0.0
C896 C 0.11101 0.58304 0.2973 0.0
C897 C 0.11819 0.60119 0.28509 0.0
C898 C 0.10672 0.58522 0.31966 0.0
C899 C 0.10969 0.60552 0.3301 0.0
C900 C 0.11571 0.62386 0.31766 0.0
H901 H 0.16784 0.62224 0.45641 0.0
H902 H 0.15898 0.62199 0.41731 0.0
C903 C 0.11966 0.62178 0.29533 0.0
C904 C 0.11037 0.6069 0.35422 0.0
H905 H 0.09603 0.63951 0.39726 0.0
C906 C 0.12473 0.59275 0.36527 0.0
C907 C 0.09916 0.62339 0.36602 0.0
C908 C 0.0822 0.63795 0.35545 0.0
C909 C 0.12899 0.59528 0.38761 0.0
C910 C 0.11924 0.61295 0.39898 0.0
C911 C 0.104 0.62641 0.38826 0.0
C912 C 0.12418 0.61707 0.42223 0.0
C913 C 0.14389 0.57896 0.39877 0.0
C914 C 0.10732 0.61602 0.43772 0.0
C915 C 0.11224 0.61655 0.45997 0.0
C916 C 0.13417 0.61796 0.46707 0.0
C917 C 0.15086 0.62075 0.45146 0.0
C918 C 0.14585 0.62049 0.42916 0.0
H919 H 0.14471 0.56327 0.38956 0.0
H920 H 0.16072 0.5858 0.3996 0.0
H921 H 0.13828 0.57542 0.41572 0.0
H922 H 0.09047 0.61363 0.43263 0.0
H923 H 0.09892 0.61463 0.47154 0.0
H924 H 0.66649 0.8836 0.54873 0.0
H925 H 0.65393 0.88221 0.58665 0.0
H926 H 0.58759 0.87161 0.5647 0.0
H927 H 0.59986 0.87303 0.52666 0.0
H928 H 0.59284 0.90745 0.5934 0.0
H929 H 0.63161 0.83223 0.62617 0.0
H930 H 0.6505 0.84931 0.61142 0.0
H931 H 0.62784 0.83693 0.59717 0.0
C932 C 0.6493 0.88053 0.55191 0.0
C933 C 0.63417 0.87862 0.53464 0.0
C934 C 0.64217 0.87963 0.5736 0.0
C935 C 0.61988 0.87668 0.57836 0.0
C936 C 0.60487 0.87383 0.56125 0.0
H937 H 0.59354 0.87154 0.71792 0.0
H938 H 0.5865 0.86506 0.6791 0.0
C939 C 0.61197 0.87464 0.53955 0.0
C940 C 0.61214 0.87887 0.6011 0.0
H941 H 0.62155 0.85973 0.65259 0.0
C942 C 0.59869 0.89677 0.60636 0.0
C943 C 0.61954 0.86472 0.61781 0.0
C944 C 0.633 0.84458 0.61286 0.0
C945 C 0.59372 0.90178 0.62821 0.0
C946 C 0.60266 0.88866 0.64503 0.0
C947 C 0.61482 0.86988 0.63963 0.0
C948 C 0.60181 0.89515 0.66829 0.0
C949 C 0.57948 0.92137 0.63309 0.0
C950 C 0.61196 0.91467 0.67505 0.0
C951 C 0.61597 0.91848 0.69725 0.0
C952 C 0.61019 0.90261 0.71288 0.0
C953 C 0.59847 0.88392 0.70618 0.0
C954 C 0.59435 0.88021 0.68404 0.0
H955 H 0.56814 0.92487 0.61927 0.0
H956 H 0.56971 0.91884 0.64824 0.0
H957 H 0.59004 0.93599 0.63544 0.0
H958 H 0.61822 0.92622 0.66311 0.0
H959 H 0.62504 0.933 0.70193 0.0
H960 H 0.10392 0.53569 0.51987 0.0
H961 H 0.09984 0.49969 0.50268 0.0
H962 H 0.17 0.49456 0.49621 0.0
H963 H 0.17434 0.53027 0.5136 0.0
H964 H 0.11463 0.49213 0.45976 0.0
H965 H 0.15225 0.43329 0.51824 0.0
H966 H 0.14342 0.46036 0.52632 0.0
H967 H 0.16865 0.45686 0.5116 0.0
C968 C 0.11852 0.52669 0.51531 0.0
C969 C 0.13944 0.53599 0.51798 0.0
C970 C 0.11615 0.50615 0.50542 0.0
C971 C 0.13463 0.49445 0.49824 0.0
C972 C 0.15555 0.50315 0.5019 0.0
H973 H 0.11552 0.39649 0.39475 0.0
H974 H 0.13534 0.42402 0.41654 0.0
C975 C 0.15796 0.52367 0.51174 0.0
C976 C 0.13185 0.47437 0.48488 0.0
H977 H 0.14184 0.4193 0.48353 0.0
C978 C 0.12066 0.47621 0.46489 0.0
C979 C 0.13987 0.4537 0.49161 0.0
C980 C 0.15158 0.45078 0.51319 0.0
C981 C 0.11675 0.45786 0.45165 0.0
C982 C 0.12464 0.43711 0.4584 0.0
C983 C 0.1362 0.4353 0.47822 0.0
C984 C 0.118 0.4169 0.44668 0.0
C985 C 0.1033 0.4607 0.43106 0.0
C986 C 0.10302 0.40277 0.45684 0.0
C987 C 0.09188 0.38709 0.44453 0.0
C988 C 0.09565 0.38518 0.42189 0.0
C989 C 0.11244 0.39758 0.41221 0.0
C990 C 0.12358 0.41342 0.42458 0.0
H991 H 0.09547 0.47711 0.43016 0.0
H992 H 0.11405 0.45879 0.41652 0.0
H993 H 0.09026 0.44803 0.43012 0.0
H994 H 0.09855 0.40509 0.47387 0.0
H995 H 0.07903 0.37765 0.45236 0.0
H996 H 0.84997 0.80917 0.68952 0.0
H997 H 0.82057 0.82753 0.70939 0.0
H998 H 0.82361 0.88179 0.66419 0.0
H999 H 0.85351 0.86343 0.64415 0.0
H1000 H 0.81704 0.87385 0.72794 0.0
H1001 H 0.7598 0.85153 0.6602 0.0
H1002 H 0.78566 0.83766 0.66391 0.0
H1003 H 0.78516 0.86514 0.65354 0.0
C1004 C 0.84465 0.82519 0.684 0.0
C1005 C 0.85381 0.83482 0.66518 0.0
C1006 C 0.82794 0.83567 0.69542 0.0
C1007 C 0.81989 0.85586 0.68813 0.0
C1008 C 0.82967 0.86614 0.66999 0.0
H1009 H 0.71051 0.92225 0.75255 0.0
H1010 H 0.7458 0.91469 0.7353 0.0
C1011 C 0.84673 0.85573 0.65864 0.0
C1012 C 0.79991 0.86473 0.69848 0.0
H1013 H 0.74435 0.86604 0.69226 0.0
C1014 C 0.80115 0.87255 0.72007 0.0
C1015 C 0.77927 0.86257 0.68821 0.0
C1016 C 0.77717 0.8537 0.66521 0.0
C1017 C 0.78211 0.87792 0.73183 0.0
C1018 C 0.76145 0.87531 0.72168 0.0
C1019 C 0.76027 0.86793 0.69995 0.0
C1020 C 0.74075 0.87968 0.73345 0.0
C1021 C 0.78411 0.88555 0.75526 0.0
C1022 C 0.72626 0.86243 0.73814 0.0
C1023 C 0.70603 0.86664 0.74804 0.0
C1024 C 0.69986 0.88823 0.75316 0.0
C1025 C 0.71468 0.90541 0.74878 0.0
C1026 C 0.73492 0.90116 0.73901 0.0
H1027 H 0.80092 0.8832 0.76183 0.0
H1028 H 0.78006 0.90326 0.75616 0.0
H1029 H 0.77233 0.87662 0.76589 0.0
H1030 H 0.73053 0.84573 0.73387 0.0
H1031 H 0.69502 0.85305 0.75111 0.0
H1032 H 0.39822 0.62515 0.94519 0.0
H1033 H 0.3812 0.59476 0.96519 0.0
H1034 H 0.37702 0.55773 0.90508 0.0
H1035 H 0.39281 0.58865 0.88493 0.0
H1036 H 0.34448 0.54653 0.93199 0.0
H1037 H 0.42305 0.54591 0.97781 0.0
H1038 H 0.40766 0.57062 0.98162 0.0
H1039 H 0.41827 0.5639 0.95491 0.0
C1040 C 0.39263 0.61092 0.93616 0.0
C1041 C 0.39663 0.60917 0.91359 0.0
C1042 C 0.38327 0.59343 0.94762 0.0
C1043 C 0.37866 0.57366 0.93677 0.0
C1044 C 0.38064 0.57275 0.91384 0.0
H1045 H 0.39266 0.44349 0.98964 0.0
H1046 H 0.39693 0.47957 0.97268 0.0
C1047 C 0.38949 0.59047 0.90229 0.0
C1048 C 0.37442 0.55326 0.94938 0.0
H1049 H 0.39692 0.51942 0.9879 0.0
C1050 C 0.35587 0.54063 0.94429 0.0
C1051 C 0.38962 0.54528 0.96505 0.0
C1052 C 0.41087 0.55699 0.97004 0.0
C1053 C 0.35216 0.52023 0.95433 0.0
C1054 C 0.36702 0.5126 0.97048 0.0
C1055 C 0.38543 0.52534 0.97569 0.0
C1056 C 0.36447 0.491 0.98145 0.0
C1057 C 0.33284 0.5067 0.94682 0.0
C1058 C 0.34506 0.48559 0.99254 0.0
C1059 C 0.34248 0.46486 0.00193 0.0
C1060 C 0.35948 0.44933 0.00092 0.0
C1061 C 0.3793 0.45513 0.99075 0.0
C1062 C 0.38172 0.47573 0.981 0.0
H1063 H 0.32713 0.51177 0.93028 0.0
H1064 H 0.33698 0.48899 0.94632 0.0
H1065 H 0.31902 0.50905 0.9584 0.0
H1066 H 0.33182 0.49732 0.99381 0.0
H1067 H 0.32711 0.46095 0.00992 0.0
H1068 H 0.6196 0.12516 0.17586 0.0
H1069 H 0.64383 0.10272 0.19913 0.0
H1070 H 0.70029 0.13124 0.16748 0.0
H1071 H 0.67636 0.15333 0.14441 0.0
H1072 H 0.7058 0.08672 0.17837 0.0
H1073 H 0.67538 0.13705 0.24834 0.0
H1074 H 0.65578 0.12115 0.23308 0.0
H1075 H 0.66915 0.14404 0.22031 0.0
C1076 C 0.63716 0.12592 0.17339 0.0
C1077 C 0.64622 0.14097 0.1585 0.0
C1078 C 0.65096 0.11332 0.1868 0.0
C1079 C 0.67384 0.11566 0.18528 0.0
C1080 C 0.6827 0.12921 0.16898 0.0
H1081 H 0.78533 0.13302 0.25933 0.0
H1082 H 0.74944 0.133 0.24174 0.0
C1083 C 0.66903 0.14182 0.1558 0.0
C1084 C 0.68891 0.1066 0.20204 0.0
H1085 H 0.70791 0.11762 0.25353 0.0
C1086 C 0.706 0.09292 0.19503 0.0
C1087 C 0.68918 0.11501 0.22366 0.0
C1088 C 0.67151 0.13022 0.23191 0.0
C1089 C 0.72416 0.08868 0.20851 0.0
C1090 C 0.72499 0.09807 0.22972 0.0
C1091 C 0.70717 0.11046 0.23727 0.0
C1092 C 0.74536 0.09778 0.24296 0.0
C1093 C 0.74306 0.07564 0.19929 0.0
C1094 C 0.75463 0.07805 0.25019 0.0
C1095 C 0.77528 0.07798 0.26015 0.0
C1096 C 0.78694 0.09769 0.26322 0.0
C1097 C 0.77692 0.11754 0.25717 0.0
C1098 C 0.75636 0.11756 0.24712 0.0
H1099 H 0.74128 0.07264 0.18142 0.0
H1100 H 0.75881 0.0843 0.20216 0.0
H1101 H 0.7439 0.05953 0.20767 0.0
H1102 H 0.7462 0.06265 0.24755 0.0
H1103 H 0.78237 0.06239 0.26484 0.0
H1104 H 0.68754 0.96594 0.48859 0.0
H1105 H 0.6862 0.00236 0.50525 0.0
H1106 H 0.61562 -0.00065 0.50627 0.0
H1107 H 0.61668 0.96313 0.48939 0.0
H1108 H 0.63292 0.04108 0.49448 0.0
H1109 H 0.67052 0.00765 0.57078 0.0
H1110 H 0.68548 0.00421 0.54563 0.0
H1111 H 0.65997 0.99006 0.54948 0.0
C1112 C 0.67169 0.97312 0.49207 0.0
C1113 C 0.6522 0.96142 0.48791 0.0
C1114 C 0.671 0.99392 0.50165 0.0
C1115 C 0.65084 0.00335 0.50732 0.0
C1116 C 0.63136 0.9923 0.50207 0.0
H1117 H 0.58635 0.0733 0.5988 0.0
H1118 H 0.60947 0.04907 0.57713 0.0
C1119 C 0.63201 0.97155 0.49245 0.0
C1120 C 0.64973 0.02386 0.52024 0.0
H1121 H 0.65611 0.04309 0.57239 0.0
C1122 C 0.63846 0.04182 0.51136 0.0
C1123 C 0.657 0.02466 0.54225 0.0
C1124 C 0.66882 0.00563 0.55276 0.0
C1125 C 0.63293 0.05998 0.52436 0.0
C1126 C 0.63904 0.06017 0.54673 0.0
C1127 C 0.65168 0.04292 0.55517 0.0
C1128 C 0.62836 0.07524 0.56242 0.0
C1129 C 0.61906 0.07797 0.51459 0.0
C1130 C 0.63197 0.098 0.56202 0.0
C1131 C 0.61877 0.11198 0.57465 0.0
C1132 C 0.60179 0.10324 0.58752 0.0
C1133 C 0.59927 0.08042 0.5889 0.0
C1134 C 0.6125 0.06657 0.57657 0.0
H1135 H 0.61452 0.07458 0.49728 0.0
H1136 H 0.6038 0.08006 0.52429 0.0
H1137 H 0.6282 0.09368 0.51515 0.0
H1138 H 0.64428 0.10495 0.55129 0.0
H1139 H 0.62089 0.12955 0.57325 0.0
H1140 H 0.28632 0.43341 0.75163 0.0
H1141 H 0.25085 0.43151 0.77021 0.0
H1142 H 0.25453 0.36096 0.77033 0.0
H1143 H 0.29003 0.3626 0.75187 0.0
H1144 H 0.21088 0.40945 0.75794 0.0
H1145 H 0.24595 0.37825 0.83571 0.0
H1146 H 0.26248 0.39095 0.81468 0.0
H1147 H 0.25425 0.36277 0.81209 0.0
C1148 C 0.27958 0.41746 0.75551 0.0
C1149 C 0.29117 0.39814 0.75041 0.0
C1150 C 0.25929 0.41644 0.76611 0.0
C1151 C 0.25031 0.39613 0.77196 0.0
C1152 C 0.26142 0.37682 0.76627 0.0
H1153 H 0.13203 0.33793 0.80099 0.0
H1154 H 0.16064 0.35997 0.78412 0.0
C1155 C 0.28166 0.37779 0.75561 0.0
C1156 C 0.22943 0.39493 0.78424 0.0
H1157 H 0.20724 0.3739 0.83098 0.0
C1158 C 0.21006 0.40202 0.77407 0.0
C1159 C 0.22848 0.38579 0.8055 0.0
C1160 C 0.24892 0.3792 0.81777 0.0
C1161 C 0.18955 0.39867 0.784 0.0
C1162 C 0.18848 0.38776 0.80444 0.0
C1163 C 0.208 0.38219 0.81527 0.0
C1164 C 0.16768 0.37886 0.81332 0.0
C1165 C 0.16921 0.40631 0.77222 0.0
C1166 C 0.16163 0.38249 0.83527 0.0
C1167 C 0.14514 0.3698 0.84502 0.0
C1168 C 0.13484 0.35309 0.833 0.0
C1169 C 0.13974 0.35071 0.81063 0.0
C1170 C 0.15601 0.36345 0.8009 0.0
H1171 H 0.1727 0.42101 0.76205 0.0
H1172 H 0.16347 0.39314 0.76107 0.0
H1173 H 0.15583 0.41026 0.7839 0.0
H1174 H 0.17057 0.3942 0.8452 0.0
H1175 H 0.14181 0.3718 0.86235 0.0
H1176 H 0.88069 0.89542 0.11547 0.0
H1177 H 0.8571 0.92456 0.10077 0.0
H1178 H 0.88608 0.91564 0.03688 0.0
H1179 H 0.90922 0.88663 0.05134 0.0
H1180 H 0.87619 0.9613 0.08602 0.0
H1181 H 0.824 0.929 0.01983 0.0
H1182 H 0.83629 0.91139 0.04022 0.0
H1183 H 0.85158 0.9196 0.01629 0.0
C1184 C 0.8812 0.89903 0.09809 0.0
C1185 C 0.89679 0.8889 0.08453 0.0
C1186 C 0.86785 0.91575 0.08973 0.0
C1187 C 0.86972 0.92223 0.06768 0.0
C1188 C 0.88393 0.91069 0.05379 0.0
H1189 H 0.88358 0.04627 0.00875 0.0
H1190 H 0.88604 0.0109 0.02735 0.0
C1191 C 0.89729 0.89418 0.06212 0.0
C1192 C 0.86042 0.94333 0.05998 0.0
H1193 H 0.83617 0.96706 0.01548 0.0
C1194 C 0.86693 0.96253 0.07089 0.0
C1195 C 0.84821 0.94503 0.04034 0.0
C1196 C 0.83944 0.92509 0.02866 0.0
C1197 C 0.86298 0.98328 0.06186 0.0
C1198 C 0.85261 0.98485 0.04119 0.0
C1199 C 0.84459 0.9658 0.03109 0.0
C1200 C 0.85096 0.006 0.02938 0.0
C1201 C 0.87047 0.00332 0.07427 0.0
C1202 C 0.83044 0.01459 0.02368 0.0
C1203 C 0.82897 0.03475 0.01291 0.0
C1204 C 0.84802 0.04667 0.00751 0.0
C1205 C 0.86857 0.03767 0.01276 0.0
C1206 C 0.87001 0.01751 0.02353 0.0
H1207 H 0.87181 -4e-05 0.09212 0.0
H1208 H 0.88692 0.00827 0.06829 0.0
H1209 H 0.85904 0.01726 0.07178 0.0
H1210 H 0.81556 0.00585 0.02787 0.0
H1211 H 0.81285 0.04109 0.00905 0.0
H1212 H 0.36986 0.6615 0.30061 0.0
H1213 H 0.34056 0.64193 0.28179 0.0
H1214 H 0.32269 0.61017 0.34238 0.0
H1215 H 0.35206 0.63011 0.36148 0.0
H1216 H 0.32429 0.5993 0.27558 0.0
H1217 H 0.2704 0.65056 0.32849 0.0
H1218 H 0.29963 0.65466 0.32711 0.0
H1219 H 0.28859 0.63211 0.34249 0.0
C1220 C 0.36022 0.64971 0.30976 0.0
C1221 C 0.36301 0.64746 0.33251 0.0
C1222 C 0.34346 0.63855 0.29899 0.0
C1223 C 0.32913 0.62504 0.3108 0.0
C1224 C 0.3334 0.62084 0.33307 0.0
H1225 H 0.21246 0.56888 0.24882 0.0
H1226 H 0.24795 0.57303 0.26667 0.0
C1227 C 0.35031 0.63202 0.34391 0.0
C1228 C 0.30817 0.61845 0.30042 0.0
H1229 H 0.25345 0.63016 0.30081 0.0
C1230 C 0.30873 0.60574 0.28124 0.0
C1231 C 0.28798 0.62737 0.30758 0.0
C1232 C 0.28648 0.64208 0.32743 0.0
C1233 C 0.28966 0.60199 0.26884 0.0
C1234 C 0.26954 0.61101 0.27599 0.0
C1235 C 0.26893 0.62332 0.29538 0.0
C1236 C 0.24889 0.60831 0.26348 0.0
C1237 C 0.29136 0.58916 0.24778 0.0
C1238 C 0.23755 0.62681 0.25578 0.0
C1239 C 0.21711 0.62455 0.24564 0.0
C1240 C 0.20754 0.60373 0.24317 0.0
C1241 C 0.21928 0.58519 0.25041 0.0
C1242 C 0.23968 0.58749 0.26053 0.0
H1243 H 0.30857 0.58789 0.24198 0.0
H1244 H 0.28508 0.57231 0.25052 0.0
H1245 H 0.28133 0.59684 0.23467 0.0
H1246 H 0.24437 0.64306 0.25797 0.0
H1247 H 0.20857 0.63917 0.24032 0.0
H1248 H 0.42903 0.10495 0.36496 0.0
H1249 H 0.45407 0.12615 0.38867 0.0
H1250 H 0.42255 0.09902 0.44588 0.0
H1251 H 0.3979 0.07803 0.4225 0.0
H1252 H 0.43376 0.14482 0.44899 0.0
H1253 H 0.50276 0.09107 0.4225 0.0
H1254 H 0.48736 0.10562 0.40194 0.0
H1255 H 0.47457 0.08392 0.41709 0.0
C1256 C 0.42714 0.10413 0.38259 0.0
C1257 C 0.41167 0.08991 0.39201 0.0
C1258 C 0.44151 0.11603 0.39608 0.0
C1259 C 0.44029 0.11389 0.41899 0.0
C1260 C 0.42378 0.10088 0.42825 0.0
H1261 H 0.51228 0.10504 0.534 0.0
H1262 H 0.49583 0.10119 0.49766 0.0
C1263 C 0.40971 0.08891 0.4149 0.0
C1264 C 0.45707 0.12324 0.43379 0.0
H1265 H 0.50803 0.11215 0.45415 0.0
C1266 C 0.45024 0.1382 0.44983 0.0
C1267 C 0.47841 0.11424 0.43492 0.0
C1268 C 0.48635 0.09775 0.41831 0.0
C1269 C 0.46366 0.14339 0.46777 0.0
C1270 C 0.48463 0.13361 0.46945 0.0
C1271 C 0.49197 0.11964 0.45273 0.0
C1272 C 0.49794 0.13568 0.48966 0.0
C1273 C 0.45462 0.15803 0.48556 0.0
C1274 C 0.50544 0.15619 0.49677 0.0
C1275 C 0.51471 0.15847 0.51758 0.0
C1276 C 0.51682 0.14023 0.53159 0.0
C1277 C 0.51085 0.11942 0.5237 0.0
C1278 C 0.50144 0.1172 0.50292 0.0
H1279 H 0.43678 0.16108 0.48355 0.0
H1280 H 0.45742 0.15067 0.50197 0.0
H1281 H 0.46317 0.17407 0.48506 0.0
H1282 H 0.50332 0.17057 0.48659 0.0
H1283 H 0.51945 0.1747 0.52301 0.0
H1284 H 0.16418 0.14508 0.6759 0.0
H1285 H 0.14237 0.16603 0.70196 0.0
H1286 H 0.10521 0.194 0.6487 0.0
H1287 H 0.12711 0.17262 0.62229 0.0
H1288 H 0.1257 0.22498 0.67778 0.0
H1289 H 0.07861 0.16293 0.72409 0.0
H1290 H 0.10676 0.15519 0.72057 0.0
H1291 H 0.08932 0.15786 0.69693 0.0
C1292 C 0.15096 0.15524 0.66976 0.0
C1293 C 0.14725 0.15725 0.64714 0.0
C1294 C 0.13844 0.16711 0.68467 0.0
C1295 C 0.12204 0.18139 0.67728 0.0
C1296 C 0.11767 0.18286 0.6547 0.0
H1297 H 0.06297 0.25231 0.78751 0.0
H1298 H 0.06522 0.23465 0.75164 0.0
C1299 C 0.13006 0.17061 0.63968 0.0
C1300 C 0.11174 0.19647 0.69325 0.0
H1301 H 0.08757 0.19634 0.74364 0.0
C1302 C 0.11682 0.21886 0.69192 0.0
C1303 C 0.10002 0.18851 0.71158 0.0
C1304 C 0.09316 0.16483 0.7133 0.0
C1305 C 0.11202 0.23317 0.70929 0.0
C1306 C 0.10213 0.22476 0.7285 0.0
C1307 C 0.09544 0.20274 0.72903 0.0
C1308 C 0.10041 0.23783 0.74891 0.0
C1309 C 0.11825 0.257 0.70722 0.0
C1310 C 0.11945 0.24562 0.75922 0.0
C1311 C 0.11828 0.25567 0.77977 0.0
C1312 C 0.09801 0.25803 0.7905 0.0
C1313 C 0.07887 0.25079 0.77978 0.0
C1314 C 0.08009 0.24068 0.75925 0.0
H1315 H 0.11878 0.2622 0.68978 0.0
H1316 H 0.10657 0.26768 0.7162 0.0
H1317 H 0.13484 0.25948 0.71426 0.0
H1318 H 0.13537 0.24316 0.75176 0.0
H1319 H 0.13335 0.26098 0.7875 0.0
H1320 H 0.08017 0.88691 0.86788 0.0
H1321 H 0.05642 0.86402 0.89135 0.0
H1322 H 0.07229 0.90475 0.94689 0.0
H1323 H 0.09561 0.92745 0.92387 0.0
H1324 H 0.07282 0.85541 0.95299 0.0
H1325 H 0.99661 0.89152 0.91773 0.0
H1326 H 0.01787 0.88113 0.90001 0.0
H1327 H 0.02248 0.90569 0.91542 0.0
C1328 C 0.07882 0.89065 0.88518 0.0
C1329 C 0.08955 0.90903 0.89405 0.0
C1330 C 0.06522 0.87769 0.89849 0.0
C1331 C 0.06256 0.88287 0.92076 0.0
C1332 C 0.07412 0.90054 0.92973 0.0
H1333 H 0.98655 0.88894 0.03094 0.0
H1334 H 0.00351 0.8915 0.99483 0.0
C1335 C 0.08738 0.91353 0.91652 0.0
C1336 C 0.04692 0.87113 0.93503 0.0
H1337 H 0.99372 0.87417 0.95203 0.0
C1338 C 0.05538 0.85881 0.95248 0.0
C1339 C 0.02428 0.87593 0.93432 0.0
C1340 C 0.01459 0.8893 0.91592 0.0
C1341 C 0.04205 0.85251 0.97013 0.0
C1342 C 0.01965 0.85854 0.97012 0.0
C1343 C 0.01088 0.86955 0.95192 0.0
C1344 C 0.0061 0.85645 0.99014 0.0
C1345 C 0.05243 0.84105 0.98945 0.0
C1346 C 0.00117 0.83587 0.99908 0.0
C1347 C 0.99154 0.83432 0.01982 0.0
C1348 C 0.98664 0.85336 0.03195 0.0
C1349 C 0.99023 0.87394 0.0222 0.0
C1350 C -0.00012 0.87545 0.0015 0.0
H1351 H 0.07057 0.84023 0.98807 0.0
H1352 H 0.04819 0.84959 0.00495 0.0
H1353 H 0.04605 0.82405 0.99053 0.0
H1354 H 0.00555 0.82103 0.9904 0.0
H1355 H 0.98879 0.81818 0.02669 0.0
H1356 H 0.32918 0.85401 0.17729 0.0
H1357 H 0.35062 0.83284 0.20346 0.0
H1358 H 0.39088 0.80813 0.15091 0.0
H1359 H 0.36936 0.82966 0.12434 0.0
H1360 H 0.37079 0.77538 0.17926 0.0
H1361 H 0.41411 0.83928 0.22682 0.0
H1362 H 0.38571 0.84563 0.22253 0.0
H1363 H 0.40391 0.84392 0.19939 0.0
C1364 C 0.34285 0.8444 0.1713 0.0
C1365 C 0.3476 0.84343 0.14878 0.0
C1366 C 0.35518 0.83242 0.1863 0.0
C1367 C 0.37245 0.81911 0.17914 0.0
C1368 C 0.37771 0.8185 0.15673 0.0
H1369 H 0.43345 0.75008 0.28963 0.0
H1370 H 0.43093 0.76781 0.25377 0.0
C1371 C 0.36551 0.83083 0.14163 0.0
C1372 C 0.38319 0.80438 0.19513 0.0
H1373 H 0.40689 0.8052 0.24574 0.0
C1374 C 0.37922 0.78178 0.19355 0.0
C1375 C 0.39434 0.81273 0.21363 0.0
C1376 C 0.39998 0.83671 0.21563 0.0
C1377 C 0.38457 0.76755 0.21083 0.0
C1378 C 0.39389 0.77626 0.23019 0.0
C1379 C 0.39949 0.79856 0.231 0.0
C1380 C 0.39595 0.76314 0.25054 0.0
C1381 C 0.37952 0.74347 0.20851 0.0
C1382 C 0.37712 0.75452 0.26056 0.0
C1383 C 0.37844 0.74446 0.28109 0.0
C1384 C 0.39864 0.7429 0.29209 0.0
C1385 C 0.41761 0.75096 0.28167 0.0
C1386 C 0.41624 0.76111 0.26115 0.0
H1387 H 0.37942 0.73841 0.19102 0.0
H1388 H 0.39161 0.73329 0.21753 0.0
H1389 H 0.363 0.74014 0.21535 0.0
H1390 H 0.36121 0.75634 0.2529 0.0
H1391 H 0.3635 0.73847 0.28858 0.0
H1392 H 0.9949 0.38692 0.457 0.0
H1393 H 0.97882 0.3876 0.49358 0.0
H1394 H 0.98486 0.31731 0.49794 0.0
H1395 H 0.00049 0.31638 0.46105 0.0
H1396 H 0.94527 0.33018 0.5111 0.0
H1397 H 0.00735 0.38116 0.55251 0.0
H1398 H 0.99746 0.39472 0.52841 0.0
H1399 H 0.01203 0.36915 0.52589 0.0
C1400 C 0.99305 0.37161 0.46579 0.0
C1401 C 0.99904 0.35161 0.45606 0.0
C1402 C 0.98397 0.37203 0.4868 0.0
C1403 C 0.98102 0.35254 0.4987 0.0
C1404 C 0.98711 0.33256 0.48912 0.0
H1405 H 0.93533 0.38495 0.62968 0.0
H1406 H 0.95533 0.36256 0.60295 0.0
C1407 C 0.99604 0.33208 0.46802 0.0
C1408 C 0.97045 0.35309 0.5206 0.0
H1409 H 0.97123 0.381 0.56893 0.0
C1410 C 0.95116 0.34096 0.52395 0.0
C1411 C 0.97845 0.36657 0.53767 0.0
C1412 C 0.00011 0.37841 0.53602 0.0
C1413 C 0.93878 0.3433 0.54322 0.0
C1414 C 0.94557 0.35861 0.55927 0.0
C1415 C 0.96575 0.36942 0.5566 0.0
C1416 C 0.93098 0.36601 0.57733 0.0
C1417 C 0.91837 0.32962 0.54592 0.0
C1418 C 0.91011 0.37436 0.5723 0.0
C1419 C 0.89852 0.38663 0.58774 0.0
C1420 C 0.90771 0.39097 0.60834 0.0
C1421 C 0.92774 0.38128 0.61405 0.0
C1422 C 0.93923 0.36872 0.5987 0.0
H1423 H 0.92047 0.3133 0.53813 0.0
H1424 H 0.9141 0.32723 0.56345 0.0
H1425 H 0.90448 0.33787 0.53756 0.0
H1426 H 0.90359 0.37318 0.55584 0.0
H1427 H 0.8834 0.39454 0.58281 0.0
H1428 H 0.81944 0.69544 0.85356 0.0
H1429 H 0.84161 0.71275 0.82521 0.0
H1430 H 0.88918 0.66076 0.83034 0.0
H1431 H 0.86683 0.64314 0.85896 0.0
H1432 H 0.8867 0.72661 0.82069 0.0
H1433 H 0.86323 0.65638 0.76707 0.0
H1434 H 0.84989 0.66141 0.79297 0.0
H1435 H 0.87711 0.65032 0.79238 0.0
C1436 C 0.83488 0.68793 0.84903 0.0
C1437 C 0.84131 0.66781 0.85822 0.0
C1438 C 0.84757 0.69789 0.8329 0.0
C1439 C 0.86683 0.68786 0.82548 0.0
C1440 C 0.87423 0.66862 0.83576 0.0
H1441 H 0.93311 0.7476 0.71172 0.0
H1442 H 0.92768 0.73062 0.74763 0.0
C1443 C 0.86156 0.65867 0.85216 0.0
C1444 C 0.8772 0.69634 0.80528 0.0
H1445 H 0.87962 0.68666 0.75022 0.0
C1446 C 0.88566 0.71774 0.80532 0.0
C1447 C 0.87541 0.68479 0.78525 0.0
C1448 C 0.86583 0.662 0.7842 0.0
C1449 C 0.89163 0.72821 0.7857 0.0
C1450 C 0.8891 0.7169 0.76565 0.0
C1451 C 0.8815 0.69521 0.7657 0.0
C1452 C 0.89253 0.72779 0.74427 0.0
C1453 C 0.89946 0.75165 0.78636 0.0
C1454 C 0.87453 0.73169 0.73051 0.0
C1455 C 0.87751 0.74138 0.70999 0.0
C1456 C 0.89862 0.74719 0.70276 0.0
C1457 C 0.91662 0.74335 0.71672 0.0
C1458 C 0.91358 0.73372 0.7373 0.0
H1459 H 0.89782 0.75899 0.80294 0.0
H1460 H 0.91698 0.7523 0.78152 0.0
H1461 H 0.89007 0.76177 0.7745 0.0
H1462 H 0.85815 0.72718 0.73566 0.0
H1463 H 0.86329 0.74406 0.69971 0.0
H1464 H 0.54975 0.58393 0.10944 0.0
H1465 H 0.53211 0.60641 0.08159 0.0
H1466 H 0.59092 0.64519 0.07536 0.0
H1467 H 0.60887 0.62235 0.10339 0.0
H1468 H 0.52379 0.6512 0.07261 0.0
H1469 H 0.58474 0.61359 0.01579 0.0
H1470 H 0.58141 0.60412 0.04359 0.0
H1471 H 0.59514 0.62959 0.03824 0.0
C1472 C 0.55873 0.59765 0.1026 0.0
C1473 C 0.58075 0.60125 0.10829 0.0
C1474 C 0.5486 0.61054 0.08674 0.0
C1475 C 0.56033 0.62718 0.07612 0.0
C1476 C 0.58169 0.6322 0.0832 0.0
H1477 H 0.49649 0.68405 0.95899 0.0
H1478 H 0.5154 0.68247 0.99436 0.0
C1479 C 0.59187 0.6193 0.0993 0.0
C1480 C 0.55105 0.63652 0.05572 0.0
H1481 H 0.55468 0.63123 0.00012 0.0
C1482 C 0.53077 0.64737 0.05672 0.0
C1483 C 0.56007 0.63113 0.03503 0.0
C1484 C 0.58146 0.61886 0.03291 0.0
C1485 C 0.51879 0.65204 0.03759 0.0
C1486 C 0.52742 0.64574 0.01706 0.0
C1487 C 0.54817 0.63596 0.01597 0.0
C1488 C 0.51442 0.64713 0.99664 0.0
C1489 C 0.49646 0.66243 0.03947 0.0
C1490 C 0.50748 0.62778 0.98636 0.0
C1491 C 0.4967 0.62856 0.9662 0.0
C1492 C 0.49277 0.64876 0.9558 0.0
C1493 C 0.49923 0.6682 0.9665 0.0
C1494 C 0.50999 0.66738 0.98674 0.0
H1495 H 0.4912 0.66438 0.05679 0.0
H1496 H 0.49676 0.67885 0.03165 0.0
H1497 H 0.4841 0.65237 0.03067 0.0
H1498 H 0.51078 0.61199 0.99379 0.0
H1499 H 0.49199 0.61327 0.95851 0.0
H1500 H 0.6733 0.35093 0.32305 0.0
H1501 H 0.65434 0.32472 0.29956 0.0
H1502 H 0.62799 0.2923 0.35659 0.0
H1503 H 0.64688 0.31898 0.3804 0.0
H1504 H 0.65321 0.26509 0.32463 0.0
H1505 H 0.58783 0.31462 0.28568 0.0
H1506 H 0.61392 0.32824 0.28679 0.0
H1507 H 0.59985 0.32167 0.31184 0.0
C1508 C 0.663 0.33857 0.33057 0.0
C1509 C 0.66142 0.33697 0.35347 0.0
C1510 C 0.65216 0.32364 0.31716 0.0
C1511 C 0.63971 0.30668 0.32636 0.0
C1512 C 0.63742 0.30542 0.34924 0.0
H1513 H 0.58009 0.22522 0.22534 0.0
H1514 H 0.58522 0.24147 0.26149 0.0
C1515 C 0.64804 0.32069 0.36276 0.0
C1516 C 0.63107 0.28939 0.31176 0.0
H1517 H 0.60023 0.28305 0.26566 0.0
C1518 C 0.64121 0.26874 0.31203 0.0
C1519 C 0.61537 0.29419 0.29547 0.0
C1520 C 0.60344 0.31583 0.29498 0.0
C1521 C 0.63712 0.2533 0.29545 0.0
C1522 C 0.62272 0.25882 0.27815 0.0
C1523 C 0.61144 0.27887 0.27881 0.0
C1524 C 0.62033 0.24506 0.25827 0.0
C1525 C 0.64869 0.23149 0.29628 0.0
C1526 C 0.63849 0.24107 0.24467 0.0
C1527 C 0.63563 0.23172 0.22392 0.0
C1528 C 0.61452 0.22648 0.21633 0.0
C1529 C 0.59657 0.22927 0.23057 0.0
C1530 C 0.59945 0.23852 0.25129 0.0
H1531 H 0.65312 0.227 0.31337 0.0
H1532 H 0.63838 0.21826 0.2892 0.0
H1533 H 0.66408 0.23254 0.28665 0.0
H1534 H 0.65471 0.24638 0.24954 0.0
H1535 H 0.64978 0.22989 0.21336 0.0
H1536 H 0.53309 0.51253 0.10985 0.0
H1537 H 0.49705 0.49549 0.10691 0.0
H1538 H 0.49384 0.48935 0.17725 0.0
H1539 H 0.53002 0.5062 0.18042 0.0
H1540 H 0.48676 0.45057 0.15636 0.0
H1541 H 0.43441 0.51454 0.11945 0.0
H1542 H 0.45956 0.51129 0.10457 0.0
H1543 H 0.46026 0.52074 0.13253 0.0
C1544 C 0.52459 0.50798 0.12476 0.0
C1545 C 0.5346 0.51062 0.14536 0.0
C1546 C 0.50386 0.49838 0.12305 0.0
C1547 C 0.49263 0.49139 0.14189 0.0
C1548 C 0.50216 0.49476 0.16252 0.0
H1549 H 0.36894 0.4215 0.11139 0.0
H1550 H 0.39335 0.44503 0.13347 0.0
C1551 C 0.52289 0.50439 0.16427 0.0
C1552 C 0.47234 0.47819 0.13969 0.0
H1553 H 0.42323 0.47682 0.11296 0.0
C1554 C 0.47261 0.45649 0.14736 0.0
C1555 C 0.45372 0.48598 0.12829 0.0
C1556 C 0.45184 0.5095 0.12095 0.0
C1557 C 0.45562 0.44188 0.14226 0.0
C1558 C 0.43805 0.44912 0.12904 0.0
C1559 C 0.43682 0.47127 0.12298 0.0
C1560 C 0.42315 0.43336 0.1182 0.0
C1561 C 0.45714 0.41848 0.1501 0.0
C1562 C 0.4319 0.41902 0.10255 0.0
C1563 C 0.41814 0.40595 0.08992 0.0
C1564 C 0.39532 0.40681 0.09274 0.0
C1565 C 0.38651 0.42042 0.10909 0.0
C1566 C 0.40038 0.43388 0.12159 0.0
H1567 H 0.46721 0.41721 0.16522 0.0
H1568 H 0.44063 0.41156 0.15338 0.0
H1569 H 0.46509 0.40839 0.13722 0.0
H1570 H 0.44938 0.41862 0.09945 0.0
H1571 H 0.42535 0.39557 0.07744 0.0
H1572 H 0.04362 0.01155 0.82222 0.0
H1573 H 0.00692 0.02664 0.8277 0.0
H1574 H 0.00885 0.00715 0.89558 0.0
H1575 H 0.04558 0.99199 0.89038 0.0
H1576 H 0.96755 0.99739 0.86971 0.0
H1577 H 0.99657 0.08398 0.86552 0.0
H1578 H 0.00486 0.06534 0.84421 0.0
H1579 H 0.01499 0.06161 0.87154 0.0
C1580 C 0.03624 0.01032 0.83832 0.0
C1581 C 0.04768 0.00067 0.85592 0.0
C1582 C 0.01527 0.019 0.84138 0.0
C1583 C 0.00533 0.01813 0.86206 0.0
C1584 C 0.01634 0.00798 0.8795 0.0
H1585 H 0.90188 0.05783 0.94094 0.0
H1586 H 0.92934 0.03837 0.91981 0.0
C1587 C 0.03735 -0.00061 0.8765 0.0
C1588 C 0.98377 0.02848 0.86589 0.0
H1589 H 0.95972 0.07817 0.87464 0.0
C1590 C 0.9657 0.01505 0.8705 0.0
C1591 C 0.9814 0.05151 0.86656 0.0
C1592 C 0.00043 0.06658 0.8618 0.0
C1593 C 0.94548 0.02408 0.87669 0.0
C1594 C 0.94351 0.04709 0.87884 0.0
C1595 C 0.96124 0.06054 0.87297 0.0
C1596 C 0.92462 0.05731 0.89019 0.0
C1597 C 0.92657 0.00884 0.88132 0.0
C1598 C 0.9128 0.07463 0.88063 0.0
C1599 C 0.89701 0.08604 0.89284 0.0
C1600 C 0.89315 0.08049 0.91489 0.0
C1601 C 0.90451 0.06264 0.92404 0.0
C1602 C 0.92009 0.05128 0.91188 0.0
H1603 H 0.92777 0.9937 0.87128 0.0
H1604 H 0.92703 0.00388 0.89881 0.0
H1605 H 0.91057 0.01683 0.87798 0.0
H1606 H 0.91622 0.07968 0.86396 0.0
H1607 H 0.8886 0.09976 0.88537 0.0
H1608 H 0.14329 0.67335 0.1637 0.0
H1609 H 0.16609 0.7004 0.14506 0.0
H1610 H 0.20837 0.64885 0.1216 0.0
H1611 H 0.18517 0.62146 0.14025 0.0
H1612 H 0.22958 0.6831 0.14622 0.0
H1613 H 0.17718 0.71717 0.0805 0.0
H1614 H 0.16308 0.71487 0.10623 0.0
H1615 H 0.17242 0.6905 0.09252 0.0
C1616 C 0.15704 0.66774 0.15394 0.0
C1617 C 0.16245 0.64542 0.15317 0.0
C1618 C 0.17002 0.68318 0.14328 0.0
C1619 C 0.1888 0.67661 0.13181 0.0
C1620 C 0.1938 0.65417 0.13022 0.0
H1621 H 0.26274 0.78457 0.07406 0.0
H1622 H 0.2469 0.74828 0.07922 0.0
C1623 C 0.18052 0.63859 0.14068 0.0
C1624 C 0.20423 0.69359 0.12399 0.0
H1625 H 0.20574 0.74082 0.09419 0.0
C1626 C 0.22464 0.69549 0.13446 0.0
C1627 C 0.19778 0.70964 0.10861 0.0
C1628 C 0.1765 0.70787 0.09615 0.0
C1629 C 0.23818 0.71377 0.13092 0.0
C1630 C 0.23094 0.73063 0.11678 0.0
C1631 C 0.21116 0.72802 0.10528 0.0
C1632 C 0.24301 0.75158 0.11428 0.0
C1633 C 0.2599 0.71503 0.14266 0.0
C1634 C 0.24635 0.76543 0.13238 0.0
C1635 C 0.25548 0.7863 0.12952 0.0
C1636 C 0.26116 0.79374 0.10846 0.0
C1637 C 0.25839 0.77949 0.09051 0.0
C1638 C 0.24938 0.75868 0.0934 0.0
H1639 H 0.26595 0.69848 0.14723 0.0
H1640 H 0.27247 0.72326 0.13239 0.0
H1641 H 0.25786 0.72463 0.15797 0.0
H1642 H 0.24113 0.76046 0.1486 0.0
H1643 H 0.2573 0.79687 0.14367 0.0
H1644 H 0.45694 0.00095 0.39089 0.0
H1645 H 0.49332 0.98439 0.39426 0.0
H1646 H 0.4946 0.97249 0.32462 0.0
H1647 H 0.45859 0.98928 0.32096 0.0
H1648 H 0.50363 0.94161 0.3834 0.0
H1649 H 0.55471 -0.00028 0.33546 0.0
H1650 H 0.52752 0.00649 0.34496 0.0
H1651 H 0.53108 0.98947 0.32119 0.0
C1652 C 0.46507 0.99511 0.37624 0.0
C1653 C 0.45475 0.99644 0.35568 0.0
C1654 C 0.48585 0.98561 0.3782 0.0
C1655 C 0.49675 0.9774 0.35965 0.0
C1656 C 0.4867 0.97908 0.33908 0.0
H1657 H 0.6033 0.88358 0.38201 0.0
H1658 H 0.57269 0.90079 0.36227 0.0
C1659 C 0.46598 0.98858 0.33708 0.0
C1660 C 0.51794 0.96576 0.36207 0.0
H1661 H 0.57197 0.96705 0.34741 0.0
C1662 C 0.51857 0.94709 0.37546 0.0
C1663 C 0.53735 0.97297 0.35163 0.0
C1664 C 0.53778 0.99336 0.33765 0.0
C1665 C 0.53817 0.9357 0.37916 0.0
C1666 C 0.55764 0.94287 0.36873 0.0
C1667 C 0.55695 0.96133 0.355 0.0
C1668 C 0.57922 0.9334 0.37466 0.0
C1669 C 0.53803 0.91671 0.39505 0.0
C1670 C 0.59403 0.94636 0.3865 0.0
C1671 C 0.61153 0.93665 0.39749 0.0
C1672 C 0.61457 0.91383 0.39674 0.0
C1673 C 0.60138 0.90122 0.38272 0.0
C1674 C 0.58375 0.91099 0.3717 0.0
H1675 H 0.52253 0.91582 0.40456 0.0
H1676 H 0.53987 0.90114 0.38585 0.0
H1677 H 0.5519 0.91803 0.40676 0.0
H1678 H 0.59095 0.96368 0.38889 0.0
H1679 H 0.62153 0.94672 0.40819 0.0
H1680 H 0.29568 0.36902 0.67145 0.0
H1681 H 0.27498 0.34113 0.65176 0.0
H1682 H 0.33161 0.32715 0.61183 0.0
H1683 H 0.35264 0.3551 0.63189 0.0
H1684 H 0.26397 0.32869 0.60891 0.0
H1685 H 0.3228 0.27128 0.64866 0.0
H1686 H 0.32179 0.3 0.65549 0.0
H1687 H 0.3344 0.29123 0.63037 0.0
C1688 C 0.3035 0.36054 0.65795 0.0
C1689 C 0.3258 0.36396 0.65333 0.0
C1690 C 0.29165 0.34461 0.6467 0.0
C1691 C 0.30192 0.33173 0.63072 0.0
C1692 C 0.32352 0.33672 0.62439 0.0
H1693 H 0.23488 0.21941 0.57215 0.0
H1694 H 0.25227 0.25497 0.57742 0.0
C1695 C 0.33545 0.35282 0.63567 0.0
C1696 C 0.29095 0.3113 0.62353 0.0
H1697 H 0.29287 0.2558 0.63039 0.0
C1698 C 0.27039 0.3127 0.61328 0.0
C1699 C 0.29918 0.29052 0.62978 0.0
C1700 C 0.32066 0.28802 0.64183 0.0
C1701 C 0.25766 0.29389 0.60943 0.0
C1702 C 0.26588 0.27317 0.61581 0.0
C1703 C 0.28662 0.27175 0.62561 0.0
C1704 C 0.25326 0.25266 0.61277 0.0
C1705 C 0.23521 0.2964 0.59939 0.0
C1706 C 0.24798 0.23953 0.63094 0.0
C1707 C 0.23813 0.21904 0.62802 0.0
C1708 C 0.23355 0.21123 0.60683 0.0
C1709 C 0.23818 0.22484 0.58873 0.0
C1710 C 0.24801 0.24528 0.59168 0.0
H1711 H 0.22923 0.31357 0.60039 0.0
H1712 H 0.23596 0.29173 0.58183 0.0
H1713 H 0.22316 0.28551 0.60761 0.0
H1714 H 0.25196 0.24495 0.64738 0.0
H1715 H 0.23485 0.20902 0.64231 0.0
H1716 H 0.96658 0.48547 0.60595 0.0
H1717 H 0.0031 0.50178 0.605 0.0
H1718 H 0.01055 0.48982 0.67428 0.0
H1719 H 0.9739 0.47382 0.67547 0.0
H1720 H 0.01749 0.5319 0.66462 0.0
H1721 H 0.06575 0.48099 0.60756 0.0
H1722 H 0.04008 0.48875 0.59555 0.0
H1723 H 0.04038 0.47156 0.61957 0.0
C1724 C 0.97622 0.4857 0.62086 0.0
C1725 C 0.96721 0.4785 0.64081 0.0
C1726 C 0.99718 0.49497 0.62028 0.0
C1727 C 0.00966 0.4969 0.63956 0.0
C1728 C 0.00124 0.48848 0.65922 0.0
H1729 H 0.13304 0.56631 0.61484 0.0
H1730 H 0.1094 0.54012 0.63436 0.0
C1731 C 0.98026 0.47934 0.65984 0.0
C1732 C 0.03001 0.51023 0.63966 0.0
H1733 H 0.07735 0.51893 0.61126 0.0
C1734 C 0.03083 0.52877 0.65331 0.0
C1735 C 0.04765 0.506 0.62525 0.0
C1736 C 0.04854 0.48559 0.61134 0.0
C1737 C 0.04795 0.54405 0.65168 0.0
C1738 C 0.06447 0.54088 0.63577 0.0
C1739 C 0.06458 0.52148 0.62336 0.0
C1740 C 0.07963 0.55873 0.62929 0.0
C1741 C 0.04774 0.56384 0.66648 0.0
C1742 C 0.07087 0.57821 0.62075 0.0
C1743 C 0.08429 0.59305 0.60971 0.0
C1744 C 0.10671 0.58875 0.60714 0.0
C1745 C 0.11587 0.57019 0.61717 0.0
C1746 C 0.10236 0.55516 0.62809 0.0
H1747 H 0.03966 0.56004 0.68235 0.0
H1748 H 0.06458 0.56992 0.66974 0.0
H1749 H 0.03824 0.57715 0.65851 0.0
H1750 H 0.05336 0.5811 0.62097 0.0
H1751 H 0.07684 0.607 0.60163 0.0
H1752 H 0.75469 0.71099 0.86366 0.0
H1753 H 0.73752 0.74691 0.86038 0.0
H1754 H 0.724 0.74712 0.92975 0.0
H1755 H 0.74094 0.71099 0.93322 0.0
H1756 H 0.68773 0.75602 0.90525 0.0
H1757 H 0.75625 0.80846 0.87772 0.0
H1758 H 0.75403 0.78411 0.8614 0.0
H1759 H 0.76054 0.78191 0.89011 0.0
C1760 C 0.74838 0.71875 0.87832 0.0
C1761 C 0.74914 0.70797 0.89869 0.0
C1762 C 0.73872 0.73942 0.87644 0.0
C1763 C 0.72977 0.74986 0.89488 0.0
C1764 C 0.73097 0.73943 0.91534 0.0
H1765 H 0.66678 0.87726 0.86497 0.0
H1766 H 0.6877 0.85068 0.88712 0.0
C1767 C 0.74065 0.71875 0.91726 0.0
C1768 C 0.71721 0.77051 0.89223 0.0
H1769 H 0.71969 0.82097 0.86819 0.0
C1770 C 0.69485 0.77043 0.89762 0.0
C1771 C 0.72653 0.78946 0.88264 0.0
C1772 C 0.75072 0.79111 0.87786 0.0
C1773 C 0.68122 0.78808 0.89205 0.0
C1774 C 0.69016 0.80613 0.88061 0.0
C1775 C 0.71283 0.80702 0.87682 0.0
C1776 C 0.67594 0.82228 0.86941 0.0
C1777 C 0.65716 0.78685 0.89757 0.0
C1778 C 0.66241 0.81506 0.85233 0.0
C1779 C 0.65077 0.83004 0.83967 0.0
C1780 C 0.65231 0.85263 0.84386 0.0
C1781 C 0.66517 0.85991 0.86154 0.0
C1782 C 0.67716 0.8448 0.8741 0.0
H1783 H 0.65423 0.77613 0.91201 0.0
H1784 H 0.65034 0.80337 0.901 0.0
H1785 H 0.64814 0.77976 0.88345 0.0
H1786 H 0.66151 0.79781 0.8482 0.0
H1787 H 0.64094 0.82394 0.8262 0.0
H1788 H 0.76106 0.30257 0.35654 0.0
H1789 H 0.77691 0.26593 0.35299 0.0
H1790 H 0.76231 0.25279 0.42093 0.0
H1791 H 0.74723 0.28965 0.42481 0.0
H1792 H 0.80212 0.23945 0.41191 0.0
H1793 H 0.74672 0.20829 0.34741 0.0
H1794 H 0.76016 0.23293 0.33876 0.0
H1795 H 0.74155 0.23363 0.3617 0.0
C1796 C 0.76103 0.29179 0.37065 0.0
C1797 C 0.75284 0.29901 0.39093 0.0
C1798 C 0.77 0.27079 0.36859 0.0
C1799 C 0.77046 0.25641 0.38659 0.0
C1800 C 0.76212 0.26354 0.40679 0.0
H1801 H 0.80455 0.12212 0.35472 0.0
H1802 H 0.78575 0.15242 0.37303 0.0
C1803 C 0.75346 0.28463 0.40896 0.0
C1804 C 0.78033 0.23422 0.38457 0.0
H1805 H 0.78012 0.18833 0.35276 0.0
C1806 C 0.79711 0.22813 0.39915 0.0
C1807 C 0.7735 0.21918 0.36831 0.0
C1808 C 0.75433 0.22375 0.35334 0.0
C1809 C 0.80782 0.20782 0.39732 0.0
C1810 C 0.80208 0.19348 0.38002 0.0
C1811 C 0.78472 0.19927 0.36599 0.0
C1812 C 0.81454 0.17312 0.37499 0.0
C1813 C 0.82507 0.20199 0.41404 0.0
C1814 C 0.83728 0.17402 0.37125 0.0
C1815 C 0.84815 0.15634 0.36152 0.0
C1816 C 0.83636 0.13774 0.35491 0.0
C1817 C 0.81403 0.13614 0.3601 0.0
C1818 C 0.80326 0.15358 0.37031 0.0
H1819 H 0.82155 0.20985 0.43009 0.0
H1820 H 0.82623 0.184 0.41652 0.0
H1821 H 0.84122 0.20816 0.40837 0.0
H1822 H 0.84632 0.18901 0.37409 0.0
H1823 H 0.86525 0.15817 0.35705 0.0
H1824 H 0.09619 0.5115 0.18362 0.0
H1825 H 0.08025 0.47814 0.19947 0.0
H1826 H 0.05472 0.51617 0.25331 0.0
H1827 H 0.07047 0.54928 0.23741 0.0
H1828 H 0.09682 0.46568 0.23859 0.0
H1829 H 0.00692 0.47089 0.24651 0.0
H1830 H 0.02211 0.48751 0.22726 0.0
H1831 H 0.01979 0.49572 0.25553 0.0
C1832 C 0.08597 0.51285 0.19807 0.0
C1833 C 0.08413 0.53294 0.20911 0.0
C1834 C 0.07709 0.49377 0.20727 0.0
C1835 C 0.06618 0.49461 0.22755 0.0
C1836 C 0.06257 0.51509 0.23743 0.0
H1837 H 0.04676 0.42703 0.3458 0.0
H1838 H 0.04864 0.45102 0.31395 0.0
C1839 C 0.07152 0.53408 0.2283 0.0
C1840 C 0.06266 0.47434 0.2406 0.0
H1841 H 0.02568 0.44911 0.27419 0.0
C1842 C 0.08113 0.46166 0.24593 0.0
C1843 C 0.04225 0.4692 0.25029 0.0
C1844 C 0.02161 0.48144 0.24441 0.0
C1845 C 0.0801 0.44504 0.26182 0.0
C1846 C 0.05993 0.4407 0.27239 0.0
C1847 C 0.04118 0.45254 0.26617 0.0
C1848 C 0.05842 0.42552 0.29136 0.0
C1849 C 0.10091 0.43326 0.26817 0.0
C1850 C 0.06329 0.40312 0.28928 0.0
C1851 C 0.06242 0.38928 0.3076 0.0
C1852 C 0.05648 0.39757 0.32831 0.0
C1853 C 0.05146 0.42001 0.33019 0.0
C1854 C 0.05241 0.43378 0.31194 0.0
H1855 H 0.11574 0.44143 0.26145 0.0
H1856 H 0.10251 0.43233 0.28628 0.0
H1857 H 0.1004 0.41628 0.2617 0.0
H1858 H 0.06766 0.39633 0.27348 0.0
H1859 H 0.06617 0.37206 0.30547 0.0
H1860 H 0.86212 0.76403 0.56492 0.0
H1861 H 0.83613 0.76488 0.53443 0.0
H1862 H 0.8314 0.83521 0.54074 0.0
H1863 H 0.85848 0.83444 0.57024 0.0
H1864 H 0.79647 0.77408 0.53658 0.0
H1865 H 0.83013 0.83213 0.47655 0.0
H1866 H 0.84656 0.8215 0.49873 0.0
H1867 H 0.82949 0.84535 0.50271 0.0
C1868 C 0.856 0.77972 0.55929 0.0
C1869 C 0.86235 0.79919 0.56983 0.0
C1870 C 0.84109 0.7802 0.5419 0.0
C1871 C 0.83183 0.80012 0.53497 0.0
C1872 C 0.83874 0.81967 0.54513 0.0
H1873 H 0.70349 0.83082 0.50683 0.0
H1874 H 0.73697 0.81346 0.5193 0.0
C1875 C 0.85414 0.81924 0.56215 0.0
C1876 C 0.81303 0.8002 0.51933 0.0
H1877 H 0.78998 0.82978 0.47781 0.0
C1878 C 0.79537 0.78594 0.52338 0.0
C1879 C 0.81153 0.8151 0.50158 0.0
C1880 C 0.8306 0.82915 0.49452 0.0
C1881 C 0.77576 0.78742 0.51146 0.0
C1882 C 0.77332 0.80418 0.49563 0.0
C1883 C 0.79157 0.81718 0.49025 0.0
C1884 C 0.75144 0.81065 0.48699 0.0
C1885 C 0.75768 0.77128 0.51642 0.0
C1886 C 0.74806 0.81471 0.46453 0.0
C1887 C 0.72876 0.82496 0.45732 0.0
C1888 C 0.71274 0.83151 0.47253 0.0
C1889 C 0.71551 0.82593 0.4947 0.0
C1890 C 0.73467 0.81581 0.50186 0.0
H1891 H 0.7646 0.755 0.52073 0.0
H1892 H 0.74821 0.77711 0.53081 0.0
H1893 H 0.74634 0.76926 0.50232 0.0
H1894 H 0.7608 0.81098 0.45275 0.0
H1895 H 0.7272 0.82929 0.44017 0.0
H1896 H 0.42662 0.44959 0.74977 0.0
H1897 H 0.44253 0.48427 0.76168 0.0
H1898 H 0.42737 0.51298 0.69889 0.0
H1899 H 0.41127 0.47808 0.68687 0.0
H1900 H 0.47332 0.5175 0.74712 0.0
H1901 H 0.38573 0.54361 0.74326 0.0
H1902 H 0.39355 0.51526 0.74041 0.0
H1903 H 0.39856 0.5342 0.71846 0.0
C1904 C 0.42759 0.463 0.73815 0.0
C1905 C 0.4176 0.46126 0.71749 0.0
C1906 C 0.43663 0.48283 0.74498 0.0
C1907 C 0.43565 0.5013 0.73134 0.0
C1908 C 0.42801 0.49895 0.70974 0.0
H1909 H 0.43144 0.62707 0.80261 0.0
H1910 H 0.43282 0.60261 0.7707 0.0
C1911 C 0.41906 0.47895 0.7028 0.0
C1912 C 0.43898 0.52318 0.74135 0.0
H1913 H 0.40953 0.56496 0.76411 0.0
C1914 C 0.45952 0.52822 0.75037 0.0
C1915 C 0.42094 0.53718 0.74555 0.0
C1916 C 0.39839 0.53238 0.73655 0.0
C1917 C 0.46218 0.54614 0.76456 0.0
C1918 C 0.44372 0.55899 0.77024 0.0
C1919 C 0.42362 0.55501 0.75983 0.0
C1920 C 0.44411 0.57442 0.78902 0.0
C1921 C 0.4846 0.55066 0.77396 0.0
C1922 C 0.44949 0.56657 0.80994 0.0
C1923 C 0.4486 0.58036 0.82812 0.0
C1924 C 0.44211 0.60238 0.82591 0.0
C1925 C 0.4365 0.61022 0.80493 0.0
C1926 C 0.43738 0.59631 0.78666 0.0
H1927 H 0.49769 0.54533 0.76249 0.0
H1928 H 0.48685 0.56834 0.77764 0.0
H1929 H 0.48661 0.54123 0.78939 0.0
H1930 H 0.45402 0.54957 0.8123 0.0
H1931 H 0.45296 0.57363 0.84397 0.0
H1932 H 0.63186 0.16749 0.06108 0.0
H1933 H 0.65742 0.16782 0.02998 0.0
H1934 H 0.6838 0.2295 0.05207 0.0
H1935 H 0.65858 0.22934 0.08307 0.0
H1936 H 0.67026 0.20367 0.9951 0.0
H1937 H 0.73378 0.18067 0.05654 0.0
H1938 H 0.70487 0.17699 0.0616 0.0
H1939 H 0.71677 0.20385 0.06298 0.0
C1940 C 0.64275 0.18136 0.05903 0.0
C1941 C 0.64344 0.19819 0.07478 0.0
C1942 C 0.65729 0.18155 0.04123 0.0
C1943 C 0.67256 0.19861 0.0389 0.0
C1944 C 0.67219 0.21615 0.05368 0.0
H1945 H 0.79899 0.19067 0.97642 0.0
H1946 H 0.76675 0.20899 0.99177 0.0
C1947 C 0.65782 0.21594 0.07146 0.0
C1948 C 0.69076 0.19676 0.02297 0.0
H1949 H 0.74533 0.18533 0.02033 0.0
C1950 C 0.68674 0.19978 0.00052 0.0
C1951 C 0.7122 0.19183 0.03018 0.0
C1952 C 0.71729 0.18799 0.0541 0.0
C1953 C 0.70374 0.19787 0.98502 0.0
C1954 C 0.72513 0.19242 0.99221 0.0
C1955 C 0.72906 0.18982 0.01475 0.0
C1956 C 0.74331 0.18681 0.97697 0.0
C1957 C 0.69862 0.2018 0.96117 0.0
C1958 C 0.74081 0.16924 0.96231 0.0
C1959 C 0.75921 0.15915 0.95316 0.0
C1960 C 0.78036 0.16632 0.95869 0.0
C1961 C 0.78282 0.18523 0.97149 0.0
C1962 C 0.76439 0.19552 0.98045 0.0
H1963 H 0.68479 0.21349 0.95927 0.0
H1964 H 0.71306 0.2083 0.9522 0.0
H1965 H 0.69363 0.18609 0.95348 0.0
H1966 H 0.7249 0.16182 0.95972 0.0
H1967 H 0.757 0.1442 0.94383 0.0
H1968 H 0.5567 0.95598 0.78505 0.0
H1969 H 0.53707 0.98724 0.76869 0.0
H1970 H 0.59507 0.02713 0.77553 0.0
H1971 H 0.61436 0.99633 0.79204 0.0
H1972 H 0.55682 0.05154 0.7799 0.0
H1973 H 0.55568 0.99869 0.70537 0.0
H1974 H 0.54125 0.98852 0.72893 0.0
H1975 H 0.57058 0.99111 0.72972 0.0
C1976 C 0.56484 0.97172 0.78389 0.0
C1977 C 0.58702 0.97381 0.78961 0.0
C1978 C 0.55374 0.98948 0.77434 0.0
C1979 C 0.56481 0.00935 0.7704 0.0
C1980 C 0.58621 0.01197 0.77829 0.0
H1981 H 0.57714 0.11891 0.68592 0.0
H1982 H 0.57688 0.09384 0.71724 0.0
C1983 C 0.59723 0.99435 0.78773 0.0
C1984 C 0.55593 0.02625 0.7553 0.0
H1985 H 0.54668 0.03547 0.70088 0.0
C1986 C 0.55416 0.04799 0.76268 0.0
C1987 C 0.55269 0.02164 0.73277 0.0
C1988 C 0.55527 0.9988 0.72358 0.0
C1989 C 0.54994 0.06531 0.74805 0.0
C1990 C 0.54772 0.06076 0.72543 0.0
C1991 C 0.5484 0.03893 0.71824 0.0
C1992 C 0.54618 0.07827 0.70856 0.0
C1993 C 0.54822 0.08831 0.75691 0.0
C1994 C 0.52903 0.07793 0.69326 0.0
C1995 C 0.52928 0.09202 0.67523 0.0
C1996 C 0.54675 0.10678 0.67202 0.0
C1997 C 0.56341 0.10784 0.68792 0.0
C1998 C 0.5632 0.09359 0.70595 0.0
H1999 H 0.54321 0.0883 0.77442 0.0
H2000 H 0.56449 0.09637 0.75578 0.0
H2001 H 0.53627 0.09818 0.74737 0.0
H2002 H 0.51578 0.06622 0.69489 0.0
H2003 H 0.51605 0.09087 0.66345 0.0
H2004 H 0.26451 0.34002 0.0624 0.0
H2005 H 0.22954 0.32498 0.04925 0.0
H2006 H 0.26166 0.30211 0.99057 0.0
H2007 H 0.29629 0.31715 0.00361 0.0
H2008 H 0.21327 0.34327 0.01151 0.0
H2009 H 0.21727 0.25363 0.00084 0.0
H2010 H 0.23526 0.26824 0.01931 0.0
H2011 H 0.24153 0.26659 0.99049 0.0
C2012 C 0.26426 0.33066 0.04731 0.0
C2013 C 0.28305 0.32947 0.03408 0.0
C2014 C 0.24427 0.32226 0.03971 0.0
C2015 C 0.24298 0.31229 0.01897 0.0
C2016 C 0.26227 0.30927 0.00681 0.0
H2017 H 0.17221 0.29777 0.90421 0.0
H2018 H 0.1962 0.29784 0.93604 0.0
C2019 C 0.2821 0.31786 0.01426 0.0
C2020 C 0.22153 0.30915 0.00792 0.0
H2021 H 0.19417 0.27335 0.97479 0.0
C2022 C 0.20865 0.32783 0.004 0.0
C2023 C 0.21558 0.28905 0.99808 0.0
C2024 C 0.22805 0.2682 0.00259 0.0
C2025 C 0.19119 0.32739 0.989 0.0
C2026 C 0.18624 0.30762 0.97795 0.0
C2027 C 0.19809 0.28856 0.98313 0.0
C2028 C 0.17089 0.30701 0.95909 0.0
C2029 C 0.17931 0.34848 0.98385 0.0
C2030 C 0.14856 0.31211 0.96144 0.0
C2031 C 0.13469 0.31229 0.9431 0.0
C2032 C 0.1429 0.30719 0.92214 0.0
C2033 C 0.16524 0.30184 0.92002 0.0
C2034 C 0.17902 0.30175 0.93826 0.0
H2035 H 0.18756 0.36298 0.99115 0.0
H2036 H 0.17813 0.35093 0.96585 0.0
H2037 H 0.16242 0.34763 0.99052 0.0
H2038 H 0.14186 0.31591 0.97742 0.0
H2039 H 0.11755 0.31627 0.94539 0.0
H2040 H 0.92331 0.05179 0.24673 0.0
H2041 H 0.93982 0.01831 0.23236 0.0
H2042 H 0.92879 0.98607 0.29427 0.0
H2043 H 0.91225 0.01976 0.30886 0.0
H2044 H 0.97407 0.98629 0.24665 0.0
H2045 H 0.88818 0.95489 0.2477 0.0
H2046 H 0.89422 0.98366 0.25086 0.0
H2047 H 0.8998 0.96498 0.27286 0.0
C2048 C 0.92516 0.03783 0.25756 0.0
C2049 C 0.91642 0.03832 0.27886 0.0
C2050 C 0.93457 0.0187 0.24932 0.0
C2051 C 0.93519 -0.00035 0.26214 0.0
C2052 C 0.92831 0.0006 0.28409 0.0
H2053 H 0.93875 0.87368 0.19177 0.0
H2054 H 0.93827 0.89906 0.22293 0.0
C2055 C 0.91906 0.0199 0.29246 0.0
C2056 C 0.93999 0.97847 0.25126 0.0
H2057 H 0.91388 0.93507 0.22747 0.0
C2058 C 0.96105 0.9748 0.24283 0.0
C2059 C 0.92298 0.96348 0.24635 0.0
C2060 C 0.89996 0.96684 0.25477 0.0
C2061 C 0.96532 0.95703 0.22882 0.0
C2062 C 0.94791 0.94298 0.22259 0.0
C2063 C 0.9272 0.94587 0.23215 0.0
C2064 C 0.95007 0.92691 0.20439 0.0
C2065 C 0.98837 0.95378 0.2205 0.0
C2066 C 0.95665 0.93414 0.18357 0.0
C2067 C 0.95698 0.91974 0.16581 0.0
C2068 C 0.95043 0.89776 0.16831 0.0
C2069 C 0.9439 0.89048 0.18922 0.0
C2070 C 0.94367 0.90495 0.20707 0.0
H2071 H 0.00059 0.95985 0.23256 0.0
H2072 H 0.9918 0.93626 0.21699 0.0
H2073 H 0.99059 0.96332 0.20517 0.0
H2074 H 0.96097 0.95114 0.18086 0.0
H2075 H 0.96198 0.92606 0.14999 0.0
H2076 H 0.19838 0.66611 0.49873 0.0
H2077 H 0.2321 0.68224 0.48436 0.0
H2078 H 0.26141 0.67854 0.54857 0.0
H2079 H 0.22734 0.66255 0.56314 0.0
H2080 H 0.26278 0.71914 0.49759 0.0
H2081 H 0.29541 0.6342 0.5068 0.0
H2082 H 0.26636 0.63969 0.50776 0.0
H2083 H 0.28355 0.64767 0.53023 0.0
C2084 C 0.21167 0.66967 0.50997 0.0
C2085 C 0.2103 0.66327 0.53202 0.0
C2086 C 0.23095 0.67879 0.50175 0.0
C2087 C 0.24929 0.68131 0.51535 0.0
C2088 C 0.2474 0.67665 0.53783 0.0
H2089 H 0.37646 0.6831 0.44627 0.0
H2090 H 0.35093 0.68327 0.4774 0.0
C2091 C 0.22791 0.66775 0.54617 0.0
C2092 C 0.27082 0.68563 0.50502 0.0
H2093 H 0.31491 0.6582 0.48419 0.0
C2094 C 0.27449 0.70601 0.49508 0.0
C2095 C 0.28611 0.66848 0.50186 0.0
C2096 C 0.2828 0.6462 0.51211 0.0
C2097 C 0.29246 0.70934 0.48108 0.0
C2098 C 0.3067 0.69161 0.47643 0.0
C2099 C 0.30391 0.67173 0.48764 0.0
C2100 C 0.32265 0.69243 0.45805 0.0
C2101 C 0.29563 0.73166 0.47093 0.0
C2102 C 0.31514 0.69697 0.43681 0.0
C2103 C 0.32956 0.69684 0.41909 0.0
C2104 C 0.35189 0.69191 0.42208 0.0
C2105 C 0.35938 0.68698 0.44335 0.0
C2106 C 0.34485 0.68717 0.46118 0.0
H2107 H 0.28927 0.74476 0.48186 0.0
H2108 H 0.31317 0.73497 0.4674 0.0
H2109 H 0.28631 0.73251 0.45533 0.0
H2110 H 0.29796 0.70031 0.43383 0.0
H2111 H 0.32307 0.70054 0.40299 0.0
H2112 H 0.21046 0.06199 0.54614 0.0
H2113 H 0.22711 0.04203 0.51522 0.0
H2114 H 0.21851 0.09884 0.474 0.0
H2115 H 0.20167 0.1184 0.5044 0.0
H2116 H 0.21445 0.06045 0.45056 0.0
H2117 H 0.28985 0.06094 0.50213 0.0
H2118 H 0.26674 0.04635 0.51306 0.0
H2119 H 0.26544 0.07561 0.50991 0.0
C2120 C 0.21137 0.06978 0.53021 0.0
C2121 C 0.20502 0.09173 0.52761 0.0
C2122 C 0.22109 0.05851 0.51265 0.0
C2123 C 0.22456 0.06918 0.49246 0.0
C2124 C 0.21614 0.09031 0.4894 0.0
H2125 H 0.30865 0.07587 0.38071 0.0
H2126 H 0.27794 0.07848 0.40653 0.0
C2127 C 0.20654 0.10149 0.5068 0.0
C2128 C 0.23946 0.06012 0.47548 0.0
H2129 H 0.29367 0.05039 0.46562 0.0
C2130 C 0.23172 0.05787 0.45389 0.0
C2131 C 0.26206 0.05705 0.4798 0.0
C2132 C 0.27166 0.06024 0.5024 0.0
C2133 C 0.24604 0.05314 0.43646 0.0
C2134 C 0.2687 0.05085 0.44072 0.0
C2135 C 0.27628 0.0522 0.4624 0.0
C2136 C 0.28517 0.04791 0.42306 0.0
C2137 C 0.23686 0.05088 0.41363 0.0
C2138 C 0.29936 0.02988 0.42372 0.0
C2139 C 0.31696 0.02848 0.40921 0.0
C2140 C 0.32088 0.04514 0.3937 0.0
C2141 C 0.30608 0.06275 0.39239 0.0
C2142 C 0.28844 0.06419 0.40706 0.0
H2143 H 0.2191 0.04686 0.41394 0.0
H2144 H 0.23889 0.06666 0.4048 0.0
H2145 H 0.24565 0.03798 0.40428 0.0
H2146 H 0.29719 0.01717 0.43593 0.0
H2147 H 0.32784 0.01452 0.41055 0.0
H2148 H 0.15678 0.93689 0.76459 0.0
H2149 H 0.17191 0.94807 0.72898 0.0
H2150 H 0.19817 0.00661 0.75861 0.0
H2151 H 0.18261 0.99577 0.79391 0.0
H2152 H 0.15497 0.99038 0.7138 0.0
H2153 H 0.2457 0.98757 0.71242 0.0
H2154 H 0.22931 0.96967 0.72948 0.0
H2155 H 0.23418 0.99755 0.73763 0.0
C2156 C 0.16679 0.95153 0.76368 0.0
C2157 C 0.16881 0.96539 0.78195 0.0
C2158 C 0.17527 0.95798 0.74333 0.0
C2159 C 0.18628 0.97809 0.7412 0.0
C2160 C 0.19009 0.99085 0.75996 0.0
H2161 H 0.21678 0.08639 0.66595 0.0
H2162 H 0.21504 0.05448 0.68959 0.0
C2163 C 0.18126 0.98464 0.78013 0.0
C2164 C 0.18969 0.98812 0.71935 0.0
H2165 H 0.22854 0.0134 0.68813 0.0
C2166 C 0.17105 0.99496 0.70776 0.0
C2167 C 0.21066 0.99415 0.71173 0.0
C2168 C 0.23116 0.98671 0.72334 0.0
C2169 C 0.17271 0.00928 0.68981 0.0
C2170 C 0.19372 0.01633 0.6828 0.0
C2171 C 0.21244 0.00808 0.69347 0.0
C2172 C 0.19648 0.03457 0.66682 0.0
C2173 C 0.15186 0.0181 0.6798 0.0
C2174 C 0.18709 0.03397 0.64577 0.0
C2175 C 0.18766 0.05255 0.63222 0.0
C2176 C 0.19809 0.07186 0.63931 0.0
C2177 C 0.20854 0.07188 0.65988 0.0
C2178 C 0.20764 0.05353 0.67347 0.0
H2179 H 0.13726 0.01452 0.69009 0.0
H2180 H 0.15291 0.03611 0.67744 0.0
H2181 H 0.14923 0.01036 0.66357 0.0
H2182 H 0.17891 0.01932 0.63999 0.0
H2183 H 0.1797 0.05188 0.61637 0.0
H2184 H 0.19132 0.91835 0.88043 0.0
H2185 H 0.22203 0.91562 0.90643 0.0
H2186 H 0.20855 0.981 0.92946 0.0
H2187 H 0.17802 0.98386 0.90387 0.0
H2188 H 0.26113 0.94542 0.91662 0.0
H2189 H 0.1989 0.93852 0.98301 0.0
H2190 H 0.19223 0.93401 0.95455 0.0
H2191 H 0.19601 0.96138 0.96465 0.0
C2192 C 0.1952 0.93228 0.89073 0.0
C2193 C 0.18199 0.95115 0.89036 0.0
C2194 C 0.21273 0.93071 0.90554 0.0
C2195 C 0.2173 0.94802 0.92003 0.0
C2196 C 0.2051 0.96739 0.9186 0.0
H2197 H 0.28562 0.93883 0.04512 0.0
H2198 H 0.27014 0.95709 0.01267 0.0
C2199 C 0.18761 0.96893 0.90398 0.0
C2200 C 0.2332 0.94516 0.93815 0.0
H2201 H 0.23579 0.93822 0.99356 0.0
C2202 C 0.25568 0.94395 0.93347 0.0
C2203 C 0.22601 0.94351 0.96012 0.0
C2204 C 0.20198 0.94426 0.96601 0.0
C2205 C 0.27118 0.94082 0.95027 0.0
C2206 C 0.2639 0.93842 0.97219 0.0
C2207 C 0.24144 0.9403 0.97683 0.0
C2208 C 0.27853 0.93093 0.99017 0.0
C2209 C 0.29515 0.94007 0.94434 0.0
C2210 C 0.28923 0.91069 0.98815 0.0
C2211 C 0.2981 0.90044 0.00654 0.0
C2212 C 0.29643 0.91018 0.02732 0.0
C2213 C 0.28747 0.93125 0.02917 0.0
C2214 C 0.27849 0.94155 0.01068 0.0
H2215 H 0.29858 0.9503 0.92966 0.0
H2216 H 0.30564 0.94581 0.95807 0.0
H2217 H 0.29975 0.92295 0.9403 0.0
H2218 H 0.28903 0.90185 0.97276 0.0
H2219 H 0.30464 0.88402 0.00483 0.0
H2220 H 0.26618 0.93587 0.1352 0.0
H2221 H 0.26493 0.96739 0.15992 0.0
H2222 H 0.33521 0.96383 0.16758 0.0
H2223 H 0.33653 0.93338 0.1417 0.0
H2224 H 0.27224 0.9668 0.19969 0.0
H2225 H 0.33018 0.02767 0.16791 0.0
H2226 H 0.321 0.00499 0.15129 0.0
H2227 H 0.34436 0.00207 0.16928 0.0
C2228 C 0.28141 0.94237 0.14163 0.0
C2229 C 0.30147 0.93231 0.13651 0.0
C2230 C 0.2807 0.96035 0.15581 0.0
C2231 C 0.29998 0.96832 0.16559 0.0
C2232 C 0.32014 0.95867 0.15979 0.0
H2233 H 0.32859 0.99186 0.29293 0.0
H2234 H 0.31043 0.98169 0.25911 0.0
C2235 C 0.32091 0.94109 0.14509 0.0
C2236 C 0.29881 0.98428 0.18407 0.0
H2237 H 0.32759 0.02563 0.20837 0.0
C2238 C 0.28397 0.98007 0.20122 0.0
C2239 C 0.31345 0.00219 0.18611 0.0
C2240 C 0.32791 0.0096 0.16748 0.0
C2241 C 0.28491 0.99174 0.221 0.0
C2242 C 0.3017 0.00741 0.22415 0.0
C2243 C 0.31501 0.01324 0.20627 0.0
C2244 C 0.30828 0.0148 0.24643 0.0
C2245 C 0.26836 0.98649 0.2386 0.0
C2246 C 0.31297 0.03694 0.25097 0.0
C2247 C 0.32363 0.04282 0.27052 0.0
C2248 C 0.32993 0.02655 0.28556 0.0
C2249 C 0.32377 0.00473 0.28168 0.0
C2250 C 0.31321 0.99891 0.26232 0.0
H2251 H 0.25213 0.98282 0.23121 0.0
H2252 H 0.27367 0.97161 0.24762 0.0
H2253 H 0.26645 0.00019 0.25042 0.0
H2254 H 0.30949 0.04948 0.2389 0.0
H2255 H 0.32852 0.05971 0.27299 0.0
H2256 H 0.6874 0.41062 0.48198 0.0
H2257 H 0.70022 0.42811 0.51591 0.0
H2258 H 0.75817 0.4506 0.48219 0.0
H2259 H 0.74543 0.43315 0.44859 0.0
H2260 H 0.73823 0.41146 0.53264 0.0
H2261 H 0.74746 0.50096 0.52429 0.0
H2262 H 0.72914 0.4852 0.50712 0.0
H2263 H 0.75788 0.48704 0.5006 0.0
C2264 C 0.70222 0.42041 0.4816 0.0
C2265 C 0.71534 0.42086 0.46273 0.0
C2266 C 0.70962 0.43023 0.501 0.0
C2267 C 0.73009 0.44082 0.50159 0.0
C2268 C 0.74211 0.44302 0.48209 0.0
H2269 H 0.84527 0.45914 0.57091 0.0
H2270 H 0.8131 0.45939 0.5473 0.0
C2271 C 0.73484 0.43304 0.46285 0.0
C2272 C 0.74122 0.4452 0.52276 0.0
H2273 H 0.77399 0.48276 0.54814 0.0
C2274 C 0.74552 0.42722 0.53647 0.0
C2275 C 0.7508 0.46572 0.52765 0.0
C2276 C 0.74589 0.48586 0.51422 0.0
C2277 C 0.76065 0.42868 0.55373 0.0
C2278 C 0.7714 0.44886 0.55769 0.0
C2279 C 0.76586 0.46726 0.545 0.0
C2280 C 0.7903 0.45042 0.57294 0.0
C2281 C 0.76626 0.40818 0.56643 0.0
C2282 C 0.78815 0.44563 0.59535 0.0
C2283 C 0.80665 0.44522 0.60895 0.0
C2284 C 0.82759 0.44983 0.60041 0.0
C2285 C 0.82947 0.4554 0.5781 0.0
C2286 C 0.81105 0.45566 0.56455 0.0
H2287 H 0.7594 0.3932 0.55867 0.0
H2288 H 0.78429 0.40622 0.56783 0.0
H2289 H 0.7594 0.40944 0.58322 0.0
H2290 H 0.77223 0.44193 0.60226 0.0
H2291 H 0.80454 0.44112 0.62609 0.0
H2292 H 0.84533 0.51219 0.6997 0.0
H2293 H 0.82695 0.52632 0.73193 0.0
H2294 H 0.80744 0.46077 0.75 0.0
H2295 H 0.82687 0.44624 0.71782 0.0
H2296 H 0.78723 0.52665 0.74865 0.0
H2297 H 0.8424 0.47847 0.80312 0.0
H2298 H 0.84642 0.47974 0.77388 0.0
H2299 H 0.82495 0.463 0.78515 0.0
C2300 C 0.83688 0.50072 0.71031 0.0
C2301 C 0.83794 0.47804 0.70643 0.0
C2302 C 0.82628 0.50886 0.72876 0.0
C2303 C 0.81631 0.49459 0.74377 0.0
C2304 C 0.81557 0.47205 0.73898 0.0
H2305 H 0.76277 0.57379 0.85184 0.0
H2306 H 0.76387 0.54467 0.82426 0.0
C2307 C 0.8264 0.46379 0.72043 0.0
C2308 C 0.80846 0.50373 0.76494 0.0
H2309 H 0.82084 0.50548 0.81955 0.0
C2310 C 0.79428 0.52182 0.76425 0.0
C2311 C 0.81785 0.4975 0.78524 0.0
C2312 C 0.83387 0.47873 0.78703 0.0
C2313 C 0.79051 0.53484 0.78282 0.0
C2314 C 0.80034 0.52895 0.80305 0.0
C2315 C 0.81333 0.50997 0.80407 0.0
C2316 C 0.7993 0.5435 0.82258 0.0
C2317 C 0.7774 0.55566 0.78003 0.0
C2318 C 0.8188 0.55125 0.83219 0.0
C2319 C 0.81816 0.56728 0.84857 0.0
C2320 C 0.79803 0.57608 0.8553 0.0
C2321 C 0.77851 0.56743 0.84665 0.0
C2322 C 0.77914 0.55096 0.83076 0.0
H2323 H 0.77588 0.56046 0.76253 0.0
H2324 H 0.76061 0.5531 0.78651 0.0
H2325 H 0.78505 0.56948 0.78907 0.0
H2326 H 0.83458 0.54567 0.82628 0.0
H2327 H 0.83341 0.57375 0.85497 0.0
H2328 H 0.69241 0.56329 0.12683 0.0
H2329 H 0.72451 0.5635 0.10267 0.0
H2330 H 0.68431 0.54114 0.04899 0.0
H2331 H 0.65247 0.54024 0.07299 0.0
H2332 H 0.72376 0.52023 0.04971 0.0
H2333 H 0.73555 0.61042 0.05743 0.0
H2334 H 0.73681 0.5952 0.08258 0.0
H2335 H 0.71144 0.59677 0.06769 0.0
C2336 C 0.69043 0.55839 0.10988 0.0
C2337 C 0.66978 0.55194 0.10183 0.0
C2338 C 0.70879 0.55857 0.09608 0.0
C2339 C 0.70677 0.55265 0.07392 0.0
C2340 C 0.6863 0.54576 0.06602 0.0
H2341 H 0.75326 0.56934 0.94925 0.0
H2342 H 0.7397 0.55219 0.98272 0.0
C2343 C 0.66805 0.54535 0.0798 0.0
C2344 C 0.72549 0.55442 0.05844 0.0
H2345 H 0.75798 0.59192 0.03259 0.0
C2346 C 0.73151 0.53585 0.0462 0.0
C2347 C 0.73571 0.57476 0.05392 0.0
C2348 C 0.7295 0.59549 0.06593 0.0
C2349 C 0.7466 0.53732 0.02886 0.0
C2350 C 0.75584 0.55788 0.02359 0.0
C2351 C 0.75097 0.57612 0.03675 0.0
C2352 C 0.76744 0.56191 0.0026 0.0
C2353 C 0.75196 0.51701 0.01586 0.0
C2354 C 0.78804 0.57224 0.00236 0.0
C2355 C 0.79597 0.5818 0.98303 0.0
C2356 C 0.7832 0.5814 0.96389 0.0
C2357 C 0.76359 0.5694 0.9637 0.0
C2358 C 0.75582 0.55963 0.98287 0.0
H2359 H 0.74999 0.50201 0.02599 0.0
H2360 H 0.74053 0.51575 0.00177 0.0
H2361 H 0.76897 0.51761 0.0094 0.0
H2362 H 0.79714 0.5744 0.01745 0.0
H2363 H 0.81086 0.59146 0.98367 0.0
H2364 H 0.73472 0.43749 0.3562 0.0
H2365 H 0.73308 0.46873 0.33117 0.0
H2366 H 0.66285 0.46108 0.32664 0.0
H2367 H 0.66442 0.43076 0.35285 0.0
H2368 H 0.72367 0.46747 0.29155 0.0
H2369 H 0.66473 0.52537 0.32723 0.0
H2370 H 0.6759 0.50296 0.34297 0.0
H2371 H 0.65203 0.49897 0.32591 0.0
C2372 C 0.71888 0.44297 0.35032 0.0
C2373 C 0.69967 0.43184 0.35645 0.0
C2374 C 0.71794 0.46079 0.33598 0.0
C2375 C 0.69782 0.46756 0.32706 0.0
C2376 C 0.67852 0.45679 0.33375 0.0
H2377 H 0.66434 0.4974 0.20059 0.0
H2378 H 0.68293 0.48494 0.23344 0.0
C2379 C 0.6794 0.43931 0.34862 0.0
C2380 C 0.69735 0.48374 0.30873 0.0
H2381 H 0.66684 0.52529 0.28702 0.0
C2382 C 0.71157 0.48047 0.29089 0.0
C2383 C 0.68213 0.50124 0.30783 0.0
C2384 C 0.66806 0.50747 0.32717 0.0
C2385 C 0.70972 0.49287 0.27162 0.0
C2386 C 0.69264 0.50841 0.26973 0.0
C2387 C 0.6797 0.51308 0.28821 0.0
C2388 C 0.68563 0.51718 0.24809 0.0
C2389 C 0.72572 0.48866 0.25325 0.0
C2390 C 0.68116 0.53961 0.24501 0.0
C2391 C 0.6703 0.54681 0.22603 0.0
C2392 C 0.66357 0.53159 0.21011 0.0
C2393 C 0.66949 0.5095 0.21255 0.0
C2394 C 0.68027 0.50236 0.23134 0.0
H2395 H 0.74216 0.48451 0.2599 0.0
H2396 H 0.72005 0.47439 0.2435 0.0
H2397 H 0.72734 0.50306 0.24224 0.0
H2398 H 0.685 0.55133 0.25777 0.0
H2399 H 0.66561 0.56388 0.22469 0.0
H2400 H 0.54252 0.25058 0.10062 0.0
H2401 H 0.50978 0.26386 0.08235 0.0
H2402 H 0.49373 0.19789 0.06248 0.0
H2403 H 0.52674 0.1843 0.08148 0.0
H2404 H 0.49377 0.26259 0.04108 0.0
H2405 H 0.43997 0.21583 0.0982 0.0
H2406 H 0.46912 0.21817 0.10255 0.0
H2407 H 0.45873 0.20042 0.08151 0.0
C2408 C 0.53225 0.23889 0.09204 0.0
C2409 C 0.53702 0.21639 0.09266 0.0
C2410 C 0.51352 0.24651 0.08156 0.0
C2411 C 0.49903 0.23185 0.07143 0.0
C2412 C 0.50448 0.20945 0.0706 0.0
H2413 H 0.39108 0.30978 0.0167 0.0
H2414 H 0.41723 0.27942 0.01864 0.0
C2415 C 0.52344 0.20173 0.08117 0.0
C2416 C 0.47776 0.2405 0.06337 0.0
H2417 H 0.42346 0.24308 0.07689 0.0
C2418 C 0.47827 0.25805 0.04852 0.0
C2419 C 0.45763 0.23466 0.07333 0.0
C2420 C 0.45617 0.21634 0.08989 0.0
C2421 C 0.45967 0.27098 0.04459 0.0
C2422 C 0.43965 0.26561 0.05511 0.0
C2423 C 0.43878 0.24714 0.06883 0.0
C2424 C 0.42029 0.28038 0.05398 0.0
C2425 C 0.46224 0.29124 0.03057 0.0
C2426 C 0.41183 0.28971 0.0733 0.0
C2427 C 0.39628 0.30655 0.07225 0.0
C2428 C 0.38925 0.31447 0.05185 0.0
C2429 C 0.39648 0.30405 0.03263 0.0
C2430 C 0.41155 0.28686 0.03371 0.0
H2431 H 0.47973 0.29571 0.02814 0.0
H2432 H 0.45501 0.28817 0.01417 0.0
H2433 H 0.45373 0.30547 0.03804 0.0
H2434 H 0.4182 0.28489 0.08916 0.0
H2435 H 0.391 0.3144 0.08727 0.0
H2436 H 0.0458 0.25224 0.92722 0.0
H2437 H 0.01075 0.23972 0.94205 0.0
H2438 H 0.98054 0.30043 0.92231 0.0
H2439 H 0.01581 0.31326 0.9077 0.0
H2440 H 0.97274 0.2623 0.97147 0.0
H2441 H 0.95675 0.24469 0.88314 0.0
H2442 H 0.98444 0.24715 0.89326 0.0
H2443 H 0.96741 0.27099 0.89141 0.0
C2444 C 0.03193 0.26331 0.92694 0.0
C2445 C 0.03348 0.28369 0.91633 0.0
C2446 C 0.01192 0.25613 0.93536 0.0
C2447 C 0.9931 0.26909 0.93306 0.0
C2448 C 0.99496 0.29027 0.92427 0.0
H2449 H 0.87007 0.19391 0.92867 0.0
H2450 H 0.89418 0.22601 0.92588 0.0
C2451 C 0.01513 0.29762 0.91609 0.0
C2452 C 0.97144 0.25875 0.93642 0.0
H2453 H 0.93379 0.22793 0.90887 0.0
C2454 C 0.96388 0.25518 0.95781 0.0
C2455 C 0.95985 0.24968 0.91852 0.0
C2456 C 0.96739 0.2532 0.89522 0.0
C2457 C 0.94556 0.24179 0.96181 0.0
C2458 C 0.9351 0.23113 0.944 0.0
C2459 C 0.94182 0.23597 0.92254 0.0
C2460 C 0.91926 0.21289 0.94728 0.0
C2461 C 0.93793 0.23886 0.98514 0.0
C2462 C 0.9254 0.19477 0.96001 0.0
C2463 C 0.91171 0.17655 0.96169 0.0
C2464 C 0.89162 0.17576 0.95036 0.0
C2465 C 0.88541 0.19394 0.9376 0.0
C2466 C 0.89914 0.21233 0.93605 0.0
H2467 H 0.94112 0.25388 0.99494 0.0
H2468 H 0.92016 0.23499 0.98597 0.0
H2469 H 0.94723 0.22526 0.99284 0.0
H2470 H 0.94115 0.19437 0.96818 0.0
H2471 H 0.91722 0.16285 0.97155 0.0
H2472 H 0.94356 0.77602 0.16688 0.0
H2473 H 0.95656 0.74301 0.18599 0.0
H2474 H 0.02335 0.76474 0.17756 0.0
H2475 H 0.01054 0.79762 0.1593 0.0
H2476 H 0.98005 0.71201 0.16721 0.0
H2477 H 0.0275 0.74104 0.23786 0.0
H2478 H 0.00847 0.75865 0.22362 0.0
H2479 H 0.03639 0.75592 0.2142 0.0
C2480 C 0.96093 0.77413 0.16998 0.0
C2481 C 0.97604 0.78938 0.16157 0.0
C2482 C 0.96837 0.75519 0.18072 0.0
C2483 C 0.99096 0.75141 0.18342 0.0
C2484 C 0.00585 0.76741 0.17625 0.0
H2485 H 0.07142 0.64229 0.16164 0.0
H2486 H 0.0421 0.66954 0.16089 0.0
C2487 C 0.99849 0.7862 0.16561 0.0
C2488 C -0.00051 0.7298 0.19078 0.0
H2489 H 0.04162 0.70774 0.22002 0.0
C2490 C 0.99312 0.71093 0.17921 0.0
C2491 C 0.01615 0.72808 0.2068 0.0
C2492 C 0.02229 0.74702 0.22147 0.0
C2493 C 0.00425 0.69094 0.18187 0.0
C2494 C 0.02274 0.69 0.19589 0.0
C2495 C 0.02782 0.70838 0.20884 0.0
C2496 C 0.03814 0.67103 0.1962 0.0
C2497 C 0.99621 0.67121 0.16934 0.0
C2498 C 0.04599 0.66277 0.21622 0.0
C2499 C 0.06326 0.64775 0.21663 0.0
C2500 C 0.07277 0.64031 0.19703 0.0
C2501 C 0.06413 0.6475 0.17697 0.0
C2502 C 0.04722 0.66299 0.17656 0.0
H2503 H 0.97812 0.67179 0.16728 0.0
H2504 H 0.00355 0.67127 0.1527 0.0
H2505 H 0.00061 0.65565 0.17768 0.0
H2506 H 0.03934 0.66863 0.23161 0.0
H2507 H 0.06962 0.64241 0.23234 0.0
H2508 H 0.4806 0.68894 0.41088 0.0
H2509 H 0.51481 0.70327 0.42653 0.0
H2510 H 0.48118 0.7624 0.44565 0.0
H2511 H 0.44725 0.74824 0.43002 0.0
H2512 H 0.53163 0.74105 0.40763 0.0
H2513 H 0.52314 0.75349 0.49686 0.0
H2514 H 0.50615 0.73448 0.48175 0.0
H2515 H 0.49961 0.76325 0.48219 0.0
C2516 C 0.48031 0.70448 0.41946 0.0
C2517 C 0.46129 0.71747 0.41936 0.0
C2518 C 0.49989 0.71275 0.42821 0.0
C2519 C 0.50057 0.73389 0.43735 0.0
C2520 C 0.48104 0.74591 0.43909 0.0
H2521 H 0.57515 0.84736 0.45522 0.0
H2522 H 0.54959 0.81675 0.45434 0.0
C2523 C 0.46161 0.7378 0.43013 0.0
C2524 C 0.52179 0.74517 0.44126 0.0
H2525 H 0.54806 0.77817 0.47803 0.0
C2526 C 0.5356 0.7487 0.42318 0.0
C2527 C 0.52686 0.75524 0.4615 0.0
C2528 C 0.51325 0.75124 0.48173 0.0
C2529 C 0.55334 0.76335 0.42432 0.0
C2530 C 0.55767 0.77441 0.44425 0.0
C2531 C 0.54468 0.7698 0.46271 0.0
C2532 C 0.57394 0.79251 0.44563 0.0
C2533 C 0.5663 0.76801 0.40376 0.0
C2534 C 0.59628 0.7891 0.4412 0.0
C2535 C 0.61104 0.80672 0.44148 0.0
C2536 C 0.60375 0.82806 0.44642 0.0
C2537 C 0.58143 0.83123 0.45129 0.0
C2538 C 0.56674 0.81369 0.4509 0.0
H2539 H 0.55819 0.76135 0.38888 0.0
H2540 H 0.56866 0.78592 0.40154 0.0
H2541 H 0.58271 0.7603 0.40514 0.0
H2542 H 0.60229 0.77283 0.43749 0.0
H2543 H 0.62813 0.80362 0.43786 0.0
H2544 H 0.56105 0.23366 0.65156 0.0
H2545 H 0.54539 0.26669 0.66854 0.0
H2546 H 0.48566 0.23128 0.68189 0.0
H2547 H 0.50113 0.19859 0.66472 0.0
H2548 H 0.50685 0.28386 0.64873 0.0
H2549 H 0.49365 0.26946 0.73727 0.0
H2550 H 0.51392 0.25468 0.72149 0.0
H2551 H 0.48557 0.24662 0.72056 0.0
C2552 C 0.54501 0.23274 0.65912 0.0
C2553 C 0.53235 0.21362 0.65724 0.0
C2554 C 0.53602 0.2516 0.66863 0.0
C2555 C 0.51444 0.25137 0.67666 0.0
C2556 C 0.50249 0.23172 0.67625 0.0
H2557 H 0.40014 0.32258 0.70027 0.0
H2558 H 0.43113 0.29768 0.69716 0.0
C2559 C 0.51132 0.21304 0.66648 0.0
C2560 C 0.50283 0.27208 0.68173 0.0
H2561 H 0.46951 0.29558 0.71993 0.0
C2562 C 0.49911 0.28682 0.66445 0.0
C2563 C 0.4927 0.27575 0.7022 0.0
C2564 C 0.49681 0.26089 0.72151 0.0
C2565 C 0.48416 0.30417 0.66657 0.0
C2566 C 0.47307 0.30716 0.68673 0.0
C2567 C 0.47792 0.29323 0.70444 0.0
C2568 C 0.45469 0.32293 0.68907 0.0
C2569 C 0.47923 0.31813 0.64674 0.0
C2570 C 0.45759 0.34551 0.6856 0.0
C2571 C 0.43973 0.35987 0.68707 0.0
C2572 C 0.41873 0.35191 0.69238 0.0
C2573 C 0.41604 0.32932 0.69616 0.0
C2574 C 0.43379 0.31503 0.69448 0.0
H2575 H 0.4858 0.31084 0.63141 0.0
H2576 H 0.46129 0.32047 0.64478 0.0
H2577 H 0.48687 0.3345 0.64887 0.0
H2578 H 0.47365 0.35204 0.68182 0.0
H2579 H 0.44243 0.3772 0.68433 0.0
H2580 H 0.95285 0.78603 0.55847 0.0
H2581 H 0.98359 0.76947 0.53839 0.0
H2582 H 0.02716 0.78626 0.59151 0.0
H2583 H 0.9968 0.80323 0.61108 0.0
H2584 H 0.0492 0.78396 0.55206 0.0
H2585 H 0.99686 0.71042 0.5662 0.0
H2586 H 0.98539 0.73105 0.54866 0.0
H2587 H 0.98997 0.73692 0.57718 0.0
C2588 C 0.96925 0.78728 0.56517 0.0
C2589 C 0.97257 0.79579 0.58626 0.0
C2590 C 0.98674 0.77755 0.55388 0.0
C2591 C 0.0075 0.776 0.56382 0.0
C2592 C 0.01129 0.7871 0.58357 0.0
H2593 H 0.11753 0.69115 0.57865 0.0
H2594 H 0.09275 0.72273 0.57738 0.0
C2595 C 0.99394 0.79688 0.59473 0.0
C2596 C 0.02393 0.75967 0.55639 0.0
H2597 H 0.03254 0.70443 0.55425 0.0
C2598 C 0.0455 0.76657 0.55214 0.0
C2599 C 0.01917 0.73694 0.5569 0.0
C2600 C 0.99668 0.72828 0.56264 0.0
C2601 C 0.06249 0.75134 0.54879 0.0
C2602 C 0.05776 0.72869 0.54994 0.0
C2603 C 0.03609 0.72183 0.55334 0.0
C2604 C 0.07496 0.71155 0.54877 0.0
C2605 C 0.08534 0.7596 0.54432 0.0
C2606 C 0.07322 0.69482 0.53315 0.0
C2607 C 0.08711 0.67669 0.534 0.0
C2608 C 0.10307 0.67482 0.55057 0.0
C2609 C 0.10545 0.69207 0.56568 0.0
C2610 C 0.09141 0.71023 0.56486 0.0
H2611 H 0.08516 0.7766 0.53781 0.0
H2612 H 0.09481 0.75964 0.55985 0.0
H2613 H 0.09397 0.74884 0.53245 0.0
H2614 H 0.0606 0.69545 0.52066 0.0
H2615 H 0.08494 0.66387 0.52191 0.0
H2616 H 0.4354 0.72973 0.84198 0.0
H2617 H 0.44834 0.76574 0.82961 0.0
H2618 H 0.5084 0.73634 0.80683 0.0
H2619 H 0.49575 0.70052 0.81942 0.0
H2620 H 0.51201 0.76795 0.84195 0.0
H2621 H 0.46396 0.79947 0.77101 0.0
H2622 H 0.44941 0.78664 0.79331 0.0
H2623 H 0.46704 0.77048 0.77629 0.0
C2624 C 0.4509 0.7308 0.83337 0.0
C2625 C 0.46465 0.71238 0.83174 0.0
C2626 C 0.4583 0.75141 0.82639 0.0
C2627 C 0.47937 0.75369 0.81742 0.0
C2628 C 0.4921 0.73491 0.81374 0.0
H2629 H 0.56632 0.84861 0.76908 0.0
H2630 H 0.53661 0.82254 0.77439 0.0
C2631 C 0.48483 0.71444 0.82086 0.0
C2632 C 0.48987 0.7755 0.81558 0.0
H2633 H 0.49166 0.82249 0.78523 0.0
C2634 C 0.50744 0.78 0.8297 0.0
C2635 C 0.48374 0.79112 0.79965 0.0
C2636 C 0.46507 0.78681 0.78406 0.0
C2637 C 0.5197 0.79932 0.82779 0.0
C2638 C 0.51392 0.81486 0.81156 0.0
C2639 C 0.49587 0.81068 0.79783 0.0
C2640 C 0.5283 0.83391 0.80691 0.0
C2641 C 0.53949 0.8023 0.84238 0.0
C2642 C 0.53281 0.84975 0.82302 0.0
C2643 C 0.55005 0.86466 0.82014 0.0
C2644 C 0.56296 0.86396 0.80104 0.0
C2645 C 0.557 0.84938 0.78417 0.0
C2646 C 0.53987 0.83452 0.78709 0.0
H2647 H 0.54392 0.78697 0.85116 0.0
H2648 H 0.55389 0.80774 0.83267 0.0
H2649 H 0.53593 0.81506 0.85482 0.0
H2650 H 0.52379 0.84978 0.83831 0.0
H2651 H 0.55405 0.87579 0.83338 0.0
H2652 H 0.94438 0.12229 0.31238 0.0
H2653 H 0.97532 0.14793 0.31205 0.0
H2654 H 0.93129 0.20099 0.29667 0.0
H2655 H 0.90047 0.17565 0.29657 0.0
H2656 H 0.96986 0.20176 0.27172 0.0
H2657 H 0.98749 0.19219 0.36084 0.0
H2658 H 0.98779 0.16763 0.3446 0.0
H2659 H 0.96251 0.18215 0.3486 0.0
C2660 C 0.94127 0.13942 0.30894 0.0
C2661 C 0.91985 0.14688 0.30468 0.0
C2662 C 0.95899 0.15405 0.30878 0.0
C2663 C 0.95558 0.17641 0.30454 0.0
C2664 C 0.93431 0.1838 0.29994 0.0
H2665 H 0.99818 0.30309 0.31818 0.0
H2666 H 0.9851 0.26879 0.30254 0.0
C2667 C 0.91667 0.16925 0.30001 0.0
C2668 C 0.97378 0.19254 0.30559 0.0
H2669 H 0.0071 0.21903 0.34185 0.0
C2670 C 0.9783 0.20532 0.28696 0.0
C2671 C 0.98493 0.19703 0.32542 0.0
C2672 C 0.98042 0.18418 0.34608 0.0
C2673 C 0.99281 0.22317 0.28794 0.0
C2674 C 0.00283 0.22854 0.30813 0.0
C2675 C -0.00053 0.21486 0.32635 0.0
C2676 C 0.0137 0.24999 0.3119 0.0
C2677 C 0.99673 0.23653 0.26753 0.0
C2678 C 0.03455 0.25113 0.32166 0.0
C2679 C 0.04215 0.27091 0.33053 0.0
C2680 C 0.02879 0.28966 0.3301 0.0
C2681 C 0.00886 0.28891 0.3186 0.0
C2682 C 0.00139 0.26927 0.30958 0.0
H2683 H 0.99502 0.22628 0.25258 0.0
H2684 H 0.9843 0.24977 0.26657 0.0
H2685 H 0.01327 0.24414 0.26761 0.0
H2686 H 0.04424 0.23641 0.32377 0.0
H2687 H 0.05743 0.27095 0.33958 0.0
H2688 H 0.09995 0.2982 0.42101 0.0
H2689 H 0.11412 0.27214 0.44786 0.0
H2690 H 0.05165 0.23918 0.44942 0.0
H2691 H 0.0372 0.26509 0.42247 0.0
H2692 H 0.09364 0.26535 0.4913 0.0
H2693 H 0.09891 0.18966 0.44041 0.0
H2694 H 0.09847 0.21672 0.42838 0.0
H2695 H 0.07384 0.2052 0.43952 0.0
C2696 C 0.08924 0.28527 0.42681 0.0
C2697 C 0.06741 0.28378 0.41957 0.0
C2698 C 0.09738 0.27045 0.4422 0.0
C2699 C 0.08392 0.25377 0.45048 0.0
C2700 C 0.0623 0.25185 0.443 0.0
H2701 H 0.12551 0.15276 0.54459 0.0
H2702 H 0.10169 0.17502 0.52105 0.0
C2703 C 0.05409 0.26673 0.42765 0.0
C2704 C 0.09237 0.23911 0.46774 0.0
H2705 H 0.11059 0.18711 0.47708 0.0
C2706 C 0.09719 0.24819 0.48829 0.0
C2707 C 0.09664 0.21672 0.46376 0.0
C2708 C 0.09184 0.20638 0.44182 0.0
C2709 C 0.10685 0.23556 0.50485 0.0
C2710 C 0.11218 0.21345 0.50052 0.0
C2711 C 0.10646 0.20409 0.4803 0.0
C2712 C 0.12577 0.20052 0.51581 0.0
C2713 C 0.11154 0.24609 0.52673 0.0
C2714 C 0.14714 0.2075 0.52051 0.0
C2715 C 0.16072 0.19492 0.53382 0.0
C2716 C 0.15328 0.17495 0.54265 0.0
C2717 C 0.13172 0.16809 0.53813 0.0
C2718 C 0.11811 0.18073 0.52468 0.0
H2719 H 0.10047 0.26021 0.52981 0.0
H2720 H 0.10974 0.23414 0.54033 0.0
H2721 H 0.12863 0.25232 0.52681 0.0
H2722 H 0.15349 0.22251 0.51346 0.0
H2723 H 0.1772 0.20075 0.53693 0.0
H2724 H 0.08499 0.89327 0.80064 0.0
H2725 H 0.05902 0.8744 0.77664 0.0
H2726 H 0.04041 0.93618 0.74781 0.0
H2727 H 0.06599 0.95525 0.77187 0.0
H2728 H 0.00481 0.91011 0.75867 0.0
H2729 H 0.06651 0.86325 0.71105 0.0
H2730 H 0.06854 0.85948 0.74017 0.0
H2731 H 0.07381 0.88602 0.72847 0.0
C2732 C 0.07546 0.90286 0.78915 0.0
C2733 C 0.07769 0.92578 0.78815 0.0
C2734 C 0.06069 0.89203 0.77537 0.0
C2735 C 0.04806 0.90389 0.76024 0.0
C2736 C 0.05009 0.92674 0.75933 0.0
H2737 H 0.95137 0.86513 0.66171 0.0
H2738 H 0.9753 0.88656 0.68584 0.0
C2739 C 0.06476 0.93759 0.7731 0.0
C2740 C 0.03246 0.89254 0.74555 0.0
H2741 H 0.02917 0.85364 0.70553 0.0
C2742 C 0.01011 0.89785 0.74695 0.0
C2743 C 0.0395 0.87668 0.7302 0.0
C2744 C 0.06341 0.87113 0.72717 0.0
C2745 C 0.9945 0.88723 0.7338 0.0
C2746 C 0.00153 0.8711 0.71876 0.0
C2747 C 0.02389 0.866 0.71716 0.0
C2748 C 0.98594 0.85868 0.705 0.0
C2749 C 0.97058 0.89288 0.73648 0.0
C2750 C 0.98407 0.83599 0.70782 0.0
C2751 C 0.97054 0.82373 0.69411 0.0
C2752 C 0.95866 0.8339 0.67714 0.0
C2753 C 0.96022 0.85678 0.67463 0.0
C2754 C 0.97382 0.86906 0.68843 0.0
H2755 H 0.9675 0.90246 0.75165 0.0
H2756 H 0.96516 0.90285 0.72227 0.0
H2757 H 0.96043 0.87778 0.73691 0.0
H2758 H 0.99332 0.8277 0.72053 0.0
H2759 H 0.96972 0.80618 0.69665 0.0
H2760 H 0.39007 0.69905 0.9178 0.0
H2761 H 0.37443 0.72531 0.94362 0.0
H2762 H 0.43602 0.7599 0.94625 0.0
H2763 H 0.45196 0.73365 0.92065 0.0
H2764 H 0.41851 0.75049 0.9874 0.0
H2765 H 0.35659 0.7891 0.93323 0.0
H2766 H 0.35497 0.75973 0.93374 0.0
H2767 H 0.37899 0.77285 0.92276 0.0
C2768 C 0.40025 0.71237 0.92364 0.0
C2769 C 0.42227 0.71423 0.91711 0.0
C2770 C 0.39125 0.72741 0.93834 0.0
C2771 C 0.40403 0.74466 0.9466 0.0
C2772 C 0.4259 0.74673 0.93996 0.0
H2773 H 0.36961 0.84498 0.04378 0.0
H2774 H 0.39053 0.8226 0.01777 0.0
C2775 C 0.43494 0.7317 0.9253 0.0
C2776 C 0.39481 0.7599 0.96297 0.0
H2777 H 0.35278 0.79563 0.97164 0.0
C2778 C 0.4043 0.76059 0.98393 0.0
C2779 C 0.37638 0.77309 0.95827 0.0
C2780 C 0.36625 0.77387 0.93572 0.0
C2781 C 0.3952 0.77346 0.00066 0.0
C2782 C 0.37632 0.78602 0.99613 0.0
C2783 C 0.36723 0.78584 0.97501 0.0
C2784 C 0.36486 0.79855 0.01332 0.0
C2785 C 0.40526 0.77294 0.02324 0.0
C2786 C 0.34368 0.79223 0.01948 0.0
C2787 C 0.33173 0.80488 0.03421 0.0
C2788 C 0.34068 0.82424 0.04299 0.0
C2789 C 0.36226 0.83014 0.03737 0.0
C2790 C 0.37425 0.8174 0.02255 0.0
H2791 H 0.41781 0.75985 0.02486 0.0
H2792 H 0.41321 0.78894 0.02665 0.0
H2793 H 0.3924 0.77033 0.03585 0.0
H2794 H 0.33623 0.77768 0.01252 0.0
H2795 H 0.31524 0.79971 0.03827 0.0
H2796 H 0.5544 0.17108 0.20641 0.0
H2797 H 0.52883 0.15017 0.229 0.0
H2798 H 0.50044 0.12188 0.17065 0.0
H2799 H 0.52708 0.14181 0.14809 0.0
H2800 H 0.48723 0.1534 0.2313 0.0
H2801 H 0.50601 0.06818 0.20642 0.0
H2802 H 0.52303 0.091 0.19851 0.0
H2803 H 0.49829 0.08493 0.18356 0.0
C2804 C 0.54293 0.16007 0.19848 0.0
C2805 C 0.54271 0.15788 0.17559 0.0
C2806 C 0.52829 0.1482 0.21136 0.0
C2807 C 0.5128 0.13424 0.20159 0.0
C2808 C 0.51261 0.13201 0.17865 0.0
H2809 H 0.39721 0.09467 0.27755 0.0
H2810 H 0.42198 0.11314 0.25187 0.0
C2811 C 0.52773 0.14347 0.16575 0.0
C2812 C 0.49625 0.12311 0.21552 0.0
H2813 H 0.47383 0.07337 0.22775 0.0
C2814 C 0.48441 0.13586 0.23061 0.0
C2815 C 0.49266 0.10021 0.21476 0.0
C2816 C 0.50583 0.08526 0.2001 0.0
C2817 C 0.46941 0.12637 0.24519 0.0
C2818 C 0.46527 0.10358 0.24393 0.0
C2819 C 0.47686 0.09087 0.22861 0.0
C2820 C 0.44986 0.09233 0.25903 0.0
C2821 C 0.45889 0.14081 0.26231 0.0
C2822 C 0.45698 0.07397 0.27094 0.0
C2823 C 0.44267 0.06302 0.28499 0.0
C2824 C 0.42107 0.07045 0.28773 0.0
C2825 C 0.41391 0.08885 0.27594 0.0
C2826 C 0.42808 0.09947 0.26139 0.0
H2827 H 0.46876 0.1558 0.2654 0.0
H2828 H 0.44252 0.14611 0.25643 0.0
H2829 H 0.45681 0.13197 0.27809 0.0
H2830 H 0.47367 0.06813 0.26943 0.0
H2831 H 0.4486 0.04889 0.29396 0.0
H2832 H 0.60571 0.22261 0.59993 0.0
H2833 H 0.6256 0.24944 0.57743 0.0
H2834 H 0.59417 0.22385 0.51941 0.0
H2835 H 0.57334 0.19818 0.54197 0.0
H2836 H 0.65381 0.24808 0.54619 0.0
H2837 H 0.57929 0.28634 0.51223 0.0
H2838 H 0.57814 0.26647 0.53404 0.0
H2839 H 0.57968 0.25772 0.50583 0.0
C2840 C 0.60318 0.22277 0.58236 0.0
C2841 C 0.58787 0.20863 0.57263 0.0
C2842 C 0.61447 0.23808 0.56952 0.0
C2843 C 0.61084 0.23917 0.54678 0.0
C2844 C 0.59655 0.22401 0.53699 0.0
H2845 H 0.6977 0.3006 0.45299 0.0
H2846 H 0.67893 0.27601 0.47844 0.0
C2847 C 0.58485 0.20919 0.54984 0.0
C2848 C 0.62195 0.25603 0.5332 0.0
H2849 H 0.61275 0.29371 0.49291 0.0
C2850 C 0.6448 0.25824 0.53472 0.0
C2851 C 0.61019 0.26979 0.51864 0.0
C2852 C 0.58546 0.27014 0.51779 0.0
C2853 C 0.65627 0.27327 0.52159 0.0
C2854 C 0.64468 0.28568 0.50574 0.0
C2855 C 0.62176 0.28395 0.50474 0.0
C2856 C 0.65588 0.30046 0.48994 0.0
C2857 C 0.6806 0.2759 0.52527 0.0
C2858 C 0.64844 0.32206 0.48693 0.0
C2859 C 0.65859 0.33585 0.47171 0.0
C2860 C 0.67664 0.3284 0.45957 0.0
C2861 C 0.68398 0.30679 0.46241 0.0
C2862 C 0.67343 0.29282 0.47714 0.0
H2863 H 0.68515 0.27175 0.54242 0.0
H2864 H 0.68958 0.26449 0.51434 0.0
H2865 H 0.68611 0.29289 0.52181 0.0
H2866 H 0.63485 0.32834 0.49647 0.0
H2867 H 0.65271 0.35249 0.46985 0.0
H2868 H 0.90431 0.38544 0.70268 0.0
H2869 H 0.92631 0.36465 0.72907 0.0
H2870 H 0.95506 0.42471 0.75271 0.0
H2871 H 0.93339 0.44562 0.72654 0.0
H2872 H 0.98539 0.39065 0.73976 0.0
H2873 H 0.92098 0.36154 0.79753 0.0
H2874 H 0.91607 0.35737 0.76874 0.0
H2875 H 0.91687 0.3847 0.77953 0.0
C2876 C 0.91513 0.39426 0.71365 0.0
C2877 C 0.91711 0.41721 0.71242 0.0
C2878 C 0.9276 0.38235 0.72876 0.0
C2879 C 0.94213 0.39323 0.74286 0.0
C2880 C 0.94386 0.41608 0.74196 0.0
H2881 H 0.04296 0.36156 0.83645 0.0
H2882 H 0.01671 0.37928 0.81199 0.0
C2883 C 0.93143 0.42798 0.72696 0.0
C2884 C 0.95664 0.38085 0.75771 0.0
H2885 H 0.95723 0.34967 0.80413 0.0
C2886 C 0.97927 0.38166 0.75383 0.0
C2887 C 0.94848 0.36908 0.7759 0.0
C2888 C 0.92429 0.36814 0.78088 0.0
C2889 C 0.99408 0.37102 0.76776 0.0
C2890 C 0.98599 0.3597 0.78629 0.0
C2891 C 0.96331 0.35852 0.78995 0.0
C2892 C 0.00094 0.34909 0.8021 0.0
C2893 C 0.01821 0.37177 0.76236 0.0
C2894 C 0.00019 0.32636 0.80518 0.0
C2895 C 0.01507 0.31616 0.81924 0.0
C2896 C 0.03092 0.32857 0.83054 0.0
C2897 C 0.03112 0.35147 0.8279 0.0
C2898 C 0.0162 0.36163 0.81385 0.0
H2899 H 0.02108 0.37596 0.74487 0.0
H2900 H 0.02623 0.38453 0.77255 0.0
H2901 H 0.0262 0.35582 0.76593 0.0
H2902 H 0.98842 0.31645 0.79631 0.0
H2903 H 0.01435 0.29851 0.82094 0.0
H2904 H 0.94831 0.76767 0.06718 0.0
H2905 H 0.92773 0.74243 0.04407 0.0
H2906 H 0.8672 0.77263 0.06439 0.0
H2907 H 0.88763 0.79805 0.08782 0.0
H2908 H 0.86734 0.72502 0.0636 0.0
H2909 H 0.8979 0.76219 0.98622 0.0
H2910 H 0.91882 0.75453 0.00548 0.0
H2911 H 0.89982 0.77593 0.01236 0.0
C2912 C 0.93062 0.76897 0.06688 0.0
C2913 C 0.91964 0.78507 0.07924 0.0
C2914 C 0.91891 0.75455 0.05358 0.0
C2915 C 0.89605 0.75598 0.05229 0.0
C2916 C 0.8849 0.77144 0.06513 0.0
H2917 H 0.79674 0.68757 0.97778 0.0
H2918 H 0.81687 0.71065 0.00341 0.0
C2919 C 0.89661 0.78592 0.07848 0.0
C2920 C 0.88387 0.74155 0.03717 0.0
H2921 H 0.87743 0.72938 0.98298 0.0
C2922 C 0.86943 0.72598 0.04596 0.0
C2923 C 0.88676 0.74291 0.01422 0.0
C2924 C 0.90152 0.7599 0.00393 0.0
C2925 C 0.85803 0.71139 0.03234 0.0
C2926 C 0.86092 0.71275 0.00938 0.0
C2927 C 0.87535 0.72835 0.00061 0.0
C2928 C 0.8488 0.69845 0.99406 0.0
C2929 C 0.84333 0.69436 0.04264 0.0
C2930 C 0.86017 0.68435 0.97992 0.0
C2931 C 0.84874 0.67119 0.96507 0.0
C2932 C 0.82572 0.67202 0.96405 0.0
C2933 C 0.81444 0.68636 0.97817 0.0
C2934 C 0.82589 0.69949 0.99297 0.0
H2935 H 0.84737 0.69171 0.0602 0.0
H2936 H 0.82607 0.69999 0.04166 0.0
H2937 H 0.84461 0.67847 0.03388 0.0
H2938 H 0.8779 0.68347 0.98044 0.0
H2939 H 0.85795 0.66038 0.95443 0.0
H2940 H 0.45412 0.6391 0.33862 0.0
H2941 H 0.4803 0.62147 0.31402 0.0
H2942 H 0.50816 0.68444 0.29807 0.0
H2943 H 0.48231 0.70227 0.3228 0.0
H2944 H 0.48348 0.62992 0.269 0.0
H2945 H 0.56227 0.64682 0.31154 0.0
H2946 H 0.53604 0.64924 0.32504 0.0
H2947 H 0.54534 0.67044 0.30683 0.0
C2948 C 0.46597 0.64922 0.33011 0.0
C2949 C 0.46607 0.67213 0.3327 0.0
C2950 C 0.4809 0.6391 0.31606 0.0
C2951 C 0.49627 0.65166 0.30445 0.0
C2952 C 0.49669 0.67444 0.30722 0.0
H2953 H 0.58984 0.61518 0.20241 0.0
H2954 H 0.56721 0.63597 0.22828 0.0
C2955 C 0.48179 0.6846 0.32128 0.0
C2956 C 0.51085 0.641 0.28836 0.0
H2957 H 0.5645 0.63098 0.27611 0.0
C2958 C 0.5012 0.6301 0.27057 0.0
C2959 C 0.53393 0.64149 0.2904 0.0
C2960 C 0.54507 0.65246 0.30957 0.0
C2961 C 0.51403 0.61958 0.25474 0.0
C2962 C 0.53708 0.61976 0.25697 0.0
C2963 C 0.5468 0.63097 0.27452 0.0
C2964 C 0.55122 0.60736 0.2418 0.0
C2965 C 0.50286 0.60844 0.23568 0.0
C2966 C 0.54989 0.58447 0.24123 0.0
C2967 C 0.56271 0.57257 0.22658 0.0
C2968 C 0.57721 0.58336 0.21223 0.0
C2969 C 0.5788 0.60636 0.21315 0.0
C2970 C 0.56593 0.61826 0.22791 0.0
H2971 H 0.48582 0.61445 0.23338 0.0
H2972 H 0.51214 0.61108 0.22025 0.0
H2973 H 0.50212 0.59054 0.23883 0.0
H2974 H 0.53884 0.57579 0.2521 0.0
H2975 H 0.5611 0.5549 0.22646 0.0
H2976 H 0.27496 0.43434 0.04539 0.0
H2977 H 0.25103 0.46016 0.06431 0.0
H2978 H 0.27526 0.43732 0.12664 0.0
H2979 H 0.29949 0.41147 0.10791 0.0
H2980 H 0.218 0.45043 0.09557 0.0
H2981 H 0.28285 0.50456 0.12962 0.0
H2982 H 0.28799 0.48538 0.10769 0.0
H2983 H 0.28622 0.47591 0.13552 0.0
C2984 C 0.27532 0.43479 0.06313 0.0
C2985 C 0.28924 0.42083 0.07512 0.0
C2986 C 0.26159 0.44957 0.07389 0.0
C2987 C 0.26161 0.4508 0.09681 0.0
C2988 C 0.27532 0.43684 0.1089 0.0
H2989 H 0.19136 0.52424 0.19412 0.0
H2990 H 0.21532 0.5 0.17339 0.0
C2991 C 0.28905 0.42201 0.09816 0.0
C2992 C 0.24689 0.46638 0.10806 0.0
H2993 H 0.24651 0.5109 0.14185 0.0
C2994 C 0.22418 0.46374 0.1056 0.0
C2995 C 0.2551 0.4837 0.12106 0.0
C2996 C 0.27937 0.48776 0.12354 0.0
C2997 C 0.20937 0.47768 0.11631 0.0
C2998 C 0.21758 0.49491 0.12945 0.0
C2999 C 0.2403 0.49766 0.13173 0.0
C3000 C 0.20289 0.5098 0.14168 0.0
C3001 C 0.18511 0.47345 0.114 0.0
C3002 C 0.1881 0.52353 0.13065 0.0
C3003 C 0.17424 0.53744 0.14247 0.0
C3004 C 0.17508 0.53794 0.16551 0.0
C3005 C 0.19018 0.52431 0.17641 0.0
C3006 C 0.20394 0.51043 0.1646 0.0
H3007 H 0.1817 0.45674 0.10761 0.0
H3008 H 0.17664 0.47542 0.12999 0.0
H3009 H 0.17803 0.48548 0.10234 0.0
H3010 H 0.18735 0.52357 0.11291 0.0
H3011 H 0.16293 0.5478 0.13354 0.0
H3012 H 0.779 0.05484 0.95188 0.0
H3013 H 0.75596 0.02888 0.93207 0.0
H3014 H 0.77128 0.06126 0.87117 0.0
H3015 H 0.79457 0.08748 0.89083 0.0
H3016 H 0.72389 0.05286 0.88172 0.0
H3017 H 0.77788 0.97966 0.8883 0.0
H3018 H 0.7736 0.99509 0.91307 0.0
H3019 H 0.78817 0.00734 0.89065 0.0
C3020 C 0.77757 0.05649 0.93426 0.0
C3021 C 0.78862 0.07329 0.92293 0.0
C3022 C 0.76447 0.04155 0.92299 0.0
C3023 C 0.76214 0.04312 0.90023 0.0
C3024 C 0.77305 0.0598 0.88878 0.0
H3025 H 0.70013 0.95613 0.80814 0.0
H3026 H 0.72513 0.97976 0.82855 0.0
C3027 C 0.78634 0.07471 0.90003 0.0
C3028 C 0.74765 0.02771 0.88856 0.0
H3029 H 0.7421 0.97392 0.8743 0.0
C3030 C 0.72784 0.03561 0.88002 0.0
C3031 C 0.753 0.00529 0.88643 0.0
C3032 C 0.77438 0.99625 0.89494 0.0
C3033 C 0.71303 0.02151 0.86955 0.0
C3034 C 0.71821 0.99902 0.86774 0.0
C3035 C 0.73815 0.99117 0.87601 0.0
C3036 C 0.7035 0.98362 0.85633 0.0
C3037 C 0.69206 0.03073 0.86024 0.0
C3038 C 0.6833 0.97764 0.86553 0.0
C3039 C 0.66895 0.96402 0.85397 0.0
C3040 C 0.67459 0.95634 0.83298 0.0
C3041 C 0.69518 0.96192 0.82418 0.0
C3042 C 0.70953 0.97536 0.83581 0.0
H3043 H 0.69208 0.04894 0.86004 0.0
H3044 H 0.68944 0.02468 0.84327 0.0
H3045 H 0.67802 0.02512 0.87035 0.0
H3046 H 0.67853 0.98378 0.88149 0.0
H3047 H 0.65323 0.96002 0.86119 0.0
H3048 H 0.82405 0.01457 0.301 0.0
H3049 H 0.80148 0.98746 0.31979 0.0
H3050 H 0.81777 0.01658 0.38205 0.0
H3051 H 0.84055 0.04391 0.36346 0.0
H3052 H 0.81963 0.96781 0.37905 0.0
H3053 H 0.74163 0.00448 0.34923 0.0
H3054 H 0.76211 0.99909 0.32874 0.0
H3055 H 0.7672 0.01941 0.3494 0.0
C3056 C 0.823 0.01522 0.3187 0.0
C3057 C 0.83402 0.03158 0.3307 0.0
C3058 C 0.81003 -0.00028 0.32938 0.0
C3059 C 0.8078 0.00026 0.35221 0.0
C3060 C 0.81927 0.01603 0.36437 0.0
H3061 H 0.73456 0.92787 0.44883 0.0
H3062 H 0.76111 0.95012 0.429 0.0
C3063 C 0.83224 0.03163 0.3537 0.0
C3064 C 0.79297 0.98469 0.36331 0.0
H3065 H 0.73898 0.97145 0.36913 0.0
C3066 C 0.80199 0.96856 0.37694 0.0
C3067 C 0.77003 0.98575 0.36035 0.0
C3068 C 0.75955 0.00319 0.34628 0.0
C3069 C 0.78859 0.95321 0.38762 0.0
C3070 C 0.76558 0.95443 0.38489 0.0
C3071 C 0.75663 0.97051 0.37111 0.0
C3072 C 0.75037 0.93979 0.39682 0.0
C3073 C 0.79918 0.93565 0.40143 0.0
C3074 C 0.73522 0.92688 0.38529 0.0
C3075 C 0.71979 0.91425 0.39658 0.0
C3076 C 0.71919 0.91441 0.41963 0.0
C3077 C 0.7346 0.9272 0.43109 0.0
C3078 C 0.74994 0.93985 0.41979 0.0
H3079 H 0.81651 0.93288 0.39658 0.0
H3080 H 0.79906 0.94085 0.41886 0.0
H3081 H 0.79016 0.91989 0.40012 0.0
H3082 H 0.73521 0.92674 0.36753 0.0
H3083 H 0.70818 0.90462 0.38722 0.0
H3084 H 0.30136 0.46205 0.69978 0.0
H3085 H 0.27683 0.48744 0.68081 0.0
H3086 H 0.32731 0.50033 0.63287 0.0
H3087 H 0.35123 0.47365 0.65096 0.0
H3088 H 0.27709 0.52828 0.67274 0.0
H3089 H 0.27911 0.48575 0.59267 0.0
H3090 H 0.29144 0.47421 0.61687 0.0
H3091 H 0.30593 0.49442 0.60086 0.0
C3092 C 0.30712 0.47029 0.68514 0.0
C3093 C 0.32798 0.4658 0.6766 0.0
C3094 C 0.29315 0.48481 0.67433 0.0
C3095 C 0.3 0.49543 0.65508 0.0
C3096 C 0.32131 0.49172 0.64718 0.0
H3097 H 0.22532 0.60621 0.60205 0.0
H3098 H 0.25166 0.58358 0.62228 0.0
C3099 C 0.33504 0.47665 0.6576 0.0
C3100 C 0.28472 0.51026 0.64333 0.0
H3101 H 0.26256 0.52092 0.59315 0.0
C3102 C 0.27378 0.52657 0.65535 0.0
C3103 C 0.28011 0.50783 0.62071 0.0
C3104 C 0.28959 0.48945 0.60711 0.0
C3105 C 0.25829 0.54039 0.64547 0.0
C3106 C 0.25446 0.5386 0.62265 0.0
C3107 C 0.26558 0.52244 0.61061 0.0
C3108 C 0.23842 0.55262 0.6109 0.0
C3109 C 0.24568 0.55609 0.65983 0.0
C3110 C 0.22273 0.54286 0.59714 0.0
C3111 C 0.20838 0.55577 0.58495 0.0
C3112 C 0.20907 0.57866 0.58672 0.0
C3113 C 0.22438 0.58853 0.60073 0.0
C3114 C 0.23927 0.5756 0.61241 0.0
H3115 H 0.24524 0.55041 0.67713 0.0
H3116 H 0.25389 0.57232 0.6596 0.0
H3117 H 0.22856 0.55814 0.65402 0.0
H3118 H 0.22169 0.52519 0.59568 0.0
H3119 H 0.19661 0.54787 0.57425 0.0
loop_
_geom_bond_atom_site_label_1
_geom_bond_atom_site_label_2
_geom_bond_distance
_geom_bond_site_symmetry_2
_ccdc_geom_bond_type
Sc0 O3 2.025 . S
Sc0 O10 2.105 1_455 S
Sc0 O13 2.105 . S
Sc0 O16 2.105 . S
Sc0 O19 2.105 . S
Sc1 O3 2.025 . S
Sc1 O11 2.105 . S
Sc1 O15 2.105 . S
Sc1 O17 2.105 . S
Sc1 O21 2.105 . S
Sc2 O3 2.025 . S
Sc2 O12 2.105 . S
Sc2 O14 2.105 . S
Sc2 O18 2.105 . S
Sc2 O20 2.105 1_455 S
O3 Sc0 2.025 . S
O3 Sc1 2.025 . S
O3 Sc2 2.025 . S
C4 O10 1.268 . S
C4 O20 1.268 . S
C5 O11 1.268 . S
C5 O19 1.268 . S
C6 O12 1.268 . S
C6 O21 1.268 . S
C7 O13 1.268 . S
C7 O17 1.268 . S
C8 O14 1.268 . S
C8 O16 1.268 . S
C9 O15 1.268 . S
C9 O18 1.268 . S
O10 Sc0 2.105 1_655 S
O10 C4 1.268 . S
O11 Sc1 2.105 . S
O11 C5 1.268 . S
O12 Sc2 2.105 . S
O12 C6 1.268 . S
O13 Sc0 2.105 . S
O13 C7 1.268 . S
O14 Sc2 2.105 . S
O14 C8 1.268 . S
O15 Sc1 2.105 . S
O15 C9 1.268 . S
O16 Sc0 2.105 . S
O16 C8 1.268 . S
O17 Sc1 2.105 . S
O17 C7 1.268 . S
O18 Sc2 2.105 . S
O18 C9 1.268 . S
O19 Sc0 2.105 . S
O19 C5 1.268 . S
O20 Sc2 2.105 1_655 S
O20 C4 1.268 . S
O21 Sc1 2.105 . S
O21 C6 1.268 . S
Sc22 O25 2.025 . S
Sc22 O32 2.105 . S
Sc22 O35 2.105 . S
Sc22 O38 2.105 . S
Sc22 O41 2.105 . S
Sc23 O25 2.025 . S
Sc23 O33 2.105 . S
Sc23 O37 2.105 . S
Sc23 O39 2.105 . S
Sc23 O43 2.105 . S
Sc24 O25 2.025 . S
Sc24 O34 2.105 . S
Sc24 O36 2.105 . S
Sc24 O40 2.105 . S
Sc24 O42 2.105 . S
O25 Sc22 2.025 . S
O25 Sc23 2.025 . S
O25 Sc24 2.025 . S
C26 O32 1.268 . S
C26 O42 1.268 . S
C27 O33 1.268 . S
C27 O41 1.268 . S
C28 O34 1.268 . S
C28 O43 1.268 . S
C29 O35 1.268 . S
C29 O39 1.268 . S
C30 O36 1.268 . S
C30 O38 1.268 . S
C31 O37 1.268 . S
C31 O40 1.268 . S
O32 Sc22 2.105 . S
O32 C26 1.268 . S
O33 Sc23 2.105 . S
O33 C27 1.268 . S
O34 Sc24 2.105 . S
O34 C28 1.268 . S
O35 Sc22 2.105 . S
O35 C29 1.268 . S
O36 Sc24 2.105 . S
O36 C30 1.268 . S
O37 Sc23 2.105 . S
O37 C31 1.268 . S
O38 Sc22 2.105 . S
O38 C30 1.268 . S
O39 Sc23 2.105 . S
O39 C29 1.268 . S
O40 Sc24 2.105 . S
O40 C31 1.268 . S
O41 Sc22 2.105 . S
O41 C27 1.268 . S
O42 Sc24 2.105 . S
O42 C26 1.268 . S
O43 Sc23 2.105 . S
O43 C28 1.268 . S
Sc44 O47 2.025 . S
Sc44 O54 2.105 . S
Sc44 O57 2.105 . S
Sc44 O60 2.105 . S
Sc44 O63 2.105 . S
Sc45 O47 2.025 . S
Sc45 O55 2.105 . S
Sc45 O59 2.105 . S
Sc45 O61 2.105 . S
Sc45 O65 2.105 . S
Sc46 O47 2.025 . S
Sc46 O56 2.105 . S
Sc46 O58 2.105 . S
Sc46 O62 2.105 . S
Sc46 O64 2.105 . S
O47 Sc44 2.025 . S
O47 Sc45 2.025 . S
O47 Sc46 2.025 . S
C48 O54 1.268 . S
C48 O64 1.268 . S
C49 O55 1.268 . S
C49 O63 1.268 . S
C50 O56 1.268 . S
C50 O65 1.268 . S
C51 O57 1.268 . S
C51 O61 1.268 . S
C52 O58 1.268 . S
C52 O60 1.268 . S
C53 O59 1.268 . S
C53 O62 1.268 . S
O54 Sc44 2.105 . S
O54 C48 1.268 . S
O55 Sc45 2.105 . S
O55 C49 1.268 . S
O56 Sc46 2.105 . S
O56 C50 1.268 . S
O57 Sc44 2.105 . S
O57 C51 1.268 . S
O58 Sc46 2.105 . S
O58 C52 1.268 . S
O59 Sc45 2.105 . S
O59 C53 1.268 . S
O60 Sc44 2.105 . S
O60 C52 1.268 . S
O61 Sc45 2.105 . S
O61 C51 1.268 . S
O62 Sc46 2.105 . S
O62 C53 1.268 . S
O63 Sc44 2.105 . S
O63 C49 1.268 . S
O64 Sc46 2.105 . S
O64 C48 1.268 . S
O65 Sc45 2.105 . S
O65 C50 1.268 . S
Sc66 O69 2.025 . S
Sc66 O76 2.105 . S
Sc66 O79 2.105 . S
Sc66 O82 2.105 . S
Sc66 O85 2.105 . S
Sc67 O69 2.025 . S
Sc67 O77 2.105 . S
Sc67 O81 2.105 . S
Sc67 O83 2.105 . S
Sc67 O87 2.105 . S
Sc68 O69 2.025 . S
Sc68 O78 2.105 . S
Sc68 O80 2.105 . S
Sc68 O84 2.105 . S
Sc68 O86 2.105 . S
O69 Sc66 2.025 . S
O69 Sc67 2.025 . S
O69 Sc68 2.025 . S
C70 O76 1.268 . S
C70 O86 1.268 . S
C71 O77 1.268 . S
C71 O85 1.268 . S
C72 O78 1.268 . S
C72 O87 1.268 . S
C73 O79 1.268 . S
C73 O83 1.268 . S
C74 O80 1.268 . S
C74 O82 1.268 . S
C75 O81 1.268 . S
C75 O84 1.268 . S
O76 Sc66 2.105 . S
O76 C70 1.268 . S
O77 Sc67 2.105 . S
O77 C71 1.268 . S
O78 Sc68 2.105 . S
O78 C72 1.268 . S
O79 Sc66 2.105 . S
O79 C73 1.268 . S
O80 Sc68 2.105 . S
O80 C74 1.268 . S
O81 Sc67 2.105 . S
O81 C75 1.268 . S
O82 Sc66 2.105 . S
O82 C74 1.268 . S
O83 Sc67 2.105 . S
O83 C73 1.268 . S
O84 Sc68 2.105 . S
O84 C75 1.268 . S
O85 Sc66 2.105 . S
O85 C71 1.268 . S
O86 Sc68 2.105 . S
O86 C70 1.268 . S
O87 Sc67 2.105 . S
O87 C72 1.268 . S
Sc88 O91 2.025 . S
Sc88 O98 2.105 . S
Sc88 O101 2.105 . S
Sc88 O104 2.105 . S
Sc88 O107 2.105 . S
Sc89 O91 2.025 . S
Sc89 O99 2.105 . S
Sc89 O103 2.105 . S
Sc89 O105 2.105 . S
Sc89 O109 2.105 . S
Sc90 O91 2.025 . S
Sc90 O100 2.105 . S
Sc90 O102 2.105 . S
Sc90 O106 2.105 . S
Sc90 O108 2.105 . S
O91 Sc88 2.025 . S
O91 Sc89 2.025 . S
O91 Sc90 2.025 . S
C92 O98 1.268 . S
C92 O108 1.268 . S
C93 O99 1.268 . S
C93 O107 1.268 . S
C94 O100 1.268 . S
C94 O109 1.268 . S
C95 O101 1.268 . S
C95 O105 1.268 . S
C96 O102 1.268 . S
C96 O104 1.268 . S
C97 O103 1.268 . S
C97 O106 1.268 . S
O98 Sc88 2.105 . S
O98 C92 1.268 . S
O99 Sc89 2.105 . S
O99 C93 1.268 . S
O100 Sc90 2.105 . S
O100 C94 1.268 . S
O101 Sc88 2.105 . S
O101 C95 1.268 . S
O102 Sc90 2.105 . S
O102 C96 1.268 . S
O103 Sc89 2.105 . S
O103 C97 1.268 . S
O104 Sc88 2.105 . S
O104 C96 1.268 . S
O105 Sc89 2.105 . S
O105 C95 1.268 . S
O106 Sc90 2.105 . S
O106 C97 1.268 . S
O107 Sc88 2.105 . S
O107 C93 1.268 . S
O108 Sc90 2.105 . S
O108 C92 1.268 . S
O109 Sc89 2.105 . S
O109 C94 1.268 . S
Sc110 O113 2.025 . S
Sc110 O120 2.105 . S
Sc110 O123 2.105 . S
Sc110 O126 2.105 . S
Sc110 O129 2.105 . S
Sc111 O113 2.025 . S
Sc111 O121 2.105 . S
Sc111 O125 2.105 . S
Sc111 O127 2.105 . S
Sc111 O131 2.105 . S
Sc112 O113 2.025 . S
Sc112 O122 2.105 . S
Sc112 O124 2.105 . S
Sc112 O128 2.105 . S
Sc112 O130 2.105 . S
O113 Sc110 2.025 . S
O113 Sc111 2.025 . S
O113 Sc112 2.025 . S
C114 O120 1.268 . S
C114 O130 1.268 . S
C115 O121 1.268 . S
C115 O129 1.268 . S
C116 O122 1.268 . S
C116 O131 1.268 . S
C117 O123 1.268 . S
C117 O127 1.268 . S
C118 O124 1.268 . S
C118 O126 1.268 . S
C119 O125 1.268 . S
C119 O128 1.268 . S
O120 Sc110 2.105 . S
O120 C114 1.268 . S
O121 Sc111 2.105 . S
O121 C115 1.268 . S
O122 Sc112 2.105 . S
O122 C116 1.268 . S
O123 Sc110 2.105 . S
O123 C117 1.268 . S
O124 Sc112 2.105 . S
O124 C118 1.268 . S
O125 Sc111 2.105 . S
O125 C119 1.268 . S
O126 Sc110 2.105 . S
O126 C118 1.268 . S
O127 Sc111 2.105 . S
O127 C117 1.268 . S
O128 Sc112 2.105 . S
O128 C119 1.268 . S
O129 Sc110 2.105 . S
O129 C115 1.268 . S
O130 Sc112 2.105 . S
O130 C114 1.268 . S
O131 Sc111 2.105 . S
O131 C116 1.268 . S
Sc132 O135 2.025 . S
Sc132 O142 2.105 . S
Sc132 O145 2.105 . S
Sc132 O148 2.105 1_655 S
Sc132 O151 2.105 . S
Sc133 O135 2.025 . S
Sc133 O143 2.105 . S
Sc133 O147 2.105 . S
Sc133 O149 2.105 . S
Sc133 O153 2.105 . S
Sc134 O135 2.025 . S
Sc134 O144 2.105 . S
Sc134 O146 2.105 1_655 S
Sc134 O150 2.105 . S
Sc134 O152 2.105 . S
O135 Sc132 2.025 . S
O135 Sc133 2.025 . S
O135 Sc134 2.025 . S
C136 O142 1.268 . S
C136 O152 1.268 . S
C137 O143 1.268 . S
C137 O151 1.268 . S
C138 O144 1.268 . S
C138 O153 1.268 . S
C139 O145 1.268 . S
C139 O149 1.268 . S
C140 O146 1.268 . S
C140 O148 1.268 . S
C141 O147 1.268 . S
C141 O150 1.268 . S
O142 Sc132 2.105 . S
O142 C136 1.268 . S
O143 Sc133 2.105 . S
O143 C137 1.268 . S
O144 Sc134 2.105 . S
O144 C138 1.268 . S
O145 Sc132 2.105 . S
O145 C139 1.268 . S
O146 Sc134 2.105 1_455 S
O146 C140 1.268 . S
O147 Sc133 2.105 . S
O147 C141 1.268 . S
O148 Sc132 2.105 1_455 S
O148 C140 1.268 . S
O149 Sc133 2.105 . S
O149 C139 1.268 . S
O150 Sc134 2.105 . S
O150 C141 1.268 . S
O151 Sc132 2.105 . S
O151 C137 1.268 . S
O152 Sc134 2.105 . S
O152 C136 1.268 . S
O153 Sc133 2.105 . S
O153 C138 1.268 . S
Sc154 O157 2.025 . S
Sc154 O164 2.105 . S
Sc154 O167 2.105 . S
Sc154 O170 2.105 . S
Sc154 O173 2.105 . S
Sc155 O157 2.025 . S
Sc155 O165 2.105 . S
Sc155 O169 2.105 . S
Sc155 O171 2.105 . S
Sc155 O175 2.105 . S
Sc156 O157 2.025 . S
Sc156 O166 2.105 . S
Sc156 O168 2.105 . S
Sc156 O172 2.105 . S
Sc156 O174 2.105 . S
O157 Sc154 2.025 . S
O157 Sc155 2.025 . S
O157 Sc156 2.025 . S
C158 O164 1.268 . S
C158 O174 1.268 . S
C159 O165 1.268 . S
C159 O173 1.268 . S
C160 O166 1.268 . S
C160 O175 1.268 . S
C161 O167 1.268 . S
C161 O171 1.268 . S
C162 O168 1.268 . S
C162 O170 1.268 . S
C163 O169 1.268 . S
C163 O172 1.268 . S
O164 Sc154 2.105 . S
O164 C158 1.268 . S
O165 Sc155 2.105 . S
O165 C159 1.268 . S
O166 Sc156 2.105 . S
O166 C160 1.268 . S
O167 Sc154 2.105 . S
O167 C161 1.268 . S
O168 Sc156 2.105 . S
O168 C162 1.268 . S
O169 Sc155 2.105 . S
O169 C163 1.268 . S
O170 Sc154 2.105 . S
O170 C162 1.268 . S
O171 Sc155 2.105 . S
O171 C161 1.268 . S
O172 Sc156 2.105 . S
O172 C163 1.268 . S
O173 Sc154 2.105 . S
O173 C159 1.268 . S
O174 Sc156 2.105 . S
O174 C158 1.268 . S
O175 Sc155 2.105 . S
O175 C160 1.268 . S
Sc176 O179 2.025 . S
Sc176 O186 2.105 . S
Sc176 O189 2.105 . S
Sc176 O192 2.105 1_545 S
Sc176 O195 2.105 . S
Sc177 O179 2.025 . S
Sc177 O187 2.105 . S
Sc177 O191 2.105 . S
Sc177 O193 2.105 . S
Sc177 O197 2.105 . S
Sc178 O179 2.025 . S
Sc178 O188 2.105 . S
Sc178 O190 2.105 1_545 S
Sc178 O194 2.105 . S
Sc178 O196 2.105 . S
O179 Sc176 2.025 . S
O179 Sc177 2.025 . S
O179 Sc178 2.025 . S
C180 O186 1.268 . S
C180 O196 1.268 . S
C181 O187 1.268 . S
C181 O195 1.268 . S
C182 O188 1.268 . S
C182 O197 1.268 . S
C183 O189 1.268 . S
C183 O193 1.268 . S
C184 O190 1.268 . S
C184 O192 1.268 . S
C185 O191 1.268 . S
C185 O194 1.268 . S
O186 Sc176 2.105 . S
O186 C180 1.268 . S
O187 Sc177 2.105 . S
O187 C181 1.268 . S
O188 Sc178 2.105 . S
O188 C182 1.268 . S
O189 Sc176 2.105 . S
O189 C183 1.268 . S
O190 Sc178 2.105 1_565 S
O190 C184 1.268 . S
O191 Sc177 2.105 . S
O191 C185 1.268 . S
O192 Sc176 2.105 1_565 S
O192 C184 1.268 . S
O193 Sc177 2.105 . S
O193 C183 1.268 . S
O194 Sc178 2.105 . S
O194 C185 1.268 . S
O195 Sc176 2.105 . S
O195 C181 1.268 . S
O196 Sc178 2.105 . S
O196 C180 1.268 . S
O197 Sc177 2.105 . S
O197 C182 1.268 . S
Sc198 O201 2.025 . S
Sc198 O208 2.105 . S
Sc198 O211 2.105 . S
Sc198 O214 2.105 . S
Sc198 O217 2.105 . S
Sc199 O201 2.025 . S
Sc199 O209 2.105 . S
Sc199 O213 2.105 . S
Sc199 O215 2.105 . S
Sc199 O219 2.105 . S
Sc200 O201 2.025 . S
Sc200 O210 2.105 . S
Sc200 O212 2.105 . S
Sc200 O216 2.105 . S
Sc200 O218 2.105 . S
O201 Sc198 2.025 . S
O201 Sc199 2.025 . S
O201 Sc200 2.025 . S
C202 O208 1.268 . S
C202 O218 1.268 . S
C203 O209 1.268 . S
C203 O217 1.268 . S
C204 O210 1.268 . S
C204 O219 1.268 . S
C205 O211 1.268 . S
C205 O215 1.268 . S
C206 O212 1.268 . S
C206 O214 1.268 . S
C207 O213 1.268 . S
C207 O216 1.268 . S
O208 Sc198 2.105 . S
O208 C202 1.268 . S
O209 Sc199 2.105 . S
O209 C203 1.268 . S
O210 Sc200 2.105 . S
O210 C204 1.268 . S
O211 Sc198 2.105 . S
O211 C205 1.268 . S
O212 Sc200 2.105 . S
O212 C206 1.268 . S
O213 Sc199 2.105 . S
O213 C207 1.268 . S
O214 Sc198 2.105 . S
O214 C206 1.268 . S
O215 Sc199 2.105 . S
O215 C205 1.268 . S
O216 Sc200 2.105 . S
O216 C207 1.268 . S
O217 Sc198 2.105 . S
O217 C203 1.268 . S
O218 Sc200 2.105 . S
O218 C202 1.268 . S
O219 Sc199 2.105 . S
O219 C204 1.268 . S
Sc220 O223 2.025 . S
Sc220 O230 2.105 1_565 S
Sc220 O233 2.105 . S
Sc220 O236 2.105 . S
Sc220 O239 2.105 . S
Sc221 O223 2.025 . S
Sc221 O231 2.105 . S
Sc221 O235 2.105 . S
Sc221 O237 2.105 . S
Sc221 O241 2.105 . S
Sc222 O223 2.025 . S
Sc222 O232 2.105 . S
Sc222 O234 2.105 . S
Sc222 O238 2.105 . S
Sc222 O240 2.105 1_565 S
O223 Sc220 2.025 . S
O223 Sc221 2.025 . S
O223 Sc222 2.025 . S
C224 O230 1.268 . S
C224 O240 1.268 . S
C225 O231 1.268 . S
C225 O239 1.268 . S
C226 O232 1.268 . S
C226 O241 1.268 . S
C227 O233 1.268 . S
C227 O237 1.268 . S
C228 O234 1.268 . S
C228 O236 1.268 . S
C229 O235 1.268 . S
C229 O238 1.268 . S
O230 Sc220 2.105 1_545 S
O230 C224 1.268 . S
O231 Sc221 2.105 . S
O231 C225 1.268 . S
O232 Sc222 2.105 . S
O232 C226 1.268 . S
O233 Sc220 2.105 . S
O233 C227 1.268 . S
O234 Sc222 2.105 . S
O234 C228 1.268 . S
O235 Sc221 2.105 . S
O235 C229 1.268 . S
O236 Sc220 2.105 . S
O236 C228 1.268 . S
O237 Sc221 2.105 . S
O237 C227 1.268 . S
O238 Sc222 2.105 . S
O238 C229 1.268 . S
O239 Sc220 2.105 . S
O239 C225 1.268 . S
O240 Sc222 2.105 1_545 S
O240 C224 1.268 . S
O241 Sc221 2.105 . S
O241 C226 1.268 . S
Sc242 O245 2.025 . S
Sc242 O252 2.105 . S
Sc242 O255 2.105 . S
Sc242 O258 2.105 . S
Sc242 O261 2.105 . S
Sc243 O245 2.025 . S
Sc243 O253 2.105 . S
Sc243 O257 2.105 . S
Sc243 O259 2.105 . S
Sc243 O263 2.105 . S
Sc244 O245 2.025 . S
Sc244 O254 2.105 . S
Sc244 O256 2.105 . S
Sc244 O260 2.105 . S
Sc244 O262 2.105 . S
O245 Sc242 2.025 . S
O245 Sc243 2.025 . S
O245 Sc244 2.025 . S
C246 O252 1.268 . S
C246 O262 1.268 . S
C247 O253 1.268 . S
C247 O261 1.268 . S
C248 O254 1.268 . S
C248 O263 1.268 . S
C249 O255 1.268 . S
C249 O259 1.268 . S
C250 O256 1.268 . S
C250 O258 1.268 . S
C251 O257 1.268 . S
C251 O260 1.268 . S
O252 Sc242 2.105 . S
O252 C246 1.268 . S
O253 Sc243 2.105 . S
O253 C247 1.268 . S
O254 Sc244 2.105 . S
O254 C248 1.268 . S
O255 Sc242 2.105 . S
O255 C249 1.268 . S
O256 Sc244 2.105 . S
O256 C250 1.268 . S
O257 Sc243 2.105 . S
O257 C251 1.268 . S
O258 Sc242 2.105 . S
O258 C250 1.268 . S
O259 Sc243 2.105 . S
O259 C249 1.268 . S
O260 Sc244 2.105 . S
O260 C251 1.268 . S
O261 Sc242 2.105 . S
O261 C247 1.268 . S
O262 Sc244 2.105 . S
O262 C246 1.268 . S
O263 Sc243 2.105 . S
O263 C248 1.268 . S
Sc264 O267 2.025 . S
Sc264 O274 2.105 . S
Sc264 O277 2.105 . S
Sc264 O280 2.105 . S
Sc264 O283 2.105 . S
Sc265 O267 2.025 . S
Sc265 O275 2.105 . S
Sc265 O279 2.105 . S
Sc265 O281 2.105 . S
Sc265 O285 2.105 . S
Sc266 O267 2.025 . S
Sc266 O276 2.105 . S
Sc266 O278 2.105 . S
Sc266 O282 2.105 . S
Sc266 O284 2.105 . S
O267 Sc264 2.025 . S
O267 Sc265 2.025 . S
O267 Sc266 2.025 . S
C268 O274 1.268 . S
C268 O284 1.268 . S
C269 O275 1.268 . S
C269 O283 1.268 . S
C270 O276 1.268 . S
C270 O285 1.268 . S
C271 O277 1.268 . S
C271 O281 1.268 . S
C272 O278 1.268 . S
C272 O280 1.268 . S
C273 O279 1.268 . S
C273 O282 1.268 . S
O274 Sc264 2.105 . S
O274 C268 1.268 . S
O275 Sc265 2.105 . S
O275 C269 1.268 . S
O276 Sc266 2.105 . S
O276 C270 1.268 . S
O277 Sc264 2.105 . S
O277 C271 1.268 . S
O278 Sc266 2.105 . S
O278 C272 1.268 . S
O279 Sc265 2.105 . S
O279 C273 1.268 . S
O280 Sc264 2.105 . S
O280 C272 1.268 . S
O281 Sc265 2.105 . S
O281 C271 1.268 . S
O282 Sc266 2.105 . S
O282 C273 1.268 . S
O283 Sc264 2.105 . S
O283 C269 1.268 . S
O284 Sc266 2.105 . S
O284 C268 1.268 . S
O285 Sc265 2.105 . S
O285 C270 1.268 . S
Sc286 O289 2.025 . S
Sc286 O296 2.105 . S
Sc286 O299 2.105 . S
Sc286 O302 2.105 . S
Sc286 O305 2.105 . S
Sc287 O289 2.025 . S
Sc287 O297 2.105 . S
Sc287 O301 2.105 . S
Sc287 O303 2.105 . S
Sc287 O307 2.105 . S
Sc288 O289 2.025 . S
Sc288 O298 2.105 . S
Sc288 O300 2.105 . S
Sc288 O304 2.105 . S
Sc288 O306 2.105 . S
O289 Sc286 2.025 . S
O289 Sc287 2.025 . S
O289 Sc288 2.025 . S
C290 O296 1.268 . S
C290 O306 1.268 . S
C291 O297 1.268 . S
C291 O305 1.268 . S
C292 O298 1.268 . S
C292 O307 1.268 . S
C293 O299 1.268 . S
C293 O303 1.268 . S
C294 O300 1.268 . S
C294 O302 1.268 . S
C295 O301 1.268 . S
C295 O304 1.268 . S
O296 Sc286 2.105 . S
O296 C290 1.268 . S
O297 Sc287 2.105 . S
O297 C291 1.268 . S
O298 Sc288 2.105 . S
O298 C292 1.268 . S
O299 Sc286 2.105 . S
O299 C293 1.268 . S
O300 Sc288 2.105 . S
O300 C294 1.268 . S
O301 Sc287 2.105 . S
O301 C295 1.268 . S
O302 Sc286 2.105 . S
O302 C294 1.268 . S
O303 Sc287 2.105 . S
O303 C293 1.268 . S
O304 Sc288 2.105 . S
O304 C295 1.268 . S
O305 Sc286 2.105 . S
O305 C291 1.268 . S
O306 Sc288 2.105 . S
O306 C290 1.268 . S
O307 Sc287 2.105 . S
O307 C292 1.268 . S
Sc308 O311 2.025 . S
Sc308 O318 2.105 . S
Sc308 O321 2.105 . S
Sc308 O324 2.105 . S
Sc308 O327 2.105 . S
Sc309 O311 2.025 . S
Sc309 O319 2.105 . S
Sc309 O323 2.105 . S
Sc309 O325 2.105 . S
Sc309 O329 2.105 . S
Sc310 O311 2.025 . S
Sc310 O320 2.105 . S
Sc310 O322 2.105 . S
Sc310 O326 2.105 . S
Sc310 O328 2.105 . S
O311 Sc308 2.025 . S
O311 Sc309 2.025 . S
O311 Sc310 2.025 . S
C312 O318 1.268 . S
C312 O328 1.268 . S
C313 O319 1.268 . S
C313 O327 1.268 . S
C314 O320 1.268 . S
C314 O329 1.268 . S
C315 O321 1.268 . S
C315 O325 1.268 . S
C316 O322 1.268 . S
C316 O324 1.268 . S
C317 O323 1.268 . S
C317 O326 1.268 . S
O318 Sc308 2.105 . S
O318 C312 1.268 . S
O319 Sc309 2.105 . S
O319 C313 1.268 . S
O320 Sc310 2.105 . S
O320 C314 1.268 . S
O321 Sc308 2.105 . S
O321 C315 1.268 . S
O322 Sc310 2.105 . S
O322 C316 1.268 . S
O323 Sc309 2.105 . S
O323 C317 1.268 . S
O324 Sc308 2.105 . S
O324 C316 1.268 . S
O325 Sc309 2.105 . S
O325 C315 1.268 . S
O326 Sc310 2.105 . S
O326 C317 1.268 . S
O327 Sc308 2.105 . S
O327 C313 1.268 . S
O328 Sc310 2.105 . S
O328 C312 1.268 . S
O329 Sc309 2.105 . S
O329 C314 1.268 . S
Sc330 O333 2.025 . S
Sc330 O340 2.105 . S
Sc330 O343 2.105 . S
Sc330 O346 2.105 . S
Sc330 O349 2.105 . S
Sc331 O333 2.025 . S
Sc331 O341 2.105 . S
Sc331 O345 2.105 . S
Sc331 O347 2.105 . S
Sc331 O351 2.105 . S
Sc332 O333 2.025 . S
Sc332 O342 2.105 . S
Sc332 O344 2.105 . S
Sc332 O348 2.105 . S
Sc332 O350 2.105 . S
O333 Sc330 2.025 . S
O333 Sc331 2.025 . S
O333 Sc332 2.025 . S
C334 O340 1.268 . S
C334 O350 1.268 . S
C335 O341 1.268 . S
C335 O349 1.268 . S
C336 O342 1.268 . S
C336 O351 1.268 . S
C337 O343 1.268 . S
C337 O347 1.268 . S
C338 O344 1.268 . S
C338 O346 1.268 . S
C339 O345 1.268 . S
C339 O348 1.268 . S
O340 Sc330 2.105 . S
O340 C334 1.268 . S
O341 Sc331 2.105 . S
O341 C335 1.268 . S
O342 Sc332 2.105 . S
O342 C336 1.268 . S
O343 Sc330 2.105 . S
O343 C337 1.268 . S
O344 Sc332 2.105 . S
O344 C338 1.268 . S
O345 Sc331 2.105 . S
O345 C339 1.268 . S
O346 Sc330 2.105 . S
O346 C338 1.268 . S
O347 Sc331 2.105 . S
O347 C337 1.268 . S
O348 Sc332 2.105 . S
O348 C339 1.268 . S
O349 Sc330 2.105 . S
O349 C335 1.268 . S
O350 Sc332 2.105 . S
O350 C334 1.268 . S
O351 Sc331 2.105 . S
O351 C336 1.268 . S
Sc352 O355 2.025 . S
Sc352 O362 2.105 1_554 S
Sc352 O365 2.105 . S
Sc352 O368 2.105 . S
Sc352 O371 2.105 . S
Sc353 O355 2.025 . S
Sc353 O363 2.105 . S
Sc353 O367 2.105 . S
Sc353 O369 2.105 . S
Sc353 O373 2.105 . S
Sc354 O355 2.025 . S
Sc354 O364 2.105 . S
Sc354 O366 2.105 . S
Sc354 O370 2.105 . S
Sc354 O372 2.105 1_554 S
O355 Sc352 2.025 . S
O355 Sc353 2.025 . S
O355 Sc354 2.025 . S
C356 O362 1.268 . S
C356 O372 1.268 . S
C357 O363 1.268 . S
C357 O371 1.268 . S
C358 O364 1.268 . S
C358 O373 1.268 . S
C359 O365 1.268 . S
C359 O369 1.268 . S
C360 O366 1.268 . S
C360 O368 1.268 . S
C361 O367 1.268 . S
C361 O370 1.268 . S
O362 Sc352 2.105 1_556 S
O362 C356 1.268 . S
O363 Sc353 2.105 . S
O363 C357 1.268 . S
O364 Sc354 2.105 . S
O364 C358 1.268 . S
O365 Sc352 2.105 . S
O365 C359 1.268 . S
O366 Sc354 2.105 . S
O366 C360 1.268 . S
O367 Sc353 2.105 . S
O367 C361 1.268 . S
O368 Sc352 2.105 . S
O368 C360 1.268 . S
O369 Sc353 2.105 . S
O369 C359 1.268 . S
O370 Sc354 2.105 . S
O370 C361 1.268 . S
O371 Sc352 2.105 . S
O371 C357 1.268 . S
O372 Sc354 2.105 1_556 S
O372 C356 1.268 . S
O373 Sc353 2.105 . S
O373 C358 1.268 . S
Sc374 O377 2.025 . S
Sc374 O384 2.105 . S
Sc374 O387 2.105 . S
Sc374 O390 2.105 1_556 S
Sc374 O393 2.105 . S
Sc375 O377 2.025 . S
Sc375 O385 2.105 . S
Sc375 O389 2.105 . S
Sc375 O391 2.105 . S
Sc375 O395 2.105 . S
Sc376 O377 2.025 . S
Sc376 O386 2.105 . S
Sc376 O388 2.105 1_556 S
Sc376 O392 2.105 . S
Sc376 O394 2.105 . S
O377 Sc374 2.025 . S
O377 Sc375 2.025 . S
O377 Sc376 2.025 . S
C378 O384 1.268 . S
C378 O394 1.268 . S
C379 O385 1.268 . S
C379 O393 1.268 . S
C380 O386 1.268 . S
C380 O395 1.268 . S
C381 O387 1.268 . S
C381 O391 1.268 . S
C382 O388 1.268 . S
C382 O390 1.268 . S
C383 O389 1.268 . S
C383 O392 1.268 . S
O384 Sc374 2.105 . S
O384 C378 1.268 . S
O385 Sc375 2.105 . S
O385 C379 1.268 . S
O386 Sc376 2.105 . S
O386 C380 1.268 . S
O387 Sc374 2.105 . S
O387 C381 1.268 . S
O388 Sc376 2.105 1_554 S
O388 C382 1.268 . S
O389 Sc375 2.105 . S
O389 C383 1.268 . S
O390 Sc374 2.105 1_554 S
O390 C382 1.268 . S
O391 Sc375 2.105 . S
O391 C381 1.268 . S
O392 Sc376 2.105 . S
O392 C383 1.268 . S
O393 Sc374 2.105 . S
O393 C379 1.268 . S
O394 Sc376 2.105 . S
O394 C378 1.268 . S
O395 Sc375 2.105 . S
O395 C380 1.268 . S
Sc396 O399 2.025 . S
Sc396 O406 2.105 . S
Sc396 O409 2.105 . S
Sc396 O412 2.105 . S
Sc396 O415 2.105 . S
Sc397 O399 2.025 . S
Sc397 O407 2.105 . S
Sc397 O411 2.105 . S
Sc397 O413 2.105 . S
Sc397 O417 2.105 . S
Sc398 O399 2.025 . S
Sc398 O408 2.105 . S
Sc398 O410 2.105 . S
Sc398 O414 2.105 . S
Sc398 O416 2.105 . S
O399 Sc396 2.025 . S
O399 Sc397 2.025 . S
O399 Sc398 2.025 . S
C400 O406 1.268 . S
C400 O416 1.268 . S
C401 O407 1.268 . S
C401 O415 1.268 . S
C402 O408 1.268 . S
C402 O417 1.268 . S
C403 O409 1.268 . S
C403 O413 1.268 . S
C404 O410 1.268 . S
C404 O412 1.268 . S
C405 O411 1.268 . S
C405 O414 1.268 . S
O406 Sc396 2.105 . S
O406 C400 1.268 . S
O407 Sc397 2.105 . S
O407 C401 1.268 . S
O408 Sc398 2.105 . S
O408 C402 1.268 . S
O409 Sc396 2.105 . S
O409 C403 1.268 . S
O410 Sc398 2.105 . S
O410 C404 1.268 . S
O411 Sc397 2.105 . S
O411 C405 1.268 . S
O412 Sc396 2.105 . S
O412 C404 1.268 . S
O413 Sc397 2.105 . S
O413 C403 1.268 . S
O414 Sc398 2.105 . S
O414 C405 1.268 . S
O415 Sc396 2.105 . S
O415 C401 1.268 . S
O416 Sc398 2.105 . S
O416 C400 1.268 . S
O417 Sc397 2.105 . S
O417 C402 1.268 . S
Sc418 O421 2.025 . S
Sc418 O428 2.105 . S
Sc418 O431 2.105 . S
Sc418 O434 2.105 . S
Sc418 O437 2.105 . S
Sc419 O421 2.025 . S
Sc419 O429 2.105 . S
Sc419 O433 2.105 . S
Sc419 O435 2.105 . S
Sc419 O439 2.105 . S
Sc420 O421 2.025 . S
Sc420 O430 2.105 . S
Sc420 O432 2.105 . S
Sc420 O436 2.105 . S
Sc420 O438 2.105 . S
O421 Sc418 2.025 . S
O421 Sc419 2.025 . S
O421 Sc420 2.025 . S
C422 O428 1.268 . S
C422 O438 1.268 . S
C423 O429 1.268 . S
C423 O437 1.268 . S
C424 O430 1.268 . S
C424 O439 1.268 . S
C425 O431 1.268 . S
C425 O435 1.268 . S
C426 O432 1.268 . S
C426 O434 1.268 . S
C427 O433 1.268 . S
C427 O436 1.268 . S
O428 Sc418 2.105 . S
O428 C422 1.268 . S
O429 Sc419 2.105 . S
O429 C423 1.268 . S
O430 Sc420 2.105 . S
O430 C424 1.268 . S
O431 Sc418 2.105 . S
O431 C425 1.268 . S
O432 Sc420 2.105 . S
O432 C426 1.268 . S
O433 Sc419 2.105 . S
O433 C427 1.268 . S
O434 Sc418 2.105 . S
O434 C426 1.268 . S
O435 Sc419 2.105 . S
O435 C425 1.268 . S
O436 Sc420 2.105 . S
O436 C427 1.268 . S
O437 Sc418 2.105 . S
O437 C423 1.268 . S
O438 Sc420 2.105 . S
O438 C422 1.268 . S
O439 Sc419 2.105 . S
O439 C424 1.268 . S
Sc440 O443 2.025 . S
Sc440 O450 2.105 . S
Sc440 O453 2.105 . S
Sc440 O456 2.105 . S
Sc440 O459 2.105 . S
Sc441 O443 2.025 . S
Sc441 O451 2.105 . S
Sc441 O455 2.105 . S
Sc441 O457 2.105 . S
Sc441 O461 2.105 . S
Sc442 O443 2.025 . S
Sc442 O452 2.105 . S
Sc442 O454 2.105 . S
Sc442 O458 2.105 . S
Sc442 O460 2.105 . S
O443 Sc440 2.025 . S
O443 Sc441 2.025 . S
O443 Sc442 2.025 . S
C444 O450 1.268 . S
C444 O460 1.268 . S
C445 O451 1.268 . S
C445 O459 1.268 . S
C446 O452 1.268 . S
C446 O461 1.268 . S
C447 O453 1.268 . S
C447 O457 1.268 . S
C448 O454 1.268 . S
C448 O456 1.268 . S
C449 O455 1.268 . S
C449 O458 1.268 . S
O450 Sc440 2.105 . S
O450 C444 1.268 . S
O451 Sc441 2.105 . S
O451 C445 1.268 . S
O452 Sc442 2.105 . S
O452 C446 1.268 . S
O453 Sc440 2.105 . S
O453 C447 1.268 . S
O454 Sc442 2.105 . S
O454 C448 1.268 . S
O455 Sc441 2.105 . S
O455 C449 1.268 . S
O456 Sc440 2.105 . S
O456 C448 1.268 . S
O457 Sc441 2.105 . S
O457 C447 1.268 . S
O458 Sc442 2.105 . S
O458 C449 1.268 . S
O459 Sc440 2.105 . S
O459 C445 1.268 . S
O460 Sc442 2.105 . S
O460 C444 1.268 . S
O461 Sc441 2.105 . S
O461 C446 1.268 . S
Sc462 O465 2.025 . S
Sc462 O472 2.105 . S
Sc462 O475 2.105 . S
Sc462 O478 2.105 . S
Sc462 O481 2.105 . S
Sc463 O465 2.025 . S
Sc463 O473 2.105 . S
Sc463 O477 2.105 . S
Sc463 O479 2.105 . S
Sc463 O483 2.105 . S
Sc464 O465 2.025 . S
Sc464 O474 2.105 . S
Sc464 O476 2.105 . S
Sc464 O480 2.105 . S
Sc464 O482 2.105 . S
O465 Sc462 2.025 . S
O465 Sc463 2.025 . S
O465 Sc464 2.025 . S
C466 O472 1.268 . S
C466 O482 1.268 . S
C467 O473 1.268 . S
C467 O481 1.268 . S
C468 O474 1.268 . S
C468 O483 1.268 . S
C469 O475 1.268 . S
C469 O479 1.268 . S
C470 O476 1.268 . S
C470 O478 1.268 . S
C471 O477 1.268 . S
C471 O480 1.268 . S
O472 Sc462 2.105 . S
O472 C466 1.268 . S
O473 Sc463 2.105 . S
O473 C467 1.268 . S
O474 Sc464 2.105 . S
O474 C468 1.268 . S
O475 Sc462 2.105 . S
O475 C469 1.268 . S
O476 Sc464 2.105 . S
O476 C470 1.268 . S
O477 Sc463 2.105 . S
O477 C471 1.268 . S
O478 Sc462 2.105 . S
O478 C470 1.268 . S
O479 Sc463 2.105 . S
O479 C469 1.268 . S
O480 Sc464 2.105 . S
O480 C471 1.268 . S
O481 Sc462 2.105 . S
O481 C467 1.268 . S
O482 Sc464 2.105 . S
O482 C466 1.268 . S
O483 Sc463 2.105 . S
O483 C468 1.268 . S
Sc484 O487 2.025 . S
Sc484 O494 2.105 . S
Sc484 O497 2.105 . S
Sc484 O500 2.105 . S
Sc484 O503 2.105 . S
Sc485 O487 2.025 . S
Sc485 O495 2.105 . S
Sc485 O499 2.105 . S
Sc485 O501 2.105 . S
Sc485 O505 2.105 . S
Sc486 O487 2.025 . S
Sc486 O496 2.105 . S
Sc486 O498 2.105 . S
Sc486 O502 2.105 . S
Sc486 O504 2.105 . S
O487 Sc484 2.025 . S
O487 Sc485 2.025 . S
O487 Sc486 2.025 . S
C488 O494 1.268 . S
C488 O504 1.268 . S
C489 O495 1.268 . S
C489 O503 1.268 . S
C490 O496 1.268 . S
C490 O505 1.268 . S
C491 O497 1.268 . S
C491 O501 1.268 . S
C492 O498 1.268 . S
C492 O500 1.268 . S
C493 O499 1.268 . S
C493 O502 1.268 . S
O494 Sc484 2.105 . S
O494 C488 1.268 . S
O495 Sc485 2.105 . S
O495 C489 1.268 . S
O496 Sc486 2.105 . S
O496 C490 1.268 . S
O497 Sc484 2.105 . S
O497 C491 1.268 . S
O498 Sc486 2.105 . S
O498 C492 1.268 . S
O499 Sc485 2.105 . S
O499 C493 1.268 . S
O500 Sc484 2.105 . S
O500 C492 1.268 . S
O501 Sc485 2.105 . S
O501 C491 1.268 . S
O502 Sc486 2.105 . S
O502 C493 1.268 . S
O503 Sc484 2.105 . S
O503 C489 1.268 . S
O504 Sc486 2.105 . S
O504 C488 1.268 . S
O505 Sc485 2.105 . S
O505 C490 1.268 . S
Sc506 O509 2.025 . S
Sc506 O516 2.105 . S
Sc506 O519 2.105 . S
Sc506 O522 2.105 . S
Sc506 O525 2.105 . S
Sc507 O509 2.025 . S
Sc507 O517 2.105 . S
Sc507 O521 2.105 . S
Sc507 O523 2.105 . S
Sc507 O527 2.105 . S
Sc508 O509 2.025 . S
Sc508 O518 2.105 . S
Sc508 O520 2.105 . S
Sc508 O524 2.105 . S
Sc508 O526 2.105 . S
O509 Sc506 2.025 . S
O509 Sc507 2.025 . S
O509 Sc508 2.025 . S
C510 O516 1.268 . S
C510 O526 1.268 . S
C511 O517 1.268 . S
C511 O525 1.268 . S
C512 O518 1.268 . S
C512 O527 1.268 . S
C513 O519 1.268 . S
C513 O523 1.268 . S
C514 O520 1.268 . S
C514 O522 1.268 . S
C515 O521 1.268 . S
C515 O524 1.268 . S
O516 Sc506 2.105 . S
O516 C510 1.268 . S
O517 Sc507 2.105 . S
O517 C511 1.268 . S
O518 Sc508 2.105 . S
O518 C512 1.268 . S
O519 Sc506 2.105 . S
O519 C513 1.268 . S
O520 Sc508 2.105 . S
O520 C514 1.268 . S
O521 Sc507 2.105 . S
O521 C515 1.268 . S
O522 Sc506 2.105 . S
O522 C514 1.268 . S
O523 Sc507 2.105 . S
O523 C513 1.268 . S
O524 Sc508 2.105 . S
O524 C515 1.268 . S
O525 Sc506 2.105 . S
O525 C511 1.268 . S
O526 Sc508 2.105 . S
O526 C510 1.268 . S
O527 Sc507 2.105 . S
O527 C512 1.268 . S
H528 C536 0.929 . S
H529 C538 0.930 . S
H530 C540 0.930 . S
H531 C543 0.929 . S
H532 C546 0.930 . S
H533 C548 0.960 . S
H534 C548 0.960 . S
H535 C548 0.960 . S
C536 H528 0.929 . S
C536 C537 1.377 . S
C536 C538 1.384 . S
C537 C536 1.377 . S
C537 C543 1.390 . S
C538 H529 0.930 . S
C538 C536 1.384 . S
C538 C539 1.372 . S
C539 C538 1.372 . S
C539 C540 1.400 . S
C539 C544 1.490 . S
C540 H530 0.930 . S
C540 C539 1.400 . S
C540 C543 1.386 . S
H541 C557 0.930 . S
H542 C558 0.931 . S
C543 H531 0.929 . S
C543 C537 1.390 . S
C543 C540 1.386 . S
C544 C539 1.490 . S
C544 C546 1.395 . S
C544 C547 1.403 . S
H545 C551 0.930 . S
C546 H532 0.930 . S
C546 C544 1.395 . S
C546 C549 1.403 . S
C547 C544 1.403 . S
C547 C548 1.524 . S
C547 C551 1.400 . S
C548 H533 0.960 . S
C548 H534 0.960 . S
C548 H535 0.960 . S
C548 C547 1.524 . S
C549 C546 1.403 . S
C549 C550 1.392 . S
C549 C553 1.495 . S
C550 C549 1.392 . S
C550 C551 1.385 . S
C550 C552 1.478 . S
C551 H545 0.930 . S
C551 C547 1.400 . S
C551 C550 1.385 . S
C552 C550 1.478 . S
C552 C554 1.381 . S
C552 C558 1.383 . S
C553 C549 1.495 . S
C553 H559 0.959 . S
C553 H560 0.961 . S
C553 H561 0.960 . S
C554 C552 1.381 . S
C554 C555 1.394 . S
C554 H562 0.930 . S
C555 C554 1.394 . S
C555 C556 1.383 . S
C555 H563 0.929 . S
C556 C555 1.383 . S
C556 C557 1.377 . S
C557 H541 0.930 . S
C557 C556 1.377 . S
C557 C558 1.379 . S
C558 H542 0.931 . S
C558 C552 1.383 . S
C558 C557 1.379 . S
H559 C553 0.959 . S
H560 C553 0.961 . S
H561 C553 0.960 . S
H562 C554 0.930 . S
H563 C555 0.929 . S
H564 C572 0.929 . S
H565 C574 0.930 . S
H566 C576 0.930 . S
H567 C579 0.929 . S
H568 C582 0.930 . S
H569 C584 0.960 . S
H570 C584 0.960 . S
H571 C584 0.960 . S
C572 H564 0.929 . S
C572 C573 1.377 . S
C572 C574 1.384 . S
C573 C572 1.377 . S
C573 C579 1.390 . S
C574 H565 0.930 . S
C574 C572 1.384 . S
C574 C575 1.372 . S
C575 C574 1.372 . S
C575 C576 1.400 . S
C575 C580 1.490 . S
C576 H566 0.930 . S
C576 C575 1.400 . S
C576 C579 1.386 . S
H577 C593 0.930 . S
H578 C594 0.931 . S
C579 H567 0.929 . S
C579 C573 1.390 . S
C579 C576 1.386 . S
C580 C575 1.490 . S
C580 C582 1.395 . S
C580 C583 1.403 . S
H581 C587 0.930 . S
C582 H568 0.930 . S
C582 C580 1.395 . S
C582 C585 1.403 . S
C583 C580 1.403 . S
C583 C584 1.524 . S
C583 C587 1.400 . S
C584 H569 0.960 . S
C584 H570 0.960 . S
C584 H571 0.960 . S
C584 C583 1.524 . S
C585 C582 1.403 . S
C585 C586 1.392 . S
C585 C589 1.495 . S
C586 C585 1.392 . S
C586 C587 1.385 . S
C586 C588 1.478 . S
C587 H581 0.930 . S
C587 C583 1.400 . S
C587 C586 1.385 . S
C588 C586 1.478 . S
C588 C590 1.381 . S
C588 C594 1.383 . S
C589 C585 1.495 . S
C589 H595 0.959 . S
C589 H596 0.961 . S
C589 H597 0.960 . S
C590 C588 1.381 . S
C590 C591 1.394 . S
C590 H598 0.930 . S
C591 C590 1.394 . S
C591 C592 1.383 . S
C591 H599 0.929 . S
C592 C591 1.383 . S
C592 C593 1.377 . S
C593 H577 0.930 . S
C593 C592 1.377 . S
C593 C594 1.379 . S
C594 H578 0.931 . S
C594 C588 1.383 . S
C594 C593 1.379 . S
H595 C589 0.959 . S
H596 C589 0.961 . S
H597 C589 0.960 . S
H598 C590 0.930 . S
H599 C591 0.929 . S
H600 C608 0.929 . S
H601 C610 0.930 . S
H602 C612 0.930 . S
H603 C615 0.929 . S
H604 C618 0.930 . S
H605 C620 0.960 . S
H606 C620 0.960 . S
H607 C620 0.960 . S
C608 H600 0.929 . S
C608 C609 1.377 . S
C608 C610 1.384 . S
C609 C608 1.377 . S
C609 C615 1.390 . S
C610 H601 0.930 . S
C610 C608 1.384 . S
C610 C611 1.372 . S
C611 C610 1.372 . S
C611 C612 1.400 . S
C611 C616 1.490 . S
C612 H602 0.930 . S
C612 C611 1.400 . S
C612 C615 1.386 . S
H613 C629 0.930 . S
H614 C630 0.931 . S
C615 H603 0.929 . S
C615 C609 1.390 . S
C615 C612 1.386 . S
C616 C611 1.490 . S
C616 C618 1.395 . S
C616 C619 1.403 . S
H617 C623 0.930 . S
C618 H604 0.930 . S
C618 C616 1.395 . S
C618 C621 1.403 . S
C619 C616 1.403 . S
C619 C620 1.524 . S
C619 C623 1.400 . S
C620 H605 0.960 . S
C620 H606 0.960 . S
C620 H607 0.960 . S
C620 C619 1.524 . S
C621 C618 1.403 . S
C621 C622 1.392 . S
C621 C625 1.495 . S
C622 C621 1.392 . S
C622 C623 1.385 . S
C622 C624 1.478 . S
C623 H617 0.930 . S
C623 C619 1.400 . S
C623 C622 1.385 . S
C624 C622 1.478 . S
C624 C626 1.381 . S
C624 C630 1.383 . S
C625 C621 1.495 . S
C625 H631 0.959 . S
C625 H632 0.961 . S
C625 H633 0.960 . S
C626 C624 1.381 . S
C626 C627 1.394 . S
C626 H634 0.930 . S
C627 C626 1.394 . S
C627 C628 1.383 . S
C627 H635 0.929 . S
C628 C627 1.383 . S
C628 C629 1.377 . S
C629 H613 0.930 . S
C629 C628 1.377 . S
C629 C630 1.379 . S
C630 H614 0.931 . S
C630 C624 1.383 . S
C630 C629 1.379 . S
H631 C625 0.959 . S
H632 C625 0.961 . S
H633 C625 0.960 . S
H634 C626 0.930 . S
H635 C627 0.929 . S
H636 C644 0.929 . S
H637 C646 0.930 . S
H638 C648 0.930 . S
H639 C651 0.929 . S
H640 C654 0.930 . S
H641 C656 0.960 . S
H642 C656 0.960 . S
H643 C656 0.960 . S
C644 H636 0.929 . S
C644 C645 1.377 . S
C644 C646 1.384 . S
C645 C644 1.377 . S
C645 C651 1.390 . S
C646 H637 0.930 . S
C646 C644 1.384 . S
C646 C647 1.372 . S
C647 C646 1.372 . S
C647 C648 1.400 . S
C647 C652 1.490 . S
C648 H638 0.930 . S
C648 C647 1.400 . S
C648 C651 1.386 . S
H649 C665 0.930 . S
H650 C666 0.931 . S
C651 H639 0.929 . S
C651 C645 1.390 . S
C651 C648 1.386 . S
C652 C647 1.490 . S
C652 C654 1.395 . S
C652 C655 1.403 . S
H653 C659 0.930 . S
C654 H640 0.930 . S
C654 C652 1.395 . S
C654 C657 1.403 . S
C655 C652 1.403 . S
C655 C656 1.524 . S
C655 C659 1.400 . S
C656 H641 0.960 . S
C656 H642 0.960 . S
C656 H643 0.960 . S
C656 C655 1.524 . S
C657 C654 1.403 . S
C657 C658 1.392 . S
C657 C661 1.495 . S
C658 C657 1.392 . S
C658 C659 1.385 . S
C658 C660 1.478 . S
C659 H653 0.930 . S
C659 C655 1.400 . S
C659 C658 1.385 . S
C660 C658 1.478 . S
C660 C662 1.381 . S
C660 C666 1.383 . S
C661 C657 1.495 . S
C661 H667 0.959 . S
C661 H668 0.961 . S
C661 H669 0.960 . S
C662 C660 1.381 . S
C662 C663 1.394 . S
C662 H670 0.930 . S
C663 C662 1.394 . S
C663 C664 1.383 . S
C663 H671 0.929 . S
C664 C663 1.383 . S
C664 C665 1.377 . S
C665 H649 0.930 . S
C665 C664 1.377 . S
C665 C666 1.379 . S
C666 H650 0.931 . S
C666 C660 1.383 . S
C666 C665 1.379 . S
H667 C661 0.959 . S
H668 C661 0.961 . S
H669 C661 0.960 . S
H670 C662 0.930 . S
H671 C663 0.929 . S
H672 C680 0.929 . S
H673 C682 0.930 . S
H674 C684 0.930 . S
H675 C687 0.929 . S
H676 C690 0.930 . S
H677 C692 0.960 . S
H678 C692 0.960 . S
H679 C692 0.960 . S
C680 H672 0.929 . S
C680 C681 1.377 . S
C680 C682 1.384 . S
C681 C680 1.377 . S
C681 C687 1.390 . S
C682 H673 0.930 . S
C682 C680 1.384 . S
C682 C683 1.372 . S
C683 C682 1.372 . S
C683 C684 1.400 . S
C683 C688 1.490 . S
C684 H674 0.930 . S
C684 C683 1.400 . S
C684 C687 1.386 . S
H685 C701 0.930 . S
H686 C702 0.931 . S
C687 H675 0.929 . S
C687 C681 1.390 . S
C687 C684 1.386 . S
C688 C683 1.490 . S
C688 C690 1.395 . S
C688 C691 1.403 . S
H689 C695 0.930 . S
C690 H676 0.930 . S
C690 C688 1.395 . S
C690 C693 1.403 . S
C691 C688 1.403 . S
C691 C692 1.524 . S
C691 C695 1.400 . S
C692 H677 0.960 . S
C692 H678 0.960 . S
C692 H679 0.960 . S
C692 C691 1.524 . S
C693 C690 1.403 . S
C693 C694 1.392 . S
C693 C697 1.495 . S
C694 C693 1.392 . S
C694 C695 1.385 . S
C694 C696 1.478 . S
C695 H689 0.930 . S
C695 C691 1.400 . S
C695 C694 1.385 . S
C696 C694 1.478 . S
C696 C698 1.381 . S
C696 C702 1.383 . S
C697 C693 1.495 . S
C697 H703 0.959 . S
C697 H704 0.961 . S
C697 H705 0.960 . S
C698 C696 1.381 . S
C698 C699 1.394 . S
C698 H706 0.930 . S
C699 C698 1.394 . S
C699 C700 1.383 . S
C699 H707 0.929 . S
C700 C699 1.383 . S
C700 C701 1.377 . S
C701 H685 0.930 . S
C701 C700 1.377 . S
C701 C702 1.379 . S
C702 H686 0.931 . S
C702 C696 1.383 . S
C702 C701 1.379 . S
H703 C697 0.959 . S
H704 C697 0.961 . S
H705 C697 0.960 . S
H706 C698 0.930 . S
H707 C699 0.929 . S
H708 C716 0.929 . S
H709 C718 0.930 . S
H710 C720 0.930 . S
H711 C723 0.929 . S
H712 C726 0.930 . S
H713 C728 0.960 . S
H714 C728 0.960 . S
H715 C728 0.960 . S
C716 H708 0.929 . S
C716 C717 1.377 . S
C716 C718 1.384 . S
C717 C716 1.377 . S
C717 C723 1.390 . S
C718 H709 0.930 . S
C718 C716 1.384 . S
C718 C719 1.372 . S
C719 C718 1.372 . S
C719 C720 1.400 . S
C719 C724 1.490 . S
C720 H710 0.930 . S
C720 C719 1.400 . S
C720 C723 1.386 . S
H721 C737 0.930 . S
H722 C738 0.931 . S
C723 H711 0.929 . S
C723 C717 1.390 . S
C723 C720 1.386 . S
C724 C719 1.490 . S
C724 C726 1.395 . S
C724 C727 1.403 . S
H725 C731 0.930 . S
C726 H712 0.930 . S
C726 C724 1.395 . S
C726 C729 1.403 . S
C727 C724 1.403 . S
C727 C728 1.524 . S
C727 C731 1.400 . S
C728 H713 0.960 . S
C728 H714 0.960 . S
C728 H715 0.960 . S
C728 C727 1.524 . S
C729 C726 1.403 . S
C729 C730 1.392 . S
C729 C733 1.495 . S
C730 C729 1.392 . S
C730 C731 1.385 . S
C730 C732 1.478 . S
C731 H725 0.930 . S
C731 C727 1.400 . S
C731 C730 1.385 . S
C732 C730 1.478 . S
C732 C734 1.381 . S
C732 C738 1.383 . S
C733 C729 1.495 . S
C733 H739 0.959 . S
C733 H740 0.961 . S
C733 H741 0.960 . S
C734 C732 1.381 . S
C734 C735 1.394 . S
C734 H742 0.930 . S
C735 C734 1.394 . S
C735 C736 1.383 . S
C735 H743 0.929 . S
C736 C735 1.383 . S
C736 C737 1.377 . S
C737 H721 0.930 . S
C737 C736 1.377 . S
C737 C738 1.379 . S
C738 H722 0.931 . S
C738 C732 1.383 . S
C738 C737 1.379 . S
H739 C733 0.959 . S
H740 C733 0.961 . S
H741 C733 0.960 . S
H742 C734 0.930 . S
H743 C735 0.929 . S
H744 C752 0.929 . S
H745 C754 0.930 . S
H746 C756 0.930 . S
H747 C759 0.929 . S
H748 C762 0.930 . S
H749 C764 0.960 . S
H750 C764 0.960 . S
H751 C764 0.960 . S
C752 H744 0.929 . S
C752 C753 1.377 . S
C752 C754 1.384 . S
C753 C752 1.377 . S
C753 C759 1.390 . S
C754 H745 0.930 . S
C754 C752 1.384 . S
C754 C755 1.372 . S
C755 C754 1.372 . S
C755 C756 1.400 . S
C755 C760 1.490 . S
C756 H746 0.930 . S
C756 C755 1.400 . S
C756 C759 1.386 . S
H757 C773 0.930 . S
H758 C774 0.931 . S
C759 H747 0.929 . S
C759 C753 1.390 . S
C759 C756 1.386 . S
C760 C755 1.490 . S
C760 C762 1.395 . S
C760 C763 1.403 . S
H761 C767 0.930 . S
C762 H748 0.930 . S
C762 C760 1.395 . S
C762 C765 1.403 . S
C763 C760 1.403 . S
C763 C764 1.524 . S
C763 C767 1.400 . S
C764 H749 0.960 . S
C764 H750 0.960 . S
C764 H751 0.960 . S
C764 C763 1.524 . S
C765 C762 1.403 . S
C765 C766 1.392 . S
C765 C769 1.495 . S
C766 C765 1.392 . S
C766 C767 1.385 . S
C766 C768 1.478 . S
C767 H761 0.930 . S
C767 C763 1.400 . S
C767 C766 1.385 . S
C768 C766 1.478 . S
C768 C770 1.381 . S
C768 C774 1.383 . S
C769 C765 1.495 . S
C769 H775 0.959 . S
C769 H776 0.961 . S
C769 H777 0.960 . S
C770 C768 1.381 . S
C770 C771 1.394 . S
C770 H778 0.930 . S
C771 C770 1.394 . S
C771 C772 1.383 . S
C771 H779 0.929 . S
C772 C771 1.383 . S
C772 C773 1.377 . S
C773 H757 0.930 . S
C773 C772 1.377 . S
C773 C774 1.379 . S
C774 H758 0.931 . S
C774 C768 1.383 . S
C774 C773 1.379 . S
H775 C769 0.959 . S
H776 C769 0.961 . S
H777 C769 0.960 . S
H778 C770 0.930 . S
H779 C771 0.929 . S
H780 C788 0.929 . S
H781 C790 0.930 . S
H782 C792 0.930 . S
H783 C795 0.929 . S
H784 C798 0.930 . S
H785 C800 0.960 . S
H786 C800 0.960 . S
H787 C800 0.960 . S
C788 H780 0.929 . S
C788 C789 1.377 . S
C788 C790 1.384 . S
C789 C788 1.377 . S
C789 C795 1.390 . S
C790 H781 0.930 . S
C790 C788 1.384 . S
C790 C791 1.372 . S
C791 C790 1.372 . S
C791 C792 1.400 . S
C791 C796 1.490 . S
C792 H782 0.930 . S
C792 C791 1.400 . S
C792 C795 1.386 . S
H793 C809 0.930 . S
H794 C810 0.931 . S
C795 H783 0.929 . S
C795 C789 1.390 . S
C795 C792 1.386 . S
C796 C791 1.490 . S
C796 C798 1.395 . S
C796 C799 1.403 . S
H797 C803 0.930 . S
C798 H784 0.930 . S
C798 C796 1.395 . S
C798 C801 1.403 . S
C799 C796 1.403 . S
C799 C800 1.524 . S
C799 C803 1.400 . S
C800 H785 0.960 . S
C800 H786 0.960 . S
C800 H787 0.960 . S
C800 C799 1.524 . S
C801 C798 1.403 . S
C801 C802 1.392 . S
C801 C805 1.495 . S
C802 C801 1.392 . S
C802 C803 1.385 . S
C802 C804 1.478 . S
C803 H797 0.930 . S
C803 C799 1.400 . S
C803 C802 1.385 . S
C804 C802 1.478 . S
C804 C806 1.381 . S
C804 C810 1.383 . S
C805 C801 1.495 . S
C805 H811 0.959 . S
C805 H812 0.961 . S
C805 H813 0.960 . S
C806 C804 1.381 . S
C806 C807 1.394 . S
C806 H814 0.930 . S
C807 C806 1.394 . S
C807 C808 1.383 . S
C807 H815 0.929 . S
C808 C807 1.383 . S
C808 C809 1.377 . S
C809 H793 0.930 . S
C809 C808 1.377 . S
C809 C810 1.379 . S
C810 H794 0.931 . S
C810 C804 1.383 . S
C810 C809 1.379 . S
H811 C805 0.959 . S
H812 C805 0.961 . S
H813 C805 0.960 . S
H814 C806 0.930 . S
H815 C807 0.929 . S
H816 C824 0.929 . S
H817 C826 0.930 . S
H818 C828 0.930 . S
H819 C831 0.929 . S
H820 C834 0.930 . S
H821 C836 0.960 . S
H822 C836 0.960 . S
H823 C836 0.960 . S
C824 H816 0.929 . S
C824 C825 1.377 . S
C824 C826 1.384 . S
C825 C824 1.377 . S
C825 C831 1.390 . S
C826 H817 0.930 . S
C826 C824 1.384 . S
C826 C827 1.372 . S
C827 C826 1.372 . S
C827 C828 1.400 . S
C827 C832 1.490 . S
C828 H818 0.930 . S
C828 C827 1.400 . S
C828 C831 1.386 . S
H829 C845 0.930 . S
H830 C846 0.931 . S
C831 H819 0.929 . S
C831 C825 1.390 . S
C831 C828 1.386 . S
C832 C827 1.490 . S
C832 C834 1.395 . S
C832 C835 1.403 . S
H833 C839 0.930 . S
C834 H820 0.930 . S
C834 C832 1.395 . S
C834 C837 1.403 . S
C835 C832 1.403 . S
C835 C836 1.524 . S
C835 C839 1.400 . S
C836 H821 0.960 . S
C836 H822 0.960 . S
C836 H823 0.960 . S
C836 C835 1.524 . S
C837 C834 1.403 . S
C837 C838 1.392 . S
C837 C841 1.495 . S
C838 C837 1.392 . S
C838 C839 1.385 . S
C838 C840 1.478 . S
C839 H833 0.930 . S
C839 C835 1.400 . S
C839 C838 1.385 . S
C840 C838 1.478 . S
C840 C842 1.381 . S
C840 C846 1.383 . S
C841 C837 1.495 . S
C841 H847 0.959 . S
C841 H848 0.961 . S
C841 H849 0.960 . S
C842 C840 1.381 . S
C842 C843 1.394 . S
C842 H850 0.930 . S
C843 C842 1.394 . S
C843 C844 1.383 . S
C843 H851 0.929 . S
C844 C843 1.383 . S
C844 C845 1.377 . S
C845 H829 0.930 . S
C845 C844 1.377 . S
C845 C846 1.379 . S
C846 H830 0.931 . S
C846 C840 1.383 . S
C846 C845 1.379 . S
H847 C841 0.959 . S
H848 C841 0.961 . S
H849 C841 0.960 . S
H850 C842 0.930 . S
H851 C843 0.929 . S
H852 C860 0.929 . S
H853 C862 0.930 . S
H854 C864 0.930 . S
H855 C867 0.929 . S
H856 C870 0.930 . S
H857 C872 0.960 . S
H858 C872 0.960 . S
H859 C872 0.960 . S
C860 H852 0.929 . S
C860 C861 1.377 . S
C860 C862 1.384 . S
C861 C860 1.377 . S
C861 C867 1.390 . S
C862 H853 0.930 . S
C862 C860 1.384 . S
C862 C863 1.372 . S
C863 C862 1.372 . S
C863 C864 1.400 . S
C863 C868 1.490 . S
C864 H854 0.930 . S
C864 C863 1.400 . S
C864 C867 1.386 . S
H865 C881 0.930 . S
H866 C882 0.931 . S
C867 H855 0.929 . S
C867 C861 1.390 . S
C867 C864 1.386 . S
C868 C863 1.490 . S
C868 C870 1.395 . S
C868 C871 1.403 . S
H869 C875 0.930 . S
C870 H856 0.930 . S
C870 C868 1.395 . S
C870 C873 1.403 . S
C871 C868 1.403 . S
C871 C872 1.524 . S
C871 C875 1.400 . S
C872 H857 0.960 . S
C872 H858 0.960 . S
C872 H859 0.960 . S
C872 C871 1.524 . S
C873 C870 1.403 . S
C873 C874 1.392 . S
C873 C877 1.495 . S
C874 C873 1.392 . S
C874 C875 1.385 . S
C874 C876 1.478 . S
C875 H869 0.930 . S
C875 C871 1.400 . S
C875 C874 1.385 . S
C876 C874 1.478 . S
C876 C878 1.381 . S
C876 C882 1.383 . S
C877 C873 1.495 . S
C877 H883 0.959 . S
C877 H884 0.961 . S
C877 H885 0.960 . S
C878 C876 1.381 . S
C878 C879 1.394 . S
C878 H886 0.930 . S
C879 C878 1.394 . S
C879 C880 1.383 . S
C879 H887 0.929 . S
C880 C879 1.383 . S
C880 C881 1.377 . S
C881 H865 0.930 . S
C881 C880 1.377 . S
C881 C882 1.379 . S
C882 H866 0.931 . S
C882 C876 1.383 . S
C882 C881 1.379 . S
H883 C877 0.959 . S
H884 C877 0.961 . S
H885 C877 0.960 . S
H886 C878 0.930 . S
H887 C879 0.929 . S
H888 C896 0.929 . S
H889 C898 0.930 . S
H890 C900 0.930 . S
H891 C903 0.929 . S
H892 C906 0.930 . S
H893 C908 0.960 . S
H894 C908 0.960 . S
H895 C908 0.960 . S
C896 H888 0.929 . S
C896 C897 1.377 . S
C896 C898 1.384 . S
C897 C896 1.377 . S
C897 C903 1.390 . S
C898 H889 0.930 . S
C898 C896 1.384 . S
C898 C899 1.372 . S
C899 C898 1.372 . S
C899 C900 1.400 . S
C899 C904 1.490 . S
C900 H890 0.930 . S
C900 C899 1.400 . S
C900 C903 1.386 . S
H901 C917 0.930 . S
H902 C918 0.931 . S
C903 H891 0.929 . S
C903 C897 1.390 . S
C903 C900 1.386 . S
C904 C899 1.490 . S
C904 C906 1.395 . S
C904 C907 1.403 . S
H905 C911 0.930 . S
C906 H892 0.930 . S
C906 C904 1.395 . S
C906 C909 1.403 . S
C907 C904 1.403 . S
C907 C908 1.524 . S
C907 C911 1.400 . S
C908 H893 0.960 . S
C908 H894 0.960 . S
C908 H895 0.960 . S
C908 C907 1.524 . S
C909 C906 1.403 . S
C909 C910 1.392 . S
C909 C913 1.495 . S
C910 C909 1.392 . S
C910 C911 1.385 . S
C910 C912 1.478 . S
C911 H905 0.930 . S
C911 C907 1.400 . S
C911 C910 1.385 . S
C912 C910 1.478 . S
C912 C914 1.381 . S
C912 C918 1.383 . S
C913 C909 1.495 . S
C913 H919 0.959 . S
C913 H920 0.961 . S
C913 H921 0.960 . S
C914 C912 1.381 . S
C914 C915 1.394 . S
C914 H922 0.930 . S
C915 C914 1.394 . S
C915 C916 1.383 . S
C915 H923 0.929 . S
C916 C915 1.383 . S
C916 C917 1.377 . S
C917 H901 0.930 . S
C917 C916 1.377 . S
C917 C918 1.379 . S
C918 H902 0.931 . S
C918 C912 1.383 . S
C918 C917 1.379 . S
H919 C913 0.959 . S
H920 C913 0.961 . S
H921 C913 0.960 . S
H922 C914 0.930 . S
H923 C915 0.929 . S
H924 C932 0.929 . S
H925 C934 0.930 . S
H926 C936 0.930 . S
H927 C939 0.929 . S
H928 C942 0.930 . S
H929 C944 0.960 . S
H930 C944 0.960 . S
H931 C944 0.960 . S
C932 H924 0.929 . S
C932 C933 1.377 . S
C932 C934 1.384 . S
C933 C932 1.377 . S
C933 C939 1.390 . S
C934 H925 0.930 . S
C934 C932 1.384 . S
C934 C935 1.372 . S
C935 C934 1.372 . S
C935 C936 1.400 . S
C935 C940 1.490 . S
C936 H926 0.930 . S
C936 C935 1.400 . S
C936 C939 1.386 . S
H937 C953 0.930 . S
H938 C954 0.931 . S
C939 H927 0.929 . S
C939 C933 1.390 . S
C939 C936 1.386 . S
C940 C935 1.490 . S
C940 C942 1.395 . S
C940 C943 1.403 . S
H941 C947 0.930 . S
C942 H928 0.930 . S
C942 C940 1.395 . S
C942 C945 1.403 . S
C943 C940 1.403 . S
C943 C944 1.524 . S
C943 C947 1.400 . S
C944 H929 0.960 . S
C944 H930 0.960 . S
C944 H931 0.960 . S
C944 C943 1.524 . S
C945 C942 1.403 . S
C945 C946 1.392 . S
C945 C949 1.495 . S
C946 C945 1.392 . S
C946 C947 1.385 . S
C946 C948 1.478 . S
C947 H941 0.930 . S
C947 C943 1.400 . S
C947 C946 1.385 . S
C948 C946 1.478 . S
C948 C950 1.381 . S
C948 C954 1.383 . S
C949 C945 1.495 . S
C949 H955 0.959 . S
C949 H956 0.961 . S
C949 H957 0.960 . S
C950 C948 1.381 . S
C950 C951 1.394 . S
C950 H958 0.930 . S
C951 C950 1.394 . S
C951 C952 1.383 . S
C951 H959 0.929 . S
C952 C951 1.383 . S
C952 C953 1.377 . S
C953 H937 0.930 . S
C953 C952 1.377 . S
C953 C954 1.379 . S
C954 H938 0.931 . S
C954 C948 1.383 . S
C954 C953 1.379 . S
H955 C949 0.959 . S
H956 C949 0.961 . S
H957 C949 0.960 . S
H958 C950 0.930 . S
H959 C951 0.929 . S
H960 C968 0.929 . S
H961 C970 0.930 . S
H962 C972 0.930 . S
H963 C975 0.929 . S
H964 C978 0.930 . S
H965 C980 0.960 . S
H966 C980 0.960 . S
H967 C980 0.960 . S
C968 H960 0.929 . S
C968 C969 1.377 . S
C968 C970 1.384 . S
C969 C968 1.377 . S
C969 C975 1.390 . S
C970 H961 0.930 . S
C970 C968 1.384 . S
C970 C971 1.372 . S
C971 C970 1.372 . S
C971 C972 1.400 . S
C971 C976 1.490 . S
C972 H962 0.930 . S
C972 C971 1.400 . S
C972 C975 1.386 . S
H973 C989 0.930 . S
H974 C990 0.931 . S
C975 H963 0.929 . S
C975 C969 1.390 . S
C975 C972 1.386 . S
C976 C971 1.490 . S
C976 C978 1.395 . S
C976 C979 1.403 . S
H977 C983 0.930 . S
C978 H964 0.930 . S
C978 C976 1.395 . S
C978 C981 1.403 . S
C979 C976 1.403 . S
C979 C980 1.524 . S
C979 C983 1.400 . S
C980 H965 0.960 . S
C980 H966 0.960 . S
C980 H967 0.960 . S
C980 C979 1.524 . S
C981 C978 1.403 . S
C981 C982 1.392 . S
C981 C985 1.495 . S
C982 C981 1.392 . S
C982 C983 1.385 . S
C982 C984 1.478 . S
C983 H977 0.930 . S
C983 C979 1.400 . S
C983 C982 1.385 . S
C984 C982 1.478 . S
C984 C986 1.381 . S
C984 C990 1.383 . S
C985 C981 1.495 . S
C985 H991 0.959 . S
C985 H992 0.961 . S
C985 H993 0.960 . S
C986 C984 1.381 . S
C986 C987 1.394 . S
C986 H994 0.930 . S
C987 C986 1.394 . S
C987 C988 1.383 . S
C987 H995 0.929 . S
C988 C987 1.383 . S
C988 C989 1.377 . S
C989 H973 0.930 . S
C989 C988 1.377 . S
C989 C990 1.379 . S
C990 H974 0.931 . S
C990 C984 1.383 . S
C990 C989 1.379 . S
H991 C985 0.959 . S
H992 C985 0.961 . S
H993 C985 0.960 . S
H994 C986 0.930 . S
H995 C987 0.929 . S
H996 C1004 0.929 . S
H997 C1006 0.930 . S
H998 C1008 0.930 . S
H999 C1011 0.929 . S
H1000 C1014 0.930 . S
H1001 C1016 0.960 . S
H1002 C1016 0.960 . S
H1003 C1016 0.960 . S
C1004 H996 0.929 . S
C1004 C1005 1.377 . S
C1004 C1006 1.384 . S
C1005 C1004 1.377 . S
C1005 C1011 1.390 . S
C1006 H997 0.930 . S
C1006 C1004 1.384 . S
C1006 C1007 1.372 . S
C1007 C1006 1.372 . S
C1007 C1008 1.400 . S
C1007 C1012 1.490 . S
C1008 H998 0.930 . S
C1008 C1007 1.400 . S
C1008 C1011 1.386 . S
H1009 C1025 0.930 . S
H1010 C1026 0.931 . S
C1011 H999 0.929 . S
C1011 C1005 1.390 . S
C1011 C1008 1.386 . S
C1012 C1007 1.490 . S
C1012 C1014 1.395 . S
C1012 C1015 1.403 . S
H1013 C1019 0.930 . S
C1014 H1000 0.930 . S
C1014 C1012 1.395 . S
C1014 C1017 1.403 . S
C1015 C1012 1.403 . S
C1015 C1016 1.524 . S
C1015 C1019 1.400 . S
C1016 H1001 0.960 . S
C1016 H1002 0.960 . S
C1016 H1003 0.960 . S
C1016 C1015 1.524 . S
C1017 C1014 1.403 . S
C1017 C1018 1.392 . S
C1017 C1021 1.495 . S
C1018 C1017 1.392 . S
C1018 C1019 1.385 . S
C1018 C1020 1.478 . S
C1019 H1013 0.930 . S
C1019 C1015 1.400 . S
C1019 C1018 1.385 . S
C1020 C1018 1.478 . S
C1020 C1022 1.381 . S
C1020 C1026 1.383 . S
C1021 C1017 1.495 . S
C1021 H1027 0.959 . S
C1021 H1028 0.961 . S
C1021 H1029 0.960 . S
C1022 C1020 1.381 . S
C1022 C1023 1.394 . S
C1022 H1030 0.930 . S
C1023 C1022 1.394 . S
C1023 C1024 1.383 . S
C1023 H1031 0.929 . S
C1024 C1023 1.383 . S
C1024 C1025 1.377 . S
C1025 H1009 0.930 . S
C1025 C1024 1.377 . S
C1025 C1026 1.379 . S
C1026 H1010 0.931 . S
C1026 C1020 1.383 . S
C1026 C1025 1.379 . S
H1027 C1021 0.959 . S
H1028 C1021 0.961 . S
H1029 C1021 0.960 . S
H1030 C1022 0.930 . S
H1031 C1023 0.929 . S
H1032 C1040 0.929 . S
H1033 C1042 0.930 . S
H1034 C1044 0.930 . S
H1035 C1047 0.929 . S
H1036 C1050 0.930 . S
H1037 C1052 0.960 . S
H1038 C1052 0.960 . S
H1039 C1052 0.960 . S
C1040 H1032 0.929 . S
C1040 C1041 1.377 . S
C1040 C1042 1.384 . S
C1041 C1040 1.377 . S
C1041 C1047 1.390 . S
C1042 H1033 0.930 . S
C1042 C1040 1.384 . S
C1042 C1043 1.372 . S
C1043 C1042 1.372 . S
C1043 C1044 1.400 . S
C1043 C1048 1.490 . S
C1044 H1034 0.930 . S
C1044 C1043 1.400 . S
C1044 C1047 1.386 . S
H1045 C1061 0.930 . S
H1046 C1062 0.931 . S
C1047 H1035 0.929 . S
C1047 C1041 1.390 . S
C1047 C1044 1.386 . S
C1048 C1043 1.490 . S
C1048 C1050 1.395 . S
C1048 C1051 1.403 . S
H1049 C1055 0.930 . S
C1050 H1036 0.930 . S
C1050 C1048 1.395 . S
C1050 C1053 1.403 . S
C1051 C1048 1.403 . S
C1051 C1052 1.524 . S
C1051 C1055 1.400 . S
C1052 H1037 0.960 . S
C1052 H1038 0.960 . S
C1052 H1039 0.960 . S
C1052 C1051 1.524 . S
C1053 C1050 1.403 . S
C1053 C1054 1.392 . S
C1053 C1057 1.495 . S
C1054 C1053 1.392 . S
C1054 C1055 1.385 . S
C1054 C1056 1.478 . S
C1055 H1049 0.930 . S
C1055 C1051 1.400 . S
C1055 C1054 1.385 . S
C1056 C1054 1.478 . S
C1056 C1058 1.381 . S
C1056 C1062 1.383 . S
C1057 C1053 1.495 . S
C1057 H1063 0.959 . S
C1057 H1064 0.961 . S
C1057 H1065 0.960 . S
C1058 C1056 1.381 . S
C1058 C1059 1.394 1_556 S
C1058 H1066 0.930 . S
C1059 C1058 1.394 1_554 S
C1059 C1060 1.383 . S
C1059 H1067 0.929 . S
C1060 C1059 1.383 . S
C1060 C1061 1.377 1_554 S
C1061 H1045 0.930 . S
C1061 C1060 1.377 1_556 S
C1061 C1062 1.379 . S
C1062 H1046 0.931 . S
C1062 C1056 1.383 . S
C1062 C1061 1.379 . S
H1063 C1057 0.959 . S
H1064 C1057 0.961 . S
H1065 C1057 0.960 . S
H1066 C1058 0.930 . S
H1067 C1059 0.929 . S
H1068 C1076 0.929 . S
H1069 C1078 0.930 . S
H1070 C1080 0.930 . S
H1071 C1083 0.929 . S
H1072 C1086 0.930 . S
H1073 C1088 0.960 . S
H1074 C1088 0.960 . S
H1075 C1088 0.960 . S
C1076 H1068 0.929 . S
C1076 C1077 1.377 . S
C1076 C1078 1.384 . S
C1077 C1076 1.377 . S
C1077 C1083 1.390 . S
C1078 H1069 0.930 . S
C1078 C1076 1.384 . S
C1078 C1079 1.372 . S
C1079 C1078 1.372 . S
C1079 C1080 1.400 . S
C1079 C1084 1.490 . S
C1080 H1070 0.930 . S
C1080 C1079 1.400 . S
C1080 C1083 1.386 . S
H1081 C1097 0.930 . S
H1082 C1098 0.931 . S
C1083 H1071 0.929 . S
C1083 C1077 1.390 . S
C1083 C1080 1.386 . S
C1084 C1079 1.490 . S
C1084 C1086 1.395 . S
C1084 C1087 1.403 . S
H1085 C1091 0.930 . S
C1086 H1072 0.930 . S
C1086 C1084 1.395 . S
C1086 C1089 1.403 . S
C1087 C1084 1.403 . S
C1087 C1088 1.524 . S
C1087 C1091 1.400 . S
C1088 H1073 0.960 . S
C1088 H1074 0.960 . S
C1088 H1075 0.960 . S
C1088 C1087 1.524 . S
C1089 C1086 1.403 . S
C1089 C1090 1.392 . S
C1089 C1093 1.495 . S
C1090 C1089 1.392 . S
C1090 C1091 1.385 . S
C1090 C1092 1.478 . S
C1091 H1085 0.930 . S
C1091 C1087 1.400 . S
C1091 C1090 1.385 . S
C1092 C1090 1.478 . S
C1092 C1094 1.381 . S
C1092 C1098 1.383 . S
C1093 C1089 1.495 . S
C1093 H1099 0.959 . S
C1093 H1100 0.961 . S
C1093 H1101 0.960 . S
C1094 C1092 1.381 . S
C1094 C1095 1.394 . S
C1094 H1102 0.930 . S
C1095 C1094 1.394 . S
C1095 C1096 1.383 . S
C1095 H1103 0.929 . S
C1096 C1095 1.383 . S
C1096 C1097 1.377 . S
C1097 H1081 0.930 . S
C1097 C1096 1.377 . S
C1097 C1098 1.379 . S
C1098 H1082 0.931 . S
C1098 C1092 1.383 . S
C1098 C1097 1.379 . S
H1099 C1093 0.959 . S
H1100 C1093 0.961 . S
H1101 C1093 0.960 . S
H1102 C1094 0.930 . S
H1103 C1095 0.929 . S
H1104 C1112 0.929 . S
H1105 C1114 0.930 1_545 S
H1106 C1116 0.930 . S
H1107 C1119 0.929 . S
H1108 C1122 0.930 . S
H1109 C1124 0.949 1_545 S
H1110 C1124 0.960 . S
H1111 C1124 0.960 . S
C1112 H1104 0.929 . S
C1112 C1113 1.377 . S
C1112 C1114 1.384 . S
C1113 C1112 1.377 . S
C1113 C1119 1.390 . S
C1114 H1105 0.930 1_565 S
C1114 C1112 1.384 . S
C1114 C1115 1.372 . S
C1115 C1114 1.372 . S
C1115 C1116 1.400 . S
C1115 C1120 1.490 1_565 S
C1116 H1106 0.930 . S
C1116 C1115 1.400 . S
C1116 C1119 1.386 . S
H1117 C1133 0.930 . S
H1118 C1134 0.931 . S
C1119 H1107 0.929 . S
C1119 C1113 1.390 . S
C1119 C1116 1.386 . S
C1120 C1115 1.490 1_545 S
C1120 C1122 1.395 . S
C1120 C1123 1.403 . S
H1121 C1127 0.930 . S
C1122 H1108 0.930 . S
C1122 C1120 1.395 . S
C1122 C1125 1.403 . S
C1123 C1120 1.403 . S
C1123 C1124 1.524 1_545 S
C1123 C1127 1.400 . S
C1124 H1109 0.949 1_565 S
C1124 H1110 0.960 . S
C1124 H1111 0.960 . S
C1124 C1123 1.524 1_565 S
C1125 C1122 1.403 . S
C1125 C1126 1.392 . S
C1125 C1129 1.495 . S
C1126 C1125 1.392 . S
C1126 C1127 1.385 . S
C1126 C1128 1.478 . S
C1127 H1121 0.930 . S
C1127 C1123 1.400 . S
C1127 C1126 1.385 . S
C1128 C1126 1.478 . S
C1128 C1130 1.381 . S
C1128 C1134 1.383 . S
C1129 C1125 1.495 . S
C1129 H1135 0.959 . S
C1129 H1136 0.961 . S
C1129 H1137 0.960 . S
C1130 C1128 1.381 . S
C1130 C1131 1.394 . S
C1130 H1138 0.930 . S
C1131 C1130 1.394 . S
C1131 C1132 1.383 . S
C1131 H1139 0.929 . S
C1132 C1131 1.383 . S
C1132 C1133 1.377 . S
C1133 H1117 0.930 . S
C1133 C1132 1.377 . S
C1133 C1134 1.379 . S
C1134 H1118 0.931 . S
C1134 C1128 1.383 . S
C1134 C1133 1.379 . S
H1135 C1129 0.959 . S
H1136 C1129 0.961 . S
H1137 C1129 0.960 . S
H1138 C1130 0.930 . S
H1139 C1131 0.929 . S
H1140 C1148 0.929 . S
H1141 C1150 0.930 . S
H1142 C1152 0.930 . S
H1143 C1155 0.929 . S
H1144 C1158 0.930 . S
H1145 C1160 0.960 . S
H1146 C1160 0.960 . S
H1147 C1160 0.960 . S
C1148 H1140 0.929 . S
C1148 C1149 1.377 . S
C1148 C1150 1.384 . S
C1149 C1148 1.377 . S
C1149 C1155 1.390 . S
C1150 H1141 0.930 . S
C1150 C1148 1.384 . S
C1150 C1151 1.372 . S
C1151 C1150 1.372 . S
C1151 C1152 1.400 . S
C1151 C1156 1.490 . S
C1152 H1142 0.930 . S
C1152 C1151 1.400 . S
C1152 C1155 1.386 . S
H1153 C1169 0.930 . S
H1154 C1170 0.931 . S
C1155 H1143 0.929 . S
C1155 C1149 1.390 . S
C1155 C1152 1.386 . S
C1156 C1151 1.490 . S
C1156 C1158 1.395 . S
C1156 C1159 1.403 . S
H1157 C1163 0.930 . S
C1158 H1144 0.930 . S
C1158 C1156 1.395 . S
C1158 C1161 1.403 . S
C1159 C1156 1.403 . S
C1159 C1160 1.524 . S
C1159 C1163 1.400 . S
C1160 H1145 0.960 . S
C1160 H1146 0.960 . S
C1160 H1147 0.960 . S
C1160 C1159 1.524 . S
C1161 C1158 1.403 . S
C1161 C1162 1.392 . S
C1161 C1165 1.495 . S
C1162 C1161 1.392 . S
C1162 C1163 1.385 . S
C1162 C1164 1.478 . S
C1163 H1157 0.930 . S
C1163 C1159 1.400 . S
C1163 C1162 1.385 . S
C1164 C1162 1.478 . S
C1164 C1166 1.381 . S
C1164 C1170 1.383 . S
C1165 C1161 1.495 . S
C1165 H1171 0.959 . S
C1165 H1172 0.961 . S
C1165 H1173 0.960 . S
C1166 C1164 1.381 . S
C1166 C1167 1.394 . S
C1166 H1174 0.930 . S
C1167 C1166 1.394 . S
C1167 C1168 1.383 . S
C1167 H1175 0.929 . S
C1168 C1167 1.383 . S
C1168 C1169 1.377 . S
C1169 H1153 0.930 . S
C1169 C1168 1.377 . S
C1169 C1170 1.379 . S
C1170 H1154 0.931 . S
C1170 C1164 1.383 . S
C1170 C1169 1.379 . S
H1171 C1165 0.959 . S
H1172 C1165 0.961 . S
H1173 C1165 0.960 . S
H1174 C1166 0.930 . S
H1175 C1167 0.929 . S
H1176 C1184 0.929 . S
H1177 C1186 0.930 . S
H1178 C1188 0.930 . S
H1179 C1191 0.929 . S
H1180 C1194 0.930 . S
H1181 C1196 0.960 . S
H1182 C1196 0.960 . S
H1183 C1196 0.960 . S
C1184 H1176 0.929 . S
C1184 C1185 1.377 . S
C1184 C1186 1.384 . S
C1185 C1184 1.377 . S
C1185 C1191 1.390 . S
C1186 H1177 0.930 . S
C1186 C1184 1.384 . S
C1186 C1187 1.372 . S
C1187 C1186 1.372 . S
C1187 C1188 1.400 . S
C1187 C1192 1.490 . S
C1188 H1178 0.930 . S
C1188 C1187 1.400 . S
C1188 C1191 1.386 . S
H1189 C1205 0.930 . S
H1190 C1206 0.931 . S
C1191 H1179 0.929 . S
C1191 C1185 1.390 . S
C1191 C1188 1.386 . S
C1192 C1187 1.490 . S
C1192 C1194 1.395 . S
C1192 C1195 1.403 . S
H1193 C1199 0.930 . S
C1194 H1180 0.930 . S
C1194 C1192 1.395 . S
C1194 C1197 1.403 . S
C1195 C1192 1.403 . S
C1195 C1196 1.524 . S
C1195 C1199 1.400 . S
C1196 H1181 0.960 . S
C1196 H1182 0.960 . S
C1196 H1183 0.960 . S
C1196 C1195 1.524 . S
C1197 C1194 1.403 . S
C1197 C1198 1.392 . S
C1197 C1201 1.495 1_565 S
C1198 C1197 1.392 . S
C1198 C1199 1.385 . S
C1198 C1200 1.478 1_565 S
C1199 H1193 0.930 . S
C1199 C1195 1.400 . S
C1199 C1198 1.385 . S
C1200 C1198 1.478 1_545 S
C1200 C1202 1.381 . S
C1200 C1206 1.383 1_554 S
C1201 C1197 1.495 1_545 S
C1201 H1207 0.959 . S
C1201 H1208 0.961 . S
C1201 H1209 0.960 . S
C1202 C1200 1.381 . S
C1202 C1203 1.394 . S
C1202 H1210 0.930 . S
C1203 C1202 1.394 . S
C1203 C1204 1.383 1_554 S
C1203 H1211 0.929 . S
C1204 C1203 1.383 1_556 S
C1204 C1205 1.377 . S
C1205 H1189 0.930 . S
C1205 C1204 1.377 . S
C1205 C1206 1.379 . S
C1206 H1190 0.931 . S
C1206 C1200 1.383 1_556 S
C1206 C1205 1.379 . S
H1207 C1201 0.959 . S
H1208 C1201 0.961 . S
H1209 C1201 0.960 . S
H1210 C1202 0.930 . S
H1211 C1203 0.929 . S
H1212 C1220 0.929 . S
H1213 C1222 0.930 . S
H1214 C1224 0.930 . S
H1215 C1227 0.929 . S
H1216 C1230 0.930 . S
H1217 C1232 0.960 . S
H1218 C1232 0.960 . S
H1219 C1232 0.960 . S
C1220 H1212 0.929 . S
C1220 C1221 1.377 . S
C1220 C1222 1.384 . S
C1221 C1220 1.377 . S
C1221 C1227 1.390 . S
C1222 H1213 0.930 . S
C1222 C1220 1.384 . S
C1222 C1223 1.372 . S
C1223 C1222 1.372 . S
C1223 C1224 1.400 . S
C1223 C1228 1.490 . S
C1224 H1214 0.930 . S
C1224 C1223 1.400 . S
C1224 C1227 1.386 . S
H1225 C1241 0.930 . S
H1226 C1242 0.931 . S
C1227 H1215 0.929 . S
C1227 C1221 1.390 . S
C1227 C1224 1.386 . S
C1228 C1223 1.490 . S
C1228 C1230 1.395 . S
C1228 C1231 1.403 . S
H1229 C1235 0.930 . S
C1230 H1216 0.930 . S
C1230 C1228 1.395 . S
C1230 C1233 1.403 . S
C1231 C1228 1.403 . S
C1231 C1232 1.524 . S
C1231 C1235 1.400 . S
C1232 H1217 0.960 . S
C1232 H1218 0.960 . S
C1232 H1219 0.960 . S
C1232 C1231 1.524 . S
C1233 C1230 1.403 . S
C1233 C1234 1.392 . S
C1233 C1237 1.495 . S
C1234 C1233 1.392 . S
C1234 C1235 1.385 . S
C1234 C1236 1.478 . S
C1235 H1229 0.930 . S
C1235 C1231 1.400 . S
C1235 C1234 1.385 . S
C1236 C1234 1.478 . S
C1236 C1238 1.381 . S
C1236 C1242 1.383 . S
C1237 C1233 1.495 . S
C1237 H1243 0.959 . S
C1237 H1244 0.961 . S
C1237 H1245 0.960 . S
C1238 C1236 1.381 . S
C1238 C1239 1.394 . S
C1238 H1246 0.930 . S
C1239 C1238 1.394 . S
C1239 C1240 1.383 . S
C1239 H1247 0.929 . S
C1240 C1239 1.383 . S
C1240 C1241 1.377 . S
C1241 H1225 0.930 . S
C1241 C1240 1.377 . S
C1241 C1242 1.379 . S
C1242 H1226 0.931 . S
C1242 C1236 1.383 . S
C1242 C1241 1.379 . S
H1243 C1237 0.959 . S
H1244 C1237 0.961 . S
H1245 C1237 0.960 . S
H1246 C1238 0.930 . S
H1247 C1239 0.929 . S
H1248 C1256 0.929 . S
H1249 C1258 0.930 . S
H1250 C1260 0.930 . S
H1251 C1263 0.929 . S
H1252 C1266 0.930 . S
H1253 C1268 0.960 . S
H1254 C1268 0.960 . S
H1255 C1268 0.960 . S
C1256 H1248 0.929 . S
C1256 C1257 1.377 . S
C1256 C1258 1.384 . S
C1257 C1256 1.377 . S
C1257 C1263 1.390 . S
C1258 H1249 0.930 . S
C1258 C1256 1.384 . S
C1258 C1259 1.372 . S
C1259 C1258 1.372 . S
C1259 C1260 1.400 . S
C1259 C1264 1.490 . S
C1260 H1250 0.930 . S
C1260 C1259 1.400 . S
C1260 C1263 1.386 . S
H1261 C1277 0.930 . S
H1262 C1278 0.931 . S
C1263 H1251 0.929 . S
C1263 C1257 1.390 . S
C1263 C1260 1.386 . S
C1264 C1259 1.490 . S
C1264 C1266 1.395 . S
C1264 C1267 1.403 . S
H1265 C1271 0.930 . S
C1266 H1252 0.930 . S
C1266 C1264 1.395 . S
C1266 C1269 1.403 . S
C1267 C1264 1.403 . S
C1267 C1268 1.524 . S
C1267 C1271 1.400 . S
C1268 H1253 0.960 . S
C1268 H1254 0.960 . S
C1268 H1255 0.960 . S
C1268 C1267 1.524 . S
C1269 C1266 1.403 . S
C1269 C1270 1.392 . S
C1269 C1273 1.495 . S
C1270 C1269 1.392 . S
C1270 C1271 1.385 . S
C1270 C1272 1.478 . S
C1271 H1265 0.930 . S
C1271 C1267 1.400 . S
C1271 C1270 1.385 . S
C1272 C1270 1.478 . S
C1272 C1274 1.381 . S
C1272 C1278 1.383 . S
C1273 C1269 1.495 . S
C1273 H1279 0.959 . S
C1273 H1280 0.961 . S
C1273 H1281 0.960 . S
C1274 C1272 1.381 . S
C1274 C1275 1.394 . S
C1274 H1282 0.930 . S
C1275 C1274 1.394 . S
C1275 C1276 1.383 . S
C1275 H1283 0.929 . S
C1276 C1275 1.383 . S
C1276 C1277 1.377 . S
C1277 H1261 0.930 . S
C1277 C1276 1.377 . S
C1277 C1278 1.379 . S
C1278 H1262 0.931 . S
C1278 C1272 1.383 . S
C1278 C1277 1.379 . S
H1279 C1273 0.959 . S
H1280 C1273 0.961 . S
H1281 C1273 0.960 . S
H1282 C1274 0.930 . S
H1283 C1275 0.929 . S
H1284 C1292 0.929 . S
H1285 C1294 0.930 . S
H1286 C1296 0.930 . S
H1287 C1299 0.929 . S
H1288 C1302 0.930 . S
H1289 C1304 0.960 . S
H1290 C1304 0.960 . S
H1291 C1304 0.960 . S
C1292 H1284 0.929 . S
C1292 C1293 1.377 . S
C1292 C1294 1.384 . S
C1293 C1292 1.377 . S
C1293 C1299 1.390 . S
C1294 H1285 0.930 . S
C1294 C1292 1.384 . S
C1294 C1295 1.372 . S
C1295 C1294 1.372 . S
C1295 C1296 1.400 . S
C1295 C1300 1.490 . S
C1296 H1286 0.930 . S
C1296 C1295 1.400 . S
C1296 C1299 1.386 . S
H1297 C1313 0.930 . S
H1298 C1314 0.931 . S
C1299 H1287 0.929 . S
C1299 C1293 1.390 . S
C1299 C1296 1.386 . S
C1300 C1295 1.490 . S
C1300 C1302 1.395 . S
C1300 C1303 1.403 . S
H1301 C1307 0.930 . S
C1302 H1288 0.930 . S
C1302 C1300 1.395 . S
C1302 C1305 1.403 . S
C1303 C1300 1.403 . S
C1303 C1304 1.524 . S
C1303 C1307 1.400 . S
C1304 H1289 0.960 . S
C1304 H1290 0.960 . S
C1304 H1291 0.960 . S
C1304 C1303 1.524 . S
C1305 C1302 1.403 . S
C1305 C1306 1.392 . S
C1305 C1309 1.495 . S
C1306 C1305 1.392 . S
C1306 C1307 1.385 . S
C1306 C1308 1.478 . S
C1307 H1301 0.930 . S
C1307 C1303 1.400 . S
C1307 C1306 1.385 . S
C1308 C1306 1.478 . S
C1308 C1310 1.381 . S
C1308 C1314 1.383 . S
C1309 C1305 1.495 . S
C1309 H1315 0.959 . S
C1309 H1316 0.961 . S
C1309 H1317 0.960 . S
C1310 C1308 1.381 . S
C1310 C1311 1.394 . S
C1310 H1318 0.930 . S
C1311 C1310 1.394 . S
C1311 C1312 1.383 . S
C1311 H1319 0.929 . S
C1312 C1311 1.383 . S
C1312 C1313 1.377 . S
C1313 H1297 0.930 . S
C1313 C1312 1.377 . S
C1313 C1314 1.379 . S
C1314 H1298 0.931 . S
C1314 C1308 1.383 . S
C1314 C1313 1.379 . S
H1315 C1309 0.959 . S
H1316 C1309 0.961 . S
H1317 C1309 0.960 . S
H1318 C1310 0.930 . S
H1319 C1311 0.929 . S
H1320 C1328 0.929 . S
H1321 C1330 0.930 . S
H1322 C1332 0.930 . S
H1323 C1335 0.929 . S
H1324 C1338 0.930 . S
H1325 C1340 0.960 . S
H1326 C1340 0.960 . S
H1327 C1340 0.960 . S
C1328 H1320 0.929 . S
C1328 C1329 1.377 . S
C1328 C1330 1.384 . S
C1329 C1328 1.377 . S
C1329 C1335 1.390 . S
C1330 H1321 0.930 . S
C1330 C1328 1.384 . S
C1330 C1331 1.372 . S
C1331 C1330 1.372 . S
C1331 C1332 1.400 . S
C1331 C1336 1.490 . S
C1332 H1322 0.930 . S
C1332 C1331 1.400 . S
C1332 C1335 1.386 . S
H1333 C1349 0.930 . S
H1334 C1350 0.931 . S
C1335 H1323 0.929 . S
C1335 C1329 1.390 . S
C1335 C1332 1.386 . S
C1336 C1331 1.490 . S
C1336 C1338 1.395 . S
C1336 C1339 1.403 . S
H1337 C1343 0.930 . S
C1338 H1324 0.930 . S
C1338 C1336 1.395 . S
C1338 C1341 1.403 . S
C1339 C1336 1.403 . S
C1339 C1340 1.524 . S
C1339 C1343 1.400 . S
C1340 H1325 0.960 . S
C1340 H1326 0.960 . S
C1340 H1327 0.960 . S
C1340 C1339 1.524 . S
C1341 C1338 1.403 . S
C1341 C1342 1.392 . S
C1341 C1345 1.495 . S
C1342 C1341 1.392 . S
C1342 C1343 1.385 . S
C1342 C1344 1.478 1_556 S
C1343 H1337 0.930 . S
C1343 C1339 1.400 . S
C1343 C1342 1.385 . S
C1344 C1342 1.478 1_554 S
C1344 C1346 1.381 1_455 S
C1344 C1350 1.383 . S
C1345 C1341 1.495 . S
C1345 H1351 0.959 . S
C1345 H1352 0.961 . S
C1345 H1353 0.960 . S
C1346 C1344 1.381 1_655 S
C1346 C1347 1.394 . S
C1346 H1354 0.930 1_554 S
C1347 C1346 1.394 . S
C1347 C1348 1.383 . S
C1347 H1355 0.929 . S
C1348 C1347 1.383 . S
C1348 C1349 1.377 1_655 S
C1349 H1333 0.930 . S
C1349 C1348 1.377 1_455 S
C1349 C1350 1.379 . S
C1350 H1334 0.931 . S
C1350 C1344 1.383 . S
C1350 C1349 1.379 . S
H1351 C1345 0.959 . S
H1352 C1345 0.961 . S
H1353 C1345 0.960 . S
H1354 C1346 0.930 1_556 S
H1355 C1347 0.929 . S
H1356 C1364 0.929 . S
H1357 C1366 0.930 . S
H1358 C1368 0.930 . S
H1359 C1371 0.929 . S
H1360 C1374 0.930 . S
H1361 C1376 0.960 . S
H1362 C1376 0.960 . S
H1363 C1376 0.960 . S
C1364 H1356 0.929 . S
C1364 C1365 1.377 . S
C1364 C1366 1.384 . S
C1365 C1364 1.377 . S
C1365 C1371 1.390 . S
C1366 H1357 0.930 . S
C1366 C1364 1.384 . S
C1366 C1367 1.372 . S
C1367 C1366 1.372 . S
C1367 C1368 1.400 . S
C1367 C1372 1.490 . S
C1368 H1358 0.930 . S
C1368 C1367 1.400 . S
C1368 C1371 1.386 . S
H1369 C1385 0.930 . S
H1370 C1386 0.931 . S
C1371 H1359 0.929 . S
C1371 C1365 1.390 . S
C1371 C1368 1.386 . S
C1372 C1367 1.490 . S
C1372 C1374 1.395 . S
C1372 C1375 1.403 . S
H1373 C1379 0.930 . S
C1374 H1360 0.930 . S
C1374 C1372 1.395 . S
C1374 C1377 1.403 . S
C1375 C1372 1.403 . S
C1375 C1376 1.524 . S
C1375 C1379 1.400 . S
C1376 H1361 0.960 . S
C1376 H1362 0.960 . S
C1376 H1363 0.960 . S
C1376 C1375 1.524 . S
C1377 C1374 1.403 . S
C1377 C1378 1.392 . S
C1377 C1381 1.495 . S
C1378 C1377 1.392 . S
C1378 C1379 1.385 . S
C1378 C1380 1.478 . S
C1379 H1373 0.930 . S
C1379 C1375 1.400 . S
C1379 C1378 1.385 . S
C1380 C1378 1.478 . S
C1380 C1382 1.381 . S
C1380 C1386 1.383 . S
C1381 C1377 1.495 . S
C1381 H1387 0.959 . S
C1381 H1388 0.961 . S
C1381 H1389 0.960 . S
C1382 C1380 1.381 . S
C1382 C1383 1.394 . S
C1382 H1390 0.930 . S
C1383 C1382 1.394 . S
C1383 C1384 1.383 . S
C1383 H1391 0.929 . S
C1384 C1383 1.383 . S
C1384 C1385 1.377 . S
C1385 H1369 0.930 . S
C1385 C1384 1.377 . S
C1385 C1386 1.379 . S
C1386 H1370 0.931 . S
C1386 C1380 1.383 . S
C1386 C1385 1.379 . S
H1387 C1381 0.959 . S
H1388 C1381 0.961 . S
H1389 C1381 0.960 . S
H1390 C1382 0.930 . S
H1391 C1383 0.929 . S
H1392 C1400 0.929 1_455 S
H1393 C1402 0.930 . S
H1394 C1404 0.930 . S
H1395 C1407 0.929 . S
H1396 C1410 0.930 . S
H1397 C1412 0.960 . S
H1398 C1412 0.960 . S
H1399 C1412 0.960 . S
C1400 H1392 0.929 1_655 S
C1400 C1401 1.377 1_655 S
C1400 C1402 1.384 . S
C1401 C1400 1.377 1_455 S
C1401 C1407 1.390 . S
C1402 H1393 0.930 . S
C1402 C1400 1.384 . S
C1402 C1403 1.372 . S
C1403 C1402 1.372 . S
C1403 C1404 1.400 . S
C1403 C1408 1.490 . S
C1404 H1394 0.930 . S
C1404 C1403 1.400 . S
C1404 C1407 1.386 1_655 S
H1405 C1421 0.930 . S
H1406 C1422 0.931 . S
C1407 H1395 0.929 . S
C1407 C1401 1.390 . S
C1407 C1404 1.386 1_455 S
C1408 C1403 1.490 . S
C1408 C1410 1.395 . S
C1408 C1411 1.403 . S
H1409 C1415 0.930 . S
C1410 H1396 0.930 . S
C1410 C1408 1.395 . S
C1410 C1413 1.403 . S
C1411 C1408 1.403 . S
C1411 C1412 1.524 1_655 S
C1411 C1415 1.400 . S
C1412 H1397 0.960 . S
C1412 H1398 0.960 . S
C1412 H1399 0.960 . S
C1412 C1411 1.524 1_455 S
C1413 C1410 1.403 . S
C1413 C1414 1.392 . S
C1413 C1417 1.495 . S
C1414 C1413 1.392 . S
C1414 C1415 1.385 . S
C1414 C1416 1.478 . S
C1415 H1409 0.930 . S
C1415 C1411 1.400 . S
C1415 C1414 1.385 . S
C1416 C1414 1.478 . S
C1416 C1418 1.381 . S
C1416 C1422 1.383 . S
C1417 C1413 1.495 . S
C1417 H1423 0.959 . S
C1417 H1424 0.961 . S
C1417 H1425 0.960 . S
C1418 C1416 1.381 . S
C1418 C1419 1.394 . S
C1418 H1426 0.930 . S
C1419 C1418 1.394 . S
C1419 C1420 1.383 . S
C1419 H1427 0.929 . S
C1420 C1419 1.383 . S
C1420 C1421 1.377 . S
C1421 H1405 0.930 . S
C1421 C1420 1.377 . S
C1421 C1422 1.379 . S
C1422 H1406 0.931 . S
C1422 C1416 1.383 . S
C1422 C1421 1.379 . S
H1423 C1417 0.959 . S
H1424 C1417 0.961 . S
H1425 C1417 0.960 . S
H1426 C1418 0.930 . S
H1427 C1419 0.929 . S
H1428 C1436 0.929 . S
H1429 C1438 0.930 . S
H1430 C1440 0.930 . S
H1431 C1443 0.929 . S
H1432 C1446 0.930 . S
H1433 C1448 0.960 . S
H1434 C1448 0.960 . S
H1435 C1448 0.960 . S
C1436 H1428 0.929 . S
C1436 C1437 1.377 . S
C1436 C1438 1.384 . S
C1437 C1436 1.377 . S
C1437 C1443 1.390 . S
C1438 H1429 0.930 . S
C1438 C1436 1.384 . S
C1438 C1439 1.372 . S
C1439 C1438 1.372 . S
C1439 C1440 1.400 . S
C1439 C1444 1.490 . S
C1440 H1430 0.930 . S
C1440 C1439 1.400 . S
C1440 C1443 1.386 . S
H1441 C1457 0.930 . S
H1442 C1458 0.931 . S
C1443 H1431 0.929 . S
C1443 C1437 1.390 . S
C1443 C1440 1.386 . S
C1444 C1439 1.490 . S
C1444 C1446 1.395 . S
C1444 C1447 1.403 . S
H1445 C1451 0.930 . S
C1446 H1432 0.930 . S
C1446 C1444 1.395 . S
C1446 C1449 1.403 . S
C1447 C1444 1.403 . S
C1447 C1448 1.524 . S
C1447 C1451 1.400 . S
C1448 H1433 0.960 . S
C1448 H1434 0.960 . S
C1448 H1435 0.960 . S
C1448 C1447 1.524 . S
C1449 C1446 1.403 . S
C1449 C1450 1.392 . S
C1449 C1453 1.495 . S
C1450 C1449 1.392 . S
C1450 C1451 1.385 . S
C1450 C1452 1.478 . S
C1451 H1445 0.930 . S
C1451 C1447 1.400 . S
C1451 C1450 1.385 . S
C1452 C1450 1.478 . S
C1452 C1454 1.381 . S
C1452 C1458 1.383 . S
C1453 C1449 1.495 . S
C1453 H1459 0.959 . S
C1453 H1460 0.961 . S
C1453 H1461 0.960 . S
C1454 C1452 1.381 . S
C1454 C1455 1.394 . S
C1454 H1462 0.930 . S
C1455 C1454 1.394 . S
C1455 C1456 1.383 . S
C1455 H1463 0.929 . S
C1456 C1455 1.383 . S
C1456 C1457 1.377 . S
C1457 H1441 0.930 . S
C1457 C1456 1.377 . S
C1457 C1458 1.379 . S
C1458 H1442 0.931 . S
C1458 C1452 1.383 . S
C1458 C1457 1.379 . S
H1459 C1453 0.959 . S
H1460 C1453 0.961 . S
H1461 C1453 0.960 . S
H1462 C1454 0.930 . S
H1463 C1455 0.929 . S
H1464 C1472 0.929 . S
H1465 C1474 0.930 . S
H1466 C1476 0.930 . S
H1467 C1479 0.929 . S
H1468 C1482 0.930 . S
H1469 C1484 0.960 . S
H1470 C1484 0.960 . S
H1471 C1484 0.960 . S
C1472 H1464 0.929 . S
C1472 C1473 1.377 . S
C1472 C1474 1.384 . S
C1473 C1472 1.377 . S
C1473 C1479 1.390 . S
C1474 H1465 0.930 . S
C1474 C1472 1.384 . S
C1474 C1475 1.372 . S
C1475 C1474 1.372 . S
C1475 C1476 1.400 . S
C1475 C1480 1.490 . S
C1476 H1466 0.930 . S
C1476 C1475 1.400 . S
C1476 C1479 1.386 . S
H1477 C1493 0.930 . S
H1478 C1494 0.931 . S
C1479 H1467 0.929 . S
C1479 C1473 1.390 . S
C1479 C1476 1.386 . S
C1480 C1475 1.490 . S
C1480 C1482 1.395 . S
C1480 C1483 1.403 . S
H1481 C1487 0.895 1_556 S
C1482 H1468 0.930 . S
C1482 C1480 1.395 . S
C1482 C1485 1.403 . S
C1483 C1480 1.403 . S
C1483 C1484 1.524 . S
C1483 C1487 1.400 . S
C1484 H1469 0.960 . S
C1484 H1470 0.960 . S
C1484 H1471 0.960 . S
C1484 C1483 1.524 . S
C1485 C1482 1.403 . S
C1485 C1486 1.392 . S
C1485 C1489 1.495 . S
C1486 C1485 1.392 . S
C1486 C1487 1.385 . S
C1486 C1488 1.478 1_554 S
C1487 H1481 0.895 1_554 S
C1487 C1483 1.400 . S
C1487 C1486 1.385 . S
C1488 C1486 1.478 1_556 S
C1488 C1490 1.381 . S
C1488 C1494 1.383 . S
C1489 C1485 1.495 . S
C1489 H1495 0.959 . S
C1489 H1496 0.961 . S
C1489 H1497 0.960 . S
C1490 C1488 1.381 . S
C1490 C1491 1.394 . S
C1490 H1498 0.930 . S
C1491 C1490 1.394 . S
C1491 C1492 1.383 . S
C1491 H1499 0.929 . S
C1492 C1491 1.383 . S
C1492 C1493 1.377 . S
C1493 H1477 0.930 . S
C1493 C1492 1.377 . S
C1493 C1494 1.379 . S
C1494 H1478 0.931 . S
C1494 C1488 1.383 . S
C1494 C1493 1.379 . S
H1495 C1489 0.959 . S
H1496 C1489 0.961 . S
H1497 C1489 0.960 . S
H1498 C1490 0.930 . S
H1499 C1491 0.929 . S
H1500 C1508 0.929 . S
H1501 C1510 0.930 . S
H1502 C1512 0.930 . S
H1503 C1515 0.929 . S
H1504 C1518 0.930 . S
H1505 C1520 0.960 . S
H1506 C1520 0.960 . S
H1507 C1520 0.960 . S
C1508 H1500 0.929 . S
C1508 C1509 1.377 . S
C1508 C1510 1.384 . S
C1509 C1508 1.377 . S
C1509 C1515 1.390 . S
C1510 H1501 0.930 . S
C1510 C1508 1.384 . S
C1510 C1511 1.372 . S
C1511 C1510 1.372 . S
C1511 C1512 1.400 . S
C1511 C1516 1.490 . S
C1512 H1502 0.930 . S
C1512 C1511 1.400 . S
C1512 C1515 1.386 . S
H1513 C1529 0.930 . S
H1514 C1530 0.931 . S
C1515 H1503 0.929 . S
C1515 C1509 1.390 . S
C1515 C1512 1.386 . S
C1516 C1511 1.490 . S
C1516 C1518 1.395 . S
C1516 C1519 1.403 . S
H1517 C1523 0.930 . S
C1518 H1504 0.930 . S
C1518 C1516 1.395 . S
C1518 C1521 1.403 . S
C1519 C1516 1.403 . S
C1519 C1520 1.524 . S
C1519 C1523 1.400 . S
C1520 H1505 0.960 . S
C1520 H1506 0.960 . S
C1520 H1507 0.960 . S
C1520 C1519 1.524 . S
C1521 C1518 1.403 . S
C1521 C1522 1.392 . S
C1521 C1525 1.495 . S
C1522 C1521 1.392 . S
C1522 C1523 1.385 . S
C1522 C1524 1.478 . S
C1523 H1517 0.930 . S
C1523 C1519 1.400 . S
C1523 C1522 1.385 . S
C1524 C1522 1.478 . S
C1524 C1526 1.381 . S
C1524 C1530 1.383 . S
C1525 C1521 1.495 . S
C1525 H1531 0.959 . S
C1525 H1532 0.961 . S
C1525 H1533 0.960 . S
C1526 C1524 1.381 . S
C1526 C1527 1.394 . S
C1526 H1534 0.930 . S
C1527 C1526 1.394 . S
C1527 C1528 1.383 . S
C1527 H1535 0.929 . S
C1528 C1527 1.383 . S
C1528 C1529 1.377 . S
C1529 H1513 0.930 . S
C1529 C1528 1.377 . S
C1529 C1530 1.379 . S
C1530 H1514 0.931 . S
C1530 C1524 1.383 . S
C1530 C1529 1.379 . S
H1531 C1525 0.959 . S
H1532 C1525 0.961 . S
H1533 C1525 0.960 . S
H1534 C1526 0.930 . S
H1535 C1527 0.929 . S
H1536 C1544 0.929 . S
H1537 C1546 0.930 . S
H1538 C1548 0.930 . S
H1539 C1551 0.929 . S
H1540 C1554 0.930 . S
H1541 C1556 0.960 . S
H1542 C1556 0.960 . S
H1543 C1556 0.960 . S
C1544 H1536 0.929 . S
C1544 C1545 1.377 . S
C1544 C1546 1.384 . S
C1545 C1544 1.377 . S
C1545 C1551 1.390 . S
C1546 H1537 0.930 . S
C1546 C1544 1.384 . S
C1546 C1547 1.372 . S
C1547 C1546 1.372 . S
C1547 C1548 1.400 . S
C1547 C1552 1.490 . S
C1548 H1538 0.930 . S
C1548 C1547 1.400 . S
C1548 C1551 1.386 . S
H1549 C1565 0.930 . S
H1550 C1566 0.931 . S
C1551 H1539 0.929 . S
C1551 C1545 1.390 . S
C1551 C1548 1.386 . S
C1552 C1547 1.490 . S
C1552 C1554 1.395 . S
C1552 C1555 1.403 . S
H1553 C1559 0.930 . S
C1554 H1540 0.930 . S
C1554 C1552 1.395 . S
C1554 C1557 1.403 . S
C1555 C1552 1.403 . S
C1555 C1556 1.524 . S
C1555 C1559 1.400 . S
C1556 H1541 0.960 . S
C1556 H1542 0.960 . S
C1556 H1543 0.960 . S
C1556 C1555 1.524 . S
C1557 C1554 1.403 . S
C1557 C1558 1.392 . S
C1557 C1561 1.495 . S
C1558 C1557 1.392 . S
C1558 C1559 1.385 . S
C1558 C1560 1.478 . S
C1559 H1553 0.930 . S
C1559 C1555 1.400 . S
C1559 C1558 1.385 . S
C1560 C1558 1.478 . S
C1560 C1562 1.381 . S
C1560 C1566 1.383 . S
C1561 C1557 1.495 . S
C1561 H1567 0.959 . S
C1561 H1568 0.961 . S
C1561 H1569 0.960 . S
C1562 C1560 1.381 . S
C1562 C1563 1.394 . S
C1562 H1570 0.930 . S
C1563 C1562 1.394 . S
C1563 C1564 1.383 . S
C1563 H1571 0.929 . S
C1564 C1563 1.383 . S
C1564 C1565 1.377 . S
C1565 H1549 0.930 . S
C1565 C1564 1.377 . S
C1565 C1566 1.379 . S
C1566 H1550 0.931 . S
C1566 C1560 1.383 . S
C1566 C1565 1.379 . S
H1567 C1561 0.959 . S
H1568 C1561 0.961 . S
H1569 C1561 0.960 . S
H1570 C1562 0.930 . S
H1571 C1563 0.929 . S
H1572 C1580 0.929 . S
H1573 C1582 0.930 1_655 S
H1574 C1584 0.930 . S
H1575 C1587 0.929 . S
H1576 C1590 0.899 1_565 S
H1577 C1592 0.960 . S
H1578 C1592 0.960 . S
H1579 C1592 0.960 . S
C1580 H1572 0.929 . S
C1580 C1581 1.377 . S
C1580 C1582 1.384 1_565 S
C1581 C1580 1.377 . S
C1581 C1587 1.390 1_565 S
C1582 H1573 0.930 1_455 S
C1582 C1580 1.384 1_545 S
C1582 C1583 1.372 . S
C1583 C1582 1.372 . S
C1583 C1584 1.400 . S
C1583 C1588 1.490 1_455 S
C1584 H1574 0.930 . S
C1584 C1583 1.400 . S
C1584 C1587 1.386 . S
H1585 C1601 0.930 . S
H1586 C1602 0.931 . S
C1587 H1575 0.929 . S
C1587 C1581 1.390 1_545 S
C1587 C1584 1.386 . S
C1588 C1583 1.490 1_655 S
C1588 C1590 1.395 . S
C1588 C1591 1.403 . S
H1589 C1595 0.930 . S
C1590 H1576 0.899 1_545 S
C1590 C1588 1.395 . S
C1590 C1593 1.403 . S
C1591 C1588 1.403 . S
C1591 C1592 1.524 1_655 S
C1591 C1595 1.400 . S
C1592 H1577 0.960 . S
C1592 H1578 0.960 . S
C1592 H1579 0.960 . S
C1592 C1591 1.524 1_455 S
C1593 C1590 1.403 . S
C1593 C1594 1.392 . S
C1593 C1597 1.495 . S
C1594 C1593 1.392 . S
C1594 C1595 1.385 . S
C1594 C1596 1.478 . S
C1595 H1589 0.930 . S
C1595 C1591 1.400 . S
C1595 C1594 1.385 . S
C1596 C1594 1.478 . S
C1596 C1598 1.381 . S
C1596 C1602 1.383 . S
C1597 C1593 1.495 . S
C1597 H1603 0.959 1_545 S
C1597 H1604 0.961 . S
C1597 H1605 0.960 . S
C1598 C1596 1.381 . S
C1598 C1599 1.394 . S
C1598 H1606 0.930 . S
C1599 C1598 1.394 . S
C1599 C1600 1.383 . S
C1599 H1607 0.929 . S
C1600 C1599 1.383 . S
C1600 C1601 1.377 . S
C1601 H1585 0.930 . S
C1601 C1600 1.377 . S
C1601 C1602 1.379 . S
C1602 H1586 0.931 . S
C1602 C1596 1.383 . S
C1602 C1601 1.379 . S
H1603 C1597 0.959 1_565 S
H1604 C1597 0.961 . S
H1605 C1597 0.960 . S
H1606 C1598 0.930 . S
H1607 C1599 0.929 . S
H1608 C1616 0.929 . S
H1609 C1618 0.930 . S
H1610 C1620 0.930 . S
H1611 C1623 0.929 . S
H1612 C1626 0.930 . S
H1613 C1628 0.960 . S
H1614 C1628 0.960 . S
H1615 C1628 0.960 . S
C1616 H1608 0.929 . S
C1616 C1617 1.377 . S
C1616 C1618 1.384 . S
C1617 C1616 1.377 . S
C1617 C1623 1.390 . S
C1618 H1609 0.930 . S
C1618 C1616 1.384 . S
C1618 C1619 1.372 . S
C1619 C1618 1.372 . S
C1619 C1620 1.400 . S
C1619 C1624 1.490 . S
C1620 H1610 0.930 . S
C1620 C1619 1.400 . S
C1620 C1623 1.386 . S
H1621 C1637 0.930 . S
H1622 C1638 0.931 . S
C1623 H1611 0.929 . S
C1623 C1617 1.390 . S
C1623 C1620 1.386 . S
C1624 C1619 1.490 . S
C1624 C1626 1.395 . S
C1624 C1627 1.403 . S
H1625 C1631 0.930 . S
C1626 H1612 0.930 . S
C1626 C1624 1.395 . S
C1626 C1629 1.403 . S
C1627 C1624 1.403 . S
C1627 C1628 1.524 . S
C1627 C1631 1.400 . S
C1628 H1613 0.960 . S
C1628 H1614 0.960 . S
C1628 H1615 0.960 . S
C1628 C1627 1.524 . S
C1629 C1626 1.403 . S
C1629 C1630 1.392 . S
C1629 C1633 1.495 . S
C1630 C1629 1.392 . S
C1630 C1631 1.385 . S
C1630 C1632 1.478 . S
C1631 H1625 0.930 . S
C1631 C1627 1.400 . S
C1631 C1630 1.385 . S
C1632 C1630 1.478 . S
C1632 C1634 1.381 . S
C1632 C1638 1.383 . S
C1633 C1629 1.495 . S
C1633 H1639 0.959 . S
C1633 H1640 0.961 . S
C1633 H1641 0.960 . S
C1634 C1632 1.381 . S
C1634 C1635 1.394 . S
C1634 H1642 0.930 . S
C1635 C1634 1.394 . S
C1635 C1636 1.383 . S
C1635 H1643 0.929 . S
C1636 C1635 1.383 . S
C1636 C1637 1.377 . S
C1637 H1621 0.930 . S
C1637 C1636 1.377 . S
C1637 C1638 1.379 . S
C1638 H1622 0.931 . S
C1638 C1632 1.383 . S
C1638 C1637 1.379 . S
H1639 C1633 0.959 . S
H1640 C1633 0.961 . S
H1641 C1633 0.960 . S
H1642 C1634 0.930 . S
H1643 C1635 0.929 . S
H1644 C1652 0.929 . S
H1645 C1654 0.930 . S
H1646 C1656 0.930 . S
H1647 C1659 0.929 . S
H1648 C1662 0.930 . S
H1649 C1664 0.960 . S
H1650 C1664 0.960 . S
H1651 C1664 0.960 . S
C1652 H1644 0.929 . S
C1652 C1653 1.377 . S
C1652 C1654 1.384 . S
C1653 C1652 1.377 . S
C1653 C1659 1.390 1_545 S
C1654 H1645 0.930 . S
C1654 C1652 1.384 . S
C1654 C1655 1.372 1_545 S
C1655 C1654 1.372 1_565 S
C1655 C1656 1.400 . S
C1655 C1660 1.490 . S
C1656 H1646 0.930 . S
C1656 C1655 1.400 . S
C1656 C1659 1.386 . S
H1657 C1673 0.930 . S
H1658 C1674 0.931 . S
C1659 H1647 0.929 . S
C1659 C1653 1.390 1_565 S
C1659 C1656 1.386 . S
C1660 C1655 1.490 . S
C1660 C1662 1.395 . S
C1660 C1663 1.403 . S
H1661 C1667 0.930 . S
C1662 H1648 0.930 . S
C1662 C1660 1.395 . S
C1662 C1665 1.403 . S
C1663 C1660 1.403 . S
C1663 C1664 1.524 . S
C1663 C1667 1.400 . S
C1664 H1649 0.960 . S
C1664 H1650 0.960 . S
C1664 H1651 0.960 . S
C1664 C1663 1.524 . S
C1665 C1662 1.403 . S
C1665 C1666 1.392 . S
C1665 C1669 1.495 . S
C1666 C1665 1.392 . S
C1666 C1667 1.385 . S
C1666 C1668 1.478 . S
C1667 H1661 0.930 . S
C1667 C1663 1.400 . S
C1667 C1666 1.385 . S
C1668 C1666 1.478 . S
C1668 C1670 1.381 . S
C1668 C1674 1.383 . S
C1669 C1665 1.495 . S
C1669 H1675 0.959 . S
C1669 H1676 0.961 . S
C1669 H1677 0.960 . S
C1670 C1668 1.381 . S
C1670 C1671 1.394 . S
C1670 H1678 0.930 . S
C1671 C1670 1.394 . S
C1671 C1672 1.383 . S
C1671 H1679 0.929 . S
C1672 C1671 1.383 . S
C1672 C1673 1.377 . S
C1673 H1657 0.930 . S
C1673 C1672 1.377 . S
C1673 C1674 1.379 . S
C1674 H1658 0.931 . S
C1674 C1668 1.383 . S
C1674 C1673 1.379 . S
H1675 C1669 0.959 . S
H1676 C1669 0.961 . S
H1677 C1669 0.960 . S
H1678 C1670 0.930 . S
H1679 C1671 0.929 . S
H1680 C1688 0.929 . S
H1681 C1690 0.930 . S
H1682 C1692 0.930 . S
H1683 C1695 0.929 . S
H1684 C1698 0.930 . S
H1685 C1700 0.960 . S
H1686 C1700 0.960 . S
H1687 C1700 0.960 . S
C1688 H1680 0.929 . S
C1688 C1689 1.377 . S
C1688 C1690 1.384 . S
C1689 C1688 1.377 . S
C1689 C1695 1.390 . S
C1690 H1681 0.930 . S
C1690 C1688 1.384 . S
C1690 C1691 1.372 . S
C1691 C1690 1.372 . S
C1691 C1692 1.400 . S
C1691 C1696 1.490 . S
C1692 H1682 0.930 . S
C1692 C1691 1.400 . S
C1692 C1695 1.386 . S
H1693 C1709 0.930 . S
H1694 C1710 0.931 . S
C1695 H1683 0.929 . S
C1695 C1689 1.390 . S
C1695 C1692 1.386 . S
C1696 C1691 1.490 . S
C1696 C1698 1.395 . S
C1696 C1699 1.403 . S
H1697 C1703 0.930 . S
C1698 H1684 0.930 . S
C1698 C1696 1.395 . S
C1698 C1701 1.403 . S
C1699 C1696 1.403 . S
C1699 C1700 1.524 . S
C1699 C1703 1.400 . S
C1700 H1685 0.960 . S
C1700 H1686 0.960 . S
C1700 H1687 0.960 . S
C1700 C1699 1.524 . S
C1701 C1698 1.403 . S
C1701 C1702 1.392 . S
C1701 C1705 1.495 . S
C1702 C1701 1.392 . S
C1702 C1703 1.385 . S
C1702 C1704 1.478 . S
C1703 H1697 0.930 . S
C1703 C1699 1.400 . S
C1703 C1702 1.385 . S
C1704 C1702 1.478 . S
C1704 C1706 1.381 . S
C1704 C1710 1.383 . S
C1705 C1701 1.495 . S
C1705 H1711 0.959 . S
C1705 H1712 0.961 . S
C1705 H1713 0.960 . S
C1706 C1704 1.381 . S
C1706 C1707 1.394 . S
C1706 H1714 0.930 . S
C1707 C1706 1.394 . S
C1707 C1708 1.383 . S
C1707 H1715 0.929 . S
C1708 C1707 1.383 . S
C1708 C1709 1.377 . S
C1709 H1693 0.930 . S
C1709 C1708 1.377 . S
C1709 C1710 1.379 . S
C1710 H1694 0.931 . S
C1710 C1704 1.383 . S
C1710 C1709 1.379 . S
H1711 C1705 0.959 . S
H1712 C1705 0.961 . S
H1713 C1705 0.960 . S
H1714 C1706 0.930 . S
H1715 C1707 0.929 . S
H1716 C1724 0.929 . S
H1717 C1726 0.930 . S
H1718 C1728 0.930 1_455 S
H1719 C1731 0.929 . S
H1720 C1734 0.930 1_655 S
H1721 C1736 0.960 . S
H1722 C1736 0.960 . S
H1723 C1736 0.960 . S
C1724 H1716 0.929 . S
C1724 C1725 1.377 . S
C1724 C1726 1.384 . S
C1725 C1724 1.377 . S
C1725 C1731 1.390 . S
C1726 H1717 0.930 . S
C1726 C1724 1.384 . S
C1726 C1727 1.372 . S
C1727 C1726 1.372 . S
C1727 C1728 1.400 . S
C1727 C1732 1.490 1_655 S
C1728 H1718 0.930 1_655 S
C1728 C1727 1.400 . S
C1728 C1731 1.386 . S
H1729 C1745 0.930 . S
H1730 C1746 0.931 . S
C1731 H1719 0.929 . S
C1731 C1725 1.390 . S
C1731 C1728 1.386 . S
C1732 C1727 1.490 1_455 S
C1732 C1734 1.395 . S
C1732 C1735 1.403 . S
H1733 C1739 0.930 . S
C1734 H1720 0.930 1_455 S
C1734 C1732 1.395 . S
C1734 C1737 1.403 . S
C1735 C1732 1.403 . S
C1735 C1736 1.524 . S
C1735 C1739 1.400 . S
C1736 H1721 0.960 . S
C1736 H1722 0.960 . S
C1736 H1723 0.960 . S
C1736 C1735 1.524 . S
C1737 C1734 1.403 . S
C1737 C1738 1.392 . S
C1737 C1741 1.495 . S
C1738 C1737 1.392 . S
C1738 C1739 1.385 . S
C1738 C1740 1.478 . S
C1739 H1733 0.930 . S
C1739 C1735 1.400 . S
C1739 C1738 1.385 . S
C1740 C1738 1.478 . S
C1740 C1742 1.381 . S
C1740 C1746 1.383 . S
C1741 C1737 1.495 . S
C1741 H1747 0.959 . S
C1741 H1748 0.961 . S
C1741 H1749 0.960 . S
C1742 C1740 1.381 . S
C1742 C1743 1.394 . S
C1742 H1750 0.930 . S
C1743 C1742 1.394 . S
C1743 C1744 1.383 . S
C1743 H1751 0.929 . S
C1744 C1743 1.383 . S
C1744 C1745 1.377 . S
C1745 H1729 0.930 . S
C1745 C1744 1.377 . S
C1745 C1746 1.379 . S
C1746 H1730 0.931 . S
C1746 C1740 1.383 . S
C1746 C1745 1.379 . S
H1747 C1741 0.959 . S
H1748 C1741 0.961 . S
H1749 C1741 0.960 . S
H1750 C1742 0.930 . S
H1751 C1743 0.929 . S
H1752 C1760 0.929 . S
H1753 C1762 0.930 . S
H1754 C1764 0.930 . S
H1755 C1767 0.929 . S
H1756 C1770 0.930 . S
H1757 C1772 0.960 . S
H1758 C1772 0.960 . S
H1759 C1772 0.960 . S
C1760 H1752 0.929 . S
C1760 C1761 1.377 . S
C1760 C1762 1.384 . S
C1761 C1760 1.377 . S
C1761 C1767 1.390 . S
C1762 H1753 0.930 . S
C1762 C1760 1.384 . S
C1762 C1763 1.372 . S
C1763 C1762 1.372 . S
C1763 C1764 1.400 . S
C1763 C1768 1.490 . S
C1764 H1754 0.930 . S
C1764 C1763 1.400 . S
C1764 C1767 1.386 . S
H1765 C1781 0.930 . S
H1766 C1782 0.931 . S
C1767 H1755 0.929 . S
C1767 C1761 1.390 . S
C1767 C1764 1.386 . S
C1768 C1763 1.490 . S
C1768 C1770 1.395 . S
C1768 C1771 1.403 . S
H1769 C1775 0.930 . S
C1770 H1756 0.930 . S
C1770 C1768 1.395 . S
C1770 C1773 1.403 . S
C1771 C1768 1.403 . S
C1771 C1772 1.524 . S
C1771 C1775 1.400 . S
C1772 H1757 0.960 . S
C1772 H1758 0.960 . S
C1772 H1759 0.960 . S
C1772 C1771 1.524 . S
C1773 C1770 1.403 . S
C1773 C1774 1.392 . S
C1773 C1777 1.495 . S
C1774 C1773 1.392 . S
C1774 C1775 1.385 . S
C1774 C1776 1.478 . S
C1775 H1769 0.930 . S
C1775 C1771 1.400 . S
C1775 C1774 1.385 . S
C1776 C1774 1.478 . S
C1776 C1778 1.381 . S
C1776 C1782 1.383 . S
C1777 C1773 1.495 . S
C1777 H1783 0.959 . S
C1777 H1784 0.961 . S
C1777 H1785 0.960 . S
C1778 C1776 1.381 . S
C1778 C1779 1.394 . S
C1778 H1786 0.930 . S
C1779 C1778 1.394 . S
C1779 C1780 1.383 . S
C1779 H1787 0.929 . S
C1780 C1779 1.383 . S
C1780 C1781 1.377 . S
C1781 H1765 0.930 . S
C1781 C1780 1.377 . S
C1781 C1782 1.379 . S
C1782 H1766 0.931 . S
C1782 C1776 1.383 . S
C1782 C1781 1.379 . S
H1783 C1777 0.959 . S
H1784 C1777 0.961 . S
H1785 C1777 0.960 . S
H1786 C1778 0.930 . S
H1787 C1779 0.929 . S
H1788 C1796 0.929 . S
H1789 C1798 0.930 . S
H1790 C1800 0.930 . S
H1791 C1803 0.929 . S
H1792 C1806 0.930 . S
H1793 C1808 0.960 . S
H1794 C1808 0.960 . S
H1795 C1808 0.960 . S
C1796 H1788 0.929 . S
C1796 C1797 1.377 . S
C1796 C1798 1.384 . S
C1797 C1796 1.377 . S
C1797 C1803 1.390 . S
C1798 H1789 0.930 . S
C1798 C1796 1.384 . S
C1798 C1799 1.372 . S
C1799 C1798 1.372 . S
C1799 C1800 1.400 . S
C1799 C1804 1.490 . S
C1800 H1790 0.930 . S
C1800 C1799 1.400 . S
C1800 C1803 1.386 . S
H1801 C1817 0.930 . S
H1802 C1818 0.931 . S
C1803 H1791 0.929 . S
C1803 C1797 1.390 . S
C1803 C1800 1.386 . S
C1804 C1799 1.490 . S
C1804 C1806 1.395 . S
C1804 C1807 1.403 . S
H1805 C1811 0.930 . S
C1806 H1792 0.930 . S
C1806 C1804 1.395 . S
C1806 C1809 1.403 . S
C1807 C1804 1.403 . S
C1807 C1808 1.524 . S
C1807 C1811 1.400 . S
C1808 H1793 0.960 . S
C1808 H1794 0.960 . S
C1808 H1795 0.960 . S
C1808 C1807 1.524 . S
C1809 C1806 1.403 . S
C1809 C1810 1.392 . S
C1809 C1813 1.495 . S
C1810 C1809 1.392 . S
C1810 C1811 1.385 . S
C1810 C1812 1.478 . S
C1811 H1805 0.930 . S
C1811 C1807 1.400 . S
C1811 C1810 1.385 . S
C1812 C1810 1.478 . S
C1812 C1814 1.381 . S
C1812 C1818 1.383 . S
C1813 C1809 1.495 . S
C1813 H1819 0.959 . S
C1813 H1820 0.961 . S
C1813 H1821 0.960 . S
C1814 C1812 1.381 . S
C1814 C1815 1.394 . S
C1814 H1822 0.930 . S
C1815 C1814 1.394 . S
C1815 C1816 1.383 . S
C1815 H1823 0.929 . S
C1816 C1815 1.383 . S
C1816 C1817 1.377 . S
C1817 H1801 0.930 . S
C1817 C1816 1.377 . S
C1817 C1818 1.379 . S
C1818 H1802 0.931 . S
C1818 C1812 1.383 . S
C1818 C1817 1.379 . S
H1819 C1813 0.959 . S
H1820 C1813 0.961 . S
H1821 C1813 0.960 . S
H1822 C1814 0.930 . S
H1823 C1815 0.929 . S
H1824 C1832 0.929 . S
H1825 C1834 0.930 . S
H1826 C1836 0.930 . S
H1827 C1839 0.929 . S
H1828 C1842 0.930 . S
H1829 C1844 0.960 . S
H1830 C1844 0.960 . S
H1831 C1844 0.960 . S
C1832 H1824 0.929 . S
C1832 C1833 1.377 . S
C1832 C1834 1.384 . S
C1833 C1832 1.377 . S
C1833 C1839 1.390 . S
C1834 H1825 0.930 . S
C1834 C1832 1.384 . S
C1834 C1835 1.372 . S
C1835 C1834 1.372 . S
C1835 C1836 1.400 . S
C1835 C1840 1.490 . S
C1836 H1826 0.930 . S
C1836 C1835 1.400 . S
C1836 C1839 1.386 . S
H1837 C1853 0.930 . S
H1838 C1854 0.931 . S
C1839 H1827 0.929 . S
C1839 C1833 1.390 . S
C1839 C1836 1.386 . S
C1840 C1835 1.490 . S
C1840 C1842 1.395 . S
C1840 C1843 1.403 . S
H1841 C1847 0.930 . S
C1842 H1828 0.930 . S
C1842 C1840 1.395 . S
C1842 C1845 1.403 . S
C1843 C1840 1.403 . S
C1843 C1844 1.524 . S
C1843 C1847 1.400 . S
C1844 H1829 0.960 . S
C1844 H1830 0.960 . S
C1844 H1831 0.960 . S
C1844 C1843 1.524 . S
C1845 C1842 1.403 . S
C1845 C1846 1.392 . S
C1845 C1849 1.495 . S
C1846 C1845 1.392 . S
C1846 C1847 1.385 . S
C1846 C1848 1.478 . S
C1847 H1841 0.930 . S
C1847 C1843 1.400 . S
C1847 C1846 1.385 . S
C1848 C1846 1.478 . S
C1848 C1850 1.381 . S
C1848 C1854 1.383 . S
C1849 C1845 1.495 . S
C1849 H1855 0.959 . S
C1849 H1856 0.961 . S
C1849 H1857 0.960 . S
C1850 C1848 1.381 . S
C1850 C1851 1.394 . S
C1850 H1858 0.930 . S
C1851 C1850 1.394 . S
C1851 C1852 1.383 . S
C1851 H1859 0.929 . S
C1852 C1851 1.383 . S
C1852 C1853 1.377 . S
C1853 H1837 0.930 . S
C1853 C1852 1.377 . S
C1853 C1854 1.379 . S
C1854 H1838 0.931 . S
C1854 C1848 1.383 . S
C1854 C1853 1.379 . S
H1855 C1849 0.959 . S
H1856 C1849 0.961 . S
H1857 C1849 0.960 . S
H1858 C1850 0.930 . S
H1859 C1851 0.929 . S
H1860 C1868 0.929 . S
H1861 C1870 0.930 . S
H1862 C1872 0.930 . S
H1863 C1875 0.929 . S
H1864 C1878 0.930 . S
H1865 C1880 0.960 . S
H1866 C1880 0.960 . S
H1867 C1880 0.960 . S
C1868 H1860 0.929 . S
C1868 C1869 1.377 . S
C1868 C1870 1.384 . S
C1869 C1868 1.377 . S
C1869 C1875 1.390 . S
C1870 H1861 0.930 . S
C1870 C1868 1.384 . S
C1870 C1871 1.372 . S
C1871 C1870 1.372 . S
C1871 C1872 1.400 . S
C1871 C1876 1.490 . S
C1872 H1862 0.930 . S
C1872 C1871 1.400 . S
C1872 C1875 1.386 . S
H1873 C1889 0.930 . S
H1874 C1890 0.931 . S
C1875 H1863 0.929 . S
C1875 C1869 1.390 . S
C1875 C1872 1.386 . S
C1876 C1871 1.490 . S
C1876 C1878 1.395 . S
C1876 C1879 1.403 . S
H1877 C1883 0.930 . S
C1878 H1864 0.930 . S
C1878 C1876 1.395 . S
C1878 C1881 1.403 . S
C1879 C1876 1.403 . S
C1879 C1880 1.524 . S
C1879 C1883 1.400 . S
C1880 H1865 0.960 . S
C1880 H1866 0.960 . S
C1880 H1867 0.960 . S
C1880 C1879 1.524 . S
C1881 C1878 1.403 . S
C1881 C1882 1.392 . S
C1881 C1885 1.495 . S
C1882 C1881 1.392 . S
C1882 C1883 1.385 . S
C1882 C1884 1.478 . S
C1883 H1877 0.930 . S
C1883 C1879 1.400 . S
C1883 C1882 1.385 . S
C1884 C1882 1.478 . S
C1884 C1886 1.381 . S
C1884 C1890 1.383 . S
C1885 C1881 1.495 . S
C1885 H1891 0.959 . S
C1885 H1892 0.961 . S
C1885 H1893 0.960 . S
C1886 C1884 1.381 . S
C1886 C1887 1.394 . S
C1886 H1894 0.930 . S
C1887 C1886 1.394 . S
C1887 C1888 1.383 . S
C1887 H1895 0.929 . S
C1888 C1887 1.383 . S
C1888 C1889 1.377 . S
C1889 H1873 0.930 . S
C1889 C1888 1.377 . S
C1889 C1890 1.379 . S
C1890 H1874 0.931 . S
C1890 C1884 1.383 . S
C1890 C1889 1.379 . S
H1891 C1885 0.959 . S
H1892 C1885 0.961 . S
H1893 C1885 0.960 . S
H1894 C1886 0.930 . S
H1895 C1887 0.929 . S
H1896 C1904 0.929 . S
H1897 C1906 0.930 . S
H1898 C1908 0.930 . S
H1899 C1911 0.929 . S
H1900 C1914 0.930 . S
H1901 C1916 0.960 . S
H1902 C1916 0.960 . S
H1903 C1916 0.960 . S
C1904 H1896 0.929 . S
C1904 C1905 1.377 . S
C1904 C1906 1.384 . S
C1905 C1904 1.377 . S
C1905 C1911 1.390 . S
C1906 H1897 0.930 . S
C1906 C1904 1.384 . S
C1906 C1907 1.372 . S
C1907 C1906 1.372 . S
C1907 C1908 1.400 . S
C1907 C1912 1.490 . S
C1908 H1898 0.930 . S
C1908 C1907 1.400 . S
C1908 C1911 1.386 . S
H1909 C1925 0.930 . S
H1910 C1926 0.931 . S
C1911 H1899 0.929 . S
C1911 C1905 1.390 . S
C1911 C1908 1.386 . S
C1912 C1907 1.490 . S
C1912 C1914 1.395 . S
C1912 C1915 1.403 . S
H1913 C1919 0.930 . S
C1914 H1900 0.930 . S
C1914 C1912 1.395 . S
C1914 C1917 1.403 . S
C1915 C1912 1.403 . S
C1915 C1916 1.524 . S
C1915 C1919 1.400 . S
C1916 H1901 0.960 . S
C1916 H1902 0.960 . S
C1916 H1903 0.960 . S
C1916 C1915 1.524 . S
C1917 C1914 1.403 . S
C1917 C1918 1.392 . S
C1917 C1921 1.495 . S
C1918 C1917 1.392 . S
C1918 C1919 1.385 . S
C1918 C1920 1.478 . S
C1919 H1913 0.930 . S
C1919 C1915 1.400 . S
C1919 C1918 1.385 . S
C1920 C1918 1.478 . S
C1920 C1922 1.381 . S
C1920 C1926 1.383 . S
C1921 C1917 1.495 . S
C1921 H1927 0.959 . S
C1921 H1928 0.961 . S
C1921 H1929 0.960 . S
C1922 C1920 1.381 . S
C1922 C1923 1.394 . S
C1922 H1930 0.930 . S
C1923 C1922 1.394 . S
C1923 C1924 1.383 . S
C1923 H1931 0.929 . S
C1924 C1923 1.383 . S
C1924 C1925 1.377 . S
C1925 H1909 0.930 . S
C1925 C1924 1.377 . S
C1925 C1926 1.379 . S
C1926 H1910 0.931 . S
C1926 C1920 1.383 . S
C1926 C1925 1.379 . S
H1927 C1921 0.959 . S
H1928 C1921 0.961 . S
H1929 C1921 0.960 . S
H1930 C1922 0.930 . S
H1931 C1923 0.929 . S
H1932 C1940 0.929 . S
H1933 C1942 0.930 . S
H1934 C1944 0.930 . S
H1935 C1947 0.929 . S
H1936 C1950 0.930 . S
H1937 C1952 0.960 . S
H1938 C1952 0.960 . S
H1939 C1952 0.960 . S
C1940 H1932 0.929 . S
C1940 C1941 1.377 . S
C1940 C1942 1.384 . S
C1941 C1940 1.377 . S
C1941 C1947 1.390 . S
C1942 H1933 0.930 . S
C1942 C1940 1.384 . S
C1942 C1943 1.372 . S
C1943 C1942 1.372 . S
C1943 C1944 1.400 . S
C1943 C1948 1.490 . S
C1944 H1934 0.930 . S
C1944 C1943 1.400 . S
C1944 C1947 1.386 . S
H1945 C1961 0.930 . S
H1946 C1962 0.931 . S
C1947 H1935 0.929 . S
C1947 C1941 1.390 . S
C1947 C1944 1.386 . S
C1948 C1943 1.490 . S
C1948 C1950 1.395 . S
C1948 C1951 1.403 . S
H1949 C1955 0.930 . S
C1950 H1936 0.930 . S
C1950 C1948 1.395 . S
C1950 C1953 1.403 . S
C1951 C1948 1.403 . S
C1951 C1952 1.524 . S
C1951 C1955 1.400 . S
C1952 H1937 0.960 . S
C1952 H1938 0.960 . S
C1952 H1939 0.960 . S
C1952 C1951 1.524 . S
C1953 C1950 1.403 . S
C1953 C1954 1.392 . S
C1953 C1957 1.495 1_554 S
C1954 C1953 1.392 . S
C1954 C1955 1.385 . S
C1954 C1956 1.478 1_554 S
C1955 H1949 0.930 . S
C1955 C1951 1.400 . S
C1955 C1954 1.385 . S
C1956 C1954 1.478 1_556 S
C1956 C1958 1.381 . S
C1956 C1962 1.383 1_556 S
C1957 C1953 1.495 1_556 S
C1957 H1963 0.959 . S
C1957 H1964 0.961 . S
C1957 H1965 0.960 . S
C1958 C1956 1.381 . S
C1958 C1959 1.394 . S
C1958 H1966 0.930 . S
C1959 C1958 1.394 . S
C1959 C1960 1.383 . S
C1959 H1967 0.929 . S
C1960 C1959 1.383 . S
C1960 C1961 1.377 . S
C1961 H1945 0.930 . S
C1961 C1960 1.377 . S
C1961 C1962 1.379 1_556 S
C1962 H1946 0.931 . S
C1962 C1956 1.383 1_554 S
C1962 C1961 1.379 1_554 S
H1963 C1957 0.959 . S
H1964 C1957 0.961 . S
H1965 C1957 0.960 . S
H1966 C1958 0.930 . S
H1967 C1959 0.929 . S
H1968 C1976 0.929 . S
H1969 C1978 0.930 . S
H1970 C1980 0.930 . S
H1971 C1983 0.929 . S
H1972 C1986 0.930 . S
H1973 C1988 0.951 1_545 S
H1974 C1988 0.991 . S
H1975 C1988 0.971 . S
C1976 H1968 0.929 . S
C1976 C1977 1.377 . S
C1976 C1978 1.384 . S
C1977 C1976 1.377 . S
C1977 C1983 1.390 . S
C1978 H1969 0.930 . S
C1978 C1976 1.384 . S
C1978 C1979 1.372 . S
C1979 C1978 1.372 . S
C1979 C1980 1.400 . S
C1979 C1984 1.490 1_565 S
C1980 H1970 0.930 . S
C1980 C1979 1.400 . S
C1980 C1983 1.386 . S
H1981 C1997 0.930 . S
H1982 C1998 0.931 . S
C1983 H1971 0.929 . S
C1983 C1977 1.390 . S
C1983 C1980 1.386 . S
C1984 C1979 1.490 1_545 S
C1984 C1986 1.395 . S
C1984 C1987 1.403 . S
H1985 C1991 0.930 . S
C1986 H1972 0.930 . S
C1986 C1984 1.395 . S
C1986 C1989 1.403 . S
C1987 C1984 1.403 . S
C1987 C1988 1.493 1_545 S
C1987 C1991 1.400 . S
C1988 H1973 0.951 1_565 S
C1988 H1974 0.991 . S
C1988 H1975 0.971 . S
C1988 C1987 1.493 1_565 S
C1989 C1986 1.403 . S
C1989 C1990 1.392 . S
C1989 C1993 1.495 . S
C1990 C1989 1.392 . S
C1990 C1991 1.385 . S
C1990 C1992 1.478 . S
C1991 H1985 0.930 . S
C1991 C1987 1.400 . S
C1991 C1990 1.385 . S
C1992 C1990 1.478 . S
C1992 C1994 1.381 . S
C1992 C1998 1.383 . S
C1993 C1989 1.495 . S
C1993 H1999 0.959 . S
C1993 H2000 0.961 . S
C1993 H2001 0.960 . S
C1994 C1992 1.381 . S
C1994 C1995 1.394 . S
C1994 H2002 0.930 . S
C1995 C1994 1.394 . S
C1995 C1996 1.383 . S
C1995 H2003 0.929 . S
C1996 C1995 1.383 . S
C1996 C1997 1.377 . S
C1997 H1981 0.930 . S
C1997 C1996 1.377 . S
C1997 C1998 1.379 . S
C1998 H1982 0.931 . S
C1998 C1992 1.383 . S
C1998 C1997 1.379 . S
H1999 C1993 0.959 . S
H2000 C1993 0.961 . S
H2001 C1993 0.960 . S
H2002 C1994 0.930 . S
H2003 C1995 0.929 . S
H2004 C2012 0.929 . S
H2005 C2014 0.930 . S
H2006 C2016 0.930 . S
H2007 C2019 0.929 1_556 S
H2008 C2022 0.930 . S
H2009 C2024 0.960 . S
H2010 C2024 0.960 . S
H2011 C2024 0.960 . S
C2012 H2004 0.929 . S
C2012 C2013 1.377 . S
C2012 C2014 1.384 . S
C2013 C2012 1.377 . S
C2013 C2019 1.390 . S
C2014 H2005 0.930 . S
C2014 C2012 1.384 . S
C2014 C2015 1.372 1_554 S
C2015 C2014 1.372 1_556 S
C2015 C2016 1.400 . S
C2015 C2020 1.490 . S
C2016 H2006 0.930 . S
C2016 C2015 1.400 . S
C2016 C2019 1.386 1_556 S
H2017 C2033 0.930 . S
H2018 C2034 0.931 . S
C2019 H2007 0.929 1_554 S
C2019 C2013 1.390 . S
C2019 C2016 1.386 1_554 S
C2020 C2015 1.490 . S
C2020 C2022 1.395 . S
C2020 C2023 1.403 . S
H2021 C2027 0.930 . S
C2022 H2008 0.930 . S
C2022 C2020 1.395 . S
C2022 C2025 1.403 . S
C2023 C2020 1.403 . S
C2023 C2024 1.524 . S
C2023 C2027 1.400 . S
C2024 H2009 0.960 . S
C2024 H2010 0.960 . S
C2024 H2011 0.960 . S
C2024 C2023 1.524 . S
C2025 C2022 1.403 . S
C2025 C2026 1.392 . S
C2025 C2029 1.495 . S
C2026 C2025 1.392 . S
C2026 C2027 1.385 . S
C2026 C2028 1.478 . S
C2027 H2021 0.930 . S
C2027 C2023 1.400 . S
C2027 C2026 1.385 . S
C2028 C2026 1.478 . S
C2028 C2030 1.381 . S
C2028 C2034 1.383 . S
C2029 C2025 1.495 . S
C2029 H2035 0.959 . S
C2029 H2036 0.961 . S
C2029 H2037 0.960 . S
C2030 C2028 1.381 . S
C2030 C2031 1.394 . S
C2030 H2038 0.930 . S
C2031 C2030 1.394 . S
C2031 C2032 1.383 . S
C2031 H2039 0.929 . S
C2032 C2031 1.383 . S
C2032 C2033 1.377 . S
C2033 H2017 0.930 . S
C2033 C2032 1.377 . S
C2033 C2034 1.379 . S
C2034 H2018 0.931 . S
C2034 C2028 1.383 . S
C2034 C2033 1.379 . S
H2035 C2029 0.959 . S
H2036 C2029 0.961 . S
H2037 C2029 0.960 . S
H2038 C2030 0.930 . S
H2039 C2031 0.929 . S
H2040 C2048 0.929 . S
H2041 C2050 0.930 . S
H2042 C2052 0.930 1_565 S
H2043 C2055 0.929 . S
H2044 C2058 0.930 . S
H2045 C2060 0.960 . S
H2046 C2060 0.960 1_545 S
H2047 C2060 0.960 . S
C2048 H2040 0.929 . S
C2048 C2049 1.377 . S
C2048 C2050 1.384 . S
C2049 C2048 1.377 . S
C2049 C2055 1.390 . S
C2050 H2041 0.930 . S
C2050 C2048 1.384 . S
C2050 C2051 1.372 . S
C2051 C2050 1.372 . S
C2051 C2052 1.400 . S
C2051 C2056 1.490 1_545 S
C2052 H2042 0.930 1_545 S
C2052 C2051 1.400 . S
C2052 C2055 1.386 . S
H2053 C2069 0.930 . S
H2054 C2070 0.931 . S
C2055 H2043 0.929 . S
C2055 C2049 1.390 . S
C2055 C2052 1.386 . S
C2056 C2051 1.490 1_565 S
C2056 C2058 1.395 . S
C2056 C2059 1.403 . S
H2057 C2063 0.930 . S
C2058 H2044 0.930 . S
C2058 C2056 1.395 . S
C2058 C2061 1.403 . S
C2059 C2056 1.403 . S
C2059 C2060 1.524 . S
C2059 C2063 1.400 . S
C2060 H2045 0.960 . S
C2060 H2046 0.960 1_565 S
C2060 H2047 0.960 . S
C2060 C2059 1.524 . S
C2061 C2058 1.403 . S
C2061 C2062 1.392 . S
C2061 C2065 1.495 . S
C2062 C2061 1.392 . S
C2062 C2063 1.385 . S
C2062 C2064 1.478 . S
C2063 H2057 0.930 . S
C2063 C2059 1.400 . S
C2063 C2062 1.385 . S
C2064 C2062 1.478 . S
C2064 C2066 1.381 . S
C2064 C2070 1.383 . S
C2065 C2061 1.495 . S
C2065 H2071 0.959 . S
C2065 H2072 0.961 . S
C2065 H2073 0.960 . S
C2066 C2064 1.381 . S
C2066 C2067 1.394 . S
C2066 H2074 0.930 . S
C2067 C2066 1.394 . S
C2067 C2068 1.383 . S
C2067 H2075 0.929 . S
C2068 C2067 1.383 . S
C2068 C2069 1.377 . S
C2069 H2053 0.930 . S
C2069 C2068 1.377 . S
C2069 C2070 1.379 . S
C2070 H2054 0.931 . S
C2070 C2064 1.383 . S
C2070 C2069 1.379 . S
H2071 C2065 0.959 . S
H2072 C2065 0.961 . S
H2073 C2065 0.960 . S
H2074 C2066 0.930 . S
H2075 C2067 0.929 . S
H2076 C2084 0.929 . S
H2077 C2086 0.930 . S
H2078 C2088 0.930 . S
H2079 C2091 0.929 . S
H2080 C2094 0.930 . S
H2081 C2096 0.960 . S
H2082 C2096 0.960 . S
H2083 C2096 0.960 . S
C2084 H2076 0.929 . S
C2084 C2085 1.377 . S
C2084 C2086 1.384 . S
C2085 C2084 1.377 . S
C2085 C2091 1.390 . S
C2086 H2077 0.930 . S
C2086 C2084 1.384 . S
C2086 C2087 1.372 . S
C2087 C2086 1.372 . S
C2087 C2088 1.400 . S
C2087 C2092 1.490 . S
C2088 H2078 0.930 . S
C2088 C2087 1.400 . S
C2088 C2091 1.386 . S
H2089 C2105 0.930 . S
H2090 C2106 0.931 . S
C2091 H2079 0.929 . S
C2091 C2085 1.390 . S
C2091 C2088 1.386 . S
C2092 C2087 1.490 . S
C2092 C2094 1.395 . S
C2092 C2095 1.403 . S
H2093 C2099 0.930 . S
C2094 H2080 0.930 . S
C2094 C2092 1.395 . S
C2094 C2097 1.403 . S
C2095 C2092 1.403 . S
C2095 C2096 1.524 . S
C2095 C2099 1.400 . S
C2096 H2081 0.960 . S
C2096 H2082 0.960 . S
C2096 H2083 0.960 . S
C2096 C2095 1.524 . S
C2097 C2094 1.403 . S
C2097 C2098 1.392 . S
C2097 C2101 1.495 . S
C2098 C2097 1.392 . S
C2098 C2099 1.385 . S
C2098 C2100 1.478 . S
C2099 H2093 0.930 . S
C2099 C2095 1.400 . S
C2099 C2098 1.385 . S
C2100 C2098 1.478 . S
C2100 C2102 1.381 . S
C2100 C2106 1.383 . S
C2101 C2097 1.495 . S
C2101 H2107 0.959 . S
C2101 H2108 0.961 . S
C2101 H2109 0.960 . S
C2102 C2100 1.381 . S
C2102 C2103 1.394 . S
C2102 H2110 0.930 . S
C2103 C2102 1.394 . S
C2103 C2104 1.383 . S
C2103 H2111 0.929 . S
C2104 C2103 1.383 . S
C2104 C2105 1.377 . S
C2105 H2089 0.930 . S
C2105 C2104 1.377 . S
C2105 C2106 1.379 . S
C2106 H2090 0.931 . S
C2106 C2100 1.383 . S
C2106 C2105 1.379 . S
H2107 C2101 0.959 . S
H2108 C2101 0.961 . S
H2109 C2101 0.960 . S
H2110 C2102 0.930 . S
H2111 C2103 0.929 . S
H2112 C2120 0.929 . S
H2113 C2122 0.930 . S
H2114 C2124 0.930 . S
H2115 C2127 0.929 . S
H2116 C2130 0.930 . S
H2117 C2132 0.960 . S
H2118 C2132 0.960 . S
H2119 C2132 0.960 . S
C2120 H2112 0.929 . S
C2120 C2121 1.377 . S
C2120 C2122 1.384 . S
C2121 C2120 1.377 . S
C2121 C2127 1.390 . S
C2122 H2113 0.930 . S
C2122 C2120 1.384 . S
C2122 C2123 1.372 . S
C2123 C2122 1.372 . S
C2123 C2124 1.400 . S
C2123 C2128 1.490 . S
C2124 H2114 0.930 . S
C2124 C2123 1.400 . S
C2124 C2127 1.386 . S
H2125 C2141 0.930 . S
H2126 C2142 0.931 . S
C2127 H2115 0.929 . S
C2127 C2121 1.390 . S
C2127 C2124 1.386 . S
C2128 C2123 1.490 . S
C2128 C2130 1.395 . S
C2128 C2131 1.403 . S
H2129 C2135 0.930 . S
C2130 H2116 0.930 . S
C2130 C2128 1.395 . S
C2130 C2133 1.403 . S
C2131 C2128 1.403 . S
C2131 C2132 1.524 . S
C2131 C2135 1.400 . S
C2132 H2117 0.960 . S
C2132 H2118 0.960 . S
C2132 H2119 0.960 . S
C2132 C2131 1.524 . S
C2133 C2130 1.403 . S
C2133 C2134 1.392 . S
C2133 C2137 1.495 . S
C2134 C2133 1.392 . S
C2134 C2135 1.385 . S
C2134 C2136 1.478 . S
C2135 H2129 0.930 . S
C2135 C2131 1.400 . S
C2135 C2134 1.385 . S
C2136 C2134 1.478 . S
C2136 C2138 1.381 . S
C2136 C2142 1.383 . S
C2137 C2133 1.495 . S
C2137 H2143 0.959 . S
C2137 H2144 0.961 . S
C2137 H2145 0.960 . S
C2138 C2136 1.381 . S
C2138 C2139 1.394 . S
C2138 H2146 0.930 . S
C2139 C2138 1.394 . S
C2139 C2140 1.383 . S
C2139 H2147 0.929 . S
C2140 C2139 1.383 . S
C2140 C2141 1.377 . S
C2141 H2125 0.930 . S
C2141 C2140 1.377 . S
C2141 C2142 1.379 . S
C2142 H2126 0.931 . S
C2142 C2136 1.383 . S
C2142 C2141 1.379 . S
H2143 C2137 0.959 . S
H2144 C2137 0.961 . S
H2145 C2137 0.960 . S
H2146 C2138 0.930 . S
H2147 C2139 0.929 . S
H2148 C2156 0.929 . S
H2149 C2158 0.930 . S
H2150 C2160 0.930 . S
H2151 C2163 0.929 1_545 S
H2152 C2166 0.930 . S
H2153 C2168 0.960 . S
H2154 C2168 0.960 1_565 S
H2155 C2168 0.960 . S
C2156 H2148 0.929 . S
C2156 C2157 1.377 . S
C2156 C2158 1.384 . S
C2157 C2156 1.377 . S
C2157 C2163 1.390 . S
C2158 H2149 0.930 . S
C2158 C2156 1.384 . S
C2158 C2159 1.372 1_565 S
C2159 C2158 1.372 1_545 S
C2159 C2160 1.400 . S
C2159 C2164 1.490 . S
C2160 H2150 0.930 . S
C2160 C2159 1.400 . S
C2160 C2163 1.386 1_545 S
H2161 C2177 0.930 . S
H2162 C2178 0.931 . S
C2163 H2151 0.929 1_565 S
C2163 C2157 1.390 . S
C2163 C2160 1.386 1_565 S
C2164 C2159 1.490 . S
C2164 C2166 1.395 . S
C2164 C2167 1.403 . S
H2165 C2171 0.930 . S
C2166 H2152 0.930 . S
C2166 C2164 1.395 . S
C2166 C2169 1.403 . S
C2167 C2164 1.403 . S
C2167 C2168 1.524 . S
C2167 C2171 1.400 . S
C2168 H2153 0.960 . S
C2168 H2154 0.960 1_545 S
C2168 H2155 0.960 . S
C2168 C2167 1.524 . S
C2169 C2166 1.403 . S
C2169 C2170 1.392 . S
C2169 C2173 1.495 . S
C2170 C2169 1.392 . S
C2170 C2171 1.385 . S
C2170 C2172 1.478 . S
C2171 H2165 0.930 . S
C2171 C2167 1.400 . S
C2171 C2170 1.385 . S
C2172 C2170 1.478 . S
C2172 C2174 1.381 . S
C2172 C2178 1.383 . S
C2173 C2169 1.495 . S
C2173 H2179 0.959 . S
C2173 H2180 0.961 . S
C2173 H2181 0.960 . S
C2174 C2172 1.381 . S
C2174 C2175 1.394 . S
C2174 H2182 0.930 . S
C2175 C2174 1.394 . S
C2175 C2176 1.383 . S
C2175 H2183 0.929 . S
C2176 C2175 1.383 . S
C2176 C2177 1.377 . S
C2177 H2161 0.930 . S
C2177 C2176 1.377 . S
C2177 C2178 1.379 . S
C2178 H2162 0.931 . S
C2178 C2172 1.383 . S
C2178 C2177 1.379 . S
H2179 C2173 0.959 . S
H2180 C2173 0.961 . S
H2181 C2173 0.960 . S
H2182 C2174 0.930 . S
H2183 C2175 0.929 . S
H2184 C2192 0.929 . S
H2185 C2194 0.930 . S
H2186 C2196 0.930 . S
H2187 C2199 0.929 . S
H2188 C2202 0.930 . S
H2189 C2204 0.960 . S
H2190 C2204 0.960 . S
H2191 C2204 0.960 . S
C2192 H2184 0.929 . S
C2192 C2193 1.377 . S
C2192 C2194 1.384 . S
C2193 C2192 1.377 . S
C2193 C2199 1.390 . S
C2194 H2185 0.930 . S
C2194 C2192 1.384 . S
C2194 C2195 1.372 . S
C2195 C2194 1.372 . S
C2195 C2196 1.400 . S
C2195 C2200 1.490 . S
C2196 H2186 0.930 . S
C2196 C2195 1.400 . S
C2196 C2199 1.386 . S
H2197 C2213 0.930 . S
H2198 C2214 0.931 . S
C2199 H2187 0.929 . S
C2199 C2193 1.390 . S
C2199 C2196 1.386 . S
C2200 C2195 1.490 . S
C2200 C2202 1.395 . S
C2200 C2203 1.403 . S
H2201 C2207 0.930 . S
C2202 H2188 0.930 . S
C2202 C2200 1.395 . S
C2202 C2205 1.403 . S
C2203 C2200 1.403 . S
C2203 C2204 1.524 . S
C2203 C2207 1.400 . S
C2204 H2189 0.960 . S
C2204 H2190 0.960 . S
C2204 H2191 0.960 . S
C2204 C2203 1.524 . S
C2205 C2202 1.403 . S
C2205 C2206 1.392 . S
C2205 C2209 1.495 . S
C2206 C2205 1.392 . S
C2206 C2207 1.385 . S
C2206 C2208 1.478 . S
C2207 H2201 0.930 . S
C2207 C2203 1.400 . S
C2207 C2206 1.385 . S
C2208 C2206 1.478 . S
C2208 C2210 1.381 1_556 S
C2208 C2214 1.383 1_556 S
C2209 C2205 1.495 . S
C2209 H2215 0.959 . S
C2209 H2216 0.961 . S
C2209 H2217 0.960 . S
C2210 C2208 1.381 1_554 S
C2210 C2211 1.394 . S
C2210 H2218 0.930 1_554 S
C2211 C2210 1.394 . S
C2211 C2212 1.383 . S
C2211 H2219 0.929 . S
C2212 C2211 1.383 . S
C2212 C2213 1.377 . S
C2213 H2197 0.930 . S
C2213 C2212 1.377 . S
C2213 C2214 1.379 . S
C2214 H2198 0.931 . S
C2214 C2208 1.383 1_554 S
C2214 C2213 1.379 . S
H2215 C2209 0.959 . S
H2216 C2209 0.961 . S
H2217 C2209 0.960 . S
H2218 C2210 0.930 1_556 S
H2219 C2211 0.929 . S
H2220 C2228 0.929 . S
H2221 C2230 0.930 . S
H2222 C2232 0.930 . S
H2223 C2235 0.929 . S
H2224 C2238 0.930 . S
H2225 C2240 0.960 . S
H2226 C2240 0.960 . S
H2227 C2240 0.960 . S
C2228 H2220 0.929 . S
C2228 C2229 1.377 . S
C2228 C2230 1.384 . S
C2229 C2228 1.377 . S
C2229 C2235 1.390 . S
C2230 H2221 0.930 . S
C2230 C2228 1.384 . S
C2230 C2231 1.372 . S
C2231 C2230 1.372 . S
C2231 C2232 1.400 . S
C2231 C2236 1.490 . S
C2232 H2222 0.930 . S
C2232 C2231 1.400 . S
C2232 C2235 1.386 . S
H2233 C2249 0.913 1_565 S
H2234 C2250 0.931 . S
C2235 H2223 0.929 . S
C2235 C2229 1.390 . S
C2235 C2232 1.386 . S
C2236 C2231 1.490 . S
C2236 C2238 1.395 . S
C2236 C2239 1.403 . S
H2237 C2243 0.930 . S
C2238 H2224 0.930 . S
C2238 C2236 1.395 . S
C2238 C2241 1.403 . S
C2239 C2236 1.403 . S
C2239 C2240 1.524 . S
C2239 C2243 1.400 . S
C2240 H2225 0.960 . S
C2240 H2226 0.960 . S
C2240 H2227 0.960 . S
C2240 C2239 1.524 . S
C2241 C2238 1.403 . S
C2241 C2242 1.392 . S
C2241 C2245 1.495 . S
C2242 C2241 1.392 . S
C2242 C2243 1.385 . S
C2242 C2244 1.478 . S
C2243 H2237 0.930 . S
C2243 C2239 1.400 . S
C2243 C2242 1.385 . S
C2244 C2242 1.478 . S
C2244 C2246 1.381 1_565 S
C2244 C2250 1.383 . S
C2245 C2241 1.495 . S
C2245 H2251 0.959 . S
C2245 H2252 0.961 . S
C2245 H2253 0.960 . S
C2246 C2244 1.381 1_545 S
C2246 C2247 1.394 . S
C2246 H2254 0.930 . S
C2247 C2246 1.394 . S
C2247 C2248 1.383 . S
C2247 H2255 0.929 . S
C2248 C2247 1.383 . S
C2248 C2249 1.419 . S
C2249 H2233 0.913 1_545 S
C2249 C2248 1.419 . S
C2249 C2250 1.355 1_545 S
C2250 H2234 0.931 . S
C2250 C2244 1.383 . S
C2250 C2249 1.355 1_565 S
H2251 C2245 0.959 . S
H2252 C2245 0.961 . S
H2253 C2245 0.960 . S
H2254 C2246 0.930 . S
H2255 C2247 0.929 . S
H2256 C2264 0.929 . S
H2257 C2266 0.930 . S
H2258 C2268 0.930 . S
H2259 C2271 0.929 . S
H2260 C2274 0.930 . S
H2261 C2276 0.960 . S
H2262 C2276 0.960 . S
H2263 C2276 0.960 . S
C2264 H2256 0.929 . S
C2264 C2265 1.377 . S
C2264 C2266 1.384 . S
C2265 C2264 1.377 . S
C2265 C2271 1.390 . S
C2266 H2257 0.930 . S
C2266 C2264 1.384 . S
C2266 C2267 1.372 . S
C2267 C2266 1.372 . S
C2267 C2268 1.400 . S
C2267 C2272 1.490 . S
C2268 H2258 0.930 . S
C2268 C2267 1.400 . S
C2268 C2271 1.386 . S
H2269 C2285 0.930 . S
H2270 C2286 0.931 . S
C2271 H2259 0.929 . S
C2271 C2265 1.390 . S
C2271 C2268 1.386 . S
C2272 C2267 1.490 . S
C2272 C2274 1.395 . S
C2272 C2275 1.403 . S
H2273 C2279 0.930 . S
C2274 H2260 0.930 . S
C2274 C2272 1.395 . S
C2274 C2277 1.403 . S
C2275 C2272 1.403 . S
C2275 C2276 1.524 . S
C2275 C2279 1.400 . S
C2276 H2261 0.960 . S
C2276 H2262 0.960 . S
C2276 H2263 0.960 . S
C2276 C2275 1.524 . S
C2277 C2274 1.403 . S
C2277 C2278 1.392 . S
C2277 C2281 1.495 . S
C2278 C2277 1.392 . S
C2278 C2279 1.385 . S
C2278 C2280 1.478 . S
C2279 H2273 0.930 . S
C2279 C2275 1.400 . S
C2279 C2278 1.385 . S
C2280 C2278 1.478 . S
C2280 C2282 1.381 . S
C2280 C2286 1.383 . S
C2281 C2277 1.495 . S
C2281 H2287 0.959 . S
C2281 H2288 0.961 . S
C2281 H2289 0.960 . S
C2282 C2280 1.381 . S
C2282 C2283 1.394 . S
C2282 H2290 0.930 . S
C2283 C2282 1.394 . S
C2283 C2284 1.383 . S
C2283 H2291 0.929 . S
C2284 C2283 1.383 . S
C2284 C2285 1.377 . S
C2285 H2269 0.930 . S
C2285 C2284 1.377 . S
C2285 C2286 1.379 . S
C2286 H2270 0.931 . S
C2286 C2280 1.383 . S
C2286 C2285 1.379 . S
H2287 C2281 0.959 . S
H2288 C2281 0.961 . S
H2289 C2281 0.960 . S
H2290 C2282 0.930 . S
H2291 C2283 0.929 . S
H2292 C2300 0.929 . S
H2293 C2302 0.930 . S
H2294 C2304 0.930 . S
H2295 C2307 0.929 . S
H2296 C2310 0.930 . S
H2297 C2312 0.960 . S
H2298 C2312 0.960 . S
H2299 C2312 0.960 . S
C2300 H2292 0.929 . S
C2300 C2301 1.377 . S
C2300 C2302 1.384 . S
C2301 C2300 1.377 . S
C2301 C2307 1.390 . S
C2302 H2293 0.930 . S
C2302 C2300 1.384 . S
C2302 C2303 1.372 . S
C2303 C2302 1.372 . S
C2303 C2304 1.400 . S
C2303 C2308 1.490 . S
C2304 H2294 0.930 . S
C2304 C2303 1.400 . S
C2304 C2307 1.386 . S
H2305 C2321 0.930 . S
H2306 C2322 0.931 . S
C2307 H2295 0.929 . S
C2307 C2301 1.390 . S
C2307 C2304 1.386 . S
C2308 C2303 1.490 . S
C2308 C2310 1.395 . S
C2308 C2311 1.403 . S
H2309 C2315 0.930 . S
C2310 H2296 0.930 . S
C2310 C2308 1.395 . S
C2310 C2313 1.403 . S
C2311 C2308 1.403 . S
C2311 C2312 1.524 . S
C2311 C2315 1.400 . S
C2312 H2297 0.960 . S
C2312 H2298 0.960 . S
C2312 H2299 0.960 . S
C2312 C2311 1.524 . S
C2313 C2310 1.403 . S
C2313 C2314 1.392 . S
C2313 C2317 1.495 . S
C2314 C2313 1.392 . S
C2314 C2315 1.385 . S
C2314 C2316 1.478 . S
C2315 H2309 0.930 . S
C2315 C2311 1.400 . S
C2315 C2314 1.385 . S
C2316 C2314 1.478 . S
C2316 C2318 1.381 . S
C2316 C2322 1.383 . S
C2317 C2313 1.495 . S
C2317 H2323 0.959 . S
C2317 H2324 0.961 . S
C2317 H2325 0.960 . S
C2318 C2316 1.381 . S
C2318 C2319 1.394 . S
C2318 H2326 0.930 . S
C2319 C2318 1.394 . S
C2319 C2320 1.383 . S
C2319 H2327 0.929 . S
C2320 C2319 1.383 . S
C2320 C2321 1.377 . S
C2321 H2305 0.930 . S
C2321 C2320 1.377 . S
C2321 C2322 1.379 . S
C2322 H2306 0.931 . S
C2322 C2316 1.383 . S
C2322 C2321 1.379 . S
H2323 C2317 0.959 . S
H2324 C2317 0.961 . S
H2325 C2317 0.960 . S
H2326 C2318 0.930 . S
H2327 C2319 0.929 . S
H2328 C2336 0.929 . S
H2329 C2338 0.930 . S
H2330 C2340 0.930 . S
H2331 C2343 0.929 . S
H2332 C2346 0.930 . S
H2333 C2348 0.960 . S
H2334 C2348 0.960 . S
H2335 C2348 0.960 . S
C2336 H2328 0.929 . S
C2336 C2337 1.377 . S
C2336 C2338 1.384 . S
C2337 C2336 1.377 . S
C2337 C2343 1.390 . S
C2338 H2329 0.930 . S
C2338 C2336 1.384 . S
C2338 C2339 1.372 . S
C2339 C2338 1.372 . S
C2339 C2340 1.400 . S
C2339 C2344 1.490 . S
C2340 H2330 0.930 . S
C2340 C2339 1.400 . S
C2340 C2343 1.386 . S
H2341 C2357 0.930 . S
H2342 C2358 0.931 . S
C2343 H2331 0.929 . S
C2343 C2337 1.390 . S
C2343 C2340 1.386 . S
C2344 C2339 1.490 . S
C2344 C2346 1.395 . S
C2344 C2347 1.403 . S
H2345 C2351 0.930 . S
C2346 H2332 0.930 . S
C2346 C2344 1.395 . S
C2346 C2349 1.403 . S
C2347 C2344 1.403 . S
C2347 C2348 1.524 . S
C2347 C2351 1.400 . S
C2348 H2333 0.960 . S
C2348 H2334 0.960 . S
C2348 H2335 0.960 . S
C2348 C2347 1.524 . S
C2349 C2346 1.403 . S
C2349 C2350 1.392 . S
C2349 C2353 1.495 . S
C2350 C2349 1.392 . S
C2350 C2351 1.385 . S
C2350 C2352 1.439 1_554 S
C2351 H2345 0.930 . S
C2351 C2347 1.400 . S
C2351 C2350 1.385 . S
C2352 C2350 1.439 1_556 S
C2352 C2354 1.376 1_556 S
C2352 C2358 1.426 . S
C2353 C2349 1.495 . S
C2353 H2359 0.959 . S
C2353 H2360 0.961 . S
C2353 H2361 0.960 . S
C2354 C2352 1.376 1_554 S
C2354 C2355 1.352 1_554 S
C2354 H2362 0.978 . S
C2355 C2354 1.352 1_556 S
C2355 C2356 1.383 . S
C2355 H2363 0.929 . S
C2356 C2355 1.383 . S
C2356 C2357 1.377 . S
C2357 H2341 0.930 . S
C2357 C2356 1.377 . S
C2357 C2358 1.379 . S
C2358 H2342 0.931 . S
C2358 C2352 1.426 . S
C2358 C2357 1.379 . S
H2359 C2353 0.959 . S
H2360 C2353 0.961 . S
H2361 C2353 0.960 . S
H2362 C2354 0.978 . S
H2363 C2355 0.929 . S
H2364 C2372 0.929 . S
H2365 C2374 0.930 . S
H2366 C2376 0.930 . S
H2367 C2379 0.929 . S
H2368 C2382 0.930 . S
H2369 C2384 0.960 . S
H2370 C2384 0.960 . S
H2371 C2384 0.960 . S
C2372 H2364 0.929 . S
C2372 C2373 1.377 . S
C2372 C2374 1.384 . S
C2373 C2372 1.377 . S
C2373 C2379 1.390 . S
C2374 H2365 0.930 . S
C2374 C2372 1.384 . S
C2374 C2375 1.372 . S
C2375 C2374 1.372 . S
C2375 C2376 1.400 . S
C2375 C2380 1.490 . S
C2376 H2366 0.930 . S
C2376 C2375 1.400 . S
C2376 C2379 1.386 . S
H2377 C2393 0.930 . S
H2378 C2394 0.931 . S
C2379 H2367 0.929 . S
C2379 C2373 1.390 . S
C2379 C2376 1.386 . S
C2380 C2375 1.490 . S
C2380 C2382 1.395 . S
C2380 C2383 1.403 . S
H2381 C2387 0.930 . S
C2382 H2368 0.930 . S
C2382 C2380 1.395 . S
C2382 C2385 1.403 . S
C2383 C2380 1.403 . S
C2383 C2384 1.524 . S
C2383 C2387 1.400 . S
C2384 H2369 0.960 . S
C2384 H2370 0.960 . S
C2384 H2371 0.960 . S
C2384 C2383 1.524 . S
C2385 C2382 1.403 . S
C2385 C2386 1.392 . S
C2385 C2389 1.495 . S
C2386 C2385 1.392 . S
C2386 C2387 1.385 . S
C2386 C2388 1.478 . S
C2387 H2381 0.930 . S
C2387 C2383 1.400 . S
C2387 C2386 1.385 . S
C2388 C2386 1.478 . S
C2388 C2390 1.381 . S
C2388 C2394 1.383 . S
C2389 C2385 1.495 . S
C2389 H2395 0.959 . S
C2389 H2396 0.961 . S
C2389 H2397 0.960 . S
C2390 C2388 1.381 . S
C2390 C2391 1.394 . S
C2390 H2398 0.930 . S
C2391 C2390 1.394 . S
C2391 C2392 1.383 . S
C2391 H2399 0.929 . S
C2392 C2391 1.383 . S
C2392 C2393 1.377 . S
C2393 H2377 0.930 . S
C2393 C2392 1.377 . S
C2393 C2394 1.379 . S
C2394 H2378 0.931 . S
C2394 C2388 1.383 . S
C2394 C2393 1.379 . S
H2395 C2389 0.959 . S
H2396 C2389 0.961 . S
H2397 C2389 0.960 . S
H2398 C2390 0.930 . S
H2399 C2391 0.929 . S
H2400 C2408 0.929 . S
H2401 C2410 0.930 . S
H2402 C2412 0.930 . S
H2403 C2415 0.929 . S
H2404 C2418 0.930 . S
H2405 C2420 0.960 . S
H2406 C2420 0.960 . S
H2407 C2420 0.960 . S
C2408 H2400 0.929 . S
C2408 C2409 1.377 . S
C2408 C2410 1.384 . S
C2409 C2408 1.377 . S
C2409 C2415 1.390 . S
C2410 H2401 0.930 . S
C2410 C2408 1.384 . S
C2410 C2411 1.372 . S
C2411 C2410 1.372 . S
C2411 C2412 1.400 . S
C2411 C2416 1.490 . S
C2412 H2402 0.930 . S
C2412 C2411 1.400 . S
C2412 C2415 1.386 . S
H2413 C2429 0.930 . S
H2414 C2430 0.931 . S
C2415 H2403 0.929 . S
C2415 C2409 1.390 . S
C2415 C2412 1.386 . S
C2416 C2411 1.490 . S
C2416 C2418 1.395 . S
C2416 C2419 1.403 . S
H2417 C2423 0.930 . S
C2418 H2404 0.930 . S
C2418 C2416 1.395 . S
C2418 C2421 1.403 . S
C2419 C2416 1.403 . S
C2419 C2420 1.524 . S
C2419 C2423 1.400 . S
C2420 H2405 0.960 . S
C2420 H2406 0.960 . S
C2420 H2407 0.960 . S
C2420 C2419 1.524 . S
C2421 C2418 1.403 . S
C2421 C2422 1.392 . S
C2421 C2425 1.495 . S
C2422 C2421 1.392 . S
C2422 C2423 1.385 . S
C2422 C2424 1.478 . S
C2423 H2417 0.930 . S
C2423 C2419 1.400 . S
C2423 C2422 1.385 . S
C2424 C2422 1.478 . S
C2424 C2426 1.381 . S
C2424 C2430 1.383 . S
C2425 C2421 1.495 . S
C2425 H2431 0.959 . S
C2425 H2432 0.961 . S
C2425 H2433 0.960 . S
C2426 C2424 1.381 . S
C2426 C2427 1.394 . S
C2426 H2434 0.930 . S
C2427 C2426 1.394 . S
C2427 C2428 1.383 . S
C2427 H2435 0.929 . S
C2428 C2427 1.383 . S
C2428 C2429 1.377 . S
C2429 H2413 0.930 . S
C2429 C2428 1.377 . S
C2429 C2430 1.379 . S
C2430 H2414 0.931 . S
C2430 C2424 1.383 . S
C2430 C2429 1.379 . S
H2431 C2425 0.959 . S
H2432 C2425 0.961 . S
H2433 C2425 0.960 . S
H2434 C2426 0.930 . S
H2435 C2427 0.929 . S
H2436 C2444 0.929 . S
H2437 C2446 0.930 . S
H2438 C2448 0.930 . S
H2439 C2451 0.929 . S
H2440 C2454 0.930 . S
H2441 C2456 0.960 . S
H2442 C2456 0.960 . S
H2443 C2456 0.960 . S
C2444 H2436 0.929 . S
C2444 C2445 1.377 . S
C2444 C2446 1.384 . S
C2445 C2444 1.377 . S
C2445 C2451 1.390 . S
C2446 H2437 0.930 . S
C2446 C2444 1.384 . S
C2446 C2447 1.372 . S
C2447 C2446 1.372 . S
C2447 C2448 1.400 1_455 S
C2447 C2452 1.490 1_455 S
C2448 H2438 0.930 . S
C2448 C2447 1.400 1_655 S
C2448 C2451 1.386 1_655 S
H2449 C2465 0.930 . S
H2450 C2466 0.931 . S
C2451 H2439 0.929 . S
C2451 C2445 1.390 . S
C2451 C2448 1.386 1_455 S
C2452 C2447 1.490 1_655 S
C2452 C2454 1.395 . S
C2452 C2455 1.403 . S
H2453 C2459 0.930 . S
C2454 H2440 0.930 . S
C2454 C2452 1.395 . S
C2454 C2457 1.403 . S
C2455 C2452 1.403 . S
C2455 C2456 1.524 . S
C2455 C2459 1.400 . S
C2456 H2441 0.960 . S
C2456 H2442 0.960 . S
C2456 H2443 0.960 . S
C2456 C2455 1.524 . S
C2457 C2454 1.403 . S
C2457 C2458 1.392 . S
C2457 C2461 1.495 . S
C2458 C2457 1.392 . S
C2458 C2459 1.385 . S
C2458 C2460 1.478 . S
C2459 H2453 0.930 . S
C2459 C2455 1.400 . S
C2459 C2458 1.385 . S
C2460 C2458 1.478 . S
C2460 C2462 1.381 . S
C2460 C2466 1.383 . S
C2461 C2457 1.495 . S
C2461 H2467 0.959 . S
C2461 H2468 0.961 . S
C2461 H2469 0.960 . S
C2462 C2460 1.381 . S
C2462 C2463 1.394 . S
C2462 H2470 0.930 . S
C2463 C2462 1.394 . S
C2463 C2464 1.383 . S
C2463 H2471 0.929 . S
C2464 C2463 1.383 . S
C2464 C2465 1.377 . S
C2465 H2449 0.930 . S
C2465 C2464 1.377 . S
C2465 C2466 1.379 . S
C2466 H2450 0.931 . S
C2466 C2460 1.383 . S
C2466 C2465 1.379 . S
H2467 C2461 0.959 . S
H2468 C2461 0.961 . S
H2469 C2461 0.960 . S
H2470 C2462 0.930 . S
H2471 C2463 0.929 . S
H2472 C2480 0.929 . S
H2473 C2482 0.930 . S
H2474 C2484 0.930 . S
H2475 C2487 0.922 1_455 S
H2476 C2490 0.930 1_655 S
H2477 C2492 0.960 . S
H2478 C2492 0.960 . S
H2479 C2492 0.960 . S
C2480 H2472 0.929 . S
C2480 C2481 1.377 . S
C2480 C2482 1.384 . S
C2481 C2480 1.377 . S
C2481 C2487 1.405 . S
C2482 H2473 0.930 . S
C2482 C2480 1.384 . S
C2482 C2483 1.372 1_655 S
C2483 C2482 1.372 1_455 S
C2483 C2484 1.400 . S
C2483 C2488 1.490 . S
C2484 H2474 0.930 . S
C2484 C2483 1.400 . S
C2484 C2487 1.377 1_455 S
H2485 C2501 0.930 . S
H2486 C2502 0.931 . S
C2487 H2475 0.922 1_655 S
C2487 C2481 1.405 . S
C2487 C2484 1.377 1_655 S
C2488 C2483 1.490 . S
C2488 C2490 1.395 . S
C2488 C2491 1.403 . S
H2489 C2495 0.930 . S
C2490 H2476 0.930 1_455 S
C2490 C2488 1.395 . S
C2490 C2493 1.403 . S
C2491 C2488 1.403 . S
C2491 C2492 1.524 . S
C2491 C2495 1.400 . S
C2492 H2477 0.960 . S
C2492 H2478 0.960 . S
C2492 H2479 0.960 . S
C2492 C2491 1.524 . S
C2493 C2490 1.403 . S
C2493 C2494 1.392 . S
C2493 C2497 1.495 . S
C2494 C2493 1.392 . S
C2494 C2495 1.385 . S
C2494 C2496 1.478 . S
C2495 H2489 0.930 . S
C2495 C2491 1.400 . S
C2495 C2494 1.385 . S
C2496 C2494 1.478 . S
C2496 C2498 1.381 . S
C2496 C2502 1.383 . S
C2497 C2493 1.495 . S
C2497 H2503 0.959 1_455 S
C2497 H2504 0.961 . S
C2497 H2505 0.960 . S
C2498 C2496 1.381 . S
C2498 C2499 1.394 . S
C2498 H2506 0.930 . S
C2499 C2498 1.394 . S
C2499 C2500 1.383 . S
C2499 H2507 0.929 . S
C2500 C2499 1.383 . S
C2500 C2501 1.377 . S
C2501 H2485 0.930 . S
C2501 C2500 1.377 . S
C2501 C2502 1.379 . S
C2502 H2486 0.931 . S
C2502 C2496 1.383 . S
C2502 C2501 1.379 . S
H2503 C2497 0.959 1_655 S
H2504 C2497 0.961 . S
H2505 C2497 0.960 . S
H2506 C2498 0.930 . S
H2507 C2499 0.929 . S
H2508 C2516 0.929 . S
H2509 C2518 0.930 . S
H2510 C2520 0.930 . S
H2511 C2523 0.929 . S
H2512 C2526 0.930 . S
H2513 C2528 0.960 . S
H2514 C2528 0.960 . S
H2515 C2528 0.960 . S
C2516 H2508 0.929 . S
C2516 C2517 1.377 . S
C2516 C2518 1.384 . S
C2517 C2516 1.377 . S
C2517 C2523 1.390 . S
C2518 H2509 0.930 . S
C2518 C2516 1.384 . S
C2518 C2519 1.372 . S
C2519 C2518 1.372 . S
C2519 C2520 1.400 . S
C2519 C2524 1.490 . S
C2520 H2510 0.930 . S
C2520 C2519 1.400 . S
C2520 C2523 1.386 . S
H2521 C2537 0.930 . S
H2522 C2538 0.931 . S
C2523 H2511 0.929 . S
C2523 C2517 1.390 . S
C2523 C2520 1.386 . S
C2524 C2519 1.490 . S
C2524 C2526 1.395 . S
C2524 C2527 1.403 . S
H2525 C2531 0.930 . S
C2526 H2512 0.930 . S
C2526 C2524 1.395 . S
C2526 C2529 1.403 . S
C2527 C2524 1.403 . S
C2527 C2528 1.524 . S
C2527 C2531 1.400 . S
C2528 H2513 0.960 . S
C2528 H2514 0.960 . S
C2528 H2515 0.960 . S
C2528 C2527 1.524 . S
C2529 C2526 1.403 . S
C2529 C2530 1.392 . S
C2529 C2533 1.495 . S
C2530 C2529 1.392 . S
C2530 C2531 1.385 . S
C2530 C2532 1.478 . S
C2531 H2525 0.930 . S
C2531 C2527 1.400 . S
C2531 C2530 1.385 . S
C2532 C2530 1.478 . S
C2532 C2534 1.381 . S
C2532 C2538 1.383 . S
C2533 C2529 1.495 . S
C2533 H2539 0.959 . S
C2533 H2540 0.961 . S
C2533 H2541 0.960 . S
C2534 C2532 1.381 . S
C2534 C2535 1.394 . S
C2534 H2542 0.930 . S
C2535 C2534 1.394 . S
C2535 C2536 1.383 . S
C2535 H2543 0.929 . S
C2536 C2535 1.383 . S
C2536 C2537 1.377 . S
C2537 H2521 0.930 . S
C2537 C2536 1.377 . S
C2537 C2538 1.379 . S
C2538 H2522 0.931 . S
C2538 C2532 1.383 . S
C2538 C2537 1.379 . S
H2539 C2533 0.959 . S
H2540 C2533 0.961 . S
H2541 C2533 0.960 . S
H2542 C2534 0.930 . S
H2543 C2535 0.929 . S
H2544 C2552 0.929 . S
H2545 C2554 0.930 . S
H2546 C2556 0.930 . S
H2547 C2559 0.929 . S
H2548 C2562 0.930 . S
H2549 C2564 0.960 . S
H2550 C2564 0.960 . S
H2551 C2564 0.960 . S
C2552 H2544 0.929 . S
C2552 C2553 1.377 . S
C2552 C2554 1.384 . S
C2553 C2552 1.377 . S
C2553 C2559 1.390 . S
C2554 H2545 0.930 . S
C2554 C2552 1.384 . S
C2554 C2555 1.372 . S
C2555 C2554 1.372 . S
C2555 C2556 1.400 . S
C2555 C2560 1.490 . S
C2556 H2546 0.930 . S
C2556 C2555 1.400 . S
C2556 C2559 1.386 . S
H2557 C2573 0.930 . S
H2558 C2574 0.931 . S
C2559 H2547 0.929 . S
C2559 C2553 1.390 . S
C2559 C2556 1.386 . S
C2560 C2555 1.490 . S
C2560 C2562 1.395 . S
C2560 C2563 1.403 . S
H2561 C2567 0.930 . S
C2562 H2548 0.930 . S
C2562 C2560 1.395 . S
C2562 C2565 1.403 . S
C2563 C2560 1.403 . S
C2563 C2564 1.524 . S
C2563 C2567 1.400 . S
C2564 H2549 0.960 . S
C2564 H2550 0.960 . S
C2564 H2551 0.960 . S
C2564 C2563 1.524 . S
C2565 C2562 1.403 . S
C2565 C2566 1.392 . S
C2565 C2569 1.495 . S
C2566 C2565 1.392 . S
C2566 C2567 1.385 . S
C2566 C2568 1.478 . S
C2567 H2561 0.930 . S
C2567 C2563 1.400 . S
C2567 C2566 1.385 . S
C2568 C2566 1.478 . S
C2568 C2570 1.381 . S
C2568 C2574 1.383 . S
C2569 C2565 1.495 . S
C2569 H2575 0.959 . S
C2569 H2576 0.961 . S
C2569 H2577 0.960 . S
C2570 C2568 1.381 . S
C2570 C2571 1.394 . S
C2570 H2578 0.930 . S
C2571 C2570 1.394 . S
C2571 C2572 1.383 . S
C2571 H2579 0.929 . S
C2572 C2571 1.383 . S
C2572 C2573 1.377 . S
C2573 H2557 0.930 . S
C2573 C2572 1.377 . S
C2573 C2574 1.379 . S
C2574 H2558 0.931 . S
C2574 C2568 1.383 . S
C2574 C2573 1.379 . S
H2575 C2569 0.959 . S
H2576 C2569 0.961 . S
H2577 C2569 0.960 . S
H2578 C2570 0.930 . S
H2579 C2571 0.929 . S
H2580 C2588 0.929 . S
H2581 C2590 0.930 . S
H2582 C2592 0.939 . S
H2583 C2595 0.929 . S
H2584 C2598 0.930 . S
H2585 C2600 0.962 . S
H2586 C2600 0.955 1_655 S
H2587 C2600 0.959 1_655 S
C2588 H2580 0.929 . S
C2588 C2589 1.377 . S
C2588 C2590 1.384 . S
C2589 C2588 1.377 . S
C2589 C2595 1.390 . S
C2590 H2581 0.930 . S
C2590 C2588 1.384 . S
C2590 C2591 1.372 . S
C2591 C2590 1.372 . S
C2591 C2592 1.400 . S
C2591 C2596 1.490 1_655 S
C2592 H2582 0.939 . S
C2592 C2591 1.400 . S
C2592 C2595 1.386 . S
H2593 C2609 0.930 . S
H2594 C2610 0.931 . S
C2595 H2583 0.929 . S
C2595 C2589 1.390 . S
C2595 C2592 1.386 . S
C2596 C2591 1.490 1_455 S
C2596 C2598 1.395 . S
C2596 C2599 1.403 . S
H2597 C2603 0.930 . S
C2598 H2584 0.930 . S
C2598 C2596 1.395 . S
C2598 C2601 1.403 . S
C2599 C2596 1.403 . S
C2599 C2600 1.528 . S
C2599 C2603 1.400 . S
C2600 H2585 0.962 . S
C2600 H2586 0.955 1_455 S
C2600 H2587 0.959 1_455 S
C2600 C2599 1.528 . S
C2601 C2598 1.403 . S
C2601 C2602 1.392 . S
C2601 C2605 1.495 . S
C2602 C2601 1.392 . S
C2602 C2603 1.385 . S
C2602 C2604 1.478 . S
C2603 H2597 0.930 . S
C2603 C2599 1.400 . S
C2603 C2602 1.385 . S
C2604 C2602 1.478 . S
C2604 C2606 1.381 . S
C2604 C2610 1.383 . S
C2605 C2601 1.495 . S
C2605 H2611 0.959 . S
C2605 H2612 0.961 . S
C2605 H2613 0.960 . S
C2606 C2604 1.381 . S
C2606 C2607 1.394 . S
C2606 H2614 0.930 . S
C2607 C2606 1.394 . S
C2607 C2608 1.383 . S
C2607 H2615 0.929 . S
C2608 C2607 1.383 . S
C2608 C2609 1.377 . S
C2609 H2593 0.930 . S
C2609 C2608 1.377 . S
C2609 C2610 1.379 . S
C2610 H2594 0.931 . S
C2610 C2604 1.383 . S
C2610 C2609 1.379 . S
H2611 C2605 0.959 . S
H2612 C2605 0.961 . S
H2613 C2605 0.960 . S
H2614 C2606 0.930 . S
H2615 C2607 0.929 . S
H2616 C2624 0.929 . S
H2617 C2626 0.930 . S
H2618 C2628 0.930 . S
H2619 C2631 0.929 . S
H2620 C2634 0.930 . S
H2621 C2636 0.960 . S
H2622 C2636 0.960 . S
H2623 C2636 0.960 . S
C2624 H2616 0.929 . S
C2624 C2625 1.377 . S
C2624 C2626 1.384 . S
C2625 C2624 1.377 . S
C2625 C2631 1.390 . S
C2626 H2617 0.930 . S
C2626 C2624 1.384 . S
C2626 C2627 1.372 . S
C2627 C2626 1.372 . S
C2627 C2628 1.400 . S
C2627 C2632 1.490 . S
C2628 H2618 0.930 . S
C2628 C2627 1.400 . S
C2628 C2631 1.386 . S
H2629 C2645 0.930 . S
H2630 C2646 0.931 . S
C2631 H2619 0.929 . S
C2631 C2625 1.390 . S
C2631 C2628 1.386 . S
C2632 C2627 1.490 . S
C2632 C2634 1.395 . S
C2632 C2635 1.403 . S
H2633 C2639 0.930 . S
C2634 H2620 0.930 . S
C2634 C2632 1.395 . S
C2634 C2637 1.403 . S
C2635 C2632 1.403 . S
C2635 C2636 1.524 . S
C2635 C2639 1.400 . S
C2636 H2621 0.960 . S
C2636 H2622 0.960 . S
C2636 H2623 0.960 . S
C2636 C2635 1.524 . S
C2637 C2634 1.403 . S
C2637 C2638 1.392 . S
C2637 C2641 1.495 . S
C2638 C2637 1.392 . S
C2638 C2639 1.385 . S
C2638 C2640 1.478 . S
C2639 H2633 0.930 . S
C2639 C2635 1.400 . S
C2639 C2638 1.385 . S
C2640 C2638 1.478 . S
C2640 C2642 1.381 . S
C2640 C2646 1.383 . S
C2641 C2637 1.495 . S
C2641 H2647 0.959 . S
C2641 H2648 0.961 . S
C2641 H2649 0.960 . S
C2642 C2640 1.381 . S
C2642 C2643 1.394 . S
C2642 H2650 0.930 . S
C2643 C2642 1.394 . S
C2643 C2644 1.383 . S
C2643 H2651 0.929 . S
C2644 C2643 1.383 . S
C2644 C2645 1.377 . S
C2645 H2629 0.930 . S
C2645 C2644 1.377 . S
C2645 C2646 1.379 . S
C2646 H2630 0.931 . S
C2646 C2640 1.383 . S
C2646 C2645 1.379 . S
H2647 C2641 0.959 . S
H2648 C2641 0.961 . S
H2649 C2641 0.960 . S
H2650 C2642 0.930 . S
H2651 C2643 0.929 . S
H2652 C2660 0.929 . S
H2653 C2662 0.930 . S
H2654 C2664 0.930 . S
H2655 C2667 0.929 . S
H2656 C2670 0.930 . S
H2657 C2672 0.960 . S
H2658 C2672 0.960 . S
H2659 C2672 0.960 . S
C2660 H2652 0.929 . S
C2660 C2661 1.377 . S
C2660 C2662 1.384 . S
C2661 C2660 1.377 . S
C2661 C2667 1.390 . S
C2662 H2653 0.930 . S
C2662 C2660 1.384 . S
C2662 C2663 1.372 . S
C2663 C2662 1.372 . S
C2663 C2664 1.400 . S
C2663 C2668 1.490 . S
C2664 H2654 0.930 . S
C2664 C2663 1.400 . S
C2664 C2667 1.386 . S
H2665 C2681 0.930 1_655 S
H2666 C2682 0.931 . S
C2667 H2655 0.929 . S
C2667 C2661 1.390 . S
C2667 C2664 1.386 . S
C2668 C2663 1.490 . S
C2668 C2670 1.395 . S
C2668 C2671 1.403 . S
H2669 C2675 0.930 . S
C2670 H2656 0.930 . S
C2670 C2668 1.395 . S
C2670 C2673 1.403 . S
C2671 C2668 1.403 . S
C2671 C2672 1.524 . S
C2671 C2675 1.400 . S
C2672 H2657 0.960 . S
C2672 H2658 0.960 . S
C2672 H2659 0.960 . S
C2672 C2671 1.524 . S
C2673 C2670 1.403 . S
C2673 C2674 1.392 . S
C2673 C2677 1.495 1_655 S
C2674 C2673 1.392 . S
C2674 C2675 1.385 . S
C2674 C2676 1.470 1_655 S
C2675 H2669 0.930 . S
C2675 C2671 1.400 . S
C2675 C2674 1.385 . S
C2676 C2674 1.470 1_455 S
C2676 C2678 1.394 . S
C2676 C2682 1.377 1_455 S
C2677 C2673 1.495 1_455 S
C2677 H2683 0.959 . S
C2677 H2684 0.961 . S
C2677 H2685 0.960 . S
C2678 C2676 1.394 . S
C2678 C2679 1.394 . S
C2678 H2686 0.930 . S
C2679 C2678 1.394 . S
C2679 C2680 1.383 . S
C2679 H2687 0.929 . S
C2680 C2679 1.383 . S
C2680 C2681 1.377 . S
C2681 H2665 0.930 1_455 S
C2681 C2680 1.377 . S
C2681 C2682 1.379 1_455 S
C2682 H2666 0.931 . S
C2682 C2676 1.377 1_655 S
C2682 C2681 1.379 1_655 S
H2683 C2677 0.959 . S
H2684 C2677 0.961 . S
H2685 C2677 0.960 . S
H2686 C2678 0.930 . S
H2687 C2679 0.929 . S
H2688 C2696 0.929 . S
H2689 C2698 0.930 . S
H2690 C2700 0.930 . S
H2691 C2703 0.929 . S
H2692 C2706 0.930 . S
H2693 C2708 0.960 . S
H2694 C2708 0.960 . S
H2695 C2708 0.960 . S
C2696 H2688 0.929 . S
C2696 C2697 1.377 . S
C2696 C2698 1.384 . S
C2697 C2696 1.377 . S
C2697 C2703 1.390 . S
C2698 H2689 0.930 . S
C2698 C2696 1.384 . S
C2698 C2699 1.372 . S
C2699 C2698 1.372 . S
C2699 C2700 1.400 . S
C2699 C2704 1.490 . S
C2700 H2690 0.930 . S
C2700 C2699 1.400 . S
C2700 C2703 1.386 . S
H2701 C2717 0.930 . S
H2702 C2718 0.931 . S
C2703 H2691 0.929 . S
C2703 C2697 1.390 . S
C2703 C2700 1.386 . S
C2704 C2699 1.490 . S
C2704 C2706 1.395 . S
C2704 C2707 1.403 . S
H2705 C2711 0.930 . S
C2706 H2692 0.930 . S
C2706 C2704 1.395 . S
C2706 C2709 1.403 . S
C2707 C2704 1.403 . S
C2707 C2708 1.524 . S
C2707 C2711 1.400 . S
C2708 H2693 0.960 . S
C2708 H2694 0.960 . S
C2708 H2695 0.960 . S
C2708 C2707 1.524 . S
C2709 C2706 1.403 . S
C2709 C2710 1.392 . S
C2709 C2713 1.495 . S
C2710 C2709 1.392 . S
C2710 C2711 1.385 . S
C2710 C2712 1.478 . S
C2711 H2705 0.930 . S
C2711 C2707 1.400 . S
C2711 C2710 1.385 . S
C2712 C2710 1.478 . S
C2712 C2714 1.381 . S
C2712 C2718 1.383 . S
C2713 C2709 1.495 . S
C2713 H2719 0.959 . S
C2713 H2720 0.961 . S
C2713 H2721 0.960 . S
C2714 C2712 1.381 . S
C2714 C2715 1.394 . S
C2714 H2722 0.930 . S
C2715 C2714 1.394 . S
C2715 C2716 1.383 . S
C2715 H2723 0.929 . S
C2716 C2715 1.383 . S
C2716 C2717 1.377 . S
C2717 H2701 0.930 . S
C2717 C2716 1.377 . S
C2717 C2718 1.379 . S
C2718 H2702 0.931 . S
C2718 C2712 1.383 . S
C2718 C2717 1.379 . S
H2719 C2713 0.959 . S
H2720 C2713 0.961 . S
H2721 C2713 0.960 . S
H2722 C2714 0.930 . S
H2723 C2715 0.929 . S
H2724 C2732 0.929 . S
H2725 C2734 0.930 . S
H2726 C2736 0.930 . S
H2727 C2739 0.929 . S
H2728 C2742 0.930 . S
H2729 C2744 0.960 . S
H2730 C2744 0.960 . S
H2731 C2744 0.960 . S
C2732 H2724 0.929 . S
C2732 C2733 1.377 . S
C2732 C2734 1.384 . S
C2733 C2732 1.377 . S
C2733 C2739 1.390 . S
C2734 H2725 0.930 . S
C2734 C2732 1.384 . S
C2734 C2735 1.372 . S
C2735 C2734 1.372 . S
C2735 C2736 1.400 . S
C2735 C2740 1.490 . S
C2736 H2726 0.930 . S
C2736 C2735 1.400 . S
C2736 C2739 1.386 . S
H2737 C2753 0.930 . S
H2738 C2754 0.931 . S
C2739 H2727 0.929 . S
C2739 C2733 1.390 . S
C2739 C2736 1.386 . S
C2740 C2735 1.490 . S
C2740 C2742 1.395 1_455 S
C2740 C2743 1.403 . S
H2741 C2747 0.930 . S
C2742 H2728 0.930 . S
C2742 C2740 1.395 1_655 S
C2742 C2745 1.403 . S
C2743 C2740 1.403 . S
C2743 C2744 1.524 . S
C2743 C2747 1.400 . S
C2744 H2729 0.960 . S
C2744 H2730 0.960 . S
C2744 H2731 0.960 . S
C2744 C2743 1.524 . S
C2745 C2742 1.403 . S
C2745 C2746 1.392 . S
C2745 C2749 1.495 . S
C2746 C2745 1.392 . S
C2746 C2747 1.385 1_655 S
C2746 C2748 1.478 . S
C2747 H2741 0.930 . S
C2747 C2743 1.400 . S
C2747 C2746 1.385 1_455 S
C2748 C2746 1.478 . S
C2748 C2750 1.381 . S
C2748 C2754 1.383 . S
C2749 C2745 1.495 . S
C2749 H2755 0.959 . S
C2749 H2756 0.961 . S
C2749 H2757 0.960 . S
C2750 C2748 1.381 . S
C2750 C2751 1.394 . S
C2750 H2758 0.930 . S
C2751 C2750 1.394 . S
C2751 C2752 1.383 . S
C2751 H2759 0.929 . S
C2752 C2751 1.383 . S
C2752 C2753 1.377 . S
C2753 H2737 0.930 . S
C2753 C2752 1.377 . S
C2753 C2754 1.379 . S
C2754 H2738 0.931 . S
C2754 C2748 1.383 . S
C2754 C2753 1.379 . S
H2755 C2749 0.959 . S
H2756 C2749 0.961 . S
H2757 C2749 0.960 . S
H2758 C2750 0.930 . S
H2759 C2751 0.929 . S
H2760 C2768 0.929 . S
H2761 C2770 0.930 . S
H2762 C2772 0.930 . S
H2763 C2775 0.929 . S
H2764 C2778 0.930 . S
H2765 C2780 0.960 . S
H2766 C2780 0.960 . S
H2767 C2780 0.960 . S
C2768 H2760 0.929 . S
C2768 C2769 1.377 . S
C2768 C2770 1.384 . S
C2769 C2768 1.377 . S
C2769 C2775 1.390 . S
C2770 H2761 0.930 . S
C2770 C2768 1.384 . S
C2770 C2771 1.372 . S
C2771 C2770 1.372 . S
C2771 C2772 1.400 . S
C2771 C2776 1.490 . S
C2772 H2762 0.930 . S
C2772 C2771 1.400 . S
C2772 C2775 1.386 . S
H2773 C2789 0.930 . S
H2774 C2790 0.931 . S
C2775 H2763 0.929 . S
C2775 C2769 1.390 . S
C2775 C2772 1.386 . S
C2776 C2771 1.490 . S
C2776 C2778 1.395 1_556 S
C2776 C2779 1.403 . S
H2777 C2783 0.930 . S
C2778 H2764 0.930 . S
C2778 C2776 1.395 1_554 S
C2778 C2781 1.403 . S
C2779 C2776 1.403 . S
C2779 C2780 1.524 . S
C2779 C2783 1.400 . S
C2780 H2765 0.960 . S
C2780 H2766 0.960 . S
C2780 H2767 0.960 . S
C2780 C2779 1.524 . S
C2781 C2778 1.403 . S
C2781 C2782 1.392 . S
C2781 C2785 1.495 . S
C2782 C2781 1.392 . S
C2782 C2783 1.385 1_554 S
C2782 C2784 1.478 . S
C2783 H2777 0.930 . S
C2783 C2779 1.400 . S
C2783 C2782 1.385 1_556 S
C2784 C2782 1.478 . S
C2784 C2786 1.381 . S
C2784 C2790 1.383 . S
C2785 C2781 1.495 . S
C2785 H2791 0.959 . S
C2785 H2792 0.961 . S
C2785 H2793 0.960 . S
C2786 C2784 1.381 . S
C2786 C2787 1.394 . S
C2786 H2794 0.930 . S
C2787 C2786 1.394 . S
C2787 C2788 1.383 . S
C2787 H2795 0.929 . S
C2788 C2787 1.383 . S
C2788 C2789 1.377 . S
C2789 H2773 0.930 . S
C2789 C2788 1.377 . S
C2789 C2790 1.379 . S
C2790 H2774 0.931 . S
C2790 C2784 1.383 . S
C2790 C2789 1.379 . S
H2791 C2785 0.959 . S
H2792 C2785 0.961 . S
H2793 C2785 0.960 . S
H2794 C2786 0.930 . S
H2795 C2787 0.929 . S
H2796 C2804 0.929 . S
H2797 C2806 0.930 . S
H2798 C2808 0.930 . S
H2799 C2811 0.929 . S
H2800 C2814 0.930 . S
H2801 C2816 0.960 . S
H2802 C2816 0.960 . S
H2803 C2816 0.960 . S
C2804 H2796 0.929 . S
C2804 C2805 1.377 . S
C2804 C2806 1.384 . S
C2805 C2804 1.377 . S
C2805 C2811 1.390 . S
C2806 H2797 0.930 . S
C2806 C2804 1.384 . S
C2806 C2807 1.372 . S
C2807 C2806 1.372 . S
C2807 C2808 1.400 . S
C2807 C2812 1.490 . S
C2808 H2798 0.930 . S
C2808 C2807 1.400 . S
C2808 C2811 1.386 . S
H2809 C2825 0.930 . S
H2810 C2826 0.931 . S
C2811 H2799 0.929 . S
C2811 C2805 1.390 . S
C2811 C2808 1.386 . S
C2812 C2807 1.490 . S
C2812 C2814 1.395 . S
C2812 C2815 1.403 . S
H2813 C2819 0.930 . S
C2814 H2800 0.930 . S
C2814 C2812 1.395 . S
C2814 C2817 1.403 . S
C2815 C2812 1.403 . S
C2815 C2816 1.524 . S
C2815 C2819 1.400 . S
C2816 H2801 0.960 . S
C2816 H2802 0.960 . S
C2816 H2803 0.960 . S
C2816 C2815 1.524 . S
C2817 C2814 1.403 . S
C2817 C2818 1.392 . S
C2817 C2821 1.495 . S
C2818 C2817 1.392 . S
C2818 C2819 1.385 . S
C2818 C2820 1.478 . S
C2819 H2813 0.930 . S
C2819 C2815 1.400 . S
C2819 C2818 1.385 . S
C2820 C2818 1.478 . S
C2820 C2822 1.381 . S
C2820 C2826 1.383 . S
C2821 C2817 1.495 . S
C2821 H2827 0.959 . S
C2821 H2828 0.961 . S
C2821 H2829 0.960 . S
C2822 C2820 1.381 . S
C2822 C2823 1.394 . S
C2822 H2830 0.930 . S
C2823 C2822 1.394 . S
C2823 C2824 1.383 . S
C2823 H2831 0.929 . S
C2824 C2823 1.383 . S
C2824 C2825 1.377 . S
C2825 H2809 0.930 . S
C2825 C2824 1.377 . S
C2825 C2826 1.379 . S
C2826 H2810 0.931 . S
C2826 C2820 1.383 . S
C2826 C2825 1.379 . S
H2827 C2821 0.959 . S
H2828 C2821 0.961 . S
H2829 C2821 0.960 . S
H2830 C2822 0.930 . S
H2831 C2823 0.929 . S
H2832 C2840 0.929 . S
H2833 C2842 0.930 . S
H2834 C2844 0.930 . S
H2835 C2847 0.929 . S
H2836 C2850 0.930 . S
H2837 C2852 0.960 . S
H2838 C2852 0.960 . S
H2839 C2852 0.960 . S
C2840 H2832 0.929 . S
C2840 C2841 1.377 . S
C2840 C2842 1.384 . S
C2841 C2840 1.377 . S
C2841 C2847 1.390 . S
C2842 H2833 0.930 . S
C2842 C2840 1.384 . S
C2842 C2843 1.372 . S
C2843 C2842 1.372 . S
C2843 C2844 1.400 . S
C2843 C2848 1.490 . S
C2844 H2834 0.930 . S
C2844 C2843 1.400 . S
C2844 C2847 1.386 . S
H2845 C2861 0.930 . S
H2846 C2862 0.931 . S
C2847 H2835 0.929 . S
C2847 C2841 1.390 . S
C2847 C2844 1.386 . S
C2848 C2843 1.490 . S
C2848 C2850 1.395 . S
C2848 C2851 1.403 . S
H2849 C2855 0.930 . S
C2850 H2836 0.930 . S
C2850 C2848 1.395 . S
C2850 C2853 1.403 . S
C2851 C2848 1.403 . S
C2851 C2852 1.524 . S
C2851 C2855 1.400 . S
C2852 H2837 0.960 . S
C2852 H2838 0.960 . S
C2852 H2839 0.960 . S
C2852 C2851 1.524 . S
C2853 C2850 1.403 . S
C2853 C2854 1.392 . S
C2853 C2857 1.495 . S
C2854 C2853 1.392 . S
C2854 C2855 1.385 . S
C2854 C2856 1.478 . S
C2855 H2849 0.930 . S
C2855 C2851 1.400 . S
C2855 C2854 1.385 . S
C2856 C2854 1.478 . S
C2856 C2858 1.381 . S
C2856 C2862 1.383 . S
C2857 C2853 1.495 . S
C2857 H2863 0.959 . S
C2857 H2864 0.961 . S
C2857 H2865 0.960 . S
C2858 C2856 1.381 . S
C2858 C2859 1.394 . S
C2858 H2866 0.930 . S
C2859 C2858 1.394 . S
C2859 C2860 1.383 . S
C2859 H2867 0.929 . S
C2860 C2859 1.383 . S
C2860 C2861 1.377 . S
C2861 H2845 0.930 . S
C2861 C2860 1.377 . S
C2861 C2862 1.379 . S
C2862 H2846 0.931 . S
C2862 C2856 1.383 . S
C2862 C2861 1.379 . S
H2863 C2857 0.959 . S
H2864 C2857 0.961 . S
H2865 C2857 0.960 . S
H2866 C2858 0.930 . S
H2867 C2859 0.929 . S
H2868 C2876 0.929 . S
H2869 C2878 0.930 . S
H2870 C2880 0.930 . S
H2871 C2883 0.929 . S
H2872 C2886 0.930 . S
H2873 C2888 0.960 . S
H2874 C2888 0.960 . S
H2875 C2888 0.960 . S
C2876 H2868 0.929 . S
C2876 C2877 1.377 . S
C2876 C2878 1.384 . S
C2877 C2876 1.377 . S
C2877 C2883 1.390 . S
C2878 H2869 0.930 . S
C2878 C2876 1.384 . S
C2878 C2879 1.372 . S
C2879 C2878 1.372 . S
C2879 C2880 1.400 . S
C2879 C2884 1.490 . S
C2880 H2870 0.930 . S
C2880 C2879 1.400 . S
C2880 C2883 1.386 . S
H2881 C2897 0.930 . S
H2882 C2898 0.931 . S
C2883 H2871 0.929 . S
C2883 C2877 1.390 . S
C2883 C2880 1.386 . S
C2884 C2879 1.490 . S
C2884 C2886 1.395 1_655 S
C2884 C2887 1.403 . S
H2885 C2891 0.930 . S
C2886 H2872 0.930 . S
C2886 C2884 1.395 1_455 S
C2886 C2889 1.403 . S
C2887 C2884 1.403 . S
C2887 C2888 1.524 . S
C2887 C2891 1.400 . S
C2888 H2873 0.960 . S
C2888 H2874 0.960 . S
C2888 H2875 0.960 . S
C2888 C2887 1.524 . S
C2889 C2886 1.403 . S
C2889 C2890 1.392 . S
C2889 C2893 1.495 . S
C2890 C2889 1.392 . S
C2890 C2891 1.385 1_455 S
C2890 C2892 1.478 . S
C2891 H2885 0.930 . S
C2891 C2887 1.400 . S
C2891 C2890 1.385 1_655 S
C2892 C2890 1.478 . S
C2892 C2894 1.381 . S
C2892 C2898 1.383 . S
C2893 C2889 1.495 . S
C2893 H2899 0.959 . S
C2893 H2900 0.961 . S
C2893 H2901 0.960 . S
C2894 C2892 1.381 . S
C2894 C2895 1.394 . S
C2894 H2902 0.930 . S
C2895 C2894 1.394 . S
C2895 C2896 1.383 . S
C2895 H2903 0.929 . S
C2896 C2895 1.383 . S
C2896 C2897 1.377 . S
C2897 H2881 0.930 . S
C2897 C2896 1.377 . S
C2897 C2898 1.379 . S
C2898 H2882 0.931 . S
C2898 C2892 1.383 . S
C2898 C2897 1.379 . S
H2899 C2893 0.959 . S
H2900 C2893 0.961 . S
H2901 C2893 0.960 . S
H2902 C2894 0.930 . S
H2903 C2895 0.929 . S
H2904 C2912 0.929 . S
H2905 C2914 0.930 . S
H2906 C2916 0.930 . S
H2907 C2919 0.929 . S
H2908 C2922 0.930 . S
H2909 C2924 0.960 . S
H2910 C2924 0.960 . S
H2911 C2924 0.960 . S
C2912 H2904 0.929 . S
C2912 C2913 1.377 . S
C2912 C2914 1.384 . S
C2913 C2912 1.377 . S
C2913 C2919 1.390 . S
C2914 H2905 0.930 . S
C2914 C2912 1.384 . S
C2914 C2915 1.372 . S
C2915 C2914 1.372 . S
C2915 C2916 1.400 . S
C2915 C2920 1.490 . S
C2916 H2906 0.930 . S
C2916 C2915 1.400 . S
C2916 C2919 1.386 . S
H2917 C2933 0.930 . S
H2918 C2934 0.931 . S
C2919 H2907 0.929 . S
C2919 C2913 1.390 . S
C2919 C2916 1.386 . S
C2920 C2915 1.490 . S
C2920 C2922 1.395 . S
C2920 C2923 1.403 1_554 S
H2921 C2927 0.930 . S
C2922 H2908 0.930 . S
C2922 C2920 1.395 . S
C2922 C2925 1.403 . S
C2923 C2920 1.403 1_556 S
C2923 C2924 1.524 . S
C2923 C2927 1.400 . S
C2924 H2909 0.960 . S
C2924 H2910 0.960 . S
C2924 H2911 0.960 . S
C2924 C2923 1.524 . S
C2925 C2922 1.403 . S
C2925 C2926 1.392 1_554 S
C2925 C2929 1.495 . S
C2926 C2925 1.392 1_556 S
C2926 C2927 1.385 . S
C2926 C2928 1.478 . S
C2927 H2921 0.930 . S
C2927 C2923 1.400 . S
C2927 C2926 1.385 . S
C2928 C2926 1.478 . S
C2928 C2930 1.381 . S
C2928 C2934 1.383 . S
C2929 C2925 1.495 . S
C2929 H2935 0.959 . S
C2929 H2936 0.961 . S
C2929 H2937 0.960 . S
C2930 C2928 1.381 . S
C2930 C2931 1.394 . S
C2930 H2938 0.930 . S
C2931 C2930 1.394 . S
C2931 C2932 1.383 . S
C2931 H2939 0.929 . S
C2932 C2931 1.383 . S
C2932 C2933 1.377 . S
C2933 H2917 0.930 . S
C2933 C2932 1.377 . S
C2933 C2934 1.379 . S
C2934 H2918 0.931 . S
C2934 C2928 1.383 . S
C2934 C2933 1.379 . S
H2935 C2929 0.959 . S
H2936 C2929 0.961 . S
H2937 C2929 0.960 . S
H2938 C2930 0.930 . S
H2939 C2931 0.929 . S
H2940 C2948 0.929 . S
H2941 C2950 0.930 . S
H2942 C2952 0.930 . S
H2943 C2955 0.929 . S
H2944 C2958 0.930 . S
H2945 C2960 0.960 . S
H2946 C2960 0.960 . S
H2947 C2960 0.960 . S
C2948 H2940 0.929 . S
C2948 C2949 1.377 . S
C2948 C2950 1.384 . S
C2949 C2948 1.377 . S
C2949 C2955 1.390 . S
C2950 H2941 0.930 . S
C2950 C2948 1.384 . S
C2950 C2951 1.372 . S
C2951 C2950 1.372 . S
C2951 C2952 1.400 . S
C2951 C2956 1.490 . S
C2952 H2942 0.930 . S
C2952 C2951 1.400 . S
C2952 C2955 1.386 . S
H2953 C2969 0.930 . S
H2954 C2970 0.931 . S
C2955 H2943 0.929 . S
C2955 C2949 1.390 . S
C2955 C2952 1.386 . S
C2956 C2951 1.490 . S
C2956 C2958 1.395 . S
C2956 C2959 1.403 . S
H2957 C2963 0.930 . S
C2958 H2944 0.930 . S
C2958 C2956 1.395 . S
C2958 C2961 1.403 . S
C2959 C2956 1.403 . S
C2959 C2960 1.524 . S
C2959 C2963 1.400 . S
C2960 H2945 0.960 . S
C2960 H2946 0.960 . S
C2960 H2947 0.960 . S
C2960 C2959 1.524 . S
C2961 C2958 1.403 . S
C2961 C2962 1.392 . S
C2961 C2965 1.495 . S
C2962 C2961 1.392 . S
C2962 C2963 1.385 . S
C2962 C2964 1.478 . S
C2963 H2957 0.930 . S
C2963 C2959 1.400 . S
C2963 C2962 1.385 . S
C2964 C2962 1.478 . S
C2964 C2966 1.381 . S
C2964 C2970 1.383 . S
C2965 C2961 1.495 . S
C2965 H2971 0.959 . S
C2965 H2972 0.961 . S
C2965 H2973 0.960 . S
C2966 C2964 1.381 . S
C2966 C2967 1.394 . S
C2966 H2974 0.930 . S
C2967 C2966 1.394 . S
C2967 C2968 1.383 . S
C2967 H2975 0.929 . S
C2968 C2967 1.383 . S
C2968 C2969 1.377 . S
C2969 H2953 0.930 . S
C2969 C2968 1.377 . S
C2969 C2970 1.379 . S
C2970 H2954 0.931 . S
C2970 C2964 1.383 . S
C2970 C2969 1.379 . S
H2971 C2965 0.959 . S
H2972 C2965 0.961 . S
H2973 C2965 0.960 . S
H2974 C2966 0.930 . S
H2975 C2967 0.929 . S
H2976 C2984 0.929 . S
H2977 C2986 0.930 . S
H2978 C2988 0.930 . S
H2979 C2991 0.929 . S
H2980 C2994 0.930 . S
H2981 C2996 0.960 . S
H2982 C2996 0.960 . S
H2983 C2996 0.960 . S
C2984 H2976 0.929 . S
C2984 C2985 1.377 . S
C2984 C2986 1.384 . S
C2985 C2984 1.377 . S
C2985 C2991 1.390 . S
C2986 H2977 0.930 . S
C2986 C2984 1.384 . S
C2986 C2987 1.372 . S
C2987 C2986 1.372 . S
C2987 C2988 1.400 . S
C2987 C2992 1.490 . S
C2988 H2978 0.930 . S
C2988 C2987 1.400 . S
C2988 C2991 1.386 . S
H2989 C3005 0.930 . S
H2990 C3006 0.931 . S
C2991 H2979 0.929 . S
C2991 C2985 1.390 . S
C2991 C2988 1.386 . S
C2992 C2987 1.490 . S
C2992 C2994 1.395 . S
C2992 C2995 1.403 . S
H2993 C2999 0.930 . S
C2994 H2980 0.930 . S
C2994 C2992 1.395 . S
C2994 C2997 1.403 . S
C2995 C2992 1.403 . S
C2995 C2996 1.524 . S
C2995 C2999 1.400 . S
C2996 H2981 0.960 . S
C2996 H2982 0.960 . S
C2996 H2983 0.960 . S
C2996 C2995 1.524 . S
C2997 C2994 1.403 . S
C2997 C2998 1.392 . S
C2997 C3001 1.495 . S
C2998 C2997 1.392 . S
C2998 C2999 1.385 . S
C2998 C3000 1.478 . S
C2999 H2993 0.930 . S
C2999 C2995 1.400 . S
C2999 C2998 1.385 . S
C3000 C2998 1.478 . S
C3000 C3002 1.381 . S
C3000 C3006 1.383 . S
C3001 C2997 1.495 . S
C3001 H3007 0.959 . S
C3001 H3008 0.961 . S
C3001 H3009 0.960 . S
C3002 C3000 1.381 . S
C3002 C3003 1.394 . S
C3002 H3010 0.930 . S
C3003 C3002 1.394 . S
C3003 C3004 1.383 . S
C3003 H3011 0.929 . S
C3004 C3003 1.383 . S
C3004 C3005 1.377 . S
C3005 H2989 0.930 . S
C3005 C3004 1.377 . S
C3005 C3006 1.379 . S
C3006 H2990 0.931 . S
C3006 C3000 1.383 . S
C3006 C3005 1.379 . S
H3007 C3001 0.959 . S
H3008 C3001 0.961 . S
H3009 C3001 0.960 . S
H3010 C3002 0.930 . S
H3011 C3003 0.929 . S
H3012 C3020 0.929 . S
H3013 C3022 0.930 . S
H3014 C3024 0.930 . S
H3015 C3027 0.929 . S
H3016 C3030 0.930 . S
H3017 C3032 0.960 . S
H3018 C3032 0.960 . S
H3019 C3032 0.960 . S
C3020 H3012 0.929 . S
C3020 C3021 1.377 . S
C3020 C3022 1.384 . S
C3021 C3020 1.377 . S
C3021 C3027 1.390 . S
C3022 H3013 0.930 . S
C3022 C3020 1.384 . S
C3022 C3023 1.372 . S
C3023 C3022 1.372 . S
C3023 C3024 1.400 . S
C3023 C3028 1.490 . S
C3024 H3014 0.930 . S
C3024 C3023 1.400 . S
C3024 C3027 1.386 . S
H3025 C3041 0.930 . S
H3026 C3042 0.931 . S
C3027 H3015 0.929 . S
C3027 C3021 1.390 . S
C3027 C3024 1.386 . S
C3028 C3023 1.490 . S
C3028 C3030 1.395 . S
C3028 C3031 1.403 1_545 S
H3029 C3035 0.930 . S
C3030 H3016 0.930 . S
C3030 C3028 1.395 . S
C3030 C3033 1.403 . S
C3031 C3028 1.403 1_565 S
C3031 C3032 1.524 . S
C3031 C3035 1.400 . S
C3032 H3017 0.960 . S
C3032 H3018 0.960 . S
C3032 H3019 0.960 . S
C3032 C3031 1.524 . S
C3033 C3030 1.403 . S
C3033 C3034 1.392 1_545 S
C3033 C3037 1.495 . S
C3034 C3033 1.392 1_565 S
C3034 C3035 1.385 . S
C3034 C3036 1.478 . S
C3035 H3029 0.930 . S
C3035 C3031 1.400 . S
C3035 C3034 1.385 . S
C3036 C3034 1.478 . S
C3036 C3038 1.381 . S
C3036 C3042 1.383 . S
C3037 C3033 1.495 . S
C3037 H3043 0.959 . S
C3037 H3044 0.961 . S
C3037 H3045 0.960 . S
C3038 C3036 1.381 . S
C3038 C3039 1.394 . S
C3038 H3046 0.930 . S
C3039 C3038 1.394 . S
C3039 C3040 1.383 . S
C3039 H3047 0.929 . S
C3040 C3039 1.383 . S
C3040 C3041 1.377 . S
C3041 H3025 0.930 . S
C3041 C3040 1.377 . S
C3041 C3042 1.379 . S
C3042 H3026 0.931 . S
C3042 C3036 1.383 . S
C3042 C3041 1.379 . S
H3043 C3037 0.959 . S
H3044 C3037 0.961 . S
H3045 C3037 0.960 . S
H3046 C3038 0.930 . S
H3047 C3039 0.929 . S
H3048 C3056 0.929 . S
H3049 C3058 0.895 1_565 S
H3050 C3060 0.930 . S
H3051 C3063 0.929 . S
H3052 C3066 0.932 . S
H3053 C3068 0.960 . S
H3054 C3068 0.960 . S
H3055 C3068 0.960 . S
C3056 H3048 0.929 . S
C3056 C3057 1.377 . S
C3056 C3058 1.384 . S
C3057 C3056 1.377 . S
C3057 C3063 1.390 . S
C3058 H3049 0.895 1_545 S
C3058 C3056 1.384 . S
C3058 C3059 1.372 . S
C3059 C3058 1.372 . S
C3059 C3060 1.400 . S
C3059 C3064 1.490 . S
C3060 H3050 0.930 . S
C3060 C3059 1.400 . S
C3060 C3063 1.386 . S
H3061 C3077 0.930 . S
H3062 C3078 0.931 . S
C3063 H3051 0.929 . S
C3063 C3057 1.390 . S
C3063 C3060 1.386 . S
C3064 C3059 1.490 . S
C3064 C3066 1.395 1_545 S
C3064 C3067 1.403 . S
H3065 C3071 0.930 . S
C3066 H3052 0.932 . S
C3066 C3064 1.395 1_565 S
C3066 C3069 1.403 . S
C3067 C3064 1.403 . S
C3067 C3068 1.524 . S
C3067 C3071 1.400 1_545 S
C3068 H3053 0.960 . S
C3068 H3054 0.960 . S
C3068 H3055 0.960 . S
C3068 C3067 1.524 . S
C3069 C3066 1.403 . S
C3069 C3070 1.392 . S
C3069 C3073 1.495 . S
C3070 C3069 1.392 . S
C3070 C3071 1.385 . S
C3070 C3072 1.478 . S
C3071 H3065 0.930 . S
C3071 C3067 1.400 1_565 S
C3071 C3070 1.385 . S
C3072 C3070 1.478 . S
C3072 C3074 1.381 . S
C3072 C3078 1.383 . S
C3073 C3069 1.495 . S
C3073 H3079 0.959 . S
C3073 H3080 0.961 . S
C3073 H3081 0.960 . S
C3074 C3072 1.381 . S
C3074 C3075 1.394 . S
C3074 H3082 0.930 . S
C3075 C3074 1.394 . S
C3075 C3076 1.383 . S
C3075 H3083 0.929 . S
C3076 C3075 1.383 . S
C3076 C3077 1.377 . S
C3077 H3061 0.930 . S
C3077 C3076 1.377 . S
C3077 C3078 1.379 . S
C3078 H3062 0.931 . S
C3078 C3072 1.383 . S
C3078 C3077 1.379 . S
H3079 C3073 0.959 . S
H3080 C3073 0.961 . S
H3081 C3073 0.960 . S
H3082 C3074 0.930 . S
H3083 C3075 0.929 . S
H3084 C3092 0.929 . S
H3085 C3094 0.930 . S
H3086 C3096 0.930 . S
H3087 C3099 0.929 . S
H3088 C3102 0.930 . S
H3089 C3104 0.960 . S
H3090 C3104 0.960 . S
H3091 C3104 0.960 . S
C3092 H3084 0.929 . S
C3092 C3093 1.377 . S
C3092 C3094 1.384 . S
C3093 C3092 1.377 . S
C3093 C3099 1.390 . S
C3094 H3085 0.930 . S
C3094 C3092 1.384 . S
C3094 C3095 1.372 . S
C3095 C3094 1.372 . S
C3095 C3096 1.400 . S
C3095 C3100 1.490 . S
C3096 H3086 0.930 . S
C3096 C3095 1.400 . S
C3096 C3099 1.386 . S
H3097 C3113 0.930 . S
H3098 C3114 0.931 . S
C3099 H3087 0.929 . S
C3099 C3093 1.390 . S
C3099 C3096 1.386 . S
C3100 C3095 1.490 . S
C3100 C3102 1.395 . S
C3100 C3103 1.403 . S
H3101 C3107 0.930 . S
C3102 H3088 0.930 . S
C3102 C3100 1.395 . S
C3102 C3105 1.403 . S
C3103 C3100 1.403 . S
C3103 C3104 1.524 . S
C3103 C3107 1.400 . S
C3104 H3089 0.960 . S
C3104 H3090 0.960 . S
C3104 H3091 0.960 . S
C3104 C3103 1.524 . S
C3105 C3102 1.403 . S
C3105 C3106 1.392 . S
C3105 C3109 1.495 . S
C3106 C3105 1.392 . S
C3106 C3107 1.385 . S
C3106 C3108 1.478 . S
C3107 H3101 0.930 . S
C3107 C3103 1.400 . S
C3107 C3106 1.385 . S
C3108 C3106 1.478 . S
C3108 C3110 1.381 . S
C3108 C3114 1.383 . S
C3109 C3105 1.495 . S
C3109 H3115 0.959 . S
C3109 H3116 0.961 . S
C3109 H3117 0.960 . S
C3110 C3108 1.381 . S
C3110 C3111 1.394 . S
C3110 H3118 0.930 . S
C3111 C3110 1.394 . S
C3111 C3112 1.383 . S
C3111 H3119 0.929 . S
C3112 C3111 1.383 . S
C3112 C3113 1.377 . S
C3113 H3097 0.930 . S
C3113 C3112 1.377 . S
C3113 C3114 1.379 . S
C3114 H3098 0.931 . S
C3114 C3108 1.383 . S
C3114 C3113 1.379 . S
H3115 C3109 0.959 . S
H3116 C3109 0.961 . S
H3117 C3109 0.960 . S
H3118 C3110 0.930 . S
H3119 C3111 0.929 . S
C537 C4 0.872 . S
C556 C338 0.924 . S
C573 C268 0.874 . S
C592 C26 0.917 . S
C609 C294 0.887 . S
C628 C48 0.841 . S
C645 C70 0.865 . S
C664 C316 0.924 . S
C681 C96 0.887 . S
C700 C202 0.840 . S
C717 C118 0.881 . S
C736 C224 0.823 . S
C753 C140 0.880 . S
C772 C246 0.894 . S
C789 C162 0.873 . S
C808 C184 0.850 . S
C825 C356 0.867 . S
C844 C448 0.930 . S
C861 C382 0.883 . S
C880 C510 0.820 . S
C897 C400 0.887 . S
C916 C470 0.833 . S
C933 C422 0.875 . S
C952 C488 0.915 . S
C969 C466 0.901 . S
C988 C9 0.846 . S
C1005 C31 0.882 . S
C1024 C492 0.930 . S
C1041 C53 0.896 . S
C1060 C360 0.869 . S
C1077 C75 0.891 . S
C1096 C514 0.891 . S
C1113 C426 0.891 . S
C1132 C93 0.899 . S
C1149 C444 0.887 . S
C1168 C115 0.920 . S
C1185 C137 0.898 . S
C1204 C378 0.854 . S
C1221 C159 0.884 . S
C1240 C404 0.922 . S
C1257 C181 0.897 . S
C1276 C92 0.866 . S
C1293 C207 0.882 . S
C1312 C114 0.928 . S
C1329 C229 0.890 . S
C1348 C136 0.897 . S
C1365 C251 0.887 . S
C1384 C158 0.904 . S
C1401 C8 0.896 . S
C1420 C273 0.869 . S
C1437 C291 0.888 . S
C1456 C30 0.905 . S
C1473 C313 0.881 . S
C1492 C52 0.932 . S
C1509 C335 0.882 . S
C1528 C74 0.930 . S
C1545 C312 0.894 . S
C1564 C361 0.877 . S
C1581 C228 0.890 . S
C1600 C379 0.908 . S
C1617 C405 0.885 . S
C1636 C250 0.914 . S
C1653 C180 0.901 . S
C1672 C427 0.849 . S
C1689 C445 0.883 . S
C1708 C206 0.928 . S
C1725 C272 0.895 . S
C1744 C467 0.874 . S
C1761 C290 0.889 . S
C1780 C493 0.905 . S
C1797 C334 0.894 . S
C1816 C515 0.877 . S
C1833 C401 1.463 . S
C1852 C6 1.378 . S
C1869 C28 1.422 . S
C1888 C423 1.463 . S
C1905 C449 1.460 . S
C1924 C50 1.442 . S
C1941 C72 1.410 . S
C1960 C383 1.477 . S
C1977 C489 1.466 . S
C1996 C95 1.447 . S
C2013 C357 1.466 . S
C2032 C117 1.399 . S
C2049 C511 1.463 . S
C2068 C139 1.449 . S
C2085 C471 1.456 . S
C2104 C161 1.417 . S
C2121 C203 1.465 . S
C2140 C183 1.448 . S
C2157 C225 1.466 . S
C2176 C204 1.396 . S
C2193 C226 1.407 . S
C2212 C247 1.464 . S
C2229 C248 1.420 . S
C2248 C185 1.484 . S
C2265 C339 1.464 . S
C2284 C270 1.384 . S
C2301 C269 1.455 . S
C2320 C293 1.404 . S
C2337 C315 1.415 . S
C2356 C295 1.488 . S
C2373 C337 1.421 . S
C2392 C317 1.478 . S
C2409 C71 1.456 . S
C2428 C358 1.383 . S
C2445 C119 1.456 . S
C2464 C381 1.418 . S
C2481 C141 1.468 . S
C2500 C402 1.429 . S
C2517 C163 1.467 . S
C2536 C424 1.406 . S
C2553 C97 1.467 . S
C2572 C447 1.407 . S
C2589 C27 1.465 . S
C2608 C469 1.448 . S
C2625 C49 1.458 . S
C2644 C490 1.374 . S
C2661 C512 1.414 . S
C2680 C5 1.487 . S
C2697 C7 1.526 . S
C2716 C205 1.532 . S
C2733 C227 1.526 . S
C2752 C29 1.533 . S
C2769 C51 1.526 . S
C2788 C249 1.532 . S
C2805 C73 1.528 . S
C2824 C182 1.523 . S
C2841 C94 1.522 . S
C2860 C336 1.518 . S
C2877 C271 1.526 . S
C2896 C116 1.534 . S
C2913 C138 1.523 . S
C2932 C292 1.510 . S
C2949 C160 1.523 . S
C2968 C314 1.533 . S
C2985 C359 1.526 . S
C3004 C403 1.508 . S
C3021 C380 1.525 . S
C3040 C491 1.508 . S
C3057 C513 1.523 . S
C3076 C425 1.512 . S
C3093 C446 1.527 . S
C3112 C468 1.531 . S
